# Generated by pormake.
# Topology son, (6)-cn, num edge types: 1
# Building blocks:
#     Node 0, Type 0, BuildingBlock: BETFEN_clean_sbu_0, # of connection points: 6
#     Node 1, Type 0, BuildingBlock: BETFEN_clean_sbu_0, # of connection points: 6
#     Node 2, Type 0, BuildingBlock: BETFEN_clean_sbu_0, # of connection points: 6
#     Node 3, Type 0, BuildingBlock: BETFEN_clean_sbu_0, # of connection points: 6
#     Node 4, Type 0, BuildingBlock: BETFEN_clean_sbu_0, # of connection points: 6
#     Node 5, Type 0, BuildingBlock: BETFEN_clean_sbu_0, # of connection points: 6
#     Node 6, Type 0, BuildingBlock: BETFEN_clean_sbu_0, # of connection points: 6
#     Node 7, Type 0, BuildingBlock: BETFEN_clean_sbu_0, # of connection points: 6
#     Node 8, Type 0, BuildingBlock: BETFEN_clean_sbu_0, # of connection points: 6
#     Node 9, Type 0, BuildingBlock: BETFEN_clean_sbu_0, # of connection points: 6
#     Node 10, Type 0, BuildingBlock: BETFEN_clean_sbu_0, # of connection points: 6
#     Node 11, Type 0, BuildingBlock: BETFEN_clean_sbu_0, # of connection points: 6
#     Node 12, Type 0, BuildingBlock: BETFEN_clean_sbu_0, # of connection points: 6
#     Node 13, Type 0, BuildingBlock: BETFEN_clean_sbu_0, # of connection points: 6
#     Node 14, Type 0, BuildingBlock: BETFEN_clean_sbu_0, # of connection points: 6
#     Node 15, Type 0, BuildingBlock: BETFEN_clean_sbu_0, # of connection points: 6
#     Node 16, Type 0, BuildingBlock: BETFEN_clean_sbu_0, # of connection points: 6
#     Node 17, Type 0, BuildingBlock: BETFEN_clean_sbu_0, # of connection points: 6
#     Node 18, Type 0, BuildingBlock: BETFEN_clean_sbu_0, # of connection points: 6
#     Node 19, Type 0, BuildingBlock: BETFEN_clean_sbu_0, # of connection points: 6
#     Node 20, Type 0, BuildingBlock: BETFEN_clean_sbu_0, # of connection points: 6
#     Node 21, Type 0, BuildingBlock: BETFEN_clean_sbu_0, # of connection points: 6
#     Node 22, Type 0, BuildingBlock: BETFEN_clean_sbu_0, # of connection points: 6
#     Node 23, Type 0, BuildingBlock: BETFEN_clean_sbu_0, # of connection points: 6
#     Node 24, Type 0, BuildingBlock: BETFEN_clean_sbu_0, # of connection points: 6
#     Node 25, Type 0, BuildingBlock: BETFEN_clean_sbu_0, # of connection points: 6
#     Node 26, Type 0, BuildingBlock: BETFEN_clean_sbu_0, # of connection points: 6
#     Node 27, Type 0, BuildingBlock: BETFEN_clean_sbu_0, # of connection points: 6
#     Node 28, Type 0, BuildingBlock: BETFEN_clean_sbu_0, # of connection points: 6
#     Node 29, Type 0, BuildingBlock: BETFEN_clean_sbu_0, # of connection points: 6
#     Node 30, Type 0, BuildingBlock: BETFEN_clean_sbu_0, # of connection points: 6
#     Node 31, Type 0, BuildingBlock: BETFEN_clean_sbu_0, # of connection points: 6
#     Edge 32, Type (0, 0), BuildingBlock: XIVTED_clean_linker_0, # of connection points: 2
#     Edge 33, Type (0, 0), BuildingBlock: XIVTED_clean_linker_0, # of connection points: 2
#     Edge 34, Type (0, 0), BuildingBlock: XIVTED_clean_linker_0, # of connection points: 2
#     Edge 35, Type (0, 0), BuildingBlock: XIVTED_clean_linker_0, # of connection points: 2
#     Edge 36, Type (0, 0), BuildingBlock: XIVTED_clean_linker_0, # of connection points: 2
#     Edge 37, Type (0, 0), BuildingBlock: XIVTED_clean_linker_0, # of connection points: 2
#     Edge 38, Type (0, 0), BuildingBlock: XIVTED_clean_linker_0, # of connection points: 2
#     Edge 39, Type (0, 0), BuildingBlock: XIVTED_clean_linker_0, # of connection points: 2
#     Edge 40, Type (0, 0), BuildingBlock: XIVTED_clean_linker_0, # of connection points: 2
#     Edge 41, Type (0, 0), BuildingBlock: XIVTED_clean_linker_0, # of connection points: 2
#     Edge 42, Type (0, 0), BuildingBlock: XIVTED_clean_linker_0, # of connection points: 2
#     Edge 43, Type (0, 0), BuildingBlock: XIVTED_clean_linker_0, # of connection points: 2
#     Edge 44, Type (0, 0), BuildingBlock: XIVTED_clean_linker_0, # of connection points: 2
#     Edge 45, Type (0, 0), BuildingBlock: XIVTED_clean_linker_0, # of connection points: 2
#     Edge 46, Type (0, 0), BuildingBlock: XIVTED_clean_linker_0, # of connection points: 2
#     Edge 47, Type (0, 0), BuildingBlock: XIVTED_clean_linker_0, # of connection points: 2
#     Edge 48, Type (0, 0), BuildingBlock: XIVTED_clean_linker_0, # of connection points: 2
#     Edge 49, Type (0, 0), BuildingBlock: XIVTED_clean_linker_0, # of connection points: 2
#     Edge 50, Type (0, 0), BuildingBlock: XIVTED_clean_linker_0, # of connection points: 2
#     Edge 51, Type (0, 0), BuildingBlock: XIVTED_clean_linker_0, # of connection points: 2
#     Edge 52, Type (0, 0), BuildingBlock: XIVTED_clean_linker_0, # of connection points: 2
#     Edge 53, Type (0, 0), BuildingBlock: XIVTED_clean_linker_0, # of connection points: 2
#     Edge 54, Type (0, 0), BuildingBlock: XIVTED_clean_linker_0, # of connection points: 2
#     Edge 55, Type (0, 0), BuildingBlock: XIVTED_clean_linker_0, # of connection points: 2
#     Edge 56, Type (0, 0), BuildingBlock: XIVTED_clean_linker_0, # of connection points: 2
#     Edge 57, Type (0, 0), BuildingBlock: XIVTED_clean_linker_0, # of connection points: 2
#     Edge 58, Type (0, 0), BuildingBlock: XIVTED_clean_linker_0, # of connection points: 2
#     Edge 59, Type (0, 0), BuildingBlock: XIVTED_clean_linker_0, # of connection points: 2
#     Edge 60, Type (0, 0), BuildingBlock: XIVTED_clean_linker_0, # of connection points: 2
#     Edge 61, Type (0, 0), BuildingBlock: XIVTED_clean_linker_0, # of connection points: 2
#     Edge 62, Type (0, 0), BuildingBlock: XIVTED_clean_linker_0, # of connection points: 2
#     Edge 63, Type (0, 0), BuildingBlock: XIVTED_clean_linker_0, # of connection points: 2
#     Edge 64, Type (0, 0), BuildingBlock: XIVTED_clean_linker_0, # of connection points: 2
#     Edge 65, Type (0, 0), BuildingBlock: XIVTED_clean_linker_0, # of connection points: 2
#     Edge 66, Type (0, 0), BuildingBlock: XIVTED_clean_linker_0, # of connection points: 2
#     Edge 67, Type (0, 0), BuildingBlock: XIVTED_clean_linker_0, # of connection points: 2
#     Edge 68, Type (0, 0), BuildingBlock: XIVTED_clean_linker_0, # of connection points: 2
#     Edge 69, Type (0, 0), BuildingBlock: XIVTED_clean_linker_0, # of connection points: 2
#     Edge 70, Type (0, 0), BuildingBlock: XIVTED_clean_linker_0, # of connection points: 2
#     Edge 71, Type (0, 0), BuildingBlock: XIVTED_clean_linker_0, # of connection points: 2
#     Edge 72, Type (0, 0), BuildingBlock: XIVTED_clean_linker_0, # of connection points: 2
#     Edge 73, Type (0, 0), BuildingBlock: XIVTED_clean_linker_0, # of connection points: 2
#     Edge 74, Type (0, 0), BuildingBlock: XIVTED_clean_linker_0, # of connection points: 2
#     Edge 75, Type (0, 0), BuildingBlock: XIVTED_clean_linker_0, # of connection points: 2
#     Edge 76, Type (0, 0), BuildingBlock: XIVTED_clean_linker_0, # of connection points: 2
#     Edge 77, Type (0, 0), BuildingBlock: XIVTED_clean_linker_0, # of connection points: 2
#     Edge 78, Type (0, 0), BuildingBlock: XIVTED_clean_linker_0, # of connection points: 2
#     Edge 79, Type (0, 0), BuildingBlock: XIVTED_clean_linker_0, # of connection points: 2
#     Edge 80, Type (0, 0), BuildingBlock: XIVTED_clean_linker_0, # of connection points: 2
#     Edge 81, Type (0, 0), BuildingBlock: XIVTED_clean_linker_0, # of connection points: 2
#     Edge 82, Type (0, 0), BuildingBlock: XIVTED_clean_linker_0, # of connection points: 2
#     Edge 83, Type (0, 0), BuildingBlock: XIVTED_clean_linker_0, # of connection points: 2
#     Edge 84, Type (0, 0), BuildingBlock: XIVTED_clean_linker_0, # of connection points: 2
#     Edge 85, Type (0, 0), BuildingBlock: XIVTED_clean_linker_0, # of connection points: 2
#     Edge 86, Type (0, 0), BuildingBlock: XIVTED_clean_linker_0, # of connection points: 2
#     Edge 87, Type (0, 0), BuildingBlock: XIVTED_clean_linker_0, # of connection points: 2
#     Edge 88, Type (0, 0), BuildingBlock: XIVTED_clean_linker_0, # of connection points: 2
#     Edge 89, Type (0, 0), BuildingBlock: XIVTED_clean_linker_0, # of connection points: 2
#     Edge 90, Type (0, 0), BuildingBlock: XIVTED_clean_linker_0, # of connection points: 2
#     Edge 91, Type (0, 0), BuildingBlock: XIVTED_clean_linker_0, # of connection points: 2
#     Edge 92, Type (0, 0), BuildingBlock: XIVTED_clean_linker_0, # of connection points: 2
#     Edge 93, Type (0, 0), BuildingBlock: XIVTED_clean_linker_0, # of connection points: 2
#     Edge 94, Type (0, 0), BuildingBlock: XIVTED_clean_linker_0, # of connection points: 2
#     Edge 95, Type (0, 0), BuildingBlock: XIVTED_clean_linker_0, # of connection points: 2
#     Edge 96, Type (0, 0), BuildingBlock: XIVTED_clean_linker_0, # of connection points: 2
#     Edge 97, Type (0, 0), BuildingBlock: XIVTED_clean_linker_0, # of connection points: 2
#     Edge 98, Type (0, 0), BuildingBlock: XIVTED_clean_linker_0, # of connection points: 2
#     Edge 99, Type (0, 0), BuildingBlock: XIVTED_clean_linker_0, # of connection points: 2
#     Edge 100, Type (0, 0), BuildingBlock: XIVTED_clean_linker_0, # of connection points: 2
#     Edge 101, Type (0, 0), BuildingBlock: XIVTED_clean_linker_0, # of connection points: 2
#     Edge 102, Type (0, 0), BuildingBlock: XIVTED_clean_linker_0, # of connection points: 2
#     Edge 103, Type (0, 0), BuildingBlock: XIVTED_clean_linker_0, # of connection points: 2
#     Edge 104, Type (0, 0), BuildingBlock: XIVTED_clean_linker_0, # of connection points: 2
#     Edge 105, Type (0, 0), BuildingBlock: XIVTED_clean_linker_0, # of connection points: 2
#     Edge 106, Type (0, 0), BuildingBlock: XIVTED_clean_linker_0, # of connection points: 2
#     Edge 107, Type (0, 0), BuildingBlock: XIVTED_clean_linker_0, # of connection points: 2
#     Edge 108, Type (0, 0), BuildingBlock: XIVTED_clean_linker_0, # of connection points: 2
#     Edge 109, Type (0, 0), BuildingBlock: XIVTED_clean_linker_0, # of connection points: 2
#     Edge 110, Type (0, 0), BuildingBlock: XIVTED_clean_linker_0, # of connection points: 2
#     Edge 111, Type (0, 0), BuildingBlock: XIVTED_clean_linker_0, # of connection points: 2
#     Edge 112, Type (0, 0), BuildingBlock: XIVTED_clean_linker_0, # of connection points: 2
#     Edge 113, Type (0, 0), BuildingBlock: XIVTED_clean_linker_0, # of connection points: 2
#     Edge 114, Type (0, 0), BuildingBlock: XIVTED_clean_linker_0, # of connection points: 2
#     Edge 115, Type (0, 0), BuildingBlock: XIVTED_clean_linker_0, # of connection points: 2
#     Edge 116, Type (0, 0), BuildingBlock: XIVTED_clean_linker_0, # of connection points: 2
#     Edge 117, Type (0, 0), BuildingBlock: XIVTED_clean_linker_0, # of connection points: 2
#     Edge 118, Type (0, 0), BuildingBlock: XIVTED_clean_linker_0, # of connection points: 2
#     Edge 119, Type (0, 0), BuildingBlock: XIVTED_clean_linker_0, # of connection points: 2
#     Edge 120, Type (0, 0), BuildingBlock: XIVTED_clean_linker_0, # of connection points: 2
#     Edge 121, Type (0, 0), BuildingBlock: XIVTED_clean_linker_0, # of connection points: 2
#     Edge 122, Type (0, 0), BuildingBlock: XIVTED_clean_linker_0, # of connection points: 2
#     Edge 123, Type (0, 0), BuildingBlock: XIVTED_clean_linker_0, # of connection points: 2
#     Edge 124, Type (0, 0), BuildingBlock: XIVTED_clean_linker_0, # of connection points: 2
#     Edge 125, Type (0, 0), BuildingBlock: XIVTED_clean_linker_0, # of connection points: 2
#     Edge 126, Type (0, 0), BuildingBlock: XIVTED_clean_linker_0, # of connection points: 2
#     Edge 127, Type (0, 0), BuildingBlock: XIVTED_clean_linker_0, # of connection points: 2
# Relax obj value: 0.153
# Max RMSD: 0.180
# Mean RMSD: 0.179
data_MOF--net-son--node1-BETFEN_clean_sbu_0--edge1-XIVTED_clean_linker_0
_symmetry_space_group_name_H-M    P1
_symmetry_Int_Tables_number       1
_symmetry_cell_setting            triclinic
loop_
_symmetry_equiv_pos_as_xyz
'x, y, z'
_cell_length_a     95.840128
_cell_length_b     52.382605
_cell_length_c     25.57184
_cell_angle_alpha  89.958301
_cell_angle_beta   89.961781
_cell_angle_gamma 89.996157
loop_
_atom_site_label
_atom_site_type_symbol
_atom_site_fract_x
_atom_site_fract_y
_atom_site_fract_z
_atom_type_partial_charge
Pr0 Pr 0.31242 0.27578 0.16965 0.0
Pr1 Pr 0.29279 0.26635 0.27034 0.0
C2 C 0.32287 0.28128 0.07242 0.0
C3 C 0.31884 0.27501 0.01819 0.0
C4 C 0.32905 0.27398 0.979 0.0
C5 C 0.32527 0.26994 0.92675 0.0
C6 C 0.31116 0.26691 0.91259 0.0
C7 C 0.30098 0.26737 0.95232 0.0
C8 C 0.30478 0.27136 1.00455 0.0
C9 C 0.30938 0.31673 0.23941 0.0
C10 C 0.27822 0.26664 0.15532 0.0
C11 C 0.28063 0.27539 0.36371 0.0
C12 C 0.28298 0.26956 0.41955 0.0
C13 C 0.27169 0.26927 0.45442 0.0
C14 C 0.27393 0.26621 0.50822 0.0
C15 C 0.28754 0.26349 0.5283 0.0
C16 C 0.29879 0.26306 0.49283 0.0
C17 C 0.29653 0.26601 0.43908 0.0
C18 C 0.29927 0.21916 0.22433 0.0
C19 C 0.32768 0.2567 0.27507 0.0
O20 O 0.32633 0.26224 0.10315 0.0
O21 O 0.31527 0.29866 0.09576 0.0
O22 O 0.29961 0.30206 0.22476 0.0
O23 O 0.32101 0.31089 0.2162 0.0
O24 O 0.27571 0.27209 0.20506 0.0
O25 O 0.29093 0.26398 0.13671 0.0
O26 O 0.28974 0.29068 0.34193 0.0
O27 O 0.27675 0.25663 0.33309 0.0
O28 O 0.30322 0.24094 0.20938 0.0
O29 O 0.29171 0.22127 0.26641 0.0
O30 O 0.32867 0.25701 0.22357 0.0
O31 O 0.31601 0.26259 0.30046 0.0
H32 H 0.33994 0.27686 0.98866 0.0
H33 H 0.33338 0.27 0.89724 0.0
H34 H 0.29005 0.26475 0.94304 0.0
H35 H 0.29671 0.27206 0.03413 0.0
H36 H 0.26114 0.27194 0.44017 0.0
H37 H 0.26498 0.26618 0.53409 0.0
H38 H 0.30943 0.26133 0.50663 0.0
H39 H 0.30542 0.26622 0.4129 0.0
Pr40 Pr 0.92885 1.00265 0.18078 0.0
Pr41 Pr 0.94862 0.01167 0.28101 0.0
C42 C 0.91806 0.99704 0.08424 0.0
C43 C 0.92181 1.00254 0.02937 0.0
C44 C 0.91125 1.00495 0.99185 0.0
C45 C 0.9146 1.00786 0.93891 0.0
C46 C 0.92862 1.0083 0.92225 0.0
C47 C 0.9392 1.00671 0.96036 0.0
C48 C 0.93582 1.00388 0.01338 0.0
C49 C 0.93165 0.9617 0.25071 0.0
C50 C 0.96307 1.01059 0.16581 0.0
C51 C 0.96097 1.00241 0.37397 0.0
C52 C 0.95835 1.00778 0.42974 0.0
C53 C 0.96906 1.00465 0.46652 0.0
C54 C 0.96626 1.00702 0.52012 0.0
C55 C 0.95266 0.01239 0.53787 0.0
C56 C 0.94207 0.01634 0.50059 0.0
C57 C 0.94489 0.0141 0.44711 0.0
C58 C 0.94247 0.05901 0.23466 0.0
C59 C 0.91383 0.02176 0.28648 0.0
O60 O 0.91498 0.01649 0.11442 0.0
O61 O 0.92552 0.9795 0.1077 0.0
O62 O 0.94152 0.97609 0.23573 0.0
O63 O 0.92003 0.96787 0.22792 0.0
O64 O 0.96556 1.0052 0.21557 0.0
O65 O 0.9504 0.01366 0.14715 0.0
O66 O 0.95209 0.98687 0.35174 0.0
O67 O 0.96453 0.02162 0.34395 0.0
O68 O 0.93834 0.03731 0.21998 0.0
O69 O 0.95005 0.05673 0.27662 0.0
O70 O 0.91284 0.02186 0.23499 0.0
O71 O 0.92546 0.01543 0.31161 0.0
H72 H 0.90038 1.00406 1.00339 0.0
H73 H 0.90617 1.00957 0.91096 0.0
H74 H 0.9501 1.00678 0.94917 0.0
H75 H 0.94417 1.00207 0.0417 0.0
H76 H 0.9795 0.99966 0.45389 0.0
H77 H 0.97464 1.00369 0.54769 0.0
H78 H 0.93154 0.02092 0.51278 0.0
H79 H 0.93648 0.01666 0.41933 0.0
Pr80 Pr 0.3122 0.99291 0.10045 0.0
Pr81 Pr 0.29273 1.00249 0.99947 0.0
C82 C 0.32249 0.98748 0.19788 0.0
C83 C 0.31837 0.99394 0.25192 0.0
C84 C 0.32842 0.99411 0.29168 0.0
C85 C 0.32449 0.99818 0.34378 0.0
C86 C 0.31039 1.0021 0.35718 0.0
C87 C 0.30039 1.00254 0.31688 0.0
C88 C 0.30434 0.99851 0.26481 0.0
C89 C 0.30884 0.95174 0.03151 0.0
C90 C 0.27809 1.00308 0.1143 0.0
C91 C 0.28049 0.99371 0.90622 0.0
C92 C 0.28289 0.99973 0.8505 0.0
C93 C 0.27165 1.00002 0.81544 0.0
C94 C 0.27396 1.00339 0.76175 0.0
C95 C 0.2876 1.00643 0.742 0.0
C96 C 0.29879 1.0068 0.77768 0.0
C97 C 0.29646 1.00355 0.8313 0.0
C98 C 0.29958 0.04968 0.04472 0.0
C99 C 0.32775 1.01055 0.99459 0.0
O100 O 0.32608 1.0064 0.16702 0.0
O101 O 0.31483 0.97017 0.17459 0.0
O102 O 0.29919 0.96678 0.04576 0.0
O103 O 0.32049 0.95729 0.05478 0.0
O104 O 0.27558 0.99733 0.06473 0.0
O105 O 0.2908 1.00561 0.13289 0.0
O106 O 0.28956 0.97829 0.92778 0.0
O107 O 0.27666 0.01242 0.93706 0.0
O108 O 0.30334 0.02786 0.06001 0.0
O109 O 0.29206 0.04761 1.00258 0.0
O110 O 0.32872 1.01063 0.0461 0.0
O111 O 0.316 1.00504 0.96942 0.0
H112 H 0.33929 0.9905 0.28259 0.0
H113 H 0.33246 0.99743 0.37375 0.0
H114 H 0.28948 1.00586 0.32559 0.0
H115 H 0.29639 0.99846 0.23478 0.0
H116 H 0.26109 0.99716 0.82946 0.0
H117 H 0.26506 1.00344 0.73572 0.0
H118 H 0.30944 1.00875 0.76411 0.0
H119 H 0.3053 1.00334 0.85764 0.0
Pr120 Pr 0.92868 0.28283 0.0955 0.0
Pr121 Pr 0.94853 0.27268 0.99478 0.0
C122 C 0.91677 0.28571 0.19093 0.0
C123 C 0.92076 0.2821 0.24618 0.0
C124 C 0.91039 0.27853 0.28409 0.0
C125 C 0.91394 0.27616 0.33696 0.0
C126 C 0.92799 0.2774 0.35311 0.0
C127 C 0.93839 0.28049 0.31465 0.0
C128 C 0.9348 0.28279 0.26174 0.0
C129 C 0.93095 0.32267 0.02303 0.0
C130 C 0.96348 0.28031 0.10988 0.0
C131 C 0.96098 0.28105 0.9015 0.0
C132 C 0.95788 0.27672 0.84573 0.0
C133 C 0.96833 0.28022 0.80801 0.0
C134 C 0.96517 0.27841 0.75463 0.0
C135 C 0.95145 0.27318 0.73799 0.0
C136 C 0.9411 0.269 0.77618 0.0
C137 C 0.94429 0.27073 0.82947 0.0
C138 C 0.94265 0.22609 0.04456 0.0
C139 C 0.91387 0.26263 0.98913 0.0
O140 O 0.91618 0.26519 0.16175 0.0
O141 O 0.92231 0.30534 0.1669 0.0
O142 O 0.94095 0.30861 0.03816 0.0
O143 O 0.91946 0.31697 0.0475 0.0
O144 O 0.96582 0.27879 0.05886 0.0
O145 O 0.95089 0.28092 0.1305 0.0
O146 O 0.95302 0.29774 0.92506 0.0
O147 O 0.96361 0.26095 0.93034 0.0
O148 O 0.93847 0.24797 0.05798 0.0
O149 O 0.95006 0.22778 1.00203 0.0
O150 O 0.91292 0.26306 0.04062 0.0
O151 O 0.92549 0.2686 0.96364 0.0
H152 H 0.8995 0.27779 0.27284 0.0
H153 H 0.90566 0.2733 0.36518 0.0
H154 H 0.94929 0.28178 0.32546 0.0
H155 H 0.94298 0.28547 0.23308 0.0
H156 H 0.97887 0.28497 0.8198 0.0
H157 H 0.97337 0.28196 0.72642 0.0
H158 H 0.93049 0.26453 0.76489 0.0
H159 H 0.93608 0.26791 0.858 0.0
Pr160 Pr 0.69865 0.75125 0.74754 0.0
Pr161 Pr 0.67855 0.73999 0.84745 0.0
C162 C 0.71135 0.7439 0.65431 0.0
C163 C 0.70774 0.74591 0.59833 0.0
C164 C 0.71834 0.74768 0.56069 0.0
C165 C 0.71506 0.74822 0.50728 0.0
C166 C 0.70109 0.74694 0.49044 0.0
C167 C 0.69048 0.74563 0.52855 0.0
C168 C 0.69378 0.74513 0.58188 0.0
C169 C 0.69289 0.79715 0.79999 0.0
C170 C 0.66404 0.76146 0.74155 0.0
C171 C 0.66656 0.7359 0.94262 0.0
C172 C 0.67047 0.7389 0.99809 0.0
C173 C 0.66015 0.73749 0.0368 0.0
C174 C 0.66372 0.73925 0.08976 0.0
C175 C 0.67772 0.74239 0.10521 0.0
C176 C 0.68803 0.74418 0.06603 0.0
C177 C 0.68443 0.74246 0.01301 0.0
C178 C 0.68093 0.70109 0.77292 0.0
C179 C 0.71337 0.74259 0.86273 0.0
O180 O 0.70505 0.72581 0.68048 0.0
O181 O 0.71234 0.76522 0.68066 0.0
O182 O 0.68861 0.77513 0.81205 0.0
O183 O 0.70046 0.79594 0.7578 0.0
O184 O 0.66303 0.76071 0.79303 0.0
O185 O 0.67563 0.75532 0.71607 0.0
O186 O 0.66597 0.75675 0.91434 0.0
O187 O 0.6722 0.71661 0.91786 0.0
O188 O 0.69086 0.71494 0.78925 0.0
O189 O 0.66937 0.70647 0.7973 0.0
O190 O 0.71586 0.74506 0.81195 0.0
O191 O 0.70073 0.74131 0.88278 0.0
H192 H 0.72919 0.74822 0.57258 0.0
H193 H 0.72351 0.74899 0.47918 0.0
H194 H 0.67961 0.74503 0.51718 0.0
H195 H 0.68542 0.74384 0.6103 0.0
H196 H 0.64931 0.73485 0.02608 0.0
H197 H 0.65546 0.73827 0.11861 0.0
H198 H 0.69893 0.74633 0.07628 0.0
H199 H 0.69256 0.74361 0.98374 0.0
Pr200 Pr 0.041 0.01097 0.74413 0.0
Pr201 Pr 0.06019 0.02035 0.84558 0.0
C202 C 0.02881 0.02005 0.65094 0.0
C203 C 0.0309 0.01389 0.59517 0.0
C204 C 0.0195 0.01404 0.56086 0.0
C205 C 0.02154 0.01075 0.50702 0.0
C206 C 0.03505 1.00735 0.48639 0.0
C207 C 0.0464 1.00647 0.52134 0.0
C208 C 0.04434 1.00964 0.57512 0.0
C209 C 0.04741 0.96366 0.7901 0.0
C210 C 0.07593 1.00209 0.74077 0.0
C211 C 0.07033 0.02601 0.94308 0.0
C212 C 0.06624 0.01944 0.99707 0.0
C213 C 0.07639 0.01862 0.03646 0.0
C214 C 0.07254 0.01433 0.08855 0.0
C215 C 0.05843 0.01085 0.10231 0.0
C216 C 0.04832 0.01109 0.06239 0.0
C217 C 0.05219 0.0153 1.01029 0.0
C218 C 0.05712 0.06148 0.77605 0.0
C219 C 0.02612 0.01102 0.85836 0.0
O220 O 0.0382 0.03499 0.67196 0.0
O221 O 0.02474 1.0016 0.68209 0.0
O222 O 0.05127 0.98544 0.80533 0.0
O223 O 0.04001 0.96583 0.74768 0.0
O224 O 0.07669 1.00197 0.79231 0.0
O225 O 0.06434 1.00797 0.71491 0.0
O226 O 0.0741 1.00718 0.91233 0.0
O227 O 0.06257 0.04314 0.91968 0.0
O228 O 0.04741 0.04662 0.7905 0.0
O229 O 0.06874 0.05572 0.79933 0.0
O230 O 0.02382 0.01711 0.80883 0.0
O231 O 0.03872 1.00767 0.87733 0.0
H232 H 0.00904 0.01726 0.57556 0.0
H233 H 0.01252 0.01108 0.48155 0.0
H234 H 0.05697 1.00423 0.50708 0.0
H235 H 0.05331 1.00949 0.60089 0.0
H236 H 0.08727 0.02187 0.02709 0.0
H237 H 0.08058 0.01455 0.11827 0.0
H238 H 0.0374 1.00814 0.07143 0.0
H239 H 0.04417 0.01581 0.98051 0.0
Pr240 Pr 0.69788 0.01229 0.03196 0.0
Pr241 Pr 0.67867 0.02207 0.93088 0.0
C242 C 0.71004 0.02113 0.12531 0.0
C243 C 0.70775 0.01501 0.181 0.0
C244 C 0.71902 0.01514 0.2159 0.0
C245 C 0.71679 0.01178 0.26962 0.0
C246 C 0.7032 1.00833 0.28955 0.0
C247 C 0.69198 1.0075 0.25402 0.0
C248 C 0.69424 0.01074 0.20035 0.0
C249 C 0.69143 0.96513 0.98571 0.0
C250 C 0.66295 1.00334 0.03552 0.0
C251 C 0.6685 0.02806 0.83345 0.0
C252 C 0.67263 0.02165 0.77943 0.0
C253 C 0.66257 0.02135 0.73971 0.0
C254 C 0.6665 0.01721 0.68764 0.0
C255 C 0.68061 0.01337 0.67426 0.0
C256 C 0.69062 0.0131 0.71452 0.0
C257 C 0.68667 0.01717 0.76656 0.0
C258 C 0.68182 0.06299 1.00076 0.0
C259 C 0.71275 0.01228 0.91762 0.0
O260 O 0.70084 0.03636 0.10394 0.0
O261 O 0.71398 1.00254 0.09435 0.0
O262 O 0.68756 0.98694 0.97062 0.0
O263 O 0.69884 0.96719 0.02812 0.0
O264 O 0.66216 1.00354 0.98399 0.0
O265 O 0.67456 1.00909 0.06137 0.0
O266 O 0.66476 1.00912 0.864 0.0
O267 O 0.67624 0.04513 0.85707 0.0
O268 O 0.69151 0.04816 0.98607 0.0
O269 O 0.67017 0.05727 0.97761 0.0
O270 O 0.71512 0.01803 0.96727 0.0
O271 O 0.70011 1.00947 0.89871 0.0
H272 H 0.72953 0.01837 0.20174 0.0
H273 H 0.72571 0.01208 0.29556 0.0
H274 H 0.68136 1.00522 0.26773 0.0
H275 H 0.68537 1.01061 0.17411 0.0
H276 H 0.6517 0.02487 0.7488 0.0
H277 H 0.65853 0.01784 0.65767 0.0
H278 H 0.70154 1.00985 0.7058 0.0
H279 H 0.69462 0.01731 0.79658 0.0
Pr280 Pr 0.04078 0.74857 0.02381 0.0
Pr281 Pr 0.06059 0.73777 0.92319 0.0
C282 C 0.02826 0.74062 0.11716 0.0
C283 C 0.03132 0.74491 0.17301 0.0
C284 C 0.02066 0.74265 0.21029 0.0
C285 C 0.02369 0.74442 0.26379 0.0
C286 C 0.03748 0.74837 0.28101 0.0
C287 C 0.04807 0.7513 0.24325 0.0
C288 C 0.04502 0.7496 0.18983 0.0
C289 C 0.04691 0.79492 0.97357 0.0
C290 C 0.07552 0.75794 0.02936 0.0
C291 C 0.07251 0.73426 0.82787 0.0
C292 C 0.06867 0.73784 0.77247 0.0
C293 C 0.07917 0.74056 0.73477 0.0
C294 C 0.07576 0.74282 0.68174 0.0
C295 C 0.06174 0.74233 0.66521 0.0
C296 C 0.05121 0.74012 0.70344 0.0
C297 C 0.05465 0.73792 0.75653 0.0
C298 C 0.058 0.6982 0.99632 0.0
C299 C 0.02582 0.74105 0.90859 0.0
O300 O 0.03613 0.72374 0.09372 0.0
O301 O 0.02577 0.76073 0.0882 0.0
O302 O 0.05099 0.77293 0.96036 0.0
O303 O 0.03949 0.79345 0.01608 0.0
O304 O 0.07648 0.75733 0.97787 0.0
O305 O 0.06385 0.7523 0.05488 0.0
O306 O 0.07328 0.75483 0.85685 0.0
O307 O 0.06674 0.71488 0.85201 0.0
O308 O 0.04814 0.71243 0.98067 0.0
O309 O 0.06955 0.70355 0.9719 0.0
O310 O 0.02347 0.74266 0.95961 0.0
O311 O 0.03841 0.74019 0.88804 0.0
H312 H 0.01003 0.73891 0.19809 0.0
H313 H 0.01529 0.74185 0.29165 0.0
H314 H 0.05876 0.75477 0.25496 0.0
H315 H 0.0534 0.75145 0.16166 0.0
H316 H 0.09005 0.7407 0.7463 0.0
H317 H 0.08415 0.74499 0.6537 0.0
H318 H 0.04032 0.73944 0.69233 0.0
H319 H 0.04637 0.73589 0.78502 0.0
Pr320 Pr 0.31185 0.77709 0.67542 0.0
Pr321 Pr 0.29189 0.76555 0.77488 0.0
C322 C 0.32385 0.78186 0.58036 0.0
C323 C 0.32 0.7797 0.52464 0.0
C324 C 0.32963 0.787 0.4862 0.0
C325 C 0.32604 0.78609 0.43318 0.0
C326 C 0.31269 0.77791 0.41736 0.0
C327 C 0.30309 0.77034 0.45621 0.0
C328 C 0.30671 0.77126 0.50934 0.0
C329 C 0.30951 0.81591 0.75014 0.0
C330 C 0.27707 0.77424 0.65975 0.0
C331 C 0.27898 0.77238 0.86794 0.0
C332 C 0.28257 0.77198 0.92416 0.0
C333 C 0.27238 0.76533 0.9611 0.0
C334 C 0.2755 0.76538 0.01463 0.0
C335 C 0.28891 0.77217 0.03241 0.0
C336 C 0.29913 0.77865 0.99506 0.0
C337 C 0.29601 0.77849 0.94152 0.0
C338 C 0.29756 0.71957 0.72249 0.0
C339 C 0.32659 0.75671 0.78136 0.0
O340 O 0.32421 0.76068 0.60767 0.0
O341 O 0.31836 0.80103 0.60593 0.0
O342 O 0.29955 0.80211 0.73394 0.0
O343 O 0.32104 0.81048 0.72569 0.0
O344 O 0.27462 0.77147 0.71051 0.0
O345 O 0.28971 0.77587 0.63981 0.0
O346 O 0.28422 0.79103 0.84015 0.0
O347 O 0.27912 0.75051 0.84332 0.0
O348 O 0.30192 0.74153 0.7101 0.0
O349 O 0.28999 0.72096 0.76462 0.0
O350 O 0.32753 0.75682 0.72986 0.0
O351 O 0.31493 0.76272 0.80659 0.0
H352 H 0.33994 0.79356 0.49721 0.0
H353 H 0.33379 0.79165 0.40453 0.0
H354 H 0.29267 0.7642 0.44568 0.0
H355 H 0.2991 0.76561 0.53845 0.0
H356 H 0.26194 0.76028 0.94856 0.0
H357 H 0.26732 0.76058 0.04215 0.0
H358 H 0.30961 0.78361 1.00716 0.0
H359 H 0.30409 0.78355 0.9137 0.0
Pr360 Pr 0.92805 0.50201 0.67693 0.0
Pr361 Pr 0.94764 0.51088 0.77772 0.0
C362 C 0.91755 0.49698 0.57972 0.0
C363 C 0.92178 0.50292 0.52552 0.0
C364 C 0.91168 0.50411 0.48598 0.0
C365 C 0.91565 0.50777 0.43377 0.0
C366 C 0.92982 0.51026 0.42005 0.0
C367 C 0.93989 0.50966 0.46013 0.0
C368 C 0.9359 0.50603 0.5123 0.0
C369 C 0.93117 0.46065 0.74569 0.0
C370 C 0.96229 0.51027 0.66275 0.0
C371 C 0.9598 0.5015 0.87092 0.0
C372 C 0.95747 0.5075 0.92665 0.0
C373 C 0.96865 0.50664 0.96194 0.0
C374 C 0.96634 0.50988 0.01565 0.0
C375 C 0.95276 0.51394 0.03519 0.0
C376 C 0.94164 0.51547 0.9993 0.0
C377 C 0.94398 0.51234 0.94566 0.0
C378 C 0.94122 0.55836 0.73262 0.0
C379 C 0.91273 0.52004 0.78292 0.0
O380 O 0.91442 0.51626 0.61025 0.0
O381 O 0.92483 0.4792 0.60327 0.0
O382 O 0.9409 0.47547 0.73126 0.0
O383 O 0.91951 0.46659 0.72288 0.0
O384 O 0.96469 0.5047 0.71249 0.0
O385 O 0.94963 0.51345 0.64409 0.0
O386 O 0.95053 0.48648 0.84935 0.0
O387 O 0.96382 0.52013 0.84014 0.0
O388 O 0.93725 0.53668 0.71724 0.0
O389 O 0.94878 0.55597 0.77459 0.0
O390 O 0.91175 0.52025 0.73142 0.0
O391 O 0.92441 0.51407 0.80803 0.0
H392 H 0.90074 0.50162 0.49532 0.0
H393 H 0.90762 0.50784 0.40397 0.0
H394 H 0.95087 0.51187 0.45119 0.0
H395 H 0.94388 0.50517 0.54216 0.0
H396 H 0.97914 0.50295 0.94807 0.0
H397 H 0.97519 0.50903 0.04187 0.0
H398 H 0.93103 0.51823 0.01269 0.0
H399 H 0.93518 0.51302 0.91913 0.0
Pr400 Pr 0.31037 0.49361 0.59088 0.0
Pr401 Pr 0.29054 0.50412 0.49045 0.0
C402 C 0.32206 0.4904 0.68665 0.0
C403 C 0.3178 0.49393 0.74162 0.0
C404 C 0.32784 0.49279 0.78134 0.0
C405 C 0.32392 0.49539 0.83383 0.0
C406 C 0.30984 0.49913 0.84771 0.0
C407 C 0.29981 0.50042 0.80756 0.0
C408 C 0.30376 0.4979 0.75505 0.0
C409 C 0.30801 0.45393 0.51814 0.0
C410 C 0.27559 0.49564 0.60532 0.0
C411 C 0.27823 0.49588 0.39698 0.0
C412 C 0.28113 0.50044 0.34102 0.0
C413 C 0.2701 0.50139 0.30511 0.0
C414 C 0.27278 0.50363 0.25141 0.0
C415 C 0.28658 0.50489 0.23251 0.0
C416 C 0.29759 0.50449 0.26897 0.0
C417 C 0.2949 0.50232 0.3226 0.0
C418 C 0.29653 0.55065 0.54019 0.0
C419 C 0.32522 0.51419 0.48496 0.0
O420 O 0.32271 0.51098 0.6576 0.0
O421 O 0.31659 0.47084 0.66228 0.0
O422 O 0.29806 0.46804 0.53349 0.0
O423 O 0.31953 0.45951 0.54252 0.0
O424 O 0.2732 0.49757 0.55441 0.0
O425 O 0.28817 0.49509 0.62578 0.0
O426 O 0.28635 0.47934 0.42026 0.0
O427 O 0.27536 0.51574 0.42616 0.0
O428 O 0.30067 0.52872 0.55366 0.0
O429 O 0.28906 0.549 0.49784 0.0
O430 O 0.32616 0.5135 0.53643 0.0
O431 O 0.3136 0.50836 0.45937 0.0
H432 H 0.33872 0.48965 0.77179 0.0
H433 H 0.33191 0.49394 0.86362 0.0
H434 H 0.2889 0.50358 0.81665 0.0
H435 H 0.29584 0.49894 0.725 0.0
H436 H 0.2594 0.49998 0.31852 0.0
H437 H 0.26402 0.50431 0.22473 0.0
H438 H 0.30835 0.50507 0.25606 0.0
H439 H 0.30359 0.50153 0.34961 0.0
Pr440 Pr 0.92766 0.78304 0.59858 0.0
Pr441 Pr 0.94748 0.77311 0.49769 0.0
C442 C 0.91594 0.78575 0.69441 0.0
C443 C 0.92006 0.78167 0.74937 0.0
C444 C 0.90989 0.78208 0.78874 0.0
C445 C 0.91367 0.77911 0.84128 0.0
C446 C 0.92774 0.77572 0.85557 0.0
C447 C 0.93791 0.77507 0.81575 0.0
C448 C 0.93409 0.77795 0.76319 0.0
C449 C 0.93019 0.82324 0.52702 0.0
C450 C 0.96245 0.78024 0.61284 0.0
C451 C 0.95973 0.78174 0.40422 0.0
C452 C 0.95699 0.77684 0.34827 0.0
C453 C 0.96814 0.77559 0.31282 0.0
C454 C 0.96562 0.77311 0.25907 0.0
C455 C 0.95188 0.7719 0.23962 0.0
C456 C 0.94075 0.77252 0.27563 0.0
C457 C 0.94328 0.77492 0.32932 0.0
C458 C 0.94145 0.72636 0.54644 0.0
C459 C 0.91277 0.76316 0.49206 0.0
O460 O 0.91513 0.76544 0.6647 0.0
O461 O 0.92162 0.80535 0.67075 0.0
O462 O 0.94009 0.80891 0.5419 0.0
O463 O 0.91865 0.81762 0.55127 0.0
O464 O 0.96481 0.7791 0.56178 0.0
O465 O 0.94986 0.78059 0.63339 0.0
O466 O 0.95131 0.79791 0.42715 0.0
O467 O 0.96293 0.76217 0.43378 0.0
O468 O 0.93733 0.74821 0.56037 0.0
O469 O 0.94887 0.72819 0.50398 0.0
O470 O 0.91178 0.7637 0.54354 0.0
O471 O 0.92442 0.76898 0.46662 0.0
H472 H 0.89901 0.785 0.77889 0.0
H473 H 0.90558 0.78005 0.87081 0.0
H474 H 0.94881 0.77218 0.82515 0.0
H475 H 0.9421 0.77743 0.7334 0.0
H476 H 0.9788 0.77699 0.32662 0.0
H477 H 0.97447 0.77225 0.23276 0.0
H478 H 0.93004 0.77196 0.26229 0.0
H479 H 0.9345 0.77591 0.35595 0.0
Pr480 Pr 0.69695 0.25262 0.24475 0.0
Pr481 Pr 0.67742 0.24289 0.34548 0.0
C482 C 0.7091 0.2438 0.15127 0.0
C483 C 0.70661 0.24971 0.09556 0.0
C484 C 0.71782 0.25015 0.06032 0.0
C485 C 0.71545 0.25346 1.00666 0.0
C486 C 0.70179 0.25628 0.9871 0.0
C487 C 0.69062 0.25651 0.02295 0.0
C488 C 0.69301 0.25332 0.07655 0.0
C489 C 0.69036 0.29971 0.29093 0.0
C490 C 0.66202 0.26178 0.24013 0.0
C491 C 0.66707 0.23717 0.44281 0.0
C492 C 0.67116 0.24355 0.49692 0.0
C493 C 0.66108 0.24376 0.53663 0.0
C494 C 0.66497 0.24784 0.58876 0.0
C495 C 0.67906 0.25173 0.60224 0.0
C496 C 0.6891 0.25212 0.56199 0.0
C497 C 0.68518 0.24808 0.5099 0.0
C498 C 0.68066 0.20202 0.2756 0.0
C499 C 0.71157 0.25297 0.35959 0.0
O500 O 0.70011 0.22831 0.17317 0.0
O501 O 0.71291 0.26259 0.1819 0.0
O502 O 0.68646 0.27789 0.30582 0.0
O503 O 0.69787 0.2977 0.24871 0.0
O504 O 0.66102 0.26134 0.29164 0.0
O505 O 0.67372 0.25616 0.21472 0.0
O506 O 0.66348 0.25614 0.41212 0.0
O507 O 0.67475 0.21994 0.41937 0.0
O508 O 0.69036 0.2168 0.29047 0.0
O509 O 0.669 0.2077 0.29872 0.0
O510 O 0.71413 0.24751 0.30988 0.0
O511 O 0.69885 0.25519 0.37822 0.0
H512 H 0.7284 0.24746 0.07418 0.0
H513 H 0.72434 0.25363 0.98049 0.0
H514 H 0.67995 0.25831 1.00953 0.0
H515 H 0.68419 0.25299 0.10302 0.0
H516 H 0.65022 0.24019 0.52748 0.0
H517 H 0.65698 0.24712 0.61868 0.0
H518 H 0.7 0.25542 0.57074 0.0
H519 H 0.69316 0.248 0.47992 0.0
Pr520 Pr 0.04246 0.51192 0.24528 0.0
Pr521 Pr 0.06222 0.5206 0.34617 0.0
C522 C 0.03015 0.52126 0.15233 0.0
C523 C 0.03249 0.51558 0.09643 0.0
C524 C 0.02124 0.5159 0.06142 0.0
C525 C 0.02351 0.51293 1.00762 0.0
C526 C 0.03712 0.50969 0.98768 0.0
C527 C 0.04832 0.50871 0.02329 0.0
C528 C 0.04602 0.51156 0.07703 0.0
C529 C 0.04889 0.46444 0.29062 0.0
C530 C 0.07742 0.50341 0.23928 0.0
C531 C 0.07285 0.52536 0.44322 0.0
C532 C 0.06875 0.51943 0.49757 0.0
C533 C 0.07896 0.5181 0.53671 0.0
C534 C 0.07513 0.51442 0.58906 0.0
C535 C 0.06099 0.51206 0.60338 0.0
C536 C 0.05081 0.51285 0.56372 0.0
C537 C 0.05465 0.51648 0.51138 0.0
C538 C 0.0591 0.56198 0.27733 0.0
C539 C 0.02795 0.51264 0.36058 0.0
O540 O 0.03927 0.53651 0.17409 0.0
O541 O 0.02634 0.50238 0.18282 0.0
O542 O 0.0529 0.48615 0.30563 0.0
O543 O 0.04133 0.46677 0.24866 0.0
O544 O 0.07847 0.50275 0.29077 0.0
O545 O 0.06566 0.50931 0.21462 0.0
O546 O 0.07587 0.50607 0.41252 0.0
O547 O 0.06559 0.54324 0.41995 0.0
O548 O 0.04937 0.54719 0.29193 0.0
O549 O 0.07074 0.5561 0.30039 0.0
O550 O 0.02551 0.5182 0.31084 0.0
O551 O 0.04061 0.5094 0.37915 0.0
H552 H 0.01072 0.51894 0.07559 0.0
H553 H 0.0146 0.51335 0.98164 0.0
H554 H 0.05895 0.50658 1.0096 0.0
H555 H 0.05487 0.51131 0.10333 0.0
H556 H 0.08988 0.52046 0.52693 0.0
H557 H 0.08325 0.51421 0.61851 0.0
H558 H 0.03985 0.51075 0.57312 0.0
H559 H 0.04659 0.51746 0.48185 0.0
Pr560 Pr 0.69698 0.51395 0.52669 0.0
Pr561 Pr 0.67729 0.52261 0.4255 0.0
C562 C 0.70921 0.52338 0.6197 0.0
C563 C 0.70701 0.51746 0.67558 0.0
C564 C 0.71835 0.5175 0.71018 0.0
C565 C 0.71622 0.51428 0.76401 0.0
C566 C 0.70266 0.51105 0.78439 0.0
C567 C 0.69136 0.51033 0.74919 0.0
C568 C 0.69352 0.51343 0.69542 0.0
C569 C 0.69065 0.46655 0.48113 0.0
C570 C 0.66208 0.50434 0.53183 0.0
C571 C 0.66691 0.5275 0.32812 0.0
C572 C 0.67106 0.5212 0.27403 0.0
C573 C 0.66093 0.52018 0.23461 0.0
C574 C 0.66482 0.51621 0.18244 0.0
C575 C 0.67895 0.51324 0.1686 0.0
C576 C 0.68906 0.51368 0.20854 0.0
C577 C 0.68515 0.51759 0.26072 0.0
C578 C 0.68022 0.5639 0.49448 0.0
C579 C 0.71153 0.5141 0.41172 0.0
O580 O 0.69992 0.53838 0.59819 0.0
O581 O 0.71321 0.50474 0.58898 0.0
O582 O 0.68666 0.48828 0.46619 0.0
O583 O 0.69819 0.4688 0.52319 0.0
O584 O 0.66106 0.50424 0.4803 0.0
O585 O 0.67377 0.51037 0.5569 0.0
O586 O 0.66358 0.50845 0.35905 0.0
O587 O 0.67435 0.54516 0.3513 0.0
O588 O 0.69001 0.54923 0.48001 0.0
O589 O 0.66862 0.55794 0.47124 0.0
O590 O 0.71398 0.52002 0.46124 0.0
O591 O 0.69887 0.51084 0.39315 0.0
H592 H 0.72885 0.52054 0.69568 0.0
H593 H 0.7252 0.51451 0.78967 0.0
H594 H 0.68077 0.50822 0.76323 0.0
H595 H 0.68459 0.51338 0.66946 0.0
H596 H 0.65002 0.52304 0.24402 0.0
H597 H 0.65677 0.51627 0.15274 0.0
H598 H 0.70001 0.51111 0.19948 0.0
H599 H 0.69317 0.51827 0.29049 0.0
Pr600 Pr 0.04045 0.24955 0.52491 0.0
Pr601 Pr 0.06027 0.23851 0.42445 0.0
C602 C 0.02789 0.24178 0.61823 0.0
C603 C 0.03127 0.24517 0.67406 0.0
C604 C 0.02064 0.24442 0.7117 0.0
C605 C 0.02387 0.24568 0.76509 0.0
C606 C 0.03783 0.24761 0.78184 0.0
C607 C 0.04842 0.249 0.74372 0.0
C608 C 0.04517 0.2478 0.69043 0.0
C609 C 0.04655 0.29574 0.47395 0.0
C610 C 0.07511 0.25932 0.5303 0.0
C611 C 0.07221 0.23472 0.32919 0.0
C612 C 0.06832 0.2383 0.27386 0.0
C613 C 0.07875 0.2392 0.23554 0.0
C614 C 0.07523 0.24146 0.18261 0.0
C615 C 0.06116 0.24279 0.16683 0.0
C616 C 0.05073 0.24235 0.20568 0.0
C617 C 0.05428 0.24016 0.25865 0.0
C618 C 0.05785 0.19922 0.49822 0.0
C619 C 0.02548 0.242 0.40984 0.0
O620 O 0.03512 0.22435 0.59362 0.0
O621 O 0.02596 0.26244 0.59034 0.0
O622 O 0.05061 0.2737 0.46108 0.0
O623 O 0.03908 0.29441 0.51639 0.0
O624 O 0.07604 0.25857 0.47881 0.0
O625 O 0.0635 0.2535 0.55602 0.0
O626 O 0.07303 0.25532 0.35806 0.0
O627 O 0.06636 0.21544 0.35342 0.0
O628 O 0.04792 0.21327 0.48242 0.0
O629 O 0.06937 0.20462 0.47367 0.0
O630 O 0.02311 0.24386 0.46081 0.0
O631 O 0.03808 0.24084 0.3894 0.0
H632 H 0.00985 0.2423 0.69985 0.0
H633 H 0.01545 0.24433 0.79325 0.0
H634 H 0.05926 0.25091 0.75507 0.0
H635 H 0.05354 0.24847 0.66198 0.0
H636 H 0.08965 0.23794 0.24651 0.0
H637 H 0.08357 0.24223 0.15406 0.0
H638 H 0.03979 0.24308 0.19517 0.0
H639 H 0.04607 0.23956 0.28764 0.0
Pr640 Pr 0.81079 0.27947 0.67631 0.0
Pr641 Pr 0.79135 0.26874 0.77656 0.0
C642 C 0.8213 0.28568 0.57942 0.0
C643 C 0.81756 0.27938 0.52488 0.0
C644 C 0.82814 0.27555 0.48785 0.0
C645 C 0.82482 0.27161 0.43515 0.0
C646 C 0.81083 0.27157 0.41821 0.0
C647 C 0.80023 0.27462 0.45591 0.0
C648 C 0.80356 0.27844 0.50867 0.0
C649 C 0.80695 0.32019 0.74608 0.0
C650 C 0.77683 0.26808 0.66129 0.0
C651 C 0.77893 0.27697 0.86984 0.0
C652 C 0.78172 0.27134 0.92538 0.0
C653 C 0.77139 0.27582 0.96311 0.0
C654 C 0.77443 0.27323 0.01646 0.0
C655 C 0.78792 0.26625 0.03303 0.0
C656 C 0.79811 0.26096 0.99482 0.0
C657 C 0.79503 0.26344 0.94155 0.0
C658 C 0.79848 0.22198 0.73019 0.0
C659 C 0.82638 0.26117 0.78163 0.0
O660 O 0.82504 0.26679 0.61005 0.0
O661 O 0.81341 0.30264 0.60275 0.0
O662 O 0.79746 0.30496 0.73125 0.0
O663 O 0.81872 0.31498 0.72322 0.0
O664 O 0.77417 0.27315 0.71112 0.0
O665 O 0.78958 0.2666 0.64265 0.0
O666 O 0.78758 0.29304 0.84782 0.0
O667 O 0.77563 0.25777 0.83946 0.0
O668 O 0.80217 0.24395 0.71541 0.0
O669 O 0.79094 0.22367 0.77237 0.0
O670 O 0.82734 0.26152 0.73014 0.0
O671 O 0.81461 0.2664 0.80698 0.0
H672 H 0.839 0.27606 0.49955 0.0
H673 H 0.83327 0.26877 0.40763 0.0
H674 H 0.78935 0.27492 0.44453 0.0
H675 H 0.79519 0.28128 0.53656 0.0
H676 H 0.76108 0.28206 0.95139 0.0
H677 H 0.76637 0.27764 0.04473 0.0
H678 H 0.80853 0.25515 1.00608 0.0
H679 H 0.80314 0.25984 0.913 0.0
Pr680 Pr 0.43027 0.9939 0.67747 0.0
Pr681 Pr 0.45115 1.00715 0.78323 0.0
C682 C 0.41749 0.99612 0.58371 0.0
C683 C 0.4216 0.99815 0.52824 0.0
C684 C 0.41159 0.99423 0.48916 0.0
C685 C 0.41545 0.99422 0.43636 0.0
C686 C 0.42945 0.99806 0.42146 0.0
C687 C 0.43944 1.00243 0.46092 0.0
C688 C 0.43554 1.00242 0.51381 0.0
C689 C 0.43405 0.95226 0.74693 0.0
C690 C 0.46528 0.99444 0.66623 0.0
C691 C 0.46496 1.00297 0.87473 0.0
C692 C 0.4618 0.99855 0.93047 0.0
C693 C 0.47248 1.00061 0.96764 0.0
C694 C 0.46946 0.99916 0.02115 0.0
C695 C 0.45565 0.99562 0.03863 0.0
C696 C 0.44501 0.99295 1.00099 0.0
C697 C 0.44805 0.9945 0.94745 0.0
C698 C 0.4452 0.0506 0.7228 0.0
C699 C 0.41596 0.01124 0.78935 0.0
O700 O 0.41945 0.01628 0.61324 0.0
O701 O 0.42081 0.97467 0.6069 0.0
O702 O 0.43953 0.97402 0.74767 0.0
O703 O 0.42605 0.95094 0.70585 0.0
O704 O 0.46769 0.99887 0.71672 0.0
O705 O 0.45276 0.99244 0.64517 0.0
O706 O 0.46338 0.98372 0.8424 0.0
O707 O 0.46047 0.02467 0.8557 0.0
O708 O 0.44157 0.02784 0.7141 0.0
O709 O 0.45253 0.05138 0.76565 0.0
O710 O 0.41448 1.00973 0.73788 0.0
O711 O 0.42802 1.00806 0.81433 0.0
H712 H 0.40078 0.99083 0.49952 0.0
H713 H 0.40744 0.99122 0.40718 0.0
H714 H 0.45032 1.00518 0.45109 0.0
H715 H 0.44346 1.00529 0.54345 0.0
H716 H 0.48316 1.00392 0.95531 0.0
H717 H 0.47794 1.00094 0.04885 0.0
H718 H 0.43424 0.99052 0.01288 0.0
H719 H 0.43962 0.99322 0.91938 0.0
Pr720 Pr 0.81157 0.9972 0.59957 0.0
Pr721 Pr 0.79197 1.00666 0.49868 0.0
C722 C 0.82198 0.99161 0.69676 0.0
C723 C 0.81783 0.99776 0.75091 0.0
C724 C 0.8279 0.99801 0.79062 0.0
C725 C 0.82397 1.00193 0.84277 0.0
C726 C 0.80986 1.00562 0.85625 0.0
C727 C 0.79983 1.00594 0.81601 0.0
C728 C 0.80379 1.00206 0.7639 0.0
C729 C 0.80883 0.95649 0.52914 0.0
C730 C 0.7773 1.00567 0.61341 0.0
C731 C 0.77988 0.99774 0.40521 0.0
C732 C 0.78228 1.00375 0.3495 0.0
C733 C 0.77106 1.00377 0.31437 0.0
C734 C 0.77338 1.00705 0.26067 0.0
C735 C 0.78701 1.01026 0.24098 0.0
C736 C 0.79819 0.01092 0.27673 0.0
C737 C 0.79584 1.00776 0.33037 0.0
C738 C 0.79817 0.05373 0.54578 0.0
C739 C 0.82676 0.01709 0.4946 0.0
O740 O 0.82538 0.01076 0.66622 0.0
O741 O 0.81445 0.97419 0.67324 0.0
O742 O 0.79896 0.97093 0.54389 0.0
O743 O 0.8204 0.96242 0.55259 0.0
O744 O 0.77487 1.0003 0.56362 0.0
O745 O 0.78996 1.00853 0.63225 0.0
O746 O 0.78901 0.98246 0.42687 0.0
O747 O 0.77595 0.0164 0.43598 0.0
O748 O 0.80219 0.03191 0.56019 0.0
O749 O 0.79066 0.05174 0.50359 0.0
O750 O 0.82769 0.01665 0.54611 0.0
O751 O 0.81519 0.01093 0.46892 0.0
H752 H 0.83878 0.99461 0.78145 0.0
H753 H 0.83195 1.00128 0.8727 0.0
H754 H 0.78891 1.00907 0.82479 0.0
H755 H 0.79583 1.00195 0.7339 0.0
H756 H 0.76051 1.00074 0.32834 0.0
H757 H 0.76449 1.00688 0.23457 0.0
H758 H 0.80883 0.01301 0.26322 0.0
H759 H 0.80468 1.00775 0.35677 0.0
Pr760 Pr 0.42981 0.27174 0.58753 0.0
Pr761 Pr 0.45022 0.26424 0.48665 0.0
C762 C 0.41786 0.27235 0.68312 0.0
C763 C 0.42216 0.26972 0.73831 0.0
C764 C 0.41216 0.26393 0.77648 0.0
C765 C 0.41594 0.26236 0.82928 0.0
C766 C 0.42983 0.26661 0.8451 0.0
C767 C 0.43988 0.27197 0.80639 0.0
C768 C 0.43608 0.2735 0.75356 0.0
C769 C 0.43192 0.31285 0.51823 0.0
C770 C 0.46461 0.27254 0.60263 0.0
C771 C 0.46245 0.27446 0.39376 0.0
C772 C 0.45975 0.26948 0.33789 0.0
C773 C 0.46999 0.27508 0.30042 0.0
C774 C 0.46701 0.27292 0.24693 0.0
C775 C 0.45367 0.26525 0.22993 0.0
C776 C 0.44358 0.25891 0.26787 0.0
C777 C 0.4466 0.26098 0.32126 0.0
C778 C 0.44449 0.21661 0.53247 0.0
C779 C 0.41561 0.253 0.47911 0.0
O780 O 0.4185 0.25179 0.65408 0.0
O781 O 0.4221 0.29295 0.65878 0.0
O782 O 0.442 0.29884 0.53275 0.0
O783 O 0.42039 0.30642 0.54173 0.0
O784 O 0.46716 0.27139 0.55169 0.0
O785 O 0.45198 0.27174 0.62285 0.0
O786 O 0.45355 0.28972 0.41673 0.0
O787 O 0.46607 0.25501 0.42304 0.0
O788 O 0.44013 0.23817 0.54716 0.0
O789 O 0.45217 0.21924 0.49085 0.0
O790 O 0.41444 0.25245 0.53055 0.0
O791 O 0.42726 0.25978 0.4547 0.0
H792 H 0.40138 0.26081 0.76551 0.0
H793 H 0.40795 0.25772 0.85769 0.0
H794 H 0.45064 0.2756 0.81695 0.0
H795 H 0.44398 0.27799 0.72473 0.0
H796 H 0.48019 0.28178 0.31248 0.0
H797 H 0.475 0.27814 0.21893 0.0
H798 H 0.43329 0.25254 0.25632 0.0
H799 H 0.43856 0.2565 0.34959 0.0
Pr800 Pr 0.19809 0.75755 0.2447 0.0
Pr801 Pr 0.17717 0.74396 0.35063 0.0
C802 C 0.21201 0.75331 0.15331 0.0
C803 C 0.2092 0.75086 0.09643 0.0
C804 C 0.21384 0.77009 0.06224 0.0
C805 C 0.21084 0.76894 1.00872 0.0
C806 C 0.20305 0.74855 0.98811 0.0
C807 C 0.19867 0.729 0.02215 0.0
C808 C 0.2018 0.73005 0.07561 0.0
C809 C 0.19187 0.80086 0.30503 0.0
C810 C 0.16285 0.76181 0.23884 0.0
C811 C 0.16435 0.74506 0.44425 0.0
C812 C 0.16827 0.74772 0.49981 0.0
C813 C 0.16093 0.73376 0.53762 0.0
C814 C 0.16492 0.7346 0.59018 0.0
C815 C 0.17634 0.74957 0.60632 0.0
C816 C 0.18365 0.7637 0.56814 0.0
C817 C 0.17969 0.76268 0.51539 0.0
C818 C 0.18122 0.70273 0.28057 0.0
C819 C 0.21218 0.74552 0.36231 0.0
O820 O 0.20941 0.73369 0.18384 0.0
O821 O 0.20872 0.77523 0.17458 0.0
O822 O 0.18839 0.77802 0.31389 0.0
O823 O 0.19914 0.8018 0.26202 0.0
O824 O 0.16139 0.75991 0.29029 0.0
O825 O 0.17493 0.75894 0.21364 0.0
O826 O 0.16552 0.76529 0.41417 0.0
O827 O 0.16838 0.7239 0.42158 0.0
O828 O 0.18683 0.72435 0.28136 0.0
O829 O 0.17295 0.70112 0.32084 0.0
O830 O 0.21458 0.74922 0.31149 0.0
O831 O 0.19963 0.74385 0.38345 0.0
H832 H 0.21967 0.78626 0.0771 0.0
H833 H 0.2143 0.78438 0.98371 0.0
H834 H 0.19285 0.7128 1.0074 0.0
H835 H 0.19835 0.71463 0.10046 0.0
H836 H 0.15221 0.7218 0.52631 0.0
H837 H 0.1592 0.72301 0.61794 0.0
H838 H 0.19239 0.77565 0.57893 0.0
H839 H 0.18563 0.77338 0.48677 0.0
Pr840 Pr 0.54075 0.01786 0.24639 0.0
Pr841 Pr 0.56083 0.02786 0.34674 0.0
C842 C 0.52828 0.02637 0.15323 0.0
C843 C 0.53124 0.02224 0.09723 0.0
C844 C 0.52044 0.02393 0.06042 0.0
C845 C 0.52335 0.02241 1.00677 0.0
C846 C 0.53716 0.01929 0.98893 0.0
C847 C 0.54789 0.01686 0.02622 0.0
C848 C 0.54496 0.01831 0.07977 0.0
C849 C 0.5464 0.9713 0.29678 0.0
C850 C 0.57529 1.00671 0.24055 0.0
C851 C 0.57278 0.03086 0.44206 0.0
C852 C 0.56875 0.02809 0.49748 0.0
C853 C 0.57913 0.02598 0.53575 0.0
C854 C 0.57555 0.02437 0.58873 0.0
C855 C 0.56147 0.02489 0.60464 0.0
C856 C 0.55106 0.02657 0.56589 0.0
C857 C 0.55467 0.02815 0.51284 0.0
C858 C 0.55862 0.06751 0.27373 0.0
C859 C 0.52604 0.02699 0.36147 0.0
O860 O 0.5363 0.04297 0.17679 0.0
O861 O 0.52563 1.00624 0.18195 0.0
O862 O 0.5507 0.99317 0.30979 0.0
O863 O 0.5389 0.97302 0.25451 0.0
O864 O 0.57628 1.00729 0.29201 0.0
O865 O 0.56374 0.01309 0.21506 0.0
O866 O 0.57291 1.01002 0.41374 0.0
O867 O 0.56764 0.05062 0.41726 0.0
O868 O 0.54862 0.05364 0.28955 0.0
O869 O 0.57016 0.06169 0.29776 0.0
O870 O 0.52359 0.02497 0.31061 0.0
O871 O 0.53864 0.02723 0.38188 0.0
H872 H 0.50979 0.02707 0.0731 0.0
H873 H 0.51484 0.02455 0.97928 0.0
H874 H 0.5586 0.014 0.01404 0.0
H875 H 0.55345 0.0169 0.10755 0.0
H876 H 0.59004 0.02578 0.52468 0.0
H877 H 0.58385 0.02263 0.61723 0.0
H878 H 0.54013 0.02726 0.57654 0.0
H879 H 0.54648 0.02976 0.48391 0.0
Pr880 Pr 0.19884 0.01563 0.53326 0.0
Pr881 Pr 0.17951 0.02438 0.43189 0.0
C882 C 0.21092 0.02519 0.62641 0.0
C883 C 0.20871 0.0191 0.68219 0.0
C884 C 0.22007 0.01876 0.71668 0.0
C885 C 0.21795 0.01532 0.77044 0.0
C886 C 0.20439 0.01225 0.79087 0.0
C887 C 0.19307 0.01187 0.75576 0.0
C888 C 0.19521 0.01519 0.70205 0.0
C889 C 0.1921 0.96804 0.48957 0.0
C890 C 0.16395 1.00612 0.53717 0.0
C891 C 0.16918 0.02949 0.33448 0.0
C892 C 0.17322 0.02285 0.28047 0.0
C893 C 0.16304 0.02205 0.24118 0.0
C894 C 0.16685 0.01781 0.18902 0.0
C895 C 0.18095 0.01436 0.1751 0.0
C896 C 0.19109 0.01455 0.21494 0.0
C897 C 0.18725 0.01872 0.26709 0.0
C898 C 0.18246 0.06582 0.5005 0.0
C899 C 0.21361 0.01453 0.41854 0.0
O900 O 0.20157 0.04007 0.60487 0.0
O901 O 0.21508 1.00669 0.59562 0.0
O902 O 0.18836 0.98975 0.47347 0.0
O903 O 0.19967 0.97047 0.53151 0.0
O904 O 0.16315 1.00594 0.48565 0.0
O905 O 0.17552 0.01233 0.56285 0.0
O906 O 0.16559 0.01069 0.36563 0.0
O907 O 0.17688 0.04684 0.35742 0.0
O908 O 0.19225 0.05107 0.4863 0.0
O909 O 0.17086 0.05974 0.47744 0.0
O910 O 0.21604 0.02061 0.46801 0.0
O911 O 0.20094 0.01171 0.39983 0.0
H912 H 0.23058 0.02167 0.70215 0.0
H913 H 0.22695 0.01526 0.79603 0.0
H914 H 0.18247 1.00988 0.76986 0.0
H915 H 0.18627 0.01538 0.67616 0.0
H916 H 0.15217 0.0253 0.25066 0.0
H917 H 0.15879 0.01807 0.15939 0.0
H918 H 0.20201 0.01161 0.2058 0.0
H919 H 0.1953 0.01923 0.29678 0.0
Pr920 Pr 0.54227 0.75495 0.52749 0.0
Pr921 Pr 0.56232 0.74593 0.4265 0.0
C922 C 0.53008 0.74594 0.62093 0.0
C923 C 0.5328 0.75098 0.67683 0.0
C924 C 0.52169 0.75158 0.71254 0.0
C925 C 0.52425 0.75425 0.76623 0.0
C926 C 0.538 0.75629 0.78533 0.0
C927 C 0.54907 0.75625 0.74906 0.0
C928 C 0.5465 0.75367 0.69546 0.0
C929 C 0.54768 0.80192 0.47823 0.0
C930 C 0.57691 0.76585 0.53341 0.0
C931 C 0.57405 0.74407 0.33059 0.0
C932 C 0.56968 0.7474 0.2757 0.0
C933 C 0.57964 0.74612 0.23567 0.0
C934 C 0.57562 0.74852 0.18326 0.0
C935 C 0.56151 0.75219 0.16979 0.0
C936 C 0.55155 0.75362 0.21024 0.0
C937 C 0.55561 0.75132 0.26267 0.0
C938 C 0.56017 0.70564 0.49809 0.0
C939 C 0.5275 0.74564 0.41261 0.0
O940 O 0.53868 0.73007 0.59806 0.0
O941 O 0.52668 0.76538 0.59132 0.0
O942 O 0.55208 0.7802 0.46468 0.0
O943 O 0.54022 0.79984 0.52057 0.0
O944 O 0.57793 0.76567 0.48193 0.0
O945 O 0.56529 0.75958 0.55861 0.0
O946 O 0.57416 0.76459 0.35986 0.0
O947 O 0.56911 0.72396 0.35477 0.0
O948 O 0.55017 0.71964 0.48292 0.0
O949 O 0.57169 0.71161 0.47396 0.0
O950 O 0.52512 0.74711 0.46361 0.0
O951 O 0.54008 0.74627 0.39195 0.0
H952 H 0.51104 0.74956 0.69898 0.0
H953 H 0.51544 0.75462 0.79275 0.0
H954 H 0.5598 0.75742 0.76212 0.0
H955 H 0.55524 0.75317 0.66863 0.0
H956 H 0.59054 0.74301 0.24491 0.0
H957 H 0.58354 0.74698 0.15323 0.0
H958 H 0.54063 0.75672 0.20144 0.0
H959 H 0.54776 0.7525 0.29298 0.0
Pr960 Pr 0.81078 0.78024 0.17672 0.0
Pr961 Pr 0.79081 0.76994 0.27726 0.0
C962 C 0.82269 0.78318 0.08128 0.0
C963 C 0.81874 0.7799 0.0259 0.0
C964 C 0.82916 0.77635 0.98815 0.0
C965 C 0.82568 0.77431 0.93515 0.0
C966 C 0.81167 0.77585 0.91868 0.0
C967 C 0.80122 0.77892 0.95695 0.0
C968 C 0.80473 0.78091 1.01001 0.0
C969 C 0.80825 0.82007 0.24903 0.0
C970 C 0.77599 0.77829 0.16205 0.0
C971 C 0.77829 0.77822 0.37047 0.0
C972 C 0.78124 0.77384 0.42639 0.0
C973 C 0.77062 0.77694 0.46359 0.0
C974 C 0.7736 0.77515 0.51713 0.0
C975 C 0.78731 0.77036 0.53449 0.0
C976 C 0.79784 0.76658 0.49681 0.0
C977 C 0.79483 0.76829 0.44335 0.0
C978 C 0.79665 0.72345 0.22716 0.0
C979 C 0.82553 0.76022 0.28344 0.0
O980 O 0.82313 0.76254 0.1102 0.0
O981 O 0.81729 0.80285 0.10555 0.0
O982 O 0.79835 0.80586 0.23372 0.0
O983 O 0.81981 0.81454 0.22482 0.0
O984 O 0.77359 0.77655 0.21302 0.0
O985 O 0.78859 0.77873 0.14154 0.0
O986 O 0.78634 0.79485 0.34714 0.0
O987 O 0.77564 0.75819 0.3415 0.0
O988 O 0.8009 0.74535 0.21398 0.0
O989 O 0.78921 0.72509 0.26961 0.0
O990 O 0.82655 0.76069 0.23196 0.0
O991 O 0.81384 0.766 0.30868 0.0
H992 H 0.84003 0.77537 0.99962 0.0
H993 H 0.834 0.77146 0.90708 0.0
H994 H 0.79035 0.78043 0.94589 0.0
H995 H 0.79651 0.78361 0.03853 0.0
H996 H 0.76008 0.78136 0.45128 0.0
H997 H 0.76526 0.77839 0.54491 0.0
H998 H 0.80845 0.76245 0.50863 0.0
H999 H 0.80317 0.7658 0.41524 0.0
Pr1000 Pr 0.42864 0.49499 0.17856 0.0
Pr1001 Pr 0.44866 0.50286 0.27998 0.0
C1002 C 0.41696 0.494 0.08258 0.0
C1003 C 0.42141 0.49752 0.02781 0.0
C1004 C 0.41147 0.49688 0.98769 0.0
C1005 C 0.41558 0.4993 0.93536 0.0
C1006 C 0.42975 0.50232 0.92207 0.0
C1007 C 0.43968 0.50315 0.96261 0.0
C1008 C 0.43554 0.50085 0.01496 0.0
C1009 C 0.43073 0.45392 0.24805 0.0
C1010 C 0.46346 0.49533 0.1645 0.0
C1011 C 0.4607 0.49288 0.37318 0.0
C1012 C 0.45819 0.49833 0.42907 0.0
C1013 C 0.46935 0.49811 0.46451 0.0
C1014 C 0.46694 0.50118 0.51822 0.0
C1015 C 0.45328 0.50446 0.53759 0.0
C1016 C 0.44217 0.50525 0.50157 0.0
C1017 C 0.4446 0.50227 0.44795 0.0
C1018 C 0.44294 0.55041 0.23396 0.0
C1019 C 0.41403 0.51411 0.28603 0.0
O1020 O 0.41698 0.51435 0.11236 0.0
O1021 O 0.42173 0.47364 0.10629 0.0
O1022 O 0.44079 0.46804 0.2338 0.0
O1023 O 0.41924 0.46023 0.22422 0.0
O1024 O 0.46585 0.49612 0.21556 0.0
O1025 O 0.45088 0.49603 0.14401 0.0
O1026 O 0.45163 0.47778 0.35065 0.0
O1027 O 0.46462 0.51191 0.34329 0.0
O1028 O 0.43869 0.52882 0.219 0.0
O1029 O 0.45046 0.54785 0.276 0.0
O1030 O 0.41305 0.51434 0.23455 0.0
O1031 O 0.4256 0.50748 0.31114 0.0
H1032 H 0.40052 0.49424 0.99681 0.0
H1033 H 0.40766 0.49823 0.90524 0.0
H1034 H 0.45065 0.50576 0.95394 0.0
H1035 H 0.44337 0.50153 0.04532 0.0
H1036 H 0.47992 0.49513 0.45075 0.0
H1037 H 0.47578 0.50089 0.54454 0.0
H1038 H 0.4315 0.50739 0.51484 0.0
H1039 H 0.43582 0.50245 0.42133 0.0
Pr1040 Pr 0.8088 0.50033 0.09045 0.0
Pr1041 Pr 0.78934 0.50963 0.98945 0.0
C1042 C 0.81907 0.49486 0.18787 0.0
C1043 C 0.8149 0.5012 0.24191 0.0
C1044 C 0.82494 0.50135 0.28173 0.0
C1045 C 0.82098 0.50533 0.33383 0.0
C1046 C 0.80688 0.50918 0.34716 0.0
C1047 C 0.79688 0.50962 0.30682 0.0
C1048 C 0.80086 0.50569 0.25474 0.0
C1049 C 0.80596 0.45928 0.02087 0.0
C1050 C 0.77462 0.50944 0.10404 0.0
C1051 C 0.77714 0.50063 0.89622 0.0
C1052 C 0.77949 0.50661 0.84048 0.0
C1053 C 0.76823 0.50665 0.80548 0.0
C1054 C 0.77051 0.51 0.75177 0.0
C1055 C 0.78412 0.51326 0.73193 0.0
C1056 C 0.79533 0.51387 0.76754 0.0
C1057 C 0.79303 0.51064 0.82119 0.0
C1058 C 0.79577 0.5569 0.03549 0.0
C1059 C 0.82424 0.51892 0.98497 0.0
O1060 O 0.82261 0.51387 0.15716 0.0
O1061 O 0.81147 0.47751 0.16445 0.0
O1062 O 0.79611 0.47389 0.03517 0.0
O1063 O 0.81752 0.46523 0.04437 0.0
O1064 O 0.77221 0.50367 0.05444 0.0
O1065 O 0.78728 0.51244 0.12279 0.0
O1066 O 0.78628 0.48534 0.91781 0.0
O1067 O 0.77326 0.51934 0.92698 0.0
O1068 O 0.79968 0.53511 0.05044 0.0
O1069 O 0.78829 0.55478 0.99328 0.0
O1070 O 0.82516 0.51887 0.03651 0.0
O1071 O 0.81259 0.51303 0.95953 0.0
H1072 H 0.83581 0.4978 0.27269 0.0
H1073 H 0.82894 0.50458 0.36384 0.0
H1074 H 0.78596 0.51287 0.31549 0.0
H1075 H 0.79292 0.50568 0.22466 0.0
H1076 H 0.7577 0.50361 0.81958 0.0
H1077 H 0.76159 0.50985 0.72578 0.0
H1078 H 0.80596 0.516 0.75391 0.0
H1079 H 0.80189 0.51063 0.84748 0.0
Pr1080 Pr 0.42909 0.7763 0.09711 0.0
Pr1081 Pr 0.44903 0.7638 0.99618 0.0
C1082 C 0.41724 0.77978 0.19268 0.0
C1083 C 0.4212 0.77723 0.24825 0.0
C1084 C 0.41081 0.77722 0.2868 0.0
C1085 C 0.41438 0.77622 0.33986 0.0
C1086 C 0.42845 0.77528 0.35563 0.0
C1087 C 0.43885 0.77478 0.31662 0.0
C1088 C 0.43525 0.77574 0.26349 0.0
C1089 C 0.4323 0.81529 0.02356 0.0
C1090 C 0.46391 0.77227 0.11161 0.0
C1091 C 0.46278 0.76943 0.90441 0.0
C1092 C 0.45938 0.7713 0.84825 0.0
C1093 C 0.47015 0.77219 0.81117 0.0
C1094 C 0.46709 0.77306 0.75762 0.0
C1095 C 0.45316 0.77306 0.74001 0.0
C1096 C 0.44239 0.77236 0.77756 0.0
C1097 C 0.44547 0.77142 0.83111 0.0
C1098 C 0.44275 0.71845 0.04968 0.0
C1099 C 0.41418 0.75766 0.98954 0.0
O1100 O 0.41698 0.75885 0.16463 0.0
O1101 O 0.42252 0.79933 0.1676 0.0
O1102 O 0.44181 0.80014 0.03835 0.0
O1103 O 0.42088 0.81196 0.05024 0.0
O1104 O 0.46627 0.76856 0.06104 0.0
O1105 O 0.45134 0.77499 0.13175 0.0
O1106 O 0.45912 0.78867 0.934 0.0
O1107 O 0.46049 0.74732 0.92647 0.0
O1108 O 0.43876 0.74068 0.06159 0.0
O1109 O 0.45035 0.71925 1.00757 0.0
O1110 O 0.41318 0.75771 0.04107 0.0
O1111 O 0.42595 0.763 0.96435 0.0
H1112 H 0.3999 0.77826 0.27587 0.0
H1113 H 0.40606 0.77614 0.36856 0.0
H1114 H 0.4498 0.7743 0.32707 0.0
H1115 H 0.44345 0.7757 0.23436 0.0
H1116 H 0.48095 0.77208 0.82362 0.0
H1117 H 0.47565 0.77393 0.73003 0.0
H1118 H 0.43156 0.77198 0.7656 0.0
H1119 H 0.43701 0.77051 0.85911 0.0
Pr1120 Pr 0.19878 0.25781 0.73649 0.0
Pr1121 Pr 0.17907 0.2494 0.83678 0.0
C1122 C 0.21103 0.24806 0.64353 0.0
C1123 C 0.20853 0.25398 0.5879 0.0
C1124 C 0.21893 0.24908 0.55063 0.0
C1125 C 0.21613 0.25206 0.49716 0.0
C1126 C 0.20283 0.25983 0.47998 0.0
C1127 C 0.19259 0.26551 0.51774 0.0
C1128 C 0.19542 0.26265 0.57112 0.0
C1129 C 0.19229 0.3056 0.77981 0.0
C1130 C 0.1638 0.26664 0.7304 0.0
C1131 C 0.16835 0.24448 0.93371 0.0
C1132 C 0.17216 0.25039 0.98839 0.0
C1133 C 0.16162 0.25493 0.02521 0.0
C1134 C 0.16491 0.25825 0.0781 0.0
C1135 C 0.17885 0.25695 0.09546 0.0
C1136 C 0.18945 0.25326 0.05798 0.0
C1137 C 0.18613 0.25005 1.00501 0.0
C1138 C 0.18246 0.20767 0.76913 0.0
C1139 C 0.21319 0.25834 0.85195 0.0
O1140 O 0.2018 0.23305 0.66541 0.0
O1141 O 0.21497 0.26684 0.67397 0.0
O1142 O 0.18824 0.28406 0.79591 0.0
O1143 O 0.19999 0.30283 0.73829 0.0
O1144 O 0.16278 0.26724 0.78185 0.0
O1145 O 0.17555 0.26064 0.70567 0.0
O1146 O 0.16522 0.26368 0.90291 0.0
O1147 O 0.17577 0.22676 0.91064 0.0
O1148 O 0.19212 0.22257 0.78375 0.0
O1149 O 0.17071 0.21378 0.7911 0.0
O1150 O 0.21574 0.25245 0.80244 0.0
O1151 O 0.20047 0.26135 0.87016 0.0
H1152 H 0.2291 0.24226 0.5628 0.0
H1153 H 0.22423 0.24733 0.46926 0.0
H1154 H 0.18231 0.27193 0.50602 0.0
H1155 H 0.18726 0.26661 0.59929 0.0
H1156 H 0.15078 0.25539 0.01322 0.0
H1157 H 0.15649 0.26162 0.10547 0.0
H1158 H 0.20028 0.25195 0.06967 0.0
H1159 H 0.19447 0.24663 0.97728 0.0
Pr1160 Pr 0.53992 0.51792 0.74524 0.0
Pr1161 Pr 0.56033 0.52677 0.84563 0.0
C1162 C 0.52766 0.527 0.65195 0.0
C1163 C 0.53056 0.52265 0.59584 0.0
C1164 C 0.5195 0.52032 0.56031 0.0
C1165 C 0.52211 0.51806 0.50655 0.0
C1166 C 0.53588 0.51813 0.48714 0.0
C1167 C 0.54695 0.51994 0.52322 0.0
C1168 C 0.54432 0.52213 0.5769 0.0
C1169 C 0.54548 0.47099 0.79434 0.0
C1170 C 0.57446 0.5064 0.73808 0.0
C1171 C 0.57223 0.52871 0.9412 0.0
C1172 C 0.56807 0.52529 0.99637 0.0
C1173 C 0.57811 0.52753 0.03591 0.0
C1174 C 0.5743 0.52512 0.08856 0.0
C1175 C 0.56032 0.52049 0.10284 0.0
C1176 C 0.55029 0.51813 0.06289 0.0
C1177 C 0.55414 0.52044 1.01018 0.0
C1178 C 0.55831 0.5669 0.77368 0.0
C1179 C 0.52548 0.52641 0.861 0.0
O1180 O 0.53583 0.54328 0.6757 0.0
O1181 O 0.52462 0.50707 0.68076 0.0
O1182 O 0.54989 0.49273 0.80759 0.0
O1183 O 0.5379 0.47302 0.75235 0.0
O1184 O 0.57565 0.50663 0.78953 0.0
O1185 O 0.56282 0.51292 0.71335 0.0
O1186 O 0.57239 0.50822 0.91181 0.0
O1187 O 0.56711 0.54875 0.91733 0.0
O1188 O 0.54823 0.55316 0.78921 0.0
O1189 O 0.5698 0.56081 0.79777 0.0
O1190 O 0.52291 0.52508 0.8101 0.0
O1191 O 0.53814 0.52611 0.88091 0.0
H1192 H 0.5088 0.52064 0.57406 0.0
H1193 H 0.51332 0.51628 0.48022 0.0
H1194 H 0.55768 0.52041 0.50996 0.0
H1195 H 0.55304 0.52396 0.60354 0.0
H1196 H 0.58891 0.53138 0.02609 0.0
H1197 H 0.58228 0.52742 0.11815 0.0
H1198 H 0.53947 0.51428 0.07228 0.0
H1199 H 0.54623 0.51853 0.98026 0.0
Pr1200 Pr 0.19914 0.51537 0.02397 0.0
Pr1201 Pr 0.18037 0.53034 0.92073 0.0
C1202 C 0.21404 0.51613 0.11365 0.0
C1203 C 0.21131 0.51781 0.17089 0.0
C1204 C 0.2164 0.49876 0.20459 0.0
C1205 C 0.21351 0.49954 0.2584 0.0
C1206 C 0.20537 0.51932 0.27976 0.0
C1207 C 0.20051 0.53864 0.24609 0.0
C1208 C 0.20351 0.53797 0.19249 0.0
C1209 C 0.1899 0.47444 0.96387 0.0
C1210 C 0.16463 0.51283 0.02934 0.0
C1211 C 0.16802 0.53002 0.82596 0.0
C1212 C 0.17188 0.52628 0.77046 0.0
C1213 C 0.1644 0.53932 0.73169 0.0
C1214 C 0.1683 0.53748 0.67906 0.0
C1215 C 0.17978 0.52242 0.6637 0.0
C1216 C 0.18724 0.50924 0.7029 0.0
C1217 C 0.18336 0.51124 0.75573 0.0
C1218 C 0.18243 0.57153 0.99225 0.0
C1219 C 0.21499 0.52966 0.91021 0.0
O1220 O 0.2117 0.53655 0.0852 0.0
O1221 O 0.21025 0.49496 0.09036 0.0
O1222 O 0.1941 0.49563 0.94535 0.0
O1223 O 0.19113 0.4737 0.01462 0.0
O1224 O 0.16396 0.5129 0.97763 0.0
O1225 O 0.17628 0.51759 0.05553 0.0
O1226 O 0.16822 0.51002 0.85695 0.0
O1227 O 0.17291 0.5507 0.84798 0.0
O1228 O 0.18773 0.54971 0.99454 0.0
O1229 O 0.17539 0.57317 0.94898 0.0
O1230 O 0.21658 0.52173 0.95928 0.0
O1231 O 0.20276 0.53479 0.88922 0.0
H1232 H 0.22251 0.48307 0.18917 0.0
H1233 H 0.21738 0.48428 0.28306 0.0
H1234 H 0.19443 0.55442 0.26125 0.0
H1235 H 0.19965 0.55324 0.16811 0.0
H1236 H 0.15564 0.55133 0.74224 0.0
H1237 H 0.16244 0.54839 0.65057 0.0
H1238 H 0.19604 0.49726 0.69284 0.0
H1239 H 0.18941 0.50122 0.78507 0.0
Pr1240 Pr 0.53989 0.25471 0.02486 0.0
Pr1241 Pr 0.56071 0.24599 0.92536 0.0
C1242 C 0.52719 0.24614 0.11758 0.0
C1243 C 0.53066 0.24814 0.17386 0.0
C1244 C 0.5207 0.25742 0.20929 0.0
C1245 C 0.52371 0.25878 0.26287 0.0
C1246 C 0.53675 0.25076 0.28233 0.0
C1247 C 0.54674 0.24162 0.24644 0.0
C1248 C 0.54376 0.24042 0.19289 0.0
C1249 C 0.54526 0.30153 0.97486 0.0
C1250 C 0.5744 0.26583 0.03389 0.0
C1251 C 0.57266 0.24491 0.82996 0.0
C1252 C 0.56826 0.24709 0.77458 0.0
C1253 C 0.55642 0.23424 0.75566 0.0
C1254 C 0.55273 0.23582 0.70272 0.0
C1255 C 0.56075 0.25041 0.66744 0.0
C1256 C 0.57242 0.26372 0.68701 0.0
C1257 C 0.57613 0.262 0.73986 0.0
C1258 C 0.55883 0.20609 0.99779 0.0
C1259 C 0.52589 0.24472 0.9087 0.0
O1260 O 0.53371 0.22846 0.09095 0.0
O1261 O 0.52575 0.26748 0.09151 0.0
O1262 O 0.54986 0.27981 0.96234 0.0
O1263 O 0.53749 0.29951 0.01637 0.0
O1264 O 0.5757 0.26628 0.98246 0.0
O1265 O 0.56271 0.25893 0.0579 0.0
O1266 O 0.572 0.26568 0.8584 0.0
O1267 O 0.56879 0.22433 0.85529 0.0
O1268 O 0.54868 0.21955 0.98183 0.0
O1269 O 0.57033 0.21228 0.97373 0.0
O1270 O 0.52313 0.2474 0.95926 0.0
O1271 O 0.53862 0.24438 0.88927 0.0
H1272 H 0.51055 0.26356 0.19552 0.0
H1273 H 0.51581 0.26633 0.28893 0.0
H1274 H 0.55681 0.23489 0.25969 0.0
H1275 H 0.55167 0.23322 0.16646 0.0
H1276 H 0.55009 0.22271 0.78162 0.0
H1277 H 0.54377 0.22509 0.68934 0.0
H1278 H 0.57869 0.2756 0.66155 0.0
H1279 H 0.58524 0.27225 0.75359 0.0
H1280 H 0.23836 0.23301 0.861 0.0
H1281 H 0.25313 0.29219 0.14618 0.0
H1282 H 0.21292 0.29112 0.93315 0.0
H1283 H 0.27833 0.23353 0.07474 0.0
H1284 H 0.23772 0.29128 0.06926 0.0
H1285 H 0.25376 0.23391 0.93795 0.0
C1286 C 0.23621 0.2463 0.89242 0.0
C1287 C 0.22436 0.26188 0.89092 0.0
C1288 C 0.24658 0.27847 0.07072 0.0
C1289 C 0.24153 0.26257 0.97929 0.0
C1290 C 0.25522 0.27877 0.11493 0.0
C1291 C 0.267 0.26304 0.1166 0.0
C1292 C 0.24984 0.26233 0.02825 0.0
C1293 C 0.26939 0.24618 0.07473 0.0
C1294 C 0.24485 0.24659 0.93665 0.0
C1295 C 0.22191 0.27858 0.933 0.0
N1296 N 0.26097 0.24642 0.03218 0.0
N1297 N 0.23033 0.27834 0.97553 0.0
H1298 H 0.02429 0.97448 0.93192 0.0
H1299 H 0.96462 0.04671 0.09135 0.0
H1300 H 0.00306 0.04135 0.87421 0.0
H1301 H 0.98616 0.98032 0.14981 0.0
H1302 H 0.97898 0.04567 0.01279 0.0
H1303 H 0.00986 0.97542 1.01032 0.0
C1304 C 0.01629 0.98901 0.93528 0.0
C1305 C 0.01479 1.00784 0.89657 0.0
C1306 C 0.98074 0.03151 0.04294 0.0
C1307 C -0.00151 1.00946 0.98701 0.0
C1308 C 0.97266 0.03224 0.08808 0.0
C1309 C 0.97428 0.0136 0.12708 0.0
C1310 C 0.9905 0.01186 0.03646 0.0
C1311 C 0.98473 0.99521 0.12091 0.0
C1312 C 0.00818 0.9897 0.98035 0.0
C1313 C 0.00439 0.02632 0.90286 0.0
N1314 N 0.99239 0.99464 0.076 0.0
N1315 N -0.0033 0.02683 0.94768 0.0
H1316 H 0.23843 0.04068 0.40705 0.0
H1317 H 0.2532 0.9772 0.12577 0.0
H1318 H 0.21382 0.97977 0.34105 0.0
H1319 H 0.27808 0.03761 0.19224 0.0
H1320 H 0.23799 0.97884 0.20327 0.0
H1321 H 0.25368 0.03904 0.32965 0.0
C1322 C 0.23647 0.0266 0.37695 0.0
C1323 C 0.22488 1.01043 0.38022 0.0
C1324 C 0.24672 0.99189 0.20058 0.0
C1325 C 0.24184 1.00892 0.29128 0.0
C1326 C 0.25523 0.99118 0.15601 0.0
C1327 C 0.26688 1.0072 0.15283 0.0
C1328 C 0.24997 1.00873 0.24188 0.0
C1329 C 0.26923 0.02476 0.19345 0.0
C1330 C 0.245 0.02588 0.33244 0.0
C1331 C 0.22263 0.99273 0.33977 0.0
N1332 N 0.26094 0.02491 0.23641 0.0
N1333 N 0.23092 0.9926 0.29687 0.0
H1334 H 0.00238 0.27294 0.41225 0.0
H1335 H 0.98663 0.24958 0.10735 0.0
H1336 H 0.0235 0.21663 0.31814 0.0
H1337 H 0.96552 0.30596 0.20124 0.0
H1338 H 0.00104 0.23838 0.18335 0.0
H1339 H 0.98801 0.28427 0.33619 0.0
C1340 C 0.00367 0.26244 0.37609 0.0
C1341 C 0.0141 0.24386 0.37135 0.0
C1342 C 0.99337 0.25344 0.18713 0.0
C1343 C -0.00178 0.25731 0.28388 0.0
C1344 C 0.98535 0.26013 0.14345 0.0
C1345 C 0.97491 0.27868 0.14817 0.0
C1346 C 0.99083 0.26537 0.2356 0.0
C1347 C 0.97344 0.29143 0.19618 0.0
C1348 C -0.00432 0.26921 0.33239 0.0
C1349 C 0.01558 0.23118 0.32326 0.0
N1350 N 0.98119 0.28437 0.23814 0.0
N1351 N 0.00786 0.2383 0.2813 0.0
H1352 H 0.71511 0.71556 0.95249 0.0
H1353 H 0.774 0.80582 0.07308 0.0
H1354 H 0.73643 0.77367 0.86366 0.0
H1355 H 0.75295 0.74724 0.16143 0.0
H1356 H 0.75973 0.79544 0.9971 0.0
H1357 H 0.72928 0.7261 0.02853 0.0
C1358 C 0.72309 0.73011 0.94866 0.0
C1359 C 0.72466 0.74372 0.90168 0.0
C1360 C 0.75804 0.78508 0.03322 0.0
C1361 C 0.74066 0.75643 0.9892 0.0
C1362 C 0.76606 0.7912 0.07681 0.0
C1363 C 0.76459 0.7774 0.12358 0.0
C1364 C 0.74849 0.76487 0.03623 0.0
C1365 C 0.75425 0.75856 0.12632 0.0
C1366 C 0.73105 0.73633 0.99232 0.0
C1367 C 0.73503 0.76249 0.89891 0.0
N1368 N 0.74668 0.75263 0.08294 0.0
N1369 N 0.74256 0.76851 0.94237 0.0
H1370 H 0.75278 0.97855 0.62394 0.0
H1371 H 0.73739 0.03903 0.90739 0.0
H1372 H 0.77679 0.03966 0.69225 0.0
H1373 H 0.71323 0.97815 0.83897 0.0
H1374 H 0.75264 0.03851 0.83 0.0
H1375 H 0.73757 0.97888 0.70149 0.0
C1376 C 0.75462 0.9924 0.6546 0.0
C1377 C 0.76602 1.00901 0.65194 0.0
C1378 C 0.74406 0.0251 0.83224 0.0
C1379 C 0.74913 1.00904 0.74101 0.0
C1380 C 0.73553 0.02517 0.87675 0.0
C1381 C 0.72406 1.0087 0.87932 0.0
C1382 C 0.74102 1.00847 0.7904 0.0
C1383 C 0.72194 0.99132 0.83821 0.0
C1384 C 0.74611 0.99237 0.69919 0.0
C1385 C 0.76812 0.02638 0.69307 0.0
N1386 N 0.73024 0.99181 0.79531 0.0
N1387 N 0.75986 0.0258 0.73603 0.0
H1388 H 0.96429 0.80611 0.70384 0.0
H1389 H 0.02367 0.7148 0.81805 0.0
H1390 H 0.98567 0.74954 0.61132 0.0
H1391 H 0.00287 0.77238 0.90979 0.0
H1392 H 0.00927 0.72618 0.743 0.0
H1393 H 0.97873 0.79485 0.77884 0.0
C1394 C 0.97234 0.79177 0.69899 0.0
C1395 C 0.97387 0.7788 0.65127 0.0
C1396 C 0.00768 0.73613 0.77963 0.0
C1397 C 0.99016 0.76524 0.73756 0.0
C1398 C 0.01577 0.72943 0.8227 0.0
C1399 C 0.01441 0.74265 0.87019 0.0
C1400 C -0.00187 0.75629 0.7839 0.0
C1401 C 0.00411 0.76151 0.8741 0.0
C1402 C 0.98045 0.78513 0.74204 0.0
C1403 C 0.98432 0.76024 0.64718 0.0
N1404 N -0.00356 0.76797 0.83124 0.0
N1405 N 0.99199 0.75379 0.69005 0.0
H1406 H 0.23661 0.77298 0.35898 0.0
H1407 H 0.25264 0.74665 0.66284 0.0
H1408 H 0.21334 0.72001 0.45442 0.0
H1409 H 0.27635 0.79853 0.56641 0.0
H1410 H 0.23748 0.73768 0.58762 0.0
H1411 H 0.25194 0.78148 0.43384 0.0
C1412 C 0.23498 0.76262 0.39515 0.0
C1413 C 0.2237 0.74583 0.40057 0.0
C1414 C 0.24593 0.75123 0.58315 0.0
C1415 C 0.24077 0.75606 0.48672 0.0
C1416 C 0.25441 0.75664 0.62634 0.0
C1417 C 0.26574 0.77331 0.62079 0.0
C1418 C 0.24886 0.76258 0.53435 0.0
C1419 C 0.26774 0.78543 0.57227 0.0
C1420 C 0.24356 0.76777 0.43817 0.0
C1421 C 0.22189 0.73324 0.44869 0.0
N1422 N 0.25949 0.77967 0.5309 0.0
N1423 N 0.23022 0.73879 0.48998 0.0
H1424 H 0.98715 0.48389 0.6556 0.0
H1425 H 0.00308 0.53902 0.36778 0.0
H1426 H 0.96261 0.54232 0.58019 0.0
H1427 H 0.02767 0.4807 0.44332 0.0
H1428 H 0.98753 0.53961 0.44436 0.0
H1429 H 0.00271 0.48333 0.57907 0.0
C1430 C 0.98524 0.49695 0.62354 0.0
C1431 C 0.97359 0.51304 0.624 0.0
C1432 C -0.00371 0.52655 0.44389 0.0
C1433 C 0.99094 0.51207 0.5361 0.0
C1434 C 0.00501 0.52599 0.39989 0.0
C1435 C 0.01667 0.50993 0.39944 0.0
C1436 C -0.00067 0.51093 0.48739 0.0
C1437 C 0.01884 0.4936 0.44237 0.0
C1438 C 0.99397 0.49641 0.57956 0.0
C1439 C 0.97144 0.52941 0.58113 0.0
N1440 N 0.01034 0.49466 0.48469 0.0
N1441 N 0.97994 0.52836 0.53883 0.0
H1442 H 0.27308 0.46583 0.69075 0.0
H1443 H 0.21916 0.56098 0.82733 0.0
H1444 H 0.25345 0.52864 0.61049 0.0
H1445 H 0.23623 0.49474 0.90437 0.0
H1446 H 0.23284 0.55095 0.7496 0.0
H1447 H 0.25957 0.47575 0.76898 0.0
C1448 C 0.26553 0.48122 0.68916 0.0
C1449 C 0.26424 0.4963 0.64401 0.0
C1450 C 0.23379 0.53879 0.78368 0.0
C1451 C 0.24914 0.50843 0.73413 0.0
C1452 C 0.22615 0.54472 0.8284 0.0
C1453 C 0.22659 0.52868 0.87241 0.0
C1454 C 0.24194 0.51658 0.78279 0.0
C1455 C 0.23571 0.50778 0.87156 0.0
C1456 C 0.25798 0.48711 0.7341 0.0
C1457 C 0.25455 0.51629 0.64421 0.0
N1458 N 0.24292 0.50214 0.82711 0.0
N1459 N 0.24747 0.52199 0.68891 0.0
H1460 H 0.75093 0.29088 0.65254 0.0
H1461 H 0.73708 0.22879 0.36927 0.0
H1462 H 0.77794 0.23518 0.5805 0.0
H1463 H 0.711 0.28661 0.43913 0.0
H1464 H 0.75257 0.23123 0.44586 0.0
H1465 H 0.73543 0.28814 0.57605 0.0
C1466 C 0.75341 0.27772 0.62124 0.0
C1467 C 0.76572 0.26337 0.6226 0.0
C1468 C 0.74349 0.24351 0.44412 0.0
C1469 C 0.74841 0.26058 0.53479 0.0
C1470 C 0.73481 0.24234 0.4001 0.0
C1471 C 0.72276 0.25739 0.39811 0.0
C1472 C 0.74002 0.25982 0.48607 0.0
C1473 C 0.72015 0.27445 0.43942 0.0
C1474 C 0.74471 0.27638 0.57728 0.0
C1475 C 0.76859 0.24679 0.5807 0.0
N1476 N 0.72861 0.27505 0.4818 0.0
N1477 N 0.76009 0.24599 0.53843 0.0
H1478 H 0.71304 0.47709 0.33918 0.0
H1479 H 0.77316 0.54649 0.1765 0.0
H1480 H 0.73472 0.54398 0.39413 0.0
H1481 H 0.75136 0.47975 0.12141 0.0
H1482 H 0.75874 0.54661 0.25498 0.0
H1483 H 0.72743 0.47704 0.26066 0.0
C1484 C 0.72112 0.49144 0.33518 0.0
C1485 C 0.72277 0.51054 0.37319 0.0
C1486 C 0.75693 0.53213 0.22556 0.0
C1487 C 0.73904 0.51101 0.28255 0.0
C1488 C 0.76504 0.5322 0.18045 0.0
C1489 C 0.76337 0.51312 0.14241 0.0
C1490 C 0.74707 0.51272 0.233 0.0
C1491 C 0.75283 0.49497 0.1495 0.0
C1492 C 0.72922 0.49155 0.29004 0.0
C1493 C 0.73327 0.52876 0.36605 0.0
N1494 N 0.74514 0.49506 0.19435 0.0
N1495 N 0.74095 0.5287 0.32117 0.0
H1496 H 0.46783 0.96442 0.58084 0.0
H1497 H 0.52387 0.05652 0.44737 0.0
H1498 H 0.4877 0.02677 0.66172 0.0
H1499 H 0.5035 0.99496 0.36587 0.0
H1500 H 0.51023 0.04675 0.52536 0.0
H1501 H 0.48157 0.97413 0.50307 0.0
C1502 C 0.47545 0.97968 0.58266 0.0
C1503 C 0.47671 0.99476 0.6278 0.0
C1504 C 0.50852 0.03562 0.49027 0.0
C1505 C 0.49211 1.00658 0.53825 0.0
C1506 C 0.51615 0.04144 0.4455 0.0
C1507 C 0.51469 0.02662 0.40011 0.0
C1508 C 0.49941 0.01469 0.48983 0.0
C1509 C 0.50474 1.00708 0.39983 0.0
C1510 C 0.48313 0.98546 0.53798 0.0
C1511 C 0.48658 0.01447 0.62797 0.0
N1512 N 0.49757 1.00146 0.44436 0.0
N1513 N 0.4938 0.02003 0.58353 0.0
H1514 H 0.46603 0.30198 0.68883 0.0
H1515 H 0.52497 0.21582 0.82137 0.0
H1516 H 0.48789 0.24219 0.6071 0.0
H1517 H 0.50237 0.27446 0.90384 0.0
H1518 H 0.51113 0.22439 0.74336 0.0
H1519 H 0.47993 0.29336 0.7667 0.0
C1520 C 0.4741 0.28751 0.68692 0.0
C1521 C 0.47591 0.27286 0.64148 0.0
C1522 C 0.509 0.23514 0.77863 0.0
C1523 C 0.49156 0.26228 0.73104 0.0
C1524 C 0.51678 0.23004 0.8234 0.0
C1525 C 0.51474 0.24441 0.86913 0.0
C1526 C 0.49914 0.25489 0.77938 0.0
C1527 C 0.50411 0.26273 0.86962 0.0
C1528 C 0.48189 0.28236 0.73161 0.0
C1529 C 0.48635 0.25417 0.6411 0.0
N1530 N 0.49679 0.26767 0.8251 0.0
N1531 N 0.49371 0.24921 0.68554 0.0
H1532 H 0.48728 0.74183 0.11182 0.0
H1533 H 0.50298 0.77273 0.41394 0.0
H1534 H 0.4657 0.79943 0.20116 0.0
H1535 H 0.52674 0.71901 0.32232 0.0
H1536 H 0.48798 0.78048 0.33772 0.0
H1537 H 0.50205 0.73306 0.18825 0.0
C1538 C 0.48592 0.75308 0.14698 0.0
C1539 C 0.47527 0.7713 0.15033 0.0
C1540 C 0.49638 0.76675 0.33454 0.0
C1541 C 0.49163 0.76082 0.23819 0.0
C1542 C 0.50475 0.76201 0.37833 0.0
C1543 C 0.51606 0.74523 0.37427 0.0
C1544 C 0.49942 0.7546 0.28668 0.0
C1545 C 0.51811 0.73218 0.32689 0.0
C1546 C 0.49416 0.74781 0.19089 0.0
C1547 C 0.47376 0.78507 0.19715 0.0
N1548 N 0.50998 0.73731 0.28483 0.0
N1549 N 0.48173 0.77938 0.23934 0.0
H1550 H 0.50126 0.49837 0.86005 0.0
H1551 H 0.48753 0.52379 0.1658 0.0
H1552 H 0.52485 0.55184 0.95277 0.0
H1553 H 0.46449 0.46934 0.07357 0.0
H1554 H 0.50201 0.53334 0.08889 0.0
H1555 H 0.48685 0.4888 0.93712 0.0
C1556 C 0.5031 0.50866 0.89612 0.0
C1557 C 0.5142 0.52591 0.90015 0.0
C1558 C 0.49389 0.51904 0.08572 0.0
C1559 C 0.49828 0.51441 0.98872 0.0
C1560 C 0.48584 0.51327 0.1299 0.0
C1561 C 0.47486 0.49575 0.12591 0.0
C1562 C 0.49085 0.50724 0.03751 0.0
C1563 C 0.47287 0.48303 0.07813 0.0
C1564 C 0.49508 0.50287 0.94038 0.0
C1565 C 0.51637 0.53835 0.94815 0.0
N1566 N 0.48066 0.48921 0.0357 0.0
N1567 N 0.5086 0.53218 0.99064 0.0
H1568 H 0.41315 0.25147 0.37232 0.0
H1569 H 0.33022 0.25158 0.38134 0.0
H1570 H 0.38928 0.24269 0.51463 0.0
H1571 H 0.35407 0.24859 0.23801 0.0
H1572 H 0.35173 0.24561 0.43077 0.0
H1573 H 0.39165 0.24754 0.32204 0.0
C1574 C 0.40343 0.24846 0.39301 0.0
C1575 C 0.40301 0.24774 0.44782 0.0
C1576 C 0.35223 0.24602 0.38848 0.0
C1577 C 0.37836 0.24342 0.39055 0.0
C1578 C 0.33995 0.2495 0.36022 0.0
C1579 C 0.34036 0.25091 0.30547 0.0
C1580 C 0.36501 0.24415 0.36178 0.0
C1581 C 0.35326 0.24785 0.2802 0.0
C1582 C 0.39115 0.2462 0.36426 0.0
C1583 C 0.39011 0.24361 0.47246 0.0
N1584 N 0.36509 0.24487 0.3086 0.0
N1585 N 0.37828 0.2419 0.44365 0.0
H1586 H 0.85281 0.02754 0.53254 0.0
H1587 H 0.88766 0.03215 0.24951 0.0
H1588 H 0.82963 0.02105 0.38823 0.0
H1589 H 0.91096 0.0235 0.39307 0.0
H1590 H 0.8663 0.03624 0.30041 0.0
H1591 H 0.87408 0.0341 0.48218 0.0
C1592 C 0.85215 0.02768 0.49026 0.0
C1593 C 0.83943 0.02336 0.46454 0.0
C1594 C 0.87611 0.03365 0.32074 0.0
C1595 C 0.86377 0.03089 0.40681 0.0
C1596 C 0.88833 0.03134 0.29175 0.0
C1597 C 0.90112 0.02709 0.31705 0.0
C1598 C 0.87667 0.03173 0.37538 0.0
C1599 C 0.90133 0.02646 0.37188 0.0
C1600 C 0.86432 0.03142 0.46158 0.0
C1601 C 0.83922 0.024 0.40971 0.0
N1602 N 0.88925 0.02854 0.39924 0.0
N1603 N 0.85125 0.02749 0.38262 0.0
H1604 H 0.41351 0.01404 0.8962 0.0
H1605 H 0.33035 0.01412 0.88816 0.0
H1606 H 0.38933 0.01824 0.75379 0.0
H1607 H 0.35429 0.01763 0.03113 0.0
H1608 H 0.35191 0.01827 0.8383 0.0
H1609 H 0.39198 0.01795 0.94658 0.0
C1610 C 0.40371 0.01596 0.87547 0.0
C1611 C 0.40323 0.01554 0.82064 0.0
C1612 C 0.35244 0.01833 0.8806 0.0
C1613 C 0.37858 0.01992 0.87806 0.0
C1614 C 0.34012 0.01593 0.90911 0.0
C1615 C 0.34052 0.01525 0.96391 0.0
C1616 C 0.36525 0.01989 0.90708 0.0
C1617 C 0.35348 0.01788 0.98892 0.0
C1618 C 0.39142 0.01821 0.90429 0.0
C1619 C 0.39023 0.01823 0.79598 0.0
N1620 N 0.36534 0.01986 0.96028 0.0
N1621 N 0.37841 0.02011 0.82488 0.0
H1622 H 0.85263 0.25201 0.74408 0.0
H1623 H 0.88772 0.25254 0.02691 0.0
H1624 H 0.82938 0.25898 0.88824 0.0
H1625 H 0.91088 0.25981 0.88261 0.0
H1626 H 0.86634 0.24749 0.97657 0.0
H1627 H 0.87403 0.24753 0.79452 0.0
C1628 C 0.85198 0.25241 0.78636 0.0
C1629 C 0.83918 0.2562 0.81195 0.0
C1630 C 0.87612 0.25001 0.95595 0.0
C1631 C 0.8637 0.25107 0.86983 0.0
C1632 C 0.88836 0.25286 0.98463 0.0
C1633 C 0.90113 0.25695 0.95895 0.0
C1634 C 0.87663 0.25119 0.9012 0.0
C1635 C 0.90128 0.25697 0.9041 0.0
C1636 C 0.86423 0.24987 0.81509 0.0
C1637 C 0.83902 0.25634 0.86681 0.0
N1638 N 0.88919 0.25433 0.87703 0.0
N1639 N 0.85112 0.25399 0.89395 0.0
H1640 H 0.60312 0.7759 0.49624 0.0
H1641 H 0.63799 0.77226 0.7793 0.0
H1642 H 0.57978 0.76822 0.64003 0.0
H1643 H 0.66119 0.76518 0.63506 0.0
H1644 H 0.61673 0.77868 0.72889 0.0
H1645 H 0.6245 0.77999 0.54698 0.0
C1646 C 0.60244 0.77532 0.5385 0.0
C1647 C 0.58963 0.77134 0.5639 0.0
C1648 C 0.62649 0.7759 0.7083 0.0
C1649 C 0.61412 0.77596 0.62209 0.0
C1650 C 0.63866 0.77225 0.73702 0.0
C1651 C 0.65139 0.76781 0.71136 0.0
C1652 C 0.62703 0.77516 0.65353 0.0
C1653 C 0.65159 0.76825 0.65651 0.0
C1654 C 0.61468 0.77761 0.5674 0.0
C1655 C 0.58942 0.77097 0.61875 0.0
N1656 N 0.63956 0.77166 0.62939 0.0
N1657 N 0.60152 0.77304 0.64603 0.0
H1658 H 0.10204 0.99299 0.77959 0.0
H1659 H 0.13807 0.99508 0.49854 0.0
H1660 H 0.07929 1.00002 0.6344 0.0
H1661 H 0.16065 1.00405 0.64365 0.0
H1662 H 0.11662 0.98916 0.54803 0.0
H1663 H 0.12366 0.98922 0.73015 0.0
C1664 C 0.10155 0.99352 0.73729 0.0
C1665 C 0.08883 0.99718 0.71109 0.0
C1666 C 0.12628 0.99227 0.56902 0.0
C1667 C 0.11358 0.99289 0.65443 0.0
C1668 C 0.13856 0.99564 0.54084 0.0
C1669 C 0.15117 1.00042 0.567 0.0
C1670 C 0.12661 0.99362 0.62374 0.0
C1671 C 0.15115 1.00069 0.62184 0.0
C1672 C 0.11392 0.99141 0.70914 0.0
C1673 C 0.08886 0.9975 0.65625 0.0
N1674 N 0.13901 0.99751 0.64843 0.0
N1675 N 0.10108 0.99558 0.62971 0.0
H1676 H 0.63681 0.99434 0.99688 0.0
H1677 H 0.60113 0.99474 0.27862 0.0
H1678 H 0.65971 1.0004 0.14189 0.0
H1679 H 0.57838 1.00412 0.13401 0.0
H1680 H 0.6225 0.9887 0.22865 0.0
H1681 H 0.61527 0.98988 0.04657 0.0
C1682 C 0.63735 0.99452 0.03919 0.0
C1683 C 0.65009 0.99811 0.06528 0.0
C1684 C 0.61281 0.99189 0.20787 0.0
C1685 C 0.62542 0.99301 0.12224 0.0
C1686 C 0.60058 0.99533 0.23633 0.0
C1687 C 0.58795 1.00034 0.21046 0.0
C1688 C 0.61242 0.99344 0.15317 0.0
C1689 C 0.58789 1.0006 0.15562 0.0
C1690 C 0.62502 0.99199 0.06748 0.0
C1691 C 0.65012 0.99796 0.12012 0.0
N1692 N 0.59998 0.99741 0.12876 0.0
N1693 N 0.63794 0.99565 0.14681 0.0
H1694 H 0.10177 0.76721 0.99164 0.0
H1695 H 0.13637 0.76984 0.27526 0.0
H1696 H 0.07843 0.76139 0.1358 0.0
H1697 H 0.16007 0.7637 0.13194 0.0
H1698 H 0.11507 0.77331 0.22418 0.0
H1699 H 0.12312 0.7725 0.04217 0.0
C1700 C 0.10109 0.76724 0.03392 0.0
C1701 C 0.08827 0.76355 0.05952 0.0
C1702 C 0.12494 0.77136 0.20389 0.0
C1703 C 0.11272 0.76958 0.11749 0.0
C1704 C 0.13714 0.76937 0.23302 0.0
C1705 C 0.15006 0.76616 0.2079 0.0
C1706 C 0.12561 0.77013 0.14918 0.0
C1707 C 0.15035 0.76597 0.15303 0.0
C1708 C 0.11331 0.77024 0.06271 0.0
C1709 C 0.08806 0.76394 0.11436 0.0
N1710 N 0.13828 0.76773 0.12549 0.0
N1711 N 0.10013 0.76673 0.14152 0.0
H1712 H 0.35283 0.74719 0.74397 0.0
H1713 H 0.3879 0.74861 0.02691 0.0
H1714 H 0.32959 0.75503 0.88796 0.0
H1715 H 0.41118 0.75581 0.88284 0.0
H1716 H 0.36653 0.74404 0.97642 0.0
H1717 H 0.37427 0.74331 0.7945 0.0
C1718 C 0.35219 0.74786 0.78623 0.0
C1719 C 0.33938 0.75171 0.81175 0.0
C1720 C 0.37632 0.74648 0.95587 0.0
C1721 C 0.36394 0.74732 0.86971 0.0
C1722 C 0.38856 0.74907 0.98463 0.0
C1723 C 0.40137 0.75288 0.95909 0.0
C1724 C 0.37687 0.74763 0.90113 0.0
C1725 C 0.40154 0.75312 0.90422 0.0
C1726 C 0.36446 0.7457 0.81501 0.0
C1727 C 0.33923 0.75228 0.86659 0.0
N1728 N 0.38944 0.75068 0.87705 0.0
N1729 N 0.35135 0.75027 0.89375 0.0
H1730 H 0.91 0.52279 0.8895 0.0
H1731 H 0.827 0.52279 0.87857 0.0
H1732 H 0.88636 0.52868 0.74614 0.0
H1733 H 0.85061 0.52706 0.02222 0.0
H1734 H 0.84863 0.52768 0.82932 0.0
H1735 H 0.88837 0.52711 0.93901 0.0
C1736 C 0.90029 0.52518 0.8684 0.0
C1737 C 0.89998 0.52506 0.81357 0.0
C1738 C 0.84906 0.52778 0.87163 0.0
C1739 C 0.8752 0.52989 0.86997 0.0
C1740 C 0.8367 0.52494 0.8998 0.0
C1741 C 0.837 0.52421 0.95461 0.0
C1742 C 0.86179 0.52971 0.8985 0.0
C1743 C 0.84987 0.52731 0.97999 0.0
C1744 C 0.88794 0.52769 0.89671 0.0
C1745 C 0.8871 0.52845 0.78837 0.0
N1746 N 0.86177 0.52967 0.95169 0.0
N1747 N 0.87521 0.53047 0.81679 0.0
H1748 H 0.32822 0.51842 0.37859 0.0
H1749 H 0.41109 0.51648 0.39268 0.0
H1750 H 0.35142 0.52296 0.52315 0.0
H1751 H 0.38796 0.52471 0.24864 0.0
H1752 H 0.38937 0.52157 0.44148 0.0
H1753 H 0.35 0.52347 0.3302 0.0
C1754 C 0.33785 0.5207 0.40019 0.0
C1755 C 0.338 0.51993 0.455 0.0
C1756 C 0.38909 0.52253 0.39919 0.0
C1757 C 0.36295 0.52556 0.39992 0.0
C1758 C 0.40149 0.51958 0.3713 0.0
C1759 C 0.40133 0.51983 0.31646 0.0
C1760 C 0.37645 0.52552 0.372 0.0
C1761 C 0.38858 0.52412 0.29088 0.0
C1762 C 0.35029 0.52362 0.37253 0.0
C1763 C 0.3508 0.52319 0.48089 0.0
N1764 N 0.37663 0.52652 0.31886 0.0
N1765 N 0.36278 0.52558 0.4531 0.0
H1766 H 0.85179 0.75059 0.24628 0.0
H1767 H 0.88659 0.75314 0.52962 0.0
H1768 H 0.82841 0.75774 0.39006 0.0
H1769 H 0.90991 0.75972 0.38553 0.0
H1770 H 0.8653 0.74738 0.47906 0.0
H1771 H 0.87316 0.74642 0.29706 0.0
C1772 C 0.8511 0.75106 0.28854 0.0
C1773 C 0.83827 0.75487 0.31392 0.0
C1774 C 0.87509 0.74991 0.45853 0.0
C1775 C 0.86276 0.75014 0.37219 0.0
C1776 C 0.88728 0.75318 0.48734 0.0
C1777 C 0.90006 0.75727 0.46178 0.0
C1778 C 0.87567 0.75068 0.40375 0.0
C1779 C 0.90028 0.75691 0.40692 0.0
C1780 C 0.86334 0.74871 0.31748 0.0
C1781 C 0.83806 0.75509 0.36878 0.0
N1782 N 0.88824 0.75387 0.37971 0.0
N1783 N 0.85015 0.75297 0.39609 0.0
H1784 H 0.6596 0.26787 0.13406 0.0
H1785 H 0.57662 0.26653 0.14078 0.0
H1786 H 0.63548 0.26874 0.27686 0.0
H1787 H 0.60075 0.27691 0.99952 0.0
H1788 H 0.59801 0.27024 0.19183 0.0
H1789 H 0.63814 0.27388 0.08434 0.0
C1790 C 0.64982 0.26947 0.15501 0.0
C1791 C 0.64933 0.26749 0.20968 0.0
C1792 C 0.5986 0.27198 0.14969 0.0
C1793 C 0.62473 0.2743 0.15302 0.0
C1794 C 0.58638 0.26986 0.12049 0.0
C1795 C 0.5869 0.27109 0.06571 0.0
C1796 C 0.61143 0.27515 0.12389 0.0
C1797 C 0.59984 0.27559 0.04162 0.0
C1798 C 0.63757 0.27298 0.12659 0.0
C1799 C 0.63636 0.26996 0.23473 0.0
N1800 N 0.61161 0.27717 0.07085 0.0
N1801 N 0.62456 0.27299 0.20615 0.0
H1802 H 0.10391 0.49463 0.27492 0.0
H1803 H 0.13828 0.50507 0.99117 0.0
H1804 H 0.08011 0.50343 0.13257 0.0
H1805 H 0.16165 0.50861 0.13547 0.0
H1806 H 0.11699 0.49826 0.04157 0.0
H1807 H 0.12524 0.49308 0.2232 0.0
C1808 C 0.10313 0.496 0.23276 0.0
C1809 C 0.09019 0.4995 0.20809 0.0
C1810 C 0.12679 0.50043 0.06214 0.0
C1811 C 0.11461 0.49785 0.14876 0.0
C1812 C 0.13896 0.50433 0.03342 0.0
C1813 C 0.15176 0.50768 0.05916 0.0
C1814 C 0.12743 0.49982 0.11694 0.0
C1815 C 0.152 0.50636 0.11396 0.0
C1816 C 0.11534 0.49517 0.20328 0.0
C1817 C 0.08985 0.50097 0.15331 0.0
N1818 N 0.13999 0.50264 0.14103 0.0
N1819 N 0.10191 0.50033 0.12548 0.0
H1820 H 0.65967 0.5001 0.63825 0.0
H1821 H 0.5767 0.50268 0.63145 0.0
H1822 H 0.63555 0.49667 0.49574 0.0
H1823 H 0.60081 0.49638 0.77363 0.0
H1824 H 0.59807 0.49719 0.58086 0.0
H1825 H 0.6382 0.49551 0.68852 0.0
C1826 C 0.64989 0.49819 0.61749 0.0
C1827 C 0.6494 0.4991 0.5627 0.0
C1828 C 0.59866 0.49675 0.62314 0.0
C1829 C 0.62478 0.49394 0.62 0.0
C1830 C 0.58645 0.49993 0.65208 0.0
C1831 C 0.58698 0.50034 0.70689 0.0
C1832 C 0.61147 0.49418 0.64923 0.0
C1833 C 0.5999 0.49644 0.73145 0.0
C1834 C 0.63762 0.49551 0.64623 0.0
C1835 C 0.63642 0.49628 0.53793 0.0
N1836 N 0.61166 0.4938 0.70242 0.0
N1837 N 0.62461 0.4941 0.5668 0.0
H1838 H 0.16093 0.26742 0.62366 0.0
H1839 H 0.07796 0.26452 0.63651 0.0
H1840 H 0.13743 0.27554 0.76697 0.0
H1841 H 0.10132 0.26808 0.4921 0.0
H1842 H 0.09961 0.27096 0.68493 0.0
H1843 H 0.13919 0.27017 0.57437 0.0
C1844 C 0.15124 0.27001 0.64477 0.0
C1845 C 0.15101 0.27095 0.69957 0.0
C1846 C 0.09997 0.27056 0.64262 0.0
C1847 C 0.12609 0.27393 0.64345 0.0
C1848 C 0.08761 0.26683 0.61494 0.0
C1849 C 0.08783 0.26545 0.56018 0.0
C1850 C 0.11264 0.27274 0.61532 0.0
C1851 C 0.10064 0.2688 0.53432 0.0
C1852 C 0.13882 0.2716 0.61659 0.0
C1853 C 0.13812 0.27449 0.72478 0.0
N1854 N 0.11254 0.27203 0.56215 0.0
N1855 N 0.12617 0.27559 0.69653 0.0
H1856 H 0.27389 0.28931 0.6069 0.0
H1857 H 0.32421 0.23926 0.83518 0.0
H1858 H 0.30708 0.23493 0.58178 0.0
H1859 H 0.28886 0.28862 0.8617 0.0
H1860 H 0.31797 0.23701 0.74256 0.0
H1861 H 0.27888 0.28844 0.70045 0.0
C1862 C 0.28213 0.27694 0.62095 0.0
C1863 C 0.29008 0.26219 0.58596 0.0
C1864 C 0.31153 0.24824 0.76868 0.0
C1865 C 0.29603 0.2615 0.69362 0.0
C1866 C 0.31514 0.24964 0.8216 0.0
C1867 C 0.30709 0.26423 0.8565 0.0
C1868 C 0.29982 0.26162 0.75017 0.0
C1869 C 0.29531 0.27693 0.83655 0.0
C1870 C 0.28504 0.27661 0.67452 0.0
C1871 C 0.3008 0.24695 0.60687 0.0
N1872 N 0.29209 0.27544 0.78481 0.0
N1873 N 0.30348 0.24708 0.65915 0.0
H1874 H 0.96801 0.03302 0.61869 0.0
H1875 H 0.91508 0.98489 0.84074 0.0
H1876 H 0.92983 0.99216 0.58733 0.0
H1877 H 0.95029 0.03375 0.87342 0.0
H1878 H 0.92086 0.98654 0.74806 0.0
H1879 H 0.96236 0.03237 0.71224 0.0
C1880 C 0.95845 0.02388 0.63142 0.0
C1881 C 0.94935 0.01273 0.59489 0.0
C1882 C 0.92732 0.99699 0.7754 0.0
C1883 C 0.94282 0.01194 0.70201 0.0
C1884 C 0.92396 0.99621 0.8285 0.0
C1885 C 0.93212 1.00938 0.86531 0.0
C1886 C 0.93899 0.01093 0.75848 0.0
C1887 C 0.94374 0.02311 0.84676 0.0
C1888 C 0.95521 0.02362 0.68482 0.0
C1889 C 0.93706 1.00136 0.61378 0.0
N1890 N 0.94682 0.02353 0.79473 0.0
N1891 N 0.93419 1.00121 0.66585 0.0
H1892 H 0.28746 0.98151 0.40605 0.0
H1893 H 0.30708 0.03568 0.6899 0.0
H1894 H 0.32359 0.02842 0.43615 0.0
H1895 H 0.27421 0.98098 0.66231 0.0
H1896 H 0.31212 0.03608 0.59621 0.0
H1897 H 0.28117 0.98436 0.49848 0.0
C1898 C 0.29401 0.99264 0.43193 0.0
C1899 C 0.30611 1.0047 0.41308 0.0
C1900 C 0.30377 0.02406 0.61065 0.0
C1901 C 0.29902 1.00779 0.51951 0.0
C1902 C 0.30092 0.02372 0.66429 0.0
C1903 C 0.29023 1.00816 0.68446 0.0
C1904 C 0.29588 1.00879 0.57656 0.0
C1905 C 0.28243 0.99351 0.64883 0.0
C1906 C 0.29046 0.9941 0.48487 0.0
C1907 C 0.31428 0.01852 0.44889 0.0
N1908 N 0.28544 0.99413 0.59682 0.0
N1909 N 0.31059 0.01966 0.50026 0.0
H1910 H 0.95058 0.2538 0.3995 0.0
H1911 H 0.92814 0.29299 0.69085 0.0
H1912 H 0.91391 0.29812 0.4366 0.0
H1913 H 0.96653 0.25355 0.65531 0.0
H1914 H 0.92243 0.29343 0.59792 0.0
H1915 H 0.95642 0.25244 0.49263 0.0
C1916 C 0.94377 0.26333 0.42706 0.0
C1917 C 0.93169 0.27605 0.40983 0.0
C1918 C 0.9321 0.28463 0.61035 0.0
C1919 C 0.93826 0.27429 0.51693 0.0
C1920 C 0.93533 0.2842 0.66359 0.0
C1921 C 0.94782 0.27312 0.68121 0.0
C1922 C 0.9414 0.27386 0.57402 0.0
C1923 C 0.95684 0.26251 0.64363 0.0
C1924 C 0.94708 0.26242 0.48035 0.0
C1925 C 0.92319 0.28771 0.44779 0.0
N1926 N 0.95344 0.26311 0.59191 0.0
N1927 N 0.92664 0.28654 0.49931 0.0
H1928 H 0.69755 0.77236 0.15376 0.0
H1929 H 0.68113 0.71814 0.4409 0.0
H1930 H 0.66664 0.71455 0.18642 0.0
H1931 H 0.7131 0.77415 0.4097 0.0
H1932 H 0.67553 0.71722 0.34785 0.0
H1933 H 0.70344 0.77348 0.24686 0.0
C1934 C 0.69203 0.7598 0.18034 0.0
C1935 C 0.68152 0.74339 0.1619 0.0
C1936 C 0.68377 0.72974 0.36127 0.0
C1937 C 0.68816 0.7448 0.26901 0.0
C1938 C 0.68692 0.73042 0.4146 0.0
C1939 C 0.69758 0.74634 0.43351 0.0
C1940 C 0.6913 0.74512 0.32614 0.0
C1941 C 0.70489 0.76139 0.39705 0.0
C1942 C 0.69536 0.76057 0.23363 0.0
C1943 C 0.67464 0.72784 0.19863 0.0
N1944 N 0.7016 0.76045 0.34525 0.0
N1945 N 0.67807 0.72895 0.2502 0.0
H1946 H 0.07142 0.98301 0.17945 0.0
H1947 H 0.02154 0.0337 0.40822 0.0
H1948 H 0.03603 0.03228 0.15296 0.0
H1949 H 0.05406 0.97787 0.43244 0.0
H1950 H 0.02637 0.0327 0.31455 0.0
H1951 H 0.06512 0.98058 0.27202 0.0
C1952 C 0.06232 0.99332 0.19305 0.0
C1953 C 0.05428 1.00796 0.15823 0.0
C1954 C 0.03241 0.02056 0.34031 0.0
C1955 C 0.04697 1.00516 0.26443 0.0
C1956 C 0.02959 0.02098 0.39393 0.0
C1957 C 0.03741 1.00587 0.4287 0.0
C1958 C 0.04319 1.00504 0.32096 0.0
C1959 C 0.0479 0.99018 0.40751 0.0
C1960 C 0.05869 0.99181 0.24592 0.0
C1961 C 0.04247 0.02057 0.17812 0.0
N1962 N 0.05051 0.99026 0.3552 0.0
N1963 N 0.03923 0.01901 0.22984 0.0
H1964 H 0.70342 0.03419 0.62508 0.0
H1965 H 0.68406 0.97857 0.34222 0.0
H1966 H 0.66752 0.98658 0.59579 0.0
H1967 H 0.71639 0.03449 0.36868 0.0
H1968 H 0.67909 0.97834 0.43596 0.0
H1969 H 0.70969 0.03116 0.53266 0.0
C1970 C 0.69692 0.02288 0.59937 0.0
C1971 C 0.68488 0.01067 0.61842 0.0
C1972 C 0.68731 0.99058 0.42126 0.0
C1973 C 0.69195 1.00736 0.51205 0.0
C1974 C 0.69012 0.99083 0.3676 0.0
C1975 C 0.70063 1.00668 0.34711 0.0
C1976 C 0.69507 1.00624 0.45502 0.0
C1977 C 0.70831 0.02172 0.38243 0.0
C1978 C 0.70046 0.02131 0.54644 0.0
C1979 C 0.67677 0.9966 0.58286 0.0
N1980 N 0.70534 0.02118 0.43446 0.0
N1981 N 0.68044 0.99535 0.53149 0.0
H1982 H 0.02267 0.76984 0.36241 0.0
H1983 H 0.07556 0.71997 0.58298 0.0
H1984 H 0.06006 0.72674 0.32994 0.0
H1985 H 0.03975 0.76711 0.6172 0.0
H1986 H 0.06979 0.72211 0.49029 0.0
H1987 H 0.02838 0.76861 0.45576 0.0
C1988 C 0.03206 0.76007 0.37482 0.0
C1989 C 0.04091 0.74843 0.33799 0.0
C1990 C 0.06319 0.73204 0.51799 0.0
C1991 C 0.04754 0.74705 0.44504 0.0
C1992 C 0.06654 0.73097 0.57109 0.0
C1993 C 0.0582 0.7435 0.60832 0.0
C1994 C 0.05137 0.74569 0.50149 0.0
C1995 C 0.04643 0.75693 0.5902 0.0
C1996 C 0.03535 0.75948 0.42817 0.0
C1997 C 0.05302 0.73632 0.35657 0.0
N1998 N 0.04338 0.75768 0.53818 0.0
N1999 N 0.05594 0.73591 0.40861 0.0
H2000 H 0.28056 0.73844 0.10903 0.0
H2001 H 0.31951 0.81281 0.34113 0.0
H2002 H 0.30464 0.80721 0.08662 0.0
H2003 H 0.297 0.74229 0.36383 0.0
H2004 H 0.31372 0.8114 0.24827 0.0
H2005 H 0.28588 0.74002 0.20255 0.0
C2006 C 0.28691 0.75396 0.12371 0.0
C2007 C 0.29216 0.77271 0.08959 0.0
C2008 C 0.31004 0.79621 0.27349 0.0
C2009 C 0.29839 0.77452 0.19702 0.0
C2010 C 0.31341 0.79691 0.32664 0.0
C2011 C 0.30884 0.77754 0.36067 0.0
C2012 C 0.30199 0.77599 0.25374 0.0
C2013 C 0.30068 0.75778 0.33942 0.0
C2014 C 0.29001 0.75476 0.17718 0.0
C2015 C 0.3005 0.79212 0.11107 0.0
N2016 N 0.29756 0.75749 0.28743 0.0
N2017 N 0.30333 0.79253 0.16323 0.0
H2018 H 0.95205 0.48749 0.37071 0.0
H2019 H 0.93395 0.5445 0.08759 0.0
H2020 H 0.91731 0.53793 0.34137 0.0
H2021 H 0.96537 0.48691 0.11454 0.0
H2022 H 0.92885 0.54485 0.18123 0.0
H2023 H 0.95835 0.48998 0.27826 0.0
C2024 C 0.94581 0.49931 0.34499 0.0
C2025 C 0.93409 0.51249 0.36407 0.0
C2026 C 0.9369 0.53221 0.16667 0.0
C2027 C 0.9412 0.51518 0.2576 0.0
C2028 C 0.93978 0.53189 0.11305 0.0
C2029 C 0.95009 0.51555 0.09272 0.0
C2030 C 0.94437 0.51612 0.20056 0.0
C2031 C 0.95746 0.50006 0.12816 0.0
C2032 C 0.94937 0.50057 0.29203 0.0
C2033 C 0.92631 0.52716 0.32845 0.0
N2034 N 0.95443 0.50068 0.18014 0.0
N2035 N 0.92999 0.52809 0.27705 0.0
H2036 H 0.28678 0.47876 0.89652 0.0
H2037 H 0.30711 0.53175 0.18076 0.0
H2038 H 0.32338 0.52435 0.92721 0.0
H2039 H 0.27282 0.48008 0.15278 0.0
H2040 H 0.31239 0.53132 0.08731 0.0
H2041 H 0.28055 0.4815 0.98911 0.0
C2042 C 0.29346 0.48953 0.92257 0.0
C2043 C 0.30567 0.50127 0.90383 0.0
C2044 C 0.30368 0.52013 0.10158 0.0
C2045 C 0.29863 0.50428 1.01037 0.0
C2046 C 0.30069 0.52025 0.15511 0.0
C2047 C 0.28952 0.50584 0.1751 0.0
C2048 C 0.29545 0.50552 0.06739 0.0
C2049 C 0.28143 0.49175 0.1394 0.0
C2050 C 0.28994 0.49094 0.97559 0.0
C2051 C 0.31399 0.51466 0.93984 0.0
N2052 N 0.28458 0.49189 0.08748 0.0
N2053 N 0.31033 0.51578 0.99122 0.0
H2054 H 0.91427 0.74942 0.9339 0.0
H2055 H 0.96597 0.79655 0.16044 0.0
H2056 H 0.9504 0.79666 0.90577 0.0
H2057 H 0.93143 0.74525 0.18704 0.0
H2058 H 0.96076 0.79602 0.067 0.0
H2059 H 0.92053 0.74731 0.02645 0.0
C2060 C 0.92351 0.75941 0.94713 0.0
C2061 C 0.93177 0.77335 0.91178 0.0
C2062 C 0.95434 0.7848 0.09323 0.0
C2063 C 0.93907 0.77085 0.01811 0.0
C2064 C 0.95737 0.78494 0.14672 0.0
C2065 C 0.94913 0.77093 0.18208 0.0
C2066 C 0.94294 0.77062 0.07459 0.0
C2067 C 0.93796 0.75667 0.16164 0.0
C2068 C 0.92712 0.75807 1.00004 0.0
C2069 C 0.94377 0.78549 0.93131 0.0
N2070 N 0.93519 0.75695 0.10944 0.0
N2071 N 0.94701 0.78407 0.98306 0.0
H2072 H 0.70198 0.23121 0.65122 0.0
H2073 H 0.68216 0.28524 0.93511 0.0
H2074 H 0.6658 0.27803 0.68119 0.0
H2075 H 0.71524 0.23097 0.90732 0.0
H2076 H 0.67712 0.28558 0.84144 0.0
H2077 H 0.70823 0.2341 0.74364 0.0
C2078 C 0.69541 0.24233 0.67706 0.0
C2079 C 0.6833 0.25434 0.65817 0.0
C2080 C 0.68551 0.27367 0.85583 0.0
C2081 C 0.69035 0.25748 0.76463 0.0
C2082 C 0.68837 0.27336 0.90946 0.0
C2083 C 0.69912 0.25795 0.92958 0.0
C2084 C 0.69347 0.2585 0.82169 0.0
C2085 C 0.70697 0.24339 0.89389 0.0
C2086 C 0.69894 0.24381 0.73001 0.0
C2087 C 0.67511 0.26815 0.69396 0.0
N2088 N 0.70396 0.24398 0.8419 0.0
N2089 N 0.67877 0.26931 0.74535 0.0
H2090 H 0.0239 0.53622 0.90902 0.0
H2091 H 0.0737 0.48404 0.68104 0.0
H2092 H 0.05636 0.48041 0.93434 0.0
H2093 H 0.03898 0.53483 0.65417 0.0
H2094 H 0.06742 0.48218 0.77368 0.0
H2095 H 0.02896 0.53523 0.8155 0.0
C2096 C 0.03199 0.52352 0.89501 0.0
C2097 C 0.03971 0.50839 0.93005 0.0
C2098 C 0.06113 0.49364 0.74749 0.0
C2099 C 0.04575 0.50756 0.82244 0.0
C2100 C 0.06476 0.49483 0.69455 0.0
C2101 C 0.0569 0.50969 0.65954 0.0
C2102 C 0.04958 0.50751 0.76591 0.0
C2103 C 0.04528 0.52291 0.67941 0.0
C2104 C 0.03495 0.52312 0.84147 0.0
C2105 C 0.05026 0.49273 0.90921 0.0
N2106 N 0.04203 0.52161 0.73117 0.0
N2107 N 0.05299 0.49279 0.85696 0.0
H2108 H 0.66614 0.48546 0.09098 0.0
H2109 H 0.71615 0.53707 0.86307 0.0
H2110 H 0.70125 0.53527 0.11815 0.0
H2111 H 0.68347 0.48169 0.83785 0.0
H2112 H 0.71121 0.53584 0.95669 0.0
H2113 H 0.67247 0.48345 0.99841 0.0
C2114 C 0.67518 0.49599 0.07754 0.0
C2115 C 0.68313 0.51064 0.11259 0.0
C2116 C 0.70516 0.52387 0.93072 0.0
C2117 C 0.6905 0.50832 1.00632 0.0
C2118 C 0.70804 0.52441 0.87711 0.0
C2119 C 0.70021 0.5095 0.84207 0.0
C2120 C 0.69431 0.50839 0.94978 0.0
C2121 C 0.68965 0.49386 0.86297 0.0
C2122 C 0.67884 0.49472 0.02465 0.0
C2123 C 0.69488 0.52353 0.09285 0.0
N2124 N 0.68699 0.4938 0.91527 0.0
N2125 N 0.69815 0.52219 0.04112 0.0
H2126 H 0.05952 0.22288 0.83012 0.0
H2127 H 0.04005 0.27019 0.11941 0.0
H2128 H 0.02421 0.27133 0.86355 0.0
H2129 H 0.0737 0.21811 0.08444 0.0
H2130 H 0.0342 0.27154 0.02629 0.0
H2131 H 0.06517 0.22211 0.92309 0.0
C2132 C 0.053 0.23355 0.85692 0.0
C2133 C 0.04139 0.24729 0.83868 0.0
C2134 C 0.04288 0.25985 0.03903 0.0
C2135 C 0.04773 0.24621 0.94594 0.0
C2136 C 0.04619 0.25895 0.09232 0.0
C2137 C 0.05744 0.24406 0.11013 0.0
C2138 C 0.05086 0.24578 1.00304 0.0
C2139 C 0.0651 0.23022 0.07277 0.0
C2140 C 0.05618 0.23295 0.91019 0.0
C2141 C 0.03318 0.26029 0.87571 0.0
N2142 N 0.06167 0.23142 0.02123 0.0
N2143 N 0.03652 0.25947 0.92747 0.0
H2144 H 0.81178 0.28373 0.07992 0.0
H2145 H 0.78863 0.24668 0.3717 0.0
H2146 H 0.77233 0.24803 0.11581 0.0
H2147 H 0.82503 0.29174 0.33439 0.0
H2148 H 0.783 0.24465 0.27842 0.0
H2149 H 0.81745 0.28393 0.17288 0.0
C2150 C 0.80435 0.27568 0.10728 0.0
C2151 C 0.79156 0.26576 0.08977 0.0
C2152 C 0.79224 0.25492 0.29072 0.0
C2153 C 0.79796 0.26623 0.19697 0.0
C2154 C 0.79544 0.2562 0.34409 0.0
C2155 C 0.80737 0.26937 0.36134 0.0
C2156 C 0.80103 0.26682 0.2541 0.0
C2157 C 0.81587 0.28097 0.32328 0.0
C2158 C 0.80756 0.27599 0.16053 0.0
C2159 C 0.78226 0.25607 0.12745 0.0
N2160 N 0.81254 0.27942 0.2717 0.0
N2161 N 0.78565 0.25651 0.17919 0.0
H2162 H 0.41991 0.96554 0.3451 0.0
H2163 H 0.46666 0.02597 0.11604 0.0
H2164 H 0.44853 0.02807 0.3689 0.0
H2165 H 0.43693 0.96526 0.09181 0.0
H2166 H 0.46077 0.0261 0.20904 0.0
H2167 H 0.42643 0.96458 0.25283 0.0
C2168 C 0.4275 0.97921 0.33096 0.0
C2169 C 0.43359 0.99704 0.3651 0.0
C2170 C 0.45554 0.01271 0.18343 0.0
C2171 C 0.44127 0.99579 0.25894 0.0
C2172 C 0.45898 0.01249 0.13025 0.0
C2173 C 0.45231 0.99554 0.09574 0.0
C2174 C 0.44536 0.99583 0.20262 0.0
C2175 C 0.44224 0.97888 0.11661 0.0
C2176 C 0.43129 0.97853 0.27817 0.0
C2177 C 0.44362 0.01384 0.34438 0.0
N2178 N 0.43909 0.97944 0.16853 0.0
N2179 N 0.44711 0.01284 0.29275 0.0
H2180 H 0.78705 0.98466 0.90527 0.0
H2181 H 0.80637 0.03971 0.18868 0.0
H2182 H 0.82295 0.03219 0.93506 0.0
H2183 H 0.7738 0.98436 0.16153 0.0
H2184 H 0.81144 0.03995 0.09502 0.0
H2185 H 0.78076 0.98752 0.9977 0.0
C2186 C 0.79355 0.99592 0.93108 0.0
C2187 C 0.80559 1.00816 0.91216 0.0
C2188 C 0.80314 0.02782 0.10954 0.0
C2189 C 0.79849 0.01127 0.01857 0.0
C2190 C 0.80028 0.02757 0.16317 0.0
C2191 C 0.78966 0.01188 0.18345 0.0
C2192 C 0.79534 0.01233 0.07559 0.0
C2193 C 0.78196 0.997 0.14795 0.0
C2194 C 0.78999 0.99739 0.98402 0.0
C2195 C 0.81369 0.02215 0.94788 0.0
N2196 N 0.78498 0.99754 0.09595 0.0
N2197 N 0.81001 0.0233 0.99924 0.0
H2198 H 0.45383 0.24782 0.89079 0.0
H2199 H 0.42939 0.28093 0.18314 0.0
H2200 H 0.4147 0.28413 0.92911 0.0
H2201 H 0.46979 0.24917 0.14673 0.0
H2202 H 0.42368 0.28086 0.09021 0.0
H2203 H 0.45982 0.24733 0.98385 0.0
C2204 C 0.44651 0.25579 0.91861 0.0
C2205 C 0.43369 0.26595 0.90175 0.0
C2206 C 0.4338 0.27386 0.10244 0.0
C2207 C 0.44046 0.26519 1.00876 0.0
C2208 C 0.43704 0.27371 0.15568 0.0
C2209 C 0.45009 0.26491 0.17309 0.0
C2210 C 0.44364 0.2651 0.06586 0.0
C2211 C 0.45965 0.25632 0.13525 0.0
C2212 C 0.44992 0.25537 0.97185 0.0
C2213 C 0.42458 0.27567 0.94001 0.0
N2214 N 0.45623 0.25659 0.08352 0.0
N2215 N 0.42814 0.27504 0.99147 0.0
H2216 H 0.1778 0.73625 0.94459 0.0
H2217 H 0.20292 0.75235 0.64774 0.0
H2218 H 0.21947 0.7599 0.90287 0.0
H2219 H 0.15963 0.74789 0.69394 0.0
H2220 H 0.20958 0.75222 0.74005 0.0
H2221 H 0.17144 0.73657 0.852 0.0
C2222 C 0.18565 0.74133 0.91593 0.0
C2223 C 0.1992 0.74805 0.93163 0.0
C2224 C 0.19863 0.7513 0.72989 0.0
C2225 C 0.19195 0.74862 0.82528 0.0
C2226 C 0.19478 0.75155 0.67709 0.0
C2227 C 0.18064 0.75008 0.66256 0.0
C2228 C 0.1883 0.74937 0.7687 0.0
C2229 C 0.17066 0.74857 0.7028 0.0
C2230 C 0.18198 0.7417 0.86305 0.0
C2231 C 0.20887 0.75482 0.89264 0.0
N2232 N 0.17467 0.74816 0.75379 0.0
N2233 N 0.20507 0.75485 0.84132 0.0
H2234 H 0.57485 0.04845 0.68638 0.0
H2235 H 0.52251 0.99721 0.90784 0.0
H2236 H 0.53954 1.00002 0.6528 0.0
H2237 H 0.55926 0.04223 0.93941 0.0
H2238 H 0.5281 0.99866 0.81435 0.0
H2239 H 0.56894 0.04675 0.77903 0.0
C2240 C 0.5659 0.03727 0.69842 0.0
C2241 C 0.55776 0.02421 0.66141 0.0
C2242 C 0.53495 1.00817 0.84178 0.0
C2243 C 0.55077 0.02248 0.76815 0.0
C2244 C 0.53173 1.00745 0.8952 0.0
C2245 C 0.54045 0.01952 0.93182 0.0
C2246 C 0.54694 0.02116 0.82463 0.0
C2247 C 0.55234 0.03227 0.91294 0.0
C2248 C 0.56247 0.03645 0.75148 0.0
C2249 C 0.54607 1.01058 0.67965 0.0
N2250 N 0.5552 0.03278 0.86086 0.0
N2251 N 0.54295 1.01003 0.73164 0.0
H2252 H 0.21807 0.0378 0.86965 0.0
H2253 H 0.16787 0.98694 0.09755 0.0
H2254 H 0.18508 0.98308 0.84416 0.0
H2255 H 0.2034 0.03579 0.12461 0.0
H2256 H 0.17414 0.98484 1.00491 0.0
H2257 H 0.2132 0.03643 0.96326 0.0
C2258 C 0.2099 0.02524 0.88363 0.0
C2259 C 0.20197 1.01056 0.84853 0.0
C2260 C 0.18061 0.99591 0.03115 0.0
C2261 C 0.19614 1.00931 0.95625 0.0
C2262 C 0.17699 0.99723 0.08407 0.0
C2263 C 0.18508 0.01164 0.1191 0.0
C2264 C 0.19237 1.00922 0.0128 0.0
C2265 C 0.19692 0.02423 0.09933 0.0
C2266 C 0.20706 0.02462 0.93724 0.0
C2267 C 0.19134 0.99507 0.86936 0.0
N2268 N 0.20014 0.02285 0.04758 0.0
N2269 N 0.18871 0.99494 0.92168 0.0
H2270 H 0.55807 0.78434 0.83668 0.0
H2271 H 0.53844 0.73142 0.1219 0.0
H2272 H 0.52449 0.73121 0.86549 0.0
H2273 H 0.5748 0.77743 0.08968 0.0
H2274 H 0.53206 0.73385 0.0294 0.0
H2275 H 0.56335 0.78439 0.9301 0.0
C2276 C 0.55181 0.77263 0.86251 0.0
C2277 C 0.54085 0.75764 0.84276 0.0
C2278 C 0.54143 0.74345 0.04257 0.0
C2279 C 0.54677 0.75786 0.95043 0.0
C2280 C 0.54504 0.74221 0.09553 0.0
C2281 C 0.55723 0.75416 0.11379 0.0
C2282 C 0.55002 0.75683 1.00741 0.0
C2283 C 0.56543 0.76759 0.07741 0.0
C2284 C 0.5548 0.77277 0.91602 0.0
C2285 C 0.53294 0.7433 0.87868 0.0
N2286 N 0.56169 0.76854 0.02612 0.0
N2287 N 0.53608 0.74371 0.93059 0.0
H2288 H 0.77205 0.75023 0.61624 0.0
H2289 H 0.82595 0.79699 0.83612 0.0
H2290 H 0.8103 0.79061 0.58313 0.0
H2291 H 0.78913 0.75266 0.87105 0.0
H2292 H 0.82012 0.79503 0.74345 0.0
H2293 H 0.77775 0.75141 0.70959 0.0
C2294 C 0.78163 0.75939 0.62851 0.0
C2295 C 0.79072 0.77027 0.5915 0.0
C2296 C 0.81331 0.78568 0.7713 0.0
C2297 C 0.79735 0.77159 0.69856 0.0
C2298 C 0.81669 0.78664 0.82439 0.0
C2299 C 0.80809 0.77484 0.86181 0.0
C2300 C 0.8012 0.77286 0.75501 0.0
C2301 C 0.79603 0.76226 0.84389 0.0
C2302 C 0.78491 0.75995 0.68186 0.0
C2303 C 0.80306 0.78161 0.60991 0.0
N2304 N 0.79296 0.76158 0.79188 0.0
N2305 N 0.80598 0.78201 0.66195 0.0
H2306 H 0.45251 0.48036 0.87434 0.0
H2307 H 0.43397 0.53429 0.58902 0.0
H2308 H 0.41696 0.52837 0.84196 0.0
H2309 H 0.46625 0.47852 0.61778 0.0
H2310 H 0.42876 0.53492 0.68251 0.0
H2311 H 0.45898 0.48239 0.78186 0.0
C2312 C 0.44612 0.49151 0.84793 0.0
C2313 C 0.43412 0.50412 0.86613 0.0
C2314 C 0.43702 0.52259 0.6684 0.0
C2315 C 0.44143 0.50635 0.75979 0.0
C2316 C 0.43997 0.52212 0.61485 0.0
C2317 C 0.45054 0.5062 0.59506 0.0
C2318 C 0.44469 0.5071 0.70281 0.0
C2319 C 0.45812 0.49131 0.63099 0.0
C2320 C 0.44978 0.49252 0.795 0.0
C2321 C 0.42617 0.51802 0.82973 0.0
N2322 N 0.45502 0.49207 0.68294 0.0
N2323 N 0.42995 0.51873 0.77845 0.0
H2324 H 0.784 0.48832 0.39596 0.0
H2325 H 0.80341 0.54286 0.6797 0.0
H2326 H 0.81998 0.53563 0.4261 0.0
H2327 H 0.77085 0.48751 0.65237 0.0
H2328 H 0.80843 0.54329 0.58601 0.0
H2329 H 0.77771 0.49108 0.48841 0.0
C2330 C 0.79052 0.49952 0.42186 0.0
C2331 C 0.80258 0.51171 0.40303 0.0
C2332 C 0.80015 0.53112 0.6005 0.0
C2333 C 0.79547 0.51471 0.50944 0.0
C2334 C 0.79731 0.53076 0.65414 0.0
C2335 C 0.78672 0.51501 0.67439 0.0
C2336 C 0.79233 0.51568 0.56649 0.0
C2337 C 0.779 0.50019 0.63882 0.0
C2338 C 0.78696 0.50093 0.4748 0.0
C2339 C 0.8107 0.52562 0.43884 0.0
N2340 N 0.78199 0.50084 0.5868 0.0
N2341 N 0.80701 0.52671 0.49021 0.0
H2342 H 0.46662 0.748 0.65985 0.0
H2343 H 0.416 0.80192 0.4357 0.0
H2344 H 0.4322 0.79915 0.6893 0.0
H2345 H 0.44958 0.74897 0.40563 0.0
H2346 H 0.42203 0.80146 0.52836 0.0
H2347 H 0.46097 0.74886 0.56661 0.0
C2348 C 0.45792 0.75956 0.64679 0.0
C2349 C 0.44988 0.77353 0.68283 0.0
C2350 C 0.42809 0.78992 0.50156 0.0
C2351 C 0.44325 0.77436 0.57567 0.0
C2352 C 0.42459 0.79002 0.4485 0.0
C2353 C 0.43221 0.77533 0.41243 0.0
C2354 C 0.43934 0.77503 0.51917 0.0
C2355 C 0.44345 0.7608 0.43164 0.0
C2356 C 0.45465 0.7599 0.59346 0.0
C2357 C 0.4386 0.7878 0.66333 0.0
N2358 N 0.44664 0.76099 0.48357 0.0
N2359 N 0.43564 0.78785 0.61126 0.0
H2360 H 0.16396 0.2372 0.17795 0.0
H2361 H 0.21907 0.27755 0.39852 0.0
H2362 H 0.20155 0.27948 0.14374 0.0
H2363 H 0.17887 0.24401 0.43126 0.0
H2364 H 0.21333 0.27756 0.30509 0.0
H2365 H 0.16962 0.23901 0.27067 0.0
C2366 C 0.17334 0.24714 0.18981 0.0
C2367 C 0.18222 0.25836 0.15252 0.0
C2368 C 0.20575 0.2703 0.33278 0.0
C2369 C 0.18895 0.26003 0.2595 0.0
C2370 C 0.20905 0.27017 0.38614 0.0
C2371 C 0.19943 0.26083 0.42303 0.0
C2372 C 0.19279 0.26082 0.31598 0.0
C2373 C 0.18655 0.25175 0.40454 0.0
C2374 C 0.17662 0.24799 0.24297 0.0
C2375 C 0.19443 0.27033 0.17073 0.0
N2376 N 0.18364 0.2519 0.3525 0.0
N2377 N 0.19744 0.27082 0.22281 0.0
H2378 H 0.52114 0.54067 0.40692 0.0
H2379 H 0.57453 0.49684 0.18275 0.0
H2380 H 0.55719 0.49327 0.43553 0.0
H2381 H 0.53689 0.53948 0.15178 0.0
H2382 H 0.56824 0.49521 0.27529 0.0
H2383 H 0.52646 0.53987 0.31347 0.0
C2384 C 0.5301 0.52987 0.39367 0.0
C2385 C 0.53872 0.51705 0.42961 0.0
C2386 C 0.56133 0.50487 0.24828 0.0
C2387 C 0.54502 0.51644 0.32211 0.0
C2388 C 0.56495 0.50594 0.19535 0.0
C2389 C 0.55628 0.51845 0.15917 0.0
C2390 C 0.54894 0.51647 0.2656 0.0
C2391 C 0.54387 0.52944 0.17797 0.0
C2392 C 0.53318 0.52958 0.34017 0.0
C2393 C 0.55034 0.5038 0.40972 0.0
N2394 N 0.54061 0.52831 0.22979 0.0
N2395 N 0.55315 0.5039 0.35752 0.0
H2396 H 0.18008 0.53056 0.32448 0.0
H2397 H 0.20627 0.51891 0.62101 0.0
H2398 H 0.22211 0.50862 0.36476 0.0
H2399 H 0.16284 0.52233 0.57656 0.0
H2400 H 0.21265 0.51754 0.52834 0.0
H2401 H 0.17405 0.5309 0.41733 0.0
C2402 C 0.18808 0.52595 0.35285 0.0
C2403 C 0.20165 0.51959 0.33656 0.0
C2404 C 0.20173 0.51855 0.53897 0.0
C2405 C 0.19475 0.5198 0.44353 0.0
C2406 C 0.19804 0.51917 0.59202 0.0
C2407 C 0.18394 0.52084 0.6072 0.0
C2408 C 0.19129 0.51978 0.50049 0.0
C2409 C 0.17384 0.52157 0.56727 0.0
C2410 C 0.18459 0.52597 0.40595 0.0
C2411 C 0.21149 0.51342 0.37536 0.0
N2412 N 0.17771 0.52114 0.51605 0.0
N2413 N 0.20787 0.51379 0.42695 0.0
H2414 H 0.519 0.24184 0.36553 0.0
H2415 H 0.57863 0.25232 0.58314 0.0
H2416 H 0.56176 0.26169 0.33078 0.0
H2417 H 0.53471 0.2503 0.62082 0.0
H2418 H 0.5727 0.25354 0.4905 0.0
H2419 H 0.52457 0.24276 0.45876 0.0
C2420 C 0.52954 0.2466 0.37727 0.0
C2421 C 0.53991 0.25165 0.33968 0.0
C2422 C 0.56435 0.25291 0.51903 0.0
C2423 C 0.54641 0.25223 0.447 0.0
C2424 C 0.56773 0.25238 0.57218 0.0
C2425 C 0.55718 0.25131 0.61042 0.0
C2426 C 0.55031 0.25214 0.50346 0.0
C2427 C 0.54324 0.25076 0.59311 0.0
C2428 C 0.53272 0.24696 0.43069 0.0
C2429 C 0.55343 0.25719 0.35786 0.0
N2430 N 0.54023 0.25113 0.54104 0.0
N2431 N 0.55628 0.25724 0.41 0.0
H2432 H 0.28463 0.4322 0.47186 0.0
H2433 H 0.33085 0.34203 0.28499 0.0
H2434 H 0.32958 0.42969 0.47031 0.0
H2435 H 0.28593 0.33778 0.28729 0.0
H2436 H 0.33001 0.37508 0.35164 0.0
H2437 H 0.28427 0.39886 0.40369 0.0
C2438 C 0.29441 0.42475 0.45709 0.0
C2439 C 0.30717 0.4339 0.47674 0.0
C2440 C 0.32028 0.36701 0.33787 0.0
C2441 C 0.30683 0.39564 0.39905 0.0
C2442 C 0.32075 0.34806 0.29953 0.0
C2443 C 0.30845 0.33694 0.28045 0.0
C2444 C 0.30737 0.3753 0.35772 0.0
C2445 C 0.29569 0.34569 0.30107 0.0
C2446 C 0.29419 0.40565 0.41831 0.0
C2447 C 0.31949 0.4233 0.45651 0.0
N2448 N 0.29547 0.36435 0.33857 0.0
N2449 N 0.31901 0.40492 0.419 0.0
H2450 H 0.90867 0.84797 0.4802 0.0
H2451 H 0.95506 0.94 0.29729 0.0
H2452 H 0.95362 0.8449 0.48057 0.0
H2453 H 0.91012 0.93669 0.29684 0.0
H2454 H 0.95537 0.90619 0.36468 0.0
H2455 H 0.90956 0.88125 0.41381 0.0
C2456 C 0.91877 0.8543 0.46627 0.0
C2457 C 0.93108 0.84346 0.48599 0.0
C2458 C 0.94546 0.91291 0.34975 0.0
C2459 C 0.93222 0.88205 0.40916 0.0
C2460 C 0.94528 0.93225 0.31139 0.0
C2461 C 0.93254 0.94133 0.29144 0.0
C2462 C 0.93281 0.90259 0.36824 0.0
C2463 C 0.9202 0.93039 0.31089 0.0
C2464 C 0.91928 0.87338 0.42811 0.0
C2465 C 0.94386 0.85256 0.4662 0.0
N2466 N 0.92066 0.91179 0.34796 0.0
N2467 N 0.94411 0.87133 0.42892 0.0
H2468 H 0.28533 0.93189 0.98225 0.0
H2469 H 0.33112 0.83782 0.8018 0.0
H2470 H 0.33013 0.92517 0.98761 0.0
H2471 H 0.28619 0.83871 0.79498 0.0
H2472 H 0.33041 0.87022 0.86995 0.0
H2473 H 0.2848 0.89848 0.91413 0.0
C2474 C 0.29503 0.92346 0.96911 0.0
C2475 C 0.3078 0.9315 0.99059 0.0
C2476 C 0.32065 0.86339 0.85389 0.0
C2477 C 0.30729 0.89319 0.913 0.0
C2478 C 0.32106 0.84483 0.81473 0.0
C2479 C 0.3087 0.83537 0.79264 0.0
C2480 C 0.30776 0.87297 0.87144 0.0
C2481 C 0.29598 0.84525 0.81126 0.0
C2482 C 0.29473 0.90435 0.93033 0.0
C2483 C 0.32003 0.9197 0.97235 0.0
N2484 N 0.29582 0.86354 0.84949 0.0
N2485 N 0.31946 0.90134 0.93484 0.0
H2486 H 0.95473 0.44011 0.79322 0.0
H2487 H 0.90923 0.34607 0.97482 0.0
H2488 H 0.90987 0.43433 0.79039 0.0
H2489 H 0.95419 0.34515 0.97682 0.0
H2490 H 0.9098 0.3791 0.90789 0.0
H2491 H 0.95536 0.40631 0.86057 0.0
C2492 C 0.94504 0.4318 0.80676 0.0
C2493 C 0.93222 0.4402 0.78619 0.0
C2494 C 0.9196 0.37175 0.92265 0.0
C2495 C 0.93285 0.40148 0.86298 0.0
C2496 C 0.91927 0.35282 0.96112 0.0
C2497 C 0.93168 0.34266 0.98149 0.0
C2498 C 0.93245 0.38099 0.90405 0.0
C2499 C 0.94437 0.35227 0.96195 0.0
C2500 C 0.9454 0.41247 0.84511 0.0
C2501 C 0.92 0.42857 0.80495 0.0
N2502 N 0.94444 0.37092 0.9244 0.0
N2503 N 0.92063 0.40999 0.84206 0.0
H2504 H 0.70442 0.67876 0.72866 0.0
H2505 H 0.65867 0.58951 0.53874 0.0
H2506 H 0.65948 0.67793 0.72238 0.0
H2507 H 0.70357 0.58497 0.54291 0.0
H2508 H 0.65936 0.62273 0.60499 0.0
H2509 H 0.70496 0.64558 0.6602 0.0
C2510 C 0.69469 0.67175 0.71269 0.0
C2511 C 0.68188 0.6813 0.73113 0.0
C2512 C 0.66912 0.61457 0.59171 0.0
C2513 C 0.68241 0.64318 0.65325 0.0
C2514 C 0.66873 0.59551 0.55361 0.0
C2515 C 0.68108 0.58425 0.5352 0.0
C2516 C 0.68197 0.6228 0.61204 0.0
C2517 C 0.69378 0.59297 0.5562 0.0
C2518 C 0.695 0.65273 0.67379 0.0
C2519 C 0.6696 0.67121 0.70953 0.0
N2520 N 0.69391 0.61172 0.59351 0.0
N2521 N 0.67018 0.65286 0.67199 0.0
H2522 H 0.03361 0.08162 0.72722 0.0
H2523 H 0.07943 0.17624 0.54797 0.0
H2524 H 0.07843 0.08815 0.73246 0.0
H2525 H 0.03448 0.17666 0.54349 0.0
H2526 H 0.07871 0.14329 0.61503 0.0
H2527 H 0.03309 0.11544 0.65986 0.0
C2528 C 0.04332 0.09009 0.71421 0.0
C2529 C 0.05609 0.0819 0.73546 0.0
C2530 C 0.06894 0.15051 0.59971 0.0
C2531 C 0.05558 0.12064 0.65869 0.0
C2532 C 0.06936 0.1694 0.56117 0.0
C2533 C 0.057 0.17939 0.54005 0.0
C2534 C 0.05605 0.14114 0.61763 0.0
C2535 C 0.04427 0.16967 0.55897 0.0
C2536 C 0.04301 0.10944 0.67586 0.0
C2537 C 0.06833 0.09374 0.71736 0.0
N2538 N 0.04411 0.15106 0.5966 0.0
N2539 N 0.06776 0.11231 0.68025 0.0
H2540 H 0.70537 0.08357 0.04866 0.0
H2541 H 0.6593 0.1768 0.22955 0.0
H2542 H 0.66051 0.08923 0.04518 0.0
H2543 H 0.70423 0.1807 0.22864 0.0
H2544 H 0.66021 0.14344 0.16371 0.0
H2545 H 0.7059 0.11759 0.1156 0.0
C2546 C 0.69566 0.09189 0.06197 0.0
C2547 C 0.68287 0.08342 0.04128 0.0
C2548 C 0.66993 0.15149 0.17758 0.0
C2549 C 0.68338 0.12234 0.11762 0.0
C2550 C 0.66941 0.17063 0.21547 0.0
C2551 C 0.6817 0.18173 0.23477 0.0
C2552 C 0.68286 0.14295 0.15839 0.0
C2553 C 0.69448 0.17279 0.21471 0.0
C2554 C 0.69596 0.11135 0.10006 0.0
C2555 C 0.67062 0.09504 0.05979 0.0
N2556 N 0.69474 0.1539 0.17766 0.0
N2557 N 0.6712 0.11369 0.09666 0.0
H2558 H 0.03453 0.67664 0.04262 0.0
H2559 H 0.08057 0.58718 0.23154 0.0
H2560 H 0.07948 0.67436 0.04529 0.0
H2561 H 0.03565 0.58309 0.22949 0.0
H2562 H 0.07977 0.62008 0.16454 0.0
H2563 H 0.03408 0.64363 0.1116 0.0
C2564 C 0.04429 0.66931 0.05782 0.0
C2565 C 0.05707 0.67843 0.03824 0.0
C2566 C 0.07004 0.61209 0.17843 0.0
C2567 C 0.05664 0.64055 0.1168 0.0
C2568 C 0.07049 0.59322 0.21698 0.0
C2569 C 0.05817 0.58217 0.2362 0.0
C2570 C 0.05714 0.62035 0.15849 0.0
C2571 C 0.04542 0.59093 0.21557 0.0
C2572 C 0.04402 0.65041 0.09705 0.0
C2573 C 0.06937 0.66799 0.05901 0.0
N2574 N 0.04523 0.6095 0.17782 0.0
N2575 N 0.06884 0.64979 0.09692 0.0
H2576 H 0.82767 0.43437 0.9763 0.0
H2577 H 0.78305 0.3401 0.79286 0.0
H2578 H 0.78273 0.43748 0.97253 0.0
H2579 H 0.82787 0.34695 0.7917 0.0
H2580 H 0.78198 0.37408 0.85982 0.0
H2581 H 0.82726 0.40095 0.91057 0.0
C2582 C 0.81765 0.42801 0.96161 0.0
C2583 C 0.80522 0.43892 0.98008 0.0
C2584 C 0.79203 0.3681 0.84479 0.0
C2585 C 0.80464 0.40005 0.90378 0.0
C2586 C 0.79264 0.34867 0.80669 0.0
C2587 C 0.80558 0.34055 0.78664 0.0
C2588 C 0.80444 0.37942 0.863 0.0
C2589 C 0.81765 0.35248 0.8058 0.0
C2590 C 0.81743 0.40883 0.92378 0.0
C2591 C 0.79258 0.42973 0.95925 0.0
N2592 N 0.81678 0.37111 0.84266 0.0
N2593 N 0.79261 0.41081 0.92226 0.0
H2594 H 0.42982 0.90134 0.73461 0.0
H2595 H 0.43315 0.86676 0.0392 0.0
H2596 H 0.44021 0.95717 0.85178 0.0
H2597 H 0.43454 0.81007 0.91763 0.0
H2598 H 0.43466 0.90046 0.97229 0.0
H2599 H 0.43045 0.86794 0.80163 0.0
C2600 C 0.43234 0.90654 0.7745 0.0
C2601 C 0.43515 0.93204 0.78753 0.0
C2602 C 0.43482 0.88065 0.96022 0.0
C2603 C 0.43565 0.89387 0.86497 0.0
C2604 C 0.43396 0.86145 0.99837 0.0
C2605 C 0.43406 0.83564 0.98383 0.0
C2606 C 0.43547 0.87398 0.907 0.0
C2607 C 0.43485 0.82972 0.93046 0.0
C2608 C 0.43272 0.88745 0.81277 0.0
C2609 C 0.43827 0.9377 0.83989 0.0
N2610 N 0.43545 0.8487 0.894 0.0
N2611 N 0.43833 0.91883 0.87678 0.0
H2612 H 0.78477 0.84164 0.29485 0.0
H2613 H 0.83046 0.93166 0.48347 0.0
H2614 H 0.82971 0.84429 0.29747 0.0
H2615 H 0.78553 0.93526 0.48084 0.0
H2616 H 0.82983 0.8988 0.41638 0.0
H2617 H 0.78423 0.87479 0.36337 0.0
C2618 C 0.79451 0.84909 0.30994 0.0
C2619 C 0.80731 0.84002 0.29051 0.0
C2620 C 0.82005 0.90669 0.43018 0.0
C2621 C 0.80678 0.87807 0.36857 0.0
C2622 C 0.82041 0.92553 0.46876 0.0
C2623 C 0.80803 0.93641 0.48786 0.0
C2624 C 0.8072 0.89829 0.41012 0.0
C2625 C 0.79534 0.92754 0.46704 0.0
C2626 C 0.79419 0.86807 0.34891 0.0
C2627 C 0.81959 0.85061 0.31111 0.0
N2628 N 0.79524 0.909 0.42931 0.0
N2629 N 0.81901 0.8689 0.3488 0.0
H2630 H 0.4552 0.33553 0.47354 0.0
H2631 H 0.40903 0.4288 0.29304 0.0
H2632 H 0.41024 0.3376 0.47216 0.0
H2633 H 0.45398 0.43161 0.29385 0.0
H2634 H 0.40973 0.39479 0.35798 0.0
H2635 H 0.45549 0.36987 0.4075 0.0
C2636 C 0.44541 0.34312 0.45925 0.0
C2637 C 0.43267 0.33355 0.47827 0.0
C2638 C 0.41949 0.40277 0.34421 0.0
C2639 C 0.43291 0.37293 0.40306 0.0
C2640 C 0.41909 0.42225 0.30692 0.0
C2641 C 0.43146 0.43322 0.288 0.0
C2642 C 0.43238 0.39386 0.36306 0.0
C2643 C 0.44418 0.42384 0.30762 0.0
C2644 C 0.44557 0.36277 0.42168 0.0
C2645 C 0.42031 0.34431 0.45874 0.0
N2646 N 0.44432 0.40471 0.34405 0.0
N2647 N 0.42075 0.36327 0.4224 0.0
H2648 H 0.17877 0.62314 0.98214 0.0
H2649 H 0.1797 0.651 0.2901 0.0
H2650 H 0.18666 0.56477 0.09669 0.0
H2651 H 0.18421 0.7105 0.17535 0.0
H2652 H 0.18057 0.61903 0.21999 0.0
H2653 H 0.17911 0.6554 0.05193 0.0
C2654 C 0.18066 0.61716 0.02207 0.0
C2655 C 0.18293 0.59131 0.03378 0.0
C2656 C 0.18151 0.63906 0.21003 0.0
C2657 C 0.18308 0.628 0.11401 0.0
C2658 C 0.18099 0.6573 0.25002 0.0
C2659 C 0.18222 0.68337 0.2384 0.0
C2660 C 0.18292 0.64696 0.15772 0.0
C2661 C 0.1837 0.69053 0.18587 0.0
C2662 C 0.18087 0.63556 0.06186 0.0
C2663 C 0.18522 0.58457 0.08612 0.0
N2664 N 0.18392 0.67248 0.14742 0.0
N2665 N 0.18515 0.60271 0.12433 0.0
H2666 H 0.53517 0.08929 0.22836 0.0
H2667 H 0.58065 0.18386 0.04784 0.0
H2668 H 0.58011 0.09248 0.22674 0.0
H2669 H 0.53572 0.18221 0.04157 0.0
H2670 H 0.58018 0.15057 0.11438 0.0
H2671 H 0.53463 0.12311 0.16123 0.0
C2672 C 0.54491 0.09699 0.21374 0.0
C2673 C 0.55771 0.08785 0.23301 0.0
C2674 C 0.57037 0.15742 0.09875 0.0
C2675 C 0.55718 0.12676 0.15667 0.0
C2676 C 0.57064 0.1765 0.06055 0.0
C2677 C 0.5582 0.18602 0.03915 0.0
C2678 C 0.55755 0.14745 0.11605 0.0
C2679 C 0.54556 0.17566 0.05739 0.0
C2680 C 0.54459 0.11636 0.17556 0.0
C2681 C 0.56999 0.09882 0.21313 0.0
N2682 N 0.54555 0.15694 0.09474 0.0
N2683 N 0.56941 0.11754 0.17628 0.0
H2684 H 0.16092 0.09157 0.54413 0.0
H2685 H 0.20622 0.18651 0.72368 0.0
H2686 H 0.20583 0.08754 0.54792 0.0
H2687 H 0.16134 0.18104 0.72454 0.0
H2688 H 0.20703 0.15179 0.65829 0.0
H2689 H 0.16155 0.1256 0.6085 0.0
C2690 C 0.17097 0.09785 0.55854 0.0
C2691 C 0.18334 0.08653 0.54047 0.0
C2692 C 0.19703 0.15823 0.67292 0.0
C2693 C 0.18418 0.12608 0.61518 0.0
C2694 C 0.19656 0.17808 0.71013 0.0
C2695 C 0.18368 0.18681 0.72962 0.0
C2696 C 0.18453 0.14711 0.65505 0.0
C2697 C 0.17152 0.17505 0.71084 0.0
C2698 C 0.17133 0.11738 0.59559 0.0
C2699 C 0.19603 0.09563 0.5609 0.0
N2700 N 0.17225 0.15601 0.67484 0.0
N2701 N 0.19614 0.1149 0.59712 0.0
H2702 H 0.53511 0.58967 0.72844 0.0
H2703 H 0.58175 0.68089 0.54474 0.0
H2704 H 0.58007 0.5906 0.72584 0.0
H2705 H 0.5368 0.68365 0.54387 0.0
H2706 H 0.58086 0.64738 0.6108 0.0
H2707 H 0.53497 0.62337 0.66097 0.0
C2708 C 0.54493 0.59685 0.71354 0.0
C2709 C 0.55762 0.58714 0.73268 0.0
C2710 C 0.57114 0.65524 0.59643 0.0
C2711 C 0.55757 0.62586 0.65589 0.0
C2712 C 0.57165 0.67444 0.5585 0.0
C2713 C 0.55934 0.68526 0.53878 0.0
C2714 C 0.5582 0.64647 0.61516 0.0
C2715 C 0.54656 0.67601 0.55828 0.0
C2716 C 0.54486 0.61615 0.67517 0.0
C2717 C 0.57003 0.59742 0.71239 0.0
N2718 N 0.54632 0.65717 0.59536 0.0
N2719 N 0.56968 0.61606 0.67533 0.0
H2720 H 0.30695 0.21088 0.12205 0.0
H2721 H 0.30681 0.05796 0.1474 0.0
H2722 H 0.2976 0.1715 0.26596 0.0
H2723 H 0.29829 0.09732 1.00279 0.0
H2724 H 0.30878 0.09954 0.1917 0.0
H2725 H 0.30911 0.1693 0.07783 0.0
C2726 C 0.30556 0.19349 0.14444 0.0
C2727 C 0.30204 0.19458 0.19763 0.0
C2728 C 0.30662 0.09902 0.15015 0.0
C2729 C 0.30459 0.14712 0.14766 0.0
C2730 C 0.30558 0.07534 0.12488 0.0
C2731 C 0.30234 0.07425 0.07145 0.0
C2732 C 0.30466 0.12171 0.12154 0.0
C2733 C 0.30073 0.09734 0.04413 0.0
C2734 C 0.30672 0.16982 0.11921 0.0
C2735 C 0.30025 0.17149 0.2248 0.0
N2736 N 0.30192 0.12009 0.06939 0.0
N2737 N 0.30156 0.14874 0.19959 0.0
H2738 H 0.94395 0.17835 1.00373 0.0
H2739 H 0.94452 0.10667 0.27594 0.0
H2740 H 0.93549 0.21813 0.14779 0.0
H2741 H 0.93482 0.06747 0.13235 0.0
H2742 H 0.94231 0.14761 0.23029 0.0
H2743 H 0.94169 0.13762 0.04984 0.0
C2744 C 0.94149 0.17849 0.04508 0.0
C2745 C 0.93991 0.20165 0.07201 0.0
C2746 C 0.9405 0.13009 0.20886 0.0
C2747 C 0.93756 0.15499 0.12533 0.0
C2748 C 0.9418 0.10671 0.23482 0.0
C2749 C 0.93985 0.08365 0.20785 0.0
C2750 C 0.93755 0.13048 0.15512 0.0
C2751 C 0.93635 0.08481 0.15463 0.0
C2752 C 0.94016 0.15521 0.07133 0.0
C2753 C 0.93672 0.2007 0.12555 0.0
N2754 N 0.9355 0.10783 0.12982 0.0
N2755 N 0.93585 0.17774 0.15065 0.0
H2756 H 0.68412 0.95725 0.88302 0.0
H2757 H 0.68512 0.8041 0.9029 0.0
H2758 H 0.69321 0.91721 0.02636 0.0
H2759 H 0.69425 0.84521 0.76085 0.0
H2760 H 0.6827 0.84523 0.94898 0.0
H2761 H 0.6824 0.91594 0.83768 0.0
C2762 C 0.68554 0.93977 0.90505 0.0
C2763 C 0.68886 0.94061 0.95842 0.0
C2764 C 0.6851 0.84517 0.90759 0.0
C2765 C 0.68682 0.8934 0.90711 0.0
C2766 C 0.68641 0.82175 0.88133 0.0
C2767 C 0.68996 0.8213 0.82811 0.0
C2768 C 0.68708 0.8682 0.88012 0.0
C2769 C 0.6916 0.84472 0.802 0.0
C2770 C 0.68463 0.91623 0.87918 0.0
C2771 C 0.69069 0.91739 0.98508 0.0
N2772 N 0.69013 0.86716 0.82815 0.0
N2773 N 0.68964 0.89476 0.95923 0.0
H2774 H 0.05493 0.9555 0.89251 0.0
H2775 H 0.05432 0.80243 0.87048 0.0
H2776 H 0.04561 0.91586 0.74905 0.0
H2777 H 0.0457 0.84279 0.01375 0.0
H2778 H 0.05647 0.84377 0.82498 0.0
H2779 H 0.0569 0.91405 0.93733 0.0
C2780 C 0.05351 0.93808 0.87034 0.0
C2781 C 0.05005 0.93907 0.81709 0.0
C2782 C 0.05424 0.8435 0.8665 0.0
C2783 C 0.05238 0.89171 0.8678 0.0
C2784 C 0.0531 0.81996 0.89244 0.0
C2785 C 0.04977 0.81924 0.94585 0.0
C2786 C 0.05231 0.86639 0.89445 0.0
C2787 C 0.04819 0.84251 0.97245 0.0
C2788 C 0.05456 0.91446 0.89591 0.0
C2789 C 0.04822 0.91592 0.79024 0.0
N2790 N 0.04949 0.86509 0.94658 0.0
N2791 N 0.04941 0.89322 0.8158 0.0
H2792 H 0.30474 0.71186 0.61905 0.0
H2793 H 0.30463 0.55865 0.64231 0.0
H2794 H 0.2964 0.6718 0.76302 0.0
H2795 H 0.29495 0.59844 0.49925 0.0
H2796 H 0.30711 0.60015 0.68672 0.0
H2797 H 0.30662 0.67039 0.57387 0.0
C2798 C 0.30353 0.69437 0.64123 0.0
C2799 C 0.30034 0.69523 0.69474 0.0
C2800 C 0.30457 0.59974 0.64546 0.0
C2801 C 0.3026 0.64792 0.64374 0.0
C2802 C 0.30323 0.57609 0.62014 0.0
C2803 C 0.29951 0.57514 0.56715 0.0
C2804 C 0.30243 0.62254 0.61732 0.0
C2805 C 0.29774 0.59833 0.54027 0.0
C2806 C 0.30453 0.67075 0.61548 0.0
C2807 C 0.29878 0.67199 0.72163 0.0
N2808 N 0.29922 0.62103 0.56554 0.0
N2809 N 0.29993 0.64935 0.69595 0.0
H2810 H 0.94261 0.67886 0.50449 0.0
H2811 H 0.94305 0.60579 0.77511 0.0
H2812 H 0.93423 0.71791 0.64947 0.0
H2813 H 0.93359 0.56732 0.63046 0.0
H2814 H 0.94079 0.64695 0.73042 0.0
H2815 H 0.94026 0.6379 0.54965 0.0
C2816 C 0.94014 0.67878 0.54584 0.0
C2817 C 0.93862 0.70181 0.57332 0.0
C2818 C 0.93904 0.62955 0.70854 0.0
C2819 C 0.93617 0.65488 0.62554 0.0
C2820 C 0.94037 0.60604 0.73396 0.0
C2821 C 0.93851 0.58312 0.7064 0.0
C2822 C 0.93614 0.63022 0.65477 0.0
C2823 C 0.93505 0.58455 0.65318 0.0
C2824 C 0.93877 0.65538 0.57155 0.0
C2825 C 0.93543 0.70059 0.62682 0.0
N2826 N 0.93417 0.6077 0.62891 0.0
N2827 N 0.93451 0.6775 0.65139 0.0
H2828 H 0.69263 0.41882 0.52223 0.0
H2829 H 0.6918 0.34745 0.24972 0.0
H2830 H 0.68307 0.45835 0.37876 0.0
H2831 H 0.68334 0.30775 0.39401 0.0
H2832 H 0.68971 0.38822 0.29585 0.0
H2833 H 0.69037 0.37799 0.47636 0.0
C2834 C 0.68994 0.41887 0.4811 0.0
C2835 C 0.68803 0.44198 0.45422 0.0
C2836 C 0.68815 0.37064 0.31736 0.0
C2837 C 0.68567 0.39529 0.40124 0.0
C2838 C 0.68937 0.34735 0.2911 0.0
C2839 C 0.68773 0.32421 0.31811 0.0
C2840 C 0.68559 0.37085 0.37141 0.0
C2841 C 0.68461 0.32518 0.3717 0.0
C2842 C 0.68861 0.39556 0.455 0.0
C2843 C 0.68456 0.44095 0.40096 0.0
N2844 N 0.68384 0.34812 0.39678 0.0
N2845 N 0.68368 0.41799 0.37602 0.0
H2846 H 0.05438 0.30306 0.37125 0.0
H2847 H 0.05624 0.4561 0.3932 0.0
H2848 H 0.04543 0.34367 0.51394 0.0
H2849 H 0.04691 0.41671 0.24945 0.0
H2850 H 0.05774 0.41459 0.43809 0.0
H2851 H 0.05705 0.34433 0.32587 0.0
C2852 C 0.05318 0.32063 0.39311 0.0
C2853 C 0.04962 0.32 0.4463 0.0
C2854 C 0.05551 0.41507 0.39659 0.0
C2855 C 0.05278 0.36708 0.39507 0.0
C2856 C 0.05473 0.43872 0.37097 0.0
C2857 C 0.05139 0.4398 0.31763 0.0
C2858 C 0.05318 0.39238 0.36842 0.0
C2859 C 0.04943 0.4167 0.29072 0.0
C2860 C 0.05463 0.34413 0.36724 0.0
C2861 C 0.0481 0.34332 0.4728 0.0
N2862 N 0.05036 0.39397 0.31631 0.0
N2863 N 0.0497 0.36586 0.44701 0.0
H2864 H 0.80601 0.06141 0.64801 0.0
H2865 H 0.80555 0.21447 0.62705 0.0
H2866 H 0.79623 0.10166 0.50557 0.0
H2867 H 0.79742 0.17406 0.7708 0.0
H2868 H 0.80748 0.17321 0.58146 0.0
H2869 H 0.80817 0.10269 0.69331 0.0
C2870 C 0.80452 0.07893 0.62617 0.0
C2871 C 0.80088 0.07817 0.57307 0.0
C2872 C 0.80542 0.17343 0.6231 0.0
C2873 C 0.80345 0.1253 0.62428 0.0
C2874 C 0.8044 0.19693 0.64911 0.0
C2875 C 0.80128 0.19762 0.70268 0.0
C2876 C 0.80355 0.15053 0.65112 0.0
C2877 C 0.79977 0.17434 0.72939 0.0
C2878 C 0.80568 0.10244 0.65201 0.0
C2879 C 0.79897 0.10142 0.54663 0.0
N2880 N 0.80093 0.15178 0.70341 0.0
N2881 N 0.80029 0.12401 0.57242 0.0
H2882 H 0.44847 0.16927 0.49141 0.0
H2883 H 0.44107 0.09764 0.76243 0.0
H2884 H 0.43427 0.20712 0.63126 0.0
H2885 H 0.44116 0.0567 0.61632 0.0
H2886 H 0.43828 0.13769 0.71485 0.0
H2887 H 0.44576 0.128 0.53526 0.0
C2888 C 0.44466 0.16887 0.53129 0.0
C2889 C 0.44164 0.19168 0.55785 0.0
C2890 C 0.4387 0.12 0.69302 0.0
C2891 C 0.43866 0.14442 0.60852 0.0
C2892 C 0.4403 0.09709 0.72017 0.0
C2893 C 0.44134 0.07384 0.69323 0.0
C2894 C 0.43848 0.11987 0.63818 0.0
C2895 C 0.44029 0.07422 0.63853 0.0
C2896 C 0.44307 0.14527 0.5562 0.0
C2897 C 0.43669 0.19002 0.60935 0.0
N2898 N 0.43915 0.09696 0.61267 0.0
N2899 N 0.43553 0.16683 0.63322 0.0
H2900 H 0.18169 0.95928 0.39118 0.0
H2901 H 0.18761 0.80629 0.41142 0.0
H2902 H 0.19564 0.92039 0.53032 0.0
H2903 H 0.18808 0.84823 0.26639 0.0
H2904 H 0.18523 0.84707 0.45906 0.0
H2905 H 0.17874 0.91771 0.34815 0.0
C2906 C 0.18396 0.94198 0.41284 0.0
C2907 C 0.18901 0.94325 0.46419 0.0
C2908 C 0.18565 0.84723 0.41675 0.0
C2909 C 0.1856 0.89567 0.41549 0.0
C2910 C 0.18688 0.82399 0.38967 0.0
C2911 C 0.18807 0.82398 0.33503 0.0
C2912 C 0.18538 0.87041 0.38872 0.0
C2913 C 0.18727 0.84743 0.3086 0.0
C2914 C 0.18232 0.91828 0.38829 0.0
C2915 C 0.19182 0.92025 0.49049 0.0
N2916 N 0.18601 0.86963 0.33559 0.0
N2917 N 0.19012 0.89742 0.46586 0.0
H2918 H 0.55514 0.81027 0.3755 0.0
H2919 H 0.55425 0.96332 0.39921 0.0
H2920 H 0.54578 0.8496 0.51934 0.0
H2921 H 0.54486 0.92353 0.25601 0.0
H2922 H 0.55664 0.9218 0.44384 0.0
H2923 H 0.55687 0.85189 0.33088 0.0
C2924 C 0.55366 0.82765 0.39779 0.0
C2925 C 0.55025 0.82652 0.45108 0.0
C2926 C 0.55419 0.92223 0.40251 0.0
C2927 C 0.55233 0.87403 0.40067 0.0
C2928 C 0.5529 0.94587 0.37707 0.0
C2929 C 0.54929 0.94683 0.32396 0.0
C2930 C 0.55212 0.89944 0.37435 0.0
C2931 C 0.54756 0.92364 0.29711 0.0
C2932 C 0.55458 0.85135 0.37234 0.0
C2933 C 0.54835 0.84962 0.4781 0.0
N2934 N 0.54901 0.90095 0.32248 0.0
N2935 N 0.54943 0.87238 0.4527 0.0
H2936 H 0.79528 0.67562 0.26753 0.0
H2937 H 0.7939 0.60473 0.99455 0.0
H2938 H 0.80359 0.71574 0.12361 0.0
H2939 H 0.80351 0.56502 0.13776 0.0
H2940 H 0.79637 0.64552 0.04047 0.0
H2941 H 0.79725 0.63501 0.22092 0.0
C2942 C 0.79765 0.67585 0.2261 0.0
C2943 C 0.79928 0.69908 0.19937 0.0
C2944 C 0.79809 0.62792 0.06175 0.0
C2945 C 0.80127 0.65255 0.14547 0.0
C2946 C 0.79665 0.60462 0.03563 0.0
C2947 C 0.7985 0.58147 0.06242 0.0
C2948 C 0.8011 0.62813 0.11546 0.0
C2949 C 0.80205 0.58244 0.1156 0.0
C2950 C 0.7988 0.65264 0.19956 0.0
C2951 C 0.80233 0.69825 0.14571 0.0
N2952 N 0.80305 0.60538 0.14056 0.0
N2953 N 0.80303 0.67536 0.12033 0.0
H2954 H 0.44575 0.5976 0.27677 0.0
H2955 H 0.44166 0.67123 1.00752 0.0
H2956 H 0.43387 0.56002 0.13367 0.0
H2957 H 0.4369 0.71059 0.1544 0.0
H2958 H 0.43922 0.63043 0.05288 0.0
H2959 H 0.44306 0.63901 0.23348 0.0
C2960 C 0.44245 0.59809 0.23627 0.0
C2961 C 0.44007 0.57533 0.20868 0.0
C2962 C 0.43852 0.64793 0.07524 0.0
C2963 C 0.43715 0.62274 0.15866 0.0
C2964 C 0.43994 0.67126 0.0494 0.0
C2965 C 0.43949 0.69431 0.0773 0.0
C2966 C 0.43698 0.64749 0.12978 0.0
C2967 C 0.43723 0.69324 0.13146 0.0
C2968 C 0.44087 0.62176 0.21168 0.0
C2969 C 0.43578 0.57709 0.15638 0.0
N2970 N 0.43628 0.67016 0.15612 0.0
N2971 N 0.43465 0.60038 0.13285 0.0
H2972 H 0.18039 0.31536 0.87587 0.0
H2973 H 0.19418 0.46678 0.85839 0.0
H2974 H 0.19844 0.35274 0.74164 0.0
H2975 H 0.18098 0.42818 0.99897 0.0
H2976 H 0.19304 0.42593 0.81139 0.0
H2977 H 0.17791 0.35718 0.91846 0.0
C2978 C 0.1837 0.33238 0.85521 0.0
C2979 C 0.18967 0.33058 0.80526 0.0
C2980 C 0.19029 0.42644 0.85245 0.0
C2981 C 0.1869 0.37847 0.85357 0.0
C2982 C 0.19088 0.44979 0.87917 0.0
C2983 C 0.18776 0.45085 0.93273 0.0
C2984 C 0.18652 0.40402 0.87945 0.0
C2985 C 0.18357 0.42822 0.95776 0.0
C2986 C 0.18233 0.35625 0.87952 0.0
C2987 C 0.19383 0.35324 0.7803 0.0
N2988 N 0.18314 0.40577 0.93107 0.0
N2989 N 0.19241 0.37617 0.80469 0.0
H2990 H 0.5533 0.30975 0.8727 0.0
H2991 H 0.55316 0.46273 0.89678 0.0
H2992 H 0.5433 0.34919 0.01579 0.0
H2993 H 0.5438 0.42333 0.75307 0.0
H2994 H 0.55521 0.42112 0.94121 0.0
H2995 H 0.55548 0.35135 0.82826 0.0
C2996 C 0.55178 0.32714 0.89487 0.0
C2997 C 0.54805 0.32607 0.94787 0.0
C2998 C 0.55285 0.42165 0.89982 0.0
C2999 C 0.55065 0.37354 0.89772 0.0
C3000 C 0.55175 0.44534 0.87448 0.0
C3001 C 0.54824 0.44643 0.82129 0.0
C3002 C 0.5507 0.39895 0.87147 0.0
C3003 C 0.54643 0.42333 0.79424 0.0
C3004 C 0.55295 0.35083 0.86953 0.0
C3005 C 0.5461 0.34918 0.97476 0.0
N3006 N 0.5477 0.40057 0.81952 0.0
N3007 N 0.54744 0.37192 0.9495 0.0
loop_
_geom_bond_atom_site_label_1
_geom_bond_atom_site_label_2
_geom_bond_distance
_geom_bond_site_symmetry_2
_ccdc_geom_bond_type
Pr0 C2 2.880 . S
Pr0 O20 2.562 . S
Pr0 O21 2.490 . S
Pr0 O22 2.695 . S
Pr0 O23 2.512 . S
Pr0 O25 2.437 . S
Pr0 O28 2.436 . S
Pr0 O30 2.438 . S
Pr1 C11 2.880 . S
Pr1 O22 2.436 . S
Pr1 O24 2.438 . S
Pr1 O26 2.562 . S
Pr1 O27 2.490 . S
Pr1 O28 2.695 . S
Pr1 O29 2.512 . S
Pr1 O31 2.437 . S
C2 Pr0 2.880 . S
C2 C3 1.491 1_554 S
C2 O20 1.254 . S
C2 O21 1.225 . S
C3 C2 1.491 1_556 S
C3 C4 1.392 . S
C3 C8 1.356 . S
C4 C3 1.392 . S
C4 C5 1.368 . S
C4 H32 0.929 . S
C5 C4 1.368 . S
C5 C6 1.386 . S
C5 H33 0.929 . S
C6 C5 1.386 . S
C6 C7 1.373 . S
C7 C6 1.373 . S
C7 C8 1.409 . S
C7 H34 0.931 . S
C8 C3 1.356 . S
C8 C7 1.409 . S
C8 H35 0.930 . S
C9 O22 1.270 . S
C9 O23 1.248 . S
C10 O24 1.267 . S
C10 O25 1.278 . S
C11 Pr1 2.880 . S
C11 C12 1.491 . S
C11 O26 1.254 . S
C11 O27 1.225 . S
C12 C11 1.491 . S
C12 C13 1.392 . S
C12 C17 1.356 . S
C13 C12 1.392 . S
C13 C14 1.368 . S
C13 H36 0.929 . S
C14 C13 1.368 . S
C14 C15 1.386 . S
C14 H37 0.929 . S
C15 C14 1.386 . S
C15 C16 1.373 . S
C16 C15 1.373 . S
C16 C17 1.409 . S
C16 H38 0.931 . S
C17 C12 1.356 . S
C17 C16 1.409 . S
C17 H39 0.930 . S
C18 O28 1.270 . S
C18 O29 1.248 . S
C19 O30 1.267 . S
C19 O31 1.278 . S
O20 Pr0 2.562 . S
O20 C2 1.254 . S
O21 Pr0 2.490 . S
O21 C2 1.225 . S
O22 Pr0 2.695 . S
O22 Pr1 2.436 . S
O22 C9 1.270 . S
O23 Pr0 2.512 . S
O23 C9 1.248 . S
O24 Pr1 2.438 . S
O24 C10 1.267 . S
O25 Pr0 2.437 . S
O25 C10 1.278 . S
O26 Pr1 2.562 . S
O26 C11 1.254 . S
O27 Pr1 2.490 . S
O27 C11 1.225 . S
O28 Pr0 2.436 . S
O28 Pr1 2.695 . S
O28 C18 1.270 . S
O29 Pr1 2.512 . S
O29 C18 1.248 . S
O30 Pr0 2.438 . S
O30 C19 1.267 . S
O31 Pr1 2.437 . S
O31 C19 1.278 . S
H32 C4 0.929 . S
H33 C5 0.929 . S
H34 C7 0.931 . S
H35 C8 0.930 . S
H36 C13 0.929 . S
H37 C14 0.929 . S
H38 C16 0.931 . S
H39 C17 0.930 . S
Pr40 C42 2.880 . S
Pr40 O60 2.562 1_565 S
Pr40 O61 2.490 . S
Pr40 O62 2.695 . S
Pr40 O63 2.512 . S
Pr40 O65 2.437 . S
Pr40 O68 2.436 1_565 S
Pr40 O70 2.438 . S
Pr41 C51 2.880 . S
Pr41 O62 2.436 1_545 S
Pr41 O64 2.438 . S
Pr41 O66 2.562 1_545 S
Pr41 O67 2.490 . S
Pr41 O68 2.695 . S
Pr41 O69 2.512 . S
Pr41 O71 2.437 . S
C42 Pr40 2.880 . S
C42 C43 1.491 1_554 S
C42 O60 1.254 1_565 S
C42 O61 1.225 . S
C43 C42 1.491 1_556 S
C43 C44 1.392 . S
C43 C48 1.384 . S
C44 C43 1.392 . S
C44 C45 1.368 . S
C44 H72 0.929 . S
C45 C44 1.368 . S
C45 C46 1.386 . S
C45 H73 0.929 . S
C46 C45 1.386 . S
C46 C47 1.373 . S
C47 C46 1.373 . S
C47 C48 1.414 . S
C47 H74 0.931 1_565 S
C48 C43 1.384 . S
C48 C47 1.414 . S
C48 H75 0.897 1_565 S
C49 O62 1.270 . S
C49 O63 1.248 . S
C50 O64 1.267 1_565 S
C50 O65 1.278 . S
C51 Pr41 2.880 . S
C51 C52 1.491 . S
C51 O66 1.254 1_545 S
C51 O67 1.225 . S
C52 C51 1.491 . S
C52 C53 1.392 . S
C52 C57 1.376 . S
C53 C52 1.392 . S
C53 C54 1.368 . S
C53 H76 0.929 . S
C54 C53 1.368 . S
C54 C55 1.386 . S
C54 H77 0.929 . S
C55 C54 1.386 . S
C55 C56 1.373 . S
C56 C55 1.373 . S
C56 C57 1.412 . S
C56 H78 0.931 1_545 S
C57 C52 1.376 . S
C57 C56 1.412 . S
C57 H79 0.906 1_545 S
C58 O68 1.270 . S
C58 O69 1.248 . S
C59 O70 1.267 1_545 S
C59 O71 1.278 . S
O60 Pr40 2.562 1_545 S
O60 C42 1.254 1_545 S
O61 Pr40 2.490 . S
O61 C42 1.225 . S
O62 Pr40 2.695 . S
O62 Pr41 2.436 1_565 S
O62 C49 1.270 . S
O63 Pr40 2.512 . S
O63 C49 1.248 . S
O64 Pr41 2.438 . S
O64 C50 1.267 1_545 S
O65 Pr40 2.437 . S
O65 C50 1.278 . S
O66 Pr41 2.562 1_565 S
O66 C51 1.254 1_565 S
O67 Pr41 2.490 . S
O67 C51 1.225 . S
O68 Pr40 2.436 1_545 S
O68 Pr41 2.695 . S
O68 C58 1.270 . S
O69 Pr41 2.512 . S
O69 C58 1.248 . S
O70 Pr40 2.438 . S
O70 C59 1.267 1_565 S
O71 Pr41 2.437 . S
O71 C59 1.278 . S
H72 C44 0.929 . S
H73 C45 0.929 . S
H74 C47 0.931 1_545 S
H75 C48 0.897 1_545 S
H76 C53 0.929 . S
H77 C54 0.929 . S
H78 C56 0.931 1_565 S
H79 C57 0.906 1_565 S
Pr80 C82 2.880 . S
Pr80 O100 2.562 1_565 S
Pr80 O101 2.490 . S
Pr80 O102 2.711 . S
Pr80 O103 2.512 . S
Pr80 O105 2.437 . S
Pr80 O108 2.436 1_565 S
Pr80 O110 2.438 . S
Pr81 C91 2.880 . S
Pr81 O102 2.429 1_546 S
Pr81 O104 2.438 1_556 S
Pr81 O106 2.562 1_545 S
Pr81 O107 2.490 . S
Pr81 O108 2.695 1_556 S
Pr81 O109 2.512 1_556 S
Pr81 O111 2.437 . S
C82 Pr80 2.880 . S
C82 C83 1.491 . S
C82 O100 1.254 1_565 S
C82 O101 1.225 . S
C83 C82 1.491 . S
C83 C84 1.392 . S
C83 C88 1.384 . S
C84 C83 1.392 . S
C84 C85 1.368 . S
C84 H112 0.929 . S
C85 C84 1.368 . S
C85 C86 1.386 . S
C85 H113 0.929 . S
C86 C85 1.386 . S
C86 C87 1.373 . S
C87 C86 1.373 . S
C87 C88 1.414 . S
C87 H114 0.931 1_565 S
C88 C83 1.384 . S
C88 C87 1.414 . S
C88 H115 0.897 1_565 S
C89 O102 1.276 . S
C89 O103 1.248 . S
C90 O104 1.267 1_565 S
C90 O105 1.278 . S
C91 Pr81 2.880 . S
C91 C92 1.491 . S
C91 O106 1.254 1_545 S
C91 O107 1.225 . S
C92 C91 1.491 . S
C92 C93 1.392 . S
C92 C97 1.376 . S
C93 C92 1.392 . S
C93 C94 1.368 . S
C93 H116 0.929 . S
C94 C93 1.368 . S
C94 C95 1.386 . S
C94 H117 0.929 . S
C95 C94 1.386 . S
C95 C96 1.373 . S
C96 C95 1.373 . S
C96 C97 1.412 . S
C96 H118 0.931 1_545 S
C97 C92 1.376 . S
C97 C96 1.412 . S
C97 H119 0.906 1_545 S
C98 O108 1.270 . S
C98 O109 1.248 . S
C99 O110 1.267 1_546 S
C99 O111 1.278 . S
O100 Pr80 2.562 1_545 S
O100 C82 1.254 1_545 S
O101 Pr80 2.490 . S
O101 C82 1.225 . S
O102 Pr80 2.711 . S
O102 Pr81 2.429 1_564 S
O102 C89 1.276 . S
O103 Pr80 2.512 . S
O103 C89 1.248 . S
O104 Pr81 2.438 1_554 S
O104 C90 1.267 1_545 S
O105 Pr80 2.437 . S
O105 C90 1.278 . S
O106 Pr81 2.562 1_565 S
O106 C91 1.254 1_565 S
O107 Pr81 2.490 . S
O107 C91 1.225 . S
O108 Pr80 2.436 1_545 S
O108 Pr81 2.695 1_554 S
O108 C98 1.270 . S
O109 Pr81 2.512 1_554 S
O109 C98 1.248 . S
O110 Pr80 2.438 . S
O110 C99 1.267 1_564 S
O111 Pr81 2.437 . S
O111 C99 1.278 . S
H112 C84 0.929 . S
H113 C85 0.929 . S
H114 C87 0.931 1_545 S
H115 C88 0.897 1_545 S
H116 C93 0.929 . S
H117 C94 0.929 . S
H118 C96 0.931 1_565 S
H119 C97 0.906 1_565 S
Pr120 C122 2.880 . S
Pr120 O140 2.562 . S
Pr120 O141 2.490 . S
Pr120 O142 2.697 . S
Pr120 O143 2.512 . S
Pr120 O145 2.437 . S
Pr120 O148 2.436 . S
Pr120 O150 2.438 . S
Pr121 C131 2.880 . S
Pr121 O142 2.435 1_556 S
Pr121 O144 2.438 1_556 S
Pr121 O146 2.562 . S
Pr121 O147 2.490 . S
Pr121 O148 2.695 1_556 S
Pr121 O149 2.507 1_556 S
Pr121 O151 2.437 . S
C122 Pr120 2.880 . S
C122 C123 1.491 . S
C122 O140 1.254 . S
C122 O141 1.225 . S
C123 C122 1.491 . S
C123 C124 1.392 . S
C123 C128 1.356 . S
C124 C123 1.392 . S
C124 C125 1.368 . S
C124 H152 0.929 . S
C125 C124 1.368 . S
C125 C126 1.386 . S
C125 H153 0.929 . S
C126 C125 1.386 . S
C126 C127 1.373 . S
C127 C126 1.373 . S
C127 C128 1.409 . S
C127 H154 0.931 . S
C128 C123 1.356 . S
C128 C127 1.409 . S
C128 H155 0.930 . S
C129 O142 1.271 . S
C129 O143 1.248 . S
C130 O144 1.267 . S
C130 O145 1.278 . S
C131 Pr121 2.880 . S
C131 C132 1.491 . S
C131 O146 1.254 . S
C131 O147 1.225 . S
C132 C131 1.491 . S
C132 C133 1.392 . S
C132 C137 1.356 . S
C133 C132 1.392 . S
C133 C134 1.368 . S
C133 H156 0.929 . S
C134 C133 1.368 . S
C134 C135 1.386 . S
C134 H157 0.929 . S
C135 C134 1.386 . S
C135 C136 1.373 . S
C136 C135 1.373 . S
C136 C137 1.409 . S
C136 H158 0.931 . S
C137 C132 1.356 . S
C137 C136 1.409 . S
C137 H159 0.930 . S
C138 O148 1.270 . S
C138 O149 1.263 . S
C139 O150 1.267 1_556 S
C139 O151 1.278 . S
O140 Pr120 2.562 . S
O140 C122 1.254 . S
O141 Pr120 2.490 . S
O141 C122 1.225 . S
O142 Pr120 2.697 . S
O142 Pr121 2.435 1_554 S
O142 C129 1.271 . S
O143 Pr120 2.512 . S
O143 C129 1.248 . S
O144 Pr121 2.438 1_554 S
O144 C130 1.267 . S
O145 Pr120 2.437 . S
O145 C130 1.278 . S
O146 Pr121 2.562 . S
O146 C131 1.254 . S
O147 Pr121 2.490 . S
O147 C131 1.225 . S
O148 Pr120 2.436 . S
O148 Pr121 2.695 1_554 S
O148 C138 1.270 . S
O149 Pr121 2.507 1_554 S
O149 C138 1.263 . S
O150 Pr120 2.438 . S
O150 C139 1.267 1_554 S
O151 Pr121 2.437 . S
O151 C139 1.278 . S
H152 C124 0.929 . S
H153 C125 0.929 . S
H154 C127 0.931 . S
H155 C128 0.930 . S
H156 C133 0.929 . S
H157 C134 0.929 . S
H158 C136 0.931 . S
H159 C137 0.930 . S
Pr160 C162 2.880 . S
Pr160 O180 2.562 . S
Pr160 O181 2.490 . S
Pr160 O182 2.695 . S
Pr160 O183 2.512 . S
Pr160 O185 2.437 . S
Pr160 O188 2.436 . S
Pr160 O190 2.438 . S
Pr161 C171 2.880 . S
Pr161 O182 2.436 . S
Pr161 O184 2.438 . S
Pr161 O186 2.562 . S
Pr161 O187 2.490 . S
Pr161 O188 2.695 . S
Pr161 O189 2.512 . S
Pr161 O191 2.437 . S
C162 Pr160 2.880 . S
C162 C163 1.491 . S
C162 O180 1.254 . S
C162 O181 1.225 . S
C163 C162 1.491 . S
C163 C164 1.392 . S
C163 C168 1.356 . S
C164 C163 1.392 . S
C164 C165 1.368 . S
C164 H192 0.929 . S
C165 C164 1.368 . S
C165 C166 1.386 . S
C165 H193 0.929 . S
C166 C165 1.386 . S
C166 C167 1.373 . S
C167 C166 1.373 . S
C167 C168 1.409 . S
C167 H194 0.931 . S
C168 C163 1.356 . S
C168 C167 1.409 . S
C168 H195 0.930 . S
C169 O182 1.270 . S
C169 O183 1.248 . S
C170 O184 1.267 . S
C170 O185 1.278 . S
C171 Pr161 2.880 . S
C171 C172 1.491 1_556 S
C171 O186 1.254 . S
C171 O187 1.225 . S
C172 C171 1.491 1_554 S
C172 C173 1.392 . S
C172 C177 1.356 . S
C173 C172 1.392 . S
C173 C174 1.368 . S
C173 H196 0.929 . S
C174 C173 1.368 . S
C174 C175 1.386 . S
C174 H197 0.929 . S
C175 C174 1.386 . S
C175 C176 1.373 . S
C176 C175 1.373 . S
C176 C177 1.409 . S
C176 H198 0.931 . S
C177 C172 1.356 . S
C177 C176 1.409 . S
C177 H199 0.930 . S
C178 O188 1.270 . S
C178 O189 1.248 . S
C179 O190 1.267 . S
C179 O191 1.278 . S
O180 Pr160 2.562 . S
O180 C162 1.254 . S
O181 Pr160 2.490 . S
O181 C162 1.225 . S
O182 Pr160 2.695 . S
O182 Pr161 2.436 . S
O182 C169 1.270 . S
O183 Pr160 2.512 . S
O183 C169 1.248 . S
O184 Pr161 2.438 . S
O184 C170 1.267 . S
O185 Pr160 2.437 . S
O185 C170 1.278 . S
O186 Pr161 2.562 . S
O186 C171 1.254 . S
O187 Pr161 2.490 . S
O187 C171 1.225 . S
O188 Pr160 2.436 . S
O188 Pr161 2.695 . S
O188 C178 1.270 . S
O189 Pr161 2.512 . S
O189 C178 1.248 . S
O190 Pr160 2.438 . S
O190 C179 1.267 . S
O191 Pr161 2.437 . S
O191 C179 1.278 . S
H192 C164 0.929 . S
H193 C165 0.929 . S
H194 C167 0.931 . S
H195 C168 0.930 . S
H196 C173 0.929 . S
H197 C174 0.929 . S
H198 C176 0.931 . S
H199 C177 0.930 . S
Pr200 C202 2.880 . S
Pr200 O220 2.562 1_565 S
Pr200 O221 2.490 . S
Pr200 O222 2.695 . S
Pr200 O223 2.512 . S
Pr200 O225 2.437 . S
Pr200 O228 2.436 1_565 S
Pr200 O230 2.438 . S
Pr201 C211 2.880 . S
Pr201 O222 2.436 1_545 S
Pr201 O224 2.438 . S
Pr201 O226 2.562 1_545 S
Pr201 O227 2.490 . S
Pr201 O228 2.695 . S
Pr201 O229 2.512 . S
Pr201 O231 2.437 . S
C202 Pr200 2.880 . S
C202 C203 1.491 . S
C202 O220 1.254 1_565 S
C202 O221 1.225 . S
C203 C202 1.491 . S
C203 C204 1.392 . S
C203 C208 1.376 . S
C204 C203 1.392 . S
C204 C205 1.368 . S
C204 H232 0.929 . S
C205 C204 1.368 . S
C205 C206 1.386 . S
C205 H233 0.929 . S
C206 C205 1.386 . S
C206 C207 1.373 . S
C207 C206 1.373 . S
C207 C208 1.412 . S
C207 H234 0.931 1_565 S
C208 C203 1.376 . S
C208 C207 1.412 . S
C208 H235 0.906 1_565 S
C209 O222 1.270 . S
C209 O223 1.248 . S
C210 O224 1.267 1_565 S
C210 O225 1.278 . S
C211 Pr201 2.880 . S
C211 C212 1.491 1_556 S
C211 O226 1.254 1_545 S
C211 O227 1.225 . S
C212 C211 1.491 1_554 S
C212 C213 1.392 . S
C212 C217 1.384 . S
C213 C212 1.392 . S
C213 C214 1.368 . S
C213 H236 0.929 . S
C214 C213 1.368 . S
C214 C215 1.386 . S
C214 H237 0.929 . S
C215 C214 1.386 . S
C215 C216 1.373 . S
C216 C215 1.373 . S
C216 C217 1.414 . S
C216 H238 0.931 1_545 S
C217 C212 1.384 . S
C217 C216 1.414 . S
C217 H239 0.897 1_545 S
C218 O228 1.270 . S
C218 O229 1.248 . S
C219 O230 1.267 1_545 S
C219 O231 1.278 . S
O220 Pr200 2.562 1_545 S
O220 C202 1.254 1_545 S
O221 Pr200 2.490 . S
O221 C202 1.225 . S
O222 Pr200 2.695 . S
O222 Pr201 2.436 1_565 S
O222 C209 1.270 . S
O223 Pr200 2.512 . S
O223 C209 1.248 . S
O224 Pr201 2.438 . S
O224 C210 1.267 1_545 S
O225 Pr200 2.437 . S
O225 C210 1.278 . S
O226 Pr201 2.562 1_565 S
O226 C211 1.254 1_565 S
O227 Pr201 2.490 . S
O227 C211 1.225 . S
O228 Pr200 2.436 1_545 S
O228 Pr201 2.695 . S
O228 C218 1.270 . S
O229 Pr201 2.512 . S
O229 C218 1.248 . S
O230 Pr200 2.438 . S
O230 C219 1.267 1_565 S
O231 Pr201 2.437 . S
O231 C219 1.278 . S
H232 C204 0.929 . S
H233 C205 0.929 . S
H234 C207 0.931 1_545 S
H235 C208 0.906 1_545 S
H236 C213 0.929 . S
H237 C214 0.929 . S
H238 C216 0.931 1_565 S
H239 C217 0.897 1_565 S
Pr240 C242 2.880 . S
Pr240 O260 2.562 1_565 S
Pr240 O261 2.490 . S
Pr240 O262 2.695 1_554 S
Pr240 O263 2.512 1_554 S
Pr240 O265 2.437 . S
Pr240 O268 2.429 1_564 S
Pr240 O270 2.438 1_554 S
Pr241 C251 2.880 . S
Pr241 O262 2.436 1_545 S
Pr241 O264 2.438 . S
Pr241 O266 2.562 1_545 S
Pr241 O267 2.490 . S
Pr241 O268 2.711 . S
Pr241 O269 2.512 . S
Pr241 O271 2.437 . S
C242 Pr240 2.880 . S
C242 C243 1.491 . S
C242 O260 1.254 1_565 S
C242 O261 1.225 . S
C243 C242 1.491 . S
C243 C244 1.392 . S
C243 C248 1.376 . S
C244 C243 1.392 . S
C244 C245 1.368 . S
C244 H272 0.929 . S
C245 C244 1.368 . S
C245 C246 1.386 . S
C245 H273 0.929 . S
C246 C245 1.386 . S
C246 C247 1.373 . S
C247 C246 1.373 . S
C247 C248 1.412 . S
C247 H274 0.931 1_565 S
C248 C243 1.376 . S
C248 C247 1.412 . S
C248 H275 0.906 1_565 S
C249 O262 1.270 . S
C249 O263 1.248 . S
C250 O264 1.267 1_564 S
C250 O265 1.278 . S
C251 Pr241 2.880 . S
C251 C252 1.491 . S
C251 O266 1.254 1_545 S
C251 O267 1.225 . S
C252 C251 1.491 . S
C252 C253 1.392 . S
C252 C257 1.384 . S
C253 C252 1.392 . S
C253 C254 1.368 . S
C253 H276 0.929 . S
C254 C253 1.368 . S
C254 C255 1.386 . S
C254 H277 0.929 . S
C255 C254 1.386 . S
C255 C256 1.373 . S
C256 C255 1.373 . S
C256 C257 1.414 . S
C256 H278 0.931 1_545 S
C257 C252 1.384 . S
C257 C256 1.414 . S
C257 H279 0.897 1_545 S
C258 O268 1.276 . S
C258 O269 1.248 . S
C259 O270 1.267 1_545 S
C259 O271 1.278 . S
O260 Pr240 2.562 1_545 S
O260 C242 1.254 1_545 S
O261 Pr240 2.490 . S
O261 C242 1.225 . S
O262 Pr240 2.695 1_556 S
O262 Pr241 2.436 1_565 S
O262 C249 1.270 . S
O263 Pr240 2.512 1_556 S
O263 C249 1.248 . S
O264 Pr241 2.438 . S
O264 C250 1.267 1_546 S
O265 Pr240 2.437 . S
O265 C250 1.278 . S
O266 Pr241 2.562 1_565 S
O266 C251 1.254 1_565 S
O267 Pr241 2.490 . S
O267 C251 1.225 . S
O268 Pr240 2.429 1_546 S
O268 Pr241 2.711 . S
O268 C258 1.276 . S
O269 Pr241 2.512 . S
O269 C258 1.248 . S
O270 Pr240 2.438 1_556 S
O270 C259 1.267 1_565 S
O271 Pr241 2.437 . S
O271 C259 1.278 . S
H272 C244 0.929 . S
H273 C245 0.929 . S
H274 C247 0.931 1_545 S
H275 C248 0.906 1_545 S
H276 C253 0.929 . S
H277 C254 0.929 . S
H278 C256 0.931 1_565 S
H279 C257 0.897 1_565 S
Pr280 C282 2.880 . S
Pr280 O300 2.562 . S
Pr280 O301 2.490 . S
Pr280 O302 2.695 1_554 S
Pr280 O303 2.507 1_554 S
Pr280 O305 2.437 . S
Pr280 O308 2.435 1_554 S
Pr280 O310 2.438 1_554 S
Pr281 C291 2.880 . S
Pr281 O302 2.436 . S
Pr281 O304 2.438 . S
Pr281 O306 2.562 . S
Pr281 O307 2.490 . S
Pr281 O308 2.697 . S
Pr281 O309 2.512 . S
Pr281 O311 2.437 . S
C282 Pr280 2.880 . S
C282 C283 1.491 . S
C282 O300 1.254 . S
C282 O301 1.225 . S
C283 C282 1.491 . S
C283 C284 1.392 . S
C283 C288 1.356 . S
C284 C283 1.392 . S
C284 C285 1.368 . S
C284 H312 0.929 . S
C285 C284 1.368 . S
C285 C286 1.386 . S
C285 H313 0.929 . S
C286 C285 1.386 . S
C286 C287 1.373 . S
C287 C286 1.373 . S
C287 C288 1.409 . S
C287 H314 0.931 . S
C288 C283 1.356 . S
C288 C287 1.409 . S
C288 H315 0.930 . S
C289 O302 1.270 . S
C289 O303 1.263 . S
C290 O304 1.267 1_554 S
C290 O305 1.278 . S
C291 Pr281 2.880 . S
C291 C292 1.491 . S
C291 O306 1.254 . S
C291 O307 1.225 . S
C292 C291 1.491 . S
C292 C293 1.392 . S
C292 C297 1.356 . S
C293 C292 1.392 . S
C293 C294 1.368 . S
C293 H316 0.929 . S
C294 C293 1.368 . S
C294 C295 1.386 . S
C294 H317 0.929 . S
C295 C294 1.386 . S
C295 C296 1.373 . S
C296 C295 1.373 . S
C296 C297 1.409 . S
C296 H318 0.931 . S
C297 C292 1.356 . S
C297 C296 1.409 . S
C297 H319 0.930 . S
C298 O308 1.271 . S
C298 O309 1.248 . S
C299 O310 1.267 . S
C299 O311 1.278 . S
O300 Pr280 2.562 . S
O300 C282 1.254 . S
O301 Pr280 2.490 . S
O301 C282 1.225 . S
O302 Pr280 2.695 1_556 S
O302 Pr281 2.436 . S
O302 C289 1.270 . S
O303 Pr280 2.507 1_556 S
O303 C289 1.263 . S
O304 Pr281 2.438 . S
O304 C290 1.267 1_556 S
O305 Pr280 2.437 . S
O305 C290 1.278 . S
O306 Pr281 2.562 . S
O306 C291 1.254 . S
O307 Pr281 2.490 . S
O307 C291 1.225 . S
O308 Pr280 2.435 1_556 S
O308 Pr281 2.697 . S
O308 C298 1.271 . S
O309 Pr281 2.512 . S
O309 C298 1.248 . S
O310 Pr280 2.438 1_556 S
O310 C299 1.267 . S
O311 Pr281 2.437 . S
O311 C299 1.278 . S
H312 C284 0.929 . S
H313 C285 0.929 . S
H314 C287 0.931 . S
H315 C288 0.930 . S
H316 C293 0.929 . S
H317 C294 0.929 . S
H318 C296 0.931 . S
H319 C297 0.930 . S
Pr320 C322 2.880 . S
Pr320 O340 2.562 . S
Pr320 O341 2.490 . S
Pr320 O342 2.695 . S
Pr320 O343 2.512 . S
Pr320 O345 2.437 . S
Pr320 O348 2.436 . S
Pr320 O350 2.438 . S
Pr321 C331 2.880 . S
Pr321 O342 2.436 . S
Pr321 O344 2.438 . S
Pr321 O346 2.562 . S
Pr321 O347 2.490 . S
Pr321 O348 2.695 . S
Pr321 O349 2.512 . S
Pr321 O351 2.437 . S
C322 Pr320 2.880 . S
C322 C323 1.491 . S
C322 O340 1.254 . S
C322 O341 1.225 . S
C323 C322 1.491 . S
C323 C324 1.392 . S
C323 C328 1.356 . S
C324 C323 1.392 . S
C324 C325 1.368 . S
C324 H352 0.929 . S
C325 C324 1.368 . S
C325 C326 1.386 . S
C325 H353 0.929 . S
C326 C325 1.386 . S
C326 C327 1.373 . S
C327 C326 1.373 . S
C327 C328 1.409 . S
C327 H354 0.931 . S
C328 C323 1.356 . S
C328 C327 1.409 . S
C328 H355 0.930 . S
C329 O342 1.270 . S
C329 O343 1.248 . S
C330 O344 1.267 . S
C330 O345 1.278 . S
C331 Pr321 2.880 . S
C331 C332 1.491 . S
C331 O346 1.254 . S
C331 O347 1.225 . S
C332 C331 1.491 . S
C332 C333 1.392 . S
C332 C337 1.356 . S
C333 C332 1.392 . S
C333 C334 1.368 1_556 S
C333 H356 0.929 . S
C334 C333 1.368 1_554 S
C334 C335 1.386 . S
C334 H357 0.929 . S
C335 C334 1.386 . S
C335 C336 1.373 . S
C336 C335 1.373 . S
C336 C337 1.409 1_554 S
C336 H358 0.931 . S
C337 C332 1.356 . S
C337 C336 1.409 1_556 S
C337 H359 0.930 . S
C338 O348 1.270 . S
C338 O349 1.248 . S
C339 O350 1.267 . S
C339 O351 1.278 . S
O340 Pr320 2.562 . S
O340 C322 1.254 . S
O341 Pr320 2.490 . S
O341 C322 1.225 . S
O342 Pr320 2.695 . S
O342 Pr321 2.436 . S
O342 C329 1.270 . S
O343 Pr320 2.512 . S
O343 C329 1.248 . S
O344 Pr321 2.438 . S
O344 C330 1.267 . S
O345 Pr320 2.437 . S
O345 C330 1.278 . S
O346 Pr321 2.562 . S
O346 C331 1.254 . S
O347 Pr321 2.490 . S
O347 C331 1.225 . S
O348 Pr320 2.436 . S
O348 Pr321 2.695 . S
O348 C338 1.270 . S
O349 Pr321 2.512 . S
O349 C338 1.248 . S
O350 Pr320 2.438 . S
O350 C339 1.267 . S
O351 Pr321 2.437 . S
O351 C339 1.278 . S
H352 C324 0.929 . S
H353 C325 0.929 . S
H354 C327 0.931 . S
H355 C328 0.930 . S
H356 C333 0.929 . S
H357 C334 0.929 . S
H358 C336 0.931 . S
H359 C337 0.930 . S
Pr360 C362 2.880 . S
Pr360 O380 2.562 . S
Pr360 O381 2.490 . S
Pr360 O382 2.695 . S
Pr360 O383 2.512 . S
Pr360 O385 2.437 . S
Pr360 O388 2.436 . S
Pr360 O390 2.438 . S
Pr361 C371 2.880 . S
Pr361 O382 2.436 . S
Pr361 O384 2.438 . S
Pr361 O386 2.562 . S
Pr361 O387 2.490 . S
Pr361 O388 2.695 . S
Pr361 O389 2.512 . S
Pr361 O391 2.437 . S
C362 Pr360 2.880 . S
C362 C363 1.491 . S
C362 O380 1.254 . S
C362 O381 1.225 . S
C363 C362 1.491 . S
C363 C364 1.392 . S
C363 C368 1.356 . S
C364 C363 1.392 . S
C364 C365 1.368 . S
C364 H392 0.929 . S
C365 C364 1.368 . S
C365 C366 1.386 . S
C365 H393 0.929 . S
C366 C365 1.386 . S
C366 C367 1.373 . S
C367 C366 1.373 . S
C367 C368 1.409 . S
C367 H394 0.931 . S
C368 C363 1.356 . S
C368 C367 1.409 . S
C368 H395 0.930 . S
C369 O382 1.270 . S
C369 O383 1.248 . S
C370 O384 1.267 . S
C370 O385 1.278 . S
C371 Pr361 2.880 . S
C371 C372 1.491 . S
C371 O386 1.254 . S
C371 O387 1.225 . S
C372 C371 1.491 . S
C372 C373 1.392 . S
C372 C377 1.356 . S
C373 C372 1.392 . S
C373 C374 1.368 1_556 S
C373 H396 0.929 . S
C374 C373 1.368 1_554 S
C374 C375 1.386 . S
C374 H397 0.929 . S
C375 C374 1.386 . S
C375 C376 1.373 . S
C376 C375 1.373 . S
C376 C377 1.409 1_554 S
C376 H398 0.931 . S
C377 C372 1.356 . S
C377 C376 1.409 1_556 S
C377 H399 0.930 . S
C378 O388 1.270 . S
C378 O389 1.248 . S
C379 O390 1.267 . S
C379 O391 1.278 . S
O380 Pr360 2.562 . S
O380 C362 1.254 . S
O381 Pr360 2.490 . S
O381 C362 1.225 . S
O382 Pr360 2.695 . S
O382 Pr361 2.436 . S
O382 C369 1.270 . S
O383 Pr360 2.512 . S
O383 C369 1.248 . S
O384 Pr361 2.438 . S
O384 C370 1.267 . S
O385 Pr360 2.437 . S
O385 C370 1.278 . S
O386 Pr361 2.562 . S
O386 C371 1.254 . S
O387 Pr361 2.490 . S
O387 C371 1.225 . S
O388 Pr360 2.436 . S
O388 Pr361 2.695 . S
O388 C378 1.270 . S
O389 Pr361 2.512 . S
O389 C378 1.248 . S
O390 Pr360 2.438 . S
O390 C379 1.267 . S
O391 Pr361 2.437 . S
O391 C379 1.278 . S
H392 C364 0.929 . S
H393 C365 0.929 . S
H394 C367 0.931 . S
H395 C368 0.930 . S
H396 C373 0.929 . S
H397 C374 0.929 . S
H398 C376 0.931 . S
H399 C377 0.930 . S
Pr400 C402 2.880 . S
Pr400 O420 2.562 . S
Pr400 O421 2.490 . S
Pr400 O422 2.695 . S
Pr400 O423 2.512 . S
Pr400 O425 2.437 . S
Pr400 O428 2.436 . S
Pr400 O430 2.438 . S
Pr401 C411 2.880 . S
Pr401 O422 2.436 . S
Pr401 O424 2.438 . S
Pr401 O426 2.562 . S
Pr401 O427 2.490 . S
Pr401 O428 2.695 . S
Pr401 O429 2.512 . S
Pr401 O431 2.437 . S
C402 Pr400 2.880 . S
C402 C403 1.491 . S
C402 O420 1.254 . S
C402 O421 1.225 . S
C403 C402 1.491 . S
C403 C404 1.392 . S
C403 C408 1.356 . S
C404 C403 1.392 . S
C404 C405 1.368 . S
C404 H432 0.929 . S
C405 C404 1.368 . S
C405 C406 1.386 . S
C405 H433 0.929 . S
C406 C405 1.386 . S
C406 C407 1.373 . S
C407 C406 1.373 . S
C407 C408 1.409 . S
C407 H434 0.931 . S
C408 C403 1.356 . S
C408 C407 1.409 . S
C408 H435 0.930 . S
C409 O422 1.270 . S
C409 O423 1.248 . S
C410 O424 1.267 . S
C410 O425 1.278 . S
C411 Pr401 2.880 . S
C411 C412 1.491 . S
C411 O426 1.254 . S
C411 O427 1.225 . S
C412 C411 1.491 . S
C412 C413 1.392 . S
C412 C417 1.356 . S
C413 C412 1.392 . S
C413 C414 1.368 . S
C413 H436 0.929 . S
C414 C413 1.368 . S
C414 C415 1.386 . S
C414 H437 0.929 . S
C415 C414 1.386 . S
C415 C416 1.373 . S
C416 C415 1.373 . S
C416 C417 1.409 . S
C416 H438 0.931 . S
C417 C412 1.356 . S
C417 C416 1.409 . S
C417 H439 0.930 . S
C418 O428 1.270 . S
C418 O429 1.248 . S
C419 O430 1.267 . S
C419 O431 1.278 . S
O420 Pr400 2.562 . S
O420 C402 1.254 . S
O421 Pr400 2.490 . S
O421 C402 1.225 . S
O422 Pr400 2.695 . S
O422 Pr401 2.436 . S
O422 C409 1.270 . S
O423 Pr400 2.512 . S
O423 C409 1.248 . S
O424 Pr401 2.438 . S
O424 C410 1.267 . S
O425 Pr400 2.437 . S
O425 C410 1.278 . S
O426 Pr401 2.562 . S
O426 C411 1.254 . S
O427 Pr401 2.490 . S
O427 C411 1.225 . S
O428 Pr400 2.436 . S
O428 Pr401 2.695 . S
O428 C418 1.270 . S
O429 Pr401 2.512 . S
O429 C418 1.248 . S
O430 Pr400 2.438 . S
O430 C419 1.267 . S
O431 Pr401 2.437 . S
O431 C419 1.278 . S
H432 C404 0.929 . S
H433 C405 0.929 . S
H434 C407 0.931 . S
H435 C408 0.930 . S
H436 C413 0.929 . S
H437 C414 0.929 . S
H438 C416 0.931 . S
H439 C417 0.930 . S
Pr440 C442 2.880 . S
Pr440 O460 2.562 . S
Pr440 O461 2.490 . S
Pr440 O462 2.695 . S
Pr440 O463 2.512 . S
Pr440 O465 2.437 . S
Pr440 O468 2.436 . S
Pr440 O470 2.438 . S
Pr441 C451 2.880 . S
Pr441 O462 2.436 . S
Pr441 O464 2.438 . S
Pr441 O466 2.562 . S
Pr441 O467 2.490 . S
Pr441 O468 2.695 . S
Pr441 O469 2.512 . S
Pr441 O471 2.437 . S
C442 Pr440 2.880 . S
C442 C443 1.491 . S
C442 O460 1.254 . S
C442 O461 1.225 . S
C443 C442 1.491 . S
C443 C444 1.392 . S
C443 C448 1.356 . S
C444 C443 1.392 . S
C444 C445 1.368 . S
C444 H472 0.929 . S
C445 C444 1.368 . S
C445 C446 1.386 . S
C445 H473 0.929 . S
C446 C445 1.386 . S
C446 C447 1.373 . S
C447 C446 1.373 . S
C447 C448 1.409 . S
C447 H474 0.931 . S
C448 C443 1.356 . S
C448 C447 1.409 . S
C448 H475 0.930 . S
C449 O462 1.270 . S
C449 O463 1.248 . S
C450 O464 1.267 . S
C450 O465 1.278 . S
C451 Pr441 2.880 . S
C451 C452 1.491 . S
C451 O466 1.254 . S
C451 O467 1.225 . S
C452 C451 1.491 . S
C452 C453 1.392 . S
C452 C457 1.356 . S
C453 C452 1.392 . S
C453 C454 1.368 . S
C453 H476 0.929 . S
C454 C453 1.368 . S
C454 C455 1.386 . S
C454 H477 0.929 . S
C455 C454 1.386 . S
C455 C456 1.373 . S
C456 C455 1.373 . S
C456 C457 1.409 . S
C456 H478 0.931 . S
C457 C452 1.356 . S
C457 C456 1.409 . S
C457 H479 0.930 . S
C458 O468 1.270 . S
C458 O469 1.248 . S
C459 O470 1.267 . S
C459 O471 1.278 . S
O460 Pr440 2.562 . S
O460 C442 1.254 . S
O461 Pr440 2.490 . S
O461 C442 1.225 . S
O462 Pr440 2.695 . S
O462 Pr441 2.436 . S
O462 C449 1.270 . S
O463 Pr440 2.512 . S
O463 C449 1.248 . S
O464 Pr441 2.438 . S
O464 C450 1.267 . S
O465 Pr440 2.437 . S
O465 C450 1.278 . S
O466 Pr441 2.562 . S
O466 C451 1.254 . S
O467 Pr441 2.490 . S
O467 C451 1.225 . S
O468 Pr440 2.436 . S
O468 Pr441 2.695 . S
O468 C458 1.270 . S
O469 Pr441 2.512 . S
O469 C458 1.248 . S
O470 Pr440 2.438 . S
O470 C459 1.267 . S
O471 Pr441 2.437 . S
O471 C459 1.278 . S
H472 C444 0.929 . S
H473 C445 0.929 . S
H474 C447 0.931 . S
H475 C448 0.930 . S
H476 C453 0.929 . S
H477 C454 0.929 . S
H478 C456 0.931 . S
H479 C457 0.930 . S
Pr480 C482 2.880 . S
Pr480 O500 2.562 . S
Pr480 O501 2.490 . S
Pr480 O502 2.695 . S
Pr480 O503 2.512 . S
Pr480 O505 2.437 . S
Pr480 O508 2.436 . S
Pr480 O510 2.438 . S
Pr481 C491 2.880 . S
Pr481 O502 2.436 . S
Pr481 O504 2.438 . S
Pr481 O506 2.562 . S
Pr481 O507 2.490 . S
Pr481 O508 2.695 . S
Pr481 O509 2.512 . S
Pr481 O511 2.437 . S
C482 Pr480 2.880 . S
C482 C483 1.491 . S
C482 O500 1.254 . S
C482 O501 1.225 . S
C483 C482 1.491 . S
C483 C484 1.392 . S
C483 C488 1.356 . S
C484 C483 1.392 . S
C484 C485 1.368 1_554 S
C484 H512 0.929 . S
C485 C484 1.368 1_556 S
C485 C486 1.386 . S
C485 H513 0.929 . S
C486 C485 1.386 . S
C486 C487 1.373 . S
C487 C486 1.373 . S
C487 C488 1.409 1_556 S
C487 H514 0.931 . S
C488 C483 1.356 . S
C488 C487 1.409 1_554 S
C488 H515 0.930 . S
C489 O502 1.270 . S
C489 O503 1.248 . S
C490 O504 1.267 . S
C490 O505 1.278 . S
C491 Pr481 2.880 . S
C491 C492 1.491 . S
C491 O506 1.254 . S
C491 O507 1.225 . S
C492 C491 1.491 . S
C492 C493 1.392 . S
C492 C497 1.356 . S
C493 C492 1.392 . S
C493 C494 1.368 . S
C493 H516 0.929 . S
C494 C493 1.368 . S
C494 C495 1.386 . S
C494 H517 0.929 . S
C495 C494 1.386 . S
C495 C496 1.373 . S
C496 C495 1.373 . S
C496 C497 1.409 . S
C496 H518 0.931 . S
C497 C492 1.356 . S
C497 C496 1.409 . S
C497 H519 0.930 . S
C498 O508 1.270 . S
C498 O509 1.248 . S
C499 O510 1.267 . S
C499 O511 1.278 . S
O500 Pr480 2.562 . S
O500 C482 1.254 . S
O501 Pr480 2.490 . S
O501 C482 1.225 . S
O502 Pr480 2.695 . S
O502 Pr481 2.436 . S
O502 C489 1.270 . S
O503 Pr480 2.512 . S
O503 C489 1.248 . S
O504 Pr481 2.438 . S
O504 C490 1.267 . S
O505 Pr480 2.437 . S
O505 C490 1.278 . S
O506 Pr481 2.562 . S
O506 C491 1.254 . S
O507 Pr481 2.490 . S
O507 C491 1.225 . S
O508 Pr480 2.436 . S
O508 Pr481 2.695 . S
O508 C498 1.270 . S
O509 Pr481 2.512 . S
O509 C498 1.248 . S
O510 Pr480 2.438 . S
O510 C499 1.267 . S
O511 Pr481 2.437 . S
O511 C499 1.278 . S
H512 C484 0.929 . S
H513 C485 0.929 . S
H514 C487 0.931 . S
H515 C488 0.930 . S
H516 C493 0.929 . S
H517 C494 0.929 . S
H518 C496 0.931 . S
H519 C497 0.930 . S
Pr520 C522 2.880 . S
Pr520 O540 2.562 . S
Pr520 O541 2.490 . S
Pr520 O542 2.695 . S
Pr520 O543 2.512 . S
Pr520 O545 2.437 . S
Pr520 O548 2.436 . S
Pr520 O550 2.438 . S
Pr521 C531 2.880 . S
Pr521 O542 2.436 . S
Pr521 O544 2.438 . S
Pr521 O546 2.562 . S
Pr521 O547 2.490 . S
Pr521 O548 2.695 . S
Pr521 O549 2.512 . S
Pr521 O551 2.437 . S
C522 Pr520 2.880 . S
C522 C523 1.491 . S
C522 O540 1.254 . S
C522 O541 1.225 . S
C523 C522 1.491 . S
C523 C524 1.392 . S
C523 C528 1.356 . S
C524 C523 1.392 . S
C524 C525 1.368 1_554 S
C524 H552 0.929 . S
C525 C524 1.368 1_556 S
C525 C526 1.386 . S
C525 H553 0.929 . S
C526 C525 1.386 . S
C526 C527 1.373 . S
C527 C526 1.373 . S
C527 C528 1.409 1_556 S
C527 H554 0.931 . S
C528 C523 1.356 . S
C528 C527 1.409 1_554 S
C528 H555 0.930 . S
C529 O542 1.270 . S
C529 O543 1.248 . S
C530 O544 1.267 . S
C530 O545 1.278 . S
C531 Pr521 2.880 . S
C531 C532 1.491 . S
C531 O546 1.254 . S
C531 O547 1.225 . S
C532 C531 1.491 . S
C532 C533 1.392 . S
C532 C537 1.356 . S
C533 C532 1.392 . S
C533 C534 1.368 . S
C533 H556 0.929 . S
C534 C533 1.368 . S
C534 C535 1.386 . S
C534 H557 0.929 . S
C535 C534 1.386 . S
C535 C536 1.373 . S
C536 C535 1.373 . S
C536 C537 1.409 . S
C536 H558 0.931 . S
C537 C532 1.356 . S
C537 C536 1.409 . S
C537 H559 0.930 . S
C538 O548 1.270 . S
C538 O549 1.248 . S
C539 O550 1.267 . S
C539 O551 1.278 . S
O540 Pr520 2.562 . S
O540 C522 1.254 . S
O541 Pr520 2.490 . S
O541 C522 1.225 . S
O542 Pr520 2.695 . S
O542 Pr521 2.436 . S
O542 C529 1.270 . S
O543 Pr520 2.512 . S
O543 C529 1.248 . S
O544 Pr521 2.438 . S
O544 C530 1.267 . S
O545 Pr520 2.437 . S
O545 C530 1.278 . S
O546 Pr521 2.562 . S
O546 C531 1.254 . S
O547 Pr521 2.490 . S
O547 C531 1.225 . S
O548 Pr520 2.436 . S
O548 Pr521 2.695 . S
O548 C538 1.270 . S
O549 Pr521 2.512 . S
O549 C538 1.248 . S
O550 Pr520 2.438 . S
O550 C539 1.267 . S
O551 Pr521 2.437 . S
O551 C539 1.278 . S
H552 C524 0.929 . S
H553 C525 0.929 . S
H554 C527 0.931 . S
H555 C528 0.930 . S
H556 C533 0.929 . S
H557 C534 0.929 . S
H558 C536 0.931 . S
H559 C537 0.930 . S
Pr560 C562 2.880 . S
Pr560 O580 2.562 . S
Pr560 O581 2.490 . S
Pr560 O582 2.695 . S
Pr560 O583 2.512 . S
Pr560 O585 2.437 . S
Pr560 O588 2.436 . S
Pr560 O590 2.438 . S
Pr561 C571 2.880 . S
Pr561 O582 2.436 . S
Pr561 O584 2.438 . S
Pr561 O586 2.562 . S
Pr561 O587 2.490 . S
Pr561 O588 2.695 . S
Pr561 O589 2.512 . S
Pr561 O591 2.437 . S
C562 Pr560 2.880 . S
C562 C563 1.491 . S
C562 O580 1.254 . S
C562 O581 1.225 . S
C563 C562 1.491 . S
C563 C564 1.392 . S
C563 C568 1.356 . S
C564 C563 1.392 . S
C564 C565 1.368 . S
C564 H592 0.929 . S
C565 C564 1.368 . S
C565 C566 1.386 . S
C565 H593 0.929 . S
C566 C565 1.386 . S
C566 C567 1.373 . S
C567 C566 1.373 . S
C567 C568 1.409 . S
C567 H594 0.931 . S
C568 C563 1.356 . S
C568 C567 1.409 . S
C568 H595 0.930 . S
C569 O582 1.270 . S
C569 O583 1.248 . S
C570 O584 1.267 . S
C570 O585 1.278 . S
C571 Pr561 2.880 . S
C571 C572 1.491 . S
C571 O586 1.254 . S
C571 O587 1.225 . S
C572 C571 1.491 . S
C572 C573 1.392 . S
C572 C577 1.356 . S
C573 C572 1.392 . S
C573 C574 1.368 . S
C573 H596 0.929 . S
C574 C573 1.368 . S
C574 C575 1.386 . S
C574 H597 0.929 . S
C575 C574 1.386 . S
C575 C576 1.373 . S
C576 C575 1.373 . S
C576 C577 1.409 . S
C576 H598 0.931 . S
C577 C572 1.356 . S
C577 C576 1.409 . S
C577 H599 0.930 . S
C578 O588 1.270 . S
C578 O589 1.248 . S
C579 O590 1.267 . S
C579 O591 1.278 . S
O580 Pr560 2.562 . S
O580 C562 1.254 . S
O581 Pr560 2.490 . S
O581 C562 1.225 . S
O582 Pr560 2.695 . S
O582 Pr561 2.436 . S
O582 C569 1.270 . S
O583 Pr560 2.512 . S
O583 C569 1.248 . S
O584 Pr561 2.438 . S
O584 C570 1.267 . S
O585 Pr560 2.437 . S
O585 C570 1.278 . S
O586 Pr561 2.562 . S
O586 C571 1.254 . S
O587 Pr561 2.490 . S
O587 C571 1.225 . S
O588 Pr560 2.436 . S
O588 Pr561 2.695 . S
O588 C578 1.270 . S
O589 Pr561 2.512 . S
O589 C578 1.248 . S
O590 Pr560 2.438 . S
O590 C579 1.267 . S
O591 Pr561 2.437 . S
O591 C579 1.278 . S
H592 C564 0.929 . S
H593 C565 0.929 . S
H594 C567 0.931 . S
H595 C568 0.930 . S
H596 C573 0.929 . S
H597 C574 0.929 . S
H598 C576 0.931 . S
H599 C577 0.930 . S
Pr600 C602 2.880 . S
Pr600 O620 2.562 . S
Pr600 O621 2.490 . S
Pr600 O622 2.695 . S
Pr600 O623 2.512 . S
Pr600 O625 2.437 . S
Pr600 O628 2.436 . S
Pr600 O630 2.438 . S
Pr601 C611 2.880 . S
Pr601 O622 2.436 . S
Pr601 O624 2.438 . S
Pr601 O626 2.562 . S
Pr601 O627 2.490 . S
Pr601 O628 2.695 . S
Pr601 O629 2.512 . S
Pr601 O631 2.437 . S
C602 Pr600 2.880 . S
C602 C603 1.491 . S
C602 O620 1.254 . S
C602 O621 1.225 . S
C603 C602 1.491 . S
C603 C604 1.392 . S
C603 C608 1.356 . S
C604 C603 1.392 . S
C604 C605 1.368 . S
C604 H632 0.929 . S
C605 C604 1.368 . S
C605 C606 1.386 . S
C605 H633 0.929 . S
C606 C605 1.386 . S
C606 C607 1.373 . S
C607 C606 1.373 . S
C607 C608 1.409 . S
C607 H634 0.931 . S
C608 C603 1.356 . S
C608 C607 1.409 . S
C608 H635 0.930 . S
C609 O622 1.270 . S
C609 O623 1.248 . S
C610 O624 1.267 . S
C610 O625 1.278 . S
C611 Pr601 2.880 . S
C611 C612 1.491 . S
C611 O626 1.254 . S
C611 O627 1.225 . S
C612 C611 1.491 . S
C612 C613 1.392 . S
C612 C617 1.356 . S
C613 C612 1.392 . S
C613 C614 1.368 . S
C613 H636 0.929 . S
C614 C613 1.368 . S
C614 C615 1.386 . S
C614 H637 0.929 . S
C615 C614 1.386 . S
C615 C616 1.373 . S
C616 C615 1.373 . S
C616 C617 1.409 . S
C616 H638 0.931 . S
C617 C612 1.356 . S
C617 C616 1.409 . S
C617 H639 0.930 . S
C618 O628 1.270 . S
C618 O629 1.248 . S
C619 O630 1.267 . S
C619 O631 1.278 . S
O620 Pr600 2.562 . S
O620 C602 1.254 . S
O621 Pr600 2.490 . S
O621 C602 1.225 . S
O622 Pr600 2.695 . S
O622 Pr601 2.436 . S
O622 C609 1.270 . S
O623 Pr600 2.512 . S
O623 C609 1.248 . S
O624 Pr601 2.438 . S
O624 C610 1.267 . S
O625 Pr600 2.437 . S
O625 C610 1.278 . S
O626 Pr601 2.562 . S
O626 C611 1.254 . S
O627 Pr601 2.490 . S
O627 C611 1.225 . S
O628 Pr600 2.436 . S
O628 Pr601 2.695 . S
O628 C618 1.270 . S
O629 Pr601 2.512 . S
O629 C618 1.248 . S
O630 Pr600 2.438 . S
O630 C619 1.267 . S
O631 Pr601 2.437 . S
O631 C619 1.278 . S
H632 C604 0.929 . S
H633 C605 0.929 . S
H634 C607 0.931 . S
H635 C608 0.930 . S
H636 C613 0.929 . S
H637 C614 0.929 . S
H638 C616 0.931 . S
H639 C617 0.930 . S
Pr640 C642 2.880 . S
Pr640 O660 2.562 . S
Pr640 O661 2.490 . S
Pr640 O662 2.695 . S
Pr640 O663 2.512 . S
Pr640 O665 2.437 . S
Pr640 O668 2.436 . S
Pr640 O670 2.438 . S
Pr641 C651 2.880 . S
Pr641 O662 2.436 . S
Pr641 O664 2.438 . S
Pr641 O666 2.562 . S
Pr641 O667 2.490 . S
Pr641 O668 2.695 . S
Pr641 O669 2.512 . S
Pr641 O671 2.437 . S
C642 Pr640 2.880 . S
C642 C643 1.491 . S
C642 O660 1.254 . S
C642 O661 1.225 . S
C643 C642 1.491 . S
C643 C644 1.392 . S
C643 C648 1.356 . S
C644 C643 1.392 . S
C644 C645 1.368 . S
C644 H672 0.929 . S
C645 C644 1.368 . S
C645 C646 1.386 . S
C645 H673 0.929 . S
C646 C645 1.386 . S
C646 C647 1.373 . S
C647 C646 1.373 . S
C647 C648 1.409 . S
C647 H674 0.931 . S
C648 C643 1.356 . S
C648 C647 1.409 . S
C648 H675 0.930 . S
C649 O662 1.270 . S
C649 O663 1.248 . S
C650 O664 1.267 . S
C650 O665 1.278 . S
C651 Pr641 2.880 . S
C651 C652 1.491 . S
C651 O666 1.254 . S
C651 O667 1.225 . S
C652 C651 1.491 . S
C652 C653 1.392 . S
C652 C657 1.356 . S
C653 C652 1.392 . S
C653 C654 1.368 1_556 S
C653 H676 0.929 . S
C654 C653 1.368 1_554 S
C654 C655 1.386 . S
C654 H677 0.929 . S
C655 C654 1.386 . S
C655 C656 1.373 . S
C656 C655 1.373 . S
C656 C657 1.409 1_554 S
C656 H678 0.931 . S
C657 C652 1.356 . S
C657 C656 1.409 1_556 S
C657 H679 0.930 . S
C658 O668 1.270 . S
C658 O669 1.248 . S
C659 O670 1.267 . S
C659 O671 1.278 . S
O660 Pr640 2.562 . S
O660 C642 1.254 . S
O661 Pr640 2.490 . S
O661 C642 1.225 . S
O662 Pr640 2.695 . S
O662 Pr641 2.436 . S
O662 C649 1.270 . S
O663 Pr640 2.512 . S
O663 C649 1.248 . S
O664 Pr641 2.438 . S
O664 C650 1.267 . S
O665 Pr640 2.437 . S
O665 C650 1.278 . S
O666 Pr641 2.562 . S
O666 C651 1.254 . S
O667 Pr641 2.490 . S
O667 C651 1.225 . S
O668 Pr640 2.436 . S
O668 Pr641 2.695 . S
O668 C658 1.270 . S
O669 Pr641 2.512 . S
O669 C658 1.248 . S
O670 Pr640 2.438 . S
O670 C659 1.267 . S
O671 Pr641 2.437 . S
O671 C659 1.278 . S
H672 C644 0.929 . S
H673 C645 0.929 . S
H674 C647 0.931 . S
H675 C648 0.930 . S
H676 C653 0.929 . S
H677 C654 0.929 . S
H678 C656 0.931 . S
H679 C657 0.930 . S
Pr680 C682 2.880 . S
Pr680 O700 2.562 1_565 S
Pr680 O701 2.490 . S
Pr680 O702 2.695 . S
Pr680 O703 2.512 . S
Pr680 O705 2.437 . S
Pr680 O708 2.436 1_565 S
Pr680 O710 2.438 . S
Pr681 C691 2.880 . S
Pr681 O702 2.436 1_545 S
Pr681 O704 2.438 . S
Pr681 O706 2.562 1_545 S
Pr681 O707 2.490 . S
Pr681 O708 2.695 . S
Pr681 O709 2.512 . S
Pr681 O711 2.437 . S
C682 Pr680 2.880 . S
C682 C683 1.491 . S
C682 O700 1.254 1_565 S
C682 O701 1.225 . S
C683 C682 1.491 . S
C683 C684 1.392 . S
C683 C688 1.384 . S
C684 C683 1.392 . S
C684 C685 1.368 . S
C684 H712 0.929 . S
C685 C684 1.368 . S
C685 C686 1.386 . S
C685 H713 0.929 . S
C686 C685 1.386 . S
C686 C687 1.373 . S
C687 C686 1.373 . S
C687 C688 1.414 . S
C687 H714 0.931 1_565 S
C688 C683 1.384 . S
C688 C687 1.414 . S
C688 H715 0.897 1_565 S
C689 O702 1.270 . S
C689 O703 1.248 . S
C690 O704 1.267 1_565 S
C690 O705 1.278 . S
C691 Pr681 2.880 . S
C691 C692 1.491 . S
C691 O706 1.254 1_545 S
C691 O707 1.225 . S
C692 C691 1.491 . S
C692 C693 1.392 . S
C692 C697 1.376 . S
C693 C692 1.392 . S
C693 C694 1.368 1_556 S
C693 H716 0.929 . S
C694 C693 1.368 1_554 S
C694 C695 1.386 . S
C694 H717 0.929 . S
C695 C694 1.386 . S
C695 C696 1.373 . S
C696 C695 1.373 . S
C696 C697 1.412 1_554 S
C696 H718 0.931 1_545 S
C697 C692 1.376 . S
C697 C696 1.412 1_556 S
C697 H719 0.906 1_545 S
C698 O708 1.270 . S
C698 O709 1.248 . S
C699 O710 1.267 1_545 S
C699 O711 1.278 . S
O700 Pr680 2.562 1_545 S
O700 C682 1.254 1_545 S
O701 Pr680 2.490 . S
O701 C682 1.225 . S
O702 Pr680 2.695 . S
O702 Pr681 2.436 1_565 S
O702 C689 1.270 . S
O703 Pr680 2.512 . S
O703 C689 1.248 . S
O704 Pr681 2.438 . S
O704 C690 1.267 1_545 S
O705 Pr680 2.437 . S
O705 C690 1.278 . S
O706 Pr681 2.562 1_565 S
O706 C691 1.254 1_565 S
O707 Pr681 2.490 . S
O707 C691 1.225 . S
O708 Pr680 2.436 1_545 S
O708 Pr681 2.695 . S
O708 C698 1.270 . S
O709 Pr681 2.512 . S
O709 C698 1.248 . S
O710 Pr680 2.438 . S
O710 C699 1.267 1_565 S
O711 Pr681 2.437 . S
O711 C699 1.278 . S
H712 C684 0.929 . S
H713 C685 0.929 . S
H714 C687 0.931 1_545 S
H715 C688 0.897 1_545 S
H716 C693 0.929 . S
H717 C694 0.929 . S
H718 C696 0.931 1_565 S
H719 C697 0.906 1_565 S
Pr720 C722 2.880 . S
Pr720 O740 2.562 1_565 S
Pr720 O741 2.490 . S
Pr720 O742 2.695 . S
Pr720 O743 2.512 . S
Pr720 O745 2.437 . S
Pr720 O748 2.436 1_565 S
Pr720 O750 2.438 . S
Pr721 C731 2.880 . S
Pr721 O742 2.436 1_545 S
Pr721 O744 2.438 . S
Pr721 O746 2.562 1_545 S
Pr721 O747 2.490 . S
Pr721 O748 2.695 . S
Pr721 O749 2.512 . S
Pr721 O751 2.437 . S
C722 Pr720 2.880 . S
C722 C723 1.491 . S
C722 O740 1.254 1_565 S
C722 O741 1.225 . S
C723 C722 1.491 . S
C723 C724 1.392 . S
C723 C728 1.384 . S
C724 C723 1.392 . S
C724 C725 1.368 . S
C724 H752 0.929 . S
C725 C724 1.368 . S
C725 C726 1.386 . S
C725 H753 0.929 . S
C726 C725 1.386 . S
C726 C727 1.373 . S
C727 C726 1.373 . S
C727 C728 1.414 . S
C727 H754 0.931 1_565 S
C728 C723 1.384 . S
C728 C727 1.414 . S
C728 H755 0.897 1_565 S
C729 O742 1.270 . S
C729 O743 1.248 . S
C730 O744 1.267 1_565 S
C730 O745 1.278 . S
C731 Pr721 2.880 . S
C731 C732 1.491 . S
C731 O746 1.254 1_545 S
C731 O747 1.225 . S
C732 C731 1.491 . S
C732 C733 1.392 . S
C732 C737 1.376 . S
C733 C732 1.392 . S
C733 C734 1.368 . S
C733 H756 0.929 . S
C734 C733 1.368 . S
C734 C735 1.386 . S
C734 H757 0.929 . S
C735 C734 1.386 . S
C735 C736 1.373 . S
C736 C735 1.373 . S
C736 C737 1.412 . S
C736 H758 0.931 1_545 S
C737 C732 1.376 . S
C737 C736 1.412 . S
C737 H759 0.906 1_545 S
C738 O748 1.270 . S
C738 O749 1.248 . S
C739 O750 1.267 1_545 S
C739 O751 1.278 . S
O740 Pr720 2.562 1_545 S
O740 C722 1.254 1_545 S
O741 Pr720 2.490 . S
O741 C722 1.225 . S
O742 Pr720 2.695 . S
O742 Pr721 2.436 1_565 S
O742 C729 1.270 . S
O743 Pr720 2.512 . S
O743 C729 1.248 . S
O744 Pr721 2.438 . S
O744 C730 1.267 1_545 S
O745 Pr720 2.437 . S
O745 C730 1.278 . S
O746 Pr721 2.562 1_565 S
O746 C731 1.254 1_565 S
O747 Pr721 2.490 . S
O747 C731 1.225 . S
O748 Pr720 2.436 1_545 S
O748 Pr721 2.695 . S
O748 C738 1.270 . S
O749 Pr721 2.512 . S
O749 C738 1.248 . S
O750 Pr720 2.438 . S
O750 C739 1.267 1_565 S
O751 Pr721 2.437 . S
O751 C739 1.278 . S
H752 C724 0.929 . S
H753 C725 0.929 . S
H754 C727 0.931 1_545 S
H755 C728 0.897 1_545 S
H756 C733 0.929 . S
H757 C734 0.929 . S
H758 C736 0.931 1_565 S
H759 C737 0.906 1_565 S
Pr760 C762 2.880 . S
Pr760 O780 2.562 . S
Pr760 O781 2.490 . S
Pr760 O782 2.695 . S
Pr760 O783 2.512 . S
Pr760 O785 2.437 . S
Pr760 O788 2.436 . S
Pr760 O790 2.438 . S
Pr761 C771 2.880 . S
Pr761 O782 2.436 . S
Pr761 O784 2.438 . S
Pr761 O786 2.562 . S
Pr761 O787 2.490 . S
Pr761 O788 2.695 . S
Pr761 O789 2.512 . S
Pr761 O791 2.437 . S
C762 Pr760 2.880 . S
C762 C763 1.491 . S
C762 O780 1.254 . S
C762 O781 1.225 . S
C763 C762 1.491 . S
C763 C764 1.392 . S
C763 C768 1.356 . S
C764 C763 1.392 . S
C764 C765 1.368 . S
C764 H792 0.929 . S
C765 C764 1.368 . S
C765 C766 1.386 . S
C765 H793 0.929 . S
C766 C765 1.386 . S
C766 C767 1.373 . S
C767 C766 1.373 . S
C767 C768 1.409 . S
C767 H794 0.931 . S
C768 C763 1.356 . S
C768 C767 1.409 . S
C768 H795 0.930 . S
C769 O782 1.270 . S
C769 O783 1.248 . S
C770 O784 1.267 . S
C770 O785 1.278 . S
C771 Pr761 2.880 . S
C771 C772 1.491 . S
C771 O786 1.254 . S
C771 O787 1.225 . S
C772 C771 1.491 . S
C772 C773 1.392 . S
C772 C777 1.356 . S
C773 C772 1.392 . S
C773 C774 1.368 . S
C773 H796 0.929 . S
C774 C773 1.368 . S
C774 C775 1.386 . S
C774 H797 0.929 . S
C775 C774 1.386 . S
C775 C776 1.373 . S
C776 C775 1.373 . S
C776 C777 1.409 . S
C776 H798 0.931 . S
C777 C772 1.356 . S
C777 C776 1.409 . S
C777 H799 0.930 . S
C778 O788 1.270 . S
C778 O789 1.248 . S
C779 O790 1.267 . S
C779 O791 1.278 . S
O780 Pr760 2.562 . S
O780 C762 1.254 . S
O781 Pr760 2.490 . S
O781 C762 1.225 . S
O782 Pr760 2.695 . S
O782 Pr761 2.436 . S
O782 C769 1.270 . S
O783 Pr760 2.512 . S
O783 C769 1.248 . S
O784 Pr761 2.438 . S
O784 C770 1.267 . S
O785 Pr760 2.437 . S
O785 C770 1.278 . S
O786 Pr761 2.562 . S
O786 C771 1.254 . S
O787 Pr761 2.490 . S
O787 C771 1.225 . S
O788 Pr760 2.436 . S
O788 Pr761 2.695 . S
O788 C778 1.270 . S
O789 Pr761 2.512 . S
O789 C778 1.248 . S
O790 Pr760 2.438 . S
O790 C779 1.267 . S
O791 Pr761 2.437 . S
O791 C779 1.278 . S
H792 C764 0.929 . S
H793 C765 0.929 . S
H794 C767 0.931 . S
H795 C768 0.930 . S
H796 C773 0.929 . S
H797 C774 0.929 . S
H798 C776 0.931 . S
H799 C777 0.930 . S
Pr800 C802 2.880 . S
Pr800 O820 2.562 . S
Pr800 O821 2.490 . S
Pr800 O822 2.695 . S
Pr800 O823 2.512 . S
Pr800 O825 2.437 . S
Pr800 O828 2.436 . S
Pr800 O830 2.438 . S
Pr801 C811 2.880 . S
Pr801 O822 2.436 . S
Pr801 O824 2.438 . S
Pr801 O826 2.562 . S
Pr801 O827 2.490 . S
Pr801 O828 2.695 . S
Pr801 O829 2.512 . S
Pr801 O831 2.437 . S
C802 Pr800 2.880 . S
C802 C803 1.491 . S
C802 O820 1.254 . S
C802 O821 1.225 . S
C803 C802 1.491 . S
C803 C804 1.392 . S
C803 C808 1.356 . S
C804 C803 1.392 . S
C804 C805 1.368 1_554 S
C804 H832 0.929 . S
C805 C804 1.368 1_556 S
C805 C806 1.386 . S
C805 H833 0.929 . S
C806 C805 1.386 . S
C806 C807 1.373 . S
C807 C806 1.373 . S
C807 C808 1.409 1_556 S
C807 H834 0.931 . S
C808 C803 1.356 . S
C808 C807 1.409 1_554 S
C808 H835 0.930 . S
C809 O822 1.270 . S
C809 O823 1.248 . S
C810 O824 1.267 . S
C810 O825 1.278 . S
C811 Pr801 2.880 . S
C811 C812 1.491 . S
C811 O826 1.254 . S
C811 O827 1.225 . S
C812 C811 1.491 . S
C812 C813 1.392 . S
C812 C817 1.356 . S
C813 C812 1.392 . S
C813 C814 1.368 . S
C813 H836 0.929 . S
C814 C813 1.368 . S
C814 C815 1.386 . S
C814 H837 0.929 . S
C815 C814 1.386 . S
C815 C816 1.373 . S
C816 C815 1.373 . S
C816 C817 1.409 . S
C816 H838 0.931 . S
C817 C812 1.356 . S
C817 C816 1.409 . S
C817 H839 0.930 . S
C818 O828 1.270 . S
C818 O829 1.248 . S
C819 O830 1.267 . S
C819 O831 1.278 . S
O820 Pr800 2.562 . S
O820 C802 1.254 . S
O821 Pr800 2.490 . S
O821 C802 1.225 . S
O822 Pr800 2.695 . S
O822 Pr801 2.436 . S
O822 C809 1.270 . S
O823 Pr800 2.512 . S
O823 C809 1.248 . S
O824 Pr801 2.438 . S
O824 C810 1.267 . S
O825 Pr800 2.437 . S
O825 C810 1.278 . S
O826 Pr801 2.562 . S
O826 C811 1.254 . S
O827 Pr801 2.490 . S
O827 C811 1.225 . S
O828 Pr800 2.436 . S
O828 Pr801 2.695 . S
O828 C818 1.270 . S
O829 Pr801 2.512 . S
O829 C818 1.248 . S
O830 Pr800 2.438 . S
O830 C819 1.267 . S
O831 Pr801 2.437 . S
O831 C819 1.278 . S
H832 C804 0.929 . S
H833 C805 0.929 . S
H834 C807 0.931 . S
H835 C808 0.930 . S
H836 C813 0.929 . S
H837 C814 0.929 . S
H838 C816 0.931 . S
H839 C817 0.930 . S
Pr840 C842 2.880 . S
Pr840 O860 2.562 1_565 S
Pr840 O861 2.490 . S
Pr840 O862 2.695 . S
Pr840 O863 2.512 . S
Pr840 O865 2.437 . S
Pr840 O868 2.436 1_565 S
Pr840 O870 2.438 . S
Pr841 C851 2.880 . S
Pr841 O862 2.436 1_545 S
Pr841 O864 2.438 . S
Pr841 O866 2.562 1_545 S
Pr841 O867 2.490 . S
Pr841 O868 2.695 . S
Pr841 O869 2.512 . S
Pr841 O871 2.437 . S
C842 Pr840 2.880 . S
C842 C843 1.491 . S
C842 O860 1.254 1_565 S
C842 O861 1.225 . S
C843 C842 1.491 . S
C843 C844 1.392 . S
C843 C848 1.376 . S
C844 C843 1.392 . S
C844 C845 1.368 1_554 S
C844 H872 0.929 . S
C845 C844 1.368 1_556 S
C845 C846 1.386 . S
C845 H873 0.929 . S
C846 C845 1.386 . S
C846 C847 1.373 . S
C847 C846 1.373 . S
C847 C848 1.412 1_556 S
C847 H874 0.931 1_565 S
C848 C843 1.376 . S
C848 C847 1.412 1_554 S
C848 H875 0.906 1_565 S
C849 O862 1.270 . S
C849 O863 1.248 . S
C850 O864 1.267 1_565 S
C850 O865 1.278 . S
C851 Pr841 2.880 . S
C851 C852 1.491 . S
C851 O866 1.254 1_545 S
C851 O867 1.225 . S
C852 C851 1.491 . S
C852 C853 1.392 . S
C852 C857 1.384 . S
C853 C852 1.392 . S
C853 C854 1.368 . S
C853 H876 0.929 . S
C854 C853 1.368 . S
C854 C855 1.386 . S
C854 H877 0.929 . S
C855 C854 1.386 . S
C855 C856 1.373 . S
C856 C855 1.373 . S
C856 C857 1.414 . S
C856 H878 0.931 1_545 S
C857 C852 1.384 . S
C857 C856 1.414 . S
C857 H879 0.897 1_545 S
C858 O868 1.270 . S
C858 O869 1.248 . S
C859 O870 1.267 1_545 S
C859 O871 1.278 . S
O860 Pr840 2.562 1_545 S
O860 C842 1.254 1_545 S
O861 Pr840 2.490 . S
O861 C842 1.225 . S
O862 Pr840 2.695 . S
O862 Pr841 2.436 1_565 S
O862 C849 1.270 . S
O863 Pr840 2.512 . S
O863 C849 1.248 . S
O864 Pr841 2.438 . S
O864 C850 1.267 1_545 S
O865 Pr840 2.437 . S
O865 C850 1.278 . S
O866 Pr841 2.562 1_565 S
O866 C851 1.254 1_565 S
O867 Pr841 2.490 . S
O867 C851 1.225 . S
O868 Pr840 2.436 1_545 S
O868 Pr841 2.695 . S
O868 C858 1.270 . S
O869 Pr841 2.512 . S
O869 C858 1.248 . S
O870 Pr840 2.438 . S
O870 C859 1.267 1_565 S
O871 Pr841 2.437 . S
O871 C859 1.278 . S
H872 C844 0.929 . S
H873 C845 0.929 . S
H874 C847 0.931 1_545 S
H875 C848 0.906 1_545 S
H876 C853 0.929 . S
H877 C854 0.929 . S
H878 C856 0.931 1_565 S
H879 C857 0.897 1_565 S
Pr880 C882 2.880 . S
Pr880 O900 2.562 1_565 S
Pr880 O901 2.490 . S
Pr880 O902 2.695 . S
Pr880 O903 2.512 . S
Pr880 O905 2.437 . S
Pr880 O908 2.436 1_565 S
Pr880 O910 2.438 . S
Pr881 C891 2.880 . S
Pr881 O902 2.436 1_545 S
Pr881 O904 2.438 . S
Pr881 O906 2.562 1_545 S
Pr881 O907 2.490 . S
Pr881 O908 2.695 . S
Pr881 O909 2.512 . S
Pr881 O911 2.437 . S
C882 Pr880 2.880 . S
C882 C883 1.491 . S
C882 O900 1.254 1_565 S
C882 O901 1.225 . S
C883 C882 1.491 . S
C883 C884 1.392 . S
C883 C888 1.376 . S
C884 C883 1.392 . S
C884 C885 1.368 . S
C884 H912 0.929 . S
C885 C884 1.368 . S
C885 C886 1.386 . S
C885 H913 0.929 . S
C886 C885 1.386 . S
C886 C887 1.373 . S
C887 C886 1.373 . S
C887 C888 1.412 . S
C887 H914 0.931 1_565 S
C888 C883 1.376 . S
C888 C887 1.412 . S
C888 H915 0.906 1_565 S
C889 O902 1.270 . S
C889 O903 1.248 . S
C890 O904 1.267 1_565 S
C890 O905 1.278 . S
C891 Pr881 2.880 . S
C891 C892 1.491 . S
C891 O906 1.254 1_545 S
C891 O907 1.225 . S
C892 C891 1.491 . S
C892 C893 1.392 . S
C892 C897 1.384 . S
C893 C892 1.392 . S
C893 C894 1.368 . S
C893 H916 0.929 . S
C894 C893 1.368 . S
C894 C895 1.386 . S
C894 H917 0.929 . S
C895 C894 1.386 . S
C895 C896 1.373 . S
C896 C895 1.373 . S
C896 C897 1.414 . S
C896 H918 0.931 1_545 S
C897 C892 1.384 . S
C897 C896 1.414 . S
C897 H919 0.897 1_545 S
C898 O908 1.270 . S
C898 O909 1.248 . S
C899 O910 1.267 1_545 S
C899 O911 1.278 . S
O900 Pr880 2.562 1_545 S
O900 C882 1.254 1_545 S
O901 Pr880 2.490 . S
O901 C882 1.225 . S
O902 Pr880 2.695 . S
O902 Pr881 2.436 1_565 S
O902 C889 1.270 . S
O903 Pr880 2.512 . S
O903 C889 1.248 . S
O904 Pr881 2.438 . S
O904 C890 1.267 1_545 S
O905 Pr880 2.437 . S
O905 C890 1.278 . S
O906 Pr881 2.562 1_565 S
O906 C891 1.254 1_565 S
O907 Pr881 2.490 . S
O907 C891 1.225 . S
O908 Pr880 2.436 1_545 S
O908 Pr881 2.695 . S
O908 C898 1.270 . S
O909 Pr881 2.512 . S
O909 C898 1.248 . S
O910 Pr880 2.438 . S
O910 C899 1.267 1_565 S
O911 Pr881 2.437 . S
O911 C899 1.278 . S
H912 C884 0.929 . S
H913 C885 0.929 . S
H914 C887 0.931 1_545 S
H915 C888 0.906 1_545 S
H916 C893 0.929 . S
H917 C894 0.929 . S
H918 C896 0.931 1_565 S
H919 C897 0.897 1_565 S
Pr920 C922 2.880 . S
Pr920 O940 2.562 . S
Pr920 O941 2.490 . S
Pr920 O942 2.695 . S
Pr920 O943 2.512 . S
Pr920 O945 2.437 . S
Pr920 O948 2.436 . S
Pr920 O950 2.438 . S
Pr921 C931 2.880 . S
Pr921 O942 2.436 . S
Pr921 O944 2.438 . S
Pr921 O946 2.562 . S
Pr921 O947 2.490 . S
Pr921 O948 2.695 . S
Pr921 O949 2.512 . S
Pr921 O951 2.437 . S
C922 Pr920 2.880 . S
C922 C923 1.491 . S
C922 O940 1.254 . S
C922 O941 1.225 . S
C923 C922 1.491 . S
C923 C924 1.392 . S
C923 C928 1.356 . S
C924 C923 1.392 . S
C924 C925 1.368 . S
C924 H952 0.929 . S
C925 C924 1.368 . S
C925 C926 1.386 . S
C925 H953 0.929 . S
C926 C925 1.386 . S
C926 C927 1.373 . S
C927 C926 1.373 . S
C927 C928 1.409 . S
C927 H954 0.931 . S
C928 C923 1.356 . S
C928 C927 1.409 . S
C928 H955 0.930 . S
C929 O942 1.270 . S
C929 O943 1.248 . S
C930 O944 1.267 . S
C930 O945 1.278 . S
C931 Pr921 2.880 . S
C931 C932 1.491 . S
C931 O946 1.254 . S
C931 O947 1.225 . S
C932 C931 1.491 . S
C932 C933 1.392 . S
C932 C937 1.356 . S
C933 C932 1.392 . S
C933 C934 1.368 . S
C933 H956 0.929 . S
C934 C933 1.368 . S
C934 C935 1.386 . S
C934 H957 0.929 . S
C935 C934 1.386 . S
C935 C936 1.373 . S
C936 C935 1.373 . S
C936 C937 1.409 . S
C936 H958 0.931 . S
C937 C932 1.356 . S
C937 C936 1.409 . S
C937 H959 0.930 . S
C938 O948 1.270 . S
C938 O949 1.248 . S
C939 O950 1.267 . S
C939 O951 1.278 . S
O940 Pr920 2.562 . S
O940 C922 1.254 . S
O941 Pr920 2.490 . S
O941 C922 1.225 . S
O942 Pr920 2.695 . S
O942 Pr921 2.436 . S
O942 C929 1.270 . S
O943 Pr920 2.512 . S
O943 C929 1.248 . S
O944 Pr921 2.438 . S
O944 C930 1.267 . S
O945 Pr920 2.437 . S
O945 C930 1.278 . S
O946 Pr921 2.562 . S
O946 C931 1.254 . S
O947 Pr921 2.490 . S
O947 C931 1.225 . S
O948 Pr920 2.436 . S
O948 Pr921 2.695 . S
O948 C938 1.270 . S
O949 Pr921 2.512 . S
O949 C938 1.248 . S
O950 Pr920 2.438 . S
O950 C939 1.267 . S
O951 Pr921 2.437 . S
O951 C939 1.278 . S
H952 C924 0.929 . S
H953 C925 0.929 . S
H954 C927 0.931 . S
H955 C928 0.930 . S
H956 C933 0.929 . S
H957 C934 0.929 . S
H958 C936 0.931 . S
H959 C937 0.930 . S
Pr960 C962 2.880 . S
Pr960 O980 2.562 . S
Pr960 O981 2.490 . S
Pr960 O982 2.695 . S
Pr960 O983 2.512 . S
Pr960 O985 2.437 . S
Pr960 O988 2.436 . S
Pr960 O990 2.438 . S
Pr961 C971 2.880 . S
Pr961 O982 2.436 . S
Pr961 O984 2.438 . S
Pr961 O986 2.562 . S
Pr961 O987 2.490 . S
Pr961 O988 2.695 . S
Pr961 O989 2.512 . S
Pr961 O991 2.437 . S
C962 Pr960 2.880 . S
C962 C963 1.491 1_554 S
C962 O980 1.254 . S
C962 O981 1.225 . S
C963 C962 1.491 1_556 S
C963 C964 1.392 . S
C963 C968 1.356 . S
C964 C963 1.392 . S
C964 C965 1.368 . S
C964 H992 0.929 . S
C965 C964 1.368 . S
C965 C966 1.386 . S
C965 H993 0.929 . S
C966 C965 1.386 . S
C966 C967 1.373 . S
C967 C966 1.373 . S
C967 C968 1.409 . S
C967 H994 0.931 . S
C968 C963 1.356 . S
C968 C967 1.409 . S
C968 H995 0.930 . S
C969 O982 1.270 . S
C969 O983 1.248 . S
C970 O984 1.267 . S
C970 O985 1.278 . S
C971 Pr961 2.880 . S
C971 C972 1.491 . S
C971 O986 1.254 . S
C971 O987 1.225 . S
C972 C971 1.491 . S
C972 C973 1.392 . S
C972 C977 1.356 . S
C973 C972 1.392 . S
C973 C974 1.368 . S
C973 H996 0.929 . S
C974 C973 1.368 . S
C974 C975 1.386 . S
C974 H997 0.929 . S
C975 C974 1.386 . S
C975 C976 1.373 . S
C976 C975 1.373 . S
C976 C977 1.409 . S
C976 H998 0.931 . S
C977 C972 1.356 . S
C977 C976 1.409 . S
C977 H999 0.930 . S
C978 O988 1.270 . S
C978 O989 1.248 . S
C979 O990 1.267 . S
C979 O991 1.278 . S
O980 Pr960 2.562 . S
O980 C962 1.254 . S
O981 Pr960 2.490 . S
O981 C962 1.225 . S
O982 Pr960 2.695 . S
O982 Pr961 2.436 . S
O982 C969 1.270 . S
O983 Pr960 2.512 . S
O983 C969 1.248 . S
O984 Pr961 2.438 . S
O984 C970 1.267 . S
O985 Pr960 2.437 . S
O985 C970 1.278 . S
O986 Pr961 2.562 . S
O986 C971 1.254 . S
O987 Pr961 2.490 . S
O987 C971 1.225 . S
O988 Pr960 2.436 . S
O988 Pr961 2.695 . S
O988 C978 1.270 . S
O989 Pr961 2.512 . S
O989 C978 1.248 . S
O990 Pr960 2.438 . S
O990 C979 1.267 . S
O991 Pr961 2.437 . S
O991 C979 1.278 . S
H992 C964 0.929 . S
H993 C965 0.929 . S
H994 C967 0.931 . S
H995 C968 0.930 . S
H996 C973 0.929 . S
H997 C974 0.929 . S
H998 C976 0.931 . S
H999 C977 0.930 . S
Pr1000 C1002 2.880 . S
Pr1000 O1020 2.562 . S
Pr1000 O1021 2.490 . S
Pr1000 O1022 2.695 . S
Pr1000 O1023 2.512 . S
Pr1000 O1025 2.437 . S
Pr1000 O1028 2.436 . S
Pr1000 O1030 2.438 . S
Pr1001 C1011 2.880 . S
Pr1001 O1022 2.436 . S
Pr1001 O1024 2.438 . S
Pr1001 O1026 2.562 . S
Pr1001 O1027 2.490 . S
Pr1001 O1028 2.695 . S
Pr1001 O1029 2.512 . S
Pr1001 O1031 2.437 . S
C1002 Pr1000 2.880 . S
C1002 C1003 1.491 1_554 S
C1002 O1020 1.254 . S
C1002 O1021 1.225 . S
C1003 C1002 1.491 1_556 S
C1003 C1004 1.392 . S
C1003 C1008 1.356 . S
C1004 C1003 1.392 . S
C1004 C1005 1.368 . S
C1004 H1032 0.929 . S
C1005 C1004 1.368 . S
C1005 C1006 1.386 . S
C1005 H1033 0.929 . S
C1006 C1005 1.386 . S
C1006 C1007 1.373 . S
C1007 C1006 1.373 . S
C1007 C1008 1.409 . S
C1007 H1034 0.931 . S
C1008 C1003 1.356 . S
C1008 C1007 1.409 . S
C1008 H1035 0.930 . S
C1009 O1022 1.270 . S
C1009 O1023 1.248 . S
C1010 O1024 1.267 . S
C1010 O1025 1.278 . S
C1011 Pr1001 2.880 . S
C1011 C1012 1.491 . S
C1011 O1026 1.254 . S
C1011 O1027 1.225 . S
C1012 C1011 1.491 . S
C1012 C1013 1.392 . S
C1012 C1017 1.356 . S
C1013 C1012 1.392 . S
C1013 C1014 1.368 . S
C1013 H1036 0.929 . S
C1014 C1013 1.368 . S
C1014 C1015 1.386 . S
C1014 H1037 0.929 . S
C1015 C1014 1.386 . S
C1015 C1016 1.373 . S
C1016 C1015 1.373 . S
C1016 C1017 1.409 . S
C1016 H1038 0.931 . S
C1017 C1012 1.356 . S
C1017 C1016 1.409 . S
C1017 H1039 0.930 . S
C1018 O1028 1.270 . S
C1018 O1029 1.248 . S
C1019 O1030 1.267 . S
C1019 O1031 1.278 . S
O1020 Pr1000 2.562 . S
O1020 C1002 1.254 . S
O1021 Pr1000 2.490 . S
O1021 C1002 1.225 . S
O1022 Pr1000 2.695 . S
O1022 Pr1001 2.436 . S
O1022 C1009 1.270 . S
O1023 Pr1000 2.512 . S
O1023 C1009 1.248 . S
O1024 Pr1001 2.438 . S
O1024 C1010 1.267 . S
O1025 Pr1000 2.437 . S
O1025 C1010 1.278 . S
O1026 Pr1001 2.562 . S
O1026 C1011 1.254 . S
O1027 Pr1001 2.490 . S
O1027 C1011 1.225 . S
O1028 Pr1000 2.436 . S
O1028 Pr1001 2.695 . S
O1028 C1018 1.270 . S
O1029 Pr1001 2.512 . S
O1029 C1018 1.248 . S
O1030 Pr1000 2.438 . S
O1030 C1019 1.267 . S
O1031 Pr1001 2.437 . S
O1031 C1019 1.278 . S
H1032 C1004 0.929 . S
H1033 C1005 0.929 . S
H1034 C1007 0.931 . S
H1035 C1008 0.930 . S
H1036 C1013 0.929 . S
H1037 C1014 0.929 . S
H1038 C1016 0.931 . S
H1039 C1017 0.930 . S
Pr1040 C1042 2.880 . S
Pr1040 O1060 2.562 . S
Pr1040 O1061 2.490 . S
Pr1040 O1062 2.697 . S
Pr1040 O1063 2.512 . S
Pr1040 O1065 2.437 . S
Pr1040 O1068 2.436 . S
Pr1040 O1070 2.438 . S
Pr1041 C1051 2.880 . S
Pr1041 O1062 2.435 1_556 S
Pr1041 O1064 2.438 1_556 S
Pr1041 O1066 2.562 . S
Pr1041 O1067 2.490 . S
Pr1041 O1068 2.695 1_556 S
Pr1041 O1069 2.508 1_556 S
Pr1041 O1071 2.437 . S
C1042 Pr1040 2.880 . S
C1042 C1043 1.491 . S
C1042 O1060 1.254 . S
C1042 O1061 1.225 . S
C1043 C1042 1.491 . S
C1043 C1044 1.392 . S
C1043 C1048 1.356 . S
C1044 C1043 1.392 . S
C1044 C1045 1.368 . S
C1044 H1072 0.929 . S
C1045 C1044 1.368 . S
C1045 C1046 1.386 . S
C1045 H1073 0.929 . S
C1046 C1045 1.386 . S
C1046 C1047 1.373 . S
C1047 C1046 1.373 . S
C1047 C1048 1.409 . S
C1047 H1074 0.931 . S
C1048 C1043 1.356 . S
C1048 C1047 1.409 . S
C1048 H1075 0.930 . S
C1049 O1062 1.271 . S
C1049 O1063 1.248 . S
C1050 O1064 1.267 . S
C1050 O1065 1.278 . S
C1051 Pr1041 2.880 . S
C1051 C1052 1.491 . S
C1051 O1066 1.254 . S
C1051 O1067 1.225 . S
C1052 C1051 1.491 . S
C1052 C1053 1.392 . S
C1052 C1057 1.356 . S
C1053 C1052 1.392 . S
C1053 C1054 1.368 . S
C1053 H1076 0.929 . S
C1054 C1053 1.368 . S
C1054 C1055 1.386 . S
C1054 H1077 0.929 . S
C1055 C1054 1.386 . S
C1055 C1056 1.373 . S
C1056 C1055 1.373 . S
C1056 C1057 1.409 . S
C1056 H1078 0.931 . S
C1057 C1052 1.356 . S
C1057 C1056 1.409 . S
C1057 H1079 0.930 . S
C1058 O1068 1.270 . S
C1058 O1069 1.261 . S
C1059 O1070 1.267 1_556 S
C1059 O1071 1.278 . S
O1060 Pr1040 2.562 . S
O1060 C1042 1.254 . S
O1061 Pr1040 2.490 . S
O1061 C1042 1.225 . S
O1062 Pr1040 2.697 . S
O1062 Pr1041 2.435 1_554 S
O1062 C1049 1.271 . S
O1063 Pr1040 2.512 . S
O1063 C1049 1.248 . S
O1064 Pr1041 2.438 1_554 S
O1064 C1050 1.267 . S
O1065 Pr1040 2.437 . S
O1065 C1050 1.278 . S
O1066 Pr1041 2.562 . S
O1066 C1051 1.254 . S
O1067 Pr1041 2.490 . S
O1067 C1051 1.225 . S
O1068 Pr1040 2.436 . S
O1068 Pr1041 2.695 1_554 S
O1068 C1058 1.270 . S
O1069 Pr1041 2.508 1_554 S
O1069 C1058 1.261 . S
O1070 Pr1040 2.438 . S
O1070 C1059 1.267 1_554 S
O1071 Pr1041 2.437 . S
O1071 C1059 1.278 . S
H1072 C1044 0.929 . S
H1073 C1045 0.929 . S
H1074 C1047 0.931 . S
H1075 C1048 0.930 . S
H1076 C1053 0.929 . S
H1077 C1054 0.929 . S
H1078 C1056 0.931 . S
H1079 C1057 0.930 . S
Pr1080 C1082 2.880 . S
Pr1080 O1100 2.562 . S
Pr1080 O1101 2.490 . S
Pr1080 O1102 2.692 1_554 S
Pr1080 O1103 2.512 . S
Pr1080 O1105 2.437 . S
Pr1080 O1108 2.436 . S
Pr1080 O1110 2.438 . S
Pr1081 C1091 2.880 . S
Pr1081 O1102 2.437 . S
Pr1081 O1104 2.438 1_556 S
Pr1081 O1106 2.562 . S
Pr1081 O1107 2.490 . S
Pr1081 O1108 2.695 1_556 S
Pr1081 O1109 2.508 1_556 S
Pr1081 O1111 2.437 . S
C1082 Pr1080 2.880 . S
C1082 C1083 1.491 . S
C1082 O1100 1.254 . S
C1082 O1101 1.225 . S
C1083 C1082 1.491 . S
C1083 C1084 1.392 . S
C1083 C1088 1.356 . S
C1084 C1083 1.392 . S
C1084 C1085 1.368 . S
C1084 H1112 0.929 . S
C1085 C1084 1.368 . S
C1085 C1086 1.386 . S
C1085 H1113 0.929 . S
C1086 C1085 1.386 . S
C1086 C1087 1.373 . S
C1087 C1086 1.373 . S
C1087 C1088 1.409 . S
C1087 H1114 0.931 . S
C1088 C1083 1.356 . S
C1088 C1087 1.409 . S
C1088 H1115 0.930 . S
C1089 O1102 1.269 1_554 S
C1089 O1103 1.248 . S
C1090 O1104 1.267 . S
C1090 O1105 1.278 . S
C1091 Pr1081 2.880 . S
C1091 C1092 1.491 . S
C1091 O1106 1.254 . S
C1091 O1107 1.225 . S
C1092 C1091 1.491 . S
C1092 C1093 1.392 . S
C1092 C1097 1.356 . S
C1093 C1092 1.392 . S
C1093 C1094 1.368 . S
C1093 H1116 0.929 . S
C1094 C1093 1.368 . S
C1094 C1095 1.386 . S
C1094 H1117 0.929 . S
C1095 C1094 1.386 . S
C1095 C1096 1.373 . S
C1096 C1095 1.373 . S
C1096 C1097 1.409 . S
C1096 H1118 0.931 . S
C1097 C1092 1.356 . S
C1097 C1096 1.409 . S
C1097 H1119 0.930 . S
C1098 O1108 1.270 . S
C1098 O1109 1.260 . S
C1099 O1110 1.267 1_556 S
C1099 O1111 1.278 . S
O1100 Pr1080 2.562 . S
O1100 C1082 1.254 . S
O1101 Pr1080 2.490 . S
O1101 C1082 1.225 . S
O1102 Pr1080 2.692 1_556 S
O1102 Pr1081 2.437 . S
O1102 C1089 1.269 1_556 S
O1103 Pr1080 2.512 . S
O1103 C1089 1.248 . S
O1104 Pr1081 2.438 1_554 S
O1104 C1090 1.267 . S
O1105 Pr1080 2.437 . S
O1105 C1090 1.278 . S
O1106 Pr1081 2.562 . S
O1106 C1091 1.254 . S
O1107 Pr1081 2.490 . S
O1107 C1091 1.225 . S
O1108 Pr1080 2.436 . S
O1108 Pr1081 2.695 1_554 S
O1108 C1098 1.270 . S
O1109 Pr1081 2.508 1_554 S
O1109 C1098 1.260 . S
O1110 Pr1080 2.438 . S
O1110 C1099 1.267 1_554 S
O1111 Pr1081 2.437 . S
O1111 C1099 1.278 . S
H1112 C1084 0.929 . S
H1113 C1085 0.929 . S
H1114 C1087 0.931 . S
H1115 C1088 0.930 . S
H1116 C1093 0.929 . S
H1117 C1094 0.929 . S
H1118 C1096 0.931 . S
H1119 C1097 0.930 . S
Pr1120 C1122 2.880 . S
Pr1120 O1140 2.562 . S
Pr1120 O1141 2.490 . S
Pr1120 O1142 2.695 . S
Pr1120 O1143 2.512 . S
Pr1120 O1145 2.437 . S
Pr1120 O1148 2.436 . S
Pr1120 O1150 2.438 . S
Pr1121 C1131 2.880 . S
Pr1121 O1142 2.436 . S
Pr1121 O1144 2.438 . S
Pr1121 O1146 2.562 . S
Pr1121 O1147 2.490 . S
Pr1121 O1148 2.695 . S
Pr1121 O1149 2.512 . S
Pr1121 O1151 2.437 . S
C1122 Pr1120 2.880 . S
C1122 C1123 1.491 . S
C1122 O1140 1.254 . S
C1122 O1141 1.225 . S
C1123 C1122 1.491 . S
C1123 C1124 1.392 . S
C1123 C1128 1.356 . S
C1124 C1123 1.392 . S
C1124 C1125 1.368 . S
C1124 H1152 0.929 . S
C1125 C1124 1.368 . S
C1125 C1126 1.386 . S
C1125 H1153 0.929 . S
C1126 C1125 1.386 . S
C1126 C1127 1.373 . S
C1127 C1126 1.373 . S
C1127 C1128 1.409 . S
C1127 H1154 0.931 . S
C1128 C1123 1.356 . S
C1128 C1127 1.409 . S
C1128 H1155 0.930 . S
C1129 O1142 1.270 . S
C1129 O1143 1.248 . S
C1130 O1144 1.267 . S
C1130 O1145 1.278 . S
C1131 Pr1121 2.880 . S
C1131 C1132 1.491 1_556 S
C1131 O1146 1.254 . S
C1131 O1147 1.225 . S
C1132 C1131 1.491 1_554 S
C1132 C1133 1.392 . S
C1132 C1137 1.356 . S
C1133 C1132 1.392 . S
C1133 C1134 1.368 . S
C1133 H1156 0.929 . S
C1134 C1133 1.368 . S
C1134 C1135 1.386 . S
C1134 H1157 0.929 . S
C1135 C1134 1.386 . S
C1135 C1136 1.373 . S
C1136 C1135 1.373 . S
C1136 C1137 1.409 . S
C1136 H1158 0.931 . S
C1137 C1132 1.356 . S
C1137 C1136 1.409 . S
C1137 H1159 0.930 . S
C1138 O1148 1.270 . S
C1138 O1149 1.248 . S
C1139 O1150 1.267 . S
C1139 O1151 1.278 . S
O1140 Pr1120 2.562 . S
O1140 C1122 1.254 . S
O1141 Pr1120 2.490 . S
O1141 C1122 1.225 . S
O1142 Pr1120 2.695 . S
O1142 Pr1121 2.436 . S
O1142 C1129 1.270 . S
O1143 Pr1120 2.512 . S
O1143 C1129 1.248 . S
O1144 Pr1121 2.438 . S
O1144 C1130 1.267 . S
O1145 Pr1120 2.437 . S
O1145 C1130 1.278 . S
O1146 Pr1121 2.562 . S
O1146 C1131 1.254 . S
O1147 Pr1121 2.490 . S
O1147 C1131 1.225 . S
O1148 Pr1120 2.436 . S
O1148 Pr1121 2.695 . S
O1148 C1138 1.270 . S
O1149 Pr1121 2.512 . S
O1149 C1138 1.248 . S
O1150 Pr1120 2.438 . S
O1150 C1139 1.267 . S
O1151 Pr1121 2.437 . S
O1151 C1139 1.278 . S
H1152 C1124 0.929 . S
H1153 C1125 0.929 . S
H1154 C1127 0.931 . S
H1155 C1128 0.930 . S
H1156 C1133 0.929 . S
H1157 C1134 0.929 . S
H1158 C1136 0.931 . S
H1159 C1137 0.930 . S
Pr1160 C1162 2.880 . S
Pr1160 O1180 2.562 . S
Pr1160 O1181 2.490 . S
Pr1160 O1182 2.695 . S
Pr1160 O1183 2.512 . S
Pr1160 O1185 2.437 . S
Pr1160 O1188 2.436 . S
Pr1160 O1190 2.438 . S
Pr1161 C1171 2.880 . S
Pr1161 O1182 2.436 . S
Pr1161 O1184 2.438 . S
Pr1161 O1186 2.562 . S
Pr1161 O1187 2.490 . S
Pr1161 O1188 2.695 . S
Pr1161 O1189 2.512 . S
Pr1161 O1191 2.437 . S
C1162 Pr1160 2.880 . S
C1162 C1163 1.491 . S
C1162 O1180 1.254 . S
C1162 O1181 1.225 . S
C1163 C1162 1.491 . S
C1163 C1164 1.392 . S
C1163 C1168 1.356 . S
C1164 C1163 1.392 . S
C1164 C1165 1.368 . S
C1164 H1192 0.929 . S
C1165 C1164 1.368 . S
C1165 C1166 1.386 . S
C1165 H1193 0.929 . S
C1166 C1165 1.386 . S
C1166 C1167 1.373 . S
C1167 C1166 1.373 . S
C1167 C1168 1.409 . S
C1167 H1194 0.931 . S
C1168 C1163 1.356 . S
C1168 C1167 1.409 . S
C1168 H1195 0.930 . S
C1169 O1182 1.270 . S
C1169 O1183 1.248 . S
C1170 O1184 1.267 . S
C1170 O1185 1.278 . S
C1171 Pr1161 2.880 . S
C1171 C1172 1.491 1_556 S
C1171 O1186 1.254 . S
C1171 O1187 1.225 . S
C1172 C1171 1.491 1_554 S
C1172 C1173 1.392 . S
C1172 C1177 1.356 . S
C1173 C1172 1.392 . S
C1173 C1174 1.368 . S
C1173 H1196 0.929 . S
C1174 C1173 1.368 . S
C1174 C1175 1.386 . S
C1174 H1197 0.929 . S
C1175 C1174 1.386 . S
C1175 C1176 1.373 . S
C1176 C1175 1.373 . S
C1176 C1177 1.409 . S
C1176 H1198 0.931 . S
C1177 C1172 1.356 . S
C1177 C1176 1.409 . S
C1177 H1199 0.930 . S
C1178 O1188 1.270 . S
C1178 O1189 1.248 . S
C1179 O1190 1.267 . S
C1179 O1191 1.278 . S
O1180 Pr1160 2.562 . S
O1180 C1162 1.254 . S
O1181 Pr1160 2.490 . S
O1181 C1162 1.225 . S
O1182 Pr1160 2.695 . S
O1182 Pr1161 2.436 . S
O1182 C1169 1.270 . S
O1183 Pr1160 2.512 . S
O1183 C1169 1.248 . S
O1184 Pr1161 2.438 . S
O1184 C1170 1.267 . S
O1185 Pr1160 2.437 . S
O1185 C1170 1.278 . S
O1186 Pr1161 2.562 . S
O1186 C1171 1.254 . S
O1187 Pr1161 2.490 . S
O1187 C1171 1.225 . S
O1188 Pr1160 2.436 . S
O1188 Pr1161 2.695 . S
O1188 C1178 1.270 . S
O1189 Pr1161 2.512 . S
O1189 C1178 1.248 . S
O1190 Pr1160 2.438 . S
O1190 C1179 1.267 . S
O1191 Pr1161 2.437 . S
O1191 C1179 1.278 . S
H1192 C1164 0.929 . S
H1193 C1165 0.929 . S
H1194 C1167 0.931 . S
H1195 C1168 0.930 . S
H1196 C1173 0.929 . S
H1197 C1174 0.929 . S
H1198 C1176 0.931 . S
H1199 C1177 0.930 . S
Pr1200 C1202 2.880 . S
Pr1200 O1220 2.562 . S
Pr1200 O1221 2.490 . S
Pr1200 O1222 2.695 1_554 S
Pr1200 O1223 2.508 1_554 S
Pr1200 O1225 2.437 . S
Pr1200 O1228 2.435 1_554 S
Pr1200 O1230 2.438 1_554 S
Pr1201 C1211 2.880 . S
Pr1201 O1222 2.436 . S
Pr1201 O1224 2.438 . S
Pr1201 O1226 2.562 . S
Pr1201 O1227 2.490 . S
Pr1201 O1228 2.697 . S
Pr1201 O1229 2.512 . S
Pr1201 O1231 2.437 . S
C1202 Pr1200 2.880 . S
C1202 C1203 1.491 . S
C1202 O1220 1.254 . S
C1202 O1221 1.225 . S
C1203 C1202 1.491 . S
C1203 C1204 1.392 . S
C1203 C1208 1.356 . S
C1204 C1203 1.392 . S
C1204 C1205 1.368 . S
C1204 H1232 0.929 . S
C1205 C1204 1.368 . S
C1205 C1206 1.386 . S
C1205 H1233 0.929 . S
C1206 C1205 1.386 . S
C1206 C1207 1.373 . S
C1207 C1206 1.373 . S
C1207 C1208 1.409 . S
C1207 H1234 0.931 . S
C1208 C1203 1.356 . S
C1208 C1207 1.409 . S
C1208 H1235 0.930 . S
C1209 O1222 1.270 . S
C1209 O1223 1.261 . S
C1210 O1224 1.267 1_554 S
C1210 O1225 1.278 . S
C1211 Pr1201 2.880 . S
C1211 C1212 1.491 . S
C1211 O1226 1.254 . S
C1211 O1227 1.225 . S
C1212 C1211 1.491 . S
C1212 C1213 1.392 . S
C1212 C1217 1.356 . S
C1213 C1212 1.392 . S
C1213 C1214 1.368 . S
C1213 H1236 0.929 . S
C1214 C1213 1.368 . S
C1214 C1215 1.386 . S
C1214 H1237 0.929 . S
C1215 C1214 1.386 . S
C1215 C1216 1.373 . S
C1216 C1215 1.373 . S
C1216 C1217 1.409 . S
C1216 H1238 0.931 . S
C1217 C1212 1.356 . S
C1217 C1216 1.409 . S
C1217 H1239 0.930 . S
C1218 O1228 1.271 . S
C1218 O1229 1.248 . S
C1219 O1230 1.267 . S
C1219 O1231 1.278 . S
O1220 Pr1200 2.562 . S
O1220 C1202 1.254 . S
O1221 Pr1200 2.490 . S
O1221 C1202 1.225 . S
O1222 Pr1200 2.695 1_556 S
O1222 Pr1201 2.436 . S
O1222 C1209 1.270 . S
O1223 Pr1200 2.508 1_556 S
O1223 C1209 1.261 . S
O1224 Pr1201 2.438 . S
O1224 C1210 1.267 1_556 S
O1225 Pr1200 2.437 . S
O1225 C1210 1.278 . S
O1226 Pr1201 2.562 . S
O1226 C1211 1.254 . S
O1227 Pr1201 2.490 . S
O1227 C1211 1.225 . S
O1228 Pr1200 2.435 1_556 S
O1228 Pr1201 2.697 . S
O1228 C1218 1.271 . S
O1229 Pr1201 2.512 . S
O1229 C1218 1.248 . S
O1230 Pr1200 2.438 1_556 S
O1230 C1219 1.267 . S
O1231 Pr1201 2.437 . S
O1231 C1219 1.278 . S
H1232 C1204 0.929 . S
H1233 C1205 0.929 . S
H1234 C1207 0.931 . S
H1235 C1208 0.930 . S
H1236 C1213 0.929 . S
H1237 C1214 0.929 . S
H1238 C1216 0.931 . S
H1239 C1217 0.930 . S
Pr1240 C1242 2.880 . S
Pr1240 O1260 2.562 . S
Pr1240 O1261 2.490 . S
Pr1240 O1262 2.695 1_554 S
Pr1240 O1263 2.508 1_554 S
Pr1240 O1265 2.437 . S
Pr1240 O1268 2.437 . S
Pr1240 O1270 2.438 1_554 S
Pr1241 C1251 2.880 . S
Pr1241 O1262 2.436 . S
Pr1241 O1264 2.438 . S
Pr1241 O1266 2.562 . S
Pr1241 O1267 2.490 . S
Pr1241 O1268 2.692 1_556 S
Pr1241 O1269 2.512 . S
Pr1241 O1271 2.437 . S
C1242 Pr1240 2.880 . S
C1242 C1243 1.491 . S
C1242 O1260 1.254 . S
C1242 O1261 1.225 . S
C1243 C1242 1.491 . S
C1243 C1244 1.392 . S
C1243 C1248 1.356 . S
C1244 C1243 1.392 . S
C1244 C1245 1.368 . S
C1244 H1272 0.929 . S
C1245 C1244 1.368 . S
C1245 C1246 1.386 . S
C1245 H1273 0.929 . S
C1246 C1245 1.386 . S
C1246 C1247 1.373 . S
C1247 C1246 1.373 . S
C1247 C1248 1.409 . S
C1247 H1274 0.931 . S
C1248 C1243 1.356 . S
C1248 C1247 1.409 . S
C1248 H1275 0.930 . S
C1249 O1262 1.270 . S
C1249 O1263 1.260 . S
C1250 O1264 1.267 1_554 S
C1250 O1265 1.278 . S
C1251 Pr1241 2.880 . S
C1251 C1252 1.491 . S
C1251 O1266 1.254 . S
C1251 O1267 1.225 . S
C1252 C1251 1.491 . S
C1252 C1253 1.392 . S
C1252 C1257 1.356 . S
C1253 C1252 1.392 . S
C1253 C1254 1.368 . S
C1253 H1276 0.929 . S
C1254 C1253 1.368 . S
C1254 C1255 1.386 . S
C1254 H1277 0.929 . S
C1255 C1254 1.386 . S
C1255 C1256 1.373 . S
C1256 C1255 1.373 . S
C1256 C1257 1.409 . S
C1256 H1278 0.931 . S
C1257 C1252 1.356 . S
C1257 C1256 1.409 . S
C1257 H1279 0.930 . S
C1258 O1268 1.269 1_556 S
C1258 O1269 1.248 . S
C1259 O1270 1.267 . S
C1259 O1271 1.278 . S
O1260 Pr1240 2.562 . S
O1260 C1242 1.254 . S
O1261 Pr1240 2.490 . S
O1261 C1242 1.225 . S
O1262 Pr1240 2.695 1_556 S
O1262 Pr1241 2.436 . S
O1262 C1249 1.270 . S
O1263 Pr1240 2.508 1_556 S
O1263 C1249 1.260 . S
O1264 Pr1241 2.438 . S
O1264 C1250 1.267 1_556 S
O1265 Pr1240 2.437 . S
O1265 C1250 1.278 . S
O1266 Pr1241 2.562 . S
O1266 C1251 1.254 . S
O1267 Pr1241 2.490 . S
O1267 C1251 1.225 . S
O1268 Pr1240 2.437 . S
O1268 Pr1241 2.692 1_554 S
O1268 C1258 1.269 1_554 S
O1269 Pr1241 2.512 . S
O1269 C1258 1.248 . S
O1270 Pr1240 2.438 1_556 S
O1270 C1259 1.267 . S
O1271 Pr1241 2.437 . S
O1271 C1259 1.278 . S
H1272 C1244 0.929 . S
H1273 C1245 0.929 . S
H1274 C1247 0.931 . S
H1275 C1248 0.930 . S
H1276 C1253 0.929 . S
H1277 C1254 0.929 . S
H1278 C1256 0.931 . S
H1279 C1257 0.930 . S
H1280 C1286 0.930 . S
H1281 C1290 0.930 . S
H1282 C1295 0.929 . S
H1283 C1293 0.929 . S
H1284 C1288 0.929 . S
H1285 C1294 0.929 . S
C1286 H1280 0.930 . S
C1286 C1287 1.367 . S
C1286 C1294 1.378 . S
C1287 C1286 1.367 . S
C1287 C1295 1.433 . S
C1288 H1284 0.929 . S
C1288 C1290 1.378 . S
C1288 C1292 1.350 . S
C1289 C1292 1.463 1_556 S
C1289 C1294 1.350 . S
C1289 N1297 1.427 . S
C1290 H1281 0.930 . S
C1290 C1288 1.378 . S
C1290 C1291 1.367 . S
C1291 C1290 1.367 . S
C1291 C1293 1.433 . S
C1292 C1288 1.350 . S
C1292 C1289 1.463 1_554 S
C1292 N1296 1.427 . S
C1293 H1283 0.929 . S
C1293 C1291 1.433 . S
C1293 N1296 1.384 . S
C1294 H1285 0.929 . S
C1294 C1286 1.378 . S
C1294 C1289 1.350 . S
C1295 H1282 0.929 . S
C1295 C1287 1.433 . S
C1295 N1297 1.384 . S
N1296 C1292 1.427 . S
N1296 C1293 1.384 . S
N1297 C1289 1.427 . S
N1297 C1295 1.384 . S
H1298 C1304 0.930 . S
H1299 C1308 0.930 . S
H1300 C1313 0.929 . S
H1301 C1311 0.929 . S
H1302 C1306 0.929 . S
H1303 C1312 0.929 . S
C1304 H1298 0.930 . S
C1304 C1305 1.367 1_565 S
C1304 C1312 1.378 . S
C1305 C1304 1.367 1_545 S
C1305 C1313 1.433 . S
C1306 H1302 0.929 . S
C1306 C1308 1.378 . S
C1306 C1310 1.348 . S
C1307 C1310 1.462 1_456 S
C1307 C1312 1.348 1_545 S
C1307 N1315 1.437 . S
C1308 H1299 0.930 . S
C1308 C1306 1.378 . S
C1308 C1309 1.367 1_545 S
C1309 C1308 1.367 1_565 S
C1309 C1311 1.433 . S
C1310 C1306 1.348 . S
C1310 C1307 1.462 1_654 S
C1310 N1314 1.437 1_545 S
C1311 H1301 0.929 . S
C1311 C1309 1.433 . S
C1311 N1314 1.398 . S
C1312 H1303 0.929 . S
C1312 C1304 1.378 . S
C1312 C1307 1.348 1_565 S
C1313 H1300 0.929 . S
C1313 C1305 1.433 . S
C1313 N1315 1.398 . S
N1314 C1310 1.437 1_565 S
N1314 C1311 1.398 . S
N1315 C1307 1.437 . S
N1315 C1313 1.398 . S
H1316 C1322 0.930 . S
H1317 C1326 0.930 . S
H1318 C1331 0.929 . S
H1319 C1329 0.929 . S
H1320 C1324 0.929 . S
H1321 C1330 0.929 . S
C1322 H1316 0.930 . S
C1322 C1323 1.367 . S
C1322 C1330 1.378 . S
C1323 C1322 1.367 . S
C1323 C1331 1.433 1_545 S
C1324 H1320 0.929 . S
C1324 C1326 1.378 . S
C1324 C1328 1.350 . S
C1325 C1328 1.463 1_545 S
C1325 C1330 1.350 . S
C1325 N1333 1.427 1_545 S
C1326 H1317 0.930 . S
C1326 C1324 1.378 . S
C1326 C1327 1.367 . S
C1327 C1326 1.367 . S
C1327 C1329 1.433 1_565 S
C1328 C1324 1.350 . S
C1328 C1325 1.463 1_565 S
C1328 N1332 1.427 1_565 S
C1329 H1319 0.929 . S
C1329 C1327 1.433 1_545 S
C1329 N1332 1.384 . S
C1330 H1321 0.929 . S
C1330 C1322 1.378 . S
C1330 C1325 1.350 . S
C1331 H1318 0.929 . S
C1331 C1323 1.433 1_565 S
C1331 N1333 1.384 . S
N1332 C1328 1.427 1_545 S
N1332 C1329 1.384 . S
N1333 C1325 1.427 1_565 S
N1333 C1331 1.384 . S
H1334 C1340 0.930 . S
H1335 C1344 0.930 . S
H1336 C1349 0.929 . S
H1337 C1347 0.929 . S
H1338 C1342 0.929 . S
H1339 C1348 0.929 . S
C1340 H1334 0.930 . S
C1340 C1341 1.367 . S
C1340 C1348 1.378 . S
C1341 C1340 1.367 . S
C1341 C1349 1.433 . S
C1342 H1338 0.929 . S
C1342 C1344 1.378 . S
C1342 C1346 1.350 . S
C1343 C1346 1.463 1_455 S
C1343 C1348 1.350 . S
C1343 N1351 1.427 . S
C1344 H1335 0.930 . S
C1344 C1342 1.378 . S
C1344 C1345 1.367 . S
C1345 C1344 1.367 . S
C1345 C1347 1.433 . S
C1346 C1342 1.350 . S
C1346 C1343 1.463 1_655 S
C1346 N1350 1.427 . S
C1347 H1337 0.929 . S
C1347 C1345 1.433 . S
C1347 N1350 1.384 . S
C1348 H1339 0.929 . S
C1348 C1340 1.378 . S
C1348 C1343 1.350 . S
C1349 H1336 0.929 . S
C1349 C1341 1.433 . S
C1349 N1351 1.384 . S
N1350 C1346 1.427 . S
N1350 C1347 1.384 . S
N1351 C1343 1.427 . S
N1351 C1349 1.384 . S
H1352 C1358 0.930 . S
H1353 C1362 0.930 . S
H1354 C1367 0.929 . S
H1355 C1365 0.929 . S
H1356 C1360 0.929 . S
H1357 C1366 0.929 . S
C1358 H1352 0.930 . S
C1358 C1359 1.367 . S
C1358 C1366 1.378 . S
C1359 C1358 1.367 . S
C1359 C1367 1.433 . S
C1360 H1356 0.929 . S
C1360 C1362 1.378 . S
C1360 C1364 1.350 . S
C1361 C1364 1.463 1_556 S
C1361 C1366 1.350 . S
C1361 N1369 1.427 . S
C1362 H1353 0.930 . S
C1362 C1360 1.378 . S
C1362 C1363 1.367 . S
C1363 C1362 1.367 . S
C1363 C1365 1.433 . S
C1364 C1360 1.350 . S
C1364 C1361 1.463 1_554 S
C1364 N1368 1.427 . S
C1365 H1355 0.929 . S
C1365 C1363 1.433 . S
C1365 N1368 1.384 . S
C1366 H1357 0.929 . S
C1366 C1358 1.378 . S
C1366 C1361 1.350 . S
C1367 H1354 0.929 . S
C1367 C1359 1.433 . S
C1367 N1369 1.384 . S
N1368 C1364 1.427 . S
N1368 C1365 1.384 . S
N1369 C1361 1.427 . S
N1369 C1367 1.384 . S
H1370 C1376 0.930 . S
H1371 C1380 0.930 . S
H1372 C1385 0.929 . S
H1373 C1383 0.929 . S
H1374 C1378 0.929 . S
H1375 C1384 0.929 . S
C1376 H1370 0.930 . S
C1376 C1377 1.367 . S
C1376 C1384 1.378 . S
C1377 C1376 1.367 . S
C1377 C1385 1.433 1_565 S
C1378 H1374 0.929 . S
C1378 C1380 1.378 . S
C1378 C1382 1.375 . S
C1379 C1382 1.460 1_565 S
C1379 C1384 1.350 . S
C1379 N1387 1.427 1_565 S
C1380 H1371 0.930 . S
C1380 C1378 1.378 . S
C1380 C1381 1.367 . S
C1381 C1380 1.367 . S
C1381 C1383 1.433 1_545 S
C1382 C1378 1.375 . S
C1382 C1379 1.460 1_545 S
C1382 N1386 1.405 1_545 S
C1383 H1373 0.929 . S
C1383 C1381 1.433 1_565 S
C1383 N1386 1.384 . S
C1384 H1375 0.929 . S
C1384 C1376 1.378 . S
C1384 C1379 1.350 . S
C1385 H1372 0.929 . S
C1385 C1377 1.433 1_545 S
C1385 N1387 1.384 . S
N1386 C1382 1.405 1_565 S
N1386 C1383 1.384 . S
N1387 C1379 1.427 1_545 S
N1387 C1385 1.384 . S
H1388 C1394 0.930 . S
H1389 C1398 0.930 . S
H1390 C1403 0.929 . S
H1391 C1401 0.929 . S
H1392 C1396 0.929 . S
H1393 C1402 0.929 . S
C1394 H1388 0.930 . S
C1394 C1395 1.367 . S
C1394 C1402 1.378 . S
C1395 C1394 1.367 . S
C1395 C1403 1.433 . S
C1396 H1392 0.929 . S
C1396 C1398 1.378 . S
C1396 C1400 1.350 . S
C1397 C1400 1.463 1_655 S
C1397 C1402 1.350 . S
C1397 N1405 1.440 . S
C1398 H1389 0.930 . S
C1398 C1396 1.378 . S
C1398 C1399 1.367 . S
C1399 C1398 1.367 . S
C1399 C1401 1.433 . S
C1400 C1396 1.350 . S
C1400 C1397 1.463 1_455 S
C1400 N1404 1.446 . S
C1401 H1391 0.929 . S
C1401 C1399 1.433 . S
C1401 N1404 1.423 . S
C1402 H1393 0.929 . S
C1402 C1394 1.378 . S
C1402 C1397 1.350 . S
C1403 H1390 0.929 . S
C1403 C1395 1.433 . S
C1403 N1405 1.411 . S
N1404 C1400 1.446 . S
N1404 C1401 1.423 . S
N1405 C1397 1.440 . S
N1405 C1403 1.411 . S
H1406 C1412 0.930 . S
H1407 C1416 0.930 . S
H1408 C1421 0.929 . S
H1409 C1419 0.929 . S
H1410 C1414 0.929 . S
H1411 C1420 0.929 . S
C1412 H1406 0.930 . S
C1412 C1413 1.367 . S
C1412 C1420 1.378 . S
C1413 C1412 1.367 . S
C1413 C1421 1.433 . S
C1414 H1410 0.929 . S
C1414 C1416 1.378 . S
C1414 C1418 1.350 . S
C1415 C1418 1.463 . S
C1415 C1420 1.350 . S
C1415 N1423 1.427 . S
C1416 H1407 0.930 . S
C1416 C1414 1.378 . S
C1416 C1417 1.367 . S
C1417 C1416 1.367 . S
C1417 C1419 1.433 . S
C1418 C1414 1.350 . S
C1418 C1415 1.463 . S
C1418 N1422 1.427 . S
C1419 H1409 0.929 . S
C1419 C1417 1.433 . S
C1419 N1422 1.384 . S
C1420 H1411 0.929 . S
C1420 C1412 1.378 . S
C1420 C1415 1.350 . S
C1421 H1408 0.929 . S
C1421 C1413 1.433 . S
C1421 N1423 1.384 . S
N1422 C1418 1.427 . S
N1422 C1419 1.384 . S
N1423 C1415 1.427 . S
N1423 C1421 1.384 . S
H1424 C1430 0.930 . S
H1425 C1434 0.930 . S
H1426 C1439 0.929 . S
H1427 C1437 0.929 . S
H1428 C1432 0.929 1_655 S
H1429 C1438 0.929 1_455 S
C1430 H1424 0.930 . S
C1430 C1431 1.367 . S
C1430 C1438 1.378 . S
C1431 C1430 1.367 . S
C1431 C1439 1.433 . S
C1432 H1428 0.929 1_455 S
C1432 C1434 1.378 . S
C1432 C1436 1.350 . S
C1433 C1436 1.463 1_655 S
C1433 C1438 1.350 . S
C1433 N1441 1.427 . S
C1434 H1425 0.930 . S
C1434 C1432 1.378 . S
C1434 C1435 1.367 . S
C1435 C1434 1.367 . S
C1435 C1437 1.433 . S
C1436 C1432 1.350 . S
C1436 C1433 1.463 1_455 S
C1436 N1440 1.427 . S
C1437 H1427 0.929 . S
C1437 C1435 1.433 . S
C1437 N1440 1.384 . S
C1438 H1429 0.929 1_655 S
C1438 C1430 1.378 . S
C1438 C1433 1.350 . S
C1439 H1426 0.929 . S
C1439 C1431 1.433 . S
C1439 N1441 1.384 . S
N1440 C1436 1.427 . S
N1440 C1437 1.384 . S
N1441 C1433 1.427 . S
N1441 C1439 1.384 . S
H1442 C1448 0.930 . S
H1443 C1452 0.930 . S
H1444 C1457 0.929 . S
H1445 C1455 0.929 . S
H1446 C1450 0.929 . S
H1447 C1456 0.929 . S
C1448 H1442 0.930 . S
C1448 C1449 1.367 . S
C1448 C1456 1.378 . S
C1449 C1448 1.367 . S
C1449 C1457 1.433 . S
C1450 H1446 0.929 . S
C1450 C1452 1.378 . S
C1450 C1454 1.350 . S
C1451 C1454 1.463 . S
C1451 C1456 1.350 . S
C1451 N1459 1.427 . S
C1452 H1443 0.930 . S
C1452 C1450 1.378 . S
C1452 C1453 1.367 . S
C1453 C1452 1.367 . S
C1453 C1455 1.433 . S
C1454 C1450 1.350 . S
C1454 C1451 1.463 . S
C1454 N1458 1.427 . S
C1455 H1445 0.929 . S
C1455 C1453 1.433 . S
C1455 N1458 1.384 . S
C1456 H1447 0.929 . S
C1456 C1448 1.378 . S
C1456 C1451 1.350 . S
C1457 H1444 0.929 . S
C1457 C1449 1.433 . S
C1457 N1459 1.384 . S
N1458 C1454 1.427 . S
N1458 C1455 1.384 . S
N1459 C1451 1.427 . S
N1459 C1457 1.384 . S
H1460 C1466 0.930 . S
H1461 C1470 0.930 . S
H1462 C1475 0.929 . S
H1463 C1473 0.929 . S
H1464 C1468 0.929 . S
H1465 C1474 0.929 . S
C1466 H1460 0.930 . S
C1466 C1467 1.367 . S
C1466 C1474 1.378 . S
C1467 C1466 1.367 . S
C1467 C1475 1.433 . S
C1468 H1464 0.929 . S
C1468 C1470 1.378 . S
C1468 C1472 1.350 . S
C1469 C1472 1.463 . S
C1469 C1474 1.350 . S
C1469 N1477 1.427 . S
C1470 H1461 0.930 . S
C1470 C1468 1.378 . S
C1470 C1471 1.367 . S
C1471 C1470 1.367 . S
C1471 C1473 1.433 . S
C1472 C1468 1.350 . S
C1472 C1469 1.463 . S
C1472 N1476 1.427 . S
C1473 H1463 0.929 . S
C1473 C1471 1.433 . S
C1473 N1476 1.384 . S
C1474 H1465 0.929 . S
C1474 C1466 1.378 . S
C1474 C1469 1.350 . S
C1475 H1462 0.929 . S
C1475 C1467 1.433 . S
C1475 N1477 1.384 . S
N1476 C1472 1.427 . S
N1476 C1473 1.384 . S
N1477 C1469 1.427 . S
N1477 C1475 1.384 . S
H1478 C1484 0.930 . S
H1479 C1488 0.930 . S
H1480 C1493 0.929 . S
H1481 C1491 0.929 . S
H1482 C1486 0.929 . S
H1483 C1492 0.929 . S
C1484 H1478 0.930 . S
C1484 C1485 1.367 . S
C1484 C1492 1.378 . S
C1485 C1484 1.367 . S
C1485 C1493 1.433 . S
C1486 H1482 0.929 . S
C1486 C1488 1.378 . S
C1486 C1490 1.350 . S
C1487 C1490 1.463 . S
C1487 C1492 1.350 . S
C1487 N1495 1.427 . S
C1488 H1479 0.930 . S
C1488 C1486 1.378 . S
C1488 C1489 1.367 . S
C1489 C1488 1.367 . S
C1489 C1491 1.433 . S
C1490 C1486 1.350 . S
C1490 C1487 1.463 . S
C1490 N1494 1.427 . S
C1491 H1481 0.929 . S
C1491 C1489 1.433 . S
C1491 N1494 1.384 . S
C1492 H1483 0.929 . S
C1492 C1484 1.378 . S
C1492 C1487 1.350 . S
C1493 H1480 0.929 . S
C1493 C1485 1.433 . S
C1493 N1495 1.384 . S
N1494 C1490 1.427 . S
N1494 C1491 1.384 . S
N1495 C1487 1.427 . S
N1495 C1493 1.384 . S
H1496 C1502 0.930 . S
H1497 C1506 0.930 . S
H1498 C1511 0.929 . S
H1499 C1509 0.929 . S
H1500 C1504 0.929 . S
H1501 C1510 0.929 . S
C1502 H1496 0.930 . S
C1502 C1503 1.367 . S
C1502 C1510 1.378 . S
C1503 C1502 1.367 . S
C1503 C1511 1.433 1_565 S
C1504 H1500 0.929 . S
C1504 C1506 1.378 . S
C1504 C1508 1.350 . S
C1505 C1508 1.463 1_565 S
C1505 C1510 1.350 . S
C1505 N1513 1.427 1_565 S
C1506 H1497 0.930 . S
C1506 C1504 1.378 . S
C1506 C1507 1.367 . S
C1507 C1506 1.367 . S
C1507 C1509 1.433 1_545 S
C1508 C1504 1.350 . S
C1508 C1505 1.463 1_545 S
C1508 N1512 1.427 1_545 S
C1509 H1499 0.929 . S
C1509 C1507 1.433 1_565 S
C1509 N1512 1.384 . S
C1510 H1501 0.929 . S
C1510 C1502 1.378 . S
C1510 C1505 1.350 . S
C1511 H1498 0.929 . S
C1511 C1503 1.433 1_545 S
C1511 N1513 1.384 . S
N1512 C1508 1.427 1_565 S
N1512 C1509 1.384 . S
N1513 C1505 1.427 1_545 S
N1513 C1511 1.384 . S
H1514 C1520 0.930 . S
H1515 C1524 0.930 . S
H1516 C1529 0.929 . S
H1517 C1527 0.929 . S
H1518 C1522 0.929 . S
H1519 C1528 0.929 . S
C1520 H1514 0.930 . S
C1520 C1521 1.367 . S
C1520 C1528 1.378 . S
C1521 C1520 1.367 . S
C1521 C1529 1.433 . S
C1522 H1518 0.929 . S
C1522 C1524 1.378 . S
C1522 C1526 1.350 . S
C1523 C1526 1.463 . S
C1523 C1528 1.350 . S
C1523 N1531 1.427 . S
C1524 H1515 0.930 . S
C1524 C1522 1.378 . S
C1524 C1525 1.367 . S
C1525 C1524 1.367 . S
C1525 C1527 1.433 . S
C1526 C1522 1.350 . S
C1526 C1523 1.463 . S
C1526 N1530 1.427 . S
C1527 H1517 0.929 . S
C1527 C1525 1.433 . S
C1527 N1530 1.384 . S
C1528 H1519 0.929 . S
C1528 C1520 1.378 . S
C1528 C1523 1.350 . S
C1529 H1516 0.929 . S
C1529 C1521 1.433 . S
C1529 N1531 1.384 . S
N1530 C1526 1.427 . S
N1530 C1527 1.384 . S
N1531 C1523 1.427 . S
N1531 C1529 1.384 . S
H1532 C1538 0.930 . S
H1533 C1542 0.930 . S
H1534 C1547 0.929 . S
H1535 C1545 0.929 . S
H1536 C1540 0.929 . S
H1537 C1546 0.929 . S
C1538 H1532 0.930 . S
C1538 C1539 1.367 . S
C1538 C1546 1.378 . S
C1539 C1538 1.367 . S
C1539 C1547 1.433 . S
C1540 H1536 0.929 . S
C1540 C1542 1.378 . S
C1540 C1544 1.350 . S
C1541 C1544 1.463 . S
C1541 C1546 1.350 . S
C1541 N1549 1.427 . S
C1542 H1533 0.930 . S
C1542 C1540 1.378 . S
C1542 C1543 1.367 . S
C1543 C1542 1.367 . S
C1543 C1545 1.433 . S
C1544 C1540 1.350 . S
C1544 C1541 1.463 . S
C1544 N1548 1.427 . S
C1545 H1535 0.929 . S
C1545 C1543 1.433 . S
C1545 N1548 1.384 . S
C1546 H1537 0.929 . S
C1546 C1538 1.378 . S
C1546 C1541 1.350 . S
C1547 H1534 0.929 . S
C1547 C1539 1.433 . S
C1547 N1549 1.384 . S
N1548 C1544 1.427 . S
N1548 C1545 1.384 . S
N1549 C1541 1.427 . S
N1549 C1547 1.384 . S
H1550 C1556 0.930 . S
H1551 C1560 0.930 . S
H1552 C1565 0.929 . S
H1553 C1563 0.929 . S
H1554 C1558 0.929 . S
H1555 C1564 0.929 . S
C1556 H1550 0.930 . S
C1556 C1557 1.367 . S
C1556 C1564 1.378 . S
C1557 C1556 1.367 . S
C1557 C1565 1.433 . S
C1558 H1554 0.929 . S
C1558 C1560 1.378 . S
C1558 C1562 1.350 . S
C1559 C1562 1.463 1_556 S
C1559 C1564 1.350 . S
C1559 N1567 1.427 . S
C1560 H1551 0.930 . S
C1560 C1558 1.378 . S
C1560 C1561 1.367 . S
C1561 C1560 1.367 . S
C1561 C1563 1.433 . S
C1562 C1558 1.350 . S
C1562 C1559 1.463 1_554 S
C1562 N1566 1.427 . S
C1563 H1553 0.929 . S
C1563 C1561 1.433 . S
C1563 N1566 1.384 . S
C1564 H1555 0.929 . S
C1564 C1556 1.378 . S
C1564 C1559 1.350 . S
C1565 H1552 0.929 . S
C1565 C1557 1.433 . S
C1565 N1567 1.384 . S
N1566 C1562 1.427 . S
N1566 C1563 1.384 . S
N1567 C1559 1.427 . S
N1567 C1565 1.384 . S
H1568 C1574 0.930 . S
H1569 C1578 0.930 . S
H1570 C1583 0.929 . S
H1571 C1581 0.929 . S
H1572 C1576 0.929 . S
H1573 C1582 0.929 . S
C1574 H1568 0.930 . S
C1574 C1575 1.367 . S
C1574 C1582 1.378 . S
C1575 C1574 1.367 . S
C1575 C1583 1.433 . S
C1576 H1572 0.929 . S
C1576 C1578 1.378 . S
C1576 C1580 1.350 . S
C1577 C1580 1.463 . S
C1577 C1582 1.350 . S
C1577 N1585 1.427 . S
C1578 H1569 0.930 . S
C1578 C1576 1.378 . S
C1578 C1579 1.367 . S
C1579 C1578 1.367 . S
C1579 C1581 1.433 . S
C1580 C1576 1.350 . S
C1580 C1577 1.463 . S
C1580 N1584 1.427 . S
C1581 H1571 0.929 . S
C1581 C1579 1.433 . S
C1581 N1584 1.384 . S
C1582 H1573 0.929 . S
C1582 C1574 1.378 . S
C1582 C1577 1.350 . S
C1583 H1570 0.929 . S
C1583 C1575 1.433 . S
C1583 N1585 1.384 . S
N1584 C1580 1.427 . S
N1584 C1581 1.384 . S
N1585 C1577 1.427 . S
N1585 C1583 1.384 . S
H1586 C1592 0.930 . S
H1587 C1596 0.930 . S
H1588 C1601 0.929 . S
H1589 C1599 0.929 . S
H1590 C1594 0.929 . S
H1591 C1600 0.929 . S
C1592 H1586 0.930 . S
C1592 C1593 1.367 1_565 S
C1592 C1600 1.378 . S
C1593 C1592 1.367 1_545 S
C1593 C1601 1.433 . S
C1594 H1590 0.929 . S
C1594 C1596 1.378 . S
C1594 C1598 1.350 . S
C1595 C1598 1.463 . S
C1595 C1600 1.350 1_545 S
C1595 N1603 1.427 . S
C1596 H1587 0.930 . S
C1596 C1594 1.378 . S
C1596 C1597 1.367 . S
C1597 C1596 1.367 . S
C1597 C1599 1.433 1_545 S
C1598 C1594 1.350 . S
C1598 C1595 1.463 . S
C1598 N1602 1.427 1_545 S
C1599 H1589 0.929 . S
C1599 C1597 1.433 1_565 S
C1599 N1602 1.384 . S
C1600 H1591 0.929 . S
C1600 C1592 1.378 . S
C1600 C1595 1.350 1_565 S
C1601 H1588 0.929 . S
C1601 C1593 1.433 . S
C1601 N1603 1.384 . S
N1602 C1598 1.427 1_565 S
N1602 C1599 1.384 . S
N1603 C1595 1.427 . S
N1603 C1601 1.384 . S
H1604 C1610 0.930 . S
H1605 C1614 0.930 . S
H1606 C1619 0.929 . S
H1607 C1617 0.929 . S
H1608 C1612 0.929 . S
H1609 C1618 0.929 . S
C1610 H1604 0.930 . S
C1610 C1611 1.367 1_565 S
C1610 C1618 1.378 . S
C1611 C1610 1.367 1_545 S
C1611 C1619 1.433 . S
C1612 H1608 0.929 . S
C1612 C1614 1.378 . S
C1612 C1616 1.350 . S
C1613 C1616 1.463 . S
C1613 C1618 1.350 1_545 S
C1613 N1621 1.427 . S
C1614 H1605 0.930 . S
C1614 C1612 1.378 . S
C1614 C1615 1.367 . S
C1615 C1614 1.367 . S
C1615 C1617 1.433 1_545 S
C1616 C1612 1.350 . S
C1616 C1613 1.463 . S
C1616 N1620 1.427 1_545 S
C1617 H1607 0.929 . S
C1617 C1615 1.433 1_565 S
C1617 N1620 1.384 . S
C1618 H1609 0.929 . S
C1618 C1610 1.378 . S
C1618 C1613 1.350 1_565 S
C1619 H1606 0.929 . S
C1619 C1611 1.433 . S
C1619 N1621 1.384 . S
N1620 C1616 1.427 1_565 S
N1620 C1617 1.384 . S
N1621 C1613 1.427 . S
N1621 C1619 1.384 . S
H1622 C1628 0.930 . S
H1623 C1632 0.930 . S
H1624 C1637 0.929 . S
H1625 C1635 0.929 . S
H1626 C1630 0.929 . S
H1627 C1636 0.929 . S
C1628 H1622 0.930 . S
C1628 C1629 1.367 . S
C1628 C1636 1.378 . S
C1629 C1628 1.367 . S
C1629 C1637 1.433 . S
C1630 H1626 0.929 . S
C1630 C1632 1.378 . S
C1630 C1634 1.350 . S
C1631 C1634 1.463 . S
C1631 C1636 1.350 . S
C1631 N1639 1.427 . S
C1632 H1623 0.930 . S
C1632 C1630 1.378 . S
C1632 C1633 1.367 . S
C1633 C1632 1.367 . S
C1633 C1635 1.433 . S
C1634 C1630 1.350 . S
C1634 C1631 1.463 . S
C1634 N1638 1.427 . S
C1635 H1625 0.929 . S
C1635 C1633 1.433 . S
C1635 N1638 1.384 . S
C1636 H1627 0.929 . S
C1636 C1628 1.378 . S
C1636 C1631 1.350 . S
C1637 H1624 0.929 . S
C1637 C1629 1.433 . S
C1637 N1639 1.384 . S
N1638 C1634 1.427 . S
N1638 C1635 1.384 . S
N1639 C1631 1.427 . S
N1639 C1637 1.384 . S
H1640 C1646 0.930 . S
H1641 C1650 0.930 . S
H1642 C1655 0.929 . S
H1643 C1653 0.929 . S
H1644 C1648 0.929 . S
H1645 C1654 0.929 . S
C1646 H1640 0.930 . S
C1646 C1647 1.367 . S
C1646 C1654 1.378 . S
C1647 C1646 1.367 . S
C1647 C1655 1.433 . S
C1648 H1644 0.929 . S
C1648 C1650 1.378 . S
C1648 C1652 1.350 . S
C1649 C1652 1.463 . S
C1649 C1654 1.350 . S
C1649 N1657 1.427 . S
C1650 H1641 0.930 . S
C1650 C1648 1.378 . S
C1650 C1651 1.367 . S
C1651 C1650 1.367 . S
C1651 C1653 1.433 . S
C1652 C1648 1.350 . S
C1652 C1649 1.463 . S
C1652 N1656 1.427 . S
C1653 H1643 0.929 . S
C1653 C1651 1.433 . S
C1653 N1656 1.384 . S
C1654 H1645 0.929 . S
C1654 C1646 1.378 . S
C1654 C1649 1.350 . S
C1655 H1642 0.929 . S
C1655 C1647 1.433 . S
C1655 N1657 1.384 . S
N1656 C1652 1.427 . S
N1656 C1653 1.384 . S
N1657 C1649 1.427 . S
N1657 C1655 1.384 . S
H1658 C1664 0.930 . S
H1659 C1668 0.930 . S
H1660 C1673 0.929 . S
H1661 C1671 0.929 . S
H1662 C1666 0.929 . S
H1663 C1672 0.929 . S
C1664 H1658 0.930 . S
C1664 C1665 1.367 . S
C1664 C1672 1.378 . S
C1665 C1664 1.367 . S
C1665 C1673 1.433 1_565 S
C1666 H1662 0.929 . S
C1666 C1668 1.378 . S
C1666 C1670 1.350 1_545 S
C1667 C1670 1.463 . S
C1667 C1672 1.350 . S
C1667 N1675 1.427 1_565 S
C1668 H1659 0.930 . S
C1668 C1666 1.378 . S
C1668 C1669 1.367 1_545 S
C1669 C1668 1.367 1_565 S
C1669 C1671 1.433 . S
C1670 C1666 1.350 1_565 S
C1670 C1667 1.463 . S
C1670 N1674 1.427 . S
C1671 H1661 0.929 . S
C1671 C1669 1.433 . S
C1671 N1674 1.384 . S
C1672 H1663 0.929 . S
C1672 C1664 1.378 . S
C1672 C1667 1.350 . S
C1673 H1660 0.929 . S
C1673 C1665 1.433 1_545 S
C1673 N1675 1.384 . S
N1674 C1670 1.427 . S
N1674 C1671 1.384 . S
N1675 C1667 1.427 1_545 S
N1675 C1673 1.384 . S
H1676 C1682 0.930 . S
H1677 C1686 0.930 . S
H1678 C1691 0.929 . S
H1679 C1689 0.929 . S
H1680 C1684 0.929 . S
H1681 C1690 0.929 . S
C1682 H1676 0.930 . S
C1682 C1683 1.367 . S
C1682 C1690 1.378 . S
C1683 C1682 1.367 . S
C1683 C1691 1.433 1_565 S
C1684 H1680 0.929 . S
C1684 C1686 1.378 . S
C1684 C1688 1.350 1_545 S
C1685 C1688 1.463 . S
C1685 C1690 1.350 . S
C1685 N1693 1.427 1_565 S
C1686 H1677 0.930 . S
C1686 C1684 1.378 . S
C1686 C1687 1.367 1_545 S
C1687 C1686 1.367 1_565 S
C1687 C1689 1.433 . S
C1688 C1684 1.350 1_565 S
C1688 C1685 1.463 . S
C1688 N1692 1.427 . S
C1689 H1679 0.929 . S
C1689 C1687 1.433 . S
C1689 N1692 1.384 . S
C1690 H1681 0.929 . S
C1690 C1682 1.378 . S
C1690 C1685 1.350 . S
C1691 H1678 0.929 . S
C1691 C1683 1.433 1_545 S
C1691 N1693 1.384 . S
N1692 C1688 1.427 . S
N1692 C1689 1.384 . S
N1693 C1685 1.427 1_545 S
N1693 C1691 1.384 . S
H1694 C1700 0.930 . S
H1695 C1704 0.930 . S
H1696 C1709 0.929 . S
H1697 C1707 0.929 . S
H1698 C1702 0.929 . S
H1699 C1708 0.929 . S
C1700 H1694 0.930 . S
C1700 C1701 1.367 . S
C1700 C1708 1.378 . S
C1701 C1700 1.367 . S
C1701 C1709 1.433 . S
C1702 H1698 0.929 . S
C1702 C1704 1.378 . S
C1702 C1706 1.350 . S
C1703 C1706 1.463 . S
C1703 C1708 1.350 . S
C1703 N1711 1.427 . S
C1704 H1695 0.930 . S
C1704 C1702 1.378 . S
C1704 C1705 1.367 . S
C1705 C1704 1.367 . S
C1705 C1707 1.433 . S
C1706 C1702 1.350 . S
C1706 C1703 1.463 . S
C1706 N1710 1.427 . S
C1707 H1697 0.929 . S
C1707 C1705 1.433 . S
C1707 N1710 1.384 . S
C1708 H1699 0.929 . S
C1708 C1700 1.378 . S
C1708 C1703 1.350 . S
C1709 H1696 0.929 . S
C1709 C1701 1.433 . S
C1709 N1711 1.384 . S
N1710 C1706 1.427 . S
N1710 C1707 1.384 . S
N1711 C1703 1.427 . S
N1711 C1709 1.384 . S
H1712 C1718 0.930 . S
H1713 C1722 0.930 . S
H1714 C1727 0.929 . S
H1715 C1725 0.929 . S
H1716 C1720 0.929 . S
H1717 C1726 0.929 . S
C1718 H1712 0.930 . S
C1718 C1719 1.367 . S
C1718 C1726 1.378 . S
C1719 C1718 1.367 . S
C1719 C1727 1.433 . S
C1720 H1716 0.929 . S
C1720 C1722 1.378 . S
C1720 C1724 1.350 . S
C1721 C1724 1.463 . S
C1721 C1726 1.350 . S
C1721 N1729 1.427 . S
C1722 H1713 0.930 . S
C1722 C1720 1.378 . S
C1722 C1723 1.367 . S
C1723 C1722 1.367 . S
C1723 C1725 1.433 . S
C1724 C1720 1.350 . S
C1724 C1721 1.463 . S
C1724 N1728 1.427 . S
C1725 H1715 0.929 . S
C1725 C1723 1.433 . S
C1725 N1728 1.384 . S
C1726 H1717 0.929 . S
C1726 C1718 1.378 . S
C1726 C1721 1.350 . S
C1727 H1714 0.929 . S
C1727 C1719 1.433 . S
C1727 N1729 1.384 . S
N1728 C1724 1.427 . S
N1728 C1725 1.384 . S
N1729 C1721 1.427 . S
N1729 C1727 1.384 . S
H1730 C1736 0.930 . S
H1731 C1740 0.930 . S
H1732 C1745 0.929 . S
H1733 C1743 0.929 . S
H1734 C1738 0.929 . S
H1735 C1744 0.929 . S
C1736 H1730 0.930 . S
C1736 C1737 1.367 . S
C1736 C1744 1.378 . S
C1737 C1736 1.367 . S
C1737 C1745 1.433 . S
C1738 H1734 0.929 . S
C1738 C1740 1.378 . S
C1738 C1742 1.350 . S
C1739 C1742 1.463 . S
C1739 C1744 1.350 . S
C1739 N1747 1.427 . S
C1740 H1731 0.930 . S
C1740 C1738 1.378 . S
C1740 C1741 1.367 . S
C1741 C1740 1.367 . S
C1741 C1743 1.433 . S
C1742 C1738 1.350 . S
C1742 C1739 1.463 . S
C1742 N1746 1.427 . S
C1743 H1733 0.929 . S
C1743 C1741 1.433 . S
C1743 N1746 1.384 . S
C1744 H1735 0.929 . S
C1744 C1736 1.378 . S
C1744 C1739 1.350 . S
C1745 H1732 0.929 . S
C1745 C1737 1.433 . S
C1745 N1747 1.384 . S
N1746 C1742 1.427 . S
N1746 C1743 1.384 . S
N1747 C1739 1.427 . S
N1747 C1745 1.384 . S
H1748 C1754 0.930 . S
H1749 C1758 0.930 . S
H1750 C1763 0.929 . S
H1751 C1761 0.929 . S
H1752 C1756 0.929 . S
H1753 C1762 0.929 . S
C1754 H1748 0.930 . S
C1754 C1755 1.367 . S
C1754 C1762 1.378 . S
C1755 C1754 1.367 . S
C1755 C1763 1.433 . S
C1756 H1752 0.929 . S
C1756 C1758 1.378 . S
C1756 C1760 1.350 . S
C1757 C1760 1.463 . S
C1757 C1762 1.350 . S
C1757 N1765 1.427 . S
C1758 H1749 0.930 . S
C1758 C1756 1.378 . S
C1758 C1759 1.367 . S
C1759 C1758 1.367 . S
C1759 C1761 1.433 . S
C1760 C1756 1.350 . S
C1760 C1757 1.463 . S
C1760 N1764 1.427 . S
C1761 H1751 0.929 . S
C1761 C1759 1.433 . S
C1761 N1764 1.384 . S
C1762 H1753 0.929 . S
C1762 C1754 1.378 . S
C1762 C1757 1.350 . S
C1763 H1750 0.929 . S
C1763 C1755 1.433 . S
C1763 N1765 1.384 . S
N1764 C1760 1.427 . S
N1764 C1761 1.384 . S
N1765 C1757 1.427 . S
N1765 C1763 1.384 . S
H1766 C1772 0.930 . S
H1767 C1776 0.930 . S
H1768 C1781 0.929 . S
H1769 C1779 0.929 . S
H1770 C1774 0.929 . S
H1771 C1780 0.929 . S
C1772 H1766 0.930 . S
C1772 C1773 1.367 . S
C1772 C1780 1.378 . S
C1773 C1772 1.367 . S
C1773 C1781 1.433 . S
C1774 H1770 0.929 . S
C1774 C1776 1.378 . S
C1774 C1778 1.350 . S
C1775 C1778 1.463 . S
C1775 C1780 1.350 . S
C1775 N1783 1.427 . S
C1776 H1767 0.930 . S
C1776 C1774 1.378 . S
C1776 C1777 1.367 . S
C1777 C1776 1.367 . S
C1777 C1779 1.433 . S
C1778 C1774 1.350 . S
C1778 C1775 1.463 . S
C1778 N1782 1.427 . S
C1779 H1769 0.929 . S
C1779 C1777 1.433 . S
C1779 N1782 1.384 . S
C1780 H1771 0.929 . S
C1780 C1772 1.378 . S
C1780 C1775 1.350 . S
C1781 H1768 0.929 . S
C1781 C1773 1.433 . S
C1781 N1783 1.384 . S
N1782 C1778 1.427 . S
N1782 C1779 1.384 . S
N1783 C1775 1.427 . S
N1783 C1781 1.384 . S
H1784 C1790 0.930 . S
H1785 C1794 0.930 . S
H1786 C1799 0.929 . S
H1787 C1797 0.944 . S
H1788 C1792 0.929 . S
H1789 C1798 0.929 . S
C1790 H1784 0.930 . S
C1790 C1791 1.367 . S
C1790 C1798 1.378 . S
C1791 C1790 1.367 . S
C1791 C1799 1.433 . S
C1792 H1788 0.929 . S
C1792 C1794 1.378 . S
C1792 C1796 1.350 . S
C1793 C1796 1.463 . S
C1793 C1798 1.350 . S
C1793 N1801 1.427 . S
C1794 H1785 0.930 . S
C1794 C1792 1.378 . S
C1794 C1795 1.367 . S
C1795 C1794 1.367 . S
C1795 C1797 1.433 . S
C1796 C1792 1.350 . S
C1796 C1793 1.463 . S
C1796 N1800 1.427 . S
C1797 H1787 0.944 . S
C1797 C1795 1.433 . S
C1797 N1800 1.384 . S
C1798 H1789 0.929 . S
C1798 C1790 1.378 . S
C1798 C1793 1.350 . S
C1799 H1786 0.929 . S
C1799 C1791 1.433 . S
C1799 N1801 1.384 . S
N1800 C1796 1.427 . S
N1800 C1797 1.384 . S
N1801 C1793 1.427 . S
N1801 C1799 1.384 . S
H1802 C1808 0.930 . S
H1803 C1812 0.930 . S
H1804 C1817 0.929 . S
H1805 C1815 0.929 . S
H1806 C1810 0.929 . S
H1807 C1816 0.929 . S
C1808 H1802 0.930 . S
C1808 C1809 1.367 . S
C1808 C1816 1.378 . S
C1809 C1808 1.367 . S
C1809 C1817 1.433 . S
C1810 H1806 0.929 . S
C1810 C1812 1.378 . S
C1810 C1814 1.350 . S
C1811 C1814 1.463 . S
C1811 C1816 1.350 . S
C1811 N1819 1.427 . S
C1812 H1803 0.930 . S
C1812 C1810 1.378 . S
C1812 C1813 1.367 . S
C1813 C1812 1.367 . S
C1813 C1815 1.433 . S
C1814 C1810 1.350 . S
C1814 C1811 1.463 . S
C1814 N1818 1.427 . S
C1815 H1805 0.929 . S
C1815 C1813 1.433 . S
C1815 N1818 1.384 . S
C1816 H1807 0.929 . S
C1816 C1808 1.378 . S
C1816 C1811 1.350 . S
C1817 H1804 0.929 . S
C1817 C1809 1.433 . S
C1817 N1819 1.384 . S
N1818 C1814 1.427 . S
N1818 C1815 1.384 . S
N1819 C1811 1.427 . S
N1819 C1817 1.384 . S
H1820 C1826 0.930 . S
H1821 C1830 0.930 . S
H1822 C1835 0.929 . S
H1823 C1833 0.929 . S
H1824 C1828 0.929 . S
H1825 C1834 0.929 . S
C1826 H1820 0.930 . S
C1826 C1827 1.367 . S
C1826 C1834 1.378 . S
C1827 C1826 1.367 . S
C1827 C1835 1.433 . S
C1828 H1824 0.929 . S
C1828 C1830 1.378 . S
C1828 C1832 1.350 . S
C1829 C1832 1.463 . S
C1829 C1834 1.350 . S
C1829 N1837 1.427 . S
C1830 H1821 0.930 . S
C1830 C1828 1.378 . S
C1830 C1831 1.367 . S
C1831 C1830 1.367 . S
C1831 C1833 1.433 . S
C1832 C1828 1.350 . S
C1832 C1829 1.463 . S
C1832 N1836 1.427 . S
C1833 H1823 0.929 . S
C1833 C1831 1.433 . S
C1833 N1836 1.384 . S
C1834 H1825 0.929 . S
C1834 C1826 1.378 . S
C1834 C1829 1.350 . S
C1835 H1822 0.929 . S
C1835 C1827 1.433 . S
C1835 N1837 1.384 . S
N1836 C1832 1.427 . S
N1836 C1833 1.384 . S
N1837 C1829 1.427 . S
N1837 C1835 1.384 . S
H1838 C1844 0.930 . S
H1839 C1848 0.930 . S
H1840 C1853 0.929 . S
H1841 C1851 0.929 . S
H1842 C1846 0.929 . S
H1843 C1852 0.929 . S
C1844 H1838 0.930 . S
C1844 C1845 1.367 . S
C1844 C1852 1.378 . S
C1845 C1844 1.367 . S
C1845 C1853 1.433 . S
C1846 H1842 0.929 . S
C1846 C1848 1.378 . S
C1846 C1850 1.350 . S
C1847 C1850 1.463 . S
C1847 C1852 1.350 . S
C1847 N1855 1.427 . S
C1848 H1839 0.930 . S
C1848 C1846 1.378 . S
C1848 C1849 1.367 . S
C1849 C1848 1.367 . S
C1849 C1851 1.433 . S
C1850 C1846 1.350 . S
C1850 C1847 1.463 . S
C1850 N1854 1.427 . S
C1851 H1841 0.929 . S
C1851 C1849 1.433 . S
C1851 N1854 1.384 . S
C1852 H1843 0.929 . S
C1852 C1844 1.378 . S
C1852 C1847 1.350 . S
C1853 H1840 0.929 . S
C1853 C1845 1.433 . S
C1853 N1855 1.384 . S
N1854 C1850 1.427 . S
N1854 C1851 1.384 . S
N1855 C1847 1.427 . S
N1855 C1853 1.384 . S
H1856 C1862 0.930 . S
H1857 C1866 0.930 . S
H1858 C1871 0.929 . S
H1859 C1869 0.929 . S
H1860 C1864 0.929 . S
H1861 C1870 0.929 . S
C1862 H1856 0.930 . S
C1862 C1863 1.367 . S
C1862 C1870 1.378 . S
C1863 C1862 1.367 . S
C1863 C1871 1.433 . S
C1864 H1860 0.929 . S
C1864 C1866 1.378 . S
C1864 C1868 1.350 . S
C1865 C1868 1.463 . S
C1865 C1870 1.350 . S
C1865 N1873 1.427 . S
C1866 H1857 0.930 . S
C1866 C1864 1.378 . S
C1866 C1867 1.367 . S
C1867 C1866 1.367 . S
C1867 C1869 1.433 . S
C1868 C1864 1.350 . S
C1868 C1865 1.463 . S
C1868 N1872 1.427 . S
C1869 H1859 0.929 . S
C1869 C1867 1.433 . S
C1869 N1872 1.384 . S
C1870 H1861 0.929 . S
C1870 C1862 1.378 . S
C1870 C1865 1.350 . S
C1871 H1858 0.929 . S
C1871 C1863 1.433 . S
C1871 N1873 1.384 . S
N1872 C1868 1.427 . S
N1872 C1869 1.384 . S
N1873 C1865 1.427 . S
N1873 C1871 1.384 . S
H1874 C1880 0.930 . S
H1875 C1884 0.930 . S
H1876 C1889 0.929 1_565 S
H1877 C1887 0.929 1_545 S
H1878 C1882 0.929 . S
H1879 C1888 0.929 . S
C1880 H1874 0.930 . S
C1880 C1881 1.367 . S
C1880 C1888 1.378 . S
C1881 C1880 1.367 . S
C1881 C1889 1.433 . S
C1882 H1878 0.929 . S
C1882 C1884 1.378 . S
C1882 C1886 1.350 . S
C1883 C1886 1.463 1_545 S
C1883 C1888 1.350 . S
C1883 N1891 1.427 1_545 S
C1884 H1875 0.930 . S
C1884 C1882 1.378 . S
C1884 C1885 1.367 . S
C1885 C1884 1.367 . S
C1885 C1887 1.433 . S
C1886 C1882 1.350 . S
C1886 C1883 1.463 1_565 S
C1886 N1890 1.427 1_565 S
C1887 H1877 0.929 1_565 S
C1887 C1885 1.433 . S
C1887 N1890 1.384 1_565 S
C1888 H1879 0.929 . S
C1888 C1880 1.378 . S
C1888 C1883 1.350 . S
C1889 H1876 0.929 1_545 S
C1889 C1881 1.433 . S
C1889 N1891 1.384 1_545 S
N1890 C1886 1.427 1_545 S
N1890 C1887 1.384 1_545 S
N1891 C1883 1.427 1_565 S
N1891 C1889 1.384 1_565 S
H1892 C1898 0.930 1_545 S
H1893 C1902 0.930 1_565 S
H1894 C1907 0.929 . S
H1895 C1905 0.929 . S
H1896 C1900 0.929 . S
H1897 C1906 0.929 . S
C1898 H1892 0.930 1_565 S
C1898 C1899 1.367 . S
C1898 C1906 1.378 1_565 S
C1899 C1898 1.367 . S
C1899 C1907 1.433 . S
C1900 H1896 0.929 . S
C1900 C1902 1.378 1_565 S
C1900 C1904 1.350 1_565 S
C1901 C1904 1.463 1_565 S
C1901 C1906 1.350 1_565 S
C1901 N1909 1.427 . S
C1902 H1893 0.930 1_545 S
C1902 C1900 1.378 1_545 S
C1902 C1903 1.367 . S
C1903 C1902 1.367 . S
C1903 C1905 1.433 . S
C1904 C1900 1.350 1_545 S
C1904 C1901 1.463 1_545 S
C1904 N1908 1.427 . S
C1905 H1895 0.929 . S
C1905 C1903 1.433 . S
C1905 N1908 1.384 . S
C1906 H1897 0.929 . S
C1906 C1898 1.378 1_545 S
C1906 C1901 1.350 1_545 S
C1907 H1894 0.929 . S
C1907 C1899 1.433 . S
C1907 N1909 1.384 . S
N1908 C1904 1.427 . S
N1908 C1905 1.384 . S
N1909 C1901 1.427 . S
N1909 C1907 1.384 . S
H1910 C1916 0.930 . S
H1911 C1920 0.930 . S
H1912 C1925 0.929 . S
H1913 C1923 0.929 . S
H1914 C1918 0.929 . S
H1915 C1924 0.929 . S
C1916 H1910 0.930 . S
C1916 C1917 1.367 . S
C1916 C1924 1.378 . S
C1917 C1916 1.367 . S
C1917 C1925 1.433 . S
C1918 H1914 0.929 . S
C1918 C1920 1.378 . S
C1918 C1922 1.350 . S
C1919 C1922 1.463 . S
C1919 C1924 1.350 . S
C1919 N1927 1.427 . S
C1920 H1911 0.930 . S
C1920 C1918 1.378 . S
C1920 C1921 1.367 . S
C1921 C1920 1.367 . S
C1921 C1923 1.433 . S
C1922 C1918 1.350 . S
C1922 C1919 1.463 . S
C1922 N1926 1.427 . S
C1923 H1913 0.929 . S
C1923 C1921 1.433 . S
C1923 N1926 1.384 . S
C1924 H1915 0.929 . S
C1924 C1916 1.378 . S
C1924 C1919 1.350 . S
C1925 H1912 0.929 . S
C1925 C1917 1.433 . S
C1925 N1927 1.384 . S
N1926 C1922 1.427 . S
N1926 C1923 1.384 . S
N1927 C1919 1.427 . S
N1927 C1925 1.384 . S
H1928 C1934 0.930 . S
H1929 C1938 0.930 . S
H1930 C1943 0.929 . S
H1931 C1941 0.929 . S
H1932 C1936 0.929 . S
H1933 C1942 0.929 . S
C1934 H1928 0.930 . S
C1934 C1935 1.367 . S
C1934 C1942 1.378 . S
C1935 C1934 1.367 . S
C1935 C1943 1.433 . S
C1936 H1932 0.929 . S
C1936 C1938 1.378 . S
C1936 C1940 1.350 . S
C1937 C1940 1.463 . S
C1937 C1942 1.350 . S
C1937 N1945 1.427 . S
C1938 H1929 0.930 . S
C1938 C1936 1.378 . S
C1938 C1939 1.367 . S
C1939 C1938 1.367 . S
C1939 C1941 1.433 . S
C1940 C1936 1.350 . S
C1940 C1937 1.463 . S
C1940 N1944 1.427 . S
C1941 H1931 0.929 . S
C1941 C1939 1.433 . S
C1941 N1944 1.384 . S
C1942 H1933 0.929 . S
C1942 C1934 1.378 . S
C1942 C1937 1.350 . S
C1943 H1930 0.929 . S
C1943 C1935 1.433 . S
C1943 N1945 1.384 . S
N1944 C1940 1.427 . S
N1944 C1941 1.384 . S
N1945 C1937 1.427 . S
N1945 C1943 1.384 . S
H1946 C1952 0.930 . S
H1947 C1956 0.930 . S
H1948 C1961 0.929 . S
H1949 C1959 0.929 . S
H1950 C1954 0.929 . S
H1951 C1960 0.929 . S
C1952 H1946 0.930 . S
C1952 C1953 1.367 . S
C1952 C1960 1.378 . S
C1953 C1952 1.367 . S
C1953 C1961 1.433 . S
C1954 H1950 0.929 . S
C1954 C1956 1.378 . S
C1954 C1958 1.350 . S
C1955 C1958 1.463 1_545 S
C1955 C1960 1.350 . S
C1955 N1963 1.427 1_545 S
C1956 H1947 0.930 . S
C1956 C1954 1.378 . S
C1956 C1957 1.367 . S
C1957 C1956 1.367 . S
C1957 C1959 1.433 . S
C1958 C1954 1.350 . S
C1958 C1955 1.463 1_565 S
C1958 N1962 1.427 1_565 S
C1959 H1949 0.929 . S
C1959 C1957 1.433 . S
C1959 N1962 1.384 1_565 S
C1960 H1951 0.929 . S
C1960 C1952 1.378 . S
C1960 C1955 1.350 . S
C1961 H1948 0.929 . S
C1961 C1953 1.433 . S
C1961 N1963 1.384 1_545 S
N1962 C1958 1.427 1_545 S
N1962 C1959 1.384 1_545 S
N1963 C1955 1.427 1_565 S
N1963 C1961 1.384 1_565 S
H1964 C1970 0.930 . S
H1965 C1974 0.930 . S
H1966 C1979 0.929 . S
H1967 C1977 0.929 . S
H1968 C1972 0.929 . S
H1969 C1978 0.929 . S
C1970 H1964 0.930 . S
C1970 C1971 1.367 . S
C1970 C1978 1.378 . S
C1971 C1970 1.367 . S
C1971 C1979 1.433 . S
C1972 H1968 0.929 . S
C1972 C1974 1.378 . S
C1972 C1976 1.350 . S
C1973 C1976 1.463 1_545 S
C1973 C1978 1.350 . S
C1973 N1981 1.434 . S
C1974 H1965 0.930 . S
C1974 C1972 1.378 . S
C1974 C1975 1.367 . S
C1975 C1974 1.367 . S
C1975 C1977 1.433 . S
C1976 C1972 1.350 . S
C1976 C1973 1.463 1_565 S
C1976 N1980 1.432 . S
C1977 H1967 0.929 . S
C1977 C1975 1.433 . S
C1977 N1980 1.393 . S
C1978 H1969 0.929 . S
C1978 C1970 1.378 . S
C1978 C1973 1.350 . S
C1979 H1966 0.929 . S
C1979 C1971 1.433 . S
C1979 N1981 1.398 . S
N1980 C1976 1.432 . S
N1980 C1977 1.393 . S
N1981 C1973 1.434 . S
N1981 C1979 1.398 . S
H1982 C1988 0.930 . S
H1983 C1992 0.930 . S
H1984 C1997 0.929 . S
H1985 C1995 0.929 . S
H1986 C1990 0.929 . S
H1987 C1996 0.929 . S
C1988 H1982 0.930 . S
C1988 C1989 1.367 . S
C1988 C1996 1.378 . S
C1989 C1988 1.367 . S
C1989 C1997 1.433 . S
C1990 H1986 0.929 . S
C1990 C1992 1.378 . S
C1990 C1994 1.350 . S
C1991 C1994 1.463 . S
C1991 C1996 1.350 . S
C1991 N1999 1.427 . S
C1992 H1983 0.930 . S
C1992 C1990 1.378 . S
C1992 C1993 1.367 . S
C1993 C1992 1.367 . S
C1993 C1995 1.433 . S
C1994 C1990 1.350 . S
C1994 C1991 1.463 . S
C1994 N1998 1.427 . S
C1995 H1985 0.929 . S
C1995 C1993 1.433 . S
C1995 N1998 1.384 . S
C1996 H1987 0.929 . S
C1996 C1988 1.378 . S
C1996 C1991 1.350 . S
C1997 H1984 0.929 . S
C1997 C1989 1.433 . S
C1997 N1999 1.384 . S
N1998 C1994 1.427 . S
N1998 C1995 1.384 . S
N1999 C1991 1.427 . S
N1999 C1997 1.384 . S
H2000 C2006 0.930 . S
H2001 C2010 0.930 . S
H2002 C2015 0.929 . S
H2003 C2013 0.929 . S
H2004 C2008 0.929 . S
H2005 C2014 0.929 . S
C2006 H2000 0.930 . S
C2006 C2007 1.367 . S
C2006 C2014 1.378 . S
C2007 C2006 1.367 . S
C2007 C2015 1.433 . S
C2008 H2004 0.929 . S
C2008 C2010 1.378 . S
C2008 C2012 1.350 . S
C2009 C2012 1.463 . S
C2009 C2014 1.350 . S
C2009 N2017 1.427 . S
C2010 H2001 0.930 . S
C2010 C2008 1.378 . S
C2010 C2011 1.367 . S
C2011 C2010 1.367 . S
C2011 C2013 1.433 . S
C2012 C2008 1.350 . S
C2012 C2009 1.463 . S
C2012 N2016 1.427 . S
C2013 H2003 0.929 . S
C2013 C2011 1.433 . S
C2013 N2016 1.384 . S
C2014 H2005 0.929 . S
C2014 C2006 1.378 . S
C2014 C2009 1.350 . S
C2015 H2002 0.929 . S
C2015 C2007 1.433 . S
C2015 N2017 1.384 . S
N2016 C2012 1.427 . S
N2016 C2013 1.384 . S
N2017 C2009 1.427 . S
N2017 C2015 1.384 . S
H2018 C2024 0.930 . S
H2019 C2028 0.930 . S
H2020 C2033 0.929 . S
H2021 C2031 0.929 . S
H2022 C2026 0.929 . S
H2023 C2032 0.929 . S
C2024 H2018 0.930 . S
C2024 C2025 1.367 . S
C2024 C2032 1.378 . S
C2025 C2024 1.367 . S
C2025 C2033 1.433 . S
C2026 H2022 0.929 . S
C2026 C2028 1.378 . S
C2026 C2030 1.350 . S
C2027 C2030 1.463 . S
C2027 C2032 1.350 . S
C2027 N2035 1.427 . S
C2028 H2019 0.930 . S
C2028 C2026 1.378 . S
C2028 C2029 1.367 . S
C2029 C2028 1.367 . S
C2029 C2031 1.433 . S
C2030 C2026 1.350 . S
C2030 C2027 1.463 . S
C2030 N2034 1.427 . S
C2031 H2021 0.929 . S
C2031 C2029 1.433 . S
C2031 N2034 1.384 . S
C2032 H2023 0.929 . S
C2032 C2024 1.378 . S
C2032 C2027 1.350 . S
C2033 H2020 0.929 . S
C2033 C2025 1.433 . S
C2033 N2035 1.384 . S
N2034 C2030 1.427 . S
N2034 C2031 1.384 . S
N2035 C2027 1.427 . S
N2035 C2033 1.384 . S
H2036 C2042 0.930 . S
H2037 C2046 0.930 . S
H2038 C2051 0.929 . S
H2039 C2049 0.929 . S
H2040 C2044 0.929 . S
H2041 C2050 0.929 . S
C2042 H2036 0.930 . S
C2042 C2043 1.367 . S
C2042 C2050 1.378 . S
C2043 C2042 1.367 . S
C2043 C2051 1.433 . S
C2044 H2040 0.929 . S
C2044 C2046 1.378 . S
C2044 C2048 1.350 . S
C2045 C2048 1.463 . S
C2045 C2050 1.350 1_554 S
C2045 N2053 1.427 1_554 S
C2046 H2037 0.930 . S
C2046 C2044 1.378 . S
C2046 C2047 1.367 . S
C2047 C2046 1.367 . S
C2047 C2049 1.433 . S
C2048 C2044 1.350 . S
C2048 C2045 1.463 . S
C2048 N2052 1.427 . S
C2049 H2039 0.929 . S
C2049 C2047 1.433 . S
C2049 N2052 1.384 . S
C2050 H2041 0.929 . S
C2050 C2042 1.378 . S
C2050 C2045 1.350 1_556 S
C2051 H2038 0.929 . S
C2051 C2043 1.433 . S
C2051 N2053 1.384 . S
N2052 C2048 1.427 . S
N2052 C2049 1.384 . S
N2053 C2045 1.427 1_556 S
N2053 C2051 1.384 . S
H2054 C2060 0.930 . S
H2055 C2064 0.930 . S
H2056 C2069 0.929 . S
H2057 C2067 0.929 . S
H2058 C2062 0.929 . S
H2059 C2068 0.929 1_554 S
C2060 H2054 0.930 . S
C2060 C2061 1.367 . S
C2060 C2068 1.378 . S
C2061 C2060 1.367 . S
C2061 C2069 1.433 . S
C2062 H2058 0.929 . S
C2062 C2064 1.378 . S
C2062 C2066 1.350 . S
C2063 C2066 1.463 . S
C2063 C2068 1.350 1_554 S
C2063 N2071 1.427 1_554 S
C2064 H2055 0.930 . S
C2064 C2062 1.378 . S
C2064 C2065 1.367 . S
C2065 C2064 1.367 . S
C2065 C2067 1.433 . S
C2066 C2062 1.350 . S
C2066 C2063 1.463 . S
C2066 N2070 1.427 . S
C2067 H2057 0.929 . S
C2067 C2065 1.433 . S
C2067 N2070 1.384 . S
C2068 H2059 0.929 1_556 S
C2068 C2060 1.378 . S
C2068 C2063 1.350 1_556 S
C2069 H2056 0.929 . S
C2069 C2061 1.433 . S
C2069 N2071 1.384 . S
N2070 C2066 1.427 . S
N2070 C2067 1.384 . S
N2071 C2063 1.427 1_556 S
N2071 C2069 1.384 . S
H2072 C2078 0.930 . S
H2073 C2082 0.930 . S
H2074 C2087 0.929 . S
H2075 C2085 0.929 . S
H2076 C2080 0.929 . S
H2077 C2086 0.929 . S
C2078 H2072 0.930 . S
C2078 C2079 1.367 . S
C2078 C2086 1.378 . S
C2079 C2078 1.367 . S
C2079 C2087 1.433 . S
C2080 H2076 0.929 . S
C2080 C2082 1.378 . S
C2080 C2084 1.350 . S
C2081 C2084 1.463 . S
C2081 C2086 1.350 . S
C2081 N2089 1.427 . S
C2082 H2073 0.930 . S
C2082 C2080 1.378 . S
C2082 C2083 1.367 . S
C2083 C2082 1.367 . S
C2083 C2085 1.433 . S
C2084 C2080 1.350 . S
C2084 C2081 1.463 . S
C2084 N2088 1.427 . S
C2085 H2075 0.929 . S
C2085 C2083 1.433 . S
C2085 N2088 1.384 . S
C2086 H2077 0.929 . S
C2086 C2078 1.378 . S
C2086 C2081 1.350 . S
C2087 H2074 0.929 . S
C2087 C2079 1.433 . S
C2087 N2089 1.384 . S
N2088 C2084 1.427 . S
N2088 C2085 1.384 . S
N2089 C2081 1.427 . S
N2089 C2087 1.384 . S
H2090 C2096 0.930 . S
H2091 C2100 0.930 . S
H2092 C2105 0.929 . S
H2093 C2103 0.929 . S
H2094 C2098 0.929 . S
H2095 C2104 0.929 . S
C2096 H2090 0.930 . S
C2096 C2097 1.367 . S
C2096 C2104 1.378 . S
C2097 C2096 1.367 . S
C2097 C2105 1.433 . S
C2098 H2094 0.929 . S
C2098 C2100 1.378 . S
C2098 C2102 1.350 . S
C2099 C2102 1.463 . S
C2099 C2104 1.350 . S
C2099 N2107 1.427 . S
C2100 H2091 0.930 . S
C2100 C2098 1.378 . S
C2100 C2101 1.367 . S
C2101 C2100 1.367 . S
C2101 C2103 1.433 . S
C2102 C2098 1.350 . S
C2102 C2099 1.463 . S
C2102 N2106 1.427 . S
C2103 H2093 0.929 . S
C2103 C2101 1.433 . S
C2103 N2106 1.384 . S
C2104 H2095 0.929 . S
C2104 C2096 1.378 . S
C2104 C2099 1.350 . S
C2105 H2092 0.929 . S
C2105 C2097 1.433 . S
C2105 N2107 1.384 . S
N2106 C2102 1.427 . S
N2106 C2103 1.384 . S
N2107 C2099 1.427 . S
N2107 C2105 1.384 . S
H2108 C2114 0.930 . S
H2109 C2118 0.930 . S
H2110 C2123 0.929 . S
H2111 C2121 0.929 . S
H2112 C2116 0.929 . S
H2113 C2122 0.929 1_556 S
C2114 H2108 0.930 . S
C2114 C2115 1.367 . S
C2114 C2122 1.378 . S
C2115 C2114 1.367 . S
C2115 C2123 1.433 . S
C2116 H2112 0.929 . S
C2116 C2118 1.378 . S
C2116 C2120 1.350 . S
C2117 C2120 1.463 . S
C2117 C2122 1.350 1_556 S
C2117 N2125 1.427 1_556 S
C2118 H2109 0.930 . S
C2118 C2116 1.378 . S
C2118 C2119 1.367 . S
C2119 C2118 1.367 . S
C2119 C2121 1.433 . S
C2120 C2116 1.350 . S
C2120 C2117 1.463 . S
C2120 N2124 1.427 . S
C2121 H2111 0.929 . S
C2121 C2119 1.433 . S
C2121 N2124 1.384 . S
C2122 H2113 0.929 1_554 S
C2122 C2114 1.378 . S
C2122 C2117 1.350 1_554 S
C2123 H2110 0.929 . S
C2123 C2115 1.433 . S
C2123 N2125 1.384 . S
N2124 C2120 1.427 . S
N2124 C2121 1.384 . S
N2125 C2117 1.427 1_554 S
N2125 C2123 1.384 . S
H2126 C2132 0.930 . S
H2127 C2136 0.930 . S
H2128 C2141 0.929 . S
H2129 C2139 0.929 . S
H2130 C2134 0.929 . S
H2131 C2140 0.929 . S
C2132 H2126 0.930 . S
C2132 C2133 1.367 . S
C2132 C2140 1.378 . S
C2133 C2132 1.367 . S
C2133 C2141 1.433 . S
C2134 H2130 0.929 . S
C2134 C2136 1.378 . S
C2134 C2138 1.350 1_554 S
C2135 C2138 1.463 . S
C2135 C2140 1.350 . S
C2135 N2143 1.427 . S
C2136 H2127 0.930 . S
C2136 C2134 1.378 . S
C2136 C2137 1.367 . S
C2137 C2136 1.367 . S
C2137 C2139 1.433 . S
C2138 C2134 1.350 1_556 S
C2138 C2135 1.463 . S
C2138 N2142 1.427 1_556 S
C2139 H2129 0.929 . S
C2139 C2137 1.433 . S
C2139 N2142 1.384 . S
C2140 H2131 0.929 . S
C2140 C2132 1.378 . S
C2140 C2135 1.350 . S
C2141 H2128 0.929 . S
C2141 C2133 1.433 . S
C2141 N2143 1.384 . S
N2142 C2138 1.427 1_554 S
N2142 C2139 1.384 . S
N2143 C2135 1.427 . S
N2143 C2141 1.384 . S
H2144 C2150 0.930 . S
H2145 C2154 0.930 . S
H2146 C2159 0.929 . S
H2147 C2157 0.929 . S
H2148 C2152 0.929 . S
H2149 C2158 0.929 . S
C2150 H2144 0.930 . S
C2150 C2151 1.367 . S
C2150 C2158 1.378 . S
C2151 C2150 1.367 . S
C2151 C2159 1.433 . S
C2152 H2148 0.929 . S
C2152 C2154 1.378 . S
C2152 C2156 1.350 . S
C2153 C2156 1.463 . S
C2153 C2158 1.350 . S
C2153 N2161 1.427 . S
C2154 H2145 0.930 . S
C2154 C2152 1.378 . S
C2154 C2155 1.367 . S
C2155 C2154 1.367 . S
C2155 C2157 1.433 . S
C2156 C2152 1.350 . S
C2156 C2153 1.463 . S
C2156 N2160 1.427 . S
C2157 H2147 0.929 . S
C2157 C2155 1.433 . S
C2157 N2160 1.384 . S
C2158 H2149 0.929 . S
C2158 C2150 1.378 . S
C2158 C2153 1.350 . S
C2159 H2146 0.929 . S
C2159 C2151 1.433 . S
C2159 N2161 1.384 . S
N2160 C2156 1.427 . S
N2160 C2157 1.384 . S
N2161 C2153 1.427 . S
N2161 C2159 1.384 . S
H2162 C2168 0.930 . S
H2163 C2172 0.930 . S
H2164 C2177 0.939 . S
H2165 C2175 0.936 . S
H2166 C2170 0.929 . S
H2167 C2176 0.929 . S
C2168 H2162 0.930 . S
C2168 C2169 1.367 . S
C2168 C2176 1.378 . S
C2169 C2168 1.367 . S
C2169 C2177 1.433 . S
C2170 H2166 0.929 . S
C2170 C2172 1.378 . S
C2170 C2174 1.350 . S
C2171 C2174 1.463 1_565 S
C2171 C2176 1.350 . S
C2171 N2179 1.427 1_565 S
C2172 H2163 0.930 . S
C2172 C2170 1.378 . S
C2172 C2173 1.367 . S
C2173 C2172 1.367 . S
C2173 C2175 1.433 . S
C2174 C2170 1.350 . S
C2174 C2171 1.463 1_545 S
C2174 N2178 1.427 1_545 S
C2175 H2165 0.936 . S
C2175 C2173 1.433 . S
C2175 N2178 1.384 1_545 S
C2176 H2167 0.929 . S
C2176 C2168 1.378 . S
C2176 C2171 1.350 . S
C2177 H2164 0.939 . S
C2177 C2169 1.433 . S
C2177 N2179 1.384 1_565 S
N2178 C2174 1.427 1_565 S
N2178 C2175 1.384 1_565 S
N2179 C2171 1.427 1_545 S
N2179 C2177 1.384 1_545 S
H2180 C2186 0.918 1_545 S
H2181 C2190 0.923 1_565 S
H2182 C2195 0.929 . S
H2183 C2193 0.929 . S
H2184 C2188 0.929 . S
H2185 C2194 0.929 . S
C2186 H2180 0.918 1_565 S
C2186 C2187 1.389 . S
C2186 C2194 1.369 1_565 S
C2187 C2186 1.389 . S
C2187 C2195 1.433 . S
C2188 H2184 0.929 . S
C2188 C2190 1.373 1_565 S
C2188 C2192 1.350 1_565 S
C2189 C2192 1.463 1_565 S
C2189 C2194 1.350 1_564 S
C2189 N2197 1.427 1_554 S
C2190 H2181 0.923 1_545 S
C2190 C2188 1.373 1_545 S
C2190 C2191 1.379 . S
C2191 C2190 1.379 . S
C2191 C2193 1.433 . S
C2192 C2188 1.350 1_545 S
C2192 C2189 1.463 1_545 S
C2192 N2196 1.427 . S
C2193 H2183 0.929 . S
C2193 C2191 1.433 . S
C2193 N2196 1.384 . S
C2194 H2185 0.929 . S
C2194 C2186 1.369 1_545 S
C2194 C2189 1.350 1_546 S
C2195 H2182 0.929 . S
C2195 C2187 1.433 . S
C2195 N2197 1.384 . S
N2196 C2192 1.427 . S
N2196 C2193 1.384 . S
N2197 C2189 1.427 1_556 S
N2197 C2195 1.384 . S
H2198 C2204 0.930 . S
H2199 C2208 0.930 . S
H2200 C2213 0.929 . S
H2201 C2211 0.929 . S
H2202 C2206 0.929 . S
H2203 C2212 0.929 . S
C2204 H2198 0.930 . S
C2204 C2205 1.367 . S
C2204 C2212 1.378 . S
C2205 C2204 1.367 . S
C2205 C2213 1.433 . S
C2206 H2202 0.929 . S
C2206 C2208 1.378 . S
C2206 C2210 1.350 . S
C2207 C2210 1.463 . S
C2207 C2212 1.350 1_554 S
C2207 N2215 1.427 1_554 S
C2208 H2199 0.930 . S
C2208 C2206 1.378 . S
C2208 C2209 1.367 . S
C2209 C2208 1.367 . S
C2209 C2211 1.433 . S
C2210 C2206 1.350 . S
C2210 C2207 1.463 . S
C2210 N2214 1.427 . S
C2211 H2201 0.929 . S
C2211 C2209 1.433 . S
C2211 N2214 1.384 . S
C2212 H2203 0.929 . S
C2212 C2204 1.378 . S
C2212 C2207 1.350 1_556 S
C2213 H2200 0.929 . S
C2213 C2205 1.433 . S
C2213 N2215 1.384 . S
N2214 C2210 1.427 . S
N2214 C2211 1.384 . S
N2215 C2207 1.427 1_556 S
N2215 C2213 1.384 . S
H2216 C2222 0.930 . S
H2217 C2226 0.930 . S
H2218 C2231 0.929 . S
H2219 C2229 0.929 . S
H2220 C2224 0.929 . S
H2221 C2230 0.929 . S
C2222 H2216 0.930 . S
C2222 C2223 1.367 . S
C2222 C2230 1.378 . S
C2223 C2222 1.367 . S
C2223 C2231 1.433 . S
C2224 H2220 0.929 . S
C2224 C2226 1.378 . S
C2224 C2228 1.350 . S
C2225 C2228 1.463 . S
C2225 C2230 1.350 . S
C2225 N2233 1.427 . S
C2226 H2217 0.930 . S
C2226 C2224 1.378 . S
C2226 C2227 1.367 . S
C2227 C2226 1.367 . S
C2227 C2229 1.433 . S
C2228 C2224 1.350 . S
C2228 C2225 1.463 . S
C2228 N2232 1.427 . S
C2229 H2219 0.929 . S
C2229 C2227 1.433 . S
C2229 N2232 1.384 . S
C2230 H2221 0.929 . S
C2230 C2222 1.378 . S
C2230 C2225 1.350 . S
C2231 H2218 0.929 . S
C2231 C2223 1.433 . S
C2231 N2233 1.384 . S
N2232 C2228 1.427 . S
N2232 C2229 1.384 . S
N2233 C2225 1.427 . S
N2233 C2231 1.384 . S
H2234 C2240 0.930 . S
H2235 C2244 0.930 . S
H2236 C2249 0.932 . S
H2237 C2247 0.938 . S
H2238 C2242 0.929 . S
H2239 C2248 0.929 . S
C2240 H2234 0.930 . S
C2240 C2241 1.367 . S
C2240 C2248 1.378 . S
C2241 C2240 1.367 . S
C2241 C2249 1.429 1_545 S
C2242 H2238 0.929 . S
C2242 C2244 1.378 . S
C2242 C2246 1.350 . S
C2243 C2246 1.463 1_545 S
C2243 C2248 1.350 . S
C2243 N2251 1.427 1_545 S
C2244 H2235 0.930 . S
C2244 C2242 1.378 . S
C2244 C2245 1.367 . S
C2245 C2244 1.367 . S
C2245 C2247 1.419 1_565 S
C2246 C2242 1.350 . S
C2246 C2243 1.463 1_565 S
C2246 N2250 1.427 1_565 S
C2247 H2237 0.938 . S
C2247 C2245 1.419 1_545 S
C2247 N2250 1.389 . S
C2248 H2239 0.929 . S
C2248 C2240 1.378 . S
C2248 C2243 1.350 . S
C2249 H2236 0.932 . S
C2249 C2241 1.429 1_565 S
C2249 N2251 1.385 . S
N2250 C2246 1.427 1_545 S
N2250 C2247 1.389 . S
N2251 C2243 1.427 1_565 S
N2251 C2249 1.385 . S
H2252 C2258 0.930 . S
H2253 C2262 0.930 . S
H2254 C2267 0.920 1_545 S
H2255 C2265 0.914 1_565 S
H2256 C2260 0.929 1_556 S
H2257 C2266 0.929 . S
C2258 H2252 0.930 . S
C2258 C2259 1.367 . S
C2258 C2266 1.378 . S
C2259 C2258 1.367 . S
C2259 C2267 1.450 . S
C2260 H2256 0.929 1_554 S
C2260 C2262 1.378 . S
C2260 C2264 1.350 1_554 S
C2261 C2264 1.463 1_565 S
C2261 C2266 1.350 . S
C2261 N2269 1.427 1_565 S
C2262 H2253 0.930 . S
C2262 C2260 1.378 . S
C2262 C2263 1.367 . S
C2263 C2262 1.367 . S
C2263 C2265 1.460 . S
C2264 C2260 1.350 1_556 S
C2264 C2261 1.463 1_545 S
C2264 N2268 1.427 1_546 S
C2265 H2255 0.914 1_545 S
C2265 C2263 1.460 . S
C2265 N2268 1.373 1_545 S
C2266 H2257 0.929 . S
C2266 C2258 1.378 . S
C2266 C2261 1.350 . S
C2267 H2254 0.920 1_565 S
C2267 C2259 1.450 . S
C2267 N2269 1.377 1_565 S
N2268 C2264 1.427 1_564 S
N2268 C2265 1.373 1_565 S
N2269 C2261 1.427 1_545 S
N2269 C2267 1.377 1_545 S
H2270 C2276 0.930 . S
H2271 C2280 0.930 . S
H2272 C2285 0.929 . S
H2273 C2283 0.929 . S
H2274 C2278 0.929 . S
H2275 C2284 0.929 . S
C2276 H2270 0.930 . S
C2276 C2277 1.367 . S
C2276 C2284 1.378 . S
C2277 C2276 1.367 . S
C2277 C2285 1.433 . S
C2278 H2274 0.929 . S
C2278 C2280 1.378 . S
C2278 C2282 1.350 1_554 S
C2279 C2282 1.463 . S
C2279 C2284 1.350 . S
C2279 N2287 1.427 . S
C2280 H2271 0.930 . S
C2280 C2278 1.378 . S
C2280 C2281 1.367 . S
C2281 C2280 1.367 . S
C2281 C2283 1.433 . S
C2282 C2278 1.350 1_556 S
C2282 C2279 1.463 . S
C2282 N2286 1.427 1_556 S
C2283 H2273 0.929 . S
C2283 C2281 1.433 . S
C2283 N2286 1.384 . S
C2284 H2275 0.929 . S
C2284 C2276 1.378 . S
C2284 C2279 1.350 . S
C2285 H2272 0.929 . S
C2285 C2277 1.433 . S
C2285 N2287 1.384 . S
N2286 C2282 1.427 1_554 S
N2286 C2283 1.384 . S
N2287 C2279 1.427 . S
N2287 C2285 1.384 . S
H2288 C2294 0.930 . S
H2289 C2298 0.930 . S
H2290 C2303 0.929 . S
H2291 C2301 0.929 . S
H2292 C2296 0.929 . S
H2293 C2302 0.929 . S
C2294 H2288 0.930 . S
C2294 C2295 1.367 . S
C2294 C2302 1.378 . S
C2295 C2294 1.367 . S
C2295 C2303 1.433 . S
C2296 H2292 0.929 . S
C2296 C2298 1.378 . S
C2296 C2300 1.350 . S
C2297 C2300 1.463 . S
C2297 C2302 1.350 . S
C2297 N2305 1.427 . S
C2298 H2289 0.930 . S
C2298 C2296 1.378 . S
C2298 C2299 1.367 . S
C2299 C2298 1.367 . S
C2299 C2301 1.433 . S
C2300 C2296 1.350 . S
C2300 C2297 1.463 . S
C2300 N2304 1.427 . S
C2301 H2291 0.929 . S
C2301 C2299 1.433 . S
C2301 N2304 1.384 . S
C2302 H2293 0.929 . S
C2302 C2294 1.378 . S
C2302 C2297 1.350 . S
C2303 H2290 0.929 . S
C2303 C2295 1.433 . S
C2303 N2305 1.384 . S
N2304 C2300 1.427 . S
N2304 C2301 1.384 . S
N2305 C2297 1.427 . S
N2305 C2303 1.384 . S
H2306 C2312 0.930 . S
H2307 C2316 0.930 . S
H2308 C2321 0.929 . S
H2309 C2319 0.929 . S
H2310 C2314 0.929 . S
H2311 C2320 0.929 . S
C2312 H2306 0.930 . S
C2312 C2313 1.367 . S
C2312 C2320 1.378 . S
C2313 C2312 1.367 . S
C2313 C2321 1.433 . S
C2314 H2310 0.929 . S
C2314 C2316 1.378 . S
C2314 C2318 1.350 . S
C2315 C2318 1.463 . S
C2315 C2320 1.350 . S
C2315 N2323 1.427 . S
C2316 H2307 0.930 . S
C2316 C2314 1.378 . S
C2316 C2317 1.367 . S
C2317 C2316 1.367 . S
C2317 C2319 1.433 . S
C2318 C2314 1.350 . S
C2318 C2315 1.463 . S
C2318 N2322 1.427 . S
C2319 H2309 0.929 . S
C2319 C2317 1.433 . S
C2319 N2322 1.384 . S
C2320 H2311 0.929 . S
C2320 C2312 1.378 . S
C2320 C2315 1.350 . S
C2321 H2308 0.929 . S
C2321 C2313 1.433 . S
C2321 N2323 1.384 . S
N2322 C2318 1.427 . S
N2322 C2319 1.384 . S
N2323 C2315 1.427 . S
N2323 C2321 1.384 . S
H2324 C2330 0.930 . S
H2325 C2334 0.930 . S
H2326 C2339 0.929 . S
H2327 C2337 0.929 . S
H2328 C2332 0.929 . S
H2329 C2338 0.929 . S
C2330 H2324 0.930 . S
C2330 C2331 1.367 . S
C2330 C2338 1.378 . S
C2331 C2330 1.367 . S
C2331 C2339 1.433 . S
C2332 H2328 0.929 . S
C2332 C2334 1.378 . S
C2332 C2336 1.350 . S
C2333 C2336 1.463 . S
C2333 C2338 1.350 . S
C2333 N2341 1.427 . S
C2334 H2325 0.930 . S
C2334 C2332 1.378 . S
C2334 C2335 1.367 . S
C2335 C2334 1.367 . S
C2335 C2337 1.433 . S
C2336 C2332 1.350 . S
C2336 C2333 1.463 . S
C2336 N2340 1.427 . S
C2337 H2327 0.929 . S
C2337 C2335 1.433 . S
C2337 N2340 1.384 . S
C2338 H2329 0.929 . S
C2338 C2330 1.378 . S
C2338 C2333 1.350 . S
C2339 H2326 0.929 . S
C2339 C2331 1.433 . S
C2339 N2341 1.384 . S
N2340 C2336 1.427 . S
N2340 C2337 1.384 . S
N2341 C2333 1.427 . S
N2341 C2339 1.384 . S
H2342 C2348 0.930 . S
H2343 C2352 0.930 . S
H2344 C2357 0.929 . S
H2345 C2355 0.929 . S
H2346 C2350 0.929 . S
H2347 C2356 0.929 . S
C2348 H2342 0.930 . S
C2348 C2349 1.367 . S
C2348 C2356 1.378 . S
C2349 C2348 1.367 . S
C2349 C2357 1.433 . S
C2350 H2346 0.929 . S
C2350 C2352 1.378 . S
C2350 C2354 1.350 . S
C2351 C2354 1.463 . S
C2351 C2356 1.350 . S
C2351 N2359 1.427 . S
C2352 H2343 0.930 . S
C2352 C2350 1.378 . S
C2352 C2353 1.367 . S
C2353 C2352 1.367 . S
C2353 C2355 1.433 . S
C2354 C2350 1.350 . S
C2354 C2351 1.463 . S
C2354 N2358 1.427 . S
C2355 H2345 0.929 . S
C2355 C2353 1.433 . S
C2355 N2358 1.384 . S
C2356 H2347 0.929 . S
C2356 C2348 1.378 . S
C2356 C2351 1.350 . S
C2357 H2344 0.929 . S
C2357 C2349 1.433 . S
C2357 N2359 1.384 . S
N2358 C2354 1.427 . S
N2358 C2355 1.384 . S
N2359 C2351 1.427 . S
N2359 C2357 1.384 . S
H2360 C2366 0.930 . S
H2361 C2370 0.930 . S
H2362 C2375 0.929 . S
H2363 C2373 0.929 . S
H2364 C2368 0.929 . S
H2365 C2374 0.929 . S
C2366 H2360 0.930 . S
C2366 C2367 1.367 . S
C2366 C2374 1.378 . S
C2367 C2366 1.367 . S
C2367 C2375 1.433 . S
C2368 H2364 0.929 . S
C2368 C2370 1.378 . S
C2368 C2372 1.350 . S
C2369 C2372 1.463 . S
C2369 C2374 1.350 . S
C2369 N2377 1.427 . S
C2370 H2361 0.930 . S
C2370 C2368 1.378 . S
C2370 C2371 1.367 . S
C2371 C2370 1.367 . S
C2371 C2373 1.433 . S
C2372 C2368 1.350 . S
C2372 C2369 1.463 . S
C2372 N2376 1.427 . S
C2373 H2363 0.929 . S
C2373 C2371 1.433 . S
C2373 N2376 1.384 . S
C2374 H2365 0.929 . S
C2374 C2366 1.378 . S
C2374 C2369 1.350 . S
C2375 H2362 0.929 . S
C2375 C2367 1.433 . S
C2375 N2377 1.384 . S
N2376 C2372 1.427 . S
N2376 C2373 1.384 . S
N2377 C2369 1.427 . S
N2377 C2375 1.384 . S
H2378 C2384 0.930 . S
H2379 C2388 0.930 . S
H2380 C2393 0.929 . S
H2381 C2391 0.929 . S
H2382 C2386 0.929 . S
H2383 C2392 0.929 . S
C2384 H2378 0.930 . S
C2384 C2385 1.367 . S
C2384 C2392 1.378 . S
C2385 C2384 1.367 . S
C2385 C2393 1.433 . S
C2386 H2382 0.929 . S
C2386 C2388 1.378 . S
C2386 C2390 1.350 . S
C2387 C2390 1.463 . S
C2387 C2392 1.350 . S
C2387 N2395 1.427 . S
C2388 H2379 0.930 . S
C2388 C2386 1.378 . S
C2388 C2389 1.367 . S
C2389 C2388 1.367 . S
C2389 C2391 1.433 . S
C2390 C2386 1.350 . S
C2390 C2387 1.463 . S
C2390 N2394 1.427 . S
C2391 H2381 0.929 . S
C2391 C2389 1.433 . S
C2391 N2394 1.384 . S
C2392 H2383 0.929 . S
C2392 C2384 1.378 . S
C2392 C2387 1.350 . S
C2393 H2380 0.929 . S
C2393 C2385 1.433 . S
C2393 N2395 1.384 . S
N2394 C2390 1.427 . S
N2394 C2391 1.384 . S
N2395 C2387 1.427 . S
N2395 C2393 1.384 . S
H2396 C2402 0.930 . S
H2397 C2406 0.930 . S
H2398 C2411 0.929 . S
H2399 C2409 0.929 . S
H2400 C2404 0.929 . S
H2401 C2410 0.929 . S
C2402 H2396 0.930 . S
C2402 C2403 1.367 . S
C2402 C2410 1.378 . S
C2403 C2402 1.367 . S
C2403 C2411 1.433 . S
C2404 H2400 0.929 . S
C2404 C2406 1.378 . S
C2404 C2408 1.350 . S
C2405 C2408 1.463 . S
C2405 C2410 1.350 . S
C2405 N2413 1.427 . S
C2406 H2397 0.930 . S
C2406 C2404 1.378 . S
C2406 C2407 1.367 . S
C2407 C2406 1.367 . S
C2407 C2409 1.433 . S
C2408 C2404 1.350 . S
C2408 C2405 1.463 . S
C2408 N2412 1.427 . S
C2409 H2399 0.929 . S
C2409 C2407 1.433 . S
C2409 N2412 1.384 . S
C2410 H2401 0.929 . S
C2410 C2402 1.378 . S
C2410 C2405 1.350 . S
C2411 H2398 0.929 . S
C2411 C2403 1.433 . S
C2411 N2413 1.384 . S
N2412 C2408 1.427 . S
N2412 C2409 1.384 . S
N2413 C2405 1.427 . S
N2413 C2411 1.384 . S
H2414 C2420 0.930 . S
H2415 C2424 0.930 . S
H2416 C2429 0.929 . S
H2417 C2427 0.929 . S
H2418 C2422 0.929 . S
H2419 C2428 0.929 . S
C2420 H2414 0.930 . S
C2420 C2421 1.367 . S
C2420 C2428 1.378 . S
C2421 C2420 1.367 . S
C2421 C2429 1.433 . S
C2422 H2418 0.929 . S
C2422 C2424 1.378 . S
C2422 C2426 1.350 . S
C2423 C2426 1.463 . S
C2423 C2428 1.350 . S
C2423 N2431 1.427 . S
C2424 H2415 0.930 . S
C2424 C2422 1.378 . S
C2424 C2425 1.367 . S
C2425 C2424 1.367 . S
C2425 C2427 1.433 . S
C2426 C2422 1.350 . S
C2426 C2423 1.463 . S
C2426 N2430 1.427 . S
C2427 H2417 0.929 . S
C2427 C2425 1.433 . S
C2427 N2430 1.384 . S
C2428 H2419 0.929 . S
C2428 C2420 1.378 . S
C2428 C2423 1.350 . S
C2429 H2416 0.929 . S
C2429 C2421 1.433 . S
C2429 N2431 1.384 . S
N2430 C2426 1.427 . S
N2430 C2427 1.384 . S
N2431 C2423 1.427 . S
N2431 C2429 1.384 . S
H2432 C2438 0.930 . S
H2433 C2442 0.930 . S
H2434 C2447 0.929 . S
H2435 C2445 0.929 . S
H2436 C2440 0.929 . S
H2437 C2446 0.929 . S
C2438 H2432 0.930 . S
C2438 C2439 1.367 . S
C2438 C2446 1.378 . S
C2439 C2438 1.367 . S
C2439 C2447 1.433 . S
C2440 H2436 0.929 . S
C2440 C2442 1.378 . S
C2440 C2444 1.350 . S
C2441 C2444 1.463 . S
C2441 C2446 1.350 . S
C2441 N2449 1.427 . S
C2442 H2433 0.930 . S
C2442 C2440 1.378 . S
C2442 C2443 1.367 . S
C2443 C2442 1.367 . S
C2443 C2445 1.433 . S
C2444 C2440 1.350 . S
C2444 C2441 1.463 . S
C2444 N2448 1.427 . S
C2445 H2435 0.929 . S
C2445 C2443 1.433 . S
C2445 N2448 1.384 . S
C2446 H2437 0.929 . S
C2446 C2438 1.378 . S
C2446 C2441 1.350 . S
C2447 H2434 0.929 . S
C2447 C2439 1.433 . S
C2447 N2449 1.384 . S
N2448 C2444 1.427 . S
N2448 C2445 1.384 . S
N2449 C2441 1.427 . S
N2449 C2447 1.384 . S
H2450 C2456 0.930 . S
H2451 C2460 0.930 . S
H2452 C2465 0.929 . S
H2453 C2463 0.929 . S
H2454 C2458 0.929 . S
H2455 C2464 0.929 . S
C2456 H2450 0.930 . S
C2456 C2457 1.367 . S
C2456 C2464 1.378 . S
C2457 C2456 1.367 . S
C2457 C2465 1.433 . S
C2458 H2454 0.929 . S
C2458 C2460 1.378 . S
C2458 C2462 1.350 . S
C2459 C2462 1.463 . S
C2459 C2464 1.350 . S
C2459 N2467 1.427 . S
C2460 H2451 0.930 . S
C2460 C2458 1.378 . S
C2460 C2461 1.367 . S
C2461 C2460 1.367 . S
C2461 C2463 1.433 . S
C2462 C2458 1.350 . S
C2462 C2459 1.463 . S
C2462 N2466 1.427 . S
C2463 H2453 0.929 . S
C2463 C2461 1.433 . S
C2463 N2466 1.384 . S
C2464 H2455 0.929 . S
C2464 C2456 1.378 . S
C2464 C2459 1.350 . S
C2465 H2452 0.929 . S
C2465 C2457 1.433 . S
C2465 N2467 1.384 . S
N2466 C2462 1.427 . S
N2466 C2463 1.384 . S
N2467 C2459 1.427 . S
N2467 C2465 1.384 . S
H2468 C2474 0.930 1_554 S
H2469 C2478 0.930 . S
H2470 C2483 0.929 . S
H2471 C2481 0.929 . S
H2472 C2476 0.929 . S
H2473 C2482 0.929 . S
C2474 H2468 0.930 1_556 S
C2474 C2475 1.367 . S
C2474 C2482 1.378 . S
C2475 C2474 1.367 . S
C2475 C2483 1.433 . S
C2476 H2472 0.929 . S
C2476 C2478 1.378 . S
C2476 C2480 1.350 . S
C2477 C2480 1.463 . S
C2477 C2482 1.350 . S
C2477 N2485 1.427 . S
C2478 H2469 0.930 . S
C2478 C2476 1.378 . S
C2478 C2479 1.367 . S
C2479 C2478 1.367 . S
C2479 C2481 1.433 . S
C2480 C2476 1.350 . S
C2480 C2477 1.463 . S
C2480 N2484 1.427 . S
C2481 H2471 0.929 . S
C2481 C2479 1.433 . S
C2481 N2484 1.384 . S
C2482 H2473 0.929 . S
C2482 C2474 1.378 . S
C2482 C2477 1.350 . S
C2483 H2470 0.929 . S
C2483 C2475 1.433 . S
C2483 N2485 1.384 . S
N2484 C2480 1.427 . S
N2484 C2481 1.384 . S
N2485 C2477 1.427 . S
N2485 C2483 1.384 . S
H2486 C2492 0.930 . S
H2487 C2496 0.930 . S
H2488 C2501 0.929 . S
H2489 C2499 0.929 . S
H2490 C2494 0.929 . S
H2491 C2500 0.929 . S
C2492 H2486 0.930 . S
C2492 C2493 1.367 . S
C2492 C2500 1.378 . S
C2493 C2492 1.367 . S
C2493 C2501 1.433 . S
C2494 H2490 0.929 . S
C2494 C2496 1.378 . S
C2494 C2498 1.350 . S
C2495 C2498 1.463 . S
C2495 C2500 1.350 . S
C2495 N2503 1.427 . S
C2496 H2487 0.930 . S
C2496 C2494 1.378 . S
C2496 C2497 1.367 . S
C2497 C2496 1.367 . S
C2497 C2499 1.433 . S
C2498 C2494 1.350 . S
C2498 C2495 1.463 . S
C2498 N2502 1.427 . S
C2499 H2489 0.929 . S
C2499 C2497 1.433 . S
C2499 N2502 1.384 . S
C2500 H2491 0.929 . S
C2500 C2492 1.378 . S
C2500 C2495 1.350 . S
C2501 H2488 0.929 . S
C2501 C2493 1.433 . S
C2501 N2503 1.384 . S
N2502 C2498 1.427 . S
N2502 C2499 1.384 . S
N2503 C2495 1.427 . S
N2503 C2501 1.384 . S
H2504 C2510 0.930 . S
H2505 C2514 0.930 . S
H2506 C2519 0.929 . S
H2507 C2517 0.929 . S
H2508 C2512 0.929 . S
H2509 C2518 0.929 . S
C2510 H2504 0.930 . S
C2510 C2511 1.367 . S
C2510 C2518 1.378 . S
C2511 C2510 1.367 . S
C2511 C2519 1.433 . S
C2512 H2508 0.929 . S
C2512 C2514 1.378 . S
C2512 C2516 1.350 . S
C2513 C2516 1.463 . S
C2513 C2518 1.350 . S
C2513 N2521 1.427 . S
C2514 H2505 0.930 . S
C2514 C2512 1.378 . S
C2514 C2515 1.367 . S
C2515 C2514 1.367 . S
C2515 C2517 1.433 . S
C2516 C2512 1.350 . S
C2516 C2513 1.463 . S
C2516 N2520 1.427 . S
C2517 H2507 0.929 . S
C2517 C2515 1.433 . S
C2517 N2520 1.384 . S
C2518 H2509 0.929 . S
C2518 C2510 1.378 . S
C2518 C2513 1.350 . S
C2519 H2506 0.929 . S
C2519 C2511 1.433 . S
C2519 N2521 1.384 . S
N2520 C2516 1.427 . S
N2520 C2517 1.384 . S
N2521 C2513 1.427 . S
N2521 C2519 1.384 . S
H2522 C2528 0.930 . S
H2523 C2532 0.930 . S
H2524 C2537 0.929 . S
H2525 C2535 0.929 . S
H2526 C2530 0.929 . S
H2527 C2536 0.929 . S
C2528 H2522 0.930 . S
C2528 C2529 1.367 . S
C2528 C2536 1.378 . S
C2529 C2528 1.367 . S
C2529 C2537 1.433 . S
C2530 H2526 0.929 . S
C2530 C2532 1.378 . S
C2530 C2534 1.350 . S
C2531 C2534 1.463 . S
C2531 C2536 1.350 . S
C2531 N2539 1.427 . S
C2532 H2523 0.930 . S
C2532 C2530 1.378 . S
C2532 C2533 1.367 . S
C2533 C2532 1.367 . S
C2533 C2535 1.433 . S
C2534 C2530 1.350 . S
C2534 C2531 1.463 . S
C2534 N2538 1.427 . S
C2535 H2525 0.929 . S
C2535 C2533 1.433 . S
C2535 N2538 1.384 . S
C2536 H2527 0.929 . S
C2536 C2528 1.378 . S
C2536 C2531 1.350 . S
C2537 H2524 0.929 . S
C2537 C2529 1.433 . S
C2537 N2539 1.384 . S
N2538 C2534 1.427 . S
N2538 C2535 1.384 . S
N2539 C2531 1.427 . S
N2539 C2537 1.384 . S
H2540 C2546 0.930 1_556 S
H2541 C2550 0.930 . S
H2542 C2555 0.929 . S
H2543 C2553 0.929 . S
H2544 C2548 0.929 . S
H2545 C2554 0.929 . S
C2546 H2540 0.930 1_554 S
C2546 C2547 1.367 . S
C2546 C2554 1.378 . S
C2547 C2546 1.367 . S
C2547 C2555 1.433 . S
C2548 H2544 0.929 . S
C2548 C2550 1.378 . S
C2548 C2552 1.350 . S
C2549 C2552 1.463 . S
C2549 C2554 1.350 . S
C2549 N2557 1.427 . S
C2550 H2541 0.930 . S
C2550 C2548 1.378 . S
C2550 C2551 1.367 . S
C2551 C2550 1.367 . S
C2551 C2553 1.433 . S
C2552 C2548 1.350 . S
C2552 C2549 1.463 . S
C2552 N2556 1.427 . S
C2553 H2543 0.929 . S
C2553 C2551 1.433 . S
C2553 N2556 1.384 . S
C2554 H2545 0.929 . S
C2554 C2546 1.378 . S
C2554 C2549 1.350 . S
C2555 H2542 0.929 . S
C2555 C2547 1.433 . S
C2555 N2557 1.384 . S
N2556 C2552 1.427 . S
N2556 C2553 1.384 . S
N2557 C2549 1.427 . S
N2557 C2555 1.384 . S
H2558 C2564 0.930 . S
H2559 C2568 0.930 . S
H2560 C2573 0.929 . S
H2561 C2571 0.929 . S
H2562 C2566 0.929 . S
H2563 C2572 0.929 . S
C2564 H2558 0.930 . S
C2564 C2565 1.367 . S
C2564 C2572 1.378 . S
C2565 C2564 1.367 . S
C2565 C2573 1.433 . S
C2566 H2562 0.929 . S
C2566 C2568 1.378 . S
C2566 C2570 1.350 . S
C2567 C2570 1.463 . S
C2567 C2572 1.350 . S
C2567 N2575 1.427 . S
C2568 H2559 0.930 . S
C2568 C2566 1.378 . S
C2568 C2569 1.367 . S
C2569 C2568 1.367 . S
C2569 C2571 1.433 . S
C2570 C2566 1.350 . S
C2570 C2567 1.463 . S
C2570 N2574 1.427 . S
C2571 H2561 0.929 . S
C2571 C2569 1.433 . S
C2571 N2574 1.384 . S
C2572 H2563 0.929 . S
C2572 C2564 1.378 . S
C2572 C2567 1.350 . S
C2573 H2560 0.929 . S
C2573 C2565 1.433 . S
C2573 N2575 1.384 . S
N2574 C2570 1.427 . S
N2574 C2571 1.384 . S
N2575 C2567 1.427 . S
N2575 C2573 1.384 . S
H2576 C2582 0.930 . S
H2577 C2586 0.930 . S
H2578 C2591 0.929 . S
H2579 C2589 0.929 . S
H2580 C2584 0.929 . S
H2581 C2590 0.929 . S
C2582 H2576 0.930 . S
C2582 C2583 1.367 . S
C2582 C2590 1.378 . S
C2583 C2582 1.367 . S
C2583 C2591 1.433 . S
C2584 H2580 0.929 . S
C2584 C2586 1.378 . S
C2584 C2588 1.350 . S
C2585 C2588 1.463 . S
C2585 C2590 1.350 . S
C2585 N2593 1.427 . S
C2586 H2577 0.930 . S
C2586 C2584 1.378 . S
C2586 C2587 1.367 . S
C2587 C2586 1.367 . S
C2587 C2589 1.433 . S
C2588 C2584 1.350 . S
C2588 C2585 1.463 . S
C2588 N2592 1.427 . S
C2589 H2579 0.929 . S
C2589 C2587 1.433 . S
C2589 N2592 1.384 . S
C2590 H2581 0.929 . S
C2590 C2582 1.378 . S
C2590 C2585 1.350 . S
C2591 H2578 0.929 . S
C2591 C2583 1.433 . S
C2591 N2593 1.384 . S
N2592 C2588 1.427 . S
N2592 C2589 1.384 . S
N2593 C2585 1.427 . S
N2593 C2591 1.384 . S
H2594 C2600 0.930 . S
H2595 C2604 0.930 1_554 S
H2596 C2609 0.929 . S
H2597 C2607 0.929 . S
H2598 C2602 0.929 . S
H2599 C2608 0.929 . S
C2600 H2594 0.930 . S
C2600 C2601 1.367 . S
C2600 C2608 1.378 . S
C2601 C2600 1.367 . S
C2601 C2609 1.433 . S
C2602 H2598 0.929 . S
C2602 C2604 1.378 . S
C2602 C2606 1.350 . S
C2603 C2606 1.463 . S
C2603 C2608 1.350 . S
C2603 N2611 1.427 . S
C2604 H2595 0.930 1_556 S
C2604 C2602 1.378 . S
C2604 C2605 1.367 . S
C2605 C2604 1.367 . S
C2605 C2607 1.433 . S
C2606 C2602 1.350 . S
C2606 C2603 1.463 . S
C2606 N2610 1.427 . S
C2607 H2597 0.929 . S
C2607 C2605 1.433 . S
C2607 N2610 1.384 . S
C2608 H2599 0.929 . S
C2608 C2600 1.378 . S
C2608 C2603 1.350 . S
C2609 H2596 0.929 . S
C2609 C2601 1.433 . S
C2609 N2611 1.384 . S
N2610 C2606 1.427 . S
N2610 C2607 1.384 . S
N2611 C2603 1.427 . S
N2611 C2609 1.384 . S
H2612 C2618 0.930 . S
H2613 C2622 0.930 . S
H2614 C2627 0.929 . S
H2615 C2625 0.929 . S
H2616 C2620 0.929 . S
H2617 C2626 0.929 . S
C2618 H2612 0.930 . S
C2618 C2619 1.367 . S
C2618 C2626 1.378 . S
C2619 C2618 1.367 . S
C2619 C2627 1.433 . S
C2620 H2616 0.929 . S
C2620 C2622 1.378 . S
C2620 C2624 1.350 . S
C2621 C2624 1.463 . S
C2621 C2626 1.350 . S
C2621 N2629 1.427 . S
C2622 H2613 0.930 . S
C2622 C2620 1.378 . S
C2622 C2623 1.367 . S
C2623 C2622 1.367 . S
C2623 C2625 1.433 . S
C2624 C2620 1.350 . S
C2624 C2621 1.463 . S
C2624 N2628 1.427 . S
C2625 H2615 0.929 . S
C2625 C2623 1.433 . S
C2625 N2628 1.384 . S
C2626 H2617 0.929 . S
C2626 C2618 1.378 . S
C2626 C2621 1.350 . S
C2627 H2614 0.929 . S
C2627 C2619 1.433 . S
C2627 N2629 1.384 . S
N2628 C2624 1.427 . S
N2628 C2625 1.384 . S
N2629 C2621 1.427 . S
N2629 C2627 1.384 . S
H2630 C2636 0.930 . S
H2631 C2640 0.930 . S
H2632 C2645 0.929 . S
H2633 C2643 0.929 . S
H2634 C2638 0.929 . S
H2635 C2644 0.929 . S
C2636 H2630 0.930 . S
C2636 C2637 1.367 . S
C2636 C2644 1.378 . S
C2637 C2636 1.367 . S
C2637 C2645 1.433 . S
C2638 H2634 0.929 . S
C2638 C2640 1.378 . S
C2638 C2642 1.350 . S
C2639 C2642 1.463 . S
C2639 C2644 1.350 . S
C2639 N2647 1.427 . S
C2640 H2631 0.930 . S
C2640 C2638 1.378 . S
C2640 C2641 1.367 . S
C2641 C2640 1.367 . S
C2641 C2643 1.433 . S
C2642 C2638 1.350 . S
C2642 C2639 1.463 . S
C2642 N2646 1.427 . S
C2643 H2633 0.929 . S
C2643 C2641 1.433 . S
C2643 N2646 1.384 . S
C2644 H2635 0.929 . S
C2644 C2636 1.378 . S
C2644 C2639 1.350 . S
C2645 H2632 0.929 . S
C2645 C2637 1.433 . S
C2645 N2647 1.384 . S
N2646 C2642 1.427 . S
N2646 C2643 1.384 . S
N2647 C2639 1.427 . S
N2647 C2645 1.384 . S
H2648 C2654 0.930 1_556 S
H2649 C2658 0.930 . S
H2650 C2663 0.929 . S
H2651 C2661 0.929 . S
H2652 C2656 0.929 . S
H2653 C2662 0.929 . S
C2654 H2648 0.930 1_554 S
C2654 C2655 1.367 . S
C2654 C2662 1.378 . S
C2655 C2654 1.367 . S
C2655 C2663 1.433 . S
C2656 H2652 0.929 . S
C2656 C2658 1.378 . S
C2656 C2660 1.350 . S
C2657 C2660 1.463 . S
C2657 C2662 1.350 . S
C2657 N2665 1.427 . S
C2658 H2649 0.930 . S
C2658 C2656 1.378 . S
C2658 C2659 1.367 . S
C2659 C2658 1.367 . S
C2659 C2661 1.433 . S
C2660 C2656 1.350 . S
C2660 C2657 1.463 . S
C2660 N2664 1.427 . S
C2661 H2651 0.929 . S
C2661 C2659 1.433 . S
C2661 N2664 1.384 . S
C2662 H2653 0.929 . S
C2662 C2654 1.378 . S
C2662 C2657 1.350 . S
C2663 H2650 0.929 . S
C2663 C2655 1.433 . S
C2663 N2665 1.384 . S
N2664 C2660 1.427 . S
N2664 C2661 1.384 . S
N2665 C2657 1.427 . S
N2665 C2663 1.384 . S
H2666 C2672 0.930 . S
H2667 C2676 0.930 . S
H2668 C2681 0.929 . S
H2669 C2679 0.929 1_556 S
H2670 C2674 0.929 . S
H2671 C2680 0.929 . S
C2672 H2666 0.930 . S
C2672 C2673 1.367 . S
C2672 C2680 1.378 . S
C2673 C2672 1.367 . S
C2673 C2681 1.433 . S
C2674 H2670 0.929 . S
C2674 C2676 1.378 . S
C2674 C2678 1.350 . S
C2675 C2678 1.463 . S
C2675 C2680 1.350 . S
C2675 N2683 1.427 . S
C2676 H2667 0.930 . S
C2676 C2674 1.378 . S
C2676 C2677 1.367 . S
C2677 C2676 1.367 . S
C2677 C2679 1.433 . S
C2678 C2674 1.350 . S
C2678 C2675 1.463 . S
C2678 N2682 1.427 . S
C2679 H2669 0.929 1_554 S
C2679 C2677 1.433 . S
C2679 N2682 1.384 . S
C2680 H2671 0.929 . S
C2680 C2672 1.378 . S
C2680 C2675 1.350 . S
C2681 H2668 0.929 . S
C2681 C2673 1.433 . S
C2681 N2683 1.384 . S
N2682 C2678 1.427 . S
N2682 C2679 1.384 . S
N2683 C2675 1.427 . S
N2683 C2681 1.384 . S
H2684 C2690 0.930 . S
H2685 C2694 0.930 . S
H2686 C2699 0.929 . S
H2687 C2697 0.929 . S
H2688 C2692 0.929 . S
H2689 C2698 0.929 . S
C2690 H2684 0.930 . S
C2690 C2691 1.367 . S
C2690 C2698 1.378 . S
C2691 C2690 1.367 . S
C2691 C2699 1.433 . S
C2692 H2688 0.929 . S
C2692 C2694 1.378 . S
C2692 C2696 1.350 . S
C2693 C2696 1.463 . S
C2693 C2698 1.350 . S
C2693 N2701 1.427 . S
C2694 H2685 0.930 . S
C2694 C2692 1.378 . S
C2694 C2695 1.367 . S
C2695 C2694 1.367 . S
C2695 C2697 1.433 . S
C2696 C2692 1.350 . S
C2696 C2693 1.463 . S
C2696 N2700 1.427 . S
C2697 H2687 0.929 . S
C2697 C2695 1.433 . S
C2697 N2700 1.384 . S
C2698 H2689 0.929 . S
C2698 C2690 1.378 . S
C2698 C2693 1.350 . S
C2699 H2686 0.929 . S
C2699 C2691 1.433 . S
C2699 N2701 1.384 . S
N2700 C2696 1.427 . S
N2700 C2697 1.384 . S
N2701 C2693 1.427 . S
N2701 C2699 1.384 . S
H2702 C2708 0.930 . S
H2703 C2712 0.930 . S
H2704 C2717 0.929 . S
H2705 C2715 0.929 . S
H2706 C2710 0.929 . S
H2707 C2716 0.929 . S
C2708 H2702 0.930 . S
C2708 C2709 1.367 . S
C2708 C2716 1.378 . S
C2709 C2708 1.367 . S
C2709 C2717 1.433 . S
C2710 H2706 0.929 . S
C2710 C2712 1.378 . S
C2710 C2714 1.350 . S
C2711 C2714 1.463 . S
C2711 C2716 1.350 . S
C2711 N2719 1.427 . S
C2712 H2703 0.930 . S
C2712 C2710 1.378 . S
C2712 C2713 1.367 . S
C2713 C2712 1.367 . S
C2713 C2715 1.433 . S
C2714 C2710 1.350 . S
C2714 C2711 1.463 . S
C2714 N2718 1.427 . S
C2715 H2705 0.929 . S
C2715 C2713 1.433 . S
C2715 N2718 1.384 . S
C2716 H2707 0.929 . S
C2716 C2708 1.378 . S
C2716 C2711 1.350 . S
C2717 H2704 0.929 . S
C2717 C2709 1.433 . S
C2717 N2719 1.384 . S
N2718 C2714 1.427 . S
N2718 C2715 1.384 . S
N2719 C2711 1.427 . S
N2719 C2717 1.384 . S
H2720 C2726 0.930 . S
H2721 C2730 0.930 . S
H2722 C2735 0.929 . S
H2723 C2733 0.929 . S
H2724 C2728 0.929 . S
H2725 C2734 0.929 . S
C2726 H2720 0.930 . S
C2726 C2727 1.367 . S
C2726 C2734 1.378 . S
C2727 C2726 1.367 . S
C2727 C2735 1.433 . S
C2728 H2724 0.929 . S
C2728 C2730 1.378 . S
C2728 C2732 1.350 . S
C2729 C2732 1.463 . S
C2729 C2734 1.350 . S
C2729 N2737 1.427 . S
C2730 H2721 0.930 . S
C2730 C2728 1.378 . S
C2730 C2731 1.367 . S
C2731 C2730 1.367 . S
C2731 C2733 1.433 . S
C2732 C2728 1.350 . S
C2732 C2729 1.463 . S
C2732 N2736 1.427 . S
C2733 H2723 0.929 . S
C2733 C2731 1.433 . S
C2733 N2736 1.384 . S
C2734 H2725 0.929 . S
C2734 C2726 1.378 . S
C2734 C2729 1.350 . S
C2735 H2722 0.929 . S
C2735 C2727 1.433 . S
C2735 N2737 1.384 . S
N2736 C2732 1.427 . S
N2736 C2733 1.384 . S
N2737 C2729 1.427 . S
N2737 C2735 1.384 . S
H2738 C2744 0.930 . S
H2739 C2748 0.930 . S
H2740 C2753 0.929 . S
H2741 C2751 0.929 . S
H2742 C2746 0.929 . S
H2743 C2752 0.929 . S
C2744 H2738 0.930 . S
C2744 C2745 1.367 . S
C2744 C2752 1.378 . S
C2745 C2744 1.367 . S
C2745 C2753 1.433 . S
C2746 H2742 0.929 . S
C2746 C2748 1.378 . S
C2746 C2750 1.350 . S
C2747 C2750 1.463 . S
C2747 C2752 1.350 . S
C2747 N2755 1.427 . S
C2748 H2739 0.930 . S
C2748 C2746 1.378 . S
C2748 C2749 1.367 . S
C2749 C2748 1.367 . S
C2749 C2751 1.433 . S
C2750 C2746 1.350 . S
C2750 C2747 1.463 . S
C2750 N2754 1.427 . S
C2751 H2741 0.929 . S
C2751 C2749 1.433 . S
C2751 N2754 1.384 . S
C2752 H2743 0.929 . S
C2752 C2744 1.378 . S
C2752 C2747 1.350 . S
C2753 H2740 0.929 . S
C2753 C2745 1.433 . S
C2753 N2755 1.384 . S
N2754 C2750 1.427 . S
N2754 C2751 1.384 . S
N2755 C2747 1.427 . S
N2755 C2753 1.384 . S
H2756 C2762 0.930 . S
H2757 C2766 0.930 . S
H2758 C2771 0.916 1_554 S
H2759 C2769 0.929 . S
H2760 C2764 0.929 . S
H2761 C2770 0.929 . S
C2762 H2756 0.930 . S
C2762 C2763 1.367 . S
C2762 C2770 1.378 . S
C2763 C2762 1.367 . S
C2763 C2771 1.433 . S
C2764 H2760 0.929 . S
C2764 C2766 1.378 . S
C2764 C2768 1.350 . S
C2765 C2768 1.463 . S
C2765 C2770 1.350 . S
C2765 N2773 1.427 . S
C2766 H2757 0.930 . S
C2766 C2764 1.378 . S
C2766 C2767 1.367 . S
C2767 C2766 1.367 . S
C2767 C2769 1.433 . S
C2768 C2764 1.350 . S
C2768 C2765 1.463 . S
C2768 N2772 1.427 . S
C2769 H2759 0.929 . S
C2769 C2767 1.433 . S
C2769 N2772 1.384 . S
C2770 H2761 0.929 . S
C2770 C2762 1.378 . S
C2770 C2765 1.350 . S
C2771 H2758 0.916 1_556 S
C2771 C2763 1.433 . S
C2771 N2773 1.384 . S
N2772 C2768 1.427 . S
N2772 C2769 1.384 . S
N2773 C2765 1.427 . S
N2773 C2771 1.384 . S
H2774 C2780 0.930 . S
H2775 C2784 0.930 . S
H2776 C2789 0.929 . S
H2777 C2787 0.929 . S
H2778 C2782 0.929 . S
H2779 C2788 0.929 . S
C2780 H2774 0.930 . S
C2780 C2781 1.367 . S
C2780 C2788 1.378 . S
C2781 C2780 1.367 . S
C2781 C2789 1.433 . S
C2782 H2778 0.929 . S
C2782 C2784 1.378 . S
C2782 C2786 1.350 . S
C2783 C2786 1.463 . S
C2783 C2788 1.350 . S
C2783 N2791 1.427 . S
C2784 H2775 0.930 . S
C2784 C2782 1.378 . S
C2784 C2785 1.367 . S
C2785 C2784 1.367 . S
C2785 C2787 1.433 . S
C2786 C2782 1.350 . S
C2786 C2783 1.463 . S
C2786 N2790 1.427 . S
C2787 H2777 0.929 . S
C2787 C2785 1.433 . S
C2787 N2790 1.384 . S
C2788 H2779 0.929 . S
C2788 C2780 1.378 . S
C2788 C2783 1.350 . S
C2789 H2776 0.929 . S
C2789 C2781 1.433 . S
C2789 N2791 1.384 . S
N2790 C2786 1.427 . S
N2790 C2787 1.384 . S
N2791 C2783 1.427 . S
N2791 C2789 1.384 . S
H2792 C2798 0.930 . S
H2793 C2802 0.930 . S
H2794 C2807 0.929 . S
H2795 C2805 0.929 . S
H2796 C2800 0.929 . S
H2797 C2806 0.929 . S
C2798 H2792 0.930 . S
C2798 C2799 1.367 . S
C2798 C2806 1.378 . S
C2799 C2798 1.367 . S
C2799 C2807 1.433 . S
C2800 H2796 0.929 . S
C2800 C2802 1.378 . S
C2800 C2804 1.350 . S
C2801 C2804 1.463 . S
C2801 C2806 1.350 . S
C2801 N2809 1.427 . S
C2802 H2793 0.930 . S
C2802 C2800 1.378 . S
C2802 C2803 1.367 . S
C2803 C2802 1.367 . S
C2803 C2805 1.433 . S
C2804 C2800 1.350 . S
C2804 C2801 1.463 . S
C2804 N2808 1.427 . S
C2805 H2795 0.929 . S
C2805 C2803 1.433 . S
C2805 N2808 1.384 . S
C2806 H2797 0.929 . S
C2806 C2798 1.378 . S
C2806 C2801 1.350 . S
C2807 H2794 0.929 . S
C2807 C2799 1.433 . S
C2807 N2809 1.384 . S
N2808 C2804 1.427 . S
N2808 C2805 1.384 . S
N2809 C2801 1.427 . S
N2809 C2807 1.384 . S
H2810 C2816 0.930 . S
H2811 C2820 0.930 . S
H2812 C2825 0.929 . S
H2813 C2823 0.929 . S
H2814 C2818 0.929 . S
H2815 C2824 0.929 . S
C2816 H2810 0.930 . S
C2816 C2817 1.367 . S
C2816 C2824 1.378 . S
C2817 C2816 1.367 . S
C2817 C2825 1.433 . S
C2818 H2814 0.929 . S
C2818 C2820 1.378 . S
C2818 C2822 1.350 . S
C2819 C2822 1.463 . S
C2819 C2824 1.350 . S
C2819 N2827 1.427 . S
C2820 H2811 0.930 . S
C2820 C2818 1.378 . S
C2820 C2821 1.367 . S
C2821 C2820 1.367 . S
C2821 C2823 1.433 . S
C2822 C2818 1.350 . S
C2822 C2819 1.463 . S
C2822 N2826 1.427 . S
C2823 H2813 0.929 . S
C2823 C2821 1.433 . S
C2823 N2826 1.384 . S
C2824 H2815 0.929 . S
C2824 C2816 1.378 . S
C2824 C2819 1.350 . S
C2825 H2812 0.929 . S
C2825 C2817 1.433 . S
C2825 N2827 1.384 . S
N2826 C2822 1.427 . S
N2826 C2823 1.384 . S
N2827 C2819 1.427 . S
N2827 C2825 1.384 . S
H2828 C2834 0.930 . S
H2829 C2838 0.930 . S
H2830 C2843 0.929 . S
H2831 C2841 0.929 . S
H2832 C2836 0.929 . S
H2833 C2842 0.929 . S
C2834 H2828 0.930 . S
C2834 C2835 1.367 . S
C2834 C2842 1.378 . S
C2835 C2834 1.367 . S
C2835 C2843 1.433 . S
C2836 H2832 0.929 . S
C2836 C2838 1.378 . S
C2836 C2840 1.350 . S
C2837 C2840 1.463 . S
C2837 C2842 1.350 . S
C2837 N2845 1.427 . S
C2838 H2829 0.930 . S
C2838 C2836 1.378 . S
C2838 C2839 1.367 . S
C2839 C2838 1.367 . S
C2839 C2841 1.433 . S
C2840 C2836 1.350 . S
C2840 C2837 1.463 . S
C2840 N2844 1.427 . S
C2841 H2831 0.929 . S
C2841 C2839 1.433 . S
C2841 N2844 1.384 . S
C2842 H2833 0.929 . S
C2842 C2834 1.378 . S
C2842 C2837 1.350 . S
C2843 H2830 0.929 . S
C2843 C2835 1.433 . S
C2843 N2845 1.384 . S
N2844 C2840 1.427 . S
N2844 C2841 1.384 . S
N2845 C2837 1.427 . S
N2845 C2843 1.384 . S
H2846 C2852 0.930 . S
H2847 C2856 0.930 . S
H2848 C2861 0.929 . S
H2849 C2859 0.929 . S
H2850 C2854 0.929 . S
H2851 C2860 0.929 . S
C2852 H2846 0.930 . S
C2852 C2853 1.367 . S
C2852 C2860 1.378 . S
C2853 C2852 1.367 . S
C2853 C2861 1.433 . S
C2854 H2850 0.929 . S
C2854 C2856 1.378 . S
C2854 C2858 1.350 . S
C2855 C2858 1.463 . S
C2855 C2860 1.350 . S
C2855 N2863 1.427 . S
C2856 H2847 0.930 . S
C2856 C2854 1.378 . S
C2856 C2857 1.367 . S
C2857 C2856 1.367 . S
C2857 C2859 1.433 . S
C2858 C2854 1.350 . S
C2858 C2855 1.463 . S
C2858 N2862 1.427 . S
C2859 H2849 0.929 . S
C2859 C2857 1.433 . S
C2859 N2862 1.384 . S
C2860 H2851 0.929 . S
C2860 C2852 1.378 . S
C2860 C2855 1.350 . S
C2861 H2848 0.929 . S
C2861 C2853 1.433 . S
C2861 N2863 1.384 . S
N2862 C2858 1.427 . S
N2862 C2859 1.384 . S
N2863 C2855 1.427 . S
N2863 C2861 1.384 . S
H2864 C2870 0.930 . S
H2865 C2874 0.930 . S
H2866 C2879 0.929 . S
H2867 C2877 0.929 . S
H2868 C2872 0.929 . S
H2869 C2878 0.929 . S
C2870 H2864 0.930 . S
C2870 C2871 1.367 . S
C2870 C2878 1.378 . S
C2871 C2870 1.367 . S
C2871 C2879 1.433 . S
C2872 H2868 0.929 . S
C2872 C2874 1.378 . S
C2872 C2876 1.350 . S
C2873 C2876 1.463 . S
C2873 C2878 1.350 . S
C2873 N2881 1.427 . S
C2874 H2865 0.930 . S
C2874 C2872 1.378 . S
C2874 C2875 1.367 . S
C2875 C2874 1.367 . S
C2875 C2877 1.433 . S
C2876 C2872 1.350 . S
C2876 C2873 1.463 . S
C2876 N2880 1.427 . S
C2877 H2867 0.929 . S
C2877 C2875 1.433 . S
C2877 N2880 1.384 . S
C2878 H2869 0.929 . S
C2878 C2870 1.378 . S
C2878 C2873 1.350 . S
C2879 H2866 0.929 . S
C2879 C2871 1.433 . S
C2879 N2881 1.384 . S
N2880 C2876 1.427 . S
N2880 C2877 1.384 . S
N2881 C2873 1.427 . S
N2881 C2879 1.384 . S
H2882 C2888 0.930 . S
H2883 C2892 0.930 . S
H2884 C2897 0.929 . S
H2885 C2895 0.929 . S
H2886 C2890 0.929 . S
H2887 C2896 0.929 . S
C2888 H2882 0.930 . S
C2888 C2889 1.367 . S
C2888 C2896 1.378 . S
C2889 C2888 1.367 . S
C2889 C2897 1.433 . S
C2890 H2886 0.929 . S
C2890 C2892 1.378 . S
C2890 C2894 1.350 . S
C2891 C2894 1.463 . S
C2891 C2896 1.350 . S
C2891 N2899 1.427 . S
C2892 H2883 0.930 . S
C2892 C2890 1.378 . S
C2892 C2893 1.367 . S
C2893 C2892 1.367 . S
C2893 C2895 1.433 . S
C2894 C2890 1.350 . S
C2894 C2891 1.463 . S
C2894 N2898 1.427 . S
C2895 H2885 0.929 . S
C2895 C2893 1.433 . S
C2895 N2898 1.384 . S
C2896 H2887 0.929 . S
C2896 C2888 1.378 . S
C2896 C2891 1.350 . S
C2897 H2884 0.929 . S
C2897 C2889 1.433 . S
C2897 N2899 1.384 . S
N2898 C2894 1.427 . S
N2898 C2895 1.384 . S
N2899 C2891 1.427 . S
N2899 C2897 1.384 . S
H2900 C2906 0.930 . S
H2901 C2910 0.930 . S
H2902 C2915 0.929 . S
H2903 C2913 0.929 . S
H2904 C2908 0.929 . S
H2905 C2914 0.929 . S
C2906 H2900 0.930 . S
C2906 C2907 1.367 . S
C2906 C2914 1.378 . S
C2907 C2906 1.367 . S
C2907 C2915 1.433 . S
C2908 H2904 0.929 . S
C2908 C2910 1.378 . S
C2908 C2912 1.350 . S
C2909 C2912 1.463 . S
C2909 C2914 1.350 . S
C2909 N2917 1.427 . S
C2910 H2901 0.930 . S
C2910 C2908 1.378 . S
C2910 C2911 1.367 . S
C2911 C2910 1.367 . S
C2911 C2913 1.433 . S
C2912 C2908 1.350 . S
C2912 C2909 1.463 . S
C2912 N2916 1.427 . S
C2913 H2903 0.929 . S
C2913 C2911 1.433 . S
C2913 N2916 1.384 . S
C2914 H2905 0.929 . S
C2914 C2906 1.378 . S
C2914 C2909 1.350 . S
C2915 H2902 0.929 . S
C2915 C2907 1.433 . S
C2915 N2917 1.384 . S
N2916 C2912 1.427 . S
N2916 C2913 1.384 . S
N2917 C2909 1.427 . S
N2917 C2915 1.384 . S
H2918 C2924 0.930 . S
H2919 C2928 0.930 . S
H2920 C2933 0.929 . S
H2921 C2931 0.929 . S
H2922 C2926 0.929 . S
H2923 C2932 0.929 . S
C2924 H2918 0.930 . S
C2924 C2925 1.367 . S
C2924 C2932 1.378 . S
C2925 C2924 1.367 . S
C2925 C2933 1.433 . S
C2926 H2922 0.929 . S
C2926 C2928 1.378 . S
C2926 C2930 1.350 . S
C2927 C2930 1.463 . S
C2927 C2932 1.350 . S
C2927 N2935 1.427 . S
C2928 H2919 0.930 . S
C2928 C2926 1.378 . S
C2928 C2929 1.367 . S
C2929 C2928 1.367 . S
C2929 C2931 1.433 . S
C2930 C2926 1.350 . S
C2930 C2927 1.463 . S
C2930 N2934 1.427 . S
C2931 H2921 0.929 . S
C2931 C2929 1.433 . S
C2931 N2934 1.384 . S
C2932 H2923 0.929 . S
C2932 C2924 1.378 . S
C2932 C2927 1.350 . S
C2933 H2920 0.929 . S
C2933 C2925 1.433 . S
C2933 N2935 1.384 . S
N2934 C2930 1.427 . S
N2934 C2931 1.384 . S
N2935 C2927 1.427 . S
N2935 C2933 1.384 . S
H2936 C2942 0.930 . S
H2937 C2946 0.930 . S
H2938 C2951 0.929 . S
H2939 C2949 0.929 . S
H2940 C2944 0.929 . S
H2941 C2950 0.929 . S
C2942 H2936 0.930 . S
C2942 C2943 1.367 . S
C2942 C2950 1.378 . S
C2943 C2942 1.367 . S
C2943 C2951 1.433 . S
C2944 H2940 0.929 . S
C2944 C2946 1.378 . S
C2944 C2948 1.350 . S
C2945 C2948 1.463 . S
C2945 C2950 1.350 . S
C2945 N2953 1.427 . S
C2946 H2937 0.930 . S
C2946 C2944 1.378 . S
C2946 C2947 1.367 . S
C2947 C2946 1.367 . S
C2947 C2949 1.433 . S
C2948 C2944 1.350 . S
C2948 C2945 1.463 . S
C2948 N2952 1.427 . S
C2949 H2939 0.929 . S
C2949 C2947 1.433 . S
C2949 N2952 1.384 . S
C2950 H2941 0.929 . S
C2950 C2942 1.378 . S
C2950 C2945 1.350 . S
C2951 H2938 0.929 . S
C2951 C2943 1.433 . S
C2951 N2953 1.384 . S
N2952 C2948 1.427 . S
N2952 C2949 1.384 . S
N2953 C2945 1.427 . S
N2953 C2951 1.384 . S
H2954 C2960 0.930 . S
H2955 C2964 0.930 . S
H2956 C2969 0.929 . S
H2957 C2967 0.929 . S
H2958 C2962 0.929 . S
H2959 C2968 0.929 . S
C2960 H2954 0.930 . S
C2960 C2961 1.367 . S
C2960 C2968 1.378 . S
C2961 C2960 1.367 . S
C2961 C2969 1.433 . S
C2962 H2958 0.929 . S
C2962 C2964 1.378 . S
C2962 C2966 1.350 . S
C2963 C2966 1.463 . S
C2963 C2968 1.350 . S
C2963 N2971 1.427 . S
C2964 H2955 0.930 . S
C2964 C2962 1.378 . S
C2964 C2965 1.367 . S
C2965 C2964 1.367 . S
C2965 C2967 1.433 . S
C2966 C2962 1.350 . S
C2966 C2963 1.463 . S
C2966 N2970 1.427 . S
C2967 H2957 0.929 . S
C2967 C2965 1.433 . S
C2967 N2970 1.384 . S
C2968 H2959 0.929 . S
C2968 C2960 1.378 . S
C2968 C2963 1.350 . S
C2969 H2956 0.929 . S
C2969 C2961 1.433 . S
C2969 N2971 1.384 . S
N2970 C2966 1.427 . S
N2970 C2967 1.384 . S
N2971 C2963 1.427 . S
N2971 C2969 1.384 . S
H2972 C2978 0.930 . S
H2973 C2982 0.930 . S
H2974 C2987 0.929 . S
H2975 C2985 0.929 . S
H2976 C2980 0.929 . S
H2977 C2986 0.929 . S
C2978 H2972 0.930 . S
C2978 C2979 1.367 . S
C2978 C2986 1.378 . S
C2979 C2978 1.367 . S
C2979 C2987 1.433 . S
C2980 H2976 0.929 . S
C2980 C2982 1.378 . S
C2980 C2984 1.350 . S
C2981 C2984 1.463 . S
C2981 C2986 1.350 . S
C2981 N2989 1.427 . S
C2982 H2973 0.930 . S
C2982 C2980 1.378 . S
C2982 C2983 1.367 . S
C2983 C2982 1.367 . S
C2983 C2985 1.433 . S
C2984 C2980 1.350 . S
C2984 C2981 1.463 . S
C2984 N2988 1.427 . S
C2985 H2975 0.929 . S
C2985 C2983 1.433 . S
C2985 N2988 1.384 . S
C2986 H2977 0.929 . S
C2986 C2978 1.378 . S
C2986 C2981 1.350 . S
C2987 H2974 0.929 . S
C2987 C2979 1.433 . S
C2987 N2989 1.384 . S
N2988 C2984 1.427 . S
N2988 C2985 1.384 . S
N2989 C2981 1.427 . S
N2989 C2987 1.384 . S
H2990 C2996 0.930 . S
H2991 C3000 0.930 . S
H2992 C3005 0.929 . S
H2993 C3003 0.929 . S
H2994 C2998 0.929 . S
H2995 C3004 0.929 . S
C2996 H2990 0.930 . S
C2996 C2997 1.367 . S
C2996 C3004 1.378 . S
C2997 C2996 1.367 . S
C2997 C3005 1.433 . S
C2998 H2994 0.929 . S
C2998 C3000 1.378 . S
C2998 C3002 1.350 . S
C2999 C3002 1.463 . S
C2999 C3004 1.350 . S
C2999 N3007 1.427 . S
C3000 H2991 0.930 . S
C3000 C2998 1.378 . S
C3000 C3001 1.367 . S
C3001 C3000 1.367 . S
C3001 C3003 1.433 . S
C3002 C2998 1.350 . S
C3002 C2999 1.463 . S
C3002 N3006 1.427 . S
C3003 H2993 0.929 . S
C3003 C3001 1.433 . S
C3003 N3006 1.384 . S
C3004 H2995 0.929 . S
C3004 C2996 1.378 . S
C3004 C2999 1.350 . S
C3005 H2992 0.929 . S
C3005 C2997 1.433 . S
C3005 N3007 1.384 . S
N3006 C3002 1.427 . S
N3006 C3003 1.384 . S
N3007 C2999 1.427 . S
N3007 C3005 1.384 . S
C1287 C1139 1.691 . S
C1291 C10 1.691 . S
C1305 C219 1.680 . S
C1309 C50 1.681 . S
C1323 C899 1.682 . S
C1327 C90 1.683 . S
C1341 C619 1.690 . S
C1345 C130 1.690 . S
C1359 C179 1.688 . S
C1363 C970 1.688 . S
C1377 C730 1.682 . S
C1381 C259 1.683 . S
C1395 C450 1.686 . S
C1399 C299 1.686 . S
C1413 C819 1.690 . S
C1417 C330 1.690 . S
C1431 C370 1.685 . S
C1435 C539 1.685 . S
C1449 C410 1.682 . S
C1453 C1219 1.682 . S
C1467 C650 1.689 . S
C1471 C499 1.689 . S
C1485 C579 1.683 . S
C1489 C1050 1.683 . S
C1503 C690 1.680 . S
C1507 C859 1.681 . S
C1521 C770 1.686 . S
C1525 C1259 1.686 . S
C1539 C1090 1.689 . S
C1543 C939 1.689 . S
C1557 C1179 1.686 . S
C1561 C1010 1.686 . S
C1575 C779 1.562 . S
C1579 C19 1.565 . S
C1593 C739 1.555 . S
C1597 C59 1.554 . S
C1611 C699 1.561 . S
C1615 C99 1.558 . S
C1629 C659 1.558 . S
C1633 C139 1.561 . S
C1647 C930 1.558 . S
C1651 C170 1.556 . S
C1665 C210 1.556 . S
C1669 C890 1.559 . S
C1683 C250 1.554 . S
C1687 C850 1.556 . S
C1701 C290 1.562 . S
C1705 C810 1.559 . S
C1719 C339 1.572 . S
C1723 C1099 1.575 . S
C1737 C379 1.563 . S
C1741 C1059 1.560 . S
C1755 C419 1.562 . S
C1759 C1019 1.559 . S
C1773 C979 1.569 . S
C1777 C459 1.569 . S
C1791 C490 1.578 . S
C1795 C1250 1.578 . S
C1809 C530 1.561 . S
C1813 C1210 1.558 . S
C1827 C570 1.564 . S
C1831 C1170 1.565 . S
C1845 C1130 1.575 . S
C1849 C610 1.577 . S
C1863 C15 1.302 . S
C1867 C6 1.302 . S
C1881 C55 1.293 . S
C1885 C46 1.293 . S
C1899 C86 1.282 . S
C1903 C95 1.282 . S
C1917 C126 1.289 . S
C1921 C135 1.289 . S
C1935 C175 1.290 . S
C1939 C166 1.290 . S
C1953 C215 1.293 . S
C1957 C206 1.293 . S
C1971 C255 1.291 . S
C1975 C246 1.291 . S
C1989 C286 1.305 . S
C1993 C295 1.305 . S
C2007 C335 1.310 . S
C2011 C326 1.310 . S
C2025 C366 1.288 . S
C2029 C375 1.288 . S
C2043 C406 1.287 . S
C2047 C415 1.287 . S
C2061 C446 1.311 . S
C2065 C455 1.311 . S
C2079 C495 1.308 . S
C2083 C486 1.308 . S
C2097 C526 1.301 . S
C2101 C535 1.301 . S
C2115 C575 1.298 . S
C2119 C566 1.298 . S
C2133 C606 1.297 . S
C2137 C615 1.297 . S
C2151 C655 1.289 . S
C2155 C646 1.289 . S
C2169 C686 1.293 . S
C2173 C695 1.293 . S
C2187 C726 1.281 . S
C2191 C735 1.281 . S
C2205 C766 1.290 . S
C2209 C775 1.290 . S
C2223 C806 1.290 . S
C2227 C815 1.290 . S
C2241 C855 1.295 . S
C2245 C846 1.295 . S
C2259 C886 1.295 . S
C2263 C895 1.295 . S
C2277 C926 1.297 . S
C2281 C935 1.297 . S
C2295 C975 1.313 . S
C2299 C966 1.313 . S
C2313 C1006 1.289 . S
C2317 C1015 1.289 . S
C2331 C1046 1.290 . S
C2335 C1055 1.290 . S
C2349 C1095 1.312 . S
C2353 C1086 1.312 . S
C2367 C1135 1.312 . S
C2371 C1126 1.312 . S
C2385 C1166 1.301 . S
C2389 C1175 1.301 . S
C2403 C1206 1.287 . S
C2407 C1215 1.287 . S
C2421 C1246 1.300 . S
C2425 C1255 1.300 . S
C2439 C409 2.175 . S
C2443 C9 2.176 . S
C2457 C449 2.131 . S
C2461 C49 2.129 . S
C2475 C89 2.133 1_556 S
C2479 C329 2.128 . S
C2493 C369 2.178 . S
C2497 C129 2.173 1_556 S
C2511 C178 2.176 . S
C2515 C578 2.175 . S
C2529 C218 2.135 . S
C2533 C618 2.126 . S
C2547 C258 2.133 1_554 S
C2551 C498 2.128 . S
C2565 C298 2.179 1_554 S
C2569 C538 2.172 . S
C2583 C1049 2.173 1_556 S
C2587 C649 2.178 . S
C2601 C689 2.131 . S
C2605 C1089 2.130 1_556 S
C2619 C969 2.133 . S
C2623 C729 2.127 . S
C2637 C769 2.179 . S
C2641 C1009 2.172 . S
C2655 C1218 2.174 1_554 S
C2659 C818 2.177 . S
C2673 C858 2.133 . S
C2677 C1258 2.127 1_554 S
C2691 C898 2.128 . S
C2695 C1138 2.132 . S
C2709 C1178 2.178 . S
C2713 C938 2.173 . S
C2727 C18 1.096 . S
C2731 C98 1.109 . S
C2745 C138 1.093 . S
C2749 C58 1.099 . S
C2763 C249 1.101 . S
C2767 C169 1.107 . S
C2781 C209 1.095 . S
C2785 C289 1.110 . S
C2799 C338 1.053 . S
C2803 C418 1.043 . S
C2817 C458 1.038 . S
C2821 C378 1.046 . S
C2835 C569 1.040 . S
C2839 C489 1.042 . S
C2853 C609 1.050 . S
C2857 C529 1.048 . S
C2871 C738 1.104 . S
C2875 C658 1.102 . S
C2889 C778 1.091 . S
C2893 C698 1.103 . S
C2907 C889 1.103 . S
C2911 C809 1.105 . S
C2925 C929 1.099 . S
C2929 C849 1.108 . S
C2943 C978 1.044 . S
C2947 C1058 1.039 . S
C2961 C1018 1.037 . S
C2965 C1098 1.048 . S
C2979 C1129 1.047 . S
C2983 C1209 1.051 . S
C2997 C1249 1.051 . S
C3001 C1169 1.047 . S
