# Generated by pormake.
# Topology sne, (6)-cn, num edge types: 1
# Building blocks:
#     Node 0, Type 0, BuildingBlock: IZENUY_clean_sbu_0, # of connection points: 6
#     Node 1, Type 0, BuildingBlock: IZENUY_clean_sbu_0, # of connection points: 6
#     Node 2, Type 0, BuildingBlock: IZENUY_clean_sbu_0, # of connection points: 6
#     Node 3, Type 0, BuildingBlock: IZENUY_clean_sbu_0, # of connection points: 6
#     Node 4, Type 0, BuildingBlock: IZENUY_clean_sbu_0, # of connection points: 6
#     Node 5, Type 0, BuildingBlock: IZENUY_clean_sbu_0, # of connection points: 6
#     Node 6, Type 0, BuildingBlock: IZENUY_clean_sbu_0, # of connection points: 6
#     Node 7, Type 0, BuildingBlock: IZENUY_clean_sbu_0, # of connection points: 6
#     Edge 8, Type (0, 0), BuildingBlock: XUDNAN_clean_linker_2, # of connection points: 2
#     Edge 9, Type (0, 0), BuildingBlock: XUDNAN_clean_linker_2, # of connection points: 2
#     Edge 10, Type (0, 0), BuildingBlock: XUDNAN_clean_linker_2, # of connection points: 2
#     Edge 11, Type (0, 0), BuildingBlock: XUDNAN_clean_linker_2, # of connection points: 2
#     Edge 12, Type (0, 0), BuildingBlock: XUDNAN_clean_linker_2, # of connection points: 2
#     Edge 13, Type (0, 0), BuildingBlock: XUDNAN_clean_linker_2, # of connection points: 2
#     Edge 14, Type (0, 0), BuildingBlock: XUDNAN_clean_linker_2, # of connection points: 2
#     Edge 15, Type (0, 0), BuildingBlock: XUDNAN_clean_linker_2, # of connection points: 2
#     Edge 16, Type (0, 0), BuildingBlock: XUDNAN_clean_linker_2, # of connection points: 2
#     Edge 17, Type (0, 0), BuildingBlock: XUDNAN_clean_linker_2, # of connection points: 2
#     Edge 18, Type (0, 0), BuildingBlock: XUDNAN_clean_linker_2, # of connection points: 2
#     Edge 19, Type (0, 0), BuildingBlock: XUDNAN_clean_linker_2, # of connection points: 2
#     Edge 20, Type (0, 0), BuildingBlock: XUDNAN_clean_linker_2, # of connection points: 2
#     Edge 21, Type (0, 0), BuildingBlock: XUDNAN_clean_linker_2, # of connection points: 2
#     Edge 22, Type (0, 0), BuildingBlock: XUDNAN_clean_linker_2, # of connection points: 2
#     Edge 23, Type (0, 0), BuildingBlock: XUDNAN_clean_linker_2, # of connection points: 2
#     Edge 24, Type (0, 0), BuildingBlock: XUDNAN_clean_linker_2, # of connection points: 2
#     Edge 25, Type (0, 0), BuildingBlock: XUDNAN_clean_linker_2, # of connection points: 2
#     Edge 26, Type (0, 0), BuildingBlock: XUDNAN_clean_linker_2, # of connection points: 2
#     Edge 27, Type (0, 0), BuildingBlock: XUDNAN_clean_linker_2, # of connection points: 2
#     Edge 28, Type (0, 0), BuildingBlock: XUDNAN_clean_linker_2, # of connection points: 2
#     Edge 29, Type (0, 0), BuildingBlock: XUDNAN_clean_linker_2, # of connection points: 2
#     Edge 30, Type (0, 0), BuildingBlock: XUDNAN_clean_linker_2, # of connection points: 2
#     Edge 31, Type (0, 0), BuildingBlock: XUDNAN_clean_linker_2, # of connection points: 2
# Relax obj value: 0.265
# Max RMSD: 0.254
# Mean RMSD: 0.252
data_MOF--net-sne--node1-IZENUY_clean_sbu_0--edge1-XUDNAN_clean_linker_2
_symmetry_space_group_name_H-M    P1
_symmetry_Int_Tables_number       1
_symmetry_cell_setting            triclinic
loop_
_symmetry_equiv_pos_as_xyz
'x, y, z'
_cell_length_a     35.137212
_cell_length_b     35.24487
_cell_length_c     25.866326
_cell_angle_alpha  90.118471
_cell_angle_beta   89.954877
_cell_angle_gamma 89.879383
loop_
_atom_site_label
_atom_site_type_symbol
_atom_site_fract_x
_atom_site_fract_y
_atom_site_fract_z
_atom_type_partial_charge
Fe0 Fe 0.25647 0.19198 0.36877 0.0
Fe1 Fe 0.21725 0.1182 0.33822 0.0
O2 O 0.25612 0.14197 0.36679 0.0
Fe3 Fe 0.29473 0.11607 0.39319 0.0
O4 O 0.30515 0.15129 0.44464 0.0
O5 O 0.25753 0.19157 0.43829 0.0
O6 O 0.20424 0.19718 0.37364 0.0
C7 C 0.17944 0.17392 0.38968 0.0
C8 C 0.33317 0.17316 0.34609 0.0
O9 O 0.18423 0.13881 0.38407 0.0
C10 C 0.2756 0.07462 0.30257 0.0
O11 O 0.25548 0.1949 0.29929 0.0
O12 O 0.20767 0.15552 0.28923 0.0
O13 O 0.32784 0.13793 0.34877 0.0
O14 O 0.30872 0.19618 0.36413 0.0
C15 C 0.23527 0.07295 0.42578 0.0
O16 O 0.24793 0.09579 0.29109 0.0
O17 O 0.29114 0.07666 0.34673 0.0
C18 C 0.22913 0.18157 0.27186 0.0
O19 O 0.21972 0.07703 0.3819 0.0
O20 O 0.26403 0.09204 0.4388 0.0
C21 C 0.28402 0.17688 0.46417 0.0
Fe22 Fe 0.1857 0.76417 0.62405 0.0
Fe23 Fe 0.11437 0.80007 0.6713 0.0
O24 O 0.13624 0.76315 0.63594 0.0
Fe25 Fe 0.10847 0.72491 0.61227 0.0
O26 O 0.13459 0.69175 0.65172 0.0
O27 O 0.19125 0.71175 0.62763 0.0
O28 O 0.19648 0.76481 0.69207 0.0
C29 C 0.18441 0.78916 0.72365 0.0
C30 C 0.16247 0.73662 0.53189 0.0
O31 O 0.1556 0.80943 0.71345 0.0
C32 C 0.06279 0.78487 0.58984 0.0
O33 O 0.18889 0.81673 0.61843 0.0
O34 O 0.12927 0.8349 0.62528 0.0
O35 O 0.13924 0.71512 0.55532 0.0
O36 O 0.17799 0.76367 0.55535 0.0
C37 C 0.07435 0.74114 0.70979 0.0
O38 O 0.06974 0.79781 0.63465 0.0
O39 O 0.08051 0.75647 0.57206 0.0
C40 C 0.16292 0.84141 0.61163 0.0
O41 O 0.09744 0.7674 0.71985 0.0
O42 O 0.07276 0.7272 0.66458 0.0
C43 C 0.17007 0.68694 0.64883 0.0
Fe44 Fe 0.75209 0.82205 0.39886 0.0
Fe45 Fe 0.70288 0.89274 0.41365 0.0
O46 O 0.74476 0.87111 0.38983 0.0
Fe47 Fe 0.77887 0.89857 0.35686 0.0
O48 O 0.7944 0.85986 0.31282 0.0
O49 O 0.75441 0.81382 0.33041 0.0
O50 O 0.70089 0.80983 0.39379 0.0
C51 C 0.67433 0.82827 0.37179 0.0
C52 C 0.82488 0.85432 0.41624 0.0
O53 O 0.67423 0.86397 0.37165 0.0
C54 C 0.75401 0.94653 0.4397 0.0
O55 O 0.7501 0.82749 0.46799 0.0
O56 O 0.6967 0.85964 0.46842 0.0
O57 O 0.81462 0.88721 0.40371 0.0
O58 O 0.80449 0.82571 0.40519 0.0
C59 C 0.71496 0.9303 0.31843 0.0
O60 O 0.72993 0.92295 0.45616 0.0
O61 O 0.76968 0.94202 0.39566 0.0
C62 C 0.72131 0.83961 0.49164 0.0
O63 O 0.70107 0.92978 0.3636 0.0
O64 O 0.74462 0.91178 0.30795 0.0
C65 C 0.7773 0.82957 0.30002 0.0
Fe66 Fe 0.89793 0.29416 0.58534 0.0
Fe67 Fe 0.88932 0.21695 0.63761 0.0
O68 O 0.86899 0.25999 0.61556 0.0
Fe69 Fe 0.81969 0.26812 0.62355 0.0
O70 O 0.81246 0.27277 0.55546 0.0
O71 O 0.86085 0.31036 0.53924 0.0
O72 O 0.9123 0.26089 0.53606 0.0
C73 C 0.93139 0.23157 0.54552 0.0
C74 C 0.85254 0.34066 0.6432 0.0
O75 O 0.92835 0.21557 0.58921 0.0
C76 C 0.83269 0.23321 0.71402 0.0
O77 O 0.94 0.28375 0.62652 0.0
O78 O 0.91903 0.24193 0.68312 0.0
O79 O 0.8239 0.32011 0.63279 0.0
O80 O 0.88563 0.3297 0.63226 0.0
C81 C 0.825 0.1911 0.59184 0.0
O82 O 0.85423 0.20975 0.6906 0.0
O83 O 0.82371 0.26385 0.69256 0.0
C84 C 0.94327 0.26637 0.66952 0.0
O85 O 0.86085 0.1903 0.5925 0.0
O86 O 0.80674 0.21747 0.61474 0.0
C87 C 0.82959 0.29511 0.52583 0.0
Fe88 Fe 0.291 0.40143 0.83414 0.0
Fe89 Fe 0.26312 0.32321 0.86867 0.0
O90 O 0.25553 0.37242 0.86164 0.0
Fe91 Fe 0.21188 0.39251 0.8821 0.0
O92 O 0.21218 0.432 0.8348 0.0
O93 O 0.25934 0.41698 0.7835 0.0
O94 O 0.30848 0.36484 0.78811 0.0
C95 C 0.29215 0.33483 0.77247 0.0
C96 C 0.26148 0.44471 0.9185 0.0
O97 O 0.26894 0.31731 0.80048 0.0
C98 C 0.22712 0.33701 0.95893 0.0
O99 O 0.32485 0.38833 0.8827 0.0
O100 O 0.31524 0.32689 0.87998 0.0
O101 O 0.2358 0.42112 0.92949 0.0
O102 O 0.2797 0.44263 0.87601 0.0
C103 C 0.18667 0.32919 0.83391 0.0
O104 O 0.25753 0.32654 0.93765 0.0
O105 O 0.20325 0.3571 0.93415 0.0
C106 C 0.33541 0.3552 0.89318 0.0
O107 O 0.21232 0.31066 0.8579 0.0
O108 O 0.18629 0.3649 0.83501 0.0
C109 C 0.22973 0.43601 0.79225 0.0
Fe110 Fe 0.31749 0.75247 0.1308 0.0
Fe111 Fe 0.39574 0.78611 0.11099 0.0
O112 O 0.3674 0.74868 0.13444 0.0
Fe113 Fe 0.38837 0.70738 0.16075 0.0
O114 O 0.36573 0.67765 0.11277 0.0
O115 O 0.30879 0.70133 0.12484 0.0
O116 O 0.31945 0.75417 0.06129 0.0
C117 C 0.33689 0.77963 0.03685 0.0
C118 C 0.32523 0.72334 0.22684 0.0
O119 O 0.36218 0.79965 0.0589 0.0
C120 C 0.43585 0.76065 0.20047 0.0
O121 O 0.31627 0.80444 0.13604 0.0
O122 O 0.37485 0.81943 0.15641 0.0
O123 O 0.34964 0.69989 0.20899 0.0
O124 O 0.31377 0.75084 0.19997 0.0
C125 C 0.43596 0.72531 0.07485 0.0
O126 O 0.43435 0.77871 0.1581 0.0
O127 O 0.41277 0.73428 0.20993 0.0
C128 C 0.33987 0.82721 0.156 0.0
O129 O 0.41806 0.75531 0.06443 0.0
O130 O 0.4305 0.70811 0.11739 0.0
C131 C 0.33029 0.67576 0.10684 0.0
Fe132 Fe 0.79769 0.61248 0.91641 0.0
Fe133 Fe 0.7558 0.6872 0.89723 0.0
O134 O 0.75872 0.63749 0.88998 0.0
Fe135 Fe 0.7224 0.613 0.8563 0.0
O136 O 0.72761 0.56902 0.89308 0.0
O137 O 0.76668 0.58344 0.95625 0.0
O138 O 0.80385 0.6447 0.97253 0.0
C139 C 0.78115 0.66857 0.9928 0.0
C140 C 0.78529 0.57696 0.81909 0.0
O141 O 0.7549 0.68335 0.96664 0.0
C142 C 0.73131 0.68061 0.79851 0.0
O143 O 0.8309 0.63891 0.87766 0.0
O144 O 0.80779 0.69523 0.89599 0.0
O145 O 0.75575 0.59578 0.80801 0.0
O146 O 0.79886 0.5768 0.86453 0.0
C147 C 0.67997 0.6626 0.91247 0.0
O148 O 0.75644 0.69377 0.82813 0.0
O149 O 0.71097 0.65272 0.81236 0.0
C150 C 0.83398 0.6744 0.87766 0.0
O151 O 0.70337 0.6883 0.89976 0.0
O152 O 0.68705 0.62819 0.90321 0.0
C153 C 0.74221 0.56163 0.93658 0.0
Fe154 Fe 0.69362 0.2373 0.10854 0.0
Fe155 Fe 0.62727 0.28883 0.14052 0.0
O156 O 0.644 0.24625 0.11209 0.0
Fe157 Fe 0.61187 0.21234 0.0863 0.0
O158 O 0.64193 0.17161 0.10293 0.0
O159 O 0.68859 0.19568 0.14951 0.0
O160 O 0.70638 0.26477 0.1656 0.0
C161 C 0.6875 0.27548 0.20433 0.0
C162 C 0.66802 0.20986 0.01338 0.0
O163 O 0.65192 0.27955 0.20143 0.0
C164 C 0.57641 0.28207 0.06009 0.0
O165 O 0.70058 0.27843 0.06748 0.0
O166 O 0.66669 0.31758 0.11597 0.0
O167 O 0.63325 0.21662 0.02185 0.0
O168 O 0.6914 0.20833 0.05015 0.0
C169 C 0.57493 0.233 0.17599 0.0
O170 O 0.60103 0.30223 0.08261 0.0
O171 O 0.57591 0.24656 0.066 0.0
C172 C 0.69033 0.31169 0.07976 0.0
O173 O 0.58525 0.26702 0.1691 0.0
O174 O 0.58801 0.20625 0.14841 0.0
C175 C 0.66755 0.16807 0.13703 0.0
H176 H 0.33022 0.01981 0.31685 0.0
H177 H 0.24155 0.05618 0.21078 0.0
H178 H 0.25086 0.99791 0.15966 0.0
H179 H 0.39159 0.97397 0.21835 0.0
H180 H 0.405 0.93614 0.26149 0.0
H181 H 0.39391 0.98248 0.28703 0.0
H182 H 0.3432 0.95251 0.34719 0.0
H183 H 0.35372 0.90619 0.32142 0.0
H184 H 0.3057 0.92421 0.31947 0.0
H185 H 0.26366 0.93295 0.12675 0.0
H186 H 0.28448 0.86749 0.10781 0.0
H187 H 0.367 0.87394 0.23224 0.0
C188 C 0.3133 0.01594 0.28227 0.0
C189 C 0.28505 0.04254 0.26797 0.0
C190 C 0.26336 0.03626 0.22259 0.0
C191 C 0.26839 0.00321 0.19328 0.0
C192 C 0.29553 0.97701 0.20948 0.0
C193 C 0.31811 0.98322 0.25235 0.0
C194 C 0.34418 0.94975 0.26245 0.0
C195 C 0.38616 0.96128 0.25698 0.0
C196 C 0.3362 0.93214 0.31578 0.0
C197 C 0.33209 0.92345 0.21916 0.0
C198 C 0.30386 0.93974 0.18927 0.0
C199 C 0.2862 0.9201 0.14923 0.0
C200 C 0.29798 0.8829 0.13909 0.0
C201 C 0.32739 0.86596 0.16851 0.0
C202 C 0.34479 0.88656 0.20884 0.0
H203 H 0.02131 0.68418 0.70544 0.0
H204 H 0.05588 0.78166 0.79687 0.0
H205 H 0.99815 0.77521 0.8503 0.0
H206 H 0.92366 0.70459 0.70248 0.0
H207 H 0.9082 0.65606 0.70843 0.0
H208 H 0.95351 0.66651 0.67929 0.0
H209 H 0.98748 0.62275 0.74529 0.0
H210 H 0.94215 0.61169 0.77408 0.0
H211 H 0.98008 0.63031 0.81351 0.0
H212 H 0.93303 0.76241 0.88774 0.0
H213 H 0.86974 0.73815 0.91422 0.0
H214 H 0.8798 0.64744 0.80143 0.0
C215 C 0.01713 0.70374 0.73729 0.0
C216 C 0.04313 0.73346 0.74679 0.0
C217 C 0.03651 0.75853 0.78886 0.0
C218 C 0.00366 0.75526 0.81931 0.0
C219 C 0.97798 0.72645 0.80775 0.0
C220 C 0.98473 0.70063 0.76846 0.0
C221 C 0.95247 0.67248 0.7637 0.0
C222 C 0.93334 0.67509 0.71031 0.0
C223 C 0.96638 0.6319 0.77483 0.0
C224 C 0.92634 0.68682 0.80598 0.0
C225 C 0.94129 0.71822 0.83064 0.0
C226 C 0.92127 0.73749 0.86927 0.0
C227 C 0.88531 0.72376 0.88377 0.0
C228 C 0.87024 0.69085 0.86012 0.0
C229 C 0.89099 0.6724 0.8206 0.0
H230 H 0.70052 0.00373 0.3429 0.0
H231 H 0.70688 0.92512 0.21402 0.0
H232 H 0.69519 0.97811 0.15316 0.0
H233 H 0.62832 0.06742 0.29073 0.0
H234 H 0.65115 0.10929 0.31595 0.0
H235 H 0.65627 0.06465 0.34903 0.0
H236 H 0.72964 0.07092 0.34359 0.0
H237 H 0.72477 0.11531 0.30987 0.0
H238 H 0.75194 0.07718 0.28141 0.0
H239 H 0.68303 0.03912 0.10726 0.0
H240 H 0.67308 0.10505 0.07792 0.0
H241 H 0.68077 0.14488 0.23631 0.0
C242 C 0.69844 0.99765 0.30191 0.0
C243 C 0.70362 0.96048 0.28277 0.0
C244 C 0.70233 0.95349 0.22902 0.0
C245 C 0.69585 0.98333 0.19439 0.0
C246 C 0.69158 0.01986 0.21441 0.0
C247 C 0.693 0.02719 0.26686 0.0
C248 C 0.69004 0.06929 0.27809 0.0
C249 C 0.65431 0.07817 0.31035 0.0
C250 C 0.72625 0.08403 0.30481 0.0
C251 C 0.68652 0.08453 0.22367 0.0
C252 C 0.68709 0.05545 0.18763 0.0
C253 C 0.68279 0.06215 0.13499 0.0
C254 C 0.67719 0.09956 0.11875 0.0
C255 C 0.67663 0.12971 0.15497 0.0
C256 C 0.68184 0.12222 0.20797 0.0
H257 H 0.1434 0.35401 0.75369 0.0
H258 H 0.15442 0.26166 0.86325 0.0
H259 H 0.09352 0.23477 0.83184 0.0
H260 H 0.04556 0.36816 0.76491 0.0
H261 H 0.03727 0.37741 0.69733 0.0
H262 H 0.08296 0.38771 0.72539 0.0
H263 H 0.11617 0.34501 0.65717 0.0
H264 H 0.07061 0.33501 0.6283 0.0
H265 H 0.10084 0.29658 0.6491 0.0
H266 H 0.02835 0.22217 0.79462 0.0
H267 H 0.96743 0.21993 0.7477 0.0
H268 H 1.00032 0.31944 0.65968 0.0
C269 C 0.13325 0.3278 0.77054 0.0
C270 C 0.15343 0.30989 0.811 0.0
C271 C 0.13947 0.2756 0.83197 0.0
C272 C 0.10485 0.2603 0.81456 0.0
C273 C 0.08508 0.27934 0.7756 0.0
C274 C 0.09918 0.31191 0.75312 0.0
C275 C 0.07235 0.32715 0.71225 0.0
C276 C 0.05874 0.36749 0.72581 0.0
C277 C 0.09111 0.32585 0.65852 0.0
C278 C 0.04026 0.29875 0.7163 0.0
C279 C 0.04815 0.27143 0.7531 0.0
C280 C 0.02212 0.2431 0.76525 0.0
C281 C 0.98742 0.24227 0.73855 0.0
C282 C 0.97901 0.26948 0.69977 0.0
C283 C 0.0059 0.29813 0.68882 0.0
H284 H 0.36217 0.62903 0.0344 0.0
H285 H 0.26057 0.64576 0.12736 0.0
H286 H 0.23261 0.58766 0.08996 0.0
H287 H 0.31241 0.59633 0.92064 0.0
H288 H 0.34877 0.56258 0.90283 0.0
H289 H 0.36134 0.60493 0.93792 0.0
H290 H 0.39301 0.56397 0.00909 0.0
H291 H 0.38048 0.52146 0.97434 0.0
H292 H 0.36569 0.52745 0.0406 0.0
H293 H 0.21679 0.52736 0.04545 0.0
H294 H 0.21116 0.4705 0.99073 0.0
H295 H 0.32156 0.49441 0.9225 0.0
C296 C 0.33412 0.62027 0.04697 0.0
C297 C 0.31354 0.64151 0.08395 0.0
C298 C 0.27668 0.62976 0.09897 0.0
C299 C 0.26067 0.59681 0.07813 0.0
C300 C 0.28172 0.57642 0.04186 0.0
C301 C 0.31741 0.58784 0.02586 0.0
C302 C 0.33331 0.56147 0.98487 0.0
C303 C 0.3393 0.58259 0.93353 0.0
C304 C 0.37031 0.54246 0.00336 0.0
C305 C 0.30115 0.53313 0.98091 0.0
C306 C 0.27185 0.54222 0.01444 0.0
C307 C 0.23939 0.52 0.01879 0.0
C308 C 0.23659 0.48768 0.98766 0.0
C309 C 0.26592 0.47812 0.95226 0.0
C310 C 0.29862 0.50119 0.94896 0.0
H311 H 0.63881 0.63783 0.99595 0.0
H312 H 0.63429 0.71225 0.86283 0.0
H313 H 0.56866 0.73101 0.88612 0.0
H314 H 0.53906 0.60825 0.99648 0.0
H315 H 0.53474 0.61014 0.06589 0.0
H316 H 0.58011 0.59958 0.03656 0.0
H317 H 0.61087 0.65548 0.08646 0.0
H318 H 0.56571 0.66602 0.11618 0.0
H319 H 0.59062 0.70232 0.08081 0.0
H320 H 0.50498 0.74223 0.92328 0.0
H321 H 0.4488 0.75228 0.978 0.0
H322 H 0.49483 0.67423 0.09197 0.0
C323 C 0.62365 0.65775 0.97162 0.0
C324 C 0.64111 0.67347 0.9274 0.0
C325 C 0.62112 0.70004 0.89683 0.0
C326 C 0.58386 0.71059 0.90955 0.0
C327 C 0.56731 0.69472 0.9534 0.0
C328 C 0.58663 0.66936 0.98455 0.0
C329 C 0.56324 0.65933 0.03199 0.0
C330 C 0.55373 0.61679 0.03275 0.0
C331 C 0.58383 0.67153 0.0818 0.0
C332 C 0.52788 0.68316 0.02262 0.0
C333 C 0.53077 0.70274 0.97654 0.0
C334 C 0.50235 0.72715 0.9595 0.0
C335 C 0.47051 0.73265 0.99103 0.0
C336 C 0.4674 0.71426 0.03959 0.0
C337 C 0.4962 0.68851 0.055 0.0
H338 H 0.68907 0.3853 0.11263 0.0
H339 H 0.72879 0.3129 0.98773 0.0
H340 H 0.75048 0.36967 0.93993 0.0
H341 H 0.65244 0.45793 0.03697 0.0
H342 H 0.66708 0.49608 0.07894 0.0
H343 H 0.65799 0.4498 0.10535 0.0
H344 H 0.72573 0.44809 0.14485 0.0
H345 H 0.73498 0.4946 0.11894 0.0
H346 H 0.76645 0.45568 0.10373 0.0
H347 H 0.7601 0.43387 0.90197 0.0
H348 H 0.7625 0.5016 0.87857 0.0
H349 H 0.71984 0.53247 0.03029 0.0
C350 C 0.70281 0.38127 0.07552 0.0
C351 C 0.70705 0.34476 0.05351 0.0
C352 C 0.72529 0.34067 0.00507 0.0
C353 C 0.73766 0.37269 0.97778 0.0
C354 C 0.73215 0.40834 9e-05 0.0
C355 C 0.71571 0.41279 0.04821 0.0
C356 C 0.71182 0.45427 0.06278 0.0
C357 C 0.66984 0.46514 0.0715 0.0
C358 C 0.73621 0.46371 0.1104 0.0
C359 C 0.72759 0.47263 0.01458 0.0
C360 C 0.73913 0.44554 0.97894 0.0
C361 C 0.7519 0.4553 0.92988 0.0
C362 C 0.75294 0.49374 0.9169 0.0
C363 C 0.74158 0.52188 0.95294 0.0
C364 C 0.7292 0.51133 0.00258 0.0
H365 H 0.51316 0.24731 0.01997 0.0
H366 H 0.56688 0.35759 0.03671 0.0
H367 H 0.51126 0.38754 0.99481 0.0
H368 H 0.46925 0.26424 0.89522 0.0
H369 H 0.42663 0.23839 0.9112 0.0
H370 H 0.4713 0.22548 0.94051 0.0
H371 H 0.4412 0.23353 0.03139 0.0
H372 H 0.39651 0.24672 0.00241 0.0
H373 H 0.41892 0.27796 0.04841 0.0
H374 H 0.4493 0.40561 0.95485 0.0
H375 H 0.38585 0.41134 0.91637 0.0
H376 H 0.37153 0.28902 0.92505 0.0
C377 C 0.51356 0.27774 0.01435 0.0
C378 C 0.54459 0.30011 0.03155 0.0
C379 C 0.5436 0.33985 0.02381 0.0
C380 C 0.5121 0.3571 0.00011 0.0
C381 C 0.48185 0.33423 0.98443 0.0
C382 C 0.48235 0.29541 0.99101 0.0
C383 C 0.44574 0.27743 0.97177 0.0
C384 C 0.45372 0.24975 0.92701 0.0
C385 C 0.42434 0.25775 0.01614 0.0
C386 C 0.4245 0.31229 0.95324 0.0
C387 C 0.44593 0.34467 0.96111 0.0
C388 C 0.43238 0.38045 0.9482 0.0
C389 C 0.39611 0.3833 0.92634 0.0
C390 C 0.37351 0.35055 0.91727 0.0
C391 C 0.38804 0.31454 0.93113 0.0
H392 H 0.74684 0.51825 0.77494 0.0
H393 H 0.85783 0.571 0.78528 0.0
H394 H 0.88594 0.5178 0.73562 0.0
H395 H 0.78007 0.42625 0.79842 0.0
H396 H 0.74711 0.40249 0.75602 0.0
H397 H 0.73433 0.44722 0.78501 0.0
H398 H 0.72139 0.47568 0.69433 0.0
H399 H 0.73375 0.43086 0.66505 0.0
H400 H 0.75801 0.47352 0.64555 0.0
H401 H 0.90279 0.45741 0.6928 0.0
H402 H 0.90846 0.39301 0.65771 0.0
H403 H 0.78672 0.3765 0.67751 0.0
C404 C 0.77676 0.51908 0.76488 0.0
C405 C 0.80021 0.54896 0.7823 0.0
C406 C 0.83953 0.54857 0.77106 0.0
C407 C 0.85564 0.5185 0.7431 0.0
C408 C 0.83202 0.48887 0.72753 0.0
C409 C 0.79344 0.4888 0.73791 0.0
C410 C 0.77533 0.45165 0.72129 0.0
C411 C 0.7582 0.43067 0.76795 0.0
C412 C 0.74534 0.45834 0.67903 0.0
C413 C 0.80981 0.43083 0.70008 0.0
C414 C 0.84207 0.45305 0.70397 0.0
C415 C 0.8777 0.43986 0.68903 0.0
C416 C 0.88056 0.40304 0.66927 0.0
C417 C 0.84798 0.37952 0.66455 0.0
C418 C 0.81209 0.39378 0.68019 0.0
H419 H 0.52605 0.17158 0.18152 0.0
H420 H 0.55169 0.28022 0.25295 0.0
H421 H 0.49392 0.27537 0.30604 0.0
H422 H 0.42756 0.18511 0.1723 0.0
H423 H 0.41443 0.13702 0.18766 0.0
H424 H 0.45984 0.14661 0.15824 0.0
H425 H 0.49429 0.11254 0.2336 0.0
H426 H 0.44891 0.10237 0.26294 0.0
H427 H 0.48494 0.12715 0.29923 0.0
H428 H 0.43039 0.26301 0.34402 0.0
H429 H 0.36735 0.24001 0.37193 0.0
H430 H 0.38296 0.13823 0.27943 0.0
C431 C 0.51999 0.19384 0.20927 0.0
C432 C 0.54341 0.22633 0.21289 0.0
C433 C 0.53414 0.25513 0.24919 0.0
C434 C 0.50136 0.25268 0.27963 0.0
C435 C 0.47817 0.22107 0.27383 0.0
C436 C 0.48724 0.19182 0.24026 0.0
C437 C 0.45643 0.16173 0.24039 0.0
C438 C 0.43851 0.15738 0.18644 0.0
C439 C 0.47208 0.1237 0.26024 0.0
C440 C 0.42849 0.1791 0.27847 0.0
C441 C 0.4416 0.2134 0.29708 0.0
C442 C 0.42 0.23589 0.33042 0.0
C443 C 0.38414 0.22274 0.34575 0.0
C444 C 0.37043 0.18728 0.32813 0.0
C445 C 0.39298 0.16523 0.29405 0.0
H446 H 0.14332 0.63975 0.72398 0.0
H447 H 0.23107 0.64933 0.60669 0.0
H448 H 0.25267 0.58403 0.62662 0.0
H449 H 0.20117 0.58798 0.81559 0.0
H450 H 0.16204 0.55957 0.83842 0.0
H451 H 0.15335 0.60655 0.81383 0.0
H452 H 0.10508 0.57885 0.74817 0.0
H453 H 0.11408 0.53169 0.77202 0.0
H454 H 0.12014 0.54195 0.70428 0.0
H455 H 0.26283 0.51698 0.65714 0.0
H456 H 0.26768 0.45658 0.70423 0.0
H457 H 0.17511 0.49178 0.80507 0.0
C458 C 0.16717 0.6281 0.70259 0.0
C459 C 0.18548 0.64944 0.66361 0.0
C460 C 0.21683 0.6335 0.63687 0.0
C461 C 0.22903 0.59636 0.64763 0.0
C462 C 0.20988 0.57583 0.68568 0.0
C463 C 0.18009 0.5914 0.71344 0.0
C464 C 0.16553 0.56404 0.75406 0.0
C465 C 0.17086 0.58052 0.80871 0.0
C466 C 0.12373 0.55352 0.744 0.0
C467 C 0.19167 0.53048 0.74469 0.0
C468 C 0.21666 0.53772 0.7046 0.0
C469 C 0.24357 0.51111 0.68878 0.0
C470 C 0.24594 0.47673 0.71575 0.0
C471 C 0.22188 0.4693 0.75868 0.0
C472 C 0.19383 0.49637 0.7724 0.0
H473 H 0.63122 0.8521 0.29175 0.0
H474 H 0.64157 0.76162 0.40427 0.0
H475 H 0.58045 0.73452 0.3735 0.0
H476 H 0.53279 0.86666 0.30182 0.0
H477 H 0.52546 0.87498 0.23382 0.0
H478 H 0.57068 0.88588 0.26286 0.0
H479 H 0.60513 0.84247 0.19657 0.0
H480 H 0.56009 0.83191 0.16669 0.0
H481 H 0.59013 0.79388 0.18924 0.0
H482 H 0.51574 0.72075 0.33419 0.0
H483 H 0.45667 0.71644 0.28303 0.0
H484 H 0.49073 0.8156 0.19507 0.0
C485 C 0.62078 0.82635 0.30962 0.0
C486 C 0.64075 0.80895 0.35051 0.0
C487 C 0.6266 0.77516 0.37268 0.0
C488 C 0.5919 0.75979 0.35568 0.0
C489 C 0.57233 0.77838 0.31612 0.0
C490 C 0.58669 0.81052 0.29278 0.0
C491 C 0.56056 0.82512 0.25088 0.0
C492 C 0.54655 0.86555 0.26311 0.0
C493 C 0.58014 0.82321 0.1977 0.0
C494 C 0.52866 0.79664 0.25489 0.0
C495 C 0.53585 0.76998 0.29281 0.0
C496 C 0.51001 0.74127 0.30411 0.0
C497 C 0.4764 0.73925 0.27502 0.0
C498 C 0.46907 0.76566 0.23487 0.0
C499 C 0.49546 0.79494 0.22535 0.0
H500 H 0.8496 0.14419 0.51502 0.0
H501 H 0.75583 0.16253 0.62148 0.0
H502 H 0.72664 0.10223 0.59251 0.0
H503 H 0.79156 0.10138 0.41112 0.0
H504 H 0.82891 0.0689 0.3928 0.0
H505 H 0.8407 0.11462 0.4196 0.0
H506 H 0.88095 0.08159 0.49051 0.0
H507 H 0.86885 0.0358 0.46443 0.0
H508 H 0.85901 0.04644 0.53131 0.0
H509 H 0.71161 0.03712 0.55852 0.0
H510 H 0.7073 0.97509 0.51496 0.0
H511 H 0.80959 0.00062 0.42741 0.0
C512 C 0.82264 0.13573 0.53174 0.0
C513 C 0.80497 0.1578 0.57064 0.0
C514 C 0.76967 0.14607 0.59144 0.0
C515 C 0.75302 0.11184 0.57538 0.0
C516 C 0.77176 0.09023 0.53789 0.0
C517 C 0.80539 0.10208 0.51557 0.0
C518 C 0.81997 0.07352 0.47639 0.0
C519 C 0.82029 0.09063 0.42174 0.0
C520 C 0.85953 0.05845 0.4916 0.0
C521 C 0.78991 0.04308 0.48134 0.0
C522 C 0.7624 0.05327 0.51705 0.0
C523 C 0.73268 0.02906 0.52998 0.0
C524 C 0.73069 0.99373 0.50524 0.0
C525 C 0.75811 0.98298 0.46763 0.0
C526 C 0.78809 0.0081 0.4557 0.0
H527 H 0.13551 0.14678 0.46869 0.0
H528 H 0.13846 0.2315 0.34741 0.0
H529 H 0.07286 0.25117 0.3699 0.0
H530 H 0.03709 0.1204 0.45816 0.0
H531 H 0.02941 0.1168 0.52689 0.0
H532 H 0.07604 0.10806 0.50028 0.0
H533 H 0.1048 0.15935 0.56051 0.0
H534 H 0.0584 0.16782 0.58784 0.0
H535 H 0.08496 0.20656 0.56038 0.0
H536 H 0.0068 0.25974 0.40276 0.0
H537 H 0.94789 0.2653 0.45334 0.0
H538 H 0.98883 0.1785 0.55883 0.0
C539 C 0.12222 0.16951 0.44706 0.0
C540 C 0.14171 0.1876 0.40618 0.0
C541 C 0.12391 0.21753 0.37901 0.0
C542 C 0.08662 0.2286 0.3912 0.0
C543 C 0.06792 0.20989 0.43126 0.0
C544 C 0.08535 0.18162 0.45965 0.0
C545 C 0.05975 0.16807 0.50314 0.0
C546 C 0.05 0.12582 0.4967 0.0
C547 C 0.07807 0.17593 0.5561 0.0
C548 C 0.02507 0.19295 0.49444 0.0
C549 C 0.03029 0.21634 0.45219 0.0
C550 C 0.00248 0.24183 0.43618 0.0
C551 C 0.96898 0.24462 0.4652 0.0
C552 C 0.96367 0.22253 0.51047 0.0
C553 C 0.99185 0.19569 0.52443 0.0
H554 H 0.22501 0.86623 0.55368 0.0
H555 H 0.11891 0.90406 0.62354 0.0
H556 H 0.12792 0.9673 0.5867 0.0
H557 H 0.27638 0.9565 0.57058 0.0
H558 H 0.30032 0.95313 0.50907 0.0
H559 H 0.28718 0.91062 0.54326 0.0
H560 H 0.24995 0.88724 0.463 0.0
H561 H 0.26284 0.9297 0.42863 0.0
H562 H 0.21343 0.91701 0.43557 0.0
H563 H 0.14467 0.02493 0.53842 0.0
H564 H 0.17094 0.07549 0.4826 0.0
H565 H 0.26714 0.00343 0.44468 0.0
C566 C 0.20407 0.88803 0.56179 0.0
C567 C 0.17126 0.87996 0.59157 0.0
C568 C 0.14422 0.90923 0.6007 0.0
C569 C 0.14905 0.94544 0.58004 0.0
C570 C 0.18115 0.95235 0.55023 0.0
C571 C 0.20839 0.92473 0.54116 0.0
C572 C 0.23953 0.9399 0.50605 0.0
C573 C 0.27814 0.94005 0.53392 0.0
C574 C 0.24154 0.91711 0.45531 0.0
C575 C 0.22515 0.98005 0.49678 0.0
C576 C 0.19136 0.98645 0.5227 0.0
C577 C 0.1714 0.02056 0.51845 0.0
C578 C 0.1864 0.04903 0.48678 0.0
C579 C 0.22109 0.04327 0.4604 0.0
C580 C 0.24084 0.0085 0.46549 0.0
H581 H 0.00807 0.7482 0.53263 0.0
H582 H 0.04571 0.85928 0.58371 0.0
H583 H 0.99004 0.88869 0.54166 0.0
H584 H 0.96731 0.77752 0.40822 0.0
H585 H 0.92721 0.74592 0.41327 0.0
H586 H 0.9718 0.7336 0.44333 0.0
H587 H 0.9374 0.72612 0.53141 0.0
H588 H 0.89279 0.73864 0.50169 0.0
H589 H 0.90973 0.76509 0.55672 0.0
H590 H 0.93047 0.90588 0.49838 0.0
H591 H 0.86831 0.91087 0.45608 0.0
H592 H 0.86601 0.78846 0.43482 0.0
C593 C 0.00482 0.77876 0.5339 0.0
C594 C 0.03116 0.80171 0.56077 0.0
C595 C 0.02574 0.84143 0.56307 0.0
C596 C 0.99433 0.85832 0.5393 0.0
C597 C 0.96844 0.83499 0.51395 0.0
C598 C 0.97309 0.7961 0.5111 0.0
C599 C 0.9395 0.77764 0.48415 0.0
C600 C 0.95222 0.75748 0.43427 0.0
C601 C 0.91863 0.75026 0.52068 0.0
C602 C 0.91537 0.8123 0.47243 0.0
C603 C 0.93292 0.84497 0.48979 0.0
C604 C 0.91645 0.88057 0.4843 0.0
C605 C 0.88106 0.88303 0.46012 0.0
C606 C 0.86226 0.85005 0.44181 0.0
C607 C 0.87966 0.81415 0.4483 0.0
H608 H 0.27608 0.31612 0.03452 0.0
H609 H 0.15645 0.31499 0.99379 0.0
H610 H 0.14314 0.27386 0.0695 0.0
H611 H 0.2838 0.22158 0.07214 0.0
H612 H 0.31587 0.23029 0.12518 0.0
H613 H 0.31528 0.2619 0.07064 0.0
H614 H 0.30206 0.31917 0.13109 0.0
H615 H 0.30347 0.28788 0.186 0.0
H616 H 0.26236 0.31749 0.17522 0.0
H617 H 0.14488 0.22732 0.14605 0.0
H618 H 0.15994 0.1874 0.22232 0.0
H619 H 0.27825 0.22135 0.21167 0.0
C620 C 0.24693 0.30785 0.04212 0.0
C621 C 0.21724 0.31876 0.00853 0.0
C622 C 0.1795 0.30732 0.01953 0.0
C623 C 0.17179 0.28369 0.06211 0.0
C624 C 0.20209 0.27229 0.09345 0.0
C625 C 0.23878 0.28474 0.08443 0.0
C626 C 0.26657 0.26845 0.12309 0.0
C627 C 0.29717 0.24412 0.09613 0.0
C628 C 0.28466 0.30013 0.1558 0.0
C629 C 0.24 0.2443 0.15499 0.0
C630 C 0.20294 0.24655 0.13734 0.0
C631 C 0.17376 0.2257 0.1604 0.0
C632 C 0.1826 0.20283 0.20336 0.0
C633 C 0.22022 0.20135 0.22292 0.0
C634 C 0.24917 0.22205 0.1978 0.0
H635 H 0.31566 0.73202 0.96029 0.0
H636 H 0.32179 0.85108 0.00147 0.0
H637 H 0.28402 0.86743 0.92361 0.0
H638 H 0.32208 0.7464 0.81823 0.0
H639 H 0.29002 0.70762 0.80559 0.0
H640 H 0.3204 0.70648 0.86165 0.0
H641 H 0.26117 0.69678 0.91979 0.0
H642 H 0.23051 0.69869 0.8642 0.0
H643 H 0.22284 0.73083 0.91752 0.0
H644 H 0.23788 0.86904 0.84813 0.0
H645 H 0.19577 0.85708 0.77294 0.0
H646 H 0.22392 0.73733 0.77943 0.0
C647 C 0.30988 0.76161 0.952 0.0
C648 C 0.32161 0.7904 0.98624 0.0
C649 C 0.31342 0.8288 0.97493 0.0
C650 C 0.29178 0.83824 0.93117 0.0
C651 C 0.27943 0.80893 0.89897 0.0
C652 C 0.28907 0.77149 0.90818 0.0
C653 C 0.27177 0.74516 0.86852 0.0
C654 C 0.30293 0.72526 0.8366 0.0
C655 C 0.24499 0.71618 0.89406 0.0
C656 C 0.24991 0.77347 0.83633 0.0
C657 C 0.25436 0.81008 0.8546 0.0
C658 C 0.23478 0.8406 0.83287 0.0
C659 C 0.2107 0.83354 0.79063 0.0
C660 C 0.20699 0.79638 0.77045 0.0
C661 C 0.22673 0.76609 0.79379 0.0
H662 H 0.72798 0.7913 0.23931 0.0
H663 H 0.84718 0.82094 0.25332 0.0
H664 H 0.86239 0.77836 0.17937 0.0
H665 H 0.7398 0.69424 0.20706 0.0
H666 H 0.70128 0.69334 0.16108 0.0
H667 H 0.70002 0.7262 0.21447 0.0
H668 H 0.69236 0.7826 0.15119 0.0
H669 H 0.6927 0.74984 0.09773 0.0
H670 H 0.7262 0.78849 0.0994 0.0
H671 H 0.86413 0.72902 0.10647 0.0
H672 H 0.85119 0.68668 0.03183 0.0
H673 H 0.73037 0.69283 0.06474 0.0
C674 C 0.75726 0.78911 0.22642 0.0
C675 C 0.7865 0.8092 0.25179 0.0
C676 C 0.82441 0.80594 0.23389 0.0
C677 C 0.83328 0.78155 0.1924 0.0
C678 C 0.80378 0.76122 0.16912 0.0
C679 C 0.76642 0.76553 0.18486 0.0
C680 C 0.73959 0.74186 0.15254 0.0
C681 C 0.71897 0.71215 0.18579 0.0
C682 C 0.71105 0.76721 0.12348 0.0
C683 C 0.76762 0.72334 0.11601 0.0
C684 C 0.80461 0.73423 0.12661 0.0
C685 C 0.83528 0.72043 0.09779 0.0
C686 C 0.82774 0.69607 0.05591 0.0
C687 C 0.78984 0.68638 0.043 0.0
C688 C 0.75963 0.69963 0.07412 0.0
H689 H 0.7789 0.27499 0.76551 0.0
H690 H 0.83441 0.16477 0.76549 0.0
H691 H 0.79134 0.1439 0.83565 0.0
H692 H 0.76428 0.28358 0.90159 0.0
H693 H 0.71878 0.30664 0.89336 0.0
H694 H 0.75466 0.31102 0.84428 0.0
H695 H 0.7051 0.28587 0.77789 0.0
H696 H 0.67031 0.27963 0.82839 0.0
H697 H 0.68361 0.24007 0.78792 0.0
H698 H 0.74365 0.1361 0.9077 0.0
H699 H 0.69996 0.14411 0.98192 0.0
H700 H 0.67417 0.25853 0.93237 0.0
C701 C 0.7823 0.24646 0.7803 0.0
C702 C 0.81023 0.22152 0.75992 0.0
C703 C 0.81345 0.18446 0.78056 0.0
C704 C 0.78885 0.17226 0.82006 0.0
C705 C 0.76102 0.19734 0.83814 0.0
C706 C 0.75787 0.23377 0.81919 0.0
C707 C 0.72632 0.25563 0.84599 0.0
C708 C 0.74199 0.29129 0.87295 0.0
C709 C 0.69445 0.26589 0.80775 0.0
C710 C 0.71297 0.22625 0.88456 0.0
C711 C 0.7329 0.19256 0.87871 0.0
C712 C 0.72744 0.16206 0.91204 0.0
C713 C 0.70231 0.16669 0.95372 0.0
C714 C 0.68283 0.20141 0.96152 0.0
C715 C 0.68741 0.23116 0.92573 0.0
H716 H 0.77258 0.82005 0.56498 0.0
H717 H 0.65185 0.81898 0.5305 0.0
H718 H 0.64055 0.77821 0.60693 0.0
H719 H 0.78134 0.72636 0.60119 0.0
H720 H 0.81467 0.73429 0.65301 0.0
H721 H 0.81278 0.7667 0.59943 0.0
H722 H 0.80095 0.8231 0.66188 0.0
H723 H 0.80373 0.79101 0.71587 0.0
H724 H 0.76236 0.82073 0.70774 0.0
H725 H 0.6443 0.73063 0.68036 0.0
H726 H 0.66125 0.6882 0.75312 0.0
H727 H 0.77917 0.72312 0.7401 0.0
C728 C 0.74363 0.81206 0.5744 0.0
C729 C 0.71303 0.82264 0.54227 0.0
C730 C 0.67556 0.81153 0.55526 0.0
C731 C 0.66896 0.78814 0.59823 0.0
C732 C 0.70009 0.77685 0.62796 0.0
C733 C 0.73656 0.78925 0.61728 0.0
C734 C 0.76534 0.77247 0.65415 0.0
C735 C 0.79527 0.74854 0.62519 0.0
C736 C 0.78419 0.80369 0.68686 0.0
C737 C 0.73956 0.74787 0.68654 0.0
C738 C 0.70206 0.75051 0.67078 0.0
C739 C 0.67347 0.7288 0.69354 0.0
C740 C 0.68339 0.70452 0.73438 0.0
C741 C 0.72146 0.70259 0.7521 0.0
C742 C 0.74979 0.72434 0.72751 0.0
H743 H 0.75846 0.27444 0.49465 0.0
H744 H 0.8597 0.33365 0.4425 0.0
H745 H 0.83029 0.3414 0.3561 0.0
H746 H 0.7442 0.22168 0.38354 0.0
H747 H 0.69297 0.2238 0.3855 0.0
H748 H 0.71984 0.22731 0.44444 0.0
H749 H 0.68691 0.29135 0.46568 0.0
H750 H 0.65978 0.28802 0.40673 0.0
H751 H 0.68846 0.32938 0.41923 0.0
H752 H 0.79312 0.33577 0.27365 0.0
H753 H 0.75113 0.31815 0.20116 0.0
H754 H 0.67347 0.26348 0.30775 0.0
C755 C 0.77437 0.28969 0.46548 0.0
C756 C 0.81147 0.30357 0.47543 0.0
C757 C 0.8312 0.32305 0.43591 0.0
C758 C 0.81468 0.32757 0.3868 0.0
C759 C 0.77835 0.3128 0.37821 0.0
C760 C 0.75834 0.29448 0.41663 0.0
C761 C 0.72096 0.27876 0.39679 0.0
C762 C 0.71943 0.23533 0.40292 0.0
C763 C 0.68702 0.29804 0.42371 0.0
C764 C 0.7234 0.29009 0.34054 0.0
C765 C 0.75662 0.30998 0.33079 0.0
C766 C 0.76679 0.32085 0.28103 0.0
C767 C 0.74283 0.31058 0.24016 0.0
C768 C 0.70899 0.28978 0.24918 0.0
C769 C 0.69872 0.28013 0.30012 0.0
H770 H 0.24094 0.30798 0.70531 0.0
H771 H 0.36229 0.32099 0.72846 0.0
H772 H 0.37449 0.27927 0.6524 0.0
H773 H 0.24161 0.21224 0.67306 0.0
H774 H 0.20463 0.21556 0.62503 0.0
H775 H 0.20581 0.24881 0.6779 0.0
H776 H 0.20712 0.30524 0.61395 0.0
H777 H 0.20483 0.27228 0.56079 0.0
H778 H 0.24281 0.30651 0.56386 0.0
H779 H 0.37199 0.23065 0.5779 0.0
H780 H 0.3555 0.18845 0.50429 0.0
H781 H 0.23566 0.20955 0.53235 0.0
C782 C 0.27011 0.30277 0.69353 0.0
C783 C 0.30076 0.31768 0.72207 0.0
C784 C 0.33855 0.31018 0.70623 0.0
C785 C 0.34563 0.28623 0.6636 0.0
C786 C 0.31452 0.27063 0.63746 0.0
C787 C 0.27753 0.2794 0.65132 0.0
C788 C 0.24883 0.25901 0.61802 0.0
C789 C 0.22377 0.23233 0.65046 0.0
C790 C 0.22449 0.28746 0.58732 0.0
C791 C 0.27533 0.23698 0.58321 0.0
C792 C 0.31312 0.24358 0.59508 0.0
C793 C 0.3425 0.22555 0.56813 0.0
C794 C 0.33291 0.20132 0.52686 0.0
C795 C 0.29434 0.19581 0.51296 0.0
C796 C 0.26538 0.21331 0.54224 0.0
H797 H 0.2937 0.77591 0.29001 0.0
H798 H 0.30832 0.65445 0.2717 0.0
H799 H 0.26394 0.64369 0.34506 0.0
H800 H 0.28885 0.77646 0.42994 0.0
H801 H 0.25422 0.81425 0.43114 0.0
H802 H 0.28794 0.81122 0.3789 0.0
H803 H 0.23219 0.81111 0.31339 0.0
H804 H 0.19825 0.81326 0.36549 0.0
H805 H 0.19561 0.77551 0.31851 0.0
H806 H 0.21454 0.64727 0.41856 0.0
H807 H 0.17309 0.66477 0.49263 0.0
H808 H 0.19235 0.78382 0.46019 0.0
C809 C 0.28798 0.747 0.30184 0.0
C810 C 0.30436 0.71597 0.27534 0.0
C811 C 0.29632 0.67859 0.29196 0.0
C812 C 0.27085 0.67227 0.33314 0.0
C813 C 0.25409 0.70366 0.35725 0.0
C814 C 0.26302 0.74029 0.34268 0.0
C815 C 0.24193 0.76939 0.37476 0.0
C816 C 0.2699 0.79427 0.40552 0.0
C817 C 0.21543 0.79373 0.341 0.0
C818 C 0.21951 0.74353 0.40981 0.0
C819 C 0.22644 0.70569 0.39902 0.0
C820 C 0.20898 0.67681 0.42726 0.0
C821 C 0.18512 0.68697 0.46883 0.0
C822 C 0.17937 0.72562 0.48178 0.0
C823 C 0.19605 0.75404 0.45091 0.0
loop_
_geom_bond_atom_site_label_1
_geom_bond_atom_site_label_2
_geom_bond_distance
_geom_bond_site_symmetry_2
_ccdc_geom_bond_type
Fe0 O2 1.918 . S
Fe0 O5 1.997 . S
Fe0 O6 2.002 . S
Fe0 O11 1.976 . S
Fe0 O14 1.996 . S
Fe1 O2 1.918 . S
Fe1 O9 1.997 . S
Fe1 O12 1.996 . S
Fe1 O16 1.976 . S
Fe1 O19 2.002 . S
O2 Fe0 1.918 . S
O2 Fe1 1.918 . S
O2 Fe3 1.918 . S
Fe3 O2 1.918 . S
Fe3 O4 2.002 . S
Fe3 O13 1.976 . S
Fe3 O17 1.996 . S
Fe3 O20 1.997 . S
O4 Fe3 2.002 . S
O4 C21 1.295 . S
O5 Fe0 1.997 . S
O5 C21 1.235 . S
O6 Fe0 2.002 . S
O6 C7 1.295 . S
C7 O6 1.295 . S
C7 O9 1.235 . S
C8 O13 1.287 . S
C8 O14 1.255 . S
O9 Fe1 1.997 . S
O9 C7 1.235 . S
C10 O16 1.287 . S
C10 O17 1.255 . S
O11 Fe0 1.976 . S
O11 C18 1.287 . S
O12 Fe1 1.996 . S
O12 C18 1.255 . S
O13 Fe3 1.976 . S
O13 C8 1.287 . S
O14 Fe0 1.996 . S
O14 C8 1.255 . S
C15 O19 1.295 . S
C15 O20 1.235 . S
O16 Fe1 1.976 . S
O16 C10 1.287 . S
O17 Fe3 1.996 . S
O17 C10 1.255 . S
C18 O11 1.287 . S
C18 O12 1.255 . S
O19 Fe1 2.002 . S
O19 C15 1.295 . S
O20 Fe3 1.997 . S
O20 C15 1.235 . S
C21 O4 1.295 . S
C21 O5 1.235 . S
Fe22 O24 1.918 . S
Fe22 O27 1.997 . S
Fe22 O28 2.002 . S
Fe22 O33 1.976 . S
Fe22 O36 1.996 . S
Fe23 O24 1.918 . S
Fe23 O31 1.997 . S
Fe23 O34 1.996 . S
Fe23 O38 1.976 . S
Fe23 O41 2.002 . S
O24 Fe22 1.918 . S
O24 Fe23 1.918 . S
O24 Fe25 1.918 . S
Fe25 O24 1.918 . S
Fe25 O26 2.002 . S
Fe25 O35 1.976 . S
Fe25 O39 1.996 . S
Fe25 O42 1.997 . S
O26 Fe25 2.002 . S
O26 C43 1.295 . S
O27 Fe22 1.997 . S
O27 C43 1.235 . S
O28 Fe22 2.002 . S
O28 C29 1.295 . S
C29 O28 1.295 . S
C29 O31 1.235 . S
C30 O35 1.287 . S
C30 O36 1.255 . S
O31 Fe23 1.997 . S
O31 C29 1.235 . S
C32 O38 1.287 . S
C32 O39 1.255 . S
O33 Fe22 1.976 . S
O33 C40 1.287 . S
O34 Fe23 1.996 . S
O34 C40 1.255 . S
O35 Fe25 1.976 . S
O35 C30 1.287 . S
O36 Fe22 1.996 . S
O36 C30 1.255 . S
C37 O41 1.295 . S
C37 O42 1.235 . S
O38 Fe23 1.976 . S
O38 C32 1.287 . S
O39 Fe25 1.996 . S
O39 C32 1.255 . S
C40 O33 1.287 . S
C40 O34 1.255 . S
O41 Fe23 2.002 . S
O41 C37 1.295 . S
O42 Fe25 1.997 . S
O42 C37 1.235 . S
C43 O26 1.295 . S
C43 O27 1.235 . S
Fe44 O46 1.918 . S
Fe44 O49 1.997 . S
Fe44 O50 2.002 . S
Fe44 O55 1.976 . S
Fe44 O58 1.996 . S
Fe45 O46 1.918 . S
Fe45 O53 1.997 . S
Fe45 O56 1.996 . S
Fe45 O60 1.976 . S
Fe45 O63 2.002 . S
O46 Fe44 1.918 . S
O46 Fe45 1.918 . S
O46 Fe47 1.918 . S
Fe47 O46 1.918 . S
Fe47 O48 2.002 . S
Fe47 O57 1.976 . S
Fe47 O61 1.996 . S
Fe47 O64 1.997 . S
O48 Fe47 2.002 . S
O48 C65 1.295 . S
O49 Fe44 1.997 . S
O49 C65 1.235 . S
O50 Fe44 2.002 . S
O50 C51 1.295 . S
C51 O50 1.295 . S
C51 O53 1.235 . S
C52 O57 1.287 . S
C52 O58 1.255 . S
O53 Fe45 1.997 . S
O53 C51 1.235 . S
C54 O60 1.287 . S
C54 O61 1.255 . S
O55 Fe44 1.976 . S
O55 C62 1.287 . S
O56 Fe45 1.996 . S
O56 C62 1.255 . S
O57 Fe47 1.976 . S
O57 C52 1.287 . S
O58 Fe44 1.996 . S
O58 C52 1.255 . S
C59 O63 1.295 . S
C59 O64 1.235 . S
O60 Fe45 1.976 . S
O60 C54 1.287 . S
O61 Fe47 1.996 . S
O61 C54 1.255 . S
C62 O55 1.287 . S
C62 O56 1.255 . S
O63 Fe45 2.002 . S
O63 C59 1.295 . S
O64 Fe47 1.997 . S
O64 C59 1.235 . S
C65 O48 1.295 . S
C65 O49 1.235 . S
Fe66 O68 1.918 . S
Fe66 O71 1.997 . S
Fe66 O72 2.002 . S
Fe66 O77 1.976 . S
Fe66 O80 1.996 . S
Fe67 O68 1.918 . S
Fe67 O75 1.997 . S
Fe67 O78 1.996 . S
Fe67 O82 1.976 . S
Fe67 O85 2.002 . S
O68 Fe66 1.918 . S
O68 Fe67 1.918 . S
O68 Fe69 1.918 . S
Fe69 O68 1.918 . S
Fe69 O70 2.002 . S
Fe69 O79 1.976 . S
Fe69 O83 1.996 . S
Fe69 O86 1.997 . S
O70 Fe69 2.002 . S
O70 C87 1.295 . S
O71 Fe66 1.997 . S
O71 C87 1.235 . S
O72 Fe66 2.002 . S
O72 C73 1.295 . S
C73 O72 1.295 . S
C73 O75 1.235 . S
C74 O79 1.287 . S
C74 O80 1.255 . S
O75 Fe67 1.997 . S
O75 C73 1.235 . S
C76 O82 1.287 . S
C76 O83 1.255 . S
O77 Fe66 1.976 . S
O77 C84 1.287 . S
O78 Fe67 1.996 . S
O78 C84 1.255 . S
O79 Fe69 1.976 . S
O79 C74 1.287 . S
O80 Fe66 1.996 . S
O80 C74 1.255 . S
C81 O85 1.295 . S
C81 O86 1.235 . S
O82 Fe67 1.976 . S
O82 C76 1.287 . S
O83 Fe69 1.996 . S
O83 C76 1.255 . S
C84 O77 1.287 . S
C84 O78 1.255 . S
O85 Fe67 2.002 . S
O85 C81 1.295 . S
O86 Fe69 1.997 . S
O86 C81 1.235 . S
C87 O70 1.295 . S
C87 O71 1.235 . S
Fe88 O90 1.918 . S
Fe88 O93 1.997 . S
Fe88 O94 2.002 . S
Fe88 O99 1.976 . S
Fe88 O102 1.996 . S
Fe89 O90 1.918 . S
Fe89 O97 1.997 . S
Fe89 O100 1.996 . S
Fe89 O104 1.976 . S
Fe89 O107 2.002 . S
O90 Fe88 1.918 . S
O90 Fe89 1.918 . S
O90 Fe91 1.918 . S
Fe91 O90 1.918 . S
Fe91 O92 2.002 . S
Fe91 O101 1.976 . S
Fe91 O105 1.996 . S
Fe91 O108 1.997 . S
O92 Fe91 2.002 . S
O92 C109 1.295 . S
O93 Fe88 1.997 . S
O93 C109 1.235 . S
O94 Fe88 2.002 . S
O94 C95 1.295 . S
C95 O94 1.295 . S
C95 O97 1.235 . S
C96 O101 1.287 . S
C96 O102 1.255 . S
O97 Fe89 1.997 . S
O97 C95 1.235 . S
C98 O104 1.287 . S
C98 O105 1.255 . S
O99 Fe88 1.976 . S
O99 C106 1.287 . S
O100 Fe89 1.996 . S
O100 C106 1.255 . S
O101 Fe91 1.976 . S
O101 C96 1.287 . S
O102 Fe88 1.996 . S
O102 C96 1.255 . S
C103 O107 1.295 . S
C103 O108 1.235 . S
O104 Fe89 1.976 . S
O104 C98 1.287 . S
O105 Fe91 1.996 . S
O105 C98 1.255 . S
C106 O99 1.287 . S
C106 O100 1.255 . S
O107 Fe89 2.002 . S
O107 C103 1.295 . S
O108 Fe91 1.997 . S
O108 C103 1.235 . S
C109 O92 1.295 . S
C109 O93 1.235 . S
Fe110 O112 1.918 . S
Fe110 O115 1.997 . S
Fe110 O116 2.002 . S
Fe110 O121 1.976 . S
Fe110 O124 1.996 . S
Fe111 O112 1.918 . S
Fe111 O119 1.997 . S
Fe111 O122 1.996 . S
Fe111 O126 1.976 . S
Fe111 O129 2.002 . S
O112 Fe110 1.918 . S
O112 Fe111 1.918 . S
O112 Fe113 1.918 . S
Fe113 O112 1.918 . S
Fe113 O114 2.002 . S
Fe113 O123 1.976 . S
Fe113 O127 1.996 . S
Fe113 O130 1.997 . S
O114 Fe113 2.002 . S
O114 C131 1.295 . S
O115 Fe110 1.997 . S
O115 C131 1.235 . S
O116 Fe110 2.002 . S
O116 C117 1.295 . S
C117 O116 1.295 . S
C117 O119 1.235 . S
C118 O123 1.287 . S
C118 O124 1.255 . S
O119 Fe111 1.997 . S
O119 C117 1.235 . S
C120 O126 1.287 . S
C120 O127 1.255 . S
O121 Fe110 1.976 . S
O121 C128 1.287 . S
O122 Fe111 1.996 . S
O122 C128 1.255 . S
O123 Fe113 1.976 . S
O123 C118 1.287 . S
O124 Fe110 1.996 . S
O124 C118 1.255 . S
C125 O129 1.295 . S
C125 O130 1.235 . S
O126 Fe111 1.976 . S
O126 C120 1.287 . S
O127 Fe113 1.996 . S
O127 C120 1.255 . S
C128 O121 1.287 . S
C128 O122 1.255 . S
O129 Fe111 2.002 . S
O129 C125 1.295 . S
O130 Fe113 1.997 . S
O130 C125 1.235 . S
C131 O114 1.295 . S
C131 O115 1.235 . S
Fe132 O134 1.918 . S
Fe132 O137 1.997 . S
Fe132 O138 2.002 . S
Fe132 O143 1.976 . S
Fe132 O146 1.996 . S
Fe133 O134 1.918 . S
Fe133 O141 1.997 . S
Fe133 O144 1.996 . S
Fe133 O148 1.976 . S
Fe133 O151 2.002 . S
O134 Fe132 1.918 . S
O134 Fe133 1.918 . S
O134 Fe135 1.918 . S
Fe135 O134 1.918 . S
Fe135 O136 2.002 . S
Fe135 O145 1.976 . S
Fe135 O149 1.996 . S
Fe135 O152 1.997 . S
O136 Fe135 2.002 . S
O136 C153 1.295 . S
O137 Fe132 1.997 . S
O137 C153 1.235 . S
O138 Fe132 2.002 . S
O138 C139 1.295 . S
C139 O138 1.295 . S
C139 O141 1.235 . S
C140 O145 1.287 . S
C140 O146 1.255 . S
O141 Fe133 1.997 . S
O141 C139 1.235 . S
C142 O148 1.287 . S
C142 O149 1.255 . S
O143 Fe132 1.976 . S
O143 C150 1.287 . S
O144 Fe133 1.996 . S
O144 C150 1.255 . S
O145 Fe135 1.976 . S
O145 C140 1.287 . S
O146 Fe132 1.996 . S
O146 C140 1.255 . S
C147 O151 1.295 . S
C147 O152 1.235 . S
O148 Fe133 1.976 . S
O148 C142 1.287 . S
O149 Fe135 1.996 . S
O149 C142 1.255 . S
C150 O143 1.287 . S
C150 O144 1.255 . S
O151 Fe133 2.002 . S
O151 C147 1.295 . S
O152 Fe135 1.997 . S
O152 C147 1.235 . S
C153 O136 1.295 . S
C153 O137 1.235 . S
Fe154 O156 1.918 . S
Fe154 O159 1.997 . S
Fe154 O160 2.002 . S
Fe154 O165 1.976 . S
Fe154 O168 1.996 . S
Fe155 O156 1.918 . S
Fe155 O163 1.997 . S
Fe155 O166 1.996 . S
Fe155 O170 1.976 . S
Fe155 O173 2.002 . S
O156 Fe154 1.918 . S
O156 Fe155 1.918 . S
O156 Fe157 1.918 . S
Fe157 O156 1.918 . S
Fe157 O158 2.002 . S
Fe157 O167 1.976 . S
Fe157 O171 1.996 . S
Fe157 O174 1.997 . S
O158 Fe157 2.002 . S
O158 C175 1.295 . S
O159 Fe154 1.997 . S
O159 C175 1.235 . S
O160 Fe154 2.002 . S
O160 C161 1.295 . S
C161 O160 1.295 . S
C161 O163 1.235 . S
C162 O167 1.287 . S
C162 O168 1.255 . S
O163 Fe155 1.997 . S
O163 C161 1.235 . S
C164 O170 1.287 . S
C164 O171 1.255 . S
O165 Fe154 1.976 . S
O165 C172 1.287 . S
O166 Fe155 1.996 . S
O166 C172 1.255 . S
O167 Fe157 1.976 . S
O167 C162 1.287 . S
O168 Fe154 1.996 . S
O168 C162 1.255 . S
C169 O173 1.295 . S
C169 O174 1.235 . S
O170 Fe155 1.976 . S
O170 C164 1.287 . S
O171 Fe157 1.996 . S
O171 C164 1.255 . S
C172 O165 1.287 . S
C172 O166 1.255 . S
O173 Fe155 2.002 . S
O173 C169 1.295 . S
O174 Fe157 1.997 . S
O174 C169 1.235 . S
C175 O158 1.295 . S
C175 O159 1.235 . S
H176 C188 0.930 . S
H177 C190 0.930 . S
H178 C191 0.930 . S
H179 C195 0.959 . S
H180 C195 0.959 . S
H181 C195 0.961 . S
H182 C196 0.960 . S
H183 C196 0.961 . S
H184 C196 0.959 . S
H185 C199 0.929 . S
H186 C200 0.931 . S
H187 C202 0.930 . S
C188 H176 0.930 . S
C188 C189 1.399 . S
C188 C193 1.399 1_545 S
C189 C188 1.399 . S
C189 C190 1.376 . S
C190 H177 0.930 . S
C190 C189 1.376 . S
C190 C191 1.388 . S
C191 H178 0.930 . S
C191 C190 1.388 . S
C191 C192 1.390 1_545 S
C192 C191 1.390 1_565 S
C192 C193 1.394 . S
C192 C198 1.465 . S
C193 C188 1.399 1_565 S
C193 C192 1.394 . S
C193 C194 1.516 . S
C194 C193 1.516 . S
C194 C195 1.502 . S
C194 C196 1.561 . S
C194 C197 1.526 . S
C195 H179 0.959 . S
C195 H180 0.959 . S
C195 H181 0.961 . S
C195 C194 1.502 . S
C196 H182 0.960 . S
C196 H183 0.961 . S
C196 H184 0.959 . S
C196 C194 1.561 . S
C197 C194 1.526 . S
C197 C198 1.396 . S
C197 C202 1.390 . S
C198 C192 1.465 . S
C198 C197 1.396 . S
C198 C199 1.399 . S
C199 H185 0.929 . S
C199 C198 1.399 . S
C199 C200 1.385 . S
C200 H186 0.931 . S
C200 C199 1.385 . S
C200 C201 1.389 . S
C201 C200 1.389 . S
C201 C202 1.387 . S
C202 H187 0.930 . S
C202 C197 1.390 . S
C202 C201 1.387 . S
H203 C215 0.930 . S
H204 C217 0.930 . S
H205 C218 0.930 . S
H206 C222 0.959 . S
H207 C222 0.959 . S
H208 C222 0.961 1_455 S
H209 C223 0.960 1_455 S
H210 C223 0.961 . S
H211 C223 0.959 . S
H212 C226 0.929 . S
H213 C227 0.931 . S
H214 C229 0.930 . S
C215 H203 0.930 . S
C215 C216 1.399 . S
C215 C220 1.399 1_455 S
C216 C215 1.399 . S
C216 C217 1.376 . S
C217 H204 0.930 . S
C217 C216 1.376 . S
C217 C218 1.388 1_455 S
C218 H205 0.930 . S
C218 C217 1.388 1_655 S
C218 C219 1.390 . S
C219 C218 1.390 . S
C219 C220 1.394 . S
C219 C225 1.465 . S
C220 C215 1.399 1_655 S
C220 C219 1.394 . S
C220 C221 1.516 . S
C221 C220 1.516 . S
C221 C222 1.502 . S
C221 C223 1.561 . S
C221 C224 1.526 . S
C222 H206 0.959 . S
C222 H207 0.959 . S
C222 H208 0.961 1_655 S
C222 C221 1.502 . S
C223 H209 0.960 1_655 S
C223 H210 0.961 . S
C223 H211 0.959 . S
C223 C221 1.561 . S
C224 C221 1.526 . S
C224 C225 1.396 . S
C224 C229 1.390 . S
C225 C219 1.465 . S
C225 C224 1.396 . S
C225 C226 1.399 . S
C226 H212 0.929 . S
C226 C225 1.399 . S
C226 C227 1.385 . S
C227 H213 0.931 . S
C227 C226 1.385 . S
C227 C228 1.389 . S
C228 C227 1.389 . S
C228 C229 1.387 . S
C229 H214 0.930 . S
C229 C224 1.390 . S
C229 C228 1.387 . S
H230 C242 0.930 . S
H231 C244 0.930 . S
H232 C245 0.930 . S
H233 C249 0.959 . S
H234 C249 0.959 . S
H235 C249 0.961 . S
H236 C250 0.960 . S
H237 C250 0.961 . S
H238 C250 0.959 . S
H239 C253 0.929 . S
H240 C254 0.931 . S
H241 C256 0.930 . S
C242 H230 0.930 . S
C242 C243 1.399 1_545 S
C242 C247 1.399 . S
C243 C242 1.399 1_565 S
C243 C244 1.376 . S
C244 H231 0.930 . S
C244 C243 1.376 . S
C244 C245 1.388 . S
C245 H232 0.930 . S
C245 C244 1.388 . S
C245 C246 1.390 1_565 S
C246 C245 1.390 1_545 S
C246 C247 1.394 . S
C246 C252 1.465 . S
C247 C242 1.399 . S
C247 C246 1.394 . S
C247 C248 1.516 . S
C248 C247 1.516 . S
C248 C249 1.502 . S
C248 C250 1.561 . S
C248 C251 1.526 . S
C249 H233 0.959 . S
C249 H234 0.959 . S
C249 H235 0.961 . S
C249 C248 1.502 . S
C250 H236 0.960 . S
C250 H237 0.961 . S
C250 H238 0.959 . S
C250 C248 1.561 . S
C251 C248 1.526 . S
C251 C252 1.396 . S
C251 C256 1.390 . S
C252 C246 1.465 . S
C252 C251 1.396 . S
C252 C253 1.399 . S
C253 H239 0.929 . S
C253 C252 1.399 . S
C253 C254 1.385 . S
C254 H240 0.931 . S
C254 C253 1.385 . S
C254 C255 1.389 . S
C255 C254 1.389 . S
C255 C256 1.387 . S
C256 H241 0.930 . S
C256 C251 1.390 . S
C256 C255 1.387 . S
H257 C269 0.930 . S
H258 C271 0.930 . S
H259 C272 0.930 . S
H260 C276 0.959 . S
H261 C276 0.959 1_655 S
H262 C276 0.961 . S
H263 C277 0.960 . S
H264 C277 0.961 . S
H265 C277 0.959 . S
H266 C280 0.929 . S
H267 C281 0.934 . S
H268 C283 0.930 . S
C269 H257 0.930 . S
C269 C270 1.399 . S
C269 C274 1.399 . S
C270 C269 1.399 . S
C270 C271 1.376 . S
C271 H258 0.930 . S
C271 C270 1.376 . S
C271 C272 1.388 . S
C272 H259 0.930 . S
C272 C271 1.388 . S
C272 C273 1.390 . S
C273 C272 1.390 . S
C273 C274 1.394 . S
C273 C279 1.465 . S
C274 C269 1.399 . S
C274 C273 1.394 . S
C274 C275 1.516 . S
C275 C274 1.516 . S
C275 C276 1.502 . S
C275 C277 1.561 . S
C275 C278 1.526 . S
C276 H260 0.959 . S
C276 H261 0.959 1_455 S
C276 H262 0.961 . S
C276 C275 1.502 . S
C277 H263 0.960 . S
C277 H264 0.961 . S
C277 H265 0.959 . S
C277 C275 1.561 . S
C278 C275 1.526 . S
C278 C279 1.396 . S
C278 C283 1.390 1_455 S
C279 C273 1.465 . S
C279 C278 1.396 . S
C279 C280 1.399 . S
C280 H266 0.929 . S
C280 C279 1.399 . S
C280 C281 1.373 1_455 S
C281 H267 0.934 . S
C281 C280 1.373 1_655 S
C281 C282 1.398 . S
C282 C281 1.398 . S
C282 C283 1.387 . S
C283 H268 0.930 . S
C283 C278 1.390 1_655 S
C283 C282 1.387 . S
H284 C296 0.930 . S
H285 C298 0.930 . S
H286 C299 0.930 . S
H287 C303 0.959 . S
H288 C303 0.959 . S
H289 C303 0.961 . S
H290 C304 0.960 . S
H291 C304 0.961 . S
H292 C304 0.959 . S
H293 C307 0.929 . S
H294 C308 0.931 . S
H295 C310 0.930 . S
C296 H284 0.930 . S
C296 C297 1.399 . S
C296 C301 1.399 . S
C297 C296 1.399 . S
C297 C298 1.376 . S
C298 H285 0.930 . S
C298 C297 1.376 . S
C298 C299 1.388 . S
C299 H286 0.930 . S
C299 C298 1.388 . S
C299 C300 1.390 . S
C300 C299 1.390 . S
C300 C301 1.394 . S
C300 C306 1.465 . S
C301 C296 1.399 . S
C301 C300 1.394 . S
C301 C302 1.516 1_554 S
C302 C301 1.516 1_556 S
C302 C303 1.502 . S
C302 C304 1.561 . S
C302 C305 1.526 . S
C303 H287 0.959 . S
C303 H288 0.959 . S
C303 H289 0.961 . S
C303 C302 1.502 . S
C304 H290 0.960 . S
C304 H291 0.961 . S
C304 H292 0.959 . S
C304 C302 1.561 . S
C305 C302 1.526 . S
C305 C306 1.396 1_556 S
C305 C310 1.390 . S
C306 C300 1.465 . S
C306 C305 1.396 1_554 S
C306 C307 1.399 . S
C307 H293 0.929 . S
C307 C306 1.399 . S
C307 C308 1.385 . S
C308 H294 0.931 . S
C308 C307 1.385 . S
C308 C309 1.389 1_554 S
C309 C308 1.389 1_556 S
C309 C310 1.387 . S
C310 H295 0.930 . S
C310 C305 1.390 . S
C310 C309 1.387 . S
H311 C323 0.930 . S
H312 C325 0.930 . S
H313 C326 0.930 . S
H314 C330 0.959 . S
H315 C330 0.959 . S
H316 C330 0.961 . S
H317 C331 0.960 . S
H318 C331 0.961 . S
H319 C331 0.959 1_554 S
H320 C334 0.929 . S
H321 C335 0.931 . S
H322 C337 0.930 1_556 S
C323 H311 0.930 . S
C323 C324 1.399 . S
C323 C328 1.399 . S
C324 C323 1.399 . S
C324 C325 1.376 . S
C325 H312 0.930 . S
C325 C324 1.376 . S
C325 C326 1.388 . S
C326 H313 0.930 . S
C326 C325 1.388 . S
C326 C327 1.390 . S
C327 C326 1.390 . S
C327 C328 1.394 . S
C327 C333 1.460 1_556 S
C328 C323 1.399 . S
C328 C327 1.394 . S
C328 C329 1.516 . S
C329 C328 1.516 . S
C329 C330 1.502 . S
C329 C331 1.561 . S
C329 C332 1.526 . S
C330 H314 0.959 . S
C330 H315 0.959 . S
C330 H316 0.961 . S
C330 C329 1.502 . S
C331 H317 0.960 . S
C331 H318 0.961 . S
C331 H319 0.959 1_556 S
C331 C329 1.561 . S
C332 C329 1.526 . S
C332 C333 1.394 1_556 S
C332 C337 1.390 1_556 S
C333 C327 1.460 1_554 S
C333 C332 1.394 1_554 S
C333 C334 1.405 . S
C334 H320 0.929 . S
C334 C333 1.405 . S
C334 C335 1.385 . S
C335 H321 0.931 . S
C335 C334 1.385 . S
C335 C336 1.389 . S
C336 C335 1.389 . S
C336 C337 1.387 . S
C337 H322 0.930 1_554 S
C337 C332 1.390 1_554 S
C337 C336 1.387 . S
H338 C350 0.930 . S
H339 C352 0.930 . S
H340 C353 0.930 1_556 S
H341 C357 0.959 . S
H342 C357 0.959 . S
H343 C357 0.961 . S
H344 C358 0.960 . S
H345 C358 0.961 . S
H346 C358 0.959 . S
H347 C361 0.929 . S
H348 C362 0.931 . S
H349 C364 0.930 . S
C350 H338 0.930 . S
C350 C351 1.399 . S
C350 C355 1.399 . S
C351 C350 1.399 . S
C351 C352 1.376 . S
C352 H339 0.930 . S
C352 C351 1.376 . S
C352 C353 1.388 . S
C353 H340 0.930 1_554 S
C353 C352 1.388 . S
C353 C354 1.390 . S
C354 C353 1.390 . S
C354 C355 1.394 . S
C354 C360 1.465 1_554 S
C355 C350 1.399 . S
C355 C354 1.394 . S
C355 C356 1.516 . S
C356 C355 1.516 . S
C356 C357 1.502 . S
C356 C358 1.561 . S
C356 C359 1.526 . S
C357 H341 0.959 . S
C357 H342 0.959 . S
C357 H343 0.961 . S
C357 C356 1.502 . S
C358 H344 0.960 . S
C358 H345 0.961 . S
C358 H346 0.959 . S
C358 C356 1.561 . S
C359 C356 1.526 . S
C359 C360 1.396 1_554 S
C359 C364 1.390 . S
C360 C354 1.465 1_556 S
C360 C359 1.396 1_556 S
C360 C361 1.399 . S
C361 H347 0.929 . S
C361 C360 1.399 . S
C361 C362 1.385 . S
C362 H348 0.931 . S
C362 C361 1.385 . S
C362 C363 1.389 . S
C363 C362 1.389 . S
C363 C364 1.387 1_556 S
C364 H349 0.930 . S
C364 C359 1.390 . S
C364 C363 1.387 1_554 S
H365 C377 0.930 . S
H366 C379 0.930 . S
H367 C380 0.930 . S
H368 C384 0.959 . S
H369 C384 0.959 . S
H370 C384 0.961 . S
H371 C385 0.960 . S
H372 C385 0.961 . S
H373 C385 0.959 . S
H374 C388 0.917 1_554 S
H375 C389 0.931 . S
H376 C391 0.930 . S
C377 H365 0.930 . S
C377 C378 1.399 1_556 S
C377 C382 1.399 . S
C378 C377 1.399 1_554 S
C378 C379 1.376 . S
C379 H366 0.930 . S
C379 C378 1.376 . S
C379 C380 1.388 . S
C380 H367 0.930 . S
C380 C379 1.388 . S
C380 C381 1.390 . S
C381 C380 1.390 . S
C381 C382 1.394 1_554 S
C381 C387 1.465 1_554 S
C382 C377 1.399 . S
C382 C381 1.394 1_556 S
C382 C383 1.516 . S
C383 C382 1.516 . S
C383 C384 1.502 . S
C383 C385 1.561 . S
C383 C386 1.526 . S
C384 H368 0.959 . S
C384 H369 0.959 . S
C384 H370 0.961 . S
C384 C383 1.502 . S
C385 H371 0.960 . S
C385 H372 0.961 . S
C385 H373 0.959 . S
C385 C383 1.561 . S
C386 C383 1.526 . S
C386 C387 1.396 . S
C386 C391 1.390 . S
C387 C381 1.465 1_556 S
C387 C386 1.396 . S
C387 C388 1.403 . S
C388 H374 0.917 1_556 S
C388 C387 1.403 . S
C388 C389 1.393 . S
C389 H375 0.931 . S
C389 C388 1.393 . S
C389 C390 1.389 . S
C390 C389 1.389 . S
C390 C391 1.387 . S
C391 H376 0.930 . S
C391 C386 1.390 . S
C391 C390 1.387 . S
H392 C404 0.930 . S
H393 C406 0.930 . S
H394 C407 0.930 . S
H395 C411 0.959 . S
H396 C411 0.959 . S
H397 C411 0.961 . S
H398 C412 0.960 . S
H399 C412 0.961 . S
H400 C412 0.959 . S
H401 C415 0.929 . S
H402 C416 0.931 . S
H403 C418 0.930 . S
C404 H392 0.930 . S
C404 C405 1.399 . S
C404 C409 1.399 . S
C405 C404 1.399 . S
C405 C406 1.376 . S
C406 H393 0.930 . S
C406 C405 1.376 . S
C406 C407 1.388 . S
C407 H394 0.930 . S
C407 C406 1.388 . S
C407 C408 1.390 . S
C408 C407 1.390 . S
C408 C409 1.394 . S
C408 C414 1.465 . S
C409 C404 1.399 . S
C409 C408 1.394 . S
C409 C410 1.516 . S
C410 C409 1.516 . S
C410 C411 1.502 . S
C410 C412 1.561 . S
C410 C413 1.526 . S
C411 H395 0.959 . S
C411 H396 0.959 . S
C411 H397 0.961 . S
C411 C410 1.502 . S
C412 H398 0.960 . S
C412 H399 0.961 . S
C412 H400 0.959 . S
C412 C410 1.561 . S
C413 C410 1.526 . S
C413 C414 1.396 . S
C413 C418 1.390 . S
C414 C408 1.465 . S
C414 C413 1.396 . S
C414 C415 1.399 . S
C415 H401 0.929 . S
C415 C414 1.399 . S
C415 C416 1.385 . S
C416 H402 0.931 . S
C416 C415 1.385 . S
C416 C417 1.389 . S
C417 C416 1.389 . S
C417 C418 1.387 . S
C418 H403 0.930 . S
C418 C413 1.390 . S
C418 C417 1.387 . S
H419 C431 0.930 . S
H420 C433 0.930 . S
H421 C434 0.930 . S
H422 C438 0.959 . S
H423 C438 0.959 . S
H424 C438 0.961 . S
H425 C439 0.960 . S
H426 C439 0.961 . S
H427 C439 0.959 . S
H428 C442 0.929 . S
H429 C443 0.931 . S
H430 C445 0.930 . S
C431 H419 0.930 . S
C431 C432 1.399 . S
C431 C436 1.399 . S
C432 C431 1.399 . S
C432 C433 1.376 . S
C433 H420 0.930 . S
C433 C432 1.376 . S
C433 C434 1.388 . S
C434 H421 0.930 . S
C434 C433 1.388 . S
C434 C435 1.390 . S
C435 C434 1.390 . S
C435 C436 1.394 . S
C435 C441 1.465 . S
C436 C431 1.399 . S
C436 C435 1.394 . S
C436 C437 1.516 . S
C437 C436 1.516 . S
C437 C438 1.502 . S
C437 C439 1.561 . S
C437 C440 1.526 . S
C438 H422 0.959 . S
C438 H423 0.959 . S
C438 H424 0.961 . S
C438 C437 1.502 . S
C439 H425 0.960 . S
C439 H426 0.961 . S
C439 H427 0.959 . S
C439 C437 1.561 . S
C440 C437 1.526 . S
C440 C441 1.396 . S
C440 C445 1.390 . S
C441 C435 1.465 . S
C441 C440 1.396 . S
C441 C442 1.399 . S
C442 H428 0.929 . S
C442 C441 1.399 . S
C442 C443 1.385 . S
C443 H429 0.931 . S
C443 C442 1.385 . S
C443 C444 1.389 . S
C444 C443 1.389 . S
C444 C445 1.387 . S
C445 H430 0.930 . S
C445 C440 1.390 . S
C445 C444 1.387 . S
H446 C458 0.930 . S
H447 C460 0.930 . S
H448 C461 0.930 . S
H449 C465 0.959 . S
H450 C465 0.959 . S
H451 C465 0.961 . S
H452 C466 0.960 . S
H453 C466 0.961 . S
H454 C466 0.959 . S
H455 C469 0.929 . S
H456 C470 0.931 . S
H457 C472 0.930 . S
C458 H446 0.930 . S
C458 C459 1.399 . S
C458 C463 1.399 . S
C459 C458 1.399 . S
C459 C460 1.376 . S
C460 H447 0.930 . S
C460 C459 1.376 . S
C460 C461 1.388 . S
C461 H448 0.930 . S
C461 C460 1.388 . S
C461 C462 1.390 . S
C462 C461 1.390 . S
C462 C463 1.394 . S
C462 C468 1.465 . S
C463 C458 1.399 . S
C463 C462 1.394 . S
C463 C464 1.516 . S
C464 C463 1.516 . S
C464 C465 1.502 . S
C464 C466 1.561 . S
C464 C467 1.526 . S
C465 H449 0.959 . S
C465 H450 0.959 . S
C465 H451 0.961 . S
C465 C464 1.502 . S
C466 H452 0.960 . S
C466 H453 0.961 . S
C466 H454 0.959 . S
C466 C464 1.561 . S
C467 C464 1.526 . S
C467 C468 1.396 . S
C467 C472 1.390 . S
C468 C462 1.465 . S
C468 C467 1.396 . S
C468 C469 1.399 . S
C469 H455 0.929 . S
C469 C468 1.399 . S
C469 C470 1.385 . S
C470 H456 0.931 . S
C470 C469 1.385 . S
C470 C471 1.389 . S
C471 C470 1.389 . S
C471 C472 1.387 . S
C472 H457 0.930 . S
C472 C467 1.390 . S
C472 C471 1.387 . S
H473 C485 0.930 . S
H474 C487 0.930 . S
H475 C488 0.930 . S
H476 C492 0.959 . S
H477 C492 0.959 . S
H478 C492 0.961 . S
H479 C493 0.960 . S
H480 C493 0.961 . S
H481 C493 0.959 . S
H482 C496 0.929 . S
H483 C497 0.931 . S
H484 C499 0.930 . S
C485 H473 0.930 . S
C485 C486 1.399 . S
C485 C490 1.399 . S
C486 C485 1.399 . S
C486 C487 1.376 . S
C487 H474 0.930 . S
C487 C486 1.376 . S
C487 C488 1.388 . S
C488 H475 0.930 . S
C488 C487 1.388 . S
C488 C489 1.390 . S
C489 C488 1.390 . S
C489 C490 1.394 . S
C489 C495 1.465 . S
C490 C485 1.399 . S
C490 C489 1.394 . S
C490 C491 1.516 . S
C491 C490 1.516 . S
C491 C492 1.502 . S
C491 C493 1.561 . S
C491 C494 1.526 . S
C492 H476 0.959 . S
C492 H477 0.959 . S
C492 H478 0.961 . S
C492 C491 1.502 . S
C493 H479 0.960 . S
C493 H480 0.961 . S
C493 H481 0.959 . S
C493 C491 1.561 . S
C494 C491 1.526 . S
C494 C495 1.396 . S
C494 C499 1.390 . S
C495 C489 1.465 . S
C495 C494 1.396 . S
C495 C496 1.399 . S
C496 H482 0.929 . S
C496 C495 1.399 . S
C496 C497 1.385 . S
C497 H483 0.931 . S
C497 C496 1.385 . S
C497 C498 1.389 . S
C498 C497 1.389 . S
C498 C499 1.387 . S
C499 H484 0.930 . S
C499 C494 1.390 . S
C499 C498 1.387 . S
H500 C512 0.930 . S
H501 C514 0.930 . S
H502 C515 0.930 . S
H503 C519 0.959 . S
H504 C519 0.959 1_565 S
H505 C519 0.961 . S
H506 C520 0.960 . S
H507 C520 0.961 1_565 S
H508 C520 0.959 . S
H509 C523 0.929 . S
H510 C524 0.927 1_565 S
H511 C526 0.930 . S
C512 H500 0.930 . S
C512 C513 1.399 . S
C512 C517 1.399 . S
C513 C512 1.399 . S
C513 C514 1.376 . S
C514 H501 0.930 . S
C514 C513 1.376 . S
C514 C515 1.388 . S
C515 H502 0.930 . S
C515 C514 1.388 . S
C515 C516 1.390 . S
C516 C515 1.390 . S
C516 C517 1.394 . S
C516 C522 1.465 . S
C517 C512 1.399 . S
C517 C516 1.394 . S
C517 C518 1.516 . S
C518 C517 1.516 . S
C518 C519 1.502 . S
C518 C520 1.561 . S
C518 C521 1.526 . S
C519 H503 0.959 . S
C519 H504 0.959 1_545 S
C519 H505 0.961 . S
C519 C518 1.502 . S
C520 H506 0.960 . S
C520 H507 0.961 1_545 S
C520 H508 0.959 . S
C520 C518 1.561 . S
C521 C518 1.526 . S
C521 C522 1.396 . S
C521 C526 1.390 1_545 S
C522 C516 1.465 . S
C522 C521 1.396 . S
C522 C523 1.399 . S
C523 H509 0.929 . S
C523 C522 1.399 . S
C523 C524 1.385 . S
C524 H510 0.927 1_545 S
C524 C523 1.385 . S
C524 C525 1.389 1_545 S
C525 C524 1.389 1_565 S
C525 C526 1.387 . S
C526 H511 0.930 . S
C526 C521 1.390 1_565 S
C526 C525 1.387 . S
H527 C539 0.930 . S
H528 C541 0.930 . S
H529 C542 0.930 . S
H530 C546 0.959 . S
H531 C546 0.967 . S
H532 C546 0.961 . S
H533 C547 0.960 . S
H534 C547 0.961 . S
H535 C547 0.959 . S
H536 C550 0.929 . S
H537 C551 0.931 . S
H538 C553 0.930 . S
C539 H527 0.930 . S
C539 C540 1.399 . S
C539 C544 1.399 . S
C540 C539 1.399 . S
C540 C541 1.376 . S
C541 H528 0.930 . S
C541 C540 1.376 . S
C541 C542 1.388 . S
C542 H529 0.930 . S
C542 C541 1.388 . S
C542 C543 1.390 . S
C543 C542 1.390 . S
C543 C544 1.394 . S
C543 C549 1.465 . S
C544 C539 1.399 . S
C544 C543 1.394 . S
C544 C545 1.516 . S
C545 C544 1.516 . S
C545 C546 1.502 . S
C545 C547 1.561 . S
C545 C548 1.526 . S
C546 H530 0.959 . S
C546 H531 0.967 . S
C546 H532 0.961 . S
C546 C545 1.502 . S
C547 H533 0.960 . S
C547 H534 0.961 . S
C547 H535 0.959 . S
C547 C545 1.561 . S
C548 C545 1.526 . S
C548 C549 1.396 . S
C548 C553 1.390 1_455 S
C549 C543 1.465 . S
C549 C548 1.396 . S
C549 C550 1.399 . S
C550 H536 0.929 . S
C550 C549 1.399 . S
C550 C551 1.385 1_455 S
C551 H537 0.931 . S
C551 C550 1.385 1_655 S
C551 C552 1.389 . S
C552 C551 1.389 . S
C552 C553 1.387 . S
C553 H538 0.930 . S
C553 C548 1.390 1_655 S
C553 C552 1.387 . S
H554 C566 0.930 . S
H555 C568 0.930 . S
H556 C569 0.930 . S
H557 C573 0.959 . S
H558 C573 0.959 . S
H559 C573 0.961 . S
H560 C574 0.960 . S
H561 C574 0.961 . S
H562 C574 0.959 . S
H563 C577 0.929 . S
H564 C578 0.931 . S
H565 C580 0.930 . S
C566 H554 0.930 . S
C566 C567 1.399 . S
C566 C571 1.399 . S
C567 C566 1.399 . S
C567 C568 1.376 . S
C568 H555 0.930 . S
C568 C567 1.376 . S
C568 C569 1.388 . S
C569 H556 0.930 . S
C569 C568 1.388 . S
C569 C570 1.390 . S
C570 C569 1.390 . S
C570 C571 1.394 . S
C570 C576 1.465 . S
C571 C566 1.399 . S
C571 C570 1.394 . S
C571 C572 1.516 . S
C572 C571 1.516 . S
C572 C573 1.502 . S
C572 C574 1.561 . S
C572 C575 1.526 . S
C573 H557 0.959 . S
C573 H558 0.959 . S
C573 H559 0.961 . S
C573 C572 1.502 . S
C574 H560 0.960 . S
C574 H561 0.961 . S
C574 H562 0.959 . S
C574 C572 1.561 . S
C575 C572 1.526 . S
C575 C576 1.396 . S
C575 C580 1.390 1_565 S
C576 C570 1.465 . S
C576 C575 1.396 . S
C576 C577 1.399 1_565 S
C577 H563 0.929 . S
C577 C576 1.399 1_545 S
C577 C578 1.385 . S
C578 H564 0.931 . S
C578 C577 1.385 . S
C578 C579 1.389 . S
C579 C578 1.389 . S
C579 C580 1.387 . S
C580 H565 0.930 . S
C580 C575 1.390 1_545 S
C580 C579 1.387 . S
H581 C593 0.930 . S
H582 C595 0.930 . S
H583 C596 0.930 . S
H584 C600 0.959 . S
H585 C600 0.959 . S
H586 C600 0.961 . S
H587 C601 0.960 . S
H588 C601 0.961 . S
H589 C601 0.959 . S
H590 C604 0.929 . S
H591 C605 0.931 . S
H592 C607 0.930 . S
C593 H581 0.930 . S
C593 C594 1.399 . S
C593 C598 1.399 1_455 S
C594 C593 1.399 . S
C594 C595 1.376 . S
C595 H582 0.930 . S
C595 C594 1.376 . S
C595 C596 1.388 . S
C596 H583 0.930 . S
C596 C595 1.388 . S
C596 C597 1.390 1_455 S
C597 C596 1.390 1_655 S
C597 C598 1.394 . S
C597 C603 1.465 . S
C598 C593 1.399 1_655 S
C598 C597 1.394 . S
C598 C599 1.516 . S
C599 C598 1.516 . S
C599 C600 1.502 . S
C599 C601 1.561 . S
C599 C602 1.526 . S
C600 H584 0.959 . S
C600 H585 0.959 . S
C600 H586 0.961 . S
C600 C599 1.502 . S
C601 H587 0.960 . S
C601 H588 0.961 . S
C601 H589 0.959 . S
C601 C599 1.561 . S
C602 C599 1.526 . S
C602 C603 1.396 . S
C602 C607 1.390 . S
C603 C597 1.465 . S
C603 C602 1.396 . S
C603 C604 1.399 . S
C604 H590 0.929 . S
C604 C603 1.399 . S
C604 C605 1.385 . S
C605 H591 0.931 . S
C605 C604 1.385 . S
C605 C606 1.389 . S
C606 C605 1.389 . S
C606 C607 1.387 . S
C607 H592 0.930 . S
C607 C602 1.390 . S
C607 C606 1.387 . S
H608 C620 0.930 . S
H609 C622 0.930 1_556 S
H610 C623 0.930 . S
H611 C627 0.959 . S
H612 C627 0.959 . S
H613 C627 0.961 . S
H614 C628 0.960 . S
H615 C628 0.961 . S
H616 C628 0.959 . S
H617 C631 0.929 . S
H618 C632 0.931 . S
H619 C634 0.930 . S
C620 H608 0.930 . S
C620 C621 1.399 . S
C620 C625 1.399 . S
C621 C620 1.399 . S
C621 C622 1.376 . S
C622 H609 0.930 1_554 S
C622 C621 1.376 . S
C622 C623 1.388 . S
C623 H610 0.930 . S
C623 C622 1.388 . S
C623 C624 1.390 . S
C624 C623 1.390 . S
C624 C625 1.394 . S
C624 C630 1.465 . S
C625 C620 1.399 . S
C625 C624 1.394 . S
C625 C626 1.516 . S
C626 C625 1.516 . S
C626 C627 1.502 . S
C626 C628 1.561 . S
C626 C629 1.526 . S
C627 H611 0.959 . S
C627 H612 0.959 . S
C627 H613 0.961 . S
C627 C626 1.502 . S
C628 H614 0.960 . S
C628 H615 0.961 . S
C628 H616 0.959 . S
C628 C626 1.561 . S
C629 C626 1.526 . S
C629 C630 1.396 . S
C629 C634 1.390 . S
C630 C624 1.465 . S
C630 C629 1.396 . S
C630 C631 1.399 . S
C631 H617 0.929 . S
C631 C630 1.399 . S
C631 C632 1.385 . S
C632 H618 0.931 . S
C632 C631 1.385 . S
C632 C633 1.389 . S
C633 C632 1.389 . S
C633 C634 1.387 . S
C634 H619 0.930 . S
C634 C629 1.390 . S
C634 C633 1.387 . S
H635 C647 0.930 . S
H636 C649 0.930 1_554 S
H637 C650 0.930 . S
H638 C654 0.959 . S
H639 C654 0.959 . S
H640 C654 0.961 . S
H641 C655 0.960 . S
H642 C655 0.961 . S
H643 C655 0.959 . S
H644 C658 0.929 . S
H645 C659 0.931 . S
H646 C661 0.930 . S
C647 H635 0.930 . S
C647 C648 1.399 . S
C647 C652 1.399 . S
C648 C647 1.399 . S
C648 C649 1.376 . S
C649 H636 0.930 1_556 S
C649 C648 1.376 . S
C649 C650 1.388 . S
C650 H637 0.930 . S
C650 C649 1.388 . S
C650 C651 1.390 . S
C651 C650 1.390 . S
C651 C652 1.394 . S
C651 C657 1.465 . S
C652 C647 1.399 . S
C652 C651 1.394 . S
C652 C653 1.516 . S
C653 C652 1.516 . S
C653 C654 1.502 . S
C653 C655 1.561 . S
C653 C656 1.526 . S
C654 H638 0.959 . S
C654 H639 0.959 . S
C654 H640 0.961 . S
C654 C653 1.502 . S
C655 H641 0.960 . S
C655 H642 0.961 . S
C655 H643 0.959 . S
C655 C653 1.561 . S
C656 C653 1.526 . S
C656 C657 1.396 . S
C656 C661 1.390 . S
C657 C651 1.465 . S
C657 C656 1.396 . S
C657 C658 1.399 . S
C658 H644 0.929 . S
C658 C657 1.399 . S
C658 C659 1.385 . S
C659 H645 0.931 . S
C659 C658 1.385 . S
C659 C660 1.389 . S
C660 C659 1.389 . S
C660 C661 1.387 . S
C661 H646 0.930 . S
C661 C656 1.390 . S
C661 C660 1.387 . S
H662 C674 0.930 . S
H663 C676 0.930 . S
H664 C677 0.930 . S
H665 C681 0.959 . S
H666 C681 0.959 . S
H667 C681 0.961 . S
H668 C682 0.960 . S
H669 C682 0.961 . S
H670 C682 0.959 . S
H671 C685 0.929 . S
H672 C686 0.911 1_556 S
H673 C688 0.930 . S
C674 H662 0.930 . S
C674 C675 1.399 . S
C674 C679 1.399 . S
C675 C674 1.399 . S
C675 C676 1.376 . S
C676 H663 0.930 . S
C676 C675 1.376 . S
C676 C677 1.388 . S
C677 H664 0.930 . S
C677 C676 1.388 . S
C677 C678 1.390 . S
C678 C677 1.390 . S
C678 C679 1.394 . S
C678 C684 1.465 . S
C679 C674 1.399 . S
C679 C678 1.394 . S
C679 C680 1.516 . S
C680 C679 1.516 . S
C680 C681 1.502 . S
C680 C682 1.561 . S
C680 C683 1.526 . S
C681 H665 0.959 . S
C681 H666 0.959 . S
C681 H667 0.961 . S
C681 C680 1.502 . S
C682 H668 0.960 . S
C682 H669 0.961 . S
C682 H670 0.959 . S
C682 C680 1.561 . S
C683 C680 1.526 . S
C683 C684 1.396 . S
C683 C688 1.390 . S
C684 C678 1.465 . S
C684 C683 1.396 . S
C684 C685 1.399 . S
C685 H671 0.929 . S
C685 C684 1.399 . S
C685 C686 1.397 . S
C686 H672 0.911 1_554 S
C686 C685 1.397 . S
C686 C687 1.396 . S
C687 C686 1.396 . S
C687 C688 1.387 . S
C688 H673 0.930 . S
C688 C683 1.390 . S
C688 C687 1.387 . S
H689 C701 0.930 . S
H690 C703 0.930 . S
H691 C704 0.930 . S
H692 C708 0.959 . S
H693 C708 0.959 . S
H694 C708 0.961 . S
H695 C709 0.960 . S
H696 C709 0.961 . S
H697 C709 0.959 . S
H698 C712 0.929 . S
H699 C713 0.931 . S
H700 C715 0.930 . S
C701 H689 0.930 . S
C701 C702 1.399 . S
C701 C706 1.399 . S
C702 C701 1.399 . S
C702 C703 1.376 . S
C703 H690 0.930 . S
C703 C702 1.376 . S
C703 C704 1.388 . S
C704 H691 0.930 . S
C704 C703 1.388 . S
C704 C705 1.390 . S
C705 C704 1.390 . S
C705 C706 1.394 . S
C705 C711 1.465 . S
C706 C701 1.399 . S
C706 C705 1.394 . S
C706 C707 1.516 . S
C707 C706 1.516 . S
C707 C708 1.502 . S
C707 C709 1.561 . S
C707 C710 1.526 . S
C708 H692 0.959 . S
C708 H693 0.959 . S
C708 H694 0.961 . S
C708 C707 1.502 . S
C709 H695 0.960 . S
C709 H696 0.961 . S
C709 H697 0.959 . S
C709 C707 1.561 . S
C710 C707 1.526 . S
C710 C711 1.396 . S
C710 C715 1.390 . S
C711 C705 1.465 . S
C711 C710 1.396 . S
C711 C712 1.399 . S
C712 H698 0.929 . S
C712 C711 1.399 . S
C712 C713 1.385 . S
C713 H699 0.931 . S
C713 C712 1.385 . S
C713 C714 1.389 . S
C714 C713 1.389 . S
C714 C715 1.387 . S
C715 H700 0.930 . S
C715 C710 1.390 . S
C715 C714 1.387 . S
H716 C728 0.930 . S
H717 C730 0.930 . S
H718 C731 0.930 . S
H719 C735 0.959 . S
H720 C735 0.959 . S
H721 C735 0.961 . S
H722 C736 0.960 . S
H723 C736 0.961 . S
H724 C736 0.959 . S
H725 C739 0.929 . S
H726 C740 0.931 . S
H727 C742 0.930 . S
C728 H716 0.930 . S
C728 C729 1.399 . S
C728 C733 1.399 . S
C729 C728 1.399 . S
C729 C730 1.376 . S
C730 H717 0.930 . S
C730 C729 1.376 . S
C730 C731 1.388 . S
C731 H718 0.930 . S
C731 C730 1.388 . S
C731 C732 1.390 . S
C732 C731 1.390 . S
C732 C733 1.394 . S
C732 C738 1.465 . S
C733 C728 1.399 . S
C733 C732 1.394 . S
C733 C734 1.516 . S
C734 C733 1.516 . S
C734 C735 1.502 . S
C734 C736 1.561 . S
C734 C737 1.526 . S
C735 H719 0.959 . S
C735 H720 0.959 . S
C735 H721 0.961 . S
C735 C734 1.502 . S
C736 H722 0.960 . S
C736 H723 0.961 . S
C736 H724 0.959 . S
C736 C734 1.561 . S
C737 C734 1.526 . S
C737 C738 1.396 . S
C737 C742 1.390 . S
C738 C732 1.465 . S
C738 C737 1.396 . S
C738 C739 1.399 . S
C739 H725 0.929 . S
C739 C738 1.399 . S
C739 C740 1.385 . S
C740 H726 0.931 . S
C740 C739 1.385 . S
C740 C741 1.389 . S
C741 C740 1.389 . S
C741 C742 1.387 . S
C742 H727 0.930 . S
C742 C737 1.390 . S
C742 C741 1.387 . S
H743 C755 0.930 . S
H744 C757 0.930 . S
H745 C758 0.930 . S
H746 C762 0.959 . S
H747 C762 0.959 . S
H748 C762 0.961 . S
H749 C763 0.960 . S
H750 C763 0.961 . S
H751 C763 0.959 . S
H752 C766 0.929 . S
H753 C767 0.931 . S
H754 C769 0.930 . S
C755 H743 0.930 . S
C755 C756 1.399 . S
C755 C760 1.399 . S
C756 C755 1.399 . S
C756 C757 1.376 . S
C757 H744 0.930 . S
C757 C756 1.376 . S
C757 C758 1.388 . S
C758 H745 0.930 . S
C758 C757 1.388 . S
C758 C759 1.390 . S
C759 C758 1.390 . S
C759 C760 1.394 . S
C759 C765 1.465 . S
C760 C755 1.399 . S
C760 C759 1.394 . S
C760 C761 1.516 . S
C761 C760 1.516 . S
C761 C762 1.502 . S
C761 C763 1.561 . S
C761 C764 1.526 . S
C762 H746 0.959 . S
C762 H747 0.959 . S
C762 H748 0.961 . S
C762 C761 1.502 . S
C763 H749 0.960 . S
C763 H750 0.961 . S
C763 H751 0.959 . S
C763 C761 1.561 . S
C764 C761 1.526 . S
C764 C765 1.396 . S
C764 C769 1.390 . S
C765 C759 1.465 . S
C765 C764 1.396 . S
C765 C766 1.399 . S
C766 H752 0.929 . S
C766 C765 1.399 . S
C766 C767 1.385 . S
C767 H753 0.931 . S
C767 C766 1.385 . S
C767 C768 1.389 . S
C768 C767 1.389 . S
C768 C769 1.387 . S
C769 H754 0.930 . S
C769 C764 1.390 . S
C769 C768 1.387 . S
H770 C782 0.930 . S
H771 C784 0.930 . S
H772 C785 0.930 . S
H773 C789 0.959 . S
H774 C789 0.959 . S
H775 C789 0.961 . S
H776 C790 0.960 . S
H777 C790 0.961 . S
H778 C790 0.959 . S
H779 C793 0.929 . S
H780 C794 0.931 . S
H781 C796 0.930 . S
C782 H770 0.930 . S
C782 C783 1.399 . S
C782 C787 1.399 . S
C783 C782 1.399 . S
C783 C784 1.376 . S
C784 H771 0.930 . S
C784 C783 1.376 . S
C784 C785 1.388 . S
C785 H772 0.930 . S
C785 C784 1.388 . S
C785 C786 1.390 . S
C786 C785 1.390 . S
C786 C787 1.394 . S
C786 C792 1.465 . S
C787 C782 1.399 . S
C787 C786 1.394 . S
C787 C788 1.516 . S
C788 C787 1.516 . S
C788 C789 1.502 . S
C788 C790 1.561 . S
C788 C791 1.526 . S
C789 H773 0.959 . S
C789 H774 0.959 . S
C789 H775 0.961 . S
C789 C788 1.502 . S
C790 H776 0.960 . S
C790 H777 0.961 . S
C790 H778 0.959 . S
C790 C788 1.561 . S
C791 C788 1.526 . S
C791 C792 1.396 . S
C791 C796 1.390 . S
C792 C786 1.465 . S
C792 C791 1.396 . S
C792 C793 1.399 . S
C793 H779 0.929 . S
C793 C792 1.399 . S
C793 C794 1.385 . S
C794 H780 0.931 . S
C794 C793 1.385 . S
C794 C795 1.389 . S
C795 C794 1.389 . S
C795 C796 1.387 . S
C796 H781 0.930 . S
C796 C791 1.390 . S
C796 C795 1.387 . S
H797 C809 0.930 . S
H798 C811 0.930 . S
H799 C812 0.930 . S
H800 C816 0.959 . S
H801 C816 0.959 . S
H802 C816 0.961 . S
H803 C817 0.960 . S
H804 C817 0.961 . S
H805 C817 0.959 . S
H806 C820 0.929 . S
H807 C821 0.931 . S
H808 C823 0.930 . S
C809 H797 0.930 . S
C809 C810 1.399 . S
C809 C814 1.399 . S
C810 C809 1.399 . S
C810 C811 1.376 . S
C811 H798 0.930 . S
C811 C810 1.376 . S
C811 C812 1.388 . S
C812 H799 0.930 . S
C812 C811 1.388 . S
C812 C813 1.390 . S
C813 C812 1.390 . S
C813 C814 1.394 . S
C813 C819 1.465 . S
C814 C809 1.399 . S
C814 C813 1.394 . S
C814 C815 1.516 . S
C815 C814 1.516 . S
C815 C816 1.502 . S
C815 C817 1.561 . S
C815 C818 1.526 . S
C816 H800 0.959 . S
C816 H801 0.959 . S
C816 H802 0.961 . S
C816 C815 1.502 . S
C817 H803 0.960 . S
C817 H804 0.961 . S
C817 H805 0.959 . S
C817 C815 1.561 . S
C818 C815 1.526 . S
C818 C819 1.396 . S
C818 C823 1.390 . S
C819 C813 1.465 . S
C819 C818 1.396 . S
C819 C820 1.399 . S
C820 H806 0.929 . S
C820 C819 1.399 . S
C820 C821 1.385 . S
C821 H807 0.931 . S
C821 C820 1.385 . S
C821 C822 1.389 . S
C822 C821 1.389 . S
C822 C823 1.387 . S
C823 H808 0.930 . S
C823 C818 1.390 . S
C823 C822 1.387 . S
C189 C10 1.183 . S
C201 C128 1.212 . S
C216 C37 1.205 . S
C228 C150 1.255 . S
C243 C59 1.262 . S
C255 C175 1.289 . S
C270 C103 1.201 . S
C282 C84 1.169 . S
C297 C131 1.199 . S
C309 C96 1.222 . S
C324 C147 1.275 . S
C336 C125 1.214 . S
C351 C172 1.254 . S
C363 C153 1.215 . S
C378 C164 1.167 . S
C390 C106 1.156 . S
C405 C140 1.193 . S
C417 C74 1.156 . S
C432 C169 1.202 . S
C444 C8 1.247 . S
C459 C43 1.284 . S
C471 C109 1.272 . S
C486 C51 1.201 . S
C498 C120 1.169 . S
C513 C81 1.214 . S
C525 C54 1.180 . S
C540 C7 1.278 . S
C552 C73 1.216 . S
C567 C40 1.235 . S
C579 C15 1.276 . S
C594 C32 1.200 . S
C606 C52 1.166 . S
C621 C98 1.138 1_554 S
C633 C18 1.174 . S
C648 C117 1.184 1_556 S
C660 C29 1.243 . S
C675 C65 1.239 . S
C687 C139 1.183 1_554 S
C702 C76 1.145 . S
C714 C162 1.166 1_556 S
C729 C62 1.125 . S
C741 C142 1.172 . S
C756 C87 1.246 . S
C768 C161 1.184 . S
C783 C95 1.246 . S
C795 C21 1.182 . S
C810 C118 1.129 . S
C822 C30 1.176 . S
