# Generated by pormake.
# Topology smk, (6)-cn, num edge types: 1
# Building blocks:
#     Node 0, Type 0, BuildingBlock: JUFBIX_clean_sbu_0, # of connection points: 6
#     Node 1, Type 0, BuildingBlock: JUFBIX_clean_sbu_0, # of connection points: 6
#     Node 2, Type 0, BuildingBlock: JUFBIX_clean_sbu_0, # of connection points: 6
#     Node 3, Type 0, BuildingBlock: JUFBIX_clean_sbu_0, # of connection points: 6
#     Node 4, Type 0, BuildingBlock: JUFBIX_clean_sbu_0, # of connection points: 6
#     Node 5, Type 0, BuildingBlock: JUFBIX_clean_sbu_0, # of connection points: 6
#     Edge 6, Type (0, 0), BuildingBlock: XUDNAN_clean_linker_2, # of connection points: 2
#     Edge 7, Type (0, 0), BuildingBlock: XUDNAN_clean_linker_2, # of connection points: 2
#     Edge 8, Type (0, 0), BuildingBlock: XUDNAN_clean_linker_2, # of connection points: 2
#     Edge 9, Type (0, 0), BuildingBlock: XUDNAN_clean_linker_2, # of connection points: 2
#     Edge 10, Type (0, 0), BuildingBlock: XUDNAN_clean_linker_2, # of connection points: 2
#     Edge 11, Type (0, 0), BuildingBlock: XUDNAN_clean_linker_2, # of connection points: 2
#     Edge 12, Type (0, 0), BuildingBlock: XUDNAN_clean_linker_2, # of connection points: 2
#     Edge 13, Type (0, 0), BuildingBlock: XUDNAN_clean_linker_2, # of connection points: 2
#     Edge 14, Type (0, 0), BuildingBlock: XUDNAN_clean_linker_2, # of connection points: 2
#     Edge 15, Type (0, 0), BuildingBlock: XUDNAN_clean_linker_2, # of connection points: 2
#     Edge 16, Type (0, 0), BuildingBlock: XUDNAN_clean_linker_2, # of connection points: 2
#     Edge 17, Type (0, 0), BuildingBlock: XUDNAN_clean_linker_2, # of connection points: 2
#     Edge 18, Type (0, 0), BuildingBlock: XUDNAN_clean_linker_2, # of connection points: 2
#     Edge 19, Type (0, 0), BuildingBlock: XUDNAN_clean_linker_2, # of connection points: 2
#     Edge 20, Type (0, 0), BuildingBlock: XUDNAN_clean_linker_2, # of connection points: 2
#     Edge 21, Type (0, 0), BuildingBlock: XUDNAN_clean_linker_2, # of connection points: 2
#     Edge 22, Type (0, 0), BuildingBlock: XUDNAN_clean_linker_2, # of connection points: 2
#     Edge 23, Type (0, 0), BuildingBlock: XUDNAN_clean_linker_2, # of connection points: 2
# Relax obj value: 0.367
# Max RMSD: 0.250
# Mean RMSD: 0.250
data_MOF--net-smk--node1-JUFBIX_clean_sbu_0--edge1-XUDNAN_clean_linker_2
_symmetry_space_group_name_H-M    P1
_symmetry_Int_Tables_number       1
_symmetry_cell_setting            triclinic
loop_
_symmetry_equiv_pos_as_xyz
'x, y, z'
_cell_length_a     45.495383
_cell_length_b     45.634726
_cell_length_c     14.806019
_cell_angle_alpha  89.792642
_cell_angle_beta   90.380287
_cell_angle_gamma 119.92298
loop_
_atom_site_label
_atom_site_type_symbol
_atom_site_fract_x
_atom_site_fract_y
_atom_site_fract_z
_atom_type_partial_charge
Co0 Co 0.41963 0.19202 0.52824 0.0
C1 C 0.40133 0.12344 0.53384 0.0
Co2 Co 0.46312 0.18269 0.52732 0.0
C3 C 0.38121 0.22511 0.57009 0.0
C4 C 0.3516 0.17953 0.49504 0.0
N5 N 0.3827 0.19911 0.53118 0.0
N6 N 0.35046 0.22253 0.55978 0.0
C7 C 0.33172 0.19376 0.51281 0.0
H8 H 0.40223 0.24541 0.60618 0.0
H9 H 0.34392 0.15648 0.45761 0.0
C10 C 0.48153 0.25091 0.51583 0.0
N11 N 0.50137 0.17732 0.52466 0.0
C12 C 0.51661 0.16989 0.59287 0.0
C13 C 0.52394 0.18761 0.45637 0.0
N14 N 0.54781 0.17583 0.57 0.0
C15 C 0.55239 0.18681 0.48407 0.0
C16 C 0.43792 0.18318 0.35776 0.0
O17 O 0.44978 0.23949 0.52145 0.0
O18 O 0.49263 0.23032 0.51874 0.0
O19 O 0.45975 0.17968 0.40264 0.0
O20 O 0.41743 0.18987 0.39859 0.0
O21 O 0.43328 0.13497 0.53398 0.0
H22 H 0.52115 0.19756 0.39252 0.0
H23 H 0.50637 0.16293 0.66024 0.0
O24 O 0.39016 0.14411 0.53336 0.0
O25 O 0.42185 0.19358 0.65773 0.0
O26 O 0.46526 0.18515 0.65239 0.0
C27 C 0.44406 0.18911 0.69813 0.0
H28 H 0.30572 0.18406 0.49114 0.0
H29 H 0.57545 0.19539 0.44571 0.0
Co30 Co 0.20154 0.40981 0.78006 0.0
C31 C 0.13141 0.3859 0.77372 0.0
Co32 Co 0.18748 0.44983 0.77531 0.0
C33 C 0.2372 0.37296 0.74635 0.0
C34 C 0.19459 0.34595 0.83349 0.0
N35 N 0.21192 0.37519 0.78741 0.0
N36 N 0.23616 0.34338 0.76451 0.0
C37 C 0.20933 0.32635 0.81937 0.0
H38 H 0.25555 0.39237 0.70235 0.0
H39 H 0.17248 0.33921 0.87436 0.0
C40 C 0.25711 0.47426 0.78676 0.0
N41 N 0.17758 0.48458 0.7641 0.0
C42 C 0.19377 0.51113 0.70758 0.0
C43 C 0.15237 0.48811 0.7998 0.0
N44 N 0.17965 0.5311 0.7051 0.0
C45 C 0.15359 0.51668 0.76379 0.0
C46 C 0.19079 0.4292 0.94763 0.0
O47 O 0.24888 0.4432 0.78835 0.0
O48 O 0.2341 0.4821 0.77933 0.0
O49 O 0.18564 0.45065 0.90532 0.0
O50 O 0.19855 0.41015 0.90419 0.0
O51 O 0.14076 0.4172 0.77255 0.0
H52 H 0.13371 0.47054 0.8467 0.0
H53 H 0.21536 0.51523 0.66796 0.0
O54 O 0.15388 0.37701 0.77404 0.0
O55 O 0.20397 0.40922 0.65486 0.0
O56 O 0.18898 0.44796 0.64632 0.0
C57 C 0.19659 0.42786 0.60757 0.0
H58 H 0.2011 0.30161 0.84801 0.0
H59 H 0.13591 0.52538 0.77795 0.0
Co60 Co 0.81562 0.2115 0.87013 0.0
C61 C 0.88481 0.25829 0.87216 0.0
Co62 Co 0.82717 0.26489 0.86893 0.0
C63 C 0.78188 0.13979 0.91637 0.0
C64 C 0.82311 0.15449 0.82478 0.0
N65 N 0.80597 0.16669 0.87047 0.0
N66 N 0.78353 0.11138 0.90154 0.0
C67 C 0.8095 0.12065 0.84388 0.0
H68 H 0.76386 0.14119 0.96099 0.0
H69 H 0.84427 0.1693 0.78046 0.0
C70 C 0.75839 0.21875 0.86055 0.0
N71 N 0.83791 0.31006 0.86908 0.0
C72 C 0.82786 0.32662 0.92565 0.0
C73 C 0.86181 0.3345 0.81682 0.0
N74 N 0.84502 0.3604 0.91132 0.0
C75 C 0.86628 0.36534 0.84269 0.0
C76 C 0.82394 0.23957 0.69943 0.0
O77 O 0.76824 0.19711 0.86629 0.0
O78 O 0.78021 0.25016 0.86238 0.0
O79 O 0.82878 0.26518 0.74438 0.0
O80 O 0.81666 0.21218 0.74025 0.0
O81 O 0.87414 0.27924 0.87334 0.0
H82 H 0.8762 0.33033 0.76567 0.0
H83 H 0.80973 0.31442 -0.02056 0.0
O84 O 0.86334 0.2268 0.87242 0.0
O85 O 0.81524 0.21178 -0.00028 0.0
O86 O 0.82593 0.2643 -0.00638 0.0
C87 C 0.82121 0.23887 0.03964 0.0
H88 H 0.81778 0.10405 0.81635 0.0
H89 H 0.88437 0.38967 0.81463 0.0
Co90 Co 0.60349 0.77688 0.12648 0.0
C91 C 0.61671 0.72398 0.13262 0.0
Co92 Co 0.55649 0.72682 0.12567 0.0
C93 C 0.64335 0.84841 0.09123 0.0
C94 C 0.67212 0.83106 0.16592 0.0
N95 N 0.64138 0.8203 0.12795 0.0
N96 N 0.67388 0.87626 0.10503 0.0
C97 C 0.6922 0.8654 0.15159 0.0
H98 H 0.62275 0.84845 0.05439 0.0
H99 H 0.67936 0.81508 0.20267 0.0
C100 C 0.54212 0.77839 0.12867 0.0
N101 N 0.51824 0.68405 0.12091 0.0
C102 C 0.4937 0.67293 0.05709 0.0
C103 C 0.50951 0.65711 0.17475 0.0
N104 N 0.46995 0.64004 0.06802 0.0
C105 C 0.47987 0.63006 0.14257 0.0
C106 C 0.58053 0.75137 0.2962 0.0
O107 O 0.57433 0.79625 0.12768 0.0
O108 O 0.52844 0.74646 0.12487 0.0
O109 O 0.55604 0.72654 0.25551 0.0
O110 O 0.60299 0.77591 0.25101 0.0
O111 O 0.58449 0.70723 0.12918 0.0
H112 H 0.52401 0.65699 0.23282 0.0
H113 H 0.49391 0.68871 0.00223 0.0
O114 O 0.63181 0.75617 0.12822 0.0
O115 O 0.60433 0.77765 0.00181 0.0
O116 O 0.5583 0.72791 -0.00406 0.0
C117 C 0.58232 0.75305 0.9559 0.0
H118 H 0.71792 0.88128 0.17564 0.0
H119 H 0.46681 0.60507 0.17215 0.0
Co120 Co 0.7944 0.58719 0.19216 0.0
C121 C 0.74367 0.60315 0.20728 0.0
Co122 Co 0.74329 0.54137 0.19424 0.0
C123 C 0.86672 0.62545 0.2296 0.0
C124 C 0.84961 0.65468 0.15629 0.0
N125 N 0.83863 0.62384 0.19277 0.0
N126 N 0.89473 0.65606 0.21779 0.0
C127 C 0.88396 0.67452 0.17185 0.0
H128 H 0.86654 0.60463 0.26532 0.0
H129 H 0.8337 0.66221 0.12016 0.0
C130 C 0.79259 0.52439 0.17625 0.0
N131 N 0.69887 0.50517 0.1946 0.0
C132 C 0.68299 0.47951 0.25447 0.0
C133 C 0.67387 0.50278 0.14007 0.0
N134 N 0.64914 0.46182 0.23999 0.0
C135 C 0.64339 0.47634 0.16794 0.0
C136 C 0.76644 0.56577 0.02295 0.0
O137 O 0.81166 0.55638 0.18228 0.0
O138 O 0.76063 0.5117 0.18131 0.0
O139 O 0.74185 0.54406 0.0694 0.0
O140 O 0.79281 0.58864 0.06269 0.0
O141 O 0.72603 0.57111 0.20676 0.0
H142 H 0.67727 0.52038 0.08655 0.0
H143 H 0.69559 0.47525 0.31105 0.0
O144 O 0.77578 0.6172 0.20053 0.0
O145 O 0.7956 0.58489 0.32208 0.0
O146 O 0.7456 0.53887 0.31843 0.0
C147 C 0.771 0.5605 0.3631 0.0
H148 H 0.89987 0.70034 0.14943 0.0
H149 H 0.61868 0.4691 0.13964 0.0
Co150 Co 0.23366 0.80747 0.4389 0.0
C151 C 0.27965 0.87675 0.43799 0.0
Co152 Co 0.28751 0.81998 0.43645 0.0
C153 C 0.16109 0.77155 0.39753 0.0
C154 C 0.17587 0.81384 0.48538 0.0
N155 N 0.18832 0.79679 0.44037 0.0
N156 N 0.13225 0.7724 0.4136 0.0
C157 C 0.14159 0.79905 0.46888 0.0
H158 H 0.16253 0.75323 0.35432 0.0
H159 H 0.19081 0.83568 0.52766 0.0
C160 C 0.24234 0.7512 0.44294 0.0
N161 N 0.33294 0.83126 0.43438 0.0
C162 C 0.34906 0.82087 0.37731 0.0
C163 C 0.35785 0.85528 0.48572 0.0
N164 N 0.38304 0.83795 0.39019 0.0
C165 C 0.38857 0.85952 0.45858 0.0
C166 C 0.26215 0.81368 0.60794 0.0
O167 O 0.2202 0.7605 0.44498 0.0
O168 O 0.27357 0.7733 0.43603 0.0
O169 O 0.28787 0.81935 0.56184 0.0
O170 O 0.23526 0.80894 0.56809 0.0
O171 O 0.30113 0.8667 0.43788 0.0
H172 H 0.35402 0.86967 0.53757 0.0
H173 H 0.33632 0.8023 0.32461 0.0
O174 O 0.24818 0.85488 0.43524 0.0
O175 O 0.23271 0.8056 0.30884 0.0
O176 O 0.28653 0.8199 0.31197 0.0
C177 C 0.25967 0.81178 0.26748 0.0
H178 H 0.12475 0.80701 0.4967 0.0
H179 H 0.41318 0.8775 0.48607 0.0
H180 H 0.41409 0.20864 0.22321 0.0
H181 H 0.45817 0.1446 0.27202 0.0
H182 H 0.46114 0.13749 0.10931 0.0
H183 H 0.36429 0.16246 0.01894 0.0
H184 H 0.37229 0.20063 0.96153 0.0
H185 H 0.37024 0.19854 0.08312 0.0
H186 H 0.42993 0.25173 0.09258 0.0
H187 H 0.43232 0.25381 0.97117 0.0
H188 H 0.46495 0.25182 0.03601 0.0
H189 H 0.46511 0.1411 0.94765 0.0
H190 H 0.46654 0.15229 0.78573 0.0
H191 H 0.41898 0.21319 0.83153 0.0
C192 C 0.4237 0.19265 0.19915 0.0
C193 C 0.43607 0.17732 0.25993 0.0
C194 C 0.44889 0.15687 0.22655 0.0
C195 C 0.45055 0.1525 0.13424 0.0
C196 C 0.43917 0.16862 0.07597 0.0
C197 C 0.4257 0.18804 0.10616 0.0
C198 C 0.41702 0.20375 0.02708 0.0
C199 C 0.37867 0.19055 0.0224 0.0
C200 C 0.43727 0.24258 0.03204 0.0
C201 C 0.42856 0.19064 0.94866 0.0
C202 C 0.44113 0.17039 -0.02059 0.0
C203 C 0.45502 0.15657 0.92219 0.0
C204 C 0.45601 0.16341 0.83034 0.0
C205 C 0.44306 0.18378 0.79624 0.0
C206 C 0.42887 0.1974 0.85603 0.0
H207 H 0.20242 0.47342 0.47547 0.0
H208 H 0.18277 0.37096 0.51877 0.0
H209 H 0.17447 0.36011 0.35595 0.0
H210 H 0.14315 0.45479 0.28747 0.0
H211 H 0.17106 0.49249 0.22509 0.0
H212 H 0.17342 0.49244 0.34669 0.0
H213 H 0.23735 0.51163 0.33865 0.0
H214 H 0.23528 0.51198 0.21717 0.0
H215 H 0.25088 0.48726 0.27322 0.0
H216 H 0.16888 0.35944 0.19428 0.0
H217 H 0.17208 0.37047 0.03209 0.0
H218 H 0.19784 0.47437 0.08354 0.0
C219 C 0.19621 0.44874 0.4502 0.0
C220 C 0.19315 0.42296 0.50936 0.0
C221 C 0.18544 0.39108 0.47446 0.0
C222 C 0.18037 0.38455 0.38222 0.0
C223 C 0.18346 0.41028 0.32568 0.0
C224 C 0.19165 0.44189 0.35733 0.0
C225 C 0.19569 0.46546 0.2796 0.0
C226 C 0.16925 0.47697 0.28507 0.0
C227 C 0.23196 0.49588 0.27702 0.0
C228 C 0.18875 0.44202 0.19976 0.0
C229 C 0.18127 0.41025 0.22908 0.0
C230 C 0.17474 0.38416 0.17008 0.0
C231 C 0.17679 0.39082 0.07802 0.0
C232 C 0.18557 0.4234 0.04539 0.0
C233 C 0.1909 0.44924 0.1069 0.0
H234 H 0.79605 0.18995 0.1741 0.0
H235 H 0.85906 0.29791 0.12586 0.0
H236 H 0.86924 0.30783 0.28806 0.0
H237 H 0.75634 0.19846 0.37127 0.0
H238 H 0.75508 0.16348 0.43159 0.0
H239 H 0.75448 0.1635 0.30995 0.0
H240 H 0.80718 0.15581 0.30806 0.0
H241 H 0.80795 0.1558 0.42982 0.0
H242 H 0.84504 0.18547 0.36804 0.0
H243 H 0.871 0.30785 0.44982 0.0
H244 H 0.86272 0.29819 0.61242 0.0
H245 H 0.79798 0.19034 0.566 0.0
C246 C 0.81221 0.21552 0.19815 0.0
C247 C 0.82669 0.24316 0.13764 0.0
C248 C 0.84744 0.27638 0.17106 0.0
C249 C 0.85364 0.28232 0.26307 0.0
C250 C 0.83884 0.25482 0.32105 0.0
C251 C 0.81844 0.22208 0.2909 0.0
C252 C 0.80418 0.19773 0.37 0.0
C253 C 0.76521 0.17974 0.37072 0.0
C254 C 0.81686 0.17219 0.36889 0.0
C255 C 0.81944 0.22221 0.44855 0.0
C256 C 0.83957 0.25488 0.41771 0.0
C257 C 0.85548 0.28242 0.4753 0.0
C258 C 0.85041 0.27662 0.56756 0.0
C259 C 0.82954 0.24354 0.60158 0.0
C260 C 0.81423 0.21581 0.5415 0.0
H261 H 0.53305 0.71745 0.43063 0.0
H262 H 0.64043 0.78546 0.38236 0.0
H263 H 0.65168 0.78936 0.54465 0.0
H264 H 0.5279 0.75996 0.62434 0.0
H265 H 0.49916 0.72251 0.68636 0.0
H266 H 0.49886 0.72186 0.56474 0.0
H267 H 0.50892 0.67078 0.56684 0.0
H268 H 0.50913 0.6712 0.68862 0.0
H269 H 0.54467 0.67382 0.62838 0.0
H270 H 0.65207 0.79063 0.70639 0.0
H271 H 0.64169 0.78797 0.86892 0.0
H272 H 0.53429 0.71861 0.82254 0.0
C273 C 0.55888 0.73272 0.45469 0.0
C274 C 0.5858 0.75134 0.39413 0.0
C275 C 0.61931 0.77132 0.42758 0.0
C276 C 0.62609 0.77356 0.51967 0.0
C277 C 0.59913 0.75562 0.57776 0.0
C278 C 0.5662 0.73546 0.54755 0.0
C279 C 0.54206 0.72052 0.62671 0.0
C280 C 0.51542 0.73191 0.62543 0.0
C281 C 0.5252 0.68177 0.62768 0.0
C282 C 0.56669 0.73621 0.70522 0.0
C283 C 0.59942 0.75615 0.67443 0.0
C284 C 0.62666 0.77485 0.7319 0.0
C285 C 0.62042 0.77333 0.82405 0.0
C286 C 0.58719 0.75315 0.85802 0.0
C287 C 0.55995 0.73399 0.79805 0.0
H288 H 0.8063 0.60848 0.49559 0.0
H289 H 0.73559 0.50159 0.45201 0.0
H290 H 0.7297 0.49228 0.61524 0.0
H291 H 0.84674 0.59686 0.70233 0.0
H292 H 0.85055 0.63382 0.75709 0.0
H293 H 0.85219 0.63235 0.63565 0.0
H294 H 0.80296 0.64527 0.62346 0.0
H295 H 0.80092 0.64643 0.74473 0.0
H296 H 0.7636 0.61823 0.68053 0.0
H297 H 0.72605 0.49429 0.77654 0.0
H298 H 0.72817 0.50658 0.93758 0.0
H299 H 0.80252 0.61201 0.88722 0.0
C300 C 0.79018 0.5831 0.52089 0.0
C301 C 0.77124 0.55578 0.46131 0.0
C302 C 0.75005 0.52294 0.4964 0.0
C303 C 0.74661 0.51731 0.58906 0.0
C304 C 0.76467 0.54473 0.64601 0.0
C305 C 0.78634 0.57693 0.61424 0.0
C306 C 0.80134 0.60185 0.69208 0.0
C307 C 0.84001 0.61712 0.69707 0.0
C308 C 0.79161 0.62958 0.68473 0.0
C309 C 0.78394 0.57855 0.77164 0.0
C310 C 0.76298 0.54578 0.74246 0.0
C311 C 0.74265 0.51971 0.80079 0.0
C312 C 0.74386 0.52711 0.89218 0.0
C313 C 0.76544 0.56031 0.92487 0.0
C314 C 0.78596 0.58642 0.8639 0.0
H315 H 0.22049 0.8178 0.13193 0.0
H316 H 0.30044 0.79398 0.18321 0.0
H317 H 0.30622 0.78851 0.02109 0.0
H318 H 0.18346 0.76118 0.93232 0.0
H319 H 0.17508 0.79066 0.87208 0.0
H320 H 0.17424 0.78965 -0.00619 0.0
H321 H 0.21862 0.85356 -0.00203 0.0
H322 H 0.21976 0.85471 0.87642 0.0
H323 H 0.25838 0.86872 0.94017 0.0
H324 H 0.30805 0.79053 0.85909 0.0
H325 H 0.3043 0.79789 0.69645 0.0
H326 H 0.22271 0.81967 0.74032 0.0
C327 C 0.23872 0.81089 0.10855 0.0
C328 C 0.26019 0.80656 0.16985 0.0
C329 C 0.28405 0.79786 0.13734 0.0
C330 C 0.28741 0.79444 0.04536 0.0
C331 C 0.26666 0.79969 -0.01353 0.0
C332 C 0.24263 0.80753 0.01584 0.0
C333 C 0.22521 0.81367 0.93606 0.0
C334 C 0.18724 0.7872 0.93343 0.0
C335 C 0.23084 0.84982 0.93779 0.0
C336 C 0.24397 0.80885 0.85823 0.0
C337 C 0.26756 0.80061 0.88978 0.0
C338 C 0.28944 0.79659 0.83299 0.0
C339 C 0.28725 0.8011 0.74076 0.0
C340 C 0.26328 0.80944 0.70601 0.0
C341 C 0.24108 0.81306 0.76535 0.0
H342 H 0.41609 0.07206 0.51516 0.0
H343 H 0.33189 0.09114 0.53415 0.0
H344 H 0.29168 0.03046 0.50976 0.0
H345 H 0.38106 1.01073 0.33943 0.0
H346 H 0.39705 0.98453 0.38394 0.0
H347 H 0.41936 0.02927 0.40653 0.0
H348 H 0.4156 1.01749 0.57862 0.0
H349 H 0.39359 0.97271 0.5565 0.0
H350 H 0.37479 0.99047 0.62894 0.0
H351 H 0.26042 0.96759 0.47849 0.0
H352 H 0.24073 0.90717 0.45035 0.0
H353 H 0.34527 0.92924 0.45105 0.0
C354 C 0.38919 0.06346 0.51527 0.0
C355 C 0.37723 0.08649 0.52692 0.0
C356 C 0.34177 0.07409 0.52572 0.0
C357 C 0.31867 0.03962 0.51164 0.0
C358 C 0.33132 1.01773 0.49886 0.0
C359 C 0.36574 0.02911 0.50118 0.0
C360 C 0.37274 1.00038 0.48461 0.0
C361 C 0.3938 1.00661 0.3985 0.0
C362 C 0.3902 0.99495 0.56709 0.0
C363 C 0.33691 0.97112 0.47234 0.0
C364 C 0.31337 0.98164 0.48066 0.0
C365 C 0.27865 0.95907 0.47199 0.0
C366 C 0.2677 0.9248 0.45565 0.0
C367 C 0.29138 0.91336 0.44813 0.0
C368 C 0.32645 0.93707 0.45599 0.0
H369 H 0.28729 0.20774 0.61165 0.0
H370 H 0.39 0.29061 0.57634 0.0
H371 H 0.37191 0.33104 0.6244 0.0
H372 H 0.24431 0.25077 0.5313 0.0
H373 H 0.21071 0.23166 0.61303 0.0
H374 H 0.23187 0.20941 0.57603 0.0
H375 H 0.24658 0.20358 0.74209 0.0
H376 H 0.22543 0.22577 0.77961 0.0
H377 H 0.26902 0.24093 0.81095 0.0
H378 H 0.34178 0.36265 0.67191 0.0
H379 H 0.30298 0.38233 0.72416 0.0
H380 H 0.22039 0.27857 0.73105 0.0
C381 C 0.30593 0.2344 0.61362 0.0
C382 C 0.34007 0.24602 0.58999 0.0
C383 C 0.36381 0.2811 0.5949 0.0
C384 C 0.35371 0.30426 0.62161 0.0
C385 C 0.31981 0.29195 0.64401 0.0
C386 C 0.29635 0.25779 0.64104 0.0
C387 C 0.26162 0.25099 0.67007 0.0
C388 C 0.2356 0.23475 0.593 0.0
C389 C 0.24999 0.22902 0.75578 0.0
C390 C 0.26911 0.28666 0.68924 0.0
C391 C 0.30275 0.30998 0.67332 0.0
C392 C 0.31541 0.34457 0.68487 0.0
C393 C 0.29316 0.35555 0.71405 0.0
C394 C 0.25868 0.33203 0.73209 0.0
C395 C 0.24668 0.29715 0.71913 0.0
H396 H 0.93589 0.32394 0.85464 0.0
H397 H 0.91713 0.22094 0.86627 0.0
H398 H 0.97811 0.24201 0.83947 0.0
H399 H 0.99606 0.3519 0.67653 0.0
H400 H 1.02211 0.39369 0.72257 0.0
H401 H 0.97736 0.37059 0.746 0.0
H402 H 0.98996 0.37728 0.91796 0.0
H403 H 1.03474 0.4007 0.89509 0.0
H404 H 1.01769 0.36365 0.96588 0.0
H405 H 0.04166 0.2749 0.80855 0.0
H406 H 0.10206 0.31666 0.78178 0.0
H407 H 0.07805 0.39753 0.78799 0.0
C408 C 0.94456 0.30574 0.85254 0.0
C409 C 0.92167 0.27074 0.86308 0.0
C410 C 0.93416 0.24787 0.85891 0.0
C411 C 0.96875 0.2596 0.8434 0.0
C412 C 0.99051 0.29425 0.83199 0.0
C413 C 0.97885 0.31696 0.8368 0.0
C414 C 1.00719 0.35286 0.82126 0.0
C415 C 1.00025 0.36815 0.73655 0.0
C416 C 1.01272 0.37491 0.90505 0.0
C417 C 1.03671 0.34691 0.80699 0.0
C418 C 1.02666 0.31297 0.81332 0.0
C419 C 0.04975 0.30153 0.80339 0.0
C420 C 0.084 0.32543 0.78788 0.0
C421 C 0.09487 0.3604 0.78228 0.0
C422 C 0.07065 0.37102 0.79121 0.0
H423 H 0.73709 0.92589 0.05734 0.0
H424 H 0.63372 0.90443 0.09339 0.0
H425 H 0.65085 0.96305 0.0491 0.0
H426 H 0.77891 1.01193 0.14055 0.0
H427 H 0.81243 0.02714 0.0584 0.0
H428 H 0.79216 0.98376 0.09527 0.0
H429 H 0.77755 0.96367 0.92919 0.0
H430 H 0.7978 1.00697 0.89185 0.0
H431 H 0.75433 0.97813 0.86092 0.0
H432 H 0.67967 0.02467 0.00223 0.0
H433 H 0.71707 0.08296 0.94696 0.0
H434 H 0.80123 0.06375 0.93827 0.0
C435 C 0.71816 0.93364 0.0566 0.0
C436 C 0.68406 0.91055 0.07898 0.0
C437 C 0.6599 0.92153 0.07572 0.0
C438 C 0.66944 0.95487 0.0512 0.0
C439 C 0.70325 0.97697 0.02944 0.0
C440 C 0.72719 0.96673 0.03126 0.0
C441 C 0.7616 0.99511 0.00189 0.0
C442 C 0.78782 1.00507 0.07861 0.0
C443 C 0.7735 0.98538 0.91585 0.0
C444 C 0.75328 1.02287 -0.01676 0.0
C445 C 0.71958 1.01204 0.00033 0.0
C446 C 0.70611 0.03339 -0.01144 0.0
C447 C 0.72757 0.06652 0.95764 0.0
C448 C 0.76204 0.07793 0.93791 0.0
C449 C 0.77492 0.0557 0.95161 0.0
H450 H 0.75692 0.66427 0.12848 0.0
H451 H 0.68873 0.58456 0.30983 0.0
H452 H 0.65217 0.60981 0.31657 0.0
H453 H 0.74526 0.73315 0.23134 0.0
H454 H 0.74615 0.75198 0.12344 0.0
H455 H 0.76985 0.73038 0.14022 0.0
H456 H 0.73908 0.69197 0.00307 0.0
H457 H 0.71506 0.71318 -0.01359 0.0
H458 H 0.69338 0.66795 0.00104 0.0
H459 H 0.61954 0.6379 0.29184 0.0
H460 H 0.59301 0.67084 0.24453 0.0
H461 H 0.68085 0.73534 0.08059 0.0
C462 C 0.73482 0.65286 0.17152 0.0
C463 C 0.72575 0.62251 0.21918 0.0
C464 C 0.69617 0.60776 0.27291 0.0
C465 C 0.67523 0.62194 0.27731 0.0
C466 C 0.68406 0.65106 0.22764 0.0
C467 C 0.71322 0.66676 0.17639 0.0
C468 C 0.71507 0.69681 0.12562 0.0
C469 C 0.74592 0.73006 0.15704 0.0
C470 C 0.71568 0.69219 0.02294 0.0
C471 C 0.682 0.69475 0.1548 0.0
C472 C 0.66482 0.66808 0.2139 0.0
C473 C 0.63289 0.65917 0.24665 0.0
C474 C 0.61791 0.67794 0.21865 0.0
C475 C 0.63476 0.70565 0.15875 0.0
C476 C 0.66753 0.71449 0.1271 0.0
H477 H 0.94356 0.71951 0.26591 0.0
H478 H 0.92403 0.61691 0.23402 0.0
H479 H 0.98334 0.63557 0.27849 0.0
H480 H 1.02866 0.76191 0.18022 0.0
H481 H 0.04387 0.7961 0.26044 0.0
H482 H 1.00002 0.77456 0.22576 0.0
H483 H 0.98146 0.76125 0.39296 0.0
H484 H 1.02525 0.78282 0.42816 0.0
H485 H 0.9975 0.7396 0.46182 0.0
H486 H 0.04599 0.66638 0.32283 0.0
H487 H 0.10484 0.70565 0.37333 0.0
H488 H 0.08258 0.78759 0.37858 0.0
C489 C 0.95179 0.70099 0.26777 0.0
C490 C 0.92911 0.66673 0.2461 0.0
C491 C 0.94081 0.6432 0.25099 0.0
C492 C 0.97453 0.65363 0.27564 0.0
C493 C 0.99627 0.68765 0.29603 0.0
C494 C 0.98522 0.7109 0.2931 0.0
C495 C 1.01331 0.74582 0.3201 0.0
C496 C 1.02197 0.77108 0.24196 0.0
C497 C 1.0038 0.75808 0.40586 0.0
C498 C 0.04196 0.73868 0.33833 0.0
C499 C 1.03178 0.70506 0.32348 0.0
C500 C 0.05414 0.69273 0.33487 0.0
C501 C 0.0876 0.71525 0.36305 0.0
C502 C 0.09837 0.74969 0.38037 0.0
C503 C 0.07509 0.76137 0.36717 0.0
H504 H 0.54912 0.28163 0.47247 0.0
H505 H 0.4664 0.30191 0.51133 0.0
H506 H 0.503 0.36043 0.45841 0.0
H507 H 0.61919 0.36756 0.5361 0.0
H508 H 0.64693 0.36687 0.45083 0.0
H509 H 0.61582 0.32799 0.50316 0.0
H510 H 0.59151 0.30291 0.3455 0.0
H511 H 0.62228 0.34169 0.29269 0.0
H512 H 0.57771 0.32508 0.27097 0.0
H513 H 0.54535 0.41369 0.38322 0.0
H514 H 0.59193 0.45947 0.29654 0.0
H515 H 0.6482 0.40603 0.30851 0.0
C516 C 0.53897 0.29864 0.47223 0.0
C517 C 0.50488 0.28719 0.49655 0.0
C518 C 0.49242 0.31009 0.49349 0.0
C519 C 0.51305 0.34342 0.46359 0.0
C520 C 0.54618 0.35358 0.43762 0.0
C521 C 0.55925 0.33203 0.44252 0.0
C522 C 0.59487 0.34856 0.4043 0.0
C523 C 0.62073 0.35301 0.47801 0.0
C524 C 0.59667 0.32836 0.32358 0.0
C525 C 0.59938 0.38239 0.37456 0.0
C526 C 0.57101 0.38476 0.39504 0.0
C527 C 0.56792 0.41238 0.36826 0.0
C528 C 0.59435 0.43813 0.31866 0.0
C529 C 0.62358 0.43623 0.29657 0.0
C530 C 0.62636 0.40827 0.32622 0.0
H531 H 0.1607 0.57931 0.72105 0.0
H532 H 0.22166 0.55066 0.55855 0.0
H533 H 0.24124 0.60202 0.46815 0.0
H534 H 0.13527 0.61454 0.53229 0.0
H535 H 0.13696 0.64808 0.60011 0.0
H536 H 0.12658 0.60822 0.65157 0.0
H537 H 0.17576 0.63932 0.76655 0.0
H538 H 0.18622 0.6792 0.71561 0.0
H539 H 0.2181 0.66691 0.72573 0.0
H540 H 0.25876 0.65913 0.40376 0.0
H541 H 0.27015 0.71671 0.3655 0.0
H542 H 0.19434 0.70637 0.5586 0.0
C543 C 0.17776 0.58339 0.66585 0.0
C544 C 0.1898 0.56066 0.64877 0.0
C545 C 0.21242 0.56761 0.57558 0.0
C546 C 0.22356 0.59675 0.52271 0.0
C547 C 0.21153 0.61866 0.54228 0.0
C548 C 0.18883 0.6122 0.61136 0.0
C549 C 0.18035 0.6403 0.61907 0.0
C550 C 0.14254 0.62698 0.59958 0.0
C551 C 0.19074 0.65744 0.71226 0.0
C552 C 0.20239 0.66384 0.54479 0.0
C553 C 0.22025 0.65089 0.50149 0.0
C554 C 0.24439 0.66924 0.43576 0.0
C555 C 0.25071 0.70186 0.41446 0.0
C556 C 0.23257 0.71551 0.45763 0.0
C557 C 0.20775 0.69602 0.52256 0.0
H558 H 0.73474 0.25266 0.76063 0.0
H559 H 0.70156 0.1592 0.90805 0.0
H560 H 0.64229 0.13926 0.85876 0.0
H561 H 0.6596 0.26115 0.79276 0.0
H562 H 0.66134 0.2763 0.67922 0.0
H563 H 0.69982 0.2846 0.73637 0.0
H564 H 0.71409 0.25683 0.60407 0.0
H565 H 0.67559 0.24822 0.54685 0.0
H566 H 0.68379 0.21419 0.57085 0.0
H567 H 0.58639 0.12928 0.78775 0.0
H568 H 0.54078 0.12827 0.69177 0.0
H569 H 0.6128 0.22614 0.58225 0.0
C570 C 0.71487 0.22837 0.78461 0.0
C571 C 0.72252 0.20774 0.83977 0.0
C572 C 0.69606 0.17555 0.86677 0.0
C573 C 0.66238 0.16408 0.83916 0.0
C574 C 0.65578 0.18489 0.78336 0.0
C575 C 0.68146 0.21626 0.75586 0.0
C576 C 0.66866 0.23246 0.68882 0.0
C577 C 0.67258 0.26559 0.72659 0.0
C578 C 0.6866 0.23825 0.59725 0.0
C579 C 0.63177 0.20532 0.68229 0.0
C580 C 0.62454 0.17829 0.73839 0.0
C581 C 0.59187 0.15031 0.7435 0.0
C582 C 0.56615 0.1499 0.68911 0.0
C583 C 0.57353 0.1769 0.62922 0.0
C584 C 0.60669 0.20496 0.62662 0.0
H585 H 0.43012 0.57083 0.0632 0.0
H586 H 0.44232 0.66317 0.94186 0.0
H587 H 0.39337 0.62954 0.84367 0.0
H588 H 0.40092 0.51828 0.86016 0.0
H589 H 0.37028 0.48124 0.92034 0.0
H590 H 0.4085 0.51219 -0.02344 0.0
H591 H 0.37273 0.51866 0.10217 0.0
H592 H 0.33451 0.48752 0.04685 0.0
H593 H 0.34039 0.52877 0.0714 0.0
H594 H 0.34085 0.58703 0.7664 0.0
H595 H 0.28615 0.5381 0.72087 0.0
H596 H 0.30658 0.47261 0.89088 0.0
C597 C 0.42274 0.58415 0.01604 0.0
C598 C 0.44082 0.61997 0.01044 0.0
C599 C 0.4298 0.63596 0.94711 0.0
C600 C 0.40179 0.61701 0.89072 0.0
C601 C 0.38476 0.58195 0.89801 0.0
C602 C 0.39462 0.5656 0.95931 0.0
C603 C 0.37041 0.52768 0.9574 0.0
C604 C 0.38863 0.50874 0.92678 0.0
C605 C 0.35351 0.51492 0.04994 0.0
C606 C 0.34505 0.52544 0.88675 0.0
C607 C 0.35411 0.55709 0.85285 0.0
C608 C 0.33369 0.56206 0.79147 0.0
C609 C 0.3027 0.53412 0.76594 0.0
C610 C 0.29241 0.50157 0.80141 0.0
C611 C 0.31427 0.49706 0.86088 0.0
H612 H 0.75847 0.45666 0.13395 0.0
H613 H 0.85979 0.54295 0.16634 0.0
H614 H 0.8841 0.50843 0.11295 0.0
H615 H 0.77969 0.39089 0.19989 0.0
H616 H 0.7513 0.36138 0.11684 0.0
H617 H 0.74191 0.39174 0.16677 0.0
H618 H 0.73821 0.41326 0.00736 0.0
H619 H 0.74779 0.38319 0.95692 0.0
H620 H 0.77367 0.42758 0.93175 0.0
H621 H 0.89726 0.46682 0.04139 0.0
H622 H 0.89854 0.42007 0.96153 0.0
H623 H 0.78903 0.36001 -0.0231 0.0
C624 C 0.78581 0.46811 0.13185 0.0
C625 C 0.80723 0.50255 0.15489 0.0
C626 C 0.84284 0.51665 0.14954 0.0
C627 C 0.85691 0.49722 0.1193 0.0
C628 C 0.83507 0.46363 0.09509 0.0
C629 C 0.80029 0.44906 0.10174 0.0
C630 C 0.78245 0.41302 0.06631 0.0
C631 C 0.76267 0.38777 0.14198 0.0
C632 C 0.75917 0.40905 -0.01419 0.0
C633 C 0.81262 0.40987 0.03681 0.0
C634 C 0.84271 0.43936 0.05443 0.0
C635 C 0.8739 0.44347 0.02835 0.0
C636 C 0.87437 0.41689 -0.01745 0.0
C637 C 0.84392 0.38646 0.96338 0.0
C638 C 0.81269 0.38279 -0.00787 0.0
H639 H 0.47385 0.74661 0.16453 0.0
H640 H 0.563 0.84601 0.13645 0.0
H641 H 0.52993 0.87218 0.18823 0.0
H642 H 0.41008 0.77137 0.09767 0.0
H643 H 0.37991 0.74345 0.17971 0.0
H644 H 0.40928 0.73278 0.12907 0.0
H645 H 0.43012 0.72743 0.28819 0.0
H646 H 0.40113 0.73838 0.33934 0.0
H647 H 0.44579 0.76265 0.36519 0.0
H648 H 0.48961 0.88715 0.26059 0.0
H649 H 0.44392 0.89013 0.34169 0.0
H650 H 0.38036 0.78132 0.32199 0.0
C651 C 0.48621 0.77394 0.16678 0.0
C652 C 0.52105 0.79427 0.14579 0.0
C653 C 0.53636 0.8299 0.15156 0.0
C654 C 0.51775 0.84501 0.18097 0.0
C655 C 0.48379 0.82419 0.20386 0.0
C656 C 0.46801 0.78943 0.19617 0.0
C657 C 0.43191 0.77272 0.23116 0.0
C658 C 0.40628 0.75397 0.15483 0.0
C659 C 0.42697 0.7489 0.31068 0.0
C660 C 0.43013 0.80346 0.26198 0.0
C661 C 0.46031 0.83288 0.24512 0.0
C662 C 0.46572 0.86433 0.27292 0.0
C663 C 0.43973 0.86575 0.31952 0.0
C664 C 0.40862 0.83598 0.33786 0.0
C665 C 0.40366 0.8045 0.30746 0.0
loop_
_geom_bond_atom_site_label_1
_geom_bond_atom_site_label_2
_geom_bond_distance
_geom_bond_site_symmetry_2
_ccdc_geom_bond_type
Co0 N5 2.057 . S
Co0 O17 2.021 . S
Co0 O20 2.062 . S
Co0 O24 2.117 . S
Co0 O25 2.020 . S
C1 O21 1.259 . S
C1 O24 1.258 . S
Co2 N11 2.057 . S
Co2 O18 2.117 . S
Co2 O19 2.020 . S
Co2 O21 2.021 . S
Co2 O26 2.062 . S
C3 N5 1.316 . S
C3 N6 1.347 . S
C3 H8 0.931 . S
C4 N5 1.375 . S
C4 C7 1.350 . S
C4 H9 0.930 . S
N5 Co0 2.057 . S
N5 C3 1.316 . S
N5 C4 1.375 . S
N6 C3 1.347 . S
N6 C7 1.373 . S
C7 C4 1.350 . S
C7 N6 1.373 . S
C7 H28 0.931 . S
H8 C3 0.931 . S
H9 C4 0.930 . S
C10 O17 1.259 . S
C10 O18 1.258 . S
N11 Co2 2.057 . S
N11 C12 1.316 . S
N11 C13 1.375 . S
C12 N11 1.316 . S
C12 N14 1.347 . S
C12 H23 0.931 . S
C13 N11 1.375 . S
C13 C15 1.350 . S
C13 H22 0.930 . S
N14 C12 1.347 . S
N14 C15 1.373 . S
C15 C13 1.350 . S
C15 N14 1.373 . S
C15 H29 0.931 . S
C16 O19 1.256 . S
C16 O20 1.255 . S
O17 Co0 2.021 . S
O17 C10 1.259 . S
O18 Co2 2.117 . S
O18 C10 1.258 . S
O19 Co2 2.020 . S
O19 C16 1.256 . S
O20 Co0 2.062 . S
O20 C16 1.255 . S
O21 C1 1.259 . S
O21 Co2 2.021 . S
H22 C13 0.930 . S
H23 C12 0.931 . S
O24 Co0 2.117 . S
O24 C1 1.258 . S
O25 Co0 2.020 . S
O25 C27 1.256 . S
O26 Co2 2.062 . S
O26 C27 1.255 . S
C27 O25 1.256 . S
C27 O26 1.255 . S
H28 C7 0.931 . S
H29 C15 0.931 . S
Co30 N35 2.057 . S
Co30 O47 2.021 . S
Co30 O50 2.062 . S
Co30 O54 2.117 . S
Co30 O55 2.020 . S
C31 O51 1.259 . S
C31 O54 1.258 . S
Co32 N41 2.057 . S
Co32 O48 2.117 . S
Co32 O49 2.020 . S
Co32 O51 2.021 . S
Co32 O56 2.062 . S
C33 N35 1.316 . S
C33 N36 1.347 . S
C33 H38 0.931 . S
C34 N35 1.375 . S
C34 C37 1.350 . S
C34 H39 0.930 . S
N35 Co30 2.057 . S
N35 C33 1.316 . S
N35 C34 1.375 . S
N36 C33 1.347 . S
N36 C37 1.373 . S
C37 C34 1.350 . S
C37 N36 1.373 . S
C37 H58 0.931 . S
H38 C33 0.931 . S
H39 C34 0.930 . S
C40 O47 1.259 . S
C40 O48 1.258 . S
N41 Co32 2.057 . S
N41 C42 1.316 . S
N41 C43 1.375 . S
C42 N41 1.316 . S
C42 N44 1.347 . S
C42 H53 0.931 . S
C43 N41 1.375 . S
C43 C45 1.350 . S
C43 H52 0.930 . S
N44 C42 1.347 . S
N44 C45 1.373 . S
C45 C43 1.350 . S
C45 N44 1.373 . S
C45 H59 0.931 . S
C46 O49 1.256 . S
C46 O50 1.255 . S
O47 Co30 2.021 . S
O47 C40 1.259 . S
O48 Co32 2.117 . S
O48 C40 1.258 . S
O49 Co32 2.020 . S
O49 C46 1.256 . S
O50 Co30 2.062 . S
O50 C46 1.255 . S
O51 C31 1.259 . S
O51 Co32 2.021 . S
H52 C43 0.930 . S
H53 C42 0.931 . S
O54 Co30 2.117 . S
O54 C31 1.258 . S
O55 Co30 2.020 . S
O55 C57 1.256 . S
O56 Co32 2.062 . S
O56 C57 1.255 . S
C57 O55 1.256 . S
C57 O56 1.255 . S
H58 C37 0.931 . S
H59 C45 0.931 . S
Co60 N65 2.057 . S
Co60 O77 2.021 . S
Co60 O80 2.062 . S
Co60 O84 2.117 . S
Co60 O85 2.020 1_556 S
C61 O81 1.259 . S
C61 O84 1.258 . S
Co62 N71 2.057 . S
Co62 O78 2.117 . S
Co62 O79 2.020 . S
Co62 O81 2.021 . S
Co62 O86 2.062 1_556 S
C63 N65 1.316 . S
C63 N66 1.347 . S
C63 H68 0.931 . S
C64 N65 1.375 . S
C64 C67 1.350 . S
C64 H69 0.930 . S
N65 Co60 2.057 . S
N65 C63 1.316 . S
N65 C64 1.375 . S
N66 C63 1.347 . S
N66 C67 1.373 . S
C67 C64 1.350 . S
C67 N66 1.373 . S
C67 H88 0.931 . S
H68 C63 0.931 . S
H69 C64 0.930 . S
C70 O77 1.259 . S
C70 O78 1.258 . S
N71 Co62 2.057 . S
N71 C72 1.316 1_556 S
N71 C73 1.375 . S
C72 N71 1.316 1_554 S
C72 N74 1.347 . S
C72 H83 0.931 . S
C73 N71 1.375 . S
C73 C75 1.349 1_556 S
C73 H82 0.930 . S
N74 C72 1.347 . S
N74 C75 1.375 . S
C75 C73 1.349 1_554 S
C75 N74 1.375 . S
C75 H89 0.931 . S
C76 O79 1.256 . S
C76 O80 1.255 . S
O77 Co60 2.021 . S
O77 C70 1.259 . S
O78 Co62 2.117 . S
O78 C70 1.258 . S
O79 Co62 2.020 . S
O79 C76 1.256 . S
O80 Co60 2.062 . S
O80 C76 1.255 . S
O81 C61 1.259 . S
O81 Co62 2.021 . S
H82 C73 0.930 . S
H83 C72 0.931 . S
O84 Co60 2.117 . S
O84 C61 1.258 . S
O85 Co60 2.020 1_554 S
O85 C87 1.256 . S
O86 Co62 2.062 1_554 S
O86 C87 1.255 . S
C87 O85 1.256 . S
C87 O86 1.255 . S
H88 C67 0.931 . S
H89 C75 0.931 . S
Co90 N95 2.057 . S
Co90 O107 2.021 . S
Co90 O110 2.062 . S
Co90 O114 2.117 . S
Co90 O115 2.020 1_554 S
C91 O111 1.259 . S
C91 O114 1.258 . S
Co92 N101 2.057 . S
Co92 O108 2.117 . S
Co92 O109 2.020 . S
Co92 O111 2.021 . S
Co92 O116 2.062 1_554 S
C93 N95 1.316 . S
C93 N96 1.347 . S
C93 H98 0.931 . S
C94 N95 1.375 . S
C94 C97 1.350 . S
C94 H99 0.930 . S
N95 Co90 2.057 . S
N95 C93 1.316 . S
N95 C94 1.375 . S
N96 C93 1.347 . S
N96 C97 1.373 . S
C97 C94 1.350 . S
C97 N96 1.373 . S
C97 H118 0.931 . S
H98 C93 0.931 . S
H99 C94 0.930 . S
C100 O107 1.259 . S
C100 O108 1.258 . S
N101 Co92 2.057 . S
N101 C102 1.316 . S
N101 C103 1.375 . S
C102 N101 1.316 . S
C102 N104 1.347 . S
C102 H113 0.931 . S
C103 N101 1.375 . S
C103 C105 1.350 . S
C103 H112 0.930 . S
N104 C102 1.347 . S
N104 C105 1.373 . S
C105 C103 1.350 . S
C105 N104 1.373 . S
C105 H119 0.931 . S
C106 O109 1.256 . S
C106 O110 1.255 . S
O107 Co90 2.021 . S
O107 C100 1.259 . S
O108 Co92 2.117 . S
O108 C100 1.258 . S
O109 Co92 2.020 . S
O109 C106 1.256 . S
O110 Co90 2.062 . S
O110 C106 1.255 . S
O111 C91 1.259 . S
O111 Co92 2.021 . S
H112 C103 0.930 . S
H113 C102 0.931 . S
O114 Co90 2.117 . S
O114 C91 1.258 . S
O115 Co90 2.020 1_556 S
O115 C117 1.256 . S
O116 Co92 2.062 1_556 S
O116 C117 1.255 . S
C117 O115 1.256 . S
C117 O116 1.255 . S
H118 C97 0.931 . S
H119 C105 0.931 . S
Co120 N125 2.057 . S
Co120 O137 2.021 . S
Co120 O140 2.062 . S
Co120 O144 2.117 . S
Co120 O145 2.020 . S
C121 O141 1.259 . S
C121 O144 1.258 . S
Co122 N131 2.057 . S
Co122 O138 2.117 . S
Co122 O139 2.020 . S
Co122 O141 2.021 . S
Co122 O146 2.062 . S
C123 N125 1.316 . S
C123 N126 1.347 . S
C123 H128 0.931 . S
C124 N125 1.375 . S
C124 C127 1.350 . S
C124 H129 0.930 . S
N125 Co120 2.057 . S
N125 C123 1.316 . S
N125 C124 1.375 . S
N126 C123 1.347 . S
N126 C127 1.373 . S
C127 C124 1.350 . S
C127 N126 1.373 . S
C127 H148 0.931 . S
H128 C123 0.931 . S
H129 C124 0.930 . S
C130 O137 1.259 . S
C130 O138 1.258 . S
N131 Co122 2.057 . S
N131 C132 1.316 . S
N131 C133 1.375 . S
C132 N131 1.316 . S
C132 N134 1.347 . S
C132 H143 0.931 . S
C133 N131 1.375 . S
C133 C135 1.350 . S
C133 H142 0.930 . S
N134 C132 1.347 . S
N134 C135 1.373 . S
C135 C133 1.350 . S
C135 N134 1.373 . S
C135 H149 0.931 . S
C136 O139 1.256 . S
C136 O140 1.255 . S
O137 Co120 2.021 . S
O137 C130 1.259 . S
O138 Co122 2.117 . S
O138 C130 1.258 . S
O139 Co122 2.020 . S
O139 C136 1.256 . S
O140 Co120 2.062 . S
O140 C136 1.255 . S
O141 C121 1.259 . S
O141 Co122 2.021 . S
H142 C133 0.930 . S
H143 C132 0.931 . S
O144 Co120 2.117 . S
O144 C121 1.258 . S
O145 Co120 2.020 . S
O145 C147 1.256 . S
O146 Co122 2.062 . S
O146 C147 1.255 . S
C147 O145 1.256 . S
C147 O146 1.255 . S
H148 C127 0.931 . S
H149 C135 0.931 . S
Co150 N155 2.057 . S
Co150 O167 2.021 . S
Co150 O170 2.062 . S
Co150 O174 2.117 . S
Co150 O175 2.020 . S
C151 O171 1.259 . S
C151 O174 1.258 . S
Co152 N161 2.057 . S
Co152 O168 2.117 . S
Co152 O169 2.020 . S
Co152 O171 2.021 . S
Co152 O176 2.062 . S
C153 N155 1.316 . S
C153 N156 1.347 . S
C153 H158 0.931 . S
C154 N155 1.375 . S
C154 C157 1.350 . S
C154 H159 0.930 . S
N155 Co150 2.057 . S
N155 C153 1.316 . S
N155 C154 1.375 . S
N156 C153 1.347 . S
N156 C157 1.373 . S
C157 C154 1.350 . S
C157 N156 1.373 . S
C157 H178 0.931 . S
H158 C153 0.931 . S
H159 C154 0.930 . S
C160 O167 1.259 . S
C160 O168 1.258 . S
N161 Co152 2.057 . S
N161 C162 1.316 . S
N161 C163 1.375 . S
C162 N161 1.316 . S
C162 N164 1.347 . S
C162 H173 0.931 . S
C163 N161 1.375 . S
C163 C165 1.350 . S
C163 H172 0.930 . S
N164 C162 1.347 . S
N164 C165 1.373 . S
C165 C163 1.350 . S
C165 N164 1.373 . S
C165 H179 0.931 . S
C166 O169 1.256 . S
C166 O170 1.255 . S
O167 Co150 2.021 . S
O167 C160 1.259 . S
O168 Co152 2.117 . S
O168 C160 1.258 . S
O169 Co152 2.020 . S
O169 C166 1.256 . S
O170 Co150 2.062 . S
O170 C166 1.255 . S
O171 C151 1.259 . S
O171 Co152 2.021 . S
H172 C163 0.930 . S
H173 C162 0.931 . S
O174 Co150 2.117 . S
O174 C151 1.258 . S
O175 Co150 2.020 . S
O175 C177 1.256 . S
O176 Co152 2.062 . S
O176 C177 1.255 . S
C177 O175 1.256 . S
C177 O176 1.255 . S
H178 C157 0.931 . S
H179 C165 0.931 . S
H180 C192 0.930 . S
H181 C194 0.930 . S
H182 C195 0.930 . S
H183 C199 0.959 . S
H184 C199 0.959 . S
H185 C199 0.961 . S
H186 C200 0.960 . S
H187 C200 0.961 . S
H188 C200 0.959 . S
H189 C203 0.929 . S
H190 C204 0.931 . S
H191 C206 0.930 . S
C192 H180 0.930 . S
C192 C193 1.399 . S
C192 C197 1.399 . S
C193 C192 1.399 . S
C193 C194 1.376 . S
C194 H181 0.930 . S
C194 C193 1.376 . S
C194 C195 1.388 . S
C195 H182 0.930 . S
C195 C194 1.388 . S
C195 C196 1.390 . S
C196 C195 1.390 . S
C196 C197 1.394 . S
C196 C202 1.465 . S
C197 C192 1.399 . S
C197 C196 1.394 . S
C197 C198 1.516 . S
C198 C197 1.516 . S
C198 C199 1.502 . S
C198 C200 1.561 . S
C198 C201 1.526 . S
C199 H183 0.959 . S
C199 H184 0.959 . S
C199 H185 0.961 . S
C199 C198 1.502 . S
C200 H186 0.960 . S
C200 H187 0.961 . S
C200 H188 0.959 . S
C200 C198 1.561 . S
C201 C198 1.526 . S
C201 C202 1.396 . S
C201 C206 1.390 1_554 S
C202 C196 1.465 . S
C202 C201 1.396 . S
C202 C203 1.399 . S
C203 H189 0.929 . S
C203 C202 1.399 . S
C203 C204 1.385 1_554 S
C204 H190 0.931 . S
C204 C203 1.385 1_556 S
C204 C205 1.389 . S
C205 C204 1.389 . S
C205 C206 1.387 . S
C206 H191 0.930 . S
C206 C201 1.390 1_556 S
C206 C205 1.387 . S
H207 C219 0.930 . S
H208 C221 0.930 . S
H209 C222 0.930 . S
H210 C226 0.959 . S
H211 C226 0.959 . S
H212 C226 0.961 . S
H213 C227 0.960 . S
H214 C227 0.961 . S
H215 C227 0.959 . S
H216 C230 0.929 . S
H217 C231 0.929 1_556 S
H218 C233 0.930 . S
C219 H207 0.930 . S
C219 C220 1.399 . S
C219 C224 1.399 . S
C220 C219 1.399 . S
C220 C221 1.376 . S
C221 H208 0.930 . S
C221 C220 1.376 . S
C221 C222 1.388 . S
C222 H209 0.930 . S
C222 C221 1.388 . S
C222 C223 1.390 . S
C223 C222 1.390 . S
C223 C224 1.394 . S
C223 C229 1.465 . S
C224 C219 1.399 . S
C224 C223 1.394 . S
C224 C225 1.516 . S
C225 C224 1.516 . S
C225 C226 1.502 . S
C225 C227 1.561 . S
C225 C228 1.526 . S
C226 H210 0.959 . S
C226 H211 0.959 . S
C226 H212 0.961 . S
C226 C225 1.502 . S
C227 H213 0.960 . S
C227 H214 0.961 . S
C227 H215 0.959 . S
C227 C225 1.561 . S
C228 C225 1.526 . S
C228 C229 1.396 . S
C228 C233 1.390 . S
C229 C223 1.465 . S
C229 C228 1.396 . S
C229 C230 1.399 . S
C230 H216 0.929 . S
C230 C229 1.399 . S
C230 C231 1.388 . S
C231 H217 0.929 1_554 S
C231 C230 1.388 . S
C231 C232 1.389 1_554 S
C232 C231 1.389 1_556 S
C232 C233 1.387 1_556 S
C233 H218 0.930 . S
C233 C228 1.390 . S
C233 C232 1.387 1_554 S
H234 C246 0.930 . S
H235 C248 0.930 . S
H236 C249 0.930 . S
H237 C253 0.959 . S
H238 C253 0.959 . S
H239 C253 0.961 . S
H240 C254 0.960 . S
H241 C254 0.961 . S
H242 C254 0.959 . S
H243 C257 0.929 . S
H244 C258 0.931 . S
H245 C260 0.930 . S
C246 H234 0.930 . S
C246 C247 1.399 . S
C246 C251 1.399 . S
C247 C246 1.399 . S
C247 C248 1.376 . S
C248 H235 0.930 . S
C248 C247 1.376 . S
C248 C249 1.388 . S
C249 H236 0.930 . S
C249 C248 1.388 . S
C249 C250 1.390 . S
C250 C249 1.390 . S
C250 C251 1.394 . S
C250 C256 1.465 . S
C251 C246 1.399 . S
C251 C250 1.394 . S
C251 C252 1.516 . S
C252 C251 1.516 . S
C252 C253 1.502 . S
C252 C254 1.561 . S
C252 C255 1.526 . S
C253 H237 0.959 . S
C253 H238 0.959 . S
C253 H239 0.961 . S
C253 C252 1.502 . S
C254 H240 0.960 . S
C254 H241 0.961 . S
C254 H242 0.959 . S
C254 C252 1.561 . S
C255 C252 1.526 . S
C255 C256 1.396 . S
C255 C260 1.390 . S
C256 C250 1.465 . S
C256 C255 1.396 . S
C256 C257 1.399 . S
C257 H243 0.929 . S
C257 C256 1.399 . S
C257 C258 1.385 . S
C258 H244 0.931 . S
C258 C257 1.385 . S
C258 C259 1.389 . S
C259 C258 1.389 . S
C259 C260 1.387 . S
C260 H245 0.930 . S
C260 C255 1.390 . S
C260 C259 1.387 . S
H261 C273 0.930 . S
H262 C275 0.930 . S
H263 C276 0.930 . S
H264 C280 0.959 . S
H265 C280 0.959 . S
H266 C280 0.961 . S
H267 C281 0.960 . S
H268 C281 0.961 . S
H269 C281 0.959 . S
H270 C284 0.929 . S
H271 C285 0.931 . S
H272 C287 0.930 . S
C273 H261 0.930 . S
C273 C274 1.399 . S
C273 C278 1.399 . S
C274 C273 1.399 . S
C274 C275 1.376 . S
C275 H262 0.930 . S
C275 C274 1.376 . S
C275 C276 1.388 . S
C276 H263 0.930 . S
C276 C275 1.388 . S
C276 C277 1.390 . S
C277 C276 1.390 . S
C277 C278 1.394 . S
C277 C283 1.465 . S
C278 C273 1.399 . S
C278 C277 1.394 . S
C278 C279 1.516 . S
C279 C278 1.516 . S
C279 C280 1.502 . S
C279 C281 1.561 . S
C279 C282 1.526 . S
C280 H264 0.959 . S
C280 H265 0.959 . S
C280 H266 0.961 . S
C280 C279 1.502 . S
C281 H267 0.960 . S
C281 H268 0.961 . S
C281 H269 0.959 . S
C281 C279 1.561 . S
C282 C279 1.526 . S
C282 C283 1.396 . S
C282 C287 1.390 . S
C283 C277 1.465 . S
C283 C282 1.396 . S
C283 C284 1.399 . S
C284 H270 0.929 . S
C284 C283 1.399 . S
C284 C285 1.385 . S
C285 H271 0.931 . S
C285 C284 1.385 . S
C285 C286 1.389 . S
C286 C285 1.389 . S
C286 C287 1.387 . S
C287 H272 0.930 . S
C287 C282 1.390 . S
C287 C286 1.387 . S
H288 C300 0.930 . S
H289 C302 0.930 . S
H290 C303 0.930 . S
H291 C307 0.959 . S
H292 C307 0.959 . S
H293 C307 0.961 . S
H294 C308 0.960 . S
H295 C308 0.961 . S
H296 C308 0.959 . S
H297 C311 0.929 . S
H298 C312 0.931 . S
H299 C314 0.930 1_554 S
C300 H288 0.930 . S
C300 C301 1.399 . S
C300 C305 1.399 . S
C301 C300 1.399 . S
C301 C302 1.376 . S
C302 H289 0.930 . S
C302 C301 1.376 . S
C302 C303 1.388 . S
C303 H290 0.930 . S
C303 C302 1.388 . S
C303 C304 1.390 . S
C304 C303 1.390 . S
C304 C305 1.394 . S
C304 C310 1.465 . S
C305 C300 1.399 . S
C305 C304 1.394 . S
C305 C306 1.516 . S
C306 C305 1.516 . S
C306 C307 1.502 . S
C306 C308 1.561 . S
C306 C309 1.526 . S
C307 H291 0.959 . S
C307 H292 0.959 . S
C307 H293 0.961 . S
C307 C306 1.502 . S
C308 H294 0.960 . S
C308 H295 0.961 . S
C308 H296 0.959 . S
C308 C306 1.561 . S
C309 C306 1.526 . S
C309 C310 1.396 . S
C309 C314 1.390 . S
C310 C304 1.465 . S
C310 C309 1.396 . S
C310 C311 1.399 . S
C311 H297 0.929 . S
C311 C310 1.399 . S
C311 C312 1.385 1_556 S
C312 H298 0.931 . S
C312 C311 1.385 1_554 S
C312 C313 1.389 . S
C313 C312 1.389 . S
C313 C314 1.387 1_554 S
C314 H299 0.930 1_556 S
C314 C309 1.390 . S
C314 C313 1.387 1_556 S
H315 C327 0.930 . S
H316 C329 0.930 . S
H317 C330 0.930 . S
H318 C334 0.959 . S
H319 C334 0.959 . S
H320 C334 0.961 . S
H321 C335 0.960 . S
H322 C335 0.961 . S
H323 C335 0.959 . S
H324 C338 0.929 . S
H325 C339 0.931 . S
H326 C341 0.930 . S
C327 H315 0.930 . S
C327 C328 1.399 . S
C327 C332 1.399 1_554 S
C328 C327 1.399 . S
C328 C329 1.376 . S
C329 H316 0.930 . S
C329 C328 1.376 . S
C329 C330 1.388 1_554 S
C330 H317 0.930 . S
C330 C329 1.388 1_556 S
C330 C331 1.390 . S
C331 C330 1.390 . S
C331 C332 1.394 . S
C331 C337 1.465 . S
C332 C327 1.399 1_556 S
C332 C331 1.394 . S
C332 C333 1.516 . S
C333 C332 1.516 . S
C333 C334 1.502 . S
C333 C335 1.561 . S
C333 C336 1.526 . S
C334 H318 0.959 . S
C334 H319 0.959 . S
C334 H320 0.961 . S
C334 C333 1.502 . S
C335 H321 0.960 . S
C335 H322 0.961 . S
C335 H323 0.959 . S
C335 C333 1.561 . S
C336 C333 1.526 . S
C336 C337 1.396 . S
C336 C341 1.390 . S
C337 C331 1.465 . S
C337 C336 1.396 . S
C337 C338 1.399 . S
C338 H324 0.929 . S
C338 C337 1.399 . S
C338 C339 1.385 . S
C339 H325 0.931 . S
C339 C338 1.385 . S
C339 C340 1.389 . S
C340 C339 1.389 . S
C340 C341 1.387 . S
C341 H326 0.930 . S
C341 C336 1.390 . S
C341 C340 1.387 . S
H342 C354 0.930 . S
H343 C356 0.930 . S
H344 C357 0.930 . S
H345 C361 0.959 . S
H346 C361 0.959 . S
H347 C361 0.961 . S
H348 C362 0.960 . S
H349 C362 0.961 . S
H350 C362 0.959 . S
H351 C365 0.929 . S
H352 C366 0.931 . S
H353 C368 0.930 . S
C354 H342 0.930 . S
C354 C355 1.399 . S
C354 C359 1.399 1_545 S
C355 C354 1.399 . S
C355 C356 1.376 . S
C356 H343 0.930 . S
C356 C355 1.376 . S
C356 C357 1.388 . S
C357 H344 0.930 . S
C357 C356 1.388 . S
C357 C358 1.390 1_545 S
C358 C357 1.390 1_565 S
C358 C359 1.394 . S
C358 C364 1.465 . S
C359 C354 1.399 1_565 S
C359 C358 1.394 . S
C359 C360 1.516 . S
C360 C359 1.516 . S
C360 C361 1.502 . S
C360 C362 1.561 . S
C360 C363 1.526 . S
C361 H345 0.959 . S
C361 H346 0.959 . S
C361 H347 0.961 . S
C361 C360 1.502 . S
C362 H348 0.960 . S
C362 H349 0.961 . S
C362 H350 0.959 . S
C362 C360 1.561 . S
C363 C360 1.526 . S
C363 C364 1.396 . S
C363 C368 1.390 . S
C364 C358 1.465 . S
C364 C363 1.396 . S
C364 C365 1.399 . S
C365 H351 0.929 . S
C365 C364 1.399 . S
C365 C366 1.385 . S
C366 H352 0.931 . S
C366 C365 1.385 . S
C366 C367 1.389 . S
C367 C366 1.389 . S
C367 C368 1.387 . S
C368 H353 0.930 . S
C368 C363 1.390 . S
C368 C367 1.387 . S
H369 C381 0.930 . S
H370 C383 0.930 . S
H371 C384 0.930 . S
H372 C388 0.959 . S
H373 C388 0.959 . S
H374 C388 0.961 . S
H375 C389 0.960 . S
H376 C389 0.961 . S
H377 C389 0.959 . S
H378 C392 0.929 . S
H379 C393 0.931 . S
H380 C395 0.930 . S
C381 H369 0.930 . S
C381 C382 1.399 . S
C381 C386 1.399 . S
C382 C381 1.399 . S
C382 C383 1.376 . S
C383 H370 0.930 . S
C383 C382 1.376 . S
C383 C384 1.388 . S
C384 H371 0.930 . S
C384 C383 1.388 . S
C384 C385 1.390 . S
C385 C384 1.390 . S
C385 C386 1.394 . S
C385 C391 1.465 . S
C386 C381 1.399 . S
C386 C385 1.394 . S
C386 C387 1.516 . S
C387 C386 1.516 . S
C387 C388 1.502 . S
C387 C389 1.561 . S
C387 C390 1.526 . S
C388 H372 0.959 . S
C388 H373 0.959 . S
C388 H374 0.961 . S
C388 C387 1.502 . S
C389 H375 0.960 . S
C389 H376 0.961 . S
C389 H377 0.959 . S
C389 C387 1.561 . S
C390 C387 1.526 . S
C390 C391 1.396 . S
C390 C395 1.390 . S
C391 C385 1.465 . S
C391 C390 1.396 . S
C391 C392 1.399 . S
C392 H378 0.929 . S
C392 C391 1.399 . S
C392 C393 1.385 . S
C393 H379 0.931 . S
C393 C392 1.385 . S
C393 C394 1.389 . S
C394 C393 1.389 . S
C394 C395 1.387 . S
C395 H380 0.930 . S
C395 C390 1.390 . S
C395 C394 1.387 . S
H396 C408 0.930 . S
H397 C410 0.930 . S
H398 C411 0.930 . S
H399 C415 0.959 . S
H400 C415 0.959 . S
H401 C415 0.961 . S
H402 C416 0.960 . S
H403 C416 0.958 1_455 S
H404 C416 0.959 . S
H405 C419 0.929 . S
H406 C420 0.931 . S
H407 C422 0.930 . S
C408 H396 0.930 . S
C408 C409 1.399 . S
C408 C413 1.399 . S
C409 C408 1.399 . S
C409 C410 1.376 . S
C410 H397 0.930 . S
C410 C409 1.376 . S
C410 C411 1.388 . S
C411 H398 0.930 . S
C411 C410 1.388 . S
C411 C412 1.390 . S
C412 C411 1.390 . S
C412 C413 1.394 . S
C412 C418 1.465 . S
C413 C408 1.399 . S
C413 C412 1.394 . S
C413 C414 1.516 . S
C414 C413 1.516 . S
C414 C415 1.502 . S
C414 C416 1.561 . S
C414 C417 1.526 . S
C415 H399 0.959 . S
C415 H400 0.959 . S
C415 H401 0.961 . S
C415 C414 1.502 . S
C416 H402 0.960 . S
C416 H403 0.958 1_655 S
C416 H404 0.959 . S
C416 C414 1.561 . S
C417 C414 1.526 . S
C417 C418 1.396 . S
C417 C422 1.390 1_655 S
C418 C412 1.465 . S
C418 C417 1.396 . S
C418 C419 1.399 1_655 S
C419 H405 0.929 . S
C419 C418 1.399 1_455 S
C419 C420 1.385 . S
C420 H406 0.931 . S
C420 C419 1.385 . S
C420 C421 1.389 . S
C421 C420 1.389 . S
C421 C422 1.387 . S
C422 H407 0.930 . S
C422 C417 1.390 1_455 S
C422 C421 1.387 . S
H423 C435 0.930 1_556 S
H424 C437 0.930 . S
H425 C438 0.930 . S
H426 C442 0.959 . S
H427 C442 0.959 . S
H428 C442 0.961 . S
H429 C443 0.960 . S
H430 C443 0.961 . S
H431 C443 0.959 . S
H432 C446 0.929 . S
H433 C447 0.931 . S
H434 C449 0.930 . S
C435 H423 0.930 1_554 S
C435 C436 1.399 . S
C435 C440 1.399 1_554 S
C436 C435 1.399 . S
C436 C437 1.376 . S
C437 H424 0.930 . S
C437 C436 1.376 . S
C437 C438 1.388 . S
C438 H425 0.930 . S
C438 C437 1.388 . S
C438 C439 1.390 . S
C439 C438 1.390 . S
C439 C440 1.394 1_554 S
C439 C445 1.465 . S
C440 C435 1.399 1_556 S
C440 C439 1.394 1_556 S
C440 C441 1.516 . S
C441 C440 1.516 . S
C441 C442 1.502 . S
C441 C443 1.561 . S
C441 C444 1.526 . S
C442 H426 0.959 . S
C442 H427 0.959 . S
C442 H428 0.961 . S
C442 C441 1.502 . S
C443 H429 0.960 . S
C443 H430 0.961 . S
C443 H431 0.959 . S
C443 C441 1.561 . S
C444 C441 1.526 . S
C444 C445 1.396 1_556 S
C444 C449 1.390 1_565 S
C445 C439 1.465 . S
C445 C444 1.396 1_554 S
C445 C446 1.399 1_565 S
C446 H432 0.929 . S
C446 C445 1.399 1_545 S
C446 C447 1.385 . S
C447 H433 0.931 . S
C447 C446 1.385 . S
C447 C448 1.389 1_554 S
C448 C447 1.389 1_556 S
C448 C449 1.387 . S
C449 H434 0.930 . S
C449 C444 1.390 1_545 S
C449 C448 1.387 . S
H450 C462 0.930 . S
H451 C464 0.930 . S
H452 C465 0.930 . S
H453 C469 0.959 . S
H454 C469 0.959 1_556 S
H455 C469 0.961 . S
H456 C470 0.960 . S
H457 C470 0.961 1_556 S
H458 C470 0.959 . S
H459 C473 0.929 . S
H460 C474 0.931 . S
H461 C476 0.930 1_556 S
C462 H450 0.930 . S
C462 C463 1.399 . S
C462 C467 1.399 . S
C463 C462 1.399 . S
C463 C464 1.376 . S
C464 H451 0.930 . S
C464 C463 1.376 . S
C464 C465 1.388 . S
C465 H452 0.930 . S
C465 C464 1.388 . S
C465 C466 1.390 . S
C466 C465 1.390 . S
C466 C467 1.394 . S
C466 C472 1.465 . S
C467 C462 1.399 . S
C467 C466 1.394 . S
C467 C468 1.516 . S
C468 C467 1.516 . S
C468 C469 1.502 . S
C468 C470 1.561 . S
C468 C471 1.526 . S
C469 H453 0.959 . S
C469 H454 0.959 1_554 S
C469 H455 0.961 . S
C469 C468 1.502 . S
C470 H456 0.960 . S
C470 H457 0.961 1_554 S
C470 H458 0.959 . S
C470 C468 1.561 . S
C471 C468 1.526 . S
C471 C472 1.396 . S
C471 C476 1.390 . S
C472 C466 1.465 . S
C472 C471 1.396 . S
C472 C473 1.399 . S
C473 H459 0.929 . S
C473 C472 1.399 . S
C473 C474 1.385 . S
C474 H460 0.931 . S
C474 C473 1.385 . S
C474 C475 1.389 . S
C475 C474 1.389 . S
C475 C476 1.387 . S
C476 H461 0.930 1_554 S
C476 C471 1.390 . S
C476 C475 1.387 . S
H477 C489 0.930 . S
H478 C491 0.930 . S
H479 C492 0.930 . S
H480 C496 0.959 . S
H481 C496 0.959 . S
H482 C496 0.961 . S
H483 C497 0.960 . S
H484 C497 0.961 . S
H485 C497 0.959 . S
H486 C500 0.929 . S
H487 C501 0.931 . S
H488 C503 0.930 . S
C489 H477 0.930 . S
C489 C490 1.399 . S
C489 C494 1.399 . S
C490 C489 1.399 . S
C490 C491 1.376 . S
C491 H478 0.930 . S
C491 C490 1.376 . S
C491 C492 1.388 . S
C492 H479 0.930 . S
C492 C491 1.388 . S
C492 C493 1.390 . S
C493 C492 1.390 . S
C493 C494 1.394 . S
C493 C499 1.465 . S
C494 C489 1.399 . S
C494 C493 1.394 . S
C494 C495 1.516 . S
C495 C494 1.516 . S
C495 C496 1.502 . S
C495 C497 1.561 . S
C495 C498 1.526 . S
C496 H480 0.959 . S
C496 H481 0.959 . S
C496 H482 0.961 . S
C496 C495 1.502 . S
C497 H483 0.960 . S
C497 H484 0.961 . S
C497 H485 0.959 . S
C497 C495 1.561 . S
C498 C495 1.526 . S
C498 C499 1.396 . S
C498 C503 1.390 1_655 S
C499 C493 1.465 . S
C499 C498 1.396 . S
C499 C500 1.399 1_655 S
C500 H486 0.929 . S
C500 C499 1.399 1_455 S
C500 C501 1.385 . S
C501 H487 0.931 . S
C501 C500 1.385 . S
C501 C502 1.389 . S
C502 C501 1.389 . S
C502 C503 1.387 . S
C503 H488 0.930 . S
C503 C498 1.390 1_455 S
C503 C502 1.387 . S
H504 C516 0.930 . S
H505 C518 0.930 . S
H506 C519 0.930 . S
H507 C523 0.959 . S
H508 C523 0.959 . S
H509 C523 0.961 . S
H510 C524 0.960 . S
H511 C524 0.961 . S
H512 C524 0.959 . S
H513 C527 0.929 . S
H514 C528 0.931 . S
H515 C530 0.930 . S
C516 H504 0.930 . S
C516 C517 1.399 . S
C516 C521 1.399 . S
C517 C516 1.399 . S
C517 C518 1.376 . S
C518 H505 0.930 . S
C518 C517 1.376 . S
C518 C519 1.388 . S
C519 H506 0.930 . S
C519 C518 1.388 . S
C519 C520 1.390 . S
C520 C519 1.390 . S
C520 C521 1.394 . S
C520 C526 1.465 . S
C521 C516 1.399 . S
C521 C520 1.394 . S
C521 C522 1.516 . S
C522 C521 1.516 . S
C522 C523 1.502 . S
C522 C524 1.561 . S
C522 C525 1.526 . S
C523 H507 0.959 . S
C523 H508 0.959 . S
C523 H509 0.961 . S
C523 C522 1.502 . S
C524 H510 0.960 . S
C524 H511 0.961 . S
C524 H512 0.959 . S
C524 C522 1.561 . S
C525 C522 1.526 . S
C525 C526 1.396 . S
C525 C530 1.390 . S
C526 C520 1.465 . S
C526 C525 1.396 . S
C526 C527 1.399 . S
C527 H513 0.929 . S
C527 C526 1.399 . S
C527 C528 1.385 . S
C528 H514 0.931 . S
C528 C527 1.385 . S
C528 C529 1.389 . S
C529 C528 1.389 . S
C529 C530 1.387 . S
C530 H515 0.930 . S
C530 C525 1.390 . S
C530 C529 1.387 . S
H531 C543 0.930 . S
H532 C545 0.930 . S
H533 C546 0.930 . S
H534 C550 0.959 . S
H535 C550 0.959 . S
H536 C550 0.961 . S
H537 C551 0.960 . S
H538 C551 0.961 . S
H539 C551 0.959 . S
H540 C554 0.929 . S
H541 C555 0.931 . S
H542 C557 0.930 . S
C543 H531 0.930 . S
C543 C544 1.399 . S
C543 C548 1.399 . S
C544 C543 1.399 . S
C544 C545 1.376 . S
C545 H532 0.930 . S
C545 C544 1.376 . S
C545 C546 1.388 . S
C546 H533 0.930 . S
C546 C545 1.388 . S
C546 C547 1.390 . S
C547 C546 1.390 . S
C547 C548 1.394 . S
C547 C553 1.465 . S
C548 C543 1.399 . S
C548 C547 1.394 . S
C548 C549 1.516 . S
C549 C548 1.516 . S
C549 C550 1.502 . S
C549 C551 1.561 . S
C549 C552 1.526 . S
C550 H534 0.959 . S
C550 H535 0.959 . S
C550 H536 0.961 . S
C550 C549 1.502 . S
C551 H537 0.960 . S
C551 H538 0.961 . S
C551 H539 0.959 . S
C551 C549 1.561 . S
C552 C549 1.526 . S
C552 C553 1.396 . S
C552 C557 1.390 . S
C553 C547 1.465 . S
C553 C552 1.396 . S
C553 C554 1.399 . S
C554 H540 0.929 . S
C554 C553 1.399 . S
C554 C555 1.385 . S
C555 H541 0.931 . S
C555 C554 1.385 . S
C555 C556 1.389 . S
C556 C555 1.389 . S
C556 C557 1.387 . S
C557 H542 0.930 . S
C557 C552 1.390 . S
C557 C556 1.387 . S
H558 C570 0.930 . S
H559 C572 0.930 1_554 S
H560 C573 0.930 . S
H561 C577 0.959 . S
H562 C577 0.959 . S
H563 C577 0.961 . S
H564 C578 0.960 . S
H565 C578 0.961 . S
H566 C578 0.959 . S
H567 C581 0.929 . S
H568 C582 0.931 . S
H569 C584 0.930 . S
C570 H558 0.930 . S
C570 C571 1.399 . S
C570 C575 1.399 . S
C571 C570 1.399 . S
C571 C572 1.376 . S
C572 H559 0.930 1_556 S
C572 C571 1.376 . S
C572 C573 1.388 . S
C573 H560 0.930 . S
C573 C572 1.388 . S
C573 C574 1.390 . S
C574 C573 1.390 . S
C574 C575 1.394 . S
C574 C580 1.465 . S
C575 C570 1.399 . S
C575 C574 1.394 . S
C575 C576 1.516 . S
C576 C575 1.516 . S
C576 C577 1.502 . S
C576 C578 1.561 . S
C576 C579 1.526 . S
C577 H561 0.959 . S
C577 H562 0.959 . S
C577 H563 0.961 . S
C577 C576 1.502 . S
C578 H564 0.960 . S
C578 H565 0.961 . S
C578 H566 0.959 . S
C578 C576 1.561 . S
C579 C576 1.526 . S
C579 C580 1.396 . S
C579 C584 1.390 . S
C580 C574 1.465 . S
C580 C579 1.396 . S
C580 C581 1.399 . S
C581 H567 0.929 . S
C581 C580 1.399 . S
C581 C582 1.385 . S
C582 H568 0.931 . S
C582 C581 1.385 . S
C582 C583 1.389 . S
C583 C582 1.389 . S
C583 C584 1.387 . S
C584 H569 0.930 . S
C584 C579 1.390 . S
C584 C583 1.387 . S
H585 C597 0.930 1_554 S
H586 C599 0.930 . S
H587 C600 0.930 . S
H588 C604 0.959 1_556 S
H589 C604 0.959 . S
H590 C604 0.961 . S
H591 C605 0.960 . S
H592 C605 0.961 . S
H593 C605 0.959 1_556 S
H594 C608 0.929 . S
H595 C609 0.931 . S
H596 C611 0.930 . S
C597 H585 0.930 1_556 S
C597 C598 1.399 . S
C597 C602 1.399 . S
C598 C597 1.399 . S
C598 C599 1.376 . S
C599 H586 0.930 . S
C599 C598 1.376 . S
C599 C600 1.388 . S
C600 H587 0.930 . S
C600 C599 1.388 . S
C600 C601 1.390 . S
C601 C600 1.390 . S
C601 C602 1.394 . S
C601 C607 1.465 . S
C602 C597 1.399 . S
C602 C601 1.394 . S
C602 C603 1.516 . S
C603 C602 1.516 . S
C603 C604 1.502 1_556 S
C603 C605 1.561 1_556 S
C603 C606 1.526 . S
C604 H588 0.959 1_554 S
C604 H589 0.959 . S
C604 H590 0.961 . S
C604 C603 1.502 1_554 S
C605 H591 0.960 . S
C605 H592 0.961 . S
C605 H593 0.959 1_554 S
C605 C603 1.561 1_554 S
C606 C603 1.526 . S
C606 C607 1.396 . S
C606 C611 1.390 . S
C607 C601 1.465 . S
C607 C606 1.396 . S
C607 C608 1.399 . S
C608 H594 0.929 . S
C608 C607 1.399 . S
C608 C609 1.385 . S
C609 H595 0.931 . S
C609 C608 1.385 . S
C609 C610 1.389 . S
C610 C609 1.389 . S
C610 C611 1.387 . S
C611 H596 0.930 . S
C611 C606 1.390 . S
C611 C610 1.387 . S
H612 C624 0.930 . S
H613 C626 0.930 . S
H614 C627 0.930 . S
H615 C631 0.959 . S
H616 C631 0.959 . S
H617 C631 0.961 . S
H618 C632 0.960 . S
H619 C632 0.961 . S
H620 C632 0.959 . S
H621 C635 0.929 1_556 S
H622 C636 0.931 . S
H623 C638 0.930 . S
C624 H612 0.930 . S
C624 C625 1.399 . S
C624 C629 1.399 . S
C625 C624 1.399 . S
C625 C626 1.376 . S
C626 H613 0.930 . S
C626 C625 1.376 . S
C626 C627 1.388 . S
C627 H614 0.930 . S
C627 C626 1.388 . S
C627 C628 1.390 . S
C628 C627 1.390 . S
C628 C629 1.394 . S
C628 C634 1.465 . S
C629 C624 1.399 . S
C629 C628 1.394 . S
C629 C630 1.516 . S
C630 C629 1.516 . S
C630 C631 1.502 . S
C630 C632 1.561 . S
C630 C633 1.526 . S
C631 H615 0.959 . S
C631 H616 0.959 . S
C631 H617 0.961 . S
C631 C630 1.502 . S
C632 H618 0.960 . S
C632 H619 0.961 . S
C632 H620 0.959 . S
C632 C630 1.561 . S
C633 C630 1.526 . S
C633 C634 1.396 . S
C633 C638 1.390 . S
C634 C628 1.465 . S
C634 C633 1.396 . S
C634 C635 1.399 . S
C635 H621 0.929 1_554 S
C635 C634 1.399 . S
C635 C636 1.385 1_554 S
C636 H622 0.931 . S
C636 C635 1.385 1_556 S
C636 C637 1.389 1_556 S
C637 C636 1.389 1_554 S
C637 C638 1.387 . S
C638 H623 0.930 . S
C638 C633 1.390 . S
C638 C637 1.387 . S
H639 C651 0.930 . S
H640 C653 0.930 . S
H641 C654 0.930 . S
H642 C658 0.959 . S
H643 C658 0.959 . S
H644 C658 0.961 . S
H645 C659 0.960 . S
H646 C659 0.961 . S
H647 C659 0.959 . S
H648 C662 0.929 . S
H649 C663 0.931 . S
H650 C665 0.930 . S
C651 H639 0.930 . S
C651 C652 1.399 . S
C651 C656 1.399 . S
C652 C651 1.399 . S
C652 C653 1.376 . S
C653 H640 0.930 . S
C653 C652 1.376 . S
C653 C654 1.388 . S
C654 H641 0.930 . S
C654 C653 1.388 . S
C654 C655 1.390 . S
C655 C654 1.390 . S
C655 C656 1.394 . S
C655 C661 1.465 . S
C656 C651 1.399 . S
C656 C655 1.394 . S
C656 C657 1.516 . S
C657 C656 1.516 . S
C657 C658 1.502 . S
C657 C659 1.561 . S
C657 C660 1.526 . S
C658 H642 0.959 . S
C658 H643 0.959 . S
C658 H644 0.961 . S
C658 C657 1.502 . S
C659 H645 0.960 . S
C659 H646 0.961 . S
C659 H647 0.959 . S
C659 C657 1.561 . S
C660 C657 1.526 . S
C660 C661 1.396 . S
C660 C665 1.390 . S
C661 C655 1.465 . S
C661 C660 1.396 . S
C661 C662 1.399 . S
C662 H648 0.929 . S
C662 C661 1.399 . S
C662 C663 1.385 . S
C663 H649 0.931 . S
C663 C662 1.385 . S
C663 C664 1.389 . S
C664 C663 1.389 . S
C664 C665 1.387 . S
C665 H650 0.930 . S
C665 C660 1.390 . S
C665 C664 1.387 . S
C193 C16 0.970 . S
C205 C27 0.974 . S
C220 C57 0.968 . S
C232 C46 0.978 . S
C247 C87 0.969 . S
C259 C76 0.975 . S
C274 C106 0.979 . S
C286 C117 0.968 . S
C301 C147 0.978 . S
C313 C136 0.968 . S
C328 C177 0.979 . S
C340 C166 0.968 . S
C355 C1 1.956 . S
C367 C151 1.973 . S
C382 N6 1.639 . S
C394 N36 1.579 . S
C409 C61 1.975 . S
C421 C31 1.952 . S
C436 N96 1.647 . S
C448 N66 1.571 . S
C463 C121 1.955 . S
C475 C91 1.912 . S
C490 N126 1.638 . S
C502 N156 1.580 . S
C517 C10 1.865 . S
C529 N134 1.726 . S
C544 N44 1.700 . S
C556 C160 1.898 . S
C571 C70 1.873 . S
C583 N14 1.775 . S
C598 N104 1.712 1_556 S
C610 C40 1.897 . S
C625 C130 1.865 . S
C637 N74 1.725 . S
C652 C100 1.870 . S
C664 N164 1.777 . S
