# Generated by pormake.
# Topology umx, (4)-cn, num edge types: 1
# Building blocks:
#     Node 0, Type 0, BuildingBlock: TATPOV_clean_sbu_0, # of connection points: 4
#     Node 1, Type 0, BuildingBlock: TATPOV_clean_sbu_0, # of connection points: 4
#     Node 2, Type 0, BuildingBlock: TATPOV_clean_sbu_0, # of connection points: 4
#     Node 3, Type 0, BuildingBlock: TATPOV_clean_sbu_0, # of connection points: 4
#     Node 4, Type 0, BuildingBlock: TATPOV_clean_sbu_0, # of connection points: 4
#     Node 5, Type 0, BuildingBlock: TATPOV_clean_sbu_0, # of connection points: 4
#     Node 6, Type 0, BuildingBlock: TATPOV_clean_sbu_0, # of connection points: 4
#     Node 7, Type 0, BuildingBlock: TATPOV_clean_sbu_0, # of connection points: 4
#     Edge 8, Type (0, 0), BuildingBlock: KIFKEQ_clean_linker_1, # of connection points: 2
#     Edge 9, Type (0, 0), BuildingBlock: KIFKEQ_clean_linker_1, # of connection points: 2
#     Edge 10, Type (0, 0), BuildingBlock: KIFKEQ_clean_linker_1, # of connection points: 2
#     Edge 11, Type (0, 0), BuildingBlock: KIFKEQ_clean_linker_1, # of connection points: 2
#     Edge 12, Type (0, 0), BuildingBlock: KIFKEQ_clean_linker_1, # of connection points: 2
#     Edge 13, Type (0, 0), BuildingBlock: KIFKEQ_clean_linker_1, # of connection points: 2
#     Edge 14, Type (0, 0), BuildingBlock: KIFKEQ_clean_linker_1, # of connection points: 2
#     Edge 15, Type (0, 0), BuildingBlock: KIFKEQ_clean_linker_1, # of connection points: 2
#     Edge 16, Type (0, 0), BuildingBlock: KIFKEQ_clean_linker_1, # of connection points: 2
#     Edge 17, Type (0, 0), BuildingBlock: KIFKEQ_clean_linker_1, # of connection points: 2
#     Edge 18, Type (0, 0), BuildingBlock: KIFKEQ_clean_linker_1, # of connection points: 2
#     Edge 19, Type (0, 0), BuildingBlock: KIFKEQ_clean_linker_1, # of connection points: 2
#     Edge 20, Type (0, 0), BuildingBlock: KIFKEQ_clean_linker_1, # of connection points: 2
#     Edge 21, Type (0, 0), BuildingBlock: KIFKEQ_clean_linker_1, # of connection points: 2
#     Edge 22, Type (0, 0), BuildingBlock: KIFKEQ_clean_linker_1, # of connection points: 2
#     Edge 23, Type (0, 0), BuildingBlock: KIFKEQ_clean_linker_1, # of connection points: 2
# Relax obj value: 0.211
# Max RMSD: 0.756
# Mean RMSD: 0.325
data_MOF--net-umx--node1-TATPOV_clean_sbu_0--edge1-KIFKEQ_clean_linker_1
_symmetry_space_group_name_H-M    P1
_symmetry_Int_Tables_number       1
_symmetry_cell_setting            triclinic
loop_
_symmetry_equiv_pos_as_xyz
'x, y, z'
_cell_length_a     43.714162
_cell_length_b     20.022051
_cell_length_c     28.791723
_cell_angle_alpha  89.964511
_cell_angle_beta   90.25112
_cell_angle_gamma 100.5178
loop_
_atom_site_label
_atom_site_type_symbol
_atom_site_fract_x
_atom_site_fract_y
_atom_site_fract_z
_atom_type_partial_charge
Zn0 Zn 0.17618 0.37711 -0.00052 0.0
Zn1 Zn 0.13944 0.24982 0.00606 0.0
O2 O 0.15961 0.25526 0.94231 0.0
O3 O 0.19313 0.35128 0.93765 0.0
O4 O 0.11728 0.15131 0.01149 0.0
O5 O 0.19676 0.36244 0.06131 0.0
O6 O 0.16739 0.2608 0.06343 0.0
C7 C 0.18037 0.29512 0.91993 0.0
C8 C 0.10831 0.37358 0.00496 0.0
O9 O 0.10583 0.30934 0.00918 0.0
O10 O 0.13485 0.41088 -0.00028 0.0
C11 C 0.13066 0.10092 0.0198 0.0
O12 O 0.11362 0.04083 0.02735 0.0
C13 C 0.18814 0.30613 0.08172 0.0
Zn14 Zn 0.43761 0.32796 0.51919 0.0
Zn15 Zn 0.49964 0.38733 0.52148 0.0
O16 O 0.48403 0.41647 0.45887 0.0
O17 O 0.43374 0.37444 0.45759 0.0
O18 O 0.54542 0.42862 0.52367 0.0
O19 O 0.43193 0.37647 0.57952 0.0
O20 O 0.48176 0.4223 0.58016 0.0
C21 C 0.45768 0.40835 0.43846 0.0
C22 C 0.48032 0.23232 0.52385 0.0
O23 O 0.50071 0.28646 0.52498 0.0
O24 O 0.45167 0.23558 0.52062 0.0
C25 C 0.56344 0.40964 0.49385 0.0
O26 O 0.55136 0.36727 0.46099 0.0
C27 C 0.45498 0.41374 0.59893 0.0
Zn28 Zn 0.85327 0.60992 0.00655 0.0
Zn29 Zn 0.89381 0.73454 0.0075 0.0
O30 O 0.87062 0.73165 0.94594 0.0
O31 O 0.83661 0.6359 0.94407 0.0
O32 O 0.91853 0.83073 0.01208 0.0
O33 O 0.83401 0.63365 0.06779 0.0
O34 O 0.86871 0.72798 0.06653 0.0
C35 C 0.84882 0.69169 0.92535 0.0
C36 C 0.92088 0.60537 0.00851 0.0
O37 O 0.92502 0.6701 0.00861 0.0
O38 O 0.89353 0.57035 0.00766 0.0
C39 C 0.90623 0.88095 0.02453 0.0
O40 O 0.92399 0.9404 0.03164 0.0
C41 C 0.84654 0.68911 0.0867 0.0
Zn42 Zn 0.59327 0.68327 0.54769 0.0
Zn43 Zn 0.53138 0.62378 0.54649 0.0
O44 O 0.54998 0.58966 0.48786 0.0
O45 O 0.6001 0.63254 0.48904 0.0
O46 O 0.48603 0.58018 0.54226 0.0
O47 O 0.59662 0.63901 0.61043 0.0
O48 O 0.54662 0.59412 0.60903 0.0
C49 C 0.57686 0.59617 0.46955 0.0
C50 C 0.55008 0.77842 0.54279 0.0
O51 O 0.52965 0.7244 0.54451 0.0
O52 O 0.5788 0.77506 0.54298 0.0
C53 C 0.46577 0.5961 0.56968 0.0
O54 O 0.47481 0.63956 0.60336 0.0
C55 C 0.57296 0.6039 0.62953 0.0
Zn56 Zn 0.131 0.26013 0.49881 0.0
Zn57 Zn 0.17469 0.37705 0.5064 0.0
O58 O 0.17753 0.31892 0.56359 0.0
O59 O 0.14387 0.22308 0.56011 0.0
O60 O 0.21563 0.44361 0.51423 0.0
O61 O 0.14949 0.23798 0.43749 0.0
O62 O 0.1812 0.33647 0.44296 0.0
C63 C 0.16555 0.26203 0.58121 0.0
C64 C 0.10736 0.3914 0.50337 0.0
O65 O 0.13561 0.42213 0.50756 0.0
O66 O 0.10115 0.3272 0.49911 0.0
C67 C 0.23768 0.40973 0.51258 0.0
O68 O 0.2305 0.34387 0.50549 0.0
C69 C 0.17088 0.28238 0.42047 0.0
Zn70 Zn 0.48461 0.37173 0.01858 0.0
Zn71 Zn 0.42486 0.30091 0.01939 0.0
O72 O 0.4293 0.35777 0.07951 0.0
O73 O 0.47675 0.41812 0.07822 0.0
O74 O 0.37968 0.25279 0.01815 0.0
O75 O 0.47638 0.41333 0.9569 0.0
O76 O 0.42881 0.35354 0.95772 0.0
C77 C 0.45071 0.40147 0.09815 0.0
C78 C 0.47933 0.22432 0.02251 0.0
O79 O 0.45015 0.22416 0.02125 0.0
O80 O 0.49855 0.28005 0.02177 0.0
C81 C 0.36252 0.24178 0.05395 0.0
O82 O 0.37438 0.26059 0.0949 0.0
C83 C 0.45001 0.39585 0.93774 0.0
Zn84 Zn 0.89074 0.74863 0.50421 0.0
Zn85 Zn 0.85095 0.62509 0.50958 0.0
O86 O 0.84376 0.67731 0.56798 0.0
O87 O 0.87538 0.77626 0.56664 0.0
O88 O 0.81373 0.54793 0.50842 0.0
O89 O 0.87076 0.77088 0.44332 0.0
O90 O 0.84335 0.66765 0.44774 0.0
C91 C 0.85439 0.73433 0.58674 0.0
C92 C 0.92007 0.62496 0.50738 0.0
O93 O 0.89254 0.59038 0.51112 0.0
O94 O 0.92427 0.6892 0.50329 0.0
C95 C 0.79593 0.53205 0.54312 0.0
O96 O 0.80541 0.55487 0.58446 0.0
C97 C 0.8511 0.72314 0.42577 0.0
Zn98 Zn 0.55027 0.63259 0.05228 0.0
Zn99 Zn 0.61076 0.69986 0.05024 0.0
O100 O 0.60593 0.64637 0.11188 0.0
O101 O 0.5583 0.58689 0.11228 0.0
O102 O 0.65651 0.74493 0.04756 0.0
O103 O 0.55652 0.58874 -0.00919 0.0
O104 O 0.60485 0.64449 -0.01023 0.0
C105 C 0.58466 0.6038 0.13154 0.0
C106 C 0.55776 0.78064 0.05042 0.0
O107 O 0.58674 0.7788 0.04862 0.0
O108 O 0.53793 0.72598 0.05317 0.0
C109 C 0.67637 0.74116 0.07952 0.0
O110 O 0.66732 0.70763 0.11773 0.0
C111 C 0.58258 0.60358 0.97068 0.0
H112 H 0.18282 0.18736 0.12946 0.0
H113 H 0.21487 0.4032 0.14376 0.0
H114 H 0.18874 0.17254 0.21219 0.0
H115 H 0.21823 0.38967 0.22743 0.0
H116 H 0.22299 0.35369 0.37912 0.0
H117 H 0.23719 0.35172 0.29736 0.0
H118 H 0.15686 0.19432 0.27235 0.0
H119 H 0.14372 0.1943 0.35389 0.0
C120 C 0.19191 0.23146 0.15008 0.0
C121 C 0.19827 0.29629 0.1299 0.0
C122 C 0.19481 0.22321 0.19784 0.0
C123 C 0.20304 0.28005 0.22689 0.0
C124 C 0.2119 0.34451 0.20632 0.0
C125 C 0.20982 0.35243 0.1582 0.0
C126 C 0.20877 0.31779 0.35616 0.0
C127 C 0.18203 0.27463 0.37278 0.0
C128 C 0.21682 0.3169 0.30926 0.0
C129 C 0.19809 0.27339 0.27793 0.0
C130 C 0.17226 0.22781 0.2953 0.0
C131 C 0.16449 0.22808 0.3422 0.0
H132 H 0.40141 0.4251 0.64499 0.0
H133 H 0.50129 0.45553 0.66135 0.0
H134 H 0.39597 0.44075 0.72862 0.0
H135 H 0.49574 0.46734 0.7444 0.0
H136 H 0.40462 0.34201 0.87585 0.0
H137 H 0.40273 0.36708 0.7933 0.0
H138 H 0.48163 0.53026 0.80961 0.0
H139 H 0.48433 0.50334 0.89189 0.0
C140 C 0.4222 0.43641 0.6663 0.0
C141 C 0.45176 0.43826 0.64672 0.0
C142 C 0.41908 0.44504 0.71417 0.0
C143 C 0.44544 0.45512 0.74328 0.0
C144 C 0.47503 0.46158 0.72302 0.0
C145 C 0.47819 0.45408 0.67526 0.0
C146 C 0.4212 0.38409 0.862 0.0
C147 C 0.44506 0.41967 0.89014 0.0
C148 C 0.41999 0.39884 0.81465 0.0
C149 C 0.44242 0.44994 0.79462 0.0
C150 C 0.46456 0.48939 0.82371 0.0
C151 C 0.46603 0.4741 0.87089 0.0
H152 H 0.85647 0.83627 0.37038 0.0
H153 H 0.81979 0.62072 0.37235 0.0
H154 H 0.84537 0.83899 0.28737 0.0
H155 H 0.81043 0.62247 0.2896 0.0
H156 H 0.79577 0.63142 0.13859 0.0
H157 H 0.787 0.65128 0.2209 0.0
H158 H 0.87134 0.80277 0.2245 0.0
H159 H 0.87926 0.78472 0.14318 0.0
C160 C 0.84574 0.78967 0.35321 0.0
C161 C 0.83966 0.72809 0.37771 0.0
C162 C 0.8395 0.79106 0.30558 0.0
C163 C 0.82767 0.73065 0.28136 0.0
C164 C 0.81933 0.67017 0.3068 0.0
C165 C 0.82504 0.66904 0.35444 0.0
C166 C 0.81201 0.6698 0.15698 0.0
C167 C 0.83829 0.70613 0.13443 0.0
C168 C 0.80707 0.68115 0.20414 0.0
C169 C 0.8286 0.72825 0.2297 0.0
C170 C 0.85387 0.767 0.20618 0.0
C171 C 0.85858 0.7562 0.15926 0.0
H172 H 0.63 0.64662 0.90995 0.0
H173 H 0.5417 0.5096 0.92169 0.0
H174 H 0.62919 0.62874 0.82642 0.0
H175 H 0.54126 0.4904 0.83813 0.0
H176 H 0.6245 0.5779 0.67523 0.0
H177 H 0.62959 0.55775 0.75854 0.0
H178 H 0.53231 0.56592 0.77648 0.0
H179 H 0.52696 0.58272 0.69357 0.0
C180 C 0.61085 0.61113 0.89491 0.0
C181 C 0.58559 0.5807 0.92233 0.0
C182 C 0.61046 0.60057 0.84694 0.0
C183 C 0.58489 0.55904 0.82548 0.0
C184 C 0.56097 0.5239 0.8535 0.0
C185 C 0.56128 0.53472 0.90142 0.0
C186 C 0.60408 0.57357 0.69699 0.0
C187 C 0.57529 0.5815 0.678 0.0
C188 C 0.607 0.56234 0.74464 0.0
C189 C 0.58127 0.55976 0.77417 0.0
C190 C 0.55232 0.56536 0.75465 0.0
C191 C 0.54929 0.57544 0.70707 0.0
H192 H 0.88728 0.81858 0.65082 0.0
H193 H 0.8012 0.67645 0.63145 0.0
H194 H 0.87856 0.81753 0.73392 0.0
H195 H 0.79155 0.67756 0.71473 0.0
H196 H 0.85962 0.81551 0.88256 0.0
H197 H 0.85237 0.83948 0.80098 0.0
H198 H 0.81286 0.62776 0.77796 0.0
H199 H 0.81845 0.60494 0.86008 0.0
C200 C 0.86592 0.78893 0.66421 0.0
C201 C 0.84524 0.74658 0.63481 0.0
C202 C 0.86078 0.78846 0.71203 0.0
C203 C 0.83456 0.74643 0.73136 0.0
C204 C 0.81242 0.70901 0.70125 0.0
C205 C 0.81783 0.70868 0.65349 0.0
C206 C 0.84866 0.77444 0.86032 0.0
C207 C 0.83993 0.70814 0.87771 0.0
C208 C 0.84471 0.7881 0.81336 0.0
C209 C 0.83258 0.73545 0.78249 0.0
C210 C 0.82201 0.66993 0.80057 0.0
C211 C 0.82542 0.65658 0.84775 0.0
H212 H 0.6304 0.65577 0.19347 0.0
H213 H 0.54915 0.49817 0.1777 0.0
H214 H 0.63142 0.63229 0.27626 0.0
H215 H 0.55089 0.473 0.26036 0.0
H216 H 0.53088 0.55644 0.40628 0.0
H217 H 0.53711 0.54078 0.32371 0.0
H218 H 0.63635 0.55915 0.34245 0.0
H219 H 0.6303 0.57856 0.42554 0.0
C220 C 0.61334 0.61467 0.20739 0.0
C221 C 0.58932 0.57982 0.1792 0.0
C222 C 0.61402 0.60088 0.25492 0.0
C223 C 0.59085 0.55156 0.27511 0.0
C224 C 0.56856 0.5125 0.24606 0.0
C225 C 0.56766 0.52676 0.19866 0.0
C226 C 0.55397 0.55527 0.39315 0.0
C227 C 0.58015 0.56987 0.42228 0.0
C228 C 0.5575 0.54552 0.3457 0.0
C229 C 0.58719 0.54848 0.32639 0.0
C230 C 0.61319 0.55745 0.35619 0.0
C231 C 0.60972 0.56831 0.40373 0.0
H232 H 0.16388 0.17284 0.87588 0.0
H233 H 0.21164 0.37917 0.8542 0.0
H234 H 0.16795 0.14937 0.7937 0.0
H235 H 0.21409 0.35704 0.77157 0.0
H236 H 0.2207 0.30912 0.62443 0.0
H237 H 0.23192 0.30362 0.70715 0.0
H238 H 0.14134 0.17846 0.72812 0.0
H239 H 0.13096 0.18138 0.64528 0.0
C240 C 0.17568 0.21299 0.85373 0.0
C241 C 0.18721 0.27812 0.87159 0.0
C242 C 0.17776 0.19965 0.80642 0.0
C243 C 0.19085 0.25148 0.7757 0.0
C244 C 0.20412 0.31547 0.79408 0.0
C245 C 0.20252 0.32846 0.84156 0.0
C246 C 0.20357 0.27898 0.6467 0.0
C247 C 0.17478 0.24644 0.62869 0.0
C248 C 0.2099 0.27622 0.69413 0.0
C249 C 0.18731 0.24191 0.72461 0.0
C250 C 0.15946 0.20499 0.70585 0.0
C251 C 0.15338 0.2068 0.65826 0.0
H252 H 0.50404 0.43008 0.37502 0.0
H253 H 0.4063 0.43411 0.39207 0.0
H254 H 0.49906 0.44609 0.29201 0.0
H255 H 0.40156 0.45305 0.30853 0.0
H256 H 0.49041 0.49856 0.14642 0.0
H257 H 0.48998 0.52048 0.22953 0.0
H258 H 0.40273 0.37988 0.2415 0.0
H259 H 0.40277 0.35919 0.15832 0.0
C260 C 0.48175 0.4371 0.36123 0.0
C261 C 0.45559 0.43095 0.38999 0.0
C262 C 0.47892 0.44668 0.31357 0.0
C263 C 0.45001 0.45153 0.29362 0.0
C264 C 0.42412 0.44906 0.32281 0.0
C265 C 0.42685 0.4385 0.37057 0.0
C266 C 0.47075 0.47354 0.16657 0.0
C267 C 0.44694 0.42597 0.14589 0.0
C268 C 0.47056 0.48596 0.21426 0.0
C269 C 0.44663 0.45093 0.24228 0.0
C270 C 0.42147 0.40795 0.22094 0.0
C271 C 0.42158 0.39573 0.17318 0.0
H272 H 0.92167 0.47147 -0.00935 0.0
H273 H 0.98158 0.6602 0.028 0.0
H274 H 0.96641 0.41472 -0.0102 0.0
H275 H 0.02614 0.603 0.02909 0.0
H276 H 0.10415 0.5021 0.97808 0.0
H277 H 0.05888 0.55635 0.97901 0.0
H278 H 1.00384 0.37364 0.03617 0.0
H279 H 0.04916 0.31824 0.03338 0.0
C280 C 0.94437 0.50075 -0.00089 0.0
C281 C 0.94805 0.57051 0.00915 0.0
C282 C 0.97005 0.46804 -0.00107 0.0
C283 C 1.00004 0.5041 0.00926 0.0
C284 C 1.00356 0.57372 0.02001 0.0
C285 C 0.97795 0.60657 0.01967 0.0
C286 C 0.08241 0.47336 -0.00912 0.0
C287 C 0.08032 0.40579 0.00575 0.0
C288 C 0.0564 0.50475 -0.00827 0.0
C289 C 0.02761 0.46978 0.00803 0.0
C290 C 0.02549 0.402 0.02284 0.0
C291 C 0.05152 0.37025 0.02148 0.0
H292 H 0.49273 0.80652 0.56228 0.0
H293 H 0.58469 0.90094 0.51755 0.0
H294 H 0.476 0.91574 0.55844 0.0
H295 H 0.56763 0.00984 0.51159 0.0
H296 H 0.53711 0.20714 0.55035 0.0
H297 H 0.55377 0.09806 0.55582 0.0
H298 H 0.46335 0.99767 0.50685 0.0
H299 H 0.44629 0.10684 0.50348 0.0
C300 C 0.50932 0.85059 0.55124 0.0
C301 C 0.54007 0.84509 0.5403 0.0
C302 C 0.49966 0.91326 0.5487 0.0
C303 C 0.52038 0.97192 0.53456 0.0
C304 C 0.55113 0.96618 0.52342 0.0
C305 C 0.56091 0.90361 0.52657 0.0
C306 C 0.52076 0.16176 0.5408 0.0
C307 C 0.49034 0.16566 0.52657 0.0
C308 C 0.5304 0.09909 0.54362 0.0
C309 C 0.50999 0.03873 0.53167 0.0
C310 C 0.47958 0.04281 0.51714 0.0
C311 C 0.46981 0.10548 0.51491 0.0
H312 H 0.10671 0.52341 0.5307 0.0
H313 H 0.04783 0.34351 0.47603 0.0
H314 H 0.06164 0.58019 0.53388 0.0
H315 H 1.0035 0.40026 0.47773 0.0
H316 H 0.92262 0.49203 0.52803 0.0
H317 H 0.96837 0.43817 0.52907 0.0
H318 H 0.02575 0.62766 0.48729 0.0
H319 H 0.98033 0.68183 0.48784 0.0
C320 C 0.08429 0.49624 0.51899 0.0
C321 C 0.08093 0.4288 0.50341 0.0
C322 C 0.05842 0.52876 0.52067 0.0
C323 C 0.0287 0.49466 0.50647 0.0
C324 C 0.02569 0.42772 0.49009 0.0
C325 C 0.05133 0.39526 0.48877 0.0
C326 C 0.945 0.52216 0.51911 0.0
C327 C 0.94768 0.5912 0.50774 0.0
C328 C 0.97129 0.49125 0.51949 0.0
C329 C 1.00091 0.5284 0.50807 0.0
C330 C 1.00353 0.59756 0.49695 0.0
C331 C 0.97732 0.62854 0.49692 0.0
H332 H 0.50041 0.80641 0.07279 0.0
H333 H 0.59038 0.90352 0.02183 0.0
H334 H 0.48185 0.91341 0.06668 0.0
H335 H 0.57146 0.01008 0.01365 0.0
H336 H 0.53778 0.20649 0.04656 0.0
H337 H 0.55678 0.1003 0.05478 0.0
H338 H 0.46665 0.98921 0.01269 0.0
H339 H 0.44731 0.09554 0.00656 0.0
C340 C 0.5162 0.85061 0.06003 0.0
C341 C 0.54689 0.84645 0.04785 0.0
C342 C 0.50547 0.91198 0.05614 0.0
C343 C 0.52502 0.97065 0.03937 0.0
C344 C 0.55582 0.96641 0.02738 0.0
C345 C 0.56668 0.90516 0.03187 0.0
C346 C 0.52202 0.15938 0.039 0.0
C347 C 0.491 0.1595 0.02596 0.0
C348 C 0.53299 0.09835 0.04345 0.0
C349 C 0.51333 0.03581 0.03442 0.0
C350 C 0.48236 0.03612 0.02084 0.0
C351 C 0.47127 0.09718 0.01697 0.0
H352 H 0.17292 0.14523 0.95324 0.0
H353 H 0.1651 0.06809 0.09258 0.0
H354 H 0.22927 0.17638 0.96183 0.0
H355 H 0.2219 0.09278 0.10074 0.0
H356 H 0.31715 0.23404 0.11987 0.0
H357 H 0.2616 0.19158 0.11072 0.0
H358 H 0.27664 0.13651 0.96859 0.0
H359 H 0.33205 0.1814 0.97731 0.0
C360 C 0.18345 0.13687 -0.01389 0.0
C361 C 0.16481 0.10992 0.02338 0.0
C362 C 0.21578 0.15227 -0.00929 0.0
C363 C 0.23027 0.13861 0.03252 0.0
C364 C 0.21154 0.10596 0.06856 0.0
C365 C 0.17908 0.09133 0.06386 0.0
C366 C 0.30864 0.21247 0.08675 0.0
C367 C 0.32905 0.21153 0.04923 0.0
C368 C 0.27676 0.18762 0.08158 0.0
C369 C 0.26451 0.1606 0.03887 0.0
C370 C 0.28511 0.15799 0.00175 0.0
C371 C 0.31695 0.18342 0.0068 0.0
H372 H 0.75048 0.49694 0.60837 0.0
H373 H 0.76542 0.50442 0.46005 0.0
H374 H 0.69453 0.46702 0.59537 0.0
H375 H 0.70952 0.47654 0.44708 0.0
H376 H 0.60803 0.36759 0.44091 0.0
H377 H 0.66409 0.39101 0.45284 0.0
H378 H 0.65272 0.52071 0.56905 0.0
H379 H 0.59646 0.49555 0.55793 0.0
C380 C 0.74189 0.49148 0.57297 0.0
C381 C 0.76253 0.50321 0.53529 0.0
C382 C 0.70973 0.47516 0.5655 0.0
C383 C 0.69738 0.47035 0.52015 0.0
C384 C 0.71812 0.47933 0.48248 0.0
C385 C 0.75028 0.49534 0.48994 0.0
C386 C 0.61747 0.40134 0.46892 0.0
C387 C 0.5977 0.42918 0.49872 0.0
C388 C 0.6497 0.41501 0.47566 0.0
C389 C 0.66304 0.45719 0.51223 0.0
C390 C 0.64327 0.48669 0.5412 0.0
C391 C 0.611 0.47276 0.53458 0.0
H392 H 0.86023 0.84663 0.96148 0.0
H393 H 0.87654 0.90104 0.105 0.0
H394 H 0.80442 0.81675 0.97567 0.0
H395 H 0.82037 0.87587 0.1195 0.0
H396 H 0.72495 0.73518 0.13865 0.0
H397 H 0.78001 0.77794 0.12587 0.0
H398 H 0.7585 0.85896 -0.007 0.0
H399 H 0.70338 0.81496 0.00539 0.0
C400 C 0.85166 0.85117 -0.0038 0.0
C401 C 0.87249 0.87221 0.03257 0.0
C402 C 0.81967 0.83588 0.00428 0.0
C403 C 0.80776 0.84298 0.04898 0.0
C404 C 0.82871 0.86834 0.08488 0.0
C405 C 0.86081 0.88324 0.07662 0.0
C406 C 0.73191 0.76242 0.10678 0.0
C407 C 0.70971 0.77113 0.07287 0.0
C408 C 0.76355 0.7873 0.09956 0.0
C409 C 0.77385 0.82146 0.05822 0.0
C410 C 0.75152 0.8318 0.02488 0.0
C411 C 0.71985 0.80687 0.03208 0.0
H412 H 0.41634 0.61724 0.62241 0.0
H413 H 0.43923 0.51505 0.49871 0.0
H414 H 0.36104 0.57558 0.60774 0.0
H415 H 0.38418 0.47432 0.48376 0.0
H416 H 0.2876 0.34827 0.50254 0.0
H417 H 0.34193 0.39423 0.51694 0.0
H418 H 0.31828 0.58789 0.55297 0.0
H419 H 0.26304 0.54097 0.53918 0.0
C420 C 0.4096 0.58603 0.59205 0.0
C421 C 0.43223 0.56934 0.56177 0.0
C422 C 0.37789 0.56261 0.58347 0.0
C423 C 0.36814 0.52182 0.54452 0.0
C424 C 0.39084 0.50505 0.51437 0.0
C425 C 0.42246 0.52849 0.5229 0.0
C426 C 0.29378 0.40081 0.5134 0.0
C427 C 0.27085 0.44097 0.51967 0.0
C428 C 0.3251 0.42728 0.5214 0.0
C429 C 0.33454 0.49481 0.53591 0.0
C430 C 0.31171 0.53542 0.54215 0.0
C431 C 0.28013 0.5088 0.53394 0.0
loop_
_geom_bond_atom_site_label_1
_geom_bond_atom_site_label_2
_geom_bond_distance
_geom_bond_site_symmetry_2
_ccdc_geom_bond_type
Zn0 O3 2.031 1_554 S
Zn0 O5 2.049 . S
Zn0 O10 2.067 . S
Zn1 O2 1.962 1_554 S
Zn1 O4 1.986 . S
Zn1 O6 1.996 . S
Zn1 O9 1.943 . S
O2 Zn1 1.962 1_556 S
O2 C7 1.254 . S
O3 Zn0 2.031 1_556 S
O3 C7 1.269 . S
O4 Zn1 1.986 . S
O4 C11 1.262 . S
O5 Zn0 2.049 . S
O5 C13 1.260 . S
O6 Zn1 1.996 . S
O6 C13 1.257 . S
C7 O2 1.254 . S
C7 O3 1.269 . S
C8 O9 1.249 . S
C8 O10 1.270 . S
O9 Zn1 1.943 . S
O9 C8 1.249 . S
O10 Zn0 2.067 . S
O10 C8 1.270 . S
C11 O4 1.262 . S
C11 O12 1.232 1_554 S
O12 C11 1.232 1_556 S
C13 O5 1.260 . S
C13 O6 1.257 . S
Zn14 O17 2.031 . S
Zn14 O19 2.049 . S
Zn14 O24 2.067 . S
Zn15 O16 1.962 . S
Zn15 O18 1.986 . S
Zn15 O20 1.996 . S
Zn15 O23 1.943 . S
O16 Zn15 1.962 . S
O16 C21 1.254 . S
O17 Zn14 2.031 . S
O17 C21 1.269 . S
O18 Zn15 1.986 . S
O18 C25 1.262 . S
O19 Zn14 2.049 . S
O19 C27 1.260 . S
O20 Zn15 1.996 . S
O20 C27 1.257 . S
C21 O16 1.254 . S
C21 O17 1.269 . S
C22 O23 1.249 . S
C22 O24 1.270 . S
O23 Zn15 1.943 . S
O23 C22 1.249 . S
O24 Zn14 2.067 . S
O24 C22 1.270 . S
C25 O18 1.262 . S
C25 O26 1.232 . S
O26 C25 1.232 . S
C27 O19 1.260 . S
C27 O20 1.257 . S
Zn28 O31 2.031 1_554 S
Zn28 O33 2.049 . S
Zn28 O38 2.067 . S
Zn29 O30 1.962 1_554 S
Zn29 O32 1.986 . S
Zn29 O34 1.996 . S
Zn29 O37 1.943 . S
O30 Zn29 1.962 1_556 S
O30 C35 1.254 . S
O31 Zn28 2.031 1_556 S
O31 C35 1.269 . S
O32 Zn29 1.986 . S
O32 C39 1.262 . S
O33 Zn28 2.049 . S
O33 C41 1.260 . S
O34 Zn29 1.996 . S
O34 C41 1.257 . S
C35 O30 1.254 . S
C35 O31 1.269 . S
C36 O37 1.249 . S
C36 O38 1.270 . S
O37 Zn29 1.943 . S
O37 C36 1.249 . S
O38 Zn28 2.067 . S
O38 C36 1.270 . S
C39 O32 1.262 . S
C39 O40 1.232 1_554 S
O40 C39 1.232 1_556 S
C41 O33 1.260 . S
C41 O34 1.257 . S
Zn42 O45 2.031 . S
Zn42 O47 2.049 . S
Zn42 O52 2.067 . S
Zn43 O44 1.962 . S
Zn43 O46 1.986 . S
Zn43 O48 1.996 . S
Zn43 O51 1.943 . S
O44 Zn43 1.962 . S
O44 C49 1.254 . S
O45 Zn42 2.031 . S
O45 C49 1.269 . S
O46 Zn43 1.986 . S
O46 C53 1.262 . S
O47 Zn42 2.049 . S
O47 C55 1.260 . S
O48 Zn43 1.996 . S
O48 C55 1.257 . S
C49 O44 1.254 . S
C49 O45 1.269 . S
C50 O51 1.249 . S
C50 O52 1.270 . S
O51 Zn43 1.943 . S
O51 C50 1.249 . S
O52 Zn42 2.067 . S
O52 C50 1.270 . S
C53 O46 1.262 . S
C53 O54 1.232 . S
O54 C53 1.232 . S
C55 O47 1.260 . S
C55 O48 1.257 . S
Zn56 O59 2.031 . S
Zn56 O61 2.049 . S
Zn56 O66 2.067 . S
Zn57 O58 1.962 . S
Zn57 O60 1.986 . S
Zn57 O62 1.996 . S
Zn57 O65 1.943 . S
O58 Zn57 1.962 . S
O58 C63 1.254 . S
O59 Zn56 2.031 . S
O59 C63 1.269 . S
O60 Zn57 1.986 . S
O60 C67 1.262 . S
O61 Zn56 2.049 . S
O61 C69 1.260 . S
O62 Zn57 1.996 . S
O62 C69 1.257 . S
C63 O58 1.254 . S
C63 O59 1.269 . S
C64 O65 1.249 . S
C64 O66 1.270 . S
O65 Zn57 1.943 . S
O65 C64 1.249 . S
O66 Zn56 2.067 . S
O66 C64 1.270 . S
C67 O60 1.262 . S
C67 O68 1.232 . S
O68 C67 1.232 . S
C69 O61 1.260 . S
C69 O62 1.257 . S
Zn70 O73 2.031 . S
Zn70 O75 2.049 1_554 S
Zn70 O80 2.067 . S
Zn71 O72 1.962 . S
Zn71 O74 1.986 . S
Zn71 O76 1.996 . S
Zn71 O79 1.943 . S
O72 Zn71 1.962 . S
O72 C77 1.254 . S
O73 Zn70 2.031 . S
O73 C77 1.269 . S
O74 Zn71 1.986 . S
O74 C81 1.262 . S
O75 Zn70 2.049 1_556 S
O75 C83 1.260 . S
O76 Zn71 1.996 . S
O76 C83 1.257 1_554 S
C77 O72 1.254 . S
C77 O73 1.269 . S
C78 O79 1.249 . S
C78 O80 1.270 . S
O79 Zn71 1.943 . S
O79 C78 1.249 . S
O80 Zn70 2.067 . S
O80 C78 1.270 . S
C81 O74 1.262 . S
C81 O82 1.232 . S
O82 C81 1.232 . S
C83 O75 1.260 . S
C83 O76 1.257 1_556 S
Zn84 O87 2.031 . S
Zn84 O89 2.049 . S
Zn84 O94 2.067 . S
Zn85 O86 1.962 . S
Zn85 O88 1.986 . S
Zn85 O90 1.996 . S
Zn85 O93 1.943 . S
O86 Zn85 1.962 . S
O86 C91 1.254 . S
O87 Zn84 2.031 . S
O87 C91 1.269 . S
O88 Zn85 1.986 . S
O88 C95 1.262 . S
O89 Zn84 2.049 . S
O89 C97 1.260 . S
O90 Zn85 1.996 . S
O90 C97 1.257 . S
C91 O86 1.254 . S
C91 O87 1.269 . S
C92 O93 1.249 . S
C92 O94 1.270 . S
O93 Zn85 1.943 . S
O93 C92 1.249 . S
O94 Zn84 2.067 . S
O94 C92 1.270 . S
C95 O88 1.262 . S
C95 O96 1.232 . S
O96 C95 1.232 . S
C97 O89 1.260 . S
C97 O90 1.257 . S
Zn98 O101 2.031 . S
Zn98 O103 2.049 1_554 S
Zn98 O108 2.067 . S
Zn99 O100 1.962 . S
Zn99 O102 1.986 . S
Zn99 O104 1.996 . S
Zn99 O107 1.943 . S
O100 Zn99 1.962 . S
O100 C105 1.254 . S
O101 Zn98 2.031 . S
O101 C105 1.269 . S
O102 Zn99 1.986 . S
O102 C109 1.262 . S
O103 Zn98 2.049 1_556 S
O103 C111 1.260 . S
O104 Zn99 1.996 . S
O104 C111 1.257 1_554 S
C105 O100 1.254 . S
C105 O101 1.269 . S
C106 O107 1.249 . S
C106 O108 1.270 . S
O107 Zn99 1.943 . S
O107 C106 1.249 . S
O108 Zn98 2.067 . S
O108 C106 1.270 . S
C109 O102 1.262 . S
C109 O110 1.232 . S
O110 C109 1.232 . S
C111 O103 1.260 . S
C111 O104 1.257 1_556 S
H112 C120 0.950 . S
H113 C125 0.950 . S
H114 C122 0.950 . S
H115 C124 0.950 . S
H116 C126 0.950 . S
H117 C128 0.950 . S
H118 C130 0.950 . S
H119 C131 0.950 . S
C120 H112 0.950 . S
C120 C121 1.386 . S
C120 C122 1.391 . S
C121 C120 1.386 . S
C121 C125 1.393 . S
C122 H114 0.950 . S
C122 C120 1.391 . S
C122 C123 1.400 . S
C123 C122 1.400 . S
C123 C124 1.398 . S
C123 C129 1.491 . S
C124 H115 0.950 . S
C124 C123 1.398 . S
C124 C125 1.391 . S
C125 H113 0.950 . S
C125 C121 1.393 . S
C125 C124 1.391 . S
C126 H116 0.950 . S
C126 C127 1.386 . S
C126 C128 1.391 . S
C127 C126 1.386 . S
C127 C131 1.393 . S
C128 H117 0.950 . S
C128 C126 1.391 . S
C128 C129 1.400 . S
C129 C123 1.491 . S
C129 C128 1.400 . S
C129 C130 1.398 . S
C130 H118 0.950 . S
C130 C129 1.398 . S
C130 C131 1.391 . S
C131 H119 0.950 . S
C131 C127 1.393 . S
C131 C130 1.391 . S
H132 C140 0.950 . S
H133 C145 0.950 . S
H134 C142 0.950 . S
H135 C144 0.950 . S
H136 C146 0.950 . S
H137 C148 0.950 . S
H138 C150 0.950 . S
H139 C151 0.950 . S
C140 H132 0.950 . S
C140 C141 1.386 . S
C140 C142 1.391 . S
C141 C140 1.386 . S
C141 C145 1.393 . S
C142 H134 0.950 . S
C142 C140 1.391 . S
C142 C143 1.400 . S
C143 C142 1.400 . S
C143 C144 1.398 . S
C143 C149 1.491 . S
C144 H135 0.950 . S
C144 C143 1.398 . S
C144 C145 1.391 . S
C145 H133 0.950 . S
C145 C141 1.393 . S
C145 C144 1.391 . S
C146 H136 0.950 . S
C146 C147 1.386 . S
C146 C148 1.391 . S
C147 C146 1.386 . S
C147 C151 1.393 . S
C148 H137 0.950 . S
C148 C146 1.391 . S
C148 C149 1.400 . S
C149 C143 1.491 . S
C149 C148 1.400 . S
C149 C150 1.398 . S
C150 H138 0.950 . S
C150 C149 1.398 . S
C150 C151 1.391 . S
C151 H139 0.950 . S
C151 C147 1.393 . S
C151 C150 1.391 . S
H152 C160 0.950 . S
H153 C165 0.950 . S
H154 C162 0.950 . S
H155 C164 0.950 . S
H156 C166 0.950 . S
H157 C168 0.950 . S
H158 C170 0.950 . S
H159 C171 0.950 . S
C160 H152 0.950 . S
C160 C161 1.386 . S
C160 C162 1.391 . S
C161 C160 1.386 . S
C161 C165 1.393 . S
C162 H154 0.950 . S
C162 C160 1.391 . S
C162 C163 1.400 . S
C163 C162 1.400 . S
C163 C164 1.398 . S
C163 C169 1.491 . S
C164 H155 0.950 . S
C164 C163 1.398 . S
C164 C165 1.391 . S
C165 H153 0.950 . S
C165 C161 1.393 . S
C165 C164 1.391 . S
C166 H156 0.950 . S
C166 C167 1.386 . S
C166 C168 1.391 . S
C167 C166 1.386 . S
C167 C171 1.393 . S
C168 H157 0.950 . S
C168 C166 1.391 . S
C168 C169 1.400 . S
C169 C163 1.491 . S
C169 C168 1.400 . S
C169 C170 1.398 . S
C170 H158 0.950 . S
C170 C169 1.398 . S
C170 C171 1.391 . S
C171 H159 0.950 . S
C171 C167 1.393 . S
C171 C170 1.391 . S
H172 C180 0.950 . S
H173 C185 0.950 . S
H174 C182 0.950 . S
H175 C184 0.950 . S
H176 C186 0.950 . S
H177 C188 0.950 . S
H178 C190 0.950 . S
H179 C191 0.950 . S
C180 H172 0.950 . S
C180 C181 1.386 . S
C180 C182 1.391 . S
C181 C180 1.386 . S
C181 C185 1.393 . S
C182 H174 0.950 . S
C182 C180 1.391 . S
C182 C183 1.400 . S
C183 C182 1.400 . S
C183 C184 1.398 . S
C183 C189 1.491 . S
C184 H175 0.950 . S
C184 C183 1.398 . S
C184 C185 1.391 . S
C185 H173 0.950 . S
C185 C181 1.393 . S
C185 C184 1.391 . S
C186 H176 0.950 . S
C186 C187 1.386 . S
C186 C188 1.391 . S
C187 C186 1.386 . S
C187 C191 1.393 . S
C188 H177 0.950 . S
C188 C186 1.391 . S
C188 C189 1.400 . S
C189 C183 1.491 . S
C189 C188 1.400 . S
C189 C190 1.398 . S
C190 H178 0.950 . S
C190 C189 1.398 . S
C190 C191 1.391 . S
C191 H179 0.950 . S
C191 C187 1.393 . S
C191 C190 1.391 . S
H192 C200 0.950 . S
H193 C205 0.950 . S
H194 C202 0.950 . S
H195 C204 0.950 . S
H196 C206 0.950 . S
H197 C208 0.950 . S
H198 C210 0.950 . S
H199 C211 0.950 . S
C200 H192 0.950 . S
C200 C201 1.386 . S
C200 C202 1.391 . S
C201 C200 1.386 . S
C201 C205 1.393 . S
C202 H194 0.950 . S
C202 C200 1.391 . S
C202 C203 1.400 . S
C203 C202 1.400 . S
C203 C204 1.398 . S
C203 C209 1.491 . S
C204 H195 0.950 . S
C204 C203 1.398 . S
C204 C205 1.391 . S
C205 H193 0.950 . S
C205 C201 1.393 . S
C205 C204 1.391 . S
C206 H196 0.950 . S
C206 C207 1.386 . S
C206 C208 1.391 . S
C207 C206 1.386 . S
C207 C211 1.393 . S
C208 H197 0.950 . S
C208 C206 1.391 . S
C208 C209 1.400 . S
C209 C203 1.491 . S
C209 C208 1.400 . S
C209 C210 1.398 . S
C210 H198 0.950 . S
C210 C209 1.398 . S
C210 C211 1.391 . S
C211 H199 0.950 . S
C211 C207 1.393 . S
C211 C210 1.391 . S
H212 C220 0.950 . S
H213 C225 0.950 . S
H214 C222 0.950 . S
H215 C224 0.950 . S
H216 C226 0.950 . S
H217 C228 0.950 . S
H218 C230 0.950 . S
H219 C231 0.950 . S
C220 H212 0.950 . S
C220 C221 1.386 . S
C220 C222 1.391 . S
C221 C220 1.386 . S
C221 C225 1.393 . S
C222 H214 0.950 . S
C222 C220 1.391 . S
C222 C223 1.400 . S
C223 C222 1.400 . S
C223 C224 1.398 . S
C223 C229 1.491 . S
C224 H215 0.950 . S
C224 C223 1.398 . S
C224 C225 1.391 . S
C225 H213 0.950 . S
C225 C221 1.393 . S
C225 C224 1.391 . S
C226 H216 0.950 . S
C226 C227 1.386 . S
C226 C228 1.391 . S
C227 C226 1.386 . S
C227 C231 1.393 . S
C228 H217 0.950 . S
C228 C226 1.391 . S
C228 C229 1.400 . S
C229 C223 1.491 . S
C229 C228 1.400 . S
C229 C230 1.398 . S
C230 H218 0.950 . S
C230 C229 1.398 . S
C230 C231 1.391 . S
C231 H219 0.950 . S
C231 C227 1.393 . S
C231 C230 1.391 . S
H232 C240 0.950 . S
H233 C245 0.950 . S
H234 C242 0.950 . S
H235 C244 0.950 . S
H236 C246 0.950 . S
H237 C248 0.950 . S
H238 C250 0.950 . S
H239 C251 0.950 . S
C240 H232 0.950 . S
C240 C241 1.386 . S
C240 C242 1.391 . S
C241 C240 1.386 . S
C241 C245 1.393 . S
C242 H234 0.950 . S
C242 C240 1.391 . S
C242 C243 1.400 . S
C243 C242 1.400 . S
C243 C244 1.398 . S
C243 C249 1.491 . S
C244 H235 0.950 . S
C244 C243 1.398 . S
C244 C245 1.391 . S
C245 H233 0.950 . S
C245 C241 1.393 . S
C245 C244 1.391 . S
C246 H236 0.950 . S
C246 C247 1.386 . S
C246 C248 1.391 . S
C247 C246 1.386 . S
C247 C251 1.393 . S
C248 H237 0.950 . S
C248 C246 1.391 . S
C248 C249 1.400 . S
C249 C243 1.491 . S
C249 C248 1.400 . S
C249 C250 1.398 . S
C250 H238 0.950 . S
C250 C249 1.398 . S
C250 C251 1.391 . S
C251 H239 0.950 . S
C251 C247 1.393 . S
C251 C250 1.391 . S
H252 C260 0.950 . S
H253 C265 0.950 . S
H254 C262 0.950 . S
H255 C264 0.950 . S
H256 C266 0.950 . S
H257 C268 0.950 . S
H258 C270 0.950 . S
H259 C271 0.950 . S
C260 H252 0.950 . S
C260 C261 1.386 . S
C260 C262 1.391 . S
C261 C260 1.386 . S
C261 C265 1.393 . S
C262 H254 0.950 . S
C262 C260 1.391 . S
C262 C263 1.400 . S
C263 C262 1.400 . S
C263 C264 1.398 . S
C263 C269 1.491 . S
C264 H255 0.950 . S
C264 C263 1.398 . S
C264 C265 1.391 . S
C265 H253 0.950 . S
C265 C261 1.393 . S
C265 C264 1.391 . S
C266 H256 0.950 . S
C266 C267 1.386 . S
C266 C268 1.391 . S
C267 C266 1.386 . S
C267 C271 1.393 . S
C268 H257 0.950 . S
C268 C266 1.391 . S
C268 C269 1.400 . S
C269 C263 1.491 . S
C269 C268 1.400 . S
C269 C270 1.398 . S
C270 H258 0.950 . S
C270 C269 1.398 . S
C270 C271 1.391 . S
C271 H259 0.950 . S
C271 C267 1.393 . S
C271 C270 1.391 . S
H272 C280 0.950 . S
H273 C285 0.950 1_455 S
H274 C282 0.950 . S
H275 C284 0.951 . S
H276 C286 0.950 . S
H277 C288 0.950 . S
H278 C290 0.951 . S
H279 C291 0.950 1_655 S
C280 H272 0.950 . S
C280 C281 1.386 . S
C280 C282 1.391 . S
C281 C280 1.386 . S
C281 C285 1.394 1_554 S
C282 H274 0.950 . S
C282 C280 1.391 . S
C282 C283 1.409 . S
C283 C282 1.409 . S
C283 C284 1.402 1_654 S
C283 C289 1.471 1_655 S
C284 H275 0.951 . S
C284 C283 1.402 1_456 S
C284 C285 1.387 1_455 S
C285 H273 0.950 1_655 S
C285 C281 1.394 1_556 S
C285 C284 1.387 1_655 S
C286 H276 0.950 . S
C286 C287 1.386 1_556 S
C286 C288 1.391 . S
C287 C286 1.386 1_554 S
C287 C291 1.394 . S
C288 H277 0.950 . S
C288 C286 1.391 . S
C288 C289 1.409 1_556 S
C289 C283 1.471 1_455 S
C289 C288 1.409 1_554 S
C289 C290 1.402 1_455 S
C290 H278 0.951 . S
C290 C289 1.402 1_655 S
C290 C291 1.387 1_655 S
C291 H279 0.950 1_455 S
C291 C287 1.394 . S
C291 C290 1.387 1_455 S
H292 C300 0.950 . S
H293 C305 0.950 . S
H294 C302 0.950 . S
H295 C304 0.950 . S
H296 C306 0.950 . S
H297 C308 0.950 . S
H298 C310 0.950 . S
H299 C311 0.950 . S
C300 H292 0.950 . S
C300 C301 1.386 . S
C300 C302 1.391 . S
C301 C300 1.386 . S
C301 C305 1.393 . S
C302 H294 0.950 . S
C302 C300 1.391 . S
C302 C303 1.400 . S
C303 C302 1.400 . S
C303 C304 1.398 . S
C303 C309 1.491 1_565 S
C304 H295 0.950 . S
C304 C303 1.398 . S
C304 C305 1.391 . S
C305 H293 0.950 . S
C305 C301 1.393 . S
C305 C304 1.391 . S
C306 H296 0.950 . S
C306 C307 1.386 . S
C306 C308 1.391 . S
C307 C306 1.386 . S
C307 C311 1.393 . S
C308 H297 0.950 . S
C308 C306 1.391 . S
C308 C309 1.400 . S
C309 C303 1.491 1_545 S
C309 C308 1.400 . S
C309 C310 1.398 . S
C310 H298 0.950 . S
C310 C309 1.398 . S
C310 C311 1.391 . S
C311 H299 0.950 . S
C311 C307 1.393 . S
C311 C310 1.391 . S
H312 C320 0.950 . S
H313 C325 0.950 . S
H314 C322 0.950 . S
H315 C324 0.950 1_655 S
H316 C326 0.950 . S
H317 C328 0.950 . S
H318 C330 0.950 1_455 S
H319 C331 0.950 . S
C320 H312 0.950 . S
C320 C321 1.386 . S
C320 C322 1.391 . S
C321 C320 1.386 . S
C321 C325 1.393 . S
C322 H314 0.950 . S
C322 C320 1.391 . S
C322 C323 1.400 . S
C323 C322 1.400 . S
C323 C324 1.398 . S
C323 C329 1.491 1_455 S
C324 H315 0.950 1_455 S
C324 C323 1.398 . S
C324 C325 1.391 . S
C325 H313 0.950 . S
C325 C321 1.393 . S
C325 C324 1.391 . S
C326 H316 0.950 . S
C326 C327 1.386 . S
C326 C328 1.391 . S
C327 C326 1.386 . S
C327 C331 1.393 . S
C328 H317 0.950 . S
C328 C326 1.391 . S
C328 C329 1.400 . S
C329 C323 1.491 1_655 S
C329 C328 1.400 . S
C329 C330 1.398 . S
C330 H318 0.950 1_655 S
C330 C329 1.398 . S
C330 C331 1.391 . S
C331 H319 0.950 . S
C331 C327 1.393 . S
C331 C330 1.391 . S
H332 C340 0.950 . S
H333 C345 0.950 . S
H334 C342 0.950 . S
H335 C344 0.950 1_545 S
H336 C346 0.950 . S
H337 C348 0.950 . S
H338 C350 0.950 1_565 S
H339 C351 0.950 . S
C340 H332 0.950 . S
C340 C341 1.386 . S
C340 C342 1.391 . S
C341 C340 1.386 . S
C341 C345 1.393 . S
C342 H334 0.950 . S
C342 C340 1.391 . S
C342 C343 1.400 . S
C343 C342 1.400 . S
C343 C344 1.398 . S
C343 C349 1.491 1_565 S
C344 H335 0.950 1_565 S
C344 C343 1.398 . S
C344 C345 1.391 . S
C345 H333 0.950 . S
C345 C341 1.393 . S
C345 C344 1.391 . S
C346 H336 0.950 . S
C346 C347 1.386 . S
C346 C348 1.391 . S
C347 C346 1.386 . S
C347 C351 1.393 . S
C348 H337 0.950 . S
C348 C346 1.391 . S
C348 C349 1.400 . S
C349 C343 1.491 1_545 S
C349 C348 1.400 . S
C349 C350 1.398 . S
C350 H338 0.950 1_545 S
C350 C349 1.398 . S
C350 C351 1.391 . S
C351 H339 0.950 . S
C351 C347 1.393 . S
C351 C350 1.391 . S
H352 C360 0.950 1_556 S
H353 C365 0.950 . S
H354 C362 0.950 1_556 S
H355 C364 0.950 . S
H356 C366 0.950 . S
H357 C368 0.950 . S
H358 C370 0.950 1_556 S
H359 C371 0.950 1_556 S
C360 H352 0.950 1_554 S
C360 C361 1.386 . S
C360 C362 1.391 . S
C361 C360 1.386 . S
C361 C365 1.393 . S
C362 H354 0.950 1_554 S
C362 C360 1.391 . S
C362 C363 1.400 . S
C363 C362 1.400 . S
C363 C364 1.398 . S
C363 C369 1.491 . S
C364 H355 0.950 . S
C364 C363 1.398 . S
C364 C365 1.391 . S
C365 H353 0.950 . S
C365 C361 1.393 . S
C365 C364 1.391 . S
C366 H356 0.950 . S
C366 C367 1.386 . S
C366 C368 1.391 . S
C367 C366 1.386 . S
C367 C371 1.393 . S
C368 H357 0.950 . S
C368 C366 1.391 . S
C368 C369 1.400 . S
C369 C363 1.491 . S
C369 C368 1.400 . S
C369 C370 1.398 . S
C370 H358 0.950 1_554 S
C370 C369 1.398 . S
C370 C371 1.391 . S
C371 H359 0.950 1_554 S
C371 C367 1.393 . S
C371 C370 1.391 . S
H372 C380 0.950 . S
H373 C385 0.950 . S
H374 C382 0.950 . S
H375 C384 0.950 . S
H376 C386 0.950 . S
H377 C388 0.950 . S
H378 C390 0.950 . S
H379 C391 0.950 . S
C380 H372 0.950 . S
C380 C381 1.386 . S
C380 C382 1.391 . S
C381 C380 1.386 . S
C381 C385 1.393 . S
C382 H374 0.950 . S
C382 C380 1.391 . S
C382 C383 1.400 . S
C383 C382 1.400 . S
C383 C384 1.398 . S
C383 C389 1.491 . S
C384 H375 0.950 . S
C384 C383 1.398 . S
C384 C385 1.391 . S
C385 H373 0.950 . S
C385 C381 1.393 . S
C385 C384 1.391 . S
C386 H376 0.950 . S
C386 C387 1.386 . S
C386 C388 1.391 . S
C387 C386 1.386 . S
C387 C391 1.393 . S
C388 H377 0.950 . S
C388 C386 1.391 . S
C388 C389 1.400 . S
C389 C383 1.491 . S
C389 C388 1.400 . S
C389 C390 1.398 . S
C390 H378 0.950 . S
C390 C389 1.398 . S
C390 C391 1.391 . S
C391 H379 0.950 . S
C391 C387 1.393 . S
C391 C390 1.391 . S
H392 C400 0.950 1_556 S
H393 C405 0.950 . S
H394 C402 0.950 1_556 S
H395 C404 0.950 . S
H396 C406 0.950 . S
H397 C408 0.950 . S
H398 C410 0.950 1_556 S
H399 C411 0.950 1_556 S
C400 H392 0.950 1_554 S
C400 C401 1.386 . S
C400 C402 1.391 . S
C401 C400 1.386 . S
C401 C405 1.393 . S
C402 H394 0.950 1_554 S
C402 C400 1.391 . S
C402 C403 1.400 . S
C403 C402 1.400 . S
C403 C404 1.398 . S
C403 C409 1.491 . S
C404 H395 0.950 . S
C404 C403 1.398 . S
C404 C405 1.391 . S
C405 H393 0.950 . S
C405 C401 1.393 . S
C405 C404 1.391 . S
C406 H396 0.950 . S
C406 C407 1.386 . S
C406 C408 1.391 . S
C407 C406 1.386 . S
C407 C411 1.393 . S
C408 H397 0.950 . S
C408 C406 1.391 . S
C408 C409 1.400 . S
C409 C403 1.491 . S
C409 C408 1.400 . S
C409 C410 1.398 . S
C410 H398 0.950 1_554 S
C410 C409 1.398 . S
C410 C411 1.391 . S
C411 H399 0.950 1_554 S
C411 C407 1.393 . S
C411 C410 1.391 . S
H412 C420 0.950 . S
H413 C425 0.950 . S
H414 C422 0.950 . S
H415 C424 0.950 . S
H416 C426 0.950 . S
H417 C428 0.950 . S
H418 C430 0.950 . S
H419 C431 0.950 . S
C420 H412 0.950 . S
C420 C421 1.386 . S
C420 C422 1.391 . S
C421 C420 1.386 . S
C421 C425 1.393 . S
C422 H414 0.950 . S
C422 C420 1.391 . S
C422 C423 1.400 . S
C423 C422 1.400 . S
C423 C424 1.398 . S
C423 C429 1.491 . S
C424 H415 0.950 . S
C424 C423 1.398 . S
C424 C425 1.391 . S
C425 H413 0.950 . S
C425 C421 1.393 . S
C425 C424 1.391 . S
C426 H416 0.950 . S
C426 C427 1.386 . S
C426 C428 1.391 . S
C427 C426 1.386 . S
C427 C431 1.393 . S
C428 H417 0.950 . S
C428 C426 1.391 . S
C428 C429 1.400 . S
C429 C423 1.491 . S
C429 C428 1.400 . S
C429 C430 1.398 . S
C430 H418 0.950 . S
C430 C429 1.398 . S
C430 C431 1.391 . S
C431 H419 0.950 . S
C431 C427 1.393 . S
C431 C430 1.391 . S
C121 C13 1.323 . S
C127 C69 1.281 . S
C141 C27 1.276 . S
C147 C83 1.281 . S
C161 C97 1.290 . S
C167 C41 1.312 . S
C181 C111 1.306 . S
C187 C55 1.308 . S
C201 C91 1.210 . S
C207 C35 1.212 . S
C221 C105 1.200 . S
C227 C49 1.213 . S
C241 C7 1.194 . S
C247 C63 1.199 . S
C261 C21 1.201 . S
C267 C77 1.212 . S
C281 C36 3.146 . S
C287 C8 3.144 . S
C301 C50 1.436 . S
C307 C22 1.451 . S
C321 C64 1.153 . S
C327 C92 1.162 . S
C341 C106 1.459 . S
C347 C78 1.443 . S
C361 C11 2.102 . S
C367 C81 2.581 . S
C381 C95 1.555 . S
C387 C25 1.559 . S
C401 C39 2.100 . S
C407 C109 2.581 . S
C421 C53 1.558 . S
C427 C67 1.558 . S
