# Generated by pormake.
# Topology umn, (4)-cn, num edge types: 1
# Building blocks:
#     Node 0, Type 0, BuildingBlock: ESEHIV_clean_sbu_0, # of connection points: 4
#     Node 1, Type 0, BuildingBlock: ESEHIV_clean_sbu_0, # of connection points: 4
#     Node 2, Type 0, BuildingBlock: ESEHIV_clean_sbu_0, # of connection points: 4
#     Node 3, Type 0, BuildingBlock: ESEHIV_clean_sbu_0, # of connection points: 4
#     Node 4, Type 0, BuildingBlock: ESEHIV_clean_sbu_0, # of connection points: 4
#     Node 5, Type 0, BuildingBlock: ESEHIV_clean_sbu_0, # of connection points: 4
#     Node 6, Type 0, BuildingBlock: ESEHIV_clean_sbu_0, # of connection points: 4
#     Node 7, Type 0, BuildingBlock: ESEHIV_clean_sbu_0, # of connection points: 4
#     Node 8, Type 0, BuildingBlock: ESEHIV_clean_sbu_0, # of connection points: 4
#     Node 9, Type 0, BuildingBlock: ESEHIV_clean_sbu_0, # of connection points: 4
#     Node 10, Type 0, BuildingBlock: ESEHIV_clean_sbu_0, # of connection points: 4
#     Node 11, Type 0, BuildingBlock: ESEHIV_clean_sbu_0, # of connection points: 4
#     Node 12, Type 0, BuildingBlock: ESEHIV_clean_sbu_0, # of connection points: 4
#     Node 13, Type 0, BuildingBlock: ESEHIV_clean_sbu_0, # of connection points: 4
#     Node 14, Type 0, BuildingBlock: ESEHIV_clean_sbu_0, # of connection points: 4
#     Node 15, Type 0, BuildingBlock: ESEHIV_clean_sbu_0, # of connection points: 4
#     Node 16, Type 0, BuildingBlock: ESEHIV_clean_sbu_0, # of connection points: 4
#     Node 17, Type 0, BuildingBlock: ESEHIV_clean_sbu_0, # of connection points: 4
#     Node 18, Type 0, BuildingBlock: ESEHIV_clean_sbu_0, # of connection points: 4
#     Node 19, Type 0, BuildingBlock: ESEHIV_clean_sbu_0, # of connection points: 4
#     Node 20, Type 0, BuildingBlock: ESEHIV_clean_sbu_0, # of connection points: 4
#     Node 21, Type 0, BuildingBlock: ESEHIV_clean_sbu_0, # of connection points: 4
#     Node 22, Type 0, BuildingBlock: ESEHIV_clean_sbu_0, # of connection points: 4
#     Node 23, Type 0, BuildingBlock: ESEHIV_clean_sbu_0, # of connection points: 4
#     Node 24, Type 0, BuildingBlock: ESEHIV_clean_sbu_0, # of connection points: 4
#     Node 25, Type 0, BuildingBlock: ESEHIV_clean_sbu_0, # of connection points: 4
#     Node 26, Type 0, BuildingBlock: ESEHIV_clean_sbu_0, # of connection points: 4
#     Node 27, Type 0, BuildingBlock: ESEHIV_clean_sbu_0, # of connection points: 4
#     Node 28, Type 0, BuildingBlock: ESEHIV_clean_sbu_0, # of connection points: 4
#     Node 29, Type 0, BuildingBlock: ESEHIV_clean_sbu_0, # of connection points: 4
#     Node 30, Type 0, BuildingBlock: ESEHIV_clean_sbu_0, # of connection points: 4
#     Node 31, Type 0, BuildingBlock: ESEHIV_clean_sbu_0, # of connection points: 4
#     Node 32, Type 0, BuildingBlock: ESEHIV_clean_sbu_0, # of connection points: 4
#     Node 33, Type 0, BuildingBlock: ESEHIV_clean_sbu_0, # of connection points: 4
#     Node 34, Type 0, BuildingBlock: ESEHIV_clean_sbu_0, # of connection points: 4
#     Node 35, Type 0, BuildingBlock: ESEHIV_clean_sbu_0, # of connection points: 4
#     Edge 36, Type (0, 0), BuildingBlock: EZIPEK_clean_linker_0, # of connection points: 2
#     Edge 37, Type (0, 0), BuildingBlock: EZIPEK_clean_linker_0, # of connection points: 2
#     Edge 38, Type (0, 0), BuildingBlock: EZIPEK_clean_linker_0, # of connection points: 2
#     Edge 39, Type (0, 0), BuildingBlock: EZIPEK_clean_linker_0, # of connection points: 2
#     Edge 40, Type (0, 0), BuildingBlock: EZIPEK_clean_linker_0, # of connection points: 2
#     Edge 41, Type (0, 0), BuildingBlock: EZIPEK_clean_linker_0, # of connection points: 2
#     Edge 42, Type (0, 0), BuildingBlock: EZIPEK_clean_linker_0, # of connection points: 2
#     Edge 43, Type (0, 0), BuildingBlock: EZIPEK_clean_linker_0, # of connection points: 2
#     Edge 44, Type (0, 0), BuildingBlock: EZIPEK_clean_linker_0, # of connection points: 2
#     Edge 45, Type (0, 0), BuildingBlock: EZIPEK_clean_linker_0, # of connection points: 2
#     Edge 46, Type (0, 0), BuildingBlock: EZIPEK_clean_linker_0, # of connection points: 2
#     Edge 47, Type (0, 0), BuildingBlock: EZIPEK_clean_linker_0, # of connection points: 2
#     Edge 48, Type (0, 0), BuildingBlock: EZIPEK_clean_linker_0, # of connection points: 2
#     Edge 49, Type (0, 0), BuildingBlock: EZIPEK_clean_linker_0, # of connection points: 2
#     Edge 50, Type (0, 0), BuildingBlock: EZIPEK_clean_linker_0, # of connection points: 2
#     Edge 51, Type (0, 0), BuildingBlock: EZIPEK_clean_linker_0, # of connection points: 2
#     Edge 52, Type (0, 0), BuildingBlock: EZIPEK_clean_linker_0, # of connection points: 2
#     Edge 53, Type (0, 0), BuildingBlock: EZIPEK_clean_linker_0, # of connection points: 2
#     Edge 54, Type (0, 0), BuildingBlock: EZIPEK_clean_linker_0, # of connection points: 2
#     Edge 55, Type (0, 0), BuildingBlock: EZIPEK_clean_linker_0, # of connection points: 2
#     Edge 56, Type (0, 0), BuildingBlock: EZIPEK_clean_linker_0, # of connection points: 2
#     Edge 57, Type (0, 0), BuildingBlock: EZIPEK_clean_linker_0, # of connection points: 2
#     Edge 58, Type (0, 0), BuildingBlock: EZIPEK_clean_linker_0, # of connection points: 2
#     Edge 59, Type (0, 0), BuildingBlock: EZIPEK_clean_linker_0, # of connection points: 2
#     Edge 60, Type (0, 0), BuildingBlock: EZIPEK_clean_linker_0, # of connection points: 2
#     Edge 61, Type (0, 0), BuildingBlock: EZIPEK_clean_linker_0, # of connection points: 2
#     Edge 62, Type (0, 0), BuildingBlock: EZIPEK_clean_linker_0, # of connection points: 2
#     Edge 63, Type (0, 0), BuildingBlock: EZIPEK_clean_linker_0, # of connection points: 2
#     Edge 64, Type (0, 0), BuildingBlock: EZIPEK_clean_linker_0, # of connection points: 2
#     Edge 65, Type (0, 0), BuildingBlock: EZIPEK_clean_linker_0, # of connection points: 2
#     Edge 66, Type (0, 0), BuildingBlock: EZIPEK_clean_linker_0, # of connection points: 2
#     Edge 67, Type (0, 0), BuildingBlock: EZIPEK_clean_linker_0, # of connection points: 2
#     Edge 68, Type (0, 0), BuildingBlock: EZIPEK_clean_linker_0, # of connection points: 2
#     Edge 69, Type (0, 0), BuildingBlock: EZIPEK_clean_linker_0, # of connection points: 2
#     Edge 70, Type (0, 0), BuildingBlock: EZIPEK_clean_linker_0, # of connection points: 2
#     Edge 71, Type (0, 0), BuildingBlock: EZIPEK_clean_linker_0, # of connection points: 2
#     Edge 72, Type (0, 0), BuildingBlock: EZIPEK_clean_linker_0, # of connection points: 2
#     Edge 73, Type (0, 0), BuildingBlock: EZIPEK_clean_linker_0, # of connection points: 2
#     Edge 74, Type (0, 0), BuildingBlock: EZIPEK_clean_linker_0, # of connection points: 2
#     Edge 75, Type (0, 0), BuildingBlock: EZIPEK_clean_linker_0, # of connection points: 2
#     Edge 76, Type (0, 0), BuildingBlock: EZIPEK_clean_linker_0, # of connection points: 2
#     Edge 77, Type (0, 0), BuildingBlock: EZIPEK_clean_linker_0, # of connection points: 2
#     Edge 78, Type (0, 0), BuildingBlock: EZIPEK_clean_linker_0, # of connection points: 2
#     Edge 79, Type (0, 0), BuildingBlock: EZIPEK_clean_linker_0, # of connection points: 2
#     Edge 80, Type (0, 0), BuildingBlock: EZIPEK_clean_linker_0, # of connection points: 2
#     Edge 81, Type (0, 0), BuildingBlock: EZIPEK_clean_linker_0, # of connection points: 2
#     Edge 82, Type (0, 0), BuildingBlock: EZIPEK_clean_linker_0, # of connection points: 2
#     Edge 83, Type (0, 0), BuildingBlock: EZIPEK_clean_linker_0, # of connection points: 2
#     Edge 84, Type (0, 0), BuildingBlock: EZIPEK_clean_linker_0, # of connection points: 2
#     Edge 85, Type (0, 0), BuildingBlock: EZIPEK_clean_linker_0, # of connection points: 2
#     Edge 86, Type (0, 0), BuildingBlock: EZIPEK_clean_linker_0, # of connection points: 2
#     Edge 87, Type (0, 0), BuildingBlock: EZIPEK_clean_linker_0, # of connection points: 2
#     Edge 88, Type (0, 0), BuildingBlock: EZIPEK_clean_linker_0, # of connection points: 2
#     Edge 89, Type (0, 0), BuildingBlock: EZIPEK_clean_linker_0, # of connection points: 2
#     Edge 90, Type (0, 0), BuildingBlock: EZIPEK_clean_linker_0, # of connection points: 2
#     Edge 91, Type (0, 0), BuildingBlock: EZIPEK_clean_linker_0, # of connection points: 2
#     Edge 92, Type (0, 0), BuildingBlock: EZIPEK_clean_linker_0, # of connection points: 2
#     Edge 93, Type (0, 0), BuildingBlock: EZIPEK_clean_linker_0, # of connection points: 2
#     Edge 94, Type (0, 0), BuildingBlock: EZIPEK_clean_linker_0, # of connection points: 2
#     Edge 95, Type (0, 0), BuildingBlock: EZIPEK_clean_linker_0, # of connection points: 2
#     Edge 96, Type (0, 0), BuildingBlock: EZIPEK_clean_linker_0, # of connection points: 2
#     Edge 97, Type (0, 0), BuildingBlock: EZIPEK_clean_linker_0, # of connection points: 2
#     Edge 98, Type (0, 0), BuildingBlock: EZIPEK_clean_linker_0, # of connection points: 2
#     Edge 99, Type (0, 0), BuildingBlock: EZIPEK_clean_linker_0, # of connection points: 2
#     Edge 100, Type (0, 0), BuildingBlock: EZIPEK_clean_linker_0, # of connection points: 2
#     Edge 101, Type (0, 0), BuildingBlock: EZIPEK_clean_linker_0, # of connection points: 2
#     Edge 102, Type (0, 0), BuildingBlock: EZIPEK_clean_linker_0, # of connection points: 2
#     Edge 103, Type (0, 0), BuildingBlock: EZIPEK_clean_linker_0, # of connection points: 2
#     Edge 104, Type (0, 0), BuildingBlock: EZIPEK_clean_linker_0, # of connection points: 2
#     Edge 105, Type (0, 0), BuildingBlock: EZIPEK_clean_linker_0, # of connection points: 2
#     Edge 106, Type (0, 0), BuildingBlock: EZIPEK_clean_linker_0, # of connection points: 2
#     Edge 107, Type (0, 0), BuildingBlock: EZIPEK_clean_linker_0, # of connection points: 2
# Relax obj value: 0.208
# Max RMSD: 0.205
# Mean RMSD: 0.205
data_MOF--net-umn--node1-ESEHIV_clean_sbu_0--edge1-EZIPEK_clean_linker_0
_symmetry_space_group_name_H-M    P1
_symmetry_Int_Tables_number       1
_symmetry_cell_setting            triclinic
loop_
_symmetry_equiv_pos_as_xyz
'x, y, z'
_cell_length_a     75.761478
_cell_length_b     75.668677
_cell_length_c     25.965791
_cell_angle_alpha  89.904786
_cell_angle_beta   90.066027
_cell_angle_gamma 119.9411
loop_
_atom_site_label
_atom_site_type_symbol
_atom_site_fract_x
_atom_site_fract_y
_atom_site_fract_z
_atom_type_partial_charge
Cu0 Cu 0.35555 0.096 0.2163 0.0
N1 N 0.32941 0.07641 0.19724 0.0
N2 N 0.29971 0.04804 0.20899 0.0
C3 C 0.31977 0.0579 0.21923 0.0
C4 C 0.29645 0.06068 0.17899 0.0
C5 C 0.31496 0.07827 0.17151 0.0
O6 O 0.37428 0.08974 0.17684 0.0
C7 C 0.36585 0.09663 0.32888 0.0
O8 O 0.38477 0.10174 0.31851 0.0
H9 H 0.32701 0.05241 0.24568 0.0
H10 H 0.3174 0.0919 0.15172 0.0
N11 N 0.35974 0.12165 0.19595 0.0
N12 N 0.35462 0.14775 0.17929 0.0
C13 C 0.34695 0.12913 0.20109 0.0
C14 C 0.37603 0.13615 0.17039 0.0
C15 C 0.37291 0.15229 0.16007 0.0
C16 C 0.37583 0.07375 0.18164 0.0
O17 O 0.36694 0.06155 0.22096 0.0
H18 H 0.3322 0.121 0.21959 0.0
H19 H 0.38912 0.13489 0.15932 0.0
O20 O 0.35355 0.09405 0.29233 0.0
H21 H 0.28168 0.05782 0.1659 0.0
H22 H 0.38309 0.16614 0.13947 0.0
Cu23 Cu 0.92542 0.26189 0.21857 0.0
N24 N 0.94403 0.25275 0.21179 0.0
N25 N 0.97226 0.25182 0.23004 0.0
C26 C 0.96401 0.26376 0.22249 0.0
C27 C 0.95716 0.23254 0.22214 0.0
C28 C 0.93968 0.23317 0.21084 0.0
O29 O 0.93797 0.2896 0.18597 0.0
C30 C 0.93565 0.26991 0.3258 0.0
O31 O 0.95394 0.28258 0.30828 0.0
H32 H 0.97191 0.27999 0.22996 0.0
H33 H 0.92451 0.22016 0.20765 0.0
N34 N 0.90145 0.24199 0.18571 0.0
N35 N 0.87476 0.21116 0.168 0.0
C36 C 0.88774 0.22347 0.20475 0.0
C37 C 0.89699 0.24111 0.13518 0.0
C38 C 0.88049 0.22221 0.12427 0.0
C39 C 0.92927 0.29686 0.15743 0.0
O40 O 0.90953 0.28607 0.14977 0.0
H41 H 0.88818 0.21861 0.24374 0.0
H42 H 0.90601 0.2528 0.10736 0.0
O43 O 0.92083 0.26122 0.29397 0.0
H44 H 0.95821 0.21901 0.22944 0.0
H45 H 0.87397 0.21655 0.08662 0.0
Cu46 Cu 0.74903 0.66411 0.21932 0.0
N47 N 0.757 0.69176 0.21713 0.0
N48 N 0.757 0.72051 0.23573 0.0
C49 C 0.74552 0.70019 0.22875 0.0
C50 C 0.7764 0.72517 0.22755 0.0
C51 C 0.77634 0.70737 0.21585 0.0
O52 O 0.72108 0.64834 0.18868 0.0
C53 C 0.744 0.6644 0.32897 0.0
O54 O 0.73174 0.6714 0.31776 0.0
H55 H 0.72934 0.69145 0.2365 0.0
H56 H 0.7896 0.70569 0.21104 0.0
N57 N 0.76925 0.66174 0.18299 0.0
N58 N 0.80001 0.66561 0.16643 0.0
C59 C 0.78666 0.66388 0.20329 0.0
C60 C 0.77193 0.66243 0.13157 0.0
C61 C 0.79081 0.66464 0.12125 0.0
C62 C 0.71529 0.63487 0.153 0.0
O63 O 0.72801 0.62925 0.13573 0.0
H64 H 0.79005 0.66557 0.2441 0.0
H65 H 0.7615 0.66272 0.10357 0.0
O66 O 0.75131 0.65858 0.29271 0.0
H67 H 0.78967 0.74004 0.23346 0.0
H68 H 0.79776 0.66663 0.08371 0.0
Cu69 Cu 0.09258 0.3521 0.3191 0.0
N70 N 0.07455 0.32535 0.3385 0.0
N71 N 0.04707 0.29472 0.33066 0.0
C72 C 0.05583 0.31455 0.31843 0.0
C73 C 0.06055 0.29274 0.36042 0.0
C74 C 0.07762 0.31186 0.36549 0.0
O75 O 0.08608 0.36983 0.36222 0.0
C76 C 0.08884 0.339 0.216 0.0
O77 O 0.09286 0.32575 0.23792 0.0
H78 H 0.04912 0.32086 0.29296 0.0
H79 H 0.09159 0.31543 0.38518 0.0
N80 N 0.11937 0.35777 0.33211 0.0
N81 N 0.14678 0.35421 0.34203 0.0
C82 C 0.12699 0.34504 0.32804 0.0
C83 C 0.13499 0.37556 0.34898 0.0
C84 C 0.15193 0.3734 0.35515 0.0
C85 C 0.06871 0.36883 0.36189 0.0
O86 O 0.05507 0.35711 0.32777 0.0
H87 H 0.11823 0.32932 0.31568 0.0
H88 H 0.13404 0.3891 0.35676 0.0
O89 O 0.08856 0.35284 0.24381 0.0
H90 H 0.05854 0.27848 0.3753 0.0
H91 H 0.1668 0.38491 0.36871 0.0
Cu92 Cu 0.65816 0.74495 0.31181 0.0
N93 N 0.68582 0.75608 0.32378 0.0
N94 N 0.7164 0.75913 0.31615 0.0
C95 C 0.69704 0.74943 0.29969 0.0
C96 C 0.71764 0.77244 0.35235 0.0
C97 C 0.69855 0.77052 0.35701 0.0
O98 O 0.6449 0.72133 0.35994 0.0
C99 C 0.66369 0.75212 0.20427 0.0
O100 O 0.66975 0.7709 0.21896 0.0
H101 H 0.69094 0.73717 0.27179 0.0
H102 H 0.69416 0.77862 0.38365 0.0
N103 N 0.65111 0.76515 0.32536 0.0
N104 N 0.65362 0.7957 0.33671 0.0
C105 C 0.66356 0.78563 0.32428 0.0
C106 C 0.63272 0.76231 0.33901 0.0
C107 C 0.63422 0.78114 0.34598 0.0
C108 C 0.62735 0.70526 0.3576 0.0
O109 O 0.61505 0.703 0.31933 0.0
H110 H 0.67955 0.79305 0.31441 0.0
H111 H 0.61917 0.74756 0.3437 0.0
O112 O 0.65588 0.73783 0.23788 0.0
H113 H 0.73106 0.78215 0.37492 0.0
H114 H 0.62207 0.78396 0.35702 0.0
Cu115 Cu 0.26557 0.92323 0.31082 0.0
N116 N 0.25921 0.94372 0.32248 0.0
N117 N 0.25904 0.9726 0.3079 0.0
C118 C 0.26889 0.96218 0.30013 0.0
C119 C 0.24256 0.96042 0.33658 0.0
C120 C 0.24274 0.9425 0.34575 0.0
O121 O 0.29064 0.93091 0.3519 0.0
C122 C 0.25524 0.92418 0.2057 0.0
O123 O 0.24306 0.9295 0.22784 0.0
H124 H 0.28213 0.96737 0.27565 0.0
H125 H 0.23112 0.92916 0.36549 0.0
N126 N 0.24428 0.89858 0.33685 0.0
N127 N 0.21347 0.87178 0.35278 0.0
C128 C 0.22422 0.8891 0.32512 0.0
C129 C 0.24613 0.88678 0.37288 0.0
C130 C 0.22716 0.87023 0.38274 0.0
C131 C 0.30805 0.94678 0.34451 0.0
O132 O 0.31085 0.95777 0.30289 0.0
H133 H 0.21761 0.89478 0.29727 0.0
H134 H 0.26033 0.89007 0.39089 0.0
O135 O 0.26685 0.92059 0.23469 0.0
H136 H 0.23092 0.96392 0.34812 0.0
H137 H 0.22362 0.85802 0.40984 0.0
Cu138 Cu 0.65945 0.91609 0.81677 0.0
N139 N 0.68644 0.93508 0.83066 0.0
N140 N 0.71604 0.96344 0.8185 0.0
C141 C 0.69587 0.95384 0.81014 0.0
C142 C 0.71964 0.95039 0.84571 0.0
C143 C 0.70117 0.93277 0.85344 0.0
O144 O 0.64291 0.9238 0.86068 0.0
C145 C 0.67034 0.91771 0.71256 0.0
O146 O 0.6851 0.91601 0.73412 0.0
H147 H 0.68828 0.95987 0.78665 0.0
H148 H 0.69884 0.91892 0.87175 0.0
N149 N 0.65466 0.88998 0.83515 0.0
N150 N 0.65809 0.86246 0.84529 0.0
C151 C 0.66612 0.88131 0.82459 0.0
C152 C 0.63891 0.87605 0.86333 0.0
C153 C 0.64098 0.85905 0.8696 0.0
C154 C 0.64038 0.939 0.85184 0.0
O155 O 0.64707 0.94898 0.80822 0.0
H156 H 0.68012 0.88864 0.80268 0.0
H157 H 0.6268 0.87817 0.87846 0.0
O158 O 0.6565 0.91755 0.74126 0.0
H159 H 0.73455 0.95306 0.85684 0.0
H160 H 0.63075 0.84525 0.89034 0.0
Cu161 Cu 0.09083 0.74443 0.8031 0.0
N162 N 0.07334 0.75387 0.82062 0.0
N163 N 0.04581 0.75641 0.80543 0.0
C164 C 0.05387 0.74412 0.80504 0.0
C165 C 0.06064 0.77465 0.82243 0.0
C166 C 0.07774 0.77303 0.83184 0.0
O167 O 0.07911 0.7174 0.83823 0.0
C168 C 0.09947 0.74712 0.69015 0.0
O169 O 0.11765 0.74955 0.69871 0.0
H170 H 0.04654 0.72908 0.78786 0.0
H171 H 0.09279 0.78545 0.84073 0.0
N172 N 0.11701 0.76449 0.82561 0.0
N173 N 0.14447 0.79544 0.83723 0.0
C174 C 0.12887 0.78335 0.80547 0.0
C175 C 0.12534 0.76501 0.87187 0.0
C176 C 0.14233 0.78391 0.87885 0.0
C177 C 0.08794 0.70963 0.86423 0.0
O178 O 0.10791 0.71871 0.86413 0.0
H179 H 0.12529 0.78858 0.77026 0.0
H180 H 0.11859 0.75316 0.90069 0.0
O181 O 0.08729 0.74344 0.7277 0.0
H182 H 0.0597 0.78845 0.82346 0.0
H183 H 0.15155 0.7893 0.91336 0.0
Cu184 Cu 0.2637 0.33564 0.82974 0.0
N185 N 0.25556 0.30859 0.84416 0.0
N186 N 0.25409 0.27864 0.83712 0.0
C187 C 0.26357 0.29822 0.82186 0.0
C188 C 0.2396 0.27642 0.87073 0.0
C189 C 0.24049 0.29508 0.87487 0.0
O190 O 0.29088 0.35189 0.86328 0.0
C191 C 0.25172 0.32388 0.72527 0.0
O192 O 0.23488 0.30971 0.74691 0.0
H193 H 0.27599 0.30484 0.79446 0.0
H194 H 0.23074 0.2985 0.89812 0.0
N195 N 0.24325 0.34042 0.85633 0.0
N196 N 0.21268 0.33776 0.86776 0.0
C197 C 0.22554 0.3365 0.83379 0.0
C198 C 0.2412 0.34397 0.90622 0.0
C199 C 0.2225 0.34254 0.91325 0.0
C200 C 0.29737 0.3673 0.89336 0.0
O201 O 0.28595 0.37556 0.90159 0.0
H202 H 0.22162 0.33169 0.79422 0.0
H203 H 0.25193 0.34597 0.93629 0.0
O204 O 0.26567 0.33747 0.75384 0.0
H205 H 0.22919 0.26241 0.8904 0.0
H206 H 0.21608 0.34367 0.94947 0.0
Cu207 Cu 0.92425 0.65993 0.73048 0.0
N208 N 0.94185 0.6864 0.70832 0.0
N209 N 0.97 0.71674 0.71116 0.0
C210 C 0.96141 0.69686 0.72298 0.0
C211 C 0.9555 0.71903 0.68712 0.0
C212 C 0.93802 0.7001 0.68516 0.0
O213 O 0.93285 0.64223 0.6957 0.0
C214 C 0.92871 0.67481 0.83305 0.0
O215 O 0.92608 0.68889 0.81072 0.0
H216 H 0.96884 0.69027 0.74494 0.0
H217 H 0.92331 0.69688 0.67086 0.0
N218 N 0.89729 0.65279 0.71445 0.0
N219 N 0.8689 0.65455 0.70404 0.0
C220 C 0.88827 0.66414 0.72152 0.0
C221 C 0.88304 0.63545 0.69199 0.0
C222 C 0.86549 0.6365 0.68549 0.0
C223 C 0.93372 0.64167 0.64657 0.0
O224 O 0.92719 0.65179 0.61885 0.0
H225 H 0.89576 0.67921 0.73846 0.0
H226 H 0.88536 0.62301 0.68057 0.0
O227 O 0.92788 0.6603 0.80594 0.0
H228 H 0.95709 0.73344 0.67496 0.0
H229 H 0.85141 0.62508 0.66793 0.0
Cu230 Cu 0.35519 0.26853 0.72939 0.0
N231 N 0.32746 0.25506 0.71485 0.0
N232 N 0.29588 0.24708 0.73654 0.0
C233 C 0.31557 0.26182 0.73457 0.0
C234 C 0.29515 0.23035 0.71623 0.0
C235 C 0.31472 0.23538 0.70234 0.0
O236 O 0.3674 0.2935 0.68515 0.0
C237 C 0.35903 0.26564 0.84156 0.0
O238 O 0.37017 0.25712 0.83266 0.0
H239 H 0.32157 0.27652 0.75317 0.0
H240 H 0.3194 0.22487 0.68882 0.0
N241 N 0.36485 0.25039 0.71432 0.0
N242 N 0.36434 0.22082 0.70106 0.0
C243 C 0.35581 0.23031 0.72632 0.0
C244 C 0.37975 0.25362 0.68087 0.0
C245 C 0.37946 0.23543 0.6726 0.0
C246 C 0.38584 0.30816 0.68289 0.0
O247 O 0.3996 0.30769 0.7128 0.0
H248 H 0.34244 0.22252 0.75049 0.0
H249 H 0.38933 0.26792 0.66137 0.0
O250 O 0.35434 0.27348 0.80405 0.0
H251 H 0.2818 0.21529 0.71555 0.0
H252 H 0.38884 0.23287 0.64567 0.0
Cu253 Cu 0.74612 0.08679 0.72496 0.0
N254 N 0.75269 0.06725 0.70589 0.0
N255 N 0.75348 0.03862 0.71841 0.0
C256 C 0.74282 0.04827 0.72503 0.0
C257 C 0.77072 0.05189 0.69375 0.0
C258 C 0.77018 0.06968 0.68594 0.0
O259 O 0.71867 0.07699 0.69378 0.0
C260 C 0.74854 0.09559 0.8387 0.0
O261 O 0.74853 0.11275 0.83097 0.0
H262 H 0.7291 0.04239 0.748 0.0
H263 H 0.7824 0.08388 0.67104 0.0
N264 N 0.76734 0.11168 0.69886 0.0
N265 N 0.79868 0.13852 0.68765 0.0
C266 C 0.78523 0.12488 0.72172 0.0
C267 C 0.77 0.11703 0.6487 0.0
C268 C 0.78911 0.13368 0.64185 0.0
C269 C 0.71355 0.0856 0.65892 0.0
O270 O 0.72616 0.10471 0.64692 0.0
H271 H 0.7888 0.12369 0.76151 0.0
H272 H 0.75947 0.10839 0.61828 0.0
O273 O 0.74673 0.08418 0.80062 0.0
H274 H 0.78332 0.0494 0.68555 0.0
H275 H 0.79599 0.14086 0.60555 0.0
Cu276 Cu 0.01908 0.42565 0.55431 0.0
N277 N 0.99185 0.40604 0.54439 0.0
N278 N 0.96457 0.37649 0.56598 0.0
C279 C 0.98484 0.38655 0.55836 0.0
C280 C 0.95835 0.38992 0.55493 0.0
C281 C 0.97524 0.40817 0.54131 0.0
O282 O 0.03511 0.41703 0.51081 0.0
C283 C 0.01324 0.43147 0.65994 0.0
O284 O 1.00546 0.44202 0.64012 0.0
H285 H 0.99466 0.38064 0.56956 0.0
H286 H 0.9754 0.42228 0.53432 0.0
N287 N 0.02464 0.45178 0.53227 0.0
N288 N 0.0228 0.47984 0.51517 0.0
C289 C 0.01326 0.46095 0.53584 0.0
C290 C 0.04193 0.46554 0.50851 0.0
C291 C 0.04085 0.48286 0.49796 0.0
C292 C 0.03953 0.40316 0.52125 0.0
O293 O 0.03498 0.39454 0.56694 0.0
H294 H 0.99846 0.45424 0.55378 0.0
H295 H 0.05449 0.4631 0.49951 0.0
O296 O 0.02204 0.42476 0.63002 0.0
H297 H 0.943 0.38717 0.56017 0.0
H298 H 0.05234 0.49659 0.47915 0.0
Cu299 Cu 0.58392 0.60031 0.55795 0.0
N300 N 0.60341 0.59402 0.53607 0.0
N301 N 0.63271 0.5941 0.5384 0.0
C302 C 0.62199 0.60235 0.55712 0.0
C303 C 0.62075 0.58024 0.5031 0.0
C304 C 0.60245 0.58019 0.50179 0.0
O305 O 0.5883 0.62453 0.51691 0.0
C306 C 0.5888 0.59056 0.66066 0.0
O307 O 0.58574 0.57375 0.63807 0.0
H308 H 0.6275 0.61412 0.58627 0.0
H309 H 0.58932 0.57054 0.47832 0.0
N310 N 0.55796 0.57775 0.54459 0.0
N311 N 0.53249 0.54583 0.53163 0.0
C312 C 0.55233 0.55773 0.54429 0.0
C313 C 0.54104 0.57837 0.5318 0.0
C314 C 0.52532 0.55871 0.52371 0.0
C315 C 0.60587 0.6404 0.51062 0.0
O316 O 0.62145 0.64188 0.53645 0.0
H317 H 0.56255 0.55198 0.55249 0.0
H318 H 0.54028 0.59221 0.52806 0.0
O319 O 0.58807 0.60437 0.63351 0.0
H320 H 0.62486 0.57078 0.48072 0.0
H321 H 0.50989 0.55419 0.51232 0.0
Cu322 Cu 0.41359 0.99753 0.54245 0.0
N323 N 0.42218 0.02446 0.52465 0.0
N324 N 0.42595 0.05529 0.53589 0.0
C325 C 0.41469 0.03533 0.5469 0.0
C326 C 0.44113 0.05726 0.50508 0.0
C327 C 0.43869 0.03804 0.49794 0.0
O328 O 0.38892 0.98024 0.50003 0.0
C329 C 0.42383 0.01115 0.64489 0.0
O330 O 0.44014 0.02492 0.62065 0.0
H331 H 0.40213 0.02896 0.5739 0.0
H332 H 0.44894 0.03446 0.47753 0.0
N333 N 0.43431 0.99162 0.52563 0.0
N334 N 0.46479 0.99429 0.5129 0.0
C335 C 0.45469 1.00335 0.532 0.0
C336 C 0.4316 0.97463 0.50187 0.0
C337 C 0.45037 0.97624 0.49392 0.0
C338 C 0.37223 0.98058 0.50294 0.0
O339 O 0.3701 0.99121 0.53989 0.0
H340 H 0.46204 0.01836 0.54924 0.0
H341 H 0.41697 0.96205 0.49041 0.0
O342 O 0.40991 0.99649 0.61843 0.0
H343 H 0.45354 0.07157 0.49114 0.0
H344 H 0.45327 0.96518 0.47514 0.0
Cu345 Cu 0.7591 0.6807 0.65194 0.0
N346 N 0.73952 0.65327 0.65877 0.0
N347 N 0.70985 0.6273 0.63243 0.0
C348 C 0.71992 0.64694 0.64758 0.0
C349 C 0.72331 0.62067 0.6365 0.0
C350 C 0.74163 0.63673 0.65292 0.0
O351 O 0.74755 0.69514 0.69184 0.0
C352 C 0.7658 0.67481 0.54653 0.0
O353 O 0.77506 0.66577 0.56692 0.0
H354 H 0.71404 0.65728 0.64298 0.0
H355 H 0.75586 0.63676 0.65419 0.0
N356 N 0.78461 0.68591 0.67869 0.0
N357 N 0.81225 0.68356 0.69784 0.0
C358 C 0.79425 0.67503 0.67278 0.0
C359 C 0.79719 0.7018 0.70874 0.0
C360 C 0.81421 0.70039 0.7206 0.0
C361 C 0.7548 0.71418 0.70034 0.0
O362 O 0.7723 0.72747 0.67973 0.0
H363 H 0.78846 0.66121 0.6506 0.0
H364 H 0.79427 0.71369 0.72122 0.0
O365 O 0.75971 0.6843 0.57601 0.0
H366 H 0.72064 0.60593 0.62362 0.0
H367 H 0.82705 0.7109 0.74388 0.0
Cu368 Cu 0.33502 0.08297 0.64832 0.0
N369 N 0.36247 0.0922 0.65938 0.0
N370 N 0.39234 0.09468 0.64176 0.0
C371 C 0.37206 0.08371 0.63543 0.0
C372 C 0.39586 0.11082 0.67097 0.0
C373 C 0.37724 0.10919 0.68214 0.0
O374 O 0.32061 0.05695 0.68878 0.0
C375 C 0.33627 0.09295 0.53975 0.0
O376 O 0.33499 0.10876 0.55537 0.0
H377 H 0.3644 0.07034 0.61116 0.0
H378 H 0.37479 0.12011 0.7031 0.0
N379 N 0.3297 0.10377 0.67075 0.0
N380 N 0.33392 0.13477 0.6877 0.0
C381 C 0.3415 0.12418 0.66349 0.0
C382 C 0.31431 0.10167 0.70102 0.0
C383 C 0.31682 0.12069 0.71126 0.0
C384 C 0.30192 0.04613 0.70239 0.0
O385 O 0.28873 0.0514 0.68654 0.0
H386 H 0.35552 0.13117 0.64154 0.0
H387 H 0.30233 0.08739 0.71597 0.0
O388 O 0.33363 0.07915 0.57242 0.0
H389 H 0.41077 0.1232 0.68152 0.0
H390 H 0.30706 0.12399 0.73492 0.0
Cu391 Cu 0.93391 0.24939 0.65244 0.0
N392 N 0.92696 0.2692 0.66607 0.0
N393 N 0.92715 0.29847 0.65756 0.0
C394 C 0.93749 0.28857 0.6498 0.0
C395 C 0.90967 0.28518 0.68119 0.0
C396 C 0.90955 0.26695 0.68616 0.0
O397 O 0.96196 0.26046 0.68143 0.0
C398 C 0.94391 0.26021 0.5452 0.0
O399 O 0.9608 0.27543 0.56369 0.0
H400 H 0.95211 0.29512 0.63078 0.0
H401 H 0.89728 0.25284 0.70123 0.0
N402 N 0.91371 0.22567 0.6858 0.0
N403 N 0.88285 0.19914 0.70398 0.0
C404 C 0.89555 0.21129 0.66651 0.0
C405 C 0.91208 0.22255 0.73715 0.0
C406 C 0.89321 0.20613 0.74837 0.0
C407 C 0.96789 0.25209 0.71497 0.0
O408 O 0.95547 0.23323 0.72939 0.0
H409 H 0.89121 0.21063 0.62653 0.0
H410 H 0.92319 0.23252 0.76501 0.0
O411 O 0.93144 0.2465 0.57626 0.0
H412 H 0.89762 0.28821 0.69179 0.0
H413 H 0.88706 0.20053 0.78636 0.0
Cu414 Cu 0.32083 0.2517 0.12562 0.0
N415 N 0.34871 0.26764 0.11399 0.0
N416 N 0.37856 0.29341 0.08889 0.0
C417 C 0.35821 0.28535 0.08804 0.0
C418 C 0.38219 0.28053 0.11663 0.0
C419 C 0.36367 0.26463 0.1324 0.0
O420 O 0.31305 0.26338 0.18423 0.0
C421 C 0.30738 0.25343 1.01499 0.0
O422 O 0.2915 0.25105 0.98887 0.0
H423 H 0.35047 0.29265 0.07086 0.0
H424 H 0.36138 0.25221 0.15734 0.0
N425 N 0.31496 0.22529 0.14462 0.0
N426 N 0.31858 0.1982 0.16075 0.0
C427 C 0.32559 0.21575 0.13392 0.0
C428 C 0.30063 0.21312 0.1788 0.0
C429 C 0.30286 0.19643 0.18892 0.0
C430 C 0.29897 0.26806 0.18292 0.0
O431 O 0.2887 0.26533 0.14008 0.0
H432 H 0.33875 0.22192 0.1089 0.0
H433 H 0.28996 0.21669 0.19703 0.0
O434 O 0.30534 0.25069 0.06387 0.0
H435 H 0.39712 0.283 0.1267 0.0
H436 H 0.29426 0.1844 0.21649 0.0
Cu437 Cu 0.7652 0.07504 0.12137 0.0
N438 N 0.7489 0.08589 0.1018 0.0
N439 N 0.72165 0.08733 0.07609 0.0
C440 C 0.73008 0.07543 0.08171 0.0
C441 C 0.73552 0.10596 0.09302 0.0
C442 C 0.75237 0.10502 0.10909 0.0
O443 O 0.74946 0.05181 0.16958 0.0
C444 C 0.77113 0.06459 1.01164 0.0
O445 O 0.77831 0.0548 0.98512 0.0
H446 H 0.72238 0.05926 0.07339 0.0
H447 H 0.76575 0.11724 0.12704 0.0
N448 N 0.78885 0.09566 0.15413 0.0
N449 N 0.81567 0.12604 0.17445 0.0
C450 C 0.80078 0.11537 0.1398 0.0
C451 C 0.79669 0.09397 0.19928 0.0
C452 C 0.81323 0.11267 0.21188 0.0
C453 C 0.75511 0.03907 0.18279 0.0
O454 O 0.77237 0.0415 0.16471 0.0
H455 H 0.79839 0.12198 0.10542 0.0
H456 H 0.79056 0.08017 0.22204 0.0
O457 O 0.77275 0.06474 0.06085 0.0
H458 H 0.73321 0.11894 0.09566 0.0
H459 H 0.82254 0.11629 0.24618 0.0
Cu460 Cu 0.9352 0.68589 0.15909 0.0
N461 N 0.92682 0.65822 0.16387 0.0
N462 N 0.92763 0.62987 0.14606 0.0
C463 C 0.93871 0.65005 0.15478 0.0
C464 C 0.908 0.62487 0.15155 0.0
C465 C 0.90755 0.64247 0.16266 0.0
O466 O 0.95953 0.70092 0.20378 0.0
C467 C 0.9466 0.68601 0.0529 0.0
O468 O 0.95833 0.67919 0.07043 0.0
H469 H 0.95505 0.65896 0.14974 0.0
H470 H 0.89408 0.64391 0.16478 0.0
N471 N 0.91382 0.68926 0.18441 0.0
N472 N 0.88313 0.6864 0.19383 0.0
C473 C 0.89521 0.68248 0.1633 0.0
C474 C 0.91341 0.69778 0.22955 0.0
C475 C 0.8945 0.69607 0.23543 0.0
C476 C 0.97803 0.71321 0.19125 0.0
O477 O 0.98271 0.71766 0.14245 0.0
H478 H 0.89046 0.67446 0.12694 0.0
H479 H 0.92587 0.70443 0.25676 0.0
O480 O 0.93783 0.69205 0.08462 0.0
H481 H 0.89501 0.61005 0.14315 0.0
H482 H 0.88935 0.70122 0.26797 0.0
Cu483 Cu 0.5885 0.99303 0.04606 0.0
N484 N 0.60844 0.01882 0.02535 0.0
N485 N 0.6387 0.04703 0.02217 0.0
C486 C 0.62763 0.02837 0.04292 0.0
C487 C 0.62599 0.04964 0.99083 0.0
C488 C 0.6072 0.03202 0.99265 0.0
O489 O 0.59464 0.97341 1.01015 0.0
C490 C 0.59909 0.99264 0.15649 0.0
O491 O 0.61157 0.98611 0.14321 0.0
H492 H 0.63338 0.02197 0.07115 0.0
H493 H 0.5936 0.0291 0.97199 0.0
N494 N 0.56335 0.98915 0.02265 0.0
N495 N 0.53686 0.99388 1.00862 0.0
C496 C 0.55515 1.00112 0.03183 0.0
C497 C 0.54972 0.97388 0.99277 0.0
C498 C 0.53334 0.97675 0.98406 0.0
C499 C 0.61199 0.97433 1.01043 0.0
O500 O 0.62596 0.9866 0.04311 0.0
H501 H 0.56245 0.01488 0.05479 0.0
H502 H 0.55162 0.96153 0.97823 0.0
O503 O 0.58816 0.99464 0.12206 0.0
H504 H 0.63004 0.06321 0.96841 0.0
H505 H 0.51992 0.96711 0.96139 0.0
Cu506 Cu 0.02361 0.59936 0.04626 0.0
N507 N 0.99685 0.59283 0.03489 0.0
N508 N 0.96842 0.59374 0.04905 0.0
C509 C 0.98872 0.60349 0.05501 0.0
C510 C 0.96339 0.57632 0.02378 0.0
C511 C 0.98112 0.57579 1.015 0.0
O512 O 0.04064 0.6231 1.00115 0.0
C513 C 0.01364 0.59122 0.1512 0.0
O514 O 0.99798 0.57515 0.13098 0.0
H515 H 0.99736 0.61755 0.07626 0.0
H516 H 0.98232 0.56339 0.99802 0.0
N517 N 0.02687 0.57715 0.0267 0.0
N518 N 0.02313 0.54597 0.01827 0.0
C519 C 0.01667 0.55749 0.04273 0.0
C520 C 0.04014 0.5779 0.99108 0.0
C521 C 0.0379 0.55874 0.98585 0.0
C522 C 0.0458 0.64164 1.0105 0.0
O523 O 0.04112 0.64617 0.05542 0.0
H524 H 1.0047 0.55164 0.07131 0.0
H525 H 0.0507 0.59149 0.97017 0.0
O526 O 0.02768 0.60408 0.12141 0.0
H527 H 0.94802 0.56452 1.01465 0.0
H528 H 0.04643 0.55447 0.96032 0.0
Cu529 Cu 0.41526 0.42069 0.04087 0.0
N530 N 0.42285 0.40279 1.01427 0.0
N531 N 0.4222 0.3731 1.01352 0.0
C532 C 0.41171 0.38272 0.02313 0.0
C533 C 0.44077 0.38763 0.99749 0.0
C534 C 0.44112 0.40609 0.9978 0.0
O535 O 0.38912 0.41353 1.00625 0.0
C536 C 0.41614 0.42754 0.15168 0.0
O537 O 0.41514 0.44397 0.14075 0.0
H538 H 0.39706 0.37566 0.04217 0.0
H539 H 0.45428 0.42096 0.99126 0.0
N540 N 0.43579 0.4475 0.02571 0.0
N541 N 0.46629 0.47585 0.01975 0.0
C542 C 0.45559 0.4569 0.04006 0.0
C543 C 0.434 0.46104 0.99567 0.0
C544 C 0.45278 0.47854 0.99195 0.0
C545 C 0.37172 0.39858 0.01891 0.0
O546 O 0.37018 0.3886 0.06166 0.0
H547 H 0.4621 0.44992 0.06416 0.0
H548 H 0.42004 0.45824 0.97716 0.0
O549 O 0.41471 0.41561 0.11534 0.0
H550 H 0.45357 0.38532 0.99059 0.0
H551 H 0.45634 0.49214 0.97018 0.0
Cu552 Cu 0.68502 0.75374 0.88311 0.0
N553 N 0.6577 0.73557 0.87011 0.0
N554 N 0.6272 0.70818 0.88066 0.0
C555 C 0.64732 0.71649 0.88855 0.0
C556 C 0.62461 0.72228 0.85549 0.0
C557 C 0.64361 0.73933 0.84913 0.0
O558 O 0.70057 0.74144 0.85244 0.0
C559 C 0.68356 0.74305 0.99134 0.0
O560 O 0.68383 0.72672 0.97541 0.0
H561 H 0.65423 0.70906 0.90918 0.0
H562 H 0.64679 0.75375 0.83264 0.0
N563 N 0.69048 0.77851 0.85229 0.0
N564 N 0.68701 0.80567 0.83517 0.0
C565 C 0.68433 0.79133 0.87029 0.0
C566 C 0.69701 0.78492 0.80393 0.0
C567 C 0.69508 0.80177 0.79347 0.0
C568 C 0.71749 0.75061 0.82795 0.0
O569 O 0.72762 0.77062 0.82647 0.0
H570 H 0.67679 0.78937 0.90698 0.0
H571 H 0.7015 0.77707 0.7768 0.0
O572 O 0.68607 0.7568 0.95879 0.0
H573 H 0.61007 0.72064 0.84463 0.0
H574 H 0.69812 0.80976 0.75706 0.0
Cu575 Cu 0.25425 0.93275 0.87398 0.0
N576 N 0.27472 0.92641 0.86339 0.0
N577 N 0.3056 0.93194 0.88385 0.0
C578 C 0.29446 0.94048 0.86954 0.0
C579 C 0.29268 0.91165 0.88365 0.0
C580 C 0.27362 0.90825 0.87046 0.0
O581 O 0.26262 0.95784 0.83193 0.0
C582 C 0.2514 0.9209 0.97988 0.0
O583 O 0.24757 0.90353 0.95938 0.0
H584 H 0.29992 0.9567 0.87123 0.0
H585 H 0.25968 0.89375 0.87224 0.0
N586 N 0.22906 0.91152 0.84903 0.0
N587 N 0.20173 0.88106 0.83205 0.0
C588 C 0.2195 0.89118 0.85813 0.0
C589 C 0.21674 0.91411 0.81617 0.0
C590 C 0.19989 0.89538 0.8057 0.0
C591 C 0.27214 0.97649 0.84648 0.0
O592 O 0.27593 0.98052 0.89576 0.0
H593 H 0.22525 0.88383 0.88324 0.0
H594 H 0.21984 0.92867 0.80079 0.0
O595 O 0.25359 0.9355 0.95031 0.0
H596 H 0.29641 0.9003 0.89659 0.0
H597 H 0.18724 0.89247 0.78085 0.0
Cu598 Cu 0.07946 0.31922 0.89208 0.0
N599 N 0.09022 0.34728 0.88684 0.0
N600 N 0.0926 0.37707 0.90558 0.0
C601 C 0.07995 0.35726 0.89478 0.0
C602 C 0.1116 0.37994 0.9031 0.0
C603 C 0.11008 0.36147 0.89138 0.0
O604 O 0.05239 0.30558 0.85671 0.0
C605 C 0.07012 0.32165 0.99745 0.0
O606 O 0.05807 0.32768 0.9776 0.0
H607 H 0.06353 0.3498 0.89801 0.0
H608 H 0.12243 0.35821 0.89176 0.0
N609 N 0.09894 0.31408 0.86095 0.0
N610 N 0.12927 0.31664 0.84582 0.0
C611 C 0.11676 0.31746 0.88169 0.0
C612 C 0.10051 0.31127 0.81028 0.0
C613 C 0.11909 0.31268 0.80093 0.0
C614 C 0.04508 0.28969 0.82807 0.0
O615 O 0.05529 0.28001 0.82237 0.0
H616 H 0.12107 0.32189 0.92138 0.0
H617 H 0.08957 0.30981 0.78146 0.0
O618 O 0.07866 0.31477 0.96738 0.0
H619 H 0.12532 0.39385 0.91369 0.0
H620 H 0.12519 0.31208 0.7637 0.0
Cu621 Cu 0.43318 0.02965 0.97123 0.0
N622 N 0.41343 1.0029 0.98362 0.0
N623 N 0.38452 0.97397 0.97122 0.0
C624 C 0.39539 0.99383 0.95959 0.0
C625 C 0.39598 0.97009 1.00398 0.0
C626 C 0.41405 0.98818 1.01151 0.0
O627 O 0.42562 0.04703 1.01324 0.0
C628 C 0.42285 0.03248 0.86201 0.0
O629 O 0.41015 0.03841 0.87755 0.0
H630 H 0.39036 1.00153 0.93341 0.0
H631 H 0.42683 0.99035 0.03482 0.0
N632 N 0.45799 0.0329 0.99549 0.0
N633 N 0.48409 0.02758 1.00995 0.0
C634 C 0.46684 0.0218 0.98276 0.0
C635 C 0.47011 0.04608 0.03179 0.0
C636 C 0.48623 0.04282 0.04083 0.0
C637 C 0.40797 0.04543 1.01412 0.0
O638 O 0.39454 0.03414 0.97916 0.0
H639 H 0.46055 0.00947 0.95509 0.0
H640 H 0.46721 0.05704 0.05102 0.0
O641 O 0.43438 0.03064 0.89497 0.0
H642 H 0.39157 0.9554 0.02098 0.0
H643 H 0.49842 0.05077 0.06838 0.0
Cu644 Cu 0.99807 0.4106 0.98786 0.0
N645 N 0.02545 0.41848 0.99709 0.0
N646 N 0.05442 0.41792 0.98952 0.0
C647 C 0.03396 0.40683 0.98875 0.0
C648 C 0.05913 0.43719 1.00043 0.0
C649 C 0.04112 0.43748 1.00504 0.0
O650 O 0.98208 0.38241 0.01747 0.0
C651 C 1.00407 0.40961 0.87775 0.0
O652 O 0.01538 0.40167 0.89048 0.0
H653 H 0.02539 0.39088 0.97814 0.0
H654 H 0.03961 0.45083 1.0104 0.0
N655 N 0.99447 0.43052 0.02229 0.0
N656 N 0.99823 0.46131 0.03892 0.0
C657 C 0.99818 0.44859 1.00231 0.0
C658 C 0.99243 0.43214 0.07335 0.0
C659 C 0.99452 0.45098 0.08362 0.0
C660 C 0.96773 0.37582 0.05092 0.0
O661 O 0.96065 0.38767 0.06581 0.0
H662 H 1.00217 0.45287 0.9624 0.0
H663 H 0.99103 0.42103 0.10169 0.0
O664 O 0.99432 0.41308 0.91284 0.0
H665 H 0.07438 0.45023 1.00108 0.0
H666 H 0.99466 0.45717 0.12129 0.0
Cu667 Cu 0.60036 0.58765 0.98839 0.0
N668 N 0.58971 0.60506 0.99503 0.0
N669 N 0.5869 0.63232 0.97686 0.0
C670 C 0.59973 0.62508 0.98404 0.0
C671 C 0.56805 0.61648 0.98504 0.0
C672 C 0.56984 0.59962 0.99644 0.0
O673 O 0.62796 0.60143 0.02128 0.0
C674 C 0.60764 0.59762 0.88049 0.0
O675 O 0.61926 0.61639 0.89656 0.0
H676 H 0.6159 0.63372 0.97612 0.0
H677 H 0.55741 0.58413 1.0003 0.0
N678 N 0.5813 0.56295 0.02007 0.0
N679 N 0.55106 0.53517 0.03604 0.0
C680 C 0.56288 0.54928 1.00069 0.0
C681 C 0.58094 0.55726 0.06945 0.0
C682 C 0.56239 0.54007 0.07927 0.0
C683 C 0.63635 0.59325 0.04758 0.0
O684 O 0.62694 0.57333 0.05263 0.0
H685 H 0.55772 0.55046 0.96261 0.0
H686 H 0.59272 0.56578 0.09744 0.0
O687 O 0.60006 0.58305 0.91328 0.0
H688 H 0.55404 0.61663 0.97817 0.0
H689 H 0.55713 0.53249 0.11607 0.0
Cu690 Cu 0.9928 0.588 0.47561 0.0
N691 N 0.01881 0.60691 0.49825 0.0
N692 N 0.04797 0.63631 0.50364 0.0
C693 C 0.0294 0.62631 0.48201 0.0
C694 C 0.04945 0.62267 0.53412 0.0
C695 C 0.03125 0.60445 0.53097 0.0
O696 O 0.97326 0.59366 0.51293 0.0
C697 C 1.00801 0.59167 0.3747 0.0
O698 O 0.02298 0.59163 0.40012 0.0
H699 H 0.02382 0.63292 0.4539 0.0
H700 H 0.02744 0.59039 0.55067 0.0
N701 N 0.98777 0.56179 0.49309 0.0
N702 N 0.99163 0.53466 0.50547 0.0
C703 C 1.0001 0.55382 0.48662 0.0
C704 C 0.97102 0.54709 0.5167 0.0
C705 C 0.97337 0.53032 0.52443 0.0
C706 C 0.97539 0.61147 0.51687 0.0
O707 O 0.99 0.62665 0.49116 0.0
H708 H 0.01507 0.56194 0.46929 0.0
H709 H 0.95808 0.54857 0.52799 0.0
O710 O 0.99281 0.59025 0.39977 0.0
H711 H 0.06265 0.62572 0.55686 0.0
H712 H 0.96263 0.51612 0.54285 0.0
Cu713 Cu 0.42947 0.41006 0.46865 0.0
N714 N 0.41332 0.42189 0.47763 0.0
N715 N 0.38394 0.41991 0.45476 0.0
C716 C 0.39289 0.41089 0.48044 0.0
C717 C 0.39931 0.43763 0.43688 0.0
C718 C 0.41733 0.43884 0.45116 0.0
O719 O 0.41877 0.38385 0.50744 0.0
C720 C 0.4395 0.4163 0.35962 0.0
O721 O 0.4586 0.42755 0.37381 0.0
H722 H 0.38484 0.39508 0.49258 0.0
H723 H 0.43201 0.44944 0.43492 0.0
N724 N 0.45649 0.4294 0.48702 0.0
N725 N 0.48417 0.45947 0.50473 0.0
C726 C 0.46371 0.44916 0.49981 0.0
C727 C 0.47306 0.4272 0.48474 0.0
C728 C 0.49018 0.44577 0.49537 0.0
C729 C 0.41435 0.38186 0.55552 0.0
O730 O 0.41688 0.39787 0.58137 0.0
H731 H 0.45434 0.45613 0.50394 0.0
H732 H 0.47279 0.41327 0.47387 0.0
O733 O 0.42613 0.40577 0.3935 0.0
H734 H 0.39763 0.44758 0.40975 0.0
H735 H 0.50585 0.44915 0.49447 0.0
Cu736 Cu 0.60344 0.02472 0.47627 0.0
N737 N 0.59641 0.99809 0.49284 0.0
N738 N 0.59621 0.96884 0.48279 0.0
C739 C 0.6059 0.98887 0.4721 0.0
C740 C 0.57997 0.96512 0.51178 0.0
C741 C 0.58018 0.98338 0.5182 0.0
O742 O 0.62731 0.04246 0.52008 0.0
C743 C 0.59498 0.0119 0.37318 0.0
O744 O 0.57881 0.99728 0.39607 0.0
H745 H 0.61892 0.99641 0.44672 0.0
H746 H 0.56877 0.98553 0.53761 0.0
N747 N 0.58177 0.0293 0.49202 0.0
N748 N 0.55076 0.02553 0.50321 0.0
C749 C 0.56145 0.01662 0.48722 0.0
C750 C 0.58381 0.04672 0.51147 0.0
C751 C 0.56473 0.04445 0.51839 0.0
C752 C 0.64481 0.04395 0.51581 0.0
O753 O 0.64817 0.03501 0.47674 0.0
H754 H 0.5546 1.00121 0.47255 0.0
H755 H 0.59824 0.06015 0.52018 0.0
O756 O 0.60806 0.02673 0.40076 0.0
H757 H 0.56843 0.95024 0.52524 0.0
H758 H 0.56132 0.05572 0.5336 0.0
Cu759 Cu 0.25069 0.31997 0.39664 0.0
N760 N 0.26873 0.348 0.39541 0.0
N761 N 0.29955 0.37556 0.40445 0.0
C762 C 0.28821 0.35771 0.37928 0.0
C763 C 0.28622 0.37772 0.43445 0.0
C764 C 0.26731 0.3608 0.42874 0.0
O765 O 0.26036 0.30553 0.34983 0.0
C766 C 0.26233 0.31965 0.50276 0.0
O767 O 0.28087 0.32767 0.48454 0.0
H768 H 0.29439 0.35074 0.35441 0.0
H769 H 0.25423 0.35683 0.45288 0.0
N770 N 0.22557 0.31573 0.37146 0.0
N771 N 0.19913 0.32011 0.35301 0.0
C772 C 0.21705 0.32757 0.37822 0.0
C773 C 0.21249 0.30031 0.341 0.0
C774 C 0.19616 0.30298 0.32954 0.0
C775 C 0.27602 0.30333 0.35394 0.0
O776 O 0.28732 0.30985 0.39552 0.0
H777 H 0.22385 0.34146 0.40059 0.0
H778 H 0.2148 0.28808 0.32766 0.0
O779 O 0.24734 0.31308 0.47125 0.0
H780 H 0.2903 0.3895 0.46316 0.0
H781 H 0.1832 0.29324 0.30559 0.0
Cu782 Cu 0.68899 0.9353 0.38605 0.0
N783 N 0.6626 0.92966 0.37224 0.0
N784 N 0.63399 0.93026 0.3867 0.0
C785 C 0.65427 0.93986 0.39387 0.0
C786 C 0.62925 0.91338 0.35916 0.0
C787 C 0.64707 0.91309 0.35002 0.0
O788 O 0.70827 0.96143 0.35099 0.0
C789 C 0.67647 0.92281 0.48871 0.0
O790 O 0.6612 0.90763 0.46465 0.0
H791 H 0.66267 0.95331 0.41751 0.0
H792 H 0.6484 0.90103 0.33141 0.0
N793 N 0.69226 0.91358 0.36188 0.0
N794 N 0.68711 0.88224 0.34579 0.0
C795 C 0.68019 0.89332 0.37038 0.0
C796 C 0.70724 0.91518 0.3309 0.0
C797 C 0.7041 0.89589 0.32088 0.0
C798 C 0.70442 0.96565 0.30595 0.0
O799 O 0.68766 0.95222 0.28256 0.0
H800 H 0.66647 0.88675 0.39336 0.0
H801 H 0.71952 0.92942 0.31624 0.0
O802 O 0.69109 0.93668 0.46219 0.0
H803 H 0.61398 0.90173 0.34872 0.0
H804 H 0.71343 0.89212 0.29687 0.0
Cu805 Cu 0.07792 0.7631 0.40972 0.0
N806 N 0.0889 0.747 0.43044 0.0
N807 N 0.09043 0.71969 0.4555 0.0
C808 C 0.07829 0.72771 0.44769 0.0
C809 C 0.10939 0.7343 0.44287 0.0
C810 C 0.1084 0.75122 0.42733 0.0
O811 O 0.05501 0.7472 0.3613 0.0
C812 C 0.06736 0.76919 0.51851 0.0
O813 O 0.05744 0.77614 0.54534 0.0
H814 H 0.06191 0.71945 0.4526 0.0
H815 H 0.12095 0.76525 0.41284 0.0
N816 N 0.09826 0.7866 0.37581 0.0
N817 N 0.12832 0.81351 0.35403 0.0
C818 C 0.11773 0.79938 0.39049 0.0
C819 C 0.09669 0.79306 0.32851 0.0
C820 C 0.11518 0.80964 0.315 0.0
C821 C 0.04363 0.75385 0.34354 0.0
O822 O 0.04707 0.7719 0.35826 0.0
H823 H 0.12432 0.79795 0.42609 0.0
H824 H 0.08323 0.78581 0.30461 0.0
O825 O 0.06734 0.77074 0.46934 0.0
H826 H 0.12272 0.73255 0.44311 0.0
H827 H 0.11892 0.81781 0.27875 0.0
C828 C 0.2626 0.99255 0.23017 0.0
C829 C 0.26429 0.99175 0.28424 0.0
C830 C 0.28314 0.02892 0.28774 0.0
C831 C 0.28492 0.02944 0.23337 0.0
N832 N 0.27705 0.01201 0.152 0.0
N833 N 0.27593 0.00865 0.36557 0.0
C834 C 0.2745 0.01134 0.20414 0.0
C835 C 0.27417 0.00984 0.31354 0.0
N836 N 0.24956 0.97521 0.20422 0.0
N837 N 0.29018 0.04677 0.31421 0.0
H838 H 0.26935 0.99479 0.38528 0.0
H839 H 0.28473 0.02122 0.38874 0.0
H840 H 0.29649 0.06086 0.29555 0.0
H841 H 0.28811 0.0475 0.35361 0.0
H842 H 0.24651 0.97483 0.165 0.0
H843 H 0.24017 0.96159 0.22358 0.0
H844 H 0.27162 0.99904 0.1291 0.0
H845 H 0.28579 0.02561 0.13199 0.0
C846 C 0.02799 0.2742 0.25618 0.0
C847 C 0.02836 0.27911 0.30892 0.0
C848 C 0.99121 0.26037 0.31174 0.0
C849 C 0.99091 0.2581 0.25749 0.0
N850 N 1.00808 0.26189 0.17739 0.0
N851 N 0.01115 0.27762 0.3876 0.0
C852 C 0.00908 0.26446 0.22956 0.0
C853 C 0.01015 0.272 0.33723 0.0
N854 N 0.04591 0.27932 0.23195 0.0
N855 N 0.97328 0.25159 0.33837 0.0
H856 H 0.02495 0.28587 0.40712 0.0
H857 H 0.99855 0.27503 0.40934 0.0
H858 H 0.9592 0.24331 0.32025 0.0
H859 H 0.97233 0.25118 0.37837 0.0
H860 H 0.047 0.27554 0.19406 0.0
H861 H 0.0598 0.28629 0.25147 0.0
H862 H 0.02074 0.26763 0.15337 0.0
H863 H 0.99422 0.25438 0.15775 0.0
C864 C 0.74954 0.74876 0.23114 0.0
C865 C 0.75039 0.7333 0.25985 0.0
C866 C 0.73238 0.73826 0.33142 0.0
C867 C 0.73117 0.75341 0.30235 0.0
N868 N 0.74263 0.77686 0.23172 0.0
N869 N 0.74834 0.71765 0.3418 0.0
C870 C 0.74123 0.75997 0.25449 0.0
C871 C 0.74364 0.72947 0.31163 0.0
N872 N 0.75568 0.75189 0.18093 0.0
N873 N 0.72182 0.73153 0.37653 0.0
H874 H 0.75706 0.7116 0.32791 0.0
H875 H 0.74541 0.71558 0.38118 0.0
H876 H 0.71374 0.73801 0.39247 0.0
H877 H 0.72011 0.71883 0.39652 0.0
H878 H 0.75359 0.76152 0.15616 0.0
H879 H 0.76181 0.74379 0.16319 0.0
H880 H 0.75113 0.78357 0.19863 0.0
H881 H 0.73661 0.78516 0.24898 0.0
C882 C 0.73893 1.00051 0.82399 0.0
C883 C 0.73046 0.98234 0.79488 0.0
C884 C 0.74111 1.0018 0.71455 0.0
C885 C 0.74901 0.01996 0.74357 0.0
N886 N 0.76019 0.0374 0.82454 0.0
N887 N 0.72747 0.96515 0.71507 0.0
C888 C 0.7496 0.01952 0.79807 0.0
C889 C 0.73305 0.98289 0.74082 0.0
N890 N 0.73562 0.99947 0.87587 0.0
N891 N 0.74019 1.00268 0.66216 0.0
H892 H 0.72179 0.95123 0.73424 0.0
H893 H 0.73007 0.96443 0.67598 0.0
H894 H 0.74621 0.01646 0.64219 0.0
H895 H 0.73256 0.98988 0.63876 0.0
H896 H 0.7394 0.01214 0.89884 0.0
H897 H 0.72803 0.98563 0.89559 0.0
H898 H 0.76244 0.03823 0.86422 0.0
H899 H 0.76823 0.05145 0.80586 0.0
C900 C 0.02626 0.74979 0.72531 0.0
C901 C 0.02729 0.75195 0.77962 0.0
C902 C 0.99044 0.73757 0.78378 0.0
C903 C 0.98918 0.73223 0.73113 0.0
N904 N 1.00504 0.7333 0.65054 0.0
N905 N 0.01123 0.74884 0.86123 0.0
C906 C 1.00692 0.73876 0.7012 0.0
C907 C 0.00962 0.74652 0.80899 0.0
N908 N 0.04391 0.75807 0.69748 0.0
N909 N 0.97309 0.73352 0.8094 0.0
H910 H 0.02526 0.7556 0.88012 0.0
H911 H 0.99884 0.74348 0.88603 0.0
H912 H 0.95895 0.72696 0.79112 0.0
H913 H 0.9728 0.73793 0.84717 0.0
H914 H 0.04446 0.75821 0.65744 0.0
H915 H 0.05819 0.76629 0.71483 0.0
H916 H 0.01719 0.73565 0.62725 0.0
H917 H 0.9909 0.72559 0.63224 0.0
C918 C 0.28521 0.25358 0.82007 0.0
C919 C 0.28075 0.24817 0.76757 0.0
C920 C 0.25179 0.25385 0.77313 0.0
C921 C 0.25948 0.2639 0.82057 0.0
N922 N 0.28302 0.27321 0.89085 0.0
N923 N 0.25926 0.24197 0.69375 0.0
C924 C 0.27577 0.26328 0.8452 0.0
C925 C 0.26349 0.2474 0.74427 0.0
N926 N 0.2987 0.24964 0.84518 0.0
N927 N 0.23363 0.25111 0.75557 0.0
H928 H 0.26773 0.23731 0.67186 0.0
H929 H 0.24804 0.24298 0.67297 0.0
H930 H 0.22522 0.25618 0.7764 0.0
H931 H 0.22627 0.24256 0.72303 0.0
H932 H 0.30159 0.25195 0.88451 0.0
H933 H 0.30542 0.24211 0.82727 0.0
H934 H 0.29663 0.27575 0.90731 0.0
H935 H 0.27585 0.27988 0.91067 0.0
C936 C 0.95844 0.35499 0.64318 0.0
C937 C 0.95308 0.35724 0.5921 0.0
C938 C 0.92637 0.32131 0.59117 0.0
C939 C 0.93346 0.31866 0.63944 0.0
N940 N 0.95585 0.33201 0.71193 0.0
N941 N 0.93322 0.34273 0.51558 0.0
C942 C 0.94926 0.33533 0.66584 0.0
C943 C 0.93711 0.3405 0.56584 0.0
N944 N 0.9721 0.37175 0.67011 0.0
N945 N 0.90965 0.30529 0.5693 0.0
H946 H 0.94121 0.35653 0.49585 0.0
H947 H 0.92316 0.33075 0.49221 0.0
H948 H 0.90212 0.29083 0.58599 0.0
H949 H 0.90247 0.30653 0.53644 0.0
H950 H 0.97535 0.37158 0.70897 0.0
H951 H 0.97923 0.38632 0.65436 0.0
H952 H 0.96894 0.3428 0.73083 0.0
H953 H 0.94851 0.31788 0.73048 0.0
C954 C 0.65549 0.58972 0.59749 0.0
C955 C 0.65291 0.5997 0.55453 0.0
C956 C 0.6888 0.62594 0.55769 0.0
C957 C 0.69085 0.61741 0.60467 0.0
N958 N 0.67617 0.59221 0.67166 0.0
N959 N 0.666 0.62726 0.49399 0.0
C960 C 0.67425 0.59935 0.62483 0.0
C961 C 0.66936 0.61768 0.53432 0.0
N962 N 0.63972 0.57125 0.61243 0.0
N963 N 0.70549 0.6417 0.53502 0.0
H964 H 0.65206 0.62089 0.47472 0.0
H965 H 0.67653 0.64183 0.48119 0.0
H966 H 0.71995 0.64837 0.55117 0.0
H967 H 0.70543 0.64719 0.49829 0.0
H968 H 0.64086 0.5622 0.64096 0.0
H969 H 0.62571 0.56431 0.59343 0.0
H970 H 0.66417 0.5802 0.69112 0.0
H971 H 0.6896 0.59933 0.69307 0.0
C972 C 0.41684 0.08225 0.64242 0.0
C973 C 0.40669 0.09079 0.61533 0.0
C974 C 0.41435 0.0804 0.53308 0.0
C975 C 0.42359 0.07098 0.56033 0.0
N976 N 0.43919 0.06791 0.63759 0.0
N977 N 0.40073 0.1034 0.53638 0.0
C978 C 0.42681 0.07376 0.6141 0.0
C979 C 0.40731 0.09179 0.56089 0.0
N980 N 0.4157 0.08105 0.69487 0.0
N981 N 0.41113 0.07725 0.48135 0.0
H982 H 0.39588 0.11203 0.55696 0.0
H983 H 0.40187 0.10596 0.4968 0.0
H984 H 0.41639 0.06908 0.46024 0.0
H985 H 0.40244 0.08179 0.45997 0.0
H986 H 0.4208 0.07294 0.71676 0.0
H987 H 0.40859 0.08735 0.71638 0.0
H988 H 0.44324 0.07049 0.67633 0.0
H989 H 0.447 0.06223 0.61653 0.0
C990 C 0.40875 0.3365 0.99788 0.0
C991 C 0.41628 0.35309 0.03249 0.0
C992 C 0.4014 0.32992 0.10549 0.0
C993 C 0.39323 0.31331 0.07079 0.0
N994 N 0.39222 0.2997 0.98685 0.0
N995 N 0.42489 0.36598 0.11871 0.0
C996 C 0.39806 0.31629 0.01774 0.0
C997 C 0.41438 0.34982 0.08633 0.0
N998 N 0.41098 0.34026 0.94618 0.0
N999 N 0.3957 0.32671 0.15608 0.0
H1000 H 0.43462 0.38069 0.105 0.0
H1001 H 0.42546 0.36458 0.15848 0.0
H1002 H 0.38613 0.31223 0.17121 0.0
H1003 H 0.3993 0.33841 0.18233 0.0
H1004 H 0.40446 0.32898 0.91817 0.0
H1005 H 0.41901 0.35502 0.9313 0.0
H1006 H 0.39659 0.30061 0.94851 0.0
H1007 H 0.38403 0.28481 1.00098 0.0
C1008 C 0.6748 0.06582 0.99509 0.0
C1009 C 0.65974 0.06094 0.03342 0.0
C1010 C 0.686 0.07535 0.10004 0.0
C1011 C 0.701 0.08052 0.06157 0.0
N1012 N 0.71057 0.08579 0.97259 0.0
N1013 N 0.65091 0.06531 0.11938 0.0
C1014 C 0.69564 0.07747 1.00898 0.0
C1015 C 0.66539 0.0672 0.08505 0.0
N1016 N 0.66925 0.05809 0.94655 0.0
N1017 N 0.69139 0.07734 0.15079 0.0
H1018 H 0.63576 0.05973 0.10859 0.0
H1019 H 0.65419 0.07096 0.15681 0.0
H1020 H 0.70645 0.08336 0.16281 0.0
H1021 H 0.68088 0.07176 0.18079 0.0
H1022 H 0.67968 0.05938 0.9186 0.0
H1023 H 0.65411 0.04897 0.93539 0.0
H1024 H 0.70757 0.08599 0.9335 0.0
H1025 H 0.72598 0.09418 0.98236 0.0
C1026 C 0.9415 0.60666 0.15014 0.0
C1027 C 0.93509 0.61809 0.12046 0.0
C1028 C 0.94865 0.6113 0.04204 0.0
C1029 C 0.95506 0.59987 0.07174 0.0
N1030 N 0.95552 0.58391 0.15127 0.0
N1031 N 0.92956 0.62922 0.03821 0.0
C1032 C 0.95072 0.59662 0.12508 0.0
C1033 C 0.93764 0.61965 0.06621 0.0
N1034 N 0.93935 0.60614 0.20244 0.0
N1035 N 0.95405 0.61491 0.99129 0.0
H1036 H 0.92183 0.63584 0.05517 0.0
H1037 H 0.92935 0.62957 0.99815 0.0
H1038 H 0.96178 0.60857 0.97277 0.0
H1039 H 0.95184 0.62488 0.96813 0.0
H1040 H 0.94536 0.59975 0.22752 0.0
H1041 H 0.93217 0.61304 0.22108 0.0
H1042 H 0.95174 0.5797 0.18961 0.0
H1043 H 0.96221 0.57641 0.13329 0.0
C1044 C 0.59604 0.65176 0.89593 0.0
C1045 C 0.59208 0.65078 0.94947 0.0
C1046 C 0.60489 0.68748 0.95133 0.0
C1047 C 0.612 0.68879 0.90028 0.0
N1048 N 0.61426 0.673 0.8226 0.0
N1049 N 0.59113 0.66662 0.02837 0.0
C1050 C 0.60718 0.67107 0.87181 0.0
C1051 C 0.59567 0.66833 0.97709 0.0
N1052 N 0.58914 0.63411 0.8687 0.0
N1053 N 0.6075 0.70472 0.97501 0.0
H1054 H 0.58409 0.65256 0.04727 0.0
H1055 H 0.59474 0.67892 0.05249 0.0
H1056 H 0.61465 0.71891 0.9568 0.0
H1057 H 0.60167 0.7049 1.01113 0.0
H1058 H 0.59015 0.6335 0.82885 0.0
H1059 H 0.58082 0.61985 0.88601 0.0
H1060 H 0.61336 0.66098 0.80113 0.0
H1061 H 0.6219 0.68708 0.80387 0.0
C1062 C 0.34794 0.96017 0.97964 0.0
C1063 C 0.36432 0.96058 0.95302 0.0
C1064 C 0.3417 0.94107 0.88206 0.0
C1065 C 0.32557 0.94211 0.9068 0.0
N1066 N 0.31416 0.95562 0.97574 0.0
N1067 N 0.37809 0.95341 0.87811 0.0
C1068 C 0.32887 0.95246 0.95472 0.0
C1069 C 0.36152 0.9514 0.90409 0.0
N1070 N 0.35076 0.96714 0.02917 0.0
N1071 N 0.33801 0.93046 0.83707 0.0
H1072 H 0.39261 0.96036 0.89451 0.0
H1073 H 0.37775 0.94912 0.8399 0.0
H1074 H 0.32404 0.9241 0.81806 0.0
H1075 H 0.34845 0.92725 0.81957 0.0
H1076 H 0.33897 0.96534 0.05315 0.0
H1077 H 0.36478 0.97314 0.0479 0.0
H1078 H 0.31678 0.96542 1.00654 0.0
H1079 H 0.29949 0.94942 0.96123 0.0
C1080 C 0.08348 0.40377 0.89726 0.0
C1081 C 0.08657 0.3904 0.92891 0.0
C1082 C 0.07307 0.39957 1.00358 0.0
C1083 C 0.06779 0.41106 0.97061 0.0
N1084 N 0.0677 0.42462 0.88691 0.0
N1085 N 0.08566 0.37578 1.01177 0.0
C1086 C 0.07325 0.4136 0.91773 0.0
C1087 C 0.08198 0.38856 0.98228 0.0
N1088 N 0.09032 0.40682 0.84759 0.0
N1089 N 0.0694 0.39932 0.05515 0.0
H1090 H 0.09303 0.36834 0.99728 0.0
H1091 H 0.0811 0.37207 0.0499 0.0
H1092 H 0.06284 0.40737 0.07091 0.0
H1093 H 0.07379 0.39226 0.08265 0.0
H1094 H 0.0901 0.41754 0.82287 0.0
H1095 H 0.09752 0.39937 0.83198 0.0
H1096 H 0.06906 0.42538 0.847 0.0
H1097 H 0.06097 0.43261 0.90158 0.0
C1098 C 0.07837 0.68424 0.4291 0.0
C1099 C 0.08374 0.69889 0.46859 0.0
C1100 C 0.06836 0.67204 0.53341 0.0
C1101 C 0.06282 0.65727 0.49392 0.0
N1102 N 0.06699 0.64898 0.40725 0.0
N1103 N 0.08943 0.7075 0.55805 0.0
C1104 C 0.0694 0.66335 0.44263 0.0
C1105 C 0.08064 0.69298 0.5208 0.0
N1106 N 0.08108 0.69032 0.3788 0.0
N1107 N 0.06061 0.66621 0.58187 0.0
H1108 H 0.0982 0.72299 0.54921 0.0
H1109 H 0.08965 0.70401 0.59679 0.0
H1110 H 0.05101 0.65104 0.59218 0.0
H1111 H 0.06246 0.67653 0.61075 0.0
H1112 H 0.07548 0.68022 0.34793 0.0
H1113 H 0.088 0.70563 0.36806 0.0
H1114 H 0.07275 0.65246 0.36993 0.0
H1115 H 0.06082 0.63363 0.41705 0.0
C1116 C 0.3336 0.3777 0.41234 0.0
C1117 C 0.32152 0.3873 0.40989 0.0
C1118 C 0.35124 0.4192 0.43798 0.0
C1119 C 0.36336 0.40981 0.43537 0.0
N1120 N 0.36715 0.38298 0.39609 0.0
N1121 N 0.32153 0.41914 0.40354 0.0
C1122 C 0.35493 0.39002 0.41441 0.0
C1123 C 0.33121 0.40875 0.41727 0.0
N1124 N 0.32518 0.35717 0.41809 0.0
N1125 N 0.35837 0.43755 0.4619 0.0
H1126 H 0.30745 0.41207 0.3849 0.0
H1127 H 0.32857 0.435 0.4051 0.0
H1128 H 0.37262 0.44517 0.47953 0.0
H1129 H 0.3493 0.4441 0.46839 0.0
H1130 H 0.33398 0.3502 0.4228 0.0
H1131 H 0.30992 0.34763 0.4264 0.0
H1132 H 0.36127 0.36887 0.37786 0.0
H1133 H 0.3829 0.39231 0.39304 0.0
C1134 C 0.61031 0.94364 0.38099 0.0
C1135 C 0.62034 0.93568 0.41094 0.0
C1136 C 0.61096 0.9464 0.49022 0.0
C1137 C 0.6011 0.95452 0.46024 0.0
N1138 N 0.58664 0.95645 0.37967 0.0
N1139 N 0.62571 0.9244 0.49293 0.0
C1140 C 0.59914 0.95153 0.40629 0.0
C1141 C 0.6191 0.93535 0.4654 0.0
N1142 N 0.61255 0.94478 0.32871 0.0
N1143 N 0.61355 0.95032 0.54181 0.0
H1144 H 0.63116 0.91575 0.475 0.0
H1145 H 0.624 0.92231 0.53264 0.0
H1146 H 0.60754 0.95826 0.56088 0.0
H1147 H 0.62263 0.94683 0.56494 0.0
H1148 H 0.60748 0.95245 0.30502 0.0
H1149 H 0.62075 0.93915 0.30927 0.0
H1150 H 0.58337 0.95346 0.34064 0.0
H1151 H 0.57799 0.96178 0.39822 0.0
C1152 C 0.33393 0.07623 0.45269 0.0
C1153 C 0.34423 0.09317 0.4864 0.0
C1154 C 0.3681 0.11259 0.41611 0.0
C1155 C 0.35883 0.09518 0.38371 0.0
N1156 N 0.3351 0.05924 0.37437 0.0
N1157 N 0.3743 0.12574 0.50313 0.0
C1158 C 0.34235 0.07664 0.40298 0.0
C1159 C 0.36221 0.11086 0.46888 0.0
N1160 N 0.31563 0.06009 0.46715 0.0
N1161 N 0.38195 0.13113 0.39604 0.0
H1162 H 0.37133 0.12475 0.54254 0.0
H1163 H 0.38859 0.1379 0.49362 0.0
H1164 H 0.38657 0.13321 0.35763 0.0
H1165 H 0.38739 0.14477 0.41618 0.0
H1166 H 0.30633 0.04827 0.44243 0.0
H1167 H 0.30883 0.05933 0.50259 0.0
H1168 H 0.32463 0.04483 0.38824 0.0
H1169 H 0.34095 0.05893 0.33825 0.0
C1170 C 0.9337 0.24475 0.45513 0.0
C1171 C 0.9383 0.26101 0.48983 0.0
C1172 C 0.93793 0.28195 0.41717 0.0
C1173 C 0.93314 0.26568 0.38258 0.0
N1174 N 0.92215 0.23009 0.36998 0.0
N1175 N 0.93905 0.29279 0.50533 0.0
C1176 C 0.92945 0.24653 0.40214 0.0
C1177 C 0.93874 0.27894 0.47117 0.0
N1178 N 0.9347 0.22814 0.4719 0.0
N1179 N 0.94194 0.30048 0.39829 0.0
H1180 H 0.93849 0.29061 0.54495 0.0
H1181 H 0.93761 0.30527 0.49465 0.0
H1182 H 0.93976 0.3028 0.35973 0.0
H1183 H 0.94836 0.31376 0.42021 0.0
H1184 H 0.93398 0.21691 0.44746 0.0
H1185 H 0.93787 0.22633 0.51 0.0
H1186 H 0.91713 0.21528 0.38275 0.0
H1187 H 0.91959 0.23092 0.33085 0.0
C1188 C 0.74741 0.65196 0.47029 0.0
C1189 C 0.76079 0.67189 0.49016 0.0
C1190 C 0.76734 0.68497 0.40135 0.0
C1191 C 0.75127 0.66604 0.38317 0.0
N1192 N 0.72466 0.6318 0.40121 0.0
N1193 N 0.78284 0.70778 0.47389 0.0
C1194 C 0.74098 0.64958 0.41787 0.0
C1195 C 0.7705 0.68854 0.45544 0.0
N1196 N 0.74095 0.63517 0.50102 0.0
N1197 N 0.7802 0.69919 0.36679 0.0
H1198 H 0.78629 0.71089 0.51289 0.0
H1199 H 0.78852 0.72078 0.45087 0.0
H1200 H 0.7787 0.69666 0.32713 0.0
H1201 H 0.79335 0.71253 0.37744 0.0
H1202 H 0.73323 0.6203 0.48693 0.0
H1203 H 0.74427 0.63597 0.5401 0.0
H1204 H 0.71493 0.62017 0.42608 0.0
H1205 H 0.72004 0.62926 0.36275 0.0
C1206 C 0.06413 0.32753 0.14158 0.0
C1207 C 0.08455 0.337 0.15933 0.0
C1208 C 0.096 0.33717 0.07034 0.0
C1209 C 0.07535 0.32547 0.05373 0.0
N1210 N 0.03978 0.30627 0.07651 0.0
N1211 N 0.11991 0.34868 0.14166 0.0
C1212 C 0.05942 0.3198 0.09027 0.0
C1213 C 0.10045 0.34108 0.12398 0.0
N1214 N 0.04918 0.32608 0.17362 0.0
N1215 N 0.11139 0.34571 0.03497 0.0
H1216 H 0.12407 0.35311 0.17984 0.0
H1217 H 0.13166 0.34948 0.11914 0.0
H1218 H 0.10905 0.34397 0.99538 0.0
H1219 H 0.12639 0.35624 0.0446 0.0
H1220 H 0.03426 0.32094 0.16175 0.0
H1221 H 0.05223 0.33213 0.21064 0.0
H1222 H 0.02772 0.30004 0.10252 0.0
H1223 H 0.03584 0.29959 0.04011 0.0
C1224 C 0.68898 0.76126 0.13144 0.0
C1225 C 0.66888 0.74855 0.15078 0.0
C1226 C 0.6594 0.73031 0.06783 0.0
C1227 C 0.6787 0.74469 0.04661 0.0
N1228 N 0.71129 0.77517 0.05733 0.0
N1229 N 0.63406 0.72281 0.13422 0.0
C1230 C 0.69324 0.76064 0.07811 0.0
C1231 C 0.6539 0.73342 0.1183 0.0
N1232 N 0.7044 0.77312 0.16468 0.0
N1233 N 0.64616 0.71363 0.03986 0.0
H1234 H 0.6293 0.72486 0.17023 0.0
H1235 H 0.62203 0.71333 0.11011 0.0
H1236 H 0.64855 0.71144 1.00153 0.0
H1237 H 0.63338 0.70123 0.05592 0.0
H1238 H 0.71963 0.78135 0.15383 0.0
H1239 H 0.70236 0.77306 0.20437 0.0
H1240 H 0.72131 0.78863 0.07626 0.0
H1241 H 0.71574 0.77446 0.01976 0.0
C1242 C 0.27216 0.92715 0.11772 0.0
C1243 C 0.2546 0.92237 0.14763 0.0
C1244 C 0.23627 0.92027 0.06691 0.0
C1245 C 0.25306 0.92278 0.03739 0.0
N1246 N 0.28395 0.92079 0.03727 0.0
N1247 N 0.21781 0.90689 0.14641 0.0
C1248 C 0.27008 0.9238 0.06347 0.0
C1249 C 0.23602 0.91689 0.12105 0.0
N1250 N 0.29101 0.93577 0.13977 0.0
N1251 N 0.22021 0.92039 0.04336 0.0
H1252 H 0.2165 0.90161 0.1841 0.0
H1253 H 0.20381 0.90125 0.12786 0.0
H1254 H 0.21954 0.92211 1.00365 0.0
H1255 H 0.20846 0.92052 0.06392 0.0
H1256 H 0.30427 0.94095 0.11804 0.0
H1257 H 0.29374 0.94 0.17834 0.0
H1258 H 0.29561 0.91969 0.0557 0.0
H1259 H 0.2826 0.91735 0.99811 0.0
C1260 C 0.67328 0.93681 0.62948 0.0
C1261 C 0.67002 0.91878 0.65502 0.0
C1262 C 0.67482 0.9056 0.57274 0.0
C1263 C 0.67629 0.92274 0.54638 0.0
N1264 N 0.6735 0.95312 0.54864 0.0
N1265 N 0.6638 0.88437 0.6493 0.0
C1266 C 0.67463 0.93798 0.57448 0.0
C1267 C 0.66967 0.90271 0.62605 0.0
N1268 N 0.67592 0.95317 0.65776 0.0
N1269 N 0.67907 0.89238 0.54712 0.0
H1270 H 0.65949 0.88154 0.68794 0.0
H1271 H 0.66121 0.87137 0.62927 0.0
H1272 H 0.68338 0.89425 0.50844 0.0
H1273 H 0.68034 0.88078 0.56529 0.0
H1274 H 0.68083 0.96754 0.64192 0.0
H1275 H 0.6746 0.95276 0.69775 0.0
H1276 H 0.66982 0.9632 0.56639 0.0
H1277 H 0.6747 0.95466 0.5087 0.0
C1278 C 0.09831 0.77317 0.56354 0.0
C1279 C 0.07791 0.76015 0.54803 0.0
C1280 C 0.07413 0.73595 0.61674 0.0
C1281 C 0.09336 0.75056 0.63752 0.0
N1282 N 0.12304 0.78434 0.63268 0.0
N1283 N 0.04631 0.72881 0.55788 0.0
C1284 C 0.10552 0.76931 0.61077 0.0
C1285 C 0.06592 0.74127 0.57369 0.0
N1286 N 0.11055 0.78973 0.53387 0.0
N1287 N 0.06386 0.71686 0.63786 0.0
H1288 H 0.04047 0.73176 0.52458 0.0
H1289 H 0.03566 0.71609 0.57833 0.0
H1290 H 0.06968 0.71235 0.66842 0.0
H1291 H 0.05065 0.70488 0.62223 0.0
H1292 H 0.1262 0.79875 0.53943 0.0
H1293 H 0.10521 0.79331 0.5007 0.0
H1294 H 0.13124 0.79909 0.61807 0.0
H1295 H 0.12859 0.78285 0.66811 0.0
C1296 C 0.24984 0.30259 0.58971 0.0
C1297 C 0.25936 0.32065 0.55968 0.0
C1298 C 0.2621 0.34068 0.63733 0.0
C1299 C 0.2547 0.32295 0.66831 0.0
N1300 N 0.24665 0.28784 0.67431 0.0
N1301 N 0.27916 0.35757 0.55879 0.0
C1302 C 0.24984 0.30407 0.64456 0.0
C1303 C 0.26693 0.33989 0.58466 0.0
N1304 N 0.24114 0.28399 0.56616 0.0
N1305 N 0.26369 0.35813 0.65725 0.0
H1306 H 0.28352 0.35788 0.52083 0.0
H1307 H 0.28675 0.37177 0.5767 0.0
H1308 H 0.25957 0.35919 0.69492 0.0
H1309 H 0.26697 0.37083 0.63478 0.0
H1310 H 0.23204 0.27034 0.58567 0.0
H1311 H 0.24176 0.28227 0.52647 0.0
H1312 H 0.24504 0.27439 0.65911 0.0
H1313 H 0.24814 0.28871 0.71422 0.0
C1314 C 0.92127 0.67148 0.97933 0.0
C1315 C 0.94171 0.68398 0.99658 0.0
C1316 C 0.95365 0.68748 0.90692 0.0
C1317 C 0.93315 0.67654 0.88946 0.0
N1318 N 0.8973 0.66068 0.90813 0.0
N1319 N 0.97705 0.70654 0.97616 0.0
C1320 C 0.91693 0.66935 0.92545 0.0
C1321 C 0.95783 0.69268 0.96011 0.0
N1322 N 0.90609 0.66064 1.01413 0.0
N1323 N 0.96916 0.6927 0.87266 0.0
H1324 H 0.98053 0.7111 1.01448 0.0
H1325 H 0.98916 0.71493 0.95122 0.0
H1326 H 0.96661 0.68923 0.83363 0.0
H1327 H 0.98436 0.69888 0.8833 0.0
H1328 H 0.89143 0.6495 1.00357 0.0
H1329 H 0.90845 0.66128 0.05377 0.0
H1330 H 0.885 0.65745 0.93197 0.0
H1331 H 0.89344 0.65797 0.86921 0.0
C1332 C 0.33644 0.278 0.95919 0.0
C1333 C 0.32627 0.25885 0.98485 0.0
C1334 C 0.33892 0.24447 0.9194 0.0
C1335 C 0.34946 0.26375 0.89376 0.0
N1336 N 0.36209 0.29995 0.8972 0.0
N1337 N 0.32246 0.22576 0.99758 0.0
C1338 C 0.34944 0.28087 0.91629 0.0
C1339 C 0.32941 0.24288 0.96802 0.0
N1340 N 0.33292 0.29322 0.97459 0.0
N1341 N 0.33608 0.22718 0.89532 0.0
H1342 H 0.31491 0.22408 0.03237 0.0
H1343 H 0.32595 0.21431 0.99024 0.0
H1344 H 0.34102 0.22698 0.85807 0.0
H1345 H 0.32675 0.21258 0.90994 0.0
H1346 H 0.33754 0.30656 0.95364 0.0
H1347 H 0.32443 0.29196 1.00744 0.0
H1348 H 0.36418 0.31324 0.91469 0.0
H1349 H 0.37214 0.30265 0.86685 0.0
C1350 C 0.76996 0.10242 0.91984 0.0
C1351 C 0.75184 0.08958 0.89159 0.0
C1352 C 0.7432 0.06204 0.95481 0.0
C1353 C 0.76163 0.07461 0.98167 0.0
N1354 N 0.79 0.10789 0.9977 0.0
N1355 N 0.71898 0.05902 0.88894 0.0
C1356 C 0.77396 0.09528 0.96707 0.0
C1357 C 0.73775 0.06994 0.91134 0.0
N1358 N 0.78425 0.1207 0.89944 0.0
N1359 N 0.73133 0.04219 0.96987 0.0
H1360 H 0.71441 0.06457 0.85792 0.0
H1361 H 0.70726 0.04544 0.90382 0.0
H1362 H 0.73429 0.03651 1.00346 0.0
H1363 H 0.71912 0.03125 0.94858 0.0
H1364 H 0.79873 0.12966 0.91496 0.0
H1365 H 0.78239 0.12637 0.86455 0.0
H1366 H 0.79849 0.12364 0.99282 0.0
H1367 H 0.79366 0.10265 0.03092 0.0
C1368 C 0.02782 0.43427 0.7494 0.0
C1369 C 0.01058 0.42668 0.71652 0.0
C1370 C 0.98827 0.40903 0.79091 0.0
C1371 C 1.00548 0.41715 0.8237 0.0
N1372 N 0.04029 0.44319 0.83693 0.0
N1373 N 0.97385 0.41151 0.70994 0.0
C1374 C 0.02491 0.43139 0.80367 0.0
C1375 C 0.99064 0.41566 0.73855 0.0
N1376 N 0.04701 0.44456 0.7292 0.0
N1377 N 0.96979 0.39424 0.80888 0.0
H1378 H 0.97433 0.41462 0.67073 0.0
H1379 H 0.95941 0.40585 0.72595 0.0
H1380 H 0.96742 0.38922 0.84701 0.0
H1381 H 0.95723 0.38591 0.78507 0.0
H1382 H 0.06004 0.44834 0.75076 0.0
H1383 H 0.0499 0.44823 0.69025 0.0
H1384 H 0.05436 0.45513 0.82512 0.0
H1385 H 0.03804 0.44257 0.87669 0.0
C1386 C 0.58248 0.58901 0.80738 0.0
C1387 C 0.60235 0.59411 0.82443 0.0
C1388 C 0.61309 0.5962 0.7341 0.0
C1389 C 0.59392 0.59321 0.71699 0.0
N1390 N 0.56097 0.58879 0.73743 0.0
N1391 N 0.63723 0.60457 0.80417 0.0
C1392 C 0.57881 0.59023 0.75375 0.0
C1393 C 0.61784 0.59835 0.78774 0.0
N1394 N 0.56701 0.58273 0.84236 0.0
N1395 N 0.62664 0.59639 0.69915 0.0
H1396 H 0.64102 0.60483 0.84291 0.0
H1397 H 0.6498 0.61054 0.77971 0.0
H1398 H 0.62401 0.59528 0.65971 0.0
H1399 H 0.63977 0.59604 0.70927 0.0
H1400 H 0.55178 0.57663 0.83214 0.0
H1401 H 0.56912 0.58223 0.88188 0.0
H1402 H 0.55025 0.58894 0.76219 0.0
H1403 H 0.55752 0.589 0.69861 0.0
C1404 C 0.40391 0.01476 0.77926 0.0
C1405 C 0.42263 0.02617 0.80668 0.0
C1406 C 0.44022 0.02166 0.73259 0.0
C1407 C 0.42227 0.01388 0.70195 0.0
N1408 N 0.38757 0.00723 0.69579 0.0
N1409 N 0.45943 0.04419 0.80238 0.0
C1410 C 0.40421 0.01153 0.72513 0.0
C1411 C 0.44103 0.03063 0.78139 0.0
N1412 N 0.38573 0.00601 0.80483 0.0
N1413 N 0.4564 0.01996 0.71591 0.0
H1414 H 0.46087 0.05228 0.83606 0.0
H1415 H 0.47317 0.04922 0.78298 0.0
H1416 H 0.45596 0.01229 0.68215 0.0
H1417 H 0.46917 0.02389 0.73874 0.0
H1418 H 0.37194 0.99607 0.787 0.0
H1419 H 0.3846 0.00651 0.84468 0.0
H1420 H 0.37491 0.00746 0.71065 0.0
H1421 H 0.38715 1.00554 0.65597 0.0
C1422 C 0.57968 0.99382 0.2352 0.0
C1423 C 0.5985 0.99884 0.21135 0.0
C1424 C 0.6159 0.01324 0.29403 0.0
C1425 C 0.59734 0.01003 0.31615 0.0
N1426 N 0.56304 1.00313 0.30043 0.0
N1427 N 0.63525 0.01953 0.21535 0.0
C1428 C 0.57971 1.00217 0.28436 0.0
C1429 C 0.61685 0.0104 0.23992 0.0
N1430 N 0.56165 0.98025 0.21255 0.0
N1431 N 0.6324 0.01798 0.32439 0.0
H1432 H 0.63668 0.01915 0.17551 0.0
H1433 H 0.64883 0.02957 0.23387 0.0
H1434 H 0.63239 0.01953 0.3642 0.0
H1435 H 0.64547 0.01834 0.31037 0.0
H1436 H 0.54764 0.97476 0.23089 0.0
H1437 H 0.56077 0.97266 0.17836 0.0
H1438 H 0.55046 0.99917 0.27685 0.0
H1439 H 0.56287 0.01023 0.3347 0.0
C1440 C 0.0099 0.57573 0.29168 0.0
C1441 C 0.00863 0.59167 0.31713 0.0
C1442 C 0.01165 0.60831 0.23328 0.0
C1443 C 0.01455 0.59319 0.20856 0.0
N1444 N 0.02027 0.56471 0.2155 0.0
N1445 N 0.01153 0.62484 0.31338 0.0
C1446 C 0.01481 0.57756 0.23826 0.0
C1447 C 0.01036 0.60844 0.28824 0.0
N1448 N 1.00558 0.55839 0.3182 0.0
N1449 N 0.00932 0.62207 0.20421 0.0
H1450 H 0.01041 0.62538 0.35331 0.0
H1451 H 0.01511 0.63849 0.29508 0.0
H1452 H 0.01079 0.62285 0.16424 0.0
H1453 H 1.00463 0.6318 0.21932 0.0
H1454 H 1.00415 0.54536 0.30074 0.0
H1455 H 1.00141 0.55623 0.35697 0.0
H1456 H 0.02279 0.55432 0.23595 0.0
H1457 H 0.02426 0.56581 0.17669 0.0
C1458 C 0.41135 0.40481 0.2293 0.0
C1459 C 0.42175 0.4243 0.20505 0.0
C1460 C 0.4413 0.43861 0.28463 0.0
C1461 C 0.43309 0.41876 0.3064 0.0
N1462 N 0.41263 0.38234 0.29418 0.0
N1463 N 0.45113 0.4583 0.2061 0.0
C1464 C 0.41871 0.40165 0.27727 0.0
C1465 C 0.43802 0.44078 0.23167 0.0
N1466 N 0.394 0.38949 0.20768 0.0
N1467 N 0.45138 0.45557 0.31479 0.0
H1468 H 0.45036 0.46019 0.16654 0.0
H1469 H 0.46427 0.46994 0.22311 0.0
H1470 H 0.45281 0.45496 0.35456 0.0
H1471 H 0.45603 0.47023 0.30119 0.0
H1472 H 0.38471 0.37565 0.22616 0.0
H1473 H 0.38775 0.39133 0.17369 0.0
H1474 H 0.40379 0.36939 0.27203 0.0
H1475 H 0.41811 0.37936 0.328 0.0
C1476 C 0.34238 0.18957 0.20417 0.0
C1477 C 0.32784 0.18558 0.16492 0.0
C1478 C 0.33131 0.15674 0.13447 0.0
C1479 C 0.34508 0.16013 0.17528 0.0
N1480 N 0.36237 0.17795 0.25203 0.0
N1481 N 0.30692 0.16484 0.09551 0.0
C1482 C 0.35025 0.17609 0.211 0.0
C1483 C 0.32188 0.16898 0.13077 0.0
N1484 N 0.34889 0.20655 0.23407 0.0
N1485 N 0.32774 0.14211 0.09868 0.0
H1486 H 0.30025 0.17396 0.09155 0.0
H1487 H 0.30036 0.15197 0.07216 0.0
H1488 H 0.33424 0.13281 0.10123 0.0
H1489 H 0.31933 0.13985 0.0652 0.0
H1490 H 0.36079 0.21159 0.26041 0.0
H1491 H 0.3431 0.21643 0.23023 0.0
H1492 H 0.36543 0.18803 0.28239 0.0
H1493 H 0.36839 0.16833 0.25731 0.0
C1494 C 0.85054 0.15397 0.15515 0.0
C1495 C 0.8306 0.14755 0.17319 0.0
C1496 C 0.83988 0.18328 0.18782 0.0
C1497 C 0.86007 0.18964 0.17194 0.0
N1498 N 0.88557 0.18151 0.14581 0.0
N1499 N 0.80647 0.15525 0.2118 0.0
C1500 C 0.86566 0.17506 0.15711 0.0
C1501 C 0.82532 0.16202 0.19096 0.0
N1502 N 0.85472 0.13981 0.13488 0.0
N1503 N 0.83465 0.19773 0.19855 0.0
H1504 H 0.79554 0.13979 0.21372 0.0
H1505 H 0.80202 0.16466 0.22986 0.0
H1506 H 0.8452 0.21331 0.19741 0.0
H1507 H 0.81982 0.19448 0.20574 0.0
H1508 H 0.86831 0.1434 0.11655 0.0
H1509 H 0.8439 0.12431 0.13357 0.0
H1510 H 0.89129 0.17176 0.1392 0.0
H1511 H 0.89679 0.19687 0.14626 0.0
C1512 C 0.83678 0.69132 0.16749 0.0
C1513 C 0.82099 0.67081 0.17351 0.0
C1514 C 0.84633 0.66064 0.19431 0.0
C1515 C 0.86216 0.68091 0.18522 0.0
N1516 N 0.87304 0.71502 0.15696 0.0
N1517 N 0.81028 0.63551 0.18676 0.0
C1518 C 0.85751 0.69612 0.17008 0.0
C1519 C 0.82567 0.65533 0.18533 0.0
N1520 N 0.83183 0.70623 0.16077 0.0
N1521 N 0.85114 0.64671 0.21317 0.0
H1522 H 0.79507 0.6314 0.18101 0.0
H1523 H 0.81261 0.62312 0.19028 0.0
H1524 H 0.86614 0.65025 0.21983 0.0
H1525 H 0.84038 0.63214 0.22537 0.0
H1526 H 0.84242 0.72175 0.16105 0.0
H1527 H 0.81679 0.70307 0.15859 0.0
H1528 H 0.87086 0.72641 0.14092 0.0
H1529 H 0.88829 0.71881 0.15861 0.0
C1530 C 0.15913 0.33386 0.3884 0.0
C1531 C 0.1597 0.34524 0.3444 0.0
C1532 C 0.18726 0.34106 0.30769 0.0
C1533 C 0.18599 0.32883 0.35047 0.0
N1534 N 0.1697 0.31156 0.42877 0.0
N1535 N 0.17226 0.358 0.25977 0.0
C1536 C 0.17162 0.32468 0.39015 0.0
C1537 C 0.17325 0.34838 0.30332 0.0
N1538 N 0.14695 0.33234 0.42889 0.0
N1539 N 0.20225 0.34599 0.27202 0.0
H1540 H 0.1622 0.36359 0.25613 0.0
H1541 H 0.18032 0.35933 0.22622 0.0
H1542 H 0.21251 0.34061 0.27436 0.0
H1543 H 0.2054 0.35631 0.24212 0.0
H1544 H 0.14704 0.32593 0.4643 0.0
H1545 H 0.13748 0.33867 0.428 0.0
H1546 H 0.15832 0.30624 0.45663 0.0
H1547 H 0.17893 0.30497 0.43108 0.0
C1548 C 0.66625 0.84924 0.30134 0.0
C1549 C 0.678 0.86029 0.34457 0.0
C1550 C 0.67254 0.82837 0.38406 0.0
C1551 C 0.66195 0.81754 0.33932 0.0
N1552 N 0.6503 0.81738 0.25331 0.0
N1553 N 0.69405 0.86125 0.425 0.0
C1554 C 0.6592 0.82793 0.29738 0.0
C1555 C 0.68156 0.85004 0.38552 0.0
N1556 N 0.66151 0.85921 0.26479 0.0
N1557 N 0.67352 0.81772 0.42543 0.0
H1558 H 0.70053 0.87706 0.42707 0.0
H1559 H 0.69897 0.85521 0.45398 0.0
H1560 H 0.66725 0.80192 0.4248 0.0
H1561 H 0.67935 0.82421 0.46119 0.0
H1562 H 0.65151 0.85195 0.23442 0.0
H1563 H 0.66658 0.87479 0.26699 0.0
H1564 H 0.64941 0.82416 0.21927 0.0
H1565 H 0.64493 0.80177 0.24983 0.0
C1566 C 0.16353 0.82379 0.32776 0.0
C1567 C 0.14983 0.82827 0.35393 0.0
C1568 C 0.17831 0.86162 0.37968 0.0
C1569 C 0.19184 0.85757 0.35118 0.0
N1570 N 0.19756 0.83635 0.29304 0.0
N1571 N 0.14321 0.85177 0.40009 0.0
C1572 C 0.18447 0.83904 0.32375 0.0
C1573 C 0.15698 0.84732 0.37864 0.0
N1574 N 0.15647 0.80469 0.30808 0.0
N1575 N 0.18606 0.8789 0.40887 0.0
H1576 H 0.1276 0.84135 0.40041 0.0
H1577 H 0.14697 0.86603 0.41469 0.0
H1578 H 0.20157 0.88966 0.40958 0.0
H1579 H 0.17747 0.88206 0.43455 0.0
H1580 H 0.16581 0.79961 0.29262 0.0
H1581 H 0.1412 0.79333 0.31052 0.0
H1582 H 0.19304 0.82407 0.26815 0.0
H1583 H 0.21295 0.84733 0.28977 0.0
C1584 C 0.68275 0.85171 0.87215 0.0
C1585 C 0.66586 0.84852 0.84173 0.0
C1586 C 0.66196 0.81615 0.81054 0.0
C1587 C 0.67969 0.82 0.83814 0.0
N1588 N 0.7085 0.84226 0.89012 0.0
N1589 N 0.64123 0.82967 0.77621 0.0
C1590 C 0.69052 0.83804 0.86763 0.0
C1591 C 0.65597 0.83124 0.80928 0.0
N1592 N 0.69089 0.86747 0.90645 0.0
N1593 N 0.6505 0.79772 0.78703 0.0
H1594 H 0.63671 0.84062 0.77442 0.0
H1595 H 0.63469 0.81853 0.74782 0.0
H1596 H 0.65444 0.78634 0.78776 0.0
H1597 H 0.63632 0.79304 0.7705 0.0
H1598 H 0.70196 0.86966 0.93344 0.0
H1599 H 0.68547 0.87766 0.91024 0.0
H1600 H 0.71828 0.85602 0.90816 0.0
H1601 H 0.71433 0.83238 0.88754 0.0
C1602 C 0.17622 0.82459 0.80302 0.0
C1603 C 0.15831 0.81717 0.83308 0.0
C1604 C 0.16979 0.85187 0.86472 0.0
C1605 C 0.18726 0.85942 0.83293 0.0
N1606 N 0.20631 0.85397 0.76739 0.0
N1607 N 0.13636 0.8236 0.88684 0.0
C1608 C 0.19024 0.84602 0.80076 0.0
C1609 C 0.15463 0.83082 0.86234 0.0
N1610 N 0.18002 0.81098 0.77801 0.0
N1611 N 0.1681 0.86485 0.89821 0.0
H1612 H 0.12507 0.80827 0.88567 0.0
H1613 H 0.13172 0.83285 0.905 0.0
H1614 H 0.17898 0.88031 0.90032 0.0
H1615 H 0.15683 0.86018 0.92622 0.0
H1616 H 0.19363 0.81494 0.75927 0.0
H1617 H 0.16978 0.79531 0.77857 0.0
H1618 H 0.20854 0.84549 0.73931 0.0
H1619 H 0.21687 0.86955 0.76581 0.0
C1620 C 0.15516 0.30661 0.86348 0.0
C1621 C 0.15034 0.32201 0.85193 0.0
C1622 C 0.18684 0.3474 0.8458 0.0
C1623 C 0.19165 0.3322 0.85984 0.0
N1624 N 0.18113 0.29785 0.88541 0.0
N1625 N 0.16083 0.35706 0.83469 0.0
C1626 C 0.17596 0.31189 0.8695 0.0
C1627 C 0.16603 0.34245 0.84371 0.0
N1628 N 0.13971 0.28688 0.86753 0.0
N1629 N 0.20234 0.36648 0.83391 0.0
H1630 H 0.14572 0.35365 0.83178 0.0
H1631 H 0.17122 0.37259 0.83237 0.0
H1632 H 0.21762 0.37036 0.83602 0.0
H1633 H 0.20028 0.37815 0.81954 0.0
H1634 H 0.14187 0.27441 0.87135 0.0
H1635 H 0.12441 0.28286 0.86445 0.0
H1636 H 0.1707 0.28322 0.8979 0.0
H1637 H 0.19622 0.3012 0.88829 0.0
C1638 C 0.84093 0.65759 0.74399 0.0
C1639 C 0.85493 0.6623 0.70305 0.0
C1640 C 0.84133 0.68193 0.6599 0.0
C1641 C 0.82662 0.67631 0.69949 0.0
N1642 N 0.81083 0.65764 0.77665 0.0
N1643 N 0.86789 0.67733 0.62033 0.0
C1644 C 0.82602 0.66383 0.74096 0.0
C1645 C 0.85499 0.67408 0.6605 0.0
N1646 N 0.84228 0.64746 0.78604 0.0
N1647 N 0.84237 0.69511 0.62246 0.0
H1648 H 0.87831 0.67211 0.62063 0.0
H1649 H 0.86767 0.68417 0.58575 0.0
H1650 H 0.83227 0.70069 0.62091 0.0
H1651 H 0.85377 0.70143 0.59469 0.0
H1652 H 0.83383 0.64493 0.81955 0.0
H1653 H 0.8529 0.64254 0.78849 0.0
H1654 H 0.8082 0.64711 0.80565 0.0
H1655 H 0.79998 0.66229 0.77537 0.0
C1656 C 0.36427 0.18974 0.73166 0.0
C1657 C 0.35671 0.19909 0.69769 0.0
C1658 C 0.33563 0.16621 0.65397 0.0
C1659 C 0.34237 0.15666 0.68965 0.0
N1660 N 0.36175 0.15834 0.76444 0.0
N1661 N 0.33436 0.1966 0.62899 0.0
C1662 C 0.3564 0.16821 0.72902 0.0
C1663 C 0.34215 0.18739 0.65941 0.0
N1664 N 0.37923 0.20167 0.7658 0.0
N1665 N 0.32323 0.15492 0.61442 0.0
H1666 H 0.33929 0.21214 0.6314 0.0
H1667 H 0.32237 0.18887 0.60332 0.0
H1668 H 0.31814 0.13939 0.6103 0.0
H1669 H 0.31891 0.16096 0.58414 0.0
H1670 H 0.38689 0.19647 0.78902 0.0
H1671 H 0.38476 0.21732 0.76902 0.0
H1672 H 0.37046 0.16523 0.79706 0.0
H1673 H 0.35655 0.14274 0.76234 0.0
C1674 C 0.85609 0.16329 0.68981 0.0
C1675 C 0.86157 0.18381 0.69945 0.0
C1676 C 0.8254 0.17371 0.70824 0.0
C1677 C 0.8199 0.15342 0.69556 0.0
N1678 N 0.82928 0.12867 0.67074 0.0
N1679 N 0.85212 0.20926 0.71464 0.0
C1680 C 0.83509 0.14814 0.68552 0.0
C1681 C 0.84636 0.1892 0.70796 0.0
N1682 N 0.8711 0.15837 0.68597 0.0
N1683 N 0.81041 0.17795 0.7209 0.0
H1684 H 0.86735 0.22073 0.71518 0.0
H1685 H 0.84203 0.21479 0.71686 0.0
H1686 H 0.79501 0.16682 0.7205 0.0
H1687 H 0.81307 0.19198 0.73457 0.0
H1688 H 0.86843 0.14351 0.68373 0.0
H1689 H 0.88653 0.16933 0.68786 0.0
H1690 H 0.8393 0.12402 0.65776 0.0
H1691 H 0.81405 0.1172 0.66927 0.0
C1692 C 0.01861 0.50734 0.55395 0.0
C1693 C 0.01529 0.49399 0.51223 0.0
C1694 C 0.99662 0.50784 0.46553 0.0
C1695 C 1.00036 0.52152 0.50674 0.0
N1696 N 0.01621 0.53612 0.58759 0.0
N1697 N 1.00286 0.48213 0.42697 0.0
C1698 C 0.01177 0.52178 0.55029 0.0
C1699 C 1.00478 0.49445 0.46751 0.0
N1700 N 0.02802 0.50583 0.59728 0.0
N1701 N 0.98488 0.50753 0.42516 0.0
H1702 H 1.0082 0.47182 0.4284 0.0
H1703 H 0.99687 0.4826 0.39129 0.0
H1704 H 0.97926 0.51759 0.42253 0.0
H1705 H 0.97997 0.49694 0.3954 0.0
H1706 H 0.02958 0.51376 0.6312 0.0
H1707 H 0.03357 0.49571 0.60008 0.0
H1708 H 0.02578 0.53848 0.61873 0.0
H1709 H 0.01106 0.54657 0.58585 0.0
C1710 C 0.51301 0.51108 0.56879 0.0
C1711 C 0.52129 0.52393 0.5252 0.0
C1712 C 0.50465 0.49415 0.46805 0.0
C1713 C 0.49704 0.48121 0.51171 0.0
N1714 N 0.49539 0.4765 0.60322 0.0
N1715 N 0.52764 0.52806 0.43429 0.0
C1716 C 0.50168 0.48948 0.56207 0.0
C1717 C 0.51784 0.51552 0.47502 0.0
N1718 N 0.51551 0.51972 0.61633 0.0
N1719 N 0.49872 0.48592 0.42003 0.0
H1720 H 0.53732 0.54374 0.43865 0.0
H1721 H 0.52741 0.52291 0.39705 0.0
H1722 H 0.48937 0.4703 0.414 0.0
H1723 H 0.50193 0.49454 0.38649 0.0
H1724 H 0.50842 0.51157 0.64956 0.0
H1725 H 0.52392 0.53546 0.62201 0.0
H1726 H 0.49961 0.48114 0.64112 0.0
H1727 H 0.48678 0.46069 0.5989 0.0
C1728 C 0.51886 0.02029 0.46319 0.0
C1729 C 0.52891 0.01687 0.50478 0.0
C1730 C 0.49641 0.99808 0.55128 0.0
C1731 C 0.48655 1.00238 0.51082 0.0
N1732 N 0.48793 0.01864 0.43038 0.0
N1733 N 0.5283 1.0042 0.58986 0.0
C1734 C 0.49769 0.01379 0.46726 0.0
C1735 C 0.51793 0.00615 0.54925 0.0
N1736 N 0.52967 0.02947 0.4196 0.0
N1737 N 0.48499 0.98596 0.59109 0.0
H1738 H 0.54394 0.00955 0.58854 0.0
H1739 H 0.52182 0.99825 0.62555 0.0
H1740 H 0.46935 0.98044 0.59391 0.0
H1741 H 0.49061 0.98053 0.61987 0.0
H1742 H 0.52323 0.03111 0.38581 0.0
H1743 H 0.54519 0.03448 0.41627 0.0
H1744 H 0.49521 0.02834 0.39949 0.0
H1745 H 0.4724 0.01372 0.43231 0.0
C1746 C 0.49323 1.00244 0.04232 0.0
C1747 C 0.49713 0.01874 1.00864 0.0
C1748 C 0.52701 0.0182 0.97385 0.0
C1749 C 0.5237 1.00259 1.00933 0.0
N1750 N 0.5053 0.98096 0.08043 0.0
N1751 N 0.51816 0.0435 0.94555 0.0
C1752 C 0.50719 0.99498 0.04441 0.0
C1753 C 0.51418 0.027 0.9752 0.0
N1754 N 0.47597 0.99401 0.07167 0.0
N1755 N 0.54218 0.02415 0.93817 0.0
H1756 H 0.50861 0.04975 0.94499 0.0
H1757 H 0.53129 0.05166 0.92361 0.0
H1758 H 0.5519 0.01811 0.93713 0.0
H1759 H 0.5445 0.03414 0.90799 0.0
H1760 H 0.47103 0.98093 0.09393 0.0
H1761 H 0.46583 0.99955 0.07145 0.0
H1762 H 0.49475 0.97586 0.11028 0.0
H1763 H 0.5153 0.97525 0.08224 0.0
C1764 C 0.02923 0.51868 0.05031 0.0
C1765 C 0.01628 0.52454 0.02547 0.0
C1766 C 0.99081 0.48841 1.01199 0.0
C1767 C 1.00446 0.48267 0.03324 0.0
N1768 N 0.03778 0.49214 0.06536 0.0
N1769 N 0.98595 0.51554 0.97696 0.0
C1770 C 0.024 0.49779 0.05051 0.0
C1771 C 0.99733 0.50952 1.00486 0.0
N1772 N 0.04628 0.53315 0.07494 0.0
N1773 N 0.97147 0.4736 0.99987 0.0
H1774 H 0.99041 0.53086 0.97133 0.0
H1775 H 0.97293 0.50553 0.95651 0.0
H1776 H 0.96651 0.45811 1.00436 0.0
H1777 H 0.96001 0.4766 0.98885 0.0
H1778 H 0.05545 0.52978 0.09806 0.0
H1779 H 0.05027 0.54849 0.07576 0.0
H1780 H 0.05296 0.50248 0.07365 0.0
H1781 H 0.03443 0.47699 0.06515 0.0
C1782 C 0.49407 0.50797 0.05591 0.0
C1783 C 0.48778 0.49034 0.02536 0.0
C1784 C 0.52355 0.50183 1.00417 0.0
C1785 C 0.52966 0.52017 0.03154 0.0
N1786 N 0.52079 0.54236 0.07662 0.0
N1787 N 0.49585 0.47141 0.96499 0.0
C1788 C 0.5149 0.52368 0.05565 0.0
C1789 C 0.50237 0.48748 0.99807 0.0
N1790 N 0.48009 0.50935 0.08623 0.0
N1791 N 0.5381 0.498 0.98517 0.0
H1792 H 0.48046 0.46076 0.95986 0.0
H1793 H 0.50545 0.4694 0.94004 0.0
H1794 H 0.55364 0.50839 0.98886 0.0
H1795 H 0.53491 0.48412 0.96911 0.0
H1796 H 0.48387 0.52083 0.11329 0.0
H1797 H 0.4648 0.49795 0.08729 0.0
H1798 H 0.51062 0.54668 0.09048 0.0
H1799 H 0.53588 0.55421 0.07613 0.0
C1800 C 0.38251 0.03936 0.08447 0.0
C1801 C 0.40102 0.05308 0.05914 0.0
C1802 C 0.40454 0.08024 0.11854 0.0
C1803 C 0.38472 0.06706 0.13884 0.0
N1804 N 0.35286 0.03542 0.12943 0.0
N1805 N 0.42842 0.08764 0.04806 0.0
C1806 C 0.37317 0.04699 0.11855 0.0
C1807 C 0.41177 0.07383 0.07522 0.0
N1808 N 0.37413 0.01879 0.0778 0.0
N1809 N 0.41678 0.0986 0.14163 0.0
H1810 H 0.43404 0.08359 0.0163 0.0
H1811 H 0.4356 0.10331 0.05433 0.0
H1812 H 0.41219 0.10365 0.17351 0.0
H1813 H 0.43207 0.10796 0.13214 0.0
H1814 H 0.36169 0.00809 0.09904 0.0
H1815 H 0.38104 0.01239 0.05587 0.0
H1816 H 0.34339 0.0215 0.11155 0.0
H1817 H 0.34493 0.04073 0.15131 0.0
C1818 C 0.9412 0.31777 0.07517 0.0
C1819 C 0.94133 0.31705 0.13001 0.0
C1820 C 0.96251 0.35462 0.13123 0.0
C1821 C 0.95999 0.35543 0.07705 0.0
N1822 N 0.94527 0.33762 0.99781 0.0
N1823 N 0.9506 0.33514 0.21071 0.0
C1824 C 0.94902 0.33694 0.04906 0.0
C1825 C 0.95175 0.33559 0.15815 0.0
N1826 N 0.93418 0.30009 0.04784 0.0
N1827 N 0.97575 0.37204 0.15687 0.0
H1828 H 0.94309 0.32162 0.23178 0.0
H1829 H 0.95574 0.34816 0.23328 0.0
H1830 H 0.98412 0.3861 0.13846 0.0
H1831 H 0.97994 0.37224 0.19515 0.0
H1832 H 0.93554 0.29965 1.00803 0.0
H1833 H 0.92878 0.28592 0.06546 0.0
H1834 H 0.93534 0.32483 0.97647 0.0
H1835 H 0.9509 0.35125 0.97731 0.0
C1836 C 0.6746 0.61818 0.04711 0.0
C1837 C 0.65633 0.60605 0.07515 0.0
C1838 C 0.67652 0.61371 0.15547 0.0
C1839 C 0.6947 0.62635 0.12765 0.0
N1840 N 0.7104 0.64428 0.04908 0.0
N1841 N 0.63952 0.59616 0.15751 0.0
C1842 C 0.69351 0.62966 0.07405 0.0
C1843 C 0.65721 0.60499 0.12982 0.0
N1844 N 0.67411 0.61802 0.99448 0.0
N1845 N 0.6777 0.60925 0.20594 0.0
H1846 H 0.62522 0.59002 0.14027 0.0
H1847 H 0.63903 0.59669 0.19752 0.0
H1848 H 0.69141 0.61549 0.22615 0.0
H1849 H 0.66533 0.59824 0.22674 0.0
H1850 H 0.68713 0.62453 0.97162 0.0
H1851 H 0.66067 0.61002 0.9734 0.0
H1852 H 0.71016 0.64899 1.01153 0.0
H1853 H 0.72433 0.65316 0.06759 0.0
C1854 C 0.07254 0.39948 0.41278 0.0
C1855 C 0.06242 0.37804 0.40448 0.0
C1856 C 0.03642 0.37365 0.4682 0.0
C1857 C 0.04743 0.39483 0.48009 0.0
N1858 N 0.07783 0.42747 0.46885 0.0
N1859 N 0.03746 0.34444 0.43391 0.0
C1860 C 0.06602 0.40765 0.45369 0.0
C1861 C 0.04515 0.36508 0.43502 0.0
N1862 N 0.08792 0.41213 0.38044 0.0
N1863 N 0.01706 0.36177 0.48646 0.0
H1864 H 0.04376 0.33752 0.4116 0.0
H1865 H 0.02627 0.3344 0.45924 0.0
H1866 H 0.00967 0.36747 0.50903 0.0
H1867 H 1.00751 0.34679 0.47457 0.0
H1868 H 0.09442 0.42793 0.38061 0.0
H1869 H 0.09316 0.40673 0.35061 0.0
H1870 H 0.09251 0.43702 0.45509 0.0
H1871 H 0.07363 0.43392 0.49847 0.0
C1872 C 0.60085 0.66861 0.47166 0.0
C1873 C 0.60977 0.65596 0.46929 0.0
C1874 C 0.63088 0.67628 0.39565 0.0
C1875 C 0.62129 0.68833 0.39633 0.0
N1876 N 0.5952 0.69434 0.43064 0.0
N1877 N 0.62993 0.64498 0.42196 0.0
C1878 C 0.60559 0.68389 0.43289 0.0
C1879 C 0.62391 0.65909 0.42935 0.0
N1880 N 0.58861 0.6667 0.51241 0.0
N1881 N 0.64679 0.68126 0.36277 0.0
H1882 H 0.62466 0.63188 0.44448 0.0
H1883 H 0.6385 0.64509 0.39053 0.0
H1884 H 0.65157 0.69281 0.33529 0.0
H1885 H 0.65614 0.67484 0.36488 0.0
H1886 H 0.58347 0.67687 0.52003 0.0
H1887 H 0.5847 0.65566 0.54099 0.0
H1888 H 0.5821 0.69037 0.45189 0.0
H1889 H 0.59897 0.70633 0.405 0.0
C1890 C 0.34686 0.95054 0.44747 0.0
C1891 C 0.35629 0.97155 0.46106 0.0
C1892 C 0.3322 0.97512 0.40394 0.0
C1893 C 0.32419 0.95477 0.38601 0.0
N1894 N 0.32622 0.92398 0.38566 0.0
N1895 N 0.36099 1.00482 0.44124 0.0
C1896 C 0.33214 0.94269 0.4065 0.0
C1897 C 0.34981 0.98409 0.43613 0.0
N1898 N 0.35134 0.93786 0.47492 0.0
N1899 N 0.32245 0.98571 0.39232 0.0
H1900 H 0.37451 0.01218 0.46227 0.0
H1901 H 0.35813 0.01479 0.41985 0.0
H1902 H 0.30895 0.97949 0.37116 0.0
H1903 H 0.32643 0.99979 0.40864 0.0
H1904 H 0.34343 0.92207 0.47076 0.0
H1905 H 0.36186 0.94296 0.50501 0.0
H1906 H 0.33302 0.91535 0.39493 0.0
H1907 H 0.31565 0.91781 0.35579 0.0
C1908 C 0.61345 0.93512 0.91749 0.0
C1909 C 0.63267 0.94741 0.89321 0.0
C1910 C 0.636 0.97737 0.93921 0.0
C1911 C 0.61809 0.9648 0.96819 0.0
N1912 N 0.59111 0.93099 0.9894 0.0
N1913 N 0.66445 0.97941 0.89199 0.0
C1914 C 0.60712 0.94345 0.95844 0.0
C1915 C 0.64455 0.96831 0.90718 0.0
N1916 N 0.6009 0.91573 0.9003 0.0
N1917 N 0.6445 0.99812 0.9404 0.0
H1918 H 0.67175 0.97322 0.87088 0.0
H1919 H 0.67434 0.99409 0.90544 0.0
H1920 H 0.63818 1.00545 0.96093 0.0
H1921 H 0.6564 0.00789 0.91628 0.0
H1922 H 0.58589 0.90675 0.91256 0.0
H1923 H 0.6049 0.90921 0.87044 0.0
H1924 H 0.58388 0.91514 0.98797 0.0
H1925 H 0.58608 0.93649 0.01945 0.0
C1926 C 0.07274 0.66046 0.94083 0.0
C1927 C 0.05571 0.658 0.96978 0.0
C1928 C 0.06016 0.68978 0.93107 0.0
C1929 C 0.0759 0.6912 0.89832 0.0
N1930 N 0.09318 0.67431 0.86373 0.0
N1931 N 0.02965 0.66731 0.97896 0.0
C1932 C 0.08099 0.67545 0.90075 0.0
C1933 C 0.04835 0.67175 0.96079 0.0
N1934 N 0.08177 0.64924 0.95293 0.0
N1935 N 0.05711 0.70602 0.93664 0.0
H1936 H 0.01996 0.65377 0.99824 0.0
H1937 H 0.02281 0.67589 0.96935 0.0
H1938 H 0.06611 0.72007 0.91882 0.0
H1939 H 0.04714 0.7063 0.96383 0.0
H1940 H 0.09546 0.65194 0.93659 0.0
H1941 H 0.0768 0.63868 0.98292 0.0
H1942 H 0.09583 0.6621 0.86083 0.0
H1943 H 0.0987 0.68431 0.83251 0.0
C1944 C 0.33096 0.39676 0.92586 0.0
C1945 C 0.31731 0.37535 0.92197 0.0
C1946 C 0.34174 0.36975 0.97218 0.0
C1947 C 0.35357 0.39097 0.98336 0.0
N1948 N 0.35713 0.42442 0.97627 0.0
N1949 N 0.30828 0.34158 0.95225 0.0
C1950 C 0.3476 0.40444 0.96149 0.0
C1951 C 0.32233 0.36185 0.94793 0.0
N1952 N 0.32855 0.40983 0.89416 0.0
N1953 N 0.34931 0.35711 0.98271 0.0
H1954 H 0.29348 0.33512 0.93808 0.0
H1955 H 0.31061 0.33158 0.97511 0.0
H1956 H 0.36387 0.36232 0.9975 0.0
H1957 H 0.34213 0.34193 0.97087 0.0
H1958 H 0.33913 0.42535 0.89186 0.0
H1959 H 0.31724 0.40483 0.86601 0.0
H1960 H 0.35199 0.43436 0.96566 0.0
H1961 H 0.36891 0.43057 1.00318 0.0
C1962 C 0.93221 0.61548 0.58363 0.0
C1963 C 0.94359 0.63126 0.61979 0.0
C1964 C 0.97431 0.62966 0.59681 0.0
C1965 C 0.96362 0.61614 0.55564 0.0
N1966 N 0.93254 0.59683 0.50774 0.0
N1967 N 0.97618 0.65503 0.65694 0.0
C1968 C 0.94252 0.60901 0.54885 0.0
C1969 C 0.9648 0.63863 0.62584 0.0
N1970 N 0.91145 0.60643 0.58326 0.0
N1971 N 0.99355 0.63367 0.60881 0.0
H1972 H 0.96997 0.66211 0.67884 0.0
H1973 H 0.99204 0.66268 0.65798 0.0
H1974 H 1.00088 0.6272 0.58885 0.0
H1975 H 1.00142 0.64172 0.64148 0.0
H1976 H 0.90202 0.59356 0.56152 0.0
H1977 H 0.90351 0.6107 0.60842 0.0
H1978 H 0.91783 0.59304 0.49686 0.0
H1979 H 0.93947 0.5915 0.4823 0.0
C1980 C 0.38185 0.33753 0.64758 0.0
C1981 C 0.39199 0.32596 0.64655 0.0
C1982 C 0.41683 0.35083 0.58455 0.0
C1983 C 0.40591 0.36161 0.5831 0.0
N1984 N 0.37505 0.3619 0.60389 0.0
N1985 N 0.41625 0.31914 0.60405 0.0
C1986 C 0.38752 0.35392 0.61184 0.0
C1987 C 0.40864 0.33191 0.61205 0.0
N1988 N 0.36752 0.33366 0.6845 0.0
N1989 N 0.43557 0.35909 0.56189 0.0
H1990 H 0.41037 0.305 0.62216 0.0
H1991 H 0.42692 0.32159 0.57559 0.0
H1992 H 0.44225 0.37289 0.54195 0.0
H1993 H 0.44526 0.35316 0.56673 0.0
H1994 H 0.3613 0.34303 0.69078 0.0
H1995 H 0.36323 0.32226 0.71222 0.0
H1996 H 0.36049 0.3556 0.61957 0.0
H1997 H 0.37834 0.37346 0.5772 0.0
C1998 C 0.66695 0.07382 0.57575 0.0
C1999 C 0.66087 0.05392 0.55706 0.0
C2000 C 0.68919 0.05449 0.60554 0.0
C2001 C 0.69433 0.07371 0.62758 0.0
N2002 N 0.68427 0.09887 0.64307 0.0
N2003 N 0.66254 0.0231 0.56852 0.0
C2004 C 0.68202 0.08251 0.61552 0.0
C2005 C 0.67086 0.04358 0.57642 0.0
N2006 N 0.65919 0.08494 0.55399 0.0
N2007 N 0.70229 0.04706 0.60919 0.0
H2008 H 0.64863 0.01429 0.54986 0.0
H2009 H 0.66819 0.0145 0.58588 0.0
H2010 H 0.71646 0.05484 0.62706 0.0
H2011 H 0.70006 0.03415 0.58926 0.0
H2012 H 0.66471 0.10029 0.5623 0.0
H2013 H 0.64861 0.07949 0.52407 0.0
H2014 H 0.67447 0.10474 0.63936 0.0
H2015 H 0.69449 0.10512 0.67365 0.0
C2016 C 0.75341 0.73145 0.78265 0.0
C2017 C 0.744 0.7215 0.73574 0.0
C2018 C 0.71512 0.72703 0.755 0.0
C2019 C 0.72566 0.73896 0.7989 0.0
N2020 N 0.75532 0.75327 0.85356 0.0
N2021 N 0.71656 0.71104 0.67495 0.0
C2022 C 0.74495 0.74135 0.81234 0.0
C2023 C 0.72487 0.71937 0.72168 0.0
N2024 N 0.77003 0.73064 0.80005 0.0
N2025 N 0.69582 0.72319 0.74463 0.0
H2026 H 0.7231 0.70519 0.64985 0.0
H2027 H 0.70399 0.71116 0.65917 0.0
H2028 H 0.68865 0.72958 0.76548 0.0
H2029 H 0.68631 0.71264 0.71739 0.0
H2030 H 0.77646 0.73562 0.83632 0.0
H2031 H 0.77635 0.7232 0.78005 0.0
H2032 H 0.77052 0.75802 0.86144 0.0
H2033 H 0.749 0.75929 0.87885 0.0
C2034 C 0.27611 0.00953 0.72825 0.0
C2035 C 0.29492 0.02779 0.73761 0.0
C2036 C 0.30026 0.01062 0.81208 0.0
C2037 C 0.28005 0.9938 0.80773 0.0
N2038 N 0.24733 0.97971 0.76564 0.0
N2039 N 0.32259 0.04671 0.79744 0.0
C2040 C 0.26759 0.99391 0.76679 0.0
C2041 C 0.3064 0.0286 0.78195 0.0
N2042 N 0.26666 0.00659 0.68166 0.0
N2043 N 0.31404 0.00924 0.84338 0.0
H2044 H 0.32698 0.06053 0.77902 0.0
H2045 H 0.33016 0.04836 0.8322 0.0
H2046 H 0.3107 0.99604 0.86369 0.0
H2047 H 0.32943 0.02032 0.84416 0.0
H2048 H 0.25395 0.99282 0.67116 0.0
H2049 H 0.27288 0.01695 0.65133 0.0
H2050 H 0.2372 0.98035 0.73954 0.0
H2051 H 0.2402 0.96863 0.79406 0.0
C2052 C 0.98814 0.26762 0.79643 0.0
C2053 C 0.98795 0.26412 0.74251 0.0
C2054 C 0.0255 0.28148 0.7439 0.0
C2055 C 0.02546 0.28239 0.79871 0.0
N2056 N 1.00631 0.27443 0.87772 0.0
N2057 N 1.00646 0.26631 0.66524 0.0
C2058 C 1.00666 0.27511 0.82511 0.0
C2059 C 1.00667 0.27083 0.71625 0.0
N2060 N 0.97065 0.26435 0.82008 0.0
N2061 N 0.0436 0.29141 0.71804 0.0
H2062 H 0.99309 0.25891 0.64364 0.0
H2063 H 0.01932 0.26855 0.64522 0.0
H2064 H 0.05756 0.2997 0.7368 0.0
H2065 H 0.04469 0.29315 0.67819 0.0
H2066 H 0.97014 0.26856 0.85797 0.0
H2067 H 0.95698 0.25928 0.80028 0.0
H2068 H 0.99293 0.26708 0.89917 0.0
H2069 H 0.01944 0.27983 0.90009 0.0
C2070 C 0.27398 0.26531 0.25192 0.0
C2071 C 0.29373 0.27642 0.22944 0.0
C2072 C 0.30153 0.3054 0.28698 0.0
C2073 C 0.28206 0.29399 0.31094 0.0
N2074 N 0.25127 0.26178 0.32236 0.0
N2075 N 0.32734 0.30603 0.23015 0.0
C2076 C 0.26866 0.27361 0.29486 0.0
C2077 C 0.30784 0.29609 0.24869 0.0
N2078 N 0.26021 0.24669 0.23217 0.0
N2079 N 0.31361 0.32559 0.29871 0.0
H2080 H 0.33224 0.30049 0.19994 0.0
H2081 H 0.33911 0.31913 0.24682 0.0
H2082 H 0.30969 0.33303 0.32613 0.0
H2083 H 0.32676 0.33549 0.27856 0.0
H2084 H 0.2448 0.23899 0.24164 0.0
H2085 H 0.26397 0.23925 0.2042 0.0
H2086 H 0.2419 0.24618 0.31667 0.0
H2087 H 0.24697 0.26717 0.35414 0.0
C2088 C 0.73645 0.02241 0.26659 0.0
C2089 C 0.74179 0.02053 0.21514 0.0
C2090 C 0.72611 0.98336 0.22818 0.0
C2091 C 0.71888 0.98492 0.27752 0.0
N2092 N 0.71483 0.00587 0.34087 0.0
N2093 N 0.738 0.99849 0.1439 0.0
C2094 C 0.7235 1.00446 0.29609 0.0
C2095 C 0.73562 1.00079 0.1952 0.0
N2096 N 0.74433 0.04134 0.28804 0.0
N2097 N 0.72448 0.96528 0.21333 0.0
H2098 H 0.74428 0.01069 0.11808 0.0
H2099 H 0.73184 0.98433 0.12595 0.0
H2100 H 0.71811 0.95235 0.23679 0.0
H2101 H 0.73133 0.96369 0.18026 0.0
H2102 H 0.74292 0.04372 0.32695 0.0
H2103 H 0.75371 0.05473 0.26781 0.0
H2104 H 0.71564 0.01931 0.3535 0.0
H2105 H 0.70547 0.99323 0.36358 0.0
C2106 C 1.0069 0.7394 0.31585 0.0
C2107 C 0.0264 0.74159 0.30658 0.0
C2108 C 0.01282 0.72183 0.22641 0.0
C2109 C 0.99444 0.72247 0.23187 0.0
N2110 N 0.97588 0.73562 0.27853 0.0
N2111 N 0.04872 0.73759 0.2473 0.0
C2112 C 0.99195 0.7322 0.27586 0.0
C2113 C 0.02957 0.73344 0.26039 0.0
N2114 N 1.00231 0.74357 0.36358 0.0
N2115 N 0.0141 0.70951 0.18997 0.0
H2116 H 0.06151 0.74641 0.26998 0.0
H2117 H 0.05222 0.73393 0.2115 0.0
H2118 H 1.00201 0.70019 0.16574 0.0
H2119 H 0.02632 0.70687 0.18763 0.0
H2120 H 0.98773 0.74036 0.37399 0.0
H2121 H 0.01246 0.74802 0.39447 0.0
H2122 H 0.97451 0.74449 0.30715 0.0
H2123 H 0.96508 0.73149 0.24936 0.0
loop_
_geom_bond_atom_site_label_1
_geom_bond_atom_site_label_2
_geom_bond_distance
_geom_bond_site_symmetry_2
_ccdc_geom_bond_type
Cu0 N1 1.999 . S
Cu0 O6 1.974 . S
Cu0 N11 1.985 . S
Cu0 O20 1.959 . S
N1 Cu0 1.999 . S
N1 C3 1.263 . S
N1 C5 1.389 . S
N2 C3 1.358 . S
N2 C4 1.400 . S
C3 N1 1.263 . S
C3 N2 1.358 . S
C3 H9 0.930 . S
C4 N2 1.400 . S
C4 C5 1.351 . S
C4 H21 0.930 . S
C5 N1 1.389 . S
C5 C4 1.351 . S
C5 H10 0.930 . S
O6 Cu0 1.974 . S
O6 C16 1.282 . S
C7 O8 1.261 . S
C7 O20 1.251 . S
O8 C7 1.261 . S
H9 C3 0.930 . S
H10 C5 0.930 . S
N11 Cu0 1.985 . S
N11 C13 1.335 . S
N11 C14 1.390 . S
N12 C13 1.345 . S
N12 C15 1.336 . S
C13 N11 1.335 . S
C13 N12 1.345 . S
C13 H18 0.930 . S
C14 N11 1.390 . S
C14 C15 1.346 . S
C14 H19 0.930 . S
C15 N12 1.336 . S
C15 C14 1.346 . S
C15 H22 0.929 . S
C16 O6 1.282 . S
C16 O17 1.216 . S
O17 C16 1.216 . S
H18 C13 0.930 . S
H19 C14 0.930 . S
O20 Cu0 1.959 . S
O20 C7 1.251 . S
H21 C4 0.930 . S
H22 C15 0.929 . S
Cu23 N24 1.999 . S
Cu23 O29 1.974 . S
Cu23 N34 1.985 . S
Cu23 O43 1.959 . S
N24 Cu23 1.999 . S
N24 C26 1.263 . S
N24 C28 1.389 . S
N25 C26 1.358 . S
N25 C27 1.400 . S
C26 N24 1.263 . S
C26 N25 1.358 . S
C26 H32 0.930 . S
C27 N25 1.400 . S
C27 C28 1.351 . S
C27 H44 0.930 . S
C28 N24 1.389 . S
C28 C27 1.351 . S
C28 H33 0.930 . S
O29 Cu23 1.974 . S
O29 C39 1.282 . S
C30 O31 1.261 . S
C30 O43 1.251 . S
O31 C30 1.261 . S
H32 C26 0.930 . S
H33 C28 0.930 . S
N34 Cu23 1.985 . S
N34 C36 1.335 . S
N34 C37 1.390 . S
N35 C36 1.345 . S
N35 C38 1.336 . S
C36 N34 1.335 . S
C36 N35 1.345 . S
C36 H41 0.930 . S
C37 N34 1.390 . S
C37 C38 1.346 . S
C37 H42 0.930 . S
C38 N35 1.336 . S
C38 C37 1.346 . S
C38 H45 0.929 . S
C39 O29 1.282 . S
C39 O40 1.216 . S
O40 C39 1.216 . S
H41 C36 0.930 . S
H42 C37 0.930 . S
O43 Cu23 1.959 . S
O43 C30 1.251 . S
H44 C27 0.930 . S
H45 C38 0.929 . S
Cu46 N47 1.999 . S
Cu46 O52 1.974 . S
Cu46 N57 1.985 . S
Cu46 O66 1.959 . S
N47 Cu46 1.999 . S
N47 C49 1.263 . S
N47 C51 1.389 . S
N48 C49 1.358 . S
N48 C50 1.400 . S
C49 N47 1.263 . S
C49 N48 1.358 . S
C49 H55 0.930 . S
C50 N48 1.400 . S
C50 C51 1.351 . S
C50 H67 0.930 . S
C51 N47 1.389 . S
C51 C50 1.351 . S
C51 H56 0.930 . S
O52 Cu46 1.974 . S
O52 C62 1.282 . S
C53 O54 1.261 . S
C53 O66 1.251 . S
O54 C53 1.261 . S
H55 C49 0.930 . S
H56 C51 0.930 . S
N57 Cu46 1.985 . S
N57 C59 1.335 . S
N57 C60 1.390 . S
N58 C59 1.345 . S
N58 C61 1.336 . S
C59 N57 1.335 . S
C59 N58 1.345 . S
C59 H64 0.930 . S
C60 N57 1.390 . S
C60 C61 1.346 . S
C60 H65 0.930 . S
C61 N58 1.336 . S
C61 C60 1.346 . S
C61 H68 0.929 . S
C62 O52 1.282 . S
C62 O63 1.216 . S
O63 C62 1.216 . S
H64 C59 0.930 . S
H65 C60 0.930 . S
O66 Cu46 1.959 . S
O66 C53 1.251 . S
H67 C50 0.930 . S
H68 C61 0.929 . S
Cu69 N70 1.999 . S
Cu69 O75 1.974 . S
Cu69 N80 1.985 . S
Cu69 O89 1.959 . S
N70 Cu69 1.999 . S
N70 C72 1.263 . S
N70 C74 1.389 . S
N71 C72 1.358 . S
N71 C73 1.400 . S
C72 N70 1.263 . S
C72 N71 1.358 . S
C72 H78 0.930 . S
C73 N71 1.400 . S
C73 C74 1.351 . S
C73 H90 0.930 . S
C74 N70 1.389 . S
C74 C73 1.351 . S
C74 H79 0.930 . S
O75 Cu69 1.974 . S
O75 C85 1.282 . S
C76 O77 1.261 . S
C76 O89 1.251 . S
O77 C76 1.261 . S
H78 C72 0.930 . S
H79 C74 0.930 . S
N80 Cu69 1.985 . S
N80 C82 1.335 . S
N80 C83 1.390 . S
N81 C82 1.345 . S
N81 C84 1.336 . S
C82 N80 1.335 . S
C82 N81 1.345 . S
C82 H87 0.930 . S
C83 N80 1.390 . S
C83 C84 1.346 . S
C83 H88 0.930 . S
C84 N81 1.336 . S
C84 C83 1.346 . S
C84 H91 0.929 . S
C85 O75 1.282 . S
C85 O86 1.216 . S
O86 C85 1.216 . S
H87 C82 0.930 . S
H88 C83 0.930 . S
O89 Cu69 1.959 . S
O89 C76 1.251 . S
H90 C73 0.930 . S
H91 C84 0.929 . S
Cu92 N93 1.999 . S
Cu92 O98 1.974 . S
Cu92 N103 1.985 . S
Cu92 O112 1.959 . S
N93 Cu92 1.999 . S
N93 C95 1.263 . S
N93 C97 1.389 . S
N94 C95 1.358 . S
N94 C96 1.400 . S
C95 N93 1.263 . S
C95 N94 1.358 . S
C95 H101 0.930 . S
C96 N94 1.400 . S
C96 C97 1.351 . S
C96 H113 0.930 . S
C97 N93 1.389 . S
C97 C96 1.351 . S
C97 H102 0.930 . S
O98 Cu92 1.974 . S
O98 C108 1.282 . S
C99 O100 1.261 . S
C99 O112 1.251 . S
O100 C99 1.261 . S
H101 C95 0.930 . S
H102 C97 0.930 . S
N103 Cu92 1.985 . S
N103 C105 1.335 . S
N103 C106 1.390 . S
N104 C105 1.345 . S
N104 C107 1.336 . S
C105 N103 1.335 . S
C105 N104 1.345 . S
C105 H110 0.930 . S
C106 N103 1.390 . S
C106 C107 1.346 . S
C106 H111 0.930 . S
C107 N104 1.336 . S
C107 C106 1.346 . S
C107 H114 0.929 . S
C108 O98 1.282 . S
C108 O109 1.216 . S
O109 C108 1.216 . S
H110 C105 0.930 . S
H111 C106 0.930 . S
O112 Cu92 1.959 . S
O112 C99 1.251 . S
H113 C96 0.930 . S
H114 C107 0.929 . S
Cu115 N116 1.999 . S
Cu115 O121 1.974 . S
Cu115 N126 1.985 . S
Cu115 O135 1.959 . S
N116 Cu115 1.999 . S
N116 C118 1.263 . S
N116 C120 1.389 . S
N117 C118 1.358 . S
N117 C119 1.400 . S
C118 N116 1.263 . S
C118 N117 1.358 . S
C118 H124 0.930 . S
C119 N117 1.400 . S
C119 C120 1.351 . S
C119 H136 0.930 . S
C120 N116 1.389 . S
C120 C119 1.351 . S
C120 H125 0.930 . S
O121 Cu115 1.974 . S
O121 C131 1.282 . S
C122 O123 1.261 . S
C122 O135 1.251 . S
O123 C122 1.261 . S
H124 C118 0.930 . S
H125 C120 0.930 . S
N126 Cu115 1.985 . S
N126 C128 1.335 . S
N126 C129 1.390 . S
N127 C128 1.345 . S
N127 C130 1.336 . S
C128 N126 1.335 . S
C128 N127 1.345 . S
C128 H133 0.930 . S
C129 N126 1.390 . S
C129 C130 1.346 . S
C129 H134 0.930 . S
C130 N127 1.336 . S
C130 C129 1.346 . S
C130 H137 0.929 . S
C131 O121 1.282 . S
C131 O132 1.216 . S
O132 C131 1.216 . S
H133 C128 0.930 . S
H134 C129 0.930 . S
O135 Cu115 1.959 . S
O135 C122 1.251 . S
H136 C119 0.930 . S
H137 C130 0.929 . S
Cu138 N139 1.999 . S
Cu138 O144 1.974 . S
Cu138 N149 1.985 . S
Cu138 O158 1.959 . S
N139 Cu138 1.999 . S
N139 C141 1.263 . S
N139 C143 1.389 . S
N140 C141 1.358 . S
N140 C142 1.400 . S
C141 N139 1.263 . S
C141 N140 1.358 . S
C141 H147 0.930 . S
C142 N140 1.400 . S
C142 C143 1.351 . S
C142 H159 0.930 . S
C143 N139 1.389 . S
C143 C142 1.351 . S
C143 H148 0.930 . S
O144 Cu138 1.974 . S
O144 C154 1.282 . S
C145 O146 1.261 . S
C145 O158 1.251 . S
O146 C145 1.261 . S
H147 C141 0.930 . S
H148 C143 0.930 . S
N149 Cu138 1.985 . S
N149 C151 1.335 . S
N149 C152 1.390 . S
N150 C151 1.345 . S
N150 C153 1.336 . S
C151 N149 1.335 . S
C151 N150 1.345 . S
C151 H156 0.930 . S
C152 N149 1.390 . S
C152 C153 1.346 . S
C152 H157 0.930 . S
C153 N150 1.336 . S
C153 C152 1.346 . S
C153 H160 0.929 . S
C154 O144 1.282 . S
C154 O155 1.216 . S
O155 C154 1.216 . S
H156 C151 0.930 . S
H157 C152 0.930 . S
O158 Cu138 1.959 . S
O158 C145 1.251 . S
H159 C142 0.930 . S
H160 C153 0.929 . S
Cu161 N162 1.999 . S
Cu161 O167 1.974 . S
Cu161 N172 1.985 . S
Cu161 O181 1.959 . S
N162 Cu161 1.999 . S
N162 C164 1.263 . S
N162 C166 1.389 . S
N163 C164 1.358 . S
N163 C165 1.400 . S
C164 N162 1.263 . S
C164 N163 1.358 . S
C164 H170 0.930 . S
C165 N163 1.400 . S
C165 C166 1.351 . S
C165 H182 0.930 . S
C166 N162 1.389 . S
C166 C165 1.351 . S
C166 H171 0.930 . S
O167 Cu161 1.974 . S
O167 C177 1.282 . S
C168 O169 1.261 . S
C168 O181 1.251 . S
O169 C168 1.261 . S
H170 C164 0.930 . S
H171 C166 0.930 . S
N172 Cu161 1.985 . S
N172 C174 1.335 . S
N172 C175 1.390 . S
N173 C174 1.345 . S
N173 C176 1.336 . S
C174 N172 1.335 . S
C174 N173 1.345 . S
C174 H179 0.930 . S
C175 N172 1.390 . S
C175 C176 1.346 . S
C175 H180 0.930 . S
C176 N173 1.336 . S
C176 C175 1.346 . S
C176 H183 0.929 . S
C177 O167 1.282 . S
C177 O178 1.216 . S
O178 C177 1.216 . S
H179 C174 0.930 . S
H180 C175 0.930 . S
O181 Cu161 1.959 . S
O181 C168 1.251 . S
H182 C165 0.930 . S
H183 C176 0.929 . S
Cu184 N185 1.999 . S
Cu184 O190 1.974 . S
Cu184 N195 1.985 . S
Cu184 O204 1.959 . S
N185 Cu184 1.999 . S
N185 C187 1.263 . S
N185 C189 1.389 . S
N186 C187 1.358 . S
N186 C188 1.400 . S
C187 N185 1.263 . S
C187 N186 1.358 . S
C187 H193 0.930 . S
C188 N186 1.400 . S
C188 C189 1.351 . S
C188 H205 0.930 . S
C189 N185 1.389 . S
C189 C188 1.351 . S
C189 H194 0.930 . S
O190 Cu184 1.974 . S
O190 C200 1.282 . S
C191 O192 1.261 . S
C191 O204 1.251 . S
O192 C191 1.261 . S
H193 C187 0.930 . S
H194 C189 0.930 . S
N195 Cu184 1.985 . S
N195 C197 1.335 . S
N195 C198 1.390 . S
N196 C197 1.345 . S
N196 C199 1.336 . S
C197 N195 1.335 . S
C197 N196 1.345 . S
C197 H202 0.930 . S
C198 N195 1.390 . S
C198 C199 1.346 . S
C198 H203 0.930 . S
C199 N196 1.336 . S
C199 C198 1.346 . S
C199 H206 0.929 . S
C200 O190 1.282 . S
C200 O201 1.216 . S
O201 C200 1.216 . S
H202 C197 0.930 . S
H203 C198 0.930 . S
O204 Cu184 1.959 . S
O204 C191 1.251 . S
H205 C188 0.930 . S
H206 C199 0.929 . S
Cu207 N208 1.999 . S
Cu207 O213 1.974 . S
Cu207 N218 1.985 . S
Cu207 O227 1.959 . S
N208 Cu207 1.999 . S
N208 C210 1.263 . S
N208 C212 1.389 . S
N209 C210 1.358 . S
N209 C211 1.400 . S
C210 N208 1.263 . S
C210 N209 1.358 . S
C210 H216 0.930 . S
C211 N209 1.400 . S
C211 C212 1.351 . S
C211 H228 0.930 . S
C212 N208 1.389 . S
C212 C211 1.351 . S
C212 H217 0.930 . S
O213 Cu207 1.974 . S
O213 C223 1.282 . S
C214 O215 1.261 . S
C214 O227 1.251 . S
O215 C214 1.261 . S
H216 C210 0.930 . S
H217 C212 0.930 . S
N218 Cu207 1.985 . S
N218 C220 1.335 . S
N218 C221 1.390 . S
N219 C220 1.345 . S
N219 C222 1.336 . S
C220 N218 1.335 . S
C220 N219 1.345 . S
C220 H225 0.930 . S
C221 N218 1.390 . S
C221 C222 1.346 . S
C221 H226 0.930 . S
C222 N219 1.336 . S
C222 C221 1.346 . S
C222 H229 0.929 . S
C223 O213 1.282 . S
C223 O224 1.216 . S
O224 C223 1.216 . S
H225 C220 0.930 . S
H226 C221 0.930 . S
O227 Cu207 1.959 . S
O227 C214 1.251 . S
H228 C211 0.930 . S
H229 C222 0.929 . S
Cu230 N231 1.999 . S
Cu230 O236 1.974 . S
Cu230 N241 1.985 . S
Cu230 O250 1.959 . S
N231 Cu230 1.999 . S
N231 C233 1.263 . S
N231 C235 1.389 . S
N232 C233 1.358 . S
N232 C234 1.400 . S
C233 N231 1.263 . S
C233 N232 1.358 . S
C233 H239 0.930 . S
C234 N232 1.400 . S
C234 C235 1.351 . S
C234 H251 0.930 . S
C235 N231 1.389 . S
C235 C234 1.351 . S
C235 H240 0.930 . S
O236 Cu230 1.974 . S
O236 C246 1.282 . S
C237 O238 1.261 . S
C237 O250 1.251 . S
O238 C237 1.261 . S
H239 C233 0.930 . S
H240 C235 0.930 . S
N241 Cu230 1.985 . S
N241 C243 1.335 . S
N241 C244 1.390 . S
N242 C243 1.345 . S
N242 C245 1.336 . S
C243 N241 1.335 . S
C243 N242 1.345 . S
C243 H248 0.930 . S
C244 N241 1.390 . S
C244 C245 1.346 . S
C244 H249 0.930 . S
C245 N242 1.336 . S
C245 C244 1.346 . S
C245 H252 0.929 . S
C246 O236 1.282 . S
C246 O247 1.216 . S
O247 C246 1.216 . S
H248 C243 0.930 . S
H249 C244 0.930 . S
O250 Cu230 1.959 . S
O250 C237 1.251 . S
H251 C234 0.930 . S
H252 C245 0.929 . S
Cu253 N254 1.999 . S
Cu253 O259 1.974 . S
Cu253 N264 1.985 . S
Cu253 O273 1.959 . S
N254 Cu253 1.999 . S
N254 C256 1.263 . S
N254 C258 1.389 . S
N255 C256 1.358 . S
N255 C257 1.400 . S
C256 N254 1.263 . S
C256 N255 1.358 . S
C256 H262 0.930 . S
C257 N255 1.400 . S
C257 C258 1.351 . S
C257 H274 0.930 . S
C258 N254 1.389 . S
C258 C257 1.351 . S
C258 H263 0.930 . S
O259 Cu253 1.974 . S
O259 C269 1.282 . S
C260 O261 1.261 . S
C260 O273 1.251 . S
O261 C260 1.261 . S
H262 C256 0.930 . S
H263 C258 0.930 . S
N264 Cu253 1.985 . S
N264 C266 1.335 . S
N264 C267 1.390 . S
N265 C266 1.345 . S
N265 C268 1.336 . S
C266 N264 1.335 . S
C266 N265 1.345 . S
C266 H271 0.930 . S
C267 N264 1.390 . S
C267 C268 1.346 . S
C267 H272 0.930 . S
C268 N265 1.336 . S
C268 C267 1.346 . S
C268 H275 0.929 . S
C269 O259 1.282 . S
C269 O270 1.216 . S
O270 C269 1.216 . S
H271 C266 0.930 . S
H272 C267 0.930 . S
O273 Cu253 1.959 . S
O273 C260 1.251 . S
H274 C257 0.930 . S
H275 C268 0.929 . S
Cu276 N277 1.999 . S
Cu276 O282 1.974 . S
Cu276 N287 1.985 . S
Cu276 O296 1.959 . S
N277 Cu276 1.999 . S
N277 C279 1.263 . S
N277 C281 1.389 . S
N278 C279 1.358 . S
N278 C280 1.400 . S
C279 N277 1.263 . S
C279 N278 1.358 . S
C279 H285 0.930 . S
C280 N278 1.400 . S
C280 C281 1.351 . S
C280 H297 0.930 1_455 S
C281 N277 1.389 . S
C281 C280 1.351 . S
C281 H286 0.930 1_455 S
O282 Cu276 1.974 . S
O282 C292 1.282 . S
C283 O284 1.261 . S
C283 O296 1.251 . S
O284 C283 1.261 . S
H285 C279 0.930 . S
H286 C281 0.930 1_655 S
N287 Cu276 1.985 . S
N287 C289 1.335 . S
N287 C290 1.390 . S
N288 C289 1.345 . S
N288 C291 1.336 . S
C289 N287 1.335 . S
C289 N288 1.345 . S
C289 H294 0.930 . S
C290 N287 1.390 . S
C290 C291 1.346 . S
C290 H295 0.930 . S
C291 N288 1.336 . S
C291 C290 1.346 . S
C291 H298 0.929 . S
C292 O282 1.282 . S
C292 O293 1.216 . S
O293 C292 1.216 . S
H294 C289 0.930 . S
H295 C290 0.930 . S
O296 Cu276 1.959 . S
O296 C283 1.251 . S
H297 C280 0.930 1_655 S
H298 C291 0.929 . S
Cu299 N300 1.999 . S
Cu299 O305 1.974 . S
Cu299 N310 1.985 . S
Cu299 O319 1.959 . S
N300 Cu299 1.999 . S
N300 C302 1.263 . S
N300 C304 1.389 . S
N301 C302 1.358 . S
N301 C303 1.400 . S
C302 N300 1.263 . S
C302 N301 1.358 . S
C302 H308 0.930 . S
C303 N301 1.400 . S
C303 C304 1.351 . S
C303 H320 0.930 . S
C304 N300 1.389 . S
C304 C303 1.351 . S
C304 H309 0.930 . S
O305 Cu299 1.974 . S
O305 C315 1.282 . S
C306 O307 1.261 . S
C306 O319 1.251 . S
O307 C306 1.261 . S
H308 C302 0.930 . S
H309 C304 0.930 . S
N310 Cu299 1.985 . S
N310 C312 1.335 . S
N310 C313 1.390 . S
N311 C312 1.345 . S
N311 C314 1.336 . S
C312 N310 1.335 . S
C312 N311 1.345 . S
C312 H317 0.930 . S
C313 N310 1.390 . S
C313 C314 1.346 . S
C313 H318 0.930 . S
C314 N311 1.336 . S
C314 C313 1.346 . S
C314 H321 0.929 . S
C315 O305 1.282 . S
C315 O316 1.216 . S
O316 C315 1.216 . S
H317 C312 0.930 . S
H318 C313 0.930 . S
O319 Cu299 1.959 . S
O319 C306 1.251 . S
H320 C303 0.930 . S
H321 C314 0.929 . S
Cu322 N323 1.999 . S
Cu322 O328 1.974 . S
Cu322 N333 1.985 . S
Cu322 O342 1.959 . S
N323 Cu322 1.999 . S
N323 C325 1.263 . S
N323 C327 1.389 . S
N324 C325 1.358 . S
N324 C326 1.400 . S
C325 N323 1.263 . S
C325 N324 1.358 . S
C325 H331 0.930 . S
C326 N324 1.400 . S
C326 C327 1.351 . S
C326 H343 0.930 1_565 S
C327 N323 1.389 . S
C327 C326 1.351 . S
C327 H332 0.930 1_565 S
O328 Cu322 1.974 . S
O328 C338 1.282 . S
C329 O330 1.261 . S
C329 O342 1.251 . S
O330 C329 1.261 . S
H331 C325 0.930 . S
H332 C327 0.930 1_545 S
N333 Cu322 1.985 . S
N333 C335 1.335 . S
N333 C336 1.390 . S
N334 C335 1.345 . S
N334 C337 1.336 . S
C335 N333 1.335 . S
C335 N334 1.345 . S
C335 H340 0.930 . S
C336 N333 1.390 . S
C336 C337 1.346 . S
C336 H341 0.930 . S
C337 N334 1.336 . S
C337 C336 1.346 . S
C337 H344 0.929 . S
C338 O328 1.282 . S
C338 O339 1.216 . S
O339 C338 1.216 . S
H340 C335 0.930 . S
H341 C336 0.930 . S
O342 Cu322 1.959 . S
O342 C329 1.251 . S
H343 C326 0.930 1_545 S
H344 C337 0.929 . S
Cu345 N346 1.999 . S
Cu345 O351 1.974 . S
Cu345 N356 1.985 . S
Cu345 O365 1.959 . S
N346 Cu345 1.999 . S
N346 C348 1.263 . S
N346 C350 1.389 . S
N347 C348 1.358 . S
N347 C349 1.400 . S
C348 N346 1.263 . S
C348 N347 1.358 . S
C348 H354 0.930 . S
C349 N347 1.400 . S
C349 C350 1.351 . S
C349 H366 0.930 . S
C350 N346 1.389 . S
C350 C349 1.351 . S
C350 H355 0.930 . S
O351 Cu345 1.974 . S
O351 C361 1.282 . S
C352 O353 1.261 . S
C352 O365 1.251 . S
O353 C352 1.261 . S
H354 C348 0.930 . S
H355 C350 0.930 . S
N356 Cu345 1.985 . S
N356 C358 1.335 . S
N356 C359 1.390 . S
N357 C358 1.345 . S
N357 C360 1.336 . S
C358 N356 1.335 . S
C358 N357 1.345 . S
C358 H363 0.930 . S
C359 N356 1.390 . S
C359 C360 1.346 . S
C359 H364 0.930 . S
C360 N357 1.336 . S
C360 C359 1.346 . S
C360 H367 0.929 . S
C361 O351 1.282 . S
C361 O362 1.216 . S
O362 C361 1.216 . S
H363 C358 0.930 . S
H364 C359 0.930 . S
O365 Cu345 1.959 . S
O365 C352 1.251 . S
H366 C349 0.930 . S
H367 C360 0.929 . S
Cu368 N369 1.999 . S
Cu368 O374 1.974 . S
Cu368 N379 1.985 . S
Cu368 O388 1.959 . S
N369 Cu368 1.999 . S
N369 C371 1.263 . S
N369 C373 1.389 . S
N370 C371 1.358 . S
N370 C372 1.400 . S
C371 N369 1.263 . S
C371 N370 1.358 . S
C371 H377 0.930 . S
C372 N370 1.400 . S
C372 C373 1.351 . S
C372 H389 0.930 . S
C373 N369 1.389 . S
C373 C372 1.351 . S
C373 H378 0.930 . S
O374 Cu368 1.974 . S
O374 C384 1.282 . S
C375 O376 1.261 . S
C375 O388 1.251 . S
O376 C375 1.261 . S
H377 C371 0.930 . S
H378 C373 0.930 . S
N379 Cu368 1.985 . S
N379 C381 1.335 . S
N379 C382 1.390 . S
N380 C381 1.345 . S
N380 C383 1.336 . S
C381 N379 1.335 . S
C381 N380 1.345 . S
C381 H386 0.930 . S
C382 N379 1.390 . S
C382 C383 1.346 . S
C382 H387 0.930 . S
C383 N380 1.336 . S
C383 C382 1.346 . S
C383 H390 0.929 . S
C384 O374 1.282 . S
C384 O385 1.216 . S
O385 C384 1.216 . S
H386 C381 0.930 . S
H387 C382 0.930 . S
O388 Cu368 1.959 . S
O388 C375 1.251 . S
H389 C372 0.930 . S
H390 C383 0.929 . S
Cu391 N392 1.999 . S
Cu391 O397 1.974 . S
Cu391 N402 1.985 . S
Cu391 O411 1.959 . S
N392 Cu391 1.999 . S
N392 C394 1.263 . S
N392 C396 1.389 . S
N393 C394 1.358 . S
N393 C395 1.400 . S
C394 N392 1.263 . S
C394 N393 1.358 . S
C394 H400 0.930 . S
C395 N393 1.400 . S
C395 C396 1.351 . S
C395 H412 0.930 . S
C396 N392 1.389 . S
C396 C395 1.351 . S
C396 H401 0.930 . S
O397 Cu391 1.974 . S
O397 C407 1.282 . S
C398 O399 1.261 . S
C398 O411 1.251 . S
O399 C398 1.261 . S
H400 C394 0.930 . S
H401 C396 0.930 . S
N402 Cu391 1.985 . S
N402 C404 1.335 . S
N402 C405 1.390 . S
N403 C404 1.345 . S
N403 C406 1.336 . S
C404 N402 1.335 . S
C404 N403 1.345 . S
C404 H409 0.930 . S
C405 N402 1.390 . S
C405 C406 1.346 . S
C405 H410 0.930 . S
C406 N403 1.336 . S
C406 C405 1.346 . S
C406 H413 0.929 . S
C407 O397 1.282 . S
C407 O408 1.216 . S
O408 C407 1.216 . S
H409 C404 0.930 . S
H410 C405 0.930 . S
O411 Cu391 1.959 . S
O411 C398 1.251 . S
H412 C395 0.930 . S
H413 C406 0.929 . S
Cu414 N415 1.999 . S
Cu414 O420 1.974 . S
Cu414 N425 1.985 . S
Cu414 O434 1.959 . S
N415 Cu414 1.999 . S
N415 C417 1.263 . S
N415 C419 1.389 . S
N416 C417 1.358 . S
N416 C418 1.400 . S
C417 N415 1.263 . S
C417 N416 1.358 . S
C417 H423 0.930 . S
C418 N416 1.400 . S
C418 C419 1.351 . S
C418 H435 0.930 . S
C419 N415 1.389 . S
C419 C418 1.351 . S
C419 H424 0.930 . S
O420 Cu414 1.974 . S
O420 C430 1.282 . S
C421 O422 1.261 . S
C421 O434 1.251 . S
O422 C421 1.261 . S
H423 C417 0.930 . S
H424 C419 0.930 . S
N425 Cu414 1.985 . S
N425 C427 1.335 . S
N425 C428 1.390 . S
N426 C427 1.345 . S
N426 C429 1.336 . S
C427 N425 1.335 . S
C427 N426 1.345 . S
C427 H432 0.930 . S
C428 N425 1.390 . S
C428 C429 1.346 . S
C428 H433 0.930 . S
C429 N426 1.336 . S
C429 C428 1.346 . S
C429 H436 0.929 . S
C430 O420 1.282 . S
C430 O431 1.216 . S
O431 C430 1.216 . S
H432 C427 0.930 . S
H433 C428 0.930 . S
O434 Cu414 1.959 . S
O434 C421 1.251 . S
H435 C418 0.930 . S
H436 C429 0.929 . S
Cu437 N438 1.999 . S
Cu437 O443 1.974 . S
Cu437 N448 1.985 . S
Cu437 O457 1.959 . S
N438 Cu437 1.999 . S
N438 C440 1.263 . S
N438 C442 1.389 . S
N439 C440 1.358 . S
N439 C441 1.400 . S
C440 N438 1.263 . S
C440 N439 1.358 . S
C440 H446 0.930 . S
C441 N439 1.400 . S
C441 C442 1.351 . S
C441 H458 0.930 . S
C442 N438 1.389 . S
C442 C441 1.351 . S
C442 H447 0.930 . S
O443 Cu437 1.974 . S
O443 C453 1.282 . S
C444 O445 1.261 . S
C444 O457 1.251 . S
O445 C444 1.261 . S
H446 C440 0.930 . S
H447 C442 0.930 . S
N448 Cu437 1.985 . S
N448 C450 1.335 . S
N448 C451 1.390 . S
N449 C450 1.345 . S
N449 C452 1.336 . S
C450 N448 1.335 . S
C450 N449 1.345 . S
C450 H455 0.930 . S
C451 N448 1.390 . S
C451 C452 1.346 . S
C451 H456 0.930 . S
C452 N449 1.336 . S
C452 C451 1.346 . S
C452 H459 0.929 . S
C453 O443 1.282 . S
C453 O454 1.216 . S
O454 C453 1.216 . S
H455 C450 0.930 . S
H456 C451 0.930 . S
O457 Cu437 1.959 . S
O457 C444 1.251 . S
H458 C441 0.930 . S
H459 C452 0.929 . S
Cu460 N461 1.999 . S
Cu460 O466 1.974 . S
Cu460 N471 1.985 . S
Cu460 O480 1.959 . S
N461 Cu460 1.999 . S
N461 C463 1.263 . S
N461 C465 1.389 . S
N462 C463 1.358 . S
N462 C464 1.400 . S
C463 N461 1.263 . S
C463 N462 1.358 . S
C463 H469 0.930 . S
C464 N462 1.400 . S
C464 C465 1.351 . S
C464 H481 0.930 . S
C465 N461 1.389 . S
C465 C464 1.351 . S
C465 H470 0.930 . S
O466 Cu460 1.974 . S
O466 C476 1.282 . S
C467 O468 1.261 . S
C467 O480 1.251 . S
O468 C467 1.261 . S
H469 C463 0.930 . S
H470 C465 0.930 . S
N471 Cu460 1.985 . S
N471 C473 1.335 . S
N471 C474 1.390 . S
N472 C473 1.345 . S
N472 C475 1.336 . S
C473 N471 1.335 . S
C473 N472 1.345 . S
C473 H478 0.930 . S
C474 N471 1.390 . S
C474 C475 1.346 . S
C474 H479 0.930 . S
C475 N472 1.336 . S
C475 C474 1.346 . S
C475 H482 0.929 . S
C476 O466 1.282 . S
C476 O477 1.216 . S
O477 C476 1.216 . S
H478 C473 0.930 . S
H479 C474 0.930 . S
O480 Cu460 1.959 . S
O480 C467 1.251 . S
H481 C464 0.930 . S
H482 C475 0.929 . S
Cu483 N484 1.999 . S
Cu483 O489 1.974 . S
Cu483 N494 1.985 . S
Cu483 O503 1.959 . S
N484 Cu483 1.999 . S
N484 C486 1.263 . S
N484 C488 1.389 . S
N485 C486 1.358 . S
N485 C487 1.400 . S
C486 N484 1.263 . S
C486 N485 1.358 . S
C486 H492 0.930 . S
C487 N485 1.400 . S
C487 C488 1.351 . S
C487 H504 0.930 1_565 S
C488 N484 1.389 . S
C488 C487 1.351 . S
C488 H493 0.930 1_565 S
O489 Cu483 1.974 . S
O489 C499 1.282 . S
C490 O491 1.261 . S
C490 O503 1.251 . S
O491 C490 1.261 . S
H492 C486 0.930 . S
H493 C488 0.930 1_545 S
N494 Cu483 1.985 . S
N494 C496 1.335 . S
N494 C497 1.390 . S
N495 C496 1.345 . S
N495 C498 1.336 . S
C496 N494 1.335 . S
C496 N495 1.345 . S
C496 H501 0.930 . S
C497 N494 1.390 . S
C497 C498 1.346 . S
C497 H502 0.930 1_554 S
C498 N495 1.336 . S
C498 C497 1.346 . S
C498 H505 0.935 . S
C499 O489 1.282 . S
C499 O500 1.216 . S
O500 C499 1.216 . S
H501 C496 0.930 . S
H502 C497 0.930 1_556 S
O503 Cu483 1.959 . S
O503 C490 1.251 . S
H504 C487 0.930 1_545 S
H505 C498 0.935 . S
Cu506 N507 1.999 . S
Cu506 O512 1.974 . S
Cu506 N517 1.985 . S
Cu506 O526 1.959 . S
N507 Cu506 1.999 . S
N507 C509 1.263 . S
N507 C511 1.389 . S
N508 C509 1.358 . S
N508 C510 1.400 . S
C509 N507 1.263 . S
C509 N508 1.358 . S
C509 H515 0.930 . S
C510 N508 1.400 . S
C510 C511 1.351 . S
C510 H527 0.930 1_455 S
C511 N507 1.389 . S
C511 C510 1.351 . S
C511 H516 0.930 1_455 S
O512 Cu506 1.974 . S
O512 C522 1.282 . S
C513 O514 1.261 . S
C513 O526 1.251 . S
O514 C513 1.261 . S
H515 C509 0.930 . S
H516 C511 0.930 1_655 S
N517 Cu506 1.985 . S
N517 C519 1.335 . S
N517 C520 1.390 . S
N518 C519 1.345 . S
N518 C521 1.336 . S
C519 N517 1.335 . S
C519 N518 1.345 . S
C519 H524 0.930 . S
C520 N517 1.390 . S
C520 C521 1.346 . S
C520 H525 0.930 1_554 S
C521 N518 1.336 . S
C521 C520 1.346 . S
C521 H528 0.935 . S
C522 O512 1.282 . S
C522 O523 1.216 . S
O523 C522 1.216 . S
H524 C519 0.930 . S
H525 C520 0.930 1_556 S
O526 Cu506 1.959 . S
O526 C513 1.251 . S
H527 C510 0.930 1_655 S
H528 C521 0.935 . S
Cu529 N530 1.999 . S
Cu529 O535 1.974 . S
Cu529 N540 1.985 . S
Cu529 O549 1.959 . S
N530 Cu529 1.999 . S
N530 C532 1.263 . S
N530 C534 1.389 . S
N531 C532 1.358 . S
N531 C533 1.400 . S
C532 N530 1.263 . S
C532 N531 1.358 . S
C532 H538 0.930 . S
C533 N531 1.400 . S
C533 C534 1.351 . S
C533 H550 0.930 . S
C534 N530 1.389 . S
C534 C533 1.351 . S
C534 H539 0.930 . S
O535 Cu529 1.974 . S
O535 C545 1.282 . S
C536 O537 1.261 . S
C536 O549 1.251 . S
O537 C536 1.261 . S
H538 C532 0.930 . S
H539 C534 0.930 . S
N540 Cu529 1.985 . S
N540 C542 1.335 . S
N540 C543 1.390 . S
N541 C542 1.345 . S
N541 C544 1.336 . S
C542 N540 1.335 . S
C542 N541 1.345 . S
C542 H547 0.930 . S
C543 N540 1.390 . S
C543 C544 1.346 . S
C543 H548 0.930 1_554 S
C544 N541 1.336 . S
C544 C543 1.346 . S
C544 H551 0.936 . S
C545 O535 1.282 . S
C545 O546 1.216 . S
O546 C545 1.216 . S
H547 C542 0.930 . S
H548 C543 0.930 1_556 S
O549 Cu529 1.959 . S
O549 C536 1.251 . S
H550 C533 0.930 . S
H551 C544 0.936 . S
Cu552 N553 1.999 . S
Cu552 O558 1.974 . S
Cu552 N563 1.985 . S
Cu552 O572 1.959 . S
N553 Cu552 1.999 . S
N553 C555 1.263 . S
N553 C557 1.389 . S
N554 C555 1.358 . S
N554 C556 1.400 . S
C555 N553 1.263 . S
C555 N554 1.358 . S
C555 H561 0.930 . S
C556 N554 1.400 . S
C556 C557 1.351 . S
C556 H573 0.930 . S
C557 N553 1.389 . S
C557 C556 1.351 . S
C557 H562 0.930 . S
O558 Cu552 1.974 . S
O558 C568 1.282 . S
C559 O560 1.261 . S
C559 O572 1.251 . S
O560 C559 1.261 . S
H561 C555 0.930 . S
H562 C557 0.930 . S
N563 Cu552 1.985 . S
N563 C565 1.335 . S
N563 C566 1.390 . S
N564 C565 1.345 . S
N564 C567 1.336 . S
C565 N563 1.335 . S
C565 N564 1.345 . S
C565 H570 0.930 . S
C566 N563 1.390 . S
C566 C567 1.346 . S
C566 H571 0.930 . S
C567 N564 1.336 . S
C567 C566 1.346 . S
C567 H574 0.929 . S
C568 O558 1.282 . S
C568 O569 1.216 . S
O569 C568 1.216 . S
H570 C565 0.930 . S
H571 C566 0.930 . S
O572 Cu552 1.959 . S
O572 C559 1.251 . S
H573 C556 0.930 . S
H574 C567 0.929 . S
Cu575 N576 1.999 . S
Cu575 O581 1.974 . S
Cu575 N586 1.985 . S
Cu575 O595 1.959 . S
N576 Cu575 1.999 . S
N576 C578 1.263 . S
N576 C580 1.389 . S
N577 C578 1.358 . S
N577 C579 1.400 . S
C578 N576 1.263 . S
C578 N577 1.358 . S
C578 H584 0.930 . S
C579 N577 1.400 . S
C579 C580 1.351 . S
C579 H596 0.930 . S
C580 N576 1.389 . S
C580 C579 1.351 . S
C580 H585 0.930 . S
O581 Cu575 1.974 . S
O581 C591 1.282 . S
C582 O583 1.261 . S
C582 O595 1.251 . S
O583 C582 1.261 . S
H584 C578 0.930 . S
H585 C580 0.930 . S
N586 Cu575 1.985 . S
N586 C588 1.335 . S
N586 C589 1.390 . S
N587 C588 1.345 . S
N587 C590 1.336 . S
C588 N586 1.335 . S
C588 N587 1.345 . S
C588 H593 0.930 . S
C589 N586 1.390 . S
C589 C590 1.346 . S
C589 H594 0.930 . S
C590 N587 1.336 . S
C590 C589 1.346 . S
C590 H597 0.929 . S
C591 O581 1.282 . S
C591 O592 1.216 . S
O592 C591 1.216 . S
H593 C588 0.930 . S
H594 C589 0.930 . S
O595 Cu575 1.959 . S
O595 C582 1.251 . S
H596 C579 0.930 . S
H597 C590 0.929 . S
Cu598 N599 1.999 . S
Cu598 O604 1.974 . S
Cu598 N609 1.985 . S
Cu598 O618 1.959 . S
N599 Cu598 1.999 . S
N599 C601 1.263 . S
N599 C603 1.389 . S
N600 C601 1.358 . S
N600 C602 1.400 . S
C601 N599 1.263 . S
C601 N600 1.358 . S
C601 H607 0.930 . S
C602 N600 1.400 . S
C602 C603 1.351 . S
C602 H619 0.930 . S
C603 N599 1.389 . S
C603 C602 1.351 . S
C603 H608 0.930 . S
O604 Cu598 1.974 . S
O604 C614 1.282 . S
C605 O606 1.261 . S
C605 O618 1.251 . S
O606 C605 1.261 . S
H607 C601 0.930 . S
H608 C603 0.930 . S
N609 Cu598 1.985 . S
N609 C611 1.335 . S
N609 C612 1.390 . S
N610 C611 1.345 . S
N610 C613 1.336 . S
C611 N609 1.335 . S
C611 N610 1.345 . S
C611 H616 0.930 . S
C612 N609 1.390 . S
C612 C613 1.346 . S
C612 H617 0.930 . S
C613 N610 1.336 . S
C613 C612 1.346 . S
C613 H620 0.929 . S
C614 O604 1.282 . S
C614 O615 1.216 . S
O615 C614 1.216 . S
H616 C611 0.930 . S
H617 C612 0.930 . S
O618 Cu598 1.959 . S
O618 C605 1.251 . S
H619 C602 0.930 . S
H620 C613 0.929 . S
Cu621 N622 1.999 . S
Cu621 O627 1.974 . S
Cu621 N632 1.985 . S
Cu621 O641 1.959 . S
N622 Cu621 1.999 . S
N622 C624 1.263 . S
N622 C626 1.389 . S
N623 C624 1.358 . S
N623 C625 1.400 . S
C624 N622 1.263 . S
C624 N623 1.358 . S
C624 H630 0.930 . S
C625 N623 1.400 . S
C625 C626 1.351 . S
C625 H642 0.930 1_545 S
C626 N622 1.389 . S
C626 C625 1.351 . S
C626 H631 0.930 1_545 S
O627 Cu621 1.974 . S
O627 C637 1.282 . S
C628 O629 1.261 . S
C628 O641 1.251 . S
O629 C628 1.261 . S
H630 C624 0.930 . S
H631 C626 0.930 1_565 S
N632 Cu621 1.985 . S
N632 C634 1.335 . S
N632 C635 1.390 . S
N633 C634 1.345 . S
N633 C636 1.336 . S
C634 N632 1.335 . S
C634 N633 1.345 . S
C634 H639 0.930 . S
C635 N632 1.390 . S
C635 C636 1.346 . S
C635 H640 0.930 1_556 S
C636 N633 1.336 . S
C636 C635 1.346 . S
C636 H643 0.935 . S
C637 O627 1.282 . S
C637 O638 1.216 . S
O638 C637 1.216 . S
H639 C634 0.930 . S
H640 C635 0.930 1_554 S
O641 Cu621 1.959 . S
O641 C628 1.251 . S
H642 C625 0.930 1_565 S
H643 C636 0.935 . S
Cu644 N645 1.999 . S
Cu644 O650 1.974 . S
Cu644 N655 1.985 . S
Cu644 O664 1.959 . S
N645 Cu644 1.999 . S
N645 C647 1.263 . S
N645 C649 1.389 . S
N646 C647 1.358 . S
N646 C648 1.400 . S
C647 N645 1.263 . S
C647 N646 1.358 . S
C647 H653 0.930 . S
C648 N646 1.400 . S
C648 C649 1.351 . S
C648 H665 0.930 1_655 S
C649 N645 1.389 . S
C649 C648 1.351 . S
C649 H654 0.930 1_655 S
O650 Cu644 1.974 . S
O650 C660 1.282 . S
C651 O652 1.261 . S
C651 O664 1.251 . S
O652 C651 1.261 . S
H653 C647 0.930 . S
H654 C649 0.930 1_455 S
N655 Cu644 1.985 . S
N655 C657 1.335 . S
N655 C658 1.390 . S
N656 C657 1.345 . S
N656 C659 1.336 . S
C657 N655 1.335 . S
C657 N656 1.345 . S
C657 H662 0.930 . S
C658 N655 1.390 . S
C658 C659 1.346 . S
C658 H663 0.930 1_556 S
C659 N656 1.336 . S
C659 C658 1.346 . S
C659 H666 0.935 . S
C660 O650 1.282 . S
C660 O661 1.216 . S
O661 C660 1.216 . S
H662 C657 0.930 . S
H663 C658 0.930 1_554 S
O664 Cu644 1.959 . S
O664 C651 1.251 . S
H665 C648 0.930 1_455 S
H666 C659 0.935 . S
Cu667 N668 1.999 . S
Cu667 O673 1.974 . S
Cu667 N678 1.985 . S
Cu667 O687 1.959 . S
N668 Cu667 1.999 . S
N668 C670 1.263 . S
N668 C672 1.389 . S
N669 C670 1.358 . S
N669 C671 1.400 . S
C670 N668 1.263 . S
C670 N669 1.358 . S
C670 H676 0.930 . S
C671 N669 1.400 . S
C671 C672 1.351 . S
C671 H688 0.930 . S
C672 N668 1.389 . S
C672 C671 1.351 . S
C672 H677 0.930 . S
O673 Cu667 1.974 . S
O673 C683 1.282 . S
C674 O675 1.261 . S
C674 O687 1.251 . S
O675 C674 1.261 . S
H676 C670 0.930 . S
H677 C672 0.930 . S
N678 Cu667 1.985 . S
N678 C680 1.335 . S
N678 C681 1.390 . S
N679 C680 1.345 . S
N679 C682 1.336 . S
C680 N678 1.335 . S
C680 N679 1.345 . S
C680 H685 0.930 . S
C681 N678 1.390 . S
C681 C682 1.346 . S
C681 H686 0.930 1_556 S
C682 N679 1.336 . S
C682 C681 1.346 . S
C682 H689 0.936 . S
C683 O673 1.282 . S
C683 O684 1.216 . S
O684 C683 1.216 . S
H685 C680 0.930 . S
H686 C681 0.930 1_554 S
O687 Cu667 1.959 . S
O687 C674 1.251 . S
H688 C671 0.930 . S
H689 C682 0.936 . S
Cu690 N691 1.999 . S
Cu690 O696 1.974 . S
Cu690 N701 1.985 . S
Cu690 O710 1.959 . S
N691 Cu690 1.999 . S
N691 C693 1.263 . S
N691 C695 1.389 . S
N692 C693 1.358 . S
N692 C694 1.400 . S
C693 N691 1.263 . S
C693 N692 1.358 . S
C693 H699 0.930 . S
C694 N692 1.400 . S
C694 C695 1.351 . S
C694 H711 0.930 1_655 S
C695 N691 1.389 . S
C695 C694 1.351 . S
C695 H700 0.930 1_655 S
O696 Cu690 1.974 . S
O696 C706 1.282 . S
C697 O698 1.261 . S
C697 O710 1.251 . S
O698 C697 1.261 . S
H699 C693 0.930 . S
H700 C695 0.930 1_455 S
N701 Cu690 1.985 . S
N701 C703 1.335 . S
N701 C704 1.390 . S
N702 C703 1.345 . S
N702 C705 1.336 . S
C703 N701 1.335 . S
C703 N702 1.345 . S
C703 H708 0.930 . S
C704 N701 1.390 . S
C704 C705 1.346 . S
C704 H709 0.930 . S
C705 N702 1.336 . S
C705 C704 1.346 . S
C705 H712 0.929 . S
C706 O696 1.282 . S
C706 O707 1.216 . S
O707 C706 1.216 . S
H708 C703 0.930 . S
H709 C704 0.930 . S
O710 Cu690 1.959 . S
O710 C697 1.251 . S
H711 C694 0.930 1_455 S
H712 C705 0.929 . S
Cu713 N714 1.999 . S
Cu713 O719 1.974 . S
Cu713 N724 1.985 . S
Cu713 O733 1.959 . S
N714 Cu713 1.999 . S
N714 C716 1.263 . S
N714 C718 1.389 . S
N715 C716 1.358 . S
N715 C717 1.400 . S
C716 N714 1.263 . S
C716 N715 1.358 . S
C716 H722 0.930 . S
C717 N715 1.400 . S
C717 C718 1.351 . S
C717 H734 0.930 . S
C718 N714 1.389 . S
C718 C717 1.351 . S
C718 H723 0.930 . S
O719 Cu713 1.974 . S
O719 C729 1.282 . S
C720 O721 1.261 . S
C720 O733 1.251 . S
O721 C720 1.261 . S
H722 C716 0.930 . S
H723 C718 0.930 . S
N724 Cu713 1.985 . S
N724 C726 1.335 . S
N724 C727 1.390 . S
N725 C726 1.345 . S
N725 C728 1.336 . S
C726 N724 1.335 . S
C726 N725 1.345 . S
C726 H731 0.930 . S
C727 N724 1.390 . S
C727 C728 1.346 . S
C727 H732 0.930 . S
C728 N725 1.336 . S
C728 C727 1.346 . S
C728 H735 0.929 . S
C729 O719 1.282 . S
C729 O730 1.216 . S
O730 C729 1.216 . S
H731 C726 0.930 . S
H732 C727 0.930 . S
O733 Cu713 1.959 . S
O733 C720 1.251 . S
H734 C717 0.930 . S
H735 C728 0.929 . S
Cu736 N737 1.999 . S
Cu736 O742 1.974 . S
Cu736 N747 1.985 . S
Cu736 O756 1.959 . S
N737 Cu736 1.999 . S
N737 C739 1.263 . S
N737 C741 1.389 . S
N738 C739 1.358 . S
N738 C740 1.400 . S
C739 N737 1.263 . S
C739 N738 1.358 . S
C739 H745 0.930 . S
C740 N738 1.400 . S
C740 C741 1.351 . S
C740 H757 0.930 1_545 S
C741 N737 1.389 . S
C741 C740 1.351 . S
C741 H746 0.930 1_545 S
O742 Cu736 1.974 . S
O742 C752 1.282 . S
C743 O744 1.261 . S
C743 O756 1.251 . S
O744 C743 1.261 . S
H745 C739 0.930 . S
H746 C741 0.930 1_565 S
N747 Cu736 1.985 . S
N747 C749 1.335 . S
N747 C750 1.390 . S
N748 C749 1.345 . S
N748 C751 1.336 . S
C749 N747 1.335 . S
C749 N748 1.345 . S
C749 H754 0.930 . S
C750 N747 1.390 . S
C750 C751 1.346 . S
C750 H755 0.930 . S
C751 N748 1.336 . S
C751 C750 1.346 . S
C751 H758 0.929 . S
C752 O742 1.282 . S
C752 O753 1.216 . S
O753 C752 1.216 . S
H754 C749 0.930 . S
H755 C750 0.930 . S
O756 Cu736 1.959 . S
O756 C743 1.251 . S
H757 C740 0.930 1_565 S
H758 C751 0.929 . S
Cu759 N760 1.999 . S
Cu759 O765 1.974 . S
Cu759 N770 1.985 . S
Cu759 O779 1.959 . S
N760 Cu759 1.999 . S
N760 C762 1.263 . S
N760 C764 1.389 . S
N761 C762 1.358 . S
N761 C763 1.400 . S
C762 N760 1.263 . S
C762 N761 1.358 . S
C762 H768 0.930 . S
C763 N761 1.400 . S
C763 C764 1.351 . S
C763 H780 0.930 . S
C764 N760 1.389 . S
C764 C763 1.351 . S
C764 H769 0.930 . S
O765 Cu759 1.974 . S
O765 C775 1.282 . S
C766 O767 1.261 . S
C766 O779 1.251 . S
O767 C766 1.261 . S
H768 C762 0.930 . S
H769 C764 0.930 . S
N770 Cu759 1.985 . S
N770 C772 1.335 . S
N770 C773 1.390 . S
N771 C772 1.345 . S
N771 C774 1.336 . S
C772 N770 1.335 . S
C772 N771 1.345 . S
C772 H777 0.930 . S
C773 N770 1.390 . S
C773 C774 1.346 . S
C773 H778 0.930 . S
C774 N771 1.336 . S
C774 C773 1.346 . S
C774 H781 0.929 . S
C775 O765 1.282 . S
C775 O776 1.216 . S
O776 C775 1.216 . S
H777 C772 0.930 . S
H778 C773 0.930 . S
O779 Cu759 1.959 . S
O779 C766 1.251 . S
H780 C763 0.930 . S
H781 C774 0.929 . S
Cu782 N783 1.999 . S
Cu782 O788 1.974 . S
Cu782 N793 1.985 . S
Cu782 O802 1.959 . S
N783 Cu782 1.999 . S
N783 C785 1.263 . S
N783 C787 1.389 . S
N784 C785 1.358 . S
N784 C786 1.400 . S
C785 N783 1.263 . S
C785 N784 1.358 . S
C785 H791 0.930 . S
C786 N784 1.400 . S
C786 C787 1.351 . S
C786 H803 0.930 . S
C787 N783 1.389 . S
C787 C786 1.351 . S
C787 H792 0.930 . S
O788 Cu782 1.974 . S
O788 C798 1.282 . S
C789 O790 1.261 . S
C789 O802 1.251 . S
O790 C789 1.261 . S
H791 C785 0.930 . S
H792 C787 0.930 . S
N793 Cu782 1.985 . S
N793 C795 1.335 . S
N793 C796 1.390 . S
N794 C795 1.345 . S
N794 C797 1.336 . S
C795 N793 1.335 . S
C795 N794 1.345 . S
C795 H800 0.930 . S
C796 N793 1.390 . S
C796 C797 1.346 . S
C796 H801 0.930 . S
C797 N794 1.336 . S
C797 C796 1.346 . S
C797 H804 0.929 . S
C798 O788 1.282 . S
C798 O799 1.216 . S
O799 C798 1.216 . S
H800 C795 0.930 . S
H801 C796 0.930 . S
O802 Cu782 1.959 . S
O802 C789 1.251 . S
H803 C786 0.930 . S
H804 C797 0.929 . S
Cu805 N806 1.999 . S
Cu805 O811 1.974 . S
Cu805 N816 1.985 . S
Cu805 O825 1.959 . S
N806 Cu805 1.999 . S
N806 C808 1.263 . S
N806 C810 1.389 . S
N807 C808 1.358 . S
N807 C809 1.400 . S
C808 N806 1.263 . S
C808 N807 1.358 . S
C808 H814 0.930 . S
C809 N807 1.400 . S
C809 C810 1.351 . S
C809 H826 0.930 . S
C810 N806 1.389 . S
C810 C809 1.351 . S
C810 H815 0.930 . S
O811 Cu805 1.974 . S
O811 C821 1.282 . S
C812 O813 1.261 . S
C812 O825 1.251 . S
O813 C812 1.261 . S
H814 C808 0.930 . S
H815 C810 0.930 . S
N816 Cu805 1.985 . S
N816 C818 1.335 . S
N816 C819 1.390 . S
N817 C818 1.345 . S
N817 C820 1.336 . S
C818 N816 1.335 . S
C818 N817 1.345 . S
C818 H823 0.930 . S
C819 N816 1.390 . S
C819 C820 1.346 . S
C819 H824 0.930 . S
C820 N817 1.336 . S
C820 C819 1.346 . S
C820 H827 0.929 . S
C821 O811 1.282 . S
C821 O822 1.216 . S
O822 C821 1.216 . S
H823 C818 0.930 . S
H824 C819 0.930 . S
O825 Cu805 1.959 . S
O825 C812 1.251 . S
H826 C809 0.930 . S
H827 C820 0.929 . S
C828 C829 1.363 . S
C828 C834 1.379 1_565 S
C828 N836 1.356 . S
C829 C828 1.363 . S
C829 C835 1.363 . S
C830 C831 1.363 . S
C830 C835 1.379 1_545 S
C830 N837 1.356 . S
C831 C830 1.363 . S
C831 C834 1.363 . S
N832 C834 1.356 . S
N832 H844 0.984 . S
N832 H845 0.985 . S
N833 C835 1.356 . S
N833 H838 0.984 . S
N833 H839 0.985 . S
C834 C828 1.379 1_545 S
C834 C831 1.363 . S
C834 N832 1.356 . S
C835 C829 1.363 . S
C835 C830 1.379 1_565 S
C835 N833 1.356 . S
N836 C828 1.356 . S
N836 H842 0.984 . S
N836 H843 0.984 . S
N837 C830 1.356 . S
N837 H840 0.984 . S
N837 H841 0.985 . S
H838 N833 0.984 . S
H839 N833 0.985 . S
H840 N837 0.984 . S
H841 N837 0.985 . S
H842 N836 0.984 . S
H843 N836 0.984 . S
H844 N832 0.984 . S
H845 N832 0.985 . S
C846 C847 1.363 . S
C846 C852 1.379 1_455 S
C846 N854 1.356 . S
C847 C846 1.363 . S
C847 C853 1.363 . S
C848 C849 1.363 . S
C848 C853 1.379 1_655 S
C848 N855 1.356 . S
C849 C848 1.363 . S
C849 C852 1.363 . S
N850 C852 1.356 . S
N850 H862 0.984 . S
N850 H863 0.985 . S
N851 C853 1.356 . S
N851 H856 0.984 . S
N851 H857 0.985 . S
C852 C846 1.379 1_655 S
C852 C849 1.363 . S
C852 N850 1.356 . S
C853 C847 1.363 . S
C853 C848 1.379 1_455 S
C853 N851 1.356 . S
N854 C846 1.356 . S
N854 H860 0.984 . S
N854 H861 0.984 . S
N855 C848 1.356 . S
N855 H858 0.984 . S
N855 H859 0.985 . S
H856 N851 0.984 . S
H857 N851 0.985 . S
H858 N855 0.984 . S
H859 N855 0.985 . S
H860 N854 0.984 . S
H861 N854 0.984 . S
H862 N850 0.984 . S
H863 N850 0.985 . S
C864 C865 1.363 . S
C864 C870 1.379 . S
C864 N872 1.356 . S
C865 C864 1.363 . S
C865 C871 1.363 . S
C866 C867 1.363 . S
C866 C871 1.379 . S
C866 N873 1.356 . S
C867 C866 1.363 . S
C867 C870 1.363 . S
N868 C870 1.356 . S
N868 H880 0.984 . S
N868 H881 0.985 . S
N869 C871 1.356 . S
N869 H874 0.984 . S
N869 H875 0.985 . S
C870 C864 1.379 . S
C870 C867 1.363 . S
C870 N868 1.356 . S
C871 C865 1.363 . S
C871 C866 1.379 . S
C871 N869 1.356 . S
N872 C864 1.356 . S
N872 H878 0.984 . S
N872 H879 0.984 . S
N873 C866 1.356 . S
N873 H876 0.984 . S
N873 H877 0.985 . S
H874 N869 0.984 . S
H875 N869 0.985 . S
H876 N873 0.984 . S
H877 N873 0.985 . S
H878 N872 0.984 . S
H879 N872 0.984 . S
H880 N868 0.984 . S
H881 N868 0.985 . S
C882 C883 1.363 . S
C882 C888 1.379 1_565 S
C882 N890 1.356 . S
C883 C882 1.363 . S
C883 C889 1.363 . S
C884 C885 1.363 . S
C884 C889 1.379 1_545 S
C884 N891 1.356 . S
C885 C884 1.363 . S
C885 C888 1.363 . S
N886 C888 1.356 . S
N886 H898 0.984 . S
N886 H899 0.985 . S
N887 C889 1.356 . S
N887 H892 0.984 . S
N887 H893 0.985 . S
C888 C882 1.379 1_545 S
C888 C885 1.363 . S
C888 N886 1.356 . S
C889 C883 1.363 . S
C889 C884 1.379 1_565 S
C889 N887 1.356 . S
N890 C882 1.356 . S
N890 H896 0.984 . S
N890 H897 0.984 . S
N891 C884 1.356 . S
N891 H894 0.984 . S
N891 H895 0.985 . S
H892 N887 0.984 . S
H893 N887 0.985 . S
H894 N891 0.984 . S
H895 N891 0.985 . S
H896 N890 0.984 . S
H897 N890 0.984 . S
H898 N886 0.984 . S
H899 N886 0.985 . S
C900 C901 1.363 . S
C900 C906 1.379 1_455 S
C900 N908 1.356 . S
C901 C900 1.363 . S
C901 C907 1.363 . S
C902 C903 1.363 . S
C902 C907 1.379 1_655 S
C902 N909 1.356 . S
C903 C902 1.363 . S
C903 C906 1.363 . S
N904 C906 1.356 . S
N904 H916 0.984 . S
N904 H917 0.985 . S
N905 C907 1.356 . S
N905 H910 0.984 . S
N905 H911 0.985 . S
C906 C900 1.379 1_655 S
C906 C903 1.363 . S
C906 N904 1.356 . S
C907 C901 1.363 . S
C907 C902 1.379 1_455 S
C907 N905 1.356 . S
N908 C900 1.356 . S
N908 H914 0.984 . S
N908 H915 0.984 . S
N909 C902 1.356 . S
N909 H912 0.984 . S
N909 H913 0.985 . S
H910 N905 0.984 . S
H911 N905 0.985 . S
H912 N909 0.984 . S
H913 N909 0.985 . S
H914 N908 0.984 . S
H915 N908 0.984 . S
H916 N904 0.984 . S
H917 N904 0.985 . S
C918 C919 1.363 . S
C918 C924 1.379 . S
C918 N926 1.356 . S
C919 C918 1.363 . S
C919 C925 1.363 . S
C920 C921 1.363 . S
C920 C925 1.379 . S
C920 N927 1.356 . S
C921 C920 1.363 . S
C921 C924 1.363 . S
N922 C924 1.356 . S
N922 H934 0.984 . S
N922 H935 0.985 . S
N923 C925 1.356 . S
N923 H928 0.984 . S
N923 H929 0.985 . S
C924 C918 1.379 . S
C924 C921 1.363 . S
C924 N922 1.356 . S
C925 C919 1.363 . S
C925 C920 1.379 . S
C925 N923 1.356 . S
N926 C918 1.356 . S
N926 H932 0.984 . S
N926 H933 0.984 . S
N927 C920 1.356 . S
N927 H930 0.984 . S
N927 H931 0.985 . S
H928 N923 0.984 . S
H929 N923 0.985 . S
H930 N927 0.984 . S
H931 N927 0.985 . S
H932 N926 0.984 . S
H933 N926 0.984 . S
H934 N922 0.984 . S
H935 N922 0.985 . S
C936 C937 1.363 . S
C936 C942 1.379 . S
C936 N944 1.356 . S
C937 C936 1.363 . S
C937 C943 1.363 . S
C938 C939 1.340 1_655 S
C938 C943 1.380 1_655 S
C938 N945 1.375 . S
C939 C938 1.340 1_455 S
C939 C942 1.363 . S
N940 C942 1.356 . S
N940 H952 0.984 . S
N940 H953 0.985 . S
N941 C943 1.356 . S
N941 H946 0.984 . S
N941 H947 0.985 . S
C942 C936 1.379 . S
C942 C939 1.363 . S
C942 N940 1.356 . S
C943 C937 1.363 . S
C943 C938 1.380 1_455 S
C943 N941 1.356 . S
N944 C936 1.356 . S
N944 H950 0.984 . S
N944 H951 0.984 . S
N945 C938 1.375 . S
N945 H948 0.984 . S
N945 H949 0.985 . S
H946 N941 0.984 . S
H947 N941 0.985 . S
H948 N945 0.984 . S
H949 N945 0.985 . S
H950 N944 0.984 . S
H951 N944 0.984 . S
H952 N940 0.984 . S
H953 N940 0.985 . S
C954 C955 1.363 . S
C954 C960 1.379 . S
C954 N962 1.356 . S
C955 C954 1.363 . S
C955 C961 1.363 . S
C956 C957 1.363 . S
C956 C961 1.379 . S
C956 N963 1.356 . S
C957 C956 1.363 . S
C957 C960 1.363 . S
N958 C960 1.356 . S
N958 H970 0.984 . S
N958 H971 0.985 . S
N959 C961 1.356 . S
N959 H964 0.984 . S
N959 H965 0.985 . S
C960 C954 1.379 . S
C960 C957 1.363 . S
C960 N958 1.356 . S
C961 C955 1.363 . S
C961 C956 1.379 . S
C961 N959 1.356 . S
N962 C954 1.356 . S
N962 H968 0.984 . S
N962 H969 0.984 . S
N963 C956 1.356 . S
N963 H966 0.984 . S
N963 H967 0.985 . S
H964 N959 0.984 . S
H965 N959 0.985 . S
H966 N963 0.984 . S
H967 N963 0.985 . S
H968 N962 0.984 . S
H969 N962 0.984 . S
H970 N958 0.984 . S
H971 N958 0.985 . S
C972 C973 1.363 1_545 S
C972 C978 1.379 1_545 S
C972 N980 1.356 . S
C973 C972 1.363 1_565 S
C973 C979 1.363 . S
C974 C975 1.363 . S
C974 C979 1.379 . S
C974 N981 1.356 . S
C975 C974 1.363 . S
C975 C978 1.363 . S
N976 C978 1.356 . S
N976 H988 0.984 1_565 S
N976 H989 0.985 . S
N977 C979 1.356 . S
N977 H982 0.984 . S
N977 H983 0.985 . S
C978 C972 1.379 1_565 S
C978 C975 1.363 . S
C978 N976 1.356 . S
C979 C973 1.363 . S
C979 C974 1.379 . S
C979 N977 1.356 . S
N980 C972 1.356 . S
N980 H986 0.984 . S
N980 H987 0.984 . S
N981 C974 1.356 . S
N981 H984 0.984 . S
N981 H985 0.985 . S
H982 N977 0.984 . S
H983 N977 0.985 . S
H984 N981 0.984 . S
H985 N981 0.985 . S
H986 N980 0.984 . S
H987 N980 0.984 . S
H988 N976 0.984 1_545 S
H989 N976 0.985 . S
C990 C991 1.363 . S
C990 C996 1.379 . S
C990 N998 1.356 . S
C991 C990 1.363 . S
C991 C997 1.363 . S
C992 C993 1.363 . S
C992 C997 1.379 . S
C992 N999 1.356 . S
C993 C992 1.363 . S
C993 C996 1.363 . S
N994 C996 1.356 . S
N994 H1006 0.984 1_554 S
N994 H1007 0.985 . S
N995 C997 1.356 . S
N995 H1000 0.984 . S
N995 H1001 0.985 . S
C996 C990 1.379 . S
C996 C993 1.363 . S
C996 N994 1.356 . S
C997 C991 1.363 . S
C997 C992 1.379 . S
C997 N995 1.356 . S
N998 C990 1.356 . S
N998 H1004 0.984 1_554 S
N998 H1005 0.984 . S
N999 C992 1.356 . S
N999 H1002 0.984 . S
N999 H1003 0.985 . S
H1000 N995 0.984 . S
H1001 N995 0.985 . S
H1002 N999 0.984 . S
H1003 N999 0.985 . S
H1004 N998 0.984 1_556 S
H1005 N998 0.984 . S
H1006 N994 0.984 1_556 S
H1007 N994 0.985 . S
C1008 C1009 1.363 . S
C1008 C1014 1.379 . S
C1008 N1016 1.356 . S
C1009 C1008 1.363 . S
C1009 C1015 1.363 . S
C1010 C1011 1.363 1_545 S
C1010 C1015 1.379 1_545 S
C1010 N1017 1.356 . S
C1011 C1010 1.363 1_565 S
C1011 C1014 1.363 . S
N1012 C1014 1.356 . S
N1012 H1024 0.984 1_554 S
N1012 H1025 0.985 . S
N1013 C1015 1.356 . S
N1013 H1018 0.984 . S
N1013 H1019 0.949 1_565 S
C1014 C1008 1.379 . S
C1014 C1011 1.363 . S
C1014 N1012 1.356 . S
C1015 C1009 1.363 . S
C1015 C1010 1.379 1_565 S
C1015 N1013 1.356 . S
N1016 C1008 1.356 . S
N1016 H1022 0.984 1_554 S
N1016 H1023 0.984 . S
N1017 C1010 1.356 . S
N1017 H1020 0.984 . S
N1017 H1021 0.985 . S
H1018 N1013 0.984 . S
H1019 N1013 0.949 1_545 S
H1020 N1017 0.984 . S
H1021 N1017 0.985 . S
H1022 N1016 0.984 1_556 S
H1023 N1016 0.984 . S
H1024 N1012 0.984 1_556 S
H1025 N1012 0.985 . S
C1026 C1027 1.363 . S
C1026 C1032 1.379 . S
C1026 N1034 1.356 . S
C1027 C1026 1.363 . S
C1027 C1033 1.363 1_455 S
C1028 C1029 1.363 . S
C1028 C1033 1.379 1_455 S
C1028 N1035 1.356 . S
C1029 C1028 1.363 . S
C1029 C1032 1.363 . S
N1030 C1032 1.356 . S
N1030 H1042 0.984 . S
N1030 H1043 0.985 . S
N1031 C1033 1.356 . S
N1031 H1036 0.984 . S
N1031 H1037 0.985 1_554 S
C1032 C1026 1.379 . S
C1032 C1029 1.363 . S
C1032 N1030 1.356 . S
C1033 C1027 1.363 1_655 S
C1033 C1028 1.379 1_655 S
C1033 N1031 1.356 . S
N1034 C1026 1.356 . S
N1034 H1040 0.984 . S
N1034 H1041 0.984 . S
N1035 C1028 1.356 . S
N1035 H1038 0.984 . S
N1035 H1039 0.985 1_455 S
H1036 N1031 0.984 . S
H1037 N1031 0.985 1_556 S
H1038 N1035 0.984 . S
H1039 N1035 0.985 1_655 S
H1040 N1034 0.984 . S
H1041 N1034 0.984 . S
H1042 N1030 0.984 . S
H1043 N1030 0.985 . S
C1044 C1045 1.363 . S
C1044 C1050 1.379 . S
C1044 N1052 1.356 . S
C1045 C1044 1.363 . S
C1045 C1051 1.363 . S
C1046 C1047 1.363 . S
C1046 C1051 1.379 . S
C1046 N1053 1.356 . S
C1047 C1046 1.363 . S
C1047 C1050 1.363 . S
N1048 C1050 1.356 . S
N1048 H1060 0.984 . S
N1048 H1061 0.985 . S
N1049 C1051 1.356 . S
N1049 H1054 0.984 . S
N1049 H1055 0.985 . S
C1050 C1044 1.379 . S
C1050 C1047 1.363 . S
C1050 N1048 1.356 . S
C1051 C1045 1.363 . S
C1051 C1046 1.379 . S
C1051 N1049 1.356 . S
N1052 C1044 1.356 . S
N1052 H1058 0.984 . S
N1052 H1059 0.984 . S
N1053 C1046 1.356 . S
N1053 H1056 0.984 . S
N1053 H1057 0.985 . S
H1054 N1049 0.984 . S
H1055 N1049 0.985 . S
H1056 N1053 0.984 . S
H1057 N1053 0.985 . S
H1058 N1052 0.984 . S
H1059 N1052 0.984 . S
H1060 N1048 0.984 . S
H1061 N1048 0.985 . S
C1062 C1063 1.363 . S
C1062 C1068 1.379 . S
C1062 N1070 1.356 . S
C1063 C1062 1.363 . S
C1063 C1069 1.363 . S
C1064 C1065 1.363 . S
C1064 C1069 1.379 . S
C1064 N1071 1.356 . S
C1065 C1064 1.363 . S
C1065 C1068 1.363 . S
N1066 C1068 1.356 1_565 S
N1066 H1078 0.984 1_556 S
N1066 H1079 0.985 . S
N1067 C1069 1.356 . S
N1067 H1072 0.984 . S
N1067 H1073 0.985 . S
C1068 C1062 1.379 . S
C1068 C1065 1.363 . S
C1068 N1066 1.356 1_545 S
C1069 C1063 1.363 . S
C1069 C1064 1.379 . S
C1069 N1067 1.356 . S
N1070 C1062 1.356 . S
N1070 H1076 0.984 1_556 S
N1070 H1077 0.984 . S
N1071 C1064 1.356 . S
N1071 H1074 0.987 . S
N1071 H1075 0.985 . S
H1072 N1067 0.984 . S
H1073 N1067 0.985 . S
H1074 N1071 0.987 . S
H1075 N1071 0.985 . S
H1076 N1070 0.984 1_554 S
H1077 N1070 0.984 . S
H1078 N1066 0.984 1_554 S
H1079 N1066 0.985 . S
C1080 C1081 1.360 . S
C1080 C1086 1.390 . S
C1080 N1088 1.345 1_655 S
C1081 C1080 1.360 . S
C1081 C1087 1.363 . S
C1082 C1083 1.363 . S
C1082 C1087 1.379 . S
C1082 N1089 1.356 . S
C1083 C1082 1.363 . S
C1083 C1086 1.363 . S
N1084 C1086 1.356 . S
N1084 H1096 0.984 . S
N1084 H1097 0.985 . S
N1085 C1087 1.356 . S
N1085 H1090 0.984 . S
N1085 H1091 0.985 1_556 S
C1086 C1080 1.390 . S
C1086 C1083 1.363 . S
C1086 N1084 1.356 . S
C1087 C1081 1.363 . S
C1087 C1082 1.379 . S
C1087 N1085 1.356 . S
N1088 C1080 1.345 1_455 S
N1088 H1094 0.984 . S
N1088 H1095 0.984 . S
N1089 C1082 1.356 . S
N1089 H1092 0.984 . S
N1089 H1093 0.985 1_556 S
H1090 N1085 0.984 . S
H1091 N1085 0.985 1_554 S
H1092 N1089 0.984 . S
H1093 N1089 0.985 1_554 S
H1094 N1088 0.984 . S
H1095 N1088 0.984 . S
H1096 N1084 0.984 . S
H1097 N1084 0.985 . S
C1098 C1099 1.363 1_455 S
C1098 C1104 1.379 1_455 S
C1098 N1106 1.356 . S
C1099 C1098 1.363 1_655 S
C1099 C1105 1.363 . S
C1100 C1101 1.363 . S
C1100 C1105 1.379 . S
C1100 N1107 1.356 . S
C1101 C1100 1.363 . S
C1101 C1104 1.363 . S
N1102 C1104 1.356 . S
N1102 H1114 1.012 . S
N1102 H1115 0.985 . S
N1103 C1105 1.356 . S
N1103 H1108 0.984 . S
N1103 H1109 0.985 . S
C1104 C1098 1.379 1_655 S
C1104 C1101 1.363 . S
C1104 N1102 1.356 . S
C1105 C1099 1.363 . S
C1105 C1100 1.379 . S
C1105 N1103 1.356 . S
N1106 C1098 1.356 . S
N1106 H1112 0.984 . S
N1106 H1113 0.984 . S
N1107 C1100 1.356 . S
N1107 H1110 0.984 . S
N1107 H1111 0.985 . S
H1108 N1103 0.984 . S
H1109 N1103 0.985 . S
H1110 N1107 0.984 . S
H1111 N1107 0.985 . S
H1112 N1106 0.984 . S
H1113 N1106 0.984 . S
H1114 N1102 1.012 . S
H1115 N1102 0.985 . S
C1116 C1117 1.363 . S
C1116 C1122 1.379 . S
C1116 N1124 1.356 . S
C1117 C1116 1.363 . S
C1117 C1123 1.363 . S
C1118 C1119 1.363 . S
C1118 C1123 1.379 . S
C1118 N1125 1.356 . S
C1119 C1118 1.363 . S
C1119 C1122 1.363 . S
N1120 C1122 1.356 . S
N1120 H1132 0.984 . S
N1120 H1133 0.985 . S
N1121 C1123 1.356 . S
N1121 H1126 0.984 . S
N1121 H1127 0.985 . S
C1122 C1116 1.379 . S
C1122 C1119 1.363 . S
C1122 N1120 1.356 . S
C1123 C1117 1.363 . S
C1123 C1118 1.379 . S
C1123 N1121 1.356 . S
N1124 C1116 1.356 . S
N1124 H1130 0.984 . S
N1124 H1131 0.984 . S
N1125 C1118 1.356 . S
N1125 H1128 0.984 . S
N1125 H1129 0.985 . S
H1126 N1121 0.984 . S
H1127 N1121 0.985 . S
H1128 N1125 0.984 . S
H1129 N1125 0.985 . S
H1130 N1124 0.984 . S
H1131 N1124 0.984 . S
H1132 N1120 0.984 . S
H1133 N1120 0.985 . S
C1134 C1135 1.363 . S
C1134 C1140 1.379 . S
C1134 N1142 1.356 . S
C1135 C1134 1.363 . S
C1135 C1141 1.376 1_545 S
C1136 C1137 1.363 . S
C1136 C1141 1.338 1_545 S
C1136 N1143 1.356 . S
C1137 C1136 1.363 . S
C1137 C1140 1.363 . S
N1138 C1140 1.356 . S
N1138 H1150 0.984 . S
N1138 H1151 0.985 . S
N1139 C1141 1.394 . S
N1139 H1144 0.984 . S
N1139 H1145 0.985 . S
C1140 C1134 1.379 . S
C1140 C1137 1.363 . S
C1140 N1138 1.356 . S
C1141 C1135 1.376 1_565 S
C1141 C1136 1.338 1_565 S
C1141 N1139 1.394 . S
N1142 C1134 1.356 . S
N1142 H1148 0.984 . S
N1142 H1149 0.984 . S
N1143 C1136 1.356 . S
N1143 H1146 0.984 . S
N1143 H1147 0.985 . S
H1144 N1139 0.984 . S
H1145 N1139 0.985 . S
H1146 N1143 0.984 . S
H1147 N1143 0.985 . S
H1148 N1142 0.984 . S
H1149 N1142 0.984 . S
H1150 N1138 0.984 . S
H1151 N1138 0.985 . S
C1152 C1153 1.363 . S
C1152 C1158 1.379 . S
C1152 N1160 1.356 . S
C1153 C1152 1.363 . S
C1153 C1159 1.363 . S
C1154 C1155 1.363 . S
C1154 C1159 1.379 . S
C1154 N1161 1.356 . S
C1155 C1154 1.363 . S
C1155 C1158 1.363 . S
N1156 C1158 1.356 . S
N1156 H1168 0.984 . S
N1156 H1169 0.985 . S
N1157 C1159 1.356 . S
N1157 H1162 0.984 . S
N1157 H1163 0.985 . S
C1158 C1152 1.379 . S
C1158 C1155 1.363 . S
C1158 N1156 1.356 . S
C1159 C1153 1.363 . S
C1159 C1154 1.379 . S
C1159 N1157 1.356 . S
N1160 C1152 1.356 . S
N1160 H1166 0.984 . S
N1160 H1167 0.984 . S
N1161 C1154 1.356 . S
N1161 H1164 0.984 . S
N1161 H1165 0.985 . S
H1162 N1157 0.984 . S
H1163 N1157 0.985 . S
H1164 N1161 0.984 . S
H1165 N1161 0.985 . S
H1166 N1160 0.984 . S
H1167 N1160 0.984 . S
H1168 N1156 0.984 . S
H1169 N1156 0.985 . S
C1170 C1171 1.363 . S
C1170 C1176 1.379 . S
C1170 N1178 1.356 . S
C1171 C1170 1.363 . S
C1171 C1177 1.363 . S
C1172 C1173 1.363 . S
C1172 C1177 1.379 . S
C1172 N1179 1.356 . S
C1173 C1172 1.363 . S
C1173 C1176 1.363 . S
N1174 C1176 1.356 . S
N1174 H1186 0.984 . S
N1174 H1187 0.985 . S
N1175 C1177 1.356 . S
N1175 H1180 0.984 . S
N1175 H1181 0.985 . S
C1176 C1170 1.379 . S
C1176 C1173 1.363 . S
C1176 N1174 1.356 . S
C1177 C1171 1.363 . S
C1177 C1172 1.379 . S
C1177 N1175 1.356 . S
N1178 C1170 1.356 . S
N1178 H1184 0.984 . S
N1178 H1185 0.984 . S
N1179 C1172 1.356 . S
N1179 H1182 0.984 . S
N1179 H1183 0.985 . S
H1180 N1175 0.984 . S
H1181 N1175 0.985 . S
H1182 N1179 0.984 . S
H1183 N1179 0.985 . S
H1184 N1178 0.984 . S
H1185 N1178 0.984 . S
H1186 N1174 0.984 . S
H1187 N1174 0.985 . S
C1188 C1189 1.363 . S
C1188 C1194 1.379 . S
C1188 N1196 1.356 . S
C1189 C1188 1.363 . S
C1189 C1195 1.363 . S
C1190 C1191 1.363 . S
C1190 C1195 1.379 . S
C1190 N1197 1.356 . S
C1191 C1190 1.363 . S
C1191 C1194 1.363 . S
N1192 C1194 1.356 . S
N1192 H1204 0.984 . S
N1192 H1205 0.985 . S
N1193 C1195 1.356 . S
N1193 H1198 0.984 . S
N1193 H1199 0.985 . S
C1194 C1188 1.379 . S
C1194 C1191 1.363 . S
C1194 N1192 1.356 . S
C1195 C1189 1.363 . S
C1195 C1190 1.379 . S
C1195 N1193 1.356 . S
N1196 C1188 1.356 . S
N1196 H1202 0.984 . S
N1196 H1203 0.984 . S
N1197 C1190 1.356 . S
N1197 H1200 0.984 . S
N1197 H1201 0.985 . S
H1198 N1193 0.984 . S
H1199 N1193 0.985 . S
H1200 N1197 0.984 . S
H1201 N1197 0.985 . S
H1202 N1196 0.984 . S
H1203 N1196 0.984 . S
H1204 N1192 0.984 . S
H1205 N1192 0.985 . S
C1206 C1207 1.363 . S
C1206 C1212 1.379 . S
C1206 N1214 1.356 . S
C1207 C1206 1.363 . S
C1207 C1213 1.363 . S
C1208 C1209 1.363 . S
C1208 C1213 1.379 . S
C1208 N1215 1.356 . S
C1209 C1208 1.363 . S
C1209 C1212 1.363 . S
N1210 C1212 1.356 . S
N1210 H1222 0.984 . S
N1210 H1223 0.985 . S
N1211 C1213 1.356 . S
N1211 H1216 0.984 . S
N1211 H1217 0.985 . S
C1212 C1206 1.379 . S
C1212 C1209 1.363 . S
C1212 N1210 1.356 . S
C1213 C1207 1.363 . S
C1213 C1208 1.379 . S
C1213 N1211 1.356 . S
N1214 C1206 1.356 . S
N1214 H1220 0.984 . S
N1214 H1221 0.984 . S
N1215 C1208 1.356 . S
N1215 H1218 0.984 1_554 S
N1215 H1219 0.985 1_554 S
H1216 N1211 0.984 . S
H1217 N1211 0.985 . S
H1218 N1215 0.984 1_556 S
H1219 N1215 0.985 1_556 S
H1220 N1214 0.984 . S
H1221 N1214 0.984 . S
H1222 N1210 0.984 . S
H1223 N1210 0.985 . S
C1224 C1225 1.363 . S
C1224 C1230 1.379 . S
C1224 N1232 1.356 . S
C1225 C1224 1.363 . S
C1225 C1231 1.363 . S
C1226 C1227 1.363 . S
C1226 C1231 1.379 . S
C1226 N1233 1.356 . S
C1227 C1226 1.363 . S
C1227 C1230 1.363 . S
N1228 C1230 1.356 . S
N1228 H1240 0.984 . S
N1228 H1241 0.985 . S
N1229 C1231 1.356 . S
N1229 H1234 0.984 . S
N1229 H1235 0.985 . S
C1230 C1224 1.379 . S
C1230 C1227 1.363 . S
C1230 N1228 1.356 . S
C1231 C1225 1.363 . S
C1231 C1226 1.379 . S
C1231 N1229 1.356 . S
N1232 C1224 1.356 . S
N1232 H1238 0.984 . S
N1232 H1239 0.984 . S
N1233 C1226 1.356 . S
N1233 H1236 0.984 . S
N1233 H1237 0.985 . S
H1234 N1229 0.984 . S
H1235 N1229 0.985 . S
H1236 N1233 0.984 . S
H1237 N1233 0.985 . S
H1238 N1232 0.984 . S
H1239 N1232 0.984 . S
H1240 N1228 0.984 . S
H1241 N1228 0.985 . S
C1242 C1243 1.363 . S
C1242 C1248 1.379 . S
C1242 N1250 1.356 . S
C1243 C1242 1.363 . S
C1243 C1249 1.363 . S
C1244 C1245 1.363 . S
C1244 C1249 1.379 . S
C1244 N1251 1.356 . S
C1245 C1244 1.363 . S
C1245 C1248 1.363 . S
N1246 C1248 1.356 1_556 S
N1246 H1258 0.984 . S
N1246 H1259 0.985 . S
N1247 C1249 1.356 . S
N1247 H1252 0.984 . S
N1247 H1253 0.985 . S
C1248 C1242 1.379 . S
C1248 C1245 1.363 . S
C1248 N1246 1.356 1_554 S
C1249 C1243 1.363 . S
C1249 C1244 1.379 . S
C1249 N1247 1.356 . S
N1250 C1242 1.356 . S
N1250 H1256 0.984 . S
N1250 H1257 0.984 . S
N1251 C1244 1.356 . S
N1251 H1254 0.984 . S
N1251 H1255 0.985 . S
H1252 N1247 0.984 . S
H1253 N1247 0.985 . S
H1254 N1251 0.984 . S
H1255 N1251 0.985 . S
H1256 N1250 0.984 . S
H1257 N1250 0.984 . S
H1258 N1246 0.984 . S
H1259 N1246 0.985 . S
C1260 C1261 1.363 . S
C1260 C1266 1.379 . S
C1260 N1268 1.356 . S
C1261 C1260 1.363 . S
C1261 C1267 1.363 . S
C1262 C1263 1.363 . S
C1262 C1267 1.379 . S
C1262 N1269 1.356 . S
C1263 C1262 1.363 . S
C1263 C1266 1.363 . S
N1264 C1266 1.356 . S
N1264 H1276 0.984 . S
N1264 H1277 0.985 . S
N1265 C1267 1.356 . S
N1265 H1270 0.984 . S
N1265 H1271 0.985 . S
C1266 C1260 1.379 . S
C1266 C1263 1.363 . S
C1266 N1264 1.356 . S
C1267 C1261 1.363 . S
C1267 C1262 1.379 . S
C1267 N1265 1.356 . S
N1268 C1260 1.356 . S
N1268 H1274 0.984 . S
N1268 H1275 0.984 . S
N1269 C1262 1.356 . S
N1269 H1272 0.984 . S
N1269 H1273 0.985 . S
H1270 N1265 0.984 . S
H1271 N1265 0.985 . S
H1272 N1269 0.984 . S
H1273 N1269 0.985 . S
H1274 N1268 0.984 . S
H1275 N1268 0.984 . S
H1276 N1264 0.984 . S
H1277 N1264 0.985 . S
C1278 C1279 1.363 . S
C1278 C1284 1.379 . S
C1278 N1286 1.356 . S
C1279 C1278 1.363 . S
C1279 C1285 1.363 . S
C1280 C1281 1.363 . S
C1280 C1285 1.379 . S
C1280 N1287 1.356 . S
C1281 C1280 1.363 . S
C1281 C1284 1.363 . S
N1282 C1284 1.356 . S
N1282 H1294 0.984 . S
N1282 H1295 0.985 . S
N1283 C1285 1.356 . S
N1283 H1288 0.984 . S
N1283 H1289 0.985 . S
C1284 C1278 1.379 . S
C1284 C1281 1.363 . S
C1284 N1282 1.356 . S
C1285 C1279 1.363 . S
C1285 C1280 1.379 . S
C1285 N1283 1.356 . S
N1286 C1278 1.356 . S
N1286 H1292 0.984 . S
N1286 H1293 0.984 . S
N1287 C1280 1.356 . S
N1287 H1290 0.984 . S
N1287 H1291 0.985 . S
H1288 N1283 0.984 . S
H1289 N1283 0.985 . S
H1290 N1287 0.984 . S
H1291 N1287 0.985 . S
H1292 N1286 0.984 . S
H1293 N1286 0.984 . S
H1294 N1282 0.984 . S
H1295 N1282 0.985 . S
C1296 C1297 1.363 . S
C1296 C1302 1.379 . S
C1296 N1304 1.356 . S
C1297 C1296 1.363 . S
C1297 C1303 1.363 . S
C1298 C1299 1.363 . S
C1298 C1303 1.379 . S
C1298 N1305 1.356 . S
C1299 C1298 1.363 . S
C1299 C1302 1.363 . S
N1300 C1302 1.356 . S
N1300 H1312 0.984 . S
N1300 H1313 0.985 . S
N1301 C1303 1.356 . S
N1301 H1306 0.984 . S
N1301 H1307 0.985 . S
C1302 C1296 1.379 . S
C1302 C1299 1.363 . S
C1302 N1300 1.356 . S
C1303 C1297 1.363 . S
C1303 C1298 1.379 . S
C1303 N1301 1.356 . S
N1304 C1296 1.356 . S
N1304 H1310 0.984 . S
N1304 H1311 0.984 . S
N1305 C1298 1.356 . S
N1305 H1308 0.984 . S
N1305 H1309 0.985 . S
H1306 N1301 0.984 . S
H1307 N1301 0.985 . S
H1308 N1305 0.984 . S
H1309 N1305 0.985 . S
H1310 N1304 0.984 . S
H1311 N1304 0.984 . S
H1312 N1300 0.984 . S
H1313 N1300 0.985 . S
C1314 C1315 1.363 . S
C1314 C1320 1.379 . S
C1314 N1322 1.356 . S
C1315 C1314 1.363 . S
C1315 C1321 1.363 . S
C1316 C1317 1.363 . S
C1316 C1321 1.379 . S
C1316 N1323 1.356 . S
C1317 C1316 1.363 . S
C1317 C1320 1.363 . S
N1318 C1320 1.356 . S
N1318 H1330 0.984 . S
N1318 H1331 0.985 . S
N1319 C1321 1.356 . S
N1319 H1324 0.984 . S
N1319 H1325 0.985 . S
C1320 C1314 1.379 . S
C1320 C1317 1.363 . S
C1320 N1318 1.356 . S
C1321 C1315 1.363 . S
C1321 C1316 1.379 . S
C1321 N1319 1.356 . S
N1322 C1314 1.356 . S
N1322 H1328 0.984 . S
N1322 H1329 0.984 1_556 S
N1323 C1316 1.356 . S
N1323 H1326 0.984 . S
N1323 H1327 0.985 . S
H1324 N1319 0.984 . S
H1325 N1319 0.985 . S
H1326 N1323 0.984 . S
H1327 N1323 0.985 . S
H1328 N1322 0.984 . S
H1329 N1322 0.984 1_554 S
H1330 N1318 0.984 . S
H1331 N1318 0.985 . S
C1332 C1333 1.363 . S
C1332 C1338 1.379 . S
C1332 N1340 1.356 . S
C1333 C1332 1.363 . S
C1333 C1339 1.363 . S
C1334 C1335 1.363 . S
C1334 C1339 1.379 . S
C1334 N1341 1.356 . S
C1335 C1334 1.363 . S
C1335 C1338 1.363 . S
N1336 C1338 1.356 . S
N1336 H1348 0.984 . S
N1336 H1349 0.985 . S
N1337 C1339 1.356 . S
N1337 H1342 0.984 1_556 S
N1337 H1343 0.985 . S
C1338 C1332 1.379 . S
C1338 C1335 1.363 . S
C1338 N1336 1.356 . S
C1339 C1333 1.363 . S
C1339 C1334 1.379 . S
C1339 N1337 1.356 . S
N1340 C1332 1.356 . S
N1340 H1346 0.984 . S
N1340 H1347 0.984 . S
N1341 C1334 1.356 . S
N1341 H1344 0.984 . S
N1341 H1345 0.985 . S
H1342 N1337 0.984 1_554 S
H1343 N1337 0.985 . S
H1344 N1341 0.984 . S
H1345 N1341 0.985 . S
H1346 N1340 0.984 . S
H1347 N1340 0.984 . S
H1348 N1336 0.984 . S
H1349 N1336 0.985 . S
C1350 C1351 1.363 . S
C1350 C1356 1.379 . S
C1350 N1358 1.356 . S
C1351 C1350 1.363 . S
C1351 C1357 1.363 . S
C1352 C1353 1.363 . S
C1352 C1357 1.379 . S
C1352 N1359 1.356 . S
C1353 C1352 1.363 . S
C1353 C1356 1.363 . S
N1354 C1356 1.356 . S
N1354 H1366 0.984 . S
N1354 H1367 0.985 . S
N1355 C1357 1.356 . S
N1355 H1360 0.984 . S
N1355 H1361 0.985 . S
C1356 C1350 1.379 . S
C1356 C1353 1.363 . S
C1356 N1354 1.356 . S
C1357 C1351 1.363 . S
C1357 C1352 1.379 . S
C1357 N1355 1.356 . S
N1358 C1350 1.356 . S
N1358 H1364 0.984 . S
N1358 H1365 0.984 . S
N1359 C1352 1.356 . S
N1359 H1362 0.984 . S
N1359 H1363 0.985 . S
H1360 N1355 0.984 . S
H1361 N1355 0.985 . S
H1362 N1359 0.984 . S
H1363 N1359 0.985 . S
H1364 N1358 0.984 . S
H1365 N1358 0.984 . S
H1366 N1354 0.984 . S
H1367 N1354 0.985 . S
C1368 C1369 1.363 . S
C1368 C1374 1.407 . S
C1368 N1376 1.356 . S
C1369 C1368 1.363 . S
C1369 C1375 1.318 1_455 S
C1370 C1371 1.363 . S
C1370 C1375 1.407 . S
C1370 N1377 1.356 . S
C1371 C1370 1.363 . S
C1371 C1374 1.318 1_655 S
N1372 C1374 1.361 1_655 S
N1372 H1384 0.984 1_655 S
N1372 H1385 0.985 . S
N1373 C1375 1.361 1_455 S
N1373 H1378 0.984 . S
N1373 H1379 0.985 1_455 S
C1374 C1368 1.407 . S
C1374 C1371 1.318 1_455 S
C1374 N1372 1.361 1_455 S
C1375 C1369 1.318 1_655 S
C1375 C1370 1.407 . S
C1375 N1373 1.361 1_655 S
N1376 C1368 1.356 . S
N1376 H1382 0.984 . S
N1376 H1383 0.984 . S
N1377 C1370 1.356 . S
N1377 H1380 0.984 . S
N1377 H1381 0.985 . S
H1378 N1373 0.984 . S
H1379 N1373 0.985 1_655 S
H1380 N1377 0.984 . S
H1381 N1377 0.985 . S
H1382 N1376 0.984 . S
H1383 N1376 0.984 . S
H1384 N1372 0.984 1_455 S
H1385 N1372 0.985 . S
C1386 C1387 1.363 . S
C1386 C1392 1.379 . S
C1386 N1394 1.356 . S
C1387 C1386 1.363 . S
C1387 C1393 1.363 . S
C1388 C1389 1.363 . S
C1388 C1393 1.379 . S
C1388 N1395 1.356 . S
C1389 C1388 1.363 . S
C1389 C1392 1.363 . S
N1390 C1392 1.356 . S
N1390 H1402 0.984 . S
N1390 H1403 0.985 . S
N1391 C1393 1.356 . S
N1391 H1396 0.984 . S
N1391 H1397 0.985 . S
C1392 C1386 1.379 . S
C1392 C1389 1.363 . S
C1392 N1390 1.356 . S
C1393 C1387 1.363 . S
C1393 C1388 1.379 . S
C1393 N1391 1.356 . S
N1394 C1386 1.356 . S
N1394 H1400 0.984 . S
N1394 H1401 0.984 . S
N1395 C1388 1.356 . S
N1395 H1398 0.984 . S
N1395 H1399 0.985 . S
H1396 N1391 0.984 . S
H1397 N1391 0.985 . S
H1398 N1395 0.984 . S
H1399 N1395 0.985 . S
H1400 N1394 0.984 . S
H1401 N1394 0.984 . S
H1402 N1390 0.984 . S
H1403 N1390 0.985 . S
C1404 C1405 1.363 1_565 S
C1404 C1410 1.379 . S
C1404 N1412 1.356 . S
C1405 C1404 1.363 1_545 S
C1405 C1411 1.363 . S
C1406 C1407 1.363 1_545 S
C1406 C1411 1.379 . S
C1406 N1413 1.356 . S
C1407 C1406 1.363 1_565 S
C1407 C1410 1.363 . S
N1408 C1410 1.356 . S
N1408 H1420 0.984 . S
N1408 H1421 0.985 . S
N1409 C1411 1.356 . S
N1409 H1414 0.984 . S
N1409 H1415 0.985 . S
C1410 C1404 1.379 . S
C1410 C1407 1.363 . S
C1410 N1408 1.356 . S
C1411 C1405 1.363 . S
C1411 C1406 1.379 . S
C1411 N1409 1.356 . S
N1412 C1404 1.356 . S
N1412 H1418 0.984 . S
N1412 H1419 0.984 1_565 S
N1413 C1406 1.356 . S
N1413 H1416 0.984 1_545 S
N1413 H1417 0.985 . S
H1414 N1409 0.984 . S
H1415 N1409 0.985 . S
H1416 N1413 0.984 1_565 S
H1417 N1413 0.985 . S
H1418 N1412 0.984 . S
H1419 N1412 0.984 1_545 S
H1420 N1408 0.984 . S
H1421 N1408 0.985 . S
C1422 C1423 1.363 . S
C1422 C1428 1.379 . S
C1422 N1430 1.356 . S
C1423 C1422 1.363 . S
C1423 C1429 1.363 1_565 S
C1424 C1425 1.363 . S
C1424 C1429 1.379 . S
C1424 N1431 1.356 . S
C1425 C1424 1.363 . S
C1425 C1428 1.363 1_545 S
N1426 C1428 1.356 . S
N1426 H1438 0.984 . S
N1426 H1439 0.985 1_565 S
N1427 C1429 1.356 . S
N1427 H1432 0.984 1_545 S
N1427 H1433 0.985 . S
C1428 C1422 1.379 . S
C1428 C1425 1.363 1_565 S
C1428 N1426 1.356 . S
C1429 C1423 1.363 1_545 S
C1429 C1424 1.379 . S
C1429 N1427 1.356 . S
N1430 C1422 1.356 . S
N1430 H1436 0.984 . S
N1430 H1437 0.984 . S
N1431 C1424 1.356 . S
N1431 H1434 0.984 . S
N1431 H1435 0.985 . S
H1432 N1427 0.984 1_565 S
H1433 N1427 0.985 . S
H1434 N1431 0.984 . S
H1435 N1431 0.985 . S
H1436 N1430 0.984 . S
H1437 N1430 0.984 . S
H1438 N1426 0.984 . S
H1439 N1426 0.985 1_545 S
C1440 C1441 1.373 . S
C1440 C1446 1.355 1_655 S
C1440 N1448 1.378 . S
C1441 C1440 1.373 . S
C1441 C1447 1.363 . S
C1442 C1443 1.373 . S
C1442 C1447 1.355 1_455 S
C1442 N1449 1.378 . S
C1443 C1442 1.373 . S
C1443 C1446 1.363 . S
N1444 C1446 1.356 . S
N1444 H1456 0.984 . S
N1444 H1457 0.985 . S
N1445 C1447 1.356 . S
N1445 H1450 0.984 . S
N1445 H1451 0.985 . S
C1446 C1440 1.355 1_455 S
C1446 C1443 1.363 . S
C1446 N1444 1.356 . S
C1447 C1441 1.363 . S
C1447 C1442 1.355 1_655 S
C1447 N1445 1.356 . S
N1448 C1440 1.378 . S
N1448 H1454 0.984 1_655 S
N1448 H1455 0.984 . S
N1449 C1442 1.378 . S
N1449 H1452 0.984 . S
N1449 H1453 0.985 1_455 S
H1450 N1445 0.984 . S
H1451 N1445 0.985 . S
H1452 N1449 0.984 . S
H1453 N1449 0.985 1_655 S
H1454 N1448 0.984 1_455 S
H1455 N1448 0.984 . S
H1456 N1444 0.984 . S
H1457 N1444 0.985 . S
C1458 C1459 1.363 . S
C1458 C1464 1.379 . S
C1458 N1466 1.356 . S
C1459 C1458 1.363 . S
C1459 C1465 1.363 . S
C1460 C1461 1.363 . S
C1460 C1465 1.379 . S
C1460 N1467 1.356 . S
C1461 C1460 1.363 . S
C1461 C1464 1.363 . S
N1462 C1464 1.356 . S
N1462 H1474 0.984 . S
N1462 H1475 0.985 . S
N1463 C1465 1.356 . S
N1463 H1468 0.984 . S
N1463 H1469 0.985 . S
C1464 C1458 1.379 . S
C1464 C1461 1.363 . S
C1464 N1462 1.356 . S
C1465 C1459 1.363 . S
C1465 C1460 1.379 . S
C1465 N1463 1.356 . S
N1466 C1458 1.356 . S
N1466 H1472 0.984 . S
N1466 H1473 0.984 . S
N1467 C1460 1.356 . S
N1467 H1470 0.984 . S
N1467 H1471 0.985 . S
H1468 N1463 0.984 . S
H1469 N1463 0.985 . S
H1470 N1467 0.984 . S
H1471 N1467 0.985 . S
H1472 N1466 0.984 . S
H1473 N1466 0.984 . S
H1474 N1462 0.984 . S
H1475 N1462 0.985 . S
C1476 C1477 1.363 . S
C1476 C1482 1.379 . S
C1476 N1484 1.356 . S
C1477 C1476 1.363 . S
C1477 C1483 1.363 . S
C1478 C1479 1.363 . S
C1478 C1483 1.379 . S
C1478 N1485 1.356 . S
C1479 C1478 1.363 . S
C1479 C1482 1.363 . S
N1480 C1482 1.356 . S
N1480 H1492 0.984 . S
N1480 H1493 0.985 . S
N1481 C1483 1.356 . S
N1481 H1486 0.984 . S
N1481 H1487 0.985 . S
C1482 C1476 1.379 . S
C1482 C1479 1.363 . S
C1482 N1480 1.356 . S
C1483 C1477 1.363 . S
C1483 C1478 1.379 . S
C1483 N1481 1.356 . S
N1484 C1476 1.356 . S
N1484 H1490 0.984 . S
N1484 H1491 0.984 . S
N1485 C1478 1.356 . S
N1485 H1488 0.984 . S
N1485 H1489 0.985 . S
H1486 N1481 0.984 . S
H1487 N1481 0.985 . S
H1488 N1485 0.984 . S
H1489 N1485 0.985 . S
H1490 N1484 0.984 . S
H1491 N1484 0.984 . S
H1492 N1480 0.984 . S
H1493 N1480 0.985 . S
C1494 C1495 1.363 . S
C1494 C1500 1.379 . S
C1494 N1502 1.356 . S
C1495 C1494 1.363 . S
C1495 C1501 1.363 . S
C1496 C1497 1.363 . S
C1496 C1501 1.379 . S
C1496 N1503 1.356 . S
C1497 C1496 1.363 . S
C1497 C1500 1.363 . S
N1498 C1500 1.356 . S
N1498 H1510 0.984 . S
N1498 H1511 0.985 . S
N1499 C1501 1.356 . S
N1499 H1504 0.984 . S
N1499 H1505 0.985 . S
C1500 C1494 1.379 . S
C1500 C1497 1.363 . S
C1500 N1498 1.356 . S
C1501 C1495 1.363 . S
C1501 C1496 1.379 . S
C1501 N1499 1.356 . S
N1502 C1494 1.356 . S
N1502 H1508 0.984 . S
N1502 H1509 0.984 . S
N1503 C1496 1.356 . S
N1503 H1506 0.984 . S
N1503 H1507 0.985 . S
H1504 N1499 0.984 . S
H1505 N1499 0.985 . S
H1506 N1503 0.984 . S
H1507 N1503 0.985 . S
H1508 N1502 0.984 . S
H1509 N1502 0.984 . S
H1510 N1498 0.984 . S
H1511 N1498 0.985 . S
C1512 C1513 1.363 . S
C1512 C1518 1.379 . S
C1512 N1520 1.356 . S
C1513 C1512 1.363 . S
C1513 C1519 1.363 . S
C1514 C1515 1.363 . S
C1514 C1519 1.379 . S
C1514 N1521 1.356 . S
C1515 C1514 1.363 . S
C1515 C1518 1.363 . S
N1516 C1518 1.356 . S
N1516 H1528 0.984 . S
N1516 H1529 0.985 . S
N1517 C1519 1.356 . S
N1517 H1522 0.984 . S
N1517 H1523 0.985 . S
C1518 C1512 1.379 . S
C1518 C1515 1.363 . S
C1518 N1516 1.356 . S
C1519 C1513 1.363 . S
C1519 C1514 1.379 . S
C1519 N1517 1.356 . S
N1520 C1512 1.356 . S
N1520 H1526 0.984 . S
N1520 H1527 0.984 . S
N1521 C1514 1.356 . S
N1521 H1524 0.984 . S
N1521 H1525 0.985 . S
H1522 N1517 0.984 . S
H1523 N1517 0.985 . S
H1524 N1521 0.984 . S
H1525 N1521 0.985 . S
H1526 N1520 0.984 . S
H1527 N1520 0.984 . S
H1528 N1516 0.984 . S
H1529 N1516 0.985 . S
C1530 C1531 1.363 . S
C1530 C1536 1.379 . S
C1530 N1538 1.356 . S
C1531 C1530 1.363 . S
C1531 C1537 1.363 . S
C1532 C1533 1.363 . S
C1532 C1537 1.379 . S
C1532 N1539 1.356 . S
C1533 C1532 1.363 . S
C1533 C1536 1.363 . S
N1534 C1536 1.356 . S
N1534 H1546 0.984 . S
N1534 H1547 0.985 . S
N1535 C1537 1.356 . S
N1535 H1540 0.984 . S
N1535 H1541 0.985 . S
C1536 C1530 1.379 . S
C1536 C1533 1.363 . S
C1536 N1534 1.356 . S
C1537 C1531 1.363 . S
C1537 C1532 1.379 . S
C1537 N1535 1.356 . S
N1538 C1530 1.356 . S
N1538 H1544 0.984 . S
N1538 H1545 0.984 . S
N1539 C1532 1.356 . S
N1539 H1542 0.984 . S
N1539 H1543 0.985 . S
H1540 N1535 0.984 . S
H1541 N1535 0.985 . S
H1542 N1539 0.984 . S
H1543 N1539 0.985 . S
H1544 N1538 0.984 . S
H1545 N1538 0.984 . S
H1546 N1534 0.984 . S
H1547 N1534 0.985 . S
C1548 C1549 1.363 . S
C1548 C1554 1.379 . S
C1548 N1556 1.356 . S
C1549 C1548 1.363 . S
C1549 C1555 1.363 . S
C1550 C1551 1.363 . S
C1550 C1555 1.379 . S
C1550 N1557 1.356 . S
C1551 C1550 1.363 . S
C1551 C1554 1.363 . S
N1552 C1554 1.356 . S
N1552 H1564 0.984 . S
N1552 H1565 0.985 . S
N1553 C1555 1.356 . S
N1553 H1558 0.984 . S
N1553 H1559 0.985 . S
C1554 C1548 1.379 . S
C1554 C1551 1.363 . S
C1554 N1552 1.356 . S
C1555 C1549 1.363 . S
C1555 C1550 1.379 . S
C1555 N1553 1.356 . S
N1556 C1548 1.356 . S
N1556 H1562 0.984 . S
N1556 H1563 0.984 . S
N1557 C1550 1.356 . S
N1557 H1560 0.984 . S
N1557 H1561 0.985 . S
H1558 N1553 0.984 . S
H1559 N1553 0.985 . S
H1560 N1557 0.984 . S
H1561 N1557 0.985 . S
H1562 N1556 0.984 . S
H1563 N1556 0.984 . S
H1564 N1552 0.984 . S
H1565 N1552 0.985 . S
C1566 C1567 1.363 . S
C1566 C1572 1.379 . S
C1566 N1574 1.356 . S
C1567 C1566 1.363 . S
C1567 C1573 1.363 . S
C1568 C1569 1.363 . S
C1568 C1573 1.379 . S
C1568 N1575 1.356 . S
C1569 C1568 1.363 . S
C1569 C1572 1.363 . S
N1570 C1572 1.356 . S
N1570 H1582 0.984 . S
N1570 H1583 0.985 . S
N1571 C1573 1.356 . S
N1571 H1576 0.984 . S
N1571 H1577 0.985 . S
C1572 C1566 1.379 . S
C1572 C1569 1.363 . S
C1572 N1570 1.356 . S
C1573 C1567 1.363 . S
C1573 C1568 1.379 . S
C1573 N1571 1.356 . S
N1574 C1566 1.356 . S
N1574 H1580 0.984 . S
N1574 H1581 0.984 . S
N1575 C1568 1.356 . S
N1575 H1578 0.984 . S
N1575 H1579 0.985 . S
H1576 N1571 0.984 . S
H1577 N1571 0.985 . S
H1578 N1575 0.984 . S
H1579 N1575 0.985 . S
H1580 N1574 0.984 . S
H1581 N1574 0.984 . S
H1582 N1570 0.984 . S
H1583 N1570 0.985 . S
C1584 C1585 1.363 . S
C1584 C1590 1.379 . S
C1584 N1592 1.356 . S
C1585 C1584 1.363 . S
C1585 C1591 1.363 . S
C1586 C1587 1.363 . S
C1586 C1591 1.379 . S
C1586 N1593 1.356 . S
C1587 C1586 1.363 . S
C1587 C1590 1.363 . S
N1588 C1590 1.356 . S
N1588 H1600 0.984 . S
N1588 H1601 0.985 . S
N1589 C1591 1.356 . S
N1589 H1594 0.984 . S
N1589 H1595 0.985 . S
C1590 C1584 1.379 . S
C1590 C1587 1.363 . S
C1590 N1588 1.356 . S
C1591 C1585 1.363 . S
C1591 C1586 1.379 . S
C1591 N1589 1.356 . S
N1592 C1584 1.356 . S
N1592 H1598 0.984 . S
N1592 H1599 0.984 . S
N1593 C1586 1.356 . S
N1593 H1596 0.984 . S
N1593 H1597 0.985 . S
H1594 N1589 0.984 . S
H1595 N1589 0.985 . S
H1596 N1593 0.984 . S
H1597 N1593 0.985 . S
H1598 N1592 0.984 . S
H1599 N1592 0.984 . S
H1600 N1588 0.984 . S
H1601 N1588 0.985 . S
C1602 C1603 1.363 . S
C1602 C1608 1.379 . S
C1602 N1610 1.356 . S
C1603 C1602 1.363 . S
C1603 C1609 1.363 . S
C1604 C1605 1.363 . S
C1604 C1609 1.379 . S
C1604 N1611 1.356 . S
C1605 C1604 1.363 . S
C1605 C1608 1.363 . S
N1606 C1608 1.356 . S
N1606 H1618 0.984 . S
N1606 H1619 0.985 . S
N1607 C1609 1.356 . S
N1607 H1612 0.984 . S
N1607 H1613 0.985 . S
C1608 C1602 1.379 . S
C1608 C1605 1.363 . S
C1608 N1606 1.356 . S
C1609 C1603 1.363 . S
C1609 C1604 1.379 . S
C1609 N1607 1.356 . S
N1610 C1602 1.356 . S
N1610 H1616 0.984 . S
N1610 H1617 0.984 . S
N1611 C1604 1.356 . S
N1611 H1614 0.984 . S
N1611 H1615 0.985 . S
H1612 N1607 0.984 . S
H1613 N1607 0.985 . S
H1614 N1611 0.984 . S
H1615 N1611 0.985 . S
H1616 N1610 0.984 . S
H1617 N1610 0.984 . S
H1618 N1606 0.984 . S
H1619 N1606 0.985 . S
C1620 C1621 1.363 . S
C1620 C1626 1.379 . S
C1620 N1628 1.356 . S
C1621 C1620 1.363 . S
C1621 C1627 1.363 . S
C1622 C1623 1.363 . S
C1622 C1627 1.379 . S
C1622 N1629 1.356 . S
C1623 C1622 1.363 . S
C1623 C1626 1.363 . S
N1624 C1626 1.356 . S
N1624 H1636 0.984 . S
N1624 H1637 0.985 . S
N1625 C1627 1.356 . S
N1625 H1630 0.984 . S
N1625 H1631 0.985 . S
C1626 C1620 1.379 . S
C1626 C1623 1.363 . S
C1626 N1624 1.356 . S
C1627 C1621 1.363 . S
C1627 C1622 1.379 . S
C1627 N1625 1.356 . S
N1628 C1620 1.356 . S
N1628 H1634 0.984 . S
N1628 H1635 0.984 . S
N1629 C1622 1.356 . S
N1629 H1632 0.984 . S
N1629 H1633 0.985 . S
H1630 N1625 0.984 . S
H1631 N1625 0.985 . S
H1632 N1629 0.984 . S
H1633 N1629 0.985 . S
H1634 N1628 0.984 . S
H1635 N1628 0.984 . S
H1636 N1624 0.984 . S
H1637 N1624 0.985 . S
C1638 C1639 1.363 . S
C1638 C1644 1.379 . S
C1638 N1646 1.356 . S
C1639 C1638 1.363 . S
C1639 C1645 1.363 . S
C1640 C1641 1.363 . S
C1640 C1645 1.379 . S
C1640 N1647 1.356 . S
C1641 C1640 1.363 . S
C1641 C1644 1.363 . S
N1642 C1644 1.356 . S
N1642 H1654 0.984 . S
N1642 H1655 0.985 . S
N1643 C1645 1.356 . S
N1643 H1648 0.984 . S
N1643 H1649 0.985 . S
C1644 C1638 1.379 . S
C1644 C1641 1.363 . S
C1644 N1642 1.356 . S
C1645 C1639 1.363 . S
C1645 C1640 1.379 . S
C1645 N1643 1.356 . S
N1646 C1638 1.356 . S
N1646 H1652 0.984 . S
N1646 H1653 0.984 . S
N1647 C1640 1.356 . S
N1647 H1650 0.984 . S
N1647 H1651 0.985 . S
H1648 N1643 0.984 . S
H1649 N1643 0.985 . S
H1650 N1647 0.984 . S
H1651 N1647 0.985 . S
H1652 N1646 0.984 . S
H1653 N1646 0.984 . S
H1654 N1642 0.984 . S
H1655 N1642 0.985 . S
C1656 C1657 1.363 . S
C1656 C1662 1.379 . S
C1656 N1664 1.356 . S
C1657 C1656 1.363 . S
C1657 C1663 1.363 . S
C1658 C1659 1.363 . S
C1658 C1663 1.379 . S
C1658 N1665 1.356 . S
C1659 C1658 1.363 . S
C1659 C1662 1.363 . S
N1660 C1662 1.356 . S
N1660 H1672 0.984 . S
N1660 H1673 0.985 . S
N1661 C1663 1.356 . S
N1661 H1666 0.984 . S
N1661 H1667 0.985 . S
C1662 C1656 1.379 . S
C1662 C1659 1.363 . S
C1662 N1660 1.356 . S
C1663 C1657 1.363 . S
C1663 C1658 1.379 . S
C1663 N1661 1.356 . S
N1664 C1656 1.356 . S
N1664 H1670 0.984 . S
N1664 H1671 0.984 . S
N1665 C1658 1.356 . S
N1665 H1668 0.984 . S
N1665 H1669 0.985 . S
H1666 N1661 0.984 . S
H1667 N1661 0.985 . S
H1668 N1665 0.984 . S
H1669 N1665 0.985 . S
H1670 N1664 0.984 . S
H1671 N1664 0.984 . S
H1672 N1660 0.984 . S
H1673 N1660 0.985 . S
C1674 C1675 1.363 . S
C1674 C1680 1.379 . S
C1674 N1682 1.356 . S
C1675 C1674 1.363 . S
C1675 C1681 1.363 . S
C1676 C1677 1.363 . S
C1676 C1681 1.379 . S
C1676 N1683 1.356 . S
C1677 C1676 1.363 . S
C1677 C1680 1.363 . S
N1678 C1680 1.356 . S
N1678 H1690 0.984 . S
N1678 H1691 0.985 . S
N1679 C1681 1.356 . S
N1679 H1684 0.984 . S
N1679 H1685 0.985 . S
C1680 C1674 1.379 . S
C1680 C1677 1.363 . S
C1680 N1678 1.356 . S
C1681 C1675 1.363 . S
C1681 C1676 1.379 . S
C1681 N1679 1.356 . S
N1682 C1674 1.356 . S
N1682 H1688 0.984 . S
N1682 H1689 0.984 . S
N1683 C1676 1.356 . S
N1683 H1686 0.984 . S
N1683 H1687 0.985 . S
H1684 N1679 0.984 . S
H1685 N1679 0.985 . S
H1686 N1683 0.984 . S
H1687 N1683 0.985 . S
H1688 N1682 0.984 . S
H1689 N1682 0.984 . S
H1690 N1678 0.984 . S
H1691 N1678 0.985 . S
C1692 C1693 1.363 . S
C1692 C1698 1.379 1_455 S
C1692 N1700 1.356 . S
C1693 C1692 1.363 . S
C1693 C1699 1.363 . S
C1694 C1695 1.363 . S
C1694 C1699 1.379 1_655 S
C1694 N1701 1.356 . S
C1695 C1694 1.363 . S
C1695 C1698 1.363 . S
N1696 C1698 1.356 . S
N1696 H1708 0.984 . S
N1696 H1709 0.985 . S
N1697 C1699 1.356 . S
N1697 H1702 0.984 . S
N1697 H1703 0.985 . S
C1698 C1692 1.379 1_655 S
C1698 C1695 1.363 . S
C1698 N1696 1.356 . S
C1699 C1693 1.363 . S
C1699 C1694 1.379 1_455 S
C1699 N1697 1.356 . S
N1700 C1692 1.356 . S
N1700 H1706 0.984 . S
N1700 H1707 0.984 . S
N1701 C1694 1.356 . S
N1701 H1704 0.984 . S
N1701 H1705 0.985 . S
H1702 N1697 0.984 . S
H1703 N1697 0.985 . S
H1704 N1701 0.984 . S
H1705 N1701 0.985 . S
H1706 N1700 0.984 . S
H1707 N1700 0.984 . S
H1708 N1696 0.984 . S
H1709 N1696 0.985 . S
C1710 C1711 1.363 . S
C1710 C1716 1.379 . S
C1710 N1718 1.356 . S
C1711 C1710 1.363 . S
C1711 C1717 1.363 . S
C1712 C1713 1.363 . S
C1712 C1717 1.379 . S
C1712 N1719 1.356 . S
C1713 C1712 1.363 . S
C1713 C1716 1.363 . S
N1714 C1716 1.356 . S
N1714 H1726 0.984 . S
N1714 H1727 0.985 . S
N1715 C1717 1.356 . S
N1715 H1720 0.984 . S
N1715 H1721 0.985 . S
C1716 C1710 1.379 . S
C1716 C1713 1.363 . S
C1716 N1714 1.356 . S
C1717 C1711 1.363 . S
C1717 C1712 1.379 . S
C1717 N1715 1.356 . S
N1718 C1710 1.356 . S
N1718 H1724 0.984 . S
N1718 H1725 0.984 . S
N1719 C1712 1.356 . S
N1719 H1722 0.984 . S
N1719 H1723 0.985 . S
H1720 N1715 0.984 . S
H1721 N1715 0.985 . S
H1722 N1719 0.984 . S
H1723 N1719 0.985 . S
H1724 N1718 0.984 . S
H1725 N1718 0.984 . S
H1726 N1714 0.984 . S
H1727 N1714 0.985 . S
C1728 C1729 1.363 . S
C1728 C1734 1.379 1_545 S
C1728 N1736 1.356 . S
C1729 C1728 1.363 . S
C1729 C1735 1.363 . S
C1730 C1731 1.363 . S
C1730 C1735 1.379 1_565 S
C1730 N1737 1.356 . S
C1731 C1730 1.363 . S
C1731 C1734 1.363 . S
N1732 C1734 1.356 . S
N1732 H1744 0.984 . S
N1732 H1745 0.985 . S
N1733 C1735 1.356 . S
N1733 H1738 0.984 . S
N1733 H1739 0.985 . S
C1734 C1728 1.379 1_565 S
C1734 C1731 1.363 . S
C1734 N1732 1.356 . S
C1735 C1729 1.363 . S
C1735 C1730 1.379 1_545 S
C1735 N1733 1.356 . S
N1736 C1728 1.356 . S
N1736 H1742 0.984 . S
N1736 H1743 0.984 . S
N1737 C1730 1.356 . S
N1737 H1740 0.984 . S
N1737 H1741 0.985 . S
H1738 N1733 0.984 . S
H1739 N1733 0.985 . S
H1740 N1737 0.984 . S
H1741 N1737 0.985 . S
H1742 N1736 0.984 . S
H1743 N1736 0.984 . S
H1744 N1732 0.984 . S
H1745 N1732 0.985 . S
C1746 C1747 1.363 1_565 S
C1746 C1752 1.379 . S
C1746 N1754 1.356 1_565 S
C1747 C1746 1.363 1_545 S
C1747 C1753 1.363 1_556 S
C1748 C1749 1.363 1_545 S
C1748 C1753 1.379 . S
C1748 N1755 1.356 1_545 S
C1749 C1748 1.363 1_565 S
C1749 C1752 1.363 1_554 S
N1750 C1752 1.356 . S
N1750 H1762 0.984 . S
N1750 H1763 0.985 . S
N1751 C1753 1.356 . S
N1751 H1756 0.984 . S
N1751 H1757 0.985 . S
C1752 C1746 1.379 . S
C1752 C1749 1.363 1_556 S
C1752 N1750 1.356 . S
C1753 C1747 1.363 1_554 S
C1753 C1748 1.379 . S
C1753 N1751 1.356 . S
N1754 C1746 1.356 1_545 S
N1754 H1760 0.984 1_545 S
N1754 H1761 0.984 . S
N1755 C1748 1.356 1_565 S
N1755 H1758 0.984 . S
N1755 H1759 0.985 1_565 S
H1756 N1751 0.984 . S
H1757 N1751 0.985 . S
H1758 N1755 0.984 . S
H1759 N1755 0.985 1_545 S
H1760 N1754 0.984 1_565 S
H1761 N1754 0.984 . S
H1762 N1750 0.984 . S
H1763 N1750 0.985 . S
C1764 C1765 1.363 . S
C1764 C1770 1.379 1_455 S
C1764 N1772 1.356 . S
C1765 C1764 1.363 . S
C1765 C1771 1.363 1_554 S
C1766 C1767 1.363 . S
C1766 C1771 1.379 1_655 S
C1766 N1773 1.356 . S
C1767 C1766 1.363 . S
C1767 C1770 1.363 1_556 S
N1768 C1770 1.356 . S
N1768 H1780 0.984 . S
N1768 H1781 0.985 . S
N1769 C1771 1.356 . S
N1769 H1774 0.984 . S
N1769 H1775 0.985 . S
C1770 C1764 1.379 1_655 S
C1770 C1767 1.363 1_554 S
C1770 N1768 1.356 . S
C1771 C1765 1.363 1_556 S
C1771 C1766 1.379 1_455 S
C1771 N1769 1.356 . S
N1772 C1764 1.356 . S
N1772 H1778 0.984 . S
N1772 H1779 0.984 . S
N1773 C1766 1.356 . S
N1773 H1776 0.984 . S
N1773 H1777 0.985 . S
H1774 N1769 0.984 . S
H1775 N1769 0.985 . S
H1776 N1773 0.984 . S
H1777 N1773 0.985 . S
H1778 N1772 0.984 . S
H1779 N1772 0.984 . S
H1780 N1768 0.984 . S
H1781 N1768 0.985 . S
C1782 C1783 1.363 1_556 S
C1782 C1788 1.379 . S
C1782 N1790 1.355 1_556 S
C1783 C1782 1.363 1_554 S
C1783 C1789 1.363 . S
C1784 C1785 1.363 1_554 S
C1784 C1789 1.379 . S
C1784 N1791 1.355 1_554 S
C1785 C1784 1.363 1_556 S
C1785 C1788 1.363 . S
N1786 C1788 1.356 . S
N1786 H1798 0.984 . S
N1786 H1799 0.985 . S
N1787 C1789 1.356 . S
N1787 H1792 0.984 . S
N1787 H1793 0.985 . S
C1788 C1782 1.379 . S
C1788 C1785 1.363 . S
C1788 N1786 1.356 . S
C1789 C1783 1.363 . S
C1789 C1784 1.379 . S
C1789 N1787 1.356 . S
N1790 C1782 1.355 1_554 S
N1790 H1796 0.976 1_554 S
N1790 H1797 0.995 . S
N1791 C1784 1.355 1_556 S
N1791 H1794 0.995 . S
N1791 H1795 0.976 1_556 S
H1792 N1787 0.984 . S
H1793 N1787 0.985 . S
H1794 N1791 0.995 . S
H1795 N1791 0.976 1_554 S
H1796 N1790 0.976 1_556 S
H1797 N1790 0.995 . S
H1798 N1786 0.984 . S
H1799 N1786 0.985 . S
C1800 C1801 1.363 . S
C1800 C1806 1.379 . S
C1800 N1808 1.356 . S
C1801 C1800 1.363 . S
C1801 C1807 1.363 . S
C1802 C1803 1.363 . S
C1802 C1807 1.379 . S
C1802 N1809 1.356 . S
C1803 C1802 1.363 . S
C1803 C1806 1.363 . S
N1804 C1806 1.356 . S
N1804 H1816 0.984 . S
N1804 H1817 0.985 . S
N1805 C1807 1.356 . S
N1805 H1810 0.984 . S
N1805 H1811 0.985 . S
C1806 C1800 1.379 . S
C1806 C1803 1.363 . S
C1806 N1804 1.356 . S
C1807 C1801 1.363 . S
C1807 C1802 1.379 . S
C1807 N1805 1.356 . S
N1808 C1800 1.356 . S
N1808 H1814 0.984 . S
N1808 H1815 0.984 . S
N1809 C1802 1.356 . S
N1809 H1812 0.984 . S
N1809 H1813 0.985 . S
H1810 N1805 0.984 . S
H1811 N1805 0.985 . S
H1812 N1809 0.984 . S
H1813 N1809 0.985 . S
H1814 N1808 0.984 . S
H1815 N1808 0.984 . S
H1816 N1804 0.984 . S
H1817 N1804 0.985 . S
C1818 C1819 1.363 . S
C1818 C1824 1.379 . S
C1818 N1826 1.356 . S
C1819 C1818 1.363 . S
C1819 C1825 1.363 . S
C1820 C1821 1.363 . S
C1820 C1825 1.379 . S
C1820 N1827 1.356 . S
C1821 C1820 1.363 . S
C1821 C1824 1.363 . S
N1822 C1824 1.356 1_556 S
N1822 H1834 0.984 . S
N1822 H1835 0.985 . S
N1823 C1825 1.356 . S
N1823 H1828 0.984 . S
N1823 H1829 0.985 . S
C1824 C1818 1.379 . S
C1824 C1821 1.363 . S
C1824 N1822 1.356 1_554 S
C1825 C1819 1.363 . S
C1825 C1820 1.379 . S
C1825 N1823 1.356 . S
N1826 C1818 1.356 . S
N1826 H1832 0.984 . S
N1826 H1833 0.984 . S
N1827 C1820 1.356 . S
N1827 H1830 0.984 . S
N1827 H1831 0.985 . S
H1828 N1823 0.984 . S
H1829 N1823 0.985 . S
H1830 N1827 0.984 . S
H1831 N1827 0.985 . S
H1832 N1826 0.984 . S
H1833 N1826 0.984 . S
H1834 N1822 0.984 . S
H1835 N1822 0.985 . S
C1836 C1837 1.363 . S
C1836 C1842 1.379 . S
C1836 N1844 1.356 1_554 S
C1837 C1836 1.363 . S
C1837 C1843 1.363 . S
C1838 C1839 1.363 . S
C1838 C1843 1.379 . S
C1838 N1845 1.356 . S
C1839 C1838 1.363 . S
C1839 C1842 1.363 . S
N1840 C1842 1.356 . S
N1840 H1852 0.984 . S
N1840 H1853 0.985 . S
N1841 C1843 1.356 . S
N1841 H1846 0.984 . S
N1841 H1847 0.985 . S
C1842 C1836 1.379 . S
C1842 C1839 1.363 . S
C1842 N1840 1.356 . S
C1843 C1837 1.363 . S
C1843 C1838 1.379 . S
C1843 N1841 1.356 . S
N1844 C1836 1.356 1_556 S
N1844 H1850 0.984 . S
N1844 H1851 0.984 . S
N1845 C1838 1.356 . S
N1845 H1848 0.984 . S
N1845 H1849 0.985 . S
H1846 N1841 0.984 . S
H1847 N1841 0.985 . S
H1848 N1845 0.984 . S
H1849 N1845 0.985 . S
H1850 N1844 0.984 . S
H1851 N1844 0.984 . S
H1852 N1840 0.984 . S
H1853 N1840 0.985 . S
C1854 C1855 1.363 . S
C1854 C1860 1.379 . S
C1854 N1862 1.356 . S
C1855 C1854 1.363 . S
C1855 C1861 1.363 . S
C1856 C1857 1.363 . S
C1856 C1861 1.379 . S
C1856 N1863 1.356 . S
C1857 C1856 1.363 . S
C1857 C1860 1.363 . S
N1858 C1860 1.356 . S
N1858 H1870 0.984 . S
N1858 H1871 0.985 . S
N1859 C1861 1.356 . S
N1859 H1864 0.984 . S
N1859 H1865 0.985 . S
C1860 C1854 1.379 . S
C1860 C1857 1.363 . S
C1860 N1858 1.356 . S
C1861 C1855 1.363 . S
C1861 C1856 1.379 . S
C1861 N1859 1.356 . S
N1862 C1854 1.356 . S
N1862 H1868 0.984 . S
N1862 H1869 0.984 . S
N1863 C1856 1.356 . S
N1863 H1866 0.984 . S
N1863 H1867 0.985 . S
H1864 N1859 0.984 . S
H1865 N1859 0.985 . S
H1866 N1863 0.984 . S
H1867 N1863 0.985 . S
H1868 N1862 0.984 . S
H1869 N1862 0.984 . S
H1870 N1858 0.984 . S
H1871 N1858 0.985 . S
C1872 C1873 1.363 . S
C1872 C1878 1.379 . S
C1872 N1880 1.356 . S
C1873 C1872 1.363 . S
C1873 C1879 1.363 . S
C1874 C1875 1.363 . S
C1874 C1879 1.379 . S
C1874 N1881 1.356 . S
C1875 C1874 1.363 . S
C1875 C1878 1.363 . S
N1876 C1878 1.356 . S
N1876 H1888 0.984 . S
N1876 H1889 0.985 . S
N1877 C1879 1.356 . S
N1877 H1882 0.984 . S
N1877 H1883 0.985 . S
C1878 C1872 1.379 . S
C1878 C1875 1.363 . S
C1878 N1876 1.356 . S
C1879 C1873 1.363 . S
C1879 C1874 1.379 . S
C1879 N1877 1.356 . S
N1880 C1872 1.356 . S
N1880 H1886 0.984 . S
N1880 H1887 0.984 . S
N1881 C1874 1.356 . S
N1881 H1884 0.984 . S
N1881 H1885 0.985 . S
H1882 N1877 0.984 . S
H1883 N1877 0.985 . S
H1884 N1881 0.984 . S
H1885 N1881 0.985 . S
H1886 N1880 0.984 . S
H1887 N1880 0.984 . S
H1888 N1876 0.984 . S
H1889 N1876 0.985 . S
C1890 C1891 1.363 . S
C1890 C1896 1.379 . S
C1890 N1898 1.356 . S
C1891 C1890 1.363 . S
C1891 C1897 1.363 . S
C1892 C1893 1.363 . S
C1892 C1897 1.379 . S
C1892 N1899 1.356 . S
C1893 C1892 1.363 . S
C1893 C1896 1.363 . S
N1894 C1896 1.356 . S
N1894 H1906 0.984 . S
N1894 H1907 0.985 . S
N1895 C1897 1.356 . S
N1895 H1900 0.984 . S
N1895 H1901 0.985 . S
C1896 C1890 1.379 . S
C1896 C1893 1.363 . S
C1896 N1894 1.356 . S
C1897 C1891 1.363 . S
C1897 C1892 1.379 . S
C1897 N1895 1.356 . S
N1898 C1890 1.356 . S
N1898 H1904 0.984 . S
N1898 H1905 0.984 . S
N1899 C1892 1.356 . S
N1899 H1902 0.984 . S
N1899 H1903 0.985 . S
H1900 N1895 0.984 . S
H1901 N1895 0.985 . S
H1902 N1899 0.984 . S
H1903 N1899 0.985 . S
H1904 N1898 0.984 . S
H1905 N1898 0.984 . S
H1906 N1894 0.984 . S
H1907 N1894 0.985 . S
C1908 C1909 1.363 . S
C1908 C1914 1.379 . S
C1908 N1916 1.356 . S
C1909 C1908 1.363 . S
C1909 C1915 1.363 . S
C1910 C1911 1.363 . S
C1910 C1915 1.379 . S
C1910 N1917 1.356 . S
C1911 C1910 1.363 . S
C1911 C1914 1.363 . S
N1912 C1914 1.356 . S
N1912 H1924 0.984 . S
N1912 H1925 0.985 . S
N1913 C1915 1.356 . S
N1913 H1918 0.984 . S
N1913 H1919 0.985 . S
C1914 C1908 1.379 . S
C1914 C1911 1.363 . S
C1914 N1912 1.356 . S
C1915 C1909 1.363 . S
C1915 C1910 1.379 . S
C1915 N1913 1.356 . S
N1916 C1908 1.356 . S
N1916 H1922 0.984 . S
N1916 H1923 0.984 . S
N1917 C1910 1.356 . S
N1917 H1920 0.984 . S
N1917 H1921 0.985 . S
H1918 N1913 0.984 . S
H1919 N1913 0.985 . S
H1920 N1917 0.984 . S
H1921 N1917 0.985 . S
H1922 N1916 0.984 . S
H1923 N1916 0.984 . S
H1924 N1912 0.984 . S
H1925 N1912 0.985 . S
C1926 C1927 1.363 . S
C1926 C1932 1.379 . S
C1926 N1934 1.356 . S
C1927 C1926 1.363 . S
C1927 C1933 1.363 . S
C1928 C1929 1.363 . S
C1928 C1933 1.379 . S
C1928 N1935 1.356 . S
C1929 C1928 1.363 . S
C1929 C1932 1.363 . S
N1930 C1932 1.356 . S
N1930 H1942 0.984 . S
N1930 H1943 0.985 . S
N1931 C1933 1.356 1_554 S
N1931 H1936 0.984 . S
N1931 H1937 0.985 . S
C1932 C1926 1.379 . S
C1932 C1929 1.363 . S
C1932 N1930 1.356 . S
C1933 C1927 1.363 . S
C1933 C1928 1.379 . S
C1933 N1931 1.356 1_556 S
N1934 C1926 1.356 . S
N1934 H1940 0.984 . S
N1934 H1941 0.984 . S
N1935 C1928 1.356 . S
N1935 H1938 0.984 . S
N1935 H1939 0.985 . S
H1936 N1931 0.984 . S
H1937 N1931 0.985 . S
H1938 N1935 0.984 . S
H1939 N1935 0.985 . S
H1940 N1934 0.984 . S
H1941 N1934 0.984 . S
H1942 N1930 0.984 . S
H1943 N1930 0.985 . S
C1944 C1945 1.363 . S
C1944 C1950 1.379 . S
C1944 N1952 1.356 . S
C1945 C1944 1.363 . S
C1945 C1951 1.363 . S
C1946 C1947 1.363 . S
C1946 C1951 1.379 . S
C1946 N1953 1.356 1_556 S
C1947 C1946 1.363 . S
C1947 C1950 1.363 . S
N1948 C1950 1.356 . S
N1948 H1960 0.984 . S
N1948 H1961 0.985 . S
N1949 C1951 1.356 . S
N1949 H1954 0.984 . S
N1949 H1955 0.985 . S
C1950 C1944 1.379 . S
C1950 C1947 1.363 . S
C1950 N1948 1.356 . S
C1951 C1945 1.363 . S
C1951 C1946 1.379 . S
C1951 N1949 1.356 . S
N1952 C1944 1.356 . S
N1952 H1958 0.984 . S
N1952 H1959 0.984 . S
N1953 C1946 1.356 1_554 S
N1953 H1956 0.984 . S
N1953 H1957 0.985 . S
H1954 N1949 0.984 . S
H1955 N1949 0.985 . S
H1956 N1953 0.984 . S
H1957 N1953 0.985 . S
H1958 N1952 0.984 . S
H1959 N1952 0.984 . S
H1960 N1948 0.984 . S
H1961 N1948 0.985 . S
C1962 C1963 1.363 . S
C1962 C1968 1.379 . S
C1962 N1970 1.356 . S
C1963 C1962 1.363 . S
C1963 C1969 1.363 . S
C1964 C1965 1.363 . S
C1964 C1969 1.379 . S
C1964 N1971 1.356 . S
C1965 C1964 1.363 . S
C1965 C1968 1.363 . S
N1966 C1968 1.356 . S
N1966 H1978 0.984 . S
N1966 H1979 0.985 . S
N1967 C1969 1.356 . S
N1967 H1972 0.984 . S
N1967 H1973 0.985 . S
C1968 C1962 1.379 . S
C1968 C1965 1.363 . S
C1968 N1966 1.356 . S
C1969 C1963 1.363 . S
C1969 C1964 1.379 . S
C1969 N1967 1.356 . S
N1970 C1962 1.356 . S
N1970 H1976 0.984 . S
N1970 H1977 0.984 . S
N1971 C1964 1.356 . S
N1971 H1974 0.984 . S
N1971 H1975 0.985 . S
H1972 N1967 0.984 . S
H1973 N1967 0.985 . S
H1974 N1971 0.984 . S
H1975 N1971 0.985 . S
H1976 N1970 0.984 . S
H1977 N1970 0.984 . S
H1978 N1966 0.984 . S
H1979 N1966 0.985 . S
C1980 C1981 1.363 . S
C1980 C1986 1.379 . S
C1980 N1988 1.356 . S
C1981 C1980 1.363 . S
C1981 C1987 1.363 . S
C1982 C1983 1.363 . S
C1982 C1987 1.379 . S
C1982 N1989 1.356 . S
C1983 C1982 1.363 . S
C1983 C1986 1.363 . S
N1984 C1986 1.356 . S
N1984 H1996 0.984 . S
N1984 H1997 0.985 . S
N1985 C1987 1.356 . S
N1985 H1990 0.984 . S
N1985 H1991 0.985 . S
C1986 C1980 1.379 . S
C1986 C1983 1.363 . S
C1986 N1984 1.356 . S
C1987 C1981 1.363 . S
C1987 C1982 1.379 . S
C1987 N1985 1.356 . S
N1988 C1980 1.356 . S
N1988 H1994 0.984 . S
N1988 H1995 0.984 . S
N1989 C1982 1.356 . S
N1989 H1992 0.984 . S
N1989 H1993 0.985 . S
H1990 N1985 0.984 . S
H1991 N1985 0.985 . S
H1992 N1989 0.984 . S
H1993 N1989 0.985 . S
H1994 N1988 0.984 . S
H1995 N1988 0.984 . S
H1996 N1984 0.984 . S
H1997 N1984 0.985 . S
C1998 C1999 1.363 . S
C1998 C2004 1.379 . S
C1998 N2006 1.356 . S
C1999 C1998 1.363 . S
C1999 C2005 1.363 . S
C2000 C2001 1.363 . S
C2000 C2005 1.379 . S
C2000 N2007 1.356 . S
C2001 C2000 1.363 . S
C2001 C2004 1.363 . S
N2002 C2004 1.356 . S
N2002 H2014 0.984 . S
N2002 H2015 0.985 . S
N2003 C2005 1.356 . S
N2003 H2008 0.984 . S
N2003 H2009 0.985 . S
C2004 C1998 1.379 . S
C2004 C2001 1.363 . S
C2004 N2002 1.356 . S
C2005 C1999 1.363 . S
C2005 C2000 1.379 . S
C2005 N2003 1.356 . S
N2006 C1998 1.356 . S
N2006 H2012 0.984 . S
N2006 H2013 0.984 . S
N2007 C2000 1.356 . S
N2007 H2010 0.984 . S
N2007 H2011 0.985 . S
H2008 N2003 0.984 . S
H2009 N2003 0.985 . S
H2010 N2007 0.984 . S
H2011 N2007 0.985 . S
H2012 N2006 0.984 . S
H2013 N2006 0.984 . S
H2014 N2002 0.984 . S
H2015 N2002 0.985 . S
C2016 C2017 1.363 . S
C2016 C2022 1.379 . S
C2016 N2024 1.356 . S
C2017 C2016 1.363 . S
C2017 C2023 1.363 . S
C2018 C2019 1.363 . S
C2018 C2023 1.379 . S
C2018 N2025 1.356 . S
C2019 C2018 1.363 . S
C2019 C2022 1.363 . S
N2020 C2022 1.356 . S
N2020 H2032 0.984 . S
N2020 H2033 0.985 . S
N2021 C2023 1.356 . S
N2021 H2026 0.984 . S
N2021 H2027 0.985 . S
C2022 C2016 1.379 . S
C2022 C2019 1.363 . S
C2022 N2020 1.356 . S
C2023 C2017 1.363 . S
C2023 C2018 1.379 . S
C2023 N2021 1.356 . S
N2024 C2016 1.356 . S
N2024 H2030 0.984 . S
N2024 H2031 0.984 . S
N2025 C2018 1.356 . S
N2025 H2028 0.984 . S
N2025 H2029 0.985 . S
H2026 N2021 0.984 . S
H2027 N2021 0.985 . S
H2028 N2025 0.984 . S
H2029 N2025 0.985 . S
H2030 N2024 0.984 . S
H2031 N2024 0.984 . S
H2032 N2020 0.984 . S
H2033 N2020 0.985 . S
C2034 C2035 1.363 1_565 S
C2034 C2040 1.379 . S
C2034 N2042 1.357 1_565 S
C2035 C2034 1.363 1_545 S
C2035 C2041 1.363 . S
C2036 C2037 1.363 1_545 S
C2036 C2041 1.379 . S
C2036 N2043 1.357 1_545 S
C2037 C2036 1.363 1_565 S
C2037 C2040 1.363 . S
N2038 C2040 1.356 . S
N2038 H2050 0.984 . S
N2038 H2051 0.985 . S
N2039 C2041 1.356 . S
N2039 H2044 0.984 . S
N2039 H2045 0.985 . S
C2040 C2034 1.379 . S
C2040 C2037 1.363 . S
C2040 N2038 1.356 . S
C2041 C2035 1.363 . S
C2041 C2036 1.379 . S
C2041 N2039 1.356 . S
N2042 C2034 1.357 1_545 S
N2042 H2048 0.987 1_545 S
N2042 H2049 0.982 . S
N2043 C2036 1.357 1_565 S
N2043 H2046 0.982 . S
N2043 H2047 0.987 1_565 S
H2044 N2039 0.984 . S
H2045 N2039 0.985 . S
H2046 N2043 0.982 . S
H2047 N2043 0.987 1_545 S
H2048 N2042 0.987 1_565 S
H2049 N2042 0.982 . S
H2050 N2038 0.984 . S
H2051 N2038 0.985 . S
C2052 C2053 1.363 . S
C2052 C2058 1.379 . S
C2052 N2060 1.356 . S
C2053 C2052 1.363 . S
C2053 C2059 1.363 1_655 S
C2054 C2055 1.363 . S
C2054 C2059 1.379 . S
C2054 N2061 1.356 . S
C2055 C2054 1.363 . S
C2055 C2058 1.363 1_455 S
N2056 C2058 1.356 1_455 S
N2056 H2068 0.981 1_455 S
N2056 H2069 0.989 . S
N2057 C2059 1.356 1_655 S
N2057 H2062 0.989 . S
N2057 H2063 0.980 1_655 S
C2058 C2052 1.379 . S
C2058 C2055 1.363 1_655 S
C2058 N2056 1.356 1_655 S
C2059 C2053 1.363 1_455 S
C2059 C2054 1.379 . S
C2059 N2057 1.356 1_455 S
N2060 C2052 1.356 . S
N2060 H2066 0.984 . S
N2060 H2067 0.984 . S
N2061 C2054 1.356 . S
N2061 H2064 0.984 . S
N2061 H2065 0.985 . S
H2062 N2057 0.989 . S
H2063 N2057 0.980 1_455 S
H2064 N2061 0.984 . S
H2065 N2061 0.985 . S
H2066 N2060 0.984 . S
H2067 N2060 0.984 . S
H2068 N2056 0.981 1_655 S
H2069 N2056 0.989 . S
C2070 C2071 1.363 . S
C2070 C2076 1.379 . S
C2070 N2078 1.356 . S
C2071 C2070 1.363 . S
C2071 C2077 1.363 . S
C2072 C2073 1.363 . S
C2072 C2077 1.379 . S
C2072 N2079 1.356 . S
C2073 C2072 1.363 . S
C2073 C2076 1.363 . S
N2074 C2076 1.356 . S
N2074 H2086 0.984 . S
N2074 H2087 0.985 . S
N2075 C2077 1.356 . S
N2075 H2080 0.984 . S
N2075 H2081 0.985 . S
C2076 C2070 1.379 . S
C2076 C2073 1.363 . S
C2076 N2074 1.356 . S
C2077 C2071 1.363 . S
C2077 C2072 1.379 . S
C2077 N2075 1.356 . S
N2078 C2070 1.356 . S
N2078 H2084 0.984 . S
N2078 H2085 0.984 . S
N2079 C2072 1.356 . S
N2079 H2082 0.984 . S
N2079 H2083 0.985 . S
H2080 N2075 0.984 . S
H2081 N2075 0.985 . S
H2082 N2079 0.984 . S
H2083 N2079 0.985 . S
H2084 N2078 0.984 . S
H2085 N2078 0.984 . S
H2086 N2074 0.984 . S
H2087 N2074 0.985 . S
C2088 C2089 1.363 . S
C2088 C2094 1.388 . S
C2088 N2096 1.356 . S
C2089 C2088 1.363 . S
C2089 C2095 1.357 1_545 S
C2090 C2091 1.363 . S
C2090 C2095 1.388 . S
C2090 N2097 1.356 . S
C2091 C2090 1.363 . S
C2091 C2094 1.357 1_565 S
N2092 C2094 1.350 1_565 S
N2092 H2104 0.984 1_565 S
N2092 H2105 0.985 . S
N2093 C2095 1.350 1_545 S
N2093 H2098 0.984 . S
N2093 H2099 0.985 1_545 S
C2094 C2088 1.388 . S
C2094 C2091 1.357 1_545 S
C2094 N2092 1.350 1_545 S
C2095 C2089 1.357 1_565 S
C2095 C2090 1.388 . S
C2095 N2093 1.350 1_565 S
N2096 C2088 1.356 . S
N2096 H2102 0.984 . S
N2096 H2103 0.984 . S
N2097 C2090 1.356 . S
N2097 H2100 0.984 . S
N2097 H2101 0.985 . S
H2098 N2093 0.984 . S
H2099 N2093 0.985 1_565 S
H2100 N2097 0.984 . S
H2101 N2097 0.985 . S
H2102 N2096 0.984 . S
H2103 N2096 0.984 . S
H2104 N2092 0.984 1_545 S
H2105 N2092 0.985 . S
C2106 C2107 1.363 1_655 S
C2106 C2112 1.379 . S
C2106 N2114 1.356 1_655 S
C2107 C2106 1.363 1_455 S
C2107 C2113 1.363 . S
C2108 C2109 1.363 1_455 S
C2108 C2113 1.379 . S
C2108 N2115 1.356 1_455 S
C2109 C2108 1.363 1_655 S
C2109 C2112 1.363 . S
N2110 C2112 1.356 . S
N2110 H2122 0.984 . S
N2110 H2123 0.985 . S
N2111 C2113 1.356 . S
N2111 H2116 0.984 . S
N2111 H2117 0.985 . S
C2112 C2106 1.379 . S
C2112 C2109 1.363 . S
C2112 N2110 1.356 . S
C2113 C2107 1.363 . S
C2113 C2108 1.379 . S
C2113 N2111 1.356 . S
N2114 C2106 1.356 1_455 S
N2114 H2120 0.982 1_455 S
N2114 H2121 0.988 . S
N2115 C2108 1.356 1_655 S
N2115 H2118 0.987 . S
N2115 H2119 0.982 1_655 S
H2116 N2111 0.984 . S
H2117 N2111 0.985 . S
H2118 N2115 0.987 . S
H2119 N2115 0.982 1_455 S
H2120 N2114 0.982 1_655 S
H2121 N2114 0.988 . S
H2122 N2110 0.984 . S
H2123 N2110 0.985 . S
C829 N117 1.461 . S
C831 N2 1.461 . S
C847 N71 1.461 . S
C849 N25 1.461 . S
C865 N48 1.461 . S
C867 N94 1.461 . S
C883 N140 1.461 . S
C885 N255 1.461 . S
C901 N163 1.461 . S
C903 N209 1.461 . S
C919 N232 1.461 . S
C921 N186 1.461 . S
C937 N278 1.461 . S
C939 N393 1.461 1_455 S
C955 N301 1.461 . S
C957 N347 1.461 . S
C973 N370 1.461 1_565 S
C975 N324 1.461 . S
C991 N531 1.461 . S
C993 N416 1.461 . S
C1009 N485 1.461 . S
C1011 N439 1.461 1_565 S
C1027 N462 1.461 1_455 S
C1029 N508 1.461 . S
C1045 N669 1.461 . S
C1047 N554 1.461 . S
C1063 N623 1.461 . S
C1065 N577 1.461 1_545 S
C1081 N600 1.461 1_655 S
C1083 N646 1.461 . S
C1099 N807 1.461 1_655 S
C1101 N692 1.461 . S
C1117 N761 1.461 . S
C1119 N715 1.461 . S
C1135 N784 1.461 1_545 S
C1137 N738 1.461 . S
C1153 C375 1.633 . S
C1155 C7 1.633 . S
C1171 C398 1.633 . S
C1173 C30 1.633 . S
C1189 C352 1.633 . S
C1191 C53 1.633 . S
C1207 C76 1.633 . S
C1209 C605 1.633 1_554 S
C1225 C99 1.633 . S
C1227 C559 1.633 1_554 S
C1243 C122 1.633 . S
C1245 C582 1.633 1_554 S
C1261 C145 1.633 . S
C1263 C789 1.633 . S
C1279 C812 1.633 . S
C1281 C168 1.633 . S
C1297 C766 1.633 . S
C1299 C191 1.633 . S
C1315 C467 1.633 1_556 S
C1317 C214 1.633 . S
C1333 C421 1.633 1_556 S
C1335 C237 1.633 . S
C1351 C260 1.633 . S
C1353 C444 1.633 1_556 S
C1369 C283 1.633 . S
C1371 C651 1.633 . S
C1387 C674 1.633 . S
C1389 C306 1.633 . S
C1405 C628 1.633 . S
C1407 C329 1.633 . S
C1423 C490 1.633 . S
C1425 C743 1.633 . S
C1441 C697 1.633 . S
C1443 C513 1.633 . S
C1459 C536 1.633 . S
C1461 C720 1.633 . S
C1477 N426 2.630 . S
C1479 N12 2.630 . S
C1495 N449 2.630 . S
C1497 N35 2.630 . S
C1513 N58 2.630 . S
C1515 N472 2.630 . S
C1531 N81 2.630 . S
C1533 N771 2.630 . S
C1549 N794 2.630 . S
C1551 N104 2.630 . S
C1567 N817 2.630 . S
C1569 N127 2.630 . S
C1585 N150 2.630 . S
C1587 N564 2.630 . S
C1603 N173 2.630 . S
C1605 N587 2.630 . S
C1621 N610 2.630 . S
C1623 N196 2.630 . S
C1639 N219 2.630 . S
C1641 N357 2.630 . S
C1657 N242 2.630 . S
C1659 N380 2.630 . S
C1675 N403 2.630 . S
C1677 N265 2.630 . S
C1693 N288 2.630 . S
C1695 N702 2.630 . S
C1711 N311 2.630 . S
C1713 N725 2.630 . S
C1729 N748 2.630 . S
C1731 N334 2.630 . S
C1747 N633 2.630 . S
C1749 N495 2.630 . S
C1765 N518 2.630 . S
C1767 N656 2.630 . S
C1783 N541 2.630 . S
C1785 N679 2.630 . S
C1801 C637 1.904 1_554 S
C1803 C16 1.904 . S
C1819 C39 1.904 . S
C1821 C660 1.904 1_554 S
C1837 C683 1.904 1_554 S
C1839 C62 1.904 . S
C1855 C85 1.904 . S
C1857 C292 1.904 . S
C1873 C315 1.904 . S
C1875 C108 1.904 . S
C1891 C338 1.904 . S
C1893 C131 1.904 . S
C1909 C154 1.904 . S
C1911 C499 1.904 1_556 S
C1927 C522 1.904 1_556 S
C1929 C177 1.904 . S
C1945 C200 1.904 . S
C1947 C545 1.904 1_556 S
C1963 C223 1.904 . S
C1965 C706 1.904 . S
C1981 C246 1.904 . S
C1983 C729 1.904 . S
C1999 C752 1.904 . S
C2001 C269 1.904 . S
C2017 C361 1.904 . S
C2019 C568 1.904 . S
C2035 C384 1.904 . S
C2037 C591 1.904 . S
C2053 C407 1.904 . S
C2055 C614 1.904 . S
C2071 C430 1.904 . S
C2073 C775 1.904 . S
C2089 C453 1.904 . S
C2091 C798 1.904 . S
C2107 C821 1.904 . S
C2109 C476 1.904 . S
