# Generated by pormake.
# Topology sxc, (6)-cn, num edge types: 1
# Building blocks:
#     Node 0, Type 0, BuildingBlock: KUMBUR_clean_sbu_1, # of connection points: 6
#     Node 1, Type 0, BuildingBlock: KUMBUR_clean_sbu_1, # of connection points: 6
#     Node 2, Type 0, BuildingBlock: KUMBUR_clean_sbu_1, # of connection points: 6
#     Edge 3, Type (0, 0), BuildingBlock: MIFKUJ_clean_linker_0, # of connection points: 2
#     Edge 4, Type (0, 0), BuildingBlock: MIFKUJ_clean_linker_0, # of connection points: 2
#     Edge 5, Type (0, 0), BuildingBlock: MIFKUJ_clean_linker_0, # of connection points: 2
#     Edge 6, Type (0, 0), BuildingBlock: MIFKUJ_clean_linker_0, # of connection points: 2
#     Edge 7, Type (0, 0), BuildingBlock: MIFKUJ_clean_linker_0, # of connection points: 2
#     Edge 8, Type (0, 0), BuildingBlock: MIFKUJ_clean_linker_0, # of connection points: 2
#     Edge 9, Type (0, 0), BuildingBlock: MIFKUJ_clean_linker_0, # of connection points: 2
#     Edge 10, Type (0, 0), BuildingBlock: MIFKUJ_clean_linker_0, # of connection points: 2
#     Edge 11, Type (0, 0), BuildingBlock: MIFKUJ_clean_linker_0, # of connection points: 2
# Relax obj value: 0.177
# Max RMSD: 0.147
# Mean RMSD: 0.105
data_MOF--net-sxc--node1-KUMBUR_clean_sbu_1--edge1-MIFKUJ_clean_linker_0
_symmetry_space_group_name_H-M    P1
_symmetry_Int_Tables_number       1
_symmetry_cell_setting            triclinic
loop_
_symmetry_equiv_pos_as_xyz
'x, y, z'
_cell_length_a     20.352227
_cell_length_b     22.579287
_cell_length_c     58.430028
_cell_angle_alpha  108.24905
_cell_angle_beta   96.578432
_cell_angle_gamma 103.94709
loop_
_atom_site_label
_atom_site_type_symbol
_atom_site_fract_x
_atom_site_fract_y
_atom_site_fract_z
_atom_type_partial_charge
Tb0 Tb 0.94923 0.12048 -0.00908 0.0
C1 C 0.23975 0.10055 0.01463 0.0
N2 N 0.19443 0.1228 0.02793 0.0
C3 C 0.2256 0.07547 0.05748 0.0
C4 C 0.27692 0.06151 0.02153 0.0
C5 C 0.18961 0.11378 0.04983 0.0
C6 C 0.26858 0.04831 0.04307 0.0
C7 C 0.29779 0.09803 0.98054 0.0
C8 C 0.24985 0.11864 -0.00557 0.0
C9 C 0.33239 0.05631 0.98654 0.0
C10 C 0.32211 0.03822 0.00703 0.0
Tb11 Tb 0.14156 0.18806 0.01467 0.0
N12 N 0.21692 0.16056 0.98966 0.0
C13 C 0.3119 0.12239 0.9618 0.0
C14 C 0.23574 0.18904 0.97295 0.0
C15 C 0.28183 0.16919 0.95837 0.0
H16 H 0.15711 0.13529 0.06112 0.0
H17 H 0.29546 0.19134 0.94495 0.0
H18 H 0.94355 0.16995 0.94324 0.0
H19 H 0.79954 0.1428 0.06286 0.0
H20 H 0.21725 0.22875 0.97135 0.0
H21 H 0.34844 0.10786 0.95073 0.0
H22 H 0.87659 0.09755 0.03792 0.0
H23 H 0.22068 0.06744 0.07458 0.0
H24 H 0.36891 0.03951 0.97594 0.0
H25 H 0.35056 1.00749 0.01185 0.0
H26 H 0.88564 0.23815 0.92764 0.0
H27 H 0.29629 1.01858 0.04904 0.0
H28 H 0.74595 0.22094 0.05257 0.0
N29 N 0.90107 0.18506 0.97542 0.0
C30 C 0.85463 0.20927 0.98755 0.0
C31 C 0.87698 0.23091 0.94463 0.0
C32 C 0.81992 0.24802 0.97922 0.0
C33 C 0.91021 0.19274 0.95359 0.0
C34 C 0.83219 0.25925 0.95762 0.0
N35 N 0.87587 0.15621 0.01551 0.0
C36 C 0.85808 0.13498 0.03412 0.0
C37 C 0.79585 0.22065 0.02177 0.0
C38 C 0.84319 0.19587 0.00862 0.0
C39 C 0.78198 0.20297 0.042 0.0
C40 C 0.81242 0.15916 0.04795 0.0
H41 H 0.80672 0.28898 0.95067 0.0
H42 H 0.74765 0.30469 0.98671 0.0
H43 H 0.72629 0.28049 0.0239 0.0
O44 O 0.8492 0.05511 0.98281 0.0
O45 O 0.99042 0.23699 -4e-05 0.0
O46 O 0.10918 0.27302 0.00621 0.0
O47 O 0.90649 0.05801 0.95434 0.0
O48 O 0.98388 0.11148 0.02604 0.0
O49 O 0.0702 0.20441 0.03962 0.0
O50 O 0.24133 0.25498 0.02489 0.0
O51 O 0.10166 0.07182 0.00613 0.0
O52 O 0.98263 1.03532 -0.00099 0.0
O53 O 0.17835 0.24981 0.05162 0.0
O54 O 0.1045 0.19395 0.97904 0.0
O55 O 1.01976 0.09994 0.96602 0.0
C56 C 0.04855 0.28763 0.0035 0.0
C57 C 0.84212 0.95393 0.95283 0.0
C58 C 0.78677 0.84978 0.95684 0.0
C59 C 0.82805 0.82051 0.94196 0.0
C60 C 0.88231 0.92327 0.93773 0.0
C61 C 0.87516 0.85706 0.93237 0.0
C62 C 0.79374 0.91648 0.96204 0.0
C63 C 1.02938 0.1575 0.04427 0.0
C64 C 0.85348 1.02529 0.9603 0.0
C65 C 0.77437 0.2743 -0.00731 0.0
C66 C 0.76243 0.26072 0.01392 0.0
C67 C 0.04338 1.02103 0.00224 0.0
C68 C 0.24395 0.35498 0.05468 0.0
C69 C 0.29947 0.46009 0.05144 0.0
C70 C 0.25762 0.48856 0.06628 0.0
C71 C 0.20325 0.38482 0.06977 0.0
C72 C 0.29266 0.39332 0.04587 0.0
C73 C 0.21017 0.45112 0.07548 0.0
C74 C 0.06174 0.14511 0.96089 0.0
C75 C 0.23318 0.28368 0.04696 0.0
H76 H 0.82338 0.76916 0.93751 0.0
H77 H 0.92009 0.95048 0.93031 0.0
H78 H 0.90662 0.83405 0.92087 0.0
H79 H 0.76299 0.9397 0.97388 0.0
H80 H 0.26213 0.53995 0.071 0.0
H81 H 0.16532 0.35691 0.07693 0.0
H82 H 0.32389 0.37076 0.03407 0.0
H83 H 0.17832 0.47351 0.08697 0.0
Tb84 Tb 0.05209 1.03184 0.31948 0.0
C85 C 0.26162 0.28995 0.36335 0.0
N86 N 0.21454 0.24739 0.36988 0.0
C87 C 0.30241 0.25233 0.40208 0.0
C88 C 0.3318 0.31319 0.37539 0.0
C89 C 0.23342 0.23035 0.38954 0.0
C90 C 0.35194 0.29348 0.39485 0.0
C91 C 0.28762 0.34955 0.33578 0.0
C92 C 0.23967 0.30795 0.34375 0.0
C93 C 0.3576 0.37274 0.34773 0.0
C94 C 0.37961 0.35466 0.36748 0.0
Tb95 Tb 0.10362 0.21785 0.34841 0.0
N96 N 0.17167 0.28393 0.33232 0.0
C97 C 0.26385 0.36646 0.31597 0.0
C98 C 0.14795 0.30171 0.31338 0.0
C99 C 0.19372 0.34264 0.30482 0.0
H100 H 0.19576 0.20036 0.39581 0.0
H101 H 0.17472 0.35625 0.28978 0.0
H102 H 0.94392 1.02952 0.27178 0.0
H103 H 1.02959 0.88223 0.37609 0.0
H104 H 0.09356 0.28593 0.30515 0.0
H105 H 0.29906 0.39826 0.30927 0.0
H106 H 0.09222 0.96134 0.35927 0.0
H107 H 0.31727 0.23785 0.41743 0.0
H108 H 0.39516 0.40465 0.34181 0.0
H109 H 0.43379 0.37281 0.37645 0.0
H110 H 0.82082 0.97555 0.25164 0.0
H111 H 0.4054 0.31018 0.40455 0.0
H112 H 0.90358 0.82933 0.36053 0.0
N113 N 0.93978 0.98503 0.29894 0.0
C114 C 0.90154 0.93991 0.30686 0.0
C115 C 0.84282 0.9655 0.26728 0.0
C116 C 0.83126 0.90771 0.29587 0.0
C117 C 0.91249 0.99622 0.27877 0.0
C118 C 0.80182 0.92163 0.27603 0.0
N119 N 1.00205 0.95637 0.33549 0.0
C120 C 1.03698 0.93999 0.35283 0.0
C121 C 0.89583 0.87952 0.33475 0.0
C122 C 0.93343 0.92611 0.32607 0.0
C123 C 0.93073 0.86464 0.3533 0.0
C124 C 1.00176 0.89448 0.36218 0.0
H125 H 0.7479 0.89799 0.26709 0.0
H126 H 0.73875 0.83754 0.29682 0.0
H127 H 0.79531 0.81278 0.33083 0.0
O128 O 0.05297 0.93513 0.30316 0.0
O129 O 0.96205 0.07119 0.32863 0.0
O130 O 0.98991 0.1806 0.33327 0.0
O131 O 0.105 1.00947 0.29033 0.0
O132 O 0.09936 0.07104 0.35894 0.0
O133 O 0.0594 0.15937 0.3697 0.0
O134 O 0.09166 0.31162 0.35654 0.0
O135 O 0.18273 0.16975 0.33282 0.0
O136 O 0.16029 0.07504 0.34059 0.0
O137 O 0.09959 0.26904 0.38471 0.0
O138 O 0.04552 0.18441 0.31064 0.0
O139 O 0.07145 0.08794 0.29487 0.0
C140 C 0.94368 0.12528 0.33099 0.0
C141 C 0.16307 0.93362 0.29461 0.0
C142 C 0.23976 0.90004 0.31998 0.0
C143 C 0.28945 0.90798 0.30558 0.0
C144 C 0.21361 0.94283 0.28056 0.0
C145 C 0.27639 0.92973 0.286 0.0
C146 C 0.17678 0.91185 0.31409 0.0
C147 C 0.07921 0.11384 0.37532 0.0
C148 C 0.09816 0.95066 0.29039 0.0
C149 C 0.79301 0.8625 0.3049 0.0
C150 C 0.8252 0.84848 0.3243 0.0
C151 C 0.20466 0.12188 0.33645 0.0
C152 C 1.02895 0.33837 0.38753 0.0
C153 C 0.97997 0.42779 0.40177 0.0
C154 C 0.91629 0.38359 0.39995 0.0
C155 C 0.96562 0.29393 0.38613 0.0
C156 C 1.03602 0.40487 0.39577 0.0
C157 C 0.90958 0.31671 0.39248 0.0
C158 C 0.05473 0.1384 0.29214 0.0
C159 C 0.08743 0.3174 0.37914 0.0
H160 H 0.3382 0.89826 0.30966 0.0
H161 H 0.20476 0.96051 0.2656 0.0
H162 H 0.31514 0.93683 0.2751 0.0
H163 H 0.13816 0.90374 0.32494 0.0
H164 H 0.87203 0.40066 0.40393 0.0
H165 H 0.95922 0.242 0.37979 0.0
H166 H 0.08457 0.43895 0.39632 0.0
H167 H 0.86051 0.28239 0.39105 0.0
Tb168 Tb 0.1395 0.19955 0.68135 0.0
C169 C 0.17675 0.93441 0.63704 0.0
N170 N 0.14496 0.97373 0.62948 0.0
C171 C 0.19272 0.95224 0.59309 0.0
C172 C 0.22003 0.90454 0.62326 0.0
C173 C 0.15057 0.9811 0.60742 0.0
C174 C 0.2277 0.91392 0.60106 0.0
C175 C 0.2011 0.88681 0.66785 0.0
C176 C 0.16678 0.92505 0.65899 0.0
C177 C 0.24459 0.85739 0.65422 0.0
C178 C 0.25374 0.86595 0.63195 0.0
Tb179 Tb 0.0711 1.01035 0.65312 0.0
N180 N 0.12482 0.95479 0.6719 0.0
C181 C 0.19082 0.87937 0.69018 0.0
C182 C 0.11329 0.94621 0.6934 0.0
C183 C 0.14657 0.90902 0.70295 0.0
H184 H 0.12048 1.00646 0.60012 0.0
H185 H 0.13731 0.90253 0.72 0.0
H186 H 0.05428 0.20893 0.72673 0.0
H187 H 0.18204 0.34366 0.62321 0.0
H188 H 0.07692 0.96594 0.70296 0.0
H189 H 0.21628 0.8504 0.6976 0.0
H190 H 0.20344 0.2645 0.64195 0.0
H191 H 0.19689 0.9583 0.5756 0.0
H192 H 0.27127 0.82775 0.66072 0.0
H193 H 0.287 0.84246 0.62158 0.0
H194 H 0.97435 0.26856 0.74454 0.0
H195 H 0.25911 0.89059 0.58966 0.0
H196 H 0.09573 0.40163 0.63571 0.0
N197 N 0.06383 0.25037 0.69885 0.0
C198 C 0.04961 0.29578 0.68996 0.0
C199 C 0.99462 0.27616 0.72902 0.0
C200 C 1.00469 0.33128 0.69957 0.0
C201 C 1.03959 0.24216 0.71884 0.0
C202 C 0.9766 0.32049 0.7192 0.0
N203 N 0.12669 0.27389 0.66356 0.0
C204 C 0.16378 0.28754 0.64683 0.0
C205 C 0.06835 0.35382 0.66161 0.0
C206 C 0.08115 0.30698 0.67135 0.0
C207 C 0.10397 0.36594 0.64365 0.0
C208 C 0.1525 0.33316 0.63645 0.0
H209 H 0.94234 0.34719 0.72723 0.0
H210 H 0.95527 0.40423 0.69651 0.0
H211 H 1.01095 0.42391 0.6632 0.0
O212 O 0.21788 0.28948 0.69421 0.0
O213 O 1.02262 0.16241 0.67048 0.0
O214 O 0.98663 0.05216 0.66494 0.0
O215 O 0.20041 0.23035 0.71674 0.0
O216 O 0.14681 0.15564 0.64296 0.0
O217 O 0.05271 0.06512 0.62884 0.0
O218 O 1.00763 0.91935 0.6509 0.0
O219 O 0.18673 0.057 0.66861 0.0
O220 O 0.21331 0.15462 0.66251 0.0
O221 O 1.0081 0.94718 0.61894 0.0
O222 O 0.04933 0.04901 0.68978 0.0
O223 O 0.14302 0.13851 0.70413 0.0
C224 C 0.97292 0.10814 0.66734 0.0
C225 C 0.31686 0.28289 0.71762 0.0
C226 C 0.4344 0.33217 0.7141 0.0
C227 C 0.45691 0.28622 0.72193 0.0
C228 C 0.34059 0.23766 0.72565 0.0
C229 C 0.41018 0.23946 0.72775 0.0
C230 C 0.36426 0.33013 0.71206 0.0
C231 C 0.09585 0.11335 0.62521 0.0
C232 C 0.24265 0.27942 0.71373 0.0
C233 C 0.99016 0.37681 0.68952 0.0
C234 C 1.02181 0.38796 0.67053 0.0
C235 C 0.23304 0.10576 0.66583 0.0
C236 C 0.90111 0.88721 0.62364 0.0
C237 C 0.79295 0.81783 0.62684 0.0
C238 C 0.75692 0.85601 0.61886 0.0
C239 C 0.8643 0.92496 0.61571 0.0
C240 C 0.86505 0.83354 0.62896 0.0
C241 C 0.79251 0.90905 0.61322 0.0
C242 C 0.09137 0.09844 0.70824 0.0
C243 C 0.97725 0.90553 0.62829 0.0
H244 H 0.51062 0.28672 0.72373 0.0
H245 H 0.30542 0.20025 0.72997 0.0
H246 H 0.42785 0.20412 0.73372 0.0
H247 H 0.34596 0.3643 0.70545 0.0
H248 H 0.70131 0.84487 0.61699 0.0
H249 H 0.89094 0.96733 0.61184 0.0
H250 H 0.89373 0.80557 0.63572 0.0
H251 H 0.76449 0.93851 0.60725 0.0
H252 H 0.93837 0.35498 0.0031 0.0
H253 H 0.93669 0.46334 0.00347 0.0
H254 H 0.15394 0.51486 0.00479 0.0
H255 H 0.15553 0.40617 0.00508 0.0
H256 H 0.15163 0.63356 0.01946 0.0
H257 H 0.95664 0.49194 0.95331 0.0
H258 H 0.84459 0.40647 0.93494 0.0
H259 H 0.75124 0.51235 -0.01002 0.0
H260 H 0.86296 0.59801 0.00884 0.0
H261 H 0.15375 0.95436 0.00363 0.0
H262 H 0.15525 0.84611 0.00346 0.0
H263 H 0.93727 0.7938 0.00077 0.0
H264 H 0.93592 0.90237 0.00027 0.0
H265 H 0.93967 0.67566 0.98698 0.0
H266 H 0.1306 0.81611 0.05332 0.0
H267 H 0.2412 0.90284 0.07291 0.0
H268 H 0.34085 0.80062 0.01927 0.0
H269 H 0.23057 0.71371 -0.0008 0.0
C270 C 0.98689 0.38746 0.00305 0.0
C271 C 0.04676 0.363 0.00353 0.0
C272 C 0.986 0.4536 0.00307 0.0
C273 C 0.04477 0.50618 0.00331 0.0
C274 C 0.10496 0.48191 0.00428 0.0
C275 C 0.10588 0.41579 0.00437 0.0
C276 C 0.04425 0.58206 0.00295 0.0
C277 C 0.10391 0.64007 0.01186 0.0
C278 C 0.98532 0.60162 -0.00599 0.0
C279 C 0.91821 0.55089 0.98262 0.0
C280 C 0.9122 0.49684 0.9615 0.0
C281 C 0.8488 0.44837 0.95103 0.0
C282 C 0.79088 0.45389 0.96134 0.0
C283 C 0.79618 0.50805 0.98207 0.0
C284 C 0.85952 0.55654 -0.00733 0.0
C285 C 0.10501 0.92168 0.00338 0.0
C286 C 0.04501 0.94583 0.00242 0.0
C287 C 0.10577 0.85564 0.00349 0.0
C288 C 0.04672 0.80288 0.00294 0.0
C289 C 0.98645 0.82689 0.00155 0.0
C290 C 0.98565 0.89292 0.00132 0.0
C291 C 0.04711 0.72704 0.00337 0.0
C292 C 0.98744 0.66909 -0.0055 0.0
C293 C 0.1059 0.70764 0.01251 0.0
C294 C 0.17228 0.75892 0.02462 0.0
C295 C 0.17613 0.81229 0.0457 0.0
C296 C 0.23871 0.86147 0.05687 0.0
C297 C 0.29801 0.85732 0.0473 0.0
C298 C 0.29487 0.80383 0.02662 0.0
C299 C 0.23234 0.75462 0.01533 0.0
H300 H 0.3464 0.89547 0.05593 0.0
H301 H 0.74188 0.41627 0.95324 0.0
H302 H 0.30955 0.20496 0.32438 0.0
H303 H 0.43015 0.20735 0.32465 0.0
H304 H 0.39574 0.03829 0.34614 0.0
H305 H 0.27601 0.03962 0.34785 0.0
H306 H 0.51841 0.09872 0.3665 0.0
H307 H 0.41718 0.04797 0.28244 0.0
H308 H 0.35221 0.06219 0.24721 0.0
H309 H 0.5013 0.24758 0.26249 0.0
H310 H 0.5667 0.23483 0.29802 0.0
H311 H 0.83362 1.02986 0.33522 0.0
H312 H 0.71282 1.02802 0.33572 0.0
H313 H 0.75591 0.21629 0.32811 0.0
H314 H 0.87682 0.21787 0.32732 0.0
H315 H 0.62955 0.14425 0.30023 0.0
H316 H 0.73198 0.18855 0.38443 0.0
H317 H 0.79586 0.1669 0.41792 0.0
H318 H 0.64164 0.98279 0.39976 0.0
H319 H 0.57734 1.00292 0.3659 0.0
C320 C 0.32721 0.16839 0.32943 0.0
C321 C 0.28066 0.1219 0.33605 0.0
C322 C 0.39733 0.169 0.32915 0.0
C323 C 0.42491 0.12176 0.33466 0.0
C324 C 0.3784 0.07565 0.34155 0.0
C325 C 0.3085 0.07591 0.3423 0.0
C326 C 0.50098 0.12076 0.33342 0.0
C327 C 0.54154 0.10784 0.35166 0.0
C328 C 0.53496 0.13324 0.31453 0.0
C329 C 0.49647 0.1407 0.29301 0.0
C330 C 0.43594 0.09188 0.27833 0.0
C331 C 0.39904 0.09969 0.25832 0.0
C332 C 0.42253 0.15582 0.25265 0.0
C333 C 0.48313 0.20416 0.26692 0.0
C334 C 0.52017 0.19666 0.28699 0.0
C335 C 0.81785 0.07087 0.33339 0.0
C336 C 0.86712 0.12374 0.33098 0.0
C337 C 0.74772 0.07013 0.33396 0.0
C338 C 0.7226 0.1223 0.3322 0.0
C339 C 0.77165 0.17482 0.3295 0.0
C340 C 0.84194 0.17577 0.32911 0.0
C341 C 0.64649 0.12238 0.33328 0.0
C342 C 0.60608 0.13511 0.31501 0.0
C343 C 0.61234 0.10861 0.35188 0.0
C344 C 0.65017 0.097 0.3725 0.0
C345 C 0.71187 0.1433 0.3875 0.0
C346 C 0.74815 0.1313 0.40655 0.0
C347 C 0.7229 0.07344 0.41093 0.0
C348 C 0.66117 1.02756 0.39633 0.0
C349 C 0.62476 0.03925 0.37721 0.0
H350 H 0.7511 0.0642 0.42567 0.0
H351 H 0.39386 0.16182 0.23716 0.0
H352 H 0.81025 0.69634 0.61594 0.0
H353 H 0.75708 0.61059 0.6311 0.0
H354 H 0.64028 0.73122 0.66948 0.0
H355 H 0.69447 0.81776 0.65487 0.0
H356 H 0.70397 0.6793 0.69872 0.0
H357 H 0.56275 0.60308 0.61709 0.0
H358 H 0.54126 0.56954 0.57182 0.0
H359 H 0.63522 0.4164 0.56766 0.0
H360 H 0.65811 0.44961 0.61296 0.0
H361 H 0.44229 0.46065 0.72528 0.0
H362 H 0.51336 0.53931 0.7109 0.0
H363 H 0.60931 0.39542 0.67417 0.0
H364 H 0.53611 0.31527 0.6878 0.0
H365 H 0.56789 0.45471 0.64425 0.0
H366 H 0.70025 0.52424 0.72551 0.0
H367 H 0.72116 0.55673 0.77072 0.0
H368 H 0.64577 0.72146 0.77583 0.0
H369 H 0.62344 0.68946 0.73061 0.0
C370 C 0.77313 0.70448 0.62758 0.0
C371 C 0.75649 0.76373 0.63423 0.0
C372 C 0.74254 0.65535 0.63609 0.0
C373 C 0.69462 0.66454 0.65133 0.0
C374 C 0.6772 0.72325 0.65773 0.0
C375 C 0.70764 0.77234 0.64918 0.0
C376 C 0.66392 0.61374 0.6612 0.0
C377 C 0.67362 0.63034 0.68684 0.0
C378 C 0.6266 0.54929 0.64565 0.0
C379 C 0.61285 0.52931 0.61843 0.0
C380 C 0.57939 0.56262 0.60654 0.0
C381 C 0.56683 0.54359 0.58087 0.0
C382 C 0.58705 0.491 0.56688 0.0
C383 C 0.6197 0.4572 0.57853 0.0
C384 C 0.63243 0.47608 0.60419 0.0
C385 C 0.47847 0.44564 0.71414 0.0
C386 C 0.48301 0.38153 0.70746 0.0
C387 C 0.51965 0.4909 0.70616 0.0
C388 C 0.56699 0.47338 0.69161 0.0
C389 C 0.57311 0.40991 0.68541 0.0
C390 C 0.53164 0.36437 0.69336 0.0
C391 C 0.60673 0.52061 0.68181 0.0
C392 C 0.5989 0.50339 0.65618 0.0
C393 C 0.64601 0.58447 0.69737 0.0
C394 C 0.65976 0.60417 0.72462 0.0
C395 C 0.68768 0.56715 0.73625 0.0
C396 C 0.69985 0.58552 0.76189 0.0
C397 C 0.6847 0.64106 0.77614 0.0
C398 C 0.65747 0.67844 0.76477 0.0
C399 C 0.64514 0.66026 0.73913 0.0
H400 H 0.69415 0.6552 0.79599 0.0
H401 H 0.57727 0.47633 0.54701 0.0
H402 H 0.91189 0.20643 0.66577 0.0
H403 H 0.79211 0.20827 0.66622 0.0
H404 H 0.73924 1.01525 0.66974 0.0
H405 H 0.85876 1.01335 0.66912 0.0
H406 H 0.6351 1.01461 0.64242 0.0
H407 H 0.75662 0.17584 0.72048 0.0
H408 H 0.84051 0.27602 0.75052 0.0
H409 H 0.75661 0.39205 0.71627 0.0
H410 H 0.67281 0.29253 0.68579 0.0
H411 H 0.30039 1.01631 0.67341 0.0
H412 H 0.42082 1.01661 0.67318 0.0
H413 H 0.4643 0.19871 0.66063 0.0
H414 H 0.34326 0.19755 0.66016 0.0
H415 H 0.57227 0.206 0.69277 0.0
H416 H 0.45748 0.0463 0.61367 0.0
H417 H 0.37457 0.94693 0.58284 0.0
H418 H 0.44479 0.82981 0.61996 0.0
H419 H 0.52876 0.92864 0.65091 0.0
C420 C 0.87539 0.16452 0.66699 0.0
C421 C 0.89752 0.11011 0.66771 0.0
C422 C 0.80561 0.16559 0.66732 0.0
C423 C 0.75383 0.11237 0.66851 0.0
C424 C 0.77596 0.0577 0.66891 0.0
C425 C 0.84561 0.05666 0.66859 0.0
C426 C 0.67733 0.11246 0.66868 0.0
C427 C 0.62233 0.05656 0.6539 0.0
C428 C 0.6571 0.16689 0.68286 0.0
C429 C 0.70899 0.22659 0.70064 0.0
C430 C 0.75656 0.22263 0.71916 0.0
C431 C 0.80393 0.27933 0.73634 0.0
C432 C 0.80389 0.34032 0.7353 0.0
C433 C 0.75664 0.34476 0.71704 0.0
C434 C 0.70921 0.28822 0.6998 0.0
C435 C 0.33468 0.05599 0.6701 0.0
C436 C 0.30932 0.10604 0.66624 0.0
C437 C 0.40487 0.05632 0.67006 0.0
C438 C 0.45416 0.10734 0.66657 0.0
C439 C 0.42925 0.15817 0.6633 0.0
C440 C 0.35882 0.15729 0.66294 0.0
C441 C 0.53078 0.1082 0.66665 0.0
C442 C 0.58553 0.16417 0.68143 0.0
C443 C 0.55095 0.05394 0.65256 0.0
C444 C 0.49879 0.99482 0.63471 0.0
C445 C 0.45477 0.9994 0.61538 0.0
C446 C 0.40791 0.94316 0.59781 0.0
C447 C 0.40434 0.88208 0.59946 0.0
C448 C 0.44768 0.87714 0.61869 0.0
C449 C 0.49508 0.93322 0.63621 0.0
H450 H 0.36791 0.83859 0.58585 0.0
H451 H 0.84053 0.38416 0.74865 0.0
H452 H 0.6528 0.84847 0.95846 0.0
H453 H 0.57053 0.78294 0.97491 0.0
H454 H 0.72654 0.69814 -0.00489 0.0
H455 H 0.80872 0.76305 0.97842 0.0
H456 H 0.60742 0.60669 0.97359 0.0
H457 H 0.67926 0.81718 0.03806 0.0
H458 H 0.6996 0.93606 0.05615 0.0
H459 H 0.483 0.91076 0.03404 0.0
H460 H 0.46164 0.79181 0.0154 0.0
H461 H 0.43371 0.46193 0.05016 0.0
H462 H 0.51635 0.52794 0.03399 0.0
H463 H 0.36081 0.61351 0.01401 0.0
H464 H 0.27827 0.54814 0.03044 0.0
H465 H 0.47983 0.70455 0.03545 0.0
H466 H 0.40769 0.49432 0.97104 0.0
H467 H 0.38692 0.3754 0.9528 0.0
H468 H 0.6035 0.39999 0.9745 0.0
H469 H 0.62535 0.51896 -0.00672 0.0
C470 C 0.66967 0.81627 0.96661 0.0
C471 C 0.73717 0.81091 0.96718 0.0
C472 C 0.62267 0.77889 0.97602 0.0
C473 C 0.6426 0.73618 0.98652 0.0
C474 C 0.71 0.73072 0.98709 0.0
C475 C 0.75684 0.76773 0.97751 0.0
C476 C 0.59278 0.6961 -0.00357 0.0
C477 C 0.58024 0.62815 0.98738 0.0
C478 C 0.556 0.724 0.01396 0.0
C479 C 0.56894 0.79561 0.02513 0.0
C480 C 0.63607 0.83701 0.03686 0.0
C481 C 0.64779 0.90442 0.04723 0.0
C482 C 0.59268 0.93098 0.04618 0.0
C483 C 0.52569 0.89017 0.0348 0.0
C484 C 0.51375 0.82275 0.02434 0.0
C485 C 0.41703 0.49445 0.04214 0.0
C486 C 0.34951 0.49979 0.04151 0.0
C487 C 0.46425 0.53209 0.03289 0.0
C488 C 0.44453 0.57507 0.02249 0.0
C489 C 0.37719 0.58068 0.02195 0.0
C490 C 0.33012 0.54342 0.03137 0.0
C491 C 0.49446 0.61512 0.0126 0.0
C492 C 0.50703 0.68307 0.02166 0.0
C493 C 0.53122 0.5872 -0.00494 0.0
C494 C 0.51805 0.51555 0.9838 0.0
C495 C 0.45079 0.47433 0.97213 0.0
C496 C 0.43883 0.4069 0.96167 0.0
C497 C 0.49381 0.38013 0.96255 0.0
C498 C 0.56091 0.42075 0.97387 0.0
C499 C 0.57312 0.48819 0.98443 0.0
H500 H 0.48443 0.32792 0.95442 0.0
H501 H 0.60186 0.98317 0.05424 0.0
H502 H 0.05601 0.53111 0.44195 0.0
H503 H 0.10795 0.64058 0.44156 0.0
H504 H 0.98357 0.5851 0.36895 0.0
H505 H 0.92958 0.47773 0.37006 0.0
H506 H 0.1873 0.65596 0.41102 0.0
H507 H 0.97411 0.71006 0.35256 0.0
H508 H 0.84891 0.69629 0.34786 0.0
H509 H 0.85877 0.70268 0.42242 0.0
H510 H 0.98423 0.71728 0.42773 0.0
H511 H 0.26551 0.7865 0.31864 0.0
H512 H 0.2354 0.73025 0.34731 0.0
H513 H 0.19852 0.90223 0.39556 0.0
H514 H 0.22907 0.95853 0.36704 0.0
H515 H 0.08366 0.79779 0.37821 0.0
H516 H 0.31798 0.84292 0.4174 0.0
H517 H 0.44137 0.85003 0.41914 0.0
H518 H 0.3877 0.64291 0.38164 0.0
H519 H 0.26394 0.63462 0.37933 0.0
C520 C 1.03694 0.54414 0.42667 0.0
C521 C 0.98825 0.49698 0.4062 0.0
C522 C 0.0673 0.6061 0.42626 0.0
C523 C 0.04985 0.62113 0.40523 0.0
C524 C 0.99689 0.57548 0.38564 0.0
C525 C 0.96563 0.51411 0.38629 0.0
C526 C 0.09334 0.6796 0.40199 0.0
C527 C 0.16483 0.68784 0.4043 0.0
C528 C 0.06403 0.72115 0.39324 0.0
C529 C 0.98881 0.71464 0.39052 0.0
C530 C 0.94978 0.709 0.36803 0.0
C531 C 0.87864 0.70078 0.36523 0.0
C532 C 0.84588 0.69845 0.3848 0.0
C533 C 0.88417 0.70426 0.40724 0.0
C534 C 0.95529 0.71235 0.41014 0.0
C535 C 0.25468 0.81328 0.33599 0.0
C536 C 0.24914 0.87646 0.34063 0.0
C537 C 0.23708 0.7811 0.35232 0.0
C538 C 0.21414 0.81202 0.37344 0.0
C539 C 0.21596 0.87758 0.37935 0.0
C540 C 0.23386 0.90976 0.36314 0.0
C541 C 0.17693 0.77269 0.38657 0.0
C542 C 0.10649 0.7676 0.38585 0.0
C543 C 0.20701 0.73363 0.39653 0.0
C544 C 0.28155 0.73822 0.39815 0.0
C545 C 0.33244 0.79892 0.40941 0.0
C546 C 0.40248 0.80315 0.41051 0.0
C547 C 0.42236 0.74697 0.4005 0.0
C548 C 0.37224 0.68639 0.38941 0.0
C549 C 0.30212 0.68189 0.38825 0.0
H550 H 0.47661 0.75036 0.40135 0.0
H551 H 0.79084 0.69226 0.3826 0.0
H552 H 0.13396 0.10085 0.25904 0.0
H553 H 0.13126 0.11027 0.21853 0.0
H554 H 0.96416 0.19681 0.22797 0.0
H555 H 0.9705 0.19145 0.26942 0.0
H556 H 0.0508 0.05854 0.17897 0.0
H557 H 0.94057 0.27436 0.19087 0.0
H558 H 0.9445 0.37928 0.22193 0.0
H559 H 0.1474 0.39623 0.25819 0.0
H560 H 0.14388 0.29039 0.22776 0.0
H561 H 0.95617 0.06266 0.05942 0.0
H562 H 0.95726 0.06331 0.1012 0.0
H563 H 0.1122 0.25101 0.12958 0.0
H564 H 0.10684 0.25299 0.08781 0.0
H565 H 1.03263 0.25317 0.15953 0.0
H566 H 0.14556 0.09282 0.12293 0.0
H567 H 0.15641 0.99406 0.09191 0.0
H568 H 0.97614 0.87725 0.10567 0.0
H569 H 0.96407 0.97507 0.13675 0.0
C570 C 0.09699 0.12245 0.25257 0.0
C571 C 0.05249 0.14548 0.26752 0.0
C572 C 0.09527 0.1277 0.22924 0.0
C573 C 0.04795 0.15489 0.21979 0.0
C574 C 1.00285 0.17744 0.23474 0.0
C575 C 1.00592 0.17381 0.25846 0.0
C576 C 0.04474 0.15687 0.19408 0.0
C577 C 0.04714 0.10146 0.17491 0.0
C578 C 1.04012 0.21238 0.1882 0.0
C579 C 0.04164 0.27433 0.20721 0.0
C580 C 0.98577 0.30027 0.20561 0.0
C581 C 0.98781 0.35968 0.22316 0.0
C582 C 0.04591 0.39401 0.24218 0.0
C583 C 0.10201 0.36892 0.24371 0.0
C584 C 0.09987 0.30909 0.22641 0.0
C585 C 0.98963 0.10478 0.07452 0.0
C586 C 1.03088 0.15812 0.07004 0.0
C587 C 0.99115 0.10456 0.09856 0.0
C588 C 1.03597 0.15654 0.11888 0.0
C589 C 0.0771 0.21004 0.11444 0.0
C590 C 0.07436 0.21097 0.0904 0.0
C591 C 1.03984 0.15534 0.14464 0.0
C592 C 1.03688 0.21054 0.16371 0.0
C593 C 0.04597 0.10027 0.15057 0.0
C594 C 0.05359 0.04136 0.13202 0.0
C595 C 0.10807 0.04611 0.11926 0.0
C596 C 0.11445 0.99035 0.10167 0.0
C597 C 0.06682 0.92961 0.09673 0.0
C598 C 1.01293 0.92436 0.10948 0.0
C599 C 1.0064 0.97989 0.12713 0.0
H600 H 0.07178 0.88658 0.08307 0.0
H601 H 0.04765 0.44025 0.25564 0.0
H602 H 0.14116 0.04603 0.39876 0.0
H603 H 0.14263 0.04773 0.44095 0.0
H604 H 1.02179 0.18329 0.45244 0.0
H605 H 1.02011 0.1818 0.41042 0.0
H606 H 0.11812 0.21979 0.49236 0.0
H607 H 0.94333 1.02346 0.44459 0.0
H608 H 0.8966 0.92093 0.40885 0.0
H609 H 0.05451 0.8465 0.43435 0.0
H610 H 0.10214 0.94869 0.47027 0.0
H611 H 0.98578 0.05318 0.58571 0.0
H612 H 0.98026 0.05463 0.54375 0.0
H613 H 0.19166 0.17701 0.56455 0.0
H614 H 0.19738 0.17557 0.60632 0.0
H615 H 0.04238 1.01288 0.5082 0.0
H616 H 0.21889 0.27877 0.53235 0.0
H617 H 0.24554 0.38683 0.56495 0.0
H618 H 0.05011 0.32843 0.585 0.0
H619 H 1.02202 0.22037 0.55239 0.0
C620 C 0.11407 0.0755 0.4101 0.0
C621 C 0.07962 0.11293 0.40087 0.0
C622 C 0.11523 0.07675 0.43438 0.0
C623 C 0.08186 0.11533 0.45008 0.0
C624 C 0.04822 0.15328 0.44094 0.0
C625 C 0.04703 0.15205 0.41673 0.0
C626 C 0.08068 0.11515 0.47577 0.0
C627 C 0.10208 0.17451 0.49582 0.0
C628 C 0.0571 0.05662 0.48049 0.0
C629 C 1.02632 0.99355 0.46 0.0
C630 C 0.96778 0.98499 0.44262 0.0
C631 C 0.94114 0.92706 0.42237 0.0
C632 C 0.97247 0.87734 0.4194 0.0
C633 C 1.03008 0.88501 0.43677 0.0
C634 C 0.05681 0.94283 0.45713 0.0
C635 C 1.03096 0.08082 0.58141 0.0
C636 C 0.09152 0.11554 0.59971 0.0
C637 C 1.02786 0.08139 0.5573 0.0
C638 C 0.08517 0.11672 0.5508 0.0
C639 C 0.14598 0.15063 0.56901 0.0
C640 C 0.14908 0.15009 0.59308 0.0
C641 C 0.08191 0.11763 0.52505 0.0
C642 C 0.05928 0.0583 0.50491 0.0
C643 C 0.10178 0.17661 0.52022 0.0
C644 C 0.11872 0.24125 0.54007 0.0
C645 C 0.18159 0.28905 0.5437 0.0
C646 C 0.19692 0.3503 0.56217 0.0
C647 C 0.14954 0.36448 0.57703 0.0
C648 C 0.0868 0.31737 0.57349 0.0
C649 C 0.07125 0.25605 0.55507 0.0
H650 H 0.16149 0.41192 0.59132 0.0
H651 H 0.95224 0.83322 0.40349 0.0
H652 H 0.99189 1.02363 0.72416 0.0
H653 H 0.98621 1.02963 0.76635 0.0
H654 H 0.17466 0.18948 0.7935 0.0
H655 H 0.18241 0.18157 0.75136 0.0
H656 H 0.18061 0.11666 0.81892 0.0
H657 H 1.00702 0.2085 0.79681 0.0
H658 H 0.90485 0.21338 0.77121 0.0
H659 H 0.77916 0.0457 0.78184 0.0
H660 H 0.8809 0.03916 0.80723 0.0
H661 H 0.13235 0.23689 0.9436 0.0
H662 H 0.1371 0.2265 0.90091 0.0
H663 H 0.99411 1.03324 0.87567 0.0
H664 H 0.99193 0.04181 0.91846 0.0
H665 H 0.96438 0.12268 0.84986 0.0
H666 H 0.14704 1.03706 0.87348 0.0
H667 H 0.25286 0.04119 0.8999 0.0
H668 H 0.36484 0.21246 0.88799 0.0
H669 H 0.25935 0.20993 0.86178 0.0
C670 C 1.03244 0.05988 0.73907 0.0
C671 C 0.08761 0.10211 0.73412 0.0
C672 C 1.02879 0.06369 0.76334 0.0
C673 C 0.07938 0.1108 0.78346 0.0
C674 C 0.13475 0.15266 0.77851 0.0
C675 C 0.13887 0.14834 0.75424 0.0
C676 C 0.0749 0.11639 0.80957 0.0
C677 C 0.13339 0.11875 0.82564 0.0
C678 C 1.01338 0.11865 0.81867 0.0
C679 C 0.95177 0.12294 0.80374 0.0
C680 C 0.95769 0.1724 0.79357 0.0
C681 C 0.89985 0.17549 0.7791 0.0
C682 C 0.83559 0.12978 0.77483 0.0
C683 C 0.829 0.08102 0.78512 0.0
C684 C 0.88674 0.07762 0.79958 0.0
C685 C 0.10313 0.19148 0.92909 0.0
C686 C 0.06332 0.13949 0.93471 0.0
C687 C 0.10526 0.18595 0.90459 0.0
C688 C 0.06628 0.12894 0.88498 0.0
C689 C 1.02475 0.0777 0.89043 0.0
C690 C 1.02373 0.08267 0.91498 0.0
C691 C 0.06983 0.12265 0.85889 0.0
C692 C 1.01131 0.12041 0.84296 0.0
C693 C 0.1317 0.12201 0.85006 0.0
C694 C 0.19513 0.12361 0.86583 0.0
C695 C 0.19406 0.07593 0.87666 0.0
C696 C 0.25403 0.07785 0.89153 0.0
C697 C 0.31556 0.12695 0.89556 0.0
C698 C 0.31718 0.17435 0.88479 0.0
C699 C 0.25732 0.17268 0.86992 0.0
H700 H 0.36193 0.12838 0.90709 0.0
H701 H 0.7909 0.13223 0.76359 0.0
loop_
_geom_bond_atom_site_label_1
_geom_bond_atom_site_label_2
_geom_bond_distance
_geom_bond_site_symmetry_2
_ccdc_geom_bond_type
Tb0 N29 2.617 1_554 S
Tb0 N35 2.572 . S
Tb0 O44 2.465 . S
Tb0 O45 2.387 . S
Tb0 O47 2.428 1_544 S
Tb0 O48 2.308 . S
Tb0 O52 2.349 . S
Tb0 O55 2.393 1_554 S
Tb0 C64 2.802 1_544 S
C1 N2 1.379 . S
C1 C4 1.416 . S
C1 C8 1.424 . S
N2 C1 1.379 . S
N2 C5 1.334 . S
N2 Tb11 2.617 . S
C3 C5 1.390 . S
C3 C6 1.339 . S
C3 H23 0.930 . S
C4 C1 1.416 . S
C4 C6 1.416 . S
C4 C10 1.448 . S
C5 N2 1.334 . S
C5 C3 1.390 . S
C5 H16 0.930 . S
C6 C3 1.339 . S
C6 C4 1.416 . S
C6 H27 0.930 . S
C7 C8 1.413 . S
C7 C9 1.427 . S
C7 C13 1.416 1_554 S
C8 C1 1.424 . S
C8 C7 1.413 . S
C8 N12 1.361 . S
C9 C7 1.427 . S
C9 C10 1.328 . S
C9 H24 0.929 . S
C10 C4 1.448 . S
C10 C9 1.328 . S
C10 H25 0.930 . S
Tb11 N2 2.617 . S
Tb11 N12 2.572 . S
Tb11 O46 2.349 . S
Tb11 O49 2.393 . S
Tb11 O50 2.465 . S
Tb11 O51 2.387 . S
Tb11 O53 2.428 . S
Tb11 O54 2.308 1_554 S
Tb11 C75 2.802 . S
N12 C8 1.361 . S
N12 Tb11 2.572 . S
N12 C14 1.340 1_554 S
C13 C7 1.416 1_556 S
C13 C15 1.332 . S
C13 H21 0.931 . S
C14 N12 1.340 1_556 S
C14 C15 1.407 . S
C14 H20 0.930 . S
C15 C13 1.332 . S
C15 C14 1.407 . S
C15 H17 0.929 . S
H16 C5 0.930 . S
H17 C15 0.929 . S
H18 C33 0.930 . S
H19 C40 0.929 . S
H20 C14 0.930 . S
H21 C13 0.931 . S
H22 C36 0.930 . S
H23 C3 0.930 . S
H24 C9 0.929 . S
H25 C10 0.930 . S
H26 C31 0.930 . S
H27 C6 0.930 . S
H28 C39 0.931 . S
N29 Tb0 2.617 1_556 S
N29 C30 1.379 . S
N29 C33 1.334 . S
C30 N29 1.379 . S
C30 C32 1.416 . S
C30 C38 1.424 1_556 S
C31 H26 0.930 . S
C31 C33 1.390 . S
C31 C34 1.339 . S
C32 C30 1.416 . S
C32 C34 1.416 . S
C32 C65 1.448 . S
C33 H18 0.930 . S
C33 N29 1.334 . S
C33 C31 1.390 . S
C34 C31 1.339 . S
C34 C32 1.416 . S
C34 H41 0.930 . S
N35 Tb0 2.572 . S
N35 C36 1.340 . S
N35 C38 1.361 . S
C36 H22 0.930 . S
C36 N35 1.340 . S
C36 C40 1.407 . S
C37 C38 1.413 . S
C37 C39 1.416 . S
C37 C66 1.427 1_554 S
C38 C30 1.424 1_554 S
C38 N35 1.361 . S
C38 C37 1.413 . S
C39 H28 0.931 . S
C39 C37 1.416 . S
C39 C40 1.332 . S
C40 H19 0.929 . S
C40 C36 1.407 . S
C40 C39 1.332 . S
H41 C34 0.930 . S
H42 C65 0.930 . S
H43 C66 0.929 . S
O44 Tb0 2.465 . S
O44 C64 1.264 1_544 S
O45 Tb0 2.387 . S
O45 C56 1.264 . S
O46 Tb11 2.349 . S
O46 C56 1.243 1_455 S
O47 Tb0 2.428 1_566 S
O47 C64 1.256 . S
O48 Tb0 2.308 . S
O48 C63 1.266 1_655 S
O49 Tb11 2.393 . S
O49 C63 1.248 . S
O50 Tb11 2.465 . S
O50 C75 1.264 . S
O51 Tb11 2.387 . S
O51 C67 1.264 . S
O52 Tb0 2.349 . S
O52 C67 1.243 1_655 S
O53 Tb11 2.428 . S
O53 C75 1.256 . S
O54 Tb11 2.308 1_556 S
O54 C74 1.266 . S
O55 Tb0 2.393 1_556 S
O55 C74 1.248 1_655 S
C56 O45 1.264 . S
C56 O46 1.243 1_655 S
C57 C60 1.399 . S
C57 C62 1.383 1_556 S
C57 C64 1.496 . S
C58 C59 1.399 1_554 S
C58 C62 1.389 . S
C59 C58 1.399 1_556 S
C59 C61 1.380 . S
C59 H76 0.929 . S
C60 C57 1.399 . S
C60 C61 1.392 . S
C60 H77 0.929 . S
C61 C59 1.380 . S
C61 C60 1.392 . S
C61 H78 0.929 . S
C62 C57 1.383 1_554 S
C62 C58 1.389 . S
C62 H79 0.931 . S
C63 O48 1.266 1_455 S
C63 O49 1.248 . S
C64 Tb0 2.802 1_566 S
C64 O44 1.264 1_566 S
C64 O47 1.256 . S
C64 C57 1.496 . S
C65 C32 1.448 . S
C65 H42 0.930 . S
C65 C66 1.328 . S
C66 C37 1.427 1_556 S
C66 H43 0.929 . S
C66 C65 1.328 . S
C67 O51 1.264 . S
C67 O52 1.243 1_455 S
C68 C71 1.399 . S
C68 C72 1.383 . S
C68 C75 1.496 . S
C69 C70 1.399 . S
C69 C72 1.389 . S
C70 C69 1.399 . S
C70 C73 1.380 . S
C70 H80 0.929 . S
C71 C68 1.399 . S
C71 C73 1.392 . S
C71 H81 0.929 . S
C72 C68 1.383 . S
C72 C69 1.389 . S
C72 H82 0.931 1_554 S
C73 C70 1.380 . S
C73 C71 1.392 . S
C73 H83 0.929 . S
C74 O54 1.266 . S
C74 O55 1.248 1_455 S
C75 Tb11 2.802 . S
C75 O50 1.264 . S
C75 O53 1.256 . S
C75 C68 1.496 . S
H76 C59 0.929 . S
H77 C60 0.929 . S
H78 C61 0.929 . S
H79 C62 0.931 . S
H80 C70 0.929 . S
H81 C71 0.929 . S
H82 C72 0.931 1_556 S
H83 C73 0.929 . S
Tb84 N113 2.617 1_545 S
Tb84 N119 2.572 1_545 S
Tb84 O128 2.465 1_645 S
Tb84 O129 2.387 . S
Tb84 O131 2.428 1_645 S
Tb84 O132 2.308 1_655 S
Tb84 O136 2.349 1_655 S
Tb84 O139 2.393 1_655 S
Tb84 C148 2.802 1_645 S
C85 N86 1.379 . S
C85 C88 1.416 . S
C85 C92 1.424 . S
N86 C85 1.379 . S
N86 C89 1.334 . S
N86 Tb95 2.617 . S
C87 C89 1.390 . S
C87 C90 1.339 . S
C87 H107 0.930 . S
C88 C85 1.416 . S
C88 C90 1.416 . S
C88 C94 1.448 . S
C89 N86 1.334 . S
C89 C87 1.390 . S
C89 H100 0.930 . S
C90 C87 1.339 . S
C90 C88 1.416 . S
C90 H111 0.930 . S
C91 C92 1.413 . S
C91 C93 1.427 . S
C91 C97 1.416 . S
C92 C85 1.424 . S
C92 C91 1.413 . S
C92 N96 1.361 . S
C93 C91 1.427 . S
C93 C94 1.328 . S
C93 H108 0.929 . S
C94 C88 1.448 . S
C94 C93 1.328 . S
C94 H109 0.930 . S
Tb95 N86 2.617 . S
Tb95 N96 2.572 . S
Tb95 O130 2.349 1_455 S
Tb95 O133 2.393 . S
Tb95 O134 2.465 . S
Tb95 O135 2.387 . S
Tb95 O137 2.428 . S
Tb95 O138 2.308 . S
Tb95 C159 2.802 . S
N96 C92 1.361 . S
N96 Tb95 2.572 . S
N96 C98 1.340 . S
C97 C91 1.416 . S
C97 C99 1.332 . S
C97 H105 0.931 . S
C98 N96 1.340 . S
C98 C99 1.407 . S
C98 H104 0.930 . S
C99 C97 1.332 . S
C99 C98 1.407 . S
C99 H101 0.929 . S
H100 C89 0.930 . S
H101 C99 0.929 . S
H102 C117 0.930 1_545 S
H103 C124 0.929 . S
H104 C98 0.930 . S
H105 C97 0.931 . S
H106 C120 0.930 1_545 S
H107 C87 0.930 . S
H108 C93 0.929 . S
H109 C94 0.930 . S
H110 C115 0.930 . S
H111 C90 0.930 . S
H112 C123 0.931 . S
N113 Tb84 2.617 1_565 S
N113 C114 1.379 . S
N113 C117 1.334 . S
C114 N113 1.379 . S
C114 C116 1.416 . S
C114 C122 1.424 . S
C115 H110 0.930 . S
C115 C117 1.390 . S
C115 C118 1.339 . S
C116 C114 1.416 . S
C116 C118 1.416 . S
C116 C149 1.448 . S
C117 H102 0.930 1_565 S
C117 N113 1.334 . S
C117 C115 1.390 . S
C118 C115 1.339 . S
C118 C116 1.416 . S
C118 H125 0.930 . S
N119 Tb84 2.572 1_565 S
N119 C120 1.340 . S
N119 C122 1.361 . S
C120 H106 0.930 1_565 S
C120 N119 1.340 . S
C120 C124 1.407 . S
C121 C122 1.413 . S
C121 C123 1.416 . S
C121 C150 1.427 . S
C122 C114 1.424 . S
C122 N119 1.361 . S
C122 C121 1.413 . S
C123 H112 0.931 . S
C123 C121 1.416 . S
C123 C124 1.332 . S
C124 H103 0.929 . S
C124 C120 1.407 . S
C124 C123 1.332 . S
H125 C118 0.930 . S
H126 C149 0.930 . S
H127 C150 0.929 . S
O128 Tb84 2.465 1_465 S
O128 C148 1.264 . S
O129 Tb84 2.387 . S
O129 C140 1.264 . S
O130 Tb95 2.349 1_655 S
O130 C140 1.243 . S
O131 Tb84 2.428 1_465 S
O131 C148 1.256 . S
O132 Tb84 2.308 1_455 S
O132 C147 1.266 . S
O133 Tb95 2.393 . S
O133 C147 1.248 . S
O134 Tb95 2.465 . S
O134 C159 1.264 . S
O135 Tb95 2.387 . S
O135 C151 1.264 . S
O136 Tb84 2.349 1_455 S
O136 C151 1.243 . S
O137 Tb95 2.428 . S
O137 C159 1.256 . S
O138 Tb95 2.308 . S
O138 C158 1.266 . S
O139 Tb84 2.393 1_455 S
O139 C158 1.248 . S
C140 O129 1.264 . S
C140 O130 1.243 . S
C141 C144 1.399 . S
C141 C146 1.383 . S
C141 C148 1.496 . S
C142 C143 1.399 . S
C142 C146 1.389 . S
C143 C142 1.399 . S
C143 C145 1.380 . S
C143 H160 0.929 . S
C144 C141 1.399 . S
C144 C145 1.392 . S
C144 H161 0.929 . S
C145 C143 1.380 . S
C145 C144 1.392 . S
C145 H162 0.929 . S
C146 C141 1.383 . S
C146 C142 1.389 . S
C146 H163 0.931 . S
C147 O132 1.266 . S
C147 O133 1.248 . S
C148 Tb84 2.802 1_465 S
C148 O128 1.264 . S
C148 O131 1.256 . S
C148 C141 1.496 . S
C149 C116 1.448 . S
C149 H126 0.930 . S
C149 C150 1.328 . S
C150 C121 1.427 . S
C150 H127 0.929 . S
C150 C149 1.328 . S
C151 O135 1.264 . S
C151 O136 1.243 . S
C152 C155 1.399 . S
C152 C156 1.383 . S
C152 C159 1.496 . S
C153 C154 1.399 . S
C153 C156 1.389 . S
C154 C153 1.399 . S
C154 C157 1.380 . S
C154 H164 0.938 . S
C155 C152 1.399 . S
C155 C157 1.392 . S
C155 H165 0.929 . S
C156 C152 1.383 . S
C156 C153 1.389 . S
C156 H166 0.931 . S
C157 C154 1.380 . S
C157 C155 1.392 . S
C157 H167 0.929 . S
C158 O138 1.266 . S
C158 O139 1.248 . S
C159 Tb95 2.802 . S
C159 O134 1.264 . S
C159 O137 1.256 . S
C159 C152 1.496 . S
H160 C143 0.929 . S
H161 C144 0.929 . S
H162 C145 0.929 . S
H163 C146 0.931 . S
H164 C154 0.938 . S
H165 C155 0.929 . S
H166 C156 0.931 . S
H167 C157 0.929 . S
Tb168 N197 2.617 . S
Tb168 N203 2.572 . S
Tb168 O212 2.465 . S
Tb168 O213 2.387 . S
Tb168 O215 2.428 . S
Tb168 O216 2.308 . S
Tb168 O220 2.349 . S
Tb168 O223 2.393 . S
Tb168 C232 2.802 . S
C169 N170 1.379 . S
C169 C172 1.416 . S
C169 C176 1.424 . S
N170 C169 1.379 . S
N170 C173 1.334 . S
N170 Tb179 2.617 . S
C171 C173 1.390 . S
C171 C174 1.339 . S
C171 H191 0.930 . S
C172 C169 1.416 . S
C172 C174 1.416 . S
C172 C178 1.448 . S
C173 N170 1.334 . S
C173 C171 1.390 . S
C173 H184 0.930 . S
C174 C171 1.339 . S
C174 C172 1.416 . S
C174 H195 0.930 . S
C175 C176 1.413 . S
C175 C177 1.427 . S
C175 C181 1.416 . S
C176 C169 1.424 . S
C176 C175 1.413 . S
C176 N180 1.361 . S
C177 C175 1.427 . S
C177 C178 1.328 . S
C177 H192 0.929 . S
C178 C172 1.448 . S
C178 C177 1.328 . S
C178 H193 0.930 . S
Tb179 N170 2.617 . S
Tb179 N180 2.572 . S
Tb179 O214 2.349 1_455 S
Tb179 O217 2.393 . S
Tb179 O218 2.465 1_455 S
Tb179 O219 2.387 . S
Tb179 O221 2.428 1_455 S
Tb179 O222 2.308 . S
Tb179 C243 2.802 1_455 S
N180 C176 1.361 . S
N180 Tb179 2.572 . S
N180 C182 1.340 . S
C181 C175 1.416 . S
C181 C183 1.332 . S
C181 H189 0.931 . S
C182 N180 1.340 . S
C182 C183 1.407 . S
C182 H188 0.930 . S
C183 C181 1.332 . S
C183 C182 1.407 . S
C183 H185 0.929 . S
H184 C173 0.930 . S
H185 C183 0.929 . S
H186 C201 0.930 . S
H187 C208 0.929 1_655 S
H188 C182 0.930 . S
H189 C181 0.931 . S
H190 C204 0.930 . S
H191 C171 0.930 . S
H192 C177 0.929 . S
H193 C178 0.930 . S
H194 C199 0.930 . S
H195 C174 0.930 . S
H196 C207 0.931 . S
N197 Tb168 2.617 . S
N197 C198 1.379 . S
N197 C201 1.334 . S
C198 N197 1.379 . S
C198 C200 1.416 . S
C198 C206 1.424 . S
C199 H194 0.930 . S
C199 C201 1.390 . S
C199 C202 1.339 . S
C200 C198 1.416 . S
C200 C202 1.416 . S
C200 C233 1.448 1_455 S
C201 H186 0.930 . S
C201 N197 1.334 . S
C201 C199 1.390 . S
C202 C199 1.339 . S
C202 C200 1.416 . S
C202 H209 0.930 . S
N203 Tb168 2.572 . S
N203 C204 1.340 . S
N203 C206 1.361 . S
C204 H190 0.930 . S
C204 N203 1.340 . S
C204 C208 1.407 . S
C205 C206 1.402 1_655 S
C205 C207 1.418 . S
C205 C234 1.435 . S
C206 C198 1.424 . S
C206 N203 1.361 . S
C206 C205 1.402 1_455 S
C207 H196 0.931 . S
C207 C205 1.418 . S
C207 C208 1.332 1_655 S
C208 H187 0.929 1_455 S
C208 C204 1.407 . S
C208 C207 1.332 1_455 S
H209 C202 0.930 . S
H210 C233 0.930 . S
H211 C234 0.929 . S
O212 Tb168 2.465 . S
O212 C232 1.264 . S
O213 Tb168 2.387 . S
O213 C224 1.264 1_455 S
O214 Tb179 2.349 1_655 S
O214 C224 1.243 1_565 S
O215 Tb168 2.428 . S
O215 C232 1.256 . S
O216 Tb168 2.308 . S
O216 C231 1.266 . S
O217 Tb179 2.393 . S
O217 C231 1.248 1_565 S
O218 Tb179 2.465 1_655 S
O218 C243 1.264 . S
O219 Tb179 2.387 . S
O219 C235 1.264 1_565 S
O220 Tb168 2.349 . S
O220 C235 1.243 . S
O221 Tb179 2.428 1_655 S
O221 C243 1.256 . S
O222 Tb179 2.308 . S
O222 C242 1.266 1_565 S
O223 Tb168 2.393 . S
O223 C242 1.248 . S
C224 O213 1.264 1_655 S
C224 O214 1.243 1_545 S
C225 C228 1.399 . S
C225 C230 1.383 . S
C225 C232 1.496 . S
C226 C227 1.399 . S
C226 C230 1.389 . S
C227 C226 1.399 . S
C227 C229 1.380 . S
C227 H244 0.929 . S
C228 C225 1.399 . S
C228 C229 1.392 . S
C228 H245 0.929 . S
C229 C227 1.380 . S
C229 C228 1.392 . S
C229 H246 0.929 . S
C230 C225 1.383 . S
C230 C226 1.389 . S
C230 H247 0.931 . S
C231 O216 1.266 . S
C231 O217 1.248 1_545 S
C232 Tb168 2.802 . S
C232 O212 1.264 . S
C232 O215 1.256 . S
C232 C225 1.496 . S
C233 C200 1.448 1_655 S
C233 H210 0.930 . S
C233 C234 1.328 . S
C234 C205 1.435 . S
C234 H211 0.929 . S
C234 C233 1.328 . S
C235 O219 1.264 1_545 S
C235 O220 1.243 . S
C236 C239 1.399 . S
C236 C240 1.383 . S
C236 C243 1.496 . S
C237 C238 1.399 . S
C237 C240 1.389 . S
C238 C237 1.399 . S
C238 C241 1.380 . S
C238 H248 0.929 . S
C239 C236 1.399 . S
C239 C241 1.392 . S
C239 H249 0.929 . S
C240 C236 1.383 . S
C240 C237 1.389 . S
C240 H250 0.931 . S
C241 C238 1.380 . S
C241 C239 1.392 . S
C241 H251 0.929 . S
C242 O222 1.266 1_545 S
C242 O223 1.248 . S
C243 Tb179 2.802 1_655 S
C243 O218 1.264 . S
C243 O221 1.256 . S
C243 C236 1.496 . S
H244 C227 0.929 . S
H245 C228 0.929 . S
H246 C229 0.929 . S
H247 C230 0.931 . S
H248 C238 0.929 . S
H249 C239 0.929 . S
H250 C240 0.931 . S
H251 C241 0.929 . S
H252 C270 0.951 . S
H253 C272 0.951 . S
H254 C274 0.950 . S
H255 C275 0.950 . S
H256 C277 0.950 . S
H257 C280 0.950 . S
H258 C281 0.950 . S
H259 C283 0.950 . S
H260 C284 0.950 1_554 S
H261 C285 0.968 . S
H262 C287 0.951 . S
H263 C289 0.950 . S
H264 C290 0.950 . S
H265 C292 0.950 1_556 S
H266 C295 0.950 . S
H267 C296 0.950 . S
H268 C298 0.950 . S
H269 C299 0.950 . S
C270 H252 0.951 . S
C270 C271 1.366 . S
C270 C272 1.388 . S
C271 C270 1.366 . S
C271 C275 1.385 1_655 S
C272 H253 0.951 . S
C272 C270 1.388 . S
C272 C273 1.376 . S
C273 C272 1.376 . S
C273 C274 1.400 1_655 S
C273 C276 1.502 1_655 S
C274 H254 0.950 . S
C274 C273 1.400 1_455 S
C274 C275 1.374 . S
C275 H255 0.950 . S
C275 C271 1.385 1_455 S
C275 C274 1.374 . S
C276 C273 1.502 1_455 S
C276 C277 1.373 . S
C276 C278 1.389 1_455 S
C277 H256 0.950 . S
C277 C276 1.373 . S
C277 C293 1.377 . S
C278 C276 1.389 1_655 S
C278 C279 1.524 1_554 S
C278 C292 1.377 . S
C279 C278 1.524 1_556 S
C279 C280 1.397 . S
C279 C284 1.363 . S
C280 H257 0.950 . S
C280 C279 1.397 . S
C280 C281 1.334 . S
C281 H258 0.950 . S
C281 C280 1.334 . S
C281 C282 1.287 . S
C282 C281 1.287 . S
C282 C283 1.524 . S
C282 H301 0.913 . S
C283 H259 0.950 . S
C283 C282 1.524 . S
C283 C284 1.415 . S
C284 H260 0.950 1_556 S
C284 C279 1.363 . S
C284 C283 1.415 . S
C285 H261 0.968 . S
C285 C286 1.366 . S
C285 C287 1.388 . S
C286 C285 1.366 . S
C286 C290 1.385 1_455 S
C287 H262 0.951 . S
C287 C285 1.388 . S
C287 C288 1.366 . S
C288 C287 1.366 . S
C288 C289 1.414 1_455 S
C288 C291 1.499 . S
C289 H263 0.950 . S
C289 C288 1.414 1_655 S
C289 C290 1.374 . S
C290 H264 0.950 . S
C290 C286 1.385 1_655 S
C290 C289 1.374 . S
C291 C288 1.499 . S
C291 C292 1.373 1_455 S
C291 C293 1.389 . S
C292 H265 0.950 1_554 S
C292 C278 1.377 . S
C292 C291 1.373 1_655 S
C293 C277 1.377 . S
C293 C291 1.389 . S
C293 C294 1.524 . S
C294 C293 1.524 . S
C294 C295 1.397 . S
C294 C299 1.363 . S
C295 H266 0.950 . S
C295 C294 1.397 . S
C295 C296 1.334 . S
C296 H267 0.950 . S
C296 C295 1.334 . S
C296 C297 1.287 . S
C297 C296 1.287 . S
C297 C298 1.524 . S
C297 H300 0.999 . S
C298 H268 0.950 . S
C298 C297 1.524 . S
C298 C299 1.415 . S
C299 H269 0.950 . S
C299 C294 1.363 . S
C299 C298 1.415 . S
H300 C297 0.999 . S
H301 C282 0.913 . S
H302 C320 0.951 . S
H303 C322 0.951 . S
H304 C324 0.950 . S
H305 C325 0.950 . S
H306 C327 0.950 . S
H307 C330 0.950 . S
H308 C331 0.950 1_565 S
H309 C333 0.950 . S
H310 C334 0.950 . S
H311 C335 0.951 . S
H312 C337 0.951 . S
H313 C339 0.950 . S
H314 C340 0.950 . S
H315 C342 0.950 . S
H316 C345 0.950 . S
H317 C346 0.950 . S
H318 C348 0.950 . S
H319 C349 0.950 . S
C320 H302 0.951 . S
C320 C321 1.366 . S
C320 C322 1.388 . S
C321 C320 1.366 . S
C321 C325 1.385 . S
C322 H303 0.951 . S
C322 C320 1.388 . S
C322 C323 1.366 . S
C323 C322 1.366 . S
C323 C324 1.414 . S
C323 C326 1.499 . S
C324 H304 0.950 . S
C324 C323 1.414 . S
C324 C325 1.374 . S
C325 H305 0.950 . S
C325 C321 1.385 . S
C325 C324 1.374 . S
C326 C323 1.499 . S
C326 C327 1.373 . S
C326 C328 1.389 . S
C327 H306 0.950 . S
C327 C326 1.373 . S
C327 C343 1.377 . S
C328 C326 1.389 . S
C328 C329 1.524 . S
C328 C342 1.377 . S
C329 C328 1.524 . S
C329 C330 1.397 . S
C329 C334 1.363 . S
C330 H307 0.950 . S
C330 C329 1.397 . S
C330 C331 1.334 . S
C331 H308 0.950 1_545 S
C331 C330 1.334 . S
C331 C332 1.287 . S
C332 C331 1.287 . S
C332 C333 1.524 . S
C332 H351 0.913 . S
C333 H309 0.950 . S
C333 C332 1.524 . S
C333 C334 1.415 . S
C334 H310 0.950 . S
C334 C329 1.363 . S
C334 C333 1.415 . S
C335 H311 0.951 . S
C335 C336 1.366 . S
C335 C337 1.388 . S
C336 C335 1.366 . S
C336 C340 1.385 . S
C337 H312 0.951 . S
C337 C335 1.388 . S
C337 C338 1.366 . S
C338 C337 1.366 . S
C338 C339 1.414 . S
C338 C341 1.499 . S
C339 H313 0.950 . S
C339 C338 1.414 . S
C339 C340 1.374 . S
C340 H314 0.950 . S
C340 C336 1.385 . S
C340 C339 1.374 . S
C341 C338 1.499 . S
C341 C342 1.373 . S
C341 C343 1.389 . S
C342 H315 0.950 . S
C342 C328 1.377 . S
C342 C341 1.373 . S
C343 C327 1.377 . S
C343 C341 1.389 . S
C343 C344 1.524 . S
C344 C343 1.524 . S
C344 C345 1.397 . S
C344 C349 1.363 . S
C345 H316 0.950 . S
C345 C344 1.397 . S
C345 C346 1.334 . S
C346 H317 0.950 . S
C346 C345 1.334 . S
C346 C347 1.287 . S
C347 C346 1.287 . S
C347 C348 1.524 . S
C347 H350 0.999 . S
C348 H318 0.950 . S
C348 C347 1.524 . S
C348 C349 1.415 . S
C349 H319 0.950 . S
C349 C344 1.363 . S
C349 C348 1.415 . S
H350 C347 0.999 . S
H351 C332 0.913 . S
H352 C370 0.951 . S
H353 C372 0.951 . S
H354 C374 0.950 . S
H355 C375 0.950 . S
H356 C377 0.950 . S
H357 C380 0.950 . S
H358 C381 0.950 . S
H359 C383 0.950 . S
H360 C384 0.950 . S
H361 C385 0.951 . S
H362 C387 0.951 . S
H363 C389 0.950 . S
H364 C390 0.950 . S
H365 C392 0.950 . S
H366 C395 0.950 . S
H367 C396 0.950 . S
H368 C398 0.950 . S
H369 C399 0.950 . S
C370 H352 0.951 . S
C370 C371 1.366 . S
C370 C372 1.388 . S
C371 C370 1.366 . S
C371 C375 1.385 . S
C372 H353 0.951 . S
C372 C370 1.388 . S
C372 C373 1.366 . S
C373 C372 1.366 . S
C373 C374 1.414 . S
C373 C376 1.499 . S
C374 H354 0.950 . S
C374 C373 1.414 . S
C374 C375 1.374 . S
C375 H355 0.950 . S
C375 C371 1.385 . S
C375 C374 1.374 . S
C376 C373 1.499 . S
C376 C377 1.373 . S
C376 C378 1.389 . S
C377 H356 0.950 . S
C377 C376 1.373 . S
C377 C393 1.377 . S
C378 C376 1.389 . S
C378 C379 1.524 . S
C378 C392 1.377 . S
C379 C378 1.524 . S
C379 C380 1.397 . S
C379 C384 1.363 . S
C380 H357 0.950 . S
C380 C379 1.397 . S
C380 C381 1.334 . S
C381 H358 0.950 . S
C381 C380 1.334 . S
C381 C382 1.287 . S
C382 C381 1.287 . S
C382 C383 1.524 . S
C382 H401 0.913 . S
C383 H359 0.950 . S
C383 C382 1.524 . S
C383 C384 1.415 . S
C384 H360 0.950 . S
C384 C379 1.363 . S
C384 C383 1.415 . S
C385 H361 0.951 . S
C385 C386 1.366 . S
C385 C387 1.388 . S
C386 C385 1.366 . S
C386 C390 1.385 . S
C387 H362 0.951 . S
C387 C385 1.388 . S
C387 C388 1.366 . S
C388 C387 1.366 . S
C388 C389 1.414 . S
C388 C391 1.499 . S
C389 H363 0.950 . S
C389 C388 1.414 . S
C389 C390 1.374 . S
C390 H364 0.950 . S
C390 C386 1.385 . S
C390 C389 1.374 . S
C391 C388 1.499 . S
C391 C392 1.373 . S
C391 C393 1.389 . S
C392 H365 0.950 . S
C392 C378 1.377 . S
C392 C391 1.373 . S
C393 C377 1.377 . S
C393 C391 1.389 . S
C393 C394 1.524 . S
C394 C393 1.524 . S
C394 C395 1.397 . S
C394 C399 1.363 . S
C395 H366 0.950 . S
C395 C394 1.397 . S
C395 C396 1.334 . S
C396 H367 0.950 . S
C396 C395 1.334 . S
C396 C397 1.287 . S
C397 C396 1.287 . S
C397 C398 1.524 . S
C397 H400 0.999 . S
C398 H368 0.950 . S
C398 C397 1.524 . S
C398 C399 1.415 . S
C399 H369 0.950 . S
C399 C394 1.363 . S
C399 C398 1.415 . S
H400 C397 0.999 . S
H401 C382 0.913 . S
H402 C420 0.951 . S
H403 C422 0.951 . S
H404 C424 0.950 . S
H405 C425 0.950 . S
H406 C427 0.950 . S
H407 C430 0.950 . S
H408 C431 0.950 . S
H409 C433 0.950 . S
H410 C434 0.950 . S
H411 C435 0.951 . S
H412 C437 0.951 . S
H413 C439 0.950 . S
H414 C440 0.950 . S
H415 C442 0.950 . S
H416 C445 0.950 . S
H417 C446 0.950 . S
H418 C448 0.950 . S
H419 C449 0.950 . S
C420 H402 0.951 . S
C420 C421 1.366 . S
C420 C422 1.388 . S
C421 C420 1.366 . S
C421 C425 1.385 1_545 S
C422 H403 0.951 . S
C422 C420 1.388 . S
C422 C423 1.366 . S
C423 C422 1.366 . S
C423 C424 1.414 1_545 S
C423 C426 1.499 . S
C424 H404 0.950 . S
C424 C423 1.414 1_565 S
C424 C425 1.374 . S
C425 H405 0.950 . S
C425 C421 1.385 1_565 S
C425 C424 1.374 . S
C426 C423 1.499 . S
C426 C427 1.373 1_545 S
C426 C428 1.389 . S
C427 H406 0.950 . S
C427 C426 1.373 1_565 S
C427 C443 1.377 . S
C428 C426 1.389 . S
C428 C429 1.524 . S
C428 C442 1.377 . S
C429 C428 1.524 . S
C429 C430 1.397 . S
C429 C434 1.363 . S
C430 H407 0.950 . S
C430 C429 1.397 . S
C430 C431 1.334 . S
C431 H408 0.950 . S
C431 C430 1.334 . S
C431 C432 1.287 . S
C432 C431 1.287 . S
C432 C433 1.524 . S
C432 H451 0.913 . S
C433 H409 0.950 . S
C433 C432 1.524 . S
C433 C434 1.415 . S
C434 H410 0.950 . S
C434 C429 1.363 . S
C434 C433 1.415 . S
C435 H411 0.951 . S
C435 C436 1.366 1_565 S
C435 C437 1.388 . S
C436 C435 1.366 1_545 S
C436 C440 1.385 . S
C437 H412 0.951 . S
C437 C435 1.388 . S
C437 C438 1.366 1_565 S
C438 C437 1.366 1_545 S
C438 C439 1.414 . S
C438 C441 1.499 . S
C439 H413 0.950 . S
C439 C438 1.414 . S
C439 C440 1.374 . S
C440 H414 0.950 . S
C440 C436 1.385 . S
C440 C439 1.374 . S
C441 C438 1.499 . S
C441 C442 1.373 . S
C441 C443 1.389 1_545 S
C442 H415 0.950 . S
C442 C428 1.377 . S
C442 C441 1.373 . S
C443 C427 1.377 . S
C443 C441 1.389 1_565 S
C443 C444 1.524 . S
C444 C443 1.524 . S
C444 C445 1.397 . S
C444 C449 1.363 . S
C445 H416 0.950 . S
C445 C444 1.397 . S
C445 C446 1.334 . S
C446 H417 0.950 . S
C446 C445 1.334 . S
C446 C447 1.287 . S
C447 C446 1.287 . S
C447 C448 1.524 . S
C447 H450 0.999 . S
C448 H418 0.950 . S
C448 C447 1.524 . S
C448 C449 1.415 . S
C449 H419 0.950 . S
C449 C444 1.363 . S
C449 C448 1.415 . S
H450 C447 0.999 . S
H451 C432 0.913 . S
H452 C470 0.951 . S
H453 C472 0.951 . S
H454 C474 0.950 1_556 S
H455 C475 0.935 1_556 S
H456 C477 0.950 . S
H457 C480 0.950 . S
H458 C481 0.950 . S
H459 C483 0.950 . S
H460 C484 0.950 . S
H461 C485 0.951 . S
H462 C487 0.951 . S
H463 C489 0.950 . S
H464 C490 0.950 . S
H465 C492 0.950 . S
H466 C495 0.950 . S
H467 C496 0.950 . S
H468 C498 0.950 . S
H469 C499 0.950 . S
C470 H452 0.951 . S
C470 C471 1.366 . S
C470 C472 1.388 . S
C471 C470 1.366 . S
C471 C475 1.385 . S
C472 H453 0.951 . S
C472 C470 1.388 . S
C472 C473 1.366 . S
C473 C472 1.366 . S
C473 C474 1.414 . S
C473 C476 1.499 . S
C474 H454 0.950 1_554 S
C474 C473 1.414 . S
C474 C475 1.374 . S
C475 H455 0.935 1_554 S
C475 C471 1.385 . S
C475 C474 1.374 . S
C476 C473 1.499 . S
C476 C477 1.373 1_554 S
C476 C478 1.389 . S
C477 H456 0.950 . S
C477 C476 1.373 1_556 S
C477 C493 1.377 . S
C478 C476 1.389 . S
C478 C479 1.524 . S
C478 C492 1.377 . S
C479 C478 1.524 . S
C479 C480 1.397 . S
C479 C484 1.363 . S
C480 H457 0.950 . S
C480 C479 1.397 . S
C480 C481 1.334 . S
C481 H458 0.950 . S
C481 C480 1.334 . S
C481 C482 1.287 . S
C482 C481 1.287 . S
C482 C483 1.524 . S
C482 H501 0.913 . S
C483 H459 0.950 . S
C483 C482 1.524 . S
C483 C484 1.415 . S
C484 H460 0.950 . S
C484 C479 1.363 . S
C484 C483 1.415 . S
C485 H461 0.951 . S
C485 C486 1.366 1_556 S
C485 C487 1.388 . S
C486 C485 1.366 1_554 S
C486 C490 1.385 . S
C487 H462 0.951 . S
C487 C485 1.388 . S
C487 C488 1.366 1_556 S
C488 C487 1.366 1_554 S
C488 C489 1.414 . S
C488 C491 1.499 . S
C489 H463 0.950 . S
C489 C488 1.414 . S
C489 C490 1.374 . S
C490 H464 0.950 . S
C490 C486 1.385 . S
C490 C489 1.374 . S
C491 C488 1.499 . S
C491 C492 1.373 . S
C491 C493 1.389 1_554 S
C492 H465 0.950 . S
C492 C478 1.377 . S
C492 C491 1.373 . S
C493 C477 1.377 . S
C493 C491 1.389 1_556 S
C493 C494 1.524 . S
C494 C493 1.524 . S
C494 C495 1.397 . S
C494 C499 1.363 . S
C495 H466 0.950 . S
C495 C494 1.397 . S
C495 C496 1.334 . S
C496 H467 0.950 . S
C496 C495 1.334 . S
C496 C497 1.287 . S
C497 C496 1.287 . S
C497 C498 1.524 . S
C497 H500 0.999 . S
C498 H468 0.950 . S
C498 C497 1.524 . S
C498 C499 1.415 . S
C499 H469 0.950 . S
C499 C494 1.363 . S
C499 C498 1.415 . S
H500 C497 0.999 . S
H501 C482 0.913 . S
H502 C520 0.951 . S
H503 C522 0.951 . S
H504 C524 0.950 . S
H505 C525 0.950 . S
H506 C527 0.950 . S
H507 C530 0.950 . S
H508 C531 0.950 . S
H509 C533 0.950 . S
H510 C534 0.950 . S
H511 C535 0.951 . S
H512 C537 0.951 . S
H513 C539 0.950 1_655 S
H514 C540 0.950 . S
H515 C542 0.950 . S
H516 C545 0.950 . S
H517 C546 0.950 . S
H518 C548 0.950 . S
H519 C549 0.950 . S
C520 H502 0.951 . S
C520 C521 1.366 . S
C520 C522 1.388 . S
C521 C520 1.366 . S
C521 C525 1.385 1_655 S
C522 H503 0.951 . S
C522 C520 1.388 . S
C522 C523 1.366 1_655 S
C523 C522 1.366 1_455 S
C523 C524 1.414 . S
C523 C526 1.499 . S
C524 H504 0.950 . S
C524 C523 1.414 . S
C524 C525 1.374 . S
C525 H505 0.950 . S
C525 C521 1.385 1_455 S
C525 C524 1.374 . S
C526 C523 1.499 . S
C526 C527 1.373 . S
C526 C528 1.389 1_455 S
C527 H506 0.950 . S
C527 C526 1.373 . S
C527 C543 1.377 . S
C528 C526 1.389 1_655 S
C528 C529 1.524 . S
C528 C542 1.377 . S
C529 C528 1.524 . S
C529 C530 1.397 . S
C529 C534 1.363 . S
C530 H507 0.950 . S
C530 C529 1.397 . S
C530 C531 1.334 . S
C531 H508 0.950 . S
C531 C530 1.334 . S
C531 C532 1.287 . S
C532 C531 1.287 . S
C532 C533 1.524 . S
C532 H551 0.913 . S
C533 H509 0.950 . S
C533 C532 1.524 . S
C533 C534 1.415 . S
C534 H510 0.950 . S
C534 C529 1.363 . S
C534 C533 1.415 . S
C535 H511 0.951 . S
C535 C536 1.366 . S
C535 C537 1.388 . S
C536 C535 1.366 . S
C536 C540 1.385 . S
C537 H512 0.951 . S
C537 C535 1.388 . S
C537 C538 1.366 . S
C538 C537 1.366 . S
C538 C539 1.414 . S
C538 C541 1.499 . S
C539 H513 0.950 1_455 S
C539 C538 1.414 . S
C539 C540 1.374 . S
C540 H514 0.950 . S
C540 C536 1.385 . S
C540 C539 1.374 . S
C541 C538 1.499 . S
C541 C542 1.373 1_455 S
C541 C543 1.389 . S
C542 H515 0.950 . S
C542 C528 1.377 . S
C542 C541 1.373 1_655 S
C543 C527 1.377 . S
C543 C541 1.389 . S
C543 C544 1.524 . S
C544 C543 1.524 . S
C544 C545 1.397 . S
C544 C549 1.363 . S
C545 H516 0.950 . S
C545 C544 1.397 . S
C545 C546 1.334 . S
C546 H517 0.950 . S
C546 C545 1.334 . S
C546 C547 1.287 . S
C547 C546 1.287 . S
C547 C548 1.524 . S
C547 H550 0.999 . S
C548 H518 0.950 . S
C548 C547 1.524 . S
C548 C549 1.415 . S
C549 H519 0.950 . S
C549 C544 1.363 . S
C549 C548 1.415 . S
H550 C547 0.999 . S
H551 C532 0.913 . S
H552 C570 0.951 . S
H553 C572 0.951 . S
H554 C574 0.950 . S
H555 C575 0.950 . S
H556 C577 0.950 . S
H557 C580 0.950 . S
H558 C581 0.950 . S
H559 C583 0.950 . S
H560 C584 0.950 . S
H561 C585 0.951 . S
H562 C587 0.951 . S
H563 C589 0.950 . S
H564 C590 0.950 . S
H565 C592 0.950 . S
H566 C595 0.950 . S
H567 C596 0.950 . S
H568 C598 0.950 . S
H569 C599 0.950 . S
C570 H552 0.951 . S
C570 C571 1.366 . S
C570 C572 1.388 . S
C571 C570 1.366 . S
C571 C575 1.385 1_455 S
C572 H553 0.951 . S
C572 C570 1.388 . S
C572 C573 1.366 . S
C573 C572 1.366 . S
C573 C574 1.414 1_455 S
C573 C576 1.499 . S
C574 H554 0.950 . S
C574 C573 1.414 1_655 S
C574 C575 1.374 . S
C575 H555 0.950 . S
C575 C571 1.385 1_655 S
C575 C574 1.374 . S
C576 C573 1.499 . S
C576 C577 1.373 . S
C576 C578 1.389 . S
C577 H556 0.950 . S
C577 C576 1.373 . S
C577 C593 1.377 . S
C578 C576 1.389 . S
C578 C579 1.524 1_455 S
C578 C592 1.377 . S
C579 C578 1.524 1_655 S
C579 C580 1.397 . S
C579 C584 1.363 1_655 S
C580 H557 0.950 . S
C580 C579 1.397 . S
C580 C581 1.334 . S
C581 H558 0.950 . S
C581 C580 1.334 . S
C581 C582 1.287 . S
C582 C581 1.287 . S
C582 C583 1.524 1_655 S
C582 H601 0.913 . S
C583 H559 0.950 . S
C583 C582 1.524 1_455 S
C583 C584 1.415 . S
C584 H560 0.950 . S
C584 C579 1.363 1_455 S
C584 C583 1.415 . S
C585 H561 0.951 . S
C585 C586 1.366 . S
C585 C587 1.388 . S
C586 C585 1.366 . S
C586 C590 1.385 1_655 S
C587 H562 0.951 . S
C587 C585 1.388 . S
C587 C588 1.366 1_655 S
C588 C587 1.366 1_455 S
C588 C589 1.414 . S
C588 C591 1.499 . S
C589 H563 0.950 . S
C589 C588 1.414 . S
C589 C590 1.374 . S
C590 H564 0.950 . S
C590 C586 1.385 1_455 S
C590 C589 1.374 . S
C591 C588 1.499 . S
C591 C592 1.373 . S
C591 C593 1.389 . S
C592 H565 0.950 . S
C592 C578 1.377 . S
C592 C591 1.373 . S
C593 C577 1.377 . S
C593 C591 1.389 . S
C593 C594 1.524 . S
C594 C593 1.524 . S
C594 C595 1.397 . S
C594 C599 1.363 1_445 S
C595 H566 0.950 . S
C595 C594 1.397 . S
C595 C596 1.334 . S
C596 H567 0.950 . S
C596 C595 1.334 . S
C596 C597 1.287 1_545 S
C597 C596 1.287 1_565 S
C597 C598 1.524 1_455 S
C597 H600 0.999 . S
C598 H568 0.950 . S
C598 C597 1.524 1_655 S
C598 C599 1.415 . S
C599 H569 0.950 . S
C599 C594 1.363 1_665 S
C599 C598 1.415 . S
H600 C597 0.999 . S
H601 C582 0.913 . S
H602 C620 0.951 . S
H603 C622 0.951 . S
H604 C624 0.950 1_655 S
H605 C625 0.950 . S
H606 C627 0.950 . S
H607 C630 0.950 . S
H608 C631 0.950 . S
H609 C633 0.950 . S
H610 C634 0.950 . S
H611 C635 0.955 . S
H612 C637 0.951 1_655 S
H613 C639 0.950 . S
H614 C640 0.950 . S
H615 C642 0.950 1_565 S
H616 C645 0.950 . S
H617 C646 0.950 . S
H618 C648 0.950 . S
H619 C649 0.950 1_655 S
C620 H602 0.951 . S
C620 C621 1.366 . S
C620 C622 1.388 . S
C621 C620 1.366 . S
C621 C625 1.385 1_455 S
C622 H603 0.951 . S
C622 C620 1.388 . S
C622 C623 1.366 . S
C623 C622 1.366 . S
C623 C624 1.414 . S
C623 C626 1.499 . S
C624 H604 0.950 1_455 S
C624 C623 1.414 . S
C624 C625 1.374 1_455 S
C625 H605 0.950 . S
C625 C621 1.385 1_655 S
C625 C624 1.374 1_655 S
C626 C623 1.499 . S
C626 C627 1.373 . S
C626 C628 1.389 . S
C627 H606 0.950 . S
C627 C626 1.373 . S
C627 C643 1.377 . S
C628 C626 1.389 . S
C628 C629 1.524 1_545 S
C628 C642 1.377 . S
C629 C628 1.524 1_565 S
C629 C630 1.397 1_455 S
C629 C634 1.363 . S
C630 H607 0.950 . S
C630 C629 1.397 1_655 S
C630 C631 1.334 . S
C631 H608 0.950 . S
C631 C630 1.334 . S
C631 C632 1.287 1_655 S
C632 C631 1.287 1_455 S
C632 C633 1.524 . S
C632 H651 0.913 . S
C633 H609 0.950 . S
C633 C632 1.524 . S
C633 C634 1.415 . S
C634 H610 0.950 . S
C634 C629 1.363 . S
C634 C633 1.415 . S
C635 H611 0.955 . S
C635 C636 1.366 . S
C635 C637 1.388 . S
C636 C635 1.366 . S
C636 C640 1.385 . S
C637 H612 0.951 1_455 S
C637 C635 1.388 . S
C637 C638 1.366 . S
C638 C637 1.366 . S
C638 C639 1.414 . S
C638 C641 1.499 . S
C639 H613 0.950 . S
C639 C638 1.414 . S
C639 C640 1.374 . S
C640 H614 0.950 . S
C640 C636 1.385 . S
C640 C639 1.374 . S
C641 C638 1.499 . S
C641 C642 1.373 . S
C641 C643 1.389 . S
C642 H615 0.950 1_545 S
C642 C628 1.377 . S
C642 C641 1.373 . S
C643 C627 1.377 . S
C643 C641 1.389 . S
C643 C644 1.524 . S
C644 C643 1.524 . S
C644 C645 1.397 . S
C644 C649 1.363 . S
C645 H616 0.950 . S
C645 C644 1.397 . S
C645 C646 1.334 . S
C646 H617 0.950 . S
C646 C645 1.334 . S
C646 C647 1.287 . S
C647 C646 1.287 . S
C647 C648 1.524 . S
C647 H650 0.999 . S
C648 H618 0.950 . S
C648 C647 1.524 . S
C648 C649 1.415 . S
C649 H619 0.950 1_455 S
C649 C644 1.363 . S
C649 C648 1.415 . S
H650 C647 0.999 . S
H651 C632 0.913 . S
H652 C670 0.951 . S
H653 C672 0.951 . S
H654 C674 0.950 . S
H655 C675 0.950 . S
H656 C677 0.950 . S
H657 C680 0.950 . S
H658 C681 0.950 1_545 S
H659 C683 0.950 . S
H660 C684 0.950 . S
H661 C685 0.951 . S
H662 C687 0.951 . S
H663 C689 0.950 1_665 S
H664 C690 0.950 1_665 S
H665 C692 0.950 . S
H666 C695 0.950 . S
H667 C696 0.950 . S
H668 C698 0.950 . S
H669 C699 0.950 . S
C670 H652 0.951 . S
C670 C671 1.366 1_565 S
C670 C672 1.388 . S
C671 C670 1.366 1_545 S
C671 C675 1.385 . S
C672 H653 0.951 . S
C672 C670 1.388 . S
C672 C673 1.366 1_565 S
C673 C672 1.366 1_545 S
C673 C674 1.414 . S
C673 C676 1.499 . S
C674 H654 0.950 . S
C674 C673 1.414 . S
C674 C675 1.374 . S
C675 H655 0.950 . S
C675 C671 1.385 . S
C675 C674 1.374 . S
C676 C673 1.499 . S
C676 C677 1.373 . S
C676 C678 1.389 1_455 S
C677 H656 0.950 . S
C677 C676 1.373 . S
C677 C693 1.377 . S
C678 C676 1.389 1_655 S
C678 C679 1.524 1_545 S
C678 C692 1.377 . S
C679 C678 1.524 1_565 S
C679 C680 1.397 1_565 S
C679 C684 1.363 . S
C680 H657 0.950 . S
C680 C679 1.397 1_545 S
C680 C681 1.334 1_545 S
C681 H658 0.950 1_565 S
C681 C680 1.334 1_565 S
C681 C682 1.287 . S
C682 C681 1.287 . S
C682 C683 1.524 . S
C682 H701 0.913 . S
C683 H659 0.950 . S
C683 C682 1.524 . S
C683 C684 1.415 . S
C684 H660 0.950 . S
C684 C679 1.363 . S
C684 C683 1.415 . S
C685 H661 0.951 . S
C685 C686 1.366 . S
C685 C687 1.388 . S
C686 C685 1.366 . S
C686 C690 1.385 . S
C687 H662 0.951 . S
C687 C685 1.388 . S
C687 C688 1.366 . S
C688 C687 1.366 . S
C688 C689 1.414 . S
C688 C691 1.499 . S
C689 H663 0.950 1_445 S
C689 C688 1.414 . S
C689 C690 1.374 . S
C690 H664 0.950 1_445 S
C690 C686 1.385 . S
C690 C689 1.374 . S
C691 C688 1.499 . S
C691 C692 1.373 1_455 S
C691 C693 1.389 . S
C692 H665 0.950 . S
C692 C678 1.377 . S
C692 C691 1.373 1_655 S
C693 C677 1.377 . S
C693 C691 1.389 . S
C693 C694 1.524 . S
C694 C693 1.524 . S
C694 C695 1.397 . S
C694 C699 1.363 . S
C695 H666 0.950 . S
C695 C694 1.397 . S
C695 C696 1.334 . S
C696 H667 0.950 . S
C696 C695 1.334 . S
C696 C697 1.287 . S
C697 C696 1.287 . S
C697 C698 1.524 . S
C697 H700 0.999 . S
C698 H668 0.950 . S
C698 C697 1.524 . S
C698 C699 1.415 . S
C699 H669 0.950 . S
C699 C694 1.363 . S
C699 C698 1.415 . S
H700 C697 0.999 . S
H701 C682 0.913 . S
C271 C56 4.224 . S
C286 C67 4.224 1_565 S
C321 C151 2.556 . S
C336 C140 2.556 . S
C371 C237 0.626 . S
C386 C226 0.626 . S
C421 C224 2.535 . S
C436 C235 2.535 . S
C471 C58 0.704 . S
C486 C69 0.704 . S
C521 C153 1.346 1_655 S
C536 C142 1.346 . S
C571 C158 1.517 . S
C586 C63 1.532 1_655 S
C621 C147 1.595 . S
C636 C231 1.579 . S
C671 C242 1.565 . S
C686 C74 1.574 . S
