# Generated by pormake.
# Topology acs-f, (3)-cn, num edge types: 1
# Building blocks:
#     Node 0, Type 0, BuildingBlock: WUSLED_clean_sbu_0, # of connection points: 3
#     Node 1, Type 0, BuildingBlock: WUSLED_clean_sbu_0, # of connection points: 3
#     Node 2, Type 0, BuildingBlock: WUSLED_clean_sbu_0, # of connection points: 3
#     Node 3, Type 0, BuildingBlock: WUSLED_clean_sbu_0, # of connection points: 3
#     Node 4, Type 0, BuildingBlock: WUSLED_clean_sbu_0, # of connection points: 3
#     Node 5, Type 0, BuildingBlock: WUSLED_clean_sbu_0, # of connection points: 3
#     Node 6, Type 0, BuildingBlock: WUSLED_clean_sbu_0, # of connection points: 3
#     Node 7, Type 0, BuildingBlock: WUSLED_clean_sbu_0, # of connection points: 3
#     Node 8, Type 0, BuildingBlock: WUSLED_clean_sbu_0, # of connection points: 3
#     Node 9, Type 0, BuildingBlock: WUSLED_clean_sbu_0, # of connection points: 3
#     Node 10, Type 0, BuildingBlock: WUSLED_clean_sbu_0, # of connection points: 3
#     Node 11, Type 0, BuildingBlock: WUSLED_clean_sbu_0, # of connection points: 3
#     Edge 12, Type (0, 0), BuildingBlock: XIVTED_clean_linker_0, # of connection points: 2
#     Edge 13, Type (0, 0), BuildingBlock: XIVTED_clean_linker_0, # of connection points: 2
#     Edge 14, Type (0, 0), BuildingBlock: XIVTED_clean_linker_0, # of connection points: 2
#     Edge 15, Type (0, 0), BuildingBlock: XIVTED_clean_linker_0, # of connection points: 2
#     Edge 16, Type (0, 0), BuildingBlock: XIVTED_clean_linker_0, # of connection points: 2
#     Edge 17, Type (0, 0), BuildingBlock: XIVTED_clean_linker_0, # of connection points: 2
#     Edge 18, Type (0, 0), BuildingBlock: XIVTED_clean_linker_0, # of connection points: 2
#     Edge 19, Type (0, 0), BuildingBlock: XIVTED_clean_linker_0, # of connection points: 2
#     Edge 20, Type (0, 0), BuildingBlock: XIVTED_clean_linker_0, # of connection points: 2
#     Edge 21, Type (0, 0), BuildingBlock: XIVTED_clean_linker_0, # of connection points: 2
#     Edge 22, Type (0, 0), BuildingBlock: XIVTED_clean_linker_0, # of connection points: 2
#     Edge 23, Type (0, 0), BuildingBlock: XIVTED_clean_linker_0, # of connection points: 2
#     Edge 24, Type (0, 0), BuildingBlock: XIVTED_clean_linker_0, # of connection points: 2
#     Edge 25, Type (0, 0), BuildingBlock: XIVTED_clean_linker_0, # of connection points: 2
#     Edge 26, Type (0, 0), BuildingBlock: XIVTED_clean_linker_0, # of connection points: 2
#     Edge 27, Type (0, 0), BuildingBlock: XIVTED_clean_linker_0, # of connection points: 2
#     Edge 28, Type (0, 0), BuildingBlock: XIVTED_clean_linker_0, # of connection points: 2
#     Edge 29, Type (0, 0), BuildingBlock: XIVTED_clean_linker_0, # of connection points: 2
# Relax obj value: 0.269
# Max RMSD: 0.159
# Mean RMSD: 0.147
data_MOF--net-acs-f--node1-WUSLED_clean_sbu_0--edge1-XIVTED_clean_linker_0
_symmetry_space_group_name_H-M    P1
_symmetry_Int_Tables_number       1
_symmetry_cell_setting            triclinic
loop_
_symmetry_equiv_pos_as_xyz
'x, y, z'
_cell_length_a     52.749136
_cell_length_b     52.774181
_cell_length_c     66.057399
_cell_angle_alpha  89.871128
_cell_angle_beta   89.879626
_cell_angle_gamma 114.73071
loop_
_atom_site_label
_atom_site_type_symbol
_atom_site_fract_x
_atom_site_fract_y
_atom_site_fract_z
_atom_type_partial_charge
C0 C 0.11401 0.3536 0.15151 0.0
C1 C 0.10881 0.36306 0.1702 0.0
C2 C 0.1345 0.3405 0.18763 0.0
C3 C 0.11899 0.35667 0.18806 0.0
C4 C 0.13924 0.33063 0.16883 0.0
C5 C 0.12908 0.33717 0.1509 0.0
U6 U 0.07417 0.39003 0.12745 0.0
O7 O 0.08509 0.41836 0.10132 0.0
O8 O 0.04632 0.37979 0.1009 0.0
C9 C 0.06213 0.40307 0.09145 0.0
C10 C 0.1044 0.36178 0.13277 0.0
C11 C 0.04794 0.41796 0.08059 0.0
C12 C 0.02 0.41902 0.05162 0.0
C13 C 0.03016 0.40439 0.06451 0.0
C14 C 0.04438 0.46097 0.07117 0.0
C15 C 0.02754 0.44767 0.05448 0.0
C16 C 0.05448 0.44627 0.08412 0.0
C17 C 0.04221 0.41929 0.17112 0.0
C18 C 0.03149 0.45935 0.17616 0.0
C19 C 0.02107 0.42449 0.20257 0.0
C20 C 0.03105 0.40925 0.19026 0.0
C21 C 0.02178 0.45014 0.19596 0.0
C22 C 0.04183 0.44413 0.16388 0.0
C23 C 0.05726 0.40508 0.16079 0.0
O24 O 0.07729 0.34978 0.12984 0.0
O25 O 0.11523 0.3888 0.1294 0.0
O26 O 0.08089 0.42061 0.15165 0.0
O27 O 0.04254 0.38148 0.1515 0.0
H28 H 0.09727 0.37587 0.17093 0.0
H29 H 0.11534 0.36508 0.20214 0.0
H30 H 0.1508 0.31787 0.16795 0.0
H31 H 0.13323 0.32965 0.13658 0.0
H32 H 0.00735 0.40815 0.03883 0.0
H33 H 0.02507 0.38266 0.06135 0.0
H34 H 0.05021 0.48291 0.07399 0.0
H35 H 0.06816 0.45731 0.09642 0.0
H36 H 0.0319 0.47872 0.17037 0.0
H37 H 0.01435 0.41679 0.21775 0.0
H38 H 0.03143 0.39024 0.19619 0.0
H39 H 0.05039 0.45223 0.1491 0.0
C40 C 0.64523 0.73398 0.1505 0.0
C41 C 0.63759 0.7213 0.16957 0.0
C42 C 0.66005 0.76652 0.186 0.0
C43 C 0.64486 0.73738 0.18713 0.0
C44 C 0.66807 0.77909 0.1668 0.0
C45 C 0.66068 0.76291 0.14919 0.0
U46 U 0.6091 0.66275 0.1279 0.0
O47 O 0.57925 0.64838 0.10284 0.0
O48 O 0.61865 0.64353 0.101 0.0
C49 C 0.59465 0.63887 0.09237 0.0
C50 C 0.63625 0.71691 0.13213 0.0
C51 C 0.58005 0.61201 0.08183 0.0
C52 C 0.57813 0.58395 0.05223 0.0
C53 C 0.59284 0.60666 0.06475 0.0
C54 C 0.53773 0.57072 0.07415 0.0
C55 C 0.55017 0.56604 0.05649 0.0
C56 C 0.55253 0.5935 0.08671 0.0
C57 C 0.58397 0.60737 0.17252 0.0
C58 C 0.54758 0.56054 0.17682 0.0
C59 C 0.57896 0.58307 0.20449 0.0
C60 C 0.59293 0.60637 0.1923 0.0
C61 C 0.55574 0.55998 0.19711 0.0
C62 C 0.56152 0.58417 0.16463 0.0
C63 C 0.59689 0.63416 0.16179 0.0
O64 O 0.64878 0.70041 0.12876 0.0
O65 O 0.60906 0.70431 0.12982 0.0
O66 O 0.58022 0.6438 0.15321 0.0
O67 O 0.62002 0.63958 0.1516 0.0
H68 H 0.62556 0.69894 0.17085 0.0
H69 H 0.63787 0.727 0.20157 0.0
H70 H 0.68006 0.80141 0.16538 0.0
H71 H 0.66679 0.77301 0.13456 0.0
H72 H 0.58831 0.58126 0.03868 0.0
H73 H 0.61392 0.62082 0.06055 0.0
H74 H 0.51638 0.55709 0.07805 0.0
H75 H 0.54212 0.59712 0.09981 0.0
H76 H 0.53008 0.54301 0.17049 0.0
H77 H 0.58564 0.5839 0.22005 0.0
H78 H 0.61009 0.62423 0.19869 0.0
H79 H 0.55431 0.58464 0.14935 0.0
C80 C 0.2505 0.89458 0.16495 0.0
C81 C 0.2643 0.8949 0.18314 0.0
C82 C 0.21976 0.87373 0.20092 0.0
C83 C 0.24909 0.8845 0.20092 0.0
C84 C 0.20608 0.87409 0.18268 0.0
C85 C 0.22136 0.88439 0.16484 0.0
U86 U 0.32035 0.92961 0.13908 0.0
O87 O 0.33548 0.91695 0.11166 0.0
O88 O 0.33417 0.95804 0.11278 0.0
C89 C 0.34103 0.94069 0.10228 0.0
C90 C 0.26653 0.904 0.14607 0.0
C91 C 0.36745 0.95269 0.09091 0.0
C92 C 0.39048 0.96903 0.05857 0.0
C93 C 0.3667 0.96057 0.07075 0.0
C94 C 0.41663 0.96294 0.08684 0.0
C95 C 0.41558 0.96978 0.06632 0.0
C96 C 0.39266 0.95433 0.09905 0.0
C97 C 0.38173 0.95585 0.17897 0.0
C98 C 0.42065 0.94933 0.19405 0.0
C99 C 0.41486 0.99171 0.20058 0.0
C100 C 0.3914 0.98228 0.18807 0.0
C101 C 0.42905 0.97483 0.20439 0.0
C102 C 0.39719 0.9399 0.18153 0.0
C103 C 0.35297 0.94296 0.17092 0.0
O104 O 0.27965 0.93118 0.1438 0.0
O105 O 0.28211 0.89085 0.1415 0.0
O106 O 0.34478 0.91879 0.16165 0.0
O107 O 0.34266 0.95952 0.163 0.0
H108 H 0.28684 0.90269 0.18348 0.0
H109 H 0.26035 0.88418 0.21454 0.0
H110 H 0.18357 0.86635 0.18217 0.0
H111 H 0.21041 0.8841 0.15093 0.0
H112 H 0.38911 0.97466 0.04296 0.0
H113 H 0.34742 0.95946 0.06422 0.0
H114 H 0.43565 0.96325 0.09322 0.0
H115 H 0.3936 0.94825 0.11461 0.0
H116 H 0.43096 0.93569 0.19675 0.0
H117 H 0.42107 0.01165 0.20805 0.0
H118 H 0.37982 0.99497 0.18659 0.0
H119 H 0.39015 0.91929 0.17497 0.0
C120 C 0.66131 0.89013 0.35255 0.0
C121 C 0.64886 0.89382 0.33472 0.0
C122 C 0.67039 0.86863 0.31552 0.0
C123 C 0.6533 0.88314 0.3164 0.0
C124 C 0.68326 0.86545 0.33343 0.0
C125 C 0.6787 0.87609 0.35181 0.0
U126 U 0.62561 0.9283 0.37997 0.0
O127 O 0.60122 0.91732 0.40814 0.0
O128 O 0.63843 0.95715 0.40592 0.0
C129 C 0.61689 0.94105 0.41695 0.0
C130 C 0.65516 0.90007 0.3719 0.0
C131 C 0.60208 0.95487 0.42817 0.0
C132 C 0.59831 0.97829 0.45888 0.0
C133 C 0.61314 0.96761 0.44666 0.0
C134 C 0.56137 0.96443 0.43396 0.0
C135 C 0.57199 0.97636 0.45289 0.0
C136 C 0.5763 0.95375 0.42169 0.0
C137 C 0.58695 0.95708 0.34117 0.0
C138 C 0.54157 0.95403 0.33068 0.0
C139 C 0.58371 0.99045 0.31701 0.0
C140 C 0.59977 0.98081 0.32886 0.0
C141 C 0.55445 0.97645 0.31715 0.0
C142 C 0.55766 0.94436 0.34254 0.0
C143 C 0.60403 0.94293 0.34876 0.0
O144 O 0.66632 0.9273 0.37412 0.0
O145 O 0.62876 0.88822 0.37731 0.0
O146 O 0.59132 0.91902 0.35836 0.0
O147 O 0.6289 0.95857 0.35599 0.0
H148 H 0.63526 0.90454 0.33504 0.0
H149 H 0.64265 0.8856 0.30305 0.0
H150 H 0.69681 0.8547 0.33327 0.0
H151 H 0.6885 0.87311 0.36546 0.0
H152 H 0.60737 0.98783 0.47315 0.0
H153 H 0.63303 0.96871 0.4519 0.0
H154 H 0.54111 0.96246 0.42893 0.0
H155 H 0.56737 0.94397 0.40745 0.0
H156 H 0.51907 0.94268 0.33107 0.0
H157 H 0.59424 0.00804 0.30698 0.0
H158 H 0.62228 0.99088 0.32735 0.0
H159 H 0.5471 0.92588 0.35175 0.0
C160 C 0.10601 0.7399 0.36288 0.0
C161 C 0.10293 0.72779 0.34365 0.0
C162 C 0.12671 0.77374 0.32822 0.0
C163 C 0.11324 0.74451 0.32651 0.0
C164 C 0.12933 0.7858 0.34755 0.0
C165 C 0.11907 0.76898 0.36475 0.0
U166 U 0.06633 0.66806 0.38436 0.0
O167 O 0.07708 0.64727 0.40958 0.0
O168 O 0.0382 0.65314 0.41074 0.0
C169 C 0.05395 0.64258 0.41961 0.0
C170 C 0.09608 0.72201 0.38089 0.0
C171 C 0.03971 0.61521 0.42985 0.0
C172 C 0.00697 0.58786 0.45593 0.0
C173 C 0.01754 0.61114 0.44315 0.0
C174 C 0.03979 0.57153 0.44181 0.0
C175 C 0.01846 0.56814 0.45582 0.0
C176 C 0.05036 0.59485 0.42898 0.0
C177 C 0.03546 0.61481 0.33884 0.0
C178 C 0.03415 0.5713 0.32558 0.0
C179 C 0.0084 0.59394 0.30876 0.0
C180 C 0.01716 0.61478 0.32345 0.0
C181 C 0.01767 0.5726 0.30924 0.0
C182 C 0.04317 0.59238 0.34023 0.0
C183 C 0.05009 0.64091 0.3502 0.0
O184 O 0.0689 0.71082 0.38362 0.0
O185 O 0.10716 0.70407 0.38332 0.0
O186 O 0.07381 0.64511 0.35908 0.0
O187 O 0.03506 0.6514 0.36009 0.0
H188 H 0.0929 0.70532 0.34194 0.0
H189 H 0.11124 0.73441 0.31197 0.0
H190 H 0.13925 0.80822 0.34941 0.0
H191 H 0.12152 0.77865 0.3795 0.0
H192 H 0.99019 0.58565 0.46626 0.0
H193 H 0.0091 0.62661 0.44429 0.0
H194 H 0.04929 0.55689 0.44139 0.0
H195 H 0.06764 0.59745 0.41904 0.0
H196 H 0.04168 0.55511 0.32625 0.0
H197 H 0.99546 0.59527 0.29645 0.0
H198 H 0.01112 0.63197 0.32197 0.0
H199 H 0.05742 0.59198 0.35187 0.0
C200 C 0.26332 0.35302 0.35339 0.0
C201 C 0.2767 0.36179 0.33464 0.0
C202 C 0.23216 0.33977 0.3172 0.0
C203 C 0.2613 0.35532 0.31675 0.0
C204 C 0.21893 0.33043 0.33606 0.0
C205 C 0.23441 0.33707 0.35401 0.0
U206 U 0.33354 0.38801 0.37786 0.0
O207 O 0.34674 0.41788 0.40294 0.0
O208 O 0.35118 0.37836 0.40558 0.0
C209 C 0.35566 0.40247 0.41395 0.0
C210 C 0.27956 0.36157 0.37217 0.0
C211 C 0.38206 0.41703 0.42515 0.0
C212 C 0.41024 0.41705 0.45429 0.0
C213 C 0.38845 0.40278 0.44089 0.0
C214 C 0.42056 0.46001 0.43594 0.0
C215 C 0.42608 0.44599 0.45233 0.0
C216 C 0.39875 0.44569 0.4225 0.0
C217 C 0.39124 0.41235 0.33439 0.0
C218 C 0.43137 0.45329 0.32257 0.0
C219 C 0.4178 0.40921 0.30517 0.0
C220 C 0.39624 0.39658 0.31912 0.0
C221 C 0.43492 0.43788 0.30632 0.0
C222 C 0.40952 0.44065 0.33647 0.0
C223 C 0.36409 0.39992 0.34489 0.0
O224 O 0.29557 0.34866 0.37613 0.0
O225 O 0.29239 0.3887 0.37464 0.0
O226 O 0.35405 0.41671 0.35279 0.0
O227 O 0.35773 0.37669 0.35516 0.0
H228 H 0.29905 0.37419 0.33389 0.0
H229 H 0.27219 0.36329 0.30261 0.0
H230 H 0.19661 0.31811 0.33697 0.0
H231 H 0.22378 0.33007 0.36837 0.0
H232 H 0.41424 0.40548 0.46648 0.0
H233 H 0.37581 0.38074 0.44336 0.0
H234 H 0.43219 0.48231 0.43403 0.0
H235 H 0.39426 0.45733 0.41059 0.0
H236 H 0.44425 0.47548 0.32373 0.0
H237 H 0.42027 0.39683 0.2929 0.0
H238 H 0.38228 0.37478 0.31712 0.0
H239 H 0.40599 0.45333 0.34804 0.0
C240 C 0.8934 0.6537 0.85216 0.0
C241 C 0.90808 0.65734 0.83385 0.0
C242 C 0.87076 0.66343 0.8158 0.0
C243 C 0.89697 0.66234 0.81589 0.0
C244 C 0.85649 0.66051 0.83431 0.0
C245 C 0.86773 0.65568 0.85231 0.0
U246 U 0.93284 0.61611 0.87592 0.0
O247 O 0.96 0.62538 0.90279 0.0
O248 O 0.92091 0.58721 0.90175 0.0
C249 C 0.94379 0.60195 0.91189 0.0
C250 C 0.9033 0.64505 0.87062 0.0
C251 C 0.95758 0.58648 0.9225 0.0
C252 C 0.9857 0.58454 0.95109 0.0
C253 C 0.97564 0.5996 0.93855 0.0
C254 C 0.96062 0.54299 0.93129 0.0
C255 C 0.97782 0.55589 0.94792 0.0
C256 C 0.9506 0.55814 0.91868 0.0
C257 C 0.96395 0.58399 0.83434 0.0
C258 C 0.97164 0.54176 0.83319 0.0
C259 C 0.98283 0.57245 0.80401 0.0
C260 C 0.97475 0.59062 0.8147 0.0
C261 C 0.98033 0.5472 0.81281 0.0
C262 C 0.96334 0.55996 0.84386 0.0
C263 C 0.94965 0.60018 0.84288 0.0
O264 O 0.89207 0.61801 0.87382 0.0
O265 O 0.93043 0.65669 0.87361 0.0
O266 O 0.96487 0.62356 0.85226 0.0
O267 O 0.92528 0.58586 0.85147 0.0
H268 H 0.92783 0.6556 0.83334 0.0
H269 H 0.90877 0.66493 0.802 0.0
H270 H 0.83611 0.66084 0.83481 0.0
H271 H 0.85593 0.65258 0.86626 0.0
H272 H -0.00138 0.5951 0.96386 0.0
H273 H 0.98107 0.62134 0.94193 0.0
H274 H 0.95448 0.52106 0.92824 0.0
H275 H 0.93671 0.54744 0.90639 0.0
H276 H 0.96999 0.52281 0.8406 0.0
H277 H 0.98905 0.57732 0.78834 0.0
H278 H 0.97522 0.60903 0.80708 0.0
H279 H 0.95514 0.55455 0.85908 0.0
C280 C 0.35666 0.25866 0.85323 0.0
C281 C 0.34865 0.26909 0.83599 0.0
C282 C 0.34731 0.2297 0.81612 0.0
C283 C 0.34383 0.25466 0.81767 0.0
C284 C 0.35459 0.21896 0.8336 0.0
C285 C 0.35921 0.23333 0.85198 0.0
U286 U 0.38863 0.32955 0.87739 0.0
O287 O 0.37858 0.34611 0.90546 0.0
O288 O 0.41936 0.3445 0.90186 0.0
C289 C 0.40334 0.35212 0.9133 0.0
C290 C 0.36515 0.27544 0.87182 0.0
C291 C 0.41692 0.37882 0.92425 0.0
C292 C 0.41795 0.4054 0.95452 0.0
C293 C 0.40386 0.38286 0.94169 0.0
C294 C 0.45813 0.42105 0.93223 0.0
C295 C 0.44552 0.42439 0.95023 0.0
C296 C 0.44397 0.39849 0.91935 0.0
C297 C 0.40932 0.38767 0.83466 0.0
C298 C 0.44912 0.43002 0.8245 0.0
C299 C 0.4058 0.41463 0.80582 0.0
C300 C 0.3936 0.39214 0.81909 0.0
C301 C 0.43398 0.43318 0.80791 0.0
C302 C 0.43692 0.4073 0.83774 0.0
C303 C 0.39799 0.36003 0.84447 0.0
O304 O 0.39222 0.28976 0.87367 0.0
O305 O 0.35089 0.28999 0.87641 0.0
O306 O 0.37487 0.35244 0.85513 0.0
O307 O 0.41583 0.35097 0.85185 0.0
H308 H 0.34682 0.28877 0.83653 0.0
H309 H 0.33781 0.26333 0.80464 0.0
H310 H 0.35783 0.20003 0.83294 0.0
H311 H 0.36571 0.22514 0.86506 0.0
H312 H 0.40767 0.40711 0.96833 0.0
H313 H 0.38314 0.36782 0.94591 0.0
H314 H 0.47918 0.43555 0.9283 0.0
H315 H 0.45458 0.39592 0.90598 0.0
H316 H 0.47092 0.44396 0.82642 0.0
H317 H 0.39356 0.41677 0.79331 0.0
H318 H 0.37233 0.37717 0.81636 0.0
H319 H 0.44953 0.40424 0.84959 0.0
C320 C 0.70914 0.0928 0.84782 0.0
C321 C 0.69649 0.10339 0.83341 0.0
C322 C 0.73427 0.11089 0.80955 0.0
C323 C 0.70886 0.1122 0.81441 0.0
C324 C 0.7465 0.09968 0.82385 0.0
C325 C 0.73402 0.0907 0.84277 0.0
U326 U 0.64955 0.05998 0.88684 0.0
O327 O 0.6491 0.0376 0.91517 0.0
O328 O 0.64612 0.07781 0.91617 0.0
C329 C 0.64482 0.05594 0.92644 0.0
C330 C 0.69794 0.0855 0.86854 0.0
C331 C 0.62159 0.0445 0.94098 0.0
C332 C 0.60543 0.03256 0.97564 0.0
C333 C 0.62716 0.04209 0.96145 0.0
C334 C 0.57221 0.02742 0.94894 0.0
C335 C 0.57768 0.02531 0.9696 0.0
C336 C 0.59397 0.03688 0.93477 0.0
C337 C 0.59783 0.03677 0.84273 0.0
C338 C 0.56284 0.02244 0.81629 0.0
C339 C 0.61174 0.0477 0.80755 0.0
C340 C 0.61878 0.04853 0.82804 0.0
C341 C 0.58364 0.03478 0.80147 0.0
C342 C 0.5699 0.02351 0.83673 0.0
C343 C 0.60453 0.03874 0.86439 0.0
O344 O 0.68318 0.09848 0.87543 0.0
O345 O 0.6874 0.05887 0.87338 0.0
O346 O 0.6141 0.06398 0.87206 0.0
O347 O 0.61829 0.02436 0.87051 0.0
H348 H 0.67741 0.10548 0.83698 0.0
H349 H 0.69906 0.12097 0.8038 0.0
H350 H 0.76588 0.09808 0.82048 0.0
H351 H 0.74415 0.08264 0.85367 0.0
H352 H 0.61037 0.03079 0.99133 0.0
H353 H 0.64839 0.04784 0.96649 0.0
H354 H 0.5512 0.02239 0.94376 0.0
H355 H 0.5893 0.03869 0.919 0.0
H356 H 0.541 0.01268 0.81215 0.0
H357 H 0.62823 0.05719 0.79648 0.0
H358 H 0.64047 0.05851 0.83246 0.0
H359 H 0.55347 0.01434 0.8479 0.0
C360 C 0.36129 0.11652 0.64709 0.0
C361 C 0.36846 0.10829 0.66564 0.0
C362 C 0.35095 0.13784 0.68378 0.0
C363 C 0.36323 0.11876 0.68382 0.0
C364 C 0.34348 0.14573 0.66514 0.0
C365 C 0.3486 0.13512 0.64695 0.0
U366 U 0.4023 0.08369 0.61903 0.0
O367 O 0.39014 0.05348 0.59395 0.0
O368 O 0.424 0.0953 0.58978 0.0
C369 C 0.40968 0.07055 0.58185 0.0
C370 C 0.36839 0.10694 0.62791 0.0
C371 C 0.42578 0.05849 0.57027 0.0
C372 C 0.43107 0.03659 0.53924 0.0
C373 C 0.41542 0.0462 0.55153 0.0
C374 C 0.46754 0.05076 0.56455 0.0
C375 C 0.45753 0.03914 0.54542 0.0
C376 C 0.45179 0.06039 0.57688 0.0
C377 C 0.44974 0.06299 0.65537 0.0
C378 C 0.49782 0.07052 0.66169 0.0
C379 C 0.46001 0.03303 0.67886 0.0
C380 C 0.44073 0.04008 0.66863 0.0
C381 C 0.48884 0.04884 0.67612 0.0
C382 C 0.47846 0.07759 0.65144 0.0
C383 C 0.42947 0.07415 0.64917 0.0
O384 O 0.39423 0.12121 0.62181 0.0
O385 O 0.3601 0.07982 0.6263 0.0
O386 O 0.40466 0.05612 0.6433 0.0
O387 O 0.43886 0.09778 0.63899 0.0
H388 H 0.37856 0.09415 0.66602 0.0
H389 H 0.36961 0.11258 0.69787 0.0
H390 H 0.33376 0.16019 0.66461 0.0
H391 H 0.34303 0.14176 0.63275 0.0
H392 H 0.42246 0.02725 0.52482 0.0
H393 H 0.39534 0.04449 0.54622 0.0
H394 H 0.48789 0.05318 0.56972 0.0
H395 H 0.46014 0.06982 0.59134 0.0
H396 H 0.51987 0.08283 0.65897 0.0
H397 H 0.45224 0.01645 0.69001 0.0
H398 H 0.41875 0.0287 0.67217 0.0
H399 H 0.48611 0.09542 0.64133 0.0
C400 C 0.85938 0.23872 0.64782 0.0
C401 C 0.87479 0.2306 0.66171 0.0
C402 C 0.83274 0.20475 0.68158 0.0
C403 C 0.86161 0.2138 0.67837 0.0
C404 C 0.81724 0.21208 0.66727 0.0
C405 C 0.83037 0.22872 0.65055 0.0
U406 U 0.90329 0.31247 0.62928 0.0
O407 O 0.93589 0.32899 0.60566 0.0
O408 O 0.89654 0.33368 0.60263 0.0
C409 C 0.92139 0.33935 0.59499 0.0
C410 C 0.87324 0.25839 0.631 0.0
C411 C 0.93664 0.36721 0.58569 0.0
C412 C 0.97118 0.39542 0.56092 0.0
C413 C 0.95959 0.3716 0.57313 0.0
C414 C 0.93794 0.4117 0.57435 0.0
C415 C 0.95995 0.41535 0.5609 0.0
C416 C 0.92635 0.38785 0.5866 0.0
C417 C 0.92505 0.36539 0.67525 0.0
C418 C 0.96476 0.40143 0.69219 0.0
C419 C 0.91767 0.39377 0.70149 0.0
C420 C 0.90707 0.37294 0.68691 0.0
C421 C 0.94654 0.40756 0.70477 0.0
C422 C 0.95409 0.38031 0.67761 0.0
C423 C 0.91274 0.33888 0.66398 0.0
O424 O 0.86269 0.27637 0.62687 0.0
O425 O 0.90071 0.26973 0.63072 0.0
O426 O 0.92955 0.32876 0.65619 0.0
O427 O 0.8906 0.33425 0.65285 0.0
H428 H 0.89712 0.2376 0.65996 0.0
H429 H 0.87414 0.20808 0.68882 0.0
H430 H 0.79504 0.20578 0.66929 0.0
H431 H 0.81787 0.23438 0.64002 0.0
H432 H 0.98847 0.39782 0.55106 0.0
H433 H 0.96781 0.35596 0.57204 0.0
H434 H 0.92866 0.42652 0.57466 0.0
H435 H 0.90856 0.38504 0.59605 0.0
H436 H 0.98712 0.41181 0.69442 0.0
H437 H 0.90317 0.39839 0.71076 0.0
H438 H 0.88463 0.3616 0.68559 0.0
H439 H 0.96849 0.37478 0.66897 0.0
C440 C 0.73337 0.64821 0.65287 0.0
C441 C 0.72211 0.64642 0.67236 0.0
C442 C 0.76816 0.65988 0.68716 0.0
C443 C 0.73935 0.65228 0.68935 0.0
C444 C 0.77942 0.66232 0.66753 0.0
C445 C 0.76213 0.6565 0.65052 0.0
U446 U 0.66047 0.6123 0.63226 0.0
O447 O 0.64001 0.62166 0.60596 0.0
O448 O 0.64532 0.58248 0.60725 0.0
C449 C 0.63526 0.59774 0.59717 0.0
C450 C 0.71486 0.63928 0.6352 0.0
C451 C 0.60822 0.58298 0.58679 0.0
C452 C 0.57853 0.58278 0.55859 0.0
C453 C 0.60071 0.5972 0.57163 0.0
C454 C 0.56988 0.53971 0.57627 0.0
C455 C 0.56339 0.55372 0.56033 0.0
C456 C 0.59212 0.55418 0.58935 0.0
C457 C 0.60621 0.58627 0.67729 0.0
C458 C 0.55859 0.55097 0.68025 0.0
C459 C 0.58174 0.57877 0.70938 0.0
C460 C 0.60539 0.59321 0.69763 0.0
C461 C 0.55812 0.55711 0.70101 0.0
C462 C 0.58255 0.56539 0.66847 0.0
C463 C 0.63305 0.59968 0.66668 0.0
O464 O 0.70205 0.61212 0.633 0.0
O465 O 0.69822 0.65189 0.63269 0.0
O466 O 0.63808 0.62288 0.6567 0.0
O467 O 0.64267 0.58329 0.65768 0.0
H468 H 0.69986 0.63973 0.67446 0.0
H469 H 0.72993 0.64981 0.70423 0.0
H470 H 0.80155 0.66841 0.66531 0.0
H471 H 0.77113 0.65787 0.63558 0.0
H472 H 0.57375 0.59432 0.54675 0.0
H473 H 0.61288 0.61935 0.56924 0.0
H474 H 0.55876 0.51732 0.578 0.0
H475 H 0.59747 0.54257 0.60082 0.0
H476 H 0.54069 0.5347 0.67319 0.0
H477 H 0.58261 0.58382 0.72531 0.0
H478 H 0.62359 0.60914 0.7047 0.0
H479 H 0.58288 0.55978 0.65274 0.0
H480 H 0.24614 0.32799 0.27931 0.0
H481 H 0.11086 0.32933 0.22561 0.0
H482 H 0.18061 0.33992 0.31146 0.0
H483 H 0.18572 0.33948 0.19322 0.0
H484 H 0.13287 0.32527 0.2572 0.0
H485 H 0.22091 0.32431 0.24769 0.0
C486 C 0.22644 0.32979 0.27977 0.0
C487 C 0.2157 0.3346 0.29814 0.0
C488 C 0.1444 0.32822 0.24315 0.0
C489 C 0.18649 0.32996 0.26193 0.0
C490 C 0.13191 0.33067 0.22509 0.0
C491 C 0.14655 0.33511 0.20667 0.0
C492 C 0.17172 0.33005 0.24286 0.0
C493 C 0.17351 0.3359 0.20697 0.0
C494 C 0.21199 0.32755 0.2617 0.0
C495 C 0.18968 0.33601 0.29777 0.0
N496 N 0.18527 0.33357 0.22478 0.0
N497 N 0.17606 0.33386 0.27996 0.0
H498 H 0.67529 0.75427 0.22327 0.0
H499 H 0.67552 0.89015 0.277 0.0
H500 H 0.65923 0.81776 0.19169 0.0
H501 H 0.67263 0.81804 0.3097 0.0
H502 H 0.67654 0.86706 0.24521 0.0
H503 H 0.68136 0.7806 0.25461 0.0
C504 C 0.67306 0.77375 0.22289 0.0
C505 C 0.66642 0.78361 0.20478 0.0
C506 C 0.67585 0.85637 0.25935 0.0
C507 C 0.67374 0.81408 0.24066 0.0
C508 C 0.67514 0.86949 0.27754 0.0
C509 C 0.67369 0.85595 0.29613 0.0
C510 C 0.67524 0.82953 0.25969 0.0
C511 C 0.67395 0.82943 0.29581 0.0
C512 C 0.67666 0.78883 0.2408 0.0
C513 C 0.66452 0.80938 0.20519 0.0
N514 N 0.67454 0.81705 0.27789 0.0
N515 N 0.668 0.82362 0.22285 0.0
H516 H 0.17601 0.82074 0.32485 0.0
H517 H 0.17012 0.82722 0.20446 0.0
H518 H 0.10502 0.76678 0.28976 0.0
H519 H 0.2326 0.89133 0.24029 0.0
H520 H 0.14568 0.80516 0.23552 0.0
H521 H 0.19681 0.84725 0.29418 0.0
C522 C 0.16459 0.81464 0.31078 0.0
C523 C 0.13874 0.7913 0.30994 0.0
C524 C 0.16463 0.82417 0.23658 0.0
C525 C 0.16279 0.82136 0.27461 0.0
C526 C 0.17855 0.83692 0.21881 0.0
C527 C 0.20361 0.86117 0.21967 0.0
C528 C 0.17591 0.83557 0.25543 0.0
C529 C 0.21368 0.87239 0.23883 0.0
C530 C 0.17659 0.82972 0.29322 0.0
C531 C 0.12522 0.78423 0.29112 0.0
N532 N 0.19991 0.8594 0.25592 0.0
N533 N 0.13748 0.79905 0.27422 0.0
H534 H 0.80926 0.64172 0.69283 0.0
H535 H 0.83909 0.69271 0.808 0.0
H536 H 0.76742 0.68601 0.72302 0.0
H537 H 0.87224 0.63957 0.77922 0.0
H538 H 0.81582 0.69418 0.77629 0.0
H539 H 0.83623 0.64514 0.72346 0.0
C540 C 0.80598 0.65249 0.70581 0.0
C541 C 0.78598 0.66356 0.70532 0.0
C542 C 0.82832 0.68233 0.77692 0.0
C543 C 0.81657 0.66716 0.74066 0.0
C544 C 0.84152 0.68137 0.79505 0.0
C545 C 0.85769 0.66597 0.79637 0.0
C546 C 0.8313 0.66782 0.75994 0.0
C547 C 0.86039 0.65207 0.77893 0.0
C548 C 0.82125 0.65423 0.72338 0.0
C549 C 0.78236 0.67686 0.72278 0.0
N550 N 0.84729 0.65327 0.76152 0.0
N551 N 0.79744 0.67824 0.73975 0.0
H552 H 0.36445 0.25445 0.77899 0.0
H553 H 0.33219 0.11194 0.72042 0.0
H554 H 0.32539 0.17346 0.80754 0.0
H555 H 0.36139 0.19237 0.6911 0.0
H556 H 0.32902 0.13375 0.75242 0.0
H557 H 0.36254 0.23179 0.74661 0.0
C558 C 0.35512 0.23188 0.77846 0.0
C559 C 0.34501 0.21589 0.79612 0.0
C560 C 0.33595 0.14659 0.73895 0.0
C561 C 0.34334 0.18972 0.75894 0.0
C562 C 0.33789 0.13418 0.7207 0.0
C563 C 0.34715 0.15036 0.70305 0.0
C564 C 0.34353 0.17546 0.73962 0.0
C565 C 0.35389 0.17902 0.70426 0.0
C566 C 0.35422 0.21893 0.75992 0.0
C567 C 0.33378 0.18669 0.79442 0.0
N568 N 0.35211 0.19065 0.72224 0.0
N569 N 0.33335 0.17456 0.7762 0.0
H570 H 0.85381 0.2116 0.72016 0.0
H571 H 0.71161 0.10512 0.77147 0.0
H572 H 0.78028 0.16188 0.68571 0.0
H573 H 0.78981 0.14342 0.80336 0.0
H574 H 0.73585 0.12633 0.73995 0.0
H575 H 0.83042 0.18704 0.75079 0.0
C576 C 0.83287 0.19528 0.71894 0.0
C577 C 0.81907 0.18887 0.70021 0.0
C578 C 0.74772 0.12994 0.75383 0.0
C579 C 0.79183 0.16099 0.7355 0.0
C580 C 0.73387 0.11796 0.77183 0.0
C581 C 0.7487 0.12248 0.79009 0.0
C582 C 0.77656 0.14681 0.75411 0.0
C583 C 0.77758 0.13908 0.78963 0.0
C584 C 0.81943 0.18138 0.73651 0.0
C585 C 0.79166 0.1679 0.6998 0.0
N586 N 0.79051 0.15075 0.77198 0.0
N587 N 0.77891 0.15482 0.71717 0.0
H588 H 0.97729 0.43209 0.03489 0.0
H589 H 0.02838 0.57075 0.96685 0.0
H590 H 0.05922 0.49987 0.03919 0.0
H591 H 0.94605 0.50353 0.96297 0.0
H592 H 0.04025 0.54478 0.99302 0.0
H593 H 0.96553 0.45774 0.00839 0.0
C594 C 0.99281 0.45238 0.03029 0.0
C595 C 0.0193 0.4638 0.03934 0.0
C596 C 0.01961 0.53565 0.98641 0.0
C597 C 0.00593 0.49337 0.00895 0.0
C598 C 0.01279 0.55051 0.97147 0.0
C599 C 0.98614 0.53938 0.96268 0.0
C600 C -0.00037 0.50942 0.9927 0.0
C601 C 0.96696 0.51284 0.96911 0.0
C602 C 0.98605 0.46705 0.01517 0.0
C603 C 0.03842 0.49036 0.03289 0.0
N604 N 0.97404 0.49885 0.98376 0.0
N605 N 0.03139 0.50416 0.01808 0.0
H606 H 0.50008 0.44124 0.96176 0.0
H607 H 0.49581 0.55017 0.04456 0.0
H608 H 0.42745 0.45712 0.97321 0.0
H609 H 0.56712 0.53152 0.03463 0.0
H610 H 0.47032 0.51604 0.0187 0.0
H611 H 0.52524 0.47507 0.98785 0.0
C612 C 0.48949 0.45208 0.96958 0.0
C613 C 0.46156 0.44631 0.9652 0.0
C614 C 0.49151 0.51934 0.02222 0.0
C615 C 0.49021 0.48482 0.99547 0.0
C616 C 0.50603 0.53867 0.03715 0.0
C617 C 0.53373 0.54381 0.04184 0.0
C618 C 0.50473 0.50499 0.01183 0.0
C619 C 0.54596 0.52858 0.03137 0.0
C620 C 0.50382 0.47123 0.98464 0.0
C621 C 0.44884 0.46065 0.97618 0.0
N622 N 0.53143 0.50995 0.01686 0.0
N623 N 0.46323 0.4792 0.99079 0.0
H624 H 0.41595 0.95098 0.0279 0.0
H625 H 0.5782 0.04514 0.00817 0.0
H626 H 0.47086 0.00384 0.07364 0.0
H627 H 0.52438 0.98445 0.96573 0.0
H628 H 0.5396 0.03049 0.03243 0.0
H629 H 0.45563 0.96347 0.00495 0.0
C630 C 0.43639 0.96534 0.03309 0.0
C631 C 0.44003 0.9766 0.05267 0.0
C632 C 0.53628 0.02032 0.01784 0.0
C633 C 0.48578 0.99088 0.02643 0.0
C634 C 0.55837 0.02856 0.00398 0.0
C635 C 0.5546 0.01608 0.98478 0.0
C636 C 0.51013 -0.0005 0.01247 0.0
C637 C 0.52822 0.99503 0.98017 0.0
C638 C 0.4591 0.97233 0.02001 0.0
C639 C 0.46712 0.99461 0.0587 0.0
N640 N 0.50704 0.98749 0.99387 0.0
N641 N 0.48894 0.00135 0.04558 0.0
H642 H 0.46413 0.0466 0.50434 0.0
H643 H 0.5661 0.96971 0.49406 0.0
H644 H 0.49037 0.01181 0.55507 0.0
H645 H 0.53975 0.00437 0.44332 0.0
H646 H 0.53894 0.98541 0.51663 0.0
H647 H 0.49176 0.03141 0.48182 0.0
C648 C 0.47557 0.0356 0.51076 0.0
C649 C 0.47474 0.03034 0.53167 0.0
C650 C 0.53911 0.98963 0.50057 0.0
C651 C 0.50681 0.01315 0.50589 0.0
C652 C 0.55478 0.98083 0.48766 0.0
C653 C 0.55539 0.98585 0.46672 0.0
C654 C 0.52382 0.00359 0.49256 0.0
C655 C 0.53975 -0.00018 0.4593 0.0
C656 C 0.49149 0.02708 0.49787 0.0
C657 C 0.49053 0.01653 0.5391 0.0
N658 N 0.52465 0.00822 0.47221 0.0
N659 N 0.50584 0.00837 0.52623 0.0
H660 H 0.96823 0.47 0.56642 0.0
H661 H 0.01042 0.51356 0.45054 0.0
H662 H 0.97359 0.41374 0.52101 0.0
H663 H 0.00621 0.57032 0.496 0.0
H664 H 0.99713 0.47677 0.47621 0.0
H665 H 0.98219 0.50709 0.54089 0.0
C666 C 0.97235 0.46543 0.5511 0.0
C667 C 0.96979 0.43867 0.54592 0.0
C668 C -0.00094 0.49726 0.48056 0.0
C669 C 0.98586 0.4811 0.51658 0.0
C670 C 0.00674 0.51832 0.46591 0.0
C671 C 0.00937 0.54512 0.47104 0.0
C672 C 0.99399 0.50297 0.50057 0.0
C673 C 0.00401 0.5499 0.49121 0.0
C674 C 0.98041 0.48664 0.53654 0.0
C675 C 0.97571 0.43411 0.52584 0.0
N676 N 0.99662 0.52909 0.5052 0.0
N677 N 0.98337 0.45504 0.51194 0.0
H678 H 0.47761 0.48977 0.44703 0.0
H679 H 0.51243 0.50909 0.56573 0.0
H680 H 0.42217 0.43834 0.49352 0.0
H681 H 0.56658 0.56198 0.51925 0.0
H682 H 0.4793 0.48254 0.53952 0.0
H683 H 0.51064 0.51623 0.47329 0.0
C684 C 0.47234 0.48404 0.46274 0.0
C685 C 0.44704 0.46169 0.46801 0.0
C686 C 0.4984 0.50002 0.53506 0.0
C687 C 0.4849 0.49188 0.49822 0.0
C688 C 0.51737 0.51513 0.55004 0.0
C689 C 0.54233 0.53792 0.54475 0.0
C690 C 0.50442 0.50761 0.5146 0.0
C691 C 0.54744 0.5449 0.52413 0.0
C692 C 0.49127 0.4991 0.47774 0.0
C693 C 0.44157 0.45506 0.48866 0.0
N694 N 0.52873 0.52981 0.50985 0.0
N695 N 0.46028 0.47008 0.50297 0.0
H696 H 0.02659 0.5878 0.26958 0.0
H697 H 0.98248 0.43415 0.22669 0.0
H698 H -0.00084 0.5155 0.30857 0.0
H699 H 0.04601 0.50745 0.19879 0.0
H700 H 0.97797 0.46353 0.25376 0.0
H701 H 0.02302 0.55795 0.24046 0.0
C702 C 0.01936 0.56554 0.27196 0.0
C703 C 0.01312 0.55405 0.2915 0.0
C704 C 0.99266 0.47308 0.24155 0.0
C705 C 0.00903 0.51989 0.25826 0.0
C706 C 0.99538 0.45637 0.2261 0.0
C707 C 0.01509 0.46814 0.21048 0.0
C708 C 0.00928 0.50187 0.24121 0.0
C709 C 0.03043 0.49727 0.21031 0.0
C710 C 0.01752 0.54861 0.25536 0.0
C711 C 0.00428 0.52515 0.29376 0.0
N712 N 0.02729 0.51308 0.22549 0.0
N713 N 0.00245 0.509 0.2773 0.0
H714 H 0.42256 0.43341 0.26618 0.0
H715 H 0.5742 0.53809 0.22887 0.0
H716 H 0.49013 0.47508 0.30779 0.0
H717 H 0.4988 0.52899 0.19789 0.0
H718 H 0.54569 0.50592 0.25504 0.0
H719 H 0.45275 0.45936 0.23815 0.0
C720 C 0.44392 0.44774 0.26936 0.0
C721 C 0.45394 0.45213 0.28931 0.0
C722 C 0.53552 0.51086 0.24238 0.0
C723 C 0.48847 0.48175 0.25734 0.0
C724 C 0.55171 0.5293 0.22744 0.0
C725 C 0.53899 0.53684 0.21121 0.0
C726 C 0.50637 0.49933 0.24091 0.0
C727 C 0.50971 0.52385 0.20994 0.0
C728 C 0.46101 0.46262 0.2534 0.0
C729 C 0.48163 0.47123 0.29263 0.0
N730 N 0.49441 0.50584 0.22464 0.0
N731 N 0.49801 0.48533 0.27677 0.0
H732 H 0.42753 0.99685 0.24164 0.0
H733 H 0.50386 0.97932 0.3217 0.0
H734 H 0.47839 0.96875 0.20481 0.0
H735 H 0.56637 0.98699 0.27692 0.0
H736 H 0.47422 0.98375 0.29487 0.0
H737 H 0.45923 0.00337 0.26987 0.0
C738 C 0.44555 0.99232 0.2394 0.0
C739 C 0.45014 0.98199 0.22081 0.0
C740 C 0.49472 0.9853 0.29091 0.0
C741 C 0.48596 0.98823 0.2535 0.0
C742 C 0.51154 0.98245 0.30626 0.0
C743 C 0.53768 0.98287 0.30159 0.0
C744 C 0.50407 0.98847 0.2707 0.0
C745 C 0.54657 0.98697 0.2813 0.0
C746 C 0.46341 0.99557 0.25571 0.0
C747 C 0.47375 0.97628 0.21894 0.0
N748 N 0.52967 0.98925 0.2666 0.0
N749 N 0.49069 0.97937 0.23511 0.0
H750 H 0.01691 0.55336 0.78115 0.0
H751 H 0.92803 0.39734 0.74359 0.0
H752 H 0.94869 0.49077 0.81436 0.0
H753 H 0.98899 0.46054 0.70598 0.0
H754 H 0.94185 0.42957 0.77201 0.0
H755 H 0.01338 0.51803 0.75601 0.0
C756 C 0.00145 0.53217 0.78335 0.0
C757 C 0.98278 0.52525 0.79983 0.0
C758 C 0.95238 0.43646 0.75761 0.0
C759 C 0.97884 0.4847 0.77115 0.0
C760 C 0.94439 0.41809 0.74135 0.0
C761 C 0.95699 0.42653 0.72232 0.0
C762 C 0.97302 0.46367 0.75487 0.0
C763 C 0.97862 0.45335 0.72039 0.0
C764 C -0.00049 0.51201 0.76899 0.0
C765 C 0.96367 0.49726 0.80207 0.0
N766 N 0.98572 0.47117 0.73642 0.0
N767 N 0.96201 0.47818 0.7878 0.0
H768 H 0.52543 0.50064 0.69903 0.0
H769 H 0.46987 0.48863 0.81124 0.0
H770 H 0.53677 0.57365 0.73404 0.0
H771 H 0.43118 0.42342 0.76735 0.0
H772 H 0.49622 0.5201 0.78374 0.0
H773 H 0.4915 0.47173 0.724 0.0
C774 C 0.52049 0.51074 0.71171 0.0
C775 C 0.53441 0.53973 0.71445 0.0
C776 C 0.48166 0.499 0.78014 0.0
C777 C 0.4961 0.50646 0.74351 0.0
C778 C 0.46677 0.48105 0.79581 0.0
C779 C 0.4483 0.45345 0.79154 0.0
C780 C 0.47849 0.48903 0.76016 0.0
C781 C 0.44498 0.44464 0.77128 0.0
C782 C 0.50122 0.49413 0.72607 0.0
C783 C 0.52725 0.55137 0.7315 0.0
N784 N 0.46017 0.46226 0.75638 0.0
N785 N 0.50894 0.53468 0.74552 0.0
H786 H 0.6037 0.07866 0.77482 0.0
H787 H 0.48789 -0.00019 0.69141 0.0
H788 H 0.54511 0.9923 0.77929 0.0
H789 H 0.53539 0.08915 0.69348 0.0
H790 H 0.5157 0.99496 0.71947 0.0
H791 H 0.58597 0.08083 0.74096 0.0
C792 C 0.58744 0.06001 0.76854 0.0
C793 C 0.57562 0.03535 0.77999 0.0
C794 C 0.52028 0.01559 0.71357 0.0
C795 C 0.55506 0.03776 0.74134 0.0
C796 C 0.50438 0.01839 0.69756 0.0
C797 C 0.50896 0.04497 0.69021 0.0
C798 C 0.54097 0.03952 0.72231 0.0
C799 C 0.53109 0.06822 0.69852 0.0
C800 C 0.57721 0.06131 0.74926 0.0
C801 C 0.55445 0.01189 0.77113 0.0
N802 N 0.54601 0.06497 0.71427 0.0
N803 N 0.5447 0.01373 0.75241 0.0
loop_
_geom_bond_atom_site_label_1
_geom_bond_atom_site_label_2
_geom_bond_distance
_geom_bond_site_symmetry_2
_ccdc_geom_bond_type
C0 C1 1.264 . S
C0 C5 1.479 . S
C0 C10 1.465 . S
C1 C0 1.264 . S
C1 C3 1.339 . S
C1 H28 0.931 . S
C2 C3 1.395 . S
C2 C4 1.320 . S
C3 C1 1.339 . S
C3 C2 1.395 . S
C3 H29 0.929 . S
C4 C2 1.320 . S
C4 C5 1.405 . S
C4 H30 0.930 . S
C5 C0 1.479 . S
C5 C4 1.405 . S
C5 H31 0.931 . S
U6 O7 2.454 . S
U6 O8 2.458 1_455 S
U6 C9 2.984 1_455 S
U6 C10 2.847 . S
U6 C23 2.882 1_455 S
U6 O24 2.441 . S
U6 O25 2.420 . S
U6 O26 2.455 1_455 S
U6 O27 2.449 . S
O7 U6 2.454 . S
O7 C9 1.353 1_455 S
O8 U6 2.458 1_655 S
O8 C9 1.286 . S
C9 U6 2.984 1_655 S
C9 O7 1.353 1_655 S
C9 O8 1.286 . S
C9 C11 1.363 . S
C10 C0 1.465 . S
C10 U6 2.847 . S
C10 O24 1.249 . S
C10 O25 1.202 . S
C11 C9 1.363 . S
C11 C13 1.408 1_655 S
C11 C16 1.342 . S
C12 C13 1.310 1_655 S
C12 C15 1.461 . S
C12 H32 0.932 1_655 S
C13 C11 1.408 1_455 S
C13 C12 1.310 1_455 S
C13 H33 0.930 . S
C14 C15 1.474 . S
C14 C16 1.285 . S
C14 H34 0.929 . S
C15 C12 1.461 . S
C15 C14 1.474 . S
C16 C11 1.342 . S
C16 C14 1.285 . S
C16 H35 0.930 . S
C17 C20 1.424 . S
C17 C22 1.245 . S
C17 C23 1.428 . S
C18 C21 1.260 . S
C18 C22 1.477 . S
C18 H36 0.932 . S
C19 C20 1.384 . S
C19 C21 1.479 . S
C19 H37 0.929 . S
C20 C17 1.424 . S
C20 C19 1.384 . S
C20 H38 0.928 . S
C21 C18 1.260 . S
C21 C19 1.479 . S
C22 C17 1.245 . S
C22 C18 1.477 . S
C22 H39 0.932 . S
C23 U6 2.882 1_655 S
C23 C17 1.428 . S
C23 O26 1.301 . S
C23 O27 1.282 1_655 S
O24 U6 2.441 . S
O24 C10 1.249 . S
O25 U6 2.420 . S
O25 C10 1.202 . S
O26 U6 2.455 1_655 S
O26 C23 1.301 . S
O27 U6 2.449 . S
O27 C23 1.282 1_455 S
H28 C1 0.931 . S
H29 C3 0.929 . S
H30 C4 0.930 . S
H31 C5 0.931 . S
H32 C12 0.932 1_455 S
H33 C13 0.930 . S
H34 C14 0.929 . S
H35 C16 0.930 . S
H36 C18 0.932 . S
H37 C19 0.929 . S
H38 C20 0.928 . S
H39 C22 0.932 . S
C40 C41 1.264 . S
C40 C45 1.479 . S
C40 C50 1.465 . S
C41 C40 1.264 . S
C41 C43 1.339 . S
C41 H68 0.931 . S
C42 C43 1.395 . S
C42 C44 1.320 . S
C43 C41 1.339 . S
C43 C42 1.395 . S
C43 H69 0.929 . S
C44 C42 1.320 . S
C44 C45 1.405 . S
C44 H70 0.930 . S
C45 C40 1.479 . S
C45 C44 1.405 . S
C45 H71 0.931 . S
U46 O47 2.454 . S
U46 O48 2.458 . S
U46 C49 2.984 . S
U46 C50 2.847 . S
U46 C63 2.882 . S
U46 O64 2.441 . S
U46 O65 2.420 . S
U46 O66 2.455 . S
U46 O67 2.449 . S
O47 U46 2.454 . S
O47 C49 1.353 . S
O48 U46 2.458 . S
O48 C49 1.286 . S
C49 U46 2.984 . S
C49 O47 1.353 . S
C49 O48 1.286 . S
C49 C51 1.363 . S
C50 C40 1.465 . S
C50 U46 2.847 . S
C50 O64 1.249 . S
C50 O65 1.202 . S
C51 C49 1.363 . S
C51 C53 1.408 . S
C51 C56 1.342 . S
C52 C53 1.310 . S
C52 C55 1.461 . S
C52 H72 0.932 . S
C53 C51 1.408 . S
C53 C52 1.310 . S
C53 H73 0.930 . S
C54 C55 1.474 . S
C54 C56 1.285 . S
C54 H74 0.929 . S
C55 C52 1.461 . S
C55 C54 1.474 . S
C56 C51 1.342 . S
C56 C54 1.285 . S
C56 H75 0.930 . S
C57 C60 1.424 . S
C57 C62 1.245 . S
C57 C63 1.428 . S
C58 C61 1.260 . S
C58 C62 1.477 . S
C58 H76 0.932 . S
C59 C60 1.384 . S
C59 C61 1.479 . S
C59 H77 0.929 . S
C60 C57 1.424 . S
C60 C59 1.384 . S
C60 H78 0.928 . S
C61 C58 1.260 . S
C61 C59 1.479 . S
C62 C57 1.245 . S
C62 C58 1.477 . S
C62 H79 0.932 . S
C63 U46 2.882 . S
C63 C57 1.428 . S
C63 O66 1.301 . S
C63 O67 1.282 . S
O64 U46 2.441 . S
O64 C50 1.249 . S
O65 U46 2.420 . S
O65 C50 1.202 . S
O66 U46 2.455 . S
O66 C63 1.301 . S
O67 U46 2.449 . S
O67 C63 1.282 . S
H68 C41 0.931 . S
H69 C43 0.929 . S
H70 C44 0.930 . S
H71 C45 0.931 . S
H72 C52 0.932 . S
H73 C53 0.930 . S
H74 C54 0.929 . S
H75 C56 0.930 . S
H76 C58 0.932 . S
H77 C59 0.929 . S
H78 C60 0.928 . S
H79 C62 0.932 . S
C80 C81 1.264 . S
C80 C85 1.479 . S
C80 C90 1.465 . S
C81 C80 1.264 . S
C81 C83 1.339 . S
C81 H108 0.931 . S
C82 C83 1.395 . S
C82 C84 1.320 . S
C83 C81 1.339 . S
C83 C82 1.395 . S
C83 H109 0.929 . S
C84 C82 1.320 . S
C84 C85 1.405 . S
C84 H110 0.930 . S
C85 C80 1.479 . S
C85 C84 1.405 . S
C85 H111 0.931 . S
U86 O87 2.454 . S
U86 O88 2.458 1_565 S
U86 C89 2.984 1_565 S
U86 C90 2.847 . S
U86 C103 2.882 1_565 S
U86 O104 2.441 . S
U86 O105 2.420 . S
U86 O106 2.455 1_565 S
U86 O107 2.449 . S
O87 U86 2.454 . S
O87 C89 1.353 1_565 S
O88 U86 2.458 1_545 S
O88 C89 1.286 . S
C89 U86 2.984 1_545 S
C89 O87 1.353 1_545 S
C89 O88 1.286 . S
C89 C91 1.363 . S
C90 C80 1.465 . S
C90 U86 2.847 . S
C90 O104 1.249 . S
C90 O105 1.202 . S
C91 C89 1.363 . S
C91 C93 1.408 1_545 S
C91 C96 1.342 . S
C92 C93 1.310 1_545 S
C92 C95 1.461 . S
C92 H112 0.932 1_545 S
C93 C91 1.408 1_565 S
C93 C92 1.310 1_565 S
C93 H113 0.930 . S
C94 C95 1.474 . S
C94 C96 1.285 . S
C94 H114 0.929 . S
C95 C92 1.461 . S
C95 C94 1.474 . S
C96 C91 1.342 . S
C96 C94 1.285 . S
C96 H115 0.930 . S
C97 C100 1.424 . S
C97 C102 1.245 . S
C97 C103 1.428 . S
C98 C101 1.260 . S
C98 C102 1.477 . S
C98 H116 0.932 . S
C99 C100 1.384 . S
C99 C101 1.479 . S
C99 H117 0.929 . S
C100 C97 1.424 . S
C100 C99 1.384 . S
C100 H118 0.928 . S
C101 C98 1.260 . S
C101 C99 1.479 . S
C102 C97 1.245 . S
C102 C98 1.477 . S
C102 H119 0.932 . S
C103 U86 2.882 1_545 S
C103 C97 1.428 . S
C103 O106 1.301 . S
C103 O107 1.282 1_545 S
O104 U86 2.441 . S
O104 C90 1.249 . S
O105 U86 2.420 . S
O105 C90 1.202 . S
O106 U86 2.455 1_545 S
O106 C103 1.301 . S
O107 U86 2.449 . S
O107 C103 1.282 1_565 S
H108 C81 0.931 . S
H109 C83 0.929 . S
H110 C84 0.930 . S
H111 C85 0.931 . S
H112 C92 0.932 1_565 S
H113 C93 0.930 . S
H114 C94 0.929 . S
H115 C96 0.930 . S
H116 C98 0.932 . S
H117 C99 0.929 . S
H118 C100 0.928 . S
H119 C102 0.932 . S
C120 C121 1.264 . S
C120 C125 1.479 . S
C120 C130 1.465 . S
C121 C120 1.264 . S
C121 C123 1.339 . S
C121 H148 0.931 . S
C122 C123 1.395 . S
C122 C124 1.320 . S
C123 C121 1.339 . S
C123 C122 1.395 . S
C123 H149 0.929 . S
C124 C122 1.320 . S
C124 C125 1.405 . S
C124 H150 0.930 . S
C125 C120 1.479 . S
C125 C124 1.405 . S
C125 H151 0.931 . S
U126 O127 2.454 . S
U126 O128 2.458 1_565 S
U126 C129 2.984 1_565 S
U126 C130 2.847 . S
U126 C143 2.882 1_565 S
U126 O144 2.441 . S
U126 O145 2.420 . S
U126 O146 2.455 1_565 S
U126 O147 2.449 . S
O127 U126 2.454 . S
O127 C129 1.353 1_565 S
O128 U126 2.458 1_545 S
O128 C129 1.286 . S
C129 U126 2.984 1_545 S
C129 O127 1.353 1_545 S
C129 O128 1.286 . S
C129 C131 1.363 . S
C130 C120 1.465 . S
C130 U126 2.847 . S
C130 O144 1.249 . S
C130 O145 1.202 . S
C131 C129 1.363 . S
C131 C133 1.408 1_545 S
C131 C136 1.342 . S
C132 C133 1.310 1_545 S
C132 C135 1.461 . S
C132 H152 0.932 1_545 S
C133 C131 1.408 1_565 S
C133 C132 1.310 1_565 S
C133 H153 0.930 . S
C134 C135 1.474 . S
C134 C136 1.285 . S
C134 H154 0.929 . S
C135 C132 1.461 . S
C135 C134 1.474 . S
C136 C131 1.342 . S
C136 C134 1.285 . S
C136 H155 0.930 . S
C137 C140 1.424 . S
C137 C142 1.245 . S
C137 C143 1.428 . S
C138 C141 1.260 . S
C138 C142 1.477 . S
C138 H156 0.932 . S
C139 C140 1.384 . S
C139 C141 1.479 . S
C139 H157 0.929 . S
C140 C137 1.424 . S
C140 C139 1.384 . S
C140 H158 0.928 . S
C141 C138 1.260 . S
C141 C139 1.479 . S
C142 C137 1.245 . S
C142 C138 1.477 . S
C142 H159 0.932 . S
C143 U126 2.882 1_545 S
C143 C137 1.428 . S
C143 O146 1.301 . S
C143 O147 1.282 1_545 S
O144 U126 2.441 . S
O144 C130 1.249 . S
O145 U126 2.420 . S
O145 C130 1.202 . S
O146 U126 2.455 1_545 S
O146 C143 1.301 . S
O147 U126 2.449 . S
O147 C143 1.282 1_565 S
H148 C121 0.931 . S
H149 C123 0.929 . S
H150 C124 0.930 . S
H151 C125 0.931 . S
H152 C132 0.932 1_565 S
H153 C133 0.930 . S
H154 C134 0.929 . S
H155 C136 0.930 . S
H156 C138 0.932 . S
H157 C139 0.929 . S
H158 C140 0.928 . S
H159 C142 0.932 . S
C160 C161 1.264 . S
C160 C165 1.479 . S
C160 C170 1.465 . S
C161 C160 1.264 . S
C161 C163 1.339 . S
C161 H188 0.931 . S
C162 C163 1.395 . S
C162 C164 1.320 . S
C163 C161 1.339 . S
C163 C162 1.395 . S
C163 H189 0.929 . S
C164 C162 1.320 . S
C164 C165 1.405 . S
C164 H190 0.930 . S
C165 C160 1.479 . S
C165 C164 1.405 . S
C165 H191 0.931 . S
U166 O167 2.454 . S
U166 O168 2.458 1_455 S
U166 C169 2.984 1_455 S
U166 C170 2.847 . S
U166 C183 2.882 1_455 S
U166 O184 2.441 . S
U166 O185 2.420 . S
U166 O186 2.455 1_455 S
U166 O187 2.449 . S
O167 U166 2.454 . S
O167 C169 1.353 1_455 S
O168 U166 2.458 1_655 S
O168 C169 1.286 . S
C169 U166 2.984 1_655 S
C169 O167 1.353 1_655 S
C169 O168 1.286 . S
C169 C171 1.363 . S
C170 C160 1.465 . S
C170 U166 2.847 . S
C170 O184 1.249 . S
C170 O185 1.202 . S
C171 C169 1.363 . S
C171 C173 1.408 1_655 S
C171 C176 1.342 . S
C172 C173 1.310 1_655 S
C172 C175 1.461 . S
C172 H192 0.932 1_655 S
C173 C171 1.408 1_455 S
C173 C172 1.310 1_455 S
C173 H193 0.930 . S
C174 C175 1.474 . S
C174 C176 1.285 . S
C174 H194 0.929 . S
C175 C172 1.461 . S
C175 C174 1.474 . S
C176 C171 1.342 . S
C176 C174 1.285 . S
C176 H195 0.930 . S
C177 C180 1.424 . S
C177 C182 1.245 . S
C177 C183 1.428 . S
C178 C181 1.260 . S
C178 C182 1.477 . S
C178 H196 0.932 . S
C179 C180 1.384 . S
C179 C181 1.479 . S
C179 H197 0.929 . S
C180 C177 1.424 . S
C180 C179 1.384 . S
C180 H198 0.928 . S
C181 C178 1.260 . S
C181 C179 1.479 . S
C182 C177 1.245 . S
C182 C178 1.477 . S
C182 H199 0.932 . S
C183 U166 2.882 1_655 S
C183 C177 1.428 . S
C183 O186 1.301 . S
C183 O187 1.282 1_655 S
O184 U166 2.441 . S
O184 C170 1.249 . S
O185 U166 2.420 . S
O185 C170 1.202 . S
O186 U166 2.455 1_655 S
O186 C183 1.301 . S
O187 U166 2.449 . S
O187 C183 1.282 1_455 S
H188 C161 0.931 . S
H189 C163 0.929 . S
H190 C164 0.930 . S
H191 C165 0.931 . S
H192 C172 0.932 1_455 S
H193 C173 0.930 . S
H194 C174 0.929 . S
H195 C176 0.930 . S
H196 C178 0.932 . S
H197 C179 0.929 . S
H198 C180 0.928 . S
H199 C182 0.932 . S
C200 C201 1.264 . S
C200 C205 1.479 . S
C200 C210 1.465 . S
C201 C200 1.264 . S
C201 C203 1.339 . S
C201 H228 0.931 . S
C202 C203 1.395 . S
C202 C204 1.320 . S
C203 C201 1.339 . S
C203 C202 1.395 . S
C203 H229 0.929 . S
C204 C202 1.320 . S
C204 C205 1.405 . S
C204 H230 0.930 . S
C205 C200 1.479 . S
C205 C204 1.405 . S
C205 H231 0.931 . S
U206 O207 2.454 . S
U206 O208 2.458 . S
U206 C209 2.984 . S
U206 C210 2.847 . S
U206 C223 2.882 . S
U206 O224 2.441 . S
U206 O225 2.420 . S
U206 O226 2.455 . S
U206 O227 2.449 . S
O207 U206 2.454 . S
O207 C209 1.353 . S
O208 U206 2.458 . S
O208 C209 1.286 . S
C209 U206 2.984 . S
C209 O207 1.353 . S
C209 O208 1.286 . S
C209 C211 1.363 . S
C210 C200 1.465 . S
C210 U206 2.847 . S
C210 O224 1.249 . S
C210 O225 1.202 . S
C211 C209 1.363 . S
C211 C213 1.408 . S
C211 C216 1.342 . S
C212 C213 1.310 . S
C212 C215 1.461 . S
C212 H232 0.932 . S
C213 C211 1.408 . S
C213 C212 1.310 . S
C213 H233 0.930 . S
C214 C215 1.474 . S
C214 C216 1.285 . S
C214 H234 0.929 . S
C215 C212 1.461 . S
C215 C214 1.474 . S
C216 C211 1.342 . S
C216 C214 1.285 . S
C216 H235 0.930 . S
C217 C220 1.424 . S
C217 C222 1.245 . S
C217 C223 1.428 . S
C218 C221 1.260 . S
C218 C222 1.477 . S
C218 H236 0.932 . S
C219 C220 1.384 . S
C219 C221 1.479 . S
C219 H237 0.929 . S
C220 C217 1.424 . S
C220 C219 1.384 . S
C220 H238 0.928 . S
C221 C218 1.260 . S
C221 C219 1.479 . S
C222 C217 1.245 . S
C222 C218 1.477 . S
C222 H239 0.932 . S
C223 U206 2.882 . S
C223 C217 1.428 . S
C223 O226 1.301 . S
C223 O227 1.282 . S
O224 U206 2.441 . S
O224 C210 1.249 . S
O225 U206 2.420 . S
O225 C210 1.202 . S
O226 U206 2.455 . S
O226 C223 1.301 . S
O227 U206 2.449 . S
O227 C223 1.282 . S
H228 C201 0.931 . S
H229 C203 0.929 . S
H230 C204 0.930 . S
H231 C205 0.931 . S
H232 C212 0.932 . S
H233 C213 0.930 . S
H234 C214 0.929 . S
H235 C216 0.930 . S
H236 C218 0.932 . S
H237 C219 0.929 . S
H238 C220 0.928 . S
H239 C222 0.932 . S
C240 C241 1.264 . S
C240 C245 1.479 . S
C240 C250 1.465 . S
C241 C240 1.264 . S
C241 C243 1.339 . S
C241 H268 0.931 . S
C242 C243 1.395 . S
C242 C244 1.320 . S
C243 C241 1.339 . S
C243 C242 1.395 . S
C243 H269 0.929 . S
C244 C242 1.320 . S
C244 C245 1.405 . S
C244 H270 0.930 . S
C245 C240 1.479 . S
C245 C244 1.405 . S
C245 H271 0.931 . S
U246 O247 2.454 1_455 S
U246 O248 2.458 . S
U246 C249 2.984 . S
U246 C250 2.847 1_455 S
U246 C263 2.882 . S
U246 O264 2.441 1_455 S
U246 O265 2.420 1_455 S
U246 O266 2.455 . S
U246 O267 2.449 . S
O247 U246 2.454 1_655 S
O247 C249 1.353 1_655 S
O248 U246 2.458 . S
O248 C249 1.286 . S
C249 U246 2.984 . S
C249 O247 1.353 1_455 S
C249 O248 1.286 . S
C249 C251 1.363 . S
C250 C240 1.465 . S
C250 U246 2.847 1_655 S
C250 O264 1.249 . S
C250 O265 1.202 . S
C251 C249 1.363 . S
C251 C253 1.408 . S
C251 C256 1.342 . S
C252 C253 1.310 . S
C252 C255 1.461 . S
C252 H272 0.932 1_455 S
C253 C251 1.408 . S
C253 C252 1.310 . S
C253 H273 0.930 1_455 S
C254 C255 1.474 . S
C254 C256 1.285 . S
C254 H274 0.929 . S
C255 C252 1.461 . S
C255 C254 1.474 . S
C256 C251 1.342 . S
C256 C254 1.285 . S
C256 H275 0.930 . S
C257 C260 1.424 . S
C257 C262 1.245 . S
C257 C263 1.428 . S
C258 C261 1.260 . S
C258 C262 1.477 . S
C258 H276 0.932 . S
C259 C260 1.384 . S
C259 C261 1.479 . S
C259 H277 0.929 . S
C260 C257 1.424 . S
C260 C259 1.384 . S
C260 H278 0.928 . S
C261 C258 1.260 . S
C261 C259 1.479 . S
C262 C257 1.245 . S
C262 C258 1.477 . S
C262 H279 0.932 . S
C263 U246 2.882 . S
C263 C257 1.428 . S
C263 O266 1.301 . S
C263 O267 1.282 . S
O264 U246 2.441 1_655 S
O264 C250 1.249 . S
O265 U246 2.420 1_655 S
O265 C250 1.202 . S
O266 U246 2.455 . S
O266 C263 1.301 . S
O267 U246 2.449 . S
O267 C263 1.282 . S
H268 C241 0.931 . S
H269 C243 0.929 . S
H270 C244 0.930 . S
H271 C245 0.931 . S
H272 C252 0.932 1_655 S
H273 C253 0.930 1_655 S
H274 C254 0.929 . S
H275 C256 0.930 . S
H276 C258 0.932 . S
H277 C259 0.929 . S
H278 C260 0.928 . S
H279 C262 0.932 . S
C280 C281 1.264 . S
C280 C285 1.479 . S
C280 C290 1.465 . S
C281 C280 1.264 . S
C281 C283 1.339 . S
C281 H308 0.931 . S
C282 C283 1.395 . S
C282 C284 1.320 . S
C283 C281 1.339 . S
C283 C282 1.395 . S
C283 H309 0.929 . S
C284 C282 1.320 . S
C284 C285 1.405 . S
C284 H310 0.930 . S
C285 C280 1.479 . S
C285 C284 1.405 . S
C285 H311 0.931 . S
U286 O287 2.454 . S
U286 O288 2.458 . S
U286 C289 2.984 . S
U286 C290 2.847 . S
U286 C303 2.882 . S
U286 O304 2.441 . S
U286 O305 2.420 . S
U286 O306 2.455 . S
U286 O307 2.449 . S
O287 U286 2.454 . S
O287 C289 1.353 . S
O288 U286 2.458 . S
O288 C289 1.286 . S
C289 U286 2.984 . S
C289 O287 1.353 . S
C289 O288 1.286 . S
C289 C291 1.363 . S
C290 C280 1.465 . S
C290 U286 2.847 . S
C290 O304 1.249 . S
C290 O305 1.202 . S
C291 C289 1.363 . S
C291 C293 1.408 . S
C291 C296 1.342 . S
C292 C293 1.310 . S
C292 C295 1.461 . S
C292 H312 0.932 . S
C293 C291 1.408 . S
C293 C292 1.310 . S
C293 H313 0.930 . S
C294 C295 1.474 . S
C294 C296 1.285 . S
C294 H314 0.929 . S
C295 C292 1.461 . S
C295 C294 1.474 . S
C296 C291 1.342 . S
C296 C294 1.285 . S
C296 H315 0.930 . S
C297 C300 1.424 . S
C297 C302 1.245 . S
C297 C303 1.428 . S
C298 C301 1.260 . S
C298 C302 1.477 . S
C298 H316 0.932 . S
C299 C300 1.384 . S
C299 C301 1.479 . S
C299 H317 0.929 . S
C300 C297 1.424 . S
C300 C299 1.384 . S
C300 H318 0.928 . S
C301 C298 1.260 . S
C301 C299 1.479 . S
C302 C297 1.245 . S
C302 C298 1.477 . S
C302 H319 0.932 . S
C303 U286 2.882 . S
C303 C297 1.428 . S
C303 O306 1.301 . S
C303 O307 1.282 . S
O304 U286 2.441 . S
O304 C290 1.249 . S
O305 U286 2.420 . S
O305 C290 1.202 . S
O306 U286 2.455 . S
O306 C303 1.301 . S
O307 U286 2.449 . S
O307 C303 1.282 . S
H308 C281 0.931 . S
H309 C283 0.929 . S
H310 C284 0.930 . S
H311 C285 0.931 . S
H312 C292 0.932 . S
H313 C293 0.930 . S
H314 C294 0.929 . S
H315 C296 0.930 . S
H316 C298 0.932 . S
H317 C299 0.929 . S
H318 C300 0.928 . S
H319 C302 0.932 . S
C320 C321 1.264 . S
C320 C325 1.479 . S
C320 C330 1.465 . S
C321 C320 1.264 . S
C321 C323 1.339 . S
C321 H348 0.931 . S
C322 C323 1.395 . S
C322 C324 1.320 . S
C323 C321 1.339 . S
C323 C322 1.395 . S
C323 H349 0.929 . S
C324 C322 1.320 . S
C324 C325 1.405 . S
C324 H350 0.930 . S
C325 C320 1.479 . S
C325 C324 1.405 . S
C325 H351 0.931 . S
U326 O327 2.456 . S
U326 O328 2.458 . S
U326 C329 2.984 . S
U326 C330 2.847 1_565 S
U326 C343 2.882 . S
U326 O344 2.441 1_565 S
U326 O345 2.420 1_565 S
U326 O346 2.455 . S
U326 O347 2.449 . S
O327 U326 2.456 . S
O327 C329 1.355 . S
O328 U326 2.458 . S
O328 C329 1.286 . S
C329 U326 2.984 . S
C329 O327 1.355 . S
C329 O328 1.286 . S
C329 C331 1.363 . S
C330 C320 1.465 . S
C330 U326 2.847 1_545 S
C330 O344 1.249 . S
C330 O345 1.202 . S
C331 C329 1.363 . S
C331 C333 1.408 . S
C331 C336 1.342 . S
C332 C333 1.310 . S
C332 C335 1.461 . S
C332 H352 0.933 . S
C333 C331 1.408 . S
C333 C332 1.310 . S
C333 H353 0.930 1_565 S
C334 C335 1.474 . S
C334 C336 1.285 . S
C334 H354 0.929 . S
C335 C332 1.461 . S
C335 C334 1.474 . S
C336 C331 1.342 . S
C336 C334 1.285 . S
C336 H355 0.930 . S
C337 C340 1.424 . S
C337 C342 1.245 . S
C337 C343 1.428 . S
C338 C341 1.260 . S
C338 C342 1.477 . S
C338 H356 0.932 . S
C339 C340 1.384 . S
C339 C341 1.479 . S
C339 H357 0.929 . S
C340 C337 1.424 . S
C340 C339 1.384 . S
C340 H358 0.928 . S
C341 C338 1.260 . S
C341 C339 1.479 . S
C342 C337 1.245 . S
C342 C338 1.477 . S
C342 H359 0.932 . S
C343 U326 2.882 . S
C343 C337 1.428 . S
C343 O346 1.301 . S
C343 O347 1.282 . S
O344 U326 2.441 1_545 S
O344 C330 1.249 . S
O345 U326 2.420 1_545 S
O345 C330 1.202 . S
O346 U326 2.455 . S
O346 C343 1.301 . S
O347 U326 2.449 . S
O347 C343 1.282 . S
H348 C321 0.931 . S
H349 C323 0.929 . S
H350 C324 0.930 . S
H351 C325 0.931 . S
H352 C332 0.933 . S
H353 C333 0.930 1_545 S
H354 C334 0.929 . S
H355 C336 0.930 . S
H356 C338 0.932 . S
H357 C339 0.929 . S
H358 C340 0.928 . S
H359 C342 0.932 . S
C360 C361 1.264 . S
C360 C365 1.479 . S
C360 C370 1.465 . S
C361 C360 1.264 . S
C361 C363 1.339 . S
C361 H388 0.931 . S
C362 C363 1.395 . S
C362 C364 1.320 . S
C363 C361 1.339 . S
C363 C362 1.395 . S
C363 H389 0.929 . S
C364 C362 1.320 . S
C364 C365 1.405 . S
C364 H390 0.930 . S
C365 C360 1.479 . S
C365 C364 1.405 . S
C365 H391 0.931 . S
U366 O367 2.454 1_565 S
U366 O368 2.458 . S
U366 C369 2.984 . S
U366 C370 2.847 1_565 S
U366 C383 2.882 . S
U366 O384 2.441 1_565 S
U366 O385 2.420 1_565 S
U366 O386 2.455 . S
U366 O387 2.449 . S
O367 U366 2.454 1_545 S
O367 C369 1.353 1_545 S
O368 U366 2.458 . S
O368 C369 1.286 . S
C369 U366 2.984 . S
C369 O367 1.353 1_565 S
C369 O368 1.286 . S
C369 C371 1.363 . S
C370 C360 1.465 . S
C370 U366 2.847 1_545 S
C370 O384 1.249 . S
C370 O385 1.202 . S
C371 C369 1.363 . S
C371 C373 1.408 . S
C371 C376 1.342 . S
C372 C373 1.310 . S
C372 C375 1.461 . S
C372 H392 0.932 1_565 S
C373 C371 1.408 . S
C373 C372 1.310 . S
C373 H393 0.930 1_565 S
C374 C375 1.474 . S
C374 C376 1.285 . S
C374 H394 0.929 . S
C375 C372 1.461 . S
C375 C374 1.474 . S
C376 C371 1.342 . S
C376 C374 1.285 . S
C376 H395 0.930 . S
C377 C380 1.424 . S
C377 C382 1.245 . S
C377 C383 1.428 . S
C378 C381 1.260 . S
C378 C382 1.477 . S
C378 H396 0.932 . S
C379 C380 1.384 . S
C379 C381 1.479 . S
C379 H397 0.929 . S
C380 C377 1.424 . S
C380 C379 1.384 . S
C380 H398 0.928 . S
C381 C378 1.260 . S
C381 C379 1.479 . S
C382 C377 1.245 . S
C382 C378 1.477 . S
C382 H399 0.932 . S
C383 U366 2.882 . S
C383 C377 1.428 . S
C383 O386 1.301 . S
C383 O387 1.282 . S
O384 U366 2.441 1_545 S
O384 C370 1.249 . S
O385 U366 2.420 1_545 S
O385 C370 1.202 . S
O386 U366 2.455 . S
O386 C383 1.301 . S
O387 U366 2.449 . S
O387 C383 1.282 . S
H388 C361 0.931 . S
H389 C363 0.929 . S
H390 C364 0.930 . S
H391 C365 0.931 . S
H392 C372 0.932 1_545 S
H393 C373 0.930 1_545 S
H394 C374 0.929 . S
H395 C376 0.930 . S
H396 C378 0.932 . S
H397 C379 0.929 . S
H398 C380 0.928 . S
H399 C382 0.932 . S
C400 C401 1.264 . S
C400 C405 1.479 . S
C400 C410 1.465 . S
C401 C400 1.264 . S
C401 C403 1.339 . S
C401 H428 0.931 . S
C402 C403 1.395 . S
C402 C404 1.320 . S
C403 C401 1.339 . S
C403 C402 1.395 . S
C403 H429 0.929 . S
C404 C402 1.320 . S
C404 C405 1.405 . S
C404 H430 0.930 . S
C405 C400 1.479 . S
C405 C404 1.405 . S
C405 H431 0.931 . S
U406 O407 2.456 . S
U406 O408 2.458 . S
U406 C409 2.984 . S
U406 C410 2.847 1_455 S
U406 C423 2.882 . S
U406 O424 2.441 1_455 S
U406 O425 2.420 1_455 S
U406 O426 2.455 . S
U406 O427 2.449 . S
O407 U406 2.456 . S
O407 C409 1.355 . S
O408 U406 2.458 . S
O408 C409 1.286 . S
C409 U406 2.984 . S
C409 O407 1.355 . S
C409 O408 1.286 . S
C409 C411 1.363 . S
C410 C400 1.465 . S
C410 U406 2.847 1_655 S
C410 O424 1.249 . S
C410 O425 1.202 . S
C411 C409 1.363 . S
C411 C413 1.408 . S
C411 C416 1.342 . S
C412 C413 1.310 . S
C412 C415 1.461 . S
C412 H432 0.933 . S
C413 C411 1.408 . S
C413 C412 1.310 . S
C413 H433 0.930 1_455 S
C414 C415 1.474 . S
C414 C416 1.285 . S
C414 H434 0.929 . S
C415 C412 1.461 . S
C415 C414 1.474 . S
C416 C411 1.342 . S
C416 C414 1.285 . S
C416 H435 0.930 . S
C417 C420 1.424 . S
C417 C422 1.245 . S
C417 C423 1.428 . S
C418 C421 1.260 . S
C418 C422 1.477 . S
C418 H436 0.932 . S
C419 C420 1.384 . S
C419 C421 1.479 . S
C419 H437 0.929 . S
C420 C417 1.424 . S
C420 C419 1.384 . S
C420 H438 0.928 . S
C421 C418 1.260 . S
C421 C419 1.479 . S
C422 C417 1.245 . S
C422 C418 1.477 . S
C422 H439 0.932 . S
C423 U406 2.882 . S
C423 C417 1.428 . S
C423 O426 1.301 . S
C423 O427 1.282 . S
O424 U406 2.441 1_655 S
O424 C410 1.249 . S
O425 U406 2.420 1_655 S
O425 C410 1.202 . S
O426 U406 2.455 . S
O426 C423 1.301 . S
O427 U406 2.449 . S
O427 C423 1.282 . S
H428 C401 0.931 . S
H429 C403 0.929 . S
H430 C404 0.930 . S
H431 C405 0.931 . S
H432 C412 0.933 . S
H433 C413 0.930 1_655 S
H434 C414 0.929 . S
H435 C416 0.930 . S
H436 C418 0.932 . S
H437 C419 0.929 . S
H438 C420 0.928 . S
H439 C422 0.932 . S
C440 C441 1.264 . S
C440 C445 1.479 . S
C440 C450 1.465 . S
C441 C440 1.264 . S
C441 C443 1.339 . S
C441 H468 0.931 . S
C442 C443 1.395 . S
C442 C444 1.320 . S
C443 C441 1.339 . S
C443 C442 1.395 . S
C443 H469 0.929 . S
C444 C442 1.320 . S
C444 C445 1.405 . S
C444 H470 0.930 . S
C445 C440 1.479 . S
C445 C444 1.405 . S
C445 H471 0.931 . S
U446 O447 2.454 . S
U446 O448 2.458 . S
U446 C449 2.984 . S
U446 C450 2.847 . S
U446 C463 2.882 . S
U446 O464 2.441 . S
U446 O465 2.420 . S
U446 O466 2.455 . S
U446 O467 2.449 . S
O447 U446 2.454 . S
O447 C449 1.353 . S
O448 U446 2.458 . S
O448 C449 1.286 . S
C449 U446 2.984 . S
C449 O447 1.353 . S
C449 O448 1.286 . S
C449 C451 1.363 . S
C450 C440 1.465 . S
C450 U446 2.847 . S
C450 O464 1.249 . S
C450 O465 1.202 . S
C451 C449 1.363 . S
C451 C453 1.408 . S
C451 C456 1.342 . S
C452 C453 1.310 . S
C452 C455 1.461 . S
C452 H472 0.932 . S
C453 C451 1.408 . S
C453 C452 1.310 . S
C453 H473 0.930 . S
C454 C455 1.474 . S
C454 C456 1.285 . S
C454 H474 0.929 . S
C455 C452 1.461 . S
C455 C454 1.474 . S
C456 C451 1.342 . S
C456 C454 1.285 . S
C456 H475 0.930 . S
C457 C460 1.424 . S
C457 C462 1.245 . S
C457 C463 1.428 . S
C458 C461 1.260 . S
C458 C462 1.477 . S
C458 H476 0.932 . S
C459 C460 1.384 . S
C459 C461 1.479 . S
C459 H477 0.929 . S
C460 C457 1.424 . S
C460 C459 1.384 . S
C460 H478 0.928 . S
C461 C458 1.260 . S
C461 C459 1.479 . S
C462 C457 1.245 . S
C462 C458 1.477 . S
C462 H479 0.932 . S
C463 U446 2.882 . S
C463 C457 1.428 . S
C463 O466 1.301 . S
C463 O467 1.282 . S
O464 U446 2.441 . S
O464 C450 1.249 . S
O465 U446 2.420 . S
O465 C450 1.202 . S
O466 U446 2.455 . S
O466 C463 1.301 . S
O467 U446 2.449 . S
O467 C463 1.282 . S
H468 C441 0.931 . S
H469 C443 0.929 . S
H470 C444 0.930 . S
H471 C445 0.931 . S
H472 C452 0.932 . S
H473 C453 0.930 . S
H474 C454 0.929 . S
H475 C456 0.930 . S
H476 C458 0.932 . S
H477 C459 0.929 . S
H478 C460 0.928 . S
H479 C462 0.932 . S
H480 C486 0.930 . S
H481 C490 0.930 . S
H482 C495 0.929 . S
H483 C493 0.929 . S
H484 C488 0.929 . S
H485 C494 0.929 . S
C486 H480 0.930 . S
C486 C487 1.367 . S
C486 C494 1.378 . S
C487 C486 1.367 . S
C487 C495 1.433 . S
C488 H484 0.929 . S
C488 C490 1.378 . S
C488 C492 1.350 . S
C489 C492 1.463 . S
C489 C494 1.350 . S
C489 N497 1.427 . S
C490 H481 0.930 . S
C490 C488 1.378 . S
C490 C491 1.367 . S
C491 C490 1.367 . S
C491 C493 1.433 . S
C492 C488 1.350 . S
C492 C489 1.463 . S
C492 N496 1.427 . S
C493 H483 0.929 . S
C493 C491 1.433 . S
C493 N496 1.384 . S
C494 H485 0.929 . S
C494 C486 1.378 . S
C494 C489 1.350 . S
C495 H482 0.929 . S
C495 C487 1.433 . S
C495 N497 1.384 . S
N496 C492 1.427 . S
N496 C493 1.384 . S
N497 C489 1.427 . S
N497 C495 1.384 . S
H498 C504 0.930 . S
H499 C508 0.930 . S
H500 C513 0.929 . S
H501 C511 0.929 . S
H502 C506 0.929 . S
H503 C512 0.929 . S
C504 H498 0.930 . S
C504 C505 1.367 . S
C504 C512 1.378 . S
C505 C504 1.367 . S
C505 C513 1.433 . S
C506 H502 0.929 . S
C506 C508 1.378 . S
C506 C510 1.350 . S
C507 C510 1.463 . S
C507 C512 1.350 . S
C507 N515 1.427 . S
C508 H499 0.930 . S
C508 C506 1.378 . S
C508 C509 1.367 . S
C509 C508 1.367 . S
C509 C511 1.433 . S
C510 C506 1.350 . S
C510 C507 1.463 . S
C510 N514 1.427 . S
C511 H501 0.929 . S
C511 C509 1.433 . S
C511 N514 1.384 . S
C512 H503 0.929 . S
C512 C504 1.378 . S
C512 C507 1.350 . S
C513 H500 0.929 . S
C513 C505 1.433 . S
C513 N515 1.384 . S
N514 C510 1.427 . S
N514 C511 1.384 . S
N515 C507 1.427 . S
N515 C513 1.384 . S
H516 C522 0.930 . S
H517 C526 0.930 . S
H518 C531 0.929 . S
H519 C529 0.929 . S
H520 C524 0.929 . S
H521 C530 0.929 . S
C522 H516 0.930 . S
C522 C523 1.367 . S
C522 C530 1.378 . S
C523 C522 1.367 . S
C523 C531 1.433 . S
C524 H520 0.929 . S
C524 C526 1.378 . S
C524 C528 1.350 . S
C525 C528 1.463 . S
C525 C530 1.350 . S
C525 N533 1.427 . S
C526 H517 0.930 . S
C526 C524 1.378 . S
C526 C527 1.367 . S
C527 C526 1.367 . S
C527 C529 1.433 . S
C528 C524 1.350 . S
C528 C525 1.463 . S
C528 N532 1.427 . S
C529 H519 0.929 . S
C529 C527 1.433 . S
C529 N532 1.384 . S
C530 H521 0.929 . S
C530 C522 1.378 . S
C530 C525 1.350 . S
C531 H518 0.929 . S
C531 C523 1.433 . S
C531 N533 1.384 . S
N532 C528 1.427 . S
N532 C529 1.384 . S
N533 C525 1.427 . S
N533 C531 1.384 . S
H534 C540 0.930 . S
H535 C544 0.930 . S
H536 C549 0.929 . S
H537 C547 0.929 . S
H538 C542 0.929 . S
H539 C548 0.929 . S
C540 H534 0.930 . S
C540 C541 1.367 . S
C540 C548 1.378 . S
C541 C540 1.367 . S
C541 C549 1.433 . S
C542 H538 0.929 . S
C542 C544 1.378 . S
C542 C546 1.350 . S
C543 C546 1.463 . S
C543 C548 1.350 . S
C543 N551 1.427 . S
C544 H535 0.930 . S
C544 C542 1.378 . S
C544 C545 1.367 . S
C545 C544 1.367 . S
C545 C547 1.433 . S
C546 C542 1.350 . S
C546 C543 1.463 . S
C546 N550 1.427 . S
C547 H537 0.929 . S
C547 C545 1.433 . S
C547 N550 1.384 . S
C548 H539 0.929 . S
C548 C540 1.378 . S
C548 C543 1.350 . S
C549 H536 0.929 . S
C549 C541 1.433 . S
C549 N551 1.384 . S
N550 C546 1.427 . S
N550 C547 1.384 . S
N551 C543 1.427 . S
N551 C549 1.384 . S
H552 C558 0.930 . S
H553 C562 0.930 . S
H554 C567 0.929 . S
H555 C565 0.929 . S
H556 C560 0.929 . S
H557 C566 0.929 . S
C558 H552 0.930 . S
C558 C559 1.367 . S
C558 C566 1.378 . S
C559 C558 1.367 . S
C559 C567 1.433 . S
C560 H556 0.929 . S
C560 C562 1.378 . S
C560 C564 1.350 . S
C561 C564 1.463 . S
C561 C566 1.350 . S
C561 N569 1.427 . S
C562 H553 0.930 . S
C562 C560 1.378 . S
C562 C563 1.367 . S
C563 C562 1.367 . S
C563 C565 1.433 . S
C564 C560 1.350 . S
C564 C561 1.463 . S
C564 N568 1.427 . S
C565 H555 0.929 . S
C565 C563 1.433 . S
C565 N568 1.384 . S
C566 H557 0.929 . S
C566 C558 1.378 . S
C566 C561 1.350 . S
C567 H554 0.929 . S
C567 C559 1.433 . S
C567 N569 1.384 . S
N568 C564 1.427 . S
N568 C565 1.384 . S
N569 C561 1.427 . S
N569 C567 1.384 . S
H570 C576 0.930 . S
H571 C580 0.930 . S
H572 C585 0.929 . S
H573 C583 0.929 . S
H574 C578 0.929 . S
H575 C584 0.929 . S
C576 H570 0.930 . S
C576 C577 1.367 . S
C576 C584 1.378 . S
C577 C576 1.367 . S
C577 C585 1.433 . S
C578 H574 0.929 . S
C578 C580 1.378 . S
C578 C582 1.350 . S
C579 C582 1.463 . S
C579 C584 1.350 . S
C579 N587 1.427 . S
C580 H571 0.930 . S
C580 C578 1.378 . S
C580 C581 1.367 . S
C581 C580 1.367 . S
C581 C583 1.433 . S
C582 C578 1.350 . S
C582 C579 1.463 . S
C582 N586 1.427 . S
C583 H573 0.929 . S
C583 C581 1.433 . S
C583 N586 1.384 . S
C584 H575 0.929 . S
C584 C576 1.378 . S
C584 C579 1.350 . S
C585 H572 0.929 . S
C585 C577 1.433 . S
C585 N587 1.384 . S
N586 C582 1.427 . S
N586 C583 1.384 . S
N587 C579 1.427 . S
N587 C585 1.384 . S
H588 C594 0.927 1_556 S
H589 C598 0.927 1_554 S
H590 C603 0.929 . S
H591 C601 0.929 . S
H592 C596 0.929 . S
H593 C602 0.929 . S
C594 H588 0.927 1_554 S
C594 C595 1.373 . S
C594 C602 1.375 1_554 S
C595 C594 1.373 . S
C595 C603 1.433 . S
C596 H592 0.929 . S
C596 C598 1.375 1_554 S
C596 C600 1.350 1_554 S
C597 C600 1.463 1_654 S
C597 C602 1.350 1_554 S
C597 N605 1.427 . S
C598 H589 0.927 1_556 S
C598 C596 1.375 1_556 S
C598 C599 1.373 . S
C599 C598 1.373 . S
C599 C601 1.433 . S
C600 C596 1.350 1_556 S
C600 C597 1.463 1_456 S
C600 N604 1.427 . S
C601 H591 0.929 . S
C601 C599 1.433 . S
C601 N604 1.384 . S
C602 H593 0.929 . S
C602 C594 1.375 1_556 S
C602 C597 1.350 1_556 S
C603 H590 0.929 . S
C603 C595 1.433 . S
C603 N605 1.384 . S
N604 C600 1.427 . S
N604 C601 1.384 . S
N605 C597 1.427 . S
N605 C603 1.384 . S
H606 C612 0.930 . S
H607 C616 0.930 . S
H608 C621 0.929 1_554 S
H609 C619 0.929 1_556 S
H610 C614 0.929 . S
H611 C620 0.929 . S
C612 H606 0.930 . S
C612 C613 1.367 . S
C612 C620 1.378 . S
C613 C612 1.367 . S
C613 C621 1.433 . S
C614 H610 0.929 . S
C614 C616 1.378 . S
C614 C618 1.350 . S
C615 C618 1.463 1_556 S
C615 C620 1.350 . S
C615 N623 1.427 1_556 S
C616 H607 0.930 . S
C616 C614 1.378 . S
C616 C617 1.367 . S
C617 C616 1.367 . S
C617 C619 1.433 . S
C618 C614 1.350 . S
C618 C615 1.463 1_554 S
C618 N622 1.427 1_554 S
C619 H609 0.929 1_554 S
C619 C617 1.433 . S
C619 N622 1.384 1_554 S
C620 H611 0.929 . S
C620 C612 1.378 . S
C620 C615 1.350 . S
C621 H608 0.929 1_556 S
C621 C613 1.433 . S
C621 N623 1.384 1_556 S
N622 C618 1.427 1_556 S
N622 C619 1.384 1_556 S
N623 C615 1.427 1_554 S
N623 C621 1.384 1_554 S
H624 C630 0.930 . S
H625 C634 0.930 . S
H626 C639 0.929 . S
H627 C637 0.929 . S
H628 C632 0.929 . S
H629 C638 0.929 . S
C630 H624 0.930 . S
C630 C631 1.367 1_565 S
C630 C638 1.378 . S
C631 C630 1.367 1_545 S
C631 C639 1.433 . S
C632 H628 0.929 . S
C632 C634 1.378 . S
C632 C636 1.350 1_545 S
C633 C636 1.463 1_544 S
C633 C638 1.350 1_545 S
C633 N641 1.427 . S
C634 H625 0.930 . S
C634 C632 1.378 . S
C634 C635 1.367 1_545 S
C635 C634 1.367 1_565 S
C635 C637 1.433 . S
C636 C632 1.350 1_565 S
C636 C633 1.463 1_566 S
C636 N640 1.427 . S
C637 H627 0.929 . S
C637 C635 1.433 . S
C637 N640 1.384 . S
C638 H629 0.929 . S
C638 C630 1.378 . S
C638 C633 1.350 1_565 S
C639 H626 0.929 . S
C639 C631 1.433 . S
C639 N641 1.384 . S
N640 C636 1.427 . S
N640 C637 1.384 . S
N641 C633 1.427 . S
N641 C639 1.384 . S
H642 C648 0.930 . S
H643 C652 0.930 . S
H644 C657 0.929 . S
H645 C655 0.929 . S
H646 C650 0.929 . S
H647 C656 0.929 . S
C648 H642 0.930 . S
C648 C649 1.367 1_545 S
C648 C656 1.378 . S
C649 C648 1.367 1_565 S
C649 C657 1.433 . S
C650 H646 0.929 . S
C650 C652 1.378 . S
C650 C654 1.350 1_565 S
C651 C654 1.463 1_565 S
C651 C656 1.350 1_565 S
C651 N659 1.427 . S
C652 H643 0.930 . S
C652 C650 1.378 . S
C652 C653 1.367 1_565 S
C653 C652 1.367 1_545 S
C653 C655 1.433 . S
C654 C650 1.350 1_545 S
C654 C651 1.463 1_545 S
C654 N658 1.427 . S
C655 H645 0.929 . S
C655 C653 1.433 . S
C655 N658 1.384 . S
C656 H647 0.929 . S
C656 C648 1.378 . S
C656 C651 1.350 1_545 S
C657 H644 0.929 . S
C657 C649 1.433 . S
C657 N659 1.384 . S
N658 C654 1.427 . S
N658 C655 1.384 . S
N659 C651 1.427 . S
N659 C657 1.384 . S
H660 C666 0.930 . S
H661 C670 0.930 . S
H662 C675 0.929 . S
H663 C673 0.929 . S
H664 C668 0.929 . S
H665 C674 0.929 . S
C666 H660 0.930 . S
C666 C667 1.367 . S
C666 C674 1.378 . S
C667 C666 1.367 . S
C667 C675 1.433 1_455 S
C668 H664 0.929 . S
C668 C670 1.378 . S
C668 C672 1.350 . S
C669 C672 1.463 1_455 S
C669 C674 1.350 . S
C669 N677 1.427 1_455 S
C670 H661 0.930 . S
C670 C668 1.378 . S
C670 C671 1.367 . S
C671 C670 1.367 . S
C671 C673 1.433 1_655 S
C672 C668 1.350 . S
C672 C669 1.463 1_655 S
C672 N676 1.427 1_655 S
C673 H663 0.929 . S
C673 C671 1.433 1_455 S
C673 N676 1.384 . S
C674 H665 0.929 . S
C674 C666 1.378 . S
C674 C669 1.350 . S
C675 H662 0.929 . S
C675 C667 1.433 1_655 S
C675 N677 1.384 . S
N676 C672 1.427 1_455 S
N676 C673 1.384 . S
N677 C669 1.427 1_655 S
N677 C675 1.384 . S
H678 C684 0.930 . S
H679 C688 0.930 . S
H680 C693 0.929 . S
H681 C691 0.929 . S
H682 C686 0.929 . S
H683 C692 0.929 . S
C684 H678 0.930 . S
C684 C685 1.367 . S
C684 C692 1.378 . S
C685 C684 1.367 . S
C685 C693 1.433 . S
C686 H682 0.929 . S
C686 C688 1.378 . S
C686 C690 1.350 . S
C687 C690 1.463 . S
C687 C692 1.350 . S
C687 N695 1.427 . S
C688 H679 0.930 . S
C688 C686 1.378 . S
C688 C689 1.367 . S
C689 C688 1.367 . S
C689 C691 1.433 . S
C690 C686 1.350 . S
C690 C687 1.463 . S
C690 N694 1.427 . S
C691 H681 0.929 . S
C691 C689 1.433 . S
C691 N694 1.384 . S
C692 H683 0.929 . S
C692 C684 1.378 . S
C692 C687 1.350 . S
C693 H680 0.929 . S
C693 C685 1.433 . S
C693 N695 1.384 . S
N694 C690 1.427 . S
N694 C691 1.384 . S
N695 C687 1.427 . S
N695 C693 1.384 . S
H696 C702 0.930 . S
H697 C706 0.930 . S
H698 C711 0.929 . S
H699 C709 0.929 . S
H700 C704 0.929 . S
H701 C710 0.929 . S
C702 H696 0.930 . S
C702 C703 1.367 . S
C702 C710 1.378 . S
C703 C702 1.367 . S
C703 C711 1.433 . S
C704 H700 0.929 . S
C704 C706 1.378 . S
C704 C708 1.350 . S
C705 C708 1.463 . S
C705 C710 1.350 . S
C705 N713 1.427 . S
C706 H697 0.930 . S
C706 C704 1.378 . S
C706 C707 1.367 . S
C707 C706 1.367 . S
C707 C709 1.433 . S
C708 C704 1.350 . S
C708 C705 1.463 . S
C708 N712 1.427 . S
C709 H699 0.929 . S
C709 C707 1.433 . S
C709 N712 1.384 . S
C710 H701 0.929 . S
C710 C702 1.378 . S
C710 C705 1.350 . S
C711 H698 0.929 . S
C711 C703 1.433 . S
C711 N713 1.384 . S
N712 C708 1.427 . S
N712 C709 1.384 . S
N713 C705 1.427 . S
N713 C711 1.384 . S
H714 C720 0.930 . S
H715 C724 0.930 . S
H716 C729 0.929 . S
H717 C727 0.929 . S
H718 C722 0.929 . S
H719 C728 0.929 . S
C720 H714 0.930 . S
C720 C721 1.367 . S
C720 C728 1.378 . S
C721 C720 1.367 . S
C721 C729 1.433 . S
C722 H718 0.929 . S
C722 C724 1.378 . S
C722 C726 1.350 . S
C723 C726 1.463 . S
C723 C728 1.350 . S
C723 N731 1.427 . S
C724 H715 0.930 . S
C724 C722 1.378 . S
C724 C725 1.367 . S
C725 C724 1.367 . S
C725 C727 1.433 . S
C726 C722 1.350 . S
C726 C723 1.463 . S
C726 N730 1.427 . S
C727 H717 0.929 . S
C727 C725 1.433 . S
C727 N730 1.384 . S
C728 H719 0.929 . S
C728 C720 1.378 . S
C728 C723 1.350 . S
C729 H716 0.929 . S
C729 C721 1.433 . S
C729 N731 1.384 . S
N730 C726 1.427 . S
N730 C727 1.384 . S
N731 C723 1.427 . S
N731 C729 1.384 . S
H732 C738 0.930 . S
H733 C742 0.930 . S
H734 C747 0.929 . S
H735 C745 0.929 . S
H736 C740 0.929 . S
H737 C746 0.929 . S
C738 H732 0.930 . S
C738 C739 1.367 . S
C738 C746 1.378 . S
C739 C738 1.367 . S
C739 C747 1.433 . S
C740 H736 0.929 . S
C740 C742 1.378 . S
C740 C744 1.350 . S
C741 C744 1.463 . S
C741 C746 1.350 . S
C741 N749 1.427 . S
C742 H733 0.930 . S
C742 C740 1.378 . S
C742 C743 1.367 . S
C743 C742 1.367 . S
C743 C745 1.433 . S
C744 C740 1.350 . S
C744 C741 1.463 . S
C744 N748 1.427 . S
C745 H735 0.929 . S
C745 C743 1.433 . S
C745 N748 1.384 . S
C746 H737 0.929 . S
C746 C738 1.378 . S
C746 C741 1.350 . S
C747 H734 0.929 . S
C747 C739 1.433 . S
C747 N749 1.384 . S
N748 C744 1.427 . S
N748 C745 1.384 . S
N749 C741 1.427 . S
N749 C747 1.384 . S
H750 C756 0.930 . S
H751 C760 0.930 . S
H752 C765 0.929 . S
H753 C763 0.929 . S
H754 C758 0.929 . S
H755 C764 0.929 . S
C756 H750 0.930 . S
C756 C757 1.367 . S
C756 C764 1.378 . S
C757 C756 1.367 . S
C757 C765 1.433 . S
C758 H754 0.929 . S
C758 C760 1.378 . S
C758 C762 1.350 . S
C759 C762 1.463 . S
C759 C764 1.350 . S
C759 N767 1.427 . S
C760 H751 0.930 . S
C760 C758 1.378 . S
C760 C761 1.367 . S
C761 C760 1.367 . S
C761 C763 1.433 . S
C762 C758 1.350 . S
C762 C759 1.463 . S
C762 N766 1.427 . S
C763 H753 0.929 . S
C763 C761 1.433 . S
C763 N766 1.384 . S
C764 H755 0.929 . S
C764 C756 1.378 . S
C764 C759 1.350 . S
C765 H752 0.929 . S
C765 C757 1.433 . S
C765 N767 1.384 . S
N766 C762 1.427 . S
N766 C763 1.384 . S
N767 C759 1.427 . S
N767 C765 1.384 . S
H768 C774 0.930 . S
H769 C778 0.930 . S
H770 C783 0.929 . S
H771 C781 0.929 . S
H772 C776 0.929 . S
H773 C782 0.929 . S
C774 H768 0.930 . S
C774 C775 1.367 . S
C774 C782 1.378 . S
C775 C774 1.367 . S
C775 C783 1.433 . S
C776 H772 0.929 . S
C776 C778 1.378 . S
C776 C780 1.350 . S
C777 C780 1.463 . S
C777 C782 1.350 . S
C777 N785 1.427 . S
C778 H769 0.930 . S
C778 C776 1.378 . S
C778 C779 1.367 . S
C779 C778 1.367 . S
C779 C781 1.433 . S
C780 C776 1.350 . S
C780 C777 1.463 . S
C780 N784 1.427 . S
C781 H771 0.929 . S
C781 C779 1.433 . S
C781 N784 1.384 . S
C782 H773 0.929 . S
C782 C774 1.378 . S
C782 C777 1.350 . S
C783 H770 0.929 . S
C783 C775 1.433 . S
C783 N785 1.384 . S
N784 C780 1.427 . S
N784 C781 1.384 . S
N785 C777 1.427 . S
N785 C783 1.384 . S
H786 C792 0.930 . S
H787 C796 0.930 . S
H788 C801 0.929 . S
H789 C799 0.929 . S
H790 C794 0.929 . S
H791 C800 0.929 . S
C792 H786 0.930 . S
C792 C793 1.367 . S
C792 C800 1.378 . S
C793 C792 1.367 . S
C793 C801 1.433 . S
C794 H790 0.929 . S
C794 C796 1.378 . S
C794 C798 1.350 . S
C795 C798 1.463 . S
C795 C800 1.350 . S
C795 N803 1.427 . S
C796 H787 0.930 . S
C796 C794 1.378 . S
C796 C797 1.367 . S
C797 C796 1.367 . S
C797 C799 1.433 . S
C798 C794 1.350 . S
C798 C795 1.463 . S
C798 N802 1.427 . S
C799 H789 0.929 . S
C799 C797 1.433 . S
C799 N802 1.384 . S
C800 H791 0.929 . S
C800 C792 1.378 . S
C800 C795 1.350 . S
C801 H788 0.929 . S
C801 C793 1.433 . S
C801 N803 1.384 . S
N802 C798 1.427 . S
N802 C799 1.384 . S
N803 C795 1.427 . S
N803 C801 1.384 . S
C487 C202 2.803 . S
C491 C2 2.799 . S
C505 C42 2.805 . S
C509 C122 2.797 . S
C523 C162 2.539 . S
C527 C82 2.534 . S
C541 C442 2.896 . S
C545 C242 2.880 . S
C559 C282 2.892 . S
C563 C362 2.875 . S
C577 C402 2.597 . S
C581 C322 2.594 . S
C595 C15 3.357 . S
C599 C255 3.378 . S
C613 C295 3.410 . S
C617 C55 3.390 . S
C631 C95 3.032 . S
C635 C335 3.045 . S
C649 C375 3.370 . S
C653 C135 3.353 . S
C667 C415 3.050 . S
C671 C175 3.028 . S
C685 C215 3.397 . S
C689 C455 3.418 . S
C703 C181 0.556 . S
C707 C21 0.665 . S
C721 C221 0.611 . S
C725 C61 0.633 . S
C739 C101 0.530 . S
C743 C141 0.659 . S
C757 C261 0.430 . S
C761 C421 0.389 . S
C775 C461 0.479 . S
C779 C301 0.503 . S
C793 C341 0.362 . S
C797 C381 0.437 . S
