# Generated by pormake.
# Topology acs-g, (3)-cn, num edge types: 1
# Building blocks:
#     Node 0, Type 0, BuildingBlock: OLANEW_clean_sbu_2, # of connection points: 3
#     Node 1, Type 0, BuildingBlock: OLANEW_clean_sbu_2, # of connection points: 3
#     Node 2, Type 0, BuildingBlock: OLANEW_clean_sbu_2, # of connection points: 3
#     Node 3, Type 0, BuildingBlock: OLANEW_clean_sbu_2, # of connection points: 3
#     Node 4, Type 0, BuildingBlock: OLANEW_clean_sbu_2, # of connection points: 3
#     Node 5, Type 0, BuildingBlock: OLANEW_clean_sbu_2, # of connection points: 3
#     Node 6, Type 0, BuildingBlock: OLANEW_clean_sbu_2, # of connection points: 3
#     Node 7, Type 0, BuildingBlock: OLANEW_clean_sbu_2, # of connection points: 3
#     Node 8, Type 0, BuildingBlock: OLANEW_clean_sbu_2, # of connection points: 3
#     Node 9, Type 0, BuildingBlock: OLANEW_clean_sbu_2, # of connection points: 3
#     Node 10, Type 0, BuildingBlock: OLANEW_clean_sbu_2, # of connection points: 3
#     Node 11, Type 0, BuildingBlock: OLANEW_clean_sbu_2, # of connection points: 3
#     Edge 12, Type (0, 0), BuildingBlock: KIFKEQ_clean_linker_1, # of connection points: 2
#     Edge 13, Type (0, 0), BuildingBlock: KIFKEQ_clean_linker_1, # of connection points: 2
#     Edge 14, Type (0, 0), BuildingBlock: KIFKEQ_clean_linker_1, # of connection points: 2
#     Edge 15, Type (0, 0), BuildingBlock: KIFKEQ_clean_linker_1, # of connection points: 2
#     Edge 16, Type (0, 0), BuildingBlock: KIFKEQ_clean_linker_1, # of connection points: 2
#     Edge 17, Type (0, 0), BuildingBlock: KIFKEQ_clean_linker_1, # of connection points: 2
#     Edge 18, Type (0, 0), BuildingBlock: KIFKEQ_clean_linker_1, # of connection points: 2
#     Edge 19, Type (0, 0), BuildingBlock: KIFKEQ_clean_linker_1, # of connection points: 2
#     Edge 20, Type (0, 0), BuildingBlock: KIFKEQ_clean_linker_1, # of connection points: 2
#     Edge 21, Type (0, 0), BuildingBlock: KIFKEQ_clean_linker_1, # of connection points: 2
#     Edge 22, Type (0, 0), BuildingBlock: KIFKEQ_clean_linker_1, # of connection points: 2
#     Edge 23, Type (0, 0), BuildingBlock: KIFKEQ_clean_linker_1, # of connection points: 2
#     Edge 24, Type (0, 0), BuildingBlock: KIFKEQ_clean_linker_1, # of connection points: 2
#     Edge 25, Type (0, 0), BuildingBlock: KIFKEQ_clean_linker_1, # of connection points: 2
#     Edge 26, Type (0, 0), BuildingBlock: KIFKEQ_clean_linker_1, # of connection points: 2
#     Edge 27, Type (0, 0), BuildingBlock: KIFKEQ_clean_linker_1, # of connection points: 2
#     Edge 28, Type (0, 0), BuildingBlock: KIFKEQ_clean_linker_1, # of connection points: 2
#     Edge 29, Type (0, 0), BuildingBlock: KIFKEQ_clean_linker_1, # of connection points: 2
# Relax obj value: 0.001
# Max RMSD: 0.043
# Mean RMSD: 0.043
data_MOF--net-acs-g--node1-OLANEW_clean_sbu_2--edge1-KIFKEQ_clean_linker_1
_symmetry_space_group_name_H-M    P1
_symmetry_Int_Tables_number       1
_symmetry_cell_setting            triclinic
loop_
_symmetry_equiv_pos_as_xyz
'x, y, z'
_cell_length_a     55.603519
_cell_length_b     55.587244
_cell_length_c     48.079572
_cell_angle_alpha  90.027956
_cell_angle_beta   90.097351
_cell_angle_gamma 119.91229
loop_
_atom_site_label
_atom_site_type_symbol
_atom_site_fract_x
_atom_site_fract_y
_atom_site_fract_z
_atom_type_partial_charge
O0 O 0.38752 0.43595 0.17406 0.0
Cd1 Cd 0.34464 0.40353 0.14971 0.0
O2 O 0.37353 0.41604 0.21499 0.0
Cd3 Cd 0.3303 0.38951 0.20248 0.0
O4 O 0.28656 0.37763 0.20646 0.0
C5 C 0.2798 0.39542 0.1991 0.0
O6 O 0.29884 0.41888 0.18808 0.0
C7 C 0.39241 0.43433 0.19966 0.0
C8 C 0.3544 0.39523 0.09434 0.0
O9 O 0.34921 0.41452 0.10094 0.0
O10 O 0.35501 0.37988 0.1139 0.0
O11 O 0.94575 0.38622 0.67497 0.0
Cd12 Cd 0.94125 0.34512 0.65127 0.0
O13 O 0.94706 0.37062 0.71673 0.0
Cd14 Cd 0.9322 0.32776 0.70382 0.0
O15 O 0.901 0.28384 0.70836 0.0
C16 C 0.88931 0.27687 0.73201 0.0
O17 O 0.89743 0.29581 0.75165 0.0
C18 C 0.94904 0.39 0.70113 0.0
C19 C 0.9574 0.35527 0.5954 0.0
O20 O 0.97538 0.3619 0.61488 0.0
O21 O 0.93177 0.34393 0.60225 0.0
O22 O 0.55022 0.94563 0.17246 0.0
Cd23 Cd 0.58201 0.93435 0.14812 0.0
O24 O 0.5688 0.94892 0.21378 0.0
Cd25 Cd 0.59373 0.93019 0.20184 0.0
O26 O 0.60266 0.89692 0.21148 0.0
C27 C 0.59654 0.88758 0.23615 0.0
O28 O 0.58668 0.89901 0.25325 0.0
C29 C 0.55153 0.95126 0.19827 0.0
C30 C 0.5926 0.95522 0.09377 0.0
O31 O 0.57254 0.93078 0.09901 0.0
O32 O 0.60767 0.96979 0.11421 0.0
O33 O 0.59756 0.56524 0.6769 0.0
Cd34 Cd 0.63982 0.59781 0.65199 0.0
O35 O 0.61854 0.57042 0.71721 0.0
Cd36 Cd 0.66149 0.59705 0.70401 0.0
O37 O 0.70416 0.60708 0.71286 0.0
C38 C 0.7062 0.58682 0.72235 0.0
O39 O 0.68352 0.56255 0.72474 0.0
C40 C 0.59646 0.55959 0.70267 0.0
C41 C 0.62886 0.60547 0.59679 0.0
O42 O 0.63454 0.58648 0.60326 0.0
O43 O 0.62833 0.62082 0.61641 0.0
O44 O 0.03079 0.60013 0.17681 0.0
Cd45 Cd 0.03451 0.6408 0.15294 0.0
O46 O 0.04869 0.62209 0.21628 0.0
Cd47 Cd 0.06251 0.66465 0.20316 0.0
O48 O 0.09388 0.70765 0.21254 0.0
C49 C 0.10094 0.71249 0.238 0.0
O50 O 0.08819 0.69228 0.25607 0.0
C51 C 0.03745 0.5998 0.20208 0.0
C52 C 0.01838 0.63023 0.09698 0.0
O53 O 0.04403 0.64192 0.10396 0.0
O54 O 0.00037 0.62343 0.11639 0.0
O55 O 0.43816 0.0447 0.6718 0.0
Cd56 Cd 0.40588 0.0554 0.64744 0.0
O57 O 0.41915 0.04057 0.71297 0.0
Cd58 Cd 0.39362 0.05867 0.70107 0.0
O59 O 0.38388 0.09138 0.71073 0.0
C60 C 0.38672 0.09861 0.73617 0.0
O61 O 0.39383 0.08539 0.7541 0.0
C62 C 0.43678 0.03883 0.69754 0.0
C63 C 0.39539 0.03472 0.59294 0.0
O64 O 0.41529 0.05923 0.59834 0.0
O65 O 0.38046 0.01997 0.61329 0.0
O66 O 0.55115 0.60172 0.31778 0.0
Cd67 Cd 0.58298 0.64496 0.34194 0.0
O68 O 0.57088 0.61596 0.27683 0.0
Cd69 Cd 0.59657 0.65935 0.28922 0.0
O70 O 0.6072 0.70275 0.2851 0.0
C71 C 0.58799 0.70821 0.29012 0.0
O72 O 0.56392 0.68813 0.29889 0.0
C73 C 0.55288 0.59688 0.29221 0.0
C74 C 0.59238 0.63571 0.39715 0.0
O75 O 0.57259 0.64026 0.39084 0.0
O76 O 0.6077 0.6355 0.37737 0.0
O77 O 0.94635 0.55523 0.81596 0.0
Cd78 Cd 0.94271 0.59273 0.83881 0.0
O79 O 0.95355 0.57464 0.77462 0.0
Cd80 Cd 0.9391 0.60337 0.78595 0.0
O81 O 0.90652 0.6139 0.77912 0.0
C82 C 0.88356 0.59962 0.79165 0.0
O83 O 0.88126 0.58084 0.80971 0.0
C84 C 0.95236 0.55569 0.79036 0.0
C85 C 0.95883 0.59921 0.8948 0.0
O86 O 0.97684 0.60998 0.87535 0.0
O87 O 0.93316 0.58527 0.88786 0.0
O88 O 0.38777 0.94937 0.31684 0.0
Cd89 Cd 0.34536 0.93993 0.34138 0.0
O90 O 0.37357 0.95511 0.27588 0.0
Cd91 Cd 0.33048 0.93888 0.28853 0.0
O92 O 0.28666 0.90727 0.2845 0.0
C93 C 0.27943 0.88297 0.29308 0.0
O94 O 0.29803 0.87862 0.3054 0.0
C95 C 0.39248 0.95559 0.29119 0.0
C96 C 0.3564 0.96047 0.39592 0.0
O97 O 0.35101 0.9357 0.39041 0.0
O98 O 0.35656 0.97552 0.37565 0.0
O99 O 0.4267 0.39437 0.81394 0.0
Cd100 Cd 0.39419 0.35199 0.83879 0.0
O101 O 0.42147 0.37329 0.7737 0.0
Cd102 Cd 0.39467 0.33061 0.78761 0.0
O103 O 0.38185 0.28658 0.7838 0.0
C104 C 0.39902 0.27915 0.79164 0.0
O105 O 0.42248 0.29772 0.80313 0.0
C106 C 0.43234 0.39541 0.78818 0.0
C107 C 0.38637 0.36242 0.8941 0.0
O108 O 0.40547 0.35694 0.88754 0.0
O109 O 0.37102 0.36305 0.87452 0.0
O110 O 0.0298 0.42743 0.31392 0.0
Cd111 Cd 0.03313 0.39017 0.33764 0.0
O112 O 0.04745 0.42304 0.27449 0.0
Cd113 Cd 0.06105 0.39413 0.28775 0.0
O114 O 0.09274 0.3829 0.27837 0.0
C115 C 0.10055 0.38642 0.25313 0.0
O116 O 0.08833 0.39484 0.23535 0.0
C117 C 0.03643 0.43433 0.28866 0.0
C118 C 0.01701 0.38456 0.39352 0.0
O119 O 0.04268 0.39828 0.38668 0.0
O120 O -0.00102 0.37363 0.37402 0.0
O121 O 0.60069 0.0421 0.81804 0.0
Cd122 Cd 0.64293 0.05166 0.84317 0.0
O123 O 0.61628 0.0387 0.77699 0.0
Cd124 Cd 0.65927 0.05527 0.79043 0.0
O125 O 0.70313 0.08678 0.78638 0.0
C126 C 0.71046 0.09811 0.76259 0.0
O127 O 0.69187 0.08955 0.74256 0.0
C128 C 0.59673 0.03696 0.79212 0.0
C129 C 0.63158 0.03066 0.89746 0.0
O130 O 0.63682 0.05542 0.89218 0.0
O131 O 0.63168 0.01583 0.87709 0.0
H132 H 0.2586 0.42829 0.18358 0.0
H133 H 0.2376 0.35286 0.22817 0.0
H134 H 0.21391 0.42326 0.19588 0.0
H135 H 0.19255 0.34768 0.24025 0.0
H136 H 0.13276 0.37215 0.28469 0.0
H137 H 0.17469 0.37174 0.27023 0.0
H138 H 0.16423 0.39367 0.18672 0.0
H139 H 0.12268 0.39442 0.20112 0.0
C140 C 0.24433 0.41046 0.19577 0.0
C141 C 0.25172 0.391 0.20492 0.0
C142 C 0.21862 0.4075 0.20271 0.0
C143 C 0.19965 0.38506 0.21904 0.0
C144 C 0.20682 0.36533 0.22786 0.0
C145 C 0.23255 0.36821 0.22078 0.0
C146 C 0.13927 0.37662 0.26319 0.0
C147 C 0.12449 0.38355 0.24413 0.0
C148 C 0.16322 0.37626 0.25488 0.0
C149 C 0.17291 0.3829 0.22737 0.0
C150 C 0.15757 0.3889 0.20815 0.0
C151 C 0.13365 0.38919 0.21641 0.0
H152 H 0.75395 0.12208 0.79943 0.0
H153 H 0.7309 0.12803 0.71491 0.0
H154 H 0.79933 0.16316 0.79209 0.0
H155 H 0.77579 0.16932 0.70782 0.0
H156 H 0.86607 0.23273 0.69589 0.0
H157 H 0.82497 0.18741 0.7034 0.0
H158 H 0.81742 0.21226 0.78662 0.0
H159 H 0.85874 0.2571 0.7794 0.0
C160 C 0.75859 0.13206 0.77926 0.0
C161 C 0.73873 0.12185 0.75782 0.0
C162 C 0.78455 0.15569 0.77509 0.0
C163 C 0.7912 0.16967 0.7494 0.0
C164 C 0.77157 0.15893 0.72775 0.0
C165 C 0.7457 0.13531 0.7319 0.0
C166 C 0.85579 0.22839 0.71588 0.0
C167 C 0.86561 0.24861 0.73697 0.0
C168 C 0.83214 0.20246 0.72014 0.0
C169 C 0.81776 0.1962 0.74557 0.0
C170 C 0.82812 0.21618 0.7669 0.0
C171 C 0.85176 0.24203 0.76267 0.0
H172 H 0.63228 0.75256 0.2652 0.0
H173 H 0.55189 0.72668 0.30129 0.0
H174 H 0.63675 0.79735 0.25311 0.0
H175 H 0.55625 0.77112 0.28898 0.0
H176 H 0.58294 0.86219 0.28676 0.0
H177 H 0.5833 0.82042 0.30111 0.0
H178 H 0.61473 0.81548 0.2205 0.0
H179 H 0.6147 0.85766 0.20612 0.0
C180 C 0.61566 0.75647 0.27071 0.0
C181 C 0.59173 0.73604 0.28422 0.0
C182 C 0.61815 0.78205 0.26361 0.0
C183 C 0.59686 0.78779 0.27007 0.0
C184 C 0.57318 0.76751 0.28401 0.0
C185 C 0.57063 0.74195 0.29095 0.0
C186 C 0.59013 0.85237 0.2721 0.0
C187 C 0.59862 0.86319 0.2452 0.0
C188 C 0.5902 0.82832 0.28032 0.0
C189 C 0.59883 0.8145 0.26189 0.0
C190 C 0.60815 0.82576 0.23526 0.0
C191 C 0.60799 0.84984 0.22697 0.0
H192 H 0.75675 0.63489 0.72514 0.0
H193 H 0.71658 0.54684 0.74157 0.0
H194 H 0.80036 0.64045 0.7434 0.0
H195 H 0.75998 0.5523 0.75917 0.0
H196 H 0.83213 0.57282 0.8152 0.0
H197 H 0.79013 0.57175 0.79901 0.0
H198 H 0.83654 0.62885 0.73304 0.0
H199 H 0.87883 0.6304 0.74963 0.0
C200 C 0.75726 0.61672 0.73246 0.0
C201 C 0.73314 0.59044 0.73201 0.0
C202 C 0.78225 0.6199 0.74285 0.0
C203 C 0.7836 0.59687 0.75303 0.0
C204 C 0.75956 0.57058 0.75209 0.0
C205 C 0.73468 0.56742 0.74177 0.0
C206 C 0.83349 0.5854 0.79742 0.0
C207 C 0.85881 0.60151 0.78358 0.0
C208 C 0.80934 0.58463 0.78801 0.0
C209 C 0.80987 0.59988 0.76446 0.0
C210 C 0.83542 0.61694 0.75131 0.0
C211 C 0.85965 0.61776 0.76078 0.0
H212 H 0.25722 0.82945 0.31071 0.0
H213 H 0.23817 0.88298 0.26166 0.0
H214 H 0.21262 0.78979 0.29813 0.0
H215 H 0.19322 0.84312 0.2493 0.0
H216 H 0.13427 0.75801 0.20599 0.0
H217 H 0.1759 0.80047 0.2207 0.0
H218 H 0.16276 0.77028 0.30521 0.0
H219 H 0.1215 0.72784 0.29056 0.0
C220 C 0.24339 0.83283 0.29748 0.0
C221 C 0.25132 0.8594 0.28715 0.0
C222 C 0.21773 0.81008 0.29038 0.0
C223 C 0.19936 0.81329 0.2727 0.0
C224 C 0.20704 0.83994 0.26274 0.0
C225 C 0.23271 0.86278 0.26998 0.0
C226 C 0.14012 0.76057 0.22775 0.0
C227 C 0.12467 0.73942 0.24704 0.0
C228 C 0.1639 0.78496 0.2362 0.0
C229 C 0.17276 0.78864 0.26409 0.0
C230 C 0.15675 0.76789 0.2835 0.0
C231 C 0.133 0.7436 0.27509 0.0
H232 H 0.43027 0.25644 0.80823 0.0
H233 H 0.35665 0.23792 0.76129 0.0
H234 H 0.42443 0.21145 0.79561 0.0
H235 H 0.35065 0.19258 0.74887 0.0
H236 H 0.37459 0.13234 0.70456 0.0
H237 H 0.37488 0.17454 0.71942 0.0
H238 H 0.39373 0.16168 0.80341 0.0
H239 H 0.39378 0.11984 0.78861 0.0
C240 C 0.41265 0.24266 0.79545 0.0
C241 C 0.39397 0.25083 0.78573 0.0
C242 C 0.40923 0.21677 0.78833 0.0
C243 C 0.38708 0.19843 0.77121 0.0
C244 C 0.36808 0.20637 0.76186 0.0
C245 C 0.37142 0.23226 0.76914 0.0
C246 C 0.37855 0.13839 0.72624 0.0
C247 C 0.38439 0.12283 0.74533 0.0
C248 C 0.37857 0.16249 0.73478 0.0
C249 C 0.38454 0.17157 0.76256 0.0
C250 C 0.38949 0.15549 0.78178 0.0
C251 C 0.38938 0.13141 0.77329 0.0
H252 H 0.43289 0.48255 0.17656 0.0
H253 H 0.41241 0.43328 0.25142 0.0
H254 H 0.47378 0.5194 0.19932 0.0
H255 H 0.45394 0.46974 0.27393 0.0
H256 H 0.55448 0.57702 0.24057 0.0
H257 H 0.5186 0.53507 0.21811 0.0
H258 H 0.46877 0.51445 0.2926 0.0
H259 H 0.50506 0.55578 0.31532 0.0
C260 C 0.43742 0.47933 0.1977 0.0
C261 C 0.41921 0.45507 0.21224 0.0
C262 C 0.46102 0.50044 0.21076 0.0
C263 C 0.46714 0.49772 0.23861 0.0
C264 C 0.4496 0.47284 0.25268 0.0
C265 C 0.42586 0.45183 0.2397 0.0
C266 C 0.53602 0.56331 0.25228 0.0
C267 C 0.53256 0.56987 0.27969 0.0
C268 C 0.51535 0.53933 0.23932 0.0
C269 C 0.49058 0.52145 0.25337 0.0
C270 C 0.48765 0.52748 0.28118 0.0
C271 C 0.50844 0.55133 0.29422 0.0
H272 H 0.94295 0.43112 0.67672 0.0
H273 H 0.96553 0.40834 0.75429 0.0
H274 H 0.94654 0.47221 0.69876 0.0
H275 H 0.97021 0.45 0.77611 0.0
H276 H 0.97349 0.55466 0.73936 0.0
H277 H 0.97646 0.51651 0.71801 0.0
H278 H 0.94168 0.46741 0.79223 0.0
H279 H 0.93974 0.50597 0.81392 0.0
C280 C 0.94914 0.43513 0.69836 0.0
C281 C 0.95375 0.41634 0.71378 0.0
C282 C 0.95136 0.45882 0.71102 0.0
C283 C 0.95855 0.46446 0.73933 0.0
C284 C 0.96408 0.44609 0.75445 0.0
C285 C 0.96158 0.42227 0.74187 0.0
C286 C 0.96674 0.53582 0.75123 0.0
C287 C 0.95627 0.53333 0.77832 0.0
C288 C 0.96827 0.51384 0.7389 0.0
C289 C 0.95908 0.4887 0.75324 0.0
C290 C 0.9493 0.48653 0.78064 0.0
C291 C 0.94805 0.50863 0.79307 0.0
H292 H 0.50415 0.94581 0.17502 0.0
H293 H 0.55336 0.97221 0.2502 0.0
H294 H 0.46818 0.9513 0.19784 0.0
H295 H 0.51788 0.9788 0.27276 0.0
H296 H 0.43251 0.94683 0.31406 0.0
H297 H 0.47307 0.95028 0.29122 0.0
H298 H 0.45371 0.98119 0.21697 0.0
H299 H 0.41247 0.97667 0.23954 0.0
C300 C 0.50757 0.95338 0.19624 0.0
C301 C 0.5315 0.95829 0.21086 0.0
C302 C 0.48697 0.95669 0.20934 0.0
C303 C 0.48993 0.96529 0.2373 0.0
C304 C 0.51456 0.97156 0.25143 0.0
C305 C 0.53502 0.96796 0.23842 0.0
C306 C 0.43708 0.9547 0.29298 0.0
C307 C 0.41908 0.96121 0.27855 0.0
C308 C 0.4605 0.95684 0.27987 0.0
C309 C 0.46666 0.96584 0.2521 0.0
C310 C 0.44934 0.97363 0.23815 0.0
C311 C 0.42576 0.97121 0.25117 0.0
H312 H 0.46165 0.44678 0.81263 0.0
H313 H 0.4498 0.40425 0.73417 0.0
H314 H 0.4986 0.48928 0.79194 0.0
H315 H 0.48702 0.44634 0.71382 0.0
H316 H 0.54516 0.53018 0.67808 0.0
H317 H 0.50266 0.49318 0.69872 0.0
H318 H 0.54545 0.50495 0.777 0.0
H319 H 0.58753 0.5422 0.7567 0.0
C320 C 0.46674 0.44653 0.79094 0.0
C321 C 0.45289 0.42201 0.77515 0.0
C322 C 0.48803 0.47086 0.77911 0.0
C323 C 0.49594 0.47121 0.75126 0.0
C324 C 0.4813 0.44697 0.73522 0.0
C325 C 0.46004 0.42271 0.747 0.0
C326 C 0.54538 0.52511 0.6998 0.0
C327 C 0.56986 0.53903 0.71564 0.0
C328 C 0.52105 0.50381 0.71159 0.0
C329 C 0.52066 0.49593 0.73948 0.0
C330 C 0.54485 0.51063 0.75558 0.0
C331 C 0.56911 0.53191 0.74383 0.0
H332 H 0.04855 0.59212 0.25567 0.0
H333 H 0.01673 0.54842 0.17793 0.0
H334 H 0.04481 0.55051 0.27632 0.0
H335 H 0.01248 0.50646 0.1989 0.0
H336 H 0.04746 0.4529 0.23506 0.0
H337 H 0.04423 0.49107 0.2144 0.0
H338 H 0.01263 0.5036 0.29181 0.0
H339 H 0.01637 0.46559 0.31279 0.0
C340 C 0.04046 0.57355 0.24303 0.0
C341 C 0.03315 0.57372 0.21503 0.0
C342 C 0.03811 0.54958 0.25499 0.0
C343 C 0.0284 0.52514 0.23927 0.0
C344 C 0.02037 0.52506 0.21148 0.0
C345 C 0.02269 0.54907 0.19949 0.0
C346 C 0.03963 0.46362 0.24769 0.0
C347 C 0.03238 0.45627 0.27569 0.0
C348 C 0.03757 0.48541 0.23573 0.0
C349 C 0.02823 0.50046 0.25145 0.0
C350 C 0.02025 0.49265 0.27924 0.0
C351 C 0.02227 0.47078 0.29123 0.0
H352 H 0.48506 0.04615 0.67489 0.0
H353 H 0.43478 0.01701 0.74901 0.0
H354 H 0.52139 0.04137 0.69798 0.0
H355 H 0.47064 0.0111 0.7718 0.0
H356 H 0.57809 0.01718 0.73971 0.0
H357 H 0.5368 0.01212 0.71658 0.0
H358 H 0.51486 0.03989 0.79138 0.0
H359 H 0.55547 0.04383 0.81475 0.0
C360 C 0.4815 0.03813 0.69592 0.0
C361 C 0.45713 0.03223 0.71019 0.0
C362 C 0.50231 0.03523 0.70918 0.0
C363 C 0.49914 0.02606 0.73693 0.0
C364 C 0.47412 0.01882 0.75067 0.0
C365 C 0.45344 0.02202 0.73752 0.0
C366 C 0.56423 0.02184 0.75132 0.0
C367 C 0.57018 0.03108 0.77903 0.0
C368 C 0.54062 0.01912 0.73799 0.0
C369 C 0.52254 0.02586 0.75195 0.0
C370 C 0.52802 0.03413 0.78001 0.0
C371 C 0.55146 0.03656 0.79342 0.0
H372 H 0.35389 0.42389 0.04829 0.0
H373 H 0.36633 0.35639 0.07395 0.0
H374 H 0.36214 0.41647 6e-05 0.0
H375 H 0.37409 0.34867 0.02567 0.0
H376 H 0.41501 0.36182 0.9402 0.0
H377 H 0.40776 0.37025 0.98842 0.0
H378 H 0.34036 0.38282 0.96268 0.0
H379 H 0.34792 0.37487 0.91441 0.0
C380 C 0.35831 0.40742 0.04365 0.0
C381 C 0.35945 0.39074 0.065 0.0
C382 C 0.36289 0.40306 0.01596 0.0
C383 C 0.36875 0.38195 0.00896 0.0
C384 C 0.36997 0.36534 0.03035 0.0
C385 C 0.36536 0.36967 0.05803 0.0
C386 C 0.39867 0.36643 0.94481 0.0
C387 C 0.38205 0.36767 0.92342 0.0
C388 C 0.3944 0.3711 0.97249 0.0
C389 C 0.37344 0.37718 0.97946 0.0
C390 C 0.35691 0.37854 0.95803 0.0
C391 C 0.36114 0.37382 0.93036 0.0
H392 H 0.96626 0.37137 0.41436 0.0
H393 H 0.04836 0.39002 0.43938 0.0
H394 H 0.95205 0.36577 0.46286 0.0
H395 H 0.03387 0.38277 0.48782 0.0
H396 H 0.00846 0.39185 0.5746 0.0
H397 H 0.0227 0.40024 0.52609 0.0
H398 H 0.94025 0.33701 0.50107 0.0
H399 H 0.92578 0.33002 0.54951 0.0
C400 C 0.9812 0.37401 0.43027 0.0
C401 C 0.00843 0.38117 0.42306 0.0
C402 C 0.97301 0.37059 0.45816 0.0
C403 C 0.99169 0.37366 0.47957 0.0
C404 C 0.01896 0.38075 0.47217 0.0
C405 C 0.02728 0.38473 0.44431 0.0
C406 C -0.00661 0.37985 0.55867 0.0
C407 C 0.966 0.36031 0.56586 0.0
C408 C 0.00159 0.38449 0.53078 0.0
C409 C 0.98275 0.36926 0.50936 0.0
C410 C 0.95531 0.3496 0.51673 0.0
C411 C 0.94699 0.3454 0.5446 0.0
H412 H 0.61855 0.97873 0.91497 0.0
H413 H 0.63125 0.05749 0.94508 0.0
H414 H 0.60926 0.96063 0.96231 0.0
H415 H 0.62153 0.03923 0.99236 0.0
H416 H 0.63266 0.00661 0.07634 0.0
H417 H 0.64204 0.0247 0.02899 0.0
H418 H 0.57433 0.94715 -0.00124 0.0
H419 H 0.56521 0.92889 0.04605 0.0
C420 C 0.61927 0.99216 0.93167 0.0
C421 C 0.62568 0.01957 0.92622 0.0
C422 C 0.61378 0.98172 0.9588 0.0
C423 C 0.61463 -0.00154 0.98116 0.0
C424 C 0.62103 0.02588 0.97569 0.0
C425 C 0.62645 0.0363 0.94854 0.0
C426 C 0.61977 0.9934 0.0596 0.0
C427 C 0.59819 0.96629 0.065 0.0
C428 C 0.62505 0.00384 0.03246 0.0
C429 C 0.60893 0.98739 0.01006 0.0
C430 C 0.58736 0.96026 0.01548 0.0
C431 C 0.58203 0.94984 0.04262 0.0
H432 H 0.61552 0.64341 0.57675 0.0
H433 H 0.62939 0.57695 0.55061 0.0
H434 H 0.60672 0.65059 0.52861 0.0
H435 H 0.62014 0.58383 0.50253 0.0
H436 H 0.63215 0.62482 0.4169 0.0
H437 H 0.64083 0.61752 0.46504 0.0
H438 H 0.57251 0.62808 0.49173 0.0
H439 H 0.56411 0.63584 0.44363 0.0
C440 C 0.61659 0.63025 0.56076 0.0
C441 C 0.6232 0.60962 0.56755 0.0
C442 C 0.61138 0.63426 0.53316 0.0
C443 C 0.61271 0.61778 0.51168 0.0
C444 C 0.61928 0.59712 0.5185 0.0
C445 C 0.62444 0.59307 0.5461 0.0
C446 C 0.61897 0.62558 0.43303 0.0
C447 C 0.59745 0.63095 0.4264 0.0
C448 C 0.62385 0.62123 0.46062 0.0
C449 C 0.60737 0.6222 0.48227 0.0
C450 C 0.58582 0.62754 0.47562 0.0
C451 C 0.58091 0.63183 0.44801 0.0
H452 H 0.96742 0.59323 0.07599 0.0
H453 H 0.04991 0.65546 0.05119 0.0
H454 H 0.95321 0.58451 0.02743 0.0
H455 H 0.03545 0.64813 0.00268 0.0
H456 H 0.0097 0.61306 0.916 0.0
H457 H 0.0239 0.61913 0.96458 0.0
H458 H 0.94184 0.60162 0.98893 0.0
H459 H 0.92738 0.5939 0.94041 0.0
C460 C 0.98246 0.60524 0.06011 0.0
C461 C 0.00979 0.62499 0.06741 0.0
C462 C 0.97427 0.60042 0.03219 0.0
C463 C -0.00693 0.61565 0.01082 0.0
C464 C 0.02044 0.63552 0.0183 0.0
C465 C 0.02875 0.63992 0.0462 0.0
C466 C -0.00529 0.61041 0.93179 0.0
C467 C 0.96742 0.60297 0.92439 0.0
C468 C 0.00289 0.61411 0.95973 0.0
C469 C 0.98414 0.61102 0.98099 0.0
C470 C 0.95682 0.60366 0.9734 0.0
C471 C 0.94851 0.59942 0.94549 0.0
H472 H 0.35659 0.93329 0.44329 0.0
H473 H 0.3694 0.01228 0.41394 0.0
H474 H 0.36631 0.95124 0.49075 0.0
H475 H 0.37867 0.03006 0.46146 0.0
H476 H 0.42269 0.06133 0.54542 0.0
H477 H 0.41353 0.04334 0.49798 0.0
H478 H 0.34599 0.96554 0.52759 0.0
H479 H 0.35542 0.98336 0.5751 0.0
C480 C 0.3614 0.95446 0.44696 0.0
C481 C 0.36223 0.97135 0.4248 0.0
C482 C 0.36682 0.9647 0.4742 0.0
C483 C 0.37326 0.9921 0.47994 0.0
C484 C 0.37413 0.00899 0.45774 0.0
C485 C 0.36865 -0.00127 0.43051 0.0
C486 C 0.4059 0.04038 0.54183 0.0
C487 C 0.3898 0.02379 0.56408 0.0
C488 C 0.40055 0.03012 0.51459 0.0
C489 C 0.379 0.003 0.50895 0.0
C490 C 0.36295 0.9864 0.53123 0.0
C491 C 0.36827 -0.00332 0.55846 0.0
loop_
_geom_bond_atom_site_label_1
_geom_bond_atom_site_label_2
_geom_bond_distance
_geom_bond_site_symmetry_2
_ccdc_geom_bond_type
O0 Cd1 2.300 . S
O0 C7 1.275 . S
Cd1 O0 2.300 . S
Cd1 O9 2.381 . S
Cd1 O10 2.378 . S
O2 Cd3 2.385 . S
O2 C7 1.255 . S
Cd3 O2 2.385 . S
Cd3 O4 2.317 . S
O4 Cd3 2.317 . S
O4 C5 1.232 . S
C5 O4 1.232 . S
C5 O6 1.218 . S
O6 C5 1.218 . S
C7 O0 1.275 . S
C7 O2 1.255 . S
C8 O9 1.258 . S
C8 O10 1.256 . S
O9 Cd1 2.381 . S
O9 C8 1.258 . S
O10 Cd1 2.378 . S
O10 C8 1.256 . S
O11 Cd12 2.300 . S
O11 C18 1.275 . S
Cd12 O11 2.300 . S
Cd12 O20 2.381 . S
Cd12 O21 2.378 . S
O13 Cd14 2.385 . S
O13 C18 1.255 . S
Cd14 O13 2.385 . S
Cd14 O15 2.317 . S
O15 Cd14 2.317 . S
O15 C16 1.232 . S
C16 O15 1.232 . S
C16 O17 1.218 . S
O17 C16 1.218 . S
C18 O11 1.275 . S
C18 O13 1.255 . S
C19 O20 1.258 . S
C19 O21 1.256 . S
O20 Cd12 2.381 . S
O20 C19 1.258 . S
O21 Cd12 2.378 . S
O21 C19 1.256 . S
O22 Cd23 2.300 . S
O22 C29 1.275 . S
Cd23 O22 2.300 . S
Cd23 O31 2.381 . S
Cd23 O32 2.378 . S
O24 Cd25 2.385 . S
O24 C29 1.255 . S
Cd25 O24 2.385 . S
Cd25 O26 2.317 . S
O26 Cd25 2.317 . S
O26 C27 1.232 . S
C27 O26 1.232 . S
C27 O28 1.218 . S
O28 C27 1.218 . S
C29 O22 1.275 . S
C29 O24 1.255 . S
C30 O31 1.258 . S
C30 O32 1.256 . S
O31 Cd23 2.381 . S
O31 C30 1.258 . S
O32 Cd23 2.378 . S
O32 C30 1.256 . S
O33 Cd34 2.300 . S
O33 C40 1.275 . S
Cd34 O33 2.300 . S
Cd34 O42 2.381 . S
Cd34 O43 2.378 . S
O35 Cd36 2.385 . S
O35 C40 1.255 . S
Cd36 O35 2.385 . S
Cd36 O37 2.317 . S
O37 Cd36 2.317 . S
O37 C38 1.232 . S
C38 O37 1.232 . S
C38 O39 1.218 . S
O39 C38 1.218 . S
C40 O33 1.275 . S
C40 O35 1.255 . S
C41 O42 1.258 . S
C41 O43 1.256 . S
O42 Cd34 2.381 . S
O42 C41 1.258 . S
O43 Cd34 2.378 . S
O43 C41 1.256 . S
O44 Cd45 2.300 . S
O44 C51 1.275 . S
Cd45 O44 2.300 . S
Cd45 O53 2.381 . S
Cd45 O54 2.378 . S
O46 Cd47 2.385 . S
O46 C51 1.255 . S
Cd47 O46 2.385 . S
Cd47 O48 2.317 . S
O48 Cd47 2.317 . S
O48 C49 1.232 . S
C49 O48 1.232 . S
C49 O50 1.218 . S
O50 C49 1.218 . S
C51 O44 1.275 . S
C51 O46 1.255 . S
C52 O53 1.258 . S
C52 O54 1.256 . S
O53 Cd45 2.381 . S
O53 C52 1.258 . S
O54 Cd45 2.378 . S
O54 C52 1.256 . S
O55 Cd56 2.300 . S
O55 C62 1.275 . S
Cd56 O55 2.300 . S
Cd56 O64 2.381 . S
Cd56 O65 2.378 . S
O57 Cd58 2.385 . S
O57 C62 1.255 . S
Cd58 O57 2.385 . S
Cd58 O59 2.317 . S
O59 Cd58 2.317 . S
O59 C60 1.232 . S
C60 O59 1.232 . S
C60 O61 1.218 . S
O61 C60 1.218 . S
C62 O55 1.275 . S
C62 O57 1.255 . S
C63 O64 1.258 . S
C63 O65 1.256 . S
O64 Cd56 2.381 . S
O64 C63 1.258 . S
O65 Cd56 2.378 . S
O65 C63 1.256 . S
O66 Cd67 2.300 . S
O66 C73 1.275 . S
Cd67 O66 2.300 . S
Cd67 O75 2.381 . S
Cd67 O76 2.378 . S
O68 Cd69 2.385 . S
O68 C73 1.255 . S
Cd69 O68 2.385 . S
Cd69 O70 2.317 . S
O70 Cd69 2.317 . S
O70 C71 1.232 . S
C71 O70 1.232 . S
C71 O72 1.218 . S
O72 C71 1.218 . S
C73 O66 1.275 . S
C73 O68 1.255 . S
C74 O75 1.258 . S
C74 O76 1.256 . S
O75 Cd67 2.381 . S
O75 C74 1.258 . S
O76 Cd67 2.378 . S
O76 C74 1.256 . S
O77 Cd78 2.300 . S
O77 C84 1.275 . S
Cd78 O77 2.300 . S
Cd78 O86 2.381 . S
Cd78 O87 2.378 . S
O79 Cd80 2.385 . S
O79 C84 1.255 . S
Cd80 O79 2.385 . S
Cd80 O81 2.317 . S
O81 Cd80 2.317 . S
O81 C82 1.232 . S
C82 O81 1.232 . S
C82 O83 1.218 . S
O83 C82 1.218 . S
C84 O77 1.275 . S
C84 O79 1.255 . S
C85 O86 1.258 . S
C85 O87 1.256 . S
O86 Cd78 2.381 . S
O86 C85 1.258 . S
O87 Cd78 2.378 . S
O87 C85 1.256 . S
O88 Cd89 2.300 . S
O88 C95 1.275 . S
Cd89 O88 2.300 . S
Cd89 O97 2.381 . S
Cd89 O98 2.378 . S
O90 Cd91 2.385 . S
O90 C95 1.255 . S
Cd91 O90 2.385 . S
Cd91 O92 2.317 . S
O92 Cd91 2.317 . S
O92 C93 1.232 . S
C93 O92 1.232 . S
C93 O94 1.218 . S
O94 C93 1.218 . S
C95 O88 1.275 . S
C95 O90 1.255 . S
C96 O97 1.258 . S
C96 O98 1.256 . S
O97 Cd89 2.381 . S
O97 C96 1.258 . S
O98 Cd89 2.378 . S
O98 C96 1.256 . S
O99 Cd100 2.300 . S
O99 C106 1.275 . S
Cd100 O99 2.300 . S
Cd100 O108 2.381 . S
Cd100 O109 2.378 . S
O101 Cd102 2.385 . S
O101 C106 1.255 . S
Cd102 O101 2.385 . S
Cd102 O103 2.317 . S
O103 Cd102 2.317 . S
O103 C104 1.232 . S
C104 O103 1.232 . S
C104 O105 1.218 . S
O105 C104 1.218 . S
C106 O99 1.275 . S
C106 O101 1.255 . S
C107 O108 1.258 . S
C107 O109 1.256 . S
O108 Cd100 2.381 . S
O108 C107 1.258 . S
O109 Cd100 2.378 . S
O109 C107 1.256 . S
O110 Cd111 2.300 . S
O110 C117 1.275 . S
Cd111 O110 2.300 . S
Cd111 O119 2.381 . S
Cd111 O120 2.378 . S
O112 Cd113 2.385 . S
O112 C117 1.255 . S
Cd113 O112 2.385 . S
Cd113 O114 2.317 . S
O114 Cd113 2.317 . S
O114 C115 1.232 . S
C115 O114 1.232 . S
C115 O116 1.218 . S
O116 C115 1.218 . S
C117 O110 1.275 . S
C117 O112 1.255 . S
C118 O119 1.258 . S
C118 O120 1.256 . S
O119 Cd111 2.381 . S
O119 C118 1.258 . S
O120 Cd111 2.378 . S
O120 C118 1.256 . S
O121 Cd122 2.300 . S
O121 C128 1.275 . S
Cd122 O121 2.300 . S
Cd122 O130 2.381 . S
Cd122 O131 2.378 . S
O123 Cd124 2.385 . S
O123 C128 1.255 . S
Cd124 O123 2.385 . S
Cd124 O125 2.317 . S
O125 Cd124 2.317 . S
O125 C126 1.232 . S
C126 O125 1.232 . S
C126 O127 1.218 . S
O127 C126 1.218 . S
C128 O121 1.275 . S
C128 O123 1.255 . S
C129 O130 1.258 . S
C129 O131 1.256 . S
O130 Cd122 2.381 . S
O130 C129 1.258 . S
O131 Cd122 2.378 . S
O131 C129 1.256 . S
H132 C140 0.950 . S
H133 C145 0.950 . S
H134 C142 0.950 . S
H135 C144 0.950 . S
H136 C146 0.950 . S
H137 C148 0.950 . S
H138 C150 0.950 . S
H139 C151 0.950 . S
C140 H132 0.950 . S
C140 C141 1.386 . S
C140 C142 1.391 . S
C141 C140 1.386 . S
C141 C145 1.393 . S
C142 H134 0.950 . S
C142 C140 1.391 . S
C142 C143 1.400 . S
C143 C142 1.400 . S
C143 C144 1.398 . S
C143 C149 1.491 . S
C144 H135 0.950 . S
C144 C143 1.398 . S
C144 C145 1.391 . S
C145 H133 0.950 . S
C145 C141 1.393 . S
C145 C144 1.391 . S
C146 H136 0.950 . S
C146 C147 1.386 . S
C146 C148 1.391 . S
C147 C146 1.386 . S
C147 C151 1.393 . S
C148 H137 0.950 . S
C148 C146 1.391 . S
C148 C149 1.400 . S
C149 C143 1.491 . S
C149 C148 1.400 . S
C149 C150 1.398 . S
C150 H138 0.950 . S
C150 C149 1.398 . S
C150 C151 1.391 . S
C151 H139 0.950 . S
C151 C147 1.393 . S
C151 C150 1.391 . S
H152 C160 0.950 . S
H153 C165 0.950 . S
H154 C162 0.950 . S
H155 C164 0.950 . S
H156 C166 0.950 . S
H157 C168 0.950 . S
H158 C170 0.950 . S
H159 C171 0.950 . S
C160 H152 0.950 . S
C160 C161 1.386 . S
C160 C162 1.391 . S
C161 C160 1.386 . S
C161 C165 1.393 . S
C162 H154 0.950 . S
C162 C160 1.391 . S
C162 C163 1.400 . S
C163 C162 1.400 . S
C163 C164 1.398 . S
C163 C169 1.491 . S
C164 H155 0.950 . S
C164 C163 1.398 . S
C164 C165 1.391 . S
C165 H153 0.950 . S
C165 C161 1.393 . S
C165 C164 1.391 . S
C166 H156 0.950 . S
C166 C167 1.386 . S
C166 C168 1.391 . S
C167 C166 1.386 . S
C167 C171 1.393 . S
C168 H157 0.950 . S
C168 C166 1.391 . S
C168 C169 1.400 . S
C169 C163 1.491 . S
C169 C168 1.400 . S
C169 C170 1.398 . S
C170 H158 0.950 . S
C170 C169 1.398 . S
C170 C171 1.391 . S
C171 H159 0.950 . S
C171 C167 1.393 . S
C171 C170 1.391 . S
H172 C180 0.950 . S
H173 C185 0.950 . S
H174 C182 0.950 . S
H175 C184 0.950 . S
H176 C186 0.950 . S
H177 C188 0.950 . S
H178 C190 0.950 . S
H179 C191 0.950 . S
C180 H172 0.950 . S
C180 C181 1.386 . S
C180 C182 1.391 . S
C181 C180 1.386 . S
C181 C185 1.393 . S
C182 H174 0.950 . S
C182 C180 1.391 . S
C182 C183 1.400 . S
C183 C182 1.400 . S
C183 C184 1.398 . S
C183 C189 1.491 . S
C184 H175 0.950 . S
C184 C183 1.398 . S
C184 C185 1.391 . S
C185 H173 0.950 . S
C185 C181 1.393 . S
C185 C184 1.391 . S
C186 H176 0.950 . S
C186 C187 1.386 . S
C186 C188 1.391 . S
C187 C186 1.386 . S
C187 C191 1.393 . S
C188 H177 0.950 . S
C188 C186 1.391 . S
C188 C189 1.400 . S
C189 C183 1.491 . S
C189 C188 1.400 . S
C189 C190 1.398 . S
C190 H178 0.950 . S
C190 C189 1.398 . S
C190 C191 1.391 . S
C191 H179 0.950 . S
C191 C187 1.393 . S
C191 C190 1.391 . S
H192 C200 0.950 . S
H193 C205 0.950 . S
H194 C202 0.950 . S
H195 C204 0.950 . S
H196 C206 0.950 . S
H197 C208 0.950 . S
H198 C210 0.950 . S
H199 C211 0.950 . S
C200 H192 0.950 . S
C200 C201 1.386 . S
C200 C202 1.391 . S
C201 C200 1.386 . S
C201 C205 1.393 . S
C202 H194 0.950 . S
C202 C200 1.391 . S
C202 C203 1.400 . S
C203 C202 1.400 . S
C203 C204 1.398 . S
C203 C209 1.491 . S
C204 H195 0.950 . S
C204 C203 1.398 . S
C204 C205 1.391 . S
C205 H193 0.950 . S
C205 C201 1.393 . S
C205 C204 1.391 . S
C206 H196 0.950 . S
C206 C207 1.386 . S
C206 C208 1.391 . S
C207 C206 1.386 . S
C207 C211 1.393 . S
C208 H197 0.950 . S
C208 C206 1.391 . S
C208 C209 1.400 . S
C209 C203 1.491 . S
C209 C208 1.400 . S
C209 C210 1.398 . S
C210 H198 0.950 . S
C210 C209 1.398 . S
C210 C211 1.391 . S
C211 H199 0.950 . S
C211 C207 1.393 . S
C211 C210 1.391 . S
H212 C220 0.950 . S
H213 C225 0.950 . S
H214 C222 0.950 . S
H215 C224 0.950 . S
H216 C226 0.950 . S
H217 C228 0.950 . S
H218 C230 0.950 . S
H219 C231 0.950 . S
C220 H212 0.950 . S
C220 C221 1.386 . S
C220 C222 1.391 . S
C221 C220 1.386 . S
C221 C225 1.393 . S
C222 H214 0.950 . S
C222 C220 1.391 . S
C222 C223 1.400 . S
C223 C222 1.400 . S
C223 C224 1.398 . S
C223 C229 1.491 . S
C224 H215 0.950 . S
C224 C223 1.398 . S
C224 C225 1.391 . S
C225 H213 0.950 . S
C225 C221 1.393 . S
C225 C224 1.391 . S
C226 H216 0.950 . S
C226 C227 1.386 . S
C226 C228 1.391 . S
C227 C226 1.386 . S
C227 C231 1.393 . S
C228 H217 0.950 . S
C228 C226 1.391 . S
C228 C229 1.400 . S
C229 C223 1.491 . S
C229 C228 1.400 . S
C229 C230 1.398 . S
C230 H218 0.950 . S
C230 C229 1.398 . S
C230 C231 1.391 . S
C231 H219 0.950 . S
C231 C227 1.393 . S
C231 C230 1.391 . S
H232 C240 0.950 . S
H233 C245 0.950 . S
H234 C242 0.950 . S
H235 C244 0.950 . S
H236 C246 0.950 . S
H237 C248 0.950 . S
H238 C250 0.950 . S
H239 C251 0.950 . S
C240 H232 0.950 . S
C240 C241 1.386 . S
C240 C242 1.391 . S
C241 C240 1.386 . S
C241 C245 1.393 . S
C242 H234 0.950 . S
C242 C240 1.391 . S
C242 C243 1.400 . S
C243 C242 1.400 . S
C243 C244 1.398 . S
C243 C249 1.491 . S
C244 H235 0.950 . S
C244 C243 1.398 . S
C244 C245 1.391 . S
C245 H233 0.950 . S
C245 C241 1.393 . S
C245 C244 1.391 . S
C246 H236 0.950 . S
C246 C247 1.386 . S
C246 C248 1.391 . S
C247 C246 1.386 . S
C247 C251 1.393 . S
C248 H237 0.950 . S
C248 C246 1.391 . S
C248 C249 1.400 . S
C249 C243 1.491 . S
C249 C248 1.400 . S
C249 C250 1.398 . S
C250 H238 0.950 . S
C250 C249 1.398 . S
C250 C251 1.391 . S
C251 H239 0.950 . S
C251 C247 1.393 . S
C251 C250 1.391 . S
H252 C260 0.950 . S
H253 C265 0.950 . S
H254 C262 0.950 . S
H255 C264 0.950 . S
H256 C266 0.950 . S
H257 C268 0.950 . S
H258 C270 0.950 . S
H259 C271 0.950 . S
C260 H252 0.950 . S
C260 C261 1.386 . S
C260 C262 1.391 . S
C261 C260 1.386 . S
C261 C265 1.393 . S
C262 H254 0.950 . S
C262 C260 1.391 . S
C262 C263 1.400 . S
C263 C262 1.400 . S
C263 C264 1.398 . S
C263 C269 1.491 . S
C264 H255 0.950 . S
C264 C263 1.398 . S
C264 C265 1.391 . S
C265 H253 0.950 . S
C265 C261 1.393 . S
C265 C264 1.391 . S
C266 H256 0.950 . S
C266 C267 1.386 . S
C266 C268 1.391 . S
C267 C266 1.386 . S
C267 C271 1.393 . S
C268 H257 0.950 . S
C268 C266 1.391 . S
C268 C269 1.400 . S
C269 C263 1.491 . S
C269 C268 1.400 . S
C269 C270 1.398 . S
C270 H258 0.950 . S
C270 C269 1.398 . S
C270 C271 1.391 . S
C271 H259 0.950 . S
C271 C267 1.393 . S
C271 C270 1.391 . S
H272 C280 0.950 . S
H273 C285 0.950 . S
H274 C282 0.950 . S
H275 C284 0.950 . S
H276 C286 0.950 . S
H277 C288 0.950 . S
H278 C290 0.950 . S
H279 C291 0.950 . S
C280 H272 0.950 . S
C280 C281 1.386 . S
C280 C282 1.391 . S
C281 C280 1.386 . S
C281 C285 1.393 . S
C282 H274 0.950 . S
C282 C280 1.391 . S
C282 C283 1.400 . S
C283 C282 1.400 . S
C283 C284 1.398 . S
C283 C289 1.491 . S
C284 H275 0.950 . S
C284 C283 1.398 . S
C284 C285 1.391 . S
C285 H273 0.950 . S
C285 C281 1.393 . S
C285 C284 1.391 . S
C286 H276 0.950 . S
C286 C287 1.386 . S
C286 C288 1.391 . S
C287 C286 1.386 . S
C287 C291 1.393 . S
C288 H277 0.950 . S
C288 C286 1.391 . S
C288 C289 1.400 . S
C289 C283 1.491 . S
C289 C288 1.400 . S
C289 C290 1.398 . S
C290 H278 0.950 . S
C290 C289 1.398 . S
C290 C291 1.391 . S
C291 H279 0.950 . S
C291 C287 1.393 . S
C291 C290 1.391 . S
H292 C300 0.950 . S
H293 C305 0.950 . S
H294 C302 0.950 . S
H295 C304 0.950 . S
H296 C306 0.950 . S
H297 C308 0.950 . S
H298 C310 0.950 . S
H299 C311 0.950 . S
C300 H292 0.950 . S
C300 C301 1.386 . S
C300 C302 1.391 . S
C301 C300 1.386 . S
C301 C305 1.393 . S
C302 H294 0.950 . S
C302 C300 1.391 . S
C302 C303 1.400 . S
C303 C302 1.400 . S
C303 C304 1.398 . S
C303 C309 1.491 . S
C304 H295 0.950 . S
C304 C303 1.398 . S
C304 C305 1.391 . S
C305 H293 0.950 . S
C305 C301 1.393 . S
C305 C304 1.391 . S
C306 H296 0.950 . S
C306 C307 1.386 . S
C306 C308 1.391 . S
C307 C306 1.386 . S
C307 C311 1.393 . S
C308 H297 0.950 . S
C308 C306 1.391 . S
C308 C309 1.400 . S
C309 C303 1.491 . S
C309 C308 1.400 . S
C309 C310 1.398 . S
C310 H298 0.950 . S
C310 C309 1.398 . S
C310 C311 1.391 . S
C311 H299 0.950 . S
C311 C307 1.393 . S
C311 C310 1.391 . S
H312 C320 0.950 . S
H313 C325 0.950 . S
H314 C322 0.950 . S
H315 C324 0.950 . S
H316 C326 0.950 . S
H317 C328 0.950 . S
H318 C330 0.950 . S
H319 C331 0.950 . S
C320 H312 0.950 . S
C320 C321 1.386 . S
C320 C322 1.391 . S
C321 C320 1.386 . S
C321 C325 1.393 . S
C322 H314 0.950 . S
C322 C320 1.391 . S
C322 C323 1.400 . S
C323 C322 1.400 . S
C323 C324 1.398 . S
C323 C329 1.491 . S
C324 H315 0.950 . S
C324 C323 1.398 . S
C324 C325 1.391 . S
C325 H313 0.950 . S
C325 C321 1.393 . S
C325 C324 1.391 . S
C326 H316 0.950 . S
C326 C327 1.386 . S
C326 C328 1.391 . S
C327 C326 1.386 . S
C327 C331 1.393 . S
C328 H317 0.950 . S
C328 C326 1.391 . S
C328 C329 1.400 . S
C329 C323 1.491 . S
C329 C328 1.400 . S
C329 C330 1.398 . S
C330 H318 0.950 . S
C330 C329 1.398 . S
C330 C331 1.391 . S
C331 H319 0.950 . S
C331 C327 1.393 . S
C331 C330 1.391 . S
H332 C340 0.950 . S
H333 C345 0.950 . S
H334 C342 0.950 . S
H335 C344 0.950 . S
H336 C346 0.950 . S
H337 C348 0.950 . S
H338 C350 0.950 . S
H339 C351 0.950 . S
C340 H332 0.950 . S
C340 C341 1.386 . S
C340 C342 1.391 . S
C341 C340 1.386 . S
C341 C345 1.393 . S
C342 H334 0.950 . S
C342 C340 1.391 . S
C342 C343 1.400 . S
C343 C342 1.400 . S
C343 C344 1.398 . S
C343 C349 1.491 . S
C344 H335 0.950 . S
C344 C343 1.398 . S
C344 C345 1.391 . S
C345 H333 0.950 . S
C345 C341 1.393 . S
C345 C344 1.391 . S
C346 H336 0.950 . S
C346 C347 1.386 . S
C346 C348 1.391 . S
C347 C346 1.386 . S
C347 C351 1.393 . S
C348 H337 0.950 . S
C348 C346 1.391 . S
C348 C349 1.400 . S
C349 C343 1.491 . S
C349 C348 1.400 . S
C349 C350 1.398 . S
C350 H338 0.950 . S
C350 C349 1.398 . S
C350 C351 1.391 . S
C351 H339 0.950 . S
C351 C347 1.393 . S
C351 C350 1.391 . S
H352 C360 0.950 . S
H353 C365 0.950 . S
H354 C362 0.950 . S
H355 C364 0.950 . S
H356 C366 0.950 . S
H357 C368 0.950 . S
H358 C370 0.950 . S
H359 C371 0.950 . S
C360 H352 0.950 . S
C360 C361 1.386 . S
C360 C362 1.391 . S
C361 C360 1.386 . S
C361 C365 1.393 . S
C362 H354 0.950 . S
C362 C360 1.391 . S
C362 C363 1.400 . S
C363 C362 1.400 . S
C363 C364 1.398 . S
C363 C369 1.491 . S
C364 H355 0.950 . S
C364 C363 1.398 . S
C364 C365 1.391 . S
C365 H353 0.950 . S
C365 C361 1.393 . S
C365 C364 1.391 . S
C366 H356 0.950 . S
C366 C367 1.386 . S
C366 C368 1.391 . S
C367 C366 1.386 . S
C367 C371 1.393 . S
C368 H357 0.950 . S
C368 C366 1.391 . S
C368 C369 1.400 . S
C369 C363 1.491 . S
C369 C368 1.400 . S
C369 C370 1.398 . S
C370 H358 0.950 . S
C370 C369 1.398 . S
C370 C371 1.391 . S
C371 H359 0.950 . S
C371 C367 1.393 . S
C371 C370 1.391 . S
H372 C380 0.950 . S
H373 C385 0.950 . S
H374 C382 0.950 . S
H375 C384 0.950 . S
H376 C386 0.950 . S
H377 C388 0.950 . S
H378 C390 0.950 . S
H379 C391 0.950 . S
C380 H372 0.950 . S
C380 C381 1.386 . S
C380 C382 1.391 . S
C381 C380 1.386 . S
C381 C385 1.393 . S
C382 H374 0.950 . S
C382 C380 1.391 . S
C382 C383 1.400 . S
C383 C382 1.400 . S
C383 C384 1.398 . S
C383 C389 1.491 1_554 S
C384 H375 0.950 . S
C384 C383 1.398 . S
C384 C385 1.391 . S
C385 H373 0.950 . S
C385 C381 1.393 . S
C385 C384 1.391 . S
C386 H376 0.950 . S
C386 C387 1.386 . S
C386 C388 1.391 . S
C387 C386 1.386 . S
C387 C391 1.393 . S
C388 H377 0.950 . S
C388 C386 1.391 . S
C388 C389 1.400 . S
C389 C383 1.491 1_556 S
C389 C388 1.400 . S
C389 C390 1.398 . S
C390 H378 0.950 . S
C390 C389 1.398 . S
C390 C391 1.391 . S
C391 H379 0.950 . S
C391 C387 1.393 . S
C391 C390 1.391 . S
H392 C400 0.950 . S
H393 C405 0.950 . S
H394 C402 0.950 . S
H395 C404 0.950 . S
H396 C406 0.950 . S
H397 C408 0.950 . S
H398 C410 0.950 . S
H399 C411 0.950 . S
C400 H392 0.950 . S
C400 C401 1.386 . S
C400 C402 1.391 1_455 S
C401 C400 1.386 . S
C401 C405 1.393 . S
C402 H394 0.950 . S
C402 C400 1.391 1_655 S
C402 C403 1.400 1_655 S
C403 C402 1.400 1_455 S
C403 C404 1.398 . S
C403 C409 1.491 1_455 S
C404 H395 0.950 . S
C404 C403 1.398 . S
C404 C405 1.391 . S
C405 H393 0.950 . S
C405 C401 1.393 . S
C405 C404 1.391 . S
C406 H396 0.950 . S
C406 C407 1.386 . S
C406 C408 1.391 1_655 S
C407 C406 1.386 . S
C407 C411 1.393 . S
C408 H397 0.950 . S
C408 C406 1.391 1_455 S
C408 C409 1.400 1_455 S
C409 C403 1.491 1_655 S
C409 C408 1.400 1_655 S
C409 C410 1.398 . S
C410 H398 0.950 . S
C410 C409 1.398 . S
C410 C411 1.391 . S
C411 H399 0.950 . S
C411 C407 1.393 . S
C411 C410 1.391 . S
H412 C420 0.950 . S
H413 C425 0.950 . S
H414 C422 0.950 . S
H415 C424 0.950 . S
H416 C426 0.950 . S
H417 C428 0.950 . S
H418 C430 0.950 . S
H419 C431 0.950 . S
C420 H412 0.950 . S
C420 C421 1.386 1_565 S
C420 C422 1.391 . S
C421 C420 1.386 1_545 S
C421 C425 1.393 . S
C422 H414 0.950 . S
C422 C420 1.391 . S
C422 C423 1.400 1_565 S
C423 C422 1.400 1_545 S
C423 C424 1.398 . S
C423 C429 1.491 1_546 S
C424 H415 0.950 . S
C424 C423 1.398 . S
C424 C425 1.391 . S
C425 H413 0.950 . S
C425 C421 1.393 . S
C425 C424 1.391 . S
C426 H416 0.950 . S
C426 C427 1.386 1_545 S
C426 C428 1.391 . S
C427 C426 1.386 1_565 S
C427 C431 1.393 . S
C428 H417 0.950 . S
C428 C426 1.391 . S
C428 C429 1.400 1_545 S
C429 C423 1.491 1_564 S
C429 C428 1.400 1_565 S
C429 C430 1.398 . S
C430 H418 0.950 . S
C430 C429 1.398 . S
C430 C431 1.391 . S
C431 H419 0.950 . S
C431 C427 1.393 . S
C431 C430 1.391 . S
H432 C440 0.950 . S
H433 C445 0.950 . S
H434 C442 0.950 . S
H435 C444 0.950 . S
H436 C446 0.950 . S
H437 C448 0.950 . S
H438 C450 0.950 . S
H439 C451 0.950 . S
C440 H432 0.950 . S
C440 C441 1.386 . S
C440 C442 1.391 . S
C441 C440 1.386 . S
C441 C445 1.393 . S
C442 H434 0.950 . S
C442 C440 1.391 . S
C442 C443 1.400 . S
C443 C442 1.400 . S
C443 C444 1.398 . S
C443 C449 1.491 . S
C444 H435 0.950 . S
C444 C443 1.398 . S
C444 C445 1.391 . S
C445 H433 0.950 . S
C445 C441 1.393 . S
C445 C444 1.391 . S
C446 H436 0.950 . S
C446 C447 1.386 . S
C446 C448 1.391 . S
C447 C446 1.386 . S
C447 C451 1.393 . S
C448 H437 0.950 . S
C448 C446 1.391 . S
C448 C449 1.400 . S
C449 C443 1.491 . S
C449 C448 1.400 . S
C449 C450 1.398 . S
C450 H438 0.950 . S
C450 C449 1.398 . S
C450 C451 1.391 . S
C451 H439 0.950 . S
C451 C447 1.393 . S
C451 C450 1.391 . S
H452 C460 0.960 . S
H453 C465 0.950 . S
H454 C462 0.950 . S
H455 C464 0.950 . S
H456 C466 0.952 1_455 S
H457 C468 0.950 . S
H458 C470 0.950 . S
H459 C471 0.950 . S
C460 H452 0.960 . S
C460 C461 1.386 . S
C460 C462 1.391 1_455 S
C461 C460 1.386 . S
C461 C465 1.393 . S
C462 H454 0.950 . S
C462 C460 1.391 1_655 S
C462 C463 1.400 1_655 S
C463 C462 1.400 1_455 S
C463 C464 1.398 . S
C463 C469 1.491 1_454 S
C464 H455 0.950 . S
C464 C463 1.398 . S
C464 C465 1.391 . S
C465 H453 0.950 . S
C465 C461 1.393 . S
C465 C464 1.391 . S
C466 H456 0.952 1_655 S
C466 C467 1.386 . S
C466 C468 1.391 1_655 S
C467 C466 1.386 . S
C467 C471 1.393 . S
C468 H457 0.950 . S
C468 C466 1.391 1_455 S
C468 C469 1.400 1_455 S
C469 C463 1.491 1_656 S
C469 C468 1.400 1_655 S
C469 C470 1.398 . S
C470 H458 0.950 . S
C470 C469 1.398 . S
C470 C471 1.391 . S
C471 H459 0.950 . S
C471 C467 1.393 . S
C471 C470 1.391 . S
H472 C480 0.950 . S
H473 C485 0.946 1_545 S
H474 C482 0.950 . S
H475 C484 0.950 . S
H476 C486 0.950 . S
H477 C488 0.950 . S
H478 C490 0.950 . S
H479 C491 0.954 . S
C480 H472 0.950 . S
C480 C481 1.386 . S
C480 C482 1.391 . S
C481 C480 1.386 . S
C481 C485 1.398 . S
C482 H474 0.950 . S
C482 C480 1.391 . S
C482 C483 1.400 . S
C483 C482 1.400 . S
C483 C484 1.398 1_565 S
C483 C489 1.491 1_565 S
C484 H475 0.950 . S
C484 C483 1.398 1_545 S
C484 C485 1.389 1_545 S
C485 H473 0.946 1_565 S
C485 C481 1.398 . S
C485 C484 1.389 1_565 S
C486 H476 0.950 . S
C486 C487 1.386 . S
C486 C488 1.391 . S
C487 C486 1.386 . S
C487 C491 1.386 1_545 S
C488 H477 0.950 . S
C488 C486 1.391 . S
C488 C489 1.400 . S
C489 C483 1.491 1_545 S
C489 C488 1.400 . S
C489 C490 1.398 1_545 S
C490 H478 0.950 . S
C490 C489 1.398 1_565 S
C490 C491 1.393 . S
C491 H479 0.954 . S
C491 C487 1.386 1_565 S
C491 C490 1.393 . S
C141 C5 1.415 . S
C147 C115 1.429 . S
C161 C126 1.389 . S
C167 C16 1.407 . S
C181 C71 1.401 . S
C187 C27 1.389 . S
C201 C38 1.389 . S
C207 C82 1.405 . S
C221 C93 1.411 . S
C227 C49 1.426 . S
C241 C104 1.408 . S
C247 C60 1.427 . S
C261 C7 1.533 . S
C267 C73 1.533 . S
C281 C18 1.533 . S
C287 C84 1.534 . S
C301 C29 1.538 . S
C307 C95 1.520 . S
C321 C106 1.539 . S
C327 C40 1.524 . S
C341 C51 1.520 . S
C347 C117 1.538 . S
C361 C62 1.534 . S
C367 C128 1.533 . S
C381 C8 1.575 . S
C387 C107 1.576 . S
C401 C118 1.578 . S
C407 C19 1.577 . S
C421 C129 1.577 . S
C427 C30 1.576 . S
C441 C41 1.576 . S
C447 C74 1.575 . S
C461 C52 1.578 . S
C467 C85 1.577 . S
C481 C96 1.575 . S
C487 C63 1.576 . S
