# Generated by pormake.
# Topology uni, (4)-cn, num edge types: 1
# Building blocks:
#     Node 0, Type 0, BuildingBlock: QUQFOY_clean_sbu_1, # of connection points: 4
#     Node 1, Type 0, BuildingBlock: QUQFOY_clean_sbu_1, # of connection points: 4
#     Node 2, Type 0, BuildingBlock: QUQFOY_clean_sbu_1, # of connection points: 4
#     Node 3, Type 0, BuildingBlock: QUQFOY_clean_sbu_1, # of connection points: 4
#     Node 4, Type 0, BuildingBlock: QUQFOY_clean_sbu_1, # of connection points: 4
#     Node 5, Type 0, BuildingBlock: QUQFOY_clean_sbu_1, # of connection points: 4
#     Edge 6, Type (0, 0), BuildingBlock: ZUJKAS_clean_linker_0, # of connection points: 2
#     Edge 7, Type (0, 0), BuildingBlock: ZUJKAS_clean_linker_0, # of connection points: 2
#     Edge 8, Type (0, 0), BuildingBlock: ZUJKAS_clean_linker_0, # of connection points: 2
#     Edge 9, Type (0, 0), BuildingBlock: ZUJKAS_clean_linker_0, # of connection points: 2
#     Edge 10, Type (0, 0), BuildingBlock: ZUJKAS_clean_linker_0, # of connection points: 2
#     Edge 11, Type (0, 0), BuildingBlock: ZUJKAS_clean_linker_0, # of connection points: 2
#     Edge 12, Type (0, 0), BuildingBlock: ZUJKAS_clean_linker_0, # of connection points: 2
#     Edge 13, Type (0, 0), BuildingBlock: ZUJKAS_clean_linker_0, # of connection points: 2
#     Edge 14, Type (0, 0), BuildingBlock: ZUJKAS_clean_linker_0, # of connection points: 2
#     Edge 15, Type (0, 0), BuildingBlock: ZUJKAS_clean_linker_0, # of connection points: 2
#     Edge 16, Type (0, 0), BuildingBlock: ZUJKAS_clean_linker_0, # of connection points: 2
#     Edge 17, Type (0, 0), BuildingBlock: ZUJKAS_clean_linker_0, # of connection points: 2
# Relax obj value: 0.072
# Max RMSD: 0.154
# Mean RMSD: 0.154
data_MOF--net-uni--node1-QUQFOY_clean_sbu_1--edge1-ZUJKAS_clean_linker_0
_symmetry_space_group_name_H-M    P1
_symmetry_Int_Tables_number       1
_symmetry_cell_setting            triclinic
loop_
_symmetry_equiv_pos_as_xyz
'x, y, z'
_cell_length_a     54.460243
_cell_length_b     54.440366
_cell_length_c     28.662422
_cell_angle_alpha  90.004694
_cell_angle_beta   89.983649
_cell_angle_gamma 120.01332
loop_
_atom_site_label
_atom_site_type_symbol
_atom_site_fract_x
_atom_site_fract_y
_atom_site_fract_z
_atom_type_partial_charge
O0 O 0.6378 0.04401 0.00385 0.0
Cd1 Cd 0.66464 0.05591 0.0605 0.0
Cd2 Cd 0.63506 0.99719 0.0743 0.0
O3 O 0.61618 0.99752 0.01205 0.0
O4 O 0.69124 0.09683 0.048 0.0
O5 O 0.70544 0.06539 0.05282 0.0
C6 C 0.71158 0.09128 0.04567 0.0
C7 C 0.64584 0.96099 0.08601 0.0
C8 C 0.61973 0.01929 0.98991 0.0
C9 C 0.62896 0.03431 0.14681 0.0
O10 O 0.62171 0.00949 0.13252 0.0
O11 O 0.6469 0.05596 0.12411 0.0
O12 O 0.62013 0.95604 0.08567 0.0
O13 O 0.66586 0.98678 0.07909 0.0
O14 O 0.62041 0.63516 0.17171 0.0
Cd15 Cd 0.63511 0.66209 0.22831 0.0
Cd16 Cd 0.66472 0.633 0.24209 0.0
O17 O 0.64594 0.61424 0.17952 0.0
O18 O 0.62025 0.68824 0.21576 0.0
O19 O 0.66602 0.70309 0.22054 0.0
C20 C 0.64601 0.70884 0.2134 0.0
C21 C 0.71165 0.64386 0.25481 0.0
C22 C 0.62745 0.61742 0.15756 0.0
C23 C 0.6209 0.62608 0.31414 0.0
O24 O 0.63862 0.61906 0.29978 0.0
O25 O 0.61723 0.64415 0.29177 0.0
O26 O 0.69092 0.61812 0.25394 0.0
O27 O 0.70589 0.66387 0.24776 0.0
O28 O 0.01103 0.61711 0.33853 0.0
Cd29 Cd 0.99941 0.63197 0.39564 0.0
Cd30 Cd 0.05821 0.66166 0.4076 0.0
O31 O 0.05756 0.64284 0.34474 0.0
O32 O 0.9583 0.61709 0.38414 0.0
O33 O 0.98932 0.66288 0.38818 0.0
C34 C 0.9635 0.64286 0.38155 0.0
C35 C 0.09417 0.70871 0.41975 0.0
C36 C 0.03564 0.62423 0.32343 0.0
C37 C 0.02216 0.61804 0.48051 0.0
O38 O 0.04672 0.63566 0.46534 0.0
O39 O 1.00016 0.61434 0.459 0.0
O40 O 0.09936 0.68811 0.41835 0.0
O41 O 0.06828 0.70275 0.41352 0.0
O42 O 0.42039 0.00879 0.50456 0.0
Cd43 Cd 0.39337 0.99705 0.56098 0.0
Cd44 Cd 0.42235 0.05577 0.57343 0.0
O45 O 0.44113 0.05531 0.51114 0.0
O46 O 0.36723 0.95596 0.54903 0.0
O47 O 0.35243 0.98696 0.55262 0.0
C48 C 0.34667 0.96115 0.54601 0.0
C49 C 0.41113 0.0917 0.58476 0.0
C50 C 0.43806 0.03347 0.48987 0.0
C51 C 0.42931 0.01956 0.6467 0.0
O52 O 0.4364 0.04419 0.63164 0.0
O53 O 0.41118 0.99763 0.6248 0.0
O54 O 0.43694 0.09693 0.584 0.0
O55 O 0.39126 0.06578 0.57847 0.0
O56 O 0.43754 0.41763 0.67107 0.0
Cd57 Cd 0.4233 0.39075 0.72777 0.0
Cd58 Cd 0.39406 0.42015 0.74266 0.0
O59 O 0.41225 0.43877 0.67969 0.0
O60 O 0.43776 0.36438 0.7143 0.0
O61 O 0.39211 0.34984 0.72046 0.0
C62 C 0.41192 0.3439 0.71254 0.0
C63 C 0.34733 0.40924 0.75759 0.0
C64 C 0.43047 0.4354 0.6572 0.0
C65 C 0.43824 0.42667 0.81372 0.0
O66 O 0.42061 0.4339 0.79977 0.0
O67 O 0.44167 0.40854 0.79104 0.0
O68 O 0.36802 0.435 0.75617 0.0
O69 O 0.35299 0.38926 0.74941 0.0
O70 O 0.04726 0.43405 0.8375 0.0
Cd71 Cd 0.05858 0.41943 0.89526 0.0
Cd72 Cd 0.99986 0.38973 0.90718 0.0
O73 O 1.00073 0.40865 0.84433 0.0
O74 O 0.09976 0.43411 0.88499 0.0
O75 O 0.06854 0.38836 0.88917 0.0
C76 C 0.09449 0.40829 0.88331 0.0
C77 C 0.96399 0.34256 0.91862 0.0
C78 C 0.02262 0.42703 0.82264 0.0
C79 C 0.03553 0.43346 0.97991 0.0
O80 O 0.01097 0.41559 0.96505 0.0
O81 O 0.05753 0.43732 0.95819 0.0
O82 O 0.95867 0.36307 0.91713 0.0
O83 O 0.98998 0.34869 0.91302 0.0
H84 H 0.58868 0.99263 0.2018 0.0
H85 H 0.55958 0.99762 0.26154 0.0
H86 H 0.60618 0.08847 0.2441 0.0
H87 H 0.63523 0.08372 0.1835 0.0
H88 H 0.57305 0.02723 0.3456 0.0
H89 H 0.52385 0.06815 0.22054 0.0
H90 H 0.54434 0.05222 0.20164 0.0
H91 H 0.5619 0.08793 0.22351 0.0
C92 C 0.593 0.01374 0.21088 0.0
C93 C 0.61413 0.03776 0.18746 0.0
C94 C 0.57631 0.01653 0.24507 0.0
C95 C 0.58034 0.04335 0.25651 0.0
C96 C 0.60232 0.06752 0.23498 0.0
H97 H 0.48072 0.08267 0.4517 0.0
H98 H 0.5162 0.08716 0.39448 0.0
C99 C 0.61905 0.06476 0.20064 0.0
C100 C 0.56089 0.04561 0.2901 0.0
H101 H 0.50891 0.06312 0.29893 0.0
C102 C 0.55915 0.03523 0.33549 0.0
C103 C 0.54278 0.05607 0.27673 0.0
C104 C 0.54303 0.06654 0.22788 0.0
C105 C 0.53953 0.03468 0.36775 0.0
C106 C 0.52096 0.04444 0.35401 0.0
C107 C 0.5232 0.05561 0.30914 0.0
C108 C 0.49825 0.04195 0.38533 0.0
C109 C 0.53865 0.02349 0.41625 0.0
C110 C 0.47593 0.01507 0.39766 0.0
C111 C 0.45559 0.01239 0.43003 0.0
C112 C 0.45721 0.0366 0.45074 0.0
C113 C 0.47889 0.06359 0.43656 0.0
C114 C 0.4992 0.06623 0.40396 0.0
H115 H 0.5584 0.02316 0.42468 0.0
H116 H 0.53549 0.03654 0.44276 0.0
H117 H 0.52058 1.00146 0.41881 0.0
H118 H 0.47462 0.99611 0.38298 0.0
H119 H 0.43914 0.99129 0.43989 0.0
H120 H 0.62158 0.5848 0.36737 0.0
H121 H 0.58648 0.55438 0.42497 0.0
H122 H 0.5424 0.60114 0.40877 0.0
H123 H 0.57748 0.63187 0.35083 0.0
H124 H 0.54988 0.58581 0.50598 0.0
H125 H 0.5034 0.49539 0.38169 0.0
H126 H 0.54126 0.51267 0.38835 0.0
H127 H 0.52551 0.53172 0.36309 0.0
C128 C 0.60468 0.58895 0.37639 0.0
C129 C 0.60221 0.61064 0.35407 0.0
C130 C 0.58457 0.57143 0.40918 0.0
C131 C 0.56164 0.57525 0.42034 0.0
C132 C 0.55988 0.59779 0.40023 0.0
H133 H 0.42385 0.4783 0.62033 0.0
H134 H 0.45309 0.51253 0.56031 0.0
C135 C 0.57998 0.61534 0.36723 0.0
C136 C 0.539 0.55486 0.45158 0.0
H137 H 0.48809 0.48509 0.46043 0.0
C138 C 0.5361 0.56385 0.49602 0.0
C139 C 0.5211 0.52632 0.43815 0.0
C140 C 0.5227 0.51588 0.39009 0.0
C141 C 0.51654 0.54462 0.52837 0.0
C142 C 0.4991 0.51585 0.51533 0.0
C143 C 0.50148 0.50714 0.47031 0.0
C144 C 0.47972 0.49404 0.54889 0.0
C145 C 0.51562 0.55498 0.57682 0.0
C146 C 0.48417 0.47158 0.56073 0.0
C147 C 0.46736 0.45184 0.59453 0.0
C148 C 0.44569 0.45415 0.61721 0.0
C149 C 0.44045 0.47599 0.60377 0.0
C150 C 0.45729 0.49571 0.56977 0.0
H151 H 0.53447 0.57602 0.58421 0.0
H152 H 0.49645 0.55706 0.5803 0.0
H153 H 0.51441 0.53965 0.60357 0.0
H154 H 0.50125 0.46978 0.54477 0.0
H155 H 0.47195 0.43527 0.60383 0.0
H156 H 0.06485 0.46882 0.77044 0.0
H157 H 0.06025 0.4986 0.71152 0.0
H158 H 0.96922 0.45043 0.72478 0.0
H159 H 0.97355 0.42068 0.7845 0.0
H160 H 0.03207 0.48588 0.62624 0.0
H161 H 0.98757 0.53196 0.75062 0.0
H162 H 1.00377 0.51177 0.76969 0.0
H163 H 0.96841 0.49394 0.74638 0.0
C164 C 0.04379 0.46432 0.76062 0.0
C165 C 0.01957 0.4425 0.78258 0.0
C166 C 0.04123 0.48141 0.72693 0.0
C167 C 0.01444 0.47709 0.71455 0.0
C168 C 0.99012 0.45451 0.73466 0.0
H169 H 0.97338 0.57473 0.51862 0.0
H170 H 0.9697 0.53988 0.57645 0.0
C171 C 0.99265 0.43739 0.7685 0.0
C172 C 0.01229 0.49675 0.68127 0.0
H173 H 0.993 0.54744 0.67242 0.0
C174 C 0.02341 0.49924 0.63626 0.0
C175 C 1.00098 0.51415 0.69452 0.0
C176 C 0.98969 0.5131 0.74302 0.0
C177 C 0.02376 0.51887 0.6042 0.0
C178 C 0.01304 0.53668 0.61779 0.0
C179 C 1.00124 0.53373 0.66232 0.0
C180 C 0.01497 0.55918 0.58654 0.0
C181 C 0.03567 0.52048 0.55603 0.0
C182 C 0.04158 0.58208 0.5746 0.0
C183 C 0.04379 0.60206 0.54185 0.0
C184 C 0.01938 0.59949 0.52039 0.0
C185 C 0.99261 0.5773 0.53434 0.0
C186 C 0.99044 0.55734 0.56728 0.0
H187 H 0.03682 0.50117 0.54751 0.0
H188 H 0.02259 0.5233 0.52917 0.0
H189 H 0.05745 0.53903 0.55419 0.0
H190 H 0.06072 0.58408 0.58976 0.0
H191 H 0.06474 0.61894 0.53222 0.0
H192 H 0.62051 0.06128 0.93663 0.0
H193 H 0.58604 0.05661 0.87789 0.0
H194 H 0.54187 0.96568 0.89403 0.0
H195 H 0.57606 0.97011 0.95363 0.0
H196 H 0.56995 0.02754 0.79356 0.0
H197 H 0.47969 0.98559 0.91847 0.0
H198 H 0.5161 1.00147 0.93738 0.0
H199 H 0.49801 0.96587 0.91501 0.0
C200 C 0.60363 0.04023 0.92753 0.0
C201 C 0.60092 0.01608 0.95022 0.0
C202 C 0.58392 0.03762 0.89392 0.0
C203 C 0.56109 0.01086 0.88235 0.0
C204 C 0.55899 0.98658 0.90328 0.0
H205 H 0.42306 0.97059 0.68531 0.0
H206 H 0.45376 0.96657 0.74365 0.0
C207 C 0.57869 0.98915 0.93704 0.0
C208 C 0.53936 0.00872 0.84893 0.0
H209 H 0.4697 0.99058 0.84004 0.0
C210 C 0.54801 0.01934 0.80365 0.0
C211 C 0.51074 0.998 0.86226 0.0
C212 C 0.50051 0.98728 0.91101 0.0
C213 C 0.52888 0.01979 0.77144 0.0
C214 C 0.50046 0.00968 0.7851 0.0
C215 C 0.49155 0.99835 0.82989 0.0
C216 C 0.48012 0.01183 0.75364 0.0
C217 C 0.5392 0.0312 0.72302 0.0
C218 C 0.48421 0.03855 0.74147 0.0
C219 C 0.46671 0.04096 0.70845 0.0
C220 C 0.44476 0.01663 0.6869 0.0
C221 C 0.4398 0.98976 0.70108 0.0
C222 C 0.45733 0.98739 0.73432 0.0
H223 H 0.55953 0.03203 0.71471 0.0
H224 H 0.52318 0.01796 0.6964 0.0
H225 H 0.54266 0.05305 0.72054 0.0
H226 H 0.50146 0.05762 0.75664 0.0
H227 H 0.47107 0.06198 0.69862 0.0
H228 H 0.58462 0.61638 0.10641 0.0
H229 H 0.55438 0.5809 0.04917 0.0
H230 H 0.60372 0.53932 0.06244 0.0
H231 H 0.63428 0.57479 0.12005 0.0
H232 H 0.58732 0.54696 0.96587 0.0
H233 H 0.49771 0.49672 0.09134 0.0
H234 H 0.5139 0.53459 0.08584 0.0
H235 H 0.53398 0.51954 0.10959 0.0
C236 C 0.58935 0.59994 0.09687 0.0
C237 C 0.61176 0.59831 0.1182 0.0
C238 C 0.57193 0.57961 0.06429 0.0
C239 C 0.57657 0.5573 0.05235 0.0
C240 C 0.59973 0.55633 0.0716 0.0
H241 H 0.48172 0.42065 0.84948 0.0
H242 H 0.51565 0.44966 0.90999 0.0
C243 C 0.61717 0.57663 0.10441 0.0
C244 C 0.55653 0.53456 0.02092 0.0
H245 H 0.48734 0.48217 0.01223 0.0
C246 C 0.56554 0.53252 0.97601 0.0
C247 C 0.52821 0.5158 0.03457 0.0
C248 C 0.51782 0.51649 0.08309 0.0
C249 C 0.54651 0.51297 0.94346 0.0
C250 C 0.51794 0.49469 0.95673 0.0
C251 C 0.50923 0.4962 0.00219 0.0
C252 C 0.49628 0.47535 0.92299 0.0
C253 C 0.5568 0.51296 0.89457 0.0
C254 C 0.47344 0.47933 0.91185 0.0
C255 C 0.4539 0.46267 0.87773 0.0
C256 C 0.45677 0.44161 0.85406 0.0
C257 C 0.47896 0.43678 0.86684 0.0
C258 C 0.49851 0.45348 0.90112 0.0
H259 H 0.57758 0.5322 0.88739 0.0
H260 H 0.55935 0.49412 0.88994 0.0
H261 H 0.54119 0.51173 0.86839 0.0
H262 H 0.47122 0.49597 0.92859 0.0
H263 H 0.43703 0.46692 0.86898 0.0
H264 H 0.99296 0.43238 0.03202 0.0
H265 H 0.99698 0.46715 0.08979 0.0
H266 H 0.08797 0.51175 0.07553 0.0
H267 H 0.08428 0.47699 0.01755 0.0
H268 H 0.06553 0.50434 0.17137 0.0
H269 H 0.01979 0.54969 0.04853 0.0
H270 H 0.99935 0.51184 0.05557 0.0
H271 H 0.03395 0.52762 0.02948 0.0
C272 C 0.0139 0.44934 0.04149 0.0
C273 C 0.03829 0.45203 0.01974 0.0
C274 C 0.01611 0.46927 0.07436 0.0
C275 C 0.04271 0.49225 0.08611 0.0
C276 C 0.06723 0.49423 0.06652 0.0
H277 H 0.08464 0.63081 0.28446 0.0
H278 H 0.08886 0.60111 0.22445 0.0
C279 C 0.06506 0.47432 0.03348 0.0
C280 C 0.04467 0.51468 0.11759 0.0
H281 H 0.0251 0.56503 0.1273 0.0
C282 C 0.05698 0.51785 0.16173 0.0
C283 C 0.03356 0.53226 0.10459 0.0
C284 C 0.02112 0.53045 0.05682 0.0
C285 C 0.05738 0.5374 0.19415 0.0
C286 C 0.04568 0.55456 0.18151 0.0
C287 C 0.03405 0.55185 0.13686 0.0
C288 C 0.0436 0.57412 0.2151 0.0
C289 C 0.06924 0.53868 0.24224 0.0
C290 C 0.01682 0.5696 0.22809 0.0
C291 C 0.01433 0.58666 0.26191 0.0
C292 C 0.03861 0.60866 0.28342 0.0
C293 C 0.06551 0.61395 0.26881 0.0
C294 C 0.06797 0.59686 0.23481 0.0
H295 H 0.07163 0.51995 0.24956 0.0
H296 H 0.09047 0.55796 0.24505 0.0
H297 H 0.05537 0.53994 0.26943 0.0
H298 H 0.99776 0.55228 0.21302 0.0
H299 H 0.99329 0.58202 0.27214 0.0
H300 H 0.69781 0.75736 0.20201 0.0
H301 H 0.70656 0.80433 0.17732 0.0
H302 H 0.61645 0.77232 0.17221 0.0
H303 H 0.60752 0.72568 0.19653 0.0
H304 H 0.64866 0.80207 0.08907 0.0
H305 H 0.69313 0.86266 0.25395 0.0
H306 H 0.70756 0.84155 0.23179 0.0
H307 H 0.6719 0.82442 0.25336 0.0
C308 C 0.6799 0.76044 0.19601 0.0
C309 C 0.65197 0.73777 0.20122 0.0
C310 C 0.68494 0.78727 0.18203 0.0
C311 C 0.66213 0.79176 0.17315 0.0
C312 C 0.63433 0.76927 0.17889 0.0
H313 H 0.6073 0.90489 0.09525 0.0
H314 H 0.61605 0.86615 0.1125 0.0
C315 C 0.62929 0.74261 0.19288 0.0
C316 C 0.66664 0.81944 0.15625 0.0
H317 H 0.68478 0.88617 0.19251 0.0
C318 C 0.65696 0.82061 0.11142 0.0
C319 C 0.67769 0.84362 0.18535 0.0
C320 C 0.68811 0.84322 0.23393 0.0
C321 C 0.65691 0.84496 0.09558 0.0
C322 C 0.66632 0.86856 0.1257 0.0
C323 C 0.67751 0.868 0.16957 0.0
C324 C 0.66173 0.89252 0.11423 0.0
C325 C 0.64613 0.84495 0.04709 0.0
C326 C 0.68455 0.92039 0.11036 0.0
C327 C 0.6796 0.94278 0.10047 0.0
C328 C 0.65173 0.93761 0.0949 0.0
C329 C 0.62903 0.90966 0.09909 0.0
C330 C 0.63399 0.88741 0.10874 0.0
H331 H 0.64827 0.82976 0.02393 0.0
H332 H 0.62329 0.83835 0.04899 0.0
H333 H 0.65768 0.86641 0.03118 0.0
H334 H 0.70612 0.92477 0.11488 0.0
H335 H 0.69751 0.96411 0.0977 0.0
H336 H 0.90815 0.60431 0.36476 0.0
H337 H 0.87053 0.61321 0.33992 0.0
H338 H 0.92852 0.70336 0.34548 0.0
H339 H 0.96671 0.69466 0.37057 0.0
H340 H 0.87139 0.68224 0.38774 0.0
H341 H 0.86774 0.64388 0.20731 0.0
H342 H 0.86717 0.62024 0.25157 0.0
H343 H 0.89799 0.65482 0.24518 0.0
C344 C 0.91303 0.62609 0.36092 0.0
C345 C 0.94053 0.64879 0.36938 0.0
C346 C 0.89147 0.63111 0.34652 0.0
C347 C 0.89689 0.6589 0.34015 0.0
C348 C 0.92403 0.68174 0.34989 0.0
H349 H 0.76036 0.69563 0.26495 0.0
H350 H 0.80816 0.70432 0.2833 0.0
C351 C 0.94577 0.67673 0.36422 0.0
C352 C 0.87386 0.66355 0.32306 0.0
H353 H 0.82704 0.64606 0.23303 0.0
C354 C 0.86198 0.67493 0.35357 0.0
C355 C 0.86178 0.65406 0.2784 0.0
C356 C 0.87446 0.6428 0.24349 0.0
C357 C 0.83709 0.67528 0.3417 0.0
C358 C 0.82412 0.66429 0.29799 0.0
C359 C 0.83697 0.65438 0.26657 0.0
C360 C 0.79568 0.65985 0.28619 0.0
C361 C 0.82388 0.68577 0.37696 0.0
C362 C 0.77305 0.63207 0.28086 0.0
C363 C 0.74595 0.62708 0.27029 0.0
C364 C 0.74083 0.64978 0.26456 0.0
C365 C 0.76361 0.6777 0.26925 0.0
C366 C 0.79087 0.68269 0.27998 0.0
H367 H 0.8344 0.68984 0.41156 0.0
H368 H 0.82566 0.70586 0.36429 0.0
H369 H 0.801 0.67009 0.38131 0.0
H370 H 0.77632 0.61415 0.28542 0.0
H371 H 0.72895 0.60531 0.26686 0.0
H372 H 0.15022 0.72645 0.43015 0.0
H373 H 0.18867 0.77394 0.44849 0.0
H374 H 0.12981 0.8051 0.44906 0.0
H375 H 0.09078 0.75718 0.43096 0.0
H376 H 0.20686 0.82475 0.39696 0.0
H377 H 0.17125 0.83119 0.5766 0.0
H378 H 0.15756 0.79792 0.54589 0.0
H379 H 0.1462 0.82252 0.52983 0.0
C380 C 0.14532 0.74333 0.43411 0.0
C381 C 0.11738 0.73798 0.42924 0.0
C382 C 0.16738 0.7705 0.44455 0.0
C383 C 0.16206 0.79297 0.4506 0.0
C384 C 0.13428 0.78793 0.44519 0.0
H385 H 0.29797 0.96417 0.53546 0.0
H386 H 0.25111 0.92591 0.51029 0.0
C387 C 0.11207 0.76061 0.4346 0.0
C388 C 0.186 0.82147 0.46239 0.0
H389 H 0.21555 0.86854 0.55238 0.0
C390 C 0.20857 0.83455 0.43067 0.0
C391 C 0.18812 0.83427 0.50632 0.0
C392 C 0.16464 0.82081 0.54191 0.0
C393 C 0.23368 0.85945 0.4424 0.0
C394 C 0.23643 0.87137 0.48723 0.0
C395 C 0.21332 0.85925 0.51808 0.0
C396 C 0.26412 0.89446 0.50415 0.0
C397 C 0.25744 0.87237 0.40718 0.0
C398 C 0.2866 0.88918 0.51004 0.0
C399 C 0.31315 0.91076 0.5245 0.0
C400 C 0.31783 0.93817 0.53349 0.0
C401 C 0.29506 0.9433 0.5287 0.0
C402 C 0.26832 0.92153 0.51433 0.0
H403 H 0.24949 0.8657 0.37106 0.0
H404 H 0.2688 0.8959 0.40905 0.0
H405 H 0.27288 0.86524 0.4148 0.0
H406 H 0.28364 0.8683 0.50309 0.0
H407 H 0.33012 0.90597 0.52802 0.0
H408 H 0.35984 0.29545 0.70333 0.0
H409 H 0.35048 0.24826 0.67862 0.0
H410 H 0.4404 0.27997 0.66876 0.0
H411 H 0.44994 0.3268 0.69313 0.0
H412 H 0.4061 0.24951 0.58694 0.0
H413 H 0.36574 0.19059 0.7544 0.0
H414 H 0.35109 0.21178 0.73352 0.0
H415 H 0.38722 0.22881 0.75276 0.0
C416 C 0.37758 0.29226 0.69625 0.0
C417 C 0.40563 0.31489 0.70019 0.0
C418 C 0.37219 0.26531 0.68225 0.0
C419 C 0.39478 0.26068 0.67206 0.0
C420 C 0.42269 0.28314 0.67647 0.0
H421 H 0.44923 0.14808 0.59108 0.0
H422 H 0.44016 0.1866 0.60835 0.0
C423 C 0.42808 0.30991 0.6905 0.0
C424 C 0.38987 0.23285 0.65526 0.0
H425 H 0.37317 0.16669 0.69253 0.0
C426 C 0.39846 0.23123 0.60976 0.0
C427 C 0.3797 0.20901 0.685 0.0
C428 C 0.37046 0.20991 0.73427 0.0
C429 C 0.39833 0.20681 0.59385 0.0
C430 C 0.38988 0.1836 0.62454 0.0
C431 C 0.37971 0.18456 0.66915 0.0
C432 C 0.3946 0.15976 0.61283 0.0
C433 C 0.40797 0.20634 0.54467 0.0
C434 C 0.37198 0.13171 0.61042 0.0
C435 C 0.37712 0.10944 0.60049 0.0
C436 C 0.40499 0.11492 0.59345 0.0
C437 C 0.4275 0.14307 0.59611 0.0
C438 C 0.42235 0.16519 0.60575 0.0
H439 H 0.40506 0.22113 0.5217 0.0
H440 H 0.43089 0.21318 0.54501 0.0
H441 H 0.39622 0.18467 0.52954 0.0
H442 H 0.35043 0.12709 0.61617 0.0
H443 H 0.35936 0.08797 0.59892 0.0
H444 H 0.15076 0.44647 0.87531 0.0
H445 H 0.18916 0.43741 0.85676 0.0
H446 H 0.12976 0.34754 0.85134 0.0
H447 H 0.09079 0.35646 0.86972 0.0
H448 H 0.20615 0.40295 0.90687 0.0
H449 H 0.17277 0.36575 0.72441 0.0
H450 H 0.1592 0.38508 0.75619 0.0
H451 H 0.14701 0.34864 0.77007 0.0
C452 C 0.14573 0.42473 0.87026 0.0
C453 C 0.11766 0.40218 0.87385 0.0
C454 C 0.16776 0.4196 0.8597 0.0
C455 C 0.16227 0.39186 0.85222 0.0
C456 C 0.13436 0.36915 0.85637 0.0
H457 H 0.29827 0.35745 0.76436 0.0
H458 H 0.25122 0.3485 0.78914 0.0
C459 C 0.11218 0.37427 0.86712 0.0
C460 C 0.18617 0.38729 0.8402 0.0
H461 H 0.21666 0.37186 0.74904 0.0
C462 C 0.20825 0.39572 0.87261 0.0
C463 C 0.18879 0.37774 0.79555 0.0
C464 C 0.16583 0.36889 0.75926 0.0
C465 C 0.23339 0.39598 0.86094 0.0
C466 C 0.23667 0.38797 0.81547 0.0
C467 C 0.21403 0.37803 0.78384 0.0
C468 C 0.26451 0.39282 0.79889 0.0
C469 C 0.25661 0.40562 0.89695 0.0
C470 C 0.28723 0.42067 0.79517 0.0
C471 C 0.31388 0.42584 0.78093 0.0
C472 C 0.31843 0.40324 0.77 0.0
C473 C 0.29545 0.3753 0.77266 0.0
C474 C 0.26861 0.37014 0.7868 0.0
H475 H 0.24814 0.40335 0.93294 0.0
H476 H 0.26784 0.39337 0.89412 0.0
H477 H 0.27228 0.42836 0.89112 0.0
H478 H 0.28436 0.43848 0.80361 0.0
H479 H 0.33102 0.44762 0.77908 0.0
H480 H 0.96784 0.29468 0.9341 0.0
H481 H 0.92873 0.2466 0.95137 0.0
H482 H 0.86905 0.27648 0.94099 0.0
H483 H 0.90755 0.32409 0.92368 0.0
H484 H 0.88871 0.22986 0.02687 0.0
H485 H 0.83523 0.20652 0.85518 0.0
H486 H 0.87157 0.23429 0.86335 0.0
H487 H 0.84288 0.24034 0.87791 0.0
C488 C 0.94633 0.29088 0.93511 0.0
C489 C 0.94079 0.31318 0.92734 0.0
C490 C 0.92407 0.26347 0.94505 0.0
C491 C 0.89598 0.25793 0.94673 0.0
C492 C 0.8905 0.28016 0.93894 0.0
H493 H 0.72895 0.14654 0.02675 0.0
H494 H 0.77587 0.18377 0.00263 0.0
C495 C 0.91261 0.30744 0.92928 0.0
C496 C 0.87214 0.22936 0.95847 0.0
H497 H 0.8065 0.1794 0.92035 0.0
C498 C 0.87098 0.2184 0.00329 0.0
C499 C 0.84912 0.21444 0.92753 0.0
C500 C 0.84983 0.22434 0.87813 0.0
C501 C 0.84649 0.19394 0.01906 0.0
C502 C 0.82283 0.18013 0.98904 0.0
C503 C 0.82466 0.19016 0.94337 0.0
C504 C 0.79495 0.15725 0.00571 0.0
C505 C 0.84535 0.18396 0.0685 0.0
C506 C 0.79018 0.12995 0.01568 0.0
C507 C 0.76318 0.10842 0.02949 0.0
C508 C 0.74064 0.11396 0.03351 0.0
C509 C 0.74577 0.14148 0.02406 0.0
C510 C 0.77259 0.16283 0.01018 0.0
H511 H 0.86469 0.19848 0.08865 0.0
H512 H 0.82653 0.18219 0.08672 0.0
H513 H 0.84315 0.16257 0.06815 0.0
H514 H 0.80717 0.1252 0.01202 0.0
H515 H 0.75988 0.08742 0.0364 0.0
loop_
_geom_bond_atom_site_label_1
_geom_bond_atom_site_label_2
_geom_bond_distance
_geom_bond_site_symmetry_2
_ccdc_geom_bond_type
O0 Cd1 2.223 . S
O0 C8 1.315 . S
Cd1 O0 2.223 . S
Cd1 O4 2.297 . S
Cd1 O5 2.439 . S
Cd1 O11 2.240 . S
Cd2 O3 2.240 1_565 S
Cd2 O10 2.223 . S
Cd2 O12 2.297 . S
Cd2 O13 2.439 . S
O3 Cd2 2.240 1_545 S
O3 C8 1.279 . S
O4 Cd1 2.297 . S
O4 C6 1.247 . S
O5 Cd1 2.439 . S
O5 C6 1.208 . S
C6 O4 1.247 . S
C6 O5 1.208 . S
C7 O12 1.247 . S
C7 O13 1.208 . S
C8 O0 1.315 . S
C8 O3 1.279 . S
C9 O10 1.315 1_545 S
C9 O11 1.279 . S
O10 Cd2 2.223 . S
O10 C9 1.315 1_565 S
O11 Cd1 2.240 . S
O11 C9 1.279 . S
O12 Cd2 2.297 . S
O12 C7 1.247 . S
O13 Cd2 2.439 . S
O13 C7 1.208 . S
O14 Cd15 2.223 . S
O14 C22 1.315 . S
Cd15 O14 2.223 . S
Cd15 O18 2.297 . S
Cd15 O19 2.439 . S
Cd15 O25 2.240 . S
Cd16 O17 2.240 . S
Cd16 O24 2.223 . S
Cd16 O26 2.297 . S
Cd16 O27 2.439 . S
O17 Cd16 2.240 . S
O17 C22 1.279 . S
O18 Cd15 2.297 . S
O18 C20 1.247 . S
O19 Cd15 2.439 . S
O19 C20 1.208 . S
C20 O18 1.247 . S
C20 O19 1.208 . S
C21 O26 1.247 . S
C21 O27 1.208 . S
C22 O14 1.315 . S
C22 O17 1.279 . S
C23 O24 1.315 . S
C23 O25 1.279 . S
O24 Cd16 2.223 . S
O24 C23 1.315 . S
O25 Cd15 2.240 . S
O25 C23 1.279 . S
O26 Cd16 2.297 . S
O26 C21 1.247 . S
O27 Cd16 2.439 . S
O27 C21 1.208 . S
O28 Cd29 2.223 . S
O28 C36 1.315 1_655 S
Cd29 O28 2.223 . S
Cd29 O32 2.297 . S
Cd29 O33 2.439 . S
Cd29 O39 2.240 1_655 S
Cd30 O31 2.240 . S
Cd30 O38 2.223 . S
Cd30 O40 2.297 . S
Cd30 O41 2.439 . S
O31 Cd30 2.240 . S
O31 C36 1.279 . S
O32 Cd29 2.297 . S
O32 C34 1.247 . S
O33 Cd29 2.439 . S
O33 C34 1.208 . S
C34 O32 1.247 . S
C34 O33 1.208 . S
C35 O40 1.247 . S
C35 O41 1.208 . S
C36 O28 1.315 1_455 S
C36 O31 1.279 . S
C37 O38 1.315 . S
C37 O39 1.279 . S
O38 Cd30 2.223 . S
O38 C37 1.315 . S
O39 Cd29 2.240 1_455 S
O39 C37 1.279 . S
O40 Cd30 2.297 . S
O40 C35 1.247 . S
O41 Cd30 2.439 . S
O41 C35 1.208 . S
O42 Cd43 2.223 . S
O42 C50 1.315 1_565 S
Cd43 O42 2.223 . S
Cd43 O46 2.297 . S
Cd43 O47 2.439 . S
Cd43 O53 2.240 1_565 S
Cd44 O45 2.240 . S
Cd44 O52 2.223 . S
Cd44 O54 2.297 . S
Cd44 O55 2.439 . S
O45 Cd44 2.240 . S
O45 C50 1.279 . S
O46 Cd43 2.297 . S
O46 C48 1.247 . S
O47 Cd43 2.439 . S
O47 C48 1.208 . S
C48 O46 1.247 . S
C48 O47 1.208 . S
C49 O54 1.247 . S
C49 O55 1.208 . S
C50 O42 1.315 1_545 S
C50 O45 1.279 . S
C51 O52 1.315 . S
C51 O53 1.279 . S
O52 Cd44 2.223 . S
O52 C51 1.315 . S
O53 Cd43 2.240 1_545 S
O53 C51 1.279 . S
O54 Cd44 2.297 . S
O54 C49 1.247 . S
O55 Cd44 2.439 . S
O55 C49 1.208 . S
O56 Cd57 2.223 . S
O56 C64 1.315 . S
Cd57 O56 2.223 . S
Cd57 O60 2.297 . S
Cd57 O61 2.439 . S
Cd57 O67 2.240 . S
Cd58 O59 2.240 . S
Cd58 O66 2.223 . S
Cd58 O68 2.297 . S
Cd58 O69 2.439 . S
O59 Cd58 2.240 . S
O59 C64 1.279 . S
O60 Cd57 2.297 . S
O60 C62 1.247 . S
O61 Cd57 2.439 . S
O61 C62 1.208 . S
C62 O60 1.247 . S
C62 O61 1.208 . S
C63 O68 1.247 . S
C63 O69 1.208 . S
C64 O56 1.315 . S
C64 O59 1.279 . S
C65 O66 1.315 . S
C65 O67 1.279 . S
O66 Cd58 2.223 . S
O66 C65 1.315 . S
O67 Cd57 2.240 . S
O67 C65 1.279 . S
O68 Cd58 2.297 . S
O68 C63 1.247 . S
O69 Cd58 2.439 . S
O69 C63 1.208 . S
O70 Cd71 2.223 . S
O70 C78 1.315 . S
Cd71 O70 2.223 . S
Cd71 O74 2.297 . S
Cd71 O75 2.439 . S
Cd71 O81 2.240 . S
Cd72 O73 2.240 1_655 S
Cd72 O80 2.223 . S
Cd72 O82 2.297 . S
Cd72 O83 2.439 . S
O73 Cd72 2.240 1_455 S
O73 C78 1.279 . S
O74 Cd71 2.297 . S
O74 C76 1.247 . S
O75 Cd71 2.439 . S
O75 C76 1.208 . S
C76 O74 1.247 . S
C76 O75 1.208 . S
C77 O82 1.247 . S
C77 O83 1.208 . S
C78 O70 1.315 . S
C78 O73 1.279 . S
C79 O80 1.315 1_455 S
C79 O81 1.279 . S
O80 Cd72 2.223 . S
O80 C79 1.315 1_655 S
O81 Cd71 2.240 . S
O81 C79 1.279 . S
O82 Cd72 2.297 . S
O82 C77 1.247 . S
O83 Cd72 2.439 . S
O83 C77 1.208 . S
H84 C92 0.929 . S
H85 C94 0.930 . S
H86 C96 0.930 . S
H87 C99 0.929 . S
H88 C102 0.910 1_565 S
H89 C104 0.960 . S
H90 C104 0.960 . S
H91 C104 0.960 . S
C92 H84 0.929 . S
C92 C93 1.377 1_565 S
C92 C94 1.384 . S
C93 C92 1.377 1_545 S
C93 C99 1.390 . S
C94 H85 0.930 . S
C94 C92 1.384 . S
C94 C95 1.372 1_565 S
C95 C94 1.372 1_545 S
C95 C96 1.400 . S
C95 C100 1.490 . S
C96 H86 0.930 . S
C96 C95 1.400 . S
C96 C99 1.386 . S
H97 C113 0.930 . S
H98 C114 0.931 . S
C99 H87 0.929 . S
C99 C93 1.390 . S
C99 C96 1.386 . S
C100 C95 1.490 . S
C100 C102 1.395 . S
C100 C103 1.403 . S
H101 C107 0.930 . S
C102 H88 0.910 1_545 S
C102 C100 1.395 . S
C102 C105 1.403 . S
C103 C100 1.403 . S
C103 C104 1.524 . S
C103 C107 1.400 . S
C104 H89 0.960 . S
C104 H90 0.960 . S
C104 H91 0.960 . S
C104 C103 1.524 . S
C105 C102 1.403 . S
C105 C106 1.392 . S
C105 C109 1.495 1_545 S
C106 C105 1.392 . S
C106 C107 1.385 . S
C106 C108 1.478 . S
C107 H101 0.930 . S
C107 C103 1.400 . S
C107 C106 1.385 . S
C108 C106 1.478 . S
C108 C110 1.381 1_545 S
C108 C114 1.383 . S
C109 C105 1.495 1_565 S
C109 H115 0.959 . S
C109 H116 0.961 1_565 S
C109 H117 0.960 . S
C110 C108 1.381 1_565 S
C110 C111 1.394 . S
C110 H118 0.930 . S
C111 C110 1.394 . S
C111 C112 1.383 1_565 S
C111 H119 0.929 . S
C112 C111 1.383 1_545 S
C112 C113 1.377 . S
C113 H97 0.930 . S
C113 C112 1.377 . S
C113 C114 1.379 . S
C114 H98 0.931 . S
C114 C108 1.383 . S
C114 C113 1.379 . S
H115 C109 0.959 . S
H116 C109 0.961 1_545 S
H117 C109 0.960 . S
H118 C110 0.930 . S
H119 C111 0.929 . S
H120 C128 0.929 . S
H121 C130 0.930 . S
H122 C132 0.930 . S
H123 C135 0.929 . S
H124 C138 0.930 . S
H125 C140 0.960 . S
H126 C140 0.960 . S
H127 C140 0.960 . S
C128 H120 0.929 . S
C128 C129 1.377 . S
C128 C130 1.384 . S
C129 C128 1.377 . S
C129 C135 1.390 . S
C130 H121 0.930 . S
C130 C128 1.384 . S
C130 C131 1.372 . S
C131 C130 1.372 . S
C131 C132 1.400 . S
C131 C136 1.490 . S
C132 H122 0.930 . S
C132 C131 1.400 . S
C132 C135 1.386 . S
H133 C149 0.930 . S
H134 C150 0.931 . S
C135 H123 0.929 . S
C135 C129 1.390 . S
C135 C132 1.386 . S
C136 C131 1.490 . S
C136 C138 1.395 . S
C136 C139 1.403 . S
H137 C143 0.930 . S
C138 H124 0.930 . S
C138 C136 1.395 . S
C138 C141 1.403 . S
C139 C136 1.403 . S
C139 C140 1.524 . S
C139 C143 1.400 . S
C140 H125 0.960 . S
C140 H126 0.960 . S
C140 H127 0.960 . S
C140 C139 1.524 . S
C141 C138 1.403 . S
C141 C142 1.392 . S
C141 C145 1.495 . S
C142 C141 1.392 . S
C142 C143 1.385 . S
C142 C144 1.478 . S
C143 H137 0.930 . S
C143 C139 1.400 . S
C143 C142 1.385 . S
C144 C142 1.478 . S
C144 C146 1.381 . S
C144 C150 1.383 . S
C145 C141 1.495 . S
C145 H151 0.959 . S
C145 H152 0.961 . S
C145 H153 0.960 . S
C146 C144 1.381 . S
C146 C147 1.394 . S
C146 H154 0.930 . S
C147 C146 1.394 . S
C147 C148 1.383 . S
C147 H155 0.929 . S
C148 C147 1.383 . S
C148 C149 1.377 . S
C149 H133 0.930 . S
C149 C148 1.377 . S
C149 C150 1.379 . S
C150 H134 0.931 . S
C150 C144 1.383 . S
C150 C149 1.379 . S
H151 C145 0.959 . S
H152 C145 0.961 . S
H153 C145 0.960 . S
H154 C146 0.930 . S
H155 C147 0.929 . S
H156 C164 0.929 . S
H157 C166 0.930 . S
H158 C168 0.930 1_655 S
H159 C171 0.929 1_655 S
H160 C174 0.930 . S
H161 C176 0.960 . S
H162 C176 0.960 . S
H163 C176 0.960 1_655 S
C164 H156 0.929 . S
C164 C165 1.377 . S
C164 C166 1.384 . S
C165 C164 1.377 . S
C165 C171 1.390 . S
C166 H157 0.930 . S
C166 C164 1.384 . S
C166 C167 1.372 . S
C167 C166 1.372 . S
C167 C168 1.400 . S
C167 C172 1.490 . S
C168 H158 0.930 1_455 S
C168 C167 1.400 . S
C168 C171 1.386 . S
H169 C185 0.930 1_655 S
H170 C186 0.931 1_655 S
C171 H159 0.929 1_455 S
C171 C165 1.390 . S
C171 C168 1.386 . S
C172 C167 1.490 . S
C172 C174 1.395 . S
C172 C175 1.403 . S
H173 C179 0.930 . S
C174 H160 0.930 . S
C174 C172 1.395 . S
C174 C177 1.403 . S
C175 C172 1.403 . S
C175 C176 1.524 . S
C175 C179 1.400 . S
C176 H161 0.960 . S
C176 H162 0.960 . S
C176 H163 0.960 1_455 S
C176 C175 1.524 . S
C177 C174 1.403 . S
C177 C178 1.392 . S
C177 C181 1.495 . S
C178 C177 1.392 . S
C178 C179 1.385 . S
C178 C180 1.478 . S
C179 H173 0.930 . S
C179 C175 1.400 . S
C179 C178 1.385 . S
C180 C178 1.478 . S
C180 C182 1.381 . S
C180 C186 1.383 . S
C181 C177 1.495 . S
C181 H187 0.959 . S
C181 H188 0.961 . S
C181 H189 0.960 . S
C182 C180 1.381 . S
C182 C183 1.394 . S
C182 H190 0.930 . S
C183 C182 1.394 . S
C183 C184 1.383 . S
C183 H191 0.929 . S
C184 C183 1.383 . S
C184 C185 1.377 . S
C185 H169 0.930 1_455 S
C185 C184 1.377 . S
C185 C186 1.379 . S
C186 H170 0.931 1_455 S
C186 C180 1.383 . S
C186 C185 1.379 . S
H187 C181 0.959 . S
H188 C181 0.961 . S
H189 C181 0.960 . S
H190 C182 0.930 . S
H191 C183 0.929 . S
H192 C200 0.929 . S
H193 C202 0.930 . S
H194 C204 0.930 1_565 S
H195 C207 0.929 1_565 S
H196 C210 0.930 . S
H197 C212 0.960 . S
H198 C212 0.960 . S
H199 C212 0.960 . S
C200 H192 0.929 . S
C200 C201 1.377 . S
C200 C202 1.384 . S
C201 C200 1.377 . S
C201 C207 1.390 . S
C202 H193 0.930 . S
C202 C200 1.384 . S
C202 C203 1.372 . S
C203 C202 1.372 . S
C203 C204 1.400 . S
C203 C208 1.490 . S
C204 H194 0.930 1_545 S
C204 C203 1.400 . S
C204 C207 1.386 . S
H205 C221 0.930 1_565 S
H206 C222 0.931 1_565 S
C207 H195 0.929 1_545 S
C207 C201 1.390 . S
C207 C204 1.386 . S
C208 C203 1.490 . S
C208 C210 1.395 . S
C208 C211 1.403 . S
H209 C215 0.930 . S
C210 H196 0.930 . S
C210 C208 1.395 . S
C210 C213 1.403 . S
C211 C208 1.403 . S
C211 C212 1.524 . S
C211 C215 1.400 . S
C212 H197 0.960 . S
C212 H198 0.960 . S
C212 H199 0.960 . S
C212 C211 1.524 . S
C213 C210 1.403 . S
C213 C214 1.392 . S
C213 C217 1.495 . S
C214 C213 1.392 . S
C214 C215 1.385 . S
C214 C216 1.478 . S
C215 H209 0.930 . S
C215 C211 1.400 . S
C215 C214 1.385 . S
C216 C214 1.478 . S
C216 C218 1.381 . S
C216 C222 1.383 . S
C217 C213 1.495 . S
C217 H223 0.959 . S
C217 H224 0.961 . S
C217 H225 0.960 . S
C218 C216 1.381 . S
C218 C219 1.394 . S
C218 H226 0.930 . S
C219 C218 1.394 . S
C219 C220 1.383 . S
C219 H227 0.929 . S
C220 C219 1.383 . S
C220 C221 1.377 . S
C221 H205 0.930 1_545 S
C221 C220 1.377 . S
C221 C222 1.379 . S
C222 H206 0.931 1_545 S
C222 C216 1.383 . S
C222 C221 1.379 . S
H223 C217 0.959 . S
H224 C217 0.961 . S
H225 C217 0.960 . S
H226 C218 0.930 . S
H227 C219 0.929 . S
H228 C236 0.929 . S
H229 C238 0.930 . S
H230 C240 0.930 . S
H231 C243 0.929 . S
H232 C246 0.930 . S
H233 C248 0.960 . S
H234 C248 0.960 . S
H235 C248 0.960 . S
C236 H228 0.929 . S
C236 C237 1.377 . S
C236 C238 1.384 . S
C237 C236 1.377 . S
C237 C243 1.390 . S
C238 H229 0.930 . S
C238 C236 1.384 . S
C238 C239 1.372 . S
C239 C238 1.372 . S
C239 C240 1.400 . S
C239 C244 1.490 . S
C240 H230 0.930 . S
C240 C239 1.400 . S
C240 C243 1.386 . S
H241 C257 0.930 . S
H242 C258 0.931 . S
C243 H231 0.929 . S
C243 C237 1.390 . S
C243 C240 1.386 . S
C244 C239 1.490 . S
C244 C246 1.395 1_554 S
C244 C247 1.403 . S
H245 C251 0.930 . S
C246 H232 0.930 . S
C246 C244 1.395 1_556 S
C246 C249 1.403 . S
C247 C244 1.403 . S
C247 C248 1.524 . S
C247 C251 1.400 1_554 S
C248 H233 0.960 . S
C248 H234 0.960 . S
C248 H235 0.960 . S
C248 C247 1.524 . S
C249 C246 1.403 . S
C249 C250 1.392 . S
C249 C253 1.495 . S
C250 C249 1.392 . S
C250 C251 1.385 . S
C250 C252 1.478 . S
C251 H245 0.930 . S
C251 C247 1.400 1_556 S
C251 C250 1.385 . S
C252 C250 1.478 . S
C252 C254 1.381 . S
C252 C258 1.383 . S
C253 C249 1.495 . S
C253 H259 0.959 . S
C253 H260 0.961 . S
C253 H261 0.960 . S
C254 C252 1.381 . S
C254 C255 1.394 . S
C254 H262 0.930 . S
C255 C254 1.394 . S
C255 C256 1.383 . S
C255 H263 0.929 . S
C256 C255 1.383 . S
C256 C257 1.377 . S
C257 H241 0.930 . S
C257 C256 1.377 . S
C257 C258 1.379 . S
C258 H242 0.931 . S
C258 C252 1.383 . S
C258 C257 1.379 . S
H259 C253 0.959 . S
H260 C253 0.961 . S
H261 C253 0.960 . S
H262 C254 0.930 . S
H263 C255 0.929 . S
H264 C272 0.929 . S
H265 C274 0.930 . S
H266 C276 0.930 . S
H267 C279 0.931 . S
H268 C282 0.930 . S
H269 C284 0.960 . S
H270 C284 0.960 . S
H271 C284 0.960 . S
C272 H264 0.929 . S
C272 C273 1.377 . S
C272 C274 1.384 . S
C273 C272 1.377 . S
C273 C279 1.389 1_554 S
C274 H265 0.930 . S
C274 C272 1.384 . S
C274 C275 1.372 . S
C275 C274 1.372 . S
C275 C276 1.400 . S
C275 C280 1.490 . S
C276 H266 0.930 . S
C276 C275 1.400 . S
C276 C279 1.384 1_554 S
H277 C293 0.930 . S
H278 C294 0.931 . S
C279 H267 0.931 . S
C279 C273 1.389 1_556 S
C279 C276 1.384 1_556 S
C280 C275 1.490 . S
C280 C282 1.395 . S
C280 C283 1.403 1_455 S
H281 C287 0.930 . S
C282 H268 0.930 . S
C282 C280 1.395 . S
C282 C285 1.403 . S
C283 C280 1.403 1_655 S
C283 C284 1.524 . S
C283 C287 1.400 . S
C284 H269 0.960 . S
C284 H270 0.960 . S
C284 H271 0.960 . S
C284 C283 1.524 . S
C285 C282 1.403 . S
C285 C286 1.392 . S
C285 C289 1.495 . S
C286 C285 1.392 . S
C286 C287 1.385 1_455 S
C286 C288 1.478 . S
C287 H281 0.930 . S
C287 C283 1.400 . S
C287 C286 1.385 1_655 S
C288 C286 1.478 . S
C288 C290 1.381 . S
C288 C294 1.383 . S
C289 C285 1.495 . S
C289 H295 0.959 . S
C289 H296 0.961 . S
C289 H297 0.960 . S
C290 C288 1.381 . S
C290 C291 1.394 . S
C290 H298 0.930 . S
C291 C290 1.394 . S
C291 C292 1.383 . S
C291 H299 0.929 . S
C292 C291 1.383 . S
C292 C293 1.377 . S
C293 H277 0.930 . S
C293 C292 1.377 . S
C293 C294 1.379 . S
C294 H278 0.931 . S
C294 C288 1.383 . S
C294 C293 1.379 . S
H295 C289 0.959 . S
H296 C289 0.961 . S
H297 C289 0.960 . S
H298 C290 0.930 . S
H299 C291 0.929 . S
H300 C308 0.929 . S
H301 C310 0.930 . S
H302 C312 0.930 . S
H303 C315 0.929 . S
H304 C318 0.930 . S
H305 C320 0.960 . S
H306 C320 0.960 . S
H307 C320 0.960 . S
C308 H300 0.929 . S
C308 C309 1.377 . S
C308 C310 1.384 . S
C309 C308 1.377 . S
C309 C315 1.390 . S
C310 H301 0.930 . S
C310 C308 1.384 . S
C310 C311 1.372 . S
C311 C310 1.372 . S
C311 C312 1.400 . S
C311 C316 1.490 . S
C312 H302 0.930 . S
C312 C311 1.400 . S
C312 C315 1.386 . S
H313 C329 0.930 . S
H314 C330 0.931 . S
C315 H303 0.929 . S
C315 C309 1.390 . S
C315 C312 1.386 . S
C316 C311 1.490 . S
C316 C318 1.395 . S
C316 C319 1.403 . S
H317 C323 0.930 . S
C318 H304 0.930 . S
C318 C316 1.395 . S
C318 C321 1.403 . S
C319 C316 1.403 . S
C319 C320 1.524 . S
C319 C323 1.400 . S
C320 H305 0.960 . S
C320 H306 0.960 . S
C320 H307 0.960 . S
C320 C319 1.524 . S
C321 C318 1.403 . S
C321 C322 1.392 . S
C321 C325 1.495 . S
C322 C321 1.392 . S
C322 C323 1.385 . S
C322 C324 1.478 . S
C323 H317 0.930 . S
C323 C319 1.400 . S
C323 C322 1.385 . S
C324 C322 1.478 . S
C324 C326 1.381 . S
C324 C330 1.383 . S
C325 C321 1.495 . S
C325 H331 0.959 . S
C325 H332 0.961 . S
C325 H333 0.960 . S
C326 C324 1.381 . S
C326 C327 1.394 . S
C326 H334 0.930 . S
C327 C326 1.394 . S
C327 C328 1.383 . S
C327 H335 0.929 . S
C328 C327 1.383 . S
C328 C329 1.377 . S
C329 H313 0.930 . S
C329 C328 1.377 . S
C329 C330 1.379 . S
C330 H314 0.931 . S
C330 C324 1.383 . S
C330 C329 1.379 . S
H331 C325 0.959 . S
H332 C325 0.961 . S
H333 C325 0.960 . S
H334 C326 0.930 . S
H335 C327 0.929 . S
H336 C344 0.929 . S
H337 C346 0.930 . S
H338 C348 0.930 . S
H339 C351 0.929 . S
H340 C354 0.930 . S
H341 C356 0.960 . S
H342 C356 0.960 . S
H343 C356 0.960 . S
C344 H336 0.929 . S
C344 C345 1.377 . S
C344 C346 1.384 . S
C345 C344 1.377 . S
C345 C351 1.390 . S
C346 H337 0.930 . S
C346 C344 1.384 . S
C346 C347 1.372 . S
C347 C346 1.372 . S
C347 C348 1.400 . S
C347 C352 1.490 . S
C348 H338 0.930 . S
C348 C347 1.400 . S
C348 C351 1.386 . S
H349 C365 0.930 . S
H350 C366 0.931 . S
C351 H339 0.929 . S
C351 C345 1.390 . S
C351 C348 1.386 . S
C352 C347 1.490 . S
C352 C354 1.395 . S
C352 C355 1.403 . S
H353 C359 0.930 . S
C354 H340 0.930 . S
C354 C352 1.395 . S
C354 C357 1.403 . S
C355 C352 1.403 . S
C355 C356 1.524 . S
C355 C359 1.400 . S
C356 H341 0.960 . S
C356 H342 0.960 . S
C356 H343 0.960 . S
C356 C355 1.524 . S
C357 C354 1.403 . S
C357 C358 1.392 . S
C357 C361 1.495 . S
C358 C357 1.392 . S
C358 C359 1.385 . S
C358 C360 1.478 . S
C359 H353 0.930 . S
C359 C355 1.400 . S
C359 C358 1.385 . S
C360 C358 1.478 . S
C360 C362 1.381 . S
C360 C366 1.383 . S
C361 C357 1.495 . S
C361 H367 0.959 . S
C361 H368 0.961 . S
C361 H369 0.960 . S
C362 C360 1.381 . S
C362 C363 1.394 . S
C362 H370 0.930 . S
C363 C362 1.394 . S
C363 C364 1.383 . S
C363 H371 0.929 . S
C364 C363 1.383 . S
C364 C365 1.377 . S
C365 H349 0.930 . S
C365 C364 1.377 . S
C365 C366 1.379 . S
C366 H350 0.931 . S
C366 C360 1.383 . S
C366 C365 1.379 . S
H367 C361 0.959 . S
H368 C361 0.961 . S
H369 C361 0.960 . S
H370 C362 0.930 . S
H371 C363 0.929 . S
H372 C380 0.929 . S
H373 C382 0.930 . S
H374 C384 0.930 . S
H375 C387 0.929 . S
H376 C390 0.930 . S
H377 C392 0.960 . S
H378 C392 0.960 . S
H379 C392 0.960 . S
C380 H372 0.929 . S
C380 C381 1.377 . S
C380 C382 1.384 . S
C381 C380 1.377 . S
C381 C387 1.390 . S
C382 H373 0.930 . S
C382 C380 1.384 . S
C382 C383 1.372 . S
C383 C382 1.372 . S
C383 C384 1.400 . S
C383 C388 1.490 . S
C384 H374 0.930 . S
C384 C383 1.400 . S
C384 C387 1.386 . S
H385 C401 0.930 . S
H386 C402 0.931 . S
C387 H375 0.929 . S
C387 C381 1.390 . S
C387 C384 1.386 . S
C388 C383 1.490 . S
C388 C390 1.395 . S
C388 C391 1.403 . S
H389 C395 0.930 . S
C390 H376 0.930 . S
C390 C388 1.395 . S
C390 C393 1.403 . S
C391 C388 1.403 . S
C391 C392 1.524 . S
C391 C395 1.400 . S
C392 H377 0.960 . S
C392 H378 0.960 . S
C392 H379 0.960 . S
C392 C391 1.524 . S
C393 C390 1.403 . S
C393 C394 1.392 . S
C393 C397 1.495 . S
C394 C393 1.392 . S
C394 C395 1.385 . S
C394 C396 1.478 . S
C395 H389 0.930 . S
C395 C391 1.400 . S
C395 C394 1.385 . S
C396 C394 1.478 . S
C396 C398 1.381 . S
C396 C402 1.383 . S
C397 C393 1.495 . S
C397 H403 0.959 . S
C397 H404 0.961 . S
C397 H405 0.960 . S
C398 C396 1.381 . S
C398 C399 1.394 . S
C398 H406 0.930 . S
C399 C398 1.394 . S
C399 C400 1.383 . S
C399 H407 0.929 . S
C400 C399 1.383 . S
C400 C401 1.377 . S
C401 H385 0.930 . S
C401 C400 1.377 . S
C401 C402 1.379 . S
C402 H386 0.931 . S
C402 C396 1.383 . S
C402 C401 1.379 . S
H403 C397 0.959 . S
H404 C397 0.961 . S
H405 C397 0.960 . S
H406 C398 0.930 . S
H407 C399 0.929 . S
H408 C416 0.929 . S
H409 C418 0.930 . S
H410 C420 0.930 . S
H411 C423 0.929 . S
H412 C426 0.930 . S
H413 C428 0.960 . S
H414 C428 0.960 . S
H415 C428 0.960 . S
C416 H408 0.929 . S
C416 C417 1.377 . S
C416 C418 1.384 . S
C417 C416 1.377 . S
C417 C423 1.390 . S
C418 H409 0.930 . S
C418 C416 1.384 . S
C418 C419 1.372 . S
C419 C418 1.372 . S
C419 C420 1.400 . S
C419 C424 1.490 . S
C420 H410 0.930 . S
C420 C419 1.400 . S
C420 C423 1.386 . S
H421 C437 0.930 . S
H422 C438 0.931 . S
C423 H411 0.929 . S
C423 C417 1.390 . S
C423 C420 1.386 . S
C424 C419 1.490 . S
C424 C426 1.395 . S
C424 C427 1.403 . S
H425 C431 0.930 . S
C426 H412 0.930 . S
C426 C424 1.395 . S
C426 C429 1.403 . S
C427 C424 1.403 . S
C427 C428 1.524 . S
C427 C431 1.400 . S
C428 H413 0.960 . S
C428 H414 0.960 . S
C428 H415 0.960 . S
C428 C427 1.524 . S
C429 C426 1.403 . S
C429 C430 1.392 . S
C429 C433 1.495 . S
C430 C429 1.392 . S
C430 C431 1.385 . S
C430 C432 1.478 . S
C431 H425 0.930 . S
C431 C427 1.400 . S
C431 C430 1.385 . S
C432 C430 1.478 . S
C432 C434 1.381 . S
C432 C438 1.383 . S
C433 C429 1.495 . S
C433 H439 0.959 . S
C433 H440 0.961 . S
C433 H441 0.960 . S
C434 C432 1.381 . S
C434 C435 1.394 . S
C434 H442 0.930 . S
C435 C434 1.394 . S
C435 C436 1.383 . S
C435 H443 0.929 . S
C436 C435 1.383 . S
C436 C437 1.377 . S
C437 H421 0.930 . S
C437 C436 1.377 . S
C437 C438 1.379 . S
C438 H422 0.931 . S
C438 C432 1.383 . S
C438 C437 1.379 . S
H439 C433 0.959 . S
H440 C433 0.961 . S
H441 C433 0.960 . S
H442 C434 0.930 . S
H443 C435 0.929 . S
H444 C452 0.929 . S
H445 C454 0.930 . S
H446 C456 0.930 . S
H447 C459 0.929 . S
H448 C462 0.930 . S
H449 C464 0.960 . S
H450 C464 0.960 . S
H451 C464 0.960 . S
C452 H444 0.929 . S
C452 C453 1.377 . S
C452 C454 1.384 . S
C453 C452 1.377 . S
C453 C459 1.390 . S
C454 H445 0.930 . S
C454 C452 1.384 . S
C454 C455 1.372 . S
C455 C454 1.372 . S
C455 C456 1.400 . S
C455 C460 1.490 . S
C456 H446 0.930 . S
C456 C455 1.400 . S
C456 C459 1.386 . S
H457 C473 0.930 . S
H458 C474 0.931 . S
C459 H447 0.929 . S
C459 C453 1.390 . S
C459 C456 1.386 . S
C460 C455 1.490 . S
C460 C462 1.395 . S
C460 C463 1.403 . S
H461 C467 0.930 . S
C462 H448 0.930 . S
C462 C460 1.395 . S
C462 C465 1.403 . S
C463 C460 1.403 . S
C463 C464 1.524 . S
C463 C467 1.400 . S
C464 H449 0.960 . S
C464 H450 0.960 . S
C464 H451 0.960 . S
C464 C463 1.524 . S
C465 C462 1.403 . S
C465 C466 1.392 . S
C465 C469 1.495 . S
C466 C465 1.392 . S
C466 C467 1.385 . S
C466 C468 1.478 . S
C467 H461 0.930 . S
C467 C463 1.400 . S
C467 C466 1.385 . S
C468 C466 1.478 . S
C468 C470 1.381 . S
C468 C474 1.383 . S
C469 C465 1.495 . S
C469 H475 0.959 . S
C469 H476 0.961 . S
C469 H477 0.960 . S
C470 C468 1.381 . S
C470 C471 1.394 . S
C470 H478 0.930 . S
C471 C470 1.394 . S
C471 C472 1.383 . S
C471 H479 0.929 . S
C472 C471 1.383 . S
C472 C473 1.377 . S
C473 H457 0.930 . S
C473 C472 1.377 . S
C473 C474 1.379 . S
C474 H458 0.931 . S
C474 C468 1.383 . S
C474 C473 1.379 . S
H475 C469 0.959 . S
H476 C469 0.961 . S
H477 C469 0.960 . S
H478 C470 0.930 . S
H479 C471 0.929 . S
H480 C488 0.929 . S
H481 C490 0.930 1_554 S
H482 C492 0.930 . S
H483 C495 0.929 . S
H484 C498 0.930 . S
H485 C500 0.960 . S
H486 C500 0.960 . S
H487 C500 0.960 . S
C488 H480 0.929 . S
C488 C489 1.377 . S
C488 C490 1.384 . S
C489 C488 1.377 . S
C489 C495 1.390 . S
C490 H481 0.930 1_556 S
C490 C488 1.384 . S
C490 C491 1.372 . S
C491 C490 1.372 . S
C491 C492 1.400 . S
C491 C496 1.490 . S
C492 H482 0.930 . S
C492 C491 1.400 . S
C492 C495 1.386 . S
H493 C509 0.930 1_556 S
H494 C510 0.936 . S
C495 H483 0.929 . S
C495 C489 1.390 . S
C495 C492 1.386 . S
C496 C491 1.490 . S
C496 C498 1.395 1_556 S
C496 C499 1.403 . S
H497 C503 0.930 . S
C498 H484 0.930 . S
C498 C496 1.395 1_554 S
C498 C501 1.403 . S
C499 C496 1.403 . S
C499 C500 1.524 . S
C499 C503 1.400 . S
C500 H485 0.960 . S
C500 H486 0.960 . S
C500 H487 0.960 . S
C500 C499 1.524 . S
C501 C498 1.403 . S
C501 C502 1.392 . S
C501 C505 1.495 . S
C502 C501 1.392 . S
C502 C503 1.385 1_554 S
C502 C504 1.478 . S
C503 H497 0.930 . S
C503 C499 1.400 . S
C503 C502 1.385 1_556 S
C504 C502 1.478 . S
C504 C506 1.381 . S
C504 C510 1.379 1_554 S
C505 C501 1.495 . S
C505 H511 0.959 . S
C505 H512 0.961 . S
C505 H513 0.960 . S
C506 C504 1.381 . S
C506 C507 1.394 . S
C506 H514 0.930 . S
C507 C506 1.394 . S
C507 C508 1.383 . S
C507 H515 0.929 . S
C508 C507 1.383 . S
C508 C509 1.377 . S
C509 H493 0.930 1_554 S
C509 C508 1.377 . S
C509 C510 1.378 1_554 S
C510 H494 0.936 . S
C510 C504 1.379 1_556 S
C510 C509 1.378 1_556 S
H511 C505 0.959 . S
H512 C505 0.961 . S
H513 C505 0.960 . S
H514 C506 0.930 . S
H515 C507 0.929 . S
C93 C9 1.885 . S
C112 C50 1.882 . S
C129 C23 1.885 . S
C148 C64 1.891 . S
C165 C78 1.885 . S
C184 C37 1.881 . S
C201 C8 1.885 1_556 S
C220 C51 1.884 . S
C237 C22 1.884 . S
C256 C65 1.887 . S
C273 C79 1.885 1_554 S
C292 C36 1.891 . S
C309 C20 1.419 . S
C328 C7 1.382 . S
C345 C34 1.407 . S
C364 C21 1.439 . S
C381 C35 1.417 . S
C400 C48 1.399 . S
C417 C62 1.418 . S
C436 C49 1.383 . S
C453 C76 1.411 . S
C472 C63 1.428 . S
C489 C77 1.416 . S
C508 C6 1.391 . S
