# Generated by pormake.
# Topology snl, (6)-cn, num edge types: 1
# Building blocks:
#     Node 0, Type 0, BuildingBlock: MIDCAF_clean_sbu_0, # of connection points: 6
#     Node 1, Type 0, BuildingBlock: MIDCAF_clean_sbu_0, # of connection points: 6
#     Node 2, Type 0, BuildingBlock: MIDCAF_clean_sbu_0, # of connection points: 6
#     Node 3, Type 0, BuildingBlock: MIDCAF_clean_sbu_0, # of connection points: 6
#     Node 4, Type 0, BuildingBlock: MIDCAF_clean_sbu_0, # of connection points: 6
#     Node 5, Type 0, BuildingBlock: MIDCAF_clean_sbu_0, # of connection points: 6
#     Node 6, Type 0, BuildingBlock: MIDCAF_clean_sbu_0, # of connection points: 6
#     Node 7, Type 0, BuildingBlock: MIDCAF_clean_sbu_0, # of connection points: 6
#     Node 8, Type 0, BuildingBlock: MIDCAF_clean_sbu_0, # of connection points: 6
#     Node 9, Type 0, BuildingBlock: MIDCAF_clean_sbu_0, # of connection points: 6
#     Node 10, Type 0, BuildingBlock: MIDCAF_clean_sbu_0, # of connection points: 6
#     Node 11, Type 0, BuildingBlock: MIDCAF_clean_sbu_0, # of connection points: 6
#     Node 12, Type 0, BuildingBlock: MIDCAF_clean_sbu_0, # of connection points: 6
#     Node 13, Type 0, BuildingBlock: MIDCAF_clean_sbu_0, # of connection points: 6
#     Node 14, Type 0, BuildingBlock: MIDCAF_clean_sbu_0, # of connection points: 6
#     Node 15, Type 0, BuildingBlock: MIDCAF_clean_sbu_0, # of connection points: 6
#     Edge 16, Type (0, 0), BuildingBlock: AJUNOK_clean_linker_0, # of connection points: 2
#     Edge 17, Type (0, 0), BuildingBlock: AJUNOK_clean_linker_0, # of connection points: 2
#     Edge 18, Type (0, 0), BuildingBlock: AJUNOK_clean_linker_0, # of connection points: 2
#     Edge 19, Type (0, 0), BuildingBlock: AJUNOK_clean_linker_0, # of connection points: 2
#     Edge 20, Type (0, 0), BuildingBlock: AJUNOK_clean_linker_0, # of connection points: 2
#     Edge 21, Type (0, 0), BuildingBlock: AJUNOK_clean_linker_0, # of connection points: 2
#     Edge 22, Type (0, 0), BuildingBlock: AJUNOK_clean_linker_0, # of connection points: 2
#     Edge 23, Type (0, 0), BuildingBlock: AJUNOK_clean_linker_0, # of connection points: 2
#     Edge 24, Type (0, 0), BuildingBlock: AJUNOK_clean_linker_0, # of connection points: 2
#     Edge 25, Type (0, 0), BuildingBlock: AJUNOK_clean_linker_0, # of connection points: 2
#     Edge 26, Type (0, 0), BuildingBlock: AJUNOK_clean_linker_0, # of connection points: 2
#     Edge 27, Type (0, 0), BuildingBlock: AJUNOK_clean_linker_0, # of connection points: 2
#     Edge 28, Type (0, 0), BuildingBlock: AJUNOK_clean_linker_0, # of connection points: 2
#     Edge 29, Type (0, 0), BuildingBlock: AJUNOK_clean_linker_0, # of connection points: 2
#     Edge 30, Type (0, 0), BuildingBlock: AJUNOK_clean_linker_0, # of connection points: 2
#     Edge 31, Type (0, 0), BuildingBlock: AJUNOK_clean_linker_0, # of connection points: 2
#     Edge 32, Type (0, 0), BuildingBlock: AJUNOK_clean_linker_0, # of connection points: 2
#     Edge 33, Type (0, 0), BuildingBlock: AJUNOK_clean_linker_0, # of connection points: 2
#     Edge 34, Type (0, 0), BuildingBlock: AJUNOK_clean_linker_0, # of connection points: 2
#     Edge 35, Type (0, 0), BuildingBlock: AJUNOK_clean_linker_0, # of connection points: 2
#     Edge 36, Type (0, 0), BuildingBlock: AJUNOK_clean_linker_0, # of connection points: 2
#     Edge 37, Type (0, 0), BuildingBlock: AJUNOK_clean_linker_0, # of connection points: 2
#     Edge 38, Type (0, 0), BuildingBlock: AJUNOK_clean_linker_0, # of connection points: 2
#     Edge 39, Type (0, 0), BuildingBlock: AJUNOK_clean_linker_0, # of connection points: 2
#     Edge 40, Type (0, 0), BuildingBlock: AJUNOK_clean_linker_0, # of connection points: 2
#     Edge 41, Type (0, 0), BuildingBlock: AJUNOK_clean_linker_0, # of connection points: 2
#     Edge 42, Type (0, 0), BuildingBlock: AJUNOK_clean_linker_0, # of connection points: 2
#     Edge 43, Type (0, 0), BuildingBlock: AJUNOK_clean_linker_0, # of connection points: 2
#     Edge 44, Type (0, 0), BuildingBlock: AJUNOK_clean_linker_0, # of connection points: 2
#     Edge 45, Type (0, 0), BuildingBlock: AJUNOK_clean_linker_0, # of connection points: 2
#     Edge 46, Type (0, 0), BuildingBlock: AJUNOK_clean_linker_0, # of connection points: 2
#     Edge 47, Type (0, 0), BuildingBlock: AJUNOK_clean_linker_0, # of connection points: 2
#     Edge 48, Type (0, 0), BuildingBlock: AJUNOK_clean_linker_0, # of connection points: 2
#     Edge 49, Type (0, 0), BuildingBlock: AJUNOK_clean_linker_0, # of connection points: 2
#     Edge 50, Type (0, 0), BuildingBlock: AJUNOK_clean_linker_0, # of connection points: 2
#     Edge 51, Type (0, 0), BuildingBlock: AJUNOK_clean_linker_0, # of connection points: 2
#     Edge 52, Type (0, 0), BuildingBlock: AJUNOK_clean_linker_0, # of connection points: 2
#     Edge 53, Type (0, 0), BuildingBlock: AJUNOK_clean_linker_0, # of connection points: 2
#     Edge 54, Type (0, 0), BuildingBlock: AJUNOK_clean_linker_0, # of connection points: 2
#     Edge 55, Type (0, 0), BuildingBlock: AJUNOK_clean_linker_0, # of connection points: 2
#     Edge 56, Type (0, 0), BuildingBlock: AJUNOK_clean_linker_0, # of connection points: 2
#     Edge 57, Type (0, 0), BuildingBlock: AJUNOK_clean_linker_0, # of connection points: 2
#     Edge 58, Type (0, 0), BuildingBlock: AJUNOK_clean_linker_0, # of connection points: 2
#     Edge 59, Type (0, 0), BuildingBlock: AJUNOK_clean_linker_0, # of connection points: 2
#     Edge 60, Type (0, 0), BuildingBlock: AJUNOK_clean_linker_0, # of connection points: 2
#     Edge 61, Type (0, 0), BuildingBlock: AJUNOK_clean_linker_0, # of connection points: 2
#     Edge 62, Type (0, 0), BuildingBlock: AJUNOK_clean_linker_0, # of connection points: 2
#     Edge 63, Type (0, 0), BuildingBlock: AJUNOK_clean_linker_0, # of connection points: 2
# Relax obj value: 0.110
# Max RMSD: 0.168
# Mean RMSD: 0.168
data_MOF--net-snl--node1-MIDCAF_clean_sbu_0--edge1-AJUNOK_clean_linker_0
_symmetry_space_group_name_H-M    P1
_symmetry_Int_Tables_number       1
_symmetry_cell_setting            triclinic
loop_
_symmetry_equiv_pos_as_xyz
'x, y, z'
_cell_length_a     45.730564
_cell_length_b     45.430016
_cell_length_c     11.477619
_cell_angle_alpha  90.156768
_cell_angle_beta   90.066824
_cell_angle_gamma 89.92032
loop_
_atom_site_label
_atom_site_type_symbol
_atom_site_fract_x
_atom_site_fract_y
_atom_site_fract_z
_atom_type_partial_charge
Zn0 Zn 0.08713 0.59809 0.23133 0.0
Zn1 Zn 0.15482 0.65774 0.02209 0.0
Zn2 Zn 0.12155 0.62179 0.11595 0.0
C3 C 0.10864 0.69154 0.06458 0.0
C4 C 0.18736 0.6338 0.19057 0.0
O5 O 0.1153 0.5788 0.02673 0.0
O6 O 0.07529 0.56791 0.12246 0.0
C7 C 0.05519 0.64314 0.18882 0.0
O8 O 0.09968 0.66559 0.0916 0.0
O9 O 0.13465 0.69543 0.03242 0.0
O10 O 0.18977 0.65205 0.1091 0.0
O11 O 0.16239 0.62274 0.21725 0.0
O12 O 0.05562 0.62575 0.27398 0.0
O13 O 0.07775 0.64459 0.12147 0.0
O14 O 0.13959 0.61343 0.2955 0.0
O15 O 0.1087 0.58006 0.35835 0.0
C16 C 0.13123 0.59525 0.37505 0.0
O17 O 0.13155 0.60049 0.94918 0.0
O18 O 0.15672 0.6373 0.87364 0.0
C19 C 0.09436 0.56072 0.04889 0.0
C20 C 0.14584 0.61195 0.86407 0.0
Zn21 Zn 0.65141 0.83904 0.4746 0.0
Zn22 Zn 0.59324 0.90232 0.26529 0.0
Zn23 Zn 0.62359 0.87429 0.36936 0.0
C24 C 0.55792 0.85992 0.27364 0.0
C25 C 0.59886 0.9341 0.45553 0.0
O26 O 0.66368 0.87057 0.26437 0.0
O27 O 0.68853 0.84967 0.40695 0.0
C28 C 0.60733 0.80629 0.39853 0.0
O29 O 0.57719 0.85587 0.35453 0.0
O30 O 0.565 0.87552 0.18774 0.0
O31 O 0.578 0.9278 0.38861 0.0
O32 O 0.6203 0.91594 0.46543 0.0
O33 O 0.63329 0.80175 0.43068 0.0
O34 O 0.59817 0.83274 0.38346 0.0
O35 O 0.63549 0.89396 0.54363 0.0
O36 O 0.64858 0.85307 0.63346 0.0
C37 C 0.64381 0.88039 0.63685 0.0
O38 O 0.64176 0.88485 0.18891 0.0
O39 O 0.61671 0.92528 0.15792 0.0
C40 C 0.68812 0.86282 0.3108 0.0
C41 C 0.63521 0.90693 0.12236 0.0
Zn42 Zn 0.4025 0.40549 0.73986 0.0
Zn43 Zn 0.34484 0.34042 0.51919 0.0
Zn44 Zn 0.3693 0.3788 0.62109 0.0
C45 C 0.34095 0.38575 0.36499 0.0
C46 C 0.39044 0.30997 0.55659 0.0
O47 O 0.34796 0.39001 0.79643 0.0
O48 O 0.38138 0.41905 0.87271 0.0
C49 C 0.39223 0.43991 0.54608 0.0
O50 O 0.35776 0.3976 0.44295 0.0
O51 O 0.33011 0.36085 0.38457 0.0
O52 O 0.37063 0.30734 0.48131 0.0
O53 O 0.39234 0.33421 0.61528 0.0
O54 O 0.40936 0.43726 0.63122 0.0
O55 O 0.3741 0.41928 0.52025 0.0
O56 O 0.41361 0.3579 0.63612 0.0
O57 O 0.4363 0.38139 0.77745 0.0
C58 C 0.43647 0.36179 0.70001 0.0
O59 O 0.32779 0.37549 0.71085 0.0
O60 O 0.31395 0.33335 0.63317 0.0
C61 C 0.35691 0.40678 0.88076 0.0
C62 C 0.30812 0.35586 0.69332 0.0
Zn63 Zn 0.83695 0.158 0.95936 0.0
Zn64 Zn 0.90162 0.09804 0.76718 0.0
Zn65 Zn 0.86716 0.12417 0.87529 0.0
C66 C 0.8572 0.09783 0.62004 0.0
C67 C 0.93485 0.14267 0.80888 0.0
O68 O 0.85569 0.10373 0.04226 0.0
O69 O 0.84869 0.14795 0.11683 0.0
C70 C 0.80116 0.13508 0.81075 0.0
O71 O 0.84987 0.11728 0.69673 0.0
O72 O 0.87817 0.08075 0.64119 0.0
O73 O 0.93437 0.12452 0.72575 0.0
O74 O 0.91225 0.14502 0.87573 0.0
O75 O 0.79873 0.1436 0.9145 0.0
O76 O 0.82676 0.13065 0.7668 0.0
O77 O 0.89061 0.16608 0.90701 0.0
O78 O 0.85205 0.19471 0.88933 0.0
C79 C 0.87945 0.1918 0.89284 0.0
O80 O 0.87001 0.08095 0.96267 0.0
O81 O 0.91198 0.06873 0.88241 0.0
C82 C 0.85225 0.12067 0.13109 0.0
C83 C 0.8911 0.06248 0.94917 0.0
Zn84 Zn 0.09337 0.40521 0.74756 0.0
Zn85 Zn 0.15391 0.3374 0.93402 0.0
Zn86 Zn 0.12229 0.37579 0.86585 0.0
C87 C 0.14851 0.37969 0.11425 0.0
C88 C 0.10545 0.30668 0.91101 0.0
O89 O 0.14037 0.38537 0.68684 0.0
O90 O 0.11543 0.42354 0.62192 0.0
C91 C 0.09851 0.4367 0.94714 0.0
O92 O 0.13356 0.39419 0.03857 0.0
O93 O 0.15984 0.35545 0.08584 0.0
O94 O 0.13182 0.30133 0.93365 0.0
O95 O 0.09726 0.33319 0.88779 0.0
O96 O 0.08026 0.43314 0.86606 0.0
O97 O 0.11833 0.41713 0.96553 0.0
O98 O 0.07701 0.35634 0.85258 0.0
O99 O 0.06436 0.37709 0.68837 0.0
C100 C 0.05768 0.36084 0.77278 0.0
O101 O 0.16392 0.37424 0.7629 0.0
O102 O 0.18846 0.33741 0.84154 0.0
C103 C 0.13483 0.40434 0.60554 0.0
C104 C 0.18747 0.35879 0.7726 0.0
Zn105 Zn 0.90698 0.90298 0.24507 0.0
Zn106 Zn 0.84284 0.84407 0.02491 0.0
Zn107 Zn 0.87154 0.87745 0.12285 0.0
C108 C 0.84087 0.88835 0.87606 0.0
C109 C 0.88723 0.80997 0.0415 0.0
O110 O 0.85107 0.88796 0.29674 0.0
O111 O 0.88627 0.91236 0.38673 0.0
C112 C 0.89364 0.93936 0.0557 0.0
O113 O 0.86182 0.8962 0.945 0.0
O114 O 0.82369 0.86839 0.90792 0.0
O115 O 0.86754 0.81177 0.96519 0.0
O116 O 0.89172 0.83217 0.10965 0.0
O117 O 0.90984 0.93676 0.14384 0.0
O118 O 0.87695 0.91807 0.02384 0.0
O119 O 0.91497 0.854 0.13057 0.0
O120 O 0.94215 0.87868 0.25533 0.0
C121 C 0.93962 0.858 0.18281 0.0
O122 O 0.82875 0.87461 0.21352 0.0
O123 O 0.8144 0.83221 0.14089 0.0
C124 C 0.86077 0.90206 0.3869 0.0
C125 C 0.8089 0.85474 0.20107 0.0
Zn126 Zn 0.34313 0.6611 0.45221 0.0
Zn127 Zn 0.40735 0.6004 0.25751 0.0
Zn128 Zn 0.37145 0.62327 0.37483 0.0
C129 C 0.36199 0.59728 0.11523 0.0
C130 C 0.43737 0.64671 0.29315 0.0
O131 O 0.36112 0.60371 0.54724 0.0
O132 O 0.34457 0.64639 0.60827 0.0
C133 C 0.30424 0.63316 0.31986 0.0
O134 O 0.35199 0.61327 0.19981 0.0
O135 O 0.38634 0.58473 0.12594 0.0
O136 O 0.43878 0.62741 0.2147 0.0
O137 O 0.41453 0.64792 0.35961 0.0
O138 O 0.30541 0.65391 0.39211 0.0
O139 O 0.32811 0.62119 0.28292 0.0
O140 O 0.39323 0.66831 0.39343 0.0
O141 O 0.35824 0.70007 0.43652 0.0
C142 C 0.38462 0.69496 0.41346 0.0
O143 O 0.37871 0.58168 0.4683 0.0
O144 O 0.41784 0.56993 0.36761 0.0
C145 C 0.35041 0.6199 0.62918 0.0
C146 C 0.39923 0.56327 0.4437 0.0
Zn147 Zn 0.66351 0.17601 0.40654 0.0
Zn148 Zn 0.585 0.09901 0.74418 0.0
Zn149 Zn 0.62191 0.12131 0.6309 0.0
C150 C 0.55544 0.14536 0.66492 0.0
C151 C 0.59927 0.05683 0.58123 0.0
O152 O 0.66241 0.12884 0.71718 0.0
O153 O 0.67522 0.15484 0.56338 0.0
C154 C 0.60726 0.19195 0.52017 0.0
O155 O 0.58069 0.14798 0.61634 0.0
O156 O 0.55118 0.12491 0.73657 0.0
O157 O 0.58147 0.06137 0.66299 0.0
O158 O 0.61685 0.07737 0.54903 0.0
O159 O 0.62662 0.19814 0.4439 0.0
O160 O 0.60697 0.1673 0.5779 0.0
O161 O 0.6334 0.09505 0.47303 0.0
O162 O 0.65534 0.13576 0.45319 0.0
C163 C 0.64791 0.11197 0.40584 0.0
O164 O 0.64219 0.11691 0.81506 0.0
O165 O 0.60375 0.0959 0.89419 0.0
C166 C 0.68225 0.14205 0.65813 0.0
C167 C 0.62944 0.10542 0.90502 0.0
Zn168 Zn 0.89881 0.40282 0.76834 0.0
Zn169 Zn 0.83972 0.3405 0.96825 0.0
Zn170 Zn 0.86992 0.37523 0.88811 0.0
C171 C 0.8538 0.37885 0.14471 0.0
C172 C 0.88357 0.30675 0.91162 0.0
O173 O 0.85122 0.38492 0.71173 0.0
O174 O 0.87419 0.42526 0.65815 0.0
C175 C 0.89612 0.4355 0.95353 0.0
O176 O 0.86077 0.39564 0.05917 0.0
O177 O 0.84667 0.35254 0.12534 0.0
O178 O 0.85634 0.30311 0.91941 0.0
O179 O 0.89426 0.33291 0.91142 0.0
O180 O 0.91701 0.42683 0.89081 0.0
O181 O 0.87483 0.41776 0.97323 0.0
O182 O 0.91473 0.35553 0.86949 0.0
O183 O 0.92359 0.37222 0.69478 0.0
C184 C 0.93216 0.35781 0.78198 0.0
O185 O 0.82927 0.37231 0.78385 0.0
O186 O 0.8016 0.35156 0.91747 0.0
C187 C 0.85589 0.40537 0.63558 0.0
C188 C 0.80392 0.36553 0.82383 0.0
Zn189 Zn 0.40783 0.09769 0.71137 0.0
Zn190 Zn 0.33638 0.15648 0.51547 0.0
Zn191 Zn 0.37016 0.12411 0.61011 0.0
C192 C 0.34809 0.11545 0.35152 0.0
C193 C 0.38016 0.19298 0.57966 0.0
O194 O 0.35288 0.11459 0.78579 0.0
O195 O 0.38628 0.08327 0.847 0.0
C196 C 0.39279 0.06068 0.54018 0.0
O197 O 0.36015 0.10294 0.44 0.0
O198 O 0.33794 0.14112 0.36051 0.0
O199 O 0.35356 0.19494 0.55214 0.0
O200 O 0.39203 0.16749 0.59182 0.0
O201 O 0.41482 0.066 0.60249 0.0
O202 O 0.37351 0.08089 0.52271 0.0
O203 O 0.41476 0.14748 0.61077 0.0
O204 O 0.4418 0.12332 0.73801 0.0
C205 C 0.43931 0.14391 0.66552 0.0
O206 O 0.32951 0.12776 0.72018 0.0
O207 O 0.30022 0.14687 0.58698 0.0
C208 C 0.36259 0.0967 0.86385 0.0
C209 C 0.30367 0.13485 0.68425 0.0
Zn210 Zn 0.58722 0.59336 0.2616 0.0
Zn211 Zn 0.65008 0.65952 0.44804 0.0
Zn212 Zn 0.62038 0.62153 0.36125 0.0
C213 C 0.64685 0.61596 0.61663 0.0
C214 C 0.60402 0.69182 0.40455 0.0
O215 O 0.63924 0.60824 0.19011 0.0
O216 O 0.59726 0.60022 0.09993 0.0
C217 C 0.61112 0.5567 0.41507 0.0
O218 O 0.63002 0.60399 0.53955 0.0
O219 O 0.65911 0.64005 0.59387 0.0
O220 O 0.62739 0.69567 0.46036 0.0
O221 O 0.59811 0.66624 0.36107 0.0
O222 O 0.603 0.55592 0.31069 0.0
O223 O 0.61452 0.58165 0.46706 0.0
O224 O 0.57794 0.64493 0.33962 0.0
O225 O 0.54903 0.60642 0.32461 0.0
C226 C 0.55214 0.63367 0.34076 0.0
O227 O 0.66201 0.62087 0.265 0.0
O228 O 0.68325 0.65983 0.34337 0.0
C229 C 0.62477 0.60207 0.09661 0.0
C230 C 0.6843 0.63787 0.2765 0.0
Zn231 Zn 0.16271 0.81876 0.91166 0.0
Zn232 Zn 0.08876 0.89618 0.23799 0.0
Zn233 Zn 0.1235 0.87509 0.11602 0.0
C234 C 0.05721 0.85181 0.16651 0.0
C235 C 0.10132 0.93951 0.07811 0.0
O236 O 0.16412 0.86563 0.19808 0.0
O237 O 0.1826 0.83772 0.055 0.0
C238 C 0.10592 0.80463 0.01735 0.0
O239 O 0.08072 0.85114 0.10478 0.0
O240 O 0.05577 0.86912 0.25199 0.0
O241 O 0.0825 0.93294 0.15385 0.0
O242 O 0.11937 0.9197 0.04247 0.0
O243 O 0.12663 0.79697 0.9498 0.0
O244 O 0.10526 0.82995 0.07042 0.0
O245 O 0.13413 0.90163 0.95662 0.0
O246 O 0.15205 0.85919 0.93604 0.0
C247 C 0.14693 0.88342 0.8889 0.0
O248 O 0.14459 0.87907 0.2992 0.0
O249 O 0.10889 0.90418 0.38107 0.0
C250 C 0.18563 0.85201 0.14981 0.0
C251 C 0.13385 0.89279 0.38893 0.0
Zn252 Zn 0.83887 0.65406 0.03896 0.0
Zn253 Zn 0.90265 0.58989 0.24037 0.0
Zn254 Zn 0.86888 0.6201 0.12836 0.0
C255 C 0.93676 0.63511 0.18063 0.0
C256 C 0.88645 0.55727 0.04714 0.0
O257 O 0.82654 0.62108 0.22247 0.0
O258 O 0.81163 0.66444 0.16283 0.0
C259 C 0.88412 0.68778 0.05244 0.0
O260 O 0.91187 0.64321 0.13913 0.0
O261 O 0.93884 0.61152 0.23712 0.0
O262 O 0.90078 0.55583 0.14048 0.0
O263 O 0.87325 0.58108 0.01761 0.0
O264 O 0.86298 0.68661 0.98248 0.0
O265 O 0.88967 0.66529 0.11752 0.0
O266 O 0.85763 0.6031 0.94895 0.0
O267 O 0.81988 0.63179 0.91517 0.0
C268 C 0.83677 0.61174 0.88096 0.0
O269 O 0.84971 0.60892 0.30451 0.0
O270 O 0.88519 0.58392 0.3899 0.0
C271 C 0.80642 0.64085 0.21611 0.0
C272 C 0.86016 0.59532 0.39438 0.0
Zn273 Zn 0.08798 0.09439 0.77761 0.0
Zn274 Zn 0.14795 0.16237 0.98145 0.0
Zn275 Zn 0.12289 0.12546 0.8677 0.0
C276 C 0.10019 0.19205 0.94834 0.0
C277 C 0.18463 0.15018 0.80211 0.0
O278 O 0.12116 0.08341 0.96674 0.0
O279 O 0.08372 0.06171 0.88042 0.0
C280 C 0.05337 0.13891 0.80786 0.0
O281 O 0.09791 0.16849 0.88551 0.0
O282 O 0.12115 0.19455 0.01866 0.0
O283 O 0.17847 0.17113 0.86966 0.0
O284 O 0.16491 0.13089 0.77795 0.0
O285 O 0.05165 0.11557 0.74921 0.0
O286 O 0.07789 0.14599 0.85605 0.0
O287 O 0.14235 0.11686 0.6896 0.0
O288 O 0.11002 0.08322 0.64277 0.0
C289 C 0.1318 0.09839 0.61489 0.0
O290 O 0.13486 0.10624 0.04041 0.0
O291 O 0.16284 0.14089 0.11569 0.0
C292 C 0.10397 0.06116 0.95422 0.0
C293 C 0.15097 0.11605 0.12463 0.0
Zn294 Zn 0.58987 0.40276 0.7492 0.0
Zn295 Zn 0.65047 0.33984 0.53072 0.0
Zn296 Zn 0.62194 0.3757 0.62573 0.0
C297 C 0.64885 0.38487 0.37453 0.0
C298 C 0.60442 0.30748 0.55679 0.0
O299 O 0.64272 0.38534 0.79912 0.0
O300 O 0.61297 0.41816 0.87667 0.0
C301 C 0.59727 0.43723 0.55617 0.0
O302 O 0.63042 0.39481 0.44997 0.0
O303 O 0.66379 0.3624 0.39791 0.0
O304 O 0.62681 0.30544 0.49385 0.0
O305 O 0.59939 0.33155 0.61297 0.0
O306 O 0.58041 0.43389 0.64158 0.0
O307 O 0.61549 0.41672 0.52918 0.0
O308 O 0.57847 0.35413 0.64321 0.0
O309 O 0.55727 0.37676 0.79015 0.0
C310 C 0.55618 0.35775 0.71029 0.0
O311 O 0.66499 0.37348 0.71284 0.0
O312 O 0.68243 0.33268 0.63542 0.0
C313 C 0.63583 0.40295 0.88348 0.0
C314 C 0.68627 0.35535 0.69665 0.0
Zn315 Zn 0.33982 0.84061 0.46459 0.0
Zn316 Zn 0.39405 0.90645 0.27121 0.0
Zn317 Zn 0.36738 0.87498 0.38473 0.0
C318 C 0.35151 0.90233 0.13104 0.0
C319 C 0.43254 0.86381 0.29259 0.0
O320 O 0.35445 0.89264 0.5567 0.0
O321 O 0.35411 0.84727 0.62183 0.0
C322 C 0.30218 0.86358 0.32767 0.0
O323 O 0.34869 0.88172 0.20763 0.0
O324 O 0.36826 0.92363 0.15188 0.0
O325 O 0.42509 0.88035 0.20978 0.0
O326 O 0.41386 0.85871 0.37389 0.0
O327 O 0.30067 0.85635 0.43304 0.0
O328 O 0.32741 0.86663 0.27939 0.0
O329 O 0.39379 0.83468 0.40904 0.0
O330 O 0.35556 0.80678 0.37433 0.0
C331 C 0.38295 0.80947 0.38252 0.0
O332 O 0.36653 0.9167 0.47966 0.0
O333 O 0.40552 0.93447 0.39249 0.0
C334 C 0.3538 0.87454 0.64269 0.0
C335 C 0.38523 0.93743 0.46566 0.0
C336 C 0.16254 0.58786 0.67938 0.0
C337 C 0.14081 0.60257 0.74428 0.0
C338 C 0.16065 0.58624 0.55684 0.0
C339 C 0.13792 0.60075 0.49762 0.0
H340 H 0.18114 0.57808 0.72323 0.0
H341 H 0.1768 0.57371 0.50867 0.0
S342 S 0.07793 0.6447 0.62823 0.0
N343 N 0.09704 0.63272 0.74055 0.0
N344 N 0.09447 0.63133 0.5118 0.0
C345 C 0.1169 0.61627 0.56208 0.0
C346 C 0.1181 0.61679 0.68515 0.0
C347 C 0.66504 0.8897 0.95189 0.0
C348 C 0.64225 0.90711 -0.00416 0.0
C349 C 0.66719 0.88381 0.83215 0.0
C350 C 0.6464 0.89478 0.75208 0.0
H351 H 0.68027 0.87918 0.01079 0.0
H352 H 0.68412 0.86881 0.80296 0.0
S353 S 0.58404 0.94378 0.8199 0.0
N354 N 0.59998 0.93785 0.94675 0.0
N355 N 0.60383 0.92558 0.72367 0.0
C356 C 0.62499 0.91411 0.7932 0.0
C357 C 0.62291 0.92052 0.91477 0.0
C358 C 0.32502 0.37782 0.15862 0.0
C359 C 0.3376 0.39682 0.24325 0.0
C360 C 0.32834 0.38272 0.03893 0.0
C361 C 0.34338 0.40743 -0.00163 0.0
H362 H 0.31466 0.35739 0.18404 0.0
H363 H 0.32163 0.36555 0.97902 0.0
S364 S 0.37321 0.46819 0.1813 0.0
N365 N 0.361 0.44393 0.27634 0.0
N366 N 0.36574 0.45432 0.05154 0.0
C367 C 0.35241 0.42869 0.08148 0.0
C368 C 0.34988 0.42315 0.20373 0.0
C369 C 0.83481 0.08741 0.4244 0.0
C370 C 0.85315 0.1043 0.49674 0.0
C371 C 0.83561 0.091 0.30246 0.0
C372 C 0.85551 0.11073 0.25145 0.0
H373 H 0.81992 0.07156 0.46209 0.0
H374 H 0.82016 0.07908 0.24854 0.0
S375 S 0.91053 0.15669 0.40385 0.0
N376 N 0.89291 0.13952 0.50896 0.0
N377 N 0.89527 0.14532 0.28142 0.0
C378 C 0.87474 0.12647 0.32342 0.0
C379 C 0.87334 0.12351 0.44585 0.0
C380 C 0.14483 0.41611 0.28068 0.0
C381 C 0.14897 0.38722 0.24011 0.0
C382 C 0.14282 0.42201 0.40094 0.0
C383 C 0.14445 0.39918 0.48421 0.0
H384 H 0.14249 0.43407 0.21944 0.0
H385 H 0.13857 0.44443 0.42866 0.0
S386 S 0.15208 0.31936 0.42173 0.0
N387 N 0.15388 0.33542 0.29349 0.0
N388 N 0.14805 0.34648 0.5159 0.0
C389 C 0.14853 0.3703 0.44423 0.0
C390 C 0.1513 0.36435 0.32314 0.0
C391 C 0.84418 0.92135 0.69917 0.0
C392 C 0.84219 0.89326 0.74887 0.0
C393 C 0.84672 0.92454 0.57744 0.0
C394 C 0.84708 0.8998 0.5024 0.0
H395 H 0.84455 0.94072 0.75436 0.0
H396 H 0.85013 0.94636 0.54215 0.0
S397 S 0.84417 0.82165 0.59075 0.0
N398 N 0.84166 0.84031 0.71386 0.0
N399 N 0.84585 0.84667 0.48716 0.0
C400 C 0.84404 0.87185 0.55124 0.0
C401 C 0.84189 0.8685 0.67405 0.0
C402 C 0.35791 0.58356 0.79191 0.0
C403 C 0.34618 0.61015 0.75152 0.0
C404 C 0.35956 0.57783 0.91193 0.0
C405 C 0.35021 0.5988 -0.00452 0.0
H406 H 0.36752 0.56797 0.73147 0.0
H407 H 0.37048 0.55785 0.9396 0.0
S408 S 0.3134 0.66977 0.93409 0.0
N409 N 0.31978 0.65519 0.80493 0.0
N410 N 0.32671 0.64599 0.02838 0.0
C411 C 0.33645 0.62438 0.95578 0.0
C412 C 0.33343 0.6296 0.83427 0.0
C413 C 0.62876 0.08322 0.10371 0.0
C414 C 0.6417 0.10365 0.02631 0.0
C415 C 0.63227 0.08514 0.2249 0.0
C416 C 0.64925 0.10741 0.27596 0.0
H417 H 0.61414 0.06637 0.07087 0.0
H418 H 0.62029 0.06984 0.27904 0.0
S419 S 0.69475 0.16127 0.11219 0.0
N420 N 0.67649 0.1436 0.00924 0.0
N421 N 0.68453 0.14645 0.23707 0.0
C422 C 0.66522 0.12587 0.1993 0.0
C423 C 0.66121 0.12413 0.07473 0.0
C424 C 0.84626 0.41516 0.30938 0.0
C425 C 0.85546 0.38748 0.26827 0.0
C426 C 0.84469 0.4208 0.43012 0.0
C427 C 0.85125 0.39859 0.5118 0.0
H428 H 0.83995 0.43221 0.24863 0.0
H429 H 0.83858 0.44261 0.45983 0.0
S430 S 0.8796 0.32374 0.44707 0.0
N431 N 0.87409 0.33888 0.31865 0.0
N432 N 0.86935 0.34886 0.54243 0.0
C433 C 0.86064 0.37106 0.4708 0.0
C434 C 0.86326 0.36572 0.34981 0.0
C435 C 0.33593 0.08571 0.17319 0.0
C436 C 0.35389 0.10605 0.23216 0.0
C437 C 0.33753 0.08287 0.05091 0.0
C438 C 0.35563 0.10173 0.98608 0.0
H439 H 0.3204 0.07248 0.22119 0.0
H440 H 0.32463 0.06617 0.00724 0.0
S441 S 0.40529 0.15929 0.10014 0.0
N442 N 0.39006 0.14486 0.21695 0.0
N443 N 0.3912 0.14126 0.98854 0.0
C444 C 0.37294 0.12239 0.04457 0.0
C445 C 0.3725 0.12414 0.16735 0.0
C446 C 0.65668 0.62175 0.94186 0.0
C447 C 0.63884 0.59911 0.98241 0.0
C448 C 0.66181 0.62491 0.82256 0.0
C449 C 0.64868 0.60589 0.73955 0.0
H450 H 0.66422 0.63876 0.00087 0.0
H451 H 0.67403 0.64411 0.79547 0.0
S452 S 0.60781 0.53778 0.80826 0.0
N453 N 0.61375 0.55342 0.93618 0.0
N454 N 0.62302 0.55964 0.71085 0.0
C455 C 0.6341 0.58093 0.78115 0.0
C456 C 0.62916 0.57755 0.90308 0.0
C457 C 0.13786 0.9163 0.58516 0.0
C458 C 0.14667 0.89336 0.50894 0.0
C459 C 0.13946 0.91355 0.70702 0.0
C460 C 0.15053 0.88796 0.75947 0.0
H461 H 0.12739 0.93581 0.55042 0.0
H462 H 0.13033 0.931 0.76011 0.0
S463 S 0.18211 0.82386 0.5988 0.0
N464 N 0.17015 0.84579 0.49469 0.0
N465 N 0.17517 0.8411 0.72261 0.0
C466 C 0.16239 0.86617 0.6838 0.0
C467 C 0.16012 0.8688 0.5591 0.0
C468 C 0.84781 0.57819 0.71187 0.0
C469 C 0.83664 0.60487 0.75457 0.0
C470 C 0.85235 0.57408 0.5919 0.0
C471 C 0.84657 0.59674 0.51084 0.0
H472 H 0.85412 0.56088 0.77161 0.0
H473 H 0.8623 0.55366 0.56308 0.0
S474 S 0.81766 0.67098 0.57821 0.0
N475 N 0.81881 0.65402 0.705 0.0
N476 N 0.82971 0.64678 0.48237 0.0
C477 C 0.83466 0.62313 0.55211 0.0
C478 C 0.8291 0.62705 0.67327 0.0
C479 C 0.16641 0.10837 0.4467 0.0
C480 C 0.13961 0.09781 0.48871 0.0
C481 C 0.17145 0.11091 0.32605 0.0
C482 C 0.14969 0.10345 0.24331 0.0
H483 H 0.18307 0.11583 0.50679 0.0
H484 H 0.1918 0.1207 0.29752 0.0
S485 S 0.07533 0.07575 0.30741 0.0
N486 N 0.09103 0.0795 0.43565 0.0
N487 N 0.10053 0.0853 0.2126 0.0
C488 C 0.1234 0.09171 0.28405 0.0
C489 C 0.1183 0.08883 0.40576 0.0
C490 C 0.65381 0.41798 0.19898 0.0
C491 C 0.64605 0.39098 0.24931 0.0
C492 C 0.65319 0.4214 0.0769 0.0
C493 C 0.64598 0.39762 0.00276 0.0
H494 H 0.66012 0.43638 0.25364 0.0
H495 H 0.65752 0.44291 0.04025 0.0
S496 S 0.62239 0.32324 0.09391 0.0
N497 N 0.62945 0.34078 0.2168 0.0
N498 N 0.62982 0.3469 0.98932 0.0
C499 C 0.63884 0.37054 0.05291 0.0
C500 C 0.63844 0.36735 0.17573 0.0
C501 C 0.35573 0.868 0.96871 0.0
C502 C 0.34608 0.89551 0.00826 0.0
C503 C 0.35889 0.8623 0.85059 0.0
C504 C 0.35187 0.88358 0.76599 0.0
H505 H 0.36272 0.85118 0.02962 0.0
H506 H 0.36733 0.84088 0.82585 0.0
S507 S 0.32377 0.95874 0.82499 0.0
N508 N 0.32899 0.94439 0.95564 0.0
N509 N 0.33329 0.93298 0.73022 0.0
C510 C 0.34139 0.91109 0.80386 0.0
C511 C 0.3388 0.91717 0.92579 0.0
C512 C 0.07694 0.73069 0.98604 0.0
C513 C 0.0907 0.71798 0.08307 0.0
C514 C 0.07541 0.76143 0.97461 0.0
C515 C 0.08799 0.78 0.05927 0.0
H516 H 0.07134 0.71712 0.9115 0.0
H517 H 0.06888 0.77043 0.89121 0.0
S518 S 0.11945 0.75708 0.34194 0.0
N519 N 0.11118 0.7259 0.27539 0.0
N520 N 0.10833 0.78356 0.25404 0.0
C521 C 0.09649 0.76748 0.16577 0.0
C522 C 0.09811 0.73627 0.17724 0.0
C523 C 0.51017 0.83302 0.31547 0.0
C524 C 0.52639 0.85916 0.30152 0.0
C525 C 0.47919 0.83396 0.32084 0.0
C526 C 0.46424 0.86107 0.31358 0.0
H527 H 0.52124 0.81193 0.31566 0.0
H528 H 0.46699 0.81356 0.32421 0.0
S529 S 0.49717 0.93547 0.29709 0.0
N530 N 0.52513 0.91259 0.29368 0.0
N531 N 0.46808 0.91434 0.30897 0.0
C532 C 0.4806 0.88711 0.3108 0.0
C533 C 0.51142 0.88616 0.3033 0.0
C534 C 0.3858 0.26917 0.69055 0.0
C535 C 0.4025 0.28234 0.60237 0.0
C536 C 0.38198 0.23866 0.69318 0.0
C537 C 0.39545 0.22041 0.61004 0.0
H538 H 0.37192 0.2826 0.74585 0.0
H539 H 0.36565 0.22971 0.75155 0.0
S540 S 0.45044 0.24342 0.39274 0.0
N541 N 0.43877 0.27463 0.45109 0.0
N542 N 0.43258 0.21674 0.45967 0.0
C543 C 0.41649 0.23279 0.53627 0.0
C544 C 0.41984 0.26406 0.53172 0.0
C545 C 0.97881 0.13665 0.92781 0.0
C546 C 0.96355 0.15375 0.84608 0.0
C547 C 0.0094 0.13574 0.9275 0.0
C548 C 0.02557 0.152 0.84583 0.0
H549 H 0.96715 0.12102 0.98172 0.0
H550 H 0.02023 0.11942 0.98123 0.0
S551 S -0.00406 0.20736 0.64169 0.0
N552 N 0.96662 0.19248 0.70165 0.0
N553 N 0.02448 0.19083 0.70137 0.0
C554 C 0.01071 0.1725 0.77655 0.0
C555 C 0.97947 0.17335 0.77658 0.0
C556 C 0.09021 0.26285 0.80312 0.0
C557 C 0.08611 0.28104 0.90118 0.0
C558 C 0.08877 0.2321 0.81294 0.0
C559 C 0.08351 0.21891 0.9215 0.0
H560 H 0.09892 0.27209 0.7234 0.0
H561 H 0.09643 0.21886 0.74039 0.0
S562 S 0.06134 0.25704 0.19244 0.0
N563 N 0.06907 0.28394 0.10084 0.0
N564 N 0.0663 0.22607 0.1192 0.0
C565 C 0.07401 0.23691 0.01345 0.0
C566 C 0.07544 0.26815 0.00345 0.0
C567 C 0.01361 0.86431 0.05728 0.0
C568 C 0.02892 0.84242 0.11851 0.0
C569 C 0.98319 0.86652 0.06526 0.0
C570 C 0.96703 0.84661 0.13293 0.0
H571 H 0.02541 0.88236 0.01746 0.0
H572 H 0.97271 0.886 0.03007 0.0
S573 S 0.99585 0.77935 0.27321 0.0
N574 N 0.02529 0.79633 0.22381 0.0
N575 N 0.96758 0.80011 0.23639 0.0
C576 C 0.98151 0.82197 0.17839 0.0
C577 C 0.0127 0.8199 0.17136 0.0
C578 C 0.4106 0.73838 0.48674 0.0
C579 C 0.40308 0.7206 0.39083 0.0
C580 C 0.40958 0.7692 0.47825 0.0
C581 C 0.40067 0.78266 0.37406 0.0
H582 H 0.41286 0.72863 0.57235 0.0
H583 H 0.41135 0.78212 0.55747 0.0
S584 S 0.38593 0.74574 0.09259 0.0
N585 N 0.3929 0.71856 0.18387 0.0
N586 N 0.38996 0.77639 0.16866 0.0
C587 C 0.39795 0.76522 0.27374 0.0
C588 C 0.3996 0.73401 0.28191 0.0
C589 C 0.5131 0.14533 0.53508 0.0
C590 C 0.52891 0.16035 0.62209 0.0
C591 C 0.4824 0.1442 0.53789 0.0
C592 C 0.46658 0.15828 0.62711 0.0
H593 H 0.52446 0.13066 0.47572 0.0
H594 H 0.47138 0.12897 0.47975 0.0
S595 S 0.49724 0.20839 0.8503 0.0
N596 N 0.52624 0.19543 0.78113 0.0
N597 N 0.46847 0.19334 0.78641 0.0
C598 C 0.48184 0.17722 0.70212 0.0
C599 C 0.51311 0.1784 0.69907 0.0
C600 C 0.89482 0.23515 0.78204 0.0
C601 C 0.89746 0.21833 0.88391 0.0
C602 C 0.89715 0.26583 0.78642 0.0
C603 C 0.90136 0.28035 0.89334 0.0
H604 H 0.88707 0.22499 0.70223 0.0
H605 H 0.8908 0.27829 0.70999 0.0
S606 S 0.91856 0.24542 0.17604 0.0
N607 N 0.9119 0.21751 0.08725 0.0
N608 N 0.9153 0.27552 0.0964 0.0
C609 C 0.9092 0.26348 0.9907 0.0
C610 C 0.90731 0.23217 0.98585 0.0
C611 C 0.599 0.76394 0.27187 0.0
C612 C 0.58968 0.78042 0.36877 0.0
C613 C 0.59778 0.73315 0.27303 0.0
C614 C 0.58756 0.71822 0.37181 0.0
H615 H 0.61129 0.77452 0.203 0.0
H616 H 0.60923 0.72118 0.20512 0.0
S617 S 0.5511 0.75166 0.6273 0.0
N618 N 0.56254 0.78008 0.55013 0.0
N619 N 0.56067 0.72192 0.55318 0.0
C620 C 0.57327 0.73452 0.4586 0.0
C621 C 0.57426 0.7659 0.45692 0.0
C622 C 0.91534 0.7323 0.02248 0.0
C623 C 0.89358 0.7175 0.08595 0.0
C624 C 0.91601 0.76333 0.01904 0.0
C625 C 0.89497 0.78008 0.0792 0.0
H626 H 0.93007 0.71995 0.96688 0.0
H627 H 0.93129 0.77412 0.96121 0.0
S628 S 0.83373 0.75156 0.257 0.0
N629 N 0.85123 0.72185 0.21191 0.0
N630 N 0.8526 0.77967 0.20616 0.0
C631 C 0.87466 0.76542 0.1498 0.0
C632 C 0.87394 0.73417 0.15304 0.0
C633 C 0.57485 0.23458 0.48527 0.0
C634 C 0.59095 0.21753 0.56483 0.0
C635 C 0.57414 0.2654 0.49505 0.0
C636 C 0.58945 0.27981 0.58468 0.0
H637 H 0.56639 0.22452 0.4065 0.0
H638 H 0.56517 0.27803 0.42344 0.0
S639 S 0.63015 0.24465 0.82613 0.0
N640 N 0.61824 0.21686 0.74617 0.0
N641 N 0.61702 0.27465 0.76409 0.0
C642 C 0.60149 0.26272 0.67456 0.0
C643 C 0.60215 0.23141 0.66482 0.0
C644 C 0.97916 0.38272 0.77511 0.0
C645 C 0.96399 0.35673 0.80015 0.0
C646 C 0.00937 0.38345 0.7739 0.0
C647 C 0.02609 0.35817 0.79681 0.0
H648 H 0.96753 0.40274 0.75261 0.0
H649 H 0.01973 0.40407 0.75066 0.0
S650 S -0.003 0.28664 0.89989 0.0
N651 N 0.96746 0.30655 0.87258 0.0
N652 N 0.02537 0.30779 0.8688 0.0
C653 C 0.01145 0.33272 0.83521 0.0
C654 C 0.98004 0.33203 0.83713 0.0
C655 C 0.4768 0.65121 0.43494 0.0
C656 C 0.46494 0.66064 0.32831 0.0
C657 C 0.5069 0.64624 0.44579 0.0
C658 C 0.52582 0.65188 0.35228 0.0
H659 H 0.46257 0.64296 0.50288 0.0
H660 H 0.51487 0.6347 0.52205 0.0
S661 S 0.50636 0.68683 0.07222 0.0
N662 N 0.47475 0.68239 0.13963 0.0
N663 N 0.53172 0.6745 0.16258 0.0
C664 C 0.51483 0.66671 0.25474 0.0
C665 C 0.48411 0.67099 0.2424 0.0
C666 C 0.47977 0.32846 0.70602 0.0
C667 C 0.46527 0.35288 0.65794 0.0
C668 C 0.51053 0.32758 0.70989 0.0
C669 C 0.527 0.35108 0.6655 0.0
H670 H 0.46743 0.31169 0.75131 0.0
H671 H 0.52126 0.31009 0.75764 0.0
S672 S 0.49893 0.41865 0.52391 0.0
N673 N 0.46943 0.39957 0.55711 0.0
N674 N 0.52682 0.39792 0.56406 0.0
C675 C 0.51262 0.37387 0.60615 0.0
C676 C 0.48169 0.37475 0.60226 0.0
C677 C 0.00893 0.67212 0.20056 0.0
C678 C 0.02624 0.65093 0.1435 0.0
C679 C 0.9782 0.67033 0.19702 0.0
C680 C 0.9644 0.64714 0.1374 0.0
H681 H 0.0191 0.68809 0.25788 0.0
H682 H 0.96549 0.68487 0.25224 0.0
S683 S 0.00015 0.58762 0.96813 0.0
N684 N 0.0274 0.60789 0.01785 0.0
N685 N 0.97007 0.60442 0.01192 0.0
C686 C 0.98152 0.62805 0.06919 0.0
C687 C 0.01249 0.62992 0.07237 0.0
C688 C 0.1215 0.51559 0.98041 0.0
C689 C 0.09519 0.52911 0.01546 0.0
C690 C 0.12365 0.48473 0.97071 0.0
C691 C 0.09971 0.46645 -0.00309 0.0
H692 H 0.1406 0.52883 0.96164 0.0
H693 H 0.14369 0.47523 0.937 0.0
S694 S 0.02614 0.49029 0.09236 0.0
N695 N 0.04454 0.52117 0.07511 0.0
N696 N 0.04931 0.46368 0.05955 0.0
C697 C 0.07361 0.47957 0.03347 0.0
C698 C 0.07113 0.51072 0.04142 0.0
C699 C 0.72656 0.85287 0.166 0.0
C700 C 0.71674 0.86942 0.26085 0.0
C701 C 0.75652 0.84888 0.14738 0.0
C702 C 0.77769 0.86115 0.2234 0.0
H703 H 0.71115 0.84092 0.11194 0.0
H704 H 0.76306 0.83522 0.07438 0.0
S705 S 0.76247 0.90939 0.47642 0.0
N706 N 0.72985 0.90054 0.42531 0.0
N707 N 0.78632 0.89321 0.38918 0.0
C708 C 0.76802 0.87974 0.31277 0.0
C709 C 0.73748 0.88381 0.3317 0.0
C710 C 0.36853 0.48864 0.52938 0.0
C711 C 0.39105 0.46933 0.49512 0.0
C712 C 0.37174 0.51933 0.51913 0.0
C713 C 0.39779 0.53165 0.4759 0.0
H714 H 0.34892 0.48003 0.56965 0.0
H715 H 0.35366 0.53339 0.54434 0.0
S716 S 0.4632 0.48958 0.37519 0.0
N717 N 0.43968 0.46411 0.41572 0.0
N718 N 0.44662 0.52132 0.39884 0.0
C719 C 0.42042 0.51216 0.44148 0.0
C720 C 0.41677 0.48117 0.45002 0.0
C721 C 0.75332 0.11192 0.77881 0.0
C722 C 0.77396 0.13305 0.74416 0.0
C723 C 0.72361 0.11519 0.75197 0.0
C724 C 0.71349 0.13983 0.69002 0.0
H725 H 0.76 0.09356 0.83278 0.0
H726 H 0.70845 0.09845 0.78103 0.0
S727 S 0.75887 0.2019 0.5834 0.0
N728 N 0.78245 0.17956 0.6472 0.0
N729 N 0.72662 0.18582 0.59485 0.0
C730 C 0.73409 0.16081 0.6525 0.0
C731 C 0.76435 0.15738 0.67996 0.0
C732 C 0.86375 0.50896 0.04351 0.0
C733 C 0.88212 0.52932 0.98775 0.0
C734 C 0.86856 0.47863 0.03336 0.0
C735 C 0.89206 0.46767 0.96755 0.0
H736 H 0.8471 0.51662 0.1036 0.0
H737 H 0.85433 0.4638 0.08026 0.0
S738 S 0.94342 0.51258 0.78911 0.0
N739 N 0.92234 0.53699 0.85495 0.0
N740 N 0.93154 0.48008 0.83219 0.0
C741 C 0.90923 0.48803 0.90398 0.0
C742 C 0.90411 0.51884 0.91454 0.0
C743 C 0.22534 0.11923 0.71951 0.0
C744 C 0.21624 0.14433 0.78155 0.0
C745 C 0.25516 0.11305 0.70403 0.0
C746 C 0.27695 0.1313 0.75211 0.0
H747 H 0.20943 0.10467 0.68007 0.0
H748 H 0.26125 0.09524 0.64584 0.0
S749 S 0.26544 0.1964 0.94014 0.0
N750 N 0.2322 0.18547 0.90476 0.0
N751 N 0.28785 0.17297 0.87584 0.0
C752 C 0.26833 0.15464 0.82343 0.0
C753 C 0.23812 0.16149 0.83747 0.0
C754 C 0.63185 0.50746 0.44788 0.0
C755 C 0.61031 0.52852 0.47456 0.0
C756 C 0.62697 0.47741 0.46744 0.0
C757 C 0.60006 0.4675 0.51155 0.0
H758 H 0.6522 0.51422 0.40776 0.0
H759 H 0.64451 0.46199 0.44974 0.0
S760 S 0.53572 0.51422 0.58471 0.0
N761 N 0.56094 0.53772 0.5415 0.0
N762 N 0.55104 0.48138 0.57548 0.0
C763 C 0.57813 0.48855 0.53585 0.0
C764 C 0.58346 0.51901 0.51844 0.0
C765 C 0.25339 0.88468 0.28899 0.0
C766 C 0.27488 0.86359 0.26201 0.0
C767 C 0.22421 0.88058 0.25516 0.0
C768 C 0.21566 0.85499 0.19512 0.0
H769 H 0.25904 0.90394 0.34012 0.0
H770 H 0.20834 0.89752 0.27601 0.0
S771 S 0.2638 0.79248 0.11108 0.0
N772 N 0.28589 0.8162 0.17548 0.0
N773 N 0.2311 0.80792 0.11312 0.0
C774 C 0.23716 0.83381 0.16767 0.0
C775 C 0.2668 0.83828 0.20068 0.0
C776 C 0.57415 0.98089 0.50464 0.0
C777 C 0.60036 0.96476 0.49749 0.0
C778 C 0.57431 0.01121 0.52295 0.0
C779 C 0.60064 0.02677 0.53437 0.0
H780 H 0.55321 0.97003 0.49475 0.0
H781 H 0.55352 0.02254 0.53081 0.0
S782 S 0.67537 0.99534 0.51939 0.0
N783 N 0.65355 0.96676 0.50018 0.0
N784 N 0.65372 0.0242 0.53633 0.0
C785 C 0.62711 0.01121 0.52572 0.0
C786 C 0.62699 0.98005 0.50776 0.0
C787 C 0.23543 0.37879 0.82098 0.0
C788 C 0.21586 0.36952 0.73319 0.0
C789 C 0.26572 0.37593 0.80692 0.0
C790 C 0.27704 0.36348 0.70496 0.0
H791 H 0.22717 0.38553 0.90546 0.0
H792 H 0.27997 0.38163 0.87858 0.0
S793 S 0.23545 0.34452 0.4367 0.0
N794 N 0.21022 0.35338 0.53341 0.0
N795 N 0.26704 0.34875 0.50425 0.0
C796 C 0.25786 0.35793 0.61108 0.0
C797 C 0.22717 0.36078 0.62584 0.0
C798 C 0.9174 0.98605 0.00875 0.0
C799 C 0.89171 0.96917 0.00756 0.0
C800 C 0.91645 0.01657 0.00038 0.0
C801 C 0.88978 0.03169 0.98843 0.0
H802 H 0.9385 0.97559 0.02109 0.0
H803 H 0.93699 0.02846 0.0008 0.0
S804 S 0.81612 0.99767 0.97767 0.0
N805 N 0.83867 0.96953 -0.00569 0.0
N806 N 0.83687 0.02741 0.97262 0.0
C807 C 0.86378 0.01515 0.9855 0.0
C808 C 0.86477 0.98376 -0.00482 0.0
C809 C 0.22304 0.6272 0.34978 0.0
C810 C 0.21464 0.62174 0.23518 0.0
C811 C 0.25269 0.62718 0.37873 0.0
C812 C 0.27457 0.62226 0.29338 0.0
H813 H 0.20715 0.63443 0.41375 0.0
H814 H 0.25858 0.63375 0.46652 0.0
S815 S 0.26178 0.59723 0.99081 0.0
N816 N 0.22886 0.60426 0.04301 0.0
N817 N 0.28475 0.60369 0.09912 0.0
C818 C 0.26587 0.61194 0.184 0.0
C819 C 0.23568 0.61197 0.15436 0.0
C820 C 0.38964 0.97924 0.60182 0.0
C821 C 0.3785 0.96771 0.49827 0.0
C822 C 0.39299 0.00963 0.61476 0.0
C823 C 0.38576 0.02935 0.52381 0.0
H824 H 0.39757 0.96472 0.66967 0.0
H825 H 0.40237 0.01768 0.69552 0.0
S826 S 0.35368 0.00946 0.23886 0.0
N827 N 0.35816 0.97772 0.30656 0.0
N828 N 0.36497 0.03507 0.33095 0.0
C829 C 0.37277 0.01811 0.42307 0.0
C830 C 0.3691 0.98715 0.41028 0.0
C831 C 0.75665 0.64021 0.13211 0.0
C832 C 0.77531 0.63275 0.22581 0.0
C833 C 0.72627 0.63821 0.1419 0.0
C834 C 0.71365 0.62814 0.24496 0.0
H835 H 0.76555 0.64935 0.05257 0.0
H836 H 0.71275 0.64696 0.07268 0.0
S837 S 0.75243 0.60182 0.50898 0.0
N838 N 0.77883 0.61131 0.41855 0.0
N839 N 0.72152 0.60792 0.43834 0.0
C840 C 0.73199 0.61789 0.33485 0.0
C841 C 0.76297 0.61999 0.32488 0.0
C842 C 0.0856 0.02113 0.07427 0.0
C843 C 0.10888 0.03289 0.01089 0.0
C844 C 0.0834 0.99096 0.09301 0.0
C845 C 0.10422 0.97105 0.04767 0.0
H846 H 0.06783 0.03517 0.10286 0.0
H847 H 0.06463 0.98325 0.14162 0.0
S848 S 0.16949 0.99121 0.87354 0.0
N849 N 0.15318 0.02295 0.9012 0.0
N850 N 0.14959 0.96578 0.93856 0.0
C851 C 0.12817 0.98266 0.9862 0.0
C852 C 0.1304 0.01368 0.96754 0.0
C853 C 0.73882 0.35298 0.64452 0.0
C854 C 0.7168 0.36377 0.72008 0.0
C855 C 0.76841 0.35779 0.66742 0.0
C856 C 0.77674 0.37353 0.76647 0.0
H857 H 0.73328 0.33955 0.56953 0.0
H858 H 0.78466 0.34666 0.61448 0.0
S859 S 0.7284 0.41194 0.97632 0.0
N860 N 0.70577 0.39522 0.8856 0.0
N861 N 0.76164 0.40416 0.92922 0.0
C862 C 0.75518 0.38749 0.83405 0.0
C863 C 0.72504 0.38255 0.81103 0.0
loop_
_geom_bond_atom_site_label_1
_geom_bond_atom_site_label_2
_geom_bond_distance
_geom_bond_site_symmetry_2
_ccdc_geom_bond_type
Zn0 O6 1.920 . S
Zn0 O12 1.898 . S
Zn0 O15 1.905 . S
Zn1 O9 1.905 1_556 S
Zn1 O10 1.898 1_556 S
Zn1 O18 1.920 . S
Zn2 O5 2.080 . S
Zn2 O8 2.114 . S
Zn2 O11 2.120 . S
Zn2 O13 2.120 . S
Zn2 O14 2.114 . S
Zn2 O17 2.080 1_554 S
C3 O8 1.166 . S
C3 O9 1.182 . S
C4 O10 1.167 . S
C4 O11 1.299 . S
O5 Zn2 2.080 . S
O5 C19 1.305 . S
O6 Zn0 1.920 . S
O6 C19 1.234 . S
C7 O12 1.167 . S
C7 O13 1.299 . S
O8 Zn2 2.114 . S
O8 C3 1.166 . S
O9 Zn1 1.905 1_554 S
O9 C3 1.182 . S
O10 Zn1 1.898 1_554 S
O10 C4 1.167 . S
O11 Zn2 2.120 . S
O11 C4 1.299 . S
O12 Zn0 1.898 . S
O12 C7 1.167 . S
O13 Zn2 2.120 . S
O13 C7 1.299 . S
O14 Zn2 2.114 . S
O14 C16 1.166 . S
O15 Zn0 1.905 . S
O15 C16 1.182 . S
C16 O14 1.166 . S
C16 O15 1.182 . S
O17 Zn2 2.080 1_556 S
O17 C20 1.305 . S
O18 Zn1 1.920 . S
O18 C20 1.234 . S
C19 O5 1.305 . S
C19 O6 1.234 . S
C20 O17 1.305 . S
C20 O18 1.234 . S
Zn21 O27 1.920 . S
Zn21 O33 1.898 . S
Zn21 O36 1.905 . S
Zn22 O30 1.905 . S
Zn22 O31 1.898 . S
Zn22 O39 1.920 . S
Zn23 O26 2.080 . S
Zn23 O29 2.114 . S
Zn23 O32 2.120 . S
Zn23 O34 2.120 . S
Zn23 O35 2.114 . S
Zn23 O38 2.080 . S
C24 O29 1.166 . S
C24 O30 1.182 . S
C25 O31 1.167 . S
C25 O32 1.299 . S
O26 Zn23 2.080 . S
O26 C40 1.305 . S
O27 Zn21 1.920 . S
O27 C40 1.234 . S
C28 O33 1.167 . S
C28 O34 1.299 . S
O29 Zn23 2.114 . S
O29 C24 1.166 . S
O30 Zn22 1.905 . S
O30 C24 1.182 . S
O31 Zn22 1.898 . S
O31 C25 1.167 . S
O32 Zn23 2.120 . S
O32 C25 1.299 . S
O33 Zn21 1.898 . S
O33 C28 1.167 . S
O34 Zn23 2.120 . S
O34 C28 1.299 . S
O35 Zn23 2.114 . S
O35 C37 1.166 . S
O36 Zn21 1.905 . S
O36 C37 1.182 . S
C37 O35 1.166 . S
C37 O36 1.182 . S
O38 Zn23 2.080 . S
O38 C41 1.305 . S
O39 Zn22 1.920 . S
O39 C41 1.234 . S
C40 O26 1.305 . S
C40 O27 1.234 . S
C41 O38 1.305 . S
C41 O39 1.234 . S
Zn42 O48 1.920 . S
Zn42 O54 1.898 . S
Zn42 O57 1.905 . S
Zn43 O51 1.905 . S
Zn43 O52 1.898 . S
Zn43 O60 1.920 . S
Zn44 O47 2.080 . S
Zn44 O50 2.114 . S
Zn44 O53 2.120 . S
Zn44 O55 2.120 . S
Zn44 O56 2.114 . S
Zn44 O59 2.080 . S
C45 O50 1.166 . S
C45 O51 1.182 . S
C46 O52 1.167 . S
C46 O53 1.299 . S
O47 Zn44 2.080 . S
O47 C61 1.305 . S
O48 Zn42 1.920 . S
O48 C61 1.234 . S
C49 O54 1.167 . S
C49 O55 1.299 . S
O50 Zn44 2.114 . S
O50 C45 1.166 . S
O51 Zn43 1.905 . S
O51 C45 1.182 . S
O52 Zn43 1.898 . S
O52 C46 1.167 . S
O53 Zn44 2.120 . S
O53 C46 1.299 . S
O54 Zn42 1.898 . S
O54 C49 1.167 . S
O55 Zn44 2.120 . S
O55 C49 1.299 . S
O56 Zn44 2.114 . S
O56 C58 1.166 . S
O57 Zn42 1.905 . S
O57 C58 1.182 . S
C58 O56 1.166 . S
C58 O57 1.182 . S
O59 Zn44 2.080 . S
O59 C62 1.305 . S
O60 Zn43 1.920 . S
O60 C62 1.234 . S
C61 O47 1.305 . S
C61 O48 1.234 . S
C62 O59 1.305 . S
C62 O60 1.234 . S
Zn63 O69 1.920 . S
Zn63 O75 1.898 1_554 S
Zn63 O78 1.905 1_554 S
Zn64 O72 1.905 . S
Zn64 O73 1.898 . S
Zn64 O81 1.920 . S
Zn65 O68 2.080 1_556 S
Zn65 O71 2.114 . S
Zn65 O74 2.120 . S
Zn65 O76 2.120 . S
Zn65 O77 2.114 . S
Zn65 O80 2.080 . S
C66 O71 1.166 . S
C66 O72 1.182 . S
C67 O73 1.167 . S
C67 O74 1.299 . S
O68 Zn65 2.080 1_554 S
O68 C82 1.305 . S
O69 Zn63 1.920 . S
O69 C82 1.234 . S
C70 O75 1.167 . S
C70 O76 1.299 . S
O71 Zn65 2.114 . S
O71 C66 1.166 . S
O72 Zn64 1.905 . S
O72 C66 1.182 . S
O73 Zn64 1.898 . S
O73 C67 1.167 . S
O74 Zn65 2.120 . S
O74 C67 1.299 . S
O75 Zn63 1.898 1_556 S
O75 C70 1.167 . S
O76 Zn65 2.120 . S
O76 C70 1.299 . S
O77 Zn65 2.114 . S
O77 C79 1.166 . S
O78 Zn63 1.905 1_556 S
O78 C79 1.182 . S
C79 O77 1.166 . S
C79 O78 1.182 . S
O80 Zn65 2.080 . S
O80 C83 1.305 . S
O81 Zn64 1.920 . S
O81 C83 1.234 . S
C82 O68 1.305 . S
C82 O69 1.234 . S
C83 O80 1.305 . S
C83 O81 1.234 . S
Zn84 O90 1.920 . S
Zn84 O96 1.898 . S
Zn84 O99 1.905 . S
Zn85 O93 1.905 . S
Zn85 O94 1.898 1_554 S
Zn85 O102 1.920 1_554 S
Zn86 O89 2.080 . S
Zn86 O92 2.114 1_556 S
Zn86 O95 2.120 . S
Zn86 O97 2.120 . S
Zn86 O98 2.114 . S
Zn86 O101 2.080 . S
C87 O92 1.166 . S
C87 O93 1.182 . S
C88 O94 1.167 . S
C88 O95 1.299 . S
O89 Zn86 2.080 . S
O89 C103 1.305 . S
O90 Zn84 1.920 . S
O90 C103 1.234 . S
C91 O96 1.167 . S
C91 O97 1.299 . S
O92 Zn86 2.114 1_554 S
O92 C87 1.166 . S
O93 Zn85 1.905 . S
O93 C87 1.182 . S
O94 Zn85 1.898 1_556 S
O94 C88 1.167 . S
O95 Zn86 2.120 . S
O95 C88 1.299 . S
O96 Zn84 1.898 . S
O96 C91 1.167 . S
O97 Zn86 2.120 . S
O97 C91 1.299 . S
O98 Zn86 2.114 . S
O98 C100 1.166 . S
O99 Zn84 1.905 . S
O99 C100 1.182 . S
C100 O98 1.166 . S
C100 O99 1.182 . S
O101 Zn86 2.080 . S
O101 C104 1.305 . S
O102 Zn85 1.920 1_556 S
O102 C104 1.234 . S
C103 O89 1.305 . S
C103 O90 1.234 . S
C104 O101 1.305 . S
C104 O102 1.234 . S
Zn105 O111 1.920 . S
Zn105 O117 1.898 . S
Zn105 O120 1.905 . S
Zn106 O114 1.905 . S
Zn106 O115 1.898 1_556 S
Zn106 O123 1.920 1_556 S
Zn107 O110 2.080 . S
Zn107 O113 2.114 1_554 S
Zn107 O116 2.120 . S
Zn107 O118 2.120 . S
Zn107 O119 2.114 . S
Zn107 O122 2.080 . S
C108 O113 1.166 . S
C108 O114 1.182 . S
C109 O115 1.167 . S
C109 O116 1.299 . S
O110 Zn107 2.080 . S
O110 C124 1.305 . S
O111 Zn105 1.920 . S
O111 C124 1.234 . S
C112 O117 1.167 . S
C112 O118 1.299 . S
O113 Zn107 2.114 1_556 S
O113 C108 1.166 . S
O114 Zn106 1.905 . S
O114 C108 1.182 . S
O115 Zn106 1.898 1_554 S
O115 C109 1.167 . S
O116 Zn107 2.120 . S
O116 C109 1.299 . S
O117 Zn105 1.898 . S
O117 C112 1.167 . S
O118 Zn107 2.120 . S
O118 C112 1.299 . S
O119 Zn107 2.114 . S
O119 C121 1.166 . S
O120 Zn105 1.905 . S
O120 C121 1.182 . S
C121 O119 1.166 . S
C121 O120 1.182 . S
O122 Zn107 2.080 . S
O122 C125 1.305 . S
O123 Zn106 1.920 1_554 S
O123 C125 1.234 . S
C124 O110 1.305 . S
C124 O111 1.234 . S
C125 O122 1.305 . S
C125 O123 1.234 . S
Zn126 O132 1.920 . S
Zn126 O138 1.898 . S
Zn126 O141 1.905 . S
Zn127 O135 1.905 . S
Zn127 O136 1.898 . S
Zn127 O144 1.920 . S
Zn128 O131 2.080 . S
Zn128 O134 2.114 . S
Zn128 O137 2.120 . S
Zn128 O139 2.120 . S
Zn128 O140 2.114 . S
Zn128 O143 2.080 . S
C129 O134 1.166 . S
C129 O135 1.182 . S
C130 O136 1.167 . S
C130 O137 1.299 . S
O131 Zn128 2.080 . S
O131 C145 1.305 . S
O132 Zn126 1.920 . S
O132 C145 1.234 . S
C133 O138 1.167 . S
C133 O139 1.299 . S
O134 Zn128 2.114 . S
O134 C129 1.166 . S
O135 Zn127 1.905 . S
O135 C129 1.182 . S
O136 Zn127 1.898 . S
O136 C130 1.167 . S
O137 Zn128 2.120 . S
O137 C130 1.299 . S
O138 Zn126 1.898 . S
O138 C133 1.167 . S
O139 Zn128 2.120 . S
O139 C133 1.299 . S
O140 Zn128 2.114 . S
O140 C142 1.166 . S
O141 Zn126 1.905 . S
O141 C142 1.182 . S
C142 O140 1.166 . S
C142 O141 1.182 . S
O143 Zn128 2.080 . S
O143 C146 1.305 . S
O144 Zn127 1.920 . S
O144 C146 1.234 . S
C145 O131 1.305 . S
C145 O132 1.234 . S
C146 O143 1.305 . S
C146 O144 1.234 . S
Zn147 O153 1.920 . S
Zn147 O159 1.898 . S
Zn147 O162 1.905 . S
Zn148 O156 1.905 . S
Zn148 O157 1.898 . S
Zn148 O165 1.920 . S
Zn149 O152 2.080 . S
Zn149 O155 2.114 . S
Zn149 O158 2.120 . S
Zn149 O160 2.120 . S
Zn149 O161 2.114 . S
Zn149 O164 2.080 . S
C150 O155 1.166 . S
C150 O156 1.182 . S
C151 O157 1.167 . S
C151 O158 1.299 . S
O152 Zn149 2.080 . S
O152 C166 1.305 . S
O153 Zn147 1.920 . S
O153 C166 1.234 . S
C154 O159 1.167 . S
C154 O160 1.299 . S
O155 Zn149 2.114 . S
O155 C150 1.166 . S
O156 Zn148 1.905 . S
O156 C150 1.182 . S
O157 Zn148 1.898 . S
O157 C151 1.167 . S
O158 Zn149 2.120 . S
O158 C151 1.299 . S
O159 Zn147 1.898 . S
O159 C154 1.167 . S
O160 Zn149 2.120 . S
O160 C154 1.299 . S
O161 Zn149 2.114 . S
O161 C163 1.166 . S
O162 Zn147 1.905 . S
O162 C163 1.182 . S
C163 O161 1.166 . S
C163 O162 1.182 . S
O164 Zn149 2.080 . S
O164 C167 1.305 . S
O165 Zn148 1.920 . S
O165 C167 1.234 . S
C166 O152 1.305 . S
C166 O153 1.234 . S
C167 O164 1.305 . S
C167 O165 1.234 . S
Zn168 O174 1.920 . S
Zn168 O180 1.898 . S
Zn168 O183 1.905 . S
Zn169 O177 1.905 . S
Zn169 O178 1.898 1_554 S
Zn169 O186 1.920 1_554 S
Zn170 O173 2.080 . S
Zn170 O176 2.114 1_556 S
Zn170 O179 2.120 . S
Zn170 O181 2.120 . S
Zn170 O182 2.114 . S
Zn170 O185 2.080 . S
C171 O176 1.166 . S
C171 O177 1.182 . S
C172 O178 1.167 . S
C172 O179 1.299 . S
O173 Zn170 2.080 . S
O173 C187 1.305 . S
O174 Zn168 1.920 . S
O174 C187 1.234 . S
C175 O180 1.167 . S
C175 O181 1.299 . S
O176 Zn170 2.114 1_554 S
O176 C171 1.166 . S
O177 Zn169 1.905 . S
O177 C171 1.182 . S
O178 Zn169 1.898 1_556 S
O178 C172 1.167 . S
O179 Zn170 2.120 . S
O179 C172 1.299 . S
O180 Zn168 1.898 . S
O180 C175 1.167 . S
O181 Zn170 2.120 . S
O181 C175 1.299 . S
O182 Zn170 2.114 . S
O182 C184 1.166 . S
O183 Zn168 1.905 . S
O183 C184 1.182 . S
C184 O182 1.166 . S
C184 O183 1.182 . S
O185 Zn170 2.080 . S
O185 C188 1.305 . S
O186 Zn169 1.920 1_556 S
O186 C188 1.234 . S
C187 O173 1.305 . S
C187 O174 1.234 . S
C188 O185 1.305 . S
C188 O186 1.234 . S
Zn189 O195 1.920 . S
Zn189 O201 1.898 . S
Zn189 O204 1.905 . S
Zn190 O198 1.905 . S
Zn190 O199 1.898 . S
Zn190 O207 1.920 . S
Zn191 O194 2.080 . S
Zn191 O197 2.114 . S
Zn191 O200 2.120 . S
Zn191 O202 2.120 . S
Zn191 O203 2.114 . S
Zn191 O206 2.080 . S
C192 O197 1.166 . S
C192 O198 1.182 . S
C193 O199 1.167 . S
C193 O200 1.299 . S
O194 Zn191 2.080 . S
O194 C208 1.305 . S
O195 Zn189 1.920 . S
O195 C208 1.234 . S
C196 O201 1.167 . S
C196 O202 1.299 . S
O197 Zn191 2.114 . S
O197 C192 1.166 . S
O198 Zn190 1.905 . S
O198 C192 1.182 . S
O199 Zn190 1.898 . S
O199 C193 1.167 . S
O200 Zn191 2.120 . S
O200 C193 1.299 . S
O201 Zn189 1.898 . S
O201 C196 1.167 . S
O202 Zn191 2.120 . S
O202 C196 1.299 . S
O203 Zn191 2.114 . S
O203 C205 1.166 . S
O204 Zn189 1.905 . S
O204 C205 1.182 . S
C205 O203 1.166 . S
C205 O204 1.182 . S
O206 Zn191 2.080 . S
O206 C209 1.305 . S
O207 Zn190 1.920 . S
O207 C209 1.234 . S
C208 O194 1.305 . S
C208 O195 1.234 . S
C209 O206 1.305 . S
C209 O207 1.234 . S
Zn210 O216 1.920 . S
Zn210 O222 1.898 . S
Zn210 O225 1.905 . S
Zn211 O219 1.905 . S
Zn211 O220 1.898 . S
Zn211 O228 1.920 . S
Zn212 O215 2.080 . S
Zn212 O218 2.114 . S
Zn212 O221 2.120 . S
Zn212 O223 2.120 . S
Zn212 O224 2.114 . S
Zn212 O227 2.080 . S
C213 O218 1.166 . S
C213 O219 1.182 . S
C214 O220 1.167 . S
C214 O221 1.299 . S
O215 Zn212 2.080 . S
O215 C229 1.305 . S
O216 Zn210 1.920 . S
O216 C229 1.234 . S
C217 O222 1.167 . S
C217 O223 1.299 . S
O218 Zn212 2.114 . S
O218 C213 1.166 . S
O219 Zn211 1.905 . S
O219 C213 1.182 . S
O220 Zn211 1.898 . S
O220 C214 1.167 . S
O221 Zn212 2.120 . S
O221 C214 1.299 . S
O222 Zn210 1.898 . S
O222 C217 1.167 . S
O223 Zn212 2.120 . S
O223 C217 1.299 . S
O224 Zn212 2.114 . S
O224 C226 1.166 . S
O225 Zn210 1.905 . S
O225 C226 1.182 . S
C226 O224 1.166 . S
C226 O225 1.182 . S
O227 Zn212 2.080 . S
O227 C230 1.305 . S
O228 Zn211 1.920 . S
O228 C230 1.234 . S
C229 O215 1.305 . S
C229 O216 1.234 . S
C230 O227 1.305 . S
C230 O228 1.234 . S
Zn231 O237 1.920 1_556 S
Zn231 O243 1.898 1_556 S
Zn231 O246 1.905 . S
Zn232 O240 1.905 . S
Zn232 O241 1.898 . S
Zn232 O249 1.920 . S
Zn233 O236 2.080 . S
Zn233 O239 2.114 . S
Zn233 O242 2.120 . S
Zn233 O244 2.120 . S
Zn233 O245 2.114 1_554 S
Zn233 O248 2.080 . S
C234 O239 1.166 . S
C234 O240 1.182 . S
C235 O241 1.167 . S
C235 O242 1.299 . S
O236 Zn233 2.080 . S
O236 C250 1.305 . S
O237 Zn231 1.920 1_554 S
O237 C250 1.234 . S
C238 O243 1.167 . S
C238 O244 1.299 . S
O239 Zn233 2.114 . S
O239 C234 1.166 . S
O240 Zn232 1.905 . S
O240 C234 1.182 . S
O241 Zn232 1.898 . S
O241 C235 1.167 . S
O242 Zn233 2.120 . S
O242 C235 1.299 . S
O243 Zn231 1.898 1_554 S
O243 C238 1.167 . S
O244 Zn233 2.120 . S
O244 C238 1.299 . S
O245 Zn233 2.114 1_556 S
O245 C247 1.166 . S
O246 Zn231 1.905 . S
O246 C247 1.182 . S
C247 O245 1.166 . S
C247 O246 1.182 . S
O248 Zn233 2.080 . S
O248 C251 1.305 . S
O249 Zn232 1.920 . S
O249 C251 1.234 . S
C250 O236 1.305 . S
C250 O237 1.234 . S
C251 O248 1.305 . S
C251 O249 1.234 . S
Zn252 O258 1.920 1_556 S
Zn252 O264 1.898 1_556 S
Zn252 O267 1.905 . S
Zn253 O261 1.905 . S
Zn253 O262 1.898 . S
Zn253 O270 1.920 . S
Zn254 O257 2.080 . S
Zn254 O260 2.114 . S
Zn254 O263 2.120 . S
Zn254 O265 2.120 . S
Zn254 O266 2.114 1_554 S
Zn254 O269 2.080 . S
C255 O260 1.166 . S
C255 O261 1.182 . S
C256 O262 1.167 . S
C256 O263 1.299 . S
O257 Zn254 2.080 . S
O257 C271 1.305 . S
O258 Zn252 1.920 1_554 S
O258 C271 1.234 . S
C259 O264 1.167 . S
C259 O265 1.299 . S
O260 Zn254 2.114 . S
O260 C255 1.166 . S
O261 Zn253 1.905 . S
O261 C255 1.182 . S
O262 Zn253 1.898 . S
O262 C256 1.167 . S
O263 Zn254 2.120 . S
O263 C256 1.299 . S
O264 Zn252 1.898 1_554 S
O264 C259 1.167 . S
O265 Zn254 2.120 . S
O265 C259 1.299 . S
O266 Zn254 2.114 1_556 S
O266 C268 1.166 . S
O267 Zn252 1.905 . S
O267 C268 1.182 . S
C268 O266 1.166 . S
C268 O267 1.182 . S
O269 Zn254 2.080 . S
O269 C272 1.305 . S
O270 Zn253 1.920 . S
O270 C272 1.234 . S
C271 O257 1.305 . S
C271 O258 1.234 . S
C272 O269 1.305 . S
C272 O270 1.234 . S
Zn273 O279 1.920 . S
Zn273 O285 1.898 . S
Zn273 O288 1.905 . S
Zn274 O282 1.905 1_554 S
Zn274 O283 1.898 1_554 S
Zn274 O291 1.920 . S
Zn275 O278 2.080 . S
Zn275 O281 2.114 . S
Zn275 O284 2.120 . S
Zn275 O286 2.120 . S
Zn275 O287 2.114 . S
Zn275 O290 2.080 1_556 S
C276 O281 1.166 . S
C276 O282 1.182 . S
C277 O283 1.167 . S
C277 O284 1.299 . S
O278 Zn275 2.080 . S
O278 C292 1.305 . S
O279 Zn273 1.920 . S
O279 C292 1.234 . S
C280 O285 1.167 . S
C280 O286 1.299 . S
O281 Zn275 2.114 . S
O281 C276 1.166 . S
O282 Zn274 1.905 1_556 S
O282 C276 1.182 . S
O283 Zn274 1.898 1_556 S
O283 C277 1.167 . S
O284 Zn275 2.120 . S
O284 C277 1.299 . S
O285 Zn273 1.898 . S
O285 C280 1.167 . S
O286 Zn275 2.120 . S
O286 C280 1.299 . S
O287 Zn275 2.114 . S
O287 C289 1.166 . S
O288 Zn273 1.905 . S
O288 C289 1.182 . S
C289 O287 1.166 . S
C289 O288 1.182 . S
O290 Zn275 2.080 1_554 S
O290 C293 1.305 . S
O291 Zn274 1.920 . S
O291 C293 1.234 . S
C292 O278 1.305 . S
C292 O279 1.234 . S
C293 O290 1.305 . S
C293 O291 1.234 . S
Zn294 O300 1.920 . S
Zn294 O306 1.898 . S
Zn294 O309 1.905 . S
Zn295 O303 1.905 . S
Zn295 O304 1.898 . S
Zn295 O312 1.920 . S
Zn296 O299 2.080 . S
Zn296 O302 2.114 . S
Zn296 O305 2.120 . S
Zn296 O307 2.120 . S
Zn296 O308 2.114 . S
Zn296 O311 2.080 . S
C297 O302 1.166 . S
C297 O303 1.182 . S
C298 O304 1.167 . S
C298 O305 1.299 . S
O299 Zn296 2.080 . S
O299 C313 1.305 . S
O300 Zn294 1.920 . S
O300 C313 1.234 . S
C301 O306 1.167 . S
C301 O307 1.299 . S
O302 Zn296 2.114 . S
O302 C297 1.166 . S
O303 Zn295 1.905 . S
O303 C297 1.182 . S
O304 Zn295 1.898 . S
O304 C298 1.167 . S
O305 Zn296 2.120 . S
O305 C298 1.299 . S
O306 Zn294 1.898 . S
O306 C301 1.167 . S
O307 Zn296 2.120 . S
O307 C301 1.299 . S
O308 Zn296 2.114 . S
O308 C310 1.166 . S
O309 Zn294 1.905 . S
O309 C310 1.182 . S
C310 O308 1.166 . S
C310 O309 1.182 . S
O311 Zn296 2.080 . S
O311 C314 1.305 . S
O312 Zn295 1.920 . S
O312 C314 1.234 . S
C313 O299 1.305 . S
C313 O300 1.234 . S
C314 O311 1.305 . S
C314 O312 1.234 . S
Zn315 O321 1.920 . S
Zn315 O327 1.898 . S
Zn315 O330 1.905 . S
Zn316 O324 1.905 . S
Zn316 O325 1.898 . S
Zn316 O333 1.920 . S
Zn317 O320 2.080 . S
Zn317 O323 2.114 . S
Zn317 O326 2.120 . S
Zn317 O328 2.120 . S
Zn317 O329 2.114 . S
Zn317 O332 2.080 . S
C318 O323 1.166 . S
C318 O324 1.182 . S
C319 O325 1.167 . S
C319 O326 1.299 . S
O320 Zn317 2.080 . S
O320 C334 1.305 . S
O321 Zn315 1.920 . S
O321 C334 1.234 . S
C322 O327 1.167 . S
C322 O328 1.299 . S
O323 Zn317 2.114 . S
O323 C318 1.166 . S
O324 Zn316 1.905 . S
O324 C318 1.182 . S
O325 Zn316 1.898 . S
O325 C319 1.167 . S
O326 Zn317 2.120 . S
O326 C319 1.299 . S
O327 Zn315 1.898 . S
O327 C322 1.167 . S
O328 Zn317 2.120 . S
O328 C322 1.299 . S
O329 Zn317 2.114 . S
O329 C331 1.166 . S
O330 Zn315 1.905 . S
O330 C331 1.182 . S
C331 O329 1.166 . S
C331 O330 1.182 . S
O332 Zn317 2.080 . S
O332 C335 1.305 . S
O333 Zn316 1.920 . S
O333 C335 1.234 . S
C334 O320 1.305 . S
C334 O321 1.234 . S
C335 O332 1.305 . S
C335 O333 1.234 . S
C336 C337 1.369 . S
C336 C338 1.419 . S
C336 H340 0.930 . S
C337 C336 1.369 . S
C337 C346 1.429 . S
C338 C336 1.419 . S
C338 C339 1.363 . S
C338 H341 0.929 . S
C339 C338 1.363 . S
C339 C345 1.428 . S
H340 C336 0.930 . S
H341 C338 0.929 . S
S342 N343 1.613 . S
S342 N344 1.610 . S
N343 S342 1.613 . S
N343 C346 1.350 . S
N344 S342 1.610 . S
N344 C345 1.351 . S
C345 C339 1.428 . S
C345 N344 1.351 . S
C345 C346 1.434 . S
C346 C337 1.429 . S
C346 N343 1.350 . S
C346 C345 1.434 . S
C347 C348 1.369 . S
C347 C349 1.419 . S
C347 H351 0.930 . S
C348 C347 1.369 . S
C348 C357 1.429 . S
C349 C347 1.419 . S
C349 C350 1.363 . S
C349 H352 0.929 . S
C350 C349 1.363 . S
C350 C356 1.428 . S
H351 C347 0.930 . S
H352 C349 0.929 . S
S353 N354 1.613 . S
S353 N355 1.610 . S
N354 S353 1.613 . S
N354 C357 1.350 . S
N355 S353 1.610 . S
N355 C356 1.351 . S
C356 C350 1.428 . S
C356 N355 1.351 . S
C356 C357 1.434 . S
C357 C348 1.429 . S
C357 N354 1.350 . S
C357 C356 1.434 . S
C358 C359 1.369 . S
C358 C360 1.419 . S
C358 H362 0.930 . S
C359 C358 1.369 . S
C359 C368 1.429 . S
C360 C358 1.419 . S
C360 C361 1.363 . S
C360 H363 0.929 . S
C361 C360 1.363 . S
C361 C367 1.428 . S
H362 C358 0.930 . S
H363 C360 0.929 . S
S364 N365 1.613 . S
S364 N366 1.610 . S
N365 S364 1.613 . S
N365 C368 1.350 . S
N366 S364 1.610 . S
N366 C367 1.351 . S
C367 C361 1.428 . S
C367 N366 1.351 . S
C367 C368 1.434 . S
C368 C359 1.429 . S
C368 N365 1.350 . S
C368 C367 1.434 . S
C369 C370 1.369 . S
C369 C371 1.419 . S
C369 H373 0.930 . S
C370 C369 1.369 . S
C370 C379 1.429 . S
C371 C369 1.419 . S
C371 C372 1.363 . S
C371 H374 0.929 . S
C372 C371 1.363 . S
C372 C378 1.428 . S
H373 C369 0.930 . S
H374 C371 0.929 . S
S375 N376 1.613 . S
S375 N377 1.610 . S
N376 S375 1.613 . S
N376 C379 1.350 . S
N377 S375 1.610 . S
N377 C378 1.351 . S
C378 C372 1.428 . S
C378 N377 1.351 . S
C378 C379 1.434 . S
C379 C370 1.429 . S
C379 N376 1.350 . S
C379 C378 1.434 . S
C380 C381 1.369 . S
C380 C382 1.419 . S
C380 H384 0.930 . S
C381 C380 1.369 . S
C381 C390 1.429 . S
C382 C380 1.419 . S
C382 C383 1.363 . S
C382 H385 0.929 . S
C383 C382 1.363 . S
C383 C389 1.428 . S
H384 C380 0.930 . S
H385 C382 0.929 . S
S386 N387 1.613 . S
S386 N388 1.610 . S
N387 S386 1.613 . S
N387 C390 1.350 . S
N388 S386 1.610 . S
N388 C389 1.351 . S
C389 C383 1.428 . S
C389 N388 1.351 . S
C389 C390 1.434 . S
C390 C381 1.429 . S
C390 N387 1.350 . S
C390 C389 1.434 . S
C391 C392 1.369 . S
C391 C393 1.419 . S
C391 H395 0.930 . S
C392 C391 1.369 . S
C392 C401 1.429 . S
C393 C391 1.419 . S
C393 C394 1.363 . S
C393 H396 0.929 . S
C394 C393 1.363 . S
C394 C400 1.428 . S
H395 C391 0.930 . S
H396 C393 0.929 . S
S397 N398 1.613 . S
S397 N399 1.610 . S
N398 S397 1.613 . S
N398 C401 1.350 . S
N399 S397 1.610 . S
N399 C400 1.351 . S
C400 C394 1.428 . S
C400 N399 1.351 . S
C400 C401 1.434 . S
C401 C392 1.429 . S
C401 N398 1.350 . S
C401 C400 1.434 . S
C402 C403 1.369 . S
C402 C404 1.419 . S
C402 H406 0.930 . S
C403 C402 1.369 . S
C403 C412 1.429 . S
C404 C402 1.419 . S
C404 C405 1.363 1_556 S
C404 H407 0.929 . S
C405 C404 1.363 1_554 S
C405 C411 1.428 1_554 S
H406 C402 0.930 . S
H407 C404 0.929 . S
S408 N409 1.613 . S
S408 N410 1.610 1_556 S
N409 S408 1.613 . S
N409 C412 1.350 . S
N410 S408 1.610 1_554 S
N410 C411 1.351 1_554 S
C411 C405 1.428 1_556 S
C411 N410 1.351 1_556 S
C411 C412 1.434 . S
C412 C403 1.429 . S
C412 N409 1.350 . S
C412 C411 1.434 . S
C413 C414 1.369 . S
C413 C415 1.419 . S
C413 H417 0.930 . S
C414 C413 1.369 . S
C414 C423 1.429 . S
C415 C413 1.419 . S
C415 C416 1.363 . S
C415 H418 0.929 . S
C416 C415 1.363 . S
C416 C422 1.428 . S
H417 C413 0.930 . S
H418 C415 0.929 . S
S419 N420 1.613 1_554 S
S419 N421 1.610 . S
N420 S419 1.613 1_556 S
N420 C423 1.350 1_556 S
N421 S419 1.610 . S
N421 C422 1.351 . S
C422 C416 1.428 . S
C422 N421 1.351 . S
C422 C423 1.434 . S
C423 C414 1.429 . S
C423 N420 1.350 1_554 S
C423 C422 1.434 . S
C424 C425 1.369 . S
C424 C426 1.419 . S
C424 H428 0.930 . S
C425 C424 1.369 . S
C425 C434 1.429 . S
C426 C424 1.419 . S
C426 C427 1.363 . S
C426 H429 0.929 . S
C427 C426 1.363 . S
C427 C433 1.428 . S
H428 C424 0.930 . S
H429 C426 0.929 . S
S430 N431 1.613 . S
S430 N432 1.610 . S
N431 S430 1.613 . S
N431 C434 1.350 . S
N432 S430 1.610 . S
N432 C433 1.351 . S
C433 C427 1.428 . S
C433 N432 1.351 . S
C433 C434 1.434 . S
C434 C425 1.429 . S
C434 N431 1.350 . S
C434 C433 1.434 . S
C435 C436 1.369 . S
C435 C437 1.419 . S
C435 H439 0.930 . S
C436 C435 1.369 . S
C436 C445 1.429 . S
C437 C435 1.419 . S
C437 C438 1.363 . S
C437 H440 0.929 . S
C438 C437 1.363 . S
C438 C444 1.428 . S
H439 C435 0.930 . S
H440 C437 0.929 . S
S441 N442 1.613 . S
S441 N443 1.610 . S
N442 S441 1.613 . S
N442 C445 1.350 . S
N443 S441 1.610 . S
N443 C444 1.351 . S
C444 C438 1.428 . S
C444 N443 1.351 . S
C444 C445 1.434 . S
C445 C436 1.429 . S
C445 N442 1.350 . S
C445 C444 1.434 . S
C446 C447 1.369 . S
C446 C448 1.419 . S
C446 H450 0.930 . S
C447 C446 1.369 . S
C447 C456 1.429 . S
C448 C446 1.419 . S
C448 C449 1.363 . S
C448 H451 0.929 . S
C449 C448 1.363 . S
C449 C455 1.428 . S
H450 C446 0.930 . S
H451 C448 0.929 . S
S452 N453 1.613 . S
S452 N454 1.610 . S
N453 S452 1.613 . S
N453 C456 1.350 . S
N454 S452 1.610 . S
N454 C455 1.351 . S
C455 C449 1.428 . S
C455 N454 1.351 . S
C455 C456 1.434 . S
C456 C447 1.429 . S
C456 N453 1.350 . S
C456 C455 1.434 . S
C457 C458 1.369 . S
C457 C459 1.419 . S
C457 H461 0.930 . S
C458 C457 1.369 . S
C458 C467 1.429 . S
C459 C457 1.419 . S
C459 C460 1.363 . S
C459 H462 0.929 . S
C460 C459 1.363 . S
C460 C466 1.428 . S
H461 C457 0.930 . S
H462 C459 0.929 . S
S463 N464 1.613 . S
S463 N465 1.610 . S
N464 S463 1.613 . S
N464 C467 1.350 . S
N465 S463 1.610 . S
N465 C466 1.351 . S
C466 C460 1.428 . S
C466 N465 1.351 . S
C466 C467 1.434 . S
C467 C458 1.429 . S
C467 N464 1.350 . S
C467 C466 1.434 . S
C468 C469 1.369 . S
C468 C470 1.419 . S
C468 H472 0.930 . S
C469 C468 1.369 . S
C469 C478 1.429 . S
C470 C468 1.419 . S
C470 C471 1.363 . S
C470 H473 0.929 . S
C471 C470 1.363 . S
C471 C477 1.428 . S
H472 C468 0.930 . S
H473 C470 0.929 . S
S474 N475 1.613 . S
S474 N476 1.610 . S
N475 S474 1.613 . S
N475 C478 1.350 . S
N476 S474 1.610 . S
N476 C477 1.351 . S
C477 C471 1.428 . S
C477 N476 1.351 . S
C477 C478 1.434 . S
C478 C469 1.429 . S
C478 N475 1.350 . S
C478 C477 1.434 . S
C479 C480 1.369 . S
C479 C481 1.419 . S
C479 H483 0.930 . S
C480 C479 1.369 . S
C480 C489 1.429 . S
C481 C479 1.419 . S
C481 C482 1.363 . S
C481 H484 0.929 . S
C482 C481 1.363 . S
C482 C488 1.428 . S
H483 C479 0.930 . S
H484 C481 0.929 . S
S485 N486 1.613 . S
S485 N487 1.610 . S
N486 S485 1.613 . S
N486 C489 1.350 . S
N487 S485 1.610 . S
N487 C488 1.351 . S
C488 C482 1.428 . S
C488 N487 1.351 . S
C488 C489 1.434 . S
C489 C480 1.429 . S
C489 N486 1.350 . S
C489 C488 1.434 . S
C490 C491 1.369 . S
C490 C492 1.419 . S
C490 H494 0.930 . S
C491 C490 1.369 . S
C491 C500 1.429 . S
C492 C490 1.419 . S
C492 C493 1.365 . S
C492 H495 0.929 . S
C493 C492 1.365 . S
C493 C499 1.430 . S
H494 C490 0.930 . S
H495 C492 0.929 . S
S496 N497 1.613 . S
S496 N498 1.610 . S
N497 S496 1.613 . S
N497 C500 1.350 . S
N498 S496 1.610 . S
N498 C499 1.351 . S
C499 C493 1.430 . S
C499 N498 1.351 . S
C499 C500 1.434 . S
C500 C491 1.429 . S
C500 N497 1.350 . S
C500 C499 1.434 . S
C501 C502 1.369 1_556 S
C501 C503 1.419 . S
C501 H505 0.930 . S
C502 C501 1.369 1_554 S
C502 C511 1.429 1_554 S
C503 C501 1.419 . S
C503 C504 1.363 . S
C503 H506 0.929 . S
C504 C503 1.363 . S
C504 C510 1.428 . S
H505 C501 0.930 . S
H506 C503 0.929 . S
S507 N508 1.613 . S
S507 N509 1.610 . S
N508 S507 1.613 . S
N508 C511 1.350 . S
N509 S507 1.610 . S
N509 C510 1.351 . S
C510 C504 1.428 . S
C510 N509 1.351 . S
C510 C511 1.434 . S
C511 C502 1.429 1_556 S
C511 N508 1.350 . S
C511 C510 1.434 . S
C512 C513 1.369 . S
C512 C514 1.419 . S
C512 H516 0.930 1_554 S
C513 C512 1.369 . S
C513 C522 1.429 . S
C514 C512 1.419 . S
C514 C515 1.363 . S
C514 H517 0.929 1_554 S
C515 C514 1.363 . S
C515 C521 1.428 . S
H516 C512 0.930 1_556 S
H517 C514 0.929 1_556 S
S518 N519 1.613 . S
S518 N520 1.610 . S
N519 S518 1.613 . S
N519 C522 1.350 . S
N520 S518 1.610 . S
N520 C521 1.351 . S
C521 C515 1.428 . S
C521 N520 1.351 . S
C521 C522 1.434 . S
C522 C513 1.429 . S
C522 N519 1.350 . S
C522 C521 1.434 . S
C523 C524 1.369 . S
C523 C525 1.419 . S
C523 H527 0.930 . S
C524 C523 1.369 . S
C524 C533 1.429 . S
C525 C523 1.419 . S
C525 C526 1.363 . S
C525 H528 0.929 . S
C526 C525 1.363 . S
C526 C532 1.428 . S
H527 C523 0.930 . S
H528 C525 0.929 . S
S529 N530 1.613 . S
S529 N531 1.610 . S
N530 S529 1.613 . S
N530 C533 1.350 . S
N531 S529 1.610 . S
N531 C532 1.351 . S
C532 C526 1.428 . S
C532 N531 1.351 . S
C532 C533 1.434 . S
C533 C524 1.429 . S
C533 N530 1.350 . S
C533 C532 1.434 . S
C534 C535 1.369 . S
C534 C536 1.419 . S
C534 H538 0.930 . S
C535 C534 1.369 . S
C535 C544 1.429 . S
C536 C534 1.419 . S
C536 C537 1.363 . S
C536 H539 0.929 . S
C537 C536 1.363 . S
C537 C543 1.428 . S
H538 C534 0.930 . S
H539 C536 0.929 . S
S540 N541 1.613 . S
S540 N542 1.610 . S
N541 S540 1.613 . S
N541 C544 1.350 . S
N542 S540 1.610 . S
N542 C543 1.351 . S
C543 C537 1.428 . S
C543 N542 1.351 . S
C543 C544 1.434 . S
C544 C535 1.429 . S
C544 N541 1.350 . S
C544 C543 1.434 . S
C545 C546 1.369 . S
C545 C547 1.419 1_655 S
C545 H549 0.930 . S
C546 C545 1.369 . S
C546 C555 1.429 . S
C547 C545 1.419 1_455 S
C547 C548 1.363 . S
C547 H550 0.929 . S
C548 C547 1.363 . S
C548 C554 1.428 . S
H549 C545 0.930 . S
H550 C547 0.929 . S
S551 N552 1.605 1_455 S
S551 N553 1.619 . S
N552 S551 1.605 1_655 S
N552 C555 1.350 . S
N553 S551 1.619 . S
N553 C554 1.351 . S
C554 C548 1.428 . S
C554 N553 1.351 . S
C554 C555 1.434 1_455 S
C555 C546 1.429 . S
C555 N552 1.350 . S
C555 C554 1.434 1_655 S
C556 C557 1.369 . S
C556 C558 1.419 . S
C556 H560 0.930 . S
C557 C556 1.369 . S
C557 C566 1.429 . S
C558 C556 1.419 . S
C558 C559 1.363 . S
C558 H561 0.929 . S
C559 C558 1.363 . S
C559 C565 1.428 . S
H560 C556 0.930 . S
H561 C558 0.929 . S
S562 N563 1.613 . S
S562 N564 1.610 . S
N563 S562 1.613 . S
N563 C566 1.350 1_554 S
N564 S562 1.610 . S
N564 C565 1.351 1_554 S
C565 C559 1.428 . S
C565 N564 1.351 1_556 S
C565 C566 1.434 . S
C566 C557 1.429 . S
C566 N563 1.350 1_556 S
C566 C565 1.434 . S
C567 C568 1.369 . S
C567 C569 1.419 1_455 S
C567 H571 0.930 . S
C568 C567 1.369 . S
C568 C577 1.429 . S
C569 C567 1.419 1_655 S
C569 C570 1.363 . S
C569 H572 0.929 . S
C570 C569 1.363 . S
C570 C576 1.428 . S
H571 C567 0.930 . S
H572 C569 0.929 . S
S573 N574 1.609 1_655 S
S573 N575 1.615 . S
N574 S573 1.609 1_455 S
N574 C577 1.350 . S
N575 S573 1.615 . S
N575 C576 1.351 . S
C576 C570 1.428 . S
C576 N575 1.351 . S
C576 C577 1.434 1_655 S
C577 C568 1.429 . S
C577 N574 1.350 . S
C577 C576 1.434 1_455 S
C578 C579 1.369 . S
C578 C580 1.419 . S
C578 H582 0.930 . S
C579 C578 1.369 . S
C579 C588 1.429 . S
C580 C578 1.419 . S
C580 C581 1.363 . S
C580 H583 0.929 . S
C581 C580 1.363 . S
C581 C587 1.428 . S
H582 C578 0.930 . S
H583 C580 0.929 . S
S584 N585 1.613 . S
S584 N586 1.610 . S
N585 S584 1.613 . S
N585 C588 1.350 . S
N586 S584 1.610 . S
N586 C587 1.351 . S
C587 C581 1.428 . S
C587 N586 1.351 . S
C587 C588 1.434 . S
C588 C579 1.429 . S
C588 N585 1.350 . S
C588 C587 1.434 . S
C589 C590 1.369 . S
C589 C591 1.419 . S
C589 H593 0.930 . S
C590 C589 1.369 . S
C590 C599 1.429 . S
C591 C589 1.419 . S
C591 C592 1.363 . S
C591 H594 0.929 . S
C592 C591 1.363 . S
C592 C598 1.428 . S
H593 C589 0.930 . S
H594 C591 0.929 . S
S595 N596 1.613 . S
S595 N597 1.610 . S
N596 S595 1.613 . S
N596 C599 1.350 . S
N597 S595 1.610 . S
N597 C598 1.351 . S
C598 C592 1.428 . S
C598 N597 1.351 . S
C598 C599 1.434 . S
C599 C590 1.429 . S
C599 N596 1.350 . S
C599 C598 1.434 . S
C600 C601 1.369 . S
C600 C602 1.419 . S
C600 H604 0.930 . S
C601 C600 1.369 . S
C601 C610 1.429 . S
C602 C600 1.419 . S
C602 C603 1.363 . S
C602 H605 0.929 . S
C603 C602 1.363 . S
C603 C609 1.428 . S
H604 C600 0.930 . S
H605 C602 0.929 . S
S606 N607 1.613 . S
S606 N608 1.610 . S
N607 S606 1.613 . S
N607 C610 1.350 1_554 S
N608 S606 1.610 . S
N608 C609 1.351 1_554 S
C609 C603 1.428 . S
C609 N608 1.351 1_556 S
C609 C610 1.434 . S
C610 C601 1.429 . S
C610 N607 1.350 1_556 S
C610 C609 1.434 . S
C611 C612 1.369 . S
C611 C613 1.419 . S
C611 H615 0.930 . S
C612 C611 1.369 . S
C612 C621 1.429 . S
C613 C611 1.419 . S
C613 C614 1.363 . S
C613 H616 0.929 . S
C614 C613 1.363 . S
C614 C620 1.428 . S
H615 C611 0.930 . S
H616 C613 0.929 . S
S617 N618 1.613 . S
S617 N619 1.610 . S
N618 S617 1.613 . S
N618 C621 1.350 . S
N619 S617 1.610 . S
N619 C620 1.351 . S
C620 C614 1.428 . S
C620 N619 1.351 . S
C620 C621 1.434 . S
C621 C612 1.429 . S
C621 N618 1.350 . S
C621 C620 1.434 . S
C622 C623 1.369 . S
C622 C624 1.419 . S
C622 H626 0.930 . S
C623 C622 1.369 . S
C623 C632 1.429 . S
C624 C622 1.419 . S
C624 C625 1.363 . S
C624 H627 0.929 . S
C625 C624 1.363 . S
C625 C631 1.428 . S
H626 C622 0.930 . S
H627 C624 0.929 . S
S628 N629 1.613 . S
S628 N630 1.610 . S
N629 S628 1.613 . S
N629 C632 1.350 . S
N630 S628 1.610 . S
N630 C631 1.351 . S
C631 C625 1.428 . S
C631 N630 1.351 . S
C631 C632 1.434 . S
C632 C623 1.429 . S
C632 N629 1.350 . S
C632 C631 1.434 . S
C633 C634 1.369 . S
C633 C635 1.419 . S
C633 H637 0.930 . S
C634 C633 1.369 . S
C634 C643 1.429 . S
C635 C633 1.419 . S
C635 C636 1.363 . S
C635 H638 0.929 . S
C636 C635 1.363 . S
C636 C642 1.428 . S
H637 C633 0.930 . S
H638 C635 0.929 . S
S639 N640 1.613 . S
S639 N641 1.610 . S
N640 S639 1.613 . S
N640 C643 1.350 . S
N641 S639 1.610 . S
N641 C642 1.351 . S
C642 C636 1.428 . S
C642 N641 1.351 . S
C642 C643 1.434 . S
C643 C634 1.429 . S
C643 N640 1.350 . S
C643 C642 1.434 . S
C644 C645 1.369 . S
C644 C646 1.419 1_655 S
C644 H648 0.930 . S
C645 C644 1.369 . S
C645 C654 1.429 . S
C646 C644 1.419 1_455 S
C646 C647 1.363 . S
C646 H649 0.929 . S
C647 C646 1.363 . S
C647 C653 1.428 . S
H648 C644 0.930 . S
H649 C646 0.929 . S
S650 N651 1.612 1_454 S
S650 N652 1.611 1_554 S
N651 S650 1.612 1_656 S
N651 C654 1.350 . S
N652 S650 1.611 1_556 S
N652 C653 1.351 . S
C653 C647 1.428 . S
C653 N652 1.351 . S
C653 C654 1.434 1_455 S
C654 C645 1.429 . S
C654 N651 1.350 . S
C654 C653 1.434 1_655 S
C655 C656 1.369 . S
C655 C657 1.419 . S
C655 H659 0.930 . S
C656 C655 1.369 . S
C656 C665 1.429 . S
C657 C655 1.419 . S
C657 C658 1.363 . S
C657 H660 0.929 . S
C658 C657 1.363 . S
C658 C664 1.428 . S
H659 C655 0.930 . S
H660 C657 0.929 . S
S661 N662 1.613 . S
S661 N663 1.610 . S
N662 S661 1.613 . S
N662 C665 1.350 . S
N663 S661 1.610 . S
N663 C664 1.351 . S
C664 C658 1.428 . S
C664 N663 1.351 . S
C664 C665 1.434 . S
C665 C656 1.429 . S
C665 N662 1.350 . S
C665 C664 1.434 . S
C666 C667 1.369 . S
C666 C668 1.419 . S
C666 H670 0.930 . S
C667 C666 1.369 . S
C667 C676 1.429 . S
C668 C666 1.419 . S
C668 C669 1.363 . S
C668 H671 0.929 . S
C669 C668 1.363 . S
C669 C675 1.428 . S
H670 C666 0.930 . S
H671 C668 0.929 . S
S672 N673 1.613 . S
S672 N674 1.610 . S
N673 S672 1.613 . S
N673 C676 1.350 . S
N674 S672 1.610 . S
N674 C675 1.351 . S
C675 C669 1.428 . S
C675 N674 1.351 . S
C675 C676 1.434 . S
C676 C667 1.429 . S
C676 N673 1.350 . S
C676 C675 1.434 . S
C677 C678 1.369 . S
C677 C679 1.419 1_455 S
C677 H681 0.930 . S
C678 C677 1.369 . S
C678 C687 1.429 . S
C679 C677 1.419 1_655 S
C679 C680 1.363 . S
C679 H682 0.929 . S
C680 C679 1.363 . S
C680 C686 1.428 . S
H681 C677 0.930 . S
H682 C679 0.929 . S
S683 N684 1.619 . S
S683 N685 1.604 1_455 S
N684 S683 1.619 . S
N684 C687 1.350 . S
N685 S683 1.604 1_655 S
N685 C686 1.351 . S
C686 C680 1.428 . S
C686 N685 1.351 . S
C686 C687 1.434 1_655 S
C687 C678 1.429 . S
C687 N684 1.350 . S
C687 C686 1.434 1_455 S
C688 C689 1.369 1_556 S
C688 C690 1.419 . S
C688 H692 0.930 . S
C689 C688 1.369 1_554 S
C689 C698 1.429 . S
C690 C688 1.419 . S
C690 C691 1.363 . S
C690 H693 0.929 . S
C691 C690 1.363 . S
C691 C697 1.428 1_556 S
H692 C688 0.930 . S
H693 C690 0.929 . S
S694 N695 1.613 . S
S694 N696 1.610 . S
N695 S694 1.613 . S
N695 C698 1.350 . S
N696 S694 1.610 . S
N696 C697 1.351 . S
C697 C691 1.428 1_554 S
C697 N696 1.351 . S
C697 C698 1.434 . S
C698 C689 1.429 . S
C698 N695 1.350 . S
C698 C697 1.434 . S
C699 C700 1.369 . S
C699 C701 1.419 . S
C699 H703 0.930 . S
C700 C699 1.369 . S
C700 C709 1.429 . S
C701 C699 1.419 . S
C701 C702 1.363 . S
C701 H704 0.929 . S
C702 C701 1.363 . S
C702 C708 1.428 . S
H703 C699 0.930 . S
H704 C701 0.929 . S
S705 N706 1.613 . S
S705 N707 1.610 . S
N706 S705 1.613 . S
N706 C709 1.350 . S
N707 S705 1.610 . S
N707 C708 1.351 . S
C708 C702 1.428 . S
C708 N707 1.351 . S
C708 C709 1.434 . S
C709 C700 1.429 . S
C709 N706 1.350 . S
C709 C708 1.434 . S
C710 C711 1.369 . S
C710 C712 1.419 . S
C710 H714 0.930 . S
C711 C710 1.369 . S
C711 C720 1.429 . S
C712 C710 1.419 . S
C712 C713 1.363 . S
C712 H715 0.929 . S
C713 C712 1.363 . S
C713 C719 1.428 . S
H714 C710 0.930 . S
H715 C712 0.929 . S
S716 N717 1.613 . S
S716 N718 1.610 . S
N717 S716 1.613 . S
N717 C720 1.350 . S
N718 S716 1.610 . S
N718 C719 1.351 . S
C719 C713 1.428 . S
C719 N718 1.351 . S
C719 C720 1.434 . S
C720 C711 1.429 . S
C720 N717 1.350 . S
C720 C719 1.434 . S
C721 C722 1.369 . S
C721 C723 1.419 . S
C721 H725 0.930 . S
C722 C721 1.369 . S
C722 C731 1.429 . S
C723 C721 1.419 . S
C723 C724 1.363 . S
C723 H726 0.929 . S
C724 C723 1.363 . S
C724 C730 1.428 . S
H725 C721 0.930 . S
H726 C723 0.929 . S
S727 N728 1.613 . S
S727 N729 1.610 . S
N728 S727 1.613 . S
N728 C731 1.350 . S
N729 S727 1.610 . S
N729 C730 1.351 . S
C730 C724 1.428 . S
C730 N729 1.351 . S
C730 C731 1.434 . S
C731 C722 1.429 . S
C731 N728 1.350 . S
C731 C730 1.434 . S
C732 C733 1.369 . S
C732 C734 1.419 . S
C732 H736 0.930 . S
C733 C732 1.369 . S
C733 C742 1.429 1_554 S
C734 C732 1.419 . S
C734 C735 1.363 1_554 S
C734 H737 0.929 . S
C735 C734 1.363 1_556 S
C735 C741 1.428 . S
H736 C732 0.930 . S
H737 C734 0.929 . S
S738 N739 1.613 . S
S738 N740 1.610 . S
N739 S738 1.613 . S
N739 C742 1.350 . S
N740 S738 1.610 . S
N740 C741 1.351 . S
C741 C735 1.428 . S
C741 N740 1.351 . S
C741 C742 1.434 . S
C742 C733 1.429 1_556 S
C742 N739 1.350 . S
C742 C741 1.434 . S
C743 C744 1.369 . S
C743 C745 1.419 . S
C743 H747 0.930 . S
C744 C743 1.369 . S
C744 C753 1.429 . S
C745 C743 1.419 . S
C745 C746 1.363 . S
C745 H748 0.929 . S
C746 C745 1.363 . S
C746 C752 1.428 . S
H747 C743 0.930 . S
H748 C745 0.929 . S
S749 N750 1.613 . S
S749 N751 1.610 . S
N750 S749 1.613 . S
N750 C753 1.350 . S
N751 S749 1.610 . S
N751 C752 1.351 . S
C752 C746 1.428 . S
C752 N751 1.351 . S
C752 C753 1.434 . S
C753 C744 1.429 . S
C753 N750 1.350 . S
C753 C752 1.434 . S
C754 C755 1.369 . S
C754 C756 1.419 . S
C754 H758 0.930 . S
C755 C754 1.369 . S
C755 C764 1.429 . S
C756 C754 1.419 . S
C756 C757 1.363 . S
C756 H759 0.929 . S
C757 C756 1.363 . S
C757 C763 1.428 . S
H758 C754 0.930 . S
H759 C756 0.929 . S
S760 N761 1.613 . S
S760 N762 1.610 . S
N761 S760 1.613 . S
N761 C764 1.350 . S
N762 S760 1.610 . S
N762 C763 1.351 . S
C763 C757 1.428 . S
C763 N762 1.351 . S
C763 C764 1.434 . S
C764 C755 1.429 . S
C764 N761 1.350 . S
C764 C763 1.434 . S
C765 C766 1.369 . S
C765 C767 1.419 . S
C765 H769 0.930 . S
C766 C765 1.369 . S
C766 C775 1.429 . S
C767 C765 1.419 . S
C767 C768 1.363 . S
C767 H770 0.929 . S
C768 C767 1.363 . S
C768 C774 1.428 . S
H769 C765 0.930 . S
H770 C767 0.929 . S
S771 N772 1.613 . S
S771 N773 1.610 . S
N772 S771 1.613 . S
N772 C775 1.350 . S
N773 S771 1.610 . S
N773 C774 1.351 . S
C774 C768 1.428 . S
C774 N773 1.351 . S
C774 C775 1.434 . S
C775 C766 1.429 . S
C775 N772 1.350 . S
C775 C774 1.434 . S
C776 C777 1.369 . S
C776 C778 1.419 1_565 S
C776 H780 0.930 . S
C777 C776 1.369 . S
C777 C786 1.429 . S
C778 C776 1.419 1_545 S
C778 C779 1.363 . S
C778 H781 0.929 . S
C779 C778 1.363 . S
C779 C785 1.428 . S
H780 C776 0.930 . S
H781 C778 0.929 . S
S782 N783 1.630 . S
S782 N784 1.593 1_565 S
N783 S782 1.630 . S
N783 C786 1.350 . S
N784 S782 1.593 1_545 S
N784 C785 1.351 . S
C785 C779 1.428 . S
C785 N784 1.351 . S
C785 C786 1.434 1_545 S
C786 C777 1.429 . S
C786 N783 1.350 . S
C786 C785 1.434 1_565 S
C787 C788 1.369 . S
C787 C789 1.419 . S
C787 H791 0.930 . S
C788 C787 1.369 . S
C788 C797 1.429 . S
C789 C787 1.419 . S
C789 C790 1.363 . S
C789 H792 0.929 . S
C790 C789 1.363 . S
C790 C796 1.428 . S
H791 C787 0.930 . S
H792 C789 0.929 . S
S793 N794 1.613 . S
S793 N795 1.610 . S
N794 S793 1.613 . S
N794 C797 1.350 . S
N795 S793 1.610 . S
N795 C796 1.351 . S
C796 C790 1.428 . S
C796 N795 1.351 . S
C796 C797 1.434 . S
C797 C788 1.429 . S
C797 N794 1.350 . S
C797 C796 1.434 . S
C798 C799 1.369 . S
C798 C800 1.419 1_564 S
C798 H802 0.930 . S
C799 C798 1.369 . S
C799 C808 1.429 . S
C800 C798 1.419 1_546 S
C800 C801 1.363 . S
C800 H803 0.929 . S
C801 C800 1.363 . S
C801 C807 1.428 . S
H802 C798 0.930 . S
H803 C800 0.929 . S
S804 N805 1.613 1_556 S
S804 N806 1.610 1_565 S
N805 S804 1.613 1_554 S
N805 C808 1.350 . S
N806 S804 1.610 1_545 S
N806 C807 1.351 . S
C807 C801 1.428 . S
C807 N806 1.351 . S
C807 C808 1.434 1_546 S
C808 C799 1.429 . S
C808 N805 1.350 . S
C808 C807 1.434 1_564 S
C809 C810 1.369 . S
C809 C811 1.419 . S
C809 H813 0.930 . S
C810 C809 1.369 . S
C810 C819 1.429 . S
C811 C809 1.419 . S
C811 C812 1.363 . S
C811 H814 0.929 . S
C812 C811 1.363 . S
C812 C818 1.428 . S
H813 C809 0.930 . S
H814 C811 0.929 . S
S815 N816 1.613 1_556 S
S815 N817 1.610 1_556 S
N816 S815 1.613 1_554 S
N816 C819 1.350 . S
N817 S815 1.610 1_554 S
N817 C818 1.351 . S
C818 C812 1.428 . S
C818 N817 1.351 . S
C818 C819 1.434 . S
C819 C810 1.429 . S
C819 N816 1.350 . S
C819 C818 1.434 . S
C820 C821 1.369 . S
C820 C822 1.419 1_565 S
C820 H824 0.930 . S
C821 C820 1.369 . S
C821 C830 1.429 . S
C822 C820 1.419 1_545 S
C822 C823 1.363 . S
C822 H825 0.929 . S
C823 C822 1.363 . S
C823 C829 1.428 . S
H824 C820 0.930 . S
H825 C822 0.929 . S
S826 N827 1.613 1_545 S
S826 N828 1.610 . S
N827 S826 1.613 1_565 S
N827 C830 1.350 . S
N828 S826 1.610 . S
N828 C829 1.351 . S
C829 C823 1.428 . S
C829 N828 1.351 . S
C829 C830 1.434 1_545 S
C830 C821 1.429 . S
C830 N827 1.350 . S
C830 C829 1.434 1_565 S
C831 C832 1.369 . S
C831 C833 1.419 . S
C831 H835 0.930 . S
C832 C831 1.369 . S
C832 C841 1.429 . S
C833 C831 1.419 . S
C833 C834 1.363 . S
C833 H836 0.929 . S
C834 C833 1.363 . S
C834 C840 1.428 . S
H835 C831 0.930 . S
H836 C833 0.929 . S
S837 N838 1.613 . S
S837 N839 1.610 . S
N838 S837 1.613 . S
N838 C841 1.350 . S
N839 S837 1.610 . S
N839 C840 1.351 . S
C840 C834 1.428 . S
C840 N839 1.351 . S
C840 C841 1.434 . S
C841 C832 1.429 . S
C841 N838 1.350 . S
C841 C840 1.434 . S
C842 C843 1.369 1_554 S
C842 C844 1.419 1_545 S
C842 H846 0.930 . S
C843 C842 1.369 1_556 S
C843 C852 1.429 . S
C844 C842 1.419 1_565 S
C844 C845 1.363 . S
C844 H847 0.929 . S
C845 C844 1.363 . S
C845 C851 1.428 1_554 S
H846 C842 0.930 . S
H847 C844 0.929 . S
S848 N849 1.613 1_565 S
S848 N850 1.610 . S
N849 S848 1.613 1_545 S
N849 C852 1.350 . S
N850 S848 1.610 . S
N850 C851 1.351 . S
C851 C845 1.428 1_556 S
C851 N850 1.351 . S
C851 C852 1.434 1_565 S
C852 C843 1.429 . S
C852 N849 1.350 . S
C852 C851 1.434 1_545 S
C853 C854 1.369 . S
C853 C855 1.419 . S
C853 H857 0.930 . S
C854 C853 1.369 . S
C854 C863 1.429 . S
C855 C853 1.419 . S
C855 C856 1.363 . S
C855 H858 0.929 . S
C856 C855 1.363 . S
C856 C862 1.428 . S
H857 C853 0.930 . S
H858 C855 0.929 . S
S859 N860 1.613 . S
S859 N861 1.610 . S
N860 S859 1.613 . S
N860 C863 1.350 . S
N861 S859 1.610 . S
N861 C862 1.351 . S
C862 C856 1.428 . S
C862 N861 1.351 . S
C862 C863 1.434 . S
C863 C854 1.429 . S
C863 N860 1.350 . S
C863 C862 1.434 . S
C337 C20 1.387 . S
C339 C16 1.384 . S
C348 C41 1.380 1_556 S
C350 C37 1.393 . S
C359 C45 1.394 . S
C361 C61 1.382 1_554 S
C370 C66 1.387 . S
C372 C82 1.383 . S
C381 C87 1.379 . S
C383 C103 1.387 . S
C392 C108 1.383 . S
C394 C124 1.384 . S
C403 C145 1.378 . S
C405 C129 1.392 . S
C414 C167 1.390 1_554 S
C416 C163 1.385 . S
C425 C171 1.380 . S
C427 C187 1.384 . S
C436 C192 1.383 . S
C438 C208 1.386 1_554 S
C447 C229 1.384 1_556 S
C449 C213 1.394 . S
C458 C251 1.385 . S
C460 C247 1.381 . S
C469 C268 1.386 . S
C471 C272 1.391 . S
C480 C289 1.386 . S
C482 C293 1.392 . S
C491 C297 1.383 . S
C493 C313 1.382 1_554 S
C502 C318 1.388 . S
C504 C334 1.384 . S
C513 C3 1.347 . S
C515 C238 1.330 . S
C524 C24 1.329 . S
C526 C319 1.308 . S
C535 C46 1.324 . S
C537 C193 1.324 . S
C546 C67 1.302 . S
C548 C280 1.305 . S
C557 C88 1.336 . S
C559 C276 1.358 . S
C568 C234 1.370 . S
C570 C121 1.373 . S
C579 C142 1.373 . S
C581 C331 1.368 . S
C590 C150 1.356 . S
C592 C205 1.357 . S
C601 C79 1.354 . S
C603 C172 1.334 . S
C612 C28 1.319 . S
C614 C214 1.318 . S
C623 C259 1.313 . S
C625 C109 1.315 . S
C634 C154 1.320 . S
C636 C298 1.320 . S
C645 C184 1.370 . S
C647 C100 1.368 . S
C656 C130 1.315 . S
C658 C226 1.339 . S
C667 C58 1.347 . S
C669 C310 1.347 . S
C678 C7 1.308 . S
C680 C255 1.330 . S
C689 C19 1.359 . S
C691 C91 1.366 . S
C700 C40 1.369 . S
C702 C125 1.375 . S
C711 C49 1.363 . S
C713 C146 1.362 . S
C722 C70 1.377 . S
C724 C166 1.380 . S
C733 C256 1.375 . S
C735 C175 1.369 . S
C744 C277 1.367 . S
C746 C209 1.374 . S
C755 C217 1.367 . S
C757 C301 1.361 . S
C766 C322 1.366 . S
C768 C250 1.364 . S
C777 C25 1.377 . S
C779 C151 1.374 . S
C788 C104 1.365 . S
C790 C62 1.356 . S
C799 C112 1.366 . S
C801 C83 1.361 . S
C810 C4 1.381 . S
C812 C133 1.393 . S
C821 C335 1.362 . S
C823 C196 1.370 . S
C832 C271 1.375 . S
C834 C230 1.366 . S
C843 C292 1.371 . S
C845 C235 1.378 . S
C854 C314 1.381 . S
C856 C188 1.376 . S
