# Generated by pormake.
# Topology smm, (6)-cn, num edge types: 1
# Building blocks:
#     Node 0, Type 0, BuildingBlock: GEDQOX_clean_sbu_0, # of connection points: 6
#     Node 1, Type 0, BuildingBlock: GEDQOX_clean_sbu_0, # of connection points: 6
#     Node 2, Type 0, BuildingBlock: GEDQOX_clean_sbu_0, # of connection points: 6
#     Node 3, Type 0, BuildingBlock: GEDQOX_clean_sbu_0, # of connection points: 6
#     Node 4, Type 0, BuildingBlock: GEDQOX_clean_sbu_0, # of connection points: 6
#     Node 5, Type 0, BuildingBlock: GEDQOX_clean_sbu_0, # of connection points: 6
#     Node 6, Type 0, BuildingBlock: GEDQOX_clean_sbu_0, # of connection points: 6
#     Node 7, Type 0, BuildingBlock: GEDQOX_clean_sbu_0, # of connection points: 6
#     Node 8, Type 0, BuildingBlock: GEDQOX_clean_sbu_0, # of connection points: 6
#     Edge 9, Type (0, 0), BuildingBlock: AJUNOK_clean_linker_0, # of connection points: 2
#     Edge 10, Type (0, 0), BuildingBlock: AJUNOK_clean_linker_0, # of connection points: 2
#     Edge 11, Type (0, 0), BuildingBlock: AJUNOK_clean_linker_0, # of connection points: 2
#     Edge 12, Type (0, 0), BuildingBlock: AJUNOK_clean_linker_0, # of connection points: 2
#     Edge 13, Type (0, 0), BuildingBlock: AJUNOK_clean_linker_0, # of connection points: 2
#     Edge 14, Type (0, 0), BuildingBlock: AJUNOK_clean_linker_0, # of connection points: 2
#     Edge 15, Type (0, 0), BuildingBlock: AJUNOK_clean_linker_0, # of connection points: 2
#     Edge 16, Type (0, 0), BuildingBlock: AJUNOK_clean_linker_0, # of connection points: 2
#     Edge 17, Type (0, 0), BuildingBlock: AJUNOK_clean_linker_0, # of connection points: 2
#     Edge 18, Type (0, 0), BuildingBlock: AJUNOK_clean_linker_0, # of connection points: 2
#     Edge 19, Type (0, 0), BuildingBlock: AJUNOK_clean_linker_0, # of connection points: 2
#     Edge 20, Type (0, 0), BuildingBlock: AJUNOK_clean_linker_0, # of connection points: 2
#     Edge 21, Type (0, 0), BuildingBlock: AJUNOK_clean_linker_0, # of connection points: 2
#     Edge 22, Type (0, 0), BuildingBlock: AJUNOK_clean_linker_0, # of connection points: 2
#     Edge 23, Type (0, 0), BuildingBlock: AJUNOK_clean_linker_0, # of connection points: 2
#     Edge 24, Type (0, 0), BuildingBlock: AJUNOK_clean_linker_0, # of connection points: 2
#     Edge 25, Type (0, 0), BuildingBlock: AJUNOK_clean_linker_0, # of connection points: 2
#     Edge 26, Type (0, 0), BuildingBlock: AJUNOK_clean_linker_0, # of connection points: 2
#     Edge 27, Type (0, 0), BuildingBlock: AJUNOK_clean_linker_0, # of connection points: 2
#     Edge 28, Type (0, 0), BuildingBlock: AJUNOK_clean_linker_0, # of connection points: 2
#     Edge 29, Type (0, 0), BuildingBlock: AJUNOK_clean_linker_0, # of connection points: 2
#     Edge 30, Type (0, 0), BuildingBlock: AJUNOK_clean_linker_0, # of connection points: 2
#     Edge 31, Type (0, 0), BuildingBlock: AJUNOK_clean_linker_0, # of connection points: 2
#     Edge 32, Type (0, 0), BuildingBlock: AJUNOK_clean_linker_0, # of connection points: 2
#     Edge 33, Type (0, 0), BuildingBlock: AJUNOK_clean_linker_0, # of connection points: 2
#     Edge 34, Type (0, 0), BuildingBlock: AJUNOK_clean_linker_0, # of connection points: 2
#     Edge 35, Type (0, 0), BuildingBlock: AJUNOK_clean_linker_0, # of connection points: 2
# Relax obj value: 0.042
# Max RMSD: 0.122
# Mean RMSD: 0.122
data_MOF--net-smm--node1-GEDQOX_clean_sbu_0--edge1-AJUNOK_clean_linker_0
_symmetry_space_group_name_H-M    P1
_symmetry_Int_Tables_number       1
_symmetry_cell_setting            triclinic
loop_
_symmetry_equiv_pos_as_xyz
'x, y, z'
_cell_length_a     57.180249
_cell_length_b     57.120593
_cell_length_c     10.61923
_cell_angle_alpha  90.000101
_cell_angle_beta   90.133574
_cell_angle_gamma 120.1179
loop_
_atom_site_label
_atom_site_type_symbol
_atom_site_fract_x
_atom_site_fract_y
_atom_site_fract_z
_atom_type_partial_charge
Nd0 Nd 0.07437 0.23448 0.0233 0.0
Nd1 Nd 1.02446 0.18022 -0.00403 0.0
C2 C 0.11312 0.28556 0.06386 0.0
C3 C 0.12408 0.31239 0.00166 0.0
C4 C 0.10721 0.31988 0.93824 0.0
C5 C 0.11804 0.3455 0.88178 0.0
C6 C 0.14603 0.3642 0.88635 0.0
C7 C 0.16285 0.35649 0.94912 0.0
C8 C 0.152 0.33092 0.00579 0.0
C9 C 0.06115 0.21829 0.77677 0.0
C10 C 1.01463 0.23002 0.03954 0.0
C11 C 0.98627 0.13027 0.93141 0.0
C12 C 0.97716 0.10102 0.95137 0.0
C13 C 0.98052 0.08588 0.8559 0.0
C14 C 0.96993 0.05788 0.8691 0.0
C15 C 0.95559 0.04416 0.97808 0.0
C16 C 0.95228 0.0593 0.0737 0.0
C17 C 0.96292 0.08731 0.06066 0.0
C18 C 1.03761 0.19611 0.24292 0.0
C19 C 0.08405 0.1839 0.01954 0.0
O20 O 0.08896 0.2747 0.11299 0.0
O21 O 0.1172 0.26771 0.00675 0.0
O22 O 0.08537 0.23098 0.8213 0.0
O23 O 0.04421 0.21534 0.8605 0.0
O24 O 1.04006 0.24273 0.07789 0.0
O25 O 1.00458 0.20662 -0.02044 0.0
O26 O 1.00798 0.14494 0.86414 0.0
O27 O 0.98423 0.1438 0.02574 0.0
O28 O 1.01311 0.18244 0.20067 0.0
O29 O 0.05441 0.19937 0.15807 0.0
O30 O 0.05925 0.17065 0.97249 0.0
O31 O 0.09331 0.2082 0.0695 0.0
H32 H 0.08562 0.30597 0.93276 0.0
H33 H 0.10448 0.35068 0.83421 0.0
H34 H 0.18436 0.37049 0.95724 0.0
H35 H 0.16545 0.32569 0.05418 0.0
H36 H 0.99087 0.0956 0.76949 0.0
H37 H 0.97235 0.04683 0.7922 0.0
H38 H 0.94139 0.04945 0.15885 0.0
H39 H 0.95956 0.09812 0.1357 0.0
Nd40 Nd 0.85361 0.86577 0.01145 0.0
Nd41 Nd 0.9073 0.8689 -0.01339 0.0
C42 C 0.80251 0.85321 0.04891 0.0
C43 C 0.77542 0.83619 -0.01181 0.0
C44 C 0.75659 0.81098 0.03983 0.0
C45 C 0.73082 0.79527 -0.01405 0.0
C46 C 0.72304 0.80428 0.87868 0.0
C47 C 0.74177 0.8296 0.82771 0.0
C48 C 0.76758 0.84532 0.8815 0.0
C49 C 0.86992 0.86861 0.76587 0.0
C50 C 0.85663 0.80951 0.02473 0.0
C51 C 0.95715 0.88063 0.9236 0.0
C52 C 0.98634 0.90072 0.94604 0.0
C53 C 1.00228 0.91801 0.84851 0.0
C54 C 1.03031 0.93501 0.86397 0.0
C55 C 1.04324 0.93501 0.97701 0.0
C56 C 1.02716 0.91829 0.07585 0.0
C57 C 0.99915 0.90133 0.06052 0.0
C58 C 0.89122 0.86615 0.23258 0.0
C59 C 0.90499 0.92569 0.01049 0.0
O60 O 0.81363 0.84083 0.10508 0.0
O61 O 0.82027 0.87481 -0.01106 0.0
O62 O 0.85774 0.88064 0.80985 0.0
O63 O 0.87241 0.8543 0.84979 0.0
O64 O 0.8443 0.82261 0.06187 0.0
O65 O 0.88049 0.82261 0.96913 0.0
O66 O 0.94273 0.88802 0.85641 0.0
O67 O 0.94338 0.86463 0.01633 0.0
O68 O 0.90461 0.85503 0.19105 0.0
O69 O 0.88844 0.88005 0.14771 0.0
O70 O 0.91775 0.91357 0.96525 0.0
O71 O 0.88035 0.91112 0.05732 0.0
H72 H 0.76169 0.80346 0.12299 0.0
H73 H 0.71676 0.77622 0.02998 0.0
H74 H 0.73652 0.83722 0.74539 0.0
H75 H 0.78134 0.86472 0.83948 0.0
H76 H 0.99317 0.91792 0.75883 0.0
H77 H 1.04201 0.9476 0.78582 0.0
H78 H 1.03627 0.9182 0.16524 0.0
H79 H 0.98764 0.88834 0.13798 0.0
Nd80 Nd 0.22221 1.01334 0.01088 0.0
Nd81 Nd 0.21733 0.06315 -0.01404 0.0
C82 C 0.23581 0.97558 0.04983 0.0
C83 C 0.25312 0.9657 -0.00791 0.0
C84 C 0.27509 0.96746 0.05991 0.0
C85 C 0.29072 0.95699 0.01014 0.0
C86 C 0.28472 0.94426 0.89134 0.0
C87 C 0.26297 0.94289 0.82255 0.0
C88 C 0.24736 0.95341 0.87224 0.0
C89 C 0.21928 1.02738 0.76554 0.0
C90 C 0.27748 0.07348 0.02145 0.0
C91 C 0.20496 0.10079 0.92167 0.0
C92 C 0.18502 0.10996 0.94393 0.0
C93 C 0.17093 0.11273 0.84168 0.0
C94 C 0.15415 0.12389 0.85833 0.0
C95 C 0.1512 0.13286 0.97762 0.0
C96 C 0.16475 0.12944 0.0806 0.0
C97 C 0.18147 0.11819 0.06403 0.0
C98 C 0.22158 0.05089 0.23163 0.0
C99 C 0.16171 1.00294 0.01187 0.0
O100 O 0.2479 0.99923 0.10521 0.0
O101 O 0.2142 0.97129 -0.01173 0.0
O102 O 0.20762 1.00285 0.8067 0.0
O103 O 0.23302 0.04381 0.8515 0.0
O104 O 0.2651 0.04806 0.05958 0.0
O105 O 0.26367 0.08358 0.96653 0.0
O106 O 0.19735 0.07872 0.85597 0.0
O107 O 0.22121 0.10339 0.01404 0.0
O108 O 0.23167 0.07517 0.18792 0.0
O109 O 0.20763 0.03345 0.14868 0.0
O110 O 0.17292 1.02784 0.96624 0.0
O111 O 0.17706 0.99382 0.05897 0.0
H112 H 0.28002 0.97666 0.15255 0.0
H113 H 0.30724 0.95839 0.06604 0.0
H114 H 0.25809 0.93382 0.72968 0.0
H115 H 0.23067 0.95173 0.81676 0.0
H116 H 0.17339 0.10681 0.7479 0.0
H117 H 0.14405 0.12621 0.77691 0.0
H118 H 0.1625 0.13553 0.17426 0.0
H119 H 0.19194 0.11637 0.1452 0.0
Nd120 Nd 0.74264 0.56779 0.34563 0.0
Nd121 Nd 0.69182 0.51413 0.31936 0.0
C122 C 0.78144 0.61901 0.38148 0.0
C123 C 0.79129 0.64598 0.32041 0.0
C124 C 0.78572 0.66512 0.37482 0.0
C125 C 0.79554 0.69079 0.32051 0.0
C126 C 0.81125 0.69814 0.21 0.0
C127 C 0.81704 0.6791 0.15617 0.0
C128 C 0.80718 0.65339 0.2104 0.0
C129 C 0.72811 0.55134 0.09987 0.0
C130 C 0.68361 0.56505 0.36066 0.0
C131 C 0.65312 0.46454 0.25313 0.0
C132 C 0.64335 0.43514 0.27297 0.0
C133 C 0.64514 0.41946 0.17537 0.0
C134 C 0.63368 0.39132 0.18846 0.0
C135 C 0.61982 0.37802 0.29903 0.0
C136 C 0.61853 0.39378 0.39769 0.0
C137 C 0.63004 0.42191 0.38477 0.0
C138 C 0.70449 0.52999 0.56571 0.0
C139 C 0.751 0.51657 0.34325 0.0
O140 O 0.75811 0.60793 0.43897 0.0
O141 O 0.78504 0.60114 0.32111 0.0
O142 O 0.75258 0.56313 0.14175 0.0
O143 O 0.71196 0.54926 0.18557 0.0
O144 O 0.70906 0.57722 0.39828 0.0
O145 O 0.67272 0.54128 0.30341 0.0
O146 O 0.67507 0.47891 0.18691 0.0
O147 O 0.6512 0.4782 0.34717 0.0
O148 O 0.68017 0.51655 0.52139 0.0
O149 O 0.72172 0.53303 0.48296 0.0
O150 O 0.72611 0.50381 0.29708 0.0
O151 O 0.76094 0.54098 0.39307 0.0
H152 H 0.77394 0.66033 0.46045 0.0
H153 H 0.79122 0.70509 0.36666 0.0
H154 H 0.82907 0.68402 0.0713 0.0
H155 H 0.81216 0.63937 0.16607 0.0
H156 H 0.65495 0.42888 0.08755 0.0
H157 H 0.63505 0.37985 0.11048 0.0
H158 H 0.60859 0.38437 0.48526 0.0
H159 H 0.6281 0.43319 0.46204 0.0
Nd160 Nd 0.51884 0.19717 0.33474 0.0
Nd161 Nd 0.5761 0.20604 0.33842 0.0
C162 C 0.47032 0.19311 0.34291 0.0
C163 C 0.44281 0.17529 0.2904 0.0
C164 C 0.42087 0.17745 0.33494 0.0
C165 C 0.39485 0.16128 0.28422 0.0
C166 C 0.39008 0.14244 0.18783 0.0
C167 C 0.41222 0.14049 0.14276 0.0
C168 C 0.43826 0.15667 0.19363 0.0
C169 C 0.5378 0.19219 0.10404 0.0
C170 C 0.52403 0.1438 0.37614 0.0
C171 C 0.62412 0.21009 0.30374 0.0
C172 C 0.6535 0.23018 0.31111 0.0
C173 C 0.67165 0.22703 0.23402 0.0
C174 C 0.69964 0.24464 0.24496 0.0
C175 C 0.71022 0.26595 0.33317 0.0
C176 C 0.69193 0.26916 0.40991 0.0
C177 C 0.6639 0.25154 0.39878 0.0
C178 C 0.55866 0.21244 0.5696 0.0
C179 C 0.57078 0.25964 0.33434 0.0
O180 O 0.47901 0.18279 0.4284 0.0
O181 O 0.48916 0.20817 0.2624 0.0
O182 O 0.5136 0.17581 0.1444 0.0
O183 O 0.55097 0.2098 0.18611 0.0
O184 O 0.5088 0.15478 0.39461 0.0
O185 O 0.54936 0.15874 0.33608 0.0
O186 O 0.61011 0.21255 0.2123 0.0
O187 O 0.61086 0.20292 0.40996 0.0
O188 O 0.58301 0.22769 0.52728 0.0
O189 O 0.54445 0.19442 0.48996 0.0
O190 O 0.58609 0.2495 0.30017 0.0
O191 O 0.54546 0.24355 0.37182 0.0
H192 H 0.42386 0.19172 0.4091 0.0
H193 H 0.37833 0.16327 0.32177 0.0
H194 H 0.40951 0.12664 0.06703 0.0
H195 H 0.45488 0.15476 0.15682 0.0
H196 H 0.66417 0.21067 0.16611 0.0
H197 H 0.71306 0.24163 0.1839 0.0
H198 H 0.69929 0.28496 0.48057 0.0
H199 H 0.65039 0.25435 0.4601 0.0
Nd200 Nd 0.88853 0.34595 0.35904 0.0
Nd201 Nd 0.88475 0.39655 0.33565 0.0
C202 C 0.90156 0.30768 0.39519 0.0
C203 C 0.91822 0.29744 0.33359 0.0
C204 C 0.93977 0.29788 0.39964 0.0
C205 C 0.95491 0.28725 0.34575 0.0
C206 C 0.94883 0.27568 0.22438 0.0
C207 C 0.92747 0.27557 0.15753 0.0
C208 C 0.91236 0.28627 0.21135 0.0
C209 C 0.88488 0.35956 0.1146 0.0
C210 C 0.94442 0.40549 0.37285 0.0
C211 C 0.87468 0.43583 0.27064 0.0
C212 C 0.85568 0.44626 0.28679 0.0
C213 C 0.82768 0.42894 0.29879 0.0
C214 C 0.81024 0.43947 0.31214 0.0
C215 C 0.82037 0.46766 0.31191 0.0
C216 C 0.84852 0.4849 0.30113 0.0
C217 C 0.86589 0.47433 0.28888 0.0
C218 C 0.88827 0.38315 0.58078 0.0
C219 C 0.8283 0.33664 0.3636 0.0
O220 O 0.91428 0.33142 0.44947 0.0
O221 O 0.87965 0.30357 0.33729 0.0
O222 O 0.87339 0.33523 0.15763 0.0
O223 O 0.89926 0.37637 0.19854 0.0
O224 O 0.93156 0.38 0.40959 0.0
O225 O 0.93108 0.41616 0.31847 0.0
O226 O 0.8668 0.41377 0.20433 0.0
O227 O 0.88923 0.43713 0.36812 0.0
O228 O 0.8992 0.40774 0.53959 0.0
O229 O 0.87434 0.36643 0.4958 0.0
O230 O 0.83973 0.36188 0.32142 0.0
O231 O 0.84335 0.32668 0.4054 0.0
H232 H 0.94477 0.30622 0.49395 0.0
H233 H 0.97114 0.28766 0.4003 0.0
H234 H 0.92255 0.26742 0.06293 0.0
H235 H 0.89601 0.28567 0.15707 0.0
H236 H 0.81934 0.4073 0.29741 0.0
H237 H 0.78882 0.42547 0.32341 0.0
H238 H 0.85714 0.50666 0.29987 0.0
H239 H 0.88742 0.48818 0.2797 0.0
Nd240 Nd 0.41038 0.90302 0.69578 0.0
Nd241 Nd 0.36077 0.84738 0.69883 0.0
C242 C 0.455 0.9514 0.70301 0.0
C243 C 0.46481 0.97926 0.65187 0.0
C244 C 0.46211 0.9987 0.72183 0.0
C245 C 0.47159 1.02489 0.67434 0.0
C246 C 0.48413 0.03249 0.55552 0.0
C247 C 0.48738 1.01328 0.48669 0.0
C248 C 0.47784 0.98704 0.53406 0.0
C249 C 0.3845 0.88624 0.46736 0.0
C250 C 0.3519 0.89893 0.72333 0.0
C251 C 0.32054 0.79645 0.67915 0.0
C252 C 0.31162 0.7674 0.65843 0.0
C253 C 0.2872 0.75087 0.5947 0.0
C254 C 0.27556 0.72261 0.59441 0.0
C255 C 0.28804 0.71016 0.65833 0.0
C256 C 0.31321 0.72682 0.71669 0.0
C257 C 0.32477 0.75508 0.71748 0.0
C258 C 0.37482 0.87174 0.92972 0.0
C259 C 0.41986 0.85064 0.69497 0.0
O260 O 0.43656 0.94252 0.7916 0.0
O261 O 0.45107 0.93244 0.6223 0.0
O262 O 0.39285 0.90997 0.51464 0.0
O263 O 0.38899 0.87187 0.54204 0.0
O264 O 0.37748 0.91236 0.75996 0.0
O265 O 0.3418 0.87468 0.67039 0.0
O266 O 0.32837 0.8134 0.5841 0.0
O267 O 0.33395 0.80747 0.78272 0.0
O268 O 0.35034 0.8587 0.88715 0.0
O269 O 0.39156 0.872 0.85131 0.0
O270 O 0.39334 0.83514 0.68762 0.0
O271 O 0.4314 0.8773 0.70518 0.0
H272 H 0.4527 0.99372 0.8138 0.0
H273 H 0.46933 0.03933 0.73147 0.0
H274 H 0.49696 1.01842 0.39511 0.0
H275 H 0.48068 0.97283 0.47796 0.0
H276 H 0.2765 0.75976 0.54934 0.0
H277 H 0.25649 0.71045 0.54605 0.0
H278 H 0.3234 0.71793 0.76651 0.0
H279 H 0.34343 0.76721 0.76889 0.0
Nd280 Nd 0.1862 0.53117 0.68896 0.0
Nd281 Nd 0.24079 0.53601 0.66349 0.0
C282 C 0.13501 0.51832 0.72849 0.0
C283 C 0.10821 0.50236 0.66633 0.0
C284 C 0.08624 0.50474 0.70847 0.0
C285 C 0.06068 0.48974 0.65171 0.0
C286 C 0.0564 0.47186 0.55153 0.0
C287 C 0.07864 0.46987 0.50809 0.0
C288 C 0.10424 0.48493 0.5649 0.0
C289 C 0.20271 0.53356 0.4432 0.0
C290 C 0.19108 0.47615 0.70667 0.0
C291 C 0.29068 0.54826 0.59789 0.0
C292 C 0.31991 0.56836 0.61918 0.0
C293 C 0.33618 0.58374 0.51791 0.0
C294 C 0.36423 0.60069 0.53298 0.0
C295 C 0.37685 0.60252 0.64951 0.0
C296 C 0.36046 0.58768 0.75174 0.0
C297 C 0.3324 0.5708 0.73681 0.0
C298 C 0.2248 0.53223 0.90967 0.0
C299 C 0.23655 0.59166 0.68858 0.0
O300 O 0.14588 0.50488 0.77606 0.0
O301 O 0.15279 0.54032 0.67139 0.0
O302 O 0.18993 0.54525 0.48429 0.0
O303 O 0.2055 0.51999 0.52942 0.0
O304 O 0.1784 0.48882 0.74528 0.0
O305 O 0.21437 0.48959 0.64631 0.0
O306 O 0.27606 0.55567 0.53229 0.0
O307 O 0.27716 0.53215 0.69072 0.0
O308 O 0.23899 0.52219 0.86589 0.0
O309 O 0.22113 0.54599 0.82657 0.0
O310 O 0.25011 0.58039 0.64289 0.0
O311 O 0.21215 0.57639 0.73646 0.0
H312 H 0.08881 0.51813 0.78616 0.0
H313 H 0.04408 0.49174 0.68804 0.0
H314 H 0.07629 0.45674 0.42963 0.0
H315 H 0.12094 0.48294 0.52977 0.0
H316 H 0.32729 0.58217 0.42588 0.0
H317 H 0.37619 0.61178 0.45218 0.0
H318 H 0.36934 0.58901 0.84352 0.0
H319 H 0.32061 0.55931 0.8172 0.0
Nd320 Nd 0.55553 0.6789 0.67944 0.0
Nd321 Nd 0.55178 0.72939 0.65566 0.0
C322 C 0.56845 0.64048 0.71349 0.0
C323 C 0.58569 0.63079 0.65287 0.0
C324 C 0.60993 0.6357 0.71051 0.0
C325 C 0.62577 0.62582 0.65726 0.0
C326 C 0.61789 0.61072 0.54455 0.0
C327 C 0.59355 0.60563 0.48732 0.0
C328 C 0.5777 0.61554 0.5405 0.0
C329 C 0.55293 0.69341 0.4348 0.0
C330 C 0.61144 0.73844 0.69486 0.0
C331 C 0.54131 0.76831 0.58966 0.0
C332 C 0.52169 0.77796 0.60514 0.0
C333 C 0.52205 0.79685 0.51942 0.0
C334 C 0.50536 0.80807 0.537 0.0
C335 C 0.48775 0.80059 0.64067 0.0
C336 C 0.48727 0.78143 0.72609 0.0
C337 C 0.50405 0.77023 0.70851 0.0
C338 C 0.55593 0.71686 0.90077 0.0
C339 C 0.49547 0.66967 0.68307 0.0
O340 O 0.58061 0.66383 0.77166 0.0
O341 O 0.54693 0.6367 0.65274 0.0
O342 O 0.5406 0.66887 0.47579 0.0
O343 O 0.56698 0.70965 0.52085 0.0
O344 O 0.59858 0.71287 0.73059 0.0
O345 O 0.59816 0.74917 0.64039 0.0
O346 O 0.53422 0.74669 0.52127 0.0
O347 O 0.55529 0.76933 0.68891 0.0
O348 O 0.56647 0.7412 0.85717 0.0
O349 O 0.54165 0.69952 0.81798 0.0
O350 O 0.50699 0.69461 0.63753 0.0
O351 O 0.51055 0.66013 0.72919 0.0
H352 H 0.61654 0.64697 0.79794 0.0
H353 H 0.64401 0.62961 0.70595 0.0
H354 H 0.58682 0.5941 0.40064 0.0
H355 H 0.55908 0.61109 0.49356 0.0
H356 H 0.53561 0.80329 0.43947 0.0
H357 H 0.50618 0.8226 0.46903 0.0
H358 H 0.47435 0.77552 0.80817 0.0
H359 H 0.50357 0.75591 0.77679 0.0
C360 C 0.14468 0.40728 0.85749 0.0
C361 C 0.15735 0.39211 0.83201 0.0
C362 C 0.15543 0.43396 0.81384 0.0
C363 C 0.17941 0.44691 0.742 0.0
H364 H 0.1266 0.39873 0.91474 0.0
H365 H 0.14493 0.44464 0.83917 0.0
S366 S 0.21931 0.41528 0.63966 0.0
N367 N 0.19438 0.39146 0.72314 0.0
N368 N 0.21469 0.44159 0.64194 0.0
C369 C 0.19193 0.43171 0.71272 0.0
C370 C 0.18094 0.40443 0.75758 0.0
C371 C 0.67954 0.79935 0.79031 0.0
C372 C 0.69534 0.78754 0.82189 0.0
C373 C 0.65287 0.78365 0.74415 0.0
C374 C 0.64083 0.75545 0.72757 0.0
H375 H 0.68753 0.8208 0.80514 0.0
H376 H 0.64131 0.79358 0.72576 0.0
S377 S 0.67473 0.71516 0.77961 0.0
N378 N 0.6977 0.74624 0.82082 0.0
N379 N 0.6479 0.71686 0.73589 0.0
C380 C 0.65685 0.74362 0.75365 0.0
C381 C 0.68394 0.75958 0.80031 0.0
C382 C 0.32965 0.94758 0.8475 0.0
C383 C 0.30123 0.93262 0.84027 0.0
C384 C 0.34566 0.93681 0.80577 0.0
C385 C 0.33409 0.91045 0.75494 0.0
H386 H 0.3397 0.96787 0.88624 0.0
H387 H 0.36739 0.94927 0.8154 0.0
S388 S 0.26047 0.86258 0.71618 0.0
N389 N 0.26212 0.88985 0.77864 0.0
N390 N 0.29207 0.86969 0.69958 0.0
C391 C 0.30566 0.89538 0.74523 0.0
C392 C 0.28932 0.90641 0.78786 0.0
C393 C 0.34557 0.1358 0.10436 0.0
C394 C 0.36202 0.12475 0.13645 0.0
C395 C 0.31872 0.11936 0.06185 0.0
C396 C 0.30698 0.09107 0.05108 0.0
H397 H 0.35347 0.15738 0.11291 0.0
H398 H 0.30683 0.12885 0.04129 0.0
S399 S 0.34149 0.05196 0.11994 0.0
N400 N 0.3645 0.08361 0.15189 0.0
N401 N 0.31451 0.05291 0.07188 0.0
C402 C 0.32342 0.07985 0.08023 0.0
C403 C 0.35075 0.09659 0.12272 0.0
C404 C 0.99339 0.27846 0.17687 0.0
C405 C 0.96497 0.26404 0.16849 0.0
C406 C 1.00906 0.26764 0.13106 0.0
C407 C 0.99716 0.24174 0.0748 0.0
H408 H 1.0037 0.29835 0.21982 0.0
H409 H 1.0308 0.27967 0.14192 0.0
S410 S 0.9234 0.19544 0.02999 0.0
N411 N 0.9255 0.22233 0.09912 0.0
N412 N 0.95484 0.20207 0.01268 0.0
C413 C 0.96874 0.22726 0.06361 0.0
C414 C 0.95273 0.23835 0.11034 0.0
C415 C 0.86019 0.76789 0.06993 0.0
C416 C 0.84417 0.78013 0.05793 0.0
C417 C 0.84934 0.74128 0.11634 0.0
C418 C 0.82199 0.72573 0.15282 0.0
H419 H 0.88153 0.77925 0.04766 0.0
H420 H 0.86273 0.73314 0.12751 0.0
S421 S 0.77048 0.74686 0.12375 0.0
N422 N 0.79879 0.77348 0.07581 0.0
N423 N 0.77859 0.72378 0.16131 0.0
C424 C 0.80551 0.73731 0.13584 0.0
C425 C 0.81651 0.76434 0.08886 0.0
C426 C 1.01273 0.46662 0.46394 0.0
C427 C 1.02865 0.45495 0.49554 0.0
C428 C 0.98602 0.45081 0.41856 0.0
C429 C 0.97389 0.42254 0.40436 0.0
H430 H 1.02091 0.48819 0.4755 0.0
H431 H 0.9745 0.46073 0.39878 0.0
S432 S 1.00701 0.382 0.47017 0.0
N433 N 1.03027 0.4133 0.50641 0.0
N434 N 0.98053 0.38376 0.42114 0.0
C435 C 0.98985 0.41074 0.43272 0.0
C436 C 1.01704 0.42684 0.47807 0.0
C437 C 0.62276 0.57274 0.44817 0.0
C438 C 0.63475 0.59992 0.48845 0.0
C439 C 0.63846 0.56183 0.40227 0.0
C440 C 0.66686 0.57762 0.39446 0.0
H441 H 0.6011 0.55951 0.45577 0.0
H442 H 0.62829 0.54061 0.37675 0.0
S443 S 0.70792 0.6509 0.47195 0.0
N444 N 0.67662 0.64297 0.50559 0.0
N445 N 0.70599 0.62269 0.42091 0.0
C446 C 0.67895 0.60514 0.42948 0.0
C447 C 0.66299 0.61619 0.47604 0.0
C448 C 0.52932 0.10267 0.40962 0.0
C449 C 0.51292 0.11464 0.41247 0.0
C450 C 0.51982 0.07605 0.45361 0.0
C451 C 0.49358 0.0603 0.50357 0.0
H452 H 0.54989 0.11407 0.37538 0.0
H453 H 0.5334 0.06801 0.45143 0.0
S454 S 0.44149 0.08076 0.52256 0.0
N455 N 0.46817 0.10743 0.46286 0.0
N456 N 0.45074 0.05795 0.54478 0.0
C457 C 0.47673 0.07167 0.50364 0.0
C458 C 0.48626 0.0986 0.45832 0.0
C459 C 0.1082 0.13408 0.94 0.0
C460 C 0.13424 0.14595 -0.00647 0.0
C461 C 0.09213 0.14625 0.95084 0.0
C462 C 0.10139 0.17105 0.01484 0.0
H463 H 0.10006 0.11508 0.88953 0.0
H464 H 0.07231 0.13615 0.90717 0.0
S465 S 0.16847 0.21088 0.17004 0.0
N466 N 0.16874 0.18422 0.11173 0.0
N467 N 0.13869 0.20701 0.13262 0.0
C468 C 0.12742 0.18312 0.06924 0.0
C469 C 0.14374 0.17062 0.05861 0.0
C470 C 0.90427 0.96932 0.03726 0.0
C471 C 0.91867 0.956 0.00722 0.0
C472 C 0.91639 0.9977 0.02924 0.0
C473 C 0.94345 1.01408 -0.00953 0.0
H474 H 0.88328 0.95775 0.06547 0.0
H475 H 0.90424 1.00683 0.0511 0.0
S476 S 0.99098 0.98986 0.91188 0.0
N477 N 0.96229 0.96198 0.94392 0.0
N478 N 0.9848 1.01495 0.92984 0.0
C479 C 0.95829 1.00114 0.96311 0.0
C480 C 0.94601 0.97229 0.97135 0.0
C481 C 0.08698 0.97937 0.95282 0.0
C482 C 0.0734 0.95206 -0.00947 0.0
C483 C 0.1153 0.99561 0.96199 0.0
C484 C 0.13148 0.9853 0.00872 0.0
H485 H 0.0756 0.98838 0.9163 0.0
H486 H 0.12453 1.01645 0.93117 0.0
S487 S 0.10595 0.9146 0.11576 0.0
N488 N 0.07845 0.91518 0.07346 0.0
N489 N 0.1314 0.94552 0.09158 0.0
C490 C 0.11811 0.95796 0.04692 0.0
C491 C 0.08923 0.94144 0.0377 0.0
C492 C 0.79216 0.51363 0.40637 0.0
C493 C 0.76791 0.50326 0.33702 0.0
C494 C 0.8087 0.50187 0.39897 0.0
C495 C 0.80187 0.47923 0.32147 0.0
H496 H 0.79849 0.531 0.46729 0.0
H497 H 0.827 0.51058 0.4551 0.0
S498 S 0.74128 0.44506 0.1148 0.0
N499 N 0.7383 0.46916 0.18541 0.0
N500 N 0.7695 0.44764 0.16987 0.0
C501 C 0.77772 0.46873 0.25119 0.0
C502 C 0.76079 0.48058 0.25926 0.0
C503 C 0.62111 0.3347 0.27665 0.0
C504 C 0.6068 0.34783 0.31087 0.0
C505 C 0.60937 0.30643 0.28588 0.0
C506 C 0.58263 0.28979 0.32912 0.0
H507 H 0.64173 0.34641 0.24328 0.0
H508 H 0.62149 0.29761 0.25806 0.0
S509 S 0.53595 0.31403 0.4256 0.0
N510 N 0.56406 0.34189 0.3863 0.0
N511 N 0.54205 0.28895 0.40434 0.0
C512 C 0.56802 0.30269 0.36317 0.0
C513 C 0.58006 0.33156 0.35404 0.0
C514 C 0.75773 0.27376 0.35092 0.0
C515 C 0.74023 0.28443 0.34538 0.0
C516 C 0.78599 0.29069 0.35997 0.0
C517 C 0.79811 0.31912 0.36223 0.0
H518 H 0.74952 0.25206 0.34868 0.0
H519 H 0.79846 0.28137 0.36258 0.0
S520 S 0.76137 0.35738 0.35306 0.0
N521 N 0.73723 0.32537 0.34426 0.0
N522 N 0.79 0.357 0.36255 0.0
C523 C 0.78079 0.33001 0.3584 0.0
C524 C 0.75202 0.31277 0.34987 0.0
C525 C 0.48116 0.8412 0.64883 0.0
C526 C 0.47022 0.81298 0.65935 0.0
C527 C 0.46499 0.85324 0.66329 0.0
C528 C 0.43703 0.83759 0.68755 0.0
H529 H 0.50249 0.85417 0.62958 0.0
H530 H 0.47448 0.87498 0.65312 0.0
S531 S 0.39831 0.76266 0.72285 0.0
N532 N 0.42956 0.76971 0.69499 0.0
N533 N 0.39929 0.79203 0.72269 0.0
C534 C 0.42589 0.80931 0.69905 0.0
C535 C 0.44241 0.79712 0.68503 0.0
C536 C 0.27651 0.63814 0.64831 0.0
C537 C 0.24926 0.62187 0.68514 0.0
C538 C 0.28888 0.66651 0.64053 0.0
C539 C 0.27451 0.67994 0.66769 0.0
H540 H 0.28853 0.62895 0.62495 0.0
H541 H 0.30981 0.678 0.61121 0.0
S542 S 0.20311 0.64731 0.77349 0.0
N543 N 0.20856 0.62181 0.75242 0.0
N544 N 0.2318 0.67489 0.73785 0.0
C545 C 0.24736 0.66404 0.70578 0.0
C546 C 0.23479 0.63515 0.71463 0.0
C547 C 0.44931 0.66222 0.62553 0.0
C548 C 0.46518 0.65234 0.68065 0.0
C549 C 0.42096 0.64615 0.61655 0.0
C550 C 0.40703 0.61948 0.66319 0.0
H551 H 0.45883 0.68253 0.5875 0.0
H552 H 0.40984 0.65476 0.57301 0.0
S553 S 0.4386 0.58343 0.81432 0.0
N554 N 0.46436 0.61372 0.78206 0.0
N555 N 0.41137 0.58372 0.76467 0.0
C556 C 0.42252 0.60935 0.71925 0.0
C557 C 0.45143 0.62567 0.728 0.0
C558 C 1.02876 0.20043 0.59495 0.0
C559 C 0.0554 0.21274 0.64066 0.0
C560 C 1.02326 0.19527 0.46584 0.0
C561 C 0.04418 0.20222 0.37799 0.0
H562 H 1.01207 0.19471 0.65919 0.0
H563 H 1.0024 0.18569 0.43481 0.0
S564 S 0.11745 0.23508 0.44917 0.0
N565 N 0.10301 0.23182 0.58743 0.0
N566 N 0.09252 0.22227 0.34572 0.0
C567 C 0.07088 0.21464 0.42241 0.0
C568 C 0.07651 0.21982 0.55356 0.0
C569 C 0.88786 0.85408 0.58537 0.0
C570 C 0.87505 0.86795 0.62978 0.0
C571 C 0.89283 0.85347 0.45639 0.0
C572 C 0.88518 0.86672 0.36741 0.0
H573 H 0.8942 0.84374 0.65058 0.0
H574 H 0.90288 0.84263 0.4264 0.0
S575 S 0.85026 0.9052 0.43468 0.0
N576 N 0.85436 0.89491 0.57393 0.0
N577 N 0.86357 0.89349 0.33242 0.0
C578 C 0.87211 0.88041 0.41044 0.0
C579 C 0.86712 0.88112 0.54147 0.0
C580 C 0.20532 1.01329 0.54274 0.0
C581 C 0.22024 0.03409 0.63048 0.0
C582 C 0.20602 1.01875 0.41362 0.0
C583 C 0.22162 0.04524 0.36759 0.0
H584 H 0.19294 0.99255 0.5739 0.0
H585 H 0.19412 1.00214 0.34972 0.0
S586 S 0.26477 0.10685 0.55803 0.0
N587 N 0.25123 0.08212 0.66213 0.0
N588 N 0.25279 0.0925 0.41986 0.0
C589 C 0.23679 0.06622 0.45432 0.0
C590 C 0.23601 0.06063 0.58572 0.0
C591 C 0.73646 0.54562 0.74883 0.0
C592 C 0.71019 0.53569 0.70173 0.0
C593 C 0.74193 0.55045 0.87801 0.0
C594 C 0.72136 0.5456 0.96474 0.0
H595 H 0.7529 0.54955 0.68574 0.0
H596 H 0.76251 0.55805 0.91 0.0
S597 S 0.64923 0.52013 0.88922 0.0
N598 N 0.66337 0.5216 0.75189 0.0
N599 N 0.67378 0.53057 -0.00572 0.0
C600 C 0.69503 0.53579 0.91891 0.0
C601 C 0.68944 0.5309 0.78745 0.0
C602 C 0.5296 0.18552 0.74958 0.0
C603 C 0.55309 0.20858 0.70597 0.0
C604 C 0.52517 0.17992 0.87854 0.0
C605 C 0.54405 0.19718 0.9685 0.0
H606 H 0.51467 0.17144 0.68364 0.0
H607 H 0.50673 0.16202 0.90784 0.0
S608 S 0.60853 0.26057 0.90325 0.0
N609 N 0.59518 0.24911 0.76297 0.0
N610 N 0.58703 0.23846 0.00501 0.0
C611 C 0.56759 0.22036 0.92612 0.0
C612 C 0.57201 0.22615 0.79496 0.0
C613 C 0.90276 0.39722 0.80327 0.0
C614 C 0.88726 0.37656 0.71588 0.0
C615 C 0.90179 0.39176 0.93258 0.0
C616 C 0.88527 0.36544 -0.02118 0.0
H617 H 0.91579 0.41782 0.77165 0.0
H618 H 0.91413 0.40822 -0.00355 0.0
S619 S 0.84036 0.30426 0.7892 0.0
N620 N 0.85481 0.32885 0.68491 0.0
N621 N 0.85267 0.31851 0.92711 0.0
C622 C 0.86955 0.34462 0.89234 0.0
C623 C 0.87066 0.35018 0.76098 0.0
C624 C 0.36759 0.89102 0.25968 0.0
C625 C 0.3824 0.88217 0.3306 0.0
C626 C 0.36601 0.88831 0.12855 0.0
C627 C 0.38 0.87759 0.06434 0.0
H628 H 0.35679 0.89966 0.3061 0.0
H629 H 0.3536 0.89446 0.07694 0.0
S630 S 0.4228 0.85287 0.2066 0.0
N631 N 0.41188 0.86287 0.32768 0.0
N632 N 0.40962 0.85867 0.08001 0.0
C633 C 0.39558 0.86945 0.13365 0.0
C634 C 0.39657 0.87148 0.26749 0.0
C635 C 0.20788 0.54735 0.0918 0.0
C636 C 0.21894 0.53197 0.04556 0.0
C637 C 0.20286 0.54777 0.22078 0.0
C638 C 0.20864 0.53278 0.30824 0.0
H639 H 0.20321 0.55928 0.02817 0.0
H640 H 0.19439 0.56 0.25205 0.0
S641 S 0.2372 0.48871 0.23519 0.0
N642 N 0.23507 0.50091 0.09739 0.0
N643 N 0.22573 0.50193 0.33937 0.0
C644 C 0.21956 0.51722 0.26329 0.0
C645 C 0.22465 0.51673 0.13202 0.0
C646 C 0.53837 0.67952 0.21258 0.0
C647 C 0.55413 0.70014 0.29973 0.0
C648 C 0.53926 0.68493 0.08337 0.0
C649 C 0.55589 0.71119 0.03668 0.0
H650 H 0.52518 0.65897 0.24428 0.0
H651 H 0.52667 0.66848 0.01996 0.0
S652 S 0.60162 0.7722 0.22524 0.0
N653 N 0.5871 0.74772 0.33008 0.0
N654 N 0.589 0.758 0.08752 0.0
C655 C 0.57192 0.73197 0.12277 0.0
C656 C 0.57095 0.72644 0.25429 0.0
loop_
_geom_bond_atom_site_label_1
_geom_bond_atom_site_label_2
_geom_bond_distance
_geom_bond_site_symmetry_2
_ccdc_geom_bond_type
Nd0 C2 2.836 . S
Nd0 O20 2.500 1_556 S
Nd0 O21 2.492 . S
Nd0 O22 2.487 . S
Nd0 O23 2.682 . S
Nd0 O24 2.410 . S
Nd0 O29 2.414 1_556 S
Nd0 O31 2.424 . S
Nd1 C11 2.836 . S
Nd1 O23 2.414 1_654 S
Nd1 O25 2.424 . S
Nd1 O26 2.500 1_554 S
Nd1 O27 2.492 . S
Nd1 O28 2.487 . S
Nd1 O29 2.682 1_655 S
Nd1 O30 2.410 1_655 S
C2 Nd0 2.836 . S
C2 C3 1.498 . S
C2 O20 1.258 1_556 S
C2 O21 1.239 . S
C3 C2 1.498 . S
C3 C4 1.362 1_556 S
C3 C8 1.411 . S
C4 C3 1.362 1_554 S
C4 C5 1.392 . S
C4 H32 0.930 . S
C5 C4 1.392 . S
C5 C6 1.398 . S
C5 H33 0.929 . S
C6 C5 1.398 . S
C6 C7 1.352 1_554 S
C7 C6 1.352 1_556 S
C7 C8 1.384 . S
C7 H34 0.930 . S
C8 C3 1.411 . S
C8 C7 1.384 . S
C8 H35 0.929 . S
C9 O22 1.241 . S
C9 O23 1.273 . S
C10 O24 1.251 1_654 S
C10 O25 1.268 . S
C11 Nd1 2.836 . S
C11 C12 1.498 . S
C11 O26 1.258 1_554 S
C11 O27 1.239 . S
C12 C11 1.498 . S
C12 C13 1.366 1_554 S
C12 C17 1.407 . S
C13 C12 1.366 1_556 S
C13 C14 1.392 . S
C13 H36 0.930 . S
C14 C13 1.392 . S
C14 C15 1.394 1_556 S
C14 H37 0.929 . S
C15 C14 1.394 1_554 S
C15 C16 1.357 . S
C16 C15 1.357 . S
C16 C17 1.384 . S
C16 H38 0.930 . S
C17 C12 1.407 . S
C17 C16 1.384 . S
C17 H39 0.929 . S
C18 O28 1.241 1_455 S
C18 O29 1.273 . S
C19 O30 1.251 1_556 S
C19 O31 1.268 . S
O20 Nd0 2.500 1_554 S
O20 C2 1.258 1_554 S
O21 Nd0 2.492 . S
O21 C2 1.239 . S
O22 Nd0 2.487 . S
O22 C9 1.241 . S
O23 Nd0 2.682 . S
O23 Nd1 2.414 1_456 S
O23 C9 1.273 . S
O24 Nd0 2.410 . S
O24 C10 1.251 1_456 S
O25 Nd1 2.424 . S
O25 C10 1.268 . S
O26 Nd1 2.500 1_556 S
O26 C11 1.258 1_556 S
O27 Nd1 2.492 . S
O27 C11 1.239 . S
O28 Nd1 2.487 . S
O28 C18 1.241 1_655 S
O29 Nd0 2.414 1_554 S
O29 Nd1 2.682 1_455 S
O29 C18 1.273 . S
O30 Nd1 2.410 1_455 S
O30 C19 1.251 1_554 S
O31 Nd0 2.424 . S
O31 C19 1.268 . S
H32 C4 0.930 . S
H33 C5 0.929 . S
H34 C7 0.930 . S
H35 C8 0.929 . S
H36 C13 0.930 . S
H37 C14 0.929 . S
H38 C16 0.930 . S
H39 C17 0.929 . S
Nd40 C42 2.836 . S
Nd40 O60 2.500 1_556 S
Nd40 O61 2.492 . S
Nd40 O62 2.487 . S
Nd40 O63 2.682 . S
Nd40 O64 2.410 . S
Nd40 O69 2.414 1_556 S
Nd40 O71 2.424 . S
Nd41 C51 2.836 . S
Nd41 O63 2.414 1_554 S
Nd41 O65 2.424 . S
Nd41 O66 2.500 1_554 S
Nd41 O67 2.492 . S
Nd41 O68 2.487 . S
Nd41 O69 2.682 . S
Nd41 O70 2.410 . S
C42 Nd40 2.836 . S
C42 C43 1.498 . S
C42 O60 1.258 1_556 S
C42 O61 1.239 . S
C43 C42 1.498 . S
C43 C44 1.360 1_556 S
C43 C48 1.413 . S
C44 C43 1.360 1_554 S
C44 C45 1.392 . S
C44 H72 0.930 . S
C45 C44 1.392 . S
C45 C46 1.398 . S
C45 H73 0.929 . S
C46 C45 1.398 . S
C46 C47 1.352 1_554 S
C47 C46 1.352 1_556 S
C47 C48 1.384 . S
C47 H74 0.930 . S
C48 C43 1.413 . S
C48 C47 1.384 . S
C48 H75 0.929 . S
C49 O62 1.241 . S
C49 O63 1.273 . S
C50 O64 1.251 1_554 S
C50 O65 1.268 . S
C51 Nd41 2.836 . S
C51 C52 1.498 . S
C51 O66 1.258 1_554 S
C51 O67 1.239 . S
C52 C51 1.498 . S
C52 C53 1.366 1_554 S
C52 C57 1.407 . S
C53 C52 1.366 1_556 S
C53 C54 1.392 . S
C53 H76 0.930 . S
C54 C53 1.392 . S
C54 C55 1.395 1_656 S
C54 H77 0.929 . S
C55 C54 1.395 1_454 S
C55 C56 1.356 1_455 S
C56 C55 1.356 1_655 S
C56 C57 1.384 . S
C56 H78 0.930 1_655 S
C57 C52 1.407 . S
C57 C56 1.384 . S
C57 H79 0.929 . S
C58 O68 1.241 . S
C58 O69 1.273 . S
C59 O70 1.251 1_556 S
C59 O71 1.268 . S
O60 Nd40 2.500 1_554 S
O60 C42 1.258 1_554 S
O61 Nd40 2.492 . S
O61 C42 1.239 . S
O62 Nd40 2.487 . S
O62 C49 1.241 . S
O63 Nd40 2.682 . S
O63 Nd41 2.414 1_556 S
O63 C49 1.273 . S
O64 Nd40 2.410 . S
O64 C50 1.251 1_556 S
O65 Nd41 2.424 . S
O65 C50 1.268 . S
O66 Nd41 2.500 1_556 S
O66 C51 1.258 1_556 S
O67 Nd41 2.492 . S
O67 C51 1.239 . S
O68 Nd41 2.487 . S
O68 C58 1.241 . S
O69 Nd40 2.414 1_554 S
O69 Nd41 2.682 . S
O69 C58 1.273 . S
O70 Nd41 2.410 . S
O70 C59 1.251 1_554 S
O71 Nd40 2.424 . S
O71 C59 1.268 . S
H72 C44 0.930 . S
H73 C45 0.929 . S
H74 C47 0.930 . S
H75 C48 0.929 . S
H76 C53 0.930 . S
H77 C54 0.929 . S
H78 C56 0.930 1_455 S
H79 C57 0.929 . S
Nd80 C82 2.836 . S
Nd80 O100 2.500 1_556 S
Nd80 O101 2.492 . S
Nd80 O102 2.487 . S
Nd80 O103 2.682 1_565 S
Nd80 O104 2.410 1_565 S
Nd80 O109 2.414 1_566 S
Nd80 O111 2.424 . S
Nd81 C91 2.836 . S
Nd81 O103 2.414 1_554 S
Nd81 O105 2.424 . S
Nd81 O106 2.500 1_554 S
Nd81 O107 2.492 . S
Nd81 O108 2.487 . S
Nd81 O109 2.682 . S
Nd81 O110 2.410 . S
C82 Nd80 2.836 . S
C82 C83 1.498 . S
C82 O100 1.258 1_556 S
C82 O101 1.239 . S
C83 C82 1.498 . S
C83 C84 1.360 1_556 S
C83 C88 1.413 . S
C84 C83 1.360 1_554 S
C84 C85 1.392 . S
C84 H112 0.930 . S
C85 C84 1.392 . S
C85 C86 1.398 . S
C85 H113 0.929 . S
C86 C85 1.398 . S
C86 C87 1.352 1_554 S
C87 C86 1.352 1_556 S
C87 C88 1.384 . S
C87 H114 0.930 . S
C88 C83 1.413 . S
C88 C87 1.384 . S
C88 H115 0.929 . S
C89 O102 1.241 1_545 S
C89 O103 1.273 . S
C90 O104 1.251 1_554 S
C90 O105 1.268 . S
C91 Nd81 2.836 . S
C91 C92 1.498 . S
C91 O106 1.258 1_554 S
C91 O107 1.239 . S
C92 C91 1.498 . S
C92 C93 1.366 1_554 S
C92 C97 1.407 . S
C93 C92 1.366 1_556 S
C93 C94 1.392 . S
C93 H116 0.930 . S
C94 C93 1.392 . S
C94 C95 1.396 1_556 S
C94 H117 0.929 . S
C95 C94 1.396 1_554 S
C95 C96 1.355 . S
C96 C95 1.355 . S
C96 C97 1.384 . S
C96 H118 0.930 . S
C97 C92 1.407 . S
C97 C96 1.384 . S
C97 H119 0.929 . S
C98 O108 1.241 . S
C98 O109 1.273 . S
C99 O110 1.251 1_566 S
C99 O111 1.268 . S
O100 Nd80 2.500 1_554 S
O100 C82 1.258 1_554 S
O101 Nd80 2.492 . S
O101 C82 1.239 . S
O102 Nd80 2.487 . S
O102 C89 1.241 1_565 S
O103 Nd80 2.682 1_545 S
O103 Nd81 2.414 1_556 S
O103 C89 1.273 . S
O104 Nd80 2.410 1_545 S
O104 C90 1.251 1_556 S
O105 Nd81 2.424 . S
O105 C90 1.268 . S
O106 Nd81 2.500 1_556 S
O106 C91 1.258 1_556 S
O107 Nd81 2.492 . S
O107 C91 1.239 . S
O108 Nd81 2.487 . S
O108 C98 1.241 . S
O109 Nd80 2.414 1_544 S
O109 Nd81 2.682 . S
O109 C98 1.273 . S
O110 Nd81 2.410 . S
O110 C99 1.251 1_544 S
O111 Nd80 2.424 . S
O111 C99 1.268 . S
H112 C84 0.930 . S
H113 C85 0.929 . S
H114 C87 0.930 . S
H115 C88 0.929 . S
H116 C93 0.930 . S
H117 C94 0.929 . S
H118 C96 0.930 . S
H119 C97 0.929 . S
Nd120 C122 2.836 . S
Nd120 O140 2.500 . S
Nd120 O141 2.492 . S
Nd120 O142 2.487 . S
Nd120 O143 2.682 . S
Nd120 O144 2.410 . S
Nd120 O149 2.414 . S
Nd120 O151 2.424 . S
Nd121 C131 2.836 . S
Nd121 O143 2.414 . S
Nd121 O145 2.424 . S
Nd121 O146 2.500 . S
Nd121 O147 2.492 . S
Nd121 O148 2.487 . S
Nd121 O149 2.682 . S
Nd121 O150 2.410 . S
C122 Nd120 2.836 . S
C122 C123 1.498 . S
C122 O140 1.258 . S
C122 O141 1.239 . S
C123 C122 1.498 . S
C123 C124 1.366 . S
C123 C128 1.407 . S
C124 C123 1.366 . S
C124 C125 1.392 . S
C124 H152 0.930 . S
C125 C124 1.392 . S
C125 C126 1.398 . S
C125 H153 0.929 . S
C126 C125 1.398 . S
C126 C127 1.352 . S
C127 C126 1.352 . S
C127 C128 1.384 . S
C127 H154 0.930 . S
C128 C123 1.407 . S
C128 C127 1.384 . S
C128 H155 0.929 . S
C129 O142 1.241 . S
C129 O143 1.273 . S
C130 O144 1.251 . S
C130 O145 1.268 . S
C131 Nd121 2.836 . S
C131 C132 1.498 . S
C131 O146 1.258 . S
C131 O147 1.239 . S
C132 C131 1.498 . S
C132 C133 1.366 . S
C132 C137 1.407 . S
C133 C132 1.366 . S
C133 C134 1.392 . S
C133 H156 0.930 . S
C134 C133 1.392 . S
C134 C135 1.398 . S
C134 H157 0.929 . S
C135 C134 1.398 . S
C135 C136 1.352 . S
C136 C135 1.352 . S
C136 C137 1.384 . S
C136 H158 0.930 . S
C137 C132 1.407 . S
C137 C136 1.384 . S
C137 H159 0.929 . S
C138 O148 1.241 . S
C138 O149 1.273 . S
C139 O150 1.251 . S
C139 O151 1.268 . S
O140 Nd120 2.500 . S
O140 C122 1.258 . S
O141 Nd120 2.492 . S
O141 C122 1.239 . S
O142 Nd120 2.487 . S
O142 C129 1.241 . S
O143 Nd120 2.682 . S
O143 Nd121 2.414 . S
O143 C129 1.273 . S
O144 Nd120 2.410 . S
O144 C130 1.251 . S
O145 Nd121 2.424 . S
O145 C130 1.268 . S
O146 Nd121 2.500 . S
O146 C131 1.258 . S
O147 Nd121 2.492 . S
O147 C131 1.239 . S
O148 Nd121 2.487 . S
O148 C138 1.241 . S
O149 Nd120 2.414 . S
O149 Nd121 2.682 . S
O149 C138 1.273 . S
O150 Nd121 2.410 . S
O150 C139 1.251 . S
O151 Nd120 2.424 . S
O151 C139 1.268 . S
H152 C124 0.930 . S
H153 C125 0.929 . S
H154 C127 0.930 . S
H155 C128 0.929 . S
H156 C133 0.930 . S
H157 C134 0.929 . S
H158 C136 0.930 . S
H159 C137 0.929 . S
Nd160 C162 2.836 . S
Nd160 O180 2.500 . S
Nd160 O181 2.492 . S
Nd160 O182 2.487 . S
Nd160 O183 2.682 . S
Nd160 O184 2.410 . S
Nd160 O189 2.414 . S
Nd160 O191 2.424 . S
Nd161 C171 2.836 . S
Nd161 O183 2.414 . S
Nd161 O185 2.424 . S
Nd161 O186 2.500 . S
Nd161 O187 2.492 . S
Nd161 O188 2.487 . S
Nd161 O189 2.682 . S
Nd161 O190 2.410 . S
C162 Nd160 2.836 . S
C162 C163 1.498 . S
C162 O180 1.258 . S
C162 O181 1.239 . S
C163 C162 1.498 . S
C163 C164 1.366 . S
C163 C168 1.407 . S
C164 C163 1.366 . S
C164 C165 1.392 . S
C164 H192 0.930 . S
C165 C164 1.392 . S
C165 C166 1.398 . S
C165 H193 0.929 . S
C166 C165 1.398 . S
C166 C167 1.352 . S
C167 C166 1.352 . S
C167 C168 1.384 . S
C167 H194 0.930 . S
C168 C163 1.407 . S
C168 C167 1.384 . S
C168 H195 0.929 . S
C169 O182 1.241 . S
C169 O183 1.273 . S
C170 O184 1.251 . S
C170 O185 1.268 . S
C171 Nd161 2.836 . S
C171 C172 1.498 . S
C171 O186 1.258 . S
C171 O187 1.239 . S
C172 C171 1.498 . S
C172 C173 1.366 . S
C172 C177 1.407 . S
C173 C172 1.366 . S
C173 C174 1.392 . S
C173 H196 0.930 . S
C174 C173 1.392 . S
C174 C175 1.398 . S
C174 H197 0.929 . S
C175 C174 1.398 . S
C175 C176 1.352 . S
C176 C175 1.352 . S
C176 C177 1.384 . S
C176 H198 0.930 . S
C177 C172 1.407 . S
C177 C176 1.384 . S
C177 H199 0.929 . S
C178 O188 1.241 . S
C178 O189 1.273 . S
C179 O190 1.251 . S
C179 O191 1.268 . S
O180 Nd160 2.500 . S
O180 C162 1.258 . S
O181 Nd160 2.492 . S
O181 C162 1.239 . S
O182 Nd160 2.487 . S
O182 C169 1.241 . S
O183 Nd160 2.682 . S
O183 Nd161 2.414 . S
O183 C169 1.273 . S
O184 Nd160 2.410 . S
O184 C170 1.251 . S
O185 Nd161 2.424 . S
O185 C170 1.268 . S
O186 Nd161 2.500 . S
O186 C171 1.258 . S
O187 Nd161 2.492 . S
O187 C171 1.239 . S
O188 Nd161 2.487 . S
O188 C178 1.241 . S
O189 Nd160 2.414 . S
O189 Nd161 2.682 . S
O189 C178 1.273 . S
O190 Nd161 2.410 . S
O190 C179 1.251 . S
O191 Nd160 2.424 . S
O191 C179 1.268 . S
H192 C164 0.930 . S
H193 C165 0.929 . S
H194 C167 0.930 . S
H195 C168 0.929 . S
H196 C173 0.930 . S
H197 C174 0.929 . S
H198 C176 0.930 . S
H199 C177 0.929 . S
Nd200 C202 2.836 . S
Nd200 O220 2.500 . S
Nd200 O221 2.492 . S
Nd200 O222 2.487 . S
Nd200 O223 2.682 . S
Nd200 O224 2.410 . S
Nd200 O229 2.414 . S
Nd200 O231 2.424 . S
Nd201 C211 2.836 . S
Nd201 O223 2.414 . S
Nd201 O225 2.424 . S
Nd201 O226 2.500 . S
Nd201 O227 2.492 . S
Nd201 O228 2.487 . S
Nd201 O229 2.682 . S
Nd201 O230 2.410 . S
C202 Nd200 2.836 . S
C202 C203 1.498 . S
C202 O220 1.258 . S
C202 O221 1.239 . S
C203 C202 1.498 . S
C203 C204 1.366 . S
C203 C208 1.407 . S
C204 C203 1.366 . S
C204 C205 1.392 . S
C204 H232 0.930 . S
C205 C204 1.392 . S
C205 C206 1.398 . S
C205 H233 0.929 . S
C206 C205 1.398 . S
C206 C207 1.352 . S
C207 C206 1.352 . S
C207 C208 1.384 . S
C207 H234 0.930 . S
C208 C203 1.407 . S
C208 C207 1.384 . S
C208 H235 0.929 . S
C209 O222 1.241 . S
C209 O223 1.273 . S
C210 O224 1.251 . S
C210 O225 1.268 . S
C211 Nd201 2.836 . S
C211 C212 1.498 . S
C211 O226 1.258 . S
C211 O227 1.239 . S
C212 C211 1.498 . S
C212 C213 1.366 . S
C212 C217 1.407 . S
C213 C212 1.366 . S
C213 C214 1.392 . S
C213 H236 0.930 . S
C214 C213 1.392 . S
C214 C215 1.398 . S
C214 H237 0.929 . S
C215 C214 1.398 . S
C215 C216 1.352 . S
C216 C215 1.352 . S
C216 C217 1.384 . S
C216 H238 0.930 . S
C217 C212 1.407 . S
C217 C216 1.384 . S
C217 H239 0.929 . S
C218 O228 1.241 . S
C218 O229 1.273 . S
C219 O230 1.251 . S
C219 O231 1.268 . S
O220 Nd200 2.500 . S
O220 C202 1.258 . S
O221 Nd200 2.492 . S
O221 C202 1.239 . S
O222 Nd200 2.487 . S
O222 C209 1.241 . S
O223 Nd200 2.682 . S
O223 Nd201 2.414 . S
O223 C209 1.273 . S
O224 Nd200 2.410 . S
O224 C210 1.251 . S
O225 Nd201 2.424 . S
O225 C210 1.268 . S
O226 Nd201 2.500 . S
O226 C211 1.258 . S
O227 Nd201 2.492 . S
O227 C211 1.239 . S
O228 Nd201 2.487 . S
O228 C218 1.241 . S
O229 Nd200 2.414 . S
O229 Nd201 2.682 . S
O229 C218 1.273 . S
O230 Nd201 2.410 . S
O230 C219 1.251 . S
O231 Nd200 2.424 . S
O231 C219 1.268 . S
H232 C204 0.930 . S
H233 C205 0.929 . S
H234 C207 0.930 . S
H235 C208 0.929 . S
H236 C213 0.930 . S
H237 C214 0.929 . S
H238 C216 0.930 . S
H239 C217 0.929 . S
Nd240 C242 2.836 . S
Nd240 O260 2.500 . S
Nd240 O261 2.492 . S
Nd240 O262 2.487 . S
Nd240 O263 2.682 . S
Nd240 O264 2.410 . S
Nd240 O269 2.414 . S
Nd240 O271 2.424 . S
Nd241 C251 2.836 . S
Nd241 O263 2.414 . S
Nd241 O265 2.424 . S
Nd241 O266 2.500 . S
Nd241 O267 2.492 . S
Nd241 O268 2.487 . S
Nd241 O269 2.682 . S
Nd241 O270 2.410 . S
C242 Nd240 2.836 . S
C242 C243 1.498 . S
C242 O260 1.258 . S
C242 O261 1.239 . S
C243 C242 1.498 . S
C243 C244 1.366 . S
C243 C248 1.407 . S
C244 C243 1.366 . S
C244 C245 1.392 . S
C244 H272 0.930 . S
C245 C244 1.392 . S
C245 C246 1.398 1_565 S
C245 H273 0.929 . S
C246 C245 1.398 1_545 S
C246 C247 1.352 1_545 S
C247 C246 1.352 1_565 S
C247 C248 1.384 . S
C247 H274 0.930 1_565 S
C248 C243 1.407 . S
C248 C247 1.384 . S
C248 H275 0.929 . S
C249 O262 1.241 . S
C249 O263 1.273 . S
C250 O264 1.251 . S
C250 O265 1.268 . S
C251 Nd241 2.836 . S
C251 C252 1.498 . S
C251 O266 1.258 . S
C251 O267 1.239 . S
C252 C251 1.498 . S
C252 C253 1.366 . S
C252 C257 1.407 . S
C253 C252 1.366 . S
C253 C254 1.392 . S
C253 H276 0.930 . S
C254 C253 1.392 . S
C254 C255 1.398 . S
C254 H277 0.929 . S
C255 C254 1.398 . S
C255 C256 1.352 . S
C256 C255 1.352 . S
C256 C257 1.384 . S
C256 H278 0.930 . S
C257 C252 1.407 . S
C257 C256 1.384 . S
C257 H279 0.929 . S
C258 O268 1.241 . S
C258 O269 1.273 . S
C259 O270 1.251 . S
C259 O271 1.268 . S
O260 Nd240 2.500 . S
O260 C242 1.258 . S
O261 Nd240 2.492 . S
O261 C242 1.239 . S
O262 Nd240 2.487 . S
O262 C249 1.241 . S
O263 Nd240 2.682 . S
O263 Nd241 2.414 . S
O263 C249 1.273 . S
O264 Nd240 2.410 . S
O264 C250 1.251 . S
O265 Nd241 2.424 . S
O265 C250 1.268 . S
O266 Nd241 2.500 . S
O266 C251 1.258 . S
O267 Nd241 2.492 . S
O267 C251 1.239 . S
O268 Nd241 2.487 . S
O268 C258 1.241 . S
O269 Nd240 2.414 . S
O269 Nd241 2.682 . S
O269 C258 1.273 . S
O270 Nd241 2.410 . S
O270 C259 1.251 . S
O271 Nd240 2.424 . S
O271 C259 1.268 . S
H272 C244 0.930 . S
H273 C245 0.929 . S
H274 C247 0.930 1_545 S
H275 C248 0.929 . S
H276 C253 0.930 . S
H277 C254 0.929 . S
H278 C256 0.930 . S
H279 C257 0.929 . S
Nd280 C282 2.836 . S
Nd280 O300 2.500 . S
Nd280 O301 2.492 . S
Nd280 O302 2.487 . S
Nd280 O303 2.682 . S
Nd280 O304 2.410 . S
Nd280 O309 2.414 . S
Nd280 O311 2.424 . S
Nd281 C291 2.836 . S
Nd281 O303 2.414 . S
Nd281 O305 2.424 . S
Nd281 O306 2.500 . S
Nd281 O307 2.492 . S
Nd281 O308 2.487 . S
Nd281 O309 2.682 . S
Nd281 O310 2.410 . S
C282 Nd280 2.836 . S
C282 C283 1.498 . S
C282 O300 1.258 . S
C282 O301 1.239 . S
C283 C282 1.498 . S
C283 C284 1.366 . S
C283 C288 1.407 . S
C284 C283 1.366 . S
C284 C285 1.392 . S
C284 H312 0.930 . S
C285 C284 1.392 . S
C285 C286 1.398 . S
C285 H313 0.929 . S
C286 C285 1.398 . S
C286 C287 1.352 . S
C287 C286 1.352 . S
C287 C288 1.384 . S
C287 H314 0.930 . S
C288 C283 1.407 . S
C288 C287 1.384 . S
C288 H315 0.929 . S
C289 O302 1.241 . S
C289 O303 1.273 . S
C290 O304 1.251 . S
C290 O305 1.268 . S
C291 Nd281 2.836 . S
C291 C292 1.498 . S
C291 O306 1.258 . S
C291 O307 1.239 . S
C292 C291 1.498 . S
C292 C293 1.366 . S
C292 C297 1.407 . S
C293 C292 1.366 . S
C293 C294 1.392 . S
C293 H316 0.930 . S
C294 C293 1.392 . S
C294 C295 1.398 . S
C294 H317 0.929 . S
C295 C294 1.398 . S
C295 C296 1.352 . S
C296 C295 1.352 . S
C296 C297 1.384 . S
C296 H318 0.930 . S
C297 C292 1.407 . S
C297 C296 1.384 . S
C297 H319 0.929 . S
C298 O308 1.241 . S
C298 O309 1.273 . S
C299 O310 1.251 . S
C299 O311 1.268 . S
O300 Nd280 2.500 . S
O300 C282 1.258 . S
O301 Nd280 2.492 . S
O301 C282 1.239 . S
O302 Nd280 2.487 . S
O302 C289 1.241 . S
O303 Nd280 2.682 . S
O303 Nd281 2.414 . S
O303 C289 1.273 . S
O304 Nd280 2.410 . S
O304 C290 1.251 . S
O305 Nd281 2.424 . S
O305 C290 1.268 . S
O306 Nd281 2.500 . S
O306 C291 1.258 . S
O307 Nd281 2.492 . S
O307 C291 1.239 . S
O308 Nd281 2.487 . S
O308 C298 1.241 . S
O309 Nd280 2.414 . S
O309 Nd281 2.682 . S
O309 C298 1.273 . S
O310 Nd281 2.410 . S
O310 C299 1.251 . S
O311 Nd280 2.424 . S
O311 C299 1.268 . S
H312 C284 0.930 . S
H313 C285 0.929 . S
H314 C287 0.930 . S
H315 C288 0.929 . S
H316 C293 0.930 . S
H317 C294 0.929 . S
H318 C296 0.930 . S
H319 C297 0.929 . S
Nd320 C322 2.836 . S
Nd320 O340 2.500 . S
Nd320 O341 2.492 . S
Nd320 O342 2.487 . S
Nd320 O343 2.682 . S
Nd320 O344 2.410 . S
Nd320 O349 2.414 . S
Nd320 O351 2.424 . S
Nd321 C331 2.836 . S
Nd321 O343 2.414 . S
Nd321 O345 2.424 . S
Nd321 O346 2.500 . S
Nd321 O347 2.492 . S
Nd321 O348 2.487 . S
Nd321 O349 2.682 . S
Nd321 O350 2.410 . S
C322 Nd320 2.836 . S
C322 C323 1.498 . S
C322 O340 1.258 . S
C322 O341 1.239 . S
C323 C322 1.498 . S
C323 C324 1.366 . S
C323 C328 1.407 . S
C324 C323 1.366 . S
C324 C325 1.392 . S
C324 H352 0.930 . S
C325 C324 1.392 . S
C325 C326 1.398 . S
C325 H353 0.929 . S
C326 C325 1.398 . S
C326 C327 1.352 . S
C327 C326 1.352 . S
C327 C328 1.384 . S
C327 H354 0.930 . S
C328 C323 1.407 . S
C328 C327 1.384 . S
C328 H355 0.929 . S
C329 O342 1.241 . S
C329 O343 1.273 . S
C330 O344 1.251 . S
C330 O345 1.268 . S
C331 Nd321 2.836 . S
C331 C332 1.498 . S
C331 O346 1.258 . S
C331 O347 1.239 . S
C332 C331 1.498 . S
C332 C333 1.366 . S
C332 C337 1.407 . S
C333 C332 1.366 . S
C333 C334 1.392 . S
C333 H356 0.930 . S
C334 C333 1.392 . S
C334 C335 1.398 . S
C334 H357 0.929 . S
C335 C334 1.398 . S
C335 C336 1.352 . S
C336 C335 1.352 . S
C336 C337 1.384 . S
C336 H358 0.930 . S
C337 C332 1.407 . S
C337 C336 1.384 . S
C337 H359 0.929 . S
C338 O348 1.241 . S
C338 O349 1.273 . S
C339 O350 1.251 . S
C339 O351 1.268 . S
O340 Nd320 2.500 . S
O340 C322 1.258 . S
O341 Nd320 2.492 . S
O341 C322 1.239 . S
O342 Nd320 2.487 . S
O342 C329 1.241 . S
O343 Nd320 2.682 . S
O343 Nd321 2.414 . S
O343 C329 1.273 . S
O344 Nd320 2.410 . S
O344 C330 1.251 . S
O345 Nd321 2.424 . S
O345 C330 1.268 . S
O346 Nd321 2.500 . S
O346 C331 1.258 . S
O347 Nd321 2.492 . S
O347 C331 1.239 . S
O348 Nd321 2.487 . S
O348 C338 1.241 . S
O349 Nd320 2.414 . S
O349 Nd321 2.682 . S
O349 C338 1.273 . S
O350 Nd321 2.410 . S
O350 C339 1.251 . S
O351 Nd320 2.424 . S
O351 C339 1.268 . S
H352 C324 0.930 . S
H353 C325 0.929 . S
H354 C327 0.930 . S
H355 C328 0.929 . S
H356 C333 0.930 . S
H357 C334 0.929 . S
H358 C336 0.930 . S
H359 C337 0.929 . S
C360 C361 1.369 . S
C360 C362 1.419 . S
C360 H364 0.930 1_556 S
C361 C360 1.369 . S
C361 C370 1.429 . S
C362 C360 1.419 . S
C362 C363 1.363 . S
C362 H365 0.929 . S
C363 C362 1.363 . S
C363 C369 1.428 . S
H364 C360 0.930 1_554 S
H365 C362 0.929 . S
S366 N367 1.613 . S
S366 N368 1.610 . S
N367 S366 1.613 . S
N367 C370 1.350 . S
N368 S366 1.610 . S
N368 C369 1.351 . S
C369 C363 1.428 . S
C369 N368 1.351 . S
C369 C370 1.434 . S
C370 C361 1.429 . S
C370 N367 1.350 . S
C370 C369 1.434 . S
C371 C372 1.369 . S
C371 C373 1.419 . S
C371 H375 0.930 . S
C372 C371 1.369 . S
C372 C381 1.429 . S
C373 C371 1.419 . S
C373 C374 1.363 . S
C373 H376 0.929 . S
C374 C373 1.363 . S
C374 C380 1.428 . S
H375 C371 0.930 . S
H376 C373 0.929 . S
S377 N378 1.613 . S
S377 N379 1.610 . S
N378 S377 1.613 . S
N378 C381 1.350 . S
N379 S377 1.610 . S
N379 C380 1.351 . S
C380 C374 1.428 . S
C380 N379 1.351 . S
C380 C381 1.434 . S
C381 C372 1.429 . S
C381 N378 1.350 . S
C381 C380 1.434 . S
C382 C383 1.369 . S
C382 C384 1.419 . S
C382 H386 0.930 . S
C383 C382 1.369 . S
C383 C392 1.429 . S
C384 C382 1.419 . S
C384 C385 1.363 . S
C384 H387 0.929 . S
C385 C384 1.363 . S
C385 C391 1.428 . S
H386 C382 0.930 . S
H387 C384 0.929 . S
S388 N389 1.613 . S
S388 N390 1.610 . S
N389 S388 1.613 . S
N389 C392 1.350 . S
N390 S388 1.610 . S
N390 C391 1.351 . S
C391 C385 1.428 . S
C391 N390 1.351 . S
C391 C392 1.434 . S
C392 C383 1.429 . S
C392 N389 1.350 . S
C392 C391 1.434 . S
C393 C394 1.369 . S
C393 C395 1.419 . S
C393 H397 0.930 . S
C394 C393 1.369 . S
C394 C403 1.429 . S
C395 C393 1.419 . S
C395 C396 1.363 . S
C395 H398 0.929 . S
C396 C395 1.363 . S
C396 C402 1.428 . S
H397 C393 0.930 . S
H398 C395 0.929 . S
S399 N400 1.613 1_556 S
S399 N401 1.610 . S
N400 S399 1.613 1_554 S
N400 C403 1.350 . S
N401 S399 1.610 . S
N401 C402 1.351 1_556 S
C402 C396 1.428 . S
C402 N401 1.351 1_554 S
C402 C403 1.434 . S
C403 C394 1.429 . S
C403 N400 1.350 . S
C403 C402 1.434 . S
C404 C405 1.369 . S
C404 C406 1.419 . S
C404 H408 0.930 . S
C405 C404 1.369 . S
C405 C414 1.429 . S
C406 C404 1.419 . S
C406 C407 1.363 . S
C406 H409 0.928 1_655 S
C407 C406 1.363 . S
C407 C413 1.428 . S
H408 C404 0.930 . S
H409 C406 0.928 1_455 S
S410 N411 1.613 . S
S410 N412 1.610 . S
N411 S410 1.613 . S
N411 C414 1.350 . S
N412 S410 1.610 . S
N412 C413 1.351 . S
C413 C407 1.428 . S
C413 N412 1.351 . S
C413 C414 1.434 . S
C414 C405 1.429 . S
C414 N411 1.350 . S
C414 C413 1.434 . S
C415 C416 1.369 . S
C415 C417 1.419 . S
C415 H419 0.930 1_554 S
C416 C415 1.369 . S
C416 C425 1.429 . S
C417 C415 1.419 . S
C417 C418 1.363 . S
C417 H420 0.929 . S
C418 C417 1.363 . S
C418 C424 1.428 . S
H419 C415 0.930 1_556 S
H420 C417 0.929 . S
S421 N422 1.613 . S
S421 N423 1.610 . S
N422 S421 1.613 . S
N422 C425 1.350 . S
N423 S421 1.610 . S
N423 C424 1.351 . S
C424 C418 1.428 . S
C424 N423 1.351 . S
C424 C425 1.434 . S
C425 C416 1.429 . S
C425 N422 1.350 . S
C425 C424 1.434 . S
C426 C427 1.369 . S
C426 C428 1.419 . S
C426 H430 0.930 . S
C427 C426 1.369 . S
C427 C436 1.429 . S
C428 C426 1.419 . S
C428 C429 1.363 . S
C428 H431 0.929 . S
C429 C428 1.363 . S
C429 C435 1.428 . S
H430 C426 0.930 . S
H431 C428 0.929 . S
S432 N433 1.613 . S
S432 N434 1.610 . S
N433 S432 1.613 . S
N433 C436 1.350 . S
N434 S432 1.610 . S
N434 C435 1.351 . S
C435 C429 1.428 . S
C435 N434 1.351 . S
C435 C436 1.434 . S
C436 C427 1.429 . S
C436 N433 1.350 . S
C436 C435 1.434 . S
C437 C438 1.369 . S
C437 C439 1.419 . S
C437 H441 0.930 . S
C438 C437 1.369 . S
C438 C447 1.429 . S
C439 C437 1.419 . S
C439 C440 1.363 . S
C439 H442 0.929 . S
C440 C439 1.363 . S
C440 C446 1.428 . S
H441 C437 0.930 . S
H442 C439 0.929 . S
S443 N444 1.613 . S
S443 N445 1.610 . S
N444 S443 1.613 . S
N444 C447 1.350 . S
N445 S443 1.610 . S
N445 C446 1.351 . S
C446 C440 1.428 . S
C446 N445 1.351 . S
C446 C447 1.434 . S
C447 C438 1.429 . S
C447 N444 1.350 . S
C447 C446 1.434 . S
C448 C449 1.369 . S
C448 C450 1.419 . S
C448 H452 0.930 . S
C449 C448 1.369 . S
C449 C458 1.429 . S
C450 C448 1.419 . S
C450 C451 1.363 . S
C450 H453 0.929 . S
C451 C450 1.363 . S
C451 C457 1.428 . S
H452 C448 0.930 . S
H453 C450 0.929 . S
S454 N455 1.613 . S
S454 N456 1.610 . S
N455 S454 1.613 . S
N455 C458 1.350 . S
N456 S454 1.610 . S
N456 C457 1.351 . S
C457 C451 1.428 . S
C457 N456 1.351 . S
C457 C458 1.434 . S
C458 C449 1.429 . S
C458 N455 1.350 . S
C458 C457 1.434 . S
C459 C460 1.369 . S
C459 C461 1.419 . S
C459 H463 0.930 . S
C460 C459 1.369 . S
C460 C469 1.429 1_556 S
C461 C459 1.419 . S
C461 C462 1.363 . S
C461 H464 0.929 . S
C462 C461 1.363 . S
C462 C468 1.428 1_556 S
H463 C459 0.930 . S
H464 C461 0.929 . S
S465 N466 1.613 . S
S465 N467 1.610 . S
N466 S465 1.613 . S
N466 C469 1.350 . S
N467 S465 1.610 . S
N467 C468 1.351 . S
C468 C462 1.428 1_554 S
C468 N467 1.351 . S
C468 C469 1.434 . S
C469 C460 1.429 1_554 S
C469 N466 1.350 . S
C469 C468 1.434 . S
C470 C471 1.369 1_554 S
C470 C472 1.419 . S
C470 H474 0.930 . S
C471 C470 1.369 1_556 S
C471 C480 1.429 . S
C472 C470 1.419 . S
C472 C473 1.363 1_554 S
C472 H475 0.929 . S
C473 C472 1.363 1_556 S
C473 C479 1.428 . S
H474 C470 0.930 . S
H475 C472 0.929 . S
S476 N477 1.613 . S
S476 N478 1.610 . S
N477 S476 1.613 . S
N477 C480 1.350 . S
N478 S476 1.610 . S
N478 C479 1.351 . S
C479 C473 1.428 . S
C479 N478 1.351 . S
C479 C480 1.434 . S
C480 C471 1.429 . S
C480 N477 1.350 . S
C480 C479 1.434 . S
C481 C482 1.369 1_554 S
C481 C483 1.419 . S
C481 H485 0.930 . S
C482 C481 1.369 1_556 S
C482 C491 1.429 . S
C483 C481 1.419 . S
C483 C484 1.363 1_554 S
C483 H486 0.952 . S
C484 C483 1.363 1_556 S
C484 C490 1.428 . S
H485 C481 0.930 . S
H486 C483 0.952 . S
S487 N488 1.613 . S
S487 N489 1.610 . S
N488 S487 1.613 . S
N488 C491 1.350 . S
N489 S487 1.610 . S
N489 C490 1.351 . S
C490 C484 1.428 . S
C490 N489 1.351 . S
C490 C491 1.434 . S
C491 C482 1.429 . S
C491 N488 1.350 . S
C491 C490 1.434 . S
C492 C493 1.369 . S
C492 C494 1.419 . S
C492 H496 0.930 . S
C493 C492 1.369 . S
C493 C502 1.429 . S
C494 C492 1.419 . S
C494 C495 1.363 . S
C494 H497 0.929 . S
C495 C494 1.363 . S
C495 C501 1.428 . S
H496 C492 0.930 . S
H497 C494 0.929 . S
S498 N499 1.613 1_556 S
S498 N500 1.610 1_556 S
N499 S498 1.613 1_554 S
N499 C502 1.350 . S
N500 S498 1.610 1_554 S
N500 C501 1.351 . S
C501 C495 1.428 . S
C501 N500 1.351 . S
C501 C502 1.434 . S
C502 C493 1.429 . S
C502 N499 1.350 . S
C502 C501 1.434 . S
C503 C504 1.369 . S
C503 C505 1.419 . S
C503 H507 0.930 . S
C504 C503 1.369 . S
C504 C513 1.429 . S
C505 C503 1.419 . S
C505 C506 1.363 . S
C505 H508 0.929 . S
C506 C505 1.363 . S
C506 C512 1.428 . S
H507 C503 0.930 . S
H508 C505 0.929 . S
S509 N510 1.613 . S
S509 N511 1.610 . S
N510 S509 1.613 . S
N510 C513 1.350 . S
N511 S509 1.610 . S
N511 C512 1.351 . S
C512 C506 1.428 . S
C512 N511 1.351 . S
C512 C513 1.434 . S
C513 C504 1.429 . S
C513 N510 1.350 . S
C513 C512 1.434 . S
C514 C515 1.369 . S
C514 C516 1.419 . S
C514 H518 0.930 . S
C515 C514 1.369 . S
C515 C524 1.429 . S
C516 C514 1.419 . S
C516 C517 1.363 . S
C516 H519 0.929 . S
C517 C516 1.363 . S
C517 C523 1.428 . S
H518 C514 0.930 . S
H519 C516 0.929 . S
S520 N521 1.613 . S
S520 N522 1.610 . S
N521 S520 1.613 . S
N521 C524 1.350 . S
N522 S520 1.610 . S
N522 C523 1.351 . S
C523 C517 1.428 . S
C523 N522 1.351 . S
C523 C524 1.434 . S
C524 C515 1.429 . S
C524 N521 1.350 . S
C524 C523 1.434 . S
C525 C526 1.369 . S
C525 C527 1.419 . S
C525 H529 0.930 . S
C526 C525 1.369 . S
C526 C535 1.429 . S
C527 C525 1.419 . S
C527 C528 1.363 . S
C527 H530 0.929 . S
C528 C527 1.363 . S
C528 C534 1.428 . S
H529 C525 0.930 . S
H530 C527 0.929 . S
S531 N532 1.613 . S
S531 N533 1.610 . S
N532 S531 1.613 . S
N532 C535 1.350 . S
N533 S531 1.610 . S
N533 C534 1.351 . S
C534 C528 1.428 . S
C534 N533 1.351 . S
C534 C535 1.434 . S
C535 C526 1.429 . S
C535 N532 1.350 . S
C535 C534 1.434 . S
C536 C537 1.369 . S
C536 C538 1.419 . S
C536 H540 0.930 . S
C537 C536 1.369 . S
C537 C546 1.429 . S
C538 C536 1.419 . S
C538 C539 1.363 . S
C538 H541 0.929 . S
C539 C538 1.363 . S
C539 C545 1.428 . S
H540 C536 0.930 . S
H541 C538 0.929 . S
S542 N543 1.613 . S
S542 N544 1.610 . S
N543 S542 1.613 . S
N543 C546 1.350 . S
N544 S542 1.610 . S
N544 C545 1.351 . S
C545 C539 1.428 . S
C545 N544 1.351 . S
C545 C546 1.434 . S
C546 C537 1.429 . S
C546 N543 1.350 . S
C546 C545 1.434 . S
C547 C548 1.369 . S
C547 C549 1.419 . S
C547 H551 0.930 . S
C548 C547 1.369 . S
C548 C557 1.429 . S
C549 C547 1.419 . S
C549 C550 1.363 . S
C549 H552 0.929 . S
C550 C549 1.363 . S
C550 C556 1.428 . S
H551 C547 0.930 . S
H552 C549 0.929 . S
S553 N554 1.613 . S
S553 N555 1.610 . S
N554 S553 1.613 . S
N554 C557 1.350 . S
N555 S553 1.610 . S
N555 C556 1.351 . S
C556 C550 1.428 . S
C556 N555 1.351 . S
C556 C557 1.434 . S
C557 C548 1.429 . S
C557 N554 1.350 . S
C557 C556 1.434 . S
C558 C559 1.369 1_655 S
C558 C560 1.419 . S
C558 H562 0.930 . S
C559 C558 1.369 1_455 S
C559 C568 1.429 . S
C560 C558 1.419 . S
C560 C561 1.363 1_655 S
C560 H563 0.929 . S
C561 C560 1.363 1_455 S
C561 C567 1.428 . S
H562 C558 0.930 . S
H563 C560 0.929 . S
S564 N565 1.613 . S
S564 N566 1.610 . S
N565 S564 1.613 . S
N565 C568 1.350 . S
N566 S564 1.610 . S
N566 C567 1.351 . S
C567 C561 1.428 . S
C567 N566 1.351 . S
C567 C568 1.434 . S
C568 C559 1.429 . S
C568 N565 1.350 . S
C568 C567 1.434 . S
C569 C570 1.369 . S
C569 C571 1.419 . S
C569 H573 0.930 . S
C570 C569 1.369 . S
C570 C579 1.429 . S
C571 C569 1.419 . S
C571 C572 1.363 . S
C571 H574 0.929 . S
C572 C571 1.363 . S
C572 C578 1.428 . S
H573 C569 0.930 . S
H574 C571 0.929 . S
S575 N576 1.613 . S
S575 N577 1.610 . S
N576 S575 1.613 . S
N576 C579 1.350 . S
N577 S575 1.610 . S
N577 C578 1.351 . S
C578 C572 1.428 . S
C578 N577 1.351 . S
C578 C579 1.434 . S
C579 C570 1.429 . S
C579 N576 1.350 . S
C579 C578 1.434 . S
C580 C581 1.369 . S
C580 C582 1.419 . S
C580 H584 0.930 . S
C581 C580 1.369 . S
C581 C590 1.429 . S
C582 C580 1.419 . S
C582 C583 1.363 . S
C582 H585 0.929 . S
C583 C582 1.363 . S
C583 C589 1.428 . S
H584 C580 0.930 . S
H585 C582 0.929 . S
S586 N587 1.613 . S
S586 N588 1.610 . S
N587 S586 1.613 . S
N587 C590 1.350 . S
N588 S586 1.610 . S
N588 C589 1.351 . S
C589 C583 1.428 . S
C589 N588 1.351 . S
C589 C590 1.434 . S
C590 C581 1.429 . S
C590 N587 1.350 . S
C590 C589 1.434 . S
C591 C592 1.369 . S
C591 C593 1.419 . S
C591 H595 0.930 . S
C592 C591 1.369 . S
C592 C601 1.429 . S
C593 C591 1.419 . S
C593 C594 1.363 . S
C593 H596 0.929 . S
C594 C593 1.363 . S
C594 C600 1.428 . S
H595 C591 0.930 . S
H596 C593 0.929 . S
S597 N598 1.613 . S
S597 N599 1.610 . S
N598 S597 1.613 . S
N598 C601 1.350 . S
N599 S597 1.610 . S
N599 C600 1.351 . S
C600 C594 1.428 . S
C600 N599 1.351 . S
C600 C601 1.434 . S
C601 C592 1.429 . S
C601 N598 1.350 . S
C601 C600 1.434 . S
C602 C603 1.369 . S
C602 C604 1.419 . S
C602 H606 0.930 . S
C603 C602 1.369 . S
C603 C612 1.429 . S
C604 C602 1.419 . S
C604 C605 1.363 . S
C604 H607 0.929 . S
C605 C604 1.363 . S
C605 C611 1.428 . S
H606 C602 0.930 . S
H607 C604 0.929 . S
S608 N609 1.613 . S
S608 N610 1.610 . S
N609 S608 1.613 . S
N609 C612 1.350 . S
N610 S608 1.610 . S
N610 C611 1.351 . S
C611 C605 1.428 . S
C611 N610 1.351 . S
C611 C612 1.434 . S
C612 C603 1.429 . S
C612 N609 1.350 . S
C612 C611 1.434 . S
C613 C614 1.369 . S
C613 C615 1.419 . S
C613 H617 0.930 . S
C614 C613 1.369 . S
C614 C623 1.429 . S
C615 C613 1.419 . S
C615 C616 1.363 . S
C615 H618 0.929 . S
C616 C615 1.363 . S
C616 C622 1.428 . S
H617 C613 0.930 . S
H618 C615 0.929 . S
S619 N620 1.613 . S
S619 N621 1.610 . S
N620 S619 1.613 . S
N620 C623 1.350 . S
N621 S619 1.610 . S
N621 C622 1.351 . S
C622 C616 1.428 . S
C622 N621 1.351 . S
C622 C623 1.434 . S
C623 C614 1.429 . S
C623 N620 1.350 . S
C623 C622 1.434 . S
C624 C625 1.369 . S
C624 C626 1.419 . S
C624 H628 0.930 . S
C625 C624 1.369 . S
C625 C634 1.429 . S
C626 C624 1.419 . S
C626 C627 1.363 . S
C626 H629 0.929 . S
C627 C626 1.363 . S
C627 C633 1.428 . S
H628 C624 0.930 . S
H629 C626 0.929 . S
S630 N631 1.613 . S
S630 N632 1.610 . S
N631 S630 1.613 . S
N631 C634 1.350 . S
N632 S630 1.610 . S
N632 C633 1.351 . S
C633 C627 1.428 . S
C633 N632 1.351 . S
C633 C634 1.434 . S
C634 C625 1.429 . S
C634 N631 1.350 . S
C634 C633 1.434 . S
C635 C636 1.369 . S
C635 C637 1.419 . S
C635 H639 0.930 . S
C636 C635 1.369 . S
C636 C645 1.429 . S
C637 C635 1.419 . S
C637 C638 1.363 . S
C637 H640 0.929 . S
C638 C637 1.363 . S
C638 C644 1.428 . S
H639 C635 0.930 . S
H640 C637 0.929 . S
S641 N642 1.613 . S
S641 N643 1.610 . S
N642 S641 1.613 . S
N642 C645 1.350 . S
N643 S641 1.610 . S
N643 C644 1.351 . S
C644 C638 1.428 . S
C644 N643 1.351 . S
C644 C645 1.434 . S
C645 C636 1.429 . S
C645 N642 1.350 . S
C645 C644 1.434 . S
C646 C647 1.369 . S
C646 C648 1.419 . S
C646 H650 0.930 . S
C647 C646 1.369 . S
C647 C656 1.429 . S
C648 C646 1.419 . S
C648 C649 1.363 . S
C648 H651 0.929 . S
C649 C648 1.363 . S
C649 C655 1.428 . S
H650 C646 0.930 . S
H651 C648 0.929 . S
S652 N653 1.613 . S
S652 N654 1.610 . S
N653 S652 1.613 . S
N653 C656 1.350 . S
N654 S652 1.610 . S
N654 C655 1.351 . S
C655 C649 1.428 . S
C655 N654 1.351 . S
C655 C656 1.434 . S
C656 C647 1.429 . S
C656 N653 1.350 . S
C656 C655 1.434 . S
C361 C6 1.943 1_556 S
C363 C290 2.030 . S
C372 C46 1.948 1_556 S
C374 C330 2.028 . S
C383 C86 1.947 1_556 S
C385 C250 2.027 . S
C394 C166 1.944 . S
C396 C90 2.031 . S
C405 C206 1.946 . S
C407 C10 2.028 . S
C416 C50 2.026 . S
C418 C126 1.951 . S
C427 C286 1.943 1_655 S
C429 C210 2.030 . S
C438 C326 1.950 . S
C440 C130 2.028 . S
C449 C170 2.027 . S
C451 C246 1.950 . S
C460 C95 1.651 1_556 S
C462 C19 1.642 . S
C471 C59 1.644 . S
C473 C15 1.654 1_566 S
C482 C55 1.651 1_556 S
C484 C99 1.643 . S
C493 C139 1.646 . S
C495 C215 1.653 . S
C504 C135 1.652 . S
C506 C179 1.642 . S
C515 C175 1.654 . S
C517 C219 1.643 . S
C526 C335 1.654 . S
C528 C259 1.644 . S
C537 C299 1.646 . S
C539 C255 1.653 . S
C548 C339 1.643 . S
C550 C295 1.651 . S
C559 C9 1.063 . S
C561 C18 1.075 . S
C570 C49 1.063 . S
C572 C58 1.075 . S
C581 C89 1.068 . S
C583 C98 1.072 . S
C592 C138 1.071 . S
C594 C129 1.069 1_556 S
C603 C178 1.074 . S
C605 C169 1.066 1_556 S
C614 C218 1.062 . S
C616 C209 1.076 1_556 S
C625 C249 1.062 . S
C627 C258 1.075 1_554 S
C636 C298 1.070 1_554 S
C638 C289 1.070 . S
C647 C329 1.076 . S
C649 C338 1.065 1_554 S
