# Generated by pormake.
# Topology wje, (4)-cn, num edge types: 1
# Building blocks:
#     Node 0, Type 0, BuildingBlock: NAHDIM_clean_sbu_0, # of connection points: 4
#     Node 1, Type 0, BuildingBlock: NAHDIM_clean_sbu_0, # of connection points: 4
#     Node 2, Type 0, BuildingBlock: NAHDIM_clean_sbu_0, # of connection points: 4
#     Node 3, Type 0, BuildingBlock: NAHDIM_clean_sbu_0, # of connection points: 4
#     Node 4, Type 0, BuildingBlock: NAHDIM_clean_sbu_0, # of connection points: 4
#     Node 5, Type 0, BuildingBlock: NAHDIM_clean_sbu_0, # of connection points: 4
#     Node 6, Type 0, BuildingBlock: NAHDIM_clean_sbu_0, # of connection points: 4
#     Node 7, Type 0, BuildingBlock: NAHDIM_clean_sbu_0, # of connection points: 4
#     Node 8, Type 0, BuildingBlock: NAHDIM_clean_sbu_0, # of connection points: 4
#     Node 9, Type 0, BuildingBlock: NAHDIM_clean_sbu_0, # of connection points: 4
#     Node 10, Type 0, BuildingBlock: NAHDIM_clean_sbu_0, # of connection points: 4
#     Node 11, Type 0, BuildingBlock: NAHDIM_clean_sbu_0, # of connection points: 4
#     Edge 12, Type (0, 0), BuildingBlock: UVAHIK_clean_linker_0, # of connection points: 2
#     Edge 13, Type (0, 0), BuildingBlock: UVAHIK_clean_linker_0, # of connection points: 2
#     Edge 14, Type (0, 0), BuildingBlock: UVAHIK_clean_linker_0, # of connection points: 2
#     Edge 15, Type (0, 0), BuildingBlock: UVAHIK_clean_linker_0, # of connection points: 2
#     Edge 16, Type (0, 0), BuildingBlock: UVAHIK_clean_linker_0, # of connection points: 2
#     Edge 17, Type (0, 0), BuildingBlock: UVAHIK_clean_linker_0, # of connection points: 2
#     Edge 18, Type (0, 0), BuildingBlock: UVAHIK_clean_linker_0, # of connection points: 2
#     Edge 19, Type (0, 0), BuildingBlock: UVAHIK_clean_linker_0, # of connection points: 2
#     Edge 20, Type (0, 0), BuildingBlock: UVAHIK_clean_linker_0, # of connection points: 2
#     Edge 21, Type (0, 0), BuildingBlock: UVAHIK_clean_linker_0, # of connection points: 2
#     Edge 22, Type (0, 0), BuildingBlock: UVAHIK_clean_linker_0, # of connection points: 2
#     Edge 23, Type (0, 0), BuildingBlock: UVAHIK_clean_linker_0, # of connection points: 2
#     Edge 24, Type (0, 0), BuildingBlock: UVAHIK_clean_linker_0, # of connection points: 2
#     Edge 25, Type (0, 0), BuildingBlock: UVAHIK_clean_linker_0, # of connection points: 2
#     Edge 26, Type (0, 0), BuildingBlock: UVAHIK_clean_linker_0, # of connection points: 2
#     Edge 27, Type (0, 0), BuildingBlock: UVAHIK_clean_linker_0, # of connection points: 2
#     Edge 28, Type (0, 0), BuildingBlock: UVAHIK_clean_linker_0, # of connection points: 2
#     Edge 29, Type (0, 0), BuildingBlock: UVAHIK_clean_linker_0, # of connection points: 2
#     Edge 30, Type (0, 0), BuildingBlock: UVAHIK_clean_linker_0, # of connection points: 2
#     Edge 31, Type (0, 0), BuildingBlock: UVAHIK_clean_linker_0, # of connection points: 2
#     Edge 32, Type (0, 0), BuildingBlock: UVAHIK_clean_linker_0, # of connection points: 2
#     Edge 33, Type (0, 0), BuildingBlock: UVAHIK_clean_linker_0, # of connection points: 2
#     Edge 34, Type (0, 0), BuildingBlock: UVAHIK_clean_linker_0, # of connection points: 2
#     Edge 35, Type (0, 0), BuildingBlock: UVAHIK_clean_linker_0, # of connection points: 2
# Relax obj value: 0.170
# Max RMSD: 0.139
# Mean RMSD: 0.139
data_MOF--net-wje--node1-NAHDIM_clean_sbu_0--edge1-UVAHIK_clean_linker_0
_symmetry_space_group_name_H-M    P1
_symmetry_Int_Tables_number       1
_symmetry_cell_setting            triclinic
loop_
_symmetry_equiv_pos_as_xyz
'x, y, z'
_cell_length_a     53.815604
_cell_length_b     53.83955
_cell_length_c     46.028953
_cell_angle_alpha  90.03496
_cell_angle_beta   90.005023
_cell_angle_gamma 120.07645
loop_
_atom_site_label
_atom_site_type_symbol
_atom_site_fract_x
_atom_site_fract_y
_atom_site_fract_z
_atom_type_partial_charge
C0 C 0.31185 0.04349 0.25179 0.0
O1 O 0.31361 0.02285 0.23843 0.0
O2 O 0.2719 0.97327 0.288 0.0
Zn3 Zn 0.30738 0.00933 0.3003 0.0
O4 O 0.34331 0.00762 0.29253 0.0
C5 C 0.29283 -0.00955 0.35848 0.0
O6 O 0.28434 0.96579 0.34542 0.0
O7 O 0.30921 0.04258 0.27923 0.0
C8 C 0.34501 0.98523 0.29703 0.0
O9 O 0.32257 0.96191 0.3069 0.0
C10 C 0.2694 0.95409 0.27023 0.0
O11 O 0.29182 0.95758 0.25549 0.0
O12 O 0.30387 0.01333 0.34342 0.0
C13 C 0.2578 0.30133 0.56855 0.0
O14 O 0.2819 0.30678 0.55589 0.0
O15 O 0.29846 0.27693 0.61918 0.0
Zn16 Zn 0.29084 0.30968 0.61999 0.0
O17 O 0.3254 0.34643 0.60745 0.0
C18 C 0.2646 0.29144 0.67512 0.0
O19 O 0.24851 0.26789 0.66021 0.0
O20 O 0.25655 0.30122 0.59609 0.0
C21 C 0.35013 0.35177 0.61567 0.0
O22 O 0.35254 0.33287 0.63161 0.0
C23 C 0.31511 0.27276 0.60296 0.0
O24 O 0.32874 0.29061 0.58157 0.0
O25 O 0.28359 0.31353 0.66187 0.0
C26 C 0.93657 0.27006 0.90056 0.0
O27 O 0.95406 0.29246 0.88486 0.0
O28 O 0.0111 0.30373 0.93557 0.0
Zn29 Zn 0.97505 0.30461 0.9449 0.0
O30 O 0.97569 0.34022 0.9306 0.0
C31 C -0.00624 0.31315 0.00421 0.0
O32 O 0.01896 0.32431 0.99154 0.0
O33 O 0.94131 0.27015 0.92759 0.0
C34 C -0.00687 0.36492 0.94072 0.0
O35 O 0.01203 0.36759 0.96035 0.0
C36 C 0.03425 0.32413 0.92523 0.0
O37 O 0.03482 0.34741 0.91577 0.0
O38 O 0.97126 0.30311 0.98859 0.0
C39 C 0.66696 0.95181 0.23837 0.0
O40 O 0.67005 0.97459 0.22467 0.0
O41 O 0.69225 0.01837 0.27795 0.0
Zn42 Zn 0.65813 0.97974 0.28643 0.0
O43 O 0.62103 0.97817 0.27713 0.0
C44 C 0.68285 0.98023 0.34126 0.0
O45 O 0.70527 0.98681 0.32481 0.0
O46 O 0.66146 0.94918 0.26537 0.0
C47 C 0.61455 -0.00603 0.29204 0.0
O48 O 0.6325 0.01089 0.31203 0.0
C49 C 0.69218 0.04062 0.2689 0.0
O50 O 0.66791 0.03891 0.26107 0.0
O51 O 0.65932 0.97466 0.32934 0.0
C52 C 0.70525 0.65823 0.57306 0.0
O53 O 0.68496 0.66018 0.55916 0.0
O54 O 0.67263 0.69353 0.61427 0.0
Zn55 Zn 0.67184 0.65642 0.62155 0.0
O56 O 0.63423 0.62231 0.61023 0.0
C57 C 0.69752 0.67618 0.67697 0.0
O58 O 0.71668 0.69743 0.66106 0.0
O59 O 0.70414 0.6562 0.60055 0.0
C60 C 0.61111 0.61925 0.62093 0.0
O61 O 0.61222 0.63889 0.63871 0.0
C62 C 0.65433 0.69722 0.60041 0.0
O63 O 0.63293 0.67546 0.58703 0.0
O64 O 0.67661 0.65496 0.66448 0.0
C65 C 0.02655 0.72339 0.90206 0.0
O66 O 0.00144 0.71168 0.88907 0.0
O67 O 0.95943 0.67897 0.93476 0.0
Zn68 Zn -0.00453 0.67759 0.94245 0.0
O69 O -0.00625 0.64157 0.92771 0.0
C70 C 0.97731 0.66744 0.00169 0.0
O71 O 0.95205 0.65525 0.98902 0.0
O72 O 0.02922 0.71222 0.92528 0.0
C73 C 0.97263 0.61686 0.9334 0.0
O74 O 0.95085 0.61465 0.94837 0.0
C75 C 0.9375 0.66231 0.91975 0.0
O76 O 0.93757 0.64204 0.90394 0.0
O77 O -0.00016 0.67871 0.98605 0.0
C78 C 0.94204 0.66608 0.42021 0.0
O79 O 0.96328 0.66648 0.43468 0.0
O80 O 0.01177 0.70517 0.38183 0.0
Zn81 Zn 0.97642 0.66745 0.37323 0.0
O82 O 0.97975 0.63364 0.38632 0.0
C83 C -0.00647 0.67817 0.31379 0.0
O84 O 0.01885 0.69259 0.32619 0.0
O85 O 0.94274 0.66636 0.39264 0.0
C86 C 0.00016 0.62989 0.37806 0.0
O87 O 0.02025 0.64894 0.36104 0.0
C88 C 0.03447 0.70965 0.39483 0.0
O89 O 0.03521 0.68835 0.40788 0.0
O90 O 0.97127 0.66517 0.32967 0.0
C91 C 0.27661 0.95792 0.77379 0.0
O92 O 0.30201 0.96558 0.78475 0.0
O93 O 0.32629 0.03089 0.72836 0.0
Zn94 Zn 0.30956 0.98854 0.72351 0.0
O95 O 0.33964 0.97806 0.73177 0.0
C96 C 0.28738 -0.00582 0.66939 0.0
O97 O 0.28294 0.01205 0.68496 0.0
O98 O 0.27489 0.96597 0.74833 0.0
C99 C 0.33766 0.95543 0.72096 0.0
O100 O 0.3151 0.93846 0.70514 0.0
C101 C 0.34768 0.04642 0.71216 0.0
O102 O 0.35905 0.03403 0.69679 0.0
O103 O 0.29793 0.98033 0.68155 0.0
C104 C 0.31024 0.27002 0.08819 0.0
O105 O 0.30817 0.29065 0.10119 0.0
O106 O 0.27567 0.30205 0.04402 0.0
Zn107 Zn 0.31269 0.30221 0.0384 0.0
O108 O 0.34689 0.33987 0.04934 0.0
C109 C 0.29322 0.27584 0.98331 0.0
O110 O 0.27141 0.2575 -0.0008 0.0
O111 O 0.3124 0.27035 0.06072 0.0
C112 C 0.35014 0.36297 0.03843 0.0
O113 O 0.33059 0.36195 0.02059 0.0
C114 C 0.27164 0.32062 0.05687 0.0
O115 O 0.29293 0.34196 0.07081 0.0
O116 O 0.31474 0.29647 0.99576 0.0
C117 C 0.02518 0.30277 0.41965 0.0
O118 O 0.00261 0.29828 0.43481 0.0
O119 O 0.95776 0.27887 0.38406 0.0
Zn120 Zn -0.0046 0.31443 0.37575 0.0
O121 O -0.00272 0.35045 0.39048 0.0
C122 C 0.97743 0.30628 0.31629 0.0
O123 O 0.95206 0.29359 0.32872 0.0
O124 O 0.02706 0.31026 0.39323 0.0
C125 C 0.97918 0.35751 0.38207 0.0
O126 O 0.95844 0.3405 0.36436 0.0
C127 C 0.93569 0.27643 0.39676 0.0
O128 O 0.93691 0.29882 0.40955 0.0
O129 O -0.00017 0.31721 0.33212 0.0
C130 C 0.70244 0.03076 0.7558 0.0
O131 O 0.68549 0.00602 0.76842 0.0
O132 O 0.67343 0.96636 0.7073 0.0
Zn133 Zn 0.67011 0.00181 0.70444 0.0
O134 O 0.63022 -0.00698 0.71431 0.0
C135 C 0.69942 0.01587 0.65022 0.0
O136 O 0.71842 0.0132 0.66578 0.0
O137 O 0.69951 0.03363 0.72886 0.0
C138 C 0.61018 0.97605 0.6974 0.0
O139 O 0.61653 0.96523 0.6749 0.0
C140 C 0.65381 0.94242 0.71701 0.0
O141 O 0.63096 0.94076 0.72918 0.0
O142 O 0.67713 0.01322 0.6626 0.0
C143 C 0.66807 0.7181 0.08956 0.0
O144 O 0.66661 0.69652 0.1043 0.0
O145 O 0.69687 0.67828 0.04771 0.0
Zn146 Zn 0.66197 0.68202 0.04155 0.0
O147 O 0.62551 0.64688 0.05353 0.0
C148 C 0.6826 0.70534 0.9855 0.0
O149 O 0.70566 0.72228 0.00071 0.0
O150 O 0.66647 0.71664 0.06205 0.0
C151 C 0.6177 0.62383 0.03945 0.0
O152 O 0.63404 0.6236 0.01837 0.0
C153 C 0.6977 0.65616 0.05582 0.0
O154 O 0.67405 0.63325 0.06438 0.0
O155 O 0.66017 0.68682 -0.00134 0.0
C156 C 0.31469 0.06791 0.20468 0.0
C157 C 0.31235 0.06715 0.2351 0.0
C158 C 0.31464 0.09001 0.18888 0.0
C159 C 0.32736 0.16364 0.19612 0.0
H160 H 0.28247 0.14516 0.12528 0.0
C161 C 0.30809 0.24635 0.13565 0.0
C162 C 0.31025 0.2468 0.10522 0.0
C163 C 0.30828 0.22443 0.15168 0.0
C164 C 0.29534 0.15069 0.14486 0.0
H165 H 0.30825 0.08902 0.27285 0.0
H166 H 0.30795 0.12745 0.24523 0.0
H167 H 0.28329 0.10694 0.15287 0.0
H168 H 0.31433 0.22463 0.06771 0.0
H169 H 0.31491 0.18658 0.0957 0.0
H170 H 0.33941 0.2074 0.18809 0.0
C171 C 0.31013 0.11114 0.23362 0.0
C172 C 0.29582 0.12882 0.16064 0.0
C173 C 0.31015 0.08903 0.24942 0.0
C174 C 0.31255 0.22487 0.09114 0.0
C175 C 0.31272 0.20296 0.10715 0.0
C176 C 0.32688 0.18552 0.18033 0.0
C177 C 0.31229 0.11181 0.20319 0.0
C178 C 0.31186 0.13506 0.18641 0.0
C179 C 0.3106 0.20251 0.13758 0.0
C180 C 0.31089 0.17927 0.15452 0.0
H181 H 0.31649 0.05141 0.19301 0.0
H182 H 0.3167 0.09017 0.16546 0.0
H183 H 0.34022 0.16916 0.21569 0.0
H184 H 0.30622 0.26291 0.14713 0.0
H185 H 0.30627 0.22446 0.17509 0.0
C186 C 0.20695 0.29029 0.56489 0.0
C187 C 0.23283 0.29682 0.55112 0.0
C188 C 0.1838 0.28762 0.54873 0.0
C189 C 0.16775 0.31175 0.48071 0.0
H190 H 0.08913 0.2542 0.4986 0.0
C191 C 0.07187 0.30333 0.41659 0.0
C192 C 0.04818 0.29933 0.43312 0.0
C193 C 0.09386 0.30056 0.42941 0.0
C194 C 0.11096 0.27051 0.4935 0.0
H195 H 0.25447 0.30485 0.50952 0.0
H196 H 0.21391 0.30009 0.48126 0.0
H197 H 0.12859 0.25316 0.52361 0.0
H198 H 0.02883 0.28899 0.47598 0.0
H199 H 0.06742 0.28456 0.49845 0.0
H200 H 0.1502 0.32947 0.45106 0.0
C201 C 0.21169 0.29734 0.5046 0.0
C202 C 0.13353 0.26988 0.50777 0.0
C203 C 0.23485 0.29993 0.52077 0.0
C204 C 0.04678 0.29218 0.46265 0.0
C205 C 0.06879 0.28944 0.47548 0.0
C206 C 0.1452 0.31241 0.46648 0.0
C207 C 0.18605 0.29146 0.51847 0.0
C208 C 0.16215 0.2907 0.50177 0.0
C209 C 0.09264 0.29375 0.45903 0.0
C210 C 0.11655 0.292 0.47296 0.0
H211 H 0.20466 0.28771 0.58824 0.0
H212 H 0.16444 0.28341 0.56008 0.0
H213 H 0.18957 0.32833 0.47593 0.0
H214 H 0.07351 0.3087 0.39373 0.0
H215 H 0.11178 0.30365 0.41609 0.0
C216 C 0.74318 0.08124 0.75848 0.0
C217 C 0.72502 0.05508 0.77247 0.0
C218 C 0.76476 0.10424 0.77389 0.0
C219 C 0.80927 0.12167 0.83956 0.0
H220 H 0.82487 0.19895 0.82379 0.0
C221 C 0.89351 0.22075 0.90361 0.0
C222 C 0.91157 0.2452 0.88705 0.0
C223 C 0.8698 0.19733 0.89083 0.0
C224 C 0.8209 0.17751 0.82825 0.0
H225 H 0.71517 0.03259 0.81369 0.0
H226 H 0.75287 0.073 0.84074 0.0
H227 H 0.7847 0.15836 0.7997 0.0
H228 H 0.91894 0.26422 0.84411 0.0
H229 H 0.87766 0.22327 0.82181 0.0
H230 H 0.84564 0.14092 0.86801 0.0
C231 C 0.75052 0.07553 0.81774 0.0
C232 C 0.79791 0.15428 0.81448 0.0
C233 C 0.72885 0.05246 0.80228 0.0
C234 C 0.90543 0.24573 0.85748 0.0
C235 C 0.88168 0.22236 0.84474 0.0
C236 C 0.83226 0.14494 0.8534 0.0
C237 C 0.76869 0.10166 0.80367 0.0
C238 C 0.79204 0.12613 0.81971 0.0
C239 C 0.86361 0.19792 0.86128 0.0
C240 C 0.8385 0.17312 0.84763 0.0
H241 H 0.74089 0.08397 0.73551 0.0
H242 H 0.7787 0.12392 0.76231 0.0
H243 H 0.8055 0.10026 0.84378 0.0
H244 H 0.89764 0.21969 0.92648 0.0
H245 H 0.85611 0.17889 0.90418 0.0
C246 C 0.67415 0.76725 0.08864 0.0
C247 C 0.67091 0.7436 0.10467 0.0
C248 C 0.67599 0.79104 0.10275 0.0
C249 C 0.69073 0.82741 0.17397 0.0
H250 H 0.64721 0.86057 0.14189 0.0
C251 C 0.66768 0.90576 0.23777 0.0
C252 C 0.66967 0.92937 0.22266 0.0
C253 C 0.6698 0.88428 0.22297 0.0
C254 C 0.65978 0.8518 0.1509 0.0
H255 H 0.66748 0.72651 0.14809 0.0
H256 H 0.67026 0.76794 0.17274 0.0
H257 H 0.64729 0.82072 0.11692 0.0
H258 H 0.67582 0.94917 0.18024 0.0
H259 H 0.67955 0.91158 0.15438 0.0
H260 H 0.70284 0.8583 0.2082 0.0
C261 C 0.67175 0.76822 0.14926 0.0
C262 C 0.65984 0.82898 0.1366 0.0
C263 C 0.66999 0.74442 0.13514 0.0
C264 C 0.67409 0.93119 0.19248 0.0
C265 C 0.67611 0.90963 0.17765 0.0
C266 C 0.69061 0.85021 0.18831 0.0
C267 C 0.67455 0.79169 0.13319 0.0
C268 C 0.67521 0.81645 0.14805 0.0
C269 C 0.67387 0.88591 0.19275 0.0
C270 C 0.675 0.86252 0.17699 0.0
H271 H 0.67515 0.76738 0.06514 0.0
H272 H 0.6786 0.80898 0.08979 0.0
H273 H 0.70313 0.81849 0.18309 0.0
H274 H 0.6643 0.90372 0.26105 0.0
H275 H 0.66765 0.86608 0.23512 0.0
C276 C 0.89537 0.66572 0.42023 0.0
C277 C 0.91764 0.66527 0.43574 0.0
C278 C 0.87227 0.66489 0.4349 0.0
C279 C 0.83351 0.64367 0.50442 0.0
H280 H 0.80487 0.69377 0.48042 0.0
C281 C 0.75131 0.65748 0.57212 0.0
C282 C 0.72923 0.65868 0.55703 0.0
C283 C 0.7741 0.65809 0.55707 0.0
C284 C 0.81241 0.67941 0.48715 0.0
H285 H 0.93319 0.6637 0.47881 0.0
H286 H 0.89291 0.66241 0.50442 0.0
H287 H 0.84522 0.69533 0.45463 0.0
H288 H 0.71369 0.66135 0.51431 0.0
H289 H 0.75339 0.6621 0.488 0.0
H290 H 0.8007 0.6277 0.53691 0.0
C291 C 0.8932 0.6631 0.48089 0.0
C292 C 0.83551 0.68032 0.47241 0.0
C293 C 0.91634 0.664 0.46623 0.0
C294 C 0.7304 0.66046 0.52657 0.0
C295 C 0.75322 0.66106 0.5115 0.0
C296 C 0.81039 0.64272 0.51914 0.0
C297 C 0.87093 0.66353 0.46538 0.0
C298 C 0.84634 0.6625 0.48094 0.0
C299 C 0.77532 0.65988 0.52661 0.0
C300 C 0.79963 0.66063 0.5107 0.0
H301 H 0.89571 0.66665 0.39672 0.0
H302 H 0.85526 0.66493 0.42236 0.0
H303 H 0.84111 0.62936 0.51119 0.0
H304 H 0.7511 0.65621 0.59561 0.0
H305 H 0.791 0.65756 0.56935 0.0
C306 C 0.2231 0.92921 0.7773 0.0
C307 C 0.25015 0.9379 0.78962 0.0
C308 C 0.19812 0.90828 0.79078 0.0
C309 C 0.16872 0.86975 0.85989 0.0
H310 H 0.11379 0.80936 0.80948 0.0
C311 C 0.07839 0.7615 0.90352 0.0
C312 C 0.0514 0.74939 0.88996 0.0
C313 C 0.10193 0.78597 0.89202 0.0
C314 C 0.12867 0.82625 0.82382 0.0
H315 H 0.27211 0.93227 0.82635 0.0
H316 H 0.22841 0.89551 0.8498 0.0
H317 H 0.15609 0.85011 0.78854 0.0
H318 H 0.02783 0.75368 0.85391 0.0
H319 H 0.0689 0.79653 0.83398 0.0
H320 H 0.14136 0.84565 0.89521 0.0
C321 C 0.22656 0.90505 0.8298 0.0
C322 C 0.15292 0.84961 0.81182 0.0
C323 C 0.2516 0.92602 0.81629 0.0
C324 C 0.04838 0.76239 0.86479 0.0
C325 C 0.07193 0.78688 0.8533 0.0
C326 C 0.14441 0.84637 0.87191 0.0
C327 C 0.19961 0.89559 0.81688 0.0
C328 C 0.17328 0.87153 0.82973 0.0
C329 C 0.09898 0.79886 0.86673 0.0
C330 C 0.12423 0.82428 0.854 0.0
H331 H 0.22121 0.93811 0.75687 0.0
H332 H 0.17761 0.90178 0.78057 0.0
H333 H 0.18388 0.88649 0.87419 0.0
H334 H 0.08145 0.75199 0.92294 0.0
H335 H 0.12258 0.79444 0.90264 0.0
C336 C 0.37226 0.95977 0.28769 0.0
C337 C 0.37216 0.98557 0.29166 0.0
C338 C 0.39806 0.96002 0.28345 0.0
C339 C 0.47579 0.00892 0.26706 0.0
H340 H 0.48374 0.94835 0.30357 0.0
C341 C 0.58368 0.01616 0.29633 0.0
C342 C 0.58706 -0.00689 0.28733 0.0
C343 C 0.55732 0.01494 0.29297 0.0
C344 C 0.48166 0.9652 0.29301 0.0
H345 H 0.39882 0.03184 0.29423 0.0
H346 H 0.44393 0.03229 0.28822 0.0
H347 H 0.43775 0.94675 0.30549 0.0
H348 H 0.56578 0.95084 0.26754 0.0
H349 H 0.51929 0.9484 0.26251 0.0
H350 H 0.5204 0.02804 0.25611 0.0
C351 C 0.42413 0.01187 0.28736 0.0
C352 C 0.45529 0.96427 0.29394 0.0
C353 C 0.39827 0.01163 0.29104 0.0
C354 C 0.56374 0.96893 0.2746 0.0
C355 C 0.5372 0.96748 0.2718 0.0
C356 C 0.5023 0.0101 0.26664 0.0
C357 C 0.42439 0.98604 0.28366 0.0
C358 C 0.45205 0.98624 0.28118 0.0
C359 C 0.5338 -0.00957 0.28107 0.0
C360 C 0.50544 0.98834 0.27977 0.0
H361 H 0.35236 0.93937 0.28774 0.0
H362 H 0.39731 0.93975 0.28005 0.0
H363 H 0.474 0.02589 0.25645 0.0
H364 H 0.60136 0.03511 0.30608 0.0
H365 H 0.55507 0.0328 0.30045 0.0
C366 C 0.55761 0.59365 0.61773 0.0
C367 C 0.58341 0.59346 0.61424 0.0
C368 C 0.5313 0.5688 0.61263 0.0
C369 C 0.49869 0.49466 0.58155 0.0
H370 H 0.43656 0.48 0.63422 0.0
C371 C 0.40319 0.38276 0.61035 0.0
C372 C 0.3757 0.37966 0.60905 0.0
C373 C 0.42757 0.4096 0.6061 0.0
C374 C 0.45363 0.48402 0.61914 0.0
H375 H 0.6021 0.56736 0.60245 0.0
H376 H 0.55636 0.5237 0.59498 0.0
H377 H 0.48116 0.52578 0.63645 0.0
H378 H 0.35203 0.40194 0.60174 0.0
H379 H 0.3949 0.44915 0.59522 0.0
H380 H 0.47137 0.45188 0.56567 0.0
C381 C 0.55621 0.54314 0.60063 0.0
C382 C 0.47919 0.51031 0.62025 0.0
C383 C 0.5825 0.56814 0.60514 0.0
C384 C 0.37298 0.40373 0.60279 0.0
C385 C 0.39741 0.43069 0.59914 0.0
C386 C 0.47331 0.46813 0.58087 0.0
C387 C 0.53022 0.54305 0.60455 0.0
C388 C 0.50222 0.51589 0.6017 0.0
C389 C 0.42487 0.43383 0.60103 0.0
C390 C 0.45072 0.46256 0.59984 0.0
H391 H 0.55774 0.61302 0.62439 0.0
H392 H 0.51183 0.5698 0.61522 0.0
H393 H 0.51564 0.49835 0.56646 0.0
H394 H 0.40587 0.36452 0.615 0.0
H395 H 0.44859 0.41162 0.60785 0.0
C396 C -6e-05 0.59199 0.92149 0.0
C397 C 0.97352 0.59083 0.92536 0.0
C398 C 0.00093 0.56684 0.91705 0.0
C399 C 0.95644 0.48842 0.92938 0.0
H400 H 0.01907 0.4874 0.88874 0.0
C401 C 0.96556 0.38657 0.9196 0.0
C402 C -0.00891 0.39012 0.93177 0.0
C403 C 0.96269 0.41043 0.91362 0.0
C404 C 0.00141 0.48744 0.90001 0.0
H405 H 0.92735 0.5629 0.92574 0.0
H406 H 0.92887 0.51913 0.91652 0.0
H407 H 0.01438 0.53021 0.88648 0.0
H408 H 0.03411 0.42132 0.94586 0.0
H409 H 0.02924 0.46311 0.93476 0.0
H410 H 0.94341 0.44546 0.94253 0.0
C411 C 0.94896 0.53922 0.91813 0.0
C412 C -0.00121 0.51197 0.89894 0.0
C413 C 0.94803 0.56431 0.92321 0.0
C414 C 0.01414 0.41797 0.93663 0.0
C415 C 0.01145 0.44185 0.93012 0.0
C416 C 0.95877 0.46376 0.92994 0.0
C417 C 0.97545 0.54003 0.9158 0.0
C418 C 0.97661 0.513 0.91415 0.0
C419 C -0.0145 0.43822 0.91914 0.0
C420 C 0.98156 0.46328 0.91574 0.0
H421 H 0.01995 0.61218 0.92321 0.0
H422 H 0.02176 0.56842 0.91584 0.0
H423 H 0.93943 0.48846 0.94188 0.0
H424 H 0.94743 0.36533 0.91565 0.0
H425 H 0.9425 0.40719 0.90511 0.0
C426 C 0.0262 0.60292 0.38545 0.0
C427 C 0.00053 0.60366 0.38634 0.0
C428 C 0.0262 0.57752 0.39156 0.0
C429 C 0.97994 0.50287 0.42003 0.0
H430 H 0.02898 0.48702 0.37101 0.0
C431 C 0.95925 0.39022 0.38816 0.0
C432 C 0.98256 0.38546 0.39042 0.0
C433 C 0.96299 0.41739 0.39366 0.0
C434 C 0.01548 0.49135 0.38514 0.0
H435 H 0.95481 0.57872 0.39476 0.0
H436 H 0.95444 0.53412 0.40394 0.0
H437 H 0.0329 0.53396 0.36901 0.0
H438 H 0.02784 0.40505 0.40092 0.0
H439 H 0.03451 0.45287 0.40964 0.0
H440 H 0.96129 0.45926 0.43452 0.0
C441 C 0.97483 0.55323 0.39957 0.0
C442 C 0.01778 0.51831 0.38415 0.0
C443 C 0.97496 0.57877 0.39407 0.0
C444 C 0.00949 0.40812 0.39907 0.0
C445 C 0.01335 0.43543 0.40399 0.0
C446 C 0.97727 0.47569 0.42055 0.0
C447 C 0.0004 0.55215 0.39803 0.0
C448 C -0.00024 0.52433 0.40127 0.0
C449 C -0.0098 0.44032 0.40096 0.0
C450 C -0.00519 0.46967 0.40285 0.0
H451 H 0.04629 0.62195 0.37992 0.0
H452 H 0.04642 0.57775 0.39085 0.0
H453 H 0.96614 0.50686 0.43401 0.0
H454 H 0.93823 0.37308 0.38167 0.0
H455 H 0.9449 0.42077 0.39098 0.0
C456 C 0.57358 0.98239 0.7248 0.0
C457 C 0.58014 0.96834 0.70299 0.0
C458 C 0.54526 0.97582 0.72927 0.0
C459 C 0.47613 0.9457 0.6909 0.0
H460 H 0.44702 0.94713 0.7676 0.0
C461 C 0.36272 0.92866 0.70687 0.0
C462 C 0.3619 0.95004 0.72365 0.0
C463 C 0.38716 0.92585 0.70693 0.0
C464 C 0.45488 0.94664 0.74606 0.0
H465 H 0.56208 0.93566 0.66943 0.0
H466 H 0.51264 0.92388 0.67754 0.0
H467 H 0.49431 0.95166 0.76262 0.0
H468 H 0.38536 0.98418 0.7549 0.0
H469 H 0.42795 0.9793 0.75493 0.0
H470 H 0.43696 0.94118 0.67432 0.0
C471 C 0.52942 0.94039 0.69081 0.0
C472 C 0.48197 0.94933 0.74319 0.0
C473 C 0.55775 0.94708 0.68623 0.0
C474 C 0.38539 0.96758 0.7416 0.0
C475 C 0.40972 0.96466 0.74179 0.0
C476 C 0.44902 0.94286 0.69379 0.0
C477 C 0.52288 0.95493 0.71214 0.0
C478 C 0.49312 0.94943 0.71553 0.0
C479 C 0.41112 0.94423 0.72394 0.0
C480 C 0.43835 0.94383 0.72135 0.0
H481 H 0.59037 -0.0011 0.73807 0.0
H482 H 0.54104 0.98772 0.7456 0.0
H483 H 0.48421 0.94612 0.66925 0.0
H484 H 0.3449 0.91472 0.69291 0.0
H485 H 0.38756 0.90971 0.6932 0.0
C486 C 0.40174 0.39124 0.05248 0.0
C487 C 0.37617 0.39053 0.04481 0.0
C488 C 0.42696 0.41741 0.05658 0.0
C489 C 0.4592 0.49481 0.03853 0.0
H490 H 0.52015 0.50138 0.0887 0.0
C491 C 0.56734 0.60004 0.05798 0.0
C492 C 0.59017 0.59784 0.04598 0.0
C493 C 0.54055 0.57548 0.062 0.0
C494 C 0.50315 0.49977 0.07481 0.0
H495 H 0.35638 0.41636 0.03683 0.0
H496 H 0.39999 0.46209 0.04548 0.0
H497 H 0.47349 0.45728 0.08916 0.0
H498 H 0.60345 0.5684 0.03 0.0
H499 H 0.55671 0.52528 0.038 0.0
H500 H 0.48901 0.53771 0.02483 0.0
C501 C 0.40103 0.44258 0.04716 0.0
C502 C 0.47653 0.47449 0.07478 0.0
C503 C 0.37595 0.41638 0.04238 0.0
C504 C 0.58613 0.57064 0.03914 0.0
C505 C 0.55956 0.54605 0.04384 0.0
C506 C 0.48559 0.52028 0.03911 0.0
C507 C 0.42704 0.44349 0.05375 0.0
C508 C 0.45438 0.4714 0.05613 0.0
C509 C 0.53651 0.54839 0.05482 0.0
C510 C 0.50786 0.52269 0.0568 0.0
H511 H 0.40252 0.37157 0.05431 0.0
H512 H 0.44655 0.41709 0.06102 0.0
H513 H 0.44303 0.49321 0.02345 0.0
H514 H 0.56991 0.6208 0.06332 0.0
H515 H 0.52291 0.57761 0.07042 0.0
C516 C 0.06008 0.76067 0.37925 0.0
C517 C 0.06125 0.73624 0.38771 0.0
C518 C 0.08345 0.78342 0.36548 0.0
C519 C 0.16043 0.81436 0.34698 0.0
H520 H 0.13918 0.8458 0.28198 0.0
C521 C 0.24547 0.90076 0.27236 0.0
C522 C 0.24337 0.92573 0.2723 0.0
C523 C 0.22244 0.87481 0.28214 0.0
C524 C 0.14538 0.8371 0.29998 0.0
H525 H 0.08836 0.71716 0.39017 0.0
H526 H 0.12917 0.7568 0.36572 0.0
H527 H 0.10181 0.80748 0.31106 0.0
H528 H 0.21516 0.94291 0.2799 0.0
H529 H 0.17471 0.89751 0.2961 0.0
H530 H 0.2041 0.84418 0.33571 0.0
C531 C 0.11031 0.75853 0.36995 0.0
C532 C 0.12404 0.81539 0.31685 0.0
C533 C 0.08697 0.73586 0.38409 0.0
C534 C 0.21721 0.92389 0.2797 0.0
C535 C 0.1941 0.89792 0.28895 0.0
C536 C 0.18181 0.83593 0.3299 0.0
C537 C 0.10835 0.78204 0.3595 0.0
C538 C 0.1313 0.80422 0.34095 0.0
C539 C 0.19691 0.87346 0.2914 0.0
C540 C 0.17444 0.84785 0.3066 0.0
H541 H 0.04055 0.76157 0.38199 0.0
H542 H 0.08159 0.80164 0.35856 0.0
H543 H 0.16675 0.80631 0.36543 0.0
H544 H 0.26554 0.90172 0.26703 0.0
H545 H 0.22499 0.85613 0.28366 0.0
C546 C 0.34448 0.24849 0.59784 0.0
C547 C 0.32236 0.25071 0.61165 0.0
C548 C 0.35326 0.2298 0.60869 0.0
C549 C 0.35341 0.19393 0.67653 0.0
H550 H 0.3599 0.13894 0.62746 0.0
C551 C 0.34025 0.08827 0.7191 0.0
C552 C 0.35521 0.07625 0.70566 0.0
C553 C 0.34326 0.11408 0.70905 0.0
C554 C 0.35886 0.15459 0.64142 0.0
H555 H 0.29129 0.23413 0.64686 0.0
H556 H 0.30652 0.20176 0.66548 0.0
H557 H 0.3509 0.17493 0.60543 0.0
H558 H 0.3868 0.08301 0.67263 0.0
H559 H 0.39221 0.12825 0.65529 0.0
H560 H 0.3606 0.17325 0.71257 0.0
C561 C 0.31744 0.21477 0.64667 0.0
C562 C 0.3536 0.17512 0.62877 0.0
C563 C 0.30857 0.23318 0.6358 0.0
C564 C 0.37479 0.0916 0.68333 0.0
C565 C 0.37777 0.11742 0.67324 0.0
C566 C 0.35878 0.17354 0.68915 0.0
C567 C 0.3402 0.21328 0.63361 0.0
C568 C 0.34991 0.19434 0.64631 0.0
C569 C 0.36133 0.12844 0.68539 0.0
C570 C 0.36066 0.15307 0.67181 0.0
H571 H 0.35553 0.26174 0.57922 0.0
H572 H 0.37079 0.2289 0.59816 0.0
H573 H 0.35122 0.20892 0.6905 0.0
H574 H 0.32505 0.07703 0.73639 0.0
H575 H 0.33009 0.12185 0.71875 0.0
C576 C 0.22062 0.29603 0.04083 0.0
C577 C 0.24511 0.32117 0.05037 0.0
C578 C 0.19736 0.29723 0.02913 0.0
C579 C 0.18245 0.34562 0.98803 0.0
H580 H 0.10276 0.28979 0.00356 0.0
C581 C 0.08663 0.35055 0.93675 0.0
C582 C 0.06122 0.32443 0.93175 0.0
C583 C 0.11017 0.35085 0.94996 0.0
C584 C 0.12492 0.30526 -0.0014 0.0
H585 H 0.26393 0.36706 0.05655 0.0
H586 H 0.22315 0.36917 0.03579 0.0
H587 H 0.14041 0.28942 0.03259 0.0
H588 H 0.04137 0.27814 0.93402 0.0
H589 H 0.08278 0.27857 0.9559 0.0
H590 H 0.16709 0.36105 0.95356 0.0
C591 C 0.2221 0.34859 0.03738 0.0
C592 C 0.14642 0.30519 0.01545 0.0
C593 C 0.24526 0.34732 0.04951 0.0
C594 C 0.06061 0.2986 0.93789 0.0
C595 C 0.08421 0.29887 0.95075 0.0
C596 C 0.16093 0.34555 0.97097 0.0
C597 C 0.19828 0.32365 0.02642 0.0
C598 C 0.17539 0.32524 0.01022 0.0
C599 C 0.10879 0.325 0.95809 0.0
C600 C 0.13191 0.3252 0.97591 0.0
H601 H 0.21995 0.27558 0.04126 0.0
H602 H 0.17931 0.2777 0.02074 0.0
H603 H 0.20468 0.36105 0.98327 0.0
H604 H 0.08767 0.37083 0.93243 0.0
H605 H 0.12873 0.37136 0.95534 0.0
C606 C 0.8828 0.25287 0.38814 0.0
C607 C 0.9078 0.25088 0.39002 0.0
C608 C 0.85821 0.23108 0.37461 0.0
C609 C 0.83984 0.17552 0.31904 0.0
H610 H 0.76115 0.14704 0.34324 0.0
C611 C 0.74471 0.0704 0.27787 0.0
C612 C 0.71808 0.06878 0.27375 0.0
C613 C 0.76811 0.09546 0.28847 0.0
C614 C 0.78302 0.15521 0.33595 0.0
H615 H 0.92592 0.2235 0.38193 0.0
H616 H 0.88287 0.18523 0.3592 0.0
H617 H 0.80047 0.18358 0.37244 0.0
H618 H 0.69549 0.09266 0.27573 0.0
H619 H 0.7366 0.13664 0.2944 0.0
H620 H 0.8225 0.14678 0.28294 0.0
C621 C 0.88249 0.20396 0.36718 0.0
C622 C 0.8055 0.17599 0.35274 0.0
C623 C 0.90703 0.22573 0.38048 0.0
C624 C 0.71579 0.09332 0.27863 0.0
C625 C 0.73919 0.11837 0.28957 0.0
C626 C 0.81744 0.15476 0.30235 0.0
C627 C 0.85828 0.20697 0.36296 0.0
C628 C 0.83415 0.18591 0.34475 0.0
C629 C 0.7653 0.11935 0.29537 0.0
C630 C 0.78883 0.14401 0.3109 0.0
H631 H 0.88284 0.27209 0.39518 0.0
H632 H 0.83983 0.23395 0.37174 0.0
H633 H 0.86169 0.18335 0.31186 0.0
H634 H 0.7471 0.05182 0.27423 0.0
H635 H 0.78791 0.09552 0.29288 0.0
C636 C 0.67984 0.74931 0.6125 0.0
C637 C 0.65432 0.72434 0.60464 0.0
C638 C 0.67923 0.77365 0.62182 0.0
C639 C 0.63304 0.79221 0.66108 0.0
H640 H 0.68621 0.87025 0.63703 0.0
C641 C 0.62832 0.88986 0.7065 0.0
C642 C 0.65416 0.91609 0.70892 0.0
C643 C 0.62799 0.8661 0.69387 0.0
C644 C 0.67152 0.84863 0.64437 0.0
H645 H 0.60836 0.70559 0.59901 0.0
H646 H 0.60726 0.74818 0.61585 0.0
H647 H 0.68595 0.8303 0.61177 0.0
H648 H 0.70014 0.93756 0.70191 0.0
H649 H 0.69981 0.89579 0.68116 0.0
H650 H 0.61929 0.81029 0.69439 0.0
C651 C 0.62768 0.74883 0.61463 0.0
C652 C 0.67121 0.8258 0.62966 0.0
C653 C 0.62837 0.72462 0.60479 0.0
C654 C 0.67987 0.91765 0.7001 0.0
C655 C 0.67961 0.89379 0.68789 0.0
C656 C 0.63362 0.81504 0.67609 0.0
C657 C 0.65303 0.77327 0.62387 0.0
C658 C 0.65201 0.79742 0.63793 0.0
C659 C 0.65356 0.86797 0.68378 0.0
C660 C 0.65296 0.84356 0.66801 0.0
H661 H 0.70014 0.74965 0.61254 0.0
H662 H 0.69903 0.79221 0.62894 0.0
H663 H 0.61836 0.77047 0.66817 0.0
H664 H 0.60812 0.88808 0.71288 0.0
H665 H 0.60749 0.8467 0.69087 0.0
C666 C 0.72151 0.62796 0.04303 0.0
C667 C 0.72362 0.65453 0.04908 0.0
C668 C 0.74465 0.6269 0.03054 0.0
C669 C 0.82229 0.66921 0.01602 0.0
H670 H 0.80383 0.62518 0.94454 0.0
C671 C 0.91129 0.68628 0.93768 0.0
C672 C 0.91042 0.66157 0.92663 0.0
C673 C 0.88723 0.68447 0.95111 0.0
C674 C 0.80931 0.63732 0.9646 0.0
H675 H 0.75211 0.70066 0.04895 0.0
H676 H 0.79258 0.69878 0.02772 0.0
H677 H 0.76519 0.62225 0.97489 0.0
H678 H 0.88324 0.61591 0.91911 0.0
H679 H 0.84117 0.6126 0.94297 0.0
H680 H 0.8663 0.68427 0.00599 0.0
C681 C 0.77306 0.6788 0.03235 0.0
C682 C 0.7872 0.63555 0.98202 0.0
C683 C 0.74988 0.67988 0.04445 0.0
C684 C 0.88442 0.63535 0.92726 0.0
C685 C 0.86035 0.63345 0.94103 0.0
C686 C 0.84434 0.67084 -0.00124 0.0
C687 C 0.77035 0.65237 0.02438 0.0
C688 C 0.79354 0.65181 0.00767 0.0
C689 C 0.86191 0.65782 0.95411 0.0
C690 C 0.83815 0.65531 0.97258 0.0
H691 H 0.70149 0.60807 0.04627 0.0
H692 H 0.74217 0.60624 0.02489 0.0
H693 H 0.82774 0.68172 0.03585 0.0
H694 H 0.93104 0.70681 0.93724 0.0
H695 H 0.88885 0.7038 0.96015 0.0
C696 C 0.2832 0.967 0.40707 0.0
C697 C 0.28968 -0.00873 0.39027 0.0
C698 C 0.28034 0.96748 0.43713 0.0
C699 C 0.29926 0.01746 0.49925 0.0
H700 H 0.24465 0.94816 0.53976 0.0
C701 C 0.28039 0.01397 0.62302 0.0
C702 C 0.28291 -0.00756 0.63766 0.0
C703 C 0.27857 0.01372 0.59275 0.0
C704 C 0.26 0.96763 0.52868 0.0
H705 H 0.29782 0.03497 0.39169 0.0
H706 H 0.29202 0.0356 0.44424 0.0
H707 H 0.24616 0.94847 0.48678 0.0
H708 H 0.28452 0.95325 0.63225 0.0
H709 H 0.28079 0.95256 0.57929 0.0
H710 H 0.31278 0.0366 0.54132 0.0
C711 C 0.28981 0.01638 0.43425 0.0
C712 C 0.261 0.96782 0.49837 0.0
C713 C 0.29301 0.016 0.40412 0.0
C714 C 0.28264 0.97014 0.62154 0.0
C715 C 0.28038 0.96967 0.59129 0.0
C716 C 0.29797 0.01736 0.52955 0.0
C717 C 0.28353 -0.00787 0.45113 0.0
C718 C 0.28099 -0.0074 0.48327 0.0
C719 C 0.27878 -0.0083 0.57662 0.0
C720 C 0.27863 -0.00768 0.54452 0.0
H721 H 0.28071 0.94767 0.39706 0.0
H722 H 0.27614 0.94862 0.44943 0.0
H723 H 0.31521 0.03679 0.48844 0.0
H724 H 0.28065 0.0315 0.63485 0.0
H725 H 0.27717 0.03084 0.58192 0.0
C726 C 0.31193 0.29754 0.93452 0.0
C727 C 0.29113 0.27482 0.95128 0.0
C728 C 0.30845 0.29822 0.90455 0.0
C729 C 0.25224 0.26942 0.84794 0.0
H730 H 0.31761 0.30002 0.79585 0.0
C731 C 0.24386 0.26605 0.72211 0.0
C732 C 0.26398 0.29083 0.70721 0.0
C733 C 0.24575 0.26405 0.75222 0.0
C734 C 0.2992 0.29169 0.8102 0.0
H735 H 0.25093 0.23437 0.94958 0.0
H736 H 0.24521 0.2352 0.89709 0.0
H737 H 0.32448 0.29492 0.84734 0.0
H738 H 0.30098 0.33351 0.71239 0.0
H739 H 0.30421 0.32993 0.76487 0.0
H740 H 0.22697 0.26588 0.8105 0.0
C741 C 0.26388 0.25285 0.90724 0.0
C742 C 0.30312 0.28876 0.83969 0.0
C743 C 0.26728 0.25226 0.93728 0.0
C744 C 0.28521 0.31406 0.72318 0.0
C745 C 0.28721 0.31196 0.7532 0.0
C746 C 0.2483 0.27216 0.81836 0.0
C747 C 0.28419 0.27608 0.89059 0.0
C748 C 0.27974 0.27781 0.85897 0.0
C749 C 0.2679 0.28671 0.76791 0.0
C750 C 0.2718 0.28356 0.79927 0.0
H751 H 0.3305 0.31534 0.94464 0.0
H752 H 0.32435 0.31662 0.89248 0.0
H753 H 0.23384 0.26133 0.86225 0.0
H754 H 0.22721 0.24781 0.71044 0.0
H755 H 0.23061 0.24431 0.76303 0.0
C756 C 0.00646 0.32053 0.2704 0.0
C757 C 0.97959 0.30762 0.28427 0.0
C758 C 0.00821 0.32148 0.24009 0.0
C759 C 0.96686 0.3169 0.17441 0.0
H760 H 0.02013 0.29922 0.13569 0.0
C761 C 0.96516 0.30032 0.05032 0.0
C762 C -0.00811 0.31251 0.03625 0.0
C763 C 0.96365 0.29981 0.08065 0.0
C764 C 0.00536 0.30451 0.14619 0.0
H765 H 0.9335 0.28557 0.27721 0.0
H766 H 0.9366 0.28707 0.22448 0.0
H767 H 0.01793 0.29872 0.18862 0.0
H768 H 0.038 0.33383 0.04294 0.0
H769 H 0.03534 0.3332 0.09569 0.0
H770 H 0.9543 0.32273 0.132 0.0
C771 C 0.95631 0.29675 0.23698 0.0
C772 C 0.00413 0.30424 0.17649 0.0
C773 C 0.95456 0.29576 0.26723 0.0
C774 C 0.01704 0.32418 0.05309 0.0
C775 C 0.01553 0.32368 0.08335 0.0
C776 C 0.96811 0.3172 0.14411 0.0
C777 C 0.98313 0.3096 0.22308 0.0
C778 C 0.98483 0.31039 0.19092 0.0
C779 C -0.01116 0.31147 0.09748 0.0
C780 C -0.01264 0.31099 0.12967 0.0
H781 H 0.02614 0.32991 0.28293 0.0
H782 H 0.02919 0.33178 0.22996 0.0
H783 H 0.95205 0.32212 0.18493 0.0
H784 H 0.94539 0.29109 0.03795 0.0
H785 H 0.94274 0.28995 0.09091 0.0
C786 C 0.66342 0.98117 0.3903 0.0
C787 C 0.68586 0.98291 0.37319 0.0
C788 C 0.66717 0.98653 0.42009 0.0
C789 C 0.70985 0.98849 0.48289 0.0
H790 H 0.68456 0.03857 0.51549 0.0
C791 C 0.72581 0.01956 0.60413 0.0
C792 C 0.70193 0.01805 0.61823 0.0
C793 C 0.72661 0.01839 0.57383 0.0
C794 C 0.69154 0.02439 0.50678 0.0
H795 H 0.7295 -0.00935 0.37408 0.0
H796 H 0.73589 -0.00027 0.42633 0.0
H797 H 0.67973 0.02869 0.46347 0.0
H798 H 0.66064 0.01518 0.61158 0.0
H799 H 0.66184 0.0127 0.55896 0.0
H800 H 0.72098 0.98354 0.52625 0.0
C801 C 0.71547 -0.00569 0.41657 0.0
C802 C 0.68878 0.01874 0.47701 0.0
C803 C 0.7118 0.98916 0.38668 0.0
C804 C 0.67939 0.01645 0.6014 0.0
C805 C 0.68015 0.01517 0.57117 0.0
C806 C 0.71245 -0.00602 0.51273 0.0
C807 C 0.69334 -0.00647 0.43345 0.0
C808 C 0.69756 0.00045 0.46483 0.0
C809 C 0.70353 0.01563 0.55704 0.0
C810 C 0.70299 0.01171 0.52507 0.0
H811 H 0.64315 0.97637 0.38061 0.0
H812 H 0.64959 0.98532 0.43269 0.0
H813 H 0.71663 0.97417 0.47408 0.0
H814 H 0.74359 0.02095 0.61649 0.0
H815 H 0.74516 0.01928 0.56358 0.0
C816 C 0.66058 0.68432 0.93735 0.0
C817 C 0.68373 0.70547 0.95343 0.0
C818 C 0.66262 0.68267 0.90727 0.0
C819 C 0.71634 0.70333 0.84887 0.0
H820 H 0.65051 0.68137 0.79891 0.0
C821 C 0.72107 0.70215 0.72302 0.0
C822 C 0.69822 0.67856 0.70898 0.0
C823 C 0.72029 0.70583 0.753 0.0
C824 C 0.66899 0.68727 0.81265 0.0
H825 H 0.72681 0.74217 0.95042 0.0
H826 H 0.73015 0.73965 0.89777 0.0
H827 H 0.64689 0.6887 0.85063 0.0
H828 H 0.6571 0.63981 0.71554 0.0
H829 H 0.65584 0.64627 0.7678 0.0
H830 H 0.73845 0.70207 0.81068 0.0
C831 C 0.71064 0.72396 0.90853 0.0
C832 C 0.66694 0.69148 0.84227 0.0
C833 C 0.70864 0.72553 0.93867 0.0
C834 C 0.67502 0.65827 0.72566 0.0
C835 C 0.67417 0.66206 0.75556 0.0
C836 C 0.71844 0.6993 0.81918 0.0
C837 C 0.68781 0.70224 0.89254 0.0
C838 C 0.6905 0.6993 0.86078 0.0
C839 C 0.69658 0.6861 0.76945 0.0
C840 C 0.6947 0.69095 0.80084 0.0
H841 H 0.64112 0.66846 0.94807 0.0
H842 H 0.64476 0.66546 0.8957 0.0
H843 H 0.73476 0.70892 0.86259 0.0
H844 H 0.73926 0.71815 0.71078 0.0
H845 H 0.73781 0.72462 0.76314 0.0
C846 C 0.01633 0.69086 0.26475 0.0
C847 C -0.00867 0.67697 0.28177 0.0
C848 C 0.01461 0.68965 0.23451 0.0
C849 C 0.96543 0.67689 0.17366 0.0
H850 H 0.01946 0.66368 0.13013 0.0
C851 C 0.95405 0.65504 0.05054 0.0
C852 C 0.97922 0.66829 0.03373 0.0
C853 C 0.95555 0.65602 0.08081 0.0
C854 C 0.00445 0.66773 0.14195 0.0
H855 H 0.94487 0.65104 0.2804 0.0
H856 H 0.94188 0.64884 0.2274 0.0
H857 H 0.0217 0.66534 0.18305 0.0
H858 H 0.02574 0.69296 0.03548 0.0
H859 H 0.02835 0.69494 0.08844 0.0
H860 H 0.94824 0.67942 0.13258 0.0
C861 C 0.96279 0.66084 0.23755 0.0
C862 C 0.0057 0.66863 0.17225 0.0
C863 C 0.96451 0.66198 0.26788 0.0
C864 C 0.00596 0.68246 0.04783 0.0
C865 C 0.00746 0.68348 0.07816 0.0
C866 C 0.96421 0.67605 0.14335 0.0
C867 C -0.01215 0.67458 0.22058 0.0
C868 C -0.01378 0.67325 0.18842 0.0
C869 C 0.98225 0.67032 0.09497 0.0
C870 C 0.9837 0.67144 0.12716 0.0
H871 H 0.03733 0.7027 0.27475 0.0
H872 H 0.03426 0.7008 0.22202 0.0
H873 H 0.9504 0.6809 0.18553 0.0
H874 H 0.93309 0.64383 0.04037 0.0
H875 H 0.93575 0.64529 0.09312 0.0
loop_
_geom_bond_atom_site_label_1
_geom_bond_atom_site_label_2
_geom_bond_distance
_geom_bond_site_symmetry_2
_ccdc_geom_bond_type
C0 O1 1.160 . S
C0 O7 1.185 . S
O1 C0 1.160 . S
O2 Zn3 1.899 1_565 S
O2 C10 1.284 . S
Zn3 O2 1.899 1_545 S
Zn3 O4 2.032 . S
Zn3 O7 2.086 . S
Zn3 O12 1.977 . S
O4 Zn3 2.032 . S
O4 C8 1.278 1_545 S
C5 O6 1.203 1_545 S
C5 O12 1.267 . S
O6 C5 1.203 1_565 S
O7 C0 1.185 . S
O7 Zn3 2.086 . S
C8 O4 1.278 1_565 S
C8 O9 1.211 . S
O9 C8 1.211 . S
C10 O2 1.284 . S
C10 O11 1.273 . S
O11 C10 1.273 . S
O12 Zn3 1.977 . S
O12 C5 1.267 . S
C13 O14 1.160 . S
C13 O20 1.185 . S
O14 C13 1.160 . S
O15 Zn16 1.899 . S
O15 C23 1.284 . S
Zn16 O15 1.899 . S
Zn16 O17 2.032 . S
Zn16 O20 2.086 . S
Zn16 O25 1.977 . S
O17 Zn16 2.032 . S
O17 C21 1.278 . S
C18 O19 1.203 . S
C18 O25 1.267 . S
O19 C18 1.203 . S
O20 C13 1.185 . S
O20 Zn16 2.086 . S
C21 O17 1.278 . S
C21 O22 1.211 . S
O22 C21 1.211 . S
C23 O15 1.284 . S
C23 O24 1.273 . S
O24 C23 1.273 . S
O25 Zn16 1.977 . S
O25 C18 1.267 . S
C26 O27 1.160 . S
C26 O33 1.185 . S
O27 C26 1.160 . S
O28 Zn29 1.899 1_455 S
O28 C36 1.284 . S
Zn29 O28 1.899 1_655 S
Zn29 O30 2.032 . S
Zn29 O33 2.086 . S
Zn29 O38 1.977 1_556 S
O30 Zn29 2.032 . S
O30 C34 1.278 1_655 S
C31 O32 1.203 1_655 S
C31 O38 1.267 . S
O32 C31 1.203 1_455 S
O33 C26 1.185 . S
O33 Zn29 2.086 . S
C34 O30 1.278 1_455 S
C34 O35 1.211 . S
O35 C34 1.211 . S
C36 O28 1.284 . S
C36 O37 1.273 . S
O37 C36 1.273 . S
O38 Zn29 1.977 1_554 S
O38 C31 1.267 . S
C39 O40 1.160 . S
C39 O46 1.185 . S
O40 C39 1.160 . S
O41 Zn42 1.899 1_545 S
O41 C49 1.284 . S
Zn42 O41 1.899 1_565 S
Zn42 O43 2.032 . S
Zn42 O46 2.086 . S
Zn42 O51 1.977 . S
O43 Zn42 2.032 . S
O43 C47 1.278 1_565 S
C44 O45 1.203 1_565 S
C44 O51 1.267 . S
O45 C44 1.203 1_545 S
O46 C39 1.185 . S
O46 Zn42 2.086 . S
C47 O43 1.278 1_545 S
C47 O48 1.211 . S
O48 C47 1.211 . S
C49 O41 1.284 . S
C49 O50 1.273 . S
O50 C49 1.273 . S
O51 Zn42 1.977 . S
O51 C44 1.267 . S
C52 O53 1.160 . S
C52 O59 1.185 . S
O53 C52 1.160 . S
O54 Zn55 1.899 . S
O54 C62 1.284 . S
Zn55 O54 1.899 . S
Zn55 O56 2.032 . S
Zn55 O59 2.086 . S
Zn55 O64 1.977 . S
O56 Zn55 2.032 . S
O56 C60 1.278 . S
C57 O58 1.203 . S
C57 O64 1.267 . S
O58 C57 1.203 . S
O59 C52 1.185 . S
O59 Zn55 2.086 . S
C60 O56 1.278 . S
C60 O61 1.211 . S
O61 C60 1.211 . S
C62 O54 1.284 . S
C62 O63 1.273 . S
O63 C62 1.273 . S
O64 Zn55 1.977 . S
O64 C57 1.267 . S
C65 O66 1.160 . S
C65 O72 1.185 . S
O66 C65 1.160 . S
O67 Zn68 1.899 1_655 S
O67 C75 1.284 . S
Zn68 O67 1.899 1_455 S
Zn68 O69 2.032 . S
Zn68 O72 2.086 . S
Zn68 O77 1.977 1_556 S
O69 Zn68 2.032 . S
O69 C73 1.278 1_455 S
C70 O71 1.203 1_455 S
C70 O77 1.267 . S
O71 C70 1.203 1_655 S
O72 C65 1.185 . S
O72 Zn68 2.086 . S
C73 O69 1.278 1_655 S
C73 O74 1.211 . S
O74 C73 1.211 . S
C75 O67 1.284 . S
C75 O76 1.273 . S
O76 C75 1.273 . S
O77 Zn68 1.977 1_554 S
O77 C70 1.267 . S
C78 O79 1.160 . S
C78 O85 1.185 . S
O79 C78 1.160 . S
O80 Zn81 1.899 1_455 S
O80 C88 1.284 . S
Zn81 O80 1.899 1_655 S
Zn81 O82 2.032 . S
Zn81 O85 2.086 . S
Zn81 O90 1.977 . S
O82 Zn81 2.032 . S
O82 C86 1.278 1_655 S
C83 O84 1.203 1_655 S
C83 O90 1.267 . S
O84 C83 1.203 1_455 S
O85 C78 1.185 . S
O85 Zn81 2.086 . S
C86 O82 1.278 1_455 S
C86 O87 1.211 . S
O87 C86 1.211 . S
C88 O80 1.284 . S
C88 O89 1.273 . S
O89 C88 1.273 . S
O90 Zn81 1.977 . S
O90 C83 1.267 . S
C91 O92 1.160 . S
C91 O98 1.185 . S
O92 C91 1.160 . S
O93 Zn94 1.899 1_545 S
O93 C101 1.284 . S
Zn94 O93 1.899 1_565 S
Zn94 O95 2.032 . S
Zn94 O98 2.086 . S
Zn94 O103 1.977 . S
O95 Zn94 2.032 . S
O95 C99 1.278 1_565 S
C96 O97 1.203 1_565 S
C96 O103 1.267 . S
O97 C96 1.203 1_545 S
O98 C91 1.185 . S
O98 Zn94 2.086 . S
C99 O95 1.278 1_545 S
C99 O100 1.211 . S
O100 C99 1.211 . S
C101 O93 1.284 . S
C101 O102 1.273 . S
O102 C101 1.273 . S
O103 Zn94 1.977 . S
O103 C96 1.267 . S
C104 O105 1.160 . S
C104 O111 1.185 . S
O105 C104 1.160 . S
O106 Zn107 1.899 . S
O106 C114 1.284 . S
Zn107 O106 1.899 . S
Zn107 O108 2.032 . S
Zn107 O111 2.086 . S
Zn107 O116 1.977 1_554 S
O108 Zn107 2.032 . S
O108 C112 1.278 . S
C109 O110 1.203 . S
C109 O116 1.267 . S
O110 C109 1.203 . S
O111 C104 1.185 . S
O111 Zn107 2.086 . S
C112 O108 1.278 . S
C112 O113 1.211 . S
O113 C112 1.211 . S
C114 O106 1.284 . S
C114 O115 1.273 . S
O115 C114 1.273 . S
O116 Zn107 1.977 1_556 S
O116 C109 1.267 . S
C117 O118 1.160 . S
C117 O124 1.185 . S
O118 C117 1.160 . S
O119 Zn120 1.899 1_655 S
O119 C127 1.284 . S
Zn120 O119 1.899 1_455 S
Zn120 O121 2.032 . S
Zn120 O124 2.086 . S
Zn120 O129 1.977 . S
O121 Zn120 2.032 . S
O121 C125 1.278 1_455 S
C122 O123 1.203 1_455 S
C122 O129 1.267 . S
O123 C122 1.203 1_655 S
O124 C117 1.185 . S
O124 Zn120 2.086 . S
C125 O121 1.278 1_655 S
C125 O126 1.211 . S
O126 C125 1.211 . S
C127 O119 1.284 . S
C127 O128 1.273 . S
O128 C127 1.273 . S
O129 Zn120 1.977 . S
O129 C122 1.267 . S
C130 O131 1.160 . S
C130 O137 1.185 . S
O131 C130 1.160 . S
O132 Zn133 1.899 1_565 S
O132 C140 1.284 . S
Zn133 O132 1.899 1_545 S
Zn133 O134 2.032 . S
Zn133 O137 2.086 . S
Zn133 O142 1.977 . S
O134 Zn133 2.032 . S
O134 C138 1.278 1_545 S
C135 O136 1.203 1_545 S
C135 O142 1.267 . S
O136 C135 1.203 1_565 S
O137 C130 1.185 . S
O137 Zn133 2.086 . S
C138 O134 1.278 1_565 S
C138 O139 1.211 . S
O139 C138 1.211 . S
C140 O132 1.284 . S
C140 O141 1.273 . S
O141 C140 1.273 . S
O142 Zn133 1.977 . S
O142 C135 1.267 . S
C143 O144 1.160 . S
C143 O150 1.185 . S
O144 C143 1.160 . S
O145 Zn146 1.899 . S
O145 C153 1.284 . S
Zn146 O145 1.899 . S
Zn146 O147 2.032 . S
Zn146 O150 2.086 . S
Zn146 O155 1.977 1_554 S
O147 Zn146 2.032 . S
O147 C151 1.278 . S
C148 O149 1.203 . S
C148 O155 1.267 . S
O149 C148 1.203 . S
O150 C143 1.185 . S
O150 Zn146 2.086 . S
C151 O147 1.278 . S
C151 O152 1.211 . S
O152 C151 1.211 . S
C153 O145 1.284 . S
C153 O154 1.273 . S
O154 C153 1.273 . S
O155 Zn146 1.977 1_556 S
O155 C148 1.267 . S
C156 C157 1.349 . S
C156 C158 1.327 . S
C156 H181 0.950 . S
C157 C156 1.349 . S
C157 C173 1.349 . S
C158 C156 1.327 . S
C158 C177 1.429 . S
C158 H182 0.950 . S
C159 C176 1.574 . S
C159 C178 1.368 . S
C159 H183 0.949 . S
H160 C164 0.949 . S
C161 C162 1.349 . S
C161 C163 1.327 . S
C161 H184 0.950 . S
C162 C161 1.349 . S
C162 C174 1.349 . S
C163 C161 1.327 . S
C163 C179 1.429 . S
C163 H185 0.950 . S
C164 H160 0.949 . S
C164 C172 1.574 . S
C164 C180 1.368 . S
H165 C173 0.950 . S
H166 C171 0.950 . S
H167 C172 0.949 . S
H168 C174 0.950 . S
H169 C175 0.950 . S
H170 C176 0.949 . S
C171 H166 0.950 . S
C171 C173 1.327 . S
C171 C177 1.429 . S
C172 C164 1.574 . S
C172 H167 0.949 . S
C172 C178 1.368 . S
C173 C157 1.349 . S
C173 H165 0.950 . S
C173 C171 1.327 . S
C174 C162 1.349 . S
C174 H168 0.950 . S
C174 C175 1.327 . S
C175 H169 0.950 . S
C175 C174 1.327 . S
C175 C179 1.429 . S
C176 C159 1.574 . S
C176 H170 0.949 . S
C176 C180 1.368 . S
C177 C158 1.429 . S
C177 C171 1.429 . S
C177 C178 1.523 . S
C178 C159 1.368 . S
C178 C172 1.368 . S
C178 C177 1.523 . S
C179 C163 1.429 . S
C179 C175 1.429 . S
C179 C180 1.523 . S
C180 C164 1.368 . S
C180 C176 1.368 . S
C180 C179 1.523 . S
H181 C156 0.950 . S
H182 C158 0.950 . S
H183 C159 0.949 . S
H184 C161 0.950 . S
H185 C163 0.950 . S
C186 C187 1.349 . S
C186 C188 1.327 . S
C186 H211 0.950 . S
C187 C186 1.349 . S
C187 C203 1.349 . S
C188 C186 1.327 . S
C188 C207 1.429 . S
C188 H212 0.950 . S
C189 C206 1.574 . S
C189 C208 1.368 . S
C189 H213 0.949 . S
H190 C194 0.949 . S
C191 C192 1.349 . S
C191 C193 1.327 . S
C191 H214 0.950 . S
C192 C191 1.349 . S
C192 C204 1.349 . S
C193 C191 1.327 . S
C193 C209 1.429 . S
C193 H215 0.950 . S
C194 H190 0.949 . S
C194 C202 1.574 . S
C194 C210 1.368 . S
H195 C203 0.950 . S
H196 C201 0.950 . S
H197 C202 0.949 . S
H198 C204 0.950 . S
H199 C205 0.950 . S
H200 C206 0.949 . S
C201 H196 0.950 . S
C201 C203 1.327 . S
C201 C207 1.429 . S
C202 C194 1.574 . S
C202 H197 0.949 . S
C202 C208 1.368 . S
C203 C187 1.349 . S
C203 H195 0.950 . S
C203 C201 1.327 . S
C204 C192 1.349 . S
C204 H198 0.950 . S
C204 C205 1.327 . S
C205 H199 0.950 . S
C205 C204 1.327 . S
C205 C209 1.429 . S
C206 C189 1.574 . S
C206 H200 0.949 . S
C206 C210 1.368 . S
C207 C188 1.429 . S
C207 C201 1.429 . S
C207 C208 1.523 . S
C208 C189 1.368 . S
C208 C202 1.368 . S
C208 C207 1.523 . S
C209 C193 1.429 . S
C209 C205 1.429 . S
C209 C210 1.523 . S
C210 C194 1.368 . S
C210 C206 1.368 . S
C210 C209 1.523 . S
H211 C186 0.950 . S
H212 C188 0.950 . S
H213 C189 0.949 . S
H214 C191 0.950 . S
H215 C193 0.950 . S
C216 C217 1.349 . S
C216 C218 1.327 . S
C216 H241 0.950 . S
C217 C216 1.349 . S
C217 C233 1.349 . S
C218 C216 1.327 . S
C218 C237 1.429 . S
C218 H242 0.950 . S
C219 C236 1.574 . S
C219 C238 1.368 . S
C219 H243 0.949 . S
H220 C224 0.949 . S
C221 C222 1.349 . S
C221 C223 1.327 . S
C221 H244 0.950 . S
C222 C221 1.349 . S
C222 C234 1.349 . S
C223 C221 1.327 . S
C223 C239 1.429 . S
C223 H245 0.950 . S
C224 H220 0.949 . S
C224 C232 1.574 . S
C224 C240 1.368 . S
H225 C233 0.950 . S
H226 C231 0.950 . S
H227 C232 0.949 . S
H228 C234 0.950 . S
H229 C235 0.950 . S
H230 C236 0.949 . S
C231 H226 0.950 . S
C231 C233 1.327 . S
C231 C237 1.429 . S
C232 C224 1.574 . S
C232 H227 0.949 . S
C232 C238 1.368 . S
C233 C217 1.349 . S
C233 H225 0.950 . S
C233 C231 1.327 . S
C234 C222 1.349 . S
C234 H228 0.950 . S
C234 C235 1.327 . S
C235 H229 0.950 . S
C235 C234 1.327 . S
C235 C239 1.429 . S
C236 C219 1.574 . S
C236 H230 0.949 . S
C236 C240 1.368 . S
C237 C218 1.429 . S
C237 C231 1.429 . S
C237 C238 1.523 . S
C238 C219 1.368 . S
C238 C232 1.368 . S
C238 C237 1.523 . S
C239 C223 1.429 . S
C239 C235 1.429 . S
C239 C240 1.523 . S
C240 C224 1.368 . S
C240 C236 1.368 . S
C240 C239 1.523 . S
H241 C216 0.950 . S
H242 C218 0.950 . S
H243 C219 0.949 . S
H244 C221 0.950 . S
H245 C223 0.950 . S
C246 C247 1.349 . S
C246 C248 1.327 . S
C246 H271 0.950 . S
C247 C246 1.349 . S
C247 C263 1.349 . S
C248 C246 1.327 . S
C248 C267 1.429 . S
C248 H272 0.950 . S
C249 C266 1.574 . S
C249 C268 1.368 . S
C249 H273 0.949 . S
H250 C254 0.949 . S
C251 C252 1.349 . S
C251 C253 1.327 . S
C251 H274 0.950 . S
C252 C251 1.349 . S
C252 C264 1.349 . S
C253 C251 1.327 . S
C253 C269 1.429 . S
C253 H275 0.950 . S
C254 H250 0.949 . S
C254 C262 1.574 . S
C254 C270 1.368 . S
H255 C263 0.950 . S
H256 C261 0.950 . S
H257 C262 0.949 . S
H258 C264 0.950 . S
H259 C265 0.950 . S
H260 C266 0.949 . S
C261 H256 0.950 . S
C261 C263 1.327 . S
C261 C267 1.429 . S
C262 C254 1.574 . S
C262 H257 0.949 . S
C262 C268 1.368 . S
C263 C247 1.349 . S
C263 H255 0.950 . S
C263 C261 1.327 . S
C264 C252 1.349 . S
C264 H258 0.950 . S
C264 C265 1.327 . S
C265 H259 0.950 . S
C265 C264 1.327 . S
C265 C269 1.429 . S
C266 C249 1.574 . S
C266 H260 0.949 . S
C266 C270 1.368 . S
C267 C248 1.429 . S
C267 C261 1.429 . S
C267 C268 1.523 . S
C268 C249 1.368 . S
C268 C262 1.368 . S
C268 C267 1.523 . S
C269 C253 1.429 . S
C269 C265 1.429 . S
C269 C270 1.523 . S
C270 C254 1.368 . S
C270 C266 1.368 . S
C270 C269 1.523 . S
H271 C246 0.950 . S
H272 C248 0.950 . S
H273 C249 0.949 . S
H274 C251 0.950 . S
H275 C253 0.950 . S
C276 C277 1.349 . S
C276 C278 1.327 . S
C276 H301 0.950 . S
C277 C276 1.349 . S
C277 C293 1.349 . S
C278 C276 1.327 . S
C278 C297 1.429 . S
C278 H302 0.950 . S
C279 C296 1.574 . S
C279 C298 1.368 . S
C279 H303 0.949 . S
H280 C284 0.949 . S
C281 C282 1.349 . S
C281 C283 1.327 . S
C281 H304 0.950 . S
C282 C281 1.349 . S
C282 C294 1.349 . S
C283 C281 1.327 . S
C283 C299 1.429 . S
C283 H305 0.950 . S
C284 H280 0.949 . S
C284 C292 1.574 . S
C284 C300 1.368 . S
H285 C293 0.950 . S
H286 C291 0.950 . S
H287 C292 0.949 . S
H288 C294 0.950 . S
H289 C295 0.950 . S
H290 C296 0.949 . S
C291 H286 0.950 . S
C291 C293 1.327 . S
C291 C297 1.429 . S
C292 C284 1.574 . S
C292 H287 0.949 . S
C292 C298 1.368 . S
C293 C277 1.349 . S
C293 H285 0.950 . S
C293 C291 1.327 . S
C294 C282 1.349 . S
C294 H288 0.950 . S
C294 C295 1.327 . S
C295 H289 0.950 . S
C295 C294 1.327 . S
C295 C299 1.429 . S
C296 C279 1.574 . S
C296 H290 0.949 . S
C296 C300 1.368 . S
C297 C278 1.429 . S
C297 C291 1.429 . S
C297 C298 1.523 . S
C298 C279 1.368 . S
C298 C292 1.368 . S
C298 C297 1.523 . S
C299 C283 1.429 . S
C299 C295 1.429 . S
C299 C300 1.523 . S
C300 C284 1.368 . S
C300 C296 1.368 . S
C300 C299 1.523 . S
H301 C276 0.950 . S
H302 C278 0.950 . S
H303 C279 0.949 . S
H304 C281 0.950 . S
H305 C283 0.950 . S
C306 C307 1.349 . S
C306 C308 1.327 . S
C306 H331 0.950 . S
C307 C306 1.349 . S
C307 C323 1.349 . S
C308 C306 1.327 . S
C308 C327 1.429 . S
C308 H332 0.950 . S
C309 C326 1.574 . S
C309 C328 1.368 . S
C309 H333 0.949 . S
H310 C314 0.949 . S
C311 C312 1.349 . S
C311 C313 1.327 . S
C311 H334 0.950 . S
C312 C311 1.349 . S
C312 C324 1.349 . S
C313 C311 1.327 . S
C313 C329 1.429 . S
C313 H335 0.950 . S
C314 H310 0.949 . S
C314 C322 1.574 . S
C314 C330 1.368 . S
H315 C323 0.950 . S
H316 C321 0.950 . S
H317 C322 0.949 . S
H318 C324 0.950 . S
H319 C325 0.950 . S
H320 C326 0.949 . S
C321 H316 0.950 . S
C321 C323 1.327 . S
C321 C327 1.429 . S
C322 C314 1.574 . S
C322 H317 0.949 . S
C322 C328 1.368 . S
C323 C307 1.349 . S
C323 H315 0.950 . S
C323 C321 1.327 . S
C324 C312 1.349 . S
C324 H318 0.950 . S
C324 C325 1.327 . S
C325 H319 0.950 . S
C325 C324 1.327 . S
C325 C329 1.429 . S
C326 C309 1.574 . S
C326 H320 0.949 . S
C326 C330 1.368 . S
C327 C308 1.429 . S
C327 C321 1.429 . S
C327 C328 1.523 . S
C328 C309 1.368 . S
C328 C322 1.368 . S
C328 C327 1.523 . S
C329 C313 1.429 . S
C329 C325 1.429 . S
C329 C330 1.523 . S
C330 C314 1.368 . S
C330 C326 1.368 . S
C330 C329 1.523 . S
H331 C306 0.950 . S
H332 C308 0.950 . S
H333 C309 0.949 . S
H334 C311 0.950 . S
H335 C313 0.950 . S
C336 C337 1.349 . S
C336 C338 1.327 . S
C336 H361 0.950 . S
C337 C336 1.349 . S
C337 C353 1.349 1_565 S
C338 C336 1.327 . S
C338 C357 1.437 . S
C338 H362 0.950 . S
C339 C356 1.574 . S
C339 C358 1.363 1_545 S
C339 H363 0.949 . S
H340 C344 0.949 . S
C341 C342 1.349 . S
C341 C343 1.327 . S
C341 H364 0.950 . S
C342 C341 1.349 . S
C342 C354 1.349 1_545 S
C343 C341 1.327 . S
C343 C359 1.437 . S
C343 H365 0.950 . S
C344 H340 0.949 . S
C344 C352 1.574 . S
C344 C360 1.363 1_565 S
H345 C353 0.950 . S
H346 C351 0.950 . S
H347 C352 0.949 . S
H348 C354 0.950 . S
H349 C355 0.950 . S
H350 C356 0.949 . S
C351 H346 0.950 . S
C351 C353 1.327 . S
C351 C357 1.397 1_545 S
C352 C344 1.574 . S
C352 H347 0.949 . S
C352 C358 1.381 . S
C353 C337 1.349 1_545 S
C353 H345 0.950 . S
C353 C351 1.327 . S
C354 C342 1.349 1_565 S
C354 H348 0.950 . S
C354 C355 1.327 . S
C355 H349 0.950 . S
C355 C354 1.327 . S
C355 C359 1.397 1_565 S
C356 C339 1.574 . S
C356 H350 0.949 . S
C356 C360 1.381 . S
C357 C338 1.437 . S
C357 C351 1.397 1_565 S
C357 C358 1.537 . S
C358 C339 1.363 1_565 S
C358 C352 1.381 . S
C358 C357 1.537 . S
C359 C343 1.437 . S
C359 C355 1.397 1_545 S
C359 C360 1.537 . S
C360 C344 1.363 1_545 S
C360 C356 1.381 . S
C360 C359 1.537 . S
H361 C336 0.950 . S
H362 C338 0.950 . S
H363 C339 0.949 . S
H364 C341 0.950 . S
H365 C343 0.950 . S
C366 C367 1.349 . S
C366 C368 1.327 . S
C366 H391 0.950 . S
C367 C366 1.349 . S
C367 C383 1.349 . S
C368 C366 1.327 . S
C368 C387 1.429 . S
C368 H392 0.950 . S
C369 C386 1.574 . S
C369 C388 1.368 . S
C369 H393 0.949 . S
H370 C374 0.949 . S
C371 C372 1.349 . S
C371 C373 1.327 . S
C371 H394 0.950 . S
C372 C371 1.349 . S
C372 C384 1.349 . S
C373 C371 1.327 . S
C373 C389 1.429 . S
C373 H395 0.950 . S
C374 H370 0.949 . S
C374 C382 1.574 . S
C374 C390 1.368 . S
H375 C383 0.950 . S
H376 C381 0.950 . S
H377 C382 0.949 . S
H378 C384 0.950 . S
H379 C385 0.950 . S
H380 C386 0.949 . S
C381 H376 0.950 . S
C381 C383 1.327 . S
C381 C387 1.429 . S
C382 C374 1.574 . S
C382 H377 0.949 . S
C382 C388 1.368 . S
C383 C367 1.349 . S
C383 H375 0.950 . S
C383 C381 1.327 . S
C384 C372 1.349 . S
C384 H378 0.950 . S
C384 C385 1.327 . S
C385 H379 0.950 . S
C385 C384 1.327 . S
C385 C389 1.429 . S
C386 C369 1.574 . S
C386 H380 0.949 . S
C386 C390 1.368 . S
C387 C368 1.429 . S
C387 C381 1.429 . S
C387 C388 1.523 . S
C388 C369 1.368 . S
C388 C382 1.368 . S
C388 C387 1.523 . S
C389 C373 1.429 . S
C389 C385 1.429 . S
C389 C390 1.523 . S
C390 C374 1.368 . S
C390 C386 1.368 . S
C390 C389 1.523 . S
H391 C366 0.950 . S
H392 C368 0.950 . S
H393 C369 0.949 . S
H394 C371 0.950 . S
H395 C373 0.950 . S
C396 C397 1.349 1_455 S
C396 C398 1.327 . S
C396 H421 0.950 . S
C397 C396 1.349 1_655 S
C397 C413 1.349 . S
C398 C396 1.327 . S
C398 C417 1.423 1_455 S
C398 H422 0.950 . S
C399 C416 1.574 . S
C399 C418 1.373 . S
C399 H423 0.949 . S
H400 C404 0.949 . S
C401 C402 1.349 1_655 S
C401 C403 1.327 . S
C401 H424 0.950 . S
C402 C401 1.349 1_455 S
C402 C414 1.349 . S
C403 C401 1.327 . S
C403 C419 1.423 1_655 S
C403 H425 0.950 . S
C404 H400 0.949 . S
C404 C412 1.574 . S
C404 C420 1.373 . S
H405 C413 0.950 . S
H406 C411 0.950 . S
H407 C412 0.949 . S
H408 C414 0.950 . S
H409 C415 0.950 . S
H410 C416 0.949 . S
C411 H406 0.950 . S
C411 C413 1.327 . S
C411 C417 1.461 . S
C412 C404 1.574 . S
C412 H407 0.949 . S
C412 C418 1.356 1_455 S
C413 C397 1.349 . S
C413 H405 0.950 . S
C413 C411 1.327 . S
C414 C402 1.349 . S
C414 H408 0.950 . S
C414 C415 1.327 . S
C415 H409 0.950 . S
C415 C414 1.327 . S
C415 C419 1.461 . S
C416 C399 1.574 . S
C416 H410 0.949 . S
C416 C420 1.356 1_655 S
C417 C398 1.423 1_655 S
C417 C411 1.461 . S
C417 C418 1.509 . S
C418 C399 1.373 . S
C418 C412 1.356 1_655 S
C418 C417 1.509 . S
C419 C403 1.423 1_455 S
C419 C415 1.461 . S
C419 C420 1.509 . S
C420 C404 1.373 . S
C420 C416 1.356 1_455 S
C420 C419 1.509 . S
H421 C396 0.950 . S
H422 C398 0.950 . S
H423 C399 0.949 . S
H424 C401 0.950 . S
H425 C403 0.950 . S
C426 C427 1.349 . S
C426 C428 1.327 . S
C426 H451 0.950 . S
C427 C426 1.349 . S
C427 C443 1.349 1_455 S
C428 C426 1.327 . S
C428 C447 1.437 . S
C428 H452 0.950 . S
C429 C446 1.574 . S
C429 C448 1.363 1_655 S
C429 H453 0.949 . S
H430 C434 0.949 . S
C431 C432 1.349 . S
C431 C433 1.327 . S
C431 H454 0.950 . S
C432 C431 1.349 . S
C432 C444 1.349 1_655 S
C433 C431 1.327 . S
C433 C449 1.437 . S
C433 H455 0.950 . S
C434 H430 0.949 . S
C434 C442 1.574 . S
C434 C450 1.363 1_455 S
H435 C443 0.950 . S
H436 C441 0.950 . S
H437 C442 0.949 . S
H438 C444 0.950 . S
H439 C445 0.950 . S
H440 C446 0.949 . S
C441 H436 0.950 . S
C441 C443 1.327 . S
C441 C447 1.397 1_655 S
C442 C434 1.574 . S
C442 H437 0.949 . S
C442 C448 1.381 . S
C443 C427 1.349 1_655 S
C443 H435 0.950 . S
C443 C441 1.327 . S
C444 C432 1.349 1_455 S
C444 H438 0.950 . S
C444 C445 1.327 . S
C445 H439 0.950 . S
C445 C444 1.327 . S
C445 C449 1.397 1_455 S
C446 C429 1.574 . S
C446 H440 0.949 . S
C446 C450 1.381 . S
C447 C428 1.437 . S
C447 C441 1.397 1_455 S
C447 C448 1.537 . S
C448 C429 1.363 1_455 S
C448 C442 1.381 . S
C448 C447 1.537 . S
C449 C433 1.437 . S
C449 C445 1.397 1_655 S
C449 C450 1.537 . S
C450 C434 1.363 1_655 S
C450 C446 1.381 . S
C450 C449 1.537 . S
H451 C426 0.950 . S
H452 C428 0.950 . S
H453 C429 0.949 . S
H454 C431 0.950 . S
H455 C433 0.950 . S
C456 C457 1.349 1_545 S
C456 C458 1.327 . S
C456 H481 0.950 . S
C457 C456 1.349 1_565 S
C457 C473 1.349 . S
C458 C456 1.327 . S
C458 C477 1.423 1_545 S
C458 H482 0.950 . S
C459 C476 1.574 . S
C459 C478 1.373 . S
C459 H483 0.949 . S
H460 C464 0.949 . S
C461 C462 1.349 1_565 S
C461 C463 1.327 . S
C461 H484 0.950 . S
C462 C461 1.349 1_545 S
C462 C474 1.349 . S
C463 C461 1.327 . S
C463 C479 1.423 1_565 S
C463 H485 0.950 . S
C464 H460 0.949 . S
C464 C472 1.574 . S
C464 C480 1.373 . S
H465 C473 0.950 . S
H466 C471 0.950 . S
H467 C472 0.949 . S
H468 C474 0.950 . S
H469 C475 0.950 . S
H470 C476 0.949 . S
C471 H466 0.950 . S
C471 C473 1.327 . S
C471 C477 1.461 . S
C472 C464 1.574 . S
C472 H467 0.949 . S
C472 C478 1.356 1_545 S
C473 C457 1.349 . S
C473 H465 0.950 . S
C473 C471 1.327 . S
C474 C462 1.349 . S
C474 H468 0.950 . S
C474 C475 1.327 . S
C475 H469 0.950 . S
C475 C474 1.327 . S
C475 C479 1.461 . S
C476 C459 1.574 . S
C476 H470 0.949 . S
C476 C480 1.356 1_565 S
C477 C458 1.423 1_565 S
C477 C471 1.461 . S
C477 C478 1.509 . S
C478 C459 1.373 . S
C478 C472 1.356 1_565 S
C478 C477 1.509 . S
C479 C463 1.423 1_545 S
C479 C475 1.461 . S
C479 C480 1.509 . S
C480 C464 1.373 . S
C480 C476 1.356 1_545 S
C480 C479 1.509 . S
H481 C456 0.950 . S
H482 C458 0.950 . S
H483 C459 0.949 . S
H484 C461 0.950 . S
H485 C463 0.950 . S
C486 C487 1.349 . S
C486 C488 1.327 . S
C486 H511 0.950 . S
C487 C486 1.349 . S
C487 C503 1.349 . S
C488 C486 1.327 . S
C488 C507 1.429 . S
C488 H512 0.950 . S
C489 C506 1.574 . S
C489 C508 1.368 . S
C489 H513 0.949 . S
H490 C494 0.949 . S
C491 C492 1.349 . S
C491 C493 1.327 . S
C491 H514 0.950 . S
C492 C491 1.349 . S
C492 C504 1.349 . S
C493 C491 1.327 . S
C493 C509 1.429 . S
C493 H515 0.950 . S
C494 H490 0.949 . S
C494 C502 1.574 . S
C494 C510 1.368 . S
H495 C503 0.950 . S
H496 C501 0.950 . S
H497 C502 0.949 . S
H498 C504 0.950 . S
H499 C505 0.950 . S
H500 C506 0.949 . S
C501 H496 0.950 . S
C501 C503 1.327 . S
C501 C507 1.429 . S
C502 C494 1.574 . S
C502 H497 0.949 . S
C502 C508 1.368 . S
C503 C487 1.349 . S
C503 H495 0.950 . S
C503 C501 1.327 . S
C504 C492 1.349 . S
C504 H498 0.950 . S
C504 C505 1.327 . S
C505 H499 0.950 . S
C505 C504 1.327 . S
C505 C509 1.429 . S
C506 C489 1.574 . S
C506 H500 0.949 . S
C506 C510 1.368 . S
C507 C488 1.429 . S
C507 C501 1.429 . S
C507 C508 1.523 . S
C508 C489 1.368 . S
C508 C502 1.368 . S
C508 C507 1.523 . S
C509 C493 1.429 . S
C509 C505 1.429 . S
C509 C510 1.523 . S
C510 C494 1.368 . S
C510 C506 1.368 . S
C510 C509 1.523 . S
H511 C486 0.950 . S
H512 C488 0.950 . S
H513 C489 0.949 . S
H514 C491 0.950 . S
H515 C493 0.950 . S
C516 C517 1.349 . S
C516 C518 1.327 . S
C516 H541 0.950 . S
C517 C516 1.349 . S
C517 C533 1.349 . S
C518 C516 1.327 . S
C518 C537 1.429 . S
C518 H542 0.950 . S
C519 C536 1.574 . S
C519 C538 1.368 . S
C519 H543 0.949 . S
H520 C524 0.949 . S
C521 C522 1.349 . S
C521 C523 1.327 . S
C521 H544 0.950 . S
C522 C521 1.349 . S
C522 C534 1.349 . S
C523 C521 1.327 . S
C523 C539 1.429 . S
C523 H545 0.950 . S
C524 H520 0.949 . S
C524 C532 1.574 . S
C524 C540 1.368 . S
H525 C533 0.950 . S
H526 C531 0.950 . S
H527 C532 0.949 . S
H528 C534 0.950 . S
H529 C535 0.950 . S
H530 C536 0.949 . S
C531 H526 0.950 . S
C531 C533 1.327 . S
C531 C537 1.429 . S
C532 C524 1.574 . S
C532 H527 0.949 . S
C532 C538 1.368 . S
C533 C517 1.349 . S
C533 H525 0.950 . S
C533 C531 1.327 . S
C534 C522 1.349 . S
C534 H528 0.950 . S
C534 C535 1.327 . S
C535 H529 0.950 . S
C535 C534 1.327 . S
C535 C539 1.429 . S
C536 C519 1.574 . S
C536 H530 0.949 . S
C536 C540 1.368 . S
C537 C518 1.429 . S
C537 C531 1.429 . S
C537 C538 1.523 . S
C538 C519 1.368 . S
C538 C532 1.368 . S
C538 C537 1.523 . S
C539 C523 1.429 . S
C539 C535 1.429 . S
C539 C540 1.523 . S
C540 C524 1.368 . S
C540 C536 1.368 . S
C540 C539 1.523 . S
H541 C516 0.950 . S
H542 C518 0.950 . S
H543 C519 0.949 . S
H544 C521 0.950 . S
H545 C523 0.950 . S
C546 C547 1.349 . S
C546 C548 1.327 . S
C546 H571 0.950 . S
C547 C546 1.349 . S
C547 C563 1.349 . S
C548 C546 1.327 . S
C548 C567 1.429 . S
C548 H572 0.950 . S
C549 C566 1.574 . S
C549 C568 1.368 . S
C549 H573 0.949 . S
H550 C554 0.949 . S
C551 C552 1.349 . S
C551 C553 1.327 . S
C551 H574 0.950 . S
C552 C551 1.349 . S
C552 C564 1.349 . S
C553 C551 1.327 . S
C553 C569 1.429 . S
C553 H575 0.950 . S
C554 H550 0.949 . S
C554 C562 1.574 . S
C554 C570 1.368 . S
H555 C563 0.950 . S
H556 C561 0.950 . S
H557 C562 0.949 . S
H558 C564 0.950 . S
H559 C565 0.950 . S
H560 C566 0.949 . S
C561 H556 0.950 . S
C561 C563 1.327 . S
C561 C567 1.429 . S
C562 C554 1.574 . S
C562 H557 0.949 . S
C562 C568 1.368 . S
C563 C547 1.349 . S
C563 H555 0.950 . S
C563 C561 1.327 . S
C564 C552 1.349 . S
C564 H558 0.950 . S
C564 C565 1.327 . S
C565 H559 0.950 . S
C565 C564 1.327 . S
C565 C569 1.429 . S
C566 C549 1.574 . S
C566 H560 0.949 . S
C566 C570 1.368 . S
C567 C548 1.429 . S
C567 C561 1.429 . S
C567 C568 1.523 . S
C568 C549 1.368 . S
C568 C562 1.368 . S
C568 C567 1.523 . S
C569 C553 1.429 . S
C569 C565 1.429 . S
C569 C570 1.523 . S
C570 C554 1.368 . S
C570 C566 1.368 . S
C570 C569 1.523 . S
H571 C546 0.950 . S
H572 C548 0.950 . S
H573 C549 0.949 . S
H574 C551 0.950 . S
H575 C553 0.950 . S
C576 C577 1.349 . S
C576 C578 1.327 . S
C576 H601 0.950 . S
C577 C576 1.349 . S
C577 C593 1.349 . S
C578 C576 1.327 . S
C578 C597 1.429 . S
C578 H602 0.950 . S
C579 C596 1.574 . S
C579 C598 1.368 1_556 S
C579 H603 0.949 . S
H580 C584 0.949 . S
C581 C582 1.349 . S
C581 C583 1.327 . S
C581 H604 0.950 . S
C582 C581 1.349 . S
C582 C594 1.349 . S
C583 C581 1.327 . S
C583 C599 1.429 . S
C583 H605 0.950 . S
C584 H580 0.949 . S
C584 C592 1.574 . S
C584 C600 1.368 1_554 S
H585 C593 0.950 . S
H586 C591 0.950 1_556 S
H587 C592 0.949 . S
H588 C594 0.950 . S
H589 C595 0.950 1_554 S
H590 C596 0.949 . S
C591 H586 0.950 1_554 S
C591 C593 1.327 . S
C591 C597 1.429 . S
C592 C584 1.574 . S
C592 H587 0.949 . S
C592 C598 1.368 . S
C593 C577 1.349 . S
C593 H585 0.950 . S
C593 C591 1.327 . S
C594 C582 1.349 . S
C594 H588 0.950 . S
C594 C595 1.327 . S
C595 H589 0.950 1_556 S
C595 C594 1.327 . S
C595 C599 1.429 . S
C596 C579 1.574 . S
C596 H590 0.949 . S
C596 C600 1.368 . S
C597 C578 1.429 . S
C597 C591 1.429 . S
C597 C598 1.523 . S
C598 C579 1.368 1_554 S
C598 C592 1.368 . S
C598 C597 1.523 . S
C599 C583 1.429 . S
C599 C595 1.429 . S
C599 C600 1.523 . S
C600 C584 1.368 1_556 S
C600 C596 1.368 . S
C600 C599 1.523 . S
H601 C576 0.950 . S
H602 C578 0.950 . S
H603 C579 0.949 . S
H604 C581 0.950 . S
H605 C583 0.950 . S
C606 C607 1.349 . S
C606 C608 1.327 . S
C606 H631 0.950 . S
C607 C606 1.349 . S
C607 C623 1.349 . S
C608 C606 1.327 . S
C608 C627 1.429 . S
C608 H632 0.950 . S
C609 C626 1.574 . S
C609 C628 1.368 . S
C609 H633 0.949 . S
H610 C614 0.949 . S
C611 C612 1.349 . S
C611 C613 1.327 . S
C611 H634 0.950 . S
C612 C611 1.349 . S
C612 C624 1.349 . S
C613 C611 1.327 . S
C613 C629 1.429 . S
C613 H635 0.950 . S
C614 H610 0.949 . S
C614 C622 1.574 . S
C614 C630 1.368 . S
H615 C623 0.950 . S
H616 C621 0.950 . S
H617 C622 0.949 . S
H618 C624 0.950 . S
H619 C625 0.950 . S
H620 C626 0.949 . S
C621 H616 0.950 . S
C621 C623 1.327 . S
C621 C627 1.429 . S
C622 C614 1.574 . S
C622 H617 0.949 . S
C622 C628 1.368 . S
C623 C607 1.349 . S
C623 H615 0.950 . S
C623 C621 1.327 . S
C624 C612 1.349 . S
C624 H618 0.950 . S
C624 C625 1.327 . S
C625 H619 0.950 . S
C625 C624 1.327 . S
C625 C629 1.429 . S
C626 C609 1.574 . S
C626 H620 0.949 . S
C626 C630 1.368 . S
C627 C608 1.429 . S
C627 C621 1.429 . S
C627 C628 1.523 . S
C628 C609 1.368 . S
C628 C622 1.368 . S
C628 C627 1.523 . S
C629 C613 1.429 . S
C629 C625 1.429 . S
C629 C630 1.523 . S
C630 C614 1.368 . S
C630 C626 1.368 . S
C630 C629 1.523 . S
H631 C606 0.950 . S
H632 C608 0.950 . S
H633 C609 0.949 . S
H634 C611 0.950 . S
H635 C613 0.950 . S
C636 C637 1.349 . S
C636 C638 1.327 . S
C636 H661 0.950 . S
C637 C636 1.349 . S
C637 C653 1.349 . S
C638 C636 1.327 . S
C638 C657 1.429 . S
C638 H662 0.950 . S
C639 C656 1.574 . S
C639 C658 1.368 . S
C639 H663 0.949 . S
H640 C644 0.949 . S
C641 C642 1.349 . S
C641 C643 1.327 . S
C641 H664 0.950 . S
C642 C641 1.349 . S
C642 C654 1.349 . S
C643 C641 1.327 . S
C643 C659 1.429 . S
C643 H665 0.950 . S
C644 H640 0.949 . S
C644 C652 1.574 . S
C644 C660 1.368 . S
H645 C653 0.950 . S
H646 C651 0.950 . S
H647 C652 0.949 . S
H648 C654 0.950 . S
H649 C655 0.950 . S
H650 C656 0.949 . S
C651 H646 0.950 . S
C651 C653 1.327 . S
C651 C657 1.429 . S
C652 C644 1.574 . S
C652 H647 0.949 . S
C652 C658 1.368 . S
C653 C637 1.349 . S
C653 H645 0.950 . S
C653 C651 1.327 . S
C654 C642 1.349 . S
C654 H648 0.950 . S
C654 C655 1.327 . S
C655 H649 0.950 . S
C655 C654 1.327 . S
C655 C659 1.429 . S
C656 C639 1.574 . S
C656 H650 0.949 . S
C656 C660 1.368 . S
C657 C638 1.429 . S
C657 C651 1.429 . S
C657 C658 1.523 . S
C658 C639 1.368 . S
C658 C652 1.368 . S
C658 C657 1.523 . S
C659 C643 1.429 . S
C659 C655 1.429 . S
C659 C660 1.523 . S
C660 C644 1.368 . S
C660 C656 1.368 . S
C660 C659 1.523 . S
H661 C636 0.950 . S
H662 C638 0.950 . S
H663 C639 0.949 . S
H664 C641 0.950 . S
H665 C643 0.950 . S
C666 C667 1.349 . S
C666 C668 1.327 . S
C666 H691 0.950 . S
C667 C666 1.349 . S
C667 C683 1.349 . S
C668 C666 1.327 . S
C668 C687 1.429 . S
C668 H692 0.950 1_554 S
C669 C686 1.574 . S
C669 C688 1.368 . S
C669 H693 0.949 . S
H670 C674 0.949 . S
C671 C672 1.349 . S
C671 C673 1.327 . S
C671 H694 0.950 . S
C672 C671 1.349 . S
C672 C684 1.349 . S
C673 C671 1.327 . S
C673 C689 1.429 . S
C673 H695 0.950 1_556 S
C674 H670 0.949 . S
C674 C682 1.574 . S
C674 C690 1.368 . S
H675 C683 0.950 . S
H676 C681 0.950 . S
H677 C682 0.949 . S
H678 C684 0.950 . S
H679 C685 0.950 . S
H680 C686 0.949 . S
C681 H676 0.950 . S
C681 C683 1.327 . S
C681 C687 1.429 . S
C682 C674 1.574 . S
C682 H677 0.949 . S
C682 C688 1.368 1_556 S
C683 C667 1.349 . S
C683 H675 0.950 . S
C683 C681 1.327 . S
C684 C672 1.349 . S
C684 H678 0.950 . S
C684 C685 1.327 . S
C685 H679 0.950 . S
C685 C684 1.327 . S
C685 C689 1.429 . S
C686 C669 1.574 . S
C686 H680 0.949 . S
C686 C690 1.368 1_554 S
C687 C668 1.429 . S
C687 C681 1.429 . S
C687 C688 1.523 . S
C688 C669 1.368 . S
C688 C682 1.368 1_554 S
C688 C687 1.523 . S
C689 C673 1.429 . S
C689 C685 1.429 . S
C689 C690 1.523 . S
C690 C674 1.368 . S
C690 C686 1.368 1_556 S
C690 C689 1.523 . S
H691 C666 0.950 . S
H692 C668 0.950 1_556 S
H693 C669 0.949 . S
H694 C671 0.950 . S
H695 C673 0.950 1_554 S
C696 C697 1.349 1_565 S
C696 C698 1.327 . S
C696 H721 0.950 . S
C697 C696 1.349 1_545 S
C697 C713 1.349 . S
C698 C696 1.327 . S
C698 C717 1.429 1_565 S
C698 H722 0.950 . S
C699 C716 1.574 . S
C699 C718 1.368 . S
C699 H723 0.949 . S
H700 C704 0.949 . S
C701 C702 1.349 1_545 S
C701 C703 1.327 . S
C701 H724 0.950 . S
C702 C701 1.349 1_565 S
C702 C714 1.349 . S
C703 C701 1.327 . S
C703 C719 1.429 1_545 S
C703 H725 0.950 . S
C704 H700 0.949 . S
C704 C712 1.574 . S
C704 C720 1.368 . S
H705 C713 0.950 . S
H706 C711 0.950 . S
H707 C712 0.949 . S
H708 C714 0.950 . S
H709 C715 0.950 . S
H710 C716 0.949 . S
C711 H706 0.950 . S
C711 C713 1.327 . S
C711 C717 1.429 . S
C712 C704 1.574 . S
C712 H707 0.949 . S
C712 C718 1.368 1_565 S
C713 C697 1.349 . S
C713 H705 0.950 . S
C713 C711 1.327 . S
C714 C702 1.349 . S
C714 H708 0.950 . S
C714 C715 1.327 . S
C715 H709 0.950 . S
C715 C714 1.327 . S
C715 C719 1.429 . S
C716 C699 1.574 . S
C716 H710 0.949 . S
C716 C720 1.368 1_545 S
C717 C698 1.429 1_545 S
C717 C711 1.429 . S
C717 C718 1.523 . S
C718 C699 1.368 . S
C718 C712 1.368 1_545 S
C718 C717 1.523 . S
C719 C703 1.429 1_565 S
C719 C715 1.429 . S
C719 C720 1.523 . S
C720 C704 1.368 . S
C720 C716 1.368 1_565 S
C720 C719 1.523 . S
H721 C696 0.950 . S
H722 C698 0.950 . S
H723 C699 0.949 . S
H724 C701 0.950 . S
H725 C703 0.950 . S
C726 C727 1.349 . S
C726 C728 1.327 . S
C726 H751 0.950 . S
C727 C726 1.349 . S
C727 C743 1.349 . S
C728 C726 1.327 . S
C728 C747 1.429 . S
C728 H752 0.950 . S
C729 C746 1.574 . S
C729 C748 1.368 . S
C729 H753 0.949 . S
H730 C734 0.949 . S
C731 C732 1.349 . S
C731 C733 1.327 . S
C731 H754 0.950 . S
C732 C731 1.349 . S
C732 C744 1.349 . S
C733 C731 1.327 . S
C733 C749 1.429 . S
C733 H755 0.950 . S
C734 H730 0.949 . S
C734 C742 1.574 . S
C734 C750 1.368 . S
H735 C743 0.950 . S
H736 C741 0.950 . S
H737 C742 0.949 . S
H738 C744 0.950 . S
H739 C745 0.950 . S
H740 C746 0.949 . S
C741 H736 0.950 . S
C741 C743 1.327 . S
C741 C747 1.429 . S
C742 C734 1.574 . S
C742 H737 0.949 . S
C742 C748 1.368 . S
C743 C727 1.349 . S
C743 H735 0.950 . S
C743 C741 1.327 . S
C744 C732 1.349 . S
C744 H738 0.950 . S
C744 C745 1.327 . S
C745 H739 0.950 . S
C745 C744 1.327 . S
C745 C749 1.429 . S
C746 C729 1.574 . S
C746 H740 0.949 . S
C746 C750 1.368 . S
C747 C728 1.429 . S
C747 C741 1.429 . S
C747 C748 1.523 . S
C748 C729 1.368 . S
C748 C742 1.368 . S
C748 C747 1.523 . S
C749 C733 1.429 . S
C749 C745 1.429 . S
C749 C750 1.523 . S
C750 C734 1.368 . S
C750 C746 1.368 . S
C750 C749 1.523 . S
H751 C726 0.950 . S
H752 C728 0.950 . S
H753 C729 0.949 . S
H754 C731 0.950 . S
H755 C733 0.950 . S
C756 C757 1.349 . S
C756 C758 1.327 . S
C756 H781 0.950 . S
C757 C756 1.349 . S
C757 C773 1.349 1_455 S
C758 C756 1.327 . S
C758 C777 1.429 . S
C758 H782 0.950 . S
C759 C776 1.574 . S
C759 C778 1.368 1_655 S
C759 H783 0.949 . S
H760 C764 0.949 . S
C761 C762 1.349 . S
C761 C763 1.327 . S
C761 H784 0.950 . S
C762 C761 1.349 . S
C762 C774 1.349 1_655 S
C763 C761 1.327 . S
C763 C779 1.429 . S
C763 H785 0.950 . S
C764 H760 0.949 . S
C764 C772 1.574 . S
C764 C780 1.368 1_455 S
H765 C773 0.950 . S
H766 C771 0.950 . S
H767 C772 0.949 . S
H768 C774 0.950 . S
H769 C775 0.950 . S
H770 C776 0.949 . S
C771 H766 0.950 . S
C771 C773 1.327 . S
C771 C777 1.429 1_655 S
C772 C764 1.574 . S
C772 H767 0.949 . S
C772 C778 1.368 . S
C773 C757 1.349 1_655 S
C773 H765 0.950 . S
C773 C771 1.327 . S
C774 C762 1.349 1_455 S
C774 H768 0.950 . S
C774 C775 1.327 . S
C775 H769 0.950 . S
C775 C774 1.327 . S
C775 C779 1.429 1_455 S
C776 C759 1.574 . S
C776 H770 0.949 . S
C776 C780 1.368 . S
C777 C758 1.429 . S
C777 C771 1.429 1_455 S
C777 C778 1.523 . S
C778 C759 1.368 1_455 S
C778 C772 1.368 . S
C778 C777 1.523 . S
C779 C763 1.429 . S
C779 C775 1.429 1_655 S
C779 C780 1.523 . S
C780 C764 1.368 1_655 S
C780 C776 1.368 . S
C780 C779 1.523 . S
H781 C756 0.950 . S
H782 C758 0.950 . S
H783 C759 0.949 . S
H784 C761 0.950 . S
H785 C763 0.950 . S
C786 C787 1.349 1_545 S
C786 C788 1.327 . S
C786 H811 0.950 . S
C787 C786 1.349 1_565 S
C787 C803 1.349 . S
C788 C786 1.327 . S
C788 C807 1.429 1_545 S
C788 H812 0.950 . S
C789 C806 1.574 . S
C789 C808 1.368 . S
C789 H813 0.949 . S
H790 C794 0.949 . S
C791 C792 1.349 1_565 S
C791 C793 1.327 . S
C791 H814 0.950 . S
C792 C791 1.349 1_545 S
C792 C804 1.349 . S
C793 C791 1.327 . S
C793 C809 1.429 1_565 S
C793 H815 0.950 . S
C794 H790 0.949 . S
C794 C802 1.574 . S
C794 C810 1.368 . S
H795 C803 0.950 . S
H796 C801 0.950 . S
H797 C802 0.949 . S
H798 C804 0.950 . S
H799 C805 0.950 . S
H800 C806 0.949 . S
C801 H796 0.950 . S
C801 C803 1.327 . S
C801 C807 1.429 . S
C802 C794 1.574 . S
C802 H797 0.949 . S
C802 C808 1.368 1_545 S
C803 C787 1.349 . S
C803 H795 0.950 . S
C803 C801 1.327 . S
C804 C792 1.349 . S
C804 H798 0.950 . S
C804 C805 1.327 . S
C805 H799 0.950 . S
C805 C804 1.327 . S
C805 C809 1.429 . S
C806 C789 1.574 . S
C806 H800 0.949 . S
C806 C810 1.368 1_565 S
C807 C788 1.429 1_565 S
C807 C801 1.429 . S
C807 C808 1.523 . S
C808 C789 1.368 . S
C808 C802 1.368 1_565 S
C808 C807 1.523 . S
C809 C793 1.429 1_545 S
C809 C805 1.429 . S
C809 C810 1.523 . S
C810 C794 1.368 . S
C810 C806 1.368 1_545 S
C810 C809 1.523 . S
H811 C786 0.950 . S
H812 C788 0.950 . S
H813 C789 0.949 . S
H814 C791 0.950 . S
H815 C793 0.950 . S
C816 C817 1.349 . S
C816 C818 1.327 . S
C816 H841 0.950 . S
C817 C816 1.349 . S
C817 C833 1.349 . S
C818 C816 1.327 . S
C818 C837 1.429 . S
C818 H842 0.950 . S
C819 C836 1.574 . S
C819 C838 1.368 . S
C819 H843 0.949 . S
H820 C824 0.949 . S
C821 C822 1.349 . S
C821 C823 1.327 . S
C821 H844 0.950 . S
C822 C821 1.349 . S
C822 C834 1.349 . S
C823 C821 1.327 . S
C823 C839 1.429 . S
C823 H845 0.950 . S
C824 H820 0.949 . S
C824 C832 1.574 . S
C824 C840 1.368 . S
H825 C833 0.950 . S
H826 C831 0.950 . S
H827 C832 0.949 . S
H828 C834 0.950 . S
H829 C835 0.950 . S
H830 C836 0.949 . S
C831 H826 0.950 . S
C831 C833 1.327 . S
C831 C837 1.429 . S
C832 C824 1.574 . S
C832 H827 0.949 . S
C832 C838 1.368 . S
C833 C817 1.349 . S
C833 H825 0.950 . S
C833 C831 1.327 . S
C834 C822 1.349 . S
C834 H828 0.950 . S
C834 C835 1.327 . S
C835 H829 0.950 . S
C835 C834 1.327 . S
C835 C839 1.429 . S
C836 C819 1.574 . S
C836 H830 0.949 . S
C836 C840 1.368 . S
C837 C818 1.429 . S
C837 C831 1.429 . S
C837 C838 1.523 . S
C838 C819 1.368 . S
C838 C832 1.368 . S
C838 C837 1.523 . S
C839 C823 1.429 . S
C839 C835 1.429 . S
C839 C840 1.523 . S
C840 C824 1.368 . S
C840 C836 1.368 . S
C840 C839 1.523 . S
H841 C816 0.950 . S
H842 C818 0.950 . S
H843 C819 0.949 . S
H844 C821 0.950 . S
H845 C823 0.950 . S
C846 C847 1.349 1_455 S
C846 C848 1.327 . S
C846 H871 0.950 . S
C847 C846 1.349 1_655 S
C847 C863 1.349 . S
C848 C846 1.327 . S
C848 C867 1.429 1_455 S
C848 H872 0.950 . S
C849 C866 1.574 . S
C849 C868 1.368 . S
C849 H873 0.949 . S
H850 C854 0.949 . S
C851 C852 1.349 1_655 S
C851 C853 1.327 . S
C851 H874 0.950 . S
C852 C851 1.349 1_455 S
C852 C864 1.349 . S
C853 C851 1.327 . S
C853 C869 1.429 1_655 S
C853 H875 0.950 . S
C854 H850 0.949 . S
C854 C862 1.574 . S
C854 C870 1.368 . S
H855 C863 0.950 . S
H856 C861 0.950 . S
H857 C862 0.949 . S
H858 C864 0.950 . S
H859 C865 0.950 . S
H860 C866 0.949 . S
C861 H856 0.950 . S
C861 C863 1.327 . S
C861 C867 1.429 . S
C862 C854 1.574 . S
C862 H857 0.949 . S
C862 C868 1.368 1_455 S
C863 C847 1.349 . S
C863 H855 0.950 . S
C863 C861 1.327 . S
C864 C852 1.349 . S
C864 H858 0.950 . S
C864 C865 1.327 . S
C865 H859 0.950 . S
C865 C864 1.327 . S
C865 C869 1.429 . S
C866 C849 1.574 . S
C866 H860 0.949 . S
C866 C870 1.368 1_655 S
C867 C848 1.429 1_655 S
C867 C861 1.429 . S
C867 C868 1.523 . S
C868 C849 1.368 . S
C868 C862 1.368 1_655 S
C868 C867 1.523 . S
C869 C853 1.429 1_455 S
C869 C865 1.429 . S
C869 C870 1.523 . S
C870 C854 1.368 . S
C870 C866 1.368 1_455 S
C870 C869 1.523 . S
H871 C846 0.950 . S
H872 C848 0.950 . S
H873 C849 0.949 . S
H874 C851 0.950 . S
H875 C853 0.950 . S
C157 C0 1.795 . S
C162 C104 1.795 . S
C187 C13 1.795 . S
C192 C117 1.795 . S
C217 C130 1.795 . S
C222 C26 1.795 . S
C247 C143 1.795 . S
C252 C39 1.795 . S
C277 C78 1.795 . S
C282 C52 1.795 . S
C307 C91 1.795 . S
C312 C65 1.795 . S
C337 C8 1.282 . S
C342 C47 1.282 . S
C367 C60 1.282 . S
C372 C21 1.282 . S
C397 C73 1.282 . S
C402 C34 1.282 . S
C427 C86 1.282 . S
C432 C125 1.282 . S
C457 C138 1.282 . S
C462 C99 1.282 . S
C487 C112 1.282 . S
C492 C151 1.282 . S
C517 C88 0.769 . S
C522 C10 0.769 . S
C547 C23 0.769 . S
C552 C101 0.769 . S
C577 C114 0.769 . S
C582 C36 0.769 . S
C607 C127 0.769 . S
C612 C49 0.769 . S
C637 C62 0.769 . S
C642 C140 0.769 . S
C667 C153 0.769 . S
C672 C75 0.769 . S
C697 C5 0.793 . S
C702 C96 0.793 . S
C727 C109 0.793 . S
C732 C18 0.793 . S
C757 C122 0.793 . S
C762 C31 0.793 . S
C787 C44 0.793 . S
C792 C135 0.793 . S
C817 C148 0.793 . S
C822 C57 0.793 . S
C847 C83 0.793 . S
C852 C70 0.793 . S
