# Generated by pormake.
# Topology umm, (4)-cn, num edge types: 1
# Building blocks:
#     Node 0, Type 0, BuildingBlock: KOZSID_clean_sbu_0, # of connection points: 4
#     Node 1, Type 0, BuildingBlock: KOZSID_clean_sbu_0, # of connection points: 4
#     Node 2, Type 0, BuildingBlock: KOZSID_clean_sbu_0, # of connection points: 4
#     Node 3, Type 0, BuildingBlock: KOZSID_clean_sbu_0, # of connection points: 4
#     Node 4, Type 0, BuildingBlock: KOZSID_clean_sbu_0, # of connection points: 4
#     Node 5, Type 0, BuildingBlock: KOZSID_clean_sbu_0, # of connection points: 4
#     Node 6, Type 0, BuildingBlock: KOZSID_clean_sbu_0, # of connection points: 4
#     Node 7, Type 0, BuildingBlock: KOZSID_clean_sbu_0, # of connection points: 4
#     Node 8, Type 0, BuildingBlock: KOZSID_clean_sbu_0, # of connection points: 4
#     Node 9, Type 0, BuildingBlock: KOZSID_clean_sbu_0, # of connection points: 4
#     Node 10, Type 0, BuildingBlock: KOZSID_clean_sbu_0, # of connection points: 4
#     Node 11, Type 0, BuildingBlock: KOZSID_clean_sbu_0, # of connection points: 4
#     Edge 12, Type (0, 0), BuildingBlock: TEMPAE_clean_linker_10, # of connection points: 2
#     Edge 13, Type (0, 0), BuildingBlock: TEMPAE_clean_linker_10, # of connection points: 2
#     Edge 14, Type (0, 0), BuildingBlock: TEMPAE_clean_linker_10, # of connection points: 2
#     Edge 15, Type (0, 0), BuildingBlock: TEMPAE_clean_linker_10, # of connection points: 2
#     Edge 16, Type (0, 0), BuildingBlock: TEMPAE_clean_linker_10, # of connection points: 2
#     Edge 17, Type (0, 0), BuildingBlock: TEMPAE_clean_linker_10, # of connection points: 2
#     Edge 18, Type (0, 0), BuildingBlock: TEMPAE_clean_linker_10, # of connection points: 2
#     Edge 19, Type (0, 0), BuildingBlock: TEMPAE_clean_linker_10, # of connection points: 2
#     Edge 20, Type (0, 0), BuildingBlock: TEMPAE_clean_linker_10, # of connection points: 2
#     Edge 21, Type (0, 0), BuildingBlock: TEMPAE_clean_linker_10, # of connection points: 2
#     Edge 22, Type (0, 0), BuildingBlock: TEMPAE_clean_linker_10, # of connection points: 2
#     Edge 23, Type (0, 0), BuildingBlock: TEMPAE_clean_linker_10, # of connection points: 2
#     Edge 24, Type (0, 0), BuildingBlock: TEMPAE_clean_linker_10, # of connection points: 2
#     Edge 25, Type (0, 0), BuildingBlock: TEMPAE_clean_linker_10, # of connection points: 2
#     Edge 26, Type (0, 0), BuildingBlock: TEMPAE_clean_linker_10, # of connection points: 2
#     Edge 27, Type (0, 0), BuildingBlock: TEMPAE_clean_linker_10, # of connection points: 2
#     Edge 28, Type (0, 0), BuildingBlock: TEMPAE_clean_linker_10, # of connection points: 2
#     Edge 29, Type (0, 0), BuildingBlock: TEMPAE_clean_linker_10, # of connection points: 2
#     Edge 30, Type (0, 0), BuildingBlock: TEMPAE_clean_linker_10, # of connection points: 2
#     Edge 31, Type (0, 0), BuildingBlock: TEMPAE_clean_linker_10, # of connection points: 2
#     Edge 32, Type (0, 0), BuildingBlock: TEMPAE_clean_linker_10, # of connection points: 2
#     Edge 33, Type (0, 0), BuildingBlock: TEMPAE_clean_linker_10, # of connection points: 2
#     Edge 34, Type (0, 0), BuildingBlock: TEMPAE_clean_linker_10, # of connection points: 2
#     Edge 35, Type (0, 0), BuildingBlock: TEMPAE_clean_linker_10, # of connection points: 2
# Relax obj value: 0.060
# Max RMSD: 0.165
# Mean RMSD: 0.165
data_MOF--net-umm--node1-KOZSID_clean_sbu_0--edge1-TEMPAE_clean_linker_10
_symmetry_space_group_name_H-M    P1
_symmetry_Int_Tables_number       1
_symmetry_cell_setting            triclinic
loop_
_symmetry_equiv_pos_as_xyz
'x, y, z'
_cell_length_a     62.862918
_cell_length_b     62.913425
_cell_length_c     38.726113
_cell_angle_alpha  89.995953
_cell_angle_beta   90.006059
_cell_angle_gamma 120.01294
loop_
_atom_site_label
_atom_site_type_symbol
_atom_site_fract_x
_atom_site_fract_y
_atom_site_fract_z
_atom_type_partial_charge
C0 C 0.35683 0.55446 0.08566 0.0
C1 C 0.33215 0.5374 0.09064 0.0
C2 C 0.33125 0.51726 0.10581 0.0
C3 C 0.35532 0.52316 0.10943 0.0
N4 N 0.37124 0.5457 0.09745 0.0
Co5 Co 0.40748 0.56168 0.09946 0.0
N6 N 0.40616 0.52964 0.10375 0.0
C7 C 0.38656 0.50867 0.11476 0.0
C8 C 0.39126 0.48969 0.11786 0.0
C9 C 0.41537 0.49937 0.10848 0.0
C10 C 0.42409 0.52382 0.0998 0.0
N11 N 0.44382 0.57757 0.10202 0.0
C12 C 0.4587 0.56798 0.09653 0.0
C13 C 0.4832 0.58636 0.09824 0.0
C14 C 0.48347 0.6077 0.10658 0.0
C15 C 0.45925 0.60148 0.10888 0.0
N16 N 0.40833 0.59354 0.09484 0.0
C17 C 0.42753 0.61568 0.10266 0.0
C18 C 0.42331 0.63451 0.09447 0.0
C19 C 0.39999 0.62345 0.08085 0.0
C20 C 0.39106 0.59833 0.08178 0.0
N21 N 0.4064 0.56384 0.15007 0.0
C22 C 0.40914 0.57129 0.22189 0.0
C23 C 0.39458 0.57732 0.20125 0.0
C24 C 0.3932 0.57315 0.1655 0.0
C25 C 0.42173 0.56087 0.20592 0.0
C26 C 0.4203 0.55751 0.17015 0.0
N27 N 0.40921 0.56016 0.04913 0.0
C28 C 0.42957 0.58028 0.99644 0.0
C29 C 0.41357 0.55962 0.9773 0.0
C30 C 0.39499 0.53917 0.99465 0.0
C31 C 0.39329 0.53971 0.03081 0.0
C32 C 0.42693 0.58028 0.03205 0.0
H33 H 0.37921 0.5237 0.04398 0.0
H34 H 0.43939 0.59674 0.04568 0.0
H35 H 0.38188 0.57798 0.15024 0.0
H36 H 0.43106 0.55037 0.15871 0.0
C37 C 0.36352 0.50686 0.11811 0.0
C38 C 0.36595 0.57926 0.07171 0.0
C39 C 0.45005 0.54148 0.09187 0.0
C40 C 0.45053 0.61813 0.10998 0.0
H41 H 0.31646 0.53935 0.08417 0.0
H42 H 0.31497 0.50006 0.11219 0.0
H43 H 0.37862 0.47099 0.12562 0.0
H44 H 0.42546 0.48961 0.10905 0.0
H45 H 0.49931 0.58479 0.0936 0.0
H46 H 0.49945 0.62584 0.10871 0.0
H47 H 0.43617 0.65402 0.09614 0.0
H48 H 0.39096 0.63295 0.07089 0.0
H49 H 0.38438 0.58523 0.21264 0.0
H50 H 0.43334 0.55613 0.22083 0.0
H51 H 0.44394 0.59652 0.98384 0.0
H52 H 0.38223 0.52286 0.9805 0.0
C53 C 0.80358 0.35118 0.41874 0.0
C54 C 0.79536 0.32621 0.4209 0.0
C55 C 0.8148 0.32404 0.43243 0.0
C56 C 0.83365 0.34768 0.43698 0.0
N57 N 0.82725 0.36456 0.42913 0.0
Co58 Co 0.84849 0.40058 0.43387 0.0
N59 N 0.87887 0.39826 0.43355 0.0
C60 C 0.87987 0.37753 0.43789 0.0
C61 C 0.903 0.38095 0.43338 0.0
C62 C 0.91757 0.40543 0.42636 0.0
C63 C 0.90259 0.41583 0.42786 0.0
N64 N 0.86978 0.43665 0.43952 0.0
C65 C 0.89452 0.45123 0.43618 0.0
C66 C 0.90173 0.47523 0.4455 0.0
C67 C 0.88085 0.47557 0.45489 0.0
C68 C 0.86205 0.45183 0.45111 0.0
N69 N 0.81787 0.40252 0.43334 0.0
C70 C 0.81577 0.42165 0.44437 0.0
C71 C 0.79282 0.41847 0.43831 0.0
C72 C 0.77971 0.39591 0.42264 0.0
C73 C 0.79533 0.38634 0.42034 0.0
N74 N 0.84656 0.39738 0.48445 0.0
C75 C 0.84326 0.40173 0.55625 0.0
C76 C 0.82223 0.38687 0.53647 0.0
C77 C 0.8243 0.38481 0.5007 0.0
C78 C 0.8661 0.41274 0.53953 0.0
C79 C 0.86735 0.41032 0.50386 0.0
N80 N 0.85033 0.40447 0.38368 0.0
C81 C 0.84829 0.42649 0.33423 0.0
C82 C 0.85042 0.4102 0.31184 0.0
C83 C 0.85312 0.3912 0.32634 0.0
C84 C 0.85309 0.38869 0.36238 0.0
C85 C 0.8481 0.42322 0.36972 0.0
H86 H 0.85498 0.37387 0.37301 0.0
H87 H 0.84585 0.43585 0.38586 0.0
H88 H 0.80772 0.374 0.48599 0.0
H89 H 0.88517 0.42 0.49186 0.0
C90 C 0.85839 0.35476 0.44112 0.0
C91 C 0.78829 0.36151 0.40763 0.0
C92 C 0.91186 0.44255 0.42779 0.0
C93 C 0.83682 0.44377 0.45355 0.0
H94 H 0.77731 0.31115 0.41446 0.0
H95 H 0.81546 0.30726 0.43536 0.0
H96 H 0.9085 0.36717 0.43391 0.0
H97 H 0.93707 0.41449 0.4212 0.0
H98 H 0.92018 0.49082 0.44618 0.0
H99 H 0.87953 0.49135 0.4629 0.0
H100 H 0.78672 0.43155 0.4429 0.0
H101 H 0.76097 0.38776 0.41368 0.0
H102 H 0.80416 0.37782 0.54816 0.0
H103 H 0.88297 0.42374 0.55376 0.0
H104 H 0.84678 0.44181 0.32447 0.0
H105 H 0.85476 0.37809 0.31006 0.0
C106 C 0.45832 0.80696 0.74916 0.0
C107 C 0.47771 0.80228 0.74707 0.0
C108 C 0.49781 0.82204 0.76125 0.0
C109 C 0.48999 0.83806 0.7703 0.0
N110 N 0.46624 0.82968 0.7624 0.0
Co111 Co 0.44888 0.84863 0.76641 0.0
N112 N 0.48023 0.88028 0.76887 0.0
C113 C 0.50207 0.88294 0.77812 0.0
C114 C 0.52029 0.907 0.78064 0.0
C115 C 0.50921 0.92035 0.77265 0.0
C116 C 0.48475 0.9036 0.76519 0.0
N117 N 0.43163 0.86772 0.77056 0.0
C118 C 0.43997 0.89193 0.76444 0.0
C119 C 0.42093 0.89698 0.76776 0.0
C120 C 0.40049 0.87551 0.7777 0.0
C121 C 0.40788 0.85836 0.77932 0.0
N122 N 0.41768 0.81681 0.76394 0.0
C123 C 0.39562 0.81288 0.7745 0.0
C124 C 0.37736 0.78891 0.7702 0.0
C125 C 0.38873 0.77709 0.75617 0.0
C126 C 0.41337 0.79458 0.75244 0.0
N127 N 0.4486 0.84593 0.8171 0.0
C128 C 0.44155 0.84126 0.88902 0.0
C129 C 0.43672 0.82092 0.86857 0.0
C130 C 0.44073 0.82371 0.83278 0.0
C131 C 0.45094 0.86412 0.87284 0.0
C132 C 0.45415 0.86602 0.83704 0.0
N133 N 0.44843 0.85129 0.71608 0.0
C134 C 0.4257 0.84917 0.66495 0.0
C135 C 0.4461 0.85506 0.64427 0.0
C136 C 0.46777 0.8588 0.66018 0.0
C137 C 0.46864 0.85708 0.69628 0.0
C138 C 0.42717 0.84717 0.70052 0.0
H139 H 0.48556 0.86044 0.70821 0.0
H140 H 0.41092 0.84226 0.7154 0.0
H141 H 0.43667 0.80772 0.81764 0.0
H142 H 0.4603 0.88371 0.82543 0.0
C143 C 0.50547 0.86267 0.77902 0.0
C144 C 0.43245 0.78913 0.74047 0.0
C145 C 0.46601 0.91052 0.75784 0.0
C146 C 0.39226 0.83284 0.78209 0.0
H147 H 0.47783 0.7866 0.73599 0.0
H148 H 0.51631 0.82502 0.76263 0.0
H149 H 0.53947 0.91402 0.78675 0.0
H150 H 0.51813 0.94017 0.77298 0.0
H151 H 0.42148 0.91419 0.76323 0.0
H152 H 0.38213 0.87252 0.78146 0.0
H153 H 0.35794 0.78113 0.77533 0.0
H154 H 0.3799 0.7578 0.74962 0.0
H155 H 0.42971 0.80296 0.88012 0.0
H156 H 0.45481 0.8803 0.88758 0.0
H157 H 0.40852 0.84579 0.65362 0.0
H158 H 0.48395 0.86339 0.64494 0.0
C159 C 0.65138 0.45076 0.08479 0.0
C160 C 0.67612 0.46796 0.08874 0.0
C161 C 0.67724 0.48844 0.10307 0.0
C162 C 0.65322 0.48258 0.10727 0.0
N163 N 0.63714 0.45975 0.09645 0.0
Co164 Co 0.60095 0.44374 0.09987 0.0
N165 N 0.60221 0.4758 0.10279 0.0
C166 C 0.62198 0.49708 0.11251 0.0
C167 C 0.61726 0.51607 0.11492 0.0
C168 C 0.59295 0.50608 0.10647 0.0
C169 C 0.58413 0.48143 0.099 0.0
N170 N 0.56467 0.42781 0.104 0.0
C171 C 0.54958 0.43717 0.09849 0.0
C172 C 0.52517 0.41879 0.10165 0.0
C173 C 0.52521 0.39775 0.11091 0.0
C174 C 0.5495 0.40411 0.11231 0.0
N175 N 0.60015 0.41183 0.0965 0.0
C176 C 0.58117 0.38987 0.10558 0.0
C177 C 0.58526 0.37089 0.09782 0.0
C178 C 0.60825 0.38166 0.08314 0.0
C179 C 0.61716 0.40679 0.08308 0.0
N180 N 0.60312 0.44286 0.15043 0.0
C181 C 0.60064 0.43563 0.22216 0.0
C182 C 0.6151 0.4295 0.20152 0.0
C183 C 0.61639 0.43361 0.1658 0.0
C184 C 0.58826 0.44631 0.20634 0.0
C185 C 0.58955 0.44956 0.17058 0.0
N186 N 0.59812 0.44385 0.04962 0.0
C187 C 0.57742 0.42153 0.99843 0.0
C188 C 0.59386 0.44091 0.97747 0.0
C189 C 0.61219 0.46233 0.99361 0.0
C190 C 0.61392 0.46346 0.02985 0.0
C191 C 0.58005 0.42322 0.03402 0.0
H192 H 0.62818 0.47995 0.04188 0.0
H193 H 0.56745 0.40748 0.04881 0.0
H194 H 0.62753 0.42858 0.15048 0.0
H195 H 0.57879 0.45672 0.15918 0.0
C196 C 0.64512 0.49904 0.11539 0.0
C197 C 0.64206 0.42568 0.07182 0.0
C198 C 0.55802 0.46349 0.09243 0.0
C199 C 0.55834 0.38755 0.11373 0.0
H200 H 0.69172 0.46591 0.08213 0.0
H201 H 0.6936 0.50581 0.1085 0.0
H202 H 0.63 0.53498 0.12168 0.0
H203 H 0.5828 0.51578 0.10689 0.0
H204 H 0.50891 0.42015 0.09734 0.0
H205 H 0.50934 0.37965 0.11421 0.0
H206 H 0.57247 0.35143 0.10045 0.0
H207 H 0.61705 0.37195 0.07316 0.0
H208 H 0.62515 0.42141 0.21287 0.0
H209 H 0.57677 0.45118 0.22134 0.0
H210 H 0.56248 0.40489 0.9875 0.0
H211 H 0.62535 0.47784 0.97849 0.0
C212 C 0.2052 0.65187 0.41781 0.0
C213 C 0.21343 0.67683 0.42024 0.0
C214 C 0.19406 0.67895 0.43223 0.0
C215 C 0.17525 0.65529 0.43675 0.0
N216 N 0.1816 0.63845 0.42846 0.0
Co217 Co 0.16043 0.60241 0.43318 0.0
N218 N 0.13003 0.60472 0.43366 0.0
C219 C 0.12905 0.62544 0.43835 0.0
C220 C 0.10589 0.62201 0.43428 0.0
C221 C 0.09129 0.59756 0.42717 0.0
C222 C 0.10628 0.58716 0.42819 0.0
N223 N 0.1392 0.56635 0.43886 0.0
C224 C 0.11444 0.55177 0.43585 0.0
C225 C 0.10731 0.52775 0.44494 0.0
C226 C 0.12826 0.5274 0.45383 0.0
C227 C 0.14704 0.55115 0.45 0.0
N228 N 0.19105 0.60048 0.43183 0.0
C229 C 0.19324 0.58134 0.4425 0.0
C230 C 0.21617 0.58456 0.436 0.0
C231 C 0.22915 0.60718 0.42044 0.0
C232 C 0.21349 0.61672 0.41862 0.0
N233 N 0.16281 0.60559 0.48385 0.0
C234 C 0.16656 0.60255 0.55589 0.0
C235 C 0.18754 0.61643 0.53556 0.0
C236 C 0.18525 0.618 0.49973 0.0
C237 C 0.14361 0.5914 0.53953 0.0
C238 C 0.14214 0.59306 0.50368 0.0
N239 N 0.15807 0.59853 0.38291 0.0
C240 C 0.15832 0.57584 0.33304 0.0
C241 C 0.15494 0.59156 0.31117 0.0
C242 C 0.15344 0.61116 0.32593 0.0
C243 C 0.15484 0.61421 0.36196 0.0
C244 C 0.15997 0.5797 0.36855 0.0
H245 H 0.15332 0.62916 0.37288 0.0
H246 H 0.16292 0.56736 0.38436 0.0
H247 H 0.20174 0.6285 0.48474 0.0
H248 H 0.12424 0.58322 0.49195 0.0
C249 C 0.15056 0.6482 0.44141 0.0
C250 C 0.22045 0.64161 0.40623 0.0
C251 C 0.09704 0.56044 0.42785 0.0
C252 C 0.17228 0.55921 0.45187 0.0
H253 H 0.23144 0.69192 0.41373 0.0
H254 H 0.19343 0.69572 0.43551 0.0
H255 H 0.1004 0.63579 0.43511 0.0
H256 H 0.07176 0.58852 0.42223 0.0
H257 H 0.08886 0.51215 0.44575 0.0
H258 H 0.12965 0.5116 0.4615 0.0
H259 H 0.22233 0.5715 0.44029 0.0
H260 H 0.24785 0.6154 0.41125 0.0
H261 H 0.20563 0.62573 0.54719 0.0
H262 H 0.1269 0.58046 0.55411 0.0
H263 H 0.16002 0.56075 0.32273 0.0
H264 H 0.15081 0.62375 0.30985 0.0
C265 C 0.54984 0.19872 0.74839 0.0
C266 C 0.53033 0.20321 0.74616 0.0
C267 C 0.51028 0.18335 0.76023 0.0
C268 C 0.51824 0.16746 0.76937 0.0
N269 N 0.54205 0.17602 0.76163 0.0
Co270 Co 0.55964 0.1573 0.76583 0.0
N271 N 0.52842 0.12551 0.7681 0.0
C272 C 0.50649 0.12266 0.77718 0.0
C273 C 0.48839 0.09855 0.77962 0.0
C274 C 0.49966 0.08536 0.77176 0.0
C275 C 0.52411 0.10226 0.76446 0.0
N276 N 0.57713 0.13845 0.77014 0.0
C277 C 0.56898 0.11428 0.76405 0.0
C278 C 0.58814 0.10942 0.76756 0.0
C279 C 0.60845 0.13097 0.77758 0.0
C280 C 0.60088 0.14798 0.77906 0.0
N281 N 0.5907 0.18927 0.76354 0.0
C282 C 0.61278 0.19337 0.77427 0.0
C283 C 0.63092 0.2174 0.77003 0.0
C284 C 0.61945 0.22907 0.75586 0.0
C285 C 0.59487 0.21144 0.75198 0.0
N286 N 0.55972 0.15992 0.81652 0.0
C287 C 0.5666 0.16447 0.8885 0.0
C288 C 0.57136 0.18482 0.8681 0.0
C289 C 0.56745 0.18209 0.83228 0.0
C290 C 0.55735 0.14167 0.87224 0.0
C291 C 0.55423 0.13982 0.83642 0.0
N292 N 0.5603 0.1547 0.7155 0.0
C293 C 0.5833 0.15703 0.66458 0.0
C294 C 0.56287 0.15074 0.64374 0.0
C295 C 0.54105 0.14676 0.65948 0.0
C296 C 0.54008 0.1486 0.69555 0.0
C297 C 0.5817 0.15909 0.70011 0.0
H298 H 0.52305 0.14505 0.70734 0.0
H299 H 0.59795 0.16424 0.71511 0.0
H300 H 0.57145 0.19808 0.81718 0.0
H301 H 0.54822 0.12217 0.82477 0.0
C302 C 0.50289 0.14282 0.77801 0.0
C303 C 0.57569 0.2167 0.73982 0.0
C304 C 0.54301 0.09554 0.75731 0.0
C305 C 0.61632 0.17352 0.78191 0.0
H306 H 0.5301 0.21883 0.73504 0.0
H307 H 0.49172 0.18021 0.76147 0.0
H308 H 0.46917 0.09139 0.78561 0.0
H309 H 0.49088 0.06555 0.7721 0.0
H310 H 0.58774 0.09227 0.76313 0.0
H311 H 0.62685 0.1341 0.78151 0.0
H312 H 0.65034 0.22532 0.77528 0.0
H313 H 0.62816 0.24835 0.74929 0.0
H314 H 0.57826 0.20275 0.87971 0.0
H315 H 0.55353 0.12549 0.88693 0.0
H316 H 0.6006 0.16064 0.65342 0.0
H317 H 0.52483 0.14186 0.64413 0.0
C318 C 0.45881 0.65336 0.61908 0.0
C319 C 0.47838 0.67724 0.62246 0.0
C320 C 0.49862 0.67756 0.60888 0.0
C321 C 0.49069 0.65387 0.59888 0.0
N322 N 0.46672 0.63859 0.60565 0.0
Co323 Co 0.44904 0.60238 0.6001 0.0
N324 N 0.48021 0.60165 0.59823 0.0
C325 C 0.50231 0.62082 0.58997 0.0
C326 C 0.52034 0.61472 0.58738 0.0
C327 C 0.50885 0.59011 0.59428 0.0
C328 C 0.48436 0.58257 0.60124 0.0
N329 N 0.43149 0.56613 0.59453 0.0
C330 C 0.43942 0.5499 0.60044 0.0
C331 C 0.4202 0.52599 0.59628 0.0
C332 C 0.4001 0.52752 0.58596 0.0
C333 C 0.40784 0.55214 0.58499 0.0
N334 N 0.41803 0.60343 0.60189 0.0
C335 C 0.39609 0.58571 0.59028 0.0
C336 C 0.37798 0.59168 0.59411 0.0
C337 C 0.38931 0.61461 0.60892 0.0
C338 C 0.41379 0.62136 0.61357 0.0
N339 N 0.44974 0.60588 0.54954 0.0
C340 C 0.44384 0.60493 0.47752 0.0
C341 C 0.43893 0.62023 0.4983 0.0
C342 C 0.44238 0.62074 0.53416 0.0
C343 C 0.45276 0.59097 0.49341 0.0
C344 C 0.45538 0.59154 0.52928 0.0
N345 N 0.44763 0.59817 0.65027 0.0
C346 C 0.42377 0.57676 0.70023 0.0
C347 C 0.44406 0.59003 0.72172 0.0
C348 C 0.46623 0.60787 0.70677 0.0
C349 C 0.46769 0.61153 0.67085 0.0
C350 C 0.42589 0.58117 0.66488 0.0
H351 H 0.48496 0.62501 0.65969 0.0
H352 H 0.40978 0.57061 0.64936 0.0
H353 H 0.43829 0.63254 0.54956 0.0
H354 H 0.4611 0.57958 0.54065 0.0
C355 C 0.50606 0.64463 0.59008 0.0
C356 C 0.43283 0.64557 0.62656 0.0
C357 C 0.46529 0.55687 0.60756 0.0
C358 C 0.39255 0.56241 0.58209 0.0
H359 H 0.47848 0.69292 0.63398 0.0
H360 H 0.51723 0.69292 0.60843 0.0
H361 H 0.53964 0.6268 0.58194 0.0
H362 H 0.51755 0.57901 0.59356 0.0
H363 H 0.42038 0.50911 0.60051 0.0
H364 H 0.3817 0.51239 0.58152 0.0
H365 H 0.35865 0.58037 0.58812 0.0
H366 H 0.38058 0.62519 0.61534 0.0
H367 H 0.43225 0.63153 0.48694 0.0
H368 H 0.45669 0.57883 0.47835 0.0
H369 H 0.40619 0.56314 0.71073 0.0
H370 H 0.48236 0.61854 0.72259 0.0
C371 C 0.80357 0.45311 0.94783 0.0
C372 C 0.79577 0.47018 0.94569 0.0
C373 C 0.81546 0.49164 0.93425 0.0
C374 C 0.83403 0.48642 0.92975 0.0
N375 N 0.82723 0.46304 0.93753 0.0
Co376 Co 0.84798 0.4477 0.93286 0.0
N377 N 0.8787 0.48012 0.93333 0.0
C378 C 0.88011 0.50205 0.92905 0.0
C379 C 0.90338 0.52148 0.9337 0.0
C380 C 0.9176 0.51117 0.94073 0.0
C381 C 0.90229 0.48585 0.9391 0.0
N382 N 0.86879 0.43237 0.92728 0.0
C383 C 0.89349 0.44214 0.93067 0.0
C384 C 0.90031 0.42505 0.92137 0.0
C385 C 0.87924 0.40405 0.91193 0.0
C386 C 0.86071 0.40939 0.91566 0.0
N387 N 0.81703 0.41543 0.93322 0.0
C388 C 0.81456 0.39406 0.92217 0.0
C389 C 0.79143 0.37455 0.9281 0.0
C390 C 0.7786 0.38433 0.94371 0.0
C391 C 0.79456 0.40944 0.94612 0.0
N392 N 0.84622 0.4491 0.88227 0.0
C393 C 0.84303 0.44148 0.81046 0.0
C394 C 0.82202 0.43563 0.83009 0.0
C395 C 0.82403 0.43973 0.86587 0.0
C396 C 0.86582 0.453 0.82732 0.0
C397 C 0.86702 0.45666 0.86299 0.0
N398 N 0.84966 0.44552 0.98305 0.0
C399 C 0.84725 0.42128 0.03247 0.0
C400 C 0.84988 0.43988 0.05487 0.0
C401 C 0.85296 0.46174 0.0404 0.0
C402 C 0.85285 0.46421 1.00437 0.0
C403 C 0.84701 0.42437 0.99698 0.0
H404 H 0.85505 0.48105 0.99376 0.0
H405 H 0.84442 0.40936 0.98082 0.0
H406 H 0.80746 0.4342 0.88048 0.0
H407 H 0.88479 0.46455 0.87508 0.0
C408 C 0.85887 0.50378 0.92574 0.0
C409 C 0.78791 0.42753 0.95883 0.0
C410 C 0.91115 0.46806 0.93906 0.0
C411 C 0.83541 0.39258 0.9131 0.0
H412 H 0.77782 0.46751 0.95207 0.0
H413 H 0.81645 0.50922 0.93138 0.0
H414 H 0.9092 0.54083 0.93323 0.0
H415 H 0.93711 0.52132 0.94596 0.0
H416 H 0.91864 0.42758 0.92073 0.0
H417 H 0.87762 0.38682 0.90391 0.0
H418 H 0.78503 0.35531 0.92347 0.0
H419 H 0.75981 0.374 0.95257 0.0
H420 H 0.80399 0.42687 0.81828 0.0
H421 H 0.88269 0.45863 0.8132 0.0
H422 H 0.84542 0.40431 0.0422 0.0
H423 H 0.85497 0.47662 0.0567 0.0
C424 C 0.35421 0.80146 0.28207 0.0
C425 C 0.32918 0.79304 0.27968 0.0
C426 C 0.32685 0.81222 0.26751 0.0
C427 C 0.35046 0.83113 0.26285 0.0
N428 N 0.36747 0.82501 0.27123 0.0
Co429 Co 0.40349 0.84638 0.26623 0.0
N430 N 0.40089 0.87658 0.26541 0.0
C431 C 0.38004 0.87734 0.26072 0.0
C432 C 0.38329 0.90043 0.26459 0.0
C433 C 0.40775 0.91521 0.27158 0.0
C434 C 0.41834 0.90039 0.27068 0.0
N435 N 0.43951 0.86779 0.26023 0.0
C436 C 0.45395 0.89256 0.26301 0.0
C437 C 0.47801 0.89983 0.25377 0.0
C438 C 0.47852 0.87894 0.24507 0.0
C439 C 0.45483 0.86007 0.24914 0.0
N440 N 0.40573 0.81596 0.26799 0.0
C441 C 0.42497 0.8139 0.25737 0.0
C442 C 0.42198 0.79112 0.26413 0.0
C443 C 0.3994 0.77807 0.27981 0.0
C444 C 0.38964 0.79355 0.28142 0.0
N445 N 0.40012 0.84365 0.21562 0.0
C446 C 0.40271 0.83956 0.14361 0.0
C447 C 0.38925 0.81866 0.1642 0.0
C448 C 0.38786 0.82112 0.20002 0.0
C449 C 0.4137 0.86258 0.15967 0.0
C450 C 0.4123 0.86422 0.19553 0.0
N451 N 0.40754 0.84909 0.31646 0.0
C452 C 0.43073 0.84977 0.36631 0.0
C453 C 0.41481 0.85291 0.38809 0.0
C454 C 0.39489 0.85382 0.37335 0.0
C455 C 0.39171 0.85212 0.33736 0.0
C456 C 0.42668 0.84771 0.33084 0.0
H457 H 0.37652 0.85325 0.32643 0.0
H458 H 0.43914 0.84489 0.31508 0.0
H459 H 0.37762 0.80469 0.21522 0.0
H460 H 0.42205 0.88219 0.20704 0.0
C461 C 0.35734 0.85573 0.25791 0.0
C462 C 0.36469 0.78643 0.29377 0.0
C463 C 0.44512 0.90981 0.27101 0.0
C464 C 0.44698 0.83489 0.24765 0.0
H465 H 0.31419 0.77501 0.28632 0.0
H466 H 0.30998 0.81268 0.26419 0.0
H467 H 0.36938 0.90577 0.26373 0.0
H468 H 0.41667 0.93473 0.27637 0.0
H469 H 0.49352 0.91831 0.25277 0.0
H470 H 0.4944 0.87766 0.23739 0.0
H471 H 0.43516 0.78509 0.25991 0.0
H472 H 0.39133 0.75945 0.28919 0.0
H473 H 0.38012 0.80051 0.15276 0.0
H474 H 0.42432 0.87922 0.14482 0.0
H475 H 0.4461 0.84857 0.37669 0.0
H476 H 0.38215 0.85624 0.38943 0.0
C477 C 0.54795 0.35129 0.61791 0.0
C478 C 0.52854 0.32737 0.62175 0.0
C479 C 0.50808 0.32679 0.60854 0.0
C480 C 0.51574 0.35037 0.59828 0.0
N481 N 0.53974 0.36582 0.60453 0.0
Co482 Co 0.55715 0.40198 0.59829 0.0
N483 N 0.52587 0.40247 0.59713 0.0
C484 C 0.50372 0.38315 0.58951 0.0
C485 C 0.48556 0.3891 0.58731 0.0
C486 C 0.49702 0.41377 0.59379 0.0
C487 C 0.52163 0.4215 0.60012 0.0
N488 N 0.57443 0.43816 0.59188 0.0
C489 C 0.56646 0.45435 0.59787 0.0
C490 C 0.58553 0.47825 0.59297 0.0
C491 C 0.60553 0.47673 0.58208 0.0
C492 C 0.5979 0.45213 0.58154 0.0
N493 N 0.5883 0.40117 0.59951 0.0
C494 C 0.61005 0.41886 0.58732 0.0
C495 C 0.62833 0.41311 0.59105 0.0
C496 C 0.61731 0.39036 0.6064 0.0
C497 C 0.59284 0.38349 0.61145 0.0
N498 N 0.55583 0.39795 0.54788 0.0
C499 C 0.5619 0.39892 0.47599 0.0
C500 C 0.56672 0.38358 0.49681 0.0
C501 C 0.5632 0.38307 0.53262 0.0
C502 C 0.55278 0.41275 0.49173 0.0
C503 C 0.55002 0.41212 0.52756 0.0
N504 N 0.55927 0.40668 0.64832 0.0
C505 C 0.58411 0.4282 0.69742 0.0
C506 C 0.56491 0.41362 0.72001 0.0
C507 C 0.5424 0.39579 0.70569 0.0
C508 C 0.53991 0.39273 0.6697 0.0
C509 C 0.58104 0.42424 0.66207 0.0
H510 H 0.52254 0.37892 0.65917 0.0
H511 H 0.59658 0.43544 0.64589 0.0
H512 H 0.56738 0.37137 0.5481 0.0
H513 H 0.54419 0.42402 0.53887 0.0
C514 C 0.50013 0.3594 0.58979 0.0
C515 C 0.57404 0.35934 0.62499 0.0
C516 C 0.54068 0.4473 0.60582 0.0
C517 C 0.6133 0.44197 0.57859 0.0
H518 H 0.5287 0.31184 0.63334 0.0
H519 H 0.48951 0.31134 0.60852 0.0
H520 H 0.46621 0.37689 0.58238 0.0
H521 H 0.48822 0.42478 0.59321 0.0
H522 H 0.58533 0.49513 0.59713 0.0
H523 H 0.62382 0.49187 0.57709 0.0
H524 H 0.64758 0.42446 0.58461 0.0
H525 H 0.62623 0.37998 0.61291 0.0
H526 H 0.57349 0.37233 0.48556 0.0
H527 H 0.5489 0.42492 0.47665 0.0
H528 H 0.60161 0.44272 0.70684 0.0
H529 H 0.52698 0.38398 0.72205 0.0
C530 C 0.20435 0.55115 0.94811 0.0
C531 C 0.21267 0.53449 0.94566 0.0
C532 C 0.19342 0.51303 0.9334 0.0
C533 C 0.17457 0.51783 0.92877 0.0
N534 N 0.1808 0.54096 0.93725 0.0
Co535 Co 0.15952 0.55572 0.93265 0.0
N536 N 0.12921 0.52297 0.93184 0.0
C537 C 0.12835 0.50135 0.92694 0.0
C538 C 0.10521 0.48154 0.93083 0.0
C539 C 0.09052 0.49127 0.93807 0.0
C540 C 0.10543 0.51667 0.93729 0.0
N541 N 0.13819 0.57045 0.92707 0.0
C542 C 0.11342 0.56017 0.93003 0.0
C543 C 0.1062 0.57702 0.92106 0.0
C544 C 0.12712 0.5984 0.91232 0.0
C545 C 0.14596 0.59351 0.9161 0.0
N546 N 0.19003 0.58831 0.93435 0.0
C547 C 0.19217 0.60966 0.92385 0.0
C548 C 0.21507 0.62937 0.93044 0.0
C549 C 0.2281 0.61973 0.94589 0.0
C550 C 0.21247 0.59453 0.94758 0.0
N551 N 0.16207 0.5552 0.88199 0.0
C552 C 0.16605 0.56232 0.81002 0.0
C553 C 0.18697 0.56941 0.83047 0.0
C554 C 0.18456 0.56537 0.86625 0.0
C555 C 0.14304 0.55036 0.8262 0.0
C556 C 0.14145 0.54707 0.86203 0.0
N557 N 0.15702 0.55698 0.98294 0.0
C558 C 0.15698 0.57958 0.03306 0.0
C559 C 0.1541 0.56058 0.05474 0.0
C560 C 0.15291 0.53968 0.03979 0.0
C561 C 0.15416 0.53813 1.00372 0.0
C562 C 0.1586 0.57752 0.9975 0.0
H563 H 0.15286 0.52179 0.99265 0.0
H564 H 0.1613 0.59278 0.98183 0.0
H565 H 0.20102 0.57135 0.88135 0.0
H566 H 0.1235 0.53889 0.87364 0.0
C567 C 0.14991 0.50019 0.9239 0.0
C568 C 0.21947 0.57662 0.95987 0.0
C569 C 0.09611 0.53408 0.93793 0.0
C570 C 0.17119 0.61078 0.91442 0.0
H571 H 0.23067 0.53744 0.95235 0.0
H572 H 0.19286 0.49568 0.93004 0.0
H573 H 0.0998 0.46229 0.92983 0.0
H574 H 0.07099 0.4807 0.94295 0.0
H575 H 0.08773 0.57412 0.92024 0.0
H576 H 0.12845 0.61559 0.90479 0.0
H577 H 0.2212 0.64859 0.92624 0.0
H578 H 0.2468 0.63019 0.95506 0.0
H579 H 0.2051 0.57832 0.81897 0.0
H580 H 0.12637 0.54459 0.8115 0.0
H581 H 0.15839 0.5962 0.04357 0.0
H582 H 0.15067 0.52457 0.05577 0.0
C583 C 0.65403 0.20308 0.28155 0.0
C584 C 0.67905 0.21149 0.27899 0.0
C585 C 0.68133 0.19235 0.2665 0.0
C586 C 0.6577 0.17348 0.26184 0.0
N587 N 0.64073 0.17958 0.27051 0.0
Co588 Co 0.6047 0.15827 0.2657 0.0
N589 N 0.60726 0.12805 0.26454 0.0
C590 C 0.62807 0.12727 0.25958 0.0
C591 C 0.62481 0.10417 0.26327 0.0
C592 C 0.60037 0.0894 0.27042 0.0
C593 C 0.5898 0.10425 0.26981 0.0
N594 N 0.56866 0.13692 0.25985 0.0
C595 C 0.5542 0.11214 0.26258 0.0
C596 C 0.53013 0.10492 0.25352 0.0
C597 C 0.52963 0.12584 0.24498 0.0
C598 C 0.55334 0.14468 0.24896 0.0
N599 N 0.60251 0.1887 0.26783 0.0
C600 C 0.58326 0.19083 0.25742 0.0
C601 C 0.58631 0.2136 0.26446 0.0
C602 C 0.60892 0.22655 0.2801 0.0
C603 C 0.61863 0.21103 0.28142 0.0
N604 N 0.60792 0.16113 0.21507 0.0
C605 C 0.60521 0.16542 0.1431 0.0
C606 C 0.61869 0.18626 0.16378 0.0
C607 C 0.62014 0.1837 0.19957 0.0
C608 C 0.59423 0.14235 0.15905 0.0
C609 C 0.59569 0.14062 0.19489 0.0
N610 N 0.60079 0.15543 0.31595 0.0
C611 C 0.57773 0.15464 0.36602 0.0
C612 C 0.59385 0.15171 0.38763 0.0
C613 C 0.61379 0.15091 0.37272 0.0
C614 C 0.61678 0.15254 0.33669 0.0
C615 C 0.58163 0.15669 0.33052 0.0
H616 H 0.63198 0.15149 0.32561 0.0
H617 H 0.56907 0.15943 0.3149 0.0
H618 H 0.63042 0.20009 0.21484 0.0
H619 H 0.58596 0.12261 0.20631 0.0
C620 C 0.65078 0.14888 0.2567 0.0
C621 C 0.64358 0.21803 0.29367 0.0
C622 C 0.56304 0.09487 0.27041 0.0
C623 C 0.56122 0.16988 0.24767 0.0
H624 H 0.69406 0.22948 0.28575 0.0
H625 H 0.69818 0.19188 0.263 0.0
H626 H 0.6387 0.09881 0.26219 0.0
H627 H 0.59146 0.06987 0.27516 0.0
H628 H 0.5146 0.08645 0.25255 0.0
H629 H 0.51374 0.12715 0.2375 0.0
H630 H 0.57314 0.21967 0.26045 0.0
H631 H 0.61703 0.24514 0.28965 0.0
H632 H 0.6278 0.20443 0.15244 0.0
H633 H 0.58359 0.12575 0.14412 0.0
H634 H 0.56233 0.15572 0.37657 0.0
H635 H 0.62667 0.14867 0.38869 0.0
C636 C 0.40927 0.5584 0.28322 0.0
C637 C 0.41206 0.57655 0.25966 0.0
C638 C 0.41353 0.5635 0.31873 0.0
C639 C 0.42132 0.58753 0.33101 0.0
C640 C 0.42393 0.60588 0.30733 0.0
C641 C 0.41902 0.6001 0.27203 0.0
C642 C 0.40999 0.54323 0.34305 0.0
C643 C 0.43265 0.63182 0.31914 0.0
C644 C 0.4153 0.59633 0.42742 0.0
C645 C 0.43867 0.60245 0.43974 0.0
C646 C 0.40942 0.59159 0.39212 0.0
C647 C 0.42751 0.59357 0.3684 0.0
C648 C 0.45139 0.60055 0.38065 0.0
C649 C 0.45657 0.6046 0.41617 0.0
C650 C 0.38362 0.58369 0.38037 0.0
C651 C 0.47139 0.60338 0.35628 0.0
H652 H 0.40376 0.54013 0.27379 0.0
H653 H 0.42147 0.61427 0.25386 0.0
H654 H 0.42782 0.54777 0.35496 0.0
H655 H 0.39736 0.54147 0.36431 0.0
H656 H 0.40241 0.52523 0.32978 0.0
H657 H 0.43325 0.64384 0.29769 0.0
H658 H 0.4204 0.63191 0.33968 0.0
H659 H 0.45132 0.63976 0.33043 0.0
H660 H 0.40133 0.59434 0.44564 0.0
H661 H 0.47467 0.60941 0.4256 0.0
H662 H 0.3751 0.56497 0.36914 0.0
H663 H 0.38396 0.59613 0.35981 0.0
H664 H 0.37184 0.58356 0.40184 0.0
H665 H 0.46626 0.5854 0.3444 0.0
H666 H 0.48936 0.61044 0.36951 0.0
H667 H 0.47355 0.61614 0.33501 0.0
C668 C 0.82499 0.38832 0.61591 0.0
C669 C 0.84154 0.40682 0.5936 0.0
C670 C 0.82363 0.39313 0.65115 0.0
C671 C 0.83919 0.417 0.6645 0.0
C672 C 0.85564 0.43581 0.64201 0.0
C673 C 0.85655 0.43053 0.60697 0.0
C674 C 0.80582 0.37255 0.67422 0.0
C675 C 0.87254 0.46152 0.65505 0.0
C676 C 0.8251 0.437 0.75064 0.0
C677 C 0.84134 0.43466 0.77313 0.0
C678 C 0.82382 0.43088 0.71539 0.0
C679 C 0.83913 0.4222 0.70221 0.0
C680 C 0.85523 0.41941 0.7249 0.0
C681 C 0.85608 0.42558 0.75994 0.0
C682 C 0.80638 0.4341 0.69211 0.0
C683 C 0.87186 0.41019 0.71206 0.0
H684 H 0.8134 0.36993 0.60598 0.0
H685 H 0.86901 0.44514 0.5899 0.0
H686 H 0.81609 0.36876 0.69429 0.0
H687 H 0.79374 0.378 0.68778 0.0
H688 H 0.79415 0.35535 0.65962 0.0
H689 H 0.88379 0.47425 0.63408 0.0
H690 H 0.8617 0.4689 0.66752 0.0
H691 H 0.8851 0.46121 0.67492 0.0
H692 H 0.81372 0.44408 0.76042 0.0
H693 H 0.86828 0.42312 0.77715 0.0
H694 H 0.79416 0.41668 0.6784 0.0
H695 H 0.81694 0.44814 0.67216 0.0
H696 H 0.79485 0.43987 0.70657 0.0
H697 H 0.86082 0.39205 0.69945 0.0
H698 H 0.88282 0.40839 0.73317 0.0
H699 H 0.88467 0.423 0.69235 0.0
C700 C 0.41257 0.82104 0.93871 0.0
C701 C 0.43586 0.83874 0.92671 0.0
C702 C 0.40621 0.8199 0.97382 0.0
C703 C 0.42372 0.83653 0.99773 0.0
C704 C 0.44752 0.85395 0.98585 0.0
C705 C 0.4532 0.85501 0.9505 0.0
C706 C 0.38051 0.80136 0.98517 0.0
C707 C 0.46693 0.8717 1.01043 0.0
C708 C 0.4032 0.85239 0.08194 0.0
C709 C 0.40642 0.83752 0.10594 0.0
C710 C 0.40813 0.85175 0.04661 0.0
C711 C 0.417 0.83625 0.03494 0.0
C712 C 0.42009 0.82105 0.05906 0.0
C713 C 0.41454 0.8217 0.09415 0.0
C714 C 0.40409 0.86792 0.0218 0.0
C715 C 0.42994 0.80461 0.04795 0.0
H716 H 0.399 0.80863 0.92037 0.0
H717 H 0.47126 0.86864 0.9414 0.0
H718 H 0.38116 0.78958 1.00596 0.0
H719 H 0.3713 0.81102 0.99597 0.0
H720 H 0.36918 0.78943 0.96359 0.0
H721 H 0.48492 0.88316 0.99749 0.0
H722 H 0.46096 0.88401 0.02193 0.0
H723 H 0.46945 0.86152 0.03196 0.0
H724 H 0.3968 0.86455 0.09087 0.0
H725 H 0.41737 0.8104 0.11263 0.0
H726 H 0.39184 0.85669 1.00044 0.0
H727 H 0.42185 0.88157 1.01008 0.0
H728 H 0.39585 0.87789 0.0346 0.0
H729 H 0.41819 0.79192 0.02735 0.0
H730 H 0.43089 0.7936 0.0697 0.0
H731 H 0.44864 0.8159 0.03697 0.0
C732 C 0.60075 0.44799 0.28373 0.0
C733 C 0.59734 0.4299 0.2597 0.0
C734 C 0.59594 0.4424 0.31903 0.0
C735 C 0.5869 0.41797 0.33051 0.0
C736 C 0.58368 0.39967 0.30633 0.0
C737 C 0.5892 0.40592 0.27128 0.0
C738 C 0.60014 0.46259 0.34397 0.0
C739 C 0.57364 0.37333 0.3173 0.0
C740 C 0.59085 0.40704 0.42663 0.0
C741 C 0.56759 0.40173 0.43838 0.0
C742 C 0.59734 0.41214 0.39158 0.0
C743 C 0.58 0.41146 0.36756 0.0
C744 C 0.55621 0.40532 0.37917 0.0
C745 C 0.55039 0.40078 0.41445 0.0
C746 C 0.62302 0.41905 0.38045 0.0
C747 C 0.53701 0.40392 0.3544 0.0
H748 H 0.60713 0.46656 0.27483 0.0
H749 H 0.58626 0.39183 0.25266 0.0
H750 H 0.5824 0.45872 0.35547 0.0
H751 H 0.61217 0.46331 0.36546 0.0
H752 H 0.60872 0.48088 0.33132 0.0
H753 H 0.57277 0.36142 0.29554 0.0
H754 H 0.58521 0.37223 0.33806 0.0
H755 H 0.55488 0.36599 0.32803 0.0
H756 H 0.60431 0.40812 0.44512 0.0
H757 H 0.53236 0.39657 0.42342 0.0
H758 H 0.63249 0.43799 0.36992 0.0
H759 H 0.62232 0.40669 0.3595 0.0
H760 H 0.63414 0.41812 0.40208 0.0
H761 H 0.54317 0.42229 0.34305 0.0
H762 H 0.51897 0.39747 0.36715 0.0
H763 H 0.53451 0.3913 0.33279 0.0
C764 C 0.18517 0.59157 0.60543 0.0
C765 C 0.16847 0.59859 0.59355 0.0
C766 C 0.18586 0.58588 0.64045 0.0
C767 C 0.16975 0.5876 0.66442 0.0
C768 C 0.15329 0.59529 0.6527 0.0
C769 C 0.15271 0.60047 0.61745 0.0
C770 C 0.20342 0.5774 0.65163 0.0
C771 C 0.13609 0.59781 0.67737 0.0
C772 C 0.1526 0.55071 0.7483 0.0
C773 C 0.16808 0.56835 0.77241 0.0
C774 C 0.15335 0.55658 0.71306 0.0
C775 C 0.16966 0.58083 0.70159 0.0
C776 C 0.18546 0.59867 0.7258 0.0
C777 C 0.18463 0.59217 0.76079 0.0
C778 C 0.13648 0.53686 0.68815 0.0
C779 C 0.20283 0.6248 0.71488 0.0
H780 H 0.19717 0.58974 0.58707 0.0
H781 H 0.13988 0.60604 0.60852 0.0
H782 H 0.2156 0.58944 0.67245 0.0
H783 H 0.19294 0.55854 0.66234 0.0
H784 H 0.21501 0.57738 0.62999 0.0
H785 H 0.12521 0.60505 0.66451 0.0
H786 H 0.1232 0.57968 0.68886 0.0
H787 H 0.14667 0.61028 0.6989 0.0
H788 H 0.13989 0.53224 0.75704 0.0
H789 H 0.19641 0.60598 0.77933 0.0
H790 H 0.14732 0.5352 0.66678 0.0
H791 H 0.12352 0.54193 0.67647 0.0
H792 H 0.12569 0.51868 0.70084 0.0
H793 H 0.21527 0.6252 0.69425 0.0
H794 H 0.21417 0.63641 0.7367 0.0
H795 H 0.19224 0.633 0.704 0.0
C796 C 0.59331 0.18339 0.09383 0.0
C797 C 0.60148 0.16755 0.10546 0.0
C798 C 0.58778 0.18415 0.05875 0.0
C799 C 0.59093 0.16907 0.03449 0.0
C800 C 0.59984 0.15355 0.046 0.0
C801 C 0.60474 0.15279 0.08132 0.0
C802 C 0.57789 0.20058 0.04781 0.0
C803 C 0.60394 0.13752 0.02104 0.0
C804 C 0.55486 0.15055 0.94991 0.0
C805 C 0.57221 0.16693 0.92622 0.0
C806 C 0.56049 0.15151 0.98527 0.0
C807 C 0.58426 0.16892 0.99727 0.0
C808 C 0.60177 0.18567 0.97347 0.0
C809 C 0.59546 0.18463 0.93835 0.0
C810 C 0.54106 0.13364 1.00973 0.0
C811 C 0.62744 0.20421 0.98494 0.0
H812 H 0.59045 0.1946 0.11241 0.0
H813 H 0.61117 0.14063 0.09013 0.0
H814 H 0.58965 0.21338 0.0273 0.0
H815 H 0.55921 0.1893 0.03676 0.0
H816 H 0.57688 0.21149 0.06965 0.0
H817 H 0.61221 0.12752 0.03374 0.0
H818 H 0.58621 0.12389 1.00924 0.0
H819 H 0.6162 0.14884 0.99976 0.0
H820 H 0.53682 0.13692 0.94071 0.0
H821 H 0.60904 0.19713 0.92009 0.0
H822 H 0.5385 0.14371 0.03136 0.0
H823 H 0.54705 0.12129 0.02109 0.0
H824 H 0.52309 0.12221 0.99672 0.0
H825 H 0.62672 0.21588 1.00585 0.0
H826 H 0.63877 0.21625 0.96344 0.0
H827 H 0.63668 0.19455 0.99563 0.0
C828 C 0.33569 0.57061 0.02402 0.0
C829 C 0.34819 0.58465 0.05307 0.0
C830 C 0.31595 0.57197 1.00916 0.0
C831 C 0.30878 0.58832 0.02301 0.0
C832 C 0.32206 0.60337 0.05142 0.0
C833 C 0.34114 0.60091 0.06663 0.0
C834 C 0.30198 0.55497 0.97967 0.0
C835 C 0.31561 0.62154 0.06652 0.0
C836 C 0.26599 0.59919 0.96439 0.0
C837 C 0.24286 0.58347 0.97894 0.0
C838 C 0.28773 0.60218 0.97967 0.0
C839 C 0.28632 0.58822 1.00927 0.0
C840 C 0.263 0.57264 0.02433 0.0
C841 C 0.24172 0.57077 1.00932 0.0
C842 C 0.31215 0.61957 0.96329 0.0
C843 C 0.26031 0.55679 0.05516 0.0
H844 H 0.34074 0.55768 1.01382 0.0
H845 H 0.34989 0.61109 0.08991 0.0
H846 H 0.28262 0.54256 0.98749 0.0
H847 H 0.3017 0.56566 0.95711 0.0
H848 H 0.31006 0.54359 0.97152 0.0
H849 H 0.32975 0.63425 0.08507 0.0
H850 H 0.31355 0.6325 0.04568 0.0
H851 H 0.29777 0.61159 0.08023 0.0
H852 H 0.26709 0.60835 0.94022 0.0
H853 H 0.22387 0.55826 0.02032 0.0
H854 H 0.31956 0.60895 0.95025 0.0
H855 H 0.32564 0.63115 0.9833 0.0
H856 H 0.31056 0.63171 0.94388 0.0
H857 H 0.26661 0.54371 0.04823 0.0
H858 H 0.24102 0.54617 0.06439 0.0
H859 H 0.27203 0.56825 0.07673 0.0
C860 C 0.76593 0.33346 0.35817 0.0
C861 C 0.76485 0.34507 0.38853 0.0
C862 C 0.7446 0.31417 0.34309 0.0
C863 C 0.72127 0.3067 0.35791 0.0
C864 C 0.71992 0.31936 0.38742 0.0
C865 C 0.74171 0.33787 0.40291 0.0
C866 C 0.74725 0.3008 0.31248 0.0
C867 C 0.69551 0.31272 0.40348 0.0
C868 C 0.66717 0.26451 0.29952 0.0
C869 C 0.66005 0.24122 0.31323 0.0
C870 C 0.68586 0.28609 0.31518 0.0
C871 C 0.69876 0.2844 0.34417 0.0
C872 C 0.69132 0.26092 0.35839 0.0
C873 C 0.67187 0.23979 0.34317 0.0
C874 C 0.69245 0.31067 0.2998 0.0
C875 C 0.70492 0.25791 0.38842 0.0
H876 H 0.78377 0.33863 0.34725 0.0
H877 H 0.74061 0.3459 0.4271 0.0
H878 H 0.7404 0.28131 0.31939 0.0
H879 H 0.73596 0.30094 0.29058 0.0
H880 H 0.76661 0.30905 0.3037 0.0
H881 H 0.69717 0.3268 0.4223 0.0
H882 H 0.68207 0.31057 0.38323 0.0
H883 H 0.688 0.29492 0.41717 0.0
H884 H 0.65895 0.26588 0.27565 0.0
H885 H 0.66675 0.22185 0.35356 0.0
H886 H 0.71013 0.31823 0.28572 0.0
H887 H 0.69486 0.32392 0.32047 0.0
H888 H 0.67821 0.30925 0.28146 0.0
H889 H 0.72432 0.26464 0.38099 0.0
H890 H 0.6966 0.23849 0.39687 0.0
H891 H 0.70514 0.26909 0.41068 0.0
C892 C 0.4338 0.74963 0.74147 0.0
C893 C 0.42551 0.76428 0.72589 0.0
C894 C 0.43179 0.72887 0.7247 0.0
C895 C 0.41847 0.72063 0.69322 0.0
C896 C 0.407 0.73352 0.67995 0.0
C897 C 0.41134 0.75557 0.69577 0.0
C898 C 0.44493 0.71664 0.74047 0.0
C899 C 0.39042 0.72471 0.64875 0.0
C900 C 0.43494 0.68679 0.62577 0.0
C901 C 0.4259 0.66357 0.64085 0.0
C902 C 0.43277 0.70548 0.64244 0.0
C903 C 0.4186 0.70014 0.67314 0.0
C904 C 0.40646 0.67559 0.68575 0.0
C905 C 0.41093 0.6579 0.67017 0.0
C906 C 0.44665 0.73105 0.62743 0.0
C907 C 0.38902 0.6676 0.71598 0.0
H908 H 0.44329 0.75527 0.76604 0.0
H909 H 0.40391 0.76618 0.6842 0.0
H910 H 0.43197 0.70134 0.75727 0.0
H911 H 0.45211 0.70918 0.72055 0.0
H912 H 0.46057 0.72964 0.75688 0.0
H913 H 0.3733 0.72512 0.6543 0.0
H914 H 0.39958 0.73751 0.62691 0.0
H915 H 0.38535 0.70583 0.64072 0.0
H916 H 0.4451 0.69086 0.60175 0.0
H917 H 0.40295 0.63967 0.68129 0.0
H918 H 0.45341 0.74541 0.64774 0.0
H919 H 0.43433 0.73386 0.60989 0.0
H920 H 0.46267 0.73369 0.61193 0.0
H921 H 0.3974 0.66345 0.73831 0.0
H922 H 0.37192 0.65029 0.70944 0.0
H923 H 0.38398 0.68149 0.72372 0.0
C924 C 0.67175 0.43381 0.02349 0.0
C925 C 0.65954 0.42002 0.05287 0.0
C926 C 0.69142 0.43241 1.00843 0.0
C927 C 0.69872 0.41616 0.02228 0.0
C928 C 0.68565 0.40126 0.05092 0.0
C929 C 0.66674 0.40386 0.06643 0.0
C930 C 0.70522 0.44934 0.9788 0.0
C931 C 0.69216 0.38312 0.06595 0.0
C932 C 0.74133 0.4053 0.96324 0.0
C933 C 0.76451 0.42088 0.9778 0.0
C934 C 0.71964 0.40233 0.97866 0.0
C935 C 0.72114 0.41626 1.00833 0.0
C936 C 0.7445 0.43179 0.02331 0.0
C937 C 0.76572 0.43354 1.00825 0.0
C938 C 0.69517 0.38493 0.9624 0.0
C939 C 0.74731 0.44769 0.05412 0.0
H940 H 0.6666 0.44665 1.01326 0.0
H941 H 0.65827 0.3939 0.08997 0.0
H942 H 0.72465 0.46172 0.98638 0.0
H943 H 0.70532 0.43859 0.95619 0.0
H944 H 0.69714 0.46075 0.97081 0.0
H945 H 0.678 0.37033 0.0844 0.0
H946 H 0.69431 0.37225 0.04508 0.0
H947 H 0.70995 0.39308 0.07977 0.0
H948 H 0.74015 0.39621 0.93898 0.0
H949 H 0.78359 0.44594 0.0193 0.0
H950 H 0.6878 0.39553 0.94923 0.0
H951 H 0.6817 0.37346 0.98249 0.0
H952 H 0.69669 0.37268 0.94312 0.0
H953 H 0.74074 0.46059 0.04737 0.0
H954 H 0.76666 0.45852 0.06301 0.0
H955 H 0.73586 0.43623 0.07588 0.0
C956 C 0.26701 0.6654 0.40134 0.0
C957 C 0.24382 0.65818 0.3871 0.0
C958 C 0.28873 0.68412 0.38599 0.0
C959 C 0.28726 0.69695 0.35677 0.0
C960 C 0.26389 0.68944 0.34205 0.0
C961 C 0.24263 0.66995 0.35697 0.0
C962 C 0.3132 0.6908 0.4019 0.0
C963 C 0.2611 0.70297 0.31175 0.0
C964 C 0.33635 0.7641 0.34299 0.0
C965 C 0.34823 0.76303 0.31291 0.0
C966 C 0.31696 0.74278 0.35792 0.0
C967 C 0.30967 0.71946 0.34325 0.0
C968 C 0.32262 0.71812 0.31409 0.0
C969 C 0.34123 0.7399 0.29872 0.0
C970 C 0.30328 0.74542 0.38815 0.0
C971 C 0.3162 0.69372 0.29824 0.0
H972 H 0.26819 0.65723 0.42536 0.0
H973 H 0.22476 0.66476 0.34618 0.0
H974 H 0.32667 0.69323 0.38155 0.0
H975 H 0.32059 0.70847 0.41591 0.0
H976 H 0.31165 0.6766 0.42042 0.0
H977 H 0.24174 0.69462 0.30296 0.0
H978 H 0.26776 0.72236 0.31903 0.0
H979 H 0.27248 0.70316 0.28975 0.0
H980 H 0.34136 0.78193 0.35375 0.0
H981 H 0.34949 0.73879 0.27474 0.0
H982 H 0.3032 0.73414 0.41019 0.0
H983 H 0.28384 0.73857 0.38082 0.0
H984 H 0.31144 0.76476 0.39689 0.0
H985 H 0.31389 0.68033 0.31863 0.0
H986 H 0.33048 0.69541 0.27977 0.0
H987 H 0.29851 0.68616 0.2842 0.0
C988 C 0.574 0.25603 0.74055 0.0
C989 C 0.58248 0.24148 0.72513 0.0
C990 C 0.57587 0.27669 0.72366 0.0
C991 C 0.5892 0.28495 0.6922 0.0
C992 C 0.60085 0.27219 0.67908 0.0
C993 C 0.59667 0.25023 0.69504 0.0
C994 C 0.56257 0.2888 0.73928 0.0
C995 C 0.61744 0.28104 0.6479 0.0
C996 C 0.57232 0.31831 0.62446 0.0
C997 C 0.58125 0.34157 0.63936 0.0
C998 C 0.57468 0.29977 0.64127 0.0
C999 C 0.5889 0.3053 0.67196 0.0
C1000 C 0.6009 0.3299 0.68439 0.0
C1001 C 0.59628 0.34745 0.66864 0.0
C1002 C 0.56094 0.27414 0.62644 0.0
C1003 C 0.61835 0.33809 0.71464 0.0
H1004 H 0.56447 0.25037 0.76509 0.0
H1005 H 0.60424 0.23971 0.68359 0.0
H1006 H 0.57545 0.30422 0.75596 0.0
H1007 H 0.55527 0.29608 0.71926 0.0
H1008 H 0.54699 0.27579 0.75576 0.0
H1009 H 0.63464 0.28078 0.65354 0.0
H1010 H 0.60837 0.26817 0.6261 0.0
H1011 H 0.62238 0.29986 0.63978 0.0
H1012 H 0.56207 0.31408 0.6005 0.0
H1013 H 0.60417 0.3657 0.67963 0.0
H1014 H 0.55422 0.25987 0.64688 0.0
H1015 H 0.57335 0.27135 0.60907 0.0
H1016 H 0.54491 0.27134 0.61083 0.0
H1017 H 0.60989 0.34219 0.73691 0.0
H1018 H 0.63537 0.35545 0.70805 0.0
H1019 H 0.62353 0.32432 0.7225 0.0
C1020 C 0.48718 0.53853 0.11041 0.0
C1021 C 0.46756 0.53189 0.08744 0.0
C1022 C 0.50239 0.52807 0.10807 0.0
C1023 C 0.49671 0.50893 0.08406 0.0
C1024 C 0.47657 0.50172 0.0613 0.0
C1025 C 0.46276 0.51376 0.06259 0.0
C1026 C 0.52421 0.53723 0.13197 0.0
C1027 C 0.46872 0.48036 0.03691 0.0
C1028 C 0.54458 0.49033 0.06223 0.0
C1029 C 0.54035 0.47289 0.08794 0.0
C1030 C 0.5307 0.50229 0.06071 0.0
C1031 C 0.51104 0.49567 0.08418 0.0
C1032 C 0.50591 0.47717 0.10908 0.0
C1033 C 0.52121 0.46683 0.11156 0.0
C1034 C 0.538 0.523 0.03529 0.0
C1035 C 0.48459 0.46861 0.13377 0.0
H1036 H 0.49043 0.55157 0.13083 0.0
H1037 H 0.44731 0.50814 0.04524 0.0
H1038 H 0.51984 0.52401 0.15341 0.0
H1039 H 0.54043 0.5389 0.11808 0.0
H1040 H 0.5292 0.55535 0.14333 0.0
H1041 H 0.45271 0.47705 0.02083 0.0
H1042 H 0.48407 0.48356 0.01958 0.0
H1043 H 0.46375 0.46349 0.05197 0.0
H1044 H 0.55966 0.49551 0.04435 0.0
H1045 H 0.51843 0.45436 0.13261 0.0
H1046 H 0.5433 0.54025 0.04955 0.0
H1047 H 0.52228 0.51935 0.01845 0.0
H1048 H 0.55366 0.52588 0.01873 0.0
H1049 H 0.4894 0.48234 0.15462 0.0
H1050 H 0.47983 0.45077 0.1459 0.0
H1051 H 0.46809 0.46662 0.12032 0.0
C1052 C 0.94978 0.47983 0.40446 0.0
C1053 C 0.93911 0.46033 0.42806 0.0
C1054 C 0.97533 0.49645 0.40446 0.0
C1055 C 0.99081 0.49288 0.42758 0.0
C1056 C 0.98006 0.47314 0.45138 0.0
C1057 C 0.95438 0.4578 0.4522 0.0
C1058 C 0.98573 0.51802 0.38003 0.0
C1059 C 0.99567 0.46792 0.47569 0.0
C1060 C 0.05912 0.52326 0.40433 0.0
C1061 C 0.06981 0.54263 0.42814 0.0
C1062 C 0.03357 0.50663 0.40431 0.0
C1063 C 0.01811 0.51007 0.4276 0.0
C1064 C 0.02887 0.52968 0.4516 0.0
C1065 C 0.05454 0.54502 0.45245 0.0
C1066 C 0.02317 0.48519 0.37965 0.0
C1067 C 0.01326 0.53478 0.4761 0.0
H1068 H 0.93806 0.48218 0.38616 0.0
H1069 H 0.94623 0.44335 0.47139 0.0
H1070 H 0.99682 0.53534 0.39461 0.0
H1071 H 0.99814 0.51647 0.36117 0.0
H1072 H 0.97113 0.51929 0.3656 0.0
H1073 H 0.9848 0.45013 0.48936 0.0
H1074 H 0.01074 0.46754 0.46127 0.0
H1075 H 0.00426 0.48268 0.49528 0.0
H1076 H 0.07083 0.52102 0.3859 0.0
H1077 H 0.0627 0.55935 0.47179 0.0
H1078 H 0.01076 0.48685 0.36089 0.0
H1079 H 0.01208 0.46779 0.39406 0.0
H1080 H 0.03777 0.484 0.36509 0.0
H1081 H 0.02413 0.55249 0.48993 0.0
H1082 H 0.00469 0.51992 0.49555 0.0
H1083 H 0.99818 0.53522 0.4618 0.0
C1084 C 0.54088 0.05564 0.77454 0.0
C1085 C 0.53468 0.06886 0.7514 0.0
C1086 C 0.53037 0.03 0.77175 0.0
C1087 C 0.5116 0.01683 0.74708 0.0
C1088 C 0.50512 0.03004 0.72379 0.0
C1089 C 0.5173 0.05586 0.72551 0.0
C1090 C 0.53887 0.01702 0.79612 0.0
C1091 C 0.48411 0.01688 0.6987 0.0
C1092 C 0.49205 0.95012 0.72603 0.0
C1093 C 0.47456 0.93724 0.75184 0.0
C1094 C 0.50432 0.97594 0.72416 0.0
C1095 C 0.49781 0.98927 0.7472 0.0
C1096 C 0.47897 0.97621 0.77182 0.0
C1097 C 0.46838 0.95057 0.77478 0.0
C1098 C 0.5254 0.98899 0.69917 0.0
C1099 C 0.47046 0.98931 0.79593 0.0
H1100 H 0.55333 0.06515 0.7957 0.0
H1101 H 0.51203 0.06588 0.708 0.0
H1102 H 0.52548 0.00861 0.81749 0.0
H1103 H 0.54015 1.00213 0.78264 0.0
H1104 H 0.55707 0.02991 0.80757 0.0
H1105 H 0.48183 0.02978 0.68162 0.0
H1106 H 0.48689 0.00399 0.68239 0.0
H1107 H 0.4668 0.00579 0.71333 0.0
H1108 H 0.49732 0.94002 0.70868 0.0
H1109 H 0.45585 0.94116 0.79589 0.0
H1110 H 0.54267 1.00014 0.71387 0.0
H1111 H 0.52269 1.0018 0.68261 0.0
H1112 H 0.52773 0.976 0.68233 0.0
H1113 H 0.48384 0.99783 0.8173 0.0
H1114 H 0.45225 0.97649 0.80741 0.0
H1115 H 0.46919 0.00414 0.78223 0.0
C1116 C 0.46711 0.51899 0.58987 0.0
C1117 C 0.47345 0.53835 0.61318 0.0
C1118 C 0.47736 0.50363 0.59253 0.0
C1119 C 0.49615 0.50901 0.61709 0.0
C1120 C 0.50286 0.52871 0.64045 0.0
C1121 C 0.49079 0.54247 0.63903 0.0
C1122 C 0.46856 0.48215 0.5681 0.0
C1123 C 0.52405 0.53649 0.66519 0.0
C1124 C 0.51546 0.46166 0.63815 0.0
C1125 C 0.53246 0.46575 0.61179 0.0
C1126 C 0.50337 0.47538 0.64011 0.0
C1127 C 0.50973 0.49502 0.61676 0.0
C1128 C 0.52816 0.50034 0.59163 0.0
C1129 C 0.5384 0.485 0.58845 0.0
C1130 C 0.48253 0.46764 0.66546 0.0
C1131 C 0.53659 0.52175 0.56715 0.0
H1132 H 0.45475 0.51626 0.56869 0.0
H1133 H 0.49618 0.5577 0.65668 0.0
H1134 H 0.48135 0.48736 0.54592 0.0
H1135 H 0.46793 0.4661 0.58105 0.0
H1136 H 0.44999 0.47655 0.55778 0.0
H1137 H 0.52657 0.55176 0.68228 0.0
H1138 H 0.52134 0.52087 0.68151 0.0
H1139 H 0.54123 0.54258 0.65026 0.0
H1140 H 0.51037 0.4465 0.65583 0.0
H1141 H 0.55044 0.48768 0.56687 0.0
H1142 H 0.46516 0.46155 0.65105 0.0
H1143 H 0.48548 0.48329 0.68192 0.0
H1144 H 0.48024 0.45239 0.68241 0.0
H1145 H 0.52349 0.51647 0.54534 0.0
H1146 H 0.55502 0.52734 0.55628 0.0
H1147 H 0.53739 0.53783 0.58026 0.0
C1148 C 0.0535 0.50701 0.91365 0.0
C1149 C 0.06886 0.52462 0.93792 0.0
C1150 C 0.02783 0.49674 0.91466 0.0
C1151 C 0.01719 0.50566 0.93876 0.0
C1152 C 0.03276 0.52451 0.96204 0.0
C1153 C 0.05829 0.53334 0.96187 0.0
C1154 C 0.01212 0.47609 0.89015 0.0
C1155 C 0.02249 0.53563 0.98679 0.0
C1156 C 0.95365 0.49483 0.91436 0.0
C1157 C 0.93832 0.47714 0.93857 0.0
C1158 C 0.9793 0.5049 0.91507 0.0
C1159 C 0.98992 0.49575 0.93881 0.0
C1160 C 0.97437 0.47679 0.96196 0.0
C1161 C 0.94886 0.46813 0.9621 0.0
C1162 C 0.995 0.52566 0.89071 0.0
C1163 C 0.98462 0.46541 0.9863 0.0
H1164 H 0.06156 0.50082 0.89418 0.0
H1165 H 0.07008 0.54727 0.98026 0.0
H1166 H 0.99675 0.46076 0.90431 0.0
H1167 H 0.00395 0.48261 0.87038 0.0
H1168 H 0.02284 0.46891 0.87668 0.0
H1169 H 0.03716 0.5513 1.00144 0.0
H1170 H 0.01153 0.54213 0.97243 0.0
H1171 H 0.00997 0.52156 1.00546 0.0
H1172 H 0.94559 0.50127 0.89524 0.0
H1173 H 0.93709 0.45415 0.98044 0.0
H1174 H 1.00328 0.51928 0.87093 0.0
H1175 H 0.0103 0.54097 0.90502 0.0
H1176 H 0.98428 0.53284 0.87726 0.0
H1177 H 0.99558 0.45905 0.97165 0.0
H1178 H 0.96994 0.4496 1.00071 0.0
H1179 H 0.99713 0.47929 1.00518 0.0
C1180 C 0.4823 0.94774 0.29449 0.0
C1181 C 0.46284 0.93705 0.27081 0.0
C1182 C 0.49895 0.97326 0.29447 0.0
C1183 C 0.49541 0.98871 0.27128 0.0
C1184 C 0.47568 0.97796 0.24744 0.0
C1185 C 0.46035 0.9523 0.2466 0.0
C1186 C 0.52054 0.98365 0.3189 0.0
C1187 C 0.47048 0.99353 0.22304 0.0
C1188 C 0.52595 0.05703 0.29426 0.0
C1189 C 0.54528 0.06763 0.27036 0.0
C1190 C 0.50929 0.0315 0.29442 0.0
C1191 C 0.51267 0.01598 0.27117 0.0
C1192 C 0.53224 0.02666 0.24709 0.0
C1193 C 0.54759 0.05232 0.24609 0.0
C1194 C 0.48786 0.02119 0.31912 0.0
C1195 C 0.53728 0.01101 0.22261 0.0
H1196 H 0.48463 0.93604 0.31283 0.0
H1197 H 0.44596 0.94415 0.22731 0.0
H1198 H 0.53788 0.99464 0.30429 0.0
H1199 H 0.51905 0.99615 0.33766 0.0
H1200 H 0.52174 0.96907 0.33345 0.0
H1201 H 0.45247 0.98274 0.20984 0.0
H1202 H 0.47055 0.0089 0.23724 0.0
H1203 H 0.48501 1.00167 0.20306 0.0
H1204 H 0.52375 0.06878 0.31265 0.0
H1205 H 0.56185 0.06041 0.22662 0.0
H1206 H 0.48946 0.00875 0.33787 0.0
H1207 H 0.47042 0.01016 0.30472 0.0
H1208 H 0.48674 0.03582 0.33367 0.0
H1209 H 0.55519 0.02177 0.20916 0.0
H1210 H 0.5226 0.00281 0.20283 0.0
H1211 H 0.5373 0.99569 0.23679 0.0
C1212 C 0.42999 0.56064 0.77131 0.0
C1213 C 0.44151 0.58496 0.75942 0.0
C1214 C 0.42527 0.55514 0.80658 0.0
C1215 C 0.43203 0.57442 0.8306 0.0
C1216 C 0.44409 0.59908 0.81883 0.0
C1217 C 0.44884 0.60407 0.78336 0.0
C1218 C 0.41278 0.52867 0.81807 0.0
C1219 C 0.45143 0.62015 0.84361 0.0
C1220 C 0.39898 0.55982 0.91734 0.0
C1221 C 0.41677 0.56015 0.93941 0.0
C1222 C 0.40362 0.56429 0.88176 0.0
C1223 C 0.42642 0.56877 0.86803 0.0
C1224 C 0.44404 0.56816 0.89019 0.0
C1225 C 0.43908 0.56412 0.92567 0.0
C1226 C 0.38449 0.56507 0.85909 0.0
C1227 C 0.46835 0.57238 0.87656 0.0
H1228 H 0.42449 0.54583 0.75287 0.0
H1229 H 0.45751 0.62286 0.77421 0.0
H1230 H 0.4242 0.52616 0.83769 0.0
H1231 H 0.39492 0.52354 0.83039 0.0
H1232 H 0.40942 0.51589 0.79626 0.0
H1233 H 0.46085 0.63825 0.83041 0.0
H1234 H 0.43489 0.61812 0.85694 0.0
H1235 H 0.46385 0.6199 0.86376 0.0
H1236 H 0.3819 0.55715 0.92816 0.0
H1237 H 0.45287 0.56451 0.94291 0.0
H1238 H 0.3795 0.55181 0.83751 0.0
H1239 H 0.39212 0.5836 0.8475 0.0
H1240 H 0.36754 0.56073 0.8736 0.0
H1241 H 0.4653 0.55946 0.85512 0.0
H1242 H 0.47947 0.56999 0.89686 0.0
H1243 H 0.4791 0.59124 0.86599 0.0
C1244 C 0.86535 0.41006 0.25148 0.0
C1245 C 0.84964 0.41334 0.27378 0.0
C1246 C 0.86557 0.41442 0.21582 0.0
C1247 C 0.84985 0.42245 0.20219 0.0
C1248 C 0.83376 0.42551 0.22448 0.0
C1249 C 0.83368 0.42069 0.25984 0.0
C1250 C 0.88272 0.41061 0.19274 0.0
C1251 C 0.81672 0.43404 0.21103 0.0
C1252 C 0.86539 0.45492 0.11504 0.0
C1253 C 0.84927 0.43602 0.09293 0.0
C1254 C 0.86576 0.4508 0.15069 0.0
C1255 C 0.84979 0.42719 0.1645 0.0
C1256 C 0.8333 0.40815 0.1424 0.0
C1257 C 0.83308 0.41285 0.10705 0.0
C1258 C 0.88335 0.47167 0.17357 0.0
C1259 C 0.81598 0.38271 0.15605 0.0
H1260 H 0.87787 0.40458 0.26198 0.0
H1261 H 0.82105 0.42273 0.27667 0.0
H1262 H 0.87209 0.39712 0.17221 0.0
H1263 H 0.89569 0.42809 0.17975 0.0
H1264 H 0.89348 0.40392 0.20723 0.0
H1265 H 0.80575 0.43606 0.23192 0.0
H1266 H 0.82748 0.45197 0.19774 0.0
H1267 H 0.80391 0.42078 0.19174 0.0
H1268 H 0.87809 0.4728 0.1044 0.0
H1269 H 0.82015 0.39825 0.09037 0.0
H1270 H 0.89614 0.46683 0.1864 0.0
H1271 H 0.87303 0.47487 0.19422 0.0
H1272 H 0.8943 0.48902 0.15895 0.0
H1273 H 0.82654 0.37527 0.1692 0.0
H1274 H 0.80472 0.36977 0.13528 0.0
H1275 H 0.80344 0.38351 0.17549 0.0
C1276 C 0.44909 0.84264 0.58375 0.0
C1277 C 0.44416 0.85702 0.60635 0.0
C1278 C 0.44445 0.84228 0.54814 0.0
C1279 C 0.43509 0.85698 0.53484 0.0
C1280 C 0.43086 0.87214 0.55752 0.0
C1281 C 0.43525 0.87181 0.59301 0.0
C1282 C 0.44892 0.82565 0.52488 0.0
C1283 C 0.42136 0.88844 0.54439 0.0
C1284 C 0.44279 0.87147 0.43875 0.0
C1285 C 0.41931 0.85504 0.42592 0.0
C1286 C 0.44808 0.87251 0.47414 0.0
C1287 C 0.42954 0.85644 0.49726 0.0
C1288 C 0.4057 0.83995 0.48448 0.0
C1289 C 0.40081 0.8396 0.44896 0.0
C1290 C 0.47358 0.89068 0.48673 0.0
C1291 C 0.3855 0.82233 0.50822 0.0
H1292 H 0.45569 0.83099 0.59413 0.0
H1293 H 0.43151 0.883 0.61051 0.0
H1294 H 0.43145 0.81211 0.51233 0.0
H1295 H 0.46195 0.83651 0.50403 0.0
H1296 H 0.45645 0.81555 0.53916 0.0
H1297 H 0.42004 0.89989 0.56518 0.0
H1298 H 0.43362 0.90073 0.5238 0.0
H1299 H 0.4029 0.87706 0.5328 0.0
H1300 H 0.45709 0.88352 0.42095 0.0
H1301 H 0.38273 0.8267 0.43901 0.0
H1302 H 0.48213 0.88079 0.49882 0.0
H1303 H 0.47256 0.90271 0.50683 0.0
H1304 H 0.4857 0.90238 0.46556 0.0
H1305 H 0.39122 0.81028 0.52128 0.0
H1306 H 0.36801 0.81062 0.49424 0.0
H1307 H 0.38211 0.83263 0.52866 0.0
C1308 C 0.55027 0.41514 0.78017 0.0
C1309 C 0.56891 0.41722 0.75806 0.0
C1310 C 0.55449 0.41957 0.81582 0.0
C1311 C 0.57801 0.42668 0.82957 0.0
C1312 C 0.59685 0.4288 0.80745 0.0
C1313 C 0.59196 0.42365 0.7722 0.0
C1314 C 0.53375 0.41653 0.8388 0.0
C1315 C 0.62224 0.43649 0.821 0.0
C1316 C 0.59501 0.45763 0.91782 0.0
C1317 C 0.59149 0.43812 0.93919 0.0
C1318 C 0.5909 0.45428 0.88199 0.0
C1319 C 0.58269 0.43078 0.86735 0.0
C1320 C 0.57946 0.41116 0.88869 0.0
C1321 C 0.5843 0.41517 0.9241 0.0
C1322 C 0.59516 0.47579 0.85984 0.0
C1323 C 0.57057 0.38578 0.8742 0.0
H1324 H 0.53248 0.41041 0.7696 0.0
H1325 H 0.60635 0.42465 0.75569 0.0
H1326 H 0.53015 0.40263 0.85903 0.0
H1327 H 0.53897 0.43406 0.85216 0.0
H1328 H 0.51649 0.41071 0.82417 0.0
H1329 H 0.63527 0.43875 0.80004 0.0
H1330 H 0.62969 0.45411 0.83522 0.0
H1331 H 0.62132 0.42259 0.83948 0.0
H1332 H 0.60044 0.47538 0.92914 0.0
H1333 H 0.58221 0.40012 0.94012 0.0
H1334 H 0.57774 0.4719 0.84721 0.0
H1335 H 0.60848 0.47868 0.83902 0.0
H1336 H 0.60228 0.49303 0.87498 0.0
H1337 H 0.55279 0.37918 0.86069 0.0
H1338 H 0.56809 0.37228 0.89455 0.0
H1339 H 0.58387 0.38633 0.85491 0.0
C1340 C 0.16828 0.55996 0.11513 0.0
C1341 C 0.15259 0.5631 0.09267 0.0
C1342 C 0.16855 0.56468 0.15071 0.0
C1343 C 0.15245 0.57232 0.16415 0.0
C1344 C 0.13612 0.57486 0.14161 0.0
C1345 C 0.13652 0.5704 0.10616 0.0
C1346 C 0.18641 0.56199 0.1738 0.0
C1347 C 0.11836 0.58251 0.1549 0.0
C1348 C 0.13804 0.56347 0.26023 0.0
C1349 C 0.15319 0.58722 0.27326 0.0
C1350 C 0.13745 0.55844 0.22482 0.0
C1351 C 0.15258 0.57757 0.20178 0.0
C1352 C 0.16769 0.60168 0.2147 0.0
C1353 C 0.16769 0.60625 0.25028 0.0
C1354 C 0.12077 0.53259 0.2121 0.0
C1355 C 0.18423 0.62253 0.19103 0.0
H1356 H 0.1809 0.5546 0.10469 0.0
H1357 H 0.12427 0.5727 0.08883 0.0
H1358 H 0.19887 0.5798 0.18647 0.0
H1359 H 0.17632 0.54851 0.19457 0.0
H1360 H 0.19769 0.5559 0.15938 0.0
H1361 H 0.1064 0.58298 0.13415 0.0
H1362 H 0.10654 0.56963 0.17532 0.0
H1363 H 0.12864 0.601 0.16677 0.0
H1364 H 0.12664 0.54875 0.2779 0.0
H1365 H 0.17961 0.62456 0.2603 0.0
H1366 H 0.13183 0.52539 0.19981 0.0
H1367 H 0.10807 0.53253 0.19215 0.0
H1368 H 0.10972 0.51993 0.23324 0.0
H1369 H 0.19733 0.61823 0.17793 0.0
H1370 H 0.19484 0.64019 0.20508 0.0
H1371 H 0.17318 0.62485 0.17062 0.0
C1372 C 0.57469 0.13446 0.5929 0.0
C1373 C 0.56491 0.14859 0.60586 0.0
C1374 C 0.5791 0.13397 0.55745 0.0
C1375 C 0.57395 0.14827 0.53438 0.0
C1376 C 0.56369 0.16229 0.54726 0.0
C1377 C 0.55909 0.16212 0.58287 0.0
C1378 C 0.58959 0.11841 0.54477 0.0
C1379 C 0.55819 0.17799 0.52357 0.0
C1380 C 0.60785 0.16589 0.4482 0.0
C1381 C 0.58956 0.14971 0.42548 0.0
C1382 C 0.60301 0.16572 0.48371 0.0
C1383 C 0.57946 0.14864 0.49681 0.0
C1384 C 0.56117 0.13181 0.474 0.0
C1385 C 0.56638 0.13271 0.4386 0.0
C1386 C 0.62291 0.18417 0.50708 0.0
C1387 C 0.53602 0.11299 0.48695 0.0
H1388 H 0.57909 0.12389 0.61067 0.0
H1389 H 0.5518 0.17327 0.59291 0.0
H1390 H 0.57757 0.10557 0.52447 0.0
H1391 H 0.60788 0.13029 0.53293 0.0
H1392 H 0.59163 0.10759 0.56586 0.0
H1393 H 0.55004 0.18763 0.53756 0.0
H1394 H 0.57535 0.1919 0.51075 0.0
H1395 H 0.54531 0.16652 0.50295 0.0
H1396 H 0.62568 0.17923 0.43799 0.0
H1397 H 0.55224 0.12013 0.42102 0.0
H1398 H 0.62697 0.17454 0.52781 0.0
H1399 H 0.61651 0.19578 0.51979 0.0
H1400 H 0.64018 0.19627 0.49287 0.0
H1401 H 0.53774 0.10158 0.50739 0.0
H1402 H 0.52412 0.10072 0.46603 0.0
H1403 H 0.5268 0.12234 0.49869 0.0
loop_
_geom_bond_atom_site_label_1
_geom_bond_atom_site_label_2
_geom_bond_distance
_geom_bond_site_symmetry_2
_ccdc_geom_bond_type
C0 C1 1.443 . S
C0 N4 1.376 . S
C0 C38 1.389 . S
C1 C0 1.443 . S
C1 C2 1.340 . S
C1 H41 0.951 . S
C2 C1 1.340 . S
C2 C3 1.439 . S
C2 H42 0.950 . S
C3 C2 1.439 . S
C3 N4 1.374 . S
C3 C37 1.395 . S
N4 C0 1.376 . S
N4 C3 1.374 . S
N4 Co5 2.008 . S
Co5 N4 2.008 . S
Co5 N6 1.995 . S
Co5 N11 2.008 . S
Co5 N16 1.995 . S
Co5 N21 2.282 . S
Co5 N27 2.282 . S
N6 Co5 1.995 . S
N6 C7 1.376 . S
N6 C10 1.383 . S
C7 N6 1.376 . S
C7 C8 1.446 . S
C7 C37 1.391 . S
C8 C7 1.446 . S
C8 C9 1.339 . S
C8 H43 0.949 . S
C9 C8 1.339 . S
C9 C10 1.439 . S
C9 H44 0.950 . S
C10 N6 1.383 . S
C10 C9 1.439 . S
C10 C39 1.392 . S
N11 Co5 2.008 . S
N11 C12 1.376 . S
N11 C15 1.374 . S
C12 N11 1.376 . S
C12 C13 1.443 . S
C12 C39 1.389 . S
C13 C12 1.443 . S
C13 C14 1.340 . S
C13 H45 0.951 . S
C14 C13 1.340 . S
C14 C15 1.439 . S
C14 H46 0.950 . S
C15 N11 1.374 . S
C15 C14 1.439 . S
C15 C40 1.395 . S
N16 Co5 1.995 . S
N16 C17 1.376 . S
N16 C20 1.383 . S
C17 N16 1.376 . S
C17 C18 1.446 . S
C17 C40 1.391 . S
C18 C17 1.446 . S
C18 C19 1.339 . S
C18 H47 0.949 . S
C19 C18 1.339 . S
C19 C20 1.439 . S
C19 H48 0.950 . S
C20 N16 1.383 . S
C20 C19 1.439 . S
C20 C38 1.392 . S
N21 Co5 2.282 . S
N21 C24 1.332 . S
N21 C26 1.332 . S
C22 C23 1.386 . S
C22 C25 1.388 . S
C23 C22 1.386 . S
C23 C24 1.382 . S
C23 H49 0.950 . S
C24 N21 1.332 . S
C24 C23 1.382 . S
C24 H35 0.952 . S
C25 C22 1.388 . S
C25 C26 1.382 . S
C25 H50 0.950 . S
C26 N21 1.332 . S
C26 C25 1.382 . S
C26 H36 0.948 . S
N27 Co5 2.282 . S
N27 C31 1.332 . S
N27 C32 1.332 . S
C28 C29 1.388 . S
C28 C32 1.382 1_556 S
C28 H51 0.950 . S
C29 C28 1.388 . S
C29 C30 1.386 . S
C30 C29 1.386 . S
C30 C31 1.382 1_556 S
C30 H52 0.950 . S
C31 N27 1.332 . S
C31 C30 1.382 1_554 S
C31 H33 0.952 . S
C32 N27 1.332 . S
C32 C28 1.382 1_554 S
C32 H34 0.948 . S
H33 C31 0.952 . S
H34 C32 0.948 . S
H35 C24 0.952 . S
H36 C26 0.948 . S
C37 C3 1.395 . S
C37 C7 1.391 . S
C38 C0 1.389 . S
C38 C20 1.392 . S
C39 C10 1.392 . S
C39 C12 1.389 . S
C40 C15 1.395 . S
C40 C17 1.391 . S
H41 C1 0.951 . S
H42 C2 0.950 . S
H43 C8 0.949 . S
H44 C9 0.950 . S
H45 C13 0.951 . S
H46 C14 0.950 . S
H47 C18 0.949 . S
H48 C19 0.950 . S
H49 C23 0.950 . S
H50 C25 0.950 . S
H51 C28 0.950 . S
H52 C30 0.950 . S
C53 C54 1.443 . S
C53 N57 1.376 . S
C53 C91 1.389 . S
C54 C53 1.443 . S
C54 C55 1.340 . S
C54 H94 0.951 . S
C55 C54 1.340 . S
C55 C56 1.439 . S
C55 H95 0.950 . S
C56 C55 1.439 . S
C56 N57 1.374 . S
C56 C90 1.395 . S
N57 C53 1.376 . S
N57 C56 1.374 . S
N57 Co58 2.008 . S
Co58 N57 2.008 . S
Co58 N59 1.995 . S
Co58 N64 2.008 . S
Co58 N69 1.995 . S
Co58 N74 2.282 . S
Co58 N80 2.282 . S
N59 Co58 1.995 . S
N59 C60 1.376 . S
N59 C63 1.383 . S
C60 N59 1.376 . S
C60 C61 1.446 . S
C60 C90 1.391 . S
C61 C60 1.446 . S
C61 C62 1.339 . S
C61 H96 0.949 . S
C62 C61 1.339 . S
C62 C63 1.439 . S
C62 H97 0.950 . S
C63 N59 1.383 . S
C63 C62 1.439 . S
C63 C92 1.392 . S
N64 Co58 2.008 . S
N64 C65 1.376 . S
N64 C68 1.374 . S
C65 N64 1.376 . S
C65 C66 1.443 . S
C65 C92 1.389 . S
C66 C65 1.443 . S
C66 C67 1.340 . S
C66 H98 0.951 . S
C67 C66 1.340 . S
C67 C68 1.439 . S
C67 H99 0.950 . S
C68 N64 1.374 . S
C68 C67 1.439 . S
C68 C93 1.395 . S
N69 Co58 1.995 . S
N69 C70 1.376 . S
N69 C73 1.383 . S
C70 N69 1.376 . S
C70 C71 1.446 . S
C70 C93 1.391 . S
C71 C70 1.446 . S
C71 C72 1.339 . S
C71 H100 0.949 . S
C72 C71 1.339 . S
C72 C73 1.439 . S
C72 H101 0.950 . S
C73 N69 1.383 . S
C73 C72 1.439 . S
C73 C91 1.392 . S
N74 Co58 2.282 . S
N74 C77 1.332 . S
N74 C79 1.332 . S
C75 C76 1.386 . S
C75 C78 1.388 . S
C76 C75 1.386 . S
C76 C77 1.382 . S
C76 H102 0.950 . S
C77 N74 1.332 . S
C77 C76 1.382 . S
C77 H88 0.952 . S
C78 C75 1.388 . S
C78 C79 1.382 . S
C78 H103 0.950 . S
C79 N74 1.332 . S
C79 C78 1.382 . S
C79 H89 0.948 . S
N80 Co58 2.282 . S
N80 C84 1.332 . S
N80 C85 1.332 . S
C81 C82 1.388 . S
C81 C85 1.382 . S
C81 H104 0.950 . S
C82 C81 1.388 . S
C82 C83 1.386 . S
C83 C82 1.386 . S
C83 C84 1.382 . S
C83 H105 0.950 . S
C84 N80 1.332 . S
C84 C83 1.382 . S
C84 H86 0.952 . S
C85 N80 1.332 . S
C85 C81 1.382 . S
C85 H87 0.948 . S
H86 C84 0.952 . S
H87 C85 0.948 . S
H88 C77 0.952 . S
H89 C79 0.948 . S
C90 C56 1.395 . S
C90 C60 1.391 . S
C91 C53 1.389 . S
C91 C73 1.392 . S
C92 C63 1.392 . S
C92 C65 1.389 . S
C93 C68 1.395 . S
C93 C70 1.391 . S
H94 C54 0.951 . S
H95 C55 0.950 . S
H96 C61 0.949 . S
H97 C62 0.950 . S
H98 C66 0.951 . S
H99 C67 0.950 . S
H100 C71 0.949 . S
H101 C72 0.950 . S
H102 C76 0.950 . S
H103 C78 0.950 . S
H104 C81 0.950 . S
H105 C83 0.950 . S
C106 C107 1.443 . S
C106 N110 1.376 . S
C106 C144 1.389 . S
C107 C106 1.443 . S
C107 C108 1.340 . S
C107 H147 0.951 . S
C108 C107 1.340 . S
C108 C109 1.439 . S
C108 H148 0.950 . S
C109 C108 1.439 . S
C109 N110 1.374 . S
C109 C143 1.395 . S
N110 C106 1.376 . S
N110 C109 1.374 . S
N110 Co111 2.008 . S
Co111 N110 2.008 . S
Co111 N112 1.995 . S
Co111 N117 2.008 . S
Co111 N122 1.995 . S
Co111 N127 2.282 . S
Co111 N133 2.282 . S
N112 Co111 1.995 . S
N112 C113 1.376 . S
N112 C116 1.383 . S
C113 N112 1.376 . S
C113 C114 1.446 . S
C113 C143 1.391 . S
C114 C113 1.446 . S
C114 C115 1.339 . S
C114 H149 0.949 . S
C115 C114 1.339 . S
C115 C116 1.439 . S
C115 H150 0.950 . S
C116 N112 1.383 . S
C116 C115 1.439 . S
C116 C145 1.392 . S
N117 Co111 2.008 . S
N117 C118 1.376 . S
N117 C121 1.374 . S
C118 N117 1.376 . S
C118 C119 1.443 . S
C118 C145 1.389 . S
C119 C118 1.443 . S
C119 C120 1.340 . S
C119 H151 0.951 . S
C120 C119 1.340 . S
C120 C121 1.439 . S
C120 H152 0.950 . S
C121 N117 1.374 . S
C121 C120 1.439 . S
C121 C146 1.395 . S
N122 Co111 1.995 . S
N122 C123 1.376 . S
N122 C126 1.383 . S
C123 N122 1.376 . S
C123 C124 1.446 . S
C123 C146 1.391 . S
C124 C123 1.446 . S
C124 C125 1.339 . S
C124 H153 0.949 . S
C125 C124 1.339 . S
C125 C126 1.439 . S
C125 H154 0.950 . S
C126 N122 1.383 . S
C126 C125 1.439 . S
C126 C144 1.392 . S
N127 Co111 2.282 . S
N127 C130 1.332 . S
N127 C132 1.332 . S
C128 C129 1.386 . S
C128 C131 1.388 . S
C129 C128 1.386 . S
C129 C130 1.382 . S
C129 H155 0.950 . S
C130 N127 1.332 . S
C130 C129 1.382 . S
C130 H141 0.952 . S
C131 C128 1.388 . S
C131 C132 1.382 . S
C131 H156 0.950 . S
C132 N127 1.332 . S
C132 C131 1.382 . S
C132 H142 0.948 . S
N133 Co111 2.282 . S
N133 C137 1.332 . S
N133 C138 1.332 . S
C134 C135 1.388 . S
C134 C138 1.382 . S
C134 H157 0.950 . S
C135 C134 1.388 . S
C135 C136 1.386 . S
C136 C135 1.386 . S
C136 C137 1.382 . S
C136 H158 0.950 . S
C137 N133 1.332 . S
C137 C136 1.382 . S
C137 H139 0.952 . S
C138 N133 1.332 . S
C138 C134 1.382 . S
C138 H140 0.948 . S
H139 C137 0.952 . S
H140 C138 0.948 . S
H141 C130 0.952 . S
H142 C132 0.948 . S
C143 C109 1.395 . S
C143 C113 1.391 . S
C144 C106 1.389 . S
C144 C126 1.392 . S
C145 C116 1.392 . S
C145 C118 1.389 . S
C146 C121 1.395 . S
C146 C123 1.391 . S
H147 C107 0.951 . S
H148 C108 0.950 . S
H149 C114 0.949 . S
H150 C115 0.950 . S
H151 C119 0.951 . S
H152 C120 0.950 . S
H153 C124 0.949 . S
H154 C125 0.950 . S
H155 C129 0.950 . S
H156 C131 0.950 . S
H157 C134 0.950 . S
H158 C136 0.950 . S
C159 C160 1.443 . S
C159 N163 1.376 . S
C159 C197 1.389 . S
C160 C159 1.443 . S
C160 C161 1.340 . S
C160 H200 0.951 . S
C161 C160 1.340 . S
C161 C162 1.439 . S
C161 H201 0.950 . S
C162 C161 1.439 . S
C162 N163 1.374 . S
C162 C196 1.395 . S
N163 C159 1.376 . S
N163 C162 1.374 . S
N163 Co164 2.008 . S
Co164 N163 2.008 . S
Co164 N165 1.995 . S
Co164 N170 2.008 . S
Co164 N175 1.995 . S
Co164 N180 2.282 . S
Co164 N186 2.282 . S
N165 Co164 1.995 . S
N165 C166 1.376 . S
N165 C169 1.383 . S
C166 N165 1.376 . S
C166 C167 1.446 . S
C166 C196 1.391 . S
C167 C166 1.446 . S
C167 C168 1.339 . S
C167 H202 0.949 . S
C168 C167 1.339 . S
C168 C169 1.439 . S
C168 H203 0.950 . S
C169 N165 1.383 . S
C169 C168 1.439 . S
C169 C198 1.392 . S
N170 Co164 2.008 . S
N170 C171 1.376 . S
N170 C174 1.374 . S
C171 N170 1.376 . S
C171 C172 1.443 . S
C171 C198 1.389 . S
C172 C171 1.443 . S
C172 C173 1.340 . S
C172 H204 0.951 . S
C173 C172 1.340 . S
C173 C174 1.439 . S
C173 H205 0.950 . S
C174 N170 1.374 . S
C174 C173 1.439 . S
C174 C199 1.395 . S
N175 Co164 1.995 . S
N175 C176 1.376 . S
N175 C179 1.383 . S
C176 N175 1.376 . S
C176 C177 1.446 . S
C176 C199 1.391 . S
C177 C176 1.446 . S
C177 C178 1.339 . S
C177 H206 0.949 . S
C178 C177 1.339 . S
C178 C179 1.439 . S
C178 H207 0.950 . S
C179 N175 1.383 . S
C179 C178 1.439 . S
C179 C197 1.392 . S
N180 Co164 2.282 . S
N180 C183 1.332 . S
N180 C185 1.332 . S
C181 C182 1.386 . S
C181 C184 1.388 . S
C182 C181 1.386 . S
C182 C183 1.382 . S
C182 H208 0.950 . S
C183 N180 1.332 . S
C183 C182 1.382 . S
C183 H194 0.952 . S
C184 C181 1.388 . S
C184 C185 1.382 . S
C184 H209 0.950 . S
C185 N180 1.332 . S
C185 C184 1.382 . S
C185 H195 0.948 . S
N186 Co164 2.282 . S
N186 C190 1.332 . S
N186 C191 1.332 . S
C187 C188 1.388 . S
C187 C191 1.382 1_556 S
C187 H210 0.950 . S
C188 C187 1.388 . S
C188 C189 1.386 . S
C189 C188 1.386 . S
C189 C190 1.382 1_556 S
C189 H211 0.950 . S
C190 N186 1.332 . S
C190 C189 1.382 1_554 S
C190 H192 0.952 . S
C191 N186 1.332 . S
C191 C187 1.382 1_554 S
C191 H193 0.948 . S
H192 C190 0.952 . S
H193 C191 0.948 . S
H194 C183 0.952 . S
H195 C185 0.948 . S
C196 C162 1.395 . S
C196 C166 1.391 . S
C197 C159 1.389 . S
C197 C179 1.392 . S
C198 C169 1.392 . S
C198 C171 1.389 . S
C199 C174 1.395 . S
C199 C176 1.391 . S
H200 C160 0.951 . S
H201 C161 0.950 . S
H202 C167 0.949 . S
H203 C168 0.950 . S
H204 C172 0.951 . S
H205 C173 0.950 . S
H206 C177 0.949 . S
H207 C178 0.950 . S
H208 C182 0.950 . S
H209 C184 0.950 . S
H210 C187 0.950 . S
H211 C189 0.950 . S
C212 C213 1.443 . S
C212 N216 1.376 . S
C212 C250 1.389 . S
C213 C212 1.443 . S
C213 C214 1.340 . S
C213 H253 0.951 . S
C214 C213 1.340 . S
C214 C215 1.439 . S
C214 H254 0.950 . S
C215 C214 1.439 . S
C215 N216 1.374 . S
C215 C249 1.395 . S
N216 C212 1.376 . S
N216 C215 1.374 . S
N216 Co217 2.008 . S
Co217 N216 2.008 . S
Co217 N218 1.995 . S
Co217 N223 2.008 . S
Co217 N228 1.995 . S
Co217 N233 2.282 . S
Co217 N239 2.282 . S
N218 Co217 1.995 . S
N218 C219 1.376 . S
N218 C222 1.383 . S
C219 N218 1.376 . S
C219 C220 1.446 . S
C219 C249 1.391 . S
C220 C219 1.446 . S
C220 C221 1.339 . S
C220 H255 0.949 . S
C221 C220 1.339 . S
C221 C222 1.439 . S
C221 H256 0.950 . S
C222 N218 1.383 . S
C222 C221 1.439 . S
C222 C251 1.392 . S
N223 Co217 2.008 . S
N223 C224 1.376 . S
N223 C227 1.374 . S
C224 N223 1.376 . S
C224 C225 1.443 . S
C224 C251 1.389 . S
C225 C224 1.443 . S
C225 C226 1.340 . S
C225 H257 0.951 . S
C226 C225 1.340 . S
C226 C227 1.439 . S
C226 H258 0.950 . S
C227 N223 1.374 . S
C227 C226 1.439 . S
C227 C252 1.395 . S
N228 Co217 1.995 . S
N228 C229 1.376 . S
N228 C232 1.383 . S
C229 N228 1.376 . S
C229 C230 1.446 . S
C229 C252 1.391 . S
C230 C229 1.446 . S
C230 C231 1.339 . S
C230 H259 0.949 . S
C231 C230 1.339 . S
C231 C232 1.439 . S
C231 H260 0.950 . S
C232 N228 1.383 . S
C232 C231 1.439 . S
C232 C250 1.392 . S
N233 Co217 2.282 . S
N233 C236 1.332 . S
N233 C238 1.332 . S
C234 C235 1.386 . S
C234 C237 1.388 . S
C235 C234 1.386 . S
C235 C236 1.382 . S
C235 H261 0.950 . S
C236 N233 1.332 . S
C236 C235 1.382 . S
C236 H247 0.952 . S
C237 C234 1.388 . S
C237 C238 1.382 . S
C237 H262 0.950 . S
C238 N233 1.332 . S
C238 C237 1.382 . S
C238 H248 0.948 . S
N239 Co217 2.282 . S
N239 C243 1.332 . S
N239 C244 1.332 . S
C240 C241 1.388 . S
C240 C244 1.382 . S
C240 H263 0.950 . S
C241 C240 1.388 . S
C241 C242 1.386 . S
C242 C241 1.386 . S
C242 C243 1.382 . S
C242 H264 0.950 . S
C243 N239 1.332 . S
C243 C242 1.382 . S
C243 H245 0.952 . S
C244 N239 1.332 . S
C244 C240 1.382 . S
C244 H246 0.948 . S
H245 C243 0.952 . S
H246 C244 0.948 . S
H247 C236 0.952 . S
H248 C238 0.948 . S
C249 C215 1.395 . S
C249 C219 1.391 . S
C250 C212 1.389 . S
C250 C232 1.392 . S
C251 C222 1.392 . S
C251 C224 1.389 . S
C252 C227 1.395 . S
C252 C229 1.391 . S
H253 C213 0.951 . S
H254 C214 0.950 . S
H255 C220 0.949 . S
H256 C221 0.950 . S
H257 C225 0.951 . S
H258 C226 0.950 . S
H259 C230 0.949 . S
H260 C231 0.950 . S
H261 C235 0.950 . S
H262 C237 0.950 . S
H263 C240 0.950 . S
H264 C242 0.950 . S
C265 C266 1.443 . S
C265 N269 1.376 . S
C265 C303 1.389 . S
C266 C265 1.443 . S
C266 C267 1.340 . S
C266 H306 0.951 . S
C267 C266 1.340 . S
C267 C268 1.439 . S
C267 H307 0.950 . S
C268 C267 1.439 . S
C268 N269 1.374 . S
C268 C302 1.395 . S
N269 C265 1.376 . S
N269 C268 1.374 . S
N269 Co270 2.008 . S
Co270 N269 2.008 . S
Co270 N271 1.995 . S
Co270 N276 2.008 . S
Co270 N281 1.995 . S
Co270 N286 2.282 . S
Co270 N292 2.282 . S
N271 Co270 1.995 . S
N271 C272 1.376 . S
N271 C275 1.383 . S
C272 N271 1.376 . S
C272 C273 1.446 . S
C272 C302 1.391 . S
C273 C272 1.446 . S
C273 C274 1.339 . S
C273 H308 0.949 . S
C274 C273 1.339 . S
C274 C275 1.439 . S
C274 H309 0.950 . S
C275 N271 1.383 . S
C275 C274 1.439 . S
C275 C304 1.392 . S
N276 Co270 2.008 . S
N276 C277 1.376 . S
N276 C280 1.374 . S
C277 N276 1.376 . S
C277 C278 1.443 . S
C277 C304 1.389 . S
C278 C277 1.443 . S
C278 C279 1.340 . S
C278 H310 0.951 . S
C279 C278 1.340 . S
C279 C280 1.439 . S
C279 H311 0.950 . S
C280 N276 1.374 . S
C280 C279 1.439 . S
C280 C305 1.395 . S
N281 Co270 1.995 . S
N281 C282 1.376 . S
N281 C285 1.383 . S
C282 N281 1.376 . S
C282 C283 1.446 . S
C282 C305 1.391 . S
C283 C282 1.446 . S
C283 C284 1.339 . S
C283 H312 0.949 . S
C284 C283 1.339 . S
C284 C285 1.439 . S
C284 H313 0.950 . S
C285 N281 1.383 . S
C285 C284 1.439 . S
C285 C303 1.392 . S
N286 Co270 2.282 . S
N286 C289 1.332 . S
N286 C291 1.332 . S
C287 C288 1.386 . S
C287 C290 1.388 . S
C288 C287 1.386 . S
C288 C289 1.382 . S
C288 H314 0.950 . S
C289 N286 1.332 . S
C289 C288 1.382 . S
C289 H300 0.952 . S
C290 C287 1.388 . S
C290 C291 1.382 . S
C290 H315 0.950 . S
C291 N286 1.332 . S
C291 C290 1.382 . S
C291 H301 0.948 . S
N292 Co270 2.282 . S
N292 C296 1.332 . S
N292 C297 1.332 . S
C293 C294 1.388 . S
C293 C297 1.382 . S
C293 H316 0.950 . S
C294 C293 1.388 . S
C294 C295 1.386 . S
C295 C294 1.386 . S
C295 C296 1.382 . S
C295 H317 0.950 . S
C296 N292 1.332 . S
C296 C295 1.382 . S
C296 H298 0.952 . S
C297 N292 1.332 . S
C297 C293 1.382 . S
C297 H299 0.948 . S
H298 C296 0.952 . S
H299 C297 0.948 . S
H300 C289 0.952 . S
H301 C291 0.948 . S
C302 C268 1.395 . S
C302 C272 1.391 . S
C303 C265 1.389 . S
C303 C285 1.392 . S
C304 C275 1.392 . S
C304 C277 1.389 . S
C305 C280 1.395 . S
C305 C282 1.391 . S
H306 C266 0.951 . S
H307 C267 0.950 . S
H308 C273 0.949 . S
H309 C274 0.950 . S
H310 C278 0.951 . S
H311 C279 0.950 . S
H312 C283 0.949 . S
H313 C284 0.950 . S
H314 C288 0.950 . S
H315 C290 0.950 . S
H316 C293 0.950 . S
H317 C295 0.950 . S
C318 C319 1.443 . S
C318 N322 1.376 . S
C318 C356 1.389 . S
C319 C318 1.443 . S
C319 C320 1.340 . S
C319 H359 0.951 . S
C320 C319 1.340 . S
C320 C321 1.439 . S
C320 H360 0.950 . S
C321 C320 1.439 . S
C321 N322 1.374 . S
C321 C355 1.395 . S
N322 C318 1.376 . S
N322 C321 1.374 . S
N322 Co323 2.008 . S
Co323 N322 2.008 . S
Co323 N324 1.995 . S
Co323 N329 2.008 . S
Co323 N334 1.995 . S
Co323 N339 2.282 . S
Co323 N345 2.282 . S
N324 Co323 1.995 . S
N324 C325 1.376 . S
N324 C328 1.383 . S
C325 N324 1.376 . S
C325 C326 1.446 . S
C325 C355 1.391 . S
C326 C325 1.446 . S
C326 C327 1.339 . S
C326 H361 0.949 . S
C327 C326 1.339 . S
C327 C328 1.439 . S
C327 H362 0.950 . S
C328 N324 1.383 . S
C328 C327 1.439 . S
C328 C357 1.392 . S
N329 Co323 2.008 . S
N329 C330 1.376 . S
N329 C333 1.374 . S
C330 N329 1.376 . S
C330 C331 1.443 . S
C330 C357 1.389 . S
C331 C330 1.443 . S
C331 C332 1.340 . S
C331 H363 0.951 . S
C332 C331 1.340 . S
C332 C333 1.439 . S
C332 H364 0.950 . S
C333 N329 1.374 . S
C333 C332 1.439 . S
C333 C358 1.395 . S
N334 Co323 1.995 . S
N334 C335 1.376 . S
N334 C338 1.383 . S
C335 N334 1.376 . S
C335 C336 1.446 . S
C335 C358 1.391 . S
C336 C335 1.446 . S
C336 C337 1.339 . S
C336 H365 0.949 . S
C337 C336 1.339 . S
C337 C338 1.439 . S
C337 H366 0.950 . S
C338 N334 1.383 . S
C338 C337 1.439 . S
C338 C356 1.392 . S
N339 Co323 2.282 . S
N339 C342 1.332 . S
N339 C344 1.332 . S
C340 C341 1.386 . S
C340 C343 1.388 . S
C341 C340 1.386 . S
C341 C342 1.382 . S
C341 H367 0.950 . S
C342 N339 1.332 . S
C342 C341 1.382 . S
C342 H353 0.952 . S
C343 C340 1.388 . S
C343 C344 1.382 . S
C343 H368 0.950 . S
C344 N339 1.332 . S
C344 C343 1.382 . S
C344 H354 0.948 . S
N345 Co323 2.282 . S
N345 C349 1.332 . S
N345 C350 1.332 . S
C346 C347 1.388 . S
C346 C350 1.382 . S
C346 H369 0.950 . S
C347 C346 1.388 . S
C347 C348 1.386 . S
C348 C347 1.386 . S
C348 C349 1.382 . S
C348 H370 0.950 . S
C349 N345 1.332 . S
C349 C348 1.382 . S
C349 H351 0.952 . S
C350 N345 1.332 . S
C350 C346 1.382 . S
C350 H352 0.948 . S
H351 C349 0.952 . S
H352 C350 0.948 . S
H353 C342 0.952 . S
H354 C344 0.948 . S
C355 C321 1.395 . S
C355 C325 1.391 . S
C356 C318 1.389 . S
C356 C338 1.392 . S
C357 C328 1.392 . S
C357 C330 1.389 . S
C358 C333 1.395 . S
C358 C335 1.391 . S
H359 C319 0.951 . S
H360 C320 0.950 . S
H361 C326 0.949 . S
H362 C327 0.950 . S
H363 C331 0.951 . S
H364 C332 0.950 . S
H365 C336 0.949 . S
H366 C337 0.950 . S
H367 C341 0.950 . S
H368 C343 0.950 . S
H369 C346 0.950 . S
H370 C348 0.950 . S
C371 C372 1.443 . S
C371 N375 1.376 . S
C371 C409 1.389 . S
C372 C371 1.443 . S
C372 C373 1.340 . S
C372 H412 0.951 . S
C373 C372 1.340 . S
C373 C374 1.439 . S
C373 H413 0.950 . S
C374 C373 1.439 . S
C374 N375 1.374 . S
C374 C408 1.395 . S
N375 C371 1.376 . S
N375 C374 1.374 . S
N375 Co376 2.008 . S
Co376 N375 2.008 . S
Co376 N377 1.995 . S
Co376 N382 2.008 . S
Co376 N387 1.995 . S
Co376 N392 2.282 . S
Co376 N398 2.282 . S
N377 Co376 1.995 . S
N377 C378 1.376 . S
N377 C381 1.383 . S
C378 N377 1.376 . S
C378 C379 1.446 . S
C378 C408 1.391 . S
C379 C378 1.446 . S
C379 C380 1.339 . S
C379 H414 0.949 . S
C380 C379 1.339 . S
C380 C381 1.439 . S
C380 H415 0.950 . S
C381 N377 1.383 . S
C381 C380 1.439 . S
C381 C410 1.392 . S
N382 Co376 2.008 . S
N382 C383 1.376 . S
N382 C386 1.374 . S
C383 N382 1.376 . S
C383 C384 1.443 . S
C383 C410 1.389 . S
C384 C383 1.443 . S
C384 C385 1.340 . S
C384 H416 0.951 . S
C385 C384 1.340 . S
C385 C386 1.439 . S
C385 H417 0.950 . S
C386 N382 1.374 . S
C386 C385 1.439 . S
C386 C411 1.395 . S
N387 Co376 1.995 . S
N387 C388 1.376 . S
N387 C391 1.383 . S
C388 N387 1.376 . S
C388 C389 1.446 . S
C388 C411 1.391 . S
C389 C388 1.446 . S
C389 C390 1.339 . S
C389 H418 0.949 . S
C390 C389 1.339 . S
C390 C391 1.439 . S
C390 H419 0.950 . S
C391 N387 1.383 . S
C391 C390 1.439 . S
C391 C409 1.392 . S
N392 Co376 2.282 . S
N392 C395 1.332 . S
N392 C397 1.332 . S
C393 C394 1.386 . S
C393 C396 1.388 . S
C394 C393 1.386 . S
C394 C395 1.382 . S
C394 H420 0.950 . S
C395 N392 1.332 . S
C395 C394 1.382 . S
C395 H406 0.952 . S
C396 C393 1.388 . S
C396 C397 1.382 . S
C396 H421 0.950 . S
C397 N392 1.332 . S
C397 C396 1.382 . S
C397 H407 0.948 . S
N398 Co376 2.282 . S
N398 C402 1.332 . S
N398 C403 1.332 . S
C399 C400 1.388 . S
C399 C403 1.382 1_554 S
C399 H422 0.950 . S
C400 C399 1.388 . S
C400 C401 1.386 . S
C401 C400 1.386 . S
C401 C402 1.382 1_554 S
C401 H423 0.950 . S
C402 N398 1.332 . S
C402 C401 1.382 1_556 S
C402 H404 0.952 . S
C403 N398 1.332 . S
C403 C399 1.382 1_556 S
C403 H405 0.948 . S
H404 C402 0.952 . S
H405 C403 0.948 . S
H406 C395 0.952 . S
H407 C397 0.948 . S
C408 C374 1.395 . S
C408 C378 1.391 . S
C409 C371 1.389 . S
C409 C391 1.392 . S
C410 C381 1.392 . S
C410 C383 1.389 . S
C411 C386 1.395 . S
C411 C388 1.391 . S
H412 C372 0.951 . S
H413 C373 0.950 . S
H414 C379 0.949 . S
H415 C380 0.950 . S
H416 C384 0.951 . S
H417 C385 0.950 . S
H418 C389 0.949 . S
H419 C390 0.950 . S
H420 C394 0.950 . S
H421 C396 0.950 . S
H422 C399 0.950 . S
H423 C401 0.950 . S
C424 C425 1.443 . S
C424 N428 1.376 . S
C424 C462 1.389 . S
C425 C424 1.443 . S
C425 C426 1.340 . S
C425 H465 0.951 . S
C426 C425 1.340 . S
C426 C427 1.439 . S
C426 H466 0.950 . S
C427 C426 1.439 . S
C427 N428 1.374 . S
C427 C461 1.395 . S
N428 C424 1.376 . S
N428 C427 1.374 . S
N428 Co429 2.008 . S
Co429 N428 2.008 . S
Co429 N430 1.995 . S
Co429 N435 2.008 . S
Co429 N440 1.995 . S
Co429 N445 2.282 . S
Co429 N451 2.282 . S
N430 Co429 1.995 . S
N430 C431 1.376 . S
N430 C434 1.383 . S
C431 N430 1.376 . S
C431 C432 1.446 . S
C431 C461 1.391 . S
C432 C431 1.446 . S
C432 C433 1.339 . S
C432 H467 0.949 . S
C433 C432 1.339 . S
C433 C434 1.439 . S
C433 H468 0.950 . S
C434 N430 1.383 . S
C434 C433 1.439 . S
C434 C463 1.392 . S
N435 Co429 2.008 . S
N435 C436 1.376 . S
N435 C439 1.374 . S
C436 N435 1.376 . S
C436 C437 1.443 . S
C436 C463 1.389 . S
C437 C436 1.443 . S
C437 C438 1.340 . S
C437 H469 0.951 . S
C438 C437 1.340 . S
C438 C439 1.439 . S
C438 H470 0.950 . S
C439 N435 1.374 . S
C439 C438 1.439 . S
C439 C464 1.395 . S
N440 Co429 1.995 . S
N440 C441 1.376 . S
N440 C444 1.383 . S
C441 N440 1.376 . S
C441 C442 1.446 . S
C441 C464 1.391 . S
C442 C441 1.446 . S
C442 C443 1.339 . S
C442 H471 0.949 . S
C443 C442 1.339 . S
C443 C444 1.439 . S
C443 H472 0.950 . S
C444 N440 1.383 . S
C444 C443 1.439 . S
C444 C462 1.392 . S
N445 Co429 2.282 . S
N445 C448 1.332 . S
N445 C450 1.332 . S
C446 C447 1.386 . S
C446 C449 1.388 . S
C447 C446 1.386 . S
C447 C448 1.382 . S
C447 H473 0.950 . S
C448 N445 1.332 . S
C448 C447 1.382 . S
C448 H459 0.952 . S
C449 C446 1.388 . S
C449 C450 1.382 . S
C449 H474 0.950 . S
C450 N445 1.332 . S
C450 C449 1.382 . S
C450 H460 0.948 . S
N451 Co429 2.282 . S
N451 C455 1.332 . S
N451 C456 1.332 . S
C452 C453 1.388 . S
C452 C456 1.382 . S
C452 H475 0.950 . S
C453 C452 1.388 . S
C453 C454 1.386 . S
C454 C453 1.386 . S
C454 C455 1.382 . S
C454 H476 0.950 . S
C455 N451 1.332 . S
C455 C454 1.382 . S
C455 H457 0.952 . S
C456 N451 1.332 . S
C456 C452 1.382 . S
C456 H458 0.948 . S
H457 C455 0.952 . S
H458 C456 0.948 . S
H459 C448 0.952 . S
H460 C450 0.948 . S
C461 C427 1.395 . S
C461 C431 1.391 . S
C462 C424 1.389 . S
C462 C444 1.392 . S
C463 C434 1.392 . S
C463 C436 1.389 . S
C464 C439 1.395 . S
C464 C441 1.391 . S
H465 C425 0.951 . S
H466 C426 0.950 . S
H467 C432 0.949 . S
H468 C433 0.950 . S
H469 C437 0.951 . S
H470 C438 0.950 . S
H471 C442 0.949 . S
H472 C443 0.950 . S
H473 C447 0.950 . S
H474 C449 0.950 . S
H475 C452 0.950 . S
H476 C454 0.950 . S
C477 C478 1.443 . S
C477 N481 1.376 . S
C477 C515 1.389 . S
C478 C477 1.443 . S
C478 C479 1.340 . S
C478 H518 0.951 . S
C479 C478 1.340 . S
C479 C480 1.439 . S
C479 H519 0.950 . S
C480 C479 1.439 . S
C480 N481 1.374 . S
C480 C514 1.395 . S
N481 C477 1.376 . S
N481 C480 1.374 . S
N481 Co482 2.008 . S
Co482 N481 2.008 . S
Co482 N483 1.995 . S
Co482 N488 2.008 . S
Co482 N493 1.995 . S
Co482 N498 2.282 . S
Co482 N504 2.282 . S
N483 Co482 1.995 . S
N483 C484 1.376 . S
N483 C487 1.383 . S
C484 N483 1.376 . S
C484 C485 1.446 . S
C484 C514 1.391 . S
C485 C484 1.446 . S
C485 C486 1.339 . S
C485 H520 0.949 . S
C486 C485 1.339 . S
C486 C487 1.439 . S
C486 H521 0.950 . S
C487 N483 1.383 . S
C487 C486 1.439 . S
C487 C516 1.392 . S
N488 Co482 2.008 . S
N488 C489 1.376 . S
N488 C492 1.374 . S
C489 N488 1.376 . S
C489 C490 1.443 . S
C489 C516 1.389 . S
C490 C489 1.443 . S
C490 C491 1.340 . S
C490 H522 0.951 . S
C491 C490 1.340 . S
C491 C492 1.439 . S
C491 H523 0.950 . S
C492 N488 1.374 . S
C492 C491 1.439 . S
C492 C517 1.395 . S
N493 Co482 1.995 . S
N493 C494 1.376 . S
N493 C497 1.383 . S
C494 N493 1.376 . S
C494 C495 1.446 . S
C494 C517 1.391 . S
C495 C494 1.446 . S
C495 C496 1.339 . S
C495 H524 0.949 . S
C496 C495 1.339 . S
C496 C497 1.439 . S
C496 H525 0.950 . S
C497 N493 1.383 . S
C497 C496 1.439 . S
C497 C515 1.392 . S
N498 Co482 2.282 . S
N498 C501 1.332 . S
N498 C503 1.332 . S
C499 C500 1.386 . S
C499 C502 1.388 . S
C500 C499 1.386 . S
C500 C501 1.382 . S
C500 H526 0.950 . S
C501 N498 1.332 . S
C501 C500 1.382 . S
C501 H512 0.952 . S
C502 C499 1.388 . S
C502 C503 1.382 . S
C502 H527 0.950 . S
C503 N498 1.332 . S
C503 C502 1.382 . S
C503 H513 0.948 . S
N504 Co482 2.282 . S
N504 C508 1.332 . S
N504 C509 1.332 . S
C505 C506 1.388 . S
C505 C509 1.382 . S
C505 H528 0.950 . S
C506 C505 1.388 . S
C506 C507 1.386 . S
C507 C506 1.386 . S
C507 C508 1.382 . S
C507 H529 0.950 . S
C508 N504 1.332 . S
C508 C507 1.382 . S
C508 H510 0.952 . S
C509 N504 1.332 . S
C509 C505 1.382 . S
C509 H511 0.948 . S
H510 C508 0.952 . S
H511 C509 0.948 . S
H512 C501 0.952 . S
H513 C503 0.948 . S
C514 C480 1.395 . S
C514 C484 1.391 . S
C515 C477 1.389 . S
C515 C497 1.392 . S
C516 C487 1.392 . S
C516 C489 1.389 . S
C517 C492 1.395 . S
C517 C494 1.391 . S
H518 C478 0.951 . S
H519 C479 0.950 . S
H520 C485 0.949 . S
H521 C486 0.950 . S
H522 C490 0.951 . S
H523 C491 0.950 . S
H524 C495 0.949 . S
H525 C496 0.950 . S
H526 C500 0.950 . S
H527 C502 0.950 . S
H528 C505 0.950 . S
H529 C507 0.950 . S
C530 C531 1.443 . S
C530 N534 1.376 . S
C530 C568 1.389 . S
C531 C530 1.443 . S
C531 C532 1.340 . S
C531 H571 0.951 . S
C532 C531 1.340 . S
C532 C533 1.439 . S
C532 H572 0.950 . S
C533 C532 1.439 . S
C533 N534 1.374 . S
C533 C567 1.395 . S
N534 C530 1.376 . S
N534 C533 1.374 . S
N534 Co535 2.008 . S
Co535 N534 2.008 . S
Co535 N536 1.995 . S
Co535 N541 2.008 . S
Co535 N546 1.995 . S
Co535 N551 2.282 . S
Co535 N557 2.282 . S
N536 Co535 1.995 . S
N536 C537 1.376 . S
N536 C540 1.383 . S
C537 N536 1.376 . S
C537 C538 1.446 . S
C537 C567 1.391 . S
C538 C537 1.446 . S
C538 C539 1.339 . S
C538 H573 0.949 . S
C539 C538 1.339 . S
C539 C540 1.439 . S
C539 H574 0.950 . S
C540 N536 1.383 . S
C540 C539 1.439 . S
C540 C569 1.392 . S
N541 Co535 2.008 . S
N541 C542 1.376 . S
N541 C545 1.374 . S
C542 N541 1.376 . S
C542 C543 1.443 . S
C542 C569 1.389 . S
C543 C542 1.443 . S
C543 C544 1.340 . S
C543 H575 0.951 . S
C544 C543 1.340 . S
C544 C545 1.439 . S
C544 H576 0.950 . S
C545 N541 1.374 . S
C545 C544 1.439 . S
C545 C570 1.395 . S
N546 Co535 1.995 . S
N546 C547 1.376 . S
N546 C550 1.383 . S
C547 N546 1.376 . S
C547 C548 1.446 . S
C547 C570 1.391 . S
C548 C547 1.446 . S
C548 C549 1.339 . S
C548 H577 0.949 . S
C549 C548 1.339 . S
C549 C550 1.439 . S
C549 H578 0.950 . S
C550 N546 1.383 . S
C550 C549 1.439 . S
C550 C568 1.392 . S
N551 Co535 2.282 . S
N551 C554 1.332 . S
N551 C556 1.332 . S
C552 C553 1.386 . S
C552 C555 1.388 . S
C553 C552 1.386 . S
C553 C554 1.382 . S
C553 H579 0.950 . S
C554 N551 1.332 . S
C554 C553 1.382 . S
C554 H565 0.952 . S
C555 C552 1.388 . S
C555 C556 1.382 . S
C555 H580 0.950 . S
C556 N551 1.332 . S
C556 C555 1.382 . S
C556 H566 0.948 . S
N557 Co535 2.282 . S
N557 C561 1.332 . S
N557 C562 1.332 . S
C558 C559 1.388 . S
C558 C562 1.382 1_554 S
C558 H581 0.950 . S
C559 C558 1.388 . S
C559 C560 1.386 . S
C560 C559 1.386 . S
C560 C561 1.382 1_554 S
C560 H582 0.950 . S
C561 N557 1.332 . S
C561 C560 1.382 1_556 S
C561 H563 0.952 . S
C562 N557 1.332 . S
C562 C558 1.382 1_556 S
C562 H564 0.948 . S
H563 C561 0.952 . S
H564 C562 0.948 . S
H565 C554 0.952 . S
H566 C556 0.948 . S
C567 C533 1.395 . S
C567 C537 1.391 . S
C568 C530 1.389 . S
C568 C550 1.392 . S
C569 C540 1.392 . S
C569 C542 1.389 . S
C570 C545 1.395 . S
C570 C547 1.391 . S
H571 C531 0.951 . S
H572 C532 0.950 . S
H573 C538 0.949 . S
H574 C539 0.950 . S
H575 C543 0.951 . S
H576 C544 0.950 . S
H577 C548 0.949 . S
H578 C549 0.950 . S
H579 C553 0.950 . S
H580 C555 0.950 . S
H581 C558 0.950 . S
H582 C560 0.950 . S
C583 C584 1.443 . S
C583 N587 1.376 . S
C583 C621 1.389 . S
C584 C583 1.443 . S
C584 C585 1.340 . S
C584 H624 0.951 . S
C585 C584 1.340 . S
C585 C586 1.439 . S
C585 H625 0.950 . S
C586 C585 1.439 . S
C586 N587 1.374 . S
C586 C620 1.395 . S
N587 C583 1.376 . S
N587 C586 1.374 . S
N587 Co588 2.008 . S
Co588 N587 2.008 . S
Co588 N589 1.995 . S
Co588 N594 2.008 . S
Co588 N599 1.995 . S
Co588 N604 2.282 . S
Co588 N610 2.282 . S
N589 Co588 1.995 . S
N589 C590 1.376 . S
N589 C593 1.383 . S
C590 N589 1.376 . S
C590 C591 1.446 . S
C590 C620 1.391 . S
C591 C590 1.446 . S
C591 C592 1.339 . S
C591 H626 0.949 . S
C592 C591 1.339 . S
C592 C593 1.439 . S
C592 H627 0.950 . S
C593 N589 1.383 . S
C593 C592 1.439 . S
C593 C622 1.392 . S
N594 Co588 2.008 . S
N594 C595 1.376 . S
N594 C598 1.374 . S
C595 N594 1.376 . S
C595 C596 1.443 . S
C595 C622 1.389 . S
C596 C595 1.443 . S
C596 C597 1.340 . S
C596 H628 0.951 . S
C597 C596 1.340 . S
C597 C598 1.439 . S
C597 H629 0.950 . S
C598 N594 1.374 . S
C598 C597 1.439 . S
C598 C623 1.395 . S
N599 Co588 1.995 . S
N599 C600 1.376 . S
N599 C603 1.383 . S
C600 N599 1.376 . S
C600 C601 1.446 . S
C600 C623 1.391 . S
C601 C600 1.446 . S
C601 C602 1.339 . S
C601 H630 0.949 . S
C602 C601 1.339 . S
C602 C603 1.439 . S
C602 H631 0.950 . S
C603 N599 1.383 . S
C603 C602 1.439 . S
C603 C621 1.392 . S
N604 Co588 2.282 . S
N604 C607 1.332 . S
N604 C609 1.332 . S
C605 C606 1.386 . S
C605 C608 1.388 . S
C606 C605 1.386 . S
C606 C607 1.382 . S
C606 H632 0.950 . S
C607 N604 1.332 . S
C607 C606 1.382 . S
C607 H618 0.952 . S
C608 C605 1.388 . S
C608 C609 1.382 . S
C608 H633 0.950 . S
C609 N604 1.332 . S
C609 C608 1.382 . S
C609 H619 0.948 . S
N610 Co588 2.282 . S
N610 C614 1.332 . S
N610 C615 1.332 . S
C611 C612 1.388 . S
C611 C615 1.382 . S
C611 H634 0.950 . S
C612 C611 1.388 . S
C612 C613 1.386 . S
C613 C612 1.386 . S
C613 C614 1.382 . S
C613 H635 0.950 . S
C614 N610 1.332 . S
C614 C613 1.382 . S
C614 H616 0.952 . S
C615 N610 1.332 . S
C615 C611 1.382 . S
C615 H617 0.948 . S
H616 C614 0.952 . S
H617 C615 0.948 . S
H618 C607 0.952 . S
H619 C609 0.948 . S
C620 C586 1.395 . S
C620 C590 1.391 . S
C621 C583 1.389 . S
C621 C603 1.392 . S
C622 C593 1.392 . S
C622 C595 1.389 . S
C623 C598 1.395 . S
C623 C600 1.391 . S
H624 C584 0.951 . S
H625 C585 0.950 . S
H626 C591 0.949 . S
H627 C592 0.950 . S
H628 C596 0.951 . S
H629 C597 0.950 . S
H630 C601 0.949 . S
H631 C602 0.950 . S
H632 C606 0.950 . S
H633 C608 0.950 . S
H634 C611 0.950 . S
H635 C613 0.950 . S
C636 C637 1.391 . S
C636 C638 1.394 . S
C636 H652 0.931 . S
C637 C636 1.391 . S
C637 C641 1.376 . S
C638 C636 1.394 . S
C638 C639 1.369 . S
C638 C642 1.531 . S
C639 C638 1.369 . S
C639 C640 1.410 . S
C639 C647 1.503 . S
C640 C639 1.410 . S
C640 C641 1.392 . S
C640 C643 1.511 . S
C641 C637 1.376 . S
C641 C640 1.392 . S
C641 H653 0.929 . S
C642 C638 1.531 . S
C642 H654 0.960 . S
C642 H655 0.962 . S
C642 H656 0.960 . S
C643 C640 1.511 . S
C643 H657 0.961 . S
C643 H658 0.961 . S
C643 H659 0.961 . S
C644 C645 1.370 . S
C644 C646 1.363 . S
C644 H660 0.931 . S
C645 C644 1.370 . S
C645 C649 1.408 . S
C646 C644 1.363 . S
C646 C647 1.370 . S
C646 C650 1.524 . S
C647 C639 1.503 . S
C647 C646 1.370 . S
C647 C648 1.403 . S
C648 C647 1.403 . S
C648 C649 1.404 . S
C648 C651 1.539 . S
C649 C645 1.408 . S
C649 C648 1.404 . S
C649 H661 0.930 . S
C650 C646 1.524 . S
C650 H662 0.956 . S
C650 H663 0.961 . S
C650 H664 0.961 . S
C651 C648 1.539 . S
C651 H665 0.958 . S
C651 H666 0.961 . S
C651 H667 0.960 . S
H652 C636 0.931 . S
H653 C641 0.929 . S
H654 C642 0.960 . S
H655 C642 0.962 . S
H656 C642 0.960 . S
H657 C643 0.961 . S
H658 C643 0.961 . S
H659 C643 0.961 . S
H660 C644 0.931 . S
H661 C649 0.930 . S
H662 C650 0.956 . S
H663 C650 0.961 . S
H664 C650 0.961 . S
H665 C651 0.958 . S
H666 C651 0.961 . S
H667 C651 0.960 . S
C668 C669 1.391 . S
C668 C670 1.394 . S
C668 H684 0.931 . S
C669 C668 1.391 . S
C669 C673 1.376 . S
C670 C668 1.394 . S
C670 C671 1.369 . S
C670 C674 1.531 . S
C671 C670 1.369 . S
C671 C672 1.410 . S
C671 C679 1.503 . S
C672 C671 1.410 . S
C672 C673 1.392 . S
C672 C675 1.511 . S
C673 C669 1.376 . S
C673 C672 1.392 . S
C673 H685 0.929 . S
C674 C670 1.531 . S
C674 H686 0.960 . S
C674 H687 0.962 . S
C674 H688 0.960 . S
C675 C672 1.511 . S
C675 H689 0.961 . S
C675 H690 0.961 . S
C675 H691 0.961 . S
C676 C677 1.370 . S
C676 C678 1.363 . S
C676 H692 0.931 . S
C677 C676 1.370 . S
C677 C681 1.408 . S
C678 C676 1.363 . S
C678 C679 1.370 . S
C678 C682 1.524 . S
C679 C671 1.503 . S
C679 C678 1.370 . S
C679 C680 1.403 . S
C680 C679 1.403 . S
C680 C681 1.404 . S
C680 C683 1.539 . S
C681 C677 1.408 . S
C681 C680 1.404 . S
C681 H693 0.930 . S
C682 C678 1.524 . S
C682 H694 0.956 . S
C682 H695 0.961 . S
C682 H696 0.961 . S
C683 C680 1.539 . S
C683 H697 0.958 . S
C683 H698 0.961 . S
C683 H699 0.960 . S
H684 C668 0.931 . S
H685 C673 0.929 . S
H686 C674 0.960 . S
H687 C674 0.962 . S
H688 C674 0.960 . S
H689 C675 0.961 . S
H690 C675 0.961 . S
H691 C675 0.961 . S
H692 C676 0.931 . S
H693 C681 0.930 . S
H694 C682 0.956 . S
H695 C682 0.961 . S
H696 C682 0.961 . S
H697 C683 0.958 . S
H698 C683 0.961 . S
H699 C683 0.960 . S
C700 C701 1.391 . S
C700 C702 1.394 . S
C700 H716 0.931 . S
C701 C700 1.391 . S
C701 C705 1.376 . S
C702 C700 1.394 . S
C702 C703 1.369 . S
C702 C706 1.531 . S
C703 C702 1.369 . S
C703 C704 1.410 . S
C703 C711 1.503 1_556 S
C704 C703 1.410 . S
C704 C705 1.392 . S
C704 C707 1.511 . S
C705 C701 1.376 . S
C705 C704 1.392 . S
C705 H717 0.929 . S
C706 C702 1.531 . S
C706 H718 0.960 . S
C706 H719 0.962 . S
C706 H720 0.960 . S
C707 C704 1.511 . S
C707 H721 0.961 . S
C707 H722 0.961 1_556 S
C707 H723 0.961 . S
C708 C709 1.370 . S
C708 C710 1.363 . S
C708 H724 0.931 . S
C709 C708 1.370 . S
C709 C713 1.408 . S
C710 C708 1.363 . S
C710 C711 1.370 . S
C710 C714 1.524 . S
C711 C703 1.503 1_554 S
C711 C710 1.370 . S
C711 C712 1.403 . S
C712 C711 1.403 . S
C712 C713 1.404 . S
C712 C715 1.539 . S
C713 C709 1.408 . S
C713 C712 1.404 . S
C713 H725 0.930 . S
C714 C710 1.524 . S
C714 H726 0.956 1_554 S
C714 H727 0.961 1_554 S
C714 H728 0.961 . S
C715 C712 1.539 . S
C715 H729 0.958 . S
C715 H730 0.961 . S
C715 H731 0.960 . S
H716 C700 0.931 . S
H717 C705 0.929 . S
H718 C706 0.960 . S
H719 C706 0.962 . S
H720 C706 0.960 . S
H721 C707 0.961 . S
H722 C707 0.961 1_554 S
H723 C707 0.961 . S
H724 C708 0.931 . S
H725 C713 0.930 . S
H726 C714 0.956 1_556 S
H727 C714 0.961 1_556 S
H728 C714 0.961 . S
H729 C715 0.958 . S
H730 C715 0.961 . S
H731 C715 0.960 . S
C732 C733 1.391 . S
C732 C734 1.394 . S
C732 H748 0.931 . S
C733 C732 1.391 . S
C733 C737 1.376 . S
C734 C732 1.394 . S
C734 C735 1.369 . S
C734 C738 1.531 . S
C735 C734 1.369 . S
C735 C736 1.410 . S
C735 C743 1.503 . S
C736 C735 1.410 . S
C736 C737 1.392 . S
C736 C739 1.511 . S
C737 C733 1.376 . S
C737 C736 1.392 . S
C737 H749 0.929 . S
C738 C734 1.531 . S
C738 H750 0.960 . S
C738 H751 0.962 . S
C738 H752 0.960 . S
C739 C736 1.511 . S
C739 H753 0.961 . S
C739 H754 0.961 . S
C739 H755 0.961 . S
C740 C741 1.370 . S
C740 C742 1.363 . S
C740 H756 0.931 . S
C741 C740 1.370 . S
C741 C745 1.408 . S
C742 C740 1.363 . S
C742 C743 1.370 . S
C742 C746 1.524 . S
C743 C735 1.503 . S
C743 C742 1.370 . S
C743 C744 1.403 . S
C744 C743 1.403 . S
C744 C745 1.404 . S
C744 C747 1.539 . S
C745 C741 1.408 . S
C745 C744 1.404 . S
C745 H757 0.930 . S
C746 C742 1.524 . S
C746 H758 0.956 . S
C746 H759 0.961 . S
C746 H760 0.961 . S
C747 C744 1.539 . S
C747 H761 0.958 . S
C747 H762 0.961 . S
C747 H763 0.960 . S
H748 C732 0.931 . S
H749 C737 0.929 . S
H750 C738 0.960 . S
H751 C738 0.962 . S
H752 C738 0.960 . S
H753 C739 0.961 . S
H754 C739 0.961 . S
H755 C739 0.961 . S
H756 C740 0.931 . S
H757 C745 0.930 . S
H758 C746 0.956 . S
H759 C746 0.961 . S
H760 C746 0.961 . S
H761 C747 0.958 . S
H762 C747 0.961 . S
H763 C747 0.960 . S
C764 C765 1.391 . S
C764 C766 1.394 . S
C764 H780 0.931 . S
C765 C764 1.391 . S
C765 C769 1.376 . S
C766 C764 1.394 . S
C766 C767 1.369 . S
C766 C770 1.531 . S
C767 C766 1.369 . S
C767 C768 1.410 . S
C767 C775 1.503 . S
C768 C767 1.410 . S
C768 C769 1.392 . S
C768 C771 1.511 . S
C769 C765 1.376 . S
C769 C768 1.392 . S
C769 H781 0.929 . S
C770 C766 1.531 . S
C770 H782 0.960 . S
C770 H783 0.962 . S
C770 H784 0.960 . S
C771 C768 1.511 . S
C771 H785 0.961 . S
C771 H786 0.961 . S
C771 H787 0.961 . S
C772 C773 1.370 . S
C772 C774 1.363 . S
C772 H788 0.931 . S
C773 C772 1.370 . S
C773 C777 1.408 . S
C774 C772 1.363 . S
C774 C775 1.370 . S
C774 C778 1.524 . S
C775 C767 1.503 . S
C775 C774 1.370 . S
C775 C776 1.403 . S
C776 C775 1.403 . S
C776 C777 1.404 . S
C776 C779 1.539 . S
C777 C773 1.408 . S
C777 C776 1.404 . S
C777 H789 0.930 . S
C778 C774 1.524 . S
C778 H790 0.956 . S
C778 H791 0.961 . S
C778 H792 0.961 . S
C779 C776 1.539 . S
C779 H793 0.958 . S
C779 H794 0.961 . S
C779 H795 0.960 . S
H780 C764 0.931 . S
H781 C769 0.929 . S
H782 C770 0.960 . S
H783 C770 0.962 . S
H784 C770 0.960 . S
H785 C771 0.961 . S
H786 C771 0.961 . S
H787 C771 0.961 . S
H788 C772 0.931 . S
H789 C777 0.930 . S
H790 C778 0.956 . S
H791 C778 0.961 . S
H792 C778 0.961 . S
H793 C779 0.958 . S
H794 C779 0.961 . S
H795 C779 0.960 . S
C796 C797 1.391 . S
C796 C798 1.394 . S
C796 H812 0.931 . S
C797 C796 1.391 . S
C797 C801 1.376 . S
C798 C796 1.394 . S
C798 C799 1.369 . S
C798 C802 1.531 . S
C799 C798 1.369 . S
C799 C800 1.410 . S
C799 C807 1.503 1_554 S
C800 C799 1.410 . S
C800 C801 1.392 . S
C800 C803 1.511 . S
C801 C797 1.376 . S
C801 C800 1.392 . S
C801 H813 0.929 . S
C802 C798 1.531 . S
C802 H814 0.960 1_554 S
C802 H815 0.962 . S
C802 H816 0.960 . S
C803 C800 1.511 . S
C803 H817 0.961 . S
C803 H818 0.961 1_554 S
C803 H819 0.961 . S
C804 C805 1.370 . S
C804 C806 1.363 . S
C804 H820 0.931 . S
C805 C804 1.370 . S
C805 C809 1.408 . S
C806 C804 1.363 . S
C806 C807 1.370 . S
C806 C810 1.524 . S
C807 C799 1.503 1_556 S
C807 C806 1.370 . S
C807 C808 1.403 . S
C808 C807 1.403 . S
C808 C809 1.404 . S
C808 C811 1.539 . S
C809 C805 1.408 . S
C809 C808 1.404 . S
C809 H821 0.930 . S
C810 C806 1.524 . S
C810 H822 0.956 1_556 S
C810 H823 0.961 1_556 S
C810 H824 0.961 . S
C811 C808 1.539 . S
C811 H825 0.958 . S
C811 H826 0.961 . S
C811 H827 0.960 . S
H812 C796 0.931 . S
H813 C801 0.929 . S
H814 C802 0.960 1_556 S
H815 C802 0.962 . S
H816 C802 0.960 . S
H817 C803 0.961 . S
H818 C803 0.961 1_556 S
H819 C803 0.961 . S
H820 C804 0.931 . S
H821 C809 0.930 . S
H822 C810 0.956 1_554 S
H823 C810 0.961 1_554 S
H824 C810 0.961 . S
H825 C811 0.958 . S
H826 C811 0.961 . S
H827 C811 0.960 . S
C828 C829 1.391 . S
C828 C830 1.394 . S
C828 H844 0.931 . S
C829 C828 1.391 . S
C829 C833 1.376 . S
C830 C828 1.394 . S
C830 C831 1.369 . S
C830 C834 1.531 1_554 S
C831 C830 1.369 . S
C831 C832 1.410 . S
C831 C839 1.503 1_554 S
C832 C831 1.410 . S
C832 C833 1.392 . S
C832 C835 1.511 . S
C833 C829 1.376 . S
C833 C832 1.392 . S
C833 H845 0.929 . S
C834 C830 1.531 1_556 S
C834 H846 0.960 . S
C834 H847 0.962 . S
C834 H848 0.960 . S
C835 C832 1.511 . S
C835 H849 0.961 . S
C835 H850 0.961 . S
C835 H851 0.961 . S
C836 C837 1.370 . S
C836 C838 1.363 . S
C836 H852 0.931 . S
C837 C836 1.370 . S
C837 C841 1.408 . S
C838 C836 1.363 . S
C838 C839 1.370 . S
C838 C842 1.524 . S
C839 C831 1.503 1_556 S
C839 C838 1.370 . S
C839 C840 1.403 1_556 S
C840 C839 1.403 1_554 S
C840 C841 1.404 1_554 S
C840 C843 1.539 . S
C841 C837 1.408 . S
C841 C840 1.404 1_556 S
C841 H853 0.930 1_556 S
C842 C838 1.524 . S
C842 H854 0.956 . S
C842 H855 0.961 . S
C842 H856 0.961 . S
C843 C840 1.539 . S
C843 H857 0.958 . S
C843 H858 0.961 . S
C843 H859 0.960 . S
H844 C828 0.931 . S
H845 C833 0.929 . S
H846 C834 0.960 . S
H847 C834 0.962 . S
H848 C834 0.960 . S
H849 C835 0.961 . S
H850 C835 0.961 . S
H851 C835 0.961 . S
H852 C836 0.931 . S
H853 C841 0.930 1_554 S
H854 C842 0.956 . S
H855 C842 0.961 . S
H856 C842 0.961 . S
H857 C843 0.958 . S
H858 C843 0.961 . S
H859 C843 0.960 . S
C860 C861 1.391 . S
C860 C862 1.394 . S
C860 H876 0.931 . S
C861 C860 1.391 . S
C861 C865 1.376 . S
C862 C860 1.394 . S
C862 C863 1.369 . S
C862 C866 1.531 . S
C863 C862 1.369 . S
C863 C864 1.410 . S
C863 C871 1.503 . S
C864 C863 1.410 . S
C864 C865 1.392 . S
C864 C867 1.511 . S
C865 C861 1.376 . S
C865 C864 1.392 . S
C865 H877 0.929 . S
C866 C862 1.531 . S
C866 H878 0.960 . S
C866 H879 0.962 . S
C866 H880 0.960 . S
C867 C864 1.511 . S
C867 H881 0.961 . S
C867 H882 0.961 . S
C867 H883 0.961 . S
C868 C869 1.370 . S
C868 C870 1.363 . S
C868 H884 0.931 . S
C869 C868 1.370 . S
C869 C873 1.408 . S
C870 C868 1.363 . S
C870 C871 1.370 . S
C870 C874 1.524 . S
C871 C863 1.503 . S
C871 C870 1.370 . S
C871 C872 1.403 . S
C872 C871 1.403 . S
C872 C873 1.404 . S
C872 C875 1.539 . S
C873 C869 1.408 . S
C873 C872 1.404 . S
C873 H885 0.930 . S
C874 C870 1.524 . S
C874 H886 0.956 . S
C874 H887 0.961 . S
C874 H888 0.961 . S
C875 C872 1.539 . S
C875 H889 0.958 . S
C875 H890 0.961 . S
C875 H891 0.960 . S
H876 C860 0.931 . S
H877 C865 0.929 . S
H878 C866 0.960 . S
H879 C866 0.962 . S
H880 C866 0.960 . S
H881 C867 0.961 . S
H882 C867 0.961 . S
H883 C867 0.961 . S
H884 C868 0.931 . S
H885 C873 0.930 . S
H886 C874 0.956 . S
H887 C874 0.961 . S
H888 C874 0.961 . S
H889 C875 0.958 . S
H890 C875 0.961 . S
H891 C875 0.960 . S
C892 C893 1.391 . S
C892 C894 1.394 . S
C892 H908 0.931 . S
C893 C892 1.391 . S
C893 C897 1.376 . S
C894 C892 1.394 . S
C894 C895 1.369 . S
C894 C898 1.531 . S
C895 C894 1.369 . S
C895 C896 1.410 . S
C895 C903 1.503 . S
C896 C895 1.410 . S
C896 C897 1.392 . S
C896 C899 1.511 . S
C897 C893 1.376 . S
C897 C896 1.392 . S
C897 H909 0.929 . S
C898 C894 1.531 . S
C898 H910 0.960 . S
C898 H911 0.962 . S
C898 H912 0.960 . S
C899 C896 1.511 . S
C899 H913 0.961 . S
C899 H914 0.961 . S
C899 H915 0.961 . S
C900 C901 1.370 . S
C900 C902 1.363 . S
C900 H916 0.931 . S
C901 C900 1.370 . S
C901 C905 1.408 . S
C902 C900 1.363 . S
C902 C903 1.370 . S
C902 C906 1.524 . S
C903 C895 1.503 . S
C903 C902 1.370 . S
C903 C904 1.403 . S
C904 C903 1.403 . S
C904 C905 1.404 . S
C904 C907 1.539 . S
C905 C901 1.408 . S
C905 C904 1.404 . S
C905 H917 0.930 . S
C906 C902 1.524 . S
C906 H918 0.956 . S
C906 H919 0.961 . S
C906 H920 0.961 . S
C907 C904 1.539 . S
C907 H921 0.958 . S
C907 H922 0.961 . S
C907 H923 0.960 . S
H908 C892 0.931 . S
H909 C897 0.929 . S
H910 C898 0.960 . S
H911 C898 0.962 . S
H912 C898 0.960 . S
H913 C899 0.961 . S
H914 C899 0.961 . S
H915 C899 0.961 . S
H916 C900 0.931 . S
H917 C905 0.930 . S
H918 C906 0.956 . S
H919 C906 0.961 . S
H920 C906 0.961 . S
H921 C907 0.958 . S
H922 C907 0.961 . S
H923 C907 0.960 . S
C924 C925 1.391 . S
C924 C926 1.394 . S
C924 H940 0.931 . S
C925 C924 1.391 . S
C925 C929 1.376 . S
C926 C924 1.394 . S
C926 C927 1.369 . S
C926 C930 1.531 . S
C927 C926 1.369 . S
C927 C928 1.410 . S
C927 C935 1.503 1_554 S
C928 C927 1.410 . S
C928 C929 1.392 . S
C928 C931 1.511 . S
C929 C925 1.376 . S
C929 C928 1.392 . S
C929 H941 0.929 . S
C930 C926 1.531 . S
C930 H942 0.960 . S
C930 H943 0.962 1_554 S
C930 H944 0.960 . S
C931 C928 1.511 . S
C931 H945 0.961 . S
C931 H946 0.961 . S
C931 H947 0.961 . S
C932 C933 1.370 . S
C932 C934 1.363 . S
C932 H948 0.931 . S
C933 C932 1.370 . S
C933 C937 1.408 . S
C934 C932 1.363 . S
C934 C935 1.370 . S
C934 C938 1.524 . S
C935 C927 1.503 1_556 S
C935 C934 1.370 . S
C935 C936 1.403 1_556 S
C936 C935 1.403 1_554 S
C936 C937 1.404 1_554 S
C936 C939 1.539 . S
C937 C933 1.408 . S
C937 C936 1.404 1_556 S
C937 H949 0.930 1_556 S
C938 C934 1.524 . S
C938 H950 0.956 . S
C938 H951 0.961 . S
C938 H952 0.961 . S
C939 C936 1.539 . S
C939 H953 0.958 . S
C939 H954 0.961 . S
C939 H955 0.960 . S
H940 C924 0.931 . S
H941 C929 0.929 . S
H942 C930 0.960 . S
H943 C930 0.962 1_556 S
H944 C930 0.960 . S
H945 C931 0.961 . S
H946 C931 0.961 . S
H947 C931 0.961 . S
H948 C932 0.931 . S
H949 C937 0.930 1_554 S
H950 C938 0.956 . S
H951 C938 0.961 . S
H952 C938 0.961 . S
H953 C939 0.958 . S
H954 C939 0.961 . S
H955 C939 0.960 . S
C956 C957 1.391 . S
C956 C958 1.394 . S
C956 H972 0.931 . S
C957 C956 1.391 . S
C957 C961 1.376 . S
C958 C956 1.394 . S
C958 C959 1.369 . S
C958 C962 1.531 . S
C959 C958 1.369 . S
C959 C960 1.410 . S
C959 C967 1.503 . S
C960 C959 1.410 . S
C960 C961 1.392 . S
C960 C963 1.511 . S
C961 C957 1.376 . S
C961 C960 1.392 . S
C961 H973 0.929 . S
C962 C958 1.531 . S
C962 H974 0.960 . S
C962 H975 0.962 . S
C962 H976 0.960 . S
C963 C960 1.511 . S
C963 H977 0.961 . S
C963 H978 0.961 . S
C963 H979 0.961 . S
C964 C965 1.370 . S
C964 C966 1.363 . S
C964 H980 0.931 . S
C965 C964 1.370 . S
C965 C969 1.408 . S
C966 C964 1.363 . S
C966 C967 1.370 . S
C966 C970 1.524 . S
C967 C959 1.503 . S
C967 C966 1.370 . S
C967 C968 1.403 . S
C968 C967 1.403 . S
C968 C969 1.404 . S
C968 C971 1.539 . S
C969 C965 1.408 . S
C969 C968 1.404 . S
C969 H981 0.930 . S
C970 C966 1.524 . S
C970 H982 0.956 . S
C970 H983 0.961 . S
C970 H984 0.961 . S
C971 C968 1.539 . S
C971 H985 0.958 . S
C971 H986 0.961 . S
C971 H987 0.960 . S
H972 C956 0.931 . S
H973 C961 0.929 . S
H974 C962 0.960 . S
H975 C962 0.962 . S
H976 C962 0.960 . S
H977 C963 0.961 . S
H978 C963 0.961 . S
H979 C963 0.961 . S
H980 C964 0.931 . S
H981 C969 0.930 . S
H982 C970 0.956 . S
H983 C970 0.961 . S
H984 C970 0.961 . S
H985 C971 0.958 . S
H986 C971 0.961 . S
H987 C971 0.960 . S
C988 C989 1.391 . S
C988 C990 1.394 . S
C988 H1004 0.931 . S
C989 C988 1.391 . S
C989 C993 1.376 . S
C990 C988 1.394 . S
C990 C991 1.369 . S
C990 C994 1.531 . S
C991 C990 1.369 . S
C991 C992 1.410 . S
C991 C999 1.503 . S
C992 C991 1.410 . S
C992 C993 1.392 . S
C992 C995 1.511 . S
C993 C989 1.376 . S
C993 C992 1.392 . S
C993 H1005 0.929 . S
C994 C990 1.531 . S
C994 H1006 0.960 . S
C994 H1007 0.962 . S
C994 H1008 0.960 . S
C995 C992 1.511 . S
C995 H1009 0.961 . S
C995 H1010 0.961 . S
C995 H1011 0.961 . S
C996 C997 1.370 . S
C996 C998 1.363 . S
C996 H1012 0.931 . S
C997 C996 1.370 . S
C997 C1001 1.408 . S
C998 C996 1.363 . S
C998 C999 1.370 . S
C998 C1002 1.524 . S
C999 C991 1.503 . S
C999 C998 1.370 . S
C999 C1000 1.403 . S
C1000 C999 1.403 . S
C1000 C1001 1.404 . S
C1000 C1003 1.539 . S
C1001 C997 1.408 . S
C1001 C1000 1.404 . S
C1001 H1013 0.930 . S
C1002 C998 1.524 . S
C1002 H1014 0.956 . S
C1002 H1015 0.961 . S
C1002 H1016 0.961 . S
C1003 C1000 1.539 . S
C1003 H1017 0.958 . S
C1003 H1018 0.961 . S
C1003 H1019 0.960 . S
H1004 C988 0.931 . S
H1005 C993 0.929 . S
H1006 C994 0.960 . S
H1007 C994 0.962 . S
H1008 C994 0.960 . S
H1009 C995 0.961 . S
H1010 C995 0.961 . S
H1011 C995 0.961 . S
H1012 C996 0.931 . S
H1013 C1001 0.930 . S
H1014 C1002 0.956 . S
H1015 C1002 0.961 . S
H1016 C1002 0.961 . S
H1017 C1003 0.958 . S
H1018 C1003 0.961 . S
H1019 C1003 0.960 . S
C1020 C1021 1.391 . S
C1020 C1022 1.394 . S
C1020 H1036 0.931 . S
C1021 C1020 1.391 . S
C1021 C1025 1.376 . S
C1022 C1020 1.394 . S
C1022 C1023 1.369 . S
C1022 C1026 1.531 . S
C1023 C1022 1.369 . S
C1023 C1024 1.410 . S
C1023 C1031 1.503 . S
C1024 C1023 1.410 . S
C1024 C1025 1.392 . S
C1024 C1027 1.511 . S
C1025 C1021 1.376 . S
C1025 C1024 1.392 . S
C1025 H1037 0.929 . S
C1026 C1022 1.531 . S
C1026 H1038 0.960 . S
C1026 H1039 0.962 . S
C1026 H1040 0.960 . S
C1027 C1024 1.511 . S
C1027 H1041 0.961 . S
C1027 H1042 0.961 . S
C1027 H1043 0.961 . S
C1028 C1029 1.370 . S
C1028 C1030 1.363 . S
C1028 H1044 0.931 . S
C1029 C1028 1.370 . S
C1029 C1033 1.408 . S
C1030 C1028 1.363 . S
C1030 C1031 1.370 . S
C1030 C1034 1.524 . S
C1031 C1023 1.503 . S
C1031 C1030 1.370 . S
C1031 C1032 1.403 . S
C1032 C1031 1.403 . S
C1032 C1033 1.404 . S
C1032 C1035 1.539 . S
C1033 C1029 1.408 . S
C1033 C1032 1.404 . S
C1033 H1045 0.930 . S
C1034 C1030 1.524 . S
C1034 H1046 0.956 . S
C1034 H1047 0.961 . S
C1034 H1048 0.961 . S
C1035 C1032 1.539 . S
C1035 H1049 0.958 . S
C1035 H1050 0.961 . S
C1035 H1051 0.960 . S
H1036 C1020 0.931 . S
H1037 C1025 0.929 . S
H1038 C1026 0.960 . S
H1039 C1026 0.962 . S
H1040 C1026 0.960 . S
H1041 C1027 0.961 . S
H1042 C1027 0.961 . S
H1043 C1027 0.961 . S
H1044 C1028 0.931 . S
H1045 C1033 0.930 . S
H1046 C1034 0.956 . S
H1047 C1034 0.961 . S
H1048 C1034 0.961 . S
H1049 C1035 0.958 . S
H1050 C1035 0.961 . S
H1051 C1035 0.960 . S
C1052 C1053 1.391 . S
C1052 C1054 1.394 . S
C1052 H1068 0.931 . S
C1053 C1052 1.391 . S
C1053 C1057 1.376 . S
C1054 C1052 1.394 . S
C1054 C1055 1.369 . S
C1054 C1058 1.531 . S
C1055 C1054 1.369 . S
C1055 C1056 1.410 . S
C1055 C1063 1.503 1_655 S
C1056 C1055 1.410 . S
C1056 C1057 1.392 . S
C1056 C1059 1.511 . S
C1057 C1053 1.376 . S
C1057 C1056 1.392 . S
C1057 H1069 0.929 . S
C1058 C1054 1.531 . S
C1058 H1070 0.960 1_655 S
C1058 H1071 0.962 . S
C1058 H1072 0.960 . S
C1059 C1056 1.511 . S
C1059 H1073 0.961 . S
C1059 H1074 0.961 . S
C1059 H1075 0.961 . S
C1060 C1061 1.370 . S
C1060 C1062 1.363 . S
C1060 H1076 0.931 . S
C1061 C1060 1.370 . S
C1061 C1065 1.408 . S
C1062 C1060 1.363 . S
C1062 C1063 1.370 . S
C1062 C1066 1.524 . S
C1063 C1055 1.503 1_455 S
C1063 C1062 1.370 . S
C1063 C1064 1.403 . S
C1064 C1063 1.403 . S
C1064 C1065 1.404 . S
C1064 C1067 1.539 . S
C1065 C1061 1.408 . S
C1065 C1064 1.404 . S
C1065 H1077 0.930 . S
C1066 C1062 1.524 . S
C1066 H1078 0.956 . S
C1066 H1079 0.961 1_455 S
C1066 H1080 0.961 . S
C1067 C1064 1.539 . S
C1067 H1081 0.958 . S
C1067 H1082 0.961 . S
C1067 H1083 0.932 1_455 S
H1068 C1052 0.931 . S
H1069 C1057 0.929 . S
H1070 C1058 0.960 1_455 S
H1071 C1058 0.962 . S
H1072 C1058 0.960 . S
H1073 C1059 0.961 . S
H1074 C1059 0.961 . S
H1075 C1059 0.961 . S
H1076 C1060 0.931 . S
H1077 C1065 0.930 . S
H1078 C1066 0.956 . S
H1079 C1066 0.961 1_655 S
H1080 C1066 0.961 . S
H1081 C1067 0.958 . S
H1082 C1067 0.961 . S
H1083 C1067 0.932 1_655 S
C1084 C1085 1.391 . S
C1084 C1086 1.394 . S
C1084 H1100 0.931 . S
C1085 C1084 1.391 . S
C1085 C1089 1.376 . S
C1086 C1084 1.394 . S
C1086 C1087 1.369 . S
C1086 C1090 1.531 . S
C1087 C1086 1.369 . S
C1087 C1088 1.410 . S
C1087 C1095 1.503 1_545 S
C1088 C1087 1.410 . S
C1088 C1089 1.392 . S
C1088 C1091 1.511 . S
C1089 C1085 1.376 . S
C1089 C1088 1.392 . S
C1089 H1101 0.929 . S
C1090 C1086 1.531 . S
C1090 H1102 0.960 1_545 S
C1090 H1103 0.962 . S
C1090 H1104 0.960 . S
C1091 C1088 1.511 . S
C1091 H1105 0.961 . S
C1091 H1106 0.911 1_545 S
C1091 H1107 0.961 . S
C1092 C1093 1.370 . S
C1092 C1094 1.363 . S
C1092 H1108 0.931 . S
C1093 C1092 1.370 . S
C1093 C1097 1.408 . S
C1094 C1092 1.363 . S
C1094 C1095 1.370 . S
C1094 C1098 1.524 . S
C1095 C1087 1.503 1_565 S
C1095 C1094 1.370 . S
C1095 C1096 1.403 . S
C1096 C1095 1.403 . S
C1096 C1097 1.404 . S
C1096 C1099 1.539 . S
C1097 C1093 1.408 . S
C1097 C1096 1.404 . S
C1097 H1109 0.930 . S
C1098 C1094 1.524 . S
C1098 H1110 0.956 . S
C1098 H1111 0.961 . S
C1098 H1112 0.961 . S
C1099 C1096 1.539 . S
C1099 H1113 0.958 . S
C1099 H1114 0.961 . S
C1099 H1115 0.960 1_565 S
H1100 C1084 0.931 . S
H1101 C1089 0.929 . S
H1102 C1090 0.960 1_565 S
H1103 C1090 0.962 . S
H1104 C1090 0.960 . S
H1105 C1091 0.961 . S
H1106 C1091 0.911 1_565 S
H1107 C1091 0.961 . S
H1108 C1092 0.931 . S
H1109 C1097 0.930 . S
H1110 C1098 0.956 . S
H1111 C1098 0.961 . S
H1112 C1098 0.961 . S
H1113 C1099 0.958 . S
H1114 C1099 0.961 . S
H1115 C1099 0.960 1_545 S
C1116 C1117 1.391 . S
C1116 C1118 1.394 . S
C1116 H1132 0.931 . S
C1117 C1116 1.391 . S
C1117 C1121 1.376 . S
C1118 C1116 1.394 . S
C1118 C1119 1.369 . S
C1118 C1122 1.531 . S
C1119 C1118 1.369 . S
C1119 C1120 1.410 . S
C1119 C1127 1.503 . S
C1120 C1119 1.410 . S
C1120 C1121 1.392 . S
C1120 C1123 1.511 . S
C1121 C1117 1.376 . S
C1121 C1120 1.392 . S
C1121 H1133 0.929 . S
C1122 C1118 1.531 . S
C1122 H1134 0.960 . S
C1122 H1135 0.962 . S
C1122 H1136 0.960 . S
C1123 C1120 1.511 . S
C1123 H1137 0.961 . S
C1123 H1138 0.961 . S
C1123 H1139 0.961 . S
C1124 C1125 1.370 . S
C1124 C1126 1.363 . S
C1124 H1140 0.931 . S
C1125 C1124 1.370 . S
C1125 C1129 1.408 . S
C1126 C1124 1.363 . S
C1126 C1127 1.370 . S
C1126 C1130 1.524 . S
C1127 C1119 1.503 . S
C1127 C1126 1.370 . S
C1127 C1128 1.403 . S
C1128 C1127 1.403 . S
C1128 C1129 1.404 . S
C1128 C1131 1.539 . S
C1129 C1125 1.408 . S
C1129 C1128 1.404 . S
C1129 H1141 0.930 . S
C1130 C1126 1.524 . S
C1130 H1142 0.956 . S
C1130 H1143 0.961 . S
C1130 H1144 0.961 . S
C1131 C1128 1.539 . S
C1131 H1145 0.958 . S
C1131 H1146 0.961 . S
C1131 H1147 0.960 . S
H1132 C1116 0.931 . S
H1133 C1121 0.929 . S
H1134 C1122 0.960 . S
H1135 C1122 0.962 . S
H1136 C1122 0.960 . S
H1137 C1123 0.961 . S
H1138 C1123 0.961 . S
H1139 C1123 0.961 . S
H1140 C1124 0.931 . S
H1141 C1129 0.930 . S
H1142 C1130 0.956 . S
H1143 C1130 0.961 . S
H1144 C1130 0.961 . S
H1145 C1131 0.958 . S
H1146 C1131 0.961 . S
H1147 C1131 0.960 . S
C1148 C1149 1.391 . S
C1148 C1150 1.394 . S
C1148 H1164 0.931 . S
C1149 C1148 1.391 . S
C1149 C1153 1.376 . S
C1150 C1148 1.394 . S
C1150 C1151 1.369 . S
C1150 C1154 1.531 . S
C1151 C1150 1.369 . S
C1151 C1152 1.410 . S
C1151 C1159 1.503 1_455 S
C1152 C1151 1.410 . S
C1152 C1153 1.392 . S
C1152 C1155 1.511 . S
C1153 C1149 1.376 . S
C1153 C1152 1.392 . S
C1153 H1165 0.929 . S
C1154 C1150 1.531 . S
C1154 H1166 0.960 . S
C1154 H1167 0.962 . S
C1154 H1168 0.960 . S
C1155 C1152 1.511 . S
C1155 H1169 0.961 . S
C1155 H1170 0.961 1_455 S
C1155 H1171 0.961 . S
C1156 C1157 1.370 . S
C1156 C1158 1.363 . S
C1156 H1172 0.931 . S
C1157 C1156 1.370 . S
C1157 C1161 1.408 . S
C1158 C1156 1.363 . S
C1158 C1159 1.370 . S
C1158 C1162 1.524 . S
C1159 C1151 1.503 1_655 S
C1159 C1158 1.370 . S
C1159 C1160 1.403 . S
C1160 C1159 1.403 . S
C1160 C1161 1.404 . S
C1160 C1163 1.539 . S
C1161 C1157 1.408 . S
C1161 C1160 1.404 . S
C1161 H1173 0.930 . S
C1162 C1158 1.524 . S
C1162 H1174 0.951 1_655 S
C1162 H1175 0.960 . S
C1162 H1176 0.961 . S
C1163 C1160 1.539 . S
C1163 H1177 0.958 . S
C1163 H1178 0.961 . S
C1163 H1179 0.960 . S
H1164 C1148 0.931 . S
H1165 C1153 0.929 . S
H1166 C1154 0.960 . S
H1167 C1154 0.962 . S
H1168 C1154 0.960 . S
H1169 C1155 0.961 . S
H1170 C1155 0.961 1_655 S
H1171 C1155 0.961 . S
H1172 C1156 0.931 . S
H1173 C1161 0.930 . S
H1174 C1162 0.951 1_455 S
H1175 C1162 0.960 . S
H1176 C1162 0.961 . S
H1177 C1163 0.958 . S
H1178 C1163 0.961 . S
H1179 C1163 0.960 . S
C1180 C1181 1.391 . S
C1180 C1182 1.394 . S
C1180 H1196 0.931 . S
C1181 C1180 1.391 . S
C1181 C1185 1.376 . S
C1182 C1180 1.394 . S
C1182 C1183 1.369 . S
C1182 C1186 1.531 . S
C1183 C1182 1.369 . S
C1183 C1184 1.410 . S
C1183 C1191 1.503 1_565 S
C1184 C1183 1.410 . S
C1184 C1185 1.392 . S
C1184 C1187 1.511 . S
C1185 C1181 1.376 . S
C1185 C1184 1.392 . S
C1185 H1197 0.929 . S
C1186 C1182 1.531 . S
C1186 H1198 0.960 1_565 S
C1186 H1199 0.962 . S
C1186 H1200 0.960 . S
C1187 C1184 1.511 . S
C1187 H1201 0.961 . S
C1187 H1202 0.961 . S
C1187 H1203 0.961 . S
C1188 C1189 1.370 . S
C1188 C1190 1.363 . S
C1188 H1204 0.931 . S
C1189 C1188 1.370 . S
C1189 C1193 1.408 . S
C1190 C1188 1.363 . S
C1190 C1191 1.370 . S
C1190 C1194 1.524 . S
C1191 C1183 1.503 1_545 S
C1191 C1190 1.370 . S
C1191 C1192 1.403 . S
C1192 C1191 1.403 . S
C1192 C1193 1.404 . S
C1192 C1195 1.539 . S
C1193 C1189 1.408 . S
C1193 C1192 1.404 . S
C1193 H1205 0.930 . S
C1194 C1190 1.524 . S
C1194 H1206 0.956 . S
C1194 H1207 0.961 1_545 S
C1194 H1208 0.961 . S
C1195 C1192 1.539 . S
C1195 H1209 0.958 . S
C1195 H1210 0.961 . S
C1195 H1211 0.995 . S
H1196 C1180 0.931 . S
H1197 C1185 0.929 . S
H1198 C1186 0.960 1_545 S
H1199 C1186 0.962 . S
H1200 C1186 0.960 . S
H1201 C1187 0.961 . S
H1202 C1187 0.961 . S
H1203 C1187 0.961 . S
H1204 C1188 0.931 . S
H1205 C1193 0.930 . S
H1206 C1194 0.956 . S
H1207 C1194 0.961 1_565 S
H1208 C1194 0.961 . S
H1209 C1195 0.958 . S
H1210 C1195 0.961 . S
H1211 C1195 0.995 . S
C1212 C1213 1.391 . S
C1212 C1214 1.394 . S
C1212 H1228 0.931 . S
C1213 C1212 1.391 . S
C1213 C1217 1.376 . S
C1214 C1212 1.394 . S
C1214 C1215 1.369 . S
C1214 C1218 1.531 . S
C1215 C1214 1.369 . S
C1215 C1216 1.410 . S
C1215 C1223 1.503 . S
C1216 C1215 1.410 . S
C1216 C1217 1.392 . S
C1216 C1219 1.511 . S
C1217 C1213 1.376 . S
C1217 C1216 1.392 . S
C1217 H1229 0.929 . S
C1218 C1214 1.531 . S
C1218 H1230 0.960 . S
C1218 H1231 0.962 . S
C1218 H1232 0.960 . S
C1219 C1216 1.511 . S
C1219 H1233 0.961 . S
C1219 H1234 0.961 . S
C1219 H1235 0.961 . S
C1220 C1221 1.370 . S
C1220 C1222 1.363 . S
C1220 H1236 0.931 . S
C1221 C1220 1.370 . S
C1221 C1225 1.408 . S
C1222 C1220 1.363 . S
C1222 C1223 1.370 . S
C1222 C1226 1.524 . S
C1223 C1215 1.503 . S
C1223 C1222 1.370 . S
C1223 C1224 1.403 . S
C1224 C1223 1.403 . S
C1224 C1225 1.404 . S
C1224 C1227 1.539 . S
C1225 C1221 1.408 . S
C1225 C1224 1.404 . S
C1225 H1237 0.930 . S
C1226 C1222 1.524 . S
C1226 H1238 0.956 . S
C1226 H1239 0.961 . S
C1226 H1240 0.961 . S
C1227 C1224 1.539 . S
C1227 H1241 0.958 . S
C1227 H1242 0.961 . S
C1227 H1243 0.960 . S
H1228 C1212 0.931 . S
H1229 C1217 0.929 . S
H1230 C1218 0.960 . S
H1231 C1218 0.962 . S
H1232 C1218 0.960 . S
H1233 C1219 0.961 . S
H1234 C1219 0.961 . S
H1235 C1219 0.961 . S
H1236 C1220 0.931 . S
H1237 C1225 0.930 . S
H1238 C1226 0.956 . S
H1239 C1226 0.961 . S
H1240 C1226 0.961 . S
H1241 C1227 0.958 . S
H1242 C1227 0.961 . S
H1243 C1227 0.960 . S
C1244 C1245 1.391 . S
C1244 C1246 1.394 . S
C1244 H1260 0.931 . S
C1245 C1244 1.391 . S
C1245 C1249 1.376 . S
C1246 C1244 1.394 . S
C1246 C1247 1.369 . S
C1246 C1250 1.531 . S
C1247 C1246 1.369 . S
C1247 C1248 1.410 . S
C1247 C1255 1.503 . S
C1248 C1247 1.410 . S
C1248 C1249 1.392 . S
C1248 C1251 1.511 . S
C1249 C1245 1.376 . S
C1249 C1248 1.392 . S
C1249 H1261 0.929 . S
C1250 C1246 1.531 . S
C1250 H1262 0.960 . S
C1250 H1263 0.962 . S
C1250 H1264 0.960 . S
C1251 C1248 1.511 . S
C1251 H1265 0.961 . S
C1251 H1266 0.961 . S
C1251 H1267 0.961 . S
C1252 C1253 1.370 . S
C1252 C1254 1.363 . S
C1252 H1268 0.931 . S
C1253 C1252 1.370 . S
C1253 C1257 1.408 . S
C1254 C1252 1.363 . S
C1254 C1255 1.370 . S
C1254 C1258 1.524 . S
C1255 C1247 1.503 . S
C1255 C1254 1.370 . S
C1255 C1256 1.403 . S
C1256 C1255 1.403 . S
C1256 C1257 1.404 . S
C1256 C1259 1.539 . S
C1257 C1253 1.408 . S
C1257 C1256 1.404 . S
C1257 H1269 0.930 . S
C1258 C1254 1.524 . S
C1258 H1270 0.956 . S
C1258 H1271 0.961 . S
C1258 H1272 0.961 . S
C1259 C1256 1.539 . S
C1259 H1273 0.958 . S
C1259 H1274 0.961 . S
C1259 H1275 0.960 . S
H1260 C1244 0.931 . S
H1261 C1249 0.929 . S
H1262 C1250 0.960 . S
H1263 C1250 0.962 . S
H1264 C1250 0.960 . S
H1265 C1251 0.961 . S
H1266 C1251 0.961 . S
H1267 C1251 0.961 . S
H1268 C1252 0.931 . S
H1269 C1257 0.930 . S
H1270 C1258 0.956 . S
H1271 C1258 0.961 . S
H1272 C1258 0.961 . S
H1273 C1259 0.958 . S
H1274 C1259 0.961 . S
H1275 C1259 0.960 . S
C1276 C1277 1.391 . S
C1276 C1278 1.394 . S
C1276 H1292 0.931 . S
C1277 C1276 1.391 . S
C1277 C1281 1.376 . S
C1278 C1276 1.394 . S
C1278 C1279 1.369 . S
C1278 C1282 1.531 . S
C1279 C1278 1.369 . S
C1279 C1280 1.410 . S
C1279 C1287 1.503 . S
C1280 C1279 1.410 . S
C1280 C1281 1.392 . S
C1280 C1283 1.511 . S
C1281 C1277 1.376 . S
C1281 C1280 1.392 . S
C1281 H1293 0.929 . S
C1282 C1278 1.531 . S
C1282 H1294 0.960 . S
C1282 H1295 0.962 . S
C1282 H1296 0.960 . S
C1283 C1280 1.511 . S
C1283 H1297 0.961 . S
C1283 H1298 0.961 . S
C1283 H1299 0.961 . S
C1284 C1285 1.370 . S
C1284 C1286 1.363 . S
C1284 H1300 0.931 . S
C1285 C1284 1.370 . S
C1285 C1289 1.408 . S
C1286 C1284 1.363 . S
C1286 C1287 1.370 . S
C1286 C1290 1.524 . S
C1287 C1279 1.503 . S
C1287 C1286 1.370 . S
C1287 C1288 1.403 . S
C1288 C1287 1.403 . S
C1288 C1289 1.404 . S
C1288 C1291 1.539 . S
C1289 C1285 1.408 . S
C1289 C1288 1.404 . S
C1289 H1301 0.930 . S
C1290 C1286 1.524 . S
C1290 H1302 0.956 . S
C1290 H1303 0.961 . S
C1290 H1304 0.961 . S
C1291 C1288 1.539 . S
C1291 H1305 0.958 . S
C1291 H1306 0.961 . S
C1291 H1307 0.960 . S
H1292 C1276 0.931 . S
H1293 C1281 0.929 . S
H1294 C1282 0.960 . S
H1295 C1282 0.962 . S
H1296 C1282 0.960 . S
H1297 C1283 0.961 . S
H1298 C1283 0.961 . S
H1299 C1283 0.961 . S
H1300 C1284 0.931 . S
H1301 C1289 0.930 . S
H1302 C1290 0.956 . S
H1303 C1290 0.961 . S
H1304 C1290 0.961 . S
H1305 C1291 0.958 . S
H1306 C1291 0.961 . S
H1307 C1291 0.960 . S
C1308 C1309 1.391 . S
C1308 C1310 1.394 . S
C1308 H1324 0.931 . S
C1309 C1308 1.391 . S
C1309 C1313 1.376 . S
C1310 C1308 1.394 . S
C1310 C1311 1.369 . S
C1310 C1314 1.531 . S
C1311 C1310 1.369 . S
C1311 C1312 1.410 . S
C1311 C1319 1.503 . S
C1312 C1311 1.410 . S
C1312 C1313 1.392 . S
C1312 C1315 1.511 . S
C1313 C1309 1.376 . S
C1313 C1312 1.392 . S
C1313 H1325 0.929 . S
C1314 C1310 1.531 . S
C1314 H1326 0.960 . S
C1314 H1327 0.962 . S
C1314 H1328 0.960 . S
C1315 C1312 1.511 . S
C1315 H1329 0.961 . S
C1315 H1330 0.961 . S
C1315 H1331 0.961 . S
C1316 C1317 1.370 . S
C1316 C1318 1.363 . S
C1316 H1332 0.931 . S
C1317 C1316 1.370 . S
C1317 C1321 1.408 . S
C1318 C1316 1.363 . S
C1318 C1319 1.370 . S
C1318 C1322 1.524 . S
C1319 C1311 1.503 . S
C1319 C1318 1.370 . S
C1319 C1320 1.403 . S
C1320 C1319 1.403 . S
C1320 C1321 1.404 . S
C1320 C1323 1.539 . S
C1321 C1317 1.408 . S
C1321 C1320 1.404 . S
C1321 H1333 0.930 . S
C1322 C1318 1.524 . S
C1322 H1334 0.956 . S
C1322 H1335 0.961 . S
C1322 H1336 0.961 . S
C1323 C1320 1.539 . S
C1323 H1337 0.958 . S
C1323 H1338 0.961 . S
C1323 H1339 0.960 . S
H1324 C1308 0.931 . S
H1325 C1313 0.929 . S
H1326 C1314 0.960 . S
H1327 C1314 0.962 . S
H1328 C1314 0.960 . S
H1329 C1315 0.961 . S
H1330 C1315 0.961 . S
H1331 C1315 0.961 . S
H1332 C1316 0.931 . S
H1333 C1321 0.930 . S
H1334 C1322 0.956 . S
H1335 C1322 0.961 . S
H1336 C1322 0.961 . S
H1337 C1323 0.958 . S
H1338 C1323 0.961 . S
H1339 C1323 0.960 . S
C1340 C1341 1.391 . S
C1340 C1342 1.394 . S
C1340 H1356 0.931 . S
C1341 C1340 1.391 . S
C1341 C1345 1.376 . S
C1342 C1340 1.394 . S
C1342 C1343 1.369 . S
C1342 C1346 1.531 . S
C1343 C1342 1.369 . S
C1343 C1344 1.410 . S
C1343 C1351 1.503 . S
C1344 C1343 1.410 . S
C1344 C1345 1.392 . S
C1344 C1347 1.511 . S
C1345 C1341 1.376 . S
C1345 C1344 1.392 . S
C1345 H1357 0.929 . S
C1346 C1342 1.531 . S
C1346 H1358 0.960 . S
C1346 H1359 0.962 . S
C1346 H1360 0.960 . S
C1347 C1344 1.511 . S
C1347 H1361 0.961 . S
C1347 H1362 0.961 . S
C1347 H1363 0.961 . S
C1348 C1349 1.370 . S
C1348 C1350 1.363 . S
C1348 H1364 0.931 . S
C1349 C1348 1.370 . S
C1349 C1353 1.408 . S
C1350 C1348 1.363 . S
C1350 C1351 1.370 . S
C1350 C1354 1.524 . S
C1351 C1343 1.503 . S
C1351 C1350 1.370 . S
C1351 C1352 1.403 . S
C1352 C1351 1.403 . S
C1352 C1353 1.404 . S
C1352 C1355 1.539 . S
C1353 C1349 1.408 . S
C1353 C1352 1.404 . S
C1353 H1365 0.930 . S
C1354 C1350 1.524 . S
C1354 H1366 0.956 . S
C1354 H1367 0.961 . S
C1354 H1368 0.961 . S
C1355 C1352 1.539 . S
C1355 H1369 0.958 . S
C1355 H1370 0.961 . S
C1355 H1371 0.960 . S
H1356 C1340 0.931 . S
H1357 C1345 0.929 . S
H1358 C1346 0.960 . S
H1359 C1346 0.962 . S
H1360 C1346 0.960 . S
H1361 C1347 0.961 . S
H1362 C1347 0.961 . S
H1363 C1347 0.961 . S
H1364 C1348 0.931 . S
H1365 C1353 0.930 . S
H1366 C1354 0.956 . S
H1367 C1354 0.961 . S
H1368 C1354 0.961 . S
H1369 C1355 0.958 . S
H1370 C1355 0.961 . S
H1371 C1355 0.960 . S
C1372 C1373 1.391 . S
C1372 C1374 1.394 . S
C1372 H1388 0.931 . S
C1373 C1372 1.391 . S
C1373 C1377 1.376 . S
C1374 C1372 1.394 . S
C1374 C1375 1.369 . S
C1374 C1378 1.531 . S
C1375 C1374 1.369 . S
C1375 C1376 1.410 . S
C1375 C1383 1.503 . S
C1376 C1375 1.410 . S
C1376 C1377 1.392 . S
C1376 C1379 1.511 . S
C1377 C1373 1.376 . S
C1377 C1376 1.392 . S
C1377 H1389 0.929 . S
C1378 C1374 1.531 . S
C1378 H1390 0.960 . S
C1378 H1391 0.962 . S
C1378 H1392 0.960 . S
C1379 C1376 1.511 . S
C1379 H1393 0.961 . S
C1379 H1394 0.961 . S
C1379 H1395 0.961 . S
C1380 C1381 1.370 . S
C1380 C1382 1.363 . S
C1380 H1396 0.931 . S
C1381 C1380 1.370 . S
C1381 C1385 1.408 . S
C1382 C1380 1.363 . S
C1382 C1383 1.370 . S
C1382 C1386 1.524 . S
C1383 C1375 1.503 . S
C1383 C1382 1.370 . S
C1383 C1384 1.403 . S
C1384 C1383 1.403 . S
C1384 C1385 1.404 . S
C1384 C1387 1.539 . S
C1385 C1381 1.408 . S
C1385 C1384 1.404 . S
C1385 H1397 0.930 . S
C1386 C1382 1.524 . S
C1386 H1398 0.956 . S
C1386 H1399 0.961 . S
C1386 H1400 0.961 . S
C1387 C1384 1.539 . S
C1387 H1401 0.958 . S
C1387 H1402 0.961 . S
C1387 H1403 0.960 . S
H1388 C1372 0.931 . S
H1389 C1377 0.929 . S
H1390 C1378 0.960 . S
H1391 C1378 0.962 . S
H1392 C1378 0.960 . S
H1393 C1379 0.961 . S
H1394 C1379 0.961 . S
H1395 C1379 0.961 . S
H1396 C1380 0.931 . S
H1397 C1385 0.930 . S
H1398 C1386 0.956 . S
H1399 C1386 0.961 . S
H1400 C1386 0.961 . S
H1401 C1387 0.958 . S
H1402 C1387 0.961 . S
H1403 C1387 0.960 . S
C637 C22 1.626 . S
C645 C340 1.638 . S
C669 C75 1.640 . S
C677 C393 1.635 . S
C701 C128 1.630 . S
C709 C446 1.632 . S
C733 C181 1.637 . S
C741 C499 1.638 . S
C765 C234 1.638 . S
C773 C552 1.633 . S
C797 C605 1.635 . S
C805 C287 1.633 . S
C829 C38 1.862 . S
C837 C568 1.860 . S
C861 C91 1.854 . S
C869 C621 1.858 . S
C893 C144 1.871 . S
C901 C356 1.864 . S
C925 C197 1.866 . S
C933 C409 1.861 . S
C957 C250 1.865 . S
C965 C462 1.870 . S
C989 C303 1.873 . S
C997 C515 1.867 . S
C1021 C39 1.937 . S
C1029 C198 1.939 . S
C1053 C92 1.939 . S
C1061 C251 1.938 . S
C1085 C304 1.918 . S
C1093 C145 1.939 . S
C1117 C357 1.935 . S
C1125 C516 1.939 . S
C1149 C569 1.912 . S
C1157 C410 1.925 . S
C1181 C463 1.944 . S
C1189 C622 1.936 . S
C1213 C347 1.299 . S
C1221 C29 1.308 . S
C1245 C82 1.318 . S
C1253 C400 1.313 . S
C1277 C135 1.303 . S
C1285 C453 1.317 . S
C1309 C506 1.322 . S
C1317 C188 1.309 . S
C1341 C559 1.292 . S
C1349 C241 1.316 . S
C1373 C294 1.300 . S
C1381 C612 1.308 . S
