# Generated by pormake.
# Topology unn, (4)-cn, num edge types: 1
# Building blocks:
#     Node 0, Type 0, BuildingBlock: KOZSID_clean_sbu_0, # of connection points: 4
#     Node 1, Type 0, BuildingBlock: KOZSID_clean_sbu_0, # of connection points: 4
#     Node 2, Type 0, BuildingBlock: KOZSID_clean_sbu_0, # of connection points: 4
#     Node 3, Type 0, BuildingBlock: KOZSID_clean_sbu_0, # of connection points: 4
#     Node 4, Type 0, BuildingBlock: KOZSID_clean_sbu_0, # of connection points: 4
#     Node 5, Type 0, BuildingBlock: KOZSID_clean_sbu_0, # of connection points: 4
#     Node 6, Type 0, BuildingBlock: KOZSID_clean_sbu_0, # of connection points: 4
#     Node 7, Type 0, BuildingBlock: KOZSID_clean_sbu_0, # of connection points: 4
#     Node 8, Type 0, BuildingBlock: KOZSID_clean_sbu_0, # of connection points: 4
#     Node 9, Type 0, BuildingBlock: KOZSID_clean_sbu_0, # of connection points: 4
#     Node 10, Type 0, BuildingBlock: KOZSID_clean_sbu_0, # of connection points: 4
#     Node 11, Type 0, BuildingBlock: KOZSID_clean_sbu_0, # of connection points: 4
#     Node 12, Type 0, BuildingBlock: KOZSID_clean_sbu_0, # of connection points: 4
#     Node 13, Type 0, BuildingBlock: KOZSID_clean_sbu_0, # of connection points: 4
#     Node 14, Type 0, BuildingBlock: KOZSID_clean_sbu_0, # of connection points: 4
#     Node 15, Type 0, BuildingBlock: KOZSID_clean_sbu_0, # of connection points: 4
#     Node 16, Type 0, BuildingBlock: KOZSID_clean_sbu_0, # of connection points: 4
#     Node 17, Type 0, BuildingBlock: KOZSID_clean_sbu_0, # of connection points: 4
#     Edge 18, Type (0, 0), BuildingBlock: CIFDUS_clean_linker_0, # of connection points: 2
#     Edge 19, Type (0, 0), BuildingBlock: CIFDUS_clean_linker_0, # of connection points: 2
#     Edge 20, Type (0, 0), BuildingBlock: CIFDUS_clean_linker_0, # of connection points: 2
#     Edge 21, Type (0, 0), BuildingBlock: CIFDUS_clean_linker_0, # of connection points: 2
#     Edge 22, Type (0, 0), BuildingBlock: CIFDUS_clean_linker_0, # of connection points: 2
#     Edge 23, Type (0, 0), BuildingBlock: CIFDUS_clean_linker_0, # of connection points: 2
#     Edge 24, Type (0, 0), BuildingBlock: CIFDUS_clean_linker_0, # of connection points: 2
#     Edge 25, Type (0, 0), BuildingBlock: CIFDUS_clean_linker_0, # of connection points: 2
#     Edge 26, Type (0, 0), BuildingBlock: CIFDUS_clean_linker_0, # of connection points: 2
#     Edge 27, Type (0, 0), BuildingBlock: CIFDUS_clean_linker_0, # of connection points: 2
#     Edge 28, Type (0, 0), BuildingBlock: CIFDUS_clean_linker_0, # of connection points: 2
#     Edge 29, Type (0, 0), BuildingBlock: CIFDUS_clean_linker_0, # of connection points: 2
#     Edge 30, Type (0, 0), BuildingBlock: CIFDUS_clean_linker_0, # of connection points: 2
#     Edge 31, Type (0, 0), BuildingBlock: CIFDUS_clean_linker_0, # of connection points: 2
#     Edge 32, Type (0, 0), BuildingBlock: CIFDUS_clean_linker_0, # of connection points: 2
#     Edge 33, Type (0, 0), BuildingBlock: CIFDUS_clean_linker_0, # of connection points: 2
#     Edge 34, Type (0, 0), BuildingBlock: CIFDUS_clean_linker_0, # of connection points: 2
#     Edge 35, Type (0, 0), BuildingBlock: CIFDUS_clean_linker_0, # of connection points: 2
#     Edge 36, Type (0, 0), BuildingBlock: CIFDUS_clean_linker_0, # of connection points: 2
#     Edge 37, Type (0, 0), BuildingBlock: CIFDUS_clean_linker_0, # of connection points: 2
#     Edge 38, Type (0, 0), BuildingBlock: CIFDUS_clean_linker_0, # of connection points: 2
#     Edge 39, Type (0, 0), BuildingBlock: CIFDUS_clean_linker_0, # of connection points: 2
#     Edge 40, Type (0, 0), BuildingBlock: CIFDUS_clean_linker_0, # of connection points: 2
#     Edge 41, Type (0, 0), BuildingBlock: CIFDUS_clean_linker_0, # of connection points: 2
#     Edge 42, Type (0, 0), BuildingBlock: CIFDUS_clean_linker_0, # of connection points: 2
#     Edge 43, Type (0, 0), BuildingBlock: CIFDUS_clean_linker_0, # of connection points: 2
#     Edge 44, Type (0, 0), BuildingBlock: CIFDUS_clean_linker_0, # of connection points: 2
#     Edge 45, Type (0, 0), BuildingBlock: CIFDUS_clean_linker_0, # of connection points: 2
#     Edge 46, Type (0, 0), BuildingBlock: CIFDUS_clean_linker_0, # of connection points: 2
#     Edge 47, Type (0, 0), BuildingBlock: CIFDUS_clean_linker_0, # of connection points: 2
#     Edge 48, Type (0, 0), BuildingBlock: CIFDUS_clean_linker_0, # of connection points: 2
#     Edge 49, Type (0, 0), BuildingBlock: CIFDUS_clean_linker_0, # of connection points: 2
#     Edge 50, Type (0, 0), BuildingBlock: CIFDUS_clean_linker_0, # of connection points: 2
#     Edge 51, Type (0, 0), BuildingBlock: CIFDUS_clean_linker_0, # of connection points: 2
#     Edge 52, Type (0, 0), BuildingBlock: CIFDUS_clean_linker_0, # of connection points: 2
#     Edge 53, Type (0, 0), BuildingBlock: CIFDUS_clean_linker_0, # of connection points: 2
# Relax obj value: 0.042
# Max RMSD: 0.230
# Mean RMSD: 0.203
data_MOF--net-unn--node1-KOZSID_clean_sbu_0--edge1-CIFDUS_clean_linker_0
_symmetry_space_group_name_H-M    P1
_symmetry_Int_Tables_number       1
_symmetry_cell_setting            triclinic
loop_
_symmetry_equiv_pos_as_xyz
'x, y, z'
_cell_length_a     49.251121
_cell_length_b     49.269868
_cell_length_c     45.268466
_cell_angle_alpha  90.081493
_cell_angle_beta   89.874713
_cell_angle_gamma 120.0649
loop_
_atom_site_label
_atom_site_type_symbol
_atom_site_fract_x
_atom_site_fract_y
_atom_site_fract_z
_atom_type_partial_charge
C0 C 0.99788 0.7187 0.33964 0.0
C1 C 1.00219 0.74566 0.35361 0.0
C2 C 0.01571 0.76946 0.33338 0.0
C3 C 0.01912 0.75597 0.30817 0.0
N4 N 0.00792 0.72489 0.31078 0.0
Co5 Co 0.01419 0.69894 0.28011 0.0
N6 N 0.02931 0.73227 0.24869 0.0
C7 C 0.03728 0.76228 0.25373 0.0
C8 C 0.04796 0.78072 0.22895 0.0
C9 C 0.04668 0.7612 0.20671 0.0
C10 C 0.03499 0.7316 0.21898 0.0
N11 N 0.02145 0.67313 0.24999 0.0
C12 C 0.02536 0.67618 0.21995 0.0
C13 C 0.02282 0.64911 0.20768 0.0
C14 C 0.01951 0.62963 0.23039 0.0
C15 C 0.01884 0.64495 0.25533 0.0
N16 N 0.99759 0.66455 0.31073 0.0
C17 C 0.99687 0.637 0.30786 0.0
C18 C 0.98343 0.61708 0.3313 0.0
C19 C 0.97573 0.63321 0.35088 0.0
C20 C 0.98541 0.6624 0.33843 0.0
N21 N 0.97095 0.68283 0.26476 0.0
C22 C 0.91409 0.66424 0.2341 0.0
C23 C 0.92497 0.64314 0.2391 0.0
C24 C 0.95302 0.6527 0.25473 0.0
C25 C 0.93152 0.69429 0.24628 0.0
C26 C 0.95971 0.7031 0.26124 0.0
N27 N 0.05802 0.71704 0.29564 0.0
C28 C 0.09085 0.73527 0.3393 0.0
C29 C 0.11539 0.76011 0.32379 0.0
C30 C 0.11196 0.76011 0.29292 0.0
C31 C 0.08352 0.738 0.2793 0.0
C32 C 0.0628 0.71437 0.32508 0.0
H33 H 0.08188 0.7393 0.25569 0.0
H34 H 0.0447 0.69737 0.33892 0.0
H35 H 0.96051 0.63582 0.25777 0.0
H36 H 0.97293 0.72689 0.26886 0.0
C37 C 0.03265 0.77159 0.28164 0.0
C38 C 0.98709 0.68865 0.35561 0.0
C39 C 0.0323 0.70431 0.20217 0.0
C40 C 0.00788 0.63013 0.28237 0.0
H41 H 0.99728 0.74824 0.37641 0.0
H42 H 0.02294 0.79389 0.3369 0.0
H43 H 0.05567 0.80545 0.2272 0.0
H44 H 0.05426 0.76827 0.18419 0.0
H45 H 0.02217 0.64313 0.18462 0.0
H46 H 0.01526 0.60589 0.22868 0.0
H47 H 0.97986 0.59368 0.33394 0.0
H48 H 0.96536 0.62484 0.37243 0.0
H49 H 0.91209 0.61943 0.2306 0.0
H50 H 0.92427 0.71152 0.24304 0.0
H51 H 0.09263 0.73241 0.36279 0.0
H52 H 0.13039 0.77791 0.27937 0.0
C53 C 0.28769 0.30645 0.22004 0.0
C54 C 0.25861 0.28643 0.20778 0.0
C55 C 0.23928 0.26919 0.23068 0.0
C56 C 0.25755 0.27953 0.25565 0.0
N57 N 0.28716 0.30214 0.25001 0.0
Co58 Co 0.32124 0.32238 0.28037 0.0
N59 N 0.2973 0.29004 0.31144 0.0
C60 C 0.2663 0.26924 0.30981 0.0
C61 C 0.25429 0.25225 0.33524 0.0
C62 C 0.27899 0.26338 0.3545 0.0
C63 C 0.30505 0.28662 0.33978 0.0
N64 N 0.3563 0.34255 0.30995 0.0
C65 C 0.3603 0.33301 0.3372 0.0
C66 C 0.38933 0.35437 0.34893 0.0
C67 C 0.40318 0.37879 0.32948 0.0
C68 C 0.38228 0.37086 0.30669 0.0
N69 N 0.34485 0.35532 0.24976 0.0
C70 C 0.37078 0.3832 0.25477 0.0
C71 C 0.38239 0.4013 0.22985 0.0
C72 C 0.36274 0.38373 0.20752 0.0
C73 C 0.34022 0.35573 0.22007 0.0
N74 N 0.30173 0.34655 0.29613 0.0
C75 C 0.25913 0.36177 0.32364 0.0
C76 C 0.28315 0.36106 0.33958 0.0
C77 C 0.30371 0.35329 0.3257 0.0
C78 C 0.2595 0.35842 0.29277 0.0
C79 C 0.28134 0.35149 0.27946 0.0
N80 N 0.339 0.29696 0.26488 0.0
C81 C 0.38152 0.2918 0.24406 0.0
C82 C 0.36115 0.25983 0.23802 0.0
C83 C 0.32973 0.24688 0.24639 0.0
C84 C 0.31932 0.26557 0.25999 0.0
C85 C 0.36996 0.30997 0.25723 0.0
H86 H 0.295 0.25444 0.26606 0.0
H87 H 0.38601 0.33458 0.2608 0.0
H88 H 0.31987 0.35109 0.3398 0.0
H89 H 0.28035 0.34843 0.25582 0.0
C90 C 0.24937 0.26601 0.28383 0.0
C91 C 0.3147 0.3305 0.2029 0.0
C92 C 0.3356 0.30694 0.35471 0.0
C93 C 0.38682 0.38882 0.28143 0.0
H94 H 0.25206 0.2846 0.18476 0.0
H95 H 0.21506 0.25062 0.22911 0.0
H96 H 0.23024 0.23433 0.33953 0.0
H97 H 0.27749 0.25602 0.37722 0.0
H98 H 0.39903 0.35315 0.36997 0.0
H99 H 0.42576 0.39993 0.33179 0.0
H100 H 0.40361 0.42386 0.22784 0.0
H101 H 0.36501 0.39052 0.18452 0.0
H102 H 0.28554 0.36533 0.36316 0.0
H103 H 0.24219 0.35961 0.279 0.0
H104 H 0.40608 0.30288 0.23804 0.0
H105 H 0.3132 0.22225 0.24272 0.0
C106 C 0.7284 0.99775 0.21954 0.0
C107 C 0.7526 0.99423 0.20822 0.0
C108 C 0.77049 0.99514 0.23192 0.0
C109 C 0.7563 0.99913 0.25644 0.0
N110 N 0.73061 1.00075 0.24972 0.0
Co111 Co 0.70451 0.00828 0.27891 0.0
N112 N 0.73617 0.02144 0.3116 0.0
C113 C 0.76135 0.01747 0.31083 0.0
C114 C 0.78 0.02925 0.33534 0.0
C115 C 0.76525 0.04042 0.35317 0.0
C116 C 0.73775 0.03425 0.33899 0.0
N117 N 0.67791 0.01608 0.30758 0.0
C118 C 0.68312 0.02722 0.33605 0.0
C119 C 0.65523 0.02248 0.34869 0.0
C120 C 0.6324 0.00883 0.32787 0.0
C121 C 0.64695 0.00515 0.30377 0.0
N122 N 0.67227 0.99407 0.24677 0.0
C123 C 0.64192 0.98532 0.25068 0.0
C124 C 0.62481 0.97659 0.22503 0.0
C125 C 0.6457 0.98007 0.20335 0.0
C126 C 0.67444 0.99077 0.2171 0.0
N127 N 0.68578 0.96442 0.29349 0.0
C128 C 0.66899 0.90416 0.31584 0.0
C129 C 0.67399 0.9288 0.33468 0.0
C130 C 0.68215 0.95831 0.32322 0.0
C131 C 0.6712 0.91013 0.28524 0.0
C132 C 0.67953 0.94023 0.27458 0.0
N133 N 0.72488 0.05215 0.2639 0.0
C134 C 0.72474 0.09097 0.23104 0.0
C135 C 0.75778 0.10839 0.23075 0.0
C136 C 0.77361 0.0979 0.24878 0.0
C137 C 0.75701 0.06999 0.26472 0.0
C138 C 0.70877 0.06334 0.24821 0.0
H139 H 0.77089 0.06228 0.27616 0.0
H140 H 0.68347 0.05039 0.24763 0.0
H141 H 0.68644 0.9763 0.3389 0.0
H142 H 0.68183 0.94412 0.25103 0.0
C143 C 0.7688 0.00653 0.28508 0.0
C144 C 0.70282 0.99645 0.20124 0.0
C145 C 0.71245 0.03793 0.35347 0.0
C146 C 0.63185 0.99065 0.27758 0.0
H147 H 0.75682 0.99137 0.18527 0.0
H148 H 0.79201 0.99428 0.23117 0.0
H149 H 0.80218 0.03036 0.33946 0.0
H150 H 0.77386 0.05164 0.37432 0.0
H151 H 0.65071 0.0262 0.37123 0.0
H152 H 0.60773 1.00116 0.33047 0.0
H153 H 0.6004 0.96984 0.22222 0.0
H154 H 0.64043 0.97541 0.18007 0.0
H155 H 0.67171 0.92547 0.35839 0.0
H156 H 0.66745 0.89197 0.26956 0.0
H157 H 0.71132 0.09833 0.21776 0.0
H158 H 0.79902 0.11018 0.24924 0.0
C159 C 0.95518 0.204 0.75148 0.0
C160 C 0.94057 0.17168 0.74764 0.0
C161 C 0.96194 0.16301 0.75511 0.0
C162 C 0.98826 0.19029 0.76311 0.0
N163 N 0.98498 0.21581 0.76167 0.0
Co164 Co 0.01806 0.25978 0.77175 0.0
N165 N 0.04576 0.24546 0.7899 0.0
C166 C 0.0418 0.21639 0.78782 0.0
C167 C 0.06283 0.21225 0.8041 0.0
C168 C 0.08156 0.2405 0.81724 0.0
C169 C 0.07132 0.26068 0.80768 0.0
N170 N 0.05109 0.30347 0.78254 0.0
C171 C 0.07673 0.31408 0.80044 0.0
C172 C 0.0939 0.3466 0.80051 0.0
C173 C 0.0787 0.35666 0.78203 0.0
C174 C 0.05317 0.32986 0.77161 0.0
N175 N 0.9905 0.27391 0.75293 0.0
C176 C 0.99977 0.30373 0.74524 0.0
C177 C 0.97711 0.3067 0.73043 0.0
C178 C 0.95211 0.27683 0.7281 0.0
C179 C 0.96093 0.25717 0.74158 0.0
N180 N 0.99759 0.2564 0.8102 0.0
C181 C 0.97001 0.2551 0.86548 0.0
C182 C 0.97982 0.28045 0.84609 0.0
C183 C 0.99319 0.28054 0.81888 0.0
C184 C 0.97422 0.23009 0.85625 0.0
C185 C 0.98803 0.2312 0.82861 0.0
N186 N 0.03848 0.26486 0.7328 0.0
C187 C 0.0311 0.2692 0.68078 0.0
C188 C 0.06159 0.29488 0.6782 0.0
C189 C 0.08182 0.30156 0.70236 0.0
C190 C 0.06989 0.28572 0.72932 0.0
C191 C 0.02015 0.2544 0.70804 0.0
H192 H 0.0855 0.29271 0.74802 0.0
H193 H 0.99582 0.23677 0.70941 0.0
H194 H 1.00037 0.30068 0.80506 0.0
H195 H 0.9911 0.21181 0.82226 0.0
C196 C 0.01525 0.19224 0.77464 0.0
C197 C 0.94157 0.22267 0.74065 0.0
C198 C 0.08749 0.29431 0.81493 0.0
C199 C 0.02917 0.32838 0.7539 0.0
H200 H 0.91727 0.15602 0.73927 0.0
H201 H 0.95861 0.13956 0.7549 0.0
H202 H 0.06348 0.19081 0.80725 0.0
H203 H 0.10038 0.24534 0.83241 0.0
H204 H 0.11558 0.36149 0.81212 0.0
H205 H 0.08533 0.38068 0.77704 0.0
H206 H 0.97858 0.32804 0.72227 0.0
H207 H 0.93017 0.27013 0.71704 0.0
H208 H 0.97804 0.30078 0.85208 0.0
H209 H 0.96687 0.20972 0.87016 0.0
H210 H 0.01493 0.26201 0.66236 0.0
H211 H 0.10591 0.32051 0.70128 0.0
C212 C 0.8188 0.76504 0.74564 0.0
C213 C 0.85067 0.78358 0.73967 0.0
C214 C 0.861 0.81078 0.75517 0.0
C215 C 0.83506 0.80735 0.76975 0.0
N216 N 0.80889 0.77977 0.76445 0.0
Co217 Co 0.76689 0.76543 0.78251 0.0
N218 N 0.77875 0.80904 0.79465 0.0
C219 C 0.80833 0.8335 0.79579 0.0
C220 C 0.81046 0.86039 0.80669 0.0
C221 C 0.78041 0.85253 0.81337 0.0
C222 C 0.76132 0.82104 0.80598 0.0
N223 N 0.72517 0.75129 0.80124 0.0
C224 C 0.71201 0.768 0.81192 0.0
C225 C 0.68239 0.74798 0.8234 0.0
C226 C 0.67745 0.71809 0.82096 0.0
C227 C 0.70402 0.72128 0.80783 0.0
N228 N 0.75555 0.72214 0.76996 0.0
C229 C 0.73113 0.69549 0.78034 0.0
C230 C 0.72906 0.66908 0.76786 0.0
C231 C 0.7539 0.67978 0.74856 0.0
C232 C 0.76986 0.71223 0.75037 0.0
N233 N 0.78177 0.75842 0.82074 0.0
C234 C 0.78503 0.73237 0.87509 0.0
C235 C 0.79609 0.72587 0.84897 0.0
C236 C 0.79489 0.73963 0.82221 0.0
C237 C 0.77511 0.75449 0.87373 0.0
C238 C 0.77369 0.76719 0.84651 0.0
N239 N 0.75053 0.77063 0.74447 0.0
C240 C 0.70939 0.74744 0.70796 0.0
C241 C 0.7264 0.77207 0.68819 0.0
C242 C 0.75588 0.79655 0.69767 0.0
C243 C 0.76746 0.79543 0.72591 0.0
C244 C 0.72164 0.74724 0.73559 0.0
H245 H 0.79026 0.81422 0.73252 0.0
H246 H 0.70779 0.72727 0.74935 0.0
H247 H 0.80273 0.73339 0.80243 0.0
H248 H 0.76393 0.78241 0.84632 0.0
C249 C 0.83341 0.83102 0.78487 0.0
C250 C 0.79958 0.73284 0.73477 0.0
C251 C 0.72788 0.80265 0.81426 0.0
C252 C 0.70849 0.69663 0.79834 0.0
H253 H 0.86513 0.77796 0.72582 0.0
H254 H 0.88442 0.83101 0.7551 0.0
H255 H 0.83142 0.88298 0.80969 0.0
H256 H 0.77389 0.86815 0.82386 0.0
H257 H 0.66623 0.75431 0.83311 0.0
H258 H 0.65669 0.69657 0.82754 0.0
H259 H 0.7111 0.64494 0.77162 0.0
H260 H 0.75972 0.66537 0.73489 0.0
H261 H 0.8048 0.70958 0.84905 0.0
H262 H 0.76655 0.76052 0.89329 0.0
H263 H 0.68701 0.72749 0.70184 0.0
H264 H 0.77001 0.81631 0.68339 0.0
C265 C 0.19648 0.9469 0.79515 0.0
C266 C 0.16399 0.93217 0.79746 0.0
C267 C 0.15559 0.95336 0.78863 0.0
C268 C 0.1832 0.97972 0.78142 0.0
N269 N 0.20873 0.97665 0.78461 0.0
Co270 Co 0.25317 0.00992 0.7761 0.0
N271 N 0.23966 0.03781 0.75683 0.0
C272 C 0.21039 0.03354 0.75719 0.0
C273 C 0.20703 0.05481 0.74051 0.0
C274 C 0.23602 0.07408 0.72895 0.0
C275 C 0.25578 0.06387 0.73979 0.0
N276 N 0.29737 0.04312 0.76687 0.0
C277 C 0.30884 0.06926 0.7495 0.0
C278 C 0.34135 0.0864 0.75075 0.0
C279 C 0.35052 0.07071 0.76956 0.0
C280 C 0.32324 0.04495 0.77884 0.0
N281 N 0.26643 0.98217 0.79607 0.0
C282 C 0.29594 0.99132 0.80481 0.0
C283 C 0.29829 0.96865 0.82027 0.0
C284 C 0.2683 0.94376 0.82199 0.0
C285 C 0.2492 0.95267 0.80752 0.0
N286 N 0.25158 0.98988 0.73779 0.0
C287 C 0.25284 0.96256 0.68311 0.0
C288 C 0.27712 0.97201 0.70367 0.0
C289 C 0.27598 0.98532 0.73053 0.0
C290 C 0.22769 0.96722 0.69068 0.0
C291 C 0.22747 0.98082 0.7181 0.0
N292 N 0.25648 0.02994 0.81495 0.0
C293 C 0.25941 0.02188 0.86706 0.0
C294 C 0.28519 0.05223 0.87011 0.0
C295 C 0.29252 0.07279 0.84612 0.0
C296 C 0.2773 0.06128 0.81885 0.0
C297 C 0.24516 0.01138 0.83952 0.0
H298 H 0.28482 0.07712 0.80031 0.0
H299 H 0.22732 0.98718 0.83783 0.0
H300 H 0.29538 0.99223 0.74526 0.0
H301 H 0.20791 0.98406 0.72326 0.0
C302 C 0.18564 0.0067 0.76936 0.0
C303 C 0.21465 0.93348 0.80771 0.0
C304 C 0.28982 0.08055 0.73439 0.0
C305 C 0.32096 0.02073 0.79674 0.0
H306 H 0.14796 0.90891 0.80572 0.0
H307 H 0.13212 0.94992 0.78755 0.0
H308 H 0.1857 0.05534 0.73613 0.0
H309 H 0.24166 0.09327 0.71396 0.0
H310 H 0.35679 0.10841 0.73987 0.0
H311 H 0.37429 0.07726 0.7756 0.0
H312 H 0.31928 0.97007 0.82935 0.0
H313 H 0.26112 0.92187 0.83335 0.0
H314 H 0.29752 0.96988 0.69892 0.0
H315 H 0.2082 0.96024 0.67569 0.0
H316 H 0.25168 0.0055 0.88535 0.0
H317 H 0.31154 0.09682 0.84756 0.0
C318 C 0.6637 0.05627 0.67205 0.0
C319 C 0.66184 0.08115 0.68433 0.0
C320 C 0.6739 0.10489 0.66403 0.0
C321 C 0.6816 0.09313 0.64003 0.0
N322 N 0.67422 0.063 0.64337 0.0
Co323 Co 0.68099 0.03788 0.61231 0.0
N324 N 0.69453 0.07126 0.58086 0.0
C325 C 0.70085 0.1008 0.58596 0.0
C326 C 0.71124 0.11957 0.56139 0.0
C327 C 0.71157 0.10083 0.53917 0.0
C328 C 0.70091 0.07129 0.55121 0.0
N329 N 0.68817 0.01269 0.58141 0.0
C330 C 0.69132 0.01595 0.55135 0.0
C331 C 0.68787 0.98877 0.53841 0.0
C332 C 0.68502 0.96905 0.56069 0.0
C333 C 0.68544 0.9844 0.586 0.0
N334 N 0.66608 1.00352 0.64318 0.0
C335 C 0.66724 0.97691 0.63975 0.0
C336 C 0.6602 0.95901 0.66458 0.0
C337 C 0.65472 0.97527 0.68569 0.0
C338 C 0.6578 1.00222 0.67245 0.0
N339 N 0.63708 0.02046 0.59797 0.0
C340 C 0.57753 0.99874 0.57117 0.0
C341 C 0.58848 0.97805 0.57814 0.0
C342 C 0.61816 0.98932 0.59137 0.0
C343 C 0.59672 0.03025 0.5789 0.0
C344 C 0.62585 0.04042 0.59238 0.0
N345 N 0.72562 0.05723 0.627 0.0
C346 C 0.75935 0.07039 0.67003 0.0
C347 C 0.78188 0.09903 0.65772 0.0
C348 C 0.77758 0.10398 0.62795 0.0
C349 C 0.74992 0.0825 0.61289 0.0
C350 C 0.73196 0.0501 0.65454 0.0
H351 H 0.74829 0.08753 0.59011 0.0
H352 H 0.71609 0.02921 0.66602 0.0
H353 H 0.6258 0.97276 0.59571 0.0
H354 H 0.63935 0.06481 0.59767 0.0
C355 C 0.69466 0.10924 0.61362 0.0
C356 C 0.65771 0.02803 0.68947 0.0
C357 C 0.69907 0.04458 0.53412 0.0
C358 C 0.67671 0.9701 0.61335 0.0
H359 H 0.6534 0.08244 0.70607 0.0
H360 H 0.67672 0.12802 0.66651 0.0
H361 H 0.71767 0.14399 0.55974 0.0
H362 H 0.71936 0.10841 0.5168 0.0
H363 H 0.68673 0.98314 0.5152 0.0
H364 H 0.68077 0.94534 0.55857 0.0
H365 H 0.66083 0.93752 0.66747 0.0
H366 H 0.65158 0.96856 0.70859 0.0
H367 H 0.57456 0.95337 0.57278 0.0
H368 H 0.58921 0.04714 0.57476 0.0
H369 H 0.7623 0.06373 0.69205 0.0
H370 H 0.79472 0.1249 0.61651 0.0
C371 C 0.95173 0.63841 0.55225 0.0
C372 C 0.92282 0.61811 0.53984 0.0
C373 C 0.90347 0.60063 0.56264 0.0
C374 C 0.92156 0.61109 0.58771 0.0
N375 N 0.95107 0.63402 0.58223 0.0
Co376 Co 0.98494 0.65444 0.61275 0.0
N377 N 0.96114 0.62191 0.64371 0.0
C378 C 0.93021 0.60086 0.64195 0.0
C379 C 0.91821 0.58381 0.66735 0.0
C380 C 0.94282 0.59517 0.68674 0.0
C381 C 0.96882 0.6186 0.67212 0.0
N382 N 0.01988 0.67479 0.64246 0.0
C383 C 0.02388 0.66532 0.66973 0.0
C384 C 0.05281 0.68683 0.68156 0.0
C385 C 0.06658 0.71127 0.66213 0.0
C386 C 0.04573 0.70321 0.63928 0.0
N387 N 0.0084 0.68762 0.58229 0.0
C388 C 0.03412 0.71563 0.58745 0.0
C389 C 0.04565 0.73391 0.56263 0.0
C390 C 0.0262 0.71632 0.54021 0.0
C391 C 1.00388 0.68812 0.5526 0.0
N392 N 0.96488 0.67811 0.62858 0.0
C393 C 0.92119 0.69166 0.65632 0.0
C394 C 0.94553 0.69154 0.6722 0.0
C395 C 0.96671 0.6847 0.65819 0.0
C396 C 0.92175 0.68869 0.62541 0.0
C397 C 0.9441 0.68254 0.612 0.0
N398 N 1.00315 0.62939 0.59721 0.0
C399 C 0.04581 0.62477 0.57593 0.0
C400 C 0.02576 0.59262 0.57024 0.0
C401 C 0.99441 0.57938 0.579 0.0
C402 C 0.98378 0.5979 0.59258 0.0
C403 C 0.03404 0.64272 0.5892 0.0
H404 H 0.9595 0.58652 0.59886 0.0
H405 H 0.04986 0.66742 0.59256 0.0
H406 H 0.98319 0.68298 0.67223 0.0
H407 H 0.94319 0.67962 0.58834 0.0
C408 C 0.91336 0.59747 0.61587 0.0
C409 C 0.9787 0.66275 0.53526 0.0
C410 C 0.99923 0.63919 0.68719 0.0
C411 C 0.05015 0.72125 0.6141 0.0
H412 H 0.91639 0.61626 0.51678 0.0
H413 H 0.87937 0.58182 0.56094 0.0
H414 H 0.89422 0.5657 0.67154 0.0
H415 H 0.9413 0.58783 0.70947 0.0
H416 H 0.06247 0.68569 0.70266 0.0
H417 H 0.08903 0.73253 0.66453 0.0
H418 H 0.06673 0.7566 0.56074 0.0
H419 H 0.02849 0.72322 0.51724 0.0
H420 H 0.94767 0.69551 0.69583 0.0
H421 H 0.90418 0.68951 0.61174 0.0
H422 H 0.07031 0.63615 0.5696 0.0
H423 H 0.9781 0.55463 0.57568 0.0
C424 C 0.40292 0.36508 0.67228 0.0
C425 C 0.43244 0.37678 0.68474 0.0
C426 C 0.45231 0.37876 0.66251 0.0
C427 C 0.43416 0.36851 0.63754 0.0
N428 N 0.40398 0.36004 0.64248 0.0
Co429 Co 0.37118 0.34601 0.61068 0.0
N430 N 0.39776 0.34094 0.57976 0.0
C431 C 0.42874 0.3518 0.58269 0.0
C432 C 0.44251 0.34871 0.55747 0.0
C433 C 0.41898 0.33578 0.53692 0.0
C434 C 0.39201 0.33164 0.55068 0.0
N435 N 0.33764 0.33114 0.57935 0.0
C436 C 0.33616 0.32033 0.55116 0.0
C437 C 0.30786 0.31267 0.53782 0.0
C438 C 0.29137 0.31964 0.55764 0.0
C439 C 0.31033 0.33099 0.58197 0.0
N440 N 0.3446 0.35171 0.64109 0.0
C441 C 0.31645 0.34915 0.63573 0.0
C442 C 0.30056 0.34861 0.66074 0.0
C443 C 0.31974 0.35123 0.68349 0.0
C444 C 0.34716 0.35457 0.67119 0.0
N445 N 0.38941 0.39039 0.59732 0.0
C446 C 0.43172 0.45156 0.57569 0.0
C447 C 0.41224 0.42703 0.55662 0.0
C448 C 0.39138 0.39711 0.56778 0.0
C449 C 0.42699 0.44533 0.60622 0.0
C450 C 0.40549 0.4149 0.61649 0.0
N451 N 0.35477 0.30212 0.6243 0.0
C452 C 0.31427 0.25499 0.64794 0.0
C453 C 0.33537 0.24418 0.65331 0.0
C454 C 0.3659 0.26226 0.64223 0.0
C455 C 0.37508 0.29098 0.62808 0.0
C456 C 0.32424 0.28359 0.63313 0.0
H457 H 0.39917 0.30466 0.62135 0.0
H458 H 0.30736 0.29103 0.6298 0.0
H459 H 0.37814 0.37924 0.55201 0.0
H460 H 0.40321 0.41104 0.64001 0.0
C461 C 0.44394 0.36464 0.60954 0.0
C462 C 0.37535 0.36189 0.68899 0.0
C463 C 0.36246 0.32182 0.53426 0.0
C464 C 0.30257 0.34023 0.60809 0.0
H465 H 0.43925 0.38395 0.70737 0.0
H466 H 0.47709 0.3867 0.66438 0.0
H467 H 0.46693 0.35568 0.5542 0.0
H468 H 0.42155 0.33099 0.51405 0.0
H469 H 0.3005 0.30421 0.51553 0.0
H470 H 0.26838 0.31703 0.55458 0.0
H471 H 0.27681 0.34438 0.66234 0.0
H472 H 0.31355 0.34996 0.70656 0.0
H473 H 0.4134 0.43057 0.53295 0.0
H474 H 0.44071 0.46337 0.62223 0.0
H475 H 0.29022 0.24163 0.65556 0.0
H476 H 0.38315 0.2551 0.64578 0.0
C477 C 0.73662 0.58615 0.14351 0.0
C478 C 0.74691 0.56639 0.15415 0.0
C479 C 0.72845 0.53776 0.14155 0.0
C480 C 0.70754 0.54131 0.12449 0.0
N481 N 0.71128 0.57034 0.12559 0.0
Co482 Co 0.68364 0.58396 0.10608 0.0
N483 N 0.651 0.53971 0.09644 0.0
C484 C 0.65447 0.51436 0.09885 0.0
C485 C 0.62838 0.48681 0.09097 0.0
C486 C 0.60697 0.49511 0.08257 0.0
C487 C 0.62134 0.52747 0.08575 0.0
N488 N 0.65609 0.59734 0.08596 0.0
C489 C 0.62658 0.58017 0.07457 0.0
C490 C 0.61764 0.59934 0.06028 0.0
C491 C 0.6425 0.62934 0.06218 0.0
C492 C 0.6652 0.62691 0.07752 0.0
N493 N 0.71627 0.62799 0.11628 0.0
C494 C 0.71826 0.654 0.10447 0.0
C495 C 0.74359 0.68117 0.11457 0.0
C496 C 0.75878 0.67175 0.13375 0.0
C497 C 0.7418 0.63923 0.13439 0.0
N498 N 0.70479 0.58832 0.06771 0.0
C499 C 0.73177 0.61373 1.0124 0.0
C500 C 0.75034 0.62144 0.0379 0.0
C501 C 0.73655 0.60784 0.06515 0.0
C502 C 0.70021 0.59024 1.01475 0.0
C503 C 0.68728 0.5778 0.04244 0.0
N504 N 0.66261 0.58122 0.14405 0.0
C505 C 0.64422 0.60582 0.17868 0.0
C506 C 0.63514 0.58133 0.19897 0.0
C507 C 0.64002 0.55646 0.19089 0.0
C508 C 0.65367 0.55681 0.16335 0.0
C509 C 0.65762 0.60526 0.15168 0.0
H510 H 0.65719 0.5375 0.15783 0.0
H511 H 0.66443 0.62486 0.1372 0.0
H512 H 0.75131 0.61505 0.08445 0.0
H513 H 0.6625 0.56158 0.0434 0.0
C514 C 0.68131 0.51676 0.11128 0.0
C515 C 0.75271 0.62001 0.14973 0.0
C516 C 0.60748 0.54566 0.07429 0.0
C517 C 0.69439 0.65191 0.08617 0.0
H518 H 0.76566 0.5718 0.16961 0.0
H519 H 0.72925 0.51651 0.14549 0.0
H520 H 0.62519 0.46342 0.09153 0.0
H521 H 0.58375 0.47917 0.07415 0.0
H522 H 0.59573 0.59221 0.04898 0.0
H523 H 0.64383 0.6504 0.05342 0.0
H524 H 0.75012 0.70501 0.10888 0.0
H525 H 0.78036 0.68705 0.14533 0.0
H526 H 0.77511 0.63868 0.03701 0.0
H527 H 0.68493 0.58308 0.99566 0.0
H528 H 0.64183 0.62599 0.18381 0.0
H529 H 0.63328 0.53681 0.20564 0.0
C530 C 0.43476 0.16521 0.13152 0.0
C531 C 0.45241 0.19768 0.13375 0.0
C532 C 0.48175 0.20626 0.12387 0.0
C533 C 0.48027 0.1788 0.11569 0.0
N534 N 0.45184 0.15311 0.11949 0.0
Co535 Co 0.4392 0.10931 0.10623 0.0
N536 N 0.483 0.1224 0.09282 0.0
C537 C 0.50822 0.15142 0.09488 0.0
C538 C 0.53563 0.15361 0.08527 0.0
C539 C 0.52748 0.12413 0.07623 0.0
C540 C 0.49535 0.10564 0.0807 0.0
N541 N 0.42671 0.06599 0.09155 0.0
C542 C 0.44362 0.05486 0.07713 0.0
C543 C 0.42509 0.02341 0.07011 0.0
C544 C 0.3956 0.01434 0.08046 0.0
C545 C 0.39777 0.04072 0.0931 0.0
N546 N 0.39581 0.09634 0.12082 0.0
C547 C 0.37098 0.06704 0.11981 0.0
C548 C 0.34477 0.06411 0.13349 0.0
C549 C 0.35344 0.09341 0.14395 0.0
C550 C 0.38452 0.11278 0.1358 0.0
N551 N 0.42819 0.11865 0.06667 0.0
C552 C 0.39856 0.11609 1.01243 0.0
C553 C 0.39307 0.12906 0.0377 0.0
C554 C 0.40808 0.13021 0.06435 0.0
C555 C 0.42142 0.10717 1.01428 0.0
C556 C 0.43625 0.10916 0.04129 0.0
N557 N 0.44829 0.09834 0.14603 0.0
C558 C 0.44912 0.05819 0.17648 0.0
C559 C 0.43799 0.06724 0.20096 0.0
C560 C 0.43664 0.09489 0.19827 0.0
C561 C 0.44195 0.10998 0.17095 0.0
C562 C 0.45472 0.07442 0.1495 0.0
H563 H 0.43886 0.12992 0.17018 0.0
H564 H 0.4625 0.06617 0.13122 0.0
H565 H 0.40189 0.13905 0.08324 0.0
H566 H 0.45316 0.10162 0.04154 0.0
C567 C 0.50525 0.17635 0.10487 0.0
C568 C 0.40231 0.14676 0.14237 0.0
C569 C 0.47741 0.0731 0.07052 0.0
C570 C 0.3734 0.04276 0.10659 0.0
H571 H 0.44504 0.21366 0.14181 0.0
H572 H 0.50181 0.22974 0.12279 0.0
H573 H 0.5587 0.17432 0.08444 0.0
H574 H 0.54327 0.11723 0.06666 0.0
H575 H 0.43228 0.00859 0.05896 0.0
H576 H 0.37502 0.99124 0.07897 0.0
H577 H 0.32214 0.04307 0.13595 0.0
H578 H 0.33855 0.09965 0.15632 0.0
H579 H 0.37593 0.13671 0.03742 0.0
H580 H 0.42736 0.09799 0.9951 0.0
H581 H 0.45171 0.03765 0.17748 0.0
H582 H 0.42998 0.10414 0.21689 0.0
C583 C 0.86008 0.28247 0.13161 0.0
C584 C 0.82799 0.27011 0.13581 0.0
C585 C 0.82134 0.29282 0.12805 0.0
C586 C 0.84948 0.31779 0.1197 0.0
N587 N 0.87374 0.31244 0.1212 0.0
Co588 Co 0.91865 0.34398 0.1121 0.0
N589 N 0.90703 0.3738 0.09399 0.0
C590 C 0.87865 0.37157 0.09559 0.0
C591 C 0.87635 0.39375 0.07939 0.0
C592 C 0.90515 0.41145 0.06683 0.0
C593 C 0.92377 0.39945 0.07665 0.0
N594 N 0.96327 0.37549 0.10236 0.0
C595 C 0.9756 0.40161 0.08493 0.0
C596 C 0.00812 0.41724 0.08553 0.0
C597 C 0.01643 0.40054 0.10397 0.0
C598 C 0.98863 0.37572 0.1137 0.0
N599 N 0.93002 0.31427 0.13083 0.0
C600 C 0.95931 0.32162 0.13871 0.0
C601 C 0.96056 0.29732 0.15211 0.0
C602 C 0.9301 0.2733 0.15342 0.0
C603 C 0.91173 0.28436 0.14101 0.0
N604 N 0.91527 0.3241 0.07333 0.0
C605 C 0.91584 0.29966 1.01686 0.0
C606 C 0.93942 0.30632 0.03756 0.0
C607 C 0.93861 0.31818 0.06529 0.0
C608 C 0.89144 0.30515 1.02543 0.0
C609 C 0.89156 0.3173 0.05375 0.0
N610 N 0.92389 0.36395 0.15129 0.0
C611 C 0.96127 0.4059 0.18255 0.0
C612 C 0.95289 0.38524 0.2066 0.0
C613 C 0.92614 0.35549 0.20341 0.0
C614 C 0.91205 0.34537 0.17577 0.0
C615 C 0.94586 0.39496 0.15527 0.0
H616 H 0.89366 0.32138 0.17399 0.0
H617 H 0.95399 0.41088 0.13678 0.0
H618 H 0.95767 0.32328 0.0799 0.0
H619 H 0.87277 0.32154 0.05961 0.0
C620 C 0.85341 0.34564 0.10835 0.0
C621 C 0.87699 0.26671 0.1421 0.0
C622 C 0.9575 0.41421 0.07023 0.0
C623 C 0.98523 0.35058 0.13088 0.0
H624 H 0.81102 0.24756 0.14473 0.0
H625 H 0.79866 0.29133 0.12853 0.0
H626 H 0.85574 0.39587 0.07596 0.0
H627 H 0.91141 0.43084 0.05191 0.0
H628 H 0.02416 0.43885 0.07434 0.0
H629 H 0.03994 0.4057 0.10933 0.0
H630 H 0.98118 0.29699 0.15983 0.0
H631 H 0.92223 0.25049 0.16313 0.0
H632 H 0.95928 0.30347 0.0322 0.0
H633 H 0.87243 0.30022 1.01043 0.0
H634 H 0.98106 0.42952 0.18397 0.0
H635 H 0.91742 0.33912 0.22169 0.0
C636 C 0.33175 0.38554 1.00728 0.0
C637 C 0.3372 0.41291 1.02124 0.0
C638 C 0.35069 0.43643 1.00077 0.0
C639 C 0.35295 0.42237 0.97545 0.0
N640 N 0.34101 0.39118 0.97819 0.0
Co641 Co 0.34584 0.36431 0.94748 0.0
N642 N 0.36221 0.39777 0.91609 0.0
C643 C 0.37067 0.42795 0.92097 0.0
C644 C 0.3821 0.44638 0.89626 0.0
C645 C 0.3808 0.42669 0.8742 0.0
C646 C 0.36832 0.39701 0.8865 0.0
N647 N 0.3519 0.33761 0.91743 0.0
C648 C 0.35677 0.34093 0.88751 0.0
C649 C 0.35327 0.31348 0.87518 0.0
C650 C 0.34821 0.29332 0.89779 0.0
C651 C 0.34759 0.30873 0.92269 0.0
N652 N 0.32763 0.32977 0.97798 0.0
C653 C 0.32488 0.30133 0.97486 0.0
C654 C 0.31097 0.28171 0.99842 0.0
C655 C 0.30517 0.29897 1.01834 0.0
C656 C 0.31634 0.32844 1.00594 0.0
N657 N 0.30292 0.34994 0.93188 0.0
C658 C 0.24686 0.33381 0.9007 0.0
C659 C 0.25668 0.31184 0.90533 0.0
C660 C 0.28431 0.32016 0.92124 0.0
C661 C 0.26485 0.36346 0.91354 0.0
C662 C 0.29265 0.37104 0.92875 0.0
N663 N 0.38941 0.38063 0.96333 0.0
C664 C 0.42153 0.39469 1.00748 0.0
C665 C 0.44608 0.42126 0.99385 0.0
C666 C 0.44319 0.4242 0.96327 0.0
C667 C 0.41521 0.4032 0.9484 0.0
C668 C 0.39383 0.375 0.99211 0.0
H669 H 0.41433 0.40665 0.92505 0.0
H670 H 0.37585 0.35625 1.00466 0.0
H671 H 0.29088 0.30257 0.92397 0.0
H672 H 0.30632 0.39458 0.93687 0.0
C673 C 0.36646 0.43766 0.94881 0.0
C674 C 0.32034 0.35549 1.02333 0.0
C675 C 0.36522 0.3695 0.86985 0.0
C676 C 0.33545 0.29379 0.94947 0.0
H677 H 0.33304 0.4159 0.04416 0.0
H678 H 0.35875 0.46106 1.00421 0.0
H679 H 0.39048 0.47125 0.89447 0.0
H680 H 0.38893 0.43373 0.8518 0.0
H681 H 0.35307 0.30773 0.85212 0.0
H682 H 0.34287 0.26923 0.89597 0.0
H683 H 0.30617 0.25787 1.00102 0.0
H684 H 0.29521 0.29118 0.04013 0.0
H685 H 0.24331 0.28839 0.89631 0.0
H686 H 0.25839 0.38131 0.91063 0.0
H687 H 0.423 0.38941 0.03042 0.0
H688 H 0.46169 0.44334 0.95093 0.0
C689 C 0.62153 0.97662 0.88904 0.0
C690 C 0.59058 0.96023 0.87944 0.0
C691 C 0.57253 0.94372 0.90313 0.0
C692 C 0.59307 0.95122 0.92618 0.0
N693 N 0.62299 0.97155 0.9187 0.0
Co694 Co 0.65857 0.99084 0.94762 0.0
N695 N 0.63454 0.96027 0.98014 0.0
C696 C 0.60319 0.94099 0.97981 0.0
C697 C 0.59139 0.92525 1.00586 0.0
C698 C 0.61666 0.9357 1.02429 0.0
C699 C 0.64276 0.95732 1.00846 0.0
N700 N 0.69499 0.00984 0.97601 0.0
C701 C 0.69896 1.00109 1.00367 0.0
C702 C 0.72887 0.0213 1.01433 0.0
C703 C 0.74364 0.04424 0.99363 0.0
C704 C 0.72223 0.03659 0.97134 0.0
N705 N 0.68244 0.02213 0.91545 0.0
C706 C 0.71105 0.04779 0.91885 0.0
C707 C 0.72522 0.06154 0.89274 0.0
C708 C 0.70451 0.04374 0.87135 0.0
C709 C 0.67776 0.02068 0.88547 0.0
N710 N 0.64227 0.01783 0.96362 0.0
C711 C 0.60069 0.03349 0.99258 0.0
C712 C 0.62533 0.03312 1.00772 0.0
C713 C 0.64551 0.02528 0.99308 0.0
C714 C 0.60034 0.03023 0.96166 0.0
C715 C 0.62181 0.02327 0.94762 0.0
N716 N 0.67295 0.96252 0.93175 0.0
C717 C 0.71 0.95449 0.9032 0.0
C718 C 0.68821 0.92242 0.89991 0.0
C719 C 0.65927 0.91063 0.91426 0.0
C720 C 0.65204 0.93096 0.92972 0.0
C721 C 0.70218 0.97392 0.91961 0.0
H722 H 0.62887 0.92111 0.9389 0.0
H723 H 0.71955 0.99833 0.92147 0.0
H724 H 0.66228 0.02342 1.00656 0.0
H725 H 0.62024 0.0203 0.92399 0.0
C726 C 0.58563 0.93858 0.95466 0.0
C727 C 0.64831 0.99846 0.86974 0.0
C728 C 0.67395 0.97696 1.02241 0.0
C729 C 0.72746 0.05306 0.94514 0.0
H730 H 0.5816 0.96067 0.85779 0.0
H731 H 0.54737 0.92813 0.90348 0.0
H732 H 0.56711 0.90882 1.01116 0.0
H733 H 0.61558 0.92918 0.04724 0.0
H734 H 0.73866 0.02029 0.0354 0.0
H735 H 0.76717 0.06422 0.99475 0.0
H736 H 0.74915 0.08027 0.88946 0.0
H737 H 0.70991 0.04667 0.84808 0.0
H738 H 0.62847 0.03761 0.03124 0.0
H739 H 0.5827 0.03137 0.9484 0.0
H740 H 0.73285 0.96461 0.8928 0.0
H741 H 0.64165 0.88606 0.91231 0.0
C742 C 0.05656 0.66466 0.88278 0.0
C743 C 0.08378 0.6698 0.8688 0.0
C744 C 0.10706 0.68199 0.8896 0.0
C745 C 0.09286 0.68367 0.91513 0.0
N746 N 0.06181 0.67253 0.91218 0.0
Co747 Co 0.03478 0.67685 0.94308 0.0
N748 N 0.06801 0.69245 0.97467 0.0
C749 C 0.09802 0.70001 0.97001 0.0
C750 C 0.11632 0.711 0.99482 0.0
C751 C 0.09672 0.71024 1.01674 0.0
C752 C 0.0672 0.69851 1.00427 0.0
N753 N 0.00796 0.68261 0.97327 0.0
C754 C 0.01121 0.68734 1.00322 0.0
C755 C 0.98369 0.6837 1.01556 0.0
C756 C 0.96356 0.67871 0.99296 0.0
C757 C 0.97904 0.67826 0.96804 0.0
N758 N 1.00038 0.65901 0.91248 0.0
C759 C 0.97182 0.65604 0.91567 0.0
C760 C 0.95269 0.64338 0.8916 0.0
C761 C 0.97039 0.63864 0.87129 0.0
C762 C 0.99951 0.64891 0.88412 0.0
N763 N 0.02008 0.63363 0.9581 0.0
C764 C 1.00321 0.57688 0.98834 0.0
C765 C 0.98156 0.58716 0.98415 0.0
C766 C 0.99023 0.61511 0.9687 0.0
C767 C 0.03291 0.59474 0.97551 0.0
C768 C 0.04086 0.62289 0.96076 0.0
N769 N 0.05135 0.72076 0.92766 0.0
C770 C 0.06211 0.75292 0.88378 0.0
C771 C 0.0909 0.77639 0.8951 0.0
C772 C 0.09692 0.77333 0.92486 0.0
C773 C 0.0765 0.74598 0.94086 0.0
C774 C 0.04289 0.72575 0.90017 0.0
H775 H 0.08238 0.74525 0.96355 0.0
H776 H 0.02189 0.70869 0.88944 0.0
H777 H 0.97282 0.62193 0.96628 0.0
H778 H 0.06439 0.63636 0.95257 0.0
C779 C 0.10789 0.69612 0.9421 0.0
C780 C 0.0268 0.65393 0.86663 0.0
C781 C 0.03973 0.69563 1.02092 0.0
C782 C 0.96417 0.66632 0.94119 0.0
H783 H 0.08662 0.66594 0.84573 0.0
H784 H 0.13161 0.68954 0.8863 0.0
H785 H 0.14108 0.71884 0.99674 0.0
H786 H 0.10375 0.71823 0.03915 0.0
H787 H 0.97785 0.68332 0.03862 0.0
H788 H 0.93944 0.67332 0.99479 0.0
H789 H 0.92906 0.63914 0.88877 0.0
H790 H 0.96334 0.63035 0.84891 0.0
H791 H 0.95807 0.57389 0.99316 0.0
H792 H 0.0505 0.58787 0.97807 0.0
H793 H 0.05463 0.75492 0.86182 0.0
H794 H 0.11796 0.79118 0.93559 0.0
C795 C 0.29369 0.86576 0.40903 0.0
C796 C 0.28132 0.83424 0.40207 0.0
C797 C 0.30046 0.82499 0.41479 0.0
C798 C 0.32323 0.85114 0.42887 0.0
N799 N 0.31979 0.87646 0.42596 0.0
Co800 Co 0.34714 0.91843 0.44426 0.0
N801 N 0.38084 0.90824 0.45308 0.0
C802 C 0.37825 0.87979 0.45049 0.0
C803 C 0.4056 0.87983 0.45596 0.0
C804 C 0.42683 0.91011 0.46308 0.0
C805 C 0.41096 0.9268 0.4622 0.0
N806 N 0.37433 0.96001 0.46351 0.0
C807 C 0.40423 0.97338 0.47418 0.0
C808 C 0.41241 1.00126 0.48872 0.0
C809 C 0.38682 0.00527 0.48748 0.0
C810 C 0.36436 0.97968 0.4724 0.0
N811 N 0.31342 0.9283 0.4346 0.0
C812 C 0.3107 0.95192 0.44633 0.0
C813 C 0.28513 0.95304 0.43581 0.0
C814 C 0.27068 0.9284 0.41637 0.0
C815 C 0.28822 0.9135 0.41617 0.0
N816 N 0.32733 0.90222 0.48325 0.0
C817 C 0.30201 0.90105 0.53943 0.0
C818 C 0.28267 0.88985 0.51446 0.0
C819 C 0.29563 0.88981 0.48676 0.0
C820 C 0.33358 0.90949 0.53608 0.0
C821 C 0.3457 0.90981 0.50798 0.0
N822 N 0.36666 0.93624 0.40565 0.0
C823 C 0.3827 0.97867 0.37084 0.0
C824 C 0.39032 0.96296 0.34958 0.0
C825 C 0.38679 0.9337 0.35745 0.0
C826 C 0.3748 0.92068 0.38558 0.0
C827 C 0.37103 0.96508 0.39831 0.0
H828 H 0.3717 0.89795 0.39091 0.0
H829 H 0.36502 0.97805 0.4134 0.0
H830 H 0.28024 0.88186 0.4679 0.0
H831 H 0.37049 0.91864 0.50627 0.0
C832 C 0.35067 0.85411 0.44047 0.0
C833 C 0.27904 0.88404 0.40012 0.0
C834 C 0.42414 0.95876 0.47409 0.0
C835 C 0.33457 0.97437 0.46433 0.0
H836 H 0.26065 0.81941 0.38911 0.0
H837 H 0.2987 0.80225 0.41296 0.0
H838 H 0.40973 0.86025 0.45458 0.0
H839 H 0.45102 0.91863 0.4691 0.0
H840 H 0.43421 0.01661 0.49993 0.0
H841 H 0.38484 0.02453 0.49659 0.0
H842 H 0.27818 0.97013 0.4411 0.0
H843 H 0.24946 0.92189 0.40408 0.0
H844 H 0.25788 0.88204 0.51613 0.0
H845 H 0.34944 0.91786 0.55475 0.0
H846 H 0.38566 1.0016 0.36635 0.0
H847 H 0.39247 0.92063 0.34181 0.0
C848 C 0.15848 0.44082 0.40805 0.0
C849 C 0.18985 0.45978 0.40036 0.0
C850 C 0.19986 0.48815 0.41356 0.0
C851 C 0.17428 0.48494 0.42866 0.0
N852 N 0.14862 0.45635 0.42589 0.0
Co853 Co 0.10736 0.44197 0.4456 0.0
N854 N 0.11829 0.48589 0.45521 0.0
C855 C 0.14695 0.51156 0.45263 0.0
C856 C 0.1474 0.53902 0.45868 0.0
C857 C 0.11725 0.53026 0.4661 0.0
C858 C 0.10011 0.49769 0.46485 0.0
N859 N 0.06633 0.42782 0.46592 0.0
C860 C 0.05314 0.44448 0.47663 0.0
C861 C 0.02547 0.42496 0.49162 0.0
C862 C 0.0214 0.39533 0.49055 0.0
C863 C 0.04675 0.39826 0.47512 0.0
N864 N 0.09679 0.39827 0.43556 0.0
C865 C 0.07352 0.37205 0.44788 0.0
C866 C 0.07178 0.34519 0.43694 0.0
C867 C 0.09566 0.35515 0.41664 0.0
C868 C 0.11081 0.38765 0.4164 0.0
N869 N 0.12468 0.43817 0.4837 0.0
C870 C 0.12664 0.41119 0.53781 0.0
C871 C 0.13999 0.40661 0.51222 0.0
C872 C 0.13909 0.42058 0.48549 0.0
C873 C 0.11626 0.43299 0.53639 0.0
C874 C 0.11597 0.44656 0.5093 0.0
N875 N 0.08856 0.44398 0.40783 0.0
C876 C 0.04526 0.4178 0.37394 0.0
C877 C 0.06032 0.44156 0.35295 0.0
C878 C 0.08969 0.46737 0.36049 0.0
C879 C 0.10349 0.46806 0.38804 0.0
C880 C 0.0596 0.41941 0.40084 0.0
H881 H 0.1263 0.48774 0.39315 0.0
H882 H 0.04712 0.40018 0.41579 0.0
H883 H 0.14753 0.41479 0.46584 0.0
H884 H 0.10606 0.46168 0.50885 0.0
C885 C 0.17213 0.50945 0.44143 0.0
C886 C 0.13971 0.40773 0.39946 0.0
C887 C 0.06789 0.47902 0.47626 0.0
C888 C 0.05168 0.37363 0.46667 0.0
H889 H 0.20418 0.45378 0.38676 0.0
H890 H 0.22275 0.50896 0.41153 0.0
H891 H 0.16715 0.56266 0.4572 0.0
H892 H 0.10908 0.54617 0.4723 0.0
H893 H 0.0103 0.43156 0.50299 0.0
H894 H 1.00221 0.37417 0.4999 0.0
H895 H 0.05472 0.3212 0.44248 0.0
H896 H 0.10145 0.34023 0.40376 0.0
H897 H 0.14891 0.39049 0.51222 0.0
H898 H 0.10691 0.43834 0.55579 0.0
H899 H 0.0223 0.39775 0.36964 0.0
H900 H 0.10224 0.4864 0.345 0.0
C901 C 0.53703 0.61923 0.47363 0.0
C902 C 0.50499 0.60612 0.47868 0.0
C903 C 0.49602 0.62514 0.46531 0.0
C904 C 0.52278 0.64858 0.45265 0.0
N905 N 0.54832 0.64578 0.45714 0.0
Co906 Co 0.59097 0.67399 0.44031 0.0
N907 N 0.58014 0.70692 0.42996 0.0
C908 C 0.55117 0.70334 0.43039 0.0
C909 C 0.5505 0.72998 0.42315 0.0
C910 C 0.58094 0.75183 0.4172 0.0
C911 C 0.59847 0.73705 0.42078 0.0
N912 N 0.6333 0.70208 0.42274 0.0
C913 C 0.64668 0.73211 0.4125 0.0
C914 C 0.67573 0.74144 0.39986 0.0
C915 C 0.68052 0.71638 0.40183 0.0
C916 C 0.6542 0.69313 0.41547 0.0
N917 N 0.60142 0.64097 0.45129 0.0
C918 C 0.62634 0.63939 0.44125 0.0
C919 C 0.62806 0.61452 0.45272 0.0
C920 C 0.60241 0.59921 0.47086 0.0
C921 C 0.58614 0.61541 0.46928 0.0
N922 N 0.57687 0.65421 0.40101 0.0
C923 C 0.57565 0.629 0.34477 0.0
C924 C 0.56466 0.60964 0.36977 0.0
C925 C 0.56472 0.62255 0.39751 0.0
C926 C 0.58445 0.66062 0.34821 0.0
C927 C 0.58489 0.67268 0.37631 0.0
N928 N 0.60666 0.69376 0.47924 0.0
C929 C 0.64755 0.71147 0.51602 0.0
C930 C 0.63116 0.72053 0.53516 0.0
C931 C 0.60195 0.71592 0.52538 0.0
C932 C 0.59015 0.70253 0.49741 0.0
C933 C 0.63513 0.69846 0.48851 0.0
H934 H 0.56768 0.69912 0.49057 0.0
H935 H 0.64872 0.69179 0.47496 0.0
H936 H 0.55671 0.60711 0.41635 0.0
H937 H 0.59388 0.69748 0.378 0.0
C938 C 0.52553 0.6755 0.43998 0.0
C939 C 0.55504 0.60435 0.48309 0.0
C940 C 0.63136 0.75125 0.41142 0.0
C941 C 0.64939 0.66372 0.42408 0.0
H942 H 0.4894 0.58477 0.49042 0.0
H943 H 0.47287 0.62259 0.46542 0.0
H944 H 0.53034 0.73322 0.42252 0.0
H945 H 0.5891 0.77567 0.41014 0.0
H946 H 0.69144 0.76375 0.38958 0.0
H947 H 0.70084 0.71532 0.39429 0.0
H948 H 0.64622 0.60864 0.44895 0.0
H949 H 0.59623 0.57827 0.4835 0.0
H950 H 0.55675 0.58485 0.36804 0.0
H951 H 0.59283 0.67649 0.32954 0.0
H952 H 0.66968 0.71354 0.52242 0.0
H953 H 0.58828 0.72263 0.53914 0.0
H954 H 0.01396 0.72654 0.15287 0.0
H955 H 0.07321 0.68849 0.1754 0.0
H956 H 0.07859 0.6795 0.12328 0.0
H957 H 0.06314 0.67877 0.07032 0.0
H958 H 0.02191 0.73514 0.04748 0.0
H959 H 0.01321 0.74079 0.09965 0.0
C960 C 0.02862 0.71685 0.1466 0.0
C961 C 0.04103 0.70598 0.16904 0.0
C962 C 0.03447 0.71455 0.11592 0.0
C963 C 0.06113 0.69492 0.15939 0.0
C964 C 0.06465 0.69009 0.12925 0.0
C965 C 0.05289 0.69295 0.07649 0.0
C966 C 0.04118 0.70448 0.054 0.0
C967 C 0.05075 0.69905 0.10712 0.0
C968 C 0.02916 0.72379 0.06356 0.0
C969 C 0.02448 0.72748 0.09372 0.0
H970 H 0.35041 0.33897 0.06542 0.0
H971 H 0.27945 0.36515 0.05759 0.0
H972 H 0.27016 0.35865 0.11112 0.0
H973 H 0.2823 0.34549 0.16122 0.0
H974 H 0.35311 0.31903 0.16839 0.0
H975 H 0.36186 0.32507 0.1149 0.0
C976 C 0.33288 0.34327 0.07539 0.0
C977 C 0.31582 0.35281 0.05701 0.0
C978 C 0.32731 0.33901 0.10645 0.0
C979 C 0.29325 0.35819 0.07079 0.0
C980 C 0.28777 0.35424 0.10157 0.0
C981 C 0.29926 0.34053 0.151 0.0
C982 C 0.31658 0.33111 0.16916 0.0
C983 C 0.30454 0.34452 0.11979 0.0
C984 C 0.33904 0.32571 0.15524 0.0
C985 C 0.34421 0.3294 0.12451 0.0
H986 H 0.68903 0.94981 0.15922 0.0
H987 H 0.71517 0.04694 0.16737 0.0
H988 H 0.70826 0.04973 0.11405 0.0
H989 H 0.69245 0.02406 0.06468 0.0
H990 H 0.66729 0.9272 0.05589 0.0
H991 H 0.67556 0.92468 0.10905 0.0
C992 C 0.69392 0.97177 0.14919 0.0
C993 C 0.70343 0.99842 0.16757 0.0
C994 C 0.68943 0.97309 0.11812 0.0
C995 C 0.7086 0.02631 0.154 0.0
C996 C 0.70432 0.0278 0.12338 0.0
C997 C 0.68897 1.0024 0.0743 0.0
C998 C 0.67902 0.97575 0.05577 0.0
C999 C 0.69437 1.00129 0.10514 0.0
C1000 C 0.67457 0.94801 0.06919 0.0
C1001 C 0.67951 0.94663 0.09976 0.0
H1002 H 0.68321 0.06852 0.48409 0.0
H1003 H 0.74006 0.02828 0.50879 0.0
H1004 H 0.74654 0.01935 0.45698 0.0
H1005 H 0.73188 0.01852 0.4041 0.0
H1006 H 0.69525 0.07833 0.37874 0.0
H1007 H 0.68517 0.08407 0.43068 0.0
C1008 C 0.6978 0.05859 0.47842 0.0
C1009 C 0.70901 0.04694 0.50131 0.0
C1010 C 0.70467 0.05659 0.44796 0.0
C1011 C 0.72887 0.03536 0.49238 0.0
C1012 C 0.73302 0.03053 0.46244 0.0
C1013 C 0.72302 0.03407 0.40949 0.0
C1014 C 0.71329 0.04687 0.38642 0.0
C1015 C 0.72034 0.0403 0.43987 0.0
C1016 C 0.70176 0.06678 0.39529 0.0
C1017 C 0.69611 0.07032 0.42528 0.0
H1018 H 0.94573 0.67628 0.49281 0.0
H1019 H 0.0188 0.6531 0.50151 0.0
H1020 H 0.02864 0.65986 0.44821 0.0
H1021 H 0.01763 0.6736 0.39852 0.0
H1022 H 0.94423 0.69617 0.38899 0.0
H1023 H 0.93386 0.68902 0.44235 0.0
C1024 C 0.96341 0.67214 0.48295 0.0
C1025 C 0.98106 0.66347 0.50152 0.0
C1026 C 0.9693 0.67652 0.45183 0.0
C1027 C 1.00445 0.65918 0.48806 0.0
C1028 C 0.01026 0.6633 0.45744 0.0
C1029 C 0.99929 0.67693 0.40805 0.0
C1030 C 0.98186 0.68563 0.38923 0.0
C1031 C 0.99306 0.6722 0.439 0.0
C1032 C 0.95832 0.68984 0.40251 0.0
C1033 C 0.95222 0.6855 0.4332 0.0
H1034 H 0.34874 0.27597 0.49098 0.0
H1035 H 0.37318 0.37253 0.50111 0.0
H1036 H 0.36623 0.3763 0.44822 0.0
H1037 H 0.35136 0.35203 0.39847 0.0
H1038 H 0.32973 0.25651 0.38678 0.0
H1039 H 0.33674 0.25238 0.43997 0.0
C1040 C 0.35306 0.29798 0.48153 0.0
C1041 C 0.36191 0.32408 0.50052 0.0
C1042 C 0.34897 0.30007 0.45045 0.0
C1043 C 0.36679 0.35215 0.48751 0.0
C1044 C 0.36258 0.35427 0.45703 0.0
C1045 C 0.34844 0.33033 0.40742 0.0
C1046 C 0.33985 0.30456 0.38807 0.0
C1047 C 0.35339 0.32837 0.4382 0.0
C1048 C 0.33599 0.27669 0.40071 0.0
C1049 C 0.34021 0.27438 0.43131 0.0
H1050 H 0.93334 0.28064 0.88091 0.0
H1051 H 0.97757 0.2318 0.91817 0.0
H1052 H 0.96145 0.23805 0.96749 0.0
H1053 H 0.93868 0.261 1.00059 0.0
H1054 H 0.89893 0.3142 0.96377 0.0
H1055 H 0.90915 0.30229 0.914 0.0
C1056 C 0.9397 0.27146 0.89974 0.0
C1057 C 0.95711 0.256 0.89543 0.0
C1058 C 0.93116 0.27597 0.92833 0.0
C1059 C 0.96405 0.24353 0.92036 0.0
C1060 C 0.95506 0.24736 0.94877 0.0
C1061 C 0.93232 0.27021 0.98177 0.0
C1062 C 0.91833 0.28893 0.98633 0.0
C1063 C 0.93922 0.26414 0.95309 0.0
C1064 C 0.90946 0.2996 0.96132 0.0
C1065 C 0.91561 0.29303 0.93271 0.0
H1066 H 0.76663 0.67716 1.00481 0.0
H1067 H 0.72385 0.5902 0.9562 0.0
H1068 H 0.73875 0.61918 0.90956 0.0
H1069 H 0.76059 0.66928 0.88242 0.0
H1070 H 0.80125 0.75614 0.93111 0.0
H1071 H 0.79079 0.72733 0.97762 0.0
C1072 C 0.76111 0.66455 0.98401 0.0
C1073 C 0.74418 0.63146 0.98411 0.0
C1074 C 0.76919 0.68143 0.95718 0.0
C1075 C 0.73672 0.61559 0.95685 0.0
C1076 C 0.74524 0.63219 0.93014 0.0
C1077 C 0.7677 0.68195 0.90318 0.0
C1078 C 0.78176 0.71492 0.90316 0.0
C1079 C 0.761 0.66512 0.92998 0.0
C1080 C 0.79025 0.73083 0.9304 0.0
C1081 C 0.78428 0.71433 0.95705 0.0
H1082 H 0.37172 0.06343 0.97843 0.0
H1083 H 0.38119 0.15505 0.98529 0.0
H1084 H 0.34733 0.14394 0.94206 0.0
H1085 H 0.31402 0.10749 0.90235 0.0
H1086 H 0.30457 0.01566 0.897 0.0
H1087 H 0.33912 0.02755 0.93928 0.0
C1088 C 0.36673 0.08117 0.97027 0.0
C1089 C 0.37926 0.11014 0.98508 0.0
C1090 C 0.34686 0.07444 0.94566 0.0
C1091 C 0.37187 0.13251 0.97446 0.0
C1092 C 0.35249 0.12617 0.94967 0.0
C1093 C 0.31956 0.09013 0.91044 0.0
C1094 C 0.30616 0.0605 0.89658 0.0
C1095 C 0.33964 0.0971 0.93512 0.0
C1096 C 0.31376 0.03836 0.9075 0.0
C1097 C 0.33382 0.04522 0.93161 0.0
H1098 H 0.27618 0.92339 0.67176 0.0
H1099 H 0.23442 0.97138 0.62813 0.0
H1100 H 0.24312 0.95407 0.58016 0.0
H1101 H 0.26695 0.92915 0.55011 0.0
H1102 H 0.31135 0.88409 0.59424 0.0
H1103 H 0.29773 0.89681 0.64223 0.0
C1104 C 0.26903 0.93026 0.65182 0.0
C1105 C 0.25493 0.94911 0.65387 0.0
C1106 C 0.27486 0.92091 0.62419 0.0
C1107 C 0.24511 0.95681 0.62756 0.0
C1108 C 0.25034 0.9471 0.59998 0.0
C1109 C 0.27315 0.92164 0.57024 0.0
C1110 C 0.29024 0.90567 0.56847 0.0
C1111 C 0.26575 0.92963 0.59795 0.0
C1112 C 0.29843 0.89655 0.59487 0.0
C1113 C 0.29063 0.90383 0.62236 0.0
H1114 H 0.11738 0.32446 0.64646 0.0
H1115 H 0.02543 0.3149 0.65168 0.0
H1116 H 0.03769 0.35012 0.60994 0.0
H1117 H 0.07376 0.38323 0.57133 0.0
H1118 H 0.16572 0.39341 0.5645 0.0
H1119 H 0.15428 0.35866 0.60718 0.0
C1120 C 0.10008 0.33013 0.63846 0.0
C1121 C 0.07027 0.31644 0.65211 0.0
C1122 C 0.10729 0.35069 0.61409 0.0
C1123 C 0.04824 0.32425 0.64132 0.0
C1124 C 0.05531 0.34471 0.61752 0.0
C1125 C 0.09156 0.3783 0.57939 0.0
C1126 C 0.12072 0.39133 0.56479 0.0
C1127 C 0.08467 0.35801 0.60367 0.0
C1128 C 0.14307 0.3838 0.57521 0.0
C1129 C 0.13653 0.3639 0.59969 0.0
H1130 H 0.69292 0.75805 0.55171 0.0
H1131 H 0.59887 0.71118 0.58739 0.0
H1132 H 0.62003 0.7263 0.63719 0.0
H1133 H 0.66505 0.74879 0.67109 0.0
H1134 H 0.75906 0.79139 0.63572 0.0
H1135 H 0.73803 0.78225 0.5856 0.0
C1136 C 0.6769 0.75092 0.5703 0.0
C1137 C 0.64413 0.73302 0.56541 0.0
C1138 C 0.68928 0.75892 0.59915 0.0
C1139 C 0.62406 0.72507 0.59005 0.0
C1140 C 0.6362 0.73351 0.61872 0.0
C1141 C 0.68109 0.75605 0.6525 0.0
C1142 C 0.71379 0.77049 0.65757 0.0
C1143 C 0.66876 0.74979 0.62359 0.0
C1144 C 0.73392 0.78049 0.63289 0.0
C1145 C 0.72184 0.77496 0.60407 0.0
H1146 H 0.34875 0.39291 0.82029 0.0
H1147 H 0.40526 0.35206 0.8439 0.0
H1148 H 0.41152 0.34349 0.79183 0.0
H1149 H 0.39758 0.34403 0.73854 0.0
H1150 H 0.3587 0.40235 0.71519 0.0
H1151 H 0.34947 0.40794 0.76721 0.0
C1152 C 0.36304 0.38273 0.81429 0.0
C1153 C 0.37447 0.3711 0.83692 0.0
C1154 C 0.36937 0.38056 0.78374 0.0
C1155 C 0.39402 0.35925 0.82765 0.0
C1156 C 0.39803 0.35463 0.79757 0.0
C1157 C 0.38769 0.35856 0.74461 0.0
C1158 C 0.37678 0.37073 0.72201 0.0
C1159 C 0.38514 0.36446 0.77521 0.0
C1160 C 0.36532 0.39057 0.73137 0.0
C1161 C 0.36032 0.39419 0.76144 0.0
H1162 H 0.6185 0.97987 0.72966 0.0
H1163 H 0.69474 0.07579 0.72874 0.0
H1164 H 0.6929 0.07708 0.78249 0.0
H1165 H 0.67037 0.05033 0.83048 0.0
H1166 H 0.61677 0.94912 0.83028 0.0
H1167 H 0.60874 0.94999 0.77709 0.0
C1168 C 0.63608 1.00079 0.74076 0.0
C1169 C 0.65663 0.02781 0.72377 0.0
C1170 C 0.63863 1.00017 0.77217 0.0
C1171 C 0.67755 0.05481 0.74005 0.0
C1172 C 0.677 0.05544 0.77121 0.0
C1173 C 0.65861 0.02802 0.81915 0.0
C1174 C 0.64466 0.99957 0.83575 0.0
C1175 C 0.65794 0.02811 0.78765 0.0
C1176 C 0.62732 0.97164 0.81928 0.0
C1177 C 0.62306 0.97205 0.78844 0.0
H1178 H 0.01322 0.60838 0.82323 0.0
H1179 H 0.03619 0.70435 0.83405 0.0
H1180 H 0.02892 0.70826 0.78106 0.0
H1181 H 0.01437 0.68411 0.73111 0.0
H1182 H 0.99397 0.589 0.71913 0.0
H1183 H 1.00121 0.5849 0.77226 0.0
C1184 C 0.01711 0.63029 0.8139 0.0
C1185 C 0.0257 0.65625 0.83299 0.0
C1186 C 0.01282 0.63238 0.78288 0.0
C1187 C 0.03003 0.68417 0.82021 0.0
C1188 C 0.02564 0.68633 0.78974 0.0
C1189 C 0.01173 0.6625 0.74 0.0
C1190 C 1.00345 0.63683 0.72057 0.0
C1191 C 0.01677 0.66056 0.77077 0.0
C1192 C 0.99997 0.60909 0.73311 0.0
C1193 C 1.00433 0.6068 0.76368 0.0
H1194 H 0.60376 0.59421 0.33292 0.0
H1195 H 0.5572 0.63809 0.29067 0.0
H1196 H 0.56908 0.62479 0.24215 0.0
H1197 H 0.59556 0.60387 0.2116 0.0
H1198 H 0.64511 0.56271 0.25334 0.0
H1199 H 0.62843 0.57085 0.30187 0.0
C1200 C 0.59574 0.60034 0.31308 0.0
C1201 C 0.57961 0.61721 0.31551 0.0
C1202 C 0.60328 0.59315 0.28506 0.0
C1203 C 0.56979 0.62533 0.28951 0.0
C1204 C 0.5766 0.61771 0.26172 0.0
C1205 C 0.60289 0.59672 0.23125 0.0
C1206 C 0.62199 0.58296 0.22852 0.0
C1207 C 0.5939 0.60223 0.2592 0.0
C1208 C 0.63031 0.57313 0.25445 0.0
C1209 C 0.62097 0.57805 0.28235 0.0
H1210 H 0.45936 0.03172 0.23012 0.0
H1211 H 0.38648 0.05614 0.23271 0.0
H1212 H 0.36498 0.02523 0.27719 0.0
H1213 H 0.36687 0.99228 0.31626 0.0
H1214 H 0.43879 0.96683 0.31541 0.0
H1215 H 0.45976 0.99599 0.26909 0.0
C1216 C 0.4387 0.03017 0.24032 0.0
C1217 C 0.42519 0.04713 0.22813 0.0
C1218 C 0.42598 0.01184 0.26621 0.0
C1219 C 0.39822 0.04444 0.24183 0.0
C1220 C 0.38558 0.02639 0.26724 0.0
C1221 C 0.38723 0.99312 0.30607 0.0
C1222 C 0.4014 0.9776 0.31967 0.0
C1223 C 0.39939 0.01029 0.2798 0.0
C1224 C 0.42727 0.97839 0.30552 0.0
C1225 C 0.43943 0.99533 0.27911 0.0
H1226 H 0.03165 0.3895 0.31868 0.0
H1227 H 0.05413 0.48599 0.32104 0.0
H1228 H 0.02348 0.47779 0.27575 0.0
H1229 H 0.98736 0.44176 0.23684 0.0
H1230 H 0.96627 0.34539 0.23616 0.0
H1231 H 0.99843 0.35489 0.27962 0.0
C1232 C 0.02986 0.40882 0.30939 0.0
C1233 C 0.04494 0.43824 0.32357 0.0
C1234 C 0.01186 0.40379 0.28376 0.0
C1235 C 0.0429 0.46312 0.31063 0.0
C1236 C 0.02512 0.45833 0.28483 0.0
C1237 C 0.98987 0.42288 0.24614 0.0
C1238 C 0.97343 0.39259 0.23338 0.0
C1239 C 0.00901 0.42856 0.27139 0.0
C1240 C 0.97744 0.36862 0.24583 0.0
C1241 C 0.99624 0.37409 0.27063 0.0
H1242 H 0.21678 0.85725 0.41444 0.0
H1243 H 0.27877 0.87337 0.34111 0.0
H1244 H 0.23414 0.83728 0.31039 0.0
H1245 H 0.17776 0.79714 0.30583 0.0
H1246 H 0.11586 0.78298 0.37931 0.0
H1247 H 0.15978 0.82153 0.40814 0.0
C1248 C 0.22032 0.85364 0.39143 0.0
C1249 C 0.25105 0.86853 0.37992 0.0
C1250 C 0.1945 0.83233 0.37401 0.0
C1251 C 0.25532 0.86277 0.35031 0.0
C1252 C 0.22979 0.84178 0.33284 0.0
C1253 C 0.17364 0.80265 0.32798 0.0
C1254 C 0.14311 0.78591 0.34031 0.0
C1255 C 0.19925 0.82575 0.34464 0.0
C1256 C 0.13889 0.79404 0.36922 0.0
C1257 C 0.16411 0.81661 0.38582 0.0
H1258 H 0.2248 0.38976 0.30551 0.0
H1259 H 0.23443 0.3387 0.37842 0.0
H1260 H 0.19696 0.34601 0.40711 0.0
H1261 H 0.16386 0.37008 0.41354 0.0
H1262 H 0.15159 0.41878 0.3406 0.0
H1263 H 0.18661 0.40848 0.30997 0.0
C1264 C 0.21849 0.37982 0.32749 0.0
C1265 C 0.2337 0.36456 0.33979 0.0
C1266 C 0.19599 0.38345 0.34403 0.0
C1267 C 0.22458 0.35179 0.36845 0.0
C1268 C 0.20265 0.35558 0.38495 0.0
C1269 C 0.16803 0.37749 0.39062 0.0
C1270 C 0.15466 0.3947 0.37922 0.0
C1271 C 0.18855 0.3718 0.37323 0.0
C1272 C 0.1611 0.40497 0.34971 0.0
C1273 C 0.18145 0.39939 0.3323 0.0
H1274 H 0.6927 0.89156 0.36575 0.0
H1275 H 0.62774 0.84538 0.29422 0.0
H1276 H 0.61286 0.79435 0.31578 0.0
H1277 H 0.61551 0.76252 0.35685 0.0
H1278 H 0.67885 0.80854 0.42917 0.0
H1279 H 0.69719 0.85967 0.40551 0.0
C1280 C 0.67518 0.87039 0.35485 0.0
C1281 C 0.66127 0.8727 0.32831 0.0
C1282 C 0.66644 0.84091 0.3676 0.0
C1283 C 0.63913 0.84468 0.3144 0.0
C1284 C 0.63043 0.81535 0.32686 0.0
C1285 C 0.63368 0.78378 0.36714 0.0
C1286 C 0.64585 0.78178 0.39477 0.0
C1287 C 0.64361 0.81315 0.35364 0.0
C1288 C 0.66927 0.80945 0.40792 0.0
C1289 C 0.67956 0.83869 0.39446 0.0
H1290 H 0.80948 0.16529 0.24386 0.0
H1291 H 0.7482 0.11328 0.17182 0.0
H1292 H 0.78107 0.15582 0.13763 0.0
H1293 H 0.82777 0.20815 0.12795 0.0
H1294 H 0.88586 0.26185 0.20103 0.0
H1295 H 0.8547 0.21819 0.2346 0.0
C1296 C 0.80322 0.16328 0.22069 0.0
C1297 C 0.77618 0.13596 0.21057 0.0
C1298 C 0.82219 0.18803 0.20112 0.0
C1299 C 0.76848 0.13406 0.18043 0.0
C1300 C 0.78752 0.15831 0.16076 0.0
C1301 C 0.83375 0.21011 0.15119 0.0
C1302 C 0.85962 0.23819 0.16174 0.0
C1303 C 0.81457 0.18539 0.17078 0.0
C1304 C 0.86667 0.24041 0.19207 0.0
C1305 C 0.84854 0.21554 0.2114 0.0
H1306 H 0.80673 0.61932 0.13706 0.0
H1307 H 0.7667 0.65363 0.2014 0.0
H1308 H 0.81335 0.67168 0.23274 0.0
H1309 H 0.86432 0.67436 0.24344 0.0
H1310 H 0.90123 0.63531 0.18045 0.0
H1311 H 0.85695 0.62174 0.14763 0.0
C1312 C 0.80829 0.63087 0.15792 0.0
C1313 C 0.78303 0.63482 0.16699 0.0
C1314 C 0.8345 0.63978 0.17642 0.0
C1315 C 0.78568 0.65022 0.1939 0.0
C1316 C 0.81228 0.6603 0.21193 0.0
C1317 C 0.86268 0.66294 0.22249 0.0
C1318 C 0.88618 0.65569 0.21466 0.0
C1319 C 0.83662 0.65463 0.20374 0.0
C1320 C 0.88343 0.64075 0.1874 0.0
C1321 C 0.85816 0.63318 0.16845 0.0
H1322 H 0.33498 0.21938 0.19138 0.0
H1323 H 0.41246 0.25493 0.25236 0.0
H1324 H 0.42998 0.22089 0.23026 0.0
H1325 H 0.42385 0.18144 0.19301 0.0
H1326 H 0.34978 0.15007 0.12871 0.0
H1327 H 0.32976 0.18099 0.15313 0.0
C1328 C 0.35566 0.2196 0.19988 0.0
C1329 C 0.37235 0.23976 0.2236 0.0
C1330 C 0.36596 0.2003 0.18665 0.0
C1331 C 0.39932 0.23995 0.23404 0.0
C1332 C 0.40923 0.2203 0.22151 0.0
C1333 C 0.40318 0.18123 0.18449 0.0
C1334 C 0.38811 0.16307 0.15922 0.0
C1335 C 0.39279 0.2004 0.19777 0.0
C1336 C 0.36149 0.16328 0.14838 0.0
C1337 C 0.35027 0.18129 0.16217 0.0
H1338 H 0.84278 0.14369 0.64105 0.0
H1339 H 0.78139 0.11031 0.71707 0.0
H1340 H 0.82398 0.14655 0.74863 0.0
H1341 H 0.8798 0.18624 0.75587 0.0
H1342 H 0.9411 0.22129 0.68044 0.0
H1343 H 0.89758 0.187 0.6477 0.0
C1344 C 0.83844 0.14448 0.66441 0.0
C1345 C 0.8086 0.12321 0.67637 0.0
C1346 C 0.8632 0.16616 0.68278 0.0
C1347 C 0.80405 0.12515 0.70696 0.0
C1348 C 0.82845 0.14632 0.72521 0.0
C1349 C 0.88334 0.1869 0.73217 0.0
C1350 C 0.91355 0.20661 0.72056 0.0
C1351 C 0.85824 0.16669 0.71351 0.0
C1352 C 0.91797 0.20673 0.68985 0.0
C1353 C 0.89312 0.18684 0.67117 0.0
H1354 H 0.8866 0.71977 0.63944 0.0
H1355 H 0.89568 0.66602 0.71009 0.0
H1356 H 0.85713 0.67128 0.73917 0.0
H1357 H 0.8233 0.69439 0.74677 0.0
H1358 H 0.81249 0.7468 0.67641 0.0
H1359 H 0.84814 0.73812 0.64507 0.0
C1360 C 0.87992 0.70883 0.661 0.0
C1361 C 0.89518 0.69331 0.67259 0.0
C1362 C 0.85696 0.71147 0.67782 0.0
C1363 C 0.88565 0.67923 0.70071 0.0
C1364 C 0.86315 0.68187 0.71742 0.0
C1365 C 0.82794 0.70297 0.72422 0.0
C1366 C 0.81471 0.72068 0.71374 0.0
C1367 C 0.84899 0.69836 0.70649 0.0
C1368 C 0.82181 0.73252 0.68476 0.0
C1369 C 0.84254 0.72787 0.66696 0.0
H1370 H 0.28771 0.13377 0.74761 0.0
H1371 H 0.32534 0.09655 0.68371 0.0
H1372 H 0.34402 0.14406 0.65348 0.0
H1373 H 0.34652 0.19509 0.64356 0.0
H1374 H 0.30417 0.22917 0.7059 0.0
H1375 H 0.28978 0.18395 0.73771 0.0
C1376 C 0.3001 0.13611 0.72708 0.0
C1377 C 0.30483 0.11138 0.71784 0.0
C1378 C 0.3094 0.16283 0.70916 0.0
C1379 C 0.32132 0.11508 0.69137 0.0
C1380 C 0.33176 0.14219 0.67395 0.0
C1381 C 0.33419 0.19263 0.66413 0.0
C1382 C 0.32629 0.21564 0.67208 0.0
C1383 C 0.32541 0.16602 0.6823 0.0
C1384 C 0.31017 0.2118 0.69885 0.0
C1385 C 0.30211 0.18597 0.71724 0.0
H1386 H 0.17692 0.87134 0.79412 0.0
H1387 H 0.21323 0.93472 0.86792 0.0
H1388 H 0.17886 0.89236 0.90171 0.0
H1389 H 0.13553 0.83792 0.90984 0.0
H1390 H 0.10058 0.77437 0.83552 0.0
H1391 H 0.13653 0.81594 0.80279 0.0
C1392 C 0.17776 0.87561 0.8177 0.0
C1393 C 0.19791 0.90608 0.82851 0.0
C1394 C 0.15747 0.85116 0.83698 0.0
C1395 C 0.19831 0.91141 0.85908 0.0
C1396 C 0.17838 0.8872 0.87837 0.0
C1397 C 0.13587 0.83288 0.88659 0.0
C1398 C 0.11435 0.80269 0.8755 0.0
C1399 C 0.15737 0.85703 0.86755 0.0
C1400 C 0.11567 0.7973 0.84501 0.0
C1401 C 0.13668 0.82111 0.82609 0.0
H1402 H 0.14167 0.29394 0.80208 0.0
H1403 H 0.10079 0.32607 0.86766 0.0
H1404 H 0.14684 0.34265 0.89953 0.0
H1405 H 0.19743 0.34446 0.91031 0.0
H1406 H 0.23493 0.30723 0.84603 0.0
H1407 H 0.19147 0.29548 0.8127 0.0
C1408 C 0.14291 0.3047 0.82333 0.0
C1409 C 0.11756 0.30843 0.83258 0.0
C1410 C 0.16873 0.3127 0.84211 0.0
C1411 C 0.11983 0.32283 0.86 0.0
C1412 C 0.14609 0.33206 0.87834 0.0
C1413 C 0.19609 0.33384 0.88898 0.0
C1414 C 0.21951 0.32656 0.88091 0.0
C1415 C 0.17045 0.32651 0.86994 0.0
C1416 C 0.21718 0.31268 0.85314 0.0
C1417 C 0.19237 0.30614 0.83391 0.0
H1418 H 0.71931 0.85176 0.79915 0.0
H1419 H 0.70815 0.79082 0.87198 0.0
H1420 H 0.69288 0.82079 0.9043 0.0
H1421 H 0.68621 0.86694 0.91303 0.0
H1422 H 0.70449 0.9318 0.84178 0.0
H1423 H 0.71407 0.89851 0.80813 0.0
C1424 C 0.71304 0.84478 0.822 0.0
C1425 C 0.71422 0.81852 0.83282 0.0
C1426 C 0.70624 0.86343 0.84103 0.0
C1427 C 0.70664 0.81028 0.86271 0.0
C1428 C 0.69835 0.82776 0.88138 0.0
C1429 C 0.69225 0.87371 0.89012 0.0
C1430 C 0.69469 0.90194 0.87999 0.0
C1431 C 0.69861 0.85476 0.87098 0.0
C1432 C 0.70274 0.91042 0.85025 0.0
C1433 C 0.70806 0.89126 0.83093 0.0
H1434 H 0.46707 0.46369 0.5249 0.0
H1435 H 0.45341 0.51083 0.59905 0.0
H1436 H 0.49297 0.56141 0.57904 0.0
H1437 H 0.52935 0.59306 0.53868 0.0
H1438 H 0.53929 0.54589 0.4628 0.0
H1439 H 0.50375 0.49499 0.48525 0.0
C1440 C 0.47238 0.48494 0.5367 0.0
C1441 C 0.45668 0.48291 0.5636 0.0
C1442 C 0.49493 0.51424 0.52476 0.0
C1443 C 0.46495 0.51111 0.57858 0.0
C1444 C 0.4876 0.54027 0.56702 0.0
C1445 C 0.52423 0.57158 0.52741 0.0
C1446 C 0.5377 0.57345 0.49932 0.0
C1447 C 0.50259 0.54221 0.53998 0.0
C1448 C 0.53013 0.54532 0.48471 0.0
C1449 C 0.50938 0.51613 0.4974 0.0
H1450 H 0.56291 0.02713 0.52642 0.0
H1451 H 0.52139 0.94558 0.58278 0.0
H1452 H 0.47034 0.92772 0.55974 0.0
H1453 H 0.43724 0.93457 0.52293 0.0
H1454 H 0.47902 0.01394 0.4642 0.0
H1455 H 0.52967 0.03388 0.48934 0.0
C1456 C 0.54267 0.00553 0.53382 0.0
C1457 C 0.54629 0.98776 0.55645 0.0
C1458 C 0.51321 0.99515 0.52016 0.0
C1459 C 0.51966 0.95962 0.5653 0.0
C1460 C 0.4903 0.94947 0.55223 0.0
C1461 C 0.45745 0.9563 0.5157 0.0
C1462 C 0.45431 0.97267 0.49154 0.0
C1463 C 0.48678 0.96694 0.52957 0.0
C1464 C 0.4807 1.00092 0.48268 0.0
C1465 C 0.50973 0.01217 0.49695 0.0
H1466 H 0.09129 0.51699 0.52483 0.0
H1467 H 0.01268 0.47805 0.46521 0.0
H1468 H 0.99211 0.50876 0.48935 0.0
H1469 H 0.9981 0.54908 0.52586 0.0
H1470 H 0.07931 0.59099 0.58254 0.0
H1471 H 0.09771 0.55767 0.5606 0.0
C1472 C 0.06963 0.51524 0.51713 0.0
C1473 C 0.05366 0.49538 0.49302 0.0
C1474 C 0.05872 0.53401 0.53032 0.0
C1475 C 0.02542 0.4931 0.48363 0.0
C1476 C 0.01381 0.51087 0.49733 0.0
C1477 C 0.01978 0.55085 0.53349 0.0
C1478 C 0.03728 0.5727 0.55592 0.0
C1479 C 0.03051 0.53181 0.52041 0.0
C1480 C 0.06551 0.57479 0.56519 0.0
C1481 C 0.07594 0.55552 0.55277 0.0
H1482 H 0.50809 0.46222 0.97687 0.0
H1483 H 0.44589 0.43717 0.05213 0.0
H1484 H 0.48903 0.47402 0.08272 0.0
H1485 H 0.54542 0.51221 0.0895 0.0
H1486 H 0.60733 0.53977 1.01444 0.0
H1487 H 0.5635 0.50428 0.98258 0.0
C1488 C 0.50366 0.46494 0.99982 0.0
C1489 C 0.47334 0.44569 1.01192 0.0
C1490 C 0.52874 0.48718 1.01755 0.0
C1491 C 0.46881 0.45021 0.04198 0.0
C1492 C 0.49356 0.47181 0.05965 0.0
C1493 C 0.54906 0.51098 0.06601 0.0
C1494 C 0.5795 0.52895 0.05427 0.0
C1495 C 0.52371 0.49021 0.04785 0.0
C1496 C 0.58402 0.52661 1.02389 0.0
C1497 C 0.55898 0.50603 1.00574 0.0
H1498 H 0.5644 0.05971 0.97549 0.0
H1499 H 0.57804 0.01095 0.04811 0.0
H1500 H 0.53986 0.0165 0.07743 0.0
H1501 H 0.50428 0.03785 0.08426 0.0
H1502 H 0.48859 0.08457 1.0117 0.0
H1503 H 0.52465 0.07627 0.98062 0.0
C1504 C 0.55886 0.04991 0.99756 0.0
C1505 C 0.57531 0.03575 1.0095 0.0
C1506 C 0.53596 0.0525 1.01447 0.0
C1507 C 0.56719 0.0232 0.03833 0.0
C1508 C 0.54484 0.02595 0.05521 0.0
C1509 C 0.50811 0.04535 0.06137 0.0
C1510 C 0.49337 0.06132 0.05014 0.0
C1511 C 0.52933 0.04091 0.04374 0.0
C1512 C 0.49918 0.07167 1.02066 0.0
C1513 C 0.52011 0.06724 1.00299 0.0
H1514 H 0.01201 0.52653 0.97736 0.0
H1515 H 0.97743 0.56497 0.04332 0.0
H1516 H 0.96441 0.52055 0.0758 0.0
H1517 H 0.96045 0.46944 0.08496 0.0
H1518 H 0.98969 0.42767 1.01768 0.0
H1519 H 0.00819 0.47479 0.98688 0.0
C1520 C 1.00173 0.52519 0.99889 0.0
C1521 C 0.99552 0.54913 1.00769 0.0
C1522 C 0.9936 0.49898 1.01741 0.0
C1523 C 0.98206 0.54683 0.03569 0.0
C1524 C 0.97479 0.52146 0.05442 0.0
C1525 C 0.97112 0.47079 0.06362 0.0
C1526 C 0.97342 0.44488 0.05354 0.0
C1527 C 0.98014 0.49725 0.04545 0.0
C1528 C 0.98759 0.44717 1.02598 0.0
C1529 C 0.99789 0.47404 1.00825 0.0
loop_
_geom_bond_atom_site_label_1
_geom_bond_atom_site_label_2
_geom_bond_distance
_geom_bond_site_symmetry_2
_ccdc_geom_bond_type
C0 C1 1.436 . S
C0 N4 1.376 1_655 S
C0 C38 1.389 . S
C1 C0 1.436 . S
C1 C2 1.344 1_655 S
C1 H41 0.955 . S
C2 C1 1.344 1_455 S
C2 C3 1.439 . S
C2 H42 0.950 . S
C3 C2 1.439 . S
C3 N4 1.374 . S
C3 C37 1.395 . S
N4 C0 1.376 1_455 S
N4 C3 1.374 . S
N4 Co5 2.008 . S
Co5 N4 2.008 . S
Co5 N6 1.995 . S
Co5 N11 2.008 . S
Co5 N16 1.995 1_455 S
Co5 N21 2.282 1_455 S
Co5 N27 2.282 . S
N6 Co5 1.995 . S
N6 C7 1.376 . S
N6 C10 1.383 . S
C7 N6 1.376 . S
C7 C8 1.446 . S
C7 C37 1.391 . S
C8 C7 1.446 . S
C8 C9 1.339 . S
C8 H43 0.949 . S
C9 C8 1.339 . S
C9 C10 1.439 . S
C9 H44 0.950 . S
C10 N6 1.383 . S
C10 C9 1.439 . S
C10 C39 1.392 . S
N11 Co5 2.008 . S
N11 C12 1.376 . S
N11 C15 1.374 . S
C12 N11 1.376 . S
C12 C13 1.443 . S
C12 C39 1.389 . S
C13 C12 1.443 . S
C13 C14 1.340 . S
C13 H45 0.951 . S
C14 C13 1.340 . S
C14 C15 1.439 . S
C14 H46 0.950 . S
C15 N11 1.374 . S
C15 C14 1.439 . S
C15 C40 1.396 1_455 S
N16 Co5 1.995 1_655 S
N16 C17 1.376 . S
N16 C20 1.383 . S
C17 N16 1.376 . S
C17 C18 1.446 . S
C17 C40 1.394 . S
C18 C17 1.446 . S
C18 C19 1.339 . S
C18 H47 0.949 . S
C19 C18 1.339 . S
C19 C20 1.439 . S
C19 H48 0.950 . S
C20 N16 1.383 . S
C20 C19 1.439 . S
C20 C38 1.392 . S
N21 Co5 2.282 1_655 S
N21 C24 1.332 . S
N21 C26 1.332 . S
C22 C23 1.386 . S
C22 C25 1.388 . S
C23 C22 1.386 . S
C23 C24 1.382 . S
C23 H49 0.950 . S
C24 N21 1.332 . S
C24 C23 1.382 . S
C24 H35 0.952 . S
C25 C22 1.388 . S
C25 C26 1.382 . S
C25 H50 0.950 . S
C26 N21 1.332 . S
C26 C25 1.382 . S
C26 H36 0.948 . S
N27 Co5 2.282 . S
N27 C31 1.332 . S
N27 C32 1.332 . S
C28 C29 1.388 . S
C28 C32 1.382 . S
C28 H51 0.950 . S
C29 C28 1.388 . S
C29 C30 1.386 . S
C30 C29 1.386 . S
C30 C31 1.382 . S
C30 H52 0.950 . S
C31 N27 1.332 . S
C31 C30 1.382 . S
C31 H33 0.952 . S
C32 N27 1.332 . S
C32 C28 1.382 . S
C32 H34 0.948 . S
H33 C31 0.952 . S
H34 C32 0.948 . S
H35 C24 0.952 . S
H36 C26 0.948 . S
C37 C3 1.395 . S
C37 C7 1.391 . S
C38 C0 1.389 . S
C38 C20 1.392 . S
C39 C10 1.392 . S
C39 C12 1.389 . S
C40 C15 1.396 1_655 S
C40 C17 1.394 . S
H41 C1 0.955 . S
H42 C2 0.950 . S
H43 C8 0.949 . S
H44 C9 0.950 . S
H45 C13 0.951 . S
H46 C14 0.950 . S
H47 C18 0.949 . S
H48 C19 0.950 . S
H49 C23 0.950 . S
H50 C25 0.950 . S
H51 C28 0.950 . S
H52 C30 0.950 . S
C53 C54 1.443 . S
C53 N57 1.376 . S
C53 C91 1.389 . S
C54 C53 1.443 . S
C54 C55 1.340 . S
C54 H94 0.951 . S
C55 C54 1.340 . S
C55 C56 1.439 . S
C55 H95 0.950 . S
C56 C55 1.439 . S
C56 N57 1.374 . S
C56 C90 1.395 . S
N57 C53 1.376 . S
N57 C56 1.374 . S
N57 Co58 2.008 . S
Co58 N57 2.008 . S
Co58 N59 1.995 . S
Co58 N64 2.008 . S
Co58 N69 1.995 . S
Co58 N74 2.282 . S
Co58 N80 2.282 . S
N59 Co58 1.995 . S
N59 C60 1.376 . S
N59 C63 1.383 . S
C60 N59 1.376 . S
C60 C61 1.446 . S
C60 C90 1.391 . S
C61 C60 1.446 . S
C61 C62 1.339 . S
C61 H96 0.949 . S
C62 C61 1.339 . S
C62 C63 1.439 . S
C62 H97 0.950 . S
C63 N59 1.383 . S
C63 C62 1.439 . S
C63 C92 1.392 . S
N64 Co58 2.008 . S
N64 C65 1.376 . S
N64 C68 1.374 . S
C65 N64 1.376 . S
C65 C66 1.443 . S
C65 C92 1.389 . S
C66 C65 1.443 . S
C66 C67 1.340 . S
C66 H98 0.951 . S
C67 C66 1.340 . S
C67 C68 1.439 . S
C67 H99 0.950 . S
C68 N64 1.374 . S
C68 C67 1.439 . S
C68 C93 1.395 . S
N69 Co58 1.995 . S
N69 C70 1.376 . S
N69 C73 1.383 . S
C70 N69 1.376 . S
C70 C71 1.446 . S
C70 C93 1.391 . S
C71 C70 1.446 . S
C71 C72 1.339 . S
C71 H100 0.949 . S
C72 C71 1.339 . S
C72 C73 1.439 . S
C72 H101 0.950 . S
C73 N69 1.383 . S
C73 C72 1.439 . S
C73 C91 1.392 . S
N74 Co58 2.282 . S
N74 C77 1.332 . S
N74 C79 1.332 . S
C75 C76 1.386 . S
C75 C78 1.388 . S
C76 C75 1.386 . S
C76 C77 1.382 . S
C76 H102 0.950 . S
C77 N74 1.332 . S
C77 C76 1.382 . S
C77 H88 0.952 . S
C78 C75 1.388 . S
C78 C79 1.382 . S
C78 H103 0.950 . S
C79 N74 1.332 . S
C79 C78 1.382 . S
C79 H89 0.948 . S
N80 Co58 2.282 . S
N80 C84 1.332 . S
N80 C85 1.332 . S
C81 C82 1.388 . S
C81 C85 1.382 . S
C81 H104 0.950 . S
C82 C81 1.388 . S
C82 C83 1.386 . S
C83 C82 1.386 . S
C83 C84 1.382 . S
C83 H105 0.950 . S
C84 N80 1.332 . S
C84 C83 1.382 . S
C84 H86 0.952 . S
C85 N80 1.332 . S
C85 C81 1.382 . S
C85 H87 0.948 . S
H86 C84 0.952 . S
H87 C85 0.948 . S
H88 C77 0.952 . S
H89 C79 0.948 . S
C90 C56 1.395 . S
C90 C60 1.391 . S
C91 C53 1.389 . S
C91 C73 1.392 . S
C92 C63 1.392 . S
C92 C65 1.389 . S
C93 C68 1.395 . S
C93 C70 1.391 . S
H94 C54 0.951 . S
H95 C55 0.950 . S
H96 C61 0.949 . S
H97 C62 0.950 . S
H98 C66 0.951 . S
H99 C67 0.950 . S
H100 C71 0.949 . S
H101 C72 0.950 . S
H102 C76 0.950 . S
H103 C78 0.950 . S
H104 C81 0.950 . S
H105 C83 0.950 . S
C106 C107 1.436 . S
C106 N110 1.376 1_565 S
C106 C144 1.389 . S
C107 C106 1.436 . S
C107 C108 1.344 1_565 S
C107 H147 0.955 . S
C108 C107 1.344 1_545 S
C108 C109 1.439 . S
C108 H148 0.950 . S
C109 C108 1.439 . S
C109 N110 1.374 . S
C109 C143 1.395 . S
N110 C106 1.376 1_545 S
N110 C109 1.374 . S
N110 Co111 2.008 . S
Co111 N110 2.008 . S
Co111 N112 1.995 . S
Co111 N117 2.008 . S
Co111 N122 1.995 1_545 S
Co111 N127 2.282 1_545 S
Co111 N133 2.282 . S
N112 Co111 1.995 . S
N112 C113 1.376 . S
N112 C116 1.383 . S
C113 N112 1.376 . S
C113 C114 1.446 . S
C113 C143 1.391 . S
C114 C113 1.446 . S
C114 C115 1.339 . S
C114 H149 0.949 . S
C115 C114 1.339 . S
C115 C116 1.439 . S
C115 H150 0.950 . S
C116 N112 1.383 . S
C116 C115 1.439 . S
C116 C145 1.392 . S
N117 Co111 2.008 . S
N117 C118 1.376 . S
N117 C121 1.374 . S
C118 N117 1.376 . S
C118 C119 1.443 . S
C118 C145 1.389 . S
C119 C118 1.443 . S
C119 C120 1.340 . S
C119 H151 0.951 . S
C120 C119 1.340 . S
C120 C121 1.439 . S
C120 H152 0.950 . S
C121 N117 1.374 . S
C121 C120 1.439 . S
C121 C146 1.396 1_545 S
N122 Co111 1.995 1_565 S
N122 C123 1.376 . S
N122 C126 1.383 . S
C123 N122 1.376 . S
C123 C124 1.446 . S
C123 C146 1.394 . S
C124 C123 1.446 . S
C124 C125 1.339 . S
C124 H153 0.949 . S
C125 C124 1.339 . S
C125 C126 1.439 . S
C125 H154 0.950 . S
C126 N122 1.383 . S
C126 C125 1.439 . S
C126 C144 1.392 . S
N127 Co111 2.282 1_565 S
N127 C130 1.332 . S
N127 C132 1.332 . S
C128 C129 1.386 . S
C128 C131 1.388 . S
C129 C128 1.386 . S
C129 C130 1.382 . S
C129 H155 0.950 . S
C130 N127 1.332 . S
C130 C129 1.382 . S
C130 H141 0.952 . S
C131 C128 1.388 . S
C131 C132 1.382 . S
C131 H156 0.950 . S
C132 N127 1.332 . S
C132 C131 1.382 . S
C132 H142 0.948 . S
N133 Co111 2.282 . S
N133 C137 1.332 . S
N133 C138 1.332 . S
C134 C135 1.388 . S
C134 C138 1.382 . S
C134 H157 0.950 . S
C135 C134 1.388 . S
C135 C136 1.386 . S
C136 C135 1.386 . S
C136 C137 1.382 . S
C136 H158 0.950 . S
C137 N133 1.332 . S
C137 C136 1.382 . S
C137 H139 0.952 . S
C138 N133 1.332 . S
C138 C134 1.382 . S
C138 H140 0.948 . S
H139 C137 0.952 . S
H140 C138 0.948 . S
H141 C130 0.952 . S
H142 C132 0.948 . S
C143 C109 1.395 . S
C143 C113 1.391 . S
C144 C106 1.389 . S
C144 C126 1.392 . S
C145 C116 1.392 . S
C145 C118 1.389 . S
C146 C121 1.396 1_565 S
C146 C123 1.394 . S
H147 C107 0.955 . S
H148 C108 0.950 . S
H149 C114 0.949 . S
H150 C115 0.950 . S
H151 C119 0.951 . S
H152 C120 0.950 . S
H153 C124 0.949 . S
H154 C125 0.950 . S
H155 C129 0.950 . S
H156 C131 0.950 . S
H157 C134 0.950 . S
H158 C136 0.950 . S
C159 C160 1.443 . S
C159 N163 1.376 . S
C159 C197 1.389 . S
C160 C159 1.443 . S
C160 C161 1.340 . S
C160 H200 0.951 . S
C161 C160 1.340 . S
C161 C162 1.439 . S
C161 H201 0.950 . S
C162 C161 1.439 . S
C162 N163 1.374 . S
C162 C196 1.395 1_655 S
N163 C159 1.376 . S
N163 C162 1.374 . S
N163 Co164 2.008 1_655 S
Co164 N163 2.008 1_455 S
Co164 N165 1.995 . S
Co164 N170 2.008 . S
Co164 N175 1.995 1_455 S
Co164 N180 2.282 1_455 S
Co164 N186 2.282 . S
N165 Co164 1.995 . S
N165 C166 1.376 . S
N165 C169 1.383 . S
C166 N165 1.376 . S
C166 C167 1.446 . S
C166 C196 1.391 . S
C167 C166 1.446 . S
C167 C168 1.339 . S
C167 H202 0.949 . S
C168 C167 1.339 . S
C168 C169 1.439 . S
C168 H203 0.950 . S
C169 N165 1.383 . S
C169 C168 1.439 . S
C169 C198 1.392 . S
N170 Co164 2.008 . S
N170 C171 1.376 . S
N170 C174 1.374 . S
C171 N170 1.376 . S
C171 C172 1.443 . S
C171 C198 1.389 . S
C172 C171 1.443 . S
C172 C173 1.340 . S
C172 H204 0.951 . S
C173 C172 1.340 . S
C173 C174 1.439 . S
C173 H205 0.950 . S
C174 N170 1.374 . S
C174 C173 1.439 . S
C174 C199 1.395 . S
N175 Co164 1.995 1_655 S
N175 C176 1.376 . S
N175 C179 1.383 . S
C176 N175 1.376 . S
C176 C177 1.446 . S
C176 C199 1.391 1_655 S
C177 C176 1.446 . S
C177 C178 1.339 . S
C177 H206 0.949 . S
C178 C177 1.339 . S
C178 C179 1.439 . S
C178 H207 0.950 . S
C179 N175 1.383 . S
C179 C178 1.439 . S
C179 C197 1.392 . S
N180 Co164 2.282 1_655 S
N180 C183 1.332 . S
N180 C185 1.332 . S
C181 C182 1.386 . S
C181 C184 1.388 . S
C182 C181 1.386 . S
C182 C183 1.382 . S
C182 H208 0.950 . S
C183 N180 1.332 . S
C183 C182 1.382 . S
C183 H194 0.952 . S
C184 C181 1.388 . S
C184 C185 1.382 . S
C184 H209 0.950 . S
C185 N180 1.332 . S
C185 C184 1.382 . S
C185 H195 0.948 1_655 S
N186 Co164 2.282 . S
N186 C190 1.332 . S
N186 C191 1.332 . S
C187 C188 1.388 . S
C187 C191 1.382 . S
C187 H210 0.950 . S
C188 C187 1.388 . S
C188 C189 1.386 . S
C189 C188 1.386 . S
C189 C190 1.382 . S
C189 H211 0.950 . S
C190 N186 1.332 . S
C190 C189 1.382 . S
C190 H192 0.952 . S
C191 N186 1.332 . S
C191 C187 1.382 . S
C191 H193 0.948 . S
H192 C190 0.952 . S
H193 C191 0.948 . S
H194 C183 0.952 . S
H195 C185 0.948 1_455 S
C196 C162 1.395 1_455 S
C196 C166 1.391 . S
C197 C159 1.389 . S
C197 C179 1.392 . S
C198 C169 1.392 . S
C198 C171 1.389 . S
C199 C174 1.395 . S
C199 C176 1.391 1_455 S
H200 C160 0.951 . S
H201 C161 0.950 . S
H202 C167 0.949 . S
H203 C168 0.950 . S
H204 C172 0.951 . S
H205 C173 0.950 . S
H206 C177 0.949 . S
H207 C178 0.950 . S
H208 C182 0.950 . S
H209 C184 0.950 . S
H210 C187 0.950 . S
H211 C189 0.950 . S
C212 C213 1.443 . S
C212 N216 1.376 . S
C212 C250 1.389 . S
C213 C212 1.443 . S
C213 C214 1.340 . S
C213 H253 0.951 . S
C214 C213 1.340 . S
C214 C215 1.439 . S
C214 H254 0.950 . S
C215 C214 1.439 . S
C215 N216 1.374 . S
C215 C249 1.395 . S
N216 C212 1.376 . S
N216 C215 1.374 . S
N216 Co217 2.008 . S
Co217 N216 2.008 . S
Co217 N218 1.995 . S
Co217 N223 2.008 . S
Co217 N228 1.995 . S
Co217 N233 2.282 . S
Co217 N239 2.282 . S
N218 Co217 1.995 . S
N218 C219 1.376 . S
N218 C222 1.383 . S
C219 N218 1.376 . S
C219 C220 1.446 . S
C219 C249 1.391 . S
C220 C219 1.446 . S
C220 C221 1.339 . S
C220 H255 0.949 . S
C221 C220 1.339 . S
C221 C222 1.439 . S
C221 H256 0.950 . S
C222 N218 1.383 . S
C222 C221 1.439 . S
C222 C251 1.392 . S
N223 Co217 2.008 . S
N223 C224 1.376 . S
N223 C227 1.374 . S
C224 N223 1.376 . S
C224 C225 1.443 . S
C224 C251 1.389 . S
C225 C224 1.443 . S
C225 C226 1.340 . S
C225 H257 0.951 . S
C226 C225 1.340 . S
C226 C227 1.439 . S
C226 H258 0.950 . S
C227 N223 1.374 . S
C227 C226 1.439 . S
C227 C252 1.395 . S
N228 Co217 1.995 . S
N228 C229 1.376 . S
N228 C232 1.383 . S
C229 N228 1.376 . S
C229 C230 1.446 . S
C229 C252 1.391 . S
C230 C229 1.446 . S
C230 C231 1.339 . S
C230 H259 0.949 . S
C231 C230 1.339 . S
C231 C232 1.439 . S
C231 H260 0.950 . S
C232 N228 1.383 . S
C232 C231 1.439 . S
C232 C250 1.392 . S
N233 Co217 2.282 . S
N233 C236 1.332 . S
N233 C238 1.332 . S
C234 C235 1.386 . S
C234 C237 1.388 . S
C235 C234 1.386 . S
C235 C236 1.382 . S
C235 H261 0.950 . S
C236 N233 1.332 . S
C236 C235 1.382 . S
C236 H247 0.952 . S
C237 C234 1.388 . S
C237 C238 1.382 . S
C237 H262 0.950 . S
C238 N233 1.332 . S
C238 C237 1.382 . S
C238 H248 0.948 . S
N239 Co217 2.282 . S
N239 C243 1.332 . S
N239 C244 1.332 . S
C240 C241 1.388 . S
C240 C244 1.382 . S
C240 H263 0.950 . S
C241 C240 1.388 . S
C241 C242 1.386 . S
C242 C241 1.386 . S
C242 C243 1.382 . S
C242 H264 0.950 . S
C243 N239 1.332 . S
C243 C242 1.382 . S
C243 H245 0.952 . S
C244 N239 1.332 . S
C244 C240 1.382 . S
C244 H246 0.948 . S
H245 C243 0.952 . S
H246 C244 0.948 . S
H247 C236 0.952 . S
H248 C238 0.948 . S
C249 C215 1.395 . S
C249 C219 1.391 . S
C250 C212 1.389 . S
C250 C232 1.392 . S
C251 C222 1.392 . S
C251 C224 1.389 . S
C252 C227 1.395 . S
C252 C229 1.391 . S
H253 C213 0.951 . S
H254 C214 0.950 . S
H255 C220 0.949 . S
H256 C221 0.950 . S
H257 C225 0.951 . S
H258 C226 0.950 . S
H259 C230 0.949 . S
H260 C231 0.950 . S
H261 C235 0.950 . S
H262 C237 0.950 . S
H263 C240 0.950 . S
H264 C242 0.950 . S
C265 C266 1.443 . S
C265 N269 1.376 . S
C265 C303 1.389 . S
C266 C265 1.443 . S
C266 C267 1.340 . S
C266 H306 0.951 . S
C267 C266 1.340 . S
C267 C268 1.439 . S
C267 H307 0.950 . S
C268 C267 1.439 . S
C268 N269 1.374 . S
C268 C302 1.395 1_565 S
N269 C265 1.376 . S
N269 C268 1.374 . S
N269 Co270 2.008 1_565 S
Co270 N269 2.008 1_545 S
Co270 N271 1.995 . S
Co270 N276 2.008 . S
Co270 N281 1.995 1_545 S
Co270 N286 2.282 1_545 S
Co270 N292 2.282 . S
N271 Co270 1.995 . S
N271 C272 1.376 . S
N271 C275 1.383 . S
C272 N271 1.376 . S
C272 C273 1.446 . S
C272 C302 1.391 . S
C273 C272 1.446 . S
C273 C274 1.339 . S
C273 H308 0.949 . S
C274 C273 1.339 . S
C274 C275 1.439 . S
C274 H309 0.950 . S
C275 N271 1.383 . S
C275 C274 1.439 . S
C275 C304 1.392 . S
N276 Co270 2.008 . S
N276 C277 1.376 . S
N276 C280 1.374 . S
C277 N276 1.376 . S
C277 C278 1.443 . S
C277 C304 1.389 . S
C278 C277 1.443 . S
C278 C279 1.340 . S
C278 H310 0.951 . S
C279 C278 1.340 . S
C279 C280 1.439 . S
C279 H311 0.950 . S
C280 N276 1.374 . S
C280 C279 1.439 . S
C280 C305 1.395 . S
N281 Co270 1.995 1_565 S
N281 C282 1.376 . S
N281 C285 1.383 . S
C282 N281 1.376 . S
C282 C283 1.446 . S
C282 C305 1.391 1_565 S
C283 C282 1.446 . S
C283 C284 1.339 . S
C283 H312 0.949 . S
C284 C283 1.339 . S
C284 C285 1.439 . S
C284 H313 0.950 . S
C285 N281 1.383 . S
C285 C284 1.439 . S
C285 C303 1.392 . S
N286 Co270 2.282 1_565 S
N286 C289 1.332 . S
N286 C291 1.332 . S
C287 C288 1.386 . S
C287 C290 1.388 . S
C288 C287 1.386 . S
C288 C289 1.382 . S
C288 H314 0.950 . S
C289 N286 1.332 . S
C289 C288 1.382 . S
C289 H300 0.952 . S
C290 C287 1.388 . S
C290 C291 1.382 . S
C290 H315 0.950 . S
C291 N286 1.332 . S
C291 C290 1.382 . S
C291 H301 0.948 1_565 S
N292 Co270 2.282 . S
N292 C296 1.332 . S
N292 C297 1.332 . S
C293 C294 1.388 . S
C293 C297 1.382 . S
C293 H316 0.950 . S
C294 C293 1.388 . S
C294 C295 1.386 . S
C295 C294 1.386 . S
C295 C296 1.382 . S
C295 H317 0.950 . S
C296 N292 1.332 . S
C296 C295 1.382 . S
C296 H298 0.952 . S
C297 N292 1.332 . S
C297 C293 1.382 . S
C297 H299 0.948 . S
H298 C296 0.952 . S
H299 C297 0.948 . S
H300 C289 0.952 . S
H301 C291 0.948 1_545 S
C302 C268 1.395 1_545 S
C302 C272 1.391 . S
C303 C265 1.389 . S
C303 C285 1.392 . S
C304 C275 1.392 . S
C304 C277 1.389 . S
C305 C280 1.395 . S
C305 C282 1.391 1_545 S
H306 C266 0.951 . S
H307 C267 0.950 . S
H308 C273 0.949 . S
H309 C274 0.950 . S
H310 C278 0.951 . S
H311 C279 0.950 . S
H312 C283 0.949 . S
H313 C284 0.950 . S
H314 C288 0.950 . S
H315 C290 0.950 . S
H316 C293 0.950 . S
H317 C295 0.950 . S
C318 C319 1.443 . S
C318 N322 1.376 . S
C318 C356 1.389 . S
C319 C318 1.443 . S
C319 C320 1.340 . S
C319 H359 0.951 . S
C320 C319 1.340 . S
C320 C321 1.439 . S
C320 H360 0.950 . S
C321 C320 1.439 . S
C321 N322 1.374 . S
C321 C355 1.395 . S
N322 C318 1.376 . S
N322 C321 1.374 . S
N322 Co323 2.008 . S
Co323 N322 2.008 . S
Co323 N324 1.995 . S
Co323 N329 2.008 . S
Co323 N334 1.995 . S
Co323 N339 2.282 . S
Co323 N345 2.282 . S
N324 Co323 1.995 . S
N324 C325 1.376 . S
N324 C328 1.383 . S
C325 N324 1.376 . S
C325 C326 1.446 . S
C325 C355 1.391 . S
C326 C325 1.446 . S
C326 C327 1.339 . S
C326 H361 0.949 . S
C327 C326 1.339 . S
C327 C328 1.439 . S
C327 H362 0.950 . S
C328 N324 1.383 . S
C328 C327 1.439 . S
C328 C357 1.392 . S
N329 Co323 2.008 . S
N329 C330 1.376 . S
N329 C333 1.374 . S
C330 N329 1.376 . S
C330 C331 1.443 . S
C330 C357 1.389 . S
C331 C330 1.443 . S
C331 C332 1.340 1_545 S
C331 H363 0.951 . S
C332 C331 1.340 1_565 S
C332 C333 1.439 1_565 S
C332 H364 0.950 . S
C333 N329 1.374 . S
C333 C332 1.439 1_545 S
C333 C358 1.395 1_545 S
N334 Co323 1.995 . S
N334 C335 1.376 1_545 S
N334 C338 1.383 . S
C335 N334 1.376 1_565 S
C335 C336 1.446 . S
C335 C358 1.391 . S
C336 C335 1.446 . S
C336 C337 1.339 . S
C336 H365 0.949 . S
C337 C336 1.339 . S
C337 C338 1.439 1_565 S
C337 H366 0.950 . S
C338 N334 1.383 . S
C338 C337 1.439 1_545 S
C338 C356 1.392 . S
N339 Co323 2.282 . S
N339 C342 1.332 . S
N339 C344 1.332 . S
C340 C341 1.386 1_545 S
C340 C343 1.388 . S
C341 C340 1.386 1_565 S
C341 C342 1.382 1_565 S
C341 H367 0.950 . S
C342 N339 1.332 . S
C342 C341 1.382 1_545 S
C342 H353 0.952 1_545 S
C343 C340 1.388 . S
C343 C344 1.382 . S
C343 H368 0.950 . S
C344 N339 1.332 . S
C344 C343 1.382 . S
C344 H354 0.948 . S
N345 Co323 2.282 . S
N345 C349 1.332 . S
N345 C350 1.332 . S
C346 C347 1.388 . S
C346 C350 1.382 . S
C346 H369 0.950 . S
C347 C346 1.388 . S
C347 C348 1.386 . S
C348 C347 1.386 . S
C348 C349 1.382 . S
C348 H370 0.950 . S
C349 N345 1.332 . S
C349 C348 1.382 . S
C349 H351 0.952 . S
C350 N345 1.332 . S
C350 C346 1.382 . S
C350 H352 0.948 . S
H351 C349 0.952 . S
H352 C350 0.948 . S
H353 C342 0.952 1_565 S
H354 C344 0.948 . S
C355 C321 1.395 . S
C355 C325 1.391 . S
C356 C318 1.389 . S
C356 C338 1.392 . S
C357 C328 1.392 . S
C357 C330 1.389 . S
C358 C333 1.395 1_565 S
C358 C335 1.391 . S
H359 C319 0.951 . S
H360 C320 0.950 . S
H361 C326 0.949 . S
H362 C327 0.950 . S
H363 C331 0.951 . S
H364 C332 0.950 . S
H365 C336 0.949 . S
H366 C337 0.950 . S
H367 C341 0.950 . S
H368 C343 0.950 . S
H369 C346 0.950 . S
H370 C348 0.950 . S
C371 C372 1.443 . S
C371 N375 1.376 . S
C371 C409 1.389 . S
C372 C371 1.443 . S
C372 C373 1.340 . S
C372 H412 0.951 . S
C373 C372 1.340 . S
C373 C374 1.439 . S
C373 H413 0.950 . S
C374 C373 1.439 . S
C374 N375 1.374 . S
C374 C408 1.395 . S
N375 C371 1.376 . S
N375 C374 1.374 . S
N375 Co376 2.008 . S
Co376 N375 2.008 . S
Co376 N377 1.995 . S
Co376 N382 2.008 . S
Co376 N387 1.995 . S
Co376 N392 2.282 . S
Co376 N398 2.282 . S
N377 Co376 1.995 . S
N377 C378 1.376 . S
N377 C381 1.383 . S
C378 N377 1.376 . S
C378 C379 1.446 . S
C378 C408 1.391 . S
C379 C378 1.446 . S
C379 C380 1.339 . S
C379 H414 0.949 . S
C380 C379 1.339 . S
C380 C381 1.439 . S
C380 H415 0.950 . S
C381 N377 1.383 . S
C381 C380 1.439 . S
C381 C410 1.392 . S
N382 Co376 2.008 . S
N382 C383 1.376 . S
N382 C386 1.374 1_655 S
C383 N382 1.376 . S
C383 C384 1.443 1_655 S
C383 C410 1.389 . S
C384 C383 1.443 1_455 S
C384 C385 1.340 . S
C384 H416 0.951 . S
C385 C384 1.340 . S
C385 C386 1.439 . S
C385 H417 0.950 . S
C386 N382 1.374 1_455 S
C386 C385 1.439 . S
C386 C411 1.395 . S
N387 Co376 1.995 . S
N387 C388 1.376 1_655 S
N387 C391 1.383 . S
C388 N387 1.376 1_455 S
C388 C389 1.446 . S
C388 C411 1.391 . S
C389 C388 1.446 . S
C389 C390 1.339 1_455 S
C389 H418 0.949 . S
C390 C389 1.339 1_655 S
C390 C391 1.439 . S
C390 H419 0.950 . S
C391 N387 1.383 . S
C391 C390 1.439 . S
C391 C409 1.392 . S
N392 Co376 2.282 . S
N392 C395 1.332 . S
N392 C397 1.332 . S
C393 C394 1.386 . S
C393 C396 1.388 . S
C394 C393 1.386 . S
C394 C395 1.382 . S
C394 H420 0.950 . S
C395 N392 1.332 . S
C395 C394 1.382 . S
C395 H406 0.952 . S
C396 C393 1.388 . S
C396 C397 1.382 . S
C396 H421 0.950 . S
C397 N392 1.332 . S
C397 C396 1.382 . S
C397 H407 0.948 . S
N398 Co376 2.282 . S
N398 C402 1.332 . S
N398 C403 1.332 1_655 S
C399 C400 1.388 . S
C399 C403 1.382 . S
C399 H422 0.950 . S
C400 C399 1.388 . S
C400 C401 1.386 1_455 S
C401 C400 1.386 1_655 S
C401 C402 1.382 . S
C401 H423 0.950 . S
C402 N398 1.332 . S
C402 C401 1.382 . S
C402 H404 0.952 . S
C403 N398 1.332 1_455 S
C403 C399 1.382 . S
C403 H405 0.948 . S
H404 C402 0.952 . S
H405 C403 0.948 . S
H406 C395 0.952 . S
H407 C397 0.948 . S
C408 C374 1.395 . S
C408 C378 1.391 . S
C409 C371 1.389 . S
C409 C391 1.392 . S
C410 C381 1.392 . S
C410 C383 1.389 . S
C411 C386 1.395 . S
C411 C388 1.391 . S
H412 C372 0.951 . S
H413 C373 0.950 . S
H414 C379 0.949 . S
H415 C380 0.950 . S
H416 C384 0.951 . S
H417 C385 0.950 . S
H418 C389 0.949 . S
H419 C390 0.950 . S
H420 C394 0.950 . S
H421 C396 0.950 . S
H422 C399 0.950 . S
H423 C401 0.950 . S
C424 C425 1.443 . S
C424 N428 1.376 . S
C424 C462 1.389 . S
C425 C424 1.443 . S
C425 C426 1.340 . S
C425 H465 0.951 . S
C426 C425 1.340 . S
C426 C427 1.439 . S
C426 H466 0.950 . S
C427 C426 1.439 . S
C427 N428 1.374 . S
C427 C461 1.395 . S
N428 C424 1.376 . S
N428 C427 1.374 . S
N428 Co429 2.008 . S
Co429 N428 2.008 . S
Co429 N430 1.995 . S
Co429 N435 2.008 . S
Co429 N440 1.995 . S
Co429 N445 2.282 . S
Co429 N451 2.282 . S
N430 Co429 1.995 . S
N430 C431 1.376 . S
N430 C434 1.383 . S
C431 N430 1.376 . S
C431 C432 1.446 . S
C431 C461 1.391 . S
C432 C431 1.446 . S
C432 C433 1.339 . S
C432 H467 0.949 . S
C433 C432 1.339 . S
C433 C434 1.439 . S
C433 H468 0.950 . S
C434 N430 1.383 . S
C434 C433 1.439 . S
C434 C463 1.392 . S
N435 Co429 2.008 . S
N435 C436 1.376 . S
N435 C439 1.374 . S
C436 N435 1.376 . S
C436 C437 1.443 . S
C436 C463 1.389 . S
C437 C436 1.443 . S
C437 C438 1.340 . S
C437 H469 0.951 . S
C438 C437 1.340 . S
C438 C439 1.439 . S
C438 H470 0.950 . S
C439 N435 1.374 . S
C439 C438 1.439 . S
C439 C464 1.395 . S
N440 Co429 1.995 . S
N440 C441 1.376 . S
N440 C444 1.383 . S
C441 N440 1.376 . S
C441 C442 1.446 . S
C441 C464 1.391 . S
C442 C441 1.446 . S
C442 C443 1.339 . S
C442 H471 0.949 . S
C443 C442 1.339 . S
C443 C444 1.439 . S
C443 H472 0.950 . S
C444 N440 1.383 . S
C444 C443 1.439 . S
C444 C462 1.392 . S
N445 Co429 2.282 . S
N445 C448 1.332 . S
N445 C450 1.332 . S
C446 C447 1.386 . S
C446 C449 1.388 . S
C447 C446 1.386 . S
C447 C448 1.382 . S
C447 H473 0.950 . S
C448 N445 1.332 . S
C448 C447 1.382 . S
C448 H459 0.952 . S
C449 C446 1.388 . S
C449 C450 1.382 . S
C449 H474 0.950 . S
C450 N445 1.332 . S
C450 C449 1.382 . S
C450 H460 0.948 . S
N451 Co429 2.282 . S
N451 C455 1.332 . S
N451 C456 1.332 . S
C452 C453 1.388 . S
C452 C456 1.382 . S
C452 H475 0.950 . S
C453 C452 1.388 . S
C453 C454 1.386 . S
C454 C453 1.386 . S
C454 C455 1.382 . S
C454 H476 0.950 . S
C455 N451 1.332 . S
C455 C454 1.382 . S
C455 H457 0.952 . S
C456 N451 1.332 . S
C456 C452 1.382 . S
C456 H458 0.948 . S
H457 C455 0.952 . S
H458 C456 0.948 . S
H459 C448 0.952 . S
H460 C450 0.948 . S
C461 C427 1.395 . S
C461 C431 1.391 . S
C462 C424 1.389 . S
C462 C444 1.392 . S
C463 C434 1.392 . S
C463 C436 1.389 . S
C464 C439 1.395 . S
C464 C441 1.391 . S
H465 C425 0.951 . S
H466 C426 0.950 . S
H467 C432 0.949 . S
H468 C433 0.950 . S
H469 C437 0.951 . S
H470 C438 0.950 . S
H471 C442 0.949 . S
H472 C443 0.950 . S
H473 C447 0.950 . S
H474 C449 0.950 . S
H475 C452 0.950 . S
H476 C454 0.950 . S
C477 C478 1.443 . S
C477 N481 1.376 . S
C477 C515 1.389 . S
C478 C477 1.443 . S
C478 C479 1.340 . S
C478 H518 0.951 . S
C479 C478 1.340 . S
C479 C480 1.439 . S
C479 H519 0.950 . S
C480 C479 1.439 . S
C480 N481 1.374 . S
C480 C514 1.395 . S
N481 C477 1.376 . S
N481 C480 1.374 . S
N481 Co482 2.008 . S
Co482 N481 2.008 . S
Co482 N483 1.995 . S
Co482 N488 2.008 . S
Co482 N493 1.995 . S
Co482 N498 2.282 . S
Co482 N504 2.282 . S
N483 Co482 1.995 . S
N483 C484 1.376 . S
N483 C487 1.383 . S
C484 N483 1.376 . S
C484 C485 1.446 . S
C484 C514 1.391 . S
C485 C484 1.446 . S
C485 C486 1.339 . S
C485 H520 0.949 . S
C486 C485 1.339 . S
C486 C487 1.439 . S
C486 H521 0.950 . S
C487 N483 1.383 . S
C487 C486 1.439 . S
C487 C516 1.392 . S
N488 Co482 2.008 . S
N488 C489 1.376 . S
N488 C492 1.374 . S
C489 N488 1.376 . S
C489 C490 1.443 . S
C489 C516 1.389 . S
C490 C489 1.443 . S
C490 C491 1.340 . S
C490 H522 0.951 . S
C491 C490 1.340 . S
C491 C492 1.439 . S
C491 H523 0.950 . S
C492 N488 1.374 . S
C492 C491 1.439 . S
C492 C517 1.395 . S
N493 Co482 1.995 . S
N493 C494 1.376 . S
N493 C497 1.383 . S
C494 N493 1.376 . S
C494 C495 1.446 . S
C494 C517 1.391 . S
C495 C494 1.446 . S
C495 C496 1.339 . S
C495 H524 0.949 . S
C496 C495 1.339 . S
C496 C497 1.439 . S
C496 H525 0.950 . S
C497 N493 1.383 . S
C497 C496 1.439 . S
C497 C515 1.392 . S
N498 Co482 2.282 . S
N498 C501 1.332 . S
N498 C503 1.332 . S
C499 C500 1.386 . S
C499 C502 1.388 . S
C500 C499 1.386 . S
C500 C501 1.382 1_556 S
C500 H526 0.950 . S
C501 N498 1.332 . S
C501 C500 1.382 1_554 S
C501 H512 0.952 . S
C502 C499 1.388 . S
C502 C503 1.382 1_556 S
C502 H527 0.950 . S
C503 N498 1.332 . S
C503 C502 1.382 1_554 S
C503 H513 0.948 . S
N504 Co482 2.282 . S
N504 C508 1.332 . S
N504 C509 1.332 . S
C505 C506 1.388 . S
C505 C509 1.382 . S
C505 H528 0.950 . S
C506 C505 1.388 . S
C506 C507 1.386 . S
C507 C506 1.386 . S
C507 C508 1.382 . S
C507 H529 0.950 . S
C508 N504 1.332 . S
C508 C507 1.382 . S
C508 H510 0.952 . S
C509 N504 1.332 . S
C509 C505 1.382 . S
C509 H511 0.948 . S
H510 C508 0.952 . S
H511 C509 0.948 . S
H512 C501 0.952 . S
H513 C503 0.948 . S
C514 C480 1.395 . S
C514 C484 1.391 . S
C515 C477 1.389 . S
C515 C497 1.392 . S
C516 C487 1.392 . S
C516 C489 1.389 . S
C517 C492 1.395 . S
C517 C494 1.391 . S
H518 C478 0.951 . S
H519 C479 0.950 . S
H520 C485 0.949 . S
H521 C486 0.950 . S
H522 C490 0.951 . S
H523 C491 0.950 . S
H524 C495 0.949 . S
H525 C496 0.950 . S
H526 C500 0.950 . S
H527 C502 0.950 . S
H528 C505 0.950 . S
H529 C507 0.950 . S
C530 C531 1.443 . S
C530 N534 1.376 . S
C530 C568 1.389 . S
C531 C530 1.443 . S
C531 C532 1.340 . S
C531 H571 0.951 . S
C532 C531 1.340 . S
C532 C533 1.439 . S
C532 H572 0.950 . S
C533 C532 1.439 . S
C533 N534 1.374 . S
C533 C567 1.395 . S
N534 C530 1.376 . S
N534 C533 1.374 . S
N534 Co535 2.008 . S
Co535 N534 2.008 . S
Co535 N536 1.995 . S
Co535 N541 2.008 . S
Co535 N546 1.995 . S
Co535 N551 2.282 . S
Co535 N557 2.282 . S
N536 Co535 1.995 . S
N536 C537 1.376 . S
N536 C540 1.383 . S
C537 N536 1.376 . S
C537 C538 1.446 . S
C537 C567 1.391 . S
C538 C537 1.446 . S
C538 C539 1.339 . S
C538 H573 0.949 . S
C539 C538 1.339 . S
C539 C540 1.439 . S
C539 H574 0.950 . S
C540 N536 1.383 . S
C540 C539 1.439 . S
C540 C569 1.392 . S
N541 Co535 2.008 . S
N541 C542 1.376 . S
N541 C545 1.374 . S
C542 N541 1.376 . S
C542 C543 1.443 . S
C542 C569 1.389 . S
C543 C542 1.443 . S
C543 C544 1.340 1_545 S
C543 H575 0.951 1_545 S
C544 C543 1.340 1_565 S
C544 C545 1.439 1_565 S
C544 H576 0.950 . S
C545 N541 1.374 . S
C545 C544 1.439 1_545 S
C545 C570 1.395 . S
N546 Co535 1.995 . S
N546 C547 1.376 . S
N546 C550 1.383 . S
C547 N546 1.376 . S
C547 C548 1.446 . S
C547 C570 1.391 . S
C548 C547 1.446 . S
C548 C549 1.339 . S
C548 H577 0.949 . S
C549 C548 1.339 . S
C549 C550 1.439 . S
C549 H578 0.950 . S
C550 N546 1.383 . S
C550 C549 1.439 . S
C550 C568 1.392 . S
N551 Co535 2.282 . S
N551 C554 1.332 . S
N551 C556 1.332 . S
C552 C553 1.386 . S
C552 C555 1.388 . S
C553 C552 1.386 . S
C553 C554 1.382 1_556 S
C553 H579 0.950 . S
C554 N551 1.332 . S
C554 C553 1.382 1_554 S
C554 H565 0.952 . S
C555 C552 1.388 . S
C555 C556 1.382 1_556 S
C555 H580 0.950 . S
C556 N551 1.332 . S
C556 C555 1.382 1_554 S
C556 H566 0.948 . S
N557 Co535 2.282 . S
N557 C561 1.332 . S
N557 C562 1.332 . S
C558 C559 1.388 . S
C558 C562 1.382 . S
C558 H581 0.950 . S
C559 C558 1.388 . S
C559 C560 1.386 . S
C560 C559 1.386 . S
C560 C561 1.382 . S
C560 H582 0.950 . S
C561 N557 1.332 . S
C561 C560 1.382 . S
C561 H563 0.952 . S
C562 N557 1.332 . S
C562 C558 1.382 . S
C562 H564 0.948 . S
H563 C561 0.952 . S
H564 C562 0.948 . S
H565 C554 0.952 . S
H566 C556 0.948 . S
C567 C533 1.395 . S
C567 C537 1.391 . S
C568 C530 1.389 . S
C568 C550 1.392 . S
C569 C540 1.392 . S
C569 C542 1.389 . S
C570 C545 1.395 . S
C570 C547 1.391 . S
H571 C531 0.951 . S
H572 C532 0.950 . S
H573 C538 0.949 . S
H574 C539 0.950 . S
H575 C543 0.951 1_565 S
H576 C544 0.950 . S
H577 C548 0.949 . S
H578 C549 0.950 . S
H579 C553 0.950 . S
H580 C555 0.950 . S
H581 C558 0.950 . S
H582 C560 0.950 . S
C583 C584 1.443 . S
C583 N587 1.376 . S
C583 C621 1.389 . S
C584 C583 1.443 . S
C584 C585 1.340 . S
C584 H624 0.951 . S
C585 C584 1.340 . S
C585 C586 1.439 . S
C585 H625 0.950 . S
C586 C585 1.439 . S
C586 N587 1.374 . S
C586 C620 1.395 . S
N587 C583 1.376 . S
N587 C586 1.374 . S
N587 Co588 2.008 . S
Co588 N587 2.008 . S
Co588 N589 1.995 . S
Co588 N594 2.008 . S
Co588 N599 1.995 . S
Co588 N604 2.282 . S
Co588 N610 2.282 . S
N589 Co588 1.995 . S
N589 C590 1.376 . S
N589 C593 1.383 . S
C590 N589 1.376 . S
C590 C591 1.446 . S
C590 C620 1.391 . S
C591 C590 1.446 . S
C591 C592 1.339 . S
C591 H626 0.949 . S
C592 C591 1.339 . S
C592 C593 1.439 . S
C592 H627 0.950 . S
C593 N589 1.383 . S
C593 C592 1.439 . S
C593 C622 1.392 . S
N594 Co588 2.008 . S
N594 C595 1.376 . S
N594 C598 1.374 . S
C595 N594 1.376 . S
C595 C596 1.443 1_655 S
C595 C622 1.389 . S
C596 C595 1.443 1_455 S
C596 C597 1.340 . S
C596 H628 0.951 . S
C597 C596 1.340 . S
C597 C598 1.439 1_455 S
C597 H629 0.950 . S
C598 N594 1.374 . S
C598 C597 1.439 1_655 S
C598 C623 1.395 . S
N599 Co588 1.995 . S
N599 C600 1.376 . S
N599 C603 1.383 . S
C600 N599 1.376 . S
C600 C601 1.446 . S
C600 C623 1.391 . S
C601 C600 1.446 . S
C601 C602 1.339 . S
C601 H630 0.949 . S
C602 C601 1.339 . S
C602 C603 1.439 . S
C602 H631 0.950 . S
C603 N599 1.383 . S
C603 C602 1.439 . S
C603 C621 1.392 . S
N604 Co588 2.282 . S
N604 C607 1.332 . S
N604 C609 1.332 . S
C605 C606 1.386 . S
C605 C608 1.388 . S
C606 C605 1.386 . S
C606 C607 1.382 1_556 S
C606 H632 0.950 . S
C607 N604 1.332 . S
C607 C606 1.382 1_554 S
C607 H618 0.952 . S
C608 C605 1.388 . S
C608 C609 1.382 1_556 S
C608 H633 0.950 . S
C609 N604 1.332 . S
C609 C608 1.382 1_554 S
C609 H619 0.948 . S
N610 Co588 2.282 . S
N610 C614 1.332 . S
N610 C615 1.332 . S
C611 C612 1.388 . S
C611 C615 1.382 . S
C611 H634 0.950 . S
C612 C611 1.388 . S
C612 C613 1.386 . S
C613 C612 1.386 . S
C613 C614 1.382 . S
C613 H635 0.950 . S
C614 N610 1.332 . S
C614 C613 1.382 . S
C614 H616 0.952 . S
C615 N610 1.332 . S
C615 C611 1.382 . S
C615 H617 0.948 . S
H616 C614 0.952 . S
H617 C615 0.948 . S
H618 C607 0.952 . S
H619 C609 0.948 . S
C620 C586 1.395 . S
C620 C590 1.391 . S
C621 C583 1.389 . S
C621 C603 1.392 . S
C622 C593 1.392 . S
C622 C595 1.389 . S
C623 C598 1.395 . S
C623 C600 1.391 . S
H624 C584 0.951 . S
H625 C585 0.950 . S
H626 C591 0.949 . S
H627 C592 0.950 . S
H628 C596 0.951 . S
H629 C597 0.950 . S
H630 C601 0.949 . S
H631 C602 0.950 . S
H632 C606 0.950 . S
H633 C608 0.950 . S
H634 C611 0.950 . S
H635 C613 0.950 . S
C636 C637 1.443 . S
C636 N640 1.376 . S
C636 C674 1.389 . S
C637 C636 1.443 . S
C637 C638 1.340 . S
C637 H677 0.951 1_556 S
C638 C637 1.340 . S
C638 C639 1.439 . S
C638 H678 0.950 . S
C639 C638 1.439 . S
C639 N640 1.374 . S
C639 C673 1.395 . S
N640 C636 1.376 . S
N640 C639 1.374 . S
N640 Co641 2.008 . S
Co641 N640 2.008 . S
Co641 N642 1.995 . S
Co641 N647 2.008 . S
Co641 N652 1.995 . S
Co641 N657 2.282 . S
Co641 N663 2.282 . S
N642 Co641 1.995 . S
N642 C643 1.376 . S
N642 C646 1.383 . S
C643 N642 1.376 . S
C643 C644 1.446 . S
C643 C673 1.391 . S
C644 C643 1.446 . S
C644 C645 1.339 . S
C644 H679 0.949 . S
C645 C644 1.339 . S
C645 C646 1.439 . S
C645 H680 0.950 . S
C646 N642 1.383 . S
C646 C645 1.439 . S
C646 C675 1.392 . S
N647 Co641 2.008 . S
N647 C648 1.376 . S
N647 C651 1.374 . S
C648 N647 1.376 . S
C648 C649 1.443 . S
C648 C675 1.389 . S
C649 C648 1.443 . S
C649 C650 1.340 . S
C649 H681 0.951 . S
C650 C649 1.340 . S
C650 C651 1.439 . S
C650 H682 0.950 . S
C651 N647 1.374 . S
C651 C650 1.439 . S
C651 C676 1.395 . S
N652 Co641 1.995 . S
N652 C653 1.376 . S
N652 C656 1.383 . S
C653 N652 1.376 . S
C653 C654 1.446 . S
C653 C676 1.391 . S
C654 C653 1.446 . S
C654 C655 1.339 . S
C654 H683 0.949 . S
C655 C654 1.339 . S
C655 C656 1.439 . S
C655 H684 0.950 1_556 S
C656 N652 1.383 . S
C656 C655 1.439 . S
C656 C674 1.392 . S
N657 Co641 2.282 . S
N657 C660 1.332 . S
N657 C662 1.332 . S
C658 C659 1.386 . S
C658 C661 1.388 . S
C659 C658 1.386 . S
C659 C660 1.382 . S
C659 H685 0.950 . S
C660 N657 1.332 . S
C660 C659 1.382 . S
C660 H671 0.952 . S
C661 C658 1.388 . S
C661 C662 1.382 . S
C661 H686 0.950 . S
C662 N657 1.332 . S
C662 C661 1.382 . S
C662 H672 0.948 . S
N663 Co641 2.282 . S
N663 C667 1.332 . S
N663 C668 1.332 . S
C664 C665 1.388 . S
C664 C668 1.382 . S
C664 H687 0.950 . S
C665 C664 1.388 . S
C665 C666 1.386 . S
C666 C665 1.386 . S
C666 C667 1.382 . S
C666 H688 0.950 . S
C667 N663 1.332 . S
C667 C666 1.382 . S
C667 H669 0.952 . S
C668 N663 1.332 . S
C668 C664 1.382 . S
C668 H670 0.948 . S
H669 C667 0.952 . S
H670 C668 0.948 . S
H671 C660 0.952 . S
H672 C662 0.948 . S
C673 C639 1.395 . S
C673 C643 1.391 . S
C674 C636 1.389 . S
C674 C656 1.392 . S
C675 C646 1.392 . S
C675 C648 1.389 . S
C676 C651 1.395 . S
C676 C653 1.391 . S
H677 C637 0.951 1_554 S
H678 C638 0.950 . S
H679 C644 0.949 . S
H680 C645 0.950 . S
H681 C649 0.951 . S
H682 C650 0.950 . S
H683 C654 0.949 . S
H684 C655 0.950 1_554 S
H685 C659 0.950 . S
H686 C661 0.950 . S
H687 C664 0.950 . S
H688 C666 0.950 . S
C689 C690 1.443 . S
C689 N693 1.376 . S
C689 C727 1.389 . S
C690 C689 1.443 . S
C690 C691 1.340 . S
C690 H730 0.951 . S
C691 C690 1.340 . S
C691 C692 1.439 . S
C691 H731 0.950 . S
C692 C691 1.439 . S
C692 N693 1.374 . S
C692 C726 1.395 . S
N693 C689 1.376 . S
N693 C692 1.374 . S
N693 Co694 2.008 . S
Co694 N693 2.008 . S
Co694 N695 1.995 . S
Co694 N700 2.008 . S
Co694 N705 1.995 . S
Co694 N710 2.282 . S
Co694 N716 2.282 . S
N695 Co694 1.995 . S
N695 C696 1.376 . S
N695 C699 1.383 . S
C696 N695 1.376 . S
C696 C697 1.446 . S
C696 C726 1.391 . S
C697 C696 1.446 . S
C697 C698 1.339 . S
C697 H732 0.949 . S
C698 C697 1.339 . S
C698 C699 1.439 . S
C698 H733 0.950 1_556 S
C699 N695 1.383 . S
C699 C698 1.439 . S
C699 C728 1.392 . S
N700 Co694 2.008 . S
N700 C701 1.376 . S
N700 C704 1.374 1_565 S
C701 N700 1.376 . S
C701 C702 1.443 1_565 S
C701 C728 1.389 . S
C702 C701 1.443 1_545 S
C702 C703 1.340 . S
C702 H734 0.951 1_556 S
C703 C702 1.340 . S
C703 C704 1.439 . S
C703 H735 0.950 . S
C704 N700 1.374 1_545 S
C704 C703 1.439 . S
C704 C729 1.395 . S
N705 Co694 1.995 . S
N705 C706 1.376 1_565 S
N705 C709 1.383 . S
C706 N705 1.376 1_545 S
C706 C707 1.446 . S
C706 C729 1.391 . S
C707 C706 1.446 . S
C707 C708 1.339 . S
C707 H736 0.949 . S
C708 C707 1.339 . S
C708 C709 1.439 1_545 S
C708 H737 0.950 . S
C709 N705 1.383 . S
C709 C708 1.439 1_565 S
C709 C727 1.392 . S
N710 Co694 2.282 . S
N710 C713 1.332 1_565 S
N710 C715 1.332 . S
C711 C712 1.386 . S
C711 C714 1.388 1_545 S
C712 C711 1.386 . S
C712 C713 1.382 . S
C712 H738 0.950 . S
C713 N710 1.332 1_545 S
C713 C712 1.382 . S
C713 H724 0.952 . S
C714 C711 1.388 1_565 S
C714 C715 1.382 . S
C714 H739 0.950 . S
C715 N710 1.332 . S
C715 C714 1.382 . S
C715 H725 0.948 . S
N716 Co694 2.282 . S
N716 C720 1.332 . S
N716 C721 1.332 . S
C717 C718 1.388 . S
C717 C721 1.382 . S
C717 H740 0.950 . S
C718 C717 1.388 . S
C718 C719 1.386 . S
C719 C718 1.386 . S
C719 C720 1.382 . S
C719 H741 0.950 . S
C720 N716 1.332 . S
C720 C719 1.382 . S
C720 H722 0.952 . S
C721 N716 1.332 . S
C721 C717 1.382 . S
C721 H723 0.948 . S
H722 C720 0.952 . S
H723 C721 0.948 . S
H724 C713 0.952 . S
H725 C715 0.948 . S
C726 C692 1.395 . S
C726 C696 1.391 . S
C727 C689 1.389 . S
C727 C709 1.392 . S
C728 C699 1.392 . S
C728 C701 1.389 . S
C729 C704 1.395 . S
C729 C706 1.391 . S
H730 C690 0.951 . S
H731 C691 0.950 . S
H732 C697 0.949 . S
H733 C698 0.950 1_554 S
H734 C702 0.951 1_554 S
H735 C703 0.950 . S
H736 C707 0.949 . S
H737 C708 0.950 . S
H738 C712 0.950 . S
H739 C714 0.950 . S
H740 C717 0.950 . S
H741 C719 0.950 . S
C742 C743 1.443 . S
C742 N746 1.376 . S
C742 C780 1.389 . S
C743 C742 1.443 . S
C743 C744 1.340 . S
C743 H783 0.951 . S
C744 C743 1.340 . S
C744 C745 1.439 . S
C744 H784 0.950 . S
C745 C744 1.439 . S
C745 N746 1.374 . S
C745 C779 1.395 . S
N746 C742 1.376 . S
N746 C745 1.374 . S
N746 Co747 2.008 . S
Co747 N746 2.008 . S
Co747 N748 1.995 . S
Co747 N753 2.008 . S
Co747 N758 1.995 . S
Co747 N763 2.282 . S
Co747 N769 2.282 . S
N748 Co747 1.995 . S
N748 C749 1.376 . S
N748 C752 1.383 . S
C749 N748 1.376 . S
C749 C750 1.446 . S
C749 C779 1.391 . S
C750 C749 1.446 . S
C750 C751 1.339 . S
C750 H785 0.949 . S
C751 C750 1.339 . S
C751 C752 1.439 . S
C751 H786 0.950 1_556 S
C752 N748 1.383 . S
C752 C751 1.439 . S
C752 C781 1.392 . S
N753 Co747 2.008 . S
N753 C754 1.376 . S
N753 C757 1.374 . S
C754 N753 1.376 . S
C754 C755 1.443 . S
C754 C781 1.389 . S
C755 C754 1.443 . S
C755 C756 1.340 1_455 S
C755 H787 0.951 1_556 S
C756 C755 1.340 1_655 S
C756 C757 1.439 1_655 S
C756 H788 0.950 . S
C757 N753 1.374 . S
C757 C756 1.439 1_455 S
C757 C782 1.395 1_455 S
N758 Co747 1.995 . S
N758 C759 1.376 1_455 S
N758 C762 1.383 . S
C759 N758 1.376 1_655 S
C759 C760 1.446 . S
C759 C782 1.391 . S
C760 C759 1.446 . S
C760 C761 1.339 . S
C760 H789 0.949 . S
C761 C760 1.339 . S
C761 C762 1.439 1_655 S
C761 H790 0.950 . S
C762 N758 1.383 . S
C762 C761 1.439 1_455 S
C762 C780 1.392 . S
N763 Co747 2.282 . S
N763 C766 1.332 . S
N763 C768 1.332 . S
C764 C765 1.386 1_455 S
C764 C767 1.388 . S
C765 C764 1.386 1_655 S
C765 C766 1.382 1_655 S
C765 H791 0.950 . S
C766 N763 1.332 . S
C766 C765 1.382 1_455 S
C766 H777 0.952 1_455 S
C767 C764 1.388 . S
C767 C768 1.382 . S
C767 H792 0.950 . S
C768 N763 1.332 . S
C768 C767 1.382 . S
C768 H778 0.948 . S
N769 Co747 2.282 . S
N769 C773 1.332 . S
N769 C774 1.332 . S
C770 C771 1.388 . S
C770 C774 1.382 . S
C770 H793 0.950 . S
C771 C770 1.388 . S
C771 C772 1.386 . S
C772 C771 1.386 . S
C772 C773 1.382 . S
C772 H794 0.950 . S
C773 N769 1.332 . S
C773 C772 1.382 . S
C773 H775 0.952 . S
C774 N769 1.332 . S
C774 C770 1.382 . S
C774 H776 0.948 . S
H775 C773 0.952 . S
H776 C774 0.948 . S
H777 C766 0.952 1_655 S
H778 C768 0.948 . S
C779 C745 1.395 . S
C779 C749 1.391 . S
C780 C742 1.389 . S
C780 C762 1.392 . S
C781 C752 1.392 . S
C781 C754 1.389 . S
C782 C757 1.395 1_655 S
C782 C759 1.391 . S
H783 C743 0.951 . S
H784 C744 0.950 . S
H785 C750 0.949 . S
H786 C751 0.950 1_554 S
H787 C755 0.951 1_554 S
H788 C756 0.950 . S
H789 C760 0.949 . S
H790 C761 0.950 . S
H791 C765 0.950 . S
H792 C767 0.950 . S
H793 C770 0.950 . S
H794 C772 0.950 . S
C795 C796 1.443 . S
C795 N799 1.376 . S
C795 C833 1.389 . S
C796 C795 1.443 . S
C796 C797 1.340 . S
C796 H836 0.951 . S
C797 C796 1.340 . S
C797 C798 1.439 . S
C797 H837 0.950 . S
C798 C797 1.439 . S
C798 N799 1.374 . S
C798 C832 1.395 . S
N799 C795 1.376 . S
N799 C798 1.374 . S
N799 Co800 2.008 . S
Co800 N799 2.008 . S
Co800 N801 1.995 . S
Co800 N806 2.008 . S
Co800 N811 1.995 . S
Co800 N816 2.282 . S
Co800 N822 2.282 . S
N801 Co800 1.995 . S
N801 C802 1.376 . S
N801 C805 1.383 . S
C802 N801 1.376 . S
C802 C803 1.446 . S
C802 C832 1.391 . S
C803 C802 1.446 . S
C803 C804 1.339 . S
C803 H838 0.949 . S
C804 C803 1.339 . S
C804 C805 1.439 . S
C804 H839 0.950 . S
C805 N801 1.383 . S
C805 C804 1.439 . S
C805 C834 1.392 . S
N806 Co800 2.008 . S
N806 C807 1.376 . S
N806 C810 1.374 . S
C807 N806 1.376 . S
C807 C808 1.443 1_565 S
C807 C834 1.389 . S
C808 C807 1.443 1_545 S
C808 C809 1.340 . S
C808 H840 0.951 . S
C809 C808 1.340 . S
C809 C810 1.439 1_545 S
C809 H841 0.950 . S
C810 N806 1.374 . S
C810 C809 1.439 1_565 S
C810 C835 1.395 . S
N811 Co800 1.995 . S
N811 C812 1.376 . S
N811 C815 1.383 . S
C812 N811 1.376 . S
C812 C813 1.446 . S
C812 C835 1.391 . S
C813 C812 1.446 . S
C813 C814 1.339 . S
C813 H842 0.949 . S
C814 C813 1.339 . S
C814 C815 1.439 . S
C814 H843 0.950 . S
C815 N811 1.383 . S
C815 C814 1.439 . S
C815 C833 1.392 . S
N816 Co800 2.282 . S
N816 C819 1.332 . S
N816 C821 1.332 . S
C817 C818 1.386 . S
C817 C820 1.388 . S
C818 C817 1.386 . S
C818 C819 1.382 . S
C818 H844 0.950 . S
C819 N816 1.332 . S
C819 C818 1.382 . S
C819 H830 0.952 . S
C820 C817 1.388 . S
C820 C821 1.382 . S
C820 H845 0.950 . S
C821 N816 1.332 . S
C821 C820 1.382 . S
C821 H831 0.948 . S
N822 Co800 2.282 . S
N822 C826 1.332 . S
N822 C827 1.332 . S
C823 C824 1.388 . S
C823 C827 1.382 . S
C823 H846 0.950 . S
C824 C823 1.388 . S
C824 C825 1.386 . S
C825 C824 1.386 . S
C825 C826 1.382 . S
C825 H847 0.950 . S
C826 N822 1.332 . S
C826 C825 1.382 . S
C826 H828 0.952 . S
C827 N822 1.332 . S
C827 C823 1.382 . S
C827 H829 0.948 . S
H828 C826 0.952 . S
H829 C827 0.948 . S
H830 C819 0.952 . S
H831 C821 0.948 . S
C832 C798 1.395 . S
C832 C802 1.391 . S
C833 C795 1.389 . S
C833 C815 1.392 . S
C834 C805 1.392 . S
C834 C807 1.389 . S
C835 C810 1.395 . S
C835 C812 1.391 . S
H836 C796 0.951 . S
H837 C797 0.950 . S
H838 C803 0.949 . S
H839 C804 0.950 . S
H840 C808 0.951 . S
H841 C809 0.950 . S
H842 C813 0.949 . S
H843 C814 0.950 . S
H844 C818 0.950 . S
H845 C820 0.950 . S
H846 C823 0.950 . S
H847 C825 0.950 . S
C848 C849 1.443 . S
C848 N852 1.376 . S
C848 C886 1.389 . S
C849 C848 1.443 . S
C849 C850 1.340 . S
C849 H889 0.951 . S
C850 C849 1.340 . S
C850 C851 1.439 . S
C850 H890 0.950 . S
C851 C850 1.439 . S
C851 N852 1.374 . S
C851 C885 1.395 . S
N852 C848 1.376 . S
N852 C851 1.374 . S
N852 Co853 2.008 . S
Co853 N852 2.008 . S
Co853 N854 1.995 . S
Co853 N859 2.008 . S
Co853 N864 1.995 . S
Co853 N869 2.282 . S
Co853 N875 2.282 . S
N854 Co853 1.995 . S
N854 C855 1.376 . S
N854 C858 1.383 . S
C855 N854 1.376 . S
C855 C856 1.446 . S
C855 C885 1.391 . S
C856 C855 1.446 . S
C856 C857 1.339 . S
C856 H891 0.949 . S
C857 C856 1.339 . S
C857 C858 1.439 . S
C857 H892 0.950 . S
C858 N854 1.383 . S
C858 C857 1.439 . S
C858 C887 1.392 . S
N859 Co853 2.008 . S
N859 C860 1.376 . S
N859 C863 1.374 . S
C860 N859 1.376 . S
C860 C861 1.443 . S
C860 C887 1.389 . S
C861 C860 1.443 . S
C861 C862 1.340 1_455 S
C861 H893 0.951 1_455 S
C862 C861 1.340 1_655 S
C862 C863 1.439 1_655 S
C862 H894 0.950 . S
C863 N859 1.374 . S
C863 C862 1.439 1_455 S
C863 C888 1.395 . S
N864 Co853 1.995 . S
N864 C865 1.376 . S
N864 C868 1.383 . S
C865 N864 1.376 . S
C865 C866 1.446 . S
C865 C888 1.391 . S
C866 C865 1.446 . S
C866 C867 1.339 . S
C866 H895 0.949 . S
C867 C866 1.339 . S
C867 C868 1.439 . S
C867 H896 0.950 . S
C868 N864 1.383 . S
C868 C867 1.439 . S
C868 C886 1.392 . S
N869 Co853 2.282 . S
N869 C872 1.332 . S
N869 C874 1.332 . S
C870 C871 1.386 . S
C870 C873 1.388 . S
C871 C870 1.386 . S
C871 C872 1.382 . S
C871 H897 0.950 . S
C872 N869 1.332 . S
C872 C871 1.382 . S
C872 H883 0.952 . S
C873 C870 1.388 . S
C873 C874 1.382 . S
C873 H898 0.950 . S
C874 N869 1.332 . S
C874 C873 1.382 . S
C874 H884 0.948 . S
N875 Co853 2.282 . S
N875 C879 1.332 . S
N875 C880 1.332 . S
C876 C877 1.388 . S
C876 C880 1.382 . S
C876 H899 0.950 . S
C877 C876 1.388 . S
C877 C878 1.386 . S
C878 C877 1.386 . S
C878 C879 1.382 . S
C878 H900 0.950 . S
C879 N875 1.332 . S
C879 C878 1.382 . S
C879 H881 0.952 . S
C880 N875 1.332 . S
C880 C876 1.382 . S
C880 H882 0.948 . S
H881 C879 0.952 . S
H882 C880 0.948 . S
H883 C872 0.952 . S
H884 C874 0.948 . S
C885 C851 1.395 . S
C885 C855 1.391 . S
C886 C848 1.389 . S
C886 C868 1.392 . S
C887 C858 1.392 . S
C887 C860 1.389 . S
C888 C863 1.395 . S
C888 C865 1.391 . S
H889 C849 0.951 . S
H890 C850 0.950 . S
H891 C856 0.949 . S
H892 C857 0.950 . S
H893 C861 0.951 1_655 S
H894 C862 0.950 . S
H895 C866 0.949 . S
H896 C867 0.950 . S
H897 C871 0.950 . S
H898 C873 0.950 . S
H899 C876 0.950 . S
H900 C878 0.950 . S
C901 C902 1.443 . S
C901 N905 1.376 . S
C901 C939 1.389 . S
C902 C901 1.443 . S
C902 C903 1.340 . S
C902 H942 0.951 . S
C903 C902 1.340 . S
C903 C904 1.439 . S
C903 H943 0.950 . S
C904 C903 1.439 . S
C904 N905 1.374 . S
C904 C938 1.395 . S
N905 C901 1.376 . S
N905 C904 1.374 . S
N905 Co906 2.008 . S
Co906 N905 2.008 . S
Co906 N907 1.995 . S
Co906 N912 2.008 . S
Co906 N917 1.995 . S
Co906 N922 2.282 . S
Co906 N928 2.282 . S
N907 Co906 1.995 . S
N907 C908 1.376 . S
N907 C911 1.383 . S
C908 N907 1.376 . S
C908 C909 1.446 . S
C908 C938 1.391 . S
C909 C908 1.446 . S
C909 C910 1.339 . S
C909 H944 0.949 . S
C910 C909 1.339 . S
C910 C911 1.439 . S
C910 H945 0.950 . S
C911 N907 1.383 . S
C911 C910 1.439 . S
C911 C940 1.392 . S
N912 Co906 2.008 . S
N912 C913 1.376 . S
N912 C916 1.374 . S
C913 N912 1.376 . S
C913 C914 1.443 . S
C913 C940 1.389 . S
C914 C913 1.443 . S
C914 C915 1.340 . S
C914 H946 0.951 . S
C915 C914 1.340 . S
C915 C916 1.439 . S
C915 H947 0.950 . S
C916 N912 1.374 . S
C916 C915 1.439 . S
C916 C941 1.395 . S
N917 Co906 1.995 . S
N917 C918 1.376 . S
N917 C921 1.383 . S
C918 N917 1.376 . S
C918 C919 1.446 . S
C918 C941 1.391 . S
C919 C918 1.446 . S
C919 C920 1.339 . S
C919 H948 0.949 . S
C920 C919 1.339 . S
C920 C921 1.439 . S
C920 H949 0.950 . S
C921 N917 1.383 . S
C921 C920 1.439 . S
C921 C939 1.392 . S
N922 Co906 2.282 . S
N922 C925 1.332 . S
N922 C927 1.332 . S
C923 C924 1.386 . S
C923 C926 1.388 . S
C924 C923 1.386 . S
C924 C925 1.382 . S
C924 H950 0.950 . S
C925 N922 1.332 . S
C925 C924 1.382 . S
C925 H936 0.952 . S
C926 C923 1.388 . S
C926 C927 1.382 . S
C926 H951 0.950 . S
C927 N922 1.332 . S
C927 C926 1.382 . S
C927 H937 0.948 . S
N928 Co906 2.282 . S
N928 C932 1.332 . S
N928 C933 1.332 . S
C929 C930 1.388 . S
C929 C933 1.382 . S
C929 H952 0.950 . S
C930 C929 1.388 . S
C930 C931 1.386 . S
C931 C930 1.386 . S
C931 C932 1.382 . S
C931 H953 0.950 . S
C932 N928 1.332 . S
C932 C931 1.382 . S
C932 H934 0.952 . S
C933 N928 1.332 . S
C933 C929 1.382 . S
C933 H935 0.948 . S
H934 C932 0.952 . S
H935 C933 0.948 . S
H936 C925 0.952 . S
H937 C927 0.948 . S
C938 C904 1.395 . S
C938 C908 1.391 . S
C939 C901 1.389 . S
C939 C921 1.392 . S
C940 C911 1.392 . S
C940 C913 1.389 . S
C941 C916 1.395 . S
C941 C918 1.391 . S
H942 C902 0.951 . S
H943 C903 0.950 . S
H944 C909 0.949 . S
H945 C910 0.950 . S
H946 C914 0.951 . S
H947 C915 0.950 . S
H948 C919 0.949 . S
H949 C920 0.950 . S
H950 C924 0.950 . S
H951 C926 0.950 . S
H952 C929 0.950 . S
H953 C931 0.950 . S
H954 C960 0.930 . S
H955 C963 0.930 . S
H956 C964 0.930 . S
H957 C965 0.930 . S
H958 C968 0.930 . S
H959 C969 0.930 . S
C960 H954 0.930 . S
C960 C961 1.355 . S
C960 C962 1.415 . S
C961 C960 1.355 . S
C961 C963 1.419 . S
C962 C960 1.415 . S
C962 C967 1.425 . S
C962 C969 1.409 . S
C963 H955 0.930 . S
C963 C961 1.419 . S
C963 C964 1.362 . S
C964 H956 0.930 . S
C964 C963 1.362 . S
C964 C967 1.409 . S
C965 H957 0.930 . S
C965 C966 1.355 . S
C965 C967 1.415 . S
C966 C965 1.355 . S
C966 C968 1.419 . S
C967 C962 1.425 . S
C967 C964 1.409 . S
C967 C965 1.415 . S
C968 H958 0.930 . S
C968 C966 1.419 . S
C968 C969 1.362 . S
C969 H959 0.930 . S
C969 C962 1.409 . S
C969 C968 1.362 . S
H970 C976 0.930 . S
H971 C979 0.930 . S
H972 C980 0.930 . S
H973 C981 0.930 . S
H974 C984 0.930 . S
H975 C985 0.930 . S
C976 H970 0.930 . S
C976 C977 1.355 . S
C976 C978 1.415 . S
C977 C976 1.355 . S
C977 C979 1.419 . S
C978 C976 1.415 . S
C978 C983 1.425 . S
C978 C985 1.409 . S
C979 H971 0.930 . S
C979 C977 1.419 . S
C979 C980 1.362 . S
C980 H972 0.930 . S
C980 C979 1.362 . S
C980 C983 1.409 . S
C981 H973 0.930 . S
C981 C982 1.355 . S
C981 C983 1.415 . S
C982 C981 1.355 . S
C982 C984 1.419 . S
C983 C978 1.425 . S
C983 C980 1.409 . S
C983 C981 1.415 . S
C984 H974 0.930 . S
C984 C982 1.419 . S
C984 C985 1.362 . S
C985 H975 0.930 . S
C985 C978 1.409 . S
C985 C984 1.362 . S
H986 C992 0.930 . S
H987 C995 0.930 . S
H988 C996 0.930 . S
H989 C997 0.930 . S
H990 C1000 0.930 . S
H991 C1001 0.930 . S
C992 H986 0.930 . S
C992 C993 1.355 . S
C992 C994 1.415 . S
C993 C992 1.355 . S
C993 C995 1.419 1_565 S
C994 C992 1.415 . S
C994 C999 1.425 . S
C994 C1001 1.409 . S
C995 H987 0.930 . S
C995 C993 1.419 1_545 S
C995 C996 1.362 . S
C996 H988 0.930 . S
C996 C995 1.362 . S
C996 C999 1.409 1_545 S
C997 H989 0.930 . S
C997 C998 1.355 . S
C997 C999 1.415 . S
C998 C997 1.355 . S
C998 C1000 1.419 . S
C999 C994 1.425 . S
C999 C996 1.409 1_565 S
C999 C997 1.415 . S
C1000 H990 0.930 . S
C1000 C998 1.419 . S
C1000 C1001 1.362 . S
C1001 H991 0.930 . S
C1001 C994 1.409 . S
C1001 C1000 1.362 . S
H1002 C1008 0.930 . S
H1003 C1011 0.930 . S
H1004 C1012 0.930 . S
H1005 C1013 0.930 . S
H1006 C1016 0.930 . S
H1007 C1017 0.930 . S
C1008 H1002 0.930 . S
C1008 C1009 1.355 . S
C1008 C1010 1.415 . S
C1009 C1008 1.355 . S
C1009 C1011 1.419 . S
C1010 C1008 1.415 . S
C1010 C1015 1.425 . S
C1010 C1017 1.409 . S
C1011 H1003 0.930 . S
C1011 C1009 1.419 . S
C1011 C1012 1.362 . S
C1012 H1004 0.930 . S
C1012 C1011 1.362 . S
C1012 C1015 1.409 . S
C1013 H1005 0.930 . S
C1013 C1014 1.355 . S
C1013 C1015 1.415 . S
C1014 C1013 1.355 . S
C1014 C1016 1.419 . S
C1015 C1010 1.425 . S
C1015 C1012 1.409 . S
C1015 C1013 1.415 . S
C1016 H1006 0.930 . S
C1016 C1014 1.419 . S
C1016 C1017 1.362 . S
C1017 H1007 0.930 . S
C1017 C1010 1.409 . S
C1017 C1016 1.362 . S
H1018 C1024 0.930 . S
H1019 C1027 0.930 1_455 S
H1020 C1028 0.930 . S
H1021 C1029 0.930 1_455 S
H1022 C1032 0.930 . S
H1023 C1033 0.930 . S
C1024 H1018 0.930 . S
C1024 C1025 1.355 . S
C1024 C1026 1.415 . S
C1025 C1024 1.355 . S
C1025 C1027 1.419 . S
C1026 C1024 1.415 . S
C1026 C1031 1.425 . S
C1026 C1033 1.409 . S
C1027 H1019 0.930 1_655 S
C1027 C1025 1.419 . S
C1027 C1028 1.362 1_655 S
C1028 H1020 0.930 . S
C1028 C1027 1.362 1_455 S
C1028 C1031 1.409 1_455 S
C1029 H1021 0.930 1_655 S
C1029 C1030 1.355 . S
C1029 C1031 1.415 . S
C1030 C1029 1.355 . S
C1030 C1032 1.419 . S
C1031 C1026 1.425 . S
C1031 C1028 1.409 1_655 S
C1031 C1029 1.415 . S
C1032 H1022 0.930 . S
C1032 C1030 1.419 . S
C1032 C1033 1.362 . S
C1033 H1023 0.930 . S
C1033 C1026 1.409 . S
C1033 C1032 1.362 . S
H1034 C1040 0.930 . S
H1035 C1043 0.930 . S
H1036 C1044 0.930 . S
H1037 C1045 0.930 . S
H1038 C1048 0.930 . S
H1039 C1049 0.930 . S
C1040 H1034 0.930 . S
C1040 C1041 1.355 . S
C1040 C1042 1.415 . S
C1041 C1040 1.355 . S
C1041 C1043 1.419 . S
C1042 C1040 1.415 . S
C1042 C1047 1.425 . S
C1042 C1049 1.409 . S
C1043 H1035 0.930 . S
C1043 C1041 1.419 . S
C1043 C1044 1.362 . S
C1044 H1036 0.930 . S
C1044 C1043 1.362 . S
C1044 C1047 1.409 . S
C1045 H1037 0.930 . S
C1045 C1046 1.355 . S
C1045 C1047 1.415 . S
C1046 C1045 1.355 . S
C1046 C1048 1.419 . S
C1047 C1042 1.425 . S
C1047 C1044 1.409 . S
C1047 C1045 1.415 . S
C1048 H1038 0.930 . S
C1048 C1046 1.419 . S
C1048 C1049 1.362 . S
C1049 H1039 0.930 . S
C1049 C1042 1.409 . S
C1049 C1048 1.362 . S
H1050 C1056 0.930 . S
H1051 C1059 0.930 . S
H1052 C1060 0.930 . S
H1053 C1061 0.930 . S
H1054 C1064 0.930 . S
H1055 C1065 0.930 . S
C1056 H1050 0.930 . S
C1056 C1057 1.355 . S
C1056 C1058 1.415 . S
C1057 C1056 1.355 . S
C1057 C1059 1.419 . S
C1058 C1056 1.415 . S
C1058 C1063 1.425 . S
C1058 C1065 1.409 . S
C1059 H1051 0.930 . S
C1059 C1057 1.419 . S
C1059 C1060 1.362 . S
C1060 H1052 0.930 . S
C1060 C1059 1.362 . S
C1060 C1063 1.409 . S
C1061 H1053 0.930 . S
C1061 C1062 1.355 . S
C1061 C1063 1.415 . S
C1062 C1061 1.355 . S
C1062 C1064 1.419 . S
C1063 C1058 1.425 . S
C1063 C1060 1.409 . S
C1063 C1061 1.415 . S
C1064 H1054 0.930 . S
C1064 C1062 1.419 . S
C1064 C1065 1.362 . S
C1065 H1055 0.930 . S
C1065 C1058 1.409 . S
C1065 C1064 1.362 . S
H1066 C1072 0.930 . S
H1067 C1075 0.930 . S
H1068 C1076 0.930 . S
H1069 C1077 0.930 . S
H1070 C1080 0.930 . S
H1071 C1081 0.930 . S
C1072 H1066 0.930 . S
C1072 C1073 1.355 . S
C1072 C1074 1.415 . S
C1073 C1072 1.355 . S
C1073 C1075 1.419 . S
C1074 C1072 1.415 . S
C1074 C1079 1.425 . S
C1074 C1081 1.409 . S
C1075 H1067 0.930 . S
C1075 C1073 1.419 . S
C1075 C1076 1.362 . S
C1076 H1068 0.930 . S
C1076 C1075 1.362 . S
C1076 C1079 1.409 . S
C1077 H1069 0.930 . S
C1077 C1078 1.355 . S
C1077 C1079 1.415 . S
C1078 C1077 1.355 . S
C1078 C1080 1.419 . S
C1079 C1074 1.425 . S
C1079 C1076 1.409 . S
C1079 C1077 1.415 . S
C1080 H1070 0.930 . S
C1080 C1078 1.419 . S
C1080 C1081 1.362 . S
C1081 H1071 0.930 . S
C1081 C1074 1.409 . S
C1081 C1080 1.362 . S
H1082 C1088 0.930 . S
H1083 C1091 0.930 . S
H1084 C1092 0.930 . S
H1085 C1093 0.930 . S
H1086 C1096 0.930 . S
H1087 C1097 0.930 . S
C1088 H1082 0.930 . S
C1088 C1089 1.355 . S
C1088 C1090 1.415 . S
C1089 C1088 1.355 . S
C1089 C1091 1.419 . S
C1090 C1088 1.415 . S
C1090 C1095 1.425 . S
C1090 C1097 1.409 . S
C1091 H1083 0.930 . S
C1091 C1089 1.419 . S
C1091 C1092 1.362 . S
C1092 H1084 0.930 . S
C1092 C1091 1.362 . S
C1092 C1095 1.409 . S
C1093 H1085 0.930 . S
C1093 C1094 1.355 . S
C1093 C1095 1.415 . S
C1094 C1093 1.355 . S
C1094 C1096 1.419 . S
C1095 C1090 1.425 . S
C1095 C1092 1.409 . S
C1095 C1093 1.415 . S
C1096 H1086 0.930 . S
C1096 C1094 1.419 . S
C1096 C1097 1.362 . S
C1097 H1087 0.930 . S
C1097 C1090 1.409 . S
C1097 C1096 1.362 . S
H1098 C1104 0.930 . S
H1099 C1107 0.930 1_545 S
H1100 C1108 0.930 . S
H1101 C1109 0.930 . S
H1102 C1112 0.930 . S
H1103 C1113 0.930 . S
C1104 H1098 0.930 . S
C1104 C1105 1.355 . S
C1104 C1106 1.415 . S
C1105 C1104 1.355 . S
C1105 C1107 1.419 . S
C1106 C1104 1.415 . S
C1106 C1111 1.425 . S
C1106 C1113 1.409 . S
C1107 H1099 0.930 1_565 S
C1107 C1105 1.419 . S
C1107 C1108 1.362 . S
C1108 H1100 0.930 . S
C1108 C1107 1.362 . S
C1108 C1111 1.409 . S
C1109 H1101 0.930 . S
C1109 C1110 1.355 . S
C1109 C1111 1.415 . S
C1110 C1109 1.355 . S
C1110 C1112 1.419 . S
C1111 C1106 1.425 . S
C1111 C1108 1.409 . S
C1111 C1109 1.415 . S
C1112 H1102 0.930 . S
C1112 C1110 1.419 . S
C1112 C1113 1.362 . S
C1113 H1103 0.930 . S
C1113 C1106 1.409 . S
C1113 C1112 1.362 . S
H1114 C1120 0.930 . S
H1115 C1123 0.930 . S
H1116 C1124 0.930 . S
H1117 C1125 0.930 . S
H1118 C1128 0.930 . S
H1119 C1129 0.930 . S
C1120 H1114 0.930 . S
C1120 C1121 1.355 . S
C1120 C1122 1.415 . S
C1121 C1120 1.355 . S
C1121 C1123 1.419 . S
C1122 C1120 1.415 . S
C1122 C1127 1.425 . S
C1122 C1129 1.409 . S
C1123 H1115 0.930 . S
C1123 C1121 1.419 . S
C1123 C1124 1.362 . S
C1124 H1116 0.930 . S
C1124 C1123 1.362 . S
C1124 C1127 1.409 . S
C1125 H1117 0.930 . S
C1125 C1126 1.355 . S
C1125 C1127 1.415 . S
C1126 C1125 1.355 . S
C1126 C1128 1.419 . S
C1127 C1122 1.425 . S
C1127 C1124 1.409 . S
C1127 C1125 1.415 . S
C1128 H1118 0.930 . S
C1128 C1126 1.419 . S
C1128 C1129 1.362 . S
C1129 H1119 0.930 . S
C1129 C1122 1.409 . S
C1129 C1128 1.362 . S
H1130 C1136 0.930 . S
H1131 C1139 0.930 . S
H1132 C1140 0.930 . S
H1133 C1141 0.930 . S
H1134 C1144 0.930 . S
H1135 C1145 0.930 . S
C1136 H1130 0.930 . S
C1136 C1137 1.355 . S
C1136 C1138 1.415 . S
C1137 C1136 1.355 . S
C1137 C1139 1.419 . S
C1138 C1136 1.415 . S
C1138 C1143 1.425 . S
C1138 C1145 1.409 . S
C1139 H1131 0.930 . S
C1139 C1137 1.419 . S
C1139 C1140 1.362 . S
C1140 H1132 0.930 . S
C1140 C1139 1.362 . S
C1140 C1143 1.409 . S
C1141 H1133 0.930 . S
C1141 C1142 1.355 . S
C1141 C1143 1.415 . S
C1142 C1141 1.355 . S
C1142 C1144 1.419 . S
C1143 C1138 1.425 . S
C1143 C1140 1.409 . S
C1143 C1141 1.415 . S
C1144 H1134 0.930 . S
C1144 C1142 1.419 . S
C1144 C1145 1.362 . S
C1145 H1135 0.930 . S
C1145 C1138 1.409 . S
C1145 C1144 1.362 . S
H1146 C1152 0.930 . S
H1147 C1155 0.930 . S
H1148 C1156 0.930 . S
H1149 C1157 0.930 . S
H1150 C1160 0.930 . S
H1151 C1161 0.930 . S
C1152 H1146 0.930 . S
C1152 C1153 1.355 . S
C1152 C1154 1.415 . S
C1153 C1152 1.355 . S
C1153 C1155 1.419 . S
C1154 C1152 1.415 . S
C1154 C1159 1.425 . S
C1154 C1161 1.409 . S
C1155 H1147 0.930 . S
C1155 C1153 1.419 . S
C1155 C1156 1.362 . S
C1156 H1148 0.930 . S
C1156 C1155 1.362 . S
C1156 C1159 1.409 . S
C1157 H1149 0.930 . S
C1157 C1158 1.355 . S
C1157 C1159 1.415 . S
C1158 C1157 1.355 . S
C1158 C1160 1.419 . S
C1159 C1154 1.425 . S
C1159 C1156 1.409 . S
C1159 C1157 1.415 . S
C1160 H1150 0.930 . S
C1160 C1158 1.419 . S
C1160 C1161 1.362 . S
C1161 H1151 0.930 . S
C1161 C1154 1.409 . S
C1161 C1160 1.362 . S
H1162 C1168 0.930 1_565 S
H1163 C1171 0.930 . S
H1164 C1172 0.930 . S
H1165 C1173 0.930 . S
H1166 C1176 0.930 . S
H1167 C1177 0.930 . S
C1168 H1162 0.930 1_545 S
C1168 C1169 1.355 . S
C1168 C1170 1.415 1_545 S
C1169 C1168 1.355 . S
C1169 C1171 1.419 . S
C1170 C1168 1.415 1_565 S
C1170 C1175 1.425 1_565 S
C1170 C1177 1.409 . S
C1171 H1163 0.930 . S
C1171 C1169 1.419 . S
C1171 C1172 1.362 . S
C1172 H1164 0.930 . S
C1172 C1171 1.362 . S
C1172 C1175 1.409 . S
C1173 H1165 0.930 . S
C1173 C1174 1.355 1_545 S
C1173 C1175 1.415 . S
C1174 C1173 1.355 1_565 S
C1174 C1176 1.419 . S
C1175 C1170 1.425 1_545 S
C1175 C1172 1.409 . S
C1175 C1173 1.415 . S
C1176 H1166 0.930 . S
C1176 C1174 1.419 . S
C1176 C1177 1.362 . S
C1177 H1167 0.930 . S
C1177 C1170 1.409 . S
C1177 C1176 1.362 . S
H1178 C1184 0.930 . S
H1179 C1187 0.930 . S
H1180 C1188 0.930 . S
H1181 C1189 0.930 . S
H1182 C1192 0.930 . S
H1183 C1193 0.930 . S
C1184 H1178 0.930 . S
C1184 C1185 1.355 . S
C1184 C1186 1.415 . S
C1185 C1184 1.355 . S
C1185 C1187 1.419 . S
C1186 C1184 1.415 . S
C1186 C1191 1.425 1_455 S
C1186 C1193 1.409 . S
C1187 H1179 0.930 . S
C1187 C1185 1.419 . S
C1187 C1188 1.362 1_455 S
C1188 H1180 0.930 . S
C1188 C1187 1.362 1_655 S
C1188 C1191 1.409 . S
C1189 H1181 0.930 . S
C1189 C1190 1.355 . S
C1189 C1191 1.415 . S
C1190 C1189 1.355 . S
C1190 C1192 1.419 1_655 S
C1191 C1186 1.425 1_655 S
C1191 C1188 1.409 . S
C1191 C1189 1.415 . S
C1192 H1182 0.930 . S
C1192 C1190 1.419 1_455 S
C1192 C1193 1.362 . S
C1193 H1183 0.930 . S
C1193 C1186 1.409 . S
C1193 C1192 1.362 . S
H1194 C1200 0.930 . S
H1195 C1203 0.930 . S
H1196 C1204 0.930 . S
H1197 C1205 0.930 . S
H1198 C1208 0.930 . S
H1199 C1209 0.930 . S
C1200 H1194 0.930 . S
C1200 C1201 1.355 . S
C1200 C1202 1.415 . S
C1201 C1200 1.355 . S
C1201 C1203 1.419 . S
C1202 C1200 1.415 . S
C1202 C1207 1.425 . S
C1202 C1209 1.409 . S
C1203 H1195 0.930 . S
C1203 C1201 1.419 . S
C1203 C1204 1.362 . S
C1204 H1196 0.930 . S
C1204 C1203 1.362 . S
C1204 C1207 1.409 . S
C1205 H1197 0.930 . S
C1205 C1206 1.355 . S
C1205 C1207 1.415 . S
C1206 C1205 1.355 . S
C1206 C1208 1.419 . S
C1207 C1202 1.425 . S
C1207 C1204 1.409 . S
C1207 C1205 1.415 . S
C1208 H1198 0.930 . S
C1208 C1206 1.419 . S
C1208 C1209 1.362 . S
C1209 H1199 0.930 . S
C1209 C1202 1.409 . S
C1209 C1208 1.362 . S
H1210 C1216 0.930 . S
H1211 C1219 0.930 . S
H1212 C1220 0.930 . S
H1213 C1221 0.930 . S
H1214 C1224 0.930 . S
H1215 C1225 0.930 . S
C1216 H1210 0.930 . S
C1216 C1217 1.355 . S
C1216 C1218 1.415 . S
C1217 C1216 1.355 . S
C1217 C1219 1.419 . S
C1218 C1216 1.415 . S
C1218 C1223 1.425 . S
C1218 C1225 1.409 1_545 S
C1219 H1211 0.930 . S
C1219 C1217 1.419 . S
C1219 C1220 1.362 . S
C1220 H1212 0.930 . S
C1220 C1219 1.362 . S
C1220 C1223 1.409 . S
C1221 H1213 0.930 . S
C1221 C1222 1.355 . S
C1221 C1223 1.415 1_565 S
C1222 C1221 1.355 . S
C1222 C1224 1.419 . S
C1223 C1218 1.425 . S
C1223 C1220 1.409 . S
C1223 C1221 1.415 1_545 S
C1224 H1214 0.930 . S
C1224 C1222 1.419 . S
C1224 C1225 1.362 . S
C1225 H1215 0.930 . S
C1225 C1218 1.409 1_565 S
C1225 C1224 1.362 . S
H1226 C1232 0.930 . S
H1227 C1235 0.930 . S
H1228 C1236 0.930 . S
H1229 C1237 0.930 . S
H1230 C1240 0.930 . S
H1231 C1241 0.930 . S
C1232 H1226 0.930 . S
C1232 C1233 1.355 . S
C1232 C1234 1.415 . S
C1233 C1232 1.355 . S
C1233 C1235 1.419 . S
C1234 C1232 1.415 . S
C1234 C1239 1.425 . S
C1234 C1241 1.409 1_455 S
C1235 H1227 0.930 . S
C1235 C1233 1.419 . S
C1235 C1236 1.362 . S
C1236 H1228 0.930 . S
C1236 C1235 1.362 . S
C1236 C1239 1.409 . S
C1237 H1229 0.930 . S
C1237 C1238 1.355 . S
C1237 C1239 1.415 1_655 S
C1238 C1237 1.355 . S
C1238 C1240 1.419 . S
C1239 C1234 1.425 . S
C1239 C1236 1.409 . S
C1239 C1237 1.415 1_455 S
C1240 H1230 0.930 . S
C1240 C1238 1.419 . S
C1240 C1241 1.362 . S
C1241 H1231 0.930 . S
C1241 C1234 1.409 1_655 S
C1241 C1240 1.362 . S
H1242 C1248 0.930 . S
H1243 C1251 0.930 . S
H1244 C1252 0.930 . S
H1245 C1253 0.930 . S
H1246 C1256 0.930 . S
H1247 C1257 0.930 . S
C1248 H1242 0.930 . S
C1248 C1249 1.355 . S
C1248 C1250 1.415 . S
C1249 C1248 1.355 . S
C1249 C1251 1.419 . S
C1250 C1248 1.415 . S
C1250 C1255 1.425 . S
C1250 C1257 1.409 . S
C1251 H1243 0.930 . S
C1251 C1249 1.419 . S
C1251 C1252 1.362 . S
C1252 H1244 0.930 . S
C1252 C1251 1.362 . S
C1252 C1255 1.409 . S
C1253 H1245 0.930 . S
C1253 C1254 1.355 . S
C1253 C1255 1.415 . S
C1254 C1253 1.355 . S
C1254 C1256 1.419 . S
C1255 C1250 1.425 . S
C1255 C1252 1.409 . S
C1255 C1253 1.415 . S
C1256 H1246 0.930 . S
C1256 C1254 1.419 . S
C1256 C1257 1.362 . S
C1257 H1247 0.930 . S
C1257 C1250 1.409 . S
C1257 C1256 1.362 . S
H1258 C1264 0.930 . S
H1259 C1267 0.930 . S
H1260 C1268 0.930 . S
H1261 C1269 0.930 . S
H1262 C1272 0.930 . S
H1263 C1273 0.930 . S
C1264 H1258 0.930 . S
C1264 C1265 1.355 . S
C1264 C1266 1.415 . S
C1265 C1264 1.355 . S
C1265 C1267 1.419 . S
C1266 C1264 1.415 . S
C1266 C1271 1.425 . S
C1266 C1273 1.409 . S
C1267 H1259 0.930 . S
C1267 C1265 1.419 . S
C1267 C1268 1.362 . S
C1268 H1260 0.930 . S
C1268 C1267 1.362 . S
C1268 C1271 1.409 . S
C1269 H1261 0.930 . S
C1269 C1270 1.355 . S
C1269 C1271 1.415 . S
C1270 C1269 1.355 . S
C1270 C1272 1.419 . S
C1271 C1266 1.425 . S
C1271 C1268 1.409 . S
C1271 C1269 1.415 . S
C1272 H1262 0.930 . S
C1272 C1270 1.419 . S
C1272 C1273 1.362 . S
C1273 H1263 0.930 . S
C1273 C1266 1.409 . S
C1273 C1272 1.362 . S
H1274 C1280 0.930 . S
H1275 C1283 0.930 . S
H1276 C1284 0.930 . S
H1277 C1285 0.930 . S
H1278 C1288 0.930 . S
H1279 C1289 0.930 . S
C1280 H1274 0.930 . S
C1280 C1281 1.355 . S
C1280 C1282 1.415 . S
C1281 C1280 1.355 . S
C1281 C1283 1.419 . S
C1282 C1280 1.415 . S
C1282 C1287 1.425 . S
C1282 C1289 1.409 . S
C1283 H1275 0.930 . S
C1283 C1281 1.419 . S
C1283 C1284 1.362 . S
C1284 H1276 0.930 . S
C1284 C1283 1.362 . S
C1284 C1287 1.409 . S
C1285 H1277 0.930 . S
C1285 C1286 1.355 . S
C1285 C1287 1.415 . S
C1286 C1285 1.355 . S
C1286 C1288 1.419 . S
C1287 C1282 1.425 . S
C1287 C1284 1.409 . S
C1287 C1285 1.415 . S
C1288 H1278 0.930 . S
C1288 C1286 1.419 . S
C1288 C1289 1.362 . S
C1289 H1279 0.930 . S
C1289 C1282 1.409 . S
C1289 C1288 1.362 . S
H1290 C1296 0.930 . S
H1291 C1299 0.930 . S
H1292 C1300 0.930 . S
H1293 C1301 0.930 . S
H1294 C1304 0.930 . S
H1295 C1305 0.930 . S
C1296 H1290 0.930 . S
C1296 C1297 1.355 . S
C1296 C1298 1.415 . S
C1297 C1296 1.355 . S
C1297 C1299 1.419 . S
C1298 C1296 1.415 . S
C1298 C1303 1.425 . S
C1298 C1305 1.409 . S
C1299 H1291 0.930 . S
C1299 C1297 1.419 . S
C1299 C1300 1.362 . S
C1300 H1292 0.930 . S
C1300 C1299 1.362 . S
C1300 C1303 1.409 . S
C1301 H1293 0.930 . S
C1301 C1302 1.355 . S
C1301 C1303 1.415 . S
C1302 C1301 1.355 . S
C1302 C1304 1.419 . S
C1303 C1298 1.425 . S
C1303 C1300 1.409 . S
C1303 C1301 1.415 . S
C1304 H1294 0.930 . S
C1304 C1302 1.419 . S
C1304 C1305 1.362 . S
C1305 H1295 0.930 . S
C1305 C1298 1.409 . S
C1305 C1304 1.362 . S
H1306 C1312 0.930 . S
H1307 C1315 0.930 . S
H1308 C1316 0.930 . S
H1309 C1317 0.930 . S
H1310 C1320 0.930 . S
H1311 C1321 0.930 . S
C1312 H1306 0.930 . S
C1312 C1313 1.355 . S
C1312 C1314 1.415 . S
C1313 C1312 1.355 . S
C1313 C1315 1.419 . S
C1314 C1312 1.415 . S
C1314 C1319 1.425 . S
C1314 C1321 1.409 . S
C1315 H1307 0.930 . S
C1315 C1313 1.419 . S
C1315 C1316 1.362 . S
C1316 H1308 0.930 . S
C1316 C1315 1.362 . S
C1316 C1319 1.409 . S
C1317 H1309 0.930 . S
C1317 C1318 1.355 . S
C1317 C1319 1.415 . S
C1318 C1317 1.355 . S
C1318 C1320 1.419 . S
C1319 C1314 1.425 . S
C1319 C1316 1.409 . S
C1319 C1317 1.415 . S
C1320 H1310 0.930 . S
C1320 C1318 1.419 . S
C1320 C1321 1.362 . S
C1321 H1311 0.930 . S
C1321 C1314 1.409 . S
C1321 C1320 1.362 . S
H1322 C1328 0.930 . S
H1323 C1331 0.930 . S
H1324 C1332 0.930 . S
H1325 C1333 0.930 . S
H1326 C1336 0.930 . S
H1327 C1337 0.930 . S
C1328 H1322 0.930 . S
C1328 C1329 1.355 . S
C1328 C1330 1.415 . S
C1329 C1328 1.355 . S
C1329 C1331 1.419 . S
C1330 C1328 1.415 . S
C1330 C1335 1.425 . S
C1330 C1337 1.409 . S
C1331 H1323 0.930 . S
C1331 C1329 1.419 . S
C1331 C1332 1.362 . S
C1332 H1324 0.930 . S
C1332 C1331 1.362 . S
C1332 C1335 1.409 . S
C1333 H1325 0.930 . S
C1333 C1334 1.355 . S
C1333 C1335 1.415 . S
C1334 C1333 1.355 . S
C1334 C1336 1.419 . S
C1335 C1330 1.425 . S
C1335 C1332 1.409 . S
C1335 C1333 1.415 . S
C1336 H1326 0.930 . S
C1336 C1334 1.419 . S
C1336 C1337 1.362 . S
C1337 H1327 0.930 . S
C1337 C1330 1.409 . S
C1337 C1336 1.362 . S
H1338 C1344 0.930 . S
H1339 C1347 0.930 . S
H1340 C1348 0.930 . S
H1341 C1349 0.930 . S
H1342 C1352 0.930 . S
H1343 C1353 0.930 . S
C1344 H1338 0.930 . S
C1344 C1345 1.355 . S
C1344 C1346 1.415 . S
C1345 C1344 1.355 . S
C1345 C1347 1.419 . S
C1346 C1344 1.415 . S
C1346 C1351 1.425 . S
C1346 C1353 1.409 . S
C1347 H1339 0.930 . S
C1347 C1345 1.419 . S
C1347 C1348 1.362 . S
C1348 H1340 0.930 . S
C1348 C1347 1.362 . S
C1348 C1351 1.409 . S
C1349 H1341 0.930 . S
C1349 C1350 1.355 . S
C1349 C1351 1.415 . S
C1350 C1349 1.355 . S
C1350 C1352 1.419 . S
C1351 C1346 1.425 . S
C1351 C1348 1.409 . S
C1351 C1349 1.415 . S
C1352 H1342 0.930 . S
C1352 C1350 1.419 . S
C1352 C1353 1.362 . S
C1353 H1343 0.930 . S
C1353 C1346 1.409 . S
C1353 C1352 1.362 . S
H1354 C1360 0.930 . S
H1355 C1363 0.930 . S
H1356 C1364 0.930 . S
H1357 C1365 0.930 . S
H1358 C1368 0.930 . S
H1359 C1369 0.930 . S
C1360 H1354 0.930 . S
C1360 C1361 1.355 . S
C1360 C1362 1.415 . S
C1361 C1360 1.355 . S
C1361 C1363 1.419 . S
C1362 C1360 1.415 . S
C1362 C1367 1.425 . S
C1362 C1369 1.409 . S
C1363 H1355 0.930 . S
C1363 C1361 1.419 . S
C1363 C1364 1.362 . S
C1364 H1356 0.930 . S
C1364 C1363 1.362 . S
C1364 C1367 1.409 . S
C1365 H1357 0.930 . S
C1365 C1366 1.355 . S
C1365 C1367 1.415 . S
C1366 C1365 1.355 . S
C1366 C1368 1.419 . S
C1367 C1362 1.425 . S
C1367 C1364 1.409 . S
C1367 C1365 1.415 . S
C1368 H1358 0.930 . S
C1368 C1366 1.419 . S
C1368 C1369 1.362 . S
C1369 H1359 0.930 . S
C1369 C1362 1.409 . S
C1369 C1368 1.362 . S
H1370 C1376 0.930 . S
H1371 C1379 0.930 . S
H1372 C1380 0.930 . S
H1373 C1381 0.930 . S
H1374 C1384 0.930 . S
H1375 C1385 0.930 . S
C1376 H1370 0.930 . S
C1376 C1377 1.355 . S
C1376 C1378 1.415 . S
C1377 C1376 1.355 . S
C1377 C1379 1.419 . S
C1378 C1376 1.415 . S
C1378 C1383 1.425 . S
C1378 C1385 1.409 . S
C1379 H1371 0.930 . S
C1379 C1377 1.419 . S
C1379 C1380 1.362 . S
C1380 H1372 0.930 . S
C1380 C1379 1.362 . S
C1380 C1383 1.409 . S
C1381 H1373 0.930 . S
C1381 C1382 1.355 . S
C1381 C1383 1.415 . S
C1382 C1381 1.355 . S
C1382 C1384 1.419 . S
C1383 C1378 1.425 . S
C1383 C1380 1.409 . S
C1383 C1381 1.415 . S
C1384 H1374 0.930 . S
C1384 C1382 1.419 . S
C1384 C1385 1.362 . S
C1385 H1375 0.930 . S
C1385 C1378 1.409 . S
C1385 C1384 1.362 . S
H1386 C1392 0.930 . S
H1387 C1395 0.930 . S
H1388 C1396 0.930 . S
H1389 C1397 0.930 . S
H1390 C1400 0.930 . S
H1391 C1401 0.930 . S
C1392 H1386 0.930 . S
C1392 C1393 1.355 . S
C1392 C1394 1.415 . S
C1393 C1392 1.355 . S
C1393 C1395 1.419 . S
C1394 C1392 1.415 . S
C1394 C1399 1.425 . S
C1394 C1401 1.409 . S
C1395 H1387 0.930 . S
C1395 C1393 1.419 . S
C1395 C1396 1.362 . S
C1396 H1388 0.930 . S
C1396 C1395 1.362 . S
C1396 C1399 1.409 . S
C1397 H1389 0.930 . S
C1397 C1398 1.355 . S
C1397 C1399 1.415 . S
C1398 C1397 1.355 . S
C1398 C1400 1.419 . S
C1399 C1394 1.425 . S
C1399 C1396 1.409 . S
C1399 C1397 1.415 . S
C1400 H1390 0.930 . S
C1400 C1398 1.419 . S
C1400 C1401 1.362 . S
C1401 H1391 0.930 . S
C1401 C1394 1.409 . S
C1401 C1400 1.362 . S
H1402 C1408 0.930 . S
H1403 C1411 0.930 . S
H1404 C1412 0.930 . S
H1405 C1413 0.930 . S
H1406 C1416 0.930 . S
H1407 C1417 0.930 . S
C1408 H1402 0.930 . S
C1408 C1409 1.355 . S
C1408 C1410 1.415 . S
C1409 C1408 1.355 . S
C1409 C1411 1.419 . S
C1410 C1408 1.415 . S
C1410 C1415 1.425 . S
C1410 C1417 1.409 . S
C1411 H1403 0.930 . S
C1411 C1409 1.419 . S
C1411 C1412 1.362 . S
C1412 H1404 0.930 . S
C1412 C1411 1.362 . S
C1412 C1415 1.409 . S
C1413 H1405 0.930 . S
C1413 C1414 1.355 . S
C1413 C1415 1.415 . S
C1414 C1413 1.355 . S
C1414 C1416 1.419 . S
C1415 C1410 1.425 . S
C1415 C1412 1.409 . S
C1415 C1413 1.415 . S
C1416 H1406 0.930 . S
C1416 C1414 1.419 . S
C1416 C1417 1.362 . S
C1417 H1407 0.930 . S
C1417 C1410 1.409 . S
C1417 C1416 1.362 . S
H1418 C1424 0.930 . S
H1419 C1427 0.930 . S
H1420 C1428 0.930 . S
H1421 C1429 0.930 . S
H1422 C1432 0.930 . S
H1423 C1433 0.930 . S
C1424 H1418 0.930 . S
C1424 C1425 1.355 . S
C1424 C1426 1.415 . S
C1425 C1424 1.355 . S
C1425 C1427 1.419 . S
C1426 C1424 1.415 . S
C1426 C1431 1.425 . S
C1426 C1433 1.409 . S
C1427 H1419 0.930 . S
C1427 C1425 1.419 . S
C1427 C1428 1.362 . S
C1428 H1420 0.930 . S
C1428 C1427 1.362 . S
C1428 C1431 1.409 . S
C1429 H1421 0.930 . S
C1429 C1430 1.355 . S
C1429 C1431 1.415 . S
C1430 C1429 1.355 . S
C1430 C1432 1.419 . S
C1431 C1426 1.425 . S
C1431 C1428 1.409 . S
C1431 C1429 1.415 . S
C1432 H1422 0.930 . S
C1432 C1430 1.419 . S
C1432 C1433 1.362 . S
C1433 H1423 0.930 . S
C1433 C1426 1.409 . S
C1433 C1432 1.362 . S
H1434 C1440 0.930 . S
H1435 C1443 0.930 . S
H1436 C1444 0.930 . S
H1437 C1445 0.930 . S
H1438 C1448 0.930 . S
H1439 C1449 0.930 . S
C1440 H1434 0.930 . S
C1440 C1441 1.355 . S
C1440 C1442 1.415 . S
C1441 C1440 1.355 . S
C1441 C1443 1.419 . S
C1442 C1440 1.415 . S
C1442 C1447 1.425 . S
C1442 C1449 1.409 . S
C1443 H1435 0.930 . S
C1443 C1441 1.419 . S
C1443 C1444 1.362 . S
C1444 H1436 0.930 . S
C1444 C1443 1.362 . S
C1444 C1447 1.409 . S
C1445 H1437 0.930 . S
C1445 C1446 1.355 . S
C1445 C1447 1.415 . S
C1446 C1445 1.355 . S
C1446 C1448 1.419 . S
C1447 C1442 1.425 . S
C1447 C1444 1.409 . S
C1447 C1445 1.415 . S
C1448 H1438 0.930 . S
C1448 C1446 1.419 . S
C1448 C1449 1.362 . S
C1449 H1439 0.930 . S
C1449 C1442 1.409 . S
C1449 C1448 1.362 . S
H1450 C1456 0.930 . S
H1451 C1459 0.930 . S
H1452 C1460 0.930 . S
H1453 C1461 0.930 . S
H1454 C1464 0.930 . S
H1455 C1465 0.930 . S
C1456 H1450 0.930 . S
C1456 C1457 1.355 1_545 S
C1456 C1458 1.420 1_545 S
C1457 C1456 1.355 1_565 S
C1457 C1459 1.419 . S
C1458 C1456 1.420 1_565 S
C1458 C1463 1.449 . S
C1458 C1465 1.382 1_565 S
C1459 H1451 0.930 . S
C1459 C1457 1.419 . S
C1459 C1460 1.362 . S
C1460 H1452 0.930 . S
C1460 C1459 1.362 . S
C1460 C1463 1.409 . S
C1461 H1453 0.930 . S
C1461 C1462 1.355 . S
C1461 C1463 1.415 . S
C1462 C1461 1.355 . S
C1462 C1464 1.419 1_565 S
C1463 C1458 1.449 . S
C1463 C1460 1.409 . S
C1463 C1461 1.415 . S
C1464 H1454 0.930 . S
C1464 C1462 1.419 1_545 S
C1464 C1465 1.362 . S
C1465 H1455 0.930 . S
C1465 C1458 1.382 1_545 S
C1465 C1464 1.362 . S
H1466 C1472 0.930 . S
H1467 C1475 0.930 1_655 S
H1468 C1476 0.930 . S
H1469 C1477 0.930 1_655 S
H1470 C1480 0.930 . S
H1471 C1481 0.930 . S
C1472 H1466 0.930 . S
C1472 C1473 1.355 . S
C1472 C1474 1.415 . S
C1473 C1472 1.355 . S
C1473 C1475 1.419 . S
C1474 C1472 1.415 . S
C1474 C1479 1.425 . S
C1474 C1481 1.409 . S
C1475 H1467 0.930 1_455 S
C1475 C1473 1.419 . S
C1475 C1476 1.362 1_455 S
C1476 H1468 0.930 . S
C1476 C1475 1.362 1_655 S
C1476 C1479 1.409 1_655 S
C1477 H1469 0.930 1_455 S
C1477 C1478 1.355 . S
C1477 C1479 1.415 . S
C1478 C1477 1.355 . S
C1478 C1480 1.419 . S
C1479 C1474 1.425 . S
C1479 C1476 1.409 1_455 S
C1479 C1477 1.415 . S
C1480 H1470 0.930 . S
C1480 C1478 1.419 . S
C1480 C1481 1.362 . S
C1481 H1471 0.930 . S
C1481 C1474 1.409 . S
C1481 C1480 1.362 . S
H1482 C1488 0.930 . S
H1483 C1491 0.930 . S
H1484 C1492 0.930 . S
H1485 C1493 0.930 . S
H1486 C1496 0.926 1_556 S
H1487 C1497 0.930 . S
C1488 H1482 0.930 . S
C1488 C1489 1.355 . S
C1488 C1490 1.415 . S
C1489 C1488 1.355 . S
C1489 C1491 1.419 1_556 S
C1490 C1488 1.415 . S
C1490 C1495 1.425 1_556 S
C1490 C1497 1.409 . S
C1491 H1483 0.930 . S
C1491 C1489 1.419 1_554 S
C1491 C1492 1.362 . S
C1492 H1484 0.930 . S
C1492 C1491 1.362 . S
C1492 C1495 1.409 . S
C1493 H1485 0.930 . S
C1493 C1494 1.355 . S
C1493 C1495 1.415 . S
C1494 C1493 1.355 . S
C1494 C1496 1.419 . S
C1495 C1490 1.425 1_554 S
C1495 C1492 1.409 . S
C1495 C1493 1.415 . S
C1496 H1486 0.926 1_554 S
C1496 C1494 1.419 . S
C1496 C1497 1.362 1_554 S
C1497 H1487 0.930 . S
C1497 C1490 1.409 . S
C1497 C1496 1.362 1_556 S
H1498 C1504 0.930 . S
H1499 C1507 0.930 . S
H1500 C1508 0.930 . S
H1501 C1509 0.930 1_565 S
H1502 C1512 0.930 . S
H1503 C1513 0.930 . S
C1504 H1498 0.930 . S
C1504 C1505 1.355 . S
C1504 C1506 1.415 1_556 S
C1505 C1504 1.355 . S
C1505 C1507 1.419 1_545 S
C1506 C1504 1.415 1_554 S
C1506 C1511 1.425 . S
C1506 C1513 1.409 . S
C1507 H1499 0.930 . S
C1507 C1505 1.419 1_565 S
C1507 C1508 1.362 1_556 S
C1508 H1500 0.930 . S
C1508 C1507 1.362 1_554 S
C1508 C1511 1.409 1_565 S
C1509 H1501 0.930 1_545 S
C1509 C1510 1.355 . S
C1509 C1511 1.415 . S
C1510 C1509 1.355 . S
C1510 C1512 1.419 . S
C1511 C1506 1.425 . S
C1511 C1508 1.409 1_545 S
C1511 C1509 1.415 . S
C1512 H1502 0.930 . S
C1512 C1510 1.419 . S
C1512 C1513 1.362 . S
C1513 H1503 0.930 . S
C1513 C1506 1.409 . S
C1513 C1512 1.362 . S
H1514 C1520 0.930 . S
H1515 C1523 0.930 . S
H1516 C1524 0.930 . S
H1517 C1525 0.930 . S
H1518 C1528 0.917 1_556 S
H1519 C1529 0.930 . S
C1520 H1514 0.930 . S
C1520 C1521 1.355 . S
C1520 C1522 1.415 . S
C1521 C1520 1.355 . S
C1521 C1523 1.419 1_556 S
C1522 C1520 1.415 . S
C1522 C1527 1.425 1_556 S
C1522 C1529 1.409 . S
C1523 H1515 0.930 . S
C1523 C1521 1.419 1_554 S
C1523 C1524 1.362 . S
C1524 H1516 0.930 . S
C1524 C1523 1.362 . S
C1524 C1527 1.409 . S
C1525 H1517 0.930 . S
C1525 C1526 1.355 . S
C1525 C1527 1.415 . S
C1526 C1525 1.355 . S
C1526 C1528 1.459 . S
C1527 C1522 1.425 1_554 S
C1527 C1524 1.409 . S
C1527 C1525 1.415 . S
C1528 H1518 0.917 1_554 S
C1528 C1526 1.459 . S
C1528 C1529 1.336 1_554 S
C1529 H1519 0.930 . S
C1529 C1522 1.409 . S
C1529 C1528 1.336 1_556 S
C961 C39 2.473 . S
C966 C781 2.474 1_554 S
C977 C674 2.506 1_554 S
C982 C91 2.499 . S
C993 C144 2.496 . S
C998 C728 2.496 1_554 S
C1009 C357 2.473 . S
C1014 C145 2.478 . S
C1025 C409 2.489 . S
C1030 C38 2.495 . S
C1041 C463 2.487 . S
C1046 C92 2.496 . S
C1057 C181 1.745 . S
C1062 C605 1.746 . S
C1073 C499 1.720 . S
C1078 C234 1.734 . S
C1089 C552 1.691 . S
C1094 C294 1.664 . S
C1105 C287 1.724 . S
C1110 C817 1.736 . S
C1121 C188 1.649 . S
C1126 C870 1.670 . S
C1137 C930 1.734 . S
C1142 C241 1.725 . S
C1153 C675 2.474 . S
C1158 C462 2.490 . S
C1169 C356 2.513 . S
C1174 C727 2.512 . S
C1185 C780 2.490 . S
C1190 C410 2.489 . S
C1201 C923 1.734 . S
C1206 C506 1.733 . S
C1217 C559 1.677 . S
C1222 C824 1.695 . S
C1233 C877 1.718 . S
C1238 C612 1.701 . S
C1249 C833 1.573 . S
C1254 C29 1.574 . S
C1265 C75 1.582 . S
C1270 C886 1.584 . S
C1281 C128 1.553 . S
C1286 C940 1.559 . S
C1297 C135 1.590 . S
C1302 C621 1.587 . S
C1313 C515 1.570 . S
C1318 C22 1.567 . S
C1329 C82 1.589 . S
C1334 C568 1.585 . S
C1345 C347 1.590 . S
C1350 C197 1.589 . S
C1361 C393 1.582 . S
C1366 C250 1.584 . S
C1377 C304 1.565 . S
C1382 C453 1.562 . S
C1393 C303 1.567 . S
C1398 C771 1.569 . S
C1409 C198 1.581 . S
C1414 C658 1.575 . S
C1425 C251 1.561 . S
C1430 C718 1.559 . S
C1441 C446 1.558 . S
C1446 C939 1.555 . S
C1457 C340 1.581 1_565 S
C1462 C834 1.581 . S
C1473 C887 1.592 . S
C1478 C400 1.591 . S
C1489 C665 1.573 . S
C1494 C516 1.576 . S
C1505 C711 1.556 . S
C1510 C569 1.564 . S
C1521 C764 1.580 1_655 S
C1526 C622 1.585 . S
