# Generated by pormake.
# Topology fnj, (5)-cn, num edge types: 1
# Building blocks:
#     Node 0, Type 0, BuildingBlock: XOMCOT_clean_sbu_0, # of connection points: 5
#     Node 1, Type 0, BuildingBlock: XOMCOT_clean_sbu_0, # of connection points: 5
#     Node 2, Type 0, BuildingBlock: XOMCOT_clean_sbu_0, # of connection points: 5
#     Node 3, Type 0, BuildingBlock: XOMCOT_clean_sbu_0, # of connection points: 5
#     Node 4, Type 0, BuildingBlock: XOMCOT_clean_sbu_0, # of connection points: 5
#     Node 5, Type 0, BuildingBlock: XOMCOT_clean_sbu_0, # of connection points: 5
#     Node 6, Type 0, BuildingBlock: XOMCOT_clean_sbu_0, # of connection points: 5
#     Node 7, Type 0, BuildingBlock: XOMCOT_clean_sbu_0, # of connection points: 5
#     Node 8, Type 0, BuildingBlock: XOMCOT_clean_sbu_0, # of connection points: 5
#     Node 9, Type 0, BuildingBlock: XOMCOT_clean_sbu_0, # of connection points: 5
#     Node 10, Type 0, BuildingBlock: XOMCOT_clean_sbu_0, # of connection points: 5
#     Node 11, Type 0, BuildingBlock: XOMCOT_clean_sbu_0, # of connection points: 5
#     Node 12, Type 0, BuildingBlock: XOMCOT_clean_sbu_0, # of connection points: 5
#     Node 13, Type 0, BuildingBlock: XOMCOT_clean_sbu_0, # of connection points: 5
#     Node 14, Type 0, BuildingBlock: XOMCOT_clean_sbu_0, # of connection points: 5
#     Node 15, Type 0, BuildingBlock: XOMCOT_clean_sbu_0, # of connection points: 5
#     Edge 16, Type (0, 0), BuildingBlock: OJICUG_clean_linker_0, # of connection points: 2
#     Edge 17, Type (0, 0), BuildingBlock: OJICUG_clean_linker_0, # of connection points: 2
#     Edge 18, Type (0, 0), BuildingBlock: OJICUG_clean_linker_0, # of connection points: 2
#     Edge 19, Type (0, 0), BuildingBlock: OJICUG_clean_linker_0, # of connection points: 2
#     Edge 20, Type (0, 0), BuildingBlock: OJICUG_clean_linker_0, # of connection points: 2
#     Edge 21, Type (0, 0), BuildingBlock: OJICUG_clean_linker_0, # of connection points: 2
#     Edge 22, Type (0, 0), BuildingBlock: OJICUG_clean_linker_0, # of connection points: 2
#     Edge 23, Type (0, 0), BuildingBlock: OJICUG_clean_linker_0, # of connection points: 2
#     Edge 24, Type (0, 0), BuildingBlock: OJICUG_clean_linker_0, # of connection points: 2
#     Edge 25, Type (0, 0), BuildingBlock: OJICUG_clean_linker_0, # of connection points: 2
#     Edge 26, Type (0, 0), BuildingBlock: OJICUG_clean_linker_0, # of connection points: 2
#     Edge 27, Type (0, 0), BuildingBlock: OJICUG_clean_linker_0, # of connection points: 2
#     Edge 28, Type (0, 0), BuildingBlock: OJICUG_clean_linker_0, # of connection points: 2
#     Edge 29, Type (0, 0), BuildingBlock: OJICUG_clean_linker_0, # of connection points: 2
#     Edge 30, Type (0, 0), BuildingBlock: OJICUG_clean_linker_0, # of connection points: 2
#     Edge 31, Type (0, 0), BuildingBlock: OJICUG_clean_linker_0, # of connection points: 2
#     Edge 32, Type (0, 0), BuildingBlock: OJICUG_clean_linker_0, # of connection points: 2
#     Edge 33, Type (0, 0), BuildingBlock: OJICUG_clean_linker_0, # of connection points: 2
#     Edge 34, Type (0, 0), BuildingBlock: OJICUG_clean_linker_0, # of connection points: 2
#     Edge 35, Type (0, 0), BuildingBlock: OJICUG_clean_linker_0, # of connection points: 2
#     Edge 36, Type (0, 0), BuildingBlock: OJICUG_clean_linker_0, # of connection points: 2
#     Edge 37, Type (0, 0), BuildingBlock: OJICUG_clean_linker_0, # of connection points: 2
#     Edge 38, Type (0, 0), BuildingBlock: OJICUG_clean_linker_0, # of connection points: 2
#     Edge 39, Type (0, 0), BuildingBlock: OJICUG_clean_linker_0, # of connection points: 2
#     Edge 40, Type (0, 0), BuildingBlock: OJICUG_clean_linker_0, # of connection points: 2
#     Edge 41, Type (0, 0), BuildingBlock: OJICUG_clean_linker_0, # of connection points: 2
#     Edge 42, Type (0, 0), BuildingBlock: OJICUG_clean_linker_0, # of connection points: 2
#     Edge 43, Type (0, 0), BuildingBlock: OJICUG_clean_linker_0, # of connection points: 2
#     Edge 44, Type (0, 0), BuildingBlock: OJICUG_clean_linker_0, # of connection points: 2
#     Edge 45, Type (0, 0), BuildingBlock: OJICUG_clean_linker_0, # of connection points: 2
#     Edge 46, Type (0, 0), BuildingBlock: OJICUG_clean_linker_0, # of connection points: 2
#     Edge 47, Type (0, 0), BuildingBlock: OJICUG_clean_linker_0, # of connection points: 2
#     Edge 48, Type (0, 0), BuildingBlock: OJICUG_clean_linker_0, # of connection points: 2
#     Edge 49, Type (0, 0), BuildingBlock: OJICUG_clean_linker_0, # of connection points: 2
#     Edge 50, Type (0, 0), BuildingBlock: OJICUG_clean_linker_0, # of connection points: 2
#     Edge 51, Type (0, 0), BuildingBlock: OJICUG_clean_linker_0, # of connection points: 2
#     Edge 52, Type (0, 0), BuildingBlock: OJICUG_clean_linker_0, # of connection points: 2
#     Edge 53, Type (0, 0), BuildingBlock: OJICUG_clean_linker_0, # of connection points: 2
#     Edge 54, Type (0, 0), BuildingBlock: OJICUG_clean_linker_0, # of connection points: 2
#     Edge 55, Type (0, 0), BuildingBlock: OJICUG_clean_linker_0, # of connection points: 2
# Relax obj value: 0.069
# Max RMSD: 0.157
# Mean RMSD: 0.156
data_MOF--net-fnj--node1-XOMCOT_clean_sbu_0--edge1-OJICUG_clean_linker_0
_symmetry_space_group_name_H-M    P1
_symmetry_Int_Tables_number       1
_symmetry_cell_setting            triclinic
loop_
_symmetry_equiv_pos_as_xyz
'x, y, z'
_cell_length_a     58.252822
_cell_length_b     58.207163
_cell_length_c     13.578846
_cell_angle_alpha  90.654781
_cell_angle_beta   90.609792
_cell_angle_gamma 90.089661
loop_
_atom_site_label
_atom_site_type_symbol
_atom_site_fract_x
_atom_site_fract_y
_atom_site_fract_z
_atom_type_partial_charge
Co0 Co 0.37223 1.00028 0.07707 0.0
C1 C 0.37664 0.00451 0.85946 0.0
C2 C 0.34945 0.0253 0.91622 0.0
C3 C 0.34839 0.02576 0.81489 0.0
N4 N 0.36749 0.01238 0.94479 0.0
N5 N 0.3654 0.0125 0.77915 0.0
H6 H 0.3903 0.99211 0.85544 0.0
H7 H 0.33687 0.03258 0.96553 0.0
C8 C 0.36606 0.05182 0.11117 0.0
O9 O 0.37722 0.05751 0.03146 0.0
N10 N 0.37652 0.98802 0.20818 0.0
C11 C 0.39117 0.97136 0.23555 0.0
C12 C 0.39173 0.97041 0.3371 0.0
C13 C 0.3682 0.99676 0.29316 0.0
N14 N 0.37738 0.98656 0.37351 0.0
C15 C 0.41729 0.98847 0.01741 0.0
C16 C 0.44111 0.02145 0.12429 0.0
C17 C 0.45348 0.00484 0.07065 0.0
C18 C 0.4411 0.98831 1.01675 0.0
C19 C 0.41698 0.02098 0.12307 0.0
N20 N 0.40534 0.00471 0.06901 0.0
H21 H 0.40861 0.97469 0.97885 0.0
H22 H 0.40788 0.03318 0.16844 0.0
H23 H 0.40154 0.96131 0.18551 0.0
H24 H 0.35602 0.01066 0.29612 0.0
O25 O 0.37019 0.96959 0.02211 0.0
O26 O 0.34075 0.99029 0.07464 0.0
O27 O 0.36581 0.03106 0.13985 0.0
C28 C 0.34813 0.97173 0.0314 0.0
H29 H 0.33511 0.03386 0.77112 0.0
H30 H 0.40273 0.95938 0.38039 0.0
H31 H 0.44995 0.0345 0.16775 0.0
H32 H 0.4497 0.97462 0.97709 0.0
Co33 Co 0.25843 0.12872 0.27468 0.0
C34 C 0.25479 0.13053 0.05492 0.0
C35 C 0.23963 0.10016 0.11321 0.0
C36 C 0.23917 0.09848 1.01188 0.0
N37 N 0.24902 0.1205 0.14058 0.0
N38 N 0.2489 0.11755 0.97552 0.0
H39 H 0.26393 0.14648 0.04932 0.0
H40 H 0.23439 0.08695 0.16372 0.0
C41 C 0.20723 0.11771 0.28871 0.0
O42 O 0.20327 0.12663 0.20179 0.0
N43 N 0.26799 0.13609 0.40781 0.0
C44 C 0.28197 0.15326 0.43778 0.0
C45 C 0.28278 0.15357 0.53927 0.0
C46 C 0.26066 0.12605 0.49081 0.0
N47 N 0.26929 0.13647 0.57273 0.0
C48 C 0.26461 0.17429 0.20377 0.0
C49 C 0.23168 0.19583 0.31597 0.0
C50 C 0.24652 0.20934 0.25941 0.0
C51 C 0.26276 0.19813 0.20153 0.0
C52 C 0.23358 0.17166 0.3134 0.0
N53 N 0.24997 0.16108 0.25743 0.0
H54 H 0.27902 0.16676 0.16662 0.0
H55 H 0.22285 0.16167 0.36119 0.0
H56 H 0.29049 0.16511 0.3894 0.0
H57 H 0.24913 0.11148 0.4909 0.0
O58 O 0.29001 0.13062 0.23106 0.0
O59 O 0.27341 0.09906 0.28474 0.0
O60 O 0.22728 0.11903 0.328 0.0
C61 C 0.2916 0.10885 0.24912 0.0
H62 H 0.23335 0.08382 0.96863 0.0
H63 H 0.29204 0.16595 0.58455 0.0
H64 H 0.21915 0.20389 0.36345 0.0
H65 H 0.27508 0.20785 0.15953 0.0
Co66 Co 0.13668 1.00031 0.4769 0.0
C67 C 0.13457 1.0038 0.69651 0.0
C68 C 0.16485 0.01928 0.63875 0.0
C69 C 0.16636 0.0199 0.74003 0.0
N70 N 0.1447 0.00956 0.61114 0.0
N71 N 0.14735 0.00999 0.77603 0.0
H72 H 0.11862 0.99461 0.70173 0.0
H73 H 0.17799 0.02477 0.58842 0.0
C74 C 0.14519 0.05212 0.4679 0.0
O75 O 0.13695 0.05515 0.55673 0.0
N76 N 0.12942 0.99092 0.34364 0.0
C77 C 0.11294 0.97611 0.31398 0.0
C78 C 0.1125 0.97536 0.2126 0.0
C79 C 0.13894 0.99882 0.26056 0.0
N80 N 0.12885 0.98969 0.17886 0.0
C81 C 0.09187 0.99024 0.5475 0.0
C82 C 0.06796 0.0242 0.45114 0.0
C83 C 0.05548 0.00732 0.5019 0.0
C84 C 0.06801 0.9906 0.55225 0.0
C85 C 0.09217 0.02339 0.4493 0.0
N86 N 0.10392 0.00648 0.49742 0.0
H87 H 0.10049 0.97602 0.58172 0.0
H88 H 0.10124 0.03563 0.40494 0.0
H89 H 0.10171 0.96685 0.36253 0.0
H90 H 0.15296 0.01102 0.26036 0.0
O91 O 0.13698 0.96837 0.51633 0.0
O92 O 0.16729 0.98747 0.46461 0.0
O93 O 0.14418 0.03231 0.42597 0.0
C94 C 0.15877 0.96844 0.49806 0.0
H95 H 0.18085 0.02601 0.78358 0.0
H96 H 0.10058 0.96544 0.16765 0.0
H97 H 0.05912 0.03732 0.40959 0.0
H98 H 0.05948 0.97739 0.59383 0.0
Co99 Co 0.25699 0.89007 0.77151 0.0
C100 C 0.25586 0.8884 0.98933 0.0
C101 C 0.22999 0.91081 0.9313 0.0
C102 C 0.23 0.91262 0.03254 0.0
N103 N 0.24613 0.89554 0.90424 0.0
N104 N 0.24638 0.89862 0.06929 0.0
H105 H 0.27012 0.87655 0.99211 0.0
H106 H 0.21974 0.92091 0.88104 0.0
C107 C 0.21424 0.89348 0.64005 0.0
O108 O 0.21961 0.87585 0.58367 0.0
N109 N 0.26828 0.88487 0.63859 0.0
C110 C 0.28188 0.86754 0.60787 0.0
C111 C 0.28399 0.86856 0.50716 0.0
C112 C 0.26319 0.89677 0.55621 0.0
N113 N 0.27192 0.88674 0.47439 0.0
C114 C 0.26929 0.8444 0.82236 0.0
C115 C 0.22834 0.82284 0.77618 0.0
C116 C 0.24714 0.8096 0.80703 0.0
C117 C 0.26758 0.82075 0.83242 0.0
C118 C 0.23064 0.84678 0.76931 0.0
N119 N 0.25134 0.85719 0.78747 0.0
H120 H 0.28558 0.85215 0.84062 0.0
H121 H 0.2157 0.85665 0.7502 0.0
H122 H 0.28929 0.85455 0.65433 0.0
H123 H 0.25252 0.91194 0.55556 0.0
O124 O 0.28821 0.89132 0.82031 0.0
O125 O 0.26807 0.92126 0.76984 0.0
O126 O 0.22535 0.8978 0.71974 0.0
C127 C 0.28678 0.91339 0.80986 0.0
H128 H 0.21949 0.92428 0.07516 0.0
H129 H 0.29267 0.85608 0.46114 0.0
H130 H 0.21203 0.81478 0.75833 0.0
H131 H 0.28248 0.81116 0.8568 0.0
Co132 Co 0.6333 1.00351 0.04345 0.0
C133 C 0.63367 0.00416 0.26251 0.0
C134 C 0.65605 0.9784 0.20341 0.0
C135 C 0.65844 0.97871 0.30436 0.0
N136 N 0.64035 0.99422 0.17714 0.0
N137 N 0.64437 0.99495 0.34178 0.0
H138 H 0.62168 0.01823 0.26635 0.0
H139 H 0.66586 0.96799 0.15265 0.0
C140 C 0.63867 0.9601 0.91703 0.0
O141 O 0.62264 0.96519 0.85215 0.0
N142 N 0.6267 0.01319 0.9099 0.0
C143 C 0.60805 0.02477 0.87843 0.0
C144 C 0.60931 0.02734 0.77802 0.0
C145 C 0.63951 0.00971 0.82872 0.0
N146 N 0.62894 0.01758 0.74664 0.0
C147 C 0.58904 0.0156 0.11363 0.0
C148 C 0.5647 0.97873 0.03732 0.0
C149 C 0.55272 0.99697 0.08172 0.0
C150 C 0.5653 0.0152 0.12242 0.0
C151 C 0.58874 0.97959 0.03171 0.0
N152 N 0.6006 0.99833 0.06633 0.0
H153 H 0.59787 0.03055 0.14186 0.0
H154 H 0.59745 0.96534 0.99808 0.0
H155 H 0.59412 0.03049 0.92438 0.0
H156 H 0.65574 1.00068 0.82914 0.0
O157 O 0.63498 0.03538 0.08376 0.0
O158 O 0.66437 0.01445 0.0328 0.0
O159 O 0.64032 0.97098 0.99913 0.0
C160 C 0.65686 0.03383 0.06828 0.0
H161 H 0.67031 0.96829 0.34621 0.0
H162 H 0.59619 0.03472 0.73112 0.0
H163 H 0.55555 0.96408 1.0064 0.0
H164 H 0.55679 0.02972 0.15672 0.0
Co165 Co 0.7506 0.88919 0.75086 0.0
C166 C 0.75025 0.89684 0.96889 0.0
C167 C 0.78382 0.88864 0.91637 0.0
C168 C 0.78478 0.89031 0.01744 0.0
N169 N 0.76216 0.89272 0.88549 0.0
N170 N 0.76361 0.89532 0.05057 0.0
H171 H 0.732 0.89993 0.9706 0.0
H172 H 0.79781 0.88346 0.86978 0.0
C173 C 0.80131 0.89349 0.67583 0.0
O174 O 0.80656 0.87166 0.68296 0.0
N175 N 0.73938 0.88594 0.61693 0.0
C176 C 0.72209 0.87223 0.58551 0.0
C177 C 0.72069 0.87326 0.48442 0.0
C178 C 0.7481 0.8953 0.53497 0.0
N179 N 0.73713 0.88769 0.45261 0.0
C180 C 0.74949 0.84466 0.83237 0.0
C181 C 0.76516 0.81978 0.67288 0.0
C182 C 0.75607 0.80765 0.75314 0.0
C183 C 0.74847 0.82072 0.83381 0.0
C184 C 0.76559 0.84402 0.67384 0.0
N185 N 0.75788 0.85625 0.75346 0.0
H186 H 0.74189 0.85393 0.89297 0.0
H187 H 0.77108 0.85284 0.60856 0.0
H188 H 0.71185 0.86148 0.63249 0.0
H189 H 0.76242 0.90713 0.53539 0.0
O190 O 0.71921 0.8865 0.79646 0.0
O191 O 0.73645 0.91922 0.75983 0.0
O192 O 0.78141 0.90076 0.70048 0.0
C193 C 0.718 0.90872 0.78879 0.0
H194 H 0.79965 0.88667 0.06305 0.0
H195 H 0.70916 0.86326 0.43788 0.0
H196 H 0.77143 0.81075 0.60851 0.0
H197 H 0.74051 0.81271 0.89636 0.0
Co198 Co 0.87417 0.01274 0.49427 0.0
C199 C 0.87592 0.01037 0.27494 0.0
C200 C 0.85031 0.98796 0.33208 0.0
C201 C 0.84888 0.98732 0.23071 0.0
N202 N 0.86768 1.00201 0.36021 0.0
N203 N 0.86502 1.00148 0.19477 0.0
H204 H 0.88831 0.02402 0.27078 0.0
H205 H 0.83863 0.9796 0.3816 0.0
C206 C 0.86632 0.96092 0.52425 0.0
O207 O 0.88021 0.95528 0.45234 0.0
N208 N 0.88009 0.02348 0.62738 0.0
C209 C 0.89584 0.03915 0.65646 0.0
C210 C 0.89629 0.04015 0.75795 0.0
C211 C 0.87101 0.01531 0.71114 0.0
N212 N 0.88073 0.02507 0.79227 0.0
C213 C 0.91989 0.01897 0.42753 0.0
C214 C 0.94174 0.98809 0.54881 0.0
C215 C 0.95517 1.00303 0.49214 0.0
C216 C 0.94375 0.01817 0.42955 0.0
C217 C 0.91753 0.98945 0.54452 0.0
N218 N 0.90681 0.00478 0.48374 0.0
H219 H 0.91224 0.03243 0.38516 0.0
H220 H 0.9076 0.97916 0.59424 0.0
H221 H 0.90671 0.04869 0.6074 0.0
H222 H 0.8582 1.00187 0.71288 0.0
O223 O 0.87611 0.04403 0.4469 0.0
O224 O 0.84425 0.02726 0.49622 0.0
O225 O 0.86397 0.98203 0.5496 0.0
C226 C 0.85415 0.04537 0.46036 0.0
H227 H 0.83647 0.97762 0.18729 0.0
H228 H 0.90742 0.05098 0.80284 0.0
H229 H 0.94982 0.97629 0.59951 0.0
H230 H 0.95322 0.02999 0.38412 0.0
Co231 Co 0.74643 0.1256 0.27857 0.0
C232 C 0.7505 0.1293 0.06085 0.0
C233 C 0.77017 0.10131 0.11769 0.0
C234 C 0.77059 0.10019 1.01632 0.0
N235 N 0.75797 0.11988 0.14612 0.0
N236 N 0.75804 0.11771 0.98058 0.0
H237 H 0.73876 0.14353 0.05683 0.0
H238 H 0.7771 0.08859 0.16721 0.0
C239 C 0.79791 0.11896 0.30899 0.0
O240 O 0.80347 0.12877 0.2259 0.0
N241 N 0.73469 0.13087 0.4099 0.0
C242 C 0.71859 0.14613 0.43753 0.0
C243 C 0.71768 0.14667 0.53909 0.0
C244 C 0.7431 0.12217 0.49464 0.0
N245 N 0.73326 0.13168 0.57517 0.0
C246 C 0.73415 0.17037 0.21427 0.0
C247 C 0.76901 0.19452 0.3077 0.0
C248 C 0.75233 0.20663 0.25375 0.0
C249 C 0.73481 0.19416 0.20665 0.0
C250 C 0.76783 0.17049 0.31277 0.0
N251 N 0.75068 0.15864 0.26502 0.0
H252 H 0.7198 0.16151 0.18058 0.0
H253 H 0.78032 0.16168 0.35756 0.0
H254 H 0.70882 0.15678 0.38767 0.0
H255 H 0.75643 0.10938 0.49718 0.0
O256 O 0.7155 0.12268 0.22629 0.0
O257 O 0.73687 0.0941 0.28262 0.0
O258 O 0.7774 0.11993 0.34034 0.0
C259 C 0.71797 0.10076 0.24037 0.0
H260 H 0.77824 0.08662 0.97252 0.0
H261 H 0.70701 0.15799 0.58261 0.0
H262 H 0.78276 0.20354 0.34616 0.0
H263 H 0.72118 0.20277 0.16678 0.0
Co264 Co 0.8715 0.49704 0.56195 0.0
C265 C 0.87544 0.50123 0.34413 0.0
C266 C 0.84804 0.52164 0.40148 0.0
C267 C 0.84685 0.52207 0.30012 0.0
N268 N 0.86629 0.50896 0.42966 0.0
N269 N 0.86399 0.50904 0.26403 0.0
H270 H 0.88927 0.48904 0.33979 0.0
H271 H 0.83543 0.52876 0.45105 0.0
C272 C 0.86393 0.54845 0.59758 0.0
O273 O 0.87524 0.55454 0.51883 0.0
N274 N 0.87624 0.48502 0.69317 0.0
C275 C 0.89158 0.46902 0.7209 0.0
C276 C 0.89205 0.46809 0.82245 0.0
C277 C 0.86744 0.49339 0.77792 0.0
N278 N 0.87696 0.48359 0.85847 0.0
C279 C 0.91688 0.48716 0.5008 0.0
C280 C 0.93964 0.52117 0.60591 0.0
C281 C 0.95245 0.50507 0.55145 0.0
C282 C 0.94065 0.48815 0.49782 0.0
C283 C 0.91554 0.51956 0.60702 0.0
N284 N 0.90442 0.50279 0.55365 0.0
H285 H 0.90872 0.47312 0.46209 0.0
H286 H 0.90609 0.53124 0.65347 0.0
H287 H 0.90244 0.45945 0.6711 0.0
H288 H 0.85466 0.50676 0.7806 0.0
O289 O 0.87087 0.46631 0.50717 0.0
O290 O 0.84047 0.48563 0.55888 0.0
O291 O 0.86374 0.52755 0.62457 0.0
C292 C 0.84874 0.46745 0.51554 0.0
H293 H 0.83342 0.52999 0.25662 0.0
H294 H 0.90347 0.45756 0.86606 0.0
H295 H 0.94816 0.53437 0.64974 0.0
H296 H 0.94973 0.47547 0.45413 0.0
Co297 Co 0.75811 0.62673 0.77272 0.0
C298 C 0.75411 0.62874 0.5532 0.0
C299 C 0.73903 0.5983 0.61121 0.0
C300 C 0.7386 0.59667 0.50984 0.0
N301 N 0.74836 0.61865 0.63882 0.0
N302 N 0.74829 0.61578 0.47361 0.0
H303 H 0.76323 0.64471 0.54782 0.0
H304 H 0.73387 0.58503 0.66158 0.0
C305 C 0.70676 0.6156 0.7905 0.0
O306 O 0.70236 0.62332 0.70181 0.0
N307 N 0.76799 0.634 0.90566 0.0
C308 C 0.78197 0.65117 0.93564 0.0
C309 C 0.78274 0.6515 0.03717 0.0
C310 C 0.76064 0.62399 0.98876 0.0
N311 N 0.76923 0.63443 0.07072 0.0
C312 C 0.76518 0.67215 0.70128 0.0
C313 C 0.73159 0.6944 0.80699 0.0
C314 C 0.74666 0.70754 0.74987 0.0
C315 C 0.76332 0.69596 0.69565 0.0
C316 C 0.73354 0.67021 0.80791 0.0
N317 N 0.75022 0.65928 0.7548 0.0
H318 H 0.77967 0.66436 0.66563 0.0
H319 H 0.72247 0.66052 0.85537 0.0
H320 H 0.79046 0.66303 0.88726 0.0
H321 H 0.74907 0.60945 0.98886 0.0
O322 O 0.78964 0.62798 0.72793 0.0
O323 O 0.77262 0.59677 0.78244 0.0
O324 O 0.72693 0.61763 0.82811 0.0
C325 C 0.79089 0.60618 0.74567 0.0
H326 H 0.73287 0.58199 0.46648 0.0
H327 H 0.79197 0.66392 0.08241 0.0
H328 H 0.71872 0.70277 0.85176 0.0
H329 H 0.77579 0.70538 0.65333 0.0
Co330 Co 0.63439 0.50147 1.00842 0.0
C331 C 0.63221 0.50562 0.2279 0.0
C332 C 0.66272 0.52058 0.17 0.0
C333 C 0.66429 0.52107 0.27136 0.0
N334 N 0.64238 0.51126 0.14233 0.0
N335 N 0.64514 0.51146 0.30751 0.0
H336 H 0.61618 0.4966 0.23322 0.0
H337 H 0.67601 0.52568 0.11967 0.0
C338 C 0.6451 0.55296 0.99138 0.0
O339 O 0.63742 0.5572 0.0803 0.0
N340 N 0.62721 0.49157 0.87543 0.0
C341 C 0.61023 0.47735 0.84553 0.0
C342 C 0.60986 0.4766 0.74401 0.0
C343 C 0.63707 0.49908 0.7923 0.0
N344 N 0.62672 0.49036 0.71038 0.0
C345 C 0.58921 0.49343 0.07837 0.0
C346 C 0.56639 0.52691 0.97447 0.0
C347 C 0.55339 0.51065 0.02653 0.0
C348 C 0.56538 0.49427 0.08099 0.0
C349 C 0.59063 0.52567 0.97499 0.0
N350 N 0.60182 0.50895 0.02662 0.0
H351 H 0.59726 0.47925 0.11508 0.0
H352 H 0.60016 0.53734 0.92954 0.0
H353 H 0.59853 0.46864 0.89393 0.0
H354 H 0.65145 0.51085 0.79214 0.0
O355 O 0.63328 0.46998 0.05271 0.0
O356 O 0.66446 0.48709 0.99873 0.0
O357 O 0.6432 0.53279 0.95337 0.0
C358 C 0.65505 0.46879 0.0353 0.0
H359 H 0.67895 0.52679 0.31479 0.0
H360 H 0.59757 0.4672 0.69887 0.0
H361 H 0.55795 0.53979 0.93011 0.0
H362 H 0.55641 0.48157 0.12383 0.0
Co363 Co 0.7626 0.38692 0.22219 0.0
C364 C 0.75828 0.38292 0.43981 0.0
C365 C 0.73823 0.41064 0.38298 0.0
C366 C 0.73787 0.41179 0.48437 0.0
N367 N 0.75064 0.39221 0.35445 0.0
N368 N 0.75066 0.39445 0.52016 0.0
H369 H 0.7703 0.36892 0.44375 0.0
H370 H 0.7313 0.42339 0.33365 0.0
C371 C 0.71146 0.39518 0.18597 0.0
O372 O 0.70509 0.38414 0.26499 0.0
N373 N 0.77469 0.38206 0.09105 0.0
C374 C 0.79048 0.36649 0.06329 0.0
C375 C 0.7914 0.36598 0.9617 0.0
C376 C 0.76645 0.39094 1.00627 0.0
N377 N 0.77611 0.38126 0.92566 0.0
C378 C 0.77181 0.34131 0.28312 0.0
C379 C 0.73672 0.31926 0.18193 0.0
C380 C 0.75213 0.30617 0.23861 0.0
C381 C 0.76985 0.31761 0.28896 0.0
C382 C 0.73927 0.34325 0.17829 0.0
N383 N 0.75644 0.35406 0.23038 0.0
H384 H 0.78629 0.34921 0.31982 0.0
H385 H 0.72782 0.35287 0.13152 0.0
H386 H 0.79988 0.3555 0.11307 0.0
H387 H 0.75325 0.40389 1.0036 0.0
O388 O 0.79327 0.38745 0.27779 0.0
O389 O 0.7741 0.41787 0.22511 0.0
O390 O 0.73233 0.39491 0.15907 0.0
C391 C 0.79212 0.40963 0.26938 0.0
H392 H 0.73016 0.42534 0.52809 0.0
H393 H 0.80176 0.35438 0.91808 0.0
H394 H 0.72293 0.31107 0.14052 0.0
H395 H 0.7827 0.30826 0.33048 0.0
Co396 Co 0.13273 0.51335 0.51347 0.0
C397 C 0.12918 0.50905 0.73135 0.0
C398 C 0.15787 0.4905 0.67409 0.0
C399 C 0.15908 0.49013 0.77544 0.0
N400 N 0.13883 0.50197 0.6459 0.0
N401 N 0.14111 0.50198 0.81143 0.0
H402 H 0.11452 0.52022 0.73573 0.0
H403 H 0.17085 0.48413 0.62442 0.0
C404 C 0.14189 0.46209 0.48192 0.0
O405 O 0.13214 0.45591 0.56432 0.0
N406 N 0.12711 0.52489 0.38211 0.0
C407 C 0.11126 0.5404 0.3544 0.0
C408 C 0.11075 0.54131 0.25285 0.0
C409 C 0.13617 0.51682 0.29742 0.0
N410 N 0.12634 0.52631 0.21685 0.0
C411 C 0.08764 0.52366 0.57743 0.0
C412 C 0.06452 0.48859 0.48079 0.0
C413 C 0.0519 0.50519 0.53338 0.0
C414 C 0.06391 0.52262 0.58302 0.0
C415 C 0.0886 0.49021 0.47739 0.0
N416 N 0.0999 0.50758 0.52621 0.0
H417 H 0.09597 0.53804 0.61326 0.0
H418 H 0.09788 0.478 0.43279 0.0
H419 H 0.10021 0.54974 0.40419 0.0
H420 H 0.14944 0.50396 0.29491 0.0
O421 O 0.1337 0.54429 0.56596 0.0
O422 O 0.16372 0.52479 0.51139 0.0
O423 O 0.14011 0.48266 0.4515 0.0
C424 C 0.15574 0.5432 0.5538 0.0
H425 H 0.17297 0.48304 0.81904 0.0
H426 H 0.09904 0.55153 0.20927 0.0
H427 H 0.05586 0.47495 0.44008 0.0
H428 H 0.05504 0.53565 0.62557 0.0
Co429 Co 0.25067 0.39033 0.28683 0.0
C430 C 0.25044 0.39756 0.50503 0.0
C431 C 0.28421 0.39052 0.45191 0.0
C432 C 0.28515 0.39191 0.55313 0.0
N433 N 0.26242 0.39405 0.42127 0.0
N434 N 0.26385 0.39619 0.5866 0.0
H435 H 0.23212 0.40014 0.50712 0.0
H436 H 0.29833 0.3859 0.40509 0.0
C437 C 0.30112 0.3958 0.21099 0.0
O438 O 0.30695 0.37418 0.22098 0.0
N439 N 0.23918 0.38692 0.1532 0.0
C440 C 0.22215 0.37286 0.12211 0.0
C441 C 0.22082 0.37363 0.02088 0.0
C442 C 0.2478 0.39625 0.0709 0.0
N443 N 0.23706 0.38824 0.98866 0.0
C444 C 0.25093 0.34552 0.36603 0.0
C445 C 0.2662 0.32182 0.20248 0.0
C446 C 0.25721 0.30913 0.2812 0.0
C447 C 0.24995 0.32155 0.36431 0.0
C448 C 0.26659 0.34601 0.20668 0.0
N449 N 0.2589 0.35766 0.28789 0.0
H450 H 0.24348 0.35435 0.42817 0.0
H451 H 0.2719 0.35529 0.14229 0.0
H452 H 0.21212 0.36199 0.16937 0.0
H453 H 0.26194 0.40828 0.07093 0.0
O454 O 0.21958 0.38674 0.33522 0.0
O455 O 0.23559 0.41986 0.29588 0.0
O456 O 0.28103 0.40271 0.23481 0.0
C457 C 0.2176 0.4089 0.32708 0.0
H458 H 0.30014 0.38862 0.59852 0.0
H459 H 0.20953 0.36329 0.97459 0.0
H460 H 0.27231 0.31328 0.13665 0.0
H461 H 0.24219 0.31305 0.42612 0.0
Co462 Co 0.37202 0.51557 0.02134 0.0
C463 C 0.37347 0.51348 0.80199 0.0
C464 C 0.34854 0.49032 0.85909 0.0
C465 C 0.34714 0.48964 0.75768 0.0
N466 N 0.36548 0.50488 0.88724 0.0
N467 N 0.36287 0.50426 0.72182 0.0
H468 H 0.38546 0.52749 0.79782 0.0
H469 H 0.33713 0.48158 0.90856 0.0
C470 C 0.36478 0.46362 0.05239 0.0
O471 O 0.37876 0.45793 0.98088 0.0
N472 N 0.37798 0.52625 0.15446 0.0
C473 C 0.39362 0.54203 0.18356 0.0
C474 C 0.39404 0.54304 0.28504 0.0
C475 C 0.36896 0.51802 0.23816 0.0
N476 N 0.37858 0.52784 0.31933 0.0
C477 C 0.41754 0.52223 0.95299 0.0
C478 C 0.43991 0.4915 0.07317 0.0
C479 C 0.45309 0.5065 1.01563 0.0
C480 C 0.44141 0.52156 0.95367 0.0
C481 C 0.41569 0.49271 0.07013 0.0
N482 N 0.40471 0.50794 1.00979 0.0
H483 H 0.40969 0.53565 0.91107 0.0
H484 H 0.40596 0.48237 0.12038 0.0
H485 H 0.40441 0.55167 0.13451 0.0
H486 H 0.35621 0.5045 0.23982 0.0
O487 O 0.3736 0.54692 0.97454 0.0
O488 O 0.34196 0.5298 0.02433 0.0
O489 O 0.36216 0.48475 0.07662 0.0
C490 C 0.35166 0.54806 0.98886 0.0
H491 H 0.33507 0.47955 0.71416 0.0
H492 H 0.40507 0.55397 0.32994 0.0
H493 H 0.4482 0.47977 0.12353 0.0
H494 H 0.45066 0.53341 0.9076 0.0
Co495 Co 0.24339 0.62888 0.81438 0.0
C496 C 0.24764 0.63322 0.59695 0.0
C497 C 0.26768 0.60542 0.65318 0.0
C498 C 0.26817 0.60445 0.55185 0.0
N499 N 0.25522 0.62377 0.68201 0.0
N500 N 0.25538 0.62184 0.51645 0.0
H501 H 0.23564 0.64726 0.59334 0.0
H502 H 0.27467 0.59265 0.70232 0.0
C503 C 0.2948 0.6221 0.84635 0.0
O504 O 0.30045 0.63292 0.76572 0.0
N505 N 0.23138 0.63357 0.94566 0.0
C506 C 0.21488 0.64841 0.97305 0.0
C507 C 0.21398 0.64905 0.07458 0.0
C508 C 0.24008 0.62522 0.0306 0.0
N509 N 0.22999 0.63456 0.11096 0.0
C510 C 0.23174 0.67408 0.75549 0.0
C511 C 0.26616 0.69748 0.85523 0.0
C512 C 0.24933 0.71009 0.80411 0.0
C513 C 0.23202 0.69792 0.75398 0.0
C514 C 0.26512 0.67338 0.85566 0.0
N515 N 0.24815 0.66193 0.805 0.0
H516 H 0.21758 0.66555 0.71898 0.0
H517 H 0.27753 0.66419 0.8994 0.0
H518 H 0.20488 0.6588 0.92301 0.0
H519 H 0.25383 0.61288 0.03347 0.0
O520 O 0.21262 0.62697 0.76039 0.0
O521 O 0.23315 0.59749 0.81363 0.0
O522 O 0.27415 0.62231 0.87629 0.0
C523 C 0.2146 0.60491 0.77077 0.0
H524 H 0.27596 0.59101 0.50781 0.0
H525 H 0.20305 0.66016 0.11787 0.0
H526 H 0.27988 0.7061 0.89544 0.0
H527 H 0.21816 0.70669 0.71634 0.0
C528 C 0.37765 0.98432 0.65137 0.0
C529 C 0.36878 0.00602 0.6771 0.0
H530 H 0.38679 0.96091 0.53574 0.0
C531 C 0.36266 0.0211 0.60116 0.0
H532 H 0.38214 0.97207 0.7077 0.0
C533 C 0.36539 0.01475 0.5022 0.0
C534 C 0.3742 0.993 0.47605 0.0
H535 H 0.35601 0.03802 0.61833 0.0
H536 H 0.36089 0.02714 0.44654 0.0
C537 C 0.38026 0.97788 0.5523 0.0
C538 C 0.23969 0.1139 0.79763 0.0
C539 C 0.2541 0.12209 0.87388 0.0
H540 H 0.23281 0.11238 0.64285 0.0
C541 C 0.27378 0.1347 0.84929 0.0
H542 H 0.22431 0.1043 0.81433 0.0
C543 C 0.27886 0.13915 0.75094 0.0
C544 C 0.26432 0.13126 0.67432 0.0
H545 H 0.28553 0.14083 0.90604 0.0
H546 H 0.29436 0.14862 0.73527 0.0
C547 C 0.24466 0.11851 0.69912 0.0
C548 C 0.12628 0.97992 1.00087 0.0
C549 C 0.13381 0.99476 0.07718 0.0
H550 H 0.12479 0.97302 0.84592 0.0
C551 C 0.14602 0.01473 0.05203 0.0
H552 H 0.11724 0.96418 1.01674 0.0
C553 C 0.15052 0.01968 0.95346 0.0
C554 C 0.14274 0.00493 0.87761 0.0
H555 H 0.15185 0.02681 0.10802 0.0
H556 H 0.15977 0.03526 0.93641 0.0
C557 C 0.1306 0.98499 0.90248 0.0
C558 C 0.28135 0.8853 0.29695 0.0
C559 C 0.26621 0.89147 0.37274 0.0
H560 H 0.28725 0.88301 0.14208 0.0
C561 C 0.24468 0.90061 0.34692 0.0
H562 H 0.29815 0.87843 0.31432 0.0
C563 C 0.23824 0.90297 0.24789 0.0
C564 C 0.25321 0.89641 0.17175 0.0
H565 H 0.23241 0.90517 0.40315 0.0
H566 H 0.22125 0.90943 0.23135 0.0
C567 C 0.27499 0.8878 0.19789 0.0
C568 C 0.64574 0.99227 0.61897 0.0
C569 C 0.63485 0.01291 0.64548 0.0
H570 H 0.65675 0.97009 0.50267 0.0
C571 C 0.62808 0.02803 0.57074 0.0
H572 H 0.65083 0.98007 0.67465 0.0
C573 C 0.63159 0.02241 0.4716 0.0
C574 C 0.64178 1.00138 0.44447 0.0
H575 H 0.61986 0.04417 0.58904 0.0
H576 H 0.62619 0.03461 0.41659 0.0
C577 C 0.64907 0.98653 0.51983 0.0
C578 C 0.72714 0.88841 0.27504 0.0
C579 C 0.74328 0.89181 0.35156 0.0
H580 H 0.72083 0.88663 0.12007 0.0
C581 C 0.76584 0.89805 0.32711 0.0
H582 H 0.70955 0.88395 0.29106 0.0
C583 C 0.77227 0.89996 0.22864 0.0
C584 C 0.75636 0.89561 0.15201 0.0
H585 H 0.77881 0.9007 0.3837 0.0
H586 H 0.78985 0.90448 0.21261 0.0
C587 C 0.73359 0.89025 0.1766 0.0
C588 C 0.85156 0.00425 0.02092 0.0
C589 C 0.8689 0.00733 0.09294 0.0
H590 H 0.84158 0.00778 0.86956 0.0
C591 C 0.89014 0.01641 0.06381 0.0
H592 H 0.83489 0.99762 0.04039 0.0
C593 C 0.89391 0.02236 0.96581 0.0
C594 C 0.8766 0.01931 0.89387 0.0
H595 H 0.90406 0.01865 0.11644 0.0
H596 H 0.91061 0.02895 0.94621 0.0
C597 C 0.85538 0.01014 0.92268 0.0
C598 C 0.76066 0.11809 0.70374 0.0
C599 C 0.73941 0.12799 0.67764 0.0
H600 H 0.78327 0.10734 0.81985 0.0
C601 C 0.7245 0.1346 0.75385 0.0
H602 H 0.77288 0.11311 0.64811 0.0
C603 C 0.73066 0.13146 0.85285 0.0
C604 C 0.75185 0.12151 0.87856 0.0
H605 H 0.70789 0.14197 0.73734 0.0
H606 H 0.71857 0.13642 0.90912 0.0
C607 C 0.76673 0.11483 0.80267 0.0
C608 C 0.87688 0.48118 0.13618 0.0
C609 C 0.86746 0.50264 0.16193 0.0
H610 H 0.88677 0.45809 0.02055 0.0
C611 C 0.86098 0.51759 0.08598 0.0
H612 H 0.88164 0.46902 0.19246 0.0
C613 C 0.86397 0.51134 0.987 0.0
C614 C 0.8734 0.48987 0.96093 0.0
H615 H 0.85389 0.53432 0.10313 0.0
H616 H 0.8592 0.52362 0.93127 0.0
C617 C 0.87977 0.47487 0.03715 0.0
C618 C 0.73938 0.61195 0.2954 0.0
C619 C 0.75359 0.62032 0.37198 0.0
H620 H 0.73278 0.61017 0.14046 0.0
C621 C 0.77322 0.63306 0.34768 0.0
H622 H 0.72405 0.60224 0.31178 0.0
C623 C 0.77844 0.63743 0.24935 0.0
C624 C 0.7641 0.62933 0.17237 0.0
H625 H 0.78483 0.63934 0.40463 0.0
H626 H 0.79389 0.647 0.23398 0.0
C627 C 0.74449 0.61647 0.19692 0.0
C628 C 0.64444 0.51527 0.58416 0.0
C629 C 0.63171 0.49557 0.60871 0.0
H630 H 0.65853 0.53581 0.46929 0.0
C631 C 0.62365 0.48119 0.53171 0.0
H632 H 0.6507 0.52701 0.64062 0.0
C633 C 0.62795 0.48646 0.43338 0.0
C634 C 0.64058 0.50617 0.40911 0.0
H635 H 0.61418 0.46567 0.54702 0.0
H636 H 0.62171 0.47483 0.37638 0.0
C637 C 0.6489 0.52043 0.48567 0.0
C638 C 0.77835 0.38111 0.64777 0.0
C639 C 0.75705 0.39088 0.62222 0.0
H640 H 0.80133 0.3709 0.76318 0.0
C641 C 0.74227 0.39763 0.69839 0.0
H642 H 0.79039 0.37611 0.59135 0.0
C643 C 0.74851 0.3946 0.79732 0.0
C644 C 0.76984 0.38483 0.82321 0.0
H645 H 0.72566 0.40499 0.68147 0.0
H646 H 0.73635 0.39961 0.85317 0.0
C647 C 0.78467 0.37817 0.74678 0.0
C648 C 0.14439 0.49344 0.98932 0.0
C649 C 0.13717 0.50807 0.91347 0.0
H650 H 0.14633 0.48736 0.14389 0.0
C651 C 0.12651 0.52892 0.93922 0.0
H652 H 0.15244 0.47716 0.97209 0.0
C653 C 0.12317 0.53498 0.03822 0.0
C654 C 0.13028 0.5203 0.1144 0.0
H655 H 0.12113 0.54084 0.88295 0.0
H656 H 0.11523 0.55134 0.05476 0.0
C657 C 0.14093 0.4994 0.08827 0.0
C658 C 0.22736 0.38832 0.81066 0.0
C659 C 0.24331 0.39218 0.88752 0.0
H660 H 0.22126 0.38632 0.65559 0.0
C661 C 0.26579 0.39879 0.86339 0.0
H662 H 0.20984 0.38352 0.82634 0.0
C663 C 0.27231 0.40075 0.765 0.0
C664 C 0.25657 0.3961 0.68806 0.0
H665 H 0.27864 0.40176 0.92022 0.0
H666 H 0.28981 0.40563 0.7493 0.0
C667 C 0.23389 0.39022 0.71231 0.0
C668 C 0.38783 0.51958 0.5912 0.0
C669 C 0.36674 0.5101 0.62 0.0
H670 H 0.40821 0.5324 0.47392 0.0
C671 C 0.34955 0.50662 0.54767 0.0
H672 H 0.40164 0.52212 0.64411 0.0
C673 C 0.35337 0.51251 0.44943 0.0
C674 C 0.37445 0.52207 0.42093 0.0
H675 H 0.33299 0.49966 0.56693 0.0
H676 H 0.33967 0.50984 0.39609 0.0
C677 C 0.39161 0.52551 0.49321 0.0
C678 C 0.2213 0.63761 0.2897 0.0
C679 C 0.23633 0.63127 0.21349 0.0
H680 H 0.21543 0.63953 0.44507 0.0
C681 C 0.25787 0.62204 0.23965 0.0
H682 H 0.20448 0.64448 0.27315 0.0
C683 C 0.2641 0.61913 0.33861 0.0
C684 C 0.24908 0.6255 0.41448 0.0
H685 H 0.2702 0.61731 0.18404 0.0
H686 H 0.28085 0.61212 0.35583 0.0
C687 C 0.22762 0.63483 0.38875 0.0
C688 C 0.33356 0.05967 0.22631 0.0
C689 C 0.34937 0.06797 0.15716 0.0
H690 H 0.30305 0.0659 0.3088 0.0
C691 C 0.34703 0.09073 0.12506 0.0
H692 H 0.33453 0.04225 0.25259 0.0
C693 C 0.3288 0.10444 0.15833 0.0
C694 C 0.31241 0.09555 0.22331 0.0
H695 H 0.35877 0.09769 0.07171 0.0
H696 H 0.32701 0.12166 0.12987 0.0
C697 C 0.31529 0.07321 0.25838 0.0
C698 C 0.16024 0.07272 0.31899 0.0
C699 C 0.15905 0.0707 0.42196 0.0
H700 H 0.17576 0.08966 0.19657 0.0
C701 C 0.17288 0.08535 0.48089 0.0
H702 H 0.14998 0.0616 0.27149 0.0
C703 C 0.18819 0.10094 0.43796 0.0
C704 C 0.1895 0.10285 0.33499 0.0
H705 H 0.17265 0.08404 0.56039 0.0
H706 H 0.19923 0.11131 0.48537 0.0
C707 C 0.17498 0.08887 0.27613 0.0
C708 C 0.17875 0.90776 0.55233 0.0
C709 C 0.19981 0.91213 0.60014 0.0
H710 H 0.14878 0.92249 0.48394 0.0
C711 C 0.20771 0.93494 0.60852 0.0
H712 H 0.17239 0.89034 0.54448 0.0
C713 C 0.19483 0.95304 0.57049 0.0
C714 C 0.1734 0.94886 0.52612 0.0
H715 H 0.22402 0.93879 0.64411 0.0
H716 H 0.20125 0.97044 0.57926 0.0
C717 C 0.16537 0.92608 0.51749 0.0
C718 C 0.31062 0.96434 0.94898 0.0
C719 C 0.3323 0.95626 0.97826 0.0
H720 H 0.27955 0.95733 0.86918 0.0
C721 C 0.3395 0.93439 0.94695 0.0
H722 H 0.30485 0.98135 0.97044 0.0
C723 C 0.32496 0.9206 0.889 0.0
C724 C 0.3033 0.92875 0.8596 0.0
H725 H 0.35629 0.92794 0.96755 0.0
H726 H 0.33058 0.90353 0.86776 0.0
C727 C 0.29634 0.95079 0.8894 0.0
C728 C 0.70007 0.94187 0.87574 0.0
C729 C 0.69745 0.92154 0.82046 0.0
H730 H 0.68347 0.96943 0.95212 0.0
C731 C 0.67519 0.91343 0.79848 0.0
H732 H 0.71703 0.94837 0.89431 0.0
C733 C 0.65584 0.92587 0.82933 0.0
C734 C 0.65854 0.94601 0.88629 0.0
H735 H 0.6728 0.89775 0.75586 0.0
H736 H 0.63885 0.91966 0.80966 0.0
C737 C 0.68085 0.95376 0.90962 0.0
C738 C 0.81581 0.9341 0.65846 0.0
C739 C 0.81875 0.91042 0.6406 0.0
H740 H 0.82845 0.96826 0.63828 0.0
C741 C 0.83821 0.90335 0.58742 0.0
H742 H 0.80116 0.94027 0.69947 0.0
C743 C 0.85389 0.91958 0.55094 0.0
C744 C 0.85077 0.94329 0.56817 0.0
H745 H 0.84107 0.8853 0.57199 0.0
H746 H 0.86836 0.91353 0.50851 0.0
C747 C 0.83162 0.95022 0.6236 0.0
C748 C 0.81831 0.06874 0.46177 0.0
C749 C 0.84091 0.06584 0.43006 0.0
H750 H 0.78735 0.08776 0.45009 0.0
C751 C 0.85019 0.08191 0.36462 0.0
H752 H 0.81069 0.05672 0.51231 0.0
C753 C 0.83666 0.09991 0.32794 0.0
C754 C 0.81372 0.10235 0.35724 0.0
H755 H 0.86762 0.08006 0.33868 0.0
H756 H 0.84395 0.11145 0.2746 0.0
C757 C 0.80496 0.08679 0.42638 0.0
C758 C 0.6794 0.09004 0.17168 0.0
C759 C 0.70197 0.08391 0.19691 0.0
H760 H 0.64717 0.07873 0.11051 0.0
C761 C 0.7099 0.06175 0.17405 0.0
H762 H 0.67303 0.10714 0.18768 0.0
C763 C 0.69547 0.04586 0.12746 0.0
C764 C 0.6727 0.0517 0.10462 0.0
H765 H 0.72738 0.05672 0.19107 0.0
H766 H 0.70196 0.02876 0.11217 0.0
C767 C 0.66474 0.07391 0.12693 0.0
C768 C 0.81357 0.56972 0.74831 0.0
C769 C 0.81128 0.59248 0.71723 0.0
H770 H 0.832 0.53829 0.73676 0.0
C771 C 0.82783 0.60147 0.65322 0.0
H772 H 0.80118 0.5623 0.79772 0.0
C773 C 0.84565 0.58759 0.61728 0.0
C774 C 0.84743 0.5645 0.64555 0.0
H775 H 0.8265 0.61899 0.6277 0.0
H776 H 0.85754 0.59473 0.56504 0.0
C777 C 0.83144 0.55598 0.71346 0.0
C778 C 0.68856 0.60073 0.94563 0.0
C779 C 0.68924 0.60142 0.84213 0.0
H780 H 0.67361 0.58554 0.07352 0.0
C781 C 0.67423 0.58689 0.78815 0.0
H782 H 0.69996 0.61155 0.98947 0.0
C783 C 0.65961 0.57147 0.83628 0.0
C784 C 0.65902 0.57069 0.93978 0.0
H785 H 0.6745 0.58672 0.70839 0.0
H786 H 0.64891 0.55995 0.79243 0.0
C787 C 0.67338 0.58586 0.99377 0.0
C788 C 0.6591 0.43169 0.12647 0.0
C789 C 0.66858 0.44838 0.06436 0.0
H790 H 0.66511 0.40169 0.21376 0.0
C791 C 0.69151 0.44614 0.03596 0.0
H792 H 0.64143 0.43298 0.14992 0.0
C793 C 0.70493 0.42811 0.07153 0.0
C794 C 0.69587 0.41194 0.13741 0.0
H795 H 0.69929 0.45865 0.98818 0.0
H796 H 0.72276 0.42758 0.0505 0.0
C797 C 0.67264 0.41373 0.16312 0.0
C798 C 0.82874 0.41668 0.36218 0.0
C799 C 0.80746 0.42468 0.32741 0.0
H800 H 0.85865 0.4241 0.45041 0.0
C801 C 0.79945 0.44622 0.35917 0.0
H802 H 0.83508 0.39996 0.3398 0.0
C803 C 0.81242 0.45953 0.42497 0.0
C804 C 0.83384 0.45175 0.4587 0.0
H805 H 0.78287 0.4526 0.33519 0.0
H806 H 0.80593 0.47622 0.44712 0.0
C807 C 0.84201 0.43029 0.42637 0.0
C808 C 0.16239 0.42401 0.46078 0.0
C809 C 0.15921 0.44703 0.4334 0.0
H810 H 0.18324 0.3937 0.44757 0.0
C811 C 0.1746 0.45662 0.36565 0.0
H812 H 0.15101 0.41609 0.51309 0.0
C813 C 0.1931 0.444 0.32955 0.0
C814 C 0.19669 0.4213 0.359 0.0
H815 H 0.17309 0.47432 0.34344 0.0
H816 H 0.20491 0.45226 0.27994 0.0
C817 C 0.18085 0.4112 0.42326 0.0
C818 C 0.31461 0.43659 0.18816 0.0
C819 C 0.31814 0.41288 0.17351 0.0
H820 H 0.32651 0.47086 0.16393 0.0
C821 C 0.33781 0.4059 0.12154 0.0
H822 H 0.29978 0.4427 0.22808 0.0
C823 C 0.35316 0.42221 0.0833 0.0
C824 C 0.34949 0.44594 0.09755 0.0
H825 H 0.34111 0.38782 0.10856 0.0
H826 H 0.36783 0.41622 0.04204 0.0
C827 C 0.3301 0.45281 0.1516 0.0
C828 C 0.33363 0.60311 0.86183 0.0
C829 C 0.31077 0.60535 0.89256 0.0
H830 H 0.36464 0.58328 0.86912 0.0
C831 C 0.30225 0.58948 0.96092 0.0
H832 H 0.34074 0.6149 0.80906 0.0
C833 C 0.31574 0.57128 0.99396 0.0
C834 C 0.33824 0.56857 0.96068 0.0
H835 H 0.28473 0.59035 0.98595 0.0
H836 H 0.30832 0.55903 0.044 0.0
C837 C 0.34729 0.58497 0.89615 0.0
C838 C 0.19318 0.55284 0.63199 0.0
C839 C 0.17108 0.55976 0.60329 0.0
H840 H 0.22396 0.5615 0.71077 0.0
C841 C 0.16298 0.58146 0.63271 0.0
H842 H 0.19967 0.53602 0.61177 0.0
C843 C 0.17696 0.59613 0.68925 0.0
C844 C 0.19892 0.589 0.71923 0.0
H845 H 0.14586 0.58703 0.61228 0.0
H846 H 0.17059 0.61298 0.70975 0.0
C847 C 0.2069 0.56724 0.69026 0.0
C848 C 0.49134 0.00779 0.16148 0.0
C849 C 0.47903 1.00363 0.07348 0.0
H850 H 0.52426 0.00843 0.23368 0.0
C851 C 0.49123 0.99683 0.98897 0.0
H852 H 0.48252 0.01266 0.22832 0.0
C853 C 0.51502 0.99392 0.99266 0.0
C854 C 0.52727 0.99806 0.08054 0.0
H855 H 0.4824 0.99386 0.91938 0.0
H856 H 0.5239 0.98901 0.92599 0.0
C857 C 0.51521 0.00511 0.16485 0.0
C858 C 0.24983 0.27209 0.18482 0.0
C859 C 0.25408 0.28341 0.27559 0.0
H860 H 0.24389 0.24001 0.10883 0.0
C861 C 0.25449 0.26993 0.36154 0.0
H862 H 0.24879 0.28162 0.11698 0.0
C863 C 0.25078 0.24611 0.35683 0.0
C864 C 0.24702 0.23493 0.26598 0.0
H865 H 0.25817 0.27762 0.43289 0.0
H866 H 0.25178 0.23628 0.42401 0.0
C867 C 0.2466 0.2482 0.18008 0.0
C868 C 0.01808 0.98495 0.49886 0.0
C869 C 0.0297 0.00629 0.50036 0.0
H870 H 0.98572 0.96714 0.49616 0.0
C871 C 0.01644 0.02644 0.50202 0.0
H872 H 0.02755 0.96898 0.49557 0.0
C873 C 0.99238 0.02528 0.50165 0.0
C874 C 0.98082 0.00395 0.49953 0.0
H875 H 0.02462 0.04315 0.50485 0.0
H876 H 0.98279 0.0412 0.5034 0.0
C877 C 0.99401 0.9838 0.49915 0.0
C878 C 0.25541 0.74824 0.89032 0.0
C879 C 0.24893 0.7357 0.80532 0.0
H880 H 0.25956 0.78149 0.9579 0.0
C881 C 0.24105 0.74784 0.72229 0.0
H882 H 0.26114 0.73955 0.9562 0.0
C883 C 0.23952 0.77178 0.72448 0.0
C884 C 0.24624 0.7842 0.80897 0.0
H885 H 0.23634 0.73888 0.65473 0.0
H886 H 0.23381 0.78065 0.65892 0.0
C887 C 0.25422 0.77223 0.89185 0.0
C888 C 0.75006 0.74538 0.84029 0.0
C889 C 0.74684 0.7332 0.75146 0.0
H890 H 0.75677 0.77771 0.91072 0.0
C891 C 0.74669 0.74555 0.66298 0.0
H892 H 0.75086 0.73628 0.90942 0.0
C893 C 0.74962 0.76951 0.66327 0.0
C894 C 0.75329 0.78185 0.75207 0.0
H895 H 0.74442 0.73659 0.59318 0.0
H896 H 0.74881 0.7783 0.59355 0.0
C897 C 0.75348 0.76926 0.8406 0.0
C898 C 0.75649 0.24534 0.33501 0.0
C899 C 0.75231 0.23213 0.2496 0.0
H900 H 0.75882 0.27897 0.39928 0.0
C901 C 0.74708 0.24344 0.16105 0.0
H902 H 0.76005 0.23716 0.40475 0.0
C903 C 0.74634 0.26745 0.15777 0.0
C904 C 0.7508 0.28067 0.24301 0.0
H905 H 0.7439 0.23371 0.09379 0.0
H906 H 0.74291 0.27563 0.08793 0.0
C907 C 0.75564 0.26931 0.33185 0.0
C908 C 0.99035 0.48456 0.55612 0.0
C909 C 0.97795 0.50529 0.55039 0.0
H910 H 0.02331 0.46823 0.55506 0.0
C911 C 0.99004 0.52588 0.53802 0.0
H912 H 0.98153 0.4684 0.56681 0.0
C913 C 0.01396 0.52573 0.53054 0.0
C914 C 0.02638 0.50499 0.53618 0.0
H915 H 0.98098 0.54204 0.53173 0.0
H916 H 0.02273 0.54189 0.5193 0.0
C917 C 0.01427 0.48441 0.54886 0.0
C918 C 0.49036 0.52879 0.02157 0.0
C919 C 0.47876 0.50747 0.02147 0.0
H920 H 0.52266 0.54661 0.02356 0.0
C921 C 0.49193 0.48731 0.0223 0.0
H922 H 0.48079 0.54472 0.02221 0.0
C923 C 0.51598 0.48843 0.02207 0.0
C924 C 0.52764 0.50975 0.02245 0.0
H925 H 0.48364 0.47064 0.02068 0.0
H926 H 0.52544 0.47244 0.0203 0.0
C927 C 0.51443 0.52991 0.02192 0.0
loop_
_geom_bond_atom_site_label_1
_geom_bond_atom_site_label_2
_geom_bond_distance
_geom_bond_site_symmetry_2
_ccdc_geom_bond_type
Co0 N4 2.156 1_554 S
Co0 N10 2.122 1_545 S
Co0 N20 2.195 1_554 S
Co0 O25 2.326 1_544 S
Co0 O26 2.138 1_544 S
Co0 O27 2.114 . S
C1 N4 1.301 . S
C1 N5 1.328 . S
C1 H6 0.930 1_545 S
C2 C3 1.333 . S
C2 N4 1.317 . S
C2 H7 0.930 . S
C3 C2 1.333 . S
C3 N5 1.350 . S
C3 H29 0.931 . S
N4 Co0 2.156 1_556 S
N4 C1 1.301 . S
N4 C2 1.317 . S
N5 C1 1.328 . S
N5 C3 1.350 . S
H6 C1 0.930 1_565 S
H7 C2 0.930 . S
C8 O9 1.224 . S
C8 O27 1.247 . S
O9 C8 1.224 . S
N10 Co0 2.122 1_565 S
N10 C11 1.355 . S
N10 C13 1.311 1_565 S
C11 N10 1.355 . S
C11 C12 1.363 . S
C11 H23 0.929 . S
C12 C11 1.363 . S
C12 N14 1.375 . S
C12 H30 0.931 . S
C13 N10 1.311 1_545 S
C13 N14 1.347 1_545 S
C13 H24 0.929 . S
N14 C12 1.375 . S
N14 C13 1.347 1_565 S
C15 C18 1.365 . S
C15 N20 1.328 1_565 S
C15 H21 0.929 . S
C16 C17 1.362 . S
C16 C19 1.378 . S
C16 H31 0.929 . S
C17 C16 1.362 . S
C17 C18 1.366 1_544 S
C18 C15 1.365 . S
C18 C17 1.366 1_566 S
C18 H32 0.930 . S
C19 C16 1.378 . S
C19 N20 1.315 1_554 S
C19 H22 0.930 . S
N20 Co0 2.195 1_556 S
N20 C15 1.328 1_545 S
N20 C19 1.315 1_556 S
H21 C15 0.929 . S
H22 C19 0.930 . S
H23 C11 0.929 . S
H24 C13 0.929 . S
O25 Co0 2.326 1_566 S
O25 C28 1.244 . S
O26 Co0 2.138 1_566 S
O26 C28 1.240 . S
O27 Co0 2.114 . S
O27 C8 1.247 . S
C28 O25 1.244 . S
C28 O26 1.240 . S
H29 C3 0.931 . S
H30 C12 0.931 . S
H31 C16 0.929 . S
H32 C18 0.930 . S
Co33 N37 2.148 . S
Co33 N43 2.128 . S
Co33 N53 2.194 . S
Co33 O58 2.351 . S
Co33 O59 2.155 . S
Co33 O60 2.096 . S
C34 N37 1.301 . S
C34 N38 1.328 1_554 S
C34 H39 0.930 . S
C35 C36 1.333 1_554 S
C35 N37 1.317 . S
C35 H40 0.930 . S
C36 C35 1.333 1_556 S
C36 N38 1.350 . S
C36 H62 0.931 . S
N37 Co33 2.148 . S
N37 C34 1.301 . S
N37 C35 1.317 . S
N38 C34 1.328 1_556 S
N38 C36 1.350 . S
H39 C34 0.930 . S
H40 C35 0.930 . S
C41 O42 1.224 . S
C41 O60 1.247 . S
O42 C41 1.224 . S
N43 Co33 2.128 . S
N43 C44 1.355 . S
N43 C46 1.311 . S
C44 N43 1.355 . S
C44 C45 1.363 . S
C44 H56 0.929 . S
C45 C44 1.363 . S
C45 N47 1.375 . S
C45 H63 0.931 . S
C46 N43 1.311 . S
C46 N47 1.347 . S
C46 H57 0.929 . S
N47 C45 1.375 . S
N47 C46 1.347 . S
C48 C51 1.365 . S
C48 N53 1.328 . S
C48 H54 0.929 . S
C49 C50 1.362 . S
C49 C52 1.378 . S
C49 H64 0.929 . S
C50 C49 1.362 . S
C50 C51 1.366 . S
C51 C48 1.365 . S
C51 C50 1.366 . S
C51 H65 0.930 . S
C52 C49 1.378 . S
C52 N53 1.315 . S
C52 H55 0.930 . S
N53 Co33 2.194 . S
N53 C48 1.328 . S
N53 C52 1.315 . S
H54 C48 0.929 . S
H55 C52 0.930 . S
H56 C44 0.929 . S
H57 C46 0.929 . S
O58 Co33 2.351 . S
O58 C61 1.244 . S
O59 Co33 2.155 . S
O59 C61 1.240 . S
O60 Co33 2.096 . S
O60 C41 1.247 . S
C61 O58 1.244 . S
C61 O59 1.240 . S
H62 C36 0.931 . S
H63 C45 0.931 . S
H64 C49 0.929 . S
H65 C51 0.930 . S
Co66 N70 2.156 . S
Co66 N76 2.122 1_545 S
Co66 N86 2.195 . S
Co66 O91 2.324 1_545 S
Co66 O92 2.137 1_545 S
Co66 O93 2.115 . S
C67 N70 1.301 . S
C67 N71 1.328 . S
C67 H72 0.930 1_545 S
C68 C69 1.333 . S
C68 N70 1.317 . S
C68 H73 0.930 . S
C69 C68 1.333 . S
C69 N71 1.350 . S
C69 H95 0.931 . S
N70 Co66 2.156 . S
N70 C67 1.301 . S
N70 C68 1.317 . S
N71 C67 1.328 . S
N71 C69 1.350 . S
H72 C67 0.930 1_565 S
H73 C68 0.930 . S
C74 O75 1.224 . S
C74 O93 1.247 . S
O75 C74 1.224 . S
N76 Co66 2.122 1_565 S
N76 C77 1.355 . S
N76 C79 1.297 1_565 S
C77 N76 1.355 . S
C77 C78 1.363 . S
C77 H89 0.929 . S
C78 C77 1.363 . S
C78 N80 1.375 . S
C78 H96 0.931 . S
C79 N76 1.297 1_545 S
C79 N80 1.336 1_545 S
C79 H90 0.953 . S
N80 C78 1.375 . S
N80 C79 1.336 1_565 S
C81 C84 1.365 . S
C81 N86 1.328 1_565 S
C81 H87 0.929 . S
C82 C83 1.362 . S
C82 C85 1.378 . S
C82 H97 0.929 . S
C83 C82 1.362 . S
C83 C84 1.366 1_545 S
C84 C81 1.365 . S
C84 C83 1.366 1_565 S
C84 H98 0.930 . S
C85 C82 1.378 . S
C85 N86 1.315 . S
C85 H88 0.930 . S
N86 Co66 2.195 . S
N86 C81 1.328 1_545 S
N86 C85 1.315 . S
H87 C81 0.929 . S
H88 C85 0.930 . S
H89 C77 0.929 . S
H90 C79 0.953 . S
O91 Co66 2.324 1_565 S
O91 C94 1.244 . S
O92 Co66 2.137 1_565 S
O92 C94 1.240 . S
O93 Co66 2.115 . S
O93 C74 1.247 . S
C94 O91 1.244 . S
C94 O92 1.240 . S
H95 C69 0.931 . S
H96 C78 0.931 . S
H97 C82 0.929 . S
H98 C84 0.930 . S
Co99 N103 2.148 . S
Co99 N109 2.128 . S
Co99 N119 2.194 . S
Co99 O124 2.351 . S
Co99 O125 2.155 . S
Co99 O126 2.096 . S
C100 N103 1.301 . S
C100 N104 1.328 1_556 S
C100 H105 0.930 . S
C101 C102 1.333 1_556 S
C101 N103 1.317 . S
C101 H106 0.930 . S
C102 C101 1.333 1_554 S
C102 N104 1.350 . S
C102 H128 0.931 . S
N103 Co99 2.148 . S
N103 C100 1.301 . S
N103 C101 1.317 . S
N104 C100 1.328 1_554 S
N104 C102 1.350 . S
H105 C100 0.930 . S
H106 C101 0.930 . S
C107 O108 1.224 . S
C107 O126 1.247 . S
O108 C107 1.224 . S
N109 Co99 2.128 . S
N109 C110 1.355 . S
N109 C112 1.311 . S
C110 N109 1.355 . S
C110 C111 1.363 . S
C110 H122 0.929 . S
C111 C110 1.363 . S
C111 N113 1.375 . S
C111 H129 0.931 . S
C112 N109 1.311 . S
C112 N113 1.347 . S
C112 H123 0.929 . S
N113 C111 1.375 . S
N113 C112 1.347 . S
C114 C117 1.365 . S
C114 N119 1.328 . S
C114 H120 0.929 . S
C115 C116 1.362 . S
C115 C118 1.378 . S
C115 H130 0.929 . S
C116 C115 1.362 . S
C116 C117 1.366 . S
C117 C114 1.365 . S
C117 C116 1.366 . S
C117 H131 0.930 . S
C118 C115 1.378 . S
C118 N119 1.315 . S
C118 H121 0.930 . S
N119 Co99 2.194 . S
N119 C114 1.328 . S
N119 C118 1.315 . S
H120 C114 0.929 . S
H121 C118 0.930 . S
H122 C110 0.929 . S
H123 C112 0.929 . S
O124 Co99 2.351 . S
O124 C127 1.244 . S
O125 Co99 2.155 . S
O125 C127 1.240 . S
O126 Co99 2.096 . S
O126 C107 1.247 . S
C127 O124 1.244 . S
C127 O125 1.240 . S
H128 C102 0.931 . S
H129 C111 0.931 . S
H130 C115 0.929 . S
H131 C117 0.930 . S
Co132 N136 2.148 1_545 S
Co132 N142 2.128 1_554 S
Co132 N152 2.194 . S
Co132 O157 2.351 . S
Co132 O158 2.155 . S
Co132 O159 2.096 1_544 S
C133 N136 1.301 1_545 S
C133 N137 1.328 1_545 S
C133 H138 0.930 . S
C134 C135 1.333 . S
C134 N136 1.317 . S
C134 H139 0.930 . S
C135 C134 1.333 . S
C135 N137 1.350 . S
C135 H161 0.931 . S
N136 Co132 2.148 1_565 S
N136 C133 1.301 1_565 S
N136 C134 1.317 . S
N137 C133 1.328 1_565 S
N137 C135 1.350 . S
H138 C133 0.930 . S
H139 C134 0.930 . S
C140 O141 1.224 . S
C140 O159 1.247 . S
O141 C140 1.224 . S
N142 Co132 2.128 1_556 S
N142 C143 1.355 . S
N142 C145 1.311 . S
C143 N142 1.355 . S
C143 C144 1.363 . S
C143 H155 0.929 . S
C144 C143 1.363 . S
C144 N146 1.375 . S
C144 H162 0.931 . S
C145 N142 1.311 . S
C145 N146 1.347 . S
C145 H156 0.929 1_545 S
N146 C144 1.375 . S
N146 C145 1.347 . S
C147 C150 1.365 . S
C147 N152 1.328 . S
C147 H153 0.929 . S
C148 C149 1.362 1_566 S
C148 C151 1.378 . S
C148 H163 0.929 . S
C149 C148 1.362 1_544 S
C149 C150 1.366 . S
C150 C147 1.365 . S
C150 C149 1.366 . S
C150 H164 0.930 . S
C151 C148 1.378 . S
C151 N152 1.315 1_566 S
C151 H154 0.930 . S
N152 Co132 2.194 . S
N152 C147 1.328 . S
N152 C151 1.315 1_544 S
H153 C147 0.929 . S
H154 C151 0.930 . S
H155 C143 0.929 . S
H156 C145 0.929 1_565 S
O157 Co132 2.351 . S
O157 C160 1.244 . S
O158 Co132 2.155 . S
O158 C160 1.240 . S
O159 Co132 2.096 1_566 S
O159 C140 1.247 . S
C160 O157 1.244 . S
C160 O158 1.240 . S
H161 C135 0.931 . S
H162 C144 0.931 . S
H163 C148 0.929 . S
H164 C150 0.930 . S
Co165 N169 2.148 . S
Co165 N175 2.128 . S
Co165 N185 2.194 . S
Co165 O190 2.351 . S
Co165 O191 2.155 . S
Co165 O192 2.096 . S
C166 N169 1.301 . S
C166 N170 1.328 1_556 S
C166 H171 0.930 . S
C167 C168 1.333 1_556 S
C167 N169 1.317 . S
C167 H172 0.930 . S
C168 C167 1.333 1_554 S
C168 N170 1.350 . S
C168 H194 0.931 . S
N169 Co165 2.148 . S
N169 C166 1.301 . S
N169 C167 1.317 . S
N170 C166 1.328 1_554 S
N170 C168 1.350 . S
H171 C166 0.930 . S
H172 C167 0.930 . S
C173 O174 1.224 . S
C173 O192 1.247 . S
O174 C173 1.224 . S
N175 Co165 2.128 . S
N175 C176 1.355 . S
N175 C178 1.311 . S
C176 N175 1.355 . S
C176 C177 1.363 . S
C176 H188 0.929 . S
C177 C176 1.363 . S
C177 N179 1.375 . S
C177 H195 0.931 . S
C178 N175 1.311 . S
C178 N179 1.347 . S
C178 H189 0.929 . S
N179 C177 1.375 . S
N179 C178 1.347 . S
C180 C183 1.365 . S
C180 N185 1.328 . S
C180 H186 0.929 . S
C181 C182 1.362 . S
C181 C184 1.378 . S
C181 H196 0.929 . S
C182 C181 1.362 . S
C182 C183 1.366 . S
C183 C180 1.365 . S
C183 C182 1.366 . S
C183 H197 0.930 . S
C184 C181 1.378 . S
C184 N185 1.315 . S
C184 H187 0.930 . S
N185 Co165 2.194 . S
N185 C180 1.328 . S
N185 C184 1.315 . S
H186 C180 0.929 . S
H187 C184 0.930 . S
H188 C176 0.929 . S
H189 C178 0.929 . S
O190 Co165 2.351 . S
O190 C193 1.244 . S
O191 Co165 2.155 . S
O191 C193 1.240 . S
O192 Co165 2.096 . S
O192 C173 1.247 . S
C193 O190 1.244 . S
C193 O191 1.240 . S
H194 C168 0.931 . S
H195 C177 0.931 . S
H196 C181 0.929 . S
H197 C183 0.930 . S
Co198 N202 2.148 1_545 S
Co198 N208 2.128 . S
Co198 N218 2.194 . S
Co198 O223 2.351 . S
Co198 O224 2.155 . S
Co198 O225 2.096 1_545 S
C199 N202 1.301 1_545 S
C199 N203 1.328 1_545 S
C199 H204 0.930 . S
C200 C201 1.333 . S
C200 N202 1.317 . S
C200 H205 0.930 . S
C201 C200 1.333 . S
C201 N203 1.350 . S
C201 H227 0.931 . S
N202 Co198 2.148 1_565 S
N202 C199 1.301 1_565 S
N202 C200 1.317 . S
N203 C199 1.328 1_565 S
N203 C201 1.350 . S
H204 C199 0.930 . S
H205 C200 0.930 . S
C206 O207 1.224 . S
C206 O225 1.247 . S
O207 C206 1.224 . S
N208 Co198 2.128 . S
N208 C209 1.355 . S
N208 C211 1.311 . S
C209 N208 1.355 . S
C209 C210 1.363 . S
C209 H221 0.929 . S
C210 C209 1.363 . S
C210 N212 1.375 . S
C210 H228 0.931 . S
C211 N208 1.311 . S
C211 N212 1.347 . S
C211 H222 0.929 1_545 S
N212 C210 1.375 . S
N212 C211 1.347 . S
C213 C216 1.365 . S
C213 N218 1.328 . S
C213 H219 0.929 . S
C214 C215 1.362 1_565 S
C214 C217 1.378 . S
C214 H229 0.929 . S
C215 C214 1.362 1_545 S
C215 C216 1.366 . S
C216 C213 1.365 . S
C216 C215 1.366 . S
C216 H230 0.930 . S
C217 C214 1.378 . S
C217 N218 1.315 1_565 S
C217 H220 0.930 . S
N218 Co198 2.194 . S
N218 C213 1.328 . S
N218 C217 1.315 1_545 S
H219 C213 0.929 . S
H220 C217 0.930 . S
H221 C209 0.929 . S
H222 C211 0.929 1_565 S
O223 Co198 2.351 . S
O223 C226 1.244 . S
O224 Co198 2.155 . S
O224 C226 1.240 . S
O225 Co198 2.096 1_565 S
O225 C206 1.247 . S
C226 O223 1.244 . S
C226 O224 1.240 . S
H227 C201 0.931 . S
H228 C210 0.931 . S
H229 C214 0.929 . S
H230 C216 0.930 . S
Co231 N235 2.148 . S
Co231 N241 2.128 . S
Co231 N251 2.194 . S
Co231 O256 2.351 . S
Co231 O257 2.155 . S
Co231 O258 2.096 . S
C232 N235 1.301 . S
C232 N236 1.328 1_554 S
C232 H237 0.930 . S
C233 C234 1.333 1_554 S
C233 N235 1.317 . S
C233 H238 0.930 . S
C234 C233 1.333 1_556 S
C234 N236 1.350 . S
C234 H260 0.931 . S
N235 Co231 2.148 . S
N235 C232 1.301 . S
N235 C233 1.317 . S
N236 C232 1.328 1_556 S
N236 C234 1.350 . S
H237 C232 0.930 . S
H238 C233 0.930 . S
C239 O240 1.224 . S
C239 O258 1.247 . S
O240 C239 1.224 . S
N241 Co231 2.128 . S
N241 C242 1.355 . S
N241 C244 1.311 . S
C242 N241 1.355 . S
C242 C243 1.363 . S
C242 H254 0.929 . S
C243 C242 1.363 . S
C243 N245 1.375 . S
C243 H261 0.931 . S
C244 N241 1.311 . S
C244 N245 1.347 . S
C244 H255 0.929 . S
N245 C243 1.375 . S
N245 C244 1.347 . S
C246 C249 1.365 . S
C246 N251 1.328 . S
C246 H252 0.929 . S
C247 C248 1.362 . S
C247 C250 1.378 . S
C247 H262 0.929 . S
C248 C247 1.362 . S
C248 C249 1.366 . S
C249 C246 1.365 . S
C249 C248 1.366 . S
C249 H263 0.930 . S
C250 C247 1.378 . S
C250 N251 1.315 . S
C250 H253 0.930 . S
N251 Co231 2.194 . S
N251 C246 1.328 . S
N251 C250 1.315 . S
H252 C246 0.929 . S
H253 C250 0.930 . S
H254 C242 0.929 . S
H255 C244 0.929 . S
O256 Co231 2.351 . S
O256 C259 1.244 . S
O257 Co231 2.155 . S
O257 C259 1.240 . S
O258 Co231 2.096 . S
O258 C239 1.247 . S
C259 O256 1.244 . S
C259 O257 1.240 . S
H260 C234 0.931 . S
H261 C243 0.931 . S
H262 C247 0.929 . S
H263 C249 0.930 . S
Co264 N268 2.148 . S
Co264 N274 2.128 . S
Co264 N284 2.194 . S
Co264 O289 2.351 . S
Co264 O290 2.155 . S
Co264 O291 2.096 . S
C265 N268 1.301 . S
C265 N269 1.328 . S
C265 H270 0.930 . S
C266 C267 1.333 . S
C266 N268 1.317 . S
C266 H271 0.930 . S
C267 C266 1.333 . S
C267 N269 1.350 . S
C267 H293 0.931 . S
N268 Co264 2.148 . S
N268 C265 1.301 . S
N268 C266 1.317 . S
N269 C265 1.328 . S
N269 C267 1.350 . S
H270 C265 0.930 . S
H271 C266 0.930 . S
C272 O273 1.224 . S
C272 O291 1.247 . S
O273 C272 1.224 . S
N274 Co264 2.128 . S
N274 C275 1.355 . S
N274 C277 1.311 . S
C275 N274 1.355 . S
C275 C276 1.363 . S
C275 H287 0.929 . S
C276 C275 1.363 . S
C276 N278 1.375 . S
C276 H294 0.931 . S
C277 N274 1.311 . S
C277 N278 1.347 . S
C277 H288 0.929 . S
N278 C276 1.375 . S
N278 C277 1.347 . S
C279 C282 1.365 . S
C279 N284 1.328 . S
C279 H285 0.929 . S
C280 C281 1.362 . S
C280 C283 1.378 . S
C280 H295 0.929 . S
C281 C280 1.362 . S
C281 C282 1.366 . S
C282 C279 1.365 . S
C282 C281 1.366 . S
C282 H296 0.930 . S
C283 C280 1.378 . S
C283 N284 1.315 . S
C283 H286 0.930 . S
N284 Co264 2.194 . S
N284 C279 1.328 . S
N284 C283 1.315 . S
H285 C279 0.929 . S
H286 C283 0.930 . S
H287 C275 0.929 . S
H288 C277 0.929 . S
O289 Co264 2.351 . S
O289 C292 1.244 . S
O290 Co264 2.155 . S
O290 C292 1.240 . S
O291 Co264 2.096 . S
O291 C272 1.247 . S
C292 O289 1.244 . S
C292 O290 1.240 . S
H293 C267 0.931 . S
H294 C276 0.931 . S
H295 C280 0.929 . S
H296 C282 0.930 . S
Co297 N301 2.148 . S
Co297 N307 2.128 . S
Co297 N317 2.194 . S
Co297 O322 2.351 . S
Co297 O323 2.155 . S
Co297 O324 2.096 . S
C298 N301 1.301 . S
C298 N302 1.328 . S
C298 H303 0.930 . S
C299 C300 1.333 . S
C299 N301 1.317 . S
C299 H304 0.930 . S
C300 C299 1.333 . S
C300 N302 1.350 . S
C300 H326 0.931 . S
N301 Co297 2.148 . S
N301 C298 1.301 . S
N301 C299 1.317 . S
N302 C298 1.328 . S
N302 C300 1.350 . S
H303 C298 0.930 . S
H304 C299 0.930 . S
C305 O306 1.224 . S
C305 O324 1.247 . S
O306 C305 1.224 . S
N307 Co297 2.128 . S
N307 C308 1.355 . S
N307 C310 1.311 . S
C308 N307 1.355 . S
C308 C309 1.363 1_556 S
C308 H320 0.929 . S
C309 C308 1.363 1_554 S
C309 N311 1.375 . S
C309 H327 0.931 . S
C310 N307 1.311 . S
C310 N311 1.347 1_556 S
C310 H321 0.929 . S
N311 C309 1.375 . S
N311 C310 1.347 1_554 S
C312 C315 1.365 . S
C312 N317 1.328 . S
C312 H318 0.929 . S
C313 C314 1.362 . S
C313 C316 1.378 . S
C313 H328 0.929 . S
C314 C313 1.362 . S
C314 C315 1.366 . S
C315 C312 1.365 . S
C315 C314 1.366 . S
C315 H329 0.930 . S
C316 C313 1.378 . S
C316 N317 1.315 . S
C316 H319 0.930 . S
N317 Co297 2.194 . S
N317 C312 1.328 . S
N317 C316 1.315 . S
H318 C312 0.929 . S
H319 C316 0.930 . S
H320 C308 0.929 . S
H321 C310 0.929 . S
O322 Co297 2.351 . S
O322 C325 1.244 . S
O323 Co297 2.155 . S
O323 C325 1.240 . S
O324 Co297 2.096 . S
O324 C305 1.247 . S
C325 O322 1.244 . S
C325 O323 1.240 . S
H326 C300 0.931 . S
H327 C309 0.931 . S
H328 C313 0.929 . S
H329 C315 0.930 . S
Co330 N334 2.148 . S
Co330 N340 2.128 1_554 S
Co330 N350 2.194 . S
Co330 O355 2.351 . S
Co330 O356 2.155 . S
Co330 O357 2.096 1_554 S
C331 N334 1.301 . S
C331 N335 1.328 . S
C331 H336 0.930 . S
C332 C333 1.333 . S
C332 N334 1.317 . S
C332 H337 0.930 . S
C333 C332 1.333 . S
C333 N335 1.350 . S
C333 H359 0.931 . S
N334 Co330 2.148 . S
N334 C331 1.301 . S
N334 C332 1.317 . S
N335 C331 1.328 . S
N335 C333 1.350 . S
H336 C331 0.930 . S
H337 C332 0.930 . S
C338 O339 1.224 . S
C338 O357 1.247 . S
O339 C338 1.224 . S
N340 Co330 2.128 1_556 S
N340 C341 1.355 . S
N340 C343 1.311 . S
C341 N340 1.355 . S
C341 C342 1.363 . S
C341 H353 0.929 . S
C342 C341 1.363 . S
C342 N344 1.375 . S
C342 H360 0.931 . S
C343 N340 1.311 . S
C343 N344 1.347 . S
C343 H354 0.929 . S
N344 C342 1.375 . S
N344 C343 1.347 . S
C345 C348 1.365 . S
C345 N350 1.328 . S
C345 H351 0.929 . S
C346 C347 1.362 1_556 S
C346 C349 1.378 . S
C346 H361 0.929 . S
C347 C346 1.362 1_554 S
C347 C348 1.366 . S
C348 C345 1.365 . S
C348 C347 1.366 . S
C348 H362 0.930 . S
C349 C346 1.378 . S
C349 N350 1.315 1_556 S
C349 H352 0.930 . S
N350 Co330 2.194 . S
N350 C345 1.328 . S
N350 C349 1.315 1_554 S
H351 C345 0.929 . S
H352 C349 0.930 . S
H353 C341 0.929 . S
H354 C343 0.929 . S
O355 Co330 2.351 . S
O355 C358 1.244 . S
O356 Co330 2.155 . S
O356 C358 1.240 . S
O357 Co330 2.096 1_556 S
O357 C338 1.247 . S
C358 O355 1.244 . S
C358 O356 1.240 . S
H359 C333 0.931 . S
H360 C342 0.931 . S
H361 C346 0.929 . S
H362 C348 0.930 . S
Co363 N367 2.148 . S
Co363 N373 2.128 . S
Co363 N383 2.194 . S
Co363 O388 2.351 . S
Co363 O389 2.155 . S
Co363 O390 2.096 . S
C364 N367 1.301 . S
C364 N368 1.328 . S
C364 H369 0.930 . S
C365 C366 1.333 . S
C365 N367 1.317 . S
C365 H370 0.930 . S
C366 C365 1.333 . S
C366 N368 1.350 . S
C366 H392 0.931 . S
N367 Co363 2.148 . S
N367 C364 1.301 . S
N367 C365 1.317 . S
N368 C364 1.328 . S
N368 C366 1.350 . S
H369 C364 0.930 . S
H370 C365 0.930 . S
C371 O372 1.224 . S
C371 O390 1.247 . S
O372 C371 1.224 . S
N373 Co363 2.128 . S
N373 C374 1.355 . S
N373 C376 1.311 . S
C374 N373 1.355 . S
C374 C375 1.363 1_554 S
C374 H386 0.929 . S
C375 C374 1.363 1_556 S
C375 N377 1.375 . S
C375 H393 0.931 . S
C376 N373 1.311 . S
C376 N377 1.347 1_554 S
C376 H387 0.929 . S
N377 C375 1.375 . S
N377 C376 1.347 1_556 S
C378 C381 1.365 . S
C378 N383 1.328 . S
C378 H384 0.929 . S
C379 C380 1.362 . S
C379 C382 1.378 . S
C379 H394 0.929 . S
C380 C379 1.362 . S
C380 C381 1.366 . S
C381 C378 1.365 . S
C381 C380 1.366 . S
C381 H395 0.930 . S
C382 C379 1.378 . S
C382 N383 1.315 . S
C382 H385 0.930 . S
N383 Co363 2.194 . S
N383 C378 1.328 . S
N383 C382 1.315 . S
H384 C378 0.929 . S
H385 C382 0.930 . S
H386 C374 0.929 . S
H387 C376 0.929 . S
O388 Co363 2.351 . S
O388 C391 1.244 . S
O389 Co363 2.155 . S
O389 C391 1.240 . S
O390 Co363 2.096 . S
O390 C371 1.247 . S
C391 O388 1.244 . S
C391 O389 1.240 . S
H392 C366 0.931 . S
H393 C375 0.931 . S
H394 C379 0.929 . S
H395 C381 0.930 . S
Co396 N400 2.148 . S
Co396 N406 2.128 . S
Co396 N416 2.194 . S
Co396 O421 2.351 . S
Co396 O422 2.155 . S
Co396 O423 2.096 . S
C397 N400 1.301 . S
C397 N401 1.328 . S
C397 H402 0.930 . S
C398 C399 1.333 . S
C398 N400 1.317 . S
C398 H403 0.930 . S
C399 C398 1.333 . S
C399 N401 1.350 . S
C399 H425 0.931 . S
N400 Co396 2.148 . S
N400 C397 1.301 . S
N400 C398 1.317 . S
N401 C397 1.328 . S
N401 C399 1.350 . S
H402 C397 0.930 . S
H403 C398 0.930 . S
C404 O405 1.224 . S
C404 O423 1.247 . S
O405 C404 1.224 . S
N406 Co396 2.128 . S
N406 C407 1.355 . S
N406 C409 1.311 . S
C407 N406 1.355 . S
C407 C408 1.363 . S
C407 H419 0.929 . S
C408 C407 1.363 . S
C408 N410 1.375 . S
C408 H426 0.931 . S
C409 N406 1.311 . S
C409 N410 1.347 . S
C409 H420 0.929 . S
N410 C408 1.375 . S
N410 C409 1.347 . S
C411 C414 1.365 . S
C411 N416 1.328 . S
C411 H417 0.929 . S
C412 C413 1.362 . S
C412 C415 1.378 . S
C412 H427 0.929 . S
C413 C412 1.362 . S
C413 C414 1.366 . S
C414 C411 1.365 . S
C414 C413 1.366 . S
C414 H428 0.930 . S
C415 C412 1.378 . S
C415 N416 1.315 . S
C415 H418 0.930 . S
N416 Co396 2.194 . S
N416 C411 1.328 . S
N416 C415 1.315 . S
H417 C411 0.929 . S
H418 C415 0.930 . S
H419 C407 0.929 . S
H420 C409 0.929 . S
O421 Co396 2.351 . S
O421 C424 1.244 . S
O422 Co396 2.155 . S
O422 C424 1.240 . S
O423 Co396 2.096 . S
O423 C404 1.247 . S
C424 O421 1.244 . S
C424 O422 1.240 . S
H425 C399 0.931 . S
H426 C408 0.931 . S
H427 C412 0.929 . S
H428 C414 0.930 . S
Co429 N433 2.148 . S
Co429 N439 2.128 . S
Co429 N449 2.194 . S
Co429 O454 2.351 . S
Co429 O455 2.155 . S
Co429 O456 2.096 . S
C430 N433 1.301 . S
C430 N434 1.328 . S
C430 H435 0.930 . S
C431 C432 1.333 . S
C431 N433 1.317 . S
C431 H436 0.930 . S
C432 C431 1.333 . S
C432 N434 1.350 . S
C432 H458 0.931 . S
N433 Co429 2.148 . S
N433 C430 1.301 . S
N433 C431 1.317 . S
N434 C430 1.328 . S
N434 C432 1.350 . S
H435 C430 0.930 . S
H436 C431 0.930 . S
C437 O438 1.224 . S
C437 O456 1.247 . S
O438 C437 1.224 . S
N439 Co429 2.128 . S
N439 C440 1.355 . S
N439 C442 1.311 . S
C440 N439 1.355 . S
C440 C441 1.363 1_554 S
C440 H452 0.929 . S
C441 C440 1.363 1_556 S
C441 N443 1.375 . S
C441 H459 0.931 . S
C442 N439 1.311 . S
C442 N443 1.347 1_554 S
C442 H453 0.929 . S
N443 C441 1.375 . S
N443 C442 1.347 1_556 S
C444 C447 1.365 . S
C444 N449 1.328 . S
C444 H450 0.929 . S
C445 C446 1.362 . S
C445 C448 1.378 . S
C445 H460 0.929 . S
C446 C445 1.362 . S
C446 C447 1.366 . S
C447 C444 1.365 . S
C447 C446 1.366 . S
C447 H461 0.930 . S
C448 C445 1.378 . S
C448 N449 1.315 . S
C448 H451 0.930 . S
N449 Co429 2.194 . S
N449 C444 1.328 . S
N449 C448 1.315 . S
H450 C444 0.929 . S
H451 C448 0.930 . S
H452 C440 0.929 . S
H453 C442 0.929 . S
O454 Co429 2.351 . S
O454 C457 1.244 . S
O455 Co429 2.155 . S
O455 C457 1.240 . S
O456 Co429 2.096 . S
O456 C437 1.247 . S
C457 O454 1.244 . S
C457 O455 1.240 . S
H458 C432 0.931 . S
H459 C441 0.931 . S
H460 C445 0.929 . S
H461 C447 0.930 . S
Co462 N466 2.148 1_554 S
Co462 N472 2.128 . S
Co462 N482 2.194 1_554 S
Co462 O487 2.351 1_554 S
Co462 O488 2.155 1_554 S
Co462 O489 2.096 . S
C463 N466 1.301 . S
C463 N467 1.328 . S
C463 H468 0.930 . S
C464 C465 1.333 . S
C464 N466 1.317 . S
C464 H469 0.930 . S
C465 C464 1.333 . S
C465 N467 1.350 . S
C465 H491 0.931 . S
N466 Co462 2.148 1_556 S
N466 C463 1.301 . S
N466 C464 1.317 . S
N467 C463 1.328 . S
N467 C465 1.350 . S
H468 C463 0.930 . S
H469 C464 0.930 . S
C470 O471 1.224 . S
C470 O489 1.247 . S
O471 C470 1.224 . S
N472 Co462 2.128 . S
N472 C473 1.355 . S
N472 C475 1.311 . S
C473 N472 1.355 . S
C473 C474 1.363 . S
C473 H485 0.929 . S
C474 C473 1.363 . S
C474 N476 1.375 . S
C474 H492 0.931 . S
C475 N472 1.311 . S
C475 N476 1.347 . S
C475 H486 0.929 . S
N476 C474 1.375 . S
N476 C475 1.347 . S
C477 C480 1.365 . S
C477 N482 1.328 . S
C477 H483 0.929 . S
C478 C479 1.362 . S
C478 C481 1.378 . S
C478 H493 0.929 . S
C479 C478 1.362 . S
C479 C480 1.366 1_554 S
C480 C477 1.365 . S
C480 C479 1.366 1_556 S
C480 H494 0.930 . S
C481 C478 1.378 . S
C481 N482 1.315 1_554 S
C481 H484 0.930 . S
N482 Co462 2.194 1_556 S
N482 C477 1.328 . S
N482 C481 1.315 1_556 S
H483 C477 0.929 . S
H484 C481 0.930 . S
H485 C473 0.929 . S
H486 C475 0.929 . S
O487 Co462 2.351 1_556 S
O487 C490 1.244 . S
O488 Co462 2.155 1_556 S
O488 C490 1.240 . S
O489 Co462 2.096 . S
O489 C470 1.247 . S
C490 O487 1.244 . S
C490 O488 1.240 . S
H491 C465 0.931 . S
H492 C474 0.931 . S
H493 C478 0.929 . S
H494 C480 0.930 . S
Co495 N499 2.148 . S
Co495 N505 2.128 . S
Co495 N515 2.194 . S
Co495 O520 2.351 . S
Co495 O521 2.155 . S
Co495 O522 2.096 . S
C496 N499 1.301 . S
C496 N500 1.328 . S
C496 H501 0.930 . S
C497 C498 1.333 . S
C497 N499 1.317 . S
C497 H502 0.930 . S
C498 C497 1.333 . S
C498 N500 1.350 . S
C498 H524 0.931 . S
N499 Co495 2.148 . S
N499 C496 1.301 . S
N499 C497 1.317 . S
N500 C496 1.328 . S
N500 C498 1.350 . S
H501 C496 0.930 . S
H502 C497 0.930 . S
C503 O504 1.224 . S
C503 O522 1.247 . S
O504 C503 1.224 . S
N505 Co495 2.128 . S
N505 C506 1.355 . S
N505 C508 1.311 . S
C506 N505 1.355 . S
C506 C507 1.363 1_556 S
C506 H518 0.929 . S
C507 C506 1.363 1_554 S
C507 N509 1.375 . S
C507 H525 0.931 . S
C508 N505 1.311 . S
C508 N509 1.347 1_556 S
C508 H519 0.929 . S
N509 C507 1.375 . S
N509 C508 1.347 1_554 S
C510 C513 1.365 . S
C510 N515 1.328 . S
C510 H516 0.929 . S
C511 C512 1.362 . S
C511 C514 1.378 . S
C511 H526 0.929 . S
C512 C511 1.362 . S
C512 C513 1.366 . S
C513 C510 1.365 . S
C513 C512 1.366 . S
C513 H527 0.930 . S
C514 C511 1.378 . S
C514 N515 1.315 . S
C514 H517 0.930 . S
N515 Co495 2.194 . S
N515 C510 1.328 . S
N515 C514 1.315 . S
H516 C510 0.929 . S
H517 C514 0.930 . S
H518 C506 0.929 . S
H519 C508 0.929 . S
O520 Co495 2.351 . S
O520 C523 1.244 . S
O521 Co495 2.155 . S
O521 C523 1.240 . S
O522 Co495 2.096 . S
O522 C503 1.247 . S
C523 O520 1.244 . S
C523 O521 1.240 . S
H524 C498 0.931 . S
H525 C507 0.931 . S
H526 C511 0.929 . S
H527 C513 0.930 . S
C528 C529 1.387 . S
C528 H532 0.950 . S
C528 C537 1.392 . S
C529 C528 1.387 . S
C529 C531 1.387 . S
H530 C537 0.949 1_565 S
C531 C529 1.387 . S
C531 C533 1.395 . S
C531 H535 0.950 . S
H532 C528 0.950 . S
C533 C531 1.395 . S
C533 C534 1.385 1_545 S
C533 H536 0.947 1_545 S
C534 C533 1.385 1_565 S
C534 C537 1.387 1_565 S
H535 C531 0.950 . S
H536 C533 0.947 1_565 S
C537 C528 1.392 . S
C537 H530 0.949 1_545 S
C537 C534 1.387 1_545 S
C538 C539 1.387 . S
C538 H542 0.950 . S
C538 C547 1.390 . S
C539 C538 1.387 . S
C539 C541 1.387 . S
H540 C547 0.950 . S
C541 C539 1.387 . S
C541 C543 1.390 . S
C541 H545 0.950 . S
H542 C538 0.950 . S
C543 C541 1.390 . S
C543 C544 1.387 . S
C543 H546 0.950 . S
C544 C543 1.387 . S
C544 C547 1.387 . S
H545 C541 0.950 . S
H546 C543 0.950 . S
C547 C538 1.390 . S
C547 H540 0.950 . S
C547 C544 1.387 . S
C548 C549 1.389 . S
C548 H552 0.952 . S
C548 C557 1.387 1_564 S
C549 C548 1.389 . S
C549 C551 1.383 1_565 S
H550 C557 0.950 . S
C551 C549 1.383 1_545 S
C551 C553 1.399 1_554 S
C551 H555 0.946 1_545 S
H552 C548 0.952 . S
C553 C551 1.399 1_556 S
C553 C554 1.387 . S
C553 H556 0.950 . S
C554 C553 1.387 . S
C554 C557 1.387 . S
H555 C551 0.946 1_565 S
H556 C553 0.950 . S
C557 C548 1.387 1_546 S
C557 H550 0.950 . S
C557 C554 1.387 . S
C558 C559 1.387 . S
C558 H562 0.950 . S
C558 C567 1.390 . S
C559 C558 1.387 . S
C559 C561 1.387 . S
H560 C567 0.950 . S
C561 C559 1.387 . S
C561 C563 1.390 . S
C561 H565 0.950 . S
H562 C558 0.950 . S
C563 C561 1.390 . S
C563 C564 1.387 . S
C563 H566 0.950 . S
C564 C563 1.387 . S
C564 C567 1.387 . S
H565 C561 0.950 . S
H566 C563 0.950 . S
C567 C558 1.390 . S
C567 H560 0.950 . S
C567 C564 1.387 . S
C568 C569 1.387 . S
C568 H572 0.950 . S
C568 C577 1.392 . S
C569 C568 1.387 . S
C569 C571 1.387 . S
H570 C577 0.948 1_565 S
C571 C569 1.387 . S
C571 C573 1.390 . S
C571 H575 0.950 . S
H572 C568 0.950 . S
C573 C571 1.390 . S
C573 C574 1.387 1_545 S
C573 H576 0.953 . S
C574 C573 1.387 1_565 S
C574 C577 1.387 1_565 S
H575 C571 0.950 . S
H576 C573 0.953 . S
C577 C568 1.392 . S
C577 H570 0.948 1_545 S
C577 C574 1.387 1_545 S
C578 C579 1.387 . S
C578 H582 0.950 . S
C578 C587 1.390 . S
C579 C578 1.387 . S
C579 C581 1.387 . S
H580 C587 0.950 . S
C581 C579 1.387 . S
C581 C583 1.390 . S
C581 H585 0.950 . S
H582 C578 0.950 . S
C583 C581 1.390 . S
C583 C584 1.387 . S
C583 H586 0.950 . S
C584 C583 1.387 . S
C584 C587 1.387 . S
H585 C581 0.950 . S
H586 C583 0.950 . S
C587 C578 1.390 . S
C587 H580 0.950 . S
C587 C584 1.387 . S
C588 C589 1.384 1_545 S
C588 H592 0.946 1_545 S
C588 C597 1.399 1_554 S
C589 C588 1.384 1_565 S
C589 C591 1.383 1_565 S
H590 C597 0.950 . S
C591 C589 1.383 1_545 S
C591 C593 1.401 1_554 S
C591 H595 0.944 1_545 S
H592 C588 0.946 1_565 S
C593 C591 1.401 1_556 S
C593 C594 1.387 . S
C593 H596 0.950 . S
C594 C593 1.387 . S
C594 C597 1.387 . S
H595 C591 0.944 1_565 S
H596 C593 0.950 . S
C597 C588 1.399 1_556 S
C597 H590 0.950 . S
C597 C594 1.387 . S
C598 C599 1.387 . S
C598 H602 0.950 . S
C598 C607 1.390 . S
C599 C598 1.387 . S
C599 C601 1.387 . S
H600 C607 0.950 . S
C601 C599 1.387 . S
C601 C603 1.390 . S
C601 H605 0.950 . S
H602 C598 0.950 . S
C603 C601 1.390 . S
C603 C604 1.387 . S
C603 H606 0.950 . S
C604 C603 1.387 . S
C604 C607 1.387 . S
H605 C601 0.950 . S
H606 C603 0.950 . S
C607 C598 1.390 . S
C607 H600 0.950 . S
C607 C604 1.387 . S
C608 C609 1.387 . S
C608 H612 0.950 . S
C608 C617 1.390 1_554 S
C609 C608 1.387 . S
C609 C611 1.387 . S
H610 C617 0.950 . S
C611 C609 1.387 . S
C611 C613 1.390 1_554 S
C611 H615 0.950 . S
H612 C608 0.950 . S
C613 C611 1.390 1_556 S
C613 C614 1.387 . S
C613 H616 0.950 . S
C614 C613 1.387 . S
C614 C617 1.387 . S
H615 C611 0.950 . S
H616 C613 0.950 . S
C617 C608 1.390 1_556 S
C617 H610 0.950 . S
C617 C614 1.387 . S
C618 C619 1.387 . S
C618 H622 0.950 . S
C618 C627 1.390 . S
C619 C618 1.387 . S
C619 C621 1.387 . S
H620 C627 0.950 . S
C621 C619 1.387 . S
C621 C623 1.390 . S
C621 H625 0.950 . S
H622 C618 0.950 . S
C623 C621 1.390 . S
C623 C624 1.387 . S
C623 H626 0.950 . S
C624 C623 1.387 . S
C624 C627 1.387 . S
H625 C621 0.950 . S
H626 C623 0.950 . S
C627 C618 1.390 . S
C627 H620 0.950 . S
C627 C624 1.387 . S
C628 C629 1.387 . S
C628 H632 0.950 . S
C628 C637 1.390 . S
C629 C628 1.387 . S
C629 C631 1.387 . S
H630 C637 0.950 . S
C631 C629 1.387 . S
C631 C633 1.390 . S
C631 H635 0.950 . S
H632 C628 0.950 . S
C633 C631 1.390 . S
C633 C634 1.387 . S
C633 H636 0.950 . S
C634 C633 1.387 . S
C634 C637 1.387 . S
H635 C631 0.950 . S
H636 C633 0.950 . S
C637 C628 1.390 . S
C637 H630 0.950 . S
C637 C634 1.387 . S
C638 C639 1.387 . S
C638 H642 0.950 . S
C638 C647 1.390 . S
C639 C638 1.387 . S
C639 C641 1.387 . S
H640 C647 0.950 . S
C641 C639 1.387 . S
C641 C643 1.390 . S
C641 H645 0.950 . S
H642 C638 0.950 . S
C643 C641 1.390 . S
C643 C644 1.387 . S
C643 H646 0.950 . S
C644 C643 1.387 . S
C644 C647 1.387 . S
H645 C641 0.950 . S
H646 C643 0.950 . S
C647 C638 1.390 . S
C647 H640 0.950 . S
C647 C644 1.387 . S
C648 C649 1.387 . S
C648 H652 0.950 . S
C648 C657 1.390 1_556 S
C649 C648 1.387 . S
C649 C651 1.387 . S
H650 C657 0.950 . S
C651 C649 1.387 . S
C651 C653 1.390 1_556 S
C651 H655 0.950 . S
H652 C648 0.950 . S
C653 C651 1.390 1_554 S
C653 C654 1.387 . S
C653 H656 0.950 . S
C654 C653 1.387 . S
C654 C657 1.387 . S
H655 C651 0.950 . S
H656 C653 0.950 . S
C657 C648 1.390 1_554 S
C657 H650 0.950 . S
C657 C654 1.387 . S
C658 C659 1.387 . S
C658 H662 0.950 . S
C658 C667 1.390 . S
C659 C658 1.387 . S
C659 C661 1.387 . S
H660 C667 0.950 . S
C661 C659 1.387 . S
C661 C663 1.390 . S
C661 H665 0.950 . S
H662 C658 0.950 . S
C663 C661 1.390 . S
C663 C664 1.387 . S
C663 H666 0.950 . S
C664 C663 1.387 . S
C664 C667 1.387 . S
H665 C661 0.950 . S
H666 C663 0.950 . S
C667 C658 1.390 . S
C667 H660 0.950 . S
C667 C664 1.387 . S
C668 C669 1.387 . S
C668 H672 0.950 . S
C668 C677 1.390 . S
C669 C668 1.387 . S
C669 C671 1.387 . S
H670 C677 0.950 . S
C671 C669 1.387 . S
C671 C673 1.390 . S
C671 H675 0.950 . S
H672 C668 0.950 . S
C673 C671 1.390 . S
C673 C674 1.387 . S
C673 H676 0.950 . S
C674 C673 1.387 . S
C674 C677 1.387 . S
H675 C671 0.950 . S
H676 C673 0.950 . S
C677 C668 1.390 . S
C677 H670 0.950 . S
C677 C674 1.387 . S
C678 C679 1.387 . S
C678 H682 0.950 . S
C678 C687 1.390 . S
C679 C678 1.387 . S
C679 C681 1.387 . S
H680 C687 0.950 . S
C681 C679 1.387 . S
C681 C683 1.390 . S
C681 H685 0.950 . S
H682 C678 0.950 . S
C683 C681 1.390 . S
C683 C684 1.387 . S
C683 H686 0.950 . S
C684 C683 1.387 . S
C684 C687 1.387 . S
H685 C681 0.950 . S
H686 C683 0.950 . S
C687 C678 1.390 . S
C687 H680 0.950 . S
C687 C684 1.387 . S
C688 C689 1.387 . S
C688 H692 0.950 . S
C688 C697 1.390 . S
C689 C688 1.387 . S
C689 C691 1.387 . S
H690 C697 0.950 . S
C691 C689 1.387 . S
C691 C693 1.390 . S
C691 H695 0.950 1_554 S
H692 C688 0.950 . S
C693 C691 1.390 . S
C693 C694 1.387 . S
C693 H696 0.950 . S
C694 C693 1.387 . S
C694 C697 1.387 . S
H695 C691 0.950 1_556 S
H696 C693 0.950 . S
C697 C688 1.390 . S
C697 H690 0.950 . S
C697 C694 1.387 . S
C698 C699 1.387 . S
C698 H702 0.950 . S
C698 C707 1.390 . S
C699 C698 1.387 . S
C699 C701 1.387 . S
H700 C707 0.950 . S
C701 C699 1.387 . S
C701 C703 1.390 . S
C701 H705 0.950 . S
H702 C698 0.950 . S
C703 C701 1.390 . S
C703 C704 1.387 . S
C703 H706 0.950 . S
C704 C703 1.387 . S
C704 C707 1.387 . S
H705 C701 0.950 . S
H706 C703 0.950 . S
C707 C698 1.390 . S
C707 H700 0.950 . S
C707 C704 1.387 . S
C708 C709 1.387 . S
C708 H712 0.950 . S
C708 C717 1.390 . S
C709 C708 1.387 . S
C709 C711 1.387 . S
H710 C717 0.950 . S
C711 C709 1.387 . S
C711 C713 1.390 . S
C711 H715 0.950 . S
H712 C708 0.950 . S
C713 C711 1.390 . S
C713 C714 1.387 . S
C713 H716 0.950 . S
C714 C713 1.387 . S
C714 C717 1.387 . S
H715 C711 0.950 . S
H716 C713 0.950 . S
C717 C708 1.390 . S
C717 H710 0.950 . S
C717 C714 1.387 . S
C718 C719 1.387 . S
C718 H722 0.950 . S
C718 C727 1.390 . S
C719 C718 1.387 . S
C719 C721 1.387 . S
H720 C727 0.950 . S
C721 C719 1.387 . S
C721 C723 1.390 . S
C721 H725 0.950 1_556 S
H722 C718 0.950 . S
C723 C721 1.390 . S
C723 C724 1.387 . S
C723 H726 0.950 . S
C724 C723 1.387 . S
C724 C727 1.387 . S
H725 C721 0.950 1_554 S
H726 C723 0.950 . S
C727 C718 1.390 . S
C727 H720 0.950 . S
C727 C724 1.387 . S
C728 C729 1.387 . S
C728 H732 0.950 . S
C728 C737 1.390 . S
C729 C728 1.387 . S
C729 C731 1.387 . S
H730 C737 0.950 . S
C731 C729 1.387 . S
C731 C733 1.390 . S
C731 H735 0.950 . S
H732 C728 0.950 . S
C733 C731 1.390 . S
C733 C734 1.387 . S
C733 H736 0.950 . S
C734 C733 1.387 . S
C734 C737 1.387 . S
H735 C731 0.950 . S
H736 C733 0.950 . S
C737 C728 1.390 . S
C737 H730 0.950 . S
C737 C734 1.387 . S
C738 C739 1.387 . S
C738 H742 0.950 . S
C738 C747 1.390 . S
C739 C738 1.387 . S
C739 C741 1.387 . S
H740 C747 0.950 . S
C741 C739 1.387 . S
C741 C743 1.390 . S
C741 H745 0.950 . S
H742 C738 0.950 . S
C743 C741 1.390 . S
C743 C744 1.387 . S
C743 H746 0.950 . S
C744 C743 1.387 . S
C744 C747 1.387 . S
H745 C741 0.950 . S
H746 C743 0.950 . S
C747 C738 1.390 . S
C747 H740 0.950 . S
C747 C744 1.387 . S
C748 C749 1.387 . S
C748 H752 0.950 . S
C748 C757 1.390 . S
C749 C748 1.387 . S
C749 C751 1.387 . S
H750 C757 0.950 . S
C751 C749 1.387 . S
C751 C753 1.390 . S
C751 H755 0.950 . S
H752 C748 0.950 . S
C753 C751 1.390 . S
C753 C754 1.387 . S
C753 H756 0.950 . S
C754 C753 1.387 . S
C754 C757 1.387 . S
H755 C751 0.950 . S
H756 C753 0.950 . S
C757 C748 1.390 . S
C757 H750 0.950 . S
C757 C754 1.387 . S
C758 C759 1.387 . S
C758 H762 0.950 . S
C758 C767 1.390 . S
C759 C758 1.387 . S
C759 C761 1.387 . S
H760 C767 0.950 . S
C761 C759 1.387 . S
C761 C763 1.390 . S
C761 H765 0.950 . S
H762 C758 0.950 . S
C763 C761 1.390 . S
C763 C764 1.387 . S
C763 H766 0.950 . S
C764 C763 1.387 . S
C764 C767 1.387 . S
H765 C761 0.950 . S
H766 C763 0.950 . S
C767 C758 1.390 . S
C767 H760 0.950 . S
C767 C764 1.387 . S
C768 C769 1.387 . S
C768 H772 0.950 . S
C768 C777 1.390 . S
C769 C768 1.387 . S
C769 C771 1.387 . S
H770 C777 0.950 . S
C771 C769 1.387 . S
C771 C773 1.390 . S
C771 H775 0.950 . S
H772 C768 0.950 . S
C773 C771 1.390 . S
C773 C774 1.387 . S
C773 H776 0.950 . S
C774 C773 1.387 . S
C774 C777 1.387 . S
H775 C771 0.950 . S
H776 C773 0.950 . S
C777 C768 1.390 . S
C777 H770 0.950 . S
C777 C774 1.387 . S
C778 C779 1.387 . S
C778 H782 0.950 . S
C778 C787 1.390 . S
C779 C778 1.387 . S
C779 C781 1.387 . S
H780 C787 0.950 1_554 S
C781 C779 1.387 . S
C781 C783 1.390 . S
C781 H785 0.950 . S
H782 C778 0.950 . S
C783 C781 1.390 . S
C783 C784 1.387 . S
C783 H786 0.950 . S
C784 C783 1.387 . S
C784 C787 1.387 . S
H785 C781 0.950 . S
H786 C783 0.950 . S
C787 C778 1.390 . S
C787 H780 0.950 1_556 S
C787 C784 1.387 . S
C788 C789 1.387 . S
C788 H792 0.950 . S
C788 C797 1.390 . S
C789 C788 1.387 . S
C789 C791 1.387 . S
H790 C797 0.950 . S
C791 C789 1.387 . S
C791 C793 1.390 . S
C791 H795 0.950 1_554 S
H792 C788 0.950 . S
C793 C791 1.390 . S
C793 C794 1.387 . S
C793 H796 0.950 . S
C794 C793 1.387 . S
C794 C797 1.387 . S
H795 C791 0.950 1_556 S
H796 C793 0.950 . S
C797 C788 1.390 . S
C797 H790 0.950 . S
C797 C794 1.387 . S
C798 C799 1.387 . S
C798 H802 0.950 . S
C798 C807 1.390 . S
C799 C798 1.387 . S
C799 C801 1.387 . S
H800 C807 0.950 . S
C801 C799 1.387 . S
C801 C803 1.390 . S
C801 H805 0.950 . S
H802 C798 0.950 . S
C803 C801 1.390 . S
C803 C804 1.387 . S
C803 H806 0.950 . S
C804 C803 1.387 . S
C804 C807 1.387 . S
H805 C801 0.950 . S
H806 C803 0.950 . S
C807 C798 1.390 . S
C807 H800 0.950 . S
C807 C804 1.387 . S
C808 C809 1.387 . S
C808 H812 0.950 . S
C808 C817 1.390 . S
C809 C808 1.387 . S
C809 C811 1.387 . S
H810 C817 0.950 . S
C811 C809 1.387 . S
C811 C813 1.390 . S
C811 H815 0.950 . S
H812 C808 0.950 . S
C813 C811 1.390 . S
C813 C814 1.387 . S
C813 H816 0.950 . S
C814 C813 1.387 . S
C814 C817 1.387 . S
H815 C811 0.950 . S
H816 C813 0.950 . S
C817 C808 1.390 . S
C817 H810 0.950 . S
C817 C814 1.387 . S
C818 C819 1.387 . S
C818 H822 0.950 . S
C818 C827 1.390 . S
C819 C818 1.387 . S
C819 C821 1.387 . S
H820 C827 0.950 . S
C821 C819 1.387 . S
C821 C823 1.390 . S
C821 H825 0.950 . S
H822 C818 0.950 . S
C823 C821 1.390 . S
C823 C824 1.387 . S
C823 H826 0.950 . S
C824 C823 1.387 . S
C824 C827 1.387 . S
H825 C821 0.950 . S
H826 C823 0.950 . S
C827 C818 1.390 . S
C827 H820 0.950 . S
C827 C824 1.387 . S
C828 C829 1.387 . S
C828 H832 0.950 . S
C828 C837 1.390 . S
C829 C828 1.387 . S
C829 C831 1.387 . S
H830 C837 0.950 . S
C831 C829 1.387 . S
C831 C833 1.390 . S
C831 H835 0.950 . S
H832 C828 0.950 . S
C833 C831 1.390 . S
C833 C834 1.387 . S
C833 H836 0.950 1_556 S
C834 C833 1.387 . S
C834 C837 1.387 . S
H835 C831 0.950 . S
H836 C833 0.950 1_554 S
C837 C828 1.390 . S
C837 H830 0.950 . S
C837 C834 1.387 . S
C838 C839 1.387 . S
C838 H842 0.950 . S
C838 C847 1.390 . S
C839 C838 1.387 . S
C839 C841 1.387 . S
H840 C847 0.950 . S
C841 C839 1.387 . S
C841 C843 1.390 . S
C841 H845 0.950 . S
H842 C838 0.950 . S
C843 C841 1.390 . S
C843 C844 1.387 . S
C843 H846 0.950 . S
C844 C843 1.387 . S
C844 C847 1.387 . S
H845 C841 0.950 . S
H846 C843 0.950 . S
C847 C838 1.390 . S
C847 H840 0.950 . S
C847 C844 1.387 . S
C848 C849 1.387 . S
C848 H852 0.950 . S
C848 C857 1.390 . S
C849 C848 1.387 . S
C849 C851 1.387 1_544 S
H850 C857 0.950 . S
C851 C849 1.387 1_566 S
C851 C853 1.390 . S
C851 H855 0.950 . S
H852 C848 0.950 . S
C853 C851 1.390 . S
C853 C854 1.387 1_566 S
C853 H856 0.950 . S
C854 C853 1.387 1_544 S
C854 C857 1.387 . S
H855 C851 0.950 . S
H856 C853 0.950 . S
C857 C848 1.390 . S
C857 H850 0.950 . S
C857 C854 1.387 . S
C858 C859 1.387 . S
C858 H862 0.950 . S
C858 C867 1.390 . S
C859 C858 1.387 . S
C859 C861 1.387 . S
H860 C867 0.950 . S
C861 C859 1.387 . S
C861 C863 1.390 . S
C861 H865 0.950 . S
H862 C858 0.950 . S
C863 C861 1.390 . S
C863 C864 1.387 . S
C863 H866 0.950 . S
C864 C863 1.387 . S
C864 C867 1.387 . S
H865 C861 0.950 . S
H866 C863 0.950 . S
C867 C858 1.390 . S
C867 H860 0.950 . S
C867 C864 1.387 . S
C868 C869 1.387 1_565 S
C868 H872 0.950 . S
C868 C877 1.390 1_455 S
C869 C868 1.387 1_545 S
C869 C871 1.387 . S
H870 C877 0.950 . S
C871 C869 1.387 . S
C871 C873 1.390 1_455 S
C871 H875 0.950 . S
H872 C868 0.950 . S
C873 C871 1.390 1_655 S
C873 C874 1.387 . S
C873 H876 0.950 . S
C874 C873 1.387 . S
C874 C877 1.387 1_545 S
H875 C871 0.950 . S
H876 C873 0.950 . S
C877 C868 1.390 1_655 S
C877 H870 0.950 . S
C877 C874 1.387 1_565 S
C878 C879 1.387 . S
C878 H882 0.950 . S
C878 C887 1.390 . S
C879 C878 1.387 . S
C879 C881 1.387 . S
H880 C887 0.950 . S
C881 C879 1.387 . S
C881 C883 1.390 . S
C881 H885 0.950 . S
H882 C878 0.950 . S
C883 C881 1.390 . S
C883 C884 1.387 . S
C883 H886 0.950 . S
C884 C883 1.387 . S
C884 C887 1.387 . S
H885 C881 0.950 . S
H886 C883 0.950 . S
C887 C878 1.390 . S
C887 H880 0.950 . S
C887 C884 1.387 . S
C888 C889 1.387 . S
C888 H892 0.950 . S
C888 C897 1.390 . S
C889 C888 1.387 . S
C889 C891 1.387 . S
H890 C897 0.950 . S
C891 C889 1.387 . S
C891 C893 1.390 . S
C891 H895 0.950 . S
H892 C888 0.950 . S
C893 C891 1.390 . S
C893 C894 1.387 . S
C893 H896 0.950 . S
C894 C893 1.387 . S
C894 C897 1.387 . S
H895 C891 0.950 . S
H896 C893 0.950 . S
C897 C888 1.390 . S
C897 H890 0.950 . S
C897 C894 1.387 . S
C898 C899 1.387 . S
C898 H902 0.950 . S
C898 C907 1.390 . S
C899 C898 1.387 . S
C899 C901 1.387 . S
H900 C907 0.950 . S
C901 C899 1.387 . S
C901 C903 1.390 . S
C901 H905 0.950 . S
H902 C898 0.950 . S
C903 C901 1.390 . S
C903 C904 1.387 . S
C903 H906 0.950 . S
C904 C903 1.387 . S
C904 C907 1.387 . S
H905 C901 0.950 . S
H906 C903 0.950 . S
C907 C898 1.390 . S
C907 H900 0.950 . S
C907 C904 1.387 . S
C908 C909 1.387 . S
C908 H912 0.950 . S
C908 C917 1.390 1_655 S
C909 C908 1.387 . S
C909 C911 1.387 . S
H910 C917 0.950 . S
C911 C909 1.387 . S
C911 C913 1.390 1_655 S
C911 H915 0.950 . S
H912 C908 0.950 . S
C913 C911 1.390 1_455 S
C913 C914 1.387 . S
C913 H916 0.950 . S
C914 C913 1.387 . S
C914 C917 1.387 . S
H915 C911 0.950 . S
H916 C913 0.950 . S
C917 C908 1.390 1_455 S
C917 H910 0.950 . S
C917 C914 1.387 . S
C918 C919 1.387 . S
C918 H922 0.950 . S
C918 C927 1.390 . S
C919 C918 1.387 . S
C919 C921 1.387 1_554 S
H920 C927 0.950 . S
C921 C919 1.387 1_556 S
C921 C923 1.390 . S
C921 H925 0.950 . S
H922 C918 0.950 . S
C923 C921 1.390 . S
C923 C924 1.387 1_556 S
C923 H926 0.950 . S
C924 C923 1.387 1_554 S
C924 C927 1.387 . S
H925 C921 0.950 . S
H926 C923 0.950 . S
C927 C918 1.390 . S
C927 H920 0.950 . S
C927 C924 1.387 . S
C529 N5 1.461 . S
C534 N14 1.456 . S
C539 N38 1.475 . S
C544 N47 1.470 . S
C549 N80 1.470 . S
C554 N71 1.475 . S
C559 N113 1.456 . S
C564 N104 1.461 . S
C569 N146 1.456 . S
C574 N137 1.461 . S
C579 N179 1.470 . S
C584 N170 1.475 . S
C589 N203 1.474 . S
C594 N212 1.470 . S
C599 N245 1.456 . S
C604 N236 1.461 . S
C609 N269 1.461 . S
C614 N278 1.456 . S
C619 N302 1.475 . S
C624 N311 1.470 . S
C629 N344 1.470 . S
C634 N335 1.475 . S
C639 N368 1.461 . S
C644 N377 1.456 . S
C649 N401 1.461 . S
C654 N410 1.456 . S
C659 N443 1.470 . S
C664 N434 1.475 . S
C669 N467 1.475 . S
C674 N476 1.470 . S
C679 N509 1.457 . S
C684 N500 1.462 . S
C689 C8 1.395 . S
C694 C61 1.393 . S
C699 C74 1.460 . S
C704 C41 1.461 . S
C709 C107 1.394 . S
C714 C94 1.393 . S
C719 C28 1.325 . S
C724 C127 1.327 . S
C729 C193 1.393 . S
C734 C140 1.395 . S
C739 C173 1.460 . S
C744 C206 1.461 . S
C749 C226 1.393 . S
C754 C239 1.395 . S
C759 C259 1.327 . S
C764 C160 1.326 . S
C769 C325 1.393 . S
C774 C272 1.395 . S
C779 C305 1.460 . S
C784 C338 1.461 . S
C789 C358 1.392 . S
C794 C371 1.396 . S
C799 C391 1.326 . S
C804 C292 1.326 . S
C809 C404 1.396 . S
C814 C457 1.393 . S
C819 C437 1.460 . S
C824 C470 1.460 . S
C829 C503 1.395 . S
C834 C490 1.393 . S
C839 C424 1.327 . S
C844 C523 1.325 . S
C849 C17 1.295 . S
C854 C149 1.295 . S
C859 C446 1.346 . S
C864 C50 1.346 . S
C869 C83 1.347 . S
C874 C215 1.347 . S
C879 C512 1.296 . S
C884 C116 1.296 . S
C889 C314 1.346 . S
C894 C182 1.346 . S
C899 C248 1.295 . S
C904 C380 1.295 . S
C909 C281 1.296 . S
C914 C413 1.296 . S
C919 C479 1.346 . S
C924 C347 1.346 . S
