# Generated by pormake.
# Topology qtz-x, (6)-cn, num edge types: 1
# Building blocks:
#     Node 0, Type 0, BuildingBlock: CUKXOW_clean_sbu_0, # of connection points: 6
#     Node 1, Type 0, BuildingBlock: CUKXOW_clean_sbu_0, # of connection points: 6
#     Node 2, Type 0, BuildingBlock: CUKXOW_clean_sbu_0, # of connection points: 6
#     Edge 3, Type (0, 0), BuildingBlock: MIFKUJ_clean_linker_0, # of connection points: 2
#     Edge 4, Type (0, 0), BuildingBlock: MIFKUJ_clean_linker_0, # of connection points: 2
#     Edge 5, Type (0, 0), BuildingBlock: MIFKUJ_clean_linker_0, # of connection points: 2
#     Edge 6, Type (0, 0), BuildingBlock: MIFKUJ_clean_linker_0, # of connection points: 2
#     Edge 7, Type (0, 0), BuildingBlock: MIFKUJ_clean_linker_0, # of connection points: 2
#     Edge 8, Type (0, 0), BuildingBlock: MIFKUJ_clean_linker_0, # of connection points: 2
#     Edge 9, Type (0, 0), BuildingBlock: MIFKUJ_clean_linker_0, # of connection points: 2
#     Edge 10, Type (0, 0), BuildingBlock: MIFKUJ_clean_linker_0, # of connection points: 2
#     Edge 11, Type (0, 0), BuildingBlock: MIFKUJ_clean_linker_0, # of connection points: 2
# Relax obj value: 0.124
# Max RMSD: 0.217
# Mean RMSD: 0.217
data_MOF--net-qtz-x--node1-CUKXOW_clean_sbu_0--edge1-MIFKUJ_clean_linker_0
_symmetry_space_group_name_H-M    P1
_symmetry_Int_Tables_number       1
_symmetry_cell_setting            triclinic
loop_
_symmetry_equiv_pos_as_xyz
'x, y, z'
_cell_length_a     18.91352
_cell_length_b     19.026622
_cell_length_c     53.79563
_cell_angle_alpha  89.859213
_cell_angle_beta   89.989958
_cell_angle_gamma 119.77827
loop_
_atom_site_label
_atom_site_type_symbol
_atom_site_fract_x
_atom_site_fract_y
_atom_site_fract_z
_atom_type_partial_charge
Tb0 Tb 0.03396 0.61308 0.2092 0.0
C1 C 0.01916 0.7413 0.17691 0.0
Tb2 Tb 0.91887 0.55499 0.16306 0.0
O3 O 0.14108 0.67173 0.18449 0.0
O4 O 0.03376 0.57126 0.1729 0.0
O5 O 0.03728 0.72391 0.19898 0.0
C6 C 0.85446 0.52906 0.11745 0.0
O7 O 0.97761 0.68616 0.15976 0.0
C8 C 0.84682 0.53194 0.20621 0.0
C9 C 0.94376 0.4281 0.19394 0.0
O10 O 0.81723 0.52734 0.13789 0.0
O11 O 0.92783 0.54485 0.12269 0.0
O12 O 0.81231 0.48906 0.18653 0.0
O13 O 0.91557 0.59098 0.2001 0.0
O14 O 0.92367 0.4462 0.17204 0.0
O15 O 0.98025 0.48208 0.212 0.0
C16 C 0.09696 0.65664 0.25481 0.0
O17 O 0.0227 0.63426 0.24853 0.0
O18 O 0.13548 0.65154 0.23553 0.0
C19 C 0.10308 0.62473 0.16585 0.0
Tb20 Tb 0.47064 0.02128 0.54217 0.0
C21 C 0.62185 0.02326 0.51682 0.0
Tb22 Tb 0.55737 0.1376 0.49715 0.0
O23 O 0.36438 0.94241 0.51853 0.0
O24 O 0.4795 0.01308 0.50349 0.0
O25 O 0.57649 0.00624 0.5372 0.0
C26 C 0.6082 0.20004 0.45214 0.0
O27 O 0.61896 0.06715 0.498 0.0
C28 C 0.5898 0.20662 0.54114 0.0
C29 C 0.39609 0.11874 0.51919 0.0
O30 O 0.65515 0.20013 0.46983 0.0
O31 O 0.53332 0.16528 0.45982 0.0
O32 O 0.59671 0.24528 0.52057 0.0
O33 O 0.57486 0.13624 0.53591 0.0
O34 O 0.43911 0.12911 0.49872 0.0
O35 O 0.41126 0.09337 0.54041 0.0
C36 C 0.43649 0.95315 0.5872 0.0
O37 O 0.43966 0.91806 0.56685 0.0
O38 O 0.45035 0.02555 0.58201 0.0
C39 C 0.4063 0.96759 0.49802 0.0
Tb40 Tb 0.4271 0.57557 0.87433 0.0
C41 C 0.30333 0.41579 0.8466 0.0
Tb42 Tb 0.48655 0.51841 0.82855 0.0
O43 O 0.42623 0.67411 0.85294 0.0
O44 O 0.41243 0.57064 0.83549 0.0
O45 O 0.32035 0.45952 0.86718 0.0
C46 C 0.51321 0.47334 0.7843 0.0
O47 O 0.35719 0.42928 0.82873 0.0
C48 C 0.538 0.50135 0.87235 0.0
C49 C 0.5961 0.68996 0.85077 0.0
O50 O 0.48971 0.42809 0.80413 0.0
O51 O 0.52166 0.54379 0.78943 0.0
O52 O 0.57831 0.51184 0.85189 0.0
O53 O 0.46973 0.4937 0.86727 0.0
O54 O 0.5749 0.64602 0.83023 0.0
O55 O 0.55524 0.66468 0.87195 0.0
C56 C 0.38314 0.59179 0.9201 0.0
O57 O 0.4546 0.60376 0.91383 0.0
O58 O 0.33662 0.57127 0.90061 0.0
C59 C 0.42216 0.64002 0.83164 0.0
H60 H 0.13606 0.87461 0.20035 0.0
H61 H 0.14877 0.00851 0.20018 0.0
H62 H 0.96595 0.9321 0.14285 0.0
H63 H 0.95312 0.79791 0.1427 0.0
H64 H 0.08795 0.1046 0.14291 0.0
H65 H 0.89642 0.88477 0.19793 0.0
H66 H 0.86848 0.77904 0.22924 0.0
H67 H 0.04158 0.95881 0.27877 0.0
H68 H 0.07152 0.0654 0.24752 0.0
H69 H 0.86701 0.29836 0.16315 0.0
H70 H 0.89477 0.18661 0.16013 0.0
H71 H 0.043 0.2702 0.22619 0.0
H72 H 0.01477 0.38162 0.22967 0.0
H73 H 0.95876 0.10667 0.22319 0.0
H74 H 0.13296 0.33071 0.17151 0.0
H75 H 0.1703 0.43723 0.13976 0.0
H76 H 0.0407 0.25615 0.08434 0.0
H77 H 0.00125 0.14856 0.11582 0.0
C78 C 0.10023 0.88703 0.1872 0.0
C79 C 0.04136 0.82549 0.17219 0.0
C80 C 0.10832 0.96365 0.18695 0.0
C81 C 0.05693 0.9787 0.17191 0.0
C82 C 0.00574 0.92078 0.15462 0.0
C83 C -0.00201 0.84412 0.15473 0.0
C84 C 0.04259 0.04536 0.17811 0.0
C85 C 0.05964 0.10544 0.16037 0.0
C86 C 0.00721 0.0463 0.20119 0.0
C87 C -0.01333 0.98281 0.22035 0.0
C88 C 0.92866 0.90163 0.21547 0.0
C89 C 0.91252 0.84158 0.23319 0.0
C90 C 0.95335 0.86217 0.25596 0.0
C91 C 0.01008 0.94294 0.26111 0.0
C92 C 0.02664 0.00319 0.24342 0.0
C93 C 0.90386 0.2919 0.1774 0.0
C94 C 0.94066 0.3499 0.19623 0.0
C95 C 0.91998 0.22841 0.17555 0.0
C96 C 0.97325 0.22263 0.19242 0.0
C97 C 0.00283 0.27502 0.21279 0.0
C98 C -0.0136 0.3384 0.21475 0.0
C99 C 0.00247 0.16555 0.18773 0.0
C100 C -0.01185 0.10702 0.20582 0.0
C101 C 0.04103 0.1667 0.16503 0.0
C102 C 0.06359 0.23149 0.1461 0.0
C103 C 0.11166 0.31358 0.15261 0.0
C104 C 0.13334 0.37418 0.13465 0.0
C105 C 0.10786 0.35339 0.11006 0.0
C106 C 0.06037 0.27209 0.1034 0.0
C107 C 0.03836 0.21129 0.12129 0.0
H108 H 0.12518 0.40015 0.09611 0.0
H109 H 0.94094 0.81557 0.26963 0.0
H110 H 0.31539 0.10995 0.4765 0.0
H111 H 0.17344 0.07475 0.47305 0.0
H112 H 0.15769 0.08658 0.55283 0.0
H113 H 0.29983 0.1202 0.55661 0.0
H114 H 0.03724 0.94546 0.53415 0.0
H115 H 0.1611 0.23084 0.51526 0.0
H116 H 0.25243 0.35638 0.49247 0.0
H117 H 0.12813 0.2482 0.42431 0.0
H118 H 0.03648 0.12172 0.44668 0.0
H119 H 0.69929 -0.00428 0.55483 0.0
H120 H 0.81959 0.98094 0.55115 0.0
H121 H 0.79455 0.96909 0.47122 0.0
H122 H 0.67579 -0.01303 0.47481 0.0
H123 H 0.93155 0.0933 0.48456 0.0
H124 H 0.79522 0.81307 0.50479 0.0
H125 H 0.70176 0.68967 0.52814 0.0
H126 H 0.84501 0.78806 0.59409 0.0
H127 H 0.93893 0.91248 0.57123 0.0
C128 C 0.28258 0.10733 0.49331 0.0
C129 C 0.3184 0.11748 0.51688 0.0
C130 C 0.20134 0.08672 0.49127 0.0
C131 C 0.15551 0.07763 0.51269 0.0
C132 C 0.19239 0.0926 0.53614 0.0
C133 C 0.2735 0.11245 0.53824 0.0
C134 C 0.06804 0.04897 0.51074 0.0
C135 C 0.01373 0.97786 0.52349 0.0
C136 C 0.03815 0.08982 0.49596 0.0
C137 C 0.09277 0.16633 0.48258 0.0
C138 C 0.1537 0.23355 0.49537 0.0
C139 C 0.2054 0.30497 0.48254 0.0
C140 C 0.19634 0.31015 0.45694 0.0
C141 C 0.13525 0.24405 0.44413 0.0
C142 C 0.08336 0.17252 0.45688 0.0
C143 C 0.71803 -0.01264 0.53655 0.0
C144 C 0.68032 -0.00535 0.51506 0.0
C145 C 0.78624 0.97809 0.53446 0.0
C146 C 0.81594 0.97429 0.51087 0.0
C147 C 0.77256 0.97241 0.48954 0.0
C148 C 0.70535 0.98318 0.49161 0.0
C149 C 0.90007 -0.00955 0.50845 0.0
C150 C 0.9543 0.05947 0.49483 0.0
C151 C 0.92962 0.94774 0.52249 0.0
C152 C 0.87404 0.87235 0.53627 0.0
C153 C 0.80664 0.80861 0.5243 0.0
C154 C 0.7536 0.73841 0.53745 0.0
C155 C 0.7674 0.73106 0.56259 0.0
C156 C 0.83446 0.7938 0.57461 0.0
C157 C 0.88776 0.8641 0.56154 0.0
H158 H 0.72618 0.67674 0.57275 0.0
H159 H 0.23646 0.36548 0.44704 0.0
H160 H 0.60043 0.81436 0.87618 0.0
H161 H 0.69399 0.95841 0.86969 0.0
H162 H 0.8226 0.90121 0.81414 0.0
H163 H 0.72647 0.75704 0.81972 0.0
H164 H 0.84389 0.036 0.8789 0.0
H165 H 0.91315 0.04324 0.77185 0.0
H166 H 0.8362 0.98238 0.7334 0.0
H167 H 0.61634 0.94516 0.76846 0.0
H168 H 0.69188 0.00659 0.80707 0.0
H169 H 0.24254 0.27835 0.81886 0.0
H170 H 0.09853 0.17697 0.81355 0.0
H171 H 0.02926 0.32415 0.85676 0.0
H172 H 0.17249 0.42377 0.86292 0.0
H173 H 0.9521 0.16812 0.79724 0.0
H174 H 0.89045 0.20176 0.89767 0.0
H175 H 0.96391 0.26297 0.9367 0.0
H176 H 0.15506 0.21599 0.91497 0.0
H177 H 0.08223 0.15386 0.87596 0.0
C178 C 0.64907 0.83269 0.86269 0.0
C179 C 0.6576 0.77521 0.84868 0.0
C180 C 0.70159 0.9148 0.85878 0.0
C181 C 0.764 0.94036 0.8411 0.0
C182 C 0.77311 0.88277 0.8273 0.0
C183 C 0.71941 0.80062 0.83082 0.0
C184 C 0.82583 0.02646 0.83915 0.0
C185 C 0.86565 0.06581 0.86106 0.0
C186 C 0.85406 0.0653 0.81587 0.0
C187 C 0.8084 0.02945 0.79246 0.0
C188 C 0.84852 0.02269 0.77135 0.0
C189 C 0.80502 -0.01219 0.74953 0.0
C190 C 0.72135 0.95966 0.74852 0.0
C191 C 0.68103 0.96657 0.76932 0.0
C192 C 0.72417 0.00134 0.79119 0.0
C193 C 0.19636 0.28897 0.82705 0.0
C194 C 0.21796 0.35679 0.84202 0.0
C195 C 0.11448 0.232 0.8237 0.0
C196 C 0.05398 0.24327 0.835 0.0
C197 C 0.0755 0.31442 0.84816 0.0
C198 C 0.1571 0.37035 0.85197 0.0
C199 C 0.97095 0.17452 0.83682 0.0
C200 C 0.92755 0.13895 0.81499 0.0
C201 C 0.93819 0.13926 0.86018 0.0
C202 C 0.98138 0.17403 0.88387 0.0
C203 C 0.94798 0.20424 0.90132 0.0
C204 C -0.01048 0.23913 0.9234 0.0
C205 C 0.06424 0.2436 0.92827 0.0
C206 C 0.09731 0.2127 0.91114 0.0
C207 C 0.05595 0.17764 0.88905 0.0
H208 H 0.09643 0.27087 0.94534 0.0
H209 H 0.68777 0.9326 0.73162 0.0
H210 H 0.23333 0.50274 0.94071 0.0
H211 H 0.19162 0.51133 0.98305 0.0
H212 H 0.43372 0.70877 0.99827 0.0
H213 H 0.47702 0.69449 0.95657 0.0
H214 H 0.38848 0.62728 0.03659 0.0
H215 H 0.24716 0.72385 0.98423 0.0
H216 H 0.15552 0.71923 0.95083 0.0
H217 H 0.95569 0.51081 0.98495 0.0
H218 H 0.04612 0.5132 0.01812 0.0
H219 H 0.24697 0.74236 0.146 0.0
H220 H 0.30236 0.74278 0.10458 0.0
H221 H 0.09336 0.50926 0.08943 0.0
H222 H 0.04026 0.50677 0.13094 0.0
H223 H 0.1268 0.62099 0.05185 0.0
H224 H 0.2717 0.51632 0.10041 0.0
H225 H 0.35923 0.52259 0.13531 0.0
H226 H 0.54861 0.75407 0.10957 0.0
H227 H 0.46205 0.74881 0.07445 0.0
C228 C 0.2774 0.54788 0.95318 0.0
C229 C 0.35802 0.59851 0.94545 0.0
C230 C 0.25343 0.55346 0.97733 0.0
C231 C 0.30855 0.61268 0.99383 0.0
C232 C 0.38959 0.66287 0.98601 0.0
C233 C 0.41435 0.65503 0.96216 0.0
C234 C 0.28236 0.62115 0.01931 0.0
C235 C 0.33187 0.62738 0.0397 0.0
C236 C 0.20777 0.62002 0.02383 0.0
C237 C 0.15372 0.6183 1.00355 0.0
C238 C 0.18382 0.67663 0.98446 0.0
C239 C 0.132 0.6744 0.96555 0.0
C240 C 0.0498 0.6146 0.96567 0.0
C241 C 0.01927 0.55698 0.98472 0.0
C242 C 0.0708 0.55873 1.00359 0.0
C243 C 0.21345 0.69098 0.13384 0.0
C244 C 0.13854 0.62534 0.1414 0.0
C245 C 0.24507 0.6912 0.11027 0.0
C246 C 0.20192 0.62591 0.09399 0.0
C247 C 0.12757 0.56017 0.1017 0.0
C248 C 0.09685 0.5593 0.12531 0.0
C249 C 0.23239 0.62624 0.06859 0.0
C250 C 0.18375 0.62182 0.04838 0.0
C251 C 0.30765 0.62973 0.06422 0.0
C252 C 0.36033 0.63236 0.08496 0.0
C253 C 0.33194 0.56855 0.10226 0.0
C254 C 0.38145 0.57184 0.12202 0.0
C255 C 0.45952 0.63868 0.12464 0.0
C256 C 0.48825 0.70224 0.10746 0.0
C257 C 0.43908 0.69904 0.08759 0.0
H258 H 0.49775 0.64123 0.13997 0.0
H259 H 0.00974 0.61303 0.95105 0.0
H260 H 0.54172 0.2663 0.42231 0.0
H261 H 0.58373 0.31938 0.38025 0.0
H262 H 0.77089 0.25207 0.3825 0.0
H263 H 0.73317 0.20582 0.42549 0.0
H264 H 0.83073 0.37939 0.36049 0.0
H265 H 0.58078 0.14238 0.34906 0.0
H266 H 0.43607 0.04262 0.35639 0.0
H267 H 0.36727 0.21454 0.33121 0.0
H268 H 0.5117 0.31589 0.32414 0.0
H269 H 0.75556 0.37374 0.21819 0.0
H270 H 0.71609 0.31278 0.25934 0.0
H271 H 0.84141 0.55 0.29265 0.0
H272 H 0.87837 0.61197 0.25097 0.0
H273 H 0.62556 0.32317 0.29488 0.0
H274 H 0.93518 0.51688 0.35032 0.0
H275 H 0.0819 0.57403 0.34425 0.0
H276 H 0.03872 0.44065 0.27637 0.0
H277 H 0.89093 0.37711 0.28307 0.0
C278 C 0.59217 0.26351 0.41378 0.0
C279 C 0.6345 0.23235 0.42696 0.0
C280 C 0.61562 0.29294 0.38964 0.0
C281 C 0.67933 0.2881 0.37778 0.0
C282 C 0.72165 0.25679 0.39112 0.0
C283 C 0.70011 0.23019 0.41564 0.0
C284 C 0.70299 0.31762 0.35176 0.0
C285 C 0.78589 0.36744 0.34616 0.0
C286 C 0.64465 0.29847 0.33265 0.0
C287 C 0.5573 0.23707 0.33624 0.0
C288 C 0.53485 0.15909 0.34518 0.0
C289 C 0.45287 0.10224 0.3493 0.0
C290 C 0.39255 0.12229 0.34431 0.0
C291 C 0.41409 0.19912 0.33509 0.0
C292 C 0.49603 0.2563 0.33099 0.0
C293 C 0.77425 0.4132 0.23424 0.0
C294 C 0.82181 0.49766 0.23145 0.0
C295 C 0.75165 0.37812 0.25776 0.0
C296 C 0.77647 0.42663 0.27909 0.0
C297 C 0.8227 0.51133 0.27642 0.0
C298 C 0.84443 0.54665 0.2527 0.0
C299 C 0.75336 0.388 0.30401 0.0
C300 C 0.67043 0.33589 0.30929 0.0
C301 C 0.81222 0.40083 0.32235 0.0
C302 C 0.9012 0.4433 0.31699 0.0
C303 C 0.95663 0.49936 0.3341 0.0
C304 C 0.04031 0.53208 0.33071 0.0
C305 C 0.07001 0.51145 0.30985 0.0
C306 C 0.01574 0.45702 0.29247 0.0
C307 C 0.93174 0.42216 0.29614 0.0
H308 H 0.13502 0.53778 0.30714 0.0
H309 H 0.32914 0.07826 0.34756 0.0
H310 H 0.46237 0.79561 0.82078 0.0
H311 H 0.46817 0.8537 0.77956 0.0
H312 H 0.39885 0.62283 0.74583 0.0
H313 H 0.39176 0.56448 0.78695 0.0
H314 H 0.52297 0.74647 0.72067 0.0
H315 H 0.26083 0.68488 0.75364 0.0
H316 H 0.16814 0.69157 0.78458 0.0
H317 H 0.28815 0.95003 0.77619 0.0
H318 H 0.3823 0.94494 0.74542 0.0
H319 H 0.40521 0.80205 0.60065 0.0
H320 H 0.40571 0.75269 0.64272 0.0
H321 H 0.45893 0.98405 0.67276 0.0
H322 H 0.45598 0.03257 0.63082 0.0
H323 H 0.34995 0.86725 0.70058 0.0
H324 H 0.60716 0.92822 0.66551 0.0
H325 H 0.70012 0.92147 0.63469 0.0
H326 H 0.59233 0.66561 0.6473 0.0
H327 H 0.49788 0.67062 0.67793 0.0
C328 C 0.4483 0.75743 0.80454 0.0
C329 C 0.42682 0.67573 0.80695 0.0
C330 C 0.45175 0.79061 0.78103 0.0
C331 C 0.43368 0.74249 0.75963 0.0
C332 C 0.41336 0.66113 0.76207 0.0
C333 C 0.40946 0.62792 0.78554 0.0
C334 C 0.43435 0.77609 0.73466 0.0
C335 C 0.48456 0.77216 0.71616 0.0
C336 C 0.38584 0.81151 0.72901 0.0
C337 C 0.32911 0.8146 0.74743 0.0
C338 C 0.26784 0.74319 0.75854 0.0
C339 C 0.21498 0.74668 0.77602 0.0
C340 C 0.2224 0.8212 0.7824 0.0
C341 C 0.28257 0.89237 0.77126 0.0
C342 C 0.33565 0.88921 0.75379 0.0
C343 C 0.41621 0.84195 0.61628 0.0
C344 C 0.43048 0.92099 0.61254 0.0
C345 C 0.41722 0.81403 0.64028 0.0
C346 C 0.43386 0.86515 0.6609 0.0
C347 C 0.44621 0.94356 0.65717 0.0
C348 C 0.44445 0.97121 0.63321 0.0
C349 C 0.43793 0.83685 0.68636 0.0
C350 C 0.38874 0.84195 0.70502 0.0
C351 C 0.48758 0.80262 0.69214 0.0
C352 C 0.54466 0.79962 0.67378 0.0
C353 C 0.60275 0.87038 0.66155 0.0
C354 C 0.65582 0.86689 0.64414 0.0
C355 C 0.65192 0.7931 0.63896 0.0
C356 C 0.59513 0.72268 0.65126 0.0
C357 C 0.54182 0.72582 0.66865 0.0
H358 H 0.69306 0.79054 0.62547 0.0
H359 H 0.1814 0.82378 0.79594 0.0
H360 H 0.69226 0.54192 0.88545 0.0
H361 H 0.74379 0.54177 0.92714 0.0
H362 H 0.50343 0.45641 0.95754 0.0
H363 H 0.45188 0.45736 0.91579 0.0
H364 H 0.61625 0.57643 0.985 0.0
H365 H 0.58208 0.3251 0.95259 0.0
H366 H 0.59922 0.2391 0.92165 0.0
H367 H 0.85928 0.38483 0.92771 0.0
H368 H 0.84334 0.47246 0.95832 0.0
H369 H 0.69812 0.48296 0.1049 0.0
H370 H 0.64247 0.47291 0.0632 0.0
H371 H 0.87899 0.54689 0.03144 0.0
H372 H 0.93408 0.55414 0.07319 0.0
H373 H 0.76699 0.43148 1.00443 0.0
H374 H 0.80043 0.67922 0.03851 0.0
H375 H 0.78299 0.76632 0.06888 0.0
H376 H 0.52366 0.63045 0.05887 0.0
H377 H 0.53945 0.54188 0.02872 0.0
C378 C 0.65042 0.52281 0.90103 0.0
C379 C 0.56824 0.4999 0.89748 0.0
C380 C 0.6798 0.52237 0.92482 0.0
C381 C 0.62726 0.49801 0.94545 0.0
C382 C 0.54504 0.47528 0.9419 0.0
C383 C 0.51569 0.47595 0.91809 0.0
C384 C 0.65867 0.49827 0.97077 0.0
C385 C 0.64802 0.54365 0.9894 0.0
C386 C 0.7021 0.45738 0.9763 0.0
C387 C 0.71164 0.40507 0.95779 0.0
C388 C 0.64288 0.3389 0.94724 0.0
C389 C 0.65234 0.28993 0.92975 0.0
C390 C 0.73028 0.30639 0.92274 0.0
C391 C 0.79893 0.37196 0.9332 0.0
C392 C 0.78974 0.42115 0.95066 0.0
C393 C 0.73805 0.49666 0.089 0.0
C394 C 0.8204 0.51976 0.09222 0.0
C395 C 0.70637 0.49144 0.06517 0.0
C396 C 0.75686 0.51084 0.04414 0.0
C397 C 0.83886 0.53203 0.04735 0.0
C398 C 0.87034 0.53631 0.07119 0.0
C399 C 0.72423 0.5094 0.01885 0.0
C400 C 0.73489 0.46402 1.00016 0.0
C401 C 0.68073 0.55039 1.01327 0.0
C402 C 0.67111 0.60337 0.03155 0.0
C403 C 0.73965 0.66748 0.04296 0.0
C404 C 0.73006 0.71721 0.06011 0.0
C405 C 0.65228 0.70386 0.06585 0.0
C406 C 0.58388 0.64075 0.05445 0.0
C407 C 0.59312 0.59077 0.03732 0.0
H408 H 0.64513 0.74262 0.07908 0.0
H409 H 0.73749 0.2684 0.90921 0.0
H410 H 0.25832 0.73861 0.26706 0.0
H411 H 0.31855 0.80692 0.30625 0.0
H412 H 0.07776 0.72346 0.33624 0.0
H413 H 0.01832 0.66115 0.29642 0.0
H414 H 0.16331 0.86157 0.35224 0.0
H415 H 0.21985 0.63446 0.35027 0.0
H416 H 0.27749 0.55611 0.33116 0.0
H417 H 0.5141 0.76921 0.32964 0.0
H418 H 0.45705 0.84875 0.34836 0.0
H419 H 0.24819 0.87815 0.48214 0.0
H420 H 0.20131 0.83743 0.43922 0.0
H421 H 0.45029 0.96671 0.41343 0.0
H422 H 0.49708 0.00545 0.45608 0.0
H423 H 0.37262 0.81921 0.39419 0.0
H424 H 0.32232 0.04032 0.40213 0.0
H425 H 0.26754 0.12009 0.42196 0.0
H426 H 0.02395 0.92175 0.41313 0.0
H427 H 0.07728 0.8402 0.39363 0.0
C428 C 0.21848 0.7346 0.28213 0.0
C429 C 0.13368 0.69332 0.27892 0.0
C430 C 0.25288 0.77315 0.30466 0.0
C431 C 0.20298 0.76848 0.32476 0.0
C432 C 0.1181 0.7282 0.32123 0.0
C433 C 0.08394 0.69181 0.2985 0.0
C434 C 0.23812 0.8055 0.34941 0.0
C435 C 0.2082 0.85107 0.36149 0.0
C436 C 0.29951 0.79546 0.36131 0.0
C437 C 0.33381 0.74753 0.3503 0.0
C438 C 0.2838 0.66454 0.34558 0.0
C439 C 0.31645 0.61997 0.33489 0.0
C440 C 0.39938 0.65774 0.32909 0.0
C441 C 0.44984 0.74006 0.33408 0.0
C442 C 0.41736 0.78486 0.34473 0.0
C443 C 0.2926 0.8979 0.46725 0.0
C444 C 0.3761 0.94485 0.47237 0.0
C445 C 0.26589 0.87518 0.44275 0.0
C446 C 0.32235 0.89948 0.42307 0.0
C447 C 0.40566 0.94719 0.42826 0.0
C448 C 0.43224 0.9696 0.45265 0.0
C449 C 0.29525 0.87197 0.39723 0.0
C450 C 0.32742 0.82919 0.38489 0.0
C451 C 0.23617 0.88466 0.38514 0.0
C452 C 0.20386 0.93392 0.39658 0.0
C453 C 0.2571 0.01349 0.40457 0.0
C454 C 0.22631 0.05907 0.41572 0.0
C455 C 0.14235 0.02598 0.41879 0.0
C456 C 0.08897 0.94727 0.41072 0.0
C457 C 0.11943 0.90138 0.39959 0.0
H458 H 0.11863 0.06133 0.42738 0.0
H459 H 0.4246 0.62317 0.32081 0.0
H460 H 0.5617 0.56356 0.7419 0.0
H461 H 0.58292 0.52189 0.70083 0.0
H462 H 0.51632 0.28549 0.73005 0.0
H463 H 0.49634 0.32747 0.77128 0.0
H464 H 0.6488 0.34293 0.69982 0.0
H465 H 0.38171 0.31828 0.69667 0.0
H466 H 0.2852 0.36929 0.7008 0.0
H467 H 0.41628 0.54981 0.64502 0.0
H468 H 0.51454 0.50093 0.64091 0.0
H469 H 0.59338 0.13853 0.58548 0.0
H470 H 0.58182 0.1835 0.62697 0.0
H471 H 0.59866 0.40013 0.59515 0.0
H472 H 0.5994 0.34949 0.55353 0.0
H473 H 0.49256 0.35437 0.62741 0.0
H474 H 0.76184 0.38719 0.63037 0.0
H475 H 0.86461 0.344 0.62633 0.0
H476 H 0.73931 0.15937 0.6815 0.0
H477 H 0.63542 0.20103 0.68571 0.0
C478 C 0.55186 0.5028 0.73955 0.0
C479 C 0.52712 0.44853 0.75968 0.0
C480 C 0.56373 0.47899 0.71608 0.0
C481 C 0.55029 0.40024 0.71231 0.0
C482 C 0.52694 0.34647 0.73254 0.0
C483 C 0.51527 0.37036 0.75604 0.0
C484 C 0.55937 0.37344 0.6872 0.0
C485 C 0.61419 0.34467 0.68398 0.0
C486 C 0.51581 0.37783 0.66644 0.0
C487 C 0.45592 0.40638 0.66866 0.0
C488 C 0.39029 0.36922 0.68542 0.0
C489 C 0.33528 0.39778 0.68775 0.0
C490 C 0.3448 0.46296 0.67325 0.0
C491 C 0.40912 0.49948 0.65629 0.0
C492 C 0.46449 0.47138 0.65395 0.0
C493 C 0.59231 0.19458 0.5874 0.0
C494 C 0.59391 0.23887 0.56633 0.0
C495 C 0.58799 0.22157 0.61119 0.0
C496 C 0.59025 0.29603 0.61446 0.0
C497 C 0.596 0.34219 0.5933 0.0
C498 C 0.59711 0.31357 0.56948 0.0
C499 C 0.58311 0.32445 0.63969 0.0
C500 C 0.52809 0.35315 0.64306 0.0
C501 C 0.62762 0.32131 0.66049 0.0
C502 C 0.69063 0.29692 0.65823 0.0
C503 C 0.75609 0.33721 0.64157 0.0
C504 C 0.81454 0.31302 0.63926 0.0
C505 C 0.80842 0.24891 0.65362 0.0
C506 C 0.74399 0.20903 0.67039 0.0
C507 C 0.6854 0.23301 0.67278 0.0
H508 H 0.85367 0.23021 0.65178 0.0
H509 H 0.30221 0.48504 0.6751 0.0
loop_
_geom_bond_atom_site_label_1
_geom_bond_atom_site_label_2
_geom_bond_distance
_geom_bond_site_symmetry_2
_ccdc_geom_bond_type
Tb0 O3 2.453 . S
Tb0 O4 2.596 . S
Tb0 O5 2.374 . S
Tb0 O13 2.343 . S
Tb0 O15 2.353 . S
Tb0 O17 2.427 . S
Tb0 O18 2.513 . S
C1 O5 1.251 . S
C1 O7 1.263 . S
Tb2 O4 2.343 1_655 S
Tb2 O7 2.353 1_655 S
Tb2 O10 2.427 . S
Tb2 O11 2.513 . S
Tb2 O12 2.453 . S
Tb2 O13 2.596 1_655 S
Tb2 O14 2.374 1_655 S
O3 Tb0 2.453 . S
O3 C19 1.245 . S
O4 Tb0 2.596 . S
O4 Tb2 2.343 1_455 S
O4 C19 1.259 . S
O5 Tb0 2.374 . S
O5 C1 1.251 . S
C6 O10 1.275 . S
C6 O11 1.246 . S
O7 C1 1.263 . S
O7 Tb2 2.353 1_455 S
C8 O12 1.245 . S
C8 O13 1.259 1_655 S
C9 O14 1.250 . S
C9 O15 1.263 . S
O10 Tb2 2.427 . S
O10 C6 1.275 . S
O11 Tb2 2.513 . S
O11 C6 1.246 . S
O12 Tb2 2.453 . S
O12 C8 1.245 . S
O13 Tb0 2.343 . S
O13 Tb2 2.596 1_455 S
O13 C8 1.259 1_455 S
O14 Tb2 2.374 1_455 S
O14 C9 1.250 . S
O15 Tb0 2.353 . S
O15 C9 1.263 . S
C16 O17 1.275 . S
C16 O18 1.246 . S
O17 Tb0 2.427 . S
O17 C16 1.275 . S
O18 Tb0 2.513 . S
O18 C16 1.246 . S
C19 O3 1.245 . S
C19 O4 1.259 . S
Tb20 O23 2.453 . S
Tb20 O24 2.596 . S
Tb20 O25 2.374 . S
Tb20 O33 2.343 1_565 S
Tb20 O35 2.353 . S
Tb20 O37 2.427 . S
Tb20 O38 2.513 . S
C21 O25 1.251 . S
C21 O27 1.263 1_565 S
Tb22 O24 2.343 1_545 S
Tb22 O27 2.353 . S
Tb22 O30 2.427 . S
Tb22 O31 2.513 . S
Tb22 O32 2.453 . S
Tb22 O33 2.596 . S
Tb22 O34 2.374 . S
O23 Tb20 2.453 . S
O23 C39 1.245 . S
O24 Tb20 2.596 . S
O24 Tb22 2.343 1_565 S
O24 C39 1.259 . S
O25 Tb20 2.374 . S
O25 C21 1.251 . S
C26 O30 1.275 . S
C26 O31 1.246 . S
O27 C21 1.263 1_545 S
O27 Tb22 2.353 . S
C28 O32 1.245 . S
C28 O33 1.259 . S
C29 O34 1.250 . S
C29 O35 1.263 1_545 S
O30 Tb22 2.427 . S
O30 C26 1.275 . S
O31 Tb22 2.513 . S
O31 C26 1.246 . S
O32 Tb22 2.453 . S
O32 C28 1.245 . S
O33 Tb20 2.343 1_545 S
O33 Tb22 2.596 . S
O33 C28 1.259 . S
O34 Tb22 2.374 . S
O34 C29 1.250 . S
O35 Tb20 2.353 . S
O35 C29 1.263 1_565 S
C36 O37 1.275 . S
C36 O38 1.246 . S
O37 Tb20 2.427 . S
O37 C36 1.275 . S
O38 Tb20 2.513 . S
O38 C36 1.246 . S
C39 O23 1.245 . S
C39 O24 1.259 . S
Tb40 O43 2.453 . S
Tb40 O44 2.596 . S
Tb40 O45 2.374 . S
Tb40 O53 2.343 . S
Tb40 O55 2.353 . S
Tb40 O57 2.427 . S
Tb40 O58 2.513 . S
C41 O45 1.251 . S
C41 O47 1.263 . S
Tb42 O44 2.343 . S
Tb42 O47 2.353 . S
Tb42 O50 2.427 . S
Tb42 O51 2.513 . S
Tb42 O52 2.453 . S
Tb42 O53 2.596 . S
Tb42 O54 2.374 . S
O43 Tb40 2.453 . S
O43 C59 1.245 . S
O44 Tb40 2.596 . S
O44 Tb42 2.343 . S
O44 C59 1.259 . S
O45 Tb40 2.374 . S
O45 C41 1.251 . S
C46 O50 1.275 . S
C46 O51 1.246 . S
O47 C41 1.263 . S
O47 Tb42 2.353 . S
C48 O52 1.245 . S
C48 O53 1.259 . S
C49 O54 1.250 . S
C49 O55 1.263 . S
O50 Tb42 2.427 . S
O50 C46 1.275 . S
O51 Tb42 2.513 . S
O51 C46 1.246 . S
O52 Tb42 2.453 . S
O52 C48 1.245 . S
O53 Tb40 2.343 . S
O53 Tb42 2.596 . S
O53 C48 1.259 . S
O54 Tb42 2.374 . S
O54 C49 1.250 . S
O55 Tb40 2.353 . S
O55 C49 1.263 . S
C56 O57 1.275 . S
C56 O58 1.246 . S
O57 Tb40 2.427 . S
O57 C56 1.275 . S
O58 Tb40 2.513 . S
O58 C56 1.246 . S
C59 O43 1.245 . S
C59 O44 1.259 . S
H60 C78 0.951 . S
H61 C80 0.951 1_545 S
H62 C82 0.950 1_655 S
H63 C83 0.950 1_655 S
H64 C85 0.950 . S
H65 C88 0.950 1_565 S
H66 C89 0.950 . S
H67 C91 0.950 . S
H68 C92 0.950 . S
H69 C93 0.951 1_655 S
H70 C95 0.951 1_655 S
H71 C97 0.950 . S
H72 C98 0.950 . S
H73 C100 0.950 . S
H74 C103 0.950 . S
H75 C104 0.950 . S
H76 C106 0.950 . S
H77 C107 0.950 . S
C78 H60 0.951 . S
C78 C79 1.366 . S
C78 C80 1.388 . S
C79 C78 1.366 . S
C79 C83 1.385 . S
C80 H61 0.951 1_565 S
C80 C78 1.388 . S
C80 C81 1.366 . S
C81 C80 1.366 . S
C81 C82 1.414 . S
C81 C84 1.499 1_565 S
C82 H62 0.950 1_455 S
C82 C81 1.414 . S
C82 C83 1.374 . S
C83 H63 0.950 1_455 S
C83 C79 1.385 . S
C83 C82 1.374 . S
C84 C81 1.499 1_545 S
C84 C85 1.373 . S
C84 C86 1.389 . S
C85 H64 0.950 . S
C85 C84 1.373 . S
C85 C101 1.377 . S
C86 C84 1.389 . S
C86 C87 1.524 . S
C86 C100 1.377 . S
C87 C86 1.524 . S
C87 C88 1.397 . S
C87 C92 1.363 . S
C88 H65 0.950 1_545 S
C88 C87 1.397 . S
C88 C89 1.334 1_545 S
C89 H66 0.950 . S
C89 C88 1.334 1_565 S
C89 C90 1.287 1_565 S
C90 C89 1.287 1_545 S
C90 C91 1.524 . S
C90 H109 0.913 . S
C91 H67 0.950 . S
C91 C90 1.524 . S
C91 C92 1.415 . S
C92 H68 0.950 . S
C92 C87 1.363 . S
C92 C91 1.415 . S
C93 H69 0.951 1_455 S
C93 C94 1.366 . S
C93 C95 1.388 . S
C94 C93 1.366 . S
C94 C98 1.385 . S
C95 H70 0.951 1_455 S
C95 C93 1.388 . S
C95 C96 1.366 . S
C96 C95 1.366 . S
C96 C97 1.414 . S
C96 C99 1.499 . S
C97 H71 0.950 . S
C97 C96 1.414 . S
C97 C98 1.374 . S
C98 H72 0.950 . S
C98 C94 1.385 . S
C98 C97 1.374 . S
C99 C96 1.499 . S
C99 C100 1.373 . S
C99 C101 1.389 . S
C100 H73 0.950 . S
C100 C86 1.377 . S
C100 C99 1.373 . S
C101 C85 1.377 . S
C101 C99 1.389 . S
C101 C102 1.524 . S
C102 C101 1.524 . S
C102 C103 1.397 . S
C102 C107 1.363 1_455 S
C103 H74 0.950 . S
C103 C102 1.397 . S
C103 C104 1.334 . S
C104 H75 0.950 . S
C104 C103 1.334 . S
C104 C105 1.287 1_455 S
C105 C104 1.287 1_655 S
C105 C106 1.524 . S
C105 H108 0.999 . S
C106 H76 0.950 . S
C106 C105 1.524 . S
C106 C107 1.415 . S
C107 H77 0.950 . S
C107 C102 1.363 1_655 S
C107 C106 1.415 . S
H108 C105 0.999 . S
H109 C90 0.913 . S
H110 C128 0.951 . S
H111 C130 0.951 . S
H112 C132 0.950 . S
H113 C133 0.950 . S
H114 C135 0.950 . S
H115 C138 0.950 . S
H116 C139 0.950 . S
H117 C141 0.950 . S
H118 C142 0.950 1_655 S
H119 C143 0.951 . S
H120 C145 0.951 . S
H121 C147 0.950 . S
H122 C148 0.950 . S
H123 C150 0.950 . S
H124 C153 0.950 . S
H125 C154 0.950 . S
H126 C156 0.950 . S
H127 C157 0.950 . S
C128 H110 0.951 . S
C128 C129 1.366 1_565 S
C128 C130 1.388 . S
C129 C128 1.366 1_545 S
C129 C133 1.385 . S
C130 H111 0.951 . S
C130 C128 1.388 . S
C130 C131 1.366 1_565 S
C131 C130 1.366 1_545 S
C131 C132 1.414 . S
C131 C134 1.499 . S
C132 H112 0.950 . S
C132 C131 1.414 . S
C132 C133 1.374 . S
C133 H113 0.950 . S
C133 C129 1.385 . S
C133 C132 1.374 . S
C134 C131 1.499 . S
C134 C135 1.373 1_445 S
C134 C136 1.389 . S
C135 H114 0.950 . S
C135 C134 1.373 1_665 S
C135 C151 1.377 . S
C136 C134 1.389 . S
C136 C137 1.524 . S
C136 C150 1.377 1_455 S
C137 C136 1.524 . S
C137 C138 1.397 . S
C137 C142 1.363 . S
C138 H115 0.950 . S
C138 C137 1.397 . S
C138 C139 1.334 . S
C139 H116 0.950 . S
C139 C138 1.334 . S
C139 C140 1.287 . S
C140 C139 1.287 . S
C140 C141 1.524 . S
C140 H159 0.913 . S
C141 H117 0.950 . S
C141 C140 1.524 . S
C141 C142 1.415 . S
C142 H118 0.950 1_455 S
C142 C137 1.363 . S
C142 C141 1.415 . S
C143 H119 0.951 . S
C143 C144 1.366 1_545 S
C143 C145 1.388 . S
C144 C143 1.366 1_565 S
C144 C148 1.385 . S
C145 H120 0.951 . S
C145 C143 1.388 . S
C145 C146 1.366 1_545 S
C146 C145 1.366 1_565 S
C146 C147 1.414 . S
C146 C149 1.499 . S
C147 H121 0.950 . S
C147 C146 1.414 . S
C147 C148 1.374 . S
C148 H122 0.950 . S
C148 C144 1.385 . S
C148 C147 1.374 . S
C149 C146 1.499 . S
C149 C150 1.373 1_565 S
C149 C151 1.389 . S
C150 H123 0.950 . S
C150 C136 1.377 1_655 S
C150 C149 1.373 1_545 S
C151 C135 1.377 . S
C151 C149 1.389 . S
C151 C152 1.524 . S
C152 C151 1.524 . S
C152 C153 1.397 . S
C152 C157 1.363 . S
C153 H124 0.950 . S
C153 C152 1.397 . S
C153 C154 1.334 . S
C154 H125 0.950 . S
C154 C153 1.334 . S
C154 C155 1.287 . S
C155 C154 1.287 . S
C155 C156 1.524 . S
C155 H158 0.999 . S
C156 H126 0.950 . S
C156 C155 1.524 . S
C156 C157 1.415 . S
C157 H127 0.950 . S
C157 C152 1.363 . S
C157 C156 1.415 . S
H158 C155 0.999 . S
H159 C140 0.913 . S
H160 C178 0.951 . S
H161 C180 0.951 1_545 S
H162 C182 0.950 . S
H163 C183 0.950 . S
H164 C185 0.950 . S
H165 C188 0.950 . S
H166 C189 0.950 1_565 S
H167 C191 0.950 . S
H168 C192 0.950 . S
H169 C193 0.951 . S
H170 C195 0.951 . S
H171 C197 0.950 . S
H172 C198 0.950 . S
H173 C200 0.950 . S
H174 C203 0.950 . S
H175 C204 0.950 . S
H176 C206 0.950 . S
H177 C207 0.950 . S
C178 H160 0.951 . S
C178 C179 1.366 . S
C178 C180 1.388 . S
C179 C178 1.366 . S
C179 C183 1.385 . S
C180 H161 0.951 1_565 S
C180 C178 1.388 . S
C180 C181 1.366 . S
C181 C180 1.366 . S
C181 C182 1.414 . S
C181 C184 1.499 1_565 S
C182 H162 0.950 . S
C182 C181 1.414 . S
C182 C183 1.374 . S
C183 H163 0.950 . S
C183 C179 1.385 . S
C183 C182 1.374 . S
C184 C181 1.499 1_545 S
C184 C185 1.373 . S
C184 C186 1.389 . S
C185 H164 0.950 . S
C185 C184 1.373 . S
C185 C201 1.377 1_655 S
C186 C184 1.389 . S
C186 C187 1.524 . S
C186 C200 1.377 . S
C187 C186 1.524 . S
C187 C188 1.397 . S
C187 C192 1.363 . S
C188 H165 0.950 . S
C188 C187 1.397 . S
C188 C189 1.334 . S
C189 H166 0.950 1_545 S
C189 C188 1.334 . S
C189 C190 1.287 . S
C190 C189 1.287 . S
C190 C191 1.524 . S
C190 H209 0.913 . S
C191 H167 0.950 . S
C191 C190 1.524 . S
C191 C192 1.415 . S
C192 H168 0.950 . S
C192 C187 1.363 . S
C192 C191 1.415 . S
C193 H169 0.951 . S
C193 C194 1.366 . S
C193 C195 1.388 . S
C194 C193 1.366 . S
C194 C198 1.385 . S
C195 H170 0.951 . S
C195 C193 1.388 . S
C195 C196 1.366 . S
C196 C195 1.366 . S
C196 C197 1.414 . S
C196 C199 1.499 . S
C197 H171 0.950 . S
C197 C196 1.414 . S
C197 C198 1.374 . S
C198 H172 0.950 . S
C198 C194 1.385 . S
C198 C197 1.374 . S
C199 C196 1.499 . S
C199 C200 1.373 1_455 S
C199 C201 1.389 . S
C200 H173 0.950 . S
C200 C186 1.377 . S
C200 C199 1.373 1_655 S
C201 C185 1.377 1_455 S
C201 C199 1.389 . S
C201 C202 1.524 . S
C202 C201 1.524 . S
C202 C203 1.397 . S
C202 C207 1.363 . S
C203 H174 0.950 . S
C203 C202 1.397 . S
C203 C204 1.334 . S
C204 H175 0.950 . S
C204 C203 1.334 . S
C204 C205 1.287 . S
C205 C204 1.287 . S
C205 C206 1.524 . S
C205 H208 0.999 . S
C206 H176 0.950 . S
C206 C205 1.524 . S
C206 C207 1.415 . S
C207 H177 0.950 . S
C207 C202 1.363 . S
C207 C206 1.415 . S
H208 C205 0.999 . S
H209 C190 0.913 . S
H210 C228 0.951 . S
H211 C230 0.951 . S
H212 C232 0.950 . S
H213 C233 0.950 . S
H214 C235 0.950 . S
H215 C238 0.950 . S
H216 C239 0.950 . S
H217 C241 0.950 1_655 S
H218 C242 0.950 . S
H219 C243 0.951 . S
H220 C245 0.951 . S
H221 C247 0.950 . S
H222 C248 0.950 . S
H223 C250 0.950 . S
H224 C253 0.950 . S
H225 C254 0.950 . S
H226 C256 0.950 . S
H227 C257 0.950 . S
C228 H210 0.951 . S
C228 C229 1.366 . S
C228 C230 1.388 . S
C229 C228 1.366 . S
C229 C233 1.385 . S
C230 H211 0.951 . S
C230 C228 1.388 . S
C230 C231 1.366 . S
C231 C230 1.366 . S
C231 C232 1.414 . S
C231 C234 1.499 . S
C232 H212 0.950 . S
C232 C231 1.414 . S
C232 C233 1.374 . S
C233 H213 0.950 . S
C233 C229 1.385 . S
C233 C232 1.374 . S
C234 C231 1.499 . S
C234 C235 1.373 1_556 S
C234 C236 1.389 . S
C235 H214 0.950 . S
C235 C234 1.373 1_554 S
C235 C251 1.377 . S
C236 C234 1.389 . S
C236 C237 1.524 . S
C236 C250 1.377 1_556 S
C237 C236 1.524 . S
C237 C238 1.397 . S
C237 C242 1.363 . S
C238 H215 0.950 . S
C238 C237 1.397 . S
C238 C239 1.334 . S
C239 H216 0.950 . S
C239 C238 1.334 . S
C239 C240 1.287 . S
C240 C239 1.287 . S
C240 C241 1.524 . S
C240 H259 0.913 1_455 S
C241 H217 0.950 1_455 S
C241 C240 1.524 . S
C241 C242 1.415 . S
C242 H218 0.950 . S
C242 C237 1.363 . S
C242 C241 1.415 . S
C243 H219 0.951 . S
C243 C244 1.366 . S
C243 C245 1.388 . S
C244 C243 1.366 . S
C244 C248 1.385 . S
C245 H220 0.951 . S
C245 C243 1.388 . S
C245 C246 1.366 . S
C246 C245 1.366 . S
C246 C247 1.414 . S
C246 C249 1.499 . S
C247 H221 0.950 . S
C247 C246 1.414 . S
C247 C248 1.374 . S
C248 H222 0.950 . S
C248 C244 1.385 . S
C248 C247 1.374 . S
C249 C246 1.499 . S
C249 C250 1.373 . S
C249 C251 1.389 . S
C250 H223 0.950 . S
C250 C236 1.377 1_554 S
C250 C249 1.373 . S
C251 C235 1.377 . S
C251 C249 1.389 . S
C251 C252 1.524 . S
C252 C251 1.524 . S
C252 C253 1.397 . S
C252 C257 1.363 . S
C253 H224 0.950 . S
C253 C252 1.397 . S
C253 C254 1.334 . S
C254 H225 0.950 . S
C254 C253 1.334 . S
C254 C255 1.287 . S
C255 C254 1.287 . S
C255 C256 1.524 . S
C255 H258 0.999 . S
C256 H226 0.950 . S
C256 C255 1.524 . S
C256 C257 1.415 . S
C257 H227 0.950 . S
C257 C252 1.363 . S
C257 C256 1.415 . S
H258 C255 0.999 . S
H259 C240 0.913 1_655 S
H260 C278 0.951 . S
H261 C280 0.951 . S
H262 C282 0.950 . S
H263 C283 0.950 . S
H264 C285 0.950 . S
H265 C288 0.950 . S
H266 C289 0.950 . S
H267 C291 0.950 . S
H268 C292 0.950 . S
H269 C293 0.951 . S
H270 C295 0.951 . S
H271 C297 0.950 . S
H272 C298 0.950 . S
H273 C300 0.950 . S
H274 C303 0.950 . S
H275 C304 0.950 . S
H276 C306 0.950 . S
H277 C307 0.950 . S
C278 H260 0.951 . S
C278 C279 1.366 . S
C278 C280 1.388 . S
C279 C278 1.366 . S
C279 C283 1.385 . S
C280 H261 0.951 . S
C280 C278 1.388 . S
C280 C281 1.366 . S
C281 C280 1.366 . S
C281 C282 1.414 . S
C281 C284 1.499 . S
C282 H262 0.950 . S
C282 C281 1.414 . S
C282 C283 1.374 . S
C283 H263 0.950 . S
C283 C279 1.385 . S
C283 C282 1.374 . S
C284 C281 1.499 . S
C284 C285 1.373 . S
C284 C286 1.389 . S
C285 H264 0.950 . S
C285 C284 1.373 . S
C285 C301 1.377 . S
C286 C284 1.389 . S
C286 C287 1.524 . S
C286 C300 1.377 . S
C287 C286 1.524 . S
C287 C288 1.397 . S
C287 C292 1.363 . S
C288 H265 0.950 . S
C288 C287 1.397 . S
C288 C289 1.334 . S
C289 H266 0.950 . S
C289 C288 1.334 . S
C289 C290 1.287 . S
C290 C289 1.287 . S
C290 C291 1.524 . S
C290 H309 0.913 . S
C291 H267 0.950 . S
C291 C290 1.524 . S
C291 C292 1.415 . S
C292 H268 0.950 . S
C292 C287 1.363 . S
C292 C291 1.415 . S
C293 H269 0.951 . S
C293 C294 1.366 . S
C293 C295 1.388 . S
C294 C293 1.366 . S
C294 C298 1.385 . S
C295 H270 0.951 . S
C295 C293 1.388 . S
C295 C296 1.366 . S
C296 C295 1.366 . S
C296 C297 1.414 . S
C296 C299 1.499 . S
C297 H271 0.950 . S
C297 C296 1.414 . S
C297 C298 1.374 . S
C298 H272 0.950 . S
C298 C294 1.385 . S
C298 C297 1.374 . S
C299 C296 1.499 . S
C299 C300 1.373 . S
C299 C301 1.389 . S
C300 H273 0.950 . S
C300 C286 1.377 . S
C300 C299 1.373 . S
C301 C285 1.377 . S
C301 C299 1.389 . S
C301 C302 1.524 . S
C302 C301 1.524 . S
C302 C303 1.397 . S
C302 C307 1.363 . S
C303 H274 0.950 . S
C303 C302 1.397 . S
C303 C304 1.334 1_655 S
C304 H275 0.950 . S
C304 C303 1.334 1_455 S
C304 C305 1.287 . S
C305 C304 1.287 . S
C305 C306 1.524 . S
C305 H308 0.999 . S
C306 H276 0.950 . S
C306 C305 1.524 . S
C306 C307 1.415 1_455 S
C307 H277 0.950 . S
C307 C302 1.363 . S
C307 C306 1.415 1_655 S
H308 C305 0.999 . S
H309 C290 0.913 . S
H310 C328 0.951 . S
H311 C330 0.951 . S
H312 C332 0.950 . S
H313 C333 0.950 . S
H314 C335 0.950 . S
H315 C338 0.950 . S
H316 C339 0.950 . S
H317 C341 0.950 . S
H318 C342 0.950 . S
H319 C343 0.951 . S
H320 C345 0.951 . S
H321 C347 0.950 . S
H322 C348 0.950 . S
H323 C350 0.950 . S
H324 C353 0.950 . S
H325 C354 0.950 . S
H326 C356 0.950 . S
H327 C357 0.950 . S
C328 H310 0.951 . S
C328 C329 1.366 . S
C328 C330 1.388 . S
C329 C328 1.366 . S
C329 C333 1.385 . S
C330 H311 0.951 . S
C330 C328 1.388 . S
C330 C331 1.366 . S
C331 C330 1.366 . S
C331 C332 1.414 . S
C331 C334 1.499 . S
C332 H312 0.950 . S
C332 C331 1.414 . S
C332 C333 1.374 . S
C333 H313 0.950 . S
C333 C329 1.385 . S
C333 C332 1.374 . S
C334 C331 1.499 . S
C334 C335 1.373 . S
C334 C336 1.389 . S
C335 H314 0.950 . S
C335 C334 1.373 . S
C335 C351 1.377 . S
C336 C334 1.389 . S
C336 C337 1.524 . S
C336 C350 1.377 . S
C337 C336 1.524 . S
C337 C338 1.397 . S
C337 C342 1.363 . S
C338 H315 0.950 . S
C338 C337 1.397 . S
C338 C339 1.334 . S
C339 H316 0.950 . S
C339 C338 1.334 . S
C339 C340 1.287 . S
C340 C339 1.287 . S
C340 C341 1.524 . S
C340 H359 0.913 . S
C341 H317 0.950 . S
C341 C340 1.524 . S
C341 C342 1.415 . S
C342 H318 0.950 . S
C342 C337 1.363 . S
C342 C341 1.415 . S
C343 H319 0.951 . S
C343 C344 1.366 . S
C343 C345 1.388 . S
C344 C343 1.366 . S
C344 C348 1.385 . S
C345 H320 0.951 . S
C345 C343 1.388 . S
C345 C346 1.366 . S
C346 C345 1.366 . S
C346 C347 1.414 . S
C346 C349 1.499 . S
C347 H321 0.950 . S
C347 C346 1.414 . S
C347 C348 1.374 . S
C348 H322 0.950 . S
C348 C344 1.385 . S
C348 C347 1.374 . S
C349 C346 1.499 . S
C349 C350 1.373 . S
C349 C351 1.389 . S
C350 H323 0.950 . S
C350 C336 1.377 . S
C350 C349 1.373 . S
C351 C335 1.377 . S
C351 C349 1.389 . S
C351 C352 1.524 . S
C352 C351 1.524 . S
C352 C353 1.397 . S
C352 C357 1.363 . S
C353 H324 0.950 . S
C353 C352 1.397 . S
C353 C354 1.334 . S
C354 H325 0.950 . S
C354 C353 1.334 . S
C354 C355 1.287 . S
C355 C354 1.287 . S
C355 C356 1.524 . S
C355 H358 0.999 . S
C356 H326 0.950 . S
C356 C355 1.524 . S
C356 C357 1.415 . S
C357 H327 0.950 . S
C357 C352 1.363 . S
C357 C356 1.415 . S
H358 C355 0.999 . S
H359 C340 0.913 . S
H360 C378 0.951 . S
H361 C380 0.951 . S
H362 C382 0.950 . S
H363 C383 0.950 . S
H364 C385 0.950 . S
H365 C388 0.950 . S
H366 C389 0.950 . S
H367 C391 0.950 . S
H368 C392 0.950 . S
H369 C393 0.951 . S
H370 C395 0.951 . S
H371 C397 0.950 . S
H372 C398 0.946 1_455 S
H373 C400 0.950 . S
H374 C403 0.950 . S
H375 C404 0.950 . S
H376 C406 0.950 . S
H377 C407 0.950 . S
C378 H360 0.951 . S
C378 C379 1.366 . S
C378 C380 1.388 . S
C379 C378 1.366 . S
C379 C383 1.385 . S
C380 H361 0.951 . S
C380 C378 1.388 . S
C380 C381 1.366 . S
C381 C380 1.366 . S
C381 C382 1.414 . S
C381 C384 1.499 . S
C382 H362 0.950 . S
C382 C381 1.414 . S
C382 C383 1.374 . S
C383 H363 0.950 . S
C383 C379 1.385 . S
C383 C382 1.374 . S
C384 C381 1.499 . S
C384 C385 1.373 . S
C384 C386 1.389 . S
C385 H364 0.950 . S
C385 C384 1.373 . S
C385 C401 1.377 1_556 S
C386 C384 1.389 . S
C386 C387 1.524 . S
C386 C400 1.377 . S
C387 C386 1.524 . S
C387 C388 1.397 . S
C387 C392 1.363 . S
C388 H365 0.950 . S
C388 C387 1.397 . S
C388 C389 1.334 . S
C389 H366 0.950 . S
C389 C388 1.334 . S
C389 C390 1.287 . S
C390 C389 1.287 . S
C390 C391 1.524 . S
C390 H409 0.913 . S
C391 H367 0.950 . S
C391 C390 1.524 . S
C391 C392 1.415 . S
C392 H368 0.950 . S
C392 C387 1.363 . S
C392 C391 1.415 . S
C393 H369 0.951 . S
C393 C394 1.366 . S
C393 C395 1.388 . S
C394 C393 1.366 . S
C394 C398 1.385 . S
C395 H370 0.951 . S
C395 C393 1.388 . S
C395 C396 1.366 . S
C396 C395 1.366 . S
C396 C397 1.414 . S
C396 C399 1.499 . S
C397 H371 0.950 . S
C397 C396 1.414 . S
C397 C398 1.374 . S
C398 H372 0.946 1_655 S
C398 C394 1.385 . S
C398 C397 1.374 . S
C399 C396 1.499 . S
C399 C400 1.373 1_554 S
C399 C401 1.389 . S
C400 H373 0.950 . S
C400 C386 1.377 . S
C400 C399 1.373 1_556 S
C401 C385 1.377 1_554 S
C401 C399 1.389 . S
C401 C402 1.524 . S
C402 C401 1.524 . S
C402 C403 1.397 . S
C402 C407 1.363 . S
C403 H374 0.950 . S
C403 C402 1.397 . S
C403 C404 1.334 . S
C404 H375 0.950 . S
C404 C403 1.334 . S
C404 C405 1.287 . S
C405 C404 1.287 . S
C405 C406 1.524 . S
C405 H408 0.999 . S
C406 H376 0.950 . S
C406 C405 1.524 . S
C406 C407 1.415 . S
C407 H377 0.950 . S
C407 C402 1.363 . S
C407 C406 1.415 . S
H408 C405 0.999 . S
H409 C390 0.913 . S
H410 C428 0.951 . S
H411 C430 0.951 . S
H412 C432 0.950 . S
H413 C433 0.950 . S
H414 C435 0.950 . S
H415 C438 0.950 . S
H416 C439 0.950 . S
H417 C441 0.950 . S
H418 C442 0.950 . S
H419 C443 0.951 . S
H420 C445 0.951 . S
H421 C447 0.950 . S
H422 C448 0.950 1_545 S
H423 C450 0.950 . S
H424 C453 0.950 . S
H425 C454 0.950 . S
H426 C456 0.950 . S
H427 C457 0.950 . S
C428 H410 0.951 . S
C428 C429 1.366 . S
C428 C430 1.388 . S
C429 C428 1.366 . S
C429 C433 1.385 . S
C430 H411 0.951 . S
C430 C428 1.388 . S
C430 C431 1.366 . S
C431 C430 1.366 . S
C431 C432 1.414 . S
C431 C434 1.499 . S
C432 H412 0.950 . S
C432 C431 1.414 . S
C432 C433 1.374 . S
C433 H413 0.950 . S
C433 C429 1.385 . S
C433 C432 1.374 . S
C434 C431 1.499 . S
C434 C435 1.373 . S
C434 C436 1.389 . S
C435 H414 0.950 . S
C435 C434 1.373 . S
C435 C451 1.377 . S
C436 C434 1.389 . S
C436 C437 1.524 . S
C436 C450 1.377 . S
C437 C436 1.524 . S
C437 C438 1.397 . S
C437 C442 1.363 . S
C438 H415 0.950 . S
C438 C437 1.397 . S
C438 C439 1.334 . S
C439 H416 0.950 . S
C439 C438 1.334 . S
C439 C440 1.287 . S
C440 C439 1.287 . S
C440 C441 1.524 . S
C440 H459 0.913 . S
C441 H417 0.950 . S
C441 C440 1.524 . S
C441 C442 1.415 . S
C442 H418 0.950 . S
C442 C437 1.363 . S
C442 C441 1.415 . S
C443 H419 0.951 . S
C443 C444 1.366 . S
C443 C445 1.388 . S
C444 C443 1.366 . S
C444 C448 1.385 . S
C445 H420 0.951 . S
C445 C443 1.388 . S
C445 C446 1.366 . S
C446 C445 1.366 . S
C446 C447 1.414 . S
C446 C449 1.499 . S
C447 H421 0.950 . S
C447 C446 1.414 . S
C447 C448 1.374 . S
C448 H422 0.950 1_565 S
C448 C444 1.385 . S
C448 C447 1.374 . S
C449 C446 1.499 . S
C449 C450 1.373 . S
C449 C451 1.389 . S
C450 H423 0.950 . S
C450 C436 1.377 . S
C450 C449 1.373 . S
C451 C435 1.377 . S
C451 C449 1.389 . S
C451 C452 1.524 . S
C452 C451 1.524 . S
C452 C453 1.397 . S
C452 C457 1.363 . S
C453 H424 0.950 . S
C453 C452 1.397 . S
C453 C454 1.334 . S
C454 H425 0.950 . S
C454 C453 1.334 . S
C454 C455 1.287 . S
C455 C454 1.287 . S
C455 C456 1.524 . S
C455 H458 0.999 . S
C456 H426 0.950 . S
C456 C455 1.524 . S
C456 C457 1.415 . S
C457 H427 0.950 . S
C457 C452 1.363 . S
C457 C456 1.415 . S
H458 C455 0.999 . S
H459 C440 0.913 . S
H460 C478 0.951 . S
H461 C480 0.951 . S
H462 C482 0.950 . S
H463 C483 0.950 . S
H464 C485 0.950 . S
H465 C488 0.950 . S
H466 C489 0.950 . S
H467 C491 0.950 . S
H468 C492 0.950 . S
H469 C493 0.951 . S
H470 C495 0.951 . S
H471 C497 0.950 . S
H472 C498 0.950 . S
H473 C500 0.950 . S
H474 C503 0.950 . S
H475 C504 0.950 . S
H476 C506 0.950 . S
H477 C507 0.950 . S
C478 H460 0.951 . S
C478 C479 1.366 . S
C478 C480 1.388 . S
C479 C478 1.366 . S
C479 C483 1.385 . S
C480 H461 0.951 . S
C480 C478 1.388 . S
C480 C481 1.366 . S
C481 C480 1.366 . S
C481 C482 1.414 . S
C481 C484 1.499 . S
C482 H462 0.950 . S
C482 C481 1.414 . S
C482 C483 1.374 . S
C483 H463 0.950 . S
C483 C479 1.385 . S
C483 C482 1.374 . S
C484 C481 1.499 . S
C484 C485 1.373 . S
C484 C486 1.389 . S
C485 H464 0.950 . S
C485 C484 1.373 . S
C485 C501 1.377 . S
C486 C484 1.389 . S
C486 C487 1.524 . S
C486 C500 1.377 . S
C487 C486 1.524 . S
C487 C488 1.397 . S
C487 C492 1.363 . S
C488 H465 0.950 . S
C488 C487 1.397 . S
C488 C489 1.334 . S
C489 H466 0.950 . S
C489 C488 1.334 . S
C489 C490 1.287 . S
C490 C489 1.287 . S
C490 C491 1.524 . S
C490 H509 0.913 . S
C491 H467 0.950 . S
C491 C490 1.524 . S
C491 C492 1.415 . S
C492 H468 0.950 . S
C492 C487 1.363 . S
C492 C491 1.415 . S
C493 H469 0.951 . S
C493 C494 1.366 . S
C493 C495 1.388 . S
C494 C493 1.366 . S
C494 C498 1.385 . S
C495 H470 0.951 . S
C495 C493 1.388 . S
C495 C496 1.366 . S
C496 C495 1.366 . S
C496 C497 1.414 . S
C496 C499 1.499 . S
C497 H471 0.950 . S
C497 C496 1.414 . S
C497 C498 1.374 . S
C498 H472 0.950 . S
C498 C494 1.385 . S
C498 C497 1.374 . S
C499 C496 1.499 . S
C499 C500 1.373 . S
C499 C501 1.389 . S
C500 H473 0.950 . S
C500 C486 1.377 . S
C500 C499 1.373 . S
C501 C485 1.377 . S
C501 C499 1.389 . S
C501 C502 1.524 . S
C502 C501 1.524 . S
C502 C503 1.397 . S
C502 C507 1.363 . S
C503 H474 0.950 . S
C503 C502 1.397 . S
C503 C504 1.334 . S
C504 H475 0.950 . S
C504 C503 1.334 . S
C504 C505 1.287 . S
C505 C504 1.287 . S
C505 C506 1.524 . S
C505 H508 0.999 . S
C506 H476 0.950 . S
C506 C505 1.524 . S
C506 C507 1.415 . S
C507 H477 0.950 . S
C507 C502 1.363 . S
C507 C506 1.415 . S
H508 C505 0.999 . S
H509 C490 0.913 . S
C79 C1 0.916 . S
C94 C9 0.916 . S
C129 C29 0.916 . S
C144 C21 0.916 . S
C179 C49 0.916 . S
C194 C41 0.916 . S
C229 C56 1.105 . S
C244 C19 1.073 . S
C279 C26 2.054 . S
C294 C8 2.015 . S
C329 C59 1.072 . S
C344 C36 1.105 . S
C379 C48 2.016 . S
C394 C6 2.054 . S
C429 C16 1.104 . S
C444 C39 1.073 . S
C479 C46 2.054 . S
C494 C28 2.015 . S
