# Generated by pormake.
# Topology sxt, (3)-cn, num edge types: 1
# Building blocks:
#     Node 0, Type 0, BuildingBlock: OLANEW_clean_sbu_2, # of connection points: 3
#     Node 1, Type 0, BuildingBlock: OLANEW_clean_sbu_2, # of connection points: 3
#     Node 2, Type 0, BuildingBlock: OLANEW_clean_sbu_2, # of connection points: 3
#     Node 3, Type 0, BuildingBlock: OLANEW_clean_sbu_2, # of connection points: 3
#     Node 4, Type 0, BuildingBlock: OLANEW_clean_sbu_2, # of connection points: 3
#     Node 5, Type 0, BuildingBlock: OLANEW_clean_sbu_2, # of connection points: 3
#     Node 6, Type 0, BuildingBlock: OLANEW_clean_sbu_2, # of connection points: 3
#     Node 7, Type 0, BuildingBlock: OLANEW_clean_sbu_2, # of connection points: 3
#     Node 8, Type 0, BuildingBlock: OLANEW_clean_sbu_2, # of connection points: 3
#     Node 9, Type 0, BuildingBlock: OLANEW_clean_sbu_2, # of connection points: 3
#     Node 10, Type 0, BuildingBlock: OLANEW_clean_sbu_2, # of connection points: 3
#     Node 11, Type 0, BuildingBlock: OLANEW_clean_sbu_2, # of connection points: 3
#     Node 12, Type 0, BuildingBlock: OLANEW_clean_sbu_2, # of connection points: 3
#     Node 13, Type 0, BuildingBlock: OLANEW_clean_sbu_2, # of connection points: 3
#     Node 14, Type 0, BuildingBlock: OLANEW_clean_sbu_2, # of connection points: 3
#     Node 15, Type 0, BuildingBlock: OLANEW_clean_sbu_2, # of connection points: 3
#     Node 16, Type 0, BuildingBlock: OLANEW_clean_sbu_2, # of connection points: 3
#     Node 17, Type 0, BuildingBlock: OLANEW_clean_sbu_2, # of connection points: 3
#     Node 18, Type 0, BuildingBlock: OLANEW_clean_sbu_2, # of connection points: 3
#     Node 19, Type 0, BuildingBlock: OLANEW_clean_sbu_2, # of connection points: 3
#     Node 20, Type 0, BuildingBlock: OLANEW_clean_sbu_2, # of connection points: 3
#     Node 21, Type 0, BuildingBlock: OLANEW_clean_sbu_2, # of connection points: 3
#     Node 22, Type 0, BuildingBlock: OLANEW_clean_sbu_2, # of connection points: 3
#     Node 23, Type 0, BuildingBlock: OLANEW_clean_sbu_2, # of connection points: 3
#     Edge 24, Type (0, 0), BuildingBlock: AJUNOK_clean_linker_0, # of connection points: 2
#     Edge 25, Type (0, 0), BuildingBlock: AJUNOK_clean_linker_0, # of connection points: 2
#     Edge 26, Type (0, 0), BuildingBlock: AJUNOK_clean_linker_0, # of connection points: 2
#     Edge 27, Type (0, 0), BuildingBlock: AJUNOK_clean_linker_0, # of connection points: 2
#     Edge 28, Type (0, 0), BuildingBlock: AJUNOK_clean_linker_0, # of connection points: 2
#     Edge 29, Type (0, 0), BuildingBlock: AJUNOK_clean_linker_0, # of connection points: 2
#     Edge 30, Type (0, 0), BuildingBlock: AJUNOK_clean_linker_0, # of connection points: 2
#     Edge 31, Type (0, 0), BuildingBlock: AJUNOK_clean_linker_0, # of connection points: 2
#     Edge 32, Type (0, 0), BuildingBlock: AJUNOK_clean_linker_0, # of connection points: 2
#     Edge 33, Type (0, 0), BuildingBlock: AJUNOK_clean_linker_0, # of connection points: 2
#     Edge 34, Type (0, 0), BuildingBlock: AJUNOK_clean_linker_0, # of connection points: 2
#     Edge 35, Type (0, 0), BuildingBlock: AJUNOK_clean_linker_0, # of connection points: 2
#     Edge 36, Type (0, 0), BuildingBlock: AJUNOK_clean_linker_0, # of connection points: 2
#     Edge 37, Type (0, 0), BuildingBlock: AJUNOK_clean_linker_0, # of connection points: 2
#     Edge 38, Type (0, 0), BuildingBlock: AJUNOK_clean_linker_0, # of connection points: 2
#     Edge 39, Type (0, 0), BuildingBlock: AJUNOK_clean_linker_0, # of connection points: 2
#     Edge 40, Type (0, 0), BuildingBlock: AJUNOK_clean_linker_0, # of connection points: 2
#     Edge 41, Type (0, 0), BuildingBlock: AJUNOK_clean_linker_0, # of connection points: 2
#     Edge 42, Type (0, 0), BuildingBlock: AJUNOK_clean_linker_0, # of connection points: 2
#     Edge 43, Type (0, 0), BuildingBlock: AJUNOK_clean_linker_0, # of connection points: 2
#     Edge 44, Type (0, 0), BuildingBlock: AJUNOK_clean_linker_0, # of connection points: 2
#     Edge 45, Type (0, 0), BuildingBlock: AJUNOK_clean_linker_0, # of connection points: 2
#     Edge 46, Type (0, 0), BuildingBlock: AJUNOK_clean_linker_0, # of connection points: 2
#     Edge 47, Type (0, 0), BuildingBlock: AJUNOK_clean_linker_0, # of connection points: 2
#     Edge 48, Type (0, 0), BuildingBlock: AJUNOK_clean_linker_0, # of connection points: 2
#     Edge 49, Type (0, 0), BuildingBlock: AJUNOK_clean_linker_0, # of connection points: 2
#     Edge 50, Type (0, 0), BuildingBlock: AJUNOK_clean_linker_0, # of connection points: 2
#     Edge 51, Type (0, 0), BuildingBlock: AJUNOK_clean_linker_0, # of connection points: 2
#     Edge 52, Type (0, 0), BuildingBlock: AJUNOK_clean_linker_0, # of connection points: 2
#     Edge 53, Type (0, 0), BuildingBlock: AJUNOK_clean_linker_0, # of connection points: 2
#     Edge 54, Type (0, 0), BuildingBlock: AJUNOK_clean_linker_0, # of connection points: 2
#     Edge 55, Type (0, 0), BuildingBlock: AJUNOK_clean_linker_0, # of connection points: 2
#     Edge 56, Type (0, 0), BuildingBlock: AJUNOK_clean_linker_0, # of connection points: 2
#     Edge 57, Type (0, 0), BuildingBlock: AJUNOK_clean_linker_0, # of connection points: 2
#     Edge 58, Type (0, 0), BuildingBlock: AJUNOK_clean_linker_0, # of connection points: 2
#     Edge 59, Type (0, 0), BuildingBlock: AJUNOK_clean_linker_0, # of connection points: 2
# Relax obj value: 0.065
# Max RMSD: 0.188
# Mean RMSD: 0.062
data_MOF--net-sxt--node1-OLANEW_clean_sbu_2--edge1-AJUNOK_clean_linker_0
_symmetry_space_group_name_H-M    P1
_symmetry_Int_Tables_number       1
_symmetry_cell_setting            triclinic
loop_
_symmetry_equiv_pos_as_xyz
'x, y, z'
_cell_length_a     27.006175
_cell_length_b     53.094892
_cell_length_c     41.506631
_cell_angle_alpha  89.612747
_cell_angle_beta   89.456752
_cell_angle_gamma 87.95921
loop_
_atom_site_label
_atom_site_type_symbol
_atom_site_fract_x
_atom_site_fract_y
_atom_site_fract_z
_atom_type_partial_charge
O0 O 0.22667 0.47873 0.22141 0.0
Cd1 Cd 0.26548 0.44116 0.24596 0.0
O2 O 0.23724 0.46628 0.17144 0.0
Cd3 Cd 0.2959 0.43987 0.18681 0.0
O4 O 0.37306 0.4473 0.1968 0.0
C5 C 0.3989 0.45533 0.1734 0.0
O6 O 0.3795 0.45591 0.14447 0.0
C7 C 0.21847 0.48193 0.19153 0.0
C8 C 0.19295 0.41927 0.28422 0.0
O9 O 0.22055 0.43624 0.29535 0.0
O10 O 0.20093 0.4119 0.25522 0.0
O11 O 0.28551 0.04041 0.3083 0.0
Cd12 Cd 0.33668 0.05813 0.35017 0.0
O13 O 0.32101 0.0655 0.27368 0.0
Cd14 Cd 0.33539 0.07981 0.2251 0.0
O15 O 0.33866 0.09312 0.17535 0.0
C16 C 0.31374 0.11285 0.16722 0.0
O17 O 0.2872 0.12491 0.1893 0.0
C18 C 0.28998 0.04856 0.27961 0.0
C19 C 0.42281 0.02887 0.36153 0.0
O20 O 0.38344 0.02581 0.3784 0.0
O21 O 0.42131 0.04576 0.33932 0.0
O22 O 0.08365 0.58553 0.17276 0.0
Cd23 Cd 0.04236 0.62647 0.16247 0.0
O24 O 0.11187 0.5819 0.12314 0.0
Cd25 Cd 0.05949 0.61096 0.1064 0.0
O26 O 0.9836 0.60659 0.09109 0.0
C27 C 0.95875 0.59176 0.10854 0.0
O28 O 0.97909 0.58241 0.13486 0.0
C29 C 0.11011 0.57367 0.15192 0.0
C30 C 0.07167 0.66101 0.20829 0.0
O31 O 0.03221 0.6486 0.21223 0.0
O32 O 0.09705 0.65729 0.18241 0.0
O33 O 0.17611 0.0153 0.14868 0.0
Cd34 Cd 0.11915 0.99915 0.10911 0.0
O35 O 0.1304 0.99715 0.18544 0.0
Cd36 Cd 0.11146 0.99179 0.23616 0.0
O37 O 0.10764 0.99666 0.28814 0.0
C38 C 0.12411 0.01687 0.29946 0.0
O39 O 0.1419 0.03358 0.27937 0.0
C40 C 0.16786 0.0099 0.17804 0.0
C41 C 0.14723 0.94995 0.09208 0.0
O42 O 0.16159 0.96882 0.07547 0.0
O43 O 0.11908 0.95438 0.11656 0.0
O44 O 0.92982 0.56877 0.83401 0.0
Cd45 Cd 0.97669 0.58258 0.88017 0.0
O46 O 0.97859 0.59053 0.80266 0.0
Cd47 Cd 0.99385 0.60505 0.75459 0.0
O48 O 0.97755 0.61602 0.70522 0.0
C49 C 0.94595 0.63393 0.70055 0.0
O50 O 0.92588 0.64549 0.7256 0.0
C51 C 0.94279 0.57581 0.80598 0.0
C52 C 0.06535 0.55424 0.88493 0.0
O53 O 0.02562 0.54711 0.89887 0.0
O54 O 0.06314 0.57497 0.86892 0.0
O55 O 0.69095 0.04866 0.75179 0.0
Cd56 Cd 0.65234 0.08829 0.733 0.0
O57 O 0.70743 0.03486 0.70288 0.0
Cd58 Cd 0.6664 0.06417 0.67644 0.0
O59 O 0.61015 0.06338 0.63923 0.0
C60 C 0.57191 0.05144 0.64715 0.0
O61 O 0.56844 0.04263 0.67671 0.0
C62 C 0.70991 0.03192 0.73324 0.0
C63 C 0.66474 0.12581 0.77873 0.0
O64 O 0.62847 0.11093 0.78052 0.0
O65 O 0.69494 0.12327 0.75487 0.0
O66 O 0.85284 0.53254 0.67076 0.0
Cd67 Cd 0.80214 0.50493 0.63915 0.0
O68 O 0.79487 0.52431 0.7057 0.0
Cd69 Cd 0.75687 0.52385 0.75221 0.0
O70 O 0.70287 0.53302 0.78981 0.0
C71 C 0.68755 0.55584 0.7923 0.0
O72 O 0.70608 0.57275 0.77282 0.0
C73 C 0.83551 0.53471 0.69917 0.0
C74 C 0.84312 0.4565 0.64626 0.0
O75 O 0.8499 0.46913 0.62028 0.0
O76 O 0.81584 0.46637 0.66853 0.0
O77 O 0.84096 0.94076 0.80161 0.0
Cd78 Cd 0.89448 0.90434 0.81577 0.0
O79 O 0.81163 0.92093 0.76 0.0
Cd80 Cd 0.874 0.89396 0.75571 0.0
O81 O 0.90704 0.90405 0.70919 0.0
C82 C 0.90841 0.92774 0.70467 0.0
O83 O 0.89682 0.94274 0.72882 0.0
C84 C 0.81059 0.93993 0.77848 0.0
C85 C 0.84664 0.87103 0.85709 0.0
O86 O 0.87175 0.88904 0.86816 0.0
O87 O 0.84421 0.86884 0.82642 0.0
O88 O 0.06347 0.03344 0.57801 0.0
Cd89 Cd 0.97989 0.0524 0.58235 0.0
O90 O 0.07346 0.06054 0.53864 0.0
Cd91 Cd 0.1133 0.07148 0.49503 0.0
O92 O 0.13113 0.06235 0.44514 0.0
C93 C 0.11629 0.04109 0.43613 0.0
O94 O 0.09496 0.0266 0.45755 0.0
C95 C 0.09035 0.04224 0.55563 0.0
C96 C 0.98222 0.10451 0.57597 0.0
O97 O 0.97857 0.09419 0.60384 0.0
O98 O 0.98394 0.09036 0.5511 0.0
O99 O 0.95449 0.35295 0.4403 0.0
Cd100 Cd 0.93746 0.36475 0.3845 0.0
O101 O 0.00208 0.32151 0.4229 0.0
Cd102 Cd 0.04168 0.28605 0.43305 0.0
O103 O 0.0463 0.24596 0.44386 0.0
C104 C 0.05635 0.23032 0.42153 0.0
O105 O 0.06626 0.23884 0.39248 0.0
C106 C 0.98303 0.33399 0.44615 0.0
C107 C 0.0225 0.38172 0.35402 0.0
O108 O 0.99401 0.39661 0.37053 0.0
O109 O 0.0105 0.35867 0.35159 0.0
O110 O 0.75597 0.96874 0.42237 0.0
Cd111 Cd 0.6886 0.94156 0.40738 0.0
O112 O 0.78482 0.97235 0.37294 0.0
Cd113 Cd 0.74237 0.94035 0.35861 0.0
O114 O 0.75734 0.90197 0.37566 0.0
C115 C 0.79571 0.90025 0.39319 0.0
O116 O 0.82072 0.92064 0.39791 0.0
C117 C 0.78627 0.97837 0.40252 0.0
C118 C 0.60288 0.9696 0.39103 0.0
O119 O 0.60976 0.96153 0.41988 0.0
O120 O 0.63652 0.96429 0.36993 0.0
O121 O 0.14209 0.76493 0.41971 0.0
Cd122 Cd 0.21865 0.77858 0.39371 0.0
O123 O 0.15471 0.72752 0.39821 0.0
Cd124 Cd 0.21131 0.73721 0.36304 0.0
O125 O 0.1927 0.72302 0.31563 0.0
C126 C 0.14618 0.7229 0.31112 0.0
O127 O 0.11668 0.7333 0.33299 0.0
C128 C 0.12937 0.74226 0.41642 0.0
C129 C 0.26025 0.82034 0.42216 0.0
O130 O 0.22974 0.82293 0.3988 0.0
O131 O 0.27065 0.79794 0.43231 0.0
O132 O 0.29631 0.97671 0.52483 0.0
Cd133 Cd 0.37159 0.95533 0.50448 0.0
O134 O 0.30918 0.01215 0.49883 0.0
Cd135 Cd 0.38766 0.00307 0.49158 0.0
O136 O 0.44811 0.01352 0.52262 0.0
C137 C 0.43261 0.02007 0.55045 0.0
O138 O 0.38487 0.01941 0.55666 0.0
C139 C 0.28125 0.99861 0.51603 0.0
C140 C 0.3436 0.91012 0.47719 0.0
O141 O 0.35757 0.91099 0.50657 0.0
O142 O 0.34423 0.93052 0.46052 0.0
O143 O 0.05478 0.33161 0.59243 0.0
Cd144 Cd 0.04714 0.33234 0.65083 0.0
O145 O 0.0079 0.29915 0.59828 0.0
Cd146 Cd 0.96708 0.26751 0.58053 0.0
O147 O 0.95644 0.22713 0.57674 0.0
C148 C 0.99269 0.21333 0.56663 0.0
O149 O 0.03353 0.22416 0.55746 0.0
C150 C 0.02816 0.31512 0.57997 0.0
C151 C 0.97183 0.36848 0.66008 0.0
O152 O 0.01713 0.37376 0.66473 0.0
O153 O 0.96184 0.34577 0.65316 0.0
O154 O 0.96776 0.05219 0.43756 0.0
Cd155 Cd 0.03257 0.07296 0.46576 0.0
O156 O 0.9607 0.03208 0.48326 0.0
Cd157 Cd 0.93418 0.00504 0.51882 0.0
O158 O 0.91898 0.9876 0.5655 0.0
C159 C 0.94227 0.96789 0.57553 0.0
O160 O 0.97535 0.9567 0.55657 0.0
C161 C 0.94631 0.03577 0.45446 0.0
C162 C 0.03884 0.12339 0.44897 0.0
O163 O 0.0627 0.10621 0.43306 0.0
O164 O 0.01162 0.11654 0.4727 0.0
O165 O 0.9426 0.6834 0.47913 0.0
Cd166 Cd 0.86732 0.66885 0.50476 0.0
O167 O 0.9166 0.72203 0.48921 0.0
Cd168 Cd 0.91661 0.76277 0.48297 0.0
O169 O 0.89676 0.80069 0.46644 0.0
C170 C 0.85991 0.80321 0.44775 0.0
O171 O 0.83628 0.78301 0.43967 0.0
C172 C 0.94942 0.70691 0.47746 0.0
C173 C 0.88734 0.65807 0.56902 0.0
O174 O 0.89334 0.6412 0.54724 0.0
O175 O 0.8708 0.67997 0.56035 0.0
O176 O 0.38627 0.19306 0.95944 0.0
Cd177 Cd 0.30993 0.17205 0.97329 0.0
O178 O 0.34901 0.22898 0.97107 0.0
Cd179 Cd 0.33137 0.26917 0.97656 0.0
O180 O 0.26549 0.29471 0.99189 0.0
C181 C 0.2521 0.31643 0.98073 0.0
O182 O 0.26442 0.2944 0.99277 0.0
C183 C 0.38771 0.21689 0.96133 0.0
C184 C 0.31263 0.15207 0.03558 0.0
O185 O 0.32855 0.13916 0.0114 0.0
O186 O 0.29531 0.17448 0.03019 0.0
O187 O 0.61501 0.79066 -0.00147 0.0
Cd188 Cd 0.6994 0.77342 0.99175 0.0
O189 O 0.60115 0.7744 0.04657 0.0
Cd190 Cd 0.66392 0.74747 0.04773 0.0
O191 O 0.66752 0.70798 0.06311 0.0
C192 C 0.67118 0.68984 0.04332 0.0
O193 O 0.67802 0.69475 0.01256 0.0
C194 C 0.58742 0.7886 0.02332 0.0
C195 C 0.7491 0.80338 0.94712 0.0
O196 O 0.72482 0.78442 0.93808 0.0
O197 O 0.75067 0.80785 0.9774 0.0
O198 O 0.37925 0.47511 0.9475 0.0
Cd199 Cd 0.33002 0.4599 0.90308 0.0
O200 O 0.44937 0.45882 0.92837 0.0
Cd201 Cd 0.41073 0.43571 0.89438 0.0
O202 O 0.363 0.40372 0.89883 0.0
C203 C 0.38066 0.38415 0.91301 0.0
O204 O 0.42777 0.38336 0.92074 0.0
C205 C 0.42605 0.4721 0.94934 0.0
C206 C 0.24538 0.49085 0.89535 0.0
O207 O 0.24474 0.47098 0.91306 0.0
O208 O 0.28604 0.49584 0.8809 0.0
O209 O 0.5928 0.27927 0.95109 0.0
Cd210 Cd 0.67732 0.29389 0.94347 0.0
O211 O 0.6037 0.25369 0.91002 0.0
Cd212 Cd 0.6798 0.25902 0.89429 0.0
O213 O 0.69937 0.22793 0.86174 0.0
C214 C 0.68268 0.20699 0.87119 0.0
O215 O 0.66164 0.20598 0.89981 0.0
C216 C 0.57637 0.26256 0.93259 0.0
C217 C 0.68601 0.34588 0.95105 0.0
O218 O 0.67751 0.33636 0.92343 0.0
O219 O 0.68994 0.33077 0.97517 0.0
O220 O 0.3523 0.56552 0.9832 0.0
Cd221 Cd 0.26791 0.58259 0.97593 0.0
O222 O 0.3767 0.59013 0.94379 0.0
Cd223 Cd 0.43795 0.60306 0.91422 0.0
O224 O 0.50567 0.60087 0.8854 0.0
C225 C 0.51634 0.5792 0.87401 0.0
O226 O 0.48592 0.5609 0.87963 0.0
C227 C 0.38666 0.57366 0.9653 0.0
C228 C 0.2666 0.63473 0.98343 0.0
O229 O 0.26311 0.61988 0.00774 0.0
O230 O 0.26963 0.62495 0.9553 0.0
O231 O 0.3497 0.80424 0.03958 0.0
Cd232 Cd 0.25958 0.80262 0.03674 0.0
O233 O 0.35873 0.81144 0.98775 0.0
Cd234 Cd 0.28576 0.79698 0.97873 0.0
O235 O 0.26104 0.75836 0.97574 0.0
C236 C 0.28156 0.74329 0.99592 0.0
O237 O 0.3124 0.75237 0.0168 0.0
C238 C 0.37735 0.80969 0.01574 0.0
C239 C 0.21746 0.84908 0.05519 0.0
O240 O 0.22424 0.83121 0.07576 0.0
O241 O 0.22996 0.84477 0.02582 0.0
O242 O 0.57411 0.51544 0.05882 0.0
Cd243 Cd 0.62414 0.53579 0.09898 0.0
O244 O 0.50196 0.52436 0.08172 0.0
Cd245 Cd 0.53977 0.53519 0.12543 0.0
O246 O 0.58489 0.52932 0.16861 0.0
C247 C 0.57592 0.51272 0.18997 0.0
O248 O 0.60388 0.51115 0.21568 0.0
C249 C 0.52708 0.51514 0.05828 0.0
C250 C 0.63815 0.58609 0.08216 0.0
O251 O 0.66576 0.56826 0.07045 0.0
O252 O 0.60352 0.58013 0.1018 0.0
O253 O 0.61135 0.52384 0.96167 0.0
Cd254 Cd 0.69755 0.50762 0.96426 0.0
O255 O 0.61904 0.54989 0.00206 0.0
Cd256 Cd 0.69763 0.54244 0.01012 0.0
O257 O 0.76808 0.55426 0.02883 0.0
C258 C 0.7797 0.54942 0.05787 0.0
O259 O 0.75059 0.53539 0.07539 0.0
C260 C 0.59242 0.54039 0.98057 0.0
C261 C 0.70178 0.45493 0.96151 0.0
O262 O 0.70085 0.46643 0.98857 0.0
O263 O 0.70167 0.46842 0.93578 0.0
C264 C 0.16951 0.52174 0.20331 0.0
C265 C 0.18934 0.50457 0.18046 0.0
C266 C 0.14406 0.54395 0.19383 0.0
C267 C 0.13754 0.55005 0.16109 0.0
H268 H 0.17394 0.51817 0.22886 0.0
H269 H 0.12981 0.55654 0.21243 0.0
S270 S 0.17991 0.51098 0.09151 0.0
N271 N 0.19905 0.49485 0.12344 0.0
N272 N 0.15131 0.53662 0.10566 0.0
C273 C 0.15651 0.53292 0.13791 0.0
C274 C 0.18228 0.51019 0.14757 0.0
C275 C 0.24158 0.05405 0.22867 0.0
C276 C 0.25984 0.03823 0.25354 0.0
C277 C 0.21273 0.04462 0.20386 0.0
C278 C 0.20024 0.01918 0.20347 0.0
H279 H 0.24841 0.07401 0.22879 0.0
H280 H 0.19897 0.05747 0.18535 0.0
S281 S 0.24007 0.96973 0.26214 0.0
N282 N 0.26429 0.99571 0.27568 0.0
N283 N 0.20992 0.97805 0.22909 0.0
C284 C 0.21846 0.00312 0.22799 0.0
C285 C 0.24807 0.01266 0.25311 0.0
C286 C 0.83852 0.55933 0.75042 0.0
C287 C 0.8636 0.54733 0.72457 0.0
C288 C 0.86437 0.56865 0.77668 0.0
C289 C 0.91633 0.56698 0.77752 0.0
H290 H 0.79864 0.56162 0.75039 0.0
H291 H 0.84359 0.57732 0.79639 0.0
S292 S -0.0001 0.53842 0.7154 0.0
N293 N 0.94367 0.53504 0.70112 0.0
N294 N 0.99223 0.55298 0.75021 0.0
C295 C 0.94205 0.55593 0.75134 0.0
C296 C 0.91572 0.54616 0.7248 0.0
C297 C 0.74418 0.98816 0.72554 0.0
C298 C 0.7334 0.00841 0.74645 0.0
C299 C 0.76688 0.96575 0.73663 0.0
C300 C 0.78047 0.96263 0.76909 0.0
H301 H 0.73537 0.98958 0.70017 0.0
H302 H 0.77544 0.9511 0.71919 0.0
S303 S 0.75832 0.00924 0.83429 0.0
N304 N 0.736 0.02342 0.80171 0.0
N305 N 0.77972 0.98125 0.82244 0.0
C306 C 0.76907 0.98244 0.79053 0.0
C307 C 0.74527 0.0053 0.77927 0.0
C308 C 0.17815 0.04578 0.53798 0.0
C309 C 0.13926 0.0305 0.54773 0.0
C310 C 0.22365 0.03525 0.52754 0.0
C311 C 0.2324 0.00897 0.52703 0.0
H312 H 0.17336 0.06613 0.53835 0.0
H313 H 0.25233 0.04786 0.52011 0.0
S314 S 0.14288 0.9607 0.55129 0.0
N315 N 0.11239 0.98785 0.5569 0.0
N316 N 0.19848 0.96786 0.53794 0.0
C317 C 0.19422 0.99344 0.53764 0.0
C318 C 0.1476 0.00425 0.54798 0.0
C319 C 0.04307 0.32289 0.4897 0.0
C320 C 0.99368 0.32651 0.47969 0.0
C321 C 0.05433 0.3184 0.52223 0.0
C322 C 0.01645 0.31648 0.54544 0.0
H323 H 0.07321 0.32462 0.4725 0.0
H324 H 0.09281 0.31681 0.52937 0.0
S325 S 0.88132 0.32343 0.53124 0.0
N326 N 0.90678 0.32748 0.49531 0.0
N327 N 0.9278 0.31799 0.55621 0.0
C328 C 0.96694 0.3191 0.53549 0.0
C329 C 0.95557 0.32441 0.50263 0.0
C330 C 0.82659 0.00113 0.44733 0.0
C331 C 0.82594 0.99446 0.41452 0.0
C332 C 0.8657 0.0144 0.46012 0.0
C333 C 0.90568 0.02154 0.44065 0.0
H334 H 0.79687 0.99588 0.46345 0.0
H335 H 0.86413 0.01942 0.48535 0.0
S336 S 0.92254 0.00889 0.35338 0.0
N337 N 0.86928 0.99627 0.36281 0.0
N338 N 0.94255 0.02122 0.38703 0.0
C339 C 0.90535 0.01539 0.40778 0.0
C340 C 0.8656 0.00184 0.39468 0.0
C341 C 0.06138 0.74601 0.45814 0.0
C342 C 0.08342 0.73315 0.43183 0.0
C343 C 0.01765 0.73763 0.47263 0.0
C344 C 0.99419 0.71625 0.46115 0.0
H345 H 0.07835 0.76245 0.4679 0.0
H346 H 0.00283 0.74763 0.49343 0.0
S347 S 0.03419 0.67713 0.39128 0.0
N348 N 0.07659 0.69863 0.39386 0.0
N349 N 0.9947 0.68315 0.42106 0.0
C350 C 0.01533 0.70349 0.4346 0.0
C351 C 0.05977 0.7119 0.41991 0.0
C352 C 0.44685 0.25221 0.96686 0.0
C353 C 0.43369 0.22968 0.952 0.0
C354 C 0.49264 0.26306 0.96015 0.0
C355 C 0.52667 0.25191 0.93808 0.0
H356 H 0.42251 0.26104 0.98466 0.0
H357 H 0.50166 0.28009 0.9727 0.0
S358 S 0.50819 0.19343 0.89132 0.0
N359 N 0.45728 0.19718 0.91327 0.0
N360 N 0.54262 0.21734 0.9005 0.0
C361 C 0.51305 0.22973 0.92238 0.0
C362 C 0.46682 0.21867 0.92941 0.0
C363 C 0.46266 0.81156 0.99205 0.0
C364 C 0.43194 0.81016 0.01957 0.0
C365 C 0.5138 0.80647 0.99388 0.0
C366 C 0.53623 0.79969 0.02328 0.0
H367 H 0.44687 0.81515 0.9685 0.0
H368 H 0.53522 0.80626 0.97167 0.0
S369 S 0.47429 0.79885 0.10351 0.0
N370 N 0.42915 0.80561 0.07799 0.0
N371 N 0.52522 0.79594 0.08135 0.0
C372 C 0.5068 0.80063 0.05145 0.0
C373 C 0.45469 0.80591 0.04962 0.0
C374 C 0.45222 0.51054 0.02392 0.0
C375 C 0.50196 0.50387 0.03058 0.0
C376 C 0.42808 0.50033 -0.00249 0.0
C377 C 0.45277 0.48308 0.9767 0.0
H378 H 0.43192 0.52403 0.03892 0.0
H379 H 0.38989 0.50624 0.99325 0.0
S380 S 0.58159 0.45754 0.98562 0.0
N381 N 0.57407 0.47768 0.0155 0.0
N382 N 0.52889 0.45862 0.96589 0.0
C383 C 0.50225 0.47592 0.98348 0.0
C384 C 0.52677 0.48628 0.01038 0.0
C385 C 0.51013 0.53897 0.953 0.0
C386 C 0.53958 0.54887 0.97742 0.0
C387 C 0.46029 0.54684 0.94944 0.0
C388 C 0.43822 0.56481 0.97015 0.0
H389 H 0.52555 0.52501 0.93647 0.0
H390 H 0.43879 0.53874 0.93046 0.0
S391 S 0.49783 0.59682 0.03771 0.0
N392 N 0.54192 0.57791 0.02269 0.0
N393 N 0.44837 0.59243 0.01562 0.0
C394 C 0.46667 0.57482 0.99464 0.0
C395 C 0.51736 0.56694 -0.00166 0.0
C396 C 0.14512 0.04871 0.37955 0.0
C397 C 0.11951 0.0337 0.40175 0.0
C398 C 0.14679 0.04291 0.34668 0.0
C399 C 0.12284 0.02188 0.33458 0.0
H400 H 0.16382 0.06524 0.38751 0.0
H401 H 0.1669 0.05516 0.33064 0.0
S402 S 0.05077 0.97635 0.38259 0.0
N403 N 0.06983 0.99668 0.40927 0.0
N404 N 0.07294 0.98583 0.34755 0.0
C405 C 0.09755 0.0065 0.35655 0.0
C406 C 0.09588 0.0124 0.39008 0.0
C407 C 0.12931 0.38688 0.29441 0.0
C408 C 0.15156 0.40927 0.30365 0.0
C409 C 0.08832 0.37779 0.31128 0.0
C410 C 0.06744 0.39097 0.33769 0.0
H411 H 0.14345 0.37633 0.27384 0.0
H412 H 0.07219 0.36061 0.30306 0.0
S413 S 0.11261 0.45011 0.37232 0.0
N414 N 0.15043 0.44399 0.34167 0.0
N415 N 0.0731 0.4271 0.37301 0.0
C416 C 0.08972 0.41318 0.34749 0.0
C417 C 0.13186 0.42225 0.33059 0.0
C418 C 0.51721 0.98615 0.40443 0.0
C419 C 0.5573 0.98459 0.38252 0.0
C420 C 0.47378 0.00023 0.39725 0.0
C421 C 0.46881 0.01361 0.368 0.0
H422 H 0.5192 0.97634 0.42738 0.0
H423 H 0.44412 0.00086 0.41501 0.0
S424 S 0.56261 0.01557 0.30211 0.0
N425 N 0.58889 0.99747 0.33004 0.0
N426 N 0.50752 0.0241 0.3167 0.0
C427 C 0.50853 0.01219 0.34579 0.0
C428 C 0.55264 0.99764 0.35299 0.0
C429 C 0.13825 0.68569 0.23354 0.0
C430 C 0.08867 0.67834 0.23347 0.0
C431 C 0.15632 0.70054 0.25834 0.0
C432 C 0.12537 0.70892 0.28383 0.0
H433 H 0.1638 0.67936 0.21476 0.0
H434 H 0.19505 0.7052 0.2577 0.0
S435 S 0.99159 0.69618 0.29387 0.0
N436 N 0.00831 0.68146 0.26039 0.0
N437 N 0.04191 0.70953 0.30674 0.0
C438 C 0.07523 0.70238 0.28349 0.0
C439 C 0.057 0.68704 0.25841 0.0
C440 C 0.54761 0.0448 0.58981 0.0
C441 C 0.53479 0.04498 0.62277 0.0
C442 C 0.51453 0.03658 0.56657 0.0
C443 C 0.4671 0.02861 0.57536 0.0
H444 H 0.58395 0.05043 0.58192 0.0
H445 H 0.52622 0.03653 0.54153 0.0
S446 S 0.41472 0.02652 0.65839 0.0
N447 N 0.47091 0.03713 0.66291 0.0
N448 N 0.40864 0.02197 0.61936 0.0
C449 C 0.45345 0.02924 0.60818 0.0
C450 C 0.4873 0.03734 0.63184 0.0
C451 C 0.93133 0.40762 0.68237 0.0
C452 C 0.9333 0.38874 0.65881 0.0
C453 C 0.89938 0.42887 0.67905 0.0
C454 C 0.86996 0.43227 0.6515 0.0
H455 H 0.95538 0.40621 0.70309 0.0
H456 H 0.8997 0.44336 0.6973 0.0
S457 S 0.86081 0.38799 0.58342 0.0
N458 N 0.90148 0.37415 0.60787 0.0
N459 N 0.84337 0.41479 0.60089 0.0
C460 C 0.87082 0.4133 0.62815 0.0
C461 C 0.90203 0.3913 0.63203 0.0
C462 C 0.94293 0.92401 0.64848 0.0
C463 C 0.91768 0.93844 0.67216 0.0
C464 C 0.95092 0.93372 0.61738 0.0
C465 C 0.93325 0.95807 0.6086 0.0
H466 H 0.95687 0.90511 0.65404 0.0
H467 H 0.97074 0.92191 0.60003 0.0
S468 S 0.86345 0.00326 0.66158 0.0
N469 N 0.87431 0.97824 0.68456 0.0
N470 N 0.88887 0.99633 0.62628 0.0
C471 C 0.90759 0.97262 0.63204 0.0
C472 C 0.89997 0.96286 0.66376 0.0
C473 C 0.92531 0.62939 0.6106 0.0
C474 C 0.90073 0.65244 0.60294 0.0
C475 C 0.94004 0.62372 0.64214 0.0
C476 C 0.93043 0.64077 0.66741 0.0
H477 H 0.93373 0.61559 0.59206 0.0
H478 H 0.95878 0.60569 0.64672 0.0
S479 S 0.86713 0.70377 0.66036 0.0
N480 N 0.86743 0.69252 0.62338 0.0
N481 N 0.89485 0.68175 0.68272 0.0
C482 C 0.9056 0.66385 0.66022 0.0
C483 C 0.89086 0.66972 0.62799 0.0
C484 C 0.33694 0.32744 0.96006 0.0
C485 C 0.28507 0.33098 0.95971 0.0
C486 C 0.36751 0.34396 0.9433 0.0
C487 C 0.34741 0.36467 0.92575 0.0
H488 H 0.35427 0.31274 0.97468 0.0
H489 H 0.40726 0.34102 0.94529 0.0
S490 S 0.21338 0.38071 0.91558 0.0
N491 N 0.21479 0.35556 0.93921 0.0
N492 N 0.27183 0.38655 0.90744 0.0
C493 C 0.29544 0.36759 0.92404 0.0
C494 C 0.26448 0.35082 0.94123 0.0
C495 C 0.69126 0.38916 0.92719 0.0
C496 C 0.69131 0.37351 0.9547 0.0
C497 C 0.69564 0.41529 0.92967 0.0
C498 C 0.7001 0.427 0.95979 0.0
H499 H 0.68764 0.38122 0.9034 0.0
H500 H 0.69488 0.42641 0.9077 0.0
S501 S 0.70303 0.39458 0.03939 0.0
N502 N 0.69697 0.37167 0.01318 0.0
N503 N 0.70499 0.42077 0.01784 0.0
C504 C 0.70069 0.41158 0.98755 0.0
C505 C 0.69637 0.38489 0.98501 0.0
C506 C 0.25412 0.67882 0.96251 0.0
C507 C 0.26827 0.66235 0.98775 0.0
C508 C 0.25689 0.70503 0.96574 0.0
C509 C 0.2748 0.71572 0.99411 0.0
H510 H 0.24084 0.67143 0.94005 0.0
H511 H 0.24612 0.71692 0.94549 0.0
S512 S 0.31659 0.68071 0.06731 0.0
N513 N 0.30036 0.65858 0.04217 0.0
N514 N 0.30623 0.70769 0.04812 0.0
C515 C 0.28868 0.69943 0.01963 0.0
C516 C 0.28523 0.6728 0.01648 0.0
C517 C 0.67461 0.61824 0.04543 0.0
C518 C 0.64633 0.61269 0.0731 0.0
C519 C 0.68269 0.64321 0.03608 0.0
C520 C 0.66363 0.66361 0.05436 0.0
H521 H 0.69017 0.60318 0.03058 0.0
H522 H 0.70423 0.64653 0.01441 0.0
S523 S 0.58725 0.65932 0.12897 0.0
N524 N 0.59909 0.62974 0.11864 0.0
N525 N 0.61495 0.67659 0.10143 0.0
C526 C 0.63568 0.65834 0.08227 0.0
C527 C 0.6268 0.63292 0.09151 0.0
C528 C 0.57894 0.54922 0.84983 0.0
C529 C 0.56189 0.57425 0.85465 0.0
C530 C 0.62041 0.54356 0.83043 0.0
C531 C 0.64636 0.56271 0.81479 0.0
H532 H 0.55992 0.53373 0.86096 0.0
H533 H 0.63142 0.52392 0.82715 0.0
S534 S 0.61838 0.63154 0.82088 0.0
N535 N 0.57535 0.61852 0.84334 0.0
N536 N 0.65327 0.60793 0.80663 0.0
C537 C 0.63052 0.58793 0.82006 0.0
C538 C 0.58836 0.59369 0.84007 0.0
C539 C 0.82622 0.85594 0.91279 0.0
C540 C 0.82148 0.85333 0.87924 0.0
C541 C 0.80298 0.83964 0.9344 0.0
C542 C 0.77399 0.81997 0.92344 0.0
H543 H 0.84808 0.87073 0.9226 0.0
H544 H 0.80784 0.84258 0.95996 0.0
S545 S 0.74917 0.80506 0.83788 0.0
N546 N 0.78515 0.82953 0.83605 0.0
N547 N 0.74156 0.79892 0.8766 0.0
C548 C 0.76891 0.81709 0.88992 0.0
C549 C 0.79257 0.83374 0.86787 0.0
C550 C 0.15474 0.49953 0.90434 0.0
C551 C 0.20034 0.50748 0.89199 0.0
C552 C 0.11156 0.5148 0.90194 0.0
C553 C 0.11205 0.53871 0.88712 0.0
H554 H 0.15217 0.48128 0.91593 0.0
H555 H 0.07746 0.50766 0.91176 0.0
S556 S 0.22224 0.5688 0.85163 0.0
N557 N 0.2436 0.54114 0.86483 0.0
N558 N 0.16244 0.56984 0.86032 0.0
C559 C 0.15745 0.54699 0.87473 0.0
C560 C 0.20153 0.53139 0.87715 0.0
C561 C 0.69926 0.16672 0.79607 0.0
C562 C 0.67123 0.14553 0.80332 0.0
C563 C 0.70385 0.18622 0.8184 0.0
C564 C 0.68113 0.18514 0.84904 0.0
H565 H 0.7168 0.1686 0.77264 0.0
H566 H 0.72477 0.20242 0.81135 0.0
S567 S 0.60717 0.13254 0.88087 0.0
N568 N 0.62275 0.12392 0.84392 0.0
N569 N 0.63182 0.16019 0.88601 0.0
C570 C 0.65448 0.16356 0.85699 0.0
C571 C 0.64937 0.14388 0.8341 0.0
C572 C 0.89726 0.58608 0.06479 0.0
C573 C 0.91097 0.58238 0.09713 0.0
C574 C 0.85486 0.57536 0.05245 0.0
C575 C 0.8242 0.56056 0.07194 0.0
H576 H 0.92008 0.59685 0.04855 0.0
H577 H 0.84643 0.57857 0.02726 0.0
S578 S 0.84134 0.54692 0.15912 0.0
N579 N 0.88888 0.56409 0.14901 0.0
N580 N 0.80909 0.54399 0.12587 0.0
C581 C 0.83663 0.55732 0.10462 0.0
C582 C 0.87997 0.56822 0.11719 0.0
C583 C 0.20053 0.89483 0.0436 0.0
C584 C 0.19741 0.87429 0.06505 0.0
C585 C 0.18403 0.91912 0.05256 0.0
C586 C 0.16318 0.92386 0.0832 0.0
H587 H 0.2166 0.89228 0.01979 0.0
H588 H 0.18772 0.9343 0.03522 0.0
S589 S 0.14534 0.87652 0.14818 0.0
N590 N 0.17113 0.86026 0.11828 0.0
N591 N 0.1397 0.90587 0.13498 0.0
C592 C 0.15906 0.90344 0.10477 0.0
C593 C 0.1763 0.8787 0.09574 0.0
C594 C 0.47737 0.47329 0.15246 0.0
C595 C 0.44696 0.46723 0.17895 0.0
C596 C 0.51993 0.48727 0.15635 0.0
C597 C 0.5333 0.49615 0.18677 0.0
H598 H 0.4679 0.46751 0.12837 0.0
H599 H 0.54248 0.49111 0.13532 0.0
S600 S 0.46872 0.48395 0.2643 0.0
N601 N 0.43541 0.4698 0.23712 0.0
N602 N 0.51485 0.49651 0.24418 0.0
C603 C 0.50468 0.48927 0.21367 0.0
C604 C 0.46156 0.47479 0.20981 0.0
C605 C 0.29174 0.15529 0.09432 0.0
C606 C 0.31383 0.1415 0.06881 0.0
C607 C 0.2919 0.14584 0.12591 0.0
C608 C 0.3144 0.12224 0.13343 0.0
H609 H 0.27389 0.17357 0.08993 0.0
H610 H 0.2743 0.15726 0.14459 0.0
S611 S 0.37755 0.07852 0.07544 0.0
N612 N 0.35892 0.10289 0.05323 0.0
N613 N 0.35935 0.08518 0.11257 0.0
C614 C 0.33679 0.10822 0.10817 0.0
C615 C 0.33644 0.11782 0.07591 0.0
C616 C 0.80472 0.83026 0.4127 0.0
C617 C 0.84402 0.82829 0.43475 0.0
C618 C 0.78918 0.85356 0.39957 0.0
C619 C 0.81233 0.87588 0.40788 0.0
H620 H 0.7858 0.81364 0.40529 0.0
H621 H 0.75897 0.85399 0.38256 0.0
S622 S 0.91593 0.88128 0.46551 0.0
N623 N 0.90501 0.85091 0.46495 0.0
N624 N 0.87589 0.89465 0.44033 0.0
C625 C 0.85139 0.87427 0.43018 0.0
C626 C 0.86719 0.85052 0.44359 0.0
C627 C 0.27782 0.86629 0.4212 0.0
C628 C 0.28304 0.84265 0.43658 0.0
C629 C 0.29849 0.88778 0.43416 0.0
C630 C 0.32488 0.88664 0.46324 0.0
H631 H 0.25755 0.8683 0.39888 0.0
H632 H 0.29291 0.90554 0.42147 0.0
S633 S 0.35036 0.82921 0.51277 0.0
N634 N 0.31768 0.81928 0.48225 0.0
N635 N 0.35613 0.85973 0.50673 0.0
C636 C 0.33087 0.86309 0.47877 0.0
C637 C 0.3101 0.8411 0.46542 0.0
C638 C 0.94925 0.14789 0.58755 0.0
C639 C 0.98502 0.132 0.57262 0.0
C640 C 0.95139 0.17415 0.58475 0.0
C641 C 0.99015 0.18545 0.56759 0.0
H642 H 0.91916 0.13995 0.60126 0.0
H643 H 0.92288 0.18563 0.59666 0.0
S644 S 0.09503 0.15151 0.5261 0.0
N645 N 0.06086 0.12892 0.54091 0.0
N646 N 0.06629 0.17828 0.53642 0.0
C647 C 0.02664 0.16957 0.55293 0.0
C648 C 0.0237 0.14283 0.55523 0.0
C649 C 0.02593 0.19456 0.45469 0.0
C650 C 0.05305 0.20295 0.42783 0.0
C651 C 0.02068 0.16885 0.46081 0.0
C652 C 0.04334 0.15043 0.4408 0.0
H653 H 0.00793 0.20794 0.47098 0.0
H654 H 0.99904 0.16343 0.48167 0.0
S655 S 0.11839 0.16252 0.36719 0.0
N656 N 0.10234 0.19084 0.38071 0.0
N657 N 0.09359 0.14244 0.39266 0.0
C658 C 0.07059 0.15855 0.41379 0.0
C659 C 0.07524 0.1848 0.40725 0.0
loop_
_geom_bond_atom_site_label_1
_geom_bond_atom_site_label_2
_geom_bond_distance
_geom_bond_site_symmetry_2
_ccdc_geom_bond_type
O0 Cd1 2.300 . S
O0 C7 1.275 . S
Cd1 O0 2.300 . S
Cd1 O9 2.381 . S
Cd1 O10 2.378 . S
O2 Cd3 2.385 . S
O2 C7 1.255 . S
Cd3 O2 2.385 . S
Cd3 O4 2.317 . S
O4 Cd3 2.317 . S
O4 C5 1.232 . S
C5 O4 1.232 . S
C5 O6 1.218 . S
O6 C5 1.218 . S
C7 O0 1.275 . S
C7 O2 1.255 . S
C8 O9 1.258 . S
C8 O10 1.256 . S
O9 Cd1 2.381 . S
O9 C8 1.258 . S
O10 Cd1 2.378 . S
O10 C8 1.256 . S
O11 Cd12 2.300 . S
O11 C18 1.275 . S
Cd12 O11 2.300 . S
Cd12 O20 2.381 . S
Cd12 O21 2.378 . S
O13 Cd14 2.385 . S
O13 C18 1.255 . S
Cd14 O13 2.385 . S
Cd14 O15 2.317 . S
O15 Cd14 2.317 . S
O15 C16 1.232 . S
C16 O15 1.232 . S
C16 O17 1.218 . S
O17 C16 1.218 . S
C18 O11 1.275 . S
C18 O13 1.255 . S
C19 O20 1.258 . S
C19 O21 1.256 . S
O20 Cd12 2.381 . S
O20 C19 1.258 . S
O21 Cd12 2.378 . S
O21 C19 1.256 . S
O22 Cd23 2.300 . S
O22 C29 1.275 . S
Cd23 O22 2.300 . S
Cd23 O31 2.381 . S
Cd23 O32 2.378 . S
O24 Cd25 2.385 . S
O24 C29 1.255 . S
Cd25 O24 2.385 . S
Cd25 O26 2.317 1_455 S
O26 Cd25 2.317 1_655 S
O26 C27 1.232 . S
C27 O26 1.232 . S
C27 O28 1.218 . S
O28 C27 1.218 . S
C29 O22 1.275 . S
C29 O24 1.255 . S
C30 O31 1.258 . S
C30 O32 1.256 . S
O31 Cd23 2.381 . S
O31 C30 1.258 . S
O32 Cd23 2.378 . S
O32 C30 1.256 . S
O33 Cd34 2.300 1_545 S
O33 C40 1.275 . S
Cd34 O33 2.300 1_565 S
Cd34 O42 2.381 . S
Cd34 O43 2.378 . S
O35 Cd36 2.385 1_545 S
O35 C40 1.255 . S
Cd36 O35 2.385 1_565 S
Cd36 O37 2.317 . S
O37 Cd36 2.317 . S
O37 C38 1.232 1_565 S
C38 O37 1.232 1_545 S
C38 O39 1.218 . S
O39 C38 1.218 . S
C40 O33 1.275 . S
C40 O35 1.255 . S
C41 O42 1.258 . S
C41 O43 1.256 . S
O42 Cd34 2.381 . S
O42 C41 1.258 . S
O43 Cd34 2.378 . S
O43 C41 1.256 . S
O44 Cd45 2.300 1_655 S
O44 C51 1.275 . S
Cd45 O44 2.300 1_455 S
Cd45 O53 2.381 . S
Cd45 O54 2.378 . S
O46 Cd47 2.385 . S
O46 C51 1.255 . S
Cd47 O46 2.385 . S
Cd47 O48 2.317 1_655 S
O48 Cd47 2.317 1_455 S
O48 C49 1.232 1_455 S
C49 O48 1.232 1_655 S
C49 O50 1.218 . S
O50 C49 1.218 . S
C51 O44 1.275 . S
C51 O46 1.255 . S
C52 O53 1.258 . S
C52 O54 1.256 . S
O53 Cd45 2.381 . S
O53 C52 1.258 . S
O54 Cd45 2.378 . S
O54 C52 1.256 . S
O55 Cd56 2.300 . S
O55 C62 1.275 . S
Cd56 O55 2.300 . S
Cd56 O64 2.381 . S
Cd56 O65 2.378 . S
O57 Cd58 2.385 . S
O57 C62 1.255 . S
Cd58 O57 2.385 . S
Cd58 O59 2.317 . S
O59 Cd58 2.317 . S
O59 C60 1.232 . S
C60 O59 1.232 . S
C60 O61 1.218 . S
O61 C60 1.218 . S
C62 O55 1.275 . S
C62 O57 1.255 . S
C63 O64 1.258 . S
C63 O65 1.256 . S
O64 Cd56 2.381 . S
O64 C63 1.258 . S
O65 Cd56 2.378 . S
O65 C63 1.256 . S
O66 Cd67 2.300 . S
O66 C73 1.275 . S
Cd67 O66 2.300 . S
Cd67 O75 2.381 . S
Cd67 O76 2.378 . S
O68 Cd69 2.385 . S
O68 C73 1.255 . S
Cd69 O68 2.385 . S
Cd69 O70 2.317 . S
O70 Cd69 2.317 . S
O70 C71 1.232 . S
C71 O70 1.232 . S
C71 O72 1.218 . S
O72 C71 1.218 . S
C73 O66 1.275 . S
C73 O68 1.255 . S
C74 O75 1.258 . S
C74 O76 1.256 . S
O75 Cd67 2.381 . S
O75 C74 1.258 . S
O76 Cd67 2.378 . S
O76 C74 1.256 . S
O77 Cd78 2.300 . S
O77 C84 1.275 . S
Cd78 O77 2.300 . S
Cd78 O86 2.381 . S
Cd78 O87 2.378 . S
O79 Cd80 2.385 . S
O79 C84 1.255 . S
Cd80 O79 2.385 . S
Cd80 O81 2.317 . S
O81 Cd80 2.317 . S
O81 C82 1.232 . S
C82 O81 1.232 . S
C82 O83 1.218 . S
O83 C82 1.218 . S
C84 O77 1.275 . S
C84 O79 1.255 . S
C85 O86 1.258 . S
C85 O87 1.256 . S
O86 Cd78 2.381 . S
O86 C85 1.258 . S
O87 Cd78 2.378 . S
O87 C85 1.256 . S
O88 Cd89 2.300 . S
O88 C95 1.275 . S
Cd89 O88 2.300 . S
Cd89 O97 2.381 . S
Cd89 O98 2.378 . S
O90 Cd91 2.385 . S
O90 C95 1.255 . S
Cd91 O90 2.385 . S
Cd91 O92 2.317 . S
O92 Cd91 2.317 . S
O92 C93 1.232 . S
C93 O92 1.232 . S
C93 O94 1.218 . S
O94 C93 1.218 . S
C95 O88 1.275 . S
C95 O90 1.255 . S
C96 O97 1.258 . S
C96 O98 1.256 . S
O97 Cd89 2.381 . S
O97 C96 1.258 . S
O98 Cd89 2.378 . S
O98 C96 1.256 . S
O99 Cd100 2.300 1_655 S
O99 C106 1.275 . S
Cd100 O99 2.300 1_455 S
Cd100 O108 2.381 . S
Cd100 O109 2.378 . S
O101 Cd102 2.385 . S
O101 C106 1.255 1_455 S
Cd102 O101 2.385 . S
Cd102 O103 2.317 . S
O103 Cd102 2.317 . S
O103 C104 1.232 . S
C104 O103 1.232 . S
C104 O105 1.218 . S
O105 C104 1.218 . S
C106 O99 1.275 . S
C106 O101 1.255 1_655 S
C107 O108 1.258 . S
C107 O109 1.256 . S
O108 Cd100 2.381 . S
O108 C107 1.258 . S
O109 Cd100 2.378 . S
O109 C107 1.256 . S
O110 Cd111 2.300 . S
O110 C117 1.275 . S
Cd111 O110 2.300 . S
Cd111 O119 2.381 . S
Cd111 O120 2.378 . S
O112 Cd113 2.385 . S
O112 C117 1.255 . S
Cd113 O112 2.385 . S
Cd113 O114 2.317 . S
O114 Cd113 2.317 . S
O114 C115 1.232 . S
C115 O114 1.232 . S
C115 O116 1.218 . S
O116 C115 1.218 . S
C117 O110 1.275 . S
C117 O112 1.255 . S
C118 O119 1.258 . S
C118 O120 1.256 . S
O119 Cd111 2.381 . S
O119 C118 1.258 . S
O120 Cd111 2.378 . S
O120 C118 1.256 . S
O121 Cd122 2.300 . S
O121 C128 1.275 . S
Cd122 O121 2.300 . S
Cd122 O130 2.381 . S
Cd122 O131 2.378 . S
O123 Cd124 2.385 . S
O123 C128 1.255 . S
Cd124 O123 2.385 . S
Cd124 O125 2.317 . S
O125 Cd124 2.317 . S
O125 C126 1.232 . S
C126 O125 1.232 . S
C126 O127 1.218 . S
O127 C126 1.218 . S
C128 O121 1.275 . S
C128 O123 1.255 . S
C129 O130 1.258 . S
C129 O131 1.256 . S
O130 Cd122 2.381 . S
O130 C129 1.258 . S
O131 Cd122 2.378 . S
O131 C129 1.256 . S
O132 Cd133 2.300 . S
O132 C139 1.275 1_565 S
Cd133 O132 2.300 . S
Cd133 O141 2.381 . S
Cd133 O142 2.378 . S
O134 Cd135 2.385 . S
O134 C139 1.255 . S
Cd135 O134 2.385 . S
Cd135 O136 2.317 1_545 S
O136 Cd135 2.317 1_565 S
O136 C137 1.232 1_565 S
C137 O136 1.232 1_545 S
C137 O138 1.218 . S
O138 C137 1.218 . S
C139 O132 1.275 1_545 S
C139 O134 1.255 . S
C140 O141 1.258 . S
C140 O142 1.256 . S
O141 Cd133 2.381 . S
O141 C140 1.258 . S
O142 Cd133 2.378 . S
O142 C140 1.256 . S
O143 Cd144 2.300 1_455 S
O143 C150 1.275 . S
Cd144 O143 2.300 1_655 S
Cd144 O152 2.381 . S
Cd144 O153 2.378 . S
O145 Cd146 2.385 . S
O145 C150 1.255 1_655 S
Cd146 O145 2.385 . S
Cd146 O147 2.317 . S
O147 Cd146 2.317 . S
O147 C148 1.232 1_655 S
C148 O147 1.232 1_455 S
C148 O149 1.218 . S
O149 C148 1.218 . S
C150 O143 1.275 . S
C150 O145 1.255 1_455 S
C151 O152 1.258 . S
C151 O153 1.256 . S
O152 Cd144 2.381 . S
O152 C151 1.258 . S
O153 Cd144 2.378 . S
O153 C151 1.256 . S
O154 Cd155 2.300 . S
O154 C161 1.275 . S
Cd155 O154 2.300 . S
Cd155 O163 2.381 1_655 S
Cd155 O164 2.378 1_655 S
O156 Cd157 2.385 . S
O156 C161 1.255 . S
Cd157 O156 2.385 . S
Cd157 O158 2.317 . S
O158 Cd157 2.317 . S
O158 C159 1.242 . S
C159 O158 1.242 . S
C159 O160 1.211 1_545 S
O160 C159 1.211 1_565 S
C161 O154 1.275 . S
C161 O156 1.255 . S
C162 O163 1.258 . S
C162 O164 1.256 . S
O163 Cd155 2.381 1_455 S
O163 C162 1.258 . S
O164 Cd155 2.378 1_455 S
O164 C162 1.256 . S
O165 Cd166 2.300 . S
O165 C172 1.275 . S
Cd166 O165 2.300 . S
Cd166 O174 2.381 . S
Cd166 O175 2.378 . S
O167 Cd168 2.385 . S
O167 C172 1.255 . S
Cd168 O167 2.385 . S
Cd168 O169 2.317 . S
O169 Cd168 2.317 . S
O169 C170 1.232 . S
C170 O169 1.232 . S
C170 O171 1.218 . S
O171 C170 1.218 . S
C172 O165 1.275 . S
C172 O167 1.255 . S
C173 O174 1.258 . S
C173 O175 1.256 . S
O174 Cd166 2.381 . S
O174 C173 1.258 . S
O175 Cd166 2.378 . S
O175 C173 1.256 . S
O176 Cd177 2.300 1_556 S
O176 C183 1.275 . S
Cd177 O176 2.300 1_554 S
Cd177 O185 2.381 . S
Cd177 O186 2.378 . S
O178 Cd179 2.385 1_556 S
O178 C183 1.255 . S
Cd179 O178 2.385 1_554 S
Cd179 O180 2.317 1_554 S
O180 Cd179 2.317 1_556 S
O180 C181 1.232 . S
C181 O180 1.232 . S
C181 O182 1.218 . S
O182 C181 1.218 . S
C183 O176 1.275 . S
C183 O178 1.255 . S
C184 O185 1.258 . S
C184 O186 1.256 . S
O185 Cd177 2.381 . S
O185 C184 1.258 . S
O186 Cd177 2.378 . S
O186 C184 1.256 . S
O187 Cd188 2.301 . S
O187 C194 1.275 1_556 S
Cd188 O187 2.301 . S
Cd188 O196 2.384 . S
Cd188 O197 2.379 . S
O189 Cd190 2.385 . S
O189 C194 1.255 . S
Cd190 O189 2.385 . S
Cd190 O191 2.317 . S
O191 Cd190 2.317 . S
O191 C192 1.232 . S
C192 O191 1.232 . S
C192 O193 1.218 . S
O193 C192 1.218 . S
C194 O187 1.275 1_554 S
C194 O189 1.255 . S
C195 O196 1.258 . S
C195 O197 1.256 . S
O196 Cd188 2.384 . S
O196 C195 1.258 . S
O197 Cd188 2.379 . S
O197 C195 1.256 . S
O198 Cd199 2.300 . S
O198 C205 1.275 . S
Cd199 O198 2.300 . S
Cd199 O207 2.381 . S
Cd199 O208 2.378 . S
O200 Cd201 2.385 . S
O200 C205 1.255 . S
Cd201 O200 2.385 . S
Cd201 O202 2.317 . S
O202 Cd201 2.317 . S
O202 C203 1.232 . S
C203 O202 1.232 . S
C203 O204 1.218 . S
O204 C203 1.218 . S
C205 O198 1.275 . S
C205 O200 1.255 . S
C206 O207 1.258 . S
C206 O208 1.256 . S
O207 Cd199 2.381 . S
O207 C206 1.258 . S
O208 Cd199 2.378 . S
O208 C206 1.256 . S
O209 Cd210 2.300 . S
O209 C216 1.275 . S
Cd210 O209 2.300 . S
Cd210 O218 2.381 . S
Cd210 O219 2.378 . S
O211 Cd212 2.385 . S
O211 C216 1.255 . S
Cd212 O211 2.385 . S
Cd212 O213 2.317 . S
O213 Cd212 2.317 . S
O213 C214 1.232 . S
C214 O213 1.232 . S
C214 O215 1.218 . S
O215 C214 1.218 . S
C216 O209 1.275 . S
C216 O211 1.255 . S
C217 O218 1.258 . S
C217 O219 1.256 . S
O218 Cd210 2.381 . S
O218 C217 1.258 . S
O219 Cd210 2.378 . S
O219 C217 1.256 . S
O220 Cd221 2.300 . S
O220 C227 1.275 . S
Cd221 O220 2.300 . S
Cd221 O229 2.381 . S
Cd221 O230 2.378 . S
O222 Cd223 2.385 . S
O222 C227 1.255 . S
Cd223 O222 2.385 . S
Cd223 O224 2.317 . S
O224 Cd223 2.317 . S
O224 C225 1.232 . S
C225 O224 1.232 . S
C225 O226 1.218 . S
O226 C225 1.218 . S
C227 O220 1.275 . S
C227 O222 1.255 . S
C228 O229 1.258 . S
C228 O230 1.256 . S
O229 Cd221 2.381 . S
O229 C228 1.258 . S
O230 Cd221 2.378 . S
O230 C228 1.256 . S
O231 Cd232 2.300 . S
O231 C238 1.275 . S
Cd232 O231 2.300 . S
Cd232 O240 2.381 . S
Cd232 O241 2.378 . S
O233 Cd234 2.385 . S
O233 C238 1.255 1_556 S
Cd234 O233 2.385 . S
Cd234 O235 2.317 . S
O235 Cd234 2.317 . S
O235 C236 1.232 . S
C236 O235 1.232 . S
C236 O237 1.218 . S
O237 C236 1.218 . S
C238 O231 1.275 . S
C238 O233 1.255 1_554 S
C239 O240 1.258 . S
C239 O241 1.256 . S
O240 Cd232 2.381 . S
O240 C239 1.258 . S
O241 Cd232 2.378 . S
O241 C239 1.256 . S
O242 Cd243 2.300 . S
O242 C249 1.275 . S
Cd243 O242 2.300 . S
Cd243 O251 2.381 . S
Cd243 O252 2.378 . S
O244 Cd245 2.385 . S
O244 C249 1.255 . S
Cd245 O244 2.385 . S
Cd245 O246 2.317 . S
O246 Cd245 2.317 . S
O246 C247 1.232 . S
C247 O246 1.232 . S
C247 O248 1.218 . S
O248 C247 1.218 . S
C249 O242 1.275 . S
C249 O244 1.255 . S
C250 O251 1.258 . S
C250 O252 1.256 . S
O251 Cd243 2.381 . S
O251 C250 1.258 . S
O252 Cd243 2.378 . S
O252 C250 1.256 . S
O253 Cd254 2.300 . S
O253 C260 1.275 . S
Cd254 O253 2.300 . S
Cd254 O262 2.381 . S
Cd254 O263 2.378 . S
O255 Cd256 2.385 . S
O255 C260 1.255 . S
Cd256 O255 2.385 . S
Cd256 O257 2.317 . S
O257 Cd256 2.317 . S
O257 C258 1.232 . S
C258 O257 1.232 . S
C258 O259 1.218 . S
O259 C258 1.218 . S
C260 O253 1.275 . S
C260 O255 1.255 . S
C261 O262 1.258 . S
C261 O263 1.256 . S
O262 Cd254 2.381 . S
O262 C261 1.258 . S
O263 Cd254 2.378 . S
O263 C261 1.256 . S
C264 C265 1.369 . S
C264 C266 1.419 . S
C264 H268 0.930 . S
C265 C264 1.369 . S
C265 C274 1.429 . S
C266 C264 1.419 . S
C266 C267 1.363 . S
C266 H269 0.929 . S
C267 C266 1.363 . S
C267 C273 1.428 . S
H268 C264 0.930 . S
H269 C266 0.929 . S
S270 N271 1.613 . S
S270 N272 1.610 . S
N271 S270 1.613 . S
N271 C274 1.350 . S
N272 S270 1.610 . S
N272 C273 1.351 . S
C273 C267 1.428 . S
C273 N272 1.351 . S
C273 C274 1.434 . S
C274 C265 1.429 . S
C274 N271 1.350 . S
C274 C273 1.434 . S
C275 C276 1.369 . S
C275 C277 1.419 . S
C275 H279 0.930 . S
C276 C275 1.369 . S
C276 C285 1.429 . S
C277 C275 1.419 . S
C277 C278 1.363 . S
C277 H280 0.929 . S
C278 C277 1.363 . S
C278 C284 1.428 . S
H279 C275 0.930 . S
H280 C277 0.929 . S
S281 N282 1.613 . S
S281 N283 1.610 . S
N282 S281 1.613 . S
N282 C285 1.350 . S
N283 S281 1.610 . S
N283 C284 1.351 . S
C284 C278 1.428 . S
C284 N283 1.351 . S
C284 C285 1.434 . S
C285 C276 1.429 . S
C285 N282 1.350 . S
C285 C284 1.434 . S
C286 C287 1.369 . S
C286 C288 1.419 . S
C286 H290 0.930 . S
C287 C286 1.369 . S
C287 C296 1.429 . S
C288 C286 1.419 . S
C288 C289 1.363 . S
C288 H291 0.929 . S
C289 C288 1.363 . S
C289 C295 1.428 . S
H290 C286 0.930 . S
H291 C288 0.929 . S
S292 N293 1.613 . S
S292 N294 1.610 . S
N293 S292 1.613 . S
N293 C296 1.350 . S
N294 S292 1.610 . S
N294 C295 1.351 . S
C295 C289 1.428 . S
C295 N294 1.351 . S
C295 C296 1.434 . S
C296 C287 1.429 . S
C296 N293 1.350 . S
C296 C295 1.434 . S
C297 C298 1.369 . S
C297 C299 1.421 1_545 S
C297 H301 0.930 . S
C298 C297 1.369 . S
C298 C307 1.429 . S
C299 C297 1.421 1_565 S
C299 C300 1.361 . S
C299 H302 0.928 . S
C300 C299 1.361 . S
C300 C306 1.428 . S
H301 C297 0.930 . S
H302 C299 0.928 . S
S303 N304 1.613 . S
S303 N305 1.610 1_545 S
N304 S303 1.613 . S
N304 C307 1.350 . S
N305 S303 1.610 1_565 S
N305 C306 1.351 . S
C306 C300 1.428 . S
C306 N305 1.351 . S
C306 C307 1.434 1_565 S
C307 C298 1.429 . S
C307 N304 1.350 . S
C307 C306 1.434 1_545 S
C308 C309 1.369 . S
C308 C310 1.419 . S
C308 H312 0.930 . S
C309 C308 1.369 . S
C309 C318 1.429 . S
C310 C308 1.419 . S
C310 C311 1.363 . S
C310 H313 0.929 . S
C311 C310 1.363 . S
C311 C317 1.430 . S
H312 C308 0.930 . S
H313 C310 0.929 . S
S314 N315 1.613 . S
S314 N316 1.610 . S
N315 S314 1.613 . S
N315 C318 1.350 1_565 S
N316 S314 1.610 . S
N316 C317 1.349 1_565 S
C317 C311 1.430 . S
C317 N316 1.349 1_545 S
C317 C318 1.435 . S
C318 C309 1.429 . S
C318 N315 1.350 1_545 S
C318 C317 1.435 . S
C319 C320 1.369 1_455 S
C319 C321 1.419 . S
C319 H323 0.930 . S
C320 C319 1.369 1_655 S
C320 C329 1.429 . S
C321 C319 1.419 . S
C321 C322 1.363 . S
C321 H324 0.929 . S
C322 C321 1.363 . S
C322 C328 1.428 1_455 S
H323 C319 0.930 . S
H324 C321 0.929 . S
S325 N326 1.613 . S
S325 N327 1.610 . S
N326 S325 1.613 . S
N326 C329 1.350 . S
N327 S325 1.610 . S
N327 C328 1.351 . S
C328 C322 1.428 1_655 S
C328 N327 1.351 . S
C328 C329 1.434 . S
C329 C320 1.429 . S
C329 N326 1.350 . S
C329 C328 1.434 . S
C330 C331 1.369 . S
C330 C332 1.419 . S
C330 H334 0.930 . S
C331 C330 1.369 . S
C331 C340 1.429 . S
C332 C330 1.419 . S
C332 C333 1.363 . S
C332 H335 0.929 . S
C333 C332 1.363 . S
C333 C339 1.428 . S
H334 C330 0.930 . S
H335 C332 0.929 . S
S336 N337 1.613 1_545 S
S336 N338 1.610 . S
N337 S336 1.613 1_565 S
N337 C340 1.350 . S
N338 S336 1.610 . S
N338 C339 1.351 1_545 S
C339 C333 1.428 . S
C339 N338 1.351 1_565 S
C339 C340 1.434 . S
C340 C331 1.429 . S
C340 N337 1.350 . S
C340 C339 1.434 . S
C341 C342 1.369 . S
C341 C343 1.419 . S
C341 H345 0.930 . S
C342 C341 1.369 . S
C342 C351 1.429 . S
C343 C341 1.419 . S
C343 C344 1.363 1_455 S
C343 H346 0.929 . S
C344 C343 1.363 1_655 S
C344 C350 1.428 . S
H345 C341 0.930 . S
H346 C343 0.929 . S
S347 N348 1.613 . S
S347 N349 1.610 1_455 S
N348 S347 1.613 . S
N348 C351 1.350 . S
N349 S347 1.610 1_655 S
N349 C350 1.351 . S
C350 C344 1.428 . S
C350 N349 1.351 . S
C350 C351 1.434 1_655 S
C351 C342 1.429 . S
C351 N348 1.350 . S
C351 C350 1.434 1_455 S
C352 C353 1.369 . S
C352 C354 1.419 . S
C352 H356 0.930 . S
C353 C352 1.369 . S
C353 C362 1.429 . S
C354 C352 1.419 . S
C354 C355 1.363 . S
C354 H357 0.929 . S
C355 C354 1.363 . S
C355 C361 1.428 . S
H356 C352 0.930 . S
H357 C354 0.929 . S
S358 N359 1.613 . S
S358 N360 1.610 . S
N359 S358 1.613 . S
N359 C362 1.350 . S
N360 S358 1.610 . S
N360 C361 1.351 . S
C361 C355 1.428 . S
C361 N360 1.351 . S
C361 C362 1.434 . S
C362 C353 1.429 . S
C362 N359 1.350 . S
C362 C361 1.434 . S
C363 C364 1.369 1_556 S
C363 C365 1.419 . S
C363 H367 0.930 . S
C364 C363 1.369 1_554 S
C364 C373 1.429 . S
C365 C363 1.419 . S
C365 C366 1.363 1_556 S
C365 H368 0.929 . S
C366 C365 1.363 1_554 S
C366 C372 1.428 . S
H367 C363 0.930 . S
H368 C365 0.929 . S
S369 N370 1.613 . S
S369 N371 1.610 . S
N370 S369 1.613 . S
N370 C373 1.350 . S
N371 S369 1.610 . S
N371 C372 1.351 . S
C372 C366 1.428 . S
C372 N371 1.351 . S
C372 C373 1.434 . S
C373 C364 1.429 . S
C373 N370 1.350 . S
C373 C372 1.434 . S
C374 C375 1.372 . S
C374 C376 1.419 . S
C374 H378 0.930 1_556 S
C375 C374 1.372 . S
C375 C384 1.440 . S
C376 C374 1.419 . S
C376 C377 1.363 . S
C376 H379 0.929 . S
C377 C376 1.363 . S
C377 C383 1.428 . S
H378 C374 0.930 1_554 S
H379 C376 0.929 . S
S380 N381 1.613 . S
S380 N382 1.610 . S
N381 S380 1.613 . S
N381 C384 1.350 . S
N382 S380 1.610 . S
N382 C383 1.351 . S
C383 C377 1.428 . S
C383 N382 1.351 . S
C383 C384 1.434 . S
C384 C375 1.440 . S
C384 N381 1.350 . S
C384 C383 1.434 . S
C385 C386 1.369 . S
C385 C387 1.419 1_554 S
C385 H389 0.930 1_554 S
C386 C385 1.369 . S
C386 C395 1.429 . S
C387 C385 1.419 1_556 S
C387 C388 1.363 . S
C387 H390 0.929 . S
C388 C387 1.363 . S
C388 C394 1.428 1_556 S
H389 C385 0.930 1_556 S
H390 C387 0.929 . S
S391 N392 1.613 . S
S391 N393 1.610 . S
N392 S391 1.613 . S
N392 C395 1.350 . S
N393 S391 1.610 . S
N393 C394 1.351 . S
C394 C388 1.428 1_554 S
C394 N393 1.351 . S
C394 C395 1.434 . S
C395 C386 1.429 . S
C395 N392 1.350 . S
C395 C394 1.434 . S
C396 C397 1.369 . S
C396 C398 1.419 . S
C396 H400 0.930 . S
C397 C396 1.369 . S
C397 C406 1.429 . S
C398 C396 1.419 . S
C398 C399 1.363 . S
C398 H401 0.929 . S
C399 C398 1.363 . S
C399 C405 1.428 . S
H400 C396 0.930 . S
H401 C398 0.929 . S
S402 N403 1.613 . S
S402 N404 1.610 . S
N403 S402 1.613 . S
N403 C406 1.350 1_565 S
N404 S402 1.610 . S
N404 C405 1.351 1_565 S
C405 C399 1.428 . S
C405 N404 1.351 1_545 S
C405 C406 1.434 . S
C406 C397 1.429 . S
C406 N403 1.350 1_545 S
C406 C405 1.434 . S
C407 C408 1.369 . S
C407 C409 1.419 . S
C407 H411 0.930 . S
C408 C407 1.369 . S
C408 C417 1.429 . S
C409 C407 1.419 . S
C409 C410 1.363 . S
C409 H412 0.929 . S
C410 C409 1.363 . S
C410 C416 1.428 . S
H411 C407 0.930 . S
H412 C409 0.929 . S
S413 N414 1.613 . S
S413 N415 1.610 . S
N414 S413 1.613 . S
N414 C417 1.350 . S
N415 S413 1.610 . S
N415 C416 1.351 . S
C416 C410 1.428 . S
C416 N415 1.351 . S
C416 C417 1.434 . S
C417 C408 1.429 . S
C417 N414 1.350 . S
C417 C416 1.434 . S
C418 C419 1.335 1_545 S
C418 C420 1.419 . S
C418 H422 0.930 . S
C419 C418 1.335 1_565 S
C419 C428 1.436 . S
C420 C418 1.419 . S
C420 C421 1.363 . S
C420 H423 0.929 . S
C421 C420 1.363 . S
C421 C427 1.428 . S
H422 C418 0.930 . S
H423 C420 0.929 . S
S424 N425 1.613 . S
S424 N426 1.610 1_565 S
N425 S424 1.613 . S
N425 C428 1.350 . S
N426 S424 1.610 1_545 S
N426 C427 1.351 . S
C427 C421 1.428 . S
C427 N426 1.351 . S
C427 C428 1.434 1_545 S
C428 C419 1.436 . S
C428 N425 1.350 . S
C428 C427 1.434 1_565 S
C429 C430 1.369 . S
C429 C431 1.419 . S
C429 H433 0.930 . S
C430 C429 1.369 . S
C430 C439 1.429 . S
C431 C429 1.419 . S
C431 C432 1.363 . S
C431 H434 0.929 . S
C432 C431 1.363 . S
C432 C438 1.428 . S
H433 C429 0.930 . S
H434 C431 0.929 . S
S435 N436 1.613 . S
S435 N437 1.610 . S
N436 S435 1.613 . S
N436 C439 1.350 . S
N437 S435 1.610 . S
N437 C438 1.351 . S
C438 C432 1.428 . S
C438 N437 1.351 . S
C438 C439 1.434 . S
C439 C430 1.429 . S
C439 N436 1.350 . S
C439 C438 1.434 . S
C440 C441 1.369 . S
C440 C442 1.419 . S
C440 H444 0.930 . S
C441 C440 1.369 . S
C441 C450 1.429 . S
C442 C440 1.419 . S
C442 C443 1.363 . S
C442 H445 0.929 . S
C443 C442 1.363 . S
C443 C449 1.428 . S
H444 C440 0.930 . S
H445 C442 0.929 . S
S446 N447 1.613 . S
S446 N448 1.610 . S
N447 S446 1.613 . S
N447 C450 1.350 . S
N448 S446 1.610 . S
N448 C449 1.351 . S
C449 C443 1.428 . S
C449 N448 1.351 . S
C449 C450 1.434 . S
C450 C441 1.429 . S
C450 N447 1.350 . S
C450 C449 1.434 . S
C451 C452 1.369 . S
C451 C453 1.419 . S
C451 H455 0.930 . S
C452 C451 1.369 . S
C452 C461 1.429 . S
C453 C451 1.419 . S
C453 C454 1.363 . S
C453 H456 0.929 . S
C454 C453 1.363 . S
C454 C460 1.428 . S
H455 C451 0.930 . S
H456 C453 0.929 . S
S457 N458 1.613 . S
S457 N459 1.610 . S
N458 S457 1.613 . S
N458 C461 1.350 . S
N459 S457 1.610 . S
N459 C460 1.351 . S
C460 C454 1.428 . S
C460 N459 1.351 . S
C460 C461 1.434 . S
C461 C452 1.429 . S
C461 N458 1.350 . S
C461 C460 1.434 . S
C462 C463 1.369 . S
C462 C464 1.419 . S
C462 H466 0.930 . S
C463 C462 1.369 . S
C463 C472 1.429 . S
C464 C462 1.419 . S
C464 C465 1.363 . S
C464 H467 0.929 1_655 S
C465 C464 1.363 . S
C465 C471 1.428 . S
H466 C462 0.930 . S
H467 C464 0.929 1_455 S
S468 N469 1.613 1_545 S
S468 N470 1.610 . S
N469 S468 1.613 1_565 S
N469 C472 1.350 . S
N470 S468 1.610 . S
N470 C471 1.351 1_545 S
C471 C465 1.428 . S
C471 N470 1.351 1_565 S
C471 C472 1.434 . S
C472 C463 1.429 . S
C472 N469 1.350 . S
C472 C471 1.434 . S
C473 C474 1.369 . S
C473 C475 1.419 . S
C473 H477 0.930 . S
C474 C473 1.369 . S
C474 C483 1.429 . S
C475 C473 1.419 . S
C475 C476 1.363 . S
C475 H478 0.929 . S
C476 C475 1.363 . S
C476 C482 1.428 . S
H477 C473 0.930 . S
H478 C475 0.929 . S
S479 N480 1.613 . S
S479 N481 1.610 . S
N480 S479 1.613 . S
N480 C483 1.350 . S
N481 S479 1.610 . S
N481 C482 1.351 . S
C482 C476 1.428 . S
C482 N481 1.351 . S
C482 C483 1.434 . S
C483 C474 1.429 . S
C483 N480 1.350 . S
C483 C482 1.434 . S
C484 C485 1.369 . S
C484 C486 1.419 . S
C484 H488 0.930 . S
C485 C484 1.369 . S
C485 C494 1.429 . S
C486 C484 1.419 . S
C486 C487 1.363 . S
C486 H489 0.929 . S
C487 C486 1.363 . S
C487 C493 1.428 . S
H488 C484 0.930 . S
H489 C486 0.929 . S
S490 N491 1.613 . S
S490 N492 1.610 . S
N491 S490 1.613 . S
N491 C494 1.350 . S
N492 S490 1.610 . S
N492 C493 1.351 . S
C493 C487 1.428 . S
C493 N492 1.351 . S
C493 C494 1.434 . S
C494 C485 1.429 . S
C494 N491 1.350 . S
C494 C493 1.434 . S
C495 C496 1.369 . S
C495 C497 1.419 . S
C495 H499 0.930 . S
C496 C495 1.369 . S
C496 C505 1.429 1_556 S
C497 C495 1.419 . S
C497 C498 1.363 1_556 S
C497 H500 0.929 . S
C498 C497 1.363 1_554 S
C498 C504 1.428 . S
H499 C495 0.930 . S
H500 C497 0.929 . S
S501 N502 1.613 . S
S501 N503 1.610 . S
N502 S501 1.613 . S
N502 C505 1.350 . S
N503 S501 1.610 . S
N503 C504 1.351 . S
C504 C498 1.428 . S
C504 N503 1.351 . S
C504 C505 1.434 . S
C505 C496 1.429 1_554 S
C505 N502 1.350 . S
C505 C504 1.434 . S
C506 C507 1.369 . S
C506 C508 1.419 . S
C506 H510 0.930 . S
C507 C506 1.369 . S
C507 C516 1.429 1_556 S
C508 C506 1.419 . S
C508 C509 1.363 . S
C508 H511 0.929 . S
C509 C508 1.363 . S
C509 C515 1.428 1_556 S
H510 C506 0.930 . S
H511 C508 0.929 . S
S512 N513 1.613 . S
S512 N514 1.610 . S
N513 S512 1.613 . S
N513 C516 1.350 . S
N514 S512 1.610 . S
N514 C515 1.351 . S
C515 C509 1.428 1_554 S
C515 N514 1.351 . S
C515 C516 1.434 . S
C516 C507 1.429 1_554 S
C516 N513 1.350 . S
C516 C515 1.434 . S
C517 C518 1.369 . S
C517 C519 1.419 . S
C517 H521 0.910 1_554 S
C518 C517 1.369 . S
C518 C527 1.429 . S
C519 C517 1.419 . S
C519 C520 1.363 . S
C519 H522 0.929 1_554 S
C520 C519 1.363 . S
C520 C526 1.428 . S
H521 C517 0.910 1_556 S
H522 C519 0.929 1_556 S
S523 N524 1.613 . S
S523 N525 1.610 . S
N524 S523 1.613 . S
N524 C527 1.350 . S
N525 S523 1.610 . S
N525 C526 1.351 . S
C526 C520 1.428 . S
C526 N525 1.351 . S
C526 C527 1.434 . S
C527 C518 1.429 . S
C527 N524 1.350 . S
C527 C526 1.434 . S
C528 C529 1.369 . S
C528 C530 1.419 . S
C528 H532 0.930 . S
C529 C528 1.369 . S
C529 C538 1.429 . S
C530 C528 1.419 . S
C530 C531 1.363 . S
C530 H533 0.929 . S
C531 C530 1.363 . S
C531 C537 1.428 . S
H532 C528 0.930 . S
H533 C530 0.929 . S
S534 N535 1.613 . S
S534 N536 1.610 . S
N535 S534 1.613 . S
N535 C538 1.350 . S
N536 S534 1.610 . S
N536 C537 1.351 . S
C537 C531 1.428 . S
C537 N536 1.351 . S
C537 C538 1.434 . S
C538 C529 1.429 . S
C538 N535 1.350 . S
C538 C537 1.434 . S
C539 C540 1.369 . S
C539 C541 1.419 . S
C539 H543 0.930 . S
C540 C539 1.369 . S
C540 C549 1.429 . S
C541 C539 1.419 . S
C541 C542 1.363 . S
C541 H544 0.929 . S
C542 C541 1.363 . S
C542 C548 1.428 . S
H543 C539 0.930 . S
H544 C541 0.929 . S
S545 N546 1.613 . S
S545 N547 1.610 . S
N546 S545 1.613 . S
N546 C549 1.350 . S
N547 S545 1.610 . S
N547 C548 1.351 . S
C548 C542 1.428 . S
C548 N547 1.351 . S
C548 C549 1.434 . S
C549 C540 1.429 . S
C549 N546 1.350 . S
C549 C548 1.434 . S
C550 C551 1.369 . S
C550 C552 1.419 . S
C550 H554 0.930 . S
C551 C550 1.369 . S
C551 C560 1.429 . S
C552 C550 1.419 . S
C552 C553 1.363 . S
C552 H555 0.929 . S
C553 C552 1.363 . S
C553 C559 1.428 . S
H554 C550 0.930 . S
H555 C552 0.929 . S
S556 N557 1.613 . S
S556 N558 1.610 . S
N557 S556 1.613 . S
N557 C560 1.350 . S
N558 S556 1.610 . S
N558 C559 1.351 . S
C559 C553 1.428 . S
C559 N558 1.351 . S
C559 C560 1.434 . S
C560 C551 1.429 . S
C560 N557 1.350 . S
C560 C559 1.434 . S
C561 C562 1.369 . S
C561 C563 1.419 . S
C561 H565 0.930 . S
C562 C561 1.369 . S
C562 C571 1.429 . S
C563 C561 1.419 . S
C563 C564 1.363 . S
C563 H566 0.929 . S
C564 C563 1.363 . S
C564 C570 1.428 . S
H565 C561 0.930 . S
H566 C563 0.929 . S
S567 N568 1.613 . S
S567 N569 1.610 . S
N568 S567 1.613 . S
N568 C571 1.350 . S
N569 S567 1.610 . S
N569 C570 1.351 . S
C570 C564 1.428 . S
C570 N569 1.351 . S
C570 C571 1.434 . S
C571 C562 1.429 . S
C571 N568 1.350 . S
C571 C570 1.434 . S
C572 C573 1.369 . S
C572 C574 1.419 . S
C572 H576 0.930 . S
C573 C572 1.369 . S
C573 C582 1.429 . S
C574 C572 1.419 . S
C574 C575 1.363 . S
C574 H577 0.929 . S
C575 C574 1.363 . S
C575 C581 1.428 . S
H576 C572 0.930 . S
H577 C574 0.929 . S
S578 N579 1.613 . S
S578 N580 1.610 . S
N579 S578 1.613 . S
N579 C582 1.350 . S
N580 S578 1.610 . S
N580 C581 1.351 . S
C581 C575 1.428 . S
C581 N580 1.351 . S
C581 C582 1.434 . S
C582 C573 1.429 . S
C582 N579 1.350 . S
C582 C581 1.434 . S
C583 C584 1.369 . S
C583 C585 1.419 . S
C583 H587 0.930 . S
C584 C583 1.369 . S
C584 C593 1.429 . S
C585 C583 1.419 . S
C585 C586 1.363 . S
C585 H588 0.929 . S
C586 C585 1.363 . S
C586 C592 1.428 . S
H587 C583 0.930 . S
H588 C585 0.929 . S
S589 N590 1.613 . S
S589 N591 1.610 . S
N590 S589 1.613 . S
N590 C593 1.350 . S
N591 S589 1.610 . S
N591 C592 1.351 . S
C592 C586 1.428 . S
C592 N591 1.351 . S
C592 C593 1.434 . S
C593 C584 1.429 . S
C593 N590 1.350 . S
C593 C592 1.434 . S
C594 C595 1.369 . S
C594 C596 1.419 . S
C594 H598 0.930 . S
C595 C594 1.369 . S
C595 C604 1.429 . S
C596 C594 1.419 . S
C596 C597 1.363 . S
C596 H599 0.929 . S
C597 C596 1.363 . S
C597 C603 1.428 . S
H598 C594 0.930 . S
H599 C596 0.929 . S
S600 N601 1.613 . S
S600 N602 1.610 . S
N601 S600 1.613 . S
N601 C604 1.350 . S
N602 S600 1.610 . S
N602 C603 1.351 . S
C603 C597 1.428 . S
C603 N602 1.351 . S
C603 C604 1.434 . S
C604 C595 1.429 . S
C604 N601 1.350 . S
C604 C603 1.434 . S
C605 C606 1.369 . S
C605 C607 1.419 . S
C605 H609 0.930 . S
C606 C605 1.369 . S
C606 C615 1.429 . S
C607 C605 1.419 . S
C607 C608 1.363 . S
C607 H610 0.929 . S
C608 C607 1.363 . S
C608 C614 1.428 . S
H609 C605 0.930 . S
H610 C607 0.929 . S
S611 N612 1.613 . S
S611 N613 1.610 . S
N612 S611 1.613 . S
N612 C615 1.350 . S
N613 S611 1.610 . S
N613 C614 1.351 . S
C614 C608 1.428 . S
C614 N613 1.351 . S
C614 C615 1.434 . S
C615 C606 1.429 . S
C615 N612 1.350 . S
C615 C614 1.434 . S
C616 C617 1.369 . S
C616 C618 1.419 . S
C616 H620 0.930 . S
C617 C616 1.369 . S
C617 C626 1.429 . S
C618 C616 1.419 . S
C618 C619 1.363 . S
C618 H621 0.929 . S
C619 C618 1.363 . S
C619 C625 1.428 . S
H620 C616 0.930 . S
H621 C618 0.929 . S
S622 N623 1.613 . S
S622 N624 1.610 . S
N623 S622 1.613 . S
N623 C626 1.350 . S
N624 S622 1.610 . S
N624 C625 1.351 . S
C625 C619 1.428 . S
C625 N624 1.351 . S
C625 C626 1.434 . S
C626 C617 1.429 . S
C626 N623 1.350 . S
C626 C625 1.434 . S
C627 C628 1.369 . S
C627 C629 1.419 . S
C627 H631 0.930 . S
C628 C627 1.369 . S
C628 C637 1.429 . S
C629 C627 1.419 . S
C629 C630 1.363 . S
C629 H632 0.929 . S
C630 C629 1.363 . S
C630 C636 1.428 . S
H631 C627 0.930 . S
H632 C629 0.929 . S
S633 N634 1.613 . S
S633 N635 1.610 . S
N634 S633 1.613 . S
N634 C637 1.350 . S
N635 S633 1.610 . S
N635 C636 1.351 . S
C636 C630 1.428 . S
C636 N635 1.351 . S
C636 C637 1.434 . S
C637 C628 1.429 . S
C637 N634 1.350 . S
C637 C636 1.434 . S
C638 C639 1.369 1_655 S
C638 C640 1.419 . S
C638 H642 0.930 . S
C639 C638 1.369 1_455 S
C639 C648 1.429 . S
C640 C638 1.419 . S
C640 C641 1.363 1_655 S
C640 H643 0.929 . S
C641 C640 1.363 1_455 S
C641 C647 1.428 . S
H642 C638 0.930 . S
H643 C640 0.929 . S
S644 N645 1.613 . S
S644 N646 1.610 . S
N645 S644 1.613 . S
N645 C648 1.350 . S
N646 S644 1.610 . S
N646 C647 1.351 . S
C647 C641 1.428 . S
C647 N646 1.351 . S
C647 C648 1.434 . S
C648 C639 1.429 . S
C648 N645 1.350 . S
C648 C647 1.434 . S
C649 C650 1.369 1_455 S
C649 C651 1.419 . S
C649 H653 0.930 1_455 S
C650 C649 1.369 1_655 S
C650 C659 1.429 1_655 S
C651 C649 1.419 . S
C651 C652 1.363 . S
C651 H654 0.929 . S
C652 C651 1.363 . S
C652 C658 1.428 . S
H653 C649 0.930 1_655 S
H654 C651 0.929 . S
S655 N656 1.613 1_455 S
S655 N657 1.610 . S
N656 S655 1.613 1_655 S
N656 C659 1.350 1_655 S
N657 S655 1.610 . S
N657 C658 1.351 . S
C658 C652 1.428 . S
C658 N657 1.351 . S
C658 C659 1.434 . S
C659 C650 1.429 1_455 S
C659 N656 1.350 1_455 S
C659 C658 1.434 . S
C265 C7 1.528 . S
C267 C29 1.540 . S
C276 C18 1.314 . S
C278 C40 1.271 . S
C287 C73 1.462 . S
C289 C51 1.473 . S
C298 C62 1.333 . S
C300 C84 1.324 . S
C309 C95 1.353 . S
C311 C139 1.462 . S
C320 C106 1.031 . S
C322 C150 1.005 . S
C331 C117 1.406 . S
C333 C161 1.280 1_565 S
C342 C128 1.347 . S
C344 C172 1.206 . S
C353 C183 1.017 . S
C355 C216 1.174 . S
C364 C238 1.430 . S
C366 C194 1.412 . S
C375 C249 1.449 1_556 S
C377 C205 1.605 . S
C386 C260 1.404 . S
C388 C227 1.374 . S
C397 C93 1.538 . S
C399 C38 1.319 . S
C408 C8 1.546 . S
C410 C107 1.510 . S
C419 C118 1.661 . S
C421 C19 1.554 . S
C430 C30 1.644 . S
C432 C126 1.621 . S
C441 C60 1.358 . S
C443 C137 1.448 . S
C452 C151 1.783 . S
C454 C74 1.791 . S
C463 C82 1.378 . S
C465 C159 1.296 1_565 S
C474 C173 1.635 . S
C476 C49 1.222 . S
C485 C181 1.385 . S
C487 C203 1.950 . S
C496 C217 1.588 . S
C498 C261 1.623 . S
C507 C228 1.504 . S
C509 C236 1.301 . S
C518 C250 1.863 . S
C520 C192 1.795 . S
C529 C225 1.333 . S
C531 C71 1.305 . S
C540 C85 1.688 . S
C542 C195 1.731 . S
C551 C206 1.759 . S
C553 C52 1.636 . S
C562 C63 1.562 . S
C564 C214 1.476 . S
C573 C27 1.441 . S
C575 C258 1.243 . S
C584 C239 1.742 . S
C586 C41 1.635 . S
C595 C5 1.561 . S
C597 C247 1.167 . S
C606 C184 1.654 . S
C608 C16 1.315 . S
C617 C170 1.150 . S
C619 C115 1.438 . S
C628 C129 1.514 . S
C630 C140 1.531 . S
C639 C96 1.680 . S
C641 C148 1.137 . S
C650 C104 1.396 1_655 S
C652 C162 1.788 . S
