# Generated by pormake.
# Topology qtz-e, (6)-cn, num edge types: 1
# Building blocks:
#     Node 0, Type 0, BuildingBlock: PAMTOO_clean_sbu_0, # of connection points: 6
#     Node 1, Type 0, BuildingBlock: PAMTOO_clean_sbu_0, # of connection points: 6
#     Node 2, Type 0, BuildingBlock: PAMTOO_clean_sbu_0, # of connection points: 6
#     Node 3, Type 0, BuildingBlock: PAMTOO_clean_sbu_0, # of connection points: 6
#     Node 4, Type 0, BuildingBlock: PAMTOO_clean_sbu_0, # of connection points: 6
#     Node 5, Type 0, BuildingBlock: PAMTOO_clean_sbu_0, # of connection points: 6
#     Edge 6, Type (0, 0), BuildingBlock: EZIPEK_clean_linker_0, # of connection points: 2
#     Edge 7, Type (0, 0), BuildingBlock: EZIPEK_clean_linker_0, # of connection points: 2
#     Edge 8, Type (0, 0), BuildingBlock: EZIPEK_clean_linker_0, # of connection points: 2
#     Edge 9, Type (0, 0), BuildingBlock: EZIPEK_clean_linker_0, # of connection points: 2
#     Edge 10, Type (0, 0), BuildingBlock: EZIPEK_clean_linker_0, # of connection points: 2
#     Edge 11, Type (0, 0), BuildingBlock: EZIPEK_clean_linker_0, # of connection points: 2
#     Edge 12, Type (0, 0), BuildingBlock: EZIPEK_clean_linker_0, # of connection points: 2
#     Edge 13, Type (0, 0), BuildingBlock: EZIPEK_clean_linker_0, # of connection points: 2
#     Edge 14, Type (0, 0), BuildingBlock: EZIPEK_clean_linker_0, # of connection points: 2
#     Edge 15, Type (0, 0), BuildingBlock: EZIPEK_clean_linker_0, # of connection points: 2
#     Edge 16, Type (0, 0), BuildingBlock: EZIPEK_clean_linker_0, # of connection points: 2
#     Edge 17, Type (0, 0), BuildingBlock: EZIPEK_clean_linker_0, # of connection points: 2
#     Edge 18, Type (0, 0), BuildingBlock: EZIPEK_clean_linker_0, # of connection points: 2
#     Edge 19, Type (0, 0), BuildingBlock: EZIPEK_clean_linker_0, # of connection points: 2
#     Edge 20, Type (0, 0), BuildingBlock: EZIPEK_clean_linker_0, # of connection points: 2
#     Edge 21, Type (0, 0), BuildingBlock: EZIPEK_clean_linker_0, # of connection points: 2
#     Edge 22, Type (0, 0), BuildingBlock: EZIPEK_clean_linker_0, # of connection points: 2
#     Edge 23, Type (0, 0), BuildingBlock: EZIPEK_clean_linker_0, # of connection points: 2
# Relax obj value: 0.254
# Max RMSD: 0.233
# Mean RMSD: 0.232
data_MOF--net-qtz-e--node1-PAMTOO_clean_sbu_0--edge1-EZIPEK_clean_linker_0
_symmetry_space_group_name_H-M    P1
_symmetry_Int_Tables_number       1
_symmetry_cell_setting            triclinic
loop_
_symmetry_equiv_pos_as_xyz
'x, y, z'
_cell_length_a     20.247793
_cell_length_b     20.207118
_cell_length_c     40.868662
_cell_angle_alpha  89.941044
_cell_angle_beta   89.909672
_cell_angle_gamma 119.82763
loop_
_atom_site_label
_atom_site_type_symbol
_atom_site_fract_x
_atom_site_fract_y
_atom_site_fract_z
_atom_type_partial_charge
Dy0 Dy 0.09151 0.36252 0.17766 0.0
Dy1 Dy 0.16635 0.53609 0.20802 0.0
C2 C 0.26871 0.46096 0.19244 0.0
O3 O 0.04075 0.35145 0.2286 0.0
O4 O 0.14488 0.45569 0.24968 0.0
O5 O 0.09567 0.25837 0.16987 0.0
O6 O 0.0059 0.27119 0.148 0.0
O7 O 0.04371 0.49511 0.19868 0.0
O8 O 0.03002 0.41872 0.15567 0.0
O9 O 0.17634 0.5543 0.15372 0.0
O10 O 0.1675 0.44049 0.13827 0.0
O11 O 0.14924 0.62161 0.23197 0.0
O12 O 0.26258 0.64617 0.21898 0.0
C13 C 0.0796 0.39255 0.25418 0.0
O14 O 0.20791 0.39353 0.19613 0.0
O15 O 0.26454 0.52335 0.19345 0.0
C16 C 0.06192 0.21367 0.11497 0.0
C17 C 0.10276 0.1795 0.05307 0.0
C18 C 0.1296 0.16451 0.08228 0.0
C19 C 0.10931 0.18118 0.11281 0.0
C20 C 0.03501 0.22849 0.0856 0.0
C21 C 0.05516 0.21157 0.05508 0.0
C22 C 0.0426 0.23335 0.14764 0.0
C23 C 0.01341 0.46642 0.17038 0.0
C24 C 0.18468 0.5111 0.13205 0.0
C25 C 0.24782 0.69695 0.26862 0.0
C26 C 0.29339 0.74432 0.33294 0.0
C27 C 0.22133 0.72862 0.32243 0.0
C28 C 0.19878 0.70555 0.29035 0.0
C29 C 0.32055 0.71368 0.2793 0.0
C30 C 0.34315 0.73721 0.31135 0.0
C31 C 0.22187 0.66828 0.23537 0.0
H32 H 0.16627 0.13972 0.08142 0.0
H33 H 0.13111 0.16896 0.1348 0.0
H34 H 0.99854 0.25351 0.0861 0.0
H35 H 0.03356 0.22354 0.03295 0.0
H36 H 0.18285 0.73444 0.33907 0.0
H37 H 0.1427 0.6936 0.28269 0.0
H38 H 0.3598 0.70806 0.26306 0.0
H39 H 0.39921 0.74983 0.31936 0.0
Dy40 Dy 0.94183 0.29482 0.46677 0.0
Dy41 Dy 0.84834 0.37559 0.43393 0.0
C42 C 0.76732 0.20291 0.44514 0.0
O43 O 0.96734 0.2982 0.41228 0.0
O44 O 0.92502 0.37901 0.39382 0.0
O45 O 0.94665 0.19106 0.47403 0.0
O46 O 0.02179 0.29269 0.50133 0.0
O47 O 0.93868 0.46017 0.46597 0.0
O48 O 0.02627 0.41957 0.46332 0.0
O49 O 0.80485 0.35095 0.48493 0.0
O50 O 0.89645 0.33094 0.509 0.0
O51 O 0.85168 0.4723 0.41012 0.0
O52 O 0.74332 0.37425 0.42405 0.0
C53 C 0.96048 0.3401 0.38894 0.0
O54 O 0.81658 0.21783 0.46863 0.0
O55 O 0.78493 0.2526 0.42165 0.0
C56 C 0.96679 0.17546 0.53021 0.0
C57 C 0.92001 0.09794 0.59123 0.0
C58 C 0.87255 0.11835 0.57411 0.0
C59 C 0.89574 0.15682 0.54395 0.0
C60 C 0.01402 0.1548 0.54726 0.0
C61 C 0.99089 0.11644 0.57745 0.0
C62 C 0.99283 0.21898 0.49896 0.0
C63 C 0.00804 0.47239 0.4694 0.0
C64 C 0.83715 0.34103 0.51077 0.0
C65 C 0.74901 0.43828 0.37516 0.0
C66 C 0.71472 0.44354 0.30953 0.0
C67 C 0.74699 0.51029 0.3283 0.0
C68 C 0.76379 0.50758 0.3611 0.0
C69 C 0.71436 0.37105 0.35651 0.0
C70 C 0.69659 0.37359 0.32384 0.0
C71 C 0.77764 0.43857 0.40791 0.0
H72 H 0.81782 0.10505 0.58424 0.0
H73 H 0.85841 0.17261 0.53147 0.0
H74 H 0.06915 0.16889 0.53735 0.0
H75 H 0.02854 0.10152 0.59021 0.0
H76 H 0.76133 0.56461 0.31725 0.0
H77 H 0.79115 0.55995 0.37514 0.0
H78 H 0.7037 0.31724 0.36676 0.0
H79 H 0.67201 0.32192 0.30934 0.0
Dy80 Dy 0.66471 0.7397 0.8419 0.0
Dy81 Dy 0.4892 0.65383 0.87395 0.0
C82 C 0.57798 0.82834 0.86656 0.0
O83 O 0.68702 0.72779 0.89557 0.0
O84 O 0.56365 0.66041 0.91526 0.0
O85 O 0.77111 0.84539 0.83504 0.0
O86 O 0.74841 0.74539 0.80717 0.0
O87 O 0.49797 0.57055 0.84149 0.0
O88 O 0.62693 0.61487 0.84067 0.0
O89 O 0.47352 0.68759 0.82409 0.0
O90 O 0.58406 0.70475 0.79987 0.0
O91 O 0.40015 0.55338 0.89738 0.0
O92 O 0.38198 0.64762 0.88447 0.0
C93 C 0.63765 0.6922 0.91956 0.0
O94 O 0.61589 0.81773 0.84301 0.0
O95 O 0.54283 0.77513 0.88845 0.0
C96 C 0.80935 0.86351 0.77893 0.0
C97 C 0.84067 0.94152 0.71799 0.0
C98 C 0.77966 0.93261 0.73765 0.0
C99 C 0.76389 0.89366 0.76773 0.0
C100 C 0.87044 0.87279 0.7593 0.0
C101 C 0.88592 0.91131 0.72916 0.0
C102 C 0.7912 0.81912 0.81 0.0
C103 C 0.5562 0.56104 0.83536 0.0
C104 C 0.51565 0.6965 0.79828 0.0
C105 C 0.32864 0.58155 0.93365 0.0
C106 C 0.2851 0.57362 0.99911 0.0
C107 C 0.25158 0.50788 0.97962 0.0
C108 C 0.2732 0.5119 0.94697 0.0
C109 C 0.36176 0.64742 0.95316 0.0
C110 C 0.33947 0.64361 0.98568 0.0
C111 C 0.35634 0.58336 0.90044 0.0
H112 H 0.74384 0.9552 0.72956 0.0
H113 H 0.71578 0.88654 0.78212 0.0
H114 H 0.9059 0.84959 0.76717 0.0
H115 H 0.93322 0.91745 0.71446 0.0
H116 H 0.20947 0.45351 0.98984 0.0
H117 H 0.24798 0.46044 0.93232 0.0
H118 H 0.40585 0.70136 0.94351 0.0
H119 H 0.36563 0.69466 1.00057 0.0
Dy120 Dy 0.74169 0.66053 0.13259 0.0
Dy121 Dy 0.66078 0.48562 0.0995 0.0
C122 C 0.83384 0.5772 0.10842 0.0
O123 O 0.73028 0.68373 0.07888 0.0
O124 O 0.66657 0.56066 0.05853 0.0
O125 O 0.84621 0.76757 0.14093 0.0
O126 O 0.74329 0.74322 0.16674 0.0
O127 O 0.57382 0.49052 0.13087 0.0
O128 O 0.61637 0.61938 0.13379 0.0
O129 O 0.69329 0.46929 0.14947 0.0
O130 O 0.70522 0.57753 0.17404 0.0
O131 O 0.56246 0.39516 0.0758 0.0
O132 O 0.65883 0.38052 0.0883 0.0
C133 C 0.69633 0.63473 0.05464 0.0
O134 O 0.82158 0.61398 0.13195 0.0
O135 O 0.78259 0.54361 0.08579 0.0
C136 C 0.85915 0.80731 0.1973 0.0
C137 C 0.93773 0.84743 0.25836 0.0
C138 C 0.97372 0.84243 0.22973 0.0
C139 C 0.93501 0.82264 0.1996 0.0
C140 C 0.8235 0.81259 0.22606 0.0
C141 C 0.86211 0.83206 0.25615 0.0
C142 C 0.81714 0.78653 0.16532 0.0
C143 C 0.56315 0.54769 0.13797 0.0
C144 C 0.69842 0.50951 0.17542 0.0
C145 C 0.59358 0.3267 0.03915 0.0
C146 C 0.58632 0.28455 0.97359 0.0
C147 C 0.52079 0.24976 0.99321 0.0
C148 C 0.52449 0.27061 0.02591 0.0
C149 C 0.65928 0.36124 0.0195 0.0
C150 C 0.65585 0.33951 0.98694 0.0
C151 C 0.59458 0.35334 0.07244 0.0
H152 H 0.03203 0.85418 0.2307 0.0
H153 H 0.96469 0.81953 0.17811 0.0
H154 H 0.76546 0.80171 0.22534 0.0
H155 H 0.83303 0.83563 0.27777 0.0
H156 H 0.46684 0.20694 0.9831 0.0
H157 H 0.47318 0.24422 0.04068 0.0
H158 H 0.71277 0.40587 0.02908 0.0
H159 H 0.70683 0.36643 0.97197 0.0
Dy160 Dy 0.29447 0.95326 0.50932 0.0
Dy161 Dy 0.38377 0.86285 0.54018 0.0
C162 C 0.20633 0.77007 0.52113 0.0
O163 O 0.30081 0.98168 0.56316 0.0
O164 O 0.36325 0.92001 0.5829 0.0
O165 O 0.19563 0.9669 0.50165 0.0
O166 O 0.29765 0.03336 0.47322 0.0
O167 O 0.46437 0.95377 0.50762 0.0
O168 O 0.42031 0.03833 0.51026 0.0
O169 O 0.38286 0.83839 0.48758 0.0
O170 O 0.31107 0.89013 0.46808 0.0
O171 O 0.48386 0.87511 0.56436 0.0
O172 O 0.39134 0.7629 0.55126 0.0
C173 C 0.33178 0.96282 0.58734 0.0
O174 O 0.20271 0.83251 0.51683 0.0
O175 O 0.26665 0.76958 0.53224 0.0
C176 C 0.18045 0.98465 0.44434 0.0
C177 C 0.09977 0.93725 0.38389 0.0
C178 C 0.06702 0.89694 0.41306 0.0
C179 C 0.10685 0.92018 0.44287 0.0
C180 C 0.21274 0.02502 0.41509 0.0
C181 C 0.17313 0.00151 0.38531 0.0
C182 C 0.225 0.00925 0.47561 0.0
C183 C 0.47361 0.02165 0.50278 0.0
C184 C 0.34608 0.85063 0.46428 0.0
C185 C 0.4545 0.77447 0.60019 0.0
C186 C 0.45802 0.73293 0.66484 0.0
C187 C 0.51718 0.74522 0.6434 0.0
C188 C 0.51536 0.76594 0.61103 0.0
C189 C 0.39455 0.76058 0.62152 0.0
C190 C 0.39614 0.73947 0.65376 0.0
C191 C 0.45507 0.80147 0.56718 0.0
H192 H 0.01055 0.84729 0.41271 0.0
H193 H 0.07999 0.88729 0.46472 0.0
H194 H 0.26913 0.07482 0.4152 0.0
H195 H 0.19975 0.03372 0.36328 0.0
H196 H 0.56553 0.74095 0.65199 0.0
H197 H 0.56206 0.77705 0.59474 0.0
H198 H 0.34751 0.7677 0.61341 0.0
H199 H 0.35068 0.73082 0.67033 0.0
Dy200 Dy 0.36335 0.08805 0.80017 0.0
Dy201 Dy 0.53307 0.15387 0.76607 0.0
C202 C 0.46446 0.26363 0.78149 0.0
O203 O 0.34506 0.03642 0.74925 0.0
O204 O 0.45127 0.13506 0.72572 0.0
O205 O 0.26174 0.09577 0.80953 0.0
O206 O 0.27444 0.00653 0.83218 0.0
O207 O 0.48539 0.03016 0.77654 0.0
O208 O 0.41762 0.02401 0.82152 0.0
O209 O 0.55559 0.16446 0.82 0.0
O210 O 0.44819 0.16665 0.83686 0.0
O211 O 0.60381 0.13129 0.73372 0.0
O212 O 0.65134 0.23854 0.7597 0.0
C213 C 0.38494 0.07242 0.72282 0.0
O214 O 0.39578 0.20392 0.78031 0.0
O215 O 0.52527 0.25715 0.77775 0.0
C216 C 0.2183 0.0639 0.86434 0.0
C217 C 0.18272 0.10459 0.92578 0.0
C218 C 0.25712 0.11987 0.91884 0.0
C219 C 0.27477 0.0999 0.88843 0.0
C220 C 0.14414 0.04908 0.87121 0.0
C221 C 0.12651 0.06918 0.90158 0.0
C222 C 0.23641 0.04297 0.83197 0.0
C223 C 0.4611 0.00345 0.8058 0.0
C224 C 0.51763 0.17952 0.84196 0.0
C225 C 0.69676 0.23921 0.70656 0.0
C226 C 0.74616 0.29953 0.644 0.0
C227 C 0.75932 0.24195 0.65572 0.0
C228 C 0.73495 0.2121 0.68695 0.0
C229 C 0.68604 0.29894 0.69524 0.0
C230 C 0.71142 0.32955 0.66411 0.0
C231 C 0.66218 0.19944 0.73715 0.0
H232 H 0.3015 0.14708 0.93703 0.0
H233 H 0.33254 0.1125 0.88376 0.0
H234 H 0.09971 0.02182 0.85305 0.0
H235 H 0.0688 0.05679 0.90628 0.0
H236 H 0.78627 0.21856 0.64029 0.0
H237 H 0.74325 0.16583 0.69531 0.0
H238 H 0.65593 0.3201 0.70993 0.0
H239 H 0.70098 0.37398 0.65515 0.0
C240 C 0.30471 0.74182 0.42513 0.0
C241 C 0.34588 0.82141 0.43136 0.0
C242 C 0.35955 0.84974 0.37294 0.0
C243 C 0.31725 0.77048 0.36659 0.0
N244 N 0.26285 0.64031 0.38496 0.0
N245 N 0.43254 0.94835 0.41241 0.0
C246 C 0.29427 0.71612 0.39223 0.0
C247 C 0.37955 0.87458 0.40555 0.0
N248 N 0.2731 0.69131 0.45045 0.0
N249 N 0.37802 0.90119 0.34799 0.0
H250 H 0.45048 0.96644 0.43624 0.0
H251 H 0.46449 0.98876 0.39464 0.0
H252 H 0.3659 0.88522 0.3235 0.0
H253 H 0.40075 0.9595 0.35173 0.0
H254 H 0.23495 0.63341 0.44742 0.0
H255 H 0.28201 0.70777 0.47491 0.0
H256 H 0.25089 0.59808 0.40231 0.0
H257 H 0.25378 0.61989 0.361 0.0
C258 C 0.70785 0.28523 0.58547 0.0
C259 C 0.76431 0.32376 0.60963 0.0
C260 C 0.8588 0.39302 0.56731 0.0
C261 C 0.80736 0.34301 0.54359 0.0
N262 N 0.6805 0.24364 0.52918 0.0
N263 N 0.8931 0.41541 0.62456 0.0
C264 C 0.73054 0.29081 0.55221 0.0
C265 C 0.83959 0.37869 0.60086 0.0
N266 N 0.63304 0.24232 0.59452 0.0
N267 N 0.92454 0.4559 0.5575 0.0
H268 H 0.87993 0.40884 0.64948 0.0
H269 H 0.95102 0.44915 0.61958 0.0
H270 H 0.93688 0.46999 0.53286 0.0
H271 H 0.96175 0.4982 0.57344 0.0
H272 H 0.58791 0.21923 0.57808 0.0
H273 H 0.61499 0.23473 0.61882 0.0
H274 H 0.62571 0.20021 0.53452 0.0
H275 H 0.69426 0.24498 0.5046 0.0
C276 C 0.16314 0.53748 0.0743 0.0
C277 C 0.21399 0.54191 0.09916 0.0
C278 C 0.31395 0.57285 0.05859 0.0
C279 C 0.2631 0.56862 0.03379 0.0
N280 N 0.14744 0.56694 0.01835 0.0
N281 N 0.34297 0.5869 0.11645 0.0
C282 C 0.19013 0.55728 0.04177 0.0
C283 C 0.29123 0.56696 0.09176 0.0
N284 N 0.08853 0.51204 0.08158 0.0
N285 N 0.38249 0.57937 0.05042 0.0
H286 H 0.32812 0.58646 0.14087 0.0
H287 H 0.4014 0.61185 0.11262 0.0
H288 H 0.40094 0.58297 0.02631 0.0
H289 H 0.41886 0.57574 0.06737 0.0
H290 H 0.04641 0.498 0.06403 0.0
H291 H 0.06814 0.50144 0.10541 0.0
H292 H 0.09706 0.56701 0.0234 0.0
H293 H 0.16589 0.58186 0.99423 0.0
C294 C 0.76663 0.46138 0.2531 0.0
C295 C 0.70566 0.44846 0.27417 0.0
C296 C 0.63243 0.45391 0.22801 0.0
C297 C 0.69754 0.47819 0.20792 0.0
N298 N 0.82739 0.5072 0.2005 0.0
N299 N 0.58168 0.43461 0.28309 0.0
C300 C 0.76458 0.4814 0.22007 0.0
C301 C 0.63848 0.44471 0.262 0.0
N302 N 0.82634 0.45459 0.26475 0.0
N303 N 0.56456 0.43785 0.21431 0.0
H304 H 0.583 0.42454 0.30807 0.0
H305 H 0.5354 0.44061 0.27629 0.0
H306 H 0.55818 0.44149 0.18922 0.0
H307 H 0.51328 0.41395 0.22711 0.0
H308 H 0.86841 0.45516 0.24988 0.0
H309 H 0.83115 0.44263 0.28917 0.0
H310 H 0.8811 0.52063 0.20894 0.0
H311 H 0.82662 0.51906 0.1758 0.0
C312 C 0.46419 0.63831 0.74379 0.0
C313 C 0.48695 0.70013 0.76575 0.0
C314 C 0.48822 0.78216 0.72168 0.0
C315 C 0.46441 0.72021 0.69977 0.0
N316 N 0.41574 0.5863 0.68995 0.0
N317 N 0.50115 0.82317 0.77786 0.0
C318 C 0.44801 0.64712 0.71083 0.0
C319 C 0.49251 0.76956 0.75541 0.0
N320 N 0.45908 0.5718 0.75443 0.0
N321 N 0.51015 0.85378 0.71009 0.0
H322 H 0.50378 0.81522 0.80284 0.0
H323 H 0.49751 0.87139 0.77202 0.0
H324 H 0.50758 0.86567 0.68544 0.0
H325 H 0.53677 0.90272 0.72445 0.0
H326 H 0.45227 0.52796 0.73897 0.0
H327 H 0.46448 0.5616 0.779 0.0
H328 H 0.3957 0.5301 0.69723 0.0
H329 H 0.40373 0.5913 0.66555 0.0
C330 C 0.58639 0.31227 0.9139 0.0
C331 C 0.58157 0.26185 0.93907 0.0
C332 C 0.54924 0.16036 0.8992 0.0
C333 C 0.55251 0.21043 0.87407 0.0
N334 N 0.59378 0.34026 0.85706 0.0
N335 N 0.57975 0.14618 0.95518 0.0
C336 C 0.57761 0.28794 0.88116 0.0
C337 C 0.56974 0.18835 0.93154 0.0
N338 N 0.59836 0.3835 0.92098 0.0
N339 N 0.52341 0.08538 0.89246 0.0
H340 H 0.59547 0.16552 0.97911 0.0
H341 H 0.57941 0.09539 0.95046 0.0
H342 H 0.51187 0.06435 0.86881 0.0
H343 H 0.51 0.04367 0.91027 0.0
H344 H 0.60137 0.42131 0.90281 0.0
H345 H 0.60291 0.40381 0.94479 0.0
H346 H 0.59315 0.32817 0.83223 0.0
H347 H 0.59315 0.32817 0.83223 0.0
C348 C 0.40986 0.52346 0.19926 0.0
C349 C 0.34327 0.46974 0.18238 0.0
C350 C 0.42135 0.47543 0.13533 0.0
C351 C 0.48812 0.52737 0.15248 0.0
N352 N 0.5475 0.58948 0.20322 0.0
N353 N 0.28785 0.38085 0.13737 0.0
C354 C 0.48292 0.5485 0.18513 0.0
C355 C 0.34972 0.44097 0.1515 0.0
N356 N 0.40293 0.55119 0.22879 0.0
N357 N 0.42596 0.46161 0.10288 0.0
H358 H 0.23394 0.35348 0.14774 0.0
H359 H 0.29128 0.35244 0.11676 0.0
H360 H 0.47718 0.48626 0.09001 0.0
H361 H 0.3787 0.43223 0.08782 0.0
H362 H 0.44751 0.59807 0.24028 0.0
H363 H 0.35122 0.52869 0.24133 0.0
H364 H 0.54722 0.59836 0.22829 0.0
H365 H 0.60206 0.61018 0.19379 0.0
C366 C 0.12454 0.63047 0.52866 0.0
C367 C 0.1439 0.69583 0.50925 0.0
C368 C 0.07614 0.61308 0.46265 0.0
C369 C 0.06457 0.54879 0.4812 0.0
N370 N 0.08673 0.49649 0.53035 0.0
N371 N 0.14297 0.74942 0.45593 0.0
C372 C 0.09204 0.55762 0.51368 0.0
C373 C 0.12011 0.68735 0.47589 0.0
N374 N 0.13521 0.63828 0.56176 0.0
N375 N 0.0443 0.60308 0.43224 0.0
H376 H 0.16738 0.80525 0.46401 0.0
H377 H 0.14 0.74585 0.4305 0.0
H378 H 0.01802 0.55073 0.42018 0.0
H379 H 0.04043 0.64579 0.41958 0.0
H380 H 0.11601 0.59235 0.57786 0.0
H381 H 0.15619 0.69087 0.57345 0.0
H382 H 0.11291 0.50118 0.55281 0.0
H383 H 0.06081 0.44156 0.52074 0.0
C384 C 0.57577 0.99293 0.8245 0.0
C385 C 0.49496 0.96306 0.82392 0.0
C386 C 0.48142 0.87244 0.86697 0.0
C387 C 0.55725 0.88916 0.86148 0.0
N388 N 0.68144 0.97459 0.83989 0.0
N389 N 0.37024 0.86677 0.84258 0.0
C390 C 0.60596 0.95299 0.84197 0.0
C391 C 0.44767 0.90099 0.84479 0.0
N392 N 0.62449 0.06075 0.80972 0.0
N393 N 0.44268 0.8324 0.89405 0.0
H394 H 0.34281 0.88307 0.82549 0.0
H395 H 0.33365 0.8169 0.85523 0.0
H396 H 0.46952 0.82037 0.91297 0.0
H397 H 0.38849 0.82256 0.9001 0.0
H398 H 0.6831 0.08982 0.81337 0.0
H399 H 0.60756 0.09194 0.79547 0.0
H400 H 0.7182 0.01143 0.82207 0.0
H401 H 0.70662 0.95315 0.85581 0.0
C402 C 0.55847 0.47971 0.78893 0.0
C403 C 0.5379 0.48589 0.82159 0.0
C404 C 0.45165 0.34778 0.82375 0.0
C405 C 0.47673 0.33962 0.79211 0.0
N406 N 0.55484 0.39795 0.74452 0.0
N407 N 0.46795 0.42506 0.8709 0.0
C408 C 0.53037 0.40592 0.7747 0.0
C409 C 0.48572 0.41974 0.83904 0.0
N410 N 0.60143 0.54432 0.77091 0.0
N411 N 0.39655 0.28808 0.84097 0.0
H412 H 0.49362 0.47605 0.88393 0.0
H413 H 0.42986 0.37787 0.88474 0.0
H414 H 0.36455 0.23252 0.83243 0.0
H415 H 0.36455 0.23252 0.83243 0.0
H416 H 0.61081 0.54436 0.74587 0.0
H417 H 0.62405 0.59905 0.78052 0.0
H418 H 0.60122 0.44163 0.73231 0.0
H419 H 0.5297 0.34614 0.73198 0.0
C420 C 0.00166 0.57877 0.14907 0.0
C421 C 0.97136 0.49807 0.15202 0.0
C422 C 0.87591 0.47904 0.11073 0.0
C423 C 0.89394 0.55604 0.11412 0.0
N424 N 0.98059 0.68255 0.1332 0.0
N425 N 0.87135 0.37106 0.1382 0.0
C426 C 0.95933 0.60691 0.13214 0.0
C427 C 0.9063 0.44811 0.13342 0.0
N428 N 0.0723 0.62909 0.16077 0.0
N429 N 0.83289 0.43624 0.08511 0.0
H430 H 0.8892 0.34596 0.1558 0.0
H431 H 0.8197 0.33308 0.12724 0.0
H432 H 0.81938 0.46025 0.06552 0.0
H433 H 0.82192 0.38088 0.08069 0.0
H434 H 0.10048 0.68725 0.15557 0.0
H435 H 0.10653 0.61318 0.17328 0.0
H436 H 0.01947 0.7208 0.14999 0.0
H437 H 0.95691 0.70629 0.11771 0.0
C438 C 0.55335 0.11557 0.45812 0.0
C439 C 0.54819 0.07741 0.48819 0.0
C440 C 0.67478 0.09466 0.47882 0.0
C441 C 0.68637 0.14423 0.45234 0.0
N442 N 0.63077 0.18879 0.41187 0.0
N443 N 0.61314 0.0498 0.53093 0.0
C444 C 0.62388 0.1511 0.4405 0.0
C445 C 0.61186 0.07287 0.4996 0.0
N446 N 0.49021 0.11395 0.44539 0.0
N447 N 0.72373 0.06757 0.48381 0.0
H448 H 0.56955 0.03791 0.54765 0.0
H449 H 0.66112 0.05153 0.54117 0.0
H450 H 0.76779 0.07895 0.46741 0.0
H451 H 0.71483 0.02709 0.5017 0.0
H452 H 0.48743 0.13267 0.42199 0.0
H453 H 0.43833 0.08998 0.45753 0.0
H454 H 0.59442 0.20877 0.40485 0.0
H455 H 0.6714 0.19674 0.3943 0.0
C456 C 0.18963 0.20168 0.96716 0.0
C457 C 0.16313 0.12427 0.95857 0.0
C458 C 0.09181 0.08325 1.01057 0.0
C459 C 0.12366 0.16063 0.02041 0.0
N460 N 0.21249 0.29356 1.0102 0.0
N461 N 0.09992 0.99192 0.97468 0.0
C462 C 0.17528 0.21991 0.99926 0.0
C463 C 0.11721 0.06522 0.98103 0.0
N464 N 0.22634 0.25773 0.94427 0.0
N465 N 0.03516 0.02689 0.02888 0.0
H466 H 0.11773 0.97641 0.95352 0.0
H467 H 0.07388 0.94772 0.99162 0.0
H468 H 0.01483 0.03762 0.05054 0.0
H469 H 0.00364 0.97044 0.02119 0.0
H470 H 0.23969 0.3141 0.94772 0.0
H471 H 0.23789 0.24675 0.92064 0.0
H472 H 0.25672 0.33833 0.99743 0.0
H473 H 0.20359 0.30911 0.03342 0.0
C474 C 0.98383 0.28701 0.33534 0.0
C475 C 0.9975 0.34986 0.35572 0.0
C476 C 0.05195 0.43501 0.30822 0.0
C477 C 0.04721 0.37466 0.28862 0.0
N478 N 0.02026 0.24422 0.28636 0.0
N479 N 0.06763 0.48641 0.36278 0.0
C480 C 0.0164 0.30075 0.30298 0.0
C481 C 0.0389 0.42462 0.34249 0.0
N482 N 0.93725 0.21424 0.34609 0.0
N483 N 0.06414 0.50128 0.29396 0.0
H484 H 0.06376 0.481 0.3882 0.0
H485 H 0.10311 0.54202 0.35453 0.0
H486 H 0.06571 0.50832 0.26868 0.0
H487 H 0.06182 0.54447 0.30696 0.0
H488 H 0.91886 0.16661 0.3311 0.0
H489 H 0.91191 0.20181 0.36917 0.0
H490 H 0.0058 0.19167 0.29683 0.0
H491 H 0.04452 0.25233 0.26314 0.0
C492 C 0.82048 0.94197 0.6568 0.0
C493 C 0.85761 0.98254 0.68568 0.0
C494 C 0.92743 0.10055 0.65312 0.0
C495 C 0.89633 0.05838 0.62388 0.0
N496 N 0.81863 0.93757 0.59732 0.0
N497 N 0.95085 0.09911 0.71137 0.0
C498 C 0.84391 0.97871 0.62561 0.0
C499 C 0.91225 0.06156 0.68381 0.0
N500 N 0.76193 0.86845 0.65926 0.0
N501 N 0.96964 0.17838 0.65161 0.0
H502 H 0.93911 0.07353 0.73444 0.0
H503 H 0.99767 0.15401 0.71118 0.0
H504 H 0.98213 0.20871 0.62966 0.0
H505 H 0.98707 0.21341 0.67214 0.0
H506 H 0.72651 0.83836 0.63983 0.0
H507 H 0.74483 0.83905 0.68144 0.0
H508 H 0.78729 0.87827 0.59663 0.0
H509 H 0.83361 0.96248 0.57416 0.0
C510 C 0.61334 0.61219 0.97 0.0
C511 C 0.66216 0.68122 0.95326 0.0
C512 C 0.7416 0.7235 1.00341 0.0
C513 C 0.68453 0.65939 0.0211 0.0
N514 N 0.55212 0.56049 0.0215 0.0
N515 N 0.76778 0.81033 0.95765 0.0
C516 C 0.61608 0.60942 1.00445 0.0
C517 C 0.72522 0.73938 0.97092 0.0
N518 N 0.56585 0.54765 0.95305 0.0
N519 N 0.81201 0.76762 1.01667 0.0
H520 H 0.75669 0.82513 0.93474 0.0
H521 H 0.80952 0.85628 0.97079 0.0
H522 H 0.82701 0.75713 0.03965 0.0
H523 H 0.85742 0.81027 1.00351 0.0
H524 H 0.53265 0.49504 0.96453 0.0
H525 H 0.56805 0.54492 0.92764 0.0
H526 H 0.49985 0.52631 1.0101 0.0
H527 H 0.54934 0.56222 0.04693 0.0
C528 C 0.04254 0.84414 0.33646 0.0
C529 C 0.05713 0.9132 0.35192 0.0
C530 C 0.00024 0.94229 0.30459 0.0
C531 C 0.97943 0.87014 0.29056 0.0
N532 N 0.96924 0.7466 0.29613 0.0
N533 N 0.03637 0.02078 0.35341 0.0
C534 C 0.99741 0.81942 0.30736 0.0
C535 C 0.03217 0.96025 0.3367 0.0
N536 N 0.07408 0.80336 0.34888 0.0
N537 N 0.99196 0.99498 0.28677 0.0
H538 H 0.05825 0.03522 0.37705 0.0
H539 H 0.01168 0.05226 0.34515 0.0
H540 H 0.96955 0.98446 0.26316 0.0
H541 H 0.01365 0.05136 0.29413 0.0
H542 H 0.07217 0.75698 0.33693 0.0
H543 H 0.10793 0.81976 0.36982 0.0
H544 H 0.97307 0.70429 0.30913 0.0
H545 H 0.936 0.72639 0.27509 0.0
C546 C 0.36496 0.09127 0.66287 0.0
C547 C 0.35849 0.04106 0.68876 0.0
C548 C 0.3128 0.93685 0.64831 0.0
C549 C 0.33253 0.98969 0.62198 0.0
N550 N 0.39041 0.12173 0.60521 0.0
N551 N 0.33964 0.91701 0.70399 0.0
C552 C 0.36146 0.06814 0.6295 0.0
C553 C 0.33531 0.96383 0.68099 0.0
N554 N 0.37309 0.16092 0.67009 0.0
N555 N 0.27127 0.86034 0.64225 0.0
H556 H 0.35903 0.93439 0.72773 0.0
H557 H 0.33168 0.86319 0.69842 0.0
H558 H 0.25107 0.8384 0.61899 0.0
H559 H 0.24971 0.81943 0.66078 0.0
H560 H 0.37118 0.19706 0.65238 0.0
H561 H 0.37309 0.17872 0.69405 0.0
H562 H 0.41993 0.18016 0.60986 0.0
H563 H 0.39175 0.1084 0.5807 0.0
loop_
_geom_bond_atom_site_label_1
_geom_bond_atom_site_label_2
_geom_bond_distance
_geom_bond_site_symmetry_2
_ccdc_geom_bond_type
Dy0 O3 2.307 . S
Dy0 O5 2.395 . S
Dy0 O6 2.379 . S
Dy0 O8 2.339 1_455 S
Dy0 O10 2.298 . S
Dy0 O14 2.275 . S
Dy0 C22 2.738 . S
Dy1 O4 2.298 . S
Dy1 O7 2.275 . S
Dy1 O9 2.307 . S
Dy1 O11 2.395 . S
Dy1 O12 2.379 . S
Dy1 O15 2.339 . S
Dy1 C31 2.738 . S
C2 O14 1.254 . S
C2 O15 1.257 . S
O3 Dy0 2.307 . S
O3 C13 1.266 . S
O4 Dy1 2.298 . S
O4 C13 1.236 . S
O5 Dy0 2.395 . S
O5 C22 1.255 . S
O6 Dy0 2.379 . S
O6 C22 1.249 . S
O7 Dy1 2.275 . S
O7 C23 1.254 1_455 S
O8 Dy0 2.339 1_655 S
O8 C23 1.257 . S
O9 Dy1 2.307 . S
O9 C24 1.266 . S
O10 Dy0 2.298 . S
O10 C24 1.236 . S
O11 Dy1 2.395 . S
O11 C31 1.255 . S
O12 Dy1 2.379 . S
O12 C31 1.249 . S
C13 O3 1.266 . S
C13 O4 1.236 . S
O14 Dy0 2.275 . S
O14 C2 1.254 . S
O15 Dy1 2.339 . S
O15 C2 1.257 . S
C16 C19 1.344 . S
C16 C20 1.328 . S
C16 C22 1.516 . S
C17 C18 1.304 . S
C17 C21 1.323 . S
C18 C17 1.304 . S
C18 C19 1.371 . S
C18 H32 0.930 . S
C19 C16 1.344 . S
C19 C18 1.371 . S
C19 H33 0.931 . S
C20 C16 1.328 . S
C20 C21 1.433 . S
C20 H34 0.931 1_455 S
C21 C17 1.323 . S
C21 C20 1.433 . S
C21 H35 0.933 1_455 S
C22 Dy0 2.738 . S
C22 O5 1.255 . S
C22 O6 1.249 . S
C22 C16 1.516 . S
C23 O7 1.254 1_655 S
C23 O8 1.257 . S
C24 O9 1.266 . S
C24 O10 1.236 . S
C25 C28 1.344 . S
C25 C29 1.328 . S
C25 C31 1.516 . S
C26 C27 1.304 . S
C26 C30 1.323 . S
C27 C26 1.304 . S
C27 C28 1.371 . S
C27 H36 0.930 . S
C28 C25 1.344 . S
C28 C27 1.371 . S
C28 H37 0.931 . S
C29 C25 1.328 . S
C29 C30 1.433 . S
C29 H38 0.931 . S
C30 C26 1.323 . S
C30 C29 1.433 . S
C30 H39 0.933 . S
C31 Dy1 2.738 . S
C31 O11 1.255 . S
C31 O12 1.249 . S
C31 C25 1.516 . S
H32 C18 0.930 . S
H33 C19 0.931 . S
H34 C20 0.931 1_655 S
H35 C21 0.933 1_655 S
H36 C27 0.930 . S
H37 C28 0.931 . S
H38 C29 0.931 . S
H39 C30 0.933 . S
Dy40 O43 2.307 1_655 S
Dy40 O45 2.395 . S
Dy40 O46 2.379 1_655 S
Dy40 O48 2.339 1_655 S
Dy40 O50 2.298 . S
Dy40 O54 2.275 . S
Dy40 C62 2.738 . S
Dy41 O44 2.298 . S
Dy41 O47 2.275 . S
Dy41 O49 2.307 . S
Dy41 O51 2.395 . S
Dy41 O52 2.379 . S
Dy41 O55 2.339 . S
Dy41 C71 2.738 . S
C42 O54 1.254 . S
C42 O55 1.257 . S
O43 Dy40 2.307 1_455 S
O43 C53 1.266 1_455 S
O44 Dy41 2.298 . S
O44 C53 1.236 . S
O45 Dy40 2.395 . S
O45 C62 1.255 . S
O46 Dy40 2.379 1_455 S
O46 C62 1.249 1_455 S
O47 Dy41 2.275 . S
O47 C63 1.254 1_655 S
O48 Dy40 2.339 1_455 S
O48 C63 1.257 . S
O49 Dy41 2.307 . S
O49 C64 1.266 . S
O50 Dy40 2.298 . S
O50 C64 1.236 . S
O51 Dy41 2.395 . S
O51 C71 1.255 . S
O52 Dy41 2.379 . S
O52 C71 1.249 . S
C53 O43 1.266 1_655 S
C53 O44 1.236 . S
O54 Dy40 2.275 . S
O54 C42 1.254 . S
O55 Dy41 2.339 . S
O55 C42 1.257 . S
C56 C59 1.344 . S
C56 C60 1.328 1_655 S
C56 C62 1.516 . S
C57 C58 1.304 . S
C57 C61 1.323 1_655 S
C58 C57 1.304 . S
C58 C59 1.371 . S
C58 H72 0.930 . S
C59 C56 1.344 . S
C59 C58 1.371 . S
C59 H73 0.931 . S
C60 C56 1.328 1_455 S
C60 C61 1.433 . S
C60 H74 0.931 . S
C61 C57 1.323 1_455 S
C61 C60 1.433 . S
C61 H75 0.933 . S
C62 Dy40 2.738 . S
C62 O45 1.255 . S
C62 O46 1.249 1_655 S
C62 C56 1.516 . S
C63 O47 1.254 1_455 S
C63 O48 1.257 . S
C64 O49 1.266 . S
C64 O50 1.236 . S
C65 C68 1.344 . S
C65 C69 1.328 . S
C65 C71 1.516 . S
C66 C67 1.304 . S
C66 C70 1.323 . S
C67 C66 1.304 . S
C67 C68 1.371 . S
C67 H76 0.930 . S
C68 C65 1.344 . S
C68 C67 1.371 . S
C68 H77 0.931 . S
C69 C65 1.328 . S
C69 C70 1.433 . S
C69 H78 0.931 . S
C70 C66 1.323 . S
C70 C69 1.433 . S
C70 H79 0.933 . S
C71 Dy41 2.738 . S
C71 O51 1.255 . S
C71 O52 1.249 . S
C71 C65 1.516 . S
H72 C58 0.930 . S
H73 C59 0.931 . S
H74 C60 0.931 . S
H75 C61 0.933 . S
H76 C67 0.930 . S
H77 C68 0.931 . S
H78 C69 0.931 . S
H79 C70 0.933 . S
Dy80 O83 2.307 . S
Dy80 O85 2.395 . S
Dy80 O86 2.379 . S
Dy80 O88 2.339 . S
Dy80 O90 2.298 . S
Dy80 O94 2.275 . S
Dy80 C102 2.738 . S
Dy81 O84 2.298 . S
Dy81 O87 2.275 . S
Dy81 O89 2.307 . S
Dy81 O91 2.395 . S
Dy81 O92 2.379 . S
Dy81 O95 2.339 . S
Dy81 C111 2.738 . S
C82 O94 1.254 . S
C82 O95 1.257 . S
O83 Dy80 2.307 . S
O83 C93 1.266 . S
O84 Dy81 2.298 . S
O84 C93 1.236 . S
O85 Dy80 2.395 . S
O85 C102 1.255 . S
O86 Dy80 2.379 . S
O86 C102 1.249 . S
O87 Dy81 2.275 . S
O87 C103 1.254 . S
O88 Dy80 2.339 . S
O88 C103 1.257 . S
O89 Dy81 2.307 . S
O89 C104 1.266 . S
O90 Dy80 2.298 . S
O90 C104 1.236 . S
O91 Dy81 2.395 . S
O91 C111 1.255 . S
O92 Dy81 2.379 . S
O92 C111 1.249 . S
C93 O83 1.266 . S
C93 O84 1.236 . S
O94 Dy80 2.275 . S
O94 C82 1.254 . S
O95 Dy81 2.339 . S
O95 C82 1.257 . S
C96 C99 1.344 . S
C96 C100 1.328 . S
C96 C102 1.516 . S
C97 C98 1.304 . S
C97 C101 1.323 . S
C98 C97 1.304 . S
C98 C99 1.371 . S
C98 H112 0.930 1_565 S
C99 C96 1.344 . S
C99 C98 1.371 . S
C99 H113 0.931 . S
C100 C96 1.328 . S
C100 C101 1.433 . S
C100 H114 0.931 . S
C101 C97 1.323 . S
C101 C100 1.433 . S
C101 H115 0.933 . S
C102 Dy80 2.738 . S
C102 O85 1.255 . S
C102 O86 1.249 . S
C102 C96 1.516 . S
C103 O87 1.254 . S
C103 O88 1.257 . S
C104 O89 1.266 . S
C104 O90 1.236 . S
C105 C108 1.344 . S
C105 C109 1.328 . S
C105 C111 1.516 . S
C106 C107 1.304 1_554 S
C106 C110 1.323 1_554 S
C107 C106 1.304 1_556 S
C107 C108 1.371 . S
C107 H116 0.930 . S
C108 C105 1.344 . S
C108 C107 1.371 . S
C108 H117 0.931 . S
C109 C105 1.328 . S
C109 C110 1.433 . S
C109 H118 0.931 . S
C110 C106 1.323 1_556 S
C110 C109 1.433 . S
C110 H119 0.933 1_556 S
C111 Dy81 2.738 . S
C111 O91 1.255 . S
C111 O92 1.249 . S
C111 C105 1.516 . S
H112 C98 0.930 1_545 S
H113 C99 0.931 . S
H114 C100 0.931 . S
H115 C101 0.933 . S
H116 C107 0.930 . S
H117 C108 0.931 . S
H118 C109 0.931 . S
H119 C110 0.933 1_554 S
Dy120 O123 2.307 . S
Dy120 O125 2.395 . S
Dy120 O126 2.379 . S
Dy120 O128 2.339 . S
Dy120 O130 2.298 . S
Dy120 O134 2.275 . S
Dy120 C142 2.738 . S
Dy121 O124 2.298 . S
Dy121 O127 2.275 . S
Dy121 O129 2.307 . S
Dy121 O131 2.395 . S
Dy121 O132 2.379 . S
Dy121 O135 2.339 . S
Dy121 C151 2.738 . S
C122 O134 1.254 . S
C122 O135 1.257 . S
O123 Dy120 2.307 . S
O123 C133 1.266 . S
O124 Dy121 2.298 . S
O124 C133 1.236 . S
O125 Dy120 2.395 . S
O125 C142 1.255 . S
O126 Dy120 2.379 . S
O126 C142 1.249 . S
O127 Dy121 2.275 . S
O127 C143 1.254 . S
O128 Dy120 2.339 . S
O128 C143 1.257 . S
O129 Dy121 2.307 . S
O129 C144 1.266 . S
O130 Dy120 2.298 . S
O130 C144 1.236 . S
O131 Dy121 2.395 . S
O131 C151 1.255 . S
O132 Dy121 2.379 . S
O132 C151 1.249 . S
C133 O123 1.266 . S
C133 O124 1.236 . S
O134 Dy120 2.275 . S
O134 C122 1.254 . S
O135 Dy121 2.339 . S
O135 C122 1.257 . S
C136 C139 1.344 . S
C136 C140 1.328 . S
C136 C142 1.516 . S
C137 C138 1.304 . S
C137 C141 1.323 . S
C138 C137 1.304 . S
C138 C139 1.371 . S
C138 H152 0.930 1_655 S
C139 C136 1.344 . S
C139 C138 1.371 . S
C139 H153 0.931 . S
C140 C136 1.328 . S
C140 C141 1.433 . S
C140 H154 0.931 . S
C141 C137 1.323 . S
C141 C140 1.433 . S
C141 H155 0.933 . S
C142 Dy120 2.738 . S
C142 O125 1.255 . S
C142 O126 1.249 . S
C142 C136 1.516 . S
C143 O127 1.254 . S
C143 O128 1.257 . S
C144 O129 1.266 . S
C144 O130 1.236 . S
C145 C148 1.344 . S
C145 C149 1.328 . S
C145 C151 1.516 1_556 S
C146 C147 1.304 . S
C146 C150 1.323 . S
C147 C146 1.304 . S
C147 C148 1.371 . S
C147 H156 0.930 . S
C148 C145 1.344 . S
C148 C147 1.371 . S
C148 H157 0.931 . S
C149 C145 1.328 . S
C149 C150 1.433 . S
C149 H158 0.931 . S
C150 C146 1.323 . S
C150 C149 1.433 . S
C150 H159 0.933 . S
C151 Dy121 2.738 . S
C151 O131 1.255 . S
C151 O132 1.249 . S
C151 C145 1.516 1_554 S
H152 C138 0.930 1_455 S
H153 C139 0.931 . S
H154 C140 0.931 . S
H155 C141 0.933 . S
H156 C147 0.930 . S
H157 C148 0.931 . S
H158 C149 0.931 . S
H159 C150 0.933 . S
Dy160 O163 2.307 1_565 S
Dy160 O165 2.395 . S
Dy160 O166 2.379 1_565 S
Dy160 O168 2.339 1_565 S
Dy160 O170 2.298 . S
Dy160 O174 2.275 . S
Dy160 C182 2.738 . S
Dy161 O164 2.298 . S
Dy161 O167 2.275 . S
Dy161 O169 2.307 . S
Dy161 O171 2.395 . S
Dy161 O172 2.379 . S
Dy161 O175 2.339 . S
Dy161 C191 2.738 . S
C162 O174 1.254 . S
C162 O175 1.257 . S
O163 Dy160 2.307 1_545 S
O163 C173 1.266 1_545 S
O164 Dy161 2.298 . S
O164 C173 1.236 . S
O165 Dy160 2.395 . S
O165 C182 1.255 . S
O166 Dy160 2.379 1_545 S
O166 C182 1.249 1_545 S
O167 Dy161 2.275 . S
O167 C183 1.254 1_565 S
O168 Dy160 2.339 1_545 S
O168 C183 1.257 . S
O169 Dy161 2.307 . S
O169 C184 1.266 . S
O170 Dy160 2.298 . S
O170 C184 1.236 . S
O171 Dy161 2.395 . S
O171 C191 1.255 . S
O172 Dy161 2.379 . S
O172 C191 1.249 . S
C173 O163 1.266 1_565 S
C173 O164 1.236 . S
O174 Dy160 2.275 . S
O174 C162 1.254 . S
O175 Dy161 2.339 . S
O175 C162 1.257 . S
C176 C179 1.344 . S
C176 C180 1.328 1_565 S
C176 C182 1.516 . S
C177 C178 1.304 . S
C177 C181 1.323 1_565 S
C178 C177 1.304 . S
C178 C179 1.371 . S
C178 H192 0.930 . S
C179 C176 1.344 . S
C179 C178 1.371 . S
C179 H193 0.931 . S
C180 C176 1.328 1_545 S
C180 C181 1.433 . S
C180 H194 0.931 . S
C181 C177 1.323 1_545 S
C181 C180 1.433 . S
C181 H195 0.933 . S
C182 Dy160 2.738 . S
C182 O165 1.255 . S
C182 O166 1.249 1_565 S
C182 C176 1.516 . S
C183 O167 1.254 1_545 S
C183 O168 1.257 . S
C184 O169 1.266 . S
C184 O170 1.236 . S
C185 C188 1.344 . S
C185 C189 1.328 . S
C185 C191 1.516 . S
C186 C187 1.304 . S
C186 C190 1.323 . S
C187 C186 1.304 . S
C187 C188 1.371 . S
C187 H196 0.930 . S
C188 C185 1.344 . S
C188 C187 1.371 . S
C188 H197 0.931 . S
C189 C185 1.328 . S
C189 C190 1.433 . S
C189 H198 0.931 . S
C190 C186 1.323 . S
C190 C189 1.433 . S
C190 H199 0.933 . S
C191 Dy161 2.738 . S
C191 O171 1.255 . S
C191 O172 1.249 . S
C191 C185 1.516 . S
H192 C178 0.930 . S
H193 C179 0.931 . S
H194 C180 0.931 . S
H195 C181 0.933 . S
H196 C187 0.930 . S
H197 C188 0.931 . S
H198 C189 0.931 . S
H199 C190 0.933 . S
Dy200 O203 2.307 . S
Dy200 O205 2.395 . S
Dy200 O206 2.379 . S
Dy200 O208 2.339 1_545 S
Dy200 O210 2.298 . S
Dy200 O214 2.275 . S
Dy200 C222 2.738 . S
Dy201 O204 2.298 . S
Dy201 O207 2.275 . S
Dy201 O209 2.307 . S
Dy201 O211 2.395 . S
Dy201 O212 2.379 . S
Dy201 O215 2.339 . S
Dy201 C231 2.738 . S
C202 O214 1.254 . S
C202 O215 1.257 . S
O203 Dy200 2.307 . S
O203 C213 1.266 . S
O204 Dy201 2.298 . S
O204 C213 1.236 . S
O205 Dy200 2.395 . S
O205 C222 1.255 . S
O206 Dy200 2.379 . S
O206 C222 1.249 . S
O207 Dy201 2.275 . S
O207 C223 1.254 1_545 S
O208 Dy200 2.339 1_565 S
O208 C223 1.257 . S
O209 Dy201 2.307 . S
O209 C224 1.266 . S
O210 Dy200 2.298 . S
O210 C224 1.236 . S
O211 Dy201 2.395 . S
O211 C231 1.255 . S
O212 Dy201 2.379 . S
O212 C231 1.249 . S
C213 O203 1.266 . S
C213 O204 1.236 . S
O214 Dy200 2.275 . S
O214 C202 1.254 . S
O215 Dy201 2.339 . S
O215 C202 1.257 . S
C216 C219 1.344 . S
C216 C220 1.328 . S
C216 C222 1.516 . S
C217 C218 1.304 . S
C217 C221 1.323 . S
C218 C217 1.304 . S
C218 C219 1.371 . S
C218 H232 0.930 . S
C219 C216 1.344 . S
C219 C218 1.371 . S
C219 H233 0.931 . S
C220 C216 1.328 . S
C220 C221 1.433 . S
C220 H234 0.931 1_545 S
C221 C217 1.323 . S
C221 C220 1.433 . S
C221 H235 0.933 1_545 S
C222 Dy200 2.738 . S
C222 O205 1.255 . S
C222 O206 1.249 . S
C222 C216 1.516 . S
C223 O207 1.254 1_565 S
C223 O208 1.257 . S
C224 O209 1.266 . S
C224 O210 1.236 . S
C225 C228 1.344 . S
C225 C229 1.328 . S
C225 C231 1.516 . S
C226 C227 1.304 . S
C226 C230 1.323 . S
C227 C226 1.304 . S
C227 C228 1.371 . S
C227 H236 0.930 . S
C228 C225 1.344 . S
C228 C227 1.371 . S
C228 H237 0.931 . S
C229 C225 1.328 . S
C229 C230 1.433 . S
C229 H238 0.931 . S
C230 C226 1.323 . S
C230 C229 1.433 . S
C230 H239 0.933 . S
C231 Dy201 2.738 . S
C231 O211 1.255 . S
C231 O212 1.249 . S
C231 C225 1.516 . S
H232 C218 0.930 . S
H233 C219 0.931 . S
H234 C220 0.931 1_565 S
H235 C221 0.933 1_565 S
H236 C227 0.930 . S
H237 C228 0.931 . S
H238 C229 0.931 . S
H239 C230 0.933 . S
C240 C241 1.363 . S
C240 C246 1.379 . S
C240 N248 1.356 . S
C241 C240 1.363 . S
C241 C247 1.363 . S
C242 C243 1.363 . S
C242 C247 1.379 . S
C242 N249 1.356 . S
C243 C242 1.363 . S
C243 C246 1.363 . S
N244 C246 1.356 . S
N244 H256 0.984 . S
N244 H257 0.985 . S
N245 C247 1.356 . S
N245 H250 0.984 . S
N245 H251 0.985 . S
C246 C240 1.379 . S
C246 C243 1.363 . S
C246 N244 1.356 . S
C247 C241 1.363 . S
C247 C242 1.379 . S
C247 N245 1.356 . S
N248 C240 1.356 . S
N248 H254 0.984 . S
N248 H255 0.984 . S
N249 C242 1.356 . S
N249 H252 0.984 . S
N249 H253 0.985 . S
H250 N245 0.984 . S
H251 N245 0.985 . S
H252 N249 0.984 . S
H253 N249 0.985 . S
H254 N248 0.984 . S
H255 N248 0.984 . S
H256 N244 0.984 . S
H257 N244 0.985 . S
C258 C259 1.363 . S
C258 C264 1.379 . S
C258 N266 1.356 . S
C259 C258 1.363 . S
C259 C265 1.363 . S
C260 C261 1.363 . S
C260 C265 1.379 . S
C260 N267 1.356 . S
C261 C260 1.363 . S
C261 C264 1.363 . S
N262 C264 1.356 . S
N262 H274 0.984 . S
N262 H275 0.985 . S
N263 C265 1.356 . S
N263 H268 0.984 . S
N263 H269 0.985 . S
C264 C258 1.379 . S
C264 C261 1.363 . S
C264 N262 1.356 . S
C265 C259 1.363 . S
C265 C260 1.379 . S
C265 N263 1.356 . S
N266 C258 1.356 . S
N266 H272 0.984 . S
N266 H273 0.984 . S
N267 C260 1.356 . S
N267 H270 0.984 . S
N267 H271 0.985 . S
H268 N263 0.984 . S
H269 N263 0.985 . S
H270 N267 0.984 . S
H271 N267 0.985 . S
H272 N266 0.984 . S
H273 N266 0.984 . S
H274 N262 0.984 . S
H275 N262 0.985 . S
C276 C277 1.363 . S
C276 C282 1.379 . S
C276 N284 1.356 . S
C277 C276 1.363 . S
C277 C283 1.363 . S
C278 C279 1.363 . S
C278 C283 1.379 . S
C278 N285 1.356 . S
C279 C278 1.363 . S
C279 C282 1.363 . S
N280 C282 1.356 . S
N280 H292 0.984 1_554 S
N280 H293 0.985 1_554 S
N281 C283 1.356 . S
N281 H286 0.984 . S
N281 H287 0.985 . S
C282 C276 1.379 . S
C282 C279 1.363 . S
C282 N280 1.356 . S
C283 C277 1.363 . S
C283 C278 1.379 . S
C283 N281 1.356 . S
N284 C276 1.356 . S
N284 H290 0.984 . S
N284 H291 0.984 . S
N285 C278 1.356 . S
N285 H288 0.984 . S
N285 H289 0.985 . S
H286 N281 0.984 . S
H287 N281 0.985 . S
H288 N285 0.984 . S
H289 N285 0.985 . S
H290 N284 0.984 . S
H291 N284 0.984 . S
H292 N280 0.984 1_556 S
H293 N280 0.985 1_556 S
C294 C295 1.363 . S
C294 C300 1.379 . S
C294 N302 1.356 . S
C295 C294 1.363 . S
C295 C301 1.363 . S
C296 C297 1.363 . S
C296 C301 1.379 . S
C296 N303 1.356 . S
C297 C296 1.363 . S
C297 C300 1.363 . S
N298 C300 1.356 . S
N298 H310 0.984 . S
N298 H311 0.985 . S
N299 C301 1.356 . S
N299 H304 0.984 . S
N299 H305 0.985 . S
C300 C294 1.379 . S
C300 C297 1.363 . S
C300 N298 1.356 . S
C301 C295 1.363 . S
C301 C296 1.379 . S
C301 N299 1.356 . S
N302 C294 1.356 . S
N302 H308 0.984 . S
N302 H309 0.984 . S
N303 C296 1.356 . S
N303 H306 0.984 . S
N303 H307 0.985 . S
H304 N299 0.984 . S
H305 N299 0.985 . S
H306 N303 0.984 . S
H307 N303 0.985 . S
H308 N302 0.984 . S
H309 N302 0.984 . S
H310 N298 0.984 . S
H311 N298 0.985 . S
C312 C313 1.363 . S
C312 C318 1.379 . S
C312 N320 1.356 . S
C313 C312 1.363 . S
C313 C319 1.363 . S
C314 C315 1.363 . S
C314 C319 1.379 . S
C314 N321 1.356 . S
C315 C314 1.363 . S
C315 C318 1.363 . S
N316 C318 1.356 . S
N316 H328 0.984 . S
N316 H329 0.985 . S
N317 C319 1.356 . S
N317 H322 0.984 . S
N317 H323 0.985 . S
C318 C312 1.379 . S
C318 C315 1.363 . S
C318 N316 1.356 . S
C319 C313 1.363 . S
C319 C314 1.379 . S
C319 N317 1.356 . S
N320 C312 1.356 . S
N320 H326 0.984 . S
N320 H327 0.984 . S
N321 C314 1.356 . S
N321 H324 0.984 . S
N321 H325 0.985 . S
H322 N317 0.984 . S
H323 N317 0.985 . S
H324 N321 0.984 . S
H325 N321 0.985 . S
H326 N320 0.984 . S
H327 N320 0.984 . S
H328 N316 0.984 . S
H329 N316 0.985 . S
C330 C331 1.363 . S
C330 C336 1.379 . S
C330 N338 1.356 . S
C331 C330 1.363 . S
C331 C337 1.363 . S
C332 C333 1.363 . S
C332 C337 1.379 . S
C332 N339 1.356 . S
C333 C332 1.363 . S
C333 C336 1.363 . S
N334 C336 1.356 . S
N334 H346 0.984 . S
N334 H347 0.985 . S
N335 C337 1.356 . S
N335 H340 0.984 . S
N335 H341 0.985 . S
C336 C330 1.379 . S
C336 C333 1.363 . S
C336 N334 1.356 . S
C337 C331 1.363 . S
C337 C332 1.379 . S
C337 N335 1.356 . S
N338 C330 1.356 . S
N338 H344 0.984 . S
N338 H345 0.984 . S
N339 C332 1.356 . S
N339 H342 0.984 . S
N339 H343 0.985 . S
H340 N335 0.984 . S
H341 N335 0.985 . S
H342 N339 0.984 . S
H343 N339 0.985 . S
H344 N338 0.984 . S
H345 N338 0.984 . S
H346 N334 0.984 . S
H347 N334 0.985 . S
C348 C349 1.363 . S
C348 C354 1.379 . S
C348 N356 1.356 . S
C349 C348 1.363 . S
C349 C355 1.363 . S
C350 C351 1.363 . S
C350 C355 1.379 . S
C350 N357 1.356 . S
C351 C350 1.363 . S
C351 C354 1.363 . S
N352 C354 1.356 . S
N352 H364 0.984 . S
N352 H365 0.985 . S
N353 C355 1.356 . S
N353 H358 0.984 . S
N353 H359 0.985 . S
C354 C348 1.379 . S
C354 C351 1.363 . S
C354 N352 1.356 . S
C355 C349 1.363 . S
C355 C350 1.379 . S
C355 N353 1.356 . S
N356 C348 1.356 . S
N356 H362 0.984 . S
N356 H363 0.984 . S
N357 C350 1.356 . S
N357 H360 0.984 . S
N357 H361 0.985 . S
H358 N353 0.984 . S
H359 N353 0.985 . S
H360 N357 0.984 . S
H361 N357 0.985 . S
H362 N356 0.984 . S
H363 N356 0.984 . S
H364 N352 0.984 . S
H365 N352 0.985 . S
C366 C367 1.363 . S
C366 C372 1.379 . S
C366 N374 1.356 . S
C367 C366 1.363 . S
C367 C373 1.363 . S
C368 C369 1.363 . S
C368 C373 1.379 . S
C368 N375 1.356 . S
C369 C368 1.363 . S
C369 C372 1.363 . S
N370 C372 1.356 . S
N370 H382 0.984 . S
N370 H383 0.985 . S
N371 C373 1.356 . S
N371 H376 0.984 . S
N371 H377 0.985 . S
C372 C366 1.379 . S
C372 C369 1.363 . S
C372 N370 1.356 . S
C373 C367 1.363 . S
C373 C368 1.379 . S
C373 N371 1.356 . S
N374 C366 1.356 . S
N374 H380 0.984 . S
N374 H381 0.984 . S
N375 C368 1.356 . S
N375 H378 0.984 . S
N375 H379 0.985 . S
H376 N371 0.984 . S
H377 N371 0.985 . S
H378 N375 0.984 . S
H379 N375 0.985 . S
H380 N374 0.984 . S
H381 N374 0.984 . S
H382 N370 0.984 . S
H383 N370 0.985 . S
C384 C385 1.363 . S
C384 C390 1.379 . S
C384 N392 1.356 1_565 S
C385 C384 1.363 . S
C385 C391 1.363 . S
C386 C387 1.363 . S
C386 C391 1.379 . S
C386 N393 1.356 . S
C387 C386 1.363 . S
C387 C390 1.363 . S
N388 C390 1.356 . S
N388 H400 0.984 1_565 S
N388 H401 0.985 . S
N389 C391 1.356 . S
N389 H394 0.984 . S
N389 H395 0.985 . S
C390 C384 1.379 . S
C390 C387 1.363 . S
C390 N388 1.356 . S
C391 C385 1.363 . S
C391 C386 1.379 . S
C391 N389 1.356 . S
N392 C384 1.356 1_545 S
N392 H398 0.984 . S
N392 H399 0.984 . S
N393 C386 1.356 . S
N393 H396 0.984 . S
N393 H397 0.985 . S
H394 N389 0.984 . S
H395 N389 0.985 . S
H396 N393 0.984 . S
H397 N393 0.985 . S
H398 N392 0.984 . S
H399 N392 0.984 . S
H400 N388 0.984 1_545 S
H401 N388 0.985 . S
C402 C403 1.363 . S
C402 C408 1.379 . S
C402 N410 1.356 . S
C403 C402 1.363 . S
C403 C409 1.363 . S
C404 C405 1.363 . S
C404 C409 1.379 . S
C404 N411 1.356 . S
C405 C404 1.363 . S
C405 C408 1.363 . S
N406 C408 1.356 . S
N406 H418 0.984 . S
N406 H419 0.985 . S
N407 C409 1.356 . S
N407 H412 0.984 . S
N407 H413 0.985 . S
C408 C402 1.379 . S
C408 C405 1.363 . S
C408 N406 1.356 . S
C409 C403 1.363 . S
C409 C404 1.379 . S
C409 N407 1.356 . S
N410 C402 1.356 . S
N410 H416 0.984 . S
N410 H417 0.984 . S
N411 C404 1.356 . S
N411 H414 0.984 . S
N411 H415 0.985 . S
H412 N407 0.984 . S
H413 N407 0.985 . S
H414 N411 0.984 . S
H415 N411 0.985 . S
H416 N410 0.984 . S
H417 N410 0.984 . S
H418 N406 0.984 . S
H419 N406 0.985 . S
C420 C421 1.363 . S
C420 C426 1.379 . S
C420 N428 1.356 1_655 S
C421 C420 1.363 . S
C421 C427 1.363 . S
C422 C423 1.363 . S
C422 C427 1.379 . S
C422 N429 1.356 . S
C423 C422 1.363 . S
C423 C426 1.363 . S
N424 C426 1.356 . S
N424 H436 0.984 1_655 S
N424 H437 0.985 . S
N425 C427 1.356 . S
N425 H430 0.984 . S
N425 H431 0.985 . S
C426 C420 1.379 . S
C426 C423 1.363 . S
C426 N424 1.356 . S
C427 C421 1.363 . S
C427 C422 1.379 . S
C427 N425 1.356 . S
N428 C420 1.356 1_455 S
N428 H434 0.984 . S
N428 H435 0.984 . S
N429 C422 1.356 . S
N429 H432 0.984 . S
N429 H433 0.985 . S
H430 N425 0.984 . S
H431 N425 0.985 . S
H432 N429 0.984 . S
H433 N429 0.985 . S
H434 N428 0.984 . S
H435 N428 0.984 . S
H436 N424 0.984 1_455 S
H437 N424 0.985 . S
C438 C439 1.363 . S
C438 C444 1.379 . S
C438 N446 1.356 . S
C439 C438 1.363 . S
C439 C445 1.363 . S
C440 C441 1.363 . S
C440 C445 1.379 . S
C440 N447 1.356 . S
C441 C440 1.363 . S
C441 C444 1.363 . S
N442 C444 1.356 . S
N442 H454 0.984 . S
N442 H455 0.985 . S
N443 C445 1.356 . S
N443 H448 0.984 . S
N443 H449 0.985 1_545 S
C444 C438 1.379 . S
C444 C441 1.363 . S
C444 N442 1.356 . S
C445 C439 1.363 . S
C445 C440 1.379 . S
C445 N443 1.356 . S
N446 C438 1.356 . S
N446 H452 0.984 . S
N446 H453 0.984 . S
N447 C440 1.356 . S
N447 H450 0.984 . S
N447 H451 0.985 . S
H448 N443 0.984 . S
H449 N443 0.985 1_565 S
H450 N447 0.984 . S
H451 N447 0.985 . S
H452 N446 0.984 . S
H453 N446 0.984 . S
H454 N442 0.984 . S
H455 N442 0.985 . S
C456 C457 1.363 . S
C456 C462 1.379 . S
C456 N464 1.356 . S
C457 C456 1.363 . S
C457 C463 1.363 . S
C458 C459 1.363 . S
C458 C463 1.379 . S
C458 N465 1.356 1_556 S
C459 C458 1.363 . S
C459 C462 1.363 . S
N460 C462 1.356 . S
N460 H472 0.984 . S
N460 H473 0.985 1_556 S
N461 C463 1.356 1_565 S
N461 H466 0.984 . S
N461 H467 0.985 . S
C462 C456 1.379 . S
C462 C459 1.363 . S
C462 N460 1.356 . S
C463 C457 1.363 . S
C463 C458 1.379 . S
C463 N461 1.356 1_545 S
N464 C456 1.356 . S
N464 H470 0.984 . S
N464 H471 0.984 . S
N465 C458 1.356 1_554 S
N465 H468 0.984 . S
N465 H469 0.985 1_545 S
H466 N461 0.984 . S
H467 N461 0.985 . S
H468 N465 0.984 . S
H469 N465 0.985 1_565 S
H470 N464 0.984 . S
H471 N464 0.984 . S
H472 N460 0.984 . S
H473 N460 0.985 1_554 S
C474 C475 1.363 . S
C474 C480 1.379 . S
C474 N482 1.356 . S
C475 C474 1.363 . S
C475 C481 1.363 . S
C476 C477 1.363 . S
C476 C481 1.379 . S
C476 N483 1.356 . S
C477 C476 1.363 . S
C477 C480 1.363 . S
N478 C480 1.356 . S
N478 H490 0.984 . S
N478 H491 0.985 . S
N479 C481 1.356 1_655 S
N479 H484 0.984 . S
N479 H485 0.985 . S
C480 C474 1.379 . S
C480 C477 1.363 . S
C480 N478 1.356 . S
C481 C475 1.363 . S
C481 C476 1.379 . S
C481 N479 1.356 1_455 S
N482 C474 1.356 . S
N482 H488 0.984 . S
N482 H489 0.984 . S
N483 C476 1.356 . S
N483 H486 0.984 . S
N483 H487 0.985 . S
H484 N479 0.984 . S
H485 N479 0.985 . S
H486 N483 0.984 . S
H487 N483 0.985 . S
H488 N482 0.984 . S
H489 N482 0.984 . S
H490 N478 0.984 . S
H491 N478 0.985 . S
C492 C493 1.363 . S
C492 C498 1.379 . S
C492 N500 1.356 . S
C493 C492 1.363 . S
C493 C499 1.363 1_565 S
C494 C495 1.363 . S
C494 C499 1.379 . S
C494 N501 1.356 1_655 S
C495 C494 1.363 . S
C495 C498 1.363 1_545 S
N496 C498 1.356 . S
N496 H508 0.984 . S
N496 H509 0.985 1_565 S
N497 C499 1.356 . S
N497 H502 0.984 . S
N497 H503 0.985 1_655 S
C498 C492 1.379 . S
C498 C495 1.363 1_565 S
C498 N496 1.356 . S
C499 C493 1.363 1_545 S
C499 C494 1.379 . S
C499 N497 1.356 . S
N500 C492 1.356 . S
N500 H506 0.984 . S
N500 H507 0.984 . S
N501 C494 1.356 1_455 S
N501 H504 0.984 . S
N501 H505 0.985 . S
H502 N497 0.984 . S
H503 N497 0.985 1_455 S
H504 N501 0.984 . S
H505 N501 0.985 . S
H506 N500 0.984 . S
H507 N500 0.984 . S
H508 N496 0.984 . S
H509 N496 0.985 1_545 S
C510 C511 1.363 . S
C510 C516 1.379 . S
C510 N518 1.356 . S
C511 C510 1.363 . S
C511 C517 1.363 . S
C512 C513 1.363 1_556 S
C512 C517 1.379 . S
C512 N519 1.356 1_556 S
C513 C512 1.363 1_554 S
C513 C516 1.363 1_554 S
N514 C516 1.356 1_554 S
N514 H526 0.984 . S
N514 H527 0.985 . S
N515 C517 1.356 . S
N515 H520 0.984 . S
N515 H521 0.985 . S
C516 C510 1.379 . S
C516 C513 1.363 1_556 S
C516 N514 1.356 1_556 S
C517 C511 1.363 . S
C517 C512 1.379 . S
C517 N515 1.356 . S
N518 C510 1.356 . S
N518 H524 0.984 . S
N518 H525 0.984 . S
N519 C512 1.356 1_554 S
N519 H522 0.984 . S
N519 H523 0.985 . S
H520 N515 0.984 . S
H521 N515 0.985 . S
H522 N519 0.984 . S
H523 N519 0.985 . S
H524 N518 0.984 . S
H525 N518 0.984 . S
H526 N514 0.984 . S
H527 N514 0.985 . S
C528 C529 1.363 . S
C528 C534 1.379 1_455 S
C528 N536 1.356 . S
C529 C528 1.363 . S
C529 C535 1.363 1_565 S
C530 C531 1.363 . S
C530 C535 1.379 1_665 S
C530 N537 1.356 1_565 S
C531 C530 1.363 . S
C531 C534 1.363 . S
N532 C534 1.356 . S
N532 H544 0.984 . S
N532 H545 0.985 . S
N533 C535 1.356 . S
N533 H538 0.984 . S
N533 H539 0.985 . S
C534 C528 1.379 1_655 S
C534 C531 1.363 . S
C534 N532 1.356 . S
C535 C529 1.363 1_545 S
C535 C530 1.379 1_445 S
C535 N533 1.356 . S
N536 C528 1.356 . S
N536 H542 0.984 . S
N536 H543 0.984 . S
N537 C530 1.356 1_545 S
N537 H540 0.984 1_545 S
N537 H541 0.985 . S
H538 N533 0.984 . S
H539 N533 0.985 . S
H540 N537 0.984 1_565 S
H541 N537 0.985 . S
H542 N536 0.984 . S
H543 N536 0.984 . S
H544 N532 0.984 . S
H545 N532 0.985 . S
C546 C547 1.363 . S
C546 C552 1.379 . S
C546 N554 1.356 . S
C547 C546 1.363 . S
C547 C553 1.363 1_545 S
C548 C549 1.363 1_565 S
C548 C553 1.379 . S
C548 N555 1.356 . S
C549 C548 1.363 1_545 S
C549 C552 1.363 . S
N550 C552 1.356 . S
N550 H562 0.984 . S
N550 H563 0.985 . S
N551 C553 1.356 . S
N551 H556 0.984 . S
N551 H557 0.985 . S
C552 C546 1.379 . S
C552 C549 1.363 . S
C552 N550 1.356 . S
C553 C547 1.363 1_565 S
C553 C548 1.379 . S
C553 N551 1.356 . S
N554 C546 1.356 . S
N554 H560 0.984 . S
N554 H561 0.984 . S
N555 C548 1.356 . S
N555 H558 0.984 . S
N555 H559 0.985 . S
H556 N551 0.984 . S
H557 N551 0.985 . S
H558 N555 0.984 . S
H559 N555 0.985 . S
H560 N554 0.984 . S
H561 N554 0.984 . S
H562 N550 0.984 . S
H563 N550 0.985 . S
C241 C184 1.695 . S
C243 C26 1.703 . S
C259 C226 1.703 . S
C261 C64 1.695 . S
C277 C24 1.696 . S
C279 C106 1.704 . S
C295 C66 1.703 . S
C297 C144 1.695 . S
C313 C104 1.695 . S
C315 C186 1.703 . S
C331 C146 1.703 . S
C333 C224 1.695 . S
C349 C2 2.071 . S
C351 C143 2.162 . S
C367 C162 2.071 . S
C369 C63 2.161 . S
C385 C223 2.161 . S
C387 C82 2.071 . S
C403 C103 2.161 . S
C405 C202 2.071 . S
C421 C23 2.161 . S
C423 C122 2.071 . S
C439 C183 2.161 . S
C441 C42 2.071 . S
C457 C217 0.919 . S
C459 C17 0.919 1_556 S
C475 C53 1.711 1_455 S
C477 C13 1.711 . S
C493 C97 0.919 . S
C495 C57 0.919 . S
C511 C93 1.711 . S
C513 C133 1.711 . S
C529 C177 0.919 . S
C531 C137 0.919 . S
C547 C213 1.711 . S
C549 C173 1.711 1_545 S
