# Generated by pormake.
# Topology ukh, (4)-cn, num edge types: 1
# Building blocks:
#     Node 0, Type 0, BuildingBlock: ICAMEG_clean_sbu_1, # of connection points: 4
#     Node 1, Type 0, BuildingBlock: ICAMEG_clean_sbu_1, # of connection points: 4
#     Node 2, Type 0, BuildingBlock: ICAMEG_clean_sbu_1, # of connection points: 4
#     Node 3, Type 0, BuildingBlock: ICAMEG_clean_sbu_1, # of connection points: 4
#     Node 4, Type 0, BuildingBlock: ICAMEG_clean_sbu_1, # of connection points: 4
#     Node 5, Type 0, BuildingBlock: ICAMEG_clean_sbu_1, # of connection points: 4
#     Node 6, Type 0, BuildingBlock: ICAMEG_clean_sbu_1, # of connection points: 4
#     Node 7, Type 0, BuildingBlock: ICAMEG_clean_sbu_1, # of connection points: 4
#     Node 8, Type 0, BuildingBlock: ICAMEG_clean_sbu_1, # of connection points: 4
#     Node 9, Type 0, BuildingBlock: ICAMEG_clean_sbu_1, # of connection points: 4
#     Node 10, Type 0, BuildingBlock: ICAMEG_clean_sbu_1, # of connection points: 4
#     Node 11, Type 0, BuildingBlock: ICAMEG_clean_sbu_1, # of connection points: 4
#     Edge 12, Type (0, 0), BuildingBlock: EZIPEK_clean_linker_0, # of connection points: 2
#     Edge 13, Type (0, 0), BuildingBlock: EZIPEK_clean_linker_0, # of connection points: 2
#     Edge 14, Type (0, 0), BuildingBlock: EZIPEK_clean_linker_0, # of connection points: 2
#     Edge 15, Type (0, 0), BuildingBlock: EZIPEK_clean_linker_0, # of connection points: 2
#     Edge 16, Type (0, 0), BuildingBlock: EZIPEK_clean_linker_0, # of connection points: 2
#     Edge 17, Type (0, 0), BuildingBlock: EZIPEK_clean_linker_0, # of connection points: 2
#     Edge 18, Type (0, 0), BuildingBlock: EZIPEK_clean_linker_0, # of connection points: 2
#     Edge 19, Type (0, 0), BuildingBlock: EZIPEK_clean_linker_0, # of connection points: 2
#     Edge 20, Type (0, 0), BuildingBlock: EZIPEK_clean_linker_0, # of connection points: 2
#     Edge 21, Type (0, 0), BuildingBlock: EZIPEK_clean_linker_0, # of connection points: 2
#     Edge 22, Type (0, 0), BuildingBlock: EZIPEK_clean_linker_0, # of connection points: 2
#     Edge 23, Type (0, 0), BuildingBlock: EZIPEK_clean_linker_0, # of connection points: 2
#     Edge 24, Type (0, 0), BuildingBlock: EZIPEK_clean_linker_0, # of connection points: 2
#     Edge 25, Type (0, 0), BuildingBlock: EZIPEK_clean_linker_0, # of connection points: 2
#     Edge 26, Type (0, 0), BuildingBlock: EZIPEK_clean_linker_0, # of connection points: 2
#     Edge 27, Type (0, 0), BuildingBlock: EZIPEK_clean_linker_0, # of connection points: 2
#     Edge 28, Type (0, 0), BuildingBlock: EZIPEK_clean_linker_0, # of connection points: 2
#     Edge 29, Type (0, 0), BuildingBlock: EZIPEK_clean_linker_0, # of connection points: 2
#     Edge 30, Type (0, 0), BuildingBlock: EZIPEK_clean_linker_0, # of connection points: 2
#     Edge 31, Type (0, 0), BuildingBlock: EZIPEK_clean_linker_0, # of connection points: 2
#     Edge 32, Type (0, 0), BuildingBlock: EZIPEK_clean_linker_0, # of connection points: 2
#     Edge 33, Type (0, 0), BuildingBlock: EZIPEK_clean_linker_0, # of connection points: 2
#     Edge 34, Type (0, 0), BuildingBlock: EZIPEK_clean_linker_0, # of connection points: 2
#     Edge 35, Type (0, 0), BuildingBlock: EZIPEK_clean_linker_0, # of connection points: 2
# Relax obj value: 0.031
# Max RMSD: 0.046
# Mean RMSD: 0.046
data_MOF--net-ukh--node1-ICAMEG_clean_sbu_1--edge1-EZIPEK_clean_linker_0
_symmetry_space_group_name_H-M    P1
_symmetry_Int_Tables_number       1
_symmetry_cell_setting            triclinic
loop_
_symmetry_equiv_pos_as_xyz
'x, y, z'
_cell_length_a     25.408456
_cell_length_b     25.488403
_cell_length_c     51.905435
_cell_angle_alpha  89.963603
_cell_angle_beta   90.068221
_cell_angle_gamma 119.90102
loop_
_atom_site_label
_atom_site_type_symbol
_atom_site_fract_x
_atom_site_fract_y
_atom_site_fract_z
_atom_type_partial_charge
Co0 Co 0.33384 0.25355 0.0301 0.0
Co1 Co 0.24278 0.19516 0.08461 0.0
O2 O 0.32199 0.24143 0.06758 0.0
C3 C 0.38689 0.37623 0.05156 0.0
O4 O 0.33773 0.35543 0.06561 0.0
C5 C 0.32979 0.17028 0.1161 0.0
O6 O 0.37367 0.19388 0.09908 0.0
O7 O 0.22177 0.12336 0.06111 0.0
O8 O 0.27411 0.16459 0.02425 0.0
H9 H 0.013 0.08818 0.09127 0.0
H10 H 0.43858 0.29138 0.06534 0.0
O11 O 0.39356 0.3418 0.03577 0.0
H12 H 0.45571 0.15736 1.00166 0.0
H13 H 0.45612 0.34451 0.94941 0.0
H14 H 0.25247 0.2079 0.98466 0.0
H15 H 0.37153 0.17916 0.99926 0.0
H16 H 0.44108 0.32705 0.99624 0.0
O17 O 0.27774 0.16375 0.11122 0.0
H18 H 0.11032 0.14423 0.0694 0.0
H19 H 0.20292 0.15501 0.1393 0.0
H20 H 0.26554 0.22352 0.93773 0.0
H21 H 0.52373 0.27118 0.06848 0.0
H22 H 0.368 0.29232 0.9198 0.0
H23 H 0.53257 0.20348 0.03651 0.0
O24 O 0.26764 0.27384 0.02661 0.0
H25 H 0.37981 0.37201 0.14113 0.0
H26 H 0.17666 0.25844 0.10173 0.0
H27 H 0.20141 0.34657 0.12911 0.0
H28 H 0.30351 0.40394 0.14919 0.0
H29 H 0.35346 0.2844 0.1133 0.0
H30 H 0.10594 0.0973 0.16152 0.0
H31 H 0.00956 0.06292 0.13763 0.0
O32 O 0.20575 0.22631 0.05971 0.0
C33 C 0.23509 0.11902 0.03746 0.0
C34 C 0.05461 0.10116 0.10173 0.0
C35 C 0.1067 0.10629 0.14109 0.0
N36 N 0.16385 0.14946 0.10212 0.0
C37 C 0.11061 0.13244 0.08924 0.0
C38 C 0.16195 0.13812 0.12806 0.0
C39 C 0.05268 0.08727 0.12774 0.0
C40 C 0.44203 0.26177 0.05145 0.0
N41 N 0.39948 0.23557 0.03246 0.0
C42 C 0.49038 0.25053 0.05328 0.0
C43 C 0.49533 0.21258 0.03534 0.0
C44 C 0.45221 0.18665 0.0158 0.0
C45 C 0.40449 0.19894 0.01461 0.0
C46 C 0.41127 0.31436 0.95699 0.0
C47 C 0.29724 0.23749 0.97702 0.0
C48 C 0.40243 0.30446 0.9835 0.0
N49 N 0.34597 0.26611 0.99319 0.0
C50 C 0.30434 0.24636 0.95042 0.0
C51 C 0.36182 0.28503 0.94038 0.0
C52 C 0.21954 0.25832 0.03946 0.0
C53 C 0.33483 0.34688 0.13282 0.0
C54 C 0.22101 0.28259 0.11056 0.0
C55 C 0.23483 0.33271 0.126 0.0
C56 C 0.29211 0.36489 0.13725 0.0
N57 N 0.26286 0.26458 0.10656 0.0
C58 C 0.31936 0.29651 0.11729 0.0
Co59 Co 0.11506 0.3443 0.36532 0.0
Co60 Co 0.06128 0.23149 0.41111 0.0
O61 O 0.09403 0.31721 0.4015 0.0
C62 C 0.04346 0.40256 0.38285 0.0
O63 O 1.00095 0.34919 0.39069 0.0
C64 C 0.12295 0.30342 0.46004 0.0
O65 O 0.13713 0.35477 0.4487 0.0
O66 O 0.13646 0.23502 0.39668 0.0
O67 O 0.14652 0.28499 0.35969 0.0
H68 H 0.9973 0.0144 0.39135 0.0
H69 H 0.16248 0.42715 0.40987 0.0
O70 O 0.08824 0.4061 0.3704 0.0
H71 H 0.34225 0.47882 0.35668 0.0
H72 H 0.18741 0.49257 0.29112 0.0
H73 H 0.09972 0.27874 0.31652 0.0
H74 H 0.24071 0.39949 0.34283 0.0
H75 H 0.16808 0.46283 0.33675 0.0
O76 O 0.09801 0.25386 0.44724 0.0
H77 H 0.0439 0.12302 0.38222 0.0
H78 H 0.01049 0.1557 0.45897 0.0
H79 H 0.11968 0.30661 0.27066 0.0
H80 H 0.26321 0.50622 0.42473 0.0
H81 H 0.16369 0.41421 0.25766 0.0
H82 H 0.3542 0.53257 0.39806 0.0
O83 O 0.03124 0.28254 0.35414 0.0
H84 H 0.93399 0.30729 0.45511 0.0
H85 H 0.93018 0.13979 0.4064 0.0
H86 H 0.83432 0.13154 0.42066 0.0
H87 H 0.83565 0.2154 0.44551 0.0
H88 H 0.02894 0.31495 0.43959 0.0
H89 H 0.96637 0.0479 0.46933 0.0
H90 H 0.95821 0.97589 0.43525 0.0
O91 O 0.02191 0.20453 0.37707 0.0
C92 C 0.1575 0.24968 0.37369 0.0
C93 C 1.00053 0.04523 0.40641 0.0
C94 C 0.98332 0.06409 0.45013 0.0
N95 N 0.0301 0.14648 0.41996 0.0
C96 C 0.02656 0.107 0.40129 0.0
C97 C 0.00913 0.12552 0.44422 0.0
C98 C 0.97865 0.0237 0.43101 0.0
C99 C 0.20194 0.43685 0.39856 0.0
N100 N 0.19586 0.40614 0.37617 0.0
C101 C 0.25885 0.48237 0.4069 0.0
C102 C 0.30982 0.49728 0.3919 0.0
C103 C 0.30315 0.4671 0.36871 0.0
C104 C 0.24548 0.42177 0.36105 0.0
C105 C 0.16818 0.44552 0.29653 0.0
C106 C 0.11948 0.32576 0.3111 0.0
C107 C 0.15661 0.42835 0.32238 0.0
N108 N 0.13299 0.36913 0.32944 0.0
C109 C 0.1304 0.34122 0.28506 0.0
C110 C 0.15497 0.40156 0.27777 0.0
C111 C 1.0033 0.22652 0.35977 0.0
C112 C 0.93296 0.27031 0.44447 0.0
C113 C 0.93177 0.17649 0.41743 0.0
C114 C 0.87698 0.17158 0.4253 0.0
C115 C 0.87774 0.21868 0.43914 0.0
N116 N 0.98622 0.2267 0.42329 0.0
C117 C 0.98687 0.27407 0.43587 0.0
Co118 Co 0.77529 0.09548 0.70089 0.0
Co119 Co 0.82114 0.04806 0.75502 0.0
O120 O 0.7793 0.08624 0.73828 0.0
C121 C 0.64606 0.02455 0.71617 0.0
O122 O 0.66065 0.99058 0.72997 0.0
C123 C 0.85104 0.15834 0.78762 0.0
O124 O 0.84286 0.18736 0.7686 0.0
O125 O 0.8984 0.10273 0.73507 0.0
O126 O 0.86447 0.12281 0.69803 0.0
H127 H 0.92321 0.92124 0.75992 0.0
H128 H 0.7366 0.15748 0.73826 0.0
O129 O 0.68649 0.0693 0.70349 0.0
H130 H 0.88319 0.31878 0.68131 0.0
H131 H 0.70507 0.15117 0.61981 0.0
H132 H 0.82855 0.06846 0.65548 0.0
H133 H 0.85841 0.21297 0.67513 0.0
H134 H 0.7118 0.14099 0.66676 0.0
O135 O 0.84746 0.10733 0.78418 0.0
H136 H 0.87812 0.97403 0.73802 0.0
H137 H 0.84386 0.0303 0.81017 0.0
H138 H 0.8237 0.07852 0.60845 0.0
H139 H 0.75935 0.26248 0.74507 0.0
H140 H 0.76156 0.12014 0.5903 0.0
H141 H 0.83343 0.34414 0.71649 0.0
O142 O 0.75337 0.00953 0.69433 0.0
H143 H 0.63579 1.00127 0.80698 0.0
H144 H 0.7497 0.915 0.76508 0.0
H145 H 0.6543 0.84748 0.78773 0.0
H146 H 0.5967 0.89051 0.80899 0.0
H147 H 0.73085 0.06693 0.78376 0.0
H148 H 0.89041 0.97929 0.83267 0.0
H149 H 0.92989 0.92344 0.80776 0.0
O150 O 0.7951 0.98678 0.72735 0.0
C151 C 0.90723 0.12549 0.71219 0.0
C152 C 0.90742 0.94657 0.77106 0.0
C153 C 0.88896 0.97908 0.81182 0.0
N154 N 0.86133 0.00922 0.77238 0.0
C155 C 0.88237 0.97764 0.75864 0.0
C156 C 0.8636 0.00911 0.79878 0.0
C157 C 0.91099 0.94762 0.79783 0.0
C158 C 0.76816 0.19256 0.7256 0.0
N159 N 0.79581 0.17896 0.7063 0.0
C160 C 0.78121 0.25204 0.72962 0.0
C161 C 0.82282 0.29782 0.7136 0.0
C162 C 0.85075 0.28364 0.69387 0.0
C163 C 0.83657 0.22362 0.69049 0.0
C164 C 0.73233 0.13301 0.62748 0.0
C165 C 0.80176 0.08694 0.64778 0.0
C166 C 0.73611 0.12687 0.65406 0.0
N167 N 0.77085 0.10441 0.66391 0.0
C168 C 0.79901 0.09237 0.6211 0.0
C169 C 0.76408 0.11565 0.61094 0.0
C170 C 0.76685 0.97399 0.7061 0.0
C171 C 0.66072 0.982 0.79799 0.0
C172 C 0.72514 0.93426 0.77434 0.0
C173 C 0.67105 0.8957 0.78713 0.0
C174 C 0.63875 0.91987 0.79905 0.0
N175 N 0.74666 0.99526 0.7735 0.0
C176 C 0.71495 0.01913 0.785 0.0
Co177 Co 0.62419 0.75305 0.02858 0.0
Co178 Co 0.74906 0.81815 0.06662 0.0
O179 O 0.66231 0.76312 0.06245 0.0
C180 C 0.57151 0.62808 0.04934 0.0
O181 O 0.62742 0.63989 0.05322 0.0
C182 C 0.6974 0.84363 0.11424 0.0
O183 O 0.65894 0.85205 0.1004 0.0
O184 O 0.73794 0.88593 0.05348 0.0
O185 O 0.68334 0.83978 0.01841 0.0
H186 H 0.95252 0.98615 0.03837 0.0
H187 H 0.54993 0.72244 0.07606 0.0
O188 O 0.56319 0.66739 0.03782 0.0
H189 H 0.52098 0.87814 0.03245 0.0
H190 H 0.44502 0.68015 0.96861 0.0
H191 H 0.6676 0.77743 0.97433 0.0
H192 H 0.58555 0.84193 0.01304 0.0
H193 H 0.49564 0.69875 0.01079 0.0
O194 O 0.73585 0.83288 0.10335 0.0
H195 H 0.84327 0.91479 0.03411 0.0
H196 H 0.83997 0.84272 0.10831 0.0
H197 H 0.61918 0.76032 0.93173 0.0
H198 H 0.48439 0.75684 0.096 0.0
H199 H 0.50691 0.71139 0.92863 0.0
H200 H 0.46965 0.83537 0.07419 0.0
O201 O 0.68056 0.72691 0.01394 0.0
H202 H 0.69744 0.63348 0.11976 0.0
H203 H 0.83503 0.77398 0.0538 0.0
H204 H 0.84762 0.6887 0.06799 0.0
H205 H 0.77868 0.61781 0.10131 0.0
H206 H 0.68516 0.71842 0.10443 0.0
H207 H 0.94988 0.91304 0.11325 0.0
H208 H 0.00723 0.9844 0.07789 0.0
O209 O 0.76561 0.80276 0.03085 0.0
C210 C 0.71771 0.88814 0.03105 0.0
C211 C 0.92842 0.95473 0.05381 0.0
C212 C 0.92676 0.91376 0.09585 0.0
N213 N 0.8352 0.87438 0.07089 0.0
C214 C 0.86632 0.91426 0.05153 0.0
C215 C 0.8645 0.87417 0.09296 0.0
C216 C 0.95888 0.95399 0.07603 0.0
C217 C 0.54329 0.75618 0.06631 0.0
N218 N 0.57127 0.7798 0.04331 0.0
C219 C 0.50629 0.77566 0.07775 0.0
C220 C 0.49814 0.81979 0.06553 0.0
C221 C 0.52696 0.84384 0.04212 0.0
C222 C 0.56365 0.82328 0.03126 0.0
C223 C 0.494 0.70179 0.96969 0.0
C224 C 0.61899 0.75655 0.97322 0.0
C225 C 0.52297 0.7124 0.99356 0.0
N226 N 0.58485 0.74017 0.99516 0.0
C227 C 0.59168 0.74678 0.949 0.0
C228 C 0.52872 0.71929 0.94727 0.0
C229 C 0.7384 0.75835 0.01544 0.0
C230 C 0.72773 0.66407 0.10523 0.0
C231 C 0.80439 0.74307 0.06812 0.0
C232 C 0.81197 0.69497 0.07617 0.0
C233 C 0.77331 0.65527 0.09487 0.0
N234 N 0.7594 0.75135 0.07831 0.0
C235 C 0.72122 0.71246 0.09659 0.0
Co236 Co 0.90663 0.64356 0.36112 0.0
Co237 Co 0.9661 0.75686 0.40774 0.0
O238 O 0.92314 0.67184 0.39693 0.0
C239 C 0.98 0.59198 0.38143 0.0
O240 O 0.0167 0.64601 0.3907 0.0
C241 C 0.86063 0.69306 0.44506 0.0
O242 O 0.82892 0.64816 0.42918 0.0
O243 O 0.91272 0.77519 0.38459 0.0
O244 O 0.88141 0.70504 0.3529 0.0
H245 H 0.07925 0.9825 0.39491 0.0
H246 H 0.84991 0.55614 0.404 0.0
O247 O 0.93232 0.58179 0.36912 0.0
H248 H 0.6793 0.53624 0.35149 0.0
H249 H 0.83439 0.48413 0.29187 0.0
H250 H 0.91586 0.70088 0.30992 0.0
H251 H 0.78496 0.60876 0.33934 0.0
H252 H 0.85662 0.52225 0.33641 0.0
O253 O 0.91025 0.73876 0.438 0.0
H254 H 0.02523 0.87629 0.38104 0.0
H255 H 0.9999 0.8187 0.45904 0.0
H256 H 0.89363 0.66452 0.26517 0.0
H257 H 0.74507 0.48211 0.41671 0.0
H258 H 0.85282 0.55542 0.25583 0.0
H259 H 0.65877 0.47204 0.39038 0.0
O260 O 0.99207 0.70231 0.35026 0.0
H261 H 0.01053 0.63237 0.47002 0.0
H262 H 0.09914 0.82022 0.41885 0.0
H263 H 0.16584 0.79861 0.4459 0.0
H264 H 0.12161 0.70413 0.4718 0.0
H265 H 0.94585 0.65564 0.44254 0.0
H266 H 0.05341 0.92452 0.47364 0.0
H267 H 0.09432 0.00762 0.44141 0.0
O268 O 0.02563 0.77787 0.37919 0.0
C269 C 0.88505 0.75237 0.36317 0.0
C270 C 0.06193 0.94687 0.40906 0.0
C271 C 0.04718 0.91432 0.45325 0.0
N272 N 0.00845 0.8409 0.41903 0.0
C273 C 0.03081 0.88643 0.40128 0.0
C274 C 0.01629 0.85433 0.4448 0.0
C275 C 0.07026 0.96087 0.43519 0.0
C276 C 0.81272 0.55117 0.39227 0.0
N277 N 0.82366 0.58629 0.37089 0.0
C278 C 0.75338 0.50956 0.39964 0.0
C279 C 0.705 0.50403 0.3849 0.0
C280 C 0.71648 0.54005 0.36309 0.0
C281 C 0.77644 0.58114 0.35633 0.0
C282 C 0.85273 0.53188 0.29566 0.0
C283 C 0.89848 0.65342 0.30613 0.0
C284 C 0.866 0.5539 0.32086 0.0
N285 N 0.88912 0.61415 0.32583 0.0
C286 C 0.88582 0.63305 0.28068 0.0
C287 C 0.86293 0.57186 0.27546 0.0
C288 C 0.03277 0.75339 0.35909 0.0
C289 C 0.03036 0.67392 0.45898 0.0
C290 C 0.07943 0.77913 0.43013 0.0
C291 C 0.11748 0.76712 0.44541 0.0
C292 C 0.09265 0.71412 0.45993 0.0
N293 N 0.01827 0.73969 0.4294 0.0
C294 C 0.99376 0.68754 0.44351 0.0
Co295 Co 0.2666 0.90966 0.69513 0.0
Co296 Co 0.20425 0.94986 0.74474 0.0
O297 O 0.25305 0.91607 0.73173 0.0
C298 C 0.40051 0.96642 0.69346 0.0
O299 O 0.39931 0.9982 0.6738 0.0
C300 C 0.21086 0.87668 0.78786 0.0
O301 O 0.26252 0.886 0.77819 0.0
O302 O 0.13511 0.89234 0.722 0.0
O303 O 0.18201 0.89031 0.68569 0.0
H304 H 0.14221 0.10696 0.76259 0.0
H305 H 0.29219 0.83805 0.73302 0.0
O306 O 0.35131 0.92837 0.70453 0.0
H307 H 0.13582 0.68746 0.67519 0.0
H308 H 0.33832 0.83897 0.61889 0.0
H309 H 0.24241 0.95613 0.64694 0.0
H310 H 0.17578 0.79646 0.66818 0.0
H311 H 0.31984 0.84695 0.66489 0.0
O312 O 0.17665 0.89064 0.77477 0.0
H313 H 0.21135 0.07181 0.74805 0.0
H314 H 0.08144 0.89091 0.76684 0.0
H315 H 0.25871 0.94861 0.60064 0.0
H316 H 0.25398 0.72945 0.7405 0.0
H317 H 0.30749 0.88997 0.58632 0.0
H318 H 0.17514 0.65328 0.71149 0.0
O319 O 0.29689 0.99848 0.69071 0.0
H320 H 0.42511 0.08287 0.76817 0.0
H321 H 0.21458 0.00691 0.79675 0.0
H322 H 0.29869 0.0822 0.82304 0.0
H323 H 0.40505 0.1205 0.80899 0.0
H324 H 0.33998 0.01162 0.74125 0.0
H325 H 0.01188 0.92396 0.78287 0.0
H326 H 0.04167 0.03294 0.78064 0.0
O327 O 0.23484 0.01308 0.71663 0.0
C328 C 0.13413 0.87909 0.69809 0.0
C329 C 0.12866 0.05948 0.76378 0.0
C330 C 0.05553 0.95696 0.77518 0.0
N331 N 0.15146 0.97965 0.75696 0.0
C332 C 0.16775 0.03934 0.75534 0.0
C333 C 0.09558 0.93852 0.76632 0.0
C334 C 0.07226 0.01792 0.77389 0.0
C335 C 0.25827 0.80527 0.72017 0.0
N336 N 0.23663 0.82377 0.70009 0.0
C337 C 0.23663 0.74379 0.72456 0.0
C338 C 0.19234 0.70107 0.7083 0.0
C339 C 0.17023 0.72022 0.68794 0.0
C340 C 0.19292 0.78207 0.68413 0.0
C341 C 0.31749 0.86508 0.62487 0.0
C342 C 0.26338 0.93043 0.64089 0.0
C343 C 0.30746 0.8702 0.65097 0.0
N344 N 0.2812 0.90306 0.65875 0.0
C345 C 0.27265 0.9264 0.61463 0.0
C346 C 0.30005 0.89356 0.60661 0.0
C347 C 0.27637 0.03173 0.69934 0.0
C348 C 0.37893 0.06708 0.77435 0.0
C349 C 0.26036 0.0251 0.78969 0.0
C350 C 0.30803 0.06722 0.80499 0.0
C351 C 0.36768 0.08835 0.7972 0.0
N352 N 0.27149 0.00644 0.76662 0.0
C353 C 0.33013 0.02594 0.75926 0.0
Co354 Co 0.76347 0.65784 0.64673 0.0
Co355 Co 0.82242 0.77434 0.60244 0.0
O356 O 0.77165 0.68875 0.61151 0.0
C357 C 0.63355 0.60356 0.63086 0.0
O358 O 0.6445 0.65711 0.6232 0.0
C359 C 0.82175 0.7027 0.5552 0.0
O360 O 0.78694 0.65161 0.5672 0.0
O361 O 0.89463 0.77621 0.61973 0.0
O362 O 0.85174 0.71742 0.65433 0.0
H363 H 0.97122 0.99173 0.62299 0.0
H364 H 0.72195 0.56883 0.60395 0.0
O365 O 0.6758 0.59642 0.64031 0.0
H366 H 0.88867 0.5545 0.64579 0.0
H367 H 0.69772 0.49038 0.71206 0.0
H368 H 0.7793 0.70899 0.70026 0.0
H369 H 0.85619 0.62432 0.66253 0.0
H370 H 0.71395 0.53377 0.66856 0.0
O371 O 0.84307 0.75324 0.56721 0.0
H372 H 0.91283 0.88229 0.63128 0.0
H373 H 0.84536 0.85048 0.55483 0.0
H374 H 0.76472 0.66769 0.74396 0.0
H375 H 0.75258 0.49788 0.58677 0.0
H376 H 0.72385 0.55751 0.75025 0.0
H377 H 0.83665 0.49052 0.60767 0.0
O378 O 0.74035 0.7182 0.65937 0.0
H379 H 0.6204 0.68276 0.55611 0.0
H380 H 0.77531 0.86033 0.6035 0.0
H381 H 0.68463 0.86044 0.58711 0.0
H382 H 0.60638 0.77139 0.56304 0.0
H383 H 0.71156 0.6845 0.57266 0.0
H384 H 0.90634 0.95903 0.545 0.0
H385 H 0.96882 0.03096 0.57943 0.0
O386 O 0.80286 0.79887 0.63551 0.0
C387 C 0.89873 0.75801 0.64243 0.0
C388 C 0.94406 0.96098 0.60781 0.0
C389 C 0.90764 0.9426 0.56409 0.0
N390 N 0.87405 0.8597 0.59385 0.0
C391 C 0.91026 0.89887 0.61253 0.0
C392 C 0.87349 0.88086 0.5697 0.0
C393 C 0.9426 0.98293 0.5834 0.0
C394 C 0.75835 0.56567 0.61325 0.0
N395 N 0.78736 0.60095 0.63414 0.0
C396 C 0.77559 0.52551 0.60339 0.0
C397 C 0.82282 0.52147 0.6151 0.0
C398 C 0.85209 0.55742 0.63646 0.0
C399 C 0.83373 0.59719 0.64575 0.0
C400 C 0.71713 0.53872 0.70961 0.0
C401 C 0.76414 0.6616 0.70253 0.0
C402 C 0.72719 0.56382 0.68494 0.0
N403 N 0.75243 0.62498 0.68155 0.0
C404 C 0.75479 0.63816 0.7275 0.0
C405 C 0.73159 0.57634 0.73101 0.0
C406 C 0.76687 0.77484 0.65439 0.0
C407 C 0.65474 0.72238 0.56612 0.0
C408 C 0.7425 0.82187 0.59249 0.0
C409 C 0.69076 0.82202 0.58348 0.0
C410 C 0.64681 0.772 0.57006 0.0
N411 N 0.75122 0.77386 0.58783 0.0
C412 C 0.70705 0.72384 0.57544 0.0
Co413 Co 0.05841 0.75788 0.98443 0.0
Co414 Co 0.04443 0.824 0.9287 0.0
O415 O 0.06416 0.76846 0.94692 0.0
C416 C 0.99223 0.62981 0.96549 0.0
O417 O 0.96208 0.6438 0.94899 0.0
C418 C 0.14012 0.81796 0.89497 0.0
O419 O 0.14585 0.78029 0.91038 0.0
O420 O 0.104 0.89332 0.95163 0.0
O421 O 0.08785 0.84583 0.98992 0.0
H422 H 0.97973 0.98026 0.92103 0.0
H423 H 0.12807 0.7133 0.95487 0.0
O424 O 0.03092 0.6696 0.9806 0.0
H425 H 0.27578 0.86574 0.01483 0.0
H426 H 0.08491 0.67427 0.06834 0.0
H427 H 1.00461 0.79388 0.02698 0.0
H428 H 0.16879 0.84084 0.01505 0.0
H429 H 0.09506 0.6923 0.02149 0.0
O430 O 0.10878 0.84237 0.90155 0.0
H431 H 0.02171 0.92418 0.94355 0.0
H432 H 0.03286 0.8468 0.87302 0.0
H433 H 0.99392 0.77757 0.07386 0.0
H434 H 0.23452 0.73624 0.95426 0.0
H435 H 0.03431 0.7173 0.09491 0.0
H436 H 0.30926 0.81311 0.98434 0.0
O437 O 0.97234 0.74097 0.98367 0.0
H438 H 0.96166 0.62844 0.87877 0.0
H439 H 0.91842 0.78485 0.91086 0.0
H440 H 0.84135 0.70034 0.88517 0.0
H441 H 0.86299 0.62171 0.8685 0.0
H442 H 0.03613 0.71259 0.90528 0.0
H443 H 1.00074 0.90966 0.84923 0.0
H444 H 0.97194 0.97576 0.87332 0.0
O445 O 0.97751 0.80649 0.95347 0.0
C446 C 0.10911 0.894 0.97641 0.0
C447 C 0.99298 0.95248 0.91028 0.0
C448 C 1.00414 0.91235 0.87003 0.0
N449 N 0.02629 0.8795 0.91002 0.0
C450 C 0.01462 0.91888 0.92313 0.0
C451 C 0.02302 0.87734 0.88366 0.0
C452 C 0.98806 0.94943 0.88353 0.0
C453 C 0.16021 0.74649 0.96814 0.0
N454 N 0.14215 0.77565 0.98495 0.0
C455 C 0.22048 0.75942 0.96766 0.0
C456 C 0.2624 0.8026 0.98452 0.0
C457 C 0.24366 0.83217 1.00162 0.0
C458 C 0.18302 0.81804 1.00157 0.0
C459 C 0.06765 0.70111 0.05944 0.0
C460 C 0.02337 0.76878 0.03598 0.0
C461 C 0.0734 0.71163 0.03291 0.0
N462 N 0.05198 0.74572 0.02152 0.0
C463 C 0.01672 0.75917 0.06256 0.0
C464 C 0.03923 0.72522 0.07433 0.0
C465 C 0.94997 0.76955 0.97186 0.0
C466 C 0.95229 0.66331 0.88525 0.0
C467 C 0.92887 0.75149 0.90342 0.0
C468 C 0.88471 0.70344 0.88897 0.0
C469 C 0.89683 0.65934 0.87965 0.0
N470 N 0.98428 0.75649 0.90806 0.0
C471 C 0.99525 0.71207 0.89977 0.0
Co472 Co 0.34709 0.08065 0.31877 0.0
Co473 Co 0.2455 0.04412 0.26971 0.0
O474 O 0.32824 0.07104 0.28197 0.0
C475 C 0.40599 0.00784 0.3037 0.0
O476 O 0.35363 0.96501 0.29493 0.0
C477 C 0.32859 0.11474 0.22463 0.0
O478 O 0.37742 0.12434 0.23721 0.0
O479 O 0.24838 0.11642 0.28739 0.0
O480 O 0.28594 0.1075 0.32531 0.0
H481 H 0.03303 0.00902 0.27852 0.0
H482 H 0.44728 0.14243 0.28125 0.0
O483 O 0.41069 0.05597 0.3134 0.0
H484 H 0.45375 0.30546 0.33468 0.0
H485 H 0.48478 0.13847 0.39613 0.0
H486 H 0.2731 0.05107 0.36639 0.0
H487 H 0.37816 0.19877 0.34326 0.0
H488 H 0.461 0.12857 0.34972 0.0
O489 O 0.27675 0.08962 0.23577 0.0
H490 H 0.13759 0.04335 0.2925 0.0
H491 H 0.17898 0.99833 0.21954 0.0
H492 H 0.29496 0.06102 0.41296 0.0
H493 H 0.52403 0.24859 0.27212 0.0
H494 H 0.40145 0.10475 0.42812 0.0
H495 H 0.52749 0.33097 0.29892 0.0
O496 O 0.28294 0.99452 0.32453 0.0
H497 H 0.3341 0.92393 0.22998 0.0
H498 H 0.14871 0.91446 0.26376 0.0
H499 H 0.14436 0.82178 0.24801 0.0
H500 H 0.23744 0.82586 0.23075 0.0
H501 H 0.33642 0.01556 0.24573 0.0
H502 H 0.07561 0.96619 0.20425 0.0
H503 H 1.00101 0.96954 0.23407 0.0
O504 O 0.20924 0.99457 0.30162 0.0
C505 C 0.25754 0.12723 0.31169 0.0
C506 C 0.06479 0.00662 0.26538 0.0
C507 C 0.08867 0.98247 0.22377 0.0
N508 N 0.16398 0.02026 0.25736 0.0
C509 C 0.12411 0.02548 0.27332 0.0
C510 C 0.14738 1.00098 0.23253 0.0
C511 C 0.04691 0.98457 0.24047 0.0
C512 C 0.44876 0.17803 0.29307 0.0
N513 N 0.40835 0.16439 0.31275 0.0
C514 C 0.49222 0.23805 0.28779 0.0
C515 C 0.4941 0.28425 0.30281 0.0
C516 C 0.45275 0.26998 0.32288 0.0
C517 C 0.40995 0.20945 0.3276 0.0
C518 C 0.43819 0.11929 0.38977 0.0
C519 C 0.31962 0.07069 0.3728 0.0
C520 C 0.42441 0.11334 0.3635 0.0
N521 N 0.36569 0.08921 0.35532 0.0
C522 C 0.33169 0.07596 0.39922 0.0
C523 C 0.39143 0.10042 0.40771 0.0
C524 C 0.22683 0.97072 0.31878 0.0
C525 C 0.29297 0.92165 0.23708 0.0
C526 C 0.18931 0.9175 0.25585 0.0
C527 C 0.1866 0.8644 0.24712 0.0
C528 C 0.2388 0.86666 0.23754 0.0
N529 N 0.24219 0.97197 0.25469 0.0
C530 C 0.29394 0.97378 0.24608 0.0
Co531 Co 0.26191 0.34539 0.65177 0.0
Co532 Co 0.20061 0.22899 0.60639 0.0
O533 O 0.24849 0.31477 0.61621 0.0
C534 C 0.38824 0.39823 0.63091 0.0
O535 O 0.37339 0.34642 0.61984 0.0
C536 C 0.16093 0.2957 0.57035 0.0
O537 O 0.17126 0.33716 0.58769 0.0
O538 O 0.1315 0.21646 0.62959 0.0
O539 O 0.17527 0.28708 0.66064 0.0
H540 H 0.08078 0.00552 0.62412 0.0
H541 H 0.29856 0.43308 0.60868 0.0
O542 O 0.34927 0.40481 0.64372 0.0
H543 H 0.14706 0.45859 0.65801 0.0
H544 H 0.36053 0.50903 0.71901 0.0
H545 H 0.20802 0.29554 0.70399 0.0
H546 H 0.17673 0.38437 0.67179 0.0
H547 H 0.34042 0.46751 0.67521 0.0
O548 O 0.16488 0.24925 0.57605 0.0
H549 H 0.13613 0.11348 0.63545 0.0
H550 H 0.16329 0.16134 0.55622 0.0
H551 H 0.22689 0.33542 0.74797 0.0
H552 H 0.27081 0.50843 0.5944 0.0
H553 H 0.3039 0.44294 0.75591 0.0
H554 H 0.19432 0.52137 0.61908 0.0
O555 O 0.28565 0.28441 0.66304 0.0
H556 H 0.3675 0.34044 0.54176 0.0
H557 H 0.26049 0.15607 0.59474 0.0
H558 H 0.34358 0.169 0.56624 0.0
H559 H 0.39789 0.2618 0.53951 0.0
H560 H 0.28407 0.32548 0.57042 0.0
H561 H 0.10672 0.05371 0.54403 0.0
H562 H 0.06614 0.97476 0.5781 0.0
O563 O 0.23757 0.20679 0.63514 0.0
C564 C 0.1297 0.24072 0.65097 0.0
C565 C 0.09873 0.03941 0.60909 0.0
C566 C 0.11303 0.0665 0.56416 0.0
N567 N 0.15331 0.14405 0.59664 0.0
C568 C 0.13004 0.10079 0.61542 0.0
C569 C 0.1445 0.12751 0.57122 0.0
C570 C 0.09044 0.02222 0.58327 0.0
C571 C 0.26574 0.43892 0.61968 0.0
N572 N 0.2393 0.40435 0.64103 0.0
C573 C 0.25 0.48146 0.61143 0.0
C574 C 0.20701 0.48863 0.62526 0.0
C575 C 0.18045 0.45339 0.64709 0.0
C576 C 0.19731 0.41129 0.65476 0.0
C577 C 0.32777 0.46174 0.71589 0.0
C578 C 0.24296 0.3417 0.70702 0.0
C579 C 0.31666 0.4375 0.69104 0.0
N580 N 0.27561 0.37766 0.68682 0.0
C581 C 0.25285 0.36439 0.73213 0.0
C582 C 0.29589 0.42473 0.73657 0.0
C583 C 0.27042 0.23113 0.65498 0.0
C584 C 0.34412 0.29971 0.55325 0.0
C585 C 0.28353 0.19642 0.58306 0.0
C586 C 0.33068 0.20353 0.56697 0.0
C587 C 0.36116 0.25561 0.552 0.0
N588 N 0.26699 0.23984 0.5842 0.0
C589 C 0.29665 0.29093 0.5695 0.0
Co590 Co 0.89767 0.26132 0.99018 0.0
Co591 Co 0.95652 0.20748 0.94495 0.0
O592 O 0.92032 0.2567 0.95447 0.0
C593 C 0.96719 0.39148 0.97505 0.0
O594 O 0.01203 0.38345 0.9677 0.0
C595 C 0.89004 0.21229 0.89671 0.0
O596 O 0.87224 0.24637 0.90841 0.0
O597 O 0.88346 0.13426 0.95989 0.0
O598 O 0.87308 0.17364 0.9967 0.0
H599 H 0.03022 0.06178 0.96434 0.0
H600 H 0.84496 0.2994 0.94802 0.0
O601 O 0.91911 0.34782 0.98454 0.0
H602 H 0.66984 0.12995 0.99115 0.0
H603 H 0.79592 0.32002 0.05844 0.0
H604 H 0.93128 0.23719 0.0423 0.0
H605 H 0.77386 0.166 1.00692 0.0
H606 H 0.82298 0.30861 0.0141 0.0
O607 O 0.91909 0.19119 0.90906 0.0
H608 H 0.97061 0.1124 0.97207 0.0
H609 H 0.01774 0.19359 0.89816 0.0
H610 H 0.90461 0.24679 0.08686 0.0
H611 H 0.74161 0.26506 0.93174 0.0
H612 H 0.83627 0.2884 0.09525 0.0
H613 H 0.65315 0.17966 0.95332 0.0
O614 O 0.98273 0.28725 1.00217 0.0
H615 H 0.07139 0.41367 0.90313 0.0
H616 H 0.08989 0.25526 0.94975 0.0
H617 H 0.18212 0.34833 0.93681 0.0
H618 H 0.17347 0.42841 0.91314 0.0
H619 H 0.98042 0.31992 0.91638 0.0
H620 H 0.07625 0.1426 0.88922 0.0
H621 H 0.08586 0.07901 0.92306 0.0
O622 O 0.99672 0.22184 0.97869 0.0
C623 C 0.86459 0.1277 0.98331 0.0
C624 C 0.0278 0.09081 0.94972 0.0
C625 C 0.05331 0.13584 0.90751 0.0
N626 N 0.99207 0.15759 0.93594 0.0
C627 C 0.99408 0.1196 0.954 0.0
C628 C 0.01934 0.16404 0.91255 0.0
C629 C 0.05871 0.1002 0.9265 0.0
C630 C 0.80671 0.2624 0.95759 0.0
N631 N 0.81556 0.23472 0.97836 0.0
C632 C 0.74828 0.24307 0.94825 0.0
C633 C 0.69868 0.1951 0.96035 0.0
C634 C 0.70802 0.16715 0.98155 0.0
C635 C 0.76709 0.18761 0.99032 0.0
C636 C 0.82477 0.3007 0.05504 0.0
C637 C 0.89989 0.25325 0.0456 0.0
C638 C 0.83994 0.29367 0.02993 0.0
N639 N 0.87588 0.26873 0.02539 0.0
C640 C 0.88565 0.25952 0.07098 0.0
C641 C 0.84751 0.28308 0.07568 0.0
C642 C 0.01163 0.25937 0.99706 0.0
C643 C 0.07583 0.3787 0.91305 0.0
C644 C 0.08526 0.28902 0.93897 0.0
C645 C 0.13792 0.34205 0.93189 0.0
C646 C 0.13306 0.38701 0.91871 0.0
N647 N 0.02898 0.28016 0.93271 0.0
C648 C 0.02418 0.32512 0.92053 0.0
Co649 Co 0.67924 0.90547 0.31504 0.0
Co650 Co 0.78032 0.9634 0.26384 0.0
O651 O 0.69795 0.92255 0.27822 0.0
C652 C 0.61775 0.97583 0.30112 0.0
O653 O 0.66662 0.0138 0.28835 0.0
C654 C 0.71136 0.85914 0.22592 0.0
O655 O 0.6795 0.81905 0.24368 0.0
O656 O 0.79887 0.90304 0.28161 0.0
O657 O 0.74151 0.87819 0.31779 0.0
H658 H 0.00996 0.09105 0.26566 0.0
H659 H 0.58406 0.85297 0.27475 0.0
O660 O 0.6156 0.93079 0.3128 0.0
H661 H 0.56369 0.67848 0.32414 0.0
H662 H 0.54128 0.83088 0.39242 0.0
H663 H 0.75276 0.92365 0.36204 0.0
H664 H 0.64184 0.78249 0.33578 0.0
H665 H 0.56506 0.851 0.34621 0.0
O666 O 0.75099 0.91283 0.23199 0.0
H667 H 0.90915 0.03395 0.28465 0.0
H668 H 0.8294 0.99434 0.21 0.0
H669 H 0.73093 0.90353 0.40839 0.0
H670 H 0.50563 0.74977 0.2623 0.0
H671 H 0.6245 0.85688 0.42387 0.0
H672 H 0.49504 0.6616 0.28708 0.0
O673 O 0.7418 0.98993 0.32524 0.0
H674 H 0.65352 0.02555 0.21168 0.0
H675 H 0.8432 0.09848 0.26112 0.0
H676 H 0.81975 0.17225 0.24128 0.0
H677 H 0.7244 0.13597 0.21628 0.0
H678 H 0.67822 0.95323 0.23215 0.0
H679 H 0.93004 0.04855 0.19037 0.0
H680 H 0.02171 0.09798 0.21813 0.0
O681 O 0.8116 0.01626 0.29423 0.0
C682 C 0.78287 0.87718 0.30391 0.0
C683 C 0.97052 0.06806 0.25332 0.0
C684 C 0.92573 0.04436 0.21112 0.0
N685 N 0.86207 0.00585 0.24875 0.0
C686 C 0.91264 0.03453 0.26403 0.0
C687 C 0.86846 0.01217 0.22251 0.0
C688 C 0.97708 0.07233 0.22668 0.0
C689 C 0.57994 0.81483 0.28556 0.0
N690 N 0.61789 0.82368 0.30582 0.0
C691 C 0.53534 0.7565 0.27845 0.0
C692 C 0.52941 0.70706 0.29236 0.0
C693 C 0.56789 0.71649 0.31316 0.0
C694 C 0.61208 0.77547 0.31965 0.0
C695 C 0.58783 0.85117 0.38592 0.0
C696 C 0.70634 0.90292 0.36858 0.0
C697 C 0.60164 0.86293 0.35977 0.0
N698 N 0.66031 0.88822 0.35138 0.0
C699 C 0.69424 0.89183 0.39487 0.0
C700 C 0.63453 0.86573 0.40355 0.0
C701 C 0.79362 0.02566 0.31553 0.0
C702 C 0.69537 0.04192 0.22241 0.0
C703 C 0.80156 0.08217 0.25031 0.0
C704 C 0.78857 0.12424 0.23908 0.0
C705 C 0.73509 0.10386 0.22505 0.0
N706 N 0.76239 0.02143 0.24764 0.0
C707 C 0.70981 1.00115 0.23393 0.0
C708 C 0.52554 0.52507 0.07152 0.0
C709 C 0.51846 0.56621 0.05524 0.0
C710 C 0.42397 0.48277 0.03807 0.0
C711 C 0.43267 0.44121 0.05292 0.0
N712 N 0.48255 0.42239 0.08823 0.0
N713 N 0.44152 0.58453 0.03683 0.0
C714 C 0.48092 0.46221 0.07101 0.0
C715 C 0.46205 0.54551 0.04241 0.0
N716 N 0.57306 0.54666 0.08839 0.0
N717 N 0.37923 0.46259 0.01984 0.0
H718 H 0.46126 0.62772 0.04481 0.0
H719 H 0.39912 0.5707 0.02864 0.0
H720 H 0.34969 0.41675 0.01624 0.0
H721 H 0.37513 0.49157 1.00684 0.0
H722 H 0.58683 0.51974 0.09802 0.0
H723 H 0.59755 0.59226 0.09345 0.0
H724 H 0.51354 0.43472 0.10328 0.0
H725 H 0.45004 0.37651 0.08848 0.0
C726 C 0.06943 0.51064 0.37126 0.0
C727 C 0.03601 0.45753 0.38637 0.0
C728 C 0.97227 0.49874 0.40204 0.0
C729 C 0.99817 0.54497 0.3831 0.0
N730 N 0.0683 0.59228 0.34796 0.0
N731 N 0.97871 0.41971 0.42547 0.0
C732 C 0.04582 0.5501 0.36721 0.0
C733 C 0.99316 0.45627 0.40434 0.0
N734 N 0.1272 0.52797 0.36365 0.0
N735 N 0.92807 0.49579 0.41794 0.0
H736 H 1.00233 0.39726 0.43 0.0
H737 H 0.95052 0.4182 0.4403 0.0
H738 H 0.91645 0.52957 0.41853 0.0
H739 H 0.9014 0.4591 0.42982 0.0
H740 H 0.15479 0.56813 0.3538 0.0
H741 H 0.15149 0.50886 0.37151 0.0
H742 H 0.09839 0.59336 0.33405 0.0
H743 H 0.05287 0.62269 0.3445 0.0
C744 C 0.47845 0.93393 0.69869 0.0
C745 C 0.46005 0.97729 0.70322 0.0
C746 C 0.56006 0.0457 0.72189 0.0
C747 C 0.5813 0.00698 0.71296 0.0
N748 N 0.5627 0.9185 0.68877 0.0
N749 N 0.48384 0.07614 0.71847 0.0
C750 C 0.54096 0.95197 0.70038 0.0
C751 C 0.50111 0.03382 0.71461 0.0
N752 N 0.43646 0.87542 0.69308 0.0
N753 N 0.59512 0.09209 0.73826 0.0
H754 H 0.43983 0.06765 0.71496 0.0
H755 H 0.51398 0.12061 0.72389 0.0
H756 H 0.63663 0.09917 0.74519 0.0
H757 H 0.5802 0.11889 0.74721 0.0
H758 H 0.44711 0.84099 0.69165 0.0
H759 H 0.39009 0.85987 0.69318 0.0
H760 H 0.53608 0.88114 0.67715 0.0
H761 H 0.60868 0.93176 0.68844 0.0
C762 C 0.5404 0.52697 0.60675 0.0
C763 C 0.57055 0.55126 0.63051 0.0
C764 C 0.48454 0.46992 0.65389 0.0
C765 C 0.45203 0.44902 0.63036 0.0
N766 N 0.44506 0.46239 0.58475 0.0
N767 N 0.56753 0.55239 0.67696 0.0
C768 C 0.47894 0.47872 0.60683 0.0
C769 C 0.54159 0.52445 0.65417 0.0
N770 N 0.57119 0.54858 0.5841 0.0
N771 N 0.46182 0.43645 0.67587 0.0
H772 H 0.60887 0.59279 0.67803 0.0
H773 H 0.54558 0.53871 0.69467 0.0
H774 H 0.42067 0.39577 0.6764 0.0
H775 H 0.48625 0.44584 0.693 0.0
H776 H 0.55403 0.52862 0.56627 0.0
H777 H 0.61615 0.58365 0.58332 0.0
H778 H 0.4598 0.48655 0.56758 0.0
H779 H 0.40009 0.42729 0.58406 0.0
C780 C 0.96627 0.48157 0.99438 0.0
C781 C 0.97192 0.45181 0.97233 0.0
C782 C 0.99222 0.53951 0.94561 0.0
C783 C 0.98153 0.56701 0.96722 0.0
N784 N 0.94562 0.55845 0.01088 0.0
N785 N 0.97573 0.44632 0.92603 0.0
C786 C 0.96478 0.5363 0.99125 0.0
C787 C 0.98078 0.47904 0.94765 0.0
N788 N 0.96485 0.45901 0.01844 0.0
N789 N 0.01594 0.57188 0.92348 0.0
H790 H 0.96491 0.40119 0.92673 0.0
H791 H 0.97586 0.46179 0.90743 0.0
H792 H 0.02619 0.61664 0.92135 0.0
H793 H 0.03072 0.55623 0.90814 0.0
H794 H 0.96723 0.48217 0.03532 0.0
H795 H 0.9671 0.41977 0.02164 0.0
H796 H 0.9271 0.53492 0.02795 0.0
H797 H 0.94246 0.59758 0.00914 0.0
C798 C 0.48523 0.99627 0.27903 0.0
C799 C 0.46031 0.99976 0.30301 0.0
C800 C 0.54237 0.99376 0.32566 0.0
C801 C 0.56385 0.9846 0.30176 0.0
N802 N 0.54869 0.96571 0.25608 0.0
N803 N 0.45907 0.99183 0.34933 0.0
C804 C 0.5334 0.98283 0.27852 0.0
C805 C 0.48729 0.99585 0.3264 0.0
N806 N 0.46447 0.00811 0.25672 0.0
N807 N 0.57576 0.00266 0.34756 0.0
H808 H 0.41845 0.9925 0.35067 0.0
H809 H 0.47284 0.9824 0.36679 0.0
H810 H 0.61649 1.00203 0.3478 0.0
H811 H 0.56607 0.01602 0.36504 0.0
H812 H 0.48503 0.01261 0.23888 0.0
H813 H 0.43013 0.01915 0.25638 0.0
H814 H 0.52402 0.95739 0.23906 0.0
H815 H 0.58264 0.95416 0.25501 0.0
C816 C 0.30056 0.08094 0.17817 0.0
C817 C 0.33284 0.12842 0.19631 0.0
C818 C 0.37831 0.20012 0.16022 0.0
C819 C 0.33953 0.15411 0.14261 0.0
N820 N 0.2619 0.05098 0.13478 0.0
N821 N 0.39771 0.23482 0.20465 0.0
C822 C 0.30032 0.09463 0.15164 0.0
C823 C 0.37101 0.1884 0.18731 0.0
N824 N 0.27232 0.0221 0.186 0.0
N825 N 0.42201 0.25513 0.15118 0.0
H826 H 0.39284 0.22824 0.22454 0.0
H827 H 0.42024 0.28032 0.19946 0.0
H828 H 0.42878 0.26593 0.13169 0.0
H829 H 0.45548 0.28828 0.16279 0.0
H830 H 0.25487 0.9853 0.17348 0.0
H831 H 0.27078 0.00996 0.20507 0.0
H832 H 0.22557 0.0096 0.14059 0.0
H833 H 0.26456 0.05719 0.11485 0.0
C834 C 0.08234 0.26488 0.50507 0.0
C835 C 0.13195 0.30272 0.48865 0.0
C836 C 0.19584 0.34699 0.52717 0.0
C837 C 0.14856 0.3033 0.54297 0.0
N838 N 0.04859 0.21591 0.54655 0.0
N839 N 0.2391 0.37336 0.48425 0.0
C840 C 0.09251 0.26071 0.53174 0.0
C841 C 0.18953 0.34241 0.49979 0.0
N842 N 0.02453 0.23578 0.4957 0.0
N843 N 0.24698 0.39281 0.53822 0.0
H844 H 0.2369 0.36974 0.46422 0.0
H845 H 0.28335 0.39784 0.49122 0.0
H846 H 0.25392 0.39745 0.55806 0.0
H847 H 0.28009 0.42939 0.52786 0.0
H848 H 0.98611 0.21339 0.50728 0.0
H849 H 0.01452 0.23923 0.47669 0.0
H850 H 0.01038 0.17868 0.53879 0.0
H851 H 0.05194 0.214 0.56653 0.0
C852 C 0.92111 0.20073 0.82523 0.0
C853 C 0.86374 0.18296 0.81419 0.0
C854 C 0.82239 0.18123 0.85718 0.0
C855 C 0.8809 0.20261 0.86818 0.0
N856 N 0.98905 0.24903 0.86077 0.0
N857 N 0.76312 0.16885 0.81858 0.0
C858 C 0.93114 0.2168 0.85168 0.0
C859 C 0.81555 0.17764 0.82983 0.0
N860 N 0.96622 0.20183 0.81048 0.0
N861 N 0.77273 0.16098 0.87281 0.0
H862 H 0.75681 0.16626 0.79868 0.0
H863 H 0.72848 0.17015 0.82875 0.0
H864 H 0.77534 0.1606 0.89285 0.0
H865 H 0.7283 0.13905 0.86594 0.0
H866 H 0.00602 0.20611 0.81825 0.0
H867 H 0.9624 0.19491 0.79059 0.0
H868 H 0.02737 0.26636 0.84906 0.0
H869 H 0.99878 0.26409 0.87959 0.0
C870 C 0.75474 0.87627 0.15601 0.0
C871 C 0.69798 0.84657 0.14305 0.0
C872 C 0.64667 0.82102 0.18522 0.0
C873 C 0.70382 0.84473 0.19781 0.0
N874 N 0.81041 0.87742 0.19392 0.0
N875 N 0.5898 0.77713 0.14598 0.0
C876 C 0.7572 0.86653 0.18274 0.0
C877 C 0.64372 0.81495 0.1578 0.0
N878 N 0.80618 0.91653 0.1432 0.0
N879 N 0.5956 0.80687 0.19905 0.0
H880 H 0.58579 0.76913 0.12621 0.0
H881 H 0.55029 0.74888 0.15618 0.0
H882 H 0.59551 0.81118 0.219 0.0
H883 H 0.55428 0.79573 0.19039 0.0
H884 H 0.84769 0.94288 0.15245 0.0
H885 H 0.80572 0.9291 0.12411 0.0
H886 H 0.84953 0.88892 0.18332 0.0
H887 H 0.81334 0.86846 0.21334 0.0
C888 C 0.8498 0.66018 0.51697 0.0
C889 C 0.83178 0.70093 0.52674 0.0
C890 C 0.8303 0.73484 0.48235 0.0
C891 C 0.84285 0.69034 0.47259 0.0
N892 N 0.85204 0.60184 0.48056 0.0
N893 N 0.78917 0.76516 0.51728 0.0
C894 C 0.84833 0.65001 0.48988 0.0
C895 C 0.81805 0.73532 0.50905 0.0
N896 N 0.87128 0.63333 0.53346 0.0
N897 N 0.82963 0.77673 0.46609 0.0
H898 H 0.77632 0.76426 0.53623 0.0
H899 H 0.77204 0.78522 0.50489 0.0
H900 H 0.83316 0.77505 0.44611 0.0
H901 H 0.82907 0.81512 0.4726 0.0
H902 H 0.89098 0.60819 0.52726 0.0
H903 H 0.87551 0.64147 0.55325 0.0
H904 H 0.85013 0.56777 0.4923 0.0
H905 H 0.85081 0.59238 0.46099 0.0
C906 C 0.21434 0.88654 0.86151 0.0
C907 C 0.16541 0.82904 0.86827 0.0
C908 C 0.14621 0.80209 0.82229 0.0
C909 C 0.19695 0.85861 0.81555 0.0
N910 N 0.29042 0.94621 0.82987 0.0
N911 N 0.09865 0.72555 0.85535 0.0
C912 C 0.23457 0.89825 0.83547 0.0
C913 C 0.13543 0.78473 0.84874 0.0
N914 N 0.24137 0.9304 0.87992 0.0
N915 N 0.1085 0.76465 0.80351 0.0
H916 H 0.09469 0.71041 0.87422 0.0
H917 H 0.07892 0.69056 0.84194 0.0
H918 H 0.11679 0.77415 0.7839 0.0
H919 H 0.067 0.72616 0.80747 0.0
H920 H 0.27196 0.9755 0.87556 0.0
H921 H 0.23037 0.92243 0.89943 0.0
H922 H 0.32177 0.9725 0.84396 0.0
H923 H 0.30829 0.95654 0.81138 0.0
C924 C 0.10881 0.96587 0.01041 0.0
C925 C 0.14094 0.95264 0.99135 0.0
C926 C 0.23561 0.03828 0.00845 0.0
C927 C 0.20232 0.05833 0.0236 0.0
N928 N 0.10357 0.04231 0.03543 0.0
N929 N 0.23732 0.97987 0.97179 0.0
C930 C 0.13799 0.0223 0.02362 0.0
C931 C 0.20504 0.99054 0.98999 0.0
N932 N 0.05077 0.92395 0.01695 0.0
N933 N 0.29578 0.06095 0.01344 0.0
H934 H 0.21731 0.94368 0.95893 0.0
H935 H 0.28326 0.00955 0.96837 0.0
H936 H 0.31684 0.08953 0.02909 0.0
H937 H 0.32203 0.04517 1.00462 0.0
H938 H 0.02835 0.92881 0.03278 0.0
H939 H 0.02716 0.88162 0.0085 0.0
H940 H 0.05685 0.02209 0.0328 0.0
H941 H 0.12233 0.08264 0.04539 0.0
C942 C 0.23639 0.25298 0.34207 0.0
C943 C 0.19141 0.22067 0.36112 0.0
C944 C 0.1894 0.12744 0.347 0.0
C945 C 0.22996 0.15868 0.32637 0.0
N946 N 0.29031 0.25204 0.30349 0.0
N947 N 0.15568 0.13441 0.38955 0.0
C948 C 0.25261 0.22171 0.32357 0.0
C949 C 0.17588 0.1597 0.36585 0.0
N950 N 0.27057 0.31407 0.34456 0.0
N951 N 0.16217 0.06598 0.34842 0.0
H952 H 0.15529 0.15889 0.40547 0.0
H953 H 0.14912 0.092 0.3946 0.0
H954 H 0.17206 0.04048 0.33582 0.0
H955 H 0.12524 0.04031 0.36036 0.0
H956 H 0.30717 0.34175 0.33278 0.0
H957 H 0.26819 0.33468 0.36149 0.0
H958 H 0.30329 0.29659 0.29879 0.0
H959 H 0.30508 0.23121 0.29035 0.0
C960 C 0.00572 0.12962 0.69686 0.0
C961 C 0.97026 0.15817 0.70055 0.0
C962 C 0.03785 0.23901 0.67058 0.0
C963 C 0.07352 0.21098 0.66718 0.0
N964 N 0.1023 0.14047 0.68376 0.0
N965 N 0.96943 0.2519 0.69892 0.0
C966 C 0.06066 0.15941 0.68229 0.0
C967 C 0.99132 0.21643 0.68968 0.0
N968 N 0.98664 0.07347 0.70668 0.0
N969 N 0.04765 0.2867 0.65533 0.0
H970 H 0.93945 0.23832 0.71447 0.0
H971 H 0.98645 0.29681 0.6934 0.0
H972 H 0.08082 0.30386 0.64099 0.0
H973 H 0.01934 0.3054 0.65539 0.0
H974 H 0.00606 0.04715 0.7019 0.0
H975 H 0.94873 0.05174 0.7183 0.0
H976 H 0.09873 0.10741 0.6966 0.0
H977 H 0.14365 0.16214 0.67406 0.0
C978 C 0.76762 1.00214 0.03299 0.0
C979 C 0.74343 0.94923 0.0179 0.0
C980 C 0.8012 0.01041 0.98054 0.0
C981 C 0.82795 0.06465 0.99566 0.0
N982 N 0.8494 0.10291 0.03975 0.0
N983 N 0.71155 0.91312 0.97454 0.0
C984 C 0.814 0.05821 0.02281 0.0
C985 C 0.7525 0.95598 0.99085 0.0
N986 N 0.74329 0.99955 0.05675 0.0
N987 N 0.8246 0.00799 0.95718 0.0
H988 H 0.66954 0.8789 0.98086 0.0
H989 H 0.71411 0.9181 0.95456 0.0
H990 H 0.86599 0.04166 0.95019 0.0
H991 H 0.8085 0.96784 0.9468 0.0
H992 H 0.75373 0.03777 0.06771 0.0
H993 H 0.70629 0.96 0.06382 0.0
H994 H 0.84464 0.09823 0.05969 0.0
H995 H 0.88982 0.14044 0.03462 0.0
C996 C 0.8758 0.87172 0.32066 0.0
C997 C 0.8124 0.84296 0.31519 0.0
C998 C 0.79666 0.7569 0.34255 0.0
C999 C 0.85986 0.78489 0.34762 0.0
N1000 N 0.96083 0.86162 0.33595 0.0
N1001 N 0.71872 0.74855 0.31311 0.0
C1002 C 0.89979 0.84039 0.33512 0.0
C1003 C 0.77463 0.78269 0.32395 0.0
N1004 N 0.91334 0.92883 0.31191 0.0
N1005 N 0.75721 0.70644 0.35602 0.0
H1006 H 0.70407 0.76474 0.29783 0.0
H1007 H 0.6907 0.70264 0.31697 0.0
H1008 H 0.77163 0.68757 0.37029 0.0
H1009 H 0.71021 0.68717 0.35482 0.0
H1010 H 0.95817 0.95598 0.31778 0.0
H1011 H 0.89827 0.95037 0.29959 0.0
H1012 H 0.99297 0.90137 0.32716 0.0
H1013 H 0.97922 0.83651 0.34364 0.0
C1014 C 0.02182 0.80085 0.69564 0.0
C1015 C 0.07442 0.84764 0.68381 0.0
C1016 C 0.01607 0.82414 0.64331 0.0
C1017 C 0.96011 0.78734 0.65655 0.0
N1018 N 0.91529 0.76166 0.69969 0.0
N1019 N 0.11448 0.91436 0.64704 0.0
C1020 C 0.96432 0.78101 0.68395 0.0
C1021 C 0.06956 0.86249 0.6578 0.0
N1022 N 0.02586 0.77453 0.71791 0.0
N1023 N 0.02005 0.82096 0.6172 0.0
H1024 H 0.1505 0.94708 0.65785 0.0
H1025 H 0.1113 0.92814 0.62846 0.0
H1026 H 0.98553 0.78771 0.60601 0.0
H1027 H 0.0611 0.84512 0.60737 0.0
H1028 H 0.98836 0.73704 0.72598 0.0
H1029 H 0.06716 0.785 0.72642 0.0
H1030 H 0.91819 0.7595 0.71968 0.0
H1031 H 0.87559 0.75965 0.69378 0.0
C1032 C 0.11585 0.3201 0.01848 0.0
C1033 C 0.06222 0.26401 0.0133 0.0
C1034 C 0.11884 0.21106 0.01947 0.0
C1035 C 0.17 0.2647 0.02775 0.0
N1036 N 0.21564 0.37029 0.0387 0.0
N1037 N 0.01061 0.15508 0.01818 0.0
C1038 C 0.16815 0.31947 0.02845 0.0
C1039 C 0.06313 0.20931 0.01714 0.0
N1040 N 0.11817 0.37349 0.01285 0.0
N1041 N 0.1238 0.16209 0.01258 0.0
H1042 H 0.96845 0.1515 0.01581 0.0
H1043 H 0.00934 0.11486 0.02331 0.0
H1044 H 0.16514 0.16277 0.01273 0.0
H1045 H 0.08826 0.12374 1.00402 0.0
H1046 H 0.15818 0.41513 0.01348 0.0
H1047 H 0.08083 0.37591 1.00614 0.0
H1048 H 0.21443 0.40999 0.04203 0.0
H1049 H 0.25476 0.37114 0.04534 0.0
C1050 C 0.89337 0.07325 0.33642 0.0
C1051 C 0.84092 0.07657 0.33056 0.0
C1052 C 0.8957 0.18414 0.34238 0.0
C1053 C 0.95021 0.18143 0.34471 0.0
N1054 N 1.0024 0.12663 0.3348 0.0
N1055 N 0.79332 0.13711 0.32481 0.0
C1056 C 0.94941 0.12694 0.33872 0.0
C1057 C 0.84225 0.13268 0.33261 0.0
N1058 N 0.88952 0.01856 0.34026 0.0
N1059 N 0.89401 0.2343 0.35027 0.0
H1060 H 0.75298 0.0996 0.31871 0.0
H1061 H 0.7941 0.17823 0.32316 0.0
H1062 H 0.93229 0.27336 0.35662 0.0
H1063 H 0.85388 0.23576 0.35177 0.0
H1064 H 0.92593 0.0147 0.34729 0.0
H1065 H 0.84833 0.97802 0.33929 0.0
H1066 H 1.00348 0.08823 0.32862 0.0
H1067 H 0.04463 0.16624 0.33513 0.0
C1068 C 0.81782 0.87256 0.67748 0.0
C1069 C 0.76277 0.81862 0.67201 0.0
C1070 C 0.70753 0.86417 0.69204 0.0
C1071 C 0.76207 0.92098 0.69247 0.0
N1072 N 0.86687 0.98078 0.6796 0.0
N1073 N 0.65298 0.76497 0.67213 0.0
C1074 C 0.81647 0.92558 0.68338 0.0
C1075 C 0.70668 0.81452 0.67888 0.0
N1076 N 0.87173 0.87309 0.67748 0.0
N1077 N 0.65746 0.85711 0.70473 0.0
H1078 H 0.65046 0.72756 0.66289 0.0
H1079 H 0.61121 0.7629 0.67427 0.0
H1080 H 0.65756 0.89231 0.71496 0.0
H1081 H 0.61812 0.81532 0.70697 0.0
H1082 H 0.91231 0.9101 0.68376 0.0
H1083 H 0.87458 0.8347 0.67342 0.0
H1084 H 0.90564 0.98596 0.67038 0.0
H1085 H 0.86743 0.02123 0.68312 0.0
C1086 C 0.8216 0.80356 0.98418 0.0
C1087 C 0.77849 0.75073 0.99701 0.0
C1088 C 0.84045 0.70403 0.9872 0.0
C1089 C 0.88972 0.76177 0.98 0.0
N1090 N 0.92756 0.8701 0.97776 0.0
N1091 N 0.74757 0.65003 0.01199 0.0
C1092 C 0.88015 0.81241 0.97968 0.0
C1093 C 0.78763 0.70033 0.99863 0.0
N1094 N 0.8078 0.84732 0.97783 0.0
N1095 N 0.84268 0.65257 0.98232 0.0
H1096 H 0.70732 0.64492 0.01955 0.0
H1097 H 0.75609 0.61517 0.01666 0.0
H1098 H 0.87838 0.65278 0.97246 0.0
H1099 H 0.80594 0.60931 0.98535 0.0
H1100 H 0.83578 0.8845 0.96634 0.0
H1101 H 0.76586 0.84315 0.98205 0.0
H1102 H 0.92315 0.90836 0.98009 0.0
H1103 H 0.97224 0.8802 0.97747 0.0
C1104 C 0.0844 0.81683 0.32164 0.0
C1105 C 0.08981 0.791 0.34444 0.0
C1106 C 0.19264 0.87879 0.34997 0.0
C1107 C 0.17945 0.91068 0.33042 0.0
N1108 N 0.09532 0.91013 0.30765 0.0
N1109 N 0.15268 0.79141 0.37873 0.0
C1110 C 0.12069 0.87963 0.31869 0.0
C1111 C 0.14572 0.81995 0.35787 0.0
N1112 N 0.04216 0.78245 0.30371 0.0
N1113 N 0.2479 0.90427 0.36185 0.0
H1114 H 0.12045 0.74681 0.38325 0.0
H1115 H 0.1886 0.81178 0.39172 0.0
H1116 H 0.27868 0.95029 0.36215 0.0
H1117 H 0.2628 0.87927 0.37231 0.0
H1118 H 0.03792 0.80017 0.2862 0.0
H1119 H 0.019 0.73542 0.305 0.0
H1120 H 0.05394 0.88856 0.29788 0.0
H1121 H 0.10902 0.95424 0.31314 0.0
C1122 C 0.29615 0.13766 0.70545 0.0
C1123 C 0.29964 0.09507 0.6891 0.0
C1124 C 0.31898 0.16644 0.65379 0.0
C1125 C 0.29211 0.19383 0.66848 0.0
N1126 N 0.25345 0.20234 0.70991 0.0
N1127 N 0.33094 0.0794 0.64692 0.0
C1128 C 0.28107 0.17942 0.69493 0.0
C1129 C 0.3166 0.11258 0.66298 0.0
N1130 N 0.31161 0.14116 0.73069 0.0
N1131 N 0.35005 0.19421 0.63192 0.0
H1132 H 0.34219 0.04785 0.65347 0.0
H1133 H 0.33341 0.085 0.62697 0.0
H1134 H 0.35614 0.2361 0.62617 0.0
H1135 H 0.37524 0.17954 0.62142 0.0
H1136 H 0.3139 0.1746 0.743 0.0
H1137 H 0.32896 0.11499 0.73799 0.0
H1138 H 0.24063 0.18842 0.72891 0.0
H1139 H 0.23849 0.23036 0.70255 0.0
loop_
_geom_bond_atom_site_label_1
_geom_bond_atom_site_label_2
_geom_bond_distance
_geom_bond_site_symmetry_2
_ccdc_geom_bond_type
Co0 O2 2.143 . S
Co0 O8 2.074 . S
Co0 O11 2.093 . S
Co0 O24 2.097 . S
Co0 N41 2.151 . S
Co0 N49 2.214 1_554 S
Co1 O2 2.160 . S
Co1 O7 2.058 . S
Co1 O17 2.057 . S
Co1 O32 2.037 . S
Co1 N36 2.145 . S
Co1 N57 2.257 . S
O2 Co0 2.143 . S
O2 Co1 2.160 . S
C3 O4 1.278 . S
C3 O11 1.224 . S
O4 C3 1.278 . S
C5 O6 1.245 . S
C5 O17 1.232 . S
O6 C5 1.245 . S
O7 Co1 2.058 . S
O7 C33 1.269 . S
O8 Co0 2.074 . S
O8 C33 1.257 . S
H9 C34 0.930 . S
H10 C40 0.930 . S
O11 Co0 2.093 . S
O11 C3 1.224 . S
H12 C44 0.929 1_556 S
H13 C46 0.930 . S
H14 C47 0.930 . S
H15 C45 0.929 1_556 S
H16 C48 0.928 . S
O17 Co1 2.057 . S
O17 C5 1.232 . S
H18 C37 0.929 . S
H19 C38 0.929 . S
H20 C50 0.931 . S
H21 C42 0.929 . S
H22 C51 0.930 . S
H23 C43 0.931 . S
O24 Co0 2.097 . S
O24 C52 1.214 . S
H25 C53 0.929 . S
H26 C54 0.929 . S
H27 C55 0.930 . S
H28 C56 0.929 . S
H29 C58 0.930 . S
H30 C35 0.930 . S
H31 C39 0.930 1_655 S
O32 Co1 2.037 . S
O32 C52 1.234 . S
C33 O7 1.269 . S
C33 O8 1.257 . S
C34 H9 0.930 . S
C34 C37 1.388 . S
C34 C39 1.418 . S
C35 H30 0.930 . S
C35 C38 1.404 . S
C35 C39 1.353 . S
N36 Co1 2.145 . S
N36 C37 1.397 . S
N36 C38 1.334 . S
C37 H18 0.929 . S
C37 C34 1.388 . S
C37 N36 1.397 . S
C38 H19 0.929 . S
C38 C35 1.404 . S
C38 N36 1.334 . S
C39 H31 0.930 1_455 S
C39 C34 1.418 . S
C39 C35 1.353 . S
C40 H10 0.930 . S
C40 N41 1.330 . S
C40 C42 1.446 . S
N41 Co0 2.151 . S
N41 C40 1.330 . S
N41 C45 1.418 . S
C42 H21 0.929 . S
C42 C40 1.446 . S
C42 C43 1.332 . S
C43 H23 0.931 . S
C43 C42 1.332 . S
C43 C44 1.267 . S
C44 H12 0.929 1_554 S
C44 C43 1.267 . S
C44 C45 1.251 . S
C45 H15 0.929 1_554 S
C45 N41 1.418 . S
C45 C44 1.251 . S
C46 H13 0.930 . S
C46 C48 1.406 . S
C46 C51 1.261 . S
C47 H14 0.930 . S
C47 N49 1.325 . S
C47 C50 1.357 . S
C48 H16 0.928 . S
C48 C46 1.406 . S
C48 N49 1.261 . S
N49 Co0 2.214 1_556 S
N49 C47 1.325 . S
N49 C48 1.261 . S
C50 H20 0.931 . S
C50 C47 1.357 . S
C50 C51 1.312 . S
C51 H22 0.930 . S
C51 C46 1.261 . S
C51 C50 1.312 . S
C52 O24 1.214 . S
C52 O32 1.234 . S
C53 H25 0.929 . S
C53 C56 1.391 . S
C53 C58 1.391 . S
C54 H26 0.929 . S
C54 C55 1.390 . S
C54 N57 1.391 . S
C55 H27 0.930 . S
C55 C54 1.390 . S
C55 C56 1.392 . S
C56 H28 0.929 . S
C56 C53 1.391 . S
C56 C55 1.392 . S
N57 Co1 2.257 . S
N57 C54 1.391 . S
N57 C58 1.388 . S
C58 H29 0.930 . S
C58 C53 1.391 . S
C58 N57 1.388 . S
Co59 O61 2.143 . S
Co59 O67 2.074 . S
Co59 O70 2.093 . S
Co59 O83 2.097 . S
Co59 N100 2.151 . S
Co59 N108 2.214 . S
Co60 O61 2.160 . S
Co60 O66 2.058 . S
Co60 O76 2.057 . S
Co60 O91 2.039 . S
Co60 N95 2.145 . S
Co60 N116 2.257 1_455 S
O61 Co59 2.143 . S
O61 Co60 2.160 . S
C62 O63 1.278 . S
C62 O70 1.224 . S
O63 C62 1.278 . S
C64 O65 1.245 . S
C64 O76 1.232 . S
O65 C64 1.245 . S
O66 Co60 2.058 . S
O66 C92 1.269 . S
O67 Co59 2.074 . S
O67 C92 1.257 . S
H68 C93 0.930 . S
H69 C99 0.930 . S
O70 Co59 2.093 . S
O70 C62 1.224 . S
H71 C103 0.929 . S
H72 C105 0.930 . S
H73 C106 0.930 . S
H74 C104 0.929 . S
H75 C107 0.928 . S
O76 Co60 2.057 . S
O76 C64 1.232 . S
H77 C96 0.929 . S
H78 C97 0.929 . S
H79 C109 0.931 . S
H80 C101 0.929 . S
H81 C110 0.930 . S
H82 C102 0.931 . S
O83 Co59 2.097 . S
O83 C111 1.214 1_455 S
H84 C112 0.929 . S
H85 C113 0.929 . S
H86 C114 0.930 . S
H87 C115 0.929 . S
H88 C117 0.930 1_455 S
H89 C94 0.930 . S
H90 C98 0.930 1_565 S
O91 Co60 2.039 . S
O91 C111 1.231 1_455 S
C92 O66 1.269 . S
C92 O67 1.257 . S
C93 H68 0.930 . S
C93 C96 1.388 1_655 S
C93 C98 1.418 . S
C94 H89 0.930 . S
C94 C97 1.404 . S
C94 C98 1.353 1_455 S
N95 Co60 2.145 . S
N95 C96 1.397 . S
N95 C97 1.334 . S
C96 H77 0.929 . S
C96 C93 1.388 1_455 S
C96 N95 1.397 . S
C97 H78 0.929 . S
C97 C94 1.404 . S
C97 N95 1.334 . S
C98 H90 0.930 1_545 S
C98 C93 1.418 . S
C98 C94 1.353 1_655 S
C99 H69 0.930 . S
C99 N100 1.330 . S
C99 C101 1.446 . S
N100 Co59 2.151 . S
N100 C99 1.330 . S
N100 C104 1.418 . S
C101 H80 0.929 . S
C101 C99 1.446 . S
C101 C102 1.332 . S
C102 H82 0.931 . S
C102 C101 1.332 . S
C102 C103 1.267 . S
C103 H71 0.929 . S
C103 C102 1.267 . S
C103 C104 1.251 . S
C104 H74 0.929 . S
C104 N100 1.418 . S
C104 C103 1.251 . S
C105 H72 0.930 . S
C105 C107 1.406 . S
C105 C110 1.261 . S
C106 H73 0.930 . S
C106 N108 1.325 . S
C106 C109 1.357 . S
C107 H75 0.928 . S
C107 C105 1.406 . S
C107 N108 1.261 . S
N108 Co59 2.214 . S
N108 C106 1.325 . S
N108 C107 1.261 . S
C109 H79 0.931 . S
C109 C106 1.357 . S
C109 C110 1.312 . S
C110 H81 0.930 . S
C110 C105 1.261 . S
C110 C109 1.312 . S
C111 O83 1.214 1_655 S
C111 O91 1.231 1_655 S
C112 H84 0.929 . S
C112 C115 1.391 . S
C112 C117 1.391 . S
C113 H85 0.929 . S
C113 C114 1.390 . S
C113 N116 1.391 . S
C114 H86 0.930 . S
C114 C113 1.390 . S
C114 C115 1.392 . S
C115 H87 0.929 . S
C115 C112 1.391 . S
C115 C114 1.392 . S
N116 Co60 2.257 1_655 S
N116 C113 1.391 . S
N116 C117 1.388 . S
C117 H88 0.930 1_655 S
C117 C112 1.391 . S
C117 N116 1.388 . S
Co118 O120 2.143 . S
Co118 O126 2.074 . S
Co118 O129 2.093 . S
Co118 O142 2.097 . S
Co118 N159 2.151 . S
Co118 N167 2.214 . S
Co119 O120 2.160 . S
Co119 O125 2.058 . S
Co119 O135 2.057 . S
Co119 O150 2.039 . S
Co119 N154 2.145 . S
Co119 N175 2.257 1_545 S
O120 Co118 2.143 . S
O120 Co119 2.160 . S
C121 O122 1.278 . S
C121 O129 1.224 . S
O122 C121 1.278 . S
C123 O124 1.245 . S
C123 O135 1.232 . S
O124 C123 1.245 . S
O125 Co119 2.058 . S
O125 C151 1.269 . S
O126 Co118 2.074 . S
O126 C151 1.257 . S
H127 C152 0.930 . S
H128 C158 0.930 . S
O129 Co118 2.093 . S
O129 C121 1.224 . S
H130 C162 0.929 . S
H131 C164 0.930 . S
H132 C165 0.930 . S
H133 C163 0.929 . S
H134 C166 0.928 . S
O135 Co119 2.057 . S
O135 C123 1.232 . S
H136 C155 0.929 . S
H137 C156 0.929 . S
H138 C168 0.931 . S
H139 C160 0.929 . S
H140 C169 0.930 . S
H141 C161 0.931 . S
O142 Co118 2.097 . S
O142 C170 1.214 1_545 S
H143 C171 0.929 . S
H144 C172 0.929 . S
H145 C173 0.930 . S
H146 C174 0.929 . S
H147 C176 0.930 1_545 S
H148 C153 0.930 . S
H149 C157 0.930 . S
O150 Co119 2.039 . S
O150 C170 1.234 1_545 S
C151 O125 1.269 . S
C151 O126 1.257 . S
C152 H127 0.930 . S
C152 C155 1.388 1_565 S
C152 C157 1.418 . S
C153 H148 0.930 . S
C153 C156 1.404 . S
C153 C157 1.353 1_545 S
N154 Co119 2.145 . S
N154 C155 1.397 . S
N154 C156 1.334 . S
C155 H136 0.929 . S
C155 C152 1.388 1_545 S
C155 N154 1.397 . S
C156 H137 0.929 . S
C156 C153 1.404 . S
C156 N154 1.334 . S
C157 H149 0.930 . S
C157 C152 1.418 . S
C157 C153 1.353 1_565 S
C158 H128 0.930 . S
C158 N159 1.330 . S
C158 C160 1.446 . S
N159 Co118 2.151 . S
N159 C158 1.330 . S
N159 C163 1.418 . S
C160 H139 0.929 . S
C160 C158 1.446 . S
C160 C161 1.332 . S
C161 H141 0.931 . S
C161 C160 1.332 . S
C161 C162 1.267 . S
C162 H130 0.929 . S
C162 C161 1.267 . S
C162 C163 1.251 . S
C163 H133 0.929 . S
C163 N159 1.418 . S
C163 C162 1.251 . S
C164 H131 0.930 . S
C164 C166 1.406 . S
C164 C169 1.261 . S
C165 H132 0.930 . S
C165 N167 1.325 . S
C165 C168 1.357 . S
C166 H134 0.928 . S
C166 C164 1.406 . S
C166 N167 1.261 . S
N167 Co118 2.214 . S
N167 C165 1.325 . S
N167 C166 1.261 . S
C168 H138 0.931 . S
C168 C165 1.357 . S
C168 C169 1.312 . S
C169 H140 0.930 . S
C169 C164 1.261 . S
C169 C168 1.312 . S
C170 O142 1.214 1_565 S
C170 O150 1.234 1_565 S
C171 H143 0.929 . S
C171 C174 1.391 . S
C171 C176 1.391 . S
C172 H144 0.929 . S
C172 C173 1.390 . S
C172 N175 1.391 . S
C173 H145 0.930 . S
C173 C172 1.390 . S
C173 C174 1.392 . S
C174 H146 0.929 . S
C174 C171 1.391 . S
C174 C173 1.392 . S
N175 Co119 2.257 1_565 S
N175 C172 1.391 . S
N175 C176 1.388 . S
C176 H147 0.930 1_565 S
C176 C171 1.391 . S
C176 N175 1.388 . S
Co177 O179 2.143 . S
Co177 O185 2.074 . S
Co177 O188 2.093 . S
Co177 O201 2.097 . S
Co177 N218 2.151 . S
Co177 N226 2.214 1_554 S
Co178 O179 2.160 . S
Co178 O184 2.058 . S
Co178 O194 2.057 . S
Co178 O209 2.037 . S
Co178 N213 2.145 . S
Co178 N234 2.257 . S
O179 Co177 2.143 . S
O179 Co178 2.160 . S
C180 O181 1.278 . S
C180 O188 1.224 . S
O181 C180 1.278 . S
C182 O183 1.245 . S
C182 O194 1.232 . S
O183 C182 1.245 . S
O184 Co178 2.058 . S
O184 C210 1.269 . S
O185 Co177 2.074 . S
O185 C210 1.257 . S
H186 C211 0.930 . S
H187 C217 0.930 . S
O188 Co177 2.093 . S
O188 C180 1.224 . S
H189 C221 0.929 1_556 S
H190 C223 0.930 . S
H191 C224 0.930 . S
H192 C222 0.929 1_556 S
H193 C225 0.928 . S
O194 Co178 2.057 . S
O194 C182 1.232 . S
H195 C214 0.929 . S
H196 C215 0.929 . S
H197 C227 0.931 . S
H198 C219 0.929 . S
H199 C228 0.930 . S
H200 C220 0.931 . S
O201 Co177 2.097 . S
O201 C229 1.214 . S
H202 C230 0.929 . S
H203 C231 0.929 . S
H204 C232 0.930 . S
H205 C233 0.929 . S
H206 C235 0.930 . S
H207 C212 0.930 . S
H208 C216 0.930 1_455 S
O209 Co178 2.037 . S
O209 C229 1.234 . S
C210 O184 1.269 . S
C210 O185 1.257 . S
C211 H186 0.930 . S
C211 C214 1.388 . S
C211 C216 1.418 . S
C212 H207 0.930 . S
C212 C215 1.404 . S
C212 C216 1.353 . S
N213 Co178 2.145 . S
N213 C214 1.397 . S
N213 C215 1.334 . S
C214 H195 0.929 . S
C214 C211 1.388 . S
C214 N213 1.397 . S
C215 H196 0.929 . S
C215 C212 1.404 . S
C215 N213 1.334 . S
C216 H208 0.930 1_655 S
C216 C211 1.418 . S
C216 C212 1.353 . S
C217 H187 0.930 . S
C217 N218 1.330 . S
C217 C219 1.446 . S
N218 Co177 2.151 . S
N218 C217 1.330 . S
N218 C222 1.418 . S
C219 H198 0.929 . S
C219 C217 1.446 . S
C219 C220 1.332 . S
C220 H200 0.931 . S
C220 C219 1.332 . S
C220 C221 1.267 . S
C221 H189 0.929 1_554 S
C221 C220 1.267 . S
C221 C222 1.251 . S
C222 H192 0.929 1_554 S
C222 N218 1.418 . S
C222 C221 1.251 . S
C223 H190 0.930 . S
C223 C225 1.406 . S
C223 C228 1.261 . S
C224 H191 0.930 . S
C224 N226 1.325 . S
C224 C227 1.357 . S
C225 H193 0.928 . S
C225 C223 1.406 . S
C225 N226 1.261 . S
N226 Co177 2.214 1_556 S
N226 C224 1.325 . S
N226 C225 1.261 . S
C227 H197 0.931 . S
C227 C224 1.357 . S
C227 C228 1.312 . S
C228 H199 0.930 . S
C228 C223 1.261 . S
C228 C227 1.312 . S
C229 O201 1.214 . S
C229 O209 1.234 . S
C230 H202 0.929 . S
C230 C233 1.391 . S
C230 C235 1.391 . S
C231 H203 0.929 . S
C231 C232 1.390 . S
C231 N234 1.391 . S
C232 H204 0.930 . S
C232 C231 1.390 . S
C232 C233 1.392 . S
C233 H205 0.929 . S
C233 C230 1.391 . S
C233 C232 1.392 . S
N234 Co178 2.257 . S
N234 C231 1.391 . S
N234 C235 1.388 . S
C235 H206 0.930 . S
C235 C230 1.391 . S
C235 N234 1.388 . S
Co236 O238 2.143 . S
Co236 O244 2.074 . S
Co236 O247 2.093 . S
Co236 O260 2.097 . S
Co236 N277 2.151 . S
Co236 N285 2.214 . S
Co237 O238 2.160 . S
Co237 O243 2.058 . S
Co237 O253 2.057 . S
Co237 O268 2.039 . S
Co237 N272 2.145 . S
Co237 N293 2.257 1_655 S
O238 Co236 2.143 . S
O238 Co237 2.160 . S
C239 O240 1.278 . S
C239 O247 1.224 . S
O240 C239 1.278 . S
C241 O242 1.245 . S
C241 O253 1.232 . S
O242 C241 1.245 . S
O243 Co237 2.058 . S
O243 C269 1.269 . S
O244 Co236 2.074 . S
O244 C269 1.257 . S
H245 C270 0.930 . S
H246 C276 0.930 . S
O247 Co236 2.093 . S
O247 C239 1.224 . S
H248 C280 0.929 . S
H249 C282 0.930 . S
H250 C283 0.930 . S
H251 C281 0.929 . S
H252 C284 0.928 . S
O253 Co237 2.057 . S
O253 C241 1.232 . S
H254 C273 0.929 . S
H255 C274 0.929 . S
H256 C286 0.931 . S
H257 C278 0.929 . S
H258 C287 0.930 . S
H259 C279 0.931 . S
O260 Co236 2.097 . S
O260 C288 1.214 1_655 S
H261 C289 0.929 . S
H262 C290 0.929 . S
H263 C291 0.930 . S
H264 C292 0.929 . S
H265 C294 0.930 1_655 S
H266 C271 0.930 . S
H267 C275 0.930 1_545 S
O268 Co237 2.039 . S
O268 C288 1.231 1_655 S
C269 O243 1.269 . S
C269 O244 1.257 . S
C270 H245 0.930 . S
C270 C273 1.388 1_455 S
C270 C275 1.418 . S
C271 H266 0.930 . S
C271 C274 1.404 . S
C271 C275 1.353 1_655 S
N272 Co237 2.145 . S
N272 C273 1.397 . S
N272 C274 1.334 . S
C273 H254 0.929 . S
C273 C270 1.388 1_655 S
C273 N272 1.397 . S
C274 H255 0.929 . S
C274 C271 1.404 . S
C274 N272 1.334 . S
C275 H267 0.930 1_565 S
C275 C270 1.418 . S
C275 C271 1.353 1_455 S
C276 H246 0.930 . S
C276 N277 1.330 . S
C276 C278 1.446 . S
N277 Co236 2.151 . S
N277 C276 1.330 . S
N277 C281 1.418 . S
C278 H257 0.929 . S
C278 C276 1.446 . S
C278 C279 1.332 . S
C279 H259 0.931 . S
C279 C278 1.332 . S
C279 C280 1.267 . S
C280 H248 0.929 . S
C280 C279 1.267 . S
C280 C281 1.251 . S
C281 H251 0.929 . S
C281 N277 1.418 . S
C281 C280 1.251 . S
C282 H249 0.930 . S
C282 C284 1.406 . S
C282 C287 1.261 . S
C283 H250 0.930 . S
C283 N285 1.325 . S
C283 C286 1.357 . S
C284 H252 0.928 . S
C284 C282 1.406 . S
C284 N285 1.261 . S
N285 Co236 2.214 . S
N285 C283 1.325 . S
N285 C284 1.261 . S
C286 H256 0.931 . S
C286 C283 1.357 . S
C286 C287 1.312 . S
C287 H258 0.930 . S
C287 C282 1.261 . S
C287 C286 1.312 . S
C288 O260 1.214 1_455 S
C288 O268 1.231 1_455 S
C289 H261 0.929 . S
C289 C292 1.391 . S
C289 C294 1.391 . S
C290 H262 0.929 . S
C290 C291 1.390 . S
C290 N293 1.391 . S
C291 H263 0.930 . S
C291 C290 1.390 . S
C291 C292 1.392 . S
C292 H264 0.929 . S
C292 C289 1.391 . S
C292 C291 1.392 . S
N293 Co237 2.257 1_455 S
N293 C290 1.391 . S
N293 C294 1.388 . S
C294 H265 0.930 1_455 S
C294 C289 1.391 . S
C294 N293 1.388 . S
Co295 O297 2.143 . S
Co295 O303 2.074 . S
Co295 O306 2.093 . S
Co295 O319 2.097 . S
Co295 N336 2.151 . S
Co295 N344 2.214 . S
Co296 O297 2.160 . S
Co296 O302 2.058 . S
Co296 O312 2.057 . S
Co296 O327 2.039 . S
Co296 N331 2.145 . S
Co296 N352 2.257 1_565 S
O297 Co295 2.143 . S
O297 Co296 2.160 . S
C298 O299 1.278 . S
C298 O306 1.224 . S
O299 C298 1.278 . S
C300 O301 1.245 . S
C300 O312 1.232 . S
O301 C300 1.245 . S
O302 Co296 2.058 . S
O302 C328 1.269 . S
O303 Co295 2.074 . S
O303 C328 1.257 . S
H304 C329 0.930 . S
H305 C335 0.930 . S
O306 Co295 2.093 . S
O306 C298 1.224 . S
H307 C339 0.929 . S
H308 C341 0.930 . S
H309 C342 0.930 . S
H310 C340 0.929 . S
H311 C343 0.928 . S
O312 Co296 2.057 . S
O312 C300 1.232 . S
H313 C332 0.929 . S
H314 C333 0.929 . S
H315 C345 0.931 . S
H316 C337 0.929 . S
H317 C346 0.930 . S
H318 C338 0.931 . S
O319 Co295 2.097 . S
O319 C347 1.214 1_565 S
H320 C348 0.929 . S
H321 C349 0.929 . S
H322 C350 0.930 . S
H323 C351 0.929 . S
H324 C353 0.930 1_565 S
H325 C330 0.930 . S
H326 C334 0.930 . S
O327 Co296 2.039 . S
O327 C347 1.234 1_565 S
C328 O302 1.269 . S
C328 O303 1.257 . S
C329 H304 0.930 . S
C329 C332 1.388 1_545 S
C329 C334 1.418 . S
C330 H325 0.930 . S
C330 C333 1.404 . S
C330 C334 1.353 1_565 S
N331 Co296 2.145 . S
N331 C332 1.397 . S
N331 C333 1.334 . S
C332 H313 0.929 . S
C332 C329 1.388 1_565 S
C332 N331 1.397 . S
C333 H314 0.929 . S
C333 C330 1.404 . S
C333 N331 1.334 . S
C334 H326 0.930 . S
C334 C329 1.418 . S
C334 C330 1.353 1_545 S
C335 H305 0.930 . S
C335 N336 1.330 . S
C335 C337 1.446 . S
N336 Co295 2.151 . S
N336 C335 1.330 . S
N336 C340 1.418 . S
C337 H316 0.929 . S
C337 C335 1.446 . S
C337 C338 1.332 . S
C338 H318 0.931 . S
C338 C337 1.332 . S
C338 C339 1.267 . S
C339 H307 0.929 . S
C339 C338 1.267 . S
C339 C340 1.251 . S
C340 H310 0.929 . S
C340 N336 1.418 . S
C340 C339 1.251 . S
C341 H308 0.930 . S
C341 C343 1.406 . S
C341 C346 1.261 . S
C342 H309 0.930 . S
C342 N344 1.325 . S
C342 C345 1.357 . S
C343 H311 0.928 . S
C343 C341 1.406 . S
C343 N344 1.261 . S
N344 Co295 2.214 . S
N344 C342 1.325 . S
N344 C343 1.261 . S
C345 H315 0.931 . S
C345 C342 1.357 . S
C345 C346 1.312 . S
C346 H317 0.930 . S
C346 C341 1.261 . S
C346 C345 1.312 . S
C347 O319 1.214 1_545 S
C347 O327 1.234 1_545 S
C348 H320 0.929 . S
C348 C351 1.391 . S
C348 C353 1.391 . S
C349 H321 0.929 . S
C349 C350 1.390 . S
C349 N352 1.391 . S
C350 H322 0.930 . S
C350 C349 1.390 . S
C350 C351 1.392 . S
C351 H323 0.929 . S
C351 C348 1.391 . S
C351 C350 1.392 . S
N352 Co296 2.257 1_545 S
N352 C349 1.391 . S
N352 C353 1.388 . S
C353 H324 0.930 1_545 S
C353 C348 1.391 . S
C353 N352 1.388 . S
Co354 O356 2.143 . S
Co354 O362 2.074 . S
Co354 O365 2.093 . S
Co354 O378 2.097 . S
Co354 N395 2.151 . S
Co354 N403 2.214 . S
Co355 O356 2.160 . S
Co355 O361 2.058 . S
Co355 O371 2.057 . S
Co355 O386 2.037 . S
Co355 N390 2.145 . S
Co355 N411 2.257 . S
O356 Co354 2.143 . S
O356 Co355 2.160 . S
C357 O358 1.278 . S
C357 O365 1.224 . S
O358 C357 1.278 . S
C359 O360 1.245 . S
C359 O371 1.232 . S
O360 C359 1.245 . S
O361 Co355 2.058 . S
O361 C387 1.269 . S
O362 Co354 2.074 . S
O362 C387 1.257 . S
H363 C388 0.930 . S
H364 C394 0.930 . S
O365 Co354 2.093 . S
O365 C357 1.224 . S
H366 C398 0.929 . S
H367 C400 0.930 . S
H368 C401 0.930 . S
H369 C399 0.929 . S
H370 C402 0.928 . S
O371 Co355 2.057 . S
O371 C359 1.232 . S
H372 C391 0.929 . S
H373 C392 0.929 . S
H374 C404 0.931 . S
H375 C396 0.929 . S
H376 C405 0.930 . S
H377 C397 0.931 . S
O378 Co354 2.097 . S
O378 C406 1.214 . S
H379 C407 0.929 . S
H380 C408 0.929 . S
H381 C409 0.930 . S
H382 C410 0.929 . S
H383 C412 0.930 . S
H384 C389 0.930 . S
H385 C393 0.930 1_545 S
O386 Co355 2.037 . S
O386 C406 1.234 . S
C387 O361 1.269 . S
C387 O362 1.257 . S
C388 H363 0.930 . S
C388 C391 1.388 . S
C388 C393 1.418 . S
C389 H384 0.930 . S
C389 C392 1.404 . S
C389 C393 1.353 . S
N390 Co355 2.145 . S
N390 C391 1.397 . S
N390 C392 1.334 . S
C391 H372 0.929 . S
C391 C388 1.388 . S
C391 N390 1.397 . S
C392 H373 0.929 . S
C392 C389 1.404 . S
C392 N390 1.334 . S
C393 H385 0.930 1_565 S
C393 C388 1.418 . S
C393 C389 1.353 . S
C394 H364 0.930 . S
C394 N395 1.330 . S
C394 C396 1.446 . S
N395 Co354 2.151 . S
N395 C394 1.330 . S
N395 C399 1.418 . S
C396 H375 0.929 . S
C396 C394 1.446 . S
C396 C397 1.332 . S
C397 H377 0.931 . S
C397 C396 1.332 . S
C397 C398 1.267 . S
C398 H366 0.929 . S
C398 C397 1.267 . S
C398 C399 1.251 . S
C399 H369 0.929 . S
C399 N395 1.418 . S
C399 C398 1.251 . S
C400 H367 0.930 . S
C400 C402 1.406 . S
C400 C405 1.261 . S
C401 H368 0.930 . S
C401 N403 1.325 . S
C401 C404 1.357 . S
C402 H370 0.928 . S
C402 C400 1.406 . S
C402 N403 1.261 . S
N403 Co354 2.214 . S
N403 C401 1.325 . S
N403 C402 1.261 . S
C404 H374 0.931 . S
C404 C401 1.357 . S
C404 C405 1.312 . S
C405 H376 0.930 . S
C405 C400 1.261 . S
C405 C404 1.312 . S
C406 O378 1.214 . S
C406 O386 1.234 . S
C407 H379 0.929 . S
C407 C410 1.391 . S
C407 C412 1.391 . S
C408 H380 0.929 . S
C408 C409 1.390 . S
C408 N411 1.391 . S
C409 H381 0.930 . S
C409 C408 1.390 . S
C409 C410 1.392 . S
C410 H382 0.929 . S
C410 C407 1.391 . S
C410 C409 1.392 . S
N411 Co355 2.257 . S
N411 C408 1.391 . S
N411 C412 1.388 . S
C412 H383 0.930 . S
C412 C407 1.391 . S
C412 N411 1.388 . S
Co413 O415 2.143 . S
Co413 O421 2.074 . S
Co413 O424 2.093 . S
Co413 O437 2.097 . S
Co413 N454 2.151 . S
Co413 N462 2.214 1_556 S
Co414 O415 2.160 . S
Co414 O420 2.058 . S
Co414 O430 2.057 . S
Co414 O445 2.039 . S
Co414 N449 2.145 . S
Co414 N470 2.257 1_455 S
O415 Co413 2.143 . S
O415 Co414 2.160 . S
C416 O417 1.278 . S
C416 O424 1.224 . S
O417 C416 1.278 . S
C418 O419 1.245 . S
C418 O430 1.232 . S
O419 C418 1.245 . S
O420 Co414 2.058 . S
O420 C446 1.269 . S
O421 Co413 2.074 . S
O421 C446 1.257 . S
H422 C447 0.930 . S
H423 C453 0.930 . S
O424 Co413 2.093 . S
O424 C416 1.224 . S
H425 C457 0.929 1_554 S
H426 C459 0.930 . S
H427 C460 0.930 . S
H428 C458 0.929 1_554 S
H429 C461 0.928 . S
O430 Co414 2.057 . S
O430 C418 1.232 . S
H431 C450 0.929 . S
H432 C451 0.929 . S
H433 C463 0.931 . S
H434 C455 0.929 . S
H435 C464 0.930 . S
H436 C456 0.931 . S
O437 Co413 2.097 . S
O437 C465 1.214 1_455 S
H438 C466 0.929 . S
H439 C467 0.929 . S
H440 C468 0.930 . S
H441 C469 0.929 . S
H442 C471 0.930 1_455 S
H443 C448 0.930 . S
H444 C452 0.930 . S
O445 Co414 2.039 . S
O445 C465 1.234 1_455 S
C446 O420 1.269 . S
C446 O421 1.257 . S
C447 H422 0.930 . S
C447 C450 1.388 1_655 S
C447 C452 1.418 . S
C448 H443 0.930 . S
C448 C451 1.404 . S
C448 C452 1.353 1_455 S
N449 Co414 2.145 . S
N449 C450 1.397 . S
N449 C451 1.334 . S
C450 H431 0.929 . S
C450 C447 1.388 1_455 S
C450 N449 1.397 . S
C451 H432 0.929 . S
C451 C448 1.404 . S
C451 N449 1.334 . S
C452 H444 0.930 . S
C452 C447 1.418 . S
C452 C448 1.353 1_655 S
C453 H423 0.930 . S
C453 N454 1.330 . S
C453 C455 1.446 . S
N454 Co413 2.151 . S
N454 C453 1.330 . S
N454 C458 1.418 . S
C455 H434 0.929 . S
C455 C453 1.446 . S
C455 C456 1.332 . S
C456 H436 0.931 . S
C456 C455 1.332 . S
C456 C457 1.267 . S
C457 H425 0.929 1_556 S
C457 C456 1.267 . S
C457 C458 1.251 . S
C458 H428 0.929 1_556 S
C458 N454 1.418 . S
C458 C457 1.251 . S
C459 H426 0.930 . S
C459 C461 1.406 . S
C459 C464 1.261 . S
C460 H427 0.930 . S
C460 N462 1.325 . S
C460 C463 1.357 . S
C461 H429 0.928 . S
C461 C459 1.406 . S
C461 N462 1.261 . S
N462 Co413 2.214 1_554 S
N462 C460 1.325 . S
N462 C461 1.261 . S
C463 H433 0.931 . S
C463 C460 1.357 . S
C463 C464 1.312 . S
C464 H435 0.930 . S
C464 C459 1.261 . S
C464 C463 1.312 . S
C465 O437 1.214 1_655 S
C465 O445 1.234 1_655 S
C466 H438 0.929 . S
C466 C469 1.391 . S
C466 C471 1.391 . S
C467 H439 0.929 . S
C467 C468 1.390 . S
C467 N470 1.391 . S
C468 H440 0.930 . S
C468 C467 1.390 . S
C468 C469 1.392 . S
C469 H441 0.929 . S
C469 C466 1.391 . S
C469 C468 1.392 . S
N470 Co414 2.257 1_655 S
N470 C467 1.391 . S
N470 C471 1.388 . S
C471 H442 0.930 1_655 S
C471 C466 1.391 . S
C471 N470 1.388 . S
Co472 O474 2.143 . S
Co472 O480 2.074 . S
Co472 O483 2.093 . S
Co472 O496 2.097 . S
Co472 N513 2.151 . S
Co472 N521 2.214 . S
Co473 O474 2.160 . S
Co473 O479 2.058 . S
Co473 O489 2.057 . S
Co473 O504 2.039 . S
Co473 N508 2.145 . S
Co473 N529 2.257 1_545 S
O474 Co472 2.143 . S
O474 Co473 2.160 . S
C475 O476 1.278 . S
C475 O483 1.224 . S
O476 C475 1.278 . S
C477 O478 1.245 . S
C477 O489 1.232 . S
O478 C477 1.245 . S
O479 Co473 2.058 . S
O479 C505 1.269 . S
O480 Co472 2.074 . S
O480 C505 1.257 . S
H481 C506 0.930 . S
H482 C512 0.930 . S
O483 Co472 2.093 . S
O483 C475 1.224 . S
H484 C516 0.929 . S
H485 C518 0.930 . S
H486 C519 0.930 . S
H487 C517 0.929 . S
H488 C520 0.928 . S
O489 Co473 2.057 . S
O489 C477 1.232 . S
H490 C509 0.929 . S
H491 C510 0.929 . S
H492 C522 0.931 . S
H493 C514 0.929 . S
H494 C523 0.930 . S
H495 C515 0.931 . S
O496 Co472 2.097 . S
O496 C524 1.214 1_545 S
H497 C525 0.929 . S
H498 C526 0.929 . S
H499 C527 0.930 . S
H500 C528 0.929 . S
H501 C530 0.930 1_545 S
H502 C507 0.930 . S
H503 C511 0.930 1_655 S
O504 Co473 2.039 . S
O504 C524 1.232 1_545 S
C505 O479 1.269 . S
C505 O480 1.257 . S
C506 H481 0.930 . S
C506 C509 1.388 1_565 S
C506 C511 1.418 . S
C507 H502 0.930 . S
C507 C510 1.404 . S
C507 C511 1.353 1_545 S
N508 Co473 2.145 . S
N508 C509 1.397 . S
N508 C510 1.334 . S
C509 H490 0.929 . S
C509 C506 1.388 1_545 S
C509 N508 1.397 . S
C510 H491 0.929 . S
C510 C507 1.404 . S
C510 N508 1.334 . S
C511 H503 0.930 1_455 S
C511 C506 1.418 . S
C511 C507 1.353 1_565 S
C512 H482 0.930 . S
C512 N513 1.330 . S
C512 C514 1.446 . S
N513 Co472 2.151 . S
N513 C512 1.330 . S
N513 C517 1.418 . S
C514 H493 0.929 . S
C514 C512 1.446 . S
C514 C515 1.332 . S
C515 H495 0.931 . S
C515 C514 1.332 . S
C515 C516 1.267 . S
C516 H484 0.929 . S
C516 C515 1.267 . S
C516 C517 1.251 . S
C517 H487 0.929 . S
C517 N513 1.418 . S
C517 C516 1.251 . S
C518 H485 0.930 . S
C518 C520 1.406 . S
C518 C523 1.261 . S
C519 H486 0.930 . S
C519 N521 1.325 . S
C519 C522 1.357 . S
C520 H488 0.928 . S
C520 C518 1.406 . S
C520 N521 1.261 . S
N521 Co472 2.214 . S
N521 C519 1.325 . S
N521 C520 1.261 . S
C522 H492 0.931 . S
C522 C519 1.357 . S
C522 C523 1.312 . S
C523 H494 0.930 . S
C523 C518 1.261 . S
C523 C522 1.312 . S
C524 O496 1.214 1_565 S
C524 O504 1.232 1_565 S
C525 H497 0.929 . S
C525 C528 1.391 . S
C525 C530 1.391 . S
C526 H498 0.929 . S
C526 C527 1.390 . S
C526 N529 1.391 . S
C527 H499 0.930 . S
C527 C526 1.390 . S
C527 C528 1.392 . S
C528 H500 0.929 . S
C528 C525 1.391 . S
C528 C527 1.392 . S
N529 Co473 2.257 1_565 S
N529 C526 1.391 . S
N529 C530 1.388 . S
C530 H501 0.930 1_565 S
C530 C525 1.391 . S
C530 N529 1.388 . S
Co531 O533 2.143 . S
Co531 O539 2.074 . S
Co531 O542 2.093 . S
Co531 O555 2.097 . S
Co531 N572 2.151 . S
Co531 N580 2.214 . S
Co532 O533 2.160 . S
Co532 O538 2.058 . S
Co532 O548 2.057 . S
Co532 O563 2.037 . S
Co532 N567 2.145 . S
Co532 N588 2.257 . S
O533 Co531 2.143 . S
O533 Co532 2.160 . S
C534 O535 1.278 . S
C534 O542 1.224 . S
O535 C534 1.278 . S
C536 O537 1.245 . S
C536 O548 1.232 . S
O537 C536 1.245 . S
O538 Co532 2.058 . S
O538 C564 1.269 . S
O539 Co531 2.074 . S
O539 C564 1.257 . S
H540 C565 0.930 . S
H541 C571 0.930 . S
O542 Co531 2.093 . S
O542 C534 1.224 . S
H543 C575 0.929 . S
H544 C577 0.930 . S
H545 C578 0.930 . S
H546 C576 0.929 . S
H547 C579 0.928 . S
O548 Co532 2.057 . S
O548 C536 1.232 . S
H549 C568 0.929 . S
H550 C569 0.929 . S
H551 C581 0.931 . S
H552 C573 0.929 . S
H553 C582 0.930 . S
H554 C574 0.931 . S
O555 Co531 2.097 . S
O555 C583 1.214 . S
H556 C584 0.929 . S
H557 C585 0.929 . S
H558 C586 0.930 . S
H559 C587 0.929 . S
H560 C589 0.930 . S
H561 C566 0.930 . S
H562 C570 0.930 1_565 S
O563 Co532 2.037 . S
O563 C583 1.234 . S
C564 O538 1.269 . S
C564 O539 1.257 . S
C565 H540 0.930 . S
C565 C568 1.388 . S
C565 C570 1.418 . S
C566 H561 0.930 . S
C566 C569 1.404 . S
C566 C570 1.353 . S
N567 Co532 2.145 . S
N567 C568 1.397 . S
N567 C569 1.334 . S
C568 H549 0.929 . S
C568 C565 1.388 . S
C568 N567 1.397 . S
C569 H550 0.929 . S
C569 C566 1.404 . S
C569 N567 1.334 . S
C570 H562 0.930 1_545 S
C570 C565 1.418 . S
C570 C566 1.353 . S
C571 H541 0.930 . S
C571 N572 1.330 . S
C571 C573 1.446 . S
N572 Co531 2.151 . S
N572 C571 1.330 . S
N572 C576 1.418 . S
C573 H552 0.929 . S
C573 C571 1.446 . S
C573 C574 1.332 . S
C574 H554 0.931 . S
C574 C573 1.332 . S
C574 C575 1.267 . S
C575 H543 0.929 . S
C575 C574 1.267 . S
C575 C576 1.251 . S
C576 H546 0.929 . S
C576 N572 1.418 . S
C576 C575 1.251 . S
C577 H544 0.930 . S
C577 C579 1.406 . S
C577 C582 1.261 . S
C578 H545 0.930 . S
C578 N580 1.325 . S
C578 C581 1.357 . S
C579 H547 0.928 . S
C579 C577 1.406 . S
C579 N580 1.261 . S
N580 Co531 2.214 . S
N580 C578 1.325 . S
N580 C579 1.261 . S
C581 H551 0.931 . S
C581 C578 1.357 . S
C581 C582 1.312 . S
C582 H553 0.930 . S
C582 C577 1.261 . S
C582 C581 1.312 . S
C583 O555 1.214 . S
C583 O563 1.234 . S
C584 H556 0.929 . S
C584 C587 1.391 . S
C584 C589 1.391 . S
C585 H557 0.929 . S
C585 C586 1.390 . S
C585 N588 1.391 . S
C586 H558 0.930 . S
C586 C585 1.390 . S
C586 C587 1.392 . S
C587 H559 0.929 . S
C587 C584 1.391 . S
C587 C586 1.392 . S
N588 Co532 2.257 . S
N588 C585 1.391 . S
N588 C589 1.388 . S
C589 H560 0.930 . S
C589 C584 1.391 . S
C589 N588 1.388 . S
Co590 O592 2.143 . S
Co590 O598 2.074 . S
Co590 O601 2.093 . S
Co590 O614 2.097 . S
Co590 N631 2.151 . S
Co590 N639 2.214 1_556 S
Co591 O592 2.160 . S
Co591 O597 2.058 . S
Co591 O607 2.057 . S
Co591 O622 2.039 . S
Co591 N626 2.145 . S
Co591 N647 2.257 1_655 S
O592 Co590 2.143 . S
O592 Co591 2.160 . S
C593 O594 1.278 . S
C593 O601 1.224 . S
O594 C593 1.278 . S
C595 O596 1.245 . S
C595 O607 1.232 . S
O596 C595 1.245 . S
O597 Co591 2.058 . S
O597 C623 1.269 . S
O598 Co590 2.074 . S
O598 C623 1.257 . S
H599 C624 0.930 . S
H600 C630 0.930 . S
O601 Co590 2.093 . S
O601 C593 1.224 . S
H602 C634 0.929 1_554 S
H603 C636 0.930 . S
H604 C637 0.930 . S
H605 C635 0.929 1_554 S
H606 C638 0.928 . S
O607 Co591 2.057 . S
O607 C595 1.232 . S
H608 C627 0.929 . S
H609 C628 0.929 . S
H610 C640 0.931 . S
H611 C632 0.929 . S
H612 C641 0.930 . S
H613 C633 0.931 . S
O614 Co590 2.097 . S
O614 C642 1.214 1_655 S
H615 C643 0.929 . S
H616 C644 0.929 . S
H617 C645 0.930 . S
H618 C646 0.929 . S
H619 C648 0.930 1_655 S
H620 C625 0.930 . S
H621 C629 0.930 . S
O622 Co591 2.039 . S
O622 C642 1.234 1_655 S
C623 O597 1.269 . S
C623 O598 1.257 . S
C624 H599 0.930 . S
C624 C627 1.388 1_455 S
C624 C629 1.418 . S
C625 H620 0.930 . S
C625 C628 1.404 . S
C625 C629 1.353 1_655 S
N626 Co591 2.145 . S
N626 C627 1.397 . S
N626 C628 1.334 . S
C627 H608 0.929 . S
C627 C624 1.388 1_655 S
C627 N626 1.397 . S
C628 H609 0.929 . S
C628 C625 1.404 . S
C628 N626 1.334 . S
C629 H621 0.930 . S
C629 C624 1.418 . S
C629 C625 1.353 1_455 S
C630 H600 0.930 . S
C630 N631 1.330 . S
C630 C632 1.446 . S
N631 Co590 2.151 . S
N631 C630 1.330 . S
N631 C635 1.418 . S
C632 H611 0.929 . S
C632 C630 1.446 . S
C632 C633 1.332 . S
C633 H613 0.931 . S
C633 C632 1.332 . S
C633 C634 1.267 . S
C634 H602 0.929 1_556 S
C634 C633 1.267 . S
C634 C635 1.251 . S
C635 H605 0.929 1_556 S
C635 N631 1.418 . S
C635 C634 1.251 . S
C636 H603 0.930 . S
C636 C638 1.406 . S
C636 C641 1.261 . S
C637 H604 0.930 . S
C637 N639 1.325 . S
C637 C640 1.357 . S
C638 H606 0.928 . S
C638 C636 1.406 . S
C638 N639 1.261 . S
N639 Co590 2.214 1_554 S
N639 C637 1.325 . S
N639 C638 1.261 . S
C640 H610 0.931 . S
C640 C637 1.357 . S
C640 C641 1.312 . S
C641 H612 0.930 . S
C641 C636 1.261 . S
C641 C640 1.312 . S
C642 O614 1.214 1_455 S
C642 O622 1.234 1_455 S
C643 H615 0.929 . S
C643 C646 1.391 . S
C643 C648 1.391 . S
C644 H616 0.929 . S
C644 C645 1.390 . S
C644 N647 1.391 . S
C645 H617 0.930 . S
C645 C644 1.390 . S
C645 C646 1.392 . S
C646 H618 0.929 . S
C646 C643 1.391 . S
C646 C645 1.392 . S
N647 Co591 2.257 1_455 S
N647 C644 1.391 . S
N647 C648 1.388 . S
C648 H619 0.930 1_455 S
C648 C643 1.391 . S
C648 N647 1.388 . S
Co649 O651 2.143 . S
Co649 O657 2.074 . S
Co649 O660 2.093 . S
Co649 O673 2.097 . S
Co649 N690 2.151 . S
Co649 N698 2.214 . S
Co650 O651 2.160 . S
Co650 O656 2.058 . S
Co650 O666 2.057 . S
Co650 O681 2.039 . S
Co650 N685 2.145 . S
Co650 N706 2.257 1_565 S
O651 Co649 2.143 . S
O651 Co650 2.160 . S
C652 O653 1.278 . S
C652 O660 1.224 . S
O653 C652 1.278 . S
C654 O655 1.245 . S
C654 O666 1.232 . S
O655 C654 1.245 . S
O656 Co650 2.058 . S
O656 C682 1.269 . S
O657 Co649 2.074 . S
O657 C682 1.257 . S
H658 C683 0.930 . S
H659 C689 0.930 . S
O660 Co649 2.093 . S
O660 C652 1.224 . S
H661 C693 0.929 . S
H662 C695 0.930 . S
H663 C696 0.930 . S
H664 C694 0.929 . S
H665 C697 0.928 . S
O666 Co650 2.057 . S
O666 C654 1.232 . S
H667 C686 0.929 . S
H668 C687 0.929 . S
H669 C699 0.931 . S
H670 C691 0.929 . S
H671 C700 0.930 . S
H672 C692 0.931 . S
O673 Co649 2.097 . S
O673 C701 1.214 1_565 S
H674 C702 0.929 . S
H675 C703 0.929 . S
H676 C704 0.930 . S
H677 C705 0.929 . S
H678 C707 0.930 1_565 S
H679 C684 0.930 . S
H680 C688 0.930 1_455 S
O681 Co650 2.039 . S
O681 C701 1.232 1_565 S
C682 O656 1.269 . S
C682 O657 1.257 . S
C683 H658 0.930 . S
C683 C686 1.388 1_545 S
C683 C688 1.418 . S
C684 H679 0.930 . S
C684 C687 1.404 . S
C684 C688 1.353 1_565 S
N685 Co650 2.145 . S
N685 C686 1.397 . S
N685 C687 1.334 . S
C686 H667 0.929 . S
C686 C683 1.388 1_565 S
C686 N685 1.397 . S
C687 H668 0.929 . S
C687 C684 1.404 . S
C687 N685 1.334 . S
C688 H680 0.930 1_655 S
C688 C683 1.418 . S
C688 C684 1.353 1_545 S
C689 H659 0.930 . S
C689 N690 1.330 . S
C689 C691 1.446 . S
N690 Co649 2.151 . S
N690 C689 1.330 . S
N690 C694 1.418 . S
C691 H670 0.929 . S
C691 C689 1.446 . S
C691 C692 1.332 . S
C692 H672 0.931 . S
C692 C691 1.332 . S
C692 C693 1.267 . S
C693 H661 0.929 . S
C693 C692 1.267 . S
C693 C694 1.251 . S
C694 H664 0.929 . S
C694 N690 1.418 . S
C694 C693 1.251 . S
C695 H662 0.930 . S
C695 C697 1.406 . S
C695 C700 1.261 . S
C696 H663 0.930 . S
C696 N698 1.325 . S
C696 C699 1.357 . S
C697 H665 0.928 . S
C697 C695 1.406 . S
C697 N698 1.261 . S
N698 Co649 2.214 . S
N698 C696 1.325 . S
N698 C697 1.261 . S
C699 H669 0.931 . S
C699 C696 1.357 . S
C699 C700 1.312 . S
C700 H671 0.930 . S
C700 C695 1.261 . S
C700 C699 1.312 . S
C701 O673 1.214 1_545 S
C701 O681 1.232 1_545 S
C702 H674 0.929 . S
C702 C705 1.391 . S
C702 C707 1.391 . S
C703 H675 0.929 . S
C703 C704 1.390 . S
C703 N706 1.391 . S
C704 H676 0.930 . S
C704 C703 1.390 . S
C704 C705 1.392 . S
C705 H677 0.929 . S
C705 C702 1.391 . S
C705 C704 1.392 . S
N706 Co650 2.257 1_545 S
N706 C703 1.391 . S
N706 C707 1.388 . S
C707 H678 0.930 1_545 S
C707 C702 1.391 . S
C707 N706 1.388 . S
C708 C709 1.363 . S
C708 C714 1.379 . S
C708 N716 1.356 . S
C709 C708 1.363 . S
C709 C715 1.363 . S
C710 C711 1.363 . S
C710 C715 1.379 . S
C710 N717 1.356 . S
C711 C710 1.363 . S
C711 C714 1.363 . S
N712 C714 1.356 . S
N712 H724 0.984 . S
N712 H725 0.985 . S
N713 C715 1.356 . S
N713 H718 0.984 . S
N713 H719 0.985 1_554 S
C714 C708 1.379 . S
C714 C711 1.363 . S
C714 N712 1.356 . S
C715 C709 1.363 . S
C715 C710 1.379 . S
C715 N713 1.356 . S
N716 C708 1.356 . S
N716 H722 0.984 . S
N716 H723 0.984 . S
N717 C710 1.356 . S
N717 H720 0.984 . S
N717 H721 0.985 1_554 S
H718 N713 0.984 . S
H719 N713 0.985 1_556 S
H720 N717 0.984 . S
H721 N717 0.985 1_556 S
H722 N716 0.984 . S
H723 N716 0.984 . S
H724 N712 0.984 . S
H725 N712 0.985 . S
C726 C727 1.363 . S
C726 C732 1.379 . S
C726 N734 1.356 . S
C727 C726 1.363 . S
C727 C733 1.363 1_455 S
C728 C729 1.363 . S
C728 C733 1.379 . S
C728 N735 1.356 . S
C729 C728 1.363 . S
C729 C732 1.363 1_655 S
N730 C732 1.356 . S
N730 H742 0.984 . S
N730 H743 0.985 1_455 S
N731 C733 1.356 . S
N731 H736 0.984 1_655 S
N731 H737 0.985 . S
C732 C726 1.379 . S
C732 C729 1.363 1_455 S
C732 N730 1.356 . S
C733 C727 1.363 1_655 S
C733 C728 1.379 . S
C733 N731 1.356 . S
N734 C726 1.356 . S
N734 H740 0.984 . S
N734 H741 0.984 . S
N735 C728 1.356 . S
N735 H738 0.984 . S
N735 H739 0.985 . S
H736 N731 0.984 1_455 S
H737 N731 0.985 . S
H738 N735 0.984 . S
H739 N735 0.985 . S
H740 N734 0.984 . S
H741 N734 0.984 . S
H742 N730 0.984 . S
H743 N730 0.985 1_655 S
C744 C745 1.363 . S
C744 C750 1.379 . S
C744 N752 1.356 . S
C745 C744 1.363 . S
C745 C751 1.363 1_565 S
C746 C747 1.363 . S
C746 C751 1.379 . S
C746 N753 1.356 . S
C747 C746 1.363 . S
C747 C750 1.363 1_545 S
N748 C750 1.356 . S
N748 H760 0.984 . S
N748 H761 0.985 1_565 S
N749 C751 1.356 . S
N749 H754 0.984 1_545 S
N749 H755 0.985 . S
C750 C744 1.379 . S
C750 C747 1.363 1_565 S
C750 N748 1.356 . S
C751 C745 1.363 1_545 S
C751 C746 1.379 . S
C751 N749 1.356 . S
N752 C744 1.356 . S
N752 H758 0.984 . S
N752 H759 0.984 . S
N753 C746 1.356 . S
N753 H756 0.984 . S
N753 H757 0.985 . S
H754 N749 0.984 1_565 S
H755 N749 0.985 . S
H756 N753 0.984 . S
H757 N753 0.985 . S
H758 N752 0.984 . S
H759 N752 0.984 . S
H760 N748 0.984 . S
H761 N748 0.985 1_545 S
C762 C763 1.363 . S
C762 C768 1.379 . S
C762 N770 1.356 . S
C763 C762 1.363 . S
C763 C769 1.363 . S
C764 C765 1.363 . S
C764 C769 1.379 . S
C764 N771 1.356 . S
C765 C764 1.363 . S
C765 C768 1.363 . S
N766 C768 1.356 . S
N766 H778 0.984 . S
N766 H779 0.985 . S
N767 C769 1.356 . S
N767 H772 0.984 . S
N767 H773 0.985 . S
C768 C762 1.379 . S
C768 C765 1.363 . S
C768 N766 1.356 . S
C769 C763 1.363 . S
C769 C764 1.379 . S
C769 N767 1.356 . S
N770 C762 1.356 . S
N770 H776 0.984 . S
N770 H777 0.984 . S
N771 C764 1.356 . S
N771 H774 0.984 . S
N771 H775 0.985 . S
H772 N767 0.984 . S
H773 N767 0.985 . S
H774 N771 0.984 . S
H775 N771 0.985 . S
H776 N770 0.984 . S
H777 N770 0.984 . S
H778 N766 0.984 . S
H779 N766 0.985 . S
C780 C781 1.363 . S
C780 C786 1.379 . S
C780 N788 1.356 . S
C781 C780 1.363 . S
C781 C787 1.363 1_655 S
C782 C783 1.363 . S
C782 C787 1.379 . S
C782 N789 1.356 . S
C783 C782 1.363 . S
C783 C786 1.363 1_455 S
N784 C786 1.356 . S
N784 H796 0.984 1_556 S
N784 H797 0.985 1_655 S
N785 C787 1.356 . S
N785 H790 0.984 1_455 S
N785 H791 0.985 . S
C786 C780 1.379 . S
C786 C783 1.363 1_655 S
C786 N784 1.356 . S
C787 C781 1.363 1_455 S
C787 C782 1.379 . S
C787 N785 1.356 . S
N788 C780 1.356 . S
N788 H794 0.984 1_556 S
N788 H795 0.984 . S
N789 C782 1.356 . S
N789 H792 0.984 . S
N789 H793 0.985 . S
H790 N785 0.984 1_655 S
H791 N785 0.985 . S
H792 N789 0.984 . S
H793 N789 0.985 . S
H794 N788 0.984 1_554 S
H795 N788 0.984 . S
H796 N784 0.984 1_554 S
H797 N784 0.985 1_455 S
C798 C799 1.363 1_565 S
C798 C804 1.379 . S
C798 N806 1.356 . S
C799 C798 1.363 1_545 S
C799 C805 1.363 . S
C800 C801 1.363 1_545 S
C800 C805 1.379 . S
C800 N807 1.356 . S
C801 C800 1.363 1_565 S
C801 C804 1.363 . S
N802 C804 1.356 . S
N802 H814 0.984 . S
N802 H815 0.985 . S
N803 C805 1.356 . S
N803 H808 0.984 . S
N803 H809 0.985 . S
C804 C798 1.379 . S
C804 C801 1.363 . S
C804 N802 1.356 . S
C805 C799 1.363 . S
C805 C800 1.379 . S
C805 N803 1.356 . S
N806 C798 1.356 . S
N806 H812 0.984 . S
N806 H813 0.984 1_565 S
N807 C800 1.356 . S
N807 H810 0.984 1_545 S
N807 H811 0.985 . S
H808 N803 0.984 . S
H809 N803 0.985 . S
H810 N807 0.984 1_565 S
H811 N807 0.985 . S
H812 N806 0.984 . S
H813 N806 0.984 1_545 S
H814 N802 0.984 . S
H815 N802 0.985 . S
C816 C817 1.363 . S
C816 C822 1.379 . S
C816 N824 1.356 . S
C817 C816 1.363 . S
C817 C823 1.363 . S
C818 C819 1.363 . S
C818 C823 1.379 . S
C818 N825 1.356 . S
C819 C818 1.363 . S
C819 C822 1.363 . S
N820 C822 1.356 . S
N820 H832 0.984 . S
N820 H833 0.985 . S
N821 C823 1.356 . S
N821 H826 0.984 . S
N821 H827 0.985 . S
C822 C816 1.379 . S
C822 C819 1.363 . S
C822 N820 1.356 . S
C823 C817 1.363 . S
C823 C818 1.379 . S
C823 N821 1.356 . S
N824 C816 1.356 . S
N824 H830 0.984 . S
N824 H831 0.984 . S
N825 C818 1.356 . S
N825 H828 0.984 . S
N825 H829 0.985 . S
H826 N821 0.984 . S
H827 N821 0.985 . S
H828 N825 0.984 . S
H829 N825 0.985 . S
H830 N824 0.984 . S
H831 N824 0.984 . S
H832 N820 0.984 . S
H833 N820 0.985 . S
C834 C835 1.363 . S
C834 C840 1.379 . S
C834 N842 1.356 . S
C835 C834 1.363 . S
C835 C841 1.363 . S
C836 C837 1.363 . S
C836 C841 1.379 . S
C836 N843 1.356 . S
C837 C836 1.363 . S
C837 C840 1.363 . S
N838 C840 1.356 . S
N838 H850 0.984 . S
N838 H851 0.985 . S
N839 C841 1.356 . S
N839 H844 0.984 . S
N839 H845 0.985 . S
C840 C834 1.379 . S
C840 C837 1.363 . S
C840 N838 1.356 . S
C841 C835 1.363 . S
C841 C836 1.379 . S
C841 N839 1.356 . S
N842 C834 1.356 . S
N842 H848 0.984 . S
N842 H849 0.984 . S
N843 C836 1.356 . S
N843 H846 0.984 . S
N843 H847 0.985 . S
H844 N839 0.984 . S
H845 N839 0.985 . S
H846 N843 0.984 . S
H847 N843 0.985 . S
H848 N842 0.984 . S
H849 N842 0.984 . S
H850 N838 0.984 . S
H851 N838 0.985 . S
C852 C853 1.363 . S
C852 C858 1.379 . S
C852 N860 1.356 . S
C853 C852 1.363 . S
C853 C859 1.363 . S
C854 C855 1.363 . S
C854 C859 1.379 . S
C854 N861 1.356 . S
C855 C854 1.363 . S
C855 C858 1.363 . S
N856 C858 1.356 . S
N856 H868 0.984 . S
N856 H869 0.985 . S
N857 C859 1.356 . S
N857 H862 0.984 . S
N857 H863 0.985 . S
C858 C852 1.379 . S
C858 C855 1.363 . S
C858 N856 1.356 . S
C859 C853 1.363 . S
C859 C854 1.379 . S
C859 N857 1.356 . S
N860 C852 1.356 . S
N860 H866 0.984 . S
N860 H867 0.984 . S
N861 C854 1.356 . S
N861 H864 0.984 . S
N861 H865 0.985 . S
H862 N857 0.984 . S
H863 N857 0.985 . S
H864 N861 0.984 . S
H865 N861 0.985 . S
H866 N860 0.984 . S
H867 N860 0.984 . S
H868 N856 0.984 . S
H869 N856 0.985 . S
C870 C871 1.363 . S
C870 C876 1.379 . S
C870 N878 1.356 . S
C871 C870 1.363 . S
C871 C877 1.363 . S
C872 C873 1.363 . S
C872 C877 1.379 . S
C872 N879 1.356 . S
C873 C872 1.363 . S
C873 C876 1.363 . S
N874 C876 1.356 . S
N874 H886 0.984 . S
N874 H887 0.985 . S
N875 C877 1.356 . S
N875 H880 0.984 . S
N875 H881 0.985 . S
C876 C870 1.379 . S
C876 C873 1.363 . S
C876 N874 1.356 . S
C877 C871 1.363 . S
C877 C872 1.379 . S
C877 N875 1.356 . S
N878 C870 1.356 . S
N878 H884 0.984 . S
N878 H885 0.984 . S
N879 C872 1.356 . S
N879 H882 0.984 . S
N879 H883 0.985 . S
H880 N875 0.984 . S
H881 N875 0.985 . S
H882 N879 0.984 . S
H883 N879 0.985 . S
H884 N878 0.984 . S
H885 N878 0.984 . S
H886 N874 0.984 . S
H887 N874 0.985 . S
C888 C889 1.363 . S
C888 C894 1.379 . S
C888 N896 1.356 . S
C889 C888 1.363 . S
C889 C895 1.363 . S
C890 C891 1.363 . S
C890 C895 1.379 . S
C890 N897 1.356 . S
C891 C890 1.363 . S
C891 C894 1.363 . S
N892 C894 1.356 . S
N892 H904 0.984 . S
N892 H905 0.985 . S
N893 C895 1.356 . S
N893 H898 0.984 . S
N893 H899 0.985 . S
C894 C888 1.379 . S
C894 C891 1.363 . S
C894 N892 1.356 . S
C895 C889 1.363 . S
C895 C890 1.379 . S
C895 N893 1.356 . S
N896 C888 1.356 . S
N896 H902 0.984 . S
N896 H903 0.984 . S
N897 C890 1.356 . S
N897 H900 0.984 . S
N897 H901 0.985 . S
H898 N893 0.984 . S
H899 N893 0.985 . S
H900 N897 0.984 . S
H901 N897 0.985 . S
H902 N896 0.984 . S
H903 N896 0.984 . S
H904 N892 0.984 . S
H905 N892 0.985 . S
C906 C907 1.363 . S
C906 C912 1.379 . S
C906 N914 1.356 . S
C907 C906 1.363 . S
C907 C913 1.363 . S
C908 C909 1.363 . S
C908 C913 1.379 . S
C908 N915 1.356 . S
C909 C908 1.363 . S
C909 C912 1.363 . S
N910 C912 1.356 . S
N910 H922 0.984 . S
N910 H923 0.985 . S
N911 C913 1.356 . S
N911 H916 0.984 . S
N911 H917 0.985 . S
C912 C906 1.379 . S
C912 C909 1.363 . S
C912 N910 1.356 . S
C913 C907 1.363 . S
C913 C908 1.379 . S
C913 N911 1.356 . S
N914 C906 1.356 . S
N914 H920 0.984 . S
N914 H921 0.984 . S
N915 C908 1.356 . S
N915 H918 0.984 . S
N915 H919 0.985 . S
H916 N911 0.984 . S
H917 N911 0.985 . S
H918 N915 0.984 . S
H919 N915 0.985 . S
H920 N914 0.984 . S
H921 N914 0.984 . S
H922 N910 0.984 . S
H923 N910 0.985 . S
C924 C925 1.363 1_554 S
C924 C930 1.379 1_565 S
C924 N932 1.356 . S
C925 C924 1.363 1_556 S
C925 C931 1.363 . S
C926 C927 1.363 1_556 S
C926 C931 1.379 1_545 S
C926 N933 1.356 . S
C927 C926 1.363 1_554 S
C927 C930 1.363 . S
N928 C930 1.356 . S
N928 H940 0.984 . S
N928 H941 0.985 . S
N929 C931 1.356 . S
N929 H934 0.984 . S
N929 H935 0.985 . S
C930 C924 1.379 1_545 S
C930 C927 1.363 . S
C930 N928 1.356 . S
C931 C925 1.363 . S
C931 C926 1.379 1_565 S
C931 N929 1.356 . S
N932 C924 1.356 . S
N932 H938 0.984 . S
N932 H939 0.984 1_554 S
N933 C926 1.356 . S
N933 H936 0.984 1_556 S
N933 H937 0.985 . S
H934 N929 0.984 . S
H935 N929 0.985 . S
H936 N933 0.984 1_554 S
H937 N933 0.985 . S
H938 N932 0.984 . S
H939 N932 0.984 1_556 S
H940 N928 0.984 . S
H941 N928 0.985 . S
C942 C943 1.363 . S
C942 C948 1.379 . S
C942 N950 1.356 . S
C943 C942 1.363 . S
C943 C949 1.363 . S
C944 C945 1.363 . S
C944 C949 1.379 . S
C944 N951 1.356 . S
C945 C944 1.363 . S
C945 C948 1.363 . S
N946 C948 1.356 . S
N946 H958 0.984 . S
N946 H959 0.985 . S
N947 C949 1.356 . S
N947 H952 0.984 . S
N947 H953 0.985 . S
C948 C942 1.379 . S
C948 C945 1.363 . S
C948 N946 1.356 . S
C949 C943 1.363 . S
C949 C944 1.379 . S
C949 N947 1.356 . S
N950 C942 1.356 . S
N950 H956 0.984 . S
N950 H957 0.984 . S
N951 C944 1.356 . S
N951 H954 0.984 . S
N951 H955 0.985 . S
H952 N947 0.984 . S
H953 N947 0.985 . S
H954 N951 0.984 . S
H955 N951 0.985 . S
H956 N950 0.984 . S
H957 N950 0.984 . S
H958 N946 0.984 . S
H959 N946 0.985 . S
C960 C961 1.363 . S
C960 C966 1.379 1_655 S
C960 N968 1.356 . S
C961 C960 1.363 . S
C961 C967 1.363 . S
C962 C963 1.363 . S
C962 C967 1.379 1_455 S
C962 N969 1.356 . S
C963 C962 1.363 . S
C963 C966 1.363 . S
N964 C966 1.356 . S
N964 H976 0.984 . S
N964 H977 0.985 . S
N965 C967 1.356 . S
N965 H970 0.984 . S
N965 H971 0.985 . S
C966 C960 1.379 1_455 S
C966 C963 1.363 . S
C966 N964 1.356 . S
C967 C961 1.363 . S
C967 C962 1.379 1_655 S
C967 N965 1.356 . S
N968 C960 1.356 . S
N968 H974 0.984 . S
N968 H975 0.984 . S
N969 C962 1.356 . S
N969 H972 0.984 . S
N969 H973 0.985 . S
H970 N965 0.984 . S
H971 N965 0.985 . S
H972 N969 0.984 . S
H973 N969 0.985 . S
H974 N968 0.984 . S
H975 N968 0.984 . S
H976 N964 0.984 . S
H977 N964 0.985 . S
C978 C979 1.363 . S
C978 C984 1.379 1_565 S
C978 N986 1.356 . S
C979 C978 1.363 . S
C979 C985 1.363 1_554 S
C980 C981 1.363 . S
C980 C985 1.379 1_545 S
C980 N987 1.356 . S
C981 C980 1.363 . S
C981 C984 1.363 1_556 S
N982 C984 1.356 . S
N982 H994 0.984 . S
N982 H995 0.985 . S
N983 C985 1.356 . S
N983 H988 0.984 . S
N983 H989 0.985 . S
C984 C978 1.379 1_545 S
C984 C981 1.363 1_554 S
C984 N982 1.356 . S
C985 C979 1.363 1_556 S
C985 C980 1.379 1_565 S
C985 N983 1.356 . S
N986 C978 1.356 . S
N986 H992 0.984 . S
N986 H993 0.984 . S
N987 C980 1.356 . S
N987 H990 0.984 . S
N987 H991 0.985 . S
H988 N983 0.984 . S
H989 N983 0.985 . S
H990 N987 0.984 . S
H991 N987 0.985 . S
H992 N986 0.984 . S
H993 N986 0.984 . S
H994 N982 0.984 . S
H995 N982 0.985 . S
C996 C997 1.363 . S
C996 C1002 1.379 . S
C996 N1004 1.356 . S
C997 C996 1.363 . S
C997 C1003 1.363 . S
C998 C999 1.363 . S
C998 C1003 1.379 . S
C998 N1005 1.356 . S
C999 C998 1.363 . S
C999 C1002 1.363 . S
N1000 C1002 1.356 . S
N1000 H1012 0.984 . S
N1000 H1013 0.985 . S
N1001 C1003 1.356 . S
N1001 H1006 0.984 . S
N1001 H1007 0.985 . S
C1002 C996 1.379 . S
C1002 C999 1.363 . S
C1002 N1000 1.356 . S
C1003 C997 1.363 . S
C1003 C998 1.379 . S
C1003 N1001 1.356 . S
N1004 C996 1.356 . S
N1004 H1010 0.984 . S
N1004 H1011 0.984 . S
N1005 C998 1.356 . S
N1005 H1008 0.984 . S
N1005 H1009 0.985 . S
H1006 N1001 0.984 . S
H1007 N1001 0.985 . S
H1008 N1005 0.984 . S
H1009 N1005 0.985 . S
H1010 N1004 0.984 . S
H1011 N1004 0.984 . S
H1012 N1000 0.984 . S
H1013 N1000 0.985 . S
C1014 C1015 1.363 . S
C1014 C1020 1.379 1_455 S
C1014 N1022 1.356 . S
C1015 C1014 1.363 . S
C1015 C1021 1.363 . S
C1016 C1017 1.363 . S
C1016 C1021 1.379 1_655 S
C1016 N1023 1.356 . S
C1017 C1016 1.363 . S
C1017 C1020 1.363 . S
N1018 C1020 1.356 . S
N1018 H1030 0.984 . S
N1018 H1031 0.985 . S
N1019 C1021 1.356 . S
N1019 H1024 0.984 . S
N1019 H1025 0.985 . S
C1020 C1014 1.379 1_655 S
C1020 C1017 1.363 . S
C1020 N1018 1.356 . S
C1021 C1015 1.363 . S
C1021 C1016 1.379 1_455 S
C1021 N1019 1.356 . S
N1022 C1014 1.356 . S
N1022 H1028 0.984 1_455 S
N1022 H1029 0.984 . S
N1023 C1016 1.356 . S
N1023 H1026 0.984 . S
N1023 H1027 0.985 1_655 S
H1024 N1019 0.984 . S
H1025 N1019 0.985 . S
H1026 N1023 0.984 . S
H1027 N1023 0.985 1_455 S
H1028 N1022 0.984 1_655 S
H1029 N1022 0.984 . S
H1030 N1018 0.984 . S
H1031 N1018 0.985 . S
C1032 C1033 1.363 . S
C1032 C1038 1.379 . S
C1032 N1040 1.356 . S
C1033 C1032 1.363 . S
C1033 C1039 1.363 1_556 S
C1034 C1035 1.363 . S
C1034 C1039 1.379 . S
C1034 N1041 1.356 . S
C1035 C1034 1.363 . S
C1035 C1038 1.363 1_554 S
N1036 C1038 1.356 . S
N1036 H1048 0.984 . S
N1036 H1049 0.985 . S
N1037 C1039 1.356 . S
N1037 H1042 0.984 1_455 S
N1037 H1043 0.985 1_455 S
C1038 C1032 1.379 . S
C1038 C1035 1.363 1_556 S
C1038 N1036 1.356 . S
C1039 C1033 1.363 1_554 S
C1039 C1034 1.379 . S
C1039 N1037 1.356 . S
N1040 C1032 1.356 . S
N1040 H1046 0.984 . S
N1040 H1047 0.984 . S
N1041 C1034 1.356 . S
N1041 H1044 0.984 . S
N1041 H1045 0.985 . S
H1042 N1037 0.984 1_655 S
H1043 N1037 0.985 1_655 S
H1044 N1041 0.984 . S
H1045 N1041 0.985 . S
H1046 N1040 0.984 . S
H1047 N1040 0.984 . S
H1048 N1036 0.984 . S
H1049 N1036 0.985 . S
C1050 C1051 1.363 . S
C1050 C1056 1.379 . S
C1050 N1058 1.356 . S
C1051 C1050 1.363 . S
C1051 C1057 1.363 . S
C1052 C1053 1.363 . S
C1052 C1057 1.379 . S
C1052 N1059 1.356 . S
C1053 C1052 1.363 . S
C1053 C1056 1.363 . S
N1054 C1056 1.356 . S
N1054 H1066 0.984 1_655 S
N1054 H1067 0.985 1_655 S
N1055 C1057 1.356 . S
N1055 H1060 0.984 . S
N1055 H1061 0.985 . S
C1056 C1050 1.379 . S
C1056 C1053 1.363 . S
C1056 N1054 1.356 . S
C1057 C1051 1.363 . S
C1057 C1052 1.379 . S
C1057 N1055 1.356 . S
N1058 C1050 1.356 . S
N1058 H1064 0.984 . S
N1058 H1065 0.984 1_545 S
N1059 C1052 1.356 . S
N1059 H1062 0.984 . S
N1059 H1063 0.985 . S
H1060 N1055 0.984 . S
H1061 N1055 0.985 . S
H1062 N1059 0.984 . S
H1063 N1059 0.985 . S
H1064 N1058 0.984 . S
H1065 N1058 0.984 1_565 S
H1066 N1054 0.984 1_455 S
H1067 N1054 0.985 1_455 S
C1068 C1069 1.363 . S
C1068 C1074 1.379 . S
C1068 N1076 1.356 . S
C1069 C1068 1.363 . S
C1069 C1075 1.363 . S
C1070 C1071 1.363 . S
C1070 C1075 1.379 . S
C1070 N1077 1.356 . S
C1071 C1070 1.363 . S
C1071 C1074 1.363 . S
N1072 C1074 1.356 . S
N1072 H1084 0.984 1_565 S
N1072 H1085 0.985 1_565 S
N1073 C1075 1.356 . S
N1073 H1078 0.984 . S
N1073 H1079 0.985 . S
C1074 C1068 1.379 . S
C1074 C1071 1.363 . S
C1074 N1072 1.356 . S
C1075 C1069 1.363 . S
C1075 C1070 1.379 . S
C1075 N1073 1.356 . S
N1076 C1068 1.356 . S
N1076 H1082 0.984 . S
N1076 H1083 0.984 . S
N1077 C1070 1.356 . S
N1077 H1080 0.984 . S
N1077 H1081 0.985 . S
H1078 N1073 0.984 . S
H1079 N1073 0.985 . S
H1080 N1077 0.984 . S
H1081 N1077 0.985 . S
H1082 N1076 0.984 . S
H1083 N1076 0.984 . S
H1084 N1072 0.984 1_545 S
H1085 N1072 0.985 1_545 S
C1086 C1087 1.363 1_556 S
C1086 C1092 1.379 . S
C1086 N1094 1.356 . S
C1087 C1086 1.363 1_554 S
C1087 C1093 1.363 . S
C1088 C1089 1.363 1_554 S
C1088 C1093 1.379 . S
C1088 N1095 1.356 . S
C1089 C1088 1.363 1_556 S
C1089 C1092 1.363 . S
N1090 C1092 1.356 . S
N1090 H1102 0.984 . S
N1090 H1103 0.985 . S
N1091 C1093 1.356 . S
N1091 H1096 0.984 . S
N1091 H1097 0.985 . S
C1092 C1086 1.379 . S
C1092 C1089 1.363 . S
C1092 N1090 1.356 . S
C1093 C1087 1.363 . S
C1093 C1088 1.379 . S
C1093 N1091 1.356 . S
N1094 C1086 1.356 . S
N1094 H1100 0.984 . S
N1094 H1101 0.984 . S
N1095 C1088 1.356 . S
N1095 H1098 0.984 . S
N1095 H1099 0.985 . S
H1096 N1091 0.984 . S
H1097 N1091 0.985 . S
H1098 N1095 0.984 . S
H1099 N1095 0.985 . S
H1100 N1094 0.984 . S
H1101 N1094 0.984 . S
H1102 N1090 0.984 . S
H1103 N1090 0.985 . S
C1104 C1105 1.363 . S
C1104 C1110 1.379 . S
C1104 N1112 1.356 . S
C1105 C1104 1.363 . S
C1105 C1111 1.363 . S
C1106 C1107 1.363 . S
C1106 C1111 1.379 . S
C1106 N1113 1.356 . S
C1107 C1106 1.363 . S
C1107 C1110 1.363 . S
N1108 C1110 1.356 . S
N1108 H1120 0.984 . S
N1108 H1121 0.985 . S
N1109 C1111 1.356 . S
N1109 H1114 0.984 . S
N1109 H1115 0.985 . S
C1110 C1104 1.379 . S
C1110 C1107 1.363 . S
C1110 N1108 1.356 . S
C1111 C1105 1.363 . S
C1111 C1106 1.379 . S
C1111 N1109 1.356 . S
N1112 C1104 1.356 . S
N1112 H1118 0.984 1_455 S
N1112 H1119 0.984 1_455 S
N1113 C1106 1.356 . S
N1113 H1116 0.984 . S
N1113 H1117 0.985 . S
H1114 N1109 0.984 . S
H1115 N1109 0.985 . S
H1116 N1113 0.984 . S
H1117 N1113 0.985 . S
H1118 N1112 0.984 1_655 S
H1119 N1112 0.984 1_655 S
H1120 N1108 0.984 . S
H1121 N1108 0.985 . S
C1122 C1123 1.363 . S
C1122 C1128 1.379 . S
C1122 N1130 1.356 . S
C1123 C1122 1.363 . S
C1123 C1129 1.363 . S
C1124 C1125 1.363 . S
C1124 C1129 1.379 . S
C1124 N1131 1.356 . S
C1125 C1124 1.363 . S
C1125 C1128 1.363 . S
N1126 C1128 1.356 . S
N1126 H1138 0.984 . S
N1126 H1139 0.985 . S
N1127 C1129 1.356 . S
N1127 H1132 0.984 . S
N1127 H1133 0.985 . S
C1128 C1122 1.379 . S
C1128 C1125 1.363 . S
C1128 N1126 1.356 . S
C1129 C1123 1.363 . S
C1129 C1124 1.379 . S
C1129 N1127 1.356 . S
N1130 C1122 1.356 . S
N1130 H1136 0.984 . S
N1130 H1137 0.984 . S
N1131 C1124 1.356 . S
N1131 H1134 0.984 . S
N1131 H1135 0.985 . S
H1132 N1127 0.984 . S
H1133 N1127 0.985 . S
H1134 N1131 0.984 . S
H1135 N1131 0.985 . S
H1136 N1130 0.984 . S
H1137 N1130 0.984 . S
H1138 N1126 0.984 . S
H1139 N1126 0.985 . S
C709 C180 1.389 . S
C711 C3 1.389 . S
C727 C62 1.389 . S
C729 C239 1.389 . S
C745 C298 1.389 . S
C747 C121 1.389 . S
C763 C357 1.389 . S
C765 C534 1.389 . S
C781 C593 1.389 . S
C783 C416 1.389 . S
C799 C475 1.389 . S
C801 C652 1.389 . S
C817 C477 1.627 . S
C819 C5 1.627 . S
C835 C64 1.627 . S
C837 C536 1.627 . S
C853 C123 1.627 . S
C855 C595 1.627 . S
C871 C182 1.627 . S
C873 C654 1.627 . S
C889 C359 1.627 . S
C891 C241 1.627 . S
C907 C418 1.627 . S
C909 C300 1.627 . S
C925 C446 1.585 . S
C927 C33 1.585 . S
C943 C92 1.585 . S
C945 C505 1.585 . S
C961 C151 1.585 . S
C963 C564 1.585 . S
C979 C210 1.585 . S
C981 C623 1.585 . S
C997 C682 1.585 . S
C999 C269 1.585 . S
C1015 C328 1.585 . S
C1017 C387 1.585 . S
C1033 C642 1.513 . S
C1035 C52 1.513 . S
C1051 C701 1.513 . S
C1053 C111 1.513 . S
C1069 C406 1.513 . S
C1071 C170 1.513 . S
C1087 C229 1.513 . S
C1089 C465 1.513 . S
C1105 C288 1.513 . S
C1107 C524 1.513 . S
C1123 C347 1.513 . S
C1125 C583 1.513 . S
