# Generated by pormake.
# Topology rob, (6)-cn, num edge types: 1
# Building blocks:
#     Node 0, Type 0, BuildingBlock: FUNLAD_clean_sbu_0, # of connection points: 6
#     Node 1, Type 0, BuildingBlock: FUNLAD_clean_sbu_0, # of connection points: 6
#     Node 2, Type 0, BuildingBlock: FUNLAD_clean_sbu_0, # of connection points: 6
#     Node 3, Type 0, BuildingBlock: FUNLAD_clean_sbu_0, # of connection points: 6
#     Edge 4, Type (0, 0), BuildingBlock: ZUJKAS_clean_linker_0, # of connection points: 2
#     Edge 5, Type (0, 0), BuildingBlock: ZUJKAS_clean_linker_0, # of connection points: 2
#     Edge 6, Type (0, 0), BuildingBlock: ZUJKAS_clean_linker_0, # of connection points: 2
#     Edge 7, Type (0, 0), BuildingBlock: ZUJKAS_clean_linker_0, # of connection points: 2
#     Edge 8, Type (0, 0), BuildingBlock: ZUJKAS_clean_linker_0, # of connection points: 2
#     Edge 9, Type (0, 0), BuildingBlock: ZUJKAS_clean_linker_0, # of connection points: 2
#     Edge 10, Type (0, 0), BuildingBlock: ZUJKAS_clean_linker_0, # of connection points: 2
#     Edge 11, Type (0, 0), BuildingBlock: ZUJKAS_clean_linker_0, # of connection points: 2
#     Edge 12, Type (0, 0), BuildingBlock: ZUJKAS_clean_linker_0, # of connection points: 2
#     Edge 13, Type (0, 0), BuildingBlock: ZUJKAS_clean_linker_0, # of connection points: 2
#     Edge 14, Type (0, 0), BuildingBlock: ZUJKAS_clean_linker_0, # of connection points: 2
#     Edge 15, Type (0, 0), BuildingBlock: ZUJKAS_clean_linker_0, # of connection points: 2
# Relax obj value: 0.163
# Max RMSD: 0.167
# Mean RMSD: 0.167
data_MOF--net-rob--node1-FUNLAD_clean_sbu_0--edge1-ZUJKAS_clean_linker_0
_symmetry_space_group_name_H-M    P1
_symmetry_Int_Tables_number       1
_symmetry_cell_setting            triclinic
loop_
_symmetry_equiv_pos_as_xyz
'x, y, z'
_cell_length_a     20.503077
_cell_length_b     48.345695
_cell_length_c     30.222005
_cell_angle_alpha  92.226878
_cell_angle_beta   89.988964
_cell_angle_gamma 90.00478
loop_
_atom_site_label
_atom_site_type_symbol
_atom_site_fract_x
_atom_site_fract_y
_atom_site_fract_z
_atom_type_partial_charge
C0 C 0.28486 0.2477 0.90526 0.0
N1 N 0.30693 0.32078 0.98366 0.0
C2 C 0.36706 0.32427 0.96564 0.0
C3 C 0.39495 0.35062 0.96477 0.0
C4 C 0.36068 0.3736 0.98269 0.0
C5 C 0.29818 0.36942 0.00028 0.0
C6 C 0.27216 0.34274 0.00045 0.0
Zn7 Zn 0.26942 0.28179 0.98839 0.0
C8 C 0.1315 0.27816 0.96154 0.0
N9 N 0.19354 0.20002 -0.00035 0.0
C10 C 0.22797 0.1779 0.98305 0.0
C11 C 0.13339 0.19676 0.01774 0.0
C12 C 0.10513 0.17051 0.01894 0.0
C13 C 0.13904 0.14735 0.00132 0.0
C14 C 0.20155 0.15129 0.98356 0.0
Zn15 Zn 0.23125 0.23897 -0.00518 0.0
O16 O 0.2953 0.27181 0.92207 0.0
C17 C 0.36926 0.2426 0.0216 0.0
O18 O 0.25936 0.2294 0.92883 0.0
H19 H 0.10687 0.21462 0.03079 0.0
H20 H 0.39397 0.30652 0.95262 0.0
H21 H 0.2756 0.18095 0.96866 0.0
O22 O 0.36051 0.26748 0.01082 0.0
O23 O 0.32242 0.22547 0.01787 0.0
H24 H 0.22442 0.33953 0.01458 0.0
O25 O 0.20383 0.24923 0.06095 0.0
O26 O 0.24265 0.29119 0.05449 0.0
O27 O 0.14057 0.25313 0.97139 0.0
O28 O 0.17791 0.29543 0.96628 0.0
C29 C 0.21552 0.27321 0.07786 0.0
H30 H 0.44352 0.35283 0.95129 0.0
H31 H 0.26961 0.38658 0.01384 0.0
H32 H 0.05722 0.1684 0.03352 0.0
H33 H 0.22915 0.13411 0.96912 0.0
C34 C 0.78342 0.74875 0.90515 0.0
N35 N 0.80143 0.82178 0.98401 0.0
C36 C 0.86124 0.82553 0.96569 0.0
C37 C 0.88849 0.85197 0.96473 0.0
C38 C 0.85392 0.87482 0.98282 0.0
C39 C 0.79172 0.87038 0.00075 0.0
C40 C 0.76631 0.84358 0.00102 0.0
Zn41 Zn 0.76566 0.78249 0.98854 0.0
C42 C 0.6281 0.77763 0.96142 0.0
N43 N 0.69448 0.69988 -0.00113 0.0
C44 C 0.73055 0.67826 0.98225 0.0
C45 C 0.63443 0.69582 0.01665 0.0
C46 C 0.60799 0.66921 0.0175 0.0
C47 C 0.64363 0.64654 -0.0002 0.0
C48 C 0.70598 0.65133 0.98238 0.0
Zn49 Zn 0.72988 0.73926 -0.00554 0.0
O50 O 0.79281 0.77285 0.92229 0.0
C51 C 0.86748 0.74425 0.02171 0.0
O52 O 0.75828 0.7302 0.9284 0.0
H53 H 0.60647 0.71331 0.02953 0.0
H54 H 0.88832 0.80793 0.95231 0.0
H55 H 0.77822 0.68193 0.96832 0.0
O56 O 0.85711 0.7691 0.01137 0.0
O57 O 0.82191 0.72655 0.01738 0.0
H58 H 0.71896 0.84013 0.01558 0.0
O59 O 0.70202 0.74902 0.06072 0.0
O60 O 0.73781 0.79149 0.05457 0.0
O61 O 0.63839 0.75267 0.97119 0.0
O62 O 0.67368 0.7953 0.96616 0.0
C63 C 0.71198 0.7731 0.0778 0.0
H64 H 0.93617 0.85448 0.94999 0.0
H65 H 0.76364 0.88731 0.01552 0.0
H66 H 0.55946 0.66653 0.03081 0.0
H67 H 0.73555 0.63444 0.96898 0.0
C68 C 0.28053 0.77721 0.57916 0.0
N69 N 0.30208 0.70397 0.50102 0.0
C70 C 0.36203 0.70017 0.51912 0.0
C71 C 0.38909 0.67367 0.5201 0.0
C72 C 0.35415 0.65084 0.50227 0.0
C73 C 0.29182 0.65536 0.48464 0.0
C74 C 0.26667 0.68218 0.4843 0.0
Zn75 Zn 0.26596 0.74318 0.49593 0.0
C76 C 0.12747 0.74754 0.52131 0.0
N77 N 0.19298 0.82541 0.48382 0.0
C78 C 0.22777 0.84734 0.50073 0.0
C79 C 0.13336 0.82902 0.46513 0.0
C80 C 0.10604 0.85543 0.46363 0.0
C81 C 0.14035 0.87841 0.48153 0.0
C82 C 0.20231 0.87411 0.4999 0.0
Zn83 Zn 0.22927 0.78622 0.48905 0.0
O84 O 0.29113 0.75311 0.56236 0.0
C85 C 0.36775 0.78179 0.46352 0.0
O86 O 0.25564 0.79557 0.55544 0.0
H87 H 0.10654 0.81131 0.45183 0.0
H88 H 0.38947 0.71779 0.53208 0.0
H89 H 0.27495 0.84402 0.51562 0.0
O90 O 0.35785 0.75692 0.47398 0.0
O91 O 0.32157 0.79925 0.46723 0.0
H92 H 0.2191 0.68563 0.47008 0.0
O93 O 0.2038 0.77618 0.42249 0.0
O94 O 0.23988 0.73384 0.42971 0.0
O95 O 0.13729 0.77248 0.5112 0.0
O96 O 0.17372 0.73014 0.51746 0.0
C97 C 0.21464 0.75205 0.40588 0.0
H98 H 0.43758 0.67123 0.5336 0.0
H99 H 0.26273 0.63834 0.47115 0.0
H100 H 0.05853 0.85782 0.4486 0.0
H101 H 0.23017 0.89114 0.51457 0.0
C102 C 0.78545 0.27791 0.57792 0.0
N103 N 0.80643 0.20467 0.49986 0.0
C104 C 0.86626 0.20123 0.51833 0.0
C105 C 0.89401 0.17489 0.51973 0.0
C106 C 0.85992 0.15182 0.50195 0.0
C107 C 0.79776 0.15596 0.48377 0.0
C108 C 0.77186 0.18265 0.48304 0.0
Zn109 Zn 0.7694 0.24375 0.49491 0.0
C110 C 0.63151 0.2478 0.52187 0.0
N111 N 0.69509 0.32583 0.48366 0.0
C112 C 0.73088 0.34767 0.49979 0.0
C113 C 0.63463 0.32956 0.46632 0.0
C114 C 0.60746 0.35605 0.46548 0.0
C115 C 0.64281 0.37893 0.48272 0.0
C116 C 0.70561 0.37448 0.49962 0.0
Zn117 Zn 0.73178 0.28667 0.4884 0.0
O118 O 0.79538 0.25373 0.56123 0.0
C119 C 0.86981 0.28257 0.46152 0.0
O120 O 0.7603 0.29624 0.55427 0.0
H121 H 0.60691 0.3119 0.45382 0.0
H122 H 0.8929 0.21901 0.53155 0.0
H123 H 0.77886 0.34427 0.5134 0.0
O124 O 0.86075 0.25774 0.47245 0.0
O125 O 0.82316 0.29981 0.46513 0.0
H126 H 0.72451 0.18584 0.46834 0.0
O127 O 0.70387 0.27641 0.42238 0.0
O128 O 0.74246 0.2344 0.42882 0.0
O129 O 0.64093 0.27282 0.51207 0.0
O130 O 0.67764 0.2304 0.51703 0.0
C131 C 0.71532 0.2524 0.40548 0.0
H132 H 0.94167 0.17264 0.53461 0.0
H133 H 0.77005 0.13885 0.46919 0.0
H134 H 0.55863 0.35845 0.45255 0.0
H135 H 0.73499 0.39154 0.51264 0.0
H136 H 0.65041 0.60715 0.93239 0.0
H137 H 0.60248 0.5608 0.92981 0.0
H138 H 0.52477 0.57538 0.06123 0.0
H139 H 0.57289 0.62175 0.06426 0.0
H140 H 0.62336 0.51692 0.98623 0.0
H141 H 0.36437 0.55057 0.98895 0.0
H142 H 0.43061 0.57381 0.97739 0.0
H143 H 0.41305 0.56512 0.03344 0.0
C144 C 0.62357 0.60044 0.96092 0.0
C145 C 0.61533 0.6182 -0.00149 0.0
C146 C 0.59595 0.574 0.95927 0.0
C147 C 0.55926 0.56483 -0.00497 0.0
C148 C 0.55168 0.5823 0.03287 0.0
H149 H 0.35621 0.41292 0.05025 0.0
H150 H 0.40552 0.45899 0.05265 0.0
C151 C 0.57923 0.60878 0.03455 0.0
C152 C 0.52976 0.53683 -0.00708 0.0
H153 H 0.38422 0.5026 -0.00423 0.0
C154 C 0.57107 0.51376 0.98811 0.0
C155 C 0.46154 0.53282 -0.00461 0.0
C156 C 0.41464 0.55687 -0.00132 0.0
C157 C 0.54603 0.4867 0.98656 0.0
C158 C 0.47782 0.48269 0.98913 0.0
C159 C 0.43651 0.50577 -0.00614 0.0
C160 C 0.44822 0.45471 0.98729 0.0
C161 C 0.59287 0.46264 0.9832 0.0
C162 C 0.45521 0.43716 0.94949 0.0
C163 C 0.42682 0.41084 0.94791 0.0
C164 C 0.39048 0.40167 0.98401 0.0
C165 C 0.38314 0.41945 0.02165 0.0
C166 C 0.41157 0.44573 0.0232 0.0
H167 H 0.64326 0.46894 -0.00736 0.0
H168 H 0.5771 0.44576 0.0047 0.0
H169 H 0.59405 0.45428 0.94849 0.0
H170 H 0.48213 0.44393 0.92103 0.0
H171 H 0.43254 0.39784 0.91817 0.0
H172 H 0.34817 0.61139 0.43494 0.0
H173 H 0.39597 0.56505 0.43267 0.0
H174 H 0.47609 0.5804 0.56323 0.0
H175 H 0.42659 0.62649 0.56644 0.0
H176 H 0.52712 0.55065 0.43922 0.0
H177 H 0.38229 0.50633 0.57463 0.0
H178 H 0.35969 0.53804 0.54898 0.0
H179 H 0.42341 0.53809 0.58983 0.0
C180 C 0.37505 0.60478 0.4635 0.0
C181 C 0.3831 0.6226 0.50103 0.0
C182 C 0.40276 0.57836 0.46198 0.0
C183 C 0.43879 0.56915 0.498 0.0
C184 C 0.44745 0.58692 0.53538 0.0
H185 H 0.64994 0.41848 0.54982 0.0
H186 H 0.60219 0.46486 0.55223 0.0
C187 C 0.41973 0.61336 0.53695 0.0
C188 C 0.46868 0.54121 0.49587 0.0
H189 H 0.47014 0.47914 0.54608 0.0
C190 C 0.5145 0.53496 0.46245 0.0
C191 C 0.45213 0.52082 0.52627 0.0
C192 C 0.40127 0.52598 0.56174 0.0
C193 C 0.54509 0.50898 0.45903 0.0
C194 C 0.52854 0.48859 0.48942 0.0
C195 C 0.48275 0.49484 0.52286 0.0
C196 C 0.55835 0.46064 0.48723 0.0
C197 C 0.59587 0.50378 0.42352 0.0
C198 C 0.54908 0.44282 0.44999 0.0
C199 C 0.57669 0.41635 0.44836 0.0
C200 C 0.61388 0.40716 0.48406 0.0
C201 C 0.62257 0.42506 0.52144 0.0
C202 C 0.59492 0.45149 0.52304 0.0
H203 H 0.61466 0.52341 0.41044 0.0
H204 H 0.63757 0.49182 0.43633 0.0
H205 H 0.57374 0.49155 0.39556 0.0
H206 H 0.52006 0.4493 0.42231 0.0
H207 H 0.56934 0.40316 0.41899 0.0
H208 H 0.19742 0.0978 0.01793 0.0
H209 H 0.1482 0.05165 0.01378 0.0
H210 H 0.96298 0.08743 0.98006 0.0
H211 H 0.01216 0.13352 0.98267 0.0
H212 H 0.04298 0.03131 0.06201 0.0
H213 H 0.99007 0.02788 0.88168 0.0
H214 H 0.04441 0.05309 0.90744 0.0
H215 H 0.95757 0.05762 0.91154 0.0
C216 C 0.14637 0.09583 0.00917 0.0
C217 C 0.10883 0.11936 0.0004 0.0
C218 C 0.11825 0.06947 0.00708 0.0
C219 C 0.05223 0.0661 -0.00406 0.0
C220 C 0.01432 0.08953 0.98793 0.0
H221 H 0.79392 0.92415 0.96697 0.0
H222 H 0.84189 0.97056 0.97144 0.0
C223 C 0.04236 0.1159 0.98998 0.0
C224 C 0.02282 0.03808 -0.00663 0.0
H225 H 0.94688 0.99141 0.92302 0.0
C226 C 0.02219 0.02251 0.0316 0.0
C227 C 0.99566 0.02672 0.95364 0.0
C228 C 0.99734 0.04205 0.9111 0.0
C229 C 0.99416 0.99602 0.03138 0.0
C230 C 0.96709 0.98464 0.99164 0.0
C231 C 0.96761 1.00022 0.95343 0.0
C232 C 0.93833 0.95651 0.98897 0.0
C233 C 0.99258 0.98066 0.0739 0.0
C234 C 0.97692 0.93324 -0.00328 0.0
C235 C 0.94962 0.90674 -0.00555 0.0
C236 C 0.88322 0.90298 0.98409 0.0
C237 C 0.84495 0.92635 0.97565 0.0
C238 C 0.87234 0.95285 0.97793 0.0
H239 H -0.00038 0.99483 0.10334 0.0
H240 H 0.94564 0.96951 0.07749 0.0
H241 H 0.03254 0.96517 0.07347 0.0
H242 H 0.02823 0.93557 0.00452 0.0
H243 H 0.98036 0.88924 0.00152 0.0
H244 H 0.80025 0.10249 0.51834 0.0
H245 H 0.84877 0.0562 0.5152 0.0
H246 H 0.03465 0.09119 0.48095 0.0
H247 H 0.98654 0.13748 0.48362 0.0
H248 H 0.91013 0.02893 0.44268 0.0
H249 H 0.07962 0.04273 0.58512 0.0
H250 H 0.01284 0.06614 0.57583 0.0
H251 H 0.08686 0.06862 0.54436 0.0
C252 C 0.85143 0.10034 0.51003 0.0
C253 C 0.88957 0.12373 0.50141 0.0
C254 C 0.87911 0.07389 0.50845 0.0
C255 C 0.94548 0.07032 0.49846 0.0
C256 C 0.98367 0.09355 0.4897 0.0
H257 H 0.20075 0.92763 0.46537 0.0
H258 H 0.15276 0.97403 0.46839 0.0
C259 C 0.95607 0.12001 0.49129 0.0
C260 C 0.97425 0.04217 0.49578 0.0
H261 H 0.0914 1.00155 0.5405 0.0
C262 C 0.94955 0.02287 0.46419 0.0
C263 C 0.02581 0.0344 0.5238 0.0
C264 C 0.05258 0.05394 0.55948 0.0
C265 C 0.97575 0.99609 0.45936 0.0
C266 C 0.02726 0.9883 0.48741 0.0
C267 C 0.05201 1.00762 0.51898 0.0
C268 C 0.05578 0.96011 0.48487 0.0
C269 C 0.94901 0.97657 0.42365 0.0
C270 C 0.01728 0.93695 0.49355 0.0
C271 C 0.04457 0.91044 0.49201 0.0
C272 C 0.11107 0.90658 0.48205 0.0
C273 C 0.14955 0.92989 0.47354 0.0
C274 C 0.12217 0.9564 0.47507 0.0
H275 H 0.92228 0.98782 0.3979 0.0
H276 H 0.9887 0.96427 0.40744 0.0
H277 H 0.91442 0.96199 0.4387 0.0
H278 H 0.96628 0.93942 0.50218 0.0
H279 H 0.01384 0.89303 0.4996 0.0
H280 H 0.66549 0.28688 0.34456 0.0
H281 H 0.63076 0.27463 0.26891 0.0
H282 H 0.68867 0.19 0.28584 0.0
H283 H 0.724 0.20196 0.36165 0.0
H284 H 0.71375 0.23868 0.1934 0.0
H285 H 0.47827 0.19761 0.25634 0.0
H286 H 0.52189 0.22429 0.28755 0.0
H287 H 0.55424 0.18987 0.28331 0.0
C288 C 0.67138 0.2657 0.33216 0.0
C289 C 0.69701 0.24535 0.35918 0.0
C290 C 0.65193 0.25881 0.2889 0.0
C291 C 0.65755 0.2315 0.2721 0.0
C292 C 0.68444 0.21122 0.29842 0.0
H293 H 0.40489 0.19143 0.04892 0.0
H294 H 0.49177 0.18146 0.10134 0.0
C295 C 0.70424 0.2181 0.34168 0.0
C296 C 0.62978 0.22408 0.22835 0.0
H297 H 0.48612 0.20459 0.18038 0.0
C298 C 0.66447 0.23068 0.19022 0.0
C299 C 0.56607 0.21326 0.22461 0.0
C300 C 0.5275 0.20577 0.26497 0.0
C301 C 0.63532 0.22813 0.14823 0.0
C302 C 0.56946 0.21955 0.14484 0.0
C303 C 0.53662 0.21114 0.18285 0.0
C304 C 0.53008 0.22321 0.1044 0.0
C305 C 0.67484 0.23534 0.10821 0.0
C306 C 0.52457 0.24968 0.08723 0.0
C307 C 0.47542 0.25537 0.05706 0.0
C308 C 0.43003 0.23482 0.04417 0.0
C309 C 0.43879 0.20776 0.05855 0.0
C310 C 0.48849 0.20201 0.08844 0.0
H311 H 0.72703 0.22998 0.11282 0.0
H312 H 0.65664 0.22444 0.07763 0.0
H313 H 0.67212 0.25799 0.1038 0.0
H314 H 0.55486 0.26658 0.09974 0.0
H315 H 0.47013 0.27642 0.04654 0.0
H316 H 0.66643 0.73768 0.13887 0.0
H317 H 0.63213 0.74917 0.21489 0.0
H318 H 0.68183 0.83475 0.19801 0.0
H319 H 0.71666 0.82355 0.12185 0.0
H320 H 0.71087 0.78397 0.28995 0.0
H321 H 0.47547 0.82638 0.22922 0.0
H322 H 0.52099 0.8011 0.19632 0.0
H323 H 0.55113 0.83578 0.20335 0.0
C324 C 0.67054 0.75892 0.15135 0.0
C325 C 0.69372 0.77975 0.12425 0.0
C326 C 0.65137 0.76538 0.19482 0.0
C327 C 0.65476 0.79274 0.21176 0.0
C328 C 0.67923 0.8135 0.18532 0.0
H329 H 0.40599 0.83283 0.4371 0.0
H330 H 0.49282 0.84231 0.38436 0.0
C331 C 0.69877 0.80706 0.14186 0.0
C332 C 0.62728 0.79963 0.25582 0.0
H333 H 0.48491 0.81972 0.30507 0.0
C334 C 0.66194 0.79229 0.29358 0.0
C335 C 0.56399 0.81083 0.26018 0.0
C336 C 0.52526 0.81901 0.22028 0.0
C337 C 0.63331 0.79462 0.33576 0.0
C338 C 0.56791 0.80375 0.33974 0.0
C339 C 0.53507 0.81277 0.30213 0.0
C340 C 0.52887 0.8002 0.38038 0.0
C341 C 0.67288 0.78668 0.37535 0.0
C342 C 0.52221 0.77369 0.3972 0.0
C343 C 0.47311 0.76828 0.42758 0.0
C344 C 0.42891 0.78917 0.44103 0.0
C345 C 0.43896 0.81624 0.42705 0.0
C346 C 0.48862 0.82171 0.39696 0.0
H347 H 0.7253 0.79158 0.37053 0.0
H348 H 0.65562 0.79748 0.40626 0.0
H349 H 0.66901 0.76401 0.37926 0.0
H350 H 0.55144 0.75657 0.38424 0.0
H351 H 0.46681 0.74721 0.43779 0.0
H352 H 0.53637 0.74257 0.92617 0.0
H353 H 0.45176 0.75395 0.87346 0.0
H354 H 0.49538 0.84085 0.89343 0.0
H355 H 0.58261 0.8295 0.94502 0.0
H356 H 0.34267 0.7854 0.86688 0.0
H357 H 0.54432 0.8275 0.76539 0.0
H358 H 0.55974 0.8095 0.81537 0.0
H359 H 0.53075 0.84463 0.81831 0.0
C360 C 0.52716 0.76417 0.92015 0.0
C361 C 0.56723 0.7851 0.93881 0.0
C362 C 0.47853 0.77066 0.89007 0.0
C363 C 0.46866 0.79818 0.87856 0.0
C364 C 0.50363 0.8194 0.9009 0.0
H365 H 0.28689 0.82824 0.62127 0.0
H366 H 0.31886 0.83883 0.69825 0.0
C367 C 0.55319 0.8129 0.93049 0.0
C368 C 0.42861 0.80367 0.83913 0.0
H369 H 0.44359 0.82108 0.73122 0.0
C370 C 0.36423 0.79375 0.83746 0.0
C371 C 0.45696 0.81454 0.8007 0.0
C372 C 0.52681 0.82448 0.79966 0.0
C373 C 0.32891 0.79286 0.79769 0.0
C374 C 0.35883 0.80214 0.75891 0.0
C375 C 0.42106 0.81403 0.76126 0.0
C376 C 0.33123 0.796 0.71457 0.0
C377 C 0.26099 0.78089 0.79694 0.0
C378 C 0.32824 0.76844 0.69846 0.0
C379 C 0.31115 0.76233 0.65452 0.0
C380 C 0.29653 0.78373 0.62598 0.0
C381 C 0.29793 0.81133 0.64252 0.0
C382 C 0.3158 0.81743 0.68644 0.0
H383 H 0.2382 0.78223 0.83031 0.0
H384 H 0.22938 0.79173 0.77331 0.0
H385 H 0.26347 0.75872 0.78608 0.0
H386 H 0.34143 0.75167 0.71948 0.0
H387 H 0.3102 0.74087 0.6428 0.0
H388 H 0.53827 0.28234 0.55659 0.0
H389 H 0.4547 0.27071 0.60991 0.0
H390 H 0.50236 0.18409 0.59172 0.0
H391 H 0.58854 0.19572 0.53949 0.0
H392 H 0.34723 0.23838 0.61763 0.0
H393 H 0.55182 0.19906 0.71936 0.0
H394 H 0.56587 0.21674 0.66889 0.0
H395 H 0.53874 0.18134 0.66685 0.0
C396 C 0.53017 0.26074 0.56312 0.0
C397 C 0.57109 0.24 0.54477 0.0
C398 C 0.48213 0.2541 0.59355 0.0
C399 C 0.47371 0.22662 0.60574 0.0
C400 C 0.5095 0.20551 0.58372 0.0
H401 H 0.29294 0.19659 0.86359 0.0
H402 H 0.32579 0.18592 0.78678 0.0
C403 C 0.55845 0.21218 0.55376 0.0
C404 C 0.43429 0.22113 0.64547 0.0
H405 H 0.45095 0.20472 0.75373 0.0
C406 C 0.36944 0.23047 0.64716 0.0
C407 C 0.46351 0.21085 0.68405 0.0
C408 C 0.53388 0.2016 0.68506 0.0
C409 C 0.33437 0.23134 0.68704 0.0
C410 C 0.36503 0.22262 0.72591 0.0
C411 C 0.42786 0.21133 0.72362 0.0
C412 C 0.33729 0.22876 0.77021 0.0
C413 C 0.26588 0.2427 0.68782 0.0
C414 C 0.33358 0.25634 0.78612 0.0
C415 C 0.31603 0.26249 0.82996 0.0
C416 C 0.30161 0.24112 0.85859 0.0
C417 C 0.30379 0.21348 0.84225 0.0
C418 C 0.32218 0.20734 0.79844 0.0
H419 H 0.2431 0.24119 0.65446 0.0
H420 H 0.23488 0.23156 0.71144 0.0
H421 H 0.26728 0.26488 0.69875 0.0
H422 H 0.34646 0.2731 0.76499 0.0
H423 H 0.31445 0.28397 0.84152 0.0
H424 H 0.91152 0.69282 0.0425 0.0
H425 H -0.00181 0.68284 0.09532 0.0
H426 H 0.04447 0.76987 0.1076 0.0
H427 H 0.9606 0.77981 0.05365 0.0
H428 H 0.15213 0.73858 0.11796 0.0
H429 H 0.94828 0.70077 0.22187 0.0
H430 H 0.96206 0.68172 0.1706 0.0
H431 H 0.93398 0.71695 0.17011 0.0
C432 C 0.94145 0.7097 0.05557 0.0
C433 C 0.92827 0.73718 0.04479 0.0
C434 C 0.99066 0.70398 0.08589 0.0
C435 C 0.02613 0.72573 0.10649 0.0
C436 C 0.01727 0.75278 0.09241 0.0
H437 H 0.18331 0.78776 0.34154 0.0
H438 H 0.15128 0.77611 0.26517 0.0
C439 C 0.96903 0.75845 0.06162 0.0
C440 C 0.06552 0.72147 0.14667 0.0
H441 H 0.04905 0.70742 0.25595 0.0
C442 C 0.13006 0.73124 0.14794 0.0
C443 C 0.03644 0.71199 0.18588 0.0
C444 C 0.96631 0.70245 0.1874 0.0
C445 C 0.16495 0.73323 0.18785 0.0
C446 C 0.1345 0.72514 0.22717 0.0
C447 C 0.07197 0.71353 0.22547 0.0
C448 C 0.16243 0.7319 0.27119 0.0
C449 C 0.23305 0.745 0.18813 0.0
C450 C 0.17877 0.71083 0.29972 0.0
C451 C 0.19714 0.71741 0.34337 0.0
C452 C 0.19817 0.74515 0.35926 0.0
C453 C 0.18265 0.76621 0.33031 0.0
C454 C 0.16506 0.75962 0.28658 0.0
H455 H 0.25562 0.74343 0.1547 0.0
H456 H 0.23103 0.76721 0.19881 0.0
H457 H 0.2646 0.73417 0.21181 0.0
H458 H 0.17602 0.68931 0.28846 0.0
H459 H 0.20884 0.70073 0.36494 0.0
H460 H 0.96961 0.24841 0.43581 0.0
H461 H 0.05476 0.25824 0.38289 0.0
H462 H 0.99426 0.34375 0.38312 0.0
H463 H 0.9069 0.33379 0.4352 0.0
H464 H 0.98841 0.3215 0.30369 0.0
H465 H 0.22805 0.29389 0.37077 0.0
H466 H 0.17226 0.26608 0.37904 0.0
H467 H 0.15773 0.29948 0.40602 0.0
C468 C 0.97556 0.26952 0.42574 0.0
C469 C 0.93076 0.29021 0.43904 0.0
C470 C 0.02496 0.27521 0.39574 0.0
C471 C 0.03134 0.3018 0.37917 0.0
C472 C 0.99032 0.3231 0.39554 0.0
H473 H 0.22388 0.32369 0.12158 0.0
H474 H 0.18921 0.33558 0.19756 0.0
C475 C 0.94034 0.31735 0.42524 0.0
C476 C 0.07102 0.30561 0.3389 0.0
H477 H 0.21463 0.28584 0.29002 0.0
C478 C 0.03865 0.3146 0.30109 0.0
C479 C 0.13655 0.29659 0.33535 0.0
C480 C 0.17568 0.28877 0.37521 0.0
C481 C 0.06811 0.31261 0.25932 0.0
C482 C 0.13138 0.30136 0.25537 0.0
C483 C 0.16569 0.29418 0.29335 0.0
C484 C 0.15889 0.294 0.21151 0.0
C485 C 0.02989 0.32071 0.21914 0.0
C486 C 0.15355 0.26666 0.19476 0.0
C487 C 0.1726 0.25981 0.15141 0.0
C488 C 0.19759 0.28024 0.12424 0.0
C489 C 0.2046 0.30751 0.14167 0.0
C490 C 0.18516 0.31435 0.18502 0.0
H491 H 0.98061 0.32876 0.22788 0.0
H492 H 0.05682 0.33689 0.20155 0.0
H493 H 0.02445 0.30252 0.19584 0.0
H494 H 0.13287 0.25079 0.21487 0.0
H495 H 0.16694 0.23862 0.13906 0.0
H496 H 0.81455 0.24172 0.6419 0.0
H497 H 0.84675 0.25273 0.71836 0.0
H498 H 0.82745 0.33988 0.69594 0.0
H499 H 0.79442 0.32909 0.61921 0.0
H500 H 0.95246 0.32068 0.72909 0.0
H501 H 0.74353 0.28543 0.82864 0.0
H502 H 0.76728 0.26156 0.78446 0.0
H503 H 0.73562 0.29496 0.77159 0.0
C504 C 0.81648 0.26323 0.65331 0.0
C505 C 0.80237 0.28456 0.62453 0.0
C506 C 0.83414 0.26946 0.69711 0.0
C507 C 0.83828 0.29707 0.71281 0.0
C508 C 0.82351 0.31844 0.68443 0.0
H509 H 0.08961 0.33031 0.94332 0.0
H510 H 0.00374 0.34198 0.89091 0.0
C511 C 0.80502 0.31223 0.64067 0.0
C512 C 0.86605 0.30327 0.75707 0.0
H513 H 0.84751 0.28815 0.86556 0.0
C514 C 0.92913 0.31432 0.75928 0.0
C515 C 0.83506 0.29486 0.79602 0.0
C516 C 0.76634 0.28376 0.79529 0.0
C517 C 0.96464 0.31486 0.79889 0.0
C518 C 0.93505 0.30492 0.8376 0.0
C519 C 0.87 0.29582 0.83594 0.0
C520 C 0.97419 0.2995 0.87746 0.0
C521 C 0.03522 0.32382 0.79783 0.0
C522 C 0.98198 0.27207 0.89004 0.0
C523 C 0.02983 0.26541 0.92058 0.0
C524 C 0.0712 0.28608 0.93864 0.0
C525 C 0.05915 0.31389 0.92929 0.0
C526 C 0.01039 0.32058 0.89922 0.0
H527 H 0.05335 0.32608 0.7635 0.0
H528 H 0.0405 0.34415 0.81576 0.0
H529 H 0.0668 0.30864 0.81426 0.0
H530 H 0.95421 0.25549 0.8739 0.0
H531 H 0.03745 0.24382 0.92739 0.0
H532 H 0.08709 0.69582 0.5428 0.0
H533 H -0.00058 0.68494 0.59411 0.0
H534 H 0.94479 0.77119 0.60292 0.0
H535 H 0.03026 0.78199 0.55072 0.0
H536 H 0.00692 0.70395 0.67529 0.0
H537 H 0.7692 0.73725 0.6121 0.0
H538 H 0.83902 0.73221 0.57621 0.0
H539 H 0.82686 0.7647 0.60655 0.0
C540 C 0.05485 0.71229 0.55448 0.0
C541 C 0.06615 0.73983 0.54326 0.0
C542 C 0.00469 0.70603 0.58373 0.0
C543 C 0.96523 0.72719 0.60228 0.0
C544 C 0.97333 0.75435 0.58832 0.0
H545 H 0.82609 0.7848 0.84428 0.0
H546 H 0.8592 0.77408 0.76787 0.0
C547 C 0.02289 0.76057 0.55872 0.0
C548 C 0.92541 0.7223 0.64214 0.0
H549 H 0.78341 0.74195 0.69323 0.0
C550 C 0.95721 0.71139 0.67877 0.0
C551 C 0.86057 0.732 0.6468 0.0
C552 C 0.82189 0.7419 0.60804 0.0
C553 C 0.92807 0.71213 0.72069 0.0
C554 C 0.86557 0.72402 0.72598 0.0
C555 C 0.83173 0.73311 0.68894 0.0
C556 C 0.83879 0.73028 0.77047 0.0
C557 C 0.96611 0.7021 0.75972 0.0
C558 C 0.81587 0.70914 0.79681 0.0
C559 C 0.79701 0.71516 0.84056 0.0
C560 C 0.80118 0.74241 0.85853 0.0
C561 C 0.82275 0.76359 0.83154 0.0
C562 C 0.84122 0.75756 0.78782 0.0
H563 H 0.01597 0.69504 0.75033 0.0
H564 H 0.97017 0.71891 0.78569 0.0
H565 H 0.93986 0.68459 0.77436 0.0
H566 H 0.81382 0.68796 0.78378 0.0
H567 H 0.78029 0.69841 0.86049 0.0
loop_
_geom_bond_atom_site_label_1
_geom_bond_atom_site_label_2
_geom_bond_distance
_geom_bond_site_symmetry_2
_ccdc_geom_bond_type
C0 O16 1.251 . S
C0 O18 1.254 . S
N1 C2 1.333 1_554 S
N1 C6 1.307 . S
N1 Zn7 2.020 . S
C2 N1 1.333 1_556 S
C2 C3 1.379 . S
C2 H20 0.952 . S
C3 C2 1.379 . S
C3 C4 1.390 1_556 S
C3 H30 0.949 . S
C4 C3 1.390 1_554 S
C4 C5 1.357 . S
C5 C4 1.357 . S
C5 C6 1.370 . S
C5 H31 0.950 . S
C6 N1 1.307 . S
C6 C5 1.370 . S
C6 H24 0.948 . S
Zn7 N1 2.020 . S
Zn7 O16 2.021 1_554 S
Zn7 O22 2.051 . S
Zn7 O26 2.044 . S
Zn7 O28 2.006 1_554 S
C8 O27 1.246 . S
C8 O28 1.249 . S
N9 C10 1.307 . S
N9 C11 1.333 1_556 S
N9 Zn15 2.020 . S
C10 N9 1.307 . S
C10 C14 1.370 . S
C10 H21 0.948 . S
C11 N9 1.333 1_554 S
C11 C12 1.379 . S
C11 H19 0.952 . S
C12 C11 1.379 . S
C12 C13 1.390 1_554 S
C12 H32 0.949 . S
C13 C12 1.390 1_556 S
C13 C14 1.357 . S
C14 C10 1.370 . S
C14 C13 1.357 . S
C14 H33 0.950 . S
Zn15 N9 2.020 . S
Zn15 O18 2.040 . S
Zn15 O23 2.011 1_556 S
Zn15 O25 2.025 1_556 S
Zn15 O27 2.047 . S
O16 C0 1.251 . S
O16 Zn7 2.021 1_556 S
C17 O22 1.246 . S
C17 O23 1.249 . S
O18 C0 1.254 . S
O18 Zn15 2.040 . S
H19 C11 0.952 . S
H20 C2 0.952 . S
H21 C10 0.948 . S
O22 Zn7 2.051 . S
O22 C17 1.246 . S
O23 Zn15 2.011 1_554 S
O23 C17 1.249 . S
H24 C6 0.948 . S
O25 Zn15 2.025 1_554 S
O25 C29 1.251 . S
O26 Zn7 2.044 . S
O26 C29 1.254 . S
O27 C8 1.246 . S
O27 Zn15 2.047 . S
O28 Zn7 2.006 1_556 S
O28 C8 1.249 . S
C29 O25 1.251 . S
C29 O26 1.254 . S
H30 C3 0.949 . S
H31 C5 0.950 . S
H32 C12 0.949 . S
H33 C14 0.950 . S
C34 O50 1.251 . S
C34 O52 1.254 . S
N35 C36 1.333 1_554 S
N35 C40 1.307 . S
N35 Zn41 2.020 . S
C36 N35 1.333 1_556 S
C36 C37 1.379 . S
C36 H54 0.952 . S
C37 C36 1.379 . S
C37 C38 1.390 1_556 S
C37 H64 0.949 . S
C38 C37 1.390 1_554 S
C38 C39 1.357 . S
C39 C38 1.357 . S
C39 C40 1.370 . S
C39 H65 0.950 . S
C40 N35 1.307 . S
C40 C39 1.370 . S
C40 H58 0.948 . S
Zn41 N35 2.020 . S
Zn41 O50 2.021 1_554 S
Zn41 O56 2.051 . S
Zn41 O60 2.044 . S
Zn41 O62 2.006 1_554 S
C42 O61 1.246 . S
C42 O62 1.249 . S
N43 C44 1.307 . S
N43 C45 1.333 1_556 S
N43 Zn49 2.020 . S
C44 N43 1.307 . S
C44 C48 1.370 . S
C44 H55 0.948 . S
C45 N43 1.333 1_554 S
C45 C46 1.379 . S
C45 H53 0.952 . S
C46 C45 1.379 . S
C46 C47 1.390 1_554 S
C46 H66 0.949 . S
C47 C46 1.390 1_556 S
C47 C48 1.357 . S
C48 C44 1.370 . S
C48 C47 1.357 . S
C48 H67 0.950 . S
Zn49 N43 2.020 . S
Zn49 O52 2.040 . S
Zn49 O57 2.011 1_556 S
Zn49 O59 2.025 1_556 S
Zn49 O61 2.047 . S
O50 C34 1.251 . S
O50 Zn41 2.021 1_556 S
C51 O56 1.246 . S
C51 O57 1.249 . S
O52 C34 1.254 . S
O52 Zn49 2.040 . S
H53 C45 0.952 . S
H54 C36 0.952 . S
H55 C44 0.948 . S
O56 Zn41 2.051 . S
O56 C51 1.246 . S
O57 Zn49 2.011 1_554 S
O57 C51 1.249 . S
H58 C40 0.948 . S
O59 Zn49 2.025 1_554 S
O59 C63 1.251 . S
O60 Zn41 2.044 . S
O60 C63 1.254 . S
O61 C42 1.246 . S
O61 Zn49 2.047 . S
O62 Zn41 2.006 1_556 S
O62 C42 1.249 . S
C63 O59 1.251 . S
C63 O60 1.254 . S
H64 C37 0.949 . S
H65 C39 0.950 . S
H66 C46 0.949 . S
H67 C48 0.950 . S
C68 O84 1.251 . S
C68 O86 1.254 . S
N69 C70 1.333 . S
N69 C74 1.307 . S
N69 Zn75 2.020 . S
C70 N69 1.333 . S
C70 C71 1.379 . S
C70 H88 0.952 . S
C71 C70 1.379 . S
C71 C72 1.390 . S
C71 H98 0.949 . S
C72 C71 1.390 . S
C72 C73 1.357 . S
C73 C72 1.357 . S
C73 C74 1.370 . S
C73 H99 0.950 . S
C74 N69 1.307 . S
C74 C73 1.370 . S
C74 H92 0.948 . S
Zn75 N69 2.020 . S
Zn75 O84 2.039 . S
Zn75 O90 2.034 . S
Zn75 O94 2.025 . S
Zn75 O96 2.024 . S
C76 O95 1.246 . S
C76 O96 1.249 . S
N77 C78 1.307 . S
N77 C79 1.333 . S
N77 Zn83 2.020 . S
C78 N77 1.307 . S
C78 C82 1.370 . S
C78 H89 0.948 . S
C79 N77 1.333 . S
C79 C80 1.379 . S
C79 H87 0.952 . S
C80 C79 1.379 . S
C80 C81 1.390 . S
C80 H100 0.949 . S
C81 C80 1.390 . S
C81 C82 1.357 . S
C82 C78 1.370 . S
C82 C81 1.357 . S
C82 H101 0.950 . S
Zn83 N77 2.020 . S
Zn83 O86 2.025 . S
Zn83 O91 2.024 . S
Zn83 O93 2.039 . S
Zn83 O95 2.034 . S
O84 C68 1.251 . S
O84 Zn75 2.039 . S
C85 O90 1.246 . S
C85 O91 1.249 . S
O86 C68 1.254 . S
O86 Zn83 2.025 . S
H87 C79 0.952 . S
H88 C70 0.952 . S
H89 C78 0.948 . S
O90 Zn75 2.034 . S
O90 C85 1.246 . S
O91 Zn83 2.024 . S
O91 C85 1.249 . S
H92 C74 0.948 . S
O93 Zn83 2.039 . S
O93 C97 1.251 . S
O94 Zn75 2.025 . S
O94 C97 1.254 . S
O95 C76 1.246 . S
O95 Zn83 2.034 . S
O96 Zn75 2.024 . S
O96 C76 1.249 . S
C97 O93 1.251 . S
C97 O94 1.254 . S
H98 C71 0.949 . S
H99 C73 0.950 . S
H100 C80 0.949 . S
H101 C82 0.950 . S
C102 O118 1.251 . S
C102 O120 1.254 . S
N103 C104 1.333 . S
N103 C108 1.307 . S
N103 Zn109 2.020 . S
C104 N103 1.333 . S
C104 C105 1.379 . S
C104 H122 0.952 . S
C105 C104 1.379 . S
C105 C106 1.390 . S
C105 H132 0.949 . S
C106 C105 1.390 . S
C106 C107 1.357 . S
C107 C106 1.357 . S
C107 C108 1.370 . S
C107 H133 0.950 . S
C108 N103 1.307 . S
C108 C107 1.370 . S
C108 H126 0.948 . S
Zn109 N103 2.020 . S
Zn109 O118 2.039 . S
Zn109 O124 2.034 . S
Zn109 O128 2.025 . S
Zn109 O130 2.024 . S
C110 O129 1.246 . S
C110 O130 1.249 . S
N111 C112 1.307 . S
N111 C113 1.333 . S
N111 Zn117 2.020 . S
C112 N111 1.307 . S
C112 C116 1.370 . S
C112 H123 0.948 . S
C113 N111 1.333 . S
C113 C114 1.379 . S
C113 H121 0.952 . S
C114 C113 1.379 . S
C114 C115 1.390 . S
C114 H134 0.949 . S
C115 C114 1.390 . S
C115 C116 1.357 . S
C116 C112 1.370 . S
C116 C115 1.357 . S
C116 H135 0.950 . S
Zn117 N111 2.020 . S
Zn117 O120 2.025 . S
Zn117 O125 2.024 . S
Zn117 O127 2.039 . S
Zn117 O129 2.034 . S
O118 C102 1.251 . S
O118 Zn109 2.039 . S
C119 O124 1.246 . S
C119 O125 1.249 . S
O120 C102 1.254 . S
O120 Zn117 2.025 . S
H121 C113 0.952 . S
H122 C104 0.952 . S
H123 C112 0.948 . S
O124 Zn109 2.034 . S
O124 C119 1.246 . S
O125 Zn117 2.024 . S
O125 C119 1.249 . S
H126 C108 0.948 . S
O127 Zn117 2.039 . S
O127 C131 1.251 . S
O128 Zn109 2.025 . S
O128 C131 1.254 . S
O129 C110 1.246 . S
O129 Zn117 2.034 . S
O130 Zn109 2.024 . S
O130 C110 1.249 . S
C131 O127 1.251 . S
C131 O128 1.254 . S
H132 C105 0.949 . S
H133 C107 0.950 . S
H134 C114 0.949 . S
H135 C116 0.950 . S
H136 C144 0.929 . S
H137 C146 0.930 . S
H138 C148 0.930 . S
H139 C151 0.929 . S
H140 C154 0.930 . S
H141 C156 0.960 . S
H142 C156 0.960 . S
H143 C156 0.960 . S
C144 H136 0.929 . S
C144 C145 1.383 . S
C144 C146 1.384 . S
C145 C144 1.383 . S
C145 C151 1.384 1_556 S
C146 H137 0.930 . S
C146 C144 1.384 . S
C146 C147 1.372 . S
C147 C146 1.372 . S
C147 C148 1.400 1_556 S
C147 C152 1.490 . S
C148 H138 0.930 . S
C148 C147 1.400 1_554 S
C148 C151 1.386 . S
H149 C165 0.930 . S
H150 C166 0.931 . S
C151 H139 0.929 . S
C151 C145 1.384 1_554 S
C151 C148 1.386 . S
C152 C147 1.490 . S
C152 C154 1.391 1_556 S
C152 C155 1.406 . S
H153 C159 0.930 . S
C154 H140 0.930 . S
C154 C152 1.391 1_554 S
C154 C157 1.403 . S
C155 C152 1.406 . S
C155 C156 1.524 . S
C155 C159 1.400 . S
C156 H141 0.960 . S
C156 H142 0.960 . S
C156 H143 0.960 . S
C156 C155 1.524 . S
C157 C154 1.403 . S
C157 C158 1.392 . S
C157 C161 1.495 . S
C158 C157 1.392 . S
C158 C159 1.385 1_554 S
C158 C160 1.478 . S
C159 H153 0.930 . S
C159 C155 1.400 . S
C159 C158 1.385 1_556 S
C160 C158 1.478 . S
C160 C162 1.381 1_554 S
C160 C166 1.383 . S
C161 C157 1.495 . S
C161 H167 0.959 . S
C161 H168 0.961 . S
C161 H169 0.960 . S
C162 C160 1.381 1_556 S
C162 C163 1.394 . S
C162 H170 0.930 . S
C163 C162 1.394 . S
C163 C164 1.383 1_556 S
C163 H171 0.929 . S
C164 C163 1.383 1_554 S
C164 C165 1.377 . S
C165 H149 0.930 . S
C165 C164 1.377 . S
C165 C166 1.379 . S
C166 H150 0.931 . S
C166 C160 1.383 . S
C166 C165 1.379 . S
H167 C161 0.959 . S
H168 C161 0.961 . S
H169 C161 0.960 . S
H170 C162 0.930 . S
H171 C163 0.929 . S
H172 C180 0.929 . S
H173 C182 0.930 . S
H174 C184 0.930 . S
H175 C187 0.929 . S
H176 C190 0.930 . S
H177 C192 0.960 . S
H178 C192 0.960 . S
H179 C192 0.960 . S
C180 H172 0.929 . S
C180 C181 1.377 . S
C180 C182 1.384 . S
C181 C180 1.377 . S
C181 C187 1.390 . S
C182 H173 0.930 . S
C182 C180 1.384 . S
C182 C183 1.372 . S
C183 C182 1.372 . S
C183 C184 1.400 . S
C183 C188 1.490 . S
C184 H174 0.930 . S
C184 C183 1.400 . S
C184 C187 1.386 . S
H185 C201 0.930 . S
H186 C202 0.931 . S
C187 H175 0.929 . S
C187 C181 1.390 . S
C187 C184 1.386 . S
C188 C183 1.490 . S
C188 C190 1.395 . S
C188 C191 1.403 . S
H189 C195 0.930 . S
C190 H176 0.930 . S
C190 C188 1.395 . S
C190 C193 1.403 . S
C191 C188 1.403 . S
C191 C192 1.524 . S
C191 C195 1.400 . S
C192 H177 0.960 . S
C192 H178 0.960 . S
C192 H179 0.960 . S
C192 C191 1.524 . S
C193 C190 1.403 . S
C193 C194 1.392 . S
C193 C197 1.495 . S
C194 C193 1.392 . S
C194 C195 1.385 . S
C194 C196 1.478 . S
C195 H189 0.930 . S
C195 C191 1.400 . S
C195 C194 1.385 . S
C196 C194 1.478 . S
C196 C198 1.381 . S
C196 C202 1.383 . S
C197 C193 1.495 . S
C197 H203 0.959 . S
C197 H204 0.961 . S
C197 H205 0.960 . S
C198 C196 1.381 . S
C198 C199 1.394 . S
C198 H206 0.930 . S
C199 C198 1.394 . S
C199 C200 1.383 . S
C199 H207 0.929 . S
C200 C199 1.383 . S
C200 C201 1.377 . S
C201 H185 0.930 . S
C201 C200 1.377 . S
C201 C202 1.379 . S
C202 H186 0.931 . S
C202 C196 1.383 . S
C202 C201 1.379 . S
H203 C197 0.959 . S
H204 C197 0.961 . S
H205 C197 0.960 . S
H206 C198 0.930 . S
H207 C199 0.929 . S
H208 C216 0.929 . S
H209 C218 0.929 . S
H210 C220 0.930 1_655 S
H211 C223 0.929 . S
H212 C226 0.930 . S
H213 C228 0.960 . S
H214 C228 0.960 1_455 S
H215 C228 0.960 . S
C216 H208 0.929 . S
C216 C217 1.377 . S
C216 C218 1.384 1_556 S
C217 C216 1.377 . S
C217 C223 1.390 . S
C218 H209 0.929 . S
C218 C216 1.384 1_554 S
C218 C219 1.372 1_554 S
C219 C218 1.372 1_556 S
C219 C220 1.400 . S
C219 C224 1.489 1_556 S
C220 H210 0.930 1_455 S
C220 C219 1.400 . S
C220 C223 1.386 . S
H221 C237 0.930 . S
H222 C238 0.931 . S
C223 H211 0.929 . S
C223 C217 1.390 . S
C223 C220 1.386 . S
C224 C219 1.489 1_554 S
C224 C226 1.395 . S
C224 C227 1.403 1_454 S
H225 C231 0.930 . S
C226 H212 0.930 . S
C226 C224 1.395 . S
C226 C229 1.403 1_545 S
C227 C224 1.403 1_656 S
C227 C228 1.524 . S
C227 C231 1.400 1_545 S
C228 H213 0.960 . S
C228 H214 0.960 1_655 S
C228 H215 0.960 . S
C228 C227 1.524 . S
C229 C226 1.403 1_565 S
C229 C230 1.392 1_455 S
C229 C233 1.495 . S
C230 C229 1.392 1_655 S
C230 C231 1.385 1_554 S
C230 C232 1.478 . S
C231 H225 0.930 . S
C231 C227 1.400 1_565 S
C231 C230 1.385 1_556 S
C232 C230 1.478 . S
C232 C234 1.381 . S
C232 C238 1.383 . S
C233 C229 1.495 . S
C233 H239 0.959 . S
C233 H240 0.961 1_455 S
C233 H241 0.960 . S
C234 C232 1.381 . S
C234 C235 1.395 . S
C234 H242 0.930 1_655 S
C235 C234 1.395 . S
C235 C236 1.384 . S
C235 H243 0.928 1_554 S
C236 C235 1.384 . S
C236 C237 1.377 . S
C237 H221 0.930 . S
C237 C236 1.377 . S
C237 C238 1.379 . S
C238 H222 0.931 . S
C238 C232 1.383 . S
C238 C237 1.379 . S
H239 C233 0.959 . S
H240 C233 0.961 1_655 S
H241 C233 0.960 . S
H242 C234 0.930 1_455 S
H243 C235 0.928 1_556 S
H244 C252 0.929 . S
H245 C254 0.930 . S
H246 C256 0.930 . S
H247 C259 0.929 . S
H248 C262 0.930 1_545 S
H249 C264 0.960 . S
H250 C264 0.960 . S
H251 C264 0.960 . S
C252 H244 0.929 . S
C252 C253 1.377 . S
C252 C254 1.384 . S
C253 C252 1.377 . S
C253 C259 1.390 . S
C254 H245 0.930 . S
C254 C252 1.384 . S
C254 C255 1.372 . S
C255 C254 1.372 . S
C255 C256 1.400 . S
C255 C260 1.490 . S
C256 H246 0.930 . S
C256 C255 1.400 . S
C256 C259 1.386 . S
H257 C273 0.930 . S
H258 C274 0.931 . S
C259 H247 0.929 . S
C259 C253 1.390 . S
C259 C256 1.386 . S
C260 C255 1.490 . S
C260 C262 1.390 1_545 S
C260 C263 1.403 1_655 S
H261 C267 0.930 . S
C262 H248 0.930 1_565 S
C262 C260 1.390 1_565 S
C262 C265 1.409 . S
C263 C260 1.403 1_455 S
C263 C264 1.524 . S
C263 C267 1.400 1_545 S
C264 H249 0.960 . S
C264 H250 0.960 . S
C264 H251 0.960 . S
C264 C263 1.524 . S
C265 C262 1.409 . S
C265 C266 1.392 1_655 S
C265 C269 1.495 . S
C266 C265 1.392 1_455 S
C266 C267 1.385 . S
C266 C268 1.478 . S
C267 H261 0.930 . S
C267 C263 1.400 1_565 S
C267 C266 1.385 . S
C268 C266 1.478 . S
C268 C270 1.381 . S
C268 C274 1.383 . S
C269 C265 1.495 . S
C269 H275 0.959 . S
C269 H276 0.961 . S
C269 H277 0.960 . S
C270 C268 1.381 . S
C270 C271 1.394 . S
C270 H278 0.930 . S
C271 C270 1.394 . S
C271 C272 1.383 . S
C271 H279 0.929 . S
C272 C271 1.383 . S
C272 C273 1.377 . S
C273 H257 0.930 . S
C273 C272 1.377 . S
C273 C274 1.379 . S
C274 H258 0.931 . S
C274 C268 1.383 . S
C274 C273 1.379 . S
H275 C269 0.959 . S
H276 C269 0.961 . S
H277 C269 0.960 . S
H278 C270 0.930 . S
H279 C271 0.929 . S
H280 C288 0.929 . S
H281 C290 0.930 . S
H282 C292 0.930 . S
H283 C295 0.929 . S
H284 C298 0.930 . S
H285 C300 0.960 . S
H286 C300 0.960 . S
H287 C300 0.960 . S
C288 H280 0.929 . S
C288 C289 1.377 . S
C288 C290 1.384 . S
C289 C288 1.377 . S
C289 C295 1.390 . S
C290 H281 0.930 . S
C290 C288 1.384 . S
C290 C291 1.372 . S
C291 C290 1.372 . S
C291 C292 1.400 . S
C291 C296 1.490 . S
C292 H282 0.930 . S
C292 C291 1.400 . S
C292 C295 1.386 . S
H293 C309 0.930 . S
H294 C310 0.931 . S
C295 H283 0.929 . S
C295 C289 1.390 . S
C295 C292 1.386 . S
C296 C291 1.490 . S
C296 C298 1.395 . S
C296 C299 1.403 . S
H297 C303 0.930 . S
C298 H284 0.930 . S
C298 C296 1.395 . S
C298 C301 1.403 . S
C299 C296 1.403 . S
C299 C300 1.524 . S
C299 C303 1.400 . S
C300 H285 0.960 . S
C300 H286 0.960 . S
C300 H287 0.960 . S
C300 C299 1.524 . S
C301 C298 1.403 . S
C301 C302 1.392 . S
C301 C305 1.495 . S
C302 C301 1.392 . S
C302 C303 1.385 . S
C302 C304 1.478 . S
C303 H297 0.930 . S
C303 C299 1.400 . S
C303 C302 1.385 . S
C304 C302 1.478 . S
C304 C306 1.381 . S
C304 C310 1.383 . S
C305 C301 1.495 . S
C305 H311 0.959 . S
C305 H312 0.961 . S
C305 H313 0.960 . S
C306 C304 1.381 . S
C306 C307 1.394 . S
C306 H314 0.930 . S
C307 C306 1.394 . S
C307 C308 1.383 . S
C307 H315 0.929 . S
C308 C307 1.383 . S
C308 C309 1.377 . S
C309 H293 0.930 . S
C309 C308 1.377 . S
C309 C310 1.379 . S
C310 H294 0.931 . S
C310 C304 1.383 . S
C310 C309 1.379 . S
H311 C305 0.959 . S
H312 C305 0.961 . S
H313 C305 0.960 . S
H314 C306 0.930 . S
H315 C307 0.929 . S
H316 C324 0.929 . S
H317 C326 0.930 . S
H318 C328 0.930 . S
H319 C331 0.929 . S
H320 C334 0.930 . S
H321 C336 0.960 . S
H322 C336 0.960 . S
H323 C336 0.960 . S
C324 H316 0.929 . S
C324 C325 1.377 . S
C324 C326 1.384 . S
C325 C324 1.377 . S
C325 C331 1.390 . S
C326 H317 0.930 . S
C326 C324 1.384 . S
C326 C327 1.372 . S
C327 C326 1.372 . S
C327 C328 1.400 . S
C327 C332 1.490 . S
C328 H318 0.930 . S
C328 C327 1.400 . S
C328 C331 1.386 . S
H329 C345 0.930 . S
H330 C346 0.931 . S
C331 H319 0.929 . S
C331 C325 1.390 . S
C331 C328 1.386 . S
C332 C327 1.490 . S
C332 C334 1.395 . S
C332 C335 1.403 . S
H333 C339 0.930 . S
C334 H320 0.930 . S
C334 C332 1.395 . S
C334 C337 1.403 . S
C335 C332 1.403 . S
C335 C336 1.524 . S
C335 C339 1.400 . S
C336 H321 0.960 . S
C336 H322 0.960 . S
C336 H323 0.960 . S
C336 C335 1.524 . S
C337 C334 1.403 . S
C337 C338 1.392 . S
C337 C341 1.495 . S
C338 C337 1.392 . S
C338 C339 1.385 . S
C338 C340 1.478 . S
C339 H333 0.930 . S
C339 C335 1.400 . S
C339 C338 1.385 . S
C340 C338 1.478 . S
C340 C342 1.381 . S
C340 C346 1.383 . S
C341 C337 1.495 . S
C341 H347 0.959 . S
C341 H348 0.961 . S
C341 H349 0.960 . S
C342 C340 1.381 . S
C342 C343 1.394 . S
C342 H350 0.930 . S
C343 C342 1.394 . S
C343 C344 1.383 . S
C343 H351 0.929 . S
C344 C343 1.383 . S
C344 C345 1.377 . S
C345 H329 0.930 . S
C345 C344 1.377 . S
C345 C346 1.379 . S
C346 H330 0.931 . S
C346 C340 1.383 . S
C346 C345 1.379 . S
H347 C341 0.959 . S
H348 C341 0.961 . S
H349 C341 0.960 . S
H350 C342 0.930 . S
H351 C343 0.929 . S
H352 C360 0.929 . S
H353 C362 0.930 . S
H354 C364 0.930 . S
H355 C367 0.929 . S
H356 C370 0.930 . S
H357 C372 0.960 . S
H358 C372 0.960 . S
H359 C372 0.960 . S
C360 H352 0.929 . S
C360 C361 1.377 . S
C360 C362 1.384 . S
C361 C360 1.377 . S
C361 C367 1.390 . S
C362 H353 0.930 . S
C362 C360 1.384 . S
C362 C363 1.372 . S
C363 C362 1.372 . S
C363 C364 1.400 . S
C363 C368 1.490 . S
C364 H354 0.930 . S
C364 C363 1.400 . S
C364 C367 1.386 . S
H365 C381 0.930 . S
H366 C382 0.931 . S
C367 H355 0.929 . S
C367 C361 1.390 . S
C367 C364 1.386 . S
C368 C363 1.490 . S
C368 C370 1.395 . S
C368 C371 1.403 . S
H369 C375 0.930 . S
C370 H356 0.930 . S
C370 C368 1.395 . S
C370 C373 1.403 . S
C371 C368 1.403 . S
C371 C372 1.524 . S
C371 C375 1.400 . S
C372 H357 0.960 . S
C372 H358 0.960 . S
C372 H359 0.960 . S
C372 C371 1.524 . S
C373 C370 1.403 . S
C373 C374 1.392 . S
C373 C377 1.495 . S
C374 C373 1.392 . S
C374 C375 1.385 . S
C374 C376 1.478 . S
C375 H369 0.930 . S
C375 C371 1.400 . S
C375 C374 1.385 . S
C376 C374 1.478 . S
C376 C378 1.381 . S
C376 C382 1.383 . S
C377 C373 1.495 . S
C377 H383 0.959 . S
C377 H384 0.961 . S
C377 H385 0.960 . S
C378 C376 1.381 . S
C378 C379 1.394 . S
C378 H386 0.930 . S
C379 C378 1.394 . S
C379 C380 1.383 . S
C379 H387 0.929 . S
C380 C379 1.383 . S
C380 C381 1.377 . S
C381 H365 0.930 . S
C381 C380 1.377 . S
C381 C382 1.379 . S
C382 H366 0.931 . S
C382 C376 1.383 . S
C382 C381 1.379 . S
H383 C377 0.959 . S
H384 C377 0.961 . S
H385 C377 0.960 . S
H386 C378 0.930 . S
H387 C379 0.929 . S
H388 C396 0.929 . S
H389 C398 0.930 . S
H390 C400 0.930 . S
H391 C403 0.929 . S
H392 C406 0.930 . S
H393 C408 0.960 . S
H394 C408 0.960 . S
H395 C408 0.960 . S
C396 H388 0.929 . S
C396 C397 1.377 . S
C396 C398 1.384 . S
C397 C396 1.377 . S
C397 C403 1.390 . S
C398 H389 0.930 . S
C398 C396 1.384 . S
C398 C399 1.372 . S
C399 C398 1.372 . S
C399 C400 1.400 . S
C399 C404 1.490 . S
C400 H390 0.930 . S
C400 C399 1.400 . S
C400 C403 1.386 . S
H401 C417 0.930 . S
H402 C418 0.931 . S
C403 H391 0.929 . S
C403 C397 1.390 . S
C403 C400 1.386 . S
C404 C399 1.490 . S
C404 C406 1.395 . S
C404 C407 1.403 . S
H405 C411 0.930 . S
C406 H392 0.930 . S
C406 C404 1.395 . S
C406 C409 1.403 . S
C407 C404 1.403 . S
C407 C408 1.524 . S
C407 C411 1.400 . S
C408 H393 0.960 . S
C408 H394 0.960 . S
C408 H395 0.960 . S
C408 C407 1.524 . S
C409 C406 1.403 . S
C409 C410 1.392 . S
C409 C413 1.495 . S
C410 C409 1.392 . S
C410 C411 1.385 . S
C410 C412 1.478 . S
C411 H405 0.930 . S
C411 C407 1.400 . S
C411 C410 1.385 . S
C412 C410 1.478 . S
C412 C414 1.381 . S
C412 C418 1.383 . S
C413 C409 1.495 . S
C413 H419 0.959 . S
C413 H420 0.961 . S
C413 H421 0.960 . S
C414 C412 1.381 . S
C414 C415 1.394 . S
C414 H422 0.930 . S
C415 C414 1.394 . S
C415 C416 1.383 . S
C415 H423 0.929 . S
C416 C415 1.383 . S
C416 C417 1.377 . S
C417 H401 0.930 . S
C417 C416 1.377 . S
C417 C418 1.379 . S
C418 H402 0.931 . S
C418 C412 1.383 . S
C418 C417 1.379 . S
H419 C413 0.959 . S
H420 C413 0.961 . S
H421 C413 0.960 . S
H422 C414 0.930 . S
H423 C415 0.929 . S
H424 C432 0.929 . S
H425 C434 0.930 . S
H426 C436 0.930 . S
H427 C439 0.929 . S
H428 C442 0.930 . S
H429 C444 0.960 . S
H430 C444 0.960 . S
H431 C444 0.960 . S
C432 H424 0.929 . S
C432 C433 1.377 . S
C432 C434 1.384 . S
C433 C432 1.377 . S
C433 C439 1.390 . S
C434 H425 0.930 . S
C434 C432 1.384 . S
C434 C435 1.372 . S
C435 C434 1.372 . S
C435 C436 1.400 . S
C435 C440 1.490 . S
C436 H426 0.930 . S
C436 C435 1.400 . S
C436 C439 1.386 . S
H437 C453 0.930 . S
H438 C454 0.931 . S
C439 H427 0.929 . S
C439 C433 1.390 . S
C439 C436 1.386 . S
C440 C435 1.490 . S
C440 C442 1.395 1_655 S
C440 C443 1.403 . S
H441 C447 0.930 . S
C442 H428 0.930 . S
C442 C440 1.395 1_455 S
C442 C445 1.403 . S
C443 C440 1.403 . S
C443 C444 1.524 . S
C443 C447 1.400 . S
C444 H429 0.960 . S
C444 H430 0.960 . S
C444 H431 0.960 . S
C444 C443 1.524 . S
C445 C442 1.403 . S
C445 C446 1.392 . S
C445 C449 1.495 . S
C446 C445 1.392 . S
C446 C447 1.385 1_455 S
C446 C448 1.478 . S
C447 H441 0.930 . S
C447 C443 1.400 . S
C447 C446 1.385 1_655 S
C448 C446 1.478 . S
C448 C450 1.381 . S
C448 C454 1.383 . S
C449 C445 1.495 . S
C449 H455 0.959 . S
C449 H456 0.961 . S
C449 H457 0.960 . S
C450 C448 1.381 . S
C450 C451 1.394 . S
C450 H458 0.930 . S
C451 C450 1.394 . S
C451 C452 1.383 . S
C451 H459 0.929 . S
C452 C451 1.383 . S
C452 C453 1.377 . S
C453 H437 0.930 . S
C453 C452 1.377 . S
C453 C454 1.379 . S
C454 H438 0.931 . S
C454 C448 1.383 . S
C454 C453 1.379 . S
H455 C449 0.959 . S
H456 C449 0.961 . S
H457 C449 0.960 . S
H458 C450 0.930 . S
H459 C451 0.929 . S
H460 C468 0.929 . S
H461 C470 0.930 . S
H462 C472 0.930 . S
H463 C475 0.929 . S
H464 C478 0.930 . S
H465 C480 0.960 . S
H466 C480 0.960 . S
H467 C480 0.949 1_655 S
C468 H460 0.929 . S
C468 C469 1.377 . S
C468 C470 1.384 . S
C469 C468 1.377 . S
C469 C475 1.390 . S
C470 H461 0.930 . S
C470 C468 1.384 . S
C470 C471 1.372 . S
C471 C470 1.372 . S
C471 C472 1.400 . S
C471 C476 1.490 . S
C472 H462 0.930 . S
C472 C471 1.400 . S
C472 C475 1.386 . S
H473 C489 0.930 . S
H474 C490 0.931 . S
C475 H463 0.929 . S
C475 C469 1.390 . S
C475 C472 1.386 . S
C476 C471 1.490 . S
C476 C478 1.395 . S
C476 C479 1.403 1_655 S
H477 C483 0.930 . S
C478 H464 0.930 . S
C478 C476 1.395 . S
C478 C481 1.403 . S
C479 C476 1.403 1_455 S
C479 C480 1.524 . S
C479 C483 1.400 . S
C480 H465 0.960 . S
C480 H466 0.960 . S
C480 H467 0.949 1_455 S
C480 C479 1.524 . S
C481 C478 1.403 . S
C481 C482 1.392 1_655 S
C481 C485 1.495 . S
C482 C481 1.392 1_455 S
C482 C483 1.385 . S
C482 C484 1.478 . S
C483 H477 0.930 . S
C483 C479 1.400 . S
C483 C482 1.385 . S
C484 C482 1.478 . S
C484 C486 1.381 . S
C484 C490 1.383 . S
C485 C481 1.495 . S
C485 H491 0.959 . S
C485 H492 0.961 . S
C485 H493 0.951 1_655 S
C486 C484 1.381 . S
C486 C487 1.394 . S
C486 H494 0.930 . S
C487 C486 1.394 . S
C487 C488 1.383 . S
C487 H495 0.929 . S
C488 C487 1.383 . S
C488 C489 1.377 . S
C489 H473 0.930 . S
C489 C488 1.377 . S
C489 C490 1.379 . S
C490 H474 0.931 . S
C490 C484 1.383 . S
C490 C489 1.379 . S
H491 C485 0.959 . S
H492 C485 0.961 . S
H493 C485 0.951 1_455 S
H494 C486 0.930 . S
H495 C487 0.929 . S
H496 C504 0.929 . S
H497 C506 0.930 . S
H498 C508 0.930 . S
H499 C511 0.929 . S
H500 C514 0.930 . S
H501 C516 0.960 . S
H502 C516 0.960 . S
H503 C516 0.960 . S
C504 H496 0.929 . S
C504 C505 1.377 . S
C504 C506 1.384 . S
C505 C504 1.377 . S
C505 C511 1.390 . S
C506 H497 0.930 . S
C506 C504 1.384 . S
C506 C507 1.372 . S
C507 C506 1.372 . S
C507 C508 1.400 . S
C507 C512 1.490 . S
C508 H498 0.930 . S
C508 C507 1.400 . S
C508 C511 1.386 . S
H509 C525 0.930 . S
H510 C526 0.931 . S
C511 H499 0.929 . S
C511 C505 1.390 . S
C511 C508 1.386 . S
C512 C507 1.490 . S
C512 C514 1.395 1_655 S
C512 C515 1.403 . S
H513 C519 0.930 . S
C514 H500 0.930 . S
C514 C512 1.395 1_455 S
C514 C517 1.403 . S
C515 C512 1.403 . S
C515 C516 1.524 . S
C515 C519 1.400 . S
C516 H501 0.960 . S
C516 H502 0.960 . S
C516 H503 0.960 . S
C516 C515 1.524 . S
C517 C514 1.403 . S
C517 C518 1.392 . S
C517 C521 1.495 . S
C518 C517 1.392 . S
C518 C519 1.385 1_455 S
C518 C520 1.478 . S
C519 H513 0.930 . S
C519 C515 1.400 . S
C519 C518 1.385 1_655 S
C520 C518 1.478 . S
C520 C522 1.381 . S
C520 C526 1.383 . S
C521 C517 1.495 . S
C521 H527 0.959 . S
C521 H528 0.961 . S
C521 H529 0.960 . S
C522 C520 1.381 . S
C522 C523 1.394 . S
C522 H530 0.930 . S
C523 C522 1.394 . S
C523 C524 1.383 . S
C523 H531 0.929 . S
C524 C523 1.383 . S
C524 C525 1.377 . S
C525 H509 0.930 . S
C525 C524 1.377 . S
C525 C526 1.379 . S
C526 H510 0.931 . S
C526 C520 1.383 . S
C526 C525 1.379 . S
H527 C521 0.959 . S
H528 C521 0.961 . S
H529 C521 0.960 . S
H530 C522 0.930 . S
H531 C523 0.929 . S
H532 C540 0.929 . S
H533 C542 0.930 . S
H534 C544 0.930 . S
H535 C547 0.929 . S
H536 C550 0.930 . S
H537 C552 0.960 . S
H538 C552 0.960 . S
H539 C552 0.960 . S
C540 H532 0.929 . S
C540 C541 1.377 . S
C540 C542 1.384 . S
C541 C540 1.377 . S
C541 C547 1.390 . S
C542 H533 0.930 . S
C542 C540 1.384 . S
C542 C543 1.372 . S
C543 C542 1.372 . S
C543 C544 1.400 . S
C543 C548 1.490 . S
C544 H534 0.930 . S
C544 C543 1.400 . S
C544 C547 1.386 . S
H545 C561 0.930 . S
H546 C562 0.931 . S
C547 H535 0.929 . S
C547 C541 1.390 . S
C547 C544 1.386 . S
C548 C543 1.490 . S
C548 C550 1.395 . S
C548 C551 1.403 1_455 S
H549 C555 0.930 . S
C550 H536 0.930 . S
C550 C548 1.395 . S
C550 C553 1.403 . S
C551 C548 1.403 1_655 S
C551 C552 1.524 . S
C551 C555 1.400 . S
C552 H537 0.960 . S
C552 H538 0.960 . S
C552 H539 0.960 . S
C552 C551 1.524 . S
C553 C550 1.403 . S
C553 C554 1.392 1_455 S
C553 C557 1.495 . S
C554 C553 1.392 1_655 S
C554 C555 1.385 . S
C554 C556 1.478 . S
C555 H549 0.930 . S
C555 C551 1.400 . S
C555 C554 1.385 . S
C556 C554 1.478 . S
C556 C558 1.381 . S
C556 C562 1.383 . S
C557 C553 1.495 . S
C557 H563 0.959 . S
C557 H564 0.961 . S
C557 H565 0.960 . S
C558 C556 1.381 . S
C558 C559 1.394 . S
C558 H566 0.930 . S
C559 C558 1.394 . S
C559 C560 1.383 . S
C559 H567 0.929 . S
C560 C559 1.383 . S
C560 C561 1.377 . S
C561 H545 0.930 . S
C561 C560 1.377 . S
C561 C562 1.379 . S
C562 H546 0.931 . S
C562 C556 1.383 . S
C562 C561 1.379 . S
H563 C557 0.959 . S
H564 C557 0.961 . S
H565 C557 0.960 . S
H566 C558 0.930 . S
H567 C559 0.929 . S
C145 C47 1.632 . S
C164 C4 1.618 . S
C181 C72 1.634 . S
C200 C115 1.634 . S
C217 C13 1.633 . S
C236 C38 1.620 . S
C253 C106 1.631 . S
C272 C81 1.617 . S
C289 C131 0.838 . S
C308 C17 0.850 . S
C325 C63 0.840 . S
C344 C85 0.851 . S
C361 C42 0.841 . S
C380 C68 0.825 . S
C397 C110 0.841 . S
C416 C0 0.823 . S
C433 C51 0.844 . S
C452 C97 0.820 . S
C469 C119 0.844 . S
C488 C29 0.843 . S
C505 C102 0.839 . S
C524 C8 0.838 . S
C541 C76 0.844 . S
C560 C34 0.852 . S
