# Generated by pormake.
# Topology uol, (4)-cn, num edge types: 1
# Building blocks:
#     Node 0, Type 0, BuildingBlock: GALJAG_clean_sbu_0, # of connection points: 4
#     Node 1, Type 0, BuildingBlock: GALJAG_clean_sbu_0, # of connection points: 4
#     Node 2, Type 0, BuildingBlock: GALJAG_clean_sbu_0, # of connection points: 4
#     Node 3, Type 0, BuildingBlock: GALJAG_clean_sbu_0, # of connection points: 4
#     Node 4, Type 0, BuildingBlock: GALJAG_clean_sbu_0, # of connection points: 4
#     Node 5, Type 0, BuildingBlock: GALJAG_clean_sbu_0, # of connection points: 4
#     Node 6, Type 0, BuildingBlock: GALJAG_clean_sbu_0, # of connection points: 4
#     Node 7, Type 0, BuildingBlock: GALJAG_clean_sbu_0, # of connection points: 4
#     Node 8, Type 0, BuildingBlock: GALJAG_clean_sbu_0, # of connection points: 4
#     Node 9, Type 0, BuildingBlock: GALJAG_clean_sbu_0, # of connection points: 4
#     Node 10, Type 0, BuildingBlock: GALJAG_clean_sbu_0, # of connection points: 4
#     Node 11, Type 0, BuildingBlock: GALJAG_clean_sbu_0, # of connection points: 4
#     Edge 12, Type (0, 0), BuildingBlock: UVAHIK_clean_linker_0, # of connection points: 2
#     Edge 13, Type (0, 0), BuildingBlock: UVAHIK_clean_linker_0, # of connection points: 2
#     Edge 14, Type (0, 0), BuildingBlock: UVAHIK_clean_linker_0, # of connection points: 2
#     Edge 15, Type (0, 0), BuildingBlock: UVAHIK_clean_linker_0, # of connection points: 2
#     Edge 16, Type (0, 0), BuildingBlock: UVAHIK_clean_linker_0, # of connection points: 2
#     Edge 17, Type (0, 0), BuildingBlock: UVAHIK_clean_linker_0, # of connection points: 2
#     Edge 18, Type (0, 0), BuildingBlock: UVAHIK_clean_linker_0, # of connection points: 2
#     Edge 19, Type (0, 0), BuildingBlock: UVAHIK_clean_linker_0, # of connection points: 2
#     Edge 20, Type (0, 0), BuildingBlock: UVAHIK_clean_linker_0, # of connection points: 2
#     Edge 21, Type (0, 0), BuildingBlock: UVAHIK_clean_linker_0, # of connection points: 2
#     Edge 22, Type (0, 0), BuildingBlock: UVAHIK_clean_linker_0, # of connection points: 2
#     Edge 23, Type (0, 0), BuildingBlock: UVAHIK_clean_linker_0, # of connection points: 2
#     Edge 24, Type (0, 0), BuildingBlock: UVAHIK_clean_linker_0, # of connection points: 2
#     Edge 25, Type (0, 0), BuildingBlock: UVAHIK_clean_linker_0, # of connection points: 2
#     Edge 26, Type (0, 0), BuildingBlock: UVAHIK_clean_linker_0, # of connection points: 2
#     Edge 27, Type (0, 0), BuildingBlock: UVAHIK_clean_linker_0, # of connection points: 2
#     Edge 28, Type (0, 0), BuildingBlock: UVAHIK_clean_linker_0, # of connection points: 2
#     Edge 29, Type (0, 0), BuildingBlock: UVAHIK_clean_linker_0, # of connection points: 2
#     Edge 30, Type (0, 0), BuildingBlock: UVAHIK_clean_linker_0, # of connection points: 2
#     Edge 31, Type (0, 0), BuildingBlock: UVAHIK_clean_linker_0, # of connection points: 2
#     Edge 32, Type (0, 0), BuildingBlock: UVAHIK_clean_linker_0, # of connection points: 2
#     Edge 33, Type (0, 0), BuildingBlock: UVAHIK_clean_linker_0, # of connection points: 2
#     Edge 34, Type (0, 0), BuildingBlock: UVAHIK_clean_linker_0, # of connection points: 2
#     Edge 35, Type (0, 0), BuildingBlock: UVAHIK_clean_linker_0, # of connection points: 2
# Relax obj value: 0.122
# Max RMSD: 0.117
# Mean RMSD: 0.117
data_MOF--net-uol--node1-GALJAG_clean_sbu_0--edge1-UVAHIK_clean_linker_0
_symmetry_space_group_name_H-M    P1
_symmetry_Int_Tables_number       1
_symmetry_cell_setting            triclinic
loop_
_symmetry_equiv_pos_as_xyz
'x, y, z'
_cell_length_a     44.524738
_cell_length_b     44.495518
_cell_length_c     77.113734
_cell_angle_alpha  89.982467
_cell_angle_beta   90.012899
_cell_angle_gamma 119.99495
loop_
_atom_site_label
_atom_site_type_symbol
_atom_site_fract_x
_atom_site_fract_y
_atom_site_fract_z
_atom_type_partial_charge
In0 In 0.18647 0.371 0.08441 0.0
O1 O 0.12696 0.34005 0.08409 0.0
O2 O 0.15258 0.33975 0.10719 0.0
C3 C 0.19755 0.35333 0.05251 0.0
C4 C 0.19366 0.43508 0.08282 0.0
C5 C 0.23108 0.36381 0.1053 0.0
O6 O 0.17216 0.3331 0.06185 0.0
O7 O 0.21724 0.38264 0.05918 0.0
O8 O 0.22047 0.38476 0.10852 0.0
O9 O 0.21936 0.34663 0.09147 0.0
C10 C 0.12415 0.3296 0.09952 0.0
O11 O 0.21768 0.43003 0.08789 0.0
O12 O 0.16636 0.408 0.07832 0.0
In13 In 0.8059 0.1704 0.24648 0.0
O14 O 0.7943 0.11431 0.24843 0.0
O15 O 0.76744 0.13056 0.26538 0.0
C16 C 0.84049 0.18771 0.21594 0.0
C17 C 0.75234 0.18162 0.24157 0.0
C18 C 0.8558 0.20237 0.27079 0.0
O19 O 0.82138 0.15664 0.22062 0.0
O20 O 0.8416 0.20986 0.22648 0.0
O21 O 0.83694 0.21442 0.26581 0.0
O22 O 0.84967 0.1746 0.26344 0.0
C23 C 0.77248 0.10636 0.26053 0.0
O24 O 0.7772 0.19991 0.25166 0.0
O25 O 0.75493 0.1582 0.23363 0.0
In26 In 0.62871 0.80862 0.41708 0.0
O27 O 0.68173 0.8144 0.42272 0.0
O28 O 0.63841 0.76339 0.42095 0.0
C29 C 0.64397 0.83956 0.38568 0.0
C30 C 0.56185 0.75679 0.41772 0.0
C31 C 0.64091 0.85784 0.44117 0.0
O32 O 0.66023 0.82552 0.39188 0.0
O33 O 0.62002 0.83756 0.39521 0.0
O34 O 0.64125 0.83038 0.44469 0.0
O35 O 0.63389 0.86028 0.42561 0.0
C36 C 0.67045 0.78219 0.42386 0.0
O37 O 0.57743 0.77382 0.43106 0.0
O38 O 0.57984 0.76601 0.40408 0.0
In39 In 0.82062 0.63508 0.57701 0.0
O40 O 0.78825 0.57644 0.58088 0.0
O41 O 0.8356 0.59646 0.56682 0.0
C42 C 0.78529 0.65639 0.59731 0.0
C43 C 0.8804 0.66192 0.59507 0.0
C44 C 0.81029 0.65171 0.54469 0.0
O45 O 0.77471 0.62468 0.59458 0.0
O46 O 0.81328 0.67692 0.5898 0.0
O47 O 0.83968 0.66654 0.55187 0.0
O48 O 0.78647 0.62821 0.55365 0.0
C49 C 0.80939 0.57013 0.57302 0.0
O50 O 0.87758 0.67609 0.58144 0.0
O51 O 0.85326 0.63449 0.59948 0.0
In52 In 0.18553 0.81358 0.75092 0.0
O53 O 0.20935 0.87268 0.74941 0.0
O54 O 0.18933 0.84772 0.77363 0.0
C55 C 0.15555 0.79759 0.71917 0.0
C56 C 0.24489 0.81075 0.74991 0.0
C57 C 0.13477 0.77094 0.77286 0.0
O58 O 0.16317 0.82557 0.72681 0.0
O59 O 0.16412 0.77844 0.72726 0.0
O60 O 0.16574 0.77762 0.77449 0.0
O61 O 0.12951 0.78559 0.76015 0.0
C62 C 0.20406 0.8758 0.76524 0.0
O63 O 0.21544 0.78393 0.75107 0.0
O64 O 0.24434 0.83871 0.74898 0.0
In65 In 0.36083 0.18901 0.91402 0.0
O66 O 0.31198 0.19324 0.91725 0.0
O67 O 0.35957 0.23446 0.92683 0.0
C68 C 0.34354 0.15535 0.88318 0.0
C69 C 0.42702 0.2414 0.91226 0.0
C70 C 0.34483 0.14034 0.93893 0.0
O71 O 0.33334 0.17601 0.88764 0.0
O72 O 0.36278 0.15214 0.8941 0.0
O73 O 0.37274 0.1531 0.93044 0.0
O74 O 0.32521 0.15195 0.9348 0.0
C75 C 0.32738 0.22211 0.92496 0.0
O76 O 0.41538 0.22069 0.92492 0.0
O77 O 0.40537 0.23534 0.90028 0.0
In78 In 0.63529 0.82906 0.74704 0.0
O79 O 0.57702 0.80011 0.74192 0.0
O80 O 0.59626 0.83868 0.7616 0.0
C81 C 0.65074 0.79981 0.72036 0.0
C82 C 0.66739 0.89512 0.73551 0.0
C83 C 0.65365 0.80636 0.77553 0.0
O84 O 0.62056 0.78666 0.72659 0.0
O85 O 0.6729 0.82765 0.72751 0.0
O86 O 0.66076 0.83745 0.77396 0.0
O87 O 0.63693 0.78706 0.76303 0.0
C88 C 0.57033 0.81654 0.75314 0.0
O89 O 0.68145 0.8845 0.74625 0.0
O90 O 0.63733 0.87253 0.73074 0.0
In91 In 0.80871 0.62446 0.91751 0.0
O92 O 0.79099 0.66464 0.9143 0.0
O93 O 0.78763 0.63369 0.89261 0.0
C94 C 0.83604 0.63984 0.94974 0.0
C95 C 0.75134 0.56172 0.92085 0.0
C96 C 0.86495 0.63775 0.89844 0.0
O97 O 0.83033 0.66046 0.94101 0.0
O98 O 0.82713 0.61129 0.9424 0.0
O99 O 0.83844 0.60796 0.89931 0.0
O100 O 0.86321 0.66061 0.90732 0.0
C101 C 0.78285 0.65735 0.89854 0.0
O102 O 0.77896 0.56591 0.91405 0.0
O103 O 0.75286 0.58919 0.92635 0.0
In104 In 0.1784 0.8093 0.08452 0.0
O105 O 0.11949 0.7866 0.08359 0.0
O106 O 0.14443 0.78098 0.06137 0.0
C107 C 0.19123 0.84057 0.11578 0.0
C108 C 0.19181 0.75679 0.08824 0.0
C109 C 0.21313 0.86579 0.06413 0.0
O110 O 0.16119 0.8244 0.10932 0.0
O111 O 0.2146 0.84037 0.10661 0.0
O112 O 0.22468 0.84568 0.06756 0.0
O113 O 0.18435 0.85746 0.07105 0.0
C114 C 0.11643 0.77528 0.06831 0.0
O115 O 0.20663 0.7803 0.077 0.0
O116 O 0.17071 0.76014 0.09783 0.0
In117 In 0.36755 0.1781 0.24941 0.0
O118 O 0.42708 0.20881 0.25092 0.0
O119 O 0.40218 0.15401 0.2493 0.0
C120 C 0.3681 0.22614 0.2277 0.0
C121 C 0.32176 0.11581 0.23588 0.0
C122 C 0.3453 0.18527 0.28097 0.0
O123 O 0.37821 0.20542 0.22314 0.0
O124 O 0.35844 0.22313 0.24328 0.0
O125 O 0.32503 0.16681 0.26909 0.0
O126 O 0.37704 0.19949 0.27714 0.0
C127 C 0.43036 0.18229 0.25012 0.0
O128 O 0.33627 0.11878 0.25036 0.0
O129 O 0.32984 0.14418 0.22851 0.0
In130 In 0.18761 0.3694 0.41633 0.0
O131 O 0.21698 0.42547 0.40702 0.0
O132 O 0.23566 0.41276 0.42961 0.0
C133 C 0.13062 0.34572 0.39617 0.0
C134 C 0.22149 0.34089 0.40053 0.0
C135 C 0.15676 0.35329 0.4477 0.0
O136 O 0.14933 0.37744 0.3999 0.0
O137 O 0.1405 0.32616 0.40272 0.0
O138 O 0.17314 0.33908 0.44187 0.0
O139 O 0.15657 0.37584 0.43786 0.0
C140 C 0.23951 0.43582 0.41886 0.0
O141 O 0.21016 0.33288 0.41585 0.0
O142 O 0.2162 0.36343 0.39353 0.0
In143 In 0.82043 0.19466 0.58355 0.0
O144 O 0.78713 0.22023 0.58085 0.0
O145 O 0.83801 0.25041 0.59116 0.0
C146 C 0.78403 0.1409 0.56164 0.0
C147 C 0.88365 0.22165 0.56875 0.0
C148 C 0.80537 0.16878 0.61607 0.0
O149 O 0.78486 0.16951 0.5601 0.0
O150 O 0.80139 0.13946 0.57418 0.0
O151 O 0.83601 0.18468 0.61032 0.0
O152 O 0.7827 0.16677 0.60558 0.0
C153 C 0.81029 0.2493 0.58652 0.0
O154 O 0.87472 0.20092 0.5814 0.0
O155 O 0.8608 0.22843 0.56365 0.0
C156 C 0.21684 0.72143 0.07678 0.0
C157 C 0.19693 0.72652 0.08932 0.0
C158 C 0.21917 0.69125 0.0769 0.0
C159 C 0.17138 0.6008 0.09238 0.0
H160 H 0.25504 0.60007 0.07918 0.0
C161 C 0.22597 0.49854 0.08978 0.0
C162 C 0.19654 0.46961 0.08286 0.0
C163 C 0.22766 0.53075 0.09072 0.0
C164 C 0.23155 0.59986 0.08303 0.0
H165 H 0.16503 0.70479 0.11222 0.0
H166 H 0.16964 0.65244 0.11265 0.0
H167 H 0.25606 0.65525 0.08171 0.0
H168 H 0.14624 0.45181 0.07104 0.0
H169 H 0.1494 0.50801 0.07236 0.0
H170 H 0.147 0.54558 0.09404 0.0
C171 C 0.18285 0.67137 0.1025 0.0
C172 C 0.23203 0.63146 0.08431 0.0
C173 C 0.18039 0.70146 0.10233 0.0
C174 C 0.16918 0.47362 0.07654 0.0
C175 C 0.1709 0.50577 0.07741 0.0
C176 C 0.17091 0.56928 0.09115 0.0
C177 C 0.20175 0.6656 0.0896 0.0
C178 C 0.20189 0.63227 0.08892 0.0
C179 C 0.19996 0.53463 0.08471 0.0
C180 C 0.2009 0.56838 0.08633 0.0
H181 H 0.22982 0.74029 0.06657 0.0
H182 H 0.23365 0.68751 0.06667 0.0
H183 H 0.14756 0.60039 0.09574 0.0
H184 H 0.24743 0.49617 0.0948 0.0
H185 H 0.25027 0.55236 0.09655 0.0
C186 C 0.69075 0.15887 0.23275 0.0
C187 C 0.72121 0.18524 0.24039 0.0
C188 C 0.66015 0.16032 0.23329 0.0
C189 C 0.62417 0.21778 0.23844 0.0
H190 H 0.54359 0.13573 0.25647 0.0
C191 C 0.49513 0.21498 0.25304 0.0
C192 C 0.46429 0.18395 0.24949 0.0
C193 C 0.52715 0.21626 0.25211 0.0
C194 C 0.56562 0.1587 0.25115 0.0
H195 H 0.74401 0.2345 0.25393 0.0
H196 H 0.6905 0.23734 0.25455 0.0
H197 H 0.59822 0.13626 0.25334 0.0
H198 H 0.44268 0.13011 0.24195 0.0
H199 H 0.49824 0.13254 0.23976 0.0
H200 H 0.59145 0.23999 0.2358 0.0
C201 C 0.69034 0.21549 0.24827 0.0
C202 C 0.59695 0.15899 0.24942 0.0
C203 C 0.72087 0.2138 0.24795 0.0
C204 C 0.46602 0.15433 0.24493 0.0
C205 C 0.49794 0.15569 0.24378 0.0
C206 C 0.59263 0.21734 0.23993 0.0
C207 C 0.65955 0.18839 0.24127 0.0
C208 C 0.62647 0.18845 0.243 0.0
C209 C 0.52896 0.18662 0.24743 0.0
C210 C 0.56289 0.18771 0.24625 0.0
H211 H 0.69023 0.13652 0.22685 0.0
H212 H 0.6368 0.13926 0.22765 0.0
H213 H 0.64658 0.24078 0.23339 0.0
H214 H 0.4945 0.2382 0.25663 0.0
H215 H 0.5504 0.24039 0.25525 0.0
C216 C 0.51056 0.71123 0.43386 0.0
C217 C 0.52599 0.72736 0.41811 0.0
C218 C 0.47754 0.68175 0.43408 0.0
C219 C 0.41561 0.61134 0.40497 0.0
H220 H 0.3525 0.59038 0.44365 0.0
C221 C 0.27709 0.49354 0.40505 0.0
C222 C 0.26912 0.4716 0.4195 0.0
C223 C 0.30664 0.52647 0.40507 0.0
C224 C 0.36995 0.59597 0.43279 0.0
H225 H 0.51854 0.72643 0.39032 0.0
H226 H 0.46042 0.67599 0.39068 0.0
H227 H 0.40713 0.6455 0.44304 0.0
H228 H 0.28499 0.46729 0.44553 0.0
H229 H 0.33643 0.52529 0.44567 0.0
H230 H 0.37802 0.562 0.39464 0.0
C231 C 0.47414 0.68516 0.40286 0.0
C232 C 0.40133 0.62743 0.43246 0.0
C233 C 0.50737 0.71426 0.40263 0.0
C234 C 0.29058 0.48366 0.4342 0.0
C235 C 0.31987 0.51684 0.43432 0.0
C236 C 0.38405 0.58022 0.40519 0.0
C237 C 0.45901 0.66807 0.41854 0.0
C238 C 0.42475 0.63541 0.41861 0.0
C239 C 0.32847 0.53828 0.41964 0.0
C240 C 0.36108 0.5721 0.41916 0.0
H241 H 0.52444 0.72073 0.44599 0.0
H242 H 0.46707 0.66911 0.44638 0.0
H243 H 0.43318 0.61606 0.39428 0.0
H244 H 0.26101 0.48492 0.39354 0.0
H245 H 0.31262 0.54263 0.39364 0.0
C246 C 0.7739 0.50569 0.57697 0.0
C247 C 0.80537 0.53514 0.57235 0.0
C248 C 0.7711 0.47294 0.57745 0.0
C249 C 0.81731 0.42585 0.56396 0.0
H250 H 0.76294 0.36241 0.60077 0.0
C251 C 0.83626 0.31357 0.58701 0.0
C252 C 0.8066 0.28046 0.58623 0.0
C253 C 0.83347 0.34326 0.58502 0.0
C254 C 0.77798 0.37983 0.59036 0.0
H255 H 0.85851 0.55352 0.56456 0.0
H256 H 0.8542 0.49704 0.56603 0.0
H257 H 0.76295 0.41699 0.59725 0.0
H258 H 0.75066 0.25238 0.58343 0.0
H259 H 0.74573 0.30471 0.58055 0.0
H260 H 0.83361 0.38925 0.55773 0.0
C261 C 0.83121 0.49867 0.56875 0.0
C262 C 0.77787 0.41101 0.58824 0.0
C263 C 0.83381 0.53122 0.568 0.0
C264 C 0.77393 0.27762 0.58407 0.0
C265 C 0.77108 0.30743 0.58244 0.0
C266 C 0.81792 0.39506 0.56632 0.0
C267 C 0.79988 0.46905 0.57358 0.0
C268 C 0.79789 0.43467 0.57512 0.0
C269 C 0.80093 0.34043 0.58257 0.0
C270 C 0.79856 0.37199 0.57963 0.0
H271 H 0.7515 0.50798 0.58032 0.0
H272 H 0.74638 0.45073 0.58092 0.0
H273 H 0.83232 0.44282 0.55343 0.0
H274 H 0.86179 0.31655 0.58859 0.0
H275 H 0.8568 0.3685 0.58529 0.0
C276 C 0.50639 0.78393 0.74765 0.0
C277 C 0.53552 0.81251 0.75504 0.0
C278 C 0.474 0.78185 0.74804 0.0
C279 C 0.43601 0.83693 0.7477 0.0
H280 H 0.35153 0.75688 0.76405 0.0
C281 C 0.30908 0.84033 0.75343 0.0
C282 C 0.27756 0.80983 0.75022 0.0
C283 C 0.34003 0.83964 0.75426 0.0
C284 C 0.37473 0.77923 0.75914 0.0
H285 H 0.55359 0.86092 0.76892 0.0
H286 H 0.4971 0.85763 0.76922 0.0
H287 H 0.40633 0.75681 0.76541 0.0
H288 H 0.25362 0.75473 0.74511 0.0
H289 H 0.30787 0.75363 0.7458 0.0
H290 H 0.4048 0.85904 0.74078 0.0
C291 C 0.49934 0.83678 0.76327 0.0
C292 C 0.40611 0.77921 0.76005 0.0
C293 C 0.53155 0.83854 0.76317 0.0
C294 C 0.27758 0.77861 0.74767 0.0
C295 C 0.30868 0.77799 0.74821 0.0
C296 C 0.40464 0.83674 0.74649 0.0
C297 C 0.47041 0.80864 0.75553 0.0
C298 C 0.43703 0.80821 0.75449 0.0
C299 C 0.34034 0.8085 0.75158 0.0
C300 C 0.37358 0.80804 0.75236 0.0
H301 H 0.50876 0.76349 0.74131 0.0
H302 H 0.45205 0.75996 0.74194 0.0
H303 H 0.45948 0.85938 0.74305 0.0
H304 H 0.30978 0.86473 0.75562 0.0
H305 H 0.36364 0.86352 0.75728 0.0
C306 C 0.4849 0.27787 0.92617 0.0
C307 C 0.46232 0.27191 0.9122 0.0
C308 C 0.51721 0.30816 0.92689 0.0
C309 C 0.56256 0.39791 0.91086 0.0
H310 H 0.64497 0.39796 0.9272 0.0
C311 C 0.71897 0.498 0.91485 0.0
C312 C 0.71923 0.52762 0.92136 0.0
C313 C 0.68812 0.46615 0.91419 0.0
C314 C 0.62221 0.39834 0.92254 0.0
H315 H 0.45621 0.29244 0.88779 0.0
H316 H 0.51283 0.34529 0.88897 0.0
H317 H 0.5907 0.34304 0.92411 0.0
H318 H 0.68761 0.547 0.93266 0.0
H319 H 0.63372 0.49128 0.93163 0.0
H320 H 0.5941 0.45312 0.90908 0.0
C321 C 0.50535 0.32674 0.89947 0.0
C322 C 0.59108 0.36693 0.9209 0.0
C323 C 0.47305 0.29638 0.89873 0.0
C324 C 0.68818 0.52462 0.92754 0.0
C325 C 0.6573 0.49278 0.92684 0.0
C326 C 0.59362 0.4293 0.91255 0.0
C327 C 0.52758 0.33317 0.91368 0.0
C328 C 0.56091 0.36638 0.91504 0.0
C329 C 0.65687 0.46329 0.91998 0.0
C330 C 0.62379 0.42988 0.91842 0.0
H331 H 0.4773 0.25949 0.93676 0.0
H332 H 0.5336 0.31249 0.93807 0.0
H333 H 0.53967 0.39841 0.90651 0.0
H334 H 0.74251 0.49954 0.90996 0.0
H335 H 0.68859 0.444 0.90869 0.0
C336 C 0.36681 0.24563 0.19745 0.0
C337 C 0.36447 0.24953 0.21538 0.0
C338 C 0.35892 0.26463 0.18571 0.0
C339 C 0.30782 0.30913 0.18349 0.0
H340 H 0.34931 0.33617 0.13782 0.0
C341 C 0.26135 0.3737 0.13382 0.0
C342 C 0.25358 0.35815 0.11734 0.0
C343 C 0.28007 0.36595 0.1458 0.0
C344 C 0.33751 0.32874 0.15054 0.0
H345 H 0.3542 0.27785 0.23514 0.0
H346 H 0.34151 0.31184 0.21469 0.0
H347 H 0.37385 0.31369 0.15907 0.0
H348 H 0.2605 0.32345 0.10021 0.0
H349 H 0.29331 0.31001 0.12112 0.0
H350 H 0.27135 0.32392 0.17491 0.0
C351 C 0.34839 0.29338 0.20964 0.0
C352 C 0.35147 0.31577 0.1627 0.0
C353 C 0.3559 0.2741 0.22137 0.0
C354 C 0.26604 0.33576 0.11283 0.0
C355 C 0.285 0.32824 0.12476 0.0
C356 C 0.2941 0.32237 0.1714 0.0
C357 C 0.34886 0.2882 0.19166 0.0
C358 C 0.33642 0.30524 0.17924 0.0
C359 C 0.29164 0.34274 0.14148 0.0
C360 C 0.30842 0.33178 0.15471 0.0
H361 H 0.37325 0.22679 0.19247 0.0
H362 H 0.3592 0.25961 0.17199 0.0
H363 H 0.29506 0.3007 0.19594 0.0
H364 H 0.25218 0.39114 0.13764 0.0
H365 H 0.28511 0.37777 0.15853 0.0
C366 C 0.892 0.25201 0.29077 0.0
C367 C 0.88253 0.21886 0.28438 0.0
C368 C 0.91729 0.26727 0.3037 0.0
C369 C 0.95882 0.24541 0.33879 0.0
H370 H 0.03548 0.33933 0.33324 0.0
C371 C 0.08283 0.29747 0.37951 0.0
C372 C 0.10011 0.33241 0.38465 0.0
C373 C 0.05467 0.28482 0.36818 0.0
C374 C 0.01395 0.3133 0.33516 0.0
H375 H 0.89193 0.17564 0.28651 0.0
H376 H 0.93574 0.20211 0.30914 0.0
H377 H 0.98895 0.31519 0.31175 0.0
H378 H 0.10119 0.38146 0.38218 0.0
H379 H 0.05141 0.3592 0.3626 0.0
H380 H 0.98351 0.24332 0.36216 0.0
C381 C 0.92361 0.21627 0.30421 0.0
C382 C 0.98737 0.29948 0.32282 0.0
C383 C 0.89868 0.20123 0.29118 0.0
C384 C 0.08841 0.35441 0.37839 0.0
C385 C 0.06003 0.34169 0.3671 0.0
C386 C 0.98518 0.25928 0.35119 0.0
C387 C 0.93317 0.24942 0.31061 0.0
C388 C 0.95989 0.26518 0.32436 0.0
C389 C 0.04291 0.30675 0.3618 0.0
C390 C 0.01344 0.29316 0.34936 0.0
H391 H 0.87995 0.26618 0.28574 0.0
H392 H 0.92409 0.2928 0.30847 0.0
H393 H 0.93762 0.21909 0.34045 0.0
H394 H 0.09138 0.27992 0.38404 0.0
H395 H 0.0426 0.25796 0.36414 0.0
C396 C 0.76195 0.07921 0.55315 0.0
C397 C 0.76479 0.11151 0.54964 0.0
C398 C 0.74459 0.05153 0.54165 0.0
C399 C 0.71995 0.03233 0.49598 0.0
H400 H 0.65931 0.93893 0.5129 0.0
C401 C 0.6497 0.91614 0.44929 0.0
C402 C 0.64978 0.88568 0.45401 0.0
C403 C 0.66017 0.94338 0.46112 0.0
C404 C 0.67638 0.96481 0.50797 0.0
H405 H 0.75146 0.14015 0.53144 0.0
H406 H 0.72123 0.09169 0.51123 0.0
H407 H 0.68431 0.98733 0.53329 0.0
H408 H 0.66022 0.85953 0.47487 0.0
H409 H 0.67893 0.90716 0.49544 0.0
H410 H 0.71278 0.00983 0.47074 0.0
C411 C 0.73253 0.08788 0.52287 0.0
C412 C 0.69064 0.99252 0.51965 0.0
C413 C 0.74968 0.11553 0.53447 0.0
C414 C 0.6598 0.88267 0.47089 0.0
C415 C 0.67033 0.90991 0.4827 0.0
C416 C 0.70581 0.0046 0.4843 0.0
C417 C 0.7299 0.05561 0.52633 0.0
C418 C 0.71289 0.02652 0.5138 0.0
C419 C 0.67098 0.94074 0.47791 0.0
C420 C 0.68417 0.97045 0.49019 0.0
H421 H 0.77333 0.07534 0.56475 0.0
H422 H 0.74337 0.02713 0.54457 0.0
H423 H 0.73735 0.05818 0.49111 0.0
H424 H 0.64198 0.91914 0.43638 0.0
H425 H 0.65989 0.96655 0.45709 0.0
C426 C 0.78224 0.70444 0.61225 0.0
C427 C 0.76698 0.66889 0.60858 0.0
C428 C 0.76565 0.71667 0.62311 0.0
C429 C 0.69915 0.68866 0.65746 0.0
H430 H 0.70839 0.77868 0.64843 0.0
C431 C 0.63682 0.74934 0.70094 0.0
C432 C 0.65984 0.78362 0.70614 0.0
C433 C 0.64633 0.73369 0.68798 0.0
C434 C 0.70564 0.75352 0.65112 0.0
H435 H 0.72217 0.61821 0.61321 0.0
H436 H 0.69269 0.63966 0.63201 0.0
H437 H 0.73085 0.75381 0.62749 0.0
H438 H 0.71048 0.82865 0.70165 0.0
H439 H 0.72687 0.80152 0.6789 0.0
H440 H 0.67391 0.68859 0.68114 0.0
C441 C 0.7178 0.65804 0.62669 0.0
C442 C 0.71861 0.7393 0.63917 0.0
C443 C 0.73457 0.64576 0.61587 0.0
C444 C 0.69221 0.80218 0.69792 0.0
C445 C 0.70152 0.78673 0.68483 0.0
C446 C 0.68588 0.70278 0.66935 0.0
C447 C 0.7332 0.69368 0.63047 0.0
C448 C 0.71625 0.70705 0.64237 0.0
C449 C 0.6788 0.75226 0.67982 0.0
C450 C 0.68966 0.73568 0.66646 0.0
H451 H 0.80731 0.72291 0.60691 0.0
H452 H 0.77866 0.74416 0.62599 0.0
H453 H 0.69717 0.66394 0.66043 0.0
H454 H 0.61171 0.73442 0.70709 0.0
H455 H 0.62828 0.70714 0.68429 0.0
C456 C 0.89425 0.62047 0.87609 0.0
C457 C 0.89488 0.6458 0.8872 0.0
C458 C 0.92151 0.62898 0.86451 0.0
C459 C 0.01255 0.69553 0.85488 0.0
H460 H 0.98682 0.6657 0.80726 0.0
C461 C 0.11496 0.73712 0.80054 0.0
C462 C 0.10728 0.74967 0.78545 0.0
C463 C 0.08941 0.71944 0.8131 0.0
C464 C 0.99442 0.67418 0.82051 0.0
H465 H 0.92494 0.69954 0.89531 0.0
H466 H 0.97234 0.71445 0.87507 0.0
H467 H 0.94217 0.64473 0.82964 0.0
H468 H 0.06665 0.75262 0.77139 0.0
H469 H 0.02221 0.72202 0.79328 0.0
H470 H 0.06459 0.72612 0.84562 0.0
C471 C 0.95101 0.68795 0.87537 0.0
C472 C 0.9689 0.66188 0.83336 0.0
C473 C 0.92374 0.67947 0.8869 0.0
C474 C 0.07335 0.74325 0.78289 0.0
C475 C 0.04781 0.7255 0.79539 0.0
C476 C 0.03809 0.70777 0.84203 0.0
C477 C 0.94998 0.66294 0.86387 0.0
C478 C 0.97759 0.67298 0.85063 0.0
C479 C 0.05567 0.71384 0.81076 0.0
C480 C 0.02919 0.69778 0.82464 0.0
H481 H 0.87237 0.59426 0.87608 0.0
H482 H 0.92016 0.60907 0.85593 0.0
H483 H 0.02011 0.70424 0.8681 0.0
H484 H 0.1409 0.74163 0.80284 0.0
H485 H 0.09614 0.71044 0.82472 0.0
C486 C 0.26281 0.90423 0.04466 0.0
C487 C 0.23131 0.89626 0.05264 0.0
C488 C 0.27926 0.93255 0.03338 0.0
C489 C 0.28145 0.01412 0.02091 0.0
H490 H 0.31717 0.00221 0.97715 0.0
C491 C 0.30558 0.10348 0.96262 0.0
C492 C 0.33566 0.11407 0.95268 0.0
C493 C 0.29653 0.07864 0.97563 0.0
C494 C 0.30779 0.00611 0.98943 0.0
H495 H 0.19246 0.91178 0.05519 0.0
H496 H 0.22083 0.9608 0.03544 0.0
H497 H 0.29479 0.95561 0.99862 0.0
H498 H 0.37992 0.10702 0.94857 0.0
H499 H 0.36392 0.06326 0.97137 0.0
H500 H 0.29367 0.06425 0.01157 0.0
C501 C 0.23318 0.94558 0.03804 0.0
C502 C 0.29499 0.97944 0.00173 0.0
C503 C 0.21678 0.91733 0.04928 0.0
C504 C 0.35656 0.09931 0.95603 0.0
C505 C 0.34735 0.07421 0.96902 0.0
C506 C 0.29412 0.04068 0.00861 0.0
C507 C 0.26454 0.95349 0.0299 0.0
C508 C 0.28107 0.9829 0.01748 0.0
C509 C 0.31726 0.06369 0.97898 0.0
C510 C 0.30683 0.03672 0.99261 0.0
H511 H 0.27464 0.88845 0.04704 0.0
H512 H 0.30355 0.93815 0.02743 0.0
H513 H 0.2716 0.01791 0.03306 0.0
H514 H 0.28893 0.11435 0.96033 0.0
H515 H 0.27291 0.0707 0.9829 0.0
C516 C 0.2369 0.36319 0.0274 0.0
C517 C 0.20489 0.34263 0.03565 0.0
C518 C 0.24523 0.35147 0.01233 0.0
C519 C 0.22237 0.26967 0.98981 0.0
H520 H 0.28352 0.33194 0.95431 0.0
C521 C 0.27265 0.2201 0.93441 0.0
C522 C 0.30893 0.23857 0.9328 0.0
C523 C 0.25572 0.23392 0.94399 0.0
C524 C 0.26634 0.31425 0.9641 0.0
H525 H 0.15571 0.29458 0.03416 0.0
H526 H 0.16981 0.27448 0.00762 0.0
H527 H 0.26084 0.3541 0.97668 0.0
H528 H 0.35575 0.28672 0.93901 0.0
H529 H 0.32621 0.31089 0.95562 0.0
H530 H 0.22833 0.22999 0.97739 0.0
C531 C 0.18891 0.29925 0.013 0.0
C532 C 0.25346 0.32694 0.97696 0.0
C533 C 0.18073 0.31084 0.02815 0.0
C534 C 0.32776 0.27187 0.94009 0.0
C535 C 0.31082 0.2858 0.94951 0.0
C536 C 0.23501 0.25696 0.97688 0.0
C537 C 0.22157 0.31906 0.00511 0.0
C538 C 0.23196 0.30496 0.99022 0.0
C539 C 0.27474 0.26658 0.95196 0.0
C540 C 0.25774 0.27927 0.96413 0.0
H541 H 0.25606 0.38779 0.03291 0.0
H542 H 0.27079 0.36724 0.00678 0.0
H543 H 0.20638 0.25206 -7e-05 0.0
H544 H 0.25748 0.19439 0.92891 0.0
H545 H 0.22784 0.21868 0.94555 0.0
C546 C 0.88236 0.2327 0.19552 0.0
C547 C 0.86195 0.19759 0.20009 0.0
C548 C 0.90539 0.24253 0.18158 0.0
C549 C 0.95718 0.21327 0.15798 0.0
H550 H 0.97756 0.29127 0.12805 0.0
C551 C 0.08929 0.29597 0.12511 0.0
C552 C 0.09044 0.30844 0.10826 0.0
C553 C 0.05782 0.2778 0.13392 0.0
C554 C 0.97188 0.26911 0.13611 0.0
H555 H 0.84851 0.14507 0.19324 0.0
H556 H 0.88884 0.16228 0.16883 0.0
H557 H 0.92726 0.26799 0.14724 0.0
H558 H 0.0595 0.31099 0.08721 0.0
H559 H 0.00428 0.27921 0.1027 0.0
H560 H 0.00215 0.21479 0.1471 0.0
C561 C 0.88721 0.18221 0.17613 0.0
C562 C 0.94328 0.25601 0.14722 0.0
C563 C 0.86402 0.17235 0.19004 0.0
C564 C 0.05937 0.30171 0.10021 0.0
C565 C 0.02782 0.28367 0.10909 0.0
C566 C 0.98584 0.22645 0.14693 0.0
C567 C 0.90859 0.21746 0.17195 0.0
C568 C 0.93607 0.22845 0.15856 0.0
C569 C 0.02678 0.27181 0.12611 0.0
C570 C 0.99396 0.25503 0.13617 0.0
H571 H 0.8813 0.25273 0.20302 0.0
H572 H 0.92176 0.26992 0.17884 0.0
H573 H 0.9525 0.19219 0.16663 0.0
H574 H 0.11283 0.30076 0.13164 0.0
H575 H 0.05798 0.26944 0.1471 0.0
C576 C 0.76818 0.04912 0.26686 0.0
C577 C 0.75542 0.07208 0.26905 0.0
C578 C 0.75379 0.01803 0.27622 0.0
C579 C 0.67685 0.95622 0.3012 0.0
H580 H 0.74178 0.94248 0.32883 0.0
C581 C 0.63645 0.87675 0.36394 0.0
C582 C 0.65331 0.85868 0.36908 0.0
C583 C 0.64689 0.89724 0.34904 0.0
C584 C 0.72323 0.94533 0.32095 0.0
H585 H 0.71679 0.07997 0.2821 0.0
H586 H 0.69142 0.02558 0.29823 0.0
H587 H 0.7635 0.9883 0.30707 0.0
H588 H 0.69337 0.84668 0.36228 0.0
H589 H 0.71129 0.88206 0.33595 0.0
H590 H 0.63654 0.91365 0.31518 0.0
C591 C 0.71253 0.03157 0.28934 0.0
C592 C 0.73573 0.97168 0.3085 0.0
C593 C 0.72719 0.0628 0.2802 0.0
C594 C 0.68005 0.86051 0.35867 0.0
C595 C 0.6904 0.88091 0.34365 0.0
C596 C 0.66432 0.92966 0.31352 0.0
C597 C 0.72605 0.00916 0.28768 0.0
C598 C 0.71268 0.97801 0.29887 0.0
C599 C 0.6743 0.89999 0.33881 0.0
C600 C 0.68737 0.92458 0.32393 0.0
H601 H 0.78995 0.05567 0.25835 0.0
H602 H 0.76459 0.00113 0.27466 0.0
H603 H 0.65852 0.96026 0.29377 0.0
H604 H 0.61579 0.87592 0.37172 0.0
H605 H 0.63426 0.91198 0.34593 0.0
C606 C 0.82854 0.69377 0.51997 0.0
C607 C 0.80348 0.66272 0.52777 0.0
C608 C 0.82044 0.70623 0.50507 0.0
C609 C 0.75663 0.68203 0.46937 0.0
H610 H 0.77572 0.77678 0.47369 0.0
C611 C 0.67659 0.73244 0.43436 0.0
C612 C 0.69202 0.7678 0.43016 0.0
C613 C 0.69563 0.71967 0.44285 0.0
C614 C 0.77083 0.75056 0.47197 0.0
H615 H 0.75098 0.61943 0.5256 0.0
H616 H 0.7369 0.64105 0.4996 0.0
H617 H 0.79976 0.75397 0.49476 0.0
H618 H 0.7401 0.81707 0.43042 0.0
H619 H 0.77366 0.79463 0.44485 0.0
H620 H 0.72707 0.67838 0.44677 0.0
C621 C 0.76281 0.65577 0.50494 0.0
C622 C 0.7846 0.73745 0.48411 0.0
C623 C 0.77079 0.6435 0.5199 0.0
C624 C 0.72744 0.78973 0.43363 0.0
C625 C 0.74659 0.7769 0.44201 0.0
C626 C 0.74306 0.69522 0.45712 0.0
C627 C 0.78725 0.68767 0.49759 0.0
C628 C 0.7769 0.70279 0.48322 0.0
C629 C 0.73064 0.74193 0.44721 0.0
C630 C 0.74919 0.72937 0.45855 0.0
H631 H 0.85398 0.7091 0.52574 0.0
H632 H 0.83988 0.73075 0.4996 0.0
H633 H 0.75064 0.65533 0.46823 0.0
H634 H 0.64931 0.7149 0.43187 0.0
H635 H 0.68229 0.69271 0.4468 0.0
C636 C 0.12674 0.80869 0.694 0.0
C637 C 0.13447 0.7861 0.70319 0.0
C638 C 0.10302 0.79629 0.68026 0.0
C639 C 0.02537 0.71839 0.66765 0.0
H640 H 0.03838 0.75862 0.62175 0.0
C641 C 0.91789 0.65483 0.6167 0.0
C642 C 0.91257 0.67636 0.60536 0.0
C643 C 0.94733 0.66846 0.6272 0.0
C644 C 0.03412 0.74734 0.63458 0.0
H645 H 0.12463 0.73325 0.70474 0.0
H646 H 0.08275 0.71157 0.68101 0.0
H647 H 0.08641 0.78306 0.64251 0.0
H648 H 0.93393 0.72892 0.59585 0.0
H649 H 0.98469 0.75327 0.61478 0.0
H650 H 0.97298 0.68381 0.66036 0.0
C651 C 0.09514 0.73882 0.6844 0.0
C652 C 0.06172 0.76125 0.64639 0.0
C653 C 0.11919 0.75129 0.69792 0.0
C654 C 0.93754 0.71175 0.60446 0.0
C655 C 0.96673 0.72561 0.61526 0.0
C656 C 0.99769 0.70492 0.65602 0.0
C657 C 0.0863 0.76103 0.6757 0.0
C658 C 0.05759 0.74667 0.66297 0.0
C659 C 0.97181 0.70419 0.62694 0.0
C660 C 0.00167 0.71897 0.63925 0.0
H661 H 0.13817 0.83566 0.69778 0.0
H662 H 0.09648 0.81386 0.67377 0.0
H663 H 0.02137 0.7071 0.68048 0.0
H664 H 0.89924 0.62733 0.61748 0.0
H665 H 0.95072 0.65087 0.63559 0.0
C666 C 0.30562 0.13399 0.85684 0.0
C667 C 0.3321 0.1347 0.86706 0.0
C668 C 0.29242 0.11162 0.8426 0.0
C669 C 0.30962 0.05627 0.81298 0.0
H670 H 0.20952 0.99777 0.81247 0.0
C671 C 0.23905 0.94085 0.76545 0.0
C672 C 0.21569 0.90961 0.77372 0.0
C673 C 0.25226 0.97247 0.77428 0.0
C674 C 0.23749 0.01407 0.81237 0.0
H675 H 0.36662 0.11383 0.86996 0.0
H676 H 0.34367 0.07491 0.84515 0.0
H677 H 0.23657 0.04679 0.83243 0.0
H678 H 0.18679 0.887 0.79738 0.0
H679 H 0.20957 0.94196 0.81267 0.0
H680 H 0.31055 0.02257 0.79342 0.0
C681 C 0.33316 0.09166 0.84805 0.0
C682 C 0.25297 0.04232 0.82368 0.0
C683 C 0.34615 0.11379 0.86234 0.0
C684 C 0.2048 0.91066 0.79068 0.0
C685 C 0.21767 0.94218 0.7994 0.0
C686 C 0.2941 0.02812 0.80157 0.0
C687 C 0.30568 0.08981 0.83823 0.0
C688 C 0.28925 0.06315 0.82445 0.0
C689 C 0.24194 0.97338 0.79142 0.0
C690 C 0.25793 0.00616 0.8015 0.0
H691 H 0.29435 0.14989 0.86016 0.0
H692 H 0.27143 0.11094 0.83518 0.0
H693 H 0.33763 0.07209 0.81316 0.0
H694 H 0.24789 0.94077 0.75238 0.0
H695 H 0.2708 0.99616 0.76778 0.0
C696 C 0.68236 0.81475 0.80462 0.0
C697 C 0.66579 0.7937 0.79014 0.0
C698 C 0.69571 0.80299 0.81777 0.0
C699 C 0.73069 0.74541 0.82385 0.0
H700 H 0.70801 0.74184 0.87263 0.0
C701 C 0.75711 0.66256 0.87087 0.0
C702 C 0.76936 0.67519 0.88759 0.0
C703 C 0.74559 0.67973 0.86001 0.0
C704 C 0.71506 0.7432 0.8591 0.0
H705 H 0.6495 0.74367 0.77825 0.0
H706 H 0.67317 0.72355 0.80096 0.0
H707 H 0.68584 0.76775 0.85181 0.0
H708 H 0.77864 0.71543 0.9062 0.0
H709 H 0.75896 0.74604 0.88698 0.0
H710 H 0.75999 0.72125 0.83087 0.0
C711 C 0.67586 0.74905 0.80217 0.0
C712 C 0.70231 0.75795 0.84721 0.0
C713 C 0.66218 0.76054 0.78922 0.0
C714 C 0.76931 0.70513 0.89336 0.0
C715 C 0.75793 0.72255 0.88238 0.0
C716 C 0.74367 0.73107 0.83567 0.0
C717 C 0.69314 0.77029 0.81644 0.0
C718 C 0.70934 0.75833 0.82943 0.0
C719 C 0.74634 0.71024 0.86549 0.0
C720 C 0.73526 0.72888 0.85338 0.0
H721 H 0.68543 0.84041 0.80566 0.0
H722 H 0.70896 0.81981 0.82867 0.0
H723 H 0.73702 0.74601 0.81024 0.0
H724 H 0.75648 0.63935 0.86611 0.0
H725 H 0.73599 0.66896 0.84727 0.0
C726 C 0.87272 0.6844 0.9718 0.0
C727 C 0.8552 0.64966 0.96632 0.0
C728 C 0.89533 0.69458 0.98596 0.0
C729 C 0.95015 0.66691 0.00851 0.0
H730 H 0.9705 0.74441 0.03875 0.0
C731 C 0.08174 0.74555 0.04199 0.0
C732 C 0.083 0.75741 0.05899 0.0
C733 C 0.05055 0.72945 0.03285 0.0
C734 C 0.96484 0.72241 0.03058 0.0
H735 H 0.84544 0.59786 0.97211 0.0
H736 H 0.88414 0.6154 0.99708 0.0
H737 H 0.91972 0.72091 0.01984 0.0
H738 H 0.05255 0.7615 0.07983 0.0
H739 H 0.99772 0.73302 0.0638 0.0
H740 H 0.99515 0.66835 0.01917 0.0
C741 C 0.88126 0.63501 0.99017 0.0
C742 C 0.93596 0.70918 0.01961 0.0
C743 C 0.85892 0.62491 0.97593 0.0
C744 C 0.05232 0.75261 0.06672 0.0
C745 C 0.02101 0.73648 0.05753 0.0
C746 C 0.97888 0.68004 0.01948 0.0
C747 C 0.90065 0.67014 0.995 0.0
C748 C 0.92868 0.68171 0.00819 0.0
C749 C 0.01982 0.72475 0.04047 0.0
C750 C 0.98705 0.70847 0.03034 0.0
H751 H 0.87036 0.70405 0.96462 0.0
H752 H 0.91002 0.72189 0.9892 0.0
H753 H 0.94566 0.64602 -0.00023 0.0
H754 H 0.10496 0.749 0.03565 0.0
H755 H 0.05071 0.72131 0.01963 0.0
C756 C 0.23332 0.88034 0.13788 0.0
C757 C 0.19894 0.86041 0.13211 0.0
C758 C 0.24121 0.90199 0.1523 0.0
C759 C 0.20754 0.95021 0.17618 0.0
H760 H 0.2845 0.97088 0.20687 0.0
C761 C 0.28516 0.08076 0.21104 0.0
C762 C 0.2994 0.082 0.22745 0.0
C763 C 0.26717 0.04942 0.20209 0.0
C764 C 0.26253 0.96507 0.19864 0.0
H765 H 0.14562 0.8462 0.13736 0.0
H766 H 0.15934 0.88374 0.16272 0.0
H767 H 0.26378 0.92215 0.18686 0.0
H768 H 0.30468 0.05119 0.24772 0.0
H769 H 0.27287 0.99617 0.23211 0.0
H770 H 0.20647 0.99327 0.18786 0.0
C771 C 0.18028 0.88307 0.15593 0.0
C772 C 0.25094 0.93738 0.18701 0.0
C773 C 0.1724 0.86143 0.14147 0.0
C774 C 0.29407 0.05102 0.23506 0.0
C775 C 0.27604 0.01957 0.22608 0.0
C776 C 0.21908 0.97783 0.18783 0.0
C777 C 0.21487 0.90413 0.1613 0.0
C778 C 0.22394 0.93022 0.17532 0.0
C779 C 0.26295 0.01854 0.20935 0.0
C780 C 0.24734 0.98619 0.19886 0.0
H781 H 0.25434 0.88012 0.13093 0.0
H782 H 0.26817 0.91817 0.15591 0.0
H783 H 0.18683 0.94561 0.1673 0.0
H784 H 0.28885 0.10422 0.20483 0.0
H785 H 0.25789 0.04971 0.18914 0.0
C786 C 0.35583 0.21818 0.30877 0.0
C787 C 0.33262 0.19289 0.29715 0.0
C788 C 0.34339 0.22935 0.32255 0.0
C789 C 0.26828 0.23851 0.33237 0.0
H790 H 0.30969 0.26684 0.37801 0.0
C791 C 0.24738 0.3329 0.37355 0.0
C792 C 0.23746 0.32373 0.39091 0.0
C793 C 0.25952 0.3149 0.36372 0.0
C794 C 0.29774 0.25878 0.36535 0.0
H795 H 0.27831 0.15759 0.29157 0.0
H796 H 0.25666 0.17684 0.31566 0.0
H797 H 0.32879 0.23604 0.35852 0.0
H798 H 0.23375 0.28943 0.4118 0.0
H799 H 0.25534 0.25788 0.39449 0.0
H800 H 0.23764 0.2615 0.33897 0.0
C801 C 0.28443 0.1885 0.31397 0.0
C802 C 0.30878 0.24138 0.35418 0.0
C803 C 0.29683 0.17737 0.30022 0.0
C804 C 0.24118 0.297 0.39844 0.0
C805 C 0.25359 0.27904 0.38857 0.0
C806 C 0.2575 0.25604 0.34342 0.0
C807 C 0.30754 0.21542 0.32493 0.0
C808 C 0.29433 0.23133 0.33751 0.0
C809 C 0.26214 0.28738 0.371 0.0
C810 C 0.27243 0.26681 0.35992 0.0
H811 H 0.38357 0.23055 0.30674 0.0
H812 H 0.36186 0.25025 0.33072 0.0
H813 H 0.25694 0.23157 0.31954 0.0
H814 H 0.24504 0.35352 0.3674 0.0
H815 H 0.26652 0.32231 0.3503 0.0
C816 C 0.13533 0.31563 0.47421 0.0
C817 C 0.13733 0.34297 0.46421 0.0
C818 C 0.11425 0.30406 0.48899 0.0
C819 C 0.06447 0.32785 0.51948 0.0
H820 H 0.00352 0.22833 0.52323 0.0
C821 C 0.92906 0.26583 0.54946 0.0
C822 C 0.91798 0.23693 0.56037 0.0
C823 C 0.96083 0.27986 0.5409 0.0
C824 C 0.02079 0.25614 0.52257 0.0
H825 H 0.11983 0.38039 0.46211 0.0
H826 H 0.08288 0.36004 0.48756 0.0
H827 H 0.0511 0.25141 0.50238 0.0
H828 H 0.93149 0.2002 0.57108 0.0
H829 H 0.98707 0.22442 0.55567 0.0
H830 H 0.0329 0.33251 0.53904 0.0
C831 C 0.09785 0.34775 0.48427 0.0
C832 C 0.04811 0.2694 0.51065 0.0
C833 C 0.11886 0.35927 0.46956 0.0
C834 C 0.93949 0.22253 0.56274 0.0
C835 C 0.97116 0.23628 0.55392 0.0
C836 C 0.03702 0.3146 0.53128 0.0
C837 C 0.09485 0.31967 0.49403 0.0
C838 C 0.0696 0.30547 0.50859 0.0
C839 C 0.98204 0.26504 0.54288 0.0
C840 C 0.01431 0.27867 0.53257 0.0
H841 H 0.14938 0.30264 0.47041 0.0
H842 H 0.1128 0.28261 0.49633 0.0
H843 H 0.08103 0.35572 0.51852 0.0
H844 H 0.91306 0.27753 0.54743 0.0
H845 H 0.96834 0.30174 0.5323 0.0
C846 C 0.66644 0.94208 0.7183 0.0
C847 C 0.68515 0.9306 0.72828 0.0
C848 C 0.68337 0.97448 0.71024 0.0
C849 C 0.76703 0.03591 0.69177 0.0
H850 H 0.72556 0.09419 0.68734 0.0
C851 C 0.82145 0.15014 0.64356 0.0
C852 C 0.79612 0.15102 0.63305 0.0
C853 C 0.81183 0.12965 0.65855 0.0
C854 C 0.73748 0.0782 0.68844 0.0
H855 H 0.73607 0.94437 0.73808 0.0
H856 H 0.76588 0.00109 0.72373 0.0
H857 H 0.7011 0.04578 0.70776 0.0
H858 H 0.74113 0.13256 0.6304 0.0
H859 H 0.72433 0.09662 0.65627 0.0
H860 H 0.80233 0.06711 0.67187 0.0
C861 C 0.73808 0.98493 0.7222 0.0
C862 C 0.72351 0.05054 0.70016 0.0
C863 C 0.72102 0.95258 0.73045 0.0
C864 C 0.76125 0.13239 0.63823 0.0
C865 C 0.75165 0.11196 0.65316 0.0
C866 C 0.78089 0.06345 0.67998 0.0
C867 C 0.71945 0.99601 0.71184 0.0
C868 C 0.73753 0.02851 0.70158 0.0
C869 C 0.7767 0.10971 0.66331 0.0
C870 C 0.76563 0.08429 0.6778 0.0
H871 H 0.63875 0.92572 0.71643 0.0
H872 H 0.66836 0.98207 0.70216 0.0
H873 H 0.77821 0.0192 0.69247 0.0
H874 H 0.84856 0.16435 0.63992 0.0
H875 H 0.83181 0.12884 0.6662 0.0
loop_
_geom_bond_atom_site_label_1
_geom_bond_atom_site_label_2
_geom_bond_distance
_geom_bond_site_symmetry_2
_ccdc_geom_bond_type
In0 O1 2.294 . S
In0 O2 2.326 . S
In0 O6 2.266 . S
In0 O7 2.326 . S
In0 O8 2.266 . S
In0 O9 2.326 . S
In0 O11 2.294 . S
In0 O12 2.326 . S
O1 In0 2.294 . S
O1 C10 1.240 . S
O2 In0 2.326 . S
O2 C10 1.252 . S
C3 O6 1.252 . S
C3 O7 1.260 . S
C4 O11 1.240 . S
C4 O12 1.252 . S
C5 O8 1.252 . S
C5 O9 1.260 . S
O6 In0 2.266 . S
O6 C3 1.252 . S
O7 In0 2.326 . S
O7 C3 1.260 . S
O8 In0 2.266 . S
O8 C5 1.252 . S
O9 In0 2.326 . S
O9 C5 1.260 . S
C10 O1 1.240 . S
C10 O2 1.252 . S
O11 In0 2.294 . S
O11 C4 1.240 . S
O12 In0 2.326 . S
O12 C4 1.252 . S
In13 O14 2.294 . S
In13 O15 2.326 . S
In13 O19 2.266 . S
In13 O20 2.326 . S
In13 O21 2.266 . S
In13 O22 2.326 . S
In13 O24 2.294 . S
In13 O25 2.326 . S
O14 In13 2.294 . S
O14 C23 1.240 . S
O15 In13 2.326 . S
O15 C23 1.252 . S
C16 O19 1.252 . S
C16 O20 1.260 . S
C17 O24 1.240 . S
C17 O25 1.252 . S
C18 O21 1.252 . S
C18 O22 1.260 . S
O19 In13 2.266 . S
O19 C16 1.252 . S
O20 In13 2.326 . S
O20 C16 1.260 . S
O21 In13 2.266 . S
O21 C18 1.252 . S
O22 In13 2.326 . S
O22 C18 1.260 . S
C23 O14 1.240 . S
C23 O15 1.252 . S
O24 In13 2.294 . S
O24 C17 1.240 . S
O25 In13 2.326 . S
O25 C17 1.252 . S
In26 O27 2.294 . S
In26 O28 2.326 . S
In26 O32 2.266 . S
In26 O33 2.326 . S
In26 O34 2.266 . S
In26 O35 2.326 . S
In26 O37 2.294 . S
In26 O38 2.326 . S
O27 In26 2.294 . S
O27 C36 1.240 . S
O28 In26 2.326 . S
O28 C36 1.252 . S
C29 O32 1.252 . S
C29 O33 1.260 . S
C30 O37 1.240 . S
C30 O38 1.252 . S
C31 O34 1.252 . S
C31 O35 1.260 . S
O32 In26 2.266 . S
O32 C29 1.252 . S
O33 In26 2.326 . S
O33 C29 1.260 . S
O34 In26 2.266 . S
O34 C31 1.252 . S
O35 In26 2.326 . S
O35 C31 1.260 . S
C36 O27 1.240 . S
C36 O28 1.252 . S
O37 In26 2.294 . S
O37 C30 1.240 . S
O38 In26 2.326 . S
O38 C30 1.252 . S
In39 O40 2.294 . S
In39 O41 2.326 . S
In39 O45 2.266 . S
In39 O46 2.326 . S
In39 O47 2.266 . S
In39 O48 2.326 . S
In39 O50 2.294 . S
In39 O51 2.326 . S
O40 In39 2.294 . S
O40 C49 1.240 . S
O41 In39 2.326 . S
O41 C49 1.252 . S
C42 O45 1.252 . S
C42 O46 1.260 . S
C43 O50 1.240 . S
C43 O51 1.252 . S
C44 O47 1.252 . S
C44 O48 1.260 . S
O45 In39 2.266 . S
O45 C42 1.252 . S
O46 In39 2.326 . S
O46 C42 1.260 . S
O47 In39 2.266 . S
O47 C44 1.252 . S
O48 In39 2.326 . S
O48 C44 1.260 . S
C49 O40 1.240 . S
C49 O41 1.252 . S
O50 In39 2.294 . S
O50 C43 1.240 . S
O51 In39 2.326 . S
O51 C43 1.252 . S
In52 O53 2.294 . S
In52 O54 2.326 . S
In52 O58 2.266 . S
In52 O59 2.326 . S
In52 O60 2.266 . S
In52 O61 2.326 . S
In52 O63 2.294 . S
In52 O64 2.326 . S
O53 In52 2.294 . S
O53 C62 1.240 . S
O54 In52 2.326 . S
O54 C62 1.252 . S
C55 O58 1.252 . S
C55 O59 1.260 . S
C56 O63 1.240 . S
C56 O64 1.252 . S
C57 O60 1.252 . S
C57 O61 1.260 . S
O58 In52 2.266 . S
O58 C55 1.252 . S
O59 In52 2.326 . S
O59 C55 1.260 . S
O60 In52 2.266 . S
O60 C57 1.252 . S
O61 In52 2.326 . S
O61 C57 1.260 . S
C62 O53 1.240 . S
C62 O54 1.252 . S
O63 In52 2.294 . S
O63 C56 1.240 . S
O64 In52 2.326 . S
O64 C56 1.252 . S
In65 O66 2.294 . S
In65 O67 2.326 . S
In65 O71 2.266 . S
In65 O72 2.326 . S
In65 O73 2.266 . S
In65 O74 2.326 . S
In65 O76 2.294 . S
In65 O77 2.326 . S
O66 In65 2.294 . S
O66 C75 1.240 . S
O67 In65 2.326 . S
O67 C75 1.252 . S
C68 O71 1.252 . S
C68 O72 1.260 . S
C69 O76 1.240 . S
C69 O77 1.252 . S
C70 O73 1.252 . S
C70 O74 1.260 . S
O71 In65 2.266 . S
O71 C68 1.252 . S
O72 In65 2.326 . S
O72 C68 1.260 . S
O73 In65 2.266 . S
O73 C70 1.252 . S
O74 In65 2.326 . S
O74 C70 1.260 . S
C75 O66 1.240 . S
C75 O67 1.252 . S
O76 In65 2.294 . S
O76 C69 1.240 . S
O77 In65 2.326 . S
O77 C69 1.252 . S
In78 O79 2.294 . S
In78 O80 2.326 . S
In78 O84 2.266 . S
In78 O85 2.326 . S
In78 O86 2.266 . S
In78 O87 2.326 . S
In78 O89 2.294 . S
In78 O90 2.326 . S
O79 In78 2.294 . S
O79 C88 1.240 . S
O80 In78 2.326 . S
O80 C88 1.252 . S
C81 O84 1.252 . S
C81 O85 1.260 . S
C82 O89 1.240 . S
C82 O90 1.252 . S
C83 O86 1.252 . S
C83 O87 1.260 . S
O84 In78 2.266 . S
O84 C81 1.252 . S
O85 In78 2.326 . S
O85 C81 1.260 . S
O86 In78 2.266 . S
O86 C83 1.252 . S
O87 In78 2.326 . S
O87 C83 1.260 . S
C88 O79 1.240 . S
C88 O80 1.252 . S
O89 In78 2.294 . S
O89 C82 1.240 . S
O90 In78 2.326 . S
O90 C82 1.252 . S
In91 O92 2.294 . S
In91 O93 2.326 . S
In91 O97 2.266 . S
In91 O98 2.326 . S
In91 O99 2.266 . S
In91 O100 2.326 . S
In91 O102 2.294 . S
In91 O103 2.326 . S
O92 In91 2.294 . S
O92 C101 1.240 . S
O93 In91 2.326 . S
O93 C101 1.252 . S
C94 O97 1.252 . S
C94 O98 1.260 . S
C95 O102 1.240 . S
C95 O103 1.252 . S
C96 O99 1.252 . S
C96 O100 1.260 . S
O97 In91 2.266 . S
O97 C94 1.252 . S
O98 In91 2.326 . S
O98 C94 1.260 . S
O99 In91 2.266 . S
O99 C96 1.252 . S
O100 In91 2.326 . S
O100 C96 1.260 . S
C101 O92 1.240 . S
C101 O93 1.252 . S
O102 In91 2.294 . S
O102 C95 1.240 . S
O103 In91 2.326 . S
O103 C95 1.252 . S
In104 O105 2.294 . S
In104 O106 2.326 . S
In104 O110 2.266 . S
In104 O111 2.326 . S
In104 O112 2.266 . S
In104 O113 2.326 . S
In104 O115 2.294 . S
In104 O116 2.326 . S
O105 In104 2.294 . S
O105 C114 1.240 . S
O106 In104 2.326 . S
O106 C114 1.252 . S
C107 O110 1.252 . S
C107 O111 1.260 . S
C108 O115 1.240 . S
C108 O116 1.252 . S
C109 O112 1.252 . S
C109 O113 1.260 . S
O110 In104 2.266 . S
O110 C107 1.252 . S
O111 In104 2.326 . S
O111 C107 1.260 . S
O112 In104 2.266 . S
O112 C109 1.252 . S
O113 In104 2.326 . S
O113 C109 1.260 . S
C114 O105 1.240 . S
C114 O106 1.252 . S
O115 In104 2.294 . S
O115 C108 1.240 . S
O116 In104 2.326 . S
O116 C108 1.252 . S
In117 O118 2.294 . S
In117 O119 2.326 . S
In117 O123 2.266 . S
In117 O124 2.326 . S
In117 O125 2.266 . S
In117 O126 2.326 . S
In117 O128 2.294 . S
In117 O129 2.326 . S
O118 In117 2.294 . S
O118 C127 1.240 . S
O119 In117 2.326 . S
O119 C127 1.252 . S
C120 O123 1.252 . S
C120 O124 1.260 . S
C121 O128 1.240 . S
C121 O129 1.252 . S
C122 O125 1.252 . S
C122 O126 1.260 . S
O123 In117 2.266 . S
O123 C120 1.252 . S
O124 In117 2.326 . S
O124 C120 1.260 . S
O125 In117 2.266 . S
O125 C122 1.252 . S
O126 In117 2.326 . S
O126 C122 1.260 . S
C127 O118 1.240 . S
C127 O119 1.252 . S
O128 In117 2.294 . S
O128 C121 1.240 . S
O129 In117 2.326 . S
O129 C121 1.252 . S
In130 O131 2.294 . S
In130 O132 2.326 . S
In130 O136 2.266 . S
In130 O137 2.326 . S
In130 O138 2.266 . S
In130 O139 2.326 . S
In130 O141 2.294 . S
In130 O142 2.326 . S
O131 In130 2.294 . S
O131 C140 1.240 . S
O132 In130 2.326 . S
O132 C140 1.252 . S
C133 O136 1.252 . S
C133 O137 1.260 . S
C134 O141 1.240 . S
C134 O142 1.252 . S
C135 O138 1.252 . S
C135 O139 1.260 . S
O136 In130 2.266 . S
O136 C133 1.252 . S
O137 In130 2.326 . S
O137 C133 1.260 . S
O138 In130 2.266 . S
O138 C135 1.252 . S
O139 In130 2.326 . S
O139 C135 1.260 . S
C140 O131 1.240 . S
C140 O132 1.252 . S
O141 In130 2.294 . S
O141 C134 1.240 . S
O142 In130 2.326 . S
O142 C134 1.252 . S
In143 O144 2.294 . S
In143 O145 2.326 . S
In143 O149 2.266 . S
In143 O150 2.326 . S
In143 O151 2.266 . S
In143 O152 2.326 . S
In143 O154 2.294 . S
In143 O155 2.326 . S
O144 In143 2.294 . S
O144 C153 1.240 . S
O145 In143 2.326 . S
O145 C153 1.252 . S
C146 O149 1.252 . S
C146 O150 1.260 . S
C147 O154 1.240 . S
C147 O155 1.252 . S
C148 O151 1.252 . S
C148 O152 1.260 . S
O149 In143 2.266 . S
O149 C146 1.252 . S
O150 In143 2.326 . S
O150 C146 1.260 . S
O151 In143 2.266 . S
O151 C148 1.252 . S
O152 In143 2.326 . S
O152 C148 1.260 . S
C153 O144 1.240 . S
C153 O145 1.252 . S
O154 In143 2.294 . S
O154 C147 1.240 . S
O155 In143 2.326 . S
O155 C147 1.252 . S
C156 C157 1.349 . S
C156 C158 1.327 . S
C156 H181 0.950 . S
C157 C156 1.349 . S
C157 C173 1.349 . S
C158 C156 1.327 . S
C158 C177 1.429 . S
C158 H182 0.950 . S
C159 C176 1.574 . S
C159 C178 1.368 . S
C159 H183 0.949 . S
H160 C164 0.949 . S
C161 C162 1.349 . S
C161 C163 1.327 . S
C161 H184 0.950 . S
C162 C161 1.349 . S
C162 C174 1.349 . S
C163 C161 1.327 . S
C163 C179 1.429 . S
C163 H185 0.950 . S
C164 H160 0.949 . S
C164 C172 1.574 . S
C164 C180 1.368 . S
H165 C173 0.950 . S
H166 C171 0.950 . S
H167 C172 0.949 . S
H168 C174 0.950 . S
H169 C175 0.950 . S
H170 C176 0.949 . S
C171 H166 0.950 . S
C171 C173 1.327 . S
C171 C177 1.429 . S
C172 C164 1.574 . S
C172 H167 0.949 . S
C172 C178 1.368 . S
C173 C157 1.349 . S
C173 H165 0.950 . S
C173 C171 1.327 . S
C174 C162 1.349 . S
C174 H168 0.950 . S
C174 C175 1.327 . S
C175 H169 0.950 . S
C175 C174 1.327 . S
C175 C179 1.429 . S
C176 C159 1.574 . S
C176 H170 0.949 . S
C176 C180 1.368 . S
C177 C158 1.429 . S
C177 C171 1.429 . S
C177 C178 1.523 . S
C178 C159 1.368 . S
C178 C172 1.368 . S
C178 C177 1.523 . S
C179 C163 1.429 . S
C179 C175 1.429 . S
C179 C180 1.523 . S
C180 C164 1.368 . S
C180 C176 1.368 . S
C180 C179 1.523 . S
H181 C156 0.950 . S
H182 C158 0.950 . S
H183 C159 0.949 . S
H184 C161 0.950 . S
H185 C163 0.950 . S
C186 C187 1.349 . S
C186 C188 1.327 . S
C186 H211 0.950 . S
C187 C186 1.349 . S
C187 C203 1.349 . S
C188 C186 1.327 . S
C188 C207 1.429 . S
C188 H212 0.950 . S
C189 C206 1.574 . S
C189 C208 1.368 . S
C189 H213 0.949 . S
H190 C194 0.949 . S
C191 C192 1.349 . S
C191 C193 1.327 . S
C191 H214 0.950 . S
C192 C191 1.349 . S
C192 C204 1.349 . S
C193 C191 1.327 . S
C193 C209 1.429 . S
C193 H215 0.950 . S
C194 H190 0.949 . S
C194 C202 1.574 . S
C194 C210 1.368 . S
H195 C203 0.950 . S
H196 C201 0.950 . S
H197 C202 0.949 . S
H198 C204 0.950 . S
H199 C205 0.950 . S
H200 C206 0.949 . S
C201 H196 0.950 . S
C201 C203 1.327 . S
C201 C207 1.429 . S
C202 C194 1.574 . S
C202 H197 0.949 . S
C202 C208 1.368 . S
C203 C187 1.349 . S
C203 H195 0.950 . S
C203 C201 1.327 . S
C204 C192 1.349 . S
C204 H198 0.950 . S
C204 C205 1.327 . S
C205 H199 0.950 . S
C205 C204 1.327 . S
C205 C209 1.429 . S
C206 C189 1.574 . S
C206 H200 0.949 . S
C206 C210 1.368 . S
C207 C188 1.429 . S
C207 C201 1.429 . S
C207 C208 1.523 . S
C208 C189 1.368 . S
C208 C202 1.368 . S
C208 C207 1.523 . S
C209 C193 1.429 . S
C209 C205 1.429 . S
C209 C210 1.523 . S
C210 C194 1.368 . S
C210 C206 1.368 . S
C210 C209 1.523 . S
H211 C186 0.950 . S
H212 C188 0.950 . S
H213 C189 0.949 . S
H214 C191 0.950 . S
H215 C193 0.950 . S
C216 C217 1.349 . S
C216 C218 1.327 . S
C216 H241 0.950 . S
C217 C216 1.349 . S
C217 C233 1.349 . S
C218 C216 1.327 . S
C218 C237 1.429 . S
C218 H242 0.950 . S
C219 C236 1.574 . S
C219 C238 1.368 . S
C219 H243 0.949 . S
H220 C224 0.949 . S
C221 C222 1.349 . S
C221 C223 1.327 . S
C221 H244 0.950 . S
C222 C221 1.349 . S
C222 C234 1.349 . S
C223 C221 1.327 . S
C223 C239 1.429 . S
C223 H245 0.950 . S
C224 H220 0.949 . S
C224 C232 1.574 . S
C224 C240 1.368 . S
H225 C233 0.950 . S
H226 C231 0.950 . S
H227 C232 0.949 . S
H228 C234 0.950 . S
H229 C235 0.950 . S
H230 C236 0.949 . S
C231 H226 0.950 . S
C231 C233 1.327 . S
C231 C237 1.429 . S
C232 C224 1.574 . S
C232 H227 0.949 . S
C232 C238 1.368 . S
C233 C217 1.349 . S
C233 H225 0.950 . S
C233 C231 1.327 . S
C234 C222 1.349 . S
C234 H228 0.950 . S
C234 C235 1.327 . S
C235 H229 0.950 . S
C235 C234 1.327 . S
C235 C239 1.429 . S
C236 C219 1.574 . S
C236 H230 0.949 . S
C236 C240 1.368 . S
C237 C218 1.429 . S
C237 C231 1.429 . S
C237 C238 1.523 . S
C238 C219 1.368 . S
C238 C232 1.368 . S
C238 C237 1.523 . S
C239 C223 1.429 . S
C239 C235 1.429 . S
C239 C240 1.523 . S
C240 C224 1.368 . S
C240 C236 1.368 . S
C240 C239 1.523 . S
H241 C216 0.950 . S
H242 C218 0.950 . S
H243 C219 0.949 . S
H244 C221 0.950 . S
H245 C223 0.950 . S
C246 C247 1.349 . S
C246 C248 1.327 . S
C246 H271 0.950 . S
C247 C246 1.349 . S
C247 C263 1.349 . S
C248 C246 1.327 . S
C248 C267 1.429 . S
C248 H272 0.950 . S
C249 C266 1.574 . S
C249 C268 1.368 . S
C249 H273 0.949 . S
H250 C254 0.949 . S
C251 C252 1.349 . S
C251 C253 1.327 . S
C251 H274 0.950 . S
C252 C251 1.349 . S
C252 C264 1.349 . S
C253 C251 1.327 . S
C253 C269 1.429 . S
C253 H275 0.950 . S
C254 H250 0.949 . S
C254 C262 1.574 . S
C254 C270 1.368 . S
H255 C263 0.950 . S
H256 C261 0.950 . S
H257 C262 0.949 . S
H258 C264 0.950 . S
H259 C265 0.950 . S
H260 C266 0.949 . S
C261 H256 0.950 . S
C261 C263 1.327 . S
C261 C267 1.429 . S
C262 C254 1.574 . S
C262 H257 0.949 . S
C262 C268 1.368 . S
C263 C247 1.349 . S
C263 H255 0.950 . S
C263 C261 1.327 . S
C264 C252 1.349 . S
C264 H258 0.950 . S
C264 C265 1.327 . S
C265 H259 0.950 . S
C265 C264 1.327 . S
C265 C269 1.429 . S
C266 C249 1.574 . S
C266 H260 0.949 . S
C266 C270 1.368 . S
C267 C248 1.429 . S
C267 C261 1.429 . S
C267 C268 1.523 . S
C268 C249 1.368 . S
C268 C262 1.368 . S
C268 C267 1.523 . S
C269 C253 1.429 . S
C269 C265 1.429 . S
C269 C270 1.523 . S
C270 C254 1.368 . S
C270 C266 1.368 . S
C270 C269 1.523 . S
H271 C246 0.950 . S
H272 C248 0.950 . S
H273 C249 0.949 . S
H274 C251 0.950 . S
H275 C253 0.950 . S
C276 C277 1.349 . S
C276 C278 1.327 . S
C276 H301 0.950 . S
C277 C276 1.349 . S
C277 C293 1.349 . S
C278 C276 1.327 . S
C278 C297 1.429 . S
C278 H302 0.950 . S
C279 C296 1.574 . S
C279 C298 1.368 . S
C279 H303 0.949 . S
H280 C284 0.949 . S
C281 C282 1.349 . S
C281 C283 1.327 . S
C281 H304 0.950 . S
C282 C281 1.349 . S
C282 C294 1.349 . S
C283 C281 1.327 . S
C283 C299 1.429 . S
C283 H305 0.950 . S
C284 H280 0.949 . S
C284 C292 1.574 . S
C284 C300 1.368 . S
H285 C293 0.950 . S
H286 C291 0.950 . S
H287 C292 0.949 . S
H288 C294 0.950 . S
H289 C295 0.950 . S
H290 C296 0.949 . S
C291 H286 0.950 . S
C291 C293 1.327 . S
C291 C297 1.429 . S
C292 C284 1.574 . S
C292 H287 0.949 . S
C292 C298 1.368 . S
C293 C277 1.349 . S
C293 H285 0.950 . S
C293 C291 1.327 . S
C294 C282 1.349 . S
C294 H288 0.950 . S
C294 C295 1.327 . S
C295 H289 0.950 . S
C295 C294 1.327 . S
C295 C299 1.429 . S
C296 C279 1.574 . S
C296 H290 0.949 . S
C296 C300 1.368 . S
C297 C278 1.429 . S
C297 C291 1.429 . S
C297 C298 1.523 . S
C298 C279 1.368 . S
C298 C292 1.368 . S
C298 C297 1.523 . S
C299 C283 1.429 . S
C299 C295 1.429 . S
C299 C300 1.523 . S
C300 C284 1.368 . S
C300 C296 1.368 . S
C300 C299 1.523 . S
H301 C276 0.950 . S
H302 C278 0.950 . S
H303 C279 0.949 . S
H304 C281 0.950 . S
H305 C283 0.950 . S
C306 C307 1.349 . S
C306 C308 1.327 . S
C306 H331 0.950 . S
C307 C306 1.349 . S
C307 C323 1.349 . S
C308 C306 1.327 . S
C308 C327 1.429 . S
C308 H332 0.950 . S
C309 C326 1.574 . S
C309 C328 1.368 . S
C309 H333 0.949 . S
H310 C314 0.949 . S
C311 C312 1.349 . S
C311 C313 1.327 . S
C311 H334 0.950 . S
C312 C311 1.349 . S
C312 C324 1.349 . S
C313 C311 1.327 . S
C313 C329 1.429 . S
C313 H335 0.950 . S
C314 H310 0.949 . S
C314 C322 1.574 . S
C314 C330 1.368 . S
H315 C323 0.950 . S
H316 C321 0.950 . S
H317 C322 0.949 . S
H318 C324 0.950 . S
H319 C325 0.950 . S
H320 C326 0.949 . S
C321 H316 0.950 . S
C321 C323 1.327 . S
C321 C327 1.429 . S
C322 C314 1.574 . S
C322 H317 0.949 . S
C322 C328 1.368 . S
C323 C307 1.349 . S
C323 H315 0.950 . S
C323 C321 1.327 . S
C324 C312 1.349 . S
C324 H318 0.950 . S
C324 C325 1.327 . S
C325 H319 0.950 . S
C325 C324 1.327 . S
C325 C329 1.429 . S
C326 C309 1.574 . S
C326 H320 0.949 . S
C326 C330 1.368 . S
C327 C308 1.429 . S
C327 C321 1.429 . S
C327 C328 1.523 . S
C328 C309 1.368 . S
C328 C322 1.368 . S
C328 C327 1.523 . S
C329 C313 1.429 . S
C329 C325 1.429 . S
C329 C330 1.523 . S
C330 C314 1.368 . S
C330 C326 1.368 . S
C330 C329 1.523 . S
H331 C306 0.950 . S
H332 C308 0.950 . S
H333 C309 0.949 . S
H334 C311 0.950 . S
H335 C313 0.950 . S
C336 C337 1.349 . S
C336 C338 1.327 . S
C336 H361 0.950 . S
C337 C336 1.349 . S
C337 C353 1.349 . S
C338 C336 1.327 . S
C338 C357 1.429 . S
C338 H362 0.950 . S
C339 C356 1.574 . S
C339 C358 1.368 . S
C339 H363 0.949 . S
H340 C344 0.949 . S
C341 C342 1.349 . S
C341 C343 1.327 . S
C341 H364 0.950 . S
C342 C341 1.349 . S
C342 C354 1.349 . S
C343 C341 1.327 . S
C343 C359 1.429 . S
C343 H365 0.950 . S
C344 H340 0.949 . S
C344 C352 1.574 . S
C344 C360 1.368 . S
H345 C353 0.950 . S
H346 C351 0.950 . S
H347 C352 0.949 . S
H348 C354 0.950 . S
H349 C355 0.950 . S
H350 C356 0.949 . S
C351 H346 0.950 . S
C351 C353 1.327 . S
C351 C357 1.429 . S
C352 C344 1.574 . S
C352 H347 0.949 . S
C352 C358 1.368 . S
C353 C337 1.349 . S
C353 H345 0.950 . S
C353 C351 1.327 . S
C354 C342 1.349 . S
C354 H348 0.950 . S
C354 C355 1.327 . S
C355 H349 0.950 . S
C355 C354 1.327 . S
C355 C359 1.429 . S
C356 C339 1.574 . S
C356 H350 0.949 . S
C356 C360 1.368 . S
C357 C338 1.429 . S
C357 C351 1.429 . S
C357 C358 1.523 . S
C358 C339 1.368 . S
C358 C352 1.368 . S
C358 C357 1.523 . S
C359 C343 1.429 . S
C359 C355 1.429 . S
C359 C360 1.523 . S
C360 C344 1.368 . S
C360 C356 1.368 . S
C360 C359 1.523 . S
H361 C336 0.950 . S
H362 C338 0.950 . S
H363 C339 0.949 . S
H364 C341 0.950 . S
H365 C343 0.950 . S
C366 C367 1.349 . S
C366 C368 1.327 . S
C366 H391 0.950 . S
C367 C366 1.349 . S
C367 C383 1.349 . S
C368 C366 1.327 . S
C368 C387 1.429 . S
C368 H392 0.950 . S
C369 C386 1.574 1_655 S
C369 C388 1.368 . S
C369 H393 0.949 . S
H370 C374 0.949 . S
C371 C372 1.349 . S
C371 C373 1.327 . S
C371 H394 0.950 . S
C372 C371 1.349 . S
C372 C384 1.349 . S
C373 C371 1.327 . S
C373 C389 1.429 . S
C373 H395 0.950 . S
C374 H370 0.949 . S
C374 C382 1.574 1_455 S
C374 C390 1.368 . S
H375 C383 0.950 . S
H376 C381 0.950 . S
H377 C382 0.949 . S
H378 C384 0.950 . S
H379 C385 0.950 . S
H380 C386 0.949 . S
C381 H376 0.950 . S
C381 C383 1.327 . S
C381 C387 1.429 . S
C382 C374 1.574 1_655 S
C382 H377 0.949 . S
C382 C388 1.368 . S
C383 C367 1.349 . S
C383 H375 0.950 . S
C383 C381 1.327 . S
C384 C372 1.349 . S
C384 H378 0.950 . S
C384 C385 1.327 . S
C385 H379 0.950 . S
C385 C384 1.327 . S
C385 C389 1.429 . S
C386 C369 1.574 1_455 S
C386 H380 0.949 . S
C386 C390 1.368 . S
C387 C368 1.429 . S
C387 C381 1.429 . S
C387 C388 1.523 . S
C388 C369 1.368 . S
C388 C382 1.368 . S
C388 C387 1.523 . S
C389 C373 1.429 . S
C389 C385 1.429 . S
C389 C390 1.523 . S
C390 C374 1.368 . S
C390 C386 1.368 . S
C390 C389 1.523 . S
H391 C366 0.950 . S
H392 C368 0.950 . S
H393 C369 0.949 . S
H394 C371 0.950 . S
H395 C373 0.950 . S
C396 C397 1.349 . S
C396 C398 1.327 . S
C396 H421 0.950 . S
C397 C396 1.349 . S
C397 C413 1.349 . S
C398 C396 1.327 . S
C398 C417 1.429 . S
C398 H422 0.950 . S
C399 C416 1.574 1_545 S
C399 C418 1.368 . S
C399 H423 0.949 . S
H400 C404 0.949 . S
C401 C402 1.349 . S
C401 C403 1.327 . S
C401 H424 0.950 . S
C402 C401 1.349 . S
C402 C414 1.349 . S
C403 C401 1.327 . S
C403 C419 1.429 . S
C403 H425 0.950 . S
C404 H400 0.949 . S
C404 C412 1.574 1_565 S
C404 C420 1.368 . S
H405 C413 0.950 . S
H406 C411 0.950 . S
H407 C412 0.949 . S
H408 C414 0.950 . S
H409 C415 0.950 . S
H410 C416 0.949 . S
C411 H406 0.950 . S
C411 C413 1.327 . S
C411 C417 1.429 . S
C412 C404 1.574 1_545 S
C412 H407 0.949 . S
C412 C418 1.368 . S
C413 C397 1.349 . S
C413 H405 0.950 . S
C413 C411 1.327 . S
C414 C402 1.349 . S
C414 H408 0.950 . S
C414 C415 1.327 . S
C415 H409 0.950 . S
C415 C414 1.327 . S
C415 C419 1.429 . S
C416 C399 1.574 1_565 S
C416 H410 0.949 . S
C416 C420 1.368 . S
C417 C398 1.429 . S
C417 C411 1.429 . S
C417 C418 1.523 . S
C418 C399 1.368 . S
C418 C412 1.368 . S
C418 C417 1.523 . S
C419 C403 1.429 . S
C419 C415 1.429 . S
C419 C420 1.523 . S
C420 C404 1.368 . S
C420 C416 1.368 . S
C420 C419 1.523 . S
H421 C396 0.950 . S
H422 C398 0.950 . S
H423 C399 0.949 . S
H424 C401 0.950 . S
H425 C403 0.950 . S
C426 C427 1.349 . S
C426 C428 1.327 . S
C426 H451 0.950 . S
C427 C426 1.349 . S
C427 C443 1.349 . S
C428 C426 1.327 . S
C428 C447 1.429 . S
C428 H452 0.950 . S
C429 C446 1.574 . S
C429 C448 1.368 . S
C429 H453 0.949 . S
H430 C434 0.949 . S
C431 C432 1.349 . S
C431 C433 1.327 . S
C431 H454 0.950 . S
C432 C431 1.349 . S
C432 C444 1.349 . S
C433 C431 1.327 . S
C433 C449 1.429 . S
C433 H455 0.950 . S
C434 H430 0.949 . S
C434 C442 1.574 . S
C434 C450 1.368 . S
H435 C443 0.950 . S
H436 C441 0.950 . S
H437 C442 0.949 . S
H438 C444 0.950 . S
H439 C445 0.950 . S
H440 C446 0.949 . S
C441 H436 0.950 . S
C441 C443 1.327 . S
C441 C447 1.429 . S
C442 C434 1.574 . S
C442 H437 0.949 . S
C442 C448 1.368 . S
C443 C427 1.349 . S
C443 H435 0.950 . S
C443 C441 1.327 . S
C444 C432 1.349 . S
C444 H438 0.950 . S
C444 C445 1.327 . S
C445 H439 0.950 . S
C445 C444 1.327 . S
C445 C449 1.429 . S
C446 C429 1.574 . S
C446 H440 0.949 . S
C446 C450 1.368 . S
C447 C428 1.429 . S
C447 C441 1.429 . S
C447 C448 1.523 . S
C448 C429 1.368 . S
C448 C442 1.368 . S
C448 C447 1.523 . S
C449 C433 1.429 . S
C449 C445 1.429 . S
C449 C450 1.523 . S
C450 C434 1.368 . S
C450 C446 1.368 . S
C450 C449 1.523 . S
H451 C426 0.950 . S
H452 C428 0.950 . S
H453 C429 0.949 . S
H454 C431 0.950 . S
H455 C433 0.950 . S
C456 C457 1.349 . S
C456 C458 1.327 . S
C456 H481 0.950 . S
C457 C456 1.349 . S
C457 C473 1.349 . S
C458 C456 1.327 . S
C458 C477 1.429 . S
C458 H482 0.950 . S
C459 C476 1.576 . S
C459 C478 1.366 1_455 S
C459 H483 0.949 1_455 S
H460 C464 0.949 1_455 S
C461 C462 1.349 . S
C461 C463 1.327 . S
C461 H484 0.950 . S
C462 C461 1.349 . S
C462 C474 1.349 . S
C463 C461 1.327 . S
C463 C479 1.429 . S
C463 H485 0.950 . S
C464 H460 0.949 1_655 S
C464 C472 1.576 . S
C464 C480 1.366 1_655 S
H465 C473 0.950 . S
H466 C471 0.950 . S
H467 C472 0.949 . S
H468 C474 0.950 . S
H469 C475 0.950 . S
H470 C476 0.949 . S
C471 H466 0.950 . S
C471 C473 1.327 . S
C471 C477 1.429 . S
C472 C464 1.576 . S
C472 H467 0.949 . S
C472 C478 1.368 . S
C473 C457 1.349 . S
C473 H465 0.950 . S
C473 C471 1.327 . S
C474 C462 1.349 . S
C474 H468 0.950 . S
C474 C475 1.327 . S
C475 H469 0.950 . S
C475 C474 1.327 . S
C475 C479 1.429 . S
C476 C459 1.576 . S
C476 H470 0.949 . S
C476 C480 1.368 . S
C477 C458 1.429 . S
C477 C471 1.429 . S
C477 C478 1.523 . S
C478 C459 1.366 1_655 S
C478 C472 1.368 . S
C478 C477 1.523 . S
C479 C463 1.429 . S
C479 C475 1.429 . S
C479 C480 1.523 . S
C480 C464 1.366 1_455 S
C480 C476 1.368 . S
C480 C479 1.523 . S
H481 C456 0.950 . S
H482 C458 0.950 . S
H483 C459 0.949 1_655 S
H484 C461 0.950 . S
H485 C463 0.950 . S
C486 C487 1.349 . S
C486 C488 1.327 . S
C486 H511 0.950 . S
C487 C486 1.349 . S
C487 C503 1.349 . S
C488 C486 1.327 . S
C488 C507 1.429 . S
C488 H512 0.950 . S
C489 C506 1.574 1_564 S
C489 C508 1.368 . S
C489 H513 0.949 . S
H490 C494 0.949 . S
C491 C492 1.349 . S
C491 C493 1.327 . S
C491 H514 0.950 . S
C492 C491 1.349 . S
C492 C504 1.349 . S
C493 C491 1.327 . S
C493 C509 1.429 . S
C493 H515 0.950 . S
C494 H490 0.949 . S
C494 C502 1.574 1_546 S
C494 C510 1.368 . S
H495 C503 0.950 . S
H496 C501 0.950 . S
H497 C502 0.949 . S
H498 C504 0.950 . S
H499 C505 0.950 . S
H500 C506 0.949 . S
C501 H496 0.950 . S
C501 C503 1.327 . S
C501 C507 1.429 . S
C502 C494 1.574 1_564 S
C502 H497 0.949 . S
C502 C508 1.368 . S
C503 C487 1.349 . S
C503 H495 0.950 . S
C503 C501 1.327 . S
C504 C492 1.349 . S
C504 H498 0.950 . S
C504 C505 1.327 . S
C505 H499 0.950 . S
C505 C504 1.327 . S
C505 C509 1.429 . S
C506 C489 1.574 1_546 S
C506 H500 0.949 . S
C506 C510 1.368 . S
C507 C488 1.429 . S
C507 C501 1.429 . S
C507 C508 1.523 . S
C508 C489 1.368 . S
C508 C502 1.368 . S
C508 C507 1.523 . S
C509 C493 1.429 . S
C509 C505 1.429 . S
C509 C510 1.523 . S
C510 C494 1.368 . S
C510 C506 1.368 . S
C510 C509 1.523 . S
H511 C486 0.950 . S
H512 C488 0.950 . S
H513 C489 0.949 . S
H514 C491 0.950 . S
H515 C493 0.950 . S
C516 C517 1.349 . S
C516 C518 1.327 . S
C516 H541 0.950 . S
C517 C516 1.349 . S
C517 C533 1.349 . S
C518 C516 1.327 . S
C518 C537 1.429 . S
C518 H542 0.950 . S
C519 C536 1.574 . S
C519 C538 1.368 . S
C519 H543 0.949 . S
H520 C524 0.949 1_556 S
C521 C522 1.349 . S
C521 C523 1.327 . S
C521 H544 0.950 . S
C522 C521 1.349 . S
C522 C534 1.349 . S
C523 C521 1.327 . S
C523 C539 1.429 . S
C523 H545 0.950 . S
C524 H520 0.949 1_554 S
C524 C532 1.574 . S
C524 C540 1.368 . S
H525 C533 0.950 . S
H526 C531 0.950 . S
H527 C532 0.949 . S
H528 C534 0.950 . S
H529 C535 0.950 . S
H530 C536 0.949 . S
C531 H526 0.950 . S
C531 C533 1.327 . S
C531 C537 1.429 . S
C532 C524 1.574 . S
C532 H527 0.949 . S
C532 C538 1.368 . S
C533 C517 1.349 . S
C533 H525 0.950 . S
C533 C531 1.327 . S
C534 C522 1.349 . S
C534 H528 0.950 . S
C534 C535 1.327 . S
C535 H529 0.950 . S
C535 C534 1.327 . S
C535 C539 1.429 . S
C536 C519 1.574 . S
C536 H530 0.949 . S
C536 C540 1.368 . S
C537 C518 1.429 . S
C537 C531 1.429 . S
C537 C538 1.523 . S
C538 C519 1.368 . S
C538 C532 1.368 . S
C538 C537 1.523 . S
C539 C523 1.429 . S
C539 C535 1.429 . S
C539 C540 1.523 1_556 S
C540 C524 1.368 . S
C540 C536 1.368 . S
C540 C539 1.523 1_554 S
H541 C516 0.950 . S
H542 C518 0.950 . S
H543 C519 0.949 . S
H544 C521 0.950 . S
H545 C523 0.950 . S
C546 C547 1.349 . S
C546 C548 1.327 . S
C546 H571 0.950 . S
C547 C546 1.349 . S
C547 C563 1.349 . S
C548 C546 1.327 . S
C548 C567 1.429 . S
C548 H572 0.950 . S
C549 C566 1.574 1_655 S
C549 C568 1.368 . S
C549 H573 0.949 . S
H550 C554 0.949 . S
C551 C552 1.349 . S
C551 C553 1.327 . S
C551 H574 0.950 . S
C552 C551 1.349 . S
C552 C564 1.349 . S
C553 C551 1.327 . S
C553 C569 1.429 . S
C553 H575 0.950 . S
C554 H550 0.949 . S
C554 C562 1.574 . S
C554 C570 1.368 1_655 S
H555 C563 0.950 . S
H556 C561 0.950 . S
H557 C562 0.949 . S
H558 C564 0.950 . S
H559 C565 0.950 . S
H560 C566 0.949 . S
C561 H556 0.950 . S
C561 C563 1.327 . S
C561 C567 1.429 . S
C562 C554 1.574 . S
C562 H557 0.949 . S
C562 C568 1.368 . S
C563 C547 1.349 . S
C563 H555 0.950 . S
C563 C561 1.327 . S
C564 C552 1.349 . S
C564 H558 0.950 . S
C564 C565 1.327 . S
C565 H559 0.950 . S
C565 C564 1.327 . S
C565 C569 1.429 . S
C566 C549 1.574 1_455 S
C566 H560 0.949 . S
C566 C570 1.368 . S
C567 C548 1.429 . S
C567 C561 1.429 . S
C567 C568 1.523 . S
C568 C549 1.368 . S
C568 C562 1.368 . S
C568 C567 1.523 . S
C569 C553 1.429 . S
C569 C565 1.429 . S
C569 C570 1.523 . S
C570 C554 1.368 1_455 S
C570 C566 1.368 . S
C570 C569 1.523 . S
H571 C546 0.950 . S
H572 C548 0.950 . S
H573 C549 0.949 . S
H574 C551 0.950 . S
H575 C553 0.950 . S
C576 C577 1.349 . S
C576 C578 1.327 . S
C576 H601 0.950 . S
C577 C576 1.349 . S
C577 C593 1.349 . S
C578 C576 1.327 . S
C578 C597 1.429 . S
C578 H602 0.950 . S
C579 C596 1.555 1_545 S
C579 C598 1.360 . S
C579 H603 0.974 . S
H580 C584 0.949 . S
C581 C582 1.349 . S
C581 C583 1.327 . S
C581 H604 0.950 . S
C582 C581 1.349 . S
C582 C594 1.349 . S
C583 C581 1.327 . S
C583 C599 1.429 . S
C583 H605 0.950 . S
C584 H580 0.949 . S
C584 C592 1.574 . S
C584 C600 1.368 . S
H585 C593 0.950 . S
H586 C591 0.950 . S
H587 C592 0.949 . S
H588 C594 0.950 . S
H589 C595 0.950 . S
H590 C596 0.949 . S
C591 H586 0.950 . S
C591 C593 1.327 . S
C591 C597 1.429 . S
C592 C584 1.574 . S
C592 H587 0.949 . S
C592 C598 1.368 1_565 S
C593 C577 1.349 . S
C593 H585 0.950 . S
C593 C591 1.327 . S
C594 C582 1.349 . S
C594 H588 0.950 . S
C594 C595 1.327 . S
C595 H589 0.950 . S
C595 C594 1.327 . S
C595 C599 1.429 . S
C596 C579 1.555 1_565 S
C596 H590 0.949 . S
C596 C600 1.368 . S
C597 C578 1.429 . S
C597 C591 1.429 . S
C597 C598 1.523 . S
C598 C579 1.360 . S
C598 C592 1.368 1_545 S
C598 C597 1.523 . S
C599 C583 1.429 . S
C599 C595 1.429 . S
C599 C600 1.523 . S
C600 C584 1.368 . S
C600 C596 1.368 . S
C600 C599 1.523 . S
H601 C576 0.950 . S
H602 C578 0.950 . S
H603 C579 0.974 . S
H604 C581 0.950 . S
H605 C583 0.950 . S
C606 C607 1.349 . S
C606 C608 1.327 . S
C606 H631 0.950 . S
C607 C606 1.349 . S
C607 C623 1.349 . S
C608 C606 1.327 . S
C608 C627 1.429 . S
C608 H632 0.950 . S
C609 C626 1.574 . S
C609 C628 1.368 . S
C609 H633 0.949 . S
H610 C614 0.949 . S
C611 C612 1.349 . S
C611 C613 1.327 . S
C611 H634 0.950 . S
C612 C611 1.349 . S
C612 C624 1.349 . S
C613 C611 1.327 . S
C613 C629 1.429 . S
C613 H635 0.950 . S
C614 H610 0.949 . S
C614 C622 1.574 . S
C614 C630 1.368 . S
H615 C623 0.950 . S
H616 C621 0.950 . S
H617 C622 0.949 . S
H618 C624 0.950 . S
H619 C625 0.950 . S
H620 C626 0.949 . S
C621 H616 0.950 . S
C621 C623 1.327 . S
C621 C627 1.429 . S
C622 C614 1.574 . S
C622 H617 0.949 . S
C622 C628 1.368 . S
C623 C607 1.349 . S
C623 H615 0.950 . S
C623 C621 1.327 . S
C624 C612 1.349 . S
C624 H618 0.950 . S
C624 C625 1.327 . S
C625 H619 0.950 . S
C625 C624 1.327 . S
C625 C629 1.429 . S
C626 C609 1.574 . S
C626 H620 0.949 . S
C626 C630 1.368 . S
C627 C608 1.429 . S
C627 C621 1.429 . S
C627 C628 1.523 . S
C628 C609 1.368 . S
C628 C622 1.368 . S
C628 C627 1.523 . S
C629 C613 1.429 . S
C629 C625 1.429 . S
C629 C630 1.523 . S
C630 C614 1.368 . S
C630 C626 1.368 . S
C630 C629 1.523 . S
H631 C606 0.950 . S
H632 C608 0.950 . S
H633 C609 0.949 . S
H634 C611 0.950 . S
H635 C613 0.950 . S
C636 C637 1.349 . S
C636 C638 1.327 . S
C636 H661 0.950 . S
C637 C636 1.349 . S
C637 C653 1.349 . S
C638 C636 1.327 . S
C638 C657 1.429 . S
C638 H662 0.950 . S
C639 C656 1.574 1_455 S
C639 C658 1.368 . S
C639 H663 0.949 . S
H640 C644 0.949 . S
C641 C642 1.349 . S
C641 C643 1.327 . S
C641 H664 0.950 . S
C642 C641 1.349 . S
C642 C654 1.349 . S
C643 C641 1.327 . S
C643 C659 1.429 . S
C643 H665 0.950 . S
C644 H640 0.949 . S
C644 C652 1.574 . S
C644 C660 1.368 1_455 S
H645 C653 0.950 . S
H646 C651 0.950 . S
H647 C652 0.949 . S
H648 C654 0.950 . S
H649 C655 0.950 . S
H650 C656 0.949 . S
C651 H646 0.950 . S
C651 C653 1.327 . S
C651 C657 1.429 . S
C652 C644 1.574 . S
C652 H647 0.949 . S
C652 C658 1.368 . S
C653 C637 1.349 . S
C653 H645 0.950 . S
C653 C651 1.327 . S
C654 C642 1.349 . S
C654 H648 0.950 . S
C654 C655 1.327 . S
C655 H649 0.950 . S
C655 C654 1.327 . S
C655 C659 1.429 . S
C656 C639 1.574 1_655 S
C656 H650 0.949 . S
C656 C660 1.368 . S
C657 C638 1.429 . S
C657 C651 1.429 . S
C657 C658 1.523 . S
C658 C639 1.368 . S
C658 C652 1.368 . S
C658 C657 1.523 . S
C659 C643 1.429 . S
C659 C655 1.429 . S
C659 C660 1.523 . S
C660 C644 1.368 1_655 S
C660 C656 1.368 . S
C660 C659 1.523 . S
H661 C636 0.950 . S
H662 C638 0.950 . S
H663 C639 0.949 . S
H664 C641 0.950 . S
H665 C643 0.950 . S
C666 C667 1.349 . S
C666 C668 1.327 . S
C666 H691 0.950 . S
C667 C666 1.349 . S
C667 C683 1.349 . S
C668 C666 1.327 . S
C668 C687 1.429 . S
C668 H692 0.950 . S
C669 C686 1.574 . S
C669 C688 1.368 . S
C669 H693 0.949 . S
H670 C674 0.949 . S
C671 C672 1.349 . S
C671 C673 1.327 . S
C671 H694 0.950 . S
C672 C671 1.349 . S
C672 C684 1.349 . S
C673 C671 1.327 . S
C673 C689 1.429 . S
C673 H695 0.950 . S
C674 H670 0.949 . S
C674 C682 1.574 1_565 S
C674 C690 1.368 . S
H675 C683 0.950 . S
H676 C681 0.950 . S
H677 C682 0.949 . S
H678 C684 0.950 . S
H679 C685 0.950 . S
H680 C686 0.949 . S
C681 H676 0.950 . S
C681 C683 1.327 . S
C681 C687 1.429 . S
C682 C674 1.574 1_545 S
C682 H677 0.949 . S
C682 C688 1.368 . S
C683 C667 1.349 . S
C683 H675 0.950 . S
C683 C681 1.327 . S
C684 C672 1.349 . S
C684 H678 0.950 . S
C684 C685 1.327 . S
C685 H679 0.950 . S
C685 C684 1.327 . S
C685 C689 1.429 . S
C686 C669 1.574 . S
C686 H680 0.949 . S
C686 C690 1.368 1_545 S
C687 C668 1.429 . S
C687 C681 1.429 . S
C687 C688 1.523 . S
C688 C669 1.368 . S
C688 C682 1.368 . S
C688 C687 1.523 . S
C689 C673 1.429 . S
C689 C685 1.429 . S
C689 C690 1.523 . S
C690 C674 1.368 . S
C690 C686 1.368 1_565 S
C690 C689 1.523 . S
H691 C666 0.950 . S
H692 C668 0.950 . S
H693 C669 0.949 . S
H694 C671 0.950 . S
H695 C673 0.950 . S
C696 C697 1.349 . S
C696 C698 1.327 . S
C696 H721 0.950 . S
C697 C696 1.349 . S
C697 C713 1.349 . S
C698 C696 1.327 . S
C698 C717 1.429 . S
C698 H722 0.950 . S
C699 C716 1.574 . S
C699 C718 1.368 . S
C699 H723 0.949 . S
H700 C704 0.949 . S
C701 C702 1.349 . S
C701 C703 1.327 . S
C701 H724 0.950 . S
C702 C701 1.349 . S
C702 C714 1.349 . S
C703 C701 1.327 . S
C703 C719 1.429 . S
C703 H725 0.950 . S
C704 H700 0.949 . S
C704 C712 1.574 . S
C704 C720 1.368 . S
H705 C713 0.950 . S
H706 C711 0.950 . S
H707 C712 0.949 . S
H708 C714 0.950 . S
H709 C715 0.950 . S
H710 C716 0.949 . S
C711 H706 0.950 . S
C711 C713 1.327 . S
C711 C717 1.429 . S
C712 C704 1.574 . S
C712 H707 0.949 . S
C712 C718 1.368 . S
C713 C697 1.349 . S
C713 H705 0.950 . S
C713 C711 1.327 . S
C714 C702 1.349 . S
C714 H708 0.950 . S
C714 C715 1.327 . S
C715 H709 0.950 . S
C715 C714 1.327 . S
C715 C719 1.429 . S
C716 C699 1.574 . S
C716 H710 0.949 . S
C716 C720 1.368 . S
C717 C698 1.429 . S
C717 C711 1.429 . S
C717 C718 1.523 . S
C718 C699 1.368 . S
C718 C712 1.368 . S
C718 C717 1.523 . S
C719 C703 1.429 . S
C719 C715 1.429 . S
C719 C720 1.523 . S
C720 C704 1.368 . S
C720 C716 1.368 . S
C720 C719 1.523 . S
H721 C696 0.950 . S
H722 C698 0.950 . S
H723 C699 0.949 . S
H724 C701 0.950 . S
H725 C703 0.950 . S
C726 C727 1.349 . S
C726 C728 1.327 . S
C726 H751 0.950 . S
C727 C726 1.349 . S
C727 C743 1.349 . S
C728 C726 1.327 . S
C728 C747 1.429 . S
C728 H752 0.950 . S
C729 C746 1.574 1_655 S
C729 C748 1.368 . S
C729 H753 0.949 . S
H730 C734 0.949 . S
C731 C732 1.349 . S
C731 C733 1.327 . S
C731 H754 0.950 . S
C732 C731 1.349 . S
C732 C744 1.349 . S
C733 C731 1.327 . S
C733 C749 1.429 . S
C733 H755 0.950 1_554 S
C734 H730 0.949 . S
C734 C742 1.574 1_554 S
C734 C750 1.368 1_654 S
H735 C743 0.950 . S
H736 C741 0.950 . S
H737 C742 0.949 . S
H738 C744 0.950 . S
H739 C745 0.950 . S
H740 C746 0.949 . S
C741 H736 0.950 . S
C741 C743 1.327 . S
C741 C747 1.429 . S
C742 C734 1.574 1_556 S
C742 H737 0.949 . S
C742 C748 1.368 . S
C743 C727 1.349 . S
C743 H735 0.950 . S
C743 C741 1.327 . S
C744 C732 1.349 . S
C744 H738 0.950 . S
C744 C745 1.327 . S
C745 H739 0.950 . S
C745 C744 1.327 . S
C745 C749 1.429 . S
C746 C729 1.574 1_455 S
C746 H740 0.949 . S
C746 C750 1.368 . S
C747 C728 1.429 . S
C747 C741 1.429 . S
C747 C748 1.523 . S
C748 C729 1.368 . S
C748 C742 1.368 . S
C748 C747 1.523 . S
C749 C733 1.429 . S
C749 C745 1.429 . S
C749 C750 1.523 1_554 S
C750 C734 1.368 1_456 S
C750 C746 1.368 . S
C750 C749 1.523 1_556 S
H751 C726 0.950 . S
H752 C728 0.950 . S
H753 C729 0.949 . S
H754 C731 0.950 . S
H755 C733 0.950 1_556 S
C756 C757 1.349 . S
C756 C758 1.327 . S
C756 H781 0.950 . S
C757 C756 1.349 . S
C757 C773 1.349 . S
C758 C756 1.327 . S
C758 C777 1.429 . S
C758 H782 0.950 . S
C759 C776 1.574 1_565 S
C759 C778 1.368 . S
C759 H783 0.949 . S
H760 C764 0.949 . S
C761 C762 1.349 . S
C761 C763 1.327 . S
C761 H784 0.950 . S
C762 C761 1.349 . S
C762 C774 1.349 . S
C763 C761 1.327 . S
C763 C779 1.429 . S
C763 H785 0.950 . S
C764 H760 0.949 . S
C764 C772 1.574 . S
C764 C780 1.368 1_565 S
H765 C773 0.950 . S
H766 C771 0.950 . S
H767 C772 0.949 . S
H768 C774 0.950 . S
H769 C775 0.950 . S
H770 C776 0.949 . S
C771 H766 0.950 . S
C771 C773 1.327 . S
C771 C777 1.429 . S
C772 C764 1.574 . S
C772 H767 0.949 . S
C772 C778 1.368 . S
C773 C757 1.349 . S
C773 H765 0.950 . S
C773 C771 1.327 . S
C774 C762 1.349 . S
C774 H768 0.950 . S
C774 C775 1.327 . S
C775 H769 0.950 . S
C775 C774 1.327 . S
C775 C779 1.429 . S
C776 C759 1.574 1_545 S
C776 H770 0.949 . S
C776 C780 1.368 . S
C777 C758 1.429 . S
C777 C771 1.429 . S
C777 C778 1.523 . S
C778 C759 1.368 . S
C778 C772 1.368 . S
C778 C777 1.523 . S
C779 C763 1.429 . S
C779 C775 1.429 . S
C779 C780 1.523 . S
C780 C764 1.368 1_545 S
C780 C776 1.368 . S
C780 C779 1.523 . S
H781 C756 0.950 . S
H782 C758 0.950 . S
H783 C759 0.949 . S
H784 C761 0.950 . S
H785 C763 0.950 . S
C786 C787 1.349 . S
C786 C788 1.327 . S
C786 H811 0.950 . S
C787 C786 1.349 . S
C787 C803 1.349 . S
C788 C786 1.327 . S
C788 C807 1.429 . S
C788 H812 0.950 . S
C789 C806 1.574 . S
C789 C808 1.368 . S
C789 H813 0.949 . S
H790 C794 0.949 . S
C791 C792 1.349 . S
C791 C793 1.327 . S
C791 H814 0.950 . S
C792 C791 1.349 . S
C792 C804 1.349 . S
C793 C791 1.327 . S
C793 C809 1.429 . S
C793 H815 0.950 . S
C794 H790 0.949 . S
C794 C802 1.574 . S
C794 C810 1.368 . S
H795 C803 0.950 . S
H796 C801 0.950 . S
H797 C802 0.949 . S
H798 C804 0.950 . S
H799 C805 0.950 . S
H800 C806 0.949 . S
C801 H796 0.950 . S
C801 C803 1.327 . S
C801 C807 1.429 . S
C802 C794 1.574 . S
C802 H797 0.949 . S
C802 C808 1.368 . S
C803 C787 1.349 . S
C803 H795 0.950 . S
C803 C801 1.327 . S
C804 C792 1.349 . S
C804 H798 0.950 . S
C804 C805 1.327 . S
C805 H799 0.950 . S
C805 C804 1.327 . S
C805 C809 1.429 . S
C806 C789 1.574 . S
C806 H800 0.949 . S
C806 C810 1.368 . S
C807 C788 1.429 . S
C807 C801 1.429 . S
C807 C808 1.523 . S
C808 C789 1.368 . S
C808 C802 1.368 . S
C808 C807 1.523 . S
C809 C793 1.429 . S
C809 C805 1.429 . S
C809 C810 1.523 . S
C810 C794 1.368 . S
C810 C806 1.368 . S
C810 C809 1.523 . S
H811 C786 0.950 . S
H812 C788 0.950 . S
H813 C789 0.949 . S
H814 C791 0.950 . S
H815 C793 0.950 . S
C816 C817 1.349 . S
C816 C818 1.327 . S
C816 H841 0.950 . S
C817 C816 1.349 . S
C817 C833 1.349 . S
C818 C816 1.327 . S
C818 C837 1.429 . S
C818 H842 0.950 . S
C819 C836 1.553 1_455 S
C819 C838 1.368 . S
C819 H843 0.949 . S
H820 C824 0.949 . S
C821 C822 1.349 . S
C821 C823 1.327 . S
C821 H844 0.950 . S
C822 C821 1.349 . S
C822 C834 1.349 . S
C823 C821 1.327 . S
C823 C839 1.429 . S
C823 H845 0.950 . S
C824 H820 0.949 . S
C824 C832 1.574 . S
C824 C840 1.368 1_455 S
H825 C833 0.950 . S
H826 C831 0.950 . S
H827 C832 0.949 . S
H828 C834 0.950 . S
H829 C835 0.950 . S
H830 C836 0.977 . S
C831 H826 0.950 . S
C831 C833 1.327 . S
C831 C837 1.429 . S
C832 C824 1.574 . S
C832 H827 0.949 . S
C832 C838 1.368 . S
C833 C817 1.349 . S
C833 H825 0.950 . S
C833 C831 1.327 . S
C834 C822 1.349 . S
C834 H828 0.950 . S
C834 C835 1.327 . S
C835 H829 0.950 . S
C835 C834 1.327 . S
C835 C839 1.429 . S
C836 C819 1.553 1_655 S
C836 H830 0.977 . S
C836 C840 1.359 . S
C837 C818 1.429 . S
C837 C831 1.429 . S
C837 C838 1.523 . S
C838 C819 1.368 . S
C838 C832 1.368 . S
C838 C837 1.523 . S
C839 C823 1.429 . S
C839 C835 1.429 . S
C839 C840 1.523 . S
C840 C824 1.368 1_655 S
C840 C836 1.359 . S
C840 C839 1.523 . S
H841 C816 0.950 . S
H842 C818 0.950 . S
H843 C819 0.949 . S
H844 C821 0.950 . S
H845 C823 0.950 . S
C846 C847 1.349 . S
C846 C848 1.327 . S
C846 H871 0.950 . S
C847 C846 1.349 . S
C847 C863 1.349 . S
C848 C846 1.327 . S
C848 C867 1.429 . S
C848 H872 0.950 . S
C849 C866 1.574 . S
C849 C868 1.368 1_545 S
C849 H873 0.949 1_545 S
H850 C854 0.949 . S
C851 C852 1.349 . S
C851 C853 1.327 . S
C851 H874 0.950 . S
C852 C851 1.349 . S
C852 C864 1.349 . S
C853 C851 1.327 . S
C853 C869 1.429 . S
C853 H875 0.950 . S
C854 H850 0.949 . S
C854 C862 1.574 . S
C854 C870 1.368 . S
H855 C863 0.950 . S
H856 C861 0.950 . S
H857 C862 0.949 1_565 S
H858 C864 0.950 . S
H859 C865 0.950 . S
H860 C866 0.949 . S
C861 H856 0.950 . S
C861 C863 1.327 . S
C861 C867 1.429 . S
C862 C854 1.574 . S
C862 H857 0.949 1_545 S
C862 C868 1.368 1_545 S
C863 C847 1.349 . S
C863 H855 0.950 . S
C863 C861 1.327 . S
C864 C852 1.349 . S
C864 H858 0.950 . S
C864 C865 1.327 . S
C865 H859 0.950 . S
C865 C864 1.327 . S
C865 C869 1.429 . S
C866 C849 1.574 . S
C866 H860 0.949 . S
C866 C870 1.368 . S
C867 C848 1.429 . S
C867 C861 1.429 . S
C867 C868 1.523 . S
C868 C849 1.368 1_565 S
C868 C862 1.368 1_565 S
C868 C867 1.523 . S
C869 C853 1.429 . S
C869 C865 1.429 . S
C869 C870 1.523 . S
C870 C854 1.368 . S
C870 C866 1.368 . S
C870 C869 1.523 . S
H871 C846 0.950 . S
H872 C848 0.950 . S
H873 C849 0.949 1_565 S
H874 C851 0.950 . S
H875 C853 0.950 . S
C157 C108 1.166 . S
C162 C4 1.166 . S
C187 C17 1.166 . S
C192 C127 1.166 . S
C217 C30 1.166 . S
C222 C140 1.166 . S
C247 C49 1.166 . S
C252 C153 1.166 . S
C277 C88 1.166 . S
C282 C56 1.166 . S
C307 C69 1.166 . S
C312 C95 1.166 . S
C337 C120 0.854 . S
C342 C5 0.854 . S
C367 C18 0.854 . S
C372 C133 0.854 . S
C397 C146 0.854 . S
C402 C31 0.854 . S
C427 C42 0.854 . S
C432 C81 0.854 . S
C457 C96 0.854 . S
C462 C57 0.854 . S
C487 C109 0.854 . S
C492 C70 0.854 . S
C517 C3 1.579 . S
C522 C75 1.585 . S
C547 C16 1.579 . S
C552 C10 1.585 . S
C577 C23 1.585 . S
C582 C29 1.579 . S
C607 C44 1.579 . S
C612 C36 1.585 . S
C637 C55 1.579 . S
C642 C43 1.585 . S
C667 C68 1.579 . S
C672 C62 1.585 . S
C697 C83 1.579 . S
C702 C101 1.585 . S
C727 C94 1.579 . S
C732 C114 1.585 . S
C757 C107 1.579 . S
C762 C121 1.585 . S
C787 C122 1.579 . S
C792 C134 1.585 . S
C817 C135 1.579 . S
C822 C147 1.585 . S
C847 C82 1.585 . S
C852 C148 1.579 . S
