# Generated by pormake.
# Topology smc, (6)-cn, num edge types: 1
# Building blocks:
#     Node 0, Type 0, BuildingBlock: KUMBOL_clean_sbu_0, # of connection points: 6
#     Node 1, Type 0, BuildingBlock: KUMBOL_clean_sbu_0, # of connection points: 6
#     Node 2, Type 0, BuildingBlock: KUMBOL_clean_sbu_0, # of connection points: 6
#     Node 3, Type 0, BuildingBlock: KUMBOL_clean_sbu_0, # of connection points: 6
#     Node 4, Type 0, BuildingBlock: KUMBOL_clean_sbu_0, # of connection points: 6
#     Node 5, Type 0, BuildingBlock: KUMBOL_clean_sbu_0, # of connection points: 6
#     Node 6, Type 0, BuildingBlock: KUMBOL_clean_sbu_0, # of connection points: 6
#     Node 7, Type 0, BuildingBlock: KUMBOL_clean_sbu_0, # of connection points: 6
#     Node 8, Type 0, BuildingBlock: KUMBOL_clean_sbu_0, # of connection points: 6
#     Edge 9, Type (0, 0), BuildingBlock: ZUJKAS_clean_linker_0, # of connection points: 2
#     Edge 10, Type (0, 0), BuildingBlock: ZUJKAS_clean_linker_0, # of connection points: 2
#     Edge 11, Type (0, 0), BuildingBlock: ZUJKAS_clean_linker_0, # of connection points: 2
#     Edge 12, Type (0, 0), BuildingBlock: ZUJKAS_clean_linker_0, # of connection points: 2
#     Edge 13, Type (0, 0), BuildingBlock: ZUJKAS_clean_linker_0, # of connection points: 2
#     Edge 14, Type (0, 0), BuildingBlock: ZUJKAS_clean_linker_0, # of connection points: 2
#     Edge 15, Type (0, 0), BuildingBlock: ZUJKAS_clean_linker_0, # of connection points: 2
#     Edge 16, Type (0, 0), BuildingBlock: ZUJKAS_clean_linker_0, # of connection points: 2
#     Edge 17, Type (0, 0), BuildingBlock: ZUJKAS_clean_linker_0, # of connection points: 2
#     Edge 18, Type (0, 0), BuildingBlock: ZUJKAS_clean_linker_0, # of connection points: 2
#     Edge 19, Type (0, 0), BuildingBlock: ZUJKAS_clean_linker_0, # of connection points: 2
#     Edge 20, Type (0, 0), BuildingBlock: ZUJKAS_clean_linker_0, # of connection points: 2
#     Edge 21, Type (0, 0), BuildingBlock: ZUJKAS_clean_linker_0, # of connection points: 2
#     Edge 22, Type (0, 0), BuildingBlock: ZUJKAS_clean_linker_0, # of connection points: 2
#     Edge 23, Type (0, 0), BuildingBlock: ZUJKAS_clean_linker_0, # of connection points: 2
#     Edge 24, Type (0, 0), BuildingBlock: ZUJKAS_clean_linker_0, # of connection points: 2
#     Edge 25, Type (0, 0), BuildingBlock: ZUJKAS_clean_linker_0, # of connection points: 2
#     Edge 26, Type (0, 0), BuildingBlock: ZUJKAS_clean_linker_0, # of connection points: 2
#     Edge 27, Type (0, 0), BuildingBlock: ZUJKAS_clean_linker_0, # of connection points: 2
#     Edge 28, Type (0, 0), BuildingBlock: ZUJKAS_clean_linker_0, # of connection points: 2
#     Edge 29, Type (0, 0), BuildingBlock: ZUJKAS_clean_linker_0, # of connection points: 2
#     Edge 30, Type (0, 0), BuildingBlock: ZUJKAS_clean_linker_0, # of connection points: 2
#     Edge 31, Type (0, 0), BuildingBlock: ZUJKAS_clean_linker_0, # of connection points: 2
#     Edge 32, Type (0, 0), BuildingBlock: ZUJKAS_clean_linker_0, # of connection points: 2
#     Edge 33, Type (0, 0), BuildingBlock: ZUJKAS_clean_linker_0, # of connection points: 2
#     Edge 34, Type (0, 0), BuildingBlock: ZUJKAS_clean_linker_0, # of connection points: 2
#     Edge 35, Type (0, 0), BuildingBlock: ZUJKAS_clean_linker_0, # of connection points: 2
# Relax obj value: 0.109
# Max RMSD: 0.278
# Mean RMSD: 0.278
data_MOF--net-smc--node1-KUMBOL_clean_sbu_0--edge1-ZUJKAS_clean_linker_0
_symmetry_space_group_name_H-M    P1
_symmetry_Int_Tables_number       1
_symmetry_cell_setting            triclinic
loop_
_symmetry_equiv_pos_as_xyz
'x, y, z'
_cell_length_a     46.585811
_cell_length_b     46.582441
_cell_length_c     52.873567
_cell_angle_alpha  89.910312
_cell_angle_beta   90.083865
_cell_angle_gamma 119.9614
loop_
_atom_site_label
_atom_site_type_symbol
_atom_site_fract_x
_atom_site_fract_y
_atom_site_fract_z
_atom_type_partial_charge
Gd0 Gd 1.00019 0.40825 0.01236 0.0
Gd1 Gd 0.0472 0.4976 0.99908 0.0
C2 C 1.00029 0.55036 0.0412 0.0
C3 C 0.97171 0.56134 1.00762 0.0
C4 C 1.00103 0.53125 0.99867 0.0
C5 C 1.01043 0.53402 0.02383 0.0
C6 C 0.98181 0.54532 0.99035 0.0
C7 C 0.98071 0.56363 0.033 0.0
C8 C 1.0105 0.55343 0.06635 0.0
C9 C 0.03162 0.54189 0.07349 0.0
N10 N 0.02978 0.5213 0.03133 0.0
C11 C 0.04174 0.52676 0.05561 0.0
H12 H 0.0605 0.52139 0.06151 0.0
C13 C 1.00577 0.51694 0.95672 0.0
N14 N 1.01157 0.51604 0.98215 0.0
C15 C 0.98611 0.52965 0.94787 0.0
C16 C 0.97378 0.54361 0.96477 0.0
H17 H 1.01754 0.50985 0.94251 0.0
H18 H 0.97277 0.57615 0.0461 0.0
H19 H 0.03617 0.39205 0.96342 0.0
H20 H 1.0031 0.56563 0.08018 0.0
H21 H 0.04101 0.54555 0.09266 0.0
H22 H 0.9572 0.57239 1.00147 0.0
H23 H 0.96558 0.38135 0.06917 0.0
H24 H 0.08533 0.34197 0.99191 0.0
H25 H 0.07085 0.36673 0.95619 0.0
H26 H 0.04963 0.31984 0.07822 0.0
H27 H 0.98145 0.52971 0.92782 0.0
H28 H 0.95908 0.55404 0.95774 0.0
H29 H 0.07767 0.325 0.03765 0.0
H30 H 0.96977 0.34982 0.10533 0.0
N31 N 0.03206 0.38315 1.00313 0.0
C32 C 0.07019 0.35323 0.99525 0.0
C33 C 0.06196 0.36706 0.97503 0.0
C34 C 0.05747 0.35272 0.0193 0.0
C35 C 0.03798 0.36782 0.02263 0.0
C36 C 0.04225 0.38144 0.97924 0.0
N37 N 1.00238 0.37831 0.04747 0.0
C38 C 0.02237 0.36501 0.04547 0.0
C39 C 0.98492 0.35417 0.08869 0.0
C40 C 1.0068 0.34191 0.08748 0.0
C41 C 0.98259 0.37196 0.06824 0.0
C42 C 0.02558 0.3469 0.06558 0.0
H43 H 1.00828 0.32783 0.10324 0.0
O44 O 0.94676 0.37976 0.01785 0.0
O45 O 0.99716 0.45411 1.00496 0.0
O46 O 0.06534 0.4848 0.03677 0.0
O47 O 0.02873 0.42951 0.04783 0.0
O48 O 0.9722 0.426 0.03635 0.0
O49 O 0.9698 0.36338 0.99057 0.0
O50 O 0.08016 0.53626 0.97313 0.0
O51 O 0.05067 0.45211 1.00384 0.0
O52 O 0.99986 0.41491 0.97033 0.0
O53 O 0.02604 0.47163 0.96137 0.0
O54 O 0.07819 0.48376 0.97508 0.0
O55 O 0.09079 0.54262 0.01298 0.0
C56 C 0.97799 0.45139 0.02286 0.0
C57 C 0.04646 0.33343 0.06286 0.0
C58 C 0.06246 0.33641 0.03976 0.0
C59 C 0.9424 0.35655 1.00212 0.0
C60 C 0.92123 0.32227 0.01126 0.0
C61 C 0.93524 0.30569 0.02381 0.0
C62 C 0.88652 0.30643 0.00833 0.0
C63 C 0.86572 0.27433 0.0183 0.0
C64 C 0.91502 0.2743 0.03401 0.0
C65 C 0.88065 0.25885 0.03154 0.0
C66 C 0.05368 0.45913 0.05303 0.0
C67 C 0.07169 0.45678 0.98666 0.0
C68 C 0.09838 0.55676 0.99082 0.0
C69 C 0.10384 0.59109 0.98901 0.0
C70 C 0.07841 0.59601 0.97962 0.0
C71 C 0.13434 0.61921 0.99595 0.0
C72 C 0.1385 0.65148 0.99409 0.0
C73 C 0.08225 0.62752 0.97808 0.0
C74 C 0.11193 0.655 0.9853 0.0
C75 C 1.00909 0.43999 0.95464 0.0
H76 H 0.96177 0.31707 0.02592 0.0
H77 H 0.87595 0.31912 0.99811 0.0
H78 H 0.92604 0.26193 0.04407 0.0
H79 H 0.86583 0.23484 0.04031 0.0
H80 H 0.0556 0.57563 0.97293 0.0
H81 H 0.15455 0.61604 1.00272 0.0
H82 H 0.06225 0.63068 0.97084 0.0
H83 H 0.11442 0.6793 0.98328 0.0
Gd84 Gd 0.63803 0.59988 0.01831 0.0
Gd85 Gd 0.55061 0.55682 0.99812 0.0
C86 C 0.49427 0.45008 0.02793 0.0
C87 C 0.48231 0.41798 0.98941 0.0
C88 C 0.51467 0.47835 0.98782 0.0
C89 C 0.5117 0.47975 0.01381 0.0
C90 C 0.49975 0.4473 0.97539 0.0
C91 C 0.47976 0.41935 0.01562 0.0
C92 C 0.49191 0.45202 0.05412 0.0
C93 C 0.50641 0.48291 0.06568 0.0
N94 N 0.5261 0.50988 0.02537 0.0
C95 C 0.52314 0.51158 0.05103 0.0
H96 H 0.53291 0.53463 0.0608 0.0
C97 C 0.53067 0.50619 0.94856 0.0
N98 N 0.53108 0.50713 0.97454 0.0
C99 C 0.51725 0.47612 0.93561 0.0
C100 C 0.50202 0.44652 0.94909 0.0
H101 H 0.53939 0.52853 0.93749 0.0
H102 H 0.46638 0.39645 0.0262 0.0
H103 H 0.66154 0.6632 0.97733 0.0
H104 H 0.47888 0.42984 0.06556 0.0
H105 H 0.50446 0.48472 0.08595 0.0
H106 H 0.47053 0.39406 0.98012 0.0
H107 H 0.65693 0.58004 0.07462 0.0
H108 H 0.6991 0.75304 0.01961 0.0
H109 H 0.68424 0.72354 0.9786 0.0
H110 H 0.7038 0.71884 0.10437 0.0
H111 H 0.51768 0.47581 0.91514 0.0
H112 H 0.49105 0.4232 0.93896 0.0
H113 H 0.70569 0.75093 0.06671 0.0
H114 H 0.67762 0.60607 0.11636 0.0
N115 N 0.66244 0.65807 0.01729 0.0
C116 C 0.68915 0.72648 0.01917 0.0
C117 C 0.68089 0.70993 0.99599 0.0
C118 C 0.68569 0.70871 0.0414 0.0
C119 C 0.67253 0.67415 0.03975 0.0
C120 C 0.66801 0.67562 0.99537 0.0
N121 N 0.66065 0.62344 0.05804 0.0
C122 C 0.67169 0.65627 0.06083 0.0
C123 C 0.67583 0.62041 0.10095 0.0
C124 C 0.68503 0.65361 0.10461 0.0
C125 C 0.66417 0.60576 0.07728 0.0
C126 C 0.6837 0.67219 0.08428 0.0
H127 H 0.69405 0.6649 0.12296 0.0
O128 O 0.66679 0.57468 0.01965 0.0
O129 O 0.59439 0.55175 1.00638 0.0
O130 O 0.55704 0.58297 0.03721 0.0
O131 O 0.61014 0.59896 0.05272 0.0
O132 O 0.62051 0.55053 0.03762 0.0
O133 O 0.68635 0.62128 1.00013 0.0
O134 O 0.51471 0.55794 0.9723 0.0
O135 O 0.59424 0.60557 1.0073 0.0
O136 O 0.6359 0.60315 0.97592 0.0
O137 O 0.58342 0.56096 0.96427 0.0
O138 O 0.5667 0.60373 0.97607 0.0
O139 O 0.50409 0.55143 0.01226 0.0
C140 C 0.59617 0.53286 0.02265 0.0
C141 C 0.69493 0.70623 0.08642 0.0
C142 C 0.69597 0.72448 0.06499 0.0
C143 C 0.69219 0.59819 1.00805 0.0
C144 C 0.7247 0.60879 0.01989 0.0
C145 C 0.73904 0.63619 0.03616 0.0
C146 C 0.74104 0.59063 0.0156 0.0
C147 C 0.77162 0.59975 0.02751 0.0
C148 C 0.76908 0.64526 0.04811 0.0
C149 C 0.78521 0.62723 0.04394 0.0
C150 C 0.58013 0.59452 0.05552 0.0
C151 C 0.59113 0.62337 0.99048 0.0
C152 C 0.49247 0.55135 0.98979 0.0
C153 C 0.45798 0.52433 0.98432 0.0
C154 C 0.45274 0.49645 0.97046 0.0
C155 C 0.42993 0.52593 0.99279 0.0
C156 C 0.39751 0.49931 0.98799 0.0
C157 C 0.42101 0.47016 0.96601 0.0
C158 C 0.3936 0.47143 0.97481 0.0
C159 C 0.61484 0.58274 0.95895 0.0
H160 H 0.72696 0.65048 0.03976 0.0
H161 H 0.73002 0.56963 1.00286 0.0
H162 H 0.77984 0.66628 0.06082 0.0
H163 H 0.80815 0.63461 0.05394 0.0
H164 H 0.47303 0.49486 0.96268 0.0
H165 H 0.43325 0.54748 1.00308 0.0
H166 H 0.41765 0.44881 0.95543 0.0
H167 H 0.36911 0.45084 0.97074 0.0
Gd168 Gd 0.44371 0.04441 0.01279 0.0
Gd169 Gd 0.49155 1.00235 0.99935 0.0
C170 C 0.59563 0.05642 0.03411 0.0
C171 C 0.63072 0.0747 0.99694 0.0
C172 C 0.57059 0.04581 0.99242 0.0
C173 C 0.56716 0.04289 0.01848 0.0
C174 C 0.60255 0.06166 0.98143 0.0
C175 C 0.62729 0.07227 0.0232 0.0
C176 C 0.59158 0.05397 0.06032 0.0
C177 C 0.55981 0.03868 0.07046 0.0
N178 N 0.53617 0.0276 0.02862 0.0
C179 C 0.53237 0.02567 0.05436 0.0
H180 H 0.50852 0.01458 0.06309 0.0
C181 C 0.54586 0.03143 0.95196 0.0
N182 N 0.54288 0.03222 0.97776 0.0
C183 C 0.57688 0.04777 0.94031 0.0
C184 C 0.60537 0.06325 0.95511 0.0
H185 H 0.52438 0.01719 0.94014 0.0
H186 H 0.64931 0.08275 0.03493 0.0
H187 H 0.38616 1.00242 0.96803 0.0
H188 H 0.6128 0.06413 0.07289 0.0
H189 H 0.55637 0.03698 0.09077 0.0
H190 H 0.65535 0.0867 0.98879 0.0
H191 H 0.45806 0.08029 0.07003 0.0
H192 H 0.29058 0.95724 1.0025 0.0
H193 H 0.32575 0.96718 0.96483 0.0
H194 H 0.31373 0.99967 0.08709 0.0
H195 H 0.57881 0.04749 0.91993 0.0
H196 H 0.62944 0.07537 0.94604 0.0
H197 H 0.28636 0.96941 0.04816 0.0
H198 H 0.42668 0.07749 0.10834 0.0
N199 N 0.38589 1.01164 1.00743 0.0
C200 C 0.31723 0.97273 1.00407 0.0
C201 C 0.33698 0.97833 0.98276 0.0
C202 C 0.33204 0.988 0.02695 0.0
C203 C 0.36687 1.0078 0.02799 0.0
C204 C 0.37138 0.9984 0.9847 0.0
N205 N 0.41569 0.04418 0.04995 0.0
C206 C 0.38218 0.02486 0.04985 0.0
C207 C 0.41388 0.06239 0.09208 0.0
C208 C 0.3796 0.04134 0.09272 0.0
C209 C 0.4316 0.06388 0.07031 0.0
C210 C 0.36325 0.02256 0.07134 0.0
H211 H 0.36595 0.04023 0.10961 0.0
O212 O 0.46762 0.09816 0.01475 0.0
O213 O 0.49342 0.05002 1.00547 0.0
O214 O 0.46321 0.9837 0.0379 0.0
O215 O 0.43582 1.01337 0.04696 0.0
O216 O 0.49055 0.07721 0.03503 0.0
O217 O 0.42581 0.07128 0.98994 0.0
O218 O 0.49342 0.9647 0.97616 0.0
O219 O 0.44138 0.99592 1.00374 0.0
O220 O 0.44526 0.03807 0.97082 0.0
O221 O 0.49076 0.03105 0.96399 0.0
O222 O 0.44767 0.96991 0.97476 0.0
O223 O 0.49676 0.96254 0.01673 0.0
C224 C 0.51027 0.07121 0.02202 0.0
C225 C 0.32868 1.00198 0.0707 0.0
C226 C 0.31311 0.98472 0.04855 0.0
C227 C 0.44679 0.10009 0.99951 0.0
C228 C 0.43371 0.12148 1.00818 0.0
C229 C 0.40353 0.10786 0.02119 0.0
C230 C 0.45248 0.15612 1.00463 0.0
C231 C 0.44137 0.17722 0.01427 0.0
C232 C 0.39242 0.1284 0.03088 0.0
C233 C 0.41116 0.16269 0.02764 0.0
C234 C 0.44461 0.99131 0.05285 0.0
C235 C 0.42607 0.9746 0.98653 0.0
C236 C 0.49876 0.95004 0.99518 0.0
C237 C 0.52636 0.94268 0.99238 0.0
C238 C 0.55577 0.96567 0.98028 0.0
C239 C 0.52373 0.91276 1.00146 0.0
C240 C 0.55079 0.907 0.99899 0.0
C241 C 0.58242 0.96026 0.97808 0.0
C242 C 0.58008 0.93131 0.98744 0.0
C243 C 0.46839 0.03884 0.95602 0.0
H244 H 0.38871 0.08141 0.02411 0.0
H245 H 0.47562 0.16645 0.99432 0.0
H246 H 0.36928 0.1177 0.04119 0.0
H247 H 0.40207 0.1778 0.03606 0.0
H248 H 0.5583 0.98776 0.97209 0.0
H249 H 0.50103 0.89428 0.0104 0.0
H250 H 0.6049 0.97849 0.96876 0.0
H251 H 0.60103 0.9275 0.98501 0.0
Gd252 Gd 0.67376 0.7402 0.34695 0.0
Gd253 Gd 0.72082 0.82827 0.32905 0.0
C254 C 0.67329 0.88874 0.35457 0.0
C255 C 0.66173 0.90645 0.31453 0.0
C256 C 0.68689 0.87145 0.31526 0.0
C257 C 0.68639 0.87137 0.34152 0.0
C258 C 0.67489 0.88938 0.30155 0.0
C259 C 0.66094 0.90614 0.34095 0.0
C260 C 0.67268 0.88793 0.38099 0.0
C261 C 0.68481 0.87007 0.39382 0.0
N262 N 0.69792 0.85378 0.3543 0.0
C263 C 0.69739 0.85312 0.38018 0.0
H264 H 0.70595 0.8392 0.39074 0.0
C265 C 0.70309 0.85672 0.27736 0.0
N266 N 0.69921 0.85426 0.30308 0.0
C267 C 0.6914 0.87396 0.26303 0.0
C268 C 0.67686 0.89005 0.27515 0.0
H269 H 0.71556 0.84552 0.26778 0.0
H270 H 0.65075 0.91948 0.35069 0.0
H271 H 0.71198 0.71764 0.30392 0.0
H272 H 0.6627 0.90082 0.39164 0.0
H273 H 0.68426 0.86912 0.41428 0.0
H274 H 0.65227 0.92015 0.30429 0.0
H275 H 0.63699 0.72176 0.40396 0.0
H276 H 0.75941 0.67203 0.34277 0.0
H277 H 0.74715 0.69205 0.30309 0.0
H278 H 0.72022 0.66242 0.42788 0.0
H279 H 0.69404 0.87521 0.24266 0.0
H280 H 0.66796 0.90356 0.26401 0.0
H281 H 0.74945 0.66135 0.38945 0.0
H282 H 0.64083 0.69721 0.44435 0.0
N283 N 0.70521 0.71342 0.34383 0.0
C284 C 0.74395 0.68332 0.34327 0.0
C285 C 0.73703 0.69451 0.32084 0.0
C286 C 0.72978 0.68567 0.36592 0.0
C287 C 0.70996 0.7007 0.36551 0.0
C288 C 0.71706 0.70909 0.32141 0.0
N289 N 0.67366 0.71472 0.38559 0.0
C290 C 0.69341 0.70106 0.38704 0.0
C291 C 0.65591 0.69833 0.42842 0.0
C292 C 0.67767 0.68602 0.43067 0.0
C293 C 0.65379 0.7122 0.4055 0.0
C294 C 0.69635 0.68677 0.40971 0.0
H295 H 0.67931 0.67535 0.44846 0.0
O296 O 0.61992 0.71209 0.34985 0.0
O297 O 0.67121 0.78547 0.33692 0.0
O298 O 0.73714 0.82051 0.36924 0.0
O299 O 0.70385 0.76475 0.3811 0.0
O300 O 0.64351 0.75847 0.36768 0.0
O301 O 0.64503 0.69398 0.32621 0.0
O302 O 0.76537 0.85881 0.30744 0.0
O303 O 0.72422 0.78335 0.33716 0.0
O304 O 0.67929 0.74537 0.30462 0.0
O305 O 0.68782 0.79796 0.29553 0.0
O306 O 0.74871 0.81028 0.30538 0.0
O307 O 0.759 0.87678 0.34338 0.0
C308 C 0.65079 0.78359 0.35341 0.0
C309 C 0.71732 0.6732 0.41057 0.0
C310 C 0.73401 0.67264 0.3887 0.0
C311 C 0.61678 0.68773 0.33595 0.0
C312 C 0.59518 0.65419 0.34645 0.0
C313 C 0.60904 0.63812 0.35997 0.0
C314 C 0.56033 0.63875 0.34415 0.0
C315 C 0.53958 0.60779 0.35579 0.0
C316 C 0.58868 0.60744 0.37128 0.0
C317 C 0.55428 0.59245 0.36934 0.0
C318 C 0.72726 0.79536 0.38576 0.0
C319 C 0.74403 0.78578 0.31965 0.0
C320 C 0.77677 0.88403 0.32281 0.0
C321 C 0.78861 0.91731 0.31102 0.0
C322 C 0.78128 0.91931 0.28547 0.0
C323 C 0.80878 0.94727 0.32439 0.0
C324 C 0.82024 0.97846 0.3124 0.0
C325 C 0.79193 0.94976 0.27384 0.0
C326 C 0.8111 0.97901 0.28711 0.0
C327 C 0.67865 0.76699 0.28878 0.0
H328 H 0.63562 0.64937 0.36196 0.0
H329 H 0.54942 0.65114 0.33393 0.0
H330 H 0.59962 0.59529 0.38173 0.0
H331 H 0.53908 0.5686 0.37831 0.0
H332 H 0.76784 0.89733 0.27409 0.0
H333 H 0.81561 0.94631 0.34384 0.0
H334 H 0.78586 0.95071 0.2542 0.0
H335 H 0.81979 1.00225 0.27716 0.0
Gd336 Gd 0.30874 0.93212 0.35353 0.0
Gd337 Gd 0.22301 0.89849 0.33186 0.0
C338 C 0.1503 0.79248 0.35633 0.0
C339 C 0.12829 0.7656 0.316 0.0
C340 C 0.17313 0.82299 0.31734 0.0
C341 C 0.17245 0.82208 0.34359 0.0
C342 C 0.15099 0.79462 0.30332 0.0
C343 C 0.12809 0.76446 0.34242 0.0
C344 C 0.15076 0.79192 0.38274 0.0
C345 C 0.17267 0.82046 0.39587 0.0
N346 N 0.19319 0.85003 0.35667 0.0
C347 C 0.19357 0.84942 0.38255 0.0
H348 H 0.21019 0.87074 0.39335 0.0
C349 C 0.19341 0.85412 0.27973 0.0
N350 N 0.19447 0.85177 0.30549 0.0
C351 C 0.17276 0.82644 0.26509 0.0
C352 C 0.15153 0.79648 0.27693 0.0
H353 H 0.20762 0.87775 0.27039 0.0
H354 H 0.11071 0.7417 0.35193 0.0
H355 H 0.33843 0.99373 0.31059 0.0
H356 H 0.13433 0.76961 0.39315 0.0
H357 H 0.17338 0.82025 0.41633 0.0
H358 H 0.11096 0.74375 0.30552 0.0
H359 H 0.32298 0.91192 0.4112 0.0
H360 H 0.38354 0.08621 0.35004 0.0
H361 H 0.36647 0.05471 0.30993 0.0
H362 H 0.38357 0.05419 0.43631 0.0
H363 H 0.17243 0.82855 0.24471 0.0
H364 H 0.13497 0.77523 0.26556 0.0
H365 H 0.38931 0.08575 0.39737 0.0
H366 H 0.34524 0.9391 0.45243 0.0
N367 N 0.33836 0.99045 0.35076 0.0
C368 C 0.37115 0.0594 0.35046 0.0
C369 C 0.36164 0.04171 0.32778 0.0
C370 C 0.36575 0.0423 0.37333 0.0
C371 C 0.34942 1.0074 0.37279 0.0
C372 C 0.34571 1.00707 0.32826 0.0
N373 N 0.3323 0.95643 0.39284 0.0
C374 C 0.3464 0.9898 0.39458 0.0
C375 C 0.34557 0.95363 0.43634 0.0
C376 C 0.35819 0.98772 0.43882 0.0
C377 C 0.33314 0.93835 0.41297 0.0
C378 C 0.35934 1.00637 0.41767 0.0
H379 H 0.36781 0.99951 0.45694 0.0
O380 O 0.33701 0.90713 0.36072 0.0
O381 O 0.26243 0.88683 0.34103 0.0
O382 O 0.22926 0.92204 0.37188 0.0
O383 O 0.28177 0.9353 0.3872 0.0
O384 O 0.28618 0.88181 0.3723 0.0
O385 O 0.35349 0.94524 0.33223 0.0
O386 O 0.1972 0.91688 0.30882 0.0
O387 O 0.26924 0.94432 0.34256 0.0
O388 O 0.30725 0.93288 0.31092 0.0
O389 O 0.25319 0.89447 0.29906 0.0
O390 O 0.24675 0.94542 0.30916 0.0
O391 O 0.17484 0.89166 0.34376 0.0
C392 C 0.26153 0.86637 0.3571 0.0
C393 C 0.37388 0.04101 0.41867 0.0
C394 C 0.37711 0.05896 0.39651 0.0
C395 C 0.36022 0.92511 0.34462 0.0
C396 C 0.39471 0.93881 0.35347 0.0
C397 C 0.4109 0.96959 0.36574 0.0
C398 C 0.41184 0.92135 0.34934 0.0
C399 C 0.4452 0.9349 0.35707 0.0
C400 C 0.44368 0.98293 0.37365 0.0
C401 C 0.46075 0.96586 0.36933 0.0
C402 C 0.25238 0.93245 0.39009 0.0
C403 C 0.26993 0.96339 0.32507 0.0
C404 C 0.17054 0.90377 0.32274 0.0
C405 C 0.13826 0.88427 0.30915 0.0
C406 C 0.13821 0.87808 0.28309 0.0
C407 C 0.10736 0.8728 0.3215 0.0
C408 C 0.07721 0.85428 0.30799 0.0
C409 C 0.10869 0.85931 0.26999 0.0
C410 C 0.07849 0.84734 0.2823 0.0
C411 C 0.28541 0.91299 0.29409 0.0
H412 H 0.39828 0.98341 0.36906 0.0
H413 H 0.39945 0.89765 0.33974 0.0
H414 H 0.45596 1.00667 0.38315 0.0
H415 H 0.48611 0.97676 0.37587 0.0
H416 H 0.16104 0.88802 0.27252 0.0
H417 H 0.10676 0.87828 0.34133 0.0
H418 H 0.10922 0.8545 0.25002 0.0
H419 H 0.05593 0.83352 0.2714 0.0
Gd420 Gd 0.11637 0.37735 0.35383 0.0
Gd421 Gd 0.15626 0.33049 0.33252 0.0
C422 C 0.26441 0.37752 0.35818 0.0
C423 C 0.29415 0.39402 0.31839 0.0
C424 C 0.23394 0.36842 0.31899 0.0
C425 C 0.23408 0.36588 0.34511 0.0
C426 C 0.26412 0.38257 0.3054 0.0
C427 C 0.29426 0.39124 0.34467 0.0
C428 C 0.26398 0.37522 0.38453 0.0
C429 C 0.2339 0.36159 0.39728 0.0
N430 N 0.20481 0.35272 0.35781 0.0
C431 C 0.2045 0.35026 0.38363 0.0
H432 H 0.18195 0.33962 0.3942 0.0
C433 C 0.20371 0.35635 0.28085 0.0
N434 N 0.20448 0.3569 0.30682 0.0
C435 C 0.23293 0.37082 0.26673 0.0
C436 C 0.26331 0.38431 0.27906 0.0
H437 H 0.18057 0.34322 0.27072 0.0
H438 H 0.31763 0.39982 0.35439 0.0
H439 H 0.05404 0.34107 0.31172 0.0
H440 H 0.28674 0.38401 0.39519 0.0
H441 H 0.23327 0.35965 0.4177 0.0
H442 H 0.31744 0.40481 0.30823 0.0
H443 H 0.1354 0.41408 0.4107 0.0
H444 H 0.96286 0.28852 0.35245 0.0
H445 H 0.99344 0.3045 0.3119 0.0
H446 H 0.99531 0.32369 0.43809 0.0
H447 H 0.2319 0.37057 0.24627 0.0
H448 H 0.28593 0.39504 0.26804 0.0
H449 H 0.96389 0.29534 0.39973 0.0
H450 H 0.10845 0.40805 0.45217 0.0
N451 N 0.05813 0.3449 0.35183 0.0
C452 C 0.98952 0.30458 0.35249 0.0
C453 C 1.00668 0.31363 0.32957 0.0
C454 C 1.00682 0.31756 0.3751 0.0
C455 C 0.04151 0.33826 0.37407 0.0
C456 C 0.0411 0.33442 0.32956 0.0
N457 N 0.09199 0.37563 0.39328 0.0
C458 C 0.05901 0.35427 0.39553 0.0
C459 C 0.0943 0.3926 0.43643 0.0
C460 C 0.06085 0.36901 0.43952 0.0
C461 C 0.10946 0.39602 0.41293 0.0
C462 C 0.04257 0.34997 0.41878 0.0
H463 H 0.04916 0.36641 0.45773 0.0
O464 O 0.14161 0.43104 0.35795 0.0
O465 O 0.16375 0.38029 0.34143 0.0
O466 O 0.13152 0.31172 0.37216 0.0
O467 O 0.11654 0.34945 0.38789 0.0
O468 O 0.16591 0.40747 0.37309 0.0
O469 O 0.09756 0.40628 0.33508 0.0
O470 O 0.15085 0.29049 0.30815 0.0
O471 O 0.10836 0.32704 0.34252 0.0
O472 O 0.11452 0.37512 0.31141 0.0
O473 O 0.15215 0.35896 0.29842 0.0
O474 O 0.10907 0.30202 0.31048 0.0
O475 O 0.16168 0.28971 0.34773 0.0
C476 C 0.18305 0.40051 0.3578 0.0
C477 C 1.00834 0.32773 0.42032 0.0
C478 C 0.99047 0.31156 0.39848 0.0
C479 C 0.11989 0.43434 0.3448 0.0
C480 C 0.10831 0.45583 0.35591 0.0
C481 C 0.07937 0.44216 0.37056 0.0
C482 C 0.1269 0.49048 0.35248 0.0
C483 C 0.11681 0.51146 0.36381 0.0
C484 C 0.0691 0.46268 0.38164 0.0
C485 C 0.08759 0.49699 0.37835 0.0
C486 C 0.12061 0.32364 0.39061 0.0
C487 C 0.09007 0.30711 0.32537 0.0
C488 C 0.15918 0.27619 0.32566 0.0
C489 C 0.18521 0.26765 0.319 0.0
C490 C 0.20823 0.28543 0.29985 0.0
C491 C 0.18734 0.24169 0.33136 0.0
C492 C 0.21298 0.23494 0.32502 0.0
C493 C 0.23372 0.27923 0.29398 0.0
C494 C 0.23625 0.25438 0.30654 0.0
C495 C 0.13303 0.37213 0.29396 0.0
H496 H 0.06474 0.41566 0.37347 0.0
H497 H 0.1495 0.50109 0.34143 0.0
H498 H 0.04669 0.45195 0.39287 0.0
H499 H 0.07878 0.51221 0.38701 0.0
H500 H 0.20646 0.30393 0.28903 0.0
H501 H 0.16937 0.22698 0.34572 0.0
H502 H 0.25136 0.29351 0.27933 0.0
H503 H 0.25599 0.24965 0.30128 0.0
Gd504 Gd 0.3411 0.07978 0.68709 0.0
Gd505 Gd 0.38794 0.16534 0.666 0.0
C506 C 0.34642 0.22491 0.70517 0.0
C507 C 0.31303 0.22973 0.67214 0.0
C508 C 0.34181 0.19881 0.66451 0.0
C509 C 0.35449 0.20583 0.68891 0.0
C510 C 0.32117 0.21111 0.6559 0.0
C511 C 0.32543 0.23642 0.69674 0.0
C512 C 0.3601 0.23246 0.7294 0.0
C513 C 0.38261 0.22264 0.73653 0.0
N514 N 0.37501 0.19461 0.69667 0.0
C515 C 0.39053 0.20462 0.71968 0.0
H516 H 0.41044 0.20059 0.72515 0.0
C517 C 0.34019 0.17644 0.62417 0.0
N518 N 0.35002 0.18065 0.64904 0.0
C519 C 0.31931 0.18759 0.6151 0.0
C520 C 0.30952 0.20476 0.63106 0.0
H521 H 0.34929 0.16606 0.61037 0.0
H522 H 0.319 0.25096 0.70903 0.0
H523 H 0.36504 0.05268 0.63434 0.0
H524 H 0.35438 0.24688 0.74239 0.0
H525 H 0.39471 0.22983 0.75479 0.0
H526 H 0.29733 0.23934 0.66577 0.0
H527 H 0.32168 0.06147 0.74849 0.0
H528 H 0.42761 0.01624 0.65937 0.0
H529 H 0.40067 0.02992 0.6249 0.0
H530 H 0.41826 0.01453 0.74939 0.0
H531 H 0.31154 0.18372 0.5955 0.0
H532 H 0.29367 0.21375 0.62383 0.0
H533 H 0.43459 1.0113 0.70577 0.0
H534 H 0.33996 0.04133 0.78491 0.0
N535 N 0.37163 0.05366 0.67456 0.0
C536 C 0.41172 0.02633 0.66386 0.0
C537 C 0.39653 0.03399 0.64437 0.0
C538 C 0.40522 0.03061 0.68893 0.0
C539 C 0.38447 0.04407 0.69378 0.0
C540 C 0.37613 0.04718 0.65003 0.0
N541 N 0.35416 0.05735 0.72238 0.0
C542 C 0.37561 0.04616 0.7184 0.0
C543 C 0.35038 0.04276 0.76636 0.0
C544 C 0.3744 0.0336 0.76294 0.0
C545 C 0.34005 0.05408 0.74569 0.0
C546 C 0.38678 0.03451 0.73868 0.0
H547 H 0.38241 0.02486 0.77899 0.0
O548 O 0.29192 0.05455 0.66974 0.0
O549 O 0.3375 0.12433 0.67593 0.0
O550 O 0.40877 0.15705 0.70357 0.0
O551 O 0.36356 0.1115 0.72152 0.0
O552 O 0.31722 0.10237 0.71054 0.0
O553 O 0.30361 0.03008 0.69885 0.0
O554 O 0.41752 0.20084 0.63692 0.0
O555 O 0.39172 0.12092 0.67595 0.0
O556 O 0.33726 0.07987 0.64478 0.0
O557 O 0.36617 0.13452 0.63022 0.0
O558 O 0.41747 0.14727 0.64444 0.0
O559 O 0.43292 0.21158 0.67583 0.0
C560 C 0.32051 0.1247 0.69447 0.0
C561 C 0.40895 0.023 0.73401 0.0
C562 C 0.4182 0.02112 0.70918 0.0
C563 C 0.28033 0.02912 0.68476 0.0
C564 C 0.24848 0.01974 0.69743 0.0
C565 C 0.24827 0.03538 0.72007 0.0
C566 C 0.21802 0.99542 0.68696 0.0
C567 C 0.18783 0.98778 0.69877 0.0
C568 C 0.21849 0.02808 0.73157 0.0
C569 C 0.18846 1.00464 0.72093 0.0
C570 C 0.39336 0.13761 0.72341 0.0
C571 C 0.41177 0.12264 0.65897 0.0
C572 C 0.43729 0.22335 0.65294 0.0
C573 C 0.44132 0.25699 0.65002 0.0
C574 C 0.41603 0.26052 0.63851 0.0
C575 C 0.47002 0.28576 0.65878 0.0
C576 C 0.47269 0.31735 0.65653 0.0
C577 C 0.41846 0.29143 0.63646 0.0
C578 C 0.44642 0.31958 0.64543 0.0
C579 C 0.34705 0.10213 0.62648 0.0
H580 H 0.27108 0.05315 0.72907 0.0
H581 H 0.21777 0.98277 0.66971 0.0
H582 H 0.21869 0.04052 0.7489 0.0
H583 H 0.1656 0.99913 0.73032 0.0
H584 H 0.3943 0.23944 0.63083 0.0
H585 H 0.48993 0.28356 0.66745 0.0
H586 H 0.39865 0.29362 0.62764 0.0
H587 H 0.44783 0.34336 0.6431 0.0
Gd588 Gd 0.97362 0.26518 0.68448 0.0
Gd589 Gd 0.88642 0.22604 0.66488 0.0
C590 C 0.81962 0.12049 0.69387 0.0
C591 C 0.8007 0.08915 0.65483 0.0
C592 C 0.84008 0.14848 0.65369 0.0
C593 C 0.83975 0.14965 0.67987 0.0
C594 C 0.82052 0.1181 0.64094 0.0
C595 C 0.80005 0.09039 0.68121 0.0
C596 C 0.81984 0.12231 0.72024 0.0
C597 C 0.84064 0.15228 0.73211 0.0
N598 N 0.85943 0.17902 0.69169 0.0
C599 C 0.86032 0.18041 0.71757 0.0
H600 H 0.87607 0.2028 0.72753 0.0
C601 C 0.85792 0.17682 0.61478 0.0
N602 N 0.85937 0.17689 0.64065 0.0
C603 C 0.83953 0.14732 0.60138 0.0
C604 C 0.82096 0.11774 0.61452 0.0
H605 H 0.86974 0.19979 0.60434 0.0
H606 H 0.78446 0.06784 0.69167 0.0
H607 H 0.99841 0.32523 0.64041 0.0
H608 H 0.80441 0.10061 0.73162 0.0
H609 H 0.84147 0.1538 0.75255 0.0
H610 H 0.78555 0.06569 0.64534 0.0
H611 H 0.99258 0.2486 0.74184 0.0
H612 H 0.04004 0.41869 0.67823 0.0
H613 H 0.023 0.38588 0.63873 0.0
H614 H 0.04661 0.39073 0.76455 0.0
H615 H 0.83892 0.1476 0.58092 0.0
H616 H 0.80632 0.09494 0.60409 0.0
H617 H 0.04835 0.4202 0.72536 0.0
H618 H 1.01562 0.2777 0.78232 0.0
N619 N 1.00014 0.32333 0.68059 0.0
C620 C 0.02918 0.39201 0.6791 0.0
C621 C 1.01968 0.37359 0.65676 0.0
C622 C 0.02584 0.37591 0.70219 0.0
C623 C 1.01134 0.34112 0.70225 0.0
C624 C 1.00571 0.33914 0.65782 0.0
N625 N 0.99791 0.29143 0.72309 0.0
C626 C 1.01035 0.32466 0.72423 0.0
C627 C 1.01408 0.29116 0.76617 0.0
C628 C 0.02487 0.32496 0.76814 0.0
C629 C 1.00113 0.27478 0.74323 0.0
C630 C 0.02377 0.34231 0.74686 0.0
H631 H 0.03491 0.3376 0.78591 0.0
O632 O 1.0018 0.23969 0.68907 0.0
O633 O 0.92821 0.2178 0.6737 0.0
O634 O 0.8938 0.25189 0.70413 0.0
O635 O 0.94729 0.26773 0.7187 0.0
O636 O 0.95427 0.21639 0.70498 0.0
O637 O 1.02049 0.28251 0.66485 0.0
O638 O 0.85568 0.2373 0.64069 0.0
O639 O 0.93163 0.27371 0.67366 0.0
O640 O 0.97056 0.26456 0.64195 0.0
O641 O 0.91685 0.22385 0.63137 0.0
O642 O 0.90636 0.27193 0.64107 0.0
O643 O 0.83978 0.22074 0.67895 0.0
C644 C 0.92932 0.19897 0.69043 0.0
C645 C 0.03659 0.37675 0.74726 0.0
C646 C 0.03755 0.39352 0.72496 0.0
C647 C 0.02647 0.26067 0.67529 0.0
C648 C 0.05975 0.27287 0.68621 0.0
C649 C 0.07477 0.302 0.70063 0.0
C650 C 0.07632 0.25476 0.68281 0.0
C651 C 0.1078 0.26567 0.6938 0.0
C652 C 0.10565 0.31278 0.71173 0.0
C653 C 0.12201 0.29481 0.70846 0.0
C654 C 0.91753 0.26379 0.72193 0.0
C655 C 0.93016 0.29143 0.65599 0.0
C656 C 0.83156 0.22737 0.65701 0.0
C657 C 0.7974 0.20431 0.64749 0.0
C658 C 0.79296 0.18917 0.62368 0.0
C659 C 0.76889 0.19802 0.66149 0.0
C660 C 0.73681 0.17586 0.65204 0.0
C661 C 0.76146 0.16665 0.61478 0.0
C662 C 0.7336 0.15982 0.62891 0.0
C663 C 0.9487 0.24355 0.62564 0.0
H664 H 0.06261 0.31636 0.7034 0.0
H665 H 0.06481 0.23246 0.67143 0.0
H666 H 0.11693 0.33513 0.72303 0.0
H667 H 0.14567 0.30361 0.71775 0.0
H668 H 0.81374 0.19508 0.61155 0.0
H669 H 0.77159 0.2104 0.6794 0.0
H670 H 0.75861 0.15492 0.59658 0.0
H671 H 0.7093 0.1428 0.6213 0.0
Gd672 Gd 0.77905 0.71004 0.68657 0.0
Gd673 Gd 0.82386 0.66693 0.66682 0.0
C674 C 0.93238 0.7238 0.69251 0.0
C675 C 0.96172 0.74159 0.65259 0.0
C676 C 0.90135 0.71043 0.65328 0.0
C677 C 0.90181 0.70876 0.67942 0.0
C678 C 0.93142 0.72634 0.63959 0.0
C679 C 0.9622 0.74047 0.67899 0.0
C680 C 0.93217 0.72159 0.71886 0.0
C681 C 0.90207 0.70453 0.73156 0.0
N682 N 0.87252 0.69259 0.69207 0.0
C683 C 0.87245 0.69 0.71787 0.0
H684 H 0.84991 0.67683 0.72841 0.0
C685 C 0.87085 0.69127 0.61535 0.0
N686 N 0.8717 0.69487 0.64112 0.0
C687 C 0.89985 0.70729 0.60101 0.0
C688 C 0.93027 0.72539 0.61318 0.0
H689 H 0.84776 0.67539 0.60574 0.0
H690 H 0.98581 0.75228 0.68877 0.0
H691 H 0.71813 0.67168 0.64354 0.0
H692 H 0.95508 0.73286 0.72956 0.0
H693 H 0.90163 0.70248 0.75197 0.0
H694 H 0.98497 0.75392 0.64237 0.0
H695 H 0.79584 0.74642 0.74356 0.0
H696 H 0.62599 0.61795 0.68283 0.0
H697 H 0.65778 0.63387 0.64285 0.0
H698 H 0.65526 0.65458 0.76857 0.0
H699 H 0.89876 0.70494 0.58062 0.0
H700 H 0.9528 0.73734 0.60205 0.0
H701 H 0.62537 0.62544 0.72992 0.0
H702 H 0.76742 0.74012 0.78434 0.0
N703 N 0.72099 0.67624 0.68366 0.0
C704 C 0.65255 0.63455 0.68328 0.0
C705 C 0.67039 0.64358 0.66067 0.0
C706 C 0.66903 0.64818 0.70607 0.0
C707 C 0.70365 0.66951 0.70557 0.0
C708 C 0.7047 0.66507 0.66117 0.0
N709 N 0.75328 0.70763 0.72551 0.0
C710 C 0.72032 0.68588 0.72721 0.0
C711 C 0.75393 0.72454 0.76847 0.0
C712 C 0.72047 0.70073 0.77098 0.0
C713 C 0.76993 0.72809 0.74534 0.0
C714 C 0.70306 0.68143 0.75008 0.0
H715 H 0.7081 0.69813 0.78888 0.0
O716 O 0.80258 0.76367 0.69025 0.0
O717 O 0.82775 0.71531 0.67547 0.0
O718 O 0.79995 0.64866 0.70666 0.0
O719 O 0.77869 0.68214 0.72074 0.0
O720 O 0.82754 0.7419 0.70671 0.0
O721 O 0.75951 0.73743 0.66653 0.0
O722 O 0.82219 0.62776 0.64325 0.0
O723 O 0.77481 0.66129 0.67565 0.0
O724 O 0.77816 0.70646 0.64419 0.0
O725 O 0.81964 0.69502 0.6324 0.0
O726 O 0.77732 0.63589 0.64449 0.0
O727 O 0.82962 0.62713 0.68345 0.0
C728 C 0.84597 0.73604 0.69195 0.0
C729 C 0.6689 0.65872 0.75108 0.0
C730 C 0.6519 0.64211 0.72909 0.0
C731 C 0.78086 0.76591 0.67626 0.0
C732 C 0.76792 0.78672 0.68636 0.0
C733 C 0.73848 0.77253 0.70041 0.0
C734 C 0.78553 0.82126 0.6823 0.0
C735 C 0.77362 0.84159 0.692 0.0
C736 C 0.72666 0.79246 0.71019 0.0
C737 C 0.74399 0.82664 0.70605 0.0
C738 C 0.78636 0.65883 0.72432 0.0
C739 C 0.75745 0.64058 0.65867 0.0
C740 C 0.82891 0.61348 0.66177 0.0
C741 C 0.8554 0.60497 0.65726 0.0
C742 C 0.88493 0.62784 0.6452 0.0
C743 C 0.85151 0.57396 0.66472 0.0
C744 C 0.87715 0.56665 0.66016 0.0
C745 C 0.9103 0.62083 0.64109 0.0
C746 C 0.9065 0.59049 0.64853 0.0
C747 C 0.79878 0.706 0.62734 0.0
H748 H 0.72466 0.7461 0.70385 0.0
H749 H 0.80823 0.83218 0.67136 0.0
H750 H 0.70399 0.78136 0.72112 0.0
H751 H 0.73438 0.84146 0.7142 0.0
H752 H 0.88852 0.65108 0.63859 0.0
H753 H 0.82875 0.55566 0.6737 0.0
H754 H 0.93289 0.63891 0.63182 0.0
H755 H 0.92638 0.58536 0.64484 0.0
H756 H 0.34791 0.45548 0.01841 0.0
H757 H 0.29168 0.44683 0.02153 0.0
H758 H 0.32043 0.53337 0.97535 0.0
H759 H 0.37709 0.54242 0.97262 0.0
H760 H 0.27624 0.5265 0.01367 0.0
H761 H 0.22965 0.40859 0.96101 0.0
H762 H 0.25136 0.41038 0.98957 0.0
H763 H 0.27323 0.43831 0.96398 0.0
C764 C 0.34245 0.47321 0.00955 0.0
C765 C 0.36689 0.49969 0.99534 0.0
C766 C 0.31019 0.46799 0.01105 0.0
C767 C 0.30147 0.48884 0.99805 0.0
C768 C 0.32644 0.51674 0.98536 0.0
H769 H 0.10636 0.4486 0.94896 0.0
H770 H 0.16142 0.45395 0.95222 0.0
C771 C 0.3589 0.52211 0.98399 0.0
C772 C 0.26608 0.48047 0.99661 0.0
H773 H 0.18909 0.42025 0.97718 0.0
C774 C 0.2572 0.50326 1.00572 0.0
C775 C 0.2412 0.45036 0.98582 0.0
C776 C 0.24929 0.42561 0.9743 0.0
C777 C 0.22419 0.49657 1.00473 0.0
C778 C 0.19915 0.46597 0.99471 0.0
C779 C 0.20811 0.44343 0.98522 0.0
C780 C 0.16381 0.45765 0.99304 0.0
C781 C 0.21658 0.52272 0.01388 0.0
C782 C 0.14604 0.45628 0.01488 0.0
C783 C 0.11458 0.45307 0.01295 0.0
C784 C 0.09979 0.45043 0.98931 0.0
C785 C 0.11679 0.44985 0.96753 0.0
C786 C 0.14834 0.45312 0.96937 0.0
H787 H 0.23925 0.54751 0.01498 0.0
H788 H 0.19843 0.52442 1.00124 0.0
H789 H 0.20565 0.51605 0.03311 0.0
H790 H 0.15719 0.45937 0.0334 0.0
H791 H 0.10321 0.45559 0.02974 0.0
H792 H 0.59362 0.90062 0.03034 0.0
H793 H 0.60154 0.85265 0.03419 0.0
H794 H 0.51479 0.79502 0.98834 0.0
H795 H 0.50674 0.84323 0.98444 0.0
H796 H 0.52543 0.7594 0.03157 0.0
H797 H 0.63493 0.82719 0.96885 0.0
H798 H 0.63407 0.84924 0.99646 0.0
H799 H 0.60359 0.83894 0.97208 0.0
C800 C 0.57565 0.87742 0.0217 0.0
C801 C 0.54957 0.87571 1.00705 0.0
C802 C 0.58035 0.85009 0.02376 0.0
C803 C 0.55917 0.82041 0.01115 0.0
C804 C 0.53154 0.81772 0.99816 0.0
H805 H 0.58914 0.66432 0.95519 0.0
H806 H 0.58408 0.7135 0.96211 0.0
C807 C 0.52678 0.84518 0.9961 0.0
C808 C 0.5677 0.79353 0.00965 0.0
H809 H 0.62449 0.77545 0.98449 0.0
C810 C 0.54715 0.76291 0.0214 0.0
C811 C 0.59594 0.79804 0.99619 0.0
C812 C 0.61836 0.82999 0.98247 0.0
C813 C 0.55412 0.73675 0.02004 0.0
C814 C 0.58251 0.74136 1.00669 0.0
C815 C 0.603 0.77201 0.99497 0.0
C816 C 0.58967 0.7138 1.00274 0.0
C817 C 0.53049 0.704 0.03224 0.0
C818 C 0.59617 0.69842 0.02313 0.0
C819 C 0.59937 0.67034 0.01913 0.0
C820 C 0.59613 0.65713 0.99471 0.0
C821 C 0.59177 0.67389 0.97424 0.0
C822 C 0.58873 0.70194 0.97819 0.0
H823 H 0.50675 0.70251 0.03767 0.0
H824 H 0.52506 0.68315 0.01928 0.0
H825 H 0.54205 0.70081 0.04959 0.0
H826 H 0.59786 0.70757 0.04221 0.0
H827 H 0.60311 0.65829 0.03521 0.0
H828 H 0.38588 0.95072 0.02828 0.0
H829 H 0.33576 0.89635 0.03271 0.0
H830 H 0.33945 0.87869 0.9531 0.0
H831 H 0.38955 0.93304 0.94886 0.0
H832 H 0.2737 0.85656 0.97283 0.0
H833 H 0.34395 0.81093 0.02896 0.0
H834 H 0.34543 0.84803 0.04031 0.0
H835 H 0.36416 0.8486 0.01054 0.0
C836 C 0.37554 0.93562 0.01174 0.0
C837 C 0.39173 0.94617 0.98836 0.0
C838 C 0.34706 0.90436 0.01426 0.0
C839 C 0.33424 0.88306 0.99333 0.0
C840 C 0.34901 0.89452 0.96957 0.0
H841 H 0.20109 0.66993 0.97691 0.0
H842 H 0.25005 0.7259 0.9785 0.0
C843 C 0.37756 0.92566 0.96714 0.0
C844 C 0.30665 0.84825 0.99624 0.0
H845 H 0.28706 0.77318 0.02214 0.0
C846 C 0.27657 0.83839 0.98371 0.0
C847 C 0.31059 0.82437 0.0101 0.0
C848 C 0.34281 0.83326 0.02313 0.0
C849 C 0.25024 0.80548 0.98493 0.0
C850 C 0.25397 0.78171 0.99911 0.0
C851 C 0.28417 0.79143 0.01141 0.0
C852 C 0.22647 0.74678 1.00132 0.0
C853 C 0.21864 0.79616 0.97075 0.0
C854 C 0.19762 0.73958 0.01462 0.0
C855 C 0.16992 0.70773 0.01395 0.0
C856 C 0.17035 0.68228 0.99989 0.0
C857 C 0.20007 0.68889 0.98806 0.0
C858 C 0.22794 0.72091 0.9888 0.0
H859 H 0.2219 0.81553 0.9569 0.0
H860 H 0.20976 0.77236 0.96056 0.0
H861 H 0.19915 0.79284 0.98441 0.0
H862 H 0.19608 0.75899 0.02471 0.0
H863 H 0.14749 0.70337 0.02343 0.0
H864 H 0.41818 0.22076 1.00779 0.0
H865 H 0.44956 0.28085 1.00628 0.0
H866 H 0.5409 0.27861 0.0098 0.0
H867 H 0.50949 0.21823 0.01344 0.0
H868 H 0.54621 0.32453 0.03933 0.0
H869 H 0.49611 0.34198 0.94996 0.0
H870 H 0.46282 0.31872 0.97152 0.0
H871 H 0.48778 0.30166 0.96036 0.0
C872 C 0.44493 0.23283 0.0085 0.0
C873 C 0.46107 0.21418 0.01095 0.0
C874 C 0.46297 0.26745 1.0071 0.0
C875 C 0.49778 0.2846 1.00733 0.0
C876 C 0.51408 0.26614 0.00937 0.0
H877 H 0.59249 0.49973 0.97894 0.0
H878 H 0.57414 0.44066 0.97418 0.0
C879 C 0.496 0.23141 0.01119 0.0
C880 C 0.51685 0.32173 1.00692 0.0
H881 H 0.5213 0.38922 0.97759 0.0
C882 C 0.54085 0.33864 0.0257 0.0
C883 C 0.51098 0.34059 0.9887 0.0
C884 C 0.48831 0.32475 0.96635 0.0
C885 C 0.55773 0.37345 0.02755 0.0
C886 C 0.5494 0.39211 0.01087 0.0
C887 C 0.5269 0.37527 0.99115 0.0
C888 C 0.56276 0.42868 0.01391 0.0
C889 C 0.5849 0.38962 0.04704 0.0
C890 C 0.56279 0.44219 0.03773 0.0
C891 C 0.5743 0.47611 0.0405 0.0
C892 C 0.58412 0.49707 0.01933 0.0
C893 C 0.58425 0.48389 0.99549 0.0
C894 C 0.57377 0.45008 0.99282 0.0
H895 H 0.59713 0.37467 0.05032 0.0
H896 H 0.60412 0.41494 0.04124 0.0
H897 H 0.57402 0.39105 0.06533 0.0
H898 H 0.55326 0.42646 0.05423 0.0
H899 H 0.57436 0.4858 0.05913 0.0
H900 H 0.55495 0.10034 0.05993 0.0
H901 H 0.61436 0.13902 0.05623 0.0
H902 H 0.6041 0.14067 0.97509 0.0
H903 H 0.5453 0.09919 0.97883 0.0
H904 H 0.65493 0.14031 0.9811 0.0
H905 H 0.66685 0.23383 0.04966 0.0
H906 H 0.65016 0.19521 0.06609 0.0
H907 H 0.62691 0.20004 0.04064 0.0
C908 C 0.56555 0.10897 0.04134 0.0
C909 C 0.54587 0.0961 0.01965 0.0
C910 C 0.5995 0.13168 0.03921 0.0
C911 C 0.61416 0.1438 0.01539 0.0
C912 C 0.59386 0.13189 0.99374 0.0
H913 H 0.82437 0.30114 0.01641 0.0
H914 H 0.76408 0.2719 0.01229 0.0
C915 C 0.56017 0.10816 0.99584 0.0
C916 C 0.65082 0.1669 0.01296 0.0
H917 H 0.71737 0.23249 0.04118 0.0
C918 C 0.66835 0.16046 0.99428 0.0
C919 C 0.66888 0.1946 0.02909 0.0
C920 C 0.65207 0.20651 0.04722 0.0
C921 C 0.70305 0.17923 0.99234 0.0
C922 C 0.72128 0.20468 0.01017 0.0
C923 C 0.70374 0.21246 0.02789 0.0
C924 C 0.75836 0.22284 0.01121 0.0
C925 C 0.71956 0.17166 0.97088 0.0
C926 C 0.77561 0.20529 0.01199 0.0
C927 C 0.8102 0.222 0.01351 0.0
C928 C 0.82872 0.25685 0.01524 0.0
C929 C 0.81134 0.27442 0.0147 0.0
C930 C 0.77665 0.25764 0.01263 0.0
H931 H 0.70282 0.16174 0.95424 0.0
H932 H 0.74283 0.19397 0.96485 0.0
H933 H 0.72534 0.15232 0.97703 0.0
H934 H 0.76234 0.17848 0.01174 0.0
H935 H 0.82233 0.20734 0.01336 0.0
H936 H 0.95451 0.47212 0.06141 0.0
H937 H 0.91423 0.49118 0.05923 0.0
H938 H 0.90138 0.46925 0.97933 0.0
H939 H 0.94347 0.45235 0.98133 0.0
H940 H 0.90507 0.52417 0.98478 0.0
H941 H 0.81747 0.44542 0.05814 0.0
H942 H 0.85786 0.46841 0.07187 0.0
H943 H 0.85029 0.4388 0.0471 0.0
C944 C 0.94294 0.47133 0.04344 0.0
C945 C 0.95276 0.46179 0.02143 0.0
C946 C 0.91949 0.48175 0.04222 0.0
C947 C 0.90399 0.48117 0.01919 0.0
C948 C 0.91282 0.47008 0.99736 0.0
H949 H 0.74522 0.53223 0.02209 0.0
H950 H 0.77501 0.50165 0.01706 0.0
C951 C 0.93696 0.46051 0.99846 0.0
C952 C 0.8806 0.49443 0.01756 0.0
H953 H 0.8165 0.49569 0.04809 0.0
C954 C 0.88569 0.51775 0.99863 0.0
C955 C 0.85414 0.48529 0.03485 0.0
C956 C 0.8444 0.45781 0.0539 0.0
C957 C 0.86677 0.53363 0.99751 0.0
C958 C 0.84225 0.52653 0.01611 0.0
C959 C 0.83576 0.50181 0.03414 0.0
C960 C 0.82388 0.54517 0.01773 0.0
C961 C 0.8733 0.55779 0.97625 0.0
C962 C 0.84125 0.57986 0.01979 0.0
C963 C 0.82429 0.59744 0.02227 0.0
C964 C 0.78941 0.5808 0.02324 0.0
C965 C 0.772 0.54601 0.02108 0.0
C966 C 0.78905 0.52842 0.01842 0.0
H967 H 0.88359 0.55184 0.9594 0.0
H968 H 0.8504 0.55787 0.97056 0.0
H969 H 0.8919 0.58309 0.98255 0.0
H970 H 0.86807 0.59345 0.01992 0.0
H971 H 0.83866 0.62419 0.02353 0.0
H972 H 0.77603 0.7706 0.28392 0.0
H973 H 0.83125 0.77642 0.28721 0.0
H974 H 0.83505 0.80093 0.36618 0.0
H975 H 0.78042 0.7957 0.36254 0.0
H976 H 0.88662 0.83479 0.29924 0.0
H977 H 0.87261 0.73843 0.36781 0.0
H978 H 0.83766 0.73727 0.35197 0.0
H979 H 0.85646 0.76408 0.37867 0.0
C980 C 0.78818 0.77596 0.30219 0.0
C981 C 0.77308 0.78111 0.32335 0.0
C982 C 0.81985 0.77952 0.30404 0.0
C983 C 0.83734 0.78864 0.32706 0.0
C984 C 0.82185 0.79282 0.3484 0.0
H985 H 0.05531 0.89201 0.33195 0.0
H986 H 0.99732 0.87635 0.34017 0.0
C987 C 0.79018 0.78925 0.34649 0.0
C988 C 0.87294 0.79743 0.32798 0.0
H989 H 0.92784 0.77947 0.35713 0.0
C990 C 0.89556 0.82262 0.3119 0.0
C991 C 0.88477 0.78161 0.34446 0.0
C992 C 0.86162 0.75363 0.36156 0.0
C993 C 0.92946 0.83243 0.31181 0.0
C994 C 0.94146 0.81705 0.32856 0.0
C995 C 0.91884 0.79167 0.34457 0.0
C996 C 0.97694 0.82541 0.32816 0.0
C997 C 0.95201 0.85863 0.29321 0.0
C998 C 0.98504 0.80162 0.32014 0.0
C999 C 1.01809 0.81048 0.31564 0.0
C1000 C 0.04392 0.8433 0.31925 0.0
C1001 C 0.03606 0.86651 0.3292 0.0
C1002 C 1.00286 0.85764 0.33359 0.0
H1003 H 0.93788 0.86289 0.27816 0.0
H1004 H 0.96722 0.88235 0.30338 0.0
H1005 H 0.96908 0.85157 0.28414 0.0
H1006 H 0.96563 0.77659 0.31593 0.0
H1007 H 0.02335 0.79204 0.30798 0.0
H1008 H 0.26358 0.23907 0.35345 0.0
H1009 H 0.27675 0.19496 0.36083 0.0
H1010 H 0.18412 0.12427 0.32638 0.0
H1011 H 0.17058 0.16841 0.31952 0.0
H1012 H 0.20216 0.09692 0.36669 0.0
H1013 H 0.30675 0.16356 0.29972 0.0
H1014 H 0.30825 0.18743 0.32683 0.0
H1015 H 0.27527 0.17482 0.30419 0.0
C1016 C 0.24551 0.21387 0.3483 0.0
C1017 C 0.21594 0.20712 0.33608 0.0
C1018 C 0.25325 0.18874 0.3522 0.0
C1019 C 0.23188 0.15637 0.34356 0.0
C1020 C 0.20114 0.14904 0.3331 0.0
H1021 H 0.27025 1.00577 0.28994 0.0
H1022 H 0.26445 0.05438 0.29703 0.0
C1023 C 0.19325 0.17421 0.32937 0.0
C1024 C 0.24277 0.13109 0.34337 0.0
H1025 H 0.30088 0.11488 0.31818 0.0
C1026 C 0.22387 0.10093 0.35624 0.0
C1027 C 0.27091 0.13605 0.32946 0.0
C1028 C 0.29134 0.16705 0.31406 0.0
C1029 C 0.23218 0.07565 0.35545 0.0
C1030 C 0.26047 0.08076 0.34166 0.0
C1031 C 0.2795 0.11105 0.32903 0.0
C1032 C 0.26862 0.05379 0.33777 0.0
C1033 C 0.20977 0.04316 0.3685 0.0
C1034 C 0.27481 0.03814 0.35816 0.0
C1035 C 0.27829 1.0102 0.35406 0.0
C1036 C 0.27567 0.99744 0.32953 0.0
C1037 C 0.27222 0.01484 0.30909 0.0
C1038 C 0.26875 0.04262 0.31314 0.0
H1039 H 0.1856 0.04078 0.37379 0.0
H1040 H 0.20504 0.02194 0.35619 0.0
H1041 H 0.22194 0.04149 0.38606 0.0
H1042 H 0.27588 0.04683 0.3773 0.0
H1043 H 0.28141 0.99773 0.37017 0.0
H1044 H 0.05606 0.28076 0.37019 0.0
H1045 H 1.00769 0.22504 0.37566 0.0
H1046 H 0.99852 0.21342 0.29466 0.0
H1047 H 0.04736 0.2682 0.2893 0.0
H1048 H 0.94163 0.18943 0.36024 0.0
H1049 H 1.01281 0.1375 0.31529 0.0
H1050 H 0.0318 0.18027 0.32494 0.0
H1051 H 1.01001 0.16711 0.29527 0.0
C1052 C 0.04345 0.26645 0.35362 0.0
C1053 C 0.056 0.2786 0.32934 0.0
C1054 C 1.01574 0.23456 0.35673 0.0
C1055 C 1.00007 0.21436 0.33557 0.0
C1056 C 1.01074 0.22791 0.31133 0.0
H1057 H 0.81567 0.0347 0.31235 0.0
H1058 H 0.85891 0.0908 0.32267 0.0
C1059 C 0.03848 0.25945 0.30827 0.0
C1060 C 0.97404 0.17862 0.33842 0.0
H1061 H 0.95447 0.10085 0.3191 0.0
C1062 C 0.94455 0.17002 0.35146 0.0
C1063 C 0.97802 0.15294 0.32768 0.0
C1064 C 1.01001 0.15983 0.31526 0.0
C1065 C 0.91843 0.13682 0.35284 0.0
C1066 C 0.92146 0.11147 0.34037 0.0
C1067 C 0.95166 0.12 0.32847 0.0
C1068 C 0.89321 0.07653 0.33775 0.0
C1069 C 0.88795 0.12937 0.3678 0.0
C1070 C 0.89751 0.04915 0.34276 0.0
C1071 C 0.87272 0.01673 0.33644 0.0
C1072 C 0.84315 1.01098 0.32479 0.0
C1073 C 0.83817 0.03817 0.32122 0.0
C1074 C 0.86289 0.07043 0.32737 0.0
H1075 H 0.89415 0.1474 0.38348 0.0
H1076 H 0.87006 0.13158 0.35522 0.0
H1077 H 0.87576 0.10398 0.37589 0.0
H1078 H 0.92063 0.05299 0.35066 0.0
H1079 H 0.87759 0.99651 0.33922 0.0
H1080 H 0.24566 0.82946 0.3134 0.0
H1081 H 0.22511 0.76975 0.30993 0.0
H1082 H 0.219 0.76135 0.39132 0.0
H1083 H 0.24163 0.82111 0.39466 0.0
H1084 H 0.24565 0.72867 0.3756 0.0
H1085 H 0.13646 0.69204 0.31396 0.0
H1086 H 0.17478 0.72013 0.29866 0.0
H1087 H 0.16143 0.7335 0.3258 0.0
C1088 C 0.23937 0.81465 0.33047 0.0
C1089 C 0.24465 0.82979 0.35431 0.0
C1090 C 0.22748 0.78041 0.32851 0.0
C1091 C 0.21986 0.76048 0.35035 0.0
C1092 C 0.22464 0.77582 0.3741 0.0
H1093 H 0.13187 0.55878 0.40007 0.0
H1094 H 0.15993 0.61883 0.3948 0.0
C1095 C 0.23734 0.81001 0.37604 0.0
C1096 C 0.20842 0.72409 0.34902 0.0
H1097 H 0.14885 0.64994 0.32447 0.0
C1098 C 0.22442 0.71159 0.36439 0.0
C1099 C 0.18119 0.70139 0.334 0.0
C1100 C 0.16226 0.71234 0.31728 0.0
C1101 C 0.2134 0.67746 0.36583 0.0
C1102 C 0.18532 0.65484 0.35172 0.0
C1103 C 0.17026 0.66724 0.33543 0.0
C1104 C 0.16982 0.61821 0.35489 0.0
C1105 C 0.23198 0.66595 0.38252 0.0
C1106 C 0.16551 0.59756 0.33415 0.0
C1107 C 0.14919 0.56297 0.33709 0.0
C1108 C 0.13638 0.54829 0.36078 0.0
C1109 C 0.1411 0.56914 0.38151 0.0
C1110 C 0.15751 0.60359 0.37859 0.0
H1111 H 0.25803 0.68592 0.38551 0.0
H1112 H 0.21976 0.65885 0.40129 0.0
H1113 H 0.23206 0.64406 0.3743 0.0
H1114 H 0.17454 0.6082 0.31563 0.0
H1115 H 0.14572 0.54769 0.32068 0.0
H1116 H 0.2276 0.42777 0.39574 0.0
H1117 H 0.28748 0.46546 0.39273 0.0
H1118 H 0.28029 0.46267 0.31134 0.0
H1119 H 0.22003 0.42539 0.31442 0.0
H1120 H 0.33376 0.45409 0.37106 0.0
H1121 H 0.33563 0.56176 0.3244 0.0
H1122 H 0.29864 0.52841 0.33844 0.0
H1123 H 0.31222 0.52319 0.30787 0.0
C1124 C 0.23883 0.43528 0.37721 0.0
C1125 C 0.21938 0.42285 0.35531 0.0
C1126 C 0.27306 0.45685 0.37549 0.0
C1127 C 0.2886 0.46723 0.35182 0.0
C1128 C 0.26898 0.45554 0.32985 0.0
H1129 H 0.50007 0.59466 0.31369 0.0
H1130 H 0.43927 0.5609 0.31153 0.0
C1131 C 0.23462 0.43385 0.33159 0.0
C1132 C 0.32541 0.48907 0.35043 0.0
H1133 H 0.38747 0.56478 0.33037 0.0
C1134 C 0.34543 0.4781 0.36189 0.0
C1135 C 0.34086 0.52067 0.33872 0.0
C1136 C 0.3208 0.53444 0.32683 0.0
C1137 C 0.3802 0.49736 0.36165 0.0
C1138 C 0.39573 0.52943 0.35065 0.0
C1139 C 0.37575 0.54034 0.3389 0.0
C1140 C 0.43249 0.55212 0.35188 0.0
C1141 C 0.39986 0.48266 0.37279 0.0
C1142 C 0.44902 0.55965 0.37528 0.0
C1143 C 0.48362 0.57855 0.37649 0.0
C1144 C 0.50266 0.59111 0.35438 0.0
C1145 C 0.48609 0.58535 0.33105 0.0
C1146 C 0.45134 0.56596 0.32981 0.0
H1147 H 0.38554 0.45513 0.37235 0.0
H1148 H 0.4235 0.49114 0.36248 0.0
H1149 H 0.4056 0.49033 0.39287 0.0
H1150 H 0.43517 0.55042 0.3927 0.0
H1151 H 0.49559 0.58303 0.39479 0.0
H1152 H 0.425 0.86903 0.36486 0.0
H1153 H 0.45867 0.84205 0.36183 0.0
H1154 H 0.54177 0.93382 0.33606 0.0
H1155 H 0.50853 0.9609 0.33936 0.0
H1156 H 0.49255 0.83196 0.32352 0.0
H1157 H 0.58116 0.91306 0.39672 0.0
H1158 H 0.54246 0.91187 0.39075 0.0
H1159 H 0.57763 0.93566 0.37056 0.0
C1160 C 0.45034 0.88334 0.35829 0.0
C1161 C 0.46418 0.91726 0.35272 0.0
C1162 C 0.46962 0.86792 0.35664 0.0
C1163 C 0.5031 0.88607 0.34933 0.0
C1164 C 0.51638 0.91948 0.34249 0.0
H1165 H 0.63024 0.80223 0.31077 0.0
H1166 H 0.59416 0.82662 0.30873 0.0
C1167 C 0.49726 0.93492 0.34432 0.0
C1168 C 0.52439 0.87042 0.34941 0.0
H1169 H 0.59557 0.87796 0.37449 0.0
C1170 C 0.51506 0.84199 0.33469 0.0
C1171 C 0.55361 0.88317 0.36423 0.0
C1172 C 0.56419 0.91241 0.38166 0.0
C1173 C 0.53425 0.82628 0.33416 0.0
C1174 C 0.56397 0.83964 0.34841 0.0
C1175 C 0.57307 0.86787 0.3633 0.0
C1176 C 0.58538 0.82415 0.34912 0.0
C1177 C 0.52199 0.795 0.31884 0.0
C1178 C 0.59309 0.81508 0.37244 0.0
C1179 C 0.61419 0.80182 0.37362 0.0
C1180 C 0.62866 0.7979 0.35158 0.0
C1181 C 0.62021 0.80592 0.32813 0.0
C1182 C 0.59915 0.81938 0.32693 0.0
H1183 H 0.495 0.78313 0.31491 0.0
H1184 H 0.53513 0.80117 0.30042 0.0
H1185 H 0.52687 0.77683 0.32874 0.0
H1186 H 0.58278 0.81834 0.38983 0.0
H1187 H 0.61974 0.7952 0.39189 0.0
H1188 H 0.71285 0.21834 0.65495 0.0
H1189 H 0.65562 0.20378 0.66407 0.0
H1190 H 0.63282 0.10503 0.68496 0.0
H1191 H 0.68978 0.11935 0.67474 0.0
H1192 H 0.58935 0.1006 0.65297 0.0
H1193 H 0.59981 0.19182 0.72406 0.0
H1194 H 0.62493 0.21251 0.69707 0.0
H1195 H 0.63432 0.18613 0.71618 0.0
C1196 C 0.69592 0.19397 0.66246 0.0
C1197 C 0.70589 0.17018 0.66463 0.0
C1198 C 0.66309 0.18557 0.66768 0.0
C1199 C 0.63963 0.15331 0.67556 0.0
C1200 C 0.65024 0.13009 0.67902 0.0
H1201 H 0.43538 0.11232 0.70396 0.0
H1202 H 0.48862 0.11456 0.71065 0.0
C1203 C 0.68291 0.13836 0.67345 0.0
C1204 C 0.60354 0.14276 0.67727 0.0
H1205 H 0.54925 0.16616 0.69937 0.0
C1206 C 0.58065 0.11473 0.6635 0.0
C1207 C 0.59161 0.16058 0.69129 0.0
C1208 C 0.61395 0.18919 0.7082 0.0
C1209 C 0.54682 0.10511 0.66236 0.0
C1210 C 0.53544 0.1245 0.67471 0.0
C1211 C 0.5579 0.15148 0.68956 0.0
C1212 C 0.50117 0.11881 0.67087 0.0
C1213 C 0.52362 0.07423 0.64781 0.0
C1214 C 0.48994 0.11971 0.64635 0.0
C1215 C 0.45952 0.11828 0.64259 0.0
C1216 C 0.43955 0.11608 0.66322 0.0
C1217 C 0.45011 0.11389 0.68771 0.0
C1218 C 0.48064 0.1153 0.69153 0.0
H1219 H 0.53286 0.05638 0.64748 0.0
H1220 H 0.49832 0.06172 0.65605 0.0
H1221 H 0.52204 0.08102 0.62794 0.0
H1222 H 0.50545 0.12315 0.63009 0.0
H1223 H 0.45232 0.12052 0.62352 0.0
H1224 H 0.92654 0.331 0.62025 0.0
H1225 H 0.9187 0.37857 0.62677 0.0
H1226 H 0.93414 0.37507 0.70684 0.0
H1227 H 0.94204 0.32726 0.70036 0.0
H1228 H 0.86425 0.37053 0.66308 0.0
H1229 H 0.98969 0.47729 0.68372 0.0
H1230 H 0.98422 0.44246 0.665 0.0
H1231 H 0.97699 0.43773 0.69839 0.0
C1232 C 0.92915 0.34087 0.63919 0.0
C1233 C 0.93458 0.32507 0.65981 0.0
C1234 C 0.92449 0.36798 0.64289 0.0
C1235 C 0.9255 0.38021 0.66729 0.0
C1236 C 0.93325 0.36606 0.68782 0.0
H1237 H 0.89623 0.54851 0.70327 0.0
H1238 H 0.90483 0.50085 0.70847 0.0
C1239 C 0.93779 0.33871 0.6841 0.0
C1240 C 0.91534 0.40558 0.67111 0.0
H1241 H 0.94546 0.48812 0.68159 0.0
C1242 C 0.88195 0.39622 0.66733 0.0
C1243 C 0.93832 0.43891 0.67699 0.0
C1244 C 0.9744 0.45003 0.68123 0.0
C1245 C 0.87102 0.4194 0.66873 0.0
C1246 C 0.89427 0.45321 0.67329 0.0
C1247 C 0.92754 0.46232 0.67798 0.0
C1248 C 0.88507 0.47973 0.67171 0.0
C1249 C 0.83454 0.40723 0.66544 0.0
C1250 C 0.87045 0.48356 0.6496 0.0
C1251 C 0.865 0.51039 0.64687 0.0
C1252 C 0.87418 0.53414 0.66611 0.0
C1253 C 0.88797 0.52996 0.6885 0.0
C1254 C 0.89328 0.50297 0.69131 0.0
H1255 H 0.8193 0.38088 0.67126 0.0
H1256 H 0.82666 0.42226 0.67662 0.0
H1257 H 0.82932 0.40888 0.64517 0.0
H1258 H 0.86476 0.46674 0.63385 0.0
H1259 H 0.85545 0.51372 0.62908 0.0
H1260 H 0.71628 0.60061 0.62231 0.0
H1261 H 0.66557 0.54722 0.62769 0.0
H1262 H 0.67175 0.56156 0.70848 0.0
H1263 H 0.72248 0.61547 0.70303 0.0
H1264 H 0.66528 0.49911 0.69138 0.0
H1265 H 0.57024 0.52258 0.64857 0.0
H1266 H 0.6068 0.53658 0.62957 0.0
H1267 H 0.60969 0.55552 0.65976 0.0
C1268 C 0.70636 0.59278 0.64118 0.0
C1269 C 0.72338 0.61225 0.66225 0.0
C1270 C 0.67737 0.56222 0.64424 0.0
C1271 C 0.66478 0.55028 0.66848 0.0
C1272 C 0.68101 0.57021 0.68958 0.0
H1273 H 0.47501 0.36723 0.68504 0.0
H1274 H 0.52217 0.42293 0.69134 0.0
C1275 C 0.70994 0.60107 0.68647 0.0
C1276 C 0.63612 0.51605 0.67151 0.0
H1277 H 0.55565 0.4659 0.65343 0.0
C1278 C 0.64116 0.49189 0.68336 0.0
C1279 C 0.60461 0.50662 0.66121 0.0
C1280 C 0.59729 0.5317 0.64926 0.0
C1281 C 0.6159 0.45839 0.68438 0.0
C1282 C 0.58483 0.44866 0.67299 0.0
C1283 C 0.5795 0.47312 0.66196 0.0
C1284 C 0.55744 0.41337 0.67203 0.0
C1285 C 0.62271 0.43376 0.6977 0.0
C1286 C 0.56155 0.3889 0.65966 0.0
C1287 C 0.53449 0.35679 0.65613 0.0
C1288 C 0.50273 0.34866 0.66467 0.0
C1289 C 0.4991 0.37275 0.6781 0.0
C1290 C 0.52606 0.40467 0.68167 0.0
H1291 H 0.64347 0.44615 0.7114 0.0
H1292 H 0.6004 0.41487 0.70793 0.0
H1293 H 0.62972 0.42084 0.68351 0.0
H1294 H 0.58531 0.39504 0.65163 0.0
H1295 H 0.53801 0.33899 0.64543 0.0
H1296 H 0.7476 0.88124 0.68035 0.0
H1297 H 0.77635 0.94161 0.67753 0.0
H1298 H 0.86956 0.94583 0.69158 0.0
H1299 H 0.84084 0.88519 0.69455 0.0
H1300 H 0.81185 0.98404 0.71619 0.0
H1301 H 0.89188 1.01 0.63183 0.0
H1302 H 0.85729 0.96935 0.63858 0.0
H1303 H 0.89565 0.98427 0.65543 0.0
C1304 C 0.77425 0.89493 0.68275 0.0
C1305 C 0.79183 0.87826 0.68788 0.0
C1306 C 0.79069 0.9295 0.68099 0.0
C1307 C 0.82518 0.94838 0.68414 0.0
C1308 C 0.84303 0.93186 0.68858 0.0
H1309 H 0.92002 0.1573 0.72924 0.0
H1310 H 0.89729 0.09738 0.72798 0.0
C1311 C 0.82654 0.89713 0.69032 0.0
C1312 C 0.84169 0.98528 0.68479 0.0
H1313 H 0.90026 0.05636 0.65605 0.0
C1314 C 0.83111 0.99987 0.70296 0.0
C1315 C 0.86676 1.00596 0.66753 0.0
C1316 C 0.87847 0.9917 0.64707 0.0
C1317 C 0.84465 0.03436 0.7044 0.0
C1318 C 0.87015 0.05537 0.68735 0.0
C1319 C 0.88076 0.04064 0.66913 0.0
C1320 C 0.88589 0.09243 0.68793 0.0
C1321 C 0.83066 0.04739 0.72405 0.0
C1322 C 0.88944 0.11047 0.66559 0.0
C1323 C 0.90378 0.14511 0.66618 0.0
C1324 C 0.91374 0.16232 0.68922 0.0
C1325 C 0.91143 0.14453 0.71133 0.0
C1326 C 0.8981 0.11014 0.71065 0.0
H1327 H 0.84458 0.05156 0.74199 0.0
H1328 H 0.83255 0.07095 0.71808 0.0
H1329 H 0.8042 0.02932 0.728 0.0
H1330 H 0.88089 0.09776 0.64766 0.0
H1331 H 0.90684 0.15837 0.64865 0.0
H1332 H 0.89107 0.7658 0.72919 0.0
H1333 H 0.94949 0.8082 0.7252 0.0
H1334 H 0.93874 0.80716 0.64408 0.0
H1335 H 0.88037 0.76357 0.64809 0.0
H1336 H 0.99601 0.81138 0.65549 0.0
H1337 H 0.98496 0.9042 0.71282 0.0
H1338 H 0.9719 0.86694 0.73059 0.0
H1339 H 0.94921 0.8662 0.7027 0.0
C1340 C 0.90129 0.77454 0.71051 0.0
C1341 C 0.8815 0.76092 0.68894 0.0
C1342 C 0.93461 0.79904 0.70824 0.0
C1343 C 0.94857 0.81155 0.68437 0.0
C1344 C 0.92866 0.79808 0.66273 0.0
H1345 H 0.1382 0.99636 0.68031 0.0
H1346 H 0.08068 0.95349 0.67238 0.0
C1347 C 0.89534 0.77314 0.665 0.0
C1348 C 0.9839 0.83855 0.68218 0.0
H1349 H 0.04004 0.91435 0.70598 0.0
C1350 C 1.00558 0.8339 0.66649 0.0
C1351 C 0.99646 0.86863 0.6958 0.0
C1352 C 0.97431 0.87696 0.71118 0.0
C1353 C 0.03953 0.85769 0.6649 0.0
C1354 C 0.05244 0.88681 0.67979 0.0
C1355 C 0.03048 0.89195 0.69476 0.0
C1356 C 0.08848 0.9123 0.68053 0.0
C1357 C 0.06102 0.85146 0.64701 0.0
C1358 C 0.11252 0.90365 0.68701 0.0
C1359 C 0.14565 0.92823 0.69097 0.0
C1360 C 0.1552 0.96191 0.68896 0.0
C1361 C 0.1315 0.97053 0.68166 0.0
C1362 C 0.09858 0.94602 0.67732 0.0
H1363 H 0.04619 0.83475 0.63132 0.0
H1364 H 0.08098 0.87493 0.63881 0.0
H1365 H 0.07261 0.83918 0.65747 0.0
H1366 H 0.10544 0.87802 0.69032 0.0
H1367 H 0.16333 0.92102 0.69715 0.0
H1368 H 0.30042 0.15062 0.73165 0.0
H1369 H 0.25882 0.16799 0.72901 0.0
H1370 H 0.23817 0.13403 0.65167 0.0
H1371 H 0.28118 0.11836 0.65401 0.0
H1372 H 0.24235 0.19054 0.65361 0.0
H1373 H 0.16133 0.11893 0.73269 0.0
H1374 H 0.20286 0.14404 0.74398 0.0
H1375 H 0.19364 0.11179 0.72117 0.0
C1376 C 0.28685 0.14683 0.71415 0.0
C1377 C 0.29461 0.13414 0.69283 0.0
C1378 C 0.26273 0.15633 0.71271 0.0
C1379 C 0.24472 0.15189 0.69025 0.0
C1380 C 0.2516 0.13781 0.66922 0.0
H1381 H 0.08252 0.19797 0.69245 0.0
H1382 H 0.11318 0.16808 0.68868 0.0
C1383 C 0.27626 0.12898 0.67051 0.0
C1384 C 0.22056 0.16409 0.6882 0.0
H1385 H 0.15761 0.1667 0.71939 0.0
C1386 C 0.22376 0.18511 0.66797 0.0
C1387 C 0.19525 0.15622 0.7063 0.0
C1388 C 0.18782 0.13119 0.72705 0.0
C1389 C 0.20391 0.19993 0.66617 0.0
C1390 C 0.1805 0.19421 0.68541 0.0
C1391 C 0.17597 0.17174 0.70487 0.0
C1392 C 0.16147 0.21222 0.68625 0.0
C1393 C 0.20826 0.22148 0.64352 0.0
C1394 C 0.17823 0.24701 0.68615 0.0
C1395 C 0.16076 0.26413 0.6879 0.0
C1396 C 0.12599 0.24699 0.69031 0.0
C1397 C 0.10918 0.21208 0.6903 0.0
C1398 C 0.12674 0.19492 0.68836 0.0
H1399 H 0.21768 0.21406 0.62693 0.0
H1400 H 0.18463 0.22028 0.63816 0.0
H1401 H 0.22677 0.24756 0.64808 0.0
H1402 H 0.20501 0.26106 0.68515 0.0
H1403 H 0.17465 0.29095 0.68748 0.0
H1404 H 0.14194 0.35144 0.24684 0.0
H1405 H 0.13549 0.37126 0.20518 0.0
H1406 H 0.1133 0.44062 0.24156 0.0
H1407 H 0.11999 0.42141 0.28283 0.0
H1408 H 0.07692 0.3698 0.18725 0.0
H1409 H 0.18223 0.4988 0.18839 0.0
H1410 H 0.17994 0.46709 0.20938 0.0
H1411 H 0.15653 0.48732 0.21608 0.0
C1412 C 0.1364 0.37136 0.24595 0.0
C1413 C 0.13166 0.38485 0.26828 0.0
C1414 C 0.1325 0.38257 0.22211 0.0
C1415 C 0.12437 0.40787 0.22013 0.0
C1416 C 0.1202 0.42162 0.24243 0.0
H1417 H 0.06551 0.49581 0.09727 0.0
H1418 H 0.08451 0.4853 0.13787 0.0
C1419 C 0.12376 0.41029 0.26611 0.0
C1420 C 0.11786 0.41841 0.19502 0.0
H1421 H 0.14155 0.48567 0.15629 0.0
C1422 C 0.09128 0.39506 0.18039 0.0
C1423 C 0.13617 0.45154 0.18617 0.0
C1424 C 0.1655 0.47763 0.20068 0.0
C1425 C 0.08219 0.40391 0.15752 0.0
C1426 C 0.10071 0.43696 0.14844 0.0
C1427 C 0.12728 0.46039 0.16311 0.0
C1428 C 0.09336 0.44696 0.12336 0.0
C1429 C 0.05218 0.37777 0.14362 0.0
C1430 C 0.09335 0.43014 0.1014 0.0
C1431 C 0.08253 0.43608 0.07839 0.0
C1432 C 0.07243 0.45989 0.07618 0.0
C1433 C 0.07419 0.47821 0.09786 0.0
C1434 C 0.08471 0.47188 0.12122 0.0
H1435 H 0.03503 0.35762 0.15652 0.0
H1436 H 0.03831 0.38851 0.1343 0.0
H1437 H 0.06037 0.36647 0.1289 0.0
H1438 H 0.10047 0.4113 0.10223 0.0
H1439 H 0.08067 0.42071 0.06248 0.0
H1440 H 0.67499 0.71266 0.2666 0.0
H1441 H 0.65123 0.68778 0.2261 0.0
H1442 H 0.63112 0.7668 0.21013 0.0
H1443 H 0.65526 0.79236 0.25134 0.0
H1444 H 0.58555 0.66511 0.21125 0.0
H1445 H 0.67509 0.75914 0.14391 0.0
H1446 H 0.68527 0.75819 0.17676 0.0
H1447 H 0.65798 0.77333 0.16811 0.0
C1448 C 0.66583 0.72517 0.25457 0.0
C1449 C 0.66708 0.75466 0.2625 0.0
C1450 C 0.65215 0.71073 0.23126 0.0
C1451 C 0.63929 0.72523 0.21489 0.0
C1452 C 0.64119 0.75523 0.22225 0.0
H1453 H 0.55581 0.63695 0.06423 0.0
H1454 H 0.56533 0.67024 0.10282 0.0
C1455 C 0.65504 0.76988 0.24584 0.0
C1456 C 0.62277 0.70748 0.19092 0.0
H1457 H 0.63241 0.70964 0.12658 0.0
C1458 C 0.59553 0.67514 0.19273 0.0
C1459 C 0.63561 0.72038 0.16664 0.0
C1460 C 0.66521 0.75458 0.16351 0.0
C1461 C 0.58167 0.65507 0.17121 0.0
C1462 C 0.59546 0.66736 0.14708 0.0
C1463 C 0.62167 0.70023 0.14504 0.0
C1464 C 0.58581 0.64518 0.12446 0.0
C1465 C 0.55285 0.62042 0.17455 0.0
C1466 C 0.59327 0.61951 0.12393 0.0
C1467 C 0.588 0.60073 0.10202 0.0
C1468 C 0.575 0.60695 0.08 0.0
C1469 C 0.56548 0.63124 0.08094 0.0
C1470 C 0.57127 0.65053 0.10291 0.0
H1471 H 0.53937 0.61787 0.19249 0.0
H1472 H 0.53518 0.61342 0.15852 0.0
H1473 H 0.56223 0.60272 0.17515 0.0
H1474 H 0.6048 0.61504 0.14011 0.0
H1475 H 0.59597 0.58249 0.10182 0.0
H1476 H 0.38127 0.96837 0.06728 0.0
H1477 H 0.35602 0.94731 0.10802 0.0
H1478 H 0.44534 0.95054 0.13395 0.0
H1479 H 0.47128 0.97199 0.09228 0.0
H1480 H 0.34392 0.89137 0.13769 0.0
H1481 H 0.43058 1.01145 0.18382 0.0
H1482 H 0.42604 1.00718 0.1499 0.0
H1483 H 0.44869 0.9912 0.16652 0.0
C1484 C 0.39562 0.96413 0.0813 0.0
C1485 C 0.42853 0.97216 0.07632 0.0
C1486 C 0.38095 0.95195 0.10476 0.0
C1487 C 0.39876 0.94767 0.12428 0.0
C1488 C 0.43117 0.954 0.11923 0.0
H1489 H 0.34579 0.92037 0.28423 0.0
H1490 H 0.37212 0.92525 0.2435 0.0
C1491 C 0.44591 0.96599 0.09534 0.0
C1492 C 0.38349 0.93876 0.15002 0.0
H1493 H 0.38742 0.9715 0.20862 0.0
C1494 C 0.35365 0.90869 0.15333 0.0
C1495 C 0.39583 0.96152 0.17034 0.0
C1496 C 0.42691 0.99479 0.16762 0.0
C1497 C 0.33594 0.9008 0.17632 0.0
C1498 C 0.3479 0.92391 0.19648 0.0
C1499 C 0.37807 0.95372 0.19326 0.0
C1500 C 0.33001 0.91785 0.2212 0.0
C1501 C 0.30474 0.86763 0.17881 0.0
C1502 C 0.29712 0.91156 0.22258 0.0
C1503 C 0.28171 0.90847 0.24615 0.0
C1504 C 0.29908 0.9121 0.26879 0.0
C1505 C 0.33168 0.9177 0.26724 0.0
C1506 C 0.34686 0.9205 0.24386 0.0
H1507 H 0.30427 0.8494 0.16504 0.0
H1508 H 0.30218 0.8574 0.19818 0.0
H1509 H 0.28298 0.87065 0.17492 0.0
H1510 H 0.2837 0.91017 0.20547 0.0
H1511 H 0.2569 0.90478 0.24657 0.0
H1512 H 0.52097 0.07154 0.92268 0.0
H1513 H 0.51984 0.09619 0.88153 0.0
H1514 H 0.41434 0.05498 0.88868 0.0
H1515 H 0.41519 0.03056 0.92914 0.0
H1516 H 0.47703 0.06609 0.83407 0.0
H1517 H 0.45526 0.15844 0.88329 0.0
H1518 H 0.47248 0.13599 0.89906 0.0
H1519 H 0.42861 0.1165 0.89354 0.0
C1520 C 0.49749 0.06715 0.91515 0.0
C1521 C 0.46822 0.04926 0.92936 0.0
C1522 C 0.49689 0.08141 0.89172 0.0
C1523 C 0.46705 0.07795 0.88224 0.0
C1524 C 0.43773 0.05851 0.89576 0.0
H1525 H 0.36636 0.12069 0.77023 0.0
H1526 H 0.39085 0.11159 0.80794 0.0
C1527 C 0.4383 0.04447 0.91897 0.0
C1528 C 0.46589 0.09563 0.859 0.0
H1529 H 0.44195 0.15047 0.83927 0.0
C1530 C 0.47005 0.08505 0.83512 0.0
C1531 C 0.45688 0.12046 0.86036 0.0
C1532 C 0.45332 0.1338 0.88543 0.0
C1533 C 0.46328 0.09706 0.81265 0.0
C1534 C 0.45247 0.12061 0.81411 0.0
C1535 C 0.45011 0.13241 0.83801 0.0
C1536 C 0.43955 0.13021 0.79161 0.0
C1537 C 0.46604 0.08307 0.78764 0.0
C1538 C 0.45907 0.14533 0.77004 0.0
C1539 C 0.44498 0.15081 0.74827 0.0
C1540 C 0.41105 0.14082 0.74764 0.0
C1541 C 0.39243 0.12818 0.76992 0.0
C1542 C 0.40644 0.12291 0.79156 0.0
H1543 H 0.46733 0.06004 0.79004 0.0
H1544 H 0.44471 0.07761 0.77521 0.0
H1545 H 0.48893 0.10165 0.77787 0.0
H1546 H 0.48491 0.15204 0.76976 0.0
H1547 H 0.46014 0.16098 0.73154 0.0
H1548 H 0.94728 0.4157 0.93607 0.0
H1549 H 0.92609 0.38841 0.89518 0.0
H1550 H 0.02491 0.41276 0.87342 0.0
H1551 H 0.04621 0.44083 0.9143 0.0
H1552 H 0.98884 0.41711 0.83276 0.0
H1553 H 0.91552 0.29762 0.88321 0.0
H1554 H 0.90597 0.32887 0.89273 0.0
H1555 H 0.9465 0.33459 0.89885 0.0
C1556 C 0.96457 0.41608 0.9222 0.0
C1557 C 0.99841 0.4308 0.9281 0.0
C1558 C 0.9524 0.4001 0.89896 0.0
C1559 C 0.97371 0.39781 0.88131 0.0
C1560 C 1.0079 0.41407 0.88668 0.0
H1561 H 0.93425 0.25159 0.76781 0.0
H1562 H 0.94455 0.28446 0.80607 0.0
C1563 C 1.02013 0.43032 0.90994 0.0
C1564 C 0.96006 0.37666 0.85818 0.0
H1565 H 0.90783 0.29688 0.83903 0.0
C1566 C 0.971 0.39086 0.83412 0.0
C1567 C 0.93709 0.34221 0.85985 0.0
C1568 C 0.92578 0.32478 0.88503 0.0
C1569 C 0.95967 0.37167 0.81185 0.0
C1570 C 0.93624 0.33735 0.81355 0.0
C1571 C 0.92528 0.32324 0.8376 0.0
C1572 C 0.92562 0.31497 0.79097 0.0
C1573 C 0.97386 0.3881 0.78675 0.0
C1574 C 0.90993 0.31985 0.7699 0.0
C1575 C 0.90367 0.30064 0.74785 0.0
C1576 C 0.91313 0.27635 0.74655 0.0
C1577 C 0.92655 0.27003 0.76828 0.0
C1578 C 0.93265 0.28899 0.79017 0.0
H1579 H 0.99699 0.4123 0.7891 0.0
H1580 H 0.97924 0.37196 0.77459 0.0
H1581 H 0.95549 0.39259 0.77678 0.0
H1582 H 0.9036 0.33927 0.77017 0.0
H1583 H 0.89365 0.30635 0.73135 0.0
H1584 H 0.80068 0.68845 0.76979 0.0
H1585 H 0.7682 0.6668 0.80838 0.0
H1586 H 0.71167 0.57082 0.77347 0.0
H1587 H 0.74477 0.59257 0.73462 0.0
H1588 H 0.69914 0.64252 0.80643 0.0
H1589 H 0.72659 0.54852 0.84704 0.0
H1590 H 0.75462 0.58033 0.82548 0.0
H1591 H 0.71712 0.54577 0.8138 0.0
C1592 C 0.78234 0.66232 0.7707 0.0
C1593 C 0.77553 0.64217 0.74922 0.0
C1594 C 0.76349 0.65004 0.79272 0.0
C1595 C 0.73731 0.61719 0.79394 0.0
C1596 C 0.73195 0.59616 0.77317 0.0
H1597 H 0.59367 0.53493 0.92142 0.0
H1598 H 0.61916 0.53981 0.87968 0.0
C1599 C 0.75106 0.60853 0.751 0.0
C1600 C 0.71388 0.60677 0.81582 0.0
H1601 H 0.68795 0.55802 0.86886 0.0
C1602 C 0.69658 0.62389 0.81996 0.0
C1603 C 0.71001 0.58208 0.83334 0.0
C1604 C 0.72812 0.56311 0.82994 0.0
C1605 C 0.67659 0.61791 0.84144 0.0
C1606 C 0.67397 0.5944 0.85965 0.0
C1607 C 0.68998 0.5761 0.85498 0.0
C1608 C 0.6574 0.59098 0.88458 0.0
C1609 C 0.65874 0.63721 0.84462 0.0
C1610 C 0.67032 0.61797 0.90128 0.0
C1611 C 0.65585 0.61526 0.92497 0.0
C1612 C 0.62789 0.58548 0.93273 0.0
C1613 C 0.61469 0.55842 0.91593 0.0
C1614 C 0.62947 0.56108 0.89214 0.0
H1615 H 0.65523 0.64655 0.82618 0.0
H1616 H 0.63414 0.62179 0.85361 0.0
H1617 H 0.67369 0.65893 0.85696 0.0
H1618 H 0.69207 0.64114 0.89614 0.0
H1619 H 0.66689 0.63663 0.93734 0.0
H1620 H 0.7577 0.76081 0.39669 0.0
H1621 H 0.77654 0.75303 0.43758 0.0
H1622 H 0.75484 0.82473 0.47034 0.0
H1623 H 0.73621 0.83317 0.42862 0.0
H1624 H 0.82538 0.79787 0.47486 0.0
H1625 H 0.6945 0.73368 0.50786 0.0
H1626 H 0.70541 0.74148 0.47482 0.0
H1627 H 0.71059 0.77468 0.49497 0.0
C1628 C 0.75829 0.77616 0.41225 0.0
C1629 C 0.74632 0.79839 0.40913 0.0
C1630 C 0.76882 0.77137 0.43578 0.0
C1631 C 0.76705 0.78812 0.45713 0.0
C1632 C 0.75642 0.81148 0.45409 0.0
H1633 H 0.77735 0.74905 0.6161 0.0
H1634 H 0.77223 0.76965 0.57518 0.0
C1635 C 0.74617 0.81664 0.43021 0.0
C1636 C 0.7736 0.77856 0.48255 0.0
H1637 H 0.73442 0.73571 0.5361 0.0
C1638 C 0.80559 0.78455 0.48838 0.0
C1639 C 0.74765 0.76056 0.49998 0.0
C1640 C 0.71249 0.75189 0.49419 0.0
C1641 C 0.81244 0.77366 0.51136 0.0
C1642 C 0.78643 0.75554 0.52879 0.0
C1643 C 0.75444 0.74956 0.52285 0.0
C1644 C 0.79178 0.74371 0.55381 0.0
C1645 C 0.84759 0.78223 0.51692 0.0
C1646 C 0.80477 0.72216 0.55582 0.0
C1647 C 0.80794 0.71023 0.57959 0.0
C1648 C 0.79775 0.71925 0.60178 0.0
C1649 C 0.78513 0.74108 0.59955 0.0
C1650 C 0.78221 0.75306 0.57602 0.0
H1651 H 0.86568 0.80318 0.50505 0.0
H1652 H 0.85384 0.78887 0.53714 0.0
H1653 H 0.85041 0.76042 0.51278 0.0
H1654 H 0.81172 0.71391 0.53898 0.0
H1655 H 0.81739 0.69325 0.58045 0.0
H1656 H 0.26649 0.91806 0.43614 0.0
H1657 H 0.27873 0.95155 0.47431 0.0
H1658 H 0.24443 1.0117 0.43774 0.0
H1659 H 0.2319 0.97777 0.39922 0.0
H1660 H 0.32584 0.02033 0.47373 0.0
H1661 H 0.20344 0.99554 0.51001 0.0
H1662 H 0.20746 0.96762 0.48854 0.0
H1663 H 0.21218 1.00598 0.47705 0.0
C1664 C 0.26041 0.93768 0.43651 0.0
C1665 C 0.24812 0.94517 0.41469 0.0
C1666 C 0.26775 0.95705 0.45829 0.0
C1667 C 0.26279 0.98436 0.45897 0.0
C1668 C 0.24827 0.99061 0.43781 0.0
H1669 H 0.36703 0.13445 0.58012 0.0
H1670 H 0.34721 0.11057 0.53783 0.0
C1671 C 0.24082 0.97102 0.41585 0.0
C1672 C 0.27535 1.00726 0.48117 0.0
H1673 H 0.25062 0.0325 0.53338 0.0
C1674 C 0.30944 0.02331 0.48664 0.0
C1675 C 0.254 1.01116 0.49803 0.0
C1676 C 0.21718 0.99409 0.49336 0.0
C1677 C 0.32258 0.04213 0.50884 0.0
C1678 C 0.30113 0.04543 0.52605 0.0
C1679 C 0.26715 0.03021 0.52017 0.0
C1680 C 0.31275 0.06124 0.55146 0.0
C1681 C 0.35906 0.05693 0.5143 0.0
C1682 C 0.29965 0.04185 0.57326 0.0
C1683 C 0.31082 0.05536 0.59728 0.0
C1684 C 0.33541 0.08888 0.6004 0.0
C1685 C 0.34818 0.10859 0.57855 0.0
C1686 C 0.33697 0.0949 0.55432 0.0
H1687 H 0.37104 0.04727 0.50136 0.0
H1688 H 0.37159 0.08421 0.51192 0.0
H1689 H 0.36302 0.05168 0.5341 0.0
H1690 H 0.281 0.0159 0.57169 0.0
H1691 H 0.30002 0.03923 0.61348 0.0
H1692 H 1.01196 0.26073 0.61369 0.0
H1693 H 0.03636 0.26501 0.57226 0.0
H1694 H 0.94086 0.22944 0.53734 0.0
H1695 H 0.91611 0.22566 0.57914 0.0
H1696 H 0.02415 0.21878 0.53429 0.0
H1697 H 0.99945 0.31764 0.50057 0.0
H1698 H 0.99538 0.30552 0.53339 0.0
H1699 H 0.96404 0.27974 0.51099 0.0
C1700 C 0.99591 0.25371 0.5973 0.0
C1701 C 0.9619 0.24298 0.59996 0.0
C1702 C 1.01 0.25602 0.57351 0.0
C1703 C 0.99069 0.24795 0.55149 0.0
C1704 C 0.95648 0.23626 0.55398 0.0
H1705 H 0.07906 0.25686 0.40006 0.0
H1706 H 0.0453 0.23373 0.4385 0.0
C1707 C 0.94221 0.23375 0.57798 0.0
C1708 C 1.00718 0.25318 0.52623 0.0
H1709 H 0.02937 0.30237 0.4735 0.0
C1710 C 0.02492 0.23674 0.52083 0.0
C1711 C 1.00856 0.27686 0.50869 0.0
C1712 C 0.9911 0.29622 0.51363 0.0
C1713 C 0.04447 0.24388 0.49881 0.0
C1714 C 0.04636 0.26805 0.48161 0.0
C1715 C 0.0279 0.28378 0.48664 0.0
C1716 C 0.0695 0.27976 0.4595 0.0
C1717 C 0.06418 0.22665 0.49465 0.0
C1718 C 0.09511 0.31288 0.45873 0.0
C1719 C 0.11439 0.32592 0.437 0.0
C1720 C 0.10848 0.30635 0.41526 0.0
C1721 C 0.08452 0.2725 0.41656 0.0
C1722 C 0.06503 0.25933 0.43849 0.0
H1723 H 0.06379 0.21212 0.51145 0.0
H1724 H 0.05364 0.2095 0.47835 0.0
H1725 H 0.09032 0.24501 0.49004 0.0
H1726 H 0.09927 0.32915 0.47464 0.0
H1727 H 0.13259 0.35211 0.4366 0.0
loop_
_geom_bond_atom_site_label_1
_geom_bond_atom_site_label_2
_geom_bond_distance
_geom_bond_site_symmetry_2
_ccdc_geom_bond_type
Gd0 N31 2.661 1_654 S
Gd0 N37 2.601 1_655 S
Gd0 O44 2.545 . S
Gd0 O45 2.606 . S
Gd0 O47 2.429 1_655 S
Gd0 O48 2.545 . S
Gd0 O49 2.412 1_554 S
Gd0 O51 2.362 1_655 S
Gd0 O52 2.324 1_554 S
Gd0 C59 2.828 . S
Gd1 N10 2.661 1_556 S
Gd1 N14 2.601 . S
Gd1 O45 2.362 1_456 S
Gd1 O46 2.324 1_556 S
Gd1 O50 2.545 . S
Gd1 O51 2.606 1_556 S
Gd1 O53 2.429 . S
Gd1 O54 2.545 . S
Gd1 O55 2.412 1_556 S
Gd1 C68 2.828 . S
C2 C5 1.415 . S
C2 C7 1.431 1_554 S
C2 C8 1.412 . S
C3 C6 1.437 . S
C3 C7 1.317 . S
C3 H22 0.929 . S
C4 C5 1.432 1_456 S
C4 C6 1.413 1_455 S
C4 N14 1.359 . S
C5 C2 1.415 . S
C5 C4 1.432 1_654 S
C5 N10 1.347 1_655 S
C6 C3 1.437 . S
C6 C4 1.413 1_655 S
C6 C16 1.391 1_655 S
C7 C2 1.431 1_556 S
C7 C3 1.317 . S
C7 H18 0.930 1_556 S
C8 C2 1.412 . S
C8 C9 1.355 . S
C8 H20 0.930 . S
C9 C8 1.355 . S
C9 C11 1.402 . S
C9 H21 0.930 . S
N10 Gd1 2.661 1_554 S
N10 C5 1.347 1_455 S
N10 C11 1.307 1_455 S
C11 C9 1.402 . S
C11 N10 1.307 1_655 S
C11 H12 0.930 1_655 S
H12 C11 0.930 1_455 S
C13 N14 1.334 . S
C13 C15 1.394 . S
C13 H17 0.930 . S
N14 Gd1 2.601 . S
N14 C4 1.359 . S
N14 C13 1.334 . S
C15 C13 1.394 . S
C15 C16 1.359 . S
C15 H27 0.930 . S
C16 C6 1.391 1_455 S
C16 C15 1.359 . S
C16 H28 0.929 1_455 S
H17 C13 0.930 . S
H18 C7 0.930 1_554 S
H19 C36 0.930 . S
H20 C8 0.930 . S
H21 C9 0.930 . S
H22 C3 0.929 . S
H23 C41 0.930 . S
H24 C32 0.930 . S
H25 C33 0.930 . S
H26 C57 0.929 . S
H27 C15 0.930 . S
H28 C16 0.929 1_655 S
H29 C58 0.930 . S
H30 C39 0.930 1_655 S
N31 Gd0 2.661 1_456 S
N31 C35 1.350 1_556 S
N31 C36 1.307 . S
C32 H24 0.930 . S
C32 C33 1.355 . S
C32 C34 1.412 . S
C33 H25 0.930 . S
C33 C32 1.355 . S
C33 C36 1.402 . S
C34 C32 1.412 . S
C34 C35 1.417 1_556 S
C34 C58 1.431 1_556 S
C35 N31 1.350 1_554 S
C35 C34 1.417 1_554 S
C35 C38 1.426 . S
C36 H19 0.930 . S
C36 N31 1.307 . S
C36 C33 1.402 . S
N37 Gd0 2.601 1_455 S
N37 C38 1.359 . S
N37 C41 1.334 1_455 S
C38 C35 1.426 . S
C38 N37 1.359 . S
C38 C42 1.413 . S
C39 H30 0.930 1_455 S
C39 C40 1.358 . S
C39 C41 1.395 1_455 S
C40 C39 1.358 . S
C40 C42 1.391 . S
C40 H43 0.929 . S
C41 H23 0.930 . S
C41 N37 1.334 1_655 S
C41 C39 1.395 1_655 S
C42 C38 1.413 . S
C42 C40 1.391 . S
C42 C57 1.437 . S
H43 C40 0.929 . S
O44 Gd0 2.545 . S
O44 C59 1.258 . S
O45 Gd0 2.606 . S
O45 Gd1 2.362 1_654 S
O45 C56 1.284 . S
O46 Gd1 2.324 1_554 S
O46 C66 1.254 . S
O47 Gd0 2.429 1_455 S
O47 C66 1.268 . S
O48 Gd0 2.545 . S
O48 C56 1.250 . S
O49 Gd0 2.412 1_556 S
O49 C59 1.252 1_556 S
O50 Gd1 2.545 . S
O50 C68 1.258 . S
O51 Gd0 2.362 1_455 S
O51 Gd1 2.606 1_554 S
O51 C67 1.278 1_554 S
O52 Gd0 2.324 1_556 S
O52 C75 1.254 . S
O53 Gd1 2.429 . S
O53 C75 1.268 1_455 S
O54 Gd1 2.545 . S
O54 C67 1.264 . S
O55 Gd1 2.412 1_554 S
O55 C68 1.252 1_554 S
C56 O45 1.284 . S
C56 O48 1.250 . S
C57 H26 0.929 . S
C57 C42 1.437 . S
C57 C58 1.317 . S
C58 H29 0.930 . S
C58 C34 1.431 1_554 S
C58 C57 1.317 . S
C59 Gd0 2.828 . S
C59 O44 1.258 . S
C59 O49 1.252 1_554 S
C59 C60 1.497 . S
C60 C59 1.497 . S
C60 C61 1.395 . S
C60 C62 1.380 1_554 S
C61 C60 1.395 . S
C61 C64 1.398 . S
C61 H76 0.930 . S
C62 C60 1.380 1_556 S
C62 C63 1.393 . S
C62 H77 0.930 . S
C63 C62 1.393 . S
C63 C65 1.357 1_556 S
C64 C61 1.398 . S
C64 C65 1.380 . S
C64 H78 0.930 . S
C65 C63 1.357 1_554 S
C65 C64 1.380 . S
C65 H79 0.930 . S
C66 O46 1.254 . S
C66 O47 1.268 . S
C67 O51 1.278 1_556 S
C67 O54 1.264 . S
C68 Gd1 2.828 . S
C68 O50 1.258 . S
C68 O55 1.252 1_556 S
C68 C69 1.497 . S
C69 C68 1.497 . S
C69 C70 1.395 . S
C69 C71 1.380 1_556 S
C70 C69 1.395 . S
C70 C73 1.398 . S
C70 H80 0.930 . S
C71 C69 1.380 1_554 S
C71 C72 1.391 . S
C71 H81 0.930 . S
C72 C71 1.391 . S
C72 C74 1.387 1_554 S
C73 C70 1.398 . S
C73 C74 1.380 . S
C73 H82 0.930 . S
C74 C72 1.387 1_556 S
C74 C73 1.380 . S
C74 H83 0.930 . S
C75 O52 1.254 . S
C75 O53 1.268 1_655 S
H76 C61 0.930 . S
H77 C62 0.930 . S
H78 C64 0.930 . S
H79 C65 0.930 . S
H80 C70 0.930 . S
H81 C71 0.930 . S
H82 C73 0.930 . S
H83 C74 0.930 . S
Gd84 N115 2.661 1_554 S
Gd84 N121 2.601 . S
Gd84 O128 2.545 . S
Gd84 O129 2.606 . S
Gd84 O131 2.429 . S
Gd84 O132 2.545 . S
Gd84 O133 2.412 1_554 S
Gd84 O135 2.362 . S
Gd84 O136 2.324 1_554 S
Gd84 C143 2.828 . S
Gd85 N94 2.661 1_556 S
Gd85 N98 2.601 . S
Gd85 O129 2.362 1_556 S
Gd85 O130 2.324 1_556 S
Gd85 O134 2.545 . S
Gd85 O135 2.606 1_556 S
Gd85 O137 2.429 . S
Gd85 O138 2.545 . S
Gd85 O139 2.412 1_556 S
Gd85 C152 2.828 . S
C86 C89 1.415 . S
C86 C91 1.431 1_554 S
C86 C92 1.412 . S
C87 C90 1.437 . S
C87 C91 1.317 . S
C87 H106 0.929 . S
C88 C89 1.431 1_556 S
C88 C90 1.413 . S
C88 N98 1.359 . S
C89 C86 1.415 . S
C89 C88 1.431 1_554 S
C89 N94 1.348 . S
C90 C87 1.437 . S
C90 C88 1.413 . S
C90 C100 1.391 . S
C91 C86 1.431 1_556 S
C91 C87 1.317 . S
C91 H102 0.930 1_556 S
C92 C86 1.412 . S
C92 C93 1.355 . S
C92 H104 0.930 . S
C93 C92 1.355 . S
C93 C95 1.402 . S
C93 H105 0.930 . S
N94 Gd85 2.661 1_554 S
N94 C89 1.348 . S
N94 C95 1.307 . S
C95 C93 1.402 . S
C95 N94 1.307 . S
C95 H96 0.930 . S
H96 C95 0.930 . S
C97 N98 1.334 . S
C97 C99 1.394 . S
C97 H101 0.930 . S
N98 Gd85 2.601 . S
N98 C88 1.359 . S
N98 C97 1.334 . S
C99 C97 1.394 . S
C99 C100 1.359 . S
C99 H111 0.930 . S
C100 C90 1.391 . S
C100 C99 1.359 . S
C100 H112 0.929 . S
H101 C97 0.930 . S
H102 C91 0.930 1_554 S
H103 C120 0.930 . S
H104 C92 0.930 . S
H105 C93 0.930 . S
H106 C87 0.929 . S
H107 C125 0.930 . S
H108 C116 0.930 . S
H109 C117 0.930 . S
H110 C141 0.929 . S
H111 C99 0.930 . S
H112 C100 0.929 . S
H113 C142 0.930 . S
H114 C123 0.930 . S
N115 Gd84 2.661 1_556 S
N115 C119 1.350 1_556 S
N115 C120 1.307 . S
C116 H108 0.930 . S
C116 C117 1.355 . S
C116 C118 1.412 . S
C117 H109 0.930 . S
C117 C116 1.355 . S
C117 C120 1.402 . S
C118 C116 1.412 . S
C118 C119 1.417 1_556 S
C118 C142 1.431 1_556 S
C119 N115 1.350 1_554 S
C119 C118 1.417 1_554 S
C119 C122 1.426 . S
C120 H103 0.930 . S
C120 N115 1.307 . S
C120 C117 1.402 . S
N121 Gd84 2.601 . S
N121 C122 1.359 . S
N121 C125 1.334 . S
C122 C119 1.426 . S
C122 N121 1.359 . S
C122 C126 1.413 . S
C123 H114 0.930 . S
C123 C124 1.359 . S
C123 C125 1.394 . S
C124 C123 1.359 . S
C124 C126 1.391 . S
C124 H127 0.929 . S
C125 H107 0.930 . S
C125 N121 1.334 . S
C125 C123 1.394 . S
C126 C122 1.413 . S
C126 C124 1.391 . S
C126 C141 1.437 . S
H127 C124 0.929 . S
O128 Gd84 2.545 . S
O128 C143 1.258 . S
O129 Gd84 2.606 . S
O129 Gd85 2.362 1_554 S
O129 C140 1.284 . S
O130 Gd85 2.324 1_554 S
O130 C150 1.254 . S
O131 Gd84 2.429 . S
O131 C150 1.268 . S
O132 Gd84 2.545 . S
O132 C140 1.250 . S
O133 Gd84 2.412 1_556 S
O133 C143 1.252 1_556 S
O134 Gd85 2.545 . S
O134 C152 1.258 . S
O135 Gd84 2.362 . S
O135 Gd85 2.606 1_554 S
O135 C151 1.278 1_554 S
O136 Gd84 2.324 1_556 S
O136 C159 1.254 . S
O137 Gd85 2.429 . S
O137 C159 1.268 . S
O138 Gd85 2.545 . S
O138 C151 1.264 . S
O139 Gd85 2.412 1_554 S
O139 C152 1.252 1_554 S
C140 O129 1.284 . S
C140 O132 1.250 . S
C141 H110 0.929 . S
C141 C126 1.437 . S
C141 C142 1.317 . S
C142 H113 0.930 . S
C142 C118 1.431 1_554 S
C142 C141 1.317 . S
C143 Gd84 2.828 . S
C143 O128 1.258 . S
C143 O133 1.252 1_554 S
C143 C144 1.497 . S
C144 C143 1.497 . S
C144 C145 1.395 . S
C144 C146 1.380 1_554 S
C145 C144 1.395 . S
C145 C148 1.398 . S
C145 H160 0.930 . S
C146 C144 1.380 1_556 S
C146 C147 1.393 . S
C146 H161 0.930 . S
C147 C146 1.393 . S
C147 C149 1.357 1_556 S
C148 C145 1.398 . S
C148 C149 1.380 . S
C148 H162 0.930 . S
C149 C147 1.357 1_554 S
C149 C148 1.380 . S
C149 H163 0.930 . S
C150 O130 1.254 . S
C150 O131 1.268 . S
C151 O135 1.278 1_556 S
C151 O138 1.264 . S
C152 Gd85 2.828 . S
C152 O134 1.258 . S
C152 O139 1.252 1_556 S
C152 C153 1.497 . S
C153 C152 1.497 . S
C153 C154 1.395 . S
C153 C155 1.380 1_556 S
C154 C153 1.395 . S
C154 C157 1.398 . S
C154 H164 0.930 . S
C155 C153 1.380 1_554 S
C155 C156 1.391 . S
C155 H165 0.930 . S
C156 C155 1.391 . S
C156 C158 1.387 1_554 S
C157 C154 1.398 . S
C157 C158 1.380 . S
C157 H166 0.930 . S
C158 C156 1.387 1_556 S
C158 C157 1.380 . S
C158 H167 0.930 . S
C159 O136 1.254 . S
C159 O137 1.268 . S
H160 C145 0.930 . S
H161 C146 0.930 . S
H162 C148 0.930 . S
H163 C149 0.930 . S
H164 C154 0.930 . S
H165 C155 0.930 . S
H166 C157 0.930 . S
H167 C158 0.930 . S
Gd168 N199 2.661 1_554 S
Gd168 N205 2.601 . S
Gd168 O212 2.545 . S
Gd168 O213 2.606 . S
Gd168 O215 2.429 . S
Gd168 O216 2.545 . S
Gd168 O217 2.412 1_554 S
Gd168 O219 2.362 1_545 S
Gd168 O220 2.324 1_554 S
Gd168 C227 2.828 . S
Gd169 N178 2.661 1_566 S
Gd169 N182 2.602 1_565 S
Gd169 O213 2.362 1_566 S
Gd169 O214 2.324 1_556 S
Gd169 O218 2.545 . S
Gd169 O219 2.606 1_556 S
Gd169 O221 2.429 1_565 S
Gd169 O222 2.545 . S
Gd169 O223 2.412 1_556 S
Gd169 C236 2.828 . S
C170 C173 1.415 . S
C170 C175 1.431 1_554 S
C170 C176 1.412 . S
C171 C174 1.437 . S
C171 C175 1.317 . S
C171 H190 0.929 . S
C172 C173 1.432 1_556 S
C172 C174 1.413 . S
C172 N182 1.359 . S
C173 C170 1.415 . S
C173 C172 1.432 1_554 S
C173 N178 1.347 . S
C174 C171 1.437 . S
C174 C172 1.413 . S
C174 C184 1.391 . S
C175 C170 1.431 1_556 S
C175 C171 1.317 . S
C175 H186 0.930 1_556 S
C176 C170 1.412 . S
C176 C177 1.355 . S
C176 H188 0.930 . S
C177 C176 1.355 . S
C177 C179 1.402 . S
C177 H189 0.930 . S
N178 Gd169 2.661 1_544 S
N178 C173 1.347 . S
N178 C179 1.307 . S
C179 C177 1.402 . S
C179 N178 1.307 . S
C179 H180 0.930 . S
H180 C179 0.930 . S
C181 N182 1.333 1_565 S
C181 C183 1.385 . S
C181 H185 0.930 . S
N182 Gd169 2.602 1_545 S
N182 C172 1.359 . S
N182 C181 1.333 1_545 S
C183 C181 1.385 . S
C183 C184 1.361 1_565 S
C183 H195 0.939 . S
C184 C174 1.391 . S
C184 C183 1.361 1_545 S
C184 H196 0.929 . S
H185 C181 0.930 . S
H186 C175 0.930 1_554 S
H187 C204 0.930 1_545 S
H188 C176 0.930 . S
H189 C177 0.930 . S
H190 C171 0.929 . S
H191 C209 0.930 . S
H192 C200 0.930 . S
H193 C201 0.930 . S
H194 C225 0.929 . S
H195 C183 0.939 . S
H196 C184 0.929 . S
H197 C226 0.930 . S
H198 C207 0.930 . S
N199 Gd168 2.661 1_556 S
N199 C203 1.350 1_546 S
N199 C204 1.307 1_545 S
C200 H192 0.930 . S
C200 C201 1.355 . S
C200 C202 1.412 . S
C201 H193 0.930 . S
C201 C200 1.355 . S
C201 C204 1.402 . S
C202 C200 1.412 . S
C202 C203 1.417 1_556 S
C202 C226 1.431 1_556 S
C203 N199 1.350 1_564 S
C203 C202 1.417 1_554 S
C203 C206 1.421 1_565 S
C204 H187 0.930 1_565 S
C204 N199 1.307 1_565 S
C204 C201 1.402 . S
N205 Gd168 2.601 . S
N205 C206 1.357 . S
N205 C209 1.334 . S
C206 C203 1.421 1_545 S
C206 N205 1.357 . S
C206 C210 1.421 1_545 S
C207 H198 0.930 . S
C207 C208 1.358 . S
C207 C209 1.394 . S
C208 C207 1.358 . S
C208 C210 1.385 1_545 S
C208 H211 0.938 1_545 S
C209 H191 0.930 . S
C209 N205 1.334 . S
C209 C207 1.394 . S
C210 C206 1.421 1_565 S
C210 C208 1.385 1_565 S
C210 C225 1.437 . S
H211 C208 0.938 1_565 S
O212 Gd168 2.545 . S
O212 C227 1.258 . S
O213 Gd168 2.606 . S
O213 Gd169 2.362 1_544 S
O213 C224 1.284 . S
O214 Gd169 2.324 1_554 S
O214 C234 1.254 . S
O215 Gd168 2.429 . S
O215 C234 1.268 1_545 S
O216 Gd168 2.545 . S
O216 C224 1.250 . S
O217 Gd168 2.412 1_556 S
O217 C227 1.252 1_556 S
O218 Gd169 2.545 . S
O218 C236 1.258 . S
O219 Gd168 2.362 1_565 S
O219 Gd169 2.606 1_554 S
O219 C235 1.278 1_554 S
O220 Gd168 2.324 1_556 S
O220 C243 1.254 . S
O221 Gd169 2.429 1_545 S
O221 C243 1.268 . S
O222 Gd169 2.545 . S
O222 C235 1.264 . S
O223 Gd169 2.412 1_554 S
O223 C236 1.252 1_554 S
C224 O213 1.284 . S
C224 O216 1.250 . S
C225 H194 0.929 . S
C225 C210 1.437 . S
C225 C226 1.317 . S
C226 H197 0.930 . S
C226 C202 1.431 1_554 S
C226 C225 1.317 . S
C227 Gd168 2.828 . S
C227 O212 1.258 . S
C227 O217 1.252 1_554 S
C227 C228 1.497 . S
C228 C227 1.497 . S
C228 C229 1.395 . S
C228 C230 1.380 1_554 S
C229 C228 1.395 . S
C229 C232 1.398 . S
C229 H244 0.930 . S
C230 C228 1.380 1_556 S
C230 C231 1.393 . S
C230 H245 0.930 . S
C231 C230 1.393 . S
C231 C233 1.357 1_556 S
C232 C229 1.398 . S
C232 C233 1.380 . S
C232 H246 0.930 . S
C233 C231 1.357 1_554 S
C233 C232 1.380 . S
C233 H247 0.930 . S
C234 O214 1.254 . S
C234 O215 1.268 1_565 S
C235 O219 1.278 1_556 S
C235 O222 1.264 . S
C236 Gd169 2.828 . S
C236 O218 1.258 . S
C236 O223 1.252 1_556 S
C236 C237 1.497 . S
C237 C236 1.497 . S
C237 C238 1.395 . S
C237 C239 1.380 1_556 S
C238 C237 1.395 . S
C238 C241 1.398 . S
C238 H248 0.930 . S
C239 C237 1.380 1_554 S
C239 C240 1.391 . S
C239 H249 0.930 . S
C240 C239 1.391 . S
C240 C242 1.387 1_554 S
C241 C238 1.398 . S
C241 C242 1.380 . S
C241 H250 0.930 . S
C242 C240 1.387 1_556 S
C242 C241 1.380 . S
C242 H251 0.930 . S
C243 O220 1.254 . S
C243 O221 1.268 . S
H244 C229 0.930 . S
H245 C230 0.930 . S
H246 C232 0.930 . S
H247 C233 0.930 . S
H248 C238 0.930 . S
H249 C239 0.930 . S
H250 C241 0.930 . S
H251 C242 0.930 . S
Gd252 N283 2.661 . S
Gd252 N289 2.601 . S
Gd252 O296 2.545 . S
Gd252 O297 2.606 . S
Gd252 O299 2.429 . S
Gd252 O300 2.545 . S
Gd252 O301 2.412 . S
Gd252 O303 2.362 . S
Gd252 O304 2.324 . S
Gd252 C311 2.828 . S
Gd253 N262 2.661 . S
Gd253 N266 2.601 . S
Gd253 O297 2.362 . S
Gd253 O298 2.324 . S
Gd253 O302 2.545 . S
Gd253 O303 2.606 . S
Gd253 O305 2.429 . S
Gd253 O306 2.545 . S
Gd253 O307 2.412 . S
Gd253 C320 2.828 . S
C254 C257 1.417 . S
C254 C259 1.431 . S
C254 C260 1.412 . S
C255 C258 1.437 . S
C255 C259 1.317 . S
C255 H274 0.929 . S
C256 C257 1.426 . S
C256 C258 1.413 . S
C256 N266 1.359 . S
C257 C254 1.417 . S
C257 C256 1.426 . S
C257 N262 1.350 . S
C258 C255 1.437 . S
C258 C256 1.413 . S
C258 C268 1.391 . S
C259 C254 1.431 . S
C259 C255 1.317 . S
C259 H270 0.930 . S
C260 C254 1.412 . S
C260 C261 1.355 . S
C260 H272 0.930 . S
C261 C260 1.355 . S
C261 C263 1.402 . S
C261 H273 0.930 . S
N262 Gd253 2.661 . S
N262 C257 1.350 . S
N262 C263 1.307 . S
C263 C261 1.402 . S
C263 N262 1.307 . S
C263 H264 0.930 . S
H264 C263 0.930 . S
C265 N266 1.334 . S
C265 C267 1.394 . S
C265 H269 0.930 . S
N266 Gd253 2.601 . S
N266 C256 1.359 . S
N266 C265 1.334 . S
C267 C265 1.394 . S
C267 C268 1.359 . S
C267 H279 0.930 . S
C268 C258 1.391 . S
C268 C267 1.359 . S
C268 H280 0.929 . S
H269 C265 0.930 . S
H270 C259 0.930 . S
H271 C288 0.930 . S
H272 C260 0.930 . S
H273 C261 0.930 . S
H274 C255 0.929 . S
H275 C293 0.930 . S
H276 C284 0.930 . S
H277 C285 0.930 . S
H278 C309 0.929 . S
H279 C267 0.930 . S
H280 C268 0.929 . S
H281 C310 0.930 . S
H282 C291 0.930 . S
N283 Gd252 2.661 . S
N283 C287 1.350 . S
N283 C288 1.307 . S
C284 H276 0.930 . S
C284 C285 1.355 . S
C284 C286 1.412 . S
C285 H277 0.930 . S
C285 C284 1.355 . S
C285 C288 1.402 . S
C286 C284 1.412 . S
C286 C287 1.417 . S
C286 C310 1.431 . S
C287 N283 1.350 . S
C287 C286 1.417 . S
C287 C290 1.426 . S
C288 H271 0.930 . S
C288 N283 1.307 . S
C288 C285 1.402 . S
N289 Gd252 2.601 . S
N289 C290 1.359 . S
N289 C293 1.334 . S
C290 C287 1.426 . S
C290 N289 1.359 . S
C290 C294 1.413 . S
C291 H282 0.930 . S
C291 C292 1.359 . S
C291 C293 1.394 . S
C292 C291 1.359 . S
C292 C294 1.391 . S
C292 H295 0.929 . S
C293 H275 0.930 . S
C293 N289 1.334 . S
C293 C291 1.394 . S
C294 C290 1.413 . S
C294 C292 1.391 . S
C294 C309 1.437 . S
H295 C292 0.929 . S
O296 Gd252 2.545 . S
O296 C311 1.258 . S
O297 Gd252 2.606 . S
O297 Gd253 2.362 . S
O297 C308 1.284 . S
O298 Gd253 2.324 . S
O298 C318 1.254 . S
O299 Gd252 2.429 . S
O299 C318 1.268 . S
O300 Gd252 2.545 . S
O300 C308 1.250 . S
O301 Gd252 2.412 . S
O301 C311 1.252 . S
O302 Gd253 2.545 . S
O302 C320 1.258 . S
O303 Gd252 2.362 . S
O303 Gd253 2.606 . S
O303 C319 1.284 . S
O304 Gd252 2.324 . S
O304 C327 1.254 . S
O305 Gd253 2.429 . S
O305 C327 1.268 . S
O306 Gd253 2.545 . S
O306 C319 1.250 . S
O307 Gd253 2.412 . S
O307 C320 1.252 . S
C308 O297 1.284 . S
C308 O300 1.250 . S
C309 H278 0.929 . S
C309 C294 1.437 . S
C309 C310 1.317 . S
C310 H281 0.930 . S
C310 C286 1.431 . S
C310 C309 1.317 . S
C311 Gd252 2.828 . S
C311 O296 1.258 . S
C311 O301 1.252 . S
C311 C312 1.497 . S
C312 C311 1.497 . S
C312 C313 1.395 . S
C312 C314 1.380 . S
C313 C312 1.395 . S
C313 C316 1.398 . S
C313 H328 0.930 . S
C314 C312 1.380 . S
C314 C315 1.391 . S
C314 H329 0.930 . S
C315 C314 1.391 . S
C315 C317 1.387 . S
C316 C313 1.398 . S
C316 C317 1.380 . S
C316 H330 0.930 . S
C317 C315 1.387 . S
C317 C316 1.380 . S
C317 H331 0.930 . S
C318 O298 1.254 . S
C318 O299 1.268 . S
C319 O303 1.284 . S
C319 O306 1.250 . S
C320 Gd253 2.828 . S
C320 O302 1.258 . S
C320 O307 1.252 . S
C320 C321 1.497 . S
C321 C320 1.497 . S
C321 C322 1.395 . S
C321 C323 1.380 . S
C322 C321 1.395 . S
C322 C325 1.398 . S
C322 H332 0.930 . S
C323 C321 1.380 . S
C323 C324 1.391 . S
C323 H333 0.930 . S
C324 C323 1.391 . S
C324 C326 1.387 1_565 S
C325 C322 1.398 . S
C325 C326 1.380 1_565 S
C325 H334 0.930 1_565 S
C326 C324 1.387 1_545 S
C326 C325 1.380 1_545 S
C326 H335 0.930 . S
C327 O304 1.254 . S
C327 O305 1.268 . S
H328 C313 0.930 . S
H329 C314 0.930 . S
H330 C316 0.930 . S
H331 C317 0.930 . S
H332 C322 0.930 . S
H333 C323 0.930 . S
H334 C325 0.930 1_545 S
H335 C326 0.930 . S
Gd336 N367 2.661 . S
Gd336 N373 2.601 . S
Gd336 O380 2.545 . S
Gd336 O381 2.606 . S
Gd336 O383 2.429 . S
Gd336 O384 2.545 . S
Gd336 O385 2.412 . S
Gd336 O387 2.362 . S
Gd336 O388 2.324 . S
Gd336 C395 2.828 . S
Gd337 N346 2.661 . S
Gd337 N350 2.601 . S
Gd337 O381 2.362 . S
Gd337 O382 2.324 . S
Gd337 O386 2.545 . S
Gd337 O387 2.606 . S
Gd337 O389 2.429 . S
Gd337 O390 2.545 . S
Gd337 O391 2.412 . S
Gd337 C404 2.828 . S
C338 C341 1.417 . S
C338 C343 1.431 . S
C338 C344 1.412 . S
C339 C342 1.437 . S
C339 C343 1.317 . S
C339 H358 0.929 . S
C340 C341 1.426 . S
C340 C342 1.413 . S
C340 N350 1.359 . S
C341 C338 1.417 . S
C341 C340 1.426 . S
C341 N346 1.350 . S
C342 C339 1.437 . S
C342 C340 1.413 . S
C342 C352 1.391 . S
C343 C338 1.431 . S
C343 C339 1.317 . S
C343 H354 0.930 . S
C344 C338 1.412 . S
C344 C345 1.355 . S
C344 H356 0.930 . S
C345 C344 1.355 . S
C345 C347 1.402 . S
C345 H357 0.930 . S
N346 Gd337 2.661 . S
N346 C341 1.350 . S
N346 C347 1.307 . S
C347 C345 1.402 . S
C347 N346 1.307 . S
C347 H348 0.930 . S
H348 C347 0.930 . S
C349 N350 1.334 . S
C349 C351 1.394 . S
C349 H353 0.930 . S
N350 Gd337 2.601 . S
N350 C340 1.359 . S
N350 C349 1.334 . S
C351 C349 1.394 . S
C351 C352 1.359 . S
C351 H363 0.930 . S
C352 C342 1.391 . S
C352 C351 1.359 . S
C352 H364 0.929 . S
H353 C349 0.930 . S
H354 C343 0.930 . S
H355 C372 0.930 . S
H356 C344 0.930 . S
H357 C345 0.930 . S
H358 C339 0.929 . S
H359 C377 0.930 . S
H360 C368 0.930 . S
H361 C369 0.930 . S
H362 C393 0.929 . S
H363 C351 0.930 . S
H364 C352 0.929 . S
H365 C394 0.930 . S
H366 C375 0.930 . S
N367 Gd336 2.661 . S
N367 C371 1.350 . S
N367 C372 1.307 . S
C368 H360 0.930 . S
C368 C369 1.355 1_545 S
C368 C370 1.412 . S
C369 H361 0.930 . S
C369 C368 1.355 1_565 S
C369 C372 1.402 . S
C370 C368 1.412 . S
C370 C371 1.417 1_545 S
C370 C394 1.431 . S
C371 N367 1.350 . S
C371 C370 1.417 1_565 S
C371 C374 1.426 . S
C372 H355 0.930 . S
C372 N367 1.307 . S
C372 C369 1.402 . S
N373 Gd336 2.601 . S
N373 C374 1.359 . S
N373 C377 1.334 . S
C374 C371 1.426 . S
C374 N373 1.359 . S
C374 C378 1.413 . S
C375 H366 0.930 . S
C375 C376 1.359 . S
C375 C377 1.394 . S
C376 C375 1.359 . S
C376 C378 1.391 . S
C376 H379 0.929 1_565 S
C377 H359 0.930 . S
C377 N373 1.334 . S
C377 C375 1.394 . S
C378 C374 1.413 . S
C378 C376 1.391 . S
C378 C393 1.437 1_565 S
H379 C376 0.929 1_545 S
O380 Gd336 2.545 . S
O380 C395 1.258 . S
O381 Gd336 2.606 . S
O381 Gd337 2.362 . S
O381 C392 1.284 . S
O382 Gd337 2.324 . S
O382 C402 1.254 . S
O383 Gd336 2.429 . S
O383 C402 1.268 . S
O384 Gd336 2.545 . S
O384 C392 1.250 . S
O385 Gd336 2.412 . S
O385 C395 1.252 . S
O386 Gd337 2.545 . S
O386 C404 1.258 . S
O387 Gd336 2.362 . S
O387 Gd337 2.606 . S
O387 C403 1.284 . S
O388 Gd336 2.324 . S
O388 C411 1.254 . S
O389 Gd337 2.429 . S
O389 C411 1.268 . S
O390 Gd337 2.545 . S
O390 C403 1.250 . S
O391 Gd337 2.412 . S
O391 C404 1.252 . S
C392 O381 1.284 . S
C392 O384 1.250 . S
C393 H362 0.929 . S
C393 C378 1.437 1_545 S
C393 C394 1.317 . S
C394 H365 0.930 . S
C394 C370 1.431 . S
C394 C393 1.317 . S
C395 Gd336 2.828 . S
C395 O380 1.258 . S
C395 O385 1.252 . S
C395 C396 1.497 . S
C396 C395 1.497 . S
C396 C397 1.395 . S
C396 C398 1.380 . S
C397 C396 1.395 . S
C397 C400 1.398 . S
C397 H412 0.930 . S
C398 C396 1.380 . S
C398 C399 1.391 . S
C398 H413 0.930 . S
C399 C398 1.391 . S
C399 C401 1.387 . S
C400 C397 1.398 . S
C400 C401 1.380 . S
C400 H414 0.930 . S
C401 C399 1.387 . S
C401 C400 1.380 . S
C401 H415 0.930 . S
C402 O382 1.254 . S
C402 O383 1.268 . S
C403 O387 1.284 . S
C403 O390 1.250 . S
C404 Gd337 2.828 . S
C404 O386 1.258 . S
C404 O391 1.252 . S
C404 C405 1.497 . S
C405 C404 1.497 . S
C405 C406 1.395 . S
C405 C407 1.380 . S
C406 C405 1.395 . S
C406 C409 1.398 . S
C406 H416 0.930 . S
C407 C405 1.380 . S
C407 C408 1.391 . S
C407 H417 0.930 . S
C408 C407 1.391 . S
C408 C410 1.387 . S
C409 C406 1.398 . S
C409 C410 1.380 . S
C409 H418 0.930 . S
C410 C408 1.387 . S
C410 C409 1.380 . S
C410 H419 0.930 1_455 S
C411 O388 1.254 . S
C411 O389 1.268 . S
H412 C397 0.930 . S
H413 C398 0.930 . S
H414 C400 0.930 . S
H415 C401 0.930 . S
H416 C406 0.930 . S
H417 C407 0.930 . S
H418 C409 0.930 . S
H419 C410 0.930 1_655 S
Gd420 N451 2.661 . S
Gd420 N457 2.601 . S
Gd420 O464 2.545 . S
Gd420 O465 2.606 . S
Gd420 O467 2.429 . S
Gd420 O468 2.545 . S
Gd420 O469 2.412 . S
Gd420 O471 2.362 . S
Gd420 O472 2.324 . S
Gd420 C479 2.828 . S
Gd421 N430 2.661 . S
Gd421 N434 2.601 . S
Gd421 O465 2.362 . S
Gd421 O466 2.324 . S
Gd421 O470 2.545 . S
Gd421 O471 2.606 . S
Gd421 O473 2.429 . S
Gd421 O474 2.545 . S
Gd421 O475 2.412 . S
Gd421 C488 2.828 . S
C422 C425 1.417 . S
C422 C427 1.431 . S
C422 C428 1.412 . S
C423 C426 1.437 . S
C423 C427 1.317 . S
C423 H442 0.929 . S
C424 C425 1.426 . S
C424 C426 1.413 . S
C424 N434 1.359 . S
C425 C422 1.417 . S
C425 C424 1.426 . S
C425 N430 1.350 . S
C426 C423 1.437 . S
C426 C424 1.413 . S
C426 C436 1.391 . S
C427 C422 1.431 . S
C427 C423 1.317 . S
C427 H438 0.930 . S
C428 C422 1.412 . S
C428 C429 1.355 . S
C428 H440 0.930 . S
C429 C428 1.355 . S
C429 C431 1.402 . S
C429 H441 0.930 . S
N430 Gd421 2.661 . S
N430 C425 1.350 . S
N430 C431 1.307 . S
C431 C429 1.402 . S
C431 N430 1.307 . S
C431 H432 0.930 . S
H432 C431 0.930 . S
C433 N434 1.334 . S
C433 C435 1.394 . S
C433 H437 0.930 . S
N434 Gd421 2.601 . S
N434 C424 1.359 . S
N434 C433 1.334 . S
C435 C433 1.394 . S
C435 C436 1.359 . S
C435 H447 0.930 . S
C436 C426 1.391 . S
C436 C435 1.359 . S
C436 H448 0.929 . S
H437 C433 0.930 . S
H438 C427 0.930 . S
H439 C456 0.930 . S
H440 C428 0.930 . S
H441 C429 0.930 . S
H442 C423 0.929 . S
H443 C461 0.930 . S
H444 C452 0.930 1_655 S
H445 C453 0.930 . S
H446 C477 0.929 . S
H447 C435 0.930 . S
H448 C436 0.929 . S
H449 C478 0.930 . S
H450 C459 0.930 . S
N451 Gd420 2.661 . S
N451 C455 1.350 . S
N451 C456 1.307 . S
C452 H444 0.930 1_455 S
C452 C453 1.355 . S
C452 C454 1.412 . S
C453 H445 0.930 . S
C453 C452 1.355 . S
C453 C456 1.402 . S
C454 C452 1.412 . S
C454 C455 1.417 . S
C454 C478 1.431 1_455 S
C455 N451 1.350 . S
C455 C454 1.417 . S
C455 C458 1.426 . S
C456 H439 0.930 . S
C456 N451 1.307 . S
C456 C453 1.402 . S
N457 Gd420 2.601 . S
N457 C458 1.359 . S
N457 C461 1.334 . S
C458 C455 1.426 . S
C458 N457 1.359 . S
C458 C462 1.413 . S
C459 H450 0.930 . S
C459 C460 1.359 . S
C459 C461 1.394 . S
C460 C459 1.359 . S
C460 C462 1.391 . S
C460 H463 0.929 . S
C461 H443 0.930 . S
C461 N457 1.334 . S
C461 C459 1.394 . S
C462 C458 1.413 . S
C462 C460 1.391 . S
C462 C477 1.437 1_455 S
H463 C460 0.929 . S
O464 Gd420 2.545 . S
O464 C479 1.258 . S
O465 Gd420 2.606 . S
O465 Gd421 2.362 . S
O465 C476 1.284 . S
O466 Gd421 2.324 . S
O466 C486 1.254 . S
O467 Gd420 2.429 . S
O467 C486 1.268 . S
O468 Gd420 2.545 . S
O468 C476 1.250 . S
O469 Gd420 2.412 . S
O469 C479 1.252 . S
O470 Gd421 2.545 . S
O470 C488 1.258 . S
O471 Gd420 2.362 . S
O471 Gd421 2.606 . S
O471 C487 1.284 . S
O472 Gd420 2.324 . S
O472 C495 1.254 . S
O473 Gd421 2.429 . S
O473 C495 1.268 . S
O474 Gd421 2.545 . S
O474 C487 1.250 . S
O475 Gd421 2.412 . S
O475 C488 1.252 . S
C476 O465 1.284 . S
C476 O468 1.250 . S
C477 H446 0.929 . S
C477 C462 1.437 1_655 S
C477 C478 1.317 . S
C478 H449 0.930 . S
C478 C454 1.431 1_655 S
C478 C477 1.317 . S
C479 Gd420 2.828 . S
C479 O464 1.258 . S
C479 O469 1.252 . S
C479 C480 1.497 . S
C480 C479 1.497 . S
C480 C481 1.395 . S
C480 C482 1.380 . S
C481 C480 1.395 . S
C481 C484 1.398 . S
C481 H496 0.930 . S
C482 C480 1.380 . S
C482 C483 1.391 . S
C482 H497 0.930 . S
C483 C482 1.391 . S
C483 C485 1.387 . S
C484 C481 1.398 . S
C484 C485 1.380 . S
C484 H498 0.930 . S
C485 C483 1.387 . S
C485 C484 1.380 . S
C485 H499 0.930 . S
C486 O466 1.254 . S
C486 O467 1.268 . S
C487 O471 1.284 . S
C487 O474 1.250 . S
C488 Gd421 2.828 . S
C488 O470 1.258 . S
C488 O475 1.252 . S
C488 C489 1.497 . S
C489 C488 1.497 . S
C489 C490 1.395 . S
C489 C491 1.380 . S
C490 C489 1.395 . S
C490 C493 1.398 . S
C490 H500 0.930 . S
C491 C489 1.380 . S
C491 C492 1.391 . S
C491 H501 0.930 . S
C492 C491 1.391 . S
C492 C494 1.387 . S
C493 C490 1.398 . S
C493 C494 1.380 . S
C493 H502 0.930 . S
C494 C492 1.387 . S
C494 C493 1.380 . S
C494 H503 0.930 . S
C495 O472 1.254 . S
C495 O473 1.268 . S
H496 C481 0.930 . S
H497 C482 0.930 . S
H498 C484 0.930 . S
H499 C485 0.930 . S
H500 C490 0.930 . S
H501 C491 0.930 . S
H502 C493 0.930 . S
H503 C494 0.930 . S
Gd504 N535 2.661 . S
Gd504 N541 2.601 . S
Gd504 O548 2.545 . S
Gd504 O549 2.606 . S
Gd504 O551 2.429 . S
Gd504 O552 2.545 . S
Gd504 O553 2.412 . S
Gd504 O555 2.362 . S
Gd504 O556 2.324 . S
Gd504 C563 2.828 . S
Gd505 N514 2.661 . S
Gd505 N518 2.601 . S
Gd505 O549 2.362 . S
Gd505 O550 2.324 . S
Gd505 O554 2.545 . S
Gd505 O555 2.606 . S
Gd505 O557 2.429 . S
Gd505 O558 2.545 . S
Gd505 O559 2.412 . S
Gd505 C572 2.828 . S
C506 C509 1.417 . S
C506 C511 1.431 . S
C506 C512 1.412 . S
C507 C510 1.437 . S
C507 C511 1.317 . S
C507 H526 0.929 . S
C508 C509 1.426 . S
C508 C510 1.413 . S
C508 N518 1.359 . S
C509 C506 1.417 . S
C509 C508 1.426 . S
C509 N514 1.350 . S
C510 C507 1.437 . S
C510 C508 1.413 . S
C510 C520 1.391 . S
C511 C506 1.431 . S
C511 C507 1.317 . S
C511 H522 0.930 . S
C512 C506 1.412 . S
C512 C513 1.355 . S
C512 H524 0.930 . S
C513 C512 1.355 . S
C513 C515 1.402 . S
C513 H525 0.930 . S
N514 Gd505 2.661 . S
N514 C509 1.350 . S
N514 C515 1.307 . S
C515 C513 1.402 . S
C515 N514 1.307 . S
C515 H516 0.930 . S
H516 C515 0.930 . S
C517 N518 1.334 . S
C517 C519 1.394 . S
C517 H521 0.930 . S
N518 Gd505 2.601 . S
N518 C508 1.359 . S
N518 C517 1.334 . S
C519 C517 1.394 . S
C519 C520 1.359 . S
C519 H531 0.930 . S
C520 C510 1.391 . S
C520 C519 1.359 . S
C520 H532 0.929 . S
H521 C517 0.930 . S
H522 C511 0.930 . S
H523 C540 0.930 . S
H524 C512 0.930 . S
H525 C513 0.930 . S
H526 C507 0.929 . S
H527 C545 0.930 . S
H528 C536 0.930 . S
H529 C537 0.930 . S
H530 C561 0.929 1_565 S
H531 C519 0.930 . S
H532 C520 0.929 . S
H533 C562 0.930 . S
H534 C543 0.930 . S
N535 Gd504 2.661 . S
N535 C539 1.350 . S
N535 C540 1.307 . S
C536 H528 0.930 . S
C536 C537 1.355 . S
C536 C538 1.412 . S
C537 H529 0.930 . S
C537 C536 1.355 . S
C537 C540 1.402 . S
C538 C536 1.412 . S
C538 C539 1.417 . S
C538 C562 1.431 . S
C539 N535 1.350 . S
C539 C538 1.417 . S
C539 C542 1.426 . S
C540 H523 0.930 . S
C540 N535 1.307 . S
C540 C537 1.402 . S
N541 Gd504 2.601 . S
N541 C542 1.359 . S
N541 C545 1.334 . S
C542 C539 1.426 . S
C542 N541 1.359 . S
C542 C546 1.413 . S
C543 H534 0.930 . S
C543 C544 1.359 . S
C543 C545 1.394 . S
C544 C543 1.359 . S
C544 C546 1.391 . S
C544 H547 0.929 . S
C545 H527 0.930 . S
C545 N541 1.334 . S
C545 C543 1.394 . S
C546 C542 1.413 . S
C546 C544 1.391 . S
C546 C561 1.437 . S
H547 C544 0.929 . S
O548 Gd504 2.545 . S
O548 C563 1.258 . S
O549 Gd504 2.606 . S
O549 Gd505 2.362 . S
O549 C560 1.284 . S
O550 Gd505 2.324 . S
O550 C570 1.254 . S
O551 Gd504 2.429 . S
O551 C570 1.268 . S
O552 Gd504 2.545 . S
O552 C560 1.250 . S
O553 Gd504 2.412 . S
O553 C563 1.252 . S
O554 Gd505 2.545 . S
O554 C572 1.258 . S
O555 Gd504 2.362 . S
O555 Gd505 2.606 . S
O555 C571 1.284 . S
O556 Gd504 2.324 . S
O556 C579 1.254 . S
O557 Gd505 2.429 . S
O557 C579 1.268 . S
O558 Gd505 2.545 . S
O558 C571 1.250 . S
O559 Gd505 2.412 . S
O559 C572 1.252 . S
C560 O549 1.284 . S
C560 O552 1.250 . S
C561 H530 0.929 1_545 S
C561 C546 1.437 . S
C561 C562 1.317 . S
C562 H533 0.930 . S
C562 C538 1.431 . S
C562 C561 1.317 . S
C563 Gd504 2.828 . S
C563 O548 1.258 . S
C563 O553 1.252 . S
C563 C564 1.497 . S
C564 C563 1.497 . S
C564 C565 1.395 1_545 S
C564 C566 1.380 1_545 S
C565 C564 1.395 1_565 S
C565 C568 1.398 . S
C565 H580 0.930 . S
C566 C564 1.380 1_565 S
C566 C567 1.391 . S
C566 H581 0.930 1_565 S
C567 C566 1.391 . S
C567 C569 1.387 . S
C568 C565 1.398 . S
C568 C569 1.380 . S
C568 H582 0.930 . S
C569 C567 1.387 . S
C569 C568 1.380 . S
C569 H583 0.930 . S
C570 O550 1.254 . S
C570 O551 1.268 . S
C571 O555 1.284 . S
C571 O558 1.250 . S
C572 Gd505 2.828 . S
C572 O554 1.258 . S
C572 O559 1.252 . S
C572 C573 1.497 . S
C573 C572 1.497 . S
C573 C574 1.395 . S
C573 C575 1.380 . S
C574 C573 1.395 . S
C574 C577 1.398 . S
C574 H584 0.930 . S
C575 C573 1.380 . S
C575 C576 1.391 . S
C575 H585 0.930 . S
C576 C575 1.391 . S
C576 C578 1.387 . S
C577 C574 1.398 . S
C577 C578 1.380 . S
C577 H586 0.930 . S
C578 C576 1.387 . S
C578 C577 1.380 . S
C578 H587 0.930 . S
C579 O556 1.254 . S
C579 O557 1.268 . S
H580 C565 0.930 . S
H581 C566 0.930 1_545 S
H582 C568 0.930 . S
H583 C569 0.930 . S
H584 C574 0.930 . S
H585 C575 0.930 . S
H586 C577 0.930 . S
H587 C578 0.930 . S
Gd588 N619 2.661 . S
Gd588 N625 2.601 . S
Gd588 O632 2.545 . S
Gd588 O633 2.606 . S
Gd588 O635 2.429 . S
Gd588 O636 2.545 . S
Gd588 O637 2.412 . S
Gd588 O639 2.362 . S
Gd588 O640 2.324 . S
Gd588 C647 2.828 . S
Gd589 N598 2.661 . S
Gd589 N602 2.601 . S
Gd589 O633 2.362 . S
Gd589 O634 2.324 . S
Gd589 O638 2.545 . S
Gd589 O639 2.606 . S
Gd589 O641 2.429 . S
Gd589 O642 2.545 . S
Gd589 O643 2.412 . S
Gd589 C656 2.828 . S
C590 C593 1.417 . S
C590 C595 1.431 . S
C590 C596 1.412 . S
C591 C594 1.437 . S
C591 C595 1.317 . S
C591 H610 0.929 . S
C592 C593 1.426 . S
C592 C594 1.413 . S
C592 N602 1.359 . S
C593 C590 1.417 . S
C593 C592 1.426 . S
C593 N598 1.350 . S
C594 C591 1.437 . S
C594 C592 1.413 . S
C594 C604 1.391 . S
C595 C590 1.431 . S
C595 C591 1.317 . S
C595 H606 0.930 . S
C596 C590 1.412 . S
C596 C597 1.355 . S
C596 H608 0.930 . S
C597 C596 1.355 . S
C597 C599 1.402 . S
C597 H609 0.930 . S
N598 Gd589 2.661 . S
N598 C593 1.350 . S
N598 C599 1.307 . S
C599 C597 1.402 . S
C599 N598 1.307 . S
C599 H600 0.930 . S
H600 C599 0.930 . S
C601 N602 1.334 . S
C601 C603 1.394 . S
C601 H605 0.930 . S
N602 Gd589 2.601 . S
N602 C592 1.359 . S
N602 C601 1.334 . S
C603 C601 1.394 . S
C603 C604 1.359 . S
C603 H615 0.930 . S
C604 C594 1.391 . S
C604 C603 1.359 . S
C604 H616 0.929 . S
H605 C601 0.930 . S
H606 C595 0.930 . S
H607 C624 0.930 . S
H608 C596 0.930 . S
H609 C597 0.930 . S
H610 C591 0.929 . S
H611 C629 0.930 . S
H612 C620 0.930 . S
H613 C621 0.930 . S
H614 C645 0.929 . S
H615 C603 0.930 . S
H616 C604 0.929 . S
H617 C646 0.930 . S
H618 C627 0.930 . S
N619 Gd588 2.661 . S
N619 C623 1.350 . S
N619 C624 1.307 . S
C620 H612 0.930 . S
C620 C621 1.355 . S
C620 C622 1.412 . S
C621 H613 0.930 . S
C621 C620 1.355 . S
C621 C624 1.402 . S
C622 C620 1.412 . S
C622 C623 1.417 . S
C622 C646 1.426 1_655 S
C623 N619 1.350 . S
C623 C622 1.417 . S
C623 C626 1.426 . S
C624 H607 0.930 . S
C624 N619 1.307 . S
C624 C621 1.402 . S
N625 Gd588 2.601 . S
N625 C626 1.359 . S
N625 C629 1.334 . S
C626 C623 1.426 . S
C626 N625 1.359 . S
C626 C630 1.413 . S
C627 H618 0.930 . S
C627 C628 1.359 . S
C627 C629 1.394 . S
C628 C627 1.359 . S
C628 C630 1.391 . S
C628 H631 0.929 1_655 S
C629 H611 0.930 . S
C629 N625 1.334 . S
C629 C627 1.394 . S
C630 C626 1.413 . S
C630 C628 1.391 . S
C630 C645 1.437 1_655 S
H631 C628 0.929 1_455 S
O632 Gd588 2.545 . S
O632 C647 1.258 . S
O633 Gd588 2.606 . S
O633 Gd589 2.362 . S
O633 C644 1.284 . S
O634 Gd589 2.324 . S
O634 C654 1.254 . S
O635 Gd588 2.429 . S
O635 C654 1.268 . S
O636 Gd588 2.545 . S
O636 C644 1.250 . S
O637 Gd588 2.412 . S
O637 C647 1.252 . S
O638 Gd589 2.545 . S
O638 C656 1.258 . S
O639 Gd588 2.362 . S
O639 Gd589 2.606 . S
O639 C655 1.284 . S
O640 Gd588 2.324 . S
O640 C663 1.254 . S
O641 Gd589 2.429 . S
O641 C663 1.268 . S
O642 Gd589 2.545 . S
O642 C655 1.250 . S
O643 Gd589 2.412 . S
O643 C656 1.252 . S
C644 O633 1.284 . S
C644 O636 1.250 . S
C645 H614 0.929 . S
C645 C630 1.437 1_455 S
C645 C646 1.324 . S
C646 H617 0.930 . S
C646 C622 1.426 1_455 S
C646 C645 1.324 . S
C647 Gd588 2.828 . S
C647 O632 1.258 . S
C647 O637 1.252 . S
C647 C648 1.497 1_655 S
C648 C647 1.497 1_455 S
C648 C649 1.395 . S
C648 C650 1.380 . S
C649 C648 1.395 . S
C649 C652 1.398 . S
C649 H664 0.930 . S
C650 C648 1.380 . S
C650 C651 1.391 . S
C650 H665 0.930 . S
C651 C650 1.391 . S
C651 C653 1.387 . S
C652 C649 1.398 . S
C652 C653 1.380 . S
C652 H666 0.930 . S
C653 C651 1.387 . S
C653 C652 1.380 . S
C653 H667 0.930 . S
C654 O634 1.254 . S
C654 O635 1.268 . S
C655 O639 1.284 . S
C655 O642 1.250 . S
C656 Gd589 2.828 . S
C656 O638 1.258 . S
C656 O643 1.252 . S
C656 C657 1.497 . S
C657 C656 1.497 . S
C657 C658 1.395 . S
C657 C659 1.380 . S
C658 C657 1.395 . S
C658 C661 1.398 . S
C658 H668 0.930 . S
C659 C657 1.380 . S
C659 C660 1.391 . S
C659 H669 0.930 . S
C660 C659 1.391 . S
C660 C662 1.387 . S
C661 C658 1.398 . S
C661 C662 1.380 . S
C661 H670 0.930 . S
C662 C660 1.387 . S
C662 C661 1.380 . S
C662 H671 0.930 . S
C663 O640 1.254 . S
C663 O641 1.268 . S
H664 C649 0.930 . S
H665 C650 0.930 . S
H666 C652 0.930 . S
H667 C653 0.930 . S
H668 C658 0.930 . S
H669 C659 0.930 . S
H670 C661 0.930 . S
H671 C662 0.930 . S
Gd672 N703 2.661 . S
Gd672 N709 2.601 . S
Gd672 O716 2.545 . S
Gd672 O717 2.606 . S
Gd672 O719 2.429 . S
Gd672 O720 2.545 . S
Gd672 O721 2.412 . S
Gd672 O723 2.362 . S
Gd672 O724 2.324 . S
Gd672 C731 2.828 . S
Gd673 N682 2.661 . S
Gd673 N686 2.601 . S
Gd673 O717 2.362 . S
Gd673 O718 2.324 . S
Gd673 O722 2.545 . S
Gd673 O723 2.606 . S
Gd673 O725 2.429 . S
Gd673 O726 2.545 . S
Gd673 O727 2.412 . S
Gd673 C740 2.828 . S
C674 C677 1.417 . S
C674 C679 1.431 . S
C674 C680 1.412 . S
C675 C678 1.437 . S
C675 C679 1.317 . S
C675 H694 0.929 . S
C676 C677 1.426 . S
C676 C678 1.413 . S
C676 N686 1.359 . S
C677 C674 1.417 . S
C677 C676 1.426 . S
C677 N682 1.350 . S
C678 C675 1.437 . S
C678 C676 1.413 . S
C678 C688 1.391 . S
C679 C674 1.431 . S
C679 C675 1.317 . S
C679 H690 0.930 . S
C680 C674 1.412 . S
C680 C681 1.355 . S
C680 H692 0.930 . S
C681 C680 1.355 . S
C681 C683 1.402 . S
C681 H693 0.930 . S
N682 Gd673 2.661 . S
N682 C677 1.350 . S
N682 C683 1.307 . S
C683 C681 1.402 . S
C683 N682 1.307 . S
C683 H684 0.930 . S
H684 C683 0.930 . S
C685 N686 1.334 . S
C685 C687 1.394 . S
C685 H689 0.930 . S
N686 Gd673 2.601 . S
N686 C676 1.359 . S
N686 C685 1.334 . S
C687 C685 1.394 . S
C687 C688 1.359 . S
C687 H699 0.930 . S
C688 C678 1.391 . S
C688 C687 1.359 . S
C688 H700 0.929 . S
H689 C685 0.930 . S
H690 C679 0.930 . S
H691 C708 0.930 . S
H692 C680 0.930 . S
H693 C681 0.930 . S
H694 C675 0.929 . S
H695 C713 0.930 . S
H696 C704 0.930 . S
H697 C705 0.930 . S
H698 C729 0.929 . S
H699 C687 0.930 . S
H700 C688 0.929 . S
H701 C730 0.930 . S
H702 C711 0.930 . S
N703 Gd672 2.661 . S
N703 C707 1.350 . S
N703 C708 1.307 . S
C704 H696 0.930 . S
C704 C705 1.355 . S
C704 C706 1.412 . S
C705 H697 0.930 . S
C705 C704 1.355 . S
C705 C708 1.402 . S
C706 C704 1.412 . S
C706 C707 1.417 . S
C706 C730 1.431 . S
C707 N703 1.350 . S
C707 C706 1.417 . S
C707 C710 1.426 . S
C708 H691 0.930 . S
C708 N703 1.307 . S
C708 C705 1.402 . S
N709 Gd672 2.601 . S
N709 C710 1.359 . S
N709 C713 1.334 . S
C710 C707 1.426 . S
C710 N709 1.359 . S
C710 C714 1.413 . S
C711 H702 0.930 . S
C711 C712 1.359 . S
C711 C713 1.394 . S
C712 C711 1.359 . S
C712 C714 1.391 . S
C712 H715 0.929 . S
C713 H695 0.930 . S
C713 N709 1.334 . S
C713 C711 1.394 . S
C714 C710 1.413 . S
C714 C712 1.391 . S
C714 C729 1.437 . S
H715 C712 0.929 . S
O716 Gd672 2.545 . S
O716 C731 1.258 . S
O717 Gd672 2.606 . S
O717 Gd673 2.362 . S
O717 C728 1.284 . S
O718 Gd673 2.324 . S
O718 C738 1.254 . S
O719 Gd672 2.429 . S
O719 C738 1.268 . S
O720 Gd672 2.545 . S
O720 C728 1.250 . S
O721 Gd672 2.412 . S
O721 C731 1.252 . S
O722 Gd673 2.545 . S
O722 C740 1.258 . S
O723 Gd672 2.362 . S
O723 Gd673 2.606 . S
O723 C739 1.284 . S
O724 Gd672 2.324 . S
O724 C747 1.254 . S
O725 Gd673 2.429 . S
O725 C747 1.268 . S
O726 Gd673 2.545 . S
O726 C739 1.250 . S
O727 Gd673 2.412 . S
O727 C740 1.252 . S
C728 O717 1.284 . S
C728 O720 1.250 . S
C729 H698 0.929 . S
C729 C714 1.437 . S
C729 C730 1.317 . S
C730 H701 0.930 . S
C730 C706 1.431 . S
C730 C729 1.317 . S
C731 Gd672 2.828 . S
C731 O716 1.258 . S
C731 O721 1.252 . S
C731 C732 1.497 . S
C732 C731 1.497 . S
C732 C733 1.395 . S
C732 C734 1.380 . S
C733 C732 1.395 . S
C733 C736 1.398 . S
C733 H748 0.930 . S
C734 C732 1.380 . S
C734 C735 1.391 . S
C734 H749 0.930 . S
C735 C734 1.391 . S
C735 C737 1.387 . S
C736 C733 1.398 . S
C736 C737 1.380 . S
C736 H750 0.930 . S
C737 C735 1.387 . S
C737 C736 1.380 . S
C737 H751 0.930 . S
C738 O718 1.254 . S
C738 O719 1.268 . S
C739 O723 1.284 . S
C739 O726 1.250 . S
C740 Gd673 2.828 . S
C740 O722 1.258 . S
C740 O727 1.252 . S
C740 C741 1.497 . S
C741 C740 1.497 . S
C741 C742 1.395 . S
C741 C743 1.380 . S
C742 C741 1.395 . S
C742 C745 1.398 . S
C742 H752 0.930 . S
C743 C741 1.380 . S
C743 C744 1.391 . S
C743 H753 0.930 . S
C744 C743 1.391 . S
C744 C746 1.387 . S
C745 C742 1.398 . S
C745 C746 1.380 . S
C745 H754 0.930 . S
C746 C744 1.387 . S
C746 C745 1.380 . S
C746 H755 0.930 . S
C747 O724 1.254 . S
C747 O725 1.268 . S
H748 C733 0.930 . S
H749 C734 0.930 . S
H750 C736 0.930 . S
H751 C737 0.930 . S
H752 C742 0.930 . S
H753 C743 0.930 . S
H754 C745 0.930 . S
H755 C746 0.930 . S
H756 C764 0.929 . S
H757 C766 0.930 . S
H758 C768 0.930 . S
H759 C771 0.929 . S
H760 C774 0.930 . S
H761 C776 0.960 . S
H762 C776 0.960 1_554 S
H763 C776 0.960 . S
C764 H756 0.929 . S
C764 C765 1.377 . S
C764 C766 1.384 . S
C765 C764 1.377 . S
C765 C771 1.390 1_554 S
C766 H757 0.930 . S
C766 C764 1.384 . S
C766 C767 1.372 . S
C767 C766 1.372 . S
C767 C768 1.400 1_554 S
C767 C772 1.490 . S
C768 H758 0.930 . S
C768 C767 1.400 1_556 S
C768 C771 1.386 . S
H769 C785 0.930 . S
H770 C786 0.931 . S
C771 H759 0.929 . S
C771 C765 1.390 1_556 S
C771 C768 1.386 . S
C772 C767 1.490 . S
C772 C774 1.395 . S
C772 C775 1.403 . S
H773 C779 0.913 1_556 S
C774 H760 0.930 . S
C774 C772 1.395 . S
C774 C777 1.403 . S
C775 C772 1.403 . S
C775 C776 1.524 1_554 S
C775 C779 1.402 . S
C776 H761 0.960 . S
C776 H762 0.960 1_556 S
C776 H763 0.960 . S
C776 C775 1.524 1_556 S
C777 C774 1.403 . S
C777 C778 1.392 . S
C777 C781 1.495 . S
C778 C777 1.392 . S
C778 C779 1.401 . S
C778 C780 1.478 . S
C779 H773 0.913 1_554 S
C779 C775 1.402 . S
C779 C778 1.401 . S
C780 C778 1.478 . S
C780 C782 1.381 . S
C780 C786 1.383 1_554 S
C781 C777 1.495 . S
C781 H787 0.959 . S
C781 H788 0.961 . S
C781 H789 0.960 . S
C782 C780 1.381 . S
C782 C783 1.394 . S
C782 H790 0.930 . S
C783 C782 1.394 . S
C783 C784 1.383 . S
C783 H791 0.929 . S
C784 C783 1.383 . S
C784 C785 1.377 1_554 S
C785 H769 0.930 . S
C785 C784 1.377 1_556 S
C785 C786 1.379 . S
C786 H770 0.931 . S
C786 C780 1.383 1_556 S
C786 C785 1.379 . S
H787 C781 0.959 . S
H788 C781 0.961 . S
H789 C781 0.960 . S
H790 C782 0.930 . S
H791 C783 0.929 . S
H792 C800 0.929 . S
H793 C802 0.930 . S
H794 C804 0.930 . S
H795 C807 0.929 . S
H796 C810 0.930 . S
H797 C812 0.960 . S
H798 C812 0.960 1_554 S
H799 C812 0.960 . S
C800 H792 0.929 . S
C800 C801 1.377 . S
C800 C802 1.384 . S
C801 C800 1.377 . S
C801 C807 1.390 1_554 S
C802 H793 0.930 . S
C802 C800 1.384 . S
C802 C803 1.372 . S
C803 C802 1.372 . S
C803 C804 1.400 1_554 S
C803 C808 1.490 . S
C804 H794 0.930 . S
C804 C803 1.400 1_556 S
C804 C807 1.386 . S
H805 C821 0.930 . S
H806 C822 0.931 . S
C807 H795 0.929 . S
C807 C801 1.390 1_556 S
C807 C804 1.386 . S
C808 C803 1.490 . S
C808 C810 1.395 . S
C808 C811 1.420 . S
H809 C815 0.931 1_556 S
C810 H796 0.930 . S
C810 C808 1.395 . S
C810 C813 1.403 . S
C811 C808 1.420 . S
C811 C812 1.509 1_554 S
C811 C815 1.399 . S
C812 H797 0.960 . S
C812 H798 0.960 1_556 S
C812 H799 0.960 . S
C812 C811 1.509 1_556 S
C813 C810 1.403 . S
C813 C814 1.392 . S
C813 C817 1.495 . S
C814 C813 1.392 . S
C814 C815 1.385 . S
C814 C816 1.478 . S
C815 H809 0.931 1_554 S
C815 C811 1.399 . S
C815 C814 1.385 . S
C816 C814 1.478 . S
C816 C818 1.381 . S
C816 C822 1.383 1_554 S
C817 C813 1.495 . S
C817 H823 0.959 . S
C817 H824 0.961 . S
C817 H825 0.960 . S
C818 C816 1.381 . S
C818 C819 1.394 . S
C818 H826 0.930 . S
C819 C818 1.394 . S
C819 C820 1.383 . S
C819 H827 0.929 . S
C820 C819 1.383 . S
C820 C821 1.377 1_554 S
C821 H805 0.930 . S
C821 C820 1.377 1_556 S
C821 C822 1.379 . S
C822 H806 0.931 . S
C822 C816 1.383 1_556 S
C822 C821 1.379 . S
H823 C817 0.959 . S
H824 C817 0.961 . S
H825 C817 0.960 . S
H826 C818 0.930 . S
H827 C819 0.929 . S
H828 C836 0.929 . S
H829 C838 0.930 . S
H830 C840 0.929 . S
H831 C843 0.929 . S
H832 C846 0.930 . S
H833 C848 0.960 . S
H834 C848 0.960 . S
H835 C848 0.960 . S
C836 H828 0.929 . S
C836 C837 1.377 . S
C836 C838 1.384 . S
C837 C836 1.377 . S
C837 C843 1.390 1_554 S
C838 H829 0.930 . S
C838 C836 1.384 . S
C838 C839 1.372 . S
C839 C838 1.372 . S
C839 C840 1.401 1_554 S
C839 C844 1.490 . S
C840 H830 0.929 . S
C840 C839 1.401 1_556 S
C840 C843 1.385 . S
H841 C857 0.926 1_556 S
H842 C858 0.931 1_556 S
C843 H831 0.929 . S
C843 C837 1.390 1_556 S
C843 C840 1.385 . S
C844 C839 1.490 . S
C844 C846 1.395 1_554 S
C844 C847 1.403 . S
H845 C851 0.930 . S
C846 H832 0.930 . S
C846 C844 1.395 1_556 S
C846 C849 1.403 . S
C847 C844 1.403 . S
C847 C848 1.524 . S
C847 C851 1.400 . S
C848 H833 0.960 . S
C848 H834 0.960 . S
C848 H835 0.960 . S
C848 C847 1.524 . S
C849 C846 1.403 . S
C849 C850 1.392 1_556 S
C849 C853 1.495 . S
C850 C849 1.392 1_554 S
C850 C851 1.385 . S
C850 C852 1.478 . S
C851 H845 0.930 . S
C851 C847 1.400 . S
C851 C850 1.385 . S
C852 C850 1.478 . S
C852 C854 1.381 . S
C852 C858 1.383 . S
C853 C849 1.495 . S
C853 H859 0.959 . S
C853 H860 0.961 . S
C853 H861 0.960 . S
C854 C852 1.381 . S
C854 C855 1.394 . S
C854 H862 0.930 . S
C855 C854 1.394 . S
C855 C856 1.383 . S
C855 H863 0.929 . S
C856 C855 1.383 . S
C856 C857 1.377 . S
C857 H841 0.926 1_554 S
C857 C856 1.377 . S
C857 C858 1.379 . S
C858 H842 0.931 1_554 S
C858 C852 1.383 . S
C858 C857 1.379 . S
H859 C853 0.959 . S
H860 C853 0.961 . S
H861 C853 0.960 . S
H862 C854 0.930 . S
H863 C855 0.929 . S
H864 C872 0.929 . S
H865 C874 0.930 . S
H866 C876 0.930 . S
H867 C879 0.929 . S
H868 C882 0.930 . S
H869 C884 0.960 . S
H870 C884 0.960 . S
H871 C884 0.960 . S
C872 H864 0.929 . S
C872 C873 1.377 1_554 S
C872 C874 1.384 . S
C873 C872 1.377 1_556 S
C873 C879 1.390 . S
C874 H865 0.930 . S
C874 C872 1.384 . S
C874 C875 1.372 1_554 S
C875 C874 1.372 1_556 S
C875 C876 1.400 . S
C875 C880 1.490 . S
C876 H866 0.930 . S
C876 C875 1.400 . S
C876 C879 1.386 . S
H877 C893 0.930 . S
H878 C894 0.931 . S
C879 H867 0.929 . S
C879 C873 1.390 . S
C879 C876 1.386 . S
C880 C875 1.490 . S
C880 C882 1.395 1_556 S
C880 C883 1.403 . S
H881 C887 0.930 . S
C882 H868 0.930 . S
C882 C880 1.395 1_554 S
C882 C885 1.403 . S
C883 C880 1.403 . S
C883 C884 1.524 . S
C883 C887 1.400 . S
C884 H869 0.960 . S
C884 H870 0.960 . S
C884 H871 0.960 . S
C884 C883 1.524 . S
C885 C882 1.403 . S
C885 C886 1.392 . S
C885 C889 1.495 . S
C886 C885 1.392 . S
C886 C887 1.385 1_554 S
C886 C888 1.478 . S
C887 H881 0.930 . S
C887 C883 1.400 . S
C887 C886 1.385 1_556 S
C888 C886 1.478 . S
C888 C890 1.381 . S
C888 C894 1.383 1_554 S
C889 C885 1.495 . S
C889 H895 0.959 . S
C889 H896 0.961 . S
C889 H897 0.960 . S
C890 C888 1.381 . S
C890 C891 1.394 . S
C890 H898 0.930 . S
C891 C890 1.394 . S
C891 C892 1.383 . S
C891 H899 0.929 . S
C892 C891 1.383 . S
C892 C893 1.377 1_554 S
C893 H877 0.930 . S
C893 C892 1.377 1_556 S
C893 C894 1.379 . S
C894 H878 0.931 . S
C894 C888 1.383 1_556 S
C894 C893 1.379 . S
H895 C889 0.959 . S
H896 C889 0.961 . S
H897 C889 0.960 . S
H898 C890 0.930 . S
H899 C891 0.929 . S
H900 C908 0.929 . S
H901 C910 0.930 . S
H902 C912 0.930 . S
H903 C915 0.930 . S
H904 C918 0.930 . S
H905 C920 0.960 . S
H906 C920 0.960 . S
H907 C920 0.960 . S
C908 H900 0.929 . S
C908 C909 1.377 . S
C908 C910 1.384 . S
C909 C908 1.377 . S
C909 C915 1.389 1_554 S
C910 H901 0.930 . S
C910 C908 1.384 . S
C910 C911 1.371 1_554 S
C911 C910 1.371 1_556 S
C911 C912 1.400 . S
C911 C916 1.491 . S
C912 H902 0.930 . S
C912 C911 1.400 . S
C912 C915 1.386 . S
H913 C929 0.930 . S
H914 C930 0.931 . S
C915 H903 0.930 . S
C915 C909 1.389 1_556 S
C915 C912 1.386 . S
C916 C911 1.491 . S
C916 C918 1.395 . S
C916 C919 1.403 1_556 S
H917 C923 0.930 . S
C918 H904 0.930 . S
C918 C916 1.395 . S
C918 C921 1.403 . S
C919 C916 1.403 1_554 S
C919 C920 1.524 . S
C919 C923 1.400 . S
C920 H905 0.960 . S
C920 H906 0.960 . S
C920 H907 0.960 . S
C920 C919 1.524 . S
C921 C918 1.403 . S
C921 C922 1.392 . S
C921 C925 1.495 . S
C922 C921 1.392 . S
C922 C923 1.385 1_556 S
C922 C924 1.478 . S
C923 H917 0.930 . S
C923 C919 1.400 . S
C923 C922 1.385 1_554 S
C924 C922 1.478 . S
C924 C926 1.381 . S
C924 C930 1.383 . S
C925 C921 1.495 . S
C925 H931 0.959 . S
C925 H932 0.961 . S
C925 H933 0.960 . S
C926 C924 1.381 . S
C926 C927 1.394 . S
C926 H934 0.930 . S
C927 C926 1.394 . S
C927 C928 1.383 . S
C927 H935 0.929 . S
C928 C927 1.383 . S
C928 C929 1.377 . S
C929 H913 0.930 . S
C929 C928 1.377 . S
C929 C930 1.379 . S
C930 H914 0.931 . S
C930 C924 1.383 . S
C930 C929 1.379 . S
H931 C925 0.959 . S
H932 C925 0.961 . S
H933 C925 0.960 . S
H934 C926 0.930 . S
H935 C927 0.929 . S
H936 C944 0.929 . S
H937 C946 0.930 . S
H938 C948 0.930 . S
H939 C951 0.929 . S
H940 C954 0.930 . S
H941 C956 0.960 . S
H942 C956 0.960 . S
H943 C956 0.960 . S
C944 H936 0.929 . S
C944 C945 1.377 . S
C944 C946 1.384 . S
C945 C944 1.377 . S
C945 C951 1.390 1_554 S
C946 H937 0.930 . S
C946 C944 1.384 . S
C946 C947 1.373 . S
C947 C946 1.373 . S
C947 C948 1.399 1_554 S
C947 C952 1.490 1_554 S
C948 H938 0.930 . S
C948 C947 1.399 1_556 S
C948 C951 1.386 . S
H949 C965 0.930 . S
H950 C966 0.931 . S
C951 H939 0.929 . S
C951 C945 1.390 1_556 S
C951 C948 1.386 . S
C952 C947 1.490 1_556 S
C952 C954 1.395 . S
C952 C955 1.403 1_556 S
H953 C959 0.930 . S
C954 H940 0.930 . S
C954 C952 1.395 . S
C954 C957 1.403 . S
C955 C952 1.403 1_554 S
C955 C956 1.524 . S
C955 C959 1.400 . S
C956 H941 0.960 . S
C956 H942 0.960 . S
C956 H943 0.960 . S
C956 C955 1.524 . S
C957 C954 1.403 . S
C957 C958 1.392 . S
C957 C961 1.495 . S
C958 C957 1.392 . S
C958 C959 1.385 1_556 S
C958 C960 1.478 . S
C959 H953 0.930 . S
C959 C955 1.400 . S
C959 C958 1.385 1_554 S
C960 C958 1.478 . S
C960 C962 1.366 1_556 S
C960 C966 1.383 . S
C961 C957 1.495 . S
C961 H967 0.959 . S
C961 H968 0.961 . S
C961 H969 0.960 . S
C962 C960 1.366 1_554 S
C962 C963 1.394 . S
C962 H970 0.948 . S
C963 C962 1.394 . S
C963 C964 1.380 1_554 S
C963 H971 0.933 . S
C964 C963 1.380 1_556 S
C964 C965 1.377 . S
C965 H949 0.930 . S
C965 C964 1.377 . S
C965 C966 1.379 . S
C966 H950 0.931 . S
C966 C960 1.383 . S
C966 C965 1.379 . S
H967 C961 0.959 . S
H968 C961 0.961 . S
H969 C961 0.960 . S
H970 C962 0.948 . S
H971 C963 0.933 . S
H972 C980 0.929 . S
H973 C982 0.930 . S
H974 C984 0.930 . S
H975 C987 0.929 . S
H976 C990 0.930 . S
H977 C992 0.960 . S
H978 C992 0.960 . S
H979 C992 0.960 . S
C980 H972 0.929 . S
C980 C981 1.377 . S
C980 C982 1.384 . S
C981 C980 1.377 . S
C981 C987 1.390 . S
C982 H973 0.930 . S
C982 C980 1.384 . S
C982 C983 1.372 . S
C983 C982 1.372 . S
C983 C984 1.400 . S
C983 C988 1.490 . S
C984 H974 0.930 . S
C984 C983 1.400 . S
C984 C987 1.386 . S
H985 C1001 0.930 . S
H986 C1002 0.931 . S
C987 H975 0.929 . S
C987 C981 1.390 . S
C987 C984 1.386 . S
C988 C983 1.490 . S
C988 C990 1.395 . S
C988 C991 1.403 . S
H989 C995 0.930 . S
C990 H976 0.930 . S
C990 C988 1.395 . S
C990 C993 1.403 . S
C991 C988 1.403 . S
C991 C992 1.524 . S
C991 C995 1.400 . S
C992 H977 0.960 . S
C992 H978 0.960 . S
C992 H979 0.960 . S
C992 C991 1.524 . S
C993 C990 1.403 . S
C993 C994 1.392 . S
C993 C997 1.495 . S
C994 C993 1.392 . S
C994 C995 1.385 . S
C994 C996 1.478 . S
C995 H989 0.930 . S
C995 C991 1.400 . S
C995 C994 1.385 . S
C996 C994 1.478 . S
C996 C998 1.381 . S
C996 C1002 1.383 . S
C997 C993 1.495 . S
C997 H1003 0.959 . S
C997 H1004 0.961 . S
C997 H1005 0.960 . S
C998 C996 1.381 . S
C998 C999 1.394 . S
C998 H1006 0.930 . S
C999 C998 1.394 . S
C999 C1000 1.383 1_655 S
C999 H1007 0.929 1_655 S
C1000 C999 1.383 1_455 S
C1000 C1001 1.377 . S
C1001 H985 0.930 . S
C1001 C1000 1.377 . S
C1001 C1002 1.379 1_455 S
C1002 H986 0.931 . S
C1002 C996 1.383 . S
C1002 C1001 1.379 1_655 S
H1003 C997 0.959 . S
H1004 C997 0.961 . S
H1005 C997 0.960 . S
H1006 C998 0.930 . S
H1007 C999 0.929 1_455 S
H1008 C1016 0.929 . S
H1009 C1018 0.930 . S
H1010 C1020 0.930 . S
H1011 C1023 0.929 . S
H1012 C1026 0.930 . S
H1013 C1028 0.960 . S
H1014 C1028 0.960 . S
H1015 C1028 0.960 . S
C1016 H1008 0.929 . S
C1016 C1017 1.377 . S
C1016 C1018 1.384 . S
C1017 C1016 1.377 . S
C1017 C1023 1.390 . S
C1018 H1009 0.930 . S
C1018 C1016 1.384 . S
C1018 C1019 1.372 . S
C1019 C1018 1.372 . S
C1019 C1020 1.400 . S
C1019 C1024 1.490 . S
C1020 H1010 0.930 . S
C1020 C1019 1.400 . S
C1020 C1023 1.386 . S
H1021 C1037 0.930 . S
H1022 C1038 0.931 . S
C1023 H1011 0.929 . S
C1023 C1017 1.390 . S
C1023 C1020 1.386 . S
C1024 C1019 1.490 . S
C1024 C1026 1.395 . S
C1024 C1027 1.403 . S
H1025 C1031 0.930 . S
C1026 H1012 0.930 . S
C1026 C1024 1.395 . S
C1026 C1029 1.403 . S
C1027 C1024 1.403 . S
C1027 C1028 1.524 . S
C1027 C1031 1.400 . S
C1028 H1013 0.960 . S
C1028 H1014 0.960 . S
C1028 H1015 0.960 . S
C1028 C1027 1.524 . S
C1029 C1026 1.403 . S
C1029 C1030 1.392 . S
C1029 C1033 1.495 1_545 S
C1030 C1029 1.392 . S
C1030 C1031 1.385 . S
C1030 C1032 1.478 1_545 S
C1031 H1025 0.930 . S
C1031 C1027 1.400 . S
C1031 C1030 1.385 . S
C1032 C1030 1.478 1_565 S
C1032 C1034 1.381 . S
C1032 C1038 1.383 . S
C1033 C1029 1.495 1_565 S
C1033 H1039 0.959 . S
C1033 H1040 0.961 . S
C1033 H1041 0.960 . S
C1034 C1032 1.381 . S
C1034 C1035 1.394 . S
C1034 H1042 0.930 . S
C1035 C1034 1.394 . S
C1035 C1036 1.383 . S
C1035 H1043 0.929 . S
C1036 C1035 1.383 . S
C1036 C1037 1.377 . S
C1037 H1021 0.930 . S
C1037 C1036 1.377 . S
C1037 C1038 1.379 . S
C1038 H1022 0.931 . S
C1038 C1032 1.383 . S
C1038 C1037 1.379 . S
H1039 C1033 0.959 . S
H1040 C1033 0.961 . S
H1041 C1033 0.960 . S
H1042 C1034 0.930 . S
H1043 C1035 0.929 . S
H1044 C1052 0.929 . S
H1045 C1054 0.930 . S
H1046 C1056 0.927 . S
H1047 C1059 0.929 . S
H1048 C1062 0.930 . S
H1049 C1064 0.959 1_655 S
H1050 C1064 0.971 . S
H1051 C1064 0.949 1_655 S
C1052 H1044 0.929 . S
C1052 C1053 1.377 . S
C1052 C1054 1.384 . S
C1053 C1052 1.377 . S
C1053 C1059 1.390 . S
C1054 H1045 0.930 . S
C1054 C1052 1.384 . S
C1054 C1055 1.372 . S
C1055 C1054 1.372 . S
C1055 C1056 1.400 . S
C1055 C1060 1.490 1_455 S
C1056 H1046 0.927 . S
C1056 C1055 1.400 . S
C1056 C1059 1.386 . S
H1057 C1073 0.930 . S
H1058 C1074 0.931 . S
C1059 H1047 0.929 . S
C1059 C1053 1.390 . S
C1059 C1056 1.386 . S
C1060 C1055 1.490 1_655 S
C1060 C1062 1.395 . S
C1060 C1063 1.403 . S
H1061 C1067 0.930 . S
C1062 H1048 0.930 . S
C1062 C1060 1.395 . S
C1062 C1065 1.403 . S
C1063 C1060 1.403 . S
C1063 C1064 1.519 1_655 S
C1063 C1067 1.400 . S
C1064 H1049 0.959 1_455 S
C1064 H1050 0.971 . S
C1064 H1051 0.949 1_455 S
C1064 C1063 1.519 1_455 S
C1065 C1062 1.403 . S
C1065 C1066 1.392 . S
C1065 C1069 1.495 . S
C1066 C1065 1.392 . S
C1066 C1067 1.385 . S
C1066 C1068 1.478 . S
C1067 H1061 0.930 . S
C1067 C1063 1.400 . S
C1067 C1066 1.385 . S
C1068 C1066 1.478 . S
C1068 C1070 1.381 . S
C1068 C1074 1.383 . S
C1069 C1065 1.495 . S
C1069 H1075 0.959 . S
C1069 H1076 0.961 . S
C1069 H1077 0.960 . S
C1070 C1068 1.381 . S
C1070 C1071 1.394 . S
C1070 H1078 0.930 . S
C1071 C1070 1.394 . S
C1071 C1072 1.383 . S
C1071 H1079 0.929 1_545 S
C1072 C1071 1.383 . S
C1072 C1073 1.376 . S
C1073 H1057 0.930 . S
C1073 C1072 1.376 . S
C1073 C1074 1.379 . S
C1074 H1058 0.931 . S
C1074 C1068 1.383 . S
C1074 C1073 1.379 . S
H1075 C1069 0.959 . S
H1076 C1069 0.961 . S
H1077 C1069 0.960 . S
H1078 C1070 0.930 . S
H1079 C1071 0.929 1_565 S
H1080 C1088 0.929 . S
H1081 C1090 0.930 . S
H1082 C1092 0.930 . S
H1083 C1095 0.929 . S
H1084 C1098 0.930 . S
H1085 C1100 0.960 . S
H1086 C1100 0.960 . S
H1087 C1100 0.960 . S
C1088 H1080 0.929 . S
C1088 C1089 1.377 . S
C1088 C1090 1.384 . S
C1089 C1088 1.377 . S
C1089 C1095 1.390 . S
C1090 H1081 0.930 . S
C1090 C1088 1.384 . S
C1090 C1091 1.372 . S
C1091 C1090 1.372 . S
C1091 C1092 1.400 . S
C1091 C1096 1.490 . S
C1092 H1082 0.930 . S
C1092 C1091 1.400 . S
C1092 C1095 1.386 . S
H1093 C1109 0.930 . S
H1094 C1110 0.931 . S
C1095 H1083 0.929 . S
C1095 C1089 1.390 . S
C1095 C1092 1.386 . S
C1096 C1091 1.490 . S
C1096 C1098 1.395 . S
C1096 C1099 1.403 . S
H1097 C1103 0.930 . S
C1098 H1084 0.930 . S
C1098 C1096 1.395 . S
C1098 C1101 1.403 . S
C1099 C1096 1.403 . S
C1099 C1100 1.524 . S
C1099 C1103 1.400 . S
C1100 H1085 0.960 . S
C1100 H1086 0.960 . S
C1100 H1087 0.960 . S
C1100 C1099 1.524 . S
C1101 C1098 1.403 . S
C1101 C1102 1.392 . S
C1101 C1105 1.495 . S
C1102 C1101 1.392 . S
C1102 C1103 1.385 . S
C1102 C1104 1.478 . S
C1103 H1097 0.930 . S
C1103 C1099 1.400 . S
C1103 C1102 1.385 . S
C1104 C1102 1.478 . S
C1104 C1106 1.381 . S
C1104 C1110 1.383 . S
C1105 C1101 1.495 . S
C1105 H1111 0.959 . S
C1105 H1112 0.961 . S
C1105 H1113 0.960 . S
C1106 C1104 1.381 . S
C1106 C1107 1.394 . S
C1106 H1114 0.930 . S
C1107 C1106 1.394 . S
C1107 C1108 1.383 . S
C1107 H1115 0.929 . S
C1108 C1107 1.383 . S
C1108 C1109 1.377 . S
C1109 H1093 0.930 . S
C1109 C1108 1.377 . S
C1109 C1110 1.379 . S
C1110 H1094 0.931 . S
C1110 C1104 1.383 . S
C1110 C1109 1.379 . S
H1111 C1105 0.959 . S
H1112 C1105 0.961 . S
H1113 C1105 0.960 . S
H1114 C1106 0.930 . S
H1115 C1107 0.929 . S
H1116 C1124 0.929 . S
H1117 C1126 0.930 . S
H1118 C1128 0.930 . S
H1119 C1131 0.929 . S
H1120 C1134 0.930 . S
H1121 C1136 0.960 . S
H1122 C1136 0.960 . S
H1123 C1136 0.960 . S
C1124 H1116 0.929 . S
C1124 C1125 1.377 . S
C1124 C1126 1.384 . S
C1125 C1124 1.377 . S
C1125 C1131 1.390 . S
C1126 H1117 0.930 . S
C1126 C1124 1.384 . S
C1126 C1127 1.372 . S
C1127 C1126 1.372 . S
C1127 C1128 1.400 . S
C1127 C1132 1.490 . S
C1128 H1118 0.930 . S
C1128 C1127 1.400 . S
C1128 C1131 1.386 . S
H1129 C1145 0.930 . S
H1130 C1146 0.931 . S
C1131 H1119 0.929 . S
C1131 C1125 1.390 . S
C1131 C1128 1.386 . S
C1132 C1127 1.490 . S
C1132 C1134 1.395 . S
C1132 C1135 1.403 . S
H1133 C1139 0.930 . S
C1134 H1120 0.930 . S
C1134 C1132 1.395 . S
C1134 C1137 1.403 . S
C1135 C1132 1.403 . S
C1135 C1136 1.524 . S
C1135 C1139 1.400 . S
C1136 H1121 0.960 . S
C1136 H1122 0.960 . S
C1136 H1123 0.960 . S
C1136 C1135 1.524 . S
C1137 C1134 1.403 . S
C1137 C1138 1.392 . S
C1137 C1141 1.495 . S
C1138 C1137 1.392 . S
C1138 C1139 1.385 . S
C1138 C1140 1.478 . S
C1139 H1133 0.930 . S
C1139 C1135 1.400 . S
C1139 C1138 1.385 . S
C1140 C1138 1.478 . S
C1140 C1142 1.381 . S
C1140 C1146 1.383 . S
C1141 C1137 1.495 . S
C1141 H1147 0.959 . S
C1141 H1148 0.961 . S
C1141 H1149 0.960 . S
C1142 C1140 1.381 . S
C1142 C1143 1.394 . S
C1142 H1150 0.930 . S
C1143 C1142 1.394 . S
C1143 C1144 1.383 . S
C1143 H1151 0.929 . S
C1144 C1143 1.383 . S
C1144 C1145 1.377 . S
C1145 H1129 0.930 . S
C1145 C1144 1.377 . S
C1145 C1146 1.379 . S
C1146 H1130 0.931 . S
C1146 C1140 1.383 . S
C1146 C1145 1.379 . S
H1147 C1141 0.959 . S
H1148 C1141 0.961 . S
H1149 C1141 0.960 . S
H1150 C1142 0.930 . S
H1151 C1143 0.929 . S
H1152 C1160 0.929 . S
H1153 C1162 0.930 . S
H1154 C1164 0.930 . S
H1155 C1167 0.929 . S
H1156 C1170 0.930 . S
H1157 C1172 0.960 . S
H1158 C1172 0.960 . S
H1159 C1172 0.960 . S
C1160 H1152 0.929 . S
C1160 C1161 1.377 . S
C1160 C1162 1.384 . S
C1161 C1160 1.377 . S
C1161 C1167 1.390 . S
C1162 H1153 0.930 . S
C1162 C1160 1.384 . S
C1162 C1163 1.372 . S
C1163 C1162 1.372 . S
C1163 C1164 1.400 . S
C1163 C1168 1.490 . S
C1164 H1154 0.930 . S
C1164 C1163 1.400 . S
C1164 C1167 1.386 . S
H1165 C1181 0.930 . S
H1166 C1182 0.931 . S
C1167 H1155 0.929 . S
C1167 C1161 1.390 . S
C1167 C1164 1.386 . S
C1168 C1163 1.490 . S
C1168 C1170 1.395 . S
C1168 C1171 1.403 . S
H1169 C1175 0.930 . S
C1170 H1156 0.930 . S
C1170 C1168 1.395 . S
C1170 C1173 1.403 . S
C1171 C1168 1.403 . S
C1171 C1172 1.524 . S
C1171 C1175 1.400 . S
C1172 H1157 0.960 . S
C1172 H1158 0.960 . S
C1172 H1159 0.960 . S
C1172 C1171 1.524 . S
C1173 C1170 1.403 . S
C1173 C1174 1.392 . S
C1173 C1177 1.495 . S
C1174 C1173 1.392 . S
C1174 C1175 1.385 . S
C1174 C1176 1.478 . S
C1175 H1169 0.930 . S
C1175 C1171 1.400 . S
C1175 C1174 1.385 . S
C1176 C1174 1.478 . S
C1176 C1178 1.381 . S
C1176 C1182 1.383 . S
C1177 C1173 1.495 . S
C1177 H1183 0.959 . S
C1177 H1184 0.961 . S
C1177 H1185 0.960 . S
C1178 C1176 1.381 . S
C1178 C1179 1.394 . S
C1178 H1186 0.930 . S
C1179 C1178 1.394 . S
C1179 C1180 1.383 . S
C1179 H1187 0.929 . S
C1180 C1179 1.383 . S
C1180 C1181 1.377 . S
C1181 H1165 0.930 . S
C1181 C1180 1.377 . S
C1181 C1182 1.379 . S
C1182 H1166 0.931 . S
C1182 C1176 1.383 . S
C1182 C1181 1.379 . S
H1183 C1177 0.959 . S
H1184 C1177 0.961 . S
H1185 C1177 0.960 . S
H1186 C1178 0.930 . S
H1187 C1179 0.929 . S
H1188 C1196 0.929 . S
H1189 C1198 0.930 . S
H1190 C1200 0.930 . S
H1191 C1203 0.929 . S
H1192 C1206 0.930 . S
H1193 C1208 0.960 . S
H1194 C1208 0.960 . S
H1195 C1208 0.960 . S
C1196 H1188 0.929 . S
C1196 C1197 1.377 . S
C1196 C1198 1.384 . S
C1197 C1196 1.377 . S
C1197 C1203 1.390 . S
C1198 H1189 0.930 . S
C1198 C1196 1.384 . S
C1198 C1199 1.372 . S
C1199 C1198 1.372 . S
C1199 C1200 1.400 . S
C1199 C1204 1.490 . S
C1200 H1190 0.930 . S
C1200 C1199 1.400 . S
C1200 C1203 1.386 . S
H1201 C1217 0.930 . S
H1202 C1218 0.931 . S
C1203 H1191 0.929 . S
C1203 C1197 1.390 . S
C1203 C1200 1.386 . S
C1204 C1199 1.490 . S
C1204 C1206 1.395 . S
C1204 C1207 1.403 . S
H1205 C1211 0.930 . S
C1206 H1192 0.930 . S
C1206 C1204 1.395 . S
C1206 C1209 1.403 . S
C1207 C1204 1.403 . S
C1207 C1208 1.524 . S
C1207 C1211 1.400 . S
C1208 H1193 0.960 . S
C1208 H1194 0.960 . S
C1208 H1195 0.960 . S
C1208 C1207 1.524 . S
C1209 C1206 1.403 . S
C1209 C1210 1.392 . S
C1209 C1213 1.495 . S
C1210 C1209 1.392 . S
C1210 C1211 1.385 . S
C1210 C1212 1.478 . S
C1211 H1205 0.930 . S
C1211 C1207 1.400 . S
C1211 C1210 1.385 . S
C1212 C1210 1.478 . S
C1212 C1214 1.381 . S
C1212 C1218 1.383 . S
C1213 C1209 1.495 . S
C1213 H1219 0.959 . S
C1213 H1220 0.961 . S
C1213 H1221 0.960 . S
C1214 C1212 1.381 . S
C1214 C1215 1.394 . S
C1214 H1222 0.930 . S
C1215 C1214 1.394 . S
C1215 C1216 1.383 . S
C1215 H1223 0.929 . S
C1216 C1215 1.383 . S
C1216 C1217 1.377 . S
C1217 H1201 0.930 . S
C1217 C1216 1.377 . S
C1217 C1218 1.379 . S
C1218 H1202 0.931 . S
C1218 C1212 1.383 . S
C1218 C1217 1.379 . S
H1219 C1213 0.959 . S
H1220 C1213 0.961 . S
H1221 C1213 0.960 . S
H1222 C1214 0.930 . S
H1223 C1215 0.929 . S
H1224 C1232 0.929 . S
H1225 C1234 0.930 . S
H1226 C1236 0.930 . S
H1227 C1239 0.929 . S
H1228 C1242 0.930 . S
H1229 C1244 0.960 . S
H1230 C1244 0.960 . S
H1231 C1244 0.960 . S
C1232 H1224 0.929 . S
C1232 C1233 1.377 . S
C1232 C1234 1.384 . S
C1233 C1232 1.377 . S
C1233 C1239 1.390 . S
C1234 H1225 0.930 . S
C1234 C1232 1.384 . S
C1234 C1235 1.372 . S
C1235 C1234 1.372 . S
C1235 C1236 1.400 . S
C1235 C1240 1.490 . S
C1236 H1226 0.930 . S
C1236 C1235 1.400 . S
C1236 C1239 1.386 . S
H1237 C1253 0.930 . S
H1238 C1254 0.931 . S
C1239 H1227 0.929 . S
C1239 C1233 1.390 . S
C1239 C1236 1.386 . S
C1240 C1235 1.490 . S
C1240 C1242 1.395 . S
C1240 C1243 1.403 . S
H1241 C1247 0.930 . S
C1242 H1228 0.930 . S
C1242 C1240 1.395 . S
C1242 C1245 1.403 . S
C1243 C1240 1.403 . S
C1243 C1244 1.524 . S
C1243 C1247 1.400 . S
C1244 H1229 0.960 . S
C1244 H1230 0.960 . S
C1244 H1231 0.960 . S
C1244 C1243 1.524 . S
C1245 C1242 1.403 . S
C1245 C1246 1.392 . S
C1245 C1249 1.495 . S
C1246 C1245 1.392 . S
C1246 C1247 1.385 . S
C1246 C1248 1.478 . S
C1247 H1241 0.930 . S
C1247 C1243 1.400 . S
C1247 C1246 1.385 . S
C1248 C1246 1.478 . S
C1248 C1250 1.381 . S
C1248 C1254 1.383 . S
C1249 C1245 1.495 . S
C1249 H1255 0.959 . S
C1249 H1256 0.961 . S
C1249 H1257 0.960 . S
C1250 C1248 1.381 . S
C1250 C1251 1.394 . S
C1250 H1258 0.930 . S
C1251 C1250 1.394 . S
C1251 C1252 1.383 . S
C1251 H1259 0.929 . S
C1252 C1251 1.383 . S
C1252 C1253 1.377 . S
C1253 H1237 0.930 . S
C1253 C1252 1.377 . S
C1253 C1254 1.379 . S
C1254 H1238 0.931 . S
C1254 C1248 1.383 . S
C1254 C1253 1.379 . S
H1255 C1249 0.959 . S
H1256 C1249 0.961 . S
H1257 C1249 0.960 . S
H1258 C1250 0.930 . S
H1259 C1251 0.929 . S
H1260 C1268 0.929 . S
H1261 C1270 0.930 . S
H1262 C1272 0.930 . S
H1263 C1275 0.929 . S
H1264 C1278 0.930 . S
H1265 C1280 0.960 . S
H1266 C1280 0.960 . S
H1267 C1280 0.960 . S
C1268 H1260 0.929 . S
C1268 C1269 1.377 . S
C1268 C1270 1.384 . S
C1269 C1268 1.377 . S
C1269 C1275 1.390 . S
C1270 H1261 0.930 . S
C1270 C1268 1.384 . S
C1270 C1271 1.372 . S
C1271 C1270 1.372 . S
C1271 C1272 1.400 . S
C1271 C1276 1.490 . S
C1272 H1262 0.930 . S
C1272 C1271 1.400 . S
C1272 C1275 1.386 . S
H1273 C1289 0.930 . S
H1274 C1290 0.931 . S
C1275 H1263 0.929 . S
C1275 C1269 1.390 . S
C1275 C1272 1.386 . S
C1276 C1271 1.490 . S
C1276 C1278 1.395 . S
C1276 C1279 1.403 . S
H1277 C1283 0.930 . S
C1278 H1264 0.930 . S
C1278 C1276 1.395 . S
C1278 C1281 1.403 . S
C1279 C1276 1.403 . S
C1279 C1280 1.524 . S
C1279 C1283 1.400 . S
C1280 H1265 0.960 . S
C1280 H1266 0.960 . S
C1280 H1267 0.960 . S
C1280 C1279 1.524 . S
C1281 C1278 1.403 . S
C1281 C1282 1.392 . S
C1281 C1285 1.495 . S
C1282 C1281 1.392 . S
C1282 C1283 1.385 . S
C1282 C1284 1.478 . S
C1283 H1277 0.930 . S
C1283 C1279 1.400 . S
C1283 C1282 1.385 . S
C1284 C1282 1.478 . S
C1284 C1286 1.381 . S
C1284 C1290 1.383 . S
C1285 C1281 1.495 . S
C1285 H1291 0.959 . S
C1285 H1292 0.961 . S
C1285 H1293 0.960 . S
C1286 C1284 1.381 . S
C1286 C1287 1.394 . S
C1286 H1294 0.930 . S
C1287 C1286 1.394 . S
C1287 C1288 1.383 . S
C1287 H1295 0.929 . S
C1288 C1287 1.383 . S
C1288 C1289 1.377 . S
C1289 H1273 0.930 . S
C1289 C1288 1.377 . S
C1289 C1290 1.379 . S
C1290 H1274 0.931 . S
C1290 C1284 1.383 . S
C1290 C1289 1.379 . S
H1291 C1285 0.959 . S
H1292 C1285 0.961 . S
H1293 C1285 0.960 . S
H1294 C1286 0.930 . S
H1295 C1287 0.929 . S
H1296 C1304 0.929 . S
H1297 C1306 0.930 . S
H1298 C1308 0.930 . S
H1299 C1311 0.929 . S
H1300 C1314 0.930 . S
H1301 C1316 0.960 1_545 S
H1302 C1316 0.960 . S
H1303 C1316 0.960 . S
C1304 H1296 0.929 . S
C1304 C1305 1.377 . S
C1304 C1306 1.384 . S
C1305 C1304 1.377 . S
C1305 C1311 1.390 . S
C1306 H1297 0.930 . S
C1306 C1304 1.384 . S
C1306 C1307 1.372 . S
C1307 C1306 1.372 . S
C1307 C1308 1.400 . S
C1307 C1312 1.490 . S
C1308 H1298 0.930 . S
C1308 C1307 1.400 . S
C1308 C1311 1.386 . S
H1309 C1325 0.930 . S
H1310 C1326 0.931 . S
C1311 H1299 0.929 . S
C1311 C1305 1.390 . S
C1311 C1308 1.386 . S
C1312 C1307 1.490 . S
C1312 C1314 1.395 . S
C1312 C1315 1.403 . S
H1313 C1319 0.930 . S
C1314 H1300 0.930 . S
C1314 C1312 1.395 . S
C1314 C1317 1.403 . S
C1315 C1312 1.403 . S
C1315 C1316 1.524 . S
C1315 C1319 1.400 1_565 S
C1316 H1301 0.960 1_565 S
C1316 H1302 0.960 . S
C1316 H1303 0.960 . S
C1316 C1315 1.524 . S
C1317 C1314 1.403 . S
C1317 C1318 1.392 1_565 S
C1317 C1321 1.520 . S
C1318 C1317 1.392 1_545 S
C1318 C1319 1.385 . S
C1318 C1320 1.478 . S
C1319 H1313 0.930 . S
C1319 C1315 1.400 1_545 S
C1319 C1318 1.385 . S
C1320 C1318 1.478 . S
C1320 C1322 1.381 . S
C1320 C1326 1.383 . S
C1321 C1317 1.520 . S
C1321 H1327 0.984 . S
C1321 H1328 0.942 1_565 S
C1321 H1329 0.932 1_565 S
C1322 C1320 1.381 . S
C1322 C1323 1.394 . S
C1322 H1330 0.930 . S
C1323 C1322 1.394 . S
C1323 C1324 1.383 . S
C1323 H1331 0.929 . S
C1324 C1323 1.383 . S
C1324 C1325 1.377 . S
C1325 H1309 0.930 . S
C1325 C1324 1.377 . S
C1325 C1326 1.379 . S
C1326 H1310 0.931 . S
C1326 C1320 1.383 . S
C1326 C1325 1.379 . S
H1327 C1321 0.984 . S
H1328 C1321 0.942 1_545 S
H1329 C1321 0.932 1_545 S
H1330 C1322 0.930 . S
H1331 C1323 0.929 . S
H1332 C1340 0.929 . S
H1333 C1342 0.930 . S
H1334 C1344 0.930 . S
H1335 C1347 0.929 . S
H1336 C1350 0.930 . S
H1337 C1352 0.960 . S
H1338 C1352 0.960 . S
H1339 C1352 0.960 . S
C1340 H1332 0.929 . S
C1340 C1341 1.377 . S
C1340 C1342 1.384 . S
C1341 C1340 1.377 . S
C1341 C1347 1.390 . S
C1342 H1333 0.930 . S
C1342 C1340 1.384 . S
C1342 C1343 1.372 . S
C1343 C1342 1.372 . S
C1343 C1344 1.400 . S
C1343 C1348 1.490 . S
C1344 H1334 0.930 . S
C1344 C1343 1.400 . S
C1344 C1347 1.386 . S
H1345 C1361 0.930 . S
H1346 C1362 0.931 . S
C1347 H1335 0.929 . S
C1347 C1341 1.390 . S
C1347 C1344 1.386 . S
C1348 C1343 1.490 . S
C1348 C1350 1.395 1_655 S
C1348 C1351 1.407 1_655 S
H1349 C1355 0.930 . S
C1350 H1336 0.930 . S
C1350 C1348 1.395 1_455 S
C1350 C1353 1.403 . S
C1351 C1348 1.407 1_455 S
C1351 C1352 1.507 1_455 S
C1351 C1355 1.413 . S
C1352 H1337 0.960 . S
C1352 H1338 0.960 . S
C1352 H1339 0.960 . S
C1352 C1351 1.507 1_655 S
C1353 C1350 1.403 . S
C1353 C1354 1.392 . S
C1353 C1357 1.495 . S
C1354 C1353 1.392 . S
C1354 C1355 1.385 . S
C1354 C1356 1.478 . S
C1355 H1349 0.930 . S
C1355 C1351 1.413 . S
C1355 C1354 1.385 . S
C1356 C1354 1.478 . S
C1356 C1358 1.381 . S
C1356 C1362 1.383 . S
C1357 C1353 1.495 . S
C1357 H1363 0.959 . S
C1357 H1364 0.961 . S
C1357 H1365 0.960 . S
C1358 C1356 1.381 . S
C1358 C1359 1.394 . S
C1358 H1366 0.930 . S
C1359 C1358 1.394 . S
C1359 C1360 1.383 . S
C1359 H1367 0.929 . S
C1360 C1359 1.383 . S
C1360 C1361 1.377 . S
C1361 H1345 0.930 . S
C1361 C1360 1.377 . S
C1361 C1362 1.379 . S
C1362 H1346 0.931 . S
C1362 C1356 1.383 . S
C1362 C1361 1.379 . S
H1363 C1357 0.959 . S
H1364 C1357 0.961 . S
H1365 C1357 0.960 . S
H1366 C1358 0.930 . S
H1367 C1359 0.929 . S
H1368 C1376 0.929 . S
H1369 C1378 0.930 . S
H1370 C1380 0.930 . S
H1371 C1383 0.929 . S
H1372 C1386 0.930 . S
H1373 C1388 0.960 . S
H1374 C1388 0.960 . S
H1375 C1388 0.960 . S
C1376 H1368 0.929 . S
C1376 C1377 1.377 . S
C1376 C1378 1.384 . S
C1377 C1376 1.377 . S
C1377 C1383 1.390 . S
C1378 H1369 0.930 . S
C1378 C1376 1.384 . S
C1378 C1379 1.372 . S
C1379 C1378 1.372 . S
C1379 C1380 1.400 . S
C1379 C1384 1.490 . S
C1380 H1370 0.930 . S
C1380 C1379 1.400 . S
C1380 C1383 1.386 . S
H1381 C1397 0.930 . S
H1382 C1398 0.931 . S
C1383 H1371 0.929 . S
C1383 C1377 1.390 . S
C1383 C1380 1.386 . S
C1384 C1379 1.490 . S
C1384 C1386 1.395 . S
C1384 C1387 1.403 . S
H1385 C1391 0.930 . S
C1386 H1372 0.930 . S
C1386 C1384 1.395 . S
C1386 C1389 1.403 . S
C1387 C1384 1.403 . S
C1387 C1388 1.524 . S
C1387 C1391 1.400 . S
C1388 H1373 0.960 . S
C1388 H1374 0.960 . S
C1388 H1375 0.960 . S
C1388 C1387 1.524 . S
C1389 C1386 1.403 . S
C1389 C1390 1.392 . S
C1389 C1393 1.495 . S
C1390 C1389 1.392 . S
C1390 C1391 1.385 . S
C1390 C1392 1.478 . S
C1391 H1385 0.930 . S
C1391 C1387 1.400 . S
C1391 C1390 1.385 . S
C1392 C1390 1.478 . S
C1392 C1394 1.381 . S
C1392 C1398 1.383 . S
C1393 C1389 1.495 . S
C1393 H1399 0.959 . S
C1393 H1400 0.961 . S
C1393 H1401 0.960 . S
C1394 C1392 1.381 . S
C1394 C1395 1.394 . S
C1394 H1402 0.930 . S
C1395 C1394 1.394 . S
C1395 C1396 1.383 . S
C1395 H1403 0.929 . S
C1396 C1395 1.383 . S
C1396 C1397 1.377 . S
C1397 H1381 0.930 . S
C1397 C1396 1.377 . S
C1397 C1398 1.379 . S
C1398 H1382 0.931 . S
C1398 C1392 1.383 . S
C1398 C1397 1.379 . S
H1399 C1393 0.959 . S
H1400 C1393 0.961 . S
H1401 C1393 0.960 . S
H1402 C1394 0.930 . S
H1403 C1395 0.929 . S
H1404 C1412 0.929 . S
H1405 C1414 0.930 . S
H1406 C1416 0.930 . S
H1407 C1419 0.929 . S
H1408 C1422 0.930 . S
H1409 C1424 0.960 . S
H1410 C1424 0.960 . S
H1411 C1424 0.960 . S
C1412 H1404 0.929 . S
C1412 C1413 1.377 . S
C1412 C1414 1.384 . S
C1413 C1412 1.377 . S
C1413 C1419 1.390 . S
C1414 H1405 0.930 . S
C1414 C1412 1.384 . S
C1414 C1415 1.372 . S
C1415 C1414 1.372 . S
C1415 C1416 1.400 . S
C1415 C1420 1.490 . S
C1416 H1406 0.930 . S
C1416 C1415 1.400 . S
C1416 C1419 1.386 . S
H1417 C1433 0.930 . S
H1418 C1434 0.931 . S
C1419 H1407 0.929 . S
C1419 C1413 1.390 . S
C1419 C1416 1.386 . S
C1420 C1415 1.490 . S
C1420 C1422 1.395 . S
C1420 C1423 1.403 . S
H1421 C1427 0.930 . S
C1422 H1408 0.930 . S
C1422 C1420 1.395 . S
C1422 C1425 1.403 . S
C1423 C1420 1.403 . S
C1423 C1424 1.524 . S
C1423 C1427 1.400 . S
C1424 H1409 0.960 . S
C1424 H1410 0.960 . S
C1424 H1411 0.960 . S
C1424 C1423 1.524 . S
C1425 C1422 1.403 . S
C1425 C1426 1.392 . S
C1425 C1429 1.495 . S
C1426 C1425 1.392 . S
C1426 C1427 1.385 . S
C1426 C1428 1.478 . S
C1427 H1421 0.930 . S
C1427 C1423 1.400 . S
C1427 C1426 1.385 . S
C1428 C1426 1.478 . S
C1428 C1430 1.381 . S
C1428 C1434 1.383 . S
C1429 C1425 1.495 . S
C1429 H1435 0.959 . S
C1429 H1436 0.961 . S
C1429 H1437 0.960 . S
C1430 C1428 1.381 . S
C1430 C1431 1.394 . S
C1430 H1438 0.930 . S
C1431 C1430 1.394 . S
C1431 C1432 1.383 . S
C1431 H1439 0.929 . S
C1432 C1431 1.383 . S
C1432 C1433 1.377 . S
C1433 H1417 0.930 . S
C1433 C1432 1.377 . S
C1433 C1434 1.379 . S
C1434 H1418 0.931 . S
C1434 C1428 1.383 . S
C1434 C1433 1.379 . S
H1435 C1429 0.959 . S
H1436 C1429 0.961 . S
H1437 C1429 0.960 . S
H1438 C1430 0.930 . S
H1439 C1431 0.929 . S
H1440 C1448 0.929 . S
H1441 C1450 0.930 . S
H1442 C1452 0.930 . S
H1443 C1455 0.929 . S
H1444 C1458 0.930 . S
H1445 C1460 0.960 . S
H1446 C1460 0.960 . S
H1447 C1460 0.960 . S
C1448 H1440 0.929 . S
C1448 C1449 1.377 . S
C1448 C1450 1.384 . S
C1449 C1448 1.377 . S
C1449 C1455 1.390 . S
C1450 H1441 0.930 . S
C1450 C1448 1.384 . S
C1450 C1451 1.372 . S
C1451 C1450 1.372 . S
C1451 C1452 1.400 . S
C1451 C1456 1.490 . S
C1452 H1442 0.930 . S
C1452 C1451 1.400 . S
C1452 C1455 1.386 . S
H1453 C1469 0.930 . S
H1454 C1470 0.931 . S
C1455 H1443 0.929 . S
C1455 C1449 1.390 . S
C1455 C1452 1.386 . S
C1456 C1451 1.490 . S
C1456 C1458 1.395 . S
C1456 C1459 1.403 . S
H1457 C1463 0.930 . S
C1458 H1444 0.930 . S
C1458 C1456 1.395 . S
C1458 C1461 1.403 . S
C1459 C1456 1.403 . S
C1459 C1460 1.524 . S
C1459 C1463 1.400 . S
C1460 H1445 0.960 . S
C1460 H1446 0.960 . S
C1460 H1447 0.960 . S
C1460 C1459 1.524 . S
C1461 C1458 1.403 . S
C1461 C1462 1.392 . S
C1461 C1465 1.495 . S
C1462 C1461 1.392 . S
C1462 C1463 1.385 . S
C1462 C1464 1.478 . S
C1463 H1457 0.930 . S
C1463 C1459 1.400 . S
C1463 C1462 1.385 . S
C1464 C1462 1.478 . S
C1464 C1466 1.381 . S
C1464 C1470 1.383 . S
C1465 C1461 1.495 . S
C1465 H1471 0.959 . S
C1465 H1472 0.961 . S
C1465 H1473 0.960 . S
C1466 C1464 1.381 . S
C1466 C1467 1.394 . S
C1466 H1474 0.930 . S
C1467 C1466 1.394 . S
C1467 C1468 1.383 . S
C1467 H1475 0.929 . S
C1468 C1467 1.383 . S
C1468 C1469 1.377 . S
C1469 H1453 0.930 . S
C1469 C1468 1.377 . S
C1469 C1470 1.379 . S
C1470 H1454 0.931 . S
C1470 C1464 1.383 . S
C1470 C1469 1.379 . S
H1471 C1465 0.959 . S
H1472 C1465 0.961 . S
H1473 C1465 0.960 . S
H1474 C1466 0.930 . S
H1475 C1467 0.929 . S
H1476 C1484 0.929 . S
H1477 C1486 0.930 . S
H1478 C1488 0.930 . S
H1479 C1491 0.929 . S
H1480 C1494 0.930 . S
H1481 C1496 0.960 . S
H1482 C1496 0.960 . S
H1483 C1496 0.960 . S
C1484 H1476 0.929 . S
C1484 C1485 1.377 . S
C1484 C1486 1.384 . S
C1485 C1484 1.377 . S
C1485 C1491 1.390 . S
C1486 H1477 0.930 . S
C1486 C1484 1.384 . S
C1486 C1487 1.372 . S
C1487 C1486 1.372 . S
C1487 C1488 1.400 . S
C1487 C1492 1.490 . S
C1488 H1478 0.930 . S
C1488 C1487 1.400 . S
C1488 C1491 1.386 . S
H1489 C1505 0.930 . S
H1490 C1506 0.931 . S
C1491 H1479 0.929 . S
C1491 C1485 1.390 . S
C1491 C1488 1.386 . S
C1492 C1487 1.490 . S
C1492 C1494 1.395 . S
C1492 C1495 1.403 . S
H1493 C1499 0.930 . S
C1494 H1480 0.930 . S
C1494 C1492 1.395 . S
C1494 C1497 1.403 . S
C1495 C1492 1.403 . S
C1495 C1496 1.524 . S
C1495 C1499 1.400 . S
C1496 H1481 0.960 . S
C1496 H1482 0.960 . S
C1496 H1483 0.960 . S
C1496 C1495 1.524 . S
C1497 C1494 1.403 . S
C1497 C1498 1.392 . S
C1497 C1501 1.495 . S
C1498 C1497 1.392 . S
C1498 C1499 1.385 . S
C1498 C1500 1.478 . S
C1499 H1493 0.930 . S
C1499 C1495 1.400 . S
C1499 C1498 1.385 . S
C1500 C1498 1.478 . S
C1500 C1502 1.381 . S
C1500 C1506 1.383 . S
C1501 C1497 1.495 . S
C1501 H1507 0.959 . S
C1501 H1508 0.961 . S
C1501 H1509 0.960 . S
C1502 C1500 1.381 . S
C1502 C1503 1.394 . S
C1502 H1510 0.930 . S
C1503 C1502 1.394 . S
C1503 C1504 1.383 . S
C1503 H1511 0.929 . S
C1504 C1503 1.383 . S
C1504 C1505 1.377 . S
C1505 H1489 0.930 . S
C1505 C1504 1.377 . S
C1505 C1506 1.379 . S
C1506 H1490 0.931 . S
C1506 C1500 1.383 . S
C1506 C1505 1.379 . S
H1507 C1501 0.959 . S
H1508 C1501 0.961 . S
H1509 C1501 0.960 . S
H1510 C1502 0.930 . S
H1511 C1503 0.929 . S
H1512 C1520 0.929 . S
H1513 C1522 0.930 . S
H1514 C1524 0.930 . S
H1515 C1527 0.929 . S
H1516 C1530 0.930 . S
H1517 C1532 0.960 . S
H1518 C1532 0.960 . S
H1519 C1532 0.960 . S
C1520 H1512 0.929 . S
C1520 C1521 1.377 . S
C1520 C1522 1.384 . S
C1521 C1520 1.377 . S
C1521 C1527 1.390 . S
C1522 H1513 0.930 . S
C1522 C1520 1.384 . S
C1522 C1523 1.372 . S
C1523 C1522 1.372 . S
C1523 C1524 1.400 . S
C1523 C1528 1.490 . S
C1524 H1514 0.930 . S
C1524 C1523 1.400 . S
C1524 C1527 1.386 . S
H1525 C1541 0.930 . S
H1526 C1542 0.931 . S
C1527 H1515 0.929 . S
C1527 C1521 1.390 . S
C1527 C1524 1.386 . S
C1528 C1523 1.490 . S
C1528 C1530 1.395 . S
C1528 C1531 1.403 . S
H1529 C1535 0.930 . S
C1530 H1516 0.930 . S
C1530 C1528 1.395 . S
C1530 C1533 1.403 . S
C1531 C1528 1.403 . S
C1531 C1532 1.524 . S
C1531 C1535 1.400 . S
C1532 H1517 0.960 . S
C1532 H1518 0.960 . S
C1532 H1519 0.960 . S
C1532 C1531 1.524 . S
C1533 C1530 1.403 . S
C1533 C1534 1.392 . S
C1533 C1537 1.495 . S
C1534 C1533 1.392 . S
C1534 C1535 1.385 . S
C1534 C1536 1.478 . S
C1535 H1529 0.930 . S
C1535 C1531 1.400 . S
C1535 C1534 1.385 . S
C1536 C1534 1.478 . S
C1536 C1538 1.381 . S
C1536 C1542 1.383 . S
C1537 C1533 1.495 . S
C1537 H1543 0.959 . S
C1537 H1544 0.961 . S
C1537 H1545 0.960 . S
C1538 C1536 1.381 . S
C1538 C1539 1.394 . S
C1538 H1546 0.930 . S
C1539 C1538 1.394 . S
C1539 C1540 1.383 . S
C1539 H1547 0.929 . S
C1540 C1539 1.383 . S
C1540 C1541 1.377 . S
C1541 H1525 0.930 . S
C1541 C1540 1.377 . S
C1541 C1542 1.379 . S
C1542 H1526 0.931 . S
C1542 C1536 1.383 . S
C1542 C1541 1.379 . S
H1543 C1537 0.959 . S
H1544 C1537 0.961 . S
H1545 C1537 0.960 . S
H1546 C1538 0.930 . S
H1547 C1539 0.929 . S
H1548 C1556 0.929 . S
H1549 C1558 0.930 . S
H1550 C1560 0.930 . S
H1551 C1563 0.929 . S
H1552 C1566 0.930 . S
H1553 C1568 0.960 . S
H1554 C1568 0.960 . S
H1555 C1568 0.960 . S
C1556 H1548 0.929 . S
C1556 C1557 1.377 . S
C1556 C1558 1.384 . S
C1557 C1556 1.377 . S
C1557 C1563 1.390 . S
C1558 H1549 0.930 . S
C1558 C1556 1.384 . S
C1558 C1559 1.372 . S
C1559 C1558 1.372 . S
C1559 C1560 1.400 . S
C1559 C1564 1.490 . S
C1560 H1550 0.930 . S
C1560 C1559 1.400 . S
C1560 C1563 1.386 . S
H1561 C1577 0.930 . S
H1562 C1578 0.931 . S
C1563 H1551 0.929 . S
C1563 C1557 1.390 . S
C1563 C1560 1.386 . S
C1564 C1559 1.490 . S
C1564 C1566 1.395 . S
C1564 C1567 1.403 . S
H1565 C1571 0.930 . S
C1566 H1552 0.930 . S
C1566 C1564 1.395 . S
C1566 C1569 1.403 . S
C1567 C1564 1.403 . S
C1567 C1568 1.524 . S
C1567 C1571 1.400 . S
C1568 H1553 0.960 . S
C1568 H1554 0.960 . S
C1568 H1555 0.960 . S
C1568 C1567 1.524 . S
C1569 C1566 1.403 . S
C1569 C1570 1.392 . S
C1569 C1573 1.495 . S
C1570 C1569 1.392 . S
C1570 C1571 1.385 . S
C1570 C1572 1.478 . S
C1571 H1565 0.930 . S
C1571 C1567 1.400 . S
C1571 C1570 1.385 . S
C1572 C1570 1.478 . S
C1572 C1574 1.381 . S
C1572 C1578 1.383 . S
C1573 C1569 1.495 . S
C1573 H1579 0.959 . S
C1573 H1580 0.961 . S
C1573 H1581 0.960 . S
C1574 C1572 1.381 . S
C1574 C1575 1.394 . S
C1574 H1582 0.930 . S
C1575 C1574 1.394 . S
C1575 C1576 1.383 . S
C1575 H1583 0.929 . S
C1576 C1575 1.383 . S
C1576 C1577 1.377 . S
C1577 H1561 0.930 . S
C1577 C1576 1.377 . S
C1577 C1578 1.379 . S
C1578 H1562 0.931 . S
C1578 C1572 1.383 . S
C1578 C1577 1.379 . S
H1579 C1573 0.959 . S
H1580 C1573 0.961 . S
H1581 C1573 0.960 . S
H1582 C1574 0.930 . S
H1583 C1575 0.929 . S
H1584 C1592 0.929 . S
H1585 C1594 0.930 . S
H1586 C1596 0.930 . S
H1587 C1599 0.929 . S
H1588 C1602 0.930 . S
H1589 C1604 0.960 . S
H1590 C1604 0.960 . S
H1591 C1604 0.960 . S
C1592 H1584 0.929 . S
C1592 C1593 1.377 . S
C1592 C1594 1.384 . S
C1593 C1592 1.377 . S
C1593 C1599 1.390 . S
C1594 H1585 0.930 . S
C1594 C1592 1.384 . S
C1594 C1595 1.372 . S
C1595 C1594 1.372 . S
C1595 C1596 1.400 . S
C1595 C1600 1.490 . S
C1596 H1586 0.930 . S
C1596 C1595 1.400 . S
C1596 C1599 1.386 . S
H1597 C1613 0.930 . S
H1598 C1614 0.931 . S
C1599 H1587 0.929 . S
C1599 C1593 1.390 . S
C1599 C1596 1.386 . S
C1600 C1595 1.490 . S
C1600 C1602 1.395 . S
C1600 C1603 1.403 . S
H1601 C1607 0.930 . S
C1602 H1588 0.930 . S
C1602 C1600 1.395 . S
C1602 C1605 1.403 . S
C1603 C1600 1.403 . S
C1603 C1604 1.524 . S
C1603 C1607 1.400 . S
C1604 H1589 0.960 . S
C1604 H1590 0.960 . S
C1604 H1591 0.960 . S
C1604 C1603 1.524 . S
C1605 C1602 1.403 . S
C1605 C1606 1.392 . S
C1605 C1609 1.495 . S
C1606 C1605 1.392 . S
C1606 C1607 1.385 . S
C1606 C1608 1.478 . S
C1607 H1601 0.930 . S
C1607 C1603 1.400 . S
C1607 C1606 1.385 . S
C1608 C1606 1.478 . S
C1608 C1610 1.381 . S
C1608 C1614 1.383 . S
C1609 C1605 1.495 . S
C1609 H1615 0.959 . S
C1609 H1616 0.961 . S
C1609 H1617 0.960 . S
C1610 C1608 1.381 . S
C1610 C1611 1.394 . S
C1610 H1618 0.930 . S
C1611 C1610 1.394 . S
C1611 C1612 1.383 . S
C1611 H1619 0.929 . S
C1612 C1611 1.383 . S
C1612 C1613 1.377 . S
C1613 H1597 0.930 . S
C1613 C1612 1.377 . S
C1613 C1614 1.379 . S
C1614 H1598 0.931 . S
C1614 C1608 1.383 . S
C1614 C1613 1.379 . S
H1615 C1609 0.959 . S
H1616 C1609 0.961 . S
H1617 C1609 0.960 . S
H1618 C1610 0.930 . S
H1619 C1611 0.929 . S
H1620 C1628 0.929 . S
H1621 C1630 0.930 . S
H1622 C1632 0.930 . S
H1623 C1635 0.929 . S
H1624 C1638 0.930 . S
H1625 C1640 0.960 . S
H1626 C1640 0.960 . S
H1627 C1640 0.960 . S
C1628 H1620 0.929 . S
C1628 C1629 1.377 . S
C1628 C1630 1.384 . S
C1629 C1628 1.377 . S
C1629 C1635 1.390 . S
C1630 H1621 0.930 . S
C1630 C1628 1.384 . S
C1630 C1631 1.372 . S
C1631 C1630 1.372 . S
C1631 C1632 1.400 . S
C1631 C1636 1.490 . S
C1632 H1622 0.930 . S
C1632 C1631 1.400 . S
C1632 C1635 1.386 . S
H1633 C1649 0.930 . S
H1634 C1650 0.931 . S
C1635 H1623 0.929 . S
C1635 C1629 1.390 . S
C1635 C1632 1.386 . S
C1636 C1631 1.490 . S
C1636 C1638 1.395 . S
C1636 C1639 1.403 . S
H1637 C1643 0.930 . S
C1638 H1624 0.930 . S
C1638 C1636 1.395 . S
C1638 C1641 1.403 . S
C1639 C1636 1.403 . S
C1639 C1640 1.524 . S
C1639 C1643 1.400 . S
C1640 H1625 0.960 . S
C1640 H1626 0.960 . S
C1640 H1627 0.960 . S
C1640 C1639 1.524 . S
C1641 C1638 1.403 . S
C1641 C1642 1.392 . S
C1641 C1645 1.495 . S
C1642 C1641 1.392 . S
C1642 C1643 1.385 . S
C1642 C1644 1.478 . S
C1643 H1637 0.930 . S
C1643 C1639 1.400 . S
C1643 C1642 1.385 . S
C1644 C1642 1.478 . S
C1644 C1646 1.381 . S
C1644 C1650 1.383 . S
C1645 C1641 1.495 . S
C1645 H1651 0.959 . S
C1645 H1652 0.961 . S
C1645 H1653 0.960 . S
C1646 C1644 1.381 . S
C1646 C1647 1.394 . S
C1646 H1654 0.930 . S
C1647 C1646 1.394 . S
C1647 C1648 1.383 . S
C1647 H1655 0.929 . S
C1648 C1647 1.383 . S
C1648 C1649 1.377 . S
C1649 H1633 0.930 . S
C1649 C1648 1.377 . S
C1649 C1650 1.379 . S
C1650 H1634 0.931 . S
C1650 C1644 1.383 . S
C1650 C1649 1.379 . S
H1651 C1645 0.959 . S
H1652 C1645 0.961 . S
H1653 C1645 0.960 . S
H1654 C1646 0.930 . S
H1655 C1647 0.929 . S
H1656 C1664 0.929 . S
H1657 C1666 0.930 . S
H1658 C1668 0.930 . S
H1659 C1671 0.929 . S
H1660 C1674 0.930 . S
H1661 C1676 0.960 . S
H1662 C1676 0.960 . S
H1663 C1676 0.960 . S
C1664 H1656 0.929 . S
C1664 C1665 1.377 . S
C1664 C1666 1.384 . S
C1665 C1664 1.377 . S
C1665 C1671 1.390 . S
C1666 H1657 0.930 . S
C1666 C1664 1.384 . S
C1666 C1667 1.372 . S
C1667 C1666 1.372 . S
C1667 C1668 1.400 . S
C1667 C1672 1.490 . S
C1668 H1658 0.930 . S
C1668 C1667 1.400 . S
C1668 C1671 1.386 . S
H1669 C1685 0.930 . S
H1670 C1686 0.931 . S
C1671 H1659 0.929 . S
C1671 C1665 1.390 . S
C1671 C1668 1.386 . S
C1672 C1667 1.490 . S
C1672 C1674 1.395 . S
C1672 C1675 1.403 . S
H1673 C1679 0.930 . S
C1674 H1660 0.930 . S
C1674 C1672 1.395 . S
C1674 C1677 1.403 1_565 S
C1675 C1672 1.403 . S
C1675 C1676 1.524 . S
C1675 C1679 1.400 1_565 S
C1676 H1661 0.960 . S
C1676 H1662 0.960 . S
C1676 H1663 0.960 . S
C1676 C1675 1.524 . S
C1677 C1674 1.403 1_545 S
C1677 C1678 1.392 . S
C1677 C1681 1.495 . S
C1678 C1677 1.392 . S
C1678 C1679 1.385 . S
C1678 C1680 1.478 . S
C1679 H1673 0.930 . S
C1679 C1675 1.400 1_545 S
C1679 C1678 1.385 . S
C1680 C1678 1.478 . S
C1680 C1682 1.381 . S
C1680 C1686 1.383 . S
C1681 C1677 1.495 . S
C1681 H1687 0.959 . S
C1681 H1688 0.961 . S
C1681 H1689 0.960 . S
C1682 C1680 1.381 . S
C1682 C1683 1.394 . S
C1682 H1690 0.930 . S
C1683 C1682 1.394 . S
C1683 C1684 1.383 . S
C1683 H1691 0.929 . S
C1684 C1683 1.383 . S
C1684 C1685 1.377 . S
C1685 H1669 0.930 . S
C1685 C1684 1.377 . S
C1685 C1686 1.379 . S
C1686 H1670 0.931 . S
C1686 C1680 1.383 . S
C1686 C1685 1.379 . S
H1687 C1681 0.959 . S
H1688 C1681 0.961 . S
H1689 C1681 0.960 . S
H1690 C1682 0.930 . S
H1691 C1683 0.929 . S
H1692 C1700 0.929 . S
H1693 C1702 0.930 . S
H1694 C1704 0.930 . S
H1695 C1707 0.929 . S
H1696 C1710 0.930 . S
H1697 C1712 0.960 . S
H1698 C1712 0.960 . S
H1699 C1712 0.960 . S
C1700 H1692 0.929 . S
C1700 C1701 1.377 . S
C1700 C1702 1.384 . S
C1701 C1700 1.377 . S
C1701 C1707 1.390 . S
C1702 H1693 0.930 . S
C1702 C1700 1.384 . S
C1702 C1703 1.372 . S
C1703 C1702 1.372 . S
C1703 C1704 1.400 . S
C1703 C1708 1.490 . S
C1704 H1694 0.930 . S
C1704 C1703 1.400 . S
C1704 C1707 1.386 . S
H1705 C1721 0.930 . S
H1706 C1722 0.931 . S
C1707 H1695 0.929 . S
C1707 C1701 1.390 . S
C1707 C1704 1.386 . S
C1708 C1703 1.490 . S
C1708 C1710 1.395 1_655 S
C1708 C1711 1.403 . S
H1709 C1715 0.930 . S
C1710 H1696 0.930 . S
C1710 C1708 1.395 1_455 S
C1710 C1713 1.403 . S
C1711 C1708 1.403 . S
C1711 C1712 1.524 . S
C1711 C1715 1.400 1_655 S
C1712 H1697 0.960 . S
C1712 H1698 0.960 . S
C1712 H1699 0.960 . S
C1712 C1711 1.524 . S
C1713 C1710 1.403 . S
C1713 C1714 1.392 . S
C1713 C1717 1.495 . S
C1714 C1713 1.392 . S
C1714 C1715 1.385 . S
C1714 C1716 1.478 . S
C1715 H1709 0.930 . S
C1715 C1711 1.400 1_455 S
C1715 C1714 1.385 . S
C1716 C1714 1.478 . S
C1716 C1718 1.381 . S
C1716 C1722 1.383 . S
C1717 C1713 1.495 . S
C1717 H1723 0.959 . S
C1717 H1724 0.961 . S
C1717 H1725 0.960 . S
C1718 C1716 1.381 . S
C1718 C1719 1.394 . S
C1718 H1726 0.930 . S
C1719 C1718 1.394 . S
C1719 C1720 1.383 . S
C1719 H1727 0.929 . S
C1720 C1719 1.383 . S
C1720 C1721 1.377 . S
C1721 H1705 0.930 . S
C1721 C1720 1.377 . S
C1721 C1722 1.379 . S
C1722 H1706 0.931 . S
C1722 C1716 1.383 . S
C1722 C1721 1.379 . S
H1723 C1717 0.959 . S
H1724 C1717 0.961 . S
H1725 C1717 0.960 . S
H1726 C1718 0.930 . S
H1727 C1719 0.929 . S
C765 C156 1.162 . S
C784 C67 1.272 1_554 S
C801 C240 1.161 . S
C820 C151 1.274 1_554 S
C837 C235 1.311 1_554 S
C856 C72 1.097 . S
C873 C231 1.133 . S
C892 C140 1.233 . S
C909 C224 1.255 . S
C928 C63 1.173 . S
C945 C56 1.254 . S
C964 C147 1.156 . S
C981 C319 1.321 . S
C1000 C408 1.128 . S
C1017 C492 1.165 . S
C1036 C403 1.273 . S
C1053 C487 1.304 . S
C1072 C324 1.192 1_545 S
C1089 C392 1.259 . S
C1108 C483 1.151 . S
C1125 C476 1.251 . S
C1144 C315 1.087 . S
C1161 C399 1.108 . S
C1180 C308 1.235 . S
C1197 C660 1.156 . S
C1216 C571 1.347 . S
C1233 C655 1.317 . S
C1252 C744 1.175 . S
C1269 C739 1.312 . S
C1288 C576 1.204 . S
C1305 C735 1.132 . S
C1324 C644 1.271 . S
C1341 C728 1.252 . S
C1360 C567 1.111 . S
C1377 C560 1.254 . S
C1396 C651 1.131 . S
C1413 C495 2.628 . S
C1432 C66 2.666 . S
C1449 C327 2.621 . S
C1468 C150 2.694 . S
C1485 C234 2.682 . S
C1504 C411 2.632 . S
C1521 C243 2.627 . S
C1540 C570 2.678 . S
C1557 C75 2.627 . S
C1576 C654 2.678 . S
C1593 C738 2.685 . S
C1612 C159 2.613 . S
C1629 C318 2.682 . S
C1648 C747 2.631 . S
C1665 C402 2.687 . S
C1684 C579 2.604 . S
C1701 C663 2.621 . S
C1720 C486 2.693 . S
