# Generated by pormake.
# Topology fnj, (5)-cn, num edge types: 1
# Building blocks:
#     Node 0, Type 0, BuildingBlock: XOMCOT_clean_sbu_1, # of connection points: 5
#     Node 1, Type 0, BuildingBlock: XOMCOT_clean_sbu_1, # of connection points: 5
#     Node 2, Type 0, BuildingBlock: XOMCOT_clean_sbu_1, # of connection points: 5
#     Node 3, Type 0, BuildingBlock: XOMCOT_clean_sbu_1, # of connection points: 5
#     Node 4, Type 0, BuildingBlock: XOMCOT_clean_sbu_1, # of connection points: 5
#     Node 5, Type 0, BuildingBlock: XOMCOT_clean_sbu_1, # of connection points: 5
#     Node 6, Type 0, BuildingBlock: XOMCOT_clean_sbu_1, # of connection points: 5
#     Node 7, Type 0, BuildingBlock: XOMCOT_clean_sbu_1, # of connection points: 5
#     Node 8, Type 0, BuildingBlock: XOMCOT_clean_sbu_1, # of connection points: 5
#     Node 9, Type 0, BuildingBlock: XOMCOT_clean_sbu_1, # of connection points: 5
#     Node 10, Type 0, BuildingBlock: XOMCOT_clean_sbu_1, # of connection points: 5
#     Node 11, Type 0, BuildingBlock: XOMCOT_clean_sbu_1, # of connection points: 5
#     Node 12, Type 0, BuildingBlock: XOMCOT_clean_sbu_1, # of connection points: 5
#     Node 13, Type 0, BuildingBlock: XOMCOT_clean_sbu_1, # of connection points: 5
#     Node 14, Type 0, BuildingBlock: XOMCOT_clean_sbu_1, # of connection points: 5
#     Node 15, Type 0, BuildingBlock: XOMCOT_clean_sbu_1, # of connection points: 5
#     Edge 16, Type (0, 0), BuildingBlock: UVAHIK_clean_linker_0, # of connection points: 2
#     Edge 17, Type (0, 0), BuildingBlock: UVAHIK_clean_linker_0, # of connection points: 2
#     Edge 18, Type (0, 0), BuildingBlock: UVAHIK_clean_linker_0, # of connection points: 2
#     Edge 19, Type (0, 0), BuildingBlock: UVAHIK_clean_linker_0, # of connection points: 2
#     Edge 20, Type (0, 0), BuildingBlock: UVAHIK_clean_linker_0, # of connection points: 2
#     Edge 21, Type (0, 0), BuildingBlock: UVAHIK_clean_linker_0, # of connection points: 2
#     Edge 22, Type (0, 0), BuildingBlock: UVAHIK_clean_linker_0, # of connection points: 2
#     Edge 23, Type (0, 0), BuildingBlock: UVAHIK_clean_linker_0, # of connection points: 2
#     Edge 24, Type (0, 0), BuildingBlock: UVAHIK_clean_linker_0, # of connection points: 2
#     Edge 25, Type (0, 0), BuildingBlock: UVAHIK_clean_linker_0, # of connection points: 2
#     Edge 26, Type (0, 0), BuildingBlock: UVAHIK_clean_linker_0, # of connection points: 2
#     Edge 27, Type (0, 0), BuildingBlock: UVAHIK_clean_linker_0, # of connection points: 2
#     Edge 28, Type (0, 0), BuildingBlock: UVAHIK_clean_linker_0, # of connection points: 2
#     Edge 29, Type (0, 0), BuildingBlock: UVAHIK_clean_linker_0, # of connection points: 2
#     Edge 30, Type (0, 0), BuildingBlock: UVAHIK_clean_linker_0, # of connection points: 2
#     Edge 31, Type (0, 0), BuildingBlock: UVAHIK_clean_linker_0, # of connection points: 2
#     Edge 32, Type (0, 0), BuildingBlock: UVAHIK_clean_linker_0, # of connection points: 2
#     Edge 33, Type (0, 0), BuildingBlock: UVAHIK_clean_linker_0, # of connection points: 2
#     Edge 34, Type (0, 0), BuildingBlock: UVAHIK_clean_linker_0, # of connection points: 2
#     Edge 35, Type (0, 0), BuildingBlock: UVAHIK_clean_linker_0, # of connection points: 2
#     Edge 36, Type (0, 0), BuildingBlock: UVAHIK_clean_linker_0, # of connection points: 2
#     Edge 37, Type (0, 0), BuildingBlock: UVAHIK_clean_linker_0, # of connection points: 2
#     Edge 38, Type (0, 0), BuildingBlock: UVAHIK_clean_linker_0, # of connection points: 2
#     Edge 39, Type (0, 0), BuildingBlock: UVAHIK_clean_linker_0, # of connection points: 2
#     Edge 40, Type (0, 0), BuildingBlock: UVAHIK_clean_linker_0, # of connection points: 2
#     Edge 41, Type (0, 0), BuildingBlock: UVAHIK_clean_linker_0, # of connection points: 2
#     Edge 42, Type (0, 0), BuildingBlock: UVAHIK_clean_linker_0, # of connection points: 2
#     Edge 43, Type (0, 0), BuildingBlock: UVAHIK_clean_linker_0, # of connection points: 2
#     Edge 44, Type (0, 0), BuildingBlock: UVAHIK_clean_linker_0, # of connection points: 2
#     Edge 45, Type (0, 0), BuildingBlock: UVAHIK_clean_linker_0, # of connection points: 2
#     Edge 46, Type (0, 0), BuildingBlock: UVAHIK_clean_linker_0, # of connection points: 2
#     Edge 47, Type (0, 0), BuildingBlock: UVAHIK_clean_linker_0, # of connection points: 2
#     Edge 48, Type (0, 0), BuildingBlock: UVAHIK_clean_linker_0, # of connection points: 2
#     Edge 49, Type (0, 0), BuildingBlock: UVAHIK_clean_linker_0, # of connection points: 2
#     Edge 50, Type (0, 0), BuildingBlock: UVAHIK_clean_linker_0, # of connection points: 2
#     Edge 51, Type (0, 0), BuildingBlock: UVAHIK_clean_linker_0, # of connection points: 2
#     Edge 52, Type (0, 0), BuildingBlock: UVAHIK_clean_linker_0, # of connection points: 2
#     Edge 53, Type (0, 0), BuildingBlock: UVAHIK_clean_linker_0, # of connection points: 2
#     Edge 54, Type (0, 0), BuildingBlock: UVAHIK_clean_linker_0, # of connection points: 2
#     Edge 55, Type (0, 0), BuildingBlock: UVAHIK_clean_linker_0, # of connection points: 2
# Relax obj value: 0.157
# Max RMSD: 0.165
# Mean RMSD: 0.158
data_MOF--net-fnj--node1-XOMCOT_clean_sbu_1--edge1-UVAHIK_clean_linker_0
_symmetry_space_group_name_H-M    P1
_symmetry_Int_Tables_number       1
_symmetry_cell_setting            triclinic
loop_
_symmetry_equiv_pos_as_xyz
'x, y, z'
_cell_length_a     95.818244
_cell_length_b     95.805121
_cell_length_c     21.986193
_cell_angle_alpha  95.116607
_cell_angle_beta   95.114029
_cell_angle_gamma 90.099628
loop_
_atom_site_label
_atom_site_type_symbol
_atom_site_fract_x
_atom_site_fract_y
_atom_site_fract_z
_atom_type_partial_charge
C0 C 0.39363 0.02364 0.16148 0.0
C1 C 0.39261 0.02223 0.22266 0.0
N2 N 0.39746 0.03413 0.25507 0.0
N3 N 0.39895 0.03642 0.15535 0.0
C4 C 0.40128 0.04252 0.21312 0.0
H5 H 0.3908 0.0158 0.12391 0.0
Co6 Co 0.40276 0.04366 0.08283 0.0
C7 C 0.3905 0.07201 0.08955 0.0
O8 O 0.38818 0.07062 0.02952 0.0
N9 N 0.40727 0.05096 0.00938 0.0
C10 C 0.41772 0.06449 0.94907 0.0
C11 C 0.41597 0.06207 0.00857 0.0
C12 C 0.40421 0.04664 0.94926 0.0
N13 N 0.41028 0.05477 0.91168 0.0
O14 O 0.42184 0.04674 0.11401 0.0
H15 H 0.42064 0.06818 0.04901 0.0
H16 H 0.39803 0.0375 0.9325 0.0
O17 O 0.39707 0.06237 0.11682 0.0
C18 C 0.42863 0.03535 0.10792 0.0
O19 O 0.42158 0.02369 0.09042 0.0
N20 N 0.38422 0.03928 0.05108 0.0
C21 C 0.35783 0.02941 0.00314 0.0
C22 C 0.35915 0.04022 0.05048 0.0
C23 C 0.37249 0.04486 0.07463 0.0
C24 C 0.38302 0.02787 0.00932 0.0
C25 C 0.36994 0.02307 0.98304 0.0
H26 H 0.37327 0.05243 0.11404 0.0
H27 H 0.39232 0.0223 0.99712 0.0
H28 H 0.40567 0.05295 0.22413 0.0
H29 H 0.38889 0.01305 0.24186 0.0
H30 H 0.42388 0.07288 0.9347 0.0
H31 H 0.34998 0.04484 0.06934 0.0
H32 H 0.36928 0.01412 0.94906 0.0
C33 C 0.26155 0.18537 0.38807 0.0
C34 C 0.26364 0.18583 0.45093 0.0
N35 N 0.25107 0.18476 0.47341 0.0
N36 N 0.24775 0.18389 0.37084 0.0
C37 C 0.24162 0.18368 0.42369 0.0
H38 H 0.26959 0.18599 0.35684 0.0
Co39 Co 0.23953 0.18264 0.29098 0.0
C40 C 0.216 0.16216 0.28811 0.0
O41 O 0.21968 0.15692 0.23464 0.0
N42 N 0.23104 0.18187 0.20939 0.0
C43 C 0.21495 0.18515 0.13233 0.0
C44 C 0.21752 0.18524 0.19487 0.0
C45 C 0.23653 0.18017 0.15455 0.0
N46 N 0.22696 0.18202 0.1071 0.0
O47 O 0.23165 0.20108 0.30633 0.0
H48 H 0.21007 0.18801 0.22799 0.0
H49 H 0.24738 0.17801 0.14879 0.0
O50 O 0.22294 0.17263 0.31671 0.0
C51 C 0.24016 0.20918 0.28419 0.0
O52 O 0.25102 0.20355 0.25924 0.0
N53 N 0.24927 0.16583 0.27532 0.0
C54 C 0.2694 0.14517 0.25711 0.0
C55 C 0.25812 0.14283 0.29174 0.0
C56 C 0.2482 0.15343 0.30107 0.0
C57 C 0.26068 0.16846 0.24527 0.0
C58 C 0.27062 0.15824 0.23428 0.0
H59 H 0.24014 0.15184 0.33116 0.0
H60 H 0.26244 0.17885 0.23203 0.0
H61 H 0.23041 0.18298 0.42562 0.0
H62 H 0.27369 0.18667 0.4777 0.0
H63 H 0.20518 0.18781 0.1076 0.0
H64 H 0.25712 0.13303 0.31211 0.0
H65 H 0.27954 0.16079 0.21019 0.0
C66 C 0.09947 0.02265 0.43933 0.0
C67 C 0.09903 0.02056 0.37648 0.0
N68 N 0.10017 0.03312 0.35401 0.0
N69 N 0.101 0.03645 0.45656 0.0
C70 C 0.10126 0.04257 0.40372 0.0
H71 H 0.0988 0.01462 0.47056 0.0
Co72 Co 0.10222 0.04464 0.53643 0.0
C73 C 0.12268 0.06817 0.54004 0.0
O74 O 0.12787 0.06438 0.59339 0.0
N75 N 0.10295 0.0531 0.61806 0.0
C76 C 0.09963 0.06916 0.69513 0.0
C77 C 0.09952 0.0666 0.63259 0.0
C78 C 0.10469 0.04761 0.67288 0.0
N79 N 0.10282 0.05716 0.72034 0.0
O80 O 0.08378 0.05252 0.52107 0.0
H81 H 0.09672 0.07405 0.59949 0.0
H82 H 0.10692 0.03677 0.67865 0.0
O83 O 0.11224 0.06127 0.51097 0.0
C84 C 0.07567 0.044 0.54313 0.0
O85 O 0.08128 0.03311 0.56791 0.0
N86 N 0.11903 0.0349 0.55209 0.0
C87 C 0.13972 0.01479 0.57027 0.0
C88 C 0.14204 0.02608 0.53562 0.0
C89 C 0.13143 0.03599 0.52632 0.0
C90 C 0.11642 0.02348 0.58211 0.0
C91 C 0.12666 0.01356 0.5931 0.0
H92 H 0.133 0.04406 0.49626 0.0
H93 H 0.10603 0.0217 0.59536 0.0
H94 H 0.10202 0.05378 0.40179 0.0
H95 H 0.09816 0.01051 0.34972 0.0
H96 H 0.09694 0.07892 0.71988 0.0
H97 H 0.15184 0.02709 0.51526 0.0
H98 H 0.12413 0.00463 0.61721 0.0
C99 C 0.26061 0.88721 0.66365 0.0
C100 C 0.26201 0.88826 0.60252 0.0
N101 N 0.24976 0.88442 0.57054 0.0
N102 N 0.24748 0.88289 0.67021 0.0
C103 C 0.24115 0.88115 0.61267 0.0
H104 H 0.2687 0.88933 0.70088 0.0
Co105 Co 0.24013 0.87953 0.74303 0.0
C106 C 0.21252 0.89337 0.73818 0.0
O107 O 0.2142 0.8957 0.79818 0.0
N108 N 0.2327 0.87551 0.81666 0.0
C109 C 0.21874 0.86582 0.87745 0.0
C110 C 0.22123 0.86733 0.81785 0.0
C111 C 0.23713 0.87857 0.87662 0.0
N112 N 0.22876 0.87293 0.91453 0.0
O113 O 0.23593 0.86064 0.71161 0.0
H114 H 0.2149 0.86284 0.77762 0.0
H115 H 0.24647 0.8845 0.89292 0.0
O116 O 0.22174 0.8863 0.71014 0.0
C117 C 0.24704 0.85342 0.71802 0.0
O118 O 0.2589 0.86003 0.73668 0.0
N119 N 0.2457 0.89775 0.77481 0.0
C120 C 0.25916 0.92326 0.81353 0.0
C121 C 0.24725 0.92269 0.77147 0.0
C122 C 0.24088 0.9098 0.75158 0.0
C123 C 0.25758 0.8981 0.81388 0.0
C124 C 0.26425 0.91075 0.83519 0.0
H125 H 0.23277 0.90953 0.71432 0.0
H126 H 0.26226 0.88839 0.82655 0.0
H127 H 0.23042 0.87759 0.60195 0.0
H128 H 0.27143 0.89129 0.58301 0.0
H129 H 0.21009 0.86008 0.89209 0.0
H130 H 0.24342 0.932 0.75111 0.0
H131 H 0.27358 0.91063 0.86676 0.0
C132 C 0.60393 0.04013 0.90826 0.0
C133 C 0.60491 0.04161 0.84715 0.0
N134 N 0.60147 0.02925 0.81515 0.0
N135 N 0.60005 0.02684 0.91478 0.0
C136 C 0.59851 0.0205 0.85723 0.0
H137 H 0.60579 0.04826 0.94548 0.0
Co138 Co 0.59704 0.01934 0.9877 0.0
C139 C 0.61134 0.992 0.98182 0.0
O140 O 0.61417 0.9938 0.04159 0.0
N141 N 0.5934 0.01176 0.06136 0.0
C142 C 0.58422 0.99752 0.12243 0.0
C143 C 0.58559 1.00003 0.06276 0.0
C144 C 0.59636 0.01631 0.12124 0.0
N145 N 0.59101 0.00778 0.15932 0.0
O146 O 0.57817 0.0148 0.95706 0.0
H147 H 0.58125 0.99359 0.02263 0.0
H148 H 0.60198 0.02585 0.13729 0.0
O149 O 0.60405 1.00114 0.95433 0.0
C150 C 0.57078 0.02578 0.964 0.0
O151 O 0.57722 0.03773 0.98259 0.0
N152 N 0.61518 0.02528 0.01881 0.0
C153 C 0.64021 0.03976 0.05534 0.0
C154 C 0.64003 0.02764 0.01469 0.0
C155 C 0.62734 0.02073 0.99578 0.0
C156 C 0.61518 0.03724 0.05716 0.0
C157 C 0.62759 0.04446 0.07724 0.0
H158 H 0.6273 0.01244 0.95932 0.0
H159 H 0.60534 0.04163 0.06979 0.0
H160 H 0.59532 0.00966 0.84646 0.0
H161 H 0.60762 0.05113 0.82768 0.0
H162 H 0.57875 0.98872 0.13724 0.0
H163 H 0.64945 0.02406 0.99449 0.0
H164 H 0.62721 0.05394 0.10778 0.0
C165 C 0.74026 0.88351 0.67456 0.0
C166 C 0.73851 0.88344 0.61182 0.0
N167 N 0.75123 0.88251 0.59009 0.0
N168 N 0.75404 0.88274 0.69255 0.0
C169 C 0.76044 0.88206 0.64013 0.0
H170 H 0.73199 0.88399 0.70502 0.0
Co171 Co 0.76216 0.88207 0.77242 0.0
C172 C 0.78633 0.90198 0.78229 0.0
O173 O 0.78306 0.90624 0.83768 0.0
N174 N 0.77059 0.88093 0.853 0.0
C175 C 0.78672 0.87596 0.92732 0.0
C176 C 0.78387 0.87655 0.86524 0.0
C177 C 0.76551 0.88261 0.90873 0.0
N178 N 0.77512 0.87974 0.95456 0.0
O179 O 0.76955 0.86371 0.75026 0.0
H180 H 0.79103 0.87377 0.83085 0.0
H181 H 0.75498 0.88574 0.91642 0.0
O182 O 0.77898 0.89223 0.75057 0.0
C183 C 0.75926 0.85531 0.75307 0.0
O184 O 0.74713 0.86068 0.76576 0.0
N185 N 0.7529 0.89876 0.79489 0.0
C186 C 0.73252 0.91891 0.81807 0.0
C187 C 0.74407 0.92209 0.78636 0.0
C188 C 0.75414 0.91176 0.77453 0.0
C189 C 0.7414 0.89547 0.82302 0.0
C190 C 0.73133 0.90537 0.83632 0.0
H191 H 0.76236 0.914 0.74622 0.0
H192 H 0.73965 0.88475 0.83238 0.0
H193 H 0.77164 0.88091 0.63875 0.0
H194 H 0.7286 0.88412 0.58454 0.0
H195 H 0.79642 0.87258 0.95037 0.0
H196 H 0.74511 0.9323 0.7696 0.0
H197 H 0.72225 0.90218 0.85792 0.0
C198 C 0.90456 0.04198 0.64236 0.0
C199 C 0.90486 0.04408 0.70516 0.0
N200 N 0.90337 0.03154 0.72748 0.0
N201 N 0.90276 0.02822 0.62499 0.0
C202 C 0.90221 0.02211 0.67771 0.0
H203 H 0.90552 0.05 0.61127 0.0
Co204 Co 0.90158 0.02006 0.54506 0.0
C205 C 0.88075 0.99684 0.54034 0.0
O206 O 0.87575 1.00072 0.48687 0.0
N207 N 0.90089 0.01163 0.46343 0.0
C208 C 0.90405 0.99554 0.38625 0.0
C209 C 0.90424 0.99811 0.44882 0.0
C210 C 0.89908 0.01712 0.40862 0.0
N211 N 0.90086 0.00754 0.36111 0.0
O212 O 0.91986 0.01187 0.56101 0.0
H213 H 0.90699 0.99064 0.48188 0.0
H214 H 0.89683 0.02795 0.40289 0.0
O215 O 0.89122 0.00358 0.56992 0.0
C216 C 0.92815 0.02031 0.53948 0.0
O217 O 0.92275 0.03131 0.51485 0.0
N218 N 0.88499 0.03009 0.52883 0.0
C219 C 0.86493 0.05084 0.51067 0.0
C220 C 0.86211 0.03945 0.54402 0.0
C221 C 0.87242 0.02923 0.55341 0.0
C222 C 0.88803 0.04152 0.49974 0.0
C223 C 0.87815 0.05178 0.48893 0.0
H224 H 0.87048 0.0211 0.58268 0.0
H225 H 0.89853 0.04305 0.48713 0.0
H226 H 0.90119 0.01092 0.67952 0.0
H227 H 0.90589 0.05411 0.73197 0.0
H228 H 0.90662 0.98575 0.36139 0.0
H229 H 0.85219 0.03861 0.56356 0.0
H230 H 0.88111 0.06074 0.46603 0.0
C231 C 0.74186 0.17862 0.41928 0.0
C232 C 0.74021 0.17808 0.48048 0.0
N233 N 0.75244 0.18187 0.51301 0.0
N234 N 0.7551 0.18263 0.41299 0.0
C235 C 0.76128 0.18457 0.4708 0.0
H236 H 0.73384 0.17644 0.38184 0.0
Co237 Co 0.76268 0.18585 0.34027 0.0
C238 C 0.78948 0.17067 0.34451 0.0
O239 O 0.78754 0.16802 0.28468 0.0
N240 N 0.77042 0.18971 0.26684 0.0
C241 C 0.78508 0.1987 0.2068 0.0
C242 C 0.78248 0.19706 0.26622 0.0
C243 C 0.76576 0.18734 0.20674 0.0
N244 N 0.77451 0.1926 0.16945 0.0
O245 O 0.76777 0.20448 0.37278 0.0
H246 H 0.78905 0.20097 0.30673 0.0
H247 H 0.75619 0.18189 0.18965 0.0
O248 O 0.78059 0.17816 0.37269 0.0
C249 C 0.75693 0.21213 0.36817 0.0
O250 O 0.74474 0.20602 0.35103 0.0
N251 N 0.75621 0.16808 0.30697 0.0
C252 C 0.74194 0.14362 0.25863 0.0
C253 C 0.75349 0.14307 0.30226 0.0
C254 C 0.76034 0.15547 0.32683 0.0
C255 C 0.74449 0.16882 0.26775 0.0
C256 C 0.73749 0.15675 0.24141 0.0
H257 H 0.76841 0.1549 0.36389 0.0
H258 H 0.74039 0.17895 0.25766 0.0
H259 H 0.77195 0.18834 0.48162 0.0
H260 H 0.7307 0.17513 0.49935 0.0
H261 H 0.7939 0.20421 0.19232 0.0
H262 H 0.75686 0.13324 0.31924 0.0
H263 H 0.72854 0.1578 0.20847 0.0
C264 C 0.89673 0.52443 0.6567 0.0
C265 C 0.89575 0.52294 0.7178 0.0
N266 N 0.89961 0.53516 0.75005 0.0
N267 N 0.90103 0.5376 0.65043 0.0
C268 C 0.90282 0.54384 0.70812 0.0
H269 H 0.89457 0.51639 0.61931 0.0
Co270 Co 0.90418 0.5451 0.57763 0.0
C271 C 0.89084 0.57296 0.58559 0.0
O272 O 0.88795 0.5715 0.52581 0.0
N273 N 0.90795 0.55266 0.50408 0.0
C274 C 0.91753 0.56661 0.443 0.0
C275 C 0.91612 0.56413 0.50267 0.0
C276 C 0.90481 0.54821 0.4442 0.0
N277 N 0.9104 0.55657 0.4061 0.0
O278 O 0.9232 0.54899 0.60766 0.0
H279 H 0.9207 0.57042 0.54282 0.0
H280 H 0.89891 0.53883 0.42816 0.0
O281 O 0.89784 0.56347 0.61205 0.0
C282 C 0.93025 0.53779 0.60036 0.0
O283 O 0.92346 0.52603 0.58175 0.0
N284 N 0.88583 0.53981 0.54703 0.0
C285 C 0.86034 0.52608 0.51157 0.0
C286 C 0.86093 0.53825 0.55202 0.0
C287 C 0.87384 0.54477 0.57045 0.0
C288 C 0.8854 0.52783 0.50858 0.0
C289 C 0.87276 0.52098 0.48912 0.0
H290 H 0.87418 0.55306 0.60695 0.0
H291 H 0.89507 0.52313 0.49556 0.0
H292 H 0.90636 0.55458 0.71909 0.0
H293 H 0.89274 0.51349 0.73708 0.0
H294 H 0.92329 0.57523 0.4282 0.0
H295 H 0.85166 0.54212 0.57258 0.0
H296 H 0.8728 0.51143 0.45879 0.0
C297 C 0.76315 0.68119 0.91003 0.0
C298 C 0.76488 0.68122 0.97275 0.0
N299 N 0.75216 0.68225 0.99444 0.0
N300 N 0.74939 0.6821 0.89199 0.0
C301 C 0.74297 0.6828 0.94437 0.0
H302 H 0.77144 0.68068 0.87964 0.0
Co303 Co 0.74129 0.68299 0.81218 0.0
C304 C 0.71718 0.66299 0.80092 0.0
O305 O 0.72051 0.65894 0.7454 0.0
N306 N 0.73288 0.68434 0.7317 0.0
C307 C 0.71675 0.68946 0.65765 0.0
C308 C 0.71961 0.68878 0.71967 0.0
C309 C 0.73794 0.68272 0.67591 0.0
N310 N 0.72833 0.68568 0.63023 0.0
O311 O 0.73386 0.70127 0.83528 0.0
H312 H 0.71247 0.69151 0.75416 0.0
H313 H 0.74845 0.67954 0.66804 0.0
O314 O 0.72449 0.67268 0.8333 0.0
C315 C 0.74414 0.70972 0.83319 0.0
O316 O 0.75631 0.70442 0.82068 0.0
N317 N 0.7506 0.66639 0.7888 0.0
C318 C 0.77092 0.64633 0.76323 0.0
C319 C 0.75941 0.64298 0.79487 0.0
C320 C 0.74938 0.65327 0.80793 0.0
C321 C 0.76209 0.66985 0.76095 0.0
C322 C 0.77213 0.66 0.74648 0.0
H323 H 0.74116 0.65087 0.83603 0.0
H324 H 0.76382 0.68063 0.75246 0.0
H325 H 0.73178 0.68406 0.94572 0.0
H326 H 0.77477 0.68045 6e-05 0.0
H327 H 0.70705 0.69287 0.63475 0.0
H328 H 0.75836 0.63266 0.81052 0.0
H329 H 0.78118 0.66329 0.72499 0.0
C330 C 0.60381 0.52107 0.92223 0.0
C331 C 0.60379 0.51933 0.85952 0.0
N332 N 0.60278 0.53206 0.83782 0.0
N333 N 0.60294 0.53483 0.94025 0.0
C334 C 0.60225 0.54126 0.88787 0.0
H335 H 0.60431 0.51279 0.95264 0.0
Co336 Co 0.60205 0.54289 0.02007 0.0
C337 C 0.62192 0.56707 0.03188 0.0
O338 O 0.62597 0.56361 0.0872 0.0
N339 N 0.60069 0.55125 0.10062 0.0
C340 C 0.59549 0.56733 0.17472 0.0
C341 C 0.59615 0.56448 0.11268 0.0
C342 C 0.60239 0.54619 0.1564 0.0
N343 N 0.59939 0.55578 0.20209 0.0
O344 O 0.58372 0.55024 0.99721 0.0
H345 H 0.59334 0.57161 0.07822 0.0
H346 H 0.60567 0.53571 0.16425 0.0
O347 O 0.61227 0.55979 -0.0009 0.0
C348 C 0.57532 0.53993 -0.00048 0.0
O349 O 0.58068 0.52779 0.01205 0.0
N350 N 0.61873 0.53366 0.04312 0.0
C351 C 0.63894 0.51335 0.06666 0.0
C352 C 0.64211 0.52493 0.03515 0.0
C353 C 0.63175 0.53496 0.02311 0.0
C354 C 0.61544 0.52213 0.07108 0.0
C355 C 0.62537 0.51209 0.08454 0.0
H356 H 0.634 0.5432 0.99491 0.0
H357 H 0.60471 0.52034 0.08017 0.0
H358 H 0.60101 0.55245 0.88651 0.0
H359 H 0.60454 0.50944 0.83223 0.0
H360 H 0.59201 0.577 0.19765 0.0
H361 H 0.65234 0.52603 0.01869 0.0
H362 H 0.62219 0.50298 0.10597 0.0
C363 C 0.76174 0.38656 0.1552 0.0
C364 C 0.76338 0.38717 0.09402 0.0
N365 N 0.75129 0.38296 0.06135 0.0
N366 N 0.74863 0.38211 0.16132 0.0
C367 C 0.74253 0.37997 0.10345 0.0
H368 H 0.76968 0.38902 0.19275 0.0
Co369 Co 0.74117 0.37865 0.23398 0.0
C370 C 0.71384 0.3929 0.22919 0.0
O371 O 0.71562 0.39549 0.28908 0.0
N372 N 0.73357 0.37454 0.30738 0.0
C373 C 0.71926 0.36501 0.36738 0.0
C374 C 0.72179 0.36675 0.30797 0.0
C375 C 0.73815 0.37707 0.36751 0.0
N376 N 0.7296 0.3715 0.40477 0.0
O377 O 0.73671 0.35987 0.20172 0.0
H378 H 0.71536 0.3626 0.26744 0.0
H379 H 0.74752 0.38287 0.38464 0.0
O380 O 0.72299 0.38573 0.2012 0.0
C381 C 0.74775 0.3525 0.20631 0.0
O382 O 0.7598 0.35893 0.22303 0.0
N383 N 0.747 0.39666 0.26701 0.0
C384 C 0.76022 0.42171 0.31507 0.0
C385 C 0.74871 0.42174 0.27091 0.0
C386 C 0.74241 0.40906 0.2465 0.0
C387 C 0.75871 0.39643 0.30668 0.0
C388 C 0.76518 0.40879 0.33289 0.0
H389 H 0.73438 0.40928 0.20904 0.0
H390 H 0.76321 0.38649 0.31724 0.0
H391 H 0.732 0.37585 0.09251 0.0
H392 H 0.77279 0.39044 0.07527 0.0
H393 H 0.71064 0.35918 0.38184 0.0
H394 H 0.74497 0.4314 0.25341 0.0
H395 H 0.77413 0.40814 0.36622 0.0
C396 C 0.10555 0.54245 0.41294 0.0
C397 C 0.10644 0.54417 0.35202 0.0
N398 N 0.10388 0.53168 0.31932 0.0
N399 N 0.10248 0.52895 0.4189 0.0
C400 C 0.10148 0.52266 0.36126 0.0
H401 H 0.10669 0.55061 0.45037 0.0
Co402 Co 0.09908 0.5214 0.49111 0.0
C403 C 0.11276 0.49365 0.48524 0.0
O404 O 0.1147 0.4948 0.54538 0.0
N405 N 0.09502 0.51381 0.5645 0.0
C406 C 0.08462 0.50052 0.62588 0.0
C407 C 0.08617 0.50286 0.56611 0.0
C408 C 0.09862 0.51794 0.62439 0.0
N409 N 0.09246 0.51006 0.66267 0.0
O410 O 0.08025 0.51713 0.45881 0.0
H411 H 0.08108 0.4969 0.52613 0.0
H412 H 0.10563 0.5265 0.6404 0.0
O413 O 0.106 0.50317 0.45798 0.0
C414 C 0.07298 0.52818 0.4661 0.0
O415 O 0.0795 0.53999 0.48646 0.0
N416 N 0.11715 0.5271 0.52365 0.0
C417 C 0.14235 0.54012 0.57088 0.0
C418 C 0.14225 0.52838 0.52792 0.0
C419 C 0.1295 0.52218 0.50388 0.0
C420 C 0.11705 0.53904 0.56203 0.0
C421 C 0.12948 0.54544 0.5878 0.0
H422 H 0.12966 0.51394 0.46728 0.0
H423 H 0.10715 0.54363 0.57277 0.0
H424 H 0.09884 0.51169 0.3505 0.0
H425 H 0.10837 0.55399 0.33344 0.0
H426 H 0.07796 0.4926 0.64079 0.0
H427 H 0.15187 0.52435 0.51111 0.0
H428 H 0.12895 0.55456 0.62033 0.0
C429 C 0.24231 0.37894 0.18732 0.0
C430 C 0.24011 0.37847 0.12454 0.0
N431 N 0.25248 0.38072 0.10196 0.0
N432 N 0.25596 0.3816 0.20445 0.0
C433 C 0.26192 0.38251 0.15159 0.0
H434 H 0.23443 0.37753 0.21861 0.0
Co435 Co 0.26394 0.38343 0.2846 0.0
C436 C 0.28717 0.40421 0.2882 0.0
O437 O 0.28303 0.40956 0.34066 0.0
N438 N 0.27211 0.38476 0.36652 0.0
C439 C 0.28793 0.38209 0.44518 0.0
C440 C 0.28559 0.38152 0.38246 0.0
C441 C 0.26639 0.3869 0.42068 0.0
N442 N 0.27581 0.38541 0.46908 0.0
O443 O 0.27222 0.3651 0.27165 0.0
H444 H 0.29318 0.37852 0.35024 0.0
H445 H 0.25549 0.38912 0.42522 0.0
O446 O 0.28053 0.39359 0.25926 0.0
C447 C 0.26386 0.35694 0.29441 0.0
O448 O 0.2529 0.36246 0.31895 0.0
N449 N 0.25377 0.40007 0.29758 0.0
C450 C 0.23205 0.41943 0.30236 0.0
C451 C 0.24416 0.42238 0.27416 0.0
C452 C 0.25481 0.41234 0.27071 0.0
C453 C 0.24199 0.39716 0.32467 0.0
C454 C 0.23115 0.40671 0.32837 0.0
H455 H 0.2633 0.41412 0.24318 0.0
H456 H 0.24055 0.38691 0.34002 0.0
H457 H 0.27301 0.38426 0.14959 0.0
H458 H 0.2301 0.37682 0.09794 0.0
H459 H 0.29761 0.37961 0.47104 0.0
H460 H 0.24501 0.43195 0.25192 0.0
H461 H 0.22188 0.40394 0.34967 0.0
C462 C 0.40141 0.54414 0.15781 0.0
C463 C 0.40145 0.54589 0.22054 0.0
N464 N 0.40238 0.53316 0.24226 0.0
N465 N 0.40219 0.53036 0.13981 0.0
C466 C 0.40284 0.52395 0.19222 0.0
H467 H 0.40095 0.55242 0.12738 0.0
Co468 Co 0.40292 0.52225 0.05995 0.0
C469 C 0.38298 0.49809 0.04953 0.0
O470 O 0.3788 0.50139 0.9941 0.0
N471 N 0.40412 0.51384 0.97939 0.0
C472 C 0.40913 0.49772 0.9051 0.0
C473 C 0.40853 0.50057 0.96718 0.0
C474 C 0.40243 0.51892 0.92366 0.0
N475 N 0.40533 0.50931 0.87784 0.0
O476 O 0.42125 0.51484 0.08238 0.0
H477 H 0.41131 0.49341 0.00158 0.0
H478 H 0.39927 0.52944 0.91595 0.0
O479 O 0.39271 0.50544 0.08152 0.0
C480 C 0.42967 0.52512 0.07975 0.0
O481 O 0.42433 0.53726 0.0671 0.0
N482 N 0.38626 0.53154 0.03725 0.0
C483 C 0.36616 0.55195 0.01373 0.0
C484 C 0.36292 0.54038 0.04522 0.0
C485 C 0.37323 0.5303 0.05726 0.0
C486 C 0.38961 0.54305 0.00932 0.0
C487 C 0.37973 0.55314 0.9959 0.0
H488 H 0.37094 0.52206 0.0854 0.0
H489 H 0.40035 0.54479 0.00019 0.0
H490 H 0.40399 0.51275 0.19359 0.0
H491 H 0.40077 0.5558 0.24782 0.0
H492 H 0.41252 0.48802 0.88206 0.0
H493 H 0.35268 0.53932 0.06165 0.0
H494 H 0.38297 0.56223 0.97448 0.0
C495 C 0.24335 0.67715 0.91005 0.0
C496 C 0.24155 0.67656 0.97107 0.0
N497 N 0.25363 0.68063 0.00421 0.0
N498 N 0.25654 0.68144 0.90449 0.0
C499 C 0.26253 0.68355 0.96254 0.0
H500 H 0.23548 0.67472 0.87219 0.0
Co501 Co 0.26416 0.68445 0.83183 0.0
C502 C 0.29224 0.67162 0.84182 0.0
O503 O 0.29093 0.66855 0.78213 0.0
N504 N 0.27178 0.6881 0.75826 0.0
C505 C 0.2856 0.69774 0.6967 0.0
C506 C 0.28318 0.69637 0.75652 0.0
C507 C 0.26729 0.6849 0.69846 0.0
N508 N 0.27556 0.69054 0.66026 0.0
O509 O 0.26773 0.70359 0.86077 0.0
H510 H 0.28937 0.70116 0.79651 0.0
H511 H 0.25814 0.67864 0.68236 0.0
O512 O 0.28257 0.6785 0.86752 0.0
C513 C 0.25648 0.71052 0.85237 0.0
O514 O 0.24483 0.70359 0.83331 0.0
N515 N 0.25921 0.66594 0.80225 0.0
C516 C 0.24599 0.64014 0.76803 0.0
C517 C 0.2581 0.64106 0.80878 0.0
C518 C 0.26435 0.65413 0.8266 0.0
C519 C 0.24728 0.66518 0.76343 0.0
C520 C 0.24067 0.65238 0.74466 0.0
H521 H 0.27259 0.65472 0.86337 0.0
H522 H 0.24242 0.67472 0.74963 0.0
H523 H 0.27311 0.68751 0.97391 0.0
H524 H 0.23207 0.67333 0.98937 0.0
H525 H 0.29388 0.70388 0.68126 0.0
H526 H 0.26213 0.63193 0.83 0.0
H527 H 0.23114 0.65216 0.71412 0.0
C528 C 0.41927 0.05897 0.81251 0.0
C529 C 0.40901 0.0533 0.84544 0.0
C530 C 0.41801 0.05755 0.7484 0.0
C531 C 0.39201 0.04957 0.61403 0.0
H532 H 0.42504 0.04191 0.52713 0.0
C533 C 0.38913 0.03095 0.35612 0.0
C534 C 0.39859 0.03707 0.32075 0.0
C535 C 0.39033 0.0336 0.4199 0.0
C536 C 0.41574 0.0442 0.55075 0.0
H537 H 0.38924 0.04187 0.83602 0.0
H538 H 0.38732 0.03898 0.7248 0.0
H539 H 0.42731 0.04514 0.63887 0.0
H540 H 0.41678 0.05071 0.32469 0.0
H541 H 0.41888 0.05536 0.43625 0.0
H542 H 0.38043 0.04835 0.52576 0.0
C543 C 0.39624 0.04472 0.74847 0.0
C544 C 0.41704 0.04608 0.61481 0.0
C545 C 0.39746 0.0462 0.8125 0.0
C546 C 0.40926 0.04595 0.35061 0.0
C547 C 0.41054 0.04849 0.41449 0.0
C548 C 0.39071 0.04759 0.55003 0.0
C549 C 0.40649 0.05039 0.71555 0.0
C550 C 0.40518 0.04872 0.64729 0.0
C551 C 0.4011 0.04233 0.44982 0.0
C552 C 0.40255 0.04483 0.51771 0.0
H553 H 0.42836 0.0644 0.83613 0.0
H554 H 0.42602 0.06219 0.7246 0.0
H555 H 0.38269 0.05186 0.6374 0.0
H556 H 0.38072 0.02419 0.33443 0.0
H557 H 0.38297 0.02861 0.44592 0.0
C558 C 0.21856 0.17783 0.99739 0.0
C559 C 0.22933 0.18186 0.04324 0.0
C560 C 0.22076 0.17796 0.93541 0.0
C561 C 0.2427 0.19437 0.83246 0.0
H562 H 0.23054 0.16311 0.71536 0.0
C563 C 0.25827 0.19004 0.58417 0.0
C564 C 0.24834 0.1846 0.53696 0.0
C565 C 0.25575 0.1897 0.64564 0.0
C566 C 0.23382 0.17202 0.74724 0.0
H567 H 0.25082 0.18935 0.05997 0.0
H568 H 0.25467 0.18955 0.95184 0.0
H569 H 0.22646 0.16246 0.82305 0.0
H570 H 0.22794 0.17445 0.51821 0.0
H571 H 0.22337 0.17431 0.62511 0.0
H572 H 0.24989 0.20404 0.75691 0.0
C573 C 0.24452 0.18628 0.96386 0.0
C574 C 0.23152 0.17162 0.80898 0.0
C575 C 0.24236 0.18602 0.02577 0.0
C576 C 0.23578 0.17889 0.55302 0.0
C577 C 0.23323 0.17863 0.61455 0.0
C578 C 0.24491 0.19482 0.7707 0.0
C579 C 0.23373 0.18228 0.91801 0.0
C580 C 0.236 0.18276 0.85229 0.0
C581 C 0.2432 0.184 0.66169 0.0
C582 C 0.24057 0.18362 0.7273 0.0
H583 H 0.20845 0.17448 0.00949 0.0
H584 H 0.21222 0.17491 0.9011 0.0
H585 H 0.24608 0.20321 0.86463 0.0
H586 H 0.26799 0.19466 0.57386 0.0
H587 H 0.26376 0.19377 0.68063 0.0
C588 C 0.10609 0.04839 0.27438 0.0
C589 C 0.10034 0.03584 0.29046 0.0
C590 C 0.10635 0.05093 0.21284 0.0
C591 C 0.09012 0.03926 0.05678 0.0
H592 H 0.1225 0.05764 0.00426 0.0
C593 C 0.09888 0.04176 0.80169 0.0
C594 C 0.10301 0.05479 0.7842 0.0
C595 C 0.09865 0.0396 0.86361 0.0
C596 C 0.11334 0.0526 0.01838 0.0
H597 H 0.09024 0.01621 0.25359 0.0
H598 H 0.09114 0.02042 0.14682 0.0
H599 H 0.12187 0.05357 0.11197 0.0
H600 H 0.11038 0.07569 0.81787 0.0
H601 H 0.11 0.07192 0.92628 0.0
H602 H 0.08172 0.0381 0.96288 0.0
C603 C 0.09523 0.02842 0.18179 0.0
C604 C 0.11294 0.0503 0.08013 0.0
C605 C 0.09489 0.02592 0.24327 0.0
C606 C 0.10705 0.06557 0.83001 0.0
C607 C 0.10695 0.06338 0.89199 0.0
C608 C 0.09057 0.04146 0.99501 0.0
C609 C 0.10096 0.04096 0.16573 0.0
C610 C 0.10133 0.04358 0.10012 0.0
C611 C 0.10265 0.05039 0.90942 0.0
C612 C 0.10218 0.04814 0.97513 0.0
H613 H 0.11055 0.05622 0.30918 0.0
H614 H 0.1107 0.06078 0.20227 0.0
H615 H 0.08089 0.0343 0.07062 0.0
H616 H 0.09555 0.0333 0.76751 0.0
H617 H 0.09539 0.02945 0.87566 0.0
C618 C 0.23713 0.87359 0.47494 0.0
C619 C 0.24668 0.88362 0.505 0.0
C620 C 0.23452 0.87254 0.41111 0.0
C621 C 0.23679 0.89229 0.27629 0.0
H622 H 0.23736 0.85558 0.18671 0.0
C623 C 0.23798 0.88538 0.01361 0.0
C624 C 0.23029 0.87419 0.98075 0.0
C625 C 0.2395 0.88657 0.07765 0.0
C626 C 0.23695 0.8659 0.21097 0.0
H627 H 0.26071 0.90065 0.49192 0.0
H628 H 0.25618 0.89882 0.38047 0.0
H629 H 0.24054 0.85768 0.29841 0.0
H630 H 0.2182 0.85544 0.9902 0.0
H631 H 0.22047 0.85777 0.10159 0.0
H632 H 0.23309 0.90054 0.18913 0.0
C633 C 0.25071 0.89177 0.40627 0.0
C634 C 0.2388 0.86709 0.275 0.0
C635 C 0.2534 0.89273 0.46999 0.0
C636 C 0.22409 0.86427 0.01372 0.0
C637 C 0.22554 0.86551 0.07779 0.0
C638 C 0.23484 0.8911 0.2123 0.0
C639 C 0.24131 0.8816 0.37612 0.0
C640 C 0.23884 0.8803 0.30829 0.0
C641 C 0.23329 0.87666 0.11058 0.0
C642 C 0.23499 0.8779 0.17879 0.0
H643 H 0.23188 0.86635 0.50062 0.0
H644 H 0.22715 0.86466 0.38911 0.0
H645 H 0.23658 0.9026 0.30081 0.0
H646 H 0.24275 0.89334 0.99006 0.0
H647 H 0.24569 0.8952 0.10131 0.0
C648 C 0.59112 0.0163 0.7194 0.0
C649 C 0.60081 0.02619 0.74963 0.0
C650 C 0.59019 0.01369 0.65558 0.0
C651 C 0.60994 0.01669 0.5213 0.0
H652 H 0.57327 0.016 0.43088 0.0
C653 C 0.60311 0.0175 0.25839 0.0
C654 C 0.5922 0.00941 0.22553 0.0
C655 C 0.60422 0.01912 0.32242 0.0
C656 C 0.58358 0.01595 0.45538 0.0
H657 H 0.61736 0.0408 0.73687 0.0
H658 H 0.61574 0.03626 0.62545 0.0
H659 H 0.57519 0.01925 0.54255 0.0
H660 H 0.57387 0.9967 0.23499 0.0
H661 H 0.57609 0.99913 0.34634 0.0
H662 H 0.61836 0.01327 0.4344 0.0
C663 C 0.60886 0.03054 0.65111 0.0
C664 C 0.58467 0.01784 0.51939 0.0
C665 C 0.6097 0.03324 0.71481 0.0
C666 C 0.58249 0.0029 0.2585 0.0
C667 C 0.58365 0.00444 0.32254 0.0
C668 C 0.60886 0.01469 0.45732 0.0
C669 C 0.59903 0.02081 0.62079 0.0
C670 C 0.59787 0.01832 0.55297 0.0
C671 C 0.59452 0.0126 0.35533 0.0
C672 C 0.59566 0.01439 0.42352 0.0
H673 H 0.58405 0.01079 0.74494 0.0
H674 H 0.58259 0.00606 0.63345 0.0
H675 H 0.62024 0.01683 0.54606 0.0
H676 H 0.61091 0.02252 0.23484 0.0
H677 H 0.61263 0.02562 0.34608 0.0
C678 C 0.76754 0.88578 0.51093 0.0
C679 C 0.75426 0.8819 0.52672 0.0
C680 C 0.77038 0.88529 0.44944 0.0
C681 C 0.75734 0.86963 0.29414 0.0
H682 H 0.77917 0.89941 0.2389 0.0
C683 C 0.75995 0.87716 0.03821 0.0
C684 C 0.77317 0.88001 0.01891 0.0
C685 C 0.75811 0.87721 0.10054 0.0
C686 C 0.77318 0.89094 0.25379 0.0
H687 H 0.73361 0.87428 0.48966 0.0
H688 H 0.7384 0.87383 0.38303 0.0
H689 H 0.77515 0.89977 0.34711 0.0
H690 H 0.79478 0.88536 0.04996 0.0
H691 H 0.79157 0.88543 0.15906 0.0
H692 H 0.75519 0.86095 0.20061 0.0
C693 C 0.74672 0.87706 0.41811 0.0
C694 C 0.7709 0.89113 0.31581 0.0
C695 C 0.74391 0.8775 0.47946 0.0
C696 C 0.7845 0.88301 0.06341 0.0
C697 C 0.78263 0.88317 0.12584 0.0
C698 C 0.75955 0.8695 0.23216 0.0
C699 C 0.75999 0.88093 0.40225 0.0
C700 C 0.76287 0.88052 0.33669 0.0
C701 C 0.76943 0.8802 0.14505 0.0
C702 C 0.76742 0.88019 0.21123 0.0
H703 H 0.77573 0.88936 0.54594 0.0
H704 H 0.78076 0.88822 0.43894 0.0
H705 H 0.75136 0.86113 0.30875 0.0
H706 H 0.75106 0.87465 0.00511 0.0
H707 H 0.74778 0.87501 0.11395 0.0
C708 C 0.90449 0.02292 0.27934 0.0
C709 C 0.90046 0.0099 0.29717 0.0
C710 C 0.90442 0.0251 0.21733 0.0
C711 C 0.90449 0.00594 0.06305 0.0
H712 H 0.89368 0.04204 0.00799 0.0
C713 C 0.89696 0.01637 0.80666 0.0
C714 C 0.90294 0.02885 0.79094 0.0
C715 C 0.89643 0.01386 0.86811 0.0
C716 C 0.89682 0.03194 0.02279 0.0
H717 H 0.89294 0.98903 0.26404 0.0
H718 H 0.89255 0.99286 0.15566 0.0
H719 H 0.89284 0.03803 0.11553 0.0
H720 H 0.91328 0.04833 0.82841 0.0
H721 H 0.91212 0.04403 0.93519 0.0
H722 H 0.9083 0.99984 0.96987 0.0
C723 C 0.89608 1.00132 0.18955 0.0
C724 C 0.89638 0.02964 0.08446 0.0
C725 C 0.89626 0.99912 0.25162 0.0
C726 C 0.90838 0.03872 0.83842 0.0
C727 C 0.90774 0.03626 0.89978 0.0
C728 C 0.90482 0.00821 0.00125 0.0
C729 C 0.90022 0.01433 0.17158 0.0
C730 C 0.90031 0.01664 0.10551 0.0
C731 C 0.90176 0.02382 0.9153 0.0
C732 C 0.90108 0.02126 0.98057 0.0
H733 H 0.90802 0.03135 0.31333 0.0
H734 H 0.90794 0.03516 0.20533 0.0
H735 H 0.9078 0.99587 0.07771 0.0
H736 H 0.89246 0.0086 0.77167 0.0
H737 H 0.89162 0.00424 0.87872 0.0
C738 C 0.76901 0.18276 0.60671 0.0
C739 C 0.75523 0.18331 0.57895 0.0
C740 C 0.77165 0.1842 0.67062 0.0
C741 C 0.75549 0.1972 0.81213 0.0
H742 H 0.78318 0.17382 0.89205 0.0
C743 C 0.75933 0.19168 0.07212 0.0
C744 C 0.77278 0.19197 0.10344 0.0
C745 C 0.75765 0.19105 0.00814 0.0
C746 C 0.77552 0.18053 0.87034 0.0
H747 H 0.73346 0.18597 0.59732 0.0
H748 H 0.738 0.18804 0.70804 0.0
H749 H 0.77944 0.1719 0.78032 0.0
H750 H 0.79502 0.1917 0.09207 0.0
H751 H 0.79209 0.19064 0.98016 0.0
H752 H 0.75142 0.20565 0.90221 0.0
C753 C 0.74681 0.18672 0.68053 0.0
C754 C 0.77339 0.17945 0.8063 0.0
C755 C 0.74418 0.18532 0.61679 0.0
C756 C 0.78453 0.1916 0.06929 0.0
C757 C 0.78285 0.19086 0.00522 0.0
C758 C 0.75757 0.19822 0.87608 0.0
C759 C 0.76057 0.18622 0.70834 0.0
C760 C 0.76327 0.1877 0.77639 0.0
C761 C 0.76939 0.19061 0.97396 0.0
C762 C 0.76753 0.18983 0.90592 0.0
H763 H 0.77776 0.18108 0.57917 0.0
H764 H 0.78239 0.18388 0.69044 0.0
H765 H 0.74782 0.20393 0.79069 0.0
H766 H 0.75008 0.1921 0.09707 0.0
H767 H 0.74714 0.19074 0.98537 0.0
C768 C 0.91909 0.56116 0.30686 0.0
C769 C 0.90918 0.55495 0.33987 0.0
C770 C 0.91791 0.55961 0.24281 0.0
C771 C 0.89251 0.54997 0.10802 0.0
H772 H 0.92608 0.54444 0.0228 0.0
C773 C 0.89127 0.53138 0.85042 0.0
C774 C 0.90037 0.53817 0.81562 0.0
C775 C 0.89216 0.53406 0.91414 0.0
C776 C 0.91663 0.54612 0.04596 0.0
H777 H 0.89012 0.54237 0.33062 0.0
H778 H 0.88836 0.53926 0.21936 0.0
H779 H 0.92802 0.5477 0.13448 0.0
H780 H 0.91756 0.55307 0.82041 0.0
H781 H 0.91913 0.55776 0.93193 0.0
H782 H 0.88111 0.54809 0.01928 0.0
C783 C 0.89693 0.54553 0.243 0.0
C784 C 0.91773 0.54802 0.10997 0.0
C785 C 0.89806 0.54716 0.30704 0.0
C786 C 0.91033 0.54777 0.84592 0.0
C787 C 0.91131 0.55035 0.90976 0.0
C788 C 0.8914 0.54797 0.04404 0.0
C789 C 0.90684 0.55174 0.21005 0.0
C790 C 0.90568 0.54993 0.14184 0.0
C791 C 0.90225 0.5435 0.94452 0.0
C792 C 0.90344 0.54599 0.01236 0.0
H793 H 0.92788 0.56712 0.33033 0.0
H794 H 0.92564 0.56468 0.21899 0.0
H795 H 0.88303 0.55167 0.13093 0.0
H796 H 0.88339 0.52405 0.82832 0.0
H797 H 0.8851 0.52854 0.93976 0.0
C798 C 0.74346 0.68818 0.54639 0.0
C799 C 0.73023 0.6854 0.56584 0.0
C800 C 0.74528 0.68809 0.48402 0.0
C801 C 0.73007 0.67433 0.33099 0.0
H802 H 0.75214 0.70389 0.27547 0.0
C803 C 0.73579 0.67919 0.07363 0.0
C804 C 0.74912 0.68292 0.05781 0.0
C805 C 0.73294 0.67977 0.13513 0.0
C806 C 0.74608 0.69547 0.29024 0.0
H807 H 0.70859 0.68017 0.53502 0.0
H808 H 0.71176 0.68004 0.42586 0.0
H809 H 0.74831 0.70422 0.38366 0.0
H810 H 0.76982 0.69039 0.09483 0.0
H811 H 0.76501 0.69098 0.20146 0.0
H812 H 0.72803 0.66543 0.23778 0.0
C813 C 0.72072 0.68226 0.45899 0.0
C814 C 0.74387 0.69568 0.35225 0.0
C815 C 0.71888 0.68246 0.52146 0.0
C816 C 0.7595 0.68727 0.10505 0.0
C817 C 0.75667 0.6878 0.1664 0.0
C818 C 0.73235 0.67407 0.26894 0.0
C819 C 0.73393 0.68513 0.43962 0.0
C820 C 0.73592 0.68507 0.37339 0.0
C821 C 0.74336 0.68407 0.18229 0.0
C822 C 0.74047 0.68459 0.24786 0.0
H823 H 0.75238 0.69064 0.5794 0.0
H824 H 0.75561 0.69021 0.4705 0.0
H825 H 0.72401 0.66594 0.34604 0.0
H826 H 0.72758 0.67565 0.03863 0.0
H827 H 0.72254 0.67694 0.14565 0.0
C828 C 0.60586 0.54841 0.7586 0.0
C829 C 0.60211 0.53508 0.77445 0.0
C830 C 0.60529 0.55124 0.6971 0.0
C831 C 0.58961 0.53808 0.54202 0.0
H832 H 0.61917 0.56011 0.48624 0.0
C833 C 0.59699 0.54063 0.28594 0.0
C834 C 0.5997 0.55387 0.26647 0.0
C835 C 0.59708 0.53882 0.34831 0.0
C836 C 0.61077 0.55406 0.50128 0.0
H837 H 0.59462 0.51438 0.73749 0.0
H838 H 0.59406 0.51918 0.63085 0.0
H839 H 0.61965 0.55612 0.59452 0.0
H840 H 0.60486 0.57553 0.29723 0.0
H841 H 0.60501 0.57237 0.4064 0.0
H842 H 0.58088 0.53583 0.44856 0.0
C843 C 0.59724 0.52752 0.66589 0.0
C844 C 0.61102 0.5518 0.56334 0.0
C845 C 0.59776 0.5247 0.72724 0.0
C846 C 0.60261 0.56524 0.31082 0.0
C847 C 0.60282 0.5634 0.37329 0.0
C848 C 0.58942 0.54027 0.47999 0.0
C849 C 0.60098 0.54082 0.64997 0.0
C850 C 0.60049 0.5437 0.5844 0.0
C851 C 0.59999 0.55018 0.39267 0.0
C852 C 0.60004 0.54821 0.45888 0.0
H853 H 0.6094 0.55662 0.79358 0.0
H854 H 0.60813 0.56165 0.68654 0.0
H855 H 0.58118 0.53204 0.55677 0.0
H856 H 0.59456 0.5317 0.25294 0.0
H857 H 0.59499 0.52848 0.36186 0.0
C858 C 0.71956 0.37213 0.50479 0.0
C859 C 0.73131 0.37219 0.47079 0.0
C860 C 0.72122 0.37293 0.56887 0.0
C861 C 0.74676 0.3665 0.69843 0.0
H862 H 0.72396 0.392 0.79352 0.0
C863 C 0.75967 0.37983 0.95775 0.0
C864 C 0.74855 0.38145 0.99538 0.0
C865 C 0.7571 0.37835 0.89398 0.0
C866 C 0.73028 0.38467 0.76773 0.0
H867 H 0.75401 0.37288 0.47744 0.0
H868 H 0.75691 0.37435 0.58916 0.0
H869 H 0.72029 0.38995 0.68178 0.0
H870 H 0.72594 0.38288 0.99479 0.0
H871 H 0.72143 0.37992 0.8835 0.0
H872 H 0.75672 0.36113 0.78403 0.0
C873 C 0.74641 0.37366 0.56626 0.0
C874 C 0.72818 0.38352 0.70368 0.0
C875 C 0.74475 0.37297 0.50227 0.0
C876 C 0.73476 0.38151 0.96741 0.0
C877 C 0.73218 0.37998 0.90348 0.0
C878 C 0.7488 0.36758 0.76239 0.0
C879 C 0.73467 0.37367 0.60029 0.0
C880 C 0.7365 0.37452 0.66834 0.0
C881 C 0.74332 0.37837 0.86596 0.0
C882 C 0.74069 0.37679 0.79789 0.0
H883 H 0.70907 0.37165 0.48188 0.0
H884 H 0.71197 0.37282 0.59381 0.0
H885 H 0.75317 0.35929 0.67248 0.0
H886 H 0.77041 0.37956 0.97738 0.0
H887 H 0.76596 0.37734 0.86663 0.0
C888 C 0.09837 0.5246 0.76061 0.0
C889 C 0.09369 0.5118 0.72892 0.0
C890 C 0.09953 0.52633 0.82456 0.0
C891 C 0.1015 0.50644 0.96243 0.0
H892 H 0.09213 0.54245 0.04292 0.0
C893 C 0.09658 0.51657 0.22393 0.0
C894 C 0.10319 0.52882 0.2534 0.0
C895 C 0.09558 0.51407 0.16005 0.0
C896 C 0.09488 0.53237 0.02103 0.0
H897 H 0.08665 0.49074 0.74068 0.0
H898 H 0.08815 0.49394 0.852 0.0
H899 H 0.0897 0.53887 0.93143 0.0
H900 H 0.11434 0.54776 0.23767 0.0
H901 H 0.11226 0.54351 0.12667 0.0
H902 H 0.10639 0.49993 0.05266 0.0
C903 C 0.0912 0.50257 0.82724 0.0
C904 C 0.09354 0.53031 0.95713 0.0
C905 C 0.09016 0.50079 0.76317 0.0
C906 C 0.10891 0.53837 0.21708 0.0
C907 C 0.10777 0.53593 0.15328 0.0
C908 C 0.10269 0.50846 0.02648 0.0
C909 C 0.09589 0.51537 0.85875 0.0
C910 C 0.09695 0.51736 0.92693 0.0
C911 C 0.10103 0.5238 0.12413 0.0
C912 C 0.0995 0.52148 0.05633 0.0
H913 H 0.10102 0.53342 0.73631 0.0
H914 H 0.1034 0.53627 0.84716 0.0
H915 H 0.10441 0.4964 0.94082 0.0
H916 H 0.09189 0.50901 0.24976 0.0
H917 H 0.09023 0.50468 0.13865 0.0
C918 C 0.24531 0.37536 0.99124 0.0
C919 C 0.255 0.38129 0.03837 0.0
C920 C 0.2476 0.37609 0.92976 0.0
C921 C 0.2681 0.39544 0.82828 0.0
H922 H 0.25742 0.36388 0.71023 0.0
C923 C 0.28377 0.39034 0.57881 0.0
C924 C 0.27321 0.38588 0.5327 0.0
C925 C 0.28147 0.39024 0.64065 0.0
C926 C 0.26034 0.37282 0.74261 0.0
H927 H 0.27473 0.39273 0.05689 0.0
H928 H 0.27895 0.39352 0.94997 0.0
H929 H 0.2539 0.36253 0.81793 0.0
H930 H 0.25195 0.37778 0.5152 0.0
H931 H 0.24792 0.3776 0.62325 0.0
H932 H 0.27479 0.40557 0.75265 0.0
C933 C 0.26943 0.38852 0.96062 0.0
C934 C 0.2583 0.37207 0.80434 0.0
C935 C 0.26709 0.38789 0.02219 0.0
C936 C 0.26024 0.38143 0.54968 0.0
C937 C 0.25798 0.38118 0.61149 0.0
C938 C 0.27026 0.39612 0.76656 0.0
C939 C 0.25969 0.38266 0.9136 0.0
C940 C 0.26209 0.3834 0.84798 0.0
C941 C 0.2686 0.38553 0.65758 0.0
C942 C 0.26635 0.38484 0.72309 0.0
H943 H 0.23596 0.37005 0.00156 0.0
H944 H 0.23976 0.37162 0.89487 0.0
H945 H 0.27094 0.40445 0.86035 0.0
H946 H 0.29383 0.39391 0.56697 0.0
H947 H 0.28987 0.39357 0.67522 0.0
C948 C 0.40785 0.52447 0.79415 0.0
C949 C 0.40503 0.51125 0.81349 0.0
C950 C 0.40778 0.52631 0.7318 0.0
C951 C 0.39402 0.51121 0.57864 0.0
H952 H 0.42379 0.53306 0.5235 0.0
C953 C 0.39912 0.51685 0.32143 0.0
C954 C 0.40298 0.53014 0.30563 0.0
C955 C 0.39962 0.51401 0.38293 0.0
C956 C 0.4153 0.52707 0.53816 0.0
H957 H 0.39971 0.48963 0.78252 0.0
H958 H 0.39959 0.49283 0.67339 0.0
H959 H 0.42401 0.52924 0.63165 0.0
H960 H 0.4106 0.55079 0.34267 0.0
H961 H 0.41105 0.546 0.4493 0.0
H962 H 0.38517 0.50923 0.48536 0.0
C963 C 0.40185 0.50178 0.70659 0.0
C964 C 0.41545 0.52486 0.60015 0.0
C965 C 0.40203 0.49992 0.76902 0.0
C966 C 0.40738 0.54049 0.35289 0.0
C967 C 0.40783 0.53768 0.41424 0.0
C968 C 0.39382 0.51349 0.51661 0.0
C969 C 0.40479 0.51498 0.68734 0.0
C970 C 0.40477 0.51699 0.62115 0.0
C971 C 0.40398 0.52441 0.4301 0.0
C972 C 0.40441 0.52153 0.49566 0.0
H973 H 0.41035 0.53338 0.82722 0.0
H974 H 0.40995 0.53664 0.71836 0.0
H975 H 0.38557 0.50521 0.59359 0.0
H976 H 0.39554 0.50866 0.28643 0.0
H977 H 0.3967 0.50363 0.39344 0.0
C978 C 0.27006 0.6817 0.09834 0.0
C979 C 0.2563 0.6819 0.07017 0.0
C980 C 0.27257 0.68292 0.16226 0.0
C981 C 0.25578 0.69455 0.30382 0.0
H982 H 0.28447 0.67202 0.38241 0.0
C983 C 0.26024 0.68835 0.56327 0.0
C984 C 0.27372 0.68954 0.59427 0.0
C985 C 0.25846 0.68764 0.49931 0.0
C986 C 0.27651 0.67847 0.36105 0.0
H987 H 0.23441 0.68371 0.08785 0.0
H988 H 0.23874 0.68535 0.19858 0.0
H989 H 0.28076 0.6704 0.27071 0.0
H990 H 0.2959 0.69068 0.58253 0.0
H991 H 0.29278 0.68941 0.47057 0.0
H992 H 0.25139 0.70241 0.39428 0.0
C993 C 0.24764 0.68449 0.17139 0.0
C994 C 0.2744 0.67758 0.29705 0.0
C995 C 0.24513 0.68334 0.10762 0.0
C996 C 0.28538 0.68988 0.5599 0.0
C997 C 0.28361 0.68903 0.49586 0.0
C998 C 0.25782 0.69535 0.36773 0.0
C999 C 0.26138 0.68433 0.19959 0.0
C1000 C 0.26395 0.68555 0.26764 0.0
C1001 C 0.27011 0.68798 0.46493 0.0
C1002 C 0.26816 0.68728 0.39703 0.0
H1003 H 0.27891 0.68045 0.07113 0.0
H1004 H 0.28331 0.68289 0.1824 0.0
H1005 H 0.24784 0.70106 0.28279 0.0
H1006 H 0.25105 0.68822 0.58848 0.0
H1007 H 0.24794 0.68671 0.4767 0.0
C1008 C 0.3781 0.0796 0.1832 0.0
C1009 C 0.3815 0.08191 0.12382 0.0
C1010 C 0.36651 0.08625 0.2075 0.0
C1011 C 0.33245 0.09743 0.14953 0.0
H1012 H 0.32917 0.11938 0.30434 0.0
C1013 C 0.28526 0.13228 0.18819 0.0
C1014 C 0.28049 0.13464 0.24674 0.0
C1015 C 0.29716 0.12428 0.17914 0.0
C1016 C 0.32985 0.11302 0.26147 0.0
H1017 H 0.37645 0.09423 0.04682 0.0
H1018 H 0.35637 0.10571 0.0891 0.0
H1019 H 0.35195 0.10961 0.28075 0.0
H1020 H 0.2841 0.12998 0.34142 0.0
H1021 H 0.30489 0.11564 0.32539 0.0
H1022 H 0.31053 0.1006 0.12979 0.0
C1023 C 0.36246 0.09858 0.11624 0.0
C1024 C 0.34291 0.10752 0.24794 0.0
C1025 C 0.37401 0.09205 0.09223 0.0
C1026 C 0.2875 0.12824 0.29569 0.0
C1027 C 0.29949 0.12019 0.28663 0.0
C1028 C 0.31945 0.10273 0.16326 0.0
C1029 C 0.35821 0.09526 0.17272 0.0
C1030 C 0.34437 0.10005 0.19101 0.0
C1031 C 0.30461 0.11834 0.22836 0.0
C1032 C 0.31803 0.11096 0.21853 0.0
H1033 H 0.38364 0.07185 0.2088 0.0
H1034 H 0.36347 0.0836 0.25136 0.0
H1035 H 0.33325 0.09142 0.10585 0.0
H1036 H 0.28004 0.13705 0.14958 0.0
H1037 H 0.30083 0.12329 0.13381 0.0
C1038 C 0.13856 0.08917 0.55231 0.0
C1039 C 0.12989 0.07969 0.51337 0.0
C1040 C 0.14662 0.09924 0.52864 0.0
C1041 C 0.15185 0.11698 0.38718 0.0
H1042 H 0.18891 0.12455 0.46993 0.0
C1043 C 0.19546 0.14565 0.27823 0.0
C1044 C 0.20463 0.15494 0.31579 0.0
C1045 C 0.1855 0.13771 0.30329 0.0
C1046 C 0.17853 0.12275 0.44671 0.0
H1047 H 0.1227 0.07365 0.41851 0.0
H1048 H 0.13702 0.09109 0.37666 0.0
H1049 H 0.17331 0.10822 0.50967 0.0
H1050 H 0.21025 0.1633 0.40958 0.0
H1051 H 0.19282 0.14936 0.45369 0.0
H1052 H 0.15731 0.13132 0.32329 0.0
C1053 C 0.13742 0.09088 0.42593 0.0
C1054 C 0.16951 0.11334 0.46956 0.0
C1055 C 0.12919 0.08084 0.44984 0.0
C1056 C 0.20333 0.15631 0.37926 0.0
C1057 C 0.19341 0.14822 0.40454 0.0
C1058 C 0.16092 0.12635 0.36409 0.0
C1059 C 0.14647 0.10009 0.46502 0.0
C1060 C 0.15601 0.11027 0.44022 0.0
C1061 C 0.18443 0.13869 0.36688 0.0
C1062 C 0.17442 0.12934 0.3934 0.0
H1063 H 0.13925 0.08873 0.60155 0.0
H1064 H 0.15308 0.10632 0.56058 0.0
H1065 H 0.14151 0.11512 0.36366 0.0
H1066 H 0.19611 0.14431 0.22913 0.0
H1067 H 0.17893 0.13042 0.27279 0.0
C1068 C 0.19297 0.91043 0.73682 0.0
C1069 C 0.20282 0.90267 0.70457 0.0
C1070 C 0.18657 0.92206 0.71296 0.0
C1071 C 0.17743 0.94135 0.5805 0.0
H1072 H 0.18454 0.97389 0.69758 0.0
C1073 C 0.15665 0.99669 0.53174 0.0
C1074 C 0.15027 0.00373 0.58069 0.0
C1075 C 0.16472 0.98471 0.54091 0.0
C1076 C 0.18237 0.96493 0.6644 0.0
H1077 H 0.21257 0.90021 0.61887 0.0
H1078 H 0.20104 0.92053 0.57654 0.0
H1079 H 0.19375 0.95121 0.72197 0.0
H1080 H 0.14795 0.00428 0.67794 0.0
H1081 H 0.16178 0.98353 0.69393 0.0
H1082 H 0.16551 0.955 0.52396 0.0
C1083 C 0.1985 0.91762 0.62077 0.0
C1084 C 0.18768 0.95195 0.67839 0.0
C1085 C 0.20502 0.90595 0.64493 0.0
C1086 C 0.1527 0.99903 0.63933 0.0
C1087 C 0.16073 0.98716 0.6485 0.0
C1088 C 0.17193 0.95439 0.5667 0.0
C1089 C 0.18974 0.92613 0.65599 0.0
C1090 C 0.18499 0.93997 0.63732 0.0
C1091 C 0.16664 0.97966 0.59929 0.0
C1092 C 0.17405 0.96627 0.60928 0.0
H1093 H 0.19088 0.90809 0.78249 0.0
H1094 H 0.17963 0.92831 0.74047 0.0
H1095 H 0.17529 0.93226 0.548 0.0
H1096 H 0.15485 1.00003 0.48594 0.0
H1097 H 0.16924 0.97928 0.50215 0.0
C1098 C 0.33482 0.01867 0.01778 0.0
C1099 C 0.34398 0.02375 0.97842 0.0
C1100 C 0.32286 0.01104 0.99375 0.0
C1101 C 0.31147 0.98846 0.85474 0.0
H1102 H 0.27841 0.98378 0.94085 0.0
C1103 C 0.28175 0.93664 0.83205 0.0
C1104 C 0.26705 0.93658 0.82964 0.0
C1105 C 0.28929 0.94914 0.84479 0.0
C1106 C 0.28746 0.98511 0.91564 0.0
H1107 H 0.34738 0.02604 0.88384 0.0
H1108 H 0.32617 0.0132 0.84153 0.0
H1109 H 0.29403 0.00384 0.97137 0.0
H1110 H 0.24874 0.9496 0.83908 0.0
H1111 H 0.26201 0.97161 0.86059 0.0
H1112 H 0.30496 0.9698 0.79909 0.0
C1113 C 0.32841 0.01464 0.89084 0.0
C1114 C 0.29649 0.99651 0.93351 0.0
C1115 C 0.3405 0.02205 0.9149 0.0
C1116 C 0.26006 0.94934 0.84037 0.0
C1117 C 0.26764 0.96191 0.85307 0.0
C1118 C 0.30242 0.97718 0.83664 0.0
C1119 C 0.31978 0.00851 0.9299 0.0
C1120 C 0.30884 0.99805 0.90454 0.0
C1121 C 0.28234 0.96192 0.85492 0.0
C1122 C 0.29061 0.97509 0.86831 0.0
H1123 H 0.33739 0.01981 0.06699 0.0
H1124 H 0.31658 0.00636 0.02528 0.0
H1125 H 0.32093 0.98916 0.83163 0.0
H1126 H 0.28746 0.92705 0.82297 0.0
H1127 H 0.30062 0.94875 0.84704 0.0
C1128 C 0.71487 0.92969 0.88451 0.0
C1129 C 0.72094 0.92891 0.82842 0.0
C1130 C 0.70221 0.93657 0.89104 0.0
C1131 C 0.67773 0.96235 0.83365 0.0
H1132 H 0.6503 0.9395 0.89996 0.0
C1133 C 0.6235 0.98426 0.8879 0.0
C1134 C 0.62001 0.98191 0.947 0.0
C1135 C 0.63437 0.97675 0.86179 0.0
C1136 C 0.65782 0.94605 0.88157 0.0
H1137 H 0.71898 0.93566 0.73655 0.0
H1138 H 0.69685 0.94812 0.74872 0.0
H1139 H 0.67308 0.92977 0.87987 0.0
H1140 H 0.62438 0.96911 0.02274 0.0
H1141 H 0.64314 0.95609 0.9777 0.0
H1142 H 0.6627 0.97887 0.83803 0.0
C1143 C 0.70191 0.94318 0.78721 0.0
C1144 C 0.67087 0.94047 0.87004 0.0
C1145 C 0.7146 0.93615 0.78042 0.0
C1146 C 0.62683 0.97119 0.97721 0.0
C1147 C 0.63759 0.96367 0.95113 0.0
C1148 C 0.66468 0.96802 0.84585 0.0
C1149 C 0.69536 0.94298 0.84189 0.0
C1150 C 0.68109 0.94866 0.84752 0.0
C1151 C 0.64183 0.96666 0.89401 0.0
C1152 C 0.65471 0.96004 0.87155 0.0
H1153 H 0.71962 0.92442 0.92267 0.0
H1154 H 0.69756 0.93654 0.93418 0.0
H1155 H 0.68543 0.96887 0.81617 0.0
H1156 H 0.61848 0.99251 0.86352 0.0
H1157 H 0.63723 0.97917 0.81732 0.0
C1158 C 0.79896 0.90876 0.69258 0.0
C1159 C 0.79768 0.90959 0.75604 0.0
C1160 C 0.80893 0.91707 0.66868 0.0
C1161 C 0.84155 0.93855 0.71221 0.0
H1162 H 0.82945 0.95751 0.56858 0.0
C1163 C 0.87395 0.98407 0.62982 0.0
C1164 C 0.87332 0.98537 0.56641 0.0
C1165 C 0.86556 0.97407 0.65314 0.0
C1166 C 0.83316 0.95216 0.60817 0.0
H1167 H 0.80625 0.9195 0.84406 0.0
H1168 H 0.82349 0.93378 0.80272 0.0
H1169 H 0.81364 0.94113 0.60668 0.0
H1170 H 0.86389 0.97664 0.47782 0.0
H1171 H 0.84977 0.95914 0.51777 0.0
H1172 H 0.8611 0.9496 0.71369 0.0
C1173 C 0.81689 0.92675 0.7712 0.0
C1174 C 0.82403 0.94272 0.63008 0.0
C1175 C 0.80689 0.91858 0.79493 0.0
C1176 C 0.86454 0.97609 0.52699 0.0
C1177 C 0.8563 0.96607 0.55007 0.0
C1178 C 0.85075 0.94795 0.69006 0.0
C1179 C 0.81795 0.92628 0.70769 0.0
C1180 C 0.82804 0.93581 0.68258 0.0
C1181 C 0.8564 0.96507 0.61356 0.0
C1182 C 0.8467 0.95494 0.63768 0.0
H1183 H 0.79203 0.902 0.66123 0.0
H1184 H 0.80952 0.91631 0.61955 0.0
H1185 H 0.8451 0.93333 0.75241 0.0
H1186 H 0.88053 0.9911 0.66152 0.0
H1187 H 0.86591 0.97373 0.70233 0.0
C1188 C 0.84802 0.06891 0.55023 0.0
C1189 C 0.85485 0.0624 0.50131 0.0
C1190 C 0.84075 0.08147 0.54344 0.0
C1191 C 0.84216 0.11206 0.45701 0.0
H1192 H 0.80387 0.11974 0.49221 0.0
C1193 C 0.8101 0.15492 0.34767 0.0
C1194 C 0.79958 0.1619 0.37864 0.0
C1195 C 0.81783 0.14433 0.37401 0.0
C1196 C 0.81468 0.1179 0.48346 0.0
H1197 H 0.85838 0.06329 0.40567 0.0
H1198 H 0.84591 0.08515 0.39421 0.0
H1199 H 0.81447 0.09736 0.51572 0.0
H1200 H 0.78947 0.16378 0.46338 0.0
H1201 H 0.80318 0.14531 0.51002 0.0
H1202 H 0.84249 0.1324 0.42445 0.0
C1203 C 0.84636 0.08072 0.43801 0.0
C1204 C 0.8207 0.10505 0.49664 0.0
C1205 C 0.85346 0.06819 0.44455 0.0
C1206 C 0.79756 0.15865 0.43842 0.0
C1207 C 0.80529 0.14795 0.46482 0.0
C1208 C 0.83623 0.1249 0.4445 0.0
C1209 C 0.84032 0.08773 0.48783 0.0
C1210 C 0.83435 0.10186 0.48163 0.0
C1211 C 0.81527 0.14041 0.43218 0.0
C1212 C 0.82226 0.12782 0.45559 0.0
H1213 H 0.84896 0.06474 0.59459 0.0
H1214 H 0.8361 0.08666 0.58245 0.0
H1215 H 0.85281 0.10997 0.4462 0.0
H1216 H 0.81192 0.15718 0.30158 0.0
H1217 H 0.82529 0.1387 0.34708 0.0
C1218 C 0.71936 0.1312 0.22193 0.0
C1219 C 0.73401 0.13074 0.23351 0.0
C1220 C 0.71185 0.11943 0.19549 0.0
C1221 C 0.70951 0.08254 0.18285 0.0
H1222 H 0.68514 0.08737 0.03569 0.0
C1223 C 0.66618 0.04215 0.08336 0.0
C1224 C 0.65313 0.04835 0.0695 0.0
C1225 C 0.6783 0.05046 0.09607 0.0
C1226 C 0.69192 0.08583 0.07665 0.0
H1227 H 0.75219 0.11731 0.22824 0.0
H1228 H 0.73877 0.09642 0.18387 0.0
H1229 H 0.70264 0.10532 0.07354 0.0
H1230 H 0.64259 0.06801 0.05612 0.0
H1231 H 0.66349 0.08245 0.07965 0.0
H1232 H 0.69811 0.0635 0.18842 0.0
C1233 C 0.7333 0.1061 0.1945 0.0
C1234 C 0.70195 0.09604 0.09796 0.0
C1235 C 0.74091 0.11801 0.22013 0.0
C1236 C 0.65244 0.06294 0.06773 0.0
C1237 C 0.66448 0.0712 0.0802 0.0
C1238 C 0.69933 0.07233 0.16181 0.0
C1239 C 0.71875 0.10686 0.18111 0.0
C1240 C 0.71046 0.0947 0.15233 0.0
C1241 C 0.67754 0.06507 0.09442 0.0
C1242 C 0.69007 0.0742 0.10989 0.0
H1243 H 0.71361 0.14065 0.23347 0.0
H1244 H 0.70057 0.12013 0.1866 0.0
H1245 H 0.71597 0.08139 0.22509 0.0
H1246 H 0.66699 0.03091 0.08504 0.0
H1247 H 0.68824 0.04548 0.10686 0.0
C1248 C 0.78827 0.63583 0.69466 0.0
C1249 C 0.78241 0.63633 0.75117 0.0
C1250 C 0.80085 0.62892 0.68659 0.0
C1251 C 0.82536 0.60271 0.74018 0.0
H1252 H 0.85259 0.62563 0.67297 0.0
C1253 C 0.87915 0.58063 0.68084 0.0
C1254 C 0.88243 0.58308 0.62156 0.0
C1255 C 0.86845 0.58816 0.70811 0.0
C1256 C 0.84512 0.61906 0.69159 0.0
H1257 H 0.78464 0.6291 0.84215 0.0
H1258 H 0.80663 0.6166 0.82727 0.0
H1259 H 0.82999 0.63543 0.69548 0.0
H1260 H 0.87789 0.59613 0.54678 0.0
H1261 H 0.85942 0.60919 0.59385 0.0
H1262 H 0.84026 0.58611 0.73368 0.0
C1263 C 0.80148 0.62176 0.78965 0.0
C1264 C 0.83217 0.62468 0.7045 0.0
C1265 C 0.78886 0.62882 0.79798 0.0
C1266 C 0.8756 0.59396 0.5924 0.0
C1267 C 0.865 0.6015 0.61964 0.0
C1268 C 0.83831 0.597 0.72663 0.0
C1269 C 0.80783 0.62221 0.73459 0.0
C1270 C 0.82202 0.61647 0.72738 0.0
C1271 C 0.86095 0.59839 0.67692 0.0
C1272 C 0.8482 0.60501 0.70061 0.0
H1273 H 0.78342 0.64131 0.65739 0.0
H1274 H 0.80534 0.62914 0.64316 0.0
H1275 H 0.81772 0.59617 0.75789 0.0
H1276 H 0.88418 0.57228 0.70449 0.0
H1277 H 0.86574 0.58566 0.75269 0.0
C1278 C 0.69676 0.64624 0.78689 0.0
C1279 C 0.70583 0.65524 0.82642 0.0
C1280 C 0.68674 0.63796 0.80983 0.0
C1281 C 0.67916 0.62177 0.95002 0.0
H1282 H 0.64245 0.61468 0.86315 0.0
C1283 C 0.63813 0.58788 0.04786 0.0
C1284 C 0.62964 0.57857 0.00725 0.0
C1285 C 0.64651 0.59797 0.0261 0.0
C1286 C 0.6527 0.61639 0.88769 0.0
H1287 H 0.71121 0.6627 0.92158 0.0
H1288 H 0.69366 0.64821 0.9619 0.0
H1289 H 0.65853 0.63115 0.82635 0.0
H1290 H 0.62313 0.57287 0.91136 0.0
H1291 H 0.63795 0.5904 0.87297 0.0
H1292 H 0.67352 0.60686 0.01065 0.0
C1293 C 0.69439 0.64753 0.91286 0.0
C1294 C 0.66194 0.6259 0.86664 0.0
C1295 C 0.70439 0.65594 0.88974 0.0
C1296 C 0.62947 0.57991 0.94399 0.0
C1297 C 0.63798 0.59001 0.92203 0.0
C1298 C 0.66996 0.61222 0.9709 0.0
C1299 C 0.6855 0.63832 0.8732 0.0
C1300 C 0.67534 0.62871 0.89738 0.0
C1301 C 0.64681 0.59906 0.96282 0.0
C1302 C 0.65657 0.60935 0.94011 0.0
H1303 H 0.69752 0.64541 0.73784 0.0
H1304 H 0.68025 0.63093 0.77781 0.0
H1305 H 0.68945 0.62342 0.97432 0.0
H1306 H 0.63844 0.58729 0.09694 0.0
H1307 H 0.65281 0.60493 0.05922 0.0
C1308 C 0.6497 0.49567 0.13307 0.0
C1309 C 0.64899 0.50181 0.07716 0.0
C1310 C 0.65675 0.48311 0.13972 0.0
C1311 C 0.68306 0.45914 0.08259 0.0
H1312 H 0.66078 0.43129 0.14926 0.0
C1313 C 0.70588 0.40517 0.13589 0.0
C1314 C 0.70366 0.40159 0.19499 0.0
C1315 C 0.69819 0.41598 0.11015 0.0
C1316 C 0.66718 0.43893 0.13076 0.0
H1317 H 0.65598 0.50006 0.98572 0.0
H1318 H 0.66871 0.47811 0.99808 0.0
H1319 H 0.65062 0.45389 0.1292 0.0
H1320 H 0.69096 0.40574 0.27121 0.0
H1321 H 0.67764 0.42439 0.22679 0.0
H1322 H 0.69984 0.44439 0.08671 0.0
C1323 C 0.66361 0.48303 0.03636 0.0
C1324 C 0.66135 0.45188 0.11927 0.0
C1325 C 0.65641 0.49563 0.02946 0.0
C1326 C 0.69293 0.40827 0.22566 0.0
C1327 C 0.68524 0.41896 0.19995 0.0
C1328 C 0.68897 0.44618 0.09471 0.0
C1329 C 0.66339 0.47642 0.09085 0.0
C1330 C 0.66933 0.46225 0.09661 0.0
C1331 C 0.68806 0.42328 0.14274 0.0
C1332 C 0.6812 0.43606 0.12052 0.0
H1333 H 0.64429 0.50031 0.17103 0.0
H1334 H 0.65669 0.47841 0.18274 0.0
H1335 H 0.68942 0.46695 0.065 0.0
H1336 H 0.71412 0.40026 0.11116 0.0
H1337 H 0.70049 0.41891 0.06562 0.0
C1338 C 0.76012 0.44737 0.35248 0.0
C1339 C 0.76757 0.43492 0.34002 0.0
C1340 C 0.76721 0.45962 0.37777 0.0
C1341 C 0.79755 0.47121 0.47621 0.0
H1342 H 0.80243 0.50255 0.37966 0.0
C1343 C 0.84756 0.50327 0.50273 0.0
C1344 C 0.84722 0.5178 0.49868 0.0
C1345 C 0.83533 0.49528 0.49155 0.0
C1346 C 0.80089 0.49408 0.40794 0.0
H1347 H 0.78838 0.42588 0.34143 0.0
H1348 H 0.8005 0.44699 0.38777 0.0
H1349 H 0.78474 0.48443 0.34372 0.0
H1350 H 0.83382 0.53543 0.48051 0.0
H1351 H 0.81222 0.52129 0.46042 0.0
H1352 H 0.81399 0.48038 0.53917 0.0
C1353 C 0.78921 0.44719 0.37834 0.0
C1354 C 0.7908 0.48375 0.38735 0.0
C1355 C 0.78223 0.43509 0.35224 0.0
C1356 C 0.83433 0.52423 0.48385 0.0
C1357 C 0.82203 0.51617 0.47223 0.0
C1358 C 0.8075 0.48154 0.49701 0.0
C1359 C 0.78176 0.45948 0.39172 0.0
C1360 C 0.78954 0.47198 0.42012 0.0
C1361 C 0.82244 0.50161 0.4762 0.0
C1362 C 0.80975 0.4927 0.46156 0.0
H1363 H 0.74883 0.44759 0.34387 0.0
H1364 H 0.76133 0.46908 0.38765 0.0
H1365 H 0.79664 0.46221 0.5022 0.0
H1366 H 0.85729 0.49806 0.5151 0.0
H1367 H 0.83603 0.48405 0.49386 0.0
C1368 C 0.12985 0.47405 0.4822 0.0
C1369 C 0.12203 0.48404 0.45099 0.0
C1370 C 0.14109 0.46733 0.45633 0.0
C1371 C 0.17035 0.46528 0.41541 0.0
H1372 H 0.17072 0.44788 0.24951 0.0
C1373 C 0.22124 0.44288 0.32743 0.0
C1374 C 0.21985 0.42893 0.30205 0.0
C1375 C 0.2093 0.45099 0.33608 0.0
C1376 C 0.17078 0.45278 0.29587 0.0
H1377 H 0.11919 0.49388 0.36563 0.0
H1378 H 0.1388 0.48191 0.32002 0.0
H1379 H 0.14901 0.45818 0.28368 0.0
H1380 H 0.20509 0.41283 0.26161 0.0
H1381 H 0.18432 0.42694 0.27634 0.0
H1382 H 0.19194 0.45971 0.4284 0.0
C1383 C 0.13625 0.47944 0.36488 0.0
C1384 C 0.15838 0.4587 0.31529 0.0
C1385 C 0.12498 0.48624 0.39095 0.0
C1386 C 0.20642 0.42354 0.28177 0.0
C1387 C 0.19454 0.43166 0.28979 0.0
C1388 C 0.18273 0.45951 0.3959 0.0
C1389 C 0.14476 0.47035 0.39845 0.0
C1390 C 0.15797 0.46474 0.37573 0.0
C1391 C 0.1958 0.44533 0.31876 0.0
C1392 C 0.18305 0.45298 0.33627 0.0
H1393 H 0.12778 0.47197 0.52819 0.0
H1394 H 0.14725 0.4601 0.48264 0.0
H1395 H 0.17043 0.47009 0.46196 0.0
H1396 H 0.23149 0.44725 0.34344 0.0
H1397 H 0.2106 0.46155 0.35797 0.0
C1398 C 0.30024 0.41074 0.19913 0.0
C1399 C 0.29881 0.41143 0.26244 0.0
C1400 C 0.31036 0.41905 0.1761 0.0
C1401 C 0.33234 0.45136 0.22172 0.0
H1402 H 0.35141 0.43936 0.07824 0.0
C1403 C 0.37602 0.48546 0.13892 0.0
C1404 C 0.37532 0.48675 0.07549 0.0
C1405 C 0.36765 0.4755 0.1625 0.0
C1406 C 0.34613 0.44292 0.11823 0.0
H1407 H 0.30746 0.42082 0.35122 0.0
H1408 H 0.32516 0.43478 0.31182 0.0
H1409 H 0.33499 0.42341 0.11636 0.0
H1410 H 0.36554 0.47819 0.98717 0.0
H1411 H 0.35114 0.46097 0.02797 0.0
H1412 H 0.34345 0.47086 0.2236 0.0
C1413 C 0.31824 0.42829 0.27934 0.0
C1414 C 0.33664 0.43376 0.14003 0.0
C1415 C 0.30811 0.42014 0.3021 0.0
C1416 C 0.36638 0.47755 0.0363 0.0
C1417 C 0.35814 0.46756 0.05972 0.0
C1418 C 0.34187 0.46047 0.20016 0.0
C1419 C 0.31935 0.42817 0.21592 0.0
C1420 C 0.32957 0.43784 0.19214 0.0
C1421 C 0.35848 0.4665 0.1232 0.0
C1422 C 0.34887 0.45643 0.14794 0.0
H1423 H 0.2932 0.40422 0.16726 0.0
H1424 H 0.31079 0.41868 0.12695 0.0
H1425 H 0.32693 0.4551 0.26109 0.0
H1426 H 0.38275 0.49238 0.17048 0.0
H1427 H 0.36832 0.47491 0.21162 0.0
C1428 C 0.29984 0.66008 0.93753 0.0
C1429 C 0.30245 0.66347 0.87858 0.0
C1430 C 0.30747 0.64948 0.96514 0.0
C1431 C 0.33876 0.62658 0.94997 0.0
H1432 H 0.31584 0.59861 0.01238 0.0
C1433 C 0.35554 0.56966 0.94721 0.0
C1434 C 0.35616 0.56352 0.00311 0.0
C1435 C 0.34862 0.58229 0.94054 0.0
C1436 C 0.32239 0.60641 0.99579 0.0
H1437 H 0.31588 0.6593 0.80493 0.0
H1438 H 0.32911 0.64103 0.85257 0.0
H1439 H 0.30567 0.62119 0.98941 0.0
H1440 H 0.34911 0.56533 0.09444 0.0
H1441 H 0.33656 0.58739 0.08194 0.0
H1442 H 0.35524 0.61155 0.95348 0.0
C1443 C 0.32122 0.64643 0.87784 0.0
C1444 C 0.31662 0.61938 0.98296 0.0
C1445 C 0.31358 0.65691 0.85027 0.0
C1446 C 0.34875 0.56976 0.05072 0.0
C1447 C 0.34166 0.58242 0.04376 0.0
C1448 C 0.34444 0.61361 0.9621 0.0
C1449 C 0.31795 0.64221 0.93463 0.0
C1450 C 0.32463 0.62948 0.95822 0.0
C1451 C 0.342 0.58904 0.98932 0.0
C1452 C 0.33622 0.60326 0.98352 0.0
H1453 H 0.2913 0.66491 0.96054 0.0
H1454 H 0.30484 0.64664 0.00934 0.0
H1455 H 0.34533 0.6342 0.93235 0.0
H1456 H 0.36094 0.56498 0.90932 0.0
H1457 H 0.34876 0.587 0.89758 0.0
C1458 C 0.16789 0.53961 0.60981 0.0
C1459 C 0.15566 0.54728 0.59577 0.0
C1460 C 0.18022 0.54652 0.63529 0.0
C1461 C 0.19221 0.57646 0.73341 0.0
H1462 H 0.22325 0.58212 0.63618 0.0
C1463 C 0.22345 0.62692 0.76032 0.0
C1464 C 0.23796 0.62686 0.75576 0.0
C1465 C 0.21569 0.61455 0.74947 0.0
C1466 C 0.21487 0.58034 0.66465 0.0
H1467 H 0.14711 0.56826 0.59455 0.0
H1468 H 0.16837 0.5801 0.64117 0.0
H1469 H 0.20522 0.56439 0.59942 0.0
H1470 H 0.25581 0.6138 0.7372 0.0
H1471 H 0.24205 0.59194 0.71743 0.0
H1472 H 0.20135 0.59276 0.79726 0.0
C1473 C 0.16833 0.56878 0.63275 0.0
C1474 C 0.2046 0.57024 0.64359 0.0
C1475 C 0.15614 0.56197 0.60652 0.0
C1476 C 0.24461 0.6141 0.74088 0.0
C1477 C 0.23677 0.60165 0.72949 0.0
C1478 C 0.20248 0.58643 0.75465 0.0
C1479 C 0.18038 0.56111 0.64775 0.0
C1480 C 0.19292 0.56872 0.67666 0.0
C1481 C 0.22223 0.60178 0.73385 0.0
C1482 C 0.21352 0.58897 0.71897 0.0
H1483 H 0.16785 0.52828 0.60237 0.0
H1484 H 0.1895 0.54048 0.64649 0.0
H1485 H 0.18325 0.57537 0.75952 0.0
H1486 H 0.21808 0.63657 0.77273 0.0
H1487 H 0.20446 0.61504 0.75209 0.0
C1488 C 0.45116 0.0225 0.10994 0.0
C1489 C 0.44402 0.03526 0.10714 0.0
C1490 C 0.46509 0.02145 0.09632 0.0
C1491 C 0.48947 0.03768 0.00392 0.0
H1492 H 0.51725 0.01494 0.08708 0.0
C1493 C 0.54772 0.03757 0.95898 0.0
C1494 C 0.55538 0.02516 0.96333 0.0
C1495 C 0.53371 0.03808 0.9714 0.0
C1496 C 0.50953 0.02112 0.0627 0.0
H1497 H 0.4461 0.05714 0.09139 0.0
H1498 H 0.47057 0.05536 0.06803 0.0
H1499 H 0.49437 0.01826 0.12656 0.0
H1500 H 0.55417 0.0033 0.9806 0.0
H1501 H 0.52948 0.00411 0.00169 0.0
H1502 H 0.50459 0.04053 0.93999 0.0
C1503 C 0.4653 0.04611 0.08006 0.0
C1504 C 0.49646 0.02311 0.08562 0.0
C1505 C 0.45135 0.04719 0.09417 0.0
C1506 C 0.5485 0.01299 0.97657 0.0
C1507 C 0.53443 0.01351 0.98941 0.0
C1508 C 0.50252 0.03566 0.98092 0.0
C1509 C 0.47218 0.03313 0.07925 0.0
C1510 C 0.4863 0.03147 0.05665 0.0
C1511 C 0.52701 0.02619 0.9887 0.0
C1512 C 0.51274 0.02742 0.01019 0.0
H1513 H 0.44578 0.01312 0.1199 0.0
H1514 H 0.47004 0.01129 0.09592 0.0
H1515 H 0.48176 0.04391 0.97971 0.0
H1516 H 0.55275 0.04712 0.94878 0.0
H1517 H 0.52837 0.04803 0.97077 0.0
C1518 C 0.2673 0.33291 0.24166 0.0
C1519 C 0.2657 0.34162 0.29534 0.0
C1520 C 0.26503 0.31836 0.24034 0.0
C1521 C 0.26046 0.28922 0.34041 0.0
H1522 H 0.23731 0.27245 0.19919 0.0
C1523 C 0.23692 0.23322 0.33735 0.0
C1524 C 0.2385 0.22452 0.2836 0.0
C1525 C 0.23924 0.24777 0.33883 0.0
C1526 C 0.24385 0.27692 0.23889 0.0
H1527 H 0.26125 0.34195 0.39026 0.0
H1528 H 0.25756 0.31683 0.38845 0.0
H1529 H 0.24544 0.29662 0.20075 0.0
H1530 H 0.24299 0.22422 0.18873 0.0
H1531 H 0.24678 0.24933 0.19081 0.0
H1532 H 0.25887 0.26951 0.37855 0.0
C1533 C 0.26057 0.32101 0.34731 0.0
C1534 C 0.24861 0.29079 0.23957 0.0
C1535 C 0.2627 0.33546 0.3484 0.0
C1536 C 0.24156 0.2307 0.23065 0.0
C1537 C 0.24374 0.24515 0.23189 0.0
C1538 C 0.2557 0.27535 0.33973 0.0
C1539 C 0.26124 0.31227 0.29281 0.0
C1540 C 0.25698 0.29716 0.29036 0.0
C1541 C 0.24307 0.25387 0.28643 0.0
C1542 C 0.24733 0.26898 0.28894 0.0
H1543 H 0.26935 0.33742 0.19984 0.0
H1544 H 0.26582 0.31193 0.19773 0.0
H1545 H 0.267 0.29369 0.38012 0.0
H1546 H 0.23482 0.2287 0.37908 0.0
H1547 H 0.23846 0.25419 0.38146 0.0
C1548 C 0.05156 0.04696 0.4904 0.0
C1549 C 0.06035 0.04575 0.54421 0.0
C1550 C 0.03703 0.04462 0.48971 0.0
C1551 C 0.00808 0.04064 0.59124 0.0
H1552 H 0.99131 0.01647 0.45323 0.0
C1553 C 0.95218 0.01725 0.5927 0.0
C1554 C 0.94345 0.01835 0.53865 0.0
C1555 C 0.96673 0.01952 0.59353 0.0
C1556 C 0.99577 0.0233 0.49203 0.0
H1557 H 0.06086 0.04189 0.63989 0.0
H1558 H 0.03577 0.0381 0.63916 0.0
H1559 H 0.01542 0.02466 0.45319 0.0
H1560 H 0.94304 0.02196 0.44273 0.0
H1561 H 0.96815 0.02564 0.4437 0.0
H1562 H 0.98843 0.0393 0.63005 0.0
C1563 C 0.03987 0.04086 0.59744 0.0
C1564 C 0.00961 0.02808 0.49177 0.0
C1565 C 0.05429 0.04305 0.59791 0.0
C1566 C 0.94957 0.02086 0.48488 0.0
C1567 C 0.96401 0.023 0.4855 0.0
C1568 C 0.99424 0.03586 0.59147 0.0
C1569 C 0.03106 0.04114 0.54294 0.0
C1570 C 0.01598 0.03682 0.54139 0.0
C1571 C 0.97277 0.02283 0.54021 0.0
C1572 C 0.98786 0.02713 0.54185 0.0
H1573 H 0.05599 0.04877 0.44812 0.0
H1574 H 0.03054 0.04509 0.44705 0.0
H1575 H 0.01255 0.04746 0.63004 0.0
H1576 H 0.9477 0.0156 0.63504 0.0
H1577 H 0.97318 0.01912 0.63635 0.0
C1578 C 0.24383 0.73314 0.85482 0.0
C1579 C 0.25654 0.72592 0.8523 0.0
C1580 C 0.24295 0.74714 0.84239 0.0
C1581 C 0.2597 0.77198 0.75386 0.0
H1582 H 0.23658 0.79932 0.83756 0.0
C1583 C 0.2592 0.83054 0.71289 0.0
C1584 C 0.24666 0.838 0.71676 0.0
C1585 C 0.25986 0.81648 0.72458 0.0
C1586 C 0.24288 0.79173 0.81305 0.0
H1587 H 0.27851 0.7279 0.83802 0.0
H1588 H 0.27703 0.75255 0.81671 0.0
H1589 H 0.23984 0.77626 0.87528 0.0
H1590 H 0.22473 0.83638 0.73237 0.0
H1591 H 0.22581 0.81162 0.75216 0.0
H1592 H 0.26272 0.78743 0.69157 0.0
C1593 C 0.2677 0.74727 0.82768 0.0
C1594 C 0.24484 0.77856 0.83496 0.0
C1595 C 0.2686 0.73322 0.84062 0.0
C1596 C 0.23452 0.83087 0.72877 0.0
C1597 C 0.2352 0.81676 0.74087 0.0
C1598 C 0.25773 0.78515 0.7319 0.0
C1599 C 0.25477 0.75426 0.8268 0.0
C1600 C 0.25329 0.76853 0.80568 0.0
C1601 C 0.24799 0.80954 0.74063 0.0
C1602 C 0.24932 0.7952 0.7613 0.0
H1603 H 0.23436 0.72777 0.86379 0.0
H1604 H 0.23283 0.75216 0.84181 0.0
H1605 H 0.26602 0.7644 0.72945 0.0
H1606 H 0.26873 0.83576 0.70361 0.0
H1607 H 0.2699 0.8113 0.72433 0.0
C1608 C 0.75454 0.73308 0.86752 0.0
C1609 C 0.74302 0.72518 0.83892 0.0
C1610 C 0.75586 0.74734 0.86004 0.0
C1611 C 0.74523 0.77273 0.74856 0.0
H1612 H 0.76275 0.79979 0.8741 0.0
C1613 C 0.74877 0.83197 0.71923 0.0
C1614 C 0.76033 0.83985 0.74758 0.0
C1615 C 0.74743 0.81772 0.72681 0.0
C1616 C 0.75807 0.79232 0.83818 0.0
H1617 H 0.72351 0.72616 0.78192 0.0
H1618 H 0.72565 0.7513 0.76931 0.0
H1619 H 0.75724 0.77628 0.89976 0.0
H1620 H 0.77987 0.83885 0.80431 0.0
H1621 H 0.77768 0.81371 0.81713 0.0
H1622 H 0.74605 0.78878 0.68699 0.0
C1623 C 0.73375 0.74638 0.79736 0.0
C1624 C 0.7548 0.77883 0.85302 0.0
C1625 C 0.73237 0.73205 0.8054 0.0
C1626 C 0.77098 0.83297 0.78101 0.0
C1627 C 0.76958 0.81864 0.78917 0.0
C1628 C 0.74849 0.78623 0.73373 0.0
C1629 C 0.74574 0.75412 0.82315 0.0
C1630 C 0.74834 0.76882 0.80843 0.0
C1631 C 0.75756 0.81093 0.76357 0.0
C1632 C 0.75495 0.79623 0.77831 0.0
H1633 H 0.76298 0.72802 0.89307 0.0
H1634 H 0.76528 0.75281 0.88022 0.0
H1635 H 0.74055 0.76526 0.71262 0.0
H1636 H 0.74032 0.83704 0.69376 0.0
H1637 H 0.73798 0.81226 0.70679 0.0
C1638 C 0.76977 0.23393 0.34951 0.0
C1639 C 0.75789 0.2275 0.36827 0.0
C1640 C 0.76917 0.24784 0.33456 0.0
C1641 C 0.7478 0.28026 0.34457 0.0
H1642 H 0.76201 0.28599 0.18884 0.0
C1643 C 0.73538 0.33049 0.22566 0.0
C1644 C 0.74715 0.33713 0.20705 0.0
C1645 C 0.73625 0.31664 0.24125 0.0
C1646 C 0.75805 0.28458 0.23253 0.0
H1647 H 0.73652 0.23081 0.39087 0.0
H1648 H 0.73551 0.25496 0.36545 0.0
H1649 H 0.7658 0.26365 0.23264 0.0
H1650 H 0.76864 0.33424 0.18538 0.0
H1651 H 0.77011 0.31014 0.21179 0.0
H1652 H 0.74001 0.30117 0.34435 0.0
C1653 C 0.74526 0.24938 0.36197 0.0
C1654 C 0.76032 0.27182 0.2579 0.0
C1655 C 0.74583 0.23551 0.37644 0.0
C1656 C 0.7594 0.32937 0.19969 0.0
C1657 C 0.76024 0.31554 0.21475 0.0
C1658 C 0.74551 0.29301 0.31917 0.0
C1659 C 0.75674 0.25556 0.33868 0.0
C1660 C 0.75521 0.2695 0.31418 0.0
C1661 C 0.74885 0.30918 0.23786 0.0
C1662 C 0.75059 0.29531 0.26281 0.0
H1663 H 0.77917 0.22796 0.34242 0.0
H1664 H 0.77827 0.2524 0.31769 0.0
H1665 H 0.74384 0.27885 0.38825 0.0
H1666 H 0.72583 0.33625 0.23211 0.0
H1667 H 0.72722 0.31192 0.25798 0.0
C1668 C 0.95298 0.52535 0.60453 0.0
C1669 C 0.94566 0.53798 0.60067 0.0
C1670 C 0.96698 0.52449 0.592 0.0
C1671 C 0.99157 0.5409 0.50107 0.0
H1672 H 0.01908 0.51814 0.58578 0.0
C1673 C 0.0501 0.54028 0.45948 0.0
C1674 C 0.05755 0.52775 0.46397 0.0
C1675 C 0.03603 0.54097 0.47099 0.0
C1676 C 0.01144 0.52434 0.56101 0.0
H1677 H 0.94744 0.55983 0.58409 0.0
H1678 H 0.97209 0.55839 0.5627 0.0
H1679 H 0.99611 0.52157 0.62415 0.0
H1680 H 0.05593 0.50586 0.48029 0.0
H1681 H 0.03117 0.50701 0.49994 0.0
H1682 H 0.00691 0.54368 0.43796 0.0
C1683 C 0.9669 0.54911 0.57472 0.0
C1684 C 0.99831 0.52639 0.58327 0.0
C1685 C 0.95286 0.54999 0.58772 0.0
C1686 C 0.05042 0.51564 0.47623 0.0
C1687 C 0.03631 0.51636 0.48823 0.0
C1688 C 0.0047 0.53884 0.47879 0.0
C1689 C 0.97398 0.53624 0.57502 0.0
C1690 C 0.98823 0.53471 0.5536 0.0
C1691 C 0.02909 0.52915 0.48755 0.0
C1692 C 0.01479 0.53055 0.50854 0.0
H1693 H 0.9477 0.51592 0.61449 0.0
H1694 H 0.97207 0.51441 0.59236 0.0
H1695 H 0.98394 0.54711 0.47636 0.0
H1696 H 0.05533 0.54978 0.44999 0.0
H1697 H 0.03084 0.551 0.47035 0.0
C1698 C 0.45303 0.53559 0.11344 0.0
C1699 C 0.44514 0.52402 0.0853 0.0
C1700 C 0.46728 0.53689 0.10592 0.0
C1701 C 0.49272 0.52602 0.99496 0.0
H1702 H 0.51974 0.54371 0.1202 0.0
C1703 C 0.55197 0.52942 0.96589 0.0
C1704 C 0.55985 0.541 0.99399 0.0
C1705 C 0.53772 0.52812 0.97342 0.0
C1706 C 0.51228 0.53898 0.08435 0.0
H1707 H 0.44612 0.50441 0.02903 0.0
H1708 H 0.47126 0.50652 0.01631 0.0
H1709 H 0.49621 0.53829 0.14585 0.0
H1710 H 0.55885 0.56062 0.0502 0.0
H1711 H 0.53371 0.5585 0.06293 0.0
H1712 H 0.50879 0.5267 0.93346 0.0
C1713 C 0.46634 0.51467 0.04406 0.0
C1714 C 0.49877 0.53577 0.09919 0.0
C1715 C 0.452 0.51332 0.05215 0.0
C1716 C 0.55298 0.55171 0.02711 0.0
C1717 C 0.53864 0.55035 0.03521 0.0
C1718 C 0.50622 0.52923 0.98012 0.0
C1719 C 0.47407 0.5267 0.06942 0.0
C1720 C 0.48878 0.52925 0.05471 0.0
C1721 C 0.53092 0.53831 0.00988 0.0
C1722 C 0.51621 0.53575 0.02459 0.0
H1723 H 0.44797 0.54409 0.13871 0.0
H1724 H 0.47275 0.54635 0.12575 0.0
H1725 H 0.48525 0.52129 0.9591 0.0
H1726 H 0.55703 0.52093 0.94064 0.0
H1727 H 0.53225 0.51866 0.9536 0.0
loop_
_geom_bond_atom_site_label_1
_geom_bond_atom_site_label_2
_geom_bond_distance
_geom_bond_site_symmetry_2
_ccdc_geom_bond_type
C0 C1 1.351 . S
C0 N3 1.368 . S
C0 H5 0.931 . S
C1 C0 1.351 . S
C1 N2 1.373 . S
C1 H29 0.930 . S
N2 C1 1.373 . S
N2 C4 1.340 . S
N3 C0 1.368 . S
N3 C4 1.321 . S
N3 Co6 2.135 . S
C4 N2 1.340 . S
C4 N3 1.321 . S
C4 H28 0.930 . S
H5 C0 0.931 . S
Co6 N3 2.135 . S
Co6 N9 2.121 1_554 S
Co6 O14 2.055 . S
Co6 O17 2.039 . S
Co6 N20 2.140 . S
C7 O8 1.227 . S
C7 O17 1.265 . S
O8 C7 1.227 . S
N9 Co6 2.121 1_556 S
N9 C11 1.375 . S
N9 C12 1.313 . S
C10 C11 1.338 . S
C10 N13 1.377 . S
C10 H30 0.930 . S
C11 N9 1.375 . S
C11 C10 1.338 . S
C11 H15 0.931 . S
C12 N9 1.313 . S
C12 N13 1.344 . S
C12 H16 0.930 . S
N13 C10 1.377 . S
N13 C12 1.344 . S
O14 Co6 2.055 . S
O14 C18 1.253 . S
H15 C11 0.931 . S
H16 C12 0.930 . S
O17 Co6 2.039 . S
O17 C7 1.265 . S
C18 O14 1.253 . S
C18 O19 1.227 . S
O19 C18 1.227 . S
N20 Co6 2.140 . S
N20 C23 1.346 . S
N20 C24 1.345 . S
C21 C22 1.387 1_565 S
C21 C25 1.376 1_565 S
C22 C21 1.387 1_545 S
C22 C23 1.369 . S
C22 H31 0.929 . S
C23 N20 1.346 . S
C23 C22 1.369 . S
C23 H26 0.928 . S
C24 N20 1.345 . S
C24 C25 1.413 . S
C24 H27 0.931 1_554 S
C25 C21 1.376 1_545 S
C25 C24 1.413 . S
C25 H32 0.905 1_544 S
H26 C23 0.928 . S
H27 C24 0.931 1_556 S
H28 C4 0.930 . S
H29 C1 0.930 . S
H30 C10 0.930 . S
H31 C22 0.929 . S
H32 C25 0.905 1_566 S
C33 C34 1.351 . S
C33 N36 1.368 . S
C33 H38 0.931 . S
C34 C33 1.351 . S
C34 N35 1.373 . S
C34 H62 0.930 . S
N35 C34 1.373 . S
N35 C37 1.340 . S
N36 C33 1.368 . S
N36 C37 1.321 . S
N36 Co39 2.135 . S
C37 N35 1.340 . S
C37 N36 1.321 . S
C37 H61 0.930 . S
H38 C33 0.931 . S
Co39 N36 2.135 . S
Co39 N42 2.121 . S
Co39 O47 2.055 . S
Co39 O50 2.039 . S
Co39 N53 2.140 . S
C40 O41 1.227 . S
C40 O50 1.265 . S
O41 C40 1.227 . S
N42 Co39 2.121 . S
N42 C44 1.375 . S
N42 C45 1.313 . S
C43 C44 1.338 . S
C43 N46 1.377 . S
C43 H63 0.930 . S
C44 N42 1.375 . S
C44 C43 1.338 . S
C44 H48 0.931 . S
C45 N42 1.313 . S
C45 N46 1.344 . S
C45 H49 0.930 . S
N46 C43 1.377 . S
N46 C45 1.344 . S
O47 Co39 2.055 . S
O47 C51 1.253 . S
H48 C44 0.931 . S
H49 C45 0.930 . S
O50 Co39 2.039 . S
O50 C40 1.265 . S
C51 O47 1.253 . S
C51 O52 1.227 . S
O52 C51 1.227 . S
N53 Co39 2.140 . S
N53 C56 1.346 . S
N53 C57 1.345 . S
C54 C55 1.387 . S
C54 C58 1.391 . S
C55 C54 1.387 . S
C55 C56 1.369 . S
C55 H64 0.929 . S
C56 N53 1.346 . S
C56 C55 1.369 . S
C56 H59 0.928 . S
C57 N53 1.345 . S
C57 C58 1.371 . S
C57 H60 0.931 . S
C58 C54 1.391 . S
C58 C57 1.371 . S
C58 H65 0.930 . S
H59 C56 0.928 . S
H60 C57 0.931 . S
H61 C37 0.930 . S
H62 C34 0.930 . S
H63 C43 0.930 . S
H64 C55 0.929 . S
H65 C58 0.930 . S
C66 C67 1.351 . S
C66 N69 1.368 . S
C66 H71 0.931 . S
C67 C66 1.351 . S
C67 N68 1.373 . S
C67 H95 0.930 . S
N68 C67 1.373 . S
N68 C70 1.340 . S
N69 C66 1.368 . S
N69 C70 1.321 . S
N69 Co72 2.135 . S
C70 N68 1.340 . S
C70 N69 1.321 . S
C70 H94 0.930 . S
H71 C66 0.931 . S
Co72 N69 2.135 . S
Co72 N75 2.121 . S
Co72 O80 2.055 . S
Co72 O83 2.039 . S
Co72 N86 2.140 . S
C73 O74 1.227 . S
C73 O83 1.265 . S
O74 C73 1.227 . S
N75 Co72 2.121 . S
N75 C77 1.375 . S
N75 C78 1.313 . S
C76 C77 1.338 . S
C76 N79 1.377 . S
C76 H96 0.930 . S
C77 N75 1.375 . S
C77 C76 1.338 . S
C77 H81 0.931 . S
C78 N75 1.313 . S
C78 N79 1.344 . S
C78 H82 0.930 . S
N79 C76 1.377 . S
N79 C78 1.344 . S
O80 Co72 2.055 . S
O80 C84 1.253 . S
H81 C77 0.931 . S
H82 C78 0.930 . S
O83 Co72 2.039 . S
O83 C73 1.265 . S
C84 O80 1.253 . S
C84 O85 1.227 . S
O85 C84 1.227 . S
N86 Co72 2.140 . S
N86 C89 1.346 . S
N86 C90 1.345 . S
C87 C88 1.387 1_565 S
C87 C91 1.400 . S
C88 C87 1.387 1_545 S
C88 C89 1.369 . S
C88 H97 0.929 . S
C89 N86 1.346 . S
C89 C88 1.369 . S
C89 H92 0.928 . S
C90 N86 1.345 . S
C90 C91 1.337 1_545 S
C90 H93 0.931 . S
C91 C87 1.400 . S
C91 C90 1.337 1_565 S
C91 H98 0.957 . S
H92 C89 0.928 . S
H93 C90 0.931 . S
H94 C70 0.930 . S
H95 C67 0.930 . S
H96 C76 0.930 . S
H97 C88 0.929 . S
H98 C91 0.957 . S
C99 C100 1.351 . S
C99 N102 1.368 . S
C99 H104 0.931 . S
C100 C99 1.351 . S
C100 N101 1.373 . S
C100 H128 0.930 . S
N101 C100 1.373 . S
N101 C103 1.340 . S
N102 C99 1.368 . S
N102 C103 1.321 . S
N102 Co105 2.135 . S
C103 N101 1.340 . S
C103 N102 1.321 . S
C103 H127 0.930 . S
H104 C99 0.931 . S
Co105 N102 2.135 . S
Co105 N108 2.121 . S
Co105 O113 2.055 . S
Co105 O116 2.039 . S
Co105 N119 2.140 . S
C106 O107 1.227 . S
C106 O116 1.265 . S
O107 C106 1.227 . S
N108 Co105 2.121 . S
N108 C110 1.375 . S
N108 C111 1.313 . S
C109 C110 1.338 . S
C109 N112 1.377 . S
C109 H129 0.930 . S
C110 N108 1.375 . S
C110 C109 1.338 . S
C110 H114 0.931 . S
C111 N108 1.313 . S
C111 N112 1.344 . S
C111 H115 0.930 . S
N112 C109 1.377 . S
N112 C111 1.344 . S
O113 Co105 2.055 . S
O113 C117 1.253 . S
H114 C110 0.931 . S
H115 C111 0.930 . S
O116 Co105 2.039 . S
O116 C106 1.265 . S
C117 O113 1.253 . S
C117 O118 1.227 . S
O118 C117 1.227 . S
N119 Co105 2.140 . S
N119 C122 1.346 . S
N119 C123 1.345 . S
C120 C121 1.387 . S
C120 C124 1.391 . S
C121 C120 1.387 . S
C121 C122 1.369 . S
C121 H130 0.929 . S
C122 N119 1.346 . S
C122 C121 1.369 . S
C122 H125 0.928 . S
C123 N119 1.345 . S
C123 C124 1.371 . S
C123 H126 0.931 . S
C124 C120 1.391 . S
C124 C123 1.371 . S
C124 H131 0.930 . S
H125 C122 0.928 . S
H126 C123 0.931 . S
H127 C103 0.930 . S
H128 C100 0.930 . S
H129 C109 0.930 . S
H130 C121 0.929 . S
H131 C124 0.930 . S
C132 C133 1.351 . S
C132 N135 1.368 . S
C132 H137 0.931 . S
C133 C132 1.351 . S
C133 N134 1.373 . S
C133 H161 0.930 . S
N134 C133 1.373 . S
N134 C136 1.340 . S
N135 C132 1.368 . S
N135 C136 1.321 . S
N135 Co138 2.135 . S
C136 N134 1.340 . S
C136 N135 1.321 . S
C136 H160 0.930 . S
H137 C132 0.931 . S
Co138 N135 2.135 . S
Co138 N141 2.121 1_556 S
Co138 O146 2.055 . S
Co138 O149 2.039 . S
Co138 N152 2.140 1_556 S
C139 O140 1.227 . S
C139 O149 1.265 . S
O140 C139 1.227 . S
N141 Co138 2.121 1_554 S
N141 C143 1.375 . S
N141 C144 1.313 . S
C142 C143 1.338 . S
C142 N145 1.377 . S
C142 H162 0.930 . S
C143 N141 1.375 . S
C143 C142 1.338 . S
C143 H147 0.931 . S
C144 N141 1.313 . S
C144 N145 1.344 . S
C144 H148 0.930 . S
N145 C142 1.377 . S
N145 C144 1.344 . S
O146 Co138 2.055 . S
O146 C150 1.253 1_556 S
H147 C143 0.931 . S
H148 C144 0.930 . S
O149 Co138 2.039 . S
O149 C139 1.265 . S
C150 O146 1.253 1_554 S
C150 O151 1.227 . S
O151 C150 1.227 . S
N152 Co138 2.140 1_554 S
N152 C155 1.346 1_554 S
N152 C156 1.345 . S
C153 C154 1.387 1_554 S
C153 C157 1.391 . S
C154 C153 1.387 1_556 S
C154 C155 1.369 . S
C154 H163 0.929 . S
C155 N152 1.346 1_556 S
C155 C154 1.369 . S
C155 H158 0.928 . S
C156 N152 1.345 . S
C156 C157 1.371 . S
C156 H159 0.931 . S
C157 C153 1.391 . S
C157 C156 1.371 . S
C157 H164 0.930 . S
H158 C155 0.928 . S
H159 C156 0.931 . S
H160 C136 0.930 . S
H161 C133 0.930 . S
H162 C142 0.930 . S
H163 C154 0.929 . S
H164 C157 0.930 . S
C165 C166 1.351 . S
C165 N168 1.368 . S
C165 H170 0.931 . S
C166 C165 1.351 . S
C166 N167 1.373 . S
C166 H194 0.930 . S
N167 C166 1.373 . S
N167 C169 1.340 . S
N168 C165 1.368 . S
N168 C169 1.321 . S
N168 Co171 2.135 . S
C169 N167 1.340 . S
C169 N168 1.321 . S
C169 H193 0.930 . S
H170 C165 0.931 . S
Co171 N168 2.135 . S
Co171 N174 2.121 . S
Co171 O179 2.055 . S
Co171 O182 2.039 . S
Co171 N185 2.140 . S
C172 O173 1.227 . S
C172 O182 1.265 . S
O173 C172 1.227 . S
N174 Co171 2.121 . S
N174 C176 1.375 . S
N174 C177 1.313 . S
C175 C176 1.338 . S
C175 N178 1.377 . S
C175 H195 0.930 . S
C176 N174 1.375 . S
C176 C175 1.338 . S
C176 H180 0.931 . S
C177 N174 1.313 . S
C177 N178 1.344 . S
C177 H181 0.930 . S
N178 C175 1.377 . S
N178 C177 1.344 . S
O179 Co171 2.055 . S
O179 C183 1.253 . S
H180 C176 0.931 . S
H181 C177 0.930 . S
O182 Co171 2.039 . S
O182 C172 1.265 . S
C183 O179 1.253 . S
C183 O184 1.227 . S
O184 C183 1.227 . S
N185 Co171 2.140 . S
N185 C188 1.346 . S
N185 C189 1.345 . S
C186 C187 1.387 . S
C186 C190 1.391 . S
C187 C186 1.387 . S
C187 C188 1.369 . S
C187 H196 0.929 . S
C188 N185 1.346 . S
C188 C187 1.369 . S
C188 H191 0.928 . S
C189 N185 1.345 . S
C189 C190 1.371 . S
C189 H192 0.931 . S
C190 C186 1.391 . S
C190 C189 1.371 . S
C190 H197 0.930 . S
H191 C188 0.928 . S
H192 C189 0.931 . S
H193 C169 0.930 . S
H194 C166 0.930 . S
H195 C175 0.930 . S
H196 C187 0.929 . S
H197 C190 0.930 . S
C198 C199 1.351 . S
C198 N201 1.368 . S
C198 H203 0.931 . S
C199 C198 1.351 . S
C199 N200 1.373 . S
C199 H227 0.930 . S
N200 C199 1.373 . S
N200 C202 1.340 . S
N201 C198 1.368 . S
N201 C202 1.321 . S
N201 Co204 2.135 . S
C202 N200 1.340 . S
C202 N201 1.321 . S
C202 H226 0.930 . S
H203 C198 0.931 . S
Co204 N201 2.135 . S
Co204 N207 2.121 . S
Co204 O212 2.055 . S
Co204 O215 2.039 . S
Co204 N218 2.140 . S
C205 O206 1.227 . S
C205 O215 1.265 . S
O206 C205 1.227 . S
N207 Co204 2.121 . S
N207 C209 1.375 . S
N207 C210 1.313 . S
C208 C209 1.338 . S
C208 N211 1.377 . S
C208 H228 0.930 . S
C209 N207 1.375 . S
C209 C208 1.338 . S
C209 H213 0.931 . S
C210 N207 1.313 . S
C210 N211 1.344 . S
C210 H214 0.930 . S
N211 C208 1.377 . S
N211 C210 1.344 . S
O212 Co204 2.055 . S
O212 C216 1.253 . S
H213 C209 0.931 . S
H214 C210 0.930 . S
O215 Co204 2.039 . S
O215 C205 1.265 . S
C216 O212 1.253 . S
C216 O217 1.227 . S
O217 C216 1.227 . S
N218 Co204 2.140 . S
N218 C221 1.346 . S
N218 C222 1.345 . S
C219 C220 1.387 . S
C219 C223 1.391 . S
C220 C219 1.387 . S
C220 C221 1.369 . S
C220 H229 0.929 . S
C221 N218 1.346 . S
C221 C220 1.369 . S
C221 H224 0.928 . S
C222 N218 1.345 . S
C222 C223 1.371 . S
C222 H225 0.931 . S
C223 C219 1.391 . S
C223 C222 1.371 . S
C223 H230 0.930 . S
H224 C221 0.928 . S
H225 C222 0.931 . S
H226 C202 0.930 . S
H227 C199 0.930 . S
H228 C208 0.930 . S
H229 C220 0.929 . S
H230 C223 0.930 . S
C231 C232 1.351 . S
C231 N234 1.368 . S
C231 H236 0.931 . S
C232 C231 1.351 . S
C232 N233 1.373 . S
C232 H260 0.930 . S
N233 C232 1.373 . S
N233 C235 1.340 . S
N234 C231 1.368 . S
N234 C235 1.321 . S
N234 Co237 2.135 . S
C235 N233 1.340 . S
C235 N234 1.321 . S
C235 H259 0.930 . S
H236 C231 0.931 . S
Co237 N234 2.135 . S
Co237 N240 2.121 . S
Co237 O245 2.055 . S
Co237 O248 2.039 . S
Co237 N251 2.140 . S
C238 O239 1.227 . S
C238 O248 1.265 . S
O239 C238 1.227 . S
N240 Co237 2.121 . S
N240 C242 1.375 . S
N240 C243 1.313 . S
C241 C242 1.338 . S
C241 N244 1.377 . S
C241 H261 0.930 . S
C242 N240 1.375 . S
C242 C241 1.338 . S
C242 H246 0.931 . S
C243 N240 1.313 . S
C243 N244 1.344 . S
C243 H247 0.930 . S
N244 C241 1.377 . S
N244 C243 1.344 . S
O245 Co237 2.055 . S
O245 C249 1.253 . S
H246 C242 0.931 . S
H247 C243 0.930 . S
O248 Co237 2.039 . S
O248 C238 1.265 . S
C249 O245 1.253 . S
C249 O250 1.227 . S
O250 C249 1.227 . S
N251 Co237 2.140 . S
N251 C254 1.346 . S
N251 C255 1.345 . S
C252 C253 1.387 . S
C252 C256 1.391 . S
C253 C252 1.387 . S
C253 C254 1.369 . S
C253 H262 0.929 . S
C254 N251 1.346 . S
C254 C253 1.369 . S
C254 H257 0.928 . S
C255 N251 1.345 . S
C255 C256 1.371 . S
C255 H258 0.931 . S
C256 C252 1.391 . S
C256 C255 1.371 . S
C256 H263 0.930 . S
H257 C254 0.928 . S
H258 C255 0.931 . S
H259 C235 0.930 . S
H260 C232 0.930 . S
H261 C241 0.930 . S
H262 C253 0.929 . S
H263 C256 0.930 . S
C264 C265 1.351 . S
C264 N267 1.368 . S
C264 H269 0.931 . S
C265 C264 1.351 . S
C265 N266 1.373 . S
C265 H293 0.930 . S
N266 C265 1.373 . S
N266 C268 1.340 . S
N267 C264 1.368 . S
N267 C268 1.321 . S
N267 Co270 2.135 . S
C268 N266 1.340 . S
C268 N267 1.321 . S
C268 H292 0.930 . S
H269 C264 0.931 . S
Co270 N267 2.135 . S
Co270 N273 2.121 . S
Co270 O278 2.055 . S
Co270 O281 2.039 . S
Co270 N284 2.140 . S
C271 O272 1.227 . S
C271 O281 1.265 . S
O272 C271 1.227 . S
N273 Co270 2.121 . S
N273 C275 1.375 . S
N273 C276 1.313 . S
C274 C275 1.338 . S
C274 N277 1.377 . S
C274 H294 0.930 . S
C275 N273 1.375 . S
C275 C274 1.338 . S
C275 H279 0.931 . S
C276 N273 1.313 . S
C276 N277 1.344 . S
C276 H280 0.930 . S
N277 C274 1.377 . S
N277 C276 1.344 . S
O278 Co270 2.055 . S
O278 C282 1.253 . S
H279 C275 0.931 . S
H280 C276 0.930 . S
O281 Co270 2.039 . S
O281 C271 1.265 . S
C282 O278 1.253 . S
C282 O283 1.227 . S
O283 C282 1.227 . S
N284 Co270 2.140 . S
N284 C287 1.346 . S
N284 C288 1.345 . S
C285 C286 1.387 . S
C285 C289 1.391 . S
C286 C285 1.387 . S
C286 C287 1.369 . S
C286 H295 0.929 . S
C287 N284 1.346 . S
C287 C286 1.369 . S
C287 H290 0.928 . S
C288 N284 1.345 . S
C288 C289 1.371 . S
C288 H291 0.931 . S
C289 C285 1.391 . S
C289 C288 1.371 . S
C289 H296 0.930 . S
H290 C287 0.928 . S
H291 C288 0.931 . S
H292 C268 0.930 . S
H293 C265 0.930 . S
H294 C274 0.930 . S
H295 C286 0.929 . S
H296 C289 0.930 . S
C297 C298 1.351 1_556 S
C297 N300 1.368 . S
C297 H302 0.931 . S
C298 C297 1.351 1_554 S
C298 N299 1.373 . S
C298 H326 0.930 . S
N299 C298 1.373 . S
N299 C301 1.340 1_554 S
N300 C297 1.368 . S
N300 C301 1.321 . S
N300 Co303 2.135 . S
C301 N299 1.340 1_556 S
C301 N300 1.321 . S
C301 H325 0.930 . S
H302 C297 0.931 . S
Co303 N300 2.135 . S
Co303 N306 2.121 . S
Co303 O311 2.055 . S
Co303 O314 2.039 . S
Co303 N317 2.140 . S
C304 O305 1.227 . S
C304 O314 1.265 . S
O305 C304 1.227 . S
N306 Co303 2.121 . S
N306 C308 1.375 . S
N306 C309 1.313 . S
C307 C308 1.338 . S
C307 N310 1.377 . S
C307 H327 0.930 . S
C308 N306 1.375 . S
C308 C307 1.338 . S
C308 H312 0.931 . S
C309 N306 1.313 . S
C309 N310 1.344 . S
C309 H313 0.930 . S
N310 C307 1.377 . S
N310 C309 1.344 . S
O311 Co303 2.055 . S
O311 C315 1.253 . S
H312 C308 0.931 . S
H313 C309 0.930 . S
O314 Co303 2.039 . S
O314 C304 1.265 . S
C315 O311 1.253 . S
C315 O316 1.227 . S
O316 C315 1.227 . S
N317 Co303 2.140 . S
N317 C320 1.346 . S
N317 C321 1.345 . S
C318 C319 1.387 . S
C318 C322 1.391 . S
C319 C318 1.387 . S
C319 C320 1.369 . S
C319 H328 0.929 . S
C320 N317 1.346 . S
C320 C319 1.369 . S
C320 H323 0.928 . S
C321 N317 1.345 . S
C321 C322 1.371 . S
C321 H324 0.931 . S
C322 C318 1.391 . S
C322 C321 1.371 . S
C322 H329 0.930 . S
H323 C320 0.928 . S
H324 C321 0.931 . S
H325 C301 0.930 . S
H326 C298 0.930 . S
H327 C307 0.930 . S
H328 C319 0.929 . S
H329 C322 0.930 . S
C330 C331 1.351 . S
C330 N333 1.368 . S
C330 H335 0.931 . S
C331 C330 1.351 . S
C331 N332 1.373 . S
C331 H359 0.930 . S
N332 C331 1.373 . S
N332 C334 1.340 . S
N333 C330 1.368 . S
N333 C334 1.321 . S
N333 Co336 2.137 1_556 S
C334 N332 1.340 . S
C334 N333 1.321 . S
C334 H358 0.930 . S
H335 C330 0.931 . S
Co336 N333 2.137 1_554 S
Co336 N339 2.119 . S
Co336 O344 2.055 . S
Co336 O347 2.039 1_554 S
Co336 N350 2.140 . S
C337 O338 1.227 . S
C337 O347 1.265 . S
O338 C337 1.227 . S
N339 Co336 2.119 . S
N339 C341 1.375 . S
N339 C342 1.313 . S
C340 C341 1.338 . S
C340 N343 1.377 . S
C340 H360 0.930 . S
C341 N339 1.375 . S
C341 C340 1.338 . S
C341 H345 0.931 . S
C342 N339 1.313 . S
C342 N343 1.344 . S
C342 H346 0.930 . S
N343 C340 1.377 . S
N343 C342 1.344 . S
O344 Co336 2.055 . S
O344 C348 1.253 . S
H345 C341 0.931 . S
H346 C342 0.930 . S
O347 Co336 2.039 1_556 S
O347 C337 1.265 . S
C348 O344 1.253 . S
C348 O349 1.227 . S
O349 C348 1.227 . S
N350 Co336 2.140 . S
N350 C353 1.346 1_554 S
N350 C354 1.345 . S
C351 C352 1.387 1_554 S
C351 C355 1.391 . S
C352 C351 1.387 1_556 S
C352 C353 1.369 . S
C352 H361 0.929 . S
C353 N350 1.346 1_556 S
C353 C352 1.369 . S
C353 H356 0.928 . S
C354 N350 1.345 . S
C354 C355 1.371 . S
C354 H357 0.931 . S
C355 C351 1.391 . S
C355 C354 1.371 . S
C355 H362 0.930 . S
H356 C353 0.928 . S
H357 C354 0.931 . S
H358 C334 0.930 . S
H359 C331 0.930 . S
H360 C340 0.930 . S
H361 C352 0.929 . S
H362 C355 0.930 . S
C363 C364 1.351 . S
C363 N366 1.368 . S
C363 H368 0.931 . S
C364 C363 1.351 . S
C364 N365 1.373 . S
C364 H392 0.930 . S
N365 C364 1.373 . S
N365 C367 1.340 . S
N366 C363 1.368 . S
N366 C367 1.321 . S
N366 Co369 2.135 . S
C367 N365 1.340 . S
C367 N366 1.321 . S
C367 H391 0.930 . S
H368 C363 0.931 . S
Co369 N366 2.135 . S
Co369 N372 2.121 . S
Co369 O377 2.055 . S
Co369 O380 2.039 . S
Co369 N383 2.140 . S
C370 O371 1.227 . S
C370 O380 1.265 . S
O371 C370 1.227 . S
N372 Co369 2.121 . S
N372 C374 1.375 . S
N372 C375 1.313 . S
C373 C374 1.338 . S
C373 N376 1.377 . S
C373 H393 0.930 . S
C374 N372 1.375 . S
C374 C373 1.338 . S
C374 H378 0.931 . S
C375 N372 1.313 . S
C375 N376 1.344 . S
C375 H379 0.930 . S
N376 C373 1.377 . S
N376 C375 1.344 . S
O377 Co369 2.055 . S
O377 C381 1.253 . S
H378 C374 0.931 . S
H379 C375 0.930 . S
O380 Co369 2.039 . S
O380 C370 1.265 . S
C381 O377 1.253 . S
C381 O382 1.227 . S
O382 C381 1.227 . S
N383 Co369 2.140 . S
N383 C386 1.346 . S
N383 C387 1.345 . S
C384 C385 1.387 . S
C384 C388 1.391 . S
C385 C384 1.387 . S
C385 C386 1.369 . S
C385 H394 0.929 . S
C386 N383 1.346 . S
C386 C385 1.369 . S
C386 H389 0.928 . S
C387 N383 1.345 . S
C387 C388 1.371 . S
C387 H390 0.931 . S
C388 C384 1.391 . S
C388 C387 1.371 . S
C388 H395 0.930 . S
H389 C386 0.928 . S
H390 C387 0.931 . S
H391 C367 0.930 . S
H392 C364 0.930 . S
H393 C373 0.930 . S
H394 C385 0.929 . S
H395 C388 0.930 . S
C396 C397 1.351 . S
C396 N399 1.368 . S
C396 H401 0.931 . S
C397 C396 1.351 . S
C397 N398 1.373 . S
C397 H425 0.930 . S
N398 C397 1.373 . S
N398 C400 1.340 . S
N399 C396 1.368 . S
N399 C400 1.321 . S
N399 Co402 2.135 . S
C400 N398 1.340 . S
C400 N399 1.321 . S
C400 H424 0.930 . S
H401 C396 0.931 . S
Co402 N399 2.135 . S
Co402 N405 2.121 . S
Co402 O410 2.055 . S
Co402 O413 2.039 . S
Co402 N416 2.140 . S
C403 O404 1.227 . S
C403 O413 1.265 . S
O404 C403 1.227 . S
N405 Co402 2.121 . S
N405 C407 1.375 . S
N405 C408 1.313 . S
C406 C407 1.338 . S
C406 N409 1.377 . S
C406 H426 0.930 . S
C407 N405 1.375 . S
C407 C406 1.338 . S
C407 H411 0.931 . S
C408 N405 1.313 . S
C408 N409 1.344 . S
C408 H412 0.930 . S
N409 C406 1.377 . S
N409 C408 1.344 . S
O410 Co402 2.055 . S
O410 C414 1.253 . S
H411 C407 0.931 . S
H412 C408 0.930 . S
O413 Co402 2.039 . S
O413 C403 1.265 . S
C414 O410 1.253 . S
C414 O415 1.227 . S
O415 C414 1.227 . S
N416 Co402 2.140 . S
N416 C419 1.346 . S
N416 C420 1.345 . S
C417 C418 1.387 . S
C417 C421 1.391 . S
C418 C417 1.387 . S
C418 C419 1.369 . S
C418 H427 0.929 . S
C419 N416 1.346 . S
C419 C418 1.369 . S
C419 H422 0.928 . S
C420 N416 1.345 . S
C420 C421 1.371 . S
C420 H423 0.931 . S
C421 C417 1.391 . S
C421 C420 1.371 . S
C421 H428 0.930 . S
H422 C419 0.928 . S
H423 C420 0.931 . S
H424 C400 0.930 . S
H425 C397 0.930 . S
H426 C406 0.930 . S
H427 C418 0.929 . S
H428 C421 0.930 . S
C429 C430 1.351 . S
C429 N432 1.368 . S
C429 H434 0.931 . S
C430 C429 1.351 . S
C430 N431 1.373 . S
C430 H458 0.930 . S
N431 C430 1.373 . S
N431 C433 1.340 . S
N432 C429 1.368 . S
N432 C433 1.321 . S
N432 Co435 2.135 . S
C433 N431 1.340 . S
C433 N432 1.321 . S
C433 H457 0.930 . S
H434 C429 0.931 . S
Co435 N432 2.135 . S
Co435 N438 2.121 . S
Co435 O443 2.055 . S
Co435 O446 2.039 . S
Co435 N449 2.140 . S
C436 O437 1.227 . S
C436 O446 1.265 . S
O437 C436 1.227 . S
N438 Co435 2.121 . S
N438 C440 1.375 . S
N438 C441 1.313 . S
C439 C440 1.338 . S
C439 N442 1.377 . S
C439 H459 0.930 . S
C440 N438 1.375 . S
C440 C439 1.338 . S
C440 H444 0.931 . S
C441 N438 1.313 . S
C441 N442 1.344 . S
C441 H445 0.930 . S
N442 C439 1.377 . S
N442 C441 1.344 . S
O443 Co435 2.055 . S
O443 C447 1.253 . S
H444 C440 0.931 . S
H445 C441 0.930 . S
O446 Co435 2.039 . S
O446 C436 1.265 . S
C447 O443 1.253 . S
C447 O448 1.227 . S
O448 C447 1.227 . S
N449 Co435 2.140 . S
N449 C452 1.346 . S
N449 C453 1.345 . S
C450 C451 1.387 . S
C450 C454 1.391 . S
C451 C450 1.387 . S
C451 C452 1.369 . S
C451 H460 0.929 . S
C452 N449 1.346 . S
C452 C451 1.369 . S
C452 H455 0.928 . S
C453 N449 1.345 . S
C453 C454 1.371 . S
C453 H456 0.931 . S
C454 C450 1.391 . S
C454 C453 1.371 . S
C454 H461 0.930 . S
H455 C452 0.928 . S
H456 C453 0.931 . S
H457 C433 0.930 . S
H458 C430 0.930 . S
H459 C439 0.930 . S
H460 C451 0.929 . S
H461 C454 0.930 . S
C462 C463 1.351 . S
C462 N465 1.368 . S
C462 H467 0.931 . S
C463 C462 1.351 . S
C463 N464 1.373 . S
C463 H491 0.930 . S
N464 C463 1.373 . S
N464 C466 1.340 . S
N465 C462 1.368 . S
N465 C466 1.321 . S
N465 Co468 2.135 . S
C466 N464 1.340 . S
C466 N465 1.321 . S
C466 H490 0.930 . S
H467 C462 0.931 . S
Co468 N465 2.135 . S
Co468 N471 2.121 1_554 S
Co468 O476 2.055 . S
Co468 O479 2.039 . S
Co468 N482 2.140 . S
C469 O470 1.227 . S
C469 O479 1.265 . S
O470 C469 1.227 . S
N471 Co468 2.121 1_556 S
N471 C473 1.375 . S
N471 C474 1.313 . S
C472 C473 1.338 . S
C472 N475 1.377 . S
C472 H492 0.930 . S
C473 N471 1.375 . S
C473 C472 1.338 . S
C473 H477 0.931 . S
C474 N471 1.313 . S
C474 N475 1.344 . S
C474 H478 0.930 . S
N475 C472 1.377 . S
N475 C474 1.344 . S
O476 Co468 2.055 . S
O476 C480 1.253 . S
H477 C473 0.931 . S
H478 C474 0.930 . S
O479 Co468 2.039 . S
O479 C469 1.265 . S
C480 O476 1.253 . S
C480 O481 1.227 . S
O481 C480 1.227 . S
N482 Co468 2.140 . S
N482 C485 1.346 . S
N482 C486 1.345 . S
C483 C484 1.387 . S
C483 C487 1.391 . S
C484 C483 1.387 . S
C484 C485 1.369 . S
C484 H493 0.929 . S
C485 N482 1.346 . S
C485 C484 1.369 . S
C485 H488 0.928 . S
C486 N482 1.345 . S
C486 C487 1.371 . S
C486 H489 0.931 1_554 S
C487 C483 1.391 . S
C487 C486 1.371 . S
C487 H494 0.930 1_554 S
H488 C485 0.928 . S
H489 C486 0.931 1_556 S
H490 C466 0.930 . S
H491 C463 0.930 . S
H492 C472 0.930 . S
H493 C484 0.929 . S
H494 C487 0.930 1_556 S
C495 C496 1.351 1_556 S
C495 N498 1.368 . S
C495 H500 0.931 . S
C496 C495 1.351 1_554 S
C496 N497 1.373 . S
C496 H524 0.930 . S
N497 C496 1.373 . S
N497 C499 1.340 1_554 S
N498 C495 1.368 . S
N498 C499 1.321 . S
N498 Co501 2.135 . S
C499 N497 1.340 1_556 S
C499 N498 1.321 . S
C499 H523 0.930 . S
H500 C495 0.931 . S
Co501 N498 2.135 . S
Co501 N504 2.121 . S
Co501 O509 2.055 . S
Co501 O512 2.039 . S
Co501 N515 2.140 . S
C502 O503 1.227 . S
C502 O512 1.265 . S
O503 C502 1.227 . S
N504 Co501 2.121 . S
N504 C506 1.375 . S
N504 C507 1.313 . S
C505 C506 1.338 . S
C505 N508 1.377 . S
C505 H525 0.930 . S
C506 N504 1.375 . S
C506 C505 1.338 . S
C506 H510 0.931 . S
C507 N504 1.313 . S
C507 N508 1.344 . S
C507 H511 0.930 . S
N508 C505 1.377 . S
N508 C507 1.344 . S
O509 Co501 2.055 . S
O509 C513 1.253 . S
H510 C506 0.931 . S
H511 C507 0.930 . S
O512 Co501 2.039 . S
O512 C502 1.265 . S
C513 O509 1.253 . S
C513 O514 1.227 . S
O514 C513 1.227 . S
N515 Co501 2.140 . S
N515 C518 1.346 . S
N515 C519 1.345 . S
C516 C517 1.387 . S
C516 C520 1.391 . S
C517 C516 1.387 . S
C517 C518 1.369 . S
C517 H526 0.929 . S
C518 N515 1.346 . S
C518 C517 1.369 . S
C518 H521 0.928 . S
C519 N515 1.345 . S
C519 C520 1.371 . S
C519 H522 0.931 . S
C520 C516 1.391 . S
C520 C519 1.371 . S
C520 H527 0.930 . S
H521 C518 0.928 . S
H522 C519 0.931 . S
H523 C499 0.930 . S
H524 C496 0.930 . S
H525 C505 0.930 . S
H526 C517 0.929 . S
H527 C520 0.930 . S
C528 C529 1.349 . S
C528 C530 1.327 . S
C528 H553 0.950 . S
C529 C528 1.349 . S
C529 C545 1.349 . S
C530 C528 1.327 . S
C530 C549 1.429 . S
C530 H554 0.950 . S
C531 C548 1.574 . S
C531 C550 1.368 . S
C531 H555 0.949 . S
H532 C536 0.949 . S
C533 C534 1.349 . S
C533 C535 1.327 . S
C533 H556 0.950 . S
C534 C533 1.349 . S
C534 C546 1.349 . S
C535 C533 1.327 . S
C535 C551 1.429 . S
C535 H557 0.950 . S
C536 H532 0.949 . S
C536 C544 1.574 . S
C536 C552 1.368 . S
H537 C545 0.950 . S
H538 C543 0.950 . S
H539 C544 0.949 . S
H540 C546 0.950 . S
H541 C547 0.950 . S
H542 C548 0.949 . S
C543 H538 0.950 . S
C543 C545 1.327 . S
C543 C549 1.429 . S
C544 C536 1.574 . S
C544 H539 0.949 . S
C544 C550 1.368 . S
C545 C529 1.349 . S
C545 H537 0.950 . S
C545 C543 1.327 . S
C546 C534 1.349 . S
C546 H540 0.950 . S
C546 C547 1.327 . S
C547 H541 0.950 . S
C547 C546 1.327 . S
C547 C551 1.429 . S
C548 C531 1.574 . S
C548 H542 0.949 . S
C548 C552 1.368 . S
C549 C530 1.429 . S
C549 C543 1.429 . S
C549 C550 1.523 . S
C550 C531 1.368 . S
C550 C544 1.368 . S
C550 C549 1.523 . S
C551 C535 1.429 . S
C551 C547 1.429 . S
C551 C552 1.523 . S
C552 C536 1.368 . S
C552 C548 1.368 . S
C552 C551 1.523 . S
H553 C528 0.950 . S
H554 C530 0.950 . S
H555 C531 0.949 . S
H556 C533 0.950 . S
H557 C535 0.950 . S
C558 C559 1.349 . S
C558 C560 1.327 1_554 S
C558 H583 0.950 . S
C559 C558 1.349 . S
C559 C575 1.349 . S
C560 C558 1.327 1_556 S
C560 C579 1.429 . S
C560 H584 0.950 . S
C561 C578 1.574 . S
C561 C580 1.368 . S
C561 H585 0.949 . S
H562 C566 0.949 . S
C563 C564 1.349 . S
C563 C565 1.327 . S
C563 H586 0.950 . S
C564 C563 1.349 . S
C564 C576 1.349 . S
C565 C563 1.327 . S
C565 C581 1.429 . S
C565 H587 0.950 . S
C566 H562 0.949 . S
C566 C574 1.574 . S
C566 C582 1.368 . S
H567 C575 0.950 . S
H568 C573 0.950 . S
H569 C574 0.949 . S
H570 C576 0.950 . S
H571 C577 0.950 . S
H572 C578 0.949 . S
C573 H568 0.950 . S
C573 C575 1.327 1_556 S
C573 C579 1.429 . S
C574 C566 1.574 . S
C574 H569 0.949 . S
C574 C580 1.368 . S
C575 C559 1.349 . S
C575 H567 0.950 . S
C575 C573 1.327 1_554 S
C576 C564 1.349 . S
C576 H570 0.950 . S
C576 C577 1.327 . S
C577 H571 0.950 . S
C577 C576 1.327 . S
C577 C581 1.429 . S
C578 C561 1.574 . S
C578 H572 0.949 . S
C578 C582 1.368 . S
C579 C560 1.429 . S
C579 C573 1.429 . S
C579 C580 1.523 . S
C580 C561 1.368 . S
C580 C574 1.368 . S
C580 C579 1.523 . S
C581 C565 1.429 . S
C581 C577 1.429 . S
C581 C582 1.523 . S
C582 C566 1.368 . S
C582 C578 1.368 . S
C582 C581 1.523 . S
H583 C558 0.950 . S
H584 C560 0.950 . S
H585 C561 0.949 . S
H586 C563 0.950 . S
H587 C565 0.950 . S
C588 C589 1.349 . S
C588 C590 1.327 . S
C588 H613 0.950 . S
C589 C588 1.349 . S
C589 C605 1.349 . S
C590 C588 1.327 . S
C590 C609 1.429 . S
C590 H614 0.950 . S
C591 C608 1.574 1_554 S
C591 C610 1.368 . S
C591 H615 0.949 . S
H592 C596 0.949 . S
C593 C594 1.349 . S
C593 C595 1.327 . S
C593 H616 0.950 . S
C594 C593 1.349 . S
C594 C606 1.349 . S
C595 C593 1.327 . S
C595 C611 1.429 . S
C595 H617 0.950 . S
C596 H592 0.949 . S
C596 C604 1.574 1_556 S
C596 C612 1.368 . S
H597 C605 0.950 . S
H598 C603 0.950 . S
H599 C604 0.949 . S
H600 C606 0.950 . S
H601 C607 0.950 . S
H602 C608 0.949 . S
C603 H598 0.950 . S
C603 C605 1.327 . S
C603 C609 1.429 . S
C604 C596 1.574 1_554 S
C604 H599 0.949 . S
C604 C610 1.368 . S
C605 C589 1.349 . S
C605 H597 0.950 . S
C605 C603 1.327 . S
C606 C594 1.349 . S
C606 H600 0.950 . S
C606 C607 1.327 . S
C607 H601 0.950 . S
C607 C606 1.327 . S
C607 C611 1.429 . S
C608 C591 1.574 1_556 S
C608 H602 0.949 . S
C608 C612 1.368 . S
C609 C590 1.429 . S
C609 C603 1.429 . S
C609 C610 1.523 . S
C610 C591 1.368 . S
C610 C604 1.368 . S
C610 C609 1.523 . S
C611 C595 1.429 . S
C611 C607 1.429 . S
C611 C612 1.523 . S
C612 C596 1.368 . S
C612 C608 1.368 . S
C612 C611 1.523 . S
H613 C588 0.950 . S
H614 C590 0.950 . S
H615 C591 0.949 . S
H616 C593 0.950 . S
H617 C595 0.950 . S
C618 C619 1.349 . S
C618 C620 1.327 . S
C618 H643 0.950 . S
C619 C618 1.349 . S
C619 C635 1.349 . S
C620 C618 1.327 . S
C620 C639 1.429 . S
C620 H644 0.950 . S
C621 C638 1.574 . S
C621 C640 1.368 . S
C621 H645 0.949 . S
H622 C626 0.949 . S
C623 C624 1.349 1_554 S
C623 C625 1.327 . S
C623 H646 0.955 . S
C624 C623 1.349 1_556 S
C624 C636 1.349 1_556 S
C625 C623 1.327 . S
C625 C641 1.429 . S
C625 H647 0.950 . S
C626 H622 0.949 . S
C626 C634 1.574 . S
C626 C642 1.368 . S
H627 C635 0.950 . S
H628 C633 0.950 . S
H629 C634 0.949 . S
H630 C636 0.950 1_556 S
H631 C637 0.950 . S
H632 C638 0.949 . S
C633 H628 0.950 . S
C633 C635 1.327 . S
C633 C639 1.429 . S
C634 C626 1.574 . S
C634 H629 0.949 . S
C634 C640 1.368 . S
C635 C619 1.349 . S
C635 H627 0.950 . S
C635 C633 1.327 . S
C636 C624 1.349 1_554 S
C636 H630 0.950 1_554 S
C636 C637 1.327 . S
C637 H631 0.950 . S
C637 C636 1.327 . S
C637 C641 1.429 . S
C638 C621 1.574 . S
C638 H632 0.949 . S
C638 C642 1.368 . S
C639 C620 1.429 . S
C639 C633 1.429 . S
C639 C640 1.523 . S
C640 C621 1.368 . S
C640 C634 1.368 . S
C640 C639 1.523 . S
C641 C625 1.429 . S
C641 C637 1.429 . S
C641 C642 1.523 . S
C642 C626 1.368 . S
C642 C638 1.368 . S
C642 C641 1.523 . S
H643 C618 0.950 . S
H644 C620 0.950 . S
H645 C621 0.949 . S
H646 C623 0.955 . S
H647 C625 0.950 . S
C648 C649 1.349 . S
C648 C650 1.327 . S
C648 H673 0.950 . S
C649 C648 1.349 . S
C649 C665 1.349 . S
C650 C648 1.327 . S
C650 C669 1.429 . S
C650 H674 0.950 . S
C651 C668 1.574 . S
C651 C670 1.368 . S
C651 H675 0.949 . S
H652 C656 0.949 . S
C653 C654 1.349 . S
C653 C655 1.327 . S
C653 H676 0.950 . S
C654 C653 1.349 . S
C654 C666 1.349 . S
C655 C653 1.327 . S
C655 C671 1.429 . S
C655 H677 0.950 . S
C656 H652 0.949 . S
C656 C664 1.574 . S
C656 C672 1.368 . S
H657 C665 0.950 . S
H658 C663 0.950 . S
H659 C664 0.949 . S
H660 C666 0.995 . S
H661 C667 0.950 . S
H662 C668 0.949 . S
C663 H658 0.950 . S
C663 C665 1.327 . S
C663 C669 1.429 . S
C664 C656 1.574 . S
C664 H659 0.949 . S
C664 C670 1.368 . S
C665 C649 1.349 . S
C665 H657 0.950 . S
C665 C663 1.327 . S
C666 C654 1.349 . S
C666 H660 0.995 . S
C666 C667 1.327 . S
C667 H661 0.950 . S
C667 C666 1.327 . S
C667 C671 1.429 . S
C668 C651 1.574 . S
C668 H662 0.949 . S
C668 C672 1.368 . S
C669 C650 1.429 . S
C669 C663 1.429 . S
C669 C670 1.523 . S
C670 C651 1.368 . S
C670 C664 1.368 . S
C670 C669 1.523 . S
C671 C655 1.429 . S
C671 C667 1.429 . S
C671 C672 1.523 . S
C672 C656 1.368 . S
C672 C668 1.368 . S
C672 C671 1.523 . S
H673 C648 0.950 . S
H674 C650 0.950 . S
H675 C651 0.949 . S
H676 C653 0.950 . S
H677 C655 0.950 . S
C678 C679 1.349 . S
C678 C680 1.327 . S
C678 H703 0.950 . S
C679 C678 1.349 . S
C679 C695 1.349 . S
C680 C678 1.327 . S
C680 C699 1.429 . S
C680 H704 0.950 . S
C681 C698 1.574 . S
C681 C700 1.368 . S
C681 H705 0.949 . S
H682 C686 0.949 . S
C683 C684 1.349 1_554 S
C683 C685 1.327 . S
C683 H706 0.950 1_554 S
C684 C683 1.349 1_556 S
C684 C696 1.349 1_556 S
C685 C683 1.327 . S
C685 C701 1.429 . S
C685 H707 0.950 . S
C686 H682 0.949 . S
C686 C694 1.574 . S
C686 C702 1.368 . S
H687 C695 0.950 . S
H688 C693 0.950 . S
H689 C694 0.949 . S
H690 C696 0.950 . S
H691 C697 0.950 . S
H692 C698 0.949 . S
C693 H688 0.950 . S
C693 C695 1.327 . S
C693 C699 1.429 . S
C694 C686 1.574 . S
C694 H689 0.949 . S
C694 C700 1.368 . S
C695 C679 1.349 . S
C695 H687 0.950 . S
C695 C693 1.327 . S
C696 C684 1.349 1_554 S
C696 H690 0.950 . S
C696 C697 1.327 . S
C697 H691 0.950 . S
C697 C696 1.327 . S
C697 C701 1.429 . S
C698 C681 1.574 . S
C698 H692 0.949 . S
C698 C702 1.368 . S
C699 C680 1.429 . S
C699 C693 1.429 . S
C699 C700 1.523 . S
C700 C681 1.368 . S
C700 C694 1.368 . S
C700 C699 1.523 . S
C701 C685 1.429 . S
C701 C697 1.429 . S
C701 C702 1.523 . S
C702 C686 1.368 . S
C702 C698 1.368 . S
C702 C701 1.523 . S
H703 C678 0.950 . S
H704 C680 0.950 . S
H705 C681 0.949 . S
H706 C683 0.950 1_556 S
H707 C685 0.950 . S
C708 C709 1.349 . S
C708 C710 1.327 . S
C708 H733 0.950 . S
C709 C708 1.349 . S
C709 C725 1.349 . S
C710 C708 1.327 . S
C710 C729 1.429 . S
C710 H734 0.950 . S
C711 C728 1.574 . S
C711 C730 1.368 . S
C711 H735 0.949 . S
H712 C716 0.949 . S
C713 C714 1.349 . S
C713 C715 1.327 . S
C713 H736 0.950 . S
C714 C713 1.349 . S
C714 C726 1.349 . S
C715 C713 1.327 . S
C715 C731 1.429 . S
C715 H737 0.950 . S
C716 H712 0.949 . S
C716 C724 1.574 . S
C716 C732 1.368 . S
H717 C725 0.950 . S
H718 C723 0.950 . S
H719 C724 0.949 . S
H720 C726 0.950 . S
H721 C727 0.950 . S
H722 C728 0.949 . S
C723 H718 0.950 . S
C723 C725 1.327 . S
C723 C729 1.429 . S
C724 C716 1.574 . S
C724 H719 0.949 . S
C724 C730 1.368 . S
C725 C709 1.349 . S
C725 H717 0.950 . S
C725 C723 1.327 . S
C726 C714 1.349 . S
C726 H720 0.950 . S
C726 C727 1.327 . S
C727 H721 0.950 . S
C727 C726 1.327 . S
C727 C731 1.429 . S
C728 C711 1.574 . S
C728 H722 0.949 . S
C728 C732 1.368 . S
C729 C710 1.429 . S
C729 C723 1.429 . S
C729 C730 1.523 . S
C730 C711 1.368 . S
C730 C724 1.368 . S
C730 C729 1.523 . S
C731 C715 1.429 . S
C731 C727 1.429 . S
C731 C732 1.523 1_556 S
C732 C716 1.368 . S
C732 C728 1.368 . S
C732 C731 1.523 1_554 S
H733 C708 0.950 . S
H734 C710 0.950 . S
H735 C711 0.949 . S
H736 C713 0.950 . S
H737 C715 0.950 . S
C738 C739 1.349 . S
C738 C740 1.327 . S
C738 H763 0.950 . S
C739 C738 1.349 . S
C739 C755 1.349 . S
C740 C738 1.327 . S
C740 C759 1.429 . S
C740 H764 0.950 . S
C741 C758 1.574 . S
C741 C760 1.368 . S
C741 H765 0.949 . S
H742 C746 0.949 . S
C743 C744 1.349 . S
C743 C745 1.327 . S
C743 H766 0.950 . S
C744 C743 1.349 . S
C744 C756 1.349 . S
C745 C743 1.327 . S
C745 C761 1.429 1_554 S
C745 H767 0.950 1_554 S
C746 H742 0.949 . S
C746 C754 1.574 . S
C746 C762 1.368 . S
H747 C755 0.950 . S
H748 C753 0.950 . S
H749 C754 0.949 . S
H750 C756 0.950 . S
H751 C757 0.950 . S
H752 C758 0.949 . S
C753 H748 0.950 . S
C753 C755 1.327 . S
C753 C759 1.429 . S
C754 C746 1.574 . S
C754 H749 0.949 . S
C754 C760 1.368 . S
C755 C739 1.349 . S
C755 H747 0.950 . S
C755 C753 1.327 . S
C756 C744 1.349 . S
C756 H750 0.950 . S
C756 C757 1.327 1_554 S
C757 H751 0.950 . S
C757 C756 1.327 1_556 S
C757 C761 1.429 . S
C758 C741 1.574 . S
C758 H752 0.949 . S
C758 C762 1.368 . S
C759 C740 1.429 . S
C759 C753 1.429 . S
C759 C760 1.523 . S
C760 C741 1.368 . S
C760 C754 1.368 . S
C760 C759 1.523 . S
C761 C745 1.429 1_556 S
C761 C757 1.429 . S
C761 C762 1.523 . S
C762 C746 1.368 . S
C762 C758 1.368 . S
C762 C761 1.523 . S
H763 C738 0.950 . S
H764 C740 0.950 . S
H765 C741 0.949 . S
H766 C743 0.950 . S
H767 C745 0.950 1_556 S
C768 C769 1.349 . S
C768 C770 1.327 . S
C768 H793 0.950 . S
C769 C768 1.349 . S
C769 C785 1.349 . S
C770 C768 1.327 . S
C770 C789 1.429 . S
C770 H794 0.950 . S
C771 C788 1.574 . S
C771 C790 1.368 . S
C771 H795 0.949 . S
H772 C776 0.949 . S
C773 C774 1.349 . S
C773 C775 1.327 . S
C773 H796 0.950 . S
C774 C773 1.349 . S
C774 C786 1.349 . S
C775 C773 1.327 . S
C775 C791 1.429 . S
C775 H797 0.950 . S
C776 H772 0.949 . S
C776 C784 1.574 . S
C776 C792 1.368 . S
H777 C785 0.950 . S
H778 C783 0.950 . S
H779 C784 0.949 . S
H780 C786 0.950 . S
H781 C787 0.950 . S
H782 C788 0.949 . S
C783 H778 0.950 . S
C783 C785 1.327 . S
C783 C789 1.429 . S
C784 C776 1.574 . S
C784 H779 0.949 . S
C784 C790 1.368 . S
C785 C769 1.349 . S
C785 H777 0.950 . S
C785 C783 1.327 . S
C786 C774 1.349 . S
C786 H780 0.950 . S
C786 C787 1.327 . S
C787 H781 0.950 . S
C787 C786 1.327 . S
C787 C791 1.429 . S
C788 C771 1.574 . S
C788 H782 0.949 . S
C788 C792 1.368 . S
C789 C770 1.429 . S
C789 C783 1.429 . S
C789 C790 1.523 . S
C790 C771 1.368 . S
C790 C784 1.368 . S
C790 C789 1.523 . S
C791 C775 1.429 . S
C791 C787 1.429 . S
C791 C792 1.523 1_556 S
C792 C776 1.368 . S
C792 C788 1.368 . S
C792 C791 1.523 1_554 S
H793 C768 0.950 . S
H794 C770 0.950 . S
H795 C771 0.949 . S
H796 C773 0.950 . S
H797 C775 0.950 . S
C798 C799 1.349 . S
C798 C800 1.327 . S
C798 H823 0.950 . S
C799 C798 1.349 . S
C799 C815 1.349 . S
C800 C798 1.327 . S
C800 C819 1.429 . S
C800 H824 0.950 . S
C801 C818 1.574 . S
C801 C820 1.368 . S
C801 H825 0.949 . S
H802 C806 0.949 . S
C803 C804 1.349 . S
C803 C805 1.327 . S
C803 H826 0.950 . S
C804 C803 1.349 . S
C804 C816 1.349 . S
C805 C803 1.327 . S
C805 C821 1.429 . S
C805 H827 0.950 . S
C806 H802 0.949 . S
C806 C814 1.574 . S
C806 C822 1.368 . S
H807 C815 0.950 . S
H808 C813 0.950 . S
H809 C814 0.949 . S
H810 C816 0.950 . S
H811 C817 0.950 . S
H812 C818 0.949 . S
C813 H808 0.950 . S
C813 C815 1.327 . S
C813 C819 1.429 . S
C814 C806 1.574 . S
C814 H809 0.949 . S
C814 C820 1.368 . S
C815 C799 1.349 . S
C815 H807 0.950 . S
C815 C813 1.327 . S
C816 C804 1.349 . S
C816 H810 0.950 . S
C816 C817 1.327 . S
C817 H811 0.950 . S
C817 C816 1.327 . S
C817 C821 1.429 . S
C818 C801 1.574 . S
C818 H812 0.949 . S
C818 C822 1.368 . S
C819 C800 1.429 . S
C819 C813 1.429 . S
C819 C820 1.523 . S
C820 C801 1.368 . S
C820 C814 1.368 . S
C820 C819 1.523 . S
C821 C805 1.429 . S
C821 C817 1.429 . S
C821 C822 1.523 . S
C822 C806 1.368 . S
C822 C818 1.368 . S
C822 C821 1.523 . S
H823 C798 0.950 . S
H824 C800 0.950 . S
H825 C801 0.949 . S
H826 C803 0.950 . S
H827 C805 0.950 . S
C828 C829 1.349 . S
C828 C830 1.327 . S
C828 H853 0.950 . S
C829 C828 1.349 . S
C829 C845 1.349 . S
C830 C828 1.327 . S
C830 C849 1.429 . S
C830 H854 0.950 . S
C831 C848 1.574 . S
C831 C850 1.368 . S
C831 H855 0.949 . S
H832 C836 0.949 . S
C833 C834 1.349 . S
C833 C835 1.327 . S
C833 H856 0.950 . S
C834 C833 1.349 . S
C834 C846 1.349 . S
C835 C833 1.327 . S
C835 C851 1.429 . S
C835 H857 0.950 . S
C836 H832 0.949 . S
C836 C844 1.574 . S
C836 C852 1.368 . S
H837 C845 0.950 . S
H838 C843 0.950 . S
H839 C844 0.949 . S
H840 C846 0.950 . S
H841 C847 0.950 . S
H842 C848 0.949 . S
C843 H838 0.950 . S
C843 C845 1.327 . S
C843 C849 1.429 . S
C844 C836 1.574 . S
C844 H839 0.949 . S
C844 C850 1.368 . S
C845 C829 1.349 . S
C845 H837 0.950 . S
C845 C843 1.327 . S
C846 C834 1.349 . S
C846 H840 0.950 . S
C846 C847 1.327 . S
C847 H841 0.950 . S
C847 C846 1.327 . S
C847 C851 1.429 . S
C848 C831 1.574 . S
C848 H842 0.949 . S
C848 C852 1.368 . S
C849 C830 1.429 . S
C849 C843 1.429 . S
C849 C850 1.523 . S
C850 C831 1.368 . S
C850 C844 1.368 . S
C850 C849 1.523 . S
C851 C835 1.429 . S
C851 C847 1.429 . S
C851 C852 1.523 . S
C852 C836 1.368 . S
C852 C848 1.368 . S
C852 C851 1.523 . S
H853 C828 0.950 . S
H854 C830 0.950 . S
H855 C831 0.949 . S
H856 C833 0.950 . S
H857 C835 0.950 . S
C858 C859 1.349 . S
C858 C860 1.327 . S
C858 H883 0.950 . S
C859 C858 1.349 . S
C859 C875 1.349 . S
C860 C858 1.327 . S
C860 C879 1.429 . S
C860 H884 0.950 . S
C861 C878 1.574 . S
C861 C880 1.368 . S
C861 H885 0.949 . S
H862 C866 0.949 . S
C863 C864 1.340 1_556 S
C863 C865 1.327 . S
C863 H886 0.950 . S
C864 C863 1.340 1_554 S
C864 C876 1.342 1_554 S
C865 C863 1.327 . S
C865 C881 1.429 . S
C865 H887 0.950 . S
C866 H862 0.949 . S
C866 C874 1.574 . S
C866 C882 1.368 . S
H867 C875 0.950 . S
H868 C873 0.950 . S
H869 C874 0.949 . S
H870 C876 0.950 . S
H871 C877 0.950 . S
H872 C878 0.949 . S
C873 H868 0.950 . S
C873 C875 1.327 . S
C873 C879 1.429 . S
C874 C866 1.574 . S
C874 H869 0.949 . S
C874 C880 1.368 . S
C875 C859 1.349 . S
C875 H867 0.950 . S
C875 C873 1.327 . S
C876 C864 1.342 1_556 S
C876 H870 0.950 . S
C876 C877 1.327 . S
C877 H871 0.950 . S
C877 C876 1.327 . S
C877 C881 1.429 . S
C878 C861 1.574 . S
C878 H872 0.949 . S
C878 C882 1.368 . S
C879 C860 1.429 . S
C879 C873 1.429 . S
C879 C880 1.523 . S
C880 C861 1.368 . S
C880 C874 1.368 . S
C880 C879 1.523 . S
C881 C865 1.429 . S
C881 C877 1.429 . S
C881 C882 1.523 . S
C882 C866 1.368 . S
C882 C878 1.368 . S
C882 C881 1.523 . S
H883 C858 0.950 . S
H884 C860 0.950 . S
H885 C861 0.949 . S
H886 C863 0.950 . S
H887 C865 0.950 . S
C888 C889 1.349 . S
C888 C890 1.327 . S
C888 H913 0.950 . S
C889 C888 1.349 . S
C889 C905 1.349 . S
C890 C888 1.327 . S
C890 C909 1.429 . S
C890 H914 0.950 . S
C891 C908 1.574 1_556 S
C891 C910 1.368 . S
C891 H915 0.949 . S
H892 C896 0.949 . S
C893 C894 1.349 . S
C893 C895 1.327 . S
C893 H916 0.950 . S
C894 C893 1.349 . S
C894 C906 1.349 . S
C895 C893 1.327 . S
C895 C911 1.429 . S
C895 H917 0.950 . S
C896 H892 0.949 . S
C896 C904 1.574 1_554 S
C896 C912 1.368 . S
H897 C905 0.950 . S
H898 C903 0.950 . S
H899 C904 0.949 . S
H900 C906 0.950 . S
H901 C907 0.950 . S
H902 C908 0.949 . S
C903 H898 0.950 . S
C903 C905 1.327 . S
C903 C909 1.429 . S
C904 C896 1.574 1_556 S
C904 H899 0.949 . S
C904 C910 1.368 . S
C905 C889 1.349 . S
C905 H897 0.950 . S
C905 C903 1.327 . S
C906 C894 1.349 . S
C906 H900 0.950 . S
C906 C907 1.327 . S
C907 H901 0.950 . S
C907 C906 1.327 . S
C907 C911 1.429 . S
C908 C891 1.574 1_554 S
C908 H902 0.949 . S
C908 C912 1.368 . S
C909 C890 1.429 . S
C909 C903 1.429 . S
C909 C910 1.523 . S
C910 C891 1.368 . S
C910 C904 1.368 . S
C910 C909 1.523 . S
C911 C895 1.429 . S
C911 C907 1.429 . S
C911 C912 1.523 . S
C912 C896 1.368 . S
C912 C908 1.368 . S
C912 C911 1.523 . S
H913 C888 0.950 . S
H914 C890 0.950 . S
H915 C891 0.949 . S
H916 C893 0.950 . S
H917 C895 0.950 . S
C918 C919 1.349 1_556 S
C918 C920 1.327 . S
C918 H943 0.950 . S
C919 C918 1.349 1_554 S
C919 C935 1.349 1_554 S
C920 C918 1.327 . S
C920 C939 1.429 . S
C920 H944 0.950 . S
C921 C938 1.574 . S
C921 C940 1.368 . S
C921 H945 0.949 . S
H922 C926 0.949 . S
C923 C924 1.349 . S
C923 C925 1.327 . S
C923 H946 0.950 . S
C924 C923 1.349 . S
C924 C936 1.349 . S
C925 C923 1.327 . S
C925 C941 1.429 . S
C925 H947 0.950 . S
C926 H922 0.949 . S
C926 C934 1.574 . S
C926 C942 1.368 . S
H927 C935 0.950 1_554 S
H928 C933 0.950 . S
H929 C934 0.949 . S
H930 C936 0.950 . S
H931 C937 0.950 . S
H932 C938 0.949 . S
C933 H928 0.950 . S
C933 C935 1.327 . S
C933 C939 1.429 . S
C934 C926 1.574 . S
C934 H929 0.949 . S
C934 C940 1.368 . S
C935 C919 1.349 1_556 S
C935 H927 0.950 1_556 S
C935 C933 1.327 . S
C936 C924 1.349 . S
C936 H930 0.950 . S
C936 C937 1.327 . S
C937 H931 0.950 . S
C937 C936 1.327 . S
C937 C941 1.429 . S
C938 C921 1.574 . S
C938 H932 0.949 . S
C938 C942 1.368 . S
C939 C920 1.429 . S
C939 C933 1.429 . S
C939 C940 1.523 . S
C940 C921 1.368 . S
C940 C934 1.368 . S
C940 C939 1.523 . S
C941 C925 1.429 . S
C941 C937 1.429 . S
C941 C942 1.523 . S
C942 C926 1.368 . S
C942 C938 1.368 . S
C942 C941 1.523 . S
H943 C918 0.950 . S
H944 C920 0.950 . S
H945 C921 0.949 . S
H946 C923 0.950 . S
H947 C925 0.950 . S
C948 C949 1.349 . S
C948 C950 1.327 . S
C948 H973 0.950 . S
C949 C948 1.349 . S
C949 C965 1.349 . S
C950 C948 1.327 . S
C950 C969 1.429 . S
C950 H974 0.950 . S
C951 C968 1.574 . S
C951 C970 1.368 . S
C951 H975 0.949 . S
H952 C956 0.949 . S
C953 C954 1.349 . S
C953 C955 1.327 . S
C953 H976 0.950 . S
C954 C953 1.349 . S
C954 C966 1.349 . S
C955 C953 1.327 . S
C955 C971 1.429 . S
C955 H977 0.950 . S
C956 H952 0.949 . S
C956 C964 1.574 . S
C956 C972 1.368 . S
H957 C965 0.950 . S
H958 C963 0.950 . S
H959 C964 0.949 . S
H960 C966 0.950 . S
H961 C967 0.950 . S
H962 C968 0.949 . S
C963 H958 0.950 . S
C963 C965 1.327 . S
C963 C969 1.429 . S
C964 C956 1.574 . S
C964 H959 0.949 . S
C964 C970 1.368 . S
C965 C949 1.349 . S
C965 H957 0.950 . S
C965 C963 1.327 . S
C966 C954 1.349 . S
C966 H960 0.950 . S
C966 C967 1.327 . S
C967 H961 0.950 . S
C967 C966 1.327 . S
C967 C971 1.429 . S
C968 C951 1.574 . S
C968 H962 0.949 . S
C968 C972 1.368 . S
C969 C950 1.429 . S
C969 C963 1.429 . S
C969 C970 1.523 . S
C970 C951 1.368 . S
C970 C964 1.368 . S
C970 C969 1.523 . S
C971 C955 1.429 . S
C971 C967 1.429 . S
C971 C972 1.523 . S
C972 C956 1.368 . S
C972 C968 1.368 . S
C972 C971 1.523 . S
H973 C948 0.950 . S
H974 C950 0.950 . S
H975 C951 0.949 . S
H976 C953 0.950 . S
H977 C955 0.950 . S
C978 C979 1.349 . S
C978 C980 1.327 . S
C978 H1003 0.950 . S
C979 C978 1.349 . S
C979 C995 1.349 . S
C980 C978 1.327 . S
C980 C999 1.429 . S
C980 H1004 0.950 . S
C981 C998 1.574 . S
C981 C1000 1.368 . S
C981 H1005 0.949 . S
H982 C986 0.949 . S
C983 C984 1.349 . S
C983 C985 1.327 . S
C983 H1006 0.950 . S
C984 C983 1.349 . S
C984 C996 1.349 . S
C985 C983 1.327 . S
C985 C1001 1.429 . S
C985 H1007 0.950 . S
C986 H982 0.949 . S
C986 C994 1.574 . S
C986 C1002 1.368 . S
H987 C995 0.950 . S
H988 C993 0.950 . S
H989 C994 0.949 . S
H990 C996 0.950 . S
H991 C997 0.950 . S
H992 C998 0.949 . S
C993 H988 0.950 . S
C993 C995 1.327 . S
C993 C999 1.429 . S
C994 C986 1.574 . S
C994 H989 0.949 . S
C994 C1000 1.368 . S
C995 C979 1.349 . S
C995 H987 0.950 . S
C995 C993 1.327 . S
C996 C984 1.349 . S
C996 H990 0.950 . S
C996 C997 1.327 . S
C997 H991 0.950 . S
C997 C996 1.327 . S
C997 C1001 1.429 . S
C998 C981 1.574 . S
C998 H992 0.949 . S
C998 C1002 1.368 . S
C999 C980 1.429 . S
C999 C993 1.429 . S
C999 C1000 1.523 . S
C1000 C981 1.368 . S
C1000 C994 1.368 . S
C1000 C999 1.523 . S
C1001 C985 1.429 . S
C1001 C997 1.429 . S
C1001 C1002 1.523 . S
C1002 C986 1.368 . S
C1002 C998 1.368 . S
C1002 C1001 1.523 . S
H1003 C978 0.950 . S
H1004 C980 0.950 . S
H1005 C981 0.949 . S
H1006 C983 0.950 . S
H1007 C985 0.950 . S
C1008 C1009 1.349 . S
C1008 C1010 1.327 . S
C1008 H1033 0.950 . S
C1009 C1008 1.349 . S
C1009 C1025 1.349 . S
C1010 C1008 1.327 . S
C1010 C1029 1.429 . S
C1010 H1034 0.950 . S
C1011 C1028 1.574 . S
C1011 C1030 1.368 . S
C1011 H1035 0.949 . S
H1012 C1016 0.949 . S
C1013 C1014 1.349 . S
C1013 C1015 1.327 . S
C1013 H1036 0.950 . S
C1014 C1013 1.349 . S
C1014 C1026 1.349 . S
C1015 C1013 1.327 . S
C1015 C1031 1.429 . S
C1015 H1037 0.950 . S
C1016 H1012 0.949 . S
C1016 C1024 1.574 . S
C1016 C1032 1.368 . S
H1017 C1025 0.950 . S
H1018 C1023 0.950 . S
H1019 C1024 0.949 . S
H1020 C1026 0.950 . S
H1021 C1027 0.950 . S
H1022 C1028 0.949 . S
C1023 H1018 0.950 . S
C1023 C1025 1.327 . S
C1023 C1029 1.429 . S
C1024 C1016 1.574 . S
C1024 H1019 0.949 . S
C1024 C1030 1.368 . S
C1025 C1009 1.349 . S
C1025 H1017 0.950 . S
C1025 C1023 1.327 . S
C1026 C1014 1.349 . S
C1026 H1020 0.950 . S
C1026 C1027 1.327 . S
C1027 H1021 0.950 . S
C1027 C1026 1.327 . S
C1027 C1031 1.429 . S
C1028 C1011 1.574 . S
C1028 H1022 0.949 . S
C1028 C1032 1.368 . S
C1029 C1010 1.429 . S
C1029 C1023 1.429 . S
C1029 C1030 1.523 . S
C1030 C1011 1.368 . S
C1030 C1024 1.368 . S
C1030 C1029 1.523 . S
C1031 C1015 1.429 . S
C1031 C1027 1.429 . S
C1031 C1032 1.523 . S
C1032 C1016 1.368 . S
C1032 C1028 1.368 . S
C1032 C1031 1.523 . S
H1033 C1008 0.950 . S
H1034 C1010 0.950 . S
H1035 C1011 0.949 . S
H1036 C1013 0.950 . S
H1037 C1015 0.950 . S
C1038 C1039 1.349 . S
C1038 C1040 1.327 . S
C1038 H1063 0.950 . S
C1039 C1038 1.349 . S
C1039 C1055 1.349 . S
C1040 C1038 1.327 . S
C1040 C1059 1.429 . S
C1040 H1064 0.950 . S
C1041 C1058 1.574 . S
C1041 C1060 1.368 . S
C1041 H1065 0.949 . S
H1042 C1046 0.949 . S
C1043 C1044 1.349 . S
C1043 C1045 1.327 . S
C1043 H1066 0.950 . S
C1044 C1043 1.349 . S
C1044 C1056 1.349 . S
C1045 C1043 1.327 . S
C1045 C1061 1.429 . S
C1045 H1067 0.950 . S
C1046 H1042 0.949 . S
C1046 C1054 1.574 . S
C1046 C1062 1.368 . S
H1047 C1055 0.950 . S
H1048 C1053 0.950 . S
H1049 C1054 0.949 . S
H1050 C1056 0.950 . S
H1051 C1057 0.950 . S
H1052 C1058 0.949 . S
C1053 H1048 0.950 . S
C1053 C1055 1.327 . S
C1053 C1059 1.429 . S
C1054 C1046 1.574 . S
C1054 H1049 0.949 . S
C1054 C1060 1.368 . S
C1055 C1039 1.349 . S
C1055 H1047 0.950 . S
C1055 C1053 1.327 . S
C1056 C1044 1.349 . S
C1056 H1050 0.950 . S
C1056 C1057 1.327 . S
C1057 H1051 0.950 . S
C1057 C1056 1.327 . S
C1057 C1061 1.429 . S
C1058 C1041 1.574 . S
C1058 H1052 0.949 . S
C1058 C1062 1.368 . S
C1059 C1040 1.429 . S
C1059 C1053 1.429 . S
C1059 C1060 1.523 . S
C1060 C1041 1.368 . S
C1060 C1054 1.368 . S
C1060 C1059 1.523 . S
C1061 C1045 1.429 . S
C1061 C1057 1.429 . S
C1061 C1062 1.523 . S
C1062 C1046 1.368 . S
C1062 C1058 1.368 . S
C1062 C1061 1.523 . S
H1063 C1038 0.950 . S
H1064 C1040 0.950 . S
H1065 C1041 0.949 . S
H1066 C1043 0.950 . S
H1067 C1045 0.950 . S
C1068 C1069 1.349 . S
C1068 C1070 1.327 . S
C1068 H1093 0.950 . S
C1069 C1068 1.349 . S
C1069 C1085 1.349 . S
C1070 C1068 1.327 . S
C1070 C1089 1.429 . S
C1070 H1094 0.950 . S
C1071 C1088 1.574 . S
C1071 C1090 1.368 . S
C1071 H1095 0.949 . S
H1072 C1076 0.949 . S
C1073 C1074 1.349 . S
C1073 C1075 1.327 . S
C1073 H1096 0.950 . S
C1074 C1073 1.349 . S
C1074 C1086 1.349 . S
C1075 C1073 1.327 . S
C1075 C1091 1.429 . S
C1075 H1097 0.950 . S
C1076 H1072 0.949 . S
C1076 C1084 1.574 . S
C1076 C1092 1.368 . S
H1077 C1085 0.950 . S
H1078 C1083 0.950 . S
H1079 C1084 0.949 . S
H1080 C1086 0.950 . S
H1081 C1087 0.950 . S
H1082 C1088 0.949 . S
C1083 H1078 0.950 . S
C1083 C1085 1.327 . S
C1083 C1089 1.429 . S
C1084 C1076 1.574 . S
C1084 H1079 0.949 . S
C1084 C1090 1.368 . S
C1085 C1069 1.349 . S
C1085 H1077 0.950 . S
C1085 C1083 1.327 . S
C1086 C1074 1.349 . S
C1086 H1080 0.950 . S
C1086 C1087 1.327 . S
C1087 H1081 0.950 . S
C1087 C1086 1.327 . S
C1087 C1091 1.429 . S
C1088 C1071 1.574 . S
C1088 H1082 0.949 . S
C1088 C1092 1.368 . S
C1089 C1070 1.429 . S
C1089 C1083 1.429 . S
C1089 C1090 1.523 . S
C1090 C1071 1.368 . S
C1090 C1084 1.368 . S
C1090 C1089 1.523 . S
C1091 C1075 1.429 . S
C1091 C1087 1.429 . S
C1091 C1092 1.523 . S
C1092 C1076 1.368 . S
C1092 C1088 1.368 . S
C1092 C1091 1.523 . S
H1093 C1068 0.950 . S
H1094 C1070 0.950 . S
H1095 C1071 0.949 . S
H1096 C1073 0.950 . S
H1097 C1075 0.950 . S
C1098 C1099 1.349 . S
C1098 C1100 1.327 . S
C1098 H1123 0.950 . S
C1099 C1098 1.349 . S
C1099 C1115 1.349 1_554 S
C1100 C1098 1.327 . S
C1100 C1119 1.429 1_554 S
C1100 H1124 0.950 . S
C1101 C1118 1.574 . S
C1101 C1120 1.368 . S
C1101 H1125 0.949 . S
H1102 C1106 0.949 . S
C1103 C1104 1.349 . S
C1103 C1105 1.327 . S
C1103 H1126 0.950 . S
C1104 C1103 1.349 . S
C1104 C1116 1.349 . S
C1105 C1103 1.327 . S
C1105 C1121 1.429 . S
C1105 H1127 0.950 . S
C1106 H1102 0.949 . S
C1106 C1114 1.574 . S
C1106 C1122 1.368 . S
H1107 C1115 0.950 . S
H1108 C1113 0.950 . S
H1109 C1114 0.949 1_554 S
H1110 C1116 0.950 . S
H1111 C1117 0.950 . S
H1112 C1118 0.949 . S
C1113 H1108 0.950 . S
C1113 C1115 1.327 . S
C1113 C1119 1.429 . S
C1114 C1106 1.574 . S
C1114 H1109 0.949 1_556 S
C1114 C1120 1.368 . S
C1115 C1099 1.349 1_556 S
C1115 H1107 0.950 . S
C1115 C1113 1.327 . S
C1116 C1104 1.349 . S
C1116 H1110 0.950 . S
C1116 C1117 1.327 . S
C1117 H1111 0.950 . S
C1117 C1116 1.327 . S
C1117 C1121 1.429 . S
C1118 C1101 1.574 . S
C1118 H1112 0.949 . S
C1118 C1122 1.368 . S
C1119 C1100 1.429 1_556 S
C1119 C1113 1.429 . S
C1119 C1120 1.523 . S
C1120 C1101 1.368 . S
C1120 C1114 1.368 . S
C1120 C1119 1.523 . S
C1121 C1105 1.429 . S
C1121 C1117 1.429 . S
C1121 C1122 1.523 . S
C1122 C1106 1.368 . S
C1122 C1118 1.368 . S
C1122 C1121 1.523 . S
H1123 C1098 0.950 . S
H1124 C1100 0.950 . S
H1125 C1101 0.949 . S
H1126 C1103 0.950 . S
H1127 C1105 0.950 . S
C1128 C1129 1.349 . S
C1128 C1130 1.327 . S
C1128 H1153 0.950 . S
C1129 C1128 1.349 . S
C1129 C1145 1.349 . S
C1130 C1128 1.327 . S
C1130 C1149 1.429 . S
C1130 H1154 0.950 . S
C1131 C1148 1.574 . S
C1131 C1150 1.368 . S
C1131 H1155 0.949 . S
H1132 C1136 0.949 . S
C1133 C1134 1.349 . S
C1133 C1135 1.327 . S
C1133 H1156 0.950 . S
C1134 C1133 1.349 . S
C1134 C1146 1.349 . S
C1135 C1133 1.327 . S
C1135 C1151 1.429 . S
C1135 H1157 0.950 . S
C1136 H1132 0.949 . S
C1136 C1144 1.574 . S
C1136 C1152 1.368 . S
H1137 C1145 0.950 . S
H1138 C1143 0.950 . S
H1139 C1144 0.949 . S
H1140 C1146 0.950 1_554 S
H1141 C1147 0.950 . S
H1142 C1148 0.949 . S
C1143 H1138 0.950 . S
C1143 C1145 1.327 . S
C1143 C1149 1.429 . S
C1144 C1136 1.574 . S
C1144 H1139 0.949 . S
C1144 C1150 1.368 . S
C1145 C1129 1.349 . S
C1145 H1137 0.950 . S
C1145 C1143 1.327 . S
C1146 C1134 1.349 . S
C1146 H1140 0.950 1_556 S
C1146 C1147 1.327 . S
C1147 H1141 0.950 . S
C1147 C1146 1.327 . S
C1147 C1151 1.429 . S
C1148 C1131 1.574 . S
C1148 H1142 0.949 . S
C1148 C1152 1.368 . S
C1149 C1130 1.429 . S
C1149 C1143 1.429 . S
C1149 C1150 1.523 . S
C1150 C1131 1.368 . S
C1150 C1144 1.368 . S
C1150 C1149 1.523 . S
C1151 C1135 1.429 . S
C1151 C1147 1.429 . S
C1151 C1152 1.523 . S
C1152 C1136 1.368 . S
C1152 C1148 1.368 . S
C1152 C1151 1.523 . S
H1153 C1128 0.950 . S
H1154 C1130 0.950 . S
H1155 C1131 0.949 . S
H1156 C1133 0.950 . S
H1157 C1135 0.950 . S
C1158 C1159 1.349 . S
C1158 C1160 1.327 . S
C1158 H1183 0.950 . S
C1159 C1158 1.349 . S
C1159 C1175 1.349 . S
C1160 C1158 1.327 . S
C1160 C1179 1.429 . S
C1160 H1184 0.950 . S
C1161 C1178 1.574 . S
C1161 C1180 1.368 . S
C1161 H1185 0.949 . S
H1162 C1166 0.949 . S
C1163 C1164 1.349 . S
C1163 C1165 1.327 . S
C1163 H1186 0.950 . S
C1164 C1163 1.349 . S
C1164 C1176 1.349 . S
C1165 C1163 1.327 . S
C1165 C1181 1.429 . S
C1165 H1187 0.950 . S
C1166 H1162 0.949 . S
C1166 C1174 1.574 . S
C1166 C1182 1.368 . S
H1167 C1175 0.950 . S
H1168 C1173 0.950 . S
H1169 C1174 0.949 . S
H1170 C1176 0.950 . S
H1171 C1177 0.950 . S
H1172 C1178 0.949 . S
C1173 H1168 0.950 . S
C1173 C1175 1.327 . S
C1173 C1179 1.429 . S
C1174 C1166 1.574 . S
C1174 H1169 0.949 . S
C1174 C1180 1.368 . S
C1175 C1159 1.349 . S
C1175 H1167 0.950 . S
C1175 C1173 1.327 . S
C1176 C1164 1.349 . S
C1176 H1170 0.950 . S
C1176 C1177 1.327 . S
C1177 H1171 0.950 . S
C1177 C1176 1.327 . S
C1177 C1181 1.429 . S
C1178 C1161 1.574 . S
C1178 H1172 0.949 . S
C1178 C1182 1.368 . S
C1179 C1160 1.429 . S
C1179 C1173 1.429 . S
C1179 C1180 1.523 . S
C1180 C1161 1.368 . S
C1180 C1174 1.368 . S
C1180 C1179 1.523 . S
C1181 C1165 1.429 . S
C1181 C1177 1.429 . S
C1181 C1182 1.523 . S
C1182 C1166 1.368 . S
C1182 C1178 1.368 . S
C1182 C1181 1.523 . S
H1183 C1158 0.950 . S
H1184 C1160 0.950 . S
H1185 C1161 0.949 . S
H1186 C1163 0.950 . S
H1187 C1165 0.950 . S
C1188 C1189 1.349 . S
C1188 C1190 1.327 . S
C1188 H1213 0.950 . S
C1189 C1188 1.349 . S
C1189 C1205 1.349 . S
C1190 C1188 1.327 . S
C1190 C1209 1.429 . S
C1190 H1214 0.950 . S
C1191 C1208 1.574 . S
C1191 C1210 1.368 . S
C1191 H1215 0.949 . S
H1192 C1196 0.949 . S
C1193 C1194 1.349 . S
C1193 C1195 1.327 . S
C1193 H1216 0.950 . S
C1194 C1193 1.349 . S
C1194 C1206 1.349 . S
C1195 C1193 1.327 . S
C1195 C1211 1.429 . S
C1195 H1217 0.950 . S
C1196 H1192 0.949 . S
C1196 C1204 1.574 . S
C1196 C1212 1.368 . S
H1197 C1205 0.950 . S
H1198 C1203 0.950 . S
H1199 C1204 0.949 . S
H1200 C1206 0.950 . S
H1201 C1207 0.950 . S
H1202 C1208 0.949 . S
C1203 H1198 0.950 . S
C1203 C1205 1.327 . S
C1203 C1209 1.429 . S
C1204 C1196 1.574 . S
C1204 H1199 0.949 . S
C1204 C1210 1.368 . S
C1205 C1189 1.349 . S
C1205 H1197 0.950 . S
C1205 C1203 1.327 . S
C1206 C1194 1.349 . S
C1206 H1200 0.950 . S
C1206 C1207 1.327 . S
C1207 H1201 0.950 . S
C1207 C1206 1.327 . S
C1207 C1211 1.429 . S
C1208 C1191 1.574 . S
C1208 H1202 0.949 . S
C1208 C1212 1.368 . S
C1209 C1190 1.429 . S
C1209 C1203 1.429 . S
C1209 C1210 1.523 . S
C1210 C1191 1.368 . S
C1210 C1204 1.368 . S
C1210 C1209 1.523 . S
C1211 C1195 1.429 . S
C1211 C1207 1.429 . S
C1211 C1212 1.523 . S
C1212 C1196 1.368 . S
C1212 C1208 1.368 . S
C1212 C1211 1.523 . S
H1213 C1188 0.950 . S
H1214 C1190 0.950 . S
H1215 C1191 0.949 . S
H1216 C1193 0.950 . S
H1217 C1195 0.950 . S
C1218 C1219 1.349 . S
C1218 C1220 1.327 . S
C1218 H1243 0.950 . S
C1219 C1218 1.349 . S
C1219 C1235 1.349 . S
C1220 C1218 1.327 . S
C1220 C1239 1.429 . S
C1220 H1244 0.950 . S
C1221 C1238 1.574 . S
C1221 C1240 1.368 . S
C1221 H1245 0.949 . S
H1222 C1226 0.949 . S
C1223 C1224 1.349 . S
C1223 C1225 1.327 . S
C1223 H1246 0.950 . S
C1224 C1223 1.349 . S
C1224 C1236 1.349 . S
C1225 C1223 1.327 . S
C1225 C1241 1.429 . S
C1225 H1247 0.950 . S
C1226 H1222 0.949 . S
C1226 C1234 1.574 . S
C1226 C1242 1.368 . S
H1227 C1235 0.950 . S
H1228 C1233 0.950 . S
H1229 C1234 0.949 . S
H1230 C1236 0.950 . S
H1231 C1237 0.950 . S
H1232 C1238 0.949 . S
C1233 H1228 0.950 . S
C1233 C1235 1.327 . S
C1233 C1239 1.429 . S
C1234 C1226 1.574 . S
C1234 H1229 0.949 . S
C1234 C1240 1.368 . S
C1235 C1219 1.349 . S
C1235 H1227 0.950 . S
C1235 C1233 1.327 . S
C1236 C1224 1.349 . S
C1236 H1230 0.950 . S
C1236 C1237 1.327 . S
C1237 H1231 0.950 . S
C1237 C1236 1.327 . S
C1237 C1241 1.429 . S
C1238 C1221 1.574 . S
C1238 H1232 0.949 . S
C1238 C1242 1.368 . S
C1239 C1220 1.429 . S
C1239 C1233 1.429 . S
C1239 C1240 1.523 . S
C1240 C1221 1.368 . S
C1240 C1234 1.368 . S
C1240 C1239 1.523 . S
C1241 C1225 1.429 . S
C1241 C1237 1.429 . S
C1241 C1242 1.523 . S
C1242 C1226 1.368 . S
C1242 C1238 1.368 . S
C1242 C1241 1.523 . S
H1243 C1218 0.950 . S
H1244 C1220 0.950 . S
H1245 C1221 0.949 . S
H1246 C1223 0.950 . S
H1247 C1225 0.950 . S
C1248 C1249 1.349 . S
C1248 C1250 1.327 . S
C1248 H1273 0.950 . S
C1249 C1248 1.349 . S
C1249 C1265 1.349 . S
C1250 C1248 1.327 . S
C1250 C1269 1.429 . S
C1250 H1274 0.950 . S
C1251 C1268 1.574 . S
C1251 C1270 1.368 . S
C1251 H1275 0.949 . S
H1252 C1256 0.949 . S
C1253 C1254 1.349 . S
C1253 C1255 1.327 . S
C1253 H1276 0.950 . S
C1254 C1253 1.349 . S
C1254 C1266 1.349 . S
C1255 C1253 1.327 . S
C1255 C1271 1.429 . S
C1255 H1277 0.950 . S
C1256 H1252 0.949 . S
C1256 C1264 1.574 . S
C1256 C1272 1.368 . S
H1257 C1265 0.950 . S
H1258 C1263 0.950 . S
H1259 C1264 0.949 . S
H1260 C1266 0.950 . S
H1261 C1267 0.950 . S
H1262 C1268 0.949 . S
C1263 H1258 0.950 . S
C1263 C1265 1.327 . S
C1263 C1269 1.429 . S
C1264 C1256 1.574 . S
C1264 H1259 0.949 . S
C1264 C1270 1.368 . S
C1265 C1249 1.349 . S
C1265 H1257 0.950 . S
C1265 C1263 1.327 . S
C1266 C1254 1.349 . S
C1266 H1260 0.950 . S
C1266 C1267 1.327 . S
C1267 H1261 0.950 . S
C1267 C1266 1.327 . S
C1267 C1271 1.429 . S
C1268 C1251 1.574 . S
C1268 H1262 0.949 . S
C1268 C1272 1.368 . S
C1269 C1250 1.429 . S
C1269 C1263 1.429 . S
C1269 C1270 1.523 . S
C1270 C1251 1.368 . S
C1270 C1264 1.368 . S
C1270 C1269 1.523 . S
C1271 C1255 1.429 . S
C1271 C1267 1.429 . S
C1271 C1272 1.523 . S
C1272 C1256 1.368 . S
C1272 C1268 1.368 . S
C1272 C1271 1.523 . S
H1273 C1248 0.950 . S
H1274 C1250 0.950 . S
H1275 C1251 0.949 . S
H1276 C1253 0.950 . S
H1277 C1255 0.950 . S
C1278 C1279 1.349 . S
C1278 C1280 1.327 . S
C1278 H1303 0.950 . S
C1279 C1278 1.349 . S
C1279 C1295 1.349 . S
C1280 C1278 1.327 . S
C1280 C1299 1.429 . S
C1280 H1304 0.950 . S
C1281 C1298 1.574 . S
C1281 C1300 1.368 . S
C1281 H1305 0.949 . S
H1282 C1286 0.949 . S
C1283 C1284 1.349 1_554 S
C1283 C1285 1.327 . S
C1283 H1306 0.950 . S
C1284 C1283 1.349 1_556 S
C1284 C1296 1.349 . S
C1285 C1283 1.327 . S
C1285 C1301 1.429 1_554 S
C1285 H1307 0.950 . S
C1286 H1282 0.949 . S
C1286 C1294 1.574 . S
C1286 C1302 1.368 . S
H1287 C1295 0.950 . S
H1288 C1293 0.950 . S
H1289 C1294 0.949 . S
H1290 C1296 0.950 . S
H1291 C1297 0.950 . S
H1292 C1298 0.949 1_554 S
C1293 H1288 0.950 . S
C1293 C1295 1.327 . S
C1293 C1299 1.429 . S
C1294 C1286 1.574 . S
C1294 H1289 0.949 . S
C1294 C1300 1.368 . S
C1295 C1279 1.349 . S
C1295 H1287 0.950 . S
C1295 C1293 1.327 . S
C1296 C1284 1.349 . S
C1296 H1290 0.950 . S
C1296 C1297 1.327 . S
C1297 H1291 0.950 . S
C1297 C1296 1.327 . S
C1297 C1301 1.429 . S
C1298 C1281 1.574 . S
C1298 H1292 0.949 1_556 S
C1298 C1302 1.368 . S
C1299 C1280 1.429 . S
C1299 C1293 1.429 . S
C1299 C1300 1.523 . S
C1300 C1281 1.368 . S
C1300 C1294 1.368 . S
C1300 C1299 1.523 . S
C1301 C1285 1.429 1_556 S
C1301 C1297 1.429 . S
C1301 C1302 1.523 . S
C1302 C1286 1.368 . S
C1302 C1298 1.368 . S
C1302 C1301 1.523 . S
H1303 C1278 0.950 . S
H1304 C1280 0.950 . S
H1305 C1281 0.949 . S
H1306 C1283 0.950 . S
H1307 C1285 0.950 . S
C1308 C1309 1.349 . S
C1308 C1310 1.327 . S
C1308 H1333 0.950 . S
C1309 C1308 1.349 . S
C1309 C1325 1.349 1_554 S
C1310 C1308 1.327 . S
C1310 C1329 1.429 . S
C1310 H1334 0.950 . S
C1311 C1328 1.574 . S
C1311 C1330 1.368 . S
C1311 H1335 0.949 . S
H1312 C1316 0.949 . S
C1313 C1314 1.349 . S
C1313 C1315 1.327 . S
C1313 H1336 0.950 . S
C1314 C1313 1.349 . S
C1314 C1326 1.349 . S
C1315 C1313 1.327 . S
C1315 C1331 1.429 . S
C1315 H1337 0.950 . S
C1316 H1312 0.949 . S
C1316 C1324 1.574 . S
C1316 C1332 1.368 . S
H1317 C1325 0.950 . S
H1318 C1323 0.950 1_556 S
H1319 C1324 0.949 . S
H1320 C1326 0.950 . S
H1321 C1327 0.950 . S
H1322 C1328 0.949 . S
C1323 H1318 0.950 1_554 S
C1323 C1325 1.327 1_554 S
C1323 C1329 1.429 . S
C1324 C1316 1.574 . S
C1324 H1319 0.949 . S
C1324 C1330 1.368 . S
C1325 C1309 1.349 1_556 S
C1325 H1317 0.950 . S
C1325 C1323 1.327 1_556 S
C1326 C1314 1.349 . S
C1326 H1320 0.950 . S
C1326 C1327 1.327 . S
C1327 H1321 0.950 . S
C1327 C1326 1.327 . S
C1327 C1331 1.429 . S
C1328 C1311 1.574 . S
C1328 H1322 0.949 . S
C1328 C1332 1.368 . S
C1329 C1310 1.429 . S
C1329 C1323 1.429 . S
C1329 C1330 1.523 . S
C1330 C1311 1.368 . S
C1330 C1324 1.368 . S
C1330 C1329 1.523 . S
C1331 C1315 1.429 . S
C1331 C1327 1.429 . S
C1331 C1332 1.523 . S
C1332 C1316 1.368 . S
C1332 C1328 1.368 . S
C1332 C1331 1.523 . S
H1333 C1308 0.950 . S
H1334 C1310 0.950 . S
H1335 C1311 0.949 . S
H1336 C1313 0.950 . S
H1337 C1315 0.950 . S
C1338 C1339 1.349 . S
C1338 C1340 1.327 . S
C1338 H1363 0.950 . S
C1339 C1338 1.349 . S
C1339 C1355 1.349 . S
C1340 C1338 1.327 . S
C1340 C1359 1.429 . S
C1340 H1364 0.950 . S
C1341 C1358 1.574 . S
C1341 C1360 1.368 . S
C1341 H1365 0.949 . S
H1342 C1346 0.949 . S
C1343 C1344 1.349 . S
C1343 C1345 1.327 . S
C1343 H1366 0.950 . S
C1344 C1343 1.349 . S
C1344 C1356 1.349 . S
C1345 C1343 1.327 . S
C1345 C1361 1.429 . S
C1345 H1367 0.950 . S
C1346 H1342 0.949 . S
C1346 C1354 1.574 . S
C1346 C1362 1.368 . S
H1347 C1355 0.950 . S
H1348 C1353 0.950 . S
H1349 C1354 0.949 . S
H1350 C1356 0.950 . S
H1351 C1357 0.950 . S
H1352 C1358 0.949 . S
C1353 H1348 0.950 . S
C1353 C1355 1.327 . S
C1353 C1359 1.429 . S
C1354 C1346 1.574 . S
C1354 H1349 0.949 . S
C1354 C1360 1.368 . S
C1355 C1339 1.349 . S
C1355 H1347 0.950 . S
C1355 C1353 1.327 . S
C1356 C1344 1.349 . S
C1356 H1350 0.950 . S
C1356 C1357 1.327 . S
C1357 H1351 0.950 . S
C1357 C1356 1.327 . S
C1357 C1361 1.429 . S
C1358 C1341 1.574 . S
C1358 H1352 0.949 . S
C1358 C1362 1.368 . S
C1359 C1340 1.429 . S
C1359 C1353 1.429 . S
C1359 C1360 1.523 . S
C1360 C1341 1.368 . S
C1360 C1354 1.368 . S
C1360 C1359 1.523 . S
C1361 C1345 1.429 . S
C1361 C1357 1.429 . S
C1361 C1362 1.523 . S
C1362 C1346 1.368 . S
C1362 C1358 1.368 . S
C1362 C1361 1.523 . S
H1363 C1338 0.950 . S
H1364 C1340 0.950 . S
H1365 C1341 0.949 . S
H1366 C1343 0.950 . S
H1367 C1345 0.950 . S
C1368 C1369 1.349 . S
C1368 C1370 1.327 . S
C1368 H1393 0.950 . S
C1369 C1368 1.349 . S
C1369 C1385 1.349 . S
C1370 C1368 1.327 . S
C1370 C1389 1.429 . S
C1370 H1394 0.950 . S
C1371 C1388 1.574 . S
C1371 C1390 1.368 . S
C1371 H1395 0.949 . S
H1372 C1376 0.949 . S
C1373 C1374 1.349 . S
C1373 C1375 1.327 . S
C1373 H1396 0.950 . S
C1374 C1373 1.349 . S
C1374 C1386 1.349 . S
C1375 C1373 1.327 . S
C1375 C1391 1.429 . S
C1375 H1397 0.950 . S
C1376 H1372 0.949 . S
C1376 C1384 1.574 . S
C1376 C1392 1.368 . S
H1377 C1385 0.950 . S
H1378 C1383 0.950 . S
H1379 C1384 0.949 . S
H1380 C1386 0.950 . S
H1381 C1387 0.950 . S
H1382 C1388 0.949 . S
C1383 H1378 0.950 . S
C1383 C1385 1.327 . S
C1383 C1389 1.429 . S
C1384 C1376 1.574 . S
C1384 H1379 0.949 . S
C1384 C1390 1.368 . S
C1385 C1369 1.349 . S
C1385 H1377 0.950 . S
C1385 C1383 1.327 . S
C1386 C1374 1.349 . S
C1386 H1380 0.950 . S
C1386 C1387 1.327 . S
C1387 H1381 0.950 . S
C1387 C1386 1.327 . S
C1387 C1391 1.429 . S
C1388 C1371 1.574 . S
C1388 H1382 0.949 . S
C1388 C1392 1.368 . S
C1389 C1370 1.429 . S
C1389 C1383 1.429 . S
C1389 C1390 1.523 . S
C1390 C1371 1.368 . S
C1390 C1384 1.368 . S
C1390 C1389 1.523 . S
C1391 C1375 1.429 . S
C1391 C1387 1.429 . S
C1391 C1392 1.523 . S
C1392 C1376 1.368 . S
C1392 C1388 1.368 . S
C1392 C1391 1.523 . S
H1393 C1368 0.950 . S
H1394 C1370 0.950 . S
H1395 C1371 0.949 . S
H1396 C1373 0.950 . S
H1397 C1375 0.950 . S
C1398 C1399 1.349 . S
C1398 C1400 1.327 . S
C1398 H1423 0.950 . S
C1399 C1398 1.349 . S
C1399 C1415 1.349 . S
C1400 C1398 1.327 . S
C1400 C1419 1.429 . S
C1400 H1424 0.950 . S
C1401 C1418 1.574 . S
C1401 C1420 1.368 . S
C1401 H1425 0.949 . S
H1402 C1406 0.949 . S
C1403 C1404 1.349 . S
C1403 C1405 1.327 . S
C1403 H1426 0.950 . S
C1404 C1403 1.349 . S
C1404 C1416 1.349 . S
C1405 C1403 1.327 . S
C1405 C1421 1.429 . S
C1405 H1427 0.950 . S
C1406 H1402 0.949 . S
C1406 C1414 1.574 . S
C1406 C1422 1.368 . S
H1407 C1415 0.950 . S
H1408 C1413 0.950 . S
H1409 C1414 0.949 . S
H1410 C1416 0.950 . S
H1411 C1417 0.950 . S
H1412 C1418 0.949 . S
C1413 H1408 0.950 . S
C1413 C1415 1.327 . S
C1413 C1419 1.429 . S
C1414 C1406 1.574 . S
C1414 H1409 0.949 . S
C1414 C1420 1.368 . S
C1415 C1399 1.349 . S
C1415 H1407 0.950 . S
C1415 C1413 1.327 . S
C1416 C1404 1.349 . S
C1416 H1410 0.950 . S
C1416 C1417 1.327 . S
C1417 H1411 0.950 . S
C1417 C1416 1.327 . S
C1417 C1421 1.429 . S
C1418 C1401 1.574 . S
C1418 H1412 0.949 . S
C1418 C1422 1.368 . S
C1419 C1400 1.429 . S
C1419 C1413 1.429 . S
C1419 C1420 1.523 . S
C1420 C1401 1.368 . S
C1420 C1414 1.368 . S
C1420 C1419 1.523 . S
C1421 C1405 1.429 . S
C1421 C1417 1.429 . S
C1421 C1422 1.523 . S
C1422 C1406 1.368 . S
C1422 C1418 1.368 . S
C1422 C1421 1.523 . S
H1423 C1398 0.950 . S
H1424 C1400 0.950 . S
H1425 C1401 0.949 . S
H1426 C1403 0.950 . S
H1427 C1405 0.950 . S
C1428 C1429 1.349 . S
C1428 C1430 1.327 . S
C1428 H1453 0.950 . S
C1429 C1428 1.349 . S
C1429 C1445 1.349 . S
C1430 C1428 1.327 . S
C1430 C1449 1.429 . S
C1430 H1454 0.950 1_556 S
C1431 C1448 1.574 . S
C1431 C1450 1.368 . S
C1431 H1455 0.949 . S
H1432 C1436 0.949 . S
C1433 C1434 1.349 1_556 S
C1433 C1435 1.327 . S
C1433 H1456 0.950 . S
C1434 C1433 1.349 1_554 S
C1434 C1446 1.349 . S
C1435 C1433 1.327 . S
C1435 C1451 1.429 1_556 S
C1435 H1457 0.950 . S
C1436 H1432 0.949 . S
C1436 C1444 1.574 . S
C1436 C1452 1.368 1_554 S
H1437 C1445 0.950 . S
H1438 C1443 0.950 . S
H1439 C1444 0.949 . S
H1440 C1446 0.950 . S
H1441 C1447 0.950 . S
H1442 C1448 0.949 . S
C1443 H1438 0.950 . S
C1443 C1445 1.327 . S
C1443 C1449 1.429 . S
C1444 C1436 1.574 . S
C1444 H1439 0.949 . S
C1444 C1450 1.368 1_554 S
C1445 C1429 1.349 . S
C1445 H1437 0.950 . S
C1445 C1443 1.327 . S
C1446 C1434 1.349 . S
C1446 H1440 0.950 . S
C1446 C1447 1.327 . S
C1447 H1441 0.950 . S
C1447 C1446 1.327 . S
C1447 C1451 1.429 . S
C1448 C1431 1.574 . S
C1448 H1442 0.949 . S
C1448 C1452 1.368 . S
C1449 C1430 1.429 . S
C1449 C1443 1.429 . S
C1449 C1450 1.523 . S
C1450 C1431 1.368 . S
C1450 C1444 1.368 1_556 S
C1450 C1449 1.523 . S
C1451 C1435 1.429 1_554 S
C1451 C1447 1.429 . S
C1451 C1452 1.523 1_554 S
C1452 C1436 1.368 1_556 S
C1452 C1448 1.368 . S
C1452 C1451 1.523 1_556 S
H1453 C1428 0.950 . S
H1454 C1430 0.950 1_554 S
H1455 C1431 0.949 . S
H1456 C1433 0.950 . S
H1457 C1435 0.950 . S
C1458 C1459 1.349 . S
C1458 C1460 1.327 . S
C1458 H1483 0.950 . S
C1459 C1458 1.349 . S
C1459 C1475 1.349 . S
C1460 C1458 1.327 . S
C1460 C1479 1.429 . S
C1460 H1484 0.950 . S
C1461 C1478 1.574 . S
C1461 C1480 1.368 . S
C1461 H1485 0.949 . S
H1462 C1466 0.949 . S
C1463 C1464 1.349 . S
C1463 C1465 1.327 . S
C1463 H1486 0.950 . S
C1464 C1463 1.349 . S
C1464 C1476 1.349 . S
C1465 C1463 1.327 . S
C1465 C1481 1.429 . S
C1465 H1487 0.950 . S
C1466 H1462 0.949 . S
C1466 C1474 1.574 . S
C1466 C1482 1.368 . S
H1467 C1475 0.950 . S
H1468 C1473 0.950 . S
H1469 C1474 0.949 . S
H1470 C1476 0.950 . S
H1471 C1477 0.950 . S
H1472 C1478 0.949 . S
C1473 H1468 0.950 . S
C1473 C1475 1.327 . S
C1473 C1479 1.429 . S
C1474 C1466 1.574 . S
C1474 H1469 0.949 . S
C1474 C1480 1.368 . S
C1475 C1459 1.349 . S
C1475 H1467 0.950 . S
C1475 C1473 1.327 . S
C1476 C1464 1.349 . S
C1476 H1470 0.950 . S
C1476 C1477 1.327 . S
C1477 H1471 0.950 . S
C1477 C1476 1.327 . S
C1477 C1481 1.429 . S
C1478 C1461 1.574 . S
C1478 H1472 0.949 . S
C1478 C1482 1.368 . S
C1479 C1460 1.429 . S
C1479 C1473 1.429 . S
C1479 C1480 1.523 . S
C1480 C1461 1.368 . S
C1480 C1474 1.368 . S
C1480 C1479 1.523 . S
C1481 C1465 1.429 . S
C1481 C1477 1.429 . S
C1481 C1482 1.523 . S
C1482 C1466 1.368 . S
C1482 C1478 1.368 . S
C1482 C1481 1.523 . S
H1483 C1458 0.950 . S
H1484 C1460 0.950 . S
H1485 C1461 0.949 . S
H1486 C1463 0.950 . S
H1487 C1465 0.950 . S
C1488 C1489 1.349 . S
C1488 C1490 1.327 . S
C1488 H1513 0.950 . S
C1489 C1488 1.349 . S
C1489 C1505 1.349 . S
C1490 C1488 1.327 . S
C1490 C1509 1.429 . S
C1490 H1514 0.950 . S
C1491 C1508 1.574 . S
C1491 C1510 1.368 . S
C1491 H1515 0.949 . S
H1492 C1496 0.949 . S
C1493 C1494 1.349 1_556 S
C1493 C1495 1.327 . S
C1493 H1516 0.950 . S
C1494 C1493 1.349 1_554 S
C1494 C1506 1.349 . S
C1495 C1493 1.327 . S
C1495 C1511 1.429 1_556 S
C1495 H1517 0.950 . S
C1496 H1492 0.949 . S
C1496 C1504 1.574 . S
C1496 C1512 1.368 . S
H1497 C1505 0.950 . S
H1498 C1503 0.950 . S
H1499 C1504 0.949 . S
H1500 C1506 0.950 . S
H1501 C1507 0.950 . S
H1502 C1508 0.949 1_556 S
C1503 H1498 0.950 . S
C1503 C1505 1.327 . S
C1503 C1509 1.429 . S
C1504 C1496 1.574 . S
C1504 H1499 0.949 . S
C1504 C1510 1.368 . S
C1505 C1489 1.349 . S
C1505 H1497 0.950 . S
C1505 C1503 1.327 . S
C1506 C1494 1.349 . S
C1506 H1500 0.950 . S
C1506 C1507 1.327 . S
C1507 H1501 0.950 . S
C1507 C1506 1.327 . S
C1507 C1511 1.429 . S
C1508 C1491 1.574 . S
C1508 H1502 0.949 1_554 S
C1508 C1512 1.368 . S
C1509 C1490 1.429 . S
C1509 C1503 1.429 . S
C1509 C1510 1.523 . S
C1510 C1491 1.368 . S
C1510 C1504 1.368 . S
C1510 C1509 1.523 . S
C1511 C1495 1.429 1_554 S
C1511 C1507 1.429 . S
C1511 C1512 1.523 . S
C1512 C1496 1.368 . S
C1512 C1508 1.368 . S
C1512 C1511 1.523 . S
H1513 C1488 0.950 . S
H1514 C1490 0.950 . S
H1515 C1491 0.949 . S
H1516 C1493 0.950 . S
H1517 C1495 0.950 . S
C1518 C1519 1.349 . S
C1518 C1520 1.327 . S
C1518 H1543 0.950 . S
C1519 C1518 1.349 . S
C1519 C1535 1.349 . S
C1520 C1518 1.327 . S
C1520 C1539 1.429 . S
C1520 H1544 0.950 . S
C1521 C1538 1.574 . S
C1521 C1540 1.368 . S
C1521 H1545 0.949 . S
H1522 C1526 0.949 . S
C1523 C1524 1.349 . S
C1523 C1525 1.327 . S
C1523 H1546 0.950 . S
C1524 C1523 1.349 . S
C1524 C1536 1.349 . S
C1525 C1523 1.327 . S
C1525 C1541 1.429 . S
C1525 H1547 0.950 . S
C1526 H1522 0.949 . S
C1526 C1534 1.574 . S
C1526 C1542 1.368 . S
H1527 C1535 0.950 . S
H1528 C1533 0.950 . S
H1529 C1534 0.949 . S
H1530 C1536 0.950 . S
H1531 C1537 0.950 . S
H1532 C1538 0.949 . S
C1533 H1528 0.950 . S
C1533 C1535 1.327 . S
C1533 C1539 1.429 . S
C1534 C1526 1.574 . S
C1534 H1529 0.949 . S
C1534 C1540 1.368 . S
C1535 C1519 1.349 . S
C1535 H1527 0.950 . S
C1535 C1533 1.327 . S
C1536 C1524 1.349 . S
C1536 H1530 0.950 . S
C1536 C1537 1.327 . S
C1537 H1531 0.950 . S
C1537 C1536 1.327 . S
C1537 C1541 1.429 . S
C1538 C1521 1.574 . S
C1538 H1532 0.949 . S
C1538 C1542 1.368 . S
C1539 C1520 1.429 . S
C1539 C1533 1.429 . S
C1539 C1540 1.523 . S
C1540 C1521 1.368 . S
C1540 C1534 1.368 . S
C1540 C1539 1.523 . S
C1541 C1525 1.429 . S
C1541 C1537 1.429 . S
C1541 C1542 1.523 . S
C1542 C1526 1.368 . S
C1542 C1538 1.368 . S
C1542 C1541 1.523 . S
H1543 C1518 0.950 . S
H1544 C1520 0.950 . S
H1545 C1521 0.949 . S
H1546 C1523 0.950 . S
H1547 C1525 0.950 . S
C1548 C1549 1.349 . S
C1548 C1550 1.327 . S
C1548 H1573 0.950 . S
C1549 C1548 1.349 . S
C1549 C1565 1.349 . S
C1550 C1548 1.327 . S
C1550 C1569 1.429 . S
C1550 H1574 0.950 . S
C1551 C1568 1.574 1_455 S
C1551 C1570 1.368 . S
C1551 H1575 0.949 . S
H1552 C1556 0.949 . S
C1553 C1554 1.349 . S
C1553 C1555 1.327 . S
C1553 H1576 0.950 . S
C1554 C1553 1.349 . S
C1554 C1566 1.349 . S
C1555 C1553 1.327 . S
C1555 C1571 1.429 . S
C1555 H1577 0.950 . S
C1556 H1552 0.949 . S
C1556 C1564 1.574 1_655 S
C1556 C1572 1.368 . S
H1557 C1565 0.950 . S
H1558 C1563 0.950 . S
H1559 C1564 0.949 . S
H1560 C1566 0.950 . S
H1561 C1567 0.950 . S
H1562 C1568 0.949 . S
C1563 H1558 0.950 . S
C1563 C1565 1.327 . S
C1563 C1569 1.429 . S
C1564 C1556 1.574 1_455 S
C1564 H1559 0.949 . S
C1564 C1570 1.368 . S
C1565 C1549 1.349 . S
C1565 H1557 0.950 . S
C1565 C1563 1.327 . S
C1566 C1554 1.349 . S
C1566 H1560 0.950 . S
C1566 C1567 1.327 . S
C1567 H1561 0.950 . S
C1567 C1566 1.327 . S
C1567 C1571 1.429 . S
C1568 C1551 1.574 1_655 S
C1568 H1562 0.949 . S
C1568 C1572 1.368 . S
C1569 C1550 1.429 . S
C1569 C1563 1.429 . S
C1569 C1570 1.523 . S
C1570 C1551 1.368 . S
C1570 C1564 1.368 . S
C1570 C1569 1.523 . S
C1571 C1555 1.429 . S
C1571 C1567 1.429 . S
C1571 C1572 1.523 . S
C1572 C1556 1.368 . S
C1572 C1568 1.368 . S
C1572 C1571 1.523 . S
H1573 C1548 0.950 . S
H1574 C1550 0.950 . S
H1575 C1551 0.949 . S
H1576 C1553 0.950 . S
H1577 C1555 0.950 . S
C1578 C1579 1.349 . S
C1578 C1580 1.327 . S
C1578 H1603 0.950 . S
C1579 C1578 1.349 . S
C1579 C1595 1.349 . S
C1580 C1578 1.327 . S
C1580 C1599 1.429 . S
C1580 H1604 0.950 . S
C1581 C1598 1.574 . S
C1581 C1600 1.368 . S
C1581 H1605 0.949 . S
H1582 C1586 0.949 . S
C1583 C1584 1.349 . S
C1583 C1585 1.327 . S
C1583 H1606 0.950 . S
C1584 C1583 1.349 . S
C1584 C1596 1.349 . S
C1585 C1583 1.327 . S
C1585 C1601 1.429 . S
C1585 H1607 0.950 . S
C1586 H1582 0.949 . S
C1586 C1594 1.574 . S
C1586 C1602 1.368 . S
H1587 C1595 0.950 . S
H1588 C1593 0.950 . S
H1589 C1594 0.949 . S
H1590 C1596 0.950 . S
H1591 C1597 0.950 . S
H1592 C1598 0.949 . S
C1593 H1588 0.950 . S
C1593 C1595 1.327 . S
C1593 C1599 1.429 . S
C1594 C1586 1.574 . S
C1594 H1589 0.949 . S
C1594 C1600 1.368 . S
C1595 C1579 1.349 . S
C1595 H1587 0.950 . S
C1595 C1593 1.327 . S
C1596 C1584 1.349 . S
C1596 H1590 0.950 . S
C1596 C1597 1.327 . S
C1597 H1591 0.950 . S
C1597 C1596 1.327 . S
C1597 C1601 1.429 . S
C1598 C1581 1.574 . S
C1598 H1592 0.949 . S
C1598 C1602 1.368 . S
C1599 C1580 1.429 . S
C1599 C1593 1.429 . S
C1599 C1600 1.523 . S
C1600 C1581 1.368 . S
C1600 C1594 1.368 . S
C1600 C1599 1.523 . S
C1601 C1585 1.429 . S
C1601 C1597 1.429 . S
C1601 C1602 1.523 . S
C1602 C1586 1.368 . S
C1602 C1598 1.368 . S
C1602 C1601 1.523 . S
H1603 C1578 0.950 . S
H1604 C1580 0.950 . S
H1605 C1581 0.949 . S
H1606 C1583 0.950 . S
H1607 C1585 0.950 . S
C1608 C1609 1.349 . S
C1608 C1610 1.327 . S
C1608 H1633 0.950 . S
C1609 C1608 1.349 . S
C1609 C1625 1.349 . S
C1610 C1608 1.327 . S
C1610 C1629 1.429 . S
C1610 H1634 0.950 . S
C1611 C1628 1.574 . S
C1611 C1630 1.368 . S
C1611 H1635 0.949 . S
H1612 C1616 0.949 . S
C1613 C1614 1.349 . S
C1613 C1615 1.327 . S
C1613 H1636 0.950 . S
C1614 C1613 1.349 . S
C1614 C1626 1.349 . S
C1615 C1613 1.327 . S
C1615 C1631 1.429 . S
C1615 H1637 0.950 . S
C1616 H1612 0.949 . S
C1616 C1624 1.574 . S
C1616 C1632 1.368 . S
H1617 C1625 0.950 . S
H1618 C1623 0.950 . S
H1619 C1624 0.949 . S
H1620 C1626 0.950 . S
H1621 C1627 0.950 . S
H1622 C1628 0.949 . S
C1623 H1618 0.950 . S
C1623 C1625 1.327 . S
C1623 C1629 1.429 . S
C1624 C1616 1.574 . S
C1624 H1619 0.949 . S
C1624 C1630 1.368 . S
C1625 C1609 1.349 . S
C1625 H1617 0.950 . S
C1625 C1623 1.327 . S
C1626 C1614 1.349 . S
C1626 H1620 0.950 . S
C1626 C1627 1.327 . S
C1627 H1621 0.950 . S
C1627 C1626 1.327 . S
C1627 C1631 1.429 . S
C1628 C1611 1.574 . S
C1628 H1622 0.949 . S
C1628 C1632 1.368 . S
C1629 C1610 1.429 . S
C1629 C1623 1.429 . S
C1629 C1630 1.523 . S
C1630 C1611 1.368 . S
C1630 C1624 1.368 . S
C1630 C1629 1.523 . S
C1631 C1615 1.429 . S
C1631 C1627 1.429 . S
C1631 C1632 1.523 . S
C1632 C1616 1.368 . S
C1632 C1628 1.368 . S
C1632 C1631 1.523 . S
H1633 C1608 0.950 . S
H1634 C1610 0.950 . S
H1635 C1611 0.949 . S
H1636 C1613 0.950 . S
H1637 C1615 0.950 . S
C1638 C1639 1.349 . S
C1638 C1640 1.327 . S
C1638 H1663 0.950 . S
C1639 C1638 1.349 . S
C1639 C1655 1.349 . S
C1640 C1638 1.327 . S
C1640 C1659 1.429 . S
C1640 H1664 0.950 . S
C1641 C1658 1.574 . S
C1641 C1660 1.368 . S
C1641 H1665 0.949 . S
H1642 C1646 0.949 . S
C1643 C1644 1.349 . S
C1643 C1645 1.327 . S
C1643 H1666 0.950 . S
C1644 C1643 1.349 . S
C1644 C1656 1.349 . S
C1645 C1643 1.327 . S
C1645 C1661 1.429 . S
C1645 H1667 0.950 . S
C1646 H1642 0.949 . S
C1646 C1654 1.574 . S
C1646 C1662 1.368 . S
H1647 C1655 0.950 . S
H1648 C1653 0.950 . S
H1649 C1654 0.949 . S
H1650 C1656 0.950 . S
H1651 C1657 0.950 . S
H1652 C1658 0.949 . S
C1653 H1648 0.950 . S
C1653 C1655 1.327 . S
C1653 C1659 1.429 . S
C1654 C1646 1.574 . S
C1654 H1649 0.949 . S
C1654 C1660 1.368 . S
C1655 C1639 1.349 . S
C1655 H1647 0.950 . S
C1655 C1653 1.327 . S
C1656 C1644 1.349 . S
C1656 H1650 0.950 . S
C1656 C1657 1.327 . S
C1657 H1651 0.950 . S
C1657 C1656 1.327 . S
C1657 C1661 1.429 . S
C1658 C1641 1.574 . S
C1658 H1652 0.949 . S
C1658 C1662 1.368 . S
C1659 C1640 1.429 . S
C1659 C1653 1.429 . S
C1659 C1660 1.523 . S
C1660 C1641 1.368 . S
C1660 C1654 1.368 . S
C1660 C1659 1.523 . S
C1661 C1645 1.429 . S
C1661 C1657 1.429 . S
C1661 C1662 1.523 . S
C1662 C1646 1.368 . S
C1662 C1658 1.368 . S
C1662 C1661 1.523 . S
H1663 C1638 0.950 . S
H1664 C1640 0.950 . S
H1665 C1641 0.949 . S
H1666 C1643 0.950 . S
H1667 C1645 0.950 . S
C1668 C1669 1.349 . S
C1668 C1670 1.327 . S
C1668 H1693 0.950 . S
C1669 C1668 1.349 . S
C1669 C1685 1.349 . S
C1670 C1668 1.327 . S
C1670 C1689 1.429 . S
C1670 H1694 0.950 . S
C1671 C1688 1.574 1_655 S
C1671 C1690 1.368 . S
C1671 H1695 0.949 . S
H1672 C1676 0.949 . S
C1673 C1674 1.349 . S
C1673 C1675 1.327 . S
C1673 H1696 0.950 . S
C1674 C1673 1.349 . S
C1674 C1686 1.349 . S
C1675 C1673 1.327 . S
C1675 C1691 1.429 . S
C1675 H1697 0.950 . S
C1676 H1672 0.949 . S
C1676 C1684 1.574 1_455 S
C1676 C1692 1.368 . S
H1677 C1685 0.950 . S
H1678 C1683 0.950 . S
H1679 C1684 0.949 . S
H1680 C1686 0.950 . S
H1681 C1687 0.950 . S
H1682 C1688 0.949 . S
C1683 H1678 0.950 . S
C1683 C1685 1.327 . S
C1683 C1689 1.429 . S
C1684 C1676 1.574 1_655 S
C1684 H1679 0.949 . S
C1684 C1690 1.368 . S
C1685 C1669 1.349 . S
C1685 H1677 0.950 . S
C1685 C1683 1.327 . S
C1686 C1674 1.349 . S
C1686 H1680 0.950 . S
C1686 C1687 1.327 . S
C1687 H1681 0.950 . S
C1687 C1686 1.327 . S
C1687 C1691 1.429 . S
C1688 C1671 1.574 1_455 S
C1688 H1682 0.949 . S
C1688 C1692 1.368 . S
C1689 C1670 1.429 . S
C1689 C1683 1.429 . S
C1689 C1690 1.523 . S
C1690 C1671 1.368 . S
C1690 C1684 1.368 . S
C1690 C1689 1.523 . S
C1691 C1675 1.429 . S
C1691 C1687 1.429 . S
C1691 C1692 1.523 . S
C1692 C1676 1.368 . S
C1692 C1688 1.368 . S
C1692 C1691 1.523 . S
H1693 C1668 0.950 . S
H1694 C1670 0.950 . S
H1695 C1671 0.949 . S
H1696 C1673 0.950 . S
H1697 C1675 0.950 . S
C1698 C1699 1.349 . S
C1698 C1700 1.327 . S
C1698 H1723 0.950 . S
C1699 C1698 1.349 . S
C1699 C1715 1.349 . S
C1700 C1698 1.327 . S
C1700 C1719 1.429 . S
C1700 H1724 0.950 . S
C1701 C1718 1.574 1_554 S
C1701 C1720 1.368 . S
C1701 H1725 0.949 1_554 S
H1702 C1706 0.949 . S
C1703 C1704 1.349 1_556 S
C1703 C1705 1.327 . S
C1703 H1726 0.950 . S
C1704 C1703 1.349 1_554 S
C1704 C1716 1.349 . S
C1705 C1703 1.327 . S
C1705 C1721 1.429 1_556 S
C1705 H1727 0.950 . S
C1706 H1702 0.949 . S
C1706 C1714 1.574 . S
C1706 C1722 1.368 . S
H1707 C1715 0.950 . S
H1708 C1713 0.950 1_556 S
H1709 C1714 0.949 . S
H1710 C1716 0.950 . S
H1711 C1717 0.950 . S
H1712 C1718 0.949 . S
C1713 H1708 0.950 1_554 S
C1713 C1715 1.327 . S
C1713 C1719 1.429 . S
C1714 C1706 1.574 . S
C1714 H1709 0.949 . S
C1714 C1720 1.368 . S
C1715 C1699 1.349 . S
C1715 H1707 0.950 . S
C1715 C1713 1.327 . S
C1716 C1704 1.349 . S
C1716 H1710 0.950 . S
C1716 C1717 1.327 . S
C1717 H1711 0.950 . S
C1717 C1716 1.327 . S
C1717 C1721 1.429 . S
C1718 C1701 1.574 1_556 S
C1718 H1712 0.949 . S
C1718 C1722 1.368 1_556 S
C1719 C1700 1.429 . S
C1719 C1713 1.429 . S
C1719 C1720 1.523 . S
C1720 C1701 1.368 . S
C1720 C1714 1.368 . S
C1720 C1719 1.523 . S
C1721 C1705 1.429 1_554 S
C1721 C1717 1.429 . S
C1721 C1722 1.523 . S
C1722 C1706 1.368 . S
C1722 C1718 1.368 1_554 S
C1722 C1721 1.523 . S
H1723 C1698 0.950 . S
H1724 C1700 0.950 . S
H1725 C1701 0.949 1_556 S
H1726 C1703 0.950 . S
H1727 C1705 0.950 . S
C529 N13 1.187 . S
C534 N2 1.185 . S
C559 N46 1.214 . S
C564 N35 1.212 . S
C589 N68 1.212 . S
C594 N79 1.214 . S
C619 N101 1.185 . S
C624 N112 1.187 . S
C649 N134 1.185 . S
C654 N145 1.187 . S
C679 N167 1.212 . S
C684 N178 1.214 . S
C709 N211 1.214 . S
C714 N200 1.212 . S
C739 N233 1.185 . S
C744 N244 1.187 . S
C769 N277 1.187 . S
C774 N266 1.185 . S
C799 N310 1.214 . S
C804 N299 1.212 . S
C829 N332 1.212 . S
C834 N343 1.214 . S
C859 N376 1.187 . S
C864 N365 1.200 . S
C889 N409 1.187 . S
C894 N398 1.185 . S
C919 N431 1.212 . S
C924 N442 1.214 . S
C949 N475 1.214 . S
C954 N464 1.212 . S
C979 N497 1.185 . S
C984 N508 1.187 . S
C1009 C7 1.440 . S
C1014 C54 1.459 . S
C1039 C73 1.882 . S
C1044 C40 1.882 . S
C1069 C106 1.440 . S
C1074 C87 1.460 . S
C1099 C21 1.056 . S
C1104 C120 1.056 . S
C1129 C186 1.460 . S
C1134 C139 1.440 1_565 S
C1159 C172 1.882 . S
C1164 C205 1.882 1_565 S
C1189 C219 1.460 . S
C1194 C238 1.440 . S
C1219 C252 1.056 . S
C1224 C153 1.056 . S
C1249 C318 1.460 . S
C1254 C271 1.440 . S
C1279 C304 1.882 . S
C1284 C337 1.882 . S
C1309 C351 1.460 . S
C1314 C370 1.440 . S
C1339 C384 1.056 . S
C1344 C285 1.056 . S
C1369 C403 1.440 . S
C1374 C450 1.460 . S
C1399 C436 1.882 . S
C1404 C469 1.882 . S
C1429 C502 1.440 . S
C1434 C483 1.460 . S
C1459 C417 1.056 . S
C1464 C516 1.056 . S
C1489 C18 0.852 . S
C1494 C150 0.852 . S
C1519 C447 1.297 . S
C1524 C51 1.297 . S
C1549 C84 1.297 . S
C1554 C216 1.297 . S
C1579 C513 0.851 . S
C1584 C117 0.851 . S
C1609 C315 1.297 . S
C1614 C183 1.297 . S
C1639 C249 0.851 . S
C1644 C381 0.851 . S
C1669 C282 0.852 . S
C1674 C414 0.852 . S
C1699 C480 1.297 . S
C1704 C348 1.297 . S
