# Generated by pormake.
# Topology pcl, (4)-cn, num edge types: 1
# Building blocks:
#     Node 0, Type 0, BuildingBlock: UXUYUI_clean_sbu_0, # of connection points: 4
#     Node 1, Type 0, BuildingBlock: UXUYUI_clean_sbu_0, # of connection points: 4
#     Node 2, Type 0, BuildingBlock: UXUYUI_clean_sbu_0, # of connection points: 4
#     Node 3, Type 0, BuildingBlock: UXUYUI_clean_sbu_0, # of connection points: 4
#     Node 4, Type 0, BuildingBlock: UXUYUI_clean_sbu_0, # of connection points: 4
#     Node 5, Type 0, BuildingBlock: UXUYUI_clean_sbu_0, # of connection points: 4
#     Node 6, Type 0, BuildingBlock: UXUYUI_clean_sbu_0, # of connection points: 4
#     Node 7, Type 0, BuildingBlock: UXUYUI_clean_sbu_0, # of connection points: 4
#     Node 8, Type 0, BuildingBlock: UXUYUI_clean_sbu_0, # of connection points: 4
#     Node 9, Type 0, BuildingBlock: UXUYUI_clean_sbu_0, # of connection points: 4
#     Node 10, Type 0, BuildingBlock: UXUYUI_clean_sbu_0, # of connection points: 4
#     Node 11, Type 0, BuildingBlock: UXUYUI_clean_sbu_0, # of connection points: 4
#     Node 12, Type 0, BuildingBlock: UXUYUI_clean_sbu_0, # of connection points: 4
#     Node 13, Type 0, BuildingBlock: UXUYUI_clean_sbu_0, # of connection points: 4
#     Node 14, Type 0, BuildingBlock: UXUYUI_clean_sbu_0, # of connection points: 4
#     Node 15, Type 0, BuildingBlock: UXUYUI_clean_sbu_0, # of connection points: 4
#     Edge 16, Type (0, 0), BuildingBlock: KIFKEQ_clean_linker_1, # of connection points: 2
#     Edge 17, Type (0, 0), BuildingBlock: KIFKEQ_clean_linker_1, # of connection points: 2
#     Edge 18, Type (0, 0), BuildingBlock: KIFKEQ_clean_linker_1, # of connection points: 2
#     Edge 19, Type (0, 0), BuildingBlock: KIFKEQ_clean_linker_1, # of connection points: 2
#     Edge 20, Type (0, 0), BuildingBlock: KIFKEQ_clean_linker_1, # of connection points: 2
#     Edge 21, Type (0, 0), BuildingBlock: KIFKEQ_clean_linker_1, # of connection points: 2
#     Edge 22, Type (0, 0), BuildingBlock: KIFKEQ_clean_linker_1, # of connection points: 2
#     Edge 23, Type (0, 0), BuildingBlock: KIFKEQ_clean_linker_1, # of connection points: 2
#     Edge 24, Type (0, 0), BuildingBlock: KIFKEQ_clean_linker_1, # of connection points: 2
#     Edge 25, Type (0, 0), BuildingBlock: KIFKEQ_clean_linker_1, # of connection points: 2
#     Edge 26, Type (0, 0), BuildingBlock: KIFKEQ_clean_linker_1, # of connection points: 2
#     Edge 27, Type (0, 0), BuildingBlock: KIFKEQ_clean_linker_1, # of connection points: 2
#     Edge 28, Type (0, 0), BuildingBlock: KIFKEQ_clean_linker_1, # of connection points: 2
#     Edge 29, Type (0, 0), BuildingBlock: KIFKEQ_clean_linker_1, # of connection points: 2
#     Edge 30, Type (0, 0), BuildingBlock: KIFKEQ_clean_linker_1, # of connection points: 2
#     Edge 31, Type (0, 0), BuildingBlock: KIFKEQ_clean_linker_1, # of connection points: 2
#     Edge 32, Type (0, 0), BuildingBlock: KIFKEQ_clean_linker_1, # of connection points: 2
#     Edge 33, Type (0, 0), BuildingBlock: KIFKEQ_clean_linker_1, # of connection points: 2
#     Edge 34, Type (0, 0), BuildingBlock: KIFKEQ_clean_linker_1, # of connection points: 2
#     Edge 35, Type (0, 0), BuildingBlock: KIFKEQ_clean_linker_1, # of connection points: 2
#     Edge 36, Type (0, 0), BuildingBlock: KIFKEQ_clean_linker_1, # of connection points: 2
#     Edge 37, Type (0, 0), BuildingBlock: KIFKEQ_clean_linker_1, # of connection points: 2
#     Edge 38, Type (0, 0), BuildingBlock: KIFKEQ_clean_linker_1, # of connection points: 2
#     Edge 39, Type (0, 0), BuildingBlock: KIFKEQ_clean_linker_1, # of connection points: 2
#     Edge 40, Type (0, 0), BuildingBlock: KIFKEQ_clean_linker_1, # of connection points: 2
#     Edge 41, Type (0, 0), BuildingBlock: KIFKEQ_clean_linker_1, # of connection points: 2
#     Edge 42, Type (0, 0), BuildingBlock: KIFKEQ_clean_linker_1, # of connection points: 2
#     Edge 43, Type (0, 0), BuildingBlock: KIFKEQ_clean_linker_1, # of connection points: 2
#     Edge 44, Type (0, 0), BuildingBlock: KIFKEQ_clean_linker_1, # of connection points: 2
#     Edge 45, Type (0, 0), BuildingBlock: KIFKEQ_clean_linker_1, # of connection points: 2
#     Edge 46, Type (0, 0), BuildingBlock: KIFKEQ_clean_linker_1, # of connection points: 2
#     Edge 47, Type (0, 0), BuildingBlock: KIFKEQ_clean_linker_1, # of connection points: 2
# Relax obj value: 0.133
# Max RMSD: 0.100
# Mean RMSD: 0.099
data_MOF--net-pcl--node1-UXUYUI_clean_sbu_0--edge1-KIFKEQ_clean_linker_1
_symmetry_space_group_name_H-M    P1
_symmetry_Int_Tables_number       1
_symmetry_cell_setting            triclinic
loop_
_symmetry_equiv_pos_as_xyz
'x, y, z'
_cell_length_a     63.971237
_cell_length_b     74.048448
_cell_length_c     65.485679
_cell_angle_alpha  89.984483
_cell_angle_beta   90.006053
_cell_angle_gamma 90.012427
loop_
_atom_site_label
_atom_site_type_symbol
_atom_site_fract_x
_atom_site_fract_y
_atom_site_fract_z
_atom_type_partial_charge
Li0 Li 0.18195 0.36812 0.10006 0.0
Li1 Li 0.18589 0.35265 0.06708 0.0
Li2 Li 0.18147 0.38527 0.06799 0.0
Li3 Li 0.15296 0.36441 0.07672 0.0
C4 C 0.22324 0.36338 0.08601 0.0
N5 N 0.25998 0.34748 0.09904 0.0
C6 C 0.22299 0.346 0.09437 0.0
C7 C 0.24218 0.37265 0.08425 0.0
C8 C 0.24173 0.3382 0.10086 0.0
C9 C 0.26059 0.36439 0.09095 0.0
C10 C 0.1529 0.33362 0.09537 0.0
C11 C 0.12674 0.31221 0.08446 0.0
N12 N 0.11942 0.31123 0.10392 0.0
C13 C 0.14527 0.33223 0.11531 0.0
C14 C 0.1437 0.32337 0.07986 0.0
C15 C 0.12829 0.3209 0.11931 0.0
C16 C 0.17056 0.37156 0.14048 0.0
N17 N 0.18793 0.36977 0.12873 0.0
C18 C 0.20973 0.37097 0.15843 0.0
C19 C 0.20736 0.36975 0.13722 0.0
C20 C 0.19197 0.37246 0.17095 0.0
C21 C 0.17219 0.37282 0.16165 0.0
H22 H 0.15532 0.37194 0.13332 0.0
H23 H 0.22107 0.36895 0.12768 0.0
C24 C 0.21362 0.33712 0.03786 0.0
N25 N 0.19999 0.33337 0.05321 0.0
C26 C 0.22312 0.32313 0.02696 0.0
C27 C 0.2054 0.30168 0.04872 0.0
C28 C 0.19607 0.31607 0.05901 0.0
C29 C 0.21892 0.30506 0.03222 0.0
H30 H 0.21688 0.35101 0.03387 0.0
H31 H 0.18575 0.31342 0.0717 0.0
C32 C 0.16475 0.40224 0.10194 0.0
N33 N 0.17105 0.43391 0.12336 0.0
C34 C 0.14767 0.41215 0.10908 0.0
C35 C 0.18505 0.40842 0.1057 0.0
C36 C 0.15118 0.42814 0.11988 0.0
C37 C 0.1879 0.42447 0.11656 0.0
C38 C 0.17134 0.36247 0.0306 0.0
C39 C 0.18394 0.37329 0.01815 0.0
C40 C 0.16359 0.34614 0.02301 0.0
C41 C 0.1888 0.36746 0.99842 0.0
C42 C 0.16885 0.34077 0.00322 0.0
N43 N 0.18125 0.35145 0.99144 0.0
C44 C 0.20679 0.41333 0.05049 0.0
C45 C 0.17055 0.41938 0.05386 0.0
C46 C 0.21012 0.43043 0.04196 0.0
N47 N 0.18722 0.4082 0.05618 0.0
C48 C 0.1732 0.4366 0.04567 0.0
C49 C 0.19318 0.44234 0.0396 0.0
H50 H 0.21974 0.40412 0.05251 0.0
H51 H 0.15516 0.41487 0.05844 0.0
C52 C 0.11249 0.36725 0.09275 0.0
N53 N 0.12339 0.36187 0.07603 0.0
C54 C 0.09071 0.36612 0.09301 0.0
C55 C 0.09182 0.35356 0.05895 0.0
C56 C 0.11357 0.35515 0.05928 0.0
C57 C 0.08002 0.35921 0.07592 0.0
H58 H 0.12076 0.37259 0.10584 0.0
H59 H 0.12263 0.35099 0.04618 0.0
O60 O 0.20519 0.37127 0.07923 0.0
O61 O 0.16921 0.34498 0.09103 0.0
O62 O 0.1615 0.38654 0.09139 0.0
O63 O 0.16655 0.36789 0.05004 0.0
H64 H 0.20851 0.33862 0.09598 0.0
H65 H 0.24266 0.3861 0.07778 0.0
H66 H 0.24175 0.32477 0.10737 0.0
H67 H 0.27535 0.37143 0.0897 0.0
H68 H 0.11936 0.30436 0.07254 0.0
H69 H 0.15241 0.33972 0.12761 0.0
H70 H 0.14943 0.32421 0.06438 0.0
H71 H 0.12218 0.31977 0.13466 0.0
H72 H 0.2253 0.37099 0.16491 0.0
H73 H 0.15802 0.37379 0.17064 0.0
H74 H 0.23333 0.32646 0.01433 0.0
H75 H 0.20215 0.28805 0.05378 0.0
H76 H 0.13187 0.40754 0.10629 0.0
H77 H 0.19847 0.40093 0.10033 0.0
H78 H 0.1381 0.43595 0.1255 0.0
H79 H 0.20351 0.42941 0.11958 0.0
H80 H 0.19003 0.38598 0.02365 0.0
H81 H 0.15382 0.33757 0.03234 0.0
H82 H 0.19863 0.37566 0.98868 0.0
H83 H 0.1631 0.32809 0.99723 0.0
H84 H 0.22578 0.43439 0.03753 0.0
H85 H 0.15968 0.44526 0.04384 0.0
H86 H 0.08237 0.37095 0.10631 0.0
H87 H 0.08439 0.34787 0.04557 0.0
Li88 Li 0.8153 0.63597 0.60349 0.0
Li89 Li 0.81026 0.64988 0.57121 0.0
Li90 Li 0.81457 0.61693 0.57162 0.0
Li91 Li 0.84394 0.63855 0.57852 0.0
C92 C 0.77244 0.6388 0.58291 0.0
N93 N 0.73356 0.65462 0.57877 0.0
C94 C 0.76291 0.6471 0.59966 0.0
C95 C 0.76217 0.63847 0.56407 0.0
C96 C 0.74325 0.65503 0.59725 0.0
C97 C 0.74254 0.64659 0.56228 0.0
C98 C 0.82614 0.67599 0.59415 0.0
C99 C 0.8315 0.70587 0.58041 0.0
N100 N 0.81898 0.71279 0.59525 0.0
C101 C 0.81339 0.68342 0.60932 0.0
C102 C 0.83537 0.68732 0.57964 0.0
C103 C 0.80995 0.70205 0.60961 0.0
C104 C 0.82254 0.64624 0.64391 0.0
N105 N 0.8102 0.63553 0.63214 0.0
C106 C 0.79288 0.62397 0.66175 0.0
C107 C 0.79562 0.62443 0.64056 0.0
C108 C 0.80517 0.63517 0.67424 0.0
C109 C 0.82017 0.64638 0.66506 0.0
H110 H 0.83436 0.65459 0.63683 0.0
H111 H 0.78625 0.61585 0.63081 0.0
C112 C 0.79955 0.67099 0.53668 0.0
N113 N 0.79596 0.6691 0.55704 0.0
C114 C 0.79055 0.68526 0.52584 0.0
C115 C 0.77395 0.69522 0.55699 0.0
C116 C 0.78317 0.68072 0.56719 0.0
C117 C 0.77775 0.69774 0.53607 0.0
H118 H 0.8096 0.66153 0.52886 0.0
H119 H 0.78026 0.67887 0.58327 0.0
C120 C 0.84121 0.60891 0.61175 0.0
N121 N 0.85159 0.59387 0.64898 0.0
C122 C 0.85783 0.61595 0.62308 0.0
C123 C 0.82991 0.5942 0.61928 0.0
C124 C 0.86282 0.60816 0.64189 0.0
C125 C 0.83539 0.58679 0.63815 0.0
C126 C 0.84298 0.63392 0.53869 0.0
C127 C 0.84873 0.61727 0.53036 0.0
C128 C 0.85356 0.64957 0.53272 0.0
C129 C 0.86522 0.61653 0.51639 0.0
C130 C 0.86998 0.64826 0.51874 0.0
N131 N 0.87544 0.63191 0.51095 0.0
C132 C 0.79148 0.59149 0.54798 0.0
C133 C 0.82207 0.58027 0.56396 0.0
C134 C 0.78805 0.57484 0.53851 0.0
N135 N 0.80835 0.5939 0.5603 0.0
C136 C 0.81926 0.56342 0.55481 0.0
C137 C 0.80217 0.56056 0.54171 0.0
H138 H 0.78089 0.60258 0.54521 0.0
H139 H 0.83555 0.58266 0.57356 0.0
C140 C 0.88316 0.65631 0.58184 0.0
N141 N 0.87347 0.64076 0.57619 0.0
C142 C 0.90491 0.65764 0.58099 0.0
C143 C 0.90628 0.62695 0.56847 0.0
C144 C 0.88452 0.62617 0.56972 0.0
C145 C 0.91676 0.64281 0.57427 0.0
H146 H 0.87403 0.66758 0.58733 0.0
H147 H 0.87641 0.61384 0.56578 0.0
O148 O 0.79171 0.63101 0.58498 0.0
O149 O 0.82964 0.65777 0.59358 0.0
O150 O 0.8356 0.61675 0.59367 0.0
O151 O 0.82712 0.6349 0.55268 0.0
H152 H 0.7707 0.6476 0.61431 0.0
H153 H 0.76944 0.63235 0.55088 0.0
H154 H 0.73572 0.66156 0.61006 0.0
H155 H 0.73448 0.64657 0.54775 0.0
H156 H 0.83843 0.71476 0.56919 0.0
H157 H 0.80588 0.67487 0.62053 0.0
H158 H 0.84526 0.68183 0.56779 0.0
H159 H 0.8 0.70795 0.62117 0.0
H160 H 0.78117 0.61512 0.66828 0.0
H161 H 0.83023 0.65495 0.67419 0.0
H162 H 0.79398 0.68675 0.50973 0.0
H163 H 0.7639 0.70433 0.5654 0.0
H164 H 0.8666 0.62745 0.61751 0.0
H165 H 0.81688 0.58872 0.61074 0.0
H166 H 0.87558 0.61352 0.65089 0.0
H167 H 0.82672 0.57546 0.64424 0.0
H168 H 0.84067 0.60504 0.53471 0.0
H169 H 0.84924 0.66257 0.53893 0.0
H170 H 0.86992 0.60372 0.50991 0.0
H171 H 0.8784 0.66025 0.5141 0.0
H172 H 0.77455 0.5732 0.5287 0.0
H173 H 0.83075 0.55294 0.55746 0.0
H174 H 0.91239 0.67013 0.58554 0.0
H175 H 0.91484 0.61511 0.56355 0.0
Li176 Li 0.18362 0.61716 0.93256 0.0
Li177 Li 0.15281 0.63775 0.92306 0.0
Li178 Li 0.18306 0.63355 0.9001 0.0
Li179 Li 0.18735 0.64972 0.93114 0.0
C180 C 0.16241 0.60348 0.89377 0.0
N181 N 0.16262 0.5813 0.85987 0.0
C182 C 0.14624 0.60453 0.87947 0.0
C183 C 0.17863 0.5911 0.89091 0.0
C184 C 0.14665 0.59321 0.8624 0.0
C185 C 0.17846 0.58 0.87366 0.0
C186 C 0.17138 0.64449 0.96717 0.0
C187 C 0.16309 0.6691 0.98986 0.0
N188 N 0.17877 0.66377 0.00253 0.0
C189 C 0.18733 0.63918 0.98046 0.0
C190 C 0.15908 0.65951 0.97191 0.0
C191 C 0.19085 0.64914 0.99825 0.0
C192 C 0.2074 0.59165 0.95618 0.0
N193 N 0.18924 0.59504 0.9461 0.0
C194 C 0.17532 0.56647 0.95611 0.0
C195 C 0.1734 0.58283 0.94578 0.0
C196 C 0.19366 0.56263 0.9671 0.0
C197 C 0.20997 0.57539 0.96685 0.0
H198 H 0.21971 0.60168 0.95623 0.0
H199 H 0.15914 0.58593 0.93764 0.0
C200 C 0.11288 0.64338 0.90661 0.0
N201 N 0.12344 0.64019 0.92425 0.0
C202 C 0.0911 0.64447 0.90671 0.0
C203 C 0.09156 0.63937 0.9432 0.0
C204 C 0.11333 0.63823 0.94236 0.0
C205 C 0.08017 0.64235 0.92516 0.0
H206 H 0.12142 0.64497 0.89246 0.0
H207 H 0.12218 0.63555 0.95611 0.0
C208 C 0.22453 0.63809 0.91158 0.0
N209 N 0.26042 0.6525 0.89469 0.0
C210 C 0.22415 0.65525 0.90272 0.0
C211 C 0.24316 0.62826 0.91187 0.0
C212 C 0.24245 0.66231 0.89426 0.0
C213 C 0.26115 0.63577 0.90325 0.0
C214 C 0.16277 0.67281 0.90261 0.0
C215 C 0.17294 0.68181 0.88668 0.0
C216 C 0.14594 0.68112 0.91248 0.0
C217 C 0.16632 0.6991 0.88113 0.0
C218 C 0.13981 0.69843 0.90649 0.0
N219 N 0.15004 0.70699 0.89107 0.0
C220 C 0.17373 0.63983 0.85951 0.0
C221 C 0.20545 0.62366 0.86341 0.0
C222 C 0.17524 0.63878 0.83833 0.0
N223 N 0.18864 0.63229 0.87155 0.0
C224 C 0.20759 0.62225 0.84219 0.0
C225 C 0.1922 0.62971 0.82935 0.0
H226 H 0.16039 0.64639 0.86642 0.0
H227 H 0.21691 0.61751 0.87336 0.0
C228 C 0.21997 0.66686 0.95362 0.0
N229 N 0.20118 0.66969 0.9444 0.0
C230 C 0.23008 0.68097 0.96386 0.0
C231 C 0.20137 0.70061 0.95493 0.0
C232 C 0.19177 0.68614 0.94508 0.0
C233 C 0.22079 0.69815 0.96447 0.0
H234 H 0.22702 0.6536 0.95318 0.0
H235 H 0.17658 0.68802 0.9384 0.0
O236 O 0.16274 0.6149 0.91016 0.0
O237 O 0.16818 0.63529 0.94936 0.0
O238 O 0.2068 0.6308 0.91982 0.0
O239 O 0.1687 0.65567 0.90794 0.0
H240 H 0.13363 0.6141 0.88142 0.0
H241 H 0.19137 0.59026 0.90174 0.0
H242 H 0.13431 0.59395 0.85114 0.0
H243 H 0.19097 0.57043 0.87118 0.0
H244 H 0.15381 0.68084 0.99366 0.0
H245 H 0.19705 0.62764 0.97692 0.0
H246 H 0.14677 0.66386 0.96169 0.0
H247 H 0.20323 0.64527 0.00862 0.0
H248 H 0.1625 0.55693 0.9555 0.0
H249 H 0.22431 0.57307 0.97524 0.0
H250 H 0.08291 0.64699 0.89252 0.0
H251 H 0.0837 0.63749 0.95769 0.0
H252 H 0.20993 0.66307 0.90249 0.0
H253 H 0.24369 0.61493 0.91866 0.0
H254 H 0.24237 0.67559 0.88738 0.0
H255 H 0.27568 0.6283 0.90334 0.0
H256 H 0.18573 0.67549 0.87858 0.0
H257 H 0.1379 0.67441 0.92487 0.0
H258 H 0.17409 0.70623 0.86887 0.0
H259 H 0.12692 0.70506 0.9141 0.0
H260 H 0.16317 0.64496 0.82909 0.0
H261 H 0.22079 0.61497 0.83593 0.0
H262 H 0.24506 0.67851 0.97104 0.0
H263 H 0.19346 0.71354 0.95543 0.0
Li264 Li 0.81705 0.38758 0.43173 0.0
Li265 Li 0.84862 0.36699 0.42267 0.0
Li266 Li 0.8177 0.37015 0.40018 0.0
Li267 Li 0.81467 0.35433 0.43085 0.0
C268 C 0.83898 0.39976 0.39196 0.0
N269 N 0.84051 0.41979 0.35641 0.0
C270 C 0.85341 0.39542 0.37672 0.0
C271 C 0.82541 0.41435 0.3892 0.0
C272 C 0.8539 0.40568 0.35882 0.0
C273 C 0.82643 0.42431 0.37111 0.0
C274 C 0.82979 0.3619 0.46734 0.0
C275 C 0.84017 0.34127 0.49396 0.0
N276 N 0.8224 0.3453 0.50442 0.0
C277 C 0.81168 0.36591 0.47838 0.0
C278 C 0.8442 0.34953 0.47519 0.0
C279 C 0.80821 0.35735 0.49709 0.0
C280 C 0.7925 0.41243 0.45532 0.0
N281 N 0.81075 0.40963 0.44516 0.0
C282 C 0.82307 0.43896 0.45441 0.0
C283 C 0.82594 0.42244 0.4446 0.0
C284 C 0.80439 0.44234 0.46504 0.0
C285 C 0.78897 0.42879 0.46543 0.0
H286 H 0.78072 0.40195 0.45559 0.0
H287 H 0.8404 0.41974 0.4366 0.0
C288 C 0.88902 0.35996 0.40756 0.0
N289 N 0.87803 0.36511 0.42432 0.0
C290 C 0.91082 0.35918 0.40824 0.0
C291 C 0.90948 0.36857 0.44357 0.0
C292 C 0.88774 0.36941 0.44211 0.0
C293 C 0.9214 0.36356 0.42643 0.0
H294 H 0.88083 0.35665 0.3936 0.0
H295 H 0.87857 0.37357 0.45516 0.0
C296 C 0.777 0.3757 0.40928 0.0
N297 N 0.74138 0.38238 0.38665 0.0
C298 C 0.76658 0.3615 0.39958 0.0
C299 C 0.76916 0.39327 0.4077 0.0
C300 C 0.74865 0.36517 0.38813 0.0
C301 C 0.75116 0.39637 0.39614 0.0
C302 C 0.83288 0.33013 0.40535 0.0
C303 C 0.81513 0.32184 0.39717 0.0
C304 C 0.85013 0.31964 0.41086 0.0
C305 C 0.81477 0.30307 0.39505 0.0
C306 C 0.84916 0.3009 0.40848 0.0
N307 N 0.83164 0.29308 0.40072 0.0
C308 C 0.8225 0.35889 0.35976 0.0
C309 C 0.7985 0.3831 0.3626 0.0
C310 C 0.821 0.3593 0.33852 0.0
N311 N 0.81143 0.37073 0.37138 0.0
C312 C 0.79638 0.38388 0.34136 0.0
C313 C 0.80797 0.37203 0.32905 0.0
H314 H 0.83307 0.34946 0.36694 0.0
H315 H 0.79047 0.39287 0.37193 0.0
C316 C 0.78122 0.33438 0.4483 0.0
N317 N 0.80211 0.33414 0.44455 0.0
C318 C 0.77174 0.32009 0.45876 0.0
C319 C 0.80543 0.30553 0.46116 0.0
C320 C 0.81426 0.32017 0.45091 0.0
C321 C 0.78388 0.30533 0.46533 0.0
H322 H 0.77194 0.34579 0.44342 0.0
H323 H 0.8309 0.32045 0.44823 0.0
O324 O 0.8378 0.38953 0.4093 0.0
O325 O 0.83315 0.36979 0.44876 0.0
O326 O 0.79443 0.37235 0.42074 0.0
O327 O 0.83354 0.34848 0.40757 0.0
H328 H 0.86393 0.3841 0.37858 0.0
H329 H 0.814 0.41777 0.40077 0.0
H330 H 0.86487 0.40239 0.34681 0.0
H331 H 0.81594 0.43557 0.3687 0.0
H332 H 0.85111 0.33158 0.50017 0.0
H333 H 0.80031 0.37535 0.47242 0.0
H334 H 0.85818 0.34612 0.46672 0.0
H335 H 0.7942 0.36023 0.50574 0.0
H336 H 0.83554 0.44885 0.454 0.0
H337 H 0.7743 0.43087 0.47333 0.0
H338 H 0.91926 0.35552 0.39452 0.0
H339 H 0.91683 0.37178 0.45802 0.0
H340 H 0.77224 0.3478 0.40094 0.0
H341 H 0.77703 0.40442 0.41508 0.0
H342 H 0.74048 0.35432 0.38046 0.0
H343 H 0.745 0.40991 0.39466 0.0
H344 H 0.8018 0.32982 0.39254 0.0
H345 H 0.86403 0.32588 0.41712 0.0
H346 H 0.80109 0.29646 0.38886 0.0
H347 H 0.86233 0.29258 0.41283 0.0
H348 H 0.83014 0.34986 0.32958 0.0
H349 H 0.78644 0.39412 0.33463 0.0
H350 H 0.75515 0.32077 0.46193 0.0
H351 H 0.81546 0.29443 0.46564 0.0
Li352 Li 0.81412 0.6508 0.93266 0.0
Li353 Li 0.81879 0.61811 0.9307 0.0
Li354 Li 0.84913 0.63894 0.92305 0.0
Li355 Li 0.8198 0.63489 0.89912 0.0
C356 C 0.83756 0.64177 0.96825 0.0
N357 N 0.84613 0.65424 0.00717 0.0
C358 C 0.82638 0.63515 0.98499 0.0
C359 C 0.85347 0.65442 0.97141 0.0
C360 C 0.83082 0.64172 0.00452 0.0
C361 C 0.85747 0.66064 0.99117 0.0
C362 C 0.77863 0.62264 0.92281 0.0
C363 C 0.75732 0.59628 0.91685 0.0
N364 N 0.74443 0.60144 0.93229 0.0
C365 C 0.76506 0.62777 0.93848 0.0
C366 C 0.77464 0.60686 0.91176 0.0
C367 C 0.74789 0.61684 0.94309 0.0
C368 C 0.79831 0.68644 0.93634 0.0
N369 N 0.80003 0.67031 0.94616 0.0
C370 C 0.7824 0.68232 0.97539 0.0
C371 C 0.79198 0.66795 0.9652 0.0
C372 C 0.78127 0.69929 0.96593 0.0
C373 C 0.78924 0.70125 0.9461 0.0
H374 H 0.80407 0.68787 0.92092 0.0
H375 H 0.79286 0.65489 0.97246 0.0
C376 C 0.82217 0.58054 0.93628 0.0
N377 N 0.81211 0.59549 0.94325 0.0
C378 C 0.81911 0.56384 0.94571 0.0
C379 C 0.79536 0.57815 0.96939 0.0
C380 C 0.79874 0.59456 0.95936 0.0
C381 C 0.80575 0.56254 0.96266 0.0
H382 H 0.83301 0.58164 0.9237 0.0
H383 H 0.79094 0.60662 0.96467 0.0
C384 C 0.84202 0.67416 0.90677 0.0
N385 N 0.86181 0.70709 0.90202 0.0
C386 C 0.84565 0.68111 0.88724 0.0
C387 C 0.8482 0.6841 0.92387 0.0
C388 C 0.85576 0.69774 0.88516 0.0
C389 C 0.85823 0.70068 0.92117 0.0
C390 C 0.84611 0.60771 0.89143 0.0
C391 C 0.86567 0.61107 0.88272 0.0
C392 C 0.83255 0.59541 0.88213 0.0
C393 C 0.8712 0.60229 0.86463 0.0
C394 C 0.83864 0.58692 0.86403 0.0
N395 N 0.85767 0.59052 0.85572 0.0
C396 C 0.8891 0.63202 0.93911 0.0
C397 C 0.88899 0.65246 0.91127 0.0
C398 C 0.9109 0.63273 0.94015 0.0
N399 N 0.87865 0.64181 0.92483 0.0
C400 C 0.91073 0.65368 0.91185 0.0
C401 C 0.92204 0.64359 0.92628 0.0
H402 H 0.88049 0.6234 0.94947 0.0
H403 H 0.88046 0.65966 0.89963 0.0
C404 C 0.79503 0.63116 0.86267 0.0
N405 N 0.81422 0.6349 0.87052 0.0
C406 C 0.79193 0.63116 0.8415 0.0
C407 C 0.82839 0.63878 0.83707 0.0
C408 C 0.83072 0.63873 0.85822 0.0
C409 C 0.80876 0.63506 0.82838 0.0
H410 H 0.78212 0.62826 0.87281 0.0
H411 H 0.84581 0.64167 0.86488 0.0
O412 O 0.83351 0.63534 0.94902 0.0
O413 O 0.79567 0.63304 0.91824 0.0
O414 O 0.83232 0.65779 0.90906 0.0
O415 O 0.84027 0.61643 0.90897 0.0
H416 H 0.81424 0.62518 0.98295 0.0
H417 H 0.86282 0.65926 0.95884 0.0
H418 H 0.82212 0.63683 0.01756 0.0
H419 H 0.86968 0.67048 0.99378 0.0
H420 H 0.75413 0.58398 0.90851 0.0
H421 H 0.76779 0.64 0.94706 0.0
H422 H 0.78484 0.60279 0.89945 0.0
H423 H 0.73732 0.62059 0.95527 0.0
H424 H 0.77628 0.68027 0.99064 0.0
H425 H 0.78826 0.71406 0.93816 0.0
H426 H 0.82767 0.5522 0.94021 0.0
H427 H 0.78482 0.57769 0.98232 0.0
H428 H 0.84074 0.67377 0.87381 0.0
H429 H 0.84493 0.67924 0.93906 0.0
H430 H 0.85875 0.70323 0.87013 0.0
H431 H 0.86308 0.7085 0.9343 0.0
H432 H 0.87643 0.62046 0.88974 0.0
H433 H 0.81745 0.5925 0.88875 0.0
H434 H 0.88624 0.60486 0.85765 0.0
H435 H 0.82823 0.57746 0.8566 0.0
H436 H 0.91893 0.62446 0.9513 0.0
H437 H 0.91858 0.66236 0.90097 0.0
H438 H 0.77648 0.62841 0.83551 0.0
H439 H 0.84192 0.64152 0.82764 0.0
Li440 Li 0.18248 0.38716 0.42875 0.0
Li441 Li 0.18703 0.35469 0.42947 0.0
Li442 Li 0.18197 0.37146 0.39608 0.0
Li443 Li 0.15221 0.36803 0.42147 0.0
C444 C 0.22441 0.38041 0.41875 0.0
N445 N 0.26309 0.39607 0.42474 0.0
C446 C 0.23432 0.37898 0.4377 0.0
C447 C 0.23421 0.38964 0.40278 0.0
C448 C 0.25386 0.38705 0.44044 0.0
C449 C 0.25377 0.39749 0.40613 0.0
C450 C 0.16814 0.36847 0.46743 0.0
C451 C 0.15168 0.3584 0.49855 0.0
N452 N 0.16706 0.36654 0.50956 0.0
C453 C 0.1837 0.37684 0.47906 0.0
C454 C 0.15191 0.35928 0.47724 0.0
C455 C 0.18291 0.37567 0.50033 0.0
C456 C 0.17255 0.41538 0.45474 0.0
N457 N 0.1883 0.40969 0.44239 0.0
C458 C 0.20826 0.43612 0.45037 0.0
C459 C 0.20585 0.41982 0.43983 0.0
C460 C 0.19228 0.44225 0.4634 0.0
C461 C 0.17416 0.43165 0.46533 0.0
H462 H 0.15853 0.40731 0.45617 0.0
H463 H 0.21794 0.41548 0.42951 0.0
C464 C 0.20286 0.31873 0.43132 0.0
N465 N 0.20082 0.33441 0.44199 0.0
C466 C 0.2118 0.30351 0.44048 0.0
C467 C 0.21742 0.32107 0.47105 0.0
C468 C 0.2082 0.33586 0.46139 0.0
C469 C 0.21912 0.30456 0.46066 0.0
H470 H 0.19746 0.31796 0.41572 0.0
H471 H 0.20694 0.34847 0.46946 0.0
C472 C 0.16039 0.40787 0.40433 0.0
N473 N 0.1586 0.44508 0.40225 0.0
C474 C 0.14324 0.41708 0.41244 0.0
C475 C 0.17656 0.41753 0.39502 0.0
C476 C 0.14265 0.43591 0.41127 0.0
C477 C 0.17538 0.43635 0.39416 0.0
C478 C 0.15827 0.33228 0.40782 0.0
C479 C 0.15563 0.32135 0.39063 0.0
C480 C 0.15119 0.32631 0.42685 0.0
C481 C 0.14591 0.30456 0.39278 0.0
C482 C 0.14155 0.30944 0.42837 0.0
N483 N 0.13913 0.299 0.41144 0.0
C484 C 0.20301 0.36257 0.35875 0.0
C485 C 0.174 0.38235 0.35626 0.0
C486 C 0.20539 0.36263 0.33748 0.0
N487 N 0.18739 0.37225 0.3676 0.0
C488 C 0.17585 0.38288 0.33507 0.0
C489 C 0.19149 0.37272 0.32533 0.0
H490 H 0.21333 0.35453 0.36817 0.0
H491 H 0.16161 0.3898 0.36367 0.0
C492 C 0.11304 0.37548 0.43885 0.0
N493 N 0.1228 0.36582 0.424 0.0
C494 C 0.09129 0.37496 0.44063 0.0
C495 C 0.09012 0.35432 0.41204 0.0
C496 C 0.11185 0.35546 0.41061 0.0
C497 C 0.07959 0.36427 0.4271 0.0
H498 H 0.12217 0.38377 0.44912 0.0
H499 H 0.11993 0.34828 0.39861 0.0
O500 O 0.20537 0.37254 0.41568 0.0
O501 O 0.16834 0.36976 0.44658 0.0
O502 O 0.16161 0.38949 0.40589 0.0
O503 O 0.16773 0.34876 0.40596 0.0
H504 H 0.22695 0.37184 0.45016 0.0
H505 H 0.22674 0.39076 0.388 0.0
H506 H 0.26169 0.38615 0.45505 0.0
H507 H 0.26152 0.40474 0.39395 0.0
H508 H 0.13924 0.3513 0.50634 0.0
H509 H 0.19639 0.38401 0.47174 0.0
H510 H 0.13958 0.35292 0.4685 0.0
H511 H 0.19491 0.382 0.50951 0.0
H512 H 0.22257 0.44372 0.4484 0.0
H513 H 0.16113 0.43597 0.47468 0.0
H514 H 0.21315 0.29112 0.4318 0.0
H515 H 0.22281 0.32247 0.48665 0.0
H516 H 0.13065 0.40977 0.41975 0.0
H517 H 0.19001 0.41057 0.3888 0.0
H518 H 0.12954 0.44324 0.41759 0.0
H519 H 0.18785 0.44403 0.38714 0.0
H520 H 0.16104 0.32581 0.3758 0.0
H521 H 0.1532 0.33459 0.44029 0.0
H522 H 0.14375 0.29594 0.37961 0.0
H523 H 0.13602 0.30464 0.443 0.0
H524 H 0.21755 0.35448 0.33063 0.0
H525 H 0.16503 0.39111 0.32641 0.0
H526 H 0.0837 0.38279 0.45246 0.0
H527 H 0.0816 0.34615 0.40113 0.0
Li528 Li 0.82073 0.37132 0.10439 0.0
Li529 Li 0.84922 0.36696 0.08004 0.0
Li530 Li 0.82059 0.38817 0.071 0.0
Li531 Li 0.81574 0.35605 0.07162 0.0
C532 C 0.83956 0.40549 0.10431 0.0
N533 N 0.83632 0.43791 0.1249 0.0
C534 C 0.85757 0.41496 0.10988 0.0
C535 C 0.8199 0.41248 0.10923 0.0
C536 C 0.8556 0.43134 0.12029 0.0
C537 C 0.81859 0.4289 0.11964 0.0
C538 C 0.84804 0.33603 0.09979 0.0
C539 C 0.87359 0.31393 0.08931 0.0
N540 N 0.87945 0.31177 0.10912 0.0
C541 C 0.85414 0.33343 0.12007 0.0
C542 C 0.85767 0.32606 0.0843 0.0
C543 C 0.87011 0.32115 0.12447 0.0
C544 C 0.7958 0.37328 0.14095 0.0
N545 N 0.81537 0.37328 0.13285 0.0
C546 C 0.83058 0.37627 0.16598 0.0
C547 C 0.83258 0.37494 0.14484 0.0
C548 C 0.81062 0.37609 0.17495 0.0
C549 C 0.79305 0.37464 0.16211 0.0
H550 H 0.78235 0.37229 0.13103 0.0
H551 H 0.84794 0.37504 0.13792 0.0
C552 C 0.88829 0.36324 0.06015 0.0
N553 N 0.87868 0.36396 0.07864 0.0
C554 C 0.91002 0.36167 0.05897 0.0
C555 C 0.91146 0.36135 0.09588 0.0
C556 C 0.88975 0.36321 0.09634 0.0
C557 C 0.92184 0.3607 0.07701 0.0
H558 H 0.87911 0.3641 0.04633 0.0
H559 H 0.8817 0.36417 0.11082 0.0
C560 C 0.77821 0.36781 0.08086 0.0
N561 N 0.73995 0.35205 0.07281 0.0
C562 C 0.76559 0.37452 0.06518 0.0
C563 C 0.77137 0.35312 0.09249 0.0
C564 C 0.74629 0.36637 0.06135 0.0
C565 C 0.75199 0.34532 0.08815 0.0
C566 C 0.8305 0.36449 0.03435 0.0
C567 C 0.81702 0.37451 0.02194 0.0
C568 C 0.83965 0.34873 0.02674 0.0
C569 C 0.81267 0.36843 0.00219 0.0
C570 C 0.83487 0.34307 0.00694 0.0
N571 N 0.82159 0.35295 0.99518 0.0
C572 C 0.83169 0.4177 0.04737 0.0
C573 C 0.79705 0.41975 0.05998 0.0
C574 C 0.82951 0.4341 0.03711 0.0
N575 N 0.81554 0.41082 0.05833 0.0
C576 C 0.79414 0.43621 0.04988 0.0
C577 C 0.81047 0.44355 0.03809 0.0
H578 H 0.84628 0.41035 0.04654 0.0
H579 H 0.78457 0.41407 0.06907 0.0
C580 C 0.80442 0.31938 0.06638 0.0
N581 N 0.80136 0.33621 0.05861 0.0
C582 C 0.79514 0.30436 0.05722 0.0
C583 C 0.7791 0.32423 0.03254 0.0
C584 C 0.78874 0.33886 0.04216 0.0
C585 C 0.78239 0.30664 0.03994 0.0
H586 H 0.81417 0.31756 0.07968 0.0
H587 H 0.78611 0.35233 0.03644 0.0
O588 O 0.84129 0.38941 0.09419 0.0
O589 O 0.83263 0.34818 0.09512 0.0
O590 O 0.79729 0.37543 0.08466 0.0
O591 O 0.83497 0.37024 0.05372 0.0
H592 H 0.8729 0.40968 0.10621 0.0
H593 H 0.80579 0.40531 0.10512 0.0
H594 H 0.86941 0.43882 0.12469 0.0
H595 H 0.80348 0.43448 0.12355 0.0
H596 H 0.88128 0.30625 0.07745 0.0
H597 H 0.84664 0.34077 0.13229 0.0
H598 H 0.85299 0.32778 0.06857 0.0
H599 H 0.87507 0.31908 0.14009 0.0
H600 H 0.8446 0.37709 0.17521 0.0
H601 H 0.77736 0.37472 0.1683 0.0
H602 H 0.91749 0.36117 0.04414 0.0
H603 H 0.92008 0.36089 0.11011 0.0
H604 H 0.77077 0.38572 0.05586 0.0
H605 H 0.78108 0.34764 0.10452 0.0
H606 H 0.7364 0.37136 0.0492 0.0
H607 H 0.74654 0.33387 0.09693 0.0
H608 H 0.80973 0.3867 0.02755 0.0
H609 H 0.8503 0.34092 0.03602 0.0
H610 H 0.80215 0.37597 0.99248 0.0
H611 H 0.84174 0.33084 1.0009 0.0
H612 H 0.8427 0.43938 0.02863 0.0
H613 H 0.77916 0.44294 0.051 0.0
H614 H 0.79826 0.29108 0.06342 0.0
H615 H 0.76906 0.3267 0.01952 0.0
Li616 Li 0.17685 0.63208 0.60497 0.0
Li617 Li 0.14768 0.63662 0.58075 0.0
Li618 Li 0.17816 0.61604 0.57223 0.0
Li619 Li 0.18218 0.64885 0.57155 0.0
C620 C 0.15097 0.60242 0.60949 0.0
N621 N 0.13936 0.57951 0.64085 0.0
C622 C 0.13075 0.6032 0.61755 0.0
C623 C 0.16514 0.58975 0.61715 0.0
C624 C 0.12521 0.59156 0.63346 0.0
C625 C 0.15902 0.57836 0.63307 0.0
C626 C 0.15169 0.6692 0.60142 0.0
C627 C 0.12944 0.69447 0.59312 0.0
N628 N 0.12574 0.69713 0.61335 0.0
C629 C 0.14787 0.67234 0.62214 0.0
C630 C 0.14258 0.68049 0.58681 0.0
C631 C 0.13464 0.68647 0.62786 0.0
C632 C 0.2026 0.63118 0.64096 0.0
N633 N 0.18272 0.63085 0.63357 0.0
C634 C 0.16891 0.62795 0.66732 0.0
C635 C 0.16602 0.62957 0.64631 0.0
C636 C 0.18922 0.62794 0.67541 0.0
C637 C 0.20623 0.62979 0.662 0.0
H638 H 0.21562 0.63249 0.63054 0.0
H639 H 0.15036 0.62997 0.64015 0.0
C640 C 0.10812 0.63439 0.56161 0.0
N641 N 0.11809 0.63952 0.57899 0.0
C642 C 0.08636 0.63552 0.56022 0.0
C643 C 0.08555 0.64719 0.59467 0.0
C644 C 0.10727 0.64574 0.59541 0.0
C645 C 0.07474 0.64191 0.57696 0.0
H646 H 0.11705 0.62911 0.54893 0.0
H647 H 0.11544 0.64919 0.6093 0.0
C648 C 0.2185 0.62056 0.58328 0.0
N649 N 0.25404 0.59969 0.57889 0.0
C650 C 0.23294 0.62446 0.56788 0.0
C651 C 0.22235 0.60625 0.59667 0.0
C652 C 0.25076 0.6137 0.56584 0.0
C653 C 0.24034 0.5958 0.59415 0.0
C654 C 0.16201 0.64141 0.53558 0.0
C655 C 0.17441 0.63487 0.51965 0.0
C656 C 0.14827 0.65571 0.53192 0.0
C657 C 0.17328 0.64307 0.50047 0.0
C658 C 0.14757 0.66356 0.51253 0.0
N659 N 0.16002 0.65715 0.49734 0.0
C660 C 0.17384 0.57887 0.56444 0.0
C661 C 0.20008 0.59282 0.54437 0.0
C662 C 0.17741 0.56232 0.55489 0.0
N663 N 0.18517 0.59369 0.55916 0.0
C664 C 0.20393 0.57657 0.53414 0.0
C665 C 0.19248 0.56108 0.5394 0.0
H666 H 0.16164 0.57995 0.57576 0.0
H667 H 0.20873 0.60479 0.54021 0.0
C668 C 0.19359 0.68561 0.56646 0.0
N669 N 0.1958 0.6688 0.55838 0.0
C670 C 0.20246 0.70056 0.55677 0.0
C671 C 0.2166 0.6806 0.53108 0.0
C672 C 0.20721 0.66606 0.54113 0.0
C673 C 0.21409 0.69815 0.53881 0.0
H674 H 0.18496 0.68745 0.58046 0.0
H675 H 0.20897 0.65258 0.53507 0.0
O676 O 0.15674 0.61389 0.59407 0.0
O677 O 0.16441 0.65526 0.59554 0.0
O678 O 0.20085 0.63085 0.58539 0.0
O679 O 0.16306 0.63363 0.55454 0.0
H680 H 0.11947 0.61272 0.61168 0.0
H681 H 0.18064 0.58863 0.61079 0.0
H682 H 0.10967 0.59212 0.63993 0.0
H683 H 0.16988 0.56856 0.63919 0.0
H684 H 0.12223 0.70325 0.58195 0.0
H685 H 0.15505 0.664 0.6337 0.0
H686 H 0.14576 0.67857 0.57078 0.0
H687 H 0.13147 0.68898 0.64383 0.0
H688 H 0.15535 0.62699 0.67716 0.0
H689 H 0.22213 0.6299 0.66767 0.0
H690 H 0.07871 0.63099 0.54639 0.0
H691 H 0.07732 0.65232 0.6079 0.0
H692 H 0.2304 0.63561 0.55755 0.0
H693 H 0.21167 0.60332 0.60899 0.0
H694 H 0.26197 0.61649 0.55389 0.0
H695 H 0.24345 0.58464 0.60437 0.0
H696 H 0.18496 0.62369 0.52209 0.0
H697 H 0.13809 0.66061 0.54384 0.0
H698 H 0.18296 0.63825 0.48807 0.0
H699 H 0.13707 0.6747 0.50954 0.0
H700 H 0.168 0.55074 0.55911 0.0
H701 H 0.21568 0.57612 0.52224 0.0
H702 H 0.20046 0.71386 0.56339 0.0
H703 H 0.22543 0.67819 0.51724 0.0
Li704 Li 0.68262 0.86945 0.10487 0.0
Li705 Li 0.68515 0.85419 0.07397 0.0
Li706 Li 0.68289 0.8875 0.07388 0.0
Li707 Li 0.65135 0.86675 0.0829 0.0
C708 C 0.72266 0.87479 0.0963 0.0
N709 N 0.75721 0.88038 0.1208 0.0
C710 C 0.73228 0.86021 0.10606 0.0
C711 C 0.73075 0.89218 0.09879 0.0
C712 C 0.74968 0.86332 0.11845 0.0
C713 C 0.74821 0.89474 0.11128 0.0
C714 C 0.66626 0.82937 0.09776 0.0
C715 C 0.64836 0.80117 0.09193 0.0
N716 N 0.66554 0.79207 0.09857 0.0
C717 C 0.68366 0.81975 0.10473 0.0
C718 C 0.64839 0.82003 0.09147 0.0
C719 C 0.68302 0.80089 0.10493 0.0
C720 C 0.68268 0.85571 0.14488 0.0
N721 N 0.68999 0.86965 0.13342 0.0
C722 C 0.70386 0.88397 0.16327 0.0
C723 C 0.70055 0.88361 0.14217 0.0
C724 C 0.69627 0.86981 0.17547 0.0
C725 C 0.68574 0.85546 0.16596 0.0
H726 H 0.6739 0.84497 0.13775 0.0
H727 H 0.70592 0.89474 0.13292 0.0
C728 C 0.71864 0.83454 0.05621 0.0
N729 N 0.69767 0.83432 0.05955 0.0
C730 C 0.72827 0.8204 0.04565 0.0
C731 C 0.69458 0.80601 0.04224 0.0
C732 C 0.68559 0.82055 0.05253 0.0
C733 C 0.71624 0.80575 0.0386 0.0
H734 H 0.72788 0.8458 0.06159 0.0
H735 H 0.66889 0.82083 0.05486 0.0
C736 C 0.66034 0.89873 0.11419 0.0
N737 N 0.65669 0.91796 0.15015 0.0
C738 C 0.6469 0.8927 0.12958 0.0
C739 C 0.67182 0.91459 0.11702 0.0
C740 C 0.64533 0.90259 0.14768 0.0
C741 C 0.66976 0.92413 0.13532 0.0
C742 C 0.66938 0.86251 0.03785 0.0
C743 C 0.68733 0.86656 0.0266 0.0
C744 C 0.65459 0.85052 0.02993 0.0
C745 C 0.69029 0.85839 0.00759 0.0
C746 C 0.65811 0.84265 0.01084 0.0
N747 N 0.67574 0.8467 1.00018 0.0
C748 C 0.70761 0.91243 0.05079 0.0
C749 C 0.67433 0.92271 0.06166 0.0
C750 C 0.71142 0.92887 0.04094 0.0
N751 N 0.68929 0.90972 0.06087 0.0
C752 C 0.67753 0.93935 0.05218 0.0
C753 C 0.69626 0.94261 0.0416 0.0
H754 H 0.7192 0.9018 0.05035 0.0
H755 H 0.65981 0.92008 0.06959 0.0
C756 C 0.61091 0.85921 0.09788 0.0
N757 N 0.62188 0.86516 0.08144 0.0
C758 C 0.5891 0.85854 0.09722 0.0
C759 C 0.59037 0.86984 0.0626 0.0
C760 C 0.61214 0.87046 0.06402 0.0
C761 C 0.5785 0.86394 0.07941 0.0
H762 H 0.61911 0.85508 0.11155 0.0
H763 H 0.62129 0.87524 0.05123 0.0
O764 O 0.70562 0.87201 0.0841 0.0
O765 O 0.66656 0.84783 0.09746 0.0
O766 O 0.66244 0.88903 0.09655 0.0
O767 O 0.66649 0.87003 0.0567 0.0
H768 H 0.72636 0.84664 0.10408 0.0
H769 H 0.72346 0.90362 0.09138 0.0
H770 H 0.75722 0.85218 0.12619 0.0
H771 H 0.75455 0.90814 0.11346 0.0
H772 H 0.6347 0.79376 0.08697 0.0
H773 H 0.69751 0.82678 0.10986 0.0
H774 H 0.63479 0.82726 0.08605 0.0
H775 H 0.69642 0.79327 0.11016 0.0
H776 H 0.71212 0.89528 0.16997 0.0
H777 H 0.67928 0.84443 0.17481 0.0
H778 H 0.74493 0.8211 0.04287 0.0
H779 H 0.68459 0.79501 0.03741 0.0
H780 H 0.63802 0.88039 0.12767 0.0
H781 H 0.68246 0.91935 0.10535 0.0
H782 H 0.63511 0.89801 0.15979 0.0
H783 H 0.67864 0.93637 0.13777 0.0
H784 H 0.69898 0.87572 0.03261 0.0
H785 H 0.64071 0.8471 0.03855 0.0
H786 H 0.70418 0.8613 0.99876 0.0
H787 H 0.64687 0.83325 0.00456 0.0
H788 H 0.72611 0.93087 0.03303 0.0
H789 H 0.66528 0.94943 0.05278 0.0
H790 H 0.58067 0.85416 0.11068 0.0
H791 H 0.58298 0.87387 0.04845 0.0
Li792 Li 0.31427 0.1506 0.57165 0.0
Li793 Li 0.31791 0.13495 0.60311 0.0
Li794 Li 0.34863 0.13876 0.58067 0.0
Li795 Li 0.31805 0.11799 0.57106 0.0
C796 C 0.33822 0.17437 0.59953 0.0
N797 N 0.35053 0.20911 0.60925 0.0
C798 C 0.32763 0.18407 0.61465 0.0
C799 C 0.35526 0.18227 0.58957 0.0
C800 C 0.33404 0.20163 0.61928 0.0
C801 C 0.36118 0.19987 0.59463 0.0
C802 C 0.27668 0.13917 0.59067 0.0
C803 C 0.23992 0.13677 0.59833 0.0
N804 N 0.24034 0.15365 0.60652 0.0
C805 C 0.27676 0.15648 0.59916 0.0
C806 C 0.25813 0.12922 0.59023 0.0
C807 C 0.25823 0.16357 0.60708 0.0
C808 C 0.28186 0.16727 0.54837 0.0
N809 N 0.30063 0.17027 0.55756 0.0
C810 C 0.30066 0.20089 0.54592 0.0
C811 C 0.31016 0.18664 0.55629 0.0
C812 C 0.28121 0.19827 0.53647 0.0
C813 C 0.27184 0.18114 0.53764 0.0
H814 H 0.27473 0.15405 0.54923 0.0
H815 H 0.32535 0.18864 0.5629 0.0
C816 C 0.32489 0.1428 0.64408 0.0
N817 N 0.31124 0.13423 0.63149 0.0
C818 C 0.32183 0.14261 0.66516 0.0
C819 C 0.29079 0.12455 0.66004 0.0
C820 C 0.29441 0.12517 0.63897 0.0
C821 C 0.3046 0.1334 0.67343 0.0
H822 H 0.33838 0.14957 0.63772 0.0
H823 H 0.28395 0.11824 0.62863 0.0
C824 C 0.33033 0.14424 0.53588 0.0
N825 N 0.32249 0.16187 0.49952 0.0
C826 C 0.31449 0.13811 0.52293 0.0
C827 C 0.34228 0.15926 0.53032 0.0
C828 C 0.31075 0.14723 0.50461 0.0
C829 C 0.33804 0.16801 0.51187 0.0
C830 C 0.33811 0.10495 0.61059 0.0
C831 C 0.35333 0.10662 0.62577 0.0
C832 C 0.32211 0.09225 0.61279 0.0
C833 C 0.35221 0.09558 0.64304 0.0
C834 C 0.32155 0.08145 0.63028 0.0
N835 N 0.33647 0.08333 0.64492 0.0
C836 C 0.38872 0.14417 0.59726 0.0
C837 C 0.38805 0.13964 0.56144 0.0
C838 C 0.41049 0.14543 0.59704 0.0
N839 N 0.37805 0.14121 0.57965 0.0
C840 C 0.40979 0.14101 0.56046 0.0
C841 C 0.42138 0.1438 0.57845 0.0
H842 H 0.38028 0.1454 0.61151 0.0
H843 H 0.37913 0.13724 0.54768 0.0
C844 C 0.2939 0.09117 0.54964 0.0
N845 N 0.31271 0.0957 0.55785 0.0
C846 C 0.29149 0.07467 0.53943 0.0
C847 C 0.32772 0.06791 0.54666 0.0
C848 C 0.32942 0.08445 0.55664 0.0
C849 C 0.30864 0.06287 0.53767 0.0
H850 H 0.28089 0.10045 0.55079 0.0
H851 H 0.34416 0.08844 0.56337 0.0
O852 O 0.33249 0.15698 0.59514 0.0
O853 O 0.29464 0.13184 0.58296 0.0
O854 O 0.33375 0.13586 0.55417 0.0
O855 O 0.33845 0.11609 0.59394 0.0
H856 H 0.31468 0.17808 0.62283 0.0
H857 H 0.36362 0.17504 0.57779 0.0
H858 H 0.32594 0.2093 0.6309 0.0
H859 H 0.37422 0.20619 0.58692 0.0
H860 H 0.22545 0.12921 0.59811 0.0
H861 H 0.29092 0.16438 0.5995 0.0
H862 H 0.25785 0.11577 0.58374 0.0
H863 H 0.25807 0.17696 0.61367 0.0
H864 H 0.30866 0.21375 0.54498 0.0
H865 H 0.25685 0.17856 0.53054 0.0
H866 H 0.33311 0.14929 0.6749 0.0
H867 H 0.27729 0.11732 0.66577 0.0
H868 H 0.30504 0.12656 0.52711 0.0
H869 H 0.35446 0.16427 0.54028 0.0
H870 H 0.29846 0.14271 0.49448 0.0
H871 H 0.34705 0.17973 0.50743 0.0
H872 H 0.36575 0.11646 0.62434 0.0
H873 H 0.31008 0.09094 0.60127 0.0
H874 H 0.36382 0.09678 0.65498 0.0
H875 H 0.30919 0.07163 0.63225 0.0
H876 H 0.41869 0.14732 0.61134 0.0
H877 H 0.4174 0.13996 0.54574 0.0
H878 H 0.27654 0.07138 0.53262 0.0
H879 H 0.34124 0.05912 0.54605 0.0
Li880 Li 0.68496 0.11643 0.93385 0.0
Li881 Li 0.65357 0.13747 0.9252 0.0
Li882 Li 0.68471 0.13476 0.90305 0.0
Li883 Li 0.68753 0.14962 0.93408 0.0
C884 C 0.66216 0.10561 0.89362 0.0
N885 N 0.65819 0.08649 0.85762 0.0
C886 C 0.64836 0.11154 0.87849 0.0
C887 C 0.67384 0.0899 0.89052 0.0
C888 C 0.64663 0.10171 0.86036 0.0
C889 C 0.67161 0.08042 0.8722 0.0
C890 C 0.67199 0.14046 0.97048 0.0
C891 C 0.6605 0.15795 0.99943 0.0
N892 N 0.6789 0.15438 0.00902 0.0
C893 C 0.69074 0.13688 0.98065 0.0
C894 C 0.65669 0.15102 0.97994 0.0
C895 C 0.69396 0.14408 1.00012 0.0
C896 C 0.7092 0.0912 0.95705 0.0
N897 N 0.69107 0.09405 0.9467 0.0
C898 C 0.67895 0.06444 0.95505 0.0
C899 C 0.67603 0.08113 0.9456 0.0
C900 C 0.69746 0.06106 0.96594 0.0
C901 C 0.71272 0.0747 0.96689 0.0
H902 H 0.72087 0.10176 0.95773 0.0
H903 H 0.66165 0.08388 0.93748 0.0
C904 C 0.61378 0.14591 0.90976 0.0
N905 N 0.62411 0.13929 0.92628 0.0
C906 C 0.59198 0.14654 0.90963 0.0
C907 C 0.5919 0.13399 0.94373 0.0
C908 C 0.61372 0.13339 0.9431 0.0
C909 C 0.58078 0.14046 0.92675 0.0
H910 H 0.62252 0.15055 0.89663 0.0
H911 H 0.62237 0.12798 0.95591 0.0
C912 C 0.72451 0.12839 0.91107 0.0
N913 N 0.75827 0.12152 0.88595 0.0
C914 C 0.73426 0.14253 0.90062 0.0
C915 C 0.73204 0.11078 0.9089 0.0
C916 C 0.75126 0.13877 0.88793 0.0
C917 C 0.74912 0.10758 0.8961 0.0
C918 C 0.66924 0.17486 0.91135 0.0
C919 C 0.68671 0.18428 0.90423 0.0
C920 C 0.652 0.18439 0.91881 0.0
C921 C 0.6868 0.20313 0.90504 0.0
C922 C 0.65269 0.20324 0.91933 0.0
N923 N 0.66994 0.21214 0.91252 0.0
C924 C 0.68319 0.14856 0.86326 0.0
C925 C 0.70188 0.12101 0.86508 0.0
C926 C 0.68491 0.14872 0.84204 0.0
N927 N 0.69141 0.13476 0.87435 0.0
C928 C 0.70396 0.12061 0.84383 0.0
C929 C 0.69506 0.13445 0.832 0.0
H930 H 0.67465 0.1592 0.87082 0.0
H931 H 0.70787 0.10993 0.87404 0.0
C932 C 0.72128 0.17063 0.94942 0.0
N933 N 0.70009 0.16945 0.94851 0.0
C934 C 0.73081 0.18505 0.95959 0.0
C935 C 0.69656 0.19668 0.96784 0.0
C936 C 0.68772 0.18204 0.95759 0.0
C937 C 0.71841 0.19837 0.96893 0.0
H938 H 0.73079 0.16035 0.94229 0.0
H939 H 0.67093 0.18079 0.95679 0.0
O940 O 0.66441 0.11526 0.91128 0.0
O941 O 0.66875 0.13383 0.95126 0.0
O942 O 0.70789 0.1318 0.9236 0.0
O943 O 0.66891 0.1564 0.9108 0.0
H944 H 0.63931 0.12372 0.88061 0.0
H945 H 0.68475 0.08523 0.90198 0.0
H946 H 0.63614 0.10622 0.84844 0.0
H947 H 0.68064 0.0683 0.86953 0.0
H948 H 0.64886 0.16624 0.00689 0.0
H949 H 0.70278 0.12885 0.97346 0.0
H950 H 0.64216 0.15404 0.9722 0.0
H951 H 0.70845 0.14152 0.00812 0.0
H952 H 0.66662 0.05444 0.95423 0.0
H953 H 0.72725 0.07261 0.97504 0.0
H954 H 0.58395 0.15177 0.89631 0.0
H955 H 0.5838 0.129 0.95712 0.0
H956 H 0.72872 0.15625 0.90226 0.0
H957 H 0.72464 0.09966 0.9168 0.0
H958 H 0.75889 0.14957 0.87966 0.0
H959 H 0.75504 0.094 0.89418 0.0
H960 H 0.70009 0.1771 0.89824 0.0
H961 H 0.63835 0.1773 0.92438 0.0
H962 H 0.70028 0.2106 0.89971 0.0
H963 H 0.63952 0.2108 0.9252 0.0
H964 H 0.67804 0.15978 0.83356 0.0
H965 H 0.71166 0.10921 0.83672 0.0
H966 H 0.74771 0.18563 0.96031 0.0
H967 H 0.68634 0.2067 0.97455 0.0
Li968 Li 0.34653 0.86462 0.42366 0.0
Li969 Li 0.31603 0.8865 0.43278 0.0
Li970 Li 0.31215 0.85335 0.43264 0.0
Li971 Li 0.31531 0.86846 0.40175 0.0
C972 C 0.32822 0.86163 0.46894 0.0
N973 N 0.32085 0.8473 0.5072 0.0
C974 C 0.30991 0.866 0.47946 0.0
C975 C 0.34287 0.85009 0.4779 0.0
C976 C 0.30644 0.85857 0.49878 0.0
C977 C 0.33884 0.84296 0.49726 0.0
C978 C 0.3391 0.89691 0.3925 0.0
C979 C 0.33085 0.92261 0.37137 0.0
N980 N 0.34382 0.91613 0.35664 0.0
C981 C 0.35246 0.89056 0.37722 0.0
C982 C 0.32825 0.9131 0.38962 0.0
C983 C 0.35458 0.90044 0.35917 0.0
C984 C 0.38626 0.85511 0.40846 0.0
N985 N 0.37593 0.86207 0.42479 0.0
C986 C 0.40809 0.86693 0.4425 0.0
C987 C 0.38631 0.86792 0.44164 0.0
C988 C 0.41925 0.86003 0.42574 0.0
C989 C 0.40805 0.854 0.40859 0.0
H990 H 0.37754 0.85056 0.39527 0.0
H991 H 0.37766 0.8736 0.4543 0.0
C992 C 0.29326 0.913 0.45601 0.0
N993 N 0.31127 0.90897 0.44596 0.0
C994 C 0.2912 0.92954 0.46619 0.0
C995 C 0.32618 0.93734 0.45533 0.0
C996 C 0.32756 0.92073 0.44544 0.0
C997 C 0.30791 0.9419 0.46608 0.0
H998 H 0.28062 0.9033 0.45631 0.0
H999 H 0.34172 0.9171 0.4374 0.0
C1000 C 0.3293 0.82785 0.40901 0.0
N1001 N 0.32722 0.79059 0.40871 0.0
C1002 C 0.3113 0.81915 0.40197 0.0
C1003 C 0.34636 0.81761 0.41563 0.0
C1004 C 0.31052 0.8003 0.40203 0.0
C1005 C 0.34498 0.79878 0.41541 0.0
C1006 C 0.27576 0.87577 0.41025 0.0
C1007 C 0.26525 0.86189 0.40007 0.0
C1008 C 0.26893 0.8936 0.40808 0.0
C1009 C 0.24822 0.86612 0.38759 0.0
C1010 C 0.2518 0.89727 0.39551 0.0
N1011 N 0.24191 0.88358 0.38558 0.0
C1012 C 0.27787 0.83363 0.44919 0.0
C1013 C 0.31099 0.82033 0.455 0.0
C1014 C 0.26798 0.81947 0.4595 0.0
N1015 N 0.299 0.83376 0.44704 0.0
C1016 C 0.30177 0.80583 0.46518 0.0
C1017 C 0.27994 0.80521 0.46759 0.0
H1018 H 0.26869 0.84459 0.44298 0.0
H1019 H 0.32777 0.82083 0.4534 0.0
C1020 C 0.31594 0.85509 0.36174 0.0
N1021 N 0.30836 0.86899 0.37309 0.0
C1022 C 0.31402 0.85522 0.34053 0.0
C1023 C 0.29609 0.88383 0.34288 0.0
C1024 C 0.29836 0.88314 0.36411 0.0
C1025 C 0.30433 0.86988 0.33078 0.0
H1026 H 0.32415 0.84413 0.36907 0.0
H1027 H 0.29293 0.8943 0.37326 0.0
O1028 O 0.33164 0.86844 0.44983 0.0
O1029 O 0.33645 0.88723 0.41008 0.0
O1030 O 0.33035 0.8463 0.40913 0.0
O1031 O 0.29242 0.8719 0.42257 0.0
H1032 H 0.29837 0.87482 0.47264 0.0
H1033 H 0.35706 0.84649 0.46988 0.0
H1034 H 0.29227 0.86172 0.50705 0.0
H1035 H 0.34996 0.83392 0.50435 0.0
H1036 H 0.32246 0.9351 0.36887 0.0
H1037 H 0.36087 0.87801 0.37918 0.0
H1038 H 0.31771 0.91812 0.40123 0.0
H1039 H 0.36473 0.89561 0.34714 0.0
H1040 H 0.41615 0.87193 0.4559 0.0
H1041 H 0.41604 0.84843 0.39544 0.0
H1042 H 0.27692 0.93242 0.47443 0.0
H1043 H 0.33931 0.94654 0.45452 0.0
H1044 H 0.29806 0.82689 0.3966 0.0
H1045 H 0.36042 0.82413 0.4211 0.0
H1046 H 0.29663 0.79339 0.39676 0.0
H1047 H 0.358 0.79068 0.42063 0.0
H1048 H 0.2702 0.84801 0.40177 0.0
H1049 H 0.27692 0.90451 0.4158 0.0
H1050 H 0.24001 0.85553 0.37953 0.0
H1051 H 0.24643 0.91101 0.39357 0.0
H1052 H 0.25116 0.81982 0.46128 0.0
H1053 H 0.3117 0.79511 0.47083 0.0
H1054 H 0.32041 0.84407 0.33184 0.0
H1055 H 0.28877 0.89552 0.33599 0.0
Li1056 Li 0.31677 0.1475 0.92969 0.0
Li1057 Li 0.31991 0.11518 0.92961 0.0
Li1058 Li 0.35043 0.13411 0.92153 0.0
Li1059 Li 0.31937 0.13165 0.89728 0.0
C1060 C 0.3439 0.13587 0.9654 0.0
N1061 N 0.36236 0.14299 0.00269 0.0
C1062 C 0.33771 0.12633 0.9828 0.0
C1063 C 0.35945 0.14906 0.96699 0.0
C1064 C 0.34723 0.13012 1.00151 0.0
C1065 C 0.36861 0.15245 0.98597 0.0
C1066 C 0.2791 0.12851 0.92969 0.0
C1067 C 0.24171 0.12582 0.9333 0.0
N1068 N 0.24389 0.12606 0.95396 0.0
C1069 C 0.28097 0.12875 0.95096 0.0
C1070 C 0.25933 0.12706 0.92077 0.0
C1071 C 0.26298 0.12749 0.96296 0.0
C1072 C 0.28854 0.1769 0.9322 0.0
N1073 N 0.30352 0.16779 0.94274 0.0
C1074 C 0.29987 0.18796 0.97102 0.0
C1075 C 0.30909 0.17292 0.96191 0.0
C1076 C 0.28479 0.198 0.96031 0.0
C1077 C 0.27906 0.19219 0.94064 0.0
H1078 H 0.28415 0.17241 0.91708 0.0
H1079 H 0.32064 0.16539 0.97027 0.0
C1080 C 0.32983 0.08588 0.95393 0.0
N1081 N 0.31373 0.09295 0.94304 0.0
C1082 C 0.32732 0.06975 0.96462 0.0
C1083 C 0.29169 0.06823 0.95246 0.0
C1084 C 0.29495 0.08441 0.94188 0.0
C1085 C 0.30798 0.06075 0.96418 0.0
H1086 H 0.34471 0.09283 0.95427 0.0
H1087 H 0.28248 0.09015 0.93282 0.0
C1088 C 0.33249 0.17157 0.90427 0.0
N1089 N 0.32537 0.20828 0.90139 0.0
C1090 C 0.31902 0.17834 0.88931 0.0
C1091 C 0.34252 0.18348 0.91763 0.0
C1092 C 0.3156 0.19694 0.88812 0.0
C1093 C 0.33864 0.20199 0.91598 0.0
C1094 C 0.33845 0.09478 0.90199 0.0
C1095 C 0.35486 0.08328 0.90739 0.0
C1096 C 0.32046 0.08766 0.89292 0.0
C1097 C 0.35296 0.06477 0.90369 0.0
C1098 C 0.31917 0.06908 0.88948 0.0
N1099 N 0.3353 0.05811 0.8949 0.0
C1100 C 0.39041 0.12221 0.93289 0.0
C1101 C 0.39003 0.15003 0.91494 0.0
C1102 C 0.41219 0.12267 0.93409 0.0
N1103 N 0.37989 0.13569 0.92328 0.0
C1104 C 0.41179 0.15116 0.91601 0.0
C1105 C 0.42313 0.13727 0.92554 0.0
H1106 H 0.38185 0.11109 0.93959 0.0
H1107 H 0.38121 0.16053 0.90736 0.0
C1108 C 0.29366 0.13569 0.86174 0.0
N1109 N 0.31267 0.13068 0.86908 0.0
C1110 C 0.28972 0.13519 0.84071 0.0
C1111 C 0.32485 0.12409 0.83543 0.0
C1112 C 0.32813 0.12492 0.85646 0.0
C1113 C 0.30547 0.12933 0.82726 0.0
H1114 H 0.28166 0.14024 0.87218 0.0
H1115 H 0.34312 0.12111 0.86277 0.0
O1116 O 0.33479 0.13222 0.94695 0.0
O1117 O 0.29642 0.12979 0.91752 0.0
O1118 O 0.33567 0.15337 0.90594 0.0
O1119 O 0.33967 0.11284 0.90609 0.0
H1120 H 0.32558 0.11617 0.9819 0.0
H1121 H 0.36433 0.15668 0.95375 0.0
H1122 H 0.34258 0.12285 0.0151 0.0
H1123 H 0.38066 0.16262 0.98741 0.0
H1124 H 0.22631 0.12467 0.92661 0.0
H1125 H 0.29609 0.1299 0.95817 0.0
H1126 H 0.25763 0.12688 0.90432 0.0
H1127 H 0.2642 0.12765 0.97944 0.0
H1128 H 0.30443 0.19157 0.98641 0.0
H1129 H 0.26763 0.19951 0.93169 0.0
H1130 H 0.34049 0.06432 0.97299 0.0
H1131 H 0.2765 0.06181 0.95172 0.0
H1132 H 0.31115 0.16931 0.87885 0.0
H1133 H 0.35299 0.17847 0.92928 0.0
H1134 H 0.30512 0.20237 0.8767 0.0
H1135 H 0.34616 0.21135 0.92632 0.0
H1136 H 0.36885 0.08857 0.91448 0.0
H1137 H 0.30753 0.09637 0.88886 0.0
H1138 H 0.3655 0.05569 0.90786 0.0
H1139 H 0.3053 0.06337 0.88257 0.0
H1140 H 0.42039 0.11181 0.94175 0.0
H1141 H 0.41969 0.16256 0.90909 0.0
H1142 H 0.27451 0.13923 0.83506 0.0
H1143 H 0.33754 0.11978 0.82563 0.0
Li1144 Li 0.68472 0.85641 0.43265 0.0
Li1145 Li 0.68095 0.88835 0.43181 0.0
Li1146 Li 0.65004 0.86783 0.4241 0.0
Li1147 Li 0.68048 0.87179 0.4003 0.0
C1148 C 0.66672 0.86403 0.46895 0.0
N1149 N 0.66876 0.84893 0.50747 0.0
C1150 C 0.68546 0.86438 0.47991 0.0
C1151 C 0.64897 0.85611 0.47761 0.0
C1152 C 0.68619 0.85663 0.49935 0.0
C1153 C 0.65033 0.84853 0.49711 0.0
C1154 C 0.72041 0.88524 0.42384 0.0
C1155 C 0.73935 0.9128 0.41719 0.0
N1156 N 0.75265 0.90883 0.43275 0.0
C1157 C 0.73428 0.88144 0.43979 0.0
C1158 C 0.72298 0.90104 0.41244 0.0
C1159 C 0.75048 0.89353 0.44404 0.0
C1160 C 0.71812 0.8325 0.44272 0.0
N1161 N 0.69741 0.83579 0.44547 0.0
C1162 C 0.69386 0.80897 0.46553 0.0
C1163 C 0.68518 0.82421 0.45631 0.0
C1164 C 0.71533 0.8055 0.46345 0.0
C1165 C 0.7275 0.81746 0.45177 0.0
H1166 H 0.72732 0.84142 0.43324 0.0
H1167 H 0.66861 0.82671 0.45765 0.0
C1168 C 0.67632 0.92577 0.43822 0.0
N1169 N 0.68698 0.91099 0.44477 0.0
C1170 C 0.67888 0.9424 0.44798 0.0
C1171 C 0.70366 0.92842 0.47087 0.0
C1172 C 0.7004 0.91202 0.46084 0.0
C1173 C 0.69262 0.9439 0.46467 0.0
H1174 H 0.66536 0.92457 0.42574 0.0
H1175 H 0.70841 0.90009 0.46609 0.0
C1176 C 0.67204 0.83206 0.40562 0.0
N1177 N 0.68503 0.79692 0.39935 0.0
C1178 C 0.69065 0.8286 0.39516 0.0
C1179 C 0.66001 0.81766 0.41287 0.0
C1180 C 0.69695 0.81074 0.39214 0.0
C1181 C 0.66686 0.79999 0.40955 0.0
C1182 C 0.65363 0.89781 0.39165 0.0
C1183 C 0.6354 0.89189 0.38196 0.0
C1184 C 0.6658 0.91126 0.38254 0.0
C1185 C 0.62979 0.89939 0.36316 0.0
C1186 C 0.65968 0.9184 0.36372 0.0
N1187 N 0.64196 0.91235 0.35449 0.0
C1188 C 0.60957 0.87735 0.43666 0.0
C1189 C 0.61123 0.8511 0.41602 0.0
C1190 C 0.58779 0.87621 0.43748 0.0
N1191 N 0.62073 0.86493 0.426 0.0
C1192 C 0.5895 0.84937 0.41653 0.0
C1193 C 0.57743 0.86211 0.42723 0.0
H1194 H 0.61761 0.88832 0.44424 0.0
H1195 H 0.6205 0.84158 0.4074 0.0
C1196 C 0.70454 0.87777 0.36367 0.0
N1197 N 0.68632 0.87155 0.37172 0.0
C1198 C 0.70768 0.87755 0.34253 0.0
C1199 C 0.67346 0.8642 0.33849 0.0
C1200 C 0.67101 0.86465 0.35963 0.0
C1201 C 0.69198 0.87073 0.32962 0.0
H1202 H 0.71668 0.88281 0.3736 0.0
H1203 H 0.65677 0.85961 0.36648 0.0
O1204 O 0.66567 0.8714 0.44984 0.0
O1205 O 0.70436 0.87362 0.41948 0.0
O1206 O 0.66598 0.84947 0.40927 0.0
O1207 O 0.65966 0.8903 0.40981 0.0
H1208 H 0.6994 0.87019 0.4733 0.0
H1209 H 0.63435 0.85574 0.46931 0.0
H1210 H 0.70064 0.85665 0.50793 0.0
H1211 H 0.63675 0.8423 0.50398 0.0
H1212 H 0.74144 0.92512 0.40854 0.0
H1213 H 0.73237 0.86949 0.44908 0.0
H1214 H 0.71232 0.9043 0.4002 0.0
H1215 H 0.76125 0.89079 0.45639 0.0
H1216 H 0.68389 0.80011 0.47439 0.0
H1217 H 0.74402 0.81505 0.44938 0.0
H1218 H 0.66965 0.95379 0.44287 0.0
H1219 H 0.71463 0.92888 0.48345 0.0
H1220 H 0.70029 0.83959 0.38969 0.0
H1221 H 0.64573 0.82011 0.42128 0.0
H1222 H 0.71137 0.80786 0.38416 0.0
H1223 H 0.65778 0.78871 0.41518 0.0
H1224 H 0.62581 0.88147 0.38873 0.0
H1225 H 0.67986 0.9161 0.38988 0.0
H1226 H 0.6158 0.89485 0.35543 0.0
H1227 H 0.66902 0.92874 0.35644 0.0
H1228 H 0.57917 0.88652 0.44563 0.0
H1229 H 0.58226 0.83817 0.4086 0.0
H1230 H 0.72235 0.88244 0.33639 0.0
H1231 H 0.66082 0.85902 0.32917 0.0
Li1232 Li 0.3179 0.87094 0.10581 0.0
Li1233 Li 0.34744 0.86728 0.08224 0.0
Li1234 Li 0.31676 0.88771 0.07432 0.0
Li1235 Li 0.3127 0.85484 0.07255 0.0
C1236 C 0.34342 0.89808 0.114 0.0
N1237 N 0.35375 0.91434 0.15061 0.0
C1238 C 0.36239 0.89404 0.12355 0.0
C1239 C 0.32982 0.91056 0.12295 0.0
C1240 C 0.36731 0.90238 0.14208 0.0
C1241 C 0.33528 0.91858 0.1415 0.0
C1242 C 0.34027 0.83148 0.09709 0.0
C1243 C 0.35545 0.80558 0.08038 0.0
N1244 N 0.359 0.79787 0.0989 0.0
C1245 C 0.34388 0.82321 0.11596 0.0
C1246 C 0.34595 0.82253 0.07915 0.0
C1247 C 0.35345 0.80626 0.11656 0.0
C1248 C 0.29386 0.87692 0.14244 0.0
N1249 N 0.31228 0.87113 0.13439 0.0
C1250 C 0.32654 0.86666 0.16771 0.0
C1251 C 0.32837 0.86586 0.14654 0.0
C1252 C 0.30789 0.87288 0.17657 0.0
C1253 C 0.29129 0.87785 0.16365 0.0
H1254 H 0.28131 0.88105 0.13243 0.0
H1255 H 0.34285 0.86138 0.1397 0.0
C1256 C 0.38701 0.87657 0.06741 0.0
N1257 N 0.37701 0.86506 0.08029 0.0
C1258 C 0.40879 0.87634 0.06594 0.0
C1259 C 0.40956 0.85231 0.09093 0.0
C1260 C 0.38779 0.85313 0.09207 0.0
C1261 C 0.42032 0.86409 0.07783 0.0
H1262 H 0.37803 0.88605 0.0584 0.0
H1263 H 0.37962 0.84453 0.10269 0.0
C1264 C 0.27656 0.88222 0.08132 0.0
N1265 N 0.24183 0.90213 0.07028 0.0
C1266 C 0.26331 0.87603 0.06587 0.0
C1267 C 0.27203 0.89842 0.09132 0.0
C1268 C 0.24584 0.88631 0.06048 0.0
C1269 C 0.25445 0.90833 0.08546 0.0
C1270 C 0.33688 0.86533 0.03684 0.0
C1271 C 0.32605 0.8725 0.02016 0.0
C1272 C 0.3535 0.85344 0.03341 0.0
C1273 C 0.33158 0.86724 1.0004 0.0
C1274 C 0.35859 0.84853 0.01342 0.0
N1275 N 0.34759 0.85545 0.99746 0.0
C1276 C 0.32001 0.9252 0.06819 0.0
C1277 C 0.2962 0.91096 0.04563 0.0
C1278 C 0.31681 0.94181 0.05859 0.0
N1279 N 0.30984 0.91019 0.06155 0.0
C1280 C 0.29266 0.92728 0.03546 0.0
C1281 C 0.30318 0.94295 0.04182 0.0
H1282 H 0.33103 0.92422 0.08064 0.0
H1283 H 0.28832 0.89886 0.04059 0.0
C1284 C 0.29592 0.8195 0.06953 0.0
N1285 N 0.29914 0.8351 0.05902 0.0
C1286 C 0.28744 0.80441 0.05977 0.0
C1287 C 0.2845 0.82201 0.02885 0.0
C1288 C 0.29321 0.8367 0.03918 0.0
C1289 C 0.2818 0.80546 0.03905 0.0
H1290 H 0.30029 0.81865 0.08545 0.0
H1291 H 0.29514 0.84941 0.03135 0.0
O1292 O 0.33809 0.88973 0.09611 0.0
O1293 O 0.33104 0.84815 0.09627 0.0
O1294 O 0.29383 0.87242 0.08667 0.0
O1295 O 0.3318 0.87053 0.05631 0.0
H1296 H 0.37311 0.88444 0.11686 0.0
H1297 H 0.31511 0.91389 0.11573 0.0
H1298 H 0.38188 0.89929 0.14971 0.0
H1299 H 0.32483 0.92814 0.14867 0.0
H1300 H 0.3599 0.79852 0.06659 0.0
H1301 H 0.33936 0.8298 0.13002 0.0
H1302 H 0.3427 0.82843 0.06444 0.0
H1303 H 0.35641 0.79975 0.13107 0.0
H1304 H 0.33961 0.86241 0.17705 0.0
H1305 H 0.27668 0.8828 0.16986 0.0
H1306 H 0.41653 0.8856 0.05561 0.0
H1307 H 0.41791 0.8429 0.10061 0.0
H1308 H 0.2665 0.86346 0.05807 0.0
H1309 H 0.2821 0.90338 0.10334 0.0
H1310 H 0.2355 0.88173 0.04848 0.0
H1311 H 0.25084 0.92096 0.09297 0.0
H1312 H 0.31334 0.88186 0.02241 0.0
H1313 H 0.36258 0.84818 0.04597 0.0
H1314 H 0.32317 0.87256 0.98739 0.0
H1315 H 0.37135 0.83928 0.0106 0.0
H1316 H 0.32547 0.9535 0.0638 0.0
H1317 H 0.28191 0.92761 0.02268 0.0
H1318 H 0.28577 0.79197 0.0683 0.0
H1319 H 0.27983 0.82367 0.01307 0.0
Li1320 Li 0.65225 0.13897 0.58306 0.0
Li1321 Li 0.68143 0.13461 0.60692 0.0
Li1322 Li 0.68724 0.151 0.57386 0.0
Li1323 Li 0.68255 0.11806 0.57478 0.0
C1324 C 0.65815 0.17368 0.59843 0.0
N1325 N 0.63614 0.20574 0.60034 0.0
C1326 C 0.65463 0.18203 0.61726 0.0
C1327 C 0.65058 0.18168 0.58058 0.0
C1328 C 0.64343 0.19822 0.61791 0.0
C1329 C 0.63947 0.19788 0.58185 0.0
C1330 C 0.65621 0.10608 0.61325 0.0
C1331 C 0.66364 0.08132 0.63604 0.0
N1332 N 0.64655 0.08574 0.64734 0.0
C1333 C 0.63856 0.11023 0.62492 0.0
C1334 C 0.66873 0.09139 0.6187 0.0
C1335 C 0.634 0.09984 0.64217 0.0
C1336 C 0.61254 0.13398 0.56536 0.0
N1337 N 0.62281 0.14188 0.58117 0.0
C1338 C 0.59062 0.15236 0.59534 0.0
C1339 C 0.61234 0.15088 0.59608 0.0
C1340 C 0.57946 0.14418 0.57932 0.0
C1341 C 0.59076 0.13495 0.56413 0.0
H1342 H 0.62126 0.12662 0.55392 0.0
H1343 H 0.6208 0.15664 0.60877 0.0
C1344 C 0.70517 0.12849 0.64374 0.0
N1345 N 0.68669 0.13397 0.63555 0.0
C1346 C 0.7076 0.12757 0.66495 0.0
C1347 C 0.67211 0.13822 0.66877 0.0
C1348 C 0.67041 0.13902 0.64757 0.0
C1349 C 0.69083 0.13229 0.67775 0.0
H1350 H 0.71797 0.12474 0.63386 0.0
H1351 H 0.65597 0.14348 0.64064 0.0
C1352 C 0.66742 0.14005 0.53686 0.0
N1353 N 0.66611 0.14807 0.49566 0.0
C1354 C 0.68162 0.13202 0.52343 0.0
C1355 C 0.65227 0.15188 0.52926 0.0
C1356 C 0.6808 0.13633 0.50268 0.0
C1357 C 0.65194 0.15584 0.5084 0.0
C1358 C 0.72352 0.1232 0.58529 0.0
C1359 C 0.73916 0.12953 0.57221 0.0
C1360 C 0.72653 0.10707 0.59597 0.0
C1361 C 0.75748 0.11947 0.56984 0.0
C1362 C 0.74505 0.09739 0.59317 0.0
N1363 N 0.76001 0.10373 0.58027 0.0
C1364 C 0.70107 0.18732 0.56916 0.0
C1365 C 0.71155 0.16764 0.54257 0.0
C1366 C 0.7101 0.20202 0.55915 0.0
N1367 N 0.70142 0.17061 0.56053 0.0
C1368 C 0.72107 0.18192 0.53216 0.0
C1369 C 0.7201 0.19943 0.54031 0.0
H1370 H 0.69376 0.18931 0.58384 0.0
H1371 H 0.71234 0.15418 0.53634 0.0
C1372 C 0.67249 0.08322 0.56274 0.0
N1373 N 0.68825 0.09548 0.56173 0.0
C1374 C 0.6743 0.06654 0.55301 0.0
C1375 C 0.70868 0.07526 0.54138 0.0
C1376 C 0.7061 0.09188 0.55119 0.0
C1377 C 0.69259 0.06232 0.54211 0.0
H1378 H 0.65828 0.08655 0.57085 0.0
H1379 H 0.71822 0.10197 0.55007 0.0
O1380 O 0.66878 0.15767 0.59754 0.0
O1381 O 0.66114 0.1163 0.59654 0.0
O1382 O 0.66787 0.13585 0.55721 0.0
O1383 O 0.70547 0.13286 0.58773 0.0
H1384 H 0.66047 0.17607 0.63123 0.0
H1385 H 0.6534 0.1755 0.56591 0.0
H1386 H 0.64055 0.20481 0.63237 0.0
H1387 H 0.63353 0.20421 0.56815 0.0
H1388 H 0.67326 0.06997 0.6405 0.0
H1389 H 0.62864 0.1215 0.62085 0.0
H1390 H 0.68219 0.08777 0.60961 0.0
H1391 H 0.62051 0.10301 0.65145 0.0
H1392 H 0.58269 0.1598 0.60728 0.0
H1393 H 0.58288 0.12813 0.5517 0.0
H1394 H 0.72229 0.12289 0.67125 0.0
H1395 H 0.65891 0.14233 0.67803 0.0
H1396 H 0.69336 0.12276 0.52901 0.0
H1397 H 0.64076 0.15784 0.53929 0.0
H1398 H 0.69184 0.13035 0.49216 0.0
H1399 H 0.64036 0.16502 0.50233 0.0
H1400 H 0.73719 0.14207 0.56399 0.0
H1401 H 0.71466 0.10204 0.60623 0.0
H1402 H 0.76968 0.12418 0.55972 0.0
H1403 H 0.74753 0.08483 0.60127 0.0
H1404 H 0.70944 0.21526 0.56615 0.0
H1405 H 0.72876 0.17935 0.51772 0.0
H1406 H 0.66124 0.05725 0.55365 0.0
H1407 H 0.72313 0.07263 0.53331 0.0
H1408 H 0.05349 0.35144 0.10774 0.0
H1409 H 0.05362 0.36499 0.04351 0.0
H1410 H 0.01553 0.3517 0.10771 0.0
H1411 H 0.0157 0.36385 0.04314 0.0
H1412 H 0.94841 0.3813 0.05432 0.0
H1413 H 0.98646 0.3804 0.05393 0.0
H1414 H 0.98541 0.33615 0.09706 0.0
H1415 H 0.94731 0.33764 0.09796 0.0
C1416 C 0.04547 0.35441 0.09357 0.0
C1417 C 0.05674 0.35831 0.07566 0.0
C1418 C 0.02362 0.35427 0.09348 0.0
C1419 C 0.01243 0.35781 0.07542 0.0
C1420 C 0.02372 0.36135 0.05742 0.0
C1421 C 0.04555 0.36171 0.05757 0.0
C1422 C 0.95636 0.37132 0.0636 0.0
C1423 C 0.94495 0.35956 0.07618 0.0
C1424 C 0.97819 0.37073 0.06333 0.0
C1425 C 0.98913 0.35818 0.07545 0.0
C1426 C 0.9776 0.34622 0.08781 0.0
C1427 C 0.95577 0.34699 0.08828 0.0
H1428 H 0.94331 0.63064 0.54454 0.0
H1429 H 0.94259 0.65669 0.60354 0.0
H1430 H 0.98152 0.63081 0.54492 0.0
H1431 H 0.98073 0.65721 0.60372 0.0
H1432 H 0.04713 0.63354 0.60747 0.0
H1433 H 0.00912 0.63459 0.6064 0.0
H1434 H 0.0115 0.65234 0.54363 0.0
H1435 H 0.04965 0.65161 0.54474 0.0
C1436 C 0.95132 0.63643 0.55755 0.0
C1437 C 0.93995 0.64362 0.57402 0.0
C1438 C 0.97318 0.63668 0.55768 0.0
C1439 C 0.98412 0.64399 0.57437 0.0
C1440 C 0.97274 0.65133 0.59073 0.0
C1441 C 0.9509 0.6512 0.59054 0.0
C1442 C 0.03961 0.63793 0.5935 0.0
C1443 C 0.0515 0.64258 0.57622 0.0
C1444 C 0.0178 0.63848 0.59289 0.0
C1445 C 0.00732 0.64359 0.57495 0.0
C1446 C 0.01914 0.64816 0.55761 0.0
C1447 C 0.04099 0.64771 0.55825 0.0
H1448 H 0.94847 0.64297 0.95934 0.0
H1449 H 0.9484 0.64478 0.89336 0.0
H1450 H 0.98655 0.64243 0.95923 0.0
H1451 H 0.98634 0.64536 0.89331 0.0
H1452 H 0.0533 0.62566 0.89895 0.0
H1453 H 0.01525 0.62603 0.89955 0.0
H1454 H 0.01663 0.66073 0.95262 0.0
H1455 H 0.05478 0.65997 0.95222 0.0
C1456 C 0.95655 0.6433 0.94481 0.0
C1457 C 0.94531 0.64391 0.92637 0.0
C1458 C 0.97841 0.64323 0.94476 0.0
C1459 C 0.98956 0.64384 0.92626 0.0
C1460 C 0.9783 0.64462 0.90784 0.0
C1461 C 0.95648 0.64457 0.90789 0.0
C1462 C 0.04545 0.63346 0.91065 0.0
C1463 C 0.057 0.64283 0.9255 0.0
C1464 C 0.02363 0.63372 0.91099 0.0
C1465 C 0.01282 0.64348 0.92609 0.0
C1466 C 0.02442 0.65286 0.94095 0.0
C1467 C 0.04627 0.65248 0.9407 0.0
H1468 H 0.0531 0.39297 0.42963 0.0
H1469 H 0.05404 0.33476 0.42685 0.0
H1470 H 0.01502 0.39258 0.42977 0.0
H1471 H 0.01592 0.33419 0.42784 0.0
H1472 H 0.94834 0.34001 0.40746 0.0
H1473 H 0.98629 0.34036 0.40785 0.0
H1474 H 0.98529 0.38583 0.44924 0.0
H1475 H 0.94741 0.38639 0.44756 0.0
C1476 C 0.0451 0.38008 0.42938 0.0
C1477 C 0.05647 0.3639 0.42821 0.0
C1478 C 0.02326 0.37982 0.42954 0.0
C1479 C 0.01228 0.36335 0.42882 0.0
C1480 C 0.02377 0.34715 0.428 0.0
C1481 C 0.04561 0.34744 0.42755 0.0
C1482 C 0.95618 0.35026 0.41642 0.0
C1483 C 0.94468 0.36322 0.4274 0.0
C1484 C 0.97802 0.35027 0.41692 0.0
C1485 C 0.98898 0.36311 0.4286 0.0
C1486 C 0.97747 0.37589 0.43982 0.0
C1487 C 0.95564 0.37602 0.43912 0.0
H1488 H 0.44669 0.89301 0.07914 0.0
H1489 H 0.44614 0.83484 0.07499 0.0
H1490 H 0.48477 0.89281 0.07926 0.0
H1491 H 0.48427 0.83456 0.07445 0.0
H1492 H 0.55165 0.83912 0.09625 0.0
H1493 H 0.51366 0.83935 0.09575 0.0
H1494 H 0.51457 0.88769 0.05875 0.0
H1495 H 0.55249 0.88818 0.06046 0.0
C1496 C 0.45476 0.88019 0.07795 0.0
C1497 C 0.44348 0.86394 0.07707 0.0
C1498 C 0.4766 0.88006 0.07796 0.0
C1499 C 0.48768 0.86366 0.07686 0.0
C1500 C 0.47631 0.84742 0.0757 0.0
C1501 C 0.45446 0.84756 0.07592 0.0
C1502 C 0.54377 0.84995 0.08823 0.0
C1503 C 0.55523 0.86367 0.07846 0.0
C1504 C 0.52193 0.84992 0.08768 0.0
C1505 C 0.51096 0.86353 0.07718 0.0
C1506 C 0.52243 0.87713 0.06722 0.0
C1507 C 0.54426 0.87725 0.06794 0.0
H1508 H 0.55374 0.14714 0.54584 0.0
H1509 H 0.55228 0.14254 0.61167 0.0
H1510 H 0.51558 0.14743 0.54517 0.0
H1511 H 0.51425 0.14347 0.61091 0.0
H1512 H 0.4474 0.16525 0.60137 0.0
H1513 H 0.48552 0.16573 0.60135 0.0
H1514 H 0.48629 0.12528 0.55392 0.0
H1515 H 0.44822 0.12426 0.55433 0.0
C1516 C 0.54535 0.14613 0.56015 0.0
C1517 C 0.55618 0.14484 0.57881 0.0
C1518 C 0.5235 0.14637 0.55975 0.0
C1519 C 0.51199 0.14553 0.57799 0.0
C1520 C 0.52274 0.1444 0.59663 0.0
C1521 C 0.54456 0.14394 0.59704 0.0
C1522 C 0.45564 0.1563 0.59107 0.0
C1523 C 0.44464 0.14467 0.5779 0.0
C1524 C 0.47748 0.15665 0.59102 0.0
C1525 C 0.48883 0.14555 0.57763 0.0
C1526 C 0.47792 0.13415 0.56422 0.0
C1527 C 0.45608 0.13363 0.56443 0.0
H1528 H 0.55443 0.1524 0.95669 0.0
H1529 H 0.55494 0.12829 0.89666 0.0
H1530 H 0.51615 0.15176 0.95667 0.0
H1531 H 0.51673 0.12769 0.89663 0.0
H1532 H 0.45032 0.11016 0.91622 0.0
H1533 H 0.48852 0.11115 0.91672 0.0
H1534 H 0.48636 0.16669 0.93667 0.0
H1535 H 0.4481 0.16569 0.93623 0.0
C1536 C 0.54634 0.14696 0.94352 0.0
C1537 C 0.55762 0.14041 0.92667 0.0
C1538 C 0.52448 0.1467 0.94346 0.0
C1539 C 0.51352 0.13964 0.92666 0.0
C1540 C 0.52481 0.13307 0.90983 0.0
C1541 C 0.54663 0.13356 0.90978 0.0
C1542 C 0.45802 0.12253 0.92084 0.0
C1543 C 0.44628 0.13784 0.92619 0.0
C1544 C 0.47985 0.12314 0.92097 0.0
C1545 C 0.49036 0.13901 0.9267 0.0
C1546 C 0.47863 0.15426 0.9323 0.0
C1547 C 0.45679 0.15373 0.93191 0.0
H1548 H 0.44495 0.84919 0.4568 0.0
H1549 H 0.44592 0.87 0.39521 0.0
H1550 H 0.48309 0.84891 0.45728 0.0
H1551 H 0.48398 0.8701 0.39576 0.0
H1552 H 0.55162 0.85231 0.39571 0.0
H1553 H 0.51366 0.85068 0.39562 0.0
H1554 H 0.51246 0.86886 0.45832 0.0
H1555 H 0.5505 0.86946 0.45878 0.0
C1556 C 0.45334 0.85382 0.44342 0.0
C1557 C 0.44245 0.85958 0.42596 0.0
C1558 C 0.47519 0.85371 0.44369 0.0
C1559 C 0.48666 0.85949 0.42656 0.0
C1560 C 0.47571 0.86523 0.4091 0.0
C1561 C 0.45387 0.86522 0.40878 0.0
C1562 C 0.54331 0.85567 0.4096 0.0
C1563 C 0.55419 0.86099 0.42727 0.0
C1564 C 0.52148 0.85499 0.40945 0.0
C1565 C 0.50994 0.85972 0.42693 0.0
C1566 C 0.52082 0.86493 0.44464 0.0
C1567 C 0.54266 0.86551 0.44483 0.0
H1568 H 0.16963 0.39376 0.19716 0.0
H1569 H 0.21855 0.35354 0.19601 0.0
H1570 H 0.17059 0.39381 0.23432 0.0
H1571 H 0.21963 0.35376 0.23334 0.0
H1572 H 0.22658 0.37289 0.30097 0.0
H1573 H 0.22805 0.37323 0.26361 0.0
H1574 H 0.16061 0.37204 0.26114 0.0
H1575 H 0.1591 0.37144 0.2982 0.0
C1576 C 0.18057 0.38489 0.20483 0.0
C1577 C 0.19384 0.37349 0.19358 0.0
C1578 C 0.18113 0.38494 0.22613 0.0
C1579 C 0.19502 0.37364 0.23677 0.0
C1580 C 0.20884 0.3627 0.22557 0.0
C1581 C 0.20823 0.3626 0.20419 0.0
C1582 C 0.21209 0.37252 0.29243 0.0
C1583 C 0.19272 0.37235 0.30262 0.0
C1584 C 0.21294 0.37275 0.27105 0.0
C1585 C 0.19444 0.37289 0.25944 0.0
C1586 C 0.17514 0.37236 0.26964 0.0
C1587 C 0.17428 0.37205 0.29092 0.0
H1588 H 0.80254 0.606 0.69977 0.0
H1589 H 0.80237 0.66428 0.6995 0.0
H1590 H 0.80163 0.6061 0.73707 0.0
H1591 H 0.80088 0.66448 0.73667 0.0
H1592 H 0.82621 0.65865 0.80115 0.0
H1593 H 0.82375 0.65833 0.7642 0.0
H1594 H 0.78174 0.61269 0.76727 0.0
H1595 H 0.78518 0.61237 0.8044 0.0
C1596 C 0.80193 0.61882 0.70771 0.0
C1597 C 0.80273 0.63513 0.69677 0.0
C1598 C 0.80136 0.6189 0.72908 0.0
C1599 C 0.80139 0.63531 0.73994 0.0
C1600 C 0.80135 0.6516 0.72887 0.0
C1601 C 0.80213 0.6515 0.70756 0.0
C1602 C 0.81659 0.64842 0.79399 0.0
C1603 C 0.80605 0.63543 0.8058 0.0
C1604 C 0.81492 0.6484 0.77274 0.0
C1605 C 0.80248 0.63552 0.76267 0.0
C1606 C 0.79163 0.6227 0.77448 0.0
C1607 C 0.7934 0.62265 0.7958 0.0
H1608 H 0.16025 0.62238 0.80303 0.0
H1609 H 0.22672 0.63259 0.80454 0.0
H1610 H 0.16132 0.62099 0.76603 0.0
H1611 H 0.22799 0.63034 0.7673 0.0
H1612 H 0.21484 0.64801 0.70008 0.0
H1613 H 0.21706 0.6471 0.73734 0.0
H1614 H 0.17306 0.6028 0.73833 0.0
H1615 H 0.17055 0.60404 0.70124 0.0
C1616 C 0.17514 0.62428 0.79545 0.0
C1617 C 0.19336 0.62779 0.80677 0.0
C1618 C 0.17581 0.62322 0.77419 0.0
C1619 C 0.19476 0.6255 0.76362 0.0
C1620 C 0.2131 0.6287 0.77493 0.0
C1621 C 0.21241 0.62979 0.79629 0.0
C1622 C 0.20589 0.63794 0.70829 0.0
C1623 C 0.19234 0.62624 0.69779 0.0
C1624 C 0.20718 0.63737 0.72964 0.0
C1625 C 0.19505 0.62501 0.74088 0.0
C1626 C 0.18224 0.61279 0.73022 0.0
C1627 C 0.18084 0.61345 0.70896 0.0
H1628 H 0.78297 0.35772 0.19943 0.0
H1629 H 0.83317 0.39674 0.20176 0.0
H1630 H 0.7812 0.35778 0.2367 0.0
H1631 H 0.83161 0.39649 0.23892 0.0
H1632 H 0.84097 0.37187 0.30279 0.0
H1633 H 0.8403 0.3738 0.26564 0.0
H1634 H 0.77295 0.37769 0.26695 0.0
H1635 H 0.77362 0.37552 0.30431 0.0
C1636 C 0.79342 0.3665 0.20784 0.0
C1637 C 0.80836 0.37709 0.19756 0.0
C1638 C 0.79242 0.3665 0.2292 0.0
C1639 C 0.8064 0.37701 0.24073 0.0
C1640 C 0.82088 0.388 0.23045 0.0
C1641 C 0.8218 0.38809 0.20915 0.0
C1642 C 0.82601 0.37303 0.29515 0.0
C1643 C 0.80734 0.37345 0.30644 0.0
C1644 C 0.82563 0.37433 0.27389 0.0
C1645 C 0.80657 0.37595 0.26338 0.0
C1646 C 0.78786 0.37635 0.27464 0.0
C1647 C 0.78825 0.37524 0.29599 0.0
H1648 H 0.68054 0.84407 0.30294 0.0
H1649 H 0.70965 0.89669 0.30519 0.0
H1650 H 0.68315 0.8442 0.2659 0.0
H1651 H 0.71312 0.89646 0.26808 0.0
H1652 H 0.69031 0.89861 0.20096 0.0
H1653 H 0.69105 0.89882 0.23819 0.0
H1654 H 0.70778 0.84228 0.23827 0.0
H1655 H 0.70681 0.84206 0.20104 0.0
C1656 C 0.68757 0.85565 0.29554 0.0
C1657 C 0.69475 0.87042 0.30706 0.0
C1658 C 0.68933 0.85562 0.27428 0.0
C1659 C 0.69837 0.87034 0.26397 0.0
C1660 C 0.70588 0.88499 0.27551 0.0
C1661 C 0.7041 0.88503 0.29681 0.0
C1662 C 0.69447 0.8863 0.20893 0.0
C1663 C 0.6984 0.87029 0.19806 0.0
C1664 C 0.6949 0.88642 0.23028 0.0
C1665 C 0.69935 0.87054 0.24126 0.0
C1666 C 0.7039 0.85467 0.23033 0.0
C1667 C 0.70338 0.85454 0.20899 0.0
H1668 H 0.31738 0.10333 0.79997 0.0
H1669 H 0.28609 0.1549 0.80368 0.0
H1670 H 0.31481 0.10423 0.76285 0.0
H1671 H 0.28292 0.15554 0.76652 0.0
H1672 H 0.3091 0.16098 0.70081 0.0
H1673 H 0.30697 0.15947 0.73791 0.0
H1674 H 0.29048 0.103 0.73412 0.0
H1675 H 0.29326 0.10438 0.69694 0.0
C1676 C 0.30981 0.1148 0.79286 0.0
C1677 C 0.30209 0.12912 0.80478 0.0
C1678 C 0.30812 0.11522 0.77158 0.0
C1679 C 0.29872 0.12999 0.7617 0.0
C1680 C 0.29046 0.14406 0.77365 0.0
C1681 C 0.29208 0.14361 0.79496 0.0
C1682 C 0.30502 0.14824 0.70789 0.0
C1683 C 0.3015 0.13277 0.69592 0.0
C1684 C 0.30356 0.14742 0.72916 0.0
C1685 C 0.29859 0.1311 0.739 0.0
C1686 C 0.29454 0.11573 0.72701 0.0
C1687 C 0.29593 0.11657 0.7057 0.0
H1688 H 0.66313 0.14241 0.80591 0.0
H1689 H 0.72732 0.1243 0.80677 0.0
H1690 H 0.66312 0.14123 0.76883 0.0
H1691 H 0.72706 0.12248 0.76946 0.0
H1692 H 0.72381 0.14248 0.70194 0.0
H1693 H 0.72559 0.14223 0.73924 0.0
H1694 H 0.6637 0.11897 0.74175 0.0
H1695 H 0.66191 0.11929 0.70462 0.0
C1696 C 0.67729 0.13824 0.79817 0.0
C1697 C 0.69528 0.13357 0.80932 0.0
C1698 C 0.67719 0.13733 0.7769 0.0
C1699 C 0.69505 0.13167 0.76616 0.0
C1700 C 0.71309 0.12701 0.77727 0.0
C1701 C 0.71318 0.1279 0.79863 0.0
C1702 C 0.71071 0.13711 0.71048 0.0
C1703 C 0.69263 0.1311 0.70034 0.0
C1704 C 0.71172 0.13696 0.73184 0.0
C1705 C 0.69469 0.13076 0.74348 0.0
C1706 C 0.6769 0.12421 0.73327 0.0
C1707 C 0.67588 0.12439 0.71198 0.0
H1708 H 0.33698 0.88559 0.20341 0.0
H1709 H 0.27466 0.86328 0.20078 0.0
H1710 H 0.33531 0.88581 0.24054 0.0
H1711 H 0.27297 0.86346 0.2381 0.0
H1712 H 0.27217 0.881 0.30593 0.0
H1713 H 0.27216 0.88314 0.26861 0.0
H1714 H 0.33556 0.86309 0.26729 0.0
H1715 H 0.3358 0.86152 0.30435 0.0
C1716 C 0.32293 0.88067 0.21078 0.0
C1717 C 0.30606 0.8742 0.19914 0.0
C1718 C 0.32197 0.8808 0.23207 0.0
C1719 C 0.30411 0.87445 0.2423 0.0
C1720 C 0.28691 0.86856 0.23068 0.0
C1721 C 0.28787 0.86844 0.20931 0.0
C1722 C 0.28613 0.87718 0.29763 0.0
C1723 C 0.30395 0.87102 0.30811 0.0
C1724 C 0.28606 0.87825 0.27627 0.0
C1725 C 0.30388 0.87333 0.26498 0.0
C1726 C 0.32166 0.8672 0.27551 0.0
C1727 C 0.32171 0.86608 0.29677 0.0
H1728 H 0.24419 0.20988 0.9571 0.0
H1729 H 0.30352 0.2233 0.98483 0.0
H1730 H 0.22851 0.23637 0.97285 0.0
H1731 H 0.28751 0.24899 1.0017 0.0
H1732 H 0.25831 0.30306 0.01557 0.0
H1733 H 0.27378 0.27816 0.99669 0.0
H1734 H 0.21719 0.24708 0.00489 0.0
H1735 H 0.20122 0.27243 0.02246 0.0
C1736 C 0.25394 0.21847 0.96651 0.0
C1737 C 0.27515 0.21434 0.96971 0.0
C1738 C 0.24484 0.23356 0.97581 0.0
C1739 C 0.25667 0.24483 0.98869 0.0
C1740 C 0.27792 0.24079 0.99171 0.0
C1741 C 0.28706 0.22583 0.98226 0.0
C1742 C 0.24901 0.29105 0.01306 0.0
C1743 C 0.22849 0.28982 0.02064 0.0
C1744 C 0.25802 0.27662 0.00245 0.0
C1745 C 0.24682 0.2605 0.9993 0.0
C1746 C 0.22625 0.25932 0.00676 0.0
C1747 C 0.21718 0.27381 0.01718 0.0
H1748 H 0.77541 0.73271 0.54914 0.0
H1749 H 0.75973 0.6983 0.49814 0.0
H1750 H 0.76046 0.75856 0.53125 0.0
H1751 H 0.74523 0.72428 0.48001 0.0
H1752 H 0.69995 0.77105 0.46523 0.0
H1753 H 0.71511 0.74501 0.48265 0.0
H1754 H 0.76779 0.77762 0.50119 0.0
H1755 H 0.75236 0.80378 0.48421 0.0
C1756 C 0.76871 0.73066 0.53413 0.0
C1757 C 0.76869 0.71345 0.52508 0.0
C1758 C 0.76036 0.74551 0.52379 0.0
C1759 C 0.7517 0.74348 0.50419 0.0
C1760 C 0.75164 0.72626 0.49515 0.0
C1761 C 0.76011 0.71142 0.50545 0.0
C1762 C 0.71471 0.77268 0.47312 0.0
C1763 C 0.72492 0.78949 0.47341 0.0
C1764 C 0.7235 0.75772 0.48292 0.0
C1765 C 0.74263 0.75926 0.49332 0.0
C1766 C 0.75292 0.77604 0.49348 0.0
C1767 C 0.74419 0.79098 0.48358 0.0
H1768 H 0.28937 0.79503 0.99956 0.0
H1769 H 0.25521 0.77932 0.05369 0.0
H1770 H 0.27542 0.76889 0.98153 0.0
H1771 H 0.24172 0.75294 0.03571 0.0
H1772 H 0.23906 0.69816 0.00226 0.0
H1773 H 0.25453 0.72383 0.02034 0.0
H1774 H 0.24063 0.75836 0.96894 0.0
H1775 H 0.22544 0.73271 0.95082 0.0
C1776 C 0.27878 0.78611 0.0076 0.0
C1777 C 0.27338 0.78938 0.0281 0.0
C1778 C 0.27087 0.77107 0.99726 0.0
C1779 C 0.2575 0.75886 0.00721 0.0
C1780 C 0.25223 0.76199 0.02773 0.0
C1781 C 0.26 0.77711 0.03803 0.0
C1782 C 0.23953 0.7112 0.99477 0.0
C1783 C 0.23103 0.71345 0.97515 0.0
C1784 C 0.2482 0.72592 0.00518 0.0
C1785 C 0.24875 0.74311 0.99607 0.0
C1786 C 0.24058 0.74525 0.9763 0.0
C1787 C 0.23174 0.73061 0.96599 0.0
H1788 H 0.75884 0.20165 0.52292 0.0
H1789 H 0.70222 0.23218 0.53268 0.0
H1790 H 0.77412 0.22737 0.50476 0.0
H1791 H 0.71749 0.25787 0.5145 0.0
H1792 H 0.74504 0.29022 0.45958 0.0
H1793 H 0.72948 0.26485 0.47788 0.0
H1794 H 0.7854 0.25959 0.51422 0.0
H1795 H 0.80075 0.28536 0.49661 0.0
C1796 C 0.74966 0.21383 0.5211 0.0
C1797 C 0.72937 0.21495 0.52922 0.0
C1798 C 0.75844 0.22857 0.51085 0.0
C1799 C 0.74697 0.2446 0.50825 0.0
C1800 C 0.72661 0.24564 0.51618 0.0
C1801 C 0.71795 0.23101 0.5267 0.0
C1802 C 0.75395 0.28388 0.47167 0.0
C1803 C 0.77423 0.28989 0.47653 0.0
C1804 C 0.74504 0.26928 0.48208 0.0
C1805 C 0.75629 0.26022 0.49738 0.0
C1806 C 0.77651 0.26618 0.50228 0.0
C1807 C 0.78531 0.28091 0.49209 0.0
H1808 H 0.75525 0.79097 0.0447 0.0
H1809 H 0.69979 0.78531 0.00738 0.0
H1810 H 0.77117 0.76558 0.02679 0.0
H1811 H 0.71545 0.75936 0.9904 0.0
H1812 H 0.74335 0.70093 0.98492 0.0
H1813 H 0.72771 0.72693 0.00234 0.0
H1814 H 0.78253 0.75871 0.98873 0.0
H1815 H 0.79804 0.7328 0.97105 0.0
C1816 C 0.74646 0.78447 0.03264 0.0
C1817 C 0.72614 0.79029 0.02759 0.0
C1818 C 0.75557 0.76984 0.02249 0.0
C1819 C 0.74447 0.76049 0.00732 0.0
C1820 C 0.72422 0.76621 0.00224 0.0
C1821 C 0.71524 0.78104 0.0121 0.0
C1822 C 0.75203 0.71347 0.98571 0.0
C1823 C 0.77186 0.71491 0.97665 0.0
C1824 C 0.74306 0.72833 0.99554 0.0
C1825 C 0.75394 0.74478 0.99684 0.0
C1826 C 0.77388 0.74615 0.98801 0.0
C1827 C 0.78268 0.73139 0.97782 0.0
H1828 H 0.2625 0.19754 0.49885 0.0
H1829 H 0.27699 0.23315 0.54908 0.0
H1830 H 0.24757 0.22291 0.47995 0.0
H1831 H 0.26173 0.25839 0.53051 0.0
H1832 H 0.2544 0.30321 0.48409 0.0
H1833 H 0.26895 0.27728 0.50199 0.0
H1834 H 0.21895 0.2438 0.47877 0.0
H1835 H 0.20467 0.26977 0.4605 0.0
C1836 C 0.26223 0.21075 0.50594 0.0
C1837 C 0.27102 0.21338 0.52538 0.0
C1838 C 0.25367 0.22529 0.49514 0.0
C1839 C 0.25359 0.24277 0.50361 0.0
C1840 C 0.26196 0.24524 0.52328 0.0
C1841 C 0.27063 0.23076 0.53398 0.0
C1842 C 0.2465 0.29032 0.48285 0.0
C1843 C 0.22835 0.28855 0.47095 0.0
C1844 C 0.25479 0.27544 0.49318 0.0
C1845 C 0.24504 0.25843 0.492 0.0
C1846 C 0.22702 0.25662 0.47985 0.0
C1847 C 0.21881 0.27151 0.46939 0.0
H1848 H 0.76538 0.27643 0.0576 0.0
H1849 H 0.77773 0.30082 0.99887 0.0
H1850 H 0.75071 0.25005 0.04065 0.0
H1851 H 0.7621 0.27483 0.98195 0.0
H1852 H 0.75305 0.21776 0.9576 0.0
H1853 H 0.76872 0.24349 0.975 0.0
H1854 H 0.72075 0.24073 0.02135 0.0
H1855 H 0.70573 0.21445 0.00453 0.0
C1856 C 0.76497 0.27618 0.04107 0.0
C1857 C 0.77279 0.29076 0.02961 0.0
C1858 C 0.75631 0.26113 0.03134 0.0
C1859 C 0.7552 0.26029 0.00991 0.0
C1860 C 0.76293 0.27491 0.99846 0.0
C1861 C 0.77164 0.28994 0.00819 0.0
C1862 C 0.74601 0.22248 0.97165 0.0
C1863 C 0.72811 0.21401 0.97964 0.0
C1864 C 0.75483 0.2374 0.9815 0.0
C1865 C 0.74596 0.24426 0.99955 0.0
C1866 C 0.72814 0.23572 0.0076 0.0
C1867 C 0.71935 0.22077 0.99779 0.0
H1868 H 0.25404 0.70154 0.52462 0.0
H1869 H 0.19546 0.7302 0.52917 0.0
H1870 H 0.26972 0.72762 0.50747 0.0
H1871 H 0.21114 0.75626 0.51198 0.0
H1872 H 0.24223 0.78901 0.45904 0.0
H1873 H 0.22607 0.76343 0.47643 0.0
H1874 H 0.27875 0.76023 0.51742 0.0
H1875 H 0.29463 0.78622 0.50068 0.0
C1876 C 0.24452 0.71339 0.52185 0.0
C1877 C 0.22355 0.71388 0.52823 0.0
C1878 C 0.25351 0.72833 0.51219 0.0
C1879 C 0.24164 0.74395 0.50843 0.0
C1880 C 0.22061 0.74436 0.51459 0.0
C1881 C 0.2117 0.72952 0.52454 0.0
C1882 C 0.25026 0.78309 0.47197 0.0
C1883 C 0.26982 0.78974 0.47837 0.0
C1884 C 0.24102 0.76837 0.48185 0.0
C1885 C 0.25122 0.7598 0.49819 0.0
C1886 C 0.27068 0.76642 0.50466 0.0
C1887 C 0.27981 0.78128 0.49498 0.0
H1888 H 0.16329 0.54638 0.98992 0.0
H1889 H 0.22777 0.54031 0.97154 0.0
H1890 H 0.16498 0.51784 0.00799 0.0
H1891 H 0.22979 0.51198 0.99062 0.0
H1892 H 0.21535 0.45165 0.00541 0.0
H1893 H 0.21707 0.48124 0.98895 0.0
H1894 H 0.17945 0.50382 0.03745 0.0
H1895 H 0.17739 0.47422 0.05354 0.0
C1896 C 0.17788 0.53896 0.98976 0.0
C1897 C 0.19533 0.54559 0.97908 0.0
C1898 C 0.17895 0.52268 1.00042 0.0
C1899 C 0.19755 0.51258 1.00086 0.0
C1900 C 0.21515 0.51931 0.99045 0.0
C1901 C 0.21407 0.53566 0.9797 0.0
C1902 C 0.2077 0.46302 0.01265 0.0
C1903 C 0.19603 0.46059 0.03062 0.0
C1904 C 0.20871 0.47999 0.00326 0.0
C1905 C 0.1982 0.49491 0.01173 0.0
C1906 C 0.18731 0.49257 0.03021 0.0
C1907 C 0.18617 0.47561 0.03948 0.0
H1908 H 0.80871 0.52641 0.55659 0.0
H1909 H 0.7902 0.55508 0.50204 0.0
H1910 H 0.80741 0.49797 0.53788 0.0
H1911 H 0.78805 0.52659 0.48358 0.0
H1912 H 0.8148 0.47619 0.4518 0.0
H1913 H 0.81244 0.5045 0.47052 0.0
H1914 H 0.78416 0.47648 0.52138 0.0
H1915 H 0.78727 0.44796 0.50289 0.0
C1916 C 0.80422 0.52664 0.54064 0.0
C1917 C 0.79969 0.54306 0.5308 0.0
C1918 C 0.80323 0.5103 0.52998 0.0
C1919 C 0.79768 0.50999 0.5092 0.0
C1920 C 0.79262 0.52636 0.4995 0.0
C1921 C 0.79362 0.54269 0.51016 0.0
C1922 C 0.80813 0.47605 0.467 0.0
C1923 C 0.80137 0.45978 0.4759 0.0
C1924 C 0.80654 0.49233 0.47765 0.0
C1925 C 0.79814 0.49278 0.49748 0.0
C1926 C 0.79093 0.47657 0.50622 0.0
C1927 C 0.79249 0.46026 0.49554 0.0
H1928 H 0.7896 0.47413 0.05038 0.0
H1929 H 0.82519 0.4522 1.00009 0.0
H1930 H 0.78588 0.50256 0.03194 0.0
H1931 H 0.82252 0.48084 0.98224 0.0
H1932 H 0.80006 0.52888 0.94646 0.0
H1933 H 0.79906 0.50008 0.9645 0.0
H1934 H 0.80628 0.52813 0.02196 0.0
H1935 H 0.80676 0.55691 0.00388 0.0
C1936 C 0.79657 0.47532 0.03537 0.0
C1937 C 0.80778 0.46085 0.02679 0.0
C1938 C 0.79466 0.49172 0.02489 0.0
C1939 C 0.80394 0.49406 0.00559 0.0
C1940 C 0.81492 0.4795 0.99693 0.0
C1941 C 0.81673 0.46312 0.00734 0.0
C1942 C 0.80133 0.52886 0.96295 0.0
C1943 C 0.80356 0.54514 0.97374 0.0
C1944 C 0.80084 0.51236 0.97331 0.0
C1945 C 0.80277 0.51172 0.99471 0.0
C1946 C 0.80447 0.52808 0.00552 0.0
C1947 C 0.80478 0.5446 0.99516 0.0
H1948 H 0.21123 0.4738 0.45096 0.0
H1949 H 0.17799 0.45017 0.50187 0.0
H1950 H 0.21409 0.50209 0.46959 0.0
H1951 H 0.17935 0.47879 0.51972 0.0
H1952 H 0.19834 0.52755 0.5556 0.0
H1953 H 0.20066 0.49887 0.53749 0.0
H1954 H 0.19426 0.52707 0.47996 0.0
H1955 H 0.19294 0.55576 0.4982 0.0
C1956 C 0.20457 0.47457 0.46613 0.0
C1957 C 0.19432 0.4596 0.47482 0.0
C1958 C 0.20593 0.49095 0.47672 0.0
C1959 C 0.1969 0.49287 0.4962 0.0
C1960 C 0.1868 0.47784 0.50492 0.0
C1961 C 0.18568 0.46144 0.49447 0.0
C1962 C 0.19763 0.52756 0.53907 0.0
C1963 C 0.19543 0.54383 0.52829 0.0
C1964 C 0.1988 0.51112 0.52865 0.0
C1965 C 0.19741 0.51052 0.5072 0.0
C1966 C 0.19569 0.52693 0.49643 0.0
C1967 C 0.19486 0.5434 0.50686 0.0
H1968 H 0.68864 0.02722 0.95168 0.0
H1969 H 0.71279 0.05532 0.00443 0.0
H1970 H 0.6907 0.99869 0.97017 0.0
H1971 H 0.71534 0.02668 0.0228 0.0
H1972 H 0.68747 0.9765 0.05569 0.0
H1973 H 0.69011 0.00501 0.03722 0.0
H1974 H 0.71548 0.97686 0.98505 0.0
H1975 H 0.71234 0.94824 0.00338 0.0
C1976 C 0.69453 0.02728 0.96719 0.0
C1977 C 0.70042 0.04354 0.97664 0.0
C1978 C 0.69592 0.0109 0.97771 0.0
C1979 C 0.70314 0.01042 0.99798 0.0
C1980 C 0.70953 0.02663 0.00727 0.0
C1981 C 0.70826 0.04301 0.99668 0.0
C1982 C 0.69363 0.9764 0.04028 0.0
C1983 C 0.69956 0.9601 0.03094 0.0
C1984 C 0.69536 0.99276 0.02978 0.0
C1985 C 0.70296 0.9932 0.00965 0.0
C1986 C 0.70938 0.97695 1.00048 0.0
C1987 C 0.70777 0.96058 0.01104 0.0
H1988 H 0.3384 0.95799 0.48887 0.0
H1989 H 0.27456 0.96522 0.46894 0.0
H1990 H 0.33739 0.98722 0.50573 0.0
H1991 H 0.27352 0.99459 0.48608 0.0
H1992 H 0.27628 0.03838 0.53782 0.0
H1993 H 0.27493 0.00903 0.52064 0.0
H1994 H 0.33597 0.0189 0.49478 0.0
H1995 H 0.33726 0.0481 0.51169 0.0
C1996 C 0.32416 0.96587 0.48797 0.0
C1997 C 0.30665 0.95934 0.47731 0.0
C1998 C 0.32358 0.98263 0.49767 0.0
C1999 C 0.30545 0.99333 0.49703 0.0
C2000 C 0.28768 0.98662 0.48692 0.0
C2001 C 0.28828 0.9698 0.47713 0.0
C2002 C 0.28928 0.03436 0.52826 0.0
C2003 C 0.307 0.0455 0.52635 0.0
C2004 C 0.28851 0.01755 0.51845 0.0
C2005 C 0.30547 0.01154 0.50658 0.0
C2006 C 0.32286 0.02294 0.5042 0.0
C2007 C 0.3236 0.03969 0.51392 0.0
H2008 H 0.30334 0.94808 1.0005 0.0
H2009 H 0.29799 0.97683 0.0576 0.0
H2010 H 0.30262 0.97664 0.98198 0.0
H2011 H 0.29678 0.00541 0.03913 0.0
H2012 H 0.32301 0.05256 0.00218 0.0
H2013 H 0.32013 0.02424 0.02065 0.0
H2014 H 0.28224 1.00225 0.97199 0.0
H2015 H 0.28614 0.03035 0.95292 0.0
C2016 C 0.3016 0.96051 0.00906 0.0
C2017 C 0.30084 0.96022 0.03051 0.0
C2018 C 0.30115 0.9769 0.99845 0.0
C2019 C 0.29978 0.99339 0.00904 0.0
C2020 C 0.29829 0.99302 0.03048 0.0
C2021 C 0.29891 0.97664 0.04108 0.0
C2022 C 0.31421 0.04165 0.9953 0.0
C2023 C 0.30499 0.04372 0.97594 0.0
C2024 C 0.31228 0.02545 0.00606 0.0
C2025 C 0.30092 0.0109 0.99786 0.0
C2026 C 0.29132 0.01308 0.97868 0.0
C2027 C 0.29334 0.02929 0.96784 0.0
H2028 H 0.67817 0.02911 0.55426 0.0
H2029 H 0.71133 0.05555 0.50511 0.0
H2030 H 0.67906 1.0009 0.53545 0.0
H2031 H 0.71358 0.02697 0.48695 0.0
H2032 H 0.69181 0.97847 0.44931 0.0
H2033 H 0.69263 0.00671 0.46818 0.0
H2034 H 0.70047 0.97707 0.52454 0.0
H2035 H 0.69806 0.94885 0.50589 0.0
C2036 C 0.68576 0.02892 0.53948 0.0
C2037 C 0.69453 0.04473 0.53119 0.0
C2038 C 0.68657 0.01261 0.5288 0.0
C2039 C 0.69641 0.01156 0.50962 0.0
C2040 C 0.7056 0.02728 0.50153 0.0
C2041 C 0.70459 0.04365 0.51212 0.0
C2042 C 0.69349 0.97794 0.46575 0.0
C2043 C 0.69472 0.96128 0.47602 0.0
C2044 C 0.69429 0.9942 0.47658 0.0
C2045 C 0.69656 0.99426 0.49795 0.0
C2046 C 0.69835 0.97761 0.50815 0.0
C2047 C 0.69731 0.96135 0.49736 0.0
loop_
_geom_bond_atom_site_label_1
_geom_bond_atom_site_label_2
_geom_bond_distance
_geom_bond_site_symmetry_2
_ccdc_geom_bond_type
Li0 N17 1.990 . S
Li0 O60 1.956 . S
Li0 O61 1.970 . S
Li0 O62 1.961 . S
Li1 N25 1.990 . S
Li1 O60 1.970 . S
Li1 O61 1.956 . S
Li1 O63 1.961 . S
Li2 N47 1.990 . S
Li2 O60 1.961 . S
Li2 O62 1.956 . S
Li2 O63 1.970 . S
Li3 N53 1.990 . S
Li3 O61 1.961 . S
Li3 O62 1.970 . S
Li3 O63 1.956 . S
C4 C6 1.348 . S
C4 C7 1.356 . S
C4 O60 1.325 . S
N5 C8 1.314 . S
N5 C9 1.279 . S
C6 C4 1.348 . S
C6 C8 1.353 . S
C6 H64 0.929 . S
C7 C4 1.356 . S
C7 C9 1.358 . S
C7 H65 0.930 . S
C8 N5 1.314 . S
C8 C6 1.353 . S
C8 H66 0.930 . S
C9 N5 1.279 . S
C9 C7 1.358 . S
C9 H67 0.930 . S
C10 C13 1.348 . S
C10 C14 1.356 . S
C10 O61 1.325 . S
C11 N12 1.279 . S
C11 C14 1.358 . S
C11 H68 0.930 . S
N12 C11 1.279 . S
N12 C15 1.314 . S
C13 C10 1.348 . S
C13 C15 1.353 . S
C13 H69 0.929 . S
C14 C10 1.356 . S
C14 C11 1.358 . S
C14 H70 0.930 . S
C15 N12 1.314 . S
C15 C13 1.353 . S
C15 H71 0.930 . S
C16 N17 1.314 . S
C16 C21 1.353 . S
C16 H22 0.930 . S
N17 Li0 1.990 . S
N17 C16 1.314 . S
N17 C19 1.279 . S
C18 C19 1.358 . S
C18 C20 1.356 . S
C18 H72 0.930 . S
C19 N17 1.279 . S
C19 C18 1.358 . S
C19 H23 0.930 . S
C20 C18 1.356 . S
C20 C21 1.348 . S
C21 C16 1.353 . S
C21 C20 1.348 . S
C21 H73 0.929 . S
H22 C16 0.930 . S
H23 C19 0.930 . S
C24 N25 1.314 . S
C24 C26 1.353 . S
C24 H30 0.930 . S
N25 Li1 1.990 . S
N25 C24 1.314 . S
N25 C28 1.279 . S
C26 C24 1.353 . S
C26 C29 1.348 . S
C26 H74 0.929 . S
C27 C28 1.358 . S
C27 C29 1.356 . S
C27 H75 0.930 . S
C28 N25 1.279 . S
C28 C27 1.358 . S
C28 H31 0.930 . S
C29 C26 1.348 . S
C29 C27 1.356 . S
H30 C24 0.930 . S
H31 C28 0.930 . S
C32 C34 1.348 . S
C32 C35 1.356 . S
C32 O62 1.325 . S
N33 C36 1.314 . S
N33 C37 1.279 . S
C34 C32 1.348 . S
C34 C36 1.353 . S
C34 H76 0.929 . S
C35 C32 1.356 . S
C35 C37 1.358 . S
C35 H77 0.930 . S
C36 N33 1.314 . S
C36 C34 1.353 . S
C36 H78 0.930 . S
C37 N33 1.279 . S
C37 C35 1.358 . S
C37 H79 0.930 . S
C38 C39 1.348 . S
C38 C40 1.356 . S
C38 O63 1.325 . S
C39 C38 1.348 . S
C39 C41 1.353 . S
C39 H80 0.929 . S
C40 C38 1.356 . S
C40 C42 1.358 . S
C40 H81 0.930 . S
C41 C39 1.353 . S
C41 N43 1.314 1_554 S
C41 H82 0.930 1_554 S
C42 C40 1.358 . S
C42 N43 1.279 1_554 S
C42 H83 0.916 1_554 S
N43 C41 1.314 1_556 S
N43 C42 1.279 1_556 S
C44 C46 1.353 . S
C44 N47 1.314 . S
C44 H50 0.930 . S
C45 N47 1.279 . S
C45 C48 1.358 . S
C45 H51 0.930 . S
C46 C44 1.353 . S
C46 C49 1.348 . S
C46 H84 0.929 . S
N47 Li2 1.990 . S
N47 C44 1.314 . S
N47 C45 1.279 . S
C48 C45 1.358 . S
C48 C49 1.356 . S
C48 H85 0.930 . S
C49 C46 1.348 . S
C49 C48 1.356 . S
H50 C44 0.930 . S
H51 C45 0.930 . S
C52 N53 1.314 . S
C52 C54 1.353 . S
C52 H58 0.930 . S
N53 Li3 1.990 . S
N53 C52 1.314 . S
N53 C56 1.279 . S
C54 C52 1.353 . S
C54 C57 1.348 . S
C54 H86 0.929 . S
C55 C56 1.358 . S
C55 C57 1.356 . S
C55 H87 0.930 . S
C56 N53 1.279 . S
C56 C55 1.358 . S
C56 H59 0.930 . S
C57 C54 1.348 . S
C57 C55 1.356 . S
H58 C52 0.930 . S
H59 C56 0.930 . S
O60 Li0 1.956 . S
O60 Li1 1.970 . S
O60 Li2 1.961 . S
O60 C4 1.325 . S
O61 Li0 1.970 . S
O61 Li1 1.956 . S
O61 Li3 1.961 . S
O61 C10 1.325 . S
O62 Li0 1.961 . S
O62 Li2 1.956 . S
O62 Li3 1.970 . S
O62 C32 1.325 . S
O63 Li1 1.961 . S
O63 Li2 1.970 . S
O63 Li3 1.956 . S
O63 C38 1.325 . S
H64 C6 0.929 . S
H65 C7 0.930 . S
H66 C8 0.930 . S
H67 C9 0.930 . S
H68 C11 0.930 . S
H69 C13 0.929 . S
H70 C14 0.930 . S
H71 C15 0.930 . S
H72 C18 0.930 . S
H73 C21 0.929 . S
H74 C26 0.929 . S
H75 C27 0.930 . S
H76 C34 0.929 . S
H77 C35 0.930 . S
H78 C36 0.930 . S
H79 C37 0.930 . S
H80 C39 0.929 . S
H81 C40 0.930 . S
H82 C41 0.930 1_556 S
H83 C42 0.916 1_556 S
H84 C46 0.929 . S
H85 C48 0.930 . S
H86 C54 0.929 . S
H87 C55 0.930 . S
Li88 N105 1.990 . S
Li88 O148 1.956 . S
Li88 O149 1.970 . S
Li88 O150 1.961 . S
Li89 N113 1.990 . S
Li89 O148 1.970 . S
Li89 O149 1.956 . S
Li89 O151 1.961 . S
Li90 N135 1.990 . S
Li90 O148 1.961 . S
Li90 O150 1.956 . S
Li90 O151 1.970 . S
Li91 N141 1.990 . S
Li91 O149 1.961 . S
Li91 O150 1.970 . S
Li91 O151 1.956 . S
C92 C94 1.348 . S
C92 C95 1.356 . S
C92 O148 1.325 . S
N93 C96 1.314 . S
N93 C97 1.279 . S
C94 C92 1.348 . S
C94 C96 1.353 . S
C94 H152 0.929 . S
C95 C92 1.356 . S
C95 C97 1.358 . S
C95 H153 0.930 . S
C96 N93 1.314 . S
C96 C94 1.353 . S
C96 H154 0.930 . S
C97 N93 1.279 . S
C97 C95 1.358 . S
C97 H155 0.930 . S
C98 C101 1.348 . S
C98 C102 1.356 . S
C98 O149 1.325 . S
C99 N100 1.279 . S
C99 C102 1.358 . S
C99 H156 0.930 . S
N100 C99 1.279 . S
N100 C103 1.314 . S
C101 C98 1.348 . S
C101 C103 1.353 . S
C101 H157 0.929 . S
C102 C98 1.356 . S
C102 C99 1.358 . S
C102 H158 0.930 . S
C103 N100 1.314 . S
C103 C101 1.353 . S
C103 H159 0.930 . S
C104 N105 1.314 . S
C104 C109 1.353 . S
C104 H110 0.930 . S
N105 Li88 1.990 . S
N105 C104 1.314 . S
N105 C107 1.279 . S
C106 C107 1.358 . S
C106 C108 1.356 . S
C106 H160 0.930 . S
C107 N105 1.279 . S
C107 C106 1.358 . S
C107 H111 0.930 . S
C108 C106 1.356 . S
C108 C109 1.348 . S
C109 C104 1.353 . S
C109 C108 1.348 . S
C109 H161 0.929 . S
H110 C104 0.930 . S
H111 C107 0.930 . S
C112 N113 1.314 . S
C112 C114 1.353 . S
C112 H118 0.930 . S
N113 Li89 1.990 . S
N113 C112 1.314 . S
N113 C116 1.279 . S
C114 C112 1.353 . S
C114 C117 1.348 . S
C114 H162 0.929 . S
C115 C116 1.358 . S
C115 C117 1.356 . S
C115 H163 0.930 . S
C116 N113 1.279 . S
C116 C115 1.358 . S
C116 H119 0.930 . S
C117 C114 1.348 . S
C117 C115 1.356 . S
H118 C112 0.930 . S
H119 C116 0.930 . S
C120 C122 1.348 . S
C120 C123 1.356 . S
C120 O150 1.325 . S
N121 C124 1.314 . S
N121 C125 1.279 . S
C122 C120 1.348 . S
C122 C124 1.353 . S
C122 H164 0.929 . S
C123 C120 1.356 . S
C123 C125 1.358 . S
C123 H165 0.930 . S
C124 N121 1.314 . S
C124 C122 1.353 . S
C124 H166 0.930 . S
C125 N121 1.279 . S
C125 C123 1.358 . S
C125 H167 0.930 . S
C126 C127 1.348 . S
C126 C128 1.356 . S
C126 O151 1.325 . S
C127 C126 1.348 . S
C127 C129 1.353 . S
C127 H168 0.929 . S
C128 C126 1.356 . S
C128 C130 1.358 . S
C128 H169 0.930 . S
C129 C127 1.353 . S
C129 N131 1.314 . S
C129 H170 0.930 . S
C130 C128 1.358 . S
C130 N131 1.279 . S
C130 H171 0.930 . S
N131 C129 1.314 . S
N131 C130 1.279 . S
C132 C134 1.353 . S
C132 N135 1.314 . S
C132 H138 0.930 . S
C133 N135 1.279 . S
C133 C136 1.358 . S
C133 H139 0.930 . S
C134 C132 1.353 . S
C134 C137 1.348 . S
C134 H172 0.929 . S
N135 Li90 1.990 . S
N135 C132 1.314 . S
N135 C133 1.279 . S
C136 C133 1.358 . S
C136 C137 1.356 . S
C136 H173 0.930 . S
C137 C134 1.348 . S
C137 C136 1.356 . S
H138 C132 0.930 . S
H139 C133 0.930 . S
C140 N141 1.314 . S
C140 C142 1.353 . S
C140 H146 0.930 . S
N141 Li91 1.990 . S
N141 C140 1.314 . S
N141 C144 1.279 . S
C142 C140 1.353 . S
C142 C145 1.348 . S
C142 H174 0.929 . S
C143 C144 1.358 . S
C143 C145 1.356 . S
C143 H175 0.930 . S
C144 N141 1.279 . S
C144 C143 1.358 . S
C144 H147 0.930 . S
C145 C142 1.348 . S
C145 C143 1.356 . S
H146 C140 0.930 . S
H147 C144 0.930 . S
O148 Li88 1.956 . S
O148 Li89 1.970 . S
O148 Li90 1.961 . S
O148 C92 1.325 . S
O149 Li88 1.970 . S
O149 Li89 1.956 . S
O149 Li91 1.961 . S
O149 C98 1.325 . S
O150 Li88 1.961 . S
O150 Li90 1.956 . S
O150 Li91 1.970 . S
O150 C120 1.325 . S
O151 Li89 1.961 . S
O151 Li90 1.970 . S
O151 Li91 1.956 . S
O151 C126 1.325 . S
H152 C94 0.929 . S
H153 C95 0.930 . S
H154 C96 0.930 . S
H155 C97 0.930 . S
H156 C99 0.930 . S
H157 C101 0.929 . S
H158 C102 0.930 . S
H159 C103 0.930 . S
H160 C106 0.930 . S
H161 C109 0.929 . S
H162 C114 0.929 . S
H163 C115 0.930 . S
H164 C122 0.929 . S
H165 C123 0.930 . S
H166 C124 0.930 . S
H167 C125 0.930 . S
H168 C127 0.929 . S
H169 C128 0.930 . S
H170 C129 0.930 . S
H171 C130 0.930 . S
H172 C134 0.929 . S
H173 C136 0.930 . S
H174 C142 0.929 . S
H175 C143 0.930 . S
Li176 N193 1.990 . S
Li176 O236 1.956 . S
Li176 O237 1.970 . S
Li176 O238 1.961 . S
Li177 N201 1.990 . S
Li177 O236 1.970 . S
Li177 O237 1.956 . S
Li177 O239 1.961 . S
Li178 N223 1.990 . S
Li178 O236 1.961 . S
Li178 O238 1.956 . S
Li178 O239 1.970 . S
Li179 N229 1.990 . S
Li179 O237 1.961 . S
Li179 O238 1.970 . S
Li179 O239 1.956 . S
C180 C182 1.348 . S
C180 C183 1.356 . S
C180 O236 1.325 . S
N181 C184 1.314 . S
N181 C185 1.279 . S
C182 C180 1.348 . S
C182 C184 1.353 . S
C182 H240 0.929 . S
C183 C180 1.356 . S
C183 C185 1.358 . S
C183 H241 0.930 . S
C184 N181 1.314 . S
C184 C182 1.353 . S
C184 H242 0.930 . S
C185 N181 1.279 . S
C185 C183 1.358 . S
C185 H243 0.930 . S
C186 C189 1.348 . S
C186 C190 1.356 . S
C186 O237 1.325 . S
C187 N188 1.279 1_556 S
C187 C190 1.358 . S
C187 H244 0.916 1_556 S
N188 C187 1.279 1_554 S
N188 C191 1.314 1_554 S
C189 C186 1.348 . S
C189 C191 1.353 . S
C189 H245 0.929 . S
C190 C186 1.356 . S
C190 C187 1.358 . S
C190 H246 0.930 . S
C191 N188 1.314 1_556 S
C191 C189 1.353 . S
C191 H247 0.930 1_556 S
C192 N193 1.314 . S
C192 C197 1.353 . S
C192 H198 0.930 . S
N193 Li176 1.990 . S
N193 C192 1.314 . S
N193 C195 1.279 . S
C194 C195 1.358 . S
C194 C196 1.356 . S
C194 H248 0.930 . S
C195 N193 1.279 . S
C195 C194 1.358 . S
C195 H199 0.930 . S
C196 C194 1.356 . S
C196 C197 1.348 . S
C197 C192 1.353 . S
C197 C196 1.348 . S
C197 H249 0.929 . S
H198 C192 0.930 . S
H199 C195 0.930 . S
C200 N201 1.314 . S
C200 C202 1.353 . S
C200 H206 0.930 . S
N201 Li177 1.990 . S
N201 C200 1.314 . S
N201 C204 1.279 . S
C202 C200 1.353 . S
C202 C205 1.348 . S
C202 H250 0.929 . S
C203 C204 1.358 . S
C203 C205 1.356 . S
C203 H251 0.930 . S
C204 N201 1.279 . S
C204 C203 1.358 . S
C204 H207 0.930 . S
C205 C202 1.348 . S
C205 C203 1.356 . S
H206 C200 0.930 . S
H207 C204 0.930 . S
C208 C210 1.348 . S
C208 C211 1.356 . S
C208 O238 1.325 . S
N209 C212 1.314 . S
N209 C213 1.279 . S
C210 C208 1.348 . S
C210 C212 1.353 . S
C210 H252 0.929 . S
C211 C208 1.356 . S
C211 C213 1.358 . S
C211 H253 0.930 . S
C212 N209 1.314 . S
C212 C210 1.353 . S
C212 H254 0.930 . S
C213 N209 1.279 . S
C213 C211 1.358 . S
C213 H255 0.930 . S
C214 C215 1.348 . S
C214 C216 1.356 . S
C214 O239 1.325 . S
C215 C214 1.348 . S
C215 C217 1.353 . S
C215 H256 0.929 . S
C216 C214 1.356 . S
C216 C218 1.358 . S
C216 H257 0.930 . S
C217 C215 1.353 . S
C217 N219 1.314 . S
C217 H258 0.930 . S
C218 C216 1.358 . S
C218 N219 1.279 . S
C218 H259 0.930 . S
N219 C217 1.314 . S
N219 C218 1.279 . S
C220 C222 1.353 . S
C220 N223 1.314 . S
C220 H226 0.930 . S
C221 N223 1.279 . S
C221 C224 1.358 . S
C221 H227 0.930 . S
C222 C220 1.353 . S
C222 C225 1.348 . S
C222 H260 0.929 . S
N223 Li178 1.990 . S
N223 C220 1.314 . S
N223 C221 1.279 . S
C224 C221 1.358 . S
C224 C225 1.356 . S
C224 H261 0.930 . S
C225 C222 1.348 . S
C225 C224 1.356 . S
H226 C220 0.930 . S
H227 C221 0.930 . S
C228 N229 1.314 . S
C228 C230 1.353 . S
C228 H234 0.930 . S
N229 Li179 1.990 . S
N229 C228 1.314 . S
N229 C232 1.279 . S
C230 C228 1.353 . S
C230 C233 1.348 . S
C230 H262 0.929 . S
C231 C232 1.358 . S
C231 C233 1.356 . S
C231 H263 0.930 . S
C232 N229 1.279 . S
C232 C231 1.358 . S
C232 H235 0.930 . S
C233 C230 1.348 . S
C233 C231 1.356 . S
H234 C228 0.930 . S
H235 C232 0.930 . S
O236 Li176 1.956 . S
O236 Li177 1.970 . S
O236 Li178 1.961 . S
O236 C180 1.325 . S
O237 Li176 1.970 . S
O237 Li177 1.956 . S
O237 Li179 1.961 . S
O237 C186 1.325 . S
O238 Li176 1.961 . S
O238 Li178 1.956 . S
O238 Li179 1.970 . S
O238 C208 1.325 . S
O239 Li177 1.961 . S
O239 Li178 1.970 . S
O239 Li179 1.956 . S
O239 C214 1.325 . S
H240 C182 0.929 . S
H241 C183 0.930 . S
H242 C184 0.930 . S
H243 C185 0.930 . S
H244 C187 0.916 1_554 S
H245 C189 0.929 . S
H246 C190 0.930 . S
H247 C191 0.930 1_554 S
H248 C194 0.930 . S
H249 C197 0.929 . S
H250 C202 0.929 . S
H251 C203 0.930 . S
H252 C210 0.929 . S
H253 C211 0.930 . S
H254 C212 0.930 . S
H255 C213 0.930 . S
H256 C215 0.929 . S
H257 C216 0.930 . S
H258 C217 0.930 . S
H259 C218 0.930 . S
H260 C222 0.929 . S
H261 C224 0.930 . S
H262 C230 0.929 . S
H263 C231 0.930 . S
Li264 N281 1.990 . S
Li264 O324 1.956 . S
Li264 O325 1.970 . S
Li264 O326 1.961 . S
Li265 N289 1.990 . S
Li265 O324 1.970 . S
Li265 O325 1.956 . S
Li265 O327 1.961 . S
Li266 N311 1.990 . S
Li266 O324 1.961 . S
Li266 O326 1.956 . S
Li266 O327 1.970 . S
Li267 N317 1.990 . S
Li267 O325 1.961 . S
Li267 O326 1.970 . S
Li267 O327 1.956 . S
C268 C270 1.348 . S
C268 C271 1.356 . S
C268 O324 1.325 . S
N269 C272 1.314 . S
N269 C273 1.279 . S
C270 C268 1.348 . S
C270 C272 1.353 . S
C270 H328 0.929 . S
C271 C268 1.356 . S
C271 C273 1.358 . S
C271 H329 0.930 . S
C272 N269 1.314 . S
C272 C270 1.353 . S
C272 H330 0.930 . S
C273 N269 1.279 . S
C273 C271 1.358 . S
C273 H331 0.930 . S
C274 C277 1.348 . S
C274 C278 1.356 . S
C274 O325 1.325 . S
C275 N276 1.279 . S
C275 C278 1.358 . S
C275 H332 0.930 . S
N276 C275 1.279 . S
N276 C279 1.314 . S
C277 C274 1.348 . S
C277 C279 1.353 . S
C277 H333 0.929 . S
C278 C274 1.356 . S
C278 C275 1.358 . S
C278 H334 0.930 . S
C279 N276 1.314 . S
C279 C277 1.353 . S
C279 H335 0.930 . S
C280 N281 1.314 . S
C280 C285 1.353 . S
C280 H286 0.930 . S
N281 Li264 1.990 . S
N281 C280 1.314 . S
N281 C283 1.279 . S
C282 C283 1.358 . S
C282 C284 1.356 . S
C282 H336 0.930 . S
C283 N281 1.279 . S
C283 C282 1.358 . S
C283 H287 0.930 . S
C284 C282 1.356 . S
C284 C285 1.348 . S
C285 C280 1.353 . S
C285 C284 1.348 . S
C285 H337 0.929 . S
H286 C280 0.930 . S
H287 C283 0.930 . S
C288 N289 1.314 . S
C288 C290 1.353 . S
C288 H294 0.930 . S
N289 Li265 1.990 . S
N289 C288 1.314 . S
N289 C292 1.279 . S
C290 C288 1.353 . S
C290 C293 1.348 . S
C290 H338 0.929 . S
C291 C292 1.358 . S
C291 C293 1.356 . S
C291 H339 0.930 . S
C292 N289 1.279 . S
C292 C291 1.358 . S
C292 H295 0.930 . S
C293 C290 1.348 . S
C293 C291 1.356 . S
H294 C288 0.930 . S
H295 C292 0.930 . S
C296 C298 1.348 . S
C296 C299 1.356 . S
C296 O326 1.325 . S
N297 C300 1.314 . S
N297 C301 1.279 . S
C298 C296 1.348 . S
C298 C300 1.353 . S
C298 H340 0.929 . S
C299 C296 1.356 . S
C299 C301 1.358 . S
C299 H341 0.930 . S
C300 N297 1.314 . S
C300 C298 1.353 . S
C300 H342 0.930 . S
C301 N297 1.279 . S
C301 C299 1.358 . S
C301 H343 0.930 . S
C302 C303 1.348 . S
C302 C304 1.356 . S
C302 O327 1.325 . S
C303 C302 1.348 . S
C303 C305 1.353 . S
C303 H344 0.929 . S
C304 C302 1.356 . S
C304 C306 1.358 . S
C304 H345 0.930 . S
C305 C303 1.353 . S
C305 N307 1.314 . S
C305 H346 0.930 . S
C306 C304 1.358 . S
C306 N307 1.279 . S
C306 H347 0.930 . S
N307 C305 1.314 . S
N307 C306 1.279 . S
C308 C310 1.353 . S
C308 N311 1.314 . S
C308 H314 0.930 . S
C309 N311 1.279 . S
C309 C312 1.358 . S
C309 H315 0.930 . S
C310 C308 1.353 . S
C310 C313 1.348 . S
C310 H348 0.929 . S
N311 Li266 1.990 . S
N311 C308 1.314 . S
N311 C309 1.279 . S
C312 C309 1.358 . S
C312 C313 1.356 . S
C312 H349 0.930 . S
C313 C310 1.348 . S
C313 C312 1.356 . S
H314 C308 0.930 . S
H315 C309 0.930 . S
C316 N317 1.314 . S
C316 C318 1.353 . S
C316 H322 0.930 . S
N317 Li267 1.990 . S
N317 C316 1.314 . S
N317 C320 1.279 . S
C318 C316 1.353 . S
C318 C321 1.348 . S
C318 H350 0.929 . S
C319 C320 1.358 . S
C319 C321 1.356 . S
C319 H351 0.930 . S
C320 N317 1.279 . S
C320 C319 1.358 . S
C320 H323 0.930 . S
C321 C318 1.348 . S
C321 C319 1.356 . S
H322 C316 0.930 . S
H323 C320 0.930 . S
O324 Li264 1.956 . S
O324 Li265 1.970 . S
O324 Li266 1.961 . S
O324 C268 1.325 . S
O325 Li264 1.970 . S
O325 Li265 1.956 . S
O325 Li267 1.961 . S
O325 C274 1.325 . S
O326 Li264 1.961 . S
O326 Li266 1.956 . S
O326 Li267 1.970 . S
O326 C296 1.325 . S
O327 Li265 1.961 . S
O327 Li266 1.970 . S
O327 Li267 1.956 . S
O327 C302 1.325 . S
H328 C270 0.929 . S
H329 C271 0.930 . S
H330 C272 0.930 . S
H331 C273 0.930 . S
H332 C275 0.930 . S
H333 C277 0.929 . S
H334 C278 0.930 . S
H335 C279 0.930 . S
H336 C282 0.930 . S
H337 C285 0.929 . S
H338 C290 0.929 . S
H339 C291 0.930 . S
H340 C298 0.929 . S
H341 C299 0.930 . S
H342 C300 0.930 . S
H343 C301 0.930 . S
H344 C303 0.929 . S
H345 C304 0.930 . S
H346 C305 0.930 . S
H347 C306 0.930 . S
H348 C310 0.929 . S
H349 C312 0.930 . S
H350 C318 0.929 . S
H351 C319 0.930 . S
Li352 N369 1.990 . S
Li352 O412 1.956 . S
Li352 O413 1.970 . S
Li352 O414 1.961 . S
Li353 N377 1.990 . S
Li353 O412 1.970 . S
Li353 O413 1.956 . S
Li353 O415 1.961 . S
Li354 N399 1.990 . S
Li354 O412 1.961 . S
Li354 O414 1.956 . S
Li354 O415 1.970 . S
Li355 N405 1.990 . S
Li355 O413 1.961 . S
Li355 O414 1.970 . S
Li355 O415 1.956 . S
C356 C358 1.348 . S
C356 C359 1.356 . S
C356 O412 1.325 . S
N357 C360 1.308 1_554 S
N357 C361 1.279 1_554 S
C358 C356 1.348 . S
C358 C360 1.368 . S
C358 H416 0.929 . S
C359 C356 1.356 . S
C359 C361 1.358 . S
C359 H417 0.930 . S
C360 N357 1.308 1_556 S
C360 C358 1.368 . S
C360 H418 0.919 1_556 S
C361 N357 1.279 1_556 S
C361 C359 1.358 . S
C361 H419 0.930 . S
C362 C365 1.348 . S
C362 C366 1.356 . S
C362 O413 1.325 . S
C363 N364 1.279 . S
C363 C366 1.358 . S
C363 H420 0.930 . S
N364 C363 1.279 . S
N364 C367 1.314 . S
C365 C362 1.348 . S
C365 C367 1.353 . S
C365 H421 0.929 . S
C366 C362 1.356 . S
C366 C363 1.358 . S
C366 H422 0.930 . S
C367 N364 1.314 . S
C367 C365 1.353 . S
C367 H423 0.930 . S
C368 N369 1.314 . S
C368 C373 1.353 . S
C368 H374 0.930 . S
N369 Li352 1.990 . S
N369 C368 1.314 . S
N369 C371 1.279 . S
C370 C371 1.358 . S
C370 C372 1.356 . S
C370 H424 0.930 . S
C371 N369 1.279 . S
C371 C370 1.358 . S
C371 H375 0.930 . S
C372 C370 1.356 . S
C372 C373 1.348 . S
C373 C368 1.353 . S
C373 C372 1.348 . S
C373 H425 0.929 . S
H374 C368 0.930 . S
H375 C371 0.930 . S
C376 N377 1.314 . S
C376 C378 1.353 . S
C376 H382 0.930 . S
N377 Li353 1.990 . S
N377 C376 1.314 . S
N377 C380 1.279 . S
C378 C376 1.353 . S
C378 C381 1.348 . S
C378 H426 0.929 . S
C379 C380 1.358 . S
C379 C381 1.356 . S
C379 H427 0.930 . S
C380 N377 1.279 . S
C380 C379 1.358 . S
C380 H383 0.930 . S
C381 C378 1.348 . S
C381 C379 1.356 . S
H382 C376 0.930 . S
H383 C380 0.930 . S
C384 C386 1.348 . S
C384 C387 1.356 . S
C384 O414 1.325 . S
N385 C388 1.314 . S
N385 C389 1.279 . S
C386 C384 1.348 . S
C386 C388 1.353 . S
C386 H428 0.929 . S
C387 C384 1.356 . S
C387 C389 1.358 . S
C387 H429 0.930 . S
C388 N385 1.314 . S
C388 C386 1.353 . S
C388 H430 0.930 . S
C389 N385 1.279 . S
C389 C387 1.358 . S
C389 H431 0.930 . S
C390 C391 1.348 . S
C390 C392 1.356 . S
C390 O415 1.325 . S
C391 C390 1.348 . S
C391 C393 1.353 . S
C391 H432 0.929 . S
C392 C390 1.356 . S
C392 C394 1.358 . S
C392 H433 0.930 . S
C393 C391 1.353 . S
C393 N395 1.314 . S
C393 H434 0.930 . S
C394 C392 1.358 . S
C394 N395 1.279 . S
C394 H435 0.930 . S
N395 C393 1.314 . S
N395 C394 1.279 . S
C396 C398 1.353 . S
C396 N399 1.314 . S
C396 H402 0.930 . S
C397 N399 1.279 . S
C397 C400 1.358 . S
C397 H403 0.930 . S
C398 C396 1.353 . S
C398 C401 1.348 . S
C398 H436 0.929 . S
N399 Li354 1.990 . S
N399 C396 1.314 . S
N399 C397 1.279 . S
C400 C397 1.358 . S
C400 C401 1.356 . S
C400 H437 0.930 . S
C401 C398 1.348 . S
C401 C400 1.356 . S
H402 C396 0.930 . S
H403 C397 0.930 . S
C404 N405 1.314 . S
C404 C406 1.353 . S
C404 H410 0.930 . S
N405 Li355 1.990 . S
N405 C404 1.314 . S
N405 C408 1.279 . S
C406 C404 1.353 . S
C406 C409 1.348 . S
C406 H438 0.929 . S
C407 C408 1.358 . S
C407 C409 1.356 . S
C407 H439 0.930 . S
C408 N405 1.279 . S
C408 C407 1.358 . S
C408 H411 0.930 . S
C409 C406 1.348 . S
C409 C407 1.356 . S
H410 C404 0.930 . S
H411 C408 0.930 . S
O412 Li352 1.956 . S
O412 Li353 1.970 . S
O412 Li354 1.961 . S
O412 C356 1.325 . S
O413 Li352 1.970 . S
O413 Li353 1.956 . S
O413 Li355 1.961 . S
O413 C362 1.325 . S
O414 Li352 1.961 . S
O414 Li354 1.956 . S
O414 Li355 1.970 . S
O414 C384 1.325 . S
O415 Li353 1.961 . S
O415 Li354 1.970 . S
O415 Li355 1.956 . S
O415 C390 1.325 . S
H416 C358 0.929 . S
H417 C359 0.930 . S
H418 C360 0.919 1_554 S
H419 C361 0.930 . S
H420 C363 0.930 . S
H421 C365 0.929 . S
H422 C366 0.930 . S
H423 C367 0.930 . S
H424 C370 0.930 . S
H425 C373 0.929 . S
H426 C378 0.929 . S
H427 C379 0.930 . S
H428 C386 0.929 . S
H429 C387 0.930 . S
H430 C388 0.930 . S
H431 C389 0.930 . S
H432 C391 0.929 . S
H433 C392 0.930 . S
H434 C393 0.930 . S
H435 C394 0.930 . S
H436 C398 0.929 . S
H437 C400 0.930 . S
H438 C406 0.929 . S
H439 C407 0.930 . S
Li440 N457 1.990 . S
Li440 O500 1.956 . S
Li440 O501 1.970 . S
Li440 O502 1.961 . S
Li441 N465 1.990 . S
Li441 O500 1.970 . S
Li441 O501 1.956 . S
Li441 O503 1.961 . S
Li442 N487 1.990 . S
Li442 O500 1.961 . S
Li442 O502 1.956 . S
Li442 O503 1.970 . S
Li443 N493 1.990 . S
Li443 O501 1.961 . S
Li443 O502 1.970 . S
Li443 O503 1.956 . S
C444 C446 1.348 . S
C444 C447 1.356 . S
C444 O500 1.325 . S
N445 C448 1.314 . S
N445 C449 1.279 . S
C446 C444 1.348 . S
C446 C448 1.353 . S
C446 H504 0.929 . S
C447 C444 1.356 . S
C447 C449 1.358 . S
C447 H505 0.930 . S
C448 N445 1.314 . S
C448 C446 1.353 . S
C448 H506 0.930 . S
C449 N445 1.279 . S
C449 C447 1.358 . S
C449 H507 0.930 . S
C450 C453 1.348 . S
C450 C454 1.356 . S
C450 O501 1.325 . S
C451 N452 1.279 . S
C451 C454 1.358 . S
C451 H508 0.930 . S
N452 C451 1.279 . S
N452 C455 1.314 . S
C453 C450 1.348 . S
C453 C455 1.353 . S
C453 H509 0.929 . S
C454 C450 1.356 . S
C454 C451 1.358 . S
C454 H510 0.930 . S
C455 N452 1.314 . S
C455 C453 1.353 . S
C455 H511 0.930 . S
C456 N457 1.314 . S
C456 C461 1.353 . S
C456 H462 0.930 . S
N457 Li440 1.990 . S
N457 C456 1.314 . S
N457 C459 1.279 . S
C458 C459 1.358 . S
C458 C460 1.356 . S
C458 H512 0.930 . S
C459 N457 1.279 . S
C459 C458 1.358 . S
C459 H463 0.930 . S
C460 C458 1.356 . S
C460 C461 1.348 . S
C461 C456 1.353 . S
C461 C460 1.348 . S
C461 H513 0.929 . S
H462 C456 0.930 . S
H463 C459 0.930 . S
C464 N465 1.314 . S
C464 C466 1.353 . S
C464 H470 0.930 . S
N465 Li441 1.990 . S
N465 C464 1.314 . S
N465 C468 1.279 . S
C466 C464 1.353 . S
C466 C469 1.348 . S
C466 H514 0.929 . S
C467 C468 1.358 . S
C467 C469 1.356 . S
C467 H515 0.930 . S
C468 N465 1.279 . S
C468 C467 1.358 . S
C468 H471 0.930 . S
C469 C466 1.348 . S
C469 C467 1.356 . S
H470 C464 0.930 . S
H471 C468 0.930 . S
C472 C474 1.348 . S
C472 C475 1.356 . S
C472 O502 1.325 . S
N473 C476 1.314 . S
N473 C477 1.279 . S
C474 C472 1.348 . S
C474 C476 1.353 . S
C474 H516 0.929 . S
C475 C472 1.356 . S
C475 C477 1.358 . S
C475 H517 0.930 . S
C476 N473 1.314 . S
C476 C474 1.353 . S
C476 H518 0.930 . S
C477 N473 1.279 . S
C477 C475 1.358 . S
C477 H519 0.930 . S
C478 C479 1.348 . S
C478 C480 1.356 . S
C478 O503 1.325 . S
C479 C478 1.348 . S
C479 C481 1.353 . S
C479 H520 0.929 . S
C480 C478 1.356 . S
C480 C482 1.358 . S
C480 H521 0.930 . S
C481 C479 1.353 . S
C481 N483 1.314 . S
C481 H522 0.930 . S
C482 C480 1.358 . S
C482 N483 1.279 . S
C482 H523 0.930 . S
N483 C481 1.314 . S
N483 C482 1.279 . S
C484 C486 1.353 . S
C484 N487 1.314 . S
C484 H490 0.930 . S
C485 N487 1.279 . S
C485 C488 1.358 . S
C485 H491 0.930 . S
C486 C484 1.353 . S
C486 C489 1.348 . S
C486 H524 0.929 . S
N487 Li442 1.990 . S
N487 C484 1.314 . S
N487 C485 1.279 . S
C488 C485 1.358 . S
C488 C489 1.356 . S
C488 H525 0.930 . S
C489 C486 1.348 . S
C489 C488 1.356 . S
H490 C484 0.930 . S
H491 C485 0.930 . S
C492 N493 1.314 . S
C492 C494 1.353 . S
C492 H498 0.930 . S
N493 Li443 1.990 . S
N493 C492 1.314 . S
N493 C496 1.279 . S
C494 C492 1.353 . S
C494 C497 1.348 . S
C494 H526 0.929 . S
C495 C496 1.358 . S
C495 C497 1.356 . S
C495 H527 0.930 . S
C496 N493 1.279 . S
C496 C495 1.358 . S
C496 H499 0.930 . S
C497 C494 1.348 . S
C497 C495 1.356 . S
H498 C492 0.930 . S
H499 C496 0.930 . S
O500 Li440 1.956 . S
O500 Li441 1.970 . S
O500 Li442 1.961 . S
O500 C444 1.325 . S
O501 Li440 1.970 . S
O501 Li441 1.956 . S
O501 Li443 1.961 . S
O501 C450 1.325 . S
O502 Li440 1.961 . S
O502 Li442 1.956 . S
O502 Li443 1.970 . S
O502 C472 1.325 . S
O503 Li441 1.961 . S
O503 Li442 1.970 . S
O503 Li443 1.956 . S
O503 C478 1.325 . S
H504 C446 0.929 . S
H505 C447 0.930 . S
H506 C448 0.930 . S
H507 C449 0.930 . S
H508 C451 0.930 . S
H509 C453 0.929 . S
H510 C454 0.930 . S
H511 C455 0.930 . S
H512 C458 0.930 . S
H513 C461 0.929 . S
H514 C466 0.929 . S
H515 C467 0.930 . S
H516 C474 0.929 . S
H517 C475 0.930 . S
H518 C476 0.930 . S
H519 C477 0.930 . S
H520 C479 0.929 . S
H521 C480 0.930 . S
H522 C481 0.930 . S
H523 C482 0.930 . S
H524 C486 0.929 . S
H525 C488 0.930 . S
H526 C494 0.929 . S
H527 C495 0.930 . S
Li528 N545 1.990 . S
Li528 O588 1.956 . S
Li528 O589 1.970 . S
Li528 O590 1.961 . S
Li529 N553 1.990 . S
Li529 O588 1.970 . S
Li529 O589 1.956 . S
Li529 O591 1.961 . S
Li530 N575 1.990 . S
Li530 O588 1.961 . S
Li530 O590 1.956 . S
Li530 O591 1.970 . S
Li531 N581 1.990 . S
Li531 O589 1.961 . S
Li531 O590 1.970 . S
Li531 O591 1.956 . S
C532 C534 1.348 . S
C532 C535 1.356 . S
C532 O588 1.325 . S
N533 C536 1.314 . S
N533 C537 1.279 . S
C534 C532 1.348 . S
C534 C536 1.353 . S
C534 H592 0.929 . S
C535 C532 1.356 . S
C535 C537 1.358 . S
C535 H593 0.930 . S
C536 N533 1.314 . S
C536 C534 1.353 . S
C536 H594 0.930 . S
C537 N533 1.279 . S
C537 C535 1.358 . S
C537 H595 0.930 . S
C538 C541 1.348 . S
C538 C542 1.356 . S
C538 O589 1.325 . S
C539 N540 1.279 . S
C539 C542 1.358 . S
C539 H596 0.930 . S
N540 C539 1.279 . S
N540 C543 1.314 . S
C541 C538 1.348 . S
C541 C543 1.353 . S
C541 H597 0.929 . S
C542 C538 1.356 . S
C542 C539 1.358 . S
C542 H598 0.930 . S
C543 N540 1.314 . S
C543 C541 1.353 . S
C543 H599 0.930 . S
C544 N545 1.314 . S
C544 C549 1.353 . S
C544 H550 0.930 . S
N545 Li528 1.990 . S
N545 C544 1.314 . S
N545 C547 1.279 . S
C546 C547 1.358 . S
C546 C548 1.356 . S
C546 H600 0.930 . S
C547 N545 1.279 . S
C547 C546 1.358 . S
C547 H551 0.930 . S
C548 C546 1.356 . S
C548 C549 1.348 . S
C549 C544 1.353 . S
C549 C548 1.348 . S
C549 H601 0.929 . S
H550 C544 0.930 . S
H551 C547 0.930 . S
C552 N553 1.314 . S
C552 C554 1.353 . S
C552 H558 0.930 . S
N553 Li529 1.990 . S
N553 C552 1.314 . S
N553 C556 1.279 . S
C554 C552 1.353 . S
C554 C557 1.348 . S
C554 H602 0.929 . S
C555 C556 1.358 . S
C555 C557 1.356 . S
C555 H603 0.930 . S
C556 N553 1.279 . S
C556 C555 1.358 . S
C556 H559 0.930 . S
C557 C554 1.348 . S
C557 C555 1.356 . S
H558 C552 0.930 . S
H559 C556 0.930 . S
C560 C562 1.348 . S
C560 C563 1.356 . S
C560 O590 1.325 . S
N561 C564 1.314 . S
N561 C565 1.279 . S
C562 C560 1.348 . S
C562 C564 1.353 . S
C562 H604 0.929 . S
C563 C560 1.356 . S
C563 C565 1.358 . S
C563 H605 0.930 . S
C564 N561 1.314 . S
C564 C562 1.353 . S
C564 H606 0.930 . S
C565 N561 1.279 . S
C565 C563 1.358 . S
C565 H607 0.930 . S
C566 C567 1.348 . S
C566 C568 1.356 . S
C566 O591 1.325 . S
C567 C566 1.348 . S
C567 C569 1.368 . S
C567 H608 0.929 . S
C568 C566 1.356 . S
C568 C570 1.358 . S
C568 H609 0.930 . S
C569 C567 1.368 . S
C569 N571 1.308 1_554 S
C569 H610 0.919 1_554 S
C570 C568 1.358 . S
C570 N571 1.279 1_554 S
C570 H611 0.930 . S
N571 C569 1.308 1_556 S
N571 C570 1.279 1_556 S
C572 C574 1.353 . S
C572 N575 1.314 . S
C572 H578 0.930 . S
C573 N575 1.279 . S
C573 C576 1.358 . S
C573 H579 0.930 . S
C574 C572 1.353 . S
C574 C577 1.348 . S
C574 H612 0.929 . S
N575 Li530 1.990 . S
N575 C572 1.314 . S
N575 C573 1.279 . S
C576 C573 1.358 . S
C576 C577 1.356 . S
C576 H613 0.930 . S
C577 C574 1.348 . S
C577 C576 1.356 . S
H578 C572 0.930 . S
H579 C573 0.930 . S
C580 N581 1.314 . S
C580 C582 1.353 . S
C580 H586 0.930 . S
N581 Li531 1.990 . S
N581 C580 1.314 . S
N581 C584 1.279 . S
C582 C580 1.353 . S
C582 C585 1.348 . S
C582 H614 0.929 . S
C583 C584 1.358 . S
C583 C585 1.356 . S
C583 H615 0.930 . S
C584 N581 1.279 . S
C584 C583 1.358 . S
C584 H587 0.930 . S
C585 C582 1.348 . S
C585 C583 1.356 . S
H586 C580 0.930 . S
H587 C584 0.930 . S
O588 Li528 1.956 . S
O588 Li529 1.970 . S
O588 Li530 1.961 . S
O588 C532 1.325 . S
O589 Li528 1.970 . S
O589 Li529 1.956 . S
O589 Li531 1.961 . S
O589 C538 1.325 . S
O590 Li528 1.961 . S
O590 Li530 1.956 . S
O590 Li531 1.970 . S
O590 C560 1.325 . S
O591 Li529 1.961 . S
O591 Li530 1.970 . S
O591 Li531 1.956 . S
O591 C566 1.325 . S
H592 C534 0.929 . S
H593 C535 0.930 . S
H594 C536 0.930 . S
H595 C537 0.930 . S
H596 C539 0.930 . S
H597 C541 0.929 . S
H598 C542 0.930 . S
H599 C543 0.930 . S
H600 C546 0.930 . S
H601 C549 0.929 . S
H602 C554 0.929 . S
H603 C555 0.930 . S
H604 C562 0.929 . S
H605 C563 0.930 . S
H606 C564 0.930 . S
H607 C565 0.930 . S
H608 C567 0.929 . S
H609 C568 0.930 . S
H610 C569 0.919 1_556 S
H611 C570 0.930 . S
H612 C574 0.929 . S
H613 C576 0.930 . S
H614 C582 0.929 . S
H615 C583 0.930 . S
Li616 N633 1.990 . S
Li616 O676 1.956 . S
Li616 O677 1.970 . S
Li616 O678 1.961 . S
Li617 N641 1.990 . S
Li617 O676 1.970 . S
Li617 O677 1.956 . S
Li617 O679 1.961 . S
Li618 N663 1.990 . S
Li618 O676 1.961 . S
Li618 O678 1.956 . S
Li618 O679 1.970 . S
Li619 N669 1.990 . S
Li619 O677 1.961 . S
Li619 O678 1.970 . S
Li619 O679 1.956 . S
C620 C622 1.348 . S
C620 C623 1.356 . S
C620 O676 1.325 . S
N621 C624 1.314 . S
N621 C625 1.279 . S
C622 C620 1.348 . S
C622 C624 1.353 . S
C622 H680 0.929 . S
C623 C620 1.356 . S
C623 C625 1.358 . S
C623 H681 0.930 . S
C624 N621 1.314 . S
C624 C622 1.353 . S
C624 H682 0.930 . S
C625 N621 1.279 . S
C625 C623 1.358 . S
C625 H683 0.930 . S
C626 C629 1.348 . S
C626 C630 1.356 . S
C626 O677 1.325 . S
C627 N628 1.279 . S
C627 C630 1.358 . S
C627 H684 0.930 . S
N628 C627 1.279 . S
N628 C631 1.314 . S
C629 C626 1.348 . S
C629 C631 1.353 . S
C629 H685 0.929 . S
C630 C626 1.356 . S
C630 C627 1.358 . S
C630 H686 0.930 . S
C631 N628 1.314 . S
C631 C629 1.353 . S
C631 H687 0.930 . S
C632 N633 1.314 . S
C632 C637 1.353 . S
C632 H638 0.930 . S
N633 Li616 1.990 . S
N633 C632 1.314 . S
N633 C635 1.279 . S
C634 C635 1.358 . S
C634 C636 1.356 . S
C634 H688 0.930 . S
C635 N633 1.279 . S
C635 C634 1.358 . S
C635 H639 0.930 . S
C636 C634 1.356 . S
C636 C637 1.348 . S
C637 C632 1.353 . S
C637 C636 1.348 . S
C637 H689 0.929 . S
H638 C632 0.930 . S
H639 C635 0.930 . S
C640 N641 1.314 . S
C640 C642 1.353 . S
C640 H646 0.930 . S
N641 Li617 1.990 . S
N641 C640 1.314 . S
N641 C644 1.279 . S
C642 C640 1.353 . S
C642 C645 1.348 . S
C642 H690 0.929 . S
C643 C644 1.358 . S
C643 C645 1.356 . S
C643 H691 0.930 . S
C644 N641 1.279 . S
C644 C643 1.358 . S
C644 H647 0.930 . S
C645 C642 1.348 . S
C645 C643 1.356 . S
H646 C640 0.930 . S
H647 C644 0.930 . S
C648 C650 1.348 . S
C648 C651 1.356 . S
C648 O678 1.325 . S
N649 C652 1.314 . S
N649 C653 1.279 . S
C650 C648 1.348 . S
C650 C652 1.353 . S
C650 H692 0.929 . S
C651 C648 1.356 . S
C651 C653 1.358 . S
C651 H693 0.930 . S
C652 N649 1.314 . S
C652 C650 1.353 . S
C652 H694 0.930 . S
C653 N649 1.279 . S
C653 C651 1.358 . S
C653 H695 0.930 . S
C654 C655 1.348 . S
C654 C656 1.356 . S
C654 O679 1.325 . S
C655 C654 1.348 . S
C655 C657 1.353 . S
C655 H696 0.929 . S
C656 C654 1.356 . S
C656 C658 1.358 . S
C656 H697 0.930 . S
C657 C655 1.353 . S
C657 N659 1.314 . S
C657 H698 0.930 . S
C658 C656 1.358 . S
C658 N659 1.279 . S
C658 H699 0.930 . S
N659 C657 1.314 . S
N659 C658 1.279 . S
C660 C662 1.353 . S
C660 N663 1.314 . S
C660 H666 0.930 . S
C661 N663 1.279 . S
C661 C664 1.358 . S
C661 H667 0.930 . S
C662 C660 1.353 . S
C662 C665 1.348 . S
C662 H700 0.929 . S
N663 Li618 1.990 . S
N663 C660 1.314 . S
N663 C661 1.279 . S
C664 C661 1.358 . S
C664 C665 1.356 . S
C664 H701 0.930 . S
C665 C662 1.348 . S
C665 C664 1.356 . S
H666 C660 0.930 . S
H667 C661 0.930 . S
C668 N669 1.314 . S
C668 C670 1.353 . S
C668 H674 0.930 . S
N669 Li619 1.990 . S
N669 C668 1.314 . S
N669 C672 1.279 . S
C670 C668 1.353 . S
C670 C673 1.348 . S
C670 H702 0.929 . S
C671 C672 1.358 . S
C671 C673 1.356 . S
C671 H703 0.930 . S
C672 N669 1.279 . S
C672 C671 1.358 . S
C672 H675 0.930 . S
C673 C670 1.348 . S
C673 C671 1.356 . S
H674 C668 0.930 . S
H675 C672 0.930 . S
O676 Li616 1.956 . S
O676 Li617 1.970 . S
O676 Li618 1.961 . S
O676 C620 1.325 . S
O677 Li616 1.970 . S
O677 Li617 1.956 . S
O677 Li619 1.961 . S
O677 C626 1.325 . S
O678 Li616 1.961 . S
O678 Li618 1.956 . S
O678 Li619 1.970 . S
O678 C648 1.325 . S
O679 Li617 1.961 . S
O679 Li618 1.970 . S
O679 Li619 1.956 . S
O679 C654 1.325 . S
H680 C622 0.929 . S
H681 C623 0.930 . S
H682 C624 0.930 . S
H683 C625 0.930 . S
H684 C627 0.930 . S
H685 C629 0.929 . S
H686 C630 0.930 . S
H687 C631 0.930 . S
H688 C634 0.930 . S
H689 C637 0.929 . S
H690 C642 0.929 . S
H691 C643 0.930 . S
H692 C650 0.929 . S
H693 C651 0.930 . S
H694 C652 0.930 . S
H695 C653 0.930 . S
H696 C655 0.929 . S
H697 C656 0.930 . S
H698 C657 0.930 . S
H699 C658 0.930 . S
H700 C662 0.929 . S
H701 C664 0.930 . S
H702 C670 0.929 . S
H703 C671 0.930 . S
Li704 N721 1.990 . S
Li704 O764 1.956 . S
Li704 O765 1.970 . S
Li704 O766 1.961 . S
Li705 N729 1.990 . S
Li705 O764 1.970 . S
Li705 O765 1.956 . S
Li705 O767 1.961 . S
Li706 N751 1.990 . S
Li706 O764 1.961 . S
Li706 O766 1.956 . S
Li706 O767 1.970 . S
Li707 N757 1.990 . S
Li707 O765 1.961 . S
Li707 O766 1.970 . S
Li707 O767 1.956 . S
C708 C710 1.348 . S
C708 C711 1.356 . S
C708 O764 1.325 . S
N709 C712 1.314 . S
N709 C713 1.279 . S
C710 C708 1.348 . S
C710 C712 1.353 . S
C710 H768 0.929 . S
C711 C708 1.356 . S
C711 C713 1.358 . S
C711 H769 0.930 . S
C712 N709 1.314 . S
C712 C710 1.353 . S
C712 H770 0.930 . S
C713 N709 1.279 . S
C713 C711 1.358 . S
C713 H771 0.930 . S
C714 C717 1.348 . S
C714 C718 1.356 . S
C714 O765 1.325 . S
C715 N716 1.279 . S
C715 C718 1.358 . S
C715 H772 0.930 . S
N716 C715 1.279 . S
N716 C719 1.314 . S
C717 C714 1.348 . S
C717 C719 1.353 . S
C717 H773 0.929 . S
C718 C714 1.356 . S
C718 C715 1.358 . S
C718 H774 0.930 . S
C719 N716 1.314 . S
C719 C717 1.353 . S
C719 H775 0.930 . S
C720 N721 1.314 . S
C720 C725 1.353 . S
C720 H726 0.930 . S
N721 Li704 1.990 . S
N721 C720 1.314 . S
N721 C723 1.279 . S
C722 C723 1.358 . S
C722 C724 1.356 . S
C722 H776 0.930 . S
C723 N721 1.279 . S
C723 C722 1.358 . S
C723 H727 0.930 . S
C724 C722 1.356 . S
C724 C725 1.348 . S
C725 C720 1.353 . S
C725 C724 1.348 . S
C725 H777 0.929 . S
H726 C720 0.930 . S
H727 C723 0.930 . S
C728 N729 1.314 . S
C728 C730 1.353 . S
C728 H734 0.930 . S
N729 Li705 1.990 . S
N729 C728 1.314 . S
N729 C732 1.279 . S
C730 C728 1.353 . S
C730 C733 1.348 . S
C730 H778 0.929 . S
C731 C732 1.358 . S
C731 C733 1.356 . S
C731 H779 0.930 . S
C732 N729 1.279 . S
C732 C731 1.358 . S
C732 H735 0.930 . S
C733 C730 1.348 . S
C733 C731 1.356 . S
H734 C728 0.930 . S
H735 C732 0.930 . S
C736 C738 1.348 . S
C736 C739 1.356 . S
C736 O766 1.325 . S
N737 C740 1.314 . S
N737 C741 1.279 . S
C738 C736 1.348 . S
C738 C740 1.353 . S
C738 H780 0.929 . S
C739 C736 1.356 . S
C739 C741 1.358 . S
C739 H781 0.930 . S
C740 N737 1.314 . S
C740 C738 1.353 . S
C740 H782 0.930 . S
C741 N737 1.279 . S
C741 C739 1.358 . S
C741 H783 0.930 . S
C742 C743 1.348 . S
C742 C744 1.356 . S
C742 O767 1.325 . S
C743 C742 1.348 . S
C743 C745 1.353 . S
C743 H784 0.929 . S
C744 C742 1.356 . S
C744 C746 1.358 . S
C744 H785 0.930 . S
C745 C743 1.353 . S
C745 N747 1.314 1_554 S
C745 H786 0.930 1_554 S
C746 C744 1.358 . S
C746 N747 1.279 1_554 S
C746 H787 0.916 1_554 S
N747 C745 1.314 1_556 S
N747 C746 1.279 1_556 S
C748 C750 1.353 . S
C748 N751 1.314 . S
C748 H754 0.930 . S
C749 N751 1.279 . S
C749 C752 1.358 . S
C749 H755 0.930 . S
C750 C748 1.353 . S
C750 C753 1.348 . S
C750 H788 0.929 . S
N751 Li706 1.990 . S
N751 C748 1.314 . S
N751 C749 1.279 . S
C752 C749 1.358 . S
C752 C753 1.356 . S
C752 H789 0.930 . S
C753 C750 1.348 . S
C753 C752 1.356 . S
H754 C748 0.930 . S
H755 C749 0.930 . S
C756 N757 1.314 . S
C756 C758 1.353 . S
C756 H762 0.930 . S
N757 Li707 1.990 . S
N757 C756 1.314 . S
N757 C760 1.279 . S
C758 C756 1.353 . S
C758 C761 1.348 . S
C758 H790 0.929 . S
C759 C760 1.358 . S
C759 C761 1.356 . S
C759 H791 0.930 . S
C760 N757 1.279 . S
C760 C759 1.358 . S
C760 H763 0.930 . S
C761 C758 1.348 . S
C761 C759 1.356 . S
H762 C756 0.930 . S
H763 C760 0.930 . S
O764 Li704 1.956 . S
O764 Li705 1.970 . S
O764 Li706 1.961 . S
O764 C708 1.325 . S
O765 Li704 1.970 . S
O765 Li705 1.956 . S
O765 Li707 1.961 . S
O765 C714 1.325 . S
O766 Li704 1.961 . S
O766 Li706 1.956 . S
O766 Li707 1.970 . S
O766 C736 1.325 . S
O767 Li705 1.961 . S
O767 Li706 1.970 . S
O767 Li707 1.956 . S
O767 C742 1.325 . S
H768 C710 0.929 . S
H769 C711 0.930 . S
H770 C712 0.930 . S
H771 C713 0.930 . S
H772 C715 0.930 . S
H773 C717 0.929 . S
H774 C718 0.930 . S
H775 C719 0.930 . S
H776 C722 0.930 . S
H777 C725 0.929 . S
H778 C730 0.929 . S
H779 C731 0.930 . S
H780 C738 0.929 . S
H781 C739 0.930 . S
H782 C740 0.930 . S
H783 C741 0.930 . S
H784 C743 0.929 . S
H785 C744 0.930 . S
H786 C745 0.930 1_556 S
H787 C746 0.916 1_556 S
H788 C750 0.929 . S
H789 C752 0.930 . S
H790 C758 0.929 . S
H791 C759 0.930 . S
Li792 N809 1.990 . S
Li792 O852 1.956 . S
Li792 O853 1.970 . S
Li792 O854 1.961 . S
Li793 N817 1.990 . S
Li793 O852 1.970 . S
Li793 O853 1.956 . S
Li793 O855 1.961 . S
Li794 N839 1.990 . S
Li794 O852 1.961 . S
Li794 O854 1.956 . S
Li794 O855 1.970 . S
Li795 N845 1.990 . S
Li795 O853 1.961 . S
Li795 O854 1.970 . S
Li795 O855 1.956 . S
C796 C798 1.348 . S
C796 C799 1.356 . S
C796 O852 1.325 . S
N797 C800 1.314 . S
N797 C801 1.279 . S
C798 C796 1.348 . S
C798 C800 1.353 . S
C798 H856 0.929 . S
C799 C796 1.356 . S
C799 C801 1.358 . S
C799 H857 0.930 . S
C800 N797 1.314 . S
C800 C798 1.353 . S
C800 H858 0.930 . S
C801 N797 1.279 . S
C801 C799 1.358 . S
C801 H859 0.930 . S
C802 C805 1.348 . S
C802 C806 1.356 . S
C802 O853 1.325 . S
C803 N804 1.279 . S
C803 C806 1.358 . S
C803 H860 0.930 . S
N804 C803 1.279 . S
N804 C807 1.314 . S
C805 C802 1.348 . S
C805 C807 1.353 . S
C805 H861 0.929 . S
C806 C802 1.356 . S
C806 C803 1.358 . S
C806 H862 0.930 . S
C807 N804 1.314 . S
C807 C805 1.353 . S
C807 H863 0.930 . S
C808 N809 1.314 . S
C808 C813 1.353 . S
C808 H814 0.930 . S
N809 Li792 1.990 . S
N809 C808 1.314 . S
N809 C811 1.279 . S
C810 C811 1.358 . S
C810 C812 1.356 . S
C810 H864 0.930 . S
C811 N809 1.279 . S
C811 C810 1.358 . S
C811 H815 0.930 . S
C812 C810 1.356 . S
C812 C813 1.348 . S
C813 C808 1.353 . S
C813 C812 1.348 . S
C813 H865 0.929 . S
H814 C808 0.930 . S
H815 C811 0.930 . S
C816 N817 1.314 . S
C816 C818 1.353 . S
C816 H822 0.930 . S
N817 Li793 1.990 . S
N817 C816 1.314 . S
N817 C820 1.279 . S
C818 C816 1.353 . S
C818 C821 1.348 . S
C818 H866 0.929 . S
C819 C820 1.358 . S
C819 C821 1.356 . S
C819 H867 0.930 . S
C820 N817 1.279 . S
C820 C819 1.358 . S
C820 H823 0.930 . S
C821 C818 1.348 . S
C821 C819 1.356 . S
H822 C816 0.930 . S
H823 C820 0.930 . S
C824 C826 1.348 . S
C824 C827 1.356 . S
C824 O854 1.325 . S
N825 C828 1.314 . S
N825 C829 1.279 . S
C826 C824 1.348 . S
C826 C828 1.353 . S
C826 H868 0.929 . S
C827 C824 1.356 . S
C827 C829 1.358 . S
C827 H869 0.930 . S
C828 N825 1.314 . S
C828 C826 1.353 . S
C828 H870 0.930 . S
C829 N825 1.279 . S
C829 C827 1.358 . S
C829 H871 0.930 . S
C830 C831 1.348 . S
C830 C832 1.356 . S
C830 O855 1.325 . S
C831 C830 1.348 . S
C831 C833 1.353 . S
C831 H872 0.929 . S
C832 C830 1.356 . S
C832 C834 1.358 . S
C832 H873 0.930 . S
C833 C831 1.353 . S
C833 N835 1.314 . S
C833 H874 0.930 . S
C834 C832 1.358 . S
C834 N835 1.279 . S
C834 H875 0.930 . S
N835 C833 1.314 . S
N835 C834 1.279 . S
C836 C838 1.353 . S
C836 N839 1.314 . S
C836 H842 0.930 . S
C837 N839 1.279 . S
C837 C840 1.358 . S
C837 H843 0.930 . S
C838 C836 1.353 . S
C838 C841 1.348 . S
C838 H876 0.929 . S
N839 Li794 1.990 . S
N839 C836 1.314 . S
N839 C837 1.279 . S
C840 C837 1.358 . S
C840 C841 1.356 . S
C840 H877 0.930 . S
C841 C838 1.348 . S
C841 C840 1.356 . S
H842 C836 0.930 . S
H843 C837 0.930 . S
C844 N845 1.314 . S
C844 C846 1.353 . S
C844 H850 0.930 . S
N845 Li795 1.990 . S
N845 C844 1.314 . S
N845 C848 1.279 . S
C846 C844 1.353 . S
C846 C849 1.348 . S
C846 H878 0.929 . S
C847 C848 1.358 . S
C847 C849 1.356 . S
C847 H879 0.930 . S
C848 N845 1.279 . S
C848 C847 1.358 . S
C848 H851 0.930 . S
C849 C846 1.348 . S
C849 C847 1.356 . S
H850 C844 0.930 . S
H851 C848 0.930 . S
O852 Li792 1.956 . S
O852 Li793 1.970 . S
O852 Li794 1.961 . S
O852 C796 1.325 . S
O853 Li792 1.970 . S
O853 Li793 1.956 . S
O853 Li795 1.961 . S
O853 C802 1.325 . S
O854 Li792 1.961 . S
O854 Li794 1.956 . S
O854 Li795 1.970 . S
O854 C824 1.325 . S
O855 Li793 1.961 . S
O855 Li794 1.970 . S
O855 Li795 1.956 . S
O855 C830 1.325 . S
H856 C798 0.929 . S
H857 C799 0.930 . S
H858 C800 0.930 . S
H859 C801 0.930 . S
H860 C803 0.930 . S
H861 C805 0.929 . S
H862 C806 0.930 . S
H863 C807 0.930 . S
H864 C810 0.930 . S
H865 C813 0.929 . S
H866 C818 0.929 . S
H867 C819 0.930 . S
H868 C826 0.929 . S
H869 C827 0.930 . S
H870 C828 0.930 . S
H871 C829 0.930 . S
H872 C831 0.929 . S
H873 C832 0.930 . S
H874 C833 0.930 . S
H875 C834 0.930 . S
H876 C838 0.929 . S
H877 C840 0.930 . S
H878 C846 0.929 . S
H879 C847 0.930 . S
Li880 N897 1.990 . S
Li880 O940 1.956 . S
Li880 O941 1.970 . S
Li880 O942 1.961 . S
Li881 N905 1.990 . S
Li881 O940 1.970 . S
Li881 O941 1.956 . S
Li881 O943 1.961 . S
Li882 N927 1.990 . S
Li882 O940 1.961 . S
Li882 O942 1.956 . S
Li882 O943 1.970 . S
Li883 N933 1.990 . S
Li883 O941 1.961 . S
Li883 O942 1.970 . S
Li883 O943 1.956 . S
C884 C886 1.348 . S
C884 C887 1.356 . S
C884 O940 1.325 . S
N885 C888 1.314 . S
N885 C889 1.279 . S
C886 C884 1.348 . S
C886 C888 1.353 . S
C886 H944 0.929 . S
C887 C884 1.356 . S
C887 C889 1.358 . S
C887 H945 0.930 . S
C888 N885 1.314 . S
C888 C886 1.353 . S
C888 H946 0.930 . S
C889 N885 1.279 . S
C889 C887 1.358 . S
C889 H947 0.930 . S
C890 C893 1.348 . S
C890 C894 1.356 . S
C890 O941 1.325 . S
C891 N892 1.279 1_556 S
C891 C894 1.358 . S
C891 H948 0.916 1_556 S
N892 C891 1.279 1_554 S
N892 C895 1.314 1_554 S
C893 C890 1.348 . S
C893 C895 1.353 . S
C893 H949 0.929 . S
C894 C890 1.356 . S
C894 C891 1.358 . S
C894 H950 0.930 . S
C895 N892 1.314 1_556 S
C895 C893 1.353 . S
C895 H951 0.930 1_556 S
C896 N897 1.314 . S
C896 C901 1.353 . S
C896 H902 0.930 . S
N897 Li880 1.990 . S
N897 C896 1.314 . S
N897 C899 1.279 . S
C898 C899 1.358 . S
C898 C900 1.356 . S
C898 H952 0.930 . S
C899 N897 1.279 . S
C899 C898 1.358 . S
C899 H903 0.930 . S
C900 C898 1.356 . S
C900 C901 1.348 . S
C901 C896 1.353 . S
C901 C900 1.348 . S
C901 H953 0.929 . S
H902 C896 0.930 . S
H903 C899 0.930 . S
C904 N905 1.314 . S
C904 C906 1.353 . S
C904 H910 0.930 . S
N905 Li881 1.990 . S
N905 C904 1.314 . S
N905 C908 1.279 . S
C906 C904 1.353 . S
C906 C909 1.348 . S
C906 H954 0.929 . S
C907 C908 1.358 . S
C907 C909 1.356 . S
C907 H955 0.930 . S
C908 N905 1.279 . S
C908 C907 1.358 . S
C908 H911 0.930 . S
C909 C906 1.348 . S
C909 C907 1.356 . S
H910 C904 0.930 . S
H911 C908 0.930 . S
C912 C914 1.348 . S
C912 C915 1.356 . S
C912 O942 1.325 . S
N913 C916 1.314 . S
N913 C917 1.279 . S
C914 C912 1.348 . S
C914 C916 1.353 . S
C914 H956 0.929 . S
C915 C912 1.356 . S
C915 C917 1.358 . S
C915 H957 0.930 . S
C916 N913 1.314 . S
C916 C914 1.353 . S
C916 H958 0.930 . S
C917 N913 1.279 . S
C917 C915 1.358 . S
C917 H959 0.930 . S
C918 C919 1.348 . S
C918 C920 1.356 . S
C918 O943 1.325 . S
C919 C918 1.348 . S
C919 C921 1.353 . S
C919 H960 0.929 . S
C920 C918 1.356 . S
C920 C922 1.358 . S
C920 H961 0.930 . S
C921 C919 1.353 . S
C921 N923 1.314 . S
C921 H962 0.930 . S
C922 C920 1.358 . S
C922 N923 1.279 . S
C922 H963 0.930 . S
N923 C921 1.314 . S
N923 C922 1.279 . S
C924 C926 1.353 . S
C924 N927 1.314 . S
C924 H930 0.930 . S
C925 N927 1.279 . S
C925 C928 1.358 . S
C925 H931 0.930 . S
C926 C924 1.353 . S
C926 C929 1.348 . S
C926 H964 0.929 . S
N927 Li882 1.990 . S
N927 C924 1.314 . S
N927 C925 1.279 . S
C928 C925 1.358 . S
C928 C929 1.356 . S
C928 H965 0.930 . S
C929 C926 1.348 . S
C929 C928 1.356 . S
H930 C924 0.930 . S
H931 C925 0.930 . S
C932 N933 1.314 . S
C932 C934 1.353 . S
C932 H938 0.930 . S
N933 Li883 1.990 . S
N933 C932 1.314 . S
N933 C936 1.279 . S
C934 C932 1.353 . S
C934 C937 1.348 . S
C934 H966 0.929 . S
C935 C936 1.358 . S
C935 C937 1.356 . S
C935 H967 0.930 . S
C936 N933 1.279 . S
C936 C935 1.358 . S
C936 H939 0.930 . S
C937 C934 1.348 . S
C937 C935 1.356 . S
H938 C932 0.930 . S
H939 C936 0.930 . S
O940 Li880 1.956 . S
O940 Li881 1.970 . S
O940 Li882 1.961 . S
O940 C884 1.325 . S
O941 Li880 1.970 . S
O941 Li881 1.956 . S
O941 Li883 1.961 . S
O941 C890 1.325 . S
O942 Li880 1.961 . S
O942 Li882 1.956 . S
O942 Li883 1.970 . S
O942 C912 1.325 . S
O943 Li881 1.961 . S
O943 Li882 1.970 . S
O943 Li883 1.956 . S
O943 C918 1.325 . S
H944 C886 0.929 . S
H945 C887 0.930 . S
H946 C888 0.930 . S
H947 C889 0.930 . S
H948 C891 0.916 1_554 S
H949 C893 0.929 . S
H950 C894 0.930 . S
H951 C895 0.930 1_554 S
H952 C898 0.930 . S
H953 C901 0.929 . S
H954 C906 0.929 . S
H955 C907 0.930 . S
H956 C914 0.929 . S
H957 C915 0.930 . S
H958 C916 0.930 . S
H959 C917 0.930 . S
H960 C919 0.929 . S
H961 C920 0.930 . S
H962 C921 0.930 . S
H963 C922 0.930 . S
H964 C926 0.929 . S
H965 C928 0.930 . S
H966 C934 0.929 . S
H967 C935 0.930 . S
Li968 N985 1.990 . S
Li968 O1028 1.956 . S
Li968 O1029 1.970 . S
Li968 O1030 1.961 . S
Li969 N993 1.990 . S
Li969 O1028 1.970 . S
Li969 O1029 1.956 . S
Li969 O1031 1.961 . S
Li970 N1015 1.990 . S
Li970 O1028 1.961 . S
Li970 O1030 1.956 . S
Li970 O1031 1.970 . S
Li971 N1021 1.990 . S
Li971 O1029 1.961 . S
Li971 O1030 1.970 . S
Li971 O1031 1.956 . S
C972 C974 1.348 . S
C972 C975 1.356 . S
C972 O1028 1.325 . S
N973 C976 1.314 . S
N973 C977 1.279 . S
C974 C972 1.348 . S
C974 C976 1.353 . S
C974 H1032 0.929 . S
C975 C972 1.356 . S
C975 C977 1.358 . S
C975 H1033 0.930 . S
C976 N973 1.314 . S
C976 C974 1.353 . S
C976 H1034 0.930 . S
C977 N973 1.279 . S
C977 C975 1.358 . S
C977 H1035 0.930 . S
C978 C981 1.348 . S
C978 C982 1.356 . S
C978 O1029 1.325 . S
C979 N980 1.279 . S
C979 C982 1.358 . S
C979 H1036 0.930 . S
N980 C979 1.279 . S
N980 C983 1.314 . S
C981 C978 1.348 . S
C981 C983 1.353 . S
C981 H1037 0.929 . S
C982 C978 1.356 . S
C982 C979 1.358 . S
C982 H1038 0.930 . S
C983 N980 1.314 . S
C983 C981 1.353 . S
C983 H1039 0.930 . S
C984 N985 1.314 . S
C984 C989 1.353 . S
C984 H990 0.930 . S
N985 Li968 1.990 . S
N985 C984 1.314 . S
N985 C987 1.279 . S
C986 C987 1.358 . S
C986 C988 1.356 . S
C986 H1040 0.930 . S
C987 N985 1.279 . S
C987 C986 1.358 . S
C987 H991 0.930 . S
C988 C986 1.356 . S
C988 C989 1.348 . S
C989 C984 1.353 . S
C989 C988 1.348 . S
C989 H1041 0.929 . S
H990 C984 0.930 . S
H991 C987 0.930 . S
C992 N993 1.314 . S
C992 C994 1.353 . S
C992 H998 0.930 . S
N993 Li969 1.990 . S
N993 C992 1.314 . S
N993 C996 1.279 . S
C994 C992 1.353 . S
C994 C997 1.348 . S
C994 H1042 0.929 . S
C995 C996 1.358 . S
C995 C997 1.356 . S
C995 H1043 0.930 . S
C996 N993 1.279 . S
C996 C995 1.358 . S
C996 H999 0.930 . S
C997 C994 1.348 . S
C997 C995 1.356 . S
H998 C992 0.930 . S
H999 C996 0.930 . S
C1000 C1002 1.348 . S
C1000 C1003 1.356 . S
C1000 O1030 1.325 . S
N1001 C1004 1.314 . S
N1001 C1005 1.279 . S
C1002 C1000 1.348 . S
C1002 C1004 1.353 . S
C1002 H1044 0.929 . S
C1003 C1000 1.356 . S
C1003 C1005 1.358 . S
C1003 H1045 0.930 . S
C1004 N1001 1.314 . S
C1004 C1002 1.353 . S
C1004 H1046 0.930 . S
C1005 N1001 1.279 . S
C1005 C1003 1.358 . S
C1005 H1047 0.930 . S
C1006 C1007 1.348 . S
C1006 C1008 1.356 . S
C1006 O1031 1.325 . S
C1007 C1006 1.348 . S
C1007 C1009 1.353 . S
C1007 H1048 0.929 . S
C1008 C1006 1.356 . S
C1008 C1010 1.358 . S
C1008 H1049 0.930 . S
C1009 C1007 1.353 . S
C1009 N1011 1.314 . S
C1009 H1050 0.930 . S
C1010 C1008 1.358 . S
C1010 N1011 1.279 . S
C1010 H1051 0.930 . S
N1011 C1009 1.314 . S
N1011 C1010 1.279 . S
C1012 C1014 1.353 . S
C1012 N1015 1.314 . S
C1012 H1018 0.930 . S
C1013 N1015 1.279 . S
C1013 C1016 1.358 . S
C1013 H1019 0.930 . S
C1014 C1012 1.353 . S
C1014 C1017 1.348 . S
C1014 H1052 0.929 . S
N1015 Li970 1.990 . S
N1015 C1012 1.314 . S
N1015 C1013 1.279 . S
C1016 C1013 1.358 . S
C1016 C1017 1.356 . S
C1016 H1053 0.930 . S
C1017 C1014 1.348 . S
C1017 C1016 1.356 . S
H1018 C1012 0.930 . S
H1019 C1013 0.930 . S
C1020 N1021 1.314 . S
C1020 C1022 1.353 . S
C1020 H1026 0.930 . S
N1021 Li971 1.990 . S
N1021 C1020 1.314 . S
N1021 C1024 1.279 . S
C1022 C1020 1.353 . S
C1022 C1025 1.348 . S
C1022 H1054 0.929 . S
C1023 C1024 1.358 . S
C1023 C1025 1.356 . S
C1023 H1055 0.930 . S
C1024 N1021 1.279 . S
C1024 C1023 1.358 . S
C1024 H1027 0.930 . S
C1025 C1022 1.348 . S
C1025 C1023 1.356 . S
H1026 C1020 0.930 . S
H1027 C1024 0.930 . S
O1028 Li968 1.956 . S
O1028 Li969 1.970 . S
O1028 Li970 1.961 . S
O1028 C972 1.325 . S
O1029 Li968 1.970 . S
O1029 Li969 1.956 . S
O1029 Li971 1.961 . S
O1029 C978 1.325 . S
O1030 Li968 1.961 . S
O1030 Li970 1.956 . S
O1030 Li971 1.970 . S
O1030 C1000 1.325 . S
O1031 Li969 1.961 . S
O1031 Li970 1.970 . S
O1031 Li971 1.956 . S
O1031 C1006 1.325 . S
H1032 C974 0.929 . S
H1033 C975 0.930 . S
H1034 C976 0.930 . S
H1035 C977 0.930 . S
H1036 C979 0.930 . S
H1037 C981 0.929 . S
H1038 C982 0.930 . S
H1039 C983 0.930 . S
H1040 C986 0.930 . S
H1041 C989 0.929 . S
H1042 C994 0.929 . S
H1043 C995 0.930 . S
H1044 C1002 0.929 . S
H1045 C1003 0.930 . S
H1046 C1004 0.930 . S
H1047 C1005 0.930 . S
H1048 C1007 0.929 . S
H1049 C1008 0.930 . S
H1050 C1009 0.930 . S
H1051 C1010 0.930 . S
H1052 C1014 0.929 . S
H1053 C1016 0.930 . S
H1054 C1022 0.929 . S
H1055 C1023 0.930 . S
Li1056 N1073 1.990 . S
Li1056 O1116 1.956 . S
Li1056 O1117 1.970 . S
Li1056 O1118 1.961 . S
Li1057 N1081 1.990 . S
Li1057 O1116 1.970 . S
Li1057 O1117 1.956 . S
Li1057 O1119 1.961 . S
Li1058 N1103 1.990 . S
Li1058 O1116 1.961 . S
Li1058 O1118 1.956 . S
Li1058 O1119 1.970 . S
Li1059 N1109 1.990 . S
Li1059 O1117 1.961 . S
Li1059 O1118 1.970 . S
Li1059 O1119 1.956 . S
C1060 C1062 1.348 . S
C1060 C1063 1.356 . S
C1060 O1116 1.325 . S
N1061 C1064 1.308 1_554 S
N1061 C1065 1.279 1_554 S
C1062 C1060 1.348 . S
C1062 C1064 1.368 . S
C1062 H1120 0.929 . S
C1063 C1060 1.356 . S
C1063 C1065 1.358 . S
C1063 H1121 0.930 . S
C1064 N1061 1.308 1_556 S
C1064 C1062 1.368 . S
C1064 H1122 0.919 1_556 S
C1065 N1061 1.279 1_556 S
C1065 C1063 1.358 . S
C1065 H1123 0.930 . S
C1066 C1069 1.348 . S
C1066 C1070 1.356 . S
C1066 O1117 1.325 . S
C1067 N1068 1.279 . S
C1067 C1070 1.358 . S
C1067 H1124 0.930 . S
N1068 C1067 1.279 . S
N1068 C1071 1.314 . S
C1069 C1066 1.348 . S
C1069 C1071 1.353 . S
C1069 H1125 0.929 . S
C1070 C1066 1.356 . S
C1070 C1067 1.358 . S
C1070 H1126 0.930 . S
C1071 N1068 1.314 . S
C1071 C1069 1.353 . S
C1071 H1127 0.930 . S
C1072 N1073 1.314 . S
C1072 C1077 1.353 . S
C1072 H1078 0.930 . S
N1073 Li1056 1.990 . S
N1073 C1072 1.314 . S
N1073 C1075 1.279 . S
C1074 C1075 1.358 . S
C1074 C1076 1.356 . S
C1074 H1128 0.930 . S
C1075 N1073 1.279 . S
C1075 C1074 1.358 . S
C1075 H1079 0.930 . S
C1076 C1074 1.356 . S
C1076 C1077 1.348 . S
C1077 C1072 1.353 . S
C1077 C1076 1.348 . S
C1077 H1129 0.929 . S
H1078 C1072 0.930 . S
H1079 C1075 0.930 . S
C1080 N1081 1.314 . S
C1080 C1082 1.353 . S
C1080 H1086 0.930 . S
N1081 Li1057 1.990 . S
N1081 C1080 1.314 . S
N1081 C1084 1.279 . S
C1082 C1080 1.353 . S
C1082 C1085 1.348 . S
C1082 H1130 0.929 . S
C1083 C1084 1.358 . S
C1083 C1085 1.356 . S
C1083 H1131 0.930 . S
C1084 N1081 1.279 . S
C1084 C1083 1.358 . S
C1084 H1087 0.930 . S
C1085 C1082 1.348 . S
C1085 C1083 1.356 . S
H1086 C1080 0.930 . S
H1087 C1084 0.930 . S
C1088 C1090 1.348 . S
C1088 C1091 1.356 . S
C1088 O1118 1.325 . S
N1089 C1092 1.314 . S
N1089 C1093 1.279 . S
C1090 C1088 1.348 . S
C1090 C1092 1.353 . S
C1090 H1132 0.929 . S
C1091 C1088 1.356 . S
C1091 C1093 1.358 . S
C1091 H1133 0.930 . S
C1092 N1089 1.314 . S
C1092 C1090 1.353 . S
C1092 H1134 0.930 . S
C1093 N1089 1.279 . S
C1093 C1091 1.358 . S
C1093 H1135 0.930 . S
C1094 C1095 1.348 . S
C1094 C1096 1.356 . S
C1094 O1119 1.325 . S
C1095 C1094 1.348 . S
C1095 C1097 1.353 . S
C1095 H1136 0.929 . S
C1096 C1094 1.356 . S
C1096 C1098 1.358 . S
C1096 H1137 0.930 . S
C1097 C1095 1.353 . S
C1097 N1099 1.314 . S
C1097 H1138 0.930 . S
C1098 C1096 1.358 . S
C1098 N1099 1.279 . S
C1098 H1139 0.930 . S
N1099 C1097 1.314 . S
N1099 C1098 1.279 . S
C1100 C1102 1.353 . S
C1100 N1103 1.314 . S
C1100 H1106 0.930 . S
C1101 N1103 1.279 . S
C1101 C1104 1.358 . S
C1101 H1107 0.930 . S
C1102 C1100 1.353 . S
C1102 C1105 1.348 . S
C1102 H1140 0.929 . S
N1103 Li1058 1.990 . S
N1103 C1100 1.314 . S
N1103 C1101 1.279 . S
C1104 C1101 1.358 . S
C1104 C1105 1.356 . S
C1104 H1141 0.930 . S
C1105 C1102 1.348 . S
C1105 C1104 1.356 . S
H1106 C1100 0.930 . S
H1107 C1101 0.930 . S
C1108 N1109 1.314 . S
C1108 C1110 1.353 . S
C1108 H1114 0.930 . S
N1109 Li1059 1.990 . S
N1109 C1108 1.314 . S
N1109 C1112 1.279 . S
C1110 C1108 1.353 . S
C1110 C1113 1.348 . S
C1110 H1142 0.929 . S
C1111 C1112 1.358 . S
C1111 C1113 1.356 . S
C1111 H1143 0.930 . S
C1112 N1109 1.279 . S
C1112 C1111 1.358 . S
C1112 H1115 0.930 . S
C1113 C1110 1.348 . S
C1113 C1111 1.356 . S
H1114 C1108 0.930 . S
H1115 C1112 0.930 . S
O1116 Li1056 1.956 . S
O1116 Li1057 1.970 . S
O1116 Li1058 1.961 . S
O1116 C1060 1.325 . S
O1117 Li1056 1.970 . S
O1117 Li1057 1.956 . S
O1117 Li1059 1.961 . S
O1117 C1066 1.325 . S
O1118 Li1056 1.961 . S
O1118 Li1058 1.956 . S
O1118 Li1059 1.970 . S
O1118 C1088 1.325 . S
O1119 Li1057 1.961 . S
O1119 Li1058 1.970 . S
O1119 Li1059 1.956 . S
O1119 C1094 1.325 . S
H1120 C1062 0.929 . S
H1121 C1063 0.930 . S
H1122 C1064 0.919 1_554 S
H1123 C1065 0.930 . S
H1124 C1067 0.930 . S
H1125 C1069 0.929 . S
H1126 C1070 0.930 . S
H1127 C1071 0.930 . S
H1128 C1074 0.930 . S
H1129 C1077 0.929 . S
H1130 C1082 0.929 . S
H1131 C1083 0.930 . S
H1132 C1090 0.929 . S
H1133 C1091 0.930 . S
H1134 C1092 0.930 . S
H1135 C1093 0.930 . S
H1136 C1095 0.929 . S
H1137 C1096 0.930 . S
H1138 C1097 0.930 . S
H1139 C1098 0.930 . S
H1140 C1102 0.929 . S
H1141 C1104 0.930 . S
H1142 C1110 0.929 . S
H1143 C1111 0.930 . S
Li1144 N1161 1.990 . S
Li1144 O1204 1.956 . S
Li1144 O1205 1.970 . S
Li1144 O1206 1.961 . S
Li1145 N1169 1.990 . S
Li1145 O1204 1.970 . S
Li1145 O1205 1.956 . S
Li1145 O1207 1.961 . S
Li1146 N1191 1.990 . S
Li1146 O1204 1.961 . S
Li1146 O1206 1.956 . S
Li1146 O1207 1.970 . S
Li1147 N1197 1.990 . S
Li1147 O1205 1.961 . S
Li1147 O1206 1.970 . S
Li1147 O1207 1.956 . S
C1148 C1150 1.348 . S
C1148 C1151 1.356 . S
C1148 O1204 1.325 . S
N1149 C1152 1.314 . S
N1149 C1153 1.279 . S
C1150 C1148 1.348 . S
C1150 C1152 1.353 . S
C1150 H1208 0.929 . S
C1151 C1148 1.356 . S
C1151 C1153 1.358 . S
C1151 H1209 0.930 . S
C1152 N1149 1.314 . S
C1152 C1150 1.353 . S
C1152 H1210 0.930 . S
C1153 N1149 1.279 . S
C1153 C1151 1.358 . S
C1153 H1211 0.930 . S
C1154 C1157 1.348 . S
C1154 C1158 1.356 . S
C1154 O1205 1.325 . S
C1155 N1156 1.279 . S
C1155 C1158 1.358 . S
C1155 H1212 0.930 . S
N1156 C1155 1.279 . S
N1156 C1159 1.314 . S
C1157 C1154 1.348 . S
C1157 C1159 1.353 . S
C1157 H1213 0.929 . S
C1158 C1154 1.356 . S
C1158 C1155 1.358 . S
C1158 H1214 0.930 . S
C1159 N1156 1.314 . S
C1159 C1157 1.353 . S
C1159 H1215 0.930 . S
C1160 N1161 1.314 . S
C1160 C1165 1.353 . S
C1160 H1166 0.930 . S
N1161 Li1144 1.990 . S
N1161 C1160 1.314 . S
N1161 C1163 1.279 . S
C1162 C1163 1.358 . S
C1162 C1164 1.356 . S
C1162 H1216 0.930 . S
C1163 N1161 1.279 . S
C1163 C1162 1.358 . S
C1163 H1167 0.930 . S
C1164 C1162 1.356 . S
C1164 C1165 1.348 . S
C1165 C1160 1.353 . S
C1165 C1164 1.348 . S
C1165 H1217 0.929 . S
H1166 C1160 0.930 . S
H1167 C1163 0.930 . S
C1168 N1169 1.314 . S
C1168 C1170 1.353 . S
C1168 H1174 0.930 . S
N1169 Li1145 1.990 . S
N1169 C1168 1.314 . S
N1169 C1172 1.279 . S
C1170 C1168 1.353 . S
C1170 C1173 1.348 . S
C1170 H1218 0.929 . S
C1171 C1172 1.358 . S
C1171 C1173 1.356 . S
C1171 H1219 0.930 . S
C1172 N1169 1.279 . S
C1172 C1171 1.358 . S
C1172 H1175 0.930 . S
C1173 C1170 1.348 . S
C1173 C1171 1.356 . S
H1174 C1168 0.930 . S
H1175 C1172 0.930 . S
C1176 C1178 1.348 . S
C1176 C1179 1.356 . S
C1176 O1206 1.325 . S
N1177 C1180 1.314 . S
N1177 C1181 1.279 . S
C1178 C1176 1.348 . S
C1178 C1180 1.353 . S
C1178 H1220 0.929 . S
C1179 C1176 1.356 . S
C1179 C1181 1.358 . S
C1179 H1221 0.930 . S
C1180 N1177 1.314 . S
C1180 C1178 1.353 . S
C1180 H1222 0.930 . S
C1181 N1177 1.279 . S
C1181 C1179 1.358 . S
C1181 H1223 0.930 . S
C1182 C1183 1.348 . S
C1182 C1184 1.356 . S
C1182 O1207 1.325 . S
C1183 C1182 1.348 . S
C1183 C1185 1.353 . S
C1183 H1224 0.929 . S
C1184 C1182 1.356 . S
C1184 C1186 1.358 . S
C1184 H1225 0.930 . S
C1185 C1183 1.353 . S
C1185 N1187 1.314 . S
C1185 H1226 0.930 . S
C1186 C1184 1.358 . S
C1186 N1187 1.279 . S
C1186 H1227 0.930 . S
N1187 C1185 1.314 . S
N1187 C1186 1.279 . S
C1188 C1190 1.353 . S
C1188 N1191 1.314 . S
C1188 H1194 0.930 . S
C1189 N1191 1.279 . S
C1189 C1192 1.358 . S
C1189 H1195 0.930 . S
C1190 C1188 1.353 . S
C1190 C1193 1.348 . S
C1190 H1228 0.929 . S
N1191 Li1146 1.990 . S
N1191 C1188 1.314 . S
N1191 C1189 1.279 . S
C1192 C1189 1.358 . S
C1192 C1193 1.356 . S
C1192 H1229 0.930 . S
C1193 C1190 1.348 . S
C1193 C1192 1.356 . S
H1194 C1188 0.930 . S
H1195 C1189 0.930 . S
C1196 N1197 1.314 . S
C1196 C1198 1.353 . S
C1196 H1202 0.930 . S
N1197 Li1147 1.990 . S
N1197 C1196 1.314 . S
N1197 C1200 1.279 . S
C1198 C1196 1.353 . S
C1198 C1201 1.348 . S
C1198 H1230 0.929 . S
C1199 C1200 1.358 . S
C1199 C1201 1.356 . S
C1199 H1231 0.930 . S
C1200 N1197 1.279 . S
C1200 C1199 1.358 . S
C1200 H1203 0.930 . S
C1201 C1198 1.348 . S
C1201 C1199 1.356 . S
H1202 C1196 0.930 . S
H1203 C1200 0.930 . S
O1204 Li1144 1.956 . S
O1204 Li1145 1.970 . S
O1204 Li1146 1.961 . S
O1204 C1148 1.325 . S
O1205 Li1144 1.970 . S
O1205 Li1145 1.956 . S
O1205 Li1147 1.961 . S
O1205 C1154 1.325 . S
O1206 Li1144 1.961 . S
O1206 Li1146 1.956 . S
O1206 Li1147 1.970 . S
O1206 C1176 1.325 . S
O1207 Li1145 1.961 . S
O1207 Li1146 1.970 . S
O1207 Li1147 1.956 . S
O1207 C1182 1.325 . S
H1208 C1150 0.929 . S
H1209 C1151 0.930 . S
H1210 C1152 0.930 . S
H1211 C1153 0.930 . S
H1212 C1155 0.930 . S
H1213 C1157 0.929 . S
H1214 C1158 0.930 . S
H1215 C1159 0.930 . S
H1216 C1162 0.930 . S
H1217 C1165 0.929 . S
H1218 C1170 0.929 . S
H1219 C1171 0.930 . S
H1220 C1178 0.929 . S
H1221 C1179 0.930 . S
H1222 C1180 0.930 . S
H1223 C1181 0.930 . S
H1224 C1183 0.929 . S
H1225 C1184 0.930 . S
H1226 C1185 0.930 . S
H1227 C1186 0.930 . S
H1228 C1190 0.929 . S
H1229 C1192 0.930 . S
H1230 C1198 0.929 . S
H1231 C1199 0.930 . S
Li1232 N1249 1.990 . S
Li1232 O1292 1.956 . S
Li1232 O1293 1.970 . S
Li1232 O1294 1.961 . S
Li1233 N1257 1.990 . S
Li1233 O1292 1.970 . S
Li1233 O1293 1.956 . S
Li1233 O1295 1.961 . S
Li1234 N1279 1.990 . S
Li1234 O1292 1.961 . S
Li1234 O1294 1.956 . S
Li1234 O1295 1.970 . S
Li1235 N1285 1.990 . S
Li1235 O1293 1.961 . S
Li1235 O1294 1.970 . S
Li1235 O1295 1.956 . S
C1236 C1238 1.348 . S
C1236 C1239 1.356 . S
C1236 O1292 1.325 . S
N1237 C1240 1.314 . S
N1237 C1241 1.279 . S
C1238 C1236 1.348 . S
C1238 C1240 1.353 . S
C1238 H1296 0.929 . S
C1239 C1236 1.356 . S
C1239 C1241 1.358 . S
C1239 H1297 0.930 . S
C1240 N1237 1.314 . S
C1240 C1238 1.353 . S
C1240 H1298 0.930 . S
C1241 N1237 1.279 . S
C1241 C1239 1.358 . S
C1241 H1299 0.930 . S
C1242 C1245 1.348 . S
C1242 C1246 1.356 . S
C1242 O1293 1.325 . S
C1243 N1244 1.279 . S
C1243 C1246 1.358 . S
C1243 H1300 0.930 . S
N1244 C1243 1.279 . S
N1244 C1247 1.314 . S
C1245 C1242 1.348 . S
C1245 C1247 1.353 . S
C1245 H1301 0.929 . S
C1246 C1242 1.356 . S
C1246 C1243 1.358 . S
C1246 H1302 0.930 . S
C1247 N1244 1.314 . S
C1247 C1245 1.353 . S
C1247 H1303 0.930 . S
C1248 N1249 1.314 . S
C1248 C1253 1.353 . S
C1248 H1254 0.930 . S
N1249 Li1232 1.990 . S
N1249 C1248 1.314 . S
N1249 C1251 1.279 . S
C1250 C1251 1.358 . S
C1250 C1252 1.356 . S
C1250 H1304 0.930 . S
C1251 N1249 1.279 . S
C1251 C1250 1.358 . S
C1251 H1255 0.930 . S
C1252 C1250 1.356 . S
C1252 C1253 1.348 . S
C1253 C1248 1.353 . S
C1253 C1252 1.348 . S
C1253 H1305 0.929 . S
H1254 C1248 0.930 . S
H1255 C1251 0.930 . S
C1256 N1257 1.314 . S
C1256 C1258 1.353 . S
C1256 H1262 0.930 . S
N1257 Li1233 1.990 . S
N1257 C1256 1.314 . S
N1257 C1260 1.279 . S
C1258 C1256 1.353 . S
C1258 C1261 1.348 . S
C1258 H1306 0.929 . S
C1259 C1260 1.358 . S
C1259 C1261 1.356 . S
C1259 H1307 0.930 . S
C1260 N1257 1.279 . S
C1260 C1259 1.358 . S
C1260 H1263 0.930 . S
C1261 C1258 1.348 . S
C1261 C1259 1.356 . S
H1262 C1256 0.930 . S
H1263 C1260 0.930 . S
C1264 C1266 1.348 . S
C1264 C1267 1.356 . S
C1264 O1294 1.325 . S
N1265 C1268 1.314 . S
N1265 C1269 1.279 . S
C1266 C1264 1.348 . S
C1266 C1268 1.353 . S
C1266 H1308 0.929 . S
C1267 C1264 1.356 . S
C1267 C1269 1.358 . S
C1267 H1309 0.930 . S
C1268 N1265 1.314 . S
C1268 C1266 1.353 . S
C1268 H1310 0.930 . S
C1269 N1265 1.279 . S
C1269 C1267 1.358 . S
C1269 H1311 0.930 . S
C1270 C1271 1.348 . S
C1270 C1272 1.356 . S
C1270 O1295 1.325 . S
C1271 C1270 1.348 . S
C1271 C1273 1.368 . S
C1271 H1312 0.929 . S
C1272 C1270 1.356 . S
C1272 C1274 1.358 . S
C1272 H1313 0.930 . S
C1273 C1271 1.368 . S
C1273 N1275 1.308 1_554 S
C1273 H1314 0.919 1_554 S
C1274 C1272 1.358 . S
C1274 N1275 1.279 1_554 S
C1274 H1315 0.930 . S
N1275 C1273 1.308 1_556 S
N1275 C1274 1.279 1_556 S
C1276 C1278 1.353 . S
C1276 N1279 1.314 . S
C1276 H1282 0.930 . S
C1277 N1279 1.279 . S
C1277 C1280 1.358 . S
C1277 H1283 0.930 . S
C1278 C1276 1.353 . S
C1278 C1281 1.348 . S
C1278 H1316 0.929 . S
N1279 Li1234 1.990 . S
N1279 C1276 1.314 . S
N1279 C1277 1.279 . S
C1280 C1277 1.358 . S
C1280 C1281 1.356 . S
C1280 H1317 0.930 . S
C1281 C1278 1.348 . S
C1281 C1280 1.356 . S
H1282 C1276 0.930 . S
H1283 C1277 0.930 . S
C1284 N1285 1.314 . S
C1284 C1286 1.353 . S
C1284 H1290 0.930 . S
N1285 Li1235 1.990 . S
N1285 C1284 1.314 . S
N1285 C1288 1.279 . S
C1286 C1284 1.353 . S
C1286 C1289 1.348 . S
C1286 H1318 0.929 . S
C1287 C1288 1.358 . S
C1287 C1289 1.356 . S
C1287 H1319 0.930 . S
C1288 N1285 1.279 . S
C1288 C1287 1.358 . S
C1288 H1291 0.930 . S
C1289 C1286 1.348 . S
C1289 C1287 1.356 . S
H1290 C1284 0.930 . S
H1291 C1288 0.930 . S
O1292 Li1232 1.956 . S
O1292 Li1233 1.970 . S
O1292 Li1234 1.961 . S
O1292 C1236 1.325 . S
O1293 Li1232 1.970 . S
O1293 Li1233 1.956 . S
O1293 Li1235 1.961 . S
O1293 C1242 1.325 . S
O1294 Li1232 1.961 . S
O1294 Li1234 1.956 . S
O1294 Li1235 1.970 . S
O1294 C1264 1.325 . S
O1295 Li1233 1.961 . S
O1295 Li1234 1.970 . S
O1295 Li1235 1.956 . S
O1295 C1270 1.325 . S
H1296 C1238 0.929 . S
H1297 C1239 0.930 . S
H1298 C1240 0.930 . S
H1299 C1241 0.930 . S
H1300 C1243 0.930 . S
H1301 C1245 0.929 . S
H1302 C1246 0.930 . S
H1303 C1247 0.930 . S
H1304 C1250 0.930 . S
H1305 C1253 0.929 . S
H1306 C1258 0.929 . S
H1307 C1259 0.930 . S
H1308 C1266 0.929 . S
H1309 C1267 0.930 . S
H1310 C1268 0.930 . S
H1311 C1269 0.930 . S
H1312 C1271 0.929 . S
H1313 C1272 0.930 . S
H1314 C1273 0.919 1_556 S
H1315 C1274 0.930 . S
H1316 C1278 0.929 . S
H1317 C1280 0.930 . S
H1318 C1286 0.929 . S
H1319 C1287 0.930 . S
Li1320 N1337 1.990 . S
Li1320 O1380 1.956 . S
Li1320 O1381 1.970 . S
Li1320 O1382 1.961 . S
Li1321 N1345 1.990 . S
Li1321 O1380 1.970 . S
Li1321 O1381 1.956 . S
Li1321 O1383 1.961 . S
Li1322 N1367 1.990 . S
Li1322 O1380 1.961 . S
Li1322 O1382 1.956 . S
Li1322 O1383 1.970 . S
Li1323 N1373 1.990 . S
Li1323 O1381 1.961 . S
Li1323 O1382 1.970 . S
Li1323 O1383 1.956 . S
C1324 C1326 1.348 . S
C1324 C1327 1.356 . S
C1324 O1380 1.325 . S
N1325 C1328 1.314 . S
N1325 C1329 1.279 . S
C1326 C1324 1.348 . S
C1326 C1328 1.353 . S
C1326 H1384 0.929 . S
C1327 C1324 1.356 . S
C1327 C1329 1.358 . S
C1327 H1385 0.930 . S
C1328 N1325 1.314 . S
C1328 C1326 1.353 . S
C1328 H1386 0.930 . S
C1329 N1325 1.279 . S
C1329 C1327 1.358 . S
C1329 H1387 0.930 . S
C1330 C1333 1.348 . S
C1330 C1334 1.356 . S
C1330 O1381 1.325 . S
C1331 N1332 1.279 . S
C1331 C1334 1.358 . S
C1331 H1388 0.930 . S
N1332 C1331 1.279 . S
N1332 C1335 1.314 . S
C1333 C1330 1.348 . S
C1333 C1335 1.353 . S
C1333 H1389 0.929 . S
C1334 C1330 1.356 . S
C1334 C1331 1.358 . S
C1334 H1390 0.930 . S
C1335 N1332 1.314 . S
C1335 C1333 1.353 . S
C1335 H1391 0.930 . S
C1336 N1337 1.314 . S
C1336 C1341 1.353 . S
C1336 H1342 0.930 . S
N1337 Li1320 1.990 . S
N1337 C1336 1.314 . S
N1337 C1339 1.279 . S
C1338 C1339 1.358 . S
C1338 C1340 1.356 . S
C1338 H1392 0.930 . S
C1339 N1337 1.279 . S
C1339 C1338 1.358 . S
C1339 H1343 0.930 . S
C1340 C1338 1.356 . S
C1340 C1341 1.348 . S
C1341 C1336 1.353 . S
C1341 C1340 1.348 . S
C1341 H1393 0.929 . S
H1342 C1336 0.930 . S
H1343 C1339 0.930 . S
C1344 N1345 1.314 . S
C1344 C1346 1.353 . S
C1344 H1350 0.930 . S
N1345 Li1321 1.990 . S
N1345 C1344 1.314 . S
N1345 C1348 1.279 . S
C1346 C1344 1.353 . S
C1346 C1349 1.348 . S
C1346 H1394 0.929 . S
C1347 C1348 1.358 . S
C1347 C1349 1.356 . S
C1347 H1395 0.930 . S
C1348 N1345 1.279 . S
C1348 C1347 1.358 . S
C1348 H1351 0.930 . S
C1349 C1346 1.348 . S
C1349 C1347 1.356 . S
H1350 C1344 0.930 . S
H1351 C1348 0.930 . S
C1352 C1354 1.348 . S
C1352 C1355 1.356 . S
C1352 O1382 1.325 . S
N1353 C1356 1.314 . S
N1353 C1357 1.279 . S
C1354 C1352 1.348 . S
C1354 C1356 1.353 . S
C1354 H1396 0.929 . S
C1355 C1352 1.356 . S
C1355 C1357 1.358 . S
C1355 H1397 0.930 . S
C1356 N1353 1.314 . S
C1356 C1354 1.353 . S
C1356 H1398 0.930 . S
C1357 N1353 1.279 . S
C1357 C1355 1.358 . S
C1357 H1399 0.930 . S
C1358 C1359 1.348 . S
C1358 C1360 1.356 . S
C1358 O1383 1.325 . S
C1359 C1358 1.348 . S
C1359 C1361 1.353 . S
C1359 H1400 0.929 . S
C1360 C1358 1.356 . S
C1360 C1362 1.358 . S
C1360 H1401 0.930 . S
C1361 C1359 1.353 . S
C1361 N1363 1.314 . S
C1361 H1402 0.930 . S
C1362 C1360 1.358 . S
C1362 N1363 1.279 . S
C1362 H1403 0.930 . S
N1363 C1361 1.314 . S
N1363 C1362 1.279 . S
C1364 C1366 1.353 . S
C1364 N1367 1.314 . S
C1364 H1370 0.930 . S
C1365 N1367 1.279 . S
C1365 C1368 1.358 . S
C1365 H1371 0.930 . S
C1366 C1364 1.353 . S
C1366 C1369 1.348 . S
C1366 H1404 0.929 . S
N1367 Li1322 1.990 . S
N1367 C1364 1.314 . S
N1367 C1365 1.279 . S
C1368 C1365 1.358 . S
C1368 C1369 1.356 . S
C1368 H1405 0.930 . S
C1369 C1366 1.348 . S
C1369 C1368 1.356 . S
H1370 C1364 0.930 . S
H1371 C1365 0.930 . S
C1372 N1373 1.314 . S
C1372 C1374 1.353 . S
C1372 H1378 0.930 . S
N1373 Li1323 1.990 . S
N1373 C1372 1.314 . S
N1373 C1376 1.279 . S
C1374 C1372 1.353 . S
C1374 C1377 1.348 . S
C1374 H1406 0.929 . S
C1375 C1376 1.358 . S
C1375 C1377 1.356 . S
C1375 H1407 0.930 . S
C1376 N1373 1.279 . S
C1376 C1375 1.358 . S
C1376 H1379 0.930 . S
C1377 C1374 1.348 . S
C1377 C1375 1.356 . S
H1378 C1372 0.930 . S
H1379 C1376 0.930 . S
O1380 Li1320 1.956 . S
O1380 Li1321 1.970 . S
O1380 Li1322 1.961 . S
O1380 C1324 1.325 . S
O1381 Li1320 1.970 . S
O1381 Li1321 1.956 . S
O1381 Li1323 1.961 . S
O1381 C1330 1.325 . S
O1382 Li1320 1.961 . S
O1382 Li1322 1.956 . S
O1382 Li1323 1.970 . S
O1382 C1352 1.325 . S
O1383 Li1321 1.961 . S
O1383 Li1322 1.970 . S
O1383 Li1323 1.956 . S
O1383 C1358 1.325 . S
H1384 C1326 0.929 . S
H1385 C1327 0.930 . S
H1386 C1328 0.930 . S
H1387 C1329 0.930 . S
H1388 C1331 0.930 . S
H1389 C1333 0.929 . S
H1390 C1334 0.930 . S
H1391 C1335 0.930 . S
H1392 C1338 0.930 . S
H1393 C1341 0.929 . S
H1394 C1346 0.929 . S
H1395 C1347 0.930 . S
H1396 C1354 0.929 . S
H1397 C1355 0.930 . S
H1398 C1356 0.930 . S
H1399 C1357 0.930 . S
H1400 C1359 0.929 . S
H1401 C1360 0.930 . S
H1402 C1361 0.930 . S
H1403 C1362 0.930 . S
H1404 C1366 0.929 . S
H1405 C1368 0.930 . S
H1406 C1374 0.929 . S
H1407 C1375 0.930 . S
H1408 C1416 0.950 . S
H1409 C1421 0.950 . S
H1410 C1418 0.950 . S
H1411 C1420 0.950 . S
H1412 C1422 0.950 . S
H1413 C1424 0.950 . S
H1414 C1426 0.950 . S
H1415 C1427 0.950 . S
C1416 H1408 0.950 . S
C1416 C1417 1.386 . S
C1416 C1418 1.391 . S
C1417 C1416 1.386 . S
C1417 C1421 1.393 . S
C1418 H1410 0.950 . S
C1418 C1416 1.391 . S
C1418 C1419 1.400 . S
C1419 C1418 1.400 . S
C1419 C1420 1.398 . S
C1419 C1425 1.491 1_455 S
C1420 H1411 0.950 . S
C1420 C1419 1.398 . S
C1420 C1421 1.391 . S
C1421 H1409 0.950 . S
C1421 C1417 1.393 . S
C1421 C1420 1.391 . S
C1422 H1412 0.950 . S
C1422 C1423 1.386 . S
C1422 C1424 1.391 . S
C1423 C1422 1.386 . S
C1423 C1427 1.393 . S
C1424 H1413 0.950 . S
C1424 C1422 1.391 . S
C1424 C1425 1.400 . S
C1425 C1419 1.491 1_655 S
C1425 C1424 1.400 . S
C1425 C1426 1.398 . S
C1426 H1414 0.950 . S
C1426 C1425 1.398 . S
C1426 C1427 1.391 . S
C1427 H1415 0.950 . S
C1427 C1423 1.393 . S
C1427 C1426 1.391 . S
H1428 C1436 0.950 . S
H1429 C1441 0.950 . S
H1430 C1438 0.950 . S
H1431 C1440 0.950 . S
H1432 C1442 0.950 . S
H1433 C1444 0.950 . S
H1434 C1446 0.950 . S
H1435 C1447 0.950 . S
C1436 H1428 0.950 . S
C1436 C1437 1.386 . S
C1436 C1438 1.391 . S
C1437 C1436 1.386 . S
C1437 C1441 1.393 . S
C1438 H1430 0.950 . S
C1438 C1436 1.391 . S
C1438 C1439 1.400 . S
C1439 C1438 1.400 . S
C1439 C1440 1.398 . S
C1439 C1445 1.491 1_655 S
C1440 H1431 0.950 . S
C1440 C1439 1.398 . S
C1440 C1441 1.391 . S
C1441 H1429 0.950 . S
C1441 C1437 1.393 . S
C1441 C1440 1.391 . S
C1442 H1432 0.950 . S
C1442 C1443 1.386 . S
C1442 C1444 1.391 . S
C1443 C1442 1.386 . S
C1443 C1447 1.393 . S
C1444 H1433 0.950 . S
C1444 C1442 1.391 . S
C1444 C1445 1.400 . S
C1445 C1439 1.491 1_455 S
C1445 C1444 1.400 . S
C1445 C1446 1.398 . S
C1446 H1434 0.950 . S
C1446 C1445 1.398 . S
C1446 C1447 1.391 . S
C1447 H1435 0.950 . S
C1447 C1443 1.393 . S
C1447 C1446 1.391 . S
H1448 C1456 0.950 . S
H1449 C1461 0.950 . S
H1450 C1458 0.950 . S
H1451 C1460 0.950 . S
H1452 C1462 0.950 . S
H1453 C1464 0.950 . S
H1454 C1466 0.950 . S
H1455 C1467 0.950 . S
C1456 H1448 0.950 . S
C1456 C1457 1.386 . S
C1456 C1458 1.391 . S
C1457 C1456 1.386 . S
C1457 C1461 1.393 . S
C1458 H1450 0.950 . S
C1458 C1456 1.391 . S
C1458 C1459 1.400 . S
C1459 C1458 1.400 . S
C1459 C1460 1.398 . S
C1459 C1465 1.491 1_655 S
C1460 H1451 0.950 . S
C1460 C1459 1.398 . S
C1460 C1461 1.391 . S
C1461 H1449 0.950 . S
C1461 C1457 1.393 . S
C1461 C1460 1.391 . S
C1462 H1452 0.950 . S
C1462 C1463 1.386 . S
C1462 C1464 1.391 . S
C1463 C1462 1.386 . S
C1463 C1467 1.393 . S
C1464 H1453 0.950 . S
C1464 C1462 1.391 . S
C1464 C1465 1.400 . S
C1465 C1459 1.491 1_455 S
C1465 C1464 1.400 . S
C1465 C1466 1.398 . S
C1466 H1454 0.950 . S
C1466 C1465 1.398 . S
C1466 C1467 1.391 . S
C1467 H1455 0.950 . S
C1467 C1463 1.393 . S
C1467 C1466 1.391 . S
H1468 C1476 0.950 . S
H1469 C1481 0.950 . S
H1470 C1478 0.950 . S
H1471 C1480 0.950 . S
H1472 C1482 0.950 . S
H1473 C1484 0.950 . S
H1474 C1486 0.950 . S
H1475 C1487 0.950 . S
C1476 H1468 0.950 . S
C1476 C1477 1.386 . S
C1476 C1478 1.391 . S
C1477 C1476 1.386 . S
C1477 C1481 1.393 . S
C1478 H1470 0.950 . S
C1478 C1476 1.391 . S
C1478 C1479 1.400 . S
C1479 C1478 1.400 . S
C1479 C1480 1.398 . S
C1479 C1485 1.491 1_455 S
C1480 H1471 0.950 . S
C1480 C1479 1.398 . S
C1480 C1481 1.391 . S
C1481 H1469 0.950 . S
C1481 C1477 1.393 . S
C1481 C1480 1.391 . S
C1482 H1472 0.950 . S
C1482 C1483 1.386 . S
C1482 C1484 1.391 . S
C1483 C1482 1.386 . S
C1483 C1487 1.393 . S
C1484 H1473 0.950 . S
C1484 C1482 1.391 . S
C1484 C1485 1.400 . S
C1485 C1479 1.491 1_655 S
C1485 C1484 1.400 . S
C1485 C1486 1.398 . S
C1486 H1474 0.950 . S
C1486 C1485 1.398 . S
C1486 C1487 1.391 . S
C1487 H1475 0.950 . S
C1487 C1483 1.393 . S
C1487 C1486 1.391 . S
H1488 C1496 0.950 . S
H1489 C1501 0.950 . S
H1490 C1498 0.950 . S
H1491 C1500 0.950 . S
H1492 C1502 0.950 . S
H1493 C1504 0.950 . S
H1494 C1506 0.950 . S
H1495 C1507 0.950 . S
C1496 H1488 0.950 . S
C1496 C1497 1.386 . S
C1496 C1498 1.391 . S
C1497 C1496 1.386 . S
C1497 C1501 1.393 . S
C1498 H1490 0.950 . S
C1498 C1496 1.391 . S
C1498 C1499 1.400 . S
C1499 C1498 1.400 . S
C1499 C1500 1.398 . S
C1499 C1505 1.491 . S
C1500 H1491 0.950 . S
C1500 C1499 1.398 . S
C1500 C1501 1.391 . S
C1501 H1489 0.950 . S
C1501 C1497 1.393 . S
C1501 C1500 1.391 . S
C1502 H1492 0.950 . S
C1502 C1503 1.386 . S
C1502 C1504 1.391 . S
C1503 C1502 1.386 . S
C1503 C1507 1.393 . S
C1504 H1493 0.950 . S
C1504 C1502 1.391 . S
C1504 C1505 1.400 . S
C1505 C1499 1.491 . S
C1505 C1504 1.400 . S
C1505 C1506 1.398 . S
C1506 H1494 0.950 . S
C1506 C1505 1.398 . S
C1506 C1507 1.391 . S
C1507 H1495 0.950 . S
C1507 C1503 1.393 . S
C1507 C1506 1.391 . S
H1508 C1516 0.950 . S
H1509 C1521 0.950 . S
H1510 C1518 0.950 . S
H1511 C1520 0.950 . S
H1512 C1522 0.950 . S
H1513 C1524 0.950 . S
H1514 C1526 0.950 . S
H1515 C1527 0.950 . S
C1516 H1508 0.950 . S
C1516 C1517 1.386 . S
C1516 C1518 1.391 . S
C1517 C1516 1.386 . S
C1517 C1521 1.393 . S
C1518 H1510 0.950 . S
C1518 C1516 1.391 . S
C1518 C1519 1.400 . S
C1519 C1518 1.400 . S
C1519 C1520 1.398 . S
C1519 C1525 1.491 . S
C1520 H1511 0.950 . S
C1520 C1519 1.398 . S
C1520 C1521 1.391 . S
C1521 H1509 0.950 . S
C1521 C1517 1.393 . S
C1521 C1520 1.391 . S
C1522 H1512 0.950 . S
C1522 C1523 1.386 . S
C1522 C1524 1.391 . S
C1523 C1522 1.386 . S
C1523 C1527 1.393 . S
C1524 H1513 0.950 . S
C1524 C1522 1.391 . S
C1524 C1525 1.400 . S
C1525 C1519 1.491 . S
C1525 C1524 1.400 . S
C1525 C1526 1.398 . S
C1526 H1514 0.950 . S
C1526 C1525 1.398 . S
C1526 C1527 1.391 . S
C1527 H1515 0.950 . S
C1527 C1523 1.393 . S
C1527 C1526 1.391 . S
H1528 C1536 0.950 . S
H1529 C1541 0.950 . S
H1530 C1538 0.950 . S
H1531 C1540 0.950 . S
H1532 C1542 0.950 . S
H1533 C1544 0.950 . S
H1534 C1546 0.950 . S
H1535 C1547 0.950 . S
C1536 H1528 0.950 . S
C1536 C1537 1.386 . S
C1536 C1538 1.391 . S
C1537 C1536 1.386 . S
C1537 C1541 1.393 . S
C1538 H1530 0.950 . S
C1538 C1536 1.391 . S
C1538 C1539 1.400 . S
C1539 C1538 1.400 . S
C1539 C1540 1.398 . S
C1539 C1545 1.491 . S
C1540 H1531 0.950 . S
C1540 C1539 1.398 . S
C1540 C1541 1.391 . S
C1541 H1529 0.950 . S
C1541 C1537 1.393 . S
C1541 C1540 1.391 . S
C1542 H1532 0.950 . S
C1542 C1543 1.386 . S
C1542 C1544 1.391 . S
C1543 C1542 1.386 . S
C1543 C1547 1.393 . S
C1544 H1533 0.950 . S
C1544 C1542 1.391 . S
C1544 C1545 1.400 . S
C1545 C1539 1.491 . S
C1545 C1544 1.400 . S
C1545 C1546 1.398 . S
C1546 H1534 0.950 . S
C1546 C1545 1.398 . S
C1546 C1547 1.391 . S
C1547 H1535 0.950 . S
C1547 C1543 1.393 . S
C1547 C1546 1.391 . S
H1548 C1556 0.950 . S
H1549 C1561 0.950 . S
H1550 C1558 0.950 . S
H1551 C1560 0.950 . S
H1552 C1562 0.950 . S
H1553 C1564 0.950 . S
H1554 C1566 0.950 . S
H1555 C1567 0.950 . S
C1556 H1548 0.950 . S
C1556 C1557 1.386 . S
C1556 C1558 1.391 . S
C1557 C1556 1.386 . S
C1557 C1561 1.393 . S
C1558 H1550 0.950 . S
C1558 C1556 1.391 . S
C1558 C1559 1.400 . S
C1559 C1558 1.400 . S
C1559 C1560 1.398 . S
C1559 C1565 1.491 . S
C1560 H1551 0.950 . S
C1560 C1559 1.398 . S
C1560 C1561 1.391 . S
C1561 H1549 0.950 . S
C1561 C1557 1.393 . S
C1561 C1560 1.391 . S
C1562 H1552 0.950 . S
C1562 C1563 1.386 . S
C1562 C1564 1.391 . S
C1563 C1562 1.386 . S
C1563 C1567 1.393 . S
C1564 H1553 0.950 . S
C1564 C1562 1.391 . S
C1564 C1565 1.400 . S
C1565 C1559 1.491 . S
C1565 C1564 1.400 . S
C1565 C1566 1.398 . S
C1566 H1554 0.950 . S
C1566 C1565 1.398 . S
C1566 C1567 1.391 . S
C1567 H1555 0.950 . S
C1567 C1563 1.393 . S
C1567 C1566 1.391 . S
H1568 C1576 0.950 . S
H1569 C1581 0.950 . S
H1570 C1578 0.950 . S
H1571 C1580 0.950 . S
H1572 C1582 0.950 . S
H1573 C1584 0.950 . S
H1574 C1586 0.950 . S
H1575 C1587 0.950 . S
C1576 H1568 0.950 . S
C1576 C1577 1.386 . S
C1576 C1578 1.391 . S
C1577 C1576 1.386 . S
C1577 C1581 1.393 . S
C1578 H1570 0.950 . S
C1578 C1576 1.391 . S
C1578 C1579 1.400 . S
C1579 C1578 1.400 . S
C1579 C1580 1.398 . S
C1579 C1585 1.491 . S
C1580 H1571 0.950 . S
C1580 C1579 1.398 . S
C1580 C1581 1.391 . S
C1581 H1569 0.950 . S
C1581 C1577 1.393 . S
C1581 C1580 1.391 . S
C1582 H1572 0.950 . S
C1582 C1583 1.386 . S
C1582 C1584 1.391 . S
C1583 C1582 1.386 . S
C1583 C1587 1.393 . S
C1584 H1573 0.950 . S
C1584 C1582 1.391 . S
C1584 C1585 1.400 . S
C1585 C1579 1.491 . S
C1585 C1584 1.400 . S
C1585 C1586 1.398 . S
C1586 H1574 0.950 . S
C1586 C1585 1.398 . S
C1586 C1587 1.391 . S
C1587 H1575 0.950 . S
C1587 C1583 1.393 . S
C1587 C1586 1.391 . S
H1588 C1596 0.950 . S
H1589 C1601 0.950 . S
H1590 C1598 0.950 . S
H1591 C1600 0.950 . S
H1592 C1602 0.950 . S
H1593 C1604 0.950 . S
H1594 C1606 0.950 . S
H1595 C1607 0.950 . S
C1596 H1588 0.950 . S
C1596 C1597 1.386 . S
C1596 C1598 1.391 . S
C1597 C1596 1.386 . S
C1597 C1601 1.393 . S
C1598 H1590 0.950 . S
C1598 C1596 1.391 . S
C1598 C1599 1.400 . S
C1599 C1598 1.400 . S
C1599 C1600 1.398 . S
C1599 C1605 1.491 . S
C1600 H1591 0.950 . S
C1600 C1599 1.398 . S
C1600 C1601 1.391 . S
C1601 H1589 0.950 . S
C1601 C1597 1.393 . S
C1601 C1600 1.391 . S
C1602 H1592 0.950 . S
C1602 C1603 1.386 . S
C1602 C1604 1.391 . S
C1603 C1602 1.386 . S
C1603 C1607 1.393 . S
C1604 H1593 0.950 . S
C1604 C1602 1.391 . S
C1604 C1605 1.400 . S
C1605 C1599 1.491 . S
C1605 C1604 1.400 . S
C1605 C1606 1.398 . S
C1606 H1594 0.950 . S
C1606 C1605 1.398 . S
C1606 C1607 1.391 . S
C1607 H1595 0.950 . S
C1607 C1603 1.393 . S
C1607 C1606 1.391 . S
H1608 C1616 0.950 . S
H1609 C1621 0.950 . S
H1610 C1618 0.950 . S
H1611 C1620 0.950 . S
H1612 C1622 0.950 . S
H1613 C1624 0.950 . S
H1614 C1626 0.950 . S
H1615 C1627 0.950 . S
C1616 H1608 0.950 . S
C1616 C1617 1.386 . S
C1616 C1618 1.391 . S
C1617 C1616 1.386 . S
C1617 C1621 1.393 . S
C1618 H1610 0.950 . S
C1618 C1616 1.391 . S
C1618 C1619 1.400 . S
C1619 C1618 1.400 . S
C1619 C1620 1.398 . S
C1619 C1625 1.491 . S
C1620 H1611 0.950 . S
C1620 C1619 1.398 . S
C1620 C1621 1.391 . S
C1621 H1609 0.950 . S
C1621 C1617 1.393 . S
C1621 C1620 1.391 . S
C1622 H1612 0.950 . S
C1622 C1623 1.386 . S
C1622 C1624 1.391 . S
C1623 C1622 1.386 . S
C1623 C1627 1.393 . S
C1624 H1613 0.950 . S
C1624 C1622 1.391 . S
C1624 C1625 1.400 . S
C1625 C1619 1.491 . S
C1625 C1624 1.400 . S
C1625 C1626 1.398 . S
C1626 H1614 0.950 . S
C1626 C1625 1.398 . S
C1626 C1627 1.391 . S
C1627 H1615 0.950 . S
C1627 C1623 1.393 . S
C1627 C1626 1.391 . S
H1628 C1636 0.950 . S
H1629 C1641 0.950 . S
H1630 C1638 0.950 . S
H1631 C1640 0.950 . S
H1632 C1642 0.950 . S
H1633 C1644 0.950 . S
H1634 C1646 0.950 . S
H1635 C1647 0.950 . S
C1636 H1628 0.950 . S
C1636 C1637 1.386 . S
C1636 C1638 1.391 . S
C1637 C1636 1.386 . S
C1637 C1641 1.393 . S
C1638 H1630 0.950 . S
C1638 C1636 1.391 . S
C1638 C1639 1.400 . S
C1639 C1638 1.400 . S
C1639 C1640 1.398 . S
C1639 C1645 1.491 . S
C1640 H1631 0.950 . S
C1640 C1639 1.398 . S
C1640 C1641 1.391 . S
C1641 H1629 0.950 . S
C1641 C1637 1.393 . S
C1641 C1640 1.391 . S
C1642 H1632 0.950 . S
C1642 C1643 1.386 . S
C1642 C1644 1.391 . S
C1643 C1642 1.386 . S
C1643 C1647 1.393 . S
C1644 H1633 0.950 . S
C1644 C1642 1.391 . S
C1644 C1645 1.400 . S
C1645 C1639 1.491 . S
C1645 C1644 1.400 . S
C1645 C1646 1.398 . S
C1646 H1634 0.950 . S
C1646 C1645 1.398 . S
C1646 C1647 1.391 . S
C1647 H1635 0.950 . S
C1647 C1643 1.393 . S
C1647 C1646 1.391 . S
H1648 C1656 0.950 . S
H1649 C1661 0.950 . S
H1650 C1658 0.950 . S
H1651 C1660 0.950 . S
H1652 C1662 0.950 . S
H1653 C1664 0.950 . S
H1654 C1666 0.950 . S
H1655 C1667 0.950 . S
C1656 H1648 0.950 . S
C1656 C1657 1.386 . S
C1656 C1658 1.391 . S
C1657 C1656 1.386 . S
C1657 C1661 1.393 . S
C1658 H1650 0.950 . S
C1658 C1656 1.391 . S
C1658 C1659 1.400 . S
C1659 C1658 1.400 . S
C1659 C1660 1.398 . S
C1659 C1665 1.491 . S
C1660 H1651 0.950 . S
C1660 C1659 1.398 . S
C1660 C1661 1.391 . S
C1661 H1649 0.950 . S
C1661 C1657 1.393 . S
C1661 C1660 1.391 . S
C1662 H1652 0.950 . S
C1662 C1663 1.386 . S
C1662 C1664 1.391 . S
C1663 C1662 1.386 . S
C1663 C1667 1.393 . S
C1664 H1653 0.950 . S
C1664 C1662 1.391 . S
C1664 C1665 1.400 . S
C1665 C1659 1.491 . S
C1665 C1664 1.400 . S
C1665 C1666 1.398 . S
C1666 H1654 0.950 . S
C1666 C1665 1.398 . S
C1666 C1667 1.391 . S
C1667 H1655 0.950 . S
C1667 C1663 1.393 . S
C1667 C1666 1.391 . S
H1668 C1676 0.950 . S
H1669 C1681 0.950 . S
H1670 C1678 0.950 . S
H1671 C1680 0.950 . S
H1672 C1682 0.950 . S
H1673 C1684 0.950 . S
H1674 C1686 0.950 . S
H1675 C1687 0.950 . S
C1676 H1668 0.950 . S
C1676 C1677 1.386 . S
C1676 C1678 1.391 . S
C1677 C1676 1.386 . S
C1677 C1681 1.393 . S
C1678 H1670 0.950 . S
C1678 C1676 1.391 . S
C1678 C1679 1.400 . S
C1679 C1678 1.400 . S
C1679 C1680 1.398 . S
C1679 C1685 1.491 . S
C1680 H1671 0.950 . S
C1680 C1679 1.398 . S
C1680 C1681 1.391 . S
C1681 H1669 0.950 . S
C1681 C1677 1.393 . S
C1681 C1680 1.391 . S
C1682 H1672 0.950 . S
C1682 C1683 1.386 . S
C1682 C1684 1.391 . S
C1683 C1682 1.386 . S
C1683 C1687 1.393 . S
C1684 H1673 0.950 . S
C1684 C1682 1.391 . S
C1684 C1685 1.400 . S
C1685 C1679 1.491 . S
C1685 C1684 1.400 . S
C1685 C1686 1.398 . S
C1686 H1674 0.950 . S
C1686 C1685 1.398 . S
C1686 C1687 1.391 . S
C1687 H1675 0.950 . S
C1687 C1683 1.393 . S
C1687 C1686 1.391 . S
H1688 C1696 0.950 . S
H1689 C1701 0.950 . S
H1690 C1698 0.950 . S
H1691 C1700 0.950 . S
H1692 C1702 0.950 . S
H1693 C1704 0.950 . S
H1694 C1706 0.950 . S
H1695 C1707 0.950 . S
C1696 H1688 0.950 . S
C1696 C1697 1.386 . S
C1696 C1698 1.391 . S
C1697 C1696 1.386 . S
C1697 C1701 1.393 . S
C1698 H1690 0.950 . S
C1698 C1696 1.391 . S
C1698 C1699 1.400 . S
C1699 C1698 1.400 . S
C1699 C1700 1.398 . S
C1699 C1705 1.491 . S
C1700 H1691 0.950 . S
C1700 C1699 1.398 . S
C1700 C1701 1.391 . S
C1701 H1689 0.950 . S
C1701 C1697 1.393 . S
C1701 C1700 1.391 . S
C1702 H1692 0.950 . S
C1702 C1703 1.386 . S
C1702 C1704 1.391 . S
C1703 C1702 1.386 . S
C1703 C1707 1.393 . S
C1704 H1693 0.950 . S
C1704 C1702 1.391 . S
C1704 C1705 1.400 . S
C1705 C1699 1.491 . S
C1705 C1704 1.400 . S
C1705 C1706 1.398 . S
C1706 H1694 0.950 . S
C1706 C1705 1.398 . S
C1706 C1707 1.391 . S
C1707 H1695 0.950 . S
C1707 C1703 1.393 . S
C1707 C1706 1.391 . S
H1708 C1716 0.950 . S
H1709 C1721 0.950 . S
H1710 C1718 0.950 . S
H1711 C1720 0.950 . S
H1712 C1722 0.950 . S
H1713 C1724 0.950 . S
H1714 C1726 0.950 . S
H1715 C1727 0.950 . S
C1716 H1708 0.950 . S
C1716 C1717 1.386 . S
C1716 C1718 1.391 . S
C1717 C1716 1.386 . S
C1717 C1721 1.393 . S
C1718 H1710 0.950 . S
C1718 C1716 1.391 . S
C1718 C1719 1.400 . S
C1719 C1718 1.400 . S
C1719 C1720 1.398 . S
C1719 C1725 1.491 . S
C1720 H1711 0.950 . S
C1720 C1719 1.398 . S
C1720 C1721 1.391 . S
C1721 H1709 0.950 . S
C1721 C1717 1.393 . S
C1721 C1720 1.391 . S
C1722 H1712 0.950 . S
C1722 C1723 1.386 . S
C1722 C1724 1.391 . S
C1723 C1722 1.386 . S
C1723 C1727 1.393 . S
C1724 H1713 0.950 . S
C1724 C1722 1.391 . S
C1724 C1725 1.400 . S
C1725 C1719 1.491 . S
C1725 C1724 1.400 . S
C1725 C1726 1.398 . S
C1726 H1714 0.950 . S
C1726 C1725 1.398 . S
C1726 C1727 1.391 . S
C1727 H1715 0.950 . S
C1727 C1723 1.393 . S
C1727 C1726 1.391 . S
H1728 C1736 0.950 . S
H1729 C1741 0.950 . S
H1730 C1738 0.950 . S
H1731 C1740 0.950 1_554 S
H1732 C1742 0.950 . S
H1733 C1744 0.950 . S
H1734 C1746 0.950 1_556 S
H1735 C1747 0.950 . S
C1736 H1728 0.950 . S
C1736 C1737 1.386 . S
C1736 C1738 1.391 . S
C1737 C1736 1.386 . S
C1737 C1741 1.393 . S
C1738 H1730 0.950 . S
C1738 C1736 1.391 . S
C1738 C1739 1.400 . S
C1739 C1738 1.400 . S
C1739 C1740 1.398 . S
C1739 C1745 1.491 1_556 S
C1740 H1731 0.950 1_556 S
C1740 C1739 1.398 . S
C1740 C1741 1.391 . S
C1741 H1729 0.950 . S
C1741 C1737 1.393 . S
C1741 C1740 1.391 . S
C1742 H1732 0.950 . S
C1742 C1743 1.386 . S
C1742 C1744 1.391 . S
C1743 C1742 1.386 . S
C1743 C1747 1.393 . S
C1744 H1733 0.950 . S
C1744 C1742 1.391 . S
C1744 C1745 1.400 . S
C1745 C1739 1.491 1_554 S
C1745 C1744 1.400 . S
C1745 C1746 1.398 . S
C1746 H1734 0.950 1_554 S
C1746 C1745 1.398 . S
C1746 C1747 1.391 . S
C1747 H1735 0.950 . S
C1747 C1743 1.393 . S
C1747 C1746 1.391 . S
H1748 C1756 0.950 . S
H1749 C1761 0.950 . S
H1750 C1758 0.950 . S
H1751 C1760 0.950 . S
H1752 C1762 0.950 . S
H1753 C1764 0.950 . S
H1754 C1766 0.950 . S
H1755 C1767 0.950 . S
C1756 H1748 0.950 . S
C1756 C1757 1.386 . S
C1756 C1758 1.391 . S
C1757 C1756 1.386 . S
C1757 C1761 1.393 . S
C1758 H1750 0.950 . S
C1758 C1756 1.391 . S
C1758 C1759 1.400 . S
C1759 C1758 1.400 . S
C1759 C1760 1.398 . S
C1759 C1765 1.491 . S
C1760 H1751 0.950 . S
C1760 C1759 1.398 . S
C1760 C1761 1.391 . S
C1761 H1749 0.950 . S
C1761 C1757 1.393 . S
C1761 C1760 1.391 . S
C1762 H1752 0.950 . S
C1762 C1763 1.386 . S
C1762 C1764 1.391 . S
C1763 C1762 1.386 . S
C1763 C1767 1.393 . S
C1764 H1753 0.950 . S
C1764 C1762 1.391 . S
C1764 C1765 1.400 . S
C1765 C1759 1.491 . S
C1765 C1764 1.400 . S
C1765 C1766 1.398 . S
C1766 H1754 0.950 . S
C1766 C1765 1.398 . S
C1766 C1767 1.391 . S
C1767 H1755 0.950 . S
C1767 C1763 1.393 . S
C1767 C1766 1.391 . S
H1768 C1776 0.950 . S
H1769 C1781 0.950 . S
H1770 C1778 0.950 . S
H1771 C1780 0.950 . S
H1772 C1782 0.950 . S
H1773 C1784 0.950 . S
H1774 C1786 0.950 . S
H1775 C1787 0.950 . S
C1776 H1768 0.950 . S
C1776 C1777 1.386 . S
C1776 C1778 1.391 1_554 S
C1777 C1776 1.386 . S
C1777 C1781 1.393 . S
C1778 H1770 0.950 . S
C1778 C1776 1.391 1_556 S
C1778 C1779 1.400 1_556 S
C1779 C1778 1.400 1_554 S
C1779 C1780 1.398 . S
C1779 C1785 1.491 1_554 S
C1780 H1771 0.950 . S
C1780 C1779 1.398 . S
C1780 C1781 1.391 . S
C1781 H1769 0.950 . S
C1781 C1777 1.393 . S
C1781 C1780 1.391 . S
C1782 H1772 0.950 . S
C1782 C1783 1.386 . S
C1782 C1784 1.391 1_556 S
C1783 C1782 1.386 . S
C1783 C1787 1.393 . S
C1784 H1773 0.950 . S
C1784 C1782 1.391 1_554 S
C1784 C1785 1.400 1_554 S
C1785 C1779 1.491 1_556 S
C1785 C1784 1.400 1_556 S
C1785 C1786 1.398 . S
C1786 H1774 0.950 . S
C1786 C1785 1.398 . S
C1786 C1787 1.391 . S
C1787 H1775 0.950 . S
C1787 C1783 1.393 . S
C1787 C1786 1.391 . S
H1788 C1796 0.950 . S
H1789 C1801 0.950 . S
H1790 C1798 0.950 . S
H1791 C1800 0.950 . S
H1792 C1802 0.950 . S
H1793 C1804 0.950 . S
H1794 C1806 0.950 . S
H1795 C1807 0.950 . S
C1796 H1788 0.950 . S
C1796 C1797 1.386 . S
C1796 C1798 1.391 . S
C1797 C1796 1.386 . S
C1797 C1801 1.393 . S
C1798 H1790 0.950 . S
C1798 C1796 1.391 . S
C1798 C1799 1.400 . S
C1799 C1798 1.400 . S
C1799 C1800 1.398 . S
C1799 C1805 1.491 . S
C1800 H1791 0.950 . S
C1800 C1799 1.398 . S
C1800 C1801 1.391 . S
C1801 H1789 0.950 . S
C1801 C1797 1.393 . S
C1801 C1800 1.391 . S
C1802 H1792 0.950 . S
C1802 C1803 1.386 . S
C1802 C1804 1.391 . S
C1803 C1802 1.386 . S
C1803 C1807 1.393 . S
C1804 H1793 0.950 . S
C1804 C1802 1.391 . S
C1804 C1805 1.400 . S
C1805 C1799 1.491 . S
C1805 C1804 1.400 . S
C1805 C1806 1.398 . S
C1806 H1794 0.950 . S
C1806 C1805 1.398 . S
C1806 C1807 1.391 . S
C1807 H1795 0.950 . S
C1807 C1803 1.393 . S
C1807 C1806 1.391 . S
H1808 C1816 0.950 . S
H1809 C1821 0.950 . S
H1810 C1818 0.950 1_556 S
H1811 C1820 0.950 . S
H1812 C1822 0.950 . S
H1813 C1824 0.950 1_554 S
H1814 C1826 0.950 . S
H1815 C1827 0.950 . S
C1816 H1808 0.950 . S
C1816 C1817 1.386 . S
C1816 C1818 1.391 . S
C1817 C1816 1.386 . S
C1817 C1821 1.393 . S
C1818 H1810 0.950 1_554 S
C1818 C1816 1.391 . S
C1818 C1819 1.400 . S
C1819 C1818 1.400 . S
C1819 C1820 1.398 . S
C1819 C1825 1.491 1_554 S
C1820 H1811 0.950 . S
C1820 C1819 1.398 . S
C1820 C1821 1.391 . S
C1821 H1809 0.950 . S
C1821 C1817 1.393 . S
C1821 C1820 1.391 . S
C1822 H1812 0.950 . S
C1822 C1823 1.386 . S
C1822 C1824 1.391 . S
C1823 C1822 1.386 . S
C1823 C1827 1.393 . S
C1824 H1813 0.950 1_556 S
C1824 C1822 1.391 . S
C1824 C1825 1.400 . S
C1825 C1819 1.491 1_556 S
C1825 C1824 1.400 . S
C1825 C1826 1.398 . S
C1826 H1814 0.950 . S
C1826 C1825 1.398 . S
C1826 C1827 1.391 . S
C1827 H1815 0.950 . S
C1827 C1823 1.393 . S
C1827 C1826 1.391 . S
H1828 C1836 0.950 . S
H1829 C1841 0.950 . S
H1830 C1838 0.950 . S
H1831 C1840 0.950 . S
H1832 C1842 0.950 . S
H1833 C1844 0.950 . S
H1834 C1846 0.950 . S
H1835 C1847 0.950 . S
C1836 H1828 0.950 . S
C1836 C1837 1.386 . S
C1836 C1838 1.391 . S
C1837 C1836 1.386 . S
C1837 C1841 1.393 . S
C1838 H1830 0.950 . S
C1838 C1836 1.391 . S
C1838 C1839 1.400 . S
C1839 C1838 1.400 . S
C1839 C1840 1.398 . S
C1839 C1845 1.491 . S
C1840 H1831 0.950 . S
C1840 C1839 1.398 . S
C1840 C1841 1.391 . S
C1841 H1829 0.950 . S
C1841 C1837 1.393 . S
C1841 C1840 1.391 . S
C1842 H1832 0.950 . S
C1842 C1843 1.386 . S
C1842 C1844 1.391 . S
C1843 C1842 1.386 . S
C1843 C1847 1.393 . S
C1844 H1833 0.950 . S
C1844 C1842 1.391 . S
C1844 C1845 1.400 . S
C1845 C1839 1.491 . S
C1845 C1844 1.400 . S
C1845 C1846 1.398 . S
C1846 H1834 0.950 . S
C1846 C1845 1.398 . S
C1846 C1847 1.391 . S
C1847 H1835 0.950 . S
C1847 C1843 1.393 . S
C1847 C1846 1.391 . S
H1848 C1856 0.950 . S
H1849 C1861 0.950 . S
H1850 C1858 0.950 . S
H1851 C1860 0.950 . S
H1852 C1862 0.950 . S
H1853 C1864 0.950 . S
H1854 C1866 0.950 . S
H1855 C1867 0.950 . S
C1856 H1848 0.950 . S
C1856 C1857 1.386 . S
C1856 C1858 1.391 . S
C1857 C1856 1.386 . S
C1857 C1861 1.393 . S
C1858 H1850 0.950 . S
C1858 C1856 1.391 . S
C1858 C1859 1.400 . S
C1859 C1858 1.400 . S
C1859 C1860 1.398 . S
C1859 C1865 1.491 1_554 S
C1860 H1851 0.950 . S
C1860 C1859 1.398 . S
C1860 C1861 1.391 . S
C1861 H1849 0.950 . S
C1861 C1857 1.393 . S
C1861 C1860 1.391 . S
C1862 H1852 0.950 . S
C1862 C1863 1.386 . S
C1862 C1864 1.391 . S
C1863 C1862 1.386 . S
C1863 C1867 1.393 . S
C1864 H1853 0.950 . S
C1864 C1862 1.391 . S
C1864 C1865 1.400 . S
C1865 C1859 1.491 1_556 S
C1865 C1864 1.400 . S
C1865 C1866 1.398 . S
C1866 H1854 0.950 . S
C1866 C1865 1.398 . S
C1866 C1867 1.391 . S
C1867 H1855 0.950 . S
C1867 C1863 1.393 . S
C1867 C1866 1.391 . S
H1868 C1876 0.950 . S
H1869 C1881 0.950 . S
H1870 C1878 0.950 . S
H1871 C1880 0.950 . S
H1872 C1882 0.950 . S
H1873 C1884 0.950 . S
H1874 C1886 0.950 . S
H1875 C1887 0.950 . S
C1876 H1868 0.950 . S
C1876 C1877 1.386 . S
C1876 C1878 1.391 . S
C1877 C1876 1.386 . S
C1877 C1881 1.393 . S
C1878 H1870 0.950 . S
C1878 C1876 1.391 . S
C1878 C1879 1.400 . S
C1879 C1878 1.400 . S
C1879 C1880 1.398 . S
C1879 C1885 1.491 . S
C1880 H1871 0.950 . S
C1880 C1879 1.398 . S
C1880 C1881 1.391 . S
C1881 H1869 0.950 . S
C1881 C1877 1.393 . S
C1881 C1880 1.391 . S
C1882 H1872 0.950 . S
C1882 C1883 1.386 . S
C1882 C1884 1.391 . S
C1883 C1882 1.386 . S
C1883 C1887 1.393 . S
C1884 H1873 0.950 . S
C1884 C1882 1.391 . S
C1884 C1885 1.400 . S
C1885 C1879 1.491 . S
C1885 C1884 1.400 . S
C1885 C1886 1.398 . S
C1886 H1874 0.950 . S
C1886 C1885 1.398 . S
C1886 C1887 1.391 . S
C1887 H1875 0.950 . S
C1887 C1883 1.393 . S
C1887 C1886 1.391 . S
H1888 C1896 0.950 . S
H1889 C1901 0.950 . S
H1890 C1898 0.912 1_554 S
H1891 C1900 0.950 . S
H1892 C1902 0.950 . S
H1893 C1904 0.912 1_556 S
H1894 C1906 0.950 . S
H1895 C1907 0.950 . S
C1896 H1888 0.950 . S
C1896 C1897 1.386 . S
C1896 C1898 1.418 . S
C1897 C1896 1.386 . S
C1897 C1901 1.393 . S
C1898 H1890 0.912 1_556 S
C1898 C1896 1.418 . S
C1898 C1899 1.413 . S
C1899 C1898 1.413 . S
C1899 C1900 1.398 . S
C1899 C1905 1.491 1_556 S
C1900 H1891 0.950 . S
C1900 C1899 1.398 . S
C1900 C1901 1.391 . S
C1901 H1889 0.950 . S
C1901 C1897 1.393 . S
C1901 C1900 1.391 . S
C1902 H1892 0.950 . S
C1902 C1903 1.386 . S
C1902 C1904 1.418 . S
C1903 C1902 1.386 . S
C1903 C1907 1.393 . S
C1904 H1893 0.912 1_554 S
C1904 C1902 1.418 . S
C1904 C1905 1.413 . S
C1905 C1899 1.491 1_554 S
C1905 C1904 1.413 . S
C1905 C1906 1.398 . S
C1906 H1894 0.950 . S
C1906 C1905 1.398 . S
C1906 C1907 1.391 . S
C1907 H1895 0.950 . S
C1907 C1903 1.393 . S
C1907 C1906 1.391 . S
H1908 C1916 0.950 . S
H1909 C1921 0.950 . S
H1910 C1918 0.950 . S
H1911 C1920 0.950 . S
H1912 C1922 0.950 . S
H1913 C1924 0.950 . S
H1914 C1926 0.950 . S
H1915 C1927 0.950 . S
C1916 H1908 0.950 . S
C1916 C1917 1.386 . S
C1916 C1918 1.391 . S
C1917 C1916 1.386 . S
C1917 C1921 1.393 . S
C1918 H1910 0.950 . S
C1918 C1916 1.391 . S
C1918 C1919 1.400 . S
C1919 C1918 1.400 . S
C1919 C1920 1.398 . S
C1919 C1925 1.491 . S
C1920 H1911 0.950 . S
C1920 C1919 1.398 . S
C1920 C1921 1.391 . S
C1921 H1909 0.950 . S
C1921 C1917 1.393 . S
C1921 C1920 1.391 . S
C1922 H1912 0.950 . S
C1922 C1923 1.386 . S
C1922 C1924 1.391 . S
C1923 C1922 1.386 . S
C1923 C1927 1.393 . S
C1924 H1913 0.950 . S
C1924 C1922 1.391 . S
C1924 C1925 1.400 . S
C1925 C1919 1.491 . S
C1925 C1924 1.400 . S
C1925 C1926 1.398 . S
C1926 H1914 0.950 . S
C1926 C1925 1.398 . S
C1926 C1927 1.391 . S
C1927 H1915 0.950 . S
C1927 C1923 1.393 . S
C1927 C1926 1.391 . S
H1928 C1936 0.950 . S
H1929 C1941 0.950 . S
H1930 C1938 0.950 . S
H1931 C1940 0.950 1_556 S
H1932 C1942 0.950 . S
H1933 C1944 0.950 . S
H1934 C1946 0.950 1_554 S
H1935 C1947 0.950 . S
C1936 H1928 0.950 . S
C1936 C1937 1.386 . S
C1936 C1938 1.391 . S
C1937 C1936 1.386 . S
C1937 C1941 1.393 . S
C1938 H1930 0.950 . S
C1938 C1936 1.391 . S
C1938 C1939 1.400 . S
C1939 C1938 1.400 . S
C1939 C1940 1.398 . S
C1939 C1945 1.491 1_554 S
C1940 H1931 0.950 1_554 S
C1940 C1939 1.398 . S
C1940 C1941 1.391 . S
C1941 H1929 0.950 . S
C1941 C1937 1.393 . S
C1941 C1940 1.391 . S
C1942 H1932 0.950 . S
C1942 C1943 1.386 . S
C1942 C1944 1.391 . S
C1943 C1942 1.386 . S
C1943 C1947 1.393 . S
C1944 H1933 0.950 . S
C1944 C1942 1.391 . S
C1944 C1945 1.400 . S
C1945 C1939 1.491 1_556 S
C1945 C1944 1.400 . S
C1945 C1946 1.398 . S
C1946 H1934 0.950 1_556 S
C1946 C1945 1.398 . S
C1946 C1947 1.391 . S
C1947 H1935 0.950 . S
C1947 C1943 1.393 . S
C1947 C1946 1.391 . S
H1948 C1956 0.950 . S
H1949 C1961 0.950 . S
H1950 C1958 0.950 . S
H1951 C1960 0.950 . S
H1952 C1962 0.950 . S
H1953 C1964 0.950 . S
H1954 C1966 0.950 . S
H1955 C1967 0.950 . S
C1956 H1948 0.950 . S
C1956 C1957 1.386 . S
C1956 C1958 1.391 . S
C1957 C1956 1.386 . S
C1957 C1961 1.393 . S
C1958 H1950 0.950 . S
C1958 C1956 1.391 . S
C1958 C1959 1.400 . S
C1959 C1958 1.400 . S
C1959 C1960 1.398 . S
C1959 C1965 1.491 . S
C1960 H1951 0.950 . S
C1960 C1959 1.398 . S
C1960 C1961 1.391 . S
C1961 H1949 0.950 . S
C1961 C1957 1.393 . S
C1961 C1960 1.391 . S
C1962 H1952 0.950 . S
C1962 C1963 1.386 . S
C1962 C1964 1.391 . S
C1963 C1962 1.386 . S
C1963 C1967 1.393 . S
C1964 H1953 0.950 . S
C1964 C1962 1.391 . S
C1964 C1965 1.400 . S
C1965 C1959 1.491 . S
C1965 C1964 1.400 . S
C1965 C1966 1.398 . S
C1966 H1954 0.950 . S
C1966 C1965 1.398 . S
C1966 C1967 1.391 . S
C1967 H1955 0.950 . S
C1967 C1963 1.393 . S
C1967 C1966 1.391 . S
H1968 C1976 0.950 . S
H1969 C1981 0.950 1_554 S
H1970 C1978 0.923 1_565 S
H1971 C1980 0.950 . S
H1972 C1982 0.950 . S
H1973 C1984 0.923 1_545 S
H1974 C1986 0.950 . S
H1975 C1987 0.950 1_556 S
C1976 H1968 0.950 . S
C1976 C1977 1.386 . S
C1976 C1978 1.391 . S
C1977 C1976 1.386 . S
C1977 C1981 1.393 . S
C1978 H1970 0.923 1_545 S
C1978 C1976 1.391 . S
C1978 C1979 1.400 . S
C1979 C1978 1.400 . S
C1979 C1980 1.398 1_556 S
C1979 C1985 1.491 1_546 S
C1980 H1971 0.950 . S
C1980 C1979 1.398 1_554 S
C1980 C1981 1.391 1_554 S
C1981 H1969 0.950 1_556 S
C1981 C1977 1.393 . S
C1981 C1980 1.391 1_556 S
C1982 H1972 0.950 . S
C1982 C1983 1.386 . S
C1982 C1984 1.391 . S
C1983 C1982 1.386 . S
C1983 C1987 1.393 . S
C1984 H1973 0.923 1_565 S
C1984 C1982 1.391 . S
C1984 C1985 1.400 . S
C1985 C1979 1.491 1_564 S
C1985 C1984 1.400 . S
C1985 C1986 1.398 1_554 S
C1986 H1974 0.950 . S
C1986 C1985 1.398 1_556 S
C1986 C1987 1.391 1_556 S
C1987 H1975 0.950 1_554 S
C1987 C1983 1.393 . S
C1987 C1986 1.391 1_554 S
H1988 C1996 0.950 . S
H1989 C2001 0.950 . S
H1990 C1998 0.950 . S
H1991 C2000 0.950 . S
H1992 C2002 0.950 . S
H1993 C2004 0.950 . S
H1994 C2006 0.950 . S
H1995 C2007 0.950 . S
C1996 H1988 0.950 . S
C1996 C1997 1.386 . S
C1996 C1998 1.391 . S
C1997 C1996 1.386 . S
C1997 C2001 1.393 . S
C1998 H1990 0.950 . S
C1998 C1996 1.391 . S
C1998 C1999 1.400 . S
C1999 C1998 1.400 . S
C1999 C2000 1.398 . S
C1999 C2005 1.491 1_565 S
C2000 H1991 0.950 . S
C2000 C1999 1.398 . S
C2000 C2001 1.391 . S
C2001 H1989 0.950 . S
C2001 C1997 1.393 . S
C2001 C2000 1.391 . S
C2002 H1992 0.950 . S
C2002 C2003 1.386 . S
C2002 C2004 1.391 . S
C2003 C2002 1.386 . S
C2003 C2007 1.393 . S
C2004 H1993 0.950 . S
C2004 C2002 1.391 . S
C2004 C2005 1.400 . S
C2005 C1999 1.491 1_545 S
C2005 C2004 1.400 . S
C2005 C2006 1.398 . S
C2006 H1994 0.950 . S
C2006 C2005 1.398 . S
C2006 C2007 1.391 . S
C2007 H1995 0.950 . S
C2007 C2003 1.393 . S
C2007 C2006 1.391 . S
H2008 C2016 0.950 . S
H2009 C2021 0.950 . S
H2010 C2018 0.950 . S
H2011 C2020 0.949 . S
H2012 C2022 0.950 . S
H2013 C2024 0.950 . S
H2014 C2026 0.949 . S
H2015 C2027 0.950 . S
C2016 H2008 0.950 . S
C2016 C2017 1.386 . S
C2016 C2018 1.391 1_554 S
C2017 C2016 1.386 . S
C2017 C2021 1.393 . S
C2018 H2010 0.950 . S
C2018 C2016 1.391 1_556 S
C2018 C2019 1.400 1_556 S
C2019 C2018 1.400 1_554 S
C2019 C2020 1.398 . S
C2019 C2025 1.491 1_564 S
C2020 H2011 0.949 . S
C2020 C2019 1.398 . S
C2020 C2021 1.391 . S
C2021 H2009 0.950 . S
C2021 C2017 1.393 . S
C2021 C2020 1.391 . S
C2022 H2012 0.950 . S
C2022 C2023 1.386 . S
C2022 C2024 1.391 1_556 S
C2023 C2022 1.386 . S
C2023 C2027 1.393 . S
C2024 H2013 0.950 . S
C2024 C2022 1.391 1_554 S
C2024 C2025 1.400 1_554 S
C2025 C2019 1.491 1_546 S
C2025 C2024 1.400 1_556 S
C2025 C2026 1.398 . S
C2026 H2014 0.949 . S
C2026 C2025 1.398 . S
C2026 C2027 1.391 . S
C2027 H2015 0.950 . S
C2027 C2023 1.393 . S
C2027 C2026 1.391 . S
H2028 C2036 0.950 . S
H2029 C2041 0.950 . S
H2030 C2038 0.950 1_565 S
H2031 C2040 0.950 . S
H2032 C2042 0.950 . S
H2033 C2044 0.950 1_545 S
H2034 C2046 0.950 . S
H2035 C2047 0.950 . S
C2036 H2028 0.950 . S
C2036 C2037 1.386 . S
C2036 C2038 1.391 . S
C2037 C2036 1.386 . S
C2037 C2041 1.393 . S
C2038 H2030 0.950 1_545 S
C2038 C2036 1.391 . S
C2038 C2039 1.400 . S
C2039 C2038 1.400 . S
C2039 C2040 1.398 . S
C2039 C2045 1.491 1_545 S
C2040 H2031 0.950 . S
C2040 C2039 1.398 . S
C2040 C2041 1.391 . S
C2041 H2029 0.950 . S
C2041 C2037 1.393 . S
C2041 C2040 1.391 . S
C2042 H2032 0.950 . S
C2042 C2043 1.386 . S
C2042 C2044 1.391 . S
C2043 C2042 1.386 . S
C2043 C2047 1.393 . S
C2044 H2033 0.950 1_565 S
C2044 C2042 1.391 . S
C2044 C2045 1.400 . S
C2045 C2039 1.491 1_565 S
C2045 C2044 1.400 . S
C2045 C2046 1.398 . S
C2046 H2034 0.950 . S
C2046 C2045 1.398 . S
C2046 C2047 1.391 . S
C2047 H2035 0.950 . S
C2047 C2043 1.393 . S
C2047 C2046 1.391 . S
C1417 C57 1.522 . S
C1423 C557 1.527 . S
C1437 C145 1.525 . S
C1443 C645 1.524 . S
C1457 C401 1.523 . S
C1463 C205 1.526 . S
C1477 C497 1.522 . S
C1483 C293 1.526 . S
C1497 C1261 1.522 . S
C1503 C761 1.526 . S
C1517 C1340 1.521 . S
C1523 C841 1.527 . S
C1537 C909 1.525 . S
C1543 C1105 1.524 . S
C1557 C988 1.526 . S
C1563 C1193 1.523 . S
C1577 C20 1.428 . S
C1583 C489 1.429 . S
C1597 C108 1.426 . S
C1603 C409 1.431 . S
C1617 C225 1.424 . S
C1623 C636 1.434 . S
C1637 C548 1.423 . S
C1643 C313 1.434 . S
C1657 C1201 1.425 . S
C1663 C724 1.431 . S
C1677 C1113 1.433 . S
C1683 C821 1.424 . S
C1697 C929 1.425 . S
C1703 C1349 1.432 . S
C1717 C1252 1.433 . S
C1723 C1025 1.424 . S
C1737 C1076 1.176 . S
C1743 C29 1.177 . S
C1757 C117 1.179 . S
C1763 C1164 1.178 . S
C1777 C1289 1.171 . S
C1783 C233 1.170 . S
C1797 C1369 1.172 . S
C1803 C321 1.172 . S
C1817 C733 1.180 . S
C1823 C372 1.181 . S
C1837 C812 1.184 . S
C1843 C469 1.184 . S
C1857 C585 1.174 . S
C1863 C937 1.175 . S
C1877 C673 1.169 . S
C1883 C1017 1.169 . S
C1897 C196 1.426 . S
C1903 C49 1.433 . S
C1917 C137 1.436 . S
C1923 C284 1.423 . S
C1937 C577 1.427 . S
C1943 C381 1.435 . S
C1957 C460 1.426 . S
C1963 C665 1.436 . S
C1977 C900 1.435 . S
C1983 C753 1.424 . S
C1997 C997 1.430 . S
C2003 C849 1.430 . S
C2017 C1281 1.436 . S
C2023 C1085 1.427 . S
C2037 C1377 1.425 . S
C2043 C1173 1.436 . S
