# Generated by pormake.
# Topology uog, (4)-cn, num edge types: 1
# Building blocks:
#     Node 0, Type 0, BuildingBlock: GALJAG_clean_sbu_0, # of connection points: 4
#     Node 1, Type 0, BuildingBlock: GALJAG_clean_sbu_0, # of connection points: 4
#     Node 2, Type 0, BuildingBlock: GALJAG_clean_sbu_0, # of connection points: 4
#     Node 3, Type 0, BuildingBlock: GALJAG_clean_sbu_0, # of connection points: 4
#     Node 4, Type 0, BuildingBlock: GALJAG_clean_sbu_0, # of connection points: 4
#     Node 5, Type 0, BuildingBlock: GALJAG_clean_sbu_0, # of connection points: 4
#     Edge 6, Type (0, 0), BuildingBlock: CIFDUS_clean_linker_0, # of connection points: 2
#     Edge 7, Type (0, 0), BuildingBlock: CIFDUS_clean_linker_0, # of connection points: 2
#     Edge 8, Type (0, 0), BuildingBlock: CIFDUS_clean_linker_0, # of connection points: 2
#     Edge 9, Type (0, 0), BuildingBlock: CIFDUS_clean_linker_0, # of connection points: 2
#     Edge 10, Type (0, 0), BuildingBlock: CIFDUS_clean_linker_0, # of connection points: 2
#     Edge 11, Type (0, 0), BuildingBlock: CIFDUS_clean_linker_0, # of connection points: 2
#     Edge 12, Type (0, 0), BuildingBlock: CIFDUS_clean_linker_0, # of connection points: 2
#     Edge 13, Type (0, 0), BuildingBlock: CIFDUS_clean_linker_0, # of connection points: 2
#     Edge 14, Type (0, 0), BuildingBlock: CIFDUS_clean_linker_0, # of connection points: 2
#     Edge 15, Type (0, 0), BuildingBlock: CIFDUS_clean_linker_0, # of connection points: 2
#     Edge 16, Type (0, 0), BuildingBlock: CIFDUS_clean_linker_0, # of connection points: 2
#     Edge 17, Type (0, 0), BuildingBlock: CIFDUS_clean_linker_0, # of connection points: 2
# Relax obj value: 0.035
# Max RMSD: 0.144
# Mean RMSD: 0.144
data_MOF--net-uog--node1-GALJAG_clean_sbu_0--edge1-CIFDUS_clean_linker_0
_symmetry_space_group_name_H-M    P1
_symmetry_Int_Tables_number       1
_symmetry_cell_setting            triclinic
loop_
_symmetry_equiv_pos_as_xyz
'x, y, z'
_cell_length_a     25.444293
_cell_length_b     25.372511
_cell_length_c     37.735195
_cell_angle_alpha  90.118186
_cell_angle_beta   89.825285
_cell_angle_gamma 119.97279
loop_
_atom_site_label
_atom_site_type_symbol
_atom_site_fract_x
_atom_site_fract_y
_atom_site_fract_z
_atom_type_partial_charge
In0 In 0.60424 0.28356 0.15962 0.0
O1 O 0.5325 0.3132 0.16047 0.0
O2 O 0.62634 0.37986 0.16775 0.0
C3 C 0.57403 0.16727 0.14966 0.0
C4 C 0.6298 0.28582 0.228 0.0
C5 C 0.64951 0.31945 0.09503 0.0
O6 O 0.5336 0.18282 0.15154 0.0
O7 O 0.62817 0.21038 0.15244 0.0
O8 O 0.68377 0.32684 0.12127 0.0
O9 O 0.59327 0.29371 0.10175 0.0
C10 C 0.57221 0.36891 0.1653 0.0
O11 O 0.67124 0.31404 0.20506 0.0
O12 O 0.57623 0.25659 0.21607 0.0
In13 In 0.30026 0.5981 0.49342 0.0
O14 O 0.34293 0.66839 0.53763 0.0
O15 O 0.30272 0.57327 0.54989 0.0
C16 C 0.30685 0.6321 0.42622 0.0
C17 C 0.18681 0.57526 0.50202 0.0
C18 C 0.37437 0.55351 0.48362 0.0
O19 O 0.34008 0.66995 0.44985 0.0
O20 O 0.2712 0.57855 0.43693 0.0
O21 O 0.31733 0.51866 0.4869 0.0
O22 O 0.39282 0.60997 0.48513 0.0
C23 C 0.32975 0.62756 0.56104 0.0
O24 O 0.19887 0.53241 0.49907 0.0
O25 O 0.23211 0.62862 0.501 0.0
In26 In 0.68905 0.2911 0.82297 0.0
O27 O 0.65756 0.33881 0.86173 0.0
O28 O 0.7111 0.30106 0.88074 0.0
C29 C 0.6616 0.29697 0.75559 0.0
C30 C 0.6004 0.17624 0.83358 0.0
C31 C 0.80927 0.36291 0.81594 0.0
O32 O 0.65619 0.32945 0.77937 0.0
O33 O 0.6808 0.26238 0.76612 0.0
O34 O 0.78535 0.30577 0.82022 0.0
O35 O 0.77231 0.38244 0.81467 0.0
C36 C 0.68309 0.32922 0.88783 0.0
O37 O 0.65559 0.18972 0.83106 0.0
O38 O 0.59121 0.22065 0.83108 0.0
In39 In 0.42304 0.69344 0.15527 0.0
O40 O 0.49207 0.66101 0.15762 0.0
O41 O 0.39709 0.5957 0.16274 0.0
C42 C 0.45218 0.80937 0.14647 0.0
C43 C 0.40031 0.69573 0.22386 0.0
C44 C 0.38493 0.66276 0.08902 0.0
O45 O 0.49297 0.79424 0.14794 0.0
O46 O 0.39804 0.7659 0.14886 0.0
O47 O 0.3477 0.65221 0.11432 0.0
O48 O 0.44045 0.68853 0.09759 0.0
C49 C 0.45103 0.60551 0.16154 0.0
O50 O 0.35754 0.66754 0.20166 0.0
O51 O 0.45354 0.72147 0.21113 0.0
In52 In 0.71893 0.43739 0.49145 0.0
O53 O 0.82007 0.50587 0.49754 0.0
O54 O 0.78866 0.41076 0.50371 0.0
C55 C 0.64721 0.48451 0.47983 0.0
C56 C 0.67986 0.40207 0.55737 0.0
C57 C 0.715 0.39625 0.426 0.0
O58 O 0.70389 0.51841 0.48483 0.0
O59 O 0.62826 0.42799 0.47989 0.0
O60 O 0.68204 0.36099 0.45059 0.0
O61 O 0.74862 0.45132 0.43471 0.0
C62 C 0.83322 0.46444 0.50331 0.0
O63 O 0.66993 0.36358 0.533 0.0
O64 O 0.70924 0.4573 0.54814 0.0
In65 In 0.27308 0.70555 0.82872 0.0
O66 O 0.30527 0.80679 0.83606 0.0
O67 O 0.37007 0.77651 0.83874 0.0
C68 C 0.15352 0.6329 0.81962 0.0
C69 C 0.27595 0.6673 0.89411 0.0
C70 C 0.30549 0.70378 0.76157 0.0
O71 O 0.17668 0.68978 0.8247 0.0
O72 O 0.19095 0.61389 0.81865 0.0
O73 O 0.31043 0.67069 0.78507 0.0
O74 O 0.28372 0.73619 0.7722 0.0
C75 C 0.36039 0.82073 0.83986 0.0
O76 O 0.30254 0.65767 0.86845 0.0
O77 O 0.24833 0.69554 0.88636 0.0
H78 H 0.46297 0.06379 0.14612 0.0
H79 H 0.65513 0.12753 0.14504 0.0
H80 H 0.63504 0.02314 0.14254 0.0
H81 H 0.56299 0.91298 0.14322 0.0
H82 H 0.37081 0.84907 0.14432 0.0
H83 H 0.39082 0.95355 0.14408 0.0
C84 C 0.50036 0.05477 0.14511 0.0
C85 C 0.56036 0.10346 0.14597 0.0
C86 C 0.48857 0.99434 0.14378 0.0
C87 C 0.60838 0.09096 0.14456 0.0
C88 C 0.59702 0.03117 0.14315 0.0
C89 C 0.52556 0.92197 0.14316 0.0
C90 C 0.4656 0.87322 0.14395 0.0
C91 C 0.53731 0.9824 0.14314 0.0
C92 C 0.41753 0.8857 0.14381 0.0
C93 C 0.42886 0.94553 0.14371 0.0
H94 H 0.49697 0.62061 0.48016 0.0
H95 H 0.34832 0.43541 0.47825 0.0
H96 H 0.42026 0.39822 0.47459 0.0
H97 H 0.52498 0.41826 0.47478 0.0
H98 H 0.6738 0.60323 0.47862 0.0
H99 H 0.60191 0.64078 0.47839 0.0
C100 C 0.48024 0.57208 0.47874 0.0
C101 C 0.41737 0.53074 0.47961 0.0
C102 C 0.52182 0.55111 0.47703 0.0
C103 C 0.39646 0.46808 0.47773 0.0
C104 C 0.43756 0.44684 0.47565 0.0
C105 C 0.5418 0.46686 0.47527 0.0
C106 C 0.60466 0.50798 0.4768 0.0
C107 C 0.50029 0.48793 0.47568 0.0
C108 C 0.62567 0.57072 0.47747 0.0
C109 C 0.58458 0.59214 0.47742 0.0
H110 H 0.86748 0.486 0.8136 0.0
H111 H 0.89991 0.33451 0.81476 0.0
H112 H 0.00952 0.40514 0.81453 0.0
H113 H 0.09569 0.50975 0.81599 0.0
H114 H 0.06295 0.66105 0.81672 0.0
H115 H 0.95353 0.59044 0.81412 0.0
C116 C 0.89849 0.46833 0.81361 0.0
C117 C 0.87558 0.40503 0.8142 0.0
C118 C 0.96125 0.50915 0.81391 0.0
C119 C 0.91638 0.38298 0.81432 0.0
C120 C 0.97901 0.42335 0.81422 0.0
C121 C 0.06465 0.52735 0.81538 0.0
C122 C 0.08742 0.59062 0.81655 0.0
C123 C 0.00189 0.48649 0.81431 0.0
C124 C 0.04659 0.61262 0.81587 0.0
C125 C 0.98406 0.57226 0.81441 0.0
H126 H 0.0821 0.46706 0.50946 0.0
H127 H 0.15155 0.66031 0.50077 0.0
H128 H 0.04855 0.6438 0.50192 0.0
H129 H 0.93815 0.574 0.50271 0.0
H130 H 0.86907 0.38084 0.51201 0.0
H131 H 0.9721 0.39785 0.51354 0.0
C132 C 0.07463 0.50551 0.508 0.0
C133 C 0.12433 0.56467 0.50482 0.0
C134 C 0.01522 0.49577 0.50873 0.0
C135 C 0.11402 0.61417 0.50317 0.0
C136 C 0.0551 0.60484 0.50377 0.0
C137 C 0.94574 0.53576 0.50535 0.0
C138 C 0.89604 0.47633 0.50704 0.0
C139 C 0.00528 0.54578 0.50616 0.0
C140 C 0.90655 0.42716 0.51056 0.0
C141 C 0.9655 0.43675 0.51137 0.0
H142 H 0.35489 0.92538 0.83939 0.0
H143 H 0.48027 0.85809 0.8469 0.0
H144 H 0.5657 0.96186 0.84688 0.0
H145 H 0.60551 0.07205 0.84168 0.0
H146 H 0.48009 0.13932 0.8344 0.0
H147 H 0.39454 0.0358 0.83749 0.0
C148 C 0.40088 0.93351 0.84134 0.0
C149 C 0.4111 0.88407 0.84294 0.0
C150 C 0.45006 0.99347 0.84115 0.0
C151 C 0.47103 0.89534 0.84552 0.0
C152 C 0.52005 0.95473 0.84544 0.0
C153 C 0.55946 0.064 0.84098 0.0
C154 C 0.5493 0.11329 0.83759 0.0
C155 C 0.51021 0.00417 0.84276 0.0
C156 C 0.48929 0.10216 0.83689 0.0
C157 C 0.4402 0.04291 0.83862 0.0
H158 H 0.56125 0.61232 0.16608 0.0
H159 H 0.3692 0.4842 0.16116 0.0
H160 H 0.38889 0.39948 0.16236 0.0
H161 H 0.46098 0.36124 0.16357 0.0
H162 H 0.65288 0.48986 0.16969 0.0
H163 H 0.6329 0.57419 0.16938 0.0
C164 C 0.52376 0.56587 0.16536 0.0
C165 C 0.46396 0.55474 0.16342 0.0
C166 C 0.53532 0.51713 0.16625 0.0
C167 C 0.4158 0.49418 0.16267 0.0
C168 C 0.42695 0.44556 0.1633 0.0
C169 C 0.49831 0.40771 0.16497 0.0
C170 C 0.55825 0.41904 0.16654 0.0
C171 C 0.48657 0.45641 0.16492 0.0
C172 C 0.60618 0.47964 0.16844 0.0
C173 C 0.59489 0.52809 0.16822 0.0
H174 H 0.75635 0.34252 0.9426 0.0
H175 H 0.59445 0.34777 0.91552 0.0
H176 H 0.57299 0.35166 0.97847 0.0
H177 H 0.5936 0.34001 0.04067 0.0
H178 H 0.75569 0.33507 0.0677 0.0
H179 H 0.78438 0.34531 0.00505 0.0
C180 C 0.71692 0.34555 0.95052 0.0
C181 C 0.67643 0.34389 0.9247 0.0
C182 C 0.70476 0.34723 0.98659 0.0
C183 C 0.62607 0.34882 0.93506 0.0
C184 C 0.61363 0.35062 0.97099 0.0
C185 C 0.63563 0.34202 0.03283 0.0
C186 C 0.67206 0.33573 0.05848 0.0
C187 C 0.65156 0.3477 -0.00309 0.0
C188 C 0.72689 0.33952 0.04827 0.0
C189 C 0.7431 0.34509 0.01251 0.0
H190 H 0.29458 0.6306 0.26019 0.0
H191 H 0.48333 0.76542 0.27361 0.0
H192 H 0.46936 0.7636 0.33766 0.0
H193 H 0.40563 0.71698 0.39036 0.0
H194 H 0.21871 0.57756 0.37694 0.0
H195 H 0.22941 0.5886 0.31264 0.0
C196 C 0.33242 0.66001 0.27714 0.0
C197 C 0.3899 0.69762 0.26224 0.0
C198 C 0.32438 0.65793 0.31404 0.0
C199 C 0.43862 0.73556 0.28449 0.0
C200 C 0.43072 0.73467 0.32114 0.0
C201 C 0.36706 0.69005 0.37329 0.0
C202 C 0.31159 0.64656 0.38818 0.0
C203 C 0.3741 0.69515 0.33629 0.0
C204 C 0.262 0.61123 0.36591 0.0
C205 C 0.2681 0.61733 0.32918 0.0
H206 H 0.65407 0.38795 0.72281 0.0
H207 H 0.64622 0.21653 0.70353 0.0
H208 H 0.64288 0.23015 0.63973 0.0
H209 H 0.65414 0.29627 0.58943 0.0
H210 H 0.66947 0.47098 0.60888 0.0
H211 H 0.65716 0.45039 0.67242 0.0
C212 C 0.65054 0.35317 0.70462 0.0
C213 C 0.65092 0.30168 0.71771 0.0
C214 C 0.65045 0.36212 0.66795 0.0
C215 C 0.64657 0.25692 0.69395 0.0
C216 C 0.64471 0.26466 0.65749 0.0
C217 C 0.65359 0.32921 0.60757 0.0
C218 C 0.66313 0.38512 0.59468 0.0
C219 C 0.64842 0.3179 0.64416 0.0
C220 C 0.66272 0.42774 0.61836 0.0
C221 C 0.65577 0.41608 0.65467 0.0
H222 H 0.3634 0.64966 0.92311 0.0
H223 H 0.1994 0.65251 0.94822 0.0
H224 H 0.21455 0.64329 0.01128 0.0
H225 H 0.28061 0.64648 0.0596 0.0
H226 H 0.44876 0.65198 0.03453 0.0
H227 H 0.4257 0.64524 0.97138 0.0
C228 C 0.33044 0.64699 0.94239 0.0
C229 C 0.2806 0.65201 0.93118 0.0
C230 C 0.34055 0.64383 0.97869 0.0
C231 C 0.2384 0.6491 0.95636 0.0
C232 C 0.24707 0.64396 -0.0076 0.0
C233 C 0.31156 0.64507 0.04029 0.0
C234 C 0.36638 0.65011 0.05158 0.0
C235 C 0.29893 0.64314 0.00395 0.0
C236 C 0.40642 0.64867 0.02637 0.0
C237 C 0.39333 0.64486 0.99026 0.0
H238 H 0.62528 0.29522 0.39424 0.0
H239 H 0.80017 0.45374 0.37513 0.0
H240 H 0.79257 0.42904 0.31217 0.0
H241 H 0.73168 0.36867 0.26178 0.0
H242 H 0.55371 0.21419 0.28011 0.0
H243 H 0.56721 0.23045 0.34403 0.0
C244 C 0.66204 0.32366 0.37632 0.0
C245 C 0.7129 0.37636 0.38911 0.0
C246 C 0.65662 0.31016 0.33996 0.0
C247 C 0.76023 0.41317 0.36572 0.0
C248 C 0.75596 0.39912 0.32974 0.0
C249 C 0.69635 0.33799 0.27982 0.0
C250 C 0.64172 0.29066 0.26637 0.0
C251 C 0.70368 0.34868 0.31643 0.0
C252 C 0.59608 0.25132 0.28995 0.0
C253 C 0.60369 0.26061 0.32647 0.0
H254 H 0.32505 0.62064 0.7273 0.0
H255 H 0.3213 0.78707 0.71151 0.0
H256 H 0.33698 0.78277 0.64801 0.0
H257 H 0.34116 0.72619 0.59618 0.0
H258 H 0.33791 0.55624 0.61157 0.0
H259 H 0.33659 0.56781 0.67576 0.0
C260 C 0.32854 0.65632 0.70997 0.0
C261 C 0.32147 0.7037 0.72396 0.0
C262 C 0.33612 0.65284 0.67331 0.0
C263 C 0.32596 0.74969 0.70126 0.0
C264 C 0.33499 0.74735 0.66494 0.0
C265 C 0.34148 0.69246 0.61366 0.0
C266 C 0.33943 0.64044 0.5993 0.0
C267 C 0.33864 0.69837 0.65054 0.0
C268 C 0.33918 0.59661 0.62213 0.0
C269 C 0.33823 0.60306 0.65882 0.0
loop_
_geom_bond_atom_site_label_1
_geom_bond_atom_site_label_2
_geom_bond_distance
_geom_bond_site_symmetry_2
_ccdc_geom_bond_type
In0 O1 2.294 . S
In0 O2 2.326 . S
In0 O6 2.266 . S
In0 O7 2.326 . S
In0 O8 2.266 . S
In0 O9 2.326 . S
In0 O11 2.294 . S
In0 O12 2.326 . S
O1 In0 2.294 . S
O1 C10 1.240 . S
O2 In0 2.326 . S
O2 C10 1.252 . S
C3 O6 1.252 . S
C3 O7 1.260 . S
C4 O11 1.240 . S
C4 O12 1.252 . S
C5 O8 1.252 . S
C5 O9 1.260 . S
O6 In0 2.266 . S
O6 C3 1.252 . S
O7 In0 2.326 . S
O7 C3 1.260 . S
O8 In0 2.266 . S
O8 C5 1.252 . S
O9 In0 2.326 . S
O9 C5 1.260 . S
C10 O1 1.240 . S
C10 O2 1.252 . S
O11 In0 2.294 . S
O11 C4 1.240 . S
O12 In0 2.326 . S
O12 C4 1.252 . S
In13 O14 2.294 . S
In13 O15 2.326 . S
In13 O19 2.266 . S
In13 O20 2.326 . S
In13 O21 2.266 . S
In13 O22 2.326 . S
In13 O24 2.294 . S
In13 O25 2.326 . S
O14 In13 2.294 . S
O14 C23 1.240 . S
O15 In13 2.326 . S
O15 C23 1.252 . S
C16 O19 1.252 . S
C16 O20 1.260 . S
C17 O24 1.240 . S
C17 O25 1.252 . S
C18 O21 1.252 . S
C18 O22 1.260 . S
O19 In13 2.266 . S
O19 C16 1.252 . S
O20 In13 2.326 . S
O20 C16 1.260 . S
O21 In13 2.266 . S
O21 C18 1.252 . S
O22 In13 2.326 . S
O22 C18 1.260 . S
C23 O14 1.240 . S
C23 O15 1.252 . S
O24 In13 2.294 . S
O24 C17 1.240 . S
O25 In13 2.326 . S
O25 C17 1.252 . S
In26 O27 2.294 . S
In26 O28 2.326 . S
In26 O32 2.266 . S
In26 O33 2.326 . S
In26 O34 2.266 . S
In26 O35 2.326 . S
In26 O37 2.294 . S
In26 O38 2.326 . S
O27 In26 2.294 . S
O27 C36 1.240 . S
O28 In26 2.326 . S
O28 C36 1.252 . S
C29 O32 1.252 . S
C29 O33 1.260 . S
C30 O37 1.240 . S
C30 O38 1.252 . S
C31 O34 1.252 . S
C31 O35 1.260 . S
O32 In26 2.266 . S
O32 C29 1.252 . S
O33 In26 2.326 . S
O33 C29 1.260 . S
O34 In26 2.266 . S
O34 C31 1.252 . S
O35 In26 2.326 . S
O35 C31 1.260 . S
C36 O27 1.240 . S
C36 O28 1.252 . S
O37 In26 2.294 . S
O37 C30 1.240 . S
O38 In26 2.326 . S
O38 C30 1.252 . S
In39 O40 2.294 . S
In39 O41 2.326 . S
In39 O45 2.266 . S
In39 O46 2.326 . S
In39 O47 2.266 . S
In39 O48 2.326 . S
In39 O50 2.294 . S
In39 O51 2.326 . S
O40 In39 2.294 . S
O40 C49 1.240 . S
O41 In39 2.326 . S
O41 C49 1.252 . S
C42 O45 1.252 . S
C42 O46 1.260 . S
C43 O50 1.240 . S
C43 O51 1.252 . S
C44 O47 1.252 . S
C44 O48 1.260 . S
O45 In39 2.266 . S
O45 C42 1.252 . S
O46 In39 2.326 . S
O46 C42 1.260 . S
O47 In39 2.266 . S
O47 C44 1.252 . S
O48 In39 2.326 . S
O48 C44 1.260 . S
C49 O40 1.240 . S
C49 O41 1.252 . S
O50 In39 2.294 . S
O50 C43 1.240 . S
O51 In39 2.326 . S
O51 C43 1.252 . S
In52 O53 2.294 . S
In52 O54 2.326 . S
In52 O58 2.266 . S
In52 O59 2.326 . S
In52 O60 2.266 . S
In52 O61 2.326 . S
In52 O63 2.294 . S
In52 O64 2.326 . S
O53 In52 2.294 . S
O53 C62 1.240 . S
O54 In52 2.326 . S
O54 C62 1.252 . S
C55 O58 1.252 . S
C55 O59 1.260 . S
C56 O63 1.240 . S
C56 O64 1.252 . S
C57 O60 1.252 . S
C57 O61 1.260 . S
O58 In52 2.266 . S
O58 C55 1.252 . S
O59 In52 2.326 . S
O59 C55 1.260 . S
O60 In52 2.266 . S
O60 C57 1.252 . S
O61 In52 2.326 . S
O61 C57 1.260 . S
C62 O53 1.240 . S
C62 O54 1.252 . S
O63 In52 2.294 . S
O63 C56 1.240 . S
O64 In52 2.326 . S
O64 C56 1.252 . S
In65 O66 2.294 . S
In65 O67 2.326 . S
In65 O71 2.266 . S
In65 O72 2.326 . S
In65 O73 2.266 . S
In65 O74 2.326 . S
In65 O76 2.294 . S
In65 O77 2.326 . S
O66 In65 2.294 . S
O66 C75 1.240 . S
O67 In65 2.326 . S
O67 C75 1.252 . S
C68 O71 1.252 . S
C68 O72 1.260 . S
C69 O76 1.240 . S
C69 O77 1.252 . S
C70 O73 1.252 . S
C70 O74 1.260 . S
O71 In65 2.266 . S
O71 C68 1.252 . S
O72 In65 2.326 . S
O72 C68 1.260 . S
O73 In65 2.266 . S
O73 C70 1.252 . S
O74 In65 2.326 . S
O74 C70 1.260 . S
C75 O66 1.240 . S
C75 O67 1.252 . S
O76 In65 2.294 . S
O76 C69 1.240 . S
O77 In65 2.326 . S
O77 C69 1.252 . S
H78 C84 0.930 . S
H79 C87 0.930 . S
H80 C88 0.930 . S
H81 C89 0.930 . S
H82 C92 0.930 . S
H83 C93 0.930 . S
C84 H78 0.930 . S
C84 C85 1.355 . S
C84 C86 1.415 1_545 S
C85 C84 1.355 . S
C85 C87 1.419 . S
C86 C84 1.415 1_565 S
C86 C91 1.425 1_565 S
C86 C93 1.409 . S
C87 H79 0.930 . S
C87 C85 1.419 . S
C87 C88 1.362 . S
C88 H80 0.930 . S
C88 C87 1.362 . S
C88 C91 1.409 . S
C89 H81 0.930 . S
C89 C90 1.355 . S
C89 C91 1.415 1_565 S
C90 C89 1.355 . S
C90 C92 1.419 . S
C91 C86 1.425 1_545 S
C91 C88 1.409 . S
C91 C89 1.415 1_545 S
C92 H82 0.930 . S
C92 C90 1.419 . S
C92 C93 1.362 . S
C93 H83 0.930 . S
C93 C86 1.409 . S
C93 C92 1.362 . S
H94 C100 0.930 . S
H95 C103 0.930 . S
H96 C104 0.930 . S
H97 C105 0.930 . S
H98 C108 0.930 . S
H99 C109 0.930 . S
C100 H94 0.930 . S
C100 C101 1.355 . S
C100 C102 1.415 . S
C101 C100 1.355 . S
C101 C103 1.419 . S
C102 C100 1.415 . S
C102 C107 1.425 . S
C102 C109 1.409 . S
C103 H95 0.930 . S
C103 C101 1.419 . S
C103 C104 1.362 . S
C104 H96 0.930 . S
C104 C103 1.362 . S
C104 C107 1.409 . S
C105 H97 0.930 . S
C105 C106 1.355 . S
C105 C107 1.415 . S
C106 C105 1.355 . S
C106 C108 1.419 . S
C107 C102 1.425 . S
C107 C104 1.409 . S
C107 C105 1.415 . S
C108 H98 0.930 . S
C108 C106 1.419 . S
C108 C109 1.362 . S
C109 H99 0.930 . S
C109 C102 1.409 . S
C109 C108 1.362 . S
H110 C116 0.930 . S
H111 C119 0.930 . S
H112 C120 0.930 1_455 S
H113 C121 0.930 . S
H114 C124 0.930 . S
H115 C125 0.930 1_655 S
C116 H110 0.930 . S
C116 C117 1.355 . S
C116 C118 1.415 . S
C117 C116 1.355 . S
C117 C119 1.419 . S
C118 C116 1.415 . S
C118 C123 1.425 1_655 S
C118 C125 1.409 1_655 S
C119 H111 0.930 . S
C119 C117 1.419 . S
C119 C120 1.362 . S
C120 H112 0.930 1_655 S
C120 C119 1.362 . S
C120 C123 1.409 1_655 S
C121 H113 0.930 . S
C121 C122 1.355 . S
C121 C123 1.415 . S
C122 C121 1.355 . S
C122 C124 1.419 . S
C123 C118 1.425 1_455 S
C123 C120 1.409 1_455 S
C123 C121 1.415 . S
C124 H114 0.930 . S
C124 C122 1.419 . S
C124 C125 1.362 . S
C125 H115 0.930 1_455 S
C125 C118 1.409 1_455 S
C125 C124 1.362 . S
H126 C132 0.930 . S
H127 C135 0.930 . S
H128 C136 0.930 . S
H129 C137 0.930 . S
H130 C140 0.930 . S
H131 C141 0.930 . S
C132 H126 0.930 . S
C132 C133 1.355 . S
C132 C134 1.415 1_455 S
C133 C132 1.355 . S
C133 C135 1.419 . S
C134 C132 1.415 1_655 S
C134 C139 1.425 1_655 S
C134 C141 1.409 . S
C135 H127 0.930 . S
C135 C133 1.419 . S
C135 C136 1.362 . S
C136 H128 0.930 . S
C136 C135 1.362 . S
C136 C139 1.409 . S
C137 H129 0.930 . S
C137 C138 1.355 . S
C137 C139 1.415 1_655 S
C138 C137 1.355 . S
C138 C140 1.419 . S
C139 C134 1.425 1_455 S
C139 C136 1.409 . S
C139 C137 1.415 1_455 S
C140 H130 0.930 . S
C140 C138 1.419 . S
C140 C141 1.362 . S
C141 H131 0.930 . S
C141 C134 1.409 . S
C141 C140 1.362 . S
H142 C148 0.930 . S
H143 C151 0.930 . S
H144 C152 0.930 . S
H145 C153 0.930 . S
H146 C156 0.930 . S
H147 C157 0.930 . S
C148 H142 0.930 . S
C148 C149 1.355 . S
C148 C150 1.415 1_565 S
C149 C148 1.355 . S
C149 C151 1.419 . S
C150 C148 1.415 1_545 S
C150 C155 1.425 1_545 S
C150 C157 1.409 . S
C151 H143 0.930 . S
C151 C149 1.419 . S
C151 C152 1.362 . S
C152 H144 0.930 . S
C152 C151 1.362 . S
C152 C155 1.409 . S
C153 H145 0.930 . S
C153 C154 1.355 . S
C153 C155 1.415 1_545 S
C154 C153 1.355 . S
C154 C156 1.419 . S
C155 C150 1.425 1_565 S
C155 C152 1.409 . S
C155 C153 1.415 1_565 S
C156 H146 0.930 . S
C156 C154 1.419 . S
C156 C157 1.362 . S
C157 H147 0.930 . S
C157 C150 1.409 . S
C157 C156 1.362 . S
H158 C164 0.930 . S
H159 C167 0.930 . S
H160 C168 0.930 . S
H161 C169 0.930 . S
H162 C172 0.930 . S
H163 C173 0.930 . S
C164 H158 0.930 . S
C164 C165 1.355 . S
C164 C166 1.415 . S
C165 C164 1.355 . S
C165 C167 1.419 . S
C166 C164 1.415 . S
C166 C171 1.425 . S
C166 C173 1.409 . S
C167 H159 0.930 . S
C167 C165 1.419 . S
C167 C168 1.362 . S
C168 H160 0.930 . S
C168 C167 1.362 . S
C168 C171 1.409 . S
C169 H161 0.930 . S
C169 C170 1.355 . S
C169 C171 1.415 . S
C170 C169 1.355 . S
C170 C172 1.419 . S
C171 C166 1.425 . S
C171 C168 1.409 . S
C171 C169 1.415 . S
C172 H162 0.930 . S
C172 C170 1.419 . S
C172 C173 1.362 . S
C173 H163 0.930 . S
C173 C166 1.409 . S
C173 C172 1.362 . S
H174 C180 0.930 . S
H175 C183 0.930 . S
H176 C184 0.930 . S
H177 C185 0.930 . S
H178 C188 0.930 . S
H179 C189 0.930 . S
C180 H174 0.930 . S
C180 C181 1.355 . S
C180 C182 1.415 . S
C181 C180 1.355 . S
C181 C183 1.419 . S
C182 C180 1.415 . S
C182 C187 1.425 1_556 S
C182 C189 1.409 1_556 S
C183 H175 0.930 . S
C183 C181 1.419 . S
C183 C184 1.362 . S
C184 H176 0.930 . S
C184 C183 1.362 . S
C184 C187 1.409 1_556 S
C185 H177 0.930 . S
C185 C186 1.355 . S
C185 C187 1.415 . S
C186 C185 1.355 . S
C186 C188 1.419 . S
C187 C182 1.425 1_554 S
C187 C184 1.409 1_554 S
C187 C185 1.415 . S
C188 H178 0.930 . S
C188 C186 1.419 . S
C188 C189 1.362 . S
C189 H179 0.930 . S
C189 C182 1.409 1_554 S
C189 C188 1.362 . S
H190 C196 0.930 . S
H191 C199 0.930 . S
H192 C200 0.930 . S
H193 C201 0.930 . S
H194 C204 0.930 . S
H195 C205 0.930 . S
C196 H190 0.930 . S
C196 C197 1.355 . S
C196 C198 1.415 . S
C197 C196 1.355 . S
C197 C199 1.419 . S
C198 C196 1.415 . S
C198 C203 1.425 . S
C198 C205 1.409 . S
C199 H191 0.930 . S
C199 C197 1.419 . S
C199 C200 1.362 . S
C200 H192 0.930 . S
C200 C199 1.362 . S
C200 C203 1.409 . S
C201 H193 0.930 . S
C201 C202 1.355 . S
C201 C203 1.415 . S
C202 C201 1.355 . S
C202 C204 1.419 . S
C203 C198 1.425 . S
C203 C200 1.409 . S
C203 C201 1.415 . S
C204 H194 0.930 . S
C204 C202 1.419 . S
C204 C205 1.362 . S
C205 H195 0.930 . S
C205 C198 1.409 . S
C205 C204 1.362 . S
H206 C212 0.930 . S
H207 C215 0.930 . S
H208 C216 0.930 . S
H209 C217 0.930 . S
H210 C220 0.930 . S
H211 C221 0.930 . S
C212 H206 0.930 . S
C212 C213 1.355 . S
C212 C214 1.415 . S
C213 C212 1.355 . S
C213 C215 1.419 . S
C214 C212 1.415 . S
C214 C219 1.425 . S
C214 C221 1.409 . S
C215 H207 0.930 . S
C215 C213 1.419 . S
C215 C216 1.362 . S
C216 H208 0.930 . S
C216 C215 1.362 . S
C216 C219 1.409 . S
C217 H209 0.930 . S
C217 C218 1.355 . S
C217 C219 1.415 . S
C218 C217 1.355 . S
C218 C220 1.419 . S
C219 C214 1.425 . S
C219 C216 1.409 . S
C219 C217 1.415 . S
C220 H210 0.930 . S
C220 C218 1.419 . S
C220 C221 1.362 . S
C221 H211 0.930 . S
C221 C214 1.409 . S
C221 C220 1.362 . S
H222 C228 0.930 . S
H223 C231 0.930 . S
H224 C232 0.930 1_554 S
H225 C233 0.930 . S
H226 C236 0.930 . S
H227 C237 0.930 1_556 S
C228 H222 0.930 . S
C228 C229 1.355 . S
C228 C230 1.415 . S
C229 C228 1.355 . S
C229 C231 1.419 . S
C230 C228 1.415 . S
C230 C235 1.425 1_556 S
C230 C237 1.409 1_556 S
C231 H223 0.930 . S
C231 C229 1.419 . S
C231 C232 1.362 . S
C232 H224 0.930 1_556 S
C232 C231 1.362 . S
C232 C235 1.409 1_556 S
C233 H225 0.930 . S
C233 C234 1.355 . S
C233 C235 1.415 . S
C234 C233 1.355 . S
C234 C236 1.419 . S
C235 C230 1.425 1_554 S
C235 C232 1.409 1_554 S
C235 C233 1.415 . S
C236 H226 0.930 . S
C236 C234 1.419 . S
C236 C237 1.362 . S
C237 H227 0.930 1_554 S
C237 C230 1.409 1_554 S
C237 C236 1.362 . S
H238 C244 0.930 . S
H239 C247 0.930 . S
H240 C248 0.930 . S
H241 C249 0.930 . S
H242 C252 0.930 . S
H243 C253 0.930 . S
C244 H238 0.930 . S
C244 C245 1.355 . S
C244 C246 1.415 . S
C245 C244 1.355 . S
C245 C247 1.419 . S
C246 C244 1.415 . S
C246 C251 1.425 . S
C246 C253 1.409 . S
C247 H239 0.930 . S
C247 C245 1.419 . S
C247 C248 1.362 . S
C248 H240 0.930 . S
C248 C247 1.362 . S
C248 C251 1.409 . S
C249 H241 0.930 . S
C249 C250 1.355 . S
C249 C251 1.415 . S
C250 C249 1.355 . S
C250 C252 1.419 . S
C251 C246 1.425 . S
C251 C248 1.409 . S
C251 C249 1.415 . S
C252 H242 0.930 . S
C252 C250 1.419 . S
C252 C253 1.362 . S
C253 H243 0.930 . S
C253 C246 1.409 . S
C253 C252 1.362 . S
H254 C260 0.930 . S
H255 C263 0.930 . S
H256 C264 0.930 . S
H257 C265 0.930 . S
H258 C268 0.930 . S
H259 C269 0.930 . S
C260 H254 0.930 . S
C260 C261 1.355 . S
C260 C262 1.415 . S
C261 C260 1.355 . S
C261 C263 1.419 . S
C262 C260 1.415 . S
C262 C267 1.425 . S
C262 C269 1.409 . S
C263 H255 0.930 . S
C263 C261 1.419 . S
C263 C264 1.362 . S
C264 H256 0.930 . S
C264 C263 1.362 . S
C264 C267 1.409 . S
C265 H257 0.930 . S
C265 C266 1.355 . S
C265 C267 1.415 . S
C266 C265 1.355 . S
C266 C268 1.419 . S
C267 C262 1.425 . S
C267 C264 1.409 . S
C267 C265 1.415 . S
C268 H258 0.930 . S
C268 C266 1.419 . S
C268 C269 1.362 . S
C269 H259 0.930 . S
C269 C262 1.409 . S
C269 C268 1.362 . S
C85 C3 1.409 . S
C90 C42 1.410 . S
C101 C18 1.452 . S
C106 C55 1.451 . S
C117 C31 1.438 . S
C122 C68 1.437 . S
C133 C17 1.399 . S
C138 C62 1.396 . S
C149 C75 1.394 . S
C154 C30 1.394 . S
C165 C49 1.396 . S
C170 C10 1.394 . S
C181 C36 1.383 . S
C186 C5 1.374 . S
C197 C43 1.353 . S
C202 C16 1.363 . S
C213 C29 1.354 . S
C218 C56 1.349 . S
C229 C69 1.357 . S
C234 C44 1.345 . S
C245 C57 1.357 . S
C250 C4 1.350 . S
C261 C70 1.357 . S
C266 C23 1.350 . S
