# Generated by pormake.
# Topology unp, (4)-cn, num edge types: 1
# Building blocks:
#     Node 0, Type 0, BuildingBlock: ICAMEG_clean_sbu_1, # of connection points: 4
#     Node 1, Type 0, BuildingBlock: ICAMEG_clean_sbu_1, # of connection points: 4
#     Node 2, Type 0, BuildingBlock: ICAMEG_clean_sbu_1, # of connection points: 4
#     Node 3, Type 0, BuildingBlock: ICAMEG_clean_sbu_1, # of connection points: 4
#     Node 4, Type 0, BuildingBlock: ICAMEG_clean_sbu_1, # of connection points: 4
#     Node 5, Type 0, BuildingBlock: ICAMEG_clean_sbu_1, # of connection points: 4
#     Node 6, Type 0, BuildingBlock: ICAMEG_clean_sbu_1, # of connection points: 4
#     Node 7, Type 0, BuildingBlock: ICAMEG_clean_sbu_1, # of connection points: 4
#     Node 8, Type 0, BuildingBlock: ICAMEG_clean_sbu_1, # of connection points: 4
#     Node 9, Type 0, BuildingBlock: ICAMEG_clean_sbu_1, # of connection points: 4
#     Node 10, Type 0, BuildingBlock: ICAMEG_clean_sbu_1, # of connection points: 4
#     Node 11, Type 0, BuildingBlock: ICAMEG_clean_sbu_1, # of connection points: 4
#     Node 12, Type 0, BuildingBlock: ICAMEG_clean_sbu_1, # of connection points: 4
#     Node 13, Type 0, BuildingBlock: ICAMEG_clean_sbu_1, # of connection points: 4
#     Node 14, Type 0, BuildingBlock: ICAMEG_clean_sbu_1, # of connection points: 4
#     Node 15, Type 0, BuildingBlock: ICAMEG_clean_sbu_1, # of connection points: 4
#     Node 16, Type 0, BuildingBlock: ICAMEG_clean_sbu_1, # of connection points: 4
#     Node 17, Type 0, BuildingBlock: ICAMEG_clean_sbu_1, # of connection points: 4
#     Edge 18, Type (0, 0), BuildingBlock: CIFDUS_clean_linker_0, # of connection points: 2
#     Edge 19, Type (0, 0), BuildingBlock: CIFDUS_clean_linker_0, # of connection points: 2
#     Edge 20, Type (0, 0), BuildingBlock: CIFDUS_clean_linker_0, # of connection points: 2
#     Edge 21, Type (0, 0), BuildingBlock: CIFDUS_clean_linker_0, # of connection points: 2
#     Edge 22, Type (0, 0), BuildingBlock: CIFDUS_clean_linker_0, # of connection points: 2
#     Edge 23, Type (0, 0), BuildingBlock: CIFDUS_clean_linker_0, # of connection points: 2
#     Edge 24, Type (0, 0), BuildingBlock: CIFDUS_clean_linker_0, # of connection points: 2
#     Edge 25, Type (0, 0), BuildingBlock: CIFDUS_clean_linker_0, # of connection points: 2
#     Edge 26, Type (0, 0), BuildingBlock: CIFDUS_clean_linker_0, # of connection points: 2
#     Edge 27, Type (0, 0), BuildingBlock: CIFDUS_clean_linker_0, # of connection points: 2
#     Edge 28, Type (0, 0), BuildingBlock: CIFDUS_clean_linker_0, # of connection points: 2
#     Edge 29, Type (0, 0), BuildingBlock: CIFDUS_clean_linker_0, # of connection points: 2
#     Edge 30, Type (0, 0), BuildingBlock: CIFDUS_clean_linker_0, # of connection points: 2
#     Edge 31, Type (0, 0), BuildingBlock: CIFDUS_clean_linker_0, # of connection points: 2
#     Edge 32, Type (0, 0), BuildingBlock: CIFDUS_clean_linker_0, # of connection points: 2
#     Edge 33, Type (0, 0), BuildingBlock: CIFDUS_clean_linker_0, # of connection points: 2
#     Edge 34, Type (0, 0), BuildingBlock: CIFDUS_clean_linker_0, # of connection points: 2
#     Edge 35, Type (0, 0), BuildingBlock: CIFDUS_clean_linker_0, # of connection points: 2
#     Edge 36, Type (0, 0), BuildingBlock: CIFDUS_clean_linker_0, # of connection points: 2
#     Edge 37, Type (0, 0), BuildingBlock: CIFDUS_clean_linker_0, # of connection points: 2
#     Edge 38, Type (0, 0), BuildingBlock: CIFDUS_clean_linker_0, # of connection points: 2
#     Edge 39, Type (0, 0), BuildingBlock: CIFDUS_clean_linker_0, # of connection points: 2
#     Edge 40, Type (0, 0), BuildingBlock: CIFDUS_clean_linker_0, # of connection points: 2
#     Edge 41, Type (0, 0), BuildingBlock: CIFDUS_clean_linker_0, # of connection points: 2
#     Edge 42, Type (0, 0), BuildingBlock: CIFDUS_clean_linker_0, # of connection points: 2
#     Edge 43, Type (0, 0), BuildingBlock: CIFDUS_clean_linker_0, # of connection points: 2
#     Edge 44, Type (0, 0), BuildingBlock: CIFDUS_clean_linker_0, # of connection points: 2
#     Edge 45, Type (0, 0), BuildingBlock: CIFDUS_clean_linker_0, # of connection points: 2
#     Edge 46, Type (0, 0), BuildingBlock: CIFDUS_clean_linker_0, # of connection points: 2
#     Edge 47, Type (0, 0), BuildingBlock: CIFDUS_clean_linker_0, # of connection points: 2
#     Edge 48, Type (0, 0), BuildingBlock: CIFDUS_clean_linker_0, # of connection points: 2
#     Edge 49, Type (0, 0), BuildingBlock: CIFDUS_clean_linker_0, # of connection points: 2
#     Edge 50, Type (0, 0), BuildingBlock: CIFDUS_clean_linker_0, # of connection points: 2
#     Edge 51, Type (0, 0), BuildingBlock: CIFDUS_clean_linker_0, # of connection points: 2
#     Edge 52, Type (0, 0), BuildingBlock: CIFDUS_clean_linker_0, # of connection points: 2
#     Edge 53, Type (0, 0), BuildingBlock: CIFDUS_clean_linker_0, # of connection points: 2
# Relax obj value: 0.382
# Max RMSD: 0.174
# Mean RMSD: 0.174
data_MOF--net-unp--node1-ICAMEG_clean_sbu_1--edge1-CIFDUS_clean_linker_0
_symmetry_space_group_name_H-M    P1
_symmetry_Int_Tables_number       1
_symmetry_cell_setting            triclinic
loop_
_symmetry_equiv_pos_as_xyz
'x, y, z'
_cell_length_a     45.473789
_cell_length_b     45.450912
_cell_length_c     56.742035
_cell_angle_alpha  89.98278
_cell_angle_beta   90.007526
_cell_angle_gamma 120.00769
loop_
_atom_site_label
_atom_site_type_symbol
_atom_site_fract_x
_atom_site_fract_y
_atom_site_fract_z
_atom_type_partial_charge
Co0 Co 0.18641 0.09189 0.08083 0.0
Co1 Co 0.1848 0.10309 0.14094 0.0
O2 O 0.20849 0.11265 0.11058 0.0
C3 C 0.21646 0.16442 0.0687 0.0
O4 O 0.20516 0.16876 0.08896 0.0
C5 C 0.24174 0.08995 0.14853 0.0
O6 O 0.23272 0.07217 0.12896 0.0
O7 O 0.16171 0.05285 0.1358 0.0
O8 O 0.15778 0.04744 0.09648 0.0
H9 H 0.08437 0.04702 0.19537 0.0
H10 H 0.26146 0.12968 0.08338 0.0
O11 O 0.21407 0.13595 0.06395 0.0
H12 H 0.23037 0.01303 0.06036 0.0
H13 H 0.18244 0.07128 0.9933 0.0
H14 H 0.11529 0.04425 0.06646 0.0
H15 H 0.18614 0.02856 0.06647 0.0
H16 H 0.21031 0.09635 0.03121 0.0
O17 O 0.22424 0.10264 0.15637 0.0
H18 H 0.11384 0.05899 0.15709 0.0
H19 H 0.20738 0.12781 0.18992 0.0
H20 H 0.08652 0.01816 0.02901 0.0
H21 H 0.30657 0.11532 0.07731 0.0
H22 H 0.12013 0.03167 0.99208 0.0
H23 H 0.29109 0.0566 0.06578 0.0
O24 O 0.15053 0.10392 0.08668 0.0
H25 H 0.28368 0.22252 0.1423 0.0
H26 H 0.16066 0.15025 0.1561 0.0
H27 H 0.18776 0.21217 0.1619 0.0
H28 H 0.24973 0.24875 0.15506 0.0
H29 H 0.25551 0.16054 0.13646 0.0
H30 H 0.17897 0.11637 0.22861 0.0
H31 H 0.117 0.07582 0.23148 0.0
O32 O 0.14532 0.104 0.1261 0.0
C33 C 0.15054 0.03492 0.11714 0.0
C34 C 0.11137 0.0648 0.19434 0.0
C35 C 0.16448 0.10369 0.213 0.0
N36 N 0.16225 0.0942 0.17126 0.0
C37 C 0.12818 0.07174 0.1727 0.0
C38 C 0.18044 0.10999 0.19106 0.0
C39 C 0.1297 0.08094 0.2146 0.0
C40 C 0.25459 0.10416 0.07815 0.0
N41 N 0.22125 0.08002 0.0752 0.0
C42 C 0.28021 0.09615 0.07483 0.0
C43 C 0.2715 0.06317 0.0684 0.0
C44 C 0.23744 0.03871 0.06537 0.0
C45 C 0.21249 0.04762 0.06891 0.0
C46 C 0.16754 0.06511 0.00929 0.0
C47 C 0.13017 0.05004 0.05051 0.0
C48 C 0.18316 0.0793 0.0308 0.0
N49 N 0.16451 0.07155 0.05109 0.0
C50 C 0.1137 0.03528 0.02933 0.0
C51 C 0.13257 0.0429 0.00861 0.0
C52 C 0.13589 0.10607 0.10527 0.0
C53 C 0.25668 0.20684 0.14541 0.0
C54 C 0.18761 0.16599 0.153 0.0
C55 C 0.20283 0.20104 0.15637 0.0
C56 C 0.23761 0.22154 0.15254 0.0
N57 N 0.20651 0.15174 0.14608 0.0
C58 C 0.2406 0.1717 0.14222 0.0
Co59 Co 0.91056 0.08482 0.06272 0.0
Co60 Co 0.88603 0.06615 0.12053 0.0
O61 O 0.88421 0.08462 0.08983 0.0
C62 C 0.84145 0.05162 0.04209 0.0
O63 O 0.83066 0.03089 0.06024 0.0
C64 C 0.89755 0.13511 0.13277 0.0
O65 O 0.92407 0.14909 0.11875 0.0
O66 O 0.93677 0.0942 0.12132 0.0
O67 O 0.94973 0.09411 0.08317 0.0
H68 H 0.92862 0.01456 0.18023 0.0
H69 H 0.87918 0.12834 0.06297 0.0
O70 O 0.87214 0.0756 0.04126 0.0
H71 H 0.00194 0.20708 0.05281 0.0
H72 H 0.95123 0.11121 0.97867 0.0
H73 H 0.95526 0.05609 0.05254 0.0
H74 H 0.97946 0.14533 0.05591 0.0
H75 H 0.92061 0.11307 0.01401 0.0
O76 O 0.88128 0.10309 0.13599 0.0
H77 H 0.9261 0.03736 0.14133 0.0
H78 H 0.8493 0.05694 0.16592 0.0
H79 H 0.98622 0.05361 0.0176 0.0
H80 H 0.90053 0.18992 0.05983 0.0
H81 H 0.9841 0.08117 0.98027 0.0
H82 H 0.96234 0.22974 0.05473 0.0
O83 O 0.89298 0.03499 0.06628 0.0
H84 H 0.76744 0.04407 0.10688 0.0
H85 H 0.83666 0.99305 0.13005 0.0
H86 H 0.77435 0.95711 0.12823 0.0
H87 H 0.73928 0.98263 0.11666 0.0
H88 H 0.82984 0.079 0.10863 0.0
H89 H 0.85121 0.03461 0.20518 0.0
H90 H 0.89098 0.01309 0.2125 0.0
O91 O 0.88971 0.02836 0.10559 0.0
C92 C 0.95799 0.09923 0.10486 0.0
C93 C 0.91114 0.02381 0.17725 0.0
C94 C 0.86773 0.03511 0.19126 0.0
N95 N 0.8875 0.04836 0.15132 0.0
C96 C 0.90955 0.0367 0.15524 0.0
C97 C 0.86685 0.04784 0.16902 0.0
C98 C 0.89003 0.02302 0.19535 0.0
C99 C 0.90608 0.14551 0.06062 0.0
N100 N 0.92804 0.13327 0.05956 0.0
C101 C 0.91803 0.18035 0.05891 0.0
C102 C 0.95272 0.20268 0.05609 0.0
C103 C 0.97496 0.18999 0.05503 0.0
C104 C 0.9621 0.15501 0.05686 0.0
C105 C 0.95232 0.09913 0.99483 0.0
C106 C 0.9545 0.06842 0.03644 0.0
C107 C 0.93502 0.10007 0.0149 0.0
N108 N 0.93628 0.08485 0.03538 0.0
C109 C 0.97203 0.06687 0.01669 0.0
C110 C 0.97084 0.08232 0.99576 0.0
C111 C 0.88933 0.01747 0.0848 0.0
C112 C 0.78243 0.03268 0.11202 0.0
C113 C 0.82161 0.00434 0.12491 0.0
C114 C 0.78632 0.98386 0.12396 0.0
C115 C 0.76665 0.9982 0.11748 0.0
N116 N 0.8369 0.03818 0.11963 0.0
C117 C 0.81778 0.05237 0.11315 0.0
Co118 Co 0.9249 0.81289 0.06531 0.0
Co119 Co 0.92216 0.80752 0.12592 0.0
O120 O 0.91436 0.78695 0.09454 0.0
C121 C 0.964 0.77761 0.05764 0.0
O122 O 0.97772 0.7879 0.07856 0.0
C123 C 0.85054 0.75206 0.12563 0.0
O124 O 0.84746 0.76354 0.1051 0.0
O125 O 0.89805 0.83258 0.11729 0.0
O126 O 0.90971 0.84355 0.07881 0.0
H127 H 0.95631 0.90293 0.18373 0.0
H128 H 0.88126 0.73802 0.06339 0.0
O129 O 0.94059 0.78318 0.05076 0.0
H130 H 0.8116 0.78342 0.03043 0.0
H131 H 0.93328 0.82736 0.97704 0.0
H132 H 0.95859 0.88628 0.05366 0.0
H133 H 0.87017 0.82217 0.04386 0.0
H134 H 0.91612 0.79468 0.01416 0.0
O135 O 0.87839 0.76764 0.13697 0.0
H136 H 0.94707 0.87716 0.14422 0.0
H137 H 0.91207 0.77989 0.17479 0.0
H138 H 0.97591 0.91988 0.01698 0.0
H139 H 0.82293 0.69832 0.04992 0.0
H140 H 0.96353 0.89046 0.97835 0.0
H141 H 0.78765 0.721 0.03338 0.0
O142 O 0.97175 0.84442 0.07651 0.0
H143 H 0.93758 0.7056 0.13051 0.0
H144 H 0.98838 0.82741 0.14917 0.0
H145 H 0.01943 0.79756 0.15929 0.0
H146 H 0.99397 0.73618 0.15003 0.0
H147 H 0.90755 0.7365 0.12047 0.0
H148 H 0.92066 0.80457 0.21464 0.0
H149 H 0.94306 0.86654 0.21929 0.0
O150 O 0.96637 0.84748 0.11565 0.0
C151 C 0.89857 0.84794 0.09831 0.0
C152 C 0.94662 0.87591 0.18193 0.0
C153 C 0.92657 0.8207 0.19928 0.0
N154 N 0.92927 0.82711 0.15721 0.0
C155 C 0.94143 0.86119 0.15961 0.0
C156 C 0.92168 0.80685 0.17667 0.0
C157 C 0.93916 0.85547 0.20187 0.0
C158 C 0.86616 0.74805 0.056 0.0
N159 N 0.87911 0.78234 0.05436 0.0
C160 C 0.83311 0.72547 0.04848 0.0
C161 C 0.81331 0.73821 0.03925 0.0
C162 C 0.82672 0.77323 0.03762 0.0
C163 C 0.85986 0.79505 0.04532 0.0
C164 C 0.93875 0.84048 0.99378 0.0
C165 C 0.95263 0.87322 0.0369 0.0
C166 C 0.9291 0.82211 0.01486 0.0
N167 N 0.93606 0.83853 0.03608 0.0
C168 C 0.96265 0.8924 0.01619 0.0
C169 C 0.9557 0.87586 0.99451 0.0
C170 C 0.9836 0.85756 0.09661 0.0
C171 C 0.94889 0.73232 0.1347 0.0
C172 C 0.97718 0.80073 0.14499 0.0
C173 C 0.99486 0.78394 0.15082 0.0
C174 C 0.98055 0.7495 0.14563 0.0
N175 N 0.94607 0.78367 0.13437 0.0
C176 C 0.93195 0.74993 0.12914 0.0
Co177 Co 0.10306 0.1708 0.9352 0.0
Co178 Co 0.10998 0.17413 0.87467 0.0
O179 O 0.12146 0.1953 0.90584 0.0
C180 C 0.17638 0.1999 0.94503 0.0
O181 O 0.17957 0.18845 0.9245 0.0
C182 C 0.08977 0.21911 0.84951 0.0
O183 O 0.0623 0.19199 0.84191 0.0
O184 O 0.06013 0.15187 0.88159 0.0
O185 O 0.05745 0.14335 0.92073 0.0
H186 H 0.04764 0.07913 0.81674 0.0
H187 H 0.1397 0.246 0.93464 0.0
O188 O 0.14827 0.19763 0.95076 0.0
H189 H 0.02622 0.21168 0.96674 0.0
H190 H 0.09207 0.15903 0.02345 0.0
H191 H 0.0574 0.09845 0.94749 0.0
H192 H 0.04144 0.16857 0.9555 0.0
H193 H 0.11136 0.19051 0.98603 0.0
O194 O 0.11054 0.21608 0.86298 0.0
H195 H 0.06227 0.10548 0.85614 0.0
H196 H 0.13471 0.19983 0.82597 0.0
H197 H 0.03748 0.06595 0.98452 0.0
H198 H 0.12567 0.29006 0.94579 0.0
H199 H 0.05491 0.09613 0.02282 0.0
H200 H 0.06856 0.27295 0.96195 0.0
O201 O 0.11473 0.1357 0.92579 0.0
H202 H 0.23061 0.2708 0.8732 0.0
H203 H 0.15483 0.14949 0.85523 0.0
H204 H 0.21626 0.17553 0.84783 0.0
H205 H 0.2546 0.23665 0.85674 0.0
H206 H 0.16908 0.24369 0.88062 0.0
H207 H 0.12088 0.17449 0.78622 0.0
H208 H 0.07704 0.11371 0.78142 0.0
O209 O 0.11006 0.1326 0.88635 0.0
C210 C 0.04348 0.1389 0.90059 0.0
C211 C 0.06675 0.10565 0.81859 0.0
C212 C 0.10786 0.15916 0.80147 0.0
N213 N 0.09918 0.15419 0.84335 0.0
C214 C 0.07511 0.12072 0.84086 0.0
C215 C 0.11556 0.17338 0.82401 0.0
C216 C 0.08326 0.12506 0.79879 0.0
C217 C 0.11483 0.23841 0.94171 0.0
N218 N 0.0914 0.20479 0.9444 0.0
C219 C 0.10701 0.26344 0.94797 0.0
C220 C 0.07495 0.25383 0.95702 0.0
C221 C 0.05118 0.21946 0.95968 0.0
C222 C 0.05988 0.19515 0.9532 0.0
C223 C 0.08417 0.14551 0.00688 0.0
C224 C 0.06478 0.11187 0.9641 0.0
C225 C 0.09502 0.16323 0.98561 0.0
N226 N 0.08533 0.14637 0.96458 0.0
C227 C 0.05357 0.0933 0.98501 0.0
C228 C 0.06337 0.11029 0.00652 0.0
C229 C 0.11419 0.12181 0.90614 0.0
C230 C 0.21414 0.24417 0.86917 0.0
C231 C 0.17133 0.17606 0.85927 0.0
C232 C 0.20611 0.19069 0.85497 0.0
C233 C 0.2276 0.22499 0.85997 0.0
N234 N 0.15828 0.19508 0.8682 0.0
C235 C 0.17924 0.2287 0.87324 0.0
Co236 Co 0.81952 0.91472 0.9154 0.0
Co237 Co 0.81266 0.91084 0.85492 0.0
O238 O 0.79291 0.90438 0.88653 0.0
C239 C 0.78776 0.95687 0.92647 0.0
O240 O 0.8014 0.97522 0.90746 0.0
C241 C 0.75649 0.83983 0.85603 0.0
O242 O 0.76837 0.8368 0.87641 0.0
O243 O 0.83645 0.88547 0.86341 0.0
O244 O 0.84892 0.8984 0.90156 0.0
H245 H 0.90595 0.94058 0.79604 0.0
H246 H 0.74458 0.87211 0.91799 0.0
O247 O 0.79058 0.93089 0.93058 0.0
H248 H 0.78864 0.80133 0.95103 0.0
H249 H 0.83669 0.92313 0.00347 0.0
H250 H 0.89305 0.94693 0.92595 0.0
H251 H 0.8279 0.85947 0.93705 0.0
H252 H 0.80287 0.9068 0.96687 0.0
O253 O 0.77187 0.86756 0.84454 0.0
H254 H 0.8814 0.93322 0.83583 0.0
H255 H 0.78398 0.90051 0.80639 0.0
H256 H 0.92774 0.96328 0.96209 0.0
H257 H 0.70438 0.81426 0.93208 0.0
H258 H 0.89962 0.95169 0.00116 0.0
H259 H 0.72637 0.7784 0.94864 0.0
O260 O 0.85166 0.96131 0.90369 0.0
H261 H 0.71313 0.93008 0.85088 0.0
H262 H 0.8341 0.97711 0.83117 0.0
H263 H 0.80569 0.00956 0.82099 0.0
H264 H 0.74473 0.98599 0.83078 0.0
H265 H 0.7426 0.89864 0.86095 0.0
H266 H 0.80742 0.90727 0.76627 0.0
H267 H 0.86886 0.92756 0.76091 0.0
O268 O 0.85368 0.95442 0.86462 0.0
C269 C 0.85203 0.88601 0.88224 0.0
C270 C 0.87917 0.93182 0.79814 0.0
C271 C 0.82386 0.91308 0.78144 0.0
N272 N 0.83136 0.91668 0.82342 0.0
C273 C 0.86514 0.92769 0.82063 0.0
C274 C 0.81071 0.90923 0.80419 0.0
C275 C 0.85833 0.92448 0.77844 0.0
C276 C 0.75434 0.85677 0.92538 0.0
N277 N 0.78855 0.86917 0.92672 0.0
C278 C 0.73145 0.82399 0.93325 0.0
C279 C 0.74381 0.80386 0.9425 0.0
C280 C 0.77874 0.8167 0.94382 0.0
C281 C 0.80086 0.84959 0.93578 0.0
C282 C 0.84924 0.92829 0.98652 0.0
C283 C 0.88054 0.94134 0.94289 0.0
C284 C 0.83023 0.91914 0.96573 0.0
N285 N 0.84593 0.92568 0.94426 0.0
C286 C 0.90034 0.9508 0.9633 0.0
C287 C 0.88453 0.94427 0.98524 0.0
C288 C 0.86469 0.97218 0.88338 0.0
C289 C 0.73967 0.94058 0.84647 0.0
C290 C 0.80761 0.96675 0.83559 0.0
C291 C 0.79164 0.98521 0.82972 0.0
C292 C 0.75743 0.97196 0.83521 0.0
N293 N 0.78998 0.93591 0.84653 0.0
C294 C 0.75648 0.92284 0.85206 0.0
Co295 Co 0.08008 0.88461 0.92507 0.0
Co296 Co 0.07068 0.87508 0.86473 0.0
O297 O 0.08391 0.86524 0.89529 0.0
C298 C 0.03938 0.8114 0.93578 0.0
O299 O 0.02432 0.80732 0.91531 0.0
C300 C 0.14118 0.88864 0.85742 0.0
O301 O 0.15002 0.90519 0.8775 0.0
O302 O 0.0973 0.92513 0.87054 0.0
O303 O 0.09522 0.92931 0.90985 0.0
H304 H 0.02733 0.93173 0.80993 0.0
H305 H 0.11978 0.84919 0.92325 0.0
O306 O 0.06437 0.84024 0.94132 0.0
H307 H 0.20093 0.96611 0.94863 0.0
H308 H 0.09038 0.90119 0.01315 0.0
H309 H 0.05338 0.92975 0.93917 0.0
H310 H 0.14096 0.94865 0.94107 0.0
H311 H 0.09745 0.87922 0.97508 0.0
O312 O 0.111 0.87629 0.84971 0.0
H313 H 0.04406 0.9193 0.84835 0.0
H314 H 0.06987 0.8512 0.81562 0.0
H315 H 0.0462 0.95256 0.97681 0.0
H316 H 0.1795 0.8655 0.93074 0.0
H317 H 0.06467 0.93821 0.01416 0.0
H318 H 0.22053 0.92437 0.94347 0.0
O319 O 0.03199 0.87131 0.91825 0.0
H320 H 0.0515 0.75617 0.86302 0.0
H321 H 0.00011 0.82762 0.84812 0.0
H322 H 0.96607 0.76577 0.84175 0.0
H323 H 0.9918 0.7296 0.84914 0.0
H324 H 0.0845 0.81808 0.86944 0.0
H325 H 0.05371 0.86314 0.7768 0.0
H326 H 0.03212 0.90355 0.7738 0.0
O327 O 0.02982 0.87351 0.87881 0.0
C328 C 0.102 0.94242 0.88933 0.0
C329 C 0.03665 0.91403 0.81101 0.0
C330 C 0.0515 0.87557 0.79242 0.0
N331 N 0.0578 0.88445 0.83425 0.0
C332 C 0.0461 0.90683 0.83273 0.0
C333 C 0.06072 0.869 0.81443 0.0
C334 C 0.03937 0.89823 0.79075 0.0
C335 C 0.13745 0.87476 0.92899 0.0
N336 N 0.12691 0.89791 0.93179 0.0
C337 C 0.17124 0.88389 0.93312 0.0
C338 C 0.19426 0.91694 0.94022 0.0
C339 C 0.18329 0.94038 0.9431 0.0
C340 C 0.14933 0.93038 0.93874 0.0
C341 C 0.08234 0.90771 0.99698 0.0
C342 C 0.06184 0.92369 0.9553 0.0
C343 C 0.08624 0.89531 0.97536 0.0
N344 N 0.07611 0.90341 0.95487 0.0
C345 C 0.05758 0.93657 0.97658 0.0
C346 C 0.0679 0.92848 0.99754 0.0
C347 C 0.01669 0.87029 0.89915 0.0
C348 C 0.04003 0.77167 0.85968 0.0
C349 C 0.01144 0.81206 0.8515 0.0
C350 C 0.99207 0.77705 0.84779 0.0
C351 C 0.00653 0.75677 0.85192 0.0
N352 N 0.04432 0.8265 0.85906 0.0
C353 C 0.05864 0.80677 0.8632 0.0
Co354 Co 0.84114 0.43513 0.3911 0.0
Co355 Co 0.85644 0.45647 0.44974 0.0
O356 O 0.87159 0.45868 0.41725 0.0
C357 C 0.87603 0.50532 0.3717 0.0
O358 O 0.86827 0.51597 0.39097 0.0
C359 C 0.90238 0.43793 0.47527 0.0
O360 O 0.87565 0.41281 0.48545 0.0
O361 O 0.83009 0.40543 0.44889 0.0
O362 O 0.8128 0.39512 0.41124 0.0
H363 H 0.77192 0.41522 0.51609 0.0
H364 H 0.91524 0.46336 0.38556 0.0
O365 O 0.86879 0.47453 0.36992 0.0
H366 H 0.86367 0.34081 0.36921 0.0
H367 H 0.81327 0.40087 0.30601 0.0
H368 H 0.76631 0.39287 0.38563 0.0
H369 H 0.82779 0.36553 0.37918 0.0
H370 H 0.8513 0.42835 0.33985 0.0
O371 O 0.89866 0.45652 0.46012 0.0
H372 H 0.79091 0.41806 0.47502 0.0
H373 H 0.89169 0.4915 0.49431 0.0
H374 H 0.72742 0.36433 0.35234 0.0
H375 H 0.95212 0.43975 0.37549 0.0
H376 H 0.7509 0.36875 0.31215 0.0
H377 H 0.92633 0.37804 0.36725 0.0
O378 O 0.81168 0.45445 0.39979 0.0
H379 H 0.9575 0.57219 0.43507 0.0
H380 H 0.84018 0.50953 0.46523 0.0
H381 H 0.87088 0.57214 0.46521 0.0
H382 H 0.93006 0.60392 0.45014 0.0
H383 H 0.92571 0.50957 0.43512 0.0
H384 H 0.8738 0.48938 0.53562 0.0
H385 H 0.81351 0.45104 0.54672 0.0
O386 O 0.81485 0.4573 0.43936 0.0
C387 C 0.81149 0.3855 0.43247 0.0
C388 C 0.79826 0.432 0.51147 0.0
C389 C 0.85544 0.47362 0.52243 0.0
N390 N 0.84238 0.45483 0.48228 0.0
C391 C 0.80917 0.43371 0.48825 0.0
C392 C 0.86543 0.47467 0.49903 0.0
C393 C 0.82161 0.45211 0.52865 0.0
C394 C 0.90385 0.43651 0.3819 0.0
N395 N 0.86941 0.41586 0.3829 0.0
C396 C 0.92485 0.42327 0.37626 0.0
C397 C 0.91036 0.38864 0.37166 0.0
C398 C 0.87522 0.36773 0.37277 0.0
C399 C 0.85502 0.38185 0.3785 0.0
C400 C 0.80277 0.39883 0.32345 0.0
C401 C 0.77674 0.3944 0.36826 0.0
C402 C 0.82416 0.41445 0.34268 0.0
N403 N 0.81107 0.41211 0.36474 0.0
C404 C 0.75458 0.37828 0.34947 0.0
C405 C 0.76777 0.38067 0.32692 0.0
C406 C 0.80172 0.45893 0.41986 0.0
C407 C 0.93177 0.55863 0.44175 0.0
C408 C 0.86582 0.52313 0.45851 0.0
C409 C 0.88314 0.5586 0.45862 0.0
C410 C 0.91634 0.57642 0.45018 0.0
N411 N 0.88116 0.50583 0.45032 0.0
C412 C 0.91367 0.52315 0.44192 0.0
Co413 Co 0.56472 0.42775 0.42575 0.0
Co414 Co 0.57692 0.4444 0.48509 0.0
O415 O 0.55579 0.44432 0.45497 0.0
C416 C 0.48935 0.38478 0.42378 0.0
O417 O 0.48924 0.37159 0.4444 0.0
C418 C 0.58703 0.5135 0.47925 0.0
O419 O 0.59743 0.5133 0.45771 0.0
O420 O 0.62331 0.4683 0.47077 0.0
O421 O 0.61308 0.44561 0.43455 0.0
H422 H 0.6555 0.42764 0.53851 0.0
H423 H 0.53249 0.47049 0.4232 0.0
O424 O 0.51663 0.40953 0.41573 0.0
H425 H 0.63839 0.53208 0.37733 0.0
H426 H 0.55157 0.40161 0.3388 0.0
H427 H 0.60257 0.39239 0.41316 0.0
H428 H 0.6228 0.47732 0.39622 0.0
H429 H 0.54345 0.42542 0.37563 0.0
O430 O 0.58011 0.48885 0.49312 0.0
H431 H 0.62855 0.42682 0.50061 0.0
H432 H 0.56997 0.46392 0.53407 0.0
H433 H 0.61208 0.36905 0.37658 0.0
H434 H 0.54677 0.52488 0.40422 0.0
H435 H 0.58632 0.37341 0.33907 0.0
H436 H 0.60016 0.55615 0.3812 0.0
O437 O 0.55283 0.38385 0.44117 0.0
H438 H 0.45925 0.4237 0.50083 0.0
H439 H 0.54006 0.38341 0.51591 0.0
H440 H 0.48259 0.35234 0.53307 0.0
H441 H 0.44177 0.37253 0.52562 0.0
H442 H 0.51683 0.45381 0.48382 0.0
H443 H 0.59647 0.46538 0.57231 0.0
H444 H 0.63947 0.44702 0.57471 0.0
O445 O 0.57337 0.39956 0.47787 0.0
C446 C 0.63331 0.46237 0.45123 0.0
C447 C 0.63673 0.43562 0.5377 0.0
C448 C 0.60364 0.45685 0.55667 0.0
N449 N 0.59761 0.44515 0.51515 0.0
C450 C 0.62134 0.43514 0.5163 0.0
C451 C 0.5888 0.45606 0.53495 0.0
C452 C 0.62776 0.44653 0.558 0.0
C453 C 0.55558 0.48378 0.413 0.0
N454 N 0.57677 0.47073 0.41081 0.0
C455 C 0.56361 0.51463 0.40238 0.0
C456 C 0.5936 0.53219 0.3895 0.0
C457 C 0.61509 0.51873 0.38735 0.0
C458 C 0.60621 0.48778 0.39819 0.0
C459 C 0.56302 0.39965 0.35502 0.0
C460 C 0.59164 0.3948 0.39686 0.0
C461 C 0.55842 0.413 0.37596 0.0
N462 N 0.57271 0.41053 0.39654 0.0
C463 C 0.59698 0.38138 0.37622 0.0
C464 C 0.5825 0.3838 0.35518 0.0
C465 C 0.56097 0.37762 0.46133 0.0
C466 C 0.47684 0.41471 0.50426 0.0
C467 C 0.52242 0.3923 0.51252 0.0
C468 C 0.48992 0.37464 0.52233 0.0
C469 C 0.46704 0.38599 0.51815 0.0
N470 N 0.53191 0.42056 0.49901 0.0
C471 C 0.50954 0.43174 0.49475 0.0
Co472 Co 0.56896 0.16287 0.41276 0.0
Co473 Co 0.58603 0.16298 0.47218 0.0
O474 O 0.56843 0.13976 0.44186 0.0
C475 C 0.60601 0.12859 0.3952 0.0
O476 O 0.62771 0.14185 0.41267 0.0
C477 C 0.51536 0.10898 0.48119 0.0
O478 O 0.50686 0.11938 0.46215 0.0
O479 O 0.56126 0.18889 0.46915 0.0
O480 O 0.55687 0.1933 0.43004 0.0
H481 H 0.64098 0.26309 0.52702 0.0
H482 H 0.52744 0.0879 0.4156 0.0
O483 O 0.58045 0.13281 0.39405 0.0
H484 H 0.44691 0.1266 0.39494 0.0
H485 H 0.54636 0.17068 0.32658 0.0
H486 H 0.59783 0.235 0.39951 0.0
H487 H 0.50779 0.16785 0.40026 0.0
H488 H 0.54355 0.14072 0.36352 0.0
O489 O 0.54592 0.12476 0.48852 0.0
H490 H 0.61926 0.23439 0.48886 0.0
H491 H 0.5894 0.13874 0.52041 0.0
H492 H 0.60237 0.2659 0.36285 0.0
H493 H 0.46686 0.04562 0.40994 0.0
H494 H 0.57602 0.23385 0.32613 0.0
H495 H 0.42611 0.06493 0.39969 0.0
O496 O 0.61814 0.19631 0.4172 0.0
H497 H 0.59882 0.05937 0.46954 0.0
H498 H 0.65732 0.18274 0.48447 0.0
H499 H 0.68923 0.15221 0.48781 0.0
H500 H 0.65993 0.09005 0.48039 0.0
H501 H 0.56794 0.09092 0.46618 0.0
H502 H 0.61059 0.16638 0.55897 0.0
H503 H 0.6367 0.22901 0.56243 0.0
O504 O 0.62657 0.20119 0.45639 0.0
C505 C 0.55359 0.2006 0.45117 0.0
C506 C 0.62968 0.23578 0.52574 0.0
C507 C 0.61257 0.1815 0.54367 0.0
N508 N 0.60308 0.18494 0.5024 0.0
C509 C 0.61736 0.21939 0.50416 0.0
C510 C 0.60051 0.16598 0.52181 0.0
C511 C 0.62725 0.21664 0.5456 0.0
C512 C 0.50987 0.09646 0.41099 0.0
N513 N 0.52108 0.13034 0.40844 0.0
C514 C 0.4756 0.07242 0.40786 0.0
C515 C 0.45274 0.08328 0.40215 0.0
C516 C 0.46437 0.11787 0.39954 0.0
C517 C 0.49883 0.14116 0.40277 0.0
C518 C 0.55774 0.18499 0.34251 0.0
C519 C 0.5864 0.22076 0.38359 0.0
C520 C 0.55618 0.16816 0.36349 0.0
N521 N 0.57016 0.18607 0.38374 0.0
C522 C 0.58896 0.23843 0.36288 0.0
C523 C 0.57432 0.22038 0.34225 0.0
C524 C 0.63671 0.21034 0.43527 0.0
C525 C 0.61184 0.08643 0.47288 0.0
C526 C 0.64441 0.15571 0.48114 0.0
C527 C 0.6626 0.13854 0.4831 0.0
C528 C 0.64614 0.10367 0.47894 0.0
N529 N 0.61073 0.1386 0.47528 0.0
C530 C 0.59446 0.10443 0.47109 0.0
Co531 Co 0.7708 0.50555 0.23946 0.0
Co532 Co 0.75502 0.50916 0.18054 0.0
O533 O 0.7796 0.53009 0.20977 0.0
C534 C 0.84463 0.52748 0.24328 0.0
O535 O 0.84247 0.50797 0.22553 0.0
C536 C 0.75107 0.5717 0.18679 0.0
O537 O 0.74176 0.56212 0.20864 0.0
O538 O 0.71003 0.49055 0.19665 0.0
O539 O 0.72131 0.47822 0.2326 0.0
H540 H 0.66716 0.4152 0.13034 0.0
H541 H 0.80917 0.58089 0.24017 0.0
O542 O 0.82017 0.53265 0.24785 0.0
H543 H 0.70848 0.54789 0.28992 0.0
H544 H 0.78614 0.49543 0.32646 0.0
H545 H 0.72914 0.43321 0.25392 0.0
H546 H 0.71757 0.50426 0.27101 0.0
H547 H 0.79553 0.52582 0.2888 0.0
O548 O 0.75525 0.55232 0.17268 0.0
H549 H 0.69843 0.44119 0.16707 0.0
H550 H 0.75986 0.53454 0.1314 0.0
H551 H 0.71844 0.40187 0.29139 0.0
H552 H 0.80148 0.62537 0.25918 0.0
H553 H 0.74679 0.43318 0.32805 0.0
H554 H 0.75072 0.60897 0.28415 0.0
O555 O 0.77717 0.46988 0.22378 0.0
H556 H 0.8743 0.59874 0.15988 0.0
H557 H 0.785 0.47938 0.14824 0.0
H558 H 0.84042 0.50093 0.12863 0.0
H559 H 0.88549 0.56105 0.13432 0.0
H560 H 0.81865 0.57608 0.17935 0.0
H561 H 0.72908 0.50964 0.09432 0.0
H562 H 0.68243 0.44951 0.09362 0.0
O563 O 0.75517 0.46604 0.18763 0.0
C564 C 0.70054 0.47592 0.21667 0.0
C565 C 0.68748 0.4414 0.13041 0.0
C566 C 0.7222 0.49442 0.1102 0.0
N567 N 0.73101 0.48929 0.15137 0.0
C568 C 0.70533 0.45624 0.15114 0.0
C569 C 0.73947 0.50841 0.13127 0.0
C570 C 0.69604 0.46068 0.10982 0.0
C571 C 0.78721 0.57353 0.25122 0.0
N572 N 0.76384 0.53998 0.25447 0.0
C573 C 0.78291 0.59884 0.26186 0.0
C574 C 0.7544 0.58962 0.27583 0.0
C575 C 0.73066 0.55536 0.27904 0.0
C576 C 0.73582 0.53075 0.26816 0.0
C577 C 0.77347 0.48158 0.31064 0.0
C578 C 0.74155 0.44697 0.26979 0.0
C579 C 0.77883 0.49862 0.28921 0.0
N580 N 0.76282 0.48135 0.26914 0.0
C581 C 0.73546 0.42908 0.29095 0.0
C582 C 0.75146 0.4466 0.31149 0.0
C583 C 0.76697 0.45526 0.20379 0.0
C584 C 0.85483 0.57252 0.1572 0.0
C585 C 0.80452 0.50554 0.15089 0.0
C586 C 0.83583 0.51762 0.13969 0.0
C587 C 0.8611 0.55135 0.14289 0.0
N588 N 0.79849 0.52651 0.16481 0.0
C589 C 0.82321 0.55957 0.16812 0.0
Co590 Co 0.48328 0.26337 0.29339 0.0
Co591 Co 0.46849 0.25846 0.23368 0.0
O592 O 0.45344 0.25285 0.26638 0.0
C593 C 0.45165 0.30537 0.30407 0.0
O594 O 0.46 0.31872 0.28289 0.0
C595 C 0.41905 0.19017 0.21381 0.0
O596 O 0.44423 0.18844 0.20386 0.0
O597 O 0.49243 0.23215 0.23955 0.0
O598 O 0.50905 0.24447 0.27736 0.0
H599 H 0.552 0.28417 0.16797 0.0
H600 H 0.40852 0.22275 0.29906 0.0
O601 O 0.45793 0.28221 0.3103 0.0
H602 H 0.4524 0.15131 0.33123 0.0
H603 H 0.51004 0.27556 0.3801 0.0
H604 H 0.55755 0.29258 0.29989 0.0
H605 H 0.49155 0.20824 0.31525 0.0
H606 H 0.4725 0.25865 0.34544 0.0
O607 O 0.42495 0.21569 0.22649 0.0
H608 H 0.53328 0.27758 0.20938 0.0
H609 H 0.43361 0.25063 0.18746 0.0
H610 H 0.59601 0.30962 0.33416 0.0
H611 H 0.36839 0.16599 0.31499 0.0
H612 H 0.57225 0.30111 0.37465 0.0
H613 H 0.3903 0.12986 0.33121 0.0
O614 O 0.51552 0.30919 0.28024 0.0
H615 H 0.37159 0.2817 0.2396 0.0
H616 H 0.48815 0.32471 0.21037 0.0
H617 H 0.4603 0.35872 0.20424 0.0
H618 H 0.40153 0.33719 0.21882 0.0
H619 H 0.40054 0.24871 0.24564 0.0
H620 H 0.45124 0.25692 0.14579 0.0
H621 H 0.51082 0.27378 0.13583 0.0
O622 O 0.5115 0.30149 0.24098 0.0
C623 C 0.50953 0.23187 0.2574 0.0
C624 C 0.52594 0.27672 0.17208 0.0
C625 C 0.4694 0.26143 0.15963 0.0
N626 N 0.48234 0.26345 0.20084 0.0
C627 C 0.51518 0.27289 0.1955 0.0
C628 C 0.45955 0.25786 0.18325 0.0
C629 C 0.50283 0.2709 0.15406 0.0
C630 C 0.41822 0.20715 0.30609 0.0
N631 N 0.45233 0.21873 0.30615 0.0
C632 C 0.39539 0.17504 0.31508 0.0
C633 C 0.40769 0.15477 0.32416 0.0
C634 C 0.44252 0.16676 0.32415 0.0
C635 C 0.46458 0.19896 0.31497 0.0
C636 C 0.52069 0.27922 0.36259 0.0
C637 C 0.547 0.2885 0.31745 0.0
C638 C 0.49956 0.26976 0.34286 0.0
N639 N 0.51279 0.27444 0.32063 0.0
C640 C 0.56891 0.29833 0.33678 0.0
C641 C 0.55558 0.29361 0.35949 0.0
C642 C 0.52573 0.31939 0.25925 0.0
C643 C 0.39717 0.29131 0.2331 0.0
C644 C 0.46267 0.31524 0.21691 0.0
C645 C 0.44698 0.33457 0.2133 0.0
C646 C 0.414 0.32246 0.22147 0.0
N647 N 0.44597 0.28463 0.22825 0.0
C648 C 0.41366 0.27267 0.23638 0.0
Co649 Co 0.7356 0.22865 0.2541 0.0
Co650 Co 0.72016 0.20802 0.19538 0.0
O651 O 0.7343 0.20222 0.22678 0.0
C652 C 0.69185 0.15993 0.27483 0.0
O653 O 0.67039 0.15218 0.25727 0.0
C654 C 0.78682 0.21192 0.18508 0.0
O655 O 0.803 0.23889 0.19852 0.0
O656 O 0.75279 0.2583 0.19602 0.0
O657 O 0.75241 0.27025 0.23449 0.0
H658 H 0.68162 0.26077 0.13362 0.0
H659 H 0.77123 0.18909 0.25395 0.0
O660 O 0.71967 0.18803 0.27485 0.0
H661 H 0.85942 0.30679 0.27223 0.0
H662 H 0.75578 0.26341 0.33958 0.0
H663 H 0.71441 0.27957 0.26304 0.0
H664 H 0.79982 0.29204 0.26646 0.0
H665 H 0.75749 0.23263 0.30429 0.0
O666 O 0.75501 0.19847 0.18158 0.0
H667 H 0.69854 0.25357 0.17351 0.0
H668 H 0.71222 0.17276 0.14949 0.0
H669 H 0.71195 0.31058 0.29791 0.0
H670 H 0.83046 0.20256 0.25978 0.0
H671 H 0.73284 0.30266 0.33656 0.0
H672 H 0.87504 0.26181 0.26892 0.0
O673 O 0.6877 0.21729 0.24814 0.0
H674 H 0.68208 0.08465 0.20868 0.0
H675 H 0.64708 0.16596 0.18226 0.0
H676 H 0.60522 0.10467 0.18248 0.0
H677 H 0.62267 0.06353 0.19569 0.0
H678 H 0.72303 0.14616 0.20838 0.0
H679 H 0.69559 0.17915 0.1093 0.0
H680 H 0.68006 0.22337 0.10115 0.0
O681 O 0.68431 0.21626 0.20865 0.0
C682 C 0.76006 0.27928 0.21307 0.0
C683 C 0.68842 0.24147 0.13692 0.0
C684 C 0.6963 0.19569 0.12327 0.0
N685 N 0.70669 0.21303 0.16383 0.0
C686 C 0.69811 0.23734 0.15949 0.0
C687 C 0.70587 0.19232 0.14606 0.0
C688 C 0.68756 0.22048 0.11872 0.0
C689 C 0.7905 0.21492 0.25796 0.0
N690 N 0.78217 0.23985 0.25966 0.0
C691 C 0.82398 0.22239 0.26123 0.0
C692 C 0.84899 0.25565 0.26634 0.0
C693 C 0.84026 0.2809 0.26816 0.0
C694 C 0.80652 0.27248 0.26474 0.0
C695 C 0.74675 0.26718 0.32284 0.0
C696 C 0.72376 0.27616 0.27974 0.0
C697 C 0.74763 0.24981 0.30278 0.0
N698 N 0.73629 0.25449 0.28156 0.0
C699 C 0.72228 0.29377 0.29944 0.0
C700 C 0.7339 0.28924 0.32112 0.0
C701 C 0.67242 0.21625 0.22898 0.0
C702 C 0.67421 0.10231 0.20277 0.0
C703 C 0.6549 0.14823 0.18801 0.0
C704 C 0.63107 0.11355 0.18809 0.0
C705 C 0.64087 0.09048 0.19551 0.0
N706 N 0.68763 0.15963 0.19499 0.0
C707 C 0.69734 0.13717 0.20245 0.0
Co708 Co 0.50996 0.76338 0.74021 0.0
Co709 Co 0.52126 0.76636 0.80048 0.0
O710 O 0.53856 0.77915 0.76827 0.0
C711 C 0.54315 0.83791 0.73271 0.0
O712 O 0.53402 0.84113 0.75408 0.0
C713 C 0.57676 0.75061 0.79629 0.0
O714 O 0.56449 0.73714 0.77561 0.0
O715 O 0.49531 0.71716 0.79202 0.0
O716 O 0.48168 0.71727 0.75401 0.0
H717 H 0.43188 0.70553 0.86237 0.0
H718 H 0.58466 0.79648 0.73483 0.0
O719 O 0.53738 0.80906 0.72538 0.0
H720 H 0.5391 0.68222 0.70041 0.0
H721 H 0.48786 0.75746 0.65289 0.0
H722 H 0.43577 0.72159 0.73153 0.0
H723 H 0.50055 0.70034 0.71701 0.0
H724 H 0.52355 0.77385 0.68852 0.0
O725 O 0.56178 0.76228 0.8089 0.0
H726 H 0.4536 0.72189 0.82184 0.0
H727 H 0.55374 0.78399 0.84796 0.0
H728 H 0.39912 0.70418 0.69628 0.0
H729 H 0.62414 0.77955 0.71821 0.0
H730 H 0.42512 0.72226 0.6566 0.0
H731 H 0.60139 0.722 0.70091 0.0
O732 O 0.47843 0.77733 0.75385 0.0
H733 H 0.62366 0.88359 0.80209 0.0
H734 H 0.50404 0.81295 0.82632 0.0
H735 H 0.53506 0.87391 0.83634 0.0
H736 H 0.59535 0.90964 0.82427 0.0
H737 H 0.5916 0.82261 0.79222 0.0
H738 H 0.53314 0.76809 0.88877 0.0
H739 H 0.47178 0.7287 0.89618 0.0
O740 O 0.48066 0.77058 0.79291 0.0
C741 C 0.47894 0.702 0.77342 0.0
C742 C 0.45866 0.72279 0.85937 0.0
C743 C 0.5155 0.75786 0.87419 0.0
N744 N 0.50486 0.75401 0.83254 0.0
C745 C 0.47109 0.7322 0.83646 0.0
C746 C 0.52703 0.76669 0.85104 0.0
C747 C 0.48107 0.73577 0.87833 0.0
C748 C 0.57458 0.77151 0.72715 0.0
N749 N 0.54036 0.74944 0.72687 0.0
C750 C 0.59705 0.76202 0.71784 0.0
C751 C 0.58427 0.7297 0.70818 0.0
C752 C 0.54932 0.70735 0.70793 0.0
C753 C 0.52762 0.7177 0.71743 0.0
C754 C 0.47619 0.74927 0.67005 0.0
C755 C 0.44732 0.72918 0.71431 0.0
C756 C 0.49629 0.75854 0.69033 0.0
N757 N 0.4818 0.74847 0.71211 0.0
C758 C 0.42642 0.71937 0.69442 0.0
C759 C 0.44102 0.72954 0.67216 0.0
C760 C 0.46784 0.77654 0.7748 0.0
C761 C 0.59742 0.86826 0.8075 0.0
C762 C 0.53022 0.82835 0.82092 0.0
C763 C 0.54768 0.86284 0.82669 0.0
C764 C 0.58152 0.88287 0.81993 0.0
N765 N 0.54604 0.81417 0.80881 0.0
C766 C 0.57917 0.83368 0.80204 0.0
Co767 Co 0.21898 0.7215 0.74283 0.0
Co768 Co 0.22594 0.73414 0.80273 0.0
O769 O 0.20708 0.73517 0.77207 0.0
C770 C 0.1444 0.67367 0.73649 0.0
O771 O 0.14373 0.65556 0.75473 0.0
C772 C 0.24925 0.80452 0.82004 0.0
O773 O 0.27819 0.80727 0.82669 0.0
O774 O 0.27335 0.76023 0.79018 0.0
O775 O 0.2672 0.74195 0.75275 0.0
H776 H 0.30305 0.71898 0.85864 0.0
H777 H 0.18414 0.76187 0.74256 0.0
O778 O 0.17114 0.70154 0.73163 0.0
H779 H 0.28885 0.82901 0.69637 0.0
H780 H 0.21158 0.70021 0.65525 0.0
H781 H 0.26107 0.69069 0.73024 0.0
H782 H 0.27539 0.77373 0.71338 0.0
H783 H 0.19988 0.72077 0.6923 0.0
O784 O 0.22651 0.77744 0.81019 0.0
H785 H 0.27887 0.71954 0.81985 0.0
H786 H 0.21192 0.74734 0.85195 0.0
H787 H 0.27378 0.67019 0.6935 0.0
H788 H 0.19642 0.81692 0.72573 0.0
H789 H 0.24892 0.67485 0.65567 0.0
H790 H 0.24912 0.85091 0.70246 0.0
O791 O 0.20923 0.67744 0.75725 0.0
H792 H 0.10592 0.70904 0.81435 0.0
H793 H 0.18783 0.67068 0.83113 0.0
H794 H 0.12913 0.63714 0.84583 0.0
H795 H 0.08774 0.65636 0.83755 0.0
H796 H 0.16475 0.74163 0.79974 0.0
H797 H 0.23531 0.747 0.89112 0.0
H798 H 0.28125 0.7328 0.89463 0.0
O799 O 0.22483 0.69068 0.79512 0.0
C800 C 0.28554 0.75786 0.77044 0.0
C801 C 0.28308 0.72528 0.85734 0.0
C802 C 0.24506 0.74099 0.87557 0.0
N803 N 0.24419 0.73369 0.83361 0.0
C804 C 0.26934 0.72569 0.83542 0.0
C805 C 0.23193 0.74116 0.85335 0.0
C806 C 0.27083 0.73302 0.87753 0.0
C807 C 0.2071 0.7765 0.73243 0.0
N808 N 0.22911 0.76465 0.72903 0.0
C809 C 0.21393 0.80766 0.72296 0.0
C810 C 0.24352 0.82673 0.70992 0.0
C811 C 0.26583 0.81448 0.70652 0.0
C812 C 0.25819 0.78324 0.71629 0.0
C813 C 0.22266 0.69814 0.67161 0.0
C814 C 0.25042 0.69311 0.71382 0.0
C815 C 0.21606 0.70967 0.69268 0.0
N816 N 0.22994 0.70714 0.71345 0.0
C817 C 0.2576 0.68134 0.69308 0.0
C818 C 0.24359 0.6839 0.67186 0.0
C819 C 0.21557 0.67018 0.77771 0.0
C820 C 0.12375 0.70046 0.81814 0.0
C821 C 0.16995 0.67914 0.82732 0.0
C822 C 0.13676 0.66008 0.83576 0.0
C823 C 0.11355 0.67088 0.83113 0.0
N824 N 0.17984 0.70825 0.81471 0.0
C825 C 0.15716 0.71889 0.80998 0.0
Co826 Co 0.25046 0.46752 0.73437 0.0
Co827 Co 0.26096 0.47036 0.79482 0.0
O828 O 0.24888 0.44612 0.76459 0.0
C829 C 0.29655 0.44118 0.72288 0.0
O830 O 0.31281 0.45421 0.74271 0.0
C831 C 0.19266 0.40931 0.80301 0.0
O832 O 0.18247 0.41432 0.78252 0.0
O833 O 0.23147 0.49068 0.78842 0.0
O834 O 0.23184 0.49444 0.74894 0.0
H835 H 0.29913 0.57164 0.84782 0.0
H836 H 0.21607 0.39259 0.73784 0.0
O837 O 0.26915 0.44121 0.71851 0.0
H838 H 0.12806 0.41762 0.71024 0.0
H839 H 0.23918 0.47048 0.64612 0.0
H840 H 0.27173 0.53791 0.71934 0.0
H841 H 0.18667 0.46397 0.71724 0.0
H842 H 0.23397 0.44298 0.68459 0.0
O843 O 0.22237 0.43007 0.81052 0.0
H844 H 0.28395 0.54111 0.80989 0.0
H845 H 0.26363 0.44991 0.84443 0.0
H846 H 0.27687 0.56631 0.68128 0.0
H847 H 0.15784 0.34536 0.73087 0.0
H848 H 0.26074 0.53259 0.64431 0.0
H849 H 0.11334 0.35778 0.71705 0.0
O850 O 0.29755 0.50534 0.74082 0.0
H851 H 0.28894 0.37652 0.79822 0.0
H852 H 0.33231 0.4986 0.81159 0.0
H853 H 0.36987 0.47492 0.81866 0.0
H854 H 0.3482 0.41343 0.81204 0.0
H855 H 0.25234 0.40133 0.79112 0.0
H856 H 0.27835 0.4794 0.88277 0.0
H857 H 0.29636 0.54074 0.88462 0.0
O858 O 0.30024 0.51074 0.7802 0.0
C859 C 0.22467 0.5009 0.76927 0.0
C860 C 0.29132 0.54491 0.84725 0.0
C861 C 0.2796 0.49313 0.86686 0.0
N862 N 0.27284 0.49374 0.82493 0.0
C863 C 0.2827 0.52748 0.82581 0.0
C864 C 0.27115 0.47653 0.84511 0.0
C865 C 0.28974 0.52755 0.86789 0.0
C866 C 0.19688 0.39814 0.73166 0.0
N867 N 0.2047 0.43099 0.72801 0.0
C868 C 0.16394 0.37132 0.72781 0.0
C869 C 0.13898 0.37831 0.7201 0.0
C870 C 0.1472 0.41188 0.7163 0.0
C871 C 0.18039 0.43804 0.72039 0.0
C872 C 0.24622 0.48544 0.66212 0.0
C873 C 0.26423 0.52294 0.70337 0.0
C874 C 0.24339 0.47001 0.68396 0.0
N875 N 0.25234 0.48876 0.70424 0.0
C876 C 0.26734 0.53921 0.68185 0.0
C877 C 0.25831 0.52028 0.66111 0.0
C878 C 0.31274 0.52069 0.75971 0.0
C879 C 0.29865 0.40334 0.80123 0.0
C880 C 0.32272 0.47186 0.80856 0.0
C881 C 0.34409 0.45857 0.81266 0.0
C882 C 0.33191 0.42406 0.80896 0.0
N883 N 0.29009 0.45136 0.80105 0.0
C884 C 0.278 0.41752 0.79732 0.0
Co885 Co 0.43706 0.85782 0.60268 0.0
Co886 Co 0.44291 0.87303 0.54289 0.0
O887 O 0.45482 0.88839 0.57562 0.0
C888 C 0.5107 0.88871 0.61283 0.0
O889 O 0.51529 0.88078 0.59141 0.0
C890 C 0.43306 0.93273 0.54773 0.0
O891 O 0.4203 0.92189 0.56877 0.0
O892 O 0.39336 0.84907 0.5504 0.0
O893 O 0.39187 0.83073 0.58733 0.0
H894 H 0.38087 0.78789 0.47878 0.0
H895 H 0.47047 0.93199 0.61116 0.0
O896 O 0.48171 0.88378 0.61906 0.0
H897 H 0.35377 0.88493 0.64137 0.0
H898 H 0.42505 0.82896 0.68922 0.0
H899 H 0.39476 0.78309 0.60856 0.0
H900 H 0.37252 0.8473 0.624 0.0
H901 H 0.44381 0.86747 0.65492 0.0
O902 O 0.44208 0.91562 0.53493 0.0
H903 H 0.39636 0.80726 0.51984 0.0
H904 H 0.46433 0.90758 0.49618 0.0
H905 H 0.37526 0.74373 0.64238 0.0
H906 H 0.45292 0.97052 0.62865 0.0
H907 H 0.39058 0.76659 0.68304 0.0
H908 H 0.39414 0.94702 0.64383 0.0
O909 O 0.45153 0.8271 0.58848 0.0
H910 H 0.56288 0.97076 0.54475 0.0
H911 H 0.48783 0.85351 0.51713 0.0
H912 H 0.54912 0.88189 0.50844 0.0
H913 H 0.58708 0.94099 0.52221 0.0
H914 H 0.5015 0.94132 0.55327 0.0
H915 H 0.44938 0.88934 0.45486 0.0
H916 H 0.40746 0.82907 0.44594 0.0
O917 O 0.44401 0.83039 0.54968 0.0
C918 C 0.37737 0.83043 0.56805 0.0
C919 C 0.39923 0.8142 0.48243 0.0
C920 C 0.43764 0.87115 0.46901 0.0
N921 N 0.43135 0.85847 0.51041 0.0
C922 C 0.40816 0.82531 0.50565 0.0
C923 C 0.44594 0.88135 0.49245 0.0
C924 C 0.41413 0.83733 0.46402 0.0
C925 C 0.44496 0.92156 0.61794 0.0
N926 N 0.42255 0.88746 0.61656 0.0
C927 C 0.43512 0.94351 0.62773 0.0
C928 C 0.40212 0.93031 0.6362 0.0
C929 C 0.37944 0.89548 0.63479 0.0
C930 C 0.39015 0.87432 0.62484 0.0
C931 C 0.41814 0.8187 0.67158 0.0
C932 C 0.40117 0.7933 0.62621 0.0
C933 C 0.42869 0.84038 0.65207 0.0
N934 N 0.42017 0.82759 0.62973 0.0
C935 C 0.39016 0.77086 0.6453 0.0
C936 C 0.39879 0.78371 0.66811 0.0
C937 C 0.44988 0.81676 0.56736 0.0
C938 C 0.54658 0.94505 0.53859 0.0
C939 C 0.50419 0.87918 0.52327 0.0
C940 C 0.53887 0.89515 0.51824 0.0
C941 C 0.56015 0.92831 0.52597 0.0
N942 N 0.49103 0.89581 0.53557 0.0
C943 C 0.51177 0.92828 0.54329 0.0
Co944 Co 0.14965 0.58989 0.59015 0.0
Co945 Co 0.15119 0.6122 0.53181 0.0
O946 O 0.12735 0.59268 0.56153 0.0
C947 C 0.11611 0.62692 0.60811 0.0
O948 O 0.12808 0.64723 0.5898 0.0
C949 C 0.09368 0.54395 0.51914 0.0
O950 O 0.10102 0.53139 0.53759 0.0
O951 O 0.17446 0.58468 0.53283 0.0
O952 O 0.17939 0.57825 0.57158 0.0
H953 H 0.25243 0.66719 0.478 0.0
H954 H 0.07462 0.55101 0.58699 0.0
O955 O 0.12058 0.60154 0.60983 0.0
H956 H 0.10909 0.4652 0.59988 0.0
H957 H 0.15375 0.56003 0.6752 0.0
H958 H 0.22105 0.61306 0.60356 0.0
H959 H 0.15198 0.52613 0.59805 0.0
H960 H 0.12568 0.56179 0.63845 0.0
O961 O 0.11211 0.57528 0.51393 0.0
H962 H 0.22244 0.64258 0.51536 0.0
H963 H 0.12916 0.62286 0.48458 0.0
H964 H 0.25004 0.61129 0.63983 0.0
H965 H 0.03081 0.49035 0.58889 0.0
H966 H 0.21636 0.58477 0.67601 0.0
H967 H 0.04799 0.44697 0.59529 0.0
O968 O 0.18466 0.63903 0.58783 0.0
H969 H 0.05198 0.63175 0.53803 0.0
H970 H 0.17499 0.68549 0.52309 0.0
H971 H 0.14767 0.72061 0.52262 0.0
H972 H 0.08569 0.69372 0.53006 0.0
H973 H 0.0804 0.59763 0.53859 0.0
H974 H 0.15809 0.64698 0.44681 0.0
H975 H 0.2202 0.6695 0.44337 0.0
O976 O 0.19031 0.64981 0.54895 0.0
C977 C 0.18629 0.57587 0.55017 0.0
C978 C 0.22537 0.65751 0.47928 0.0
C979 C 0.17241 0.64612 0.46176 0.0
N980 N 0.17411 0.63138 0.50218 0.0
C981 C 0.20826 0.6436 0.50041 0.0
C982 C 0.15615 0.63237 0.48318 0.0
C983 C 0.20726 0.65877 0.45985 0.0
C984 C 0.08224 0.53229 0.59 0.0
N985 N 0.11581 0.54208 0.59241 0.0
C986 C 0.05734 0.49798 0.59097 0.0
C987 C 0.067 0.47365 0.59452 0.0
C988 C 0.10129 0.48385 0.59706 0.0
C989 C 0.12548 0.51839 0.59592 0.0
C990 C 0.16869 0.57159 0.65952 0.0
C991 C 0.20614 0.60111 0.61915 0.0
C992 C 0.15295 0.57273 0.63867 0.0
N993 N 0.17166 0.58729 0.6188 0.0
C994 C 0.22273 0.60031 0.63966 0.0
C995 C 0.20382 0.58546 0.65997 0.0
C996 C 0.19956 0.65841 0.57026 0.0
C997 C 0.07899 0.64374 0.5347 0.0
C998 C 0.14805 0.67361 0.52645 0.0
C999 C 0.1327 0.69362 0.52609 0.0
C1000 C 0.09792 0.67852 0.53026 0.0
N1001 N 0.1293 0.6395 0.53076 0.0
C1002 C 0.0952 0.62453 0.5349 0.0
Co1003 Co 0.40731 0.56883 0.59644 0.0
Co1004 Co 0.41489 0.57663 0.53599 0.0
O1005 O 0.42033 0.55863 0.56615 0.0
C1006 C 0.36672 0.49329 0.60026 0.0
O1007 O 0.35121 0.49176 0.58038 0.0
C1008 C 0.48666 0.59414 0.53807 0.0
O1009 O 0.48756 0.60614 0.55926 0.0
O1010 O 0.43757 0.6241 0.54848 0.0
O1011 O 0.42361 0.61659 0.58681 0.0
H1012 H 0.38439 0.64623 0.4833 0.0
H1013 H 0.45155 0.53834 0.59502 0.0
O1014 O 0.39109 0.52149 0.60746 0.0
H1015 H 0.51626 0.64511 0.63957 0.0
H1016 H 0.38879 0.55901 0.68439 0.0
H1017 H 0.3726 0.60636 0.61056 0.0
H1018 H 0.45911 0.6278 0.62428 0.0
H1019 H 0.41099 0.5508 0.64678 0.0
O1020 O 0.45987 0.58289 0.52561 0.0
H1021 H 0.3903 0.62322 0.52124 0.0
H1022 H 0.42993 0.56799 0.48616 0.0
H1023 H 0.35044 0.61551 0.64776 0.0
H1024 H 0.50841 0.55433 0.61033 0.0
H1025 H 0.35793 0.59139 0.68488 0.0
H1026 H 0.54124 0.60815 0.63268 0.0
O1027 O 0.36148 0.55532 0.58399 0.0
H1028 H 0.40173 0.46145 0.52187 0.0
H1029 H 0.35102 0.534 0.50907 0.0
H1030 H 0.32167 0.47525 0.49398 0.0
H1031 H 0.34709 0.43858 0.50029 0.0
H1032 H 0.43007 0.52023 0.53686 0.0
H1033 H 0.42467 0.5906 0.44783 0.0
H1034 H 0.40164 0.62992 0.44623 0.0
O1035 O 0.36957 0.57017 0.54577 0.0
C1036 C 0.43604 0.63546 0.56875 0.0
C1037 C 0.39437 0.62904 0.48375 0.0
C1038 C 0.41703 0.59786 0.46385 0.0
N1039 N 0.41027 0.59415 0.5059 0.0
C1040 C 0.3977 0.61587 0.50518 0.0
C1041 C 0.42003 0.58521 0.48561 0.0
C1042 C 0.40409 0.61991 0.46297 0.0
C1043 C 0.4656 0.56168 0.60487 0.0
N1044 N 0.45209 0.58219 0.60868 0.0
C1045 C 0.49781 0.57064 0.61345 0.0
C1046 C 0.51623 0.60087 0.62596 0.0
C1047 C 0.50226 0.62164 0.62979 0.0
C1048 C 0.46997 0.61183 0.62098 0.0
C1049 C 0.38535 0.56969 0.66828 0.0
C1050 C 0.37665 0.59633 0.62674 0.0
C1051 C 0.39786 0.56511 0.64693 0.0
N1052 N 0.3933 0.57827 0.62649 0.0
C1053 C 0.36386 0.60144 0.64773 0.0
C1054 C 0.36811 0.58787 0.66859 0.0
C1055 C 0.351 0.55982 0.56421 0.0
C1056 C 0.39044 0.47721 0.51896 0.0
C1057 C 0.36219 0.51817 0.51197 0.0
C1058 C 0.34549 0.48494 0.50334 0.0
C1059 C 0.35977 0.46438 0.50687 0.0
N1060 N 0.39235 0.53062 0.52372 0.0
C1061 C 0.40643 0.51056 0.52734 0.0
H1062 H 0.39526 0.14708 0.17592 0.0
H1063 H 0.36236 0.17986 0.23685 0.0
H1064 H 0.30388 0.1487 0.22306 0.0
H1065 H 0.26311 0.11761 0.19181 0.0
H1066 H 0.29515 0.08541 0.13022 0.0
H1067 H 0.35265 0.11036 0.1463 0.0
C1068 C 0.37518 0.14678 0.18641 0.0
C1069 C 0.3833 0.16611 0.20727 0.0
C1070 C 0.34143 0.12916 0.17816 0.0
C1071 C 0.35694 0.16552 0.22061 0.0
C1072 C 0.32343 0.14774 0.21273 0.0
C1073 C 0.28253 0.11561 0.18201 0.0
C1074 C 0.27489 0.09996 0.15974 0.0
C1075 C 0.31555 0.13037 0.1912 0.0
C1076 C 0.3003 0.09731 0.14741 0.0
C1077 C 0.33327 0.11176 0.15655 0.0
H1078 H 0.8331 0.11186 0.14658 0.0
H1079 H 0.93003 0.20404 0.14156 0.0
H1080 H 0.90495 0.23641 0.15833 0.0
H1081 H 0.85446 0.23805 0.17409 0.0
H1082 H 0.75747 0.1451 0.17487 0.0
H1083 H 0.78364 0.11363 0.16013 0.0
C1084 C 0.84894 0.13904 0.1492 0.0
C1085 C 0.88347 0.15545 0.14304 0.0
C1086 C 0.83422 0.15739 0.15809 0.0
C1087 C 0.90337 0.19078 0.14624 0.0
C1088 C 0.88902 0.20925 0.15582 0.0
C1089 C 0.8392 0.21092 0.17105 0.0
C1090 C 0.80405 0.194 0.17576 0.0
C1091 C 0.85434 0.1928 0.16178 0.0
C1092 C 0.78451 0.15888 0.17146 0.0
C1093 C 0.79945 0.14073 0.16302 0.0
H1094 H 0.75312 0.59592 0.14269 0.0
H1095 H 0.77871 0.62765 0.21501 0.0
H1096 H 0.8101 0.68707 0.20262 0.0
H1097 H 0.83556 0.72944 0.17076 0.0
H1098 H 0.80742 0.69806 0.09863 0.0
H1099 H 0.77147 0.63921 0.11138 0.0
C1100 C 0.76501 0.61593 0.15575 0.0
C1101 C 0.76388 0.6074 0.1797 0.0
C1102 C 0.7828 0.65008 0.14851 0.0
C1103 C 0.77913 0.63353 0.19648 0.0
C1104 C 0.79732 0.66753 0.18939 0.0
C1105 C 0.82105 0.70976 0.15791 0.0
C1106 C 0.82437 0.71797 0.13378 0.0
C1107 C 0.80012 0.67602 0.16539 0.0
C1108 C 0.80522 0.69237 0.1173 0.0
C1109 C 0.78482 0.65867 0.12457 0.0
H1110 H 0.13516 0.35135 0.78871 0.0
H1111 H 0.20394 0.39524 0.84754 0.0
H1112 H 0.17606 0.34092 0.86788 0.0
H1113 H 0.13602 0.27996 0.86761 0.0
H1114 H 0.06699 0.23476 0.80921 0.0
H1115 H 0.09067 0.29054 0.79034 0.0
C1116 C 0.14364 0.34916 0.80615 0.0
C1117 C 0.17192 0.37737 0.8164 0.0
C1118 C 0.12759 0.31751 0.81783 0.0
C1119 C 0.18252 0.37398 0.83904 0.0
C1120 C 0.1666 0.34286 0.85075 0.0
C1121 C 0.12583 0.28232 0.85087 0.0
C1122 C 0.10002 0.25317 0.83974 0.0
C1123 C 0.13973 0.31429 0.84007 0.0
C1124 C 0.08685 0.25678 0.81819 0.0
C1125 C 0.10053 0.28867 0.80732 0.0
H1126 H 0.73376 0.82245 0.81125 0.0
H1127 H 0.70212 0.8004 0.88383 0.0
H1128 H 0.64278 0.7671 0.87149 0.0
H1129 H 0.59977 0.75106 0.84026 0.0
H1130 H 0.63135 0.77059 0.76758 0.0
H1131 H 0.69091 0.79757 0.77965 0.0
C1132 C 0.71386 0.80967 0.82429 0.0
C1133 C 0.72211 0.81411 0.84839 0.0
C1134 C 0.67987 0.79035 0.81704 0.0
C1135 C 0.69631 0.79726 0.86518 0.0
C1136 C 0.66238 0.77843 0.85814 0.0
C1137 C 0.61974 0.76048 0.82709 0.0
C1138 C 0.61139 0.75918 0.80313 0.0
C1139 C 0.65383 0.77577 0.83417 0.0
C1140 C 0.63727 0.7712 0.78613 0.0
C1141 C 0.6713 0.78689 0.79304 0.0
H1142 H 0.20503 0.81838 0.7983 0.0
H1143 H 0.2714 0.84653 0.85857 0.0
H1144 H 0.24624 0.87906 0.8746 0.0
H1145 H 0.19994 0.89284 0.87376 0.0
H1146 H 0.13365 0.8633 0.81315 0.0
H1147 H 0.1644 0.83829 0.79495 0.0
C1148 C 0.21442 0.83217 0.81475 0.0
C1149 C 0.23971 0.82981 0.82737 0.0
C1150 C 0.19957 0.85029 0.82393 0.0
C1151 C 0.25197 0.84806 0.8485 0.0
C1152 C 0.23738 0.86641 0.85775 0.0
C1153 C 0.19272 0.88159 0.85636 0.0
C1154 C 0.16416 0.8795 0.84504 0.0
C1155 C 0.21037 0.86677 0.84598 0.0
C1156 C 0.1552 0.86486 0.82245 0.0
C1157 C 0.17275 0.85049 0.81199 0.0
H1158 H 0.96206 0.48694 0.45697 0.0
H1159 H 0.92095 0.41424 0.51379 0.0
H1160 H 0.97754 0.43856 0.53134 0.0
H1161 H 0.03774 0.48431 0.53256 0.0
H1162 H 0.07729 0.55787 0.47613 0.0
H1163 H 0.02235 0.52928 0.45647 0.0
C1164 C 0.96542 0.47607 0.47306 0.0
C1165 C 0.93713 0.44896 0.48413 0.0
C1166 C 0.99783 0.49055 0.48327 0.0
C1167 C 0.9422 0.43511 0.50487 0.0
C1168 C 0.97457 0.44914 0.515 0.0
C1169 C 0.03448 0.49369 0.51575 0.0
C1170 C 0.06161 0.52335 0.50593 0.0
C1171 C 0.00245 0.47741 0.50465 0.0
C1172 C 0.05685 0.53527 0.4842 0.0
C1173 C 0.02538 0.51895 0.47292 0.0
H1174 H 0.50429 0.58851 0.49322 0.0
H1175 H 0.52909 0.58333 0.56591 0.0
H1176 H 0.56555 0.56079 0.55393 0.0
H1177 H 0.58458 0.53593 0.52308 0.0
H1178 H 0.56222 0.5437 0.45025 0.0
H1179 H 0.53117 0.57238 0.4619 0.0
C1180 C 0.51823 0.58306 0.50638 0.0
C1181 C 0.51364 0.58712 0.53043 0.0
C1182 C 0.53945 0.57041 0.49933 0.0
C1183 C 0.53212 0.58036 0.5473 0.0
C1184 C 0.55285 0.56729 0.54046 0.0
C1185 C 0.57356 0.54464 0.50975 0.0
C1186 C 0.5754 0.53746 0.48587 0.0
C1187 C 0.55587 0.56124 0.51658 0.0
C1188 C 0.56126 0.54904 0.46874 0.0
C1189 C 0.54324 0.56519 0.47541 0.0
H1190 H 0.50995 0.08932 0.52699 0.0
H1191 H 0.46857 0.05294 0.45779 0.0
H1192 H 0.43712 0.99475 0.47263 0.0
H1193 H 0.42646 0.95359 0.50444 0.0
H1194 H 0.46397 0.98995 0.57436 0.0
H1195 H 0.4915 0.04878 0.56029 0.0
C1196 C 0.49348 0.06867 0.51533 0.0
C1197 C 0.49178 0.07529 0.4913 0.0
C1198 C 0.47497 0.0353 0.5241 0.0
C1199 C 0.4702 0.04846 0.47635 0.0
C1200 C 0.45238 0.01515 0.4848 0.0
C1201 C 0.44003 0.97451 0.51664 0.0
C1202 C 0.44339 0.96766 0.54031 0.0
C1203 C 0.45528 0.00818 0.5085 0.0
C1204 C 0.46089 0.99476 0.55607 0.0
C1205 C 0.47684 0.02834 0.548 0.0
H1206 H 0.09063 0.101 0.13915 0.0
H1207 H 0.1143 0.12251 0.06512 0.0
H1208 H 0.06367 0.1272 0.05975 0.0
H1209 H 0.01065 0.11993 0.07463 0.0
H1210 H 0.9843 0.09589 0.14798 0.0
H1211 H 0.03855 0.09811 0.15499 0.0
C1212 C 0.08487 0.10691 0.12184 0.0
C1213 C 0.10613 0.1109 0.10251 0.0
C1214 C 0.0553 0.10906 0.11866 0.0
C1215 C 0.09828 0.11879 0.08026 0.0
C1216 C 0.06935 0.12154 0.07712 0.0
C1217 C 0.01678 0.11562 0.0923 0.0
C1218 C 0.9931 0.10735 0.11068 0.0
C1219 C 0.04737 0.11597 0.09602 0.0
C1220 C 0.00192 0.10226 0.13346 0.0
C1221 C 0.03285 0.10324 0.13743 0.0
H1222 H 0.87795 0.97218 0.11994 0.0
H1223 H 0.89418 0.98612 0.04474 0.0
H1224 H 0.89485 0.93275 0.04218 0.0
H1225 H 0.89562 0.88507 0.06158 0.0
H1226 H 0.88113 0.87223 0.13696 0.0
H1227 H 0.87446 0.92224 0.13893 0.0
C1228 C 0.88133 0.96355 0.10288 0.0
C1229 C 0.88634 0.9835 0.08259 0.0
C1230 C 0.88206 0.93309 0.10153 0.0
C1231 C 0.89041 0.97151 0.06068 0.0
C1232 C 0.89086 0.94101 0.05918 0.0
C1233 C 0.89059 0.89284 0.07847 0.0
C1234 C 0.8892 0.87491 0.09914 0.0
C1235 C 0.88741 0.92199 0.07956 0.0
C1236 C 0.8824 0.88543 0.12076 0.0
C1237 C 0.87876 0.91418 0.12192 0.0
H1238 H 0.1259 0.98856 0.08179 0.0
H1239 H 0.11481 -0.00063 0.15638 0.0
H1240 H 0.06322 0.9436 0.15695 0.0
H1241 H 0.0178 0.89517 0.13528 0.0
H1242 H 0.02854 0.8866 0.06026 0.0
H1243 H 0.08367 0.93829 0.06097 0.0
C1244 C 0.11261 0.97863 0.09833 0.0
C1245 C 0.12411 0.99849 0.11896 0.0
C1246 C 0.08251 0.94713 0.09839 0.0
C1247 C 0.10661 0.9848 0.1402 0.0
C1248 C 0.0769 0.95299 0.1405 0.0
C1249 C 0.03231 0.90435 0.11911 0.0
C1250 C 0.01864 0.88709 0.09769 0.0
C1251 C 0.06401 0.93447 0.11953 0.0
C1252 C 0.03809 0.89937 0.07698 0.0
C1253 C 0.06972 0.92899 0.07734 0.0
H1254 H 0.1181 0.98741 0.92522 0.0
H1255 H 0.10662 0.97913 0.84954 0.0
H1256 H 0.11159 0.03521 0.84796 0.0
H1257 H 0.11341 0.08381 0.8685 0.0
H1258 H 0.12279 0.09028 0.94441 0.0
H1259 H 0.1242 0.03747 0.94533 0.0
C1260 C 0.11713 0.99792 0.90827 0.0
C1261 C 0.11162 0.97875 0.88754 0.0
C1262 C 0.11913 0.02969 0.90755 0.0
C1263 C 0.1108 0.99317 0.86579 0.0
C1264 C 0.11338 0.02517 0.86489 0.0
C1265 C 0.11604 0.07388 0.88526 0.0
C1266 C 0.1176 0.09098 0.90637 0.0
C1267 C 0.11657 0.04321 0.88573 0.0
C1268 C 0.12125 0.07769 0.92787 0.0
C1269 C 0.1221 0.04743 0.92844 0.0
H1270 H 0.00561 0.1034 0.86232 0.0
H1271 H 0.99814 0.11777 0.93686 0.0
H1272 H 0.94096 0.06921 0.93763 0.0
H1273 H 0.89568 0.01874 0.91841 0.0
H1274 H 0.90331 0.00265 0.84416 0.0
H1275 H 0.95748 0.0556 0.84213 0.0
C1276 C 0.99124 0.09637 0.87862 0.0
C1277 C 0.0065 0.11415 0.89952 0.0
C1278 C 0.95843 0.06764 0.87914 0.0
C1279 C 0.98732 0.10455 0.92049 0.0
C1280 C 0.95455 0.07657 0.92102 0.0
C1281 C 0.90893 0.02692 0.90169 0.0
C1282 C 0.8955 0.00633 0.88158 0.0
C1283 C 0.94029 0.05726 0.90064 0.0
C1284 C 0.91304 0.01771 0.86003 0.0
C1285 C 0.94412 0.04806 0.85882 0.0
H1286 H 0.97484 0.86292 0.86255 0.0
H1287 H 0.9818 0.87056 0.93851 0.0
H1288 H 0.92892 0.87211 0.9399 0.0
H1289 H 0.88441 0.87716 0.91946 0.0
H1290 H 0.87801 0.87077 0.84347 0.0
H1291 H 0.92701 0.86236 0.84233 0.0
C1292 C 0.96472 0.86456 0.87949 0.0
C1293 C 0.98265 0.86709 0.90038 0.0
C1294 C 0.93454 0.8658 0.88017 0.0
C1295 C 0.96878 0.86883 0.92213 0.0
C1296 C 0.93857 0.8698 0.92295 0.0
C1297 C 0.89331 0.87344 0.9026 0.0
C1298 C 0.87769 0.87502 0.88154 0.0
C1299 C 0.92176 0.86917 0.90205 0.0
C1300 C 0.88953 0.8698 0.85995 0.0
C1301 C 0.91769 0.86517 0.85928 0.0
H1302 H 0.77792 0.47692 0.45814 0.0
H1303 H 0.75884 0.45333 0.38398 0.0
H1304 H 0.70691 0.45641 0.38679 0.0
H1305 H 0.66455 0.46046 0.41089 0.0
H1306 H 0.68301 0.48342 0.48513 0.0
H1307 H 0.73812 0.48668 0.48146 0.0
C1308 C 0.76271 0.47284 0.44248 0.0
C1309 C 0.77225 0.46453 0.42092 0.0
C1310 C 0.73278 0.47454 0.44421 0.0
C1311 C 0.75218 0.45961 0.40083 0.0
C1312 C 0.7224 0.46132 0.40242 0.0
C1313 C 0.68075 0.46672 0.42627 0.0
C1314 C 0.66929 0.47124 0.44836 0.0
C1315 C 0.71211 0.46802 0.42412 0.0
C1316 C 0.69098 0.47969 0.46794 0.0
C1317 C 0.72245 0.48134 0.46588 0.0
H1318 H 0.52545 0.32035 0.43506 0.0
H1319 H 0.58845 0.35865 0.49711 0.0
H1320 H 0.58751 0.30481 0.50166 0.0
H1321 H 0.57392 0.24904 0.48545 0.0
H1322 H 0.512 0.21197 0.42295 0.0
H1323 H 0.50644 0.26243 0.42174 0.0
C1324 C 0.53877 0.31689 0.44971 0.0
C1325 C 0.55745 0.34378 0.46545 0.0
C1326 C 0.53824 0.2859 0.45223 0.0
C1327 C 0.57407 0.33853 0.48456 0.0
C1328 C 0.57358 0.3077 0.4872 0.0
C1329 C 0.55861 0.25167 0.47189 0.0
C1330 C 0.54378 0.2269 0.45415 0.0
C1331 C 0.55642 0.28147 0.47081 0.0
C1332 C 0.52405 0.23078 0.43666 0.0
C1333 C 0.52104 0.2598 0.43583 0.0
H1334 H 0.774 0.33547 0.4013 0.0
H1335 H 0.78624 0.3565 0.47597 0.0
H1336 H 0.73405 0.30255 0.4836 0.0
H1337 H 0.6821 0.25237 0.46855 0.0
H1338 H 0.66998 0.2341 0.39344 0.0
H1339 H 0.72507 0.28432 0.3866 0.0
C1340 C 0.7657 0.32826 0.41935 0.0
C1341 C 0.78403 0.35037 0.43802 0.0
C1342 C 0.73536 0.29786 0.4235 0.0
C1343 C 0.77276 0.34012 0.46124 0.0
C1344 C 0.74273 0.30936 0.46558 0.0
C1345 C 0.6916 0.25916 0.45068 0.0
C1346 C 0.67154 0.23949 0.43153 0.0
C1347 C 0.72333 0.28849 0.44678 0.0
C1348 C 0.68451 0.24876 0.40853 0.0
C1349 C 0.71612 0.27751 0.40457 0.0
H1350 H 0.74151 0.30909 0.17897 0.0
H1351 H 0.80953 0.33183 0.23771 0.0
H1352 H 0.81936 0.38961 0.23934 0.0
H1353 H 0.80227 0.43088 0.22776 0.0
H1354 H 0.73335 0.40807 0.16932 0.0
H1355 H 0.73013 0.3533 0.16397 0.0
C1356 C 0.75923 0.32696 0.19163 0.0
C1357 C 0.77431 0.31595 0.20845 0.0
C1358 C 0.76395 0.35999 0.19292 0.0
C1359 C 0.79724 0.33952 0.22479 0.0
C1360 C 0.80271 0.37255 0.22583 0.0
C1361 C 0.78675 0.41408 0.21373 0.0
C1362 C 0.76762 0.42342 0.19929 0.0
C1363 C 0.78501 0.38257 0.21067 0.0
C1364 C 0.74813 0.4015 0.1809 0.0
C1365 C 0.74628 0.37011 0.17776 0.0
H1366 H 0.67048 0.45028 0.25893 0.0
H1367 H 0.64827 0.44668 0.18465 0.0
H1368 H 0.59105 0.39903 0.19162 0.0
H1369 H 0.54983 0.3548 0.21816 0.0
H1370 H 0.57225 0.35935 0.29252 0.0
H1371 H 0.62699 0.41049 0.28606 0.0
C1372 C 0.65303 0.43957 0.24425 0.0
C1373 C 0.66397 0.45189 0.22122 0.0
C1374 C 0.62032 0.4121 0.24836 0.0
C1375 C 0.64072 0.43773 0.20253 0.0
C1376 C 0.60802 0.41031 0.20649 0.0
C1377 C 0.56643 0.36716 0.23305 0.0
C1378 C 0.55696 0.35284 0.25578 0.0
C1379 C 0.59793 0.39668 0.22923 0.0
C1380 C 0.57881 0.36955 0.27483 0.0
C1381 C 0.61021 0.39882 0.27115 0.0
H1382 H 0.54015 0.22744 0.21709 0.0
H1383 H 0.53556 0.21029 0.29212 0.0
H1384 H 0.58472 0.20258 0.28989 0.0
H1385 H 0.6325 0.20636 0.2675 0.0
H1386 H 0.63776 0.22423 0.19245 0.0
H1387 H 0.58532 0.22624 0.19398 0.0
C1388 C 0.54949 0.2214 0.23288 0.0
C1389 C 0.53436 0.21996 0.25478 0.0
C1390 C 0.57843 0.21777 0.23161 0.0
C1391 C 0.54686 0.21197 0.27505 0.0
C1392 C 0.57514 0.2077 0.27385 0.0
C1393 C 0.62214 0.21056 0.25145 0.0
C1394 C 0.63948 0.21562 0.23 0.0
C1395 C 0.59179 0.21163 0.25237 0.0
C1396 C 0.62527 0.22053 0.20932 0.0
C1397 C 0.59514 0.22164 0.21013 0.0
H1398 H 0.33181 0.77062 0.8054 0.0
H1399 H 0.3223 0.77355 0.72985 0.0
H1400 H 0.3796 0.78364 0.72473 0.0
H1401 H 0.42938 0.78403 0.74113 0.0
H1402 H 0.43811 0.77768 0.81655 0.0
H1403 H 0.38442 0.77653 0.82215 0.0
C1404 C 0.34249 0.7741 0.78786 0.0
C1405 C 0.32248 0.77091 0.76807 0.0
C1406 C 0.37525 0.77871 0.78491 0.0
C1407 C 0.33689 0.7756 0.74544 0.0
C1408 C 0.3697 0.78121 0.74243 0.0
C1409 C 0.41987 0.78287 0.75884 0.0
C1410 C 0.43766 0.78046 0.77831 0.0
C1411 C 0.38863 0.78156 0.76198 0.0
C1412 C 0.42488 0.77921 0.80114 0.0
C1413 C 0.39409 0.77853 0.80441 0.0
H1414 H 0.23031 0.54354 0.80519 0.0
H1415 H 0.19161 0.51411 0.73448 0.0
H1416 H 0.18314 0.56269 0.73142 0.0
H1417 H 0.19298 0.61715 0.74688 0.0
H1418 H 0.2334 0.64794 0.81714 0.0
H1419 H 0.23494 0.5955 0.82217 0.0
C1420 C 0.21928 0.54728 0.78934 0.0
C1421 C 0.21198 0.52527 0.77004 0.0
C1422 C 0.21536 0.57601 0.78738 0.0
C1423 C 0.19771 0.53066 0.7496 0.0
C1424 C 0.19303 0.55864 0.74774 0.0
C1425 C 0.20185 0.61233 0.76339 0.0
C1426 C 0.21349 0.63683 0.78142 0.0
C1427 C 0.20289 0.58214 0.76619 0.0
C1428 C 0.22453 0.62979 0.8028 0.0
C1429 C 0.22541 0.59971 0.80575 0.0
H1430 H 0.44493 0.65965 0.73693 0.0
H1431 H 0.45298 0.66225 0.81286 0.0
H1432 H 0.40317 0.60545 0.81511 0.0
H1433 H 0.35461 0.55759 0.79581 0.0
H1434 H 0.34661 0.55497 0.7199 0.0
H1435 H 0.39956 0.60951 0.71751 0.0
C1436 C 0.43618 0.64771 0.75401 0.0
C1437 C 0.45261 0.66551 0.77471 0.0
C1438 C 0.40732 0.61522 0.75521 0.0
C1439 C 0.44092 0.64932 0.79662 0.0
C1440 C 0.41227 0.61687 0.79794 0.0
C1441 C 0.36444 0.56868 0.77866 0.0
C1442 C 0.34626 0.5523 0.75804 0.0
C1443 C 0.39479 0.59999 0.77738 0.0
C1444 C 0.3598 0.5671 0.73605 0.0
C1445 C 0.39004 0.59827 0.73465 0.0
H1446 H 0.4573 0.77724 0.60016 0.0
H1447 H 0.44895 0.78707 0.52508 0.0
H1448 H 0.44798 0.73356 0.51855 0.0
H1449 H 0.44424 0.68133 0.53444 0.0
H1450 H 0.44987 0.67113 0.60975 0.0
H1451 H 0.45758 0.7274 0.61568 0.0
C1452 C 0.45566 0.76797 0.58232 0.0
C1453 C 0.45289 0.78614 0.56321 0.0
C1454 C 0.45456 0.73692 0.57865 0.0
C1455 C 0.45089 0.77361 0.54021 0.0
C1456 C 0.45031 0.74293 0.53641 0.0
C1457 C 0.44781 0.69167 0.55211 0.0
C1458 C 0.44633 0.67179 0.57158 0.0
C1459 C 0.4514 0.72398 0.55555 0.0
C1460 C 0.45082 0.68565 0.59438 0.0
C1461 C 0.45513 0.7179 0.59786 0.0
H1462 H 0.23535 0.70833 0.53804 0.0
H1463 H 0.23265 0.68471 0.61207 0.0
H1464 H 0.2856 0.738 0.61827 0.0
H1465 H 0.33482 0.78863 0.60214 0.0
H1466 H 0.33825 0.8117 0.52796 0.0
H1467 H 0.28233 0.76149 0.52255 0.0
C1468 C 0.24607 0.71487 0.55562 0.0
C1469 C 0.23004 0.69219 0.57451 0.0
C1470 C 0.27665 0.74549 0.55905 0.0
C1471 C 0.24438 0.70145 0.59715 0.0
C1472 C 0.27473 0.73196 0.60072 0.0
C1473 C 0.32326 0.78307 0.5848 0.0
C1474 C 0.34108 0.8039 0.56543 0.0
C1475 C 0.2914 0.75381 0.58171 0.0
C1476 C 0.32532 0.79624 0.54319 0.0
C1477 C 0.29338 0.76735 0.54005 0.0
H1478 H 0.32012 0.57284 0.52732 0.0
H1479 H 0.30287 0.53472 0.5988 0.0
H1480 H 0.24805 0.53179 0.59916 0.0
H1481 H 0.20804 0.54557 0.58114 0.0
H1482 H 0.22492 0.58568 0.51038 0.0
H1483 H 0.27644 0.58145 0.50766 0.0
C1484 C 0.30422 0.5635 0.54289 0.0
C1485 C 0.31603 0.5545 0.56312 0.0
C1486 C 0.27263 0.56222 0.54315 0.0
C1487 C 0.29482 0.54222 0.58305 0.0
C1488 C 0.26335 0.54049 0.5833 0.0
C1489 C 0.22255 0.55289 0.56491 0.0
C1490 C 0.21273 0.56635 0.54611 0.0
C1491 C 0.25245 0.55124 0.56371 0.0
C1492 C 0.23182 0.57529 0.52516 0.0
C1493 C 0.26147 0.57315 0.52368 0.0
H1494 H 0.24452 0.16587 0.02619 0.0
H1495 H 0.19908 0.21389 0.06594 0.0
H1496 H 0.18951 0.23661 0.02964 0.0
H1497 H 0.18206 0.23127 0.98676 0.0
H1498 H 0.22381 0.17974 0.94704 0.0
H1499 H 0.24757 0.17076 0.98308 0.0
C1500 C 0.23345 0.18218 0.02698 0.0
C1501 C 0.22168 0.1874 0.04867 0.0
C1502 C 0.22691 0.19414 0.00596 0.0
C1503 C 0.20805 0.20913 0.04949 0.0
C1504 C 0.20228 0.22191 0.02867 0.0
C1505 C 0.19729 0.21902 0.98589 0.0
C1506 C 0.20041 0.20541 0.96437 0.0
C1507 C 0.20975 0.21283 0.00679 0.0
C1508 C 0.22073 0.19019 0.96339 0.0
C1509 C 0.23405 0.18474 0.98407 0.0
H1510 H 0.81102 0.02342 0.93619 0.0
H1511 H 0.74658 0.92229 0.96325 0.0
H1512 H 0.7515 0.94491 0.00291 0.0
H1513 H 0.78599 0.99109 0.03047 0.0
H1514 H 0.85342 0.09165 0.00344 0.0
H1515 H 0.8349 0.07182 0.96339 0.0
C1516 C 0.79683 0.0065 0.95057 0.0
C1517 C 0.77919 0.97122 0.94693 0.0
C1518 C 0.80103 0.01955 0.97354 0.0
C1519 C 0.76079 0.94959 0.96573 0.0
C1520 C 0.76386 0.96247 0.98847 0.0
C1521 C 0.79573 0.00894 0.01592 0.0
C1522 C 0.82183 0.04249 0.01986 0.0
C1523 C 0.7858 0.9971 0.99278 0.0
C1524 C 0.83385 0.06542 0.00082 0.0
C1525 C 0.82337 0.05409 0.97785 0.0
H1526 H 0.06588 0.80809 0.97784 0.0
H1527 H 0.97274 0.76133 0.93774 0.0
H1528 H 0.94012 0.73817 0.97386 0.0
H1529 H 0.93783 0.74434 0.01665 0.0
H1530 H 0.03085 0.79495 0.05668 0.0
H1531 H 0.0637 0.8026 0.02091 0.0
C1532 C 0.03851 0.79185 0.97693 0.0
C1533 C 0.02167 0.78732 0.95526 0.0
C1534 C 0.01984 0.77976 0.99785 0.0
C1535 C 0.98632 0.76562 0.95422 0.0
C1536 C 0.96759 0.75261 0.97493 0.0
C1537 C 0.96524 0.75593 0.01766 0.0
C1538 C 0.98196 0.76991 0.03911 0.0
C1539 C 0.98399 0.76149 0.99688 0.0
C1540 C 0.01737 0.78426 0.04034 0.0
C1541 C 0.03622 0.789 0.01981 0.0
H1542 H 0.85855 0.56967 0.2807 0.0
H1543 H 0.88386 0.49811 0.25026 0.0
H1544 H 0.9041 0.49103 0.28846 0.0
H1545 H 0.90086 0.49421 0.33139 0.0
H1546 H 0.86953 0.56094 0.3623 0.0
H1547 H 0.86581 0.58114 0.32314 0.0
C1548 C 0.86945 0.55328 0.28226 0.0
C1549 C 0.86863 0.53359 0.26282 0.0
C1550 C 0.87925 0.54788 0.30455 0.0
C1551 C 0.88369 0.51322 0.26496 0.0
C1552 C 0.89492 0.50884 0.28691 0.0
C1553 C 0.89413 0.51389 0.32961 0.0
C1554 C 0.8846 0.5254 0.34968 0.0
C1555 C 0.89066 0.5243 0.30702 0.0
C1556 C 0.87666 0.55139 0.34715 0.0
C1557 C 0.87426 0.56276 0.32472 0.0
H1558 H 0.42295 0.27897 0.34627 0.0
H1559 H 0.4633 0.37057 0.30469 0.0
H1560 H 0.46934 0.4035 0.34018 0.0
H1561 H 0.47725 0.40773 0.383 0.0
H1562 H 0.443 0.31671 0.42443 0.0
H1563 H 0.41922 0.28201 0.3892 0.0
C1564 C 0.43204 0.30599 0.34489 0.0
C1565 C 0.44363 0.32251 0.32303 0.0
C1566 C 0.43689 0.32493 0.36546 0.0
C1567 C 0.4546 0.35732 0.32135 0.0
C1568 C 0.45834 0.37622 0.34169 0.0
C1569 C 0.46345 0.38023 0.38444 0.0
C1570 C 0.46287 0.36482 0.40612 0.0
C1571 C 0.45169 0.36057 0.36391 0.0
C1572 C 0.44423 0.32925 0.40792 0.0
C1573 C 0.43102 0.30937 0.38768 0.0
H1574 H 0.66836 0.13948 0.38209 0.0
H1575 H 0.56416 0.09271 0.35893 0.0
H1576 H 0.58154 0.09136 0.31854 0.0
H1577 H 0.62721 0.11567 0.28913 0.0
H1578 H 0.73156 0.16455 0.31219 0.0
H1579 H 0.71322 0.15206 0.35309 0.0
C1580 C 0.64933 0.12786 0.36837 0.0
C1581 C 0.61518 0.11714 0.37341 0.0
C1582 C 0.6596 0.12807 0.34498 0.0
C1583 C 0.59078 0.10183 0.35543 0.0
C1584 C 0.60069 0.10118 0.33226 0.0
C1585 C 0.64591 0.12248 0.30302 0.0
C1586 C 0.68067 0.14188 0.29766 0.0
C1587 C 0.63522 0.11613 0.32664 0.0
C1588 C 0.70458 0.1502 0.31588 0.0
C1589 C 0.69414 0.14322 0.33934 0.0
H1590 H 0.51511 0.91611 0.65594 0.0
H1591 H 0.55869 0.86927 0.61301 0.0
H1592 H 0.58069 0.85607 0.64823 0.0
H1593 H 0.57455 0.84525 0.69083 0.0
H1594 H 0.52728 0.88851 0.73363 0.0
H1595 H 0.52049 0.91641 0.69898 0.0
C1596 C 0.53046 0.90407 0.65425 0.0
C1597 C 0.53449 0.89285 0.63199 0.0
C1598 C 0.54184 0.89537 0.67463 0.0
C1599 C 0.55494 0.87789 0.62994 0.0
C1600 C 0.56722 0.86999 0.65014 0.0
C1601 C 0.56382 0.86175 0.69269 0.0
C1602 C 0.55061 0.86411 0.71461 0.0
C1603 C 0.55886 0.87665 0.67256 0.0
C1604 C 0.53737 0.88602 0.71692 0.0
C1605 C 0.53316 0.90171 0.69704 0.0
H1606 H 0.08612 0.58921 0.64709 0.0
H1607 H 0.1253 0.6899 0.61826 0.0
H1608 H 0.12829 0.71242 0.65776 0.0
H1609 H 0.13372 0.70561 0.70006 0.0
H1610 H 0.10094 0.60591 0.72861 0.0
H1611 H 0.08036 0.58075 0.68985 0.0
C1612 C 0.09438 0.61593 0.64937 0.0
C1613 C 0.10651 0.63804 0.62985 0.0
C1614 C 0.09755 0.62894 0.6722 0.0
C1615 C 0.11629 0.6724 0.63299 0.0
C1616 C 0.11826 0.68535 0.65563 0.0
C1617 C 0.12099 0.67822 0.69796 0.0
C1618 C 0.11984 0.65776 0.717 0.0
C1619 C 0.11108 0.66421 0.67538 0.0
C1620 C 0.10256 0.62231 0.71421 0.0
C1621 C 0.09117 0.60794 0.69194 0.0
H1622 H 0.39556 0.48496 0.63952 0.0
H1623 H 0.30062 0.44149 0.60167 0.0
H1624 H 0.26997 0.41264 0.63746 0.0
H1625 H 0.26948 0.41241 0.68063 0.0
H1626 H 0.3642 0.46185 0.7189 0.0
H1627 H 0.39557 0.4748 0.6819 0.0
C1628 C 0.36824 0.46825 0.63892 0.0
C1629 C 0.35028 0.46616 0.61816 0.0
C1630 C 0.35068 0.45327 0.65982 0.0
C1631 C 0.31504 0.44386 0.61746 0.0
C1632 C 0.29744 0.42764 0.63803 0.0
C1633 C 0.297 0.42514 0.68093 0.0
C1634 C 0.31449 0.43716 0.70245 0.0
C1635 C 0.31485 0.43408 0.65955 0.0
C1636 C 0.35008 0.45275 0.7026 0.0
C1637 C 0.36806 0.46047 0.68139 0.0
loop_
_geom_bond_atom_site_label_1
_geom_bond_atom_site_label_2
_geom_bond_distance
_geom_bond_site_symmetry_2
_ccdc_geom_bond_type
Co0 O2 2.143 . S
Co0 O8 2.074 . S
Co0 O11 2.093 . S
Co0 O24 2.097 . S
Co0 N41 2.151 . S
Co0 N49 2.214 . S
Co1 O2 2.160 . S
Co1 O7 2.058 . S
Co1 O17 2.057 . S
Co1 O32 2.037 . S
Co1 N36 2.145 . S
Co1 N57 2.257 . S
O2 Co0 2.143 . S
O2 Co1 2.160 . S
C3 O4 1.278 . S
C3 O11 1.224 . S
O4 C3 1.278 . S
C5 O6 1.245 . S
C5 O17 1.232 . S
O6 C5 1.245 . S
O7 Co1 2.058 . S
O7 C33 1.269 . S
O8 Co0 2.074 . S
O8 C33 1.257 . S
H9 C34 0.930 . S
H10 C40 0.930 . S
O11 Co0 2.093 . S
O11 C3 1.224 . S
H12 C44 0.929 . S
H13 C46 0.930 . S
H14 C47 0.930 . S
H15 C45 0.929 . S
H16 C48 0.928 . S
O17 Co1 2.057 . S
O17 C5 1.232 . S
H18 C37 0.929 . S
H19 C38 0.929 . S
H20 C50 0.931 . S
H21 C42 0.929 . S
H22 C51 0.930 . S
H23 C43 0.931 . S
O24 Co0 2.097 . S
O24 C52 1.214 . S
H25 C53 0.929 . S
H26 C54 0.929 . S
H27 C55 0.930 . S
H28 C56 0.929 . S
H29 C58 0.930 . S
H30 C35 0.930 . S
H31 C39 0.930 . S
O32 Co1 2.037 . S
O32 C52 1.234 . S
C33 O7 1.269 . S
C33 O8 1.257 . S
C34 H9 0.930 . S
C34 C37 1.388 . S
C34 C39 1.418 . S
C35 H30 0.930 . S
C35 C38 1.404 . S
C35 C39 1.353 . S
N36 Co1 2.145 . S
N36 C37 1.397 . S
N36 C38 1.334 . S
C37 H18 0.929 . S
C37 C34 1.388 . S
C37 N36 1.397 . S
C38 H19 0.929 . S
C38 C35 1.404 . S
C38 N36 1.334 . S
C39 H31 0.930 . S
C39 C34 1.418 . S
C39 C35 1.353 . S
C40 H10 0.930 . S
C40 N41 1.330 . S
C40 C42 1.446 . S
N41 Co0 2.151 . S
N41 C40 1.330 . S
N41 C45 1.418 . S
C42 H21 0.929 . S
C42 C40 1.446 . S
C42 C43 1.332 . S
C43 H23 0.931 . S
C43 C42 1.332 . S
C43 C44 1.267 . S
C44 H12 0.929 . S
C44 C43 1.267 . S
C44 C45 1.251 . S
C45 H15 0.929 . S
C45 N41 1.418 . S
C45 C44 1.251 . S
C46 H13 0.930 . S
C46 C48 1.406 . S
C46 C51 1.261 . S
C47 H14 0.930 . S
C47 N49 1.325 . S
C47 C50 1.357 . S
C48 H16 0.928 . S
C48 C46 1.406 . S
C48 N49 1.261 . S
N49 Co0 2.214 . S
N49 C47 1.325 . S
N49 C48 1.261 . S
C50 H20 0.931 . S
C50 C47 1.357 . S
C50 C51 1.312 . S
C51 H22 0.930 . S
C51 C46 1.261 . S
C51 C50 1.312 . S
C52 O24 1.214 . S
C52 O32 1.234 . S
C53 H25 0.929 . S
C53 C56 1.391 . S
C53 C58 1.391 . S
C54 H26 0.929 . S
C54 C55 1.390 . S
C54 N57 1.391 . S
C55 H27 0.930 . S
C55 C54 1.390 . S
C55 C56 1.392 . S
C56 H28 0.929 . S
C56 C53 1.391 . S
C56 C55 1.392 . S
N57 Co1 2.257 . S
N57 C54 1.391 . S
N57 C58 1.388 . S
C58 H29 0.930 . S
C58 C53 1.391 . S
C58 N57 1.388 . S
Co59 O61 2.143 . S
Co59 O67 2.074 . S
Co59 O70 2.093 1_545 S
Co59 O83 2.097 1_545 S
Co59 N100 2.151 . S
Co59 N108 2.214 . S
Co60 O61 2.160 1_565 S
Co60 O66 2.058 1_565 S
Co60 O76 2.057 1_565 S
Co60 O91 2.037 . S
Co60 N95 2.145 . S
Co60 N116 2.257 . S
O61 Co59 2.143 . S
O61 Co60 2.160 1_545 S
C62 O63 1.278 . S
C62 O70 1.224 . S
O63 C62 1.278 . S
C64 O65 1.245 . S
C64 O76 1.232 . S
O65 C64 1.245 . S
O66 Co60 2.058 1_545 S
O66 C92 1.269 . S
O67 Co59 2.074 . S
O67 C92 1.257 . S
H68 C93 0.930 . S
H69 C99 0.930 . S
O70 Co59 2.093 1_565 S
O70 C62 1.224 . S
H71 C103 0.929 . S
H72 C105 0.930 . S
H73 C106 0.927 1_565 S
H74 C104 0.929 . S
H75 C107 0.928 . S
O76 Co60 2.057 1_545 S
O76 C64 1.232 . S
H77 C96 0.929 . S
H78 C97 0.929 . S
H79 C109 0.931 1_565 S
H80 C101 0.929 . S
H81 C110 0.930 . S
H82 C102 0.931 . S
O83 Co59 2.097 1_565 S
O83 C111 1.214 . S
H84 C112 0.929 . S
H85 C113 0.929 . S
H86 C114 0.930 . S
H87 C115 0.929 . S
H88 C117 0.930 . S
H89 C94 0.930 . S
H90 C98 0.930 . S
O91 Co60 2.037 . S
O91 C111 1.234 . S
C92 O66 1.269 . S
C92 O67 1.257 . S
C93 H68 0.930 . S
C93 C96 1.388 . S
C93 C98 1.418 . S
C94 H89 0.930 . S
C94 C97 1.404 . S
C94 C98 1.353 . S
N95 Co60 2.145 . S
N95 C96 1.397 . S
N95 C97 1.334 . S
C96 H77 0.929 . S
C96 C93 1.388 . S
C96 N95 1.397 . S
C97 H78 0.929 . S
C97 C94 1.404 . S
C97 N95 1.334 . S
C98 H90 0.930 . S
C98 C93 1.418 . S
C98 C94 1.353 . S
C99 H69 0.930 . S
C99 N100 1.330 . S
C99 C101 1.446 . S
N100 Co59 2.151 . S
N100 C99 1.330 . S
N100 C104 1.418 . S
C101 H80 0.929 . S
C101 C99 1.446 . S
C101 C102 1.332 . S
C102 H82 0.931 . S
C102 C101 1.332 . S
C102 C103 1.267 . S
C103 H71 0.929 . S
C103 C102 1.267 . S
C103 C104 1.251 . S
C104 H74 0.929 . S
C104 N100 1.418 . S
C104 C103 1.251 . S
C105 H72 0.930 . S
C105 C107 1.406 . S
C105 C110 1.261 . S
C106 H73 0.927 1_545 S
C106 N108 1.334 . S
C106 C109 1.351 . S
C107 H75 0.928 . S
C107 C105 1.406 . S
C107 N108 1.261 . S
N108 Co59 2.214 . S
N108 C106 1.334 . S
N108 C107 1.261 . S
C109 H79 0.931 1_545 S
C109 C106 1.351 . S
C109 C110 1.312 . S
C110 H81 0.930 . S
C110 C105 1.261 . S
C110 C109 1.312 . S
C111 O83 1.214 . S
C111 O91 1.234 . S
C112 H84 0.929 . S
C112 C115 1.391 . S
C112 C117 1.391 . S
C113 H85 0.929 . S
C113 C114 1.390 . S
C113 N116 1.391 . S
C114 H86 0.930 . S
C114 C113 1.390 . S
C114 C115 1.392 . S
C115 H87 0.929 . S
C115 C112 1.391 . S
C115 C114 1.392 . S
N116 Co60 2.257 . S
N116 C113 1.391 . S
N116 C117 1.388 . S
C117 H88 0.930 . S
C117 C112 1.391 . S
C117 N116 1.388 . S
Co118 O120 2.143 . S
Co118 O126 2.074 . S
Co118 O129 2.093 1_655 S
Co118 O142 2.097 1_655 S
Co118 N159 2.151 . S
Co118 N167 2.214 . S
Co119 O120 2.160 1_455 S
Co119 O125 2.058 1_455 S
Co119 O135 2.057 1_455 S
Co119 O150 2.037 . S
Co119 N154 2.145 . S
Co119 N175 2.257 . S
O120 Co118 2.143 . S
O120 Co119 2.160 1_655 S
C121 O122 1.278 . S
C121 O129 1.224 . S
O122 C121 1.278 . S
C123 O124 1.245 . S
C123 O135 1.232 . S
O124 C123 1.245 . S
O125 Co119 2.058 1_655 S
O125 C151 1.269 . S
O126 Co118 2.074 . S
O126 C151 1.257 . S
H127 C152 0.930 . S
H128 C158 0.930 . S
O129 Co118 2.093 1_455 S
O129 C121 1.224 . S
H130 C162 0.929 . S
H131 C164 0.930 . S
H132 C165 0.930 1_455 S
H133 C163 0.929 . S
H134 C166 0.928 . S
O135 Co119 2.057 1_655 S
O135 C123 1.232 . S
H136 C155 0.929 . S
H137 C156 0.929 . S
H138 C168 0.931 1_455 S
H139 C160 0.929 . S
H140 C169 0.930 . S
H141 C161 0.931 . S
O142 Co118 2.097 1_455 S
O142 C170 1.214 . S
H143 C171 0.929 . S
H144 C172 0.929 . S
H145 C173 0.930 . S
H146 C174 0.929 . S
H147 C176 0.930 . S
H148 C153 0.930 . S
H149 C157 0.930 . S
O150 Co119 2.037 . S
O150 C170 1.234 . S
C151 O125 1.269 . S
C151 O126 1.257 . S
C152 H127 0.930 . S
C152 C155 1.388 . S
C152 C157 1.418 . S
C153 H148 0.930 . S
C153 C156 1.404 . S
C153 C157 1.353 . S
N154 Co119 2.145 . S
N154 C155 1.397 . S
N154 C156 1.334 . S
C155 H136 0.929 . S
C155 C152 1.388 . S
C155 N154 1.397 . S
C156 H137 0.929 . S
C156 C153 1.404 . S
C156 N154 1.334 . S
C157 H149 0.930 . S
C157 C152 1.418 . S
C157 C153 1.353 . S
C158 H128 0.930 . S
C158 N159 1.330 . S
C158 C160 1.446 . S
N159 Co118 2.151 . S
N159 C158 1.330 . S
N159 C163 1.418 . S
C160 H139 0.929 . S
C160 C158 1.446 . S
C160 C161 1.332 . S
C161 H141 0.931 . S
C161 C160 1.332 . S
C161 C162 1.267 . S
C162 H130 0.929 . S
C162 C161 1.267 . S
C162 C163 1.251 . S
C163 H133 0.929 . S
C163 N159 1.418 . S
C163 C162 1.251 . S
C164 H131 0.930 . S
C164 C166 1.406 . S
C164 C169 1.261 . S
C165 H132 0.930 1_655 S
C165 N167 1.325 . S
C165 C168 1.357 . S
C166 H134 0.928 . S
C166 C164 1.406 . S
C166 N167 1.261 . S
N167 Co118 2.214 . S
N167 C165 1.325 . S
N167 C166 1.261 . S
C168 H138 0.931 1_655 S
C168 C165 1.357 . S
C168 C169 1.312 . S
C169 H140 0.930 . S
C169 C164 1.261 . S
C169 C168 1.312 . S
C170 O142 1.214 . S
C170 O150 1.234 . S
C171 H143 0.929 . S
C171 C174 1.391 . S
C171 C176 1.391 . S
C172 H144 0.929 . S
C172 C173 1.390 . S
C172 N175 1.391 . S
C173 H145 0.930 . S
C173 C172 1.390 . S
C173 C174 1.392 . S
C174 H146 0.929 . S
C174 C171 1.391 . S
C174 C173 1.392 . S
N175 Co119 2.257 . S
N175 C172 1.391 . S
N175 C176 1.388 . S
C176 H147 0.930 . S
C176 C171 1.391 . S
C176 N175 1.388 . S
Co177 O179 2.143 . S
Co177 O185 2.074 . S
Co177 O188 2.093 . S
Co177 O201 2.097 . S
Co177 N218 2.151 . S
Co177 N226 2.214 . S
Co178 O179 2.160 . S
Co178 O184 2.058 . S
Co178 O194 2.057 . S
Co178 O209 2.037 . S
Co178 N213 2.145 . S
Co178 N234 2.257 . S
O179 Co177 2.143 . S
O179 Co178 2.160 . S
C180 O181 1.278 . S
C180 O188 1.224 . S
O181 C180 1.278 . S
C182 O183 1.245 . S
C182 O194 1.232 . S
O183 C182 1.245 . S
O184 Co178 2.058 . S
O184 C210 1.269 . S
O185 Co177 2.074 . S
O185 C210 1.257 . S
H186 C211 0.930 . S
H187 C217 0.930 . S
O188 Co177 2.093 . S
O188 C180 1.224 . S
H189 C221 0.929 . S
H190 C223 0.930 . S
H191 C224 0.930 . S
H192 C222 0.929 . S
H193 C225 0.928 . S
O194 Co178 2.057 . S
O194 C182 1.232 . S
H195 C214 0.929 . S
H196 C215 0.929 . S
H197 C227 0.931 . S
H198 C219 0.929 . S
H199 C228 0.930 . S
H200 C220 0.931 . S
O201 Co177 2.097 . S
O201 C229 1.214 . S
H202 C230 0.929 . S
H203 C231 0.929 . S
H204 C232 0.930 . S
H205 C233 0.929 . S
H206 C235 0.930 . S
H207 C212 0.930 . S
H208 C216 0.930 . S
O209 Co178 2.037 . S
O209 C229 1.234 . S
C210 O184 1.269 . S
C210 O185 1.257 . S
C211 H186 0.930 . S
C211 C214 1.388 . S
C211 C216 1.418 . S
C212 H207 0.930 . S
C212 C215 1.404 . S
C212 C216 1.353 . S
N213 Co178 2.145 . S
N213 C214 1.397 . S
N213 C215 1.334 . S
C214 H195 0.929 . S
C214 C211 1.388 . S
C214 N213 1.397 . S
C215 H196 0.929 . S
C215 C212 1.404 . S
C215 N213 1.334 . S
C216 H208 0.930 . S
C216 C211 1.418 . S
C216 C212 1.353 . S
C217 H187 0.930 . S
C217 N218 1.330 . S
C217 C219 1.446 . S
N218 Co177 2.151 . S
N218 C217 1.330 . S
N218 C222 1.418 . S
C219 H198 0.929 . S
C219 C217 1.446 . S
C219 C220 1.332 . S
C220 H200 0.931 . S
C220 C219 1.332 . S
C220 C221 1.267 . S
C221 H189 0.929 . S
C221 C220 1.267 . S
C221 C222 1.251 . S
C222 H192 0.929 . S
C222 N218 1.418 . S
C222 C221 1.251 . S
C223 H190 0.930 . S
C223 C225 1.406 . S
C223 C228 1.261 . S
C224 H191 0.930 . S
C224 N226 1.325 . S
C224 C227 1.357 . S
C225 H193 0.928 . S
C225 C223 1.406 . S
C225 N226 1.261 . S
N226 Co177 2.214 . S
N226 C224 1.325 . S
N226 C225 1.261 . S
C227 H197 0.931 . S
C227 C224 1.357 . S
C227 C228 1.312 . S
C228 H199 0.930 . S
C228 C223 1.261 . S
C228 C227 1.312 . S
C229 O201 1.214 . S
C229 O209 1.234 . S
C230 H202 0.929 . S
C230 C233 1.391 . S
C230 C235 1.391 . S
C231 H203 0.929 . S
C231 C232 1.390 . S
C231 N234 1.391 . S
C232 H204 0.930 . S
C232 C231 1.390 . S
C232 C233 1.392 . S
C233 H205 0.929 . S
C233 C230 1.391 . S
C233 C232 1.392 . S
N234 Co178 2.257 . S
N234 C231 1.391 . S
N234 C235 1.388 . S
C235 H206 0.930 . S
C235 C230 1.391 . S
C235 N234 1.388 . S
Co236 O238 2.143 . S
Co236 O244 2.074 . S
Co236 O247 2.093 1_565 S
Co236 O260 2.097 1_565 S
Co236 N277 2.151 . S
Co236 N285 2.214 . S
Co237 O238 2.160 1_545 S
Co237 O243 2.058 1_545 S
Co237 O253 2.057 1_545 S
Co237 O268 2.037 . S
Co237 N272 2.145 . S
Co237 N293 2.257 . S
O238 Co236 2.143 . S
O238 Co237 2.160 1_565 S
C239 O240 1.278 . S
C239 O247 1.224 . S
O240 C239 1.278 . S
C241 O242 1.245 . S
C241 O253 1.232 . S
O242 C241 1.245 . S
O243 Co237 2.058 1_565 S
O243 C269 1.269 . S
O244 Co236 2.074 . S
O244 C269 1.257 . S
H245 C270 0.930 . S
H246 C276 0.930 . S
O247 Co236 2.093 1_545 S
O247 C239 1.224 . S
H248 C280 0.929 . S
H249 C282 0.930 . S
H250 C283 0.930 1_545 S
H251 C281 0.929 . S
H252 C284 0.928 . S
O253 Co237 2.057 1_565 S
O253 C241 1.232 . S
H254 C273 0.929 . S
H255 C274 0.929 . S
H256 C286 0.931 1_545 S
H257 C278 0.929 . S
H258 C287 0.930 . S
H259 C279 0.931 . S
O260 Co236 2.097 1_545 S
O260 C288 1.214 . S
H261 C289 0.929 . S
H262 C290 0.929 . S
H263 C291 0.930 . S
H264 C292 0.929 . S
H265 C294 0.930 . S
H266 C271 0.930 . S
H267 C275 0.930 . S
O268 Co237 2.037 . S
O268 C288 1.234 . S
C269 O243 1.269 . S
C269 O244 1.257 . S
C270 H245 0.930 . S
C270 C273 1.388 . S
C270 C275 1.418 . S
C271 H266 0.930 . S
C271 C274 1.404 . S
C271 C275 1.353 . S
N272 Co237 2.145 . S
N272 C273 1.397 . S
N272 C274 1.334 . S
C273 H254 0.929 . S
C273 C270 1.388 . S
C273 N272 1.397 . S
C274 H255 0.929 . S
C274 C271 1.404 . S
C274 N272 1.334 . S
C275 H267 0.930 . S
C275 C270 1.418 . S
C275 C271 1.353 . S
C276 H246 0.930 . S
C276 N277 1.330 . S
C276 C278 1.446 . S
N277 Co236 2.151 . S
N277 C276 1.330 . S
N277 C281 1.418 . S
C278 H257 0.929 . S
C278 C276 1.446 . S
C278 C279 1.332 . S
C279 H259 0.931 . S
C279 C278 1.332 . S
C279 C280 1.267 . S
C280 H248 0.929 . S
C280 C279 1.267 . S
C280 C281 1.251 . S
C281 H251 0.929 . S
C281 N277 1.418 . S
C281 C280 1.251 . S
C282 H249 0.930 . S
C282 C284 1.406 . S
C282 C287 1.261 . S
C283 H250 0.930 1_565 S
C283 N285 1.325 . S
C283 C286 1.357 . S
C284 H252 0.928 . S
C284 C282 1.406 . S
C284 N285 1.261 . S
N285 Co236 2.214 . S
N285 C283 1.325 . S
N285 C284 1.261 . S
C286 H256 0.931 1_565 S
C286 C283 1.357 . S
C286 C287 1.312 . S
C287 H258 0.930 . S
C287 C282 1.261 . S
C287 C286 1.312 . S
C288 O260 1.214 . S
C288 O268 1.234 . S
C289 H261 0.929 . S
C289 C292 1.391 . S
C289 C294 1.391 . S
C290 H262 0.929 . S
C290 C291 1.390 . S
C290 N293 1.391 . S
C291 H263 0.930 . S
C291 C290 1.390 . S
C291 C292 1.392 . S
C292 H264 0.929 . S
C292 C289 1.391 . S
C292 C291 1.392 . S
N293 Co237 2.257 . S
N293 C290 1.391 . S
N293 C294 1.388 . S
C294 H265 0.930 . S
C294 C289 1.391 . S
C294 N293 1.388 . S
Co295 O297 2.143 . S
Co295 O303 2.074 . S
Co295 O306 2.093 1_455 S
Co295 O319 2.097 1_455 S
Co295 N336 2.151 . S
Co295 N344 2.214 . S
Co296 O297 2.160 1_655 S
Co296 O302 2.058 1_655 S
Co296 O312 2.057 1_655 S
Co296 O327 2.037 . S
Co296 N331 2.145 . S
Co296 N352 2.257 . S
O297 Co295 2.143 . S
O297 Co296 2.160 1_455 S
C298 O299 1.278 . S
C298 O306 1.224 . S
O299 C298 1.278 . S
C300 O301 1.245 . S
C300 O312 1.232 . S
O301 C300 1.245 . S
O302 Co296 2.058 1_455 S
O302 C328 1.269 . S
O303 Co295 2.074 . S
O303 C328 1.257 . S
H304 C329 0.930 . S
H305 C335 0.930 . S
O306 Co295 2.093 1_655 S
O306 C298 1.224 . S
H307 C339 0.929 . S
H308 C341 0.930 . S
H309 C342 0.927 1_655 S
H310 C340 0.929 . S
H311 C343 0.928 . S
O312 Co296 2.057 1_455 S
O312 C300 1.232 . S
H313 C332 0.929 . S
H314 C333 0.929 . S
H315 C345 0.931 1_655 S
H316 C337 0.929 . S
H317 C346 0.930 . S
H318 C338 0.931 . S
O319 Co295 2.097 1_655 S
O319 C347 1.214 . S
H320 C348 0.929 . S
H321 C349 0.929 . S
H322 C350 0.930 . S
H323 C351 0.929 . S
H324 C353 0.930 . S
H325 C330 0.930 . S
H326 C334 0.930 . S
O327 Co296 2.037 . S
O327 C347 1.234 . S
C328 O302 1.269 . S
C328 O303 1.257 . S
C329 H304 0.930 . S
C329 C332 1.388 . S
C329 C334 1.418 . S
C330 H325 0.930 . S
C330 C333 1.404 . S
C330 C334 1.353 . S
N331 Co296 2.145 . S
N331 C332 1.397 . S
N331 C333 1.334 . S
C332 H313 0.929 . S
C332 C329 1.388 . S
C332 N331 1.397 . S
C333 H314 0.929 . S
C333 C330 1.404 . S
C333 N331 1.334 . S
C334 H326 0.930 . S
C334 C329 1.418 . S
C334 C330 1.353 . S
C335 H305 0.930 . S
C335 N336 1.330 . S
C335 C337 1.446 . S
N336 Co295 2.151 . S
N336 C335 1.330 . S
N336 C340 1.418 . S
C337 H316 0.929 . S
C337 C335 1.446 . S
C337 C338 1.332 . S
C338 H318 0.931 . S
C338 C337 1.332 . S
C338 C339 1.267 . S
C339 H307 0.929 . S
C339 C338 1.267 . S
C339 C340 1.251 . S
C340 H310 0.929 . S
C340 N336 1.418 . S
C340 C339 1.251 . S
C341 H308 0.930 . S
C341 C343 1.406 . S
C341 C346 1.261 . S
C342 H309 0.927 1_455 S
C342 N344 1.336 . S
C342 C345 1.350 . S
C343 H311 0.928 . S
C343 C341 1.406 . S
C343 N344 1.261 . S
N344 Co295 2.214 . S
N344 C342 1.336 . S
N344 C343 1.261 . S
C345 H315 0.931 1_455 S
C345 C342 1.350 . S
C345 C346 1.312 . S
C346 H317 0.930 . S
C346 C341 1.261 . S
C346 C345 1.312 . S
C347 O319 1.214 . S
C347 O327 1.234 . S
C348 H320 0.929 . S
C348 C351 1.391 . S
C348 C353 1.391 . S
C349 H321 0.929 . S
C349 C350 1.390 . S
C349 N352 1.391 . S
C350 H322 0.930 . S
C350 C349 1.390 . S
C350 C351 1.392 . S
C351 H323 0.929 . S
C351 C348 1.391 . S
C351 C350 1.392 . S
N352 Co296 2.257 . S
N352 C349 1.391 . S
N352 C353 1.388 . S
C353 H324 0.930 . S
C353 C348 1.391 . S
C353 N352 1.388 . S
Co354 O356 2.143 . S
Co354 O362 2.074 . S
Co354 O365 2.093 . S
Co354 O378 2.097 . S
Co354 N395 2.151 . S
Co354 N403 2.214 . S
Co355 O356 2.160 . S
Co355 O361 2.058 . S
Co355 O371 2.057 . S
Co355 O386 2.037 . S
Co355 N390 2.145 . S
Co355 N411 2.257 . S
O356 Co354 2.143 . S
O356 Co355 2.160 . S
C357 O358 1.278 . S
C357 O365 1.224 . S
O358 C357 1.278 . S
C359 O360 1.245 . S
C359 O371 1.232 . S
O360 C359 1.245 . S
O361 Co355 2.058 . S
O361 C387 1.269 . S
O362 Co354 2.074 . S
O362 C387 1.257 . S
H363 C388 0.930 . S
H364 C394 0.930 . S
O365 Co354 2.093 . S
O365 C357 1.224 . S
H366 C398 0.929 . S
H367 C400 0.930 . S
H368 C401 0.930 . S
H369 C399 0.929 . S
H370 C402 0.928 . S
O371 Co355 2.057 . S
O371 C359 1.232 . S
H372 C391 0.929 . S
H373 C392 0.929 . S
H374 C404 0.931 . S
H375 C396 0.929 . S
H376 C405 0.930 . S
H377 C397 0.931 . S
O378 Co354 2.097 . S
O378 C406 1.214 . S
H379 C407 0.929 . S
H380 C408 0.929 . S
H381 C409 0.930 . S
H382 C410 0.929 . S
H383 C412 0.930 . S
H384 C389 0.930 . S
H385 C393 0.930 . S
O386 Co355 2.037 . S
O386 C406 1.234 . S
C387 O361 1.269 . S
C387 O362 1.257 . S
C388 H363 0.930 . S
C388 C391 1.388 . S
C388 C393 1.418 . S
C389 H384 0.930 . S
C389 C392 1.404 . S
C389 C393 1.353 . S
N390 Co355 2.145 . S
N390 C391 1.397 . S
N390 C392 1.334 . S
C391 H372 0.929 . S
C391 C388 1.388 . S
C391 N390 1.397 . S
C392 H373 0.929 . S
C392 C389 1.404 . S
C392 N390 1.334 . S
C393 H385 0.930 . S
C393 C388 1.418 . S
C393 C389 1.353 . S
C394 H364 0.930 . S
C394 N395 1.330 . S
C394 C396 1.446 . S
N395 Co354 2.151 . S
N395 C394 1.330 . S
N395 C399 1.418 . S
C396 H375 0.929 . S
C396 C394 1.446 . S
C396 C397 1.332 . S
C397 H377 0.931 . S
C397 C396 1.332 . S
C397 C398 1.267 . S
C398 H366 0.929 . S
C398 C397 1.267 . S
C398 C399 1.251 . S
C399 H369 0.929 . S
C399 N395 1.418 . S
C399 C398 1.251 . S
C400 H367 0.930 . S
C400 C402 1.406 . S
C400 C405 1.261 . S
C401 H368 0.930 . S
C401 N403 1.325 . S
C401 C404 1.357 . S
C402 H370 0.928 . S
C402 C400 1.406 . S
C402 N403 1.261 . S
N403 Co354 2.214 . S
N403 C401 1.325 . S
N403 C402 1.261 . S
C404 H374 0.931 . S
C404 C401 1.357 . S
C404 C405 1.312 . S
C405 H376 0.930 . S
C405 C400 1.261 . S
C405 C404 1.312 . S
C406 O378 1.214 . S
C406 O386 1.234 . S
C407 H379 0.929 . S
C407 C410 1.391 . S
C407 C412 1.391 . S
C408 H380 0.929 . S
C408 C409 1.390 . S
C408 N411 1.391 . S
C409 H381 0.930 . S
C409 C408 1.390 . S
C409 C410 1.392 . S
C410 H382 0.929 . S
C410 C407 1.391 . S
C410 C409 1.392 . S
N411 Co355 2.257 . S
N411 C408 1.391 . S
N411 C412 1.388 . S
C412 H383 0.930 . S
C412 C407 1.391 . S
C412 N411 1.388 . S
Co413 O415 2.143 . S
Co413 O421 2.074 . S
Co413 O424 2.093 . S
Co413 O437 2.097 . S
Co413 N454 2.151 . S
Co413 N462 2.214 . S
Co414 O415 2.160 . S
Co414 O420 2.058 . S
Co414 O430 2.057 . S
Co414 O445 2.037 . S
Co414 N449 2.145 . S
Co414 N470 2.257 . S
O415 Co413 2.143 . S
O415 Co414 2.160 . S
C416 O417 1.278 . S
C416 O424 1.224 . S
O417 C416 1.278 . S
C418 O419 1.245 . S
C418 O430 1.232 . S
O419 C418 1.245 . S
O420 Co414 2.058 . S
O420 C446 1.269 . S
O421 Co413 2.074 . S
O421 C446 1.257 . S
H422 C447 0.930 . S
H423 C453 0.930 . S
O424 Co413 2.093 . S
O424 C416 1.224 . S
H425 C457 0.929 . S
H426 C459 0.930 . S
H427 C460 0.930 . S
H428 C458 0.929 . S
H429 C461 0.928 . S
O430 Co414 2.057 . S
O430 C418 1.232 . S
H431 C450 0.929 . S
H432 C451 0.929 . S
H433 C463 0.931 . S
H434 C455 0.929 . S
H435 C464 0.930 . S
H436 C456 0.931 . S
O437 Co413 2.097 . S
O437 C465 1.214 . S
H438 C466 0.929 . S
H439 C467 0.929 . S
H440 C468 0.930 . S
H441 C469 0.929 . S
H442 C471 0.930 . S
H443 C448 0.930 . S
H444 C452 0.930 . S
O445 Co414 2.037 . S
O445 C465 1.234 . S
C446 O420 1.269 . S
C446 O421 1.257 . S
C447 H422 0.930 . S
C447 C450 1.388 . S
C447 C452 1.418 . S
C448 H443 0.930 . S
C448 C451 1.404 . S
C448 C452 1.353 . S
N449 Co414 2.145 . S
N449 C450 1.397 . S
N449 C451 1.334 . S
C450 H431 0.929 . S
C450 C447 1.388 . S
C450 N449 1.397 . S
C451 H432 0.929 . S
C451 C448 1.404 . S
C451 N449 1.334 . S
C452 H444 0.930 . S
C452 C447 1.418 . S
C452 C448 1.353 . S
C453 H423 0.930 . S
C453 N454 1.330 . S
C453 C455 1.446 . S
N454 Co413 2.151 . S
N454 C453 1.330 . S
N454 C458 1.418 . S
C455 H434 0.929 . S
C455 C453 1.446 . S
C455 C456 1.332 . S
C456 H436 0.931 . S
C456 C455 1.332 . S
C456 C457 1.267 . S
C457 H425 0.929 . S
C457 C456 1.267 . S
C457 C458 1.251 . S
C458 H428 0.929 . S
C458 N454 1.418 . S
C458 C457 1.251 . S
C459 H426 0.930 . S
C459 C461 1.406 . S
C459 C464 1.261 . S
C460 H427 0.930 . S
C460 N462 1.325 . S
C460 C463 1.357 . S
C461 H429 0.928 . S
C461 C459 1.406 . S
C461 N462 1.261 . S
N462 Co413 2.214 . S
N462 C460 1.325 . S
N462 C461 1.261 . S
C463 H433 0.931 . S
C463 C460 1.357 . S
C463 C464 1.312 . S
C464 H435 0.930 . S
C464 C459 1.261 . S
C464 C463 1.312 . S
C465 O437 1.214 . S
C465 O445 1.234 . S
C466 H438 0.929 . S
C466 C469 1.391 . S
C466 C471 1.391 . S
C467 H439 0.929 . S
C467 C468 1.390 . S
C467 N470 1.391 . S
C468 H440 0.930 . S
C468 C467 1.390 . S
C468 C469 1.392 . S
C469 H441 0.929 . S
C469 C466 1.391 . S
C469 C468 1.392 . S
N470 Co414 2.257 . S
N470 C467 1.391 . S
N470 C471 1.388 . S
C471 H442 0.930 . S
C471 C466 1.391 . S
C471 N470 1.388 . S
Co472 O474 2.143 . S
Co472 O480 2.074 . S
Co472 O483 2.093 . S
Co472 O496 2.097 . S
Co472 N513 2.151 . S
Co472 N521 2.214 . S
Co473 O474 2.160 . S
Co473 O479 2.058 . S
Co473 O489 2.057 . S
Co473 O504 2.037 . S
Co473 N508 2.145 . S
Co473 N529 2.257 . S
O474 Co472 2.143 . S
O474 Co473 2.160 . S
C475 O476 1.278 . S
C475 O483 1.224 . S
O476 C475 1.278 . S
C477 O478 1.245 . S
C477 O489 1.232 . S
O478 C477 1.245 . S
O479 Co473 2.058 . S
O479 C505 1.269 . S
O480 Co472 2.074 . S
O480 C505 1.257 . S
H481 C506 0.930 . S
H482 C512 0.930 . S
O483 Co472 2.093 . S
O483 C475 1.224 . S
H484 C516 0.929 . S
H485 C518 0.930 . S
H486 C519 0.930 . S
H487 C517 0.929 . S
H488 C520 0.928 . S
O489 Co473 2.057 . S
O489 C477 1.232 . S
H490 C509 0.929 . S
H491 C510 0.929 . S
H492 C522 0.931 . S
H493 C514 0.929 . S
H494 C523 0.930 . S
H495 C515 0.931 . S
O496 Co472 2.097 . S
O496 C524 1.214 . S
H497 C525 0.929 . S
H498 C526 0.929 . S
H499 C527 0.930 . S
H500 C528 0.929 . S
H501 C530 0.930 . S
H502 C507 0.930 . S
H503 C511 0.930 . S
O504 Co473 2.037 . S
O504 C524 1.234 . S
C505 O479 1.269 . S
C505 O480 1.257 . S
C506 H481 0.930 . S
C506 C509 1.388 . S
C506 C511 1.418 . S
C507 H502 0.930 . S
C507 C510 1.404 . S
C507 C511 1.353 . S
N508 Co473 2.145 . S
N508 C509 1.397 . S
N508 C510 1.334 . S
C509 H490 0.929 . S
C509 C506 1.388 . S
C509 N508 1.397 . S
C510 H491 0.929 . S
C510 C507 1.404 . S
C510 N508 1.334 . S
C511 H503 0.930 . S
C511 C506 1.418 . S
C511 C507 1.353 . S
C512 H482 0.930 . S
C512 N513 1.330 . S
C512 C514 1.446 . S
N513 Co472 2.151 . S
N513 C512 1.330 . S
N513 C517 1.418 . S
C514 H493 0.929 . S
C514 C512 1.446 . S
C514 C515 1.332 . S
C515 H495 0.931 . S
C515 C514 1.332 . S
C515 C516 1.267 . S
C516 H484 0.929 . S
C516 C515 1.267 . S
C516 C517 1.251 . S
C517 H487 0.929 . S
C517 N513 1.418 . S
C517 C516 1.251 . S
C518 H485 0.930 . S
C518 C520 1.406 . S
C518 C523 1.261 . S
C519 H486 0.930 . S
C519 N521 1.325 . S
C519 C522 1.357 . S
C520 H488 0.928 . S
C520 C518 1.406 . S
C520 N521 1.261 . S
N521 Co472 2.214 . S
N521 C519 1.325 . S
N521 C520 1.261 . S
C522 H492 0.931 . S
C522 C519 1.357 . S
C522 C523 1.312 . S
C523 H494 0.930 . S
C523 C518 1.261 . S
C523 C522 1.312 . S
C524 O496 1.214 . S
C524 O504 1.234 . S
C525 H497 0.929 . S
C525 C528 1.391 . S
C525 C530 1.391 . S
C526 H498 0.929 . S
C526 C527 1.390 . S
C526 N529 1.391 . S
C527 H499 0.930 . S
C527 C526 1.390 . S
C527 C528 1.392 . S
C528 H500 0.929 . S
C528 C525 1.391 . S
C528 C527 1.392 . S
N529 Co473 2.257 . S
N529 C526 1.391 . S
N529 C530 1.388 . S
C530 H501 0.930 . S
C530 C525 1.391 . S
C530 N529 1.388 . S
Co531 O533 2.143 . S
Co531 O539 2.074 . S
Co531 O542 2.093 . S
Co531 O555 2.097 . S
Co531 N572 2.151 . S
Co531 N580 2.214 . S
Co532 O533 2.160 . S
Co532 O538 2.058 . S
Co532 O548 2.057 . S
Co532 O563 2.037 . S
Co532 N567 2.145 . S
Co532 N588 2.257 . S
O533 Co531 2.143 . S
O533 Co532 2.160 . S
C534 O535 1.278 . S
C534 O542 1.224 . S
O535 C534 1.278 . S
C536 O537 1.245 . S
C536 O548 1.232 . S
O537 C536 1.245 . S
O538 Co532 2.058 . S
O538 C564 1.269 . S
O539 Co531 2.074 . S
O539 C564 1.257 . S
H540 C565 0.930 . S
H541 C571 0.930 . S
O542 Co531 2.093 . S
O542 C534 1.224 . S
H543 C575 0.929 . S
H544 C577 0.930 . S
H545 C578 0.930 . S
H546 C576 0.929 . S
H547 C579 0.928 . S
O548 Co532 2.057 . S
O548 C536 1.232 . S
H549 C568 0.929 . S
H550 C569 0.929 . S
H551 C581 0.931 . S
H552 C573 0.929 . S
H553 C582 0.930 . S
H554 C574 0.931 . S
O555 Co531 2.097 . S
O555 C583 1.214 . S
H556 C584 0.929 . S
H557 C585 0.929 . S
H558 C586 0.930 . S
H559 C587 0.929 . S
H560 C589 0.930 . S
H561 C566 0.930 . S
H562 C570 0.930 . S
O563 Co532 2.037 . S
O563 C583 1.234 . S
C564 O538 1.269 . S
C564 O539 1.257 . S
C565 H540 0.930 . S
C565 C568 1.388 . S
C565 C570 1.418 . S
C566 H561 0.930 . S
C566 C569 1.404 . S
C566 C570 1.353 . S
N567 Co532 2.145 . S
N567 C568 1.397 . S
N567 C569 1.334 . S
C568 H549 0.929 . S
C568 C565 1.388 . S
C568 N567 1.397 . S
C569 H550 0.929 . S
C569 C566 1.404 . S
C569 N567 1.334 . S
C570 H562 0.930 . S
C570 C565 1.418 . S
C570 C566 1.353 . S
C571 H541 0.930 . S
C571 N572 1.330 . S
C571 C573 1.446 . S
N572 Co531 2.151 . S
N572 C571 1.330 . S
N572 C576 1.418 . S
C573 H552 0.929 . S
C573 C571 1.446 . S
C573 C574 1.332 . S
C574 H554 0.931 . S
C574 C573 1.332 . S
C574 C575 1.267 . S
C575 H543 0.929 . S
C575 C574 1.267 . S
C575 C576 1.251 . S
C576 H546 0.929 . S
C576 N572 1.418 . S
C576 C575 1.251 . S
C577 H544 0.930 . S
C577 C579 1.406 . S
C577 C582 1.261 . S
C578 H545 0.930 . S
C578 N580 1.325 . S
C578 C581 1.357 . S
C579 H547 0.928 . S
C579 C577 1.406 . S
C579 N580 1.261 . S
N580 Co531 2.214 . S
N580 C578 1.325 . S
N580 C579 1.261 . S
C581 H551 0.931 . S
C581 C578 1.357 . S
C581 C582 1.312 . S
C582 H553 0.930 . S
C582 C577 1.261 . S
C582 C581 1.312 . S
C583 O555 1.214 . S
C583 O563 1.234 . S
C584 H556 0.929 . S
C584 C587 1.391 . S
C584 C589 1.391 . S
C585 H557 0.929 . S
C585 C586 1.390 . S
C585 N588 1.391 . S
C586 H558 0.930 . S
C586 C585 1.390 . S
C586 C587 1.392 . S
C587 H559 0.929 . S
C587 C584 1.391 . S
C587 C586 1.392 . S
N588 Co532 2.257 . S
N588 C585 1.391 . S
N588 C589 1.388 . S
C589 H560 0.930 . S
C589 C584 1.391 . S
C589 N588 1.388 . S
Co590 O592 2.143 . S
Co590 O598 2.074 . S
Co590 O601 2.093 . S
Co590 O614 2.097 . S
Co590 N631 2.151 . S
Co590 N639 2.214 . S
Co591 O592 2.160 . S
Co591 O597 2.058 . S
Co591 O607 2.057 . S
Co591 O622 2.037 . S
Co591 N626 2.145 . S
Co591 N647 2.257 . S
O592 Co590 2.143 . S
O592 Co591 2.160 . S
C593 O594 1.278 . S
C593 O601 1.224 . S
O594 C593 1.278 . S
C595 O596 1.245 . S
C595 O607 1.232 . S
O596 C595 1.245 . S
O597 Co591 2.058 . S
O597 C623 1.269 . S
O598 Co590 2.074 . S
O598 C623 1.257 . S
H599 C624 0.930 . S
H600 C630 0.930 . S
O601 Co590 2.093 . S
O601 C593 1.224 . S
H602 C634 0.929 . S
H603 C636 0.930 . S
H604 C637 0.930 . S
H605 C635 0.929 . S
H606 C638 0.928 . S
O607 Co591 2.057 . S
O607 C595 1.232 . S
H608 C627 0.929 . S
H609 C628 0.929 . S
H610 C640 0.931 . S
H611 C632 0.929 . S
H612 C641 0.930 . S
H613 C633 0.931 . S
O614 Co590 2.097 . S
O614 C642 1.214 . S
H615 C643 0.929 . S
H616 C644 0.929 . S
H617 C645 0.930 . S
H618 C646 0.929 . S
H619 C648 0.930 . S
H620 C625 0.930 . S
H621 C629 0.930 . S
O622 Co591 2.037 . S
O622 C642 1.234 . S
C623 O597 1.269 . S
C623 O598 1.257 . S
C624 H599 0.930 . S
C624 C627 1.388 . S
C624 C629 1.418 . S
C625 H620 0.930 . S
C625 C628 1.404 . S
C625 C629 1.353 . S
N626 Co591 2.145 . S
N626 C627 1.397 . S
N626 C628 1.334 . S
C627 H608 0.929 . S
C627 C624 1.388 . S
C627 N626 1.397 . S
C628 H609 0.929 . S
C628 C625 1.404 . S
C628 N626 1.334 . S
C629 H621 0.930 . S
C629 C624 1.418 . S
C629 C625 1.353 . S
C630 H600 0.930 . S
C630 N631 1.330 . S
C630 C632 1.446 . S
N631 Co590 2.151 . S
N631 C630 1.330 . S
N631 C635 1.418 . S
C632 H611 0.929 . S
C632 C630 1.446 . S
C632 C633 1.332 . S
C633 H613 0.931 . S
C633 C632 1.332 . S
C633 C634 1.267 . S
C634 H602 0.929 . S
C634 C633 1.267 . S
C634 C635 1.251 . S
C635 H605 0.929 . S
C635 N631 1.418 . S
C635 C634 1.251 . S
C636 H603 0.930 . S
C636 C638 1.406 . S
C636 C641 1.261 . S
C637 H604 0.930 . S
C637 N639 1.325 . S
C637 C640 1.357 . S
C638 H606 0.928 . S
C638 C636 1.406 . S
C638 N639 1.261 . S
N639 Co590 2.214 . S
N639 C637 1.325 . S
N639 C638 1.261 . S
C640 H610 0.931 . S
C640 C637 1.357 . S
C640 C641 1.312 . S
C641 H612 0.930 . S
C641 C636 1.261 . S
C641 C640 1.312 . S
C642 O614 1.214 . S
C642 O622 1.234 . S
C643 H615 0.929 . S
C643 C646 1.391 . S
C643 C648 1.391 . S
C644 H616 0.929 . S
C644 C645 1.390 . S
C644 N647 1.391 . S
C645 H617 0.930 . S
C645 C644 1.390 . S
C645 C646 1.392 . S
C646 H618 0.929 . S
C646 C643 1.391 . S
C646 C645 1.392 . S
N647 Co591 2.257 . S
N647 C644 1.391 . S
N647 C648 1.388 . S
C648 H619 0.930 . S
C648 C643 1.391 . S
C648 N647 1.388 . S
Co649 O651 2.143 . S
Co649 O657 2.074 . S
Co649 O660 2.093 . S
Co649 O673 2.097 . S
Co649 N690 2.151 . S
Co649 N698 2.214 . S
Co650 O651 2.160 . S
Co650 O656 2.058 . S
Co650 O666 2.057 . S
Co650 O681 2.037 . S
Co650 N685 2.145 . S
Co650 N706 2.257 . S
O651 Co649 2.143 . S
O651 Co650 2.160 . S
C652 O653 1.278 . S
C652 O660 1.224 . S
O653 C652 1.278 . S
C654 O655 1.245 . S
C654 O666 1.232 . S
O655 C654 1.245 . S
O656 Co650 2.058 . S
O656 C682 1.269 . S
O657 Co649 2.074 . S
O657 C682 1.257 . S
H658 C683 0.930 . S
H659 C689 0.930 . S
O660 Co649 2.093 . S
O660 C652 1.224 . S
H661 C693 0.929 . S
H662 C695 0.930 . S
H663 C696 0.930 . S
H664 C694 0.929 . S
H665 C697 0.928 . S
O666 Co650 2.057 . S
O666 C654 1.232 . S
H667 C686 0.929 . S
H668 C687 0.929 . S
H669 C699 0.931 . S
H670 C691 0.929 . S
H671 C700 0.930 . S
H672 C692 0.931 . S
O673 Co649 2.097 . S
O673 C701 1.214 . S
H674 C702 0.929 . S
H675 C703 0.929 . S
H676 C704 0.930 . S
H677 C705 0.929 . S
H678 C707 0.930 . S
H679 C684 0.930 . S
H680 C688 0.930 . S
O681 Co650 2.037 . S
O681 C701 1.234 . S
C682 O656 1.269 . S
C682 O657 1.257 . S
C683 H658 0.930 . S
C683 C686 1.388 . S
C683 C688 1.418 . S
C684 H679 0.930 . S
C684 C687 1.404 . S
C684 C688 1.353 . S
N685 Co650 2.145 . S
N685 C686 1.397 . S
N685 C687 1.334 . S
C686 H667 0.929 . S
C686 C683 1.388 . S
C686 N685 1.397 . S
C687 H668 0.929 . S
C687 C684 1.404 . S
C687 N685 1.334 . S
C688 H680 0.930 . S
C688 C683 1.418 . S
C688 C684 1.353 . S
C689 H659 0.930 . S
C689 N690 1.330 . S
C689 C691 1.446 . S
N690 Co649 2.151 . S
N690 C689 1.330 . S
N690 C694 1.418 . S
C691 H670 0.929 . S
C691 C689 1.446 . S
C691 C692 1.332 . S
C692 H672 0.931 . S
C692 C691 1.332 . S
C692 C693 1.267 . S
C693 H661 0.929 . S
C693 C692 1.267 . S
C693 C694 1.251 . S
C694 H664 0.929 . S
C694 N690 1.418 . S
C694 C693 1.251 . S
C695 H662 0.930 . S
C695 C697 1.406 . S
C695 C700 1.261 . S
C696 H663 0.930 . S
C696 N698 1.325 . S
C696 C699 1.357 . S
C697 H665 0.928 . S
C697 C695 1.406 . S
C697 N698 1.261 . S
N698 Co649 2.214 . S
N698 C696 1.325 . S
N698 C697 1.261 . S
C699 H669 0.931 . S
C699 C696 1.357 . S
C699 C700 1.312 . S
C700 H671 0.930 . S
C700 C695 1.261 . S
C700 C699 1.312 . S
C701 O673 1.214 . S
C701 O681 1.234 . S
C702 H674 0.929 . S
C702 C705 1.391 . S
C702 C707 1.391 . S
C703 H675 0.929 . S
C703 C704 1.390 . S
C703 N706 1.391 . S
C704 H676 0.930 . S
C704 C703 1.390 . S
C704 C705 1.392 . S
C705 H677 0.929 . S
C705 C702 1.391 . S
C705 C704 1.392 . S
N706 Co650 2.257 . S
N706 C703 1.391 . S
N706 C707 1.388 . S
C707 H678 0.930 . S
C707 C702 1.391 . S
C707 N706 1.388 . S
Co708 O710 2.143 . S
Co708 O716 2.074 . S
Co708 O719 2.093 . S
Co708 O732 2.097 . S
Co708 N749 2.151 . S
Co708 N757 2.214 . S
Co709 O710 2.160 . S
Co709 O715 2.058 . S
Co709 O725 2.057 . S
Co709 O740 2.037 . S
Co709 N744 2.145 . S
Co709 N765 2.257 . S
O710 Co708 2.143 . S
O710 Co709 2.160 . S
C711 O712 1.278 . S
C711 O719 1.224 . S
O712 C711 1.278 . S
C713 O714 1.245 . S
C713 O725 1.232 . S
O714 C713 1.245 . S
O715 Co709 2.058 . S
O715 C741 1.269 . S
O716 Co708 2.074 . S
O716 C741 1.257 . S
H717 C742 0.930 . S
H718 C748 0.930 . S
O719 Co708 2.093 . S
O719 C711 1.224 . S
H720 C752 0.929 . S
H721 C754 0.930 . S
H722 C755 0.930 . S
H723 C753 0.929 . S
H724 C756 0.928 . S
O725 Co709 2.057 . S
O725 C713 1.232 . S
H726 C745 0.929 . S
H727 C746 0.929 . S
H728 C758 0.931 . S
H729 C750 0.929 . S
H730 C759 0.930 . S
H731 C751 0.931 . S
O732 Co708 2.097 . S
O732 C760 1.214 . S
H733 C761 0.929 . S
H734 C762 0.929 . S
H735 C763 0.930 . S
H736 C764 0.929 . S
H737 C766 0.930 . S
H738 C743 0.930 . S
H739 C747 0.930 . S
O740 Co709 2.037 . S
O740 C760 1.234 . S
C741 O715 1.269 . S
C741 O716 1.257 . S
C742 H717 0.930 . S
C742 C745 1.388 . S
C742 C747 1.418 . S
C743 H738 0.930 . S
C743 C746 1.404 . S
C743 C747 1.353 . S
N744 Co709 2.145 . S
N744 C745 1.397 . S
N744 C746 1.334 . S
C745 H726 0.929 . S
C745 C742 1.388 . S
C745 N744 1.397 . S
C746 H727 0.929 . S
C746 C743 1.404 . S
C746 N744 1.334 . S
C747 H739 0.930 . S
C747 C742 1.418 . S
C747 C743 1.353 . S
C748 H718 0.930 . S
C748 N749 1.330 . S
C748 C750 1.446 . S
N749 Co708 2.151 . S
N749 C748 1.330 . S
N749 C753 1.418 . S
C750 H729 0.929 . S
C750 C748 1.446 . S
C750 C751 1.332 . S
C751 H731 0.931 . S
C751 C750 1.332 . S
C751 C752 1.267 . S
C752 H720 0.929 . S
C752 C751 1.267 . S
C752 C753 1.251 . S
C753 H723 0.929 . S
C753 N749 1.418 . S
C753 C752 1.251 . S
C754 H721 0.930 . S
C754 C756 1.406 . S
C754 C759 1.261 . S
C755 H722 0.930 . S
C755 N757 1.325 . S
C755 C758 1.357 . S
C756 H724 0.928 . S
C756 C754 1.406 . S
C756 N757 1.261 . S
N757 Co708 2.214 . S
N757 C755 1.325 . S
N757 C756 1.261 . S
C758 H728 0.931 . S
C758 C755 1.357 . S
C758 C759 1.312 . S
C759 H730 0.930 . S
C759 C754 1.261 . S
C759 C758 1.312 . S
C760 O732 1.214 . S
C760 O740 1.234 . S
C761 H733 0.929 . S
C761 C764 1.391 . S
C761 C766 1.391 . S
C762 H734 0.929 . S
C762 C763 1.390 . S
C762 N765 1.391 . S
C763 H735 0.930 . S
C763 C762 1.390 . S
C763 C764 1.392 . S
C764 H736 0.929 . S
C764 C761 1.391 . S
C764 C763 1.392 . S
N765 Co709 2.257 . S
N765 C762 1.391 . S
N765 C766 1.388 . S
C766 H737 0.930 . S
C766 C761 1.391 . S
C766 N765 1.388 . S
Co767 O769 2.143 . S
Co767 O775 2.074 . S
Co767 O778 2.093 . S
Co767 O791 2.097 . S
Co767 N808 2.151 . S
Co767 N816 2.214 . S
Co768 O769 2.160 . S
Co768 O774 2.058 . S
Co768 O784 2.057 . S
Co768 O799 2.037 . S
Co768 N803 2.145 . S
Co768 N824 2.257 . S
O769 Co767 2.143 . S
O769 Co768 2.160 . S
C770 O771 1.278 . S
C770 O778 1.224 . S
O771 C770 1.278 . S
C772 O773 1.245 . S
C772 O784 1.232 . S
O773 C772 1.245 . S
O774 Co768 2.058 . S
O774 C800 1.269 . S
O775 Co767 2.074 . S
O775 C800 1.257 . S
H776 C801 0.930 . S
H777 C807 0.930 . S
O778 Co767 2.093 . S
O778 C770 1.224 . S
H779 C811 0.929 . S
H780 C813 0.930 . S
H781 C814 0.930 . S
H782 C812 0.929 . S
H783 C815 0.928 . S
O784 Co768 2.057 . S
O784 C772 1.232 . S
H785 C804 0.929 . S
H786 C805 0.929 . S
H787 C817 0.931 . S
H788 C809 0.929 . S
H789 C818 0.930 . S
H790 C810 0.931 . S
O791 Co767 2.097 . S
O791 C819 1.214 . S
H792 C820 0.929 . S
H793 C821 0.929 . S
H794 C822 0.930 . S
H795 C823 0.929 . S
H796 C825 0.930 . S
H797 C802 0.930 . S
H798 C806 0.930 . S
O799 Co768 2.037 . S
O799 C819 1.234 . S
C800 O774 1.269 . S
C800 O775 1.257 . S
C801 H776 0.930 . S
C801 C804 1.388 . S
C801 C806 1.418 . S
C802 H797 0.930 . S
C802 C805 1.404 . S
C802 C806 1.353 . S
N803 Co768 2.145 . S
N803 C804 1.397 . S
N803 C805 1.334 . S
C804 H785 0.929 . S
C804 C801 1.388 . S
C804 N803 1.397 . S
C805 H786 0.929 . S
C805 C802 1.404 . S
C805 N803 1.334 . S
C806 H798 0.930 . S
C806 C801 1.418 . S
C806 C802 1.353 . S
C807 H777 0.930 . S
C807 N808 1.330 . S
C807 C809 1.446 . S
N808 Co767 2.151 . S
N808 C807 1.330 . S
N808 C812 1.418 . S
C809 H788 0.929 . S
C809 C807 1.446 . S
C809 C810 1.332 . S
C810 H790 0.931 . S
C810 C809 1.332 . S
C810 C811 1.267 . S
C811 H779 0.929 . S
C811 C810 1.267 . S
C811 C812 1.251 . S
C812 H782 0.929 . S
C812 N808 1.418 . S
C812 C811 1.251 . S
C813 H780 0.930 . S
C813 C815 1.406 . S
C813 C818 1.261 . S
C814 H781 0.930 . S
C814 N816 1.325 . S
C814 C817 1.357 . S
C815 H783 0.928 . S
C815 C813 1.406 . S
C815 N816 1.261 . S
N816 Co767 2.214 . S
N816 C814 1.325 . S
N816 C815 1.261 . S
C817 H787 0.931 . S
C817 C814 1.357 . S
C817 C818 1.312 . S
C818 H789 0.930 . S
C818 C813 1.261 . S
C818 C817 1.312 . S
C819 O791 1.214 . S
C819 O799 1.234 . S
C820 H792 0.929 . S
C820 C823 1.391 . S
C820 C825 1.391 . S
C821 H793 0.929 . S
C821 C822 1.390 . S
C821 N824 1.391 . S
C822 H794 0.930 . S
C822 C821 1.390 . S
C822 C823 1.392 . S
C823 H795 0.929 . S
C823 C820 1.391 . S
C823 C822 1.392 . S
N824 Co768 2.257 . S
N824 C821 1.391 . S
N824 C825 1.388 . S
C825 H796 0.930 . S
C825 C820 1.391 . S
C825 N824 1.388 . S
Co826 O828 2.143 . S
Co826 O834 2.074 . S
Co826 O837 2.093 . S
Co826 O850 2.097 . S
Co826 N867 2.151 . S
Co826 N875 2.214 . S
Co827 O828 2.160 . S
Co827 O833 2.058 . S
Co827 O843 2.057 . S
Co827 O858 2.037 . S
Co827 N862 2.145 . S
Co827 N883 2.257 . S
O828 Co826 2.143 . S
O828 Co827 2.160 . S
C829 O830 1.278 . S
C829 O837 1.224 . S
O830 C829 1.278 . S
C831 O832 1.245 . S
C831 O843 1.232 . S
O832 C831 1.245 . S
O833 Co827 2.058 . S
O833 C859 1.269 . S
O834 Co826 2.074 . S
O834 C859 1.257 . S
H835 C860 0.930 . S
H836 C866 0.930 . S
O837 Co826 2.093 . S
O837 C829 1.224 . S
H838 C870 0.929 . S
H839 C872 0.930 . S
H840 C873 0.930 . S
H841 C871 0.929 . S
H842 C874 0.928 . S
O843 Co827 2.057 . S
O843 C831 1.232 . S
H844 C863 0.929 . S
H845 C864 0.929 . S
H846 C876 0.931 . S
H847 C868 0.929 . S
H848 C877 0.930 . S
H849 C869 0.931 . S
O850 Co826 2.097 . S
O850 C878 1.214 . S
H851 C879 0.929 . S
H852 C880 0.929 . S
H853 C881 0.930 . S
H854 C882 0.929 . S
H855 C884 0.930 . S
H856 C861 0.930 . S
H857 C865 0.930 . S
O858 Co827 2.037 . S
O858 C878 1.234 . S
C859 O833 1.269 . S
C859 O834 1.257 . S
C860 H835 0.930 . S
C860 C863 1.388 . S
C860 C865 1.418 . S
C861 H856 0.930 . S
C861 C864 1.404 . S
C861 C865 1.353 . S
N862 Co827 2.145 . S
N862 C863 1.397 . S
N862 C864 1.334 . S
C863 H844 0.929 . S
C863 C860 1.388 . S
C863 N862 1.397 . S
C864 H845 0.929 . S
C864 C861 1.404 . S
C864 N862 1.334 . S
C865 H857 0.930 . S
C865 C860 1.418 . S
C865 C861 1.353 . S
C866 H836 0.930 . S
C866 N867 1.330 . S
C866 C868 1.446 . S
N867 Co826 2.151 . S
N867 C866 1.330 . S
N867 C871 1.418 . S
C868 H847 0.929 . S
C868 C866 1.446 . S
C868 C869 1.332 . S
C869 H849 0.931 . S
C869 C868 1.332 . S
C869 C870 1.267 . S
C870 H838 0.929 . S
C870 C869 1.267 . S
C870 C871 1.251 . S
C871 H841 0.929 . S
C871 N867 1.418 . S
C871 C870 1.251 . S
C872 H839 0.930 . S
C872 C874 1.406 . S
C872 C877 1.261 . S
C873 H840 0.930 . S
C873 N875 1.325 . S
C873 C876 1.357 . S
C874 H842 0.928 . S
C874 C872 1.406 . S
C874 N875 1.261 . S
N875 Co826 2.214 . S
N875 C873 1.325 . S
N875 C874 1.261 . S
C876 H846 0.931 . S
C876 C873 1.357 . S
C876 C877 1.312 . S
C877 H848 0.930 . S
C877 C872 1.261 . S
C877 C876 1.312 . S
C878 O850 1.214 . S
C878 O858 1.234 . S
C879 H851 0.929 . S
C879 C882 1.391 . S
C879 C884 1.391 . S
C880 H852 0.929 . S
C880 C881 1.390 . S
C880 N883 1.391 . S
C881 H853 0.930 . S
C881 C880 1.390 . S
C881 C882 1.392 . S
C882 H854 0.929 . S
C882 C879 1.391 . S
C882 C881 1.392 . S
N883 Co827 2.257 . S
N883 C880 1.391 . S
N883 C884 1.388 . S
C884 H855 0.930 . S
C884 C879 1.391 . S
C884 N883 1.388 . S
Co885 O887 2.143 . S
Co885 O893 2.074 . S
Co885 O896 2.093 . S
Co885 O909 2.097 . S
Co885 N926 2.151 . S
Co885 N934 2.214 . S
Co886 O887 2.160 . S
Co886 O892 2.058 . S
Co886 O902 2.057 . S
Co886 O917 2.037 . S
Co886 N921 2.145 . S
Co886 N942 2.257 . S
O887 Co885 2.143 . S
O887 Co886 2.160 . S
C888 O889 1.278 . S
C888 O896 1.224 . S
O889 C888 1.278 . S
C890 O891 1.245 . S
C890 O902 1.232 . S
O891 C890 1.245 . S
O892 Co886 2.058 . S
O892 C918 1.269 . S
O893 Co885 2.074 . S
O893 C918 1.257 . S
H894 C919 0.930 . S
H895 C925 0.930 . S
O896 Co885 2.093 . S
O896 C888 1.224 . S
H897 C929 0.929 . S
H898 C931 0.930 . S
H899 C932 0.930 . S
H900 C930 0.929 . S
H901 C933 0.928 . S
O902 Co886 2.057 . S
O902 C890 1.232 . S
H903 C922 0.929 . S
H904 C923 0.929 . S
H905 C935 0.931 . S
H906 C927 0.929 . S
H907 C936 0.930 . S
H908 C928 0.931 . S
O909 Co885 2.097 . S
O909 C937 1.214 . S
H910 C938 0.929 . S
H911 C939 0.929 . S
H912 C940 0.930 . S
H913 C941 0.929 . S
H914 C943 0.930 . S
H915 C920 0.930 . S
H916 C924 0.930 . S
O917 Co886 2.037 . S
O917 C937 1.234 . S
C918 O892 1.269 . S
C918 O893 1.257 . S
C919 H894 0.930 . S
C919 C922 1.388 . S
C919 C924 1.418 . S
C920 H915 0.930 . S
C920 C923 1.404 . S
C920 C924 1.353 . S
N921 Co886 2.145 . S
N921 C922 1.397 . S
N921 C923 1.334 . S
C922 H903 0.929 . S
C922 C919 1.388 . S
C922 N921 1.397 . S
C923 H904 0.929 . S
C923 C920 1.404 . S
C923 N921 1.334 . S
C924 H916 0.930 . S
C924 C919 1.418 . S
C924 C920 1.353 . S
C925 H895 0.930 . S
C925 N926 1.330 . S
C925 C927 1.446 . S
N926 Co885 2.151 . S
N926 C925 1.330 . S
N926 C930 1.418 . S
C927 H906 0.929 . S
C927 C925 1.446 . S
C927 C928 1.332 . S
C928 H908 0.931 . S
C928 C927 1.332 . S
C928 C929 1.267 . S
C929 H897 0.929 . S
C929 C928 1.267 . S
C929 C930 1.251 . S
C930 H900 0.929 . S
C930 N926 1.418 . S
C930 C929 1.251 . S
C931 H898 0.930 . S
C931 C933 1.406 . S
C931 C936 1.261 . S
C932 H899 0.930 . S
C932 N934 1.325 . S
C932 C935 1.357 . S
C933 H901 0.928 . S
C933 C931 1.406 . S
C933 N934 1.261 . S
N934 Co885 2.214 . S
N934 C932 1.325 . S
N934 C933 1.261 . S
C935 H905 0.931 . S
C935 C932 1.357 . S
C935 C936 1.312 . S
C936 H907 0.930 . S
C936 C931 1.261 . S
C936 C935 1.312 . S
C937 O909 1.214 . S
C937 O917 1.234 . S
C938 H910 0.929 . S
C938 C941 1.391 . S
C938 C943 1.391 . S
C939 H911 0.929 . S
C939 C940 1.390 . S
C939 N942 1.391 . S
C940 H912 0.930 . S
C940 C939 1.390 . S
C940 C941 1.392 . S
C941 H913 0.929 . S
C941 C938 1.391 . S
C941 C940 1.392 . S
N942 Co886 2.257 . S
N942 C939 1.391 . S
N942 C943 1.388 . S
C943 H914 0.930 . S
C943 C938 1.391 . S
C943 N942 1.388 . S
Co944 O946 2.143 . S
Co944 O952 2.074 . S
Co944 O955 2.093 . S
Co944 O968 2.097 . S
Co944 N985 2.151 . S
Co944 N993 2.214 . S
Co945 O946 2.160 . S
Co945 O951 2.058 . S
Co945 O961 2.057 . S
Co945 O976 2.037 . S
Co945 N980 2.145 . S
Co945 N1001 2.257 . S
O946 Co944 2.143 . S
O946 Co945 2.160 . S
C947 O948 1.278 . S
C947 O955 1.224 . S
O948 C947 1.278 . S
C949 O950 1.245 . S
C949 O961 1.232 . S
O950 C949 1.245 . S
O951 Co945 2.058 . S
O951 C977 1.269 . S
O952 Co944 2.074 . S
O952 C977 1.257 . S
H953 C978 0.930 . S
H954 C984 0.930 . S
O955 Co944 2.093 . S
O955 C947 1.224 . S
H956 C988 0.929 . S
H957 C990 0.930 . S
H958 C991 0.930 . S
H959 C989 0.929 . S
H960 C992 0.928 . S
O961 Co945 2.057 . S
O961 C949 1.232 . S
H962 C981 0.929 . S
H963 C982 0.929 . S
H964 C994 0.931 . S
H965 C986 0.929 . S
H966 C995 0.930 . S
H967 C987 0.931 . S
O968 Co944 2.097 . S
O968 C996 1.214 . S
H969 C997 0.929 . S
H970 C998 0.929 . S
H971 C999 0.930 . S
H972 C1000 0.929 . S
H973 C1002 0.930 . S
H974 C979 0.930 . S
H975 C983 0.930 . S
O976 Co945 2.037 . S
O976 C996 1.234 . S
C977 O951 1.269 . S
C977 O952 1.257 . S
C978 H953 0.930 . S
C978 C981 1.388 . S
C978 C983 1.418 . S
C979 H974 0.930 . S
C979 C982 1.404 . S
C979 C983 1.353 . S
N980 Co945 2.145 . S
N980 C981 1.397 . S
N980 C982 1.334 . S
C981 H962 0.929 . S
C981 C978 1.388 . S
C981 N980 1.397 . S
C982 H963 0.929 . S
C982 C979 1.404 . S
C982 N980 1.334 . S
C983 H975 0.930 . S
C983 C978 1.418 . S
C983 C979 1.353 . S
C984 H954 0.930 . S
C984 N985 1.330 . S
C984 C986 1.446 . S
N985 Co944 2.151 . S
N985 C984 1.330 . S
N985 C989 1.418 . S
C986 H965 0.929 . S
C986 C984 1.446 . S
C986 C987 1.332 . S
C987 H967 0.931 . S
C987 C986 1.332 . S
C987 C988 1.267 . S
C988 H956 0.929 . S
C988 C987 1.267 . S
C988 C989 1.251 . S
C989 H959 0.929 . S
C989 N985 1.418 . S
C989 C988 1.251 . S
C990 H957 0.930 . S
C990 C992 1.406 . S
C990 C995 1.261 . S
C991 H958 0.930 . S
C991 N993 1.325 . S
C991 C994 1.357 . S
C992 H960 0.928 . S
C992 C990 1.406 . S
C992 N993 1.261 . S
N993 Co944 2.214 . S
N993 C991 1.325 . S
N993 C992 1.261 . S
C994 H964 0.931 . S
C994 C991 1.357 . S
C994 C995 1.312 . S
C995 H966 0.930 . S
C995 C990 1.261 . S
C995 C994 1.312 . S
C996 O968 1.214 . S
C996 O976 1.234 . S
C997 H969 0.929 . S
C997 C1000 1.391 . S
C997 C1002 1.391 . S
C998 H970 0.929 . S
C998 C999 1.390 . S
C998 N1001 1.391 . S
C999 H971 0.930 . S
C999 C998 1.390 . S
C999 C1000 1.392 . S
C1000 H972 0.929 . S
C1000 C997 1.391 . S
C1000 C999 1.392 . S
N1001 Co945 2.257 . S
N1001 C998 1.391 . S
N1001 C1002 1.388 . S
C1002 H973 0.930 . S
C1002 C997 1.391 . S
C1002 N1001 1.388 . S
Co1003 O1005 2.143 . S
Co1003 O1011 2.074 . S
Co1003 O1014 2.093 . S
Co1003 O1027 2.097 . S
Co1003 N1044 2.151 . S
Co1003 N1052 2.214 . S
Co1004 O1005 2.160 . S
Co1004 O1010 2.058 . S
Co1004 O1020 2.057 . S
Co1004 O1035 2.037 . S
Co1004 N1039 2.145 . S
Co1004 N1060 2.257 . S
O1005 Co1003 2.143 . S
O1005 Co1004 2.160 . S
C1006 O1007 1.278 . S
C1006 O1014 1.224 . S
O1007 C1006 1.278 . S
C1008 O1009 1.245 . S
C1008 O1020 1.232 . S
O1009 C1008 1.245 . S
O1010 Co1004 2.058 . S
O1010 C1036 1.269 . S
O1011 Co1003 2.074 . S
O1011 C1036 1.257 . S
H1012 C1037 0.930 . S
H1013 C1043 0.930 . S
O1014 Co1003 2.093 . S
O1014 C1006 1.224 . S
H1015 C1047 0.929 . S
H1016 C1049 0.930 . S
H1017 C1050 0.930 . S
H1018 C1048 0.929 . S
H1019 C1051 0.928 . S
O1020 Co1004 2.057 . S
O1020 C1008 1.232 . S
H1021 C1040 0.929 . S
H1022 C1041 0.929 . S
H1023 C1053 0.931 . S
H1024 C1045 0.929 . S
H1025 C1054 0.930 . S
H1026 C1046 0.931 . S
O1027 Co1003 2.097 . S
O1027 C1055 1.214 . S
H1028 C1056 0.929 . S
H1029 C1057 0.929 . S
H1030 C1058 0.930 . S
H1031 C1059 0.929 . S
H1032 C1061 0.930 . S
H1033 C1038 0.930 . S
H1034 C1042 0.930 . S
O1035 Co1004 2.037 . S
O1035 C1055 1.234 . S
C1036 O1010 1.269 . S
C1036 O1011 1.257 . S
C1037 H1012 0.930 . S
C1037 C1040 1.388 . S
C1037 C1042 1.418 . S
C1038 H1033 0.930 . S
C1038 C1041 1.404 . S
C1038 C1042 1.353 . S
N1039 Co1004 2.145 . S
N1039 C1040 1.397 . S
N1039 C1041 1.334 . S
C1040 H1021 0.929 . S
C1040 C1037 1.388 . S
C1040 N1039 1.397 . S
C1041 H1022 0.929 . S
C1041 C1038 1.404 . S
C1041 N1039 1.334 . S
C1042 H1034 0.930 . S
C1042 C1037 1.418 . S
C1042 C1038 1.353 . S
C1043 H1013 0.930 . S
C1043 N1044 1.330 . S
C1043 C1045 1.446 . S
N1044 Co1003 2.151 . S
N1044 C1043 1.330 . S
N1044 C1048 1.418 . S
C1045 H1024 0.929 . S
C1045 C1043 1.446 . S
C1045 C1046 1.332 . S
C1046 H1026 0.931 . S
C1046 C1045 1.332 . S
C1046 C1047 1.267 . S
C1047 H1015 0.929 . S
C1047 C1046 1.267 . S
C1047 C1048 1.251 . S
C1048 H1018 0.929 . S
C1048 N1044 1.418 . S
C1048 C1047 1.251 . S
C1049 H1016 0.930 . S
C1049 C1051 1.406 . S
C1049 C1054 1.261 . S
C1050 H1017 0.930 . S
C1050 N1052 1.325 . S
C1050 C1053 1.357 . S
C1051 H1019 0.928 . S
C1051 C1049 1.406 . S
C1051 N1052 1.261 . S
N1052 Co1003 2.214 . S
N1052 C1050 1.325 . S
N1052 C1051 1.261 . S
C1053 H1023 0.931 . S
C1053 C1050 1.357 . S
C1053 C1054 1.312 . S
C1054 H1025 0.930 . S
C1054 C1049 1.261 . S
C1054 C1053 1.312 . S
C1055 O1027 1.214 . S
C1055 O1035 1.234 . S
C1056 H1028 0.929 . S
C1056 C1059 1.391 . S
C1056 C1061 1.391 . S
C1057 H1029 0.929 . S
C1057 C1058 1.390 . S
C1057 N1060 1.391 . S
C1058 H1030 0.930 . S
C1058 C1057 1.390 . S
C1058 C1059 1.392 . S
C1059 H1031 0.929 . S
C1059 C1056 1.391 . S
C1059 C1058 1.392 . S
N1060 Co1004 2.257 . S
N1060 C1057 1.391 . S
N1060 C1061 1.388 . S
C1061 H1032 0.930 . S
C1061 C1056 1.391 . S
C1061 N1060 1.388 . S
H1062 C1068 0.930 . S
H1063 C1071 0.930 . S
H1064 C1072 0.930 . S
H1065 C1073 0.930 . S
H1066 C1076 0.930 . S
H1067 C1077 0.930 . S
C1068 H1062 0.930 . S
C1068 C1069 1.355 . S
C1068 C1070 1.415 . S
C1069 C1068 1.355 . S
C1069 C1071 1.419 . S
C1070 C1068 1.415 . S
C1070 C1075 1.425 . S
C1070 C1077 1.409 . S
C1071 H1063 0.930 . S
C1071 C1069 1.419 . S
C1071 C1072 1.362 . S
C1072 H1064 0.930 . S
C1072 C1071 1.362 . S
C1072 C1075 1.409 . S
C1073 H1065 0.930 . S
C1073 C1074 1.355 . S
C1073 C1075 1.415 . S
C1074 C1073 1.355 . S
C1074 C1076 1.419 . S
C1075 C1070 1.425 . S
C1075 C1072 1.409 . S
C1075 C1073 1.415 . S
C1076 H1066 0.930 . S
C1076 C1074 1.419 . S
C1076 C1077 1.362 . S
C1077 H1067 0.930 . S
C1077 C1070 1.409 . S
C1077 C1076 1.362 . S
H1078 C1084 0.930 . S
H1079 C1087 0.930 . S
H1080 C1088 0.930 . S
H1081 C1089 0.930 . S
H1082 C1092 0.930 . S
H1083 C1093 0.930 . S
C1084 H1078 0.930 . S
C1084 C1085 1.355 . S
C1084 C1086 1.415 . S
C1085 C1084 1.355 . S
C1085 C1087 1.419 . S
C1086 C1084 1.415 . S
C1086 C1091 1.425 . S
C1086 C1093 1.409 . S
C1087 H1079 0.930 . S
C1087 C1085 1.419 . S
C1087 C1088 1.362 . S
C1088 H1080 0.930 . S
C1088 C1087 1.362 . S
C1088 C1091 1.409 . S
C1089 H1081 0.930 . S
C1089 C1090 1.355 . S
C1089 C1091 1.415 . S
C1090 C1089 1.355 . S
C1090 C1092 1.419 . S
C1091 C1086 1.425 . S
C1091 C1088 1.409 . S
C1091 C1089 1.415 . S
C1092 H1082 0.930 . S
C1092 C1090 1.419 . S
C1092 C1093 1.362 . S
C1093 H1083 0.930 . S
C1093 C1086 1.409 . S
C1093 C1092 1.362 . S
H1094 C1100 0.930 . S
H1095 C1103 0.930 . S
H1096 C1104 0.930 . S
H1097 C1105 0.930 . S
H1098 C1108 0.930 . S
H1099 C1109 0.930 . S
C1100 H1094 0.930 . S
C1100 C1101 1.355 . S
C1100 C1102 1.415 . S
C1101 C1100 1.355 . S
C1101 C1103 1.419 . S
C1102 C1100 1.415 . S
C1102 C1107 1.425 . S
C1102 C1109 1.409 . S
C1103 H1095 0.930 . S
C1103 C1101 1.419 . S
C1103 C1104 1.362 . S
C1104 H1096 0.930 . S
C1104 C1103 1.362 . S
C1104 C1107 1.409 . S
C1105 H1097 0.930 . S
C1105 C1106 1.355 . S
C1105 C1107 1.415 . S
C1106 C1105 1.355 . S
C1106 C1108 1.419 . S
C1107 C1102 1.425 . S
C1107 C1104 1.409 . S
C1107 C1105 1.415 . S
C1108 H1098 0.930 . S
C1108 C1106 1.419 . S
C1108 C1109 1.362 . S
C1109 H1099 0.930 . S
C1109 C1102 1.409 . S
C1109 C1108 1.362 . S
H1110 C1116 0.930 . S
H1111 C1119 0.930 . S
H1112 C1120 0.930 . S
H1113 C1121 0.930 . S
H1114 C1124 0.930 . S
H1115 C1125 0.930 . S
C1116 H1110 0.930 . S
C1116 C1117 1.355 . S
C1116 C1118 1.415 . S
C1117 C1116 1.355 . S
C1117 C1119 1.419 . S
C1118 C1116 1.415 . S
C1118 C1123 1.425 . S
C1118 C1125 1.409 . S
C1119 H1111 0.930 . S
C1119 C1117 1.419 . S
C1119 C1120 1.362 . S
C1120 H1112 0.930 . S
C1120 C1119 1.362 . S
C1120 C1123 1.409 . S
C1121 H1113 0.930 . S
C1121 C1122 1.355 . S
C1121 C1123 1.415 . S
C1122 C1121 1.355 . S
C1122 C1124 1.419 . S
C1123 C1118 1.425 . S
C1123 C1120 1.409 . S
C1123 C1121 1.415 . S
C1124 H1114 0.930 . S
C1124 C1122 1.419 . S
C1124 C1125 1.362 . S
C1125 H1115 0.930 . S
C1125 C1118 1.409 . S
C1125 C1124 1.362 . S
H1126 C1132 0.930 . S
H1127 C1135 0.930 . S
H1128 C1136 0.930 . S
H1129 C1137 0.930 . S
H1130 C1140 0.930 . S
H1131 C1141 0.930 . S
C1132 H1126 0.930 . S
C1132 C1133 1.355 . S
C1132 C1134 1.415 . S
C1133 C1132 1.355 . S
C1133 C1135 1.419 . S
C1134 C1132 1.415 . S
C1134 C1139 1.425 . S
C1134 C1141 1.409 . S
C1135 H1127 0.930 . S
C1135 C1133 1.419 . S
C1135 C1136 1.362 . S
C1136 H1128 0.930 . S
C1136 C1135 1.362 . S
C1136 C1139 1.409 . S
C1137 H1129 0.930 . S
C1137 C1138 1.355 . S
C1137 C1139 1.415 . S
C1138 C1137 1.355 . S
C1138 C1140 1.419 . S
C1139 C1134 1.425 . S
C1139 C1136 1.409 . S
C1139 C1137 1.415 . S
C1140 H1130 0.930 . S
C1140 C1138 1.419 . S
C1140 C1141 1.362 . S
C1141 H1131 0.930 . S
C1141 C1134 1.409 . S
C1141 C1140 1.362 . S
H1142 C1148 0.930 . S
H1143 C1151 0.930 . S
H1144 C1152 0.930 . S
H1145 C1153 0.930 . S
H1146 C1156 0.930 . S
H1147 C1157 0.930 . S
C1148 H1142 0.930 . S
C1148 C1149 1.355 . S
C1148 C1150 1.415 . S
C1149 C1148 1.355 . S
C1149 C1151 1.419 . S
C1150 C1148 1.415 . S
C1150 C1155 1.425 . S
C1150 C1157 1.409 . S
C1151 H1143 0.930 . S
C1151 C1149 1.419 . S
C1151 C1152 1.362 . S
C1152 H1144 0.930 . S
C1152 C1151 1.362 . S
C1152 C1155 1.409 . S
C1153 H1145 0.930 . S
C1153 C1154 1.355 . S
C1153 C1155 1.415 . S
C1154 C1153 1.355 . S
C1154 C1156 1.419 . S
C1155 C1150 1.425 . S
C1155 C1152 1.409 . S
C1155 C1153 1.415 . S
C1156 H1146 0.930 . S
C1156 C1154 1.419 . S
C1156 C1157 1.362 . S
C1157 H1147 0.930 . S
C1157 C1150 1.409 . S
C1157 C1156 1.362 . S
H1158 C1164 0.930 . S
H1159 C1167 0.930 . S
H1160 C1168 0.930 . S
H1161 C1169 0.930 . S
H1162 C1172 0.930 . S
H1163 C1173 0.930 . S
C1164 H1158 0.930 . S
C1164 C1165 1.355 . S
C1164 C1166 1.415 . S
C1165 C1164 1.355 . S
C1165 C1167 1.419 . S
C1166 C1164 1.415 . S
C1166 C1171 1.425 1_655 S
C1166 C1173 1.409 1_655 S
C1167 H1159 0.930 . S
C1167 C1165 1.419 . S
C1167 C1168 1.362 . S
C1168 H1160 0.930 . S
C1168 C1167 1.362 . S
C1168 C1171 1.409 1_655 S
C1169 H1161 0.930 . S
C1169 C1170 1.355 . S
C1169 C1171 1.415 . S
C1170 C1169 1.355 . S
C1170 C1172 1.419 . S
C1171 C1166 1.425 1_455 S
C1171 C1168 1.409 1_455 S
C1171 C1169 1.415 . S
C1172 H1162 0.930 . S
C1172 C1170 1.419 . S
C1172 C1173 1.362 . S
C1173 H1163 0.930 . S
C1173 C1166 1.409 1_455 S
C1173 C1172 1.362 . S
H1174 C1180 0.930 . S
H1175 C1183 0.930 . S
H1176 C1184 0.930 . S
H1177 C1185 0.930 . S
H1178 C1188 0.930 . S
H1179 C1189 0.930 . S
C1180 H1174 0.930 . S
C1180 C1181 1.355 . S
C1180 C1182 1.415 . S
C1181 C1180 1.355 . S
C1181 C1183 1.419 . S
C1182 C1180 1.415 . S
C1182 C1187 1.425 . S
C1182 C1189 1.409 . S
C1183 H1175 0.930 . S
C1183 C1181 1.419 . S
C1183 C1184 1.362 . S
C1184 H1176 0.930 . S
C1184 C1183 1.362 . S
C1184 C1187 1.409 . S
C1185 H1177 0.930 . S
C1185 C1186 1.355 . S
C1185 C1187 1.415 . S
C1186 C1185 1.355 . S
C1186 C1188 1.419 . S
C1187 C1182 1.425 . S
C1187 C1184 1.409 . S
C1187 C1185 1.415 . S
C1188 H1178 0.930 . S
C1188 C1186 1.419 . S
C1188 C1189 1.362 . S
C1189 H1179 0.930 . S
C1189 C1182 1.409 . S
C1189 C1188 1.362 . S
H1190 C1196 0.930 . S
H1191 C1199 0.930 . S
H1192 C1200 0.930 . S
H1193 C1201 0.930 . S
H1194 C1204 0.930 . S
H1195 C1205 0.930 . S
C1196 H1190 0.930 . S
C1196 C1197 1.355 . S
C1196 C1198 1.415 . S
C1197 C1196 1.355 . S
C1197 C1199 1.419 . S
C1198 C1196 1.415 . S
C1198 C1203 1.425 1_545 S
C1198 C1205 1.409 1_545 S
C1199 H1191 0.930 . S
C1199 C1197 1.419 . S
C1199 C1200 1.362 . S
C1200 H1192 0.930 . S
C1200 C1199 1.362 . S
C1200 C1203 1.409 1_545 S
C1201 H1193 0.930 . S
C1201 C1202 1.355 . S
C1201 C1203 1.415 . S
C1202 C1201 1.355 . S
C1202 C1204 1.419 . S
C1203 C1198 1.425 1_565 S
C1203 C1200 1.409 1_565 S
C1203 C1201 1.415 . S
C1204 H1194 0.930 . S
C1204 C1202 1.419 . S
C1204 C1205 1.362 . S
C1205 H1195 0.930 . S
C1205 C1198 1.409 1_565 S
C1205 C1204 1.362 . S
H1206 C1212 0.930 . S
H1207 C1215 0.930 . S
H1208 C1216 0.912 1_655 S
H1209 C1217 0.930 . S
H1210 C1220 0.930 . S
H1211 C1221 0.962 . S
C1212 H1206 0.930 . S
C1212 C1213 1.355 . S
C1212 C1214 1.415 . S
C1213 C1212 1.355 . S
C1213 C1215 1.419 . S
C1214 C1212 1.415 . S
C1214 C1219 1.425 1_455 S
C1214 C1221 1.409 1_455 S
C1215 H1207 0.930 . S
C1215 C1213 1.419 . S
C1215 C1216 1.362 . S
C1216 H1208 0.912 1_455 S
C1216 C1215 1.362 . S
C1216 C1219 1.409 1_455 S
C1217 H1209 0.930 . S
C1217 C1218 1.355 . S
C1217 C1219 1.415 . S
C1218 C1217 1.355 . S
C1218 C1220 1.419 . S
C1219 C1214 1.425 1_655 S
C1219 C1216 1.409 1_655 S
C1219 C1217 1.415 . S
C1220 H1210 0.930 . S
C1220 C1218 1.419 . S
C1220 C1221 1.362 . S
C1221 H1211 0.962 . S
C1221 C1214 1.409 1_655 S
C1221 C1220 1.362 . S
H1222 C1228 0.930 . S
H1223 C1231 0.930 . S
H1224 C1232 0.930 . S
H1225 C1233 0.930 . S
H1226 C1236 0.930 . S
H1227 C1237 0.930 . S
C1228 H1222 0.930 . S
C1228 C1229 1.355 . S
C1228 C1230 1.415 . S
C1229 C1228 1.355 . S
C1229 C1231 1.419 . S
C1230 C1228 1.415 . S
C1230 C1235 1.425 . S
C1230 C1237 1.409 . S
C1231 H1223 0.930 . S
C1231 C1229 1.419 . S
C1231 C1232 1.362 . S
C1232 H1224 0.930 . S
C1232 C1231 1.362 . S
C1232 C1235 1.409 . S
C1233 H1225 0.930 . S
C1233 C1234 1.355 . S
C1233 C1235 1.415 . S
C1234 C1233 1.355 . S
C1234 C1236 1.419 . S
C1235 C1230 1.425 . S
C1235 C1232 1.409 . S
C1235 C1233 1.415 . S
C1236 H1226 0.930 . S
C1236 C1234 1.419 . S
C1236 C1237 1.362 . S
C1237 H1227 0.930 . S
C1237 C1230 1.409 . S
C1237 C1236 1.362 . S
H1238 C1244 0.930 . S
H1239 C1247 0.930 . S
H1240 C1248 0.930 . S
H1241 C1249 0.930 . S
H1242 C1252 0.930 . S
H1243 C1253 0.931 . S
C1244 H1238 0.930 . S
C1244 C1245 1.355 . S
C1244 C1246 1.415 . S
C1245 C1244 1.355 . S
C1245 C1247 1.419 . S
C1246 C1244 1.415 . S
C1246 C1251 1.425 1_545 S
C1246 C1253 1.409 1_545 S
C1247 H1239 0.930 . S
C1247 C1245 1.419 . S
C1247 C1248 1.362 . S
C1248 H1240 0.930 . S
C1248 C1247 1.362 . S
C1248 C1251 1.409 1_545 S
C1249 H1241 0.930 . S
C1249 C1250 1.355 . S
C1249 C1251 1.415 . S
C1250 C1249 1.355 . S
C1250 C1252 1.419 . S
C1251 C1246 1.425 1_565 S
C1251 C1248 1.409 1_565 S
C1251 C1249 1.415 . S
C1252 H1242 0.930 . S
C1252 C1250 1.419 . S
C1252 C1253 1.362 . S
C1253 H1243 0.931 . S
C1253 C1246 1.409 1_565 S
C1253 C1252 1.362 . S
H1254 C1260 0.930 . S
H1255 C1263 0.930 . S
H1256 C1264 0.935 . S
H1257 C1265 0.930 . S
H1258 C1268 0.930 . S
H1259 C1269 0.930 1_565 S
C1260 H1254 0.930 . S
C1260 C1261 1.355 . S
C1260 C1262 1.415 . S
C1261 C1260 1.355 . S
C1261 C1263 1.419 . S
C1262 C1260 1.415 . S
C1262 C1267 1.425 1_565 S
C1262 C1269 1.409 1_565 S
C1263 H1255 0.930 . S
C1263 C1261 1.419 . S
C1263 C1264 1.362 . S
C1264 H1256 0.935 . S
C1264 C1263 1.362 . S
C1264 C1267 1.409 1_565 S
C1265 H1257 0.930 . S
C1265 C1266 1.355 . S
C1265 C1267 1.415 . S
C1266 C1265 1.355 . S
C1266 C1268 1.419 . S
C1267 C1262 1.425 1_545 S
C1267 C1264 1.409 1_545 S
C1267 C1265 1.415 . S
C1268 H1258 0.930 . S
C1268 C1266 1.419 . S
C1268 C1269 1.362 . S
C1269 H1259 0.930 1_545 S
C1269 C1262 1.409 1_545 S
C1269 C1268 1.362 . S
H1270 C1276 0.930 . S
H1271 C1279 0.930 . S
H1272 C1280 0.930 . S
H1273 C1281 0.930 . S
H1274 C1284 0.930 . S
H1275 C1285 0.930 . S
C1276 H1270 0.930 . S
C1276 C1277 1.355 . S
C1276 C1278 1.415 . S
C1277 C1276 1.355 . S
C1277 C1279 1.419 . S
C1278 C1276 1.415 . S
C1278 C1283 1.425 1_455 S
C1278 C1285 1.409 1_455 S
C1279 H1271 0.930 . S
C1279 C1277 1.419 . S
C1279 C1280 1.362 . S
C1280 H1272 0.930 . S
C1280 C1279 1.362 . S
C1280 C1283 1.409 1_455 S
C1281 H1273 0.930 . S
C1281 C1282 1.355 . S
C1281 C1283 1.415 . S
C1282 C1281 1.355 . S
C1282 C1284 1.419 . S
C1283 C1278 1.425 1_655 S
C1283 C1280 1.409 1_655 S
C1283 C1281 1.415 . S
C1284 H1274 0.930 . S
C1284 C1282 1.419 . S
C1284 C1285 1.362 . S
C1285 H1275 0.930 . S
C1285 C1278 1.409 1_655 S
C1285 C1284 1.362 . S
H1286 C1292 0.930 . S
H1287 C1295 0.930 . S
H1288 C1296 0.930 . S
H1289 C1297 0.930 . S
H1290 C1300 0.930 . S
H1291 C1301 0.930 . S
C1292 H1286 0.930 . S
C1292 C1293 1.355 . S
C1292 C1294 1.415 . S
C1293 C1292 1.355 . S
C1293 C1295 1.419 . S
C1294 C1292 1.415 . S
C1294 C1299 1.425 . S
C1294 C1301 1.409 . S
C1295 H1287 0.930 . S
C1295 C1293 1.419 . S
C1295 C1296 1.362 . S
C1296 H1288 0.930 . S
C1296 C1295 1.362 . S
C1296 C1299 1.409 . S
C1297 H1289 0.930 . S
C1297 C1298 1.355 . S
C1297 C1299 1.415 . S
C1298 C1297 1.355 . S
C1298 C1300 1.419 . S
C1299 C1294 1.425 . S
C1299 C1296 1.409 . S
C1299 C1297 1.415 . S
C1300 H1290 0.930 . S
C1300 C1298 1.419 . S
C1300 C1301 1.362 . S
C1301 H1291 0.930 . S
C1301 C1294 1.409 . S
C1301 C1300 1.362 . S
H1302 C1308 0.930 . S
H1303 C1311 0.930 . S
H1304 C1312 0.930 . S
H1305 C1313 0.930 . S
H1306 C1316 0.930 . S
H1307 C1317 0.930 . S
C1308 H1302 0.930 . S
C1308 C1309 1.355 . S
C1308 C1310 1.415 . S
C1309 C1308 1.355 . S
C1309 C1311 1.419 . S
C1310 C1308 1.415 . S
C1310 C1315 1.425 . S
C1310 C1317 1.409 . S
C1311 H1303 0.930 . S
C1311 C1309 1.419 . S
C1311 C1312 1.362 . S
C1312 H1304 0.930 . S
C1312 C1311 1.362 . S
C1312 C1315 1.409 . S
C1313 H1305 0.930 . S
C1313 C1314 1.355 . S
C1313 C1315 1.415 . S
C1314 C1313 1.355 . S
C1314 C1316 1.419 . S
C1315 C1310 1.425 . S
C1315 C1312 1.409 . S
C1315 C1313 1.415 . S
C1316 H1306 0.930 . S
C1316 C1314 1.419 . S
C1316 C1317 1.362 . S
C1317 H1307 0.930 . S
C1317 C1310 1.409 . S
C1317 C1316 1.362 . S
H1318 C1324 0.930 . S
H1319 C1327 0.930 . S
H1320 C1328 0.930 . S
H1321 C1329 0.930 . S
H1322 C1332 0.930 . S
H1323 C1333 0.930 . S
C1324 H1318 0.930 . S
C1324 C1325 1.355 . S
C1324 C1326 1.415 . S
C1325 C1324 1.355 . S
C1325 C1327 1.419 . S
C1326 C1324 1.415 . S
C1326 C1331 1.425 . S
C1326 C1333 1.409 . S
C1327 H1319 0.930 . S
C1327 C1325 1.419 . S
C1327 C1328 1.362 . S
C1328 H1320 0.930 . S
C1328 C1327 1.362 . S
C1328 C1331 1.409 . S
C1329 H1321 0.930 . S
C1329 C1330 1.355 . S
C1329 C1331 1.415 . S
C1330 C1329 1.355 . S
C1330 C1332 1.419 . S
C1331 C1326 1.425 . S
C1331 C1328 1.409 . S
C1331 C1329 1.415 . S
C1332 H1322 0.930 . S
C1332 C1330 1.419 . S
C1332 C1333 1.362 . S
C1333 H1323 0.930 . S
C1333 C1326 1.409 . S
C1333 C1332 1.362 . S
H1334 C1340 0.930 . S
H1335 C1343 0.930 . S
H1336 C1344 0.930 . S
H1337 C1345 0.930 . S
H1338 C1348 0.930 . S
H1339 C1349 0.930 . S
C1340 H1334 0.930 . S
C1340 C1341 1.355 . S
C1340 C1342 1.415 . S
C1341 C1340 1.355 . S
C1341 C1343 1.419 . S
C1342 C1340 1.415 . S
C1342 C1347 1.425 . S
C1342 C1349 1.409 . S
C1343 H1335 0.930 . S
C1343 C1341 1.419 . S
C1343 C1344 1.362 . S
C1344 H1336 0.930 . S
C1344 C1343 1.362 . S
C1344 C1347 1.409 . S
C1345 H1337 0.930 . S
C1345 C1346 1.355 . S
C1345 C1347 1.415 . S
C1346 C1345 1.355 . S
C1346 C1348 1.419 . S
C1347 C1342 1.425 . S
C1347 C1344 1.409 . S
C1347 C1345 1.415 . S
C1348 H1338 0.930 . S
C1348 C1346 1.419 . S
C1348 C1349 1.362 . S
C1349 H1339 0.930 . S
C1349 C1342 1.409 . S
C1349 C1348 1.362 . S
H1350 C1356 0.930 . S
H1351 C1359 0.930 . S
H1352 C1360 0.930 . S
H1353 C1361 0.930 . S
H1354 C1364 0.930 . S
H1355 C1365 0.930 . S
C1356 H1350 0.930 . S
C1356 C1357 1.355 . S
C1356 C1358 1.415 . S
C1357 C1356 1.355 . S
C1357 C1359 1.419 . S
C1358 C1356 1.415 . S
C1358 C1363 1.425 . S
C1358 C1365 1.409 . S
C1359 H1351 0.930 . S
C1359 C1357 1.419 . S
C1359 C1360 1.362 . S
C1360 H1352 0.930 . S
C1360 C1359 1.362 . S
C1360 C1363 1.409 . S
C1361 H1353 0.930 . S
C1361 C1362 1.355 . S
C1361 C1363 1.415 . S
C1362 C1361 1.355 . S
C1362 C1364 1.419 . S
C1363 C1358 1.425 . S
C1363 C1360 1.409 . S
C1363 C1361 1.415 . S
C1364 H1354 0.930 . S
C1364 C1362 1.419 . S
C1364 C1365 1.362 . S
C1365 H1355 0.930 . S
C1365 C1358 1.409 . S
C1365 C1364 1.362 . S
H1366 C1372 0.930 . S
H1367 C1375 0.930 . S
H1368 C1376 0.930 . S
H1369 C1377 0.930 . S
H1370 C1380 0.930 . S
H1371 C1381 0.930 . S
C1372 H1366 0.930 . S
C1372 C1373 1.355 . S
C1372 C1374 1.415 . S
C1373 C1372 1.355 . S
C1373 C1375 1.419 . S
C1374 C1372 1.415 . S
C1374 C1379 1.425 . S
C1374 C1381 1.409 . S
C1375 H1367 0.930 . S
C1375 C1373 1.419 . S
C1375 C1376 1.362 . S
C1376 H1368 0.930 . S
C1376 C1375 1.362 . S
C1376 C1379 1.409 . S
C1377 H1369 0.930 . S
C1377 C1378 1.355 . S
C1377 C1379 1.415 . S
C1378 C1377 1.355 . S
C1378 C1380 1.419 . S
C1379 C1374 1.425 . S
C1379 C1376 1.409 . S
C1379 C1377 1.415 . S
C1380 H1370 0.930 . S
C1380 C1378 1.419 . S
C1380 C1381 1.362 . S
C1381 H1371 0.930 . S
C1381 C1374 1.409 . S
C1381 C1380 1.362 . S
H1382 C1388 0.930 . S
H1383 C1391 0.930 . S
H1384 C1392 0.930 . S
H1385 C1393 0.930 . S
H1386 C1396 0.930 . S
H1387 C1397 0.930 . S
C1388 H1382 0.930 . S
C1388 C1389 1.355 . S
C1388 C1390 1.415 . S
C1389 C1388 1.355 . S
C1389 C1391 1.419 . S
C1390 C1388 1.415 . S
C1390 C1395 1.425 . S
C1390 C1397 1.409 . S
C1391 H1383 0.930 . S
C1391 C1389 1.419 . S
C1391 C1392 1.362 . S
C1392 H1384 0.930 . S
C1392 C1391 1.362 . S
C1392 C1395 1.409 . S
C1393 H1385 0.930 . S
C1393 C1394 1.355 . S
C1393 C1395 1.415 . S
C1394 C1393 1.355 . S
C1394 C1396 1.419 . S
C1395 C1390 1.425 . S
C1395 C1392 1.409 . S
C1395 C1393 1.415 . S
C1396 H1386 0.930 . S
C1396 C1394 1.419 . S
C1396 C1397 1.362 . S
C1397 H1387 0.930 . S
C1397 C1390 1.409 . S
C1397 C1396 1.362 . S
H1398 C1404 0.930 . S
H1399 C1407 0.930 . S
H1400 C1408 0.930 . S
H1401 C1409 0.930 . S
H1402 C1412 0.930 . S
H1403 C1413 0.930 . S
C1404 H1398 0.930 . S
C1404 C1405 1.355 . S
C1404 C1406 1.415 . S
C1405 C1404 1.355 . S
C1405 C1407 1.419 . S
C1406 C1404 1.415 . S
C1406 C1411 1.425 . S
C1406 C1413 1.409 . S
C1407 H1399 0.930 . S
C1407 C1405 1.419 . S
C1407 C1408 1.362 . S
C1408 H1400 0.930 . S
C1408 C1407 1.362 . S
C1408 C1411 1.409 . S
C1409 H1401 0.930 . S
C1409 C1410 1.355 . S
C1409 C1411 1.415 . S
C1410 C1409 1.355 . S
C1410 C1412 1.419 . S
C1411 C1406 1.425 . S
C1411 C1408 1.409 . S
C1411 C1409 1.415 . S
C1412 H1402 0.930 . S
C1412 C1410 1.419 . S
C1412 C1413 1.362 . S
C1413 H1403 0.930 . S
C1413 C1406 1.409 . S
C1413 C1412 1.362 . S
H1414 C1420 0.930 . S
H1415 C1423 0.930 . S
H1416 C1424 0.930 . S
H1417 C1425 0.930 . S
H1418 C1428 0.930 . S
H1419 C1429 0.930 . S
C1420 H1414 0.930 . S
C1420 C1421 1.355 . S
C1420 C1422 1.415 . S
C1421 C1420 1.355 . S
C1421 C1423 1.419 . S
C1422 C1420 1.415 . S
C1422 C1427 1.425 . S
C1422 C1429 1.409 . S
C1423 H1415 0.930 . S
C1423 C1421 1.419 . S
C1423 C1424 1.362 . S
C1424 H1416 0.930 . S
C1424 C1423 1.362 . S
C1424 C1427 1.409 . S
C1425 H1417 0.930 . S
C1425 C1426 1.355 . S
C1425 C1427 1.415 . S
C1426 C1425 1.355 . S
C1426 C1428 1.419 . S
C1427 C1422 1.425 . S
C1427 C1424 1.409 . S
C1427 C1425 1.415 . S
C1428 H1418 0.930 . S
C1428 C1426 1.419 . S
C1428 C1429 1.362 . S
C1429 H1419 0.930 . S
C1429 C1422 1.409 . S
C1429 C1428 1.362 . S
H1430 C1436 0.930 . S
H1431 C1439 0.930 . S
H1432 C1440 0.930 . S
H1433 C1441 0.930 . S
H1434 C1444 0.930 . S
H1435 C1445 0.930 . S
C1436 H1430 0.930 . S
C1436 C1437 1.355 . S
C1436 C1438 1.415 . S
C1437 C1436 1.355 . S
C1437 C1439 1.419 . S
C1438 C1436 1.415 . S
C1438 C1443 1.425 . S
C1438 C1445 1.409 . S
C1439 H1431 0.930 . S
C1439 C1437 1.419 . S
C1439 C1440 1.362 . S
C1440 H1432 0.930 . S
C1440 C1439 1.362 . S
C1440 C1443 1.409 . S
C1441 H1433 0.930 . S
C1441 C1442 1.355 . S
C1441 C1443 1.415 . S
C1442 C1441 1.355 . S
C1442 C1444 1.419 . S
C1443 C1438 1.425 . S
C1443 C1440 1.409 . S
C1443 C1441 1.415 . S
C1444 H1434 0.930 . S
C1444 C1442 1.419 . S
C1444 C1445 1.362 . S
C1445 H1435 0.930 . S
C1445 C1438 1.409 . S
C1445 C1444 1.362 . S
H1446 C1452 0.930 . S
H1447 C1455 0.930 . S
H1448 C1456 0.930 . S
H1449 C1457 0.930 . S
H1450 C1460 0.930 . S
H1451 C1461 0.930 . S
C1452 H1446 0.930 . S
C1452 C1453 1.355 . S
C1452 C1454 1.415 . S
C1453 C1452 1.355 . S
C1453 C1455 1.419 . S
C1454 C1452 1.415 . S
C1454 C1459 1.425 . S
C1454 C1461 1.409 . S
C1455 H1447 0.930 . S
C1455 C1453 1.419 . S
C1455 C1456 1.362 . S
C1456 H1448 0.930 . S
C1456 C1455 1.362 . S
C1456 C1459 1.409 . S
C1457 H1449 0.930 . S
C1457 C1458 1.355 . S
C1457 C1459 1.415 . S
C1458 C1457 1.355 . S
C1458 C1460 1.419 . S
C1459 C1454 1.425 . S
C1459 C1456 1.409 . S
C1459 C1457 1.415 . S
C1460 H1450 0.930 . S
C1460 C1458 1.419 . S
C1460 C1461 1.362 . S
C1461 H1451 0.930 . S
C1461 C1454 1.409 . S
C1461 C1460 1.362 . S
H1462 C1468 0.930 . S
H1463 C1471 0.930 . S
H1464 C1472 0.930 . S
H1465 C1473 0.930 . S
H1466 C1476 0.930 . S
H1467 C1477 0.930 . S
C1468 H1462 0.930 . S
C1468 C1469 1.355 . S
C1468 C1470 1.415 . S
C1469 C1468 1.355 . S
C1469 C1471 1.419 . S
C1470 C1468 1.415 . S
C1470 C1475 1.425 . S
C1470 C1477 1.409 . S
C1471 H1463 0.930 . S
C1471 C1469 1.419 . S
C1471 C1472 1.362 . S
C1472 H1464 0.930 . S
C1472 C1471 1.362 . S
C1472 C1475 1.409 . S
C1473 H1465 0.930 . S
C1473 C1474 1.355 . S
C1473 C1475 1.415 . S
C1474 C1473 1.355 . S
C1474 C1476 1.419 . S
C1475 C1470 1.425 . S
C1475 C1472 1.409 . S
C1475 C1473 1.415 . S
C1476 H1466 0.930 . S
C1476 C1474 1.419 . S
C1476 C1477 1.362 . S
C1477 H1467 0.930 . S
C1477 C1470 1.409 . S
C1477 C1476 1.362 . S
H1478 C1484 0.930 . S
H1479 C1487 0.930 . S
H1480 C1488 0.930 . S
H1481 C1489 0.930 . S
H1482 C1492 0.930 . S
H1483 C1493 0.930 . S
C1484 H1478 0.930 . S
C1484 C1485 1.355 . S
C1484 C1486 1.415 . S
C1485 C1484 1.355 . S
C1485 C1487 1.419 . S
C1486 C1484 1.415 . S
C1486 C1491 1.425 . S
C1486 C1493 1.409 . S
C1487 H1479 0.930 . S
C1487 C1485 1.419 . S
C1487 C1488 1.362 . S
C1488 H1480 0.930 . S
C1488 C1487 1.362 . S
C1488 C1491 1.409 . S
C1489 H1481 0.930 . S
C1489 C1490 1.355 . S
C1489 C1491 1.415 . S
C1490 C1489 1.355 . S
C1490 C1492 1.419 . S
C1491 C1486 1.425 . S
C1491 C1488 1.409 . S
C1491 C1489 1.415 . S
C1492 H1482 0.930 . S
C1492 C1490 1.419 . S
C1492 C1493 1.362 . S
C1493 H1483 0.930 . S
C1493 C1486 1.409 . S
C1493 C1492 1.362 . S
H1494 C1500 0.930 . S
H1495 C1503 0.930 . S
H1496 C1504 0.930 . S
H1497 C1505 0.930 . S
H1498 C1508 0.930 . S
H1499 C1509 0.930 . S
C1500 H1494 0.930 . S
C1500 C1501 1.355 . S
C1500 C1502 1.415 . S
C1501 C1500 1.355 . S
C1501 C1503 1.419 . S
C1502 C1500 1.415 . S
C1502 C1507 1.425 1_554 S
C1502 C1509 1.409 1_554 S
C1503 H1495 0.930 . S
C1503 C1501 1.419 . S
C1503 C1504 1.362 . S
C1504 H1496 0.930 . S
C1504 C1503 1.362 . S
C1504 C1507 1.409 1_554 S
C1505 H1497 0.930 . S
C1505 C1506 1.355 . S
C1505 C1507 1.415 . S
C1506 C1505 1.355 . S
C1506 C1508 1.419 . S
C1507 C1502 1.425 1_556 S
C1507 C1504 1.409 1_556 S
C1507 C1505 1.415 . S
C1508 H1498 0.930 . S
C1508 C1506 1.419 . S
C1508 C1509 1.362 . S
C1509 H1499 0.930 . S
C1509 C1502 1.409 1_556 S
C1509 C1508 1.362 . S
H1510 C1516 0.930 . S
H1511 C1519 0.930 . S
H1512 C1520 0.930 . S
H1513 C1521 0.930 . S
H1514 C1524 0.930 . S
H1515 C1525 0.930 . S
C1516 H1510 0.930 . S
C1516 C1517 1.355 . S
C1516 C1518 1.415 . S
C1517 C1516 1.355 . S
C1517 C1519 1.419 1_545 S
C1518 C1516 1.415 . S
C1518 C1523 1.425 1_546 S
C1518 C1525 1.409 1_556 S
C1519 H1511 0.930 . S
C1519 C1517 1.419 1_565 S
C1519 C1520 1.362 . S
C1520 H1512 0.930 . S
C1520 C1519 1.362 . S
C1520 C1523 1.409 1_556 S
C1521 H1513 0.930 . S
C1521 C1522 1.355 . S
C1521 C1523 1.415 . S
C1522 C1521 1.355 . S
C1522 C1524 1.419 1_565 S
C1523 C1518 1.425 1_564 S
C1523 C1520 1.409 1_554 S
C1523 C1521 1.415 . S
C1524 H1514 0.930 . S
C1524 C1522 1.419 1_545 S
C1524 C1525 1.362 . S
C1525 H1515 0.930 . S
C1525 C1518 1.409 1_554 S
C1525 C1524 1.362 . S
H1526 C1532 0.930 . S
H1527 C1535 0.930 . S
H1528 C1536 0.921 . S
H1529 C1537 0.930 . S
H1530 C1540 0.930 . S
H1531 C1541 0.935 1_655 S
C1532 H1526 0.930 . S
C1532 C1533 1.355 . S
C1532 C1534 1.415 . S
C1533 C1532 1.355 . S
C1533 C1535 1.419 . S
C1534 C1532 1.415 . S
C1534 C1539 1.425 1_656 S
C1534 C1541 1.409 1_656 S
C1535 H1527 0.930 . S
C1535 C1533 1.419 . S
C1535 C1536 1.362 . S
C1536 H1528 0.921 . S
C1536 C1535 1.362 . S
C1536 C1539 1.409 1_656 S
C1537 H1529 0.930 . S
C1537 C1538 1.355 . S
C1537 C1539 1.415 . S
C1538 C1537 1.355 . S
C1538 C1540 1.419 . S
C1539 C1534 1.425 1_454 S
C1539 C1536 1.409 1_454 S
C1539 C1537 1.415 . S
C1540 H1530 0.930 . S
C1540 C1538 1.419 . S
C1540 C1541 1.362 . S
C1541 H1531 0.935 1_455 S
C1541 C1534 1.409 1_454 S
C1541 C1540 1.362 . S
H1542 C1548 0.930 . S
H1543 C1551 0.930 . S
H1544 C1552 0.930 . S
H1545 C1553 0.930 . S
H1546 C1556 0.930 . S
H1547 C1557 0.930 . S
C1548 H1542 0.930 . S
C1548 C1549 1.355 . S
C1548 C1550 1.415 . S
C1549 C1548 1.355 . S
C1549 C1551 1.419 . S
C1550 C1548 1.415 . S
C1550 C1555 1.425 . S
C1550 C1557 1.409 . S
C1551 H1543 0.930 . S
C1551 C1549 1.419 . S
C1551 C1552 1.362 . S
C1552 H1544 0.930 . S
C1552 C1551 1.362 . S
C1552 C1555 1.409 . S
C1553 H1545 0.930 . S
C1553 C1554 1.355 . S
C1553 C1555 1.415 . S
C1554 C1553 1.355 . S
C1554 C1556 1.419 . S
C1555 C1550 1.425 . S
C1555 C1552 1.409 . S
C1555 C1553 1.415 . S
C1556 H1546 0.930 . S
C1556 C1554 1.419 . S
C1556 C1557 1.362 . S
C1557 H1547 0.930 . S
C1557 C1550 1.409 . S
C1557 C1556 1.362 . S
H1558 C1564 0.930 . S
H1559 C1567 0.930 . S
H1560 C1568 0.930 . S
H1561 C1569 0.930 . S
H1562 C1572 0.930 . S
H1563 C1573 0.930 . S
C1564 H1558 0.930 . S
C1564 C1565 1.355 . S
C1564 C1566 1.415 . S
C1565 C1564 1.355 . S
C1565 C1567 1.419 . S
C1566 C1564 1.415 . S
C1566 C1571 1.425 . S
C1566 C1573 1.409 . S
C1567 H1559 0.930 . S
C1567 C1565 1.419 . S
C1567 C1568 1.362 . S
C1568 H1560 0.930 . S
C1568 C1567 1.362 . S
C1568 C1571 1.409 . S
C1569 H1561 0.930 . S
C1569 C1570 1.355 . S
C1569 C1571 1.415 . S
C1570 C1569 1.355 . S
C1570 C1572 1.419 . S
C1571 C1566 1.425 . S
C1571 C1568 1.409 . S
C1571 C1569 1.415 . S
C1572 H1562 0.930 . S
C1572 C1570 1.419 . S
C1572 C1573 1.362 . S
C1573 H1563 0.930 . S
C1573 C1566 1.409 . S
C1573 C1572 1.362 . S
H1574 C1580 0.930 . S
H1575 C1583 0.930 . S
H1576 C1584 0.930 . S
H1577 C1585 0.930 . S
H1578 C1588 0.930 . S
H1579 C1589 0.930 . S
C1580 H1574 0.930 . S
C1580 C1581 1.355 . S
C1580 C1582 1.415 . S
C1581 C1580 1.355 . S
C1581 C1583 1.419 . S
C1582 C1580 1.415 . S
C1582 C1587 1.425 . S
C1582 C1589 1.409 . S
C1583 H1575 0.930 . S
C1583 C1581 1.419 . S
C1583 C1584 1.362 . S
C1584 H1576 0.930 . S
C1584 C1583 1.362 . S
C1584 C1587 1.409 . S
C1585 H1577 0.930 . S
C1585 C1586 1.355 . S
C1585 C1587 1.415 . S
C1586 C1585 1.355 . S
C1586 C1588 1.419 . S
C1587 C1582 1.425 . S
C1587 C1584 1.409 . S
C1587 C1585 1.415 . S
C1588 H1578 0.930 . S
C1588 C1586 1.419 . S
C1588 C1589 1.362 . S
C1589 H1579 0.930 . S
C1589 C1582 1.409 . S
C1589 C1588 1.362 . S
H1590 C1596 0.930 . S
H1591 C1599 0.930 . S
H1592 C1600 0.930 . S
H1593 C1601 0.930 . S
H1594 C1604 0.930 . S
H1595 C1605 0.930 . S
C1596 H1590 0.930 . S
C1596 C1597 1.355 . S
C1596 C1598 1.415 . S
C1597 C1596 1.355 . S
C1597 C1599 1.419 . S
C1598 C1596 1.415 . S
C1598 C1603 1.425 . S
C1598 C1605 1.409 . S
C1599 H1591 0.930 . S
C1599 C1597 1.419 . S
C1599 C1600 1.362 . S
C1600 H1592 0.930 . S
C1600 C1599 1.362 . S
C1600 C1603 1.409 . S
C1601 H1593 0.930 . S
C1601 C1602 1.355 . S
C1601 C1603 1.415 . S
C1602 C1601 1.355 . S
C1602 C1604 1.419 . S
C1603 C1598 1.425 . S
C1603 C1600 1.409 . S
C1603 C1601 1.415 . S
C1604 H1594 0.930 . S
C1604 C1602 1.419 . S
C1604 C1605 1.362 . S
C1605 H1595 0.930 . S
C1605 C1598 1.409 . S
C1605 C1604 1.362 . S
H1606 C1612 0.930 . S
H1607 C1615 0.930 . S
H1608 C1616 0.930 . S
H1609 C1617 0.930 . S
H1610 C1620 0.930 . S
H1611 C1621 0.930 . S
C1612 H1606 0.930 . S
C1612 C1613 1.355 . S
C1612 C1614 1.415 . S
C1613 C1612 1.355 . S
C1613 C1615 1.419 . S
C1614 C1612 1.415 . S
C1614 C1619 1.425 . S
C1614 C1621 1.409 . S
C1615 H1607 0.930 . S
C1615 C1613 1.419 . S
C1615 C1616 1.362 . S
C1616 H1608 0.930 . S
C1616 C1615 1.362 . S
C1616 C1619 1.409 . S
C1617 H1609 0.930 . S
C1617 C1618 1.355 . S
C1617 C1619 1.415 . S
C1618 C1617 1.355 . S
C1618 C1620 1.419 . S
C1619 C1614 1.425 . S
C1619 C1616 1.409 . S
C1619 C1617 1.415 . S
C1620 H1610 0.930 . S
C1620 C1618 1.419 . S
C1620 C1621 1.362 . S
C1621 H1611 0.930 . S
C1621 C1614 1.409 . S
C1621 C1620 1.362 . S
H1622 C1628 0.930 . S
H1623 C1631 0.930 . S
H1624 C1632 0.930 . S
H1625 C1633 0.930 . S
H1626 C1636 0.930 . S
H1627 C1637 0.930 . S
C1628 H1622 0.930 . S
C1628 C1629 1.355 . S
C1628 C1630 1.415 . S
C1629 C1628 1.355 . S
C1629 C1631 1.419 . S
C1630 C1628 1.415 . S
C1630 C1635 1.425 . S
C1630 C1637 1.409 . S
C1631 H1623 0.930 . S
C1631 C1629 1.419 . S
C1631 C1632 1.362 . S
C1632 H1624 0.930 . S
C1632 C1631 1.362 . S
C1632 C1635 1.409 . S
C1633 H1625 0.930 . S
C1633 C1634 1.355 . S
C1633 C1635 1.415 . S
C1634 C1633 1.355 . S
C1634 C1636 1.419 . S
C1635 C1630 1.425 . S
C1635 C1632 1.409 . S
C1635 C1633 1.415 . S
C1636 H1626 0.930 . S
C1636 C1634 1.419 . S
C1636 C1637 1.362 . S
C1637 H1627 0.930 . S
C1637 C1630 1.409 . S
C1637 C1636 1.362 . S
C1069 C595 1.245 . S
C1074 C5 1.222 . S
C1085 C64 1.206 . S
C1090 C654 1.226 . S
C1101 C536 1.212 . S
C1106 C123 1.201 . S
C1117 C831 1.255 . S
C1122 C182 1.249 . S
C1133 C241 1.216 . S
C1138 C713 1.240 . S
C1149 C772 1.213 . S
C1154 C300 1.236 . S
C1165 C359 1.202 . S
C1170 C949 1.217 . S
C1181 C1008 1.209 . S
C1186 C418 1.231 . S
C1197 C477 1.205 . S
C1202 C890 1.203 . S
C1213 C52 1.347 . S
C1218 C92 1.319 . S
C1229 C111 1.308 . S
C1234 C151 1.281 . S
C1245 C33 1.291 . S
C1250 C170 1.357 . S
C1261 C328 1.333 . S
C1266 C229 1.333 . S
C1277 C210 1.330 . S
C1282 C288 1.313 . S
C1293 C347 1.354 . S
C1298 C269 1.256 . S
C1309 C406 1.355 . S
C1314 C446 1.299 . S
C1325 C465 1.337 . S
C1330 C505 1.244 . S
C1341 C387 1.293 . S
C1346 C524 1.356 . S
C1357 C682 1.271 . S
C1362 C583 1.311 . S
C1373 C564 1.335 . S
C1378 C642 1.323 . S
C1389 C623 1.308 . S
C1394 C701 1.305 . S
C1405 C800 1.326 . S
C1410 C760 1.309 . S
C1421 C859 1.327 . S
C1426 C819 1.311 . S
C1437 C741 1.245 . S
C1442 C878 1.344 . S
C1453 C937 1.331 . S
C1458 C1036 1.246 . S
C1469 C996 1.304 . S
C1474 C918 1.305 . S
C1485 C1055 1.358 . S
C1490 C977 1.280 . S
C1501 C3 1.840 . S
C1506 C180 1.796 . S
C1517 C239 1.810 . S
C1522 C62 1.812 . S
C1533 C298 1.805 . S
C1538 C121 1.855 . S
C1549 C534 1.854 . S
C1554 C357 1.822 . S
C1565 C593 1.837 . S
C1570 C416 1.796 . S
C1581 C475 1.829 . S
C1586 C652 1.798 . S
C1597 C888 1.853 . S
C1602 C711 1.800 . S
C1613 C947 1.853 . S
C1618 C770 1.824 . S
C1629 C1006 1.803 . S
C1634 C829 1.855 . S
