# Generated by pormake.
# Topology umf, (4)-cn, num edge types: 1
# Building blocks:
#     Node 0, Type 0, BuildingBlock: ICAMEG_clean_sbu_1, # of connection points: 4
#     Node 1, Type 0, BuildingBlock: ICAMEG_clean_sbu_1, # of connection points: 4
#     Node 2, Type 0, BuildingBlock: ICAMEG_clean_sbu_1, # of connection points: 4
#     Node 3, Type 0, BuildingBlock: ICAMEG_clean_sbu_1, # of connection points: 4
#     Node 4, Type 0, BuildingBlock: ICAMEG_clean_sbu_1, # of connection points: 4
#     Node 5, Type 0, BuildingBlock: ICAMEG_clean_sbu_1, # of connection points: 4
#     Node 6, Type 0, BuildingBlock: ICAMEG_clean_sbu_1, # of connection points: 4
#     Node 7, Type 0, BuildingBlock: ICAMEG_clean_sbu_1, # of connection points: 4
#     Edge 8, Type (0, 0), BuildingBlock: CIFDUS_clean_linker_0, # of connection points: 2
#     Edge 9, Type (0, 0), BuildingBlock: CIFDUS_clean_linker_0, # of connection points: 2
#     Edge 10, Type (0, 0), BuildingBlock: CIFDUS_clean_linker_0, # of connection points: 2
#     Edge 11, Type (0, 0), BuildingBlock: CIFDUS_clean_linker_0, # of connection points: 2
#     Edge 12, Type (0, 0), BuildingBlock: CIFDUS_clean_linker_0, # of connection points: 2
#     Edge 13, Type (0, 0), BuildingBlock: CIFDUS_clean_linker_0, # of connection points: 2
#     Edge 14, Type (0, 0), BuildingBlock: CIFDUS_clean_linker_0, # of connection points: 2
#     Edge 15, Type (0, 0), BuildingBlock: CIFDUS_clean_linker_0, # of connection points: 2
#     Edge 16, Type (0, 0), BuildingBlock: CIFDUS_clean_linker_0, # of connection points: 2
#     Edge 17, Type (0, 0), BuildingBlock: CIFDUS_clean_linker_0, # of connection points: 2
#     Edge 18, Type (0, 0), BuildingBlock: CIFDUS_clean_linker_0, # of connection points: 2
#     Edge 19, Type (0, 0), BuildingBlock: CIFDUS_clean_linker_0, # of connection points: 2
#     Edge 20, Type (0, 0), BuildingBlock: CIFDUS_clean_linker_0, # of connection points: 2
#     Edge 21, Type (0, 0), BuildingBlock: CIFDUS_clean_linker_0, # of connection points: 2
#     Edge 22, Type (0, 0), BuildingBlock: CIFDUS_clean_linker_0, # of connection points: 2
#     Edge 23, Type (0, 0), BuildingBlock: CIFDUS_clean_linker_0, # of connection points: 2
# Relax obj value: 0.111
# Max RMSD: 0.201
# Mean RMSD: 0.201
data_MOF--net-umf--node1-ICAMEG_clean_sbu_1--edge1-CIFDUS_clean_linker_0
_symmetry_space_group_name_H-M    P1
_symmetry_Int_Tables_number       1
_symmetry_cell_setting            triclinic
loop_
_symmetry_equiv_pos_as_xyz
'x, y, z'
_cell_length_a     26.350085
_cell_length_b     26.345748
_cell_length_c     50.400876
_cell_angle_alpha  89.993112
_cell_angle_beta   90.006926
_cell_angle_gamma 89.96531
loop_
_atom_site_label
_atom_site_type_symbol
_atom_site_fract_x
_atom_site_fract_y
_atom_site_fract_z
_atom_type_partial_charge
Co0 Co 0.09202 0.23091 0.13531 0.0
Co1 Co 0.98482 0.25938 0.17206 0.0
O2 O 0.03357 0.27328 0.14392 0.0
C3 C 0.03176 0.23478 0.08619 0.0
O4 O 0.99218 0.22612 0.10132 0.0
C5 C 0.02497 0.36125 0.18403 0.0
O6 O 0.0705 0.34164 0.18136 0.0
O7 O 0.0404 0.24531 0.19792 0.0
O8 O 0.10846 0.22193 0.1738 0.0
H9 H 0.91037 0.1602 0.24782 0.0
H10 H 0.0806 0.33188 0.11 0.0
O11 O 0.07581 0.23835 0.09654 0.0
H12 H 0.24239 0.33955 0.15902 0.0
H13 H 0.24599 0.18357 0.08163 0.0
H14 H 0.13593 0.13556 0.15665 0.0
H15 H 0.19121 0.26116 0.15892 0.0
H16 H 0.17238 0.2366 0.09385 0.0
O17 O 0.98593 0.33305 0.18189 0.0
H18 H 0.97178 0.1778 0.21201 0.0
H19 H 0.89391 0.31409 0.19272 0.0
H20 H 0.20933 0.08165 0.14529 0.0
H21 H 0.13068 0.41096 0.10946 0.0
H22 H 0.26496 0.10558 0.10751 0.0
H23 H 0.21215 0.41516 0.13416 0.0
O24 O 0.05036 0.16816 0.13657 0.0
H25 H 0.89775 0.3572 0.09952 0.0
H26 H 0.88857 0.20677 0.15752 0.0
H27 H 0.82107 0.22164 0.12451 0.0
H28 H 0.82542 0.29734 0.09522 0.0
H29 H 0.96469 0.34054 0.1326 0.0
H30 H 0.83201 0.29829 0.22852 0.0
H31 H 0.83991 0.22074 0.25626 0.0
O32 O 0.98267 0.1858 0.16226 0.0
C33 C 0.08595 0.22911 0.19593 0.0
C34 C 0.90646 0.19406 0.23582 0.0
C35 C 0.86252 0.27159 0.22501 0.0
N36 N 0.93616 0.24669 0.20016 0.0
C37 C 0.94101 0.20414 0.21546 0.0
C38 C 0.89775 0.28041 0.20482 0.0
C39 C 0.86695 0.22806 0.24056 0.0
C40 C 0.11625 0.33328 0.12058 0.0
N41 N 0.13313 0.2919 0.13434 0.0
C42 C 0.14434 0.37822 0.12029 0.0
C43 C 0.19001 0.38057 0.13419 0.0
C44 C 0.20699 0.33817 0.14816 0.0
C45 C 0.17783 0.29392 0.14806 0.0
C46 C 0.22212 0.17282 0.09818 0.0
C47 C 0.1602 0.14641 0.14033 0.0
C48 C 0.18036 0.20264 0.10516 0.0
N49 N 0.15022 0.18942 0.12611 0.0
C50 C 0.2016 0.11565 0.13393 0.0
C51 C 0.23275 0.12907 0.11271 0.0
C52 C 0.00949 0.15543 0.14835 0.0
C53 C 0.89539 0.32411 0.11219 0.0
C54 C 0.89084 0.23962 0.14476 0.0
C55 C 0.85242 0.24796 0.12617 0.0
C56 C 0.85486 0.29047 0.10976 0.0
N57 N 0.93056 0.27268 0.14697 0.0
C58 C 0.93308 0.31458 0.13103 0.0
Co59 Co 0.77255 0.0986 0.63875 0.0
Co60 Co 0.74319 0.98836 0.67275 0.0
O61 O 0.73003 0.03951 0.64567 0.0
C62 C 0.77115 0.04137 0.58878 0.0
O63 O 0.77938 0.00134 0.60365 0.0
C64 C 0.64117 0.02783 0.68478 0.0
O65 O 0.66084 0.0735 0.68318 0.0
O66 O 0.7566 0.04163 0.69994 0.0
O67 O 0.77949 0.11217 0.6777 0.0
H68 H 0.84021 0.90736 0.74744 0.0
H69 H 0.67287 0.08881 0.61193 0.0
O70 O 0.76702 0.08505 0.59952 0.0
H71 H 0.66226 0.247 0.66393 0.0
H72 H 0.822 0.25637 0.58876 0.0
H73 H 0.86652 0.14116 0.6623 0.0
H74 H 0.7408 0.19597 0.66388 0.0
H75 H 0.76869 0.1818 0.59879 0.0
O76 O 0.66938 0.98891 0.68207 0.0
H77 H 0.82358 0.97181 0.71298 0.0
H78 H 0.68788 0.89588 0.69088 0.0
H79 H 0.92066 0.21546 0.65313 0.0
H80 H 0.59366 0.13879 0.61132 0.0
H81 H 0.89849 0.27368 0.61612 0.0
H82 H 0.58799 0.21844 0.63751 0.0
O83 O 0.83542 0.05704 0.63996 0.0
H84 H 0.64725 0.90802 0.5975 0.0
H85 H 0.79599 0.89321 0.65636 0.0
H86 H 0.78197 0.82876 0.62164 0.0
H87 H 0.70714 0.83598 0.59189 0.0
H88 H 0.66304 0.97188 0.63229 0.0
H89 H 0.70273 0.83091 0.72529 0.0
H90 H 0.77955 0.83625 0.75373 0.0
O91 O 0.81696 0.98677 0.66346 0.0
C92 C 0.77201 0.08757 0.69922 0.0
C93 C 0.8067 0.90452 0.7351 0.0
C94 C 0.7295 0.86165 0.72269 0.0
N95 N 0.75507 0.93733 0.69979 0.0
C96 C 0.79717 0.9408 0.71551 0.0
C97 C 0.72122 0.89862 0.70329 0.0
C98 C 0.77262 0.86466 0.73864 0.0
C99 C 0.67083 0.12368 0.62317 0.0
N100 N 0.71147 0.13964 0.63778 0.0
C101 C 0.62583 0.15171 0.62284 0.0
C102 C 0.62264 0.19636 0.63757 0.0
C103 C 0.66429 0.2124 0.65241 0.0
C104 C 0.70863 0.18332 0.65233 0.0
C105 C 0.83198 0.23137 0.60499 0.0
C106 C 0.85642 0.16655 0.6463 0.0
C107 C 0.80199 0.18906 0.61073 0.0
N108 N 0.81424 0.15749 0.63127 0.0
C109 C 0.88731 0.20846 0.64114 0.0
C110 C 0.87488 0.24106 0.62035 0.0
C111 C 0.84782 0.01497 0.65067 0.0
C112 C 0.67997 0.90443 0.61035 0.0
C113 C 0.7635 0.89671 0.64342 0.0
C114 C 0.75564 0.86002 0.62385 0.0
C115 C 0.71362 0.86406 0.60719 0.0
N116 N 0.73044 0.9363 0.64634 0.0
C117 C 0.689 0.94036 0.63016 0.0
Co118 Co 0.88418 0.78081 0.12858 0.0
Co119 Co 0.98683 0.7545 0.16918 0.0
O120 O 0.94161 0.73912 0.13966 0.0
C121 C 0.94951 0.77465 0.08135 0.0
O122 O 0.98749 0.78421 0.09743 0.0
C123 C 0.94542 0.65323 0.18132 0.0
O124 O 0.90027 0.67267 0.17705 0.0
O125 O 0.92828 0.76999 0.19299 0.0
O126 O 0.86346 0.79207 0.16625 0.0
H127 H 0.05214 0.8577 0.24576 0.0
H128 H 0.89871 0.67849 0.10528 0.0
O129 O 0.90454 0.77126 0.09051 0.0
H130 H 0.73202 0.67267 0.14964 0.0
H131 H 0.73626 0.82393 0.06954 0.0
H132 H 0.83767 0.87726 0.14686 0.0
H133 H 0.78265 0.75142 0.14964 0.0
H134 H 0.80853 0.77209 0.08491 0.0
O135 O 0.98463 0.68137 0.17999 0.0
H136 H 0.99495 0.83801 0.20838 0.0
H137 H 0.07534 0.7012 0.19345 0.0
H138 H 0.76556 0.93012 0.13231 0.0
H139 H 0.84924 0.59902 0.1047 0.0
H140 H 0.71426 0.90348 0.09337 0.0
H141 H 0.76533 0.59575 0.12707 0.0
O142 O 0.92555 0.84389 0.13027 0.0
H143 H 0.08288 0.65294 0.10129 0.0
H144 H 0.08428 0.80692 0.15688 0.0
H145 H 0.15577 0.79044 0.12648 0.0
H146 H 0.15535 0.71293 0.09842 0.0
H147 H 0.01193 0.67121 0.13174 0.0
H148 H 0.13313 0.71918 0.23081 0.0
H149 H 0.12186 0.79809 0.25716 0.0
O150 O 0.99 0.82742 0.15844 0.0
C151 C 0.88322 0.78643 0.18919 0.0
C152 C 0.05753 0.82329 0.23438 0.0
C153 C 0.10294 0.7455 0.22601 0.0
N154 N 0.03208 0.76873 0.19862 0.0
C155 C 0.02536 0.81201 0.21315 0.0
C156 C 0.07003 0.73545 0.20492 0.0
C157 C 0.09662 0.78979 0.24078 0.0
C158 C 0.86198 0.6775 0.11481 0.0
N159 N 0.84342 0.7196 0.12732 0.0
C160 C 0.83425 0.63234 0.11452 0.0
C161 C 0.7872 0.63051 0.12711 0.0
C162 C 0.7685 0.67365 0.13979 0.0
C163 C 0.79735 0.71811 0.13974 0.0
C164 C 0.75824 0.83588 0.08657 0.0
C165 C 0.81535 0.86531 0.13001 0.0
C166 C 0.79924 0.80673 0.09533 0.0
N167 N 0.827 0.82146 0.11691 0.0
C168 C 0.77464 0.89544 0.12182 0.0
C169 C 0.74591 0.8805 0.09995 0.0
C170 C 0.96491 0.85709 0.1433 0.0
C171 C 0.08353 0.6868 0.11344 0.0
C172 C 0.08374 0.77325 0.14465 0.0
C173 C 0.12439 0.76403 0.12754 0.0
C174 C 0.12415 0.72051 0.11182 0.0
N175 N 0.04399 0.74007 0.1461 0.0
C176 C 0.04356 0.69724 0.13081 0.0
Co177 Co 0.22141 0.88845 0.6247 0.0
Co178 Co 0.24857 0.99019 0.66572 0.0
O179 O 0.26324 0.94578 0.63574 0.0
C180 C 0.22647 0.95435 0.57743 0.0
O181 O 0.21708 0.99262 0.59337 0.0
C182 C 0.3499 0.94842 0.6771 0.0
O183 O 0.33054 0.90344 0.67233 0.0
O184 O 0.234 0.93101 0.68926 0.0
O185 O 0.21164 0.86679 0.66227 0.0
H186 H 0.14761 0.05276 0.74374 0.0
H187 H 0.32301 0.90369 0.60069 0.0
O188 O 0.22983 0.90947 0.58672 0.0
H189 H 0.33036 0.7357 0.64369 0.0
H190 H 0.1764 0.74182 0.56518 0.0
H191 H 0.12596 0.84118 0.64377 0.0
H192 H 0.25161 0.78635 0.64477 0.0
H193 H 0.22866 0.81378 0.58046 0.0
O194 O 0.32182 0.98772 0.67606 0.0
H195 H 0.16614 0.99702 0.7056 0.0
H196 H 0.30225 0.07813 0.69024 0.0
H197 H 0.07273 0.76936 0.62931 0.0
H198 H 0.40246 0.8542 0.59901 0.0
H199 H 0.09789 0.7191 0.58973 0.0
H200 H 0.4065 0.76963 0.62069 0.0
O201 O 0.15827 0.92972 0.62714 0.0
H202 H 0.34802 0.08817 0.5978 0.0
H203 H 0.19554 0.08787 0.6545 0.0
H204 H 0.21102 0.16018 0.62448 0.0
H205 H 0.28777 0.16062 0.59587 0.0
H206 H 0.33077 0.01641 0.62789 0.0
H207 H 0.28542 0.13447 0.72835 0.0
H208 H 0.20751 0.12205 0.75533 0.0
O209 O 0.17549 0.99357 0.65554 0.0
C210 C 0.21805 0.88587 0.68529 0.0
C211 C 0.1816 0.05864 0.73209 0.0
C212 C 0.25899 0.10446 0.72347 0.0
N213 N 0.235 0.03459 0.69559 0.0
C214 C 0.19223 0.0273 0.71043 0.0
C215 C 0.26839 0.07237 0.70196 0.0
C216 C 0.21525 0.09749 0.73859 0.0
C217 C 0.32434 0.86669 0.60993 0.0
N218 N 0.28266 0.84779 0.62266 0.0
C219 C 0.36948 0.83894 0.60901 0.0
C220 C 0.37175 0.79152 0.62122 0.0
C221 C 0.32904 0.77247 0.63414 0.0
C222 C 0.28459 0.80134 0.63471 0.0
C223 C 0.16508 0.76337 0.58248 0.0
C224 C 0.13726 0.81935 0.62662 0.0
C225 C 0.19446 0.80421 0.59119 0.0
N226 N 0.18051 0.83144 0.61309 0.0
C227 C 0.10693 0.77878 0.61848 0.0
C228 C 0.12104 0.75063 0.59627 0.0
C229 C 0.14546 0.96884 0.64048 0.0
C230 C 0.31449 0.08846 0.6102 0.0
C231 C 0.22889 0.08771 0.64203 0.0
C232 C 0.23755 0.12882 0.62513 0.0
C233 C 0.28064 0.12906 0.6091 0.0
N234 N 0.26222 0.04799 0.64296 0.0
C235 C 0.30463 0.04802 0.62736 0.0
Co236 Co 0.11155 0.7813 0.88432 0.0
Co237 Co 0.01725 0.74629 0.84082 0.0
O238 O 0.05769 0.73574 0.87276 0.0
C239 C 0.04449 0.77378 0.93089 0.0
O240 O 0.00668 0.78204 0.91448 0.0
C241 C 0.05694 0.64235 0.83528 0.0
O242 O 0.10216 0.66141 0.83979 0.0
O243 O 0.07942 0.75489 0.81893 0.0
O244 O 0.13407 0.79282 0.84683 0.0
H245 H 0.96738 0.83312 0.75591 0.0
H246 H 0.10295 0.6791 0.90847 0.0
O247 O 0.08978 0.77152 0.9221 0.0
H248 H 0.27248 0.68363 0.86711 0.0
H249 H 0.25273 0.8369 0.94497 0.0
H250 H 0.15113 0.88071 0.86604 0.0
H251 H 0.21624 0.75844 0.86524 0.0
H252 H 0.18549 0.77931 0.92905 0.0
O253 O 0.01835 0.67142 0.83434 0.0
H254 H 0.0188 0.81983 0.79622 0.0
H255 H 0.92961 0.69151 0.81678 0.0
H256 H 0.21822 0.93921 0.88114 0.0
H257 H 0.15808 0.60352 0.91096 0.0
H258 H 0.26958 0.91741 0.92088 0.0
H259 H 0.24346 0.60546 0.89011 0.0
O260 O 0.0657 0.84087 0.88136 0.0
H261 H 0.90707 0.6618 0.90919 0.0
H262 H 0.92135 0.80542 0.84687 0.0
H263 H 0.845 0.79746 0.87486 0.0
H264 H 0.83749 0.7252 0.90628 0.0
H265 H 0.98298 0.67148 0.88103 0.0
H266 H 0.87746 0.70315 0.77657 0.0
H267 H 0.89597 0.77465 0.74593 0.0
O268 O 0.01554 0.82133 0.84674 0.0
C269 C 0.12047 0.77897 0.82362 0.0
C270 C 0.95876 0.802 0.76918 0.0
C271 C 0.90833 0.72901 0.78076 0.0
N272 N 0.9768 0.75535 0.80901 0.0
C273 C 0.98764 0.79438 0.79208 0.0
C274 C 0.93805 0.72255 0.80347 0.0
C275 C 0.91875 0.76913 0.76357 0.0
C276 C 0.14027 0.68039 0.8996 0.0
N277 N 0.15649 0.72319 0.88687 0.0
C278 C 0.17122 0.63741 0.90097 0.0
C279 C 0.21909 0.6385 0.88922 0.0
C280 C 0.23538 0.68234 0.8763 0.0
C281 C 0.20335 0.72455 0.87527 0.0
C282 C 0.23073 0.84674 0.92758 0.0
C283 C 0.1736 0.87077 0.88322 0.0
C284 C 0.19259 0.81431 0.91849 0.0
N285 N 0.16486 0.82637 0.89645 0.0
C286 C 0.21141 0.90413 0.89173 0.0
C287 C 0.24017 0.8919 0.91405 0.0
C288 C 0.03307 0.8527 0.86372 0.0
C289 C 0.90983 0.69336 0.89552 0.0
C290 C 0.91843 0.77395 0.86054 0.0
C291 C 0.87505 0.76957 0.8763 0.0
C292 C 0.87084 0.72899 0.89391 0.0
N293 N 0.95649 0.73881 0.86222 0.0
C294 C 0.95262 0.69891 0.87942 0.0
Co295 Co 0.22976 0.10123 0.37664 0.0
Co296 Co 0.25698 0.99252 0.34083 0.0
O297 O 0.2715 0.04215 0.36844 0.0
C298 C 0.23259 0.04166 0.42579 0.0
O299 O 0.22371 0.00237 0.4105 0.0
C300 C 0.35888 0.03191 0.32834 0.0
O301 O 0.3393 0.07756 0.33047 0.0
O302 O 0.24268 0.04728 0.31452 0.0
O303 O 0.22096 0.11671 0.33804 0.0
H304 H 0.15628 0.9156 0.2663 0.0
H305 H 0.33047 0.08923 0.40212 0.0
O306 O 0.23684 0.08576 0.41556 0.0
H307 H 0.34045 0.24939 0.35174 0.0
H308 H 0.18447 0.25726 0.42916 0.0
H309 H 0.13479 0.14559 0.3551 0.0
H310 H 0.26131 0.19937 0.3523 0.0
H311 H 0.23649 0.1826 0.4175 0.0
O312 O 0.33056 0.99301 0.33077 0.0
H313 H 0.17477 0.97837 0.30135 0.0
H314 H 0.31106 0.90069 0.32081 0.0
H315 H 0.08188 0.22002 0.3659 0.0
H316 H 0.41029 0.13815 0.4022 0.0
H317 H 0.10666 0.27647 0.40319 0.0
H318 H 0.41565 0.21877 0.37681 0.0
O319 O 0.16651 0.0603 0.37561 0.0
H320 H 0.35543 0.90751 0.41382 0.0
H321 H 0.20417 0.89701 0.35649 0.0
H322 H 0.21917 0.83062 0.3901 0.0
H323 H 0.29528 0.83566 0.41907 0.0
H324 H 0.33864 0.97336 0.38017 0.0
H325 H 0.29437 0.83744 0.28578 0.0
H326 H 0.21634 0.84453 0.25835 0.0
O327 O 0.18354 0.99103 0.35095 0.0
C328 C 0.2272 0.09316 0.31611 0.0
C329 C 0.19033 0.91204 0.27818 0.0
C330 C 0.26787 0.8682 0.28908 0.0
N331 N 0.24371 0.94293 0.31324 0.0
C332 C 0.20092 0.94736 0.2981 0.0
C333 C 0.2772 0.9042 0.30884 0.0
C334 C 0.22407 0.87219 0.27371 0.0
C335 C 0.33238 0.12455 0.39126 0.0
N336 N 0.29123 0.14162 0.37737 0.0
C337 C 0.37772 0.15197 0.39128 0.0
C338 C 0.38073 0.19717 0.37699 0.0
C339 C 0.33856 0.21435 0.36291 0.0
C340 C 0.29388 0.18586 0.36328 0.0
C341 C 0.17336 0.23304 0.41282 0.0
C342 C 0.14602 0.17021 0.37119 0.0
C343 C 0.20262 0.1907 0.40615 0.0
N344 N 0.18896 0.16014 0.38544 0.0
C345 C 0.11582 0.21219 0.37729 0.0
C346 C 0.12971 0.24381 0.39824 0.0
C347 C 0.15342 0.01889 0.36445 0.0
C348 C 0.32216 0.90487 0.4013 0.0
C349 C 0.23722 0.89957 0.3691 0.0
C350 C 0.24563 0.86178 0.38804 0.0
C351 C 0.28836 0.8646 0.40426 0.0
N352 N 0.27044 0.93904 0.36637 0.0
C353 C 0.31256 0.94193 0.38213 0.0
Co354 Co 0.89381 0.22699 0.88384 0.0
Co355 Co 0.00227 0.24902 0.84725 0.0
O356 O 0.95408 0.26637 0.87512 0.0
C357 C 0.95189 0.23246 0.93343 0.0
O358 O 0.99125 0.22032 0.9188 0.0
C359 C 0.96912 0.35279 0.83497 0.0
O360 O 0.92261 0.33526 0.8367 0.0
O361 O 0.94658 0.23982 0.82117 0.0
O362 O 0.879 0.21475 0.84519 0.0
H363 H 0.07069 0.14658 0.77108 0.0
H364 H 0.907 0.32974 0.90672 0.0
O365 O 0.90834 0.23758 0.92265 0.0
H366 H 0.74853 0.33807 0.85484 0.0
H367 H 0.7352 0.19003 0.93597 0.0
H368 H 0.84844 0.13094 0.86444 0.0
H369 H 0.79701 0.25812 0.85784 0.0
H370 H 0.81135 0.23926 0.92374 0.0
O371 O 0.00668 0.32281 0.83787 0.0
H372 H 0.00989 0.16784 0.80663 0.0
H373 H 0.09774 0.29676 0.82777 0.0
H374 H 0.77245 0.08078 0.87581 0.0
H375 H 0.85959 0.4104 0.90438 0.0
H376 H 0.71523 0.1103 0.91182 0.0
H377 H 0.77982 0.41493 0.87822 0.0
O378 O 0.93375 0.16328 0.88509 0.0
H379 H 0.09631 0.33894 0.92017 0.0
H380 H 0.09218 0.18712 0.86298 0.0
H381 H 0.15988 0.19589 0.89646 0.0
H382 H 0.16221 0.27223 0.92535 0.0
H383 H 0.02901 0.32843 0.88662 0.0
H384 H 0.15925 0.27717 0.79229 0.0
H385 H 0.14598 0.20148 0.76373 0.0
O386 O 0.99825 0.17513 0.85635 0.0
C387 C 0.90134 0.22298 0.82306 0.0
C388 C 0.07695 0.17958 0.78345 0.0
C389 C 0.12663 0.25291 0.79533 0.0
N390 N 0.05052 0.23323 0.81939 0.0
C391 C 0.04274 0.19172 0.80366 0.0
C392 C 0.09163 0.26388 0.81535 0.0
C393 C 0.11918 0.21042 0.77932 0.0
C394 C 0.87204 0.33131 0.89553 0.0
N395 N 0.85462 0.28925 0.88256 0.0
C396 C 0.84548 0.37712 0.89418 0.0
C397 C 0.80076 0.37966 0.87946 0.0
C398 C 0.7832 0.33655 0.86633 0.0
C399 C 0.81084 0.29142 0.86807 0.0
C400 C 0.75975 0.17686 0.92018 0.0
C401 C 0.82346 0.14423 0.87997 0.0
C402 C 0.80293 0.20453 0.9132 0.0
N403 N 0.8339 0.18827 0.89318 0.0
C404 C 0.78061 0.11558 0.88639 0.0
C405 C 0.74856 0.13213 0.90662 0.0
C406 C 0.97205 0.14765 0.87206 0.0
C407 C 0.09579 0.30558 0.90764 0.0
C408 C 0.09292 0.22044 0.87548 0.0
C409 C 0.1314 0.22523 0.89438 0.0
C410 C 0.1327 0.2681 0.91057 0.0
N411 N 0.05681 0.25734 0.87275 0.0
C412 C 0.05793 0.29954 0.88851 0.0
Co413 Co 0.77996 0.89411 0.38861 0.0
Co414 Co 0.7521 0.99553 0.34749 0.0
O415 O 0.73762 0.951 0.37744 0.0
C416 C 0.77364 0.95931 0.4362 0.0
O417 O 0.78308 0.99796 0.42052 0.0
C418 C 0.65083 0.95339 0.336 0.0
O419 O 0.67045 0.90845 0.34066 0.0
O420 O 0.76719 0.93648 0.32393 0.0
O421 O 0.79109 0.87292 0.35103 0.0
H422 H 0.85322 0.05926 0.26979 0.0
H423 H 0.67769 0.9078 0.41208 0.0
O424 O 0.77042 0.91464 0.42661 0.0
H425 H 0.6735 0.74026 0.36851 0.0
H426 H 0.82534 0.74747 0.44811 0.0
H427 H 0.87663 0.84828 0.37021 0.0
H428 H 0.75157 0.79191 0.36803 0.0
H429 H 0.7725 0.81888 0.43259 0.0
O430 O 0.67877 0.99278 0.33709 0.0
H431 H 0.83469 0.00302 0.30773 0.0
H432 H 0.6979 0.08323 0.32295 0.0
H433 H 0.93049 0.77704 0.3849 0.0
H434 H 0.59889 0.85732 0.41316 0.0
H435 H 0.90489 0.72604 0.42415 0.0
H436 H 0.59644 0.77296 0.39119 0.0
O437 O 0.84253 0.93619 0.38664 0.0
H438 H 0.65171 0.09286 0.41534 0.0
H439 H 0.80435 0.09354 0.35876 0.0
H440 H 0.78819 0.16579 0.38872 0.0
H441 H 0.71135 0.16574 0.41727 0.0
H442 H 0.66965 0.02117 0.3853 0.0
H443 H 0.7147 0.14004 0.28502 0.0
H444 H 0.79299 0.12836 0.25824 0.0
O445 O 0.82524 -0.00078 0.35773 0.0
C446 C 0.78441 0.89179 0.32797 0.0
C447 C 0.81906 0.06482 0.28136 0.0
C448 C 0.74128 0.11011 0.28989 0.0
N449 N 0.76548 0.04011 0.31766 0.0
C450 C 0.80844 0.03319 0.3029 0.0
C451 C 0.73189 0.07775 0.31129 0.0
C452 C 0.78523 0.10356 0.27487 0.0
C453 C 0.67705 0.8709 0.40271 0.0
N454 N 0.71923 0.85267 0.39016 0.0
C455 C 0.63227 0.84259 0.40329 0.0
C456 C 0.6309 0.79529 0.39093 0.0
C457 C 0.67412 0.77693 0.37819 0.0
C458 C 0.71818 0.80636 0.37795 0.0
C459 C 0.83685 0.76934 0.43096 0.0
C460 C 0.86514 0.82611 0.38719 0.0
C461 C 0.80714 0.80987 0.42211 0.0
N462 N 0.82133 0.8375 0.40039 0.0
C463 C 0.89583 0.78588 0.39547 0.0
C464 C 0.88148 0.75733 0.4175 0.0
C465 C 0.85529 0.97505 0.37308 0.0
C466 C 0.68529 0.09335 0.40297 0.0
C467 C 0.771 0.09315 0.37121 0.0
C468 C 0.76194 0.13423 0.38807 0.0
C469 C 0.7188 0.1342 0.40407 0.0
N470 N 0.73799 0.0532 0.37027 0.0
C471 C 0.69555 0.05295 0.38585 0.0
H472 H 0.93644 0.41426 0.18631 0.0
H473 H 0.0992 0.43339 0.18758 0.0
H474 H 0.0887 0.52544 0.18854 0.0
H475 H 0.03361 0.60038 0.1865 0.0
H476 H 0.87091 0.58122 0.18383 0.0
H477 H 0.88126 0.48923 0.1861 0.0
C478 C 0.96968 0.43849 0.18705 0.0
C479 C 0.01856 0.41685 0.18683 0.0
C480 C 0.96342 0.49141 0.18725 0.0
C481 C 0.06113 0.44893 0.18774 0.0
C482 C 0.05518 0.50163 0.18823 0.0
C483 C 0.00032 0.57617 0.18667 0.0
C484 C 0.95153 0.59778 0.18496 0.0
C485 C 0.00653 0.52327 0.18762 0.0
C486 C 0.90891 0.56571 0.18514 0.0
C487 C 0.91478 0.51305 0.18638 0.0
H488 H 0.4022 0.03621 0.68444 0.0
H489 H 0.42192 0.87379 0.67886 0.0
H490 H 0.51374 0.88405 0.68249 0.0
H491 H 0.5884 0.93923 0.68476 0.0
H492 H 0.56881 0.10182 0.68894 0.0
H493 H 0.47677 0.0912 0.68851 0.0
C494 C 0.42648 0.00296 0.68424 0.0
C495 C 0.40515 0.95429 0.68132 0.0
C496 C 0.47926 0.00914 0.686 0.0
C497 C 0.43727 0.91169 0.68108 0.0
C498 C 0.48981 0.91751 0.6831 0.0
C499 C 0.56407 0.97239 0.68583 0.0
C500 C 0.58555 0.02127 0.68684 0.0
C501 C 0.51122 0.96608 0.68521 0.0
C502 C 0.55336 0.06375 0.68817 0.0
C503 C 0.50069 0.05774 0.68786 0.0
H504 H 0.05949 0.40285 0.83606 0.0
H505 H 0.89812 0.42685 0.82753 0.0
H506 H 0.91156 0.51834 0.82557 0.0
H507 H 0.96836 0.59152 0.82827 0.0
H508 H 0.12952 0.56818 0.83803 0.0
H509 H 0.11679 0.47633 0.83737 0.0
C510 C 0.02727 0.42804 0.83354 0.0
C511 C 0.97786 0.40795 0.83195 0.0
C512 C 0.03516 0.48072 0.83274 0.0
C513 C 0.93656 0.44121 0.8288 0.0
C514 C 0.94417 0.49359 0.82772 0.0
C515 C 0.00083 0.56643 0.83007 0.0
C516 C 0.04983 0.58678 0.83323 0.0
C517 C 0.99321 0.51376 0.82997 0.0
C518 C 0.09139 0.55359 0.83556 0.0
C519 C 0.08414 0.50104 0.83524 0.0
H520 H 0.41209 0.94333 0.32853 0.0
H521 H 0.431 0.10593 0.32386 0.0
H522 H 0.52307 0.09562 0.32428 0.0
H523 H 0.59797 0.04096 0.32849 0.0
H524 H 0.57904 0.87854 0.3345 0.0
H525 H 0.48716 0.88842 0.33091 0.0
C526 C 0.43629 0.97655 0.32732 0.0
C527 C 0.41456 0.02536 0.32619 0.0
C528 C 0.48922 0.97043 0.32795 0.0
C529 C 0.44661 0.06791 0.32473 0.0
C530 C 0.49931 0.06208 0.32504 0.0
C531 C 0.57385 0.00762 0.32879 0.0
C532 C 0.59547 0.95907 0.33182 0.0
C533 C 0.521 0.01358 0.32703 0.0
C534 C 0.56351 0.91636 0.33219 0.0
C535 C 0.51091 0.92197 0.33019 0.0
H536 H 0.04015 0.236 0.96112 0.0
H537 H 0.87746 0.24035 0.9711 0.0
H538 H 0.88797 0.24312 0.01927 0.0
H539 H 0.94327 0.24067 0.05854 0.0
H540 H 0.10596 0.23678 0.04835 0.0
H541 H 0.0954 0.23765 1.00023 0.0
C542 C 0.00692 0.2377 0.9738 0.0
C543 C 0.95807 0.23755 0.9625 0.0
C544 C 0.01323 0.23922 1.00144 0.0
C545 C 0.9155 0.24034 0.97925 0.0
C546 C 0.92147 0.24179 1.00681 0.0
C547 C 0.97645 0.24013 0.04581 0.0
C548 C 0.02533 0.23824 0.05706 0.0
C549 C 0.97014 0.24065 0.01812 0.0
C550 C 0.0679 0.23813 0.04025 0.0
C551 C 0.06191 0.23853 0.01271 0.0
H552 H 0.76417 0.95345 0.56117 0.0
H553 H 0.77148 0.11593 0.55081 0.0
H554 H 0.77135 0.10504 0.50258 0.0
H555 H 0.77241 0.04899 0.46339 0.0
H556 H 0.76463 0.88656 0.4744 0.0
H557 H 0.76157 0.89802 0.52233 0.0
C558 C 0.76567 0.98658 0.5484 0.0
C559 C 0.76827 0.03542 0.5596 0.0
C560 C 0.76561 0.98006 0.52077 0.0
C561 C 0.76956 0.07788 0.54272 0.0
C562 C 0.76961 0.07168 0.51514 0.0
C563 C 0.7699 0.0161 0.47626 0.0
C564 C 0.76912 0.96698 0.46524 0.0
C565 C 0.76816 0.0229 0.50394 0.0
C566 C 0.76543 0.92482 0.48226 0.0
C567 C 0.76375 0.93129 0.50972 0.0
H568 H 0.0405 0.77002 0.05606 0.0
H569 H 0.87897 0.76943 0.04163 0.0
H570 H 0.8941 0.76732 0.99384 0.0
H571 H 0.95314 0.76921 0.95609 0.0
H572 H 0.11465 0.76945 0.97071 0.0
H573 H 0.09942 0.76793 0.01843 0.0
C574 C 0.00855 0.7693 0.04249 0.0
C575 C 0.95869 0.7703 0.05245 0.0
C576 C 0.01748 0.76815 0.01502 0.0
C577 C 0.91777 0.7688 0.03454 0.0
C578 C 0.92637 0.7677 1.00718 0.0
C579 C 0.98503 0.76877 0.9697 0.0
C580 C 0.03495 0.76984 0.95978 0.0
C581 C 0.97606 0.76794 0.99719 0.0
C582 C 0.07581 0.76877 0.97774 0.0
C583 C 0.06717 0.768 1.00508 0.0
H584 H 0.23772 0.95258 0.45251 0.0
H585 H 0.23368 0.11478 0.46445 0.0
H586 H 0.23286 0.10217 0.51254 0.0
H587 H 0.22987 0.04481 0.55113 0.0
H588 H 0.23428 0.88266 0.53862 0.0
H589 H 0.23846 0.8957 0.49081 0.0
C590 C 0.23676 0.98526 0.46559 0.0
C591 C 0.23533 0.03454 0.45488 0.0
C592 C 0.2362 0.97775 0.49314 0.0
C593 C 0.23471 0.07642 0.47216 0.0
C594 C 0.2341 0.06924 0.49967 0.0
C595 C 0.23185 0.01232 0.53795 0.0
C596 C 0.23136 0.96282 0.5485 0.0
C597 C 0.23427 0.02004 0.51038 0.0
C598 C 0.23444 0.92118 0.53111 0.0
C599 C 0.23677 0.92856 0.50373 0.0
H600 H 0.16566 0.16412 0.20107 0.0
H601 H 0.06653 0.26153 0.24645 0.0
H602 H 0.10564 0.23181 0.28758 0.0
H603 H 0.16315 0.17353 0.3107 0.0
H604 H 0.2568 0.07066 0.26544 0.0
H605 H 0.22494 0.10753 0.22418 0.0
C606 C 0.15296 0.17936 0.21991 0.0
C607 C 0.11308 0.21496 0.22062 0.0
C608 C 0.17448 0.16091 0.24352 0.0
C609 C 0.09695 0.23395 0.2453 0.0
C610 C 0.11929 0.21695 0.26884 0.0
C611 C 0.17713 0.15953 0.29185 0.0
C612 C 0.21228 0.11925 0.29123 0.0
C613 C 0.15738 0.17972 0.26821 0.0
C614 C 0.22963 0.10146 0.26654 0.0
C615 C 0.21137 0.12248 0.24292 0.0
H616 H 0.82592 0.15351 0.81627 0.0
H617 H 0.91846 0.26119 0.77361 0.0
H618 H 0.8826 0.23207 0.73163 0.0
H619 H 0.83049 0.1715 0.70683 0.0
H620 H 0.7427 0.0594 0.74919 0.0
H621 H 0.7708 0.0951 0.79142 0.0
C622 C 0.83763 0.17116 0.79783 0.0
C623 C 0.87489 0.20942 0.79811 0.0
C624 C 0.81799 0.15317 0.77365 0.0
C625 C 0.89003 0.23151 0.77397 0.0
C626 C 0.86959 0.21484 0.74993 0.0
C627 C 0.81695 0.15518 0.72526 0.0
C628 C 0.78468 0.11262 0.72475 0.0
C629 C 0.83437 0.17497 0.74949 0.0
C630 C 0.76778 0.09196 0.74893 0.0
C631 C 0.78387 0.11233 0.77313 0.0
H632 H 0.7572 0.90356 0.27607 0.0
H633 H 0.85015 0.81164 0.32776 0.0
H634 H 0.88712 0.76899 0.28954 0.0
H635 H 0.89816 0.76233 0.24126 0.0
H636 H 0.80172 0.8506 0.18958 0.0
H637 H 0.76092 0.88943 0.22787 0.0
C638 C 0.78516 0.87384 0.27899 0.0
C639 C 0.80137 0.86154 0.30479 0.0
C640 C 0.80594 0.84881 0.25687 0.0
C641 C 0.83709 0.8223 0.30818 0.0
C642 C 0.85845 0.79785 0.28629 0.0
C643 C 0.86783 0.78963 0.23836 0.0
C644 C 0.85373 0.80403 0.21251 0.0
C645 C 0.84395 0.81153 0.26052 0.0
C646 C 0.81376 0.83894 0.20918 0.0
C647 C 0.79039 0.86139 0.23111 0.0
H648 H 0.24192 0.90155 0.73734 0.0
H649 H 0.15965 0.80021 0.68552 0.0
H650 H 0.12529 0.75551 0.72376 0.0
H651 H 0.1125 0.74981 0.77185 0.0
H652 H 0.19685 0.84924 0.82378 0.0
H653 H 0.23684 0.88924 0.78559 0.0
C654 C 0.2169 0.86936 0.73439 0.0
C655 C 0.20283 0.85494 0.70854 0.0
C656 C 0.19742 0.8434 0.75651 0.0
C657 C 0.17093 0.81258 0.70513 0.0
C658 C 0.1511 0.78692 0.72703 0.0
C659 C 0.14017 0.77973 0.77488 0.0
C660 C 0.15094 0.79686 0.80071 0.0
C661 C 0.16318 0.80271 0.7528 0.0
C662 C 0.18742 0.83533 0.80418 0.0
C663 C 0.21026 0.8585 0.78231 0.0
H664 H 0.06871 0.07217 0.14256 0.0
H665 H 0.91245 0.11941 0.14919 0.0
H666 H 0.88472 0.03113 0.14612 0.0
H667 H 0.9052 0.94036 0.14306 0.0
H668 H 0.06165 0.89272 0.14058 0.0
H669 H 0.08924 0.9814 0.14036 0.0
C670 C 0.02859 0.06315 0.14315 0.0
C671 C 0.99265 0.10223 0.14599 0.0
C672 C 0.01307 0.01229 0.14214 0.0
C673 C 0.94082 0.08997 0.14712 0.0
C674 C 0.92496 0.03954 0.1453 0.0
C675 C 0.94526 0.94951 0.14219 0.0
C676 C 0.9814 0.91033 0.14166 0.0
C677 C 0.96077 0.00039 0.14298 0.0
C678 C 0.03325 0.92243 0.14105 0.0
C679 C 0.04899 0.97303 0.14091 0.0
H680 H 0.06223 0.90944 0.64263 0.0
H681 H 0.11001 0.06548 0.63693 0.0
H682 H 0.02148 0.09355 0.63833 0.0
H683 H 0.93098 0.07363 0.64285 0.0
H684 H 0.88391 0.91782 0.65247 0.0
H685 H 0.97172 0.8896 0.64796 0.0
C686 C 0.05309 0.9495 0.64138 0.0
C687 C 0.09223 0.98541 0.63947 0.0
C688 C 0.00237 0.96531 0.64312 0.0
C689 C 0.08027 0.03729 0.63842 0.0
C690 C 0.02977 0.05328 0.63923 0.0
C691 C 0.93989 0.03347 0.64382 0.0
C692 C 0.90093 0.99786 0.64787 0.0
C693 C 0.99057 0.01763 0.64186 0.0
C694 C 0.91317 0.94602 0.64944 0.0
C695 C 0.96337 0.92983 0.64679 0.0
H696 H 0.96673 0.07589 0.83452 0.0
H697 H 0.00725 0.10098 0.91622 0.0
H698 H 0.03001 0.01108 0.92114 0.0
H699 H 0.03847 0.92568 0.90185 0.0
H700 H 0.99163 0.90007 0.82082 0.0
H701 H 0.97051 0.98961 0.81602 0.0
C702 C 0.98074 0.06137 0.8533 0.0
C703 C 0.98612 0.09429 0.87491 0.0
C704 C 0.99215 0.00969 0.85611 0.0
C705 C 0.0033 0.07573 0.89937 0.0
C706 C 0.01615 0.02456 0.90215 0.0
C707 C 0.02349 0.93969 0.88318 0.0
C708 C 0.01694 0.90626 0.86171 0.0
C709 C 0.01071 0.99118 0.88064 0.0
C710 C 0.99696 0.92489 0.83772 0.0
C711 C 0.98507 0.97617 0.83488 0.0
H712 H 0.93862 0.9154 0.37421 0.0
H713 H 0.89104 0.07196 0.37331 0.0
H714 H 0.97968 0.09947 0.37194 0.0
H715 H 0.07038 0.07868 0.3693 0.0
H716 H 0.11734 0.92192 0.36606 0.0
H717 H 0.02919 0.89458 0.37068 0.0
C718 C 0.94775 0.9555 0.37402 0.0
C719 C 0.90858 0.99166 0.37406 0.0
C720 C 0.99858 0.97087 0.37228 0.0
C721 C 0.92071 0.04352 0.37327 0.0
C722 C 0.9713 0.05921 0.37248 0.0
C723 C 0.06131 0.03855 0.36975 0.0
C724 C 0.10026 0.00235 0.36742 0.0
C725 C 0.0105 0.02319 0.3717 0.0
C726 C 0.08797 0.95048 0.36768 0.0
C727 C 0.03762 0.93484 0.37041 0.0
loop_
_geom_bond_atom_site_label_1
_geom_bond_atom_site_label_2
_geom_bond_distance
_geom_bond_site_symmetry_2
_ccdc_geom_bond_type
Co0 O2 2.143 . S
Co0 O8 2.074 . S
Co0 O11 2.093 . S
Co0 O24 2.097 . S
Co0 N41 2.151 . S
Co0 N49 2.214 . S
Co1 O2 2.160 . S
Co1 O7 2.058 . S
Co1 O17 2.057 . S
Co1 O32 2.037 . S
Co1 N36 2.145 1_455 S
Co1 N57 2.257 1_455 S
O2 Co0 2.143 . S
O2 Co1 2.160 . S
C3 O4 1.278 . S
C3 O11 1.224 . S
O4 C3 1.278 . S
C5 O6 1.245 . S
C5 O17 1.232 . S
O6 C5 1.245 . S
O7 Co1 2.058 . S
O7 C33 1.269 . S
O8 Co0 2.074 . S
O8 C33 1.257 . S
H9 C34 0.930 . S
H10 C40 0.930 . S
O11 Co0 2.093 . S
O11 C3 1.224 . S
H12 C44 0.929 . S
H13 C46 0.930 . S
H14 C47 0.930 . S
H15 C45 0.929 . S
H16 C48 0.928 . S
O17 Co1 2.057 . S
O17 C5 1.232 . S
H18 C37 0.929 . S
H19 C38 0.929 . S
H20 C50 0.931 . S
H21 C42 0.929 . S
H22 C51 0.930 . S
H23 C43 0.931 . S
O24 Co0 2.097 . S
O24 C52 1.214 . S
H25 C53 0.929 . S
H26 C54 0.929 . S
H27 C55 0.930 . S
H28 C56 0.929 . S
H29 C58 0.930 . S
H30 C35 0.930 . S
H31 C39 0.930 . S
O32 Co1 2.037 . S
O32 C52 1.234 . S
C33 O7 1.269 . S
C33 O8 1.257 . S
C34 H9 0.930 . S
C34 C37 1.388 . S
C34 C39 1.418 . S
C35 H30 0.930 . S
C35 C38 1.404 . S
C35 C39 1.353 . S
N36 Co1 2.145 1_655 S
N36 C37 1.397 . S
N36 C38 1.334 . S
C37 H18 0.929 . S
C37 C34 1.388 . S
C37 N36 1.397 . S
C38 H19 0.929 . S
C38 C35 1.404 . S
C38 N36 1.334 . S
C39 H31 0.930 . S
C39 C34 1.418 . S
C39 C35 1.353 . S
C40 H10 0.930 . S
C40 N41 1.330 . S
C40 C42 1.446 . S
N41 Co0 2.151 . S
N41 C40 1.330 . S
N41 C45 1.418 . S
C42 H21 0.929 . S
C42 C40 1.446 . S
C42 C43 1.332 . S
C43 H23 0.931 . S
C43 C42 1.332 . S
C43 C44 1.267 . S
C44 H12 0.929 . S
C44 C43 1.267 . S
C44 C45 1.251 . S
C45 H15 0.929 . S
C45 N41 1.418 . S
C45 C44 1.251 . S
C46 H13 0.930 . S
C46 C48 1.406 . S
C46 C51 1.261 . S
C47 H14 0.930 . S
C47 N49 1.325 . S
C47 C50 1.357 . S
C48 H16 0.928 . S
C48 C46 1.406 . S
C48 N49 1.261 . S
N49 Co0 2.214 . S
N49 C47 1.325 . S
N49 C48 1.261 . S
C50 H20 0.931 . S
C50 C47 1.357 . S
C50 C51 1.312 . S
C51 H22 0.930 . S
C51 C46 1.261 . S
C51 C50 1.312 . S
C52 O24 1.214 . S
C52 O32 1.234 . S
C53 H25 0.929 . S
C53 C56 1.391 . S
C53 C58 1.391 . S
C54 H26 0.929 . S
C54 C55 1.390 . S
C54 N57 1.391 . S
C55 H27 0.930 . S
C55 C54 1.390 . S
C55 C56 1.392 . S
C56 H28 0.929 . S
C56 C53 1.391 . S
C56 C55 1.392 . S
N57 Co1 2.257 1_655 S
N57 C54 1.391 . S
N57 C58 1.388 . S
C58 H29 0.930 . S
C58 C53 1.391 . S
C58 N57 1.388 . S
Co59 O61 2.143 . S
Co59 O67 2.074 . S
Co59 O70 2.093 . S
Co59 O83 2.097 . S
Co59 N100 2.151 . S
Co59 N108 2.214 . S
Co60 O61 2.160 . S
Co60 O66 2.058 . S
Co60 O76 2.057 . S
Co60 O91 2.037 . S
Co60 N95 2.145 1_545 S
Co60 N116 2.257 1_545 S
O61 Co59 2.143 . S
O61 Co60 2.160 . S
C62 O63 1.278 . S
C62 O70 1.224 . S
O63 C62 1.278 . S
C64 O65 1.245 . S
C64 O76 1.232 . S
O65 C64 1.245 . S
O66 Co60 2.058 . S
O66 C92 1.269 . S
O67 Co59 2.074 . S
O67 C92 1.257 . S
H68 C93 0.930 . S
H69 C99 0.930 . S
O70 Co59 2.093 . S
O70 C62 1.224 . S
H71 C103 0.929 . S
H72 C105 0.930 . S
H73 C106 0.930 . S
H74 C104 0.929 . S
H75 C107 0.928 . S
O76 Co60 2.057 . S
O76 C64 1.232 . S
H77 C96 0.929 . S
H78 C97 0.929 . S
H79 C109 0.931 . S
H80 C101 0.929 . S
H81 C110 0.930 . S
H82 C102 0.931 . S
O83 Co59 2.097 . S
O83 C111 1.214 . S
H84 C112 0.929 . S
H85 C113 0.929 . S
H86 C114 0.930 . S
H87 C115 0.929 . S
H88 C117 0.930 . S
H89 C94 0.930 . S
H90 C98 0.930 . S
O91 Co60 2.037 . S
O91 C111 1.234 . S
C92 O66 1.269 . S
C92 O67 1.257 . S
C93 H68 0.930 . S
C93 C96 1.388 . S
C93 C98 1.418 . S
C94 H89 0.930 . S
C94 C97 1.404 . S
C94 C98 1.353 . S
N95 Co60 2.145 1_565 S
N95 C96 1.397 . S
N95 C97 1.334 . S
C96 H77 0.929 . S
C96 C93 1.388 . S
C96 N95 1.397 . S
C97 H78 0.929 . S
C97 C94 1.404 . S
C97 N95 1.334 . S
C98 H90 0.930 . S
C98 C93 1.418 . S
C98 C94 1.353 . S
C99 H69 0.930 . S
C99 N100 1.330 . S
C99 C101 1.446 . S
N100 Co59 2.151 . S
N100 C99 1.330 . S
N100 C104 1.418 . S
C101 H80 0.929 . S
C101 C99 1.446 . S
C101 C102 1.332 . S
C102 H82 0.931 . S
C102 C101 1.332 . S
C102 C103 1.267 . S
C103 H71 0.929 . S
C103 C102 1.267 . S
C103 C104 1.251 . S
C104 H74 0.929 . S
C104 N100 1.418 . S
C104 C103 1.251 . S
C105 H72 0.930 . S
C105 C107 1.406 . S
C105 C110 1.261 . S
C106 H73 0.930 . S
C106 N108 1.325 . S
C106 C109 1.357 . S
C107 H75 0.928 . S
C107 C105 1.406 . S
C107 N108 1.261 . S
N108 Co59 2.214 . S
N108 C106 1.325 . S
N108 C107 1.261 . S
C109 H79 0.931 . S
C109 C106 1.357 . S
C109 C110 1.312 . S
C110 H81 0.930 . S
C110 C105 1.261 . S
C110 C109 1.312 . S
C111 O83 1.214 . S
C111 O91 1.234 . S
C112 H84 0.929 . S
C112 C115 1.391 . S
C112 C117 1.391 . S
C113 H85 0.929 . S
C113 C114 1.390 . S
C113 N116 1.391 . S
C114 H86 0.930 . S
C114 C113 1.390 . S
C114 C115 1.392 . S
C115 H87 0.929 . S
C115 C112 1.391 . S
C115 C114 1.392 . S
N116 Co60 2.257 1_565 S
N116 C113 1.391 . S
N116 C117 1.388 . S
C117 H88 0.930 . S
C117 C112 1.391 . S
C117 N116 1.388 . S
Co118 O120 2.143 . S
Co118 O126 2.074 . S
Co118 O129 2.093 . S
Co118 O142 2.097 . S
Co118 N159 2.151 . S
Co118 N167 2.214 . S
Co119 O120 2.160 . S
Co119 O125 2.058 . S
Co119 O135 2.057 . S
Co119 O150 2.037 . S
Co119 N154 2.145 1_655 S
Co119 N175 2.257 1_655 S
O120 Co118 2.143 . S
O120 Co119 2.160 . S
C121 O122 1.278 . S
C121 O129 1.224 . S
O122 C121 1.278 . S
C123 O124 1.245 . S
C123 O135 1.232 . S
O124 C123 1.245 . S
O125 Co119 2.058 . S
O125 C151 1.269 . S
O126 Co118 2.074 . S
O126 C151 1.257 . S
H127 C152 0.930 . S
H128 C158 0.930 . S
O129 Co118 2.093 . S
O129 C121 1.224 . S
H130 C162 0.929 . S
H131 C164 0.930 . S
H132 C165 0.930 . S
H133 C163 0.929 . S
H134 C166 0.928 . S
O135 Co119 2.057 . S
O135 C123 1.232 . S
H136 C155 0.929 . S
H137 C156 0.929 . S
H138 C168 0.931 . S
H139 C160 0.929 . S
H140 C169 0.930 . S
H141 C161 0.931 . S
O142 Co118 2.097 . S
O142 C170 1.214 . S
H143 C171 0.929 . S
H144 C172 0.929 . S
H145 C173 0.930 . S
H146 C174 0.929 . S
H147 C176 0.930 . S
H148 C153 0.930 . S
H149 C157 0.930 . S
O150 Co119 2.037 . S
O150 C170 1.234 . S
C151 O125 1.269 . S
C151 O126 1.257 . S
C152 H127 0.930 . S
C152 C155 1.388 . S
C152 C157 1.418 . S
C153 H148 0.930 . S
C153 C156 1.404 . S
C153 C157 1.353 . S
N154 Co119 2.145 1_455 S
N154 C155 1.397 . S
N154 C156 1.334 . S
C155 H136 0.929 . S
C155 C152 1.388 . S
C155 N154 1.397 . S
C156 H137 0.929 . S
C156 C153 1.404 . S
C156 N154 1.334 . S
C157 H149 0.930 . S
C157 C152 1.418 . S
C157 C153 1.353 . S
C158 H128 0.930 . S
C158 N159 1.330 . S
C158 C160 1.446 . S
N159 Co118 2.151 . S
N159 C158 1.330 . S
N159 C163 1.418 . S
C160 H139 0.929 . S
C160 C158 1.446 . S
C160 C161 1.332 . S
C161 H141 0.931 . S
C161 C160 1.332 . S
C161 C162 1.267 . S
C162 H130 0.929 . S
C162 C161 1.267 . S
C162 C163 1.251 . S
C163 H133 0.929 . S
C163 N159 1.418 . S
C163 C162 1.251 . S
C164 H131 0.930 . S
C164 C166 1.406 . S
C164 C169 1.261 . S
C165 H132 0.930 . S
C165 N167 1.325 . S
C165 C168 1.357 . S
C166 H134 0.928 . S
C166 C164 1.406 . S
C166 N167 1.261 . S
N167 Co118 2.214 . S
N167 C165 1.325 . S
N167 C166 1.261 . S
C168 H138 0.931 . S
C168 C165 1.357 . S
C168 C169 1.312 . S
C169 H140 0.930 . S
C169 C164 1.261 . S
C169 C168 1.312 . S
C170 O142 1.214 . S
C170 O150 1.234 . S
C171 H143 0.929 . S
C171 C174 1.391 . S
C171 C176 1.391 . S
C172 H144 0.929 . S
C172 C173 1.390 . S
C172 N175 1.391 . S
C173 H145 0.930 . S
C173 C172 1.390 . S
C173 C174 1.392 . S
C174 H146 0.929 . S
C174 C171 1.391 . S
C174 C173 1.392 . S
N175 Co119 2.257 1_455 S
N175 C172 1.391 . S
N175 C176 1.388 . S
C176 H147 0.930 . S
C176 C171 1.391 . S
C176 N175 1.388 . S
Co177 O179 2.143 . S
Co177 O185 2.074 . S
Co177 O188 2.093 . S
Co177 O201 2.097 . S
Co177 N218 2.151 . S
Co177 N226 2.214 . S
Co178 O179 2.160 . S
Co178 O184 2.058 . S
Co178 O194 2.057 . S
Co178 O209 2.037 . S
Co178 N213 2.145 1_565 S
Co178 N234 2.257 1_565 S
O179 Co177 2.143 . S
O179 Co178 2.160 . S
C180 O181 1.278 . S
C180 O188 1.224 . S
O181 C180 1.278 . S
C182 O183 1.245 . S
C182 O194 1.232 . S
O183 C182 1.245 . S
O184 Co178 2.058 . S
O184 C210 1.269 . S
O185 Co177 2.074 . S
O185 C210 1.257 . S
H186 C211 0.930 . S
H187 C217 0.930 . S
O188 Co177 2.093 . S
O188 C180 1.224 . S
H189 C221 0.929 . S
H190 C223 0.930 . S
H191 C224 0.930 . S
H192 C222 0.929 . S
H193 C225 0.928 . S
O194 Co178 2.057 . S
O194 C182 1.232 . S
H195 C214 0.929 . S
H196 C215 0.929 . S
H197 C227 0.931 . S
H198 C219 0.929 . S
H199 C228 0.930 . S
H200 C220 0.931 . S
O201 Co177 2.097 . S
O201 C229 1.214 . S
H202 C230 0.929 . S
H203 C231 0.929 . S
H204 C232 0.930 . S
H205 C233 0.929 . S
H206 C235 0.930 . S
H207 C212 0.930 . S
H208 C216 0.930 . S
O209 Co178 2.037 . S
O209 C229 1.234 . S
C210 O184 1.269 . S
C210 O185 1.257 . S
C211 H186 0.930 . S
C211 C214 1.388 . S
C211 C216 1.418 . S
C212 H207 0.930 . S
C212 C215 1.404 . S
C212 C216 1.353 . S
N213 Co178 2.145 1_545 S
N213 C214 1.397 . S
N213 C215 1.334 . S
C214 H195 0.929 . S
C214 C211 1.388 . S
C214 N213 1.397 . S
C215 H196 0.929 . S
C215 C212 1.404 . S
C215 N213 1.334 . S
C216 H208 0.930 . S
C216 C211 1.418 . S
C216 C212 1.353 . S
C217 H187 0.930 . S
C217 N218 1.330 . S
C217 C219 1.446 . S
N218 Co177 2.151 . S
N218 C217 1.330 . S
N218 C222 1.418 . S
C219 H198 0.929 . S
C219 C217 1.446 . S
C219 C220 1.332 . S
C220 H200 0.931 . S
C220 C219 1.332 . S
C220 C221 1.267 . S
C221 H189 0.929 . S
C221 C220 1.267 . S
C221 C222 1.251 . S
C222 H192 0.929 . S
C222 N218 1.418 . S
C222 C221 1.251 . S
C223 H190 0.930 . S
C223 C225 1.406 . S
C223 C228 1.261 . S
C224 H191 0.930 . S
C224 N226 1.325 . S
C224 C227 1.357 . S
C225 H193 0.928 . S
C225 C223 1.406 . S
C225 N226 1.261 . S
N226 Co177 2.214 . S
N226 C224 1.325 . S
N226 C225 1.261 . S
C227 H197 0.931 . S
C227 C224 1.357 . S
C227 C228 1.312 . S
C228 H199 0.930 . S
C228 C223 1.261 . S
C228 C227 1.312 . S
C229 O201 1.214 . S
C229 O209 1.234 . S
C230 H202 0.929 . S
C230 C233 1.391 . S
C230 C235 1.391 . S
C231 H203 0.929 . S
C231 C232 1.390 . S
C231 N234 1.391 . S
C232 H204 0.930 . S
C232 C231 1.390 . S
C232 C233 1.392 . S
C233 H205 0.929 . S
C233 C230 1.391 . S
C233 C232 1.392 . S
N234 Co178 2.257 1_545 S
N234 C231 1.391 . S
N234 C235 1.388 . S
C235 H206 0.930 . S
C235 C230 1.391 . S
C235 N234 1.388 . S
Co236 O238 2.143 . S
Co236 O244 2.074 . S
Co236 O247 2.093 . S
Co236 O260 2.097 . S
Co236 N277 2.151 . S
Co236 N285 2.214 . S
Co237 O238 2.160 . S
Co237 O243 2.058 . S
Co237 O253 2.057 . S
Co237 O268 2.037 . S
Co237 N272 2.145 1_455 S
Co237 N293 2.257 1_455 S
O238 Co236 2.143 . S
O238 Co237 2.160 . S
C239 O240 1.278 . S
C239 O247 1.224 . S
O240 C239 1.278 . S
C241 O242 1.245 . S
C241 O253 1.232 . S
O242 C241 1.245 . S
O243 Co237 2.058 . S
O243 C269 1.269 . S
O244 Co236 2.074 . S
O244 C269 1.257 . S
H245 C270 0.930 . S
H246 C276 0.930 . S
O247 Co236 2.093 . S
O247 C239 1.224 . S
H248 C280 0.929 . S
H249 C282 0.930 . S
H250 C283 0.930 . S
H251 C281 0.929 . S
H252 C284 0.928 . S
O253 Co237 2.057 . S
O253 C241 1.232 . S
H254 C273 0.929 . S
H255 C274 0.929 . S
H256 C286 0.931 . S
H257 C278 0.929 . S
H258 C287 0.930 . S
H259 C279 0.931 . S
O260 Co236 2.097 . S
O260 C288 1.214 . S
H261 C289 0.929 . S
H262 C290 0.929 . S
H263 C291 0.930 . S
H264 C292 0.929 . S
H265 C294 0.930 . S
H266 C271 0.930 . S
H267 C275 0.930 . S
O268 Co237 2.037 . S
O268 C288 1.234 . S
C269 O243 1.269 . S
C269 O244 1.257 . S
C270 H245 0.930 . S
C270 C273 1.388 . S
C270 C275 1.418 . S
C271 H266 0.930 . S
C271 C274 1.404 . S
C271 C275 1.353 . S
N272 Co237 2.145 1_655 S
N272 C273 1.397 . S
N272 C274 1.334 . S
C273 H254 0.929 . S
C273 C270 1.388 . S
C273 N272 1.397 . S
C274 H255 0.929 . S
C274 C271 1.404 . S
C274 N272 1.334 . S
C275 H267 0.930 . S
C275 C270 1.418 . S
C275 C271 1.353 . S
C276 H246 0.930 . S
C276 N277 1.330 . S
C276 C278 1.446 . S
N277 Co236 2.151 . S
N277 C276 1.330 . S
N277 C281 1.418 . S
C278 H257 0.929 . S
C278 C276 1.446 . S
C278 C279 1.332 . S
C279 H259 0.931 . S
C279 C278 1.332 . S
C279 C280 1.267 . S
C280 H248 0.929 . S
C280 C279 1.267 . S
C280 C281 1.251 . S
C281 H251 0.929 . S
C281 N277 1.418 . S
C281 C280 1.251 . S
C282 H249 0.930 . S
C282 C284 1.406 . S
C282 C287 1.261 . S
C283 H250 0.930 . S
C283 N285 1.325 . S
C283 C286 1.357 . S
C284 H252 0.928 . S
C284 C282 1.406 . S
C284 N285 1.261 . S
N285 Co236 2.214 . S
N285 C283 1.325 . S
N285 C284 1.261 . S
C286 H256 0.931 . S
C286 C283 1.357 . S
C286 C287 1.312 . S
C287 H258 0.930 . S
C287 C282 1.261 . S
C287 C286 1.312 . S
C288 O260 1.214 . S
C288 O268 1.234 . S
C289 H261 0.929 . S
C289 C292 1.391 . S
C289 C294 1.391 . S
C290 H262 0.929 . S
C290 C291 1.390 . S
C290 N293 1.391 . S
C291 H263 0.930 . S
C291 C290 1.390 . S
C291 C292 1.392 . S
C292 H264 0.929 . S
C292 C289 1.391 . S
C292 C291 1.392 . S
N293 Co237 2.257 1_655 S
N293 C290 1.391 . S
N293 C294 1.388 . S
C294 H265 0.930 . S
C294 C289 1.391 . S
C294 N293 1.388 . S
Co295 O297 2.143 . S
Co295 O303 2.074 . S
Co295 O306 2.093 . S
Co295 O319 2.097 . S
Co295 N336 2.151 . S
Co295 N344 2.214 . S
Co296 O297 2.160 . S
Co296 O302 2.058 . S
Co296 O312 2.057 . S
Co296 O327 2.037 . S
Co296 N331 2.145 1_545 S
Co296 N352 2.257 1_545 S
O297 Co295 2.143 . S
O297 Co296 2.160 . S
C298 O299 1.278 . S
C298 O306 1.224 . S
O299 C298 1.278 . S
C300 O301 1.245 . S
C300 O312 1.232 . S
O301 C300 1.245 . S
O302 Co296 2.058 . S
O302 C328 1.269 . S
O303 Co295 2.074 . S
O303 C328 1.257 . S
H304 C329 0.930 . S
H305 C335 0.930 . S
O306 Co295 2.093 . S
O306 C298 1.224 . S
H307 C339 0.929 . S
H308 C341 0.930 . S
H309 C342 0.930 . S
H310 C340 0.929 . S
H311 C343 0.928 . S
O312 Co296 2.057 . S
O312 C300 1.232 . S
H313 C332 0.929 . S
H314 C333 0.929 . S
H315 C345 0.931 . S
H316 C337 0.929 . S
H317 C346 0.930 . S
H318 C338 0.931 . S
O319 Co295 2.097 . S
O319 C347 1.214 . S
H320 C348 0.929 . S
H321 C349 0.929 . S
H322 C350 0.930 . S
H323 C351 0.929 . S
H324 C353 0.930 . S
H325 C330 0.930 . S
H326 C334 0.930 . S
O327 Co296 2.037 . S
O327 C347 1.234 . S
C328 O302 1.269 . S
C328 O303 1.257 . S
C329 H304 0.930 . S
C329 C332 1.388 . S
C329 C334 1.418 . S
C330 H325 0.930 . S
C330 C333 1.404 . S
C330 C334 1.353 . S
N331 Co296 2.145 1_565 S
N331 C332 1.397 . S
N331 C333 1.334 . S
C332 H313 0.929 . S
C332 C329 1.388 . S
C332 N331 1.397 . S
C333 H314 0.929 . S
C333 C330 1.404 . S
C333 N331 1.334 . S
C334 H326 0.930 . S
C334 C329 1.418 . S
C334 C330 1.353 . S
C335 H305 0.930 . S
C335 N336 1.330 . S
C335 C337 1.446 . S
N336 Co295 2.151 . S
N336 C335 1.330 . S
N336 C340 1.418 . S
C337 H316 0.929 . S
C337 C335 1.446 . S
C337 C338 1.332 . S
C338 H318 0.931 . S
C338 C337 1.332 . S
C338 C339 1.267 . S
C339 H307 0.929 . S
C339 C338 1.267 . S
C339 C340 1.251 . S
C340 H310 0.929 . S
C340 N336 1.418 . S
C340 C339 1.251 . S
C341 H308 0.930 . S
C341 C343 1.406 . S
C341 C346 1.261 . S
C342 H309 0.930 . S
C342 N344 1.325 . S
C342 C345 1.357 . S
C343 H311 0.928 . S
C343 C341 1.406 . S
C343 N344 1.261 . S
N344 Co295 2.214 . S
N344 C342 1.325 . S
N344 C343 1.261 . S
C345 H315 0.931 . S
C345 C342 1.357 . S
C345 C346 1.312 . S
C346 H317 0.930 . S
C346 C341 1.261 . S
C346 C345 1.312 . S
C347 O319 1.214 . S
C347 O327 1.234 . S
C348 H320 0.929 . S
C348 C351 1.391 . S
C348 C353 1.391 . S
C349 H321 0.929 . S
C349 C350 1.390 . S
C349 N352 1.391 . S
C350 H322 0.930 . S
C350 C349 1.390 . S
C350 C351 1.392 . S
C351 H323 0.929 . S
C351 C348 1.391 . S
C351 C350 1.392 . S
N352 Co296 2.257 1_565 S
N352 C349 1.391 . S
N352 C353 1.388 . S
C353 H324 0.930 . S
C353 C348 1.391 . S
C353 N352 1.388 . S
Co354 O356 2.143 . S
Co354 O362 2.074 . S
Co354 O365 2.093 . S
Co354 O378 2.097 . S
Co354 N395 2.151 . S
Co354 N403 2.214 . S
Co355 O356 2.160 . S
Co355 O361 2.058 . S
Co355 O371 2.057 . S
Co355 O386 2.037 . S
Co355 N390 2.145 1_655 S
Co355 N411 2.257 1_655 S
O356 Co354 2.143 . S
O356 Co355 2.160 . S
C357 O358 1.278 . S
C357 O365 1.224 . S
O358 C357 1.278 . S
C359 O360 1.245 . S
C359 O371 1.232 . S
O360 C359 1.245 . S
O361 Co355 2.058 . S
O361 C387 1.269 . S
O362 Co354 2.074 . S
O362 C387 1.257 . S
H363 C388 0.930 . S
H364 C394 0.930 . S
O365 Co354 2.093 . S
O365 C357 1.224 . S
H366 C398 0.929 . S
H367 C400 0.930 . S
H368 C401 0.930 . S
H369 C399 0.929 . S
H370 C402 0.928 . S
O371 Co355 2.057 . S
O371 C359 1.232 . S
H372 C391 0.929 . S
H373 C392 0.929 . S
H374 C404 0.931 . S
H375 C396 0.929 . S
H376 C405 0.930 . S
H377 C397 0.931 . S
O378 Co354 2.097 . S
O378 C406 1.214 . S
H379 C407 0.929 . S
H380 C408 0.929 . S
H381 C409 0.930 . S
H382 C410 0.929 . S
H383 C412 0.930 . S
H384 C389 0.930 . S
H385 C393 0.930 . S
O386 Co355 2.037 . S
O386 C406 1.234 . S
C387 O361 1.269 . S
C387 O362 1.257 . S
C388 H363 0.930 . S
C388 C391 1.388 . S
C388 C393 1.418 . S
C389 H384 0.930 . S
C389 C392 1.404 . S
C389 C393 1.353 . S
N390 Co355 2.145 1_455 S
N390 C391 1.397 . S
N390 C392 1.334 . S
C391 H372 0.929 . S
C391 C388 1.388 . S
C391 N390 1.397 . S
C392 H373 0.929 . S
C392 C389 1.404 . S
C392 N390 1.334 . S
C393 H385 0.930 . S
C393 C388 1.418 . S
C393 C389 1.353 . S
C394 H364 0.930 . S
C394 N395 1.330 . S
C394 C396 1.446 . S
N395 Co354 2.151 . S
N395 C394 1.330 . S
N395 C399 1.418 . S
C396 H375 0.929 . S
C396 C394 1.446 . S
C396 C397 1.332 . S
C397 H377 0.931 . S
C397 C396 1.332 . S
C397 C398 1.267 . S
C398 H366 0.929 . S
C398 C397 1.267 . S
C398 C399 1.251 . S
C399 H369 0.929 . S
C399 N395 1.418 . S
C399 C398 1.251 . S
C400 H367 0.930 . S
C400 C402 1.406 . S
C400 C405 1.261 . S
C401 H368 0.930 . S
C401 N403 1.325 . S
C401 C404 1.357 . S
C402 H370 0.928 . S
C402 C400 1.406 . S
C402 N403 1.261 . S
N403 Co354 2.214 . S
N403 C401 1.325 . S
N403 C402 1.261 . S
C404 H374 0.931 . S
C404 C401 1.357 . S
C404 C405 1.312 . S
C405 H376 0.930 . S
C405 C400 1.261 . S
C405 C404 1.312 . S
C406 O378 1.214 . S
C406 O386 1.234 . S
C407 H379 0.929 . S
C407 C410 1.391 . S
C407 C412 1.391 . S
C408 H380 0.929 . S
C408 C409 1.390 . S
C408 N411 1.391 . S
C409 H381 0.930 . S
C409 C408 1.390 . S
C409 C410 1.392 . S
C410 H382 0.929 . S
C410 C407 1.391 . S
C410 C409 1.392 . S
N411 Co355 2.257 1_455 S
N411 C408 1.391 . S
N411 C412 1.388 . S
C412 H383 0.930 . S
C412 C407 1.391 . S
C412 N411 1.388 . S
Co413 O415 2.143 . S
Co413 O421 2.074 . S
Co413 O424 2.093 . S
Co413 O437 2.097 . S
Co413 N454 2.151 . S
Co413 N462 2.214 . S
Co414 O415 2.160 . S
Co414 O420 2.058 . S
Co414 O430 2.057 . S
Co414 O445 2.037 . S
Co414 N449 2.145 1_565 S
Co414 N470 2.257 1_565 S
O415 Co413 2.143 . S
O415 Co414 2.160 . S
C416 O417 1.278 . S
C416 O424 1.224 . S
O417 C416 1.278 . S
C418 O419 1.245 . S
C418 O430 1.232 . S
O419 C418 1.245 . S
O420 Co414 2.058 . S
O420 C446 1.269 . S
O421 Co413 2.074 . S
O421 C446 1.257 . S
H422 C447 0.930 . S
H423 C453 0.930 . S
O424 Co413 2.093 . S
O424 C416 1.224 . S
H425 C457 0.929 . S
H426 C459 0.930 . S
H427 C460 0.930 . S
H428 C458 0.929 . S
H429 C461 0.928 . S
O430 Co414 2.057 . S
O430 C418 1.232 . S
H431 C450 0.929 . S
H432 C451 0.929 . S
H433 C463 0.931 . S
H434 C455 0.929 . S
H435 C464 0.930 . S
H436 C456 0.931 . S
O437 Co413 2.097 . S
O437 C465 1.214 . S
H438 C466 0.929 . S
H439 C467 0.929 . S
H440 C468 0.930 . S
H441 C469 0.929 . S
H442 C471 0.930 . S
H443 C448 0.930 . S
H444 C452 0.930 . S
O445 Co414 2.037 . S
O445 C465 1.234 . S
C446 O420 1.269 . S
C446 O421 1.257 . S
C447 H422 0.930 . S
C447 C450 1.388 . S
C447 C452 1.418 . S
C448 H443 0.930 . S
C448 C451 1.404 . S
C448 C452 1.353 . S
N449 Co414 2.145 1_545 S
N449 C450 1.397 . S
N449 C451 1.334 . S
C450 H431 0.929 . S
C450 C447 1.388 . S
C450 N449 1.397 . S
C451 H432 0.929 . S
C451 C448 1.404 . S
C451 N449 1.334 . S
C452 H444 0.930 . S
C452 C447 1.418 . S
C452 C448 1.353 . S
C453 H423 0.930 . S
C453 N454 1.330 . S
C453 C455 1.446 . S
N454 Co413 2.151 . S
N454 C453 1.330 . S
N454 C458 1.418 . S
C455 H434 0.929 . S
C455 C453 1.446 . S
C455 C456 1.332 . S
C456 H436 0.931 . S
C456 C455 1.332 . S
C456 C457 1.267 . S
C457 H425 0.929 . S
C457 C456 1.267 . S
C457 C458 1.251 . S
C458 H428 0.929 . S
C458 N454 1.418 . S
C458 C457 1.251 . S
C459 H426 0.930 . S
C459 C461 1.406 . S
C459 C464 1.261 . S
C460 H427 0.930 . S
C460 N462 1.325 . S
C460 C463 1.357 . S
C461 H429 0.928 . S
C461 C459 1.406 . S
C461 N462 1.261 . S
N462 Co413 2.214 . S
N462 C460 1.325 . S
N462 C461 1.261 . S
C463 H433 0.931 . S
C463 C460 1.357 . S
C463 C464 1.312 . S
C464 H435 0.930 . S
C464 C459 1.261 . S
C464 C463 1.312 . S
C465 O437 1.214 . S
C465 O445 1.234 . S
C466 H438 0.929 . S
C466 C469 1.391 . S
C466 C471 1.391 . S
C467 H439 0.929 . S
C467 C468 1.390 . S
C467 N470 1.391 . S
C468 H440 0.930 . S
C468 C467 1.390 . S
C468 C469 1.392 . S
C469 H441 0.929 . S
C469 C466 1.391 . S
C469 C468 1.392 . S
N470 Co414 2.257 1_545 S
N470 C467 1.391 . S
N470 C471 1.388 . S
C471 H442 0.930 . S
C471 C466 1.391 . S
C471 N470 1.388 . S
H472 C478 0.930 . S
H473 C481 0.930 . S
H474 C482 0.930 . S
H475 C483 0.930 . S
H476 C486 0.930 . S
H477 C487 0.930 . S
C478 H472 0.930 . S
C478 C479 1.355 1_655 S
C478 C480 1.415 . S
C479 C478 1.355 1_455 S
C479 C481 1.419 . S
C480 C478 1.415 . S
C480 C485 1.425 1_655 S
C480 C487 1.409 . S
C481 H473 0.930 . S
C481 C479 1.419 . S
C481 C482 1.362 . S
C482 H474 0.930 . S
C482 C481 1.362 . S
C482 C485 1.409 . S
C483 H475 0.930 . S
C483 C484 1.355 1_455 S
C483 C485 1.415 . S
C484 C483 1.355 1_655 S
C484 C486 1.419 . S
C485 C480 1.425 1_455 S
C485 C482 1.409 . S
C485 C483 1.415 . S
C486 H476 0.930 . S
C486 C484 1.419 . S
C486 C487 1.362 . S
C487 H477 0.930 . S
C487 C480 1.409 . S
C487 C486 1.362 . S
H488 C494 0.930 . S
H489 C497 0.930 . S
H490 C498 0.930 . S
H491 C499 0.930 . S
H492 C502 0.930 . S
H493 C503 0.930 . S
C494 H488 0.930 . S
C494 C495 1.355 1_545 S
C494 C496 1.415 . S
C495 C494 1.355 1_565 S
C495 C497 1.419 . S
C496 C494 1.415 . S
C496 C501 1.425 1_545 S
C496 C503 1.409 . S
C497 H489 0.930 . S
C497 C495 1.419 . S
C497 C498 1.362 . S
C498 H490 0.930 . S
C498 C497 1.362 . S
C498 C501 1.409 . S
C499 H491 0.930 . S
C499 C500 1.355 1_565 S
C499 C501 1.415 . S
C500 C499 1.355 1_545 S
C500 C502 1.419 . S
C501 C496 1.425 1_565 S
C501 C498 1.409 . S
C501 C499 1.415 . S
C502 H492 0.930 . S
C502 C500 1.419 . S
C502 C503 1.362 . S
C503 H493 0.930 . S
C503 C496 1.409 . S
C503 C502 1.362 . S
H504 C510 0.930 . S
H505 C513 0.930 . S
H506 C514 0.930 . S
H507 C515 0.930 . S
H508 C518 0.930 . S
H509 C519 0.930 . S
C510 H504 0.930 . S
C510 C511 1.355 1_455 S
C510 C512 1.415 . S
C511 C510 1.355 1_655 S
C511 C513 1.419 . S
C512 C510 1.415 . S
C512 C517 1.425 1_455 S
C512 C519 1.409 . S
C513 H505 0.930 . S
C513 C511 1.419 . S
C513 C514 1.362 . S
C514 H506 0.930 . S
C514 C513 1.362 . S
C514 C517 1.409 . S
C515 H507 0.930 . S
C515 C516 1.355 1_655 S
C515 C517 1.415 . S
C516 C515 1.355 1_455 S
C516 C518 1.419 . S
C517 C512 1.425 1_655 S
C517 C514 1.409 . S
C517 C515 1.415 . S
C518 H508 0.930 . S
C518 C516 1.419 . S
C518 C519 1.362 . S
C519 H509 0.930 . S
C519 C512 1.409 . S
C519 C518 1.362 . S
H520 C526 0.930 . S
H521 C529 0.930 . S
H522 C530 0.930 . S
H523 C531 0.930 . S
H524 C534 0.930 . S
H525 C535 0.930 . S
C526 H520 0.930 . S
C526 C527 1.355 1_565 S
C526 C528 1.415 . S
C527 C526 1.355 1_545 S
C527 C529 1.419 . S
C528 C526 1.415 . S
C528 C533 1.425 1_565 S
C528 C535 1.409 . S
C529 H521 0.930 . S
C529 C527 1.419 . S
C529 C530 1.362 . S
C530 H522 0.930 . S
C530 C529 1.362 . S
C530 C533 1.409 . S
C531 H523 0.930 . S
C531 C532 1.355 1_545 S
C531 C533 1.415 . S
C532 C531 1.355 1_565 S
C532 C534 1.419 . S
C533 C528 1.425 1_545 S
C533 C530 1.409 . S
C533 C531 1.415 . S
C534 H524 0.930 . S
C534 C532 1.419 . S
C534 C535 1.362 . S
C535 H525 0.930 . S
C535 C528 1.409 . S
C535 C534 1.362 . S
H536 C542 0.920 1_455 S
H537 C545 0.930 . S
H538 C546 0.930 . S
H539 C547 0.919 1_655 S
H540 C550 0.930 . S
H541 C551 0.930 . S
C542 H536 0.920 1_655 S
C542 C543 1.370 . S
C542 C544 1.409 1_655 S
C543 C542 1.370 . S
C543 C545 1.419 . S
C544 C542 1.409 1_455 S
C544 C549 1.425 1_456 S
C544 C551 1.409 . S
C545 H537 0.930 . S
C545 C543 1.419 . S
C545 C546 1.362 1_556 S
C546 H538 0.930 . S
C546 C545 1.362 1_554 S
C546 C549 1.409 . S
C547 H539 0.919 1_455 S
C547 C548 1.370 . S
C547 C549 1.409 1_455 S
C548 C547 1.370 . S
C548 C550 1.419 . S
C549 C544 1.425 1_654 S
C549 C546 1.409 . S
C549 C547 1.409 1_655 S
C550 H540 0.930 . S
C550 C548 1.419 . S
C550 C551 1.362 1_554 S
C551 H541 0.930 . S
C551 C544 1.409 . S
C551 C550 1.362 1_556 S
H552 C558 0.930 . S
H553 C561 0.930 1_565 S
H554 C562 0.930 . S
H555 C563 0.930 . S
H556 C566 0.930 1_545 S
H557 C567 0.930 . S
C558 H552 0.930 . S
C558 C559 1.355 . S
C558 C560 1.415 . S
C559 C558 1.355 . S
C559 C561 1.419 . S
C560 C558 1.415 . S
C560 C565 1.425 1_545 S
C560 C567 1.409 . S
C561 H553 0.930 1_545 S
C561 C559 1.419 . S
C561 C562 1.362 1_545 S
C562 H554 0.930 . S
C562 C561 1.362 1_565 S
C562 C565 1.409 . S
C563 H555 0.930 . S
C563 C564 1.355 . S
C563 C565 1.415 . S
C564 C563 1.355 . S
C564 C566 1.419 . S
C565 C560 1.425 1_565 S
C565 C562 1.409 . S
C565 C563 1.415 . S
C566 H556 0.930 1_565 S
C566 C564 1.419 . S
C566 C567 1.362 1_565 S
C567 H557 0.930 . S
C567 C560 1.409 . S
C567 C566 1.362 1_545 S
H568 C574 0.930 . S
H569 C577 0.930 1_455 S
H570 C578 0.930 . S
H571 C579 0.930 . S
H572 C582 0.930 1_655 S
H573 C583 0.930 . S
C574 H568 0.930 . S
C574 C575 1.355 . S
C574 C576 1.381 1_554 S
C575 C574 1.355 . S
C575 C577 1.419 . S
C576 C574 1.381 1_556 S
C576 C581 1.422 1_656 S
C576 C583 1.446 . S
C577 H569 0.930 1_655 S
C577 C575 1.419 . S
C577 C578 1.362 1_655 S
C578 H570 0.930 . S
C578 C577 1.362 1_455 S
C578 C581 1.446 . S
C579 H571 0.930 . S
C579 C580 1.355 . S
C579 C581 1.381 1_556 S
C580 C579 1.355 . S
C580 C582 1.419 . S
C581 C576 1.422 1_454 S
C581 C578 1.446 . S
C581 C579 1.381 1_554 S
C582 H572 0.930 1_455 S
C582 C580 1.419 . S
C582 C583 1.362 1_455 S
C583 H573 0.930 . S
C583 C576 1.446 . S
C583 C582 1.362 1_655 S
H584 C590 0.930 . S
H585 C593 0.930 . S
H586 C594 0.930 . S
H587 C595 0.930 . S
H588 C598 0.930 . S
H589 C599 0.930 . S
C590 H584 0.930 . S
C590 C591 1.355 . S
C590 C592 1.415 . S
C591 C590 1.355 . S
C591 C593 1.419 1_545 S
C592 C590 1.415 . S
C592 C597 1.425 1_545 S
C592 C599 1.409 . S
C593 H585 0.930 . S
C593 C591 1.419 1_565 S
C593 C594 1.362 . S
C594 H586 0.930 . S
C594 C593 1.362 . S
C594 C597 1.409 . S
C595 H587 0.930 . S
C595 C596 1.355 . S
C595 C597 1.415 . S
C596 C595 1.355 . S
C596 C598 1.419 1_565 S
C597 C592 1.425 1_565 S
C597 C594 1.409 . S
C597 C595 1.415 . S
C598 H588 0.930 . S
C598 C596 1.419 1_545 S
C598 C599 1.362 . S
C599 H589 0.930 . S
C599 C592 1.409 . S
C599 C598 1.362 . S
H600 C606 0.930 . S
H601 C609 0.930 . S
H602 C610 0.930 . S
H603 C611 0.930 . S
H604 C614 0.930 . S
H605 C615 0.930 . S
C606 H600 0.930 . S
C606 C607 1.355 . S
C606 C608 1.415 . S
C607 C606 1.355 . S
C607 C609 1.419 . S
C608 C606 1.415 . S
C608 C613 1.425 . S
C608 C615 1.409 . S
C609 H601 0.930 . S
C609 C607 1.419 . S
C609 C610 1.362 . S
C610 H602 0.930 . S
C610 C609 1.362 . S
C610 C613 1.409 . S
C611 H603 0.930 . S
C611 C612 1.355 . S
C611 C613 1.415 . S
C612 C611 1.355 . S
C612 C614 1.419 . S
C613 C608 1.425 . S
C613 C610 1.409 . S
C613 C611 1.415 . S
C614 H604 0.930 . S
C614 C612 1.419 . S
C614 C615 1.362 . S
C615 H605 0.930 . S
C615 C608 1.409 . S
C615 C614 1.362 . S
H616 C622 0.930 . S
H617 C625 0.930 . S
H618 C626 0.930 . S
H619 C627 0.930 . S
H620 C630 0.930 . S
H621 C631 0.930 . S
C622 H616 0.930 . S
C622 C623 1.355 . S
C622 C624 1.415 . S
C623 C622 1.355 . S
C623 C625 1.419 . S
C624 C622 1.415 . S
C624 C629 1.425 . S
C624 C631 1.409 . S
C625 H617 0.930 . S
C625 C623 1.419 . S
C625 C626 1.362 . S
C626 H618 0.930 . S
C626 C625 1.362 . S
C626 C629 1.409 . S
C627 H619 0.930 . S
C627 C628 1.355 . S
C627 C629 1.415 . S
C628 C627 1.355 . S
C628 C630 1.419 . S
C629 C624 1.425 . S
C629 C626 1.409 . S
C629 C627 1.415 . S
C630 H620 0.930 . S
C630 C628 1.419 . S
C630 C631 1.362 . S
C631 H621 0.930 . S
C631 C624 1.409 . S
C631 C630 1.362 . S
H632 C638 0.930 . S
H633 C641 0.930 . S
H634 C642 0.930 . S
H635 C643 0.930 . S
H636 C646 0.930 . S
H637 C647 0.930 . S
C638 H632 0.930 . S
C638 C639 1.355 . S
C638 C640 1.415 . S
C639 C638 1.355 . S
C639 C641 1.419 . S
C640 C638 1.415 . S
C640 C645 1.425 . S
C640 C647 1.409 . S
C641 H633 0.930 . S
C641 C639 1.419 . S
C641 C642 1.362 . S
C642 H634 0.930 . S
C642 C641 1.362 . S
C642 C645 1.409 . S
C643 H635 0.930 . S
C643 C644 1.355 . S
C643 C645 1.415 . S
C644 C643 1.355 . S
C644 C646 1.419 . S
C645 C640 1.425 . S
C645 C642 1.409 . S
C645 C643 1.415 . S
C646 H636 0.930 . S
C646 C644 1.419 . S
C646 C647 1.362 . S
C647 H637 0.930 . S
C647 C640 1.409 . S
C647 C646 1.362 . S
H648 C654 0.930 . S
H649 C657 0.930 . S
H650 C658 0.930 . S
H651 C659 0.930 . S
H652 C662 0.930 . S
H653 C663 0.930 . S
C654 H648 0.930 . S
C654 C655 1.355 . S
C654 C656 1.415 . S
C655 C654 1.355 . S
C655 C657 1.419 . S
C656 C654 1.415 . S
C656 C661 1.425 . S
C656 C663 1.409 . S
C657 H649 0.930 . S
C657 C655 1.419 . S
C657 C658 1.362 . S
C658 H650 0.930 . S
C658 C657 1.362 . S
C658 C661 1.409 . S
C659 H651 0.930 . S
C659 C660 1.355 . S
C659 C661 1.415 . S
C660 C659 1.355 . S
C660 C662 1.419 . S
C661 C656 1.425 . S
C661 C658 1.409 . S
C661 C659 1.415 . S
C662 H652 0.930 . S
C662 C660 1.419 . S
C662 C663 1.362 . S
C663 H653 0.930 . S
C663 C656 1.409 . S
C663 C662 1.362 . S
H664 C670 0.930 . S
H665 C673 0.930 . S
H666 C674 0.930 . S
H667 C675 0.930 . S
H668 C678 0.930 . S
H669 C679 0.930 . S
C670 H664 0.930 . S
C670 C671 1.355 . S
C670 C672 1.415 . S
C671 C670 1.355 . S
C671 C673 1.419 1_455 S
C672 C670 1.415 . S
C672 C677 1.425 1_445 S
C672 C679 1.409 1_545 S
C673 H665 0.930 . S
C673 C671 1.419 1_655 S
C673 C674 1.362 . S
C674 H666 0.930 . S
C674 C673 1.362 . S
C674 C677 1.409 1_545 S
C675 H667 0.930 . S
C675 C676 1.355 . S
C675 C677 1.415 . S
C676 C675 1.355 . S
C676 C678 1.419 1_655 S
C677 C672 1.425 1_665 S
C677 C674 1.409 1_565 S
C677 C675 1.415 . S
C678 H668 0.930 . S
C678 C676 1.419 1_455 S
C678 C679 1.362 . S
C679 H669 0.930 . S
C679 C672 1.409 1_565 S
C679 C678 1.362 . S
H680 C686 0.930 . S
H681 C689 0.930 . S
H682 C690 0.930 . S
H683 C691 0.930 . S
H684 C694 0.930 . S
H685 C695 0.930 . S
C686 H680 0.930 . S
C686 C687 1.355 . S
C686 C688 1.415 . S
C687 C686 1.355 . S
C687 C689 1.419 1_565 S
C688 C686 1.415 . S
C688 C693 1.425 1_465 S
C688 C695 1.409 1_455 S
C689 H681 0.930 . S
C689 C687 1.419 1_545 S
C689 C690 1.362 . S
C690 H682 0.930 . S
C690 C689 1.362 . S
C690 C693 1.409 1_455 S
C691 H683 0.930 . S
C691 C692 1.355 . S
C691 C693 1.415 . S
C692 C691 1.355 . S
C692 C694 1.419 1_545 S
C693 C688 1.425 1_645 S
C693 C690 1.409 1_655 S
C693 C691 1.415 . S
C694 H684 0.930 . S
C694 C692 1.419 1_565 S
C694 C695 1.362 . S
C695 H685 0.930 . S
C695 C688 1.409 1_655 S
C695 C694 1.362 . S
H696 C702 0.930 . S
H697 C705 0.930 . S
H698 C706 0.930 . S
H699 C707 0.930 . S
H700 C710 0.930 . S
H701 C711 0.930 . S
C702 H696 0.930 . S
C702 C703 1.355 1_455 S
C702 C704 1.415 . S
C703 C702 1.355 1_655 S
C703 C705 1.419 . S
C704 C702 1.415 . S
C704 C709 1.425 1_445 S
C704 C711 1.409 1_545 S
C705 H697 0.930 . S
C705 C703 1.419 . S
C705 C706 1.362 . S
C706 H698 0.930 . S
C706 C705 1.362 . S
C706 C709 1.409 1_545 S
C707 H699 0.930 . S
C707 C708 1.355 1_655 S
C707 C709 1.415 . S
C708 C707 1.355 1_455 S
C708 C710 1.419 . S
C709 C704 1.425 1_665 S
C709 C706 1.409 1_565 S
C709 C707 1.415 . S
C710 H700 0.930 . S
C710 C708 1.419 . S
C710 C711 1.362 . S
C711 H701 0.930 . S
C711 C704 1.409 1_565 S
C711 C710 1.362 . S
H712 C718 0.930 . S
H713 C721 0.930 . S
H714 C722 0.930 . S
H715 C723 0.930 . S
H716 C726 0.930 . S
H717 C727 0.930 . S
C718 H712 0.930 . S
C718 C719 1.355 . S
C718 C720 1.415 . S
C719 C718 1.355 . S
C719 C721 1.419 1_565 S
C720 C718 1.415 . S
C720 C725 1.425 1_665 S
C720 C727 1.409 1_655 S
C721 H713 0.930 . S
C721 C719 1.419 1_545 S
C721 C722 1.362 . S
C722 H714 0.930 . S
C722 C721 1.362 . S
C722 C725 1.409 1_655 S
C723 H715 0.930 . S
C723 C724 1.355 . S
C723 C725 1.415 . S
C724 C723 1.355 . S
C724 C726 1.419 1_545 S
C725 C720 1.425 1_445 S
C725 C722 1.409 1_455 S
C725 C723 1.415 . S
C726 H716 0.930 . S
C726 C724 1.419 1_565 S
C726 C727 1.362 . S
C727 H717 0.930 . S
C727 C720 1.409 1_455 S
C727 C726 1.362 . S
C479 C5 1.391 . S
C484 C123 1.396 . S
C495 C182 1.391 . S
C500 C64 1.397 . S
C511 C359 1.395 . S
C516 C241 1.392 . S
C527 C300 1.389 . S
C532 C418 1.408 . S
C543 C357 1.593 . S
C548 C3 1.604 . S
C559 C62 1.525 . S
C564 C416 1.539 . S
C575 C121 1.560 . S
C580 C239 1.533 . S
C591 C298 1.555 . S
C596 C180 1.531 . S
C607 C33 1.345 . S
C612 C328 1.367 . S
C623 C387 1.340 . S
C628 C92 1.382 . S
C639 C446 1.381 . S
C644 C151 1.382 . S
C655 C210 1.346 . S
C660 C269 1.394 . S
C671 C52 1.059 . S
C676 C170 1.041 . S
C687 C229 1.032 . S
C692 C111 1.058 . S
C703 C406 0.998 . S
C708 C288 1.023 . S
C719 C465 1.050 . S
C724 C347 1.056 . S
