# Generated by pormake.
# Topology hcp, (12)-cn, num edge types: 1
# Building blocks:
#     Node 0, Type 0, BuildingBlock: BOTCEU_clean_sbu_0, # of connection points: 12
#     Node 1, Type 0, BuildingBlock: BOTCEU_clean_sbu_0, # of connection points: 12
#     Edge 2, Type (0, 0), BuildingBlock: MIFKUJ_clean_linker_0, # of connection points: 2
#     Edge 3, Type (0, 0), BuildingBlock: MIFKUJ_clean_linker_0, # of connection points: 2
#     Edge 4, Type (0, 0), BuildingBlock: MIFKUJ_clean_linker_0, # of connection points: 2
#     Edge 5, Type (0, 0), BuildingBlock: MIFKUJ_clean_linker_0, # of connection points: 2
#     Edge 6, Type (0, 0), BuildingBlock: MIFKUJ_clean_linker_0, # of connection points: 2
#     Edge 7, Type (0, 0), BuildingBlock: MIFKUJ_clean_linker_0, # of connection points: 2
#     Edge 8, Type (0, 0), BuildingBlock: MIFKUJ_clean_linker_0, # of connection points: 2
#     Edge 9, Type (0, 0), BuildingBlock: MIFKUJ_clean_linker_0, # of connection points: 2
#     Edge 10, Type (0, 0), BuildingBlock: MIFKUJ_clean_linker_0, # of connection points: 2
#     Edge 11, Type (0, 0), BuildingBlock: MIFKUJ_clean_linker_0, # of connection points: 2
#     Edge 12, Type (0, 0), BuildingBlock: MIFKUJ_clean_linker_0, # of connection points: 2
#     Edge 13, Type (0, 0), BuildingBlock: MIFKUJ_clean_linker_0, # of connection points: 2
# Relax obj value: 0.156
# Max RMSD: 0.245
# Mean RMSD: 0.245
data_MOF--net-hcp--node1-BOTCEU_clean_sbu_0--edge1-MIFKUJ_clean_linker_0
_symmetry_space_group_name_H-M    P1
_symmetry_Int_Tables_number       1
_symmetry_cell_setting            triclinic
loop_
_symmetry_equiv_pos_as_xyz
'x, y, z'
_cell_length_a     30.990527
_cell_length_b     26.190438
_cell_length_c     50.496188
_cell_angle_alpha  97.278789
_cell_angle_beta   88.657221
_cell_angle_gamma 123.78596
loop_
_atom_site_label
_atom_site_type_symbol
_atom_site_fract_x
_atom_site_fract_y
_atom_site_fract_z
_atom_type_partial_charge
C0 C 0.40576 0.09314 0.2756 0.0
C1 C 0.40921 0.0479 0.28529 0.0
C2 C 0.43551 0.07571 0.31035 0.0
N3 N 0.42816 0.14355 0.29414 0.0
N4 N 0.44595 0.13334 0.31488 0.0
C5 C 0.37701 0.08624 0.25057 0.0
H6 H 0.37916 0.12924 0.24872 0.0
H7 H 0.33573 0.04688 0.25055 0.0
H8 H 0.39424 0.07591 0.23292 0.0
C9 C 0.45037 0.04806 0.32947 0.0
H10 H 0.48267 0.08512 0.34363 0.0
H11 H 0.46192 0.0185 0.31832 0.0
H12 H 0.41658 0.01829 0.34106 0.0
C13 C 0.8293 0.39745 0.13328 0.0
C14 C 0.7668 0.39987 0.1146 0.0
C15 C 0.81402 0.40645 0.10944 0.0
N16 N 0.79315 0.38679 0.15108 0.0
N17 N 0.75606 0.38872 0.14002 0.0
H18 H 0.87428 0.35829 0.13071 0.0
H19 H 0.91173 0.44081 0.13062 0.0
H20 H 0.88589 0.40811 0.16144 0.0
C21 C 0.87835 0.40187 0.13951 0.0
H22 H 0.73241 0.37854 0.07487 0.0
H23 H 0.74238 0.44711 0.09429 0.0
H24 H 0.69017 0.37195 0.10172 0.0
C25 C 0.73059 0.39891 0.09519 0.0
C26 C 0.40722 0.24319 0.35127 0.0
C27 C 0.5255 0.25669 0.2661 0.0
C28 C 0.70246 0.15851 0.32469 0.0
N29 N 0.72732 0.21747 0.31945 0.0
N30 N 0.73926 0.2192 0.29422 0.0
C31 C 0.69705 0.12083 0.30114 0.0
C32 C 0.72162 0.16153 0.28231 0.0
H33 H 0.69973 0.17762 0.36727 0.0
H34 H 0.72668 0.13313 0.35697 0.0
H35 H 0.65789 0.09658 0.3533 0.0
C36 C 0.69601 0.14071 0.35222 0.0
H37 H 0.73942 0.18287 0.24216 0.0
H38 H 0.70026 0.10044 0.24522 0.0
H39 H 0.76858 0.14704 0.25495 0.0
C40 C 0.73281 0.14705 0.25442 0.0
C41 C 0.34815 0.24069 0.25111 0.0
C42 C 0.32916 0.18419 0.28388 0.0
N43 N 0.39191 0.25034 0.26143 0.0
N44 N 0.38069 0.21663 0.28102 0.0
C45 C 0.30688 0.19821 0.26489 0.0
H46 H 0.33276 0.24053 0.21008 0.0
H47 H 0.31852 0.28629 0.2334 0.0
H48 H 0.38559 0.31433 0.22676 0.0
C49 C 0.34638 0.27276 0.22911 0.0
C50 C 0.30179 0.1384 0.30317 0.0
H51 H 0.26428 0.09753 0.29386 0.0
H52 H 0.29325 0.1604 0.32089 0.0
H53 H 0.32663 0.1236 0.30984 0.0
C54 C 0.86511 0.39274 0.32898 0.0
C55 C 0.675 0.30242 0.3193 0.0
C56 C 0.63436 0.2447 0.13284 0.0
N57 N 0.64157 0.29284 0.14986 0.0
C58 C 0.58179 0.20579 0.12483 0.0
N59 N 0.59672 0.28641 0.15349 0.0
C60 C 0.55906 0.23394 0.13856 0.0
H61 H 0.69297 0.26502 0.10487 0.0
H62 H 0.66334 0.19028 0.11598 0.0
H63 H 0.70962 0.2607 0.13793 0.0
C64 C 0.67754 0.23955 0.12237 0.0
H65 H 0.49493 0.24094 0.14973 0.0
C66 C 0.50531 0.21805 0.13331 0.0
H67 H 0.50352 0.23388 0.11423 0.0
H68 H 0.47653 0.16721 0.13135 0.0
C69 C 0.754 0.31221 0.41782 0.0
C70 C 0.80758 0.3049 0.3906 0.0
N71 N 0.7353 0.29986 0.39247 0.0
N72 N 0.76749 0.29576 0.37622 0.0
C73 C 0.80138 0.31761 0.41753 0.0
H74 H 0.72234 0.28913 0.45583 0.0
C75 C 0.72846 0.32156 0.44173 0.0
H76 H 0.69053 0.313 0.43577 0.0
H77 H 0.75386 0.36912 0.45252 0.0
H78 H 0.86491 0.28324 0.38888 0.0
H79 H 0.88779 0.3594 0.38174 0.0
C80 C 0.8543 0.31019 0.37868 0.0
H81 H 0.84631 0.29233 0.35702 0.0
C82 C 0.69097 0.47365 0.15111 0.0
C83 C 0.69082 0.33314 0.21297 0.0
C84 C 0.90663 0.46821 0.23845 0.0
N85 N 0.85869 0.42292 0.2283 0.0
C86 C 0.92577 0.51718 0.22358 0.0
C87 C 0.88579 0.49762 0.20455 0.0
N88 N 0.84591 0.44031 0.20823 0.0
C89 C 0.93632 0.4601 0.25859 0.0
H90 H 0.90932 0.42258 0.27032 0.0
H91 H 0.96191 0.44795 0.24803 0.0
H92 H 0.96114 0.50347 0.27249 0.0
C93 C 0.88703 0.53104 0.18232 0.0
H94 H 0.8469 0.51364 0.17522 0.0
H95 H 0.90915 0.5817 0.18915 0.0
H96 H 0.90699 0.5232 0.16539 0.0
C97 C 0.43766 0.12837 0.39259 0.0
C98 C 0.46375 0.13532 0.41664 0.0
C99 C 0.51332 0.18727 0.41525 0.0
N100 N 0.47099 0.17468 0.37836 0.0
N101 N 0.51626 0.20784 0.39193 0.0
H102 H 0.35562 0.07723 0.39608 0.0
H103 H 0.37965 0.03112 0.38354 0.0
H104 H 0.37547 0.07917 0.36197 0.0
C105 C 0.38399 0.07589 0.38269 0.0
C106 C 0.55939 0.21119 0.43399 0.0
H107 H 0.55053 0.22183 0.45457 0.0
H108 H 0.5676 0.17509 0.43433 0.0
H109 H 0.5942 0.25349 0.42786 0.0
C110 C 0.78539 0.26164 0.18007 0.0
C111 C 0.76364 0.37685 0.27011 0.0
C112 C 0.53592 0.46282 0.23204 0.0
C113 C 0.52245 0.48027 0.25641 0.0
C114 C 0.49298 0.42531 0.26781 0.0
N115 N 0.51589 0.40187 0.22969 0.0
N116 N 0.49045 0.37922 0.25104 0.0
C117 C 0.56666 0.50309 0.21121 0.0
H118 H 0.55777 0.47507 0.19132 0.0
H119 H 0.5585 0.53911 0.21035 0.0
H120 H 0.60874 0.52654 0.21639 0.0
C121 C 0.46909 0.41705 0.29429 0.0
H122 H 0.46224 0.37479 0.30138 0.0
H123 H 0.49441 0.4585 0.30918 0.0
H124 H 0.43111 0.41151 0.29206 0.0
C125 C 0.87057 0.27006 0.27342 0.0
C126 C 0.90025 0.27417 0.25164 0.0
C127 C 0.88744 0.29978 0.23326 0.0
N128 N 0.84229 0.29206 0.26782 0.0
N129 N 0.85186 0.30915 0.24382 0.0
C130 C 0.86616 0.24179 0.29817 0.0
H131 H 0.89953 0.27586 0.31243 0.0
H132 H 0.86713 0.19991 0.29327 0.0
H133 H 0.82988 0.22959 0.30804 0.0
C134 C 0.91053 0.31828 0.20701 0.0
H135 H 0.95253 0.33643 0.20822 0.0
H136 H 0.89079 0.27706 0.19145 0.0
H137 H 0.90506 0.3538 0.20105 0.0
C138 C 0.42584 0.22059 0.19758 0.0
C139 C 0.62409 0.40238 0.22489 0.0
C140 C 0.60481 0.371 0.40505 0.0
N141 N 0.61652 0.33404 0.39098 0.0
N142 N 0.66656 0.35758 0.39369 0.0
C143 C 0.64996 0.42171 0.41807 0.0
C144 C 0.68879 0.41162 0.41052 0.0
H145 H 0.52421 0.31965 0.39138 0.0
H146 H 0.53641 0.33316 0.42718 0.0
H147 H 0.54913 0.39576 0.40993 0.0
C148 C 0.55039 0.35398 0.40841 0.0
H149 H 0.76654 0.43266 0.41034 0.0
H150 H 0.76179 0.4992 0.41543 0.0
H151 H 0.74796 0.45431 0.4421 0.0
C152 C 0.74473 0.45143 0.42005 0.0
C153 C 0.54323 0.3727 0.1286 0.0
N154 N 0.55083 0.36381 0.15315 0.0
N155 N 0.51399 0.35892 0.16845 0.0
C156 C 0.49994 0.37591 0.12845 0.0
C157 C 0.4826 0.36738 0.15432 0.0
C158 C 0.57808 0.38041 0.10627 0.0
H159 H 0.59779 0.42813 0.10104 0.0
H160 H 0.55495 0.34747 0.08827 0.0
H161 H 0.6074 0.37158 0.11211 0.0
C162 C 0.43863 0.36973 0.16555 0.0
H163 H 0.4519 0.41892 0.17102 0.0
H164 H 0.40568 0.3476 0.15036 0.0
H165 H 0.42594 0.34657 0.18379 0.0
C166 C 0.60503 0.16943 0.37762 0.0
C167 C 0.56713 0.31038 0.33017 0.0
Cu168 Cu 0.43531 0.21926 0.29707 0.0
Cu169 Cu 0.47411 0.19702 0.34345 0.0
Cu170 Cu 0.75638 0.29485 0.34013 0.0
Cu171 Cu 0.79146 0.29649 0.28549 0.0
Cu172 Cu 0.70031 0.37074 0.16108 0.0
Cu173 Cu 0.60131 0.35802 0.1684 0.0
Cu174 Cu 0.81572 0.34005 0.23215 0.0
Cu175 Cu 0.7879 0.3766 0.18713 0.0
Cu176 Cu 0.51928 0.34742 0.20382 0.0
Cu177 Cu 0.45984 0.29411 0.25119 0.0
Cu178 Cu 0.57401 0.25533 0.37361 0.0
Cu179 Cu 0.684 0.30351 0.37636 0.0
H180 H 0.42569 0.27334 0.37058 0.0
H181 H 0.37728 0.19527 0.35506 0.0
H182 H 0.38888 0.26144 0.34049 0.0
H183 H 0.52661 0.22628 0.27908 0.0
H184 H 0.56526 0.29823 0.2651 0.0
H185 H 0.51029 0.23052 0.24579 0.0
H186 H 0.88154 0.43232 0.31738 0.0
H187 H 0.88847 0.37244 0.3265 0.0
H188 H 0.86606 0.40971 0.35036 0.0
H189 H 0.68655 0.28275 0.30208 0.0
H190 H 0.6765 0.34336 0.3143 0.0
H191 H 0.63509 0.26598 0.32385 0.0
H192 H 0.66451 0.48956 0.15449 0.0
H193 H 0.69156 0.4611 0.12941 0.0
H194 H 0.73074 0.51156 0.15915 0.0
H195 H 0.65095 0.30504 0.20344 0.0
H196 H 0.69134 0.36098 0.23148 0.0
H197 H 0.70176 0.30153 0.21776 0.0
H198 H 0.7494 0.22994 0.16712 0.0
H199 H 0.81878 0.28773 0.16758 0.0
H200 H 0.79237 0.23378 0.19192 0.0
H201 H 0.77907 0.41122 0.25584 0.0
H202 H 0.72197 0.35802 0.27234 0.0
H203 H 0.7854 0.40029 0.2897 0.0
H204 H 0.43722 0.19059 0.18678 0.0
H205 H 0.39199 0.19222 0.20945 0.0
H206 H 0.41512 0.24067 0.18305 0.0
H207 H 0.61675 0.43868 0.23155 0.0
H208 H 0.62391 0.3804 0.24226 0.0
H209 H 0.66271 0.42456 0.21625 0.0
H210 H 0.60678 0.14075 0.3601 0.0
H211 H 0.63216 0.17834 0.39423 0.0
H212 H 0.56472 0.14364 0.38414 0.0
H213 H 0.58835 0.31246 0.31203 0.0
H214 H 0.53529 0.31567 0.32549 0.0
H215 H 0.59443 0.34958 0.34535 0.0
O216 O 0.44431 0.24292 0.3361 0.0
O217 O 0.49362 0.27444 0.27624 0.0
O218 O 0.81471 0.34881 0.31988 0.0
O219 O 0.70831 0.31996 0.34095 0.0
O220 O 0.67379 0.42318 0.16404 0.0
O221 O 0.72498 0.37205 0.19594 0.0
O222 O 0.77955 0.30227 0.19704 0.0
O223 O 0.76944 0.32962 0.26073 0.0
O224 O 0.46664 0.26735 0.21431 0.0
O225 O 0.58644 0.35851 0.20593 0.0
O226 O 0.61767 0.22454 0.37024 0.0
O227 O 0.54782 0.25502 0.3397 0.0
C228 C 0.07844 0.53841 0.74695 0.0
C229 C 0.05102 0.4883 0.76114 0.0
C230 C 0.08512 0.50167 0.78248 0.0
N231 N 0.12499 0.57905 0.75977 0.0
N232 N 0.12918 0.55756 0.78106 0.0
C233 C 0.0588 0.55042 0.72329 0.0
H234 H 0.0916 0.5798 0.71103 0.0
H235 H 0.04041 0.57553 0.73017 0.0
H236 H 0.02928 0.50607 0.71101 0.0
C237 C 0.07252 0.46657 0.80584 0.0
H238 H 0.10761 0.48605 0.8192 0.0
H239 H 0.05693 0.41725 0.79864 0.0
H240 H 0.04188 0.46785 0.81709 0.0
C241 C 0.59458 0.89788 0.6431 0.0
C242 C 0.53127 0.83675 0.61239 0.0
C243 C 0.57851 0.89356 0.61656 0.0
N244 N 0.55787 0.84607 0.6535 0.0
N245 N 0.5197 0.81155 0.63509 0.0
H246 H 0.67675 0.96201 0.64888 0.0
H247 H 0.64008 0.99451 0.65831 0.0
H248 H 0.6427 0.94492 0.67956 0.0
C249 C 0.64111 0.95293 0.65865 0.0
H250 H 0.51054 0.81022 0.57037 0.0
H251 H 0.48155 0.84689 0.5877 0.0
H252 H 0.45738 0.76762 0.5914 0.0
C253 C 0.49263 0.81367 0.58922 0.0
C254 C 0.19447 0.738 0.81088 0.0
C255 C 0.23149 0.62764 0.72535 0.0
C256 C 0.44929 0.53429 0.79546 0.0
N257 N 0.46409 0.59361 0.79801 0.0
N258 N 0.49668 0.62187 0.77955 0.0
C259 C 0.47362 0.5241 0.77392 0.0
C260 C 0.50339 0.58105 0.76423 0.0
H261 H 0.38867 0.50457 0.82331 0.0
H262 H 0.43319 0.48211 0.82779 0.0
H263 H 0.38496 0.44247 0.80046 0.0
C264 C 0.41147 0.48815 0.81271 0.0
H265 H 0.56255 0.64731 0.74086 0.0
H266 H 0.51492 0.57245 0.72248 0.0
H267 H 0.56415 0.57981 0.74372 0.0
C268 C 0.53863 0.59658 0.74157 0.0
C269 C 0.13488 0.74551 0.71406 0.0
C270 C 0.10382 0.70518 0.75136 0.0
N271 N 0.15927 0.71973 0.72127 0.0
N272 N 0.14161 0.69703 0.74384 0.0
C273 C 0.0986 0.73658 0.7328 0.0
H274 H 0.11044 0.75869 0.67771 0.0
H275 H 0.16234 0.82828 0.6969 0.0
H276 H 0.17584 0.77545 0.67826 0.0
C277 C 0.14674 0.77872 0.6902 0.0
C278 C 0.07398 0.68404 0.77582 0.0
H279 H 0.03187 0.65182 0.77009 0.0
H280 H 0.07948 0.7246 0.78913 0.0
H281 H 0.08688 0.65999 0.78662 0.0
C282 C 0.53834 0.76794 0.83625 0.0
C283 C 0.35147 0.58217 0.78974 0.0
C284 C 0.43014 0.65203 0.61313 0.0
N285 N 0.41532 0.68689 0.62629 0.0
C286 C 0.39208 0.61097 0.59334 0.0
N287 N 0.36962 0.67051 0.61666 0.0
C288 C 0.35403 0.62426 0.59609 0.0
H289 H 0.50389 0.6969 0.63518 0.0
H290 H 0.50638 0.68896 0.59913 0.0
H291 H 0.48186 0.62236 0.61606 0.0
C292 C 0.48375 0.66595 0.61622 0.0
H293 H 0.28088 0.61115 0.58671 0.0
C294 C 0.30636 0.59657 0.57822 0.0
H295 H 0.31775 0.61145 0.55818 0.0
H296 H 0.28498 0.54525 0.57559 0.0
C297 C 0.39463 0.60194 0.89209 0.0
C298 C 0.46392 0.61182 0.87384 0.0
N299 N 0.39644 0.61455 0.86699 0.0
N300 N 0.43847 0.62207 0.85625 0.0
C301 C 0.4371 0.5991 0.89727 0.0
H302 H 0.32667 0.54097 0.91194 0.0
C303 C 0.35237 0.59118 0.91025 0.0
H304 H 0.32923 0.60694 0.90228 0.0
H305 H 0.36899 0.61646 0.93055 0.0
H306 H 0.50269 0.56554 0.86559 0.0
H307 H 0.541 0.64006 0.88555 0.0
C308 C 0.51224 0.61353 0.86827 0.0
H309 H 0.52904 0.63456 0.84982 0.0
C310 C 0.4361 0.85836 0.63948 0.0
C311 C 0.44183 0.6993 0.69143 0.0
C312 C 0.58112 0.90855 0.75972 0.0
N313 N 0.56458 0.86137 0.74002 0.0
C314 C 0.58312 0.95664 0.74938 0.0
C315 C 0.56501 0.93309 0.72265 0.0
N316 N 0.55514 0.87568 0.71776 0.0
C317 C 0.59847 0.90879 0.78717 0.0
H318 H 0.57149 0.86274 0.79378 0.0
H319 H 0.6376 0.91686 0.78662 0.0
H320 H 0.60011 0.94558 0.80162 0.0
C321 C 0.56178 0.96691 0.70187 0.0
H322 H 0.54597 0.93661 0.68241 0.0
H323 H 0.53603 0.98257 0.70835 0.0
H324 H 0.60088 0.00888 0.69979 0.0
C325 C 0.12179 0.5921 0.85548 0.0
C326 C 0.1269 0.57761 0.88044 0.0
C327 C 0.1742 0.58265 0.88021 0.0
N328 N 0.16329 0.60359 0.84161 0.0
N329 N 0.19435 0.59758 0.85637 0.0
H330 H 0.08088 0.63543 0.85312 0.0
H331 H 0.0399 0.55236 0.85029 0.0
H332 H 0.07782 0.59006 0.82246 0.0
C333 C 0.07733 0.59203 0.84453 0.0
C334 C 0.20167 0.57817 0.90285 0.0
H335 H 0.19329 0.59518 0.92226 0.0
H336 H 0.18773 0.52896 0.90293 0.0
H337 H 0.24423 0.60543 0.90041 0.0
C338 C 0.60386 0.76667 0.68736 0.0
C339 C 0.45852 0.73597 0.75825 0.0
C340 C 0.31822 0.86227 0.67793 0.0
C341 C 0.31752 0.89526 0.7017 0.0
C342 C 0.28641 0.85017 0.71793 0.0
N343 N 0.29032 0.80162 0.68069 0.0
N344 N 0.27041 0.79443 0.70431 0.0
C345 C 0.33802 0.88704 0.65208 0.0
H346 H 0.34421 0.85531 0.63859 0.0
H347 H 0.30857 0.89062 0.64198 0.0
H348 H 0.37459 0.93397 0.65571 0.0
C349 C 0.26501 0.85898 0.74369 0.0
H350 H 0.24504 0.81597 0.75322 0.0
H351 H 0.29666 0.89771 0.75759 0.0
H352 H 0.23693 0.87116 0.7397 0.0
C353 C 0.63593 0.75824 0.7881 0.0
C354 C 0.68069 0.80122 0.77624 0.0
C355 C 0.66353 0.82337 0.75827 0.0
N356 N 0.59547 0.75586 0.7775 0.0
N357 N 0.61179 0.79394 0.75938 0.0
C358 C 0.63077 0.71659 0.80742 0.0
H359 H 0.66817 0.73687 0.81893 0.0
H360 H 0.61914 0.67111 0.79619 0.0
H361 H 0.59972 0.70825 0.82119 0.0
C362 C 0.69466 0.86635 0.73841 0.0
H363 H 0.72773 0.91079 0.74893 0.0
H364 H 0.7109 0.8456 0.7245 0.0
H365 H 0.67026 0.87589 0.72703 0.0
C366 C 0.15244 0.63524 0.65762 0.0
C367 C 0.3343 0.70992 0.68684 0.0
C368 C 0.31621 0.73906 0.87172 0.0
N369 N 0.3124 0.69101 0.85614 0.0
N370 N 0.35676 0.6956 0.85782 0.0
C371 C 0.36594 0.77615 0.88404 0.0
C372 C 0.39061 0.74687 0.87465 0.0
H373 H 0.24467 0.72608 0.85929 0.0
H374 H 0.24984 0.7183 0.89371 0.0
H375 H 0.2856 0.79441 0.8835 0.0
C376 C 0.27154 0.74513 0.87729 0.0
H377 H 0.45508 0.7372 0.87211 0.0
H378 H 0.47052 0.81082 0.88922 0.0
H379 H 0.43419 0.74253 0.90542 0.0
C380 C 0.44067 0.76018 0.88586 0.0
C381 C 0.30701 0.73992 0.58377 0.0
N382 N 0.31088 0.73867 0.61005 0.0
N383 N 0.27245 0.73876 0.62175 0.0
C384 C 0.26239 0.73846 0.57829 0.0
C385 C 0.2426 0.73976 0.60332 0.0
C386 C 0.3449 0.74194 0.56426 0.0
H387 H 0.36763 0.78852 0.55767 0.0
H388 H 0.32468 0.70771 0.54616 0.0
H389 H 0.37214 0.7339 0.5737 0.0
C390 C 0.19249 0.73365 0.60906 0.0
H391 H 0.18993 0.76729 0.59906 0.0
H392 H 0.15941 0.68631 0.601 0.0
H393 H 0.18979 0.74256 0.63089 0.0
C394 C 0.25468 0.50751 0.85599 0.0
C395 C 0.28336 0.65169 0.78884 0.0
Cu396 Cu 0.17214 0.66234 0.75834 0.0
Cu397 Cu 0.18147 0.61684 0.80635 0.0
Cu398 Cu 0.448 0.64068 0.8212 0.0
Cu399 Cu 0.52435 0.70643 0.78133 0.0
Cu400 Cu 0.45462 0.76254 0.64707 0.0
Cu401 Cu 0.35079 0.72507 0.63117 0.0
Cu402 Cu 0.56122 0.78838 0.73788 0.0
Cu403 Cu 0.53978 0.81778 0.68765 0.0
Cu404 Cu 0.26644 0.72846 0.65775 0.0
Cu405 Cu 0.2133 0.71554 0.70772 0.0
Cu406 Cu 0.25568 0.61452 0.84133 0.0
Cu407 Cu 0.35367 0.62353 0.84579 0.0
H408 H 0.23136 0.77179 0.82289 0.0
H409 H 0.16221 0.71467 0.82435 0.0
H410 H 0.18628 0.76306 0.79787 0.0
H411 H 0.20622 0.58794 0.73641 0.0
H412 H 0.2725 0.64402 0.72939 0.0
H413 H 0.22088 0.61216 0.70366 0.0
H414 H 0.52771 0.8013 0.84312 0.0
H415 H 0.57799 0.79348 0.82877 0.0
H416 H 0.53783 0.74435 0.85312 0.0
H417 H 0.36092 0.54688 0.78655 0.0
H418 H 0.35839 0.60425 0.77143 0.0
H419 H 0.3099 0.55886 0.79411 0.0
H420 H 0.42732 0.88324 0.65577 0.0
H421 H 0.41929 0.85661 0.61997 0.0
H422 H 0.47885 0.88379 0.63884 0.0
H423 H 0.41263 0.69317 0.70597 0.0
H424 H 0.47093 0.69419 0.70071 0.0
H425 H 0.42202 0.66264 0.67405 0.0
H426 H 0.58715 0.73306 0.66878 0.0
H427 H 0.63549 0.81273 0.68236 0.0
H428 H 0.61947 0.75011 0.70112 0.0
H429 H 0.46268 0.77094 0.74625 0.0
H430 H 0.42011 0.69201 0.75316 0.0
H431 H 0.46155 0.75344 0.77976 0.0
H432 H 0.12795 0.59115 0.66611 0.0
H433 H 0.13288 0.66023 0.659 0.0
H434 H 0.15818 0.62451 0.6364 0.0
H435 H 0.3172 0.7263 0.70232 0.0
H436 H 0.32846 0.66613 0.69122 0.0
H437 H 0.37624 0.74649 0.68691 0.0
H438 H 0.277 0.48584 0.85351 0.0
H439 H 0.25235 0.51954 0.87753 0.0
H440 H 0.21489 0.4743 0.84664 0.0
H441 H 0.32074 0.67684 0.80088 0.0
H442 H 0.28431 0.62151 0.7717 0.0
H443 H 0.27793 0.686 0.78154 0.0
O444 O 0.19925 0.69471 0.79537 0.0
O445 O 0.225 0.67481 0.73356 0.0
O446 O 0.50354 0.72481 0.81612 0.0
O447 O 0.38179 0.62619 0.81088 0.0
O448 O 0.41603 0.79934 0.64481 0.0
O449 O 0.46548 0.75674 0.68326 0.0
O450 O 0.56572 0.77109 0.69933 0.0
O451 O 0.49708 0.72607 0.75285 0.0
O452 O 0.19971 0.67111 0.67159 0.0
O453 O 0.31095 0.69996 0.66236 0.0
O454 O 0.27908 0.55989 0.84373 0.0
O455 O 0.24332 0.61588 0.80432 0.0
H456 H 0.45252 0.89358 0.89115 0.0
H457 H 0.48599 0.9664 0.9328 0.0
H458 H 0.35145 0.83499 0.97243 0.0
H459 H 0.31818 0.76226 0.93089 0.0
H460 H 0.3795 0.95448 0.98782 0.0
H461 H 0.45983 0.84199 0.9791 0.0
H462 H 0.50697 0.80054 0.9556 0.0
H463 H 0.63934 0.98579 0.95218 0.0
H464 H 0.59254 0.02839 0.97518 0.0
H465 H 0.49463 0.08805 0.12092 0.0
H466 H 0.45449 0.01235 0.08022 0.0
H467 H 0.5781 0.14197 0.0346 0.0
H468 H 0.61698 0.21813 0.07479 0.0
H469 H 0.55321 0.01912 0.0236 0.0
H470 H 0.46984 0.13028 0.03152 0.0
H471 H 0.42155 0.16977 0.05535 0.0
H472 H 0.2936 0.98336 0.06139 0.0
H473 H 0.34161 0.94279 0.03802 0.0
C474 C 0.42999 0.88083 0.90872 0.0
C475 C 0.38293 0.82275 0.90797 0.0
C476 C 0.449 0.92221 0.93242 0.0
C477 C 0.42139 0.90567 0.95573 0.0
C478 C 0.3732 0.84865 0.95464 0.0
C479 C 0.35419 0.80732 0.93093 0.0
C480 C 0.44443 0.94606 0.9816 0.0
C481 C 0.41717 0.96803 0.99582 0.0
C482 C 0.4937 0.96383 0.9919 0.0
C483 C 0.52249 0.9384 0.97866 0.0
C484 C 0.49887 0.87392 0.97319 0.0
C485 C 0.52552 0.85019 0.95996 0.0
C486 C 0.57608 0.89051 0.95236 0.0
C487 C 0.60014 0.95462 0.95806 0.0
C488 C 0.57357 0.97859 0.9712 0.0
C489 C 0.513 0.10014 0.10215 0.0
C490 C 0.55898 0.15851 0.10094 0.0
C491 C 0.49029 0.057 0.07903 0.0
C492 C 0.51349 0.07177 0.05449 0.0
C493 C 0.55996 0.1296 0.05341 0.0
C494 C 0.58226 0.17285 0.0764 0.0
C495 C 0.48856 0.02807 0.02962 0.0
C496 C 0.51545 0.00534 0.01562 0.0
C497 C 0.43882 0.00925 0.01966 0.0
C498 C 0.40954 0.03352 0.03328 0.0
C499 C 0.43158 0.09772 0.03812 0.0
C500 C 0.40425 0.12031 0.05152 0.0
C501 C 0.35459 0.0791 0.05994 0.0
C502 C 0.33211 0.01522 0.05489 0.0
C503 C 0.35936 0.9924 0.04157 0.0
H504 H 0.33348 0.09666 0.07032 0.0
H505 H 0.59666 0.87207 0.9421 0.0
H506 H 0.41272 0.64046 0.54285 0.0
H507 H 0.4578 0.60981 0.51078 0.0
H508 H 0.44457 0.4828 0.5623 0.0
H509 H 0.39878 0.51257 0.59384 0.0
H510 H 0.55004 0.63167 0.52098 0.0
H511 H 0.45346 0.36991 0.52841 0.0
H512 H 0.36607 0.27614 0.53182 0.0
H513 H 0.29714 0.35594 0.49541 0.0
H514 H 0.3841 0.44979 0.49143 0.0
H515 H 0.64204 0.41022 0.47061 0.0
H516 H 0.60106 0.44862 0.50162 0.0
H517 H 0.60843 0.56165 0.44423 0.0
H518 H 0.64926 0.52299 0.4133 0.0
H519 H 0.50542 0.4208 0.487 0.0
H520 H 0.59996 0.67982 0.47776 0.0
H521 H 0.6867 0.77362 0.47314 0.0
H522 H 0.7583 0.69893 0.51126 0.0
H523 H 0.67202 0.60512 0.51645 0.0
C524 C 0.41711 0.60366 0.54652 0.0
C525 C 0.40139 0.5778 0.57046 0.0
C526 C 0.44369 0.58696 0.52847 0.0
C527 C 0.4548 0.544 0.53406 0.0
C528 C 0.4359 0.51523 0.5572 0.0
C529 C 0.40935 0.53189 0.57517 0.0
C530 C 0.4904 0.53379 0.51737 0.0
C531 C 0.53985 0.58554 0.51312 0.0
C532 C 0.47789 0.47364 0.50771 0.0
C533 C 0.42535 0.41719 0.50988 0.0
C534 C 0.41968 0.36737 0.52105 0.0
C535 C 0.37021 0.31421 0.52309 0.0
C536 C 0.32608 0.31017 0.51392 0.0
C537 C 0.33134 0.35923 0.50261 0.0
C538 C 0.38072 0.41248 0.5005 0.0
C539 C 0.63775 0.44608 0.46535 0.0
C540 C 0.64974 0.46472 0.43985 0.0
C541 C 0.61345 0.46715 0.48285 0.0
C542 C 0.60121 0.50763 0.47519 0.0
C543 C 0.61786 0.53092 0.45073 0.0
C544 C 0.64185 0.50949 0.43317 0.0
C545 C 0.56511 0.51858 0.49089 0.0
C546 C 0.51551 0.4669 0.49485 0.0
C547 C 0.57736 0.57875 0.50008 0.0
C548 C 0.62949 0.63512 0.49721 0.0
C549 C 0.63421 0.68349 0.48522 0.0
C550 C 0.6833 0.73666 0.4825 0.0
C551 C 0.72798 0.74213 0.49182 0.0
C552 C 0.72366 0.69451 0.50394 0.0
C553 C 0.67467 0.64127 0.50673 0.0
H554 H 0.76595 0.78332 0.48969 0.0
H555 H 0.28782 0.26898 0.51553 0.0
H556 H 0.8613 0.35383 0.08331 0.0
H557 H 0.91226 0.38408 0.04368 0.0
H558 H 0.88179 0.52485 0.03958 0.0
H559 H 0.83181 0.49567 0.07962 0.0
H560 H 0.87056 0.46022 0.99017 0.0
H561 H -0.00267 0.56593 0.06359 0.0
H562 H 0.0411 0.57527 0.1058 0.0
H563 H 0.08121 0.45167 0.06818 0.0
H564 H 0.03688 0.44075 0.02583 0.0
H565 H 0.07412 0.62842 0.90123 0.0
H566 H 0.01596 0.59734 0.9383 0.0
H567 H 0.03743 0.45035 0.94535 0.0
H568 H 0.0945 0.48034 0.90798 0.0
H569 H 0.05395 0.5229 0.99364 0.0
H570 H 0.90085 0.39296 0.92733 0.0
H571 H 0.84939 0.37581 0.88659 0.0
H572 H 0.86378 0.54811 0.91068 0.0
H573 H 0.91313 0.5646 0.95222 0.0
C574 C 0.86591 0.39163 0.07414 0.0
C575 C 0.84285 0.42264 0.08468 0.0
C576 C 0.89483 0.4087 0.05141 0.0
C577 C 0.9013 0.45719 0.0388 0.0
C578 C 0.87725 0.48726 0.04894 0.0
C579 C 0.84849 0.47033 0.07174 0.0
C580 C 0.93367 0.47688 0.01525 0.0
C581 C 0.91089 0.4748 0.99109 0.0
C582 C 0.98609 0.49506 0.01623 0.0
C583 C 0.01334 0.50207 0.04159 0.0
C584 C 0.01513 0.54036 0.06436 0.0
C585 C 0.04008 0.54599 0.08831 0.0
C586 C 0.06381 0.51396 0.08969 0.0
C587 C 0.06275 0.47639 0.06709 0.0
C588 C 0.03775 0.4705 0.0431 0.0
C589 C 0.0656 0.58875 0.91033 0.0
C590 C 0.0893 0.55722 0.90186 0.0
C591 C 0.03235 0.571 0.93153 0.0
C592 C 0.02215 0.52133 0.94457 0.0
C593 C 0.0449 0.48899 0.9357 0.0
C594 C 0.07786 0.50651 0.91448 0.0
C595 C 0.99062 0.50552 0.96854 0.0
C596 C 0.01368 0.50855 0.99282 0.0
C597 C 0.93865 0.48853 0.96777 0.0
C598 C 0.91103 0.48031 0.94255 0.0
C599 C 0.89319 0.42725 0.92381 0.0
C600 C 0.86418 0.41749 0.90069 0.0
C601 C 0.85399 0.46128 0.89584 0.0
C602 C 0.87196 0.51441 0.91437 0.0
C603 C 0.89998 0.52369 0.93782 0.0
H604 H 0.83188 0.45382 0.87781 0.0
H605 H 0.0831 0.51837 0.10825 0.0
H606 H 0.61714 0.90847 0.56724 0.0
H607 H 0.59796 0.95382 0.53355 0.0
H608 H 0.53889 0.0272 0.59418 0.0
H609 H 0.55948 0.98324 0.628 0.0
H610 H 0.46582 0.94839 0.55168 0.0
H611 H 0.64181 0.12499 0.56327 0.0
H612 H 0.73744 0.18197 0.56576 0.0
H613 H 0.73351 0.10537 0.48478 0.0
H614 H 0.63774 0.04716 0.48191 0.0
H615 H 0.43222 0.13343 0.46752 0.0
H616 H 0.44909 0.08862 0.50259 0.0
H617 H 0.49707 0.99911 0.44329 0.0
H618 H 0.47841 0.04206 0.4082 0.0
H619 H 0.57484 0.08582 0.4854 0.0
H620 H 0.40113 0.91005 0.47289 0.0
H621 H 0.30534 0.84698 0.4698 0.0
H622 H 0.30386 0.91545 0.55145 0.0
H623 H 0.39976 0.9802 0.55488 0.0
C624 C 0.60314 0.9376 0.57365 0.0
C625 C 0.59077 0.94323 0.60037 0.0
C626 C 0.59129 0.96267 0.55428 0.0
C627 C 0.56629 0.99337 0.56118 0.0
C628 C 0.55793 1.00353 0.58828 0.0
C629 C 0.57065 0.97938 0.60773 0.0
C630 C 0.544 0.00858 0.53986 0.0
C631 C 0.48976 0.97951 0.53751 0.0
C632 C 0.57491 0.04707 0.52066 0.0
C633 C 0.63248 0.08113 0.52248 0.0
C634 C 0.66125 0.11968 0.54609 0.0
C635 C 0.71552 0.15236 0.54755 0.0
C636 C 0.74153 0.14717 0.52547 0.0
C637 C 0.71331 0.10928 0.50188 0.0
C638 C 0.65903 0.07647 0.50032 0.0
C639 C 0.44328 0.10111 0.46182 0.0
C640 C 0.45253 0.0898 0.43502 0.0
C641 C 0.45367 0.07619 0.48193 0.0
C642 C 0.47468 0.0407 0.47566 0.0
C643 C 0.48072 0.0261 0.44866 0.0
C644 C 0.46922 0.04983 0.42853 0.0
C645 C 0.49666 0.02605 0.49733 0.0
C646 C 0.55086 0.05511 0.49969 0.0
C647 C 0.46561 0.98716 0.51641 0.0
C648 C 0.40787 0.95098 0.51399 0.0
C649 C 0.3805 0.91276 0.49004 0.0
C650 C 0.32611 0.8764 0.48826 0.0
C651 C 0.29852 0.8774 0.51037 0.0
C652 C 0.32528 0.91492 0.53429 0.0
C653 C 0.37968 0.95154 0.53615 0.0
H654 H 0.25642 0.84891 0.509 0.0
H655 H 0.78355 0.17264 0.52662 0.0
H656 H 0.49329 0.47544 0.12917 0.0
H657 H 0.47876 0.51311 0.09044 0.0
H658 H 0.45335 0.35266 0.03923 0.0
H659 H 0.46761 0.31503 0.07793 0.0
H660 H 0.52478 0.45849 0.02028 0.0
H661 H 0.35384 0.37039 0.05341 0.0
H662 H 0.29081 0.35509 0.08747 0.0
H663 H 0.34842 0.54837 0.09558 0.0
H664 H 0.41236 0.56503 0.06184 0.0
H665 H 0.44071 0.4987 0.89987 0.0
H666 H 0.44938 0.46108 0.94013 0.0
H667 H 0.46507 0.61892 0.98895 0.0
H668 H 0.45561 0.65592 0.9486 0.0
H669 H 0.39973 0.51729 0.00997 0.0
H670 H 0.57006 0.6068 0.97749 0.0
H671 H 0.63518 0.62482 0.94434 0.0
H672 H 0.58173 0.43284 0.93616 0.0
H673 H 0.51573 0.41345 0.96898 0.0
C674 C 0.4832 0.44757 0.10973 0.0
C675 C 0.48182 0.39266 0.10637 0.0
C676 C 0.47512 0.46915 0.08761 0.0
C677 C 0.46516 0.4358 0.06188 0.0
C678 C 0.46141 0.3794 0.05883 0.0
C679 C 0.46952 0.35795 0.08089 0.0
C680 C 0.4621 0.46145 0.03791 0.0
C681 C 0.4969 0.4705 0.01784 0.0
C682 C 0.42698 0.47913 0.03516 0.0
C683 C 0.38824 0.46906 0.05528 0.0
C684 C 0.35335 0.40973 0.0626 0.0
C685 C 0.3174 0.40079 0.08182 0.0
C686 C 0.3157 0.45075 0.09373 0.0
C687 C 0.34983 0.50972 0.08637 0.0
C688 C 0.3859 0.51893 0.06718 0.0
C689 C 0.44683 0.52569 0.9192 0.0
C690 C 0.44753 0.58004 0.92129 0.0
C691 C 0.45172 0.50423 0.94219 0.0
C692 C 0.45826 0.53737 0.96763 0.0
C693 C 0.45984 0.59239 0.9696 0.0
C694 C 0.45452 0.61355 0.94661 0.0
C695 C 0.46209 0.51376 0.99217 0.0
C696 C 0.4276 0.50528 0.01239 0.0
C697 C 0.49778 0.49699 0.99518 0.0
C698 C 0.53762 0.50856 0.97552 0.0
C699 C 0.57192 0.56832 0.96847 0.0
C700 C 0.60903 0.57879 0.94976 0.0
C701 C 0.6125 0.52998 0.9381 0.0
C702 C 0.57895 0.4706 0.94518 0.0
C703 C 0.54171 0.45985 0.96386 0.0
H704 H 0.64127 0.53819 0.92362 0.0
H705 H 0.28786 0.44374 0.10861 0.0
H706 H 0.86644 0.29256 0.439 0.0
H707 H 0.94967 0.36821 0.46419 0.0
H708 H 0.91934 0.5103 0.46383 0.0
H709 H 0.83803 0.43597 0.43769 0.0
H710 H 0.01442 0.5507 0.44892 0.0
H711 H 0.91031 0.44708 0.52052 0.0
H712 H 0.85045 0.35631 0.54314 0.0
H713 H 0.96311 0.3096 0.54313 0.0
H714 H 0.02337 0.3996 0.52012 0.0
H715 H 0.20886 0.77353 0.5519 0.0
H716 H 0.13272 0.70378 0.5208 0.0
H717 H 0.16337 0.56156 0.51894 0.0
H718 H 0.23675 0.62907 0.55089 0.0
H719 H 0.06843 0.52218 0.53451 0.0
H720 H 0.17411 0.63005 0.46384 0.0
H721 H 0.23376 0.72354 0.44278 0.0
H722 H 0.11785 0.76504 0.44241 0.0
H723 H 0.05778 0.67235 0.46394 0.0
C724 C 0.87729 0.33966 0.44487 0.0
C725 C 0.84543 0.35821 0.43715 0.0
C726 C 0.92466 0.38277 0.45915 0.0
C727 C 0.9404 0.44475 0.46597 0.0
C728 C 0.90782 0.46272 0.45881 0.0
C729 C 0.86088 0.4199 0.44439 0.0
C730 C 0.99165 0.49158 0.47973 0.0
C731 C 0.02613 0.54487 0.46778 0.0
C732 C 0.00698 0.48331 0.50407 0.0
C733 C 0.97117 0.42977 0.51836 0.0
C734 C 0.9222 0.41724 0.52518 0.0
C735 C 0.88821 0.36594 0.53809 0.0
C736 C 0.9029 0.32711 0.54449 0.0
C737 C 0.95174 0.33967 0.53811 0.0
C738 C 0.98586 0.39085 0.52516 0.0
C739 C 0.20005 0.72803 0.54415 0.0
C740 C 0.22878 0.70681 0.55361 0.0
C741 C 0.15675 0.68832 0.5264 0.0
C742 C 0.14237 0.62741 0.51777 0.0
C743 C 0.1738 0.60831 0.52546 0.0
C744 C 0.21639 0.64747 0.54336 0.0
C745 C 0.0915 0.58101 0.50358 0.0
C746 C 0.05691 0.5279 0.51555 0.0
C747 C 0.07607 0.58974 0.47939 0.0
C748 C 0.11158 0.64449 0.46571 0.0
C749 C 0.16142 0.65929 0.45941 0.0
C750 C 0.19532 0.71214 0.44739 0.0
C751 C 0.17966 0.7503 0.44132 0.0
C752 C 0.12995 0.73548 0.44715 0.0
C753 C 0.09594 0.68275 0.45924 0.0
H754 H 0.206 0.79127 0.43207 0.0
H755 H 0.87649 0.28736 0.55444 0.0
H756 H 0.60126 0.02692 0.31282 0.0
H757 H 0.56738 0.9163 0.30954 0.0
H758 H 0.71226 0.9537 0.27927 0.0
H759 H 0.7464 0.06434 0.28301 0.0
H760 H 0.55139 0.83102 0.26698 0.0
H761 H 0.73967 0.858 0.30369 0.0
H762 H 0.8174 0.93127 0.33376 0.0
H763 H 0.73246 0.99397 0.37909 0.0
H764 H 0.65394 0.9202 0.34965 0.0
H765 H 0.61917 0.58624 0.2594 0.0
H766 H 0.64343 0.69261 0.27057 0.0
H767 H 0.48593 0.62518 0.29089 0.0
H768 H 0.46089 0.51802 0.27812 0.0
H769 H 0.64675 0.76182 0.3124 0.0
H770 H 0.4564 0.72818 0.27655 0.0
H771 H 0.38014 0.65644 0.24529 0.0
H772 H 0.47166 0.60953 0.19634 0.0
H773 H 0.54858 0.68155 0.2271 0.0
C774 C 0.6258 0.01133 0.30555 0.0
C775 C 0.67636 0.05392 0.29817 0.0
C776 C 0.60636 0.94822 0.30354 0.0
C777 C 0.6374 0.92671 0.2944 0.0
C778 C 0.68777 0.96926 0.28666 0.0
C779 C 0.7071 0.03233 0.28855 0.0
C780 C 0.61731 0.85989 0.29305 0.0
C781 C 0.57177 0.81572 0.27724 0.0
C782 C 0.64423 0.83998 0.30617 0.0
C783 C 0.69103 0.8839 0.32429 0.0
C784 C 0.73749 0.88716 0.32017 0.0
C785 C 0.78168 0.92876 0.33711 0.0
C786 C 0.7799 0.96734 0.35828 0.0
C787 C 0.73384 0.96419 0.36263 0.0
C788 C 0.68947 0.92248 0.34582 0.0
C789 C 0.58961 0.59406 0.2661 0.0
C790 C 0.53791 0.54391 0.26733 0.0
C791 C 0.60364 0.65498 0.27276 0.0
C792 C 0.56639 0.66731 0.28108 0.0
C793 C 0.51521 0.61707 0.28394 0.0
C794 C 0.50103 0.55582 0.27697 0.0
C795 C 0.58145 0.7328 0.28574 0.0
C796 C 0.62604 0.77688 0.30228 0.0
C797 C 0.55384 0.75265 0.27312 0.0
C798 C 0.50802 0.70962 0.25433 0.0
C799 C 0.46024 0.70264 0.25908 0.0
C800 C 0.41692 0.66195 0.24145 0.0
C801 C 0.42101 0.62828 0.2189 0.0
C802 C 0.4685 0.63544 0.21387 0.0
C803 C 0.51195 0.67615 0.23141 0.0
H804 H 0.38741 0.59676 0.2053 0.0
H805 H 0.81422 0.99966 0.37132 0.0
H806 H 0.12149 0.85385 0.73717 0.0
H807 H 0.05939 0.88456 0.74212 0.0
H808 H 0.9322 0.69162 0.7342 0.0
H809 H 0.99401 0.66119 0.72928 0.0
H810 H 0.91366 0.76432 0.70587 0.0
H811 H 0.97781 0.76769 0.79408 0.0
H812 H 0.048 0.80474 0.82842 0.0
H813 H 0.09259 0.99204 0.82824 0.0
H814 H 0.02306 0.95608 0.79355 0.0
H815 H 0.69503 0.70784 0.76733 0.0
H816 H 0.77662 0.71641 0.75967 0.0
H817 H 0.86057 0.91592 0.77459 0.0
H818 H 0.77846 0.90737 0.78325 0.0
H819 H 0.91266 0.8657 0.79573 0.0
H820 H 0.83546 0.8576 0.71372 0.0
H821 H 0.76304 0.81803 0.6805 0.0
H822 H 0.74317 0.64072 0.66844 0.0
H823 H 0.81475 0.67878 0.70205 0.0
C824 C 0.08017 0.81832 0.73606 0.0
C825 C 0.06202 0.75536 0.73307 0.0
C826 C 0.04493 0.83578 0.73894 0.0
C827 C 0.99139 0.79025 0.73862 0.0
C828 C 0.9734 0.72731 0.73442 0.0
C829 C 0.00853 0.71 0.73183 0.0
C830 C 0.95371 0.8071 0.74461 0.0
C831 C 0.9135 0.78678 0.72543 0.0
C832 C 0.95455 0.83793 0.76991 0.0
C833 C 0.9957 0.85933 0.79104 0.0
C834 C 0.00282 0.81682 0.80124 0.0
C835 C 0.04244 0.8376 0.82077 0.0
C836 C 0.07483 0.90074 0.83045 0.0
C837 C 0.06753 0.94317 0.82068 0.0
C838 C 0.02803 0.92262 0.80109 0.0
C839 C 0.73098 0.75344 0.76986 0.0
C840 C 0.7307 0.80699 0.77588 0.0
C841 C 0.77746 0.75832 0.7652 0.0
C842 C 0.82428 0.81681 0.76613 0.0
C843 C 0.82465 0.87045 0.77364 0.0
C844 C 0.77791 0.86554 0.77839 0.0
C845 C 0.87164 0.8208 0.7573 0.0
C846 C 0.9136 0.84501 0.77589 0.0
C847 C 0.87256 0.79373 0.73137 0.0
C848 C 0.83042 0.77105 0.71052 0.0
C849 C 0.81551 0.81007 0.70409 0.0
C850 C 0.77457 0.7879 0.6852 0.0
C851 C 0.74851 0.72689 0.67237 0.0
C852 C 0.76342 0.68799 0.67838 0.0
C853 C 0.80422 0.70987 0.69734 0.0
H854 H 0.71679 0.70978 0.65777 0.0
H855 H 0.10549 0.91676 0.84557 0.0
H856 H 0.34042 0.95404 0.31222 0.0
H857 H 0.27243 0.84935 0.29307 0.0
H858 H 0.33442 0.88701 0.21524 0.0
H859 H 0.40403 0.99233 0.23476 0.0
H860 H 0.2359 0.85058 0.21394 0.0
H861 H 0.32457 0.76836 0.24179 0.0
H862 H 0.37834 0.75273 0.27051 0.0
H863 H 0.26003 0.68506 0.32749 0.0
H864 H 0.20582 0.70125 0.29936 0.0
H865 H 0.99056 0.54706 0.18236 0.0
H866 H 0.08442 0.62699 0.18465 0.0
H867 H 0.07834 0.68154 0.26819 0.0
H868 H 0.98439 0.60377 0.26567 0.0
H869 H 0.15883 0.65632 0.25422 0.0
H870 H 0.08495 0.76883 0.22795 0.0
H871 H 0.033 0.78281 0.19701 0.0
H872 H 0.12856 0.78824 0.13298 0.0
H873 H 0.18068 0.77351 0.16353 0.0
C874 C 0.34128 0.93919 0.29133 0.0
C875 C 0.37741 0.98119 0.27495 0.0
C876 C 0.30212 0.87923 0.2803 0.0
C877 C 0.29834 0.86021 0.25269 0.0
C878 C 0.33663 0.90076 0.23658 0.0
C879 C 0.37616 0.96082 0.2477 0.0
C880 C 0.2499 0.80249 0.24067 0.0
C881 C 0.21975 0.80743 0.22211 0.0
C882 C 0.22877 0.74611 0.25122 0.0
C883 C 0.26109 0.7362 0.26842 0.0
C884 C 0.3101 0.75054 0.26053 0.0
C885 C 0.34066 0.7415 0.2767 0.0
C886 C 0.3226 0.71788 0.3008 0.0
C887 C 0.27392 0.70326 0.30878 0.0
C888 C 0.2432 0.71225 0.29269 0.0
C889 C 0.00915 0.57726 0.20099 0.0
C890 C 0.98055 0.56962 0.22388 0.0
C891 C 0.06269 0.62214 0.20235 0.0
C892 C 0.08813 0.65929 0.22668 0.0
C893 C 0.05934 0.65253 0.24935 0.0
C894 C 0.00586 0.60839 0.2479 0.0
C895 C 0.14473 0.70623 0.22883 0.0
C896 C 0.17602 0.69888 0.24544 0.0
C897 C 0.16728 0.75988 0.21611 0.0
C898 C 0.13624 0.76931 0.1979 0.0
C899 C 0.09458 0.77249 0.20722 0.0
C900 C 0.06518 0.78066 0.18978 0.0
C901 C 0.07736 0.7862 0.16303 0.0
C902 C 0.1191 0.78381 0.15369 0.0
C903 C 0.14859 0.77559 0.17106 0.0
H904 H 0.05454 0.79251 0.14955 0.0
H905 H 0.34631 0.7109 0.31328 0.0
H906 H 0.49276 0.45478 0.80089 0.0
H907 H 0.47288 0.35077 0.78539 0.0
H908 H 0.41745 0.35479 0.70863 0.0
H909 H 0.43825 0.45944 0.724 0.0
H910 H 0.3464 0.24748 0.73526 0.0
H911 H 0.52316 0.36464 0.70993 0.0
H912 H 0.61786 0.44117 0.71629 0.0
H913 H 0.62707 0.34185 0.77493 0.0
H914 H 0.53219 0.26543 0.76939 0.0
H915 H 0.29807 0.96191 0.6725 0.0
H916 H 0.33079 0.07198 0.68222 0.0
H917 H 0.41383 0.08806 0.75358 0.0
H918 H 0.38257 0.97831 0.74327 0.0
H919 H 0.47243 0.18671 0.72794 0.0
H920 H 0.29942 0.07534 0.75714 0.0
H921 H 0.20494 0.99631 0.75282 0.0
H922 H 0.18837 0.08303 0.69071 0.0
H923 H 0.28297 0.16201 0.69433 0.0
C924 C 0.4771 0.43369 0.78059 0.0
C925 C 0.4672 0.46483 0.76353 0.0
C926 C 0.46586 0.37451 0.77175 0.0
C927 C 0.44378 0.34523 0.74587 0.0
C928 C 0.43463 0.37677 0.72865 0.0
C929 C 0.4468 0.4365 0.73734 0.0
C930 C 0.42736 0.28028 0.73746 0.0
C931 C 0.37397 0.23424 0.73319 0.0
C932 C 0.46335 0.26301 0.73574 0.0
C933 C 0.52034 0.30969 0.73949 0.0
C934 C 0.5452 0.35956 0.72447 0.0
C935 C 0.59898 0.40285 0.72787 0.0
C936 C 0.62844 0.39651 0.74607 0.0
C937 C 0.60418 0.34682 0.7609 0.0
C938 C 0.55039 0.30352 0.75765 0.0
C939 C 0.324 0.98925 0.68999 0.0
C940 C 0.33798 0.96194 0.70714 0.0
C941 C 0.34224 0.05192 0.69569 0.0
C942 C 0.37432 0.08814 0.7188 0.0
C943 C 0.38908 0.06103 0.73567 0.0
C944 C 0.37091 0.99836 0.72992 0.0
C945 C 0.39146 0.15386 0.7257 0.0
C946 C 0.44487 0.19997 0.72983 0.0
C947 C 0.35546 0.17116 0.7278 0.0
C948 C 0.29841 0.12426 0.72581 0.0
C949 C 0.2757 0.07732 0.74242 0.0
C950 C 0.22212 0.03255 0.74012 0.0
C951 C 0.19069 0.03456 0.72146 0.0
C952 C 0.21278 0.08148 0.70513 0.0
C953 C 0.26639 0.12628 0.7073 0.0
H954 H 0.14921 0.99983 0.7197 0.0
H955 H 0.67008 0.42998 0.74862 0.0
H956 H 0.24551 0.143 0.21905 0.0
H957 H 0.16038 0.12583 0.21101 0.0
H958 H 0.16259 0.19215 0.29409 0.0
H959 H 0.24664 0.2072 0.30221 0.0
H960 H 0.06645 0.10608 0.2766 0.0
H961 H 0.21173 0.29259 0.24499 0.0
H962 H 0.28721 0.35037 0.21775 0.0
H963 H 0.19197 0.24209 0.14609 0.0
H964 H 0.11587 0.18385 0.17296 0.0
H965 H 0.97413 0.29658 0.28779 0.0
H966 H 0.02857 0.25578 0.28403 0.0
H967 H 0.96171 0.16534 0.20435 0.0
H968 H 0.90538 0.20417 0.20844 0.0
H969 H 0.07492 0.23772 0.21133 0.0
H970 H 0.92376 0.07482 0.24752 0.0
H971 H 0.85259 0.03451 0.27844 0.0
H972 H 0.96362 0.11086 0.34534 0.0
H973 H 0.03553 0.15256 0.31489 0.0
C974 C 0.22698 0.15243 0.23562 0.0
C975 C 0.2523 0.17697 0.26114 0.0
C976 C 0.17859 0.14273 0.23105 0.0
C977 C 0.15579 0.15906 0.25182 0.0
C978 C 0.1795 0.17926 0.27777 0.0
C979 C 0.22744 0.18793 0.28242 0.0
C980 C 0.11097 0.16256 0.24624 0.0
C981 C 0.06807 0.13445 0.2622 0.0
C982 C 0.1127 0.19875 0.22709 0.0
C983 C 0.15838 0.23341 0.21096 0.0
C984 C 0.20702 0.28092 0.22343 0.0
C985 C 0.24984 0.31381 0.20807 0.0
C986 C 0.24447 0.29963 0.18022 0.0
C987 C 0.19613 0.25285 0.16767 0.0
C988 C 0.15311 0.22001 0.18294 0.0
C989 C 0.97057 0.26738 0.26962 0.0
C990 C 0.93543 0.25304 0.24849 0.0
C991 C 0.00171 0.24434 0.26746 0.0
C992 C -0.00165 0.20693 0.24407 0.0
C993 C 0.96442 0.19393 0.22257 0.0
C994 C 0.93277 0.21654 0.22485 0.0
C995 C 0.03162 0.18302 0.24229 0.0
C996 C 0.07232 0.20738 0.22498 0.0
C997 C 0.02835 0.1445 0.26055 0.0
C998 C 0.9851 0.11702 0.27888 0.0
C999 C 0.93303 0.08315 0.26883 0.0
C1000 C 0.89255 0.06009 0.28627 0.0
C1001 C 0.90362 0.07028 0.31382 0.0
C1002 C 0.95514 0.10303 0.32398 0.0
C1003 C 0.99578 0.12628 0.30663 0.0
H1004 H 0.87232 0.05296 0.32732 0.0
H1005 H 0.27771 0.32504 0.16837 0.0
H1006 H 0.97885 0.51664 0.76132 0.0
H1007 H 0.8848 0.44628 0.76456 0.0
H1008 H 0.90182 0.29367 0.76462 0.0
H1009 H 0.99565 0.36336 0.76014 0.0
H1010 H 0.80495 0.32091 0.73106 0.0
H1011 H 0.8448 0.23619 0.82265 0.0
H1012 H 0.91354 0.28038 0.85861 0.0
H1013 H 0.94943 0.46251 0.8539 0.0
H1014 H 0.87981 0.41931 0.81861 0.0
H1015 H 0.68202 0.0161 0.769 0.0
H1016 H 0.7443 0.12638 0.7805 0.0
H1017 H 0.62645 0.15941 0.76379 0.0
H1018 H 0.56267 0.04684 0.75246 0.0
H1019 H 0.75842 0.22347 0.8144 0.0
H1020 H 0.68402 0.28323 0.73384 0.0
H1021 H 0.62288 0.23585 0.69401 0.0
H1022 H 0.66354 0.10375 0.67464 0.0
H1023 H 0.72462 0.15021 0.71447 0.0
C1024 C 0.96223 0.46767 0.76103 0.0
C1025 C 0.99414 0.44494 0.76019 0.0
C1026 C 0.9087 0.42784 0.7631 0.0
C1027 C 0.88687 0.36528 0.76496 0.0
C1028 C 0.91841 0.34215 0.76331 0.0
C1029 C 0.97177 0.38177 0.76089 0.0
C1030 C 0.8318 0.32398 0.77053 0.0
C1031 C 0.79409 0.30095 0.74961 0.0
C1032 C 0.81808 0.29887 0.79489 0.0
C1033 C 0.85715 0.32441 0.81777 0.0
C1034 C 0.8668 0.28554 0.82953 0.0
C1035 C 0.90609 0.3105 0.84976 0.0
C1036 C 0.93616 0.3743 0.85838 0.0
C1037 C 0.92657 0.41321 0.847 0.0
C1038 C 0.88696 0.38844 0.827 0.0
C1039 C 0.66854 0.04634 0.76882 0.0
C1040 C 0.61739 0.02292 0.76011 0.0
C1041 C 0.70435 0.10966 0.77537 0.0
C1042 C 0.6901 0.15123 0.77303 0.0
C1043 C 0.63822 0.12803 0.76567 0.0
C1044 C 0.60201 0.06401 0.7591 0.0
C1045 C 0.73232 0.21761 0.77425 0.0
C1046 C 0.76814 0.24583 0.79649 0.0
C1047 C 0.7444 0.24756 0.75113 0.0
C1048 C 0.70855 0.21996 0.72704 0.0
C1049 C 0.6799 0.24416 0.72101 0.0
C1050 C 0.6452 0.21737 0.69851 0.0
C1051 C 0.63923 0.16669 0.68184 0.0
C1052 C 0.66806 0.14281 0.68761 0.0
C1053 C 0.70267 0.16931 0.71013 0.0
H1054 H 0.61234 0.14598 0.66444 0.0
H1055 H 0.96665 0.39357 0.87398 0.0
loop_
_geom_bond_atom_site_label_1
_geom_bond_atom_site_label_2
_geom_bond_distance
_geom_bond_site_symmetry_2
_ccdc_geom_bond_type
C0 C1 1.388 . S
C0 N3 1.338 . S
C0 C5 1.503 . S
C1 C0 1.388 . S
C1 C2 1.396 . S
C2 C1 1.396 . S
C2 N4 1.348 . S
C2 C9 1.504 . S
N3 C0 1.338 . S
N3 N4 1.361 . S
N3 Cu168 1.924 . S
N4 C2 1.348 . S
N4 N3 1.361 . S
N4 Cu169 1.964 . S
C5 C0 1.503 . S
C5 H6 0.979 . S
C5 H7 0.979 . S
C5 H8 0.979 . S
H6 C5 0.979 . S
H7 C5 0.979 . S
H8 C5 0.979 . S
C9 C2 1.504 . S
C9 H10 0.981 . S
C9 H11 0.980 . S
C9 H12 0.979 . S
H10 C9 0.981 . S
H11 C9 0.980 . S
H12 C9 0.979 . S
C13 C15 1.402 . S
C13 N16 1.356 . S
C13 C21 1.481 . S
C14 C15 1.400 . S
C14 N17 1.325 . S
C14 C25 1.503 . S
C15 C13 1.402 . S
C15 C14 1.400 . S
N16 C13 1.356 . S
N16 N17 1.365 . S
N16 Cu175 1.941 . S
N17 C14 1.325 . S
N17 N16 1.365 . S
N17 Cu172 1.924 . S
H18 C21 0.980 . S
H19 C21 0.980 . S
H20 C21 0.980 . S
C21 C13 1.481 . S
C21 H18 0.980 . S
C21 H19 0.980 . S
C21 H20 0.980 . S
H22 C25 0.978 . S
H23 C25 0.978 . S
H24 C25 0.983 . S
C25 C14 1.503 . S
C25 H22 0.978 . S
C25 H23 0.978 . S
C25 H24 0.983 . S
C26 H180 0.979 . S
C26 H181 0.981 . S
C26 H182 0.981 . S
C26 O216 1.438 . S
C27 H183 0.980 . S
C27 H184 0.979 . S
C27 H185 0.980 . S
C27 O217 1.533 . S
C28 N29 1.338 . S
C28 C31 1.388 . S
C28 C36 1.503 . S
N29 C28 1.338 . S
N29 N30 1.361 . S
N29 Cu170 1.924 . S
N30 N29 1.361 . S
N30 C32 1.348 . S
N30 Cu171 1.964 . S
C31 C28 1.388 . S
C31 C32 1.396 . S
C32 N30 1.348 . S
C32 C31 1.396 . S
C32 C40 1.504 . S
H33 C36 0.979 . S
H34 C36 0.979 . S
H35 C36 0.979 . S
C36 C28 1.503 . S
C36 H33 0.979 . S
C36 H34 0.979 . S
C36 H35 0.979 . S
H37 C40 0.981 . S
H38 C40 0.980 . S
H39 C40 0.979 . S
C40 C32 1.504 . S
C40 H37 0.981 . S
C40 H38 0.980 . S
C40 H39 0.979 . S
C41 N43 1.356 . S
C41 C45 1.402 . S
C41 C49 1.481 . S
C42 N44 1.325 . S
C42 C45 1.400 . S
C42 C50 1.503 . S
N43 C41 1.356 . S
N43 N44 1.365 . S
N43 Cu177 1.941 . S
N44 C42 1.325 . S
N44 N43 1.365 . S
N44 Cu168 1.924 . S
C45 C41 1.402 . S
C45 C42 1.400 . S
H46 C49 0.980 . S
H47 C49 0.980 . S
H48 C49 0.980 . S
C49 C41 1.481 . S
C49 H46 0.980 . S
C49 H47 0.980 . S
C49 H48 0.980 . S
C50 C42 1.503 . S
C50 H51 0.978 . S
C50 H52 0.978 . S
C50 H53 0.983 . S
H51 C50 0.978 . S
H52 C50 0.978 . S
H53 C50 0.983 . S
C54 H186 0.979 . S
C54 H187 0.981 . S
C54 H188 0.981 . S
C54 O218 1.438 . S
C55 H189 0.980 . S
C55 H190 0.979 . S
C55 H191 0.980 . S
C55 O219 1.533 . S
C56 N57 1.338 . S
C56 C58 1.388 . S
C56 C64 1.503 . S
N57 C56 1.338 . S
N57 N59 1.361 . S
N57 Cu172 1.924 . S
C58 C56 1.388 . S
C58 C60 1.396 . S
N59 N57 1.361 . S
N59 C60 1.348 . S
N59 Cu173 1.964 . S
C60 C58 1.396 . S
C60 N59 1.348 . S
C60 C66 1.504 . S
H61 C64 0.979 . S
H62 C64 0.979 . S
H63 C64 0.979 . S
C64 C56 1.503 . S
C64 H61 0.979 . S
C64 H62 0.979 . S
C64 H63 0.979 . S
H65 C66 0.981 . S
C66 C60 1.504 . S
C66 H65 0.981 . S
C66 H67 0.979 . S
C66 H68 0.980 . S
H67 C66 0.979 . S
H68 C66 0.980 . S
C69 N71 1.356 . S
C69 C73 1.402 . S
C69 C75 1.481 . S
C70 N72 1.325 . S
C70 C73 1.400 . S
C70 C80 1.503 . S
N71 C69 1.356 . S
N71 N72 1.365 . S
N71 Cu179 1.941 . S
N72 C70 1.325 . S
N72 N71 1.365 . S
N72 Cu170 1.924 . S
C73 C69 1.402 . S
C73 C70 1.400 . S
H74 C75 0.980 . S
C75 C69 1.481 . S
C75 H74 0.980 . S
C75 H76 0.980 . S
C75 H77 0.980 . S
H76 C75 0.980 . S
H77 C75 0.980 . S
H78 C80 0.978 . S
H79 C80 0.978 . S
C80 C70 1.503 . S
C80 H78 0.978 . S
C80 H79 0.978 . S
C80 H81 0.983 . S
H81 C80 0.983 . S
C82 H192 0.979 . S
C82 H193 0.981 . S
C82 H194 0.981 . S
C82 O220 1.438 . S
C83 H195 0.980 . S
C83 H196 0.979 . S
C83 H197 0.980 . S
C83 O221 1.533 . S
C84 N85 1.338 . S
C84 C86 1.388 . S
C84 C89 1.503 . S
N85 C84 1.338 . S
N85 N88 1.361 . S
N85 Cu174 1.924 . S
C86 C84 1.388 . S
C86 C87 1.396 . S
C87 C86 1.396 . S
C87 N88 1.348 . S
C87 C93 1.504 . S
N88 N85 1.361 . S
N88 C87 1.348 . S
N88 Cu175 1.964 . S
C89 C84 1.503 . S
C89 H90 0.979 . S
C89 H91 0.979 . S
C89 H92 0.979 . S
H90 C89 0.979 . S
H91 C89 0.979 . S
H92 C89 0.979 . S
C93 C87 1.504 . S
C93 H94 0.981 . S
C93 H95 0.980 . S
C93 H96 0.979 . S
H94 C93 0.981 . S
H95 C93 0.980 . S
H96 C93 0.979 . S
C97 C98 1.402 . S
C97 N100 1.356 . S
C97 C105 1.481 . S
C98 C97 1.402 . S
C98 C99 1.400 . S
C99 C98 1.400 . S
C99 N101 1.325 . S
C99 C106 1.503 . S
N100 C97 1.356 . S
N100 N101 1.365 . S
N100 Cu169 1.941 . S
N101 C99 1.325 . S
N101 N100 1.365 . S
N101 Cu178 1.924 . S
H102 C105 0.980 . S
H103 C105 0.980 . S
H104 C105 0.980 . S
C105 C97 1.481 . S
C105 H102 0.980 . S
C105 H103 0.980 . S
C105 H104 0.980 . S
C106 C99 1.503 . S
C106 H107 0.978 . S
C106 H108 0.978 . S
C106 H109 0.983 . S
H107 C106 0.978 . S
H108 C106 0.978 . S
H109 C106 0.983 . S
C110 H198 0.979 . S
C110 H199 0.981 . S
C110 H200 0.981 . S
C110 O222 1.438 . S
C111 H201 0.980 . S
C111 H202 0.979 . S
C111 H203 0.980 . S
C111 O223 1.533 . S
C112 C113 1.388 . S
C112 N115 1.338 . S
C112 C117 1.503 . S
C113 C112 1.388 . S
C113 C114 1.396 . S
C114 C113 1.396 . S
C114 N116 1.348 . S
C114 C121 1.504 . S
N115 C112 1.338 . S
N115 N116 1.361 . S
N115 Cu176 1.924 . S
N116 C114 1.348 . S
N116 N115 1.361 . S
N116 Cu177 1.964 . S
C117 C112 1.503 . S
C117 H118 0.979 . S
C117 H119 0.979 . S
C117 H120 0.979 . S
H118 C117 0.979 . S
H119 C117 0.979 . S
H120 C117 0.979 . S
C121 C114 1.504 . S
C121 H122 0.981 . S
C121 H123 0.980 . S
C121 H124 0.979 . S
H122 C121 0.981 . S
H123 C121 0.980 . S
H124 C121 0.979 . S
C125 C126 1.402 . S
C125 N128 1.356 . S
C125 C130 1.481 . S
C126 C125 1.402 . S
C126 C127 1.400 . S
C127 C126 1.400 . S
C127 N129 1.325 . S
C127 C134 1.503 . S
N128 C125 1.356 . S
N128 N129 1.365 . S
N128 Cu171 1.941 . S
N129 C127 1.325 . S
N129 N128 1.365 . S
N129 Cu174 1.924 . S
C130 C125 1.481 . S
C130 H131 0.980 . S
C130 H132 0.980 . S
C130 H133 0.980 . S
H131 C130 0.980 . S
H132 C130 0.980 . S
H133 C130 0.980 . S
C134 C127 1.503 . S
C134 H135 0.978 1_655 S
C134 H136 0.978 . S
C134 H137 0.983 . S
H135 C134 0.978 1_455 S
H136 C134 0.978 . S
H137 C134 0.983 . S
C138 H204 0.979 . S
C138 H205 0.981 . S
C138 H206 0.981 . S
C138 O224 1.438 . S
C139 H207 0.980 . S
C139 H208 0.979 . S
C139 H209 0.980 . S
C139 O225 1.533 . S
C140 N141 1.338 . S
C140 C143 1.388 . S
C140 C148 1.503 . S
N141 C140 1.338 . S
N141 N142 1.361 . S
N141 Cu178 1.924 . S
N142 N141 1.361 . S
N142 C144 1.348 . S
N142 Cu179 1.964 . S
C143 C140 1.388 . S
C143 C144 1.396 . S
C144 N142 1.348 . S
C144 C143 1.396 . S
C144 C152 1.504 . S
H145 C148 0.979 . S
H146 C148 0.979 . S
H147 C148 0.979 . S
C148 C140 1.503 . S
C148 H145 0.979 . S
C148 H146 0.979 . S
C148 H147 0.979 . S
H149 C152 0.981 . S
H150 C152 0.980 . S
H151 C152 0.979 . S
C152 C144 1.504 . S
C152 H149 0.981 . S
C152 H150 0.980 . S
C152 H151 0.979 . S
C153 N154 1.356 . S
C153 C156 1.402 . S
C153 C158 1.481 . S
N154 C153 1.356 . S
N154 N155 1.365 . S
N154 Cu173 1.941 . S
N155 N154 1.365 . S
N155 C157 1.325 . S
N155 Cu176 1.924 . S
C156 C153 1.402 . S
C156 C157 1.400 . S
C157 N155 1.325 . S
C157 C156 1.400 . S
C157 C162 1.503 . S
C158 C153 1.481 . S
C158 H159 0.980 . S
C158 H160 0.980 . S
C158 H161 0.980 . S
H159 C158 0.980 . S
H160 C158 0.980 . S
H161 C158 0.980 . S
C162 C157 1.503 . S
C162 H163 0.978 . S
C162 H164 0.978 . S
C162 H165 0.983 . S
H163 C162 0.978 . S
H164 C162 0.978 . S
H165 C162 0.983 . S
C166 H210 0.979 . S
C166 H211 0.981 . S
C166 H212 0.981 . S
C166 O226 1.438 . S
C167 H213 0.980 . S
C167 H214 0.979 . S
C167 H215 0.980 . S
C167 O227 1.533 . S
Cu168 N3 1.924 . S
Cu168 N44 1.924 . S
Cu168 O216 1.923 . S
Cu168 O217 1.930 . S
Cu169 N4 1.964 . S
Cu169 N100 1.941 . S
Cu169 O216 1.905 . S
Cu169 O227 1.920 . S
Cu170 N29 1.924 . S
Cu170 N72 1.924 . S
Cu170 O218 1.923 . S
Cu170 O219 1.930 . S
Cu171 N30 1.964 . S
Cu171 N128 1.941 . S
Cu171 O218 1.905 . S
Cu171 O223 1.920 . S
Cu172 N17 1.924 . S
Cu172 N57 1.924 . S
Cu172 O220 1.923 . S
Cu172 O221 1.930 . S
Cu173 N59 1.964 . S
Cu173 N154 1.941 . S
Cu173 O220 1.905 . S
Cu173 O225 1.920 . S
Cu174 N85 1.924 . S
Cu174 N129 1.924 . S
Cu174 O222 1.923 . S
Cu174 O223 1.930 . S
Cu175 N16 1.941 . S
Cu175 N88 1.964 . S
Cu175 O221 1.920 . S
Cu175 O222 1.905 . S
Cu176 N115 1.924 . S
Cu176 N155 1.924 . S
Cu176 O224 1.923 . S
Cu176 O225 1.930 . S
Cu177 N43 1.941 . S
Cu177 N116 1.964 . S
Cu177 O217 1.920 . S
Cu177 O224 1.905 . S
Cu178 N101 1.924 . S
Cu178 N141 1.924 . S
Cu178 O226 1.923 . S
Cu178 O227 1.930 . S
Cu179 N71 1.941 . S
Cu179 N142 1.964 . S
Cu179 O219 1.920 . S
Cu179 O226 1.905 . S
H180 C26 0.979 . S
H181 C26 0.981 . S
H182 C26 0.981 . S
H183 C27 0.980 . S
H184 C27 0.979 . S
H185 C27 0.980 . S
H186 C54 0.979 . S
H187 C54 0.981 . S
H188 C54 0.981 . S
H189 C55 0.980 . S
H190 C55 0.979 . S
H191 C55 0.980 . S
H192 C82 0.979 . S
H193 C82 0.981 . S
H194 C82 0.981 . S
H195 C83 0.980 . S
H196 C83 0.979 . S
H197 C83 0.980 . S
H198 C110 0.979 . S
H199 C110 0.981 . S
H200 C110 0.981 . S
H201 C111 0.980 . S
H202 C111 0.979 . S
H203 C111 0.980 . S
H204 C138 0.979 . S
H205 C138 0.981 . S
H206 C138 0.981 . S
H207 C139 0.980 . S
H208 C139 0.979 . S
H209 C139 0.980 . S
H210 C166 0.979 . S
H211 C166 0.981 . S
H212 C166 0.981 . S
H213 C167 0.980 . S
H214 C167 0.979 . S
H215 C167 0.980 . S
O216 C26 1.438 . S
O216 Cu168 1.923 . S
O216 Cu169 1.905 . S
O217 C27 1.533 . S
O217 Cu168 1.930 . S
O217 Cu177 1.920 . S
O218 C54 1.438 . S
O218 Cu170 1.923 . S
O218 Cu171 1.905 . S
O219 C55 1.533 . S
O219 Cu170 1.930 . S
O219 Cu179 1.920 . S
O220 C82 1.438 . S
O220 Cu172 1.923 . S
O220 Cu173 1.905 . S
O221 C83 1.533 . S
O221 Cu172 1.930 . S
O221 Cu175 1.920 . S
O222 C110 1.438 . S
O222 Cu174 1.923 . S
O222 Cu175 1.905 . S
O223 C111 1.533 . S
O223 Cu171 1.920 . S
O223 Cu174 1.930 . S
O224 C138 1.438 . S
O224 Cu176 1.923 . S
O224 Cu177 1.905 . S
O225 C139 1.533 . S
O225 Cu173 1.920 . S
O225 Cu176 1.930 . S
O226 C166 1.438 . S
O226 Cu178 1.923 . S
O226 Cu179 1.905 . S
O227 C167 1.533 . S
O227 Cu169 1.920 . S
O227 Cu178 1.930 . S
C228 C229 1.388 . S
C228 N231 1.338 . S
C228 C233 1.503 . S
C229 C228 1.388 . S
C229 C230 1.396 . S
C230 C229 1.396 . S
C230 N232 1.348 . S
C230 C237 1.504 . S
N231 C228 1.338 . S
N231 N232 1.361 . S
N231 Cu396 1.924 . S
N232 C230 1.348 . S
N232 N231 1.361 . S
N232 Cu397 1.964 . S
C233 C228 1.503 . S
C233 H234 0.979 . S
C233 H235 0.979 . S
C233 H236 0.979 . S
H234 C233 0.979 . S
H235 C233 0.979 . S
H236 C233 0.979 . S
C237 C230 1.504 . S
C237 H238 0.981 . S
C237 H239 0.980 . S
C237 H240 0.979 . S
H238 C237 0.981 . S
H239 C237 0.980 . S
H240 C237 0.979 . S
C241 C243 1.402 . S
C241 N244 1.356 . S
C241 C249 1.481 . S
C242 C243 1.400 . S
C242 N245 1.325 . S
C242 C253 1.503 . S
C243 C241 1.402 . S
C243 C242 1.400 . S
N244 C241 1.356 . S
N244 N245 1.365 . S
N244 Cu403 1.941 . S
N245 C242 1.325 . S
N245 N244 1.365 . S
N245 Cu400 1.924 . S
H246 C249 0.980 . S
H247 C249 0.980 . S
H248 C249 0.980 . S
C249 C241 1.481 . S
C249 H246 0.980 . S
C249 H247 0.980 . S
C249 H248 0.980 . S
H250 C253 0.978 . S
H251 C253 0.978 . S
H252 C253 0.983 . S
C253 C242 1.503 . S
C253 H250 0.978 . S
C253 H251 0.978 . S
C253 H252 0.983 . S
C254 H408 0.979 . S
C254 H409 0.981 . S
C254 H410 0.981 . S
C254 O444 1.438 . S
C255 H411 0.980 . S
C255 H412 0.979 . S
C255 H413 0.980 . S
C255 O445 1.533 . S
C256 N257 1.338 . S
C256 C259 1.388 . S
C256 C264 1.503 . S
N257 C256 1.338 . S
N257 N258 1.361 . S
N257 Cu398 1.924 . S
N258 N257 1.361 . S
N258 C260 1.348 . S
N258 Cu399 1.964 . S
C259 C256 1.388 . S
C259 C260 1.396 . S
C260 N258 1.348 . S
C260 C259 1.396 . S
C260 C268 1.504 . S
H261 C264 0.979 . S
H262 C264 0.979 . S
H263 C264 0.979 . S
C264 C256 1.503 . S
C264 H261 0.979 . S
C264 H262 0.979 . S
C264 H263 0.979 . S
H265 C268 0.981 . S
H266 C268 0.980 . S
H267 C268 0.979 . S
C268 C260 1.504 . S
C268 H265 0.981 . S
C268 H266 0.980 . S
C268 H267 0.979 . S
C269 N271 1.356 . S
C269 C273 1.402 . S
C269 C277 1.481 . S
C270 N272 1.325 . S
C270 C273 1.400 . S
C270 C278 1.503 . S
N271 C269 1.356 . S
N271 N272 1.365 . S
N271 Cu405 1.941 . S
N272 C270 1.325 . S
N272 N271 1.365 . S
N272 Cu396 1.924 . S
C273 C269 1.402 . S
C273 C270 1.400 . S
H274 C277 0.980 . S
H275 C277 0.980 . S
H276 C277 0.980 . S
C277 C269 1.481 . S
C277 H274 0.980 . S
C277 H275 0.980 . S
C277 H276 0.980 . S
C278 C270 1.503 . S
C278 H279 0.978 1_455 S
C278 H280 0.978 . S
C278 H281 0.983 . S
H279 C278 0.978 1_655 S
H280 C278 0.978 . S
H281 C278 0.983 . S
C282 H414 0.979 . S
C282 H415 0.981 . S
C282 H416 0.981 . S
C282 O446 1.438 . S
C283 H417 0.980 . S
C283 H418 0.979 . S
C283 H419 0.980 . S
C283 O447 1.533 . S
C284 N285 1.338 . S
C284 C286 1.388 . S
C284 C292 1.503 . S
N285 C284 1.338 . S
N285 N287 1.361 . S
N285 Cu400 1.924 . S
C286 C284 1.388 . S
C286 C288 1.396 . S
N287 N285 1.361 . S
N287 C288 1.348 . S
N287 Cu401 1.964 . S
C288 C286 1.396 . S
C288 N287 1.348 . S
C288 C294 1.504 . S
H289 C292 0.979 . S
H290 C292 0.979 . S
H291 C292 0.979 . S
C292 C284 1.503 . S
C292 H289 0.979 . S
C292 H290 0.979 . S
C292 H291 0.979 . S
H293 C294 0.981 . S
C294 C288 1.504 . S
C294 H293 0.981 . S
C294 H295 0.979 . S
C294 H296 0.980 . S
H295 C294 0.979 . S
H296 C294 0.980 . S
C297 N299 1.356 . S
C297 C301 1.402 . S
C297 C303 1.481 . S
C298 N300 1.325 . S
C298 C301 1.400 . S
C298 C308 1.503 . S
N299 C297 1.356 . S
N299 N300 1.365 . S
N299 Cu407 1.941 . S
N300 C298 1.325 . S
N300 N299 1.365 . S
N300 Cu398 1.924 . S
C301 C297 1.402 . S
C301 C298 1.400 . S
H302 C303 0.980 . S
C303 C297 1.481 . S
C303 H302 0.980 . S
C303 H304 0.980 . S
C303 H305 0.980 . S
H304 C303 0.980 . S
H305 C303 0.980 . S
H306 C308 0.978 . S
H307 C308 0.978 . S
C308 C298 1.503 . S
C308 H306 0.978 . S
C308 H307 0.978 . S
C308 H309 0.983 . S
H309 C308 0.983 . S
C310 H420 0.979 . S
C310 H421 0.981 . S
C310 H422 0.981 . S
C310 O448 1.438 . S
C311 H423 0.980 . S
C311 H424 0.979 . S
C311 H425 0.980 . S
C311 O449 1.533 . S
C312 N313 1.338 . S
C312 C314 1.388 . S
C312 C317 1.503 . S
N313 C312 1.338 . S
N313 N316 1.361 . S
N313 Cu402 1.924 . S
C314 C312 1.388 . S
C314 C315 1.396 . S
C315 C314 1.396 . S
C315 N316 1.348 . S
C315 C321 1.504 . S
N316 N313 1.361 . S
N316 C315 1.348 . S
N316 Cu403 1.964 . S
C317 C312 1.503 . S
C317 H318 0.979 . S
C317 H319 0.979 . S
C317 H320 0.979 . S
H318 C317 0.979 . S
H319 C317 0.979 . S
H320 C317 0.979 . S
C321 C315 1.504 . S
C321 H322 0.981 . S
C321 H323 0.980 . S
C321 H324 0.979 . S
H322 C321 0.981 . S
H323 C321 0.980 . S
H324 C321 0.979 . S
C325 C326 1.402 . S
C325 N328 1.356 . S
C325 C333 1.481 . S
C326 C325 1.402 . S
C326 C327 1.400 . S
C327 C326 1.400 . S
C327 N329 1.325 . S
C327 C334 1.503 . S
N328 C325 1.356 . S
N328 N329 1.365 . S
N328 Cu397 1.941 . S
N329 C327 1.325 . S
N329 N328 1.365 . S
N329 Cu406 1.924 . S
H330 C333 0.980 . S
H331 C333 0.980 . S
H332 C333 0.980 . S
C333 C325 1.481 . S
C333 H330 0.980 . S
C333 H331 0.980 . S
C333 H332 0.980 . S
C334 C327 1.503 . S
C334 H335 0.978 . S
C334 H336 0.978 . S
C334 H337 0.983 . S
H335 C334 0.978 . S
H336 C334 0.978 . S
H337 C334 0.983 . S
C338 H426 0.979 . S
C338 H427 0.981 . S
C338 H428 0.981 . S
C338 O450 1.438 . S
C339 H429 0.980 . S
C339 H430 0.979 . S
C339 H431 0.980 . S
C339 O451 1.533 . S
C340 C341 1.388 . S
C340 N343 1.338 . S
C340 C345 1.503 . S
C341 C340 1.388 . S
C341 C342 1.396 . S
C342 C341 1.396 . S
C342 N344 1.348 . S
C342 C349 1.504 . S
N343 C340 1.338 . S
N343 N344 1.361 . S
N343 Cu404 1.924 . S
N344 C342 1.348 . S
N344 N343 1.361 . S
N344 Cu405 1.964 . S
C345 C340 1.503 . S
C345 H346 0.979 . S
C345 H347 0.979 . S
C345 H348 0.979 . S
H346 C345 0.979 . S
H347 C345 0.979 . S
H348 C345 0.979 . S
C349 C342 1.504 . S
C349 H350 0.981 . S
C349 H351 0.980 . S
C349 H352 0.979 . S
H350 C349 0.981 . S
H351 C349 0.980 . S
H352 C349 0.979 . S
C353 C354 1.402 . S
C353 N356 1.356 . S
C353 C358 1.481 . S
C354 C353 1.402 . S
C354 C355 1.400 . S
C355 C354 1.400 . S
C355 N357 1.325 . S
C355 C362 1.503 . S
N356 C353 1.356 . S
N356 N357 1.365 . S
N356 Cu399 1.941 . S
N357 C355 1.325 . S
N357 N356 1.365 . S
N357 Cu402 1.924 . S
C358 C353 1.481 . S
C358 H359 0.980 . S
C358 H360 0.980 . S
C358 H361 0.980 . S
H359 C358 0.980 . S
H360 C358 0.980 . S
H361 C358 0.980 . S
C362 C355 1.503 . S
C362 H363 0.978 . S
C362 H364 0.978 . S
C362 H365 0.983 . S
H363 C362 0.978 . S
H364 C362 0.978 . S
H365 C362 0.983 . S
C366 H432 0.979 . S
C366 H433 0.981 . S
C366 H434 0.981 . S
C366 O452 1.438 . S
C367 H435 0.980 . S
C367 H436 0.979 . S
C367 H437 0.980 . S
C367 O453 1.533 . S
C368 N369 1.338 . S
C368 C371 1.388 . S
C368 C376 1.503 . S
N369 C368 1.338 . S
N369 N370 1.361 . S
N369 Cu406 1.924 . S
N370 N369 1.361 . S
N370 C372 1.348 . S
N370 Cu407 1.964 . S
C371 C368 1.388 . S
C371 C372 1.396 . S
C372 N370 1.348 . S
C372 C371 1.396 . S
C372 C380 1.504 . S
H373 C376 0.979 . S
H374 C376 0.979 . S
H375 C376 0.979 . S
C376 C368 1.503 . S
C376 H373 0.979 . S
C376 H374 0.979 . S
C376 H375 0.979 . S
H377 C380 0.981 . S
H378 C380 0.980 . S
H379 C380 0.979 . S
C380 C372 1.504 . S
C380 H377 0.981 . S
C380 H378 0.980 . S
C380 H379 0.979 . S
C381 N382 1.356 . S
C381 C384 1.402 . S
C381 C386 1.481 . S
N382 C381 1.356 . S
N382 N383 1.365 . S
N382 Cu401 1.941 . S
N383 N382 1.365 . S
N383 C385 1.325 . S
N383 Cu404 1.924 . S
C384 C381 1.402 . S
C384 C385 1.400 . S
C385 N383 1.325 . S
C385 C384 1.400 . S
C385 C390 1.503 . S
C386 C381 1.481 . S
C386 H387 0.980 . S
C386 H388 0.980 . S
C386 H389 0.980 . S
H387 C386 0.980 . S
H388 C386 0.980 . S
H389 C386 0.980 . S
C390 C385 1.503 . S
C390 H391 0.978 . S
C390 H392 0.978 . S
C390 H393 0.983 . S
H391 C390 0.978 . S
H392 C390 0.978 . S
H393 C390 0.983 . S
C394 H438 0.979 . S
C394 H439 0.981 . S
C394 H440 0.981 . S
C394 O454 1.438 . S
C395 H441 0.980 . S
C395 H442 0.979 . S
C395 H443 0.980 . S
C395 O455 1.533 . S
Cu396 N231 1.924 . S
Cu396 N272 1.924 . S
Cu396 O444 1.923 . S
Cu396 O445 1.930 . S
Cu397 N232 1.964 . S
Cu397 N328 1.941 . S
Cu397 O444 1.905 . S
Cu397 O455 1.920 . S
Cu398 N257 1.924 . S
Cu398 N300 1.924 . S
Cu398 O446 1.923 . S
Cu398 O447 1.930 . S
Cu399 N258 1.964 . S
Cu399 N356 1.941 . S
Cu399 O446 1.905 . S
Cu399 O451 1.920 . S
Cu400 N245 1.924 . S
Cu400 N285 1.924 . S
Cu400 O448 1.923 . S
Cu400 O449 1.930 . S
Cu401 N287 1.964 . S
Cu401 N382 1.941 . S
Cu401 O448 1.905 . S
Cu401 O453 1.920 . S
Cu402 N313 1.924 . S
Cu402 N357 1.924 . S
Cu402 O450 1.923 . S
Cu402 O451 1.930 . S
Cu403 N244 1.941 . S
Cu403 N316 1.964 . S
Cu403 O449 1.920 . S
Cu403 O450 1.905 . S
Cu404 N343 1.924 . S
Cu404 N383 1.924 . S
Cu404 O452 1.923 . S
Cu404 O453 1.930 . S
Cu405 N271 1.941 . S
Cu405 N344 1.964 . S
Cu405 O445 1.920 . S
Cu405 O452 1.905 . S
Cu406 N329 1.924 . S
Cu406 N369 1.924 . S
Cu406 O454 1.923 . S
Cu406 O455 1.930 . S
Cu407 N299 1.941 . S
Cu407 N370 1.964 . S
Cu407 O447 1.920 . S
Cu407 O454 1.905 . S
H408 C254 0.979 . S
H409 C254 0.981 . S
H410 C254 0.981 . S
H411 C255 0.980 . S
H412 C255 0.979 . S
H413 C255 0.980 . S
H414 C282 0.979 . S
H415 C282 0.981 . S
H416 C282 0.981 . S
H417 C283 0.980 . S
H418 C283 0.979 . S
H419 C283 0.980 . S
H420 C310 0.979 . S
H421 C310 0.981 . S
H422 C310 0.981 . S
H423 C311 0.980 . S
H424 C311 0.979 . S
H425 C311 0.980 . S
H426 C338 0.979 . S
H427 C338 0.981 . S
H428 C338 0.981 . S
H429 C339 0.980 . S
H430 C339 0.979 . S
H431 C339 0.980 . S
H432 C366 0.979 . S
H433 C366 0.981 . S
H434 C366 0.981 . S
H435 C367 0.980 . S
H436 C367 0.979 . S
H437 C367 0.980 . S
H438 C394 0.979 . S
H439 C394 0.981 . S
H440 C394 0.981 . S
H441 C395 0.980 . S
H442 C395 0.979 . S
H443 C395 0.980 . S
O444 C254 1.438 . S
O444 Cu396 1.923 . S
O444 Cu397 1.905 . S
O445 C255 1.533 . S
O445 Cu396 1.930 . S
O445 Cu405 1.920 . S
O446 C282 1.438 . S
O446 Cu398 1.923 . S
O446 Cu399 1.905 . S
O447 C283 1.533 . S
O447 Cu398 1.930 . S
O447 Cu407 1.920 . S
O448 C310 1.438 . S
O448 Cu400 1.923 . S
O448 Cu401 1.905 . S
O449 C311 1.533 . S
O449 Cu400 1.930 . S
O449 Cu403 1.920 . S
O450 C338 1.438 . S
O450 Cu402 1.923 . S
O450 Cu403 1.905 . S
O451 C339 1.533 . S
O451 Cu399 1.920 . S
O451 Cu402 1.930 . S
O452 C366 1.438 . S
O452 Cu404 1.923 . S
O452 Cu405 1.905 . S
O453 C367 1.533 . S
O453 Cu401 1.920 . S
O453 Cu404 1.930 . S
O454 C394 1.438 . S
O454 Cu406 1.923 . S
O454 Cu407 1.905 . S
O455 C395 1.533 . S
O455 Cu397 1.920 . S
O455 Cu406 1.930 . S
H456 C474 0.951 . S
H457 C476 0.951 . S
H458 C478 0.950 . S
H459 C479 0.950 . S
H460 C481 0.950 . S
H461 C484 0.950 . S
H462 C485 0.950 . S
H463 C487 0.950 1_545 S
H464 C488 0.950 . S
H465 C489 0.951 . S
H466 C491 0.951 . S
H467 C493 0.950 . S
H468 C494 0.950 . S
H469 C496 0.950 . S
H470 C499 0.950 . S
H471 C500 0.950 . S
H472 C502 0.950 1_565 S
H473 C503 0.950 . S
C474 H456 0.951 . S
C474 C475 1.366 . S
C474 C476 1.388 . S
C475 C474 1.366 . S
C475 C479 1.385 . S
C476 H457 0.951 . S
C476 C474 1.388 . S
C476 C477 1.366 . S
C477 C476 1.366 . S
C477 C478 1.414 . S
C477 C480 1.499 . S
C478 H458 0.950 . S
C478 C477 1.414 . S
C478 C479 1.374 . S
C479 H459 0.950 . S
C479 C475 1.385 . S
C479 C478 1.374 . S
C480 C477 1.499 . S
C480 C481 1.373 . S
C480 C482 1.389 . S
C481 H460 0.950 . S
C481 C480 1.373 . S
C481 C497 1.377 1_566 S
C482 C480 1.389 . S
C482 C483 1.524 . S
C482 C496 1.377 1_566 S
C483 C482 1.524 . S
C483 C484 1.397 . S
C483 C488 1.363 1_565 S
C484 H461 0.950 . S
C484 C483 1.397 . S
C484 C485 1.334 . S
C485 H462 0.950 . S
C485 C484 1.334 . S
C485 C486 1.287 . S
C486 C485 1.287 . S
C486 C487 1.524 . S
C486 H505 0.913 . S
C487 H463 0.950 1_565 S
C487 C486 1.524 . S
C487 C488 1.415 1_565 S
C488 H464 0.950 . S
C488 C483 1.363 1_545 S
C488 C487 1.415 1_545 S
C489 H465 0.951 . S
C489 C490 1.366 . S
C489 C491 1.388 . S
C490 C489 1.366 . S
C490 C494 1.385 . S
C491 H466 0.951 . S
C491 C489 1.388 . S
C491 C492 1.366 . S
C492 C491 1.366 . S
C492 C493 1.414 . S
C492 C495 1.499 . S
C493 H467 0.950 . S
C493 C492 1.414 . S
C493 C494 1.374 . S
C494 H468 0.950 . S
C494 C490 1.385 . S
C494 C493 1.374 . S
C495 C492 1.499 . S
C495 C496 1.373 . S
C495 C497 1.389 . S
C496 H469 0.950 . S
C496 C482 1.377 1_544 S
C496 C495 1.373 . S
C497 C481 1.377 1_544 S
C497 C495 1.389 . S
C497 C498 1.524 . S
C498 C497 1.524 . S
C498 C499 1.397 . S
C498 C503 1.363 1_545 S
C499 H470 0.950 . S
C499 C498 1.397 . S
C499 C500 1.334 . S
C500 H471 0.950 . S
C500 C499 1.334 . S
C500 C501 1.287 . S
C501 C500 1.287 . S
C501 C502 1.524 . S
C501 H504 0.999 . S
C502 H472 0.950 1_545 S
C502 C501 1.524 . S
C502 C503 1.415 1_545 S
C503 H473 0.950 . S
C503 C498 1.363 1_565 S
C503 C502 1.415 1_565 S
H504 C501 0.999 . S
H505 C486 0.913 . S
H506 C524 0.951 . S
H507 C526 0.951 . S
H508 C528 0.950 . S
H509 C529 0.950 . S
H510 C531 0.950 . S
H511 C534 0.950 . S
H512 C535 0.950 . S
H513 C537 0.950 . S
H514 C538 0.950 . S
H515 C539 0.951 . S
H516 C541 0.951 . S
H517 C543 0.950 . S
H518 C544 0.950 . S
H519 C546 0.950 . S
H520 C549 0.950 . S
H521 C550 0.950 . S
H522 C552 0.950 . S
H523 C553 0.950 . S
C524 H506 0.951 . S
C524 C525 1.366 . S
C524 C526 1.388 . S
C525 C524 1.366 . S
C525 C529 1.385 . S
C526 H507 0.951 . S
C526 C524 1.388 . S
C526 C527 1.366 . S
C527 C526 1.366 . S
C527 C528 1.414 . S
C527 C530 1.499 . S
C528 H508 0.950 . S
C528 C527 1.414 . S
C528 C529 1.374 . S
C529 H509 0.950 . S
C529 C525 1.385 . S
C529 C528 1.374 . S
C530 C527 1.499 . S
C530 C531 1.373 . S
C530 C532 1.389 . S
C531 H510 0.950 . S
C531 C530 1.373 . S
C531 C547 1.377 . S
C532 C530 1.389 . S
C532 C533 1.524 . S
C532 C546 1.377 . S
C533 C532 1.524 . S
C533 C534 1.397 . S
C533 C538 1.363 . S
C534 H511 0.950 . S
C534 C533 1.397 . S
C534 C535 1.334 . S
C535 H512 0.950 . S
C535 C534 1.334 . S
C535 C536 1.287 . S
C536 C535 1.287 . S
C536 C537 1.524 . S
C536 H555 0.913 . S
C537 H513 0.950 . S
C537 C536 1.524 . S
C537 C538 1.415 . S
C538 H514 0.950 . S
C538 C533 1.363 . S
C538 C537 1.415 . S
C539 H515 0.951 . S
C539 C540 1.366 . S
C539 C541 1.388 . S
C540 C539 1.366 . S
C540 C544 1.385 . S
C541 H516 0.951 . S
C541 C539 1.388 . S
C541 C542 1.366 . S
C542 C541 1.366 . S
C542 C543 1.414 . S
C542 C545 1.499 . S
C543 H517 0.950 . S
C543 C542 1.414 . S
C543 C544 1.374 . S
C544 H518 0.950 . S
C544 C540 1.385 . S
C544 C543 1.374 . S
C545 C542 1.499 . S
C545 C546 1.373 . S
C545 C547 1.389 . S
C546 H519 0.950 . S
C546 C532 1.377 . S
C546 C545 1.373 . S
C547 C531 1.377 . S
C547 C545 1.389 . S
C547 C548 1.524 . S
C548 C547 1.524 . S
C548 C549 1.397 . S
C548 C553 1.363 . S
C549 H520 0.950 . S
C549 C548 1.397 . S
C549 C550 1.334 . S
C550 H521 0.950 . S
C550 C549 1.334 . S
C550 C551 1.287 . S
C551 C550 1.287 . S
C551 C552 1.524 . S
C551 H554 0.999 . S
C552 H522 0.950 . S
C552 C551 1.524 . S
C552 C553 1.415 . S
C553 H523 0.950 . S
C553 C548 1.363 . S
C553 C552 1.415 . S
H554 C551 0.999 . S
H555 C536 0.913 . S
H556 C574 0.951 . S
H557 C576 0.951 . S
H558 C578 0.950 . S
H559 C579 0.950 . S
H560 C581 0.950 . S
H561 C584 0.950 . S
H562 C585 0.950 . S
H563 C587 0.950 . S
H564 C588 0.950 . S
H565 C589 0.951 . S
H566 C591 0.951 . S
H567 C593 0.950 . S
H568 C594 0.950 . S
H569 C596 0.950 . S
H570 C599 0.950 . S
H571 C600 0.950 . S
H572 C602 0.950 . S
H573 C603 0.950 . S
C574 H556 0.951 . S
C574 C575 1.366 . S
C574 C576 1.388 . S
C575 C574 1.366 . S
C575 C579 1.385 . S
C576 H557 0.951 . S
C576 C574 1.388 . S
C576 C577 1.366 . S
C577 C576 1.366 . S
C577 C578 1.414 . S
C577 C580 1.499 . S
C578 H558 0.950 . S
C578 C577 1.414 . S
C578 C579 1.374 . S
C579 H559 0.950 . S
C579 C575 1.385 . S
C579 C578 1.374 . S
C580 C577 1.499 . S
C580 C581 1.373 . S
C580 C582 1.389 1_655 S
C581 H560 0.950 . S
C581 C580 1.373 . S
C581 C597 1.377 1_554 S
C582 C580 1.389 1_455 S
C582 C583 1.524 . S
C582 C596 1.377 1_554 S
C583 C582 1.524 . S
C583 C584 1.397 . S
C583 C588 1.363 . S
C584 H561 0.950 . S
C584 C583 1.397 . S
C584 C585 1.334 . S
C585 H562 0.950 . S
C585 C584 1.334 . S
C585 C586 1.287 . S
C586 C585 1.287 . S
C586 C587 1.524 . S
C586 H605 0.913 . S
C587 H563 0.950 . S
C587 C586 1.524 . S
C587 C588 1.415 . S
C588 H564 0.950 . S
C588 C583 1.363 . S
C588 C587 1.415 . S
C589 H565 0.951 . S
C589 C590 1.366 . S
C589 C591 1.388 . S
C590 C589 1.366 . S
C590 C594 1.385 . S
C591 H566 0.951 . S
C591 C589 1.388 . S
C591 C592 1.366 . S
C592 C591 1.366 . S
C592 C593 1.414 . S
C592 C595 1.499 . S
C593 H567 0.950 . S
C593 C592 1.414 . S
C593 C594 1.374 . S
C594 H568 0.950 . S
C594 C590 1.385 . S
C594 C593 1.374 . S
C595 C592 1.499 . S
C595 C596 1.373 . S
C595 C597 1.389 1_455 S
C596 H569 0.950 . S
C596 C582 1.377 1_556 S
C596 C595 1.373 . S
C597 C581 1.377 1_556 S
C597 C595 1.389 1_655 S
C597 C598 1.524 . S
C598 C597 1.524 . S
C598 C599 1.397 . S
C598 C603 1.363 . S
C599 H570 0.950 . S
C599 C598 1.397 . S
C599 C600 1.334 . S
C600 H571 0.950 . S
C600 C599 1.334 . S
C600 C601 1.287 . S
C601 C600 1.287 . S
C601 C602 1.524 . S
C601 H604 0.999 . S
C602 H572 0.950 . S
C602 C601 1.524 . S
C602 C603 1.415 . S
C603 H573 0.950 . S
C603 C598 1.363 . S
C603 C602 1.415 . S
H604 C601 0.999 . S
H605 C586 0.913 . S
H606 C624 0.951 . S
H607 C626 0.951 . S
H608 C628 0.950 1_545 S
H609 C629 0.950 . S
H610 C631 0.950 . S
H611 C634 0.950 . S
H612 C635 0.950 . S
H613 C637 0.950 . S
H614 C638 0.950 1_565 S
H615 C639 0.951 . S
H616 C641 0.951 . S
H617 C643 0.950 1_565 S
H618 C644 0.950 . S
H619 C646 0.950 . S
H620 C649 0.950 . S
H621 C650 0.950 . S
H622 C652 0.950 . S
H623 C653 0.950 1_545 S
C624 H606 0.951 . S
C624 C625 1.366 . S
C624 C626 1.388 . S
C625 C624 1.366 . S
C625 C629 1.385 . S
C626 H607 0.951 . S
C626 C624 1.388 . S
C626 C627 1.366 . S
C627 C626 1.366 . S
C627 C628 1.414 . S
C627 C630 1.499 . S
C628 H608 0.950 1_565 S
C628 C627 1.414 . S
C628 C629 1.374 . S
C629 H609 0.950 . S
C629 C625 1.385 . S
C629 C628 1.374 . S
C630 C627 1.499 . S
C630 C631 1.373 . S
C630 C632 1.389 1_565 S
C631 H610 0.950 . S
C631 C630 1.373 . S
C631 C647 1.377 . S
C632 C630 1.389 1_545 S
C632 C633 1.524 . S
C632 C646 1.377 . S
C633 C632 1.524 . S
C633 C634 1.397 . S
C633 C638 1.363 . S
C634 H611 0.950 . S
C634 C633 1.397 . S
C634 C635 1.334 . S
C635 H612 0.950 . S
C635 C634 1.334 . S
C635 C636 1.287 . S
C636 C635 1.287 . S
C636 C637 1.524 . S
C636 H655 0.913 . S
C637 H613 0.950 . S
C637 C636 1.524 . S
C637 C638 1.415 . S
C638 H614 0.950 1_545 S
C638 C633 1.363 . S
C638 C637 1.415 . S
C639 H615 0.951 . S
C639 C640 1.366 . S
C639 C641 1.388 . S
C640 C639 1.366 . S
C640 C644 1.385 . S
C641 H616 0.951 . S
C641 C639 1.388 . S
C641 C642 1.366 . S
C642 C641 1.366 . S
C642 C643 1.414 . S
C642 C645 1.499 . S
C643 H617 0.950 1_545 S
C643 C642 1.414 . S
C643 C644 1.374 . S
C644 H618 0.950 . S
C644 C640 1.385 . S
C644 C643 1.374 . S
C645 C642 1.499 . S
C645 C646 1.373 . S
C645 C647 1.389 1_545 S
C646 H619 0.950 . S
C646 C632 1.377 . S
C646 C645 1.373 . S
C647 C631 1.377 . S
C647 C645 1.389 1_565 S
C647 C648 1.524 . S
C648 C647 1.524 . S
C648 C649 1.397 . S
C648 C653 1.363 . S
C649 H620 0.950 . S
C649 C648 1.397 . S
C649 C650 1.334 . S
C650 H621 0.950 . S
C650 C649 1.334 . S
C650 C651 1.287 . S
C651 C650 1.287 . S
C651 C652 1.524 . S
C651 H654 0.999 . S
C652 H622 0.950 . S
C652 C651 1.524 . S
C652 C653 1.415 . S
C653 H623 0.950 1_565 S
C653 C648 1.363 . S
C653 C652 1.415 . S
H654 C651 0.999 . S
H655 C636 0.913 . S
H656 C674 0.951 . S
H657 C676 0.951 . S
H658 C678 0.950 . S
H659 C679 0.950 . S
H660 C681 0.950 . S
H661 C684 0.950 . S
H662 C685 0.950 . S
H663 C687 0.950 . S
H664 C688 0.950 . S
H665 C689 0.951 . S
H666 C691 0.951 . S
H667 C693 0.950 . S
H668 C694 0.950 . S
H669 C696 0.950 . S
H670 C699 0.950 . S
H671 C700 0.950 . S
H672 C702 0.950 . S
H673 C703 0.950 . S
C674 H656 0.951 . S
C674 C675 1.366 . S
C674 C676 1.388 . S
C675 C674 1.366 . S
C675 C679 1.385 . S
C676 H657 0.951 . S
C676 C674 1.388 . S
C676 C677 1.366 . S
C677 C676 1.366 . S
C677 C678 1.414 . S
C677 C680 1.499 . S
C678 H658 0.950 . S
C678 C677 1.414 . S
C678 C679 1.374 . S
C679 H659 0.950 . S
C679 C675 1.385 . S
C679 C678 1.374 . S
C680 C677 1.499 . S
C680 C681 1.373 1_554 S
C680 C682 1.389 . S
C681 H660 0.950 . S
C681 C680 1.373 1_556 S
C681 C697 1.377 . S
C682 C680 1.389 . S
C682 C683 1.524 . S
C682 C696 1.377 . S
C683 C682 1.524 . S
C683 C684 1.397 . S
C683 C688 1.363 . S
C684 H661 0.950 . S
C684 C683 1.397 . S
C684 C685 1.334 . S
C685 H662 0.950 . S
C685 C684 1.334 . S
C685 C686 1.287 . S
C686 C685 1.287 . S
C686 C687 1.524 . S
C686 H705 0.913 . S
C687 H663 0.950 . S
C687 C686 1.524 . S
C687 C688 1.415 . S
C688 H664 0.950 . S
C688 C683 1.363 . S
C688 C687 1.415 . S
C689 H665 0.951 . S
C689 C690 1.366 . S
C689 C691 1.388 . S
C690 C689 1.366 . S
C690 C694 1.385 . S
C691 H666 0.951 . S
C691 C689 1.388 . S
C691 C692 1.366 . S
C692 C691 1.366 . S
C692 C693 1.414 . S
C692 C695 1.499 . S
C693 H667 0.950 . S
C693 C692 1.414 . S
C693 C694 1.374 . S
C694 H668 0.950 . S
C694 C690 1.385 . S
C694 C693 1.374 . S
C695 C692 1.499 . S
C695 C696 1.373 1_556 S
C695 C697 1.389 . S
C696 H669 0.950 . S
C696 C682 1.377 . S
C696 C695 1.373 1_554 S
C697 C681 1.377 . S
C697 C695 1.389 . S
C697 C698 1.524 . S
C698 C697 1.524 . S
C698 C699 1.397 . S
C698 C703 1.363 . S
C699 H670 0.950 . S
C699 C698 1.397 . S
C699 C700 1.334 . S
C700 H671 0.950 . S
C700 C699 1.334 . S
C700 C701 1.287 . S
C701 C700 1.287 . S
C701 C702 1.524 . S
C701 H704 0.999 . S
C702 H672 0.950 . S
C702 C701 1.524 . S
C702 C703 1.415 . S
C703 H673 0.950 . S
C703 C698 1.363 . S
C703 C702 1.415 . S
H704 C701 0.999 . S
H705 C686 0.913 . S
H706 C724 0.951 . S
H707 C726 0.951 . S
H708 C728 0.950 . S
H709 C729 0.950 . S
H710 C731 0.945 . S
H711 C734 0.950 . S
H712 C735 0.950 . S
H713 C737 0.950 . S
H714 C738 0.950 . S
H715 C739 0.951 . S
H716 C741 0.951 . S
H717 C743 0.950 . S
H718 C744 0.950 . S
H719 C746 0.945 . S
H720 C749 0.950 . S
H721 C750 0.950 . S
H722 C752 0.950 . S
H723 C753 0.950 . S
C724 H706 0.951 . S
C724 C725 1.366 . S
C724 C726 1.388 . S
C725 C724 1.366 . S
C725 C729 1.385 . S
C726 H707 0.951 . S
C726 C724 1.388 . S
C726 C727 1.366 . S
C727 C726 1.366 . S
C727 C728 1.414 . S
C727 C730 1.499 . S
C728 H708 0.950 . S
C728 C727 1.414 . S
C728 C729 1.374 . S
C729 H709 0.950 . S
C729 C725 1.385 . S
C729 C728 1.374 . S
C730 C727 1.499 . S
C730 C731 1.363 1_655 S
C730 C732 1.389 . S
C731 H710 0.945 . S
C731 C730 1.363 1_455 S
C731 C747 1.393 . S
C732 C730 1.389 . S
C732 C733 1.524 . S
C732 C746 1.393 . S
C733 C732 1.524 . S
C733 C734 1.397 . S
C733 C738 1.363 . S
C734 H711 0.950 . S
C734 C733 1.397 . S
C734 C735 1.334 . S
C735 H712 0.950 . S
C735 C734 1.334 . S
C735 C736 1.287 . S
C736 C735 1.287 . S
C736 C737 1.524 . S
C736 H755 0.913 . S
C737 H713 0.950 . S
C737 C736 1.524 . S
C737 C738 1.415 . S
C738 H714 0.950 . S
C738 C733 1.363 . S
C738 C737 1.415 . S
C739 H715 0.951 . S
C739 C740 1.366 . S
C739 C741 1.388 . S
C740 C739 1.366 . S
C740 C744 1.385 . S
C741 H716 0.951 . S
C741 C739 1.388 . S
C741 C742 1.366 . S
C742 C741 1.366 . S
C742 C743 1.414 . S
C742 C745 1.499 . S
C743 H717 0.950 . S
C743 C742 1.414 . S
C743 C744 1.374 . S
C744 H718 0.950 . S
C744 C740 1.385 . S
C744 C743 1.374 . S
C745 C742 1.499 . S
C745 C746 1.363 1_455 S
C745 C747 1.389 . S
C746 H719 0.945 . S
C746 C732 1.393 . S
C746 C745 1.363 1_655 S
C747 C731 1.393 . S
C747 C745 1.389 . S
C747 C748 1.524 . S
C748 C747 1.524 . S
C748 C749 1.397 . S
C748 C753 1.363 . S
C749 H720 0.950 . S
C749 C748 1.397 . S
C749 C750 1.334 . S
C750 H721 0.950 . S
C750 C749 1.334 . S
C750 C751 1.287 . S
C751 C750 1.287 . S
C751 C752 1.524 . S
C751 H754 0.999 . S
C752 H722 0.950 . S
C752 C751 1.524 . S
C752 C753 1.415 . S
C753 H723 0.950 . S
C753 C748 1.363 . S
C753 C752 1.415 . S
H754 C751 0.999 . S
H755 C736 0.913 . S
H756 C774 0.951 . S
H757 C776 0.951 . S
H758 C778 0.950 . S
H759 C779 0.950 . S
H760 C781 0.950 . S
H761 C784 0.950 . S
H762 C785 0.950 . S
H763 C787 0.950 . S
H764 C788 0.950 . S
H765 C789 0.951 . S
H766 C791 0.951 . S
H767 C793 0.950 . S
H768 C794 0.950 . S
H769 C796 0.950 . S
H770 C799 0.950 . S
H771 C800 0.950 . S
H772 C802 0.950 . S
H773 C803 0.950 . S
C774 H756 0.951 . S
C774 C775 1.366 . S
C774 C776 1.388 1_545 S
C775 C774 1.366 . S
C775 C779 1.385 . S
C776 H757 0.951 . S
C776 C774 1.388 1_565 S
C776 C777 1.366 . S
C777 C776 1.366 . S
C777 C778 1.414 . S
C777 C780 1.499 . S
C778 H758 0.950 . S
C778 C777 1.414 . S
C778 C779 1.374 1_565 S
C779 H759 0.950 . S
C779 C775 1.385 . S
C779 C778 1.374 1_545 S
C780 C777 1.499 . S
C780 C781 1.373 . S
C780 C782 1.389 . S
C781 H760 0.950 . S
C781 C780 1.373 . S
C781 C797 1.377 . S
C782 C780 1.389 . S
C782 C783 1.524 . S
C782 C796 1.377 . S
C783 C782 1.524 . S
C783 C784 1.397 . S
C783 C788 1.363 . S
C784 H761 0.950 . S
C784 C783 1.397 . S
C784 C785 1.334 1_565 S
C785 H762 0.950 . S
C785 C784 1.334 1_545 S
C785 C786 1.287 . S
C786 C785 1.287 . S
C786 C787 1.524 1_545 S
C786 H805 0.913 . S
C787 H763 0.950 . S
C787 C786 1.524 1_565 S
C787 C788 1.415 . S
C788 H764 0.950 . S
C788 C783 1.363 . S
C788 C787 1.415 . S
C789 H765 0.951 . S
C789 C790 1.366 . S
C789 C791 1.388 . S
C790 C789 1.366 . S
C790 C794 1.385 . S
C791 H766 0.951 . S
C791 C789 1.388 . S
C791 C792 1.366 . S
C792 C791 1.366 . S
C792 C793 1.414 . S
C792 C795 1.499 . S
C793 H767 0.950 . S
C793 C792 1.414 . S
C793 C794 1.374 . S
C794 H768 0.950 . S
C794 C790 1.385 . S
C794 C793 1.374 . S
C795 C792 1.499 . S
C795 C796 1.373 . S
C795 C797 1.389 . S
C796 H769 0.950 . S
C796 C782 1.377 . S
C796 C795 1.373 . S
C797 C781 1.377 . S
C797 C795 1.389 . S
C797 C798 1.524 . S
C798 C797 1.524 . S
C798 C799 1.397 . S
C798 C803 1.363 . S
C799 H770 0.950 . S
C799 C798 1.397 . S
C799 C800 1.334 . S
C800 H771 0.950 . S
C800 C799 1.334 . S
C800 C801 1.287 . S
C801 C800 1.287 . S
C801 C802 1.524 . S
C801 H804 0.999 . S
C802 H772 0.950 . S
C802 C801 1.524 . S
C802 C803 1.415 . S
C803 H773 0.950 . S
C803 C798 1.363 . S
C803 C802 1.415 . S
H804 C801 0.999 . S
H805 C786 0.913 . S
H806 C824 0.951 . S
H807 C826 0.951 . S
H808 C828 0.950 . S
H809 C829 0.950 1_455 S
H810 C831 0.950 . S
H811 C834 0.950 . S
H812 C835 0.950 . S
H813 C837 0.950 . S
H814 C838 0.950 . S
H815 C839 0.951 . S
H816 C841 0.951 . S
H817 C843 0.950 . S
H818 C844 0.950 . S
H819 C846 0.950 . S
H820 C849 0.950 . S
H821 C850 0.950 . S
H822 C852 0.950 . S
H823 C853 0.950 . S
C824 H806 0.951 . S
C824 C825 1.366 . S
C824 C826 1.388 1_455 S
C825 C824 1.366 . S
C825 C829 1.385 1_455 S
C826 H807 0.951 . S
C826 C824 1.388 1_655 S
C826 C827 1.366 . S
C827 C826 1.366 . S
C827 C828 1.414 . S
C827 C830 1.499 . S
C828 H808 0.950 . S
C828 C827 1.414 . S
C828 C829 1.374 . S
C829 H809 0.950 1_655 S
C829 C825 1.385 1_655 S
C829 C828 1.374 . S
C830 C827 1.499 . S
C830 C831 1.373 . S
C830 C832 1.389 . S
C831 H810 0.950 . S
C831 C830 1.373 . S
C831 C847 1.377 . S
C832 C830 1.389 . S
C832 C833 1.524 . S
C832 C846 1.377 . S
C833 C832 1.524 . S
C833 C834 1.397 . S
C833 C838 1.363 . S
C834 H811 0.950 . S
C834 C833 1.397 . S
C834 C835 1.334 . S
C835 H812 0.950 . S
C835 C834 1.334 . S
C835 C836 1.287 . S
C836 C835 1.287 . S
C836 C837 1.524 . S
C836 H855 0.913 . S
C837 H813 0.950 . S
C837 C836 1.524 . S
C837 C838 1.415 . S
C838 H814 0.950 . S
C838 C833 1.363 . S
C838 C837 1.415 . S
C839 H815 0.951 . S
C839 C840 1.366 . S
C839 C841 1.388 . S
C840 C839 1.366 . S
C840 C844 1.385 . S
C841 H816 0.951 . S
C841 C839 1.388 . S
C841 C842 1.366 . S
C842 C841 1.366 . S
C842 C843 1.414 . S
C842 C845 1.499 . S
C843 H817 0.950 . S
C843 C842 1.414 . S
C843 C844 1.374 . S
C844 H818 0.950 . S
C844 C840 1.385 . S
C844 C843 1.374 . S
C845 C842 1.499 . S
C845 C846 1.373 . S
C845 C847 1.389 . S
C846 H819 0.950 . S
C846 C832 1.377 . S
C846 C845 1.373 . S
C847 C831 1.377 . S
C847 C845 1.389 . S
C847 C848 1.524 . S
C848 C847 1.524 . S
C848 C849 1.397 . S
C848 C853 1.363 . S
C849 H820 0.950 . S
C849 C848 1.397 . S
C849 C850 1.334 . S
C850 H821 0.950 . S
C850 C849 1.334 . S
C850 C851 1.287 . S
C851 C850 1.287 . S
C851 C852 1.524 . S
C851 H854 0.999 . S
C852 H822 0.950 . S
C852 C851 1.524 . S
C852 C853 1.415 . S
C853 H823 0.950 . S
C853 C848 1.363 . S
C853 C852 1.415 . S
H854 C851 0.999 . S
H855 C836 0.913 . S
H856 C874 0.951 1_545 S
H857 C876 0.951 . S
H858 C878 0.950 . S
H859 C879 0.950 . S
H860 C881 0.950 . S
H861 C884 0.950 . S
H862 C885 0.950 . S
H863 C887 0.950 . S
H864 C888 0.950 . S
H865 C889 0.951 . S
H866 C891 0.951 . S
H867 C893 0.950 . S
H868 C894 0.950 . S
H869 C896 0.950 . S
H870 C899 0.950 . S
H871 C900 0.950 1_655 S
H872 C902 0.950 . S
H873 C903 0.950 . S
C874 H856 0.951 1_565 S
C874 C875 1.366 1_565 S
C874 C876 1.388 . S
C875 C874 1.366 1_545 S
C875 C879 1.385 . S
C876 H857 0.951 . S
C876 C874 1.388 . S
C876 C877 1.366 . S
C877 C876 1.366 . S
C877 C878 1.414 . S
C877 C880 1.499 . S
C878 H858 0.950 . S
C878 C877 1.414 . S
C878 C879 1.374 1_565 S
C879 H859 0.950 . S
C879 C875 1.385 . S
C879 C878 1.374 1_545 S
C880 C877 1.499 . S
C880 C881 1.373 . S
C880 C882 1.389 . S
C881 H860 0.950 . S
C881 C880 1.373 . S
C881 C897 1.377 . S
C882 C880 1.389 . S
C882 C883 1.524 . S
C882 C896 1.377 . S
C883 C882 1.524 . S
C883 C884 1.397 . S
C883 C888 1.363 . S
C884 H861 0.950 . S
C884 C883 1.397 . S
C884 C885 1.334 . S
C885 H862 0.950 . S
C885 C884 1.334 . S
C885 C886 1.287 . S
C886 C885 1.287 . S
C886 C887 1.524 . S
C886 H905 0.913 . S
C887 H863 0.950 . S
C887 C886 1.524 . S
C887 C888 1.415 . S
C888 H864 0.950 . S
C888 C883 1.363 . S
C888 C887 1.415 . S
C889 H865 0.951 . S
C889 C890 1.366 . S
C889 C891 1.388 1_655 S
C890 C889 1.366 . S
C890 C894 1.385 . S
C891 H866 0.951 . S
C891 C889 1.388 1_455 S
C891 C892 1.366 . S
C892 C891 1.366 . S
C892 C893 1.414 . S
C892 C895 1.499 . S
C893 H867 0.950 . S
C893 C892 1.414 . S
C893 C894 1.374 1_455 S
C894 H868 0.950 . S
C894 C890 1.385 . S
C894 C893 1.374 1_655 S
C895 C892 1.499 . S
C895 C896 1.373 . S
C895 C897 1.389 . S
C896 H869 0.950 . S
C896 C882 1.377 . S
C896 C895 1.373 . S
C897 C881 1.377 . S
C897 C895 1.389 . S
C897 C898 1.524 . S
C898 C897 1.524 . S
C898 C899 1.397 . S
C898 C903 1.363 . S
C899 H870 0.950 . S
C899 C898 1.397 . S
C899 C900 1.334 . S
C900 H871 0.950 1_455 S
C900 C899 1.334 . S
C900 C901 1.287 . S
C901 C900 1.287 . S
C901 C902 1.524 . S
C901 H904 0.999 1_455 S
C902 H872 0.950 . S
C902 C901 1.524 . S
C902 C903 1.415 . S
C903 H873 0.950 . S
C903 C898 1.363 . S
C903 C902 1.415 . S
H904 C901 0.999 1_655 S
H905 C886 0.913 . S
H906 C924 0.951 . S
H907 C926 0.951 . S
H908 C928 0.950 . S
H909 C929 0.950 . S
H910 C931 0.950 . S
H911 C934 0.950 . S
H912 C935 0.950 . S
H913 C937 0.950 . S
H914 C938 0.950 . S
H915 C939 0.951 . S
H916 C941 0.951 . S
H917 C943 0.950 . S
H918 C944 0.950 . S
H919 C946 0.950 . S
H920 C949 0.950 . S
H921 C950 0.950 . S
H922 C952 0.950 1_565 S
H923 C953 0.950 . S
C924 H906 0.951 . S
C924 C925 1.366 . S
C924 C926 1.388 . S
C925 C924 1.366 . S
C925 C929 1.385 . S
C926 H907 0.951 . S
C926 C924 1.388 . S
C926 C927 1.366 . S
C927 C926 1.366 . S
C927 C928 1.414 . S
C927 C930 1.499 . S
C928 H908 0.950 . S
C928 C927 1.414 . S
C928 C929 1.374 . S
C929 H909 0.950 . S
C929 C925 1.385 . S
C929 C928 1.374 . S
C930 C927 1.499 . S
C930 C931 1.373 . S
C930 C932 1.389 . S
C931 H910 0.950 . S
C931 C930 1.373 . S
C931 C947 1.377 . S
C932 C930 1.389 . S
C932 C933 1.524 . S
C932 C946 1.377 . S
C933 C932 1.524 . S
C933 C934 1.397 . S
C933 C938 1.363 . S
C934 H911 0.950 . S
C934 C933 1.397 . S
C934 C935 1.334 . S
C935 H912 0.950 . S
C935 C934 1.334 . S
C935 C936 1.287 . S
C936 C935 1.287 . S
C936 C937 1.524 . S
C936 H955 0.913 . S
C937 H913 0.950 . S
C937 C936 1.524 . S
C937 C938 1.415 . S
C938 H914 0.950 . S
C938 C933 1.363 . S
C938 C937 1.415 . S
C939 H915 0.951 . S
C939 C940 1.366 . S
C939 C941 1.388 1_565 S
C940 C939 1.366 . S
C940 C944 1.385 . S
C941 H916 0.951 . S
C941 C939 1.388 1_545 S
C941 C942 1.366 . S
C942 C941 1.366 . S
C942 C943 1.414 . S
C942 C945 1.499 . S
C943 H917 0.950 . S
C943 C942 1.414 . S
C943 C944 1.374 1_545 S
C944 H918 0.950 . S
C944 C940 1.385 . S
C944 C943 1.374 1_565 S
C945 C942 1.499 . S
C945 C946 1.373 . S
C945 C947 1.389 . S
C946 H919 0.950 . S
C946 C932 1.377 . S
C946 C945 1.373 . S
C947 C931 1.377 . S
C947 C945 1.389 . S
C947 C948 1.524 . S
C948 C947 1.524 . S
C948 C949 1.397 . S
C948 C953 1.363 . S
C949 H920 0.950 . S
C949 C948 1.397 . S
C949 C950 1.334 1_545 S
C950 H921 0.950 . S
C950 C949 1.334 1_565 S
C950 C951 1.287 . S
C951 C950 1.287 . S
C951 C952 1.524 1_565 S
C951 H954 0.999 . S
C952 H922 0.950 1_545 S
C952 C951 1.524 1_545 S
C952 C953 1.415 . S
C953 H923 0.950 . S
C953 C948 1.363 . S
C953 C952 1.415 . S
H954 C951 0.999 . S
H955 C936 0.913 . S
H956 C974 0.951 . S
H957 C976 0.951 . S
H958 C978 0.950 . S
H959 C979 0.950 . S
H960 C981 0.950 . S
H961 C984 0.950 . S
H962 C985 0.950 . S
H963 C987 0.950 . S
H964 C988 0.950 . S
H965 C989 0.951 . S
H966 C991 0.951 . S
H967 C993 0.950 . S
H968 C994 0.950 . S
H969 C996 0.950 . S
H970 C999 0.950 . S
H971 C1000 0.950 . S
H972 C1002 0.950 . S
H973 C1003 0.950 . S
C974 H956 0.951 . S
C974 C975 1.366 . S
C974 C976 1.388 . S
C975 C974 1.366 . S
C975 C979 1.385 . S
C976 H957 0.951 . S
C976 C974 1.388 . S
C976 C977 1.366 . S
C977 C976 1.366 . S
C977 C978 1.414 . S
C977 C980 1.499 . S
C978 H958 0.950 . S
C978 C977 1.414 . S
C978 C979 1.374 . S
C979 H959 0.950 . S
C979 C975 1.385 . S
C979 C978 1.374 . S
C980 C977 1.499 . S
C980 C981 1.373 . S
C980 C982 1.389 . S
C981 H960 0.950 . S
C981 C980 1.373 . S
C981 C997 1.377 . S
C982 C980 1.389 . S
C982 C983 1.524 . S
C982 C996 1.377 . S
C983 C982 1.524 . S
C983 C984 1.397 . S
C983 C988 1.363 . S
C984 H961 0.950 . S
C984 C983 1.397 . S
C984 C985 1.334 . S
C985 H962 0.950 . S
C985 C984 1.334 . S
C985 C986 1.287 . S
C986 C985 1.287 . S
C986 C987 1.524 . S
C986 H1005 0.913 . S
C987 H963 0.950 . S
C987 C986 1.524 . S
C987 C988 1.415 . S
C988 H964 0.950 . S
C988 C983 1.363 . S
C988 C987 1.415 . S
C989 H965 0.951 . S
C989 C990 1.366 . S
C989 C991 1.388 1_655 S
C990 C989 1.366 . S
C990 C994 1.385 . S
C991 H966 0.951 . S
C991 C989 1.388 1_455 S
C991 C992 1.366 . S
C992 C991 1.366 . S
C992 C993 1.414 . S
C992 C995 1.499 . S
C993 H967 0.950 . S
C993 C992 1.414 . S
C993 C994 1.374 1_455 S
C994 H968 0.950 . S
C994 C990 1.385 . S
C994 C993 1.374 1_655 S
C995 C992 1.499 . S
C995 C996 1.373 . S
C995 C997 1.389 . S
C996 H969 0.950 . S
C996 C982 1.377 . S
C996 C995 1.373 . S
C997 C981 1.377 . S
C997 C995 1.389 . S
C997 C998 1.524 . S
C998 C997 1.524 . S
C998 C999 1.397 . S
C998 C1003 1.363 . S
C999 H970 0.950 . S
C999 C998 1.397 . S
C999 C1000 1.335 1_455 S
C1000 H971 0.950 . S
C1000 C999 1.335 1_655 S
C1000 C1001 1.287 1_655 S
C1001 C1000 1.287 1_455 S
C1001 C1002 1.524 . S
C1001 H1004 0.999 1_455 S
C1002 H972 0.950 . S
C1002 C1001 1.524 . S
C1002 C1003 1.415 . S
C1003 H973 0.950 . S
C1003 C998 1.363 . S
C1003 C1002 1.415 . S
H1004 C1001 0.999 1_655 S
H1005 C986 0.913 . S
H1006 C1024 0.951 . S
H1007 C1026 0.951 . S
H1008 C1028 0.950 . S
H1009 C1029 0.950 . S
H1010 C1031 0.950 . S
H1011 C1034 0.950 . S
H1012 C1035 0.950 . S
H1013 C1037 0.950 . S
H1014 C1038 0.950 . S
H1015 C1039 0.951 . S
H1016 C1041 0.951 . S
H1017 C1043 0.950 . S
H1018 C1044 0.950 . S
H1019 C1046 0.950 . S
H1020 C1049 0.950 . S
H1021 C1050 0.950 . S
H1022 C1052 0.950 . S
H1023 C1053 0.950 . S
C1024 H1006 0.951 . S
C1024 C1025 1.366 . S
C1024 C1026 1.388 1_455 S
C1025 C1024 1.366 . S
C1025 C1029 1.385 . S
C1026 H1007 0.951 . S
C1026 C1024 1.388 1_655 S
C1026 C1027 1.366 . S
C1027 C1026 1.366 . S
C1027 C1028 1.414 . S
C1027 C1030 1.499 . S
C1028 H1008 0.950 . S
C1028 C1027 1.414 . S
C1028 C1029 1.374 1_655 S
C1029 H1009 0.950 . S
C1029 C1025 1.385 . S
C1029 C1028 1.374 1_455 S
C1030 C1027 1.499 . S
C1030 C1031 1.373 . S
C1030 C1032 1.389 . S
C1031 H1010 0.950 . S
C1031 C1030 1.373 . S
C1031 C1047 1.377 . S
C1032 C1030 1.389 . S
C1032 C1033 1.524 . S
C1032 C1046 1.377 . S
C1033 C1032 1.524 . S
C1033 C1034 1.397 . S
C1033 C1038 1.363 . S
C1034 H1011 0.950 . S
C1034 C1033 1.397 . S
C1034 C1035 1.334 . S
C1035 H1012 0.950 . S
C1035 C1034 1.334 . S
C1035 C1036 1.287 . S
C1036 C1035 1.287 . S
C1036 C1037 1.524 . S
C1036 H1055 0.913 . S
C1037 H1013 0.950 . S
C1037 C1036 1.524 . S
C1037 C1038 1.415 . S
C1038 H1014 0.950 . S
C1038 C1033 1.363 . S
C1038 C1037 1.415 . S
C1039 H1015 0.951 . S
C1039 C1040 1.366 . S
C1039 C1041 1.388 1_565 S
C1040 C1039 1.366 . S
C1040 C1044 1.385 1_565 S
C1041 H1016 0.951 . S
C1041 C1039 1.388 1_545 S
C1041 C1042 1.366 . S
C1042 C1041 1.366 . S
C1042 C1043 1.414 . S
C1042 C1045 1.499 . S
C1043 H1017 0.950 . S
C1043 C1042 1.414 . S
C1043 C1044 1.374 . S
C1044 H1018 0.950 . S
C1044 C1040 1.385 1_545 S
C1044 C1043 1.374 . S
C1045 C1042 1.499 . S
C1045 C1046 1.373 . S
C1045 C1047 1.389 . S
C1046 H1019 0.950 . S
C1046 C1032 1.377 . S
C1046 C1045 1.373 . S
C1047 C1031 1.377 . S
C1047 C1045 1.389 . S
C1047 C1048 1.524 . S
C1048 C1047 1.524 . S
C1048 C1049 1.397 . S
C1048 C1053 1.363 . S
C1049 H1020 0.950 . S
C1049 C1048 1.397 . S
C1049 C1050 1.334 . S
C1050 H1021 0.950 . S
C1050 C1049 1.334 . S
C1050 C1051 1.287 . S
C1051 C1050 1.287 . S
C1051 C1052 1.524 . S
C1051 H1054 0.999 . S
C1052 H1022 0.950 . S
C1052 C1051 1.524 . S
C1052 C1053 1.415 . S
C1053 H1023 0.950 . S
C1053 C1048 1.363 . S
C1053 C1052 1.415 . S
H1054 C1051 0.999 . S
H1055 C1036 0.913 . S
C475 C371 1.615 . S
C490 C58 1.615 . S
C525 C286 3.590 . S
C540 C143 3.590 . S
C575 C15 1.633 . S
C590 C326 1.633 . S
C625 C243 2.840 . S
C640 C98 2.840 . S
C675 C156 1.642 . S
C690 C301 1.642 . S
C725 C73 0.802 . S
C740 C384 0.802 . S
C775 C31 1.275 . S
C790 C113 1.275 . S
C825 C273 0.713 . S
C840 C354 0.713 . S
C875 C1 1.368 . S
C890 C86 1.368 . S
C925 C259 1.275 . S
C940 C341 1.275 . S
C975 C45 0.713 . S
C990 C126 0.713 . S
C1025 C229 1.369 . S
C1040 C314 1.369 . S
