# Generated by pormake.
# Topology xfh, (7)-cn, num edge types: 1
# Building blocks:
#     Node 0, Type 0, BuildingBlock: NUHQUE_clean_sbu_2, # of connection points: 7
#     Node 1, Type 0, BuildingBlock: NUHQUE_clean_sbu_2, # of connection points: 7
#     Node 2, Type 0, BuildingBlock: NUHQUE_clean_sbu_2, # of connection points: 7
#     Node 3, Type 0, BuildingBlock: NUHQUE_clean_sbu_2, # of connection points: 7
#     Node 4, Type 0, BuildingBlock: NUHQUE_clean_sbu_2, # of connection points: 7
#     Node 5, Type 0, BuildingBlock: NUHQUE_clean_sbu_2, # of connection points: 7
#     Node 6, Type 0, BuildingBlock: NUHQUE_clean_sbu_2, # of connection points: 7
#     Node 7, Type 0, BuildingBlock: NUHQUE_clean_sbu_2, # of connection points: 7
#     Node 8, Type 0, BuildingBlock: NUHQUE_clean_sbu_2, # of connection points: 7
#     Node 9, Type 0, BuildingBlock: NUHQUE_clean_sbu_2, # of connection points: 7
#     Node 10, Type 0, BuildingBlock: NUHQUE_clean_sbu_2, # of connection points: 7
#     Node 11, Type 0, BuildingBlock: NUHQUE_clean_sbu_2, # of connection points: 7
#     Node 12, Type 0, BuildingBlock: NUHQUE_clean_sbu_2, # of connection points: 7
#     Node 13, Type 0, BuildingBlock: NUHQUE_clean_sbu_2, # of connection points: 7
#     Node 14, Type 0, BuildingBlock: NUHQUE_clean_sbu_2, # of connection points: 7
#     Node 15, Type 0, BuildingBlock: NUHQUE_clean_sbu_2, # of connection points: 7
#     Edge 16, Type (0, 0), None
#     Edge 17, Type (0, 0), None
#     Edge 18, Type (0, 0), None
#     Edge 19, Type (0, 0), None
#     Edge 20, Type (0, 0), None
#     Edge 21, Type (0, 0), None
#     Edge 22, Type (0, 0), None
#     Edge 23, Type (0, 0), None
#     Edge 24, Type (0, 0), None
#     Edge 25, Type (0, 0), None
#     Edge 26, Type (0, 0), None
#     Edge 27, Type (0, 0), None
#     Edge 28, Type (0, 0), None
#     Edge 29, Type (0, 0), None
#     Edge 30, Type (0, 0), None
#     Edge 31, Type (0, 0), None
#     Edge 32, Type (0, 0), None
#     Edge 33, Type (0, 0), None
#     Edge 34, Type (0, 0), None
#     Edge 35, Type (0, 0), None
#     Edge 36, Type (0, 0), None
#     Edge 37, Type (0, 0), None
#     Edge 38, Type (0, 0), None
#     Edge 39, Type (0, 0), None
#     Edge 40, Type (0, 0), None
#     Edge 41, Type (0, 0), None
#     Edge 42, Type (0, 0), None
#     Edge 43, Type (0, 0), None
#     Edge 44, Type (0, 0), None
#     Edge 45, Type (0, 0), None
#     Edge 46, Type (0, 0), None
#     Edge 47, Type (0, 0), None
#     Edge 48, Type (0, 0), None
#     Edge 49, Type (0, 0), None
#     Edge 50, Type (0, 0), None
#     Edge 51, Type (0, 0), None
#     Edge 52, Type (0, 0), None
#     Edge 53, Type (0, 0), None
#     Edge 54, Type (0, 0), None
#     Edge 55, Type (0, 0), None
#     Edge 56, Type (0, 0), None
#     Edge 57, Type (0, 0), None
#     Edge 58, Type (0, 0), None
#     Edge 59, Type (0, 0), None
#     Edge 60, Type (0, 0), None
#     Edge 61, Type (0, 0), None
#     Edge 62, Type (0, 0), None
#     Edge 63, Type (0, 0), None
#     Edge 64, Type (0, 0), None
#     Edge 65, Type (0, 0), None
#     Edge 66, Type (0, 0), None
#     Edge 67, Type (0, 0), None
#     Edge 68, Type (0, 0), None
#     Edge 69, Type (0, 0), None
#     Edge 70, Type (0, 0), None
#     Edge 71, Type (0, 0), None
# Relax obj value: 0.284
# Max RMSD: 0.292
# Mean RMSD: 0.274
data_MOF--net-xfh--node1-NUHQUE_clean_sbu_2--edge1-none
_symmetry_space_group_name_H-M    P1
_symmetry_Int_Tables_number       1
_symmetry_cell_setting            triclinic
loop_
_symmetry_equiv_pos_as_xyz
'x, y, z'
_cell_length_a     18.627893
_cell_length_b     17.393474
_cell_length_c     36.866422
_cell_angle_alpha  87.068161
_cell_angle_beta   87.394995
_cell_angle_gamma 92.294899
loop_
_atom_site_label
_atom_site_type_symbol
_atom_site_fract_x
_atom_site_fract_y
_atom_site_fract_z
_atom_type_partial_charge
O0 O 0.20053 0.06924 0.09772 0.0
Tb1 Tb 0.16588 0.0651 0.15514 0.0
Eu2 Eu 0.33192 0.09484 0.20125 0.0
C3 C 0.18144 0.12969 0.07793 0.0
O4 O 0.14598 0.18332 0.09389 0.0
C5 C 0.21434 0.21043 0.19382 0.0
O6 O 0.37159 0.08991 0.25737 0.0
C7 C 0.42584 0.15462 0.15328 0.0
C8 C 0.3248 0.06435 0.28321 0.0
O9 O 0.26084 0.03879 0.27459 0.0
C10 C 0.25465 0.93151 0.19733 0.0
C11 C 0.48445 0.12587 0.12971 0.0
C12 C 0.47316 0.11522 0.09275 0.0
C13 C 0.52843 0.09081 0.06907 0.0
C14 C 0.596 0.0785 0.08391 0.0
C15 C 0.60706 0.08355 0.12139 0.0
C16 C 0.55123 0.1087 0.14389 0.0
O17 O 0.20122 0.18381 0.16218 0.0
O18 O 0.24188 0.16678 0.21865 0.0
O19 O 0.06286 0.04132 0.13123 0.0
O20 O 0.06263 0.08482 0.18404 0.0
C21 C 0.02247 0.0623 0.1583 0.0
O22 O 0.31692 0.96935 0.19613 0.0
O23 O 0.1941 0.96066 0.18656 0.0
O24 O 0.43582 0.15241 0.18844 0.0
O25 O 0.35926 0.13551 0.14539 0.0
H26 H 0.42043 0.12518 0.08316 0.0
H27 H 0.6412 0.06498 0.06646 0.0
H28 H 0.56001 0.115 0.17252 0.0
O29 O 0.71113 0.78741 0.45416 0.0
Tb30 Tb 0.71876 0.66207 0.4667 0.0
Eu31 Eu 0.75025 0.49076 0.41775 0.0
C32 C 0.74293 0.82864 0.42628 0.0
O33 O 0.78347 0.7947 0.40238 0.0
C34 C 0.86454 0.57823 0.46408 0.0
O35 O 0.75193 0.36348 0.40391 0.0
C36 C 0.75753 0.58653 0.36115 0.0
C37 C 0.72315 0.31058 0.42781 0.0
O38 O 0.69505 0.33359 0.45852 0.0
C39 C 0.59765 0.54356 0.4427 0.0
C40 C 0.70854 0.60686 0.33231 0.0
C41 C 0.7257 0.67081 0.30808 0.0
C42 C 0.68331 0.68513 0.27804 0.0
C43 C 0.61799 0.64276 0.27646 0.0
C44 C 0.61252 0.56867 0.29361 0.0
C45 C 0.65199 0.555 0.32469 0.0
O46 O 0.83381 0.64412 0.45647 0.0
O47 O 0.83476 0.51082 0.45747 0.0
O48 O 0.69072 0.70401 0.51998 0.0
O49 O 0.71462 0.58621 0.51666 0.0
C50 C 0.6971 0.63944 0.53856 0.0
O51 O 0.63977 0.48507 0.44333 0.0
O52 O 0.62237 0.61617 0.44121 0.0
O53 O 0.78277 0.51696 0.3609 0.0
O54 O 0.73756 0.60624 0.3938 0.0
H55 H 0.77663 0.70256 0.30981 0.0
H56 H 0.58661 0.65383 0.25277 0.0
H57 H 0.64616 0.49963 0.33967 0.0
O58 O 0.36224 0.96906 0.58871 0.0
Tb59 Tb 0.37867 0.95354 0.64586 0.0
Eu60 Eu 0.16184 0.94687 0.69599 0.0
C61 C 0.34961 0.91183 0.56768 0.0
O62 O 0.35248 0.83991 0.57998 0.0
C63 C 0.28279 0.82793 0.69253 0.0
O64 O 0.10241 1.0202 0.73479 0.0
C65 C 0.09081 0.91103 0.64033 0.0
C66 C 0.0976 1.00366 0.77013 0.0
O67 O 0.10991 0.93305 0.78196 0.0
C68 C 0.29572 0.07582 0.67117 0.0
C69 C 0.03002 0.9403 0.62094 0.0
C70 C 0.03808 0.95372 0.58321 0.0
C71 C 0.98956 0.99831 0.56379 0.0
C72 C 0.92807 1.02296 0.58377 0.0
C73 C 0.9168 1.00357 0.62161 0.0
C74 C 0.96936 0.96431 0.63989 0.0
O75 O 0.29443 0.86348 0.66023 0.0
O76 O 0.2301 0.84998 0.71443 0.0
O77 O 0.48742 0.92456 0.63144 0.0
O78 O 0.45982 0.94921 0.68658 0.0
C79 C 0.51162 0.9332 0.66366 0.0
O80 O 0.26317 1.0076 0.67456 0.0
O81 O 0.35923 0.07315 0.65586 0.0
O82 O 0.07785 0.87645 0.67282 0.0
O83 O 0.14693 0.9594 0.63846 0.0
H84 H 0.08422 0.93016 0.56965 0.0
H85 H 0.8883 0.05615 0.57031 0.0
H86 H 0.96334 0.95297 0.66911 0.0
O87 O 0.78656 0.5624 0.84588 0.0
Tb88 Tb 0.80041 0.59813 0.90035 0.0
Eu89 Eu 0.8186 0.45312 0.95231 0.0
C90 C 0.83866 0.57633 0.82102 0.0
O91 O 0.89912 0.61086 0.82949 0.0
C92 C 0.94155 0.56481 0.93413 0.0
O93 O 0.83357 0.38514 1.00417 0.0
C94 C 0.84035 0.38979 0.89052 0.0
C95 C 0.82892 0.43189 1.03093 0.0
O96 O 0.81142 0.50315 1.02341 0.0
C97 C 0.66657 0.52779 0.95468 0.0
C98 C 0.8205 0.32303 0.8692 0.0
C99 C 0.80193 0.33284 0.83256 0.0
C100 C 0.78989 0.26823 0.8111 0.0
C101 C 0.79908 0.19434 0.82746 0.0
C102 C 0.81339 0.18501 0.86426 0.0
C103 C 0.82364 0.24871 0.88497 0.0
O104 O 0.91283 0.56463 0.90248 0.0
O105 O 0.89902 0.54691 0.96229 0.0
O106 O 0.78863 0.71259 0.87549 0.0
O107 O 0.8376 0.70087 0.92661 0.0
C108 C 0.81914 0.74908 0.90098 0.0
O109 O 0.70464 0.47266 0.96836 0.0
O110 O 0.69275 0.57727 0.92838 0.0
O111 O 0.87813 0.3758 0.91932 0.0
O112 O 0.79208 0.44175 0.89559 0.0
H113 H 0.79619 0.39086 0.82139 0.0
H114 H 0.79317 0.14309 0.81226 0.0
H115 H 0.83441 0.23994 0.91351 0.0
O116 O 0.82403 0.99804 0.97817 0.0
Tb117 Tb 0.88442 0.99021 0.92706 0.0
Eu118 Eu 0.70433 0.97302 0.90614 0.0
C119 C 0.83284 0.94691 1.00502 0.0
O120 O 0.87225 0.88738 0.99937 0.0
C121 C 0.81545 0.83121 0.90481 0.0
O122 O 0.67005 0.98362 0.84823 0.0
C123 C 0.59858 0.95937 0.95419 0.0
C124 C 0.71957 0.98121 0.8217 0.0
O125 O 0.78701 0.97412 0.82964 0.0
C126 C 0.80774 0.10912 0.88279 0.0
C127 C 0.55 1.00996 0.97401 0.0
C128 C 0.56248 0.02853 1.00988 0.0
C129 C 0.5153 0.07493 1.02968 0.0
C130 C 0.45322 0.10002 1.01218 0.0
C131 C 0.43789 0.0765 0.97731 0.0
C132 C 0.48726 0.03361 0.95827 0.0
O133 O 0.86972 0.86853 0.91856 0.0
O134 O 0.75433 0.86091 0.8966 0.0
O135 O 0.96952 0.07222 0.94183 0.0
O136 O 0.99639 0.95906 0.92865 0.0
C137 C 0.02152 1.02538 0.93819 0.0
O138 O 0.75257 0.0922 0.90515 0.0
O139 O 0.8594 0.0609 0.87952 0.0
O140 O 0.59033 0.956 0.919 0.0
O141 O 0.66645 0.9599 0.96296 0.0
H142 H 0.60778 1.00325 1.0223 0.0
H143 H 0.41398 0.13389 1.02582 0.0
H144 H 0.47416 1.01481 0.93162 0.0
O145 O 0.27619 0.54909 0.75117 0.0
Tb146 Tb 0.29288 0.59302 0.69516 0.0
Eu147 Eu 0.31904 0.46688 0.62596 0.0
C148 C 0.32171 0.57094 0.7753 0.0
O149 O 0.37902 0.614 0.76457 0.0
C150 C 0.44357 0.55931 0.65883 0.0
O151 O 0.32603 0.41915 0.57023 0.0
C152 C 0.30628 0.3635 0.67986 0.0
C153 C 0.31208 0.46552 0.54223 0.0
O154 O 0.29106 0.53516 0.54791 0.0
C155 C 0.17743 0.56231 0.63604 0.0
C156 C 0.27679 0.28587 0.69293 0.0
C157 C 0.2407 0.2762 0.72754 0.0
C158 C 0.22123 0.20181 0.74226 0.0
C159 C 0.23811 0.13759 0.72255 0.0
C160 C 0.27155 0.14567 0.68819 0.0
C161 C 0.29172 0.22 0.67336 0.0
O162 O 0.40475 0.5574 0.68965 0.0
O163 O 0.41371 0.54819 0.6281 0.0
O164 O 0.27365 0.69944 0.72228 0.0
O165 O 0.31787 0.70622 0.66794 0.0
C166 C 0.29663 0.74584 0.6952 0.0
O167 O 0.22503 0.53658 0.61311 0.0
O168 O 0.18933 0.56463 0.67108 0.0
O169 O 0.35886 0.36677 0.65471 0.0
O170 O 0.26192 0.42009 0.67622 0.0
H171 H 0.2295 0.32579 0.7432 0.0
H172 H 0.22801 0.08012 0.73496 0.0
H173 H 0.32102 0.22616 0.64725 0.0
O174 O 0.6753 0.05012 0.50784 0.0
Tb175 Tb 0.65881 0.06375 0.4508 0.0
Eu176 Eu 0.80696 0.08331 0.3972 0.0
C177 C 0.66345 0.10418 0.53059 0.0
O178 O 0.63602 0.16944 0.51993 0.0
C179 C 0.72494 0.22602 0.42306 0.0
O180 O 0.844 0.08911 0.33818 0.0
C181 C 0.91028 0.1019 0.44143 0.0
C182 C 0.80346 0.05748 0.31422 0.0
O183 O 0.74244 1.02134 0.32512 0.0
C184 C 0.73651 0.91418 0.42347 0.0
C185 C 0.96602 0.06563 0.46351 0.0
C186 C 0.95067 0.04349 0.50058 0.0
C187 C 1.00514 1.01915 0.52348 0.0
C188 C 0.07582 1.01608 0.50751 0.0
C189 C 0.09178 0.03494 0.4703 0.0
C190 C 0.03679 0.0612 0.44875 0.0
O191 O 0.70585 0.1804 0.45151 0.0
O192 O 0.74937 0.19635 0.39308 0.0
O193 O 0.54709 0.0624 0.47051 0.0
O194 O 0.57043 0.07095 0.41318 0.0
C195 C 0.51941 0.0681 0.4388 0.0
O196 O 0.77411 0.95573 0.39779 0.0
O197 O 0.69533 0.9459 0.44798 0.0
O198 O 0.92038 0.10635 0.40579 0.0
O199 O 0.84219 0.09057 0.45247 0.0
H200 H 0.89605 0.04641 0.51141 0.0
H201 H 0.12041 1.00177 0.52392 0.0
H202 H 0.04934 0.07852 0.42042 0.0
O203 O 0.25104 0.47495 0.25795 0.0
Tb204 Tb 0.22738 0.44321 0.20334 0.0
Eu205 Eu 0.19362 0.5799 0.14679 0.0
C206 C 0.19996 0.47709 0.28374 0.0
O207 O 0.13234 0.46612 0.27606 0.0
C208 C 0.08724 0.45038 0.16873 0.0
O209 O 0.16786 0.63556 0.09372 0.0
C210 C 0.17042 0.6564 0.20431 0.0
C211 C 0.1813 0.58839 0.06795 0.0
O212 O 0.2094 0.52225 0.07662 0.0
C213 C 0.34822 0.51732 0.1418 0.0
C214 C 0.2038 0.72335 0.22114 0.0
C215 C 0.22707 0.71568 0.25686 0.0
C216 C 0.26538 0.77665 0.27261 0.0
C217 C 0.27822 0.84595 0.25131 0.0
C218 C 0.2502 0.85557 0.21663 0.0
C219 C 0.2137 0.79435 0.20162 0.0
O220 O 0.11303 0.46369 0.20023 0.0
O221 O 0.12667 0.47333 0.14018 0.0
O222 O 0.23394 0.32654 0.22719 0.0
O223 O 0.20773 0.34327 0.1716 0.0
C224 C 0.21702 0.29284 0.19785 0.0
O225 O 0.30771 0.57107 0.12918 0.0
O226 O 0.32805 0.47002 0.1702 0.0
O227 O 0.13813 0.67004 0.17367 0.0
O228 O 0.20851 0.59425 0.20427 0.0
H229 H 0.21407 0.66176 0.27211 0.0
H230 H 0.30848 0.89366 0.26176 0.0
H231 H 0.19392 0.80216 0.17456 0.0
O232 O 0.70053 0.56926 0.59773 0.0
Tb233 Tb 0.66587 0.56512 0.65514 0.0
Eu234 Eu 0.83192 0.59485 0.70125 0.0
C235 C 0.68144 0.62971 0.57793 0.0
O236 O 0.64597 0.68333 0.59389 0.0
C237 C 0.71434 0.71045 0.69382 0.0
O238 O 0.87159 0.58992 0.75736 0.0
C239 C 0.92583 0.65462 0.65327 0.0
C240 C 0.82481 0.56435 0.7832 0.0
O241 O 0.76085 0.53879 0.77458 0.0
C242 C 0.75465 0.43153 0.69733 0.0
C243 C 0.98444 0.62585 0.6297 0.0
C244 C 0.97315 0.6152 0.59274 0.0
C245 C 0.0284 0.59077 0.56906 0.0
C246 C 0.09596 0.57842 0.58391 0.0
C247 C 0.10703 0.58347 0.62139 0.0
C248 C 0.0512 0.60864 0.64389 0.0
O249 O 0.7012 0.68384 0.66218 0.0
O250 O 0.74188 0.6668 0.71865 0.0
O251 O 0.56285 0.54133 0.63123 0.0
O252 O 0.56262 0.58484 0.68404 0.0
C253 C 0.52245 0.56231 0.6583 0.0
O254 O 0.81691 0.46937 0.69613 0.0
O255 O 0.69409 0.46068 0.68657 0.0
O256 O 0.93582 0.65243 0.68843 0.0
O257 O 0.85925 0.63552 0.64539 0.0
H258 H 0.92042 0.6252 0.58315 0.0
H259 H 0.14116 0.56487 0.56647 0.0
H260 H 0.05998 0.61494 0.67251 0.0
O261 O 0.21116 0.2874 0.95416 0.0
Tb262 Tb 0.21877 0.16206 0.9667 0.0
Eu263 Eu 0.25028 0.99074 0.91774 0.0
C264 C 0.24295 0.32862 0.92628 0.0
O265 O 0.28348 0.29467 0.90237 0.0
C266 C 0.36455 0.07821 0.96409 0.0
O267 O 0.25197 0.86346 0.90391 0.0
C268 C 0.25756 0.08652 0.86113 0.0
C269 C 0.22317 0.81057 0.9278 0.0
O270 O 0.19506 0.83358 0.9585 0.0
C271 C 0.09769 0.04354 0.94272 0.0
C272 C 0.20856 0.10688 0.8323 0.0
C273 C 0.22573 0.17084 0.80808 0.0
C274 C 0.18328 0.18519 0.77807 0.0
C275 C 0.11796 0.14284 0.77645 0.0
C276 C 0.11247 0.06879 0.79363 0.0
C277 C 0.15196 0.05507 0.8247 0.0
O278 O 0.33382 0.1441 0.95647 0.0
O279 O 0.33479 1.0108 0.95745 0.0
O280 O 0.19069 0.20399 1.01998 0.0
O281 O 0.21463 0.08619 1.01666 0.0
C282 C 0.19706 0.13942 1.03856 0.0
O283 O 0.1398 0.98504 0.94332 0.0
O284 O 0.12241 0.11615 0.94119 0.0
O285 O 0.28276 1.01693 0.86088 0.0
O286 O 0.23762 0.10623 0.89379 0.0
H287 H 0.27667 0.20257 0.8098 0.0
H288 H 0.08661 0.1539 0.75274 0.0
H289 H 0.14611 0.99969 0.83968 0.0
O290 O 0.86218 0.46913 0.08868 0.0
Tb291 Tb 0.87872 0.45367 0.14582 0.0
Eu292 Eu 0.66192 0.44688 0.19595 0.0
C293 C 0.8496 0.41187 0.06766 0.0
O294 O 0.85258 0.33996 0.07996 0.0
C295 C 0.78293 0.32798 0.1925 0.0
O296 O 0.60247 0.52015 0.23477 0.0
C297 C 0.59088 0.41096 0.1403 0.0
C298 C 0.59762 0.50355 0.2701 0.0
O299 O 0.60996 0.43296 0.28195 0.0
C300 C 0.79572 0.57591 0.17112 0.0
C301 C 0.53008 0.44022 0.12092 0.0
C302 C 0.53813 0.45363 0.08319 0.0
C303 C 0.48962 0.49824 0.06378 0.0
C304 C 0.42813 0.5229 0.08376 0.0
C305 C 0.41688 0.5035 0.1216 0.0
C306 C 0.46942 0.46423 0.13988 0.0
O307 O 0.79458 0.3635 0.16019 0.0
O308 O 0.73025 0.35005 0.2144 0.0
O309 O 0.9875 0.42491 0.13133 0.0
O310 O 0.9599 0.4493 0.18653 0.0
C311 C 0.01169 0.43353 0.16356 0.0
O312 O 0.7632 0.50768 0.1745 0.0
O313 O 0.85923 0.57327 0.15581 0.0
O314 O 0.57794 0.3764 0.1728 0.0
O315 O 0.64699 0.45934 0.13843 0.0
H316 H 0.58427 0.43008 0.06963 0.0
H317 H 0.38837 0.5561 0.07031 0.0
H318 H 0.46341 0.45289 0.16909 0.0
O319 O 0.28654 0.0624 0.34589 0.0
Tb320 Tb 0.30038 0.09813 0.40035 0.0
Eu321 Eu 0.31856 0.95314 0.45233 0.0
C322 C 0.33865 0.07633 0.32103 0.0
O323 O 0.3991 0.11087 0.32949 0.0
C324 C 0.44153 0.06479 0.43413 0.0
O325 O 0.33354 0.88515 0.50419 0.0
C326 C 0.34026 0.88982 0.39054 0.0
C327 C 0.32899 0.93191 0.53095 0.0
O328 O 0.31155 1.0032 0.52344 0.0
C329 C 0.16654 0.02783 0.4547 0.0
C330 C 0.32042 0.82305 0.36922 0.0
C331 C 0.30186 0.83285 0.33258 0.0
C332 C 0.28985 0.76824 0.31111 0.0
C333 C 0.29905 0.69435 0.32748 0.0
C334 C 0.31335 0.68503 0.36428 0.0
C335 C 0.32357 0.74873 0.38499 0.0
O336 O 0.4128 0.06465 0.40247 0.0
O337 O 0.39901 0.04691 0.4623 0.0
O338 O 0.2886 0.2126 0.37549 0.0
O339 O 0.33756 0.20087 0.42662 0.0
C340 C 0.31911 0.24908 0.40099 0.0
O341 O 0.20462 0.97274 0.4684 0.0
O342 O 0.19271 0.07726 0.42838 0.0
O343 O 0.37807 0.87584 0.41933 0.0
O344 O 0.29197 0.94175 0.39562 0.0
H345 H 0.29612 0.89087 0.3214 0.0
H346 H 0.29316 0.6431 0.31227 0.0
H347 H 0.33432 0.73997 0.41353 0.0
O348 O 0.32402 0.49805 0.47819 0.0
Tb349 Tb 0.38438 0.49022 0.42706 0.0
Eu350 Eu 0.2043 0.47302 0.40613 0.0
C351 C 0.33283 0.44692 0.50503 0.0
O352 O 0.37222 0.38737 0.49938 0.0
C353 C 0.31541 0.33121 0.40482 0.0
O354 O 0.17004 0.48362 0.34821 0.0
C355 C 0.09853 0.45935 0.45417 0.0
C356 C 0.21958 0.48121 0.32168 0.0
O357 O 0.28701 0.47415 0.32963 0.0
C358 C 0.30771 0.60913 0.38281 0.0
C359 C 0.04997 0.50994 0.474 0.0
C360 C 0.06245 0.5285 0.50987 0.0
C361 C 0.01528 0.5749 0.52967 0.0
C362 C 0.9532 0.60002 0.51218 0.0
C363 C 0.93788 0.57652 0.4773 0.0
C364 C 0.98723 0.53362 0.45825 0.0
O365 O 0.36966 0.36853 0.41859 0.0
O366 O 0.25432 0.36092 0.39658 0.0
O367 O 0.46948 0.57222 0.44185 0.0
O368 O 0.49636 0.45909 0.42863 0.0
C369 C 0.52149 0.5254 0.43818 0.0
O370 O 0.25252 0.59221 0.40516 0.0
O371 O 0.35936 0.56091 0.37954 0.0
O372 O 0.09029 0.45601 0.41898 0.0
O373 O 0.16641 0.45986 0.46295 0.0
H374 H 0.10774 0.50321 0.52228 0.0
H375 H 0.91396 0.63388 0.52581 0.0
H376 H 0.97413 0.51484 0.4316 0.0
O377 O 0.7762 0.04914 0.25117 0.0
Tb378 Tb 0.79291 0.09306 0.19516 0.0
Eu379 Eu 0.81903 0.96692 0.12595 0.0
C380 C 0.82171 0.07098 0.2753 0.0
O381 O 0.87905 0.11403 0.26458 0.0
C382 C 0.94359 0.05932 0.15882 0.0
O383 O 0.82602 0.91916 0.07022 0.0
C384 C 0.80622 0.86358 0.17986 0.0
C385 C 0.81206 0.96552 1.04222 0.0
O386 O 0.791 0.03515 0.04788 0.0
C387 C 0.67748 0.06242 0.13603 0.0
C388 C 0.77676 0.78593 0.19292 0.0
C389 C 0.74068 0.77622 0.22753 0.0
C390 C 0.72123 0.70182 0.24223 0.0
C391 C 0.7381 0.63762 0.2225 0.0
C392 C 0.77153 0.64574 0.18814 0.0
C393 C 0.79169 0.72009 0.17333 0.0
O394 O 0.90477 0.05739 0.18965 0.0
O395 O 0.91373 0.0482 0.1281 0.0
O396 O 0.77374 0.1995 0.22226 0.0
O397 O 0.81794 0.20623 0.16792 0.0
C398 C 0.79672 0.24588 0.19518 0.0
O399 O 0.7251 0.03674 0.1131 0.0
O400 O 0.68936 0.06467 0.17108 0.0
O401 O 0.85887 0.86689 0.15475 0.0
O402 O 0.76181 0.92011 0.17617 0.0
H403 H 0.72948 0.82579 0.2432 0.0
H404 H 0.72801 0.58014 0.2349 0.0
H405 H 0.82098 0.72628 0.14721 0.0
O406 O 0.17538 0.55012 1.00783 0.0
Tb407 Tb 0.15883 0.56373 0.95079 0.0
Eu408 Eu 0.30699 0.58328 0.89719 0.0
C409 C 0.16355 0.60419 1.03059 0.0
O410 O 0.13608 0.66943 1.01993 0.0
C411 C 0.22496 0.726 0.92306 0.0
O412 O 0.34401 0.58908 0.83817 0.0
C413 C 0.41031 0.60186 0.94143 0.0
C414 C 0.30347 0.55744 0.81422 0.0
O415 O 0.24246 0.52129 0.82512 0.0
C416 C 0.23653 0.41415 0.92347 0.0
C417 C 0.46605 0.56558 0.9635 0.0
C418 C 0.4507 0.54344 1.00057 0.0
C419 C 0.50518 0.51909 1.02346 0.0
C420 C 0.57586 0.51601 1.00749 0.0
C421 C 0.59181 0.53489 0.97029 0.0
C422 C 0.53682 0.56116 0.94874 0.0
O423 O 0.20586 0.68039 0.9515 0.0
O424 O 0.24941 0.69633 0.89307 0.0
O425 O 0.04712 0.56234 0.97052 0.0
O426 O 0.07046 0.57094 0.91319 0.0
C427 C 0.01944 0.56803 0.93881 0.0
O428 O 0.27413 0.45571 0.89778 0.0
O429 O 0.19536 0.44588 0.94797 0.0
O430 O 0.42041 0.60632 0.90578 0.0
O431 O 0.34222 0.59054 0.95246 0.0
H432 H 0.39609 0.54636 1.0114 0.0
H433 H 0.62045 0.5017 1.0239 0.0
H434 H 0.54937 0.57849 0.92041 0.0
O435 O 0.75102 0.97495 0.75797 0.0
Tb436 Tb 0.72734 0.94323 0.70336 0.0
Eu437 Eu 0.6935 0.0799 0.6468 0.0
C438 C 0.69994 0.9771 0.78376 0.0
O439 O 0.63231 0.96615 0.77608 0.0
C440 C 0.58714 0.95036 0.66878 0.0
O441 O 0.66775 0.13555 0.59372 0.0
C442 C 0.67037 0.15644 0.70431 0.0
C443 C 0.68115 0.08836 0.56797 0.0
O444 O 0.70921 1.0222 0.57664 0.0
C445 C 0.84814 1.01737 0.64181 0.0
C446 C 0.70378 0.22338 0.72114 0.0
C447 C 0.72707 0.21569 0.75685 0.0
C448 C 0.76539 0.27665 0.7726 0.0
C449 C 0.77823 0.34595 0.7513 0.0
C450 C 0.75019 0.35559 0.71662 0.0
C451 C 0.71367 0.29437 0.70162 0.0
O452 O 0.61297 0.96362 0.70029 0.0
O453 O 0.62647 0.97338 0.64021 0.0
O454 O 0.73395 0.82655 0.72719 0.0
O455 O 0.7077 0.8433 0.67161 0.0
C456 C 0.71703 0.79286 0.69785 0.0
O457 O 0.80758 0.07105 0.62916 0.0
O458 O 0.82801 0.9701 0.67023 0.0
O459 O 0.63807 0.17008 0.67368 0.0
O460 O 0.70842 0.09426 0.70427 0.0
H461 H 0.71407 0.16177 0.7721 0.0
H462 H 0.80851 0.39365 0.76175 0.0
H463 H 0.69388 0.30219 0.67456 0.0
loop_
_geom_bond_atom_site_label_1
_geom_bond_atom_site_label_2
_geom_bond_distance
_geom_bond_site_symmetry_2
_ccdc_geom_bond_type
O0 Tb1 2.292 . S
O0 C3 1.255 . S
Tb1 O0 2.292 . S
Tb1 O17 2.326 . S
Tb1 O19 2.500 . S
Tb1 O20 2.473 . S
Tb1 O23 2.324 1_545 S
Eu2 O6 2.292 . S
Eu2 C7 2.852 . S
Eu2 O18 2.324 . S
Eu2 O22 2.326 . S
Eu2 O24 2.500 . S
Eu2 O25 2.473 . S
C3 O0 1.255 . S
C3 O4 1.247 . S
O4 C3 1.247 . S
C5 O17 1.242 . S
C5 O18 1.258 . S
O6 Eu2 2.292 . S
O6 C8 1.255 . S
C7 Eu2 2.852 . S
C7 C11 1.503 . S
C7 O24 1.273 . S
C7 O25 1.257 . S
C8 O6 1.255 . S
C8 O9 1.246 1_545 S
O9 C8 1.246 1_565 S
C10 O22 1.242 1_565 S
C10 O23 1.258 . S
C11 C7 1.503 . S
C11 C12 1.379 . S
C11 C16 1.392 . S
C12 C11 1.379 . S
C12 C13 1.404 . S
C12 H26 0.929 . S
C13 C12 1.404 . S
C13 C14 1.389 . S
C14 C13 1.389 . S
C14 C15 1.399 1_545 S
C14 H27 0.931 1_545 S
C15 C14 1.399 1_565 S
C15 C16 1.390 1_565 S
C16 C11 1.392 . S
C16 C15 1.390 1_545 S
C16 H28 0.929 . S
O17 Tb1 2.326 . S
O17 C5 1.242 . S
O18 Eu2 2.324 . S
O18 C5 1.258 . S
O19 Tb1 2.500 . S
O19 C21 1.273 . S
O20 Tb1 2.473 . S
O20 C21 1.257 . S
C21 O19 1.273 . S
C21 O20 1.257 . S
O22 Eu2 2.326 . S
O22 C10 1.242 1_545 S
O23 Tb1 2.324 1_565 S
O23 C10 1.258 . S
O24 Eu2 2.500 . S
O24 C7 1.273 . S
O25 Eu2 2.473 . S
O25 C7 1.257 . S
H26 C12 0.929 . S
H27 C14 0.931 1_565 S
H28 C16 0.929 . S
O29 Tb30 2.292 . S
O29 C32 1.255 . S
Tb30 O29 2.292 . S
Tb30 O46 2.326 . S
Tb30 O48 2.500 . S
Tb30 O49 2.473 . S
Tb30 O52 2.324 . S
Eu31 O35 2.292 . S
Eu31 C36 2.852 . S
Eu31 O47 2.324 . S
Eu31 O51 2.326 . S
Eu31 O53 2.500 . S
Eu31 O54 2.473 . S
C32 O29 1.255 . S
C32 O33 1.247 . S
O33 C32 1.247 . S
C34 O46 1.242 . S
C34 O47 1.258 . S
O35 Eu31 2.292 . S
O35 C37 1.255 . S
C36 Eu31 2.852 . S
C36 C40 1.503 . S
C36 O53 1.273 . S
C36 O54 1.257 . S
C37 O35 1.255 . S
C37 O38 1.247 . S
O38 C37 1.247 . S
C39 O51 1.242 . S
C39 O52 1.258 . S
C40 C36 1.503 . S
C40 C41 1.379 . S
C40 C45 1.392 . S
C41 C40 1.379 . S
C41 C42 1.404 . S
C41 H55 0.929 . S
C42 C41 1.404 . S
C42 C43 1.389 . S
C43 C42 1.389 . S
C43 C44 1.399 . S
C43 H56 0.931 . S
C44 C43 1.399 . S
C44 C45 1.390 . S
C45 C40 1.392 . S
C45 C44 1.390 . S
C45 H57 0.929 . S
O46 Tb30 2.326 . S
O46 C34 1.242 . S
O47 Eu31 2.324 . S
O47 C34 1.258 . S
O48 Tb30 2.500 . S
O48 C50 1.273 . S
O49 Tb30 2.473 . S
O49 C50 1.257 . S
C50 O48 1.273 . S
C50 O49 1.257 . S
O51 Eu31 2.326 . S
O51 C39 1.242 . S
O52 Tb30 2.324 . S
O52 C39 1.258 . S
O53 Eu31 2.500 . S
O53 C36 1.273 . S
O54 Eu31 2.473 . S
O54 C36 1.257 . S
H55 C41 0.929 . S
H56 C43 0.931 . S
H57 C45 0.929 . S
O58 Tb59 2.292 . S
O58 C61 1.255 . S
Tb59 O58 2.292 . S
Tb59 O75 2.326 . S
Tb59 O77 2.500 . S
Tb59 O78 2.473 . S
Tb59 O81 2.324 1_565 S
Eu60 O64 2.292 . S
Eu60 C65 2.852 . S
Eu60 O76 2.324 . S
Eu60 O80 2.326 . S
Eu60 O82 2.500 . S
Eu60 O83 2.473 . S
C61 O58 1.255 . S
C61 O62 1.247 . S
O62 C61 1.247 . S
C63 O75 1.242 . S
C63 O76 1.258 . S
O64 Eu60 2.292 . S
O64 C66 1.255 . S
C65 Eu60 2.852 . S
C65 C69 1.503 1_455 S
C65 O82 1.273 . S
C65 O83 1.257 . S
C66 O64 1.255 . S
C66 O67 1.247 1_565 S
O67 C66 1.247 1_545 S
C68 O80 1.242 1_545 S
C68 O81 1.258 . S
C69 C65 1.503 1_655 S
C69 C70 1.379 . S
C69 C74 1.392 . S
C70 C69 1.379 . S
C70 C71 1.404 . S
C70 H84 0.929 1_655 S
C71 C70 1.404 . S
C71 C72 1.386 1_565 S
C72 C71 1.386 1_545 S
C72 C73 1.400 . S
C72 H85 0.933 . S
C73 C72 1.400 . S
C73 C74 1.390 1_545 S
C74 C69 1.392 . S
C74 C73 1.390 1_565 S
C74 H86 0.929 . S
O75 Tb59 2.326 . S
O75 C63 1.242 . S
O76 Eu60 2.324 . S
O76 C63 1.258 . S
O77 Tb59 2.500 . S
O77 C79 1.273 . S
O78 Tb59 2.473 . S
O78 C79 1.257 . S
C79 O77 1.273 . S
C79 O78 1.257 . S
O80 Eu60 2.326 . S
O80 C68 1.242 1_565 S
O81 Tb59 2.324 1_545 S
O81 C68 1.258 . S
O82 Eu60 2.500 . S
O82 C65 1.273 . S
O83 Eu60 2.473 . S
O83 C65 1.257 . S
H84 C70 0.929 1_455 S
H85 C72 0.933 . S
H86 C74 0.929 . S
O87 Tb88 2.292 . S
O87 C90 1.255 . S
Tb88 O87 2.292 . S
Tb88 O104 2.326 . S
Tb88 O106 2.500 . S
Tb88 O107 2.473 . S
Tb88 O110 2.324 . S
Eu89 O93 2.292 . S
Eu89 C94 2.852 . S
Eu89 O105 2.324 . S
Eu89 O109 2.326 . S
Eu89 O111 2.500 . S
Eu89 O112 2.473 . S
C90 O87 1.255 . S
C90 O91 1.247 . S
O91 C90 1.247 . S
C92 O104 1.242 . S
C92 O105 1.258 . S
O93 Eu89 2.292 . S
O93 C95 1.255 . S
C94 Eu89 2.852 . S
C94 C98 1.503 . S
C94 O111 1.273 . S
C94 O112 1.257 . S
C95 O93 1.255 . S
C95 O96 1.247 . S
O96 C95 1.247 . S
C97 O109 1.242 . S
C97 O110 1.258 . S
C98 C94 1.503 . S
C98 C99 1.379 . S
C98 C103 1.392 . S
C99 C98 1.379 . S
C99 C100 1.404 . S
C99 H113 0.929 . S
C100 C99 1.404 . S
C100 C101 1.389 . S
C101 C100 1.389 . S
C101 C102 1.399 . S
C101 H114 0.931 . S
C102 C101 1.399 . S
C102 C103 1.390 . S
C103 C98 1.392 . S
C103 C102 1.390 . S
C103 H115 0.929 . S
O104 Tb88 2.326 . S
O104 C92 1.242 . S
O105 Eu89 2.324 . S
O105 C92 1.258 . S
O106 Tb88 2.500 . S
O106 C108 1.273 . S
O107 Tb88 2.473 . S
O107 C108 1.257 . S
C108 O106 1.273 . S
C108 O107 1.257 . S
O109 Eu89 2.326 . S
O109 C97 1.242 . S
O110 Tb88 2.324 . S
O110 C97 1.258 . S
O111 Eu89 2.500 . S
O111 C94 1.273 . S
O112 Eu89 2.473 . S
O112 C94 1.257 . S
H113 C99 0.929 . S
H114 C101 0.931 . S
H115 C103 0.929 . S
O116 Tb117 2.292 . S
O116 C119 1.255 1_556 S
Tb117 O116 2.292 . S
Tb117 O133 2.326 . S
Tb117 O135 2.500 . S
Tb117 O136 2.473 . S
Tb117 O139 2.324 1_565 S
Eu118 O122 2.292 . S
Eu118 C123 2.852 . S
Eu118 O134 2.324 . S
Eu118 O138 2.326 1_565 S
Eu118 O140 2.500 . S
Eu118 O141 2.473 . S
C119 O116 1.255 1_554 S
C119 O120 1.247 1_554 S
O120 C119 1.247 1_556 S
C121 O133 1.242 . S
C121 O134 1.258 . S
O122 Eu118 2.292 . S
O122 C124 1.255 1_565 S
C123 Eu118 2.852 . S
C123 C127 1.503 . S
C123 O140 1.273 . S
C123 O141 1.257 . S
C124 O122 1.255 1_545 S
C124 O125 1.247 . S
O125 C124 1.247 . S
C126 O138 1.242 . S
C126 O139 1.258 . S
C127 C123 1.503 . S
C127 C128 1.379 . S
C127 C132 1.388 1_565 S
C128 C127 1.379 . S
C128 C129 1.404 . S
C128 H142 0.929 . S
C129 C128 1.404 . S
C129 C130 1.389 1_565 S
C130 C129 1.389 1_545 S
C130 C131 1.399 . S
C130 H143 0.931 . S
C131 C130 1.399 . S
C131 C132 1.393 . S
C132 C127 1.388 1_545 S
C132 C131 1.393 . S
C132 H144 0.930 . S
O133 Tb117 2.326 . S
O133 C121 1.242 . S
O134 Eu118 2.324 . S
O134 C121 1.258 . S
O135 Tb117 2.500 . S
O135 C137 1.273 . S
O136 Tb117 2.473 . S
O136 C137 1.257 . S
C137 O135 1.273 . S
C137 O136 1.257 . S
O138 Eu118 2.326 1_545 S
O138 C126 1.242 . S
O139 Tb117 2.324 1_545 S
O139 C126 1.258 . S
O140 Eu118 2.500 . S
O140 C123 1.273 . S
O141 Eu118 2.473 . S
O141 C123 1.257 . S
H142 C128 0.929 . S
H143 C130 0.931 . S
H144 C132 0.930 . S
O145 Tb146 2.292 . S
O145 C148 1.255 . S
Tb146 O145 2.292 . S
Tb146 O162 2.326 . S
Tb146 O164 2.500 . S
Tb146 O165 2.473 . S
Tb146 O168 2.324 . S
Eu147 O151 2.292 . S
Eu147 C152 2.852 . S
Eu147 O163 2.324 . S
Eu147 O167 2.326 . S
Eu147 O169 2.500 . S
Eu147 O170 2.473 . S
C148 O145 1.255 . S
C148 O149 1.247 . S
O149 C148 1.247 . S
C150 O162 1.242 . S
C150 O163 1.258 . S
O151 Eu147 2.292 . S
O151 C153 1.255 . S
C152 Eu147 2.852 . S
C152 C156 1.503 . S
C152 O169 1.273 . S
C152 O170 1.257 . S
C153 O151 1.255 . S
C153 O154 1.247 . S
O154 C153 1.247 . S
C155 O167 1.242 . S
C155 O168 1.258 . S
C156 C152 1.503 . S
C156 C157 1.379 . S
C156 C161 1.392 . S
C157 C156 1.379 . S
C157 C158 1.404 . S
C157 H171 0.929 . S
C158 C157 1.404 . S
C158 C159 1.389 . S
C159 C158 1.389 . S
C159 C160 1.399 . S
C159 H172 0.931 . S
C160 C159 1.399 . S
C160 C161 1.390 . S
C161 C156 1.392 . S
C161 C160 1.390 . S
C161 H173 0.929 . S
O162 Tb146 2.326 . S
O162 C150 1.242 . S
O163 Eu147 2.324 . S
O163 C150 1.258 . S
O164 Tb146 2.500 . S
O164 C166 1.273 . S
O165 Tb146 2.473 . S
O165 C166 1.257 . S
C166 O164 1.273 . S
C166 O165 1.257 . S
O167 Eu147 2.326 . S
O167 C155 1.242 . S
O168 Tb146 2.324 . S
O168 C155 1.258 . S
O169 Eu147 2.500 . S
O169 C152 1.273 . S
O170 Eu147 2.473 . S
O170 C152 1.257 . S
H171 C157 0.929 . S
H172 C159 0.931 . S
H173 C161 0.929 . S
O174 Tb175 2.292 . S
O174 C177 1.255 . S
Tb175 O174 2.292 . S
Tb175 O191 2.326 . S
Tb175 O193 2.500 . S
Tb175 O194 2.473 . S
Tb175 O197 2.324 1_545 S
Eu176 O180 2.292 . S
Eu176 C181 2.852 . S
Eu176 O192 2.324 . S
Eu176 O196 2.326 . S
Eu176 O198 2.500 . S
Eu176 O199 2.473 . S
C177 O174 1.255 . S
C177 O178 1.247 . S
O178 C177 1.247 . S
C179 O191 1.242 . S
C179 O192 1.258 . S
O180 Eu176 2.292 . S
O180 C182 1.247 1_545 S
C181 Eu176 2.852 . S
C181 C185 1.503 1_655 S
C181 O198 1.273 . S
C181 O199 1.257 . S
C182 O180 1.247 1_565 S
C182 O183 1.250 . S
O183 C182 1.250 . S
C184 O196 1.242 1_565 S
C184 O197 1.258 . S
C185 C181 1.503 1_455 S
C185 C186 1.379 . S
C185 C190 1.392 . S
C186 C185 1.379 . S
C186 C187 1.404 . S
C186 H200 0.929 1_455 S
C187 C186 1.404 . S
C187 C188 1.389 1_545 S
C188 C187 1.389 1_565 S
C188 C189 1.399 . S
C188 H201 0.931 . S
C189 C188 1.399 . S
C189 C190 1.390 1_565 S
C190 C185 1.392 . S
C190 C189 1.390 1_545 S
C190 H202 0.929 1_545 S
O191 Tb175 2.326 . S
O191 C179 1.242 . S
O192 Eu176 2.324 . S
O192 C179 1.258 . S
O193 Tb175 2.500 . S
O193 C195 1.273 . S
O194 Tb175 2.473 . S
O194 C195 1.257 . S
C195 O193 1.273 . S
C195 O194 1.257 . S
O196 Eu176 2.326 . S
O196 C184 1.242 1_545 S
O197 Tb175 2.324 1_565 S
O197 C184 1.258 . S
O198 Eu176 2.500 . S
O198 C181 1.273 . S
O199 Eu176 2.473 . S
O199 C181 1.257 . S
H200 C186 0.929 1_655 S
H201 C188 0.931 . S
H202 C190 0.929 1_565 S
O203 Tb204 2.292 . S
O203 C206 1.255 . S
Tb204 O203 2.292 . S
Tb204 O220 2.326 . S
Tb204 O222 2.500 . S
Tb204 O223 2.473 . S
Tb204 O226 2.324 . S
Eu205 O209 2.292 . S
Eu205 C210 2.852 . S
Eu205 O221 2.324 . S
Eu205 O225 2.326 . S
Eu205 O227 2.500 . S
Eu205 O228 2.473 . S
C206 O203 1.255 . S
C206 O207 1.247 . S
O207 C206 1.247 . S
C208 O220 1.242 . S
C208 O221 1.258 . S
O209 Eu205 2.292 . S
O209 C211 1.255 . S
C210 Eu205 2.852 . S
C210 C214 1.503 . S
C210 O227 1.273 . S
C210 O228 1.257 . S
C211 O209 1.255 . S
C211 O212 1.247 . S
O212 C211 1.247 . S
C213 O225 1.242 . S
C213 O226 1.258 . S
C214 C210 1.503 . S
C214 C215 1.379 . S
C214 C219 1.392 . S
C215 C214 1.379 . S
C215 C216 1.404 . S
C215 H229 0.929 . S
C216 C215 1.404 . S
C216 C217 1.389 . S
C217 C216 1.389 . S
C217 C218 1.399 . S
C217 H230 0.931 . S
C218 C217 1.399 . S
C218 C219 1.390 . S
C219 C214 1.392 . S
C219 C218 1.390 . S
C219 H231 0.929 . S
O220 Tb204 2.326 . S
O220 C208 1.242 . S
O221 Eu205 2.324 . S
O221 C208 1.258 . S
O222 Tb204 2.500 . S
O222 C224 1.273 . S
O223 Tb204 2.473 . S
O223 C224 1.257 . S
C224 O222 1.273 . S
C224 O223 1.257 . S
O225 Eu205 2.326 . S
O225 C213 1.242 . S
O226 Tb204 2.324 . S
O226 C213 1.258 . S
O227 Eu205 2.500 . S
O227 C210 1.273 . S
O228 Eu205 2.473 . S
O228 C210 1.257 . S
H229 C215 0.929 . S
H230 C217 0.931 . S
H231 C219 0.929 . S
O232 Tb233 2.292 . S
O232 C235 1.255 . S
Tb233 O232 2.292 . S
Tb233 O249 2.326 . S
Tb233 O251 2.500 . S
Tb233 O252 2.473 . S
Tb233 O255 2.324 . S
Eu234 O238 2.292 . S
Eu234 C239 2.852 . S
Eu234 O250 2.324 . S
Eu234 O254 2.326 . S
Eu234 O256 2.500 . S
Eu234 O257 2.473 . S
C235 O232 1.255 . S
C235 O236 1.247 . S
O236 C235 1.247 . S
C237 O249 1.242 . S
C237 O250 1.258 . S
O238 Eu234 2.292 . S
O238 C240 1.255 . S
C239 Eu234 2.852 . S
C239 C243 1.503 1_655 S
C239 O256 1.273 . S
C239 O257 1.257 . S
C240 O238 1.255 . S
C240 O241 1.247 . S
O241 C240 1.247 . S
C242 O254 1.242 . S
C242 O255 1.258 . S
C243 C239 1.503 1_455 S
C243 C244 1.379 . S
C243 C248 1.392 . S
C244 C243 1.379 . S
C244 C245 1.404 . S
C244 H258 0.929 1_455 S
C245 C244 1.404 . S
C245 C246 1.389 . S
C246 C245 1.389 . S
C246 C247 1.399 . S
C246 H259 0.931 . S
C247 C246 1.399 . S
C247 C248 1.390 . S
C248 C243 1.392 . S
C248 C247 1.390 . S
C248 H260 0.929 . S
O249 Tb233 2.326 . S
O249 C237 1.242 . S
O250 Eu234 2.324 . S
O250 C237 1.258 . S
O251 Tb233 2.500 . S
O251 C253 1.273 . S
O252 Tb233 2.473 . S
O252 C253 1.257 . S
C253 O251 1.273 . S
C253 O252 1.257 . S
O254 Eu234 2.326 . S
O254 C242 1.242 . S
O255 Tb233 2.324 . S
O255 C242 1.258 . S
O256 Eu234 2.500 . S
O256 C239 1.273 . S
O257 Eu234 2.473 . S
O257 C239 1.257 . S
H258 C244 0.929 1_655 S
H259 C246 0.931 . S
H260 C248 0.929 . S
O261 Tb262 2.292 . S
O261 C264 1.255 . S
Tb262 O261 2.292 . S
Tb262 O278 2.326 . S
Tb262 O280 2.500 . S
Tb262 O281 2.473 . S
Tb262 O284 2.324 . S
Eu263 O267 2.292 . S
Eu263 C268 2.852 1_565 S
Eu263 O279 2.324 1_565 S
Eu263 O283 2.326 1_565 S
Eu263 O285 2.500 . S
Eu263 O286 2.473 1_565 S
C264 O261 1.255 . S
C264 O265 1.247 . S
O265 C264 1.247 . S
C266 O278 1.242 . S
C266 O279 1.258 . S
O267 Eu263 2.292 . S
O267 C269 1.255 . S
C268 Eu263 2.852 1_545 S
C268 C272 1.503 . S
C268 O285 1.273 1_545 S
C268 O286 1.257 . S
C269 O267 1.255 . S
C269 O270 1.247 . S
O270 C269 1.247 . S
C271 O283 1.242 . S
C271 O284 1.258 . S
C272 C268 1.503 . S
C272 C273 1.379 . S
C272 C277 1.392 . S
C273 C272 1.379 . S
C273 C274 1.404 . S
C273 H287 0.929 . S
C274 C273 1.404 . S
C274 C275 1.389 . S
C275 C274 1.389 . S
C275 C276 1.399 . S
C275 H288 0.931 . S
C276 C275 1.399 . S
C276 C277 1.390 . S
C277 C272 1.392 . S
C277 C276 1.390 . S
C277 H289 0.929 1_545 S
O278 Tb262 2.326 . S
O278 C266 1.242 . S
O279 Eu263 2.324 1_545 S
O279 C266 1.258 . S
O280 Tb262 2.500 . S
O280 C282 1.273 . S
O281 Tb262 2.473 . S
O281 C282 1.257 . S
C282 O280 1.273 . S
C282 O281 1.257 . S
O283 Eu263 2.326 1_545 S
O283 C271 1.242 . S
O284 Tb262 2.324 . S
O284 C271 1.258 . S
O285 Eu263 2.500 . S
O285 C268 1.273 1_565 S
O286 Eu263 2.473 1_545 S
O286 C268 1.257 . S
H287 C273 0.929 . S
H288 C275 0.931 . S
H289 C277 0.929 1_565 S
O290 Tb291 2.292 . S
O290 C293 1.255 1_554 S
Tb291 O290 2.292 . S
Tb291 O307 2.326 . S
Tb291 O309 2.500 . S
Tb291 O310 2.473 . S
Tb291 O313 2.324 . S
Eu292 O296 2.292 . S
Eu292 C297 2.852 . S
Eu292 O308 2.324 . S
Eu292 O312 2.326 . S
Eu292 O314 2.500 . S
Eu292 O315 2.473 . S
C293 O290 1.255 1_556 S
C293 O294 1.247 . S
O294 C293 1.247 . S
C295 O307 1.242 . S
C295 O308 1.258 . S
O296 Eu292 2.292 . S
O296 C298 1.255 . S
C297 Eu292 2.852 . S
C297 C301 1.503 . S
C297 O314 1.273 . S
C297 O315 1.257 . S
C298 O296 1.255 . S
C298 O299 1.247 . S
O299 C298 1.247 . S
C300 O312 1.242 . S
C300 O313 1.258 . S
C301 C297 1.503 . S
C301 C302 1.379 . S
C301 C306 1.392 . S
C302 C301 1.379 . S
C302 C303 1.404 . S
C302 H316 0.929 . S
C303 C302 1.404 . S
C303 C304 1.389 . S
C304 C303 1.389 . S
C304 C305 1.399 . S
C304 H317 0.931 . S
C305 C304 1.399 . S
C305 C306 1.390 . S
C306 C301 1.392 . S
C306 C305 1.390 . S
C306 H318 0.929 . S
O307 Tb291 2.326 . S
O307 C295 1.242 . S
O308 Eu292 2.324 . S
O308 C295 1.258 . S
O309 Tb291 2.500 . S
O309 C311 1.273 . S
O310 Tb291 2.473 . S
O310 C311 1.257 . S
C311 O309 1.273 . S
C311 O310 1.257 . S
O312 Eu292 2.326 . S
O312 C300 1.242 . S
O313 Tb291 2.324 . S
O313 C300 1.258 . S
O314 Eu292 2.500 . S
O314 C297 1.273 . S
O315 Eu292 2.473 . S
O315 C297 1.257 . S
H316 C302 0.929 . S
H317 C304 0.931 . S
H318 C306 0.929 . S
O319 Tb320 2.292 . S
O319 C322 1.255 . S
Tb320 O319 2.292 . S
Tb320 O336 2.326 . S
Tb320 O338 2.500 . S
Tb320 O339 2.473 . S
Tb320 O342 2.324 . S
Eu321 O325 2.292 . S
Eu321 C326 2.852 . S
Eu321 O337 2.324 . S
Eu321 O341 2.326 . S
Eu321 O343 2.500 . S
Eu321 O344 2.473 . S
C322 O319 1.255 . S
C322 O323 1.247 1_545 S
O323 C322 1.247 1_565 S
C324 O336 1.242 . S
C324 O337 1.258 1_545 S
O325 Eu321 2.292 . S
O325 C327 1.255 . S
C326 Eu321 2.852 . S
C326 C330 1.503 . S
C326 O343 1.273 . S
C326 O344 1.257 . S
C327 O325 1.255 . S
C327 O328 1.247 1_565 S
O328 C327 1.247 1_545 S
C329 O341 1.242 . S
C329 O342 1.258 1_565 S
C330 C326 1.503 . S
C330 C331 1.379 . S
C330 C335 1.392 . S
C331 C330 1.379 . S
C331 C332 1.404 . S
C331 H345 0.929 . S
C332 C331 1.404 . S
C332 C333 1.389 . S
C333 C332 1.389 . S
C333 C334 1.399 . S
C333 H346 0.931 . S
C334 C333 1.399 . S
C334 C335 1.390 . S
C335 C330 1.392 . S
C335 C334 1.390 . S
C335 H347 0.929 . S
O336 Tb320 2.326 . S
O336 C324 1.242 . S
O337 Eu321 2.324 . S
O337 C324 1.258 1_565 S
O338 Tb320 2.500 . S
O338 C340 1.273 . S
O339 Tb320 2.473 . S
O339 C340 1.257 . S
C340 O338 1.273 . S
C340 O339 1.257 . S
O341 Eu321 2.326 . S
O341 C329 1.242 . S
O342 Tb320 2.324 . S
O342 C329 1.258 1_545 S
O343 Eu321 2.500 . S
O343 C326 1.273 . S
O344 Eu321 2.473 . S
O344 C326 1.257 . S
H345 C331 0.929 . S
H346 C333 0.931 . S
H347 C335 0.929 . S
O348 Tb349 2.292 . S
O348 C351 1.255 . S
Tb349 O348 2.292 . S
Tb349 O365 2.326 . S
Tb349 O367 2.500 . S
Tb349 O368 2.473 . S
Tb349 O371 2.324 . S
Eu350 O354 2.292 . S
Eu350 C355 2.852 . S
Eu350 O366 2.324 . S
Eu350 O370 2.326 . S
Eu350 O372 2.500 . S
Eu350 O373 2.473 . S
C351 O348 1.255 . S
C351 O352 1.247 . S
O352 C351 1.247 . S
C353 O365 1.242 . S
C353 O366 1.258 . S
O354 Eu350 2.292 . S
O354 C356 1.255 . S
C355 Eu350 2.852 . S
C355 C359 1.502 . S
C355 O372 1.273 . S
C355 O373 1.257 . S
C356 O354 1.255 . S
C356 O357 1.247 . S
O357 C356 1.247 . S
C358 O370 1.242 . S
C358 O371 1.258 . S
C359 C355 1.502 . S
C359 C360 1.379 1_455 S
C359 C364 1.393 1_455 S
C360 C359 1.379 1_655 S
C360 C361 1.406 . S
C360 H374 0.927 1_655 S
C361 C360 1.406 . S
C361 C362 1.389 . S
C362 C361 1.389 . S
C362 C363 1.399 . S
C362 H375 0.931 . S
C363 C362 1.399 . S
C363 C364 1.390 . S
C364 C359 1.393 1_655 S
C364 C363 1.390 . S
C364 H376 0.929 . S
O365 Tb349 2.326 . S
O365 C353 1.242 . S
O366 Eu350 2.324 . S
O366 C353 1.258 . S
O367 Tb349 2.500 . S
O367 C369 1.273 . S
O368 Tb349 2.473 . S
O368 C369 1.257 . S
C369 O367 1.273 . S
C369 O368 1.257 . S
O370 Eu350 2.326 . S
O370 C358 1.242 . S
O371 Tb349 2.324 . S
O371 C358 1.258 . S
O372 Eu350 2.500 . S
O372 C355 1.273 . S
O373 Eu350 2.473 . S
O373 C355 1.257 . S
H374 C360 0.927 1_455 S
H375 C362 0.931 . S
H376 C364 0.929 . S
O377 Tb378 2.292 . S
O377 C380 1.255 . S
Tb378 O377 2.292 . S
Tb378 O394 2.326 . S
Tb378 O396 2.500 . S
Tb378 O397 2.473 . S
Tb378 O400 2.322 1_545 S
Eu379 O383 2.292 . S
Eu379 C384 2.852 . S
Eu379 O395 2.324 . S
Eu379 O399 2.326 . S
Eu379 O401 2.500 . S
Eu379 O402 2.473 . S
C380 O377 1.255 . S
C380 O381 1.247 1_545 S
O381 C380 1.247 1_565 S
C382 O394 1.242 1_565 S
C382 O395 1.258 . S
O383 Eu379 2.292 . S
O383 C385 1.255 . S
C384 Eu379 2.852 . S
C384 C388 1.503 . S
C384 O401 1.273 . S
C384 O402 1.257 . S
C385 O383 1.255 . S
C385 O386 1.247 . S
O386 C385 1.247 . S
C387 O399 1.242 . S
C387 O400 1.262 . S
C388 C384 1.503 . S
C388 C389 1.379 . S
C388 C393 1.392 . S
C389 C388 1.379 . S
C389 C390 1.404 . S
C389 H403 0.929 . S
C390 C389 1.404 . S
C390 C391 1.389 . S
C391 C390 1.389 . S
C391 C392 1.399 . S
C391 H404 0.931 . S
C392 C391 1.399 . S
C392 C393 1.390 . S
C393 C388 1.392 . S
C393 C392 1.390 . S
C393 H405 0.929 . S
O394 Tb378 2.326 . S
O394 C382 1.242 1_545 S
O395 Eu379 2.324 . S
O395 C382 1.258 . S
O396 Tb378 2.500 . S
O396 C398 1.273 . S
O397 Tb378 2.473 . S
O397 C398 1.257 . S
C398 O396 1.273 . S
C398 O397 1.257 . S
O399 Eu379 2.326 . S
O399 C387 1.242 . S
O400 Tb378 2.322 1_565 S
O400 C387 1.262 . S
O401 Eu379 2.500 . S
O401 C384 1.273 . S
O402 Eu379 2.473 . S
O402 C384 1.257 . S
H403 C389 0.929 . S
H404 C391 0.931 . S
H405 C393 0.929 . S
O406 Tb407 2.292 . S
O406 C409 1.255 . S
Tb407 O406 2.292 . S
Tb407 O423 2.326 . S
Tb407 O425 2.500 . S
Tb407 O426 2.473 . S
Tb407 O429 2.324 . S
Eu408 O412 2.292 . S
Eu408 C413 2.852 . S
Eu408 O424 2.324 . S
Eu408 O428 2.326 . S
Eu408 O430 2.500 . S
Eu408 O431 2.473 . S
C409 O406 1.255 . S
C409 O410 1.247 . S
O410 C409 1.247 . S
C411 O423 1.242 . S
C411 O424 1.258 . S
O412 Eu408 2.292 . S
O412 C414 1.255 . S
C413 Eu408 2.852 . S
C413 C417 1.503 . S
C413 O430 1.273 . S
C413 O431 1.257 . S
C414 O412 1.255 . S
C414 O415 1.247 . S
O415 C414 1.247 . S
C416 O428 1.242 . S
C416 O429 1.258 . S
C417 C413 1.503 . S
C417 C418 1.379 . S
C417 C422 1.392 . S
C418 C417 1.379 . S
C418 C419 1.404 . S
C418 H432 0.929 . S
C419 C418 1.404 . S
C419 C420 1.389 . S
C420 C419 1.389 . S
C420 C421 1.399 . S
C420 H433 0.931 . S
C421 C420 1.399 . S
C421 C422 1.390 . S
C422 C417 1.392 . S
C422 C421 1.390 . S
C422 H434 0.929 . S
O423 Tb407 2.326 . S
O423 C411 1.242 . S
O424 Eu408 2.324 . S
O424 C411 1.258 . S
O425 Tb407 2.500 . S
O425 C427 1.273 . S
O426 Tb407 2.473 . S
O426 C427 1.257 . S
C427 O425 1.273 . S
C427 O426 1.257 . S
O428 Eu408 2.326 . S
O428 C416 1.242 . S
O429 Tb407 2.324 . S
O429 C416 1.258 . S
O430 Eu408 2.500 . S
O430 C413 1.273 . S
O431 Eu408 2.473 . S
O431 C413 1.257 . S
H432 C418 0.929 . S
H433 C420 0.931 . S
H434 C422 0.929 . S
O435 Tb436 2.292 . S
O435 C438 1.255 . S
Tb436 O435 2.292 . S
Tb436 O452 2.326 . S
Tb436 O454 2.500 . S
Tb436 O455 2.473 . S
Tb436 O458 2.324 . S
Eu437 O441 2.292 . S
Eu437 C442 2.852 . S
Eu437 O453 2.324 . S
Eu437 O457 2.326 . S
Eu437 O459 2.500 . S
Eu437 O460 2.473 . S
C438 O435 1.255 . S
C438 O439 1.247 1_565 S
O439 C438 1.247 1_545 S
C440 O452 1.242 . S
C440 O453 1.258 1_565 S
O441 Eu437 2.292 . S
O441 C443 1.255 . S
C442 Eu437 2.852 . S
C442 C446 1.503 . S
C442 O459 1.273 . S
C442 O460 1.257 . S
C443 O441 1.255 . S
C443 O444 1.247 1_545 S
O444 C443 1.247 1_565 S
C445 O457 1.242 . S
C445 O458 1.258 1_545 S
C446 C442 1.503 . S
C446 C447 1.379 . S
C446 C451 1.392 . S
C447 C446 1.379 . S
C447 C448 1.404 . S
C447 H461 0.929 . S
C448 C447 1.404 . S
C448 C449 1.389 . S
C449 C448 1.389 . S
C449 C450 1.399 . S
C449 H462 0.931 . S
C450 C449 1.399 . S
C450 C451 1.390 . S
C451 C446 1.392 . S
C451 C450 1.390 . S
C451 H463 0.929 . S
O452 Tb436 2.326 . S
O452 C440 1.242 . S
O453 Eu437 2.324 . S
O453 C440 1.258 1_545 S
O454 Tb436 2.500 . S
O454 C456 1.273 . S
O455 Tb436 2.473 . S
O455 C456 1.257 . S
C456 O454 1.273 . S
C456 O455 1.257 . S
O457 Eu437 2.326 . S
O457 C445 1.242 . S
O458 Tb436 2.324 . S
O458 C445 1.258 1_565 S
O459 Eu437 2.500 . S
O459 C442 1.273 . S
O460 Eu437 2.473 . S
O460 C442 1.257 . S
H461 C447 0.929 . S
H462 C449 0.931 . S
H463 C451 0.929 . S
C224 C5 2.557 . S
C369 C39 3.179 . S
C63 C166 3.038 . S
C427 C92 2.703 1_455 S
C108 C121 2.836 . S
C150 C253 2.891 . S
C179 C37 2.971 . S
C311 C208 3.063 1_655 S
C456 C237 2.557 . S
C271 C137 3.179 1_445 S
C398 C295 3.038 . S
C195 C324 2.703 . S
C340 C353 2.836 . S
C382 C21 2.891 1_665 S
C411 C269 2.971 . S
C79 C440 3.063 . S
C282 C3 1.406 1_556 S
C44 C298 1.832 . S
C61 C327 1.884 . S
C90 C240 2.184 . S
C385 C119 1.502 . S
C148 C414 2.236 . S
C443 C177 1.933 . S
C206 C356 2.615 . S
C50 C235 1.406 . S
C66 C276 1.832 1_565 S
C95 C293 1.884 . S
C8 C322 2.184 . S
C351 C153 1.502 . S
C182 C380 2.233 1_565 S
C211 C409 1.933 1_554 S
C438 C124 2.615 1_565 S
C129 C13 4.719 1_566 S
C42 C390 2.959 . S
C187 C71 4.686 1_445 S
C448 C100 5.245 . S
C274 C158 2.959 . S
C216 C332 5.245 . S
C245 C361 4.719 1_455 S
C303 C419 4.686 1_554 S
C218 C10 1.609 . S
C363 C34 1.765 . S
C68 C160 1.428 . S
C97 C421 1.944 . S
C126 C102 1.761 . S
C155 C247 1.786 . S
C184 C32 2.711 . S
C305 C213 2.157 . S
C242 C450 1.609 . S
C131 C266 1.765 . S
C392 C300 1.428 . S
C329 C189 1.944 . S
C334 C358 1.761 . S
C15 C387 1.786 . S
C416 C264 2.711 . S
C73 C445 2.157 . S
