# Generated by pormake.
# Topology lvt, (4)-cn, num edge types: 1
# Building blocks:
#     Node 0, Type 0, BuildingBlock: NAWXER_clean_sbu_0, # of connection points: 4
#     Node 1, Type 0, BuildingBlock: NAWXER_clean_sbu_0, # of connection points: 4
#     Node 2, Type 0, BuildingBlock: NAWXER_clean_sbu_0, # of connection points: 4
#     Node 3, Type 0, BuildingBlock: NAWXER_clean_sbu_0, # of connection points: 4
#     Node 4, Type 0, BuildingBlock: NAWXER_clean_sbu_0, # of connection points: 4
#     Node 5, Type 0, BuildingBlock: NAWXER_clean_sbu_0, # of connection points: 4
#     Node 6, Type 0, BuildingBlock: NAWXER_clean_sbu_0, # of connection points: 4
#     Node 7, Type 0, BuildingBlock: NAWXER_clean_sbu_0, # of connection points: 4
#     Edge 8, Type (0, 0), BuildingBlock: FUNLAD_clean_linker_1, # of connection points: 2
#     Edge 9, Type (0, 0), BuildingBlock: FUNLAD_clean_linker_1, # of connection points: 2
#     Edge 10, Type (0, 0), BuildingBlock: FUNLAD_clean_linker_1, # of connection points: 2
#     Edge 11, Type (0, 0), BuildingBlock: FUNLAD_clean_linker_1, # of connection points: 2
#     Edge 12, Type (0, 0), BuildingBlock: FUNLAD_clean_linker_1, # of connection points: 2
#     Edge 13, Type (0, 0), BuildingBlock: FUNLAD_clean_linker_1, # of connection points: 2
#     Edge 14, Type (0, 0), BuildingBlock: FUNLAD_clean_linker_1, # of connection points: 2
#     Edge 15, Type (0, 0), BuildingBlock: FUNLAD_clean_linker_1, # of connection points: 2
#     Edge 16, Type (0, 0), BuildingBlock: FUNLAD_clean_linker_1, # of connection points: 2
#     Edge 17, Type (0, 0), BuildingBlock: FUNLAD_clean_linker_1, # of connection points: 2
#     Edge 18, Type (0, 0), BuildingBlock: FUNLAD_clean_linker_1, # of connection points: 2
#     Edge 19, Type (0, 0), BuildingBlock: FUNLAD_clean_linker_1, # of connection points: 2
#     Edge 20, Type (0, 0), BuildingBlock: FUNLAD_clean_linker_1, # of connection points: 2
#     Edge 21, Type (0, 0), BuildingBlock: FUNLAD_clean_linker_1, # of connection points: 2
#     Edge 22, Type (0, 0), BuildingBlock: FUNLAD_clean_linker_1, # of connection points: 2
#     Edge 23, Type (0, 0), BuildingBlock: FUNLAD_clean_linker_1, # of connection points: 2
# Relax obj value: 0.000
# Max RMSD: 0.000
# Mean RMSD: 0.000
data_MOF--net-lvt--node1-NAWXER_clean_sbu_0--edge1-FUNLAD_clean_linker_1
_symmetry_space_group_name_H-M    P1
_symmetry_Int_Tables_number       1
_symmetry_cell_setting            triclinic
loop_
_symmetry_equiv_pos_as_xyz
'x, y, z'
_cell_length_a     40.212843
_cell_length_b     40.14402
_cell_length_c     22.74519
_cell_angle_alpha  89.865783
_cell_angle_beta   89.897816
_cell_angle_gamma 89.942021
loop_
_atom_site_label
_atom_site_type_symbol
_atom_site_fract_x
_atom_site_fract_y
_atom_site_fract_z
_atom_type_partial_charge
C0 C 0.96663 0.95991 0.48246 0.0
C1 C 0.05485 0.03662 0.41572 0.0
O2 O 0.98179 0.95945 0.43335 0.0
Zn3 Zn 1.01036 0.9982 0.44567 0.0
O4 O 0.97384 0.98245 0.52016 0.0
Zn5 Zn 1.00742 0.02367 0.52792 0.0
O6 O 0.97769 0.06169 0.5356 0.0
O7 O 0.97641 0.03958 0.44692 0.0
O8 O 0.04389 0.04264 0.46758 0.0
O9 O 0.04222 1.01293 0.38611 0.0
O10 O 0.04344 0.98011 0.51217 0.0
O11 O 0.03578 1.00951 0.59292 0.0
C12 C 0.96648 0.06182 0.48336 0.0
C13 C 0.05091 0.98632 0.56577 0.0
C14 C 0.23704 0.81331 0.67779 0.0
C15 C 0.30585 0.7243 0.76443 0.0
O16 O 0.26144 0.79883 0.65281 0.0
Zn17 Zn 0.27289 0.76906 0.71801 0.0
O18 O 0.22886 0.80496 0.73023 0.0
Zn19 Zn 0.24386 0.77108 0.7975 0.0
O20 O 0.25818 0.80138 0.85996 0.0
O21 O 0.29054 0.80355 0.78171 0.0
O22 O 0.28207 0.73423 0.79746 0.0
O23 O 0.31037 0.73778 0.71434 0.0
O24 O 0.23006 0.73695 0.71977 0.0
O25 O 0.20417 0.7435 0.80469 0.0
C26 C 0.28325 0.81368 0.8335 0.0
C27 C 0.20594 0.72965 0.75448 0.0
C28 C 0.46899 0.99041 0.92879 0.0
C29 C 0.55252 0.06826 0.00764 0.0
O30 O 0.48132 0.01537 0.90192 0.0
Zn31 Zn 0.51182 0.02945 0.96391 0.0
O32 O 0.47942 0.98299 0.98041 0.0
Zn33 Zn 0.5142 1.00083 0.04408 0.0
O34 O 0.48389 1.01214 0.10883 0.0
O35 O 0.47751 0.04408 0.03053 0.0
O36 O 0.54528 0.04419 0.04255 0.0
O37 O 0.53926 0.0694 0.95691 0.0
O38 O 0.54783 0.99055 0.96318 0.0
O39 O 0.54643 0.96383 0.04802 0.0
C40 C 0.46897 0.03603 0.08293 0.0
C41 C 0.55866 0.96732 0.99668 0.0
C42 C 0.28582 0.21584 0.17862 0.0
C43 C 0.21309 0.30456 0.25641 0.0
O44 O 0.26204 0.22983 0.15107 0.0
Zn45 Zn 0.24941 0.26107 0.21331 0.0
O46 O 0.29298 0.22543 0.23074 0.0
Zn47 Zn 0.2766 0.26083 0.29447 0.0
O48 O 0.26269 0.2309 0.35792 0.0
O49 O 0.23126 0.22724 0.27873 0.0
O50 O 0.23589 0.29526 0.29222 0.0
O51 O 0.21191 0.29175 0.20534 0.0
O52 O 0.29161 0.29347 0.21402 0.0
O53 O 0.31594 0.28935 0.3005 0.0
C54 C 0.23815 0.21785 0.33121 0.0
C55 C 0.31505 0.30186 0.24907 0.0
C56 C 0.73725 0.31524 0.17535 0.0
C57 C 0.81175 0.22773 0.25106 0.0
O58 O 0.76132 0.30182 0.14776 0.0
Zn59 Zn 0.77446 0.27078 0.20968 0.0
O60 O 0.73016 0.30536 0.22752 0.0
Zn61 Zn 0.74753 0.26986 0.29088 0.0
O62 O 0.76072 0.29922 0.35492 0.0
O63 O 0.79209 0.3045 0.27569 0.0
O64 O 0.78895 0.23631 0.28748 0.0
O65 O 0.81249 0.24096 0.20022 0.0
O66 O 0.73294 0.23737 0.21066 0.0
O67 O 0.7093 0.24014 0.29804 0.0
C68 C 0.78497 0.3131 0.32849 0.0
C69 C 0.71006 0.22808 0.2464 0.0
C70 C 0.81152 0.71824 0.75265 0.0
C71 C 0.73674 0.80043 0.83994 0.0
O72 O 0.7886 0.72698 0.71627 0.0
Zn73 Zn 0.74725 0.76296 0.71645 0.0
O74 O 0.81315 0.73198 0.80275 0.0
Zn75 Zn 0.77522 0.76037 0.79342 0.0
O76 O 0.73463 0.72427 0.78649 0.0
O77 O 0.70944 0.73475 0.70218 0.0
O78 O 0.76279 0.78717 0.86079 0.0
O79 O 0.72819 0.79379 0.78692 0.0
O80 O 0.75888 0.79474 0.65537 0.0
O81 O 0.7943 0.79546 0.72903 0.0
C82 C 0.7116 0.71771 0.7491 0.0
C83 C 0.78533 0.80596 0.67813 0.0
C84 C 0.4727 0.57 0.98461 0.0
C85 C 0.55701 0.49557 0.06964 0.0
O86 O 0.48764 0.57354 0.03345 0.0
Zn87 Zn 0.51328 0.53273 0.03089 0.0
O88 O 0.47796 0.54379 0.95362 0.0
Zn89 Zn 0.50874 0.49958 0.95771 0.0
O90 O 0.47727 0.46247 0.9641 0.0
O91 O 0.47606 0.49511 0.04204 0.0
O92 O 0.54515 0.48531 0.02075 0.0
O93 O 0.54558 0.52211 0.09246 0.0
O94 O 0.54482 0.54359 0.95748 0.0
O95 O 0.53717 0.50584 0.88836 0.0
C96 C 0.46532 0.46957 0.01436 0.0
C97 C 0.5517 0.53206 0.9064 0.0
C98 C 0.96753 0.4894 0.44009 0.0
C99 C 0.05411 0.56287 0.52017 0.0
O100 O 0.98029 0.51468 0.41491 0.0
Zn101 Zn 1.01207 0.52577 0.47665 0.0
O102 O 0.97813 0.48046 0.49083 0.0
Zn103 Zn 0.01398 0.49615 0.55454 0.0
O104 O 0.98462 0.506 0.62066 0.0
O105 O 0.97942 0.54121 0.54645 0.0
O106 O 0.04639 0.53883 0.55486 0.0
O107 O 0.04086 0.56449 0.46953 0.0
O108 O 0.04604 0.4846 0.47168 0.0
O109 O 0.04439 0.45825 0.55673 0.0
C110 C 0.97121 0.53183 0.59841 0.0
C111 C 0.05592 0.4607 0.50483 0.0
H112 H 0.08855 0.05459 0.34487 0.0
C113 C 0.08168 0.05771 0.39075 0.0
H114 H 0.08962 0.08456 0.4692 0.0
H115 H 0.2274 0.12502 0.32487 0.0
H116 H 0.24192 0.06639 0.33013 0.0
H117 H 0.20202 0.02515 0.36891 0.0
H118 H 0.14715 0.04214 0.40166 0.0
C119 C 0.09701 0.08102 0.42366 0.0
C120 C 0.12148 0.10536 0.3992 0.0
C121 C 0.15377 0.09508 0.38152 0.0
C122 C 0.1772 0.11903 0.36069 0.0
C123 C 0.20888 0.10797 0.34177 0.0
C124 C 0.21753 0.07439 0.34459 0.0
C125 C 0.19504 0.05116 0.36633 0.0
C126 C 0.16354 0.06124 0.38475 0.0
H127 H 0.22297 0.18438 0.4046 0.0
C128 C 0.21733 0.19196 0.35982 0.0
H129 H 0.18524 0.18609 0.28698 0.0
H130 H 0.06196 0.13378 0.42994 0.0
H131 H 0.04839 0.1926 0.42807 0.0
H132 H 0.08961 0.23408 0.39505 0.0
H133 H 0.14462 0.21699 0.3631 0.0
C134 C 0.19145 0.17806 0.33128 0.0
C135 C 0.16861 0.1533 0.35888 0.0
C136 C 0.13663 0.16363 0.37778 0.0
C137 C 0.11305 0.13971 0.39775 0.0
C138 C 0.08109 0.15085 0.41533 0.0
C139 C 0.07288 0.18456 0.41422 0.0
C140 C 0.09606 0.20791 0.39547 0.0
C141 C 0.12754 0.19774 0.37722 0.0
H142 H 0.08229 0.97096 0.64146 0.0
C143 C 0.07708 0.9664 0.59531 0.0
H144 H 0.08888 0.93768 0.52017 0.0
H145 H 0.22961 0.90555 0.64892 0.0
H146 H 0.24493 0.96063 0.61417 0.0
H147 H 0.20312 0.9979 0.56958 0.0
H148 H 0.14556 0.98048 0.5602 0.0
C149 C 0.09415 0.94269 0.56613 0.0
C150 C 0.11925 0.92091 0.5952 0.0
C151 C 0.15288 0.93119 0.59948 0.0
C152 C 0.17718 0.90937 0.62407 0.0
C153 C 0.21032 0.92076 0.6295 0.0
C154 C 0.21943 0.95238 0.60989 0.0
C155 C 0.19587 0.97339 0.58485 0.0
C156 C 0.16294 0.96308 0.57968 0.0
H157 H 0.22184 0.84352 0.6002 0.0
C158 C 0.217 0.83878 0.64648 0.0
H159 H 0.18673 0.84949 0.72005 0.0
H160 H 0.05711 0.89336 0.59257 0.0
H161 H 0.04181 0.83792 0.62556 0.0
H162 H 0.08393 0.79975 0.66669 0.0
H163 H 0.14158 0.81662 0.67481 0.0
C164 C 0.19203 0.85491 0.67414 0.0
C165 C 0.16784 0.87707 0.64342 0.0
C166 C 0.13421 0.86673 0.63855 0.0
C167 C 0.10994 0.88865 0.61445 0.0
C168 C 0.07657 0.87764 0.61024 0.0
C169 C 0.06743 0.8459 0.62907 0.0
C170 C 0.09114 0.82441 0.65225 0.0
C171 C 0.12415 0.83452 0.65694 0.0
H172 H 0.43522 0.97515 0.85638 0.0
C173 C 0.44262 0.96985 0.90136 0.0
H174 H 0.43582 0.93895 0.97576 0.0
H175 H 0.29455 0.90582 0.83995 0.0
H176 H 0.27995 0.96348 0.85866 0.0
H177 H 0.32103 1.00246 0.9001 0.0
H178 H 0.37715 0.98421 0.92218 0.0
C179 C 0.42791 0.94476 0.93124 0.0
C180 C 0.40293 0.92188 0.90452 0.0
C181 C 0.36996 0.93276 0.89312 0.0
C182 C 0.3459 0.90996 0.87087 0.0
C183 C 0.31355 0.92182 0.85806 0.0
C184 C 0.30486 0.95488 0.86848 0.0
C185 C 0.32801 0.97686 0.8917 0.0
C186 C 0.3602 0.96607 0.90401 0.0
H187 H 0.29892 0.84676 0.90674 0.0
C188 C 0.30445 0.83921 0.86193 0.0
H189 H 0.33683 0.84435 0.7892 0.0
H190 H 0.46374 0.89271 0.92165 0.0
H191 H 0.47787 0.8347 0.90568 0.0
H192 H 0.43584 0.79496 0.86972 0.0
H193 H 0.37943 0.81299 0.84946 0.0
C194 C 0.33073 0.85258 0.83341 0.0
C195 C 0.35462 0.87613 0.86138 0.0
C196 C 0.38746 0.8652 0.87352 0.0
C197 C 0.41159 0.88804 0.89499 0.0
C198 C 0.44427 0.87638 0.90607 0.0
C199 C 0.45277 0.84315 0.89691 0.0
C200 C 0.42913 0.82079 0.87657 0.0
C201 C 0.39685 0.83152 0.86493 0.0
H202 H 0.3011 0.18227 0.10564 0.0
C203 C 0.30592 0.18908 0.15103 0.0
H204 H 0.33607 0.18127 0.22594 0.0
H205 H 0.37576 0.0398 0.10259 0.0
H206 H 0.31998 0.02244 0.12958 0.0
H207 H 0.27945 0.06289 0.16889 0.0
H208 H 0.29428 0.12112 0.18062 0.0
C209 C 0.33067 0.17398 0.18099 0.0
C210 C 0.35407 0.14968 0.1537 0.0
C211 C 0.34522 0.11566 0.14795 0.0
C212 C 0.36888 0.09215 0.12644 0.0
C213 C 0.35902 0.05855 0.11964 0.0
C214 C 0.32705 0.04827 0.13487 0.0
C215 C 0.30421 0.07106 0.15694 0.0
C216 C 0.31304 0.1044 0.16347 0.0
H217 H 0.43697 0.05065 0.15868 0.0
C218 C 0.44232 0.05536 0.11257 0.0
H219 H 0.4315 0.0845 0.03747 0.0
H220 H 0.37908 0.21296 0.15913 0.0
H221 H 0.43507 0.23025 0.13362 0.0
H222 H 0.47635 0.18943 0.09824 0.0
H223 H 0.462 0.13109 0.08825 0.0
C224 C 0.42556 0.07935 0.08323 0.0
C225 C 0.40152 0.10264 0.1116 0.0
C226 C 0.41037 0.13667 0.11775 0.0
C227 C 0.38666 0.16016 0.13873 0.0
C228 C 0.3962 0.19399 0.14399 0.0
C229 C 0.42824 0.20429 0.12937 0.0
C230 C 0.45147 0.18132 0.10938 0.0
C231 C 0.44282 0.1479 0.10361 0.0
H232 H 0.94421 0.90961 0.47536 0.0
C233 C 0.9426 0.93327 0.49827 0.0
H234 H 0.91918 0.96117 0.56456 0.0
H235 H 0.82626 0.82204 0.53821 0.0
H236 H 0.82089 0.83501 0.43466 0.0
H237 H 0.84937 0.88373 0.39171 0.0
H238 H 0.88448 0.91889 0.4516 0.0
C239 C 0.92034 0.93729 0.54223 0.0
C240 C 0.89997 0.90942 0.56788 0.0
C241 C 0.87734 0.89071 0.53321 0.0
C242 C 0.85846 0.86433 0.55918 0.0
C243 C 0.8391 0.84384 0.52201 0.0
C244 C 0.83611 0.85077 0.46223 0.0
C245 C 0.85232 0.87807 0.43797 0.0
C246 C 0.8727 0.89789 0.47281 0.0
H247 H 0.79236 0.84852 0.6174 0.0
C248 C 0.8053 0.83121 0.64617 0.0
H249 H 0.85129 0.81448 0.67844 0.0
H250 H 0.94271 0.93799 0.64702 0.0
H251 H 0.94485 0.92781 0.7517 0.0
H252 H 0.90728 0.8871 0.79847 0.0
H253 H 0.86784 0.85584 0.74065 0.0
C254 C 0.83874 0.83236 0.65017 0.0
C255 C 0.8596 0.85876 0.62098 0.0
C256 C 0.88173 0.87796 0.65576 0.0
C257 C 0.90242 0.90259 0.62909 0.0
C258 C 0.92548 0.91992 0.66487 0.0
C259 C 0.92716 0.91419 0.72518 0.0
C260 C 0.9061 0.89121 0.75146 0.0
C261 C 0.88363 0.87327 0.71749 0.0
H262 H 0.93511 0.10681 0.49561 0.0
C263 C 0.94287 0.08805 0.46404 0.0
H264 H 0.9385 0.07056 0.37675 0.0
H265 H 0.7996 0.14039 0.33092 0.0
H266 H 0.78056 0.08476 0.35553 0.0
H267 H 0.81938 0.04281 0.39531 0.0
H268 H 0.87754 0.05621 0.41075 0.0
C269 C 0.93145 0.08955 0.4084 0.0
C270 C 0.90778 0.11583 0.38809 0.0
C271 C 0.87385 0.10772 0.37943 0.0
C272 C 0.85139 0.13206 0.35697 0.0
C273 C 0.81767 0.12306 0.34852 0.0
C274 C 0.80642 0.09117 0.36228 0.0
C275 C 0.82828 0.06753 0.3846 0.0
C276 C 0.86162 0.07555 0.39314 0.0
H277 H 0.85562 0.19503 0.2366 0.0
C278 C 0.83728 0.20295 0.26882 0.0
H279 H 0.81957 0.19773 0.35584 0.0
H280 H 0.97152 0.13906 0.39607 0.0
H281 H 0.99056 0.19487 0.37268 0.0
H282 H 0.95139 0.23762 0.33708 0.0
H283 H 0.89291 0.22489 0.32416 0.0
C284 C 0.83834 0.19045 0.32391 0.0
C285 C 0.86282 0.16456 0.34295 0.0
C286 C 0.89682 0.17271 0.35166 0.0
C287 C 0.91936 0.14822 0.37367 0.0
C288 C 0.95327 0.1568 0.38048 0.0
C289 C 0.96455 0.18874 0.36718 0.0
C290 C 0.94247 0.21282 0.34707 0.0
C291 C 0.90897 0.2051 0.33954 0.0
H292 H 0.66508 0.1966 0.2578 0.0
C293 C 0.68432 0.20406 0.22687 0.0
H294 H 0.70367 0.19843 0.14097 0.0
H295 H 0.63934 0.05839 0.0905 0.0
H296 H 0.69516 0.04117 0.11693 0.0
H297 H 0.73488 0.08121 0.15939 0.0
H298 H 0.71903 0.13879 0.17561 0.0
C299 C 0.68407 0.19173 0.17172 0.0
C300 C 0.65881 0.16716 0.15096 0.0
C301 C 0.66829 0.13352 0.14199 0.0
C302 C 0.64521 0.11032 0.11812 0.0
C303 C 0.65564 0.07697 0.10922 0.0
C304 C 0.68767 0.06676 0.12402 0.0
C305 C 0.71004 0.08931 0.14783 0.0
C306 C 0.70063 0.12232 0.15678 0.0
H307 H 0.58292 0.11403 0.99598 0.0
C308 C 0.57582 0.0947 0.02706 0.0
H309 H 0.5815 0.07563 0.11309 0.0
H310 H 0.63304 0.23007 0.15907 0.0
H311 H 0.57683 0.24711 0.13463 0.0
H312 H 0.5361 0.20651 0.09757 0.0
H313 H 0.55129 0.14858 0.08382 0.0
C314 C 0.58798 0.09535 0.08234 0.0
C315 C 0.61253 0.12067 0.10315 0.0
C316 C 0.60293 0.1543 0.11254 0.0
C317 C 0.62621 0.17763 0.13574 0.0
C318 C 0.61623 0.21121 0.14279 0.0
C319 C 0.58406 0.22136 0.12888 0.0
C320 C 0.56112 0.19847 0.10789 0.0
C321 C 0.57024 0.1653 0.0999 0.0
H322 H 0.59497 0.95174 0.92997 0.0
C323 C 0.58502 0.94528 0.97302 0.0
H324 H 0.58577 0.90949 0.04121 0.0
H325 H 0.63799 0.79647 0.86736 0.0
H326 H 0.58224 0.77712 0.88938 0.0
H327 H 0.54354 0.81165 0.94744 0.0
H328 H 0.56047 0.86562 0.98444 0.0
C329 C 0.59632 0.91753 0.99953 0.0
C330 C 0.62092 0.89551 0.96869 0.0
C331 C 0.6108 0.86391 0.94752 0.0
C332 C 0.63298 0.84422 0.91303 0.0
C333 C 0.62208 0.81271 0.89285 0.0
C334 C 0.59015 0.80123 0.90533 0.0
C335 C 0.56837 0.82065 0.93809 0.0
C336 C 0.57843 0.85161 0.95908 0.0
H337 H 0.72438 0.8268 0.92252 0.0
C338 C 0.71611 0.8224 0.87773 0.0
H339 H 0.67825 0.83083 0.81541 0.0
H340 H 0.65007 0.95245 0.00925 0.0
H341 H 0.70509 0.97294 0.98451 0.0
H342 H 0.74198 0.941 0.91867 0.0
H343 H 0.72442 0.88817 0.87812 0.0
C344 C 0.68736 0.83617 0.85934 0.0
C345 C 0.66532 0.85616 0.89921 0.0
C346 C 0.67563 0.88762 0.92114 0.0
C347 C 0.65371 0.90688 0.95693 0.0
C348 C 0.6652 0.93746 0.98014 0.0
C349 C 0.6968 0.94942 0.96657 0.0
C350 C 0.71761 0.93137 0.92968 0.0
C351 C 0.70727 0.90089 0.90701 0.0
H352 H 0.59165 0.53496 0.83877 0.0
C353 C 0.57729 0.5492 0.87045 0.0
H354 H 0.56897 0.59536 0.91144 0.0
H355 H 0.70209 0.66859 0.90633 0.0
H356 H 0.69482 0.6573 0.00989 0.0
H357 H 0.6515 0.61847 0.04449 0.0
H358 H 0.61478 0.59121 0.9756 0.0
C359 C 0.58389 0.58174 0.87958 0.0
C360 C 0.61371 0.59961 0.85596 0.0
C361 C 0.6362 0.6142 0.89653 0.0
C362 C 0.66211 0.63553 0.87635 0.0
C363 C 0.68269 0.65129 0.91856 0.0
C364 C 0.67872 0.64516 0.97844 0.0
C365 C 0.65428 0.6234 0.99793 0.0
C366 C 0.63322 0.60807 0.95777 0.0
H367 H 0.66162 0.69526 0.74382 0.0
C368 C 0.6864 0.69187 0.76185 0.0
H369 H 0.71816 0.6617 0.81228 0.0
H370 H 0.5741 0.57792 0.76576 0.0
H371 H 0.58484 0.58432 0.66155 0.0
H372 H 0.63451 0.61441 0.62632 0.0
H373 H 0.67305 0.63935 0.69522 0.0
C374 C 0.69314 0.66496 0.79519 0.0
C375 C 0.66665 0.64118 0.81519 0.0
C376 C 0.64578 0.62444 0.77437 0.0
C377 C 0.61847 0.60483 0.79477 0.0
C378 C 0.59621 0.59138 0.75295 0.0
C379 C 0.60196 0.59507 0.69289 0.0
C380 C 0.62982 0.61217 0.67305 0.0
C381 C 0.65157 0.62668 0.71309 0.0
H382 H 0.72103 0.34777 0.10157 0.0
C383 C 0.71675 0.34159 0.1475 0.0
H384 H 0.68762 0.35042 0.22327 0.0
H385 H 0.64943 0.48575 0.07001 0.0
H386 H 0.7072 0.50169 0.0818 0.0
H387 H 0.74769 0.46299 0.1264 0.0
H388 H 0.73079 0.40791 0.15864 0.0
C389 C 0.69241 0.35716 0.17773 0.0
C390 C 0.66852 0.38085 0.14992 0.0
C391 C 0.67867 0.41327 0.13256 0.0
C392 C 0.65506 0.43602 0.10845 0.0
C393 C 0.66611 0.46778 0.08972 0.0
C394 C 0.69923 0.47723 0.09612 0.0
C395 C 0.72204 0.45541 0.12113 0.0
C396 C 0.71203 0.4238 0.13927 0.0
H397 H 0.59223 0.48386 0.14209 0.0
C398 C 0.58362 0.47614 0.09898 0.0
H399 H 0.58754 0.4406 0.03091 0.0
H400 H 0.64059 0.3208 0.17917 0.0
H401 H 0.58247 0.3057 0.17075 0.0
H402 H 0.54142 0.34552 0.13119 0.0
H403 H 0.55822 0.40085 0.10025 0.0
C404 C 0.59672 0.44883 0.07336 0.0
C405 C 0.62121 0.42657 0.10304 0.0
C406 C 0.61102 0.39436 0.12129 0.0
C407 C 0.63464 0.3715 0.14466 0.0
C408 C 0.62368 0.33937 0.16189 0.0
C409 C 0.59039 0.33028 0.15702 0.0
C410 C 0.56729 0.35269 0.13474 0.0
C411 C 0.57731 0.38436 0.11698 0.0
H412 H 0.80036 0.34442 0.40413 0.0
C413 C 0.8055 0.33858 0.35838 0.0
H414 H 0.83667 0.34736 0.28506 0.0
H415 H 0.87521 0.48306 0.43189 0.0
H416 H 0.81904 0.50135 0.41017 0.0
H417 H 0.77869 0.4632 0.36428 0.0
H418 H 0.79412 0.40632 0.34059 0.0
C419 C 0.83087 0.3538 0.33031 0.0
C420 C 0.8544 0.37681 0.36038 0.0
C421 C 0.84522 0.41018 0.37285 0.0
C422 C 0.86883 0.4325 0.39787 0.0
C423 C 0.8586 0.46533 0.4116 0.0
C424 C 0.82638 0.47612 0.39955 0.0
C425 C 0.80364 0.45462 0.3738 0.0
C426 C 0.8128 0.42201 0.3605 0.0
H427 H 0.93356 0.47647 0.36665 0.0
C428 C 0.94093 0.46988 0.41112 0.0
H429 H 0.93428 0.43674 0.48246 0.0
H430 H 0.87994 0.31438 0.34293 0.0
H431 H 0.93618 0.29618 0.36385 0.0
H432 H 0.97731 0.33499 0.4054 0.0
H433 H 0.96265 0.39238 0.42588 0.0
C434 C 0.92633 0.44389 0.43855 0.0
C435 C 0.90178 0.42158 0.40928 0.0
C436 C 0.91087 0.38816 0.39687 0.0
C437 C 0.8872 0.36581 0.37243 0.0
C438 C 0.89699 0.33253 0.3609 0.0
C439 C 0.92918 0.3217 0.37281 0.0
C440 C 0.95235 0.34356 0.39622 0.0
C441 C 0.94351 0.37642 0.40804 0.0
H442 H 0.86167 0.69613 0.75491 0.0
C443 C 0.837 0.69345 0.73606 0.0
H444 H 0.80558 0.6649 0.68242 0.0
H445 H 0.91081 0.59537 0.52102 0.0
H446 H 0.87535 0.62392 0.45144 0.0
H447 H 0.83191 0.6628 0.48531 0.0
H448 H 0.8232 0.6728 0.58891 0.0
C449 C 0.83047 0.66762 0.70034 0.0
C450 C 0.85701 0.64381 0.6806 0.0
C451 C 0.8625 0.63899 0.61953 0.0
C452 C 0.88854 0.61763 0.59987 0.0
C453 C 0.89231 0.61221 0.5386 0.0
C454 C 0.87197 0.6283 0.49801 0.0
C455 C 0.84745 0.6501 0.51708 0.0
C456 C 0.84266 0.6555 0.57694 0.0
H457 H 0.93027 0.53764 0.66313 0.0
C458 C 0.94531 0.55063 0.63068 0.0
H459 H 0.95511 0.59543 0.58596 0.0
H460 H 0.84829 0.6397 0.80007 0.0
H461 H 0.88598 0.61421 0.87004 0.0
H462 H 0.93674 0.58539 0.83638 0.0
H463 H 0.94928 0.58063 0.73263 0.0
C464 C 0.93955 0.58302 0.61844 0.0
C465 C 0.91026 0.60224 0.64104 0.0
C466 C 0.9048 0.60703 0.70216 0.0
C467 C 0.87714 0.62635 0.72184 0.0
C468 C 0.87024 0.62756 0.78287 0.0
C469 C 0.89148 0.6127 0.82352 0.0
C470 C 0.91993 0.59628 0.80454 0.0
C471 C 0.92666 0.59344 0.74468 0.0
H472 H 0.41794 0.462 0.06127 0.0
C473 C 0.43908 0.44908 0.0421 0.0
H474 H 0.46458 0.40355 0.03407 0.0
H475 H 0.35145 0.38747 0.25283 0.0
H476 H 0.37994 0.43312 0.30037 0.0
H477 H 0.42785 0.4605 0.25278 0.0
H478 H 0.44669 0.4432 0.15639 0.0
C479 C 0.44287 0.4162 0.0518 0.0
C480 C 0.41784 0.39602 0.08581 0.0
C481 C 0.40881 0.40463 0.14441 0.0
C482 C 0.3829 0.38697 0.17408 0.0
C483 C 0.37224 0.39849 0.22981 0.0
C484 C 0.38822 0.4249 0.25747 0.0
C485 C 0.41506 0.44045 0.23053 0.0
C486 C 0.42537 0.43051 0.17479 0.0
H487 H 0.3647 0.32594 0.25358 0.0
C488 C 0.34206 0.32412 0.22781 0.0
H489 H 0.3171 0.33796 0.15018 0.0
H490 H 0.42991 0.37133 0.97561 0.0
H491 H 0.40568 0.32195 0.93248 0.0
H492 H 0.36495 0.28816 0.98753 0.0
H493 H 0.34778 0.30385 0.08568 0.0
C494 C 0.33968 0.34048 0.17599 0.0
C495 C 0.36801 0.35873 0.1474 0.0
C496 C 0.37878 0.34869 0.09057 0.0
C497 C 0.40318 0.36759 0.05948 0.0
C498 C 0.41215 0.35758 1.00187 0.0
C499 C 0.39836 0.32928 0.97641 0.0
C500 C 0.37537 0.31031 0.00733 0.0
C501 C 0.3656 0.31975 0.06364 0.0
H502 H 0.31442 0.67607 0.80735 0.0
C503 C 0.32694 0.69685 0.78608 0.0
H504 H 0.37288 0.72067 0.77121 0.0
H505 H 0.38988 0.6099 0.99299 0.0
H506 H 0.34953 0.64364 0.04487 0.0
H507 H 0.32478 0.69326 0.99802 0.0
H508 H 0.3393 0.70857 0.89817 0.0
C509 C 0.36016 0.69943 0.79059 0.0
C510 C 0.38019 0.67389 0.82334 0.0
C511 C 0.37355 0.6669 0.8836 0.0
C512 C 0.39 0.63997 0.91244 0.0
C513 C 0.38001 0.63139 0.97027 0.0
C514 C 0.35657 0.65038 1.00045 0.0
C515 C 0.34248 0.67818 0.97396 0.0
C516 C 0.35078 0.68647 0.9163 0.0
H517 H 0.45174 0.62101 0.98397 0.0
C518 C 0.45141 0.59717 0.96144 0.0
H519 H 0.43363 0.56994 0.88898 0.0
H520 H 0.40061 0.68183 0.70939 0.0
H521 H 0.4451 0.65189 0.66057 0.0
H522 H 0.47726 0.60884 0.71316 0.0
H523 H 0.46484 0.59507 0.8145 0.0
C524 C 0.43327 0.59362 0.91203 0.0
C525 C 0.41548 0.62203 0.88291 0.0
C526 C 0.42366 0.63055 0.82391 0.0
C527 C 0.40573 0.6561 0.79396 0.0
C528 C 0.41375 0.6631 0.73454 0.0
C529 C 0.43923 0.64608 0.70592 0.0
C530 C 0.45729 0.6218 0.73548 0.0
C531 C 0.44975 0.61403 0.7937 0.0
H532 H 0.16093 0.69828 0.76661 0.0
C533 C 0.18035 0.70527 0.7357 0.0
H534 H 0.20067 0.69804 0.65098 0.0
H535 H 0.14334 0.55647 0.59867 0.0
H536 H 0.20097 0.54306 0.61938 0.0
H537 H 0.23886 0.58538 0.66016 0.0
H538 H 0.2194 0.64138 0.68041 0.0
C539 C 0.18079 0.69173 0.68145 0.0
C540 C 0.15668 0.6657 0.66189 0.0
C541 C 0.1683 0.63292 0.65069 0.0
C542 C 0.14632 0.60836 0.62783 0.0
C543 C 0.15882 0.57598 0.61664 0.0
C544 C 0.19187 0.56795 0.62819 0.0
C545 C 0.21322 0.59179 0.65106 0.0
C546 C 0.20173 0.6239 0.66229 0.0
H547 H 0.08378 0.60907 0.50935 0.0
C548 C 0.07728 0.58929 0.53996 0.0
H549 H 0.08369 0.56991 0.62568 0.0
H550 H 0.12656 0.72655 0.67415 0.0
H551 H 0.06852 0.73939 0.65616 0.0
H552 H 0.02987 0.69611 0.62142 0.0
H553 H 0.04905 0.63977 0.60352 0.0
C554 C 0.0895 0.58993 0.59513 0.0
C555 C 0.11264 0.61646 0.61613 0.0
C556 C 0.10085 0.64912 0.62798 0.0
C557 C 0.12298 0.67388 0.65006 0.0
C558 C 0.11075 0.70656 0.65908 0.0
C559 C 0.0775 0.71433 0.64868 0.0
C560 C 0.05573 0.68997 0.62899 0.0
C561 C 0.06711 0.65772 0.61869 0.0
H562 H 0.16868 0.33687 0.24442 0.0
C563 C 0.1877 0.32917 0.27552 0.0
H564 H 0.20659 0.3343 0.36165 0.0
H565 H 0.14369 0.47262 0.4245 0.0
H566 H 0.20056 0.48915 0.40399 0.0
H567 H 0.24025 0.44968 0.35936 0.0
H568 H 0.22335 0.39341 0.33491 0.0
C569 C 0.18718 0.34133 0.33082 0.0
C570 C 0.16191 0.36592 0.35205 0.0
C571 C 0.17202 0.39882 0.36592 0.0
C572 C 0.149 0.42173 0.39116 0.0
C573 C 0.16001 0.45432 0.40476 0.0
C574 C 0.19261 0.46413 0.39335 0.0
C575 C 0.21497 0.44189 0.3683 0.0
C576 C 0.20496 0.40962 0.35466 0.0
H577 H 0.0878 0.41564 0.51124 0.0
C578 C 0.07989 0.43563 0.48214 0.0
H579 H 0.08434 0.457 0.39748 0.0
H580 H 0.13438 0.30443 0.33368 0.0
H581 H 0.07701 0.28865 0.3507 0.0
H582 H 0.03679 0.32882 0.39119 0.0
H583 H 0.05348 0.38526 0.41478 0.0
C584 C 0.09148 0.43667 0.42644 0.0
C585 C 0.11579 0.41181 0.40281 0.0
C586 C 0.10548 0.37904 0.38818 0.0
C587 C 0.12862 0.35599 0.36341 0.0
C588 C 0.11779 0.32319 0.35113 0.0
C589 C 0.08495 0.31371 0.36103 0.0
C590 C 0.06226 0.33636 0.38381 0.0
C591 C 0.07223 0.36866 0.39732 0.0
loop_
_geom_bond_atom_site_label_1
_geom_bond_atom_site_label_2
_geom_bond_distance
_geom_bond_site_symmetry_2
_ccdc_geom_bond_type
C0 O2 1.247 . S
C0 O4 1.258 . S
C1 O8 1.247 . S
C1 O9 1.258 . S
O2 C0 1.247 . S
O2 Zn3 2.030 1_655 S
Zn3 O2 2.030 1_455 S
Zn3 O7 2.037 1_465 S
Zn3 O9 2.033 1_565 S
Zn3 O10 2.026 . S
O4 C0 1.258 . S
O4 Zn5 2.033 1_665 S
Zn5 O4 2.033 1_445 S
Zn5 O6 2.026 1_455 S
Zn5 O8 2.030 . S
Zn5 O11 2.037 1_545 S
O6 Zn5 2.026 1_655 S
O6 C12 1.247 . S
O7 Zn3 2.037 1_645 S
O7 C12 1.258 . S
O8 C1 1.247 . S
O8 Zn5 2.030 . S
O9 C1 1.258 . S
O9 Zn3 2.033 1_545 S
O10 Zn3 2.026 . S
O10 C13 1.247 . S
O11 Zn5 2.037 1_565 S
O11 C13 1.258 . S
C12 O6 1.247 . S
C12 O7 1.258 . S
C13 O10 1.247 . S
C13 O11 1.258 . S
C14 O16 1.247 . S
C14 O18 1.258 . S
C15 O22 1.247 . S
C15 O23 1.258 . S
O16 C14 1.247 . S
O16 Zn17 2.028 . S
Zn17 O16 2.028 . S
Zn17 O21 2.035 . S
Zn17 O23 2.035 . S
Zn17 O24 2.028 . S
O18 C14 1.258 . S
O18 Zn19 2.035 . S
Zn19 O18 2.035 . S
Zn19 O20 2.028 . S
Zn19 O22 2.028 . S
Zn19 O25 2.035 . S
O20 Zn19 2.028 . S
O20 C26 1.247 . S
O21 Zn17 2.035 . S
O21 C26 1.258 . S
O22 C15 1.247 . S
O22 Zn19 2.028 . S
O23 C15 1.258 . S
O23 Zn17 2.035 . S
O24 Zn17 2.028 . S
O24 C27 1.247 . S
O25 Zn19 2.035 . S
O25 C27 1.258 . S
C26 O20 1.247 . S
C26 O21 1.258 . S
C27 O24 1.247 . S
C27 O25 1.258 . S
C28 O30 1.247 . S
C28 O32 1.258 1_556 S
C29 O36 1.247 . S
C29 O37 1.258 1_554 S
O30 C28 1.247 . S
O30 Zn31 2.028 1_565 S
Zn31 O30 2.028 1_545 S
Zn31 O35 2.035 . S
Zn31 O37 2.035 . S
Zn31 O38 2.028 1_545 S
O32 C28 1.258 1_554 S
O32 Zn33 2.035 . S
Zn33 O32 2.035 . S
Zn33 O34 2.028 1_565 S
Zn33 O36 2.028 1_565 S
Zn33 O39 2.035 . S
O34 Zn33 2.028 1_545 S
O34 C40 1.247 . S
O35 Zn31 2.035 . S
O35 C40 1.258 1_556 S
O36 C29 1.247 . S
O36 Zn33 2.028 1_545 S
O37 C29 1.258 1_556 S
O37 Zn31 2.035 . S
O38 Zn31 2.028 1_565 S
O38 C41 1.247 . S
O39 Zn33 2.035 . S
O39 C41 1.258 1_554 S
C40 O34 1.247 . S
C40 O35 1.258 1_554 S
C41 O38 1.247 . S
C41 O39 1.258 1_556 S
C42 O44 1.247 . S
C42 O46 1.258 . S
C43 O50 1.247 . S
C43 O51 1.258 . S
O44 C42 1.247 . S
O44 Zn45 2.028 . S
Zn45 O44 2.028 . S
Zn45 O49 2.035 . S
Zn45 O51 2.035 . S
Zn45 O52 2.028 . S
O46 C42 1.258 . S
O46 Zn47 2.035 . S
Zn47 O46 2.035 . S
Zn47 O48 2.028 . S
Zn47 O50 2.028 . S
Zn47 O53 2.035 . S
O48 Zn47 2.028 . S
O48 C54 1.247 . S
O49 Zn45 2.035 . S
O49 C54 1.258 . S
O50 C43 1.247 . S
O50 Zn47 2.028 . S
O51 C43 1.258 . S
O51 Zn45 2.035 . S
O52 Zn45 2.028 . S
O52 C55 1.247 . S
O53 Zn47 2.035 . S
O53 C55 1.258 . S
C54 O48 1.247 . S
C54 O49 1.258 . S
C55 O52 1.247 . S
C55 O53 1.258 . S
C56 O58 1.247 . S
C56 O60 1.258 . S
C57 O64 1.247 . S
C57 O65 1.258 . S
O58 C56 1.247 . S
O58 Zn59 2.028 . S
Zn59 O58 2.028 . S
Zn59 O63 2.035 . S
Zn59 O65 2.035 . S
Zn59 O66 2.028 . S
O60 C56 1.258 . S
O60 Zn61 2.035 . S
Zn61 O60 2.035 . S
Zn61 O62 2.028 . S
Zn61 O64 2.028 . S
Zn61 O67 2.035 . S
O62 Zn61 2.028 . S
O62 C68 1.247 . S
O63 Zn59 2.035 . S
O63 C68 1.258 . S
O64 C57 1.247 . S
O64 Zn61 2.028 . S
O65 C57 1.258 . S
O65 Zn59 2.035 . S
O66 Zn59 2.028 . S
O66 C69 1.247 . S
O67 Zn61 2.035 . S
O67 C69 1.258 . S
C68 O62 1.247 . S
C68 O63 1.258 . S
C69 O66 1.247 . S
C69 O67 1.258 . S
C70 O72 1.247 . S
C70 O74 1.258 . S
C71 O78 1.247 . S
C71 O79 1.258 . S
O72 C70 1.247 . S
O72 Zn73 2.028 . S
Zn73 O72 2.028 . S
Zn73 O77 2.035 . S
Zn73 O79 2.035 . S
Zn73 O80 2.028 . S
O74 C70 1.258 . S
O74 Zn75 2.035 . S
Zn75 O74 2.035 . S
Zn75 O76 2.028 . S
Zn75 O78 2.028 . S
Zn75 O81 2.035 . S
O76 Zn75 2.028 . S
O76 C82 1.247 . S
O77 Zn73 2.035 . S
O77 C82 1.258 . S
O78 C71 1.247 . S
O78 Zn75 2.028 . S
O79 C71 1.258 . S
O79 Zn73 2.035 . S
O80 Zn73 2.028 . S
O80 C83 1.247 . S
O81 Zn75 2.035 . S
O81 C83 1.258 . S
C82 O76 1.247 . S
C82 O77 1.258 . S
C83 O80 1.247 . S
C83 O81 1.258 . S
C84 O86 1.247 1_556 S
C84 O88 1.258 . S
C85 O92 1.247 1_554 S
C85 O93 1.258 . S
O86 C84 1.247 1_554 S
O86 Zn87 2.028 . S
Zn87 O86 2.028 . S
Zn87 O91 2.035 . S
Zn87 O93 2.035 . S
Zn87 O94 2.028 . S
O88 C84 1.258 . S
O88 Zn89 2.035 . S
Zn89 O88 2.035 . S
Zn89 O90 2.028 . S
Zn89 O92 2.028 . S
Zn89 O95 2.035 . S
O90 Zn89 2.028 . S
O90 C96 1.247 1_556 S
O91 Zn87 2.035 . S
O91 C96 1.258 . S
O92 C85 1.247 1_556 S
O92 Zn89 2.028 . S
O93 C85 1.258 . S
O93 Zn87 2.035 . S
O94 Zn87 2.028 . S
O94 C97 1.247 1_554 S
O95 Zn89 2.035 . S
O95 C97 1.258 . S
C96 O90 1.247 1_554 S
C96 O91 1.258 . S
C97 O94 1.247 1_556 S
C97 O95 1.258 . S
C98 O100 1.247 . S
C98 O102 1.258 . S
C99 O106 1.247 . S
C99 O107 1.258 . S
O100 C98 1.247 . S
O100 Zn101 2.030 1_655 S
Zn101 O100 2.030 1_455 S
Zn101 O105 2.037 1_455 S
Zn101 O107 2.033 . S
Zn101 O108 2.026 . S
O102 C98 1.258 . S
O102 Zn103 2.033 1_655 S
Zn103 O102 2.033 1_455 S
Zn103 O104 2.026 1_455 S
Zn103 O106 2.030 . S
Zn103 O109 2.037 . S
O104 Zn103 2.026 1_655 S
O104 C110 1.247 . S
O105 Zn101 2.037 1_655 S
O105 C110 1.258 . S
O106 C99 1.247 . S
O106 Zn103 2.030 . S
O107 C99 1.258 . S
O107 Zn101 2.033 . S
O108 Zn101 2.026 . S
O108 C111 1.247 . S
O109 Zn103 2.037 . S
O109 C111 1.258 . S
C110 O104 1.247 . S
C110 O105 1.258 . S
C111 O108 1.247 . S
C111 O109 1.258 . S
H112 C113 0.951 . S
C113 H112 0.951 . S
C113 C119 1.265 . S
H114 C119 0.950 . S
H115 C123 0.949 . S
H116 C124 0.950 . S
H117 C125 0.951 . S
H118 C126 0.951 . S
C119 C113 1.265 . S
C119 H114 0.950 . S
C119 C120 1.478 . S
C120 C119 1.478 . S
C120 C121 1.397 . S
C120 C137 1.394 . S
C121 C120 1.397 . S
C121 C122 1.438 . S
C121 C126 1.429 . S
C122 C121 1.438 . S
C122 C123 1.428 . S
C122 C135 1.394 . S
C123 H115 0.949 . S
C123 C122 1.428 . S
C123 C124 1.345 . S
C124 H116 0.950 . S
C124 C123 1.345 . S
C124 C125 1.424 . S
C125 H117 0.951 . S
C125 C124 1.424 . S
C125 C126 1.347 . S
C126 H118 0.951 . S
C126 C121 1.429 . S
C126 C125 1.347 . S
H127 C128 0.951 . S
C128 H127 0.951 . S
C128 C134 1.265 . S
H129 C134 0.950 . S
H130 C138 0.949 . S
H131 C139 0.950 . S
H132 C140 0.951 . S
H133 C141 0.951 . S
C134 C128 1.265 . S
C134 H129 0.950 . S
C134 C135 1.478 . S
C135 C122 1.394 . S
C135 C134 1.478 . S
C135 C136 1.397 . S
C136 C135 1.397 . S
C136 C137 1.438 . S
C136 C141 1.429 . S
C137 C120 1.394 . S
C137 C136 1.438 . S
C137 C138 1.428 . S
C138 H130 0.949 . S
C138 C137 1.428 . S
C138 C139 1.345 . S
C139 H131 0.950 . S
C139 C138 1.345 . S
C139 C140 1.424 . S
C140 H132 0.951 . S
C140 C139 1.424 . S
C140 C141 1.347 . S
C141 H133 0.951 . S
C141 C136 1.429 . S
C141 C140 1.347 . S
H142 C143 0.951 . S
C143 H142 0.951 . S
C143 C149 1.265 . S
H144 C149 0.950 . S
H145 C153 0.949 . S
H146 C154 0.950 . S
H147 C155 0.951 . S
H148 C156 0.951 . S
C149 C143 1.265 . S
C149 H144 0.950 . S
C149 C150 1.478 . S
C150 C149 1.478 . S
C150 C151 1.397 . S
C150 C167 1.394 . S
C151 C150 1.397 . S
C151 C152 1.438 . S
C151 C156 1.429 . S
C152 C151 1.438 . S
C152 C153 1.428 . S
C152 C165 1.394 . S
C153 H145 0.949 . S
C153 C152 1.428 . S
C153 C154 1.345 . S
C154 H146 0.950 . S
C154 C153 1.345 . S
C154 C155 1.424 . S
C155 H147 0.951 . S
C155 C154 1.424 . S
C155 C156 1.347 . S
C156 H148 0.951 . S
C156 C151 1.429 . S
C156 C155 1.347 . S
H157 C158 0.951 . S
C158 H157 0.951 . S
C158 C164 1.265 . S
H159 C164 0.950 . S
H160 C168 0.949 . S
H161 C169 0.950 . S
H162 C170 0.951 . S
H163 C171 0.951 . S
C164 C158 1.265 . S
C164 H159 0.950 . S
C164 C165 1.478 . S
C165 C152 1.394 . S
C165 C164 1.478 . S
C165 C166 1.397 . S
C166 C165 1.397 . S
C166 C167 1.438 . S
C166 C171 1.429 . S
C167 C150 1.394 . S
C167 C166 1.438 . S
C167 C168 1.428 . S
C168 H160 0.949 . S
C168 C167 1.428 . S
C168 C169 1.345 . S
C169 H161 0.950 . S
C169 C168 1.345 . S
C169 C170 1.424 . S
C170 H162 0.951 . S
C170 C169 1.424 . S
C170 C171 1.347 . S
C171 H163 0.951 . S
C171 C166 1.429 . S
C171 C170 1.347 . S
H172 C173 0.951 . S
C173 H172 0.951 . S
C173 C179 1.265 . S
H174 C179 0.950 . S
H175 C183 0.949 . S
H176 C184 0.950 . S
H177 C185 0.951 . S
H178 C186 0.951 . S
C179 C173 1.265 . S
C179 H174 0.950 . S
C179 C180 1.478 . S
C180 C179 1.478 . S
C180 C181 1.397 . S
C180 C197 1.394 . S
C181 C180 1.397 . S
C181 C182 1.438 . S
C181 C186 1.429 . S
C182 C181 1.438 . S
C182 C183 1.428 . S
C182 C195 1.394 . S
C183 H175 0.949 . S
C183 C182 1.428 . S
C183 C184 1.345 . S
C184 H176 0.950 . S
C184 C183 1.345 . S
C184 C185 1.424 . S
C185 H177 0.951 . S
C185 C184 1.424 . S
C185 C186 1.347 . S
C186 H178 0.951 . S
C186 C181 1.429 . S
C186 C185 1.347 . S
H187 C188 0.951 . S
C188 H187 0.951 . S
C188 C194 1.265 . S
H189 C194 0.950 . S
H190 C198 0.949 1_554 S
H191 C199 0.950 . S
H192 C200 0.951 1_554 S
H193 C201 0.951 . S
C194 C188 1.265 . S
C194 H189 0.950 . S
C194 C195 1.478 . S
C195 C182 1.394 . S
C195 C194 1.478 . S
C195 C196 1.397 . S
C196 C195 1.397 . S
C196 C197 1.438 . S
C196 C201 1.429 . S
C197 C180 1.394 . S
C197 C196 1.438 . S
C197 C198 1.428 . S
C198 H190 0.949 1_556 S
C198 C197 1.428 . S
C198 C199 1.345 1_556 S
C199 H191 0.950 . S
C199 C198 1.345 1_554 S
C199 C200 1.424 1_554 S
C200 H192 0.951 1_556 S
C200 C199 1.424 1_556 S
C200 C201 1.347 . S
C201 H193 0.951 . S
C201 C196 1.429 . S
C201 C200 1.347 . S
H202 C203 0.951 . S
C203 H202 0.951 . S
C203 C209 1.265 . S
H204 C209 0.950 . S
H205 C213 0.949 . S
H206 C214 0.950 . S
H207 C215 0.951 . S
H208 C216 0.951 . S
C209 C203 1.265 . S
C209 H204 0.950 . S
C209 C210 1.478 . S
C210 C209 1.478 . S
C210 C211 1.397 . S
C210 C227 1.394 . S
C211 C210 1.397 . S
C211 C212 1.438 . S
C211 C216 1.429 . S
C212 C211 1.438 . S
C212 C213 1.428 . S
C212 C225 1.394 . S
C213 H205 0.949 . S
C213 C212 1.428 . S
C213 C214 1.345 . S
C214 H206 0.950 . S
C214 C213 1.345 . S
C214 C215 1.424 . S
C215 H207 0.951 . S
C215 C214 1.424 . S
C215 C216 1.347 . S
C216 H208 0.951 . S
C216 C211 1.429 . S
C216 C215 1.347 . S
H217 C218 0.951 . S
C218 H217 0.951 . S
C218 C224 1.265 . S
H219 C224 0.950 . S
H220 C228 0.949 . S
H221 C229 0.950 . S
H222 C230 0.951 . S
H223 C231 0.951 . S
C224 C218 1.265 . S
C224 H219 0.950 . S
C224 C225 1.478 . S
C225 C212 1.394 . S
C225 C224 1.478 . S
C225 C226 1.397 . S
C226 C225 1.397 . S
C226 C227 1.438 . S
C226 C231 1.429 . S
C227 C210 1.394 . S
C227 C226 1.438 . S
C227 C228 1.428 . S
C228 H220 0.949 . S
C228 C227 1.428 . S
C228 C229 1.345 . S
C229 H221 0.950 . S
C229 C228 1.345 . S
C229 C230 1.424 . S
C230 H222 0.951 . S
C230 C229 1.424 . S
C230 C231 1.347 . S
C231 H223 0.951 . S
C231 C226 1.429 . S
C231 C230 1.347 . S
H232 C233 0.951 . S
C233 H232 0.951 . S
C233 C239 1.265 . S
H234 C239 0.950 . S
H235 C243 0.949 . S
H236 C244 0.950 . S
H237 C245 0.951 . S
H238 C246 0.951 . S
C239 C233 1.265 . S
C239 H234 0.950 . S
C239 C240 1.478 . S
C240 C239 1.478 . S
C240 C241 1.397 . S
C240 C257 1.394 . S
C241 C240 1.397 . S
C241 C242 1.438 . S
C241 C246 1.429 . S
C242 C241 1.438 . S
C242 C243 1.428 . S
C242 C255 1.394 . S
C243 H235 0.949 . S
C243 C242 1.428 . S
C243 C244 1.345 . S
C244 H236 0.950 . S
C244 C243 1.345 . S
C244 C245 1.424 . S
C245 H237 0.951 . S
C245 C244 1.424 . S
C245 C246 1.347 . S
C246 H238 0.951 . S
C246 C241 1.429 . S
C246 C245 1.347 . S
H247 C248 0.951 . S
C248 H247 0.951 . S
C248 C254 1.265 . S
H249 C254 0.950 . S
H250 C258 0.949 . S
H251 C259 0.950 . S
H252 C260 0.951 . S
H253 C261 0.951 . S
C254 C248 1.265 . S
C254 H249 0.950 . S
C254 C255 1.478 . S
C255 C242 1.394 . S
C255 C254 1.478 . S
C255 C256 1.397 . S
C256 C255 1.397 . S
C256 C257 1.438 . S
C256 C261 1.429 . S
C257 C240 1.394 . S
C257 C256 1.438 . S
C257 C258 1.428 . S
C258 H250 0.949 . S
C258 C257 1.428 . S
C258 C259 1.345 . S
C259 H251 0.950 . S
C259 C258 1.345 . S
C259 C260 1.424 . S
C260 H252 0.951 . S
C260 C259 1.424 . S
C260 C261 1.347 . S
C261 H253 0.951 . S
C261 C256 1.429 . S
C261 C260 1.347 . S
H262 C263 0.951 . S
C263 H262 0.951 . S
C263 C269 1.265 . S
H264 C269 0.950 . S
H265 C273 0.949 . S
H266 C274 0.950 . S
H267 C275 0.951 . S
H268 C276 0.951 . S
C269 C263 1.265 . S
C269 H264 0.950 . S
C269 C270 1.478 . S
C270 C269 1.478 . S
C270 C271 1.397 . S
C270 C287 1.394 . S
C271 C270 1.397 . S
C271 C272 1.438 . S
C271 C276 1.429 . S
C272 C271 1.438 . S
C272 C273 1.428 . S
C272 C285 1.394 . S
C273 H265 0.949 . S
C273 C272 1.428 . S
C273 C274 1.345 . S
C274 H266 0.950 . S
C274 C273 1.345 . S
C274 C275 1.424 . S
C275 H267 0.951 . S
C275 C274 1.424 . S
C275 C276 1.347 . S
C276 H268 0.951 . S
C276 C271 1.429 . S
C276 C275 1.347 . S
H277 C278 0.951 . S
C278 H277 0.951 . S
C278 C284 1.265 . S
H279 C284 0.950 . S
H280 C288 0.949 . S
H281 C289 0.950 . S
H282 C290 0.951 . S
H283 C291 0.951 . S
C284 C278 1.265 . S
C284 H279 0.950 . S
C284 C285 1.478 . S
C285 C272 1.394 . S
C285 C284 1.478 . S
C285 C286 1.397 . S
C286 C285 1.397 . S
C286 C287 1.438 . S
C286 C291 1.429 . S
C287 C270 1.394 . S
C287 C286 1.438 . S
C287 C288 1.428 . S
C288 H280 0.949 . S
C288 C287 1.428 . S
C288 C289 1.345 . S
C289 H281 0.950 . S
C289 C288 1.345 . S
C289 C290 1.424 . S
C290 H282 0.951 . S
C290 C289 1.424 . S
C290 C291 1.347 . S
C291 H283 0.951 . S
C291 C286 1.429 . S
C291 C290 1.347 . S
H292 C293 0.951 . S
C293 H292 0.951 . S
C293 C299 1.265 . S
H294 C299 0.950 . S
H295 C303 0.949 . S
H296 C304 0.950 . S
H297 C305 0.951 . S
H298 C306 0.951 . S
C299 C293 1.265 . S
C299 H294 0.950 . S
C299 C300 1.478 . S
C300 C299 1.478 . S
C300 C301 1.397 . S
C300 C317 1.394 . S
C301 C300 1.397 . S
C301 C302 1.438 . S
C301 C306 1.429 . S
C302 C301 1.438 . S
C302 C303 1.428 . S
C302 C315 1.394 . S
C303 H295 0.949 . S
C303 C302 1.428 . S
C303 C304 1.345 . S
C304 H296 0.950 . S
C304 C303 1.345 . S
C304 C305 1.424 . S
C305 H297 0.951 . S
C305 C304 1.424 . S
C305 C306 1.347 . S
C306 H298 0.951 . S
C306 C301 1.429 . S
C306 C305 1.347 . S
H307 C308 0.951 . S
C308 H307 0.951 . S
C308 C314 1.265 . S
H309 C314 0.950 . S
H310 C318 0.949 . S
H311 C319 0.950 . S
H312 C320 0.951 1_556 S
H313 C321 0.951 . S
C314 C308 1.265 . S
C314 H309 0.950 . S
C314 C315 1.478 . S
C315 C302 1.394 . S
C315 C314 1.478 . S
C315 C316 1.397 . S
C316 C315 1.397 . S
C316 C317 1.438 . S
C316 C321 1.429 . S
C317 C300 1.394 . S
C317 C316 1.438 . S
C317 C318 1.428 . S
C318 H310 0.949 . S
C318 C317 1.428 . S
C318 C319 1.345 . S
C319 H311 0.950 . S
C319 C318 1.345 . S
C319 C320 1.424 . S
C320 H312 0.951 1_554 S
C320 C319 1.424 . S
C320 C321 1.347 . S
C321 H313 0.951 . S
C321 C316 1.429 . S
C321 C320 1.347 . S
H322 C323 0.951 . S
C323 H322 0.951 . S
C323 C329 1.265 . S
H324 C329 0.950 . S
H325 C333 0.949 . S
H326 C334 0.950 . S
H327 C335 0.951 . S
H328 C336 0.951 . S
C329 C323 1.265 . S
C329 H324 0.950 . S
C329 C330 1.478 . S
C330 C329 1.478 . S
C330 C331 1.397 . S
C330 C347 1.394 . S
C331 C330 1.397 . S
C331 C332 1.438 . S
C331 C336 1.429 . S
C332 C331 1.438 . S
C332 C333 1.428 . S
C332 C345 1.394 . S
C333 H325 0.949 . S
C333 C332 1.428 . S
C333 C334 1.345 . S
C334 H326 0.950 . S
C334 C333 1.345 . S
C334 C335 1.424 . S
C335 H327 0.951 . S
C335 C334 1.424 . S
C335 C336 1.347 . S
C336 H328 0.951 . S
C336 C331 1.429 . S
C336 C335 1.347 . S
H337 C338 0.951 . S
C338 H337 0.951 . S
C338 C344 1.265 . S
H339 C344 0.950 . S
H340 C348 0.949 1_554 S
H341 C349 0.950 . S
H342 C350 0.951 . S
H343 C351 0.951 . S
C344 C338 1.265 . S
C344 H339 0.950 . S
C344 C345 1.478 . S
C345 C332 1.394 . S
C345 C344 1.478 . S
C345 C346 1.397 . S
C346 C345 1.397 . S
C346 C347 1.438 . S
C346 C351 1.429 . S
C347 C330 1.394 . S
C347 C346 1.438 . S
C347 C348 1.428 . S
C348 H340 0.949 1_556 S
C348 C347 1.428 . S
C348 C349 1.345 1_556 S
C349 H341 0.950 . S
C349 C348 1.345 1_554 S
C349 C350 1.424 . S
C350 H342 0.951 . S
C350 C349 1.424 . S
C350 C351 1.347 1_554 S
C351 H343 0.951 . S
C351 C346 1.429 . S
C351 C350 1.347 1_556 S
H352 C353 0.951 . S
C353 H352 0.951 . S
C353 C359 1.265 . S
H354 C359 0.950 . S
H355 C363 0.949 . S
H356 C364 0.950 . S
H357 C365 0.951 . S
H358 C366 0.942 1_554 S
C359 C353 1.265 . S
C359 H354 0.950 . S
C359 C360 1.478 . S
C360 C359 1.478 . S
C360 C361 1.397 . S
C360 C377 1.394 . S
C361 C360 1.397 . S
C361 C362 1.438 . S
C361 C366 1.448 . S
C362 C361 1.438 . S
C362 C363 1.428 . S
C362 C375 1.394 . S
C363 H355 0.949 . S
C363 C362 1.428 . S
C363 C364 1.345 1_556 S
C364 H356 0.950 . S
C364 C363 1.345 1_554 S
C364 C365 1.424 . S
C365 H357 0.951 . S
C365 C364 1.424 . S
C365 C366 1.336 1_554 S
C366 H358 0.942 1_556 S
C366 C361 1.448 . S
C366 C365 1.336 1_556 S
H367 C368 0.951 . S
C368 H367 0.951 . S
C368 C374 1.265 . S
H369 C374 0.950 . S
H370 C378 0.949 . S
H371 C379 0.950 . S
H372 C380 0.951 . S
H373 C381 0.951 . S
C374 C368 1.265 . S
C374 H369 0.950 . S
C374 C375 1.478 . S
C375 C362 1.394 . S
C375 C374 1.478 . S
C375 C376 1.397 . S
C376 C375 1.397 . S
C376 C377 1.438 . S
C376 C381 1.429 . S
C377 C360 1.394 . S
C377 C376 1.438 . S
C377 C378 1.428 . S
C378 H370 0.949 . S
C378 C377 1.428 . S
C378 C379 1.345 . S
C379 H371 0.950 . S
C379 C378 1.345 . S
C379 C380 1.424 . S
C380 H372 0.951 . S
C380 C379 1.424 . S
C380 C381 1.347 . S
C381 H373 0.951 . S
C381 C376 1.429 . S
C381 C380 1.347 . S
H382 C383 0.951 . S
C383 H382 0.951 . S
C383 C389 1.265 . S
H384 C389 0.950 . S
H385 C393 0.949 . S
H386 C394 0.939 1_556 S
H387 C395 0.951 . S
H388 C396 0.951 . S
C389 C383 1.265 . S
C389 H384 0.950 . S
C389 C390 1.478 . S
C390 C389 1.478 . S
C390 C391 1.397 . S
C390 C407 1.394 . S
C391 C390 1.397 . S
C391 C392 1.438 . S
C391 C396 1.429 . S
C392 C391 1.438 . S
C392 C393 1.428 . S
C392 C405 1.394 . S
C393 H385 0.949 . S
C393 C392 1.428 . S
C393 C394 1.350 . S
C394 H386 0.939 1_554 S
C394 C393 1.350 . S
C394 C395 1.429 . S
C395 H387 0.951 . S
C395 C394 1.429 . S
C395 C396 1.347 . S
C396 H388 0.951 . S
C396 C391 1.429 . S
C396 C395 1.347 . S
H397 C398 0.951 . S
C398 H397 0.951 . S
C398 C404 1.265 . S
H399 C404 0.950 . S
H400 C408 0.949 . S
H401 C409 0.950 . S
H402 C410 0.951 . S
H403 C411 0.951 . S
C404 C398 1.265 . S
C404 H399 0.950 . S
C404 C405 1.478 . S
C405 C392 1.394 . S
C405 C404 1.478 . S
C405 C406 1.397 . S
C406 C405 1.397 . S
C406 C407 1.438 . S
C406 C411 1.429 . S
C407 C390 1.394 . S
C407 C406 1.438 . S
C407 C408 1.428 . S
C408 H400 0.949 . S
C408 C407 1.428 . S
C408 C409 1.345 . S
C409 H401 0.950 . S
C409 C408 1.345 . S
C409 C410 1.424 . S
C410 H402 0.951 . S
C410 C409 1.424 . S
C410 C411 1.347 . S
C411 H403 0.951 . S
C411 C406 1.429 . S
C411 C410 1.347 . S
H412 C413 0.951 . S
C413 H412 0.951 . S
C413 C419 1.265 . S
H414 C419 0.950 . S
H415 C423 0.949 . S
H416 C424 0.950 . S
H417 C425 0.951 . S
H418 C426 0.951 . S
C419 C413 1.265 . S
C419 H414 0.950 . S
C419 C420 1.478 . S
C420 C419 1.478 . S
C420 C421 1.397 . S
C420 C437 1.394 . S
C421 C420 1.397 . S
C421 C422 1.438 . S
C421 C426 1.429 . S
C422 C421 1.438 . S
C422 C423 1.428 . S
C422 C435 1.394 . S
C423 H415 0.949 . S
C423 C422 1.428 . S
C423 C424 1.345 . S
C424 H416 0.950 . S
C424 C423 1.345 . S
C424 C425 1.424 . S
C425 H417 0.951 . S
C425 C424 1.424 . S
C425 C426 1.347 . S
C426 H418 0.951 . S
C426 C421 1.429 . S
C426 C425 1.347 . S
H427 C428 0.951 . S
C428 H427 0.951 . S
C428 C434 1.265 . S
H429 C434 0.950 . S
H430 C438 0.949 . S
H431 C439 0.950 . S
H432 C440 0.951 . S
H433 C441 0.951 . S
C434 C428 1.265 . S
C434 H429 0.950 . S
C434 C435 1.478 . S
C435 C422 1.394 . S
C435 C434 1.478 . S
C435 C436 1.397 . S
C436 C435 1.397 . S
C436 C437 1.438 . S
C436 C441 1.429 . S
C437 C420 1.394 . S
C437 C436 1.438 . S
C437 C438 1.428 . S
C438 H430 0.949 . S
C438 C437 1.428 . S
C438 C439 1.345 . S
C439 H431 0.950 . S
C439 C438 1.345 . S
C439 C440 1.424 . S
C440 H432 0.951 . S
C440 C439 1.424 . S
C440 C441 1.347 . S
C441 H433 0.951 . S
C441 C436 1.429 . S
C441 C440 1.347 . S
H442 C443 0.951 . S
C443 H442 0.951 . S
C443 C449 1.265 . S
H444 C449 0.950 . S
H445 C453 0.949 . S
H446 C454 0.950 . S
H447 C455 0.951 . S
H448 C456 0.951 . S
C449 C443 1.265 . S
C449 H444 0.950 . S
C449 C450 1.478 . S
C450 C449 1.478 . S
C450 C451 1.397 . S
C450 C467 1.394 . S
C451 C450 1.397 . S
C451 C452 1.438 . S
C451 C456 1.429 . S
C452 C451 1.438 . S
C452 C453 1.428 . S
C452 C465 1.394 . S
C453 H445 0.949 . S
C453 C452 1.428 . S
C453 C454 1.345 . S
C454 H446 0.950 . S
C454 C453 1.345 . S
C454 C455 1.424 . S
C455 H447 0.951 . S
C455 C454 1.424 . S
C455 C456 1.347 . S
C456 H448 0.951 . S
C456 C451 1.429 . S
C456 C455 1.347 . S
H457 C458 0.951 . S
C458 H457 0.951 . S
C458 C464 1.265 . S
H459 C464 0.950 . S
H460 C468 0.949 . S
H461 C469 0.950 . S
H462 C470 0.951 . S
H463 C471 0.951 . S
C464 C458 1.265 . S
C464 H459 0.950 . S
C464 C465 1.478 . S
C465 C452 1.394 . S
C465 C464 1.478 . S
C465 C466 1.397 . S
C466 C465 1.397 . S
C466 C467 1.438 . S
C466 C471 1.429 . S
C467 C450 1.394 . S
C467 C466 1.438 . S
C467 C468 1.428 . S
C468 H460 0.949 . S
C468 C467 1.428 . S
C468 C469 1.345 . S
C469 H461 0.950 . S
C469 C468 1.345 . S
C469 C470 1.424 . S
C470 H462 0.951 . S
C470 C469 1.424 . S
C470 C471 1.347 . S
C471 H463 0.951 . S
C471 C466 1.429 . S
C471 C470 1.347 . S
H472 C473 0.951 . S
C473 H472 0.951 . S
C473 C479 1.265 . S
H474 C479 0.950 . S
H475 C483 0.949 . S
H476 C484 0.950 . S
H477 C485 0.951 . S
H478 C486 0.951 . S
C479 C473 1.265 . S
C479 H474 0.950 . S
C479 C480 1.478 . S
C480 C479 1.478 . S
C480 C481 1.397 . S
C480 C497 1.394 . S
C481 C480 1.397 . S
C481 C482 1.438 . S
C481 C486 1.429 . S
C482 C481 1.438 . S
C482 C483 1.428 . S
C482 C495 1.394 . S
C483 H475 0.949 . S
C483 C482 1.428 . S
C483 C484 1.345 . S
C484 H476 0.950 . S
C484 C483 1.345 . S
C484 C485 1.424 . S
C485 H477 0.951 . S
C485 C484 1.424 . S
C485 C486 1.347 . S
C486 H478 0.951 . S
C486 C481 1.429 . S
C486 C485 1.347 . S
H487 C488 0.951 . S
C488 H487 0.951 . S
C488 C494 1.265 . S
H489 C494 0.950 . S
H490 C498 0.949 1_556 S
H491 C499 0.950 . S
H492 C500 0.951 1_556 S
H493 C501 0.951 . S
C494 C488 1.265 . S
C494 H489 0.950 . S
C494 C495 1.478 . S
C495 C482 1.394 . S
C495 C494 1.478 . S
C495 C496 1.397 . S
C496 C495 1.397 . S
C496 C497 1.438 . S
C496 C501 1.429 . S
C497 C480 1.394 . S
C497 C496 1.438 . S
C497 C498 1.428 . S
C498 H490 0.949 1_554 S
C498 C497 1.428 . S
C498 C499 1.345 1_554 S
C499 H491 0.950 . S
C499 C498 1.345 1_556 S
C499 C500 1.424 1_556 S
C500 H492 0.951 1_554 S
C500 C499 1.424 1_554 S
C500 C501 1.347 . S
C501 H493 0.951 . S
C501 C496 1.429 . S
C501 C500 1.347 . S
H502 C503 0.951 . S
C503 H502 0.951 . S
C503 C509 1.265 . S
H504 C509 0.950 . S
H505 C513 0.949 . S
H506 C514 0.950 . S
H507 C515 0.951 . S
H508 C516 0.951 . S
C509 C503 1.265 . S
C509 H504 0.950 . S
C509 C510 1.478 . S
C510 C509 1.478 . S
C510 C511 1.397 . S
C510 C527 1.394 . S
C511 C510 1.397 . S
C511 C512 1.438 . S
C511 C516 1.429 . S
C512 C511 1.438 . S
C512 C513 1.428 . S
C512 C525 1.394 . S
C513 H505 0.949 . S
C513 C512 1.428 . S
C513 C514 1.345 . S
C514 H506 0.950 . S
C514 C513 1.345 . S
C514 C515 1.424 . S
C515 H507 0.951 . S
C515 C514 1.424 . S
C515 C516 1.347 . S
C516 H508 0.951 . S
C516 C511 1.429 . S
C516 C515 1.347 . S
H517 C518 0.951 . S
C518 H517 0.951 . S
C518 C524 1.265 . S
H519 C524 0.950 . S
H520 C528 0.949 . S
H521 C529 0.950 . S
H522 C530 0.951 . S
H523 C531 0.951 . S
C524 C518 1.265 . S
C524 H519 0.950 . S
C524 C525 1.478 . S
C525 C512 1.394 . S
C525 C524 1.478 . S
C525 C526 1.397 . S
C526 C525 1.397 . S
C526 C527 1.438 . S
C526 C531 1.429 . S
C527 C510 1.394 . S
C527 C526 1.438 . S
C527 C528 1.428 . S
C528 H520 0.949 . S
C528 C527 1.428 . S
C528 C529 1.345 . S
C529 H521 0.950 . S
C529 C528 1.345 . S
C529 C530 1.424 . S
C530 H522 0.951 . S
C530 C529 1.424 . S
C530 C531 1.347 . S
C531 H523 0.951 . S
C531 C526 1.429 . S
C531 C530 1.347 . S
H532 C533 0.951 . S
C533 H532 0.951 . S
C533 C539 1.265 . S
H534 C539 0.950 . S
H535 C543 0.949 . S
H536 C544 0.950 . S
H537 C545 0.951 . S
H538 C546 0.951 . S
C539 C533 1.265 . S
C539 H534 0.950 . S
C539 C540 1.478 . S
C540 C539 1.478 . S
C540 C541 1.397 . S
C540 C557 1.394 . S
C541 C540 1.397 . S
C541 C542 1.438 . S
C541 C546 1.429 . S
C542 C541 1.438 . S
C542 C543 1.428 . S
C542 C555 1.394 . S
C543 H535 0.949 . S
C543 C542 1.428 . S
C543 C544 1.345 . S
C544 H536 0.950 . S
C544 C543 1.345 . S
C544 C545 1.424 . S
C545 H537 0.951 . S
C545 C544 1.424 . S
C545 C546 1.347 . S
C546 H538 0.951 . S
C546 C541 1.429 . S
C546 C545 1.347 . S
H547 C548 0.951 . S
C548 H547 0.951 . S
C548 C554 1.265 . S
H549 C554 0.950 . S
H550 C558 0.949 . S
H551 C559 0.950 . S
H552 C560 0.951 . S
H553 C561 0.951 . S
C554 C548 1.265 . S
C554 H549 0.950 . S
C554 C555 1.478 . S
C555 C542 1.394 . S
C555 C554 1.478 . S
C555 C556 1.397 . S
C556 C555 1.397 . S
C556 C557 1.438 . S
C556 C561 1.429 . S
C557 C540 1.394 . S
C557 C556 1.438 . S
C557 C558 1.428 . S
C558 H550 0.949 . S
C558 C557 1.428 . S
C558 C559 1.345 . S
C559 H551 0.950 . S
C559 C558 1.345 . S
C559 C560 1.424 . S
C560 H552 0.951 . S
C560 C559 1.424 . S
C560 C561 1.347 . S
C561 H553 0.951 . S
C561 C556 1.429 . S
C561 C560 1.347 . S
H562 C563 0.951 . S
C563 H562 0.951 . S
C563 C569 1.265 . S
H564 C569 0.950 . S
H565 C573 0.949 . S
H566 C574 0.950 . S
H567 C575 0.951 . S
H568 C576 0.951 . S
C569 C563 1.265 . S
C569 H564 0.950 . S
C569 C570 1.478 . S
C570 C569 1.478 . S
C570 C571 1.397 . S
C570 C587 1.394 . S
C571 C570 1.397 . S
C571 C572 1.438 . S
C571 C576 1.429 . S
C572 C571 1.438 . S
C572 C573 1.428 . S
C572 C585 1.394 . S
C573 H565 0.949 . S
C573 C572 1.428 . S
C573 C574 1.345 . S
C574 H566 0.950 . S
C574 C573 1.345 . S
C574 C575 1.424 . S
C575 H567 0.951 . S
C575 C574 1.424 . S
C575 C576 1.347 . S
C576 H568 0.951 . S
C576 C571 1.429 . S
C576 C575 1.347 . S
H577 C578 0.951 . S
C578 H577 0.951 . S
C578 C584 1.265 . S
H579 C584 0.950 . S
H580 C588 0.949 . S
H581 C589 0.950 . S
H582 C590 0.951 . S
H583 C591 0.951 . S
C584 C578 1.265 . S
C584 H579 0.950 . S
C584 C585 1.478 . S
C585 C572 1.394 . S
C585 C584 1.478 . S
C585 C586 1.397 . S
C586 C585 1.397 . S
C586 C587 1.438 . S
C586 C591 1.429 . S
C587 C570 1.394 . S
C587 C586 1.438 . S
C587 C588 1.428 . S
C588 H580 0.949 . S
C588 C587 1.428 . S
C588 C589 1.345 . S
C589 H581 0.950 . S
C589 C588 1.345 . S
C589 C590 1.424 . S
C590 H582 0.951 . S
C590 C589 1.424 . S
C590 C591 1.347 . S
C591 H583 0.951 . S
C591 C586 1.429 . S
C591 C590 1.347 . S
C113 C1 1.494 . S
C128 C54 1.474 . S
C143 C13 1.487 . S
C158 C14 1.493 . S
C173 C28 1.496 . S
C188 C26 1.484 . S
C203 C42 1.490 . S
C218 C40 1.487 . S
C233 C0 1.496 . S
C248 C83 1.487 . S
C263 C12 1.495 . S
C278 C57 1.479 . S
C293 C69 1.494 . S
C308 C29 1.477 . S
C323 C41 1.480 . S
C338 C71 1.498 . S
C353 C97 1.482 . S
C368 C82 1.497 . S
C383 C56 1.496 . S
C398 C85 1.481 . S
C413 C68 1.496 . S
C428 C98 1.484 . S
C443 C70 1.495 . S
C458 C110 1.483 . S
C473 C96 1.481 . S
C488 C55 1.495 . S
C503 C15 1.483 . S
C518 C84 1.497 . S
C533 C27 1.480 . S
C548 C99 1.491 . S
C563 C43 1.493 . S
C578 C111 1.478 . S
