# Generated by pormake.
# Topology wkj, (6)-cn, num edge types: 1
# Building blocks:
#     Node 0, Type 0, BuildingBlock: PAMTUU_clean_sbu_0, # of connection points: 6
#     Node 1, Type 0, BuildingBlock: PAMTUU_clean_sbu_0, # of connection points: 6
#     Node 2, Type 0, BuildingBlock: PAMTUU_clean_sbu_0, # of connection points: 6
#     Node 3, Type 0, BuildingBlock: PAMTUU_clean_sbu_0, # of connection points: 6
#     Node 4, Type 0, BuildingBlock: PAMTUU_clean_sbu_0, # of connection points: 6
#     Node 5, Type 0, BuildingBlock: PAMTUU_clean_sbu_0, # of connection points: 6
#     Node 6, Type 0, BuildingBlock: PAMTUU_clean_sbu_0, # of connection points: 6
#     Node 7, Type 0, BuildingBlock: PAMTUU_clean_sbu_0, # of connection points: 6
#     Node 8, Type 0, BuildingBlock: PAMTUU_clean_sbu_0, # of connection points: 6
#     Node 9, Type 0, BuildingBlock: PAMTUU_clean_sbu_0, # of connection points: 6
#     Node 10, Type 0, BuildingBlock: PAMTUU_clean_sbu_0, # of connection points: 6
#     Node 11, Type 0, BuildingBlock: PAMTUU_clean_sbu_0, # of connection points: 6
#     Edge 12, Type (0, 0), BuildingBlock: TEMPAE_clean_linker_10, # of connection points: 2
#     Edge 13, Type (0, 0), BuildingBlock: TEMPAE_clean_linker_10, # of connection points: 2
#     Edge 14, Type (0, 0), BuildingBlock: TEMPAE_clean_linker_10, # of connection points: 2
#     Edge 15, Type (0, 0), BuildingBlock: TEMPAE_clean_linker_10, # of connection points: 2
#     Edge 16, Type (0, 0), BuildingBlock: TEMPAE_clean_linker_10, # of connection points: 2
#     Edge 17, Type (0, 0), BuildingBlock: TEMPAE_clean_linker_10, # of connection points: 2
#     Edge 18, Type (0, 0), BuildingBlock: TEMPAE_clean_linker_10, # of connection points: 2
#     Edge 19, Type (0, 0), BuildingBlock: TEMPAE_clean_linker_10, # of connection points: 2
#     Edge 20, Type (0, 0), BuildingBlock: TEMPAE_clean_linker_10, # of connection points: 2
#     Edge 21, Type (0, 0), BuildingBlock: TEMPAE_clean_linker_10, # of connection points: 2
#     Edge 22, Type (0, 0), BuildingBlock: TEMPAE_clean_linker_10, # of connection points: 2
#     Edge 23, Type (0, 0), BuildingBlock: TEMPAE_clean_linker_10, # of connection points: 2
#     Edge 24, Type (0, 0), BuildingBlock: TEMPAE_clean_linker_10, # of connection points: 2
#     Edge 25, Type (0, 0), BuildingBlock: TEMPAE_clean_linker_10, # of connection points: 2
#     Edge 26, Type (0, 0), BuildingBlock: TEMPAE_clean_linker_10, # of connection points: 2
#     Edge 27, Type (0, 0), BuildingBlock: TEMPAE_clean_linker_10, # of connection points: 2
#     Edge 28, Type (0, 0), BuildingBlock: TEMPAE_clean_linker_10, # of connection points: 2
#     Edge 29, Type (0, 0), BuildingBlock: TEMPAE_clean_linker_10, # of connection points: 2
#     Edge 30, Type (0, 0), BuildingBlock: TEMPAE_clean_linker_10, # of connection points: 2
#     Edge 31, Type (0, 0), BuildingBlock: TEMPAE_clean_linker_10, # of connection points: 2
#     Edge 32, Type (0, 0), BuildingBlock: TEMPAE_clean_linker_10, # of connection points: 2
#     Edge 33, Type (0, 0), BuildingBlock: TEMPAE_clean_linker_10, # of connection points: 2
#     Edge 34, Type (0, 0), BuildingBlock: TEMPAE_clean_linker_10, # of connection points: 2
#     Edge 35, Type (0, 0), BuildingBlock: TEMPAE_clean_linker_10, # of connection points: 2
#     Edge 36, Type (0, 0), BuildingBlock: TEMPAE_clean_linker_10, # of connection points: 2
#     Edge 37, Type (0, 0), BuildingBlock: TEMPAE_clean_linker_10, # of connection points: 2
#     Edge 38, Type (0, 0), BuildingBlock: TEMPAE_clean_linker_10, # of connection points: 2
#     Edge 39, Type (0, 0), BuildingBlock: TEMPAE_clean_linker_10, # of connection points: 2
#     Edge 40, Type (0, 0), BuildingBlock: TEMPAE_clean_linker_10, # of connection points: 2
#     Edge 41, Type (0, 0), BuildingBlock: TEMPAE_clean_linker_10, # of connection points: 2
#     Edge 42, Type (0, 0), BuildingBlock: TEMPAE_clean_linker_10, # of connection points: 2
#     Edge 43, Type (0, 0), BuildingBlock: TEMPAE_clean_linker_10, # of connection points: 2
#     Edge 44, Type (0, 0), BuildingBlock: TEMPAE_clean_linker_10, # of connection points: 2
#     Edge 45, Type (0, 0), BuildingBlock: TEMPAE_clean_linker_10, # of connection points: 2
#     Edge 46, Type (0, 0), BuildingBlock: TEMPAE_clean_linker_10, # of connection points: 2
#     Edge 47, Type (0, 0), BuildingBlock: TEMPAE_clean_linker_10, # of connection points: 2
# Relax obj value: 0.806
# Max RMSD: 0.189
# Mean RMSD: 0.189
data_MOF--net-wkj--node1-PAMTUU_clean_sbu_0--edge1-TEMPAE_clean_linker_10
_symmetry_space_group_name_H-M    P1
_symmetry_Int_Tables_number       1
_symmetry_cell_setting            triclinic
loop_
_symmetry_equiv_pos_as_xyz
'x, y, z'
_cell_length_a     49.771114
_cell_length_b     49.810056
_cell_length_c     30.105153
_cell_angle_alpha  89.798411
_cell_angle_beta   90.080173
_cell_angle_gamma 119.9178
loop_
_atom_site_label
_atom_site_type_symbol
_atom_site_fract_x
_atom_site_fract_y
_atom_site_fract_z
_atom_type_partial_charge
Tb0 Tb 0.52953 0.09697 0.35163 0.0
Tb1 Tb 0.46034 0.08172 0.37307 0.0
C2 C 0.47984 0.03747 0.39903 0.0
C3 C 0.60491 0.12455 0.29643 0.0
C4 C 0.6388 0.16609 0.22776 0.0
C5 C 0.6521 0.16949 0.27003 0.0
C6 C 0.63522 0.1488 0.30417 0.0
C7 C 0.59287 0.11928 0.25328 0.0
C8 C 0.60966 0.1398 0.21928 0.0
C9 C 0.58423 0.10959 0.33436 0.0
O10 O 0.50351 0.0692 0.29079 0.0
O11 O 0.45547 0.06393 0.30206 0.0
O12 O 0.48556 0.13166 0.36457 0.0
O13 O 0.52706 0.1375 0.32469 0.0
O14 O 0.41922 0.05605 0.4089 0.0
O15 O 0.42272 0.08803 0.3573 0.0
O16 O 0.48317 0.09302 0.4423 0.0
O17 O 0.53399 0.1102 0.42366 0.0
O18 O 0.50902 0.05898 0.40021 0.0
O19 O 0.46297 0.04035 0.36885 0.0
C20 C 0.47456 0.05894 0.27643 0.0
O21 O 0.57718 0.12789 0.35587 0.0
O22 O 0.55989 0.08235 0.32781 0.0
C23 C 0.50927 0.14853 0.33873 0.0
C24 C 0.39288 0.08334 0.42022 0.0
C25 C 0.36442 0.09843 0.48863 0.0
C26 C 0.3477 0.08339 0.45004 0.0
C27 C 0.36181 0.07559 0.41624 0.0
C28 C 0.41057 0.10155 0.45589 0.0
C29 C 0.39648 0.10895 0.48989 0.0
C30 C 0.406 0.07007 0.38976 0.0
C31 C 0.51296 0.10487 0.45486 0.0
H32 H 0.67453 0.18931 0.2775 0.0
H33 H 0.64482 0.15322 0.33742 0.0
H34 H 0.56944 0.10092 0.2465 0.0
H35 H 0.59828 0.13659 0.18749 0.0
H36 H 0.32317 0.07554 0.44749 0.0
H37 H 0.34801 0.06199 0.38835 0.0
H38 H 0.43478 0.10811 0.45907 0.0
H39 H 0.41026 0.12032 0.51897 0.0
Tb40 Tb 0.42629 0.52321 0.67965 0.0
Tb41 Tb 0.37146 0.45583 0.70306 0.0
C42 C 0.43509 0.47425 0.7311 0.0
C43 C 0.46806 0.59898 0.6235 0.0
C44 C 0.45537 0.63218 0.55915 0.0
C45 C 0.45518 0.60469 0.54779 0.0
C46 C 0.46122 0.58811 0.57975 0.0
C47 C 0.47089 0.62775 0.634 0.0
C48 C 0.46434 0.64415 0.60213 0.0
C49 C 0.46603 0.57826 0.65982 0.0
O50 O 0.43118 0.4949 0.62481 0.0
O51 O 0.38334 0.4514 0.63085 0.0
O52 O 0.34994 0.48433 0.69974 0.0
O53 O 0.38306 0.51883 0.64987 0.0
O54 O 0.35418 0.41386 0.7373 0.0
O55 O 0.32607 0.42055 0.68863 0.0
O56 O 0.38373 0.47847 0.7721 0.0
O57 O 0.4192 0.52846 0.7523 0.0
O58 O 0.44454 0.50389 0.72877 0.0
O59 O 0.41467 0.45641 0.70228 0.0
C60 C 0.41006 0.46757 0.60835 0.0
O61 O 0.44257 0.57059 0.68616 0.0
O62 O 0.4691 0.55439 0.64992 0.0
C63 C 0.35537 0.50468 0.66864 0.0
C64 C 0.30179 0.39174 0.75334 0.0
C65 C 0.26909 0.37564 0.83404 0.0
C66 C 0.27801 0.40444 0.81393 0.0
C67 C 0.29454 0.41256 0.77401 0.0
C68 C 0.28979 0.36181 0.77044 0.0
C69 C 0.2735 0.35375 0.81044 0.0
C70 C 0.32661 0.4028 0.72023 0.0
C71 C 0.40295 0.50804 0.78405 0.0
H72 H 0.44781 0.59457 0.51511 0.0
H73 H 0.45829 0.56574 0.57094 0.0
H74 H 0.47589 0.63639 0.66775 0.0
H75 H 0.46463 0.66524 0.61167 0.0
H76 H 0.27459 0.42164 0.83091 0.0
H77 H 0.30375 0.43589 0.76126 0.0
H78 H 0.29537 0.34556 0.75499 0.0
H79 H 0.26736 0.33148 0.82493 0.0
Tb80 Tb 0.9065 0.42362 1.02549 0.0
Tb81 Tb 0.9193 0.36839 1.04575 0.0
C82 C 0.96343 0.43115 1.0846 0.0
C83 C 0.88317 0.47038 0.96233 0.0
C84 C 0.84243 0.45897 0.89093 0.0
C85 C 0.84206 0.47596 0.92793 0.0
C86 C 0.86222 0.48146 0.96359 0.0
C87 C 0.88532 0.45579 0.92394 0.0
C88 C 0.86506 0.44993 0.88883 0.0
C89 C 0.89674 0.46688 1.00356 0.0
O90 O 0.9333 0.4243 0.96421 0.0
O91 O 0.94191 0.38398 0.97752 0.0
O92 O 0.87596 0.34478 1.00951 0.0
O93 O 0.86239 0.38219 1.00432 0.0
O94 O 0.94445 0.34522 1.03816 0.0
O95 O 0.90307 0.32547 1.07785 0.0
O96 O 0.90638 0.37996 1.1147 0.0
O97 O 0.89264 0.41632 1.09689 0.0
O98 O 0.94355 0.44064 1.07585 0.0
O99 O 0.96232 0.40806 1.06324 0.0
C100 C 0.94567 0.40728 0.95113 0.0
O101 O 0.87748 0.44281 1.02675 0.0
O102 O 0.9238 0.46877 1.00024 0.0
C103 C 0.85564 0.35312 0.99937 0.0
C104 C 0.94317 0.31701 1.10078 0.0
C105 C 0.97586 0.3065 0.16834 0.0
C106 C 0.95757 0.28278 0.13824 0.0
C107 C 0.94134 0.28807 1.10452 0.0
C108 C 0.9613 0.3406 0.13063 0.0
C109 C 0.97775 0.33551 0.16369 0.0
C110 C 0.9268 0.32305 1.06536 0.0
C111 C 0.89587 0.39905 0.12772 0.0
H112 H 0.8252 0.4836 0.93034 0.0
H113 H 0.86 0.49243 0.99329 0.0
H114 H 0.90088 0.44651 0.92246 0.0
H115 H 0.86576 0.43617 0.86158 0.0
H116 H 0.9555 0.26015 0.1411 0.0
H117 H 0.92734 0.26963 1.0815 0.0
H118 H 0.96281 0.36299 0.12816 0.0
H119 H 0.99214 0.35445 0.18554 0.0
Tb120 Tb 0.46323 0.89143 0.34073 0.0
Tb121 Tb 0.5344 0.91917 0.37161 0.0
C122 C 0.49657 0.95158 0.39394 0.0
C123 C 0.38149 0.83647 0.31099 0.0
C124 C 0.34321 0.77634 0.27676 0.0
C125 C 0.34256 0.80229 0.25873 0.0
C126 C 0.36147 0.8319 0.27569 0.0
C127 C 0.37991 0.81063 0.33244 0.0
C128 C 0.36052 0.78077 0.31594 0.0
C129 C 0.40652 0.86813 0.32038 0.0
O130 O 0.48872 0.92139 0.28137 0.0
O131 O 0.53907 0.94181 0.30456 0.0
O132 O 0.52094 0.87188 0.34982 0.0
O133 O 0.47158 0.85352 0.32324 0.0
O134 O 0.58036 0.95419 0.36277 0.0
O135 O 0.56928 0.915 0.40529 0.0
O136 O 0.5097 0.90696 0.43857 0.0
O137 O 0.45892 0.88259 0.41533 0.0
O138 O 0.48158 0.93962 0.35702 0.0
O139 O 0.51986 0.94785 0.40524 0.0
C140 C 0.51894 0.94013 0.27393 0.0
O141 O 0.41695 0.87405 0.36082 0.0
O142 O 0.42905 0.87939 0.29172 0.0
C143 C 0.49567 0.85001 0.33072 0.0
C144 C 0.61247 0.9631 0.42442 0.0
C145 C 0.65527 0.00482 0.48613 0.0
C146 C 0.65981 0.98166 0.46703 0.0
C147 C 0.63858 0.96101 0.4363 0.0
C148 C 0.60779 0.98613 0.44332 0.0
C149 C 0.62913 0.00695 0.47367 0.0
C150 C 0.59098 0.94191 0.39108 0.0
C151 C 0.47942 0.89224 0.44867 0.0
H152 H 0.32997 0.80073 0.22867 0.0
H153 H 0.36223 0.85155 0.25887 0.0
H154 H 0.39499 0.81362 0.36023 0.0
H155 H 0.36095 0.76159 0.33217 0.0
H156 H 0.67941 0.97908 0.47648 0.0
H157 H 0.6425 0.94335 0.42188 0.0
H158 H 0.58777 0.98815 0.43441 0.0
H159 H 0.62515 0.02476 0.48733 0.0
Tb160 Tb 0.55969 0.45118 0.67256 0.0
Tb161 Tb 0.60481 0.52137 0.69831 0.0
C162 C 0.53667 0.48714 0.72715 0.0
C163 C 0.53337 0.37116 0.64162 0.0
C164 C 0.55919 0.34262 0.59097 0.0
C165 C 0.52696 0.33137 0.58978 0.0
C166 C 0.51428 0.34626 0.61409 0.0
C167 C 0.5637 0.37758 0.6502 0.0
C168 C 0.57662 0.36345 0.62496 0.0
C169 C 0.52508 0.39499 0.65118 0.0
O170 O 0.56173 0.47767 0.60953 0.0
O171 O 0.57961 0.52582 0.63899 0.0
O172 O 0.63076 0.50725 0.65401 0.0
O173 O 0.606 0.45614 0.66945 0.0
O174 O 0.61718 0.56834 0.70057 0.0
O175 O 0.65052 0.55352 0.71512 0.0
O176 O 0.59951 0.49625 0.76505 0.0
O177 O 0.56112 0.44705 0.74707 0.0
O178 O 0.53275 0.47294 0.68921 0.0
O179 O 0.56446 0.50887 0.73837 0.0
C180 C 0.5668 0.50656 0.60505 0.0
O181 O 0.52903 0.40498 0.6918 0.0
O182 O 0.53664 0.41791 0.62306 0.0
C183 C 0.63081 0.48096 0.65519 0.0
C184 C 0.66049 0.60168 0.74511 0.0
C185 C 0.69052 0.65082 0.80542 0.0
C186 C 0.69135 0.62326 0.81155 0.0
C187 C 0.67644 0.59886 0.78168 0.0
C188 C 0.66061 0.6296 0.73806 0.0
C189 C 0.67536 0.65395 0.76811 0.0
C190 C 0.64565 0.57691 0.71204 0.0
C191 C 0.5789 0.46712 0.77807 0.0
H192 H 0.51251 0.31427 0.56541 0.0
H193 H 0.49059 0.34058 0.60768 0.0
H194 H 0.57856 0.39619 0.67235 0.0
H195 H 0.60133 0.37236 0.62789 0.0
H196 H 0.70222 0.61995 0.84066 0.0
H197 H 0.67707 0.57772 0.78764 0.0
H198 H 0.64899 0.63246 0.70949 0.0
H199 H 0.67421 0.67489 0.76291 0.0
Tb200 Tb 0.1079 0.5703 1.01068 0.0
Tb201 Tb 0.0808 0.61425 1.03404 0.0
C202 C 0.04703 0.54571 1.06322 0.0
C203 C 0.16569 0.54727 0.98788 0.0
C204 C 0.22547 0.57207 0.95179 0.0
C205 C 0.20474 0.53972 0.95147 0.0
C206 C 0.17458 0.52759 0.96793 0.0
C207 C 0.18837 0.57776 0.99763 0.0
C208 C 0.21801 0.59018 0.97964 0.0
C209 C 0.13289 0.53877 0.98906 0.0
O210 O 0.08017 0.56773 0.9487 0.0
O211 O 0.05255 0.59017 0.97356 0.0
O212 O 0.12147 0.64077 0.99098 0.0
O213 O 0.14824 0.61742 1.01133 0.0
O214 O 0.04724 0.62784 1.03231 0.0
O215 O 0.09392 0.65914 1.0556 0.0
O216 O 0.09623 0.60571 1.10277 0.0
O217 O 0.11463 0.57297 1.08478 0.0
O218 O 0.05956 0.5409 1.02807 0.0
O219 O 0.05143 0.57334 1.0716 0.0
C220 C 0.05758 0.57452 0.94211 0.0
O221 O 0.12092 0.53728 1.02799 0.0
O222 O 0.12592 0.55438 0.9611 0.0
C223 C 0.14804 0.6417 0.99531 0.0
C224 C 0.05403 0.66664 1.08313 0.0
C225 C 0.03177 0.69009 0.14919 0.0
C226 C 0.05172 0.70984 1.11614 0.0
C227 C 0.06264 0.69809 1.08312 0.0
C228 C 0.03408 0.64684 1.116 0.0
C229 C 0.02296 0.65847 0.14872 0.0
C230 C 0.06626 0.65515 1.04863 0.0
C231 C 0.10785 0.58756 1.11595 0.0
H232 H 0.21027 0.52419 0.9339 0.0
H233 H 0.1576 0.5036 0.96149 0.0
H234 H 0.18225 0.59302 1.0147 0.0
H235 H 0.23316 0.61487 0.9831 0.0
H236 H 0.05902 0.73429 1.11612 0.0
H237 H 0.0781 0.71362 1.05781 0.0
H238 H 0.02744 0.62255 1.11668 0.0
H239 H 0.00828 0.6429 0.17459 0.0
Tb240 Tb 0.87065 0.44506 0.57279 0.0
Tb241 Tb 0.90165 0.51542 0.54721 0.0
C242 C 0.93377 0.47688 0.52492 0.0
C243 C 0.80869 0.36881 0.60776 0.0
C244 C 0.7529 0.35083 0.65304 0.0
C245 C 0.77287 0.33974 0.6666 0.0
C246 C 0.80066 0.34896 0.6443 0.0
C247 C 0.78636 0.37484 0.58905 0.0
C248 C 0.75828 0.36528 0.61108 0.0
C249 C 0.84171 0.38908 0.59779 0.0
O250 O 0.89464 0.47109 0.63677 0.0
O251 O 0.92828 0.51871 0.60848 0.0
O252 O 0.85914 0.50324 0.58568 0.0
O253 O 0.83158 0.45339 0.56542 0.0
O254 O 0.93607 0.56168 0.55454 0.0
O255 O 0.89391 0.54939 0.51804 0.0
O256 O 0.88971 0.49237 0.47854 0.0
O257 O 0.86942 0.4412 0.49799 0.0
O258 O 0.91785 0.45789 0.55719 0.0
O259 O 0.93137 0.50134 0.51559 0.0
C260 C 0.91944 0.49932 0.6425 0.0
O261 O 0.84911 0.39761 0.55671 0.0
O262 O 0.85558 0.4125 0.62457 0.0
C263 C 0.83212 0.47833 0.57971 0.0
C264 C 0.9388 0.59709 0.49942 0.0
C265 C 0.97238 0.6469 0.4408 0.0
C266 C 0.94029 0.63443 0.44609 0.0
C267 C 0.92369 0.60982 0.47529 0.0
C268 C 0.97108 0.61027 0.4954 0.0
C269 C 0.98771 0.63498 0.46637 0.0
C270 C 0.92089 0.57182 0.53105 0.0
C271 C 0.87838 0.46268 0.46621 0.0
H272 H 0.76974 0.32776 0.69784 0.0
H273 H 0.81744 0.3437 0.65887 0.0
H274 H 0.79183 0.38962 0.56008 0.0
H275 H 0.74273 0.37263 0.59787 0.0
H276 H 0.92777 0.64282 0.42632 0.0
H277 H 0.89891 0.60047 0.47862 0.0
H278 H 0.98352 0.60142 0.51437 0.0
H279 H 0.01248 0.64434 0.46312 0.0
Tb280 Tb 0.41945 0.88549 0.89488 0.0
Tb281 Tb 0.37727 0.9142 0.86776 0.0
C282 C 0.44617 0.94557 0.83564 0.0
C283 C 0.44023 0.83213 0.9471 0.0
C284 C 0.41719 0.78616 1.01358 0.0
C285 C 0.44836 0.81018 1.01429 0.0
C286 C 0.45971 0.83315 0.98145 0.0
C287 C 0.41018 0.80636 0.9438 0.0
C288 C 0.39874 0.78361 0.97677 0.0
C289 C 0.44966 0.85942 0.91841 0.0
O290 O 0.41619 0.9075 0.95951 0.0
O291 O 0.40005 0.93953 0.93136 0.0
O292 O 0.34364 0.86939 0.89781 0.0
O293 O 0.37272 0.84587 0.90479 0.0
O294 O 0.36596 0.94867 0.87961 0.0
O295 O 0.33841 0.91107 0.8348 0.0
O296 O 0.38629 0.89925 0.79991 0.0
O297 O 0.41854 0.88066 0.82014 0.0
O298 O 0.45187 0.93089 0.86745 0.0
O299 O 0.41893 0.94315 0.83098 0.0
C300 C 0.41119 0.93121 0.96562 0.0
O301 O 0.43481 0.85413 0.88103 0.0
O302 O 0.45214 0.88387 0.93791 0.0
C303 C 0.34586 0.84476 0.9072 0.0
C304 C 0.34369 0.95992 0.81917 0.0
C305 C 0.34393 0.00429 0.76091 0.0
C306 C 0.31602 0.98127 0.77984 0.0
C307 C 0.31595 0.9593 0.80887 0.0
C308 C 0.37162 0.98285 0.80051 0.0
C309 C 0.37177 0.00498 0.77189 0.0
C310 C 0.34342 0.93744 0.85088 0.0
C311 C 0.40444 0.88755 0.78806 0.0
H312 H 0.46328 0.81244 1.04195 0.0
H313 H 0.48304 0.85264 0.98436 0.0
H314 H 0.39478 0.80475 0.91724 0.0
H315 H 0.37464 0.76557 0.97528 0.0
H316 H 0.29415 0.97979 0.77146 0.0
H317 H 0.29422 0.94177 0.82318 0.0
H318 H 0.39332 0.98377 0.80829 0.0
H319 H 0.39371 0.02261 0.75829 0.0
Tb320 Tb 0.53137 0.42091 0.22684 0.0
Tb321 Tb 0.46392 0.3655 0.20591 0.0
C322 C 0.47895 0.42946 0.18433 0.0
C323 C 0.60629 0.4661 0.28451 0.0
C324 C 0.63919 0.45594 0.35252 0.0
C325 C 0.61341 0.45934 0.36263 0.0
C326 C 0.59702 0.46422 0.32895 0.0
C327 C 0.63384 0.4659 0.27491 0.0
C328 C 0.65004 0.46062 0.30859 0.0
C329 C 0.58529 0.463 0.24773 0.0
O330 O 0.50378 0.42137 0.28628 0.0
O331 O 0.46008 0.3738 0.27956 0.0
O332 O 0.48483 0.33886 0.22745 0.0
O333 O 0.53205 0.37839 0.25042 0.0
O334 O 0.41597 0.34369 0.21789 0.0
O335 O 0.43386 0.328 0.16563 0.0
O336 O 0.48756 0.38152 0.13669 0.0
O337 O 0.53762 0.41772 0.15395 0.0
O338 O 0.50843 0.43812 0.18091 0.0
O339 O 0.46253 0.40739 0.21157 0.0
C340 C 0.47671 0.39978 0.30314 0.0
O341 O 0.57938 0.44044 0.22057 0.0
O342 O 0.5602 0.46402 0.25732 0.0
C343 C 0.51207 0.3484 0.24512 0.0
C344 C 0.38757 0.3284 0.15222 0.0
C345 C 0.3464 0.33475 1.09515 0.0
C346 C 0.33499 0.31402 0.13117 0.0
C347 C 0.35552 0.31082 0.15952 0.0
C348 C 0.39897 0.34948 1.11675 0.0
C349 C 0.37856 0.35254 1.0884 0.0
C350 C 0.40916 0.32624 0.18312 0.0
C351 C 0.5169 0.40123 1.12319 0.0
H352 H 0.60416 0.45547 0.39607 0.0
H353 H 0.57592 0.46429 0.33749 0.0
H354 H 0.64153 0.46749 0.24086 0.0
H355 H 0.66986 0.45824 0.2999 0.0
H356 H 0.31028 0.3 0.13693 0.0
H357 H 0.34643 0.29476 0.18718 0.0
H358 H 0.42366 0.36368 1.11109 0.0
H359 H 0.38791 0.36905 1.06132 0.0
Tb360 Tb 0.1097 0.5329 0.5639 0.0
Tb361 Tb 0.09117 0.46384 0.5384 0.0
C362 C 0.04712 0.48557 0.52422 0.0
C363 C 0.1447 0.60487 0.62698 0.0
C364 C 0.18541 0.63017 0.69971 0.0
C365 C 0.19307 0.6454 0.6584 0.0
C366 C 0.17279 0.63288 0.62234 0.0
C367 C 0.13616 0.59075 0.66894 0.0
C368 C 0.15624 0.60331 0.7049 0.0
C369 C 0.1278 0.58783 0.58699 0.0
O370 O 0.08336 0.50669 0.62602 0.0
O371 O 0.07633 0.45838 0.61122 0.0
O372 O 0.14146 0.48694 0.54355 0.0
O373 O 0.14811 0.52622 0.58878 0.0
O374 O 0.0617 0.42377 0.50284 0.0
O375 O 0.09526 0.42433 0.54943 0.0
O376 O 0.09943 0.48729 0.4697 0.0
O377 O 0.1199 0.53821 0.49014 0.0
O378 O 0.06919 0.51427 0.51952 0.0
O379 O 0.05234 0.4695 0.55298 0.0
C380 C 0.07307 0.47746 0.63924 0.0
O381 O 0.14371 0.57979 0.56142 0.0
O382 O 0.0993 0.56519 0.59238 0.0
C383 C 0.1587 0.50896 0.57149 0.0
C384 C 0.08354 0.39247 0.48646 0.0
C385 C 0.09081 0.35637 0.4209 0.0
C386 C 0.08483 0.34612 0.46531 0.0
C387 C 0.08102 0.36397 0.49776 0.0
C388 C 0.09231 0.4041 0.44329 0.0
C389 C 0.09574 0.3862 0.4108 0.0
C390 C 0.07476 0.40865 0.51891 0.0
C391 C 0.11192 0.51729 0.45781 0.0
H392 H 0.21527 0.66619 0.65347 0.0
H393 H 0.17993 0.644 0.59013 0.0
H394 H 0.11489 0.5689 0.67345 0.0
H395 H 0.14976 0.59062 0.736 0.0
H396 H 0.08142 0.32359 0.47452 0.0
H397 H 0.07471 0.35489 0.53122 0.0
H398 H 0.09478 0.42626 0.434 0.0
H399 H 0.09987 0.39495 0.37707 0.0
Tb400 Tb 0.57441 0.12057 0.90285 0.0
Tb401 Tb 0.62131 0.09737 0.87543 0.0
C402 C 0.55287 0.0561 0.86038 0.0
C403 C 0.54293 0.16687 0.95474 0.0
C404 C 0.55956 0.21141 1.0221 0.0
C405 C 0.54485 0.17951 1.03253 0.0
C406 C 0.53678 0.15751 0.99922 0.0
C407 C 0.55358 0.19807 0.94384 0.0
C408 C 0.56191 0.22022 0.97728 0.0
C409 C 0.54231 0.14559 0.92032 0.0
O410 O 0.57016 0.09128 0.96287 0.0
O411 O 0.60883 0.0803 0.94653 0.0
O412 O 0.64741 0.14817 0.8753 0.0
O413 O 0.62041 0.15419 0.93028 0.0
O414 O 0.63566 0.07006 0.84181 0.0
O415 O 0.66536 0.10362 0.89051 0.0
O416 O 0.60507 0.10249 0.80705 0.0
O417 O 0.57803 0.12672 0.82762 0.0
O418 O 0.54724 0.07895 0.86475 0.0
O419 O 0.57615 0.0571 0.8816 0.0
C420 C 0.58683 0.07804 0.9743 0.0
O421 O 0.56638 0.15759 0.89408 0.0
O422 O 0.53462 0.11739 0.93242 0.0
C423 C 0.64644 0.16487 0.90801 0.0
C424 C 0.68892 0.09561 0.82822 0.0
C425 C 0.72989 0.10536 0.75792 0.0
C426 C 0.73213 0.09201 0.79808 0.0
C427 C 0.71149 0.08685 0.83285 0.0
C428 C 0.68909 0.11231 0.79064 0.0
C429 C 0.70932 0.11707 0.7557 0.0
C430 C 0.66316 0.08424 0.85976 0.0
C431 C 0.58831 0.11564 0.79541 0.0
H432 H 0.54256 0.17148 1.06652 0.0
H433 H 0.52802 0.13356 1.0087 0.0
H434 H 0.55777 0.20571 0.90952 0.0
H435 H 0.57253 0.24443 0.96805 0.0
H436 H 0.74814 0.08336 0.80133 0.0
H437 H 0.71191 0.07434 0.86212 0.0
H438 H 0.67197 0.11956 0.78685 0.0
H439 H 0.70653 0.12724 0.72544 0.0
Tb440 Tb 0.44726 0.57092 0.23031 0.0
Tb441 Tb 0.5191 0.60886 0.20454 0.0
C442 C 0.47685 0.53844 0.17981 0.0
C443 C 0.3701 0.55693 0.26132 0.0
C444 C 0.34365 0.58309 0.31599 0.0
C445 C 0.32866 0.5507 0.30996 0.0
C446 C 0.34232 0.53767 0.2836 0.0
C447 C 0.38164 0.58896 0.26053 0.0
C448 C 0.36848 0.60197 0.2875 0.0
C449 C 0.38942 0.54451 0.24477 0.0
O450 O 0.46887 0.56259 0.29156 0.0
O451 O 0.52021 0.59389 0.27476 0.0
O452 O 0.50772 0.64538 0.21839 0.0
O453 O 0.46054 0.61805 0.25194 0.0
O454 O 0.56319 0.61342 0.21044 0.0
O455 O 0.55723 0.65 0.18179 0.0
O456 O 0.49798 0.59749 0.13546 0.0
O457 O 0.44658 0.57486 0.15489 0.0
O458 O 0.45793 0.53559 0.21187 0.0
O459 O 0.50248 0.56463 0.17201 0.0
C460 C 0.49865 0.57467 0.30298 0.0
O461 O 0.40216 0.55492 0.20628 0.0
O462 O 0.40945 0.54503 0.27307 0.0
C463 C 0.48467 0.64464 0.24062 0.0
C464 C 0.60078 0.64714 0.15965 0.0
C465 C 0.64701 0.66243 1.09561 0.0
C466 C 0.6543 0.67826 0.13621 0.0
C467 C 0.63126 0.67058 0.1681 0.0
C468 C 0.59341 0.63094 1.11956 0.0
C469 C 0.61639 0.63855 1.08771 0.0
C470 C 0.57685 0.64091 0.19238 0.0
C471 C 0.46816 0.58373 1.12315 0.0
H472 H 0.30856 0.53536 0.32966 0.0
H473 H 0.33258 0.51277 0.28353 0.0
H474 H 0.40253 0.6042 0.24225 0.0
H475 H 0.38043 0.62694 0.2899 0.0
H476 H 0.67767 0.69667 0.14309 0.0
H477 H 0.63712 0.68326 0.1991 0.0
H478 H 0.56985 0.61293 1.11261 0.0
H479 H 0.60994 0.6264 1.05629 0.0
C480 C 0.49143 0.18807 0.33451 0.0
C481 C 0.51452 0.1803 0.32524 0.0
C482 C 0.49457 0.21698 0.32246 0.0
C483 C 0.52172 0.23973 0.30062 0.0
C484 C 0.54559 0.23253 0.29204 0.0
C485 C 0.54161 0.20298 0.30383 0.0
C486 C 0.46832 0.22297 0.33267 0.0
C487 C 0.5753 0.25601 0.2699 0.0
C488 C 0.50902 0.29719 0.2302 0.0
C489 C 0.51948 0.32332 0.25782 0.0
C490 C 0.51133 0.27098 0.24259 0.0
C491 C 0.52375 0.26985 0.28455 0.0
C492 C 0.53524 0.29651 0.31224 0.0
C493 C 0.53337 0.32297 0.29842 0.0
C494 C 0.49928 0.24385 0.21119 0.0
C495 C 0.54857 0.2966 0.35726 0.0
H496 H 0.47028 0.17119 0.35088 0.0
H497 H 0.55982 0.19777 0.29645 0.0
H498 H 0.47703 0.24464 0.35207 0.0
H499 H 0.45855 0.22615 0.30124 0.0
H500 H 0.44936 0.20372 0.35173 0.0
H501 H 0.59365 0.24961 0.27287 0.0
H502 H 0.57086 0.25779 0.23419 0.0
H503 H 0.58404 0.27928 0.28464 0.0
H504 H 0.49836 0.297 0.19868 0.0
H505 H 0.54137 0.3427 0.32038 0.0
H506 H 0.47877 0.22359 0.22607 0.0
H507 H 0.51718 0.23714 0.2057 0.0
H508 H 0.49247 0.24903 0.1785 0.0
H509 H 0.55548 0.31831 0.37568 0.0
H510 H 0.56914 0.2937 0.35342 0.0
H511 H 0.53134 0.27681 0.37745 0.0
C512 C 0.3322 0.53269 0.62409 0.0
C513 C 0.32875 0.50958 0.65441 0.0
C514 C 0.30651 0.53615 0.61109 0.0
C515 C 0.27617 0.51564 0.6277 0.0
C516 C 0.27279 0.49266 0.65873 0.0
C517 C 0.29875 0.49004 0.67164 0.0
C518 C 0.31193 0.56158 0.57888 0.0
C519 C 0.24142 0.47025 0.67798 0.0
C520 C 0.20771 0.53205 0.61993 0.0
C521 C 0.19006 0.51301 0.58445 0.0
C522 C 0.23609 0.53405 0.63342 0.0
C523 C 0.2476 0.51663 0.61114 0.0
C524 C 0.23035 0.49821 0.57446 0.0
C525 C 0.2021 0.49655 0.56185 0.0
C526 C 0.25334 0.55427 0.67241 0.0
C527 C 0.24145 0.4796 0.54885 0.0
H528 H 0.35496 0.54814 0.61043 0.0
H529 H 0.29525 0.47202 0.69508 0.0
H530 H 0.33662 0.58019 0.57873 0.0
H531 H 0.30553 0.55173 0.54498 0.0
H532 H 0.2974 0.57202 0.58708 0.0
H533 H 0.24262 0.45447 0.70305 0.0
H534 H 0.23117 0.48315 0.69383 0.0
H535 H 0.22549 0.45603 0.65101 0.0
H536 H 0.19904 0.54498 0.63791 0.0
H537 H 0.18921 0.48188 0.53419 0.0
H538 H 0.27853 0.5681 0.66524 0.0
H539 H 0.25036 0.53944 0.70169 0.0
H540 H 0.24473 0.57031 0.68115 0.0
H541 H 0.26545 0.49498 0.53681 0.0
H542 H 0.22641 0.46755 0.51989 0.0
H543 H 0.24197 0.46201 0.571 0.0
C544 C 0.81775 0.2968 0.98149 0.0
C545 C 0.824 0.32773 0.9834 0.0
C546 C 0.78849 0.27192 0.96886 0.0
C547 C 0.76397 0.27734 0.95718 0.0
C548 C 0.77001 0.30849 0.95841 0.0
C549 C 0.79969 0.33313 0.97157 0.0
C550 C 0.78381 0.23954 0.96838 0.0
C551 C 0.745 0.3158 0.94595 0.0
C552 C 0.69828 0.21207 0.88829 0.0
C553 C 0.67524 0.19509 0.92024 0.0
C554 C 0.72624 0.23947 0.89931 0.0
C555 C 0.73235 0.25023 0.94389 0.0
C556 C 0.70909 0.23328 0.97628 0.0
C557 C 0.68084 0.20645 0.96405 0.0
C558 C 0.74967 0.25659 0.86315 0.0
C559 C 0.71467 0.24278 1.02444 0.0
H560 H 0.83584 0.29172 0.99043 0.0
H561 H 0.80375 0.35661 0.97274 0.0
H562 H 0.76447 0.22431 0.9909 0.0
H563 H 0.77732 0.22967 0.9345 0.0
H564 H 0.8049 0.23891 0.97884 0.0
H565 H 0.75326 0.34102 0.94721 0.0
H566 H 0.73647 0.30732 0.91191 0.0
H567 H 0.72499 0.30358 0.96884 0.0
H568 H 0.69447 0.20386 0.85431 0.0
H569 H 0.66362 0.19359 0.98931 0.0
H570 H 0.77101 0.25539 0.86949 0.0
H571 H 0.75633 0.28143 0.86318 0.0
H572 H 0.74071 0.24688 0.8297 0.0
H573 H 0.73431 0.24045 1.03729 0.0
H574 H 0.69409 0.22847 1.04552 0.0
H575 H 0.72128 0.26749 1.0278 0.0
C576 C 0.5117 0.70374 0.24129 0.0
C577 C 0.48609 0.67489 0.25322 0.0
C578 C 0.51359 0.73224 0.25294 0.0
C579 C 0.48936 0.73255 0.27743 0.0
C580 C 0.46324 0.70356 0.28903 0.0
C581 C 0.46201 0.67536 0.27723 0.0
C582 C 0.5416 0.76217 0.23864 0.0
C583 C 0.43654 0.70238 0.31429 0.0
C584 C 0.50777 0.80653 0.3432 0.0
C585 C 0.49426 0.82012 0.317 0.0
C586 C 0.50592 0.7781 0.3312 0.0
C587 C 0.49126 0.76301 0.29093 0.0
C588 C 0.47821 0.77707 0.26388 0.0
C589 C 0.47931 0.80487 0.27754 0.0
C590 C 0.51942 0.76396 0.36205 0.0
C591 C 0.46376 0.76323 0.21969 0.0
H592 H 0.53053 0.70416 0.22269 0.0
H593 H 0.44205 0.65359 0.28699 0.0
H594 H 0.5342 0.77594 0.21821 0.0
H595 H 0.55373 0.77626 0.26822 0.0
H596 H 0.55825 0.75828 0.21908 0.0
H597 H 0.41659 0.67849 0.31713 0.0
H598 H 0.44443 0.71184 0.34811 0.0
H599 H 0.42846 0.71703 0.29778 0.0
H600 H 0.5192 0.8178 0.37386 0.0
H601 H 0.46906 0.81513 0.25661 0.0
H602 H 0.53766 0.76145 0.34463 0.0
H603 H 0.50108 0.74039 0.37214 0.0
H604 H 0.52962 0.77807 0.3924 0.0
H605 H 0.4823 0.76698 0.19585 0.0
H606 H 0.45059 0.77387 0.20564 0.0
H607 H 0.44812 0.73787 0.22275 0.0
C608 C 0.68545 0.50565 0.62282 0.0
C609 C 0.65921 0.47949 0.64037 0.0
C610 C 0.71258 0.50492 0.6103 0.0
C611 C 0.71455 0.47757 0.61652 0.0
C612 C 0.6875 0.45068 0.63269 0.0
C613 C 0.66059 0.45206 0.6443 0.0
C614 C 0.739 0.53385 0.5902 0.0
C615 C 0.68591 0.41984 0.63852 0.0
C616 C 0.7767 0.46358 0.56039 0.0
C617 C 0.80218 0.47816 0.58937 0.0
C618 C 0.74876 0.46402 0.56803 0.0
C619 C 0.74487 0.47762 0.60726 0.0
C620 C 0.77057 0.49207 0.63693 0.0
C621 C 0.79883 0.49272 0.62718 0.0
C622 C 0.72366 0.4507 0.53326 0.0
C623 C 0.76869 0.50722 0.67923 0.0
H624 H 0.68493 0.52701 0.61873 0.0
H625 H 0.64059 0.43141 0.65712 0.0
H626 H 0.75375 0.54925 0.61719 0.0
H627 H 0.7536 0.52869 0.56797 0.0
H628 H 0.73016 0.54688 0.57087 0.0
H629 H 0.68209 0.41311 0.67414 0.0
H630 H 0.66546 0.4018 0.62032 0.0
H631 H 0.70681 0.41956 0.62677 0.0
H632 H 0.77899 0.45263 0.5307 0.0
H633 H 0.81821 0.50414 0.64991 0.0
H634 H 0.71692 0.46809 0.52373 0.0
H635 H 0.70286 0.4304 0.54712 0.0
H636 H 0.73094 0.44332 0.50297 0.0
H637 H 0.77568 0.53171 0.6722 0.0
H638 H 0.78477 0.50722 0.70486 0.0
H639 H 0.74487 0.49553 0.69316 0.0
C640 C 0.31888 0.788 0.93181 0.0
C641 C 0.31713 0.81463 0.92077 0.0
C642 C 0.2923 0.75957 0.94391 0.0
C643 C 0.26258 0.7571 0.94568 0.0
C644 C 0.2607 0.78399 0.93512 0.0
C645 C 0.28766 0.81207 0.92277 0.0
C646 C 0.29662 0.73249 0.95574 0.0
C647 C 0.23003 0.7832 0.93732 0.0
C648 C 0.18667 0.67785 0.93793 0.0
C649 C 0.17782 0.6705 0.98261 0.0
C650 C 0.21437 0.70523 0.92564 0.0
C651 C 0.23357 0.72675 0.95858 0.0
C652 C 0.2247 0.7192 1.00383 0.0
C653 C 0.1973 0.69125 1.01521 0.0
C654 C 0.22332 0.71097 0.87726 0.0
C655 C 0.24414 0.74081 1.04042 0.0
H656 H 0.3412 0.78924 0.93107 0.0
H657 H 0.28555 0.83216 0.91469 0.0
H658 H 0.30132 0.73311 0.99187 0.0
H659 H 0.27575 0.70994 0.94815 0.0
H660 H 0.31679 0.73384 0.9379 0.0
H661 H 0.23226 0.80602 0.92934 0.0
H662 H 0.21343 0.76577 0.91367 0.0
H663 H 0.21997 0.77606 0.97109 0.0
H664 H 0.17197 0.66198 0.91246 0.0
H665 H 0.19078 0.68586 1.04982 0.0
H666 H 0.24672 0.71378 0.87271 0.0
H667 H 0.22454 0.7328 0.86611 0.0
H668 H 0.20668 0.69177 0.8557 0.0
H669 H 0.26744 0.74299 1.04043 0.0
H670 H 0.23354 0.7326 1.07373 0.0
H671 H 0.24742 0.76427 1.03452 0.0
C672 C 0.61041 0.2549 1.04681 0.0
C673 C 0.57909 0.23411 1.05662 0.0
C674 C 0.63339 0.26093 1.07857 0.0
C675 C 0.62438 0.24487 1.11947 0.0
C676 C 0.59282 0.23071 0.13272 0.0
C677 C 0.57052 0.22695 1.10123 0.0
C678 C 0.66692 0.27981 1.06503 0.0
C679 C 0.58158 0.21357 0.17629 0.0
C680 C 0.64579 0.1857 0.15019 0.0
C681 C 0.65108 0.19221 0.19558 0.0
C682 C 0.641 0.20531 1.1221 0.0
C683 C 0.64368 0.23299 0.13965 0.0
C684 C 0.65679 0.24312 0.18218 0.0
C685 C 0.65964 0.22218 0.2104 0.0
C686 C 0.62792 0.19354 1.07636 0.0
C687 C 0.66381 0.27417 0.20007 0.0
H688 H 0.61757 0.26256 1.01295 0.0
H689 H 0.54615 0.21287 1.10955 0.0
H690 H 0.67153 0.30259 1.05194 0.0
H691 H 0.68305 0.28372 1.09296 0.0
H692 H 0.67168 0.26798 1.03756 0.0
H693 H 0.55789 0.20889 0.18469 0.0
H694 H 0.58095 0.19101 0.17393 0.0
H695 H 0.59735 0.22674 0.20378 0.0
H696 H 0.64089 0.1632 0.13814 0.0
H697 H 0.66504 0.22814 0.24511 0.0
H698 H 0.63905 0.21214 1.05116 0.0
H699 H 0.60272 0.18546 1.07635 0.0
H700 H 0.63106 0.17387 1.0661 0.0
H701 H 0.68486 0.28403 0.22129 0.0
H702 H 0.64433 0.27137 0.22121 0.0
H703 H 0.66739 0.2908 0.17295 0.0
C704 C 0.33956 0.57959 0.39807 0.0
C705 C 0.34138 0.59622 0.35938 0.0
C706 C 0.35461 0.59504 0.43688 0.0
C707 C 0.37075 0.62786 0.43734 0.0
C708 C 0.36623 0.64412 0.40225 0.0
C709 C 0.35133 0.62797 0.36333 0.0
C710 C 0.35817 0.57624 0.47356 0.0
C711 C 0.38021 0.67881 0.40391 0.0
C712 C 0.41629 0.64832 0.54262 0.0
C713 C 0.44109 0.64463 0.52822 0.0
C714 C 0.39496 0.64821 0.51191 0.0
C715 C 0.39842 0.64359 0.46647 0.0
C716 C 0.42622 0.64518 0.45155 0.0
C717 C 0.44736 0.64587 0.48278 0.0
C718 C 0.36674 0.64894 0.52842 0.0
C719 C 0.43158 0.64144 0.40314 0.0
H720 H 0.33096 0.55491 0.39658 0.0
H721 H 0.35093 0.6408 0.33443 0.0
H722 H 0.38026 0.57619 0.46873 0.0
H723 H 0.35898 0.58618 0.50661 0.0
H724 H 0.33893 0.55182 0.47333 0.0
H725 H 0.37594 0.68826 0.37289 0.0
H726 H 0.37012 0.68495 0.43224 0.0
H727 H 0.40558 0.69021 0.40965 0.0
H728 H 0.41165 0.64795 0.57785 0.0
H729 H 0.4671 0.64402 0.47171 0.0
H730 H 0.3459 0.62568 0.525 0.0
H731 H 0.36283 0.66525 0.50799 0.0
H732 H 0.36909 0.65602 0.56381 0.0
H733 H 0.41631 0.61696 0.39312 0.0
H734 H 0.45599 0.64777 0.39645 0.0
H735 H 0.42577 0.65606 0.38208 0.0
C736 C 0.78633 0.43559 0.86938 0.0
C737 C 0.81742 0.44706 0.85705 0.0
C738 C 0.76208 0.41837 0.83943 0.0
C739 C 0.76915 0.41129 0.79708 0.0
C740 C 0.80064 0.4243 0.78381 0.0
C741 C 0.82419 0.44295 0.81338 0.0
C742 C 0.72924 0.40702 0.85447 0.0
C743 C 0.80988 0.41734 0.73924 0.0
C744 C 0.72878 0.34096 0.72869 0.0
C745 C 0.73485 0.35667 0.68779 0.0
C746 C 0.73521 0.35768 0.76847 0.0
C747 C 0.74462 0.38954 0.76635 0.0
C748 C 0.73979 0.40171 0.72679 0.0
C749 C 0.73534 0.38524 0.68721 0.0
C750 C 0.73726 0.34284 0.81114 0.0
C751 C 0.74575 0.43447 0.72521 0.0
H752 H 0.78068 0.43869 0.90303 0.0
H753 H 0.84815 0.45285 0.80303 0.0
H754 H 0.7123 0.39833 0.82677 0.0
H755 H 0.72258 0.38819 0.87925 0.0
H756 H 0.72776 0.42602 0.87141 0.0
H757 H 0.83525 0.42645 0.73663 0.0
H758 H 0.79793 0.39199 0.73362 0.0
H759 H 0.80318 0.42794 0.71212 0.0
H760 H 0.72474 0.31748 0.72963 0.0
H761 H 0.73752 0.39723 0.65626 0.0
H762 H 0.72536 0.34779 0.83828 0.0
H763 H 0.76195 0.3527 0.82076 0.0
H764 H 0.72672 0.31733 0.80797 0.0
H765 H 0.73521 0.43914 0.75453 0.0
H766 H 0.73647 0.43901 0.69451 0.0
H767 H 0.77106 0.45098 0.72611 0.0
C768 C 0.37888 0.73706 1.05323 0.0
C769 C 0.40221 0.76834 1.05457 0.0
C770 C 0.36073 0.72229 1.09097 0.0
C771 C 0.36555 0.73957 0.1304 0.0
C772 C 0.39024 0.77077 0.13229 0.0
C773 C 0.40827 0.78448 1.0946 0.0
C774 C 0.33593 0.68873 1.08735 0.0
C775 C 0.39676 0.79073 0.17315 0.0
C776 C 0.31327 0.74307 0.21201 0.0
C777 C 0.33279 0.748 0.24863 0.0
C778 C 0.31951 0.73379 0.17119 0.0
C779 C 0.34396 0.72715 0.1689 0.0
C780 C 0.35507 0.72122 0.20872 0.0
C781 C 0.35009 0.73258 0.24865 0.0
C782 C 0.30413 0.73671 0.12972 0.0
C783 C 0.37685 0.70846 0.20762 0.0
H784 H 0.37423 0.72434 1.02236 0.0
H785 H 0.42585 0.80878 1.09574 0.0
H786 H 0.32654 0.67778 1.12009 0.0
H787 H 0.31666 0.68694 1.06657 0.0
H788 H 0.3453 0.67544 1.0702 0.0
H789 H 0.41627 0.81471 0.16821 0.0
H790 H 0.37593 0.79218 0.18211 0.0
H791 H 0.40279 0.78057 0.20161 0.0
H792 H 0.2968 0.75127 0.21301 0.0
H793 H 0.36342 0.73324 0.27743 0.0
H794 H 0.29806 0.71691 1.10724 0.0
H795 H 0.32044 0.75828 1.11175 0.0
H796 H 0.28277 0.73761 0.13743 0.0
H797 H 0.36674 0.68723 0.18691 0.0
H798 H 0.38176 0.70293 0.2414 0.0
H799 H 0.39896 0.72555 0.19179 0.0
C800 C 0.65166 0.44945 0.43071 0.0
C801 C 0.64982 0.44128 0.38588 0.0
C802 C 0.64706 0.42791 0.46409 0.0
C803 C 0.64024 0.39771 0.45176 0.0
C804 C 0.6456 0.39214 0.40761 0.0
C805 C 0.65001 0.414 0.3747 0.0
C806 C 0.64381 0.43569 0.5115 0.0
C807 C 0.64127 0.36114 0.39411 0.0
C808 C 0.60573 0.34637 0.55182 0.0
C809 C 0.57572 0.3424 0.54984 0.0
C810 C 0.6268 0.36079 0.51669 0.0
C811 C 0.61744 0.37147 0.47941 0.0
C812 C 0.5857 0.36233 0.47408 0.0
C813 C 0.56521 0.34754 0.50915 0.0
C814 C 0.65926 0.36609 0.52127 0.0
C815 C 0.57403 0.37244 0.43456 0.0
H816 H 0.65285 0.47111 0.43953 0.0
H817 H 0.64949 0.4078 0.3401 0.0
H818 H 0.61909 0.428 0.5183 0.0
H819 H 0.65133 0.4237 0.53531 0.0
H820 H 0.65759 0.46105 0.51748 0.0
H821 H 0.61627 0.34478 0.38834 0.0
H822 H 0.65398 0.36299 0.36291 0.0
H823 H 0.64932 0.35136 0.42077 0.0
H824 H 0.61367 0.34092 0.58228 0.0
H825 H 0.54201 0.34411 0.50632 0.0
H826 H 0.67577 0.38319 0.49709 0.0
H827 H 0.65863 0.34376 0.5157 0.0
H828 H 0.66808 0.37363 0.55548 0.0
H829 H 0.54838 0.35873 0.4316 0.0
H830 H 0.5842 0.37016 0.40311 0.0
H831 H 0.58077 0.39717 0.43844 0.0
C832 C 0.24078 0.57234 0.87248 0.0
C833 C 0.24758 0.58749 0.91381 0.0
C834 C 0.2456 0.58904 0.83301 0.0
C835 C 0.25813 0.62147 0.83523 0.0
C836 C 0.27307 0.6371 0.87459 0.0
C837 C 0.26797 0.6198 0.91383 0.0
C838 C 0.23236 0.57145 0.79035 0.0
C839 C 0.29062 0.67195 0.87643 0.0
C840 C 0.23882 0.64491 0.7262 0.0
C841 C 0.20875 0.6391 0.7357 0.0
C842 C 0.25776 0.64376 0.75994 0.0
C843 C 0.24589 0.63578 0.80363 0.0
C844 C 0.21727 0.63411 0.81418 0.0
C845 C 0.19932 0.63628 0.78006 0.0
C846 C 0.28916 0.64846 0.74747 0.0
C847 C 0.20364 0.62632 0.86049 0.0
H848 H 0.22749 0.54738 0.87052 0.0
H849 H 0.27668 0.63199 0.94491 0.0
H850 H 0.21127 0.57241 0.78098 0.0
H851 H 0.24945 0.58216 0.76315 0.0
H852 H 0.22604 0.54674 0.79331 0.0
H853 H 0.27404 0.68056 0.87995 0.0
H854 H 0.30683 0.68047 0.90508 0.0
H855 H 0.30382 0.6818 0.8452 0.0
H856 H 0.24668 0.64778 0.69205 0.0
H857 H 0.17658 0.63302 0.78764 0.0
H858 H 0.28623 0.62894 0.72638 0.0
H859 H 0.30347 0.65029 0.77682 0.0
H860 H 0.30186 0.66988 0.72721 0.0
H861 H 0.18146 0.62649 0.86293 0.0
H862 H 0.22012 0.64315 0.8848 0.0
H863 H 0.19914 0.60293 0.87032 0.0
C864 C 0.42553 0.98081 1.01474 0.0
C865 C 0.41835 0.94938 1.01172 0.0
C866 C 0.4323 -0.00201 1.05611 0.0
C867 C 0.4323 0.98457 1.09862 0.0
C868 C 0.42316 0.95215 1.09594 0.0
C869 C 0.41729 0.93581 1.05385 0.0
C870 C 0.43923 0.03107 1.05364 0.0
C871 C 0.41859 0.93346 0.13763 0.0
C872 C 0.48375 0.04415 0.19542 0.0
C873 C 0.46312 0.04056 0.23049 0.0
C874 C 0.47411 0.02754 0.15356 0.0
C875 C 0.44256 0.00435 0.14416 0.0
C876 C 0.4214 0.00101 0.17929 0.0
C877 C 0.4316 0.01863 0.22052 0.0
C878 C 0.49917 0.03516 1.12012 0.0
C879 C 0.38725 0.97872 0.17386 0.0
H880 H 0.42625 0.99256 0.98404 0.0
H881 H 0.41103 0.91162 1.05435 0.0
H882 H 0.43156 0.03786 1.08409 0.0
H883 H 0.46459 0.04666 1.04987 0.0
H884 H 0.42779 0.03479 1.02444 0.0
H885 H 0.42714 0.9169 0.13281 0.0
H886 H 0.43028 0.94802 0.16702 0.0
H887 H 0.39339 0.91955 0.14476 0.0
H888 H 0.50815 0.06062 0.20027 0.0
H889 H 0.4144 0.01465 0.24561 0.0
H890 H 0.51199 0.06047 1.1135 0.0
H891 H 0.49116 0.02268 1.08824 0.0
H892 H 0.51539 0.02885 0.13521 0.0
H893 H 0.3733 0.98704 0.19176 0.0
H894 H 0.38167 0.95605 0.18852 0.0
H895 H 0.38018 0.97514 0.13842 0.0
C896 C 0.43413 0.38893 0.36605 0.0
C897 C 0.46501 0.40604 0.3493 0.0
C898 C 0.42391 0.3962 0.40753 0.0
C899 C 0.44435 0.42193 0.43553 0.0
C900 C 0.47566 0.43823 0.41896 0.0
C901 C 0.48507 0.43066 0.37753 0.0
C902 C 0.39069 0.37523 0.42102 0.0
C903 C 0.50075 0.46481 0.44374 0.0
C904 C 0.4043 0.45375 0.52209 0.0
C905 C 0.41735 0.45444 0.56443 0.0
C906 C 0.41211 0.44325 0.48152 0.0
C907 C 0.43368 0.43177 0.48065 0.0
C908 C 0.44565 0.43102 0.52416 0.0
C909 C 0.43826 0.44278 0.56372 0.0
C910 C 0.39679 0.44521 0.43936 0.0
C911 C 0.46649 0.41738 0.53037 0.0
H912 H 0.41737 0.36958 0.34645 0.0
H913 H 0.50906 0.44462 0.36728 0.0
H914 H 0.38678 0.3768 0.45696 0.0
H915 H 0.37565 0.38153 0.40165 0.0
H916 H 0.38335 0.35077 0.41299 0.0
H917 H 0.51043 0.48519 0.42141 0.0
H918 H 0.49327 0.4707 0.47483 0.0
H919 H 0.51944 0.45955 0.45163 0.0
H920 H 0.38804 0.46218 0.52014 0.0
H921 H 0.44887 0.44228 0.59495 0.0
H922 H 0.37278 0.42528 0.43822 0.0
H923 H 0.40923 0.44496 0.40899 0.0
H924 H 0.39511 0.46663 0.43903 0.0
H925 H 0.46 0.40307 0.56108 0.0
H926 H 0.49075 0.43639 0.53481 0.0
H927 H 0.46553 0.40278 0.502 0.0
C928 C 0.06825 0.47885 0.72732 0.0
C929 C 0.05536 0.46511 0.68555 0.0
C930 C 0.05219 0.4678 0.76963 0.0
C931 C 0.02053 0.44273 0.77283 0.0
C932 C 0.00783 0.42824 0.7307 0.0
C933 C 0.02488 0.43914 0.68911 0.0
C934 C 0.07036 0.48332 0.81102 0.0
C935 C 0.97569 0.40044 0.72904 0.0
C936 C 0.9876 0.40718 0.89525 0.0
C937 C 0.96435 0.41507 0.90515 0.0
C938 C 0.00531 0.41545 0.85388 0.0
C939 C 0.00073 0.43241 0.81853 0.0
C940 C 0.97634 0.43915 0.82791 0.0
C941 C 0.95964 0.43136 0.86985 0.0
C942 C 0.02913 0.40549 0.84848 0.0
C943 C 0.96724 0.45536 0.79414 0.0
H944 H 0.09172 0.4983 0.72734 0.0
H945 H 0.01371 0.42729 0.65864 0.0
H946 H 0.05538 0.47971 0.84024 0.0
H947 H 0.08576 0.47379 0.81891 0.0
H948 H 0.08549 0.50861 0.80542 0.0
H949 H 0.97091 0.38556 0.75888 0.0
H950 H 0.95842 0.40833 0.72804 0.0
H951 H 0.97231 0.38627 0.69893 0.0
H952 H 0.99253 0.39468 0.92046 0.0
H953 H 0.94214 0.43798 0.87458 0.0
H954 H 0.03195 0.40106 0.81316 0.0
H955 H 0.02284 0.38425 0.86814 0.0
H956 H 0.05178 0.42414 0.86091 0.0
H957 H 0.9799 0.46037 0.76226 0.0
H958 H 0.97189 0.47752 0.80874 0.0
H959 H 0.94198 0.44143 0.7875 0.0
C960 C 0.51151 0.95626 0.19293 0.0
C961 C 0.53093 0.96042 0.22987 0.0
C962 C 0.52206 0.97461 0.1526 0.0
C963 C 0.55336 -0.00032 0.14679 0.0
C964 C 0.57333 0.00345 0.18378 0.0
C965 C 0.56215 0.98449 0.22362 0.0
C966 C 0.49812 0.96677 1.11703 0.0
C967 C 0.60725 0.02747 0.18203 0.0
C968 C 0.57424 0.02789 1.02006 0.0
C969 C 0.57986 0.05878 1.01893 0.0
C970 C 0.56686 0.00941 1.06022 0.0
C971 C 0.56467 0.02104 1.10299 0.0
C972 C 0.57285 0.05323 1.10233 0.0
C973 C 0.57912 0.07077 1.06134 0.0
C974 C 0.56178 0.97705 1.0561 0.0
C975 C 0.57591 0.0704 0.14495 0.0
H976 H 0.48744 0.93818 0.19518 0.0
H977 H 0.5784 0.98884 0.25037 0.0
H978 H 0.5069 0.98066 1.08627 0.0
H979 H 0.48701 0.94179 1.10867 0.0
H980 H 0.48008 0.97097 0.13084 0.0
H981 H 0.62137 0.01861 0.19824 0.0
H982 H 0.61577 0.0346 0.14757 0.0
H983 H 0.61106 0.04819 0.20089 0.0
H984 H 0.57511 0.01761 0.98881 0.0
H985 H 0.58431 0.09462 1.0629 0.0
H986 H 0.53708 0.96085 1.04819 0.0
H987 H 0.5677 0.96916 1.08724 0.0
H988 H 0.57589 0.97563 1.02861 0.0
H989 H 0.56719 0.08687 0.14053 0.0
H990 H 0.60085 0.08437 0.15359 0.0
H991 H 0.56356 0.05484 0.17329 0.0
C992 C 0.56649 0.51402 0.51804 0.0
C993 C 0.55769 0.51793 0.56127 0.0
C994 C 0.55937 0.52549 0.47794 0.0
C995 C 0.54063 0.54025 0.47837 0.0
C996 C 0.5329 0.54537 0.52251 0.0
C997 C 0.54131 0.53451 0.56202 0.0
C998 C 0.57316 0.52189 0.43528 0.0
C999 C 0.51611 0.56322 0.52932 0.0
C1000 C 0.54052 0.58069 0.36233 0.0
C1001 C 0.50899 0.56658 0.34868 0.0
C1002 C 0.55071 0.57351 0.40359 0.0
C1003 C 0.52954 0.55018 0.43407 0.0
C1004 C 0.49744 0.5367 0.42086 0.0
C1005 C 0.488 0.54472 0.37964 0.0
C1006 C 0.58478 0.59229 0.41417 0.0
C1007 C 0.4716 0.51283 0.44899 0.0
H1008 H 0.58009 0.50258 0.51535 0.0
H1009 H 0.5346 0.53898 0.59417 0.0
H1010 H 0.56125 0.52353 0.40516 0.0
H1011 H 0.59786 0.54033 0.43363 0.0
H1012 H 0.57284 0.49943 0.43476 0.0
H1013 H 0.52534 0.5784 0.55893 0.0
H1014 H 0.51796 0.57777 0.50022 0.0
H1015 H 0.49127 0.54668 0.53589 0.0
H1016 H 0.55787 0.59809 0.34064 0.0
H1017 H 0.46352 0.53328 0.3716 0.0
H1018 H 0.59763 0.58417 0.39321 0.0
H1019 H 0.58998 0.5908 0.44963 0.0
H1020 H 0.59371 0.61704 0.40567 0.0
H1021 H 0.45915 0.49131 0.42931 0.0
H1022 H 0.45475 0.52064 0.45654 0.0
H1023 H 0.47921 0.50744 0.48055 0.0
C1024 C 0.04246 0.54996 0.86158 0.0
C1025 C 0.03694 0.56432 0.89832 0.0
C1026 C 0.02373 0.54058 0.82158 0.0
C1027 C 0.99709 0.54443 0.81577 0.0
C1028 C 0.99189 0.55969 0.85255 0.0
C1029 C 0.01109 0.56887 0.89217 0.0
C1030 C 0.03289 0.52536 0.78642 0.0
C1031 C 0.96609 0.56718 0.85078 0.0
C1032 C 0.96912 0.53615 0.68899 0.0
C1033 C 0.93843 0.51045 0.68758 0.0
C1034 C 0.98733 0.54756 0.72917 0.0
C1035 C 0.97588 0.53339 0.77186 0.0
C1036 C 0.94406 0.50841 0.77099 0.0
C1037 C 0.92656 0.49721 0.72995 0.0
C1038 C 0.01917 0.57571 0.72504 0.0
C1039 C 0.92707 0.49329 0.81342 0.0
H1040 H 0.06185 0.54583 0.86379 0.0
H1041 H 0.00561 0.57994 0.91876 0.0
H1042 H 0.01864 0.519 0.75594 0.0
H1043 H 0.05768 0.54045 0.77749 0.0
H1044 H 0.03033 0.50389 0.8009 0.0
H1045 H 0.97333 0.5898 0.86695 0.0
H1046 H 0.95865 0.56807 0.81632 0.0
H1047 H 0.94591 0.54928 0.86965 0.0
H1048 H 0.97941 0.54778 0.65793 0.0
H1049 H 0.90288 0.47819 0.73151 0.0
H1050 H 0.03613 0.56826 0.71645 0.0
H1051 H 0.02673 0.58924 0.7563 0.0
H1052 H 0.01979 0.59119 0.69793 0.0
H1053 H 0.91224 0.4679 0.8088 0.0
H1054 H 0.91137 0.50238 0.8217 0.0
H1055 H 0.94273 0.49756 0.84202 0.0
C1056 C 0.47898 0.02971 0.48225 0.0
C1057 C 0.46406 0.02097 0.44039 0.0
C1058 C 0.46216 0.01342 0.52034 0.0
C1059 C 0.43704 0.98349 0.51335 0.0
C1060 C 0.41743 0.98477 0.48044 0.0
C1061 C 0.4316 0.00052 0.44073 0.0
C1062 C 0.47037 0.0267 0.56611 0.0
C1063 C 0.38327 0.97111 0.48789 0.0
C1064 C 0.44716 0.93801 0.43234 0.0
C1065 C 0.4797 0.95539 0.43119 0.0
C1066 C 0.43104 0.93746 0.47069 0.0
C1067 C 0.44719 0.95976 0.50405 0.0
C1068 C 0.47913 0.96887 0.50845 0.0
C1069 C 0.49548 0.9688 0.47076 0.0
C1070 C 0.39691 0.91475 0.474 0.0
C1071 C 0.49667 0.98086 0.55115 0.0
H1072 H 0.5022 0.04903 0.48557 0.0
H1073 H 0.41752 -0.00198 0.41187 0.0
H1074 H 0.46143 0.00821 0.59176 0.0
H1075 H 0.49575 0.04217 0.56974 0.0
H1076 H 0.45875 0.0404 0.57164 0.0
H1077 H 0.37007 0.95795 0.45823 0.0
H1078 H 0.37536 0.95615 0.51795 0.0
H1079 H 0.37825 0.99028 0.49254 0.0
H1080 H 0.43433 0.92367 0.40449 0.0
H1081 H 0.5204 0.97853 0.47273 0.0
H1082 H 0.38433 0.91922 0.44718 0.0
H1083 H 0.38749 0.91557 0.50707 0.0
H1084 H 0.3928 0.89097 0.46852 0.0
H1085 H 0.51165 0.00637 0.54944 0.0
H1086 H 0.51279 0.97184 0.55571 0.0
H1087 H 0.48067 0.97394 0.57982 0.0
C1088 C 0.41758 0.42785 0.78103 0.0
C1089 C 0.43541 0.46037 0.77454 0.0
C1090 C 0.41919 0.41537 0.8224 0.0
C1091 C 0.44498 0.43432 0.84921 0.0
C1092 C 0.44767 0.46373 0.85301 0.0
C1093 C 0.44796 0.47872 0.81301 0.0
C1094 C 0.39552 0.3831 0.83618 0.0
C1095 C 0.44807 0.47715 0.89751 0.0
C1096 C 0.52156 0.48225 0.80693 0.0
C1097 C 0.51521 0.47005 0.76375 0.0
C1098 C 0.50324 0.46461 0.84266 0.0
C1099 C 0.47523 0.43669 0.83377 0.0
C1100 C 0.4752 0.42108 0.79429 0.0
C1101 C 0.49326 0.4386 0.75837 0.0
C1102 C 0.51295 0.47667 0.88898 0.0
C1103 C 0.45585 0.3865 0.78905 0.0
H1104 H 0.40264 0.41261 0.7553 0.0
H1105 H 0.45589 0.50328 0.81264 0.0
H1106 H 0.3893 0.36686 0.80783 0.0
H1107 H 0.40383 0.37497 0.86469 0.0
H1108 H 0.37407 0.38303 0.84645 0.0
H1109 H 0.42379 0.4667 0.90882 0.0
H1110 H 0.45974 0.47052 0.92302 0.0
H1111 H 0.45858 0.50268 0.8955 0.0
H1112 H 0.54129 0.505 0.81323 0.0
H1113 H 0.49097 0.42717 0.72688 0.0
H1114 H 0.4988 0.45885 0.91417 0.0
H1115 H 0.51143 0.49796 0.89367 0.0
H1116 H 0.53769 0.48366 0.89379 0.0
H1117 H 0.44561 0.37473 0.82101 0.0
H1118 H 0.47052 0.37732 0.77592 0.0
H1119 H 0.43732 0.38084 0.76414 0.0
C1120 C 0.97041 0.45028 0.16314 0.0
C1121 C 0.98075 0.43974 0.12698 0.0
C1122 C 0.98668 0.45647 0.20361 0.0
C1123 C 0.01752 0.46298 0.20116 0.0
C1124 C 0.0182 0.43874 0.17813 0.0
C1125 C 0.0027 0.43025 0.13678 0.0
C1126 C 0.97156 0.45397 0.24737 0.0
C1127 C 0.03343 0.422 0.19793 0.0
C1128 C 0.05865 0.51069 1.10713 0.0
C1129 C 0.04184 0.52624 1.10259 0.0
C1130 C 0.06008 0.49816 0.14799 0.0
C1131 C 0.03894 0.49508 0.18195 0.0
C1132 C 0.02875 0.51724 0.181 0.0
C1133 C 0.02854 0.53099 0.14055 0.0
C1134 C 0.08338 0.48754 0.15366 0.0
C1135 C 0.0163 0.52519 0.22128 0.0
H1136 H 0.94936 0.45146 0.1611 0.0
H1137 H 0.00651 0.41556 1.11428 0.0
H1138 H 0.98825 0.47027 0.27189 0.0
H1139 H 0.95152 0.45769 0.24343 0.0
H1140 H 0.96353 0.43045 0.26065 0.0
H1141 H 0.04162 0.41215 0.1717 0.0
H1142 H 0.05275 0.43725 0.22034 0.0
H1143 H 0.01612 0.40273 0.21875 0.0
H1144 H 0.07255 0.51017 1.07989 0.0
H1145 H 0.01875 0.54615 0.13908 0.0
H1146 H 0.07581 0.46576 0.13498 0.0
H1147 H 0.0869 0.48428 0.18915 0.0
H1148 H 0.10602 0.50496 0.13928 0.0
H1149 H 0.02387 0.55022 0.22109 0.0
H1150 H 0.0243 0.51934 0.25235 0.0
H1151 H 0.99063 0.51309 0.21998 0.0
C1152 C 0.00421 0.43675 0.49383 0.0
C1153 C 0.02674 0.468 0.48672 0.0
C1154 C 0.98646 0.41863 0.45817 0.0
C1155 C 0.98612 0.43393 0.41868 0.0
C1156 C 0.01553 0.45862 0.40767 0.0
C1157 C 0.03385 0.47835 0.44228 0.0
C1158 C 0.96895 0.384 0.46263 0.0
C1159 C 0.02562 0.46437 0.36011 0.0
C1160 C 0.96272 0.4848 0.45498 0.0
C1161 C 0.94358 0.46454 0.4881 0.0
C1162 C 0.96843 0.47303 0.41638 0.0
C1163 C 0.95999 0.44119 0.41548 0.0
C1164 C 0.93281 0.42135 0.43939 0.0
C1165 C 0.92672 0.4326 0.47848 0.0
C1166 C 0.98433 0.49489 0.37833 0.0
C1167 C 0.91162 0.3885 0.42507 0.0
H1168 H 0.00166 0.42599 0.52611 0.0
H1169 H 0.05364 0.50057 0.43447 0.0
H1170 H 0.95887 0.37249 0.43051 0.0
H1171 H 0.98492 0.37601 0.47464 0.0
H1172 H 0.9506 0.37696 0.4882 0.0
H1173 H 0.04027 0.4538 0.35437 0.0
H1174 H 0.00561 0.45272 0.33711 0.0
H1175 H 0.03928 0.48951 0.35268 0.0
H1176 H 0.972 0.50957 0.4581 0.0
H1177 H 0.9078 0.41679 0.49973 0.0
H1178 H 0.98164 0.48218 0.34708 0.0
H1179 H 0.00922 0.51029 0.38611 0.0
H1180 H 0.97441 0.51033 0.37368 0.0
H1181 H 0.92149 0.38179 0.39704 0.0
H1182 H 0.88934 0.3862 0.414 0.0
H1183 H 0.90603 0.37229 0.45344 0.0
C1184 C 0.49151 0.95031 0.79313 0.0
C1185 C 0.46654 0.95597 0.79603 0.0
C1186 C 0.50893 0.95801 0.75385 0.0
C1187 C 0.50648 0.9787 0.72399 0.0
C1188 C 0.47562 0.97138 0.71786 0.0
C1189 C 0.45671 0.96357 0.75598 0.0
C1190 C 0.52881 0.94394 0.74416 0.0
C1191 C 0.46482 0.97515 0.673 0.0
C1192 C 0.52155 0.04175 0.79163 0.0
C1193 C 0.54377 0.03966 0.81764 0.0
C1194 C 0.51642 0.03126 0.74789 0.0
C1195 C 0.52894 0.01258 0.7333 0.0
C1196 C 0.55732 0.01935 0.75319 0.0
C1197 C 0.56292 0.02998 0.79711 0.0
C1198 C 0.49883 0.04133 0.71785 0.0
C1199 C 0.58098 0.01474 0.72862 0.0
H1200 H 0.49593 0.93803 0.81931 0.0
H1201 H 0.43439 0.96233 0.75377 0.0
H1202 H 0.53928 0.95028 0.71053 0.0
H1203 H 0.54709 0.9511 0.76989 0.0
H1204 H 0.51439 0.91831 0.74623 0.0
H1205 H 0.45895 0.95433 0.65335 0.0
H1206 H 0.4442 0.97815 0.67512 0.0
H1207 H 0.48378 0.99437 0.65418 0.0
H1208 H 0.50961 0.05337 0.80418 0.0
H1209 H 0.58295 0.03199 0.81412 0.0
H1210 H 0.47353 0.02641 0.72311 0.0
H1211 H 0.50483 0.04106 0.68253 0.0
H1212 H 0.50448 0.06533 0.72606 0.0
H1213 H 0.58823 0.00075 0.74878 0.0
H1214 H 0.60207 0.03765 0.72348 0.0
H1215 H 0.57237 0.00399 0.69557 0.0
C1216 C 0.43253 0.50552 0.13009 0.0
C1217 C 0.46379 0.51703 0.14224 0.0
C1218 C 0.42062 0.48728 1.09185 0.0
C1219 C 0.43825 0.47543 1.07227 0.0
C1220 C 0.47087 0.49586 1.07406 0.0
C1221 C 0.48346 0.51448 1.11161 0.0
C1222 C 0.38866 0.47812 1.07537 0.0
C1223 C 0.49253 0.49687 1.03864 0.0
C1224 C 0.46727 0.431 1.1036 0.0
C1225 C 0.46132 0.43391 0.14845 0.0
C1226 C 0.44785 0.43142 1.06999 0.0
C1227 C 0.42701 0.44156 1.08152 0.0
C1228 C 0.41352 0.43112 1.12409 0.0
C1229 C 0.43244 0.43104 0.15853 0.0
C1230 C 0.45083 0.42343 1.02282 0.0
C1231 C 0.38 0.42038 0.13321 0.0
H1232 H 0.41787 0.51163 0.14904 0.0
H1233 H 0.50838 0.52748 1.11618 0.0
H1234 H 0.37217 0.47203 1.10344 0.0
H1235 H 0.38952 0.4983 1.05838 0.0
H1236 H 0.38003 0.45872 1.05128 0.0
H1237 H 0.51068 0.52121 1.03197 0.0
H1238 H 0.50479 0.48484 1.05078 0.0
H1239 H 0.48006 0.48628 1.00729 0.0
H1240 H 0.48545 0.42669 1.09484 0.0
H1241 H 0.42389 0.42686 0.19241 0.0
H1242 H 0.47553 0.43312 1.01352 0.0
H1243 H 0.43917 0.43153 0.99922 0.0
H1244 H 0.43972 0.39788 1.02002 0.0
H1245 H 0.37812 0.43772 0.154 0.0
H1246 H 0.3696 0.39847 0.15266 0.0
H1247 H 0.36662 0.41622 1.102 0.0
C1248 C 0.32458 0.03914 0.73238 0.0
C1249 C 0.3438 0.02615 0.72748 0.0
C1250 C 0.32257 0.05769 0.69876 0.0
C1251 C 0.33998 0.06304 0.65935 0.0
C1252 C 0.36053 0.05117 0.65526 0.0
C1253 C 0.36203 0.03281 0.68924 0.0
C1254 C 0.30078 0.07021 0.70505 0.0
C1255 C 0.37996 0.05651 0.61401 0.0
C1256 C 0.32169 0.06782 0.54199 0.0
C1257 C 0.34805 0.09615 0.531 0.0
C1258 C 0.31483 0.05851 0.58638 0.0
C1259 C 0.335 0.07792 0.6199 0.0
C1260 C 0.35702 0.10898 0.60959 0.0
C1261 C 0.36322 0.11792 0.56486 0.0
C1262 C 0.28964 0.02582 0.59646 0.0
C1263 C 0.37749 0.13108 0.64498 0.0
H1264 H 0.31078 0.03448 0.76224 0.0
H1265 H 0.37661 0.02256 0.68491 0.0
H1266 H 0.30777 0.09149 0.68517 0.0
H1267 H 0.27714 0.05239 0.69458 0.0
H1268 H 0.29952 0.07539 0.7406 0.0
H1269 H 0.39575 0.04686 0.61723 0.0
H1270 H 0.36466 0.0455 0.58495 0.0
H1271 H 0.39424 0.08166 0.60694 0.0
H1272 H 0.30897 0.05098 0.51636 0.0
H1273 H 0.38253 0.14057 0.55659 0.0
H1274 H 0.27758 0.0249 0.62785 0.0
H1275 H 0.30016 0.01085 0.60049 0.0
H1276 H 0.2723 0.01619 0.56923 0.0
H1277 H 0.36464 0.12709 0.67666 0.0
H1278 H 0.38687 0.15555 0.63442 0.0
H1279 H 0.39734 0.12729 0.65118 0.0
C1280 C 0.3306 0.33782 1.01801 0.0
C1281 C 0.32517 0.33758 1.06361 0.0
C1282 C 0.31279 0.34312 0.98718 0.0
C1283 C 0.28865 0.34809 1.00233 0.0
C1284 C 0.28207 0.34649 1.04831 0.0
C1285 C 0.30058 0.34134 1.07857 0.0
C1286 C 0.3207 0.34452 0.93838 0.0
C1287 C 0.25661 0.35158 1.06595 0.0
C1288 C 0.28233 0.39503 0.91158 0.0
C1289 C 0.26289 0.37112 0.88255 0.0
C1290 C 0.28718 0.38837 0.95508 0.0
C1291 C 0.27248 0.35715 0.96928 0.0
C1292 C 0.24852 0.33398 0.94325 0.0
C1293 C 0.24387 0.34129 0.89993 0.0
C1294 C 0.31181 0.41401 0.98291 0.0
C1295 C 0.23119 0.30066 0.95834 0.0
H1296 H 0.34925 0.33432 1.00644 0.0
H1297 H 0.29647 0.3413 1.11393 0.0
H1298 H 0.29993 0.32801 0.91926 0.0
H1299 H 0.32847 0.3681 0.92514 0.0
H1300 H 0.33939 0.33895 0.93228 0.0
H1301 H 0.24765 0.33944 1.09819 0.0
H1302 H 0.26605 0.3767 1.07166 0.0
H1303 H 0.23703 0.34356 1.04224 0.0
H1304 H 0.29684 0.41835 0.89901 0.0
H1305 H 0.22785 0.32293 0.87819 0.0
H1306 H 0.33365 0.41318 0.98063 0.0
H1307 H 0.30482 0.41106 1.01834 0.0
H1308 H 0.31653 0.43718 0.97143 0.0
H1309 H 0.24545 0.28972 0.95134 0.0
H1310 H 0.20878 0.28737 0.94051 0.0
H1311 H 0.22671 0.29901 0.99462 0.0
C1312 C 0.99495 0.3154 0.24618 0.0
C1313 C 0.99301 0.30167 0.20495 0.0
C1314 C 0.01478 0.31584 0.27928 0.0
C1315 C 0.03217 0.30073 0.27192 0.0
C1316 C 0.02828 0.28439 0.23183 0.0
C1317 C 0.00904 0.28546 0.19841 0.0
C1318 C 0.01794 0.33378 0.32134 0.0
C1319 C 0.04501 0.26671 0.22299 0.0
C1320 C 0.10029 0.34603 0.34286 0.0
C1321 C 0.08558 0.33451 0.38391 0.0
C1322 C 0.08524 0.33163 0.30327 0.0
C1323 C 0.05569 0.30469 0.30556 0.0
C1324 C 0.04533 0.28881 0.34641 0.0
C1325 C 0.06006 0.30425 0.38564 0.0
C1326 C 0.09827 0.34819 0.25982 0.0
C1327 C 0.01564 0.25816 0.34933 0.0
H1328 H 0.98163 0.32685 0.25213 0.0
H1329 H 0.00751 0.27453 0.16671 0.0
H1330 H 0.00996 0.31789 0.35033 0.0
H1331 H 0.04256 0.35151 0.32697 0.0
H1332 H 0.00418 0.34577 0.3202 0.0
H1333 H 0.02941 0.24466 0.20564 0.0
H1334 H 0.06493 0.28056 0.20055 0.0
H1335 H 0.05372 0.26137 0.25379 0.0
H1336 H 0.12129 0.36842 0.34137 0.0
H1337 H 0.04899 0.29416 0.41706 0.0
H1338 H 0.08537 0.35999 0.24926 0.0
H1339 H 0.09548 0.33144 0.23358 0.0
H1340 H 0.12322 0.36587 0.26266 0.0
H1341 H 0.99576 0.26227 0.35244 0.0
H1342 H 0.01567 0.24479 0.37893 0.0
H1343 H 0.01215 0.24417 0.31899 0.0
C1344 C 0.73918 0.07104 0.70806 0.0
C1345 C 0.74231 0.10026 0.71583 0.0
C1346 C 0.7361 0.05975 0.66476 0.0
C1347 C 0.73575 0.07801 0.62898 0.0
C1348 C 0.74536 0.10957 0.63604 0.0
C1349 C 0.74886 0.12053 0.67972 0.0
C1350 C 0.72781 0.02647 0.6582 0.0
C1351 C 0.74701 0.13032 0.59831 0.0
C1352 C 0.70888 0.03781 0.51735 0.0
C1353 C 0.6767 0.02559 0.52077 0.0
C1354 C 0.7289 0.05608 0.55145 0.0
C1355 C 0.71631 0.06198 0.5898 0.0
C1356 C 0.68392 0.05046 0.5927 0.0
C1357 C 0.6646 0.03232 0.55831 0.0
C1358 C 0.76318 0.06784 0.54684 0.0
C1359 C 0.66933 0.0563 0.6329 0.0
H1360 H 0.73492 0.05525 0.73545 0.0
H1361 H 0.75295 0.14375 0.68546 0.0
H1362 H 0.70225 0.01181 0.65526 0.0
H1363 H 0.73833 0.02384 0.62726 0.0
H1364 H 0.73558 0.01778 0.68666 0.0
H1365 H 0.76203 0.15516 0.60683 0.0
H1366 H 0.75593 0.12518 0.56764 0.0
H1367 H 0.72336 0.12623 0.59121 0.0
H1368 H 0.71843 0.03297 0.48813 0.0
H1369 H 0.63975 0.02254 0.56158 0.0
H1370 H 0.76852 0.05047 0.56114 0.0
H1371 H 0.77733 0.09001 0.56466 0.0
H1372 H 0.77027 0.07115 0.51136 0.0
H1373 H 0.67291 0.04526 0.66268 0.0
H1374 H 0.64402 0.04698 0.62875 0.0
H1375 H 0.68042 0.08151 0.63942 0.0
C1376 C 0.67114 0.64907 1.03391 0.0
C1377 C 0.67032 0.67184 1.05989 0.0
C1378 C 0.68618 0.65655 0.99287 0.0
C1379 C 0.70138 0.68781 0.97814 0.0
C1380 C 0.70465 0.71143 1.00731 0.0
C1381 C 0.68863 0.70313 1.04787 0.0
C1382 C 0.68255 0.63042 0.96336 0.0
C1383 C 0.72253 0.7452 0.99444 0.0
C1384 C 0.72779 0.68185 0.86544 0.0
C1385 C 0.70022 0.6732 0.84222 0.0
C1386 C 0.73145 0.69281 0.90912 0.0
C1387 C 0.70644 0.69367 0.92983 0.0
C1388 C 0.68109 0.69013 0.90391 0.0
C1389 C 0.67842 0.68009 0.86003 0.0
C1390 C 0.76021 0.69952 0.93461 0.0
C1391 C 0.65433 0.69198 0.92424 0.0
H1392 H 0.65796 0.625 1.04418 0.0
H1393 H 0.6886 0.72097 1.06835 0.0
H1394 H 0.66839 0.62865 0.93382 0.0
H1395 H 0.70549 0.63496 0.9514 0.0
H1396 H 0.67112 0.60769 0.98078 0.0
H1397 H 0.73523 0.75951 1.02365 0.0
H1398 H 0.73935 0.74969 0.96731 0.0
H1399 H 0.70615 0.75286 0.98339 0.0
H1400 H 0.7452 0.6775 0.85099 0.0
H1401 H 0.6573 0.67389 0.84182 0.0
H1402 H 0.75715 0.67775 0.94945 0.0
H1403 H 0.76489 0.71627 0.96183 0.0
H1404 H 0.78065 0.70891 0.9122 0.0
H1405 H 0.64129 0.67203 0.94705 0.0
H1406 H 0.638 0.69156 0.89868 0.0
H1407 H 0.66295 0.71348 0.9439 0.0
C1408 C 0.0451 0.72656 0.2126 0.0
C1409 C 0.02246 0.70228 0.18711 0.0
C1410 C 0.03886 0.73046 0.25677 0.0
C1411 C 0.00984 0.70905 0.27531 0.0
C1412 C 0.98539 0.68857 0.24715 0.0
C1413 C 0.99205 0.68548 0.20304 0.0
C1414 C 0.06461 0.75438 0.28512 0.0
C1415 C 0.95355 0.66631 0.26514 0.0
C1416 C 0.00692 0.66278 0.37523 0.0
C1417 C 0.98866 0.66888 0.40415 0.0
C1418 C 0.0166 0.67815 0.33456 0.0
C1419 C 0.008 0.70044 0.32275 0.0
C1420 C 0.99265 0.70926 0.35397 0.0
C1421 C 0.98277 0.69303 0.39432 0.0
C1422 C 0.03328 0.66806 0.30255 0.0
C1423 C 0.98455 0.73406 0.34394 0.0
H1424 H 0.06852 0.74022 0.19991 0.0
H1425 H 0.97428 0.66753 0.18252 0.0
H1426 H 0.05527 0.76268 0.31191 0.0
H1427 H 0.07744 0.74396 0.30089 0.0
H1428 H 0.0813 0.77446 0.26476 0.0
H1429 H 0.93629 0.65497 0.23815 0.0
H1430 H 0.95459 0.648 0.28496 0.0
H1431 H 0.94541 0.6785 0.28732 0.0
H1432 H 0.01146 0.6441 0.38264 0.0
H1433 H 0.96922 0.69827 0.4172 0.0
H1434 H 0.05499 0.68838 0.29065 0.0
H1435 H 0.01842 0.65681 0.27316 0.0
H1436 H 0.0393 0.65141 0.31786 0.0
H1437 H -0.00073 0.75004 0.31725 0.0
H1438 H 0.98705 0.74775 0.37428 0.0
H1439 H 0.95995 0.72303 0.33345 0.0
C1440 C 0.50387 0.10319 0.54271 0.0
C1441 C 0.52375 0.10941 0.50551 0.0
C1442 C 0.5139 0.10505 0.58866 0.0
C1443 C 0.54536 0.11379 0.60054 0.0
C1444 C 0.56569 0.12144 0.56289 0.0
C1445 C 0.55485 0.11874 0.51757 0.0
C1446 C 0.49 0.09711 0.62459 0.0
C1447 C 0.59983 0.13328 0.56929 0.0
C1448 C 0.56756 0.13583 0.72943 0.0
C1449 C 0.57867 0.11618 0.7451 0.0
C1450 C 0.55802 0.13615 0.68391 0.0
C1451 C 0.55681 0.11467 0.65085 0.0
C1452 C 0.56774 0.09447 0.66688 0.0
C1453 C 0.57909 0.0962 0.71184 0.0
C1454 C 0.55044 0.16101 0.67201 0.0
C1455 C 0.56731 0.07002 0.63702 0.0
H1456 H 0.47984 0.09609 0.53604 0.0
H1457 H 0.57146 0.12412 0.491 0.0
H1458 H 0.4935 0.08455 0.65243 0.0
H1459 H 0.49193 0.11874 0.6377 0.0
H1460 H 0.466 0.08297 0.61182 0.0
H1461 H 0.61358 0.15249 0.54564 0.0
H1462 H 0.6079 0.14175 0.60344 0.0
H1463 H 0.60483 0.11444 0.56156 0.0
H1464 H 0.567 0.15204 0.7528 0.0
H1465 H 0.58759 0.08081 0.72128 0.0
H1466 H 0.52846 0.1559 0.68855 0.0
H1467 H 0.54835 0.16343 0.63574 0.0
H1468 H 0.56873 0.18368 0.68504 0.0
H1469 H 0.55058 0.06375 0.60925 0.0
H1470 H 0.56129 0.04867 0.65616 0.0
H1471 H 0.59086 0.07859 0.62323 0.0
C1472 C 0.43171 0.55018 0.84596 0.0
C1473 C 0.40967 0.51911 0.83444 0.0
C1474 C 0.44003 0.5612 0.89111 0.0
C1475 C 0.42733 0.54105 0.92896 0.0
C1476 C 0.40434 0.50978 0.91769 0.0
C1477 C 0.39595 0.49951 0.87195 0.0
C1478 C 0.46264 0.59524 0.8972 0.0
C1479 C 0.38894 0.48634 0.95431 0.0
C1480 C 0.47701 0.56981 1.04173 0.0
C1481 C 0.45819 0.57429 1.07291 0.0
C1482 C 0.4674 0.55902 0.99665 0.0
C1483 C 0.43784 0.55249 0.97906 0.0
C1484 C 0.41902 0.5577 1.01029 0.0
C1485 C 0.42886 0.56751 1.05565 0.0
C1486 C 0.48892 0.55324 0.96838 0.0
C1487 C 0.38796 0.55332 0.99667 0.0
H1488 H 0.44293 0.5666 0.81913 0.0
H1489 H 0.37892 0.47551 0.86569 0.0
H1490 H 0.46287 0.60333 0.93154 0.0
H1491 H 0.4863 0.60001 0.88858 0.0
H1492 H 0.45698 0.60912 0.87405 0.0
H1493 H 0.37574 0.46233 0.94136 0.0
H1494 H 0.40656 0.48775 0.97831 0.0
H1495 H 0.37258 0.49131 0.97248 0.0
H1496 H 0.49939 0.57387 1.05306 0.0
H1497 H 0.4132 0.57021 1.07773 0.0
H1498 H 0.4915 0.56331 0.93477 0.0
H1499 H 0.47887 0.52792 0.96441 0.0
H1500 H 0.51231 0.56289 0.98341 0.0
H1501 H 0.38544 0.57299 1.00883 0.0
H1502 H 0.36938 0.53204 1.01272 0.0
H1503 H 0.38431 0.55145 0.96022 0.0
C1504 C 0.89935 0.39419 0.21632 0.0
C1505 C 0.89035 0.40487 0.17826 0.0
C1506 C 0.89649 0.40255 0.26182 0.0
C1507 C 0.88415 0.42257 0.27234 0.0
C1508 C 0.87348 0.43186 0.234 0.0
C1509 C 0.87722 0.42373 0.18918 0.0
C1510 C 0.90758 0.39016 0.29898 0.0
C1511 C 0.85678 0.44995 0.23901 0.0
C1512 C 0.85978 0.42229 0.40016 0.0
C1513 C 0.87868 0.45307 0.41587 0.0
C1514 C 0.8606 0.41252 0.35503 0.0
C1515 C 0.88204 0.43315 0.32216 0.0
C1516 C 0.90105 0.46446 0.33789 0.0
C1517 C 0.89905 0.47371 0.38299 0.0
C1518 C 0.83718 0.37958 0.34332 0.0
C1519 C 0.92465 0.48875 0.30732 0.0
H1520 H 0.90957 0.37972 0.21069 0.0
H1521 H 0.86934 0.4324 0.16203 0.0
H1522 H 0.92122 0.40866 0.32349 0.0
H1523 H 0.88734 0.37133 0.31645 0.0
H1524 H 0.92198 0.38046 0.28661 0.0
H1525 H 0.83467 0.43835 0.22014 0.0
H1526 H 0.85147 0.45247 0.27397 0.0
H1527 H 0.87102 0.4733 0.22406 0.0
H1528 H 0.84359 0.40527 0.42341 0.0
H1529 H 0.91442 0.49747 0.39288 0.0
H1530 H 0.84332 0.36364 0.36056 0.0
H1531 H 0.83553 0.37496 0.30714 0.0
H1532 H 0.81391 0.37396 0.35562 0.0
H1533 H 0.93557 0.51231 0.32196 0.0
H1534 H 0.91411 0.48926 0.27522 0.0
H1535 H 0.94305 0.4831 0.30024 0.0
C1536 C 0.48793 0.90467 0.53517 0.0
C1537 C 0.46786 0.88916 0.49879 0.0
C1538 C 0.4773 0.90365 0.58047 0.0
C1539 C 0.44502 0.88607 0.59286 0.0
C1540 C 0.42483 0.86952 0.55626 0.0
C1541 C 0.43611 0.87171 0.5112 0.0
C1542 C 0.50149 0.92177 0.61523 0.0
C1543 C 0.39063 0.84831 0.56367 0.0
C1544 C 0.43178 0.87296 0.725 0.0
C1545 C 0.41269 0.88544 0.73751 0.0
C1546 C 0.44104 0.87186 0.67972 0.0
C1547 C 0.43289 0.88494 0.64285 0.0
C1548 C 0.41286 0.89696 0.65523 0.0
C1549 C 0.40328 0.89694 0.70089 0.0
C1550 C 0.45873 0.85497 0.6725 0.0
C1551 C 0.40166 0.91105 0.62054 0.0
H1552 H 0.5125 0.91849 0.52818 0.0
H1553 H 0.41946 0.85909 0.48526 0.0
H1554 H 0.49268 0.93159 0.64056 0.0
H1555 H 0.50823 0.90625 0.63216 0.0
H1556 H 0.523 0.9408 0.60039 0.0
H1557 H 0.38246 0.82653 0.54464 0.0
H1558 H 0.38457 0.84224 0.59912 0.0
H1559 H 0.37785 0.85962 0.55064 0.0
H1560 H 0.43956 0.86339 0.75107 0.0
H1561 H 0.38868 0.90683 0.7079 0.0
H1562 H 0.48191 0.8682 0.68824 0.0
H1563 H 0.46148 0.85106 0.63699 0.0
H1564 H 0.4466 0.8321 0.68945 0.0
H1565 H 0.39929 0.93032 0.63473 0.0
H1566 H 0.37831 0.89324 0.6091 0.0
H1567 H 0.41739 0.92002 0.59141 0.0
C1568 C 0.54421 0.43052 0.84324 0.0
C1569 C 0.57241 0.45679 0.82905 0.0
C1570 C 0.5358 0.42174 0.88934 0.0
C1571 C 0.55662 0.43762 0.92553 0.0
C1572 C 0.58639 0.46263 0.91096 0.0
C1573 C 0.59314 0.47239 0.86469 0.0
C1574 C 0.50377 0.39502 0.89857 0.0
C1575 C 0.61253 0.47926 0.94361 0.0
C1576 C 0.53697 0.43989 1.0549 0.0
C1577 C 0.52658 0.40966 1.0723 0.0
C1578 C 0.54547 0.44871 1.00888 0.0
C1579 C 0.54722 0.42816 0.9769 0.0
C1580 C 0.53894 0.39812 0.99537 0.0
C1581 C 0.52795 0.3892 1.0408 0.0
C1582 C 0.55037 0.47994 0.99486 0.0
C1583 C 0.54251 0.37473 0.96829 0.0
H1584 H 0.52761 0.41689 0.81785 0.0
H1585 H 0.61552 0.4921 0.85648 0.0
H1586 H 0.50419 0.37303 0.8962 0.0
H1587 H 0.49502 0.39654 0.93179 0.0
H1588 H 0.48703 0.3938 0.87342 0.0
H1589 H 0.61816 0.50373 0.94653 0.0
H1590 H 0.60728 0.46839 0.97702 0.0
H1591 H 0.6337 0.47975 0.93084 0.0
H1592 H 0.53735 0.45701 1.07742 0.0
H1593 H 0.52154 0.36609 1.05209 0.0
H1594 H 0.56621 0.49017 0.9664 0.0
H1595 H 0.55924 0.49669 1.02278 0.0
H1596 H 0.52772 0.47708 0.98457 0.0
H1597 H 0.51922 0.35494 0.96049 0.0
H1598 H 0.55473 0.36526 0.98816 0.0
H1599 H 0.55561 0.38447 0.93703 0.0
C1600 C 0.10304 0.50783 0.37002 0.0
C1601 C 0.11446 0.52826 0.40703 0.0
C1602 C 0.10283 0.51785 0.32443 0.0
C1603 C 0.11525 0.54995 0.3122 0.0
C1604 C 0.12864 0.57077 0.34925 0.0
C1605 C 0.12736 0.55997 0.39457 0.0
C1606 C 0.08847 0.49341 0.289 0.0
C1607 C 0.14602 0.60533 0.34214 0.0
C1608 C 0.12985 0.56761 0.18049 0.0
C1609 C 0.1112 0.58047 0.167 0.0
C1610 C 0.13231 0.55904 0.22587 0.0
C1611 C 0.11445 0.56122 0.26193 0.0
C1612 C 0.09602 0.57492 0.24871 0.0
C1613 C 0.09489 0.58433 0.20304 0.0
C1614 C 0.15587 0.549 0.23421 0.0
C1615 C 0.07715 0.58001 0.28328 0.0
H1616 H 0.09341 0.48337 0.37677 0.0
H1617 H 0.13717 0.5771 0.42071 0.0
H1618 H 0.07025 0.4958 0.27109 0.0
H1619 H 0.10626 0.49634 0.26455 0.0
H1620 H 0.07836 0.46958 0.30249 0.0
H1621 H 0.16919 0.61548 0.35806 0.0
H1622 H 0.14936 0.61216 0.30661 0.0
H1623 H 0.13348 0.61566 0.35893 0.0
H1624 H 0.14344 0.56447 0.15509 0.0
H1625 H 0.08026 0.59411 0.19544 0.0
H1626 H 0.15887 0.54552 0.26987 0.0
H1627 H 0.17868 0.56673 0.22069 0.0
H1628 H 0.14904 0.52724 0.21583 0.0
H1629 H 0.06042 0.586 0.26836 0.0
H1630 H 0.09274 0.59963 0.30481 0.0
H1631 H 0.0645 0.55917 0.30469 0.0
loop_
_geom_bond_atom_site_label_1
_geom_bond_atom_site_label_2
_geom_bond_distance
_geom_bond_site_symmetry_2
_ccdc_geom_bond_type
Tb0 C9 2.764 . S
Tb0 O10 2.325 . S
Tb0 O13 2.303 . S
Tb0 O17 2.322 . S
Tb0 O18 2.349 . S
Tb0 O21 2.415 . S
Tb0 O22 2.399 . S
Tb1 O11 2.322 . S
Tb1 O12 2.349 . S
Tb1 O14 2.415 . S
Tb1 O15 2.399 . S
Tb1 O16 2.325 . S
Tb1 O19 2.303 . S
Tb1 C30 2.764 . S
C2 O18 1.261 . S
C2 O19 1.257 . S
C3 C6 1.358 . S
C3 C7 1.332 . S
C3 C9 1.504 . S
C4 C5 1.373 . S
C4 C8 1.308 . S
C5 C4 1.373 . S
C5 C6 1.429 . S
C5 H32 0.932 . S
C6 C3 1.358 . S
C6 C5 1.429 . S
C6 H33 0.930 . S
C7 C3 1.332 . S
C7 C8 1.394 . S
C7 H34 0.932 . S
C8 C4 1.308 . S
C8 C7 1.394 . S
C8 H35 0.929 . S
C9 Tb0 2.764 . S
C9 C3 1.504 . S
C9 O21 1.239 . S
C9 O22 1.263 . S
O10 Tb0 2.325 . S
O10 C20 1.236 . S
O11 Tb1 2.322 . S
O11 C20 1.257 . S
O12 Tb1 2.349 . S
O12 C23 1.261 . S
O13 Tb0 2.303 . S
O13 C23 1.257 . S
O14 Tb1 2.415 . S
O14 C30 1.239 . S
O15 Tb1 2.399 . S
O15 C30 1.263 . S
O16 Tb1 2.325 . S
O16 C31 1.236 . S
O17 Tb0 2.322 . S
O17 C31 1.257 . S
O18 Tb0 2.349 . S
O18 C2 1.261 . S
O19 Tb1 2.303 . S
O19 C2 1.257 . S
C20 O10 1.236 . S
C20 O11 1.257 . S
O21 Tb0 2.415 . S
O21 C9 1.239 . S
O22 Tb0 2.399 . S
O22 C9 1.263 . S
C23 O12 1.261 . S
C23 O13 1.257 . S
C24 C27 1.358 . S
C24 C28 1.332 . S
C24 C30 1.504 . S
C25 C26 1.373 . S
C25 C29 1.308 . S
C26 C25 1.373 . S
C26 C27 1.429 . S
C26 H36 0.932 . S
C27 C24 1.358 . S
C27 C26 1.429 . S
C27 H37 0.930 . S
C28 C24 1.332 . S
C28 C29 1.394 . S
C28 H38 0.932 . S
C29 C25 1.308 . S
C29 C28 1.394 . S
C29 H39 0.929 . S
C30 Tb1 2.764 . S
C30 O14 1.239 . S
C30 O15 1.263 . S
C30 C24 1.504 . S
C31 O16 1.236 . S
C31 O17 1.257 . S
H32 C5 0.932 . S
H33 C6 0.930 . S
H34 C7 0.932 . S
H35 C8 0.929 . S
H36 C26 0.932 . S
H37 C27 0.930 . S
H38 C28 0.932 . S
H39 C29 0.929 . S
Tb40 C49 2.764 . S
Tb40 O50 2.325 . S
Tb40 O53 2.303 . S
Tb40 O57 2.322 . S
Tb40 O58 2.349 . S
Tb40 O61 2.415 . S
Tb40 O62 2.399 . S
Tb41 O51 2.322 . S
Tb41 O52 2.349 . S
Tb41 O54 2.415 . S
Tb41 O55 2.399 . S
Tb41 O56 2.325 . S
Tb41 O59 2.303 . S
Tb41 C70 2.764 . S
C42 O58 1.261 . S
C42 O59 1.257 . S
C43 C46 1.358 . S
C43 C47 1.332 . S
C43 C49 1.504 . S
C44 C45 1.373 . S
C44 C48 1.308 . S
C45 C44 1.373 . S
C45 C46 1.429 . S
C45 H72 0.932 . S
C46 C43 1.358 . S
C46 C45 1.429 . S
C46 H73 0.930 . S
C47 C43 1.332 . S
C47 C48 1.394 . S
C47 H74 0.932 . S
C48 C44 1.308 . S
C48 C47 1.394 . S
C48 H75 0.929 . S
C49 Tb40 2.764 . S
C49 C43 1.504 . S
C49 O61 1.239 . S
C49 O62 1.263 . S
O50 Tb40 2.325 . S
O50 C60 1.236 . S
O51 Tb41 2.322 . S
O51 C60 1.257 . S
O52 Tb41 2.349 . S
O52 C63 1.261 . S
O53 Tb40 2.303 . S
O53 C63 1.257 . S
O54 Tb41 2.415 . S
O54 C70 1.239 . S
O55 Tb41 2.399 . S
O55 C70 1.263 . S
O56 Tb41 2.325 . S
O56 C71 1.236 . S
O57 Tb40 2.322 . S
O57 C71 1.257 . S
O58 Tb40 2.349 . S
O58 C42 1.261 . S
O59 Tb41 2.303 . S
O59 C42 1.257 . S
C60 O50 1.236 . S
C60 O51 1.257 . S
O61 Tb40 2.415 . S
O61 C49 1.239 . S
O62 Tb40 2.399 . S
O62 C49 1.263 . S
C63 O52 1.261 . S
C63 O53 1.257 . S
C64 C67 1.358 . S
C64 C68 1.332 . S
C64 C70 1.504 . S
C65 C66 1.373 . S
C65 C69 1.308 . S
C66 C65 1.373 . S
C66 C67 1.429 . S
C66 H76 0.932 . S
C67 C64 1.358 . S
C67 C66 1.429 . S
C67 H77 0.930 . S
C68 C64 1.332 . S
C68 C69 1.394 . S
C68 H78 0.932 . S
C69 C65 1.308 . S
C69 C68 1.394 . S
C69 H79 0.929 . S
C70 Tb41 2.764 . S
C70 O54 1.239 . S
C70 O55 1.263 . S
C70 C64 1.504 . S
C71 O56 1.236 . S
C71 O57 1.257 . S
H72 C45 0.932 . S
H73 C46 0.930 . S
H74 C47 0.932 . S
H75 C48 0.929 . S
H76 C66 0.932 . S
H77 C67 0.930 . S
H78 C68 0.932 . S
H79 C69 0.929 . S
Tb80 C89 2.764 . S
Tb80 O90 2.325 . S
Tb80 O93 2.303 . S
Tb80 O97 2.322 . S
Tb80 O98 2.349 . S
Tb80 O101 2.415 . S
Tb80 O102 2.399 . S
Tb81 O91 2.322 . S
Tb81 O92 2.349 . S
Tb81 O94 2.415 . S
Tb81 O95 2.399 . S
Tb81 O96 2.325 . S
Tb81 O99 2.303 . S
Tb81 C110 2.764 1_556 S
C82 O98 1.261 . S
C82 O99 1.257 . S
C83 C86 1.358 . S
C83 C87 1.332 . S
C83 C89 1.504 . S
C84 C85 1.373 . S
C84 C88 1.308 . S
C85 C84 1.373 . S
C85 C86 1.429 . S
C85 H112 0.932 . S
C86 C83 1.358 . S
C86 C85 1.429 . S
C86 H113 0.930 . S
C87 C83 1.332 . S
C87 C88 1.394 . S
C87 H114 0.932 . S
C88 C84 1.308 . S
C88 C87 1.394 . S
C88 H115 0.929 . S
C89 Tb80 2.764 . S
C89 C83 1.504 . S
C89 O101 1.239 . S
C89 O102 1.263 . S
O90 Tb80 2.325 . S
O90 C100 1.236 . S
O91 Tb81 2.322 . S
O91 C100 1.257 . S
O92 Tb81 2.349 . S
O92 C103 1.261 . S
O93 Tb80 2.303 . S
O93 C103 1.257 . S
O94 Tb81 2.415 . S
O94 C110 1.239 1_556 S
O95 Tb81 2.399 . S
O95 C110 1.263 1_556 S
O96 Tb81 2.325 . S
O96 C111 1.236 . S
O97 Tb80 2.322 . S
O97 C111 1.257 . S
O98 Tb80 2.349 . S
O98 C82 1.261 . S
O99 Tb81 2.303 . S
O99 C82 1.257 . S
C100 O90 1.236 . S
C100 O91 1.257 . S
O101 Tb80 2.415 . S
O101 C89 1.239 . S
O102 Tb80 2.399 . S
O102 C89 1.263 . S
C103 O92 1.261 . S
C103 O93 1.257 . S
C104 C107 1.358 . S
C104 C108 1.332 . S
C104 C110 1.504 . S
C105 C106 1.373 . S
C105 C109 1.308 . S
C106 C105 1.373 . S
C106 C107 1.429 . S
C106 H116 0.932 . S
C107 C104 1.358 . S
C107 C106 1.429 . S
C107 H117 0.930 . S
C108 C104 1.332 . S
C108 C109 1.394 . S
C108 H118 0.932 . S
C109 C105 1.308 . S
C109 C108 1.394 . S
C109 H119 0.929 . S
C110 Tb81 2.764 1_554 S
C110 O94 1.239 1_554 S
C110 O95 1.263 1_554 S
C110 C104 1.504 . S
C111 O96 1.236 . S
C111 O97 1.257 . S
H112 C85 0.932 . S
H113 C86 0.930 . S
H114 C87 0.932 . S
H115 C88 0.929 . S
H116 C106 0.932 . S
H117 C107 0.930 . S
H118 C108 0.932 . S
H119 C109 0.929 . S
Tb120 C129 2.764 . S
Tb120 O130 2.325 . S
Tb120 O133 2.303 . S
Tb120 O137 2.322 . S
Tb120 O138 2.349 . S
Tb120 O141 2.415 . S
Tb120 O142 2.399 . S
Tb121 O131 2.322 . S
Tb121 O132 2.349 . S
Tb121 O134 2.415 . S
Tb121 O135 2.399 . S
Tb121 O136 2.325 . S
Tb121 O139 2.303 . S
Tb121 C150 2.764 . S
C122 O138 1.261 . S
C122 O139 1.257 . S
C123 C126 1.358 . S
C123 C127 1.332 . S
C123 C129 1.504 . S
C124 C125 1.373 . S
C124 C128 1.308 . S
C125 C124 1.373 . S
C125 C126 1.429 . S
C125 H152 0.932 . S
C126 C123 1.358 . S
C126 C125 1.429 . S
C126 H153 0.930 . S
C127 C123 1.332 . S
C127 C128 1.394 . S
C127 H154 0.932 . S
C128 C124 1.308 . S
C128 C127 1.394 . S
C128 H155 0.929 . S
C129 Tb120 2.764 . S
C129 C123 1.504 . S
C129 O141 1.239 . S
C129 O142 1.263 . S
O130 Tb120 2.325 . S
O130 C140 1.236 . S
O131 Tb121 2.322 . S
O131 C140 1.257 . S
O132 Tb121 2.349 . S
O132 C143 1.261 . S
O133 Tb120 2.303 . S
O133 C143 1.257 . S
O134 Tb121 2.415 . S
O134 C150 1.239 . S
O135 Tb121 2.399 . S
O135 C150 1.263 . S
O136 Tb121 2.325 . S
O136 C151 1.236 . S
O137 Tb120 2.322 . S
O137 C151 1.257 . S
O138 Tb120 2.349 . S
O138 C122 1.261 . S
O139 Tb121 2.303 . S
O139 C122 1.257 . S
C140 O130 1.236 . S
C140 O131 1.257 . S
O141 Tb120 2.415 . S
O141 C129 1.239 . S
O142 Tb120 2.399 . S
O142 C129 1.263 . S
C143 O132 1.261 . S
C143 O133 1.257 . S
C144 C147 1.358 . S
C144 C148 1.332 . S
C144 C150 1.504 . S
C145 C146 1.373 . S
C145 C149 1.308 . S
C146 C145 1.373 . S
C146 C147 1.429 . S
C146 H156 0.932 . S
C147 C144 1.358 . S
C147 C146 1.429 . S
C147 H157 0.930 . S
C148 C144 1.332 . S
C148 C149 1.394 . S
C148 H158 0.932 . S
C149 C145 1.308 . S
C149 C148 1.394 . S
C149 H159 0.929 . S
C150 Tb121 2.764 . S
C150 O134 1.239 . S
C150 O135 1.263 . S
C150 C144 1.504 . S
C151 O136 1.236 . S
C151 O137 1.257 . S
H152 C125 0.932 . S
H153 C126 0.930 . S
H154 C127 0.932 . S
H155 C128 0.929 . S
H156 C146 0.932 . S
H157 C147 0.930 . S
H158 C148 0.932 . S
H159 C149 0.929 . S
Tb160 C169 2.764 . S
Tb160 O170 2.325 . S
Tb160 O173 2.303 . S
Tb160 O177 2.322 . S
Tb160 O178 2.349 . S
Tb160 O181 2.415 . S
Tb160 O182 2.399 . S
Tb161 O171 2.322 . S
Tb161 O172 2.349 . S
Tb161 O174 2.415 . S
Tb161 O175 2.399 . S
Tb161 O176 2.325 . S
Tb161 O179 2.303 . S
Tb161 C190 2.764 . S
C162 O178 1.261 . S
C162 O179 1.257 . S
C163 C166 1.358 . S
C163 C167 1.332 . S
C163 C169 1.504 . S
C164 C165 1.373 . S
C164 C168 1.308 . S
C165 C164 1.373 . S
C165 C166 1.429 . S
C165 H192 0.932 . S
C166 C163 1.358 . S
C166 C165 1.429 . S
C166 H193 0.930 . S
C167 C163 1.332 . S
C167 C168 1.394 . S
C167 H194 0.932 . S
C168 C164 1.308 . S
C168 C167 1.394 . S
C168 H195 0.929 . S
C169 Tb160 2.764 . S
C169 C163 1.504 . S
C169 O181 1.239 . S
C169 O182 1.263 . S
O170 Tb160 2.325 . S
O170 C180 1.236 . S
O171 Tb161 2.322 . S
O171 C180 1.257 . S
O172 Tb161 2.349 . S
O172 C183 1.261 . S
O173 Tb160 2.303 . S
O173 C183 1.257 . S
O174 Tb161 2.415 . S
O174 C190 1.239 . S
O175 Tb161 2.399 . S
O175 C190 1.263 . S
O176 Tb161 2.325 . S
O176 C191 1.236 . S
O177 Tb160 2.322 . S
O177 C191 1.257 . S
O178 Tb160 2.349 . S
O178 C162 1.261 . S
O179 Tb161 2.303 . S
O179 C162 1.257 . S
C180 O170 1.236 . S
C180 O171 1.257 . S
O181 Tb160 2.415 . S
O181 C169 1.239 . S
O182 Tb160 2.399 . S
O182 C169 1.263 . S
C183 O172 1.261 . S
C183 O173 1.257 . S
C184 C187 1.358 . S
C184 C188 1.332 . S
C184 C190 1.504 . S
C185 C186 1.373 . S
C185 C189 1.308 . S
C186 C185 1.373 . S
C186 C187 1.429 . S
C186 H196 0.932 . S
C187 C184 1.358 . S
C187 C186 1.429 . S
C187 H197 0.930 . S
C188 C184 1.332 . S
C188 C189 1.394 . S
C188 H198 0.932 . S
C189 C185 1.308 . S
C189 C188 1.394 . S
C189 H199 0.929 . S
C190 Tb161 2.764 . S
C190 O174 1.239 . S
C190 O175 1.263 . S
C190 C184 1.504 . S
C191 O176 1.236 . S
C191 O177 1.257 . S
H192 C165 0.932 . S
H193 C166 0.930 . S
H194 C167 0.932 . S
H195 C168 0.929 . S
H196 C186 0.932 . S
H197 C187 0.930 . S
H198 C188 0.932 . S
H199 C189 0.929 . S
Tb200 C209 2.764 . S
Tb200 O210 2.325 . S
Tb200 O213 2.303 . S
Tb200 O217 2.322 . S
Tb200 O218 2.349 . S
Tb200 O221 2.415 . S
Tb200 O222 2.399 . S
Tb201 O211 2.322 . S
Tb201 O212 2.349 . S
Tb201 O214 2.415 . S
Tb201 O215 2.399 . S
Tb201 O216 2.325 . S
Tb201 O219 2.303 . S
Tb201 C230 2.764 1_556 S
C202 O218 1.261 . S
C202 O219 1.257 . S
C203 C206 1.358 . S
C203 C207 1.332 . S
C203 C209 1.504 . S
C204 C205 1.373 . S
C204 C208 1.308 . S
C205 C204 1.373 . S
C205 C206 1.429 . S
C205 H232 0.932 . S
C206 C203 1.358 . S
C206 C205 1.429 . S
C206 H233 0.930 . S
C207 C203 1.332 . S
C207 C208 1.394 . S
C207 H234 0.932 . S
C208 C204 1.308 . S
C208 C207 1.394 . S
C208 H235 0.929 . S
C209 Tb200 2.764 . S
C209 C203 1.504 . S
C209 O221 1.239 . S
C209 O222 1.263 . S
O210 Tb200 2.325 . S
O210 C220 1.236 . S
O211 Tb201 2.322 . S
O211 C220 1.257 . S
O212 Tb201 2.349 . S
O212 C223 1.261 . S
O213 Tb200 2.303 . S
O213 C223 1.257 . S
O214 Tb201 2.415 . S
O214 C230 1.239 1_556 S
O215 Tb201 2.399 . S
O215 C230 1.263 1_556 S
O216 Tb201 2.325 . S
O216 C231 1.236 . S
O217 Tb200 2.322 . S
O217 C231 1.257 . S
O218 Tb200 2.349 . S
O218 C202 1.261 . S
O219 Tb201 2.303 . S
O219 C202 1.257 . S
C220 O210 1.236 . S
C220 O211 1.257 . S
O221 Tb200 2.415 . S
O221 C209 1.239 . S
O222 Tb200 2.399 . S
O222 C209 1.263 . S
C223 O212 1.261 . S
C223 O213 1.257 . S
C224 C227 1.358 . S
C224 C228 1.332 . S
C224 C230 1.504 . S
C225 C226 1.373 . S
C225 C229 1.308 . S
C226 C225 1.373 . S
C226 C227 1.429 . S
C226 H236 0.932 . S
C227 C224 1.358 . S
C227 C226 1.429 . S
C227 H237 0.930 . S
C228 C224 1.332 . S
C228 C229 1.394 . S
C228 H238 0.932 . S
C229 C225 1.308 . S
C229 C228 1.394 . S
C229 H239 0.929 . S
C230 Tb201 2.764 1_554 S
C230 O214 1.239 1_554 S
C230 O215 1.263 1_554 S
C230 C224 1.504 . S
C231 O216 1.236 . S
C231 O217 1.257 . S
H232 C205 0.932 . S
H233 C206 0.930 . S
H234 C207 0.932 . S
H235 C208 0.929 . S
H236 C226 0.932 . S
H237 C227 0.930 . S
H238 C228 0.932 . S
H239 C229 0.929 . S
Tb240 C249 2.764 . S
Tb240 O250 2.325 . S
Tb240 O253 2.303 . S
Tb240 O257 2.322 . S
Tb240 O258 2.349 . S
Tb240 O261 2.415 . S
Tb240 O262 2.399 . S
Tb241 O251 2.322 . S
Tb241 O252 2.349 . S
Tb241 O254 2.415 . S
Tb241 O255 2.399 . S
Tb241 O256 2.325 . S
Tb241 O259 2.303 . S
Tb241 C270 2.764 . S
C242 O258 1.261 . S
C242 O259 1.257 . S
C243 C246 1.358 . S
C243 C247 1.332 . S
C243 C249 1.504 . S
C244 C245 1.373 . S
C244 C248 1.308 . S
C245 C244 1.373 . S
C245 C246 1.429 . S
C245 H272 0.932 . S
C246 C243 1.358 . S
C246 C245 1.429 . S
C246 H273 0.930 . S
C247 C243 1.332 . S
C247 C248 1.394 . S
C247 H274 0.932 . S
C248 C244 1.308 . S
C248 C247 1.394 . S
C248 H275 0.929 . S
C249 Tb240 2.764 . S
C249 C243 1.504 . S
C249 O261 1.239 . S
C249 O262 1.263 . S
O250 Tb240 2.325 . S
O250 C260 1.236 . S
O251 Tb241 2.322 . S
O251 C260 1.257 . S
O252 Tb241 2.349 . S
O252 C263 1.261 . S
O253 Tb240 2.303 . S
O253 C263 1.257 . S
O254 Tb241 2.415 . S
O254 C270 1.239 . S
O255 Tb241 2.399 . S
O255 C270 1.263 . S
O256 Tb241 2.325 . S
O256 C271 1.236 . S
O257 Tb240 2.322 . S
O257 C271 1.257 . S
O258 Tb240 2.349 . S
O258 C242 1.261 . S
O259 Tb241 2.303 . S
O259 C242 1.257 . S
C260 O250 1.236 . S
C260 O251 1.257 . S
O261 Tb240 2.415 . S
O261 C249 1.239 . S
O262 Tb240 2.399 . S
O262 C249 1.263 . S
C263 O252 1.261 . S
C263 O253 1.257 . S
C264 C267 1.358 . S
C264 C268 1.332 . S
C264 C270 1.504 . S
C265 C266 1.373 . S
C265 C269 1.308 . S
C266 C265 1.373 . S
C266 C267 1.429 . S
C266 H276 0.932 . S
C267 C264 1.358 . S
C267 C266 1.429 . S
C267 H277 0.930 . S
C268 C264 1.332 . S
C268 C269 1.394 . S
C268 H278 0.932 . S
C269 C265 1.308 . S
C269 C268 1.394 . S
C269 H279 0.929 . S
C270 Tb241 2.764 . S
C270 O254 1.239 . S
C270 O255 1.263 . S
C270 C264 1.504 . S
C271 O256 1.236 . S
C271 O257 1.257 . S
H272 C245 0.932 . S
H273 C246 0.930 . S
H274 C247 0.932 . S
H275 C248 0.929 . S
H276 C266 0.932 . S
H277 C267 0.930 . S
H278 C268 0.932 . S
H279 C269 0.929 . S
Tb280 C289 2.764 . S
Tb280 O290 2.325 . S
Tb280 O293 2.303 . S
Tb280 O297 2.322 . S
Tb280 O298 2.349 . S
Tb280 O301 2.415 . S
Tb280 O302 2.399 . S
Tb281 O291 2.322 . S
Tb281 O292 2.349 . S
Tb281 O294 2.415 . S
Tb281 O295 2.399 . S
Tb281 O296 2.325 . S
Tb281 O299 2.303 . S
Tb281 C310 2.764 . S
C282 O298 1.261 . S
C282 O299 1.257 . S
C283 C286 1.358 . S
C283 C287 1.332 . S
C283 C289 1.504 . S
C284 C285 1.373 . S
C284 C288 1.308 . S
C285 C284 1.373 . S
C285 C286 1.429 . S
C285 H312 0.932 . S
C286 C283 1.358 . S
C286 C285 1.429 . S
C286 H313 0.930 . S
C287 C283 1.332 . S
C287 C288 1.394 . S
C287 H314 0.932 . S
C288 C284 1.308 . S
C288 C287 1.394 . S
C288 H315 0.929 . S
C289 Tb280 2.764 . S
C289 C283 1.504 . S
C289 O301 1.239 . S
C289 O302 1.263 . S
O290 Tb280 2.325 . S
O290 C300 1.236 . S
O291 Tb281 2.322 . S
O291 C300 1.257 . S
O292 Tb281 2.349 . S
O292 C303 1.261 . S
O293 Tb280 2.303 . S
O293 C303 1.257 . S
O294 Tb281 2.415 . S
O294 C310 1.239 . S
O295 Tb281 2.399 . S
O295 C310 1.263 . S
O296 Tb281 2.325 . S
O296 C311 1.236 . S
O297 Tb280 2.322 . S
O297 C311 1.257 . S
O298 Tb280 2.349 . S
O298 C282 1.261 . S
O299 Tb281 2.303 . S
O299 C282 1.257 . S
C300 O290 1.236 . S
C300 O291 1.257 . S
O301 Tb280 2.415 . S
O301 C289 1.239 . S
O302 Tb280 2.399 . S
O302 C289 1.263 . S
C303 O292 1.261 . S
C303 O293 1.257 . S
C304 C307 1.358 . S
C304 C308 1.332 . S
C304 C310 1.504 . S
C305 C306 1.373 . S
C305 C309 1.308 . S
C306 C305 1.373 . S
C306 C307 1.429 . S
C306 H316 0.932 . S
C307 C304 1.358 . S
C307 C306 1.429 . S
C307 H317 0.930 . S
C308 C304 1.332 . S
C308 C309 1.394 . S
C308 H318 0.932 . S
C309 C305 1.308 . S
C309 C308 1.394 . S
C309 H319 0.929 . S
C310 Tb281 2.764 . S
C310 O294 1.239 . S
C310 O295 1.263 . S
C310 C304 1.504 . S
C311 O296 1.236 . S
C311 O297 1.257 . S
H312 C285 0.932 . S
H313 C286 0.930 . S
H314 C287 0.932 . S
H315 C288 0.929 . S
H316 C306 0.932 . S
H317 C307 0.930 . S
H318 C308 0.932 . S
H319 C309 0.929 . S
Tb320 C329 2.764 . S
Tb320 O330 2.325 . S
Tb320 O333 2.303 . S
Tb320 O337 2.322 . S
Tb320 O338 2.349 . S
Tb320 O341 2.415 . S
Tb320 O342 2.399 . S
Tb321 O331 2.322 . S
Tb321 O332 2.349 . S
Tb321 O334 2.415 . S
Tb321 O335 2.399 . S
Tb321 O336 2.325 . S
Tb321 O339 2.303 . S
Tb321 C350 2.764 1_554 S
C322 O338 1.261 . S
C322 O339 1.257 . S
C323 C326 1.358 . S
C323 C327 1.332 . S
C323 C329 1.504 . S
C324 C325 1.373 . S
C324 C328 1.308 . S
C325 C324 1.373 . S
C325 C326 1.429 . S
C325 H352 0.932 . S
C326 C323 1.358 . S
C326 C325 1.429 . S
C326 H353 0.930 . S
C327 C323 1.332 . S
C327 C328 1.394 . S
C327 H354 0.932 . S
C328 C324 1.308 . S
C328 C327 1.394 . S
C328 H355 0.929 . S
C329 Tb320 2.764 . S
C329 C323 1.504 . S
C329 O341 1.239 . S
C329 O342 1.263 . S
O330 Tb320 2.325 . S
O330 C340 1.236 . S
O331 Tb321 2.322 . S
O331 C340 1.257 . S
O332 Tb321 2.349 . S
O332 C343 1.261 . S
O333 Tb320 2.303 . S
O333 C343 1.257 . S
O334 Tb321 2.415 . S
O334 C350 1.239 1_554 S
O335 Tb321 2.399 . S
O335 C350 1.263 1_554 S
O336 Tb321 2.325 . S
O336 C351 1.236 . S
O337 Tb320 2.322 . S
O337 C351 1.257 . S
O338 Tb320 2.349 . S
O338 C322 1.261 . S
O339 Tb321 2.303 . S
O339 C322 1.257 . S
C340 O330 1.236 . S
C340 O331 1.257 . S
O341 Tb320 2.415 . S
O341 C329 1.239 . S
O342 Tb320 2.399 . S
O342 C329 1.263 . S
C343 O332 1.261 . S
C343 O333 1.257 . S
C344 C347 1.358 . S
C344 C348 1.332 . S
C344 C350 1.504 . S
C345 C346 1.373 . S
C345 C349 1.308 . S
C346 C345 1.373 . S
C346 C347 1.429 . S
C346 H356 0.932 . S
C347 C344 1.358 . S
C347 C346 1.429 . S
C347 H357 0.930 . S
C348 C344 1.332 . S
C348 C349 1.394 . S
C348 H358 0.932 . S
C349 C345 1.308 . S
C349 C348 1.394 . S
C349 H359 0.929 . S
C350 Tb321 2.764 1_556 S
C350 O334 1.239 1_556 S
C350 O335 1.263 1_556 S
C350 C344 1.504 . S
C351 O336 1.236 . S
C351 O337 1.257 . S
H352 C325 0.932 . S
H353 C326 0.930 . S
H354 C327 0.932 . S
H355 C328 0.929 . S
H356 C346 0.932 . S
H357 C347 0.930 . S
H358 C348 0.932 . S
H359 C349 0.929 . S
Tb360 C369 2.764 . S
Tb360 O370 2.325 . S
Tb360 O373 2.303 . S
Tb360 O377 2.322 . S
Tb360 O378 2.349 . S
Tb360 O381 2.415 . S
Tb360 O382 2.399 . S
Tb361 O371 2.322 . S
Tb361 O372 2.349 . S
Tb361 O374 2.415 . S
Tb361 O375 2.399 . S
Tb361 O376 2.325 . S
Tb361 O379 2.303 . S
Tb361 C390 2.764 . S
C362 O378 1.261 . S
C362 O379 1.257 . S
C363 C366 1.358 . S
C363 C367 1.332 . S
C363 C369 1.504 . S
C364 C365 1.373 . S
C364 C368 1.308 . S
C365 C364 1.373 . S
C365 C366 1.429 . S
C365 H392 0.932 . S
C366 C363 1.358 . S
C366 C365 1.429 . S
C366 H393 0.930 . S
C367 C363 1.332 . S
C367 C368 1.394 . S
C367 H394 0.932 . S
C368 C364 1.308 . S
C368 C367 1.394 . S
C368 H395 0.929 . S
C369 Tb360 2.764 . S
C369 C363 1.504 . S
C369 O381 1.239 . S
C369 O382 1.263 . S
O370 Tb360 2.325 . S
O370 C380 1.236 . S
O371 Tb361 2.322 . S
O371 C380 1.257 . S
O372 Tb361 2.349 . S
O372 C383 1.261 . S
O373 Tb360 2.303 . S
O373 C383 1.257 . S
O374 Tb361 2.415 . S
O374 C390 1.239 . S
O375 Tb361 2.399 . S
O375 C390 1.263 . S
O376 Tb361 2.325 . S
O376 C391 1.236 . S
O377 Tb360 2.322 . S
O377 C391 1.257 . S
O378 Tb360 2.349 . S
O378 C362 1.261 . S
O379 Tb361 2.303 . S
O379 C362 1.257 . S
C380 O370 1.236 . S
C380 O371 1.257 . S
O381 Tb360 2.415 . S
O381 C369 1.239 . S
O382 Tb360 2.399 . S
O382 C369 1.263 . S
C383 O372 1.261 . S
C383 O373 1.257 . S
C384 C387 1.358 . S
C384 C388 1.332 . S
C384 C390 1.504 . S
C385 C386 1.373 . S
C385 C389 1.308 . S
C386 C385 1.373 . S
C386 C387 1.429 . S
C386 H396 0.932 . S
C387 C384 1.358 . S
C387 C386 1.429 . S
C387 H397 0.930 . S
C388 C384 1.332 . S
C388 C389 1.394 . S
C388 H398 0.932 . S
C389 C385 1.308 . S
C389 C388 1.394 . S
C389 H399 0.929 . S
C390 Tb361 2.764 . S
C390 O374 1.239 . S
C390 O375 1.263 . S
C390 C384 1.504 . S
C391 O376 1.236 . S
C391 O377 1.257 . S
H392 C365 0.932 . S
H393 C366 0.930 . S
H394 C367 0.932 . S
H395 C368 0.929 . S
H396 C386 0.932 . S
H397 C387 0.930 . S
H398 C388 0.932 . S
H399 C389 0.929 . S
Tb400 C409 2.764 . S
Tb400 O410 2.325 . S
Tb400 O413 2.303 . S
Tb400 O417 2.322 . S
Tb400 O418 2.349 . S
Tb400 O421 2.415 . S
Tb400 O422 2.399 . S
Tb401 O411 2.322 . S
Tb401 O412 2.349 . S
Tb401 O414 2.415 . S
Tb401 O415 2.399 . S
Tb401 O416 2.325 . S
Tb401 O419 2.303 . S
Tb401 C430 2.764 . S
C402 O418 1.261 . S
C402 O419 1.257 . S
C403 C406 1.358 . S
C403 C407 1.332 . S
C403 C409 1.504 . S
C404 C405 1.373 . S
C404 C408 1.308 . S
C405 C404 1.373 . S
C405 C406 1.429 . S
C405 H432 0.932 . S
C406 C403 1.358 . S
C406 C405 1.429 . S
C406 H433 0.930 . S
C407 C403 1.332 . S
C407 C408 1.394 . S
C407 H434 0.932 . S
C408 C404 1.308 . S
C408 C407 1.394 . S
C408 H435 0.929 . S
C409 Tb400 2.764 . S
C409 C403 1.504 . S
C409 O421 1.239 . S
C409 O422 1.263 . S
O410 Tb400 2.325 . S
O410 C420 1.236 . S
O411 Tb401 2.322 . S
O411 C420 1.257 . S
O412 Tb401 2.349 . S
O412 C423 1.261 . S
O413 Tb400 2.303 . S
O413 C423 1.257 . S
O414 Tb401 2.415 . S
O414 C430 1.239 . S
O415 Tb401 2.399 . S
O415 C430 1.263 . S
O416 Tb401 2.325 . S
O416 C431 1.236 . S
O417 Tb400 2.322 . S
O417 C431 1.257 . S
O418 Tb400 2.349 . S
O418 C402 1.261 . S
O419 Tb401 2.303 . S
O419 C402 1.257 . S
C420 O410 1.236 . S
C420 O411 1.257 . S
O421 Tb400 2.415 . S
O421 C409 1.239 . S
O422 Tb400 2.399 . S
O422 C409 1.263 . S
C423 O412 1.261 . S
C423 O413 1.257 . S
C424 C427 1.358 . S
C424 C428 1.332 . S
C424 C430 1.504 . S
C425 C426 1.373 . S
C425 C429 1.308 . S
C426 C425 1.373 . S
C426 C427 1.429 . S
C426 H436 0.932 . S
C427 C424 1.358 . S
C427 C426 1.429 . S
C427 H437 0.930 . S
C428 C424 1.332 . S
C428 C429 1.394 . S
C428 H438 0.932 . S
C429 C425 1.308 . S
C429 C428 1.394 . S
C429 H439 0.929 . S
C430 Tb401 2.764 . S
C430 O414 1.239 . S
C430 O415 1.263 . S
C430 C424 1.504 . S
C431 O416 1.236 . S
C431 O417 1.257 . S
H432 C405 0.932 . S
H433 C406 0.930 . S
H434 C407 0.932 . S
H435 C408 0.929 . S
H436 C426 0.932 . S
H437 C427 0.930 . S
H438 C428 0.932 . S
H439 C429 0.929 . S
Tb440 C449 2.764 . S
Tb440 O450 2.325 . S
Tb440 O453 2.303 . S
Tb440 O457 2.322 . S
Tb440 O458 2.349 . S
Tb440 O461 2.415 . S
Tb440 O462 2.399 . S
Tb441 O451 2.322 . S
Tb441 O452 2.349 . S
Tb441 O454 2.415 . S
Tb441 O455 2.399 . S
Tb441 O456 2.325 . S
Tb441 O459 2.303 . S
Tb441 C470 2.764 1_554 S
C442 O458 1.261 . S
C442 O459 1.257 . S
C443 C446 1.358 . S
C443 C447 1.332 . S
C443 C449 1.504 . S
C444 C445 1.373 . S
C444 C448 1.308 . S
C445 C444 1.373 . S
C445 C446 1.429 . S
C445 H472 0.932 . S
C446 C443 1.358 . S
C446 C445 1.429 . S
C446 H473 0.930 . S
C447 C443 1.332 . S
C447 C448 1.394 . S
C447 H474 0.932 . S
C448 C444 1.308 . S
C448 C447 1.394 . S
C448 H475 0.929 . S
C449 Tb440 2.764 . S
C449 C443 1.504 . S
C449 O461 1.239 . S
C449 O462 1.263 . S
O450 Tb440 2.325 . S
O450 C460 1.236 . S
O451 Tb441 2.322 . S
O451 C460 1.257 . S
O452 Tb441 2.349 . S
O452 C463 1.261 . S
O453 Tb440 2.303 . S
O453 C463 1.257 . S
O454 Tb441 2.415 . S
O454 C470 1.239 1_554 S
O455 Tb441 2.399 . S
O455 C470 1.263 1_554 S
O456 Tb441 2.325 . S
O456 C471 1.236 . S
O457 Tb440 2.322 . S
O457 C471 1.257 . S
O458 Tb440 2.349 . S
O458 C442 1.261 . S
O459 Tb441 2.303 . S
O459 C442 1.257 . S
C460 O450 1.236 . S
C460 O451 1.257 . S
O461 Tb440 2.415 . S
O461 C449 1.239 . S
O462 Tb440 2.399 . S
O462 C449 1.263 . S
C463 O452 1.261 . S
C463 O453 1.257 . S
C464 C467 1.358 . S
C464 C468 1.332 . S
C464 C470 1.504 . S
C465 C466 1.373 . S
C465 C469 1.308 . S
C466 C465 1.373 . S
C466 C467 1.429 . S
C466 H476 0.932 . S
C467 C464 1.358 . S
C467 C466 1.429 . S
C467 H477 0.930 . S
C468 C464 1.332 . S
C468 C469 1.394 . S
C468 H478 0.932 . S
C469 C465 1.308 . S
C469 C468 1.394 . S
C469 H479 0.929 . S
C470 Tb441 2.764 1_556 S
C470 O454 1.239 1_556 S
C470 O455 1.263 1_556 S
C470 C464 1.504 . S
C471 O456 1.236 . S
C471 O457 1.257 . S
H472 C445 0.932 . S
H473 C446 0.930 . S
H474 C447 0.932 . S
H475 C448 0.929 . S
H476 C466 0.932 . S
H477 C467 0.930 . S
H478 C468 0.932 . S
H479 C469 0.929 . S
C480 C481 1.391 . S
C480 C482 1.394 . S
C480 H496 0.931 . S
C481 C480 1.391 . S
C481 C485 1.376 . S
C482 C480 1.394 . S
C482 C483 1.369 . S
C482 C486 1.531 . S
C483 C482 1.369 . S
C483 C484 1.410 . S
C483 C491 1.503 . S
C484 C483 1.410 . S
C484 C485 1.392 . S
C484 C487 1.511 . S
C485 C481 1.376 . S
C485 C484 1.392 . S
C485 H497 0.929 . S
C486 C482 1.531 . S
C486 H498 0.960 . S
C486 H499 0.962 . S
C486 H500 0.960 . S
C487 C484 1.511 . S
C487 H501 0.961 . S
C487 H502 0.961 . S
C487 H503 0.961 . S
C488 C489 1.370 . S
C488 C490 1.363 . S
C488 H504 0.931 . S
C489 C488 1.370 . S
C489 C493 1.408 . S
C490 C488 1.363 . S
C490 C491 1.370 . S
C490 C494 1.524 . S
C491 C483 1.503 . S
C491 C490 1.370 . S
C491 C492 1.403 . S
C492 C491 1.403 . S
C492 C493 1.404 . S
C492 C495 1.539 . S
C493 C489 1.408 . S
C493 C492 1.404 . S
C493 H505 0.930 . S
C494 C490 1.524 . S
C494 H506 0.956 . S
C494 H507 0.961 . S
C494 H508 0.961 . S
C495 C492 1.539 . S
C495 H509 0.958 . S
C495 H510 0.961 . S
C495 H511 0.960 . S
H496 C480 0.931 . S
H497 C485 0.929 . S
H498 C486 0.960 . S
H499 C486 0.962 . S
H500 C486 0.960 . S
H501 C487 0.961 . S
H502 C487 0.961 . S
H503 C487 0.961 . S
H504 C488 0.931 . S
H505 C493 0.930 . S
H506 C494 0.956 . S
H507 C494 0.961 . S
H508 C494 0.961 . S
H509 C495 0.958 . S
H510 C495 0.961 . S
H511 C495 0.960 . S
C512 C513 1.391 . S
C512 C514 1.394 . S
C512 H528 0.931 . S
C513 C512 1.391 . S
C513 C517 1.376 . S
C514 C512 1.394 . S
C514 C515 1.369 . S
C514 C518 1.531 . S
C515 C514 1.369 . S
C515 C516 1.410 . S
C515 C523 1.503 . S
C516 C515 1.410 . S
C516 C517 1.392 . S
C516 C519 1.511 . S
C517 C513 1.376 . S
C517 C516 1.392 . S
C517 H529 0.929 . S
C518 C514 1.531 . S
C518 H530 0.960 . S
C518 H531 0.962 . S
C518 H532 0.960 . S
C519 C516 1.511 . S
C519 H533 0.961 . S
C519 H534 0.961 . S
C519 H535 0.961 . S
C520 C521 1.370 . S
C520 C522 1.363 . S
C520 H536 0.931 . S
C521 C520 1.370 . S
C521 C525 1.408 . S
C522 C520 1.363 . S
C522 C523 1.370 . S
C522 C526 1.524 . S
C523 C515 1.503 . S
C523 C522 1.370 . S
C523 C524 1.403 . S
C524 C523 1.403 . S
C524 C525 1.404 . S
C524 C527 1.539 . S
C525 C521 1.408 . S
C525 C524 1.404 . S
C525 H537 0.930 . S
C526 C522 1.524 . S
C526 H538 0.956 . S
C526 H539 0.961 . S
C526 H540 0.961 . S
C527 C524 1.539 . S
C527 H541 0.958 . S
C527 H542 0.961 . S
C527 H543 0.960 . S
H528 C512 0.931 . S
H529 C517 0.929 . S
H530 C518 0.960 . S
H531 C518 0.962 . S
H532 C518 0.960 . S
H533 C519 0.961 . S
H534 C519 0.961 . S
H535 C519 0.961 . S
H536 C520 0.931 . S
H537 C525 0.930 . S
H538 C526 0.956 . S
H539 C526 0.961 . S
H540 C526 0.961 . S
H541 C527 0.958 . S
H542 C527 0.961 . S
H543 C527 0.960 . S
C544 C545 1.391 . S
C544 C546 1.394 . S
C544 H560 0.931 . S
C545 C544 1.391 . S
C545 C549 1.376 . S
C546 C544 1.394 . S
C546 C547 1.369 . S
C546 C550 1.531 . S
C547 C546 1.369 . S
C547 C548 1.410 . S
C547 C555 1.503 . S
C548 C547 1.410 . S
C548 C549 1.392 . S
C548 C551 1.511 . S
C549 C545 1.376 . S
C549 C548 1.392 . S
C549 H561 0.929 . S
C550 C546 1.531 . S
C550 H562 0.960 . S
C550 H563 0.962 . S
C550 H564 0.960 . S
C551 C548 1.511 . S
C551 H565 0.961 . S
C551 H566 0.961 . S
C551 H567 0.961 . S
C552 C553 1.370 . S
C552 C554 1.363 . S
C552 H568 0.931 . S
C553 C552 1.370 . S
C553 C557 1.408 . S
C554 C552 1.363 . S
C554 C555 1.370 . S
C554 C558 1.524 . S
C555 C547 1.503 . S
C555 C554 1.370 . S
C555 C556 1.403 . S
C556 C555 1.403 . S
C556 C557 1.404 . S
C556 C559 1.539 . S
C557 C553 1.408 . S
C557 C556 1.404 . S
C557 H569 0.930 . S
C558 C554 1.524 . S
C558 H570 0.956 . S
C558 H571 0.961 . S
C558 H572 0.961 . S
C559 C556 1.539 . S
C559 H573 0.958 . S
C559 H574 0.961 . S
C559 H575 0.960 . S
H560 C544 0.931 . S
H561 C549 0.929 . S
H562 C550 0.960 . S
H563 C550 0.962 . S
H564 C550 0.960 . S
H565 C551 0.961 . S
H566 C551 0.961 . S
H567 C551 0.961 . S
H568 C552 0.931 . S
H569 C557 0.930 . S
H570 C558 0.956 . S
H571 C558 0.961 . S
H572 C558 0.961 . S
H573 C559 0.958 . S
H574 C559 0.961 . S
H575 C559 0.960 . S
C576 C577 1.391 . S
C576 C578 1.394 . S
C576 H592 0.931 . S
C577 C576 1.391 . S
C577 C581 1.376 . S
C578 C576 1.394 . S
C578 C579 1.369 . S
C578 C582 1.531 . S
C579 C578 1.369 . S
C579 C580 1.410 . S
C579 C587 1.503 . S
C580 C579 1.410 . S
C580 C581 1.392 . S
C580 C583 1.511 . S
C581 C577 1.376 . S
C581 C580 1.392 . S
C581 H593 0.929 . S
C582 C578 1.531 . S
C582 H594 0.960 . S
C582 H595 0.962 . S
C582 H596 0.960 . S
C583 C580 1.511 . S
C583 H597 0.961 . S
C583 H598 0.961 . S
C583 H599 0.961 . S
C584 C585 1.370 . S
C584 C586 1.363 . S
C584 H600 0.931 . S
C585 C584 1.370 . S
C585 C589 1.408 . S
C586 C584 1.363 . S
C586 C587 1.370 . S
C586 C590 1.524 . S
C587 C579 1.503 . S
C587 C586 1.370 . S
C587 C588 1.403 . S
C588 C587 1.403 . S
C588 C589 1.404 . S
C588 C591 1.539 . S
C589 C585 1.408 . S
C589 C588 1.404 . S
C589 H601 0.930 . S
C590 C586 1.524 . S
C590 H602 0.956 . S
C590 H603 0.961 . S
C590 H604 0.961 . S
C591 C588 1.539 . S
C591 H605 0.958 . S
C591 H606 0.961 . S
C591 H607 0.960 . S
H592 C576 0.931 . S
H593 C581 0.929 . S
H594 C582 0.960 . S
H595 C582 0.962 . S
H596 C582 0.960 . S
H597 C583 0.961 . S
H598 C583 0.961 . S
H599 C583 0.961 . S
H600 C584 0.931 . S
H601 C589 0.930 . S
H602 C590 0.956 . S
H603 C590 0.961 . S
H604 C590 0.961 . S
H605 C591 0.958 . S
H606 C591 0.961 . S
H607 C591 0.960 . S
C608 C609 1.391 . S
C608 C610 1.394 . S
C608 H624 0.931 . S
C609 C608 1.391 . S
C609 C613 1.376 . S
C610 C608 1.394 . S
C610 C611 1.369 . S
C610 C614 1.531 . S
C611 C610 1.369 . S
C611 C612 1.410 . S
C611 C619 1.503 . S
C612 C611 1.410 . S
C612 C613 1.392 . S
C612 C615 1.511 . S
C613 C609 1.376 . S
C613 C612 1.392 . S
C613 H625 0.929 . S
C614 C610 1.531 . S
C614 H626 0.960 . S
C614 H627 0.962 . S
C614 H628 0.960 . S
C615 C612 1.511 . S
C615 H629 0.961 . S
C615 H630 0.961 . S
C615 H631 0.961 . S
C616 C617 1.370 . S
C616 C618 1.363 . S
C616 H632 0.931 . S
C617 C616 1.370 . S
C617 C621 1.408 . S
C618 C616 1.363 . S
C618 C619 1.370 . S
C618 C622 1.524 . S
C619 C611 1.503 . S
C619 C618 1.370 . S
C619 C620 1.403 . S
C620 C619 1.403 . S
C620 C621 1.404 . S
C620 C623 1.539 . S
C621 C617 1.408 . S
C621 C620 1.404 . S
C621 H633 0.930 . S
C622 C618 1.524 . S
C622 H634 0.956 . S
C622 H635 0.961 . S
C622 H636 0.961 . S
C623 C620 1.539 . S
C623 H637 0.958 . S
C623 H638 0.961 . S
C623 H639 0.960 . S
H624 C608 0.931 . S
H625 C613 0.929 . S
H626 C614 0.960 . S
H627 C614 0.962 . S
H628 C614 0.960 . S
H629 C615 0.961 . S
H630 C615 0.961 . S
H631 C615 0.961 . S
H632 C616 0.931 . S
H633 C621 0.930 . S
H634 C622 0.956 . S
H635 C622 0.961 . S
H636 C622 0.961 . S
H637 C623 0.958 . S
H638 C623 0.961 . S
H639 C623 0.960 . S
C640 C641 1.391 . S
C640 C642 1.394 . S
C640 H656 0.931 . S
C641 C640 1.391 . S
C641 C645 1.376 . S
C642 C640 1.394 . S
C642 C643 1.369 . S
C642 C646 1.531 . S
C643 C642 1.369 . S
C643 C644 1.410 . S
C643 C651 1.503 . S
C644 C643 1.410 . S
C644 C645 1.392 . S
C644 C647 1.511 . S
C645 C641 1.376 . S
C645 C644 1.392 . S
C645 H657 0.929 . S
C646 C642 1.531 . S
C646 H658 0.960 . S
C646 H659 0.962 . S
C646 H660 0.960 . S
C647 C644 1.511 . S
C647 H661 0.961 . S
C647 H662 0.961 . S
C647 H663 0.961 . S
C648 C649 1.370 . S
C648 C650 1.363 . S
C648 H664 0.931 . S
C649 C648 1.370 . S
C649 C653 1.408 . S
C650 C648 1.363 . S
C650 C651 1.370 . S
C650 C654 1.524 . S
C651 C643 1.503 . S
C651 C650 1.370 . S
C651 C652 1.403 . S
C652 C651 1.403 . S
C652 C653 1.404 . S
C652 C655 1.539 . S
C653 C649 1.408 . S
C653 C652 1.404 . S
C653 H665 0.930 . S
C654 C650 1.524 . S
C654 H666 0.956 . S
C654 H667 0.961 . S
C654 H668 0.961 . S
C655 C652 1.539 . S
C655 H669 0.958 . S
C655 H670 0.961 . S
C655 H671 0.960 . S
H656 C640 0.931 . S
H657 C645 0.929 . S
H658 C646 0.960 . S
H659 C646 0.962 . S
H660 C646 0.960 . S
H661 C647 0.961 . S
H662 C647 0.961 . S
H663 C647 0.961 . S
H664 C648 0.931 . S
H665 C653 0.930 . S
H666 C654 0.956 . S
H667 C654 0.961 . S
H668 C654 0.961 . S
H669 C655 0.958 . S
H670 C655 0.961 . S
H671 C655 0.960 . S
C672 C673 1.391 . S
C672 C674 1.394 . S
C672 H688 0.931 . S
C673 C672 1.391 . S
C673 C677 1.376 . S
C674 C672 1.394 . S
C674 C675 1.369 . S
C674 C678 1.531 1_556 S
C675 C674 1.369 . S
C675 C676 1.410 . S
C675 C683 1.503 1_556 S
C676 C675 1.410 . S
C676 C677 1.392 . S
C676 C679 1.511 . S
C677 C673 1.376 . S
C677 C676 1.392 . S
C677 H689 0.929 . S
C678 C674 1.531 1_554 S
C678 H690 0.960 . S
C678 H691 0.962 . S
C678 H692 0.960 . S
C679 C676 1.511 . S
C679 H693 0.961 . S
C679 H694 0.961 . S
C679 H695 0.961 . S
C680 C681 1.370 . S
C680 C682 1.363 . S
C680 H696 0.931 . S
C681 C680 1.370 . S
C681 C685 1.408 . S
C682 C680 1.363 . S
C682 C683 1.370 . S
C682 C686 1.524 . S
C683 C675 1.503 1_554 S
C683 C682 1.370 . S
C683 C684 1.403 . S
C684 C683 1.403 . S
C684 C685 1.404 . S
C684 C687 1.539 . S
C685 C681 1.408 . S
C685 C684 1.404 . S
C685 H697 0.930 . S
C686 C682 1.524 . S
C686 H698 0.956 . S
C686 H699 0.961 1_554 S
C686 H700 0.961 . S
C687 C684 1.539 . S
C687 H701 0.958 . S
C687 H702 0.961 . S
C687 H703 0.960 1_554 S
H688 C672 0.931 . S
H689 C677 0.929 . S
H690 C678 0.960 . S
H691 C678 0.962 . S
H692 C678 0.960 . S
H693 C679 0.961 . S
H694 C679 0.961 . S
H695 C679 0.961 . S
H696 C680 0.931 . S
H697 C685 0.930 . S
H698 C686 0.956 . S
H699 C686 0.961 1_556 S
H700 C686 0.961 . S
H701 C687 0.958 . S
H702 C687 0.961 . S
H703 C687 0.960 1_556 S
C704 C705 1.391 . S
C704 C706 1.394 . S
C704 H720 0.931 . S
C705 C704 1.391 . S
C705 C709 1.376 . S
C706 C704 1.394 . S
C706 C707 1.369 . S
C706 C710 1.531 . S
C707 C706 1.369 . S
C707 C708 1.410 . S
C707 C715 1.503 . S
C708 C707 1.410 . S
C708 C709 1.392 . S
C708 C711 1.511 . S
C709 C705 1.376 . S
C709 C708 1.392 . S
C709 H721 0.929 . S
C710 C706 1.531 . S
C710 H722 0.960 . S
C710 H723 0.962 . S
C710 H724 0.960 . S
C711 C708 1.511 . S
C711 H725 0.961 . S
C711 H726 0.961 . S
C711 H727 0.961 . S
C712 C713 1.370 . S
C712 C714 1.363 . S
C712 H728 0.931 . S
C713 C712 1.370 . S
C713 C717 1.408 . S
C714 C712 1.363 . S
C714 C715 1.370 . S
C714 C718 1.524 . S
C715 C707 1.503 . S
C715 C714 1.370 . S
C715 C716 1.403 . S
C716 C715 1.403 . S
C716 C717 1.404 . S
C716 C719 1.539 . S
C717 C713 1.408 . S
C717 C716 1.404 . S
C717 H729 0.930 . S
C718 C714 1.524 . S
C718 H730 0.956 . S
C718 H731 0.961 . S
C718 H732 0.961 . S
C719 C716 1.539 . S
C719 H733 0.958 . S
C719 H734 0.961 . S
C719 H735 0.960 . S
H720 C704 0.931 . S
H721 C709 0.929 . S
H722 C710 0.960 . S
H723 C710 0.962 . S
H724 C710 0.960 . S
H725 C711 0.961 . S
H726 C711 0.961 . S
H727 C711 0.961 . S
H728 C712 0.931 . S
H729 C717 0.930 . S
H730 C718 0.956 . S
H731 C718 0.961 . S
H732 C718 0.961 . S
H733 C719 0.958 . S
H734 C719 0.961 . S
H735 C719 0.960 . S
C736 C737 1.391 . S
C736 C738 1.394 . S
C736 H752 0.931 . S
C737 C736 1.391 . S
C737 C741 1.376 . S
C738 C736 1.394 . S
C738 C739 1.369 . S
C738 C742 1.531 . S
C739 C738 1.369 . S
C739 C740 1.410 . S
C739 C747 1.503 . S
C740 C739 1.410 . S
C740 C741 1.392 . S
C740 C743 1.511 . S
C741 C737 1.376 . S
C741 C740 1.392 . S
C741 H753 0.929 . S
C742 C738 1.531 . S
C742 H754 0.960 . S
C742 H755 0.962 . S
C742 H756 0.960 . S
C743 C740 1.511 . S
C743 H757 0.961 . S
C743 H758 0.961 . S
C743 H759 0.961 . S
C744 C745 1.370 . S
C744 C746 1.363 . S
C744 H760 0.931 . S
C745 C744 1.370 . S
C745 C749 1.408 . S
C746 C744 1.363 . S
C746 C747 1.370 . S
C746 C750 1.524 . S
C747 C739 1.503 . S
C747 C746 1.370 . S
C747 C748 1.403 . S
C748 C747 1.403 . S
C748 C749 1.404 . S
C748 C751 1.539 . S
C749 C745 1.408 . S
C749 C748 1.404 . S
C749 H761 0.930 . S
C750 C746 1.524 . S
C750 H762 0.956 . S
C750 H763 0.961 . S
C750 H764 0.961 . S
C751 C748 1.539 . S
C751 H765 0.958 . S
C751 H766 0.961 . S
C751 H767 0.960 . S
H752 C736 0.931 . S
H753 C741 0.929 . S
H754 C742 0.960 . S
H755 C742 0.962 . S
H756 C742 0.960 . S
H757 C743 0.961 . S
H758 C743 0.961 . S
H759 C743 0.961 . S
H760 C744 0.931 . S
H761 C749 0.930 . S
H762 C750 0.956 . S
H763 C750 0.961 . S
H764 C750 0.961 . S
H765 C751 0.958 . S
H766 C751 0.961 . S
H767 C751 0.960 . S
C768 C769 1.391 . S
C768 C770 1.394 . S
C768 H784 0.931 . S
C769 C768 1.391 . S
C769 C773 1.376 . S
C770 C768 1.394 . S
C770 C771 1.369 . S
C770 C774 1.531 . S
C771 C770 1.369 . S
C771 C772 1.410 . S
C771 C779 1.503 1_556 S
C772 C771 1.410 . S
C772 C773 1.392 . S
C772 C775 1.511 . S
C773 C769 1.376 . S
C773 C772 1.392 . S
C773 H785 0.929 . S
C774 C770 1.531 . S
C774 H786 0.960 . S
C774 H787 0.963 1_556 S
C774 H788 0.960 . S
C775 C772 1.511 . S
C775 H789 0.961 . S
C775 H790 0.961 1_556 S
C775 H791 0.961 . S
C776 C777 1.370 . S
C776 C778 1.363 . S
C776 H792 0.931 . S
C777 C776 1.370 . S
C777 C781 1.408 . S
C778 C776 1.363 . S
C778 C779 1.370 . S
C778 C782 1.524 . S
C779 C771 1.503 1_554 S
C779 C778 1.370 . S
C779 C780 1.403 . S
C780 C779 1.403 . S
C780 C781 1.404 . S
C780 C783 1.539 1_554 S
C781 C777 1.408 . S
C781 C780 1.404 . S
C781 H793 0.930 . S
C782 C778 1.524 . S
C782 H794 0.956 . S
C782 H795 0.961 . S
C782 H796 0.961 . S
C783 C780 1.539 1_556 S
C783 H797 0.958 . S
C783 H798 0.961 . S
C783 H799 0.960 . S
H784 C768 0.931 . S
H785 C773 0.929 . S
H786 C774 0.960 . S
H787 C774 0.963 1_554 S
H788 C774 0.960 . S
H789 C775 0.961 . S
H790 C775 0.961 1_554 S
H791 C775 0.961 . S
H792 C776 0.931 . S
H793 C781 0.930 . S
H794 C782 0.956 . S
H795 C782 0.961 . S
H796 C782 0.961 . S
H797 C783 0.958 . S
H798 C783 0.961 . S
H799 C783 0.960 . S
C800 C801 1.391 . S
C800 C802 1.394 . S
C800 H816 0.931 . S
C801 C800 1.391 . S
C801 C805 1.376 . S
C802 C800 1.394 . S
C802 C803 1.369 . S
C802 C806 1.531 . S
C803 C802 1.369 . S
C803 C804 1.410 . S
C803 C811 1.503 . S
C804 C803 1.410 . S
C804 C805 1.392 . S
C804 C807 1.511 . S
C805 C801 1.376 . S
C805 C804 1.392 . S
C805 H817 0.929 . S
C806 C802 1.531 . S
C806 H818 0.960 . S
C806 H819 0.962 . S
C806 H820 0.960 . S
C807 C804 1.511 . S
C807 H821 0.961 . S
C807 H822 0.961 . S
C807 H823 0.961 . S
C808 C809 1.370 . S
C808 C810 1.363 . S
C808 H824 0.931 . S
C809 C808 1.370 . S
C809 C813 1.408 . S
C810 C808 1.363 . S
C810 C811 1.370 . S
C810 C814 1.524 . S
C811 C803 1.503 . S
C811 C810 1.370 . S
C811 C812 1.403 . S
C812 C811 1.403 . S
C812 C813 1.404 . S
C812 C815 1.539 . S
C813 C809 1.408 . S
C813 C812 1.404 . S
C813 H825 0.930 . S
C814 C810 1.524 . S
C814 H826 0.956 . S
C814 H827 0.961 . S
C814 H828 0.961 . S
C815 C812 1.539 . S
C815 H829 0.958 . S
C815 H830 0.961 . S
C815 H831 0.960 . S
H816 C800 0.931 . S
H817 C805 0.929 . S
H818 C806 0.960 . S
H819 C806 0.962 . S
H820 C806 0.960 . S
H821 C807 0.961 . S
H822 C807 0.961 . S
H823 C807 0.961 . S
H824 C808 0.931 . S
H825 C813 0.930 . S
H826 C814 0.956 . S
H827 C814 0.961 . S
H828 C814 0.961 . S
H829 C815 0.958 . S
H830 C815 0.961 . S
H831 C815 0.960 . S
C832 C833 1.391 . S
C832 C834 1.394 . S
C832 H848 0.931 . S
C833 C832 1.391 . S
C833 C837 1.376 . S
C834 C832 1.394 . S
C834 C835 1.369 . S
C834 C838 1.531 . S
C835 C834 1.369 . S
C835 C836 1.410 . S
C835 C843 1.503 . S
C836 C835 1.410 . S
C836 C837 1.392 . S
C836 C839 1.511 . S
C837 C833 1.376 . S
C837 C836 1.392 . S
C837 H849 0.929 . S
C838 C834 1.531 . S
C838 H850 0.960 . S
C838 H851 0.962 . S
C838 H852 0.960 . S
C839 C836 1.511 . S
C839 H853 0.961 . S
C839 H854 0.961 . S
C839 H855 0.961 . S
C840 C841 1.370 . S
C840 C842 1.363 . S
C840 H856 0.931 . S
C841 C840 1.370 . S
C841 C845 1.408 . S
C842 C840 1.363 . S
C842 C843 1.370 . S
C842 C846 1.524 . S
C843 C835 1.503 . S
C843 C842 1.370 . S
C843 C844 1.403 . S
C844 C843 1.403 . S
C844 C845 1.404 . S
C844 C847 1.539 . S
C845 C841 1.408 . S
C845 C844 1.404 . S
C845 H857 0.930 . S
C846 C842 1.524 . S
C846 H858 0.956 . S
C846 H859 0.961 . S
C846 H860 0.961 . S
C847 C844 1.539 . S
C847 H861 0.958 . S
C847 H862 0.961 . S
C847 H863 0.960 . S
H848 C832 0.931 . S
H849 C837 0.929 . S
H850 C838 0.960 . S
H851 C838 0.962 . S
H852 C838 0.960 . S
H853 C839 0.961 . S
H854 C839 0.961 . S
H855 C839 0.961 . S
H856 C840 0.931 . S
H857 C845 0.930 . S
H858 C846 0.956 . S
H859 C846 0.961 . S
H860 C846 0.961 . S
H861 C847 0.958 . S
H862 C847 0.961 . S
H863 C847 0.960 . S
C864 C865 1.391 . S
C864 C866 1.394 1_565 S
C864 H880 0.931 . S
C865 C864 1.391 . S
C865 C869 1.376 . S
C866 C864 1.394 1_545 S
C866 C867 1.369 1_545 S
C866 C870 1.531 . S
C867 C866 1.369 1_565 S
C867 C868 1.410 . S
C867 C875 1.503 1_566 S
C868 C867 1.410 . S
C868 C869 1.392 . S
C868 C871 1.511 1_556 S
C869 C865 1.376 . S
C869 C868 1.392 . S
C869 H881 0.929 . S
C870 C866 1.531 . S
C870 H882 0.960 . S
C870 H883 0.962 . S
C870 H884 0.960 . S
C871 C868 1.511 1_554 S
C871 H885 0.961 . S
C871 H886 0.961 . S
C871 H887 0.961 . S
C872 C873 1.370 . S
C872 C874 1.363 . S
C872 H888 0.931 . S
C873 C872 1.370 . S
C873 C877 1.408 . S
C874 C872 1.363 . S
C874 C875 1.370 . S
C874 C878 1.524 1_554 S
C875 C867 1.503 1_544 S
C875 C874 1.370 . S
C875 C876 1.403 . S
C876 C875 1.403 . S
C876 C877 1.404 . S
C876 C879 1.539 1_545 S
C877 C873 1.408 . S
C877 C876 1.404 . S
C877 H889 0.930 . S
C878 C874 1.524 1_556 S
C878 H890 0.956 . S
C878 H891 0.961 . S
C878 H892 0.961 1_556 S
C879 C876 1.539 1_565 S
C879 H893 0.958 . S
C879 H894 0.961 . S
C879 H895 0.960 . S
H880 C864 0.931 . S
H881 C869 0.929 . S
H882 C870 0.960 . S
H883 C870 0.962 . S
H884 C870 0.960 . S
H885 C871 0.961 . S
H886 C871 0.961 . S
H887 C871 0.961 . S
H888 C872 0.931 . S
H889 C877 0.930 . S
H890 C878 0.956 . S
H891 C878 0.961 . S
H892 C878 0.961 1_554 S
H893 C879 0.958 . S
H894 C879 0.961 . S
H895 C879 0.960 . S
C896 C897 1.391 . S
C896 C898 1.394 . S
C896 H912 0.931 . S
C897 C896 1.391 . S
C897 C901 1.376 . S
C898 C896 1.394 . S
C898 C899 1.369 . S
C898 C902 1.531 . S
C899 C898 1.369 . S
C899 C900 1.410 . S
C899 C907 1.503 . S
C900 C899 1.410 . S
C900 C901 1.392 . S
C900 C903 1.511 . S
C901 C897 1.376 . S
C901 C900 1.392 . S
C901 H913 0.929 . S
C902 C898 1.531 . S
C902 H914 0.960 . S
C902 H915 0.962 . S
C902 H916 0.960 . S
C903 C900 1.511 . S
C903 H917 0.961 . S
C903 H918 0.961 . S
C903 H919 0.961 . S
C904 C905 1.370 . S
C904 C906 1.363 . S
C904 H920 0.931 . S
C905 C904 1.370 . S
C905 C909 1.408 . S
C906 C904 1.363 . S
C906 C907 1.370 . S
C906 C910 1.524 . S
C907 C899 1.503 . S
C907 C906 1.370 . S
C907 C908 1.403 . S
C908 C907 1.403 . S
C908 C909 1.404 . S
C908 C911 1.539 . S
C909 C905 1.408 . S
C909 C908 1.404 . S
C909 H921 0.930 . S
C910 C906 1.524 . S
C910 H922 0.956 . S
C910 H923 0.961 . S
C910 H924 0.961 . S
C911 C908 1.539 . S
C911 H925 0.958 . S
C911 H926 0.961 . S
C911 H927 0.960 . S
H912 C896 0.931 . S
H913 C901 0.929 . S
H914 C902 0.960 . S
H915 C902 0.962 . S
H916 C902 0.960 . S
H917 C903 0.961 . S
H918 C903 0.961 . S
H919 C903 0.961 . S
H920 C904 0.931 . S
H921 C909 0.930 . S
H922 C910 0.956 . S
H923 C910 0.961 . S
H924 C910 0.961 . S
H925 C911 0.958 . S
H926 C911 0.961 . S
H927 C911 0.960 . S
C928 C929 1.391 . S
C928 C930 1.394 . S
C928 H944 0.931 . S
C929 C928 1.391 . S
C929 C933 1.376 . S
C930 C928 1.394 . S
C930 C931 1.369 . S
C930 C934 1.531 . S
C931 C930 1.369 . S
C931 C932 1.410 1_455 S
C931 C939 1.503 1_455 S
C932 C931 1.410 1_655 S
C932 C933 1.392 1_655 S
C932 C935 1.511 . S
C933 C929 1.376 . S
C933 C932 1.392 1_455 S
C933 H945 0.929 1_455 S
C934 C930 1.531 . S
C934 H946 0.960 . S
C934 H947 0.962 . S
C934 H948 0.960 . S
C935 C932 1.511 . S
C935 H949 0.961 . S
C935 H950 0.961 . S
C935 H951 0.961 . S
C936 C937 1.370 . S
C936 C938 1.363 . S
C936 H952 0.931 . S
C937 C936 1.370 . S
C937 C941 1.408 . S
C938 C936 1.363 . S
C938 C939 1.370 . S
C938 C942 1.524 1_655 S
C939 C931 1.503 1_655 S
C939 C938 1.370 . S
C939 C940 1.403 . S
C940 C939 1.403 . S
C940 C941 1.404 . S
C940 C943 1.539 . S
C941 C937 1.408 . S
C941 C940 1.404 . S
C941 H953 0.930 . S
C942 C938 1.524 1_455 S
C942 H954 0.956 . S
C942 H955 0.961 1_455 S
C942 H956 0.961 1_455 S
C943 C940 1.539 . S
C943 H957 0.958 . S
C943 H958 0.961 . S
C943 H959 0.960 . S
H944 C928 0.931 . S
H945 C933 0.929 1_655 S
H946 C934 0.960 . S
H947 C934 0.962 . S
H948 C934 0.960 . S
H949 C935 0.961 . S
H950 C935 0.961 . S
H951 C935 0.961 . S
H952 C936 0.931 . S
H953 C941 0.930 . S
H954 C942 0.956 . S
H955 C942 0.961 1_655 S
H956 C942 0.961 1_655 S
H957 C943 0.958 . S
H958 C943 0.961 . S
H959 C943 0.960 . S
C960 C961 1.391 . S
C960 C962 1.394 . S
C960 H976 0.931 . S
C961 C960 1.391 . S
C961 C965 1.376 . S
C962 C960 1.394 . S
C962 C963 1.369 . S
C962 C966 1.531 . S
C963 C962 1.369 . S
C963 C964 1.410 . S
C963 C971 1.503 1_564 S
C964 C963 1.410 . S
C964 C965 1.392 . S
C964 C967 1.511 1_565 S
C965 C961 1.376 . S
C965 C964 1.392 . S
C965 H977 0.929 . S
C966 C962 1.531 . S
C966 H978 0.960 1_565 S
C966 H979 0.962 1_554 S
C966 H980 0.960 . S
C967 C964 1.511 1_545 S
C967 H981 0.961 1_545 S
C967 H982 0.961 . S
C967 H983 0.961 . S
C968 C969 1.370 . S
C968 C970 1.363 1_545 S
C968 H984 0.931 1_545 S
C969 C968 1.370 . S
C969 C973 1.408 . S
C970 C968 1.363 1_565 S
C970 C971 1.370 1_565 S
C970 C974 1.524 . S
C971 C963 1.503 1_546 S
C971 C970 1.370 1_545 S
C971 C972 1.403 . S
C972 C971 1.403 . S
C972 C973 1.404 . S
C972 C975 1.539 1_556 S
C973 C969 1.408 . S
C973 C972 1.404 . S
C973 H985 0.930 . S
C974 C970 1.524 . S
C974 H986 0.956 . S
C974 H987 0.961 . S
C974 H988 0.961 . S
C975 C972 1.539 1_554 S
C975 H989 0.958 . S
C975 H990 0.961 . S
C975 H991 0.960 . S
H976 C960 0.931 . S
H977 C965 0.929 . S
H978 C966 0.960 1_545 S
H979 C966 0.962 1_556 S
H980 C966 0.960 . S
H981 C967 0.961 1_565 S
H982 C967 0.961 . S
H983 C967 0.961 . S
H984 C968 0.931 1_565 S
H985 C973 0.930 . S
H986 C974 0.956 . S
H987 C974 0.961 . S
H988 C974 0.961 . S
H989 C975 0.958 . S
H990 C975 0.961 . S
H991 C975 0.960 . S
C992 C993 1.391 . S
C992 C994 1.394 . S
C992 H1008 0.931 . S
C993 C992 1.391 . S
C993 C997 1.376 . S
C994 C992 1.394 . S
C994 C995 1.369 . S
C994 C998 1.531 . S
C995 C994 1.369 . S
C995 C996 1.410 . S
C995 C1003 1.503 . S
C996 C995 1.410 . S
C996 C997 1.392 . S
C996 C999 1.511 . S
C997 C993 1.376 . S
C997 C996 1.392 . S
C997 H1009 0.929 . S
C998 C994 1.531 . S
C998 H1010 0.960 . S
C998 H1011 0.962 . S
C998 H1012 0.960 . S
C999 C996 1.511 . S
C999 H1013 0.961 . S
C999 H1014 0.961 . S
C999 H1015 0.961 . S
C1000 C1001 1.370 . S
C1000 C1002 1.363 . S
C1000 H1016 0.931 . S
C1001 C1000 1.370 . S
C1001 C1005 1.408 . S
C1002 C1000 1.363 . S
C1002 C1003 1.370 . S
C1002 C1006 1.524 . S
C1003 C995 1.503 . S
C1003 C1002 1.370 . S
C1003 C1004 1.403 . S
C1004 C1003 1.403 . S
C1004 C1005 1.404 . S
C1004 C1007 1.539 . S
C1005 C1001 1.408 . S
C1005 C1004 1.404 . S
C1005 H1017 0.930 . S
C1006 C1002 1.524 . S
C1006 H1018 0.956 . S
C1006 H1019 0.961 . S
C1006 H1020 0.961 . S
C1007 C1004 1.539 . S
C1007 H1021 0.958 . S
C1007 H1022 0.961 . S
C1007 H1023 0.960 . S
H1008 C992 0.931 . S
H1009 C997 0.929 . S
H1010 C998 0.960 . S
H1011 C998 0.962 . S
H1012 C998 0.960 . S
H1013 C999 0.961 . S
H1014 C999 0.961 . S
H1015 C999 0.961 . S
H1016 C1000 0.931 . S
H1017 C1005 0.930 . S
H1018 C1006 0.956 . S
H1019 C1006 0.961 . S
H1020 C1006 0.961 . S
H1021 C1007 0.958 . S
H1022 C1007 0.961 . S
H1023 C1007 0.960 . S
C1024 C1025 1.391 . S
C1024 C1026 1.394 . S
C1024 H1040 0.931 . S
C1025 C1024 1.391 . S
C1025 C1029 1.376 . S
C1026 C1024 1.394 . S
C1026 C1027 1.369 . S
C1026 C1030 1.531 . S
C1027 C1026 1.369 . S
C1027 C1028 1.410 . S
C1027 C1035 1.503 1_455 S
C1028 C1027 1.410 . S
C1028 C1029 1.392 . S
C1028 C1031 1.511 1_455 S
C1029 C1025 1.376 . S
C1029 C1028 1.392 . S
C1029 H1041 0.929 . S
C1030 C1026 1.531 . S
C1030 H1042 0.960 1_455 S
C1030 H1043 0.962 . S
C1030 H1044 0.960 . S
C1031 C1028 1.511 1_655 S
C1031 H1045 0.961 . S
C1031 H1046 0.961 . S
C1031 H1047 0.961 . S
C1032 C1033 1.370 . S
C1032 C1034 1.363 1_655 S
C1032 H1048 0.923 1_655 S
C1033 C1032 1.370 . S
C1033 C1037 1.408 . S
C1034 C1032 1.363 1_455 S
C1034 C1035 1.370 1_455 S
C1034 C1038 1.524 . S
C1035 C1027 1.503 1_655 S
C1035 C1034 1.370 1_655 S
C1035 C1036 1.403 . S
C1036 C1035 1.403 . S
C1036 C1037 1.404 . S
C1036 C1039 1.539 . S
C1037 C1033 1.408 . S
C1037 C1036 1.404 . S
C1037 H1049 0.930 . S
C1038 C1034 1.524 . S
C1038 H1050 0.956 . S
C1038 H1051 0.961 . S
C1038 H1052 0.961 . S
C1039 C1036 1.539 . S
C1039 H1053 0.958 . S
C1039 H1054 0.961 . S
C1039 H1055 0.960 . S
H1040 C1024 0.931 . S
H1041 C1029 0.929 . S
H1042 C1030 0.960 1_655 S
H1043 C1030 0.962 . S
H1044 C1030 0.960 . S
H1045 C1031 0.961 . S
H1046 C1031 0.961 . S
H1047 C1031 0.961 . S
H1048 C1032 0.923 1_455 S
H1049 C1037 0.930 . S
H1050 C1038 0.956 . S
H1051 C1038 0.961 . S
H1052 C1038 0.961 . S
H1053 C1039 0.958 . S
H1054 C1039 0.961 . S
H1055 C1039 0.960 . S
C1056 C1057 1.391 . S
C1056 C1058 1.394 . S
C1056 H1072 0.931 . S
C1057 C1056 1.391 . S
C1057 C1061 1.376 . S
C1058 C1056 1.394 . S
C1058 C1059 1.369 . S
C1058 C1062 1.531 . S
C1059 C1058 1.369 . S
C1059 C1060 1.410 . S
C1059 C1067 1.503 1_545 S
C1060 C1059 1.410 . S
C1060 C1061 1.392 . S
C1060 C1063 1.511 1_545 S
C1061 C1057 1.376 . S
C1061 C1060 1.392 . S
C1061 H1073 0.929 . S
C1062 C1058 1.531 . S
C1062 H1074 0.960 . S
C1062 H1075 0.962 . S
C1062 H1076 0.960 . S
C1063 C1060 1.511 1_565 S
C1063 H1077 0.961 . S
C1063 H1078 0.961 . S
C1063 H1079 0.961 . S
C1064 C1065 1.370 . S
C1064 C1066 1.363 . S
C1064 H1080 0.931 . S
C1065 C1064 1.370 . S
C1065 C1069 1.408 . S
C1066 C1064 1.363 . S
C1066 C1067 1.370 . S
C1066 C1070 1.524 1_565 S
C1067 C1059 1.503 1_565 S
C1067 C1066 1.370 . S
C1067 C1068 1.403 . S
C1068 C1067 1.403 . S
C1068 C1069 1.404 . S
C1068 C1071 1.539 . S
C1069 C1065 1.408 . S
C1069 C1068 1.404 . S
C1069 H1081 0.930 . S
C1070 C1066 1.524 1_545 S
C1070 H1082 0.956 . S
C1070 H1083 0.961 . S
C1070 H1084 0.948 1_545 S
C1071 C1068 1.539 . S
C1071 H1085 0.958 . S
C1071 H1086 0.961 . S
C1071 H1087 0.960 . S
H1072 C1056 0.931 . S
H1073 C1061 0.929 . S
H1074 C1062 0.960 . S
H1075 C1062 0.962 . S
H1076 C1062 0.960 . S
H1077 C1063 0.961 . S
H1078 C1063 0.961 . S
H1079 C1063 0.961 . S
H1080 C1064 0.931 . S
H1081 C1069 0.930 . S
H1082 C1070 0.956 . S
H1083 C1070 0.961 . S
H1084 C1070 0.948 1_565 S
H1085 C1071 0.958 . S
H1086 C1071 0.961 . S
H1087 C1071 0.960 . S
C1088 C1089 1.391 . S
C1088 C1090 1.394 . S
C1088 H1104 0.931 . S
C1089 C1088 1.391 . S
C1089 C1093 1.376 . S
C1090 C1088 1.394 . S
C1090 C1091 1.369 . S
C1090 C1094 1.531 . S
C1091 C1090 1.369 . S
C1091 C1092 1.410 . S
C1091 C1099 1.503 . S
C1092 C1091 1.410 . S
C1092 C1093 1.392 . S
C1092 C1095 1.511 . S
C1093 C1089 1.376 . S
C1093 C1092 1.392 . S
C1093 H1105 0.929 . S
C1094 C1090 1.531 . S
C1094 H1106 0.960 . S
C1094 H1107 0.962 . S
C1094 H1108 0.960 . S
C1095 C1092 1.511 . S
C1095 H1109 0.961 . S
C1095 H1110 0.961 . S
C1095 H1111 0.961 . S
C1096 C1097 1.370 . S
C1096 C1098 1.363 . S
C1096 H1112 0.931 . S
C1097 C1096 1.370 . S
C1097 C1101 1.408 . S
C1098 C1096 1.363 . S
C1098 C1099 1.370 . S
C1098 C1102 1.524 . S
C1099 C1091 1.503 . S
C1099 C1098 1.370 . S
C1099 C1100 1.403 . S
C1100 C1099 1.403 . S
C1100 C1101 1.404 . S
C1100 C1103 1.539 . S
C1101 C1097 1.408 . S
C1101 C1100 1.404 . S
C1101 H1113 0.930 . S
C1102 C1098 1.524 . S
C1102 H1114 0.956 . S
C1102 H1115 0.961 . S
C1102 H1116 0.961 . S
C1103 C1100 1.539 . S
C1103 H1117 0.958 . S
C1103 H1118 0.961 . S
C1103 H1119 0.960 . S
H1104 C1088 0.931 . S
H1105 C1093 0.929 . S
H1106 C1094 0.960 . S
H1107 C1094 0.962 . S
H1108 C1094 0.960 . S
H1109 C1095 0.961 . S
H1110 C1095 0.961 . S
H1111 C1095 0.961 . S
H1112 C1096 0.931 . S
H1113 C1101 0.930 . S
H1114 C1102 0.956 . S
H1115 C1102 0.961 . S
H1116 C1102 0.961 . S
H1117 C1103 0.958 . S
H1118 C1103 0.961 . S
H1119 C1103 0.960 . S
C1120 C1121 1.391 . S
C1120 C1122 1.394 . S
C1120 H1136 0.931 . S
C1121 C1120 1.391 . S
C1121 C1125 1.376 . S
C1122 C1120 1.394 . S
C1122 C1123 1.369 . S
C1122 C1126 1.531 . S
C1123 C1122 1.369 . S
C1123 C1124 1.410 . S
C1123 C1131 1.503 1_655 S
C1124 C1123 1.410 . S
C1124 C1125 1.392 . S
C1124 C1127 1.511 1_655 S
C1125 C1121 1.376 . S
C1125 C1124 1.392 . S
C1125 H1137 0.929 . S
C1126 C1122 1.531 . S
C1126 H1138 0.960 . S
C1126 H1139 0.962 . S
C1126 H1140 0.960 . S
C1127 C1124 1.511 1_455 S
C1127 H1141 0.961 . S
C1127 H1142 0.961 . S
C1127 H1143 0.961 . S
C1128 C1129 1.370 . S
C1128 C1130 1.363 . S
C1128 H1144 0.931 . S
C1129 C1128 1.370 . S
C1129 C1133 1.408 . S
C1130 C1128 1.363 . S
C1130 C1131 1.370 . S
C1130 C1134 1.524 1_455 S
C1131 C1123 1.503 1_455 S
C1131 C1130 1.370 . S
C1131 C1132 1.403 . S
C1132 C1131 1.403 . S
C1132 C1133 1.404 . S
C1132 C1135 1.539 . S
C1133 C1129 1.408 . S
C1133 C1132 1.404 . S
C1133 H1145 0.930 . S
C1134 C1130 1.524 1_655 S
C1134 H1146 0.956 . S
C1134 H1147 0.961 . S
C1134 H1148 0.961 . S
C1135 C1132 1.539 . S
C1135 H1149 0.958 1_556 S
C1135 H1150 0.961 . S
C1135 H1151 0.960 . S
H1136 C1120 0.931 . S
H1137 C1125 0.929 . S
H1138 C1126 0.960 . S
H1139 C1126 0.962 . S
H1140 C1126 0.960 . S
H1141 C1127 0.961 . S
H1142 C1127 0.961 . S
H1143 C1127 0.961 . S
H1144 C1128 0.931 . S
H1145 C1133 0.930 . S
H1146 C1134 0.956 . S
H1147 C1134 0.961 . S
H1148 C1134 0.961 . S
H1149 C1135 0.958 1_554 S
H1150 C1135 0.961 . S
H1151 C1135 0.960 . S
C1152 C1153 1.391 . S
C1152 C1154 1.394 . S
C1152 H1168 0.931 . S
C1153 C1152 1.391 . S
C1153 C1157 1.376 . S
C1154 C1152 1.394 . S
C1154 C1155 1.369 . S
C1154 C1158 1.531 1_455 S
C1155 C1154 1.369 . S
C1155 C1156 1.410 . S
C1155 C1163 1.503 1_455 S
C1156 C1155 1.410 . S
C1156 C1157 1.392 . S
C1156 C1159 1.511 . S
C1157 C1153 1.376 . S
C1157 C1156 1.392 . S
C1157 H1169 0.929 . S
C1158 C1154 1.531 1_655 S
C1158 H1170 0.960 . S
C1158 H1171 0.962 . S
C1158 H1172 0.960 . S
C1159 C1156 1.511 . S
C1159 H1173 0.961 . S
C1159 H1174 0.961 . S
C1159 H1175 0.961 . S
C1160 C1161 1.370 . S
C1160 C1162 1.363 . S
C1160 H1176 0.931 . S
C1161 C1160 1.370 . S
C1161 C1165 1.408 . S
C1162 C1160 1.363 . S
C1162 C1163 1.370 . S
C1162 C1166 1.524 . S
C1163 C1155 1.503 1_655 S
C1163 C1162 1.370 . S
C1163 C1164 1.403 . S
C1164 C1163 1.403 . S
C1164 C1165 1.404 . S
C1164 C1167 1.539 1_655 S
C1165 C1161 1.408 . S
C1165 C1164 1.404 . S
C1165 H1177 0.930 . S
C1166 C1162 1.524 . S
C1166 H1178 0.956 . S
C1166 H1179 0.961 . S
C1166 H1180 0.961 . S
C1167 C1164 1.539 1_455 S
C1167 H1181 0.958 . S
C1167 H1182 0.961 . S
C1167 H1183 0.960 . S
H1168 C1152 0.931 . S
H1169 C1157 0.929 . S
H1170 C1158 0.960 . S
H1171 C1158 0.962 . S
H1172 C1158 0.960 . S
H1173 C1159 0.961 . S
H1174 C1159 0.961 . S
H1175 C1159 0.961 . S
H1176 C1160 0.931 . S
H1177 C1165 0.930 . S
H1178 C1166 0.956 . S
H1179 C1166 0.961 . S
H1180 C1166 0.961 . S
H1181 C1167 0.958 . S
H1182 C1167 0.961 . S
H1183 C1167 0.960 . S
C1184 C1185 1.391 . S
C1184 C1186 1.394 . S
C1184 H1200 0.931 . S
C1185 C1184 1.391 . S
C1185 C1189 1.376 . S
C1186 C1184 1.394 . S
C1186 C1187 1.369 . S
C1186 C1190 1.531 . S
C1187 C1186 1.369 . S
C1187 C1188 1.410 . S
C1187 C1195 1.503 1_565 S
C1188 C1187 1.410 . S
C1188 C1189 1.392 . S
C1188 C1191 1.511 1_565 S
C1189 C1185 1.376 . S
C1189 C1188 1.392 . S
C1189 H1201 0.929 . S
C1190 C1186 1.531 . S
C1190 H1202 0.960 . S
C1190 H1203 0.962 . S
C1190 H1204 0.960 . S
C1191 C1188 1.511 1_545 S
C1191 H1205 0.961 . S
C1191 H1206 0.961 . S
C1191 H1207 0.961 . S
C1192 C1193 1.370 . S
C1192 C1194 1.363 . S
C1192 H1208 0.931 . S
C1193 C1192 1.370 . S
C1193 C1197 1.408 . S
C1194 C1192 1.363 . S
C1194 C1195 1.370 . S
C1194 C1198 1.524 . S
C1195 C1187 1.503 1_545 S
C1195 C1194 1.370 . S
C1195 C1196 1.403 . S
C1196 C1195 1.403 . S
C1196 C1197 1.404 . S
C1196 C1199 1.539 1_545 S
C1197 C1193 1.408 . S
C1197 C1196 1.404 . S
C1197 H1209 0.930 . S
C1198 C1194 1.524 . S
C1198 H1210 0.956 . S
C1198 H1211 0.961 . S
C1198 H1212 0.961 . S
C1199 C1196 1.539 1_565 S
C1199 H1213 0.958 . S
C1199 H1214 0.961 . S
C1199 H1215 0.960 . S
H1200 C1184 0.931 . S
H1201 C1189 0.929 . S
H1202 C1190 0.960 . S
H1203 C1190 0.962 . S
H1204 C1190 0.960 . S
H1205 C1191 0.961 . S
H1206 C1191 0.961 . S
H1207 C1191 0.961 . S
H1208 C1192 0.931 . S
H1209 C1197 0.930 . S
H1210 C1198 0.956 . S
H1211 C1198 0.961 . S
H1212 C1198 0.961 . S
H1213 C1199 0.958 . S
H1214 C1199 0.961 . S
H1215 C1199 0.960 . S
C1216 C1217 1.391 . S
C1216 C1218 1.394 . S
C1216 H1232 0.931 . S
C1217 C1216 1.391 . S
C1217 C1221 1.376 . S
C1218 C1216 1.394 . S
C1218 C1219 1.369 . S
C1218 C1222 1.531 . S
C1219 C1218 1.369 . S
C1219 C1220 1.410 . S
C1219 C1227 1.503 . S
C1220 C1219 1.410 . S
C1220 C1221 1.392 . S
C1220 C1223 1.511 . S
C1221 C1217 1.376 . S
C1221 C1220 1.392 . S
C1221 H1233 0.929 . S
C1222 C1218 1.531 . S
C1222 H1234 0.960 . S
C1222 H1235 0.962 . S
C1222 H1236 0.960 . S
C1223 C1220 1.511 . S
C1223 H1237 0.961 . S
C1223 H1238 0.961 . S
C1223 H1239 0.961 . S
C1224 C1225 1.370 . S
C1224 C1226 1.363 . S
C1224 H1240 0.931 . S
C1225 C1224 1.370 . S
C1225 C1229 1.408 . S
C1226 C1224 1.363 . S
C1226 C1227 1.370 . S
C1226 C1230 1.524 . S
C1227 C1219 1.503 . S
C1227 C1226 1.370 . S
C1227 C1228 1.403 . S
C1228 C1227 1.403 . S
C1228 C1229 1.404 . S
C1228 C1231 1.539 . S
C1229 C1225 1.408 . S
C1229 C1228 1.404 . S
C1229 H1241 0.930 . S
C1230 C1226 1.524 . S
C1230 H1242 0.956 . S
C1230 H1243 0.961 . S
C1230 H1244 0.961 . S
C1231 C1228 1.539 . S
C1231 H1245 0.958 . S
C1231 H1246 0.961 . S
C1231 H1247 0.960 . S
H1232 C1216 0.931 . S
H1233 C1221 0.929 . S
H1234 C1222 0.960 . S
H1235 C1222 0.962 . S
H1236 C1222 0.960 . S
H1237 C1223 0.961 . S
H1238 C1223 0.961 . S
H1239 C1223 0.961 . S
H1240 C1224 0.931 . S
H1241 C1229 0.930 . S
H1242 C1230 0.956 . S
H1243 C1230 0.961 . S
H1244 C1230 0.961 . S
H1245 C1231 0.958 . S
H1246 C1231 0.961 . S
H1247 C1231 0.960 . S
C1248 C1249 1.391 . S
C1248 C1250 1.394 . S
C1248 H1264 0.931 . S
C1249 C1248 1.391 . S
C1249 C1253 1.376 . S
C1250 C1248 1.394 . S
C1250 C1251 1.369 . S
C1250 C1254 1.531 1_565 S
C1251 C1250 1.369 . S
C1251 C1252 1.410 . S
C1251 C1259 1.503 1_565 S
C1252 C1251 1.410 . S
C1252 C1253 1.392 . S
C1252 C1255 1.511 . S
C1253 C1249 1.376 . S
C1253 C1252 1.392 . S
C1253 H1265 0.929 . S
C1254 C1250 1.531 1_545 S
C1254 H1266 0.960 . S
C1254 H1267 0.962 . S
C1254 H1268 0.960 . S
C1255 C1252 1.511 . S
C1255 H1269 0.961 . S
C1255 H1270 0.961 . S
C1255 H1271 0.961 . S
C1256 C1257 1.370 . S
C1256 C1258 1.363 . S
C1256 H1272 0.931 . S
C1257 C1256 1.370 . S
C1257 C1261 1.408 . S
C1258 C1256 1.363 . S
C1258 C1259 1.370 . S
C1258 C1262 1.524 1_545 S
C1259 C1251 1.503 1_545 S
C1259 C1258 1.370 . S
C1259 C1260 1.403 . S
C1260 C1259 1.403 . S
C1260 C1261 1.404 . S
C1260 C1263 1.539 . S
C1261 C1257 1.408 . S
C1261 C1260 1.404 . S
C1261 H1273 0.930 . S
C1262 C1258 1.524 1_565 S
C1262 H1274 0.956 . S
C1262 H1275 0.961 . S
C1262 H1276 0.961 . S
C1263 C1260 1.539 . S
C1263 H1277 0.958 . S
C1263 H1278 0.961 . S
C1263 H1279 0.960 . S
H1264 C1248 0.931 . S
H1265 C1253 0.929 . S
H1266 C1254 0.960 . S
H1267 C1254 0.962 . S
H1268 C1254 0.960 . S
H1269 C1255 0.961 . S
H1270 C1255 0.961 . S
H1271 C1255 0.961 . S
H1272 C1256 0.931 . S
H1273 C1261 0.930 . S
H1274 C1262 0.956 . S
H1275 C1262 0.961 . S
H1276 C1262 0.961 . S
H1277 C1263 0.958 . S
H1278 C1263 0.961 . S
H1279 C1263 0.960 . S
C1280 C1281 1.391 . S
C1280 C1282 1.394 . S
C1280 H1296 0.931 . S
C1281 C1280 1.391 . S
C1281 C1285 1.376 . S
C1282 C1280 1.394 . S
C1282 C1283 1.369 . S
C1282 C1286 1.531 . S
C1283 C1282 1.369 . S
C1283 C1284 1.410 . S
C1283 C1291 1.503 . S
C1284 C1283 1.410 . S
C1284 C1285 1.392 . S
C1284 C1287 1.511 . S
C1285 C1281 1.376 . S
C1285 C1284 1.392 . S
C1285 H1297 0.929 . S
C1286 C1282 1.531 . S
C1286 H1298 0.960 . S
C1286 H1299 0.962 . S
C1286 H1300 0.960 . S
C1287 C1284 1.511 . S
C1287 H1301 0.961 . S
C1287 H1302 0.961 . S
C1287 H1303 0.961 . S
C1288 C1289 1.370 . S
C1288 C1290 1.363 . S
C1288 H1304 0.931 . S
C1289 C1288 1.370 . S
C1289 C1293 1.408 . S
C1290 C1288 1.363 . S
C1290 C1291 1.370 . S
C1290 C1294 1.524 . S
C1291 C1283 1.503 . S
C1291 C1290 1.370 . S
C1291 C1292 1.403 . S
C1292 C1291 1.403 . S
C1292 C1293 1.404 . S
C1292 C1295 1.539 . S
C1293 C1289 1.408 . S
C1293 C1292 1.404 . S
C1293 H1305 0.930 . S
C1294 C1290 1.524 . S
C1294 H1306 0.956 . S
C1294 H1307 0.961 . S
C1294 H1308 0.961 . S
C1295 C1292 1.539 . S
C1295 H1309 0.958 . S
C1295 H1310 0.961 . S
C1295 H1311 0.960 . S
H1296 C1280 0.931 . S
H1297 C1285 0.929 . S
H1298 C1286 0.960 . S
H1299 C1286 0.962 . S
H1300 C1286 0.960 . S
H1301 C1287 0.961 . S
H1302 C1287 0.961 . S
H1303 C1287 0.961 . S
H1304 C1288 0.931 . S
H1305 C1293 0.930 . S
H1306 C1294 0.956 . S
H1307 C1294 0.961 . S
H1308 C1294 0.961 . S
H1309 C1295 0.958 . S
H1310 C1295 0.961 . S
H1311 C1295 0.960 . S
C1312 C1313 1.391 . S
C1312 C1314 1.394 . S
C1312 H1328 0.931 . S
C1313 C1312 1.391 . S
C1313 C1317 1.376 . S
C1314 C1312 1.394 . S
C1314 C1315 1.369 . S
C1314 C1318 1.531 . S
C1315 C1314 1.369 . S
C1315 C1316 1.410 . S
C1315 C1323 1.503 1_655 S
C1316 C1315 1.410 . S
C1316 C1317 1.392 . S
C1316 C1319 1.511 . S
C1317 C1313 1.376 . S
C1317 C1316 1.392 . S
C1317 H1329 0.929 . S
C1318 C1314 1.531 . S
C1318 H1330 0.960 . S
C1318 H1331 0.962 1_655 S
C1318 H1332 0.960 . S
C1319 C1316 1.511 . S
C1319 H1333 0.961 . S
C1319 H1334 0.961 . S
C1319 H1335 0.961 . S
C1320 C1321 1.370 . S
C1320 C1322 1.363 . S
C1320 H1336 0.931 . S
C1321 C1320 1.370 . S
C1321 C1325 1.408 . S
C1322 C1320 1.363 . S
C1322 C1323 1.370 . S
C1322 C1326 1.524 . S
C1323 C1315 1.503 1_455 S
C1323 C1322 1.370 . S
C1323 C1324 1.403 . S
C1324 C1323 1.403 . S
C1324 C1325 1.404 . S
C1324 C1327 1.539 1_455 S
C1325 C1321 1.408 . S
C1325 C1324 1.404 . S
C1325 H1337 0.930 . S
C1326 C1322 1.524 . S
C1326 H1338 0.956 . S
C1326 H1339 0.961 . S
C1326 H1340 0.961 . S
C1327 C1324 1.539 1_655 S
C1327 H1341 0.958 . S
C1327 H1342 0.961 . S
C1327 H1343 0.960 . S
H1328 C1312 0.931 . S
H1329 C1317 0.929 . S
H1330 C1318 0.960 . S
H1331 C1318 0.962 1_455 S
H1332 C1318 0.960 . S
H1333 C1319 0.961 . S
H1334 C1319 0.961 . S
H1335 C1319 0.961 . S
H1336 C1320 0.931 . S
H1337 C1325 0.930 . S
H1338 C1326 0.956 . S
H1339 C1326 0.961 . S
H1340 C1326 0.961 . S
H1341 C1327 0.958 . S
H1342 C1327 0.961 . S
H1343 C1327 0.960 . S
C1344 C1345 1.391 . S
C1344 C1346 1.394 . S
C1344 H1360 0.931 . S
C1345 C1344 1.391 . S
C1345 C1349 1.376 . S
C1346 C1344 1.394 . S
C1346 C1347 1.369 . S
C1346 C1350 1.531 1_545 S
C1347 C1346 1.369 . S
C1347 C1348 1.410 . S
C1347 C1355 1.503 1_545 S
C1348 C1347 1.410 . S
C1348 C1349 1.392 . S
C1348 C1351 1.511 . S
C1349 C1345 1.376 . S
C1349 C1348 1.392 . S
C1349 H1361 0.929 . S
C1350 C1346 1.531 1_565 S
C1350 H1362 0.960 . S
C1350 H1363 0.962 . S
C1350 H1364 0.960 . S
C1351 C1348 1.511 . S
C1351 H1365 0.961 . S
C1351 H1366 0.961 . S
C1351 H1367 0.961 . S
C1352 C1353 1.370 . S
C1352 C1354 1.363 . S
C1352 H1368 0.931 . S
C1353 C1352 1.370 . S
C1353 C1357 1.408 . S
C1354 C1352 1.363 . S
C1354 C1355 1.370 . S
C1354 C1358 1.524 . S
C1355 C1347 1.503 1_565 S
C1355 C1354 1.370 . S
C1355 C1356 1.403 . S
C1356 C1355 1.403 . S
C1356 C1357 1.404 . S
C1356 C1359 1.572 . S
C1357 C1353 1.408 . S
C1357 C1356 1.404 . S
C1357 H1369 0.930 . S
C1358 C1354 1.524 . S
C1358 H1370 0.956 . S
C1358 H1371 0.960 . S
C1358 H1372 0.961 . S
C1359 C1356 1.572 . S
C1359 H1373 0.958 . S
C1359 H1374 0.956 . S
C1359 H1375 0.934 1_565 S
H1360 C1344 0.931 . S
H1361 C1349 0.929 . S
H1362 C1350 0.960 . S
H1363 C1350 0.962 . S
H1364 C1350 0.960 . S
H1365 C1351 0.961 . S
H1366 C1351 0.961 . S
H1367 C1351 0.961 . S
H1368 C1352 0.931 . S
H1369 C1357 0.930 . S
H1370 C1358 0.956 . S
H1371 C1358 0.960 . S
H1372 C1358 0.961 . S
H1373 C1359 0.958 . S
H1374 C1359 0.956 . S
H1375 C1359 0.934 1_545 S
C1376 C1377 1.391 . S
C1376 C1378 1.394 . S
C1376 H1392 0.931 . S
C1377 C1376 1.391 . S
C1377 C1381 1.376 . S
C1378 C1376 1.394 . S
C1378 C1379 1.369 . S
C1378 C1382 1.531 . S
C1379 C1378 1.369 . S
C1379 C1380 1.410 . S
C1379 C1387 1.503 . S
C1380 C1379 1.410 . S
C1380 C1381 1.392 . S
C1380 C1383 1.511 . S
C1381 C1377 1.376 . S
C1381 C1380 1.392 . S
C1381 H1393 0.929 . S
C1382 C1378 1.531 . S
C1382 H1394 0.960 . S
C1382 H1395 0.962 . S
C1382 H1396 0.960 . S
C1383 C1380 1.511 . S
C1383 H1397 0.961 . S
C1383 H1398 0.961 . S
C1383 H1399 0.961 . S
C1384 C1385 1.370 . S
C1384 C1386 1.363 . S
C1384 H1400 0.931 . S
C1385 C1384 1.370 . S
C1385 C1389 1.408 . S
C1386 C1384 1.363 . S
C1386 C1387 1.370 . S
C1386 C1390 1.524 . S
C1387 C1379 1.503 . S
C1387 C1386 1.370 . S
C1387 C1388 1.403 . S
C1388 C1387 1.403 . S
C1388 C1389 1.404 . S
C1388 C1391 1.539 . S
C1389 C1385 1.408 . S
C1389 C1388 1.404 . S
C1389 H1401 0.930 . S
C1390 C1386 1.524 . S
C1390 H1402 0.956 . S
C1390 H1403 0.961 . S
C1390 H1404 0.961 . S
C1391 C1388 1.539 . S
C1391 H1405 0.958 . S
C1391 H1406 0.961 . S
C1391 H1407 0.960 . S
H1392 C1376 0.931 . S
H1393 C1381 0.929 . S
H1394 C1382 0.960 . S
H1395 C1382 0.962 . S
H1396 C1382 0.960 . S
H1397 C1383 0.961 . S
H1398 C1383 0.961 . S
H1399 C1383 0.961 . S
H1400 C1384 0.931 . S
H1401 C1389 0.930 . S
H1402 C1390 0.956 . S
H1403 C1390 0.961 . S
H1404 C1390 0.961 . S
H1405 C1391 0.958 . S
H1406 C1391 0.961 . S
H1407 C1391 0.960 . S
C1408 C1409 1.391 . S
C1408 C1410 1.394 . S
C1408 H1424 0.931 . S
C1409 C1408 1.391 . S
C1409 C1413 1.376 . S
C1410 C1408 1.394 . S
C1410 C1411 1.369 . S
C1410 C1414 1.531 . S
C1411 C1410 1.369 . S
C1411 C1412 1.410 . S
C1411 C1419 1.503 1_455 S
C1412 C1411 1.410 . S
C1412 C1413 1.392 . S
C1412 C1415 1.511 1_455 S
C1413 C1409 1.376 . S
C1413 C1412 1.392 . S
C1413 H1425 0.929 . S
C1414 C1410 1.531 . S
C1414 H1426 0.960 . S
C1414 H1427 0.962 . S
C1414 H1428 0.960 . S
C1415 C1412 1.511 1_655 S
C1415 H1429 0.961 . S
C1415 H1430 0.961 . S
C1415 H1431 0.961 . S
C1416 C1417 1.370 . S
C1416 C1418 1.363 . S
C1416 H1432 0.931 . S
C1417 C1416 1.370 . S
C1417 C1421 1.408 . S
C1418 C1416 1.363 . S
C1418 C1419 1.370 . S
C1418 C1422 1.524 . S
C1419 C1411 1.503 1_655 S
C1419 C1418 1.370 . S
C1419 C1420 1.403 . S
C1420 C1419 1.403 . S
C1420 C1421 1.404 . S
C1420 C1423 1.539 . S
C1421 C1417 1.408 . S
C1421 C1420 1.404 . S
C1421 H1433 0.930 . S
C1422 C1418 1.524 . S
C1422 H1434 0.956 1_655 S
C1422 H1435 0.961 . S
C1422 H1436 0.961 . S
C1423 C1420 1.539 . S
C1423 H1437 0.958 . S
C1423 H1438 0.961 . S
C1423 H1439 0.960 . S
H1424 C1408 0.931 . S
H1425 C1413 0.929 . S
H1426 C1414 0.960 . S
H1427 C1414 0.962 . S
H1428 C1414 0.960 . S
H1429 C1415 0.961 . S
H1430 C1415 0.961 . S
H1431 C1415 0.961 . S
H1432 C1416 0.931 . S
H1433 C1421 0.930 . S
H1434 C1422 0.956 1_455 S
H1435 C1422 0.961 . S
H1436 C1422 0.961 . S
H1437 C1423 0.958 . S
H1438 C1423 0.961 . S
H1439 C1423 0.960 . S
C1440 C1441 1.391 . S
C1440 C1442 1.394 . S
C1440 H1456 0.931 . S
C1441 C1440 1.391 . S
C1441 C1445 1.376 . S
C1442 C1440 1.394 . S
C1442 C1443 1.369 . S
C1442 C1446 1.531 . S
C1443 C1442 1.369 . S
C1443 C1444 1.410 . S
C1443 C1451 1.503 . S
C1444 C1443 1.410 . S
C1444 C1445 1.392 . S
C1444 C1447 1.511 . S
C1445 C1441 1.376 . S
C1445 C1444 1.392 . S
C1445 H1457 0.929 . S
C1446 C1442 1.531 . S
C1446 H1458 0.960 . S
C1446 H1459 0.962 . S
C1446 H1460 0.960 . S
C1447 C1444 1.511 . S
C1447 H1461 0.961 . S
C1447 H1462 0.961 . S
C1447 H1463 0.961 . S
C1448 C1449 1.370 . S
C1448 C1450 1.363 . S
C1448 H1464 0.931 . S
C1449 C1448 1.370 . S
C1449 C1453 1.408 . S
C1450 C1448 1.363 . S
C1450 C1451 1.370 . S
C1450 C1454 1.524 . S
C1451 C1443 1.503 . S
C1451 C1450 1.370 . S
C1451 C1452 1.403 . S
C1452 C1451 1.403 . S
C1452 C1453 1.404 . S
C1452 C1455 1.539 . S
C1453 C1449 1.408 . S
C1453 C1452 1.404 . S
C1453 H1465 0.930 . S
C1454 C1450 1.524 . S
C1454 H1466 0.956 . S
C1454 H1467 0.961 . S
C1454 H1468 0.961 . S
C1455 C1452 1.539 . S
C1455 H1469 0.958 . S
C1455 H1470 0.961 . S
C1455 H1471 0.960 . S
H1456 C1440 0.931 . S
H1457 C1445 0.929 . S
H1458 C1446 0.960 . S
H1459 C1446 0.962 . S
H1460 C1446 0.960 . S
H1461 C1447 0.961 . S
H1462 C1447 0.961 . S
H1463 C1447 0.961 . S
H1464 C1448 0.931 . S
H1465 C1453 0.930 . S
H1466 C1454 0.956 . S
H1467 C1454 0.961 . S
H1468 C1454 0.961 . S
H1469 C1455 0.958 . S
H1470 C1455 0.961 . S
H1471 C1455 0.960 . S
C1472 C1473 1.391 . S
C1472 C1474 1.394 . S
C1472 H1488 0.931 . S
C1473 C1472 1.391 . S
C1473 C1477 1.376 . S
C1474 C1472 1.394 . S
C1474 C1475 1.369 . S
C1474 C1478 1.531 . S
C1475 C1474 1.369 . S
C1475 C1476 1.410 . S
C1475 C1483 1.503 . S
C1476 C1475 1.410 . S
C1476 C1477 1.392 . S
C1476 C1479 1.511 . S
C1477 C1473 1.376 . S
C1477 C1476 1.392 . S
C1477 H1489 0.929 . S
C1478 C1474 1.531 . S
C1478 H1490 0.960 . S
C1478 H1491 0.962 . S
C1478 H1492 0.960 . S
C1479 C1476 1.511 . S
C1479 H1493 0.961 . S
C1479 H1494 0.961 . S
C1479 H1495 0.961 . S
C1480 C1481 1.370 . S
C1480 C1482 1.363 . S
C1480 H1496 0.931 . S
C1481 C1480 1.370 . S
C1481 C1485 1.408 . S
C1482 C1480 1.363 . S
C1482 C1483 1.370 . S
C1482 C1486 1.524 . S
C1483 C1475 1.503 . S
C1483 C1482 1.370 . S
C1483 C1484 1.403 . S
C1484 C1483 1.403 . S
C1484 C1485 1.404 . S
C1484 C1487 1.539 . S
C1485 C1481 1.408 . S
C1485 C1484 1.404 . S
C1485 H1497 0.930 . S
C1486 C1482 1.524 . S
C1486 H1498 0.956 . S
C1486 H1499 0.961 . S
C1486 H1500 0.961 . S
C1487 C1484 1.539 . S
C1487 H1501 0.958 . S
C1487 H1502 0.961 . S
C1487 H1503 0.960 . S
H1488 C1472 0.931 . S
H1489 C1477 0.929 . S
H1490 C1478 0.960 . S
H1491 C1478 0.962 . S
H1492 C1478 0.960 . S
H1493 C1479 0.961 . S
H1494 C1479 0.961 . S
H1495 C1479 0.961 . S
H1496 C1480 0.931 . S
H1497 C1485 0.930 . S
H1498 C1486 0.956 . S
H1499 C1486 0.961 . S
H1500 C1486 0.961 . S
H1501 C1487 0.958 . S
H1502 C1487 0.961 . S
H1503 C1487 0.960 . S
C1504 C1505 1.391 . S
C1504 C1506 1.394 . S
C1504 H1520 0.931 . S
C1505 C1504 1.391 . S
C1505 C1509 1.376 . S
C1506 C1504 1.394 . S
C1506 C1507 1.369 . S
C1506 C1510 1.531 . S
C1507 C1506 1.369 . S
C1507 C1508 1.410 . S
C1507 C1515 1.503 . S
C1508 C1507 1.410 . S
C1508 C1509 1.392 . S
C1508 C1511 1.511 . S
C1509 C1505 1.376 . S
C1509 C1508 1.392 . S
C1509 H1521 0.929 . S
C1510 C1506 1.531 . S
C1510 H1522 0.960 . S
C1510 H1523 0.962 . S
C1510 H1524 0.960 . S
C1511 C1508 1.511 . S
C1511 H1525 0.961 . S
C1511 H1526 0.961 . S
C1511 H1527 0.961 . S
C1512 C1513 1.370 . S
C1512 C1514 1.363 . S
C1512 H1528 0.931 . S
C1513 C1512 1.370 . S
C1513 C1517 1.408 . S
C1514 C1512 1.363 . S
C1514 C1515 1.370 . S
C1514 C1518 1.524 . S
C1515 C1507 1.503 . S
C1515 C1514 1.370 . S
C1515 C1516 1.403 . S
C1516 C1515 1.403 . S
C1516 C1517 1.404 . S
C1516 C1519 1.539 . S
C1517 C1513 1.408 . S
C1517 C1516 1.404 . S
C1517 H1529 0.930 . S
C1518 C1514 1.524 . S
C1518 H1530 0.956 . S
C1518 H1531 0.961 . S
C1518 H1532 0.961 . S
C1519 C1516 1.539 . S
C1519 H1533 0.958 . S
C1519 H1534 0.961 . S
C1519 H1535 0.960 . S
H1520 C1504 0.931 . S
H1521 C1509 0.929 . S
H1522 C1510 0.960 . S
H1523 C1510 0.962 . S
H1524 C1510 0.960 . S
H1525 C1511 0.961 . S
H1526 C1511 0.961 . S
H1527 C1511 0.961 . S
H1528 C1512 0.931 . S
H1529 C1517 0.930 . S
H1530 C1518 0.956 . S
H1531 C1518 0.961 . S
H1532 C1518 0.961 . S
H1533 C1519 0.958 . S
H1534 C1519 0.961 . S
H1535 C1519 0.960 . S
C1536 C1537 1.391 . S
C1536 C1538 1.394 . S
C1536 H1552 0.931 . S
C1537 C1536 1.391 . S
C1537 C1541 1.376 . S
C1538 C1536 1.394 . S
C1538 C1539 1.369 . S
C1538 C1542 1.531 . S
C1539 C1538 1.369 . S
C1539 C1540 1.410 . S
C1539 C1547 1.503 . S
C1540 C1539 1.410 . S
C1540 C1541 1.392 . S
C1540 C1543 1.511 . S
C1541 C1537 1.376 . S
C1541 C1540 1.392 . S
C1541 H1553 0.929 . S
C1542 C1538 1.531 . S
C1542 H1554 0.960 . S
C1542 H1555 0.962 . S
C1542 H1556 0.960 . S
C1543 C1540 1.511 . S
C1543 H1557 0.961 . S
C1543 H1558 0.961 . S
C1543 H1559 0.961 . S
C1544 C1545 1.370 . S
C1544 C1546 1.363 . S
C1544 H1560 0.931 . S
C1545 C1544 1.370 . S
C1545 C1549 1.408 . S
C1546 C1544 1.363 . S
C1546 C1547 1.370 . S
C1546 C1550 1.524 . S
C1547 C1539 1.503 . S
C1547 C1546 1.370 . S
C1547 C1548 1.403 . S
C1548 C1547 1.403 . S
C1548 C1549 1.404 . S
C1548 C1551 1.539 . S
C1549 C1545 1.408 . S
C1549 C1548 1.404 . S
C1549 H1561 0.930 . S
C1550 C1546 1.524 . S
C1550 H1562 0.956 . S
C1550 H1563 0.961 . S
C1550 H1564 0.961 . S
C1551 C1548 1.539 . S
C1551 H1565 0.958 . S
C1551 H1566 0.961 . S
C1551 H1567 0.960 . S
H1552 C1536 0.931 . S
H1553 C1541 0.929 . S
H1554 C1542 0.960 . S
H1555 C1542 0.962 . S
H1556 C1542 0.960 . S
H1557 C1543 0.961 . S
H1558 C1543 0.961 . S
H1559 C1543 0.961 . S
H1560 C1544 0.931 . S
H1561 C1549 0.930 . S
H1562 C1550 0.956 . S
H1563 C1550 0.961 . S
H1564 C1550 0.961 . S
H1565 C1551 0.958 . S
H1566 C1551 0.961 . S
H1567 C1551 0.960 . S
C1568 C1569 1.391 . S
C1568 C1570 1.394 . S
C1568 H1584 0.931 . S
C1569 C1568 1.391 . S
C1569 C1573 1.376 . S
C1570 C1568 1.394 . S
C1570 C1571 1.369 . S
C1570 C1574 1.531 . S
C1571 C1570 1.369 . S
C1571 C1572 1.410 . S
C1571 C1579 1.503 . S
C1572 C1571 1.410 . S
C1572 C1573 1.392 . S
C1572 C1575 1.511 . S
C1573 C1569 1.376 . S
C1573 C1572 1.392 . S
C1573 H1585 0.929 . S
C1574 C1570 1.531 . S
C1574 H1586 0.960 . S
C1574 H1587 0.962 . S
C1574 H1588 0.960 . S
C1575 C1572 1.511 . S
C1575 H1589 0.961 . S
C1575 H1590 0.961 . S
C1575 H1591 0.961 . S
C1576 C1577 1.370 . S
C1576 C1578 1.363 . S
C1576 H1592 0.931 . S
C1577 C1576 1.370 . S
C1577 C1581 1.408 . S
C1578 C1576 1.363 . S
C1578 C1579 1.370 . S
C1578 C1582 1.524 . S
C1579 C1571 1.503 . S
C1579 C1578 1.370 . S
C1579 C1580 1.403 . S
C1580 C1579 1.403 . S
C1580 C1581 1.404 . S
C1580 C1583 1.539 . S
C1581 C1577 1.408 . S
C1581 C1580 1.404 . S
C1581 H1593 0.930 . S
C1582 C1578 1.524 . S
C1582 H1594 0.956 . S
C1582 H1595 0.961 . S
C1582 H1596 0.961 . S
C1583 C1580 1.539 . S
C1583 H1597 0.958 . S
C1583 H1598 0.961 . S
C1583 H1599 0.960 . S
H1584 C1568 0.931 . S
H1585 C1573 0.929 . S
H1586 C1574 0.960 . S
H1587 C1574 0.962 . S
H1588 C1574 0.960 . S
H1589 C1575 0.961 . S
H1590 C1575 0.961 . S
H1591 C1575 0.961 . S
H1592 C1576 0.931 . S
H1593 C1581 0.930 . S
H1594 C1582 0.956 . S
H1595 C1582 0.961 . S
H1596 C1582 0.961 . S
H1597 C1583 0.958 . S
H1598 C1583 0.961 . S
H1599 C1583 0.960 . S
C1600 C1601 1.391 . S
C1600 C1602 1.394 . S
C1600 H1616 0.931 . S
C1601 C1600 1.391 . S
C1601 C1605 1.376 . S
C1602 C1600 1.394 . S
C1602 C1603 1.369 . S
C1602 C1606 1.531 . S
C1603 C1602 1.369 . S
C1603 C1604 1.410 . S
C1603 C1611 1.503 . S
C1604 C1603 1.410 . S
C1604 C1605 1.392 . S
C1604 C1607 1.511 . S
C1605 C1601 1.376 . S
C1605 C1604 1.392 . S
C1605 H1617 0.929 . S
C1606 C1602 1.531 . S
C1606 H1618 0.960 . S
C1606 H1619 0.962 . S
C1606 H1620 0.960 . S
C1607 C1604 1.511 . S
C1607 H1621 0.961 . S
C1607 H1622 0.961 . S
C1607 H1623 0.961 . S
C1608 C1609 1.370 . S
C1608 C1610 1.363 . S
C1608 H1624 0.931 . S
C1609 C1608 1.370 . S
C1609 C1613 1.408 . S
C1610 C1608 1.363 . S
C1610 C1611 1.370 . S
C1610 C1614 1.524 . S
C1611 C1603 1.503 . S
C1611 C1610 1.370 . S
C1611 C1612 1.403 . S
C1612 C1611 1.403 . S
C1612 C1613 1.404 . S
C1612 C1615 1.539 . S
C1613 C1609 1.408 . S
C1613 C1612 1.404 . S
C1613 H1625 0.930 . S
C1614 C1610 1.524 . S
C1614 H1626 0.956 . S
C1614 H1627 0.961 . S
C1614 H1628 0.961 . S
C1615 C1612 1.539 . S
C1615 H1629 0.958 . S
C1615 H1630 0.961 . S
C1615 H1631 0.960 . S
H1616 C1600 0.931 . S
H1617 C1605 0.929 . S
H1618 C1606 0.960 . S
H1619 C1606 0.962 . S
H1620 C1606 0.960 . S
H1621 C1607 0.961 . S
H1622 C1607 0.961 . S
H1623 C1607 0.961 . S
H1624 C1608 0.931 . S
H1625 C1613 0.930 . S
H1626 C1614 0.956 . S
H1627 C1614 0.961 . S
H1628 C1614 0.961 . S
H1629 C1615 0.958 . S
H1630 C1615 0.961 . S
H1631 C1615 0.960 . S
C481 C23 0.951 . S
C489 C343 0.926 . S
C513 C63 0.909 . S
C521 C383 0.934 . S
C545 C103 0.943 . S
C553 C423 0.925 . S
C577 C463 0.929 . S
C585 C143 0.946 . S
C609 C183 0.939 . S
C617 C263 0.924 . S
C641 C303 0.936 . S
C649 C223 0.946 . S
C673 C404 1.448 . S
C681 C4 1.431 . S
C705 C444 1.431 . S
C713 C44 1.413 . S
C737 C84 1.422 . S
C745 C244 1.425 . S
C769 C284 1.421 . S
C777 C124 1.424 . S
C801 C324 1.412 . S
C809 C164 1.412 . S
C833 C204 1.414 . S
C841 C364 1.411 . S
C865 C300 4.444 . S
C873 C20 4.443 . S
C897 C340 4.444 . S
C905 C60 4.441 . S
C929 C380 4.425 . S
C937 C100 4.439 . S
C961 C140 4.429 . S
C969 C420 4.443 . S
C993 C180 4.430 . S
C1001 C460 4.437 . S
C1025 C220 4.428 . S
C1033 C260 4.443 . S
C1057 C2 0.768 . S
C1065 C122 0.706 . S
C1089 C42 0.668 . S
C1097 C162 0.667 . S
C1121 C82 0.772 . S
C1129 C202 0.697 . S
C1153 C362 0.620 . S
C1161 C242 0.690 . S
C1185 C282 0.711 . S
C1193 C402 0.727 . S
C1217 C442 0.617 . S
C1225 C322 0.699 . S
C1249 C305 0.796 . S
C1257 C25 0.838 . S
C1281 C345 0.916 . S
C1289 C65 0.865 . S
C1313 C105 0.898 . S
C1321 C385 0.827 . S
C1345 C425 0.836 . S
C1353 C145 0.821 . S
C1377 C465 0.823 . S
C1385 C185 0.824 . S
C1409 C225 0.896 . S
C1417 C265 0.873 . S
C1441 C31 4.577 . S
C1449 C431 4.586 . S
C1473 C71 4.586 . S
C1481 C471 4.590 1_556 S
C1505 C111 4.579 1_554 S
C1513 C271 4.588 . S
C1537 C151 4.578 . S
C1545 C311 4.587 . S
C1569 C191 4.586 . S
C1577 C351 4.590 1_556 S
C1601 C391 4.584 . S
C1609 C231 4.590 1_554 S
