# Generated by pormake.
# Topology xfb, (7)-cn, num edge types: 1
# Building blocks:
#     Node 0, Type 0, BuildingBlock: HICVOG_clean_sbu_0, # of connection points: 7
#     Node 1, Type 0, BuildingBlock: HICVOG_clean_sbu_0, # of connection points: 7
#     Node 2, Type 0, BuildingBlock: HICVOG_clean_sbu_0, # of connection points: 7
#     Node 3, Type 0, BuildingBlock: HICVOG_clean_sbu_0, # of connection points: 7
#     Node 4, Type 0, BuildingBlock: HICVOG_clean_sbu_0, # of connection points: 7
#     Node 5, Type 0, BuildingBlock: HICVOG_clean_sbu_0, # of connection points: 7
#     Node 6, Type 0, BuildingBlock: HICVOG_clean_sbu_0, # of connection points: 7
#     Node 7, Type 0, BuildingBlock: HICVOG_clean_sbu_0, # of connection points: 7
#     Node 8, Type 0, BuildingBlock: HICVOG_clean_sbu_0, # of connection points: 7
#     Node 9, Type 0, BuildingBlock: HICVOG_clean_sbu_0, # of connection points: 7
#     Node 10, Type 0, BuildingBlock: HICVOG_clean_sbu_0, # of connection points: 7
#     Node 11, Type 0, BuildingBlock: HICVOG_clean_sbu_0, # of connection points: 7
#     Node 12, Type 0, BuildingBlock: HICVOG_clean_sbu_0, # of connection points: 7
#     Node 13, Type 0, BuildingBlock: HICVOG_clean_sbu_0, # of connection points: 7
#     Node 14, Type 0, BuildingBlock: HICVOG_clean_sbu_0, # of connection points: 7
#     Node 15, Type 0, BuildingBlock: HICVOG_clean_sbu_0, # of connection points: 7
#     Edge 16, Type (0, 0), BuildingBlock: UVAHIK_clean_linker_0, # of connection points: 2
#     Edge 17, Type (0, 0), BuildingBlock: UVAHIK_clean_linker_0, # of connection points: 2
#     Edge 18, Type (0, 0), BuildingBlock: UVAHIK_clean_linker_0, # of connection points: 2
#     Edge 19, Type (0, 0), BuildingBlock: UVAHIK_clean_linker_0, # of connection points: 2
#     Edge 20, Type (0, 0), BuildingBlock: UVAHIK_clean_linker_0, # of connection points: 2
#     Edge 21, Type (0, 0), BuildingBlock: UVAHIK_clean_linker_0, # of connection points: 2
#     Edge 22, Type (0, 0), BuildingBlock: UVAHIK_clean_linker_0, # of connection points: 2
#     Edge 23, Type (0, 0), BuildingBlock: UVAHIK_clean_linker_0, # of connection points: 2
#     Edge 24, Type (0, 0), BuildingBlock: UVAHIK_clean_linker_0, # of connection points: 2
#     Edge 25, Type (0, 0), BuildingBlock: UVAHIK_clean_linker_0, # of connection points: 2
#     Edge 26, Type (0, 0), BuildingBlock: UVAHIK_clean_linker_0, # of connection points: 2
#     Edge 27, Type (0, 0), BuildingBlock: UVAHIK_clean_linker_0, # of connection points: 2
#     Edge 28, Type (0, 0), BuildingBlock: UVAHIK_clean_linker_0, # of connection points: 2
#     Edge 29, Type (0, 0), BuildingBlock: UVAHIK_clean_linker_0, # of connection points: 2
#     Edge 30, Type (0, 0), BuildingBlock: UVAHIK_clean_linker_0, # of connection points: 2
#     Edge 31, Type (0, 0), BuildingBlock: UVAHIK_clean_linker_0, # of connection points: 2
#     Edge 32, Type (0, 0), BuildingBlock: UVAHIK_clean_linker_0, # of connection points: 2
#     Edge 33, Type (0, 0), BuildingBlock: UVAHIK_clean_linker_0, # of connection points: 2
#     Edge 34, Type (0, 0), BuildingBlock: UVAHIK_clean_linker_0, # of connection points: 2
#     Edge 35, Type (0, 0), BuildingBlock: UVAHIK_clean_linker_0, # of connection points: 2
#     Edge 36, Type (0, 0), BuildingBlock: UVAHIK_clean_linker_0, # of connection points: 2
#     Edge 37, Type (0, 0), BuildingBlock: UVAHIK_clean_linker_0, # of connection points: 2
#     Edge 38, Type (0, 0), BuildingBlock: UVAHIK_clean_linker_0, # of connection points: 2
#     Edge 39, Type (0, 0), BuildingBlock: UVAHIK_clean_linker_0, # of connection points: 2
#     Edge 40, Type (0, 0), BuildingBlock: UVAHIK_clean_linker_0, # of connection points: 2
#     Edge 41, Type (0, 0), BuildingBlock: UVAHIK_clean_linker_0, # of connection points: 2
#     Edge 42, Type (0, 0), BuildingBlock: UVAHIK_clean_linker_0, # of connection points: 2
#     Edge 43, Type (0, 0), BuildingBlock: UVAHIK_clean_linker_0, # of connection points: 2
#     Edge 44, Type (0, 0), BuildingBlock: UVAHIK_clean_linker_0, # of connection points: 2
#     Edge 45, Type (0, 0), BuildingBlock: UVAHIK_clean_linker_0, # of connection points: 2
#     Edge 46, Type (0, 0), BuildingBlock: UVAHIK_clean_linker_0, # of connection points: 2
#     Edge 47, Type (0, 0), BuildingBlock: UVAHIK_clean_linker_0, # of connection points: 2
#     Edge 48, Type (0, 0), BuildingBlock: UVAHIK_clean_linker_0, # of connection points: 2
#     Edge 49, Type (0, 0), BuildingBlock: UVAHIK_clean_linker_0, # of connection points: 2
#     Edge 50, Type (0, 0), BuildingBlock: UVAHIK_clean_linker_0, # of connection points: 2
#     Edge 51, Type (0, 0), BuildingBlock: UVAHIK_clean_linker_0, # of connection points: 2
#     Edge 52, Type (0, 0), BuildingBlock: UVAHIK_clean_linker_0, # of connection points: 2
#     Edge 53, Type (0, 0), BuildingBlock: UVAHIK_clean_linker_0, # of connection points: 2
#     Edge 54, Type (0, 0), BuildingBlock: UVAHIK_clean_linker_0, # of connection points: 2
#     Edge 55, Type (0, 0), BuildingBlock: UVAHIK_clean_linker_0, # of connection points: 2
#     Edge 56, Type (0, 0), BuildingBlock: UVAHIK_clean_linker_0, # of connection points: 2
#     Edge 57, Type (0, 0), BuildingBlock: UVAHIK_clean_linker_0, # of connection points: 2
#     Edge 58, Type (0, 0), BuildingBlock: UVAHIK_clean_linker_0, # of connection points: 2
#     Edge 59, Type (0, 0), BuildingBlock: UVAHIK_clean_linker_0, # of connection points: 2
#     Edge 60, Type (0, 0), BuildingBlock: UVAHIK_clean_linker_0, # of connection points: 2
#     Edge 61, Type (0, 0), BuildingBlock: UVAHIK_clean_linker_0, # of connection points: 2
#     Edge 62, Type (0, 0), BuildingBlock: UVAHIK_clean_linker_0, # of connection points: 2
#     Edge 63, Type (0, 0), BuildingBlock: UVAHIK_clean_linker_0, # of connection points: 2
#     Edge 64, Type (0, 0), BuildingBlock: UVAHIK_clean_linker_0, # of connection points: 2
#     Edge 65, Type (0, 0), BuildingBlock: UVAHIK_clean_linker_0, # of connection points: 2
#     Edge 66, Type (0, 0), BuildingBlock: UVAHIK_clean_linker_0, # of connection points: 2
#     Edge 67, Type (0, 0), BuildingBlock: UVAHIK_clean_linker_0, # of connection points: 2
#     Edge 68, Type (0, 0), BuildingBlock: UVAHIK_clean_linker_0, # of connection points: 2
#     Edge 69, Type (0, 0), BuildingBlock: UVAHIK_clean_linker_0, # of connection points: 2
#     Edge 70, Type (0, 0), BuildingBlock: UVAHIK_clean_linker_0, # of connection points: 2
#     Edge 71, Type (0, 0), BuildingBlock: UVAHIK_clean_linker_0, # of connection points: 2
# Relax obj value: 0.142
# Max RMSD: 0.211
# Mean RMSD: 0.211
data_MOF--net-xfb--node1-HICVOG_clean_sbu_0--edge1-UVAHIK_clean_linker_0
_symmetry_space_group_name_H-M    P1
_symmetry_Int_Tables_number       1
_symmetry_cell_setting            triclinic
loop_
_symmetry_equiv_pos_as_xyz
'x, y, z'
_cell_length_a     75.373817
_cell_length_b     75.384418
_cell_length_c     24.822062
_cell_angle_alpha  89.992565
_cell_angle_beta   89.986696
_cell_angle_gamma 90.011575
loop_
_atom_site_label
_atom_site_type_symbol
_atom_site_fract_x
_atom_site_fract_y
_atom_site_fract_z
_atom_type_partial_charge
Zn0 Zn 0.15053 0.17659 0.1534 0.0
C1 C 0.17639 0.19908 0.27589 0.0
N2 N 0.16366 0.21154 0.27148 0.0
C3 C 0.15229 0.20431 0.23616 0.0
N4 N 0.15785 0.18834 0.21891 0.0
N5 N 0.1726 0.1847 0.24549 0.0
C6 C 0.2068 0.14347 0.31957 0.0
O7 O 0.19396 0.13225 0.33064 0.0
O8 O 0.12446 0.18077 0.14045 0.0
Zn9 Zn 0.17742 0.16107 0.27246 0.0
N10 N 0.16484 0.18573 0.09389 0.0
C11 C 0.19011 0.20246 0.06706 0.0
C12 C 0.17919 0.19572 0.10728 0.0
C13 C 0.16102 0.18207 0.04128 0.0
N14 N 0.18637 0.19882 0.01485 0.0
C15 C 0.17216 0.18875 1.00012 0.0
O16 O 0.17099 0.14083 0.22179 0.0
C17 C 0.16134 0.13772 0.18069 0.0
O18 O 0.15338 0.15011 0.15565 0.0
H19 H 0.18219 0.19851 0.14891 0.0
H20 H 0.14941 0.17422 0.0321 0.0
C21 C 0.16651 0.16048 0.38676 0.0
C22 C 0.15401 0.15699 0.42786 0.0
C23 C 0.13294 0.14875 0.36116 0.0
C24 C 0.14532 0.15209 0.32093 0.0
N25 N 0.16186 0.15775 0.33425 0.0
N26 N 0.13758 0.15118 0.41337 0.0
H27 H 0.17982 0.16487 0.39621 0.0
C28 C 0.11398 0.17825 0.17988 0.0
O29 O 0.12067 0.17401 0.227 0.0
O30 O 0.20305 0.15774 0.29466 0.0
H31 H 0.14183 0.15008 0.27916 0.0
H32 H 0.20153 0.21048 0.07722 0.0
H33 H 0.11975 0.14417 0.35105 0.0
Zn34 Zn 0.57813 0.40002 0.40623 0.0
C35 C 0.55507 0.42603 0.52768 0.0
N36 N 0.54214 0.41389 0.52116 0.0
C37 C 0.54927 0.40241 0.48593 0.0
N38 N 0.56573 0.40734 0.47089 0.0
N39 N 0.56963 0.42181 0.49866 0.0
C40 C 0.60487 0.46246 0.51768 0.0
O41 O 0.60956 0.45648 0.47007 0.0
O42 O 0.57414 0.37397 0.39169 0.0
Zn43 Zn 0.59325 0.42652 0.52634 0.0
N44 N 0.56989 0.41486 0.34677 0.0
C45 C 0.55478 0.44115 0.32025 0.0
C46 C 0.56092 0.42985 0.36033 0.0
C47 C 0.57312 0.41076 0.29413 0.0
N48 N 0.55799 0.43713 0.26797 0.0
C49 C 0.56705 0.42228 0.25312 0.0
O50 O 0.61377 0.41984 0.47699 0.0
C51 C 0.61694 0.41026 0.43586 0.0
O52 O 0.60456 0.40256 0.41015 0.0
H53 H 0.55847 0.43307 0.40201 0.0
H54 H 0.58013 0.39864 0.2848 0.0
C55 C 0.59396 0.41556 0.64024 0.0
C56 C 0.59694 0.40283 0.68102 0.0
C57 C 0.60392 0.38149 0.61383 0.0
C58 C 0.60101 0.39407 0.57388 0.0
N59 N 0.59622 0.41083 0.58763 0.0
N60 N 0.60189 0.38616 0.66617 0.0
H61 H 0.59026 0.42905 0.64997 0.0
C62 C 0.57572 0.36323 0.43091 0.0
O63 O 0.57881 0.3696 0.47925 0.0
O64 O 0.59667 0.45213 0.54968 0.0
H65 H 0.60266 0.39055 0.53198 0.0
H66 H 0.54757 0.45309 0.33056 0.0
H67 H 0.60781 0.36811 0.6034 0.0
Zn68 Zn 0.35433 0.82801 0.6567 0.0
C69 C 0.32907 0.80448 0.77874 0.0
N70 N 0.34143 0.79179 0.77184 0.0
C71 C 0.35268 0.79913 0.7363 0.0
N72 N 0.3474 0.81549 0.72143 0.0
N73 N 0.33294 0.81913 0.74961 0.0
C74 C 0.29814 0.85985 0.82474 0.0
O75 O 0.31086 0.87116 0.83622 0.0
O76 O 0.3803 0.82407 0.64111 0.0
Zn77 Zn 0.32774 0.84271 0.77689 0.0
N78 N 0.33938 0.81972 0.59757 0.0
C79 C 0.3131 0.80451 0.57139 0.0
C80 C 0.3244 0.81074 0.61134 0.0
C81 C 0.34346 0.82284 0.54486 0.0
N82 N 0.31711 0.80761 0.51903 0.0
C83 C 0.33195 0.81667 0.50399 0.0
O84 O 0.33379 0.86334 0.72717 0.0
C85 C 0.34356 0.86665 0.68652 0.0
O86 O 0.35159 0.85439 0.66121 0.0
H87 H 0.32121 0.80837 0.65308 0.0
H88 H 0.35558 0.82984 0.53536 0.0
C89 C 0.33881 0.84333 0.89086 0.0
C90 C 0.35139 0.84677 0.93173 0.0
C91 C 0.37234 0.85508 0.86471 0.0
C92 C 0.35988 0.85176 0.82471 0.0
N93 N 0.34337 0.84609 0.83831 0.0
N94 N 0.3678 0.85259 0.91699 0.0
H95 H 0.32552 0.83893 0.90049 0.0
C96 C 0.39133 0.82729 0.67861 0.0
O97 O 0.38531 0.83223 0.72596 0.0
O98 O 0.30206 0.84569 0.7995 0.0
H99 H 0.36329 0.85379 0.78288 0.0
H100 H 0.30118 0.7973 0.58185 0.0
H101 H 0.38551 0.85966 0.85439 0.0
Zn102 Zn 0.91077 0.57755 0.02525 0.0
C103 C 0.95445 0.60181 0.9842 0.0
N104 N 0.96175 0.59034 0.01911 0.0
C105 C 0.949 0.578 0.02548 0.0
N106 N 0.93435 0.58213 0.99672 0.0
N107 N 0.93804 0.5967 0.96921 0.0
C108 C 0.92673 0.64071 0.92721 0.0
O109 O 0.92198 0.63464 0.97466 0.0
O110 O 0.9075 0.55225 0.0509 0.0
Zn111 Zn 0.92554 0.60378 0.90464 0.0
N112 N 0.90789 0.59363 0.08572 0.0
C113 C 0.89984 0.62292 0.11134 0.0
C114 C 0.90214 0.61008 0.07184 0.0
C115 C 0.9115 0.58943 0.13805 0.0
N116 N 0.90335 0.6188 0.16338 0.0
C117 C 0.90911 0.60241 0.17856 0.0
O118 O 0.8991 0.60114 0.90933 0.0
C119 C 0.88681 0.59319 0.93481 0.0
O120 O 0.89009 0.58349 0.97565 0.0
H121 H 0.89943 0.61319 0.03017 0.0
H122 H 0.91642 0.57632 0.14741 0.0
C123 C 0.92916 0.59222 0.79295 0.0
C124 C 0.93469 0.58043 0.75208 0.0
C125 C 0.94903 0.56274 0.81825 0.0
C126 C 0.94351 0.57437 0.85835 0.0
N127 N 0.93365 0.58885 0.84521 0.0
N128 N 0.94447 0.56599 0.76639 0.0
H129 H 0.92104 0.60366 0.78378 0.0
C130 C 0.90321 0.54033 0.01706 0.0
O131 O 0.9022 0.54455 0.96578 0.0
O132 O 0.92967 0.62973 0.88936 0.0
H133 H 0.947 0.57174 0.89971 0.0
H134 H 0.89531 0.63609 0.10081 0.0
H135 H 0.95682 0.55115 0.82827 0.0
Zn136 Zn 0.82719 0.8432 0.739 0.0
C137 C 0.85207 0.80012 0.77722 0.0
N138 N 0.84052 0.7927 0.74283 0.0
C139 C 0.82784 0.80518 0.73813 0.0
N140 N 0.8318 0.81974 0.76753 0.0
N141 N 0.84669 0.81626 0.79361 0.0
C142 C 0.89096 0.82564 0.83248 0.0
O143 O 0.88465 0.8285 0.78392 0.0
O144 O 0.80168 0.84635 0.71535 0.0
Zn145 Zn 0.85412 0.82839 0.85832 0.0
N146 N 0.8432 0.84592 0.67809 0.0
C147 C 0.87265 0.85353 0.65281 0.0
C148 C 0.85975 0.85132 0.69219 0.0
C149 C 0.83898 0.84248 0.62564 0.0
N150 N 0.8685 0.85025 0.60066 0.0
C151 C 0.85203 0.84479 0.58524 0.0
O152 O 0.85119 0.85483 0.85463 0.0
C153 C 0.84312 0.8671 0.82942 0.0
O154 O 0.83336 0.86382 0.78869 0.0
H155 H 0.86291 0.8538 0.73398 0.0
H156 H 0.8258 0.83779 0.6161 0.0
C157 C 0.84291 0.82454 0.97036 0.0
C158 C 0.83135 0.81868 0.01148 0.0
C159 C 0.81431 0.80328 0.94596 0.0
C160 C 0.82567 0.80915 0.9056 0.0
N161 N 0.83973 0.81968 0.91826 0.0
N162 N 0.81735 0.80822 0.99762 0.0
H163 H 0.85397 0.8332 0.97921 0.0
C164 C 0.79794 0.86026 0.68863 0.0
O165 O 0.81079 0.87132 0.67623 0.0
O166 O 0.88021 0.8244 0.87183 0.0
H167 H 0.82316 0.80539 0.86438 0.0
H168 H 0.88589 0.85779 0.66353 0.0
H169 H 0.80307 0.79495 0.9363 0.0
Zn170 Zn 0.41122 0.57723 0.48461 0.0
C171 C 0.45432 0.60235 0.52204 0.0
N172 N 0.46179 0.59084 0.4876 0.0
C173 C 0.44939 0.57805 0.48308 0.0
N174 N 0.4348 0.58197 0.51249 0.0
N175 N 0.43826 0.59684 0.53867 0.0
C176 C 0.42808 0.64084 0.5778 0.0
O177 O 0.42415 0.63427 0.53028 0.0
O178 O 0.40794 0.55187 0.45978 0.0
Zn179 Zn 0.42636 0.60415 0.60397 0.0
N180 N 0.40795 0.59308 0.42364 0.0
C181 C 0.39933 0.62219 0.39757 0.0
C182 C 0.40253 0.60965 0.43746 0.0
C183 C 0.41051 0.58852 0.37098 0.0
N184 N 0.40166 0.61767 0.34521 0.0
C185 C 0.4072 0.60119 0.33023 0.0
O186 O 0.39991 0.60103 0.60134 0.0
C187 C 0.3876 0.59293 0.57632 0.0
O188 O 0.39081 0.58331 0.53522 0.0
H189 H 0.40058 0.61303 0.47934 0.0
H190 H 0.41467 0.57517 0.36117 0.0
C191 C 0.43182 0.59383 0.71628 0.0
C192 C 0.43844 0.58272 0.7576 0.0
C193 C 0.45206 0.56461 0.69087 0.0
C194 C 0.44538 0.5755 0.65053 0.0
N195 N 0.43546 0.58992 0.66372 0.0
N196 N 0.44844 0.56845 0.74304 0.0
H197 H 0.42402 0.60549 0.7253 0.0
C198 C 0.40377 0.53996 0.49376 0.0
O199 O 0.40288 0.54418 0.54505 0.0
O200 O 0.43039 0.63026 0.61709 0.0
H201 H 0.44818 0.57243 0.60895 0.0
H202 H 0.39495 0.63541 0.40807 0.0
H203 H 0.46002 0.55314 0.68085 0.0
Zn204 Zn 0.67657 0.16125 0.23035 0.0
C205 C 0.65232 0.20518 0.27138 0.0
N206 N 0.66376 0.21239 0.23619 0.0
C207 C 0.6759 0.19949 0.22923 0.0
N208 N 0.6717 0.18486 0.25797 0.0
N209 N 0.65725 0.18867 0.28595 0.0
C210 C 0.61323 0.17844 0.3255 0.0
O211 O 0.61973 0.1754 0.27727 0.0
O212 O 0.70221 0.15789 0.20723 0.0
Zn213 Zn 0.64997 0.17614 0.35047 0.0
N214 N 0.66094 0.1582 0.16899 0.0
C215 C 0.63163 0.15034 0.14275 0.0
C216 C 0.64418 0.15334 0.18272 0.0
C217 C 0.66568 0.16043 0.11639 0.0
N218 N 0.63632 0.15234 0.09042 0.0
C219 C 0.65299 0.15735 0.07559 0.0
O220 O 0.65253 0.14973 0.3463 0.0
C221 C 0.66026 0.1374 0.32047 0.0
O222 O 0.66987 0.14066 0.27945 0.0
H223 H 0.64065 0.1517 0.22461 0.0
H224 H 0.67917 0.16418 0.10668 0.0
C225 C 0.66072 0.18113 0.4626 0.0
C226 C 0.67225 0.18719 0.50358 0.0
C227 C 0.69113 0.19944 0.43643 0.0
C228 C 0.67982 0.19331 0.39637 0.0
N229 N 0.66481 0.18434 0.40996 0.0
N230 N 0.68711 0.19624 0.48871 0.0
H231 H 0.64859 0.17412 0.47197 0.0
C232 C 0.71249 0.14968 0.23938 0.0
O233 O 0.70643 0.14505 0.28698 0.0
O234 O 0.62388 0.18003 0.36494 0.0
H235 H 0.68304 0.19574 0.35469 0.0
H236 H 0.61826 0.1464 0.15317 0.0
H237 H 0.70308 0.20664 0.4261 0.0
Zn238 Zn 0.07835 0.4005 0.10521 0.0
C239 C 0.05504 0.4261 0.98355 0.0
N240 N 0.04232 0.41372 0.98987 0.0
C241 C 0.04958 0.40235 0.02516 0.0
N242 N 0.06593 0.40756 0.04042 0.0
N243 N 0.06965 0.42208 0.01267 0.0
C244 C 0.10084 0.46408 0.99308 0.0
O245 O 0.10192 0.45989 0.04436 0.0
O246 O 0.07433 0.37453 0.12053 0.0
Zn247 Zn 0.09328 0.42683 0.98473 0.0
N248 N 0.07003 0.41532 0.16463 0.0
C249 C 0.05472 0.44149 0.19128 0.0
C250 C 0.06092 0.43024 0.15113 0.0
C251 C 0.0733 0.41124 0.21726 0.0
N252 N 0.05797 0.43747 0.24355 0.0
C253 C 0.06715 0.42269 0.25834 0.0
O254 O 0.11386 0.42092 0.03472 0.0
C255 C 0.11708 0.41124 0.07566 0.0
O256 O 0.10476 0.40328 0.10094 0.0
H257 H 0.05841 0.43342 0.10947 0.0
H258 H 0.0804 0.39916 0.22651 0.0
C259 C 0.09393 0.41543 0.87144 0.0
C260 C 0.09713 0.40271 0.83078 0.0
C261 C 0.10496 0.38173 0.89821 0.0
C262 C 0.10185 0.39431 0.93801 0.0
N263 N 0.09649 0.41089 0.92409 0.0
N264 N 0.1026 0.38622 0.84583 0.0
H265 H 0.08983 0.42879 0.86159 0.0
C266 C 0.07721 0.36347 0.08286 0.0
O267 O 0.08184 0.36943 0.03517 0.0
O268 O 0.0965 0.45215 0.95934 0.0
H269 H 0.10381 0.39096 0.97991 0.0
H270 H 0.04741 0.45337 0.18103 0.0
H271 H 0.10929 0.36849 0.90877 0.0
Zn272 Zn 0.64992 0.6773 0.65319 0.0
C273 C 0.67565 0.699 0.77675 0.0
N274 N 0.66282 0.7114 0.77334 0.0
C275 C 0.65144 0.70434 0.73775 0.0
N276 N 0.6571 0.68855 0.71939 0.0
N277 N 0.67189 0.68478 0.74557 0.0
C278 C 0.7058 0.64358 0.82118 0.0
O279 O 0.69292 0.63264 0.83428 0.0
O280 O 0.62398 0.6818 0.63914 0.0
Zn281 Zn 0.6764 0.661 0.77236 0.0
N282 N 0.66458 0.6863 0.59425 0.0
C283 C 0.68993 0.703 0.56774 0.0
C284 C 0.6785 0.6969 0.60765 0.0
C285 C 0.6616 0.68158 0.54192 0.0
N286 N 0.68708 0.69821 0.51583 0.0
C287 C 0.67321 0.68767 0.50123 0.0
O288 O 0.66973 0.64077 0.72121 0.0
C289 C 0.66011 0.63818 0.67968 0.0
O290 O 0.65256 0.65093 0.65518 0.0
H291 H 0.68082 0.70054 0.64911 0.0
H292 H 0.65064 0.67284 0.53257 0.0
C293 C 0.6652 0.6619 0.88647 0.0
C294 C 0.65248 0.65932 0.92771 0.0
C295 C 0.63189 0.64926 0.86172 0.0
C296 C 0.64446 0.65177 0.82153 0.0
N297 N 0.66083 0.65796 0.8344 0.0
N298 N 0.63618 0.65306 0.91344 0.0
H299 H 0.67822 0.66719 0.89508 0.0
C300 C 0.61307 0.67759 0.67608 0.0
O301 O 0.61926 0.67146 0.72191 0.0
O302 O 0.70204 0.6575 0.79449 0.0
H303 H 0.64116 0.64888 0.7801 0.0
H304 H 0.70107 0.71139 0.57796 0.0
H305 H 0.61879 0.64436 0.85196 0.0
Zn306 Zn 0.07857 0.90127 0.89876 0.0
C307 C 0.05424 0.9266 0.01735 0.0
N308 N 0.04108 0.9152 0.00514 0.0
C309 C 0.04909 0.90346 0.97263 0.0
N310 N 0.06616 0.9077 0.96376 0.0
N311 N 0.06959 0.92198 0.99287 0.0
C312 C 0.10966 0.95699 0.06971 0.0
O313 O 0.1208 0.94423 0.08225 0.0
O314 O 0.07457 0.87542 0.88242 0.0
Zn315 Zn 0.09302 0.92742 0.02056 0.0
N316 N 0.0697 0.91613 0.84046 0.0
C317 C 0.05349 0.94186 0.81455 0.0
C318 C 0.05951 0.93032 0.85424 0.0
C319 C 0.07408 0.913 0.788 0.0
N320 N 0.05795 0.93885 0.76246 0.0
C321 C 0.06807 0.92471 0.74757 0.0
O322 O 0.11371 0.9215 0.97075 0.0
C323 C 0.11715 0.91211 0.92935 0.0
O324 O 0.10498 0.90425 0.90311 0.0
H325 H 0.0562 0.93284 0.89579 0.0
H326 H 0.08249 0.90181 0.77835 0.0
C327 C 0.0922 0.91598 0.13393 0.0
C328 C 0.09506 0.9033 0.17499 0.0
C329 C 0.10586 0.88309 0.10913 0.0
C330 C 0.10312 0.89564 0.06905 0.0
N331 N 0.09639 0.9118 0.08198 0.0
N332 N 0.1018 0.8872 0.1608 0.0
H333 H 0.08653 0.92884 0.14261 0.0
C334 C 0.08071 0.86458 0.91693 0.0
O335 O 0.08825 0.87089 0.96059 0.0
O336 O 0.09574 0.9531 0.0432 0.0
H337 H 0.10626 0.89252 0.02768 0.0
H338 H 0.04544 0.95322 0.82507 0.0
H339 H 0.11117 0.87015 0.09933 0.0
Zn340 Zn 0.85376 0.3275 0.14773 0.0
C341 C 0.82788 0.30535 0.27067 0.0
N342 N 0.84077 0.29302 0.26721 0.0
C343 C 0.85219 0.30021 0.23196 0.0
N344 N 0.84652 0.31604 0.21384 0.0
N345 N 0.83166 0.31966 0.23992 0.0
C346 C 0.79761 0.36077 0.31504 0.0
O347 O 0.81039 0.37202 0.3264 0.0
O348 O 0.87999 0.32385 0.13564 0.0
Zn349 Zn 0.82704 0.34332 0.26716 0.0
N350 N 0.8398 0.31775 0.08838 0.0
C351 C 0.81512 0.30017 0.06154 0.0
C352 C 0.8258 0.30726 0.10177 0.0
C353 C 0.84347 0.32158 0.03578 0.0
N354 N 0.81872 0.30398 0.00933 0.0
C355 C 0.83256 0.31456 0.9946 0.0
O356 O 0.83348 0.36352 0.21617 0.0
C357 C 0.84256 0.36638 0.17372 0.0
O358 O 0.85022 0.35388 0.14836 0.0
H359 H 0.82291 0.30436 0.14342 0.0
H360 H 0.85479 0.32986 0.02665 0.0
C361 C 0.83798 0.34369 0.38137 0.0
C362 C 0.85041 0.34729 0.42257 0.0
C363 C 0.87136 0.35603 0.35608 0.0
C364 C 0.85904 0.35261 0.31576 0.0
N365 N 0.8426 0.34663 0.32892 0.0
N366 N 0.86675 0.35339 0.40823 0.0
H367 H 0.82474 0.33908 0.39071 0.0
C368 C 0.89032 0.32669 0.17524 0.0
O369 O 0.88341 0.33091 0.2221 0.0
O370 O 0.80142 0.34663 0.28959 0.0
H371 H 0.86249 0.35483 0.27405 0.0
H372 H 0.80398 0.29176 0.07169 0.0
H373 H 0.88447 0.36086 0.3461 0.0
Zn374 Zn 0.41147 0.0769 0.5235 0.0
C375 C 0.45511 0.10177 0.48276 0.0
N376 N 0.46244 0.0905 0.51824 0.0
C377 C 0.44969 0.07819 0.52524 0.0
N378 N 0.43505 0.08213 0.49626 0.0
N379 N 0.43871 0.09656 0.46803 0.0
C380 C 0.42699 0.1404 0.42529 0.0
O381 O 0.42222 0.13435 0.47276 0.0
O382 O 0.40854 0.05127 0.54648 0.0
Zn383 Zn 0.42622 0.10343 0.4032 0.0
N384 N 0.40804 0.09253 0.58487 0.0
C385 C 0.39896 0.12145 0.61144 0.0
C386 C 0.40234 0.10904 0.57135 0.0
C387 C 0.41075 0.08793 0.6374 0.0
N388 N 0.40141 0.11687 0.66369 0.0
C389 C 0.40725 0.10047 0.67835 0.0
O390 O 0.39983 0.10061 0.4076 0.0
C391 C 0.38757 0.09257 0.43292 0.0
O392 O 0.39087 0.08285 0.47367 0.0
H393 H 0.40033 0.11247 0.52953 0.0
H394 H 0.41517 0.07465 0.64695 0.0
C395 C 0.43133 0.09249 0.2914 0.0
C396 C 0.43754 0.08099 0.25054 0.0
C397 C 0.44999 0.06234 0.31793 0.0
C398 C 0.44372 0.07363 0.35788 0.0
N399 N 0.43459 0.0885 0.3441 0.0
N400 N 0.44676 0.06626 0.26558 0.0
H401 H 0.42421 0.10453 0.28191 0.0
C402 C 0.3943 0.04738 0.57142 0.0
O403 O 0.3829 0.06009 0.58209 0.0
O404 O 0.43009 0.1294 0.38762 0.0
H405 H 0.4462 0.07051 0.39962 0.0
H406 H 0.39436 0.13461 0.60119 0.0
H407 H 0.45733 0.0505 0.32839 0.0
Zn408 Zn 0.3272 0.34356 0.24129 0.0
C409 C 0.35205 0.30016 0.27677 0.0
N410 N 0.3407 0.29311 0.24105 0.0
C411 C 0.32798 0.30559 0.23711 0.0
N412 N 0.33179 0.31983 0.26806 0.0
N413 N 0.3465 0.31606 0.29468 0.0
C414 C 0.39025 0.32645 0.33399 0.0
O415 O 0.38345 0.33073 0.28704 0.0
O416 O 0.30157 0.34704 0.21913 0.0
Zn417 Zn 0.35366 0.32743 0.36098 0.0
N418 N 0.34272 0.34689 0.17942 0.0
C419 C 0.37148 0.35622 0.15199 0.0
C420 C 0.35919 0.35283 0.19243 0.0
C421 C 0.33805 0.34395 0.12702 0.0
N422 N 0.36682 0.35357 0.09988 0.0
C423 C 0.35046 0.34749 0.08571 0.0
O424 O 0.35028 0.35382 0.36053 0.0
C425 C 0.34275 0.36639 0.33515 0.0
O426 O 0.33374 0.36364 0.29252 0.0
H427 H 0.36268 0.35503 0.23412 0.0
H428 H 0.3248 0.33935 0.11783 0.0
C429 C 0.34325 0.32152 0.47274 0.0
C430 C 0.33225 0.31457 0.51386 0.0
C431 C 0.31474 0.30036 0.44681 0.0
C432 C 0.32549 0.30738 0.40663 0.0
N433 N 0.33957 0.31774 0.42013 0.0
N434 N 0.31834 0.30412 0.49906 0.0
H435 H 0.35463 0.32969 0.48193 0.0
C436 C 0.29782 0.36124 0.19388 0.0
O437 O 0.31067 0.37242 0.18248 0.0
O438 O 0.37984 0.32364 0.37342 0.0
H439 H 0.3226 0.30454 0.36494 0.0
H440 H 0.38461 0.36102 0.16184 0.0
H441 H 0.30353 0.29204 0.43659 0.0
Zn442 Zn 0.91139 0.07769 0.9879 0.0
C443 C 0.95542 0.10231 0.02628 0.0
N444 N 0.96243 0.09113 0.99001 0.0
C445 C 0.94965 0.07881 0.98383 0.0
N446 N 0.93523 0.0827 0.01403 0.0
N447 N 0.93916 0.09706 0.04223 0.0
C448 C 0.92778 0.14095 0.08507 0.0
O449 O 0.92272 0.13481 0.03799 0.0
O450 O 0.90818 0.052 0.96587 0.0
Zn451 Zn 0.92717 0.10401 0.10771 0.0
N452 N 0.90794 0.09315 0.92602 0.0
C453 C 0.89884 0.12199 0.89879 0.0
C454 C 0.90221 0.10967 0.93916 0.0
C455 C 0.91071 0.08844 0.87357 0.0
N456 N 0.90133 0.11731 0.84664 0.0
C457 C 0.90722 0.10088 0.83234 0.0
O458 O 0.90088 0.10129 0.10438 0.0
C459 C 0.88821 0.0937 0.07976 0.0
O460 O 0.89093 0.08404 0.03844 0.0
H461 H 0.90019 0.1132 0.98089 0.0
H462 H 0.91517 0.07515 0.86431 0.0
C463 C 0.93227 0.09302 0.21942 0.0
C464 C 0.93856 0.08156 0.2603 0.0
C465 C 0.95145 0.06319 0.19291 0.0
C466 C 0.9451 0.07444 0.15295 0.0
N467 N 0.93571 0.08915 0.16673 0.0
N468 N 0.94804 0.06699 0.24525 0.0
H469 H 0.92493 0.10493 0.22888 0.0
C470 C 0.89395 0.04812 0.94094 0.0
O471 O 0.88267 0.06088 0.92966 0.0
O472 O 0.93111 0.13001 0.12273 0.0
H473 H 0.94771 0.07143 0.1112 0.0
H474 H 0.8942 0.13517 0.90874 0.0
H475 H 0.95899 0.05148 0.18246 0.0
Zn476 Zn 0.17742 0.6607 0.74077 0.0
C477 C 0.15232 0.70368 0.77569 0.0
N478 N 0.16386 0.71092 0.74087 0.0
C479 C 0.1768 0.69863 0.73789 0.0
N480 N 0.17294 0.68432 0.76856 0.0
N481 N 0.15797 0.68789 0.79408 0.0
C482 C 0.11412 0.67711 0.83312 0.0
O483 O 0.121 0.67271 0.78638 0.0
O484 O 0.20302 0.65732 0.71807 0.0
Zn485 Zn 0.15071 0.6765 0.86024 0.0
N486 N 0.16167 0.65771 0.67922 0.0
C487 C 0.13273 0.6488 0.65255 0.0
C488 C 0.14538 0.65137 0.69245 0.0
C489 C 0.16588 0.66171 0.62709 0.0
N490 N 0.13687 0.65265 0.60075 0.0
C491 C 0.1531 0.65903 0.58613 0.0
O492 O 0.15421 0.65013 0.8594 0.0
C493 C 0.16186 0.63761 0.83408 0.0
O494 O 0.17097 0.64045 0.79164 0.0
H495 H 0.14223 0.64839 0.73394 0.0
H496 H 0.17886 0.66708 0.61823 0.0
C497 C 0.16185 0.68128 0.97185 0.0
C498 C 0.17315 0.68776 0.01275 0.0
C499 C 0.18947 0.70367 0.94659 0.0
C500 C 0.17836 0.69717 0.90646 0.0
N501 N 0.16478 0.6861 0.91959 0.0
N502 N 0.18667 0.69878 0.99844 0.0
H503 H 0.15119 0.67215 0.981 0.0
C504 C 0.20677 0.64344 0.69121 0.0
O505 O 0.19391 0.63249 0.67818 0.0
O506 O 0.12448 0.68018 0.87249 0.0
H507 H 0.18069 0.70087 0.86505 0.0
H508 H 0.11969 0.64379 0.66259 0.0
H509 H 0.20035 0.71244 0.93659 0.0
Zn510 Zn 0.57826 0.90056 0.60643 0.0
C511 C 0.5552 0.92595 0.48461 0.0
N512 N 0.54296 0.91301 0.48911 0.0
C513 C 0.55048 0.90167 0.52398 0.0
N514 N 0.5664 0.90747 0.54092 0.0
N515 N 0.56973 0.92233 0.51455 0.0
C516 C 0.61023 0.95652 0.43677 0.0
O517 O 0.62131 0.9437 0.42436 0.0
O518 O 0.57376 0.8747 0.62162 0.0
Zn519 Zn 0.5932 0.92716 0.48638 0.0
N520 N 0.56953 0.91538 0.66524 0.0
C521 C 0.55314 0.94094 0.69169 0.0
C522 C 0.55908 0.92942 0.65182 0.0
C523 C 0.57422 0.91236 0.71754 0.0
N524 N 0.5579 0.93804 0.74359 0.0
C525 C 0.56827 0.92405 0.75818 0.0
O526 O 0.61371 0.92086 0.53631 0.0
C527 C 0.61701 0.9112 0.57727 0.0
O528 O 0.60475 0.90322 0.60287 0.0
H529 H 0.55542 0.93177 0.61042 0.0
H530 H 0.5828 0.90129 0.72692 0.0
C531 C 0.59235 0.91575 0.37268 0.0
C532 C 0.5949 0.90294 0.33173 0.0
C533 C 0.60455 0.88235 0.39822 0.0
C534 C 0.60211 0.89501 0.43814 0.0
N535 N 0.59612 0.91143 0.42486 0.0
N536 N 0.60092 0.88659 0.34636 0.0
H537 H 0.58724 0.92882 0.36375 0.0
C538 C 0.57755 0.86366 0.58466 0.0
O539 O 0.58337 0.86966 0.53822 0.0
O540 O 0.5963 0.95275 0.46342 0.0
H541 H 0.60489 0.89178 0.47968 0.0
H542 H 0.54488 0.95218 0.68146 0.0
H543 H 0.60928 0.86921 0.4083 0.0
C544 C 0.15955 0.17057 0.92263 0.0
C545 C 0.16925 0.1853 0.94148 0.0
C546 C 0.15807 0.16721 0.8672 0.0
C547 C 0.18032 0.17664 0.73723 0.0
H548 H 0.13547 0.16251 0.67426 0.0
C549 C 0.16917 0.17264 0.50559 0.0
C550 C 0.15793 0.15917 0.48626 0.0
C551 C 0.17115 0.17542 0.5612 0.0
C552 C 0.14818 0.1662 0.69118 0.0
H553 H 0.18468 0.20815 0.9158 0.0
H554 H 0.18208 0.20223 0.82006 0.0
H555 H 0.13735 0.16791 0.77086 0.0
H556 H 0.14058 0.13763 0.51039 0.0
H557 H 0.14434 0.14216 0.60654 0.0
H558 H 0.1912 0.17482 0.65768 0.0
C559 C 0.17581 0.19318 0.84808 0.0
C560 C 0.14923 0.16932 0.74667 0.0
C561 C 0.17722 0.19659 0.90322 0.0
C562 C 0.14919 0.14826 0.52379 0.0
C563 C 0.15126 0.15093 0.5791 0.0
C564 C 0.1793 0.17342 0.68174 0.0
C565 C 0.16635 0.17838 0.8293 0.0
C566 C 0.16529 0.17464 0.77039 0.0
C567 C 0.16199 0.16474 0.59869 0.0
C568 C 0.16321 0.16817 0.6579 0.0
H569 H 0.15351 0.1613 0.95035 0.0
H570 H 0.15082 0.15558 0.85406 0.0
H571 H 0.19297 0.18048 0.7543 0.0
H572 H 0.17589 0.18149 0.47794 0.0
H573 H 0.1794 0.1863 0.57471 0.0
C574 C 0.5821 0.41856 0.75902 0.0
C575 C 0.59502 0.40675 0.73944 0.0
C576 C 0.57949 0.4206 0.81464 0.0
C577 C 0.58765 0.39709 0.94409 0.0
H578 H 0.57586 0.44251 0.00776 0.0
C579 C 0.58431 0.40866 0.17545 0.0
C580 C 0.57012 0.41909 0.19451 0.0
C581 C 0.58745 0.40697 0.11999 0.0
C582 C 0.579 0.4297 0.99051 0.0
H583 H 0.61576 0.38838 0.76307 0.0
H584 H 0.6115 0.39223 0.85933 0.0
H585 H 0.58135 0.44055 0.91109 0.0
H586 H 0.54797 0.43556 0.16934 0.0
H587 H 0.55351 0.4326 0.07346 0.0
H588 H 0.58541 0.38629 0.02367 0.0
C589 C 0.60304 0.39958 0.83205 0.0
C590 C 0.58211 0.42857 0.93503 0.0
C591 C 0.60556 0.39746 0.77671 0.0
C592 C 0.55912 0.42754 0.15652 0.0
C593 C 0.56231 0.42591 0.10134 0.0
C594 C 0.58463 0.39825 0.99959 0.0
C595 C 0.58977 0.41092 0.85186 0.0
C596 C 0.58647 0.41224 0.91103 0.0
C597 C 0.57661 0.41575 0.08235 0.0
C598 C 0.5802 0.41455 0.02346 0.0
H599 H 0.57354 0.42571 0.73156 0.0
H600 H 0.56901 0.42932 0.82838 0.0
H601 H 0.59063 0.38422 0.92699 0.0
H602 H 0.59336 0.40222 0.20304 0.0
H603 H 0.59869 0.39917 0.10664 0.0
C604 C 0.34545 0.83388 0.42603 0.0
C605 C 0.33517 0.81962 0.44533 0.0
C606 C 0.34717 0.8369 0.37052 0.0
C607 C 0.32474 0.82772 0.24089 0.0
H608 H 0.37004 0.84034 0.17786 0.0
C609 C 0.33613 0.83121 0.00942 0.0
C610 C 0.34756 0.84453 0.99013 0.0
C611 C 0.33412 0.82843 0.06499 0.0
C612 C 0.35722 0.83707 0.19482 0.0
H613 H 0.31898 0.79721 0.42057 0.0
H614 H 0.32201 0.80251 0.32456 0.0
H615 H 0.36795 0.83513 0.27454 0.0
H616 H 0.36529 0.86575 0.01431 0.0
H617 H 0.36152 0.86117 0.11044 0.0
H618 H 0.31396 0.82976 0.16129 0.0
C619 C 0.32855 0.81148 0.35228 0.0
C620 C 0.35604 0.83406 0.25033 0.0
C621 C 0.32689 0.80841 0.40753 0.0
C622 C 0.35652 0.85525 0.02767 0.0
C623 C 0.35445 0.85255 0.08295 0.0
C624 C 0.32589 0.83081 0.18539 0.0
C625 C 0.33857 0.82584 0.33303 0.0
C626 C 0.3398 0.82931 0.27405 0.0
C627 C 0.34346 0.83893 0.10246 0.0
C628 C 0.34214 0.83554 0.16158 0.0
H629 H 0.35174 0.84307 0.45347 0.0
H630 H 0.35484 0.8482 0.35699 0.0
H631 H 0.31196 0.82433 0.25798 0.0
H632 H 0.32924 0.8225 0.98178 0.0
H633 H 0.32568 0.81769 0.07851 0.0
C634 C 0.92836 0.56795 0.66085 0.0
C635 C 0.93017 0.58291 0.69423 0.0
C636 C 0.92547 0.5698 0.60556 0.0
C637 C 0.91172 0.6021 0.50033 0.0
H638 H 0.93603 0.56941 0.40478 0.0
C639 C 0.91558 0.61373 0.27129 0.0
C640 C 0.9126 0.59915 0.23694 0.0
C641 C 0.91766 0.61139 0.32671 0.0
C642 C 0.929 0.57852 0.43091 0.0
H643 H 0.93036 0.61168 0.69515 0.0
H644 H 0.92547 0.61496 0.59846 0.0
H645 H 0.93946 0.56638 0.50201 0.0
H646 H 0.90951 0.57048 0.23526 0.0
H647 H 0.91345 0.56644 0.33202 0.0
H648 H 0.90149 0.61439 0.42902 0.0
C649 C 0.92594 0.60172 0.61535 0.0
C650 C 0.93093 0.57678 0.48675 0.0
C651 C 0.92871 0.59986 0.67093 0.0
C652 C 0.91211 0.58205 0.2598 0.0
C653 C 0.91428 0.57971 0.3155 0.0
C654 C 0.90988 0.60389 0.44449 0.0
C655 C 0.92448 0.5867 0.58182 0.0
C656 C 0.92232 0.58856 0.52227 0.0
C657 C 0.91686 0.59439 0.34966 0.0
C658 C 0.91853 0.59215 0.40908 0.0
H659 H 0.92924 0.55469 0.67748 0.0
H660 H 0.92402 0.55793 0.58141 0.0
H661 H 0.90465 0.61122 0.5263 0.0
H662 H 0.91624 0.6271 0.25543 0.0
H663 H 0.91996 0.62295 0.35166 0.0
C664 C 0.8185 0.82521 0.10211 0.0
C665 C 0.83359 0.8236 0.06912 0.0
C666 C 0.82015 0.82834 0.15734 0.0
C667 C 0.85199 0.84281 0.26324 0.0
H668 H 0.81934 0.81821 0.35829 0.0
C669 C 0.86338 0.83862 0.49233 0.0
C670 C 0.84878 0.8415 0.5267 0.0
C671 C 0.86108 0.83669 0.43684 0.0
C672 C 0.82843 0.82533 0.3323 0.0
H673 H 0.86235 0.8241 0.06875 0.0
H674 H 0.86528 0.82936 0.1654 0.0
H675 H 0.81656 0.81469 0.26105 0.0
H676 H 0.82011 0.84459 0.52827 0.0
H677 H 0.81613 0.84087 0.43137 0.0
H678 H 0.86404 0.85317 0.33477 0.0
C679 C 0.8521 0.82855 0.14827 0.0
C680 C 0.82684 0.82335 0.27643 0.0
C681 C 0.85043 0.82556 0.09271 0.0
C682 C 0.8317 0.84206 0.50374 0.0
C683 C 0.8294 0.84002 0.44796 0.0
C684 C 0.85365 0.84469 0.31912 0.0
C685 C 0.83696 0.82976 0.18146 0.0
C686 C 0.83861 0.83205 0.24106 0.0
C687 C 0.84411 0.83753 0.41382 0.0
C688 C 0.84193 0.83592 0.35435 0.0
H689 H 0.80531 0.82394 0.08521 0.0
H690 H 0.80818 0.82961 0.18115 0.0
H691 H 0.86111 0.84996 0.23744 0.0
H692 H 0.87675 0.83791 0.50821 0.0
H693 H 0.87267 0.83446 0.4119 0.0
C694 C 0.44621 0.57766 0.85454 0.0
C695 C 0.43502 0.58574 0.81623 0.0
C696 C 0.44281 0.57915 0.90967 0.0
C697 C 0.41939 0.60608 0.01107 0.0
H698 H 0.42421 0.56403 0.1 0.0
C699 C 0.39859 0.60644 0.23437 0.0
C700 C 0.40932 0.5974 0.27171 0.0
C701 C 0.40119 0.60441 0.179 0.0
C702 C 0.42301 0.57596 0.07597 0.0
H703 H 0.41124 0.60179 0.8073 0.0
H704 H 0.40557 0.60464 0.90359 0.0
H705 H 0.42978 0.56217 1.00337 0.0
H706 H 0.43128 0.57899 0.27958 0.0
H707 H 0.43596 0.57555 0.18276 0.0
H708 H 0.41288 0.61997 0.08355 0.0
C709 C 0.41709 0.59722 0.89048 0.0
C710 C 0.42617 0.57488 0.02047 0.0
C711 C 0.42043 0.59565 0.83505 0.0
C712 C 0.42256 0.58594 0.2521 0.0
C713 C 0.42526 0.584 0.19645 0.0
C714 C 0.41633 0.60719 0.0666 0.0
C715 C 0.42815 0.58882 0.92841 0.0
C716 C 0.42442 0.58994 0.98733 0.0
C717 C 0.41474 0.5934 0.15915 0.0
C718 C 0.41807 0.59214 0.09988 0.0
H719 H 0.45767 0.57003 0.84202 0.0
H720 H 0.45178 0.57277 0.93772 0.0
H721 H 0.41817 0.61798 0.98689 0.0
H722 H 0.38815 0.61525 0.24797 0.0
H723 H 0.39254 0.61154 0.15173 0.0
C724 C 0.66866 0.17222 0.99756 0.0
C725 C 0.65693 0.15923 0.01719 0.0
C726 C 0.67069 0.17482 0.94193 0.0
C727 C 0.64722 0.16644 0.8126 0.0
H728 H 0.69256 0.17853 0.74877 0.0
C729 C 0.65871 0.16987 0.58123 0.0
C730 C 0.66906 0.18411 0.56217 0.0
C731 C 0.65704 0.16671 0.63669 0.0
C732 C 0.67977 0.1753 0.76607 0.0
H733 H 0.63872 0.13834 0.99369 0.0
H734 H 0.64256 0.14256 0.8974 0.0
H735 H 0.69066 0.17303 0.84545 0.0
H736 H 0.68541 0.20637 0.58729 0.0
H737 H 0.68248 0.20081 0.68319 0.0
H738 H 0.63638 0.16861 0.73307 0.0
C739 C 0.64984 0.15109 0.92464 0.0
C740 C 0.67867 0.17218 0.82155 0.0
C741 C 0.64773 0.14859 0.97999 0.0
C742 C 0.67745 0.19518 0.60014 0.0
C743 C 0.67585 0.19197 0.65531 0.0
C744 C 0.64834 0.16947 0.75711 0.0
C745 C 0.66109 0.16444 0.90477 0.0
C746 C 0.66238 0.16772 0.8456 0.0
C747 C 0.66578 0.17761 0.67432 0.0
C748 C 0.66461 0.17401 0.73319 0.0
H749 H 0.67573 0.18086 0.02498 0.0
H750 H 0.67934 0.18535 0.92813 0.0
H751 H 0.63437 0.16337 0.82976 0.0
H752 H 0.65233 0.16079 0.55365 0.0
H753 H 0.64932 0.15543 0.65006 0.0
C754 C 0.0844 0.40902 0.33603 0.0
C755 C 0.07022 0.41946 0.31698 0.0
C756 C 0.08749 0.40724 0.3915 0.0
C757 C 0.07877 0.42968 0.52145 0.0
H758 H 0.09065 0.38413 0.58413 0.0
C759 C 0.08192 0.41819 0.75284 0.0
C760 C 0.09497 0.40649 0.77229 0.0
C761 C 0.07924 0.42023 0.69725 0.0
C762 C 0.08759 0.39703 0.56728 0.0
H763 H 0.04804 0.43589 0.34225 0.0
H764 H 0.05349 0.43277 0.43812 0.0
H765 H 0.08551 0.3864 0.48745 0.0
H766 H 0.1158 0.38827 0.74832 0.0
H767 H 0.1114 0.3921 0.65212 0.0
H768 H 0.08096 0.44036 0.60113 0.0
C769 C 0.06233 0.42614 0.41023 0.0
C770 C 0.08462 0.39829 0.51176 0.0
C771 C 0.05918 0.42785 0.35503 0.0
C772 C 0.10551 0.39726 0.73484 0.0
C773 C 0.10291 0.39937 0.67952 0.0
C774 C 0.08183 0.42843 0.57695 0.0
C775 C 0.0766 0.41595 0.42922 0.0
C776 C 0.08012 0.41462 0.48817 0.0
C777 C 0.08956 0.41066 0.65986 0.0
C778 C 0.08627 0.41208 0.60067 0.0
H779 H 0.09348 0.40263 0.30844 0.0
H780 H 0.09872 0.39943 0.40482 0.0
H781 H 0.07558 0.44252 0.50446 0.0
H782 H 0.07334 0.42528 0.78039 0.0
H783 H 0.0687 0.4289 0.68365 0.0
C784 C 0.67303 0.66338 0.00831 0.0
C785 C 0.65585 0.66312 0.98594 0.0
C786 C 0.67545 0.66578 0.06397 0.0
C787 C 0.65174 0.66061 0.19373 0.0
H788 H 0.68782 0.69209 0.25037 0.0
C789 C 0.65439 0.68037 0.41962 0.0
C790 C 0.67115 0.68292 0.44328 0.0
C791 C 0.65283 0.6773 0.36406 0.0
C792 C 0.67783 0.68302 0.2354 0.0
H793 H 0.62784 0.66571 0.00534 0.0
H794 H 0.63213 0.66978 0.10129 0.0
H795 H 0.68503 0.68813 0.15322 0.0
H796 H 0.69942 0.6837 0.42705 0.0
H797 H 0.69674 0.67796 0.33108 0.0
H798 H 0.64458 0.65536 0.27566 0.0
C799 C 0.64371 0.66789 0.07606 0.0
C800 C 0.67623 0.68079 0.17957 0.0
C801 C 0.64128 0.66561 0.02074 0.0
C802 C 0.68627 0.68195 0.41019 0.0
C803 C 0.68474 0.67876 0.35491 0.0
C804 C 0.6534 0.66274 0.24953 0.0
C805 C 0.66078 0.66781 0.09857 0.0
C806 C 0.66307 0.66967 0.15801 0.0
C807 C 0.66799 0.67663 0.33081 0.0
C808 C 0.6664 0.67407 0.27123 0.0
H809 H 0.68461 0.66122 0.98344 0.0
H810 H 0.6888 0.66553 0.08012 0.0
H811 H 0.64163 0.65171 0.17853 0.0
H812 H 0.64242 0.68135 0.44353 0.0
H813 H 0.63968 0.67598 0.34697 0.0
C814 C 0.07434 0.9056 0.66608 0.0
C815 C 0.07251 0.92246 0.68962 0.0
C816 C 0.07717 0.90389 0.61051 0.0
C817 C 0.07177 0.92884 0.48216 0.0
H818 H 0.10216 0.89195 0.42476 0.0
C819 C 0.09115 0.92375 0.25546 0.0
C820 C 0.09108 0.9066 0.23297 0.0
C821 C 0.08873 0.92615 0.31104 0.0
C822 C 0.09351 0.90224 0.44015 0.0
H823 H 0.07275 0.95073 0.67333 0.0
H824 H 0.07806 0.94777 0.57718 0.0
H825 H 0.09885 0.89505 0.52196 0.0
H826 H 0.08788 0.87863 0.25169 0.0
H827 H 0.08372 0.88287 0.34775 0.0
H828 H 0.06657 0.93607 0.40012 0.0
C829 C 0.07689 0.93583 0.60117 0.0
C830 C 0.09158 0.90399 0.49593 0.0
C831 C 0.07394 0.93753 0.65648 0.0
C832 C 0.08821 0.89203 0.26738 0.0
C833 C 0.08589 0.89443 0.32267 0.0
C834 C 0.07379 0.92714 0.42635 0.0
C835 C 0.0783 0.91899 0.57723 0.0
C836 C 0.08061 0.91726 0.51774 0.0
C837 C 0.08634 0.91147 0.34533 0.0
C838 C 0.08459 0.91374 0.40467 0.0
H839 H 0.07299 0.89369 0.69013 0.0
H840 H 0.07795 0.89069 0.59344 0.0
H841 H 0.06297 0.93903 0.49735 0.0
H842 H 0.09364 0.93531 0.23073 0.0
H843 H 0.08928 0.93946 0.32738 0.0
C844 C 0.82763 0.30675 0.8976 0.0
C845 C 0.83533 0.31818 0.93596 0.0
C846 C 0.82896 0.31026 0.84248 0.0
C847 C 0.85509 0.33476 0.74139 0.0
H848 H 0.81335 0.32843 0.65198 0.0
C849 C 0.85499 0.35598 0.51864 0.0
C850 C 0.84648 0.34495 0.48093 0.0
C851 C 0.85291 0.35321 0.5739 0.0
C852 C 0.82519 0.33006 0.67615 0.0
H853 H 0.85047 0.34256 0.945 0.0
H854 H 0.85305 0.34842 0.84879 0.0
H855 H 0.8116 0.32265 0.74855 0.0
H856 H 0.82894 0.32233 0.47225 0.0
H857 H 0.82542 0.31734 0.56896 0.0
H858 H 0.86879 0.34191 0.66915 0.0
C859 C 0.84607 0.33662 0.86183 0.0
C860 C 0.82418 0.32678 0.73162 0.0
C861 C 0.84466 0.33317 0.91722 0.0
C862 C 0.83547 0.33126 0.50005 0.0
C863 C 0.83349 0.32839 0.55562 0.0
C864 C 0.85613 0.33795 0.68592 0.0
C865 C 0.83808 0.32528 0.82383 0.0
C866 C 0.83912 0.32908 0.76493 0.0
C867 C 0.8424 0.33919 0.5933 0.0
C868 C 0.84119 0.33568 0.65248 0.0
H869 H 0.82045 0.295 0.91006 0.0
H870 H 0.82291 0.30108 0.81437 0.0
H871 H 0.86691 0.33641 0.76569 0.0
H872 H 0.86342 0.36678 0.5054 0.0
H873 H 0.85963 0.36208 0.60147 0.0
C874 C 0.39867 0.10547 0.77429 0.0
C875 C 0.40945 0.09659 0.73674 0.0
C876 C 0.40132 0.10335 0.82957 0.0
C877 C 0.42311 0.07479 0.93193 0.0
H878 H 0.41863 0.11677 0.02131 0.0
C879 C 0.44565 0.07586 0.15397 0.0
C880 C 0.43446 0.08412 0.19188 0.0
C881 C 0.4425 0.07747 0.09875 0.0
C882 C 0.41974 0.10489 0.99704 0.0
H883 H 0.43153 0.07834 0.72837 0.0
H884 H 0.43626 0.07469 0.82509 0.0
H885 H 0.4134 0.1189 0.92466 0.0
H886 H 0.41095 0.10058 0.20023 0.0
H887 H 0.40568 0.1036 0.10381 0.0
H888 H 0.42965 0.06085 1.00444 0.0
C889 C 0.42551 0.08311 0.81158 0.0
C890 C 0.41673 0.10608 0.94154 0.0
C891 C 0.42277 0.08517 0.75601 0.0
C892 C 0.42013 0.09431 0.17271 0.0
C893 C 0.41703 0.09598 0.11722 0.0
C894 C 0.4262 0.07362 0.98742 0.0
C895 C 0.41496 0.09239 0.84907 0.0
C896 C 0.41832 0.09104 0.90821 0.0
C897 C 0.42808 0.08742 0.07962 0.0
C898 C 0.42456 0.08866 0.02067 0.0
H899 H 0.38815 0.11423 0.76094 0.0
H900 H 0.39266 0.11037 0.85707 0.0
H901 H 0.42421 0.06288 0.90776 0.0
H902 H 0.45691 0.06801 0.1669 0.0
H903 H 0.45146 0.07096 0.07094 0.0
C904 C 0.33542 0.33143 0.00848 0.0
C905 C 0.3465 0.3451 0.02739 0.0
C906 C 0.3334 0.32851 0.95295 0.0
C907 C 0.35603 0.33782 0.82243 0.0
H908 H 0.31138 0.32273 0.76013 0.0
C909 C 0.34447 0.33308 0.59125 0.0
C910 C 0.33503 0.31816 0.57251 0.0
C911 C 0.34591 0.3365 0.64665 0.0
C912 C 0.324 0.3268 0.77697 0.0
H913 H 0.36351 0.36683 1.00257 0.0
H914 H 0.35966 0.36204 0.90658 0.0
H915 H 0.31321 0.32855 0.85666 0.0
H916 H 0.31996 0.2951 0.5984 0.0
H917 H 0.32248 0.30114 0.69411 0.0
H918 H 0.36676 0.33617 0.74263 0.0
C919 C 0.35291 0.35323 0.93428 0.0
C920 C 0.32505 0.3301 0.83242 0.0
C921 C 0.35503 0.35605 0.98951 0.0
C922 C 0.32724 0.30679 0.61088 0.0
C923 C 0.3286 0.31027 0.666 0.0
C924 C 0.35494 0.3346 0.76699 0.0
C925 C 0.34234 0.33922 0.9151 0.0
C926 C 0.34109 0.33566 0.85597 0.0
C927 C 0.33785 0.32523 0.68466 0.0
C928 C 0.33893 0.329 0.74356 0.0
H929 H 0.32886 0.32256 0.03641 0.0
H930 H 0.32528 0.31748 0.93978 0.0
H931 H 0.36871 0.34172 0.83911 0.0
H932 H 0.35036 0.34243 0.56348 0.0
H933 H 0.35298 0.34826 0.65967 0.0
C934 C 0.92088 0.09466 0.33801 0.0
C935 C 0.93531 0.08457 0.31897 0.0
C936 C 0.91767 0.09627 0.39347 0.0
C937 C 0.9268 0.07396 0.52349 0.0
H938 H 0.91358 0.11915 0.58597 0.0
C939 C 0.92289 0.08554 0.75496 0.0
C940 C 0.90949 0.09692 0.774 0.0
C941 C 0.92572 0.08346 0.69942 0.0
C942 C 0.91702 0.10635 0.56917 0.0
H943 H 0.95779 0.06856 0.34425 0.0
H944 H 0.95215 0.0714 0.44013 0.0
H945 H 0.91895 0.11704 0.4894 0.0
H946 H 0.88816 0.11445 0.74938 0.0
H947 H 0.89282 0.11055 0.65335 0.0
H948 H 0.92478 0.06322 0.60318 0.0
C949 C 0.9432 0.07788 0.41223 0.0
C950 C 0.92012 0.10517 0.51371 0.0
C951 C 0.94646 0.07633 0.35703 0.0
C952 C 0.89873 0.10572 0.73623 0.0
C953 C 0.90148 0.10357 0.68099 0.0
C954 C 0.92362 0.07511 0.57897 0.0
C955 C 0.9287 0.08775 0.43121 0.0
C956 C 0.92509 0.08897 0.49016 0.0
C957 C 0.9152 0.09267 0.66171 0.0
C958 C 0.91867 0.09133 0.6026 0.0
H959 H 0.91171 0.10091 0.3104 0.0
H960 H 0.90626 0.10383 0.40674 0.0
H961 H 0.93037 0.06121 0.50656 0.0
H962 H 0.93163 0.07877 0.78278 0.0
H963 H 0.93653 0.07508 0.68611 0.0
C964 C 0.18629 0.68227 0.10372 0.0
C965 C 0.17117 0.68288 0.07058 0.0
C966 C 0.1848 0.67901 0.15896 0.0
C967 C 0.1538 0.66226 0.26426 0.0
H968 H 0.18481 0.68843 0.36046 0.0
C969 C 0.1417 0.66502 0.49315 0.0
C970 C 0.15634 0.66282 0.52782 0.0
C971 C 0.14403 0.6673 0.43779 0.0
C972 C 0.17619 0.68087 0.33414 0.0
H973 H 0.14249 0.68057 0.07012 0.0
H974 H 0.13982 0.6751 0.16668 0.0
H975 H 0.18749 0.69244 0.26333 0.0
H976 H 0.18514 0.66142 0.53001 0.0
H977 H 0.18916 0.66577 0.43331 0.0
H978 H 0.14229 0.65097 0.33532 0.0
C979 C 0.15294 0.67676 0.14966 0.0
C980 C 0.17773 0.68313 0.27832 0.0
C981 C 0.15446 0.67988 0.09411 0.0
C982 C 0.17349 0.66336 0.50527 0.0
C983 C 0.17582 0.66578 0.44959 0.0
C984 C 0.15219 0.6601 0.32006 0.0
C985 C 0.16809 0.67646 0.18296 0.0
C986 C 0.16653 0.67388 0.24253 0.0
C987 C 0.16109 0.66753 0.41514 0.0
C988 C 0.1633 0.66944 0.35572 0.0
H989 H 0.1994 0.68435 0.08693 0.0
H990 H 0.19681 0.67849 0.18284 0.0
H991 H 0.14517 0.65465 0.23816 0.0
H992 H 0.12827 0.66488 0.50867 0.0
H993 H 0.1324 0.66895 0.41264 0.0
C994 C 0.58861 0.89177 0.23874 0.0
C995 C 0.59131 0.90631 0.27343 0.0
C996 C 0.58652 0.8942 0.18336 0.0
C997 C 0.57455 0.9269 0.07951 0.0
H998 H 0.5997 0.89482 0.9841 0.0
C999 C 0.57425 0.937 0.8491 0.0
C1000 C 0.57296 0.9219 0.81607 0.0
C1001 C 0.57732 0.9354 0.90439 0.0
C1002 C 0.5924 0.90376 0.01005 0.0
H1003 H 0.59385 0.93503 0.27576 0.0
H1004 H 0.58987 0.93922 0.17898 0.0
H1005 H 0.60301 0.89179 0.08134 0.0
H1006 H 0.57386 0.89314 0.81584 0.0
H1007 H 0.57903 0.8903 0.91247 0.0
H1008 H 0.56367 0.93869 0.00843 0.0
C1009 C 0.58929 0.9259 0.19524 0.0
C1010 C 0.59434 0.90206 0.06588 0.0
C1011 C 0.59149 0.92348 0.25094 0.0
C1012 C 0.5751 0.90509 0.83975 0.0
C1013 C 0.57804 0.90347 0.89533 0.0
C1014 C 0.57251 0.92855 0.02365 0.0
C1015 C 0.58703 0.91125 0.16076 0.0
C1016 C 0.58537 0.91354 0.10132 0.0
C1017 C 0.57901 0.91861 0.92852 0.0
C1018 C 0.58138 0.91697 0.9881 0.0
H1019 H 0.58819 0.87835 0.25429 0.0
H1020 H 0.58446 0.88265 0.15817 0.0
H1021 H 0.56729 0.93582 0.10567 0.0
H1022 H 0.57282 0.95018 0.83217 0.0
H1023 H 0.57836 0.94738 0.92823 0.0
C1024 C 0.1971 0.21926 0.32357 0.0
C1025 C 0.19467 0.20469 0.28906 0.0
C1026 C 0.21242 0.22966 0.32006 0.0
C1027 C 0.24418 0.24262 0.21535 0.0
H1028 H 0.26646 0.26921 0.3305 0.0
C1029 C 0.3072 0.28549 0.18936 0.0
C1030 C 0.30968 0.30002 0.22401 0.0
C1031 C 0.29187 0.27511 0.19289 0.0
C1032 C 0.26014 0.26213 0.29775 0.0
H1033 H 0.2073 0.18835 0.22826 0.0
H1034 H 0.23426 0.20617 0.22327 0.0
H1035 H 0.24479 0.24629 0.35222 0.0
H1036 H 0.29712 0.31631 0.28506 0.0
H1037 H 0.27013 0.29853 0.29005 0.0
H1038 H 0.25952 0.25846 0.16087 0.0
C1039 C 0.2241 0.20987 0.25202 0.0
C1040 C 0.24783 0.24885 0.31029 0.0
C1041 C 0.20878 0.19943 0.25567 0.0
C1042 C 0.2956 0.30526 0.25755 0.0
C1043 C 0.28026 0.29484 0.2612 0.0
C1044 C 0.25648 0.25589 0.2028 0.0
C1045 C 0.22563 0.22566 0.28195 0.0
C1046 C 0.2397 0.23891 0.26926 0.0
C1047 C 0.2787 0.27909 0.23114 0.0
C1048 C 0.26462 0.26584 0.24383 0.0
H1049 H 0.18642 0.22365 0.34958 0.0
H1050 H 0.21314 0.24166 0.34392 0.0
H1051 H 0.23786 0.23553 0.1826 0.0
H1052 H 0.31785 0.28112 0.16321 0.0
H1053 H 0.29112 0.26313 0.16893 0.0
C1054 C 0.4504 0.546 0.50741 0.0
C1055 C 0.45526 0.5597 0.47195 0.0
C1056 C 0.46095 0.53081 0.51212 0.0
C1057 C 0.49967 0.5066 0.45381 0.0
H1058 H 0.50951 0.49562 0.60357 0.0
C1059 C 0.55552 0.45838 0.50749 0.0
C1060 C 0.55002 0.44444 0.54121 0.0
C1061 C 0.54539 0.4739 0.50369 0.0
C1062 C 0.50688 0.49848 0.56156 0.0
H1063 H 0.47385 0.56741 0.40976 0.0
H1064 H 0.49215 0.54093 0.41745 0.0
H1065 H 0.48677 0.51741 0.5813 0.0
H1066 H 0.53097 0.43667 0.60202 0.0
H1067 H 0.51351 0.46375 0.59621 0.0
H1068 H 0.5198 0.48767 0.43411 0.0
C1069 C 0.48027 0.54184 0.44184 0.0
C1070 C 0.49371 0.51086 0.5487 0.0
C1071 C 0.46971 0.55701 0.43715 0.0
C1072 C 0.53556 0.44723 0.57588 0.0
C1073 C 0.52548 0.46275 0.57225 0.0
C1074 C 0.51286 0.49425 0.46668 0.0
C1075 C 0.47656 0.52902 0.48147 0.0
C1076 C 0.48988 0.51504 0.49464 0.0
C1077 C 0.52968 0.47579 0.53379 0.0
C1078 C 0.51663 0.49001 0.52073 0.0
H1079 H 0.43956 0.54778 0.53551 0.0
H1080 H 0.45747 0.52098 0.54214 0.0
H1081 H 0.49701 0.5094 0.41179 0.0
H1082 H 0.56648 0.45659 0.4798 0.0
H1083 H 0.54923 0.4839 0.47461 0.0
C1084 C 0.20909 0.6992 0.76023 0.0
C1085 C 0.19514 0.70449 0.72626 0.0
C1086 C 0.22439 0.70963 0.76469 0.0
C1087 C 0.2484 0.74863 0.70706 0.0
H1088 H 0.2605 0.75762 0.8565 0.0
C1089 C 0.29658 0.8046 0.76036 0.0
C1090 C 0.31079 0.7991 0.79296 0.0
C1091 C 0.28116 0.79429 0.75699 0.0
C1092 C 0.25733 0.75523 0.81457 0.0
H1093 H 0.18717 0.72358 0.66576 0.0
H1094 H 0.21383 0.74159 0.67289 0.0
H1095 H 0.23859 0.73494 0.83453 0.0
H1096 H 0.31917 0.77984 0.85241 0.0
H1097 H 0.29226 0.76208 0.84734 0.0
H1098 H 0.26712 0.76893 0.68711 0.0
C1099 C 0.21301 0.72955 0.69656 0.0
C1100 C 0.24489 0.74209 0.80188 0.0
C1101 C 0.19771 0.71916 0.69222 0.0
C1102 C 0.30839 0.78443 0.82709 0.0
C1103 C 0.29297 0.77417 0.82388 0.0
C1104 C 0.26082 0.76178 0.71976 0.0
C1105 C 0.22608 0.72547 0.73501 0.0
C1106 C 0.24027 0.7386 0.74794 0.0
C1107 C 0.27963 0.7784 0.78643 0.0
C1108 C 0.26544 0.76527 0.77369 0.0
H1109 H 0.2075 0.68803 0.78727 0.0
H1110 H 0.23444 0.70585 0.79368 0.0
H1111 H 0.24529 0.74622 0.66511 0.0
H1112 H 0.29804 0.81574 0.73318 0.0
H1113 H 0.27091 0.79817 0.72874 0.0
C1114 C 0.03526 0.44716 0.9357 0.0
C1115 C 0.04959 0.44447 0.97094 0.0
C1116 C 0.02487 0.46248 0.93953 0.0
C1117 C 0.01131 0.49362 0.04543 0.0
H1118 H 0.98577 0.51697 0.93003 0.0
C1119 C 0.96869 0.55679 0.07303 0.0
C1120 C 0.9544 0.5596 0.03773 0.0
C1121 C 0.97904 0.54146 0.06901 0.0
C1122 C 0.99256 0.51035 0.96283 0.0
H1123 H 0.06527 0.4565 0.03429 0.0
H1124 H 0.04764 0.48351 0.0395 0.0
H1125 H 0.0086 0.49519 0.90842 0.0
H1126 H 0.93876 0.54775 0.97394 0.0
H1127 H 0.9563 0.52068 0.96847 0.0
H1128 H 0.99526 0.50876 0.09984 0.0
C1129 C 0.04414 0.4736 0.00973 0.0
C1130 C 0.00577 0.49797 0.95036 0.0
C1131 C 0.05454 0.45828 0.00584 0.0
C1132 C 0.94945 0.54588 1.00249 0.0
C1133 C 0.9598 0.53052 0.99843 0.0
C1134 C 0.99809 0.50599 0.0579 0.0
C1135 C 0.02861 0.47541 0.97877 0.0
C1136 C 0.01534 0.48947 0.99149 0.0
C1137 C 0.97529 0.52861 0.02953 0.0
C1138 C 0.98852 0.51451 0.01678 0.0
H1139 H 0.03104 0.43667 0.90876 0.0
H1140 H 0.01304 0.46341 0.91492 0.0
H1141 H 0.0181 0.48701 0.07822 0.0
H1142 H 0.97291 0.56723 0.10019 0.0
H1143 H 0.99084 0.54045 0.09371 0.0
C1144 C 0.80699 0.78503 0.6909 0.0
C1145 C 0.80951 0.79961 0.72532 0.0
C1146 C 0.79161 0.77474 0.69444 0.0
C1147 C 0.7596 0.762 0.79881 0.0
H1148 H 0.73733 0.73559 0.68323 0.0
C1149 C 0.69642 0.71924 0.82413 0.0
C1150 C 0.69395 0.70471 0.78951 0.0
C1151 C 0.71173 0.72964 0.8206 0.0
C1152 C 0.74364 0.74263 0.7161 0.0
H1153 H 0.79703 0.81603 0.78616 0.0
H1154 H 0.76994 0.79836 0.79128 0.0
H1155 H 0.75917 0.75839 0.66192 0.0
H1156 H 0.70653 0.68844 0.72841 0.0
H1157 H 0.73349 0.70627 0.7234 0.0
H1158 H 0.74408 0.74622 0.85299 0.0
C1159 C 0.78007 0.7946 0.76251 0.0
C1160 C 0.75605 0.75583 0.70379 0.0
C1161 C 0.79546 0.80494 0.75881 0.0
C1162 C 0.70803 0.6995 0.7559 0.0
C1163 C 0.72335 0.70994 0.75224 0.0
C1164 C 0.74719 0.7488 0.81112 0.0
C1165 C 0.77842 0.77883 0.73251 0.0
C1166 C 0.7642 0.7657 0.74498 0.0
C1167 C 0.72492 0.72569 0.78238 0.0
C1168 C 0.73906 0.73891 0.76993 0.0
H1169 H 0.81764 0.78058 0.66486 0.0
H1170 H 0.79081 0.76275 0.67056 0.0
H1171 H 0.76592 0.76903 0.83167 0.0
H1172 H 0.68577 0.72359 0.85034 0.0
H1173 H 0.71248 0.74161 0.84462 0.0
C1174 C 0.70829 0.19918 0.24892 0.0
C1175 C 0.69428 0.20459 0.21539 0.0
C1176 C 0.72376 0.2094 0.25254 0.0
C1177 C 0.74794 0.24823 0.19454 0.0
H1178 H 0.75946 0.25767 0.34414 0.0
C1179 C 0.79558 0.3047 0.24882 0.0
C1180 C 0.80957 0.29951 0.28278 0.0
C1181 C 0.78033 0.29418 0.24448 0.0
C1182 C 0.75648 0.25514 0.30216 0.0
H1183 H 0.68632 0.22361 0.15474 0.0
H1184 H 0.71329 0.24125 0.1603 0.0
H1185 H 0.73774 0.23484 0.32203 0.0
H1186 H 0.81765 0.28055 0.3435 0.0
H1187 H 0.79107 0.26239 0.33664 0.0
H1188 H 0.76666 0.26855 0.17469 0.0
C1189 C 0.7124 0.22927 0.18422 0.0
C1190 C 0.74414 0.24192 0.28939 0.0
C1191 C 0.69695 0.21908 0.18073 0.0
C1192 C 0.80707 0.28489 0.31705 0.0
C1193 C 0.79183 0.27441 0.31285 0.0
C1194 C 0.76028 0.26145 0.20731 0.0
C1195 C 0.72552 0.22515 0.2225 0.0
C1196 C 0.7397 0.23828 0.23541 0.0
C1197 C 0.77875 0.27836 0.2743 0.0
C1198 C 0.7647 0.2651 0.2613 0.0
H1199 H 0.7066 0.1882 0.27661 0.0
H1200 H 0.73383 0.2056 0.28146 0.0
H1201 H 0.74493 0.24572 0.15256 0.0
H1202 H 0.79711 0.31583 0.22161 0.0
H1203 H 0.77027 0.29785 0.2154 0.0
C1204 C 0.96924 0.05817 0.93386 0.0
C1205 C 0.95493 0.06054 0.96942 0.0
C1206 C 0.97976 0.04294 0.93677 0.0
C1207 C 0.98439 0.99837 1.00006 0.0
H1208 H 0.0343 0.01103 1.0046 0.0
C1209 C 0.03523 0.94721 0.06879 0.0
C1210 C 0.04955 0.94484 0.03334 0.0
C1211 C 0.02489 0.96257 0.06633 0.0
C1212 C 0.02044 0.00724 1.0032 0.0
H1213 H 0.93918 0.04787 0.03154 0.0
H1214 H 0.95733 0.02122 0.03617 0.0
H1215 H 0.01228 0.03341 0.98095 0.0
H1216 H 0.0655 0.95748 0.97175 0.0
H1217 H 0.04763 0.98437 0.96772 0.0
H1218 H 0.99254 0.9722 0.02222 0.0
C1219 C 0.96057 0.03115 0.0062 0.0
C1220 C 0.0078 0.02003 0.98922 0.0
C1221 C 0.94999 0.04639 1.00315 0.0
C1222 C 0.05471 0.95904 1.00018 0.0
C1223 C 0.04428 0.9744 0.99744 0.0
C1224 C 0.99704 0.98558 0.01401 0.0
C1225 C 0.97618 0.02975 0.97532 0.0
C1226 C 0.9896 0.01576 0.98738 0.0
C1227 C 0.02862 0.97583 0.02812 0.0
C1228 C 0.01523 0.98985 0.01594 0.0
H1229 H 0.97333 0.06886 0.90741 0.0
H1230 H 0.99137 0.04203 0.91119 0.0
H1231 H 0.97054 0.99457 0.99865 0.0
H1232 H 0.03094 0.93643 0.0946 0.0
H1233 H 0.01326 0.96349 0.09178 0.0
C1234 C 0.46969 0.05744 0.57338 0.0
C1235 C 0.45497 0.0599 0.53947 0.0
C1236 C 0.47986 0.04197 0.57006 0.0
C1237 C 0.49182 0.00969 0.46578 0.0
H1238 H 0.51912 0.98772 0.57995 0.0
C1239 C 0.5344 0.94652 0.43873 0.0
C1240 C 0.54926 0.94419 0.47213 0.0
C1241 C 0.52399 0.9618 0.4428 0.0
C1242 C 0.51183 0.99394 0.54746 0.0
H1243 H 0.43816 0.04721 0.48 0.0
H1244 H 0.45555 0.01998 0.47547 0.0
H1245 H 0.49647 0.0096 0.60238 0.0
H1246 H 0.56603 0.95695 0.5316 0.0
H1247 H 0.54816 0.98385 0.53756 0.0
H1248 H 0.50718 0.99405 0.41085 0.0
C1249 C 0.45954 0.03022 0.50359 0.0
C1250 C 0.49872 0.00637 0.56042 0.0
C1251 C 0.44934 0.0457 0.50703 0.0
C1252 C 0.55472 0.95835 0.50503 0.0
C1253 C 0.54426 0.97364 0.50925 0.0
C1254 C 0.50493 0.99726 0.45282 0.0
C1255 C 0.47548 0.02864 0.53273 0.0
C1256 C 0.48853 0.0144 0.51975 0.0
C1257 C 0.52825 0.97509 0.48038 0.0
C1258 C 0.51513 0.98924 0.49348 0.0
H1259 H 0.47437 0.0682 0.59859 0.0
H1260 H 0.49199 0.04122 0.59329 0.0
H1261 H 0.48454 0.01592 0.43326 0.0
H1262 H 0.52986 0.9358 0.41311 0.0
H1263 H 0.51181 0.96246 0.41977 0.0
C1264 C 0.10465 0.98984 0.06041 0.0
C1265 C 0.11403 0.97562 0.08344 0.0
C1266 C 0.10979 0.00739 0.07063 0.0
C1267 C 0.14852 0.03378 0.11828 0.0
H1268 H 0.11378 0.07143 0.13151 0.0
C1269 C 0.16582 0.10482 0.19202 0.0
C1270 C 0.1577 0.11905 0.16486 0.0
C1271 C 0.16097 0.08728 0.18056 0.0
C1272 C 0.12366 0.06108 0.12739 0.0
H1273 H 0.1357 0.96871 0.13696 0.0
H1274 H 0.14429 0.99915 0.15592 0.0
H1275 H 0.10386 0.04105 0.11634 0.0
H1276 H 0.13843 0.12585 0.10314 0.0
H1277 H 0.13006 0.09535 0.08336 0.0
H1278 H 0.16828 0.05385 0.13022 0.0
C1279 C 0.13332 0.99684 0.12867 0.0
C1280 C 0.11797 0.04365 0.11859 0.0
C1281 C 0.12829 0.97935 0.11811 0.0
C1282 C 0.14497 0.11527 0.12498 0.0
C1283 C 0.14004 0.09777 0.11387 0.0
C1284 C 0.15418 0.05119 0.12749 0.0
C1285 C 0.12433 0.01112 0.10446 0.0
C1286 C 0.13032 0.02974 0.1139 0.0
C1287 C 0.1478 0.08358 0.142 0.0
C1288 C 0.14183 0.06505 0.13205 0.0
H1289 H 0.09363 0.98742 0.03339 0.0
H1290 H 0.10263 0.018 0.05084 0.0
H1291 H 0.15846 0.02352 0.11384 0.0
H1292 H 0.17564 0.10722 0.22304 0.0
H1293 H 0.16713 0.07664 0.20313 0.0
C1294 C 0.63943 0.39365 0.38109 0.0
C1295 C 0.63561 0.40663 0.42013 0.0
C1296 C 0.65696 0.38901 0.36933 0.0
C1297 C 0.70237 0.39079 0.42685 0.0
H1298 H 0.71628 0.37781 0.28168 0.0
C1299 C 0.77537 0.37962 0.3633 0.0
C1300 C 0.77903 0.36508 0.32962 0.0
C1301 C 0.75788 0.38436 0.37525 0.0
C1302 C 0.71254 0.38122 0.32253 0.0
H1303 H 0.64738 0.42531 0.47615 0.0
H1304 H 0.67798 0.41755 0.45459 0.0
H1305 H 0.68603 0.38773 0.29906 0.0
H1306 H 0.76714 0.34392 0.28271 0.0
H1307 H 0.73651 0.3523 0.30334 0.0
H1308 H 0.72904 0.38454 0.44995 0.0
C1309 C 0.66738 0.41064 0.43397 0.0
C1310 C 0.69519 0.38691 0.33257 0.0
C1311 C 0.64981 0.41521 0.44604 0.0
C1312 C 0.76477 0.35521 0.30873 0.0
C1313 C 0.74724 0.36007 0.32027 0.0
C1314 C 0.71977 0.38524 0.41669 0.0
C1315 C 0.67119 0.3973 0.39594 0.0
C1316 C 0.68984 0.39173 0.38491 0.0
C1317 C 0.74361 0.37476 0.35344 0.0
C1318 C 0.72504 0.38035 0.36444 0.0
H1319 H 0.62887 0.38666 0.3605 0.0
H1320 H 0.6593 0.37851 0.34041 0.0
H1321 H 0.69869 0.39405 0.46783 0.0
H1322 H 0.78603 0.38749 0.38017 0.0
H1323 H 0.75553 0.39583 0.40056 0.0
C1324 C 0.33875 0.89952 0.69782 0.0
C1325 C 0.34717 0.88537 0.67118 0.0
C1326 C 0.34343 0.91711 0.68638 0.0
C1327 C 0.36736 0.94518 0.58585 0.0
H1328 H 0.37015 0.97847 0.70462 0.0
C1329 C 0.3998 0.01454 0.56464 0.0
C1330 C 0.38999 0.02879 0.58584 0.0
C1331 C 0.39482 0.99701 0.57568 0.0
C1332 C 0.36934 0.96935 0.67098 0.0
H1333 H 0.36697 0.87877 0.61084 0.0
H1334 H 0.37531 0.9092 0.59187 0.0
H1335 H 0.36029 0.94815 0.72127 0.0
H1336 H 0.3676 0.03577 0.63655 0.0
H1337 H 0.35908 0.00527 0.65612 0.0
H1338 H 0.37672 0.96639 0.53583 0.0
C1339 C 0.36485 0.90682 0.62088 0.0
C1340 C 0.36358 0.95198 0.68043 0.0
C1341 C 0.36009 0.88928 0.63201 0.0
C1342 C 0.37542 0.02512 0.61944 0.0
C1343 C 0.37058 0.00763 0.63091 0.0
C1344 C 0.37327 0.96251 0.57653 0.0
C1345 C 0.35673 0.92099 0.64826 0.0
C1346 C 0.36249 0.93964 0.63798 0.0
C1347 C 0.38007 0.99336 0.60868 0.0
C1348 C 0.3743 0.9748 0.61895 0.0
H1349 H 0.32871 0.89703 0.72814 0.0
H1350 H 0.33665 0.92767 0.7076 0.0
H1351 H 0.36643 0.93619 0.55195 0.0
H1352 H 0.4111 0.01692 0.53865 0.0
H1353 H 0.40251 0.98628 0.55841 0.0
C1354 C 0.73867 0.64859 0.81253 0.0
C1355 C 0.72441 0.63911 0.83498 0.0
C1356 C 0.7562 0.64354 0.82327 0.0
C1357 C 0.78277 0.60503 0.8717 0.0
H1358 H 0.81995 0.64021 0.88668 0.0
C1359 C 0.85393 0.58845 0.94642 0.0
C1360 C 0.86808 0.59678 0.91945 0.0
C1361 C 0.83634 0.59313 0.93501 0.0
C1362 C 0.80974 0.63021 0.8821 0.0
H1363 H 0.71742 0.61728 0.88783 0.0
H1364 H 0.74784 0.60881 0.90765 0.0
H1365 H 0.78952 0.64977 0.8706 0.0
H1366 H 0.87468 0.61628 0.8582 0.0
H1367 H 0.84411 0.62436 0.83852 0.0
H1368 H 0.80304 0.58551 0.88408 0.0
C1369 C 0.74557 0.61983 0.88051 0.0
C1370 C 0.79227 0.63569 0.87276 0.0
C1371 C 0.72808 0.62478 0.86944 0.0
C1372 C 0.86417 0.60958 0.8799 0.0
C1373 C 0.84663 0.61434 0.86884 0.0
C1374 C 0.80022 0.59957 0.88146 0.0
C1375 C 0.75989 0.62898 0.85706 0.0
C1376 C 0.77853 0.62318 0.86733 0.0
C1377 C 0.83251 0.60634 0.8967 0.0
C1378 C 0.81391 0.61209 0.88659 0.0
H1379 H 0.7363 0.65967 0.78569 0.0
H1380 H 0.76685 0.65081 0.804 0.0
H1381 H 0.77264 0.59498 0.86677 0.0
H1382 H 0.85643 0.57856 0.97716 0.0
H1383 H 0.82575 0.58678 0.95736 0.0
C1384 C 0.8992 0.01526 0.94878 0.0
C1385 C 0.8895 0.0295 0.92716 0.0
C1386 C 0.89412 0.99772 0.93825 0.0
C1387 C 0.85528 0.97113 0.89211 0.0
H1388 H 0.89034 0.93393 0.87534 0.0
C1389 C 0.83833 0.89998 0.81794 0.0
C1390 C 0.84672 0.88583 0.84475 0.0
C1391 C 0.84307 0.91757 0.82913 0.0
C1392 C 0.88038 0.94416 0.88042 0.0
H1393 H 0.86727 0.03646 0.87588 0.0
H1394 H 0.85876 0.00604 0.85631 0.0
H1395 H 0.90002 0.96436 0.89087 0.0
H1396 H 0.8664 0.87925 0.90549 0.0
H1397 H 0.87459 0.90982 0.92474 0.0
H1398 H 0.83567 0.95087 0.8807 0.0
C1399 C 0.86996 0.00832 0.88274 0.0
C1400 C 0.88593 0.96162 0.88946 0.0
C1401 C 0.87494 0.02581 0.89364 0.0
C1402 C 0.85964 0.88975 0.88394 0.0
C1403 C 0.86446 0.9073 0.89474 0.0
C1404 C 0.84975 0.95369 0.8826 0.0
C1405 C 0.87931 0.99401 0.90546 0.0
C1406 C 0.87345 0.97536 0.89553 0.0
C1407 C 0.85641 0.9214 0.86702 0.0
C1408 C 0.86223 0.93999 0.87684 0.0
H1409 H 0.91047 0.01766 0.97489 0.0
H1410 H 0.90156 0.98709 0.95696 0.0
H1411 H 0.84525 0.98125 0.8976 0.0
H1412 H 0.82835 0.89747 0.78745 0.0
H1413 H 0.83667 0.92815 0.80692 0.0
C1414 C 0.23965 0.64847 0.69981 0.0
C1415 C 0.22539 0.639 0.67732 0.0
C1416 C 0.25718 0.64341 0.68909 0.0
C1417 C 0.28495 0.61836 0.59292 0.0
H1418 H 0.3179 0.61489 0.71233 0.0
C1419 C 0.35475 0.58788 0.56569 0.0
C1420 C 0.3689 0.59631 0.59234 0.0
C1421 C 0.33715 0.59245 0.5774 0.0
C1422 C 0.30896 0.61598 0.67836 0.0
H1423 H 0.2184 0.61709 0.62474 0.0
H1424 H 0.2489 0.6084 0.60582 0.0
H1425 H 0.28767 0.6251 0.72842 0.0
H1426 H 0.37549 0.61592 0.65322 0.0
H1427 H 0.34501 0.62404 0.67279 0.0
H1428 H 0.30623 0.60951 0.54263 0.0
C1429 C 0.24656 0.61971 0.63175 0.0
C1430 C 0.29162 0.62184 0.68764 0.0
C1431 C 0.22906 0.62466 0.64284 0.0
C1432 C 0.36497 0.60906 0.63199 0.0
C1433 C 0.34742 0.61369 0.64344 0.0
C1434 C 0.30233 0.61262 0.58353 0.0
C1435 C 0.26083 0.6289 0.65519 0.0
C1436 C 0.2794 0.62308 0.64505 0.0
C1437 C 0.33326 0.60562 0.61586 0.0
C1438 C 0.31459 0.61133 0.62613 0.0
H1439 H 0.23728 0.65959 0.72648 0.0
H1440 H 0.2679 0.65087 0.70727 0.0
H1441 H 0.27591 0.61935 0.55914 0.0
H1442 H 0.35725 0.57796 0.53506 0.0
H1443 H 0.3266 0.5857 0.55605 0.0
C1444 C 0.62889 0.97876 0.38784 0.0
C1445 C 0.61457 0.97511 0.42238 0.0
C1446 C 0.63377 0.99624 0.37635 0.0
C1447 C 0.61774 0.04288 0.38301 0.0
H1448 H 0.66792 0.05379 0.37208 0.0
C1449 C 0.64374 0.11482 0.37521 0.0
C1450 C 0.65659 0.1187 0.33578 0.0
C1451 C 0.63897 0.09728 0.38637 0.0
C1452 C 0.65386 0.05093 0.37458 0.0
H1453 H 0.59393 0.98702 0.47132 0.0
H1454 H 0.60266 0.01756 0.45225 0.0
H1455 H 0.65851 0.0234 0.38985 0.0
H1456 H 0.67489 0.10701 0.27836 0.0
H1457 H 0.66664 0.07635 0.29832 0.0
H1458 H 0.61316 0.07051 0.36854 0.0
C1459 C 0.60998 0.0069 0.43326 0.0
C1460 C 0.64843 0.03348 0.3846 0.0
C1461 C 0.60501 0.98938 0.44442 0.0
C1462 C 0.66495 0.10453 0.30898 0.0
C1463 C 0.66026 0.08695 0.32049 0.0
C1464 C 0.62318 0.06034 0.37341 0.0
C1465 C 0.62454 0.01057 0.39944 0.0
C1466 C 0.63029 0.0292 0.38884 0.0
C1467 C 0.64701 0.08315 0.35873 0.0
C1468 C 0.6413 0.06457 0.36906 0.0
H1469 H 0.63645 0.96809 0.36976 0.0
H1470 H 0.64478 0.9985 0.34919 0.0
H1471 H 0.60367 0.04008 0.38508 0.0
H1472 H 0.63701 0.12535 0.39676 0.0
H1473 H 0.62891 0.09478 0.41662 0.0
C1474 C 0.13961 0.3948 0.13072 0.0
C1475 C 0.13577 0.4077 0.09143 0.0
C1476 C 0.15714 0.39008 0.14215 0.0
C1477 C 0.20346 0.40511 0.13189 0.0
H1478 H 0.21441 0.35492 0.14047 0.0
C1479 C 0.27567 0.38028 0.14598 0.0
C1480 C 0.27925 0.36572 0.17962 0.0
C1481 C 0.25821 0.3852 0.1344 0.0
C1482 C 0.21158 0.36899 0.13898 0.0
H1483 H 0.14752 0.42616 0.0346 0.0
H1484 H 0.17817 0.41803 0.05512 0.0
H1485 H 0.184 0.3644 0.12359 0.0
H1486 H 0.26726 0.34473 0.22697 0.0
H1487 H 0.23675 0.35356 0.20785 0.0
H1488 H 0.23093 0.40978 0.14814 0.0
C1489 C 0.16754 0.41156 0.07693 0.0
C1490 C 0.19414 0.37442 0.12916 0.0
C1491 C 0.14996 0.41619 0.06511 0.0
C1492 C 0.26495 0.35599 0.20077 0.0
C1493 C 0.24744 0.36102 0.18956 0.0
C1494 C 0.22089 0.39969 0.14217 0.0
C1495 C 0.1713 0.39824 0.11495 0.0
C1496 C 0.18988 0.39254 0.12547 0.0
C1497 C 0.24383 0.3758 0.15655 0.0
C1498 C 0.22521 0.38155 0.14574 0.0
H1499 H 0.12906 0.38797 0.15191 0.0
H1500 H 0.15961 0.37997 0.17223 0.0
H1501 H 0.20057 0.41917 0.1299 0.0
H1502 H 0.28638 0.38797 0.12859 0.0
H1503 H 0.25601 0.39639 0.10786 0.0
C1504 C 0.60415 0.48804 0.583 0.0
C1505 C 0.61033 0.48051 0.5347 0.0
C1506 C 0.60994 0.5049 0.5992 0.0
C1507 C 0.63131 0.5458 0.54545 0.0
H1508 H 0.63976 0.55616 0.69623 0.0
C1509 C 0.6442 0.61694 0.61899 0.0
C1510 C 0.6562 0.61979 0.66153 0.0
C1511 C 0.63926 0.5998 0.60402 0.0
C1512 C 0.63767 0.55344 0.65388 0.0
H1513 H 0.62759 0.48474 0.46591 0.0
H1514 H 0.63792 0.51371 0.49452 0.0
H1515 H 0.62978 0.52663 0.66975 0.0
H1516 H 0.67266 0.60664 0.72106 0.0
H1517 H 0.66436 0.57659 0.69389 0.0
H1518 H 0.6397 0.57232 0.52921 0.0
C1519 C 0.62828 0.5069 0.51943 0.0
C1520 C 0.63168 0.53656 0.63875 0.0
C1521 C 0.6224 0.49019 0.50308 0.0
C1522 C 0.6634 0.60496 0.68808 0.0
C1523 C 0.65851 0.58772 0.67282 0.0
C1524 C 0.63741 0.56258 0.56049 0.0
C1525 C 0.62212 0.51455 0.56762 0.0
C1526 C 0.62838 0.53252 0.58429 0.0
C1527 C 0.64627 0.58493 0.63077 0.0
C1528 C 0.64056 0.5667 0.61492 0.0
H1529 H 0.59482 0.48094 0.60822 0.0
H1530 H 0.60471 0.51044 0.63618 0.0
H1531 H 0.62872 0.54333 0.50322 0.0
H1532 H 0.63825 0.62799 0.59776 0.0
H1533 H 0.62957 0.59826 0.57217 0.0
C1534 C 0.14 0.89579 0.8751 0.0
C1535 C 0.13594 0.90853 0.91465 0.0
C1536 C 0.15757 0.8909 0.86496 0.0
C1537 C 0.20224 0.8913 0.92806 0.0
H1538 H 0.2177 0.87847 0.78422 0.0
C1539 C 0.27573 0.87872 0.87218 0.0
C1540 C 0.27949 0.86426 0.83828 0.0
C1541 C 0.25821 0.88372 0.88261 0.0
C1542 C 0.21352 0.88183 0.82471 0.0
H1543 H 0.14737 0.92657 0.97321 0.0
H1544 H 0.17807 0.91842 0.95439 0.0
H1545 H 0.18752 0.88913 0.79832 0.0
H1546 H 0.26774 0.84348 0.78953 0.0
H1547 H 0.23706 0.85235 0.80747 0.0
H1548 H 0.22843 0.88428 0.95408 0.0
C1549 C 0.1676 0.91186 0.93211 0.0
C1550 C 0.1962 0.88795 0.83287 0.0
C1551 C 0.14998 0.91668 0.94257 0.0
C1552 C 0.2653 0.85469 0.81578 0.0
C1553 C 0.24773 0.85984 0.82577 0.0
C1554 C 0.21961 0.88534 0.91978 0.0
C1555 C 0.17162 0.8987 0.89373 0.0
C1556 C 0.19029 0.89272 0.8847 0.0
C1557 C 0.24401 0.8745 0.859 0.0
C1558 C 0.22544 0.88048 0.86804 0.0
H1559 H 0.12957 0.88912 0.85297 0.0
H1560 H 0.16005 0.88055 0.83567 0.0
H1561 H 0.19812 0.8945 0.9687 0.0
H1562 H 0.28635 0.88635 0.89028 0.0
H1563 H 0.2558 0.89515 0.90806 0.0
C1564 C 0.89614 0.50852 0.99755 0.0
C1565 C 0.89812 0.5223 0.0352 0.0
C1566 C 0.8902 0.49178 0.01378 0.0
C1567 C 0.86391 0.46953 0.11805 0.0
H1568 H 0.88672 0.42687 0.06524 0.0
C1569 C 0.8446 0.39906 0.19283 0.0
C1570 C 0.84605 0.38488 0.15628 0.0
C1571 C 0.85031 0.4161 0.17842 0.0
C1572 C 0.87996 0.43861 0.07971 0.0
H1573 H 0.89563 0.52922 0.11969 0.0
H1574 H 0.88507 0.49995 0.14795 0.0
H1575 H 0.89854 0.45578 0.04031 0.0
H1576 H 0.85367 0.37773 0.0749 0.0
H1577 H 0.86293 0.40744 0.04911 0.0
H1578 H 0.84509 0.45243 0.15654 0.0
C1579 C 0.88811 0.50217 0.10582 0.0
C1580 C 0.88684 0.4552 0.06562 0.0
C1581 C 0.89428 0.51887 0.08968 0.0
C1582 C 0.85253 0.38831 0.10422 0.0
C1583 C 0.85802 0.40536 0.08961 0.0
C1584 C 0.85689 0.45292 0.13173 0.0
C1585 C 0.88591 0.48847 0.06797 0.0
C1586 C 0.87888 0.47085 0.08449 0.0
C1587 C 0.85743 0.41941 0.1269 0.0
C1588 C 0.86478 0.43721 0.11255 0.0
H1589 H 0.899 0.5107 0.9553 0.0
H1590 H 0.88853 0.48153 0.98361 0.0
H1591 H 0.85736 0.48137 0.13273 0.0
H1592 H 0.8398 0.39684 0.23342 0.0
H1593 H 0.84976 0.4265 0.20845 0.0
C1594 C 0.23967 0.14861 0.31219 0.0
C1595 C 0.22537 0.13894 0.33357 0.0
C1596 C 0.25718 0.14348 0.32299 0.0
C1597 C 0.28361 0.10462 0.36948 0.0
H1598 H 0.32079 0.13967 0.38706 0.0
C1599 C 0.35471 0.08775 0.44442 0.0
C1600 C 0.36885 0.09614 0.41757 0.0
C1601 C 0.33712 0.09245 0.43313 0.0
C1602 C 0.31057 0.12972 0.38177 0.0
H1603 H 0.21824 0.1167 0.38463 0.0
H1604 H 0.24862 0.10811 0.40469 0.0
H1605 H 0.29038 0.14936 0.37118 0.0
H1606 H 0.37544 0.11577 0.35667 0.0
H1607 H 0.34487 0.12391 0.33729 0.0
H1608 H 0.30386 0.08501 0.38106 0.0
C1609 C 0.24641 0.11933 0.37826 0.0
C1610 C 0.29312 0.13527 0.37253 0.0
C1611 C 0.22895 0.12434 0.36708 0.0
C1612 C 0.36494 0.10902 0.37826 0.0
C1613 C 0.3474 0.11381 0.36737 0.0
C1614 C 0.30104 0.09909 0.37921 0.0
C1615 C 0.26078 0.12867 0.35583 0.0
C1616 C 0.2794 0.1228 0.36611 0.0
C1617 C 0.3333 0.10576 0.39513 0.0
C1618 C 0.31472 0.11157 0.38524 0.0
H1619 H 0.23736 0.15989 0.28608 0.0
H1620 H 0.26786 0.1509 0.30449 0.0
H1621 H 0.2735 0.0946 0.36376 0.0
H1622 H 0.35721 0.0778 0.47499 0.0
H1623 H 0.32652 0.08607 0.45536 0.0
C1624 C 0.34494 0.39908 0.31655 0.0
C1625 C 0.34628 0.38484 0.3529 0.0
C1626 C 0.35066 0.41608 0.33132 0.0
C1627 C 0.38019 0.43835 0.43075 0.0
H1628 H 0.35775 0.48123 0.37805 0.0
C1629 C 0.39658 0.50816 0.51335 0.0
C1630 C 0.39863 0.52193 0.47568 0.0
C1631 C 0.39058 0.49144 0.4971 0.0
C1632 C 0.36425 0.46936 0.39265 0.0
H1633 H 0.35374 0.37752 0.43429 0.0
H1634 H 0.36303 0.40716 0.46069 0.0
H1635 H 0.34543 0.45236 0.3538 0.0
H1636 H 0.39619 0.52887 0.39118 0.0
H1637 H 0.38553 0.49966 0.36292 0.0
H1638 H 0.39878 0.45541 0.47049 0.0
C1639 C 0.35818 0.40516 0.42008 0.0
C1640 C 0.35721 0.45278 0.37872 0.0
C1641 C 0.35268 0.38816 0.40512 0.0
C1642 C 0.39479 0.51853 0.4212 0.0
C1643 C 0.38856 0.50185 0.40505 0.0
C1644 C 0.3871 0.45489 0.4451 0.0
C1645 C 0.35769 0.41928 0.383 0.0
C1646 C 0.36505 0.43703 0.39774 0.0
C1647 C 0.38629 0.48816 0.4429 0.0
C1648 C 0.3792 0.47058 0.42632 0.0
H1649 H 0.34021 0.39695 0.27585 0.0
H1650 H 0.3502 0.42654 0.30145 0.0
H1651 H 0.38691 0.42656 0.44513 0.0
H1652 H 0.39944 0.51033 0.5556 0.0
H1653 H 0.38886 0.4812 0.52726 0.0
C1654 C 0.73816 0.15027 0.17436 0.0
C1655 C 0.73052 0.14411 0.22253 0.0
C1656 C 0.755 0.14436 0.1583 0.0
C1657 C 0.79564 0.12263 0.21248 0.0
H1658 H 0.80627 0.11435 0.06177 0.0
C1659 C 0.86686 0.10954 0.1402 0.0
C1660 C 0.86978 0.09761 0.09753 0.0
C1661 C 0.8497 0.11452 0.15486 0.0
C1662 C 0.80347 0.11638 0.1041 0.0
H1663 H 0.73451 0.12676 0.29122 0.0
H1664 H 0.76343 0.11623 0.26286 0.0
H1665 H 0.77674 0.12447 0.08787 0.0
H1666 H 0.85673 0.08131 0.03743 0.0
H1667 H 0.82662 0.08967 0.06407 0.0
H1668 H 0.82207 0.11405 0.22909 0.0
C1669 C 0.75674 0.12594 0.23795 0.0
C1670 C 0.78659 0.12247 0.11902 0.0
C1671 C 0.74006 0.13194 0.25416 0.0
C1672 C 0.85498 0.0905 0.07053 0.0
C1673 C 0.83772 0.09543 0.08549 0.0
C1674 C 0.81241 0.11644 0.19766 0.0
C1675 C 0.76451 0.13209 0.18991 0.0
C1676 C 0.78247 0.12572 0.17345 0.0
C1677 C 0.83487 0.10761 0.12768 0.0
C1678 C 0.81663 0.11336 0.14326 0.0
H1679 H 0.73117 0.15967 0.14913 0.0
H1680 H 0.76064 0.14958 0.12144 0.0
H1681 H 0.79311 0.12519 0.25471 0.0
H1682 H 0.87788 0.11543 0.16179 0.0
H1683 H 0.84812 0.12416 0.18683 0.0
C1684 C 0.15966 0.60494 0.81512 0.0
C1685 C 0.15836 0.61914 0.85164 0.0
C1686 C 0.1539 0.58793 0.82973 0.0
C1687 C 0.12434 0.56564 0.92912 0.0
H1688 H 0.14665 0.52273 0.87613 0.0
C1689 C 0.10805 0.49589 0.01225 0.0
C1690 C 0.10594 0.48208 0.97473 0.0
C1691 C 0.11402 0.51259 0.99576 0.0
C1692 C 0.14019 0.53461 0.8908 0.0
H1693 H 0.15095 0.62637 0.93314 0.0
H1694 H 0.14161 0.59672 0.95926 0.0
H1695 H 0.15901 0.55159 0.85181 0.0
H1696 H 0.10821 0.47509 0.89024 0.0
H1697 H 0.11882 0.50428 0.86155 0.0
H1698 H 0.10576 0.5486 0.96902 0.0
C1699 C 0.14644 0.59876 0.91865 0.0
C1700 C 0.14725 0.55118 0.87683 0.0
C1701 C 0.15198 0.61576 0.90385 0.0
C1702 C 0.10967 0.48545 0.92015 0.0
C1703 C 0.11587 0.50211 0.90376 0.0
C1704 C 0.11742 0.5491 0.9435 0.0
C1705 C 0.14688 0.58469 0.88141 0.0
C1706 C 0.13946 0.56694 0.89601 0.0
C1707 C 0.11821 0.51583 0.94146 0.0
C1708 C 0.12528 0.5334 0.92465 0.0
H1709 H 0.16437 0.60712 0.77441 0.0
H1710 H 0.15433 0.57752 0.79974 0.0
H1711 H 0.11766 0.57743 0.9436 0.0
H1712 H 0.10528 0.49374 0.05457 0.0
H1713 H 0.1158 0.52286 0.02581 0.0
C1714 C 0.64987 0.91583 0.56496 0.0
C1715 C 0.63575 0.90761 0.59241 0.0
C1716 C 0.66747 0.91109 0.57599 0.0
C1717 C 0.694 0.87392 0.6284 0.0
H1718 H 0.73133 0.90895 0.64273 0.0
C1719 C 0.76508 0.85524 0.69696 0.0
C1720 C 0.77935 0.86467 0.67446 0.0
C1721 C 0.74756 0.86033 0.68624 0.0
C1722 C 0.72114 0.89895 0.63805 0.0
H1723 H 0.62923 0.88824 0.65413 0.0
H1724 H 0.65982 0.88004 0.67313 0.0
H1725 H 0.70095 0.91859 0.62612 0.0
H1726 H 0.7864 0.88643 0.62142 0.0
H1727 H 0.75599 0.89497 0.60157 0.0
H1728 H 0.71414 0.85425 0.63944 0.0
C1729 C 0.65726 0.89004 0.64275 0.0
C1730 C 0.7037 0.90451 0.62871 0.0
C1731 C 0.63971 0.89486 0.63208 0.0
C1732 C 0.77572 0.87897 0.63985 0.0
C1733 C 0.75824 0.88397 0.62878 0.0
C1734 C 0.71146 0.86834 0.63731 0.0
C1735 C 0.67133 0.89791 0.61437 0.0
C1736 C 0.68992 0.89206 0.62399 0.0
C1737 C 0.7439 0.87489 0.6524 0.0
C1738 C 0.72528 0.88078 0.64238 0.0
H1739 H 0.64733 0.92567 0.5341 0.0
H1740 H 0.67802 0.91734 0.55325 0.0
H1741 H 0.68372 0.86398 0.62411 0.0
H1742 H 0.76743 0.84419 0.72394 0.0
H1743 H 0.7369 0.85312 0.70564 0.0
C1744 C 0.13665 0.21969 0.16086 0.0
C1745 C 0.13715 0.21433 0.2149 0.0
C1746 C 0.12458 0.2327 0.14423 0.0
C1747 C 0.1026 0.27117 0.20415 0.0
H1748 H 0.08225 0.27708 0.06191 0.0
C1749 C 0.07182 0.33761 0.14416 0.0
C1750 C 0.07746 0.3442 0.09408 0.0
C1751 C 0.07431 0.31974 0.15727 0.0
C1752 C 0.08786 0.27561 0.10182 0.0
H1753 H 0.12491 0.21718 0.29318 0.0
H1754 H 0.10343 0.23944 0.26408 0.0
H1755 H 0.09515 0.2485 0.0875 0.0
H1756 H 0.08906 0.33699 0.01712 0.0
H1757 H 0.09379 0.30603 0.04041 0.0
H1758 H 0.09613 0.29831 0.21803 0.0
C1759 C 0.11251 0.23398 0.23461 0.0
C1760 C 0.09523 0.25924 0.11646 0.0
C1761 C 0.12468 0.22117 0.25123 0.0
C1762 C 0.08464 0.33235 0.05619 0.0
C1763 C 0.08724 0.31452 0.06942 0.0
C1764 C 0.0953 0.28746 0.18956 0.0
C1765 C 0.11287 0.24052 0.18156 0.0
C1766 C 0.10297 0.25694 0.16752 0.0
C1767 C 0.0826 0.30811 0.12072 0.0
C1768 C 0.08814 0.29003 0.1379 0.0
H1769 H 0.14636 0.2148 0.13245 0.0
H1770 H 0.12532 0.23751 0.10319 0.0
H1771 H 0.10879 0.27005 0.24338 0.0
H1772 H 0.06599 0.34635 0.17393 0.0
H1773 H 0.07022 0.31516 0.19672 0.0
C1774 C 0.52824 0.37747 0.49669 0.0
C1775 C 0.5387 0.38794 0.46242 0.0
C1776 C 0.51565 0.36583 0.47558 0.0
C1777 C 0.4871 0.36238 0.35717 0.0
H1778 H 0.47111 0.31933 0.42767 0.0
C1779 C 0.42097 0.33054 0.29814 0.0
C1780 C 0.40969 0.32698 0.34192 0.0
C1781 C 0.43904 0.33362 0.3064 0.0
C1782 C 0.47545 0.33131 0.40749 0.0
H1783 H 0.54438 0.3943 0.37931 0.0
H1784 H 0.52276 0.37359 0.34192 0.0
H1785 H 0.49958 0.33245 0.45296 0.0
H1786 H 0.40873 0.32264 0.42825 0.0
H1787 H 0.44022 0.32827 0.44279 0.0
H1788 H 0.46279 0.36167 0.31316 0.0
C1789 C 0.52426 0.37437 0.38525 0.0
C1790 C 0.49174 0.33883 0.42193 0.0
C1791 C 0.53684 0.38608 0.40654 0.0
C1792 C 0.41706 0.32544 0.3937 0.0
C1793 C 0.43514 0.32856 0.40198 0.0
C1794 C 0.47088 0.35485 0.34266 0.0
C1795 C 0.51312 0.36452 0.41959 0.0
C1796 C 0.49752 0.35474 0.39802 0.0
C1797 C 0.44623 0.33323 0.35862 0.0
C1798 C 0.46463 0.3395 0.36865 0.0
H1799 H 0.52931 0.37886 0.54002 0.0
H1800 H 0.50716 0.3587 0.50333 0.0
H1801 H 0.49094 0.37478 0.33851 0.0
H1802 H 0.41576 0.33159 0.2576 0.0
H1803 H 0.44729 0.33687 0.27204 0.0
C1804 C 0.42433 0.67174 0.54298 0.0
C1805 C 0.42772 0.66026 0.58641 0.0
C1806 C 0.42136 0.68979 0.55186 0.0
C1807 C 0.42379 0.72582 0.654 0.0
H1808 H 0.38018 0.74151 0.58631 0.0
C1809 C 0.37792 0.7784 0.74572 0.0
C1810 C 0.36719 0.78879 0.71207 0.0
C1811 C 0.38955 0.76592 0.72393 0.0
C1812 C 0.39263 0.73764 0.60462 0.0
H1813 H 0.43196 0.65894 0.67274 0.0
H1814 H 0.42656 0.69041 0.68833 0.0
H1815 H 0.39326 0.71347 0.55984 0.0
H1816 H 0.36033 0.79445 0.62933 0.0
H1817 H 0.3811 0.77315 0.59074 0.0
H1818 H 0.42277 0.74982 0.70014 0.0
C1819 C 0.42628 0.68549 0.64735 0.0
C1820 C 0.40013 0.72147 0.58946 0.0
C1821 C 0.42926 0.66742 0.63847 0.0
C1822 C 0.36878 0.78699 0.65609 0.0
C1823 C 0.38051 0.77457 0.63411 0.0
C1824 C 0.41632 0.74208 0.66904 0.0
C1825 C 0.42174 0.69676 0.60434 0.0
C1826 C 0.41552 0.71514 0.61499 0.0
C1827 C 0.39061 0.76346 0.66786 0.0
C1828 C 0.40035 0.74793 0.64563 0.0
H1829 H 0.42328 0.66669 0.50225 0.0
H1830 H 0.41819 0.69819 0.51779 0.0
H1831 H 0.4358 0.72141 0.67385 0.0
H1832 H 0.37673 0.77939 0.78913 0.0
H1833 H 0.39687 0.75745 0.75128 0.0
C1834 C 0.08721 0.67814 0.89255 0.0
C1835 C 0.09466 0.67644 0.84091 0.0
C1836 C 0.06912 0.67499 0.90072 0.0
C1837 C 0.03335 0.64856 0.84171 0.0
H1838 H 0.00448 0.67157 0.95045 0.0
C1839 C 0.96694 0.61803 0.90465 0.0
C1840 C 0.9649 0.61636 0.96054 0.0
C1841 C 0.97964 0.62961 0.88333 0.0
C1842 C 0.01236 0.66502 0.91986 0.0
H1843 H 0.08873 0.67145 0.75672 0.0
H1844 H 0.0572 0.66611 0.77096 0.0
H1845 H 0.03313 0.68437 0.92555 0.0
H1846 H 0.97409 0.62566 0.03809 0.0
H1847 H 0.99643 0.64562 1.00139 0.0
H1848 H 0.01312 0.62879 0.8376 0.0
C1849 C 0.06539 0.66951 0.8053 0.0
C1850 C 0.02877 0.67235 0.90565 0.0
C1851 C 0.08346 0.67264 0.79715 0.0
C1852 C 0.97527 0.62692 0.99474 0.0
C1853 C 0.98799 0.63844 0.97361 0.0
C1854 C 0.01701 0.64122 0.85599 0.0
C1855 C 0.0581 0.67012 0.8574 0.0
C1856 C 0.03965 0.66395 0.86737 0.0
C1857 C 0.99074 0.63952 0.91767 0.0
C1858 C 0.00651 0.64908 0.89627 0.0
H1859 H 0.09547 0.68113 0.92708 0.0
H1860 H 0.06397 0.67544 0.94144 0.0
H1861 H 0.04147 0.64158 0.81263 0.0
H1862 H 0.95946 0.60973 0.87747 0.0
H1863 H 0.98129 0.63024 0.84003 0.0
C1864 C 0.93233 0.66672 0.86666 0.0
C1865 C 0.92659 0.66001 0.91649 0.0
C1866 C 0.92995 0.68464 0.85401 0.0
C1867 C 0.91651 0.72867 0.9104 0.0
H1868 H 0.89569 0.73464 0.76886 0.0
C1869 C 0.86786 0.78483 0.85238 0.0
C1870 C 0.8673 0.7902 0.79836 0.0
C1871 C 0.87996 0.77182 0.86881 0.0
C1872 C 0.90185 0.73342 0.80809 0.0
H1873 H 0.91492 0.66705 0.99349 0.0
H1874 H 0.91037 0.6981 0.97098 0.0
H1875 H 0.90825 0.70629 0.79361 0.0
H1876 H 0.87948 0.78743 0.71997 0.0
H1877 H 0.90104 0.76522 0.74876 0.0
H1878 H 0.90929 0.75577 0.92531 0.0
C1879 C 0.91692 0.68966 0.94183 0.0
C1880 C 0.90909 0.71707 0.82234 0.0
C1881 C 0.91941 0.67178 0.95461 0.0
C1882 C 0.87975 0.78343 0.7619 0.0
C1883 C 0.89197 0.77064 0.77834 0.0
C1884 C 0.9092 0.7451 0.8961 0.0
C1885 C 0.92166 0.6962 0.89076 0.0
C1886 C 0.91621 0.71435 0.87399 0.0
C1887 C 0.89164 0.76403 0.83132 0.0
C1888 C 0.9015 0.74755 0.84505 0.0
H1889 H 0.93816 0.65803 0.83674 0.0
H1890 H 0.93411 0.68931 0.81473 0.0
H1891 H 0.92208 0.72708 0.95032 0.0
H1892 H 0.85818 0.78971 0.88091 0.0
H1893 H 0.87925 0.76697 0.90982 0.0
C1894 C 0.46962 0.61793 0.59755 0.0
C1895 C 0.46423 0.61754 0.54354 0.0
C1896 C 0.48253 0.63007 0.61442 0.0
C1897 C 0.5207 0.65287 0.55485 0.0
H1898 H 0.52669 0.6721 0.6985 0.0
C1899 C 0.58697 0.68377 0.61636 0.0
C1900 C 0.59376 0.67748 0.66548 0.0
C1901 C 0.56908 0.68133 0.60342 0.0
C1902 C 0.52519 0.66682 0.65818 0.0
H1903 H 0.46694 0.63001 0.46557 0.0
H1904 H 0.48899 0.65164 0.49513 0.0
H1905 H 0.49818 0.65914 0.67244 0.0
H1906 H 0.58683 0.66481 0.74112 0.0
H1907 H 0.55582 0.66022 0.71815 0.0
H1908 H 0.54775 0.65979 0.54097 0.0
C1909 C 0.48365 0.64241 0.52438 0.0
C1910 C 0.50886 0.65941 0.64328 0.0
C1911 C 0.47095 0.63016 0.5075 0.0
C1912 C 0.58205 0.66972 0.70277 0.0
C1913 C 0.5642 0.66721 0.68974 0.0
C1914 C 0.53694 0.66025 0.56968 0.0
C1915 C 0.49022 0.64197 0.57739 0.0
C1916 C 0.50655 0.65203 0.59172 0.0
C1917 C 0.55762 0.67248 0.63923 0.0
C1918 C 0.53953 0.66699 0.62185 0.0
H1919 H 0.46483 0.60809 0.62573 0.0
H1920 H 0.48737 0.62924 0.65542 0.0
H1921 H 0.51959 0.64698 0.51521 0.0
H1922 H 0.5956 0.69003 0.58707 0.0
H1923 H 0.56436 0.68587 0.56459 0.0
C1924 C 0.57941 0.3322 0.46474 0.0
C1925 C 0.5763 0.34385 0.42155 0.0
C1926 C 0.58258 0.31421 0.45534 0.0
C1927 C 0.58104 0.27862 0.35171 0.0
H1928 H 0.62417 0.26269 0.42169 0.0
C1929 C 0.62744 0.22629 0.26118 0.0
C1930 C 0.63784 0.21568 0.29516 0.0
C1931 C 0.61576 0.23879 0.28264 0.0
C1932 C 0.61185 0.26664 0.4027 0.0
H1933 H 0.5728 0.34553 0.33497 0.0
H1934 H 0.57852 0.31417 0.31851 0.0
H1935 H 0.61086 0.29063 0.44834 0.0
H1936 H 0.64407 0.20965 0.37812 0.0
H1937 H 0.62325 0.23103 0.4161 0.0
H1938 H 0.58242 0.25481 0.30478 0.0
C1939 C 0.57843 0.31891 0.3597 0.0
C1940 C 0.60422 0.28274 0.41796 0.0
C1941 C 0.57527 0.33692 0.36909 0.0
C1942 C 0.6359 0.2173 0.35108 0.0
C1943 C 0.62413 0.22976 0.37272 0.0
C1944 C 0.58863 0.26243 0.33658 0.0
C1945 C 0.58267 0.30747 0.40257 0.0
C1946 C 0.58901 0.28915 0.39164 0.0
C1947 C 0.61433 0.24105 0.33871 0.0
C1948 C 0.60444 0.25651 0.36082 0.0
H1949 H 0.58009 0.33707 0.50575 0.0
H1950 H 0.58551 0.30567 0.48929 0.0
H1951 H 0.56916 0.28309 0.33123 0.0
H1952 H 0.6289 0.22542 0.21783 0.0
H1953 H 0.60869 0.2474 0.25511 0.0
C1954 C 0.03712 0.38615 0.10472 0.0
C1955 C 0.03917 0.38779 0.04883 0.0
C1956 C 0.02453 0.37445 0.12606 0.0
C1957 C 0.99211 0.33876 0.08954 0.0
H1958 H 0.96283 0.36201 0.19673 0.0
C1959 C 0.91728 0.32563 0.11607 0.0
C1960 C 0.90978 0.32726 0.16766 0.0
C1961 C 0.93539 0.32872 0.10813 0.0
C1962 C 0.97101 0.35509 0.16767 0.0
H1963 H 0.03011 0.37835 0.97129 0.0
H1964 H 0.00793 0.35823 0.00803 0.0
H1965 H 0.9911 0.37498 0.17186 0.0
H1966 H 0.91564 0.33204 0.25202 0.0
H1967 H 0.9472 0.33729 0.23817 0.0
H1968 H 0.97144 0.31931 0.08371 0.0
C1969 C 0.01629 0.3655 0.03579 0.0
C1970 C 0.98731 0.36253 0.15344 0.0
C1971 C 0.02891 0.37712 0.01464 0.0
C1972 C 0.92095 0.33091 0.21162 0.0
C1973 C 0.93904 0.33398 0.20369 0.0
C1974 C 0.97574 0.33134 0.10367 0.0
C1975 C 0.01354 0.36442 0.09174 0.0
C1976 C 0.99785 0.35474 0.11315 0.0
C1977 C 0.94636 0.33347 0.15165 0.0
C1978 C 0.96481 0.33968 0.14193 0.0
H1979 H 0.0445 0.39455 0.13186 0.0
H1980 H 0.02288 0.37384 0.16936 0.0
H1981 H 1.00004 0.33227 0.05896 0.0
H1982 H 0.90904 0.32275 0.0814 0.0
H1983 H 0.94057 0.32834 0.06745 0.0
C1984 C 0.58485 0.83249 0.55823 0.0
C1985 C 0.57744 0.84437 0.59564 0.0
C1986 C 0.58713 0.81463 0.57144 0.0
C1987 C 0.59418 0.78748 0.69167 0.0
H1988 H 0.59442 0.74859 0.58935 0.0
C1989 C 0.62386 0.72124 0.75323 0.0
C1990 C 0.6363 0.71444 0.71679 0.0
C1991 C 0.61165 0.73405 0.73674 0.0
C1992 C 0.59439 0.75932 0.61839 0.0
H1993 H 0.56525 0.84654 0.67449 0.0
H1994 H 0.569 0.81528 0.69731 0.0
H1995 H 0.58167 0.7772 0.56345 0.0
H1996 H 0.64549 0.71502 0.63432 0.0
H1997 H 0.62441 0.7377 0.6053 0.0
H1998 H 0.60748 0.77005 0.74584 0.0
C1999 C 0.57346 0.81987 0.65824 0.0
C2000 C 0.58709 0.7757 0.60358 0.0
C2001 C 0.57125 0.83777 0.64511 0.0
C2002 C 0.63579 0.71988 0.66282 0.0
C2003 C 0.62368 0.73286 0.64632 0.0
C2004 C 0.60143 0.77118 0.70642 0.0
C2005 C 0.58197 0.80821 0.62227 0.0
C2006 C 0.58726 0.79009 0.63972 0.0
C2007 C 0.61196 0.74061 0.68371 0.0
C2008 C 0.60197 0.75699 0.66967 0.0
H2009 H 0.58967 0.83713 0.5196 0.0
H2010 H 0.59386 0.8061 0.54291 0.0
H2011 H 0.59488 0.79832 0.72022 0.0
H2012 H 0.6241 0.71722 0.79514 0.0
H2013 H 0.60256 0.73946 0.76628 0.0
C2014 C 0.02606 0.89648 0.90516 0.0
C2015 C 0.03891 0.89047 0.94149 0.0
C2016 C 0.01364 0.88472 0.8837 0.0
C2017 C 0.98995 0.85718 0.83362 0.0
H2018 H 0.9695 0.8264 0.94224 0.0
C2019 C 0.92213 0.82474 0.7981 0.0
C2020 C 0.91032 0.826 0.84172 0.0
C2021 C 0.94028 0.82764 0.80555 0.0
C2022 C 0.97503 0.83492 0.91137 0.0
H2023 H 0.0493 0.86763 0.9836 0.0
H2024 H 0.02803 0.84672 0.94439 0.0
H2025 H 0.9974 0.84139 0.96035 0.0
H2026 H 0.90836 0.83027 0.92786 0.0
H2027 H 0.9398 0.83591 0.94069 0.0
H2028 H 0.9669 0.8519 0.78642 0.0
C2029 C 0.02738 0.86054 0.93266 0.0
C2030 C 0.99122 0.84332 0.92141 0.0
C2031 C 0.03972 0.8724 0.95448 0.0
C2032 C 0.91713 0.82921 0.89344 0.0
C2033 C 0.93524 0.83233 0.90079 0.0
C2034 C 0.97366 0.84895 0.82383 0.0
C2035 C 0.01379 0.86667 0.89842 0.0
C2036 C 0.99858 0.85506 0.88342 0.0
C2037 C 0.947 0.83207 0.85669 0.0
C2038 C 0.96568 0.83819 0.86334 0.0
H2039 H 0.02504 0.91047 0.89555 0.0
H2040 H 0.00325 0.89006 0.85835 0.0
H2041 H 0.9954 0.86584 0.80297 0.0
H2042 H 0.91728 0.82203 0.75785 0.0
H2043 H 0.94897 0.8269 0.77087 0.0
C2044 C 0.8683 0.28478 0.15766 0.0
C2045 C 0.86751 0.29026 0.21155 0.0
C2046 C 0.88052 0.27181 0.14182 0.0
C2047 C 0.90248 0.23362 0.20357 0.0
H2048 H 0.92302 0.22729 0.06171 0.0
C2049 C 0.93331 0.167 0.1455 0.0
C2050 C 0.92756 0.16025 0.09573 0.0
C2051 C 0.93087 0.18491 0.1581 0.0
C2052 C 0.91737 0.22888 0.10154 0.0
H2053 H 0.8794 0.28765 0.29039 0.0
H2054 H 0.90115 0.26547 0.26267 0.0
H2055 H 0.91008 0.25593 0.08634 0.0
H2056 H 0.91583 0.16722 0.01877 0.0
H2057 H 0.9112 0.19827 0.04116 0.0
H2058 H 0.90898 0.20652 0.21831 0.0
C2059 C 0.89217 0.27081 0.2327 0.0
C2060 C 0.90997 0.24528 0.11562 0.0
C2061 C 0.87984 0.28358 0.24854 0.0
C2062 C 0.92032 0.17198 0.05761 0.0
C2063 C 0.91779 0.18986 0.07031 0.0
C2064 C 0.90983 0.21729 0.18954 0.0
C2065 C 0.89209 0.26414 0.17979 0.0
C2066 C 0.90213 0.24772 0.1665 0.0
C2067 C 0.92254 0.19643 0.12132 0.0
C2068 C 0.91704 0.21457 0.138 0.0
H2069 H 0.8587 0.28955 0.12873 0.0
H2070 H 0.87998 0.2669 0.10086 0.0
H2071 H 0.89623 0.23484 0.24268 0.0
H2072 H 0.93918 0.15835 0.17543 0.0
H2073 H 0.93501 0.18962 0.19735 0.0
C2074 C 0.58231 0.17461 0.29094 0.0
C2075 C 0.59383 0.17782 0.33439 0.0
C2076 C 0.5643 0.17144 0.2999 0.0
C2077 C 0.52834 0.1732 0.40229 0.0
H2078 H 0.51276 0.1298 0.33314 0.0
C2079 C 0.47583 0.12699 0.49266 0.0
C2080 C 0.46546 0.11633 0.45877 0.0
C2081 C 0.48831 0.13869 0.47114 0.0
C2082 C 0.5166 0.14219 0.35186 0.0
H2083 H 0.59525 0.18147 0.42096 0.0
H2084 H 0.56383 0.17575 0.43666 0.0
H2085 H 0.54077 0.14307 0.30704 0.0
H2086 H 0.45982 0.10963 0.37588 0.0
H2087 H 0.48113 0.13052 0.33776 0.0
H2088 H 0.50435 0.17196 0.44837 0.0
C2089 C 0.5687 0.17576 0.39561 0.0
C2090 C 0.53275 0.1498 0.33693 0.0
C2091 C 0.58675 0.17893 0.38665 0.0
C2092 C 0.46727 0.11803 0.40283 0.0
C2093 C 0.4797 0.12983 0.38112 0.0
C2094 C 0.5121 0.16564 0.41706 0.0
C2095 C 0.55739 0.17144 0.35249 0.0
C2096 C 0.53905 0.1651 0.36299 0.0
C2097 C 0.49078 0.13987 0.4151 0.0
C2098 C 0.50629 0.14974 0.39314 0.0
H2099 H 0.5873 0.17387 0.25008 0.0
H2100 H 0.55586 0.16842 0.26578 0.0
H2101 H 0.53273 0.18515 0.42254 0.0
H2102 H 0.47482 0.12571 0.53604 0.0
H2103 H 0.49676 0.14595 0.49867 0.0
C2104 C 0.41958 0.17147 0.45249 0.0
C2105 C 0.42671 0.15969 0.41433 0.0
C2106 C 0.417 0.18933 0.43962 0.0
C2107 C 0.40885 0.21669 0.32023 0.0
H2108 H 0.40944 0.25543 0.42302 0.0
C2109 C 0.37955 0.28322 0.26059 0.0
C2110 C 0.36724 0.29006 0.29743 0.0
C2111 C 0.39171 0.27032 0.2766 0.0
C2112 C 0.40924 0.24475 0.39387 0.0
H2113 H 0.43808 0.15767 0.33433 0.0
H2114 H 0.43387 0.18892 0.31213 0.0
H2115 H 0.42225 0.22674 0.44778 0.0
H2116 H 0.35835 0.2895 0.38019 0.0
H2117 H 0.37937 0.26664 0.40839 0.0
H2118 H 0.39531 0.23427 0.26706 0.0
C2119 C 0.42982 0.18426 0.35154 0.0
C2120 C 0.41656 0.22831 0.40802 0.0
C2121 C 0.4323 0.16637 0.3643 0.0
C2122 C 0.36792 0.28461 0.35137 0.0
C2123 C 0.37999 0.27152 0.36739 0.0
C2124 C 0.40159 0.23304 0.30612 0.0
C2125 C 0.42161 0.19583 0.3884 0.0
C2126 C 0.41612 0.21398 0.37169 0.0
C2127 C 0.39151 0.26369 0.32956 0.0
C2128 C 0.40138 0.24719 0.34303 0.0
H2129 H 0.4152 0.16676 0.49152 0.0
H2130 H 0.4105 0.19778 0.46885 0.0
H2131 H 0.40791 0.2059 0.29157 0.0
H2132 H 0.37919 0.28727 0.21871 0.0
H2133 H 0.40066 0.26486 0.24674 0.0
C2134 C 0.96797 0.11844 0.10583 0.0
C2135 C 0.96597 0.11678 0.04994 0.0
C2136 C 0.98042 0.13024 0.12725 0.0
C2137 C 0.0126 0.16617 0.09098 0.0
H2138 H 0.04159 0.14344 0.19989 0.0
C2139 C 0.08726 0.17951 0.11989 0.0
C2140 C 0.09455 0.17798 0.17177 0.0
C2141 C 0.06916 0.17652 0.11145 0.0
C2142 C 0.03348 0.15023 0.17036 0.0
H2143 H 0.9751 0.12622 0.97244 0.0
H2144 H 0.99714 0.14647 0.00934 0.0
H2145 H 0.01359 0.13014 0.17412 0.0
H2146 H 0.08834 0.17358 0.25611 0.0
H2147 H 0.05679 0.16849 0.24136 0.0
H2148 H 0.03312 0.1858 0.08556 0.0
C2149 C 0.98877 0.13916 0.03704 0.0
C2150 C 0.01734 0.14259 0.1556 0.0
C2151 C 0.97625 0.12746 0.0158 0.0
C2152 C 0.08318 0.17462 0.2155 0.0
C2153 C 0.06511 0.17165 0.20707 0.0
C2154 C 0.02883 0.17378 0.10564 0.0
C2155 C 0.99138 0.14032 0.09302 0.0
C2156 C 0.00691 0.15019 0.11471 0.0
C2157 C 0.058 0.17198 0.15475 0.0
C2158 C 0.03965 0.16564 0.14455 0.0
H2159 H 0.96061 0.11003 0.13296 0.0
H2160 H 0.98196 0.13092 0.17057 0.0
H2161 H 0.00475 0.17252 0.05995 0.0
H2162 H 0.09565 0.18219 0.0854 0.0
H2163 H 0.06414 0.17676 0.07058 0.0
C2164 C 0.07359 0.83831 0.85872 0.0
C2165 C 0.08053 0.84524 0.90684 0.0
C2166 C 0.07541 0.82027 0.84675 0.0
C2167 C 0.08854 0.77638 0.90398 0.0
H2168 H 0.10806 0.76888 0.76139 0.0
C2169 C 0.13626 0.71941 0.84942 0.0
C2170 C 0.13696 0.71365 0.79581 0.0
C2171 C 0.12416 0.73255 0.86473 0.0
C2172 C 0.10222 0.77051 0.80094 0.0
H2173 H 0.09377 0.83848 0.98172 0.0
H2174 H 0.09717 0.8072 0.9605 0.0
H2175 H 0.09607 0.79763 0.78483 0.0
H2176 H 0.12497 0.71587 0.71701 0.0
H2177 H 0.10335 0.73829 0.74388 0.0
H2178 H 0.0954 0.74931 0.92052 0.0
C2179 C 0.0902 0.81559 0.93213 0.0
C2180 C 0.09533 0.78709 0.81442 0.0
C2181 C 0.08838 0.83359 0.94408 0.0
C2182 C 0.12459 0.72017 0.75866 0.0
C2183 C 0.11235 0.73309 0.774 0.0
C2184 C 0.09542 0.75971 0.89041 0.0
C2185 C 0.08418 0.8088 0.88268 0.0
C2186 C 0.08882 0.79038 0.86649 0.0
C2187 C 0.11257 0.7401 0.82652 0.0
C2188 C 0.10274 0.75671 0.83909 0.0
H2189 H 0.06727 0.8469 0.82948 0.0
H2190 H 0.07038 0.81539 0.80865 0.0
H2191 H 0.0834 0.77843 0.94425 0.0
H2192 H 0.14588 0.71475 0.87847 0.0
H2193 H 0.12483 0.73769 0.9054 0.0
C2194 C 0.41729 0.82156 0.6179 0.0
C2195 C 0.41062 0.82751 0.66755 0.0
C2196 C 0.43518 0.82394 0.60492 0.0
C2197 C 0.47925 0.83773 0.6604 0.0
H2198 H 0.48522 0.85769 0.51768 0.0
C2199 C 0.53518 0.88628 0.59981 0.0
C2200 C 0.54068 0.88649 0.54588 0.0
C2201 C 0.52222 0.87421 0.61685 0.0
C2202 C 0.48399 0.85177 0.55726 0.0
H2203 H 0.41772 0.83961 0.74387 0.0
H2204 H 0.44873 0.84416 0.72078 0.0
H2205 H 0.45686 0.84524 0.54316 0.0
H2206 H 0.5381 0.87376 0.46825 0.0
H2207 H 0.51591 0.8523 0.49809 0.0
H2208 H 0.50634 0.84509 0.6749 0.0
C2209 C 0.44027 0.83743 0.69204 0.0
C2210 C 0.46764 0.84459 0.57193 0.0
C2211 C 0.42242 0.83494 0.70515 0.0
C2212 C 0.53403 0.87374 0.51013 0.0
C2213 C 0.52125 0.86159 0.52716 0.0
C2214 C 0.49567 0.84498 0.64568 0.0
C2215 C 0.44677 0.83244 0.64115 0.0
C2216 C 0.46492 0.8378 0.624 0.0
C2217 C 0.51456 0.86224 0.58002 0.0
C2218 C 0.49811 0.85238 0.59421 0.0
H2219 H 0.40858 0.81554 0.58838 0.0
H2220 H 0.43982 0.81959 0.5658 0.0
H2221 H 0.47767 0.8324 0.70062 0.0
H2222 H 0.53993 0.89622 0.62775 0.0
H2223 H 0.51729 0.87518 0.65773 0.0
loop_
_geom_bond_atom_site_label_1
_geom_bond_atom_site_label_2
_geom_bond_distance
_geom_bond_site_symmetry_2
_ccdc_geom_bond_type
Zn0 N4 2.020 . S
Zn0 O8 2.019 . S
Zn0 N10 2.119 . S
Zn0 O18 1.975 . S
C1 N2 1.334 . S
C1 N5 1.336 . S
N2 C1 1.334 . S
N2 C3 1.334 . S
C3 N2 1.334 . S
C3 N4 1.336 . S
N4 Zn0 2.020 . S
N4 C3 1.336 . S
N4 N5 1.354 . S
N5 C1 1.336 . S
N5 N4 1.354 . S
N5 Zn9 2.020 . S
C6 O7 1.244 . S
C6 O30 1.257 . S
O7 C6 1.244 . S
O8 Zn0 2.019 . S
O8 C28 1.257 . S
Zn9 N5 2.020 . S
Zn9 O16 1.975 . S
Zn9 N25 2.119 . S
Zn9 O30 2.019 . S
N10 Zn0 2.119 . S
N10 C12 1.334 . S
N10 C13 1.328 . S
C11 C12 1.391 . S
C11 N14 1.329 . S
C11 H32 0.930 . S
C12 N10 1.334 . S
C12 C11 1.391 . S
C12 H19 0.930 . S
C13 N10 1.328 . S
C13 C15 1.392 . S
C13 H20 0.930 . S
N14 C11 1.329 . S
N14 C15 1.331 . S
C15 C13 1.392 . S
C15 N14 1.331 . S
O16 Zn9 1.975 . S
O16 C17 1.252 . S
C17 O16 1.252 . S
C17 O18 1.252 . S
O18 Zn0 1.975 . S
O18 C17 1.252 . S
H19 C12 0.930 . S
H20 C13 0.930 . S
C21 C22 1.392 . S
C21 N25 1.328 . S
C21 H27 0.930 . S
C22 C21 1.392 . S
C22 N26 1.331 . S
C23 C24 1.391 . S
C23 N26 1.329 . S
C23 H33 0.930 . S
C24 C23 1.391 . S
C24 N25 1.334 . S
C24 H31 0.930 . S
N25 Zn9 2.119 . S
N25 C21 1.328 . S
N25 C24 1.334 . S
N26 C22 1.331 . S
N26 C23 1.329 . S
H27 C21 0.930 . S
C28 O8 1.257 . S
C28 O29 1.244 . S
O29 C28 1.244 . S
O30 C6 1.257 . S
O30 Zn9 2.019 . S
H31 C24 0.930 . S
H32 C11 0.930 . S
H33 C23 0.930 . S
Zn34 N38 2.020 . S
Zn34 O42 2.019 . S
Zn34 N44 2.119 . S
Zn34 O52 1.975 . S
C35 N36 1.334 . S
C35 N39 1.336 . S
N36 C35 1.334 . S
N36 C37 1.334 . S
C37 N36 1.334 . S
C37 N38 1.336 . S
N38 Zn34 2.020 . S
N38 C37 1.336 . S
N38 N39 1.354 . S
N39 C35 1.336 . S
N39 N38 1.354 . S
N39 Zn43 2.020 . S
C40 O41 1.244 . S
C40 O64 1.257 . S
O41 C40 1.244 . S
O42 Zn34 2.019 . S
O42 C62 1.257 . S
Zn43 N39 2.020 . S
Zn43 O50 1.975 . S
Zn43 N59 2.119 . S
Zn43 O64 2.019 . S
N44 Zn34 2.119 . S
N44 C46 1.334 . S
N44 C47 1.328 . S
C45 C46 1.391 . S
C45 N48 1.329 . S
C45 H66 0.930 . S
C46 N44 1.334 . S
C46 C45 1.391 . S
C46 H53 0.930 . S
C47 N44 1.328 . S
C47 C49 1.392 . S
C47 H54 0.930 . S
N48 C45 1.329 . S
N48 C49 1.331 . S
C49 C47 1.392 . S
C49 N48 1.331 . S
O50 Zn43 1.975 . S
O50 C51 1.252 . S
C51 O50 1.252 . S
C51 O52 1.252 . S
O52 Zn34 1.975 . S
O52 C51 1.252 . S
H53 C46 0.930 . S
H54 C47 0.930 . S
C55 C56 1.392 . S
C55 N59 1.328 . S
C55 H61 0.930 . S
C56 C55 1.392 . S
C56 N60 1.331 . S
C57 C58 1.391 . S
C57 N60 1.329 . S
C57 H67 0.930 . S
C58 C57 1.391 . S
C58 N59 1.334 . S
C58 H65 0.930 . S
N59 Zn43 2.119 . S
N59 C55 1.328 . S
N59 C58 1.334 . S
N60 C56 1.331 . S
N60 C57 1.329 . S
H61 C55 0.930 . S
C62 O42 1.257 . S
C62 O63 1.244 . S
O63 C62 1.244 . S
O64 C40 1.257 . S
O64 Zn43 2.019 . S
H65 C58 0.930 . S
H66 C45 0.930 . S
H67 C57 0.930 . S
Zn68 N72 2.020 . S
Zn68 O76 2.019 . S
Zn68 N78 2.119 . S
Zn68 O86 1.975 . S
C69 N70 1.334 . S
C69 N73 1.336 . S
N70 C69 1.334 . S
N70 C71 1.334 . S
C71 N70 1.334 . S
C71 N72 1.336 . S
N72 Zn68 2.020 . S
N72 C71 1.336 . S
N72 N73 1.354 . S
N73 C69 1.336 . S
N73 N72 1.354 . S
N73 Zn77 2.020 . S
C74 O75 1.244 . S
C74 O98 1.257 . S
O75 C74 1.244 . S
O76 Zn68 2.019 . S
O76 C96 1.257 . S
Zn77 N73 2.020 . S
Zn77 O84 1.975 . S
Zn77 N93 2.119 . S
Zn77 O98 2.019 . S
N78 Zn68 2.119 . S
N78 C80 1.334 . S
N78 C81 1.328 . S
C79 C80 1.391 . S
C79 N82 1.329 . S
C79 H100 0.930 . S
C80 N78 1.334 . S
C80 C79 1.391 . S
C80 H87 0.930 . S
C81 N78 1.328 . S
C81 C83 1.392 . S
C81 H88 0.930 . S
N82 C79 1.329 . S
N82 C83 1.331 . S
C83 C81 1.392 . S
C83 N82 1.331 . S
O84 Zn77 1.975 . S
O84 C85 1.252 . S
C85 O84 1.252 . S
C85 O86 1.252 . S
O86 Zn68 1.975 . S
O86 C85 1.252 . S
H87 C80 0.930 . S
H88 C81 0.930 . S
C89 C90 1.392 . S
C89 N93 1.328 . S
C89 H95 0.930 . S
C90 C89 1.392 . S
C90 N94 1.331 . S
C91 C92 1.391 . S
C91 N94 1.329 . S
C91 H101 0.930 . S
C92 C91 1.391 . S
C92 N93 1.334 . S
C92 H99 0.930 . S
N93 Zn77 2.119 . S
N93 C89 1.328 . S
N93 C92 1.334 . S
N94 C90 1.331 . S
N94 C91 1.329 . S
H95 C89 0.930 . S
C96 O76 1.257 . S
C96 O97 1.244 . S
O97 C96 1.244 . S
O98 C74 1.257 . S
O98 Zn77 2.019 . S
H99 C92 0.930 . S
H100 C79 0.930 . S
H101 C91 0.930 . S
Zn102 N106 2.020 . S
Zn102 O110 2.019 . S
Zn102 N112 2.119 . S
Zn102 O120 1.975 . S
C103 N104 1.334 . S
C103 N107 1.336 . S
N104 C103 1.334 . S
N104 C105 1.334 1_556 S
C105 N104 1.334 1_554 S
C105 N106 1.336 . S
N106 Zn102 2.020 . S
N106 C105 1.336 . S
N106 N107 1.354 1_554 S
N107 C103 1.336 . S
N107 N106 1.354 1_556 S
N107 Zn111 2.020 . S
C108 O109 1.244 . S
C108 O132 1.257 . S
O109 C108 1.244 . S
O110 Zn102 2.019 . S
O110 C130 1.257 . S
Zn111 N107 2.020 . S
Zn111 O118 1.975 . S
Zn111 N127 2.119 . S
Zn111 O132 2.019 . S
N112 Zn102 2.119 . S
N112 C114 1.334 . S
N112 C115 1.328 . S
C113 C114 1.391 . S
C113 N116 1.329 . S
C113 H134 0.930 . S
C114 N112 1.334 . S
C114 C113 1.391 . S
C114 H121 0.930 . S
C115 N112 1.328 . S
C115 C117 1.392 . S
C115 H122 0.930 . S
N116 C113 1.329 . S
N116 C117 1.331 . S
C117 C115 1.392 . S
C117 N116 1.331 . S
O118 Zn111 1.975 . S
O118 C119 1.252 . S
C119 O118 1.252 . S
C119 O120 1.252 1_556 S
O120 Zn102 1.975 . S
O120 C119 1.252 1_554 S
H121 C114 0.930 . S
H122 C115 0.930 . S
C123 C124 1.392 . S
C123 N127 1.328 . S
C123 H129 0.930 . S
C124 C123 1.392 . S
C124 N128 1.331 . S
C125 C126 1.391 . S
C125 N128 1.329 . S
C125 H135 0.930 . S
C126 C125 1.391 . S
C126 N127 1.334 . S
C126 H133 0.930 . S
N127 Zn111 2.119 . S
N127 C123 1.328 . S
N127 C126 1.334 . S
N128 C124 1.331 . S
N128 C125 1.329 . S
H129 C123 0.930 . S
C130 O110 1.257 . S
C130 O131 1.244 1_554 S
O131 C130 1.244 1_556 S
O132 C108 1.257 . S
O132 Zn111 2.019 . S
H133 C126 0.930 . S
H134 C113 0.930 . S
H135 C125 0.930 . S
Zn136 N140 2.020 . S
Zn136 O144 2.019 . S
Zn136 N146 2.119 . S
Zn136 O154 1.975 . S
C137 N138 1.334 . S
C137 N141 1.336 . S
N138 C137 1.334 . S
N138 C139 1.334 . S
C139 N138 1.334 . S
C139 N140 1.336 . S
N140 Zn136 2.020 . S
N140 C139 1.336 . S
N140 N141 1.354 . S
N141 C137 1.336 . S
N141 N140 1.354 . S
N141 Zn145 2.020 . S
C142 O143 1.244 . S
C142 O166 1.257 . S
O143 C142 1.244 . S
O144 Zn136 2.019 . S
O144 C164 1.257 . S
Zn145 N141 2.020 . S
Zn145 O152 1.975 . S
Zn145 N161 2.119 . S
Zn145 O166 2.019 . S
N146 Zn136 2.119 . S
N146 C148 1.334 . S
N146 C149 1.328 . S
C147 C148 1.391 . S
C147 N150 1.329 . S
C147 H168 0.930 . S
C148 N146 1.334 . S
C148 C147 1.391 . S
C148 H155 0.930 . S
C149 N146 1.328 . S
C149 C151 1.392 . S
C149 H156 0.930 . S
N150 C147 1.329 . S
N150 C151 1.331 . S
C151 C149 1.392 . S
C151 N150 1.331 . S
O152 Zn145 1.975 . S
O152 C153 1.252 . S
C153 O152 1.252 . S
C153 O154 1.252 . S
O154 Zn136 1.975 . S
O154 C153 1.252 . S
H155 C148 0.930 . S
H156 C149 0.930 . S
C157 C158 1.392 . S
C157 N161 1.328 . S
C157 H163 0.930 . S
C158 C157 1.392 . S
C158 N162 1.331 . S
C159 C160 1.391 . S
C159 N162 1.329 . S
C159 H169 0.930 . S
C160 C159 1.391 . S
C160 N161 1.334 . S
C160 H167 0.930 . S
N161 Zn145 2.119 . S
N161 C157 1.328 . S
N161 C160 1.334 . S
N162 C158 1.331 . S
N162 C159 1.329 . S
H163 C157 0.930 . S
C164 O144 1.257 . S
C164 O165 1.244 . S
O165 C164 1.244 . S
O166 C142 1.257 . S
O166 Zn145 2.019 . S
H167 C160 0.930 . S
H168 C147 0.930 . S
H169 C159 0.930 . S
Zn170 N174 2.020 . S
Zn170 O178 2.019 . S
Zn170 N180 2.119 . S
Zn170 O188 1.975 . S
C171 N172 1.334 . S
C171 N175 1.336 . S
N172 C171 1.334 . S
N172 C173 1.334 . S
C173 N172 1.334 . S
C173 N174 1.336 . S
N174 Zn170 2.020 . S
N174 C173 1.336 . S
N174 N175 1.354 . S
N175 C171 1.336 . S
N175 N174 1.354 . S
N175 Zn179 2.020 . S
C176 O177 1.244 . S
C176 O200 1.257 . S
O177 C176 1.244 . S
O178 Zn170 2.019 . S
O178 C198 1.257 . S
Zn179 N175 2.020 . S
Zn179 O186 1.975 . S
Zn179 N195 2.119 . S
Zn179 O200 2.019 . S
N180 Zn170 2.119 . S
N180 C182 1.334 . S
N180 C183 1.328 . S
C181 C182 1.391 . S
C181 N184 1.329 . S
C181 H202 0.930 . S
C182 N180 1.334 . S
C182 C181 1.391 . S
C182 H189 0.930 . S
C183 N180 1.328 . S
C183 C185 1.392 . S
C183 H190 0.930 . S
N184 C181 1.329 . S
N184 C185 1.331 . S
C185 C183 1.392 . S
C185 N184 1.331 . S
O186 Zn179 1.975 . S
O186 C187 1.252 . S
C187 O186 1.252 . S
C187 O188 1.252 . S
O188 Zn170 1.975 . S
O188 C187 1.252 . S
H189 C182 0.930 . S
H190 C183 0.930 . S
C191 C192 1.392 . S
C191 N195 1.328 . S
C191 H197 0.930 . S
C192 C191 1.392 . S
C192 N196 1.331 . S
C193 C194 1.391 . S
C193 N196 1.329 . S
C193 H203 0.930 . S
C194 C193 1.391 . S
C194 N195 1.334 . S
C194 H201 0.930 . S
N195 Zn179 2.119 . S
N195 C191 1.328 . S
N195 C194 1.334 . S
N196 C192 1.331 . S
N196 C193 1.329 . S
H197 C191 0.930 . S
C198 O178 1.257 . S
C198 O199 1.244 . S
O199 C198 1.244 . S
O200 C176 1.257 . S
O200 Zn179 2.019 . S
H201 C194 0.930 . S
H202 C181 0.930 . S
H203 C193 0.930 . S
Zn204 N208 2.020 . S
Zn204 O212 2.019 . S
Zn204 N214 2.119 . S
Zn204 O222 1.975 . S
C205 N206 1.334 . S
C205 N209 1.336 . S
N206 C205 1.334 . S
N206 C207 1.334 . S
C207 N206 1.334 . S
C207 N208 1.336 . S
N208 Zn204 2.020 . S
N208 C207 1.336 . S
N208 N209 1.354 . S
N209 C205 1.336 . S
N209 N208 1.354 . S
N209 Zn213 2.020 . S
C210 O211 1.244 . S
C210 O234 1.257 . S
O211 C210 1.244 . S
O212 Zn204 2.019 . S
O212 C232 1.257 . S
Zn213 N209 2.020 . S
Zn213 O220 1.975 . S
Zn213 N229 2.119 . S
Zn213 O234 2.019 . S
N214 Zn204 2.119 . S
N214 C216 1.334 . S
N214 C217 1.328 . S
C215 C216 1.391 . S
C215 N218 1.329 . S
C215 H236 0.930 . S
C216 N214 1.334 . S
C216 C215 1.391 . S
C216 H223 0.930 . S
C217 N214 1.328 . S
C217 C219 1.392 . S
C217 H224 0.930 . S
N218 C215 1.329 . S
N218 C219 1.331 . S
C219 C217 1.392 . S
C219 N218 1.331 . S
O220 Zn213 1.975 . S
O220 C221 1.252 . S
C221 O220 1.252 . S
C221 O222 1.252 . S
O222 Zn204 1.975 . S
O222 C221 1.252 . S
H223 C216 0.930 . S
H224 C217 0.930 . S
C225 C226 1.392 . S
C225 N229 1.328 . S
C225 H231 0.930 . S
C226 C225 1.392 . S
C226 N230 1.331 . S
C227 C228 1.391 . S
C227 N230 1.329 . S
C227 H237 0.930 . S
C228 C227 1.391 . S
C228 N229 1.334 . S
C228 H235 0.930 . S
N229 Zn213 2.119 . S
N229 C225 1.328 . S
N229 C228 1.334 . S
N230 C226 1.331 . S
N230 C227 1.329 . S
H231 C225 0.930 . S
C232 O212 1.257 . S
C232 O233 1.244 . S
O233 C232 1.244 . S
O234 C210 1.257 . S
O234 Zn213 2.019 . S
H235 C228 0.930 . S
H236 C215 0.930 . S
H237 C227 0.930 . S
Zn238 N242 2.020 . S
Zn238 O246 2.019 . S
Zn238 N248 2.119 . S
Zn238 O256 1.975 . S
C239 N240 1.334 1_556 S
C239 N243 1.336 . S
N240 C239 1.334 1_554 S
N240 C241 1.334 . S
C241 N240 1.334 . S
C241 N242 1.336 . S
N242 Zn238 2.020 . S
N242 C241 1.336 . S
N242 N243 1.354 1_554 S
N243 C239 1.336 . S
N243 N242 1.354 1_556 S
N243 Zn247 2.020 . S
C244 O245 1.244 1_556 S
C244 O268 1.257 . S
O245 C244 1.244 1_554 S
O246 Zn238 2.019 . S
O246 C266 1.257 . S
Zn247 N243 2.020 . S
Zn247 O254 1.975 . S
Zn247 N263 2.119 . S
Zn247 O268 2.019 . S
N248 Zn238 2.119 . S
N248 C250 1.334 . S
N248 C251 1.328 . S
C249 C250 1.391 . S
C249 N252 1.329 . S
C249 H270 0.930 . S
C250 N248 1.334 . S
C250 C249 1.391 . S
C250 H257 0.930 . S
C251 N248 1.328 . S
C251 C253 1.392 . S
C251 H258 0.930 . S
N252 C249 1.329 . S
N252 C253 1.331 . S
C253 C251 1.392 . S
C253 N252 1.331 . S
O254 Zn247 1.975 . S
O254 C255 1.252 1_556 S
C255 O254 1.252 1_554 S
C255 O256 1.252 . S
O256 Zn238 1.975 . S
O256 C255 1.252 . S
H257 C250 0.930 . S
H258 C251 0.930 . S
C259 C260 1.392 . S
C259 N263 1.328 . S
C259 H265 0.930 . S
C260 C259 1.392 . S
C260 N264 1.331 . S
C261 C262 1.391 . S
C261 N264 1.329 . S
C261 H271 0.930 . S
C262 C261 1.391 . S
C262 N263 1.334 . S
C262 H269 0.930 . S
N263 Zn247 2.119 . S
N263 C259 1.328 . S
N263 C262 1.334 . S
N264 C260 1.331 . S
N264 C261 1.329 . S
H265 C259 0.930 . S
C266 O246 1.257 . S
C266 O267 1.244 . S
O267 C266 1.244 . S
O268 C244 1.257 . S
O268 Zn247 2.019 . S
H269 C262 0.930 . S
H270 C249 0.930 . S
H271 C261 0.930 . S
Zn272 N276 2.020 . S
Zn272 O280 2.019 . S
Zn272 N282 2.119 . S
Zn272 O290 1.975 . S
C273 N274 1.334 . S
C273 N277 1.336 . S
N274 C273 1.334 . S
N274 C275 1.334 . S
C275 N274 1.334 . S
C275 N276 1.336 . S
N276 Zn272 2.020 . S
N276 C275 1.336 . S
N276 N277 1.354 . S
N277 C273 1.336 . S
N277 N276 1.354 . S
N277 Zn281 2.020 . S
C278 O279 1.244 . S
C278 O302 1.257 . S
O279 C278 1.244 . S
O280 Zn272 2.019 . S
O280 C300 1.257 . S
Zn281 N277 2.020 . S
Zn281 O288 1.975 . S
Zn281 N297 2.119 . S
Zn281 O302 2.019 . S
N282 Zn272 2.119 . S
N282 C284 1.334 . S
N282 C285 1.328 . S
C283 C284 1.391 . S
C283 N286 1.329 . S
C283 H304 0.930 . S
C284 N282 1.334 . S
C284 C283 1.391 . S
C284 H291 0.930 . S
C285 N282 1.328 . S
C285 C287 1.392 . S
C285 H292 0.930 . S
N286 C283 1.329 . S
N286 C287 1.331 . S
C287 C285 1.392 . S
C287 N286 1.331 . S
O288 Zn281 1.975 . S
O288 C289 1.252 . S
C289 O288 1.252 . S
C289 O290 1.252 . S
O290 Zn272 1.975 . S
O290 C289 1.252 . S
H291 C284 0.930 . S
H292 C285 0.930 . S
C293 C294 1.392 . S
C293 N297 1.328 . S
C293 H299 0.930 . S
C294 C293 1.392 . S
C294 N298 1.331 . S
C295 C296 1.391 . S
C295 N298 1.329 . S
C295 H305 0.930 . S
C296 C295 1.391 . S
C296 N297 1.334 . S
C296 H303 0.930 . S
N297 Zn281 2.119 . S
N297 C293 1.328 . S
N297 C296 1.334 . S
N298 C294 1.331 . S
N298 C295 1.329 . S
H299 C293 0.930 . S
C300 O280 1.257 . S
C300 O301 1.244 . S
O301 C300 1.244 . S
O302 C278 1.257 . S
O302 Zn281 2.019 . S
H303 C296 0.930 . S
H304 C283 0.930 . S
H305 C295 0.930 . S
Zn306 N310 2.020 . S
Zn306 O314 2.019 . S
Zn306 N316 2.119 . S
Zn306 O324 1.975 . S
C307 N308 1.334 1_554 S
C307 N311 1.336 . S
N308 C307 1.334 1_556 S
N308 C309 1.334 . S
C309 N308 1.334 . S
C309 N310 1.336 . S
N310 Zn306 2.020 . S
N310 C309 1.336 . S
N310 N311 1.354 1_556 S
N311 C307 1.336 . S
N311 N310 1.354 1_554 S
N311 Zn315 2.020 . S
C312 O313 1.244 1_554 S
C312 O336 1.257 . S
O313 C312 1.244 1_556 S
O314 Zn306 2.019 . S
O314 C334 1.257 . S
Zn315 N311 2.020 . S
Zn315 O322 1.975 . S
Zn315 N331 2.119 . S
Zn315 O336 2.019 . S
N316 Zn306 2.119 . S
N316 C318 1.334 . S
N316 C319 1.328 . S
C317 C318 1.391 . S
C317 N320 1.329 . S
C317 H338 0.930 . S
C318 N316 1.334 . S
C318 C317 1.391 . S
C318 H325 0.930 . S
C319 N316 1.328 . S
C319 C321 1.392 . S
C319 H326 0.930 . S
N320 C317 1.329 . S
N320 C321 1.331 . S
C321 C319 1.392 . S
C321 N320 1.331 . S
O322 Zn315 1.975 . S
O322 C323 1.252 1_554 S
C323 O322 1.252 1_556 S
C323 O324 1.252 . S
O324 Zn306 1.975 . S
O324 C323 1.252 . S
H325 C318 0.930 . S
H326 C319 0.930 . S
C327 C328 1.392 . S
C327 N331 1.328 . S
C327 H333 0.930 . S
C328 C327 1.392 . S
C328 N332 1.331 . S
C329 C330 1.391 . S
C329 N332 1.329 . S
C329 H339 0.930 . S
C330 C329 1.391 . S
C330 N331 1.334 . S
C330 H337 0.930 . S
N331 Zn315 2.119 . S
N331 C327 1.328 . S
N331 C330 1.334 . S
N332 C328 1.331 . S
N332 C329 1.329 . S
H333 C327 0.930 . S
C334 O314 1.257 . S
C334 O335 1.244 . S
O335 C334 1.244 . S
O336 C312 1.257 . S
O336 Zn315 2.019 . S
H337 C330 0.930 . S
H338 C317 0.930 . S
H339 C329 0.930 . S
Zn340 N344 2.020 . S
Zn340 O348 2.019 . S
Zn340 N350 2.119 . S
Zn340 O358 1.975 . S
C341 N342 1.334 . S
C341 N345 1.336 . S
N342 C341 1.334 . S
N342 C343 1.334 . S
C343 N342 1.334 . S
C343 N344 1.336 . S
N344 Zn340 2.020 . S
N344 C343 1.336 . S
N344 N345 1.354 . S
N345 C341 1.336 . S
N345 N344 1.354 . S
N345 Zn349 2.020 . S
C346 O347 1.244 . S
C346 O370 1.257 . S
O347 C346 1.244 . S
O348 Zn340 2.019 . S
O348 C368 1.257 . S
Zn349 N345 2.020 . S
Zn349 O356 1.975 . S
Zn349 N365 2.119 . S
Zn349 O370 2.019 . S
N350 Zn340 2.119 . S
N350 C352 1.334 . S
N350 C353 1.328 . S
C351 C352 1.391 . S
C351 N354 1.329 . S
C351 H372 0.930 . S
C352 N350 1.334 . S
C352 C351 1.391 . S
C352 H359 0.930 . S
C353 N350 1.328 . S
C353 C355 1.392 . S
C353 H360 0.930 . S
N354 C351 1.329 . S
N354 C355 1.331 . S
C355 C353 1.392 . S
C355 N354 1.331 . S
O356 Zn349 1.975 . S
O356 C357 1.252 . S
C357 O356 1.252 . S
C357 O358 1.252 . S
O358 Zn340 1.975 . S
O358 C357 1.252 . S
H359 C352 0.930 . S
H360 C353 0.930 . S
C361 C362 1.392 . S
C361 N365 1.328 . S
C361 H367 0.930 . S
C362 C361 1.392 . S
C362 N366 1.331 . S
C363 C364 1.391 . S
C363 N366 1.329 . S
C363 H373 0.930 . S
C364 C363 1.391 . S
C364 N365 1.334 . S
C364 H371 0.930 . S
N365 Zn349 2.119 . S
N365 C361 1.328 . S
N365 C364 1.334 . S
N366 C362 1.331 . S
N366 C363 1.329 . S
H367 C361 0.930 . S
C368 O348 1.257 . S
C368 O369 1.244 . S
O369 C368 1.244 . S
O370 C346 1.257 . S
O370 Zn349 2.019 . S
H371 C364 0.930 . S
H372 C351 0.930 . S
H373 C363 0.930 . S
Zn374 N378 2.020 . S
Zn374 O382 2.019 . S
Zn374 N384 2.119 . S
Zn374 O392 1.975 . S
C375 N376 1.334 . S
C375 N379 1.336 . S
N376 C375 1.334 . S
N376 C377 1.334 . S
C377 N376 1.334 . S
C377 N378 1.336 . S
N378 Zn374 2.020 . S
N378 C377 1.336 . S
N378 N379 1.354 . S
N379 C375 1.336 . S
N379 N378 1.354 . S
N379 Zn383 2.020 . S
C380 O381 1.244 . S
C380 O404 1.257 . S
O381 C380 1.244 . S
O382 Zn374 2.019 . S
O382 C402 1.257 . S
Zn383 N379 2.020 . S
Zn383 O390 1.975 . S
Zn383 N399 2.119 . S
Zn383 O404 2.019 . S
N384 Zn374 2.119 . S
N384 C386 1.334 . S
N384 C387 1.328 . S
C385 C386 1.391 . S
C385 N388 1.329 . S
C385 H406 0.930 . S
C386 N384 1.334 . S
C386 C385 1.391 . S
C386 H393 0.930 . S
C387 N384 1.328 . S
C387 C389 1.392 . S
C387 H394 0.930 . S
N388 C385 1.329 . S
N388 C389 1.331 . S
C389 C387 1.392 . S
C389 N388 1.331 . S
O390 Zn383 1.975 . S
O390 C391 1.252 . S
C391 O390 1.252 . S
C391 O392 1.252 . S
O392 Zn374 1.975 . S
O392 C391 1.252 . S
H393 C386 0.930 . S
H394 C387 0.930 . S
C395 C396 1.392 . S
C395 N399 1.328 . S
C395 H401 0.930 . S
C396 C395 1.392 . S
C396 N400 1.331 . S
C397 C398 1.391 . S
C397 N400 1.329 . S
C397 H407 0.930 . S
C398 C397 1.391 . S
C398 N399 1.334 . S
C398 H405 0.930 . S
N399 Zn383 2.119 . S
N399 C395 1.328 . S
N399 C398 1.334 . S
N400 C396 1.331 . S
N400 C397 1.329 . S
H401 C395 0.930 . S
C402 O382 1.257 . S
C402 O403 1.244 . S
O403 C402 1.244 . S
O404 C380 1.257 . S
O404 Zn383 2.019 . S
H405 C398 0.930 . S
H406 C385 0.930 . S
H407 C397 0.930 . S
Zn408 N412 2.020 . S
Zn408 O416 2.019 . S
Zn408 N418 2.119 . S
Zn408 O426 1.975 . S
C409 N410 1.334 . S
C409 N413 1.336 . S
N410 C409 1.334 . S
N410 C411 1.334 . S
C411 N410 1.334 . S
C411 N412 1.336 . S
N412 Zn408 2.020 . S
N412 C411 1.336 . S
N412 N413 1.354 . S
N413 C409 1.336 . S
N413 N412 1.354 . S
N413 Zn417 2.020 . S
C414 O415 1.244 . S
C414 O438 1.257 . S
O415 C414 1.244 . S
O416 Zn408 2.019 . S
O416 C436 1.257 . S
Zn417 N413 2.020 . S
Zn417 O424 1.975 . S
Zn417 N433 2.119 . S
Zn417 O438 2.019 . S
N418 Zn408 2.119 . S
N418 C420 1.334 . S
N418 C421 1.328 . S
C419 C420 1.391 . S
C419 N422 1.329 . S
C419 H440 0.930 . S
C420 N418 1.334 . S
C420 C419 1.391 . S
C420 H427 0.930 . S
C421 N418 1.328 . S
C421 C423 1.392 . S
C421 H428 0.930 . S
N422 C419 1.329 . S
N422 C423 1.331 . S
C423 C421 1.392 . S
C423 N422 1.331 . S
O424 Zn417 1.975 . S
O424 C425 1.252 . S
C425 O424 1.252 . S
C425 O426 1.252 . S
O426 Zn408 1.975 . S
O426 C425 1.252 . S
H427 C420 0.930 . S
H428 C421 0.930 . S
C429 C430 1.392 . S
C429 N433 1.328 . S
C429 H435 0.930 . S
C430 C429 1.392 . S
C430 N434 1.331 . S
C431 C432 1.391 . S
C431 N434 1.329 . S
C431 H441 0.930 . S
C432 C431 1.391 . S
C432 N433 1.334 . S
C432 H439 0.930 . S
N433 Zn417 2.119 . S
N433 C429 1.328 . S
N433 C432 1.334 . S
N434 C430 1.331 . S
N434 C431 1.329 . S
H435 C429 0.930 . S
C436 O416 1.257 . S
C436 O437 1.244 . S
O437 C436 1.244 . S
O438 C414 1.257 . S
O438 Zn417 2.019 . S
H439 C432 0.930 . S
H440 C419 0.930 . S
H441 C431 0.930 . S
Zn442 N446 2.020 . S
Zn442 O450 2.019 . S
Zn442 N452 2.119 . S
Zn442 O460 1.975 . S
C443 N444 1.334 . S
C443 N447 1.336 . S
N444 C443 1.334 . S
N444 C445 1.334 1_554 S
C445 N444 1.334 1_556 S
C445 N446 1.336 . S
N446 Zn442 2.020 . S
N446 C445 1.336 . S
N446 N447 1.354 1_556 S
N447 C443 1.336 . S
N447 N446 1.354 1_554 S
N447 Zn451 2.020 . S
C448 O449 1.244 . S
C448 O472 1.257 . S
O449 C448 1.244 . S
O450 Zn442 2.019 . S
O450 C470 1.257 . S
Zn451 N447 2.020 . S
Zn451 O458 1.975 . S
Zn451 N467 2.119 . S
Zn451 O472 2.019 . S
N452 Zn442 2.119 . S
N452 C454 1.334 . S
N452 C455 1.328 . S
C453 C454 1.391 . S
C453 N456 1.329 . S
C453 H474 0.930 . S
C454 N452 1.334 . S
C454 C453 1.391 . S
C454 H461 0.930 . S
C455 N452 1.328 . S
C455 C457 1.392 . S
C455 H462 0.930 . S
N456 C453 1.329 . S
N456 C457 1.331 . S
C457 C455 1.392 . S
C457 N456 1.331 . S
O458 Zn451 1.975 . S
O458 C459 1.252 . S
C459 O458 1.252 . S
C459 O460 1.252 1_554 S
O460 Zn442 1.975 . S
O460 C459 1.252 1_556 S
H461 C454 0.930 . S
H462 C455 0.930 . S
C463 C464 1.392 . S
C463 N467 1.328 . S
C463 H469 0.930 . S
C464 C463 1.392 . S
C464 N468 1.331 . S
C465 C466 1.391 . S
C465 N468 1.329 . S
C465 H475 0.930 . S
C466 C465 1.391 . S
C466 N467 1.334 . S
C466 H473 0.930 . S
N467 Zn451 2.119 . S
N467 C463 1.328 . S
N467 C466 1.334 . S
N468 C464 1.331 . S
N468 C465 1.329 . S
H469 C463 0.930 . S
C470 O450 1.257 . S
C470 O471 1.244 1_556 S
O471 C470 1.244 1_554 S
O472 C448 1.257 . S
O472 Zn451 2.019 . S
H473 C466 0.930 . S
H474 C453 0.930 . S
H475 C465 0.930 . S
Zn476 N480 2.020 . S
Zn476 O484 2.019 . S
Zn476 N486 2.119 . S
Zn476 O494 1.975 . S
C477 N478 1.334 . S
C477 N481 1.336 . S
N478 C477 1.334 . S
N478 C479 1.334 . S
C479 N478 1.334 . S
C479 N480 1.336 . S
N480 Zn476 2.020 . S
N480 C479 1.336 . S
N480 N481 1.354 . S
N481 C477 1.336 . S
N481 N480 1.354 . S
N481 Zn485 2.020 . S
C482 O483 1.244 . S
C482 O506 1.257 . S
O483 C482 1.244 . S
O484 Zn476 2.019 . S
O484 C504 1.257 . S
Zn485 N481 2.020 . S
Zn485 O492 1.975 . S
Zn485 N501 2.119 . S
Zn485 O506 2.019 . S
N486 Zn476 2.119 . S
N486 C488 1.334 . S
N486 C489 1.328 . S
C487 C488 1.391 . S
C487 N490 1.329 . S
C487 H508 0.930 . S
C488 N486 1.334 . S
C488 C487 1.391 . S
C488 H495 0.930 . S
C489 N486 1.328 . S
C489 C491 1.392 . S
C489 H496 0.930 . S
N490 C487 1.329 . S
N490 C491 1.331 . S
C491 C489 1.392 . S
C491 N490 1.331 . S
O492 Zn485 1.975 . S
O492 C493 1.252 . S
C493 O492 1.252 . S
C493 O494 1.252 . S
O494 Zn476 1.975 . S
O494 C493 1.252 . S
H495 C488 0.930 . S
H496 C489 0.930 . S
C497 C498 1.392 . S
C497 N501 1.328 . S
C497 H503 0.930 . S
C498 C497 1.392 . S
C498 N502 1.331 . S
C499 C500 1.391 . S
C499 N502 1.329 . S
C499 H509 0.930 . S
C500 C499 1.391 . S
C500 N501 1.334 . S
C500 H507 0.930 . S
N501 Zn485 2.119 . S
N501 C497 1.328 . S
N501 C500 1.334 . S
N502 C498 1.331 . S
N502 C499 1.329 . S
H503 C497 0.930 . S
C504 O484 1.257 . S
C504 O505 1.244 . S
O505 C504 1.244 . S
O506 C482 1.257 . S
O506 Zn485 2.019 . S
H507 C500 0.930 . S
H508 C487 0.930 . S
H509 C499 0.930 . S
Zn510 N514 2.020 . S
Zn510 O518 2.019 . S
Zn510 N520 2.119 . S
Zn510 O528 1.975 . S
C511 N512 1.334 . S
C511 N515 1.336 . S
N512 C511 1.334 . S
N512 C513 1.334 . S
C513 N512 1.334 . S
C513 N514 1.336 . S
N514 Zn510 2.020 . S
N514 C513 1.336 . S
N514 N515 1.354 . S
N515 C511 1.336 . S
N515 N514 1.354 . S
N515 Zn519 2.020 . S
C516 O517 1.244 . S
C516 O540 1.257 . S
O517 C516 1.244 . S
O518 Zn510 2.019 . S
O518 C538 1.257 . S
Zn519 N515 2.020 . S
Zn519 O526 1.975 . S
Zn519 N535 2.119 . S
Zn519 O540 2.019 . S
N520 Zn510 2.119 . S
N520 C522 1.334 . S
N520 C523 1.328 . S
C521 C522 1.391 . S
C521 N524 1.329 . S
C521 H542 0.930 . S
C522 N520 1.334 . S
C522 C521 1.391 . S
C522 H529 0.930 . S
C523 N520 1.328 . S
C523 C525 1.392 . S
C523 H530 0.930 . S
N524 C521 1.329 . S
N524 C525 1.331 . S
C525 C523 1.392 . S
C525 N524 1.331 . S
O526 Zn519 1.975 . S
O526 C527 1.252 . S
C527 O526 1.252 . S
C527 O528 1.252 . S
O528 Zn510 1.975 . S
O528 C527 1.252 . S
H529 C522 0.930 . S
H530 C523 0.930 . S
C531 C532 1.392 . S
C531 N535 1.328 . S
C531 H537 0.930 . S
C532 C531 1.392 . S
C532 N536 1.331 . S
C533 C534 1.391 . S
C533 N536 1.329 . S
C533 H543 0.930 . S
C534 C533 1.391 . S
C534 N535 1.334 . S
C534 H541 0.930 . S
N535 Zn519 2.119 . S
N535 C531 1.328 . S
N535 C534 1.334 . S
N536 C532 1.331 . S
N536 C533 1.329 . S
H537 C531 0.930 . S
C538 O518 1.257 . S
C538 O539 1.244 . S
O539 C538 1.244 . S
O540 C516 1.257 . S
O540 Zn519 2.019 . S
H541 C534 0.930 . S
H542 C521 0.930 . S
H543 C533 0.930 . S
C544 C545 1.349 . S
C544 C546 1.327 . S
C544 H569 0.950 . S
C545 C544 1.349 . S
C545 C561 1.349 . S
C546 C544 1.327 . S
C546 C565 1.429 . S
C546 H570 0.950 . S
C547 C564 1.574 . S
C547 C566 1.368 . S
C547 H571 0.949 . S
H548 C552 0.949 . S
C549 C550 1.349 . S
C549 C551 1.327 . S
C549 H572 0.950 . S
C550 C549 1.349 . S
C550 C562 1.349 . S
C551 C549 1.327 . S
C551 C567 1.429 . S
C551 H573 0.950 . S
C552 H548 0.949 . S
C552 C560 1.574 . S
C552 C568 1.368 . S
H553 C561 0.950 . S
H554 C559 0.950 . S
H555 C560 0.949 . S
H556 C562 0.950 . S
H557 C563 0.950 . S
H558 C564 0.949 . S
C559 H554 0.950 . S
C559 C561 1.327 . S
C559 C565 1.429 . S
C560 C552 1.574 . S
C560 H555 0.949 . S
C560 C566 1.368 . S
C561 C545 1.349 . S
C561 H553 0.950 . S
C561 C559 1.327 . S
C562 C550 1.349 . S
C562 H556 0.950 . S
C562 C563 1.327 . S
C563 H557 0.950 . S
C563 C562 1.327 . S
C563 C567 1.429 . S
C564 C547 1.574 . S
C564 H558 0.949 . S
C564 C568 1.368 . S
C565 C546 1.429 . S
C565 C559 1.429 . S
C565 C566 1.523 . S
C566 C547 1.368 . S
C566 C560 1.368 . S
C566 C565 1.523 . S
C567 C551 1.429 . S
C567 C563 1.429 . S
C567 C568 1.523 . S
C568 C552 1.368 . S
C568 C564 1.368 . S
C568 C567 1.523 . S
H569 C544 0.950 . S
H570 C546 0.950 . S
H571 C547 0.949 . S
H572 C549 0.950 . S
H573 C551 0.950 . S
C574 C575 1.349 . S
C574 C576 1.327 . S
C574 H599 0.950 . S
C575 C574 1.349 . S
C575 C591 1.349 . S
C576 C574 1.327 . S
C576 C595 1.429 . S
C576 H600 0.950 . S
C577 C594 1.574 1_556 S
C577 C596 1.368 . S
C577 H601 0.949 . S
H578 C582 0.949 . S
C579 C580 1.349 . S
C579 C581 1.327 . S
C579 H602 0.950 . S
C580 C579 1.349 . S
C580 C592 1.349 . S
C581 C579 1.327 . S
C581 C597 1.429 . S
C581 H603 0.950 . S
C582 H578 0.949 . S
C582 C590 1.574 1_554 S
C582 C598 1.368 . S
H583 C591 0.950 . S
H584 C589 0.950 . S
H585 C590 0.949 . S
H586 C592 0.950 . S
H587 C593 0.950 . S
H588 C594 0.949 . S
C589 H584 0.950 . S
C589 C591 1.327 . S
C589 C595 1.429 . S
C590 C582 1.574 1_556 S
C590 H585 0.949 . S
C590 C596 1.368 . S
C591 C575 1.349 . S
C591 H583 0.950 . S
C591 C589 1.327 . S
C592 C580 1.349 . S
C592 H586 0.950 . S
C592 C593 1.327 . S
C593 H587 0.950 . S
C593 C592 1.327 . S
C593 C597 1.429 . S
C594 C577 1.574 1_554 S
C594 H588 0.949 . S
C594 C598 1.368 . S
C595 C576 1.429 . S
C595 C589 1.429 . S
C595 C596 1.523 . S
C596 C577 1.368 . S
C596 C590 1.368 . S
C596 C595 1.523 . S
C597 C581 1.429 . S
C597 C593 1.429 . S
C597 C598 1.523 . S
C598 C582 1.368 . S
C598 C594 1.368 . S
C598 C597 1.523 . S
H599 C574 0.950 . S
H600 C576 0.950 . S
H601 C577 0.949 . S
H602 C579 0.950 . S
H603 C581 0.950 . S
C604 C605 1.349 . S
C604 C606 1.327 . S
C604 H629 0.950 . S
C605 C604 1.349 . S
C605 C621 1.349 . S
C606 C604 1.327 . S
C606 C625 1.429 . S
C606 H630 0.950 . S
C607 C624 1.574 . S
C607 C626 1.368 . S
C607 H631 0.949 . S
H608 C612 0.949 . S
C609 C610 1.349 . S
C609 C611 1.327 . S
C609 H632 0.950 . S
C610 C609 1.349 . S
C610 C622 1.349 . S
C611 C609 1.327 . S
C611 C627 1.429 . S
C611 H633 0.950 . S
C612 H608 0.949 . S
C612 C620 1.574 . S
C612 C628 1.368 . S
H613 C621 0.950 . S
H614 C619 0.950 . S
H615 C620 0.949 . S
H616 C622 0.950 . S
H617 C623 0.950 . S
H618 C624 0.949 . S
C619 H614 0.950 . S
C619 C621 1.327 . S
C619 C625 1.429 . S
C620 C612 1.574 . S
C620 H615 0.949 . S
C620 C626 1.368 . S
C621 C605 1.349 . S
C621 H613 0.950 . S
C621 C619 1.327 . S
C622 C610 1.349 . S
C622 H616 0.950 . S
C622 C623 1.327 . S
C623 H617 0.950 . S
C623 C622 1.327 . S
C623 C627 1.429 . S
C624 C607 1.574 . S
C624 H618 0.949 . S
C624 C628 1.368 . S
C625 C606 1.429 . S
C625 C619 1.429 . S
C625 C626 1.523 . S
C626 C607 1.368 . S
C626 C620 1.368 . S
C626 C625 1.523 . S
C627 C611 1.429 . S
C627 C623 1.429 . S
C627 C628 1.523 . S
C628 C612 1.368 . S
C628 C624 1.368 . S
C628 C627 1.523 . S
H629 C604 0.950 . S
H630 C606 0.950 . S
H631 C607 0.949 . S
H632 C609 0.950 . S
H633 C611 0.950 . S
C634 C635 1.349 . S
C634 C636 1.327 . S
C634 H659 0.950 . S
C635 C634 1.349 . S
C635 C651 1.349 . S
C636 C634 1.327 . S
C636 C655 1.429 . S
C636 H660 0.950 . S
C637 C654 1.574 . S
C637 C656 1.368 . S
C637 H661 0.949 . S
H638 C642 0.949 . S
C639 C640 1.349 . S
C639 C641 1.327 . S
C639 H662 0.950 . S
C640 C639 1.349 . S
C640 C652 1.349 . S
C641 C639 1.327 . S
C641 C657 1.429 . S
C641 H663 0.950 . S
C642 H638 0.949 . S
C642 C650 1.574 . S
C642 C658 1.368 . S
H643 C651 0.950 . S
H644 C649 0.950 . S
H645 C650 0.949 . S
H646 C652 0.950 . S
H647 C653 0.950 . S
H648 C654 0.949 . S
C649 H644 0.950 . S
C649 C651 1.327 . S
C649 C655 1.429 . S
C650 C642 1.574 . S
C650 H645 0.949 . S
C650 C656 1.368 . S
C651 C635 1.349 . S
C651 H643 0.950 . S
C651 C649 1.327 . S
C652 C640 1.349 . S
C652 H646 0.950 . S
C652 C653 1.327 . S
C653 H647 0.950 . S
C653 C652 1.327 . S
C653 C657 1.429 . S
C654 C637 1.574 . S
C654 H648 0.949 . S
C654 C658 1.368 . S
C655 C636 1.429 . S
C655 C649 1.429 . S
C655 C656 1.523 . S
C656 C637 1.368 . S
C656 C650 1.368 . S
C656 C655 1.523 . S
C657 C641 1.429 . S
C657 C653 1.429 . S
C657 C658 1.523 . S
C658 C642 1.368 . S
C658 C654 1.368 . S
C658 C657 1.523 . S
H659 C634 0.950 . S
H660 C636 0.950 . S
H661 C637 0.949 . S
H662 C639 0.950 . S
H663 C641 0.950 . S
C664 C665 1.349 . S
C664 C666 1.327 . S
C664 H689 0.950 . S
C665 C664 1.349 . S
C665 C681 1.349 . S
C666 C664 1.327 . S
C666 C685 1.429 . S
C666 H690 0.950 . S
C667 C684 1.574 . S
C667 C686 1.368 . S
C667 H691 0.949 . S
H668 C672 0.949 . S
C669 C670 1.349 . S
C669 C671 1.327 . S
C669 H692 0.950 . S
C670 C669 1.349 . S
C670 C682 1.349 . S
C671 C669 1.327 . S
C671 C687 1.429 . S
C671 H693 0.950 . S
C672 H668 0.949 . S
C672 C680 1.574 . S
C672 C688 1.368 . S
H673 C681 0.950 . S
H674 C679 0.950 . S
H675 C680 0.949 . S
H676 C682 0.950 . S
H677 C683 0.950 . S
H678 C684 0.949 . S
C679 H674 0.950 . S
C679 C681 1.327 . S
C679 C685 1.429 . S
C680 C672 1.574 . S
C680 H675 0.949 . S
C680 C686 1.368 . S
C681 C665 1.349 . S
C681 H673 0.950 . S
C681 C679 1.327 . S
C682 C670 1.349 . S
C682 H676 0.950 . S
C682 C683 1.327 . S
C683 H677 0.950 . S
C683 C682 1.327 . S
C683 C687 1.429 . S
C684 C667 1.574 . S
C684 H678 0.949 . S
C684 C688 1.368 . S
C685 C666 1.429 . S
C685 C679 1.429 . S
C685 C686 1.523 . S
C686 C667 1.368 . S
C686 C680 1.368 . S
C686 C685 1.523 . S
C687 C671 1.429 . S
C687 C683 1.429 . S
C687 C688 1.523 . S
C688 C672 1.368 . S
C688 C684 1.368 . S
C688 C687 1.523 . S
H689 C664 0.950 . S
H690 C666 0.950 . S
H691 C667 0.949 . S
H692 C669 0.950 . S
H693 C671 0.950 . S
C694 C695 1.349 . S
C694 C696 1.327 . S
C694 H719 0.950 . S
C695 C694 1.349 . S
C695 C711 1.349 . S
C696 C694 1.327 . S
C696 C715 1.429 . S
C696 H720 0.950 . S
C697 C714 1.574 1_556 S
C697 C716 1.368 . S
C697 H721 0.949 . S
H698 C702 0.949 . S
C699 C700 1.349 . S
C699 C701 1.327 . S
C699 H722 0.950 . S
C700 C699 1.349 . S
C700 C712 1.349 . S
C701 C699 1.327 . S
C701 C717 1.429 . S
C701 H723 0.950 . S
C702 H698 0.949 . S
C702 C710 1.574 1_554 S
C702 C718 1.368 . S
H703 C711 0.950 . S
H704 C709 0.950 . S
H705 C710 0.949 . S
H706 C712 0.950 . S
H707 C713 0.950 . S
H708 C714 0.949 . S
C709 H704 0.950 . S
C709 C711 1.327 . S
C709 C715 1.429 . S
C710 C702 1.574 1_556 S
C710 H705 0.949 . S
C710 C716 1.368 . S
C711 C695 1.349 . S
C711 H703 0.950 . S
C711 C709 1.327 . S
C712 C700 1.349 . S
C712 H706 0.950 . S
C712 C713 1.327 . S
C713 H707 0.950 . S
C713 C712 1.327 . S
C713 C717 1.429 . S
C714 C697 1.574 1_554 S
C714 H708 0.949 . S
C714 C718 1.368 . S
C715 C696 1.429 . S
C715 C709 1.429 . S
C715 C716 1.523 . S
C716 C697 1.368 . S
C716 C710 1.368 . S
C716 C715 1.523 . S
C717 C701 1.429 . S
C717 C713 1.429 . S
C717 C718 1.523 . S
C718 C702 1.368 . S
C718 C714 1.368 . S
C718 C717 1.523 . S
H719 C694 0.950 . S
H720 C696 0.950 . S
H721 C697 0.949 . S
H722 C699 0.950 . S
H723 C701 0.950 . S
C724 C725 1.349 . S
C724 C726 1.327 . S
C724 H749 0.950 . S
C725 C724 1.349 . S
C725 C741 1.349 . S
C726 C724 1.327 . S
C726 C745 1.429 . S
C726 H750 0.950 . S
C727 C744 1.574 . S
C727 C746 1.368 . S
C727 H751 0.949 . S
H728 C732 0.949 . S
C729 C730 1.349 . S
C729 C731 1.327 . S
C729 H752 0.950 . S
C730 C729 1.349 . S
C730 C742 1.349 . S
C731 C729 1.327 . S
C731 C747 1.429 . S
C731 H753 0.950 . S
C732 H728 0.949 . S
C732 C740 1.574 . S
C732 C748 1.368 . S
H733 C741 0.950 . S
H734 C739 0.950 . S
H735 C740 0.949 . S
H736 C742 0.950 . S
H737 C743 0.950 . S
H738 C744 0.949 . S
C739 H734 0.950 . S
C739 C741 1.327 . S
C739 C745 1.429 . S
C740 C732 1.574 . S
C740 H735 0.949 . S
C740 C746 1.368 . S
C741 C725 1.349 . S
C741 H733 0.950 . S
C741 C739 1.327 . S
C742 C730 1.349 . S
C742 H736 0.950 . S
C742 C743 1.327 . S
C743 H737 0.950 . S
C743 C742 1.327 . S
C743 C747 1.429 . S
C744 C727 1.574 . S
C744 H738 0.949 . S
C744 C748 1.368 . S
C745 C726 1.429 . S
C745 C739 1.429 . S
C745 C746 1.523 . S
C746 C727 1.368 . S
C746 C740 1.368 . S
C746 C745 1.523 . S
C747 C731 1.429 . S
C747 C743 1.429 . S
C747 C748 1.523 . S
C748 C732 1.368 . S
C748 C744 1.368 . S
C748 C747 1.523 . S
H749 C724 0.950 . S
H750 C726 0.950 . S
H751 C727 0.949 . S
H752 C729 0.950 . S
H753 C731 0.950 . S
C754 C755 1.349 . S
C754 C756 1.327 . S
C754 H779 0.950 . S
C755 C754 1.349 . S
C755 C771 1.349 . S
C756 C754 1.327 . S
C756 C775 1.429 . S
C756 H780 0.950 . S
C757 C774 1.574 . S
C757 C776 1.368 . S
C757 H781 0.949 . S
H758 C762 0.949 . S
C759 C760 1.349 . S
C759 C761 1.327 . S
C759 H782 0.950 . S
C760 C759 1.349 . S
C760 C772 1.349 . S
C761 C759 1.327 . S
C761 C777 1.429 . S
C761 H783 0.950 . S
C762 H758 0.949 . S
C762 C770 1.574 . S
C762 C778 1.368 . S
H763 C771 0.950 . S
H764 C769 0.950 . S
H765 C770 0.949 . S
H766 C772 0.950 . S
H767 C773 0.950 . S
H768 C774 0.949 . S
C769 H764 0.950 . S
C769 C771 1.327 . S
C769 C775 1.429 . S
C770 C762 1.574 . S
C770 H765 0.949 . S
C770 C776 1.368 . S
C771 C755 1.349 . S
C771 H763 0.950 . S
C771 C769 1.327 . S
C772 C760 1.349 . S
C772 H766 0.950 . S
C772 C773 1.327 . S
C773 H767 0.950 . S
C773 C772 1.327 . S
C773 C777 1.429 . S
C774 C757 1.574 . S
C774 H768 0.949 . S
C774 C778 1.368 . S
C775 C756 1.429 . S
C775 C769 1.429 . S
C775 C776 1.523 . S
C776 C757 1.368 . S
C776 C770 1.368 . S
C776 C775 1.523 . S
C777 C761 1.429 . S
C777 C773 1.429 . S
C777 C778 1.523 . S
C778 C762 1.368 . S
C778 C774 1.368 . S
C778 C777 1.523 . S
H779 C754 0.950 . S
H780 C756 0.950 . S
H781 C757 0.949 . S
H782 C759 0.950 . S
H783 C761 0.950 . S
C784 C785 1.349 . S
C784 C786 1.327 . S
C784 H809 0.950 . S
C785 C784 1.349 . S
C785 C801 1.349 . S
C786 C784 1.327 . S
C786 C805 1.429 . S
C786 H810 0.950 . S
C787 C804 1.574 . S
C787 C806 1.368 . S
C787 H811 0.949 . S
H788 C792 0.949 . S
C789 C790 1.349 . S
C789 C791 1.327 . S
C789 H812 0.950 . S
C790 C789 1.349 . S
C790 C802 1.349 . S
C791 C789 1.327 . S
C791 C807 1.429 . S
C791 H813 0.950 . S
C792 H788 0.949 . S
C792 C800 1.574 . S
C792 C808 1.368 . S
H793 C801 0.950 . S
H794 C799 0.950 . S
H795 C800 0.949 . S
H796 C802 0.950 . S
H797 C803 0.950 . S
H798 C804 0.949 . S
C799 H794 0.950 . S
C799 C801 1.327 . S
C799 C805 1.429 . S
C800 C792 1.574 . S
C800 H795 0.949 . S
C800 C806 1.368 . S
C801 C785 1.349 . S
C801 H793 0.950 . S
C801 C799 1.327 . S
C802 C790 1.349 . S
C802 H796 0.950 . S
C802 C803 1.327 . S
C803 H797 0.950 . S
C803 C802 1.327 . S
C803 C807 1.429 . S
C804 C787 1.574 . S
C804 H798 0.949 . S
C804 C808 1.368 . S
C805 C786 1.429 . S
C805 C799 1.429 . S
C805 C806 1.523 . S
C806 C787 1.368 . S
C806 C800 1.368 . S
C806 C805 1.523 . S
C807 C791 1.429 . S
C807 C803 1.429 . S
C807 C808 1.523 . S
C808 C792 1.368 . S
C808 C804 1.368 . S
C808 C807 1.523 . S
H809 C784 0.950 . S
H810 C786 0.950 . S
H811 C787 0.949 . S
H812 C789 0.950 . S
H813 C791 0.950 . S
C814 C815 1.349 . S
C814 C816 1.327 . S
C814 H839 0.950 . S
C815 C814 1.349 . S
C815 C831 1.349 . S
C816 C814 1.327 . S
C816 C835 1.429 . S
C816 H840 0.950 . S
C817 C834 1.574 . S
C817 C836 1.368 . S
C817 H841 0.949 . S
H818 C822 0.949 . S
C819 C820 1.349 . S
C819 C821 1.327 . S
C819 H842 0.950 . S
C820 C819 1.349 . S
C820 C832 1.349 . S
C821 C819 1.327 . S
C821 C837 1.429 . S
C821 H843 0.950 . S
C822 H818 0.949 . S
C822 C830 1.574 . S
C822 C838 1.368 . S
H823 C831 0.950 . S
H824 C829 0.950 . S
H825 C830 0.949 . S
H826 C832 0.950 . S
H827 C833 0.950 . S
H828 C834 0.949 . S
C829 H824 0.950 . S
C829 C831 1.327 . S
C829 C835 1.429 . S
C830 C822 1.574 . S
C830 H825 0.949 . S
C830 C836 1.368 . S
C831 C815 1.349 . S
C831 H823 0.950 . S
C831 C829 1.327 . S
C832 C820 1.349 . S
C832 H826 0.950 . S
C832 C833 1.327 . S
C833 H827 0.950 . S
C833 C832 1.327 . S
C833 C837 1.429 . S
C834 C817 1.574 . S
C834 H828 0.949 . S
C834 C838 1.368 . S
C835 C816 1.429 . S
C835 C829 1.429 . S
C835 C836 1.523 . S
C836 C817 1.368 . S
C836 C830 1.368 . S
C836 C835 1.523 . S
C837 C821 1.429 . S
C837 C833 1.429 . S
C837 C838 1.523 . S
C838 C822 1.368 . S
C838 C834 1.368 . S
C838 C837 1.523 . S
H839 C814 0.950 . S
H840 C816 0.950 . S
H841 C817 0.949 . S
H842 C819 0.950 . S
H843 C821 0.950 . S
C844 C845 1.349 . S
C844 C846 1.327 . S
C844 H869 0.950 . S
C845 C844 1.349 . S
C845 C861 1.349 . S
C846 C844 1.327 . S
C846 C865 1.429 . S
C846 H870 0.950 . S
C847 C864 1.574 . S
C847 C866 1.368 . S
C847 H871 0.949 . S
H848 C852 0.949 . S
C849 C850 1.349 . S
C849 C851 1.327 . S
C849 H872 0.950 . S
C850 C849 1.349 . S
C850 C862 1.349 . S
C851 C849 1.327 . S
C851 C867 1.429 . S
C851 H873 0.950 . S
C852 H848 0.949 . S
C852 C860 1.574 . S
C852 C868 1.368 . S
H853 C861 0.950 . S
H854 C859 0.950 . S
H855 C860 0.949 . S
H856 C862 0.950 . S
H857 C863 0.950 . S
H858 C864 0.949 . S
C859 H854 0.950 . S
C859 C861 1.327 . S
C859 C865 1.429 . S
C860 C852 1.574 . S
C860 H855 0.949 . S
C860 C866 1.368 . S
C861 C845 1.349 . S
C861 H853 0.950 . S
C861 C859 1.327 . S
C862 C850 1.349 . S
C862 H856 0.950 . S
C862 C863 1.327 . S
C863 H857 0.950 . S
C863 C862 1.327 . S
C863 C867 1.429 . S
C864 C847 1.574 . S
C864 H858 0.949 . S
C864 C868 1.368 . S
C865 C846 1.429 . S
C865 C859 1.429 . S
C865 C866 1.523 . S
C866 C847 1.368 . S
C866 C860 1.368 . S
C866 C865 1.523 . S
C867 C851 1.429 . S
C867 C863 1.429 . S
C867 C868 1.523 . S
C868 C852 1.368 . S
C868 C864 1.368 . S
C868 C867 1.523 . S
H869 C844 0.950 . S
H870 C846 0.950 . S
H871 C847 0.949 . S
H872 C849 0.950 . S
H873 C851 0.950 . S
C874 C875 1.349 . S
C874 C876 1.327 . S
C874 H899 0.950 . S
C875 C874 1.349 . S
C875 C891 1.349 . S
C876 C874 1.327 . S
C876 C895 1.429 . S
C876 H900 0.950 . S
C877 C894 1.574 1_556 S
C877 C896 1.368 . S
C877 H901 0.949 . S
H878 C882 0.949 . S
C879 C880 1.349 . S
C879 C881 1.327 . S
C879 H902 0.950 . S
C880 C879 1.349 . S
C880 C892 1.349 . S
C881 C879 1.327 . S
C881 C897 1.429 . S
C881 H903 0.950 . S
C882 H878 0.949 . S
C882 C890 1.574 1_554 S
C882 C898 1.368 . S
H883 C891 0.950 . S
H884 C889 0.950 . S
H885 C890 0.949 . S
H886 C892 0.950 . S
H887 C893 0.950 . S
H888 C894 0.949 . S
C889 H884 0.950 . S
C889 C891 1.327 . S
C889 C895 1.429 . S
C890 C882 1.574 1_556 S
C890 H885 0.949 . S
C890 C896 1.368 . S
C891 C875 1.349 . S
C891 H883 0.950 . S
C891 C889 1.327 . S
C892 C880 1.349 . S
C892 H886 0.950 . S
C892 C893 1.327 . S
C893 H887 0.950 . S
C893 C892 1.327 . S
C893 C897 1.429 . S
C894 C877 1.574 1_554 S
C894 H888 0.949 . S
C894 C898 1.368 . S
C895 C876 1.429 . S
C895 C889 1.429 . S
C895 C896 1.523 . S
C896 C877 1.368 . S
C896 C890 1.368 . S
C896 C895 1.523 . S
C897 C881 1.429 . S
C897 C893 1.429 . S
C897 C898 1.523 . S
C898 C882 1.368 . S
C898 C894 1.368 . S
C898 C897 1.523 . S
H899 C874 0.950 . S
H900 C876 0.950 . S
H901 C877 0.949 . S
H902 C879 0.950 . S
H903 C881 0.950 . S
C904 C905 1.349 . S
C904 C906 1.327 . S
C904 H929 0.950 . S
C905 C904 1.349 . S
C905 C921 1.349 . S
C906 C904 1.327 . S
C906 C925 1.429 . S
C906 H930 0.950 . S
C907 C924 1.574 . S
C907 C926 1.368 . S
C907 H931 0.949 . S
H908 C912 0.949 . S
C909 C910 1.349 . S
C909 C911 1.327 . S
C909 H932 0.950 . S
C910 C909 1.349 . S
C910 C922 1.349 . S
C911 C909 1.327 . S
C911 C927 1.429 . S
C911 H933 0.950 . S
C912 H908 0.949 . S
C912 C920 1.574 . S
C912 C928 1.368 . S
H913 C921 0.950 . S
H914 C919 0.950 . S
H915 C920 0.949 . S
H916 C922 0.950 . S
H917 C923 0.950 . S
H918 C924 0.949 . S
C919 H914 0.950 . S
C919 C921 1.327 . S
C919 C925 1.429 . S
C920 C912 1.574 . S
C920 H915 0.949 . S
C920 C926 1.368 . S
C921 C905 1.349 . S
C921 H913 0.950 . S
C921 C919 1.327 . S
C922 C910 1.349 . S
C922 H916 0.950 . S
C922 C923 1.327 . S
C923 H917 0.950 . S
C923 C922 1.327 . S
C923 C927 1.429 . S
C924 C907 1.574 . S
C924 H918 0.949 . S
C924 C928 1.368 . S
C925 C906 1.429 . S
C925 C919 1.429 . S
C925 C926 1.523 . S
C926 C907 1.368 . S
C926 C920 1.368 . S
C926 C925 1.523 . S
C927 C911 1.429 . S
C927 C923 1.429 . S
C927 C928 1.523 . S
C928 C912 1.368 . S
C928 C924 1.368 . S
C928 C927 1.523 . S
H929 C904 0.950 . S
H930 C906 0.950 . S
H931 C907 0.949 . S
H932 C909 0.950 . S
H933 C911 0.950 . S
C934 C935 1.349 . S
C934 C936 1.327 . S
C934 H959 0.950 . S
C935 C934 1.349 . S
C935 C951 1.349 . S
C936 C934 1.327 . S
C936 C955 1.429 . S
C936 H960 0.950 . S
C937 C954 1.574 . S
C937 C956 1.368 . S
C937 H961 0.949 . S
H938 C942 0.949 . S
C939 C940 1.349 . S
C939 C941 1.327 . S
C939 H962 0.950 . S
C940 C939 1.349 . S
C940 C952 1.349 . S
C941 C939 1.327 . S
C941 C957 1.429 . S
C941 H963 0.950 . S
C942 H938 0.949 . S
C942 C950 1.574 . S
C942 C958 1.368 . S
H943 C951 0.950 . S
H944 C949 0.950 . S
H945 C950 0.949 . S
H946 C952 0.950 . S
H947 C953 0.950 . S
H948 C954 0.949 . S
C949 H944 0.950 . S
C949 C951 1.327 . S
C949 C955 1.429 . S
C950 C942 1.574 . S
C950 H945 0.949 . S
C950 C956 1.368 . S
C951 C935 1.349 . S
C951 H943 0.950 . S
C951 C949 1.327 . S
C952 C940 1.349 . S
C952 H946 0.950 . S
C952 C953 1.327 . S
C953 H947 0.950 . S
C953 C952 1.327 . S
C953 C957 1.429 . S
C954 C937 1.574 . S
C954 H948 0.949 . S
C954 C958 1.368 . S
C955 C936 1.429 . S
C955 C949 1.429 . S
C955 C956 1.523 . S
C956 C937 1.368 . S
C956 C950 1.368 . S
C956 C955 1.523 . S
C957 C941 1.429 . S
C957 C953 1.429 . S
C957 C958 1.523 . S
C958 C942 1.368 . S
C958 C954 1.368 . S
C958 C957 1.523 . S
H959 C934 0.950 . S
H960 C936 0.950 . S
H961 C937 0.949 . S
H962 C939 0.950 . S
H963 C941 0.950 . S
C964 C965 1.349 . S
C964 C966 1.327 . S
C964 H989 0.950 . S
C965 C964 1.349 . S
C965 C981 1.349 . S
C966 C964 1.327 . S
C966 C985 1.429 . S
C966 H990 0.950 . S
C967 C984 1.574 . S
C967 C986 1.368 . S
C967 H991 0.949 . S
H968 C972 0.949 . S
C969 C970 1.349 . S
C969 C971 1.327 . S
C969 H992 0.950 . S
C970 C969 1.349 . S
C970 C982 1.349 . S
C971 C969 1.327 . S
C971 C987 1.429 . S
C971 H993 0.950 . S
C972 H968 0.949 . S
C972 C980 1.574 . S
C972 C988 1.368 . S
H973 C981 0.950 . S
H974 C979 0.950 . S
H975 C980 0.949 . S
H976 C982 0.950 . S
H977 C983 0.950 . S
H978 C984 0.949 . S
C979 H974 0.950 . S
C979 C981 1.327 . S
C979 C985 1.429 . S
C980 C972 1.574 . S
C980 H975 0.949 . S
C980 C986 1.368 . S
C981 C965 1.349 . S
C981 H973 0.950 . S
C981 C979 1.327 . S
C982 C970 1.349 . S
C982 H976 0.950 . S
C982 C983 1.327 . S
C983 H977 0.950 . S
C983 C982 1.327 . S
C983 C987 1.429 . S
C984 C967 1.574 . S
C984 H978 0.949 . S
C984 C988 1.368 . S
C985 C966 1.429 . S
C985 C979 1.429 . S
C985 C986 1.523 . S
C986 C967 1.368 . S
C986 C980 1.368 . S
C986 C985 1.523 . S
C987 C971 1.429 . S
C987 C983 1.429 . S
C987 C988 1.523 . S
C988 C972 1.368 . S
C988 C984 1.368 . S
C988 C987 1.523 . S
H989 C964 0.950 . S
H990 C966 0.950 . S
H991 C967 0.949 . S
H992 C969 0.950 . S
H993 C971 0.950 . S
C994 C995 1.349 . S
C994 C996 1.327 . S
C994 H1019 0.950 . S
C995 C994 1.349 . S
C995 C1011 1.349 . S
C996 C994 1.327 . S
C996 C1015 1.429 . S
C996 H1020 0.950 . S
C997 C1014 1.574 1_554 S
C997 C1016 1.368 . S
C997 H1021 0.949 . S
H998 C1002 0.949 . S
C999 C1000 1.349 . S
C999 C1001 1.327 . S
C999 H1022 0.950 . S
C1000 C999 1.349 . S
C1000 C1012 1.349 . S
C1001 C999 1.327 . S
C1001 C1017 1.429 . S
C1001 H1023 0.950 . S
C1002 H998 0.949 . S
C1002 C1010 1.574 1_556 S
C1002 C1018 1.368 . S
H1003 C1011 0.950 . S
H1004 C1009 0.950 . S
H1005 C1010 0.949 . S
H1006 C1012 0.950 . S
H1007 C1013 0.950 . S
H1008 C1014 0.949 . S
C1009 H1004 0.950 . S
C1009 C1011 1.327 . S
C1009 C1015 1.429 . S
C1010 C1002 1.574 1_554 S
C1010 H1005 0.949 . S
C1010 C1016 1.368 . S
C1011 C995 1.349 . S
C1011 H1003 0.950 . S
C1011 C1009 1.327 . S
C1012 C1000 1.349 . S
C1012 H1006 0.950 . S
C1012 C1013 1.327 . S
C1013 H1007 0.950 . S
C1013 C1012 1.327 . S
C1013 C1017 1.429 . S
C1014 C997 1.574 1_556 S
C1014 H1008 0.949 . S
C1014 C1018 1.368 . S
C1015 C996 1.429 . S
C1015 C1009 1.429 . S
C1015 C1016 1.523 . S
C1016 C997 1.368 . S
C1016 C1010 1.368 . S
C1016 C1015 1.523 . S
C1017 C1001 1.429 . S
C1017 C1013 1.429 . S
C1017 C1018 1.523 . S
C1018 C1002 1.368 . S
C1018 C1014 1.368 . S
C1018 C1017 1.523 . S
H1019 C994 0.950 . S
H1020 C996 0.950 . S
H1021 C997 0.949 . S
H1022 C999 0.950 . S
H1023 C1001 0.950 . S
C1024 C1025 1.349 . S
C1024 C1026 1.327 . S
C1024 H1049 0.950 . S
C1025 C1024 1.349 . S
C1025 C1041 1.349 . S
C1026 C1024 1.327 . S
C1026 C1045 1.429 . S
C1026 H1050 0.950 . S
C1027 C1044 1.574 . S
C1027 C1046 1.368 . S
C1027 H1051 0.949 . S
H1028 C1032 0.949 . S
C1029 C1030 1.349 . S
C1029 C1031 1.327 . S
C1029 H1052 0.950 . S
C1030 C1029 1.349 . S
C1030 C1042 1.349 . S
C1031 C1029 1.327 . S
C1031 C1047 1.429 . S
C1031 H1053 0.950 . S
C1032 H1028 0.949 . S
C1032 C1040 1.574 . S
C1032 C1048 1.368 . S
H1033 C1041 0.950 . S
H1034 C1039 0.950 . S
H1035 C1040 0.949 . S
H1036 C1042 0.950 . S
H1037 C1043 0.950 . S
H1038 C1044 0.949 . S
C1039 H1034 0.950 . S
C1039 C1041 1.327 . S
C1039 C1045 1.429 . S
C1040 C1032 1.574 . S
C1040 H1035 0.949 . S
C1040 C1046 1.368 . S
C1041 C1025 1.349 . S
C1041 H1033 0.950 . S
C1041 C1039 1.327 . S
C1042 C1030 1.349 . S
C1042 H1036 0.950 . S
C1042 C1043 1.327 . S
C1043 H1037 0.950 . S
C1043 C1042 1.327 . S
C1043 C1047 1.429 . S
C1044 C1027 1.574 . S
C1044 H1038 0.949 . S
C1044 C1048 1.368 . S
C1045 C1026 1.429 . S
C1045 C1039 1.429 . S
C1045 C1046 1.523 . S
C1046 C1027 1.368 . S
C1046 C1040 1.368 . S
C1046 C1045 1.523 . S
C1047 C1031 1.429 . S
C1047 C1043 1.429 . S
C1047 C1048 1.523 . S
C1048 C1032 1.368 . S
C1048 C1044 1.368 . S
C1048 C1047 1.523 . S
H1049 C1024 0.950 . S
H1050 C1026 0.950 . S
H1051 C1027 0.949 . S
H1052 C1029 0.950 . S
H1053 C1031 0.950 . S
C1054 C1055 1.349 . S
C1054 C1056 1.327 . S
C1054 H1079 0.950 . S
C1055 C1054 1.349 . S
C1055 C1071 1.349 . S
C1056 C1054 1.327 . S
C1056 C1075 1.429 . S
C1056 H1080 0.950 . S
C1057 C1074 1.574 . S
C1057 C1076 1.368 . S
C1057 H1081 0.949 . S
H1058 C1062 0.949 . S
C1059 C1060 1.349 . S
C1059 C1061 1.327 . S
C1059 H1082 0.950 . S
C1060 C1059 1.349 . S
C1060 C1072 1.349 . S
C1061 C1059 1.327 . S
C1061 C1077 1.429 . S
C1061 H1083 0.950 . S
C1062 H1058 0.949 . S
C1062 C1070 1.574 . S
C1062 C1078 1.368 . S
H1063 C1071 0.950 . S
H1064 C1069 0.950 . S
H1065 C1070 0.949 . S
H1066 C1072 0.950 . S
H1067 C1073 0.950 . S
H1068 C1074 0.949 . S
C1069 H1064 0.950 . S
C1069 C1071 1.327 . S
C1069 C1075 1.429 . S
C1070 C1062 1.574 . S
C1070 H1065 0.949 . S
C1070 C1076 1.368 . S
C1071 C1055 1.349 . S
C1071 H1063 0.950 . S
C1071 C1069 1.327 . S
C1072 C1060 1.349 . S
C1072 H1066 0.950 . S
C1072 C1073 1.327 . S
C1073 H1067 0.950 . S
C1073 C1072 1.327 . S
C1073 C1077 1.429 . S
C1074 C1057 1.574 . S
C1074 H1068 0.949 . S
C1074 C1078 1.368 . S
C1075 C1056 1.429 . S
C1075 C1069 1.429 . S
C1075 C1076 1.523 . S
C1076 C1057 1.368 . S
C1076 C1070 1.368 . S
C1076 C1075 1.523 . S
C1077 C1061 1.429 . S
C1077 C1073 1.429 . S
C1077 C1078 1.523 . S
C1078 C1062 1.368 . S
C1078 C1074 1.368 . S
C1078 C1077 1.523 . S
H1079 C1054 0.950 . S
H1080 C1056 0.950 . S
H1081 C1057 0.949 . S
H1082 C1059 0.950 . S
H1083 C1061 0.950 . S
C1084 C1085 1.349 . S
C1084 C1086 1.327 . S
C1084 H1109 0.950 . S
C1085 C1084 1.349 . S
C1085 C1101 1.349 . S
C1086 C1084 1.327 . S
C1086 C1105 1.429 . S
C1086 H1110 0.950 . S
C1087 C1104 1.574 . S
C1087 C1106 1.368 . S
C1087 H1111 0.949 . S
H1088 C1092 0.949 . S
C1089 C1090 1.349 . S
C1089 C1091 1.327 . S
C1089 H1112 0.950 . S
C1090 C1089 1.349 . S
C1090 C1102 1.349 . S
C1091 C1089 1.327 . S
C1091 C1107 1.429 . S
C1091 H1113 0.950 . S
C1092 H1088 0.949 . S
C1092 C1100 1.574 . S
C1092 C1108 1.368 . S
H1093 C1101 0.950 . S
H1094 C1099 0.950 . S
H1095 C1100 0.949 . S
H1096 C1102 0.950 . S
H1097 C1103 0.950 . S
H1098 C1104 0.949 . S
C1099 H1094 0.950 . S
C1099 C1101 1.327 . S
C1099 C1105 1.429 . S
C1100 C1092 1.574 . S
C1100 H1095 0.949 . S
C1100 C1106 1.368 . S
C1101 C1085 1.349 . S
C1101 H1093 0.950 . S
C1101 C1099 1.327 . S
C1102 C1090 1.349 . S
C1102 H1096 0.950 . S
C1102 C1103 1.327 . S
C1103 H1097 0.950 . S
C1103 C1102 1.327 . S
C1103 C1107 1.429 . S
C1104 C1087 1.574 . S
C1104 H1098 0.949 . S
C1104 C1108 1.368 . S
C1105 C1086 1.429 . S
C1105 C1099 1.429 . S
C1105 C1106 1.523 . S
C1106 C1087 1.368 . S
C1106 C1100 1.368 . S
C1106 C1105 1.523 . S
C1107 C1091 1.429 . S
C1107 C1103 1.429 . S
C1107 C1108 1.523 . S
C1108 C1092 1.368 . S
C1108 C1104 1.368 . S
C1108 C1107 1.523 . S
H1109 C1084 0.950 . S
H1110 C1086 0.950 . S
H1111 C1087 0.949 . S
H1112 C1089 0.950 . S
H1113 C1091 0.950 . S
C1114 C1115 1.349 . S
C1114 C1116 1.327 . S
C1114 H1139 0.950 . S
C1115 C1114 1.349 . S
C1115 C1131 1.349 1_556 S
C1116 C1114 1.327 . S
C1116 C1135 1.429 . S
C1116 H1140 0.950 . S
C1117 C1134 1.574 1_455 S
C1117 C1136 1.368 1_554 S
C1117 H1141 0.949 . S
H1118 C1122 0.949 . S
C1119 C1120 1.349 . S
C1119 C1121 1.327 . S
C1119 H1142 0.950 . S
C1120 C1119 1.349 . S
C1120 C1132 1.349 1_554 S
C1121 C1119 1.327 . S
C1121 C1137 1.429 . S
C1121 H1143 0.950 . S
C1122 H1118 0.949 . S
C1122 C1130 1.574 1_655 S
C1122 C1138 1.368 1_556 S
H1123 C1131 0.950 . S
H1124 C1129 0.950 . S
H1125 C1130 0.949 . S
H1126 C1132 0.950 . S
H1127 C1133 0.950 . S
H1128 C1134 0.949 . S
C1129 H1124 0.950 . S
C1129 C1131 1.327 . S
C1129 C1135 1.429 1_554 S
C1130 C1122 1.574 1_455 S
C1130 H1125 0.949 . S
C1130 C1136 1.368 . S
C1131 C1115 1.349 1_554 S
C1131 H1123 0.950 . S
C1131 C1129 1.327 . S
C1132 C1120 1.349 1_556 S
C1132 H1126 0.950 . S
C1132 C1133 1.327 . S
C1133 H1127 0.950 . S
C1133 C1132 1.327 . S
C1133 C1137 1.429 1_556 S
C1134 C1117 1.574 1_655 S
C1134 H1128 0.949 . S
C1134 C1138 1.368 . S
C1135 C1116 1.429 . S
C1135 C1129 1.429 1_556 S
C1135 C1136 1.523 . S
C1136 C1117 1.368 1_556 S
C1136 C1130 1.368 . S
C1136 C1135 1.523 . S
C1137 C1121 1.429 . S
C1137 C1133 1.429 1_554 S
C1137 C1138 1.523 . S
C1138 C1122 1.368 1_554 S
C1138 C1134 1.368 . S
C1138 C1137 1.523 . S
H1139 C1114 0.950 . S
H1140 C1116 0.950 . S
H1141 C1117 0.949 . S
H1142 C1119 0.950 . S
H1143 C1121 0.950 . S
C1144 C1145 1.349 . S
C1144 C1146 1.327 . S
C1144 H1169 0.950 . S
C1145 C1144 1.349 . S
C1145 C1161 1.349 . S
C1146 C1144 1.327 . S
C1146 C1165 1.429 . S
C1146 H1170 0.950 . S
C1147 C1164 1.574 . S
C1147 C1166 1.368 . S
C1147 H1171 0.949 . S
H1148 C1152 0.949 . S
C1149 C1150 1.349 . S
C1149 C1151 1.327 . S
C1149 H1172 0.950 . S
C1150 C1149 1.349 . S
C1150 C1162 1.349 . S
C1151 C1149 1.327 . S
C1151 C1167 1.429 . S
C1151 H1173 0.950 . S
C1152 H1148 0.949 . S
C1152 C1160 1.574 . S
C1152 C1168 1.368 . S
H1153 C1161 0.950 . S
H1154 C1159 0.950 . S
H1155 C1160 0.949 . S
H1156 C1162 0.950 . S
H1157 C1163 0.950 . S
H1158 C1164 0.949 . S
C1159 H1154 0.950 . S
C1159 C1161 1.327 . S
C1159 C1165 1.429 . S
C1160 C1152 1.574 . S
C1160 H1155 0.949 . S
C1160 C1166 1.368 . S
C1161 C1145 1.349 . S
C1161 H1153 0.950 . S
C1161 C1159 1.327 . S
C1162 C1150 1.349 . S
C1162 H1156 0.950 . S
C1162 C1163 1.327 . S
C1163 H1157 0.950 . S
C1163 C1162 1.327 . S
C1163 C1167 1.429 . S
C1164 C1147 1.574 . S
C1164 H1158 0.949 . S
C1164 C1168 1.368 . S
C1165 C1146 1.429 . S
C1165 C1159 1.429 . S
C1165 C1166 1.523 . S
C1166 C1147 1.368 . S
C1166 C1160 1.368 . S
C1166 C1165 1.523 . S
C1167 C1151 1.429 . S
C1167 C1163 1.429 . S
C1167 C1168 1.523 . S
C1168 C1152 1.368 . S
C1168 C1164 1.368 . S
C1168 C1167 1.523 . S
H1169 C1144 0.950 . S
H1170 C1146 0.950 . S
H1171 C1147 0.949 . S
H1172 C1149 0.950 . S
H1173 C1151 0.950 . S
C1174 C1175 1.349 . S
C1174 C1176 1.327 . S
C1174 H1199 0.950 . S
C1175 C1174 1.349 . S
C1175 C1191 1.349 . S
C1176 C1174 1.327 . S
C1176 C1195 1.429 . S
C1176 H1200 0.950 . S
C1177 C1194 1.574 . S
C1177 C1196 1.368 . S
C1177 H1201 0.949 . S
H1178 C1182 0.949 . S
C1179 C1180 1.349 . S
C1179 C1181 1.327 . S
C1179 H1202 0.950 . S
C1180 C1179 1.349 . S
C1180 C1192 1.349 . S
C1181 C1179 1.327 . S
C1181 C1197 1.429 . S
C1181 H1203 0.950 . S
C1182 H1178 0.949 . S
C1182 C1190 1.574 . S
C1182 C1198 1.368 . S
H1183 C1191 0.950 . S
H1184 C1189 0.950 . S
H1185 C1190 0.949 . S
H1186 C1192 0.950 . S
H1187 C1193 0.950 . S
H1188 C1194 0.949 . S
C1189 H1184 0.950 . S
C1189 C1191 1.327 . S
C1189 C1195 1.429 . S
C1190 C1182 1.574 . S
C1190 H1185 0.949 . S
C1190 C1196 1.368 . S
C1191 C1175 1.349 . S
C1191 H1183 0.950 . S
C1191 C1189 1.327 . S
C1192 C1180 1.349 . S
C1192 H1186 0.950 . S
C1192 C1193 1.327 . S
C1193 H1187 0.950 . S
C1193 C1192 1.327 . S
C1193 C1197 1.429 . S
C1194 C1177 1.574 . S
C1194 H1188 0.949 . S
C1194 C1198 1.368 . S
C1195 C1176 1.429 . S
C1195 C1189 1.429 . S
C1195 C1196 1.523 . S
C1196 C1177 1.368 . S
C1196 C1190 1.368 . S
C1196 C1195 1.523 . S
C1197 C1181 1.429 . S
C1197 C1193 1.429 . S
C1197 C1198 1.523 . S
C1198 C1182 1.368 . S
C1198 C1194 1.368 . S
C1198 C1197 1.523 . S
H1199 C1174 0.950 . S
H1200 C1176 0.950 . S
H1201 C1177 0.949 . S
H1202 C1179 0.950 . S
H1203 C1181 0.950 . S
C1204 C1205 1.349 . S
C1204 C1206 1.327 . S
C1204 H1229 0.950 . S
C1205 C1204 1.349 . S
C1205 C1221 1.349 1_556 S
C1206 C1204 1.327 . S
C1206 C1225 1.429 . S
C1206 H1230 0.950 . S
C1207 C1224 1.574 1_545 S
C1207 C1226 1.368 1_554 S
C1207 H1231 0.949 . S
H1208 C1212 0.949 . S
C1209 C1210 1.349 . S
C1209 C1211 1.327 . S
C1209 H1232 0.950 . S
C1210 C1209 1.349 . S
C1210 C1222 1.349 1_554 S
C1211 C1209 1.327 . S
C1211 C1227 1.429 . S
C1211 H1233 0.950 . S
C1212 H1208 0.949 . S
C1212 C1220 1.574 1_565 S
C1212 C1228 1.368 1_556 S
H1213 C1221 0.950 . S
H1214 C1219 0.950 . S
H1215 C1220 0.949 . S
H1216 C1222 0.950 . S
H1217 C1223 0.950 . S
H1218 C1224 0.949 . S
C1219 H1214 0.950 . S
C1219 C1221 1.327 . S
C1219 C1225 1.429 1_554 S
C1220 C1212 1.574 1_545 S
C1220 H1215 0.949 . S
C1220 C1226 1.368 1_455 S
C1221 C1205 1.349 1_554 S
C1221 H1213 0.950 . S
C1221 C1219 1.327 . S
C1222 C1210 1.349 1_556 S
C1222 H1216 0.950 . S
C1222 C1223 1.327 . S
C1223 H1217 0.950 . S
C1223 C1222 1.327 . S
C1223 C1227 1.429 1_556 S
C1224 C1207 1.574 1_565 S
C1224 H1218 0.949 . S
C1224 C1228 1.368 1_655 S
C1225 C1206 1.429 . S
C1225 C1219 1.429 1_556 S
C1225 C1226 1.523 . S
C1226 C1207 1.368 1_556 S
C1226 C1220 1.368 1_655 S
C1226 C1225 1.523 . S
C1227 C1211 1.429 . S
C1227 C1223 1.429 1_554 S
C1227 C1228 1.523 . S
C1228 C1212 1.368 1_554 S
C1228 C1224 1.368 1_455 S
C1228 C1227 1.523 . S
H1229 C1204 0.950 . S
H1230 C1206 0.950 . S
H1231 C1207 0.949 . S
H1232 C1209 0.950 . S
H1233 C1211 0.950 . S
C1234 C1235 1.349 . S
C1234 C1236 1.327 . S
C1234 H1259 0.950 . S
C1235 C1234 1.349 . S
C1235 C1251 1.349 . S
C1236 C1234 1.327 . S
C1236 C1255 1.429 . S
C1236 H1260 0.950 . S
C1237 C1254 1.574 . S
C1237 C1256 1.368 . S
C1237 H1261 0.949 . S
H1238 C1242 0.949 . S
C1239 C1240 1.349 . S
C1239 C1241 1.327 . S
C1239 H1262 0.950 . S
C1240 C1239 1.349 . S
C1240 C1252 1.349 . S
C1241 C1239 1.327 . S
C1241 C1257 1.429 . S
C1241 H1263 0.950 . S
C1242 H1238 0.949 . S
C1242 C1250 1.574 . S
C1242 C1258 1.368 . S
H1243 C1251 0.950 . S
H1244 C1249 0.950 . S
H1245 C1250 0.949 . S
H1246 C1252 0.950 . S
H1247 C1253 0.950 . S
H1248 C1254 0.949 . S
C1249 H1244 0.950 . S
C1249 C1251 1.327 . S
C1249 C1255 1.429 . S
C1250 C1242 1.574 . S
C1250 H1245 0.949 . S
C1250 C1256 1.368 1_565 S
C1251 C1235 1.349 . S
C1251 H1243 0.950 . S
C1251 C1249 1.327 . S
C1252 C1240 1.349 . S
C1252 H1246 0.950 . S
C1252 C1253 1.327 . S
C1253 H1247 0.950 . S
C1253 C1252 1.327 . S
C1253 C1257 1.429 . S
C1254 C1237 1.574 . S
C1254 H1248 0.949 . S
C1254 C1258 1.368 1_545 S
C1255 C1236 1.429 . S
C1255 C1249 1.429 . S
C1255 C1256 1.523 . S
C1256 C1237 1.368 . S
C1256 C1250 1.368 1_545 S
C1256 C1255 1.523 . S
C1257 C1241 1.429 . S
C1257 C1253 1.429 . S
C1257 C1258 1.523 . S
C1258 C1242 1.368 . S
C1258 C1254 1.368 1_565 S
C1258 C1257 1.523 . S
H1259 C1234 0.950 . S
H1260 C1236 0.950 . S
H1261 C1237 0.949 . S
H1262 C1239 0.950 . S
H1263 C1241 0.950 . S
C1264 C1265 1.349 . S
C1264 C1266 1.327 . S
C1264 H1289 0.950 . S
C1265 C1264 1.349 . S
C1265 C1281 1.349 . S
C1266 C1264 1.327 . S
C1266 C1285 1.429 1_565 S
C1266 H1290 0.950 1_565 S
C1267 C1284 1.574 . S
C1267 C1286 1.368 . S
C1267 H1291 0.949 . S
H1268 C1272 0.949 . S
C1269 C1270 1.349 . S
C1269 C1271 1.327 . S
C1269 H1292 0.950 . S
C1270 C1269 1.349 . S
C1270 C1282 1.349 . S
C1271 C1269 1.327 . S
C1271 C1287 1.429 . S
C1271 H1293 0.950 . S
C1272 H1268 0.949 . S
C1272 C1280 1.574 . S
C1272 C1288 1.368 . S
H1273 C1281 0.950 . S
H1274 C1279 0.950 1_545 S
H1275 C1280 0.949 . S
H1276 C1282 0.950 . S
H1277 C1283 0.950 . S
H1278 C1284 0.949 . S
C1279 H1274 0.950 1_565 S
C1279 C1281 1.327 . S
C1279 C1285 1.429 1_565 S
C1280 C1272 1.574 . S
C1280 H1275 0.949 . S
C1280 C1286 1.368 . S
C1281 C1265 1.349 . S
C1281 H1273 0.950 . S
C1281 C1279 1.327 . S
C1282 C1270 1.349 . S
C1282 H1276 0.950 . S
C1282 C1283 1.327 . S
C1283 H1277 0.950 . S
C1283 C1282 1.327 . S
C1283 C1287 1.429 . S
C1284 C1267 1.574 . S
C1284 H1278 0.949 . S
C1284 C1288 1.368 . S
C1285 C1266 1.429 1_545 S
C1285 C1279 1.429 1_545 S
C1285 C1286 1.523 . S
C1286 C1267 1.368 . S
C1286 C1280 1.368 . S
C1286 C1285 1.523 . S
C1287 C1271 1.429 . S
C1287 C1283 1.429 . S
C1287 C1288 1.523 . S
C1288 C1272 1.368 . S
C1288 C1284 1.368 . S
C1288 C1287 1.523 . S
H1289 C1264 0.950 . S
H1290 C1266 0.950 1_545 S
H1291 C1267 0.949 . S
H1292 C1269 0.950 . S
H1293 C1271 0.950 . S
C1294 C1295 1.349 . S
C1294 C1296 1.327 . S
C1294 H1319 0.950 . S
C1295 C1294 1.349 . S
C1295 C1311 1.349 . S
C1296 C1294 1.327 . S
C1296 C1315 1.429 . S
C1296 H1320 0.950 . S
C1297 C1314 1.574 . S
C1297 C1316 1.368 . S
C1297 H1321 0.949 . S
H1298 C1302 0.949 . S
C1299 C1300 1.349 . S
C1299 C1301 1.327 . S
C1299 H1322 0.950 . S
C1300 C1299 1.349 . S
C1300 C1312 1.349 . S
C1301 C1299 1.327 . S
C1301 C1317 1.429 . S
C1301 H1323 0.950 . S
C1302 H1298 0.949 . S
C1302 C1310 1.574 . S
C1302 C1318 1.368 . S
H1303 C1311 0.950 . S
H1304 C1309 0.950 . S
H1305 C1310 0.949 . S
H1306 C1312 0.950 . S
H1307 C1313 0.950 . S
H1308 C1314 0.949 . S
C1309 H1304 0.950 . S
C1309 C1311 1.327 . S
C1309 C1315 1.429 . S
C1310 C1302 1.574 . S
C1310 H1305 0.949 . S
C1310 C1316 1.368 . S
C1311 C1295 1.349 . S
C1311 H1303 0.950 . S
C1311 C1309 1.327 . S
C1312 C1300 1.349 . S
C1312 H1306 0.950 . S
C1312 C1313 1.327 . S
C1313 H1307 0.950 . S
C1313 C1312 1.327 . S
C1313 C1317 1.429 . S
C1314 C1297 1.574 . S
C1314 H1308 0.949 . S
C1314 C1318 1.368 . S
C1315 C1296 1.429 . S
C1315 C1309 1.429 . S
C1315 C1316 1.523 . S
C1316 C1297 1.368 . S
C1316 C1310 1.368 . S
C1316 C1315 1.523 . S
C1317 C1301 1.429 . S
C1317 C1313 1.429 . S
C1317 C1318 1.523 . S
C1318 C1302 1.368 . S
C1318 C1314 1.368 . S
C1318 C1317 1.523 . S
H1319 C1294 0.950 . S
H1320 C1296 0.950 . S
H1321 C1297 0.949 . S
H1322 C1299 0.950 . S
H1323 C1301 0.950 . S
C1324 C1325 1.349 . S
C1324 C1326 1.327 . S
C1324 H1349 0.950 . S
C1325 C1324 1.349 . S
C1325 C1341 1.349 . S
C1326 C1324 1.327 . S
C1326 C1345 1.429 . S
C1326 H1350 0.950 . S
C1327 C1344 1.574 . S
C1327 C1346 1.368 . S
C1327 H1351 0.949 . S
H1328 C1332 0.949 . S
C1329 C1330 1.349 . S
C1329 C1331 1.327 . S
C1329 H1352 0.950 . S
C1330 C1329 1.349 . S
C1330 C1342 1.349 . S
C1331 C1329 1.327 . S
C1331 C1347 1.429 1_545 S
C1331 H1353 0.950 1_545 S
C1332 H1328 0.949 . S
C1332 C1340 1.574 . S
C1332 C1348 1.368 . S
H1333 C1341 0.950 . S
H1334 C1339 0.950 . S
H1335 C1340 0.949 . S
H1336 C1342 0.950 . S
H1337 C1343 0.950 1_565 S
H1338 C1344 0.949 . S
C1339 H1334 0.950 . S
C1339 C1341 1.327 . S
C1339 C1345 1.429 . S
C1340 C1332 1.574 . S
C1340 H1335 0.949 . S
C1340 C1346 1.368 . S
C1341 C1325 1.349 . S
C1341 H1333 0.950 . S
C1341 C1339 1.327 . S
C1342 C1330 1.349 . S
C1342 H1336 0.950 . S
C1342 C1343 1.327 . S
C1343 H1337 0.950 1_545 S
C1343 C1342 1.327 . S
C1343 C1347 1.429 1_545 S
C1344 C1327 1.574 . S
C1344 H1338 0.949 . S
C1344 C1348 1.368 . S
C1345 C1326 1.429 . S
C1345 C1339 1.429 . S
C1345 C1346 1.523 . S
C1346 C1327 1.368 . S
C1346 C1340 1.368 . S
C1346 C1345 1.523 . S
C1347 C1331 1.429 1_565 S
C1347 C1343 1.429 1_565 S
C1347 C1348 1.523 . S
C1348 C1332 1.368 . S
C1348 C1344 1.368 . S
C1348 C1347 1.523 . S
H1349 C1324 0.950 . S
H1350 C1326 0.950 . S
H1351 C1327 0.949 . S
H1352 C1329 0.950 . S
H1353 C1331 0.950 1_565 S
C1354 C1355 1.349 . S
C1354 C1356 1.327 . S
C1354 H1379 0.950 . S
C1355 C1354 1.349 . S
C1355 C1371 1.349 . S
C1356 C1354 1.327 . S
C1356 C1375 1.429 . S
C1356 H1380 0.950 . S
C1357 C1374 1.574 . S
C1357 C1376 1.368 . S
C1357 H1381 0.949 . S
H1358 C1362 0.949 . S
C1359 C1360 1.349 . S
C1359 C1361 1.327 . S
C1359 H1382 0.950 . S
C1360 C1359 1.349 . S
C1360 C1372 1.349 . S
C1361 C1359 1.327 . S
C1361 C1377 1.429 . S
C1361 H1383 0.950 . S
C1362 H1358 0.949 . S
C1362 C1370 1.574 . S
C1362 C1378 1.368 . S
H1363 C1371 0.950 . S
H1364 C1369 0.950 . S
H1365 C1370 0.949 . S
H1366 C1372 0.950 1_554 S
H1367 C1373 0.950 . S
H1368 C1374 0.949 . S
C1369 H1364 0.950 . S
C1369 C1371 1.327 . S
C1369 C1375 1.429 . S
C1370 C1362 1.574 . S
C1370 H1365 0.949 . S
C1370 C1376 1.368 . S
C1371 C1355 1.349 . S
C1371 H1363 0.950 . S
C1371 C1369 1.327 . S
C1372 C1360 1.349 . S
C1372 H1366 0.950 1_556 S
C1372 C1373 1.327 . S
C1373 H1367 0.950 . S
C1373 C1372 1.327 . S
C1373 C1377 1.429 . S
C1374 C1357 1.574 . S
C1374 H1368 0.949 . S
C1374 C1378 1.368 . S
C1375 C1356 1.429 . S
C1375 C1369 1.429 . S
C1375 C1376 1.523 . S
C1376 C1357 1.368 . S
C1376 C1370 1.368 . S
C1376 C1375 1.523 . S
C1377 C1361 1.429 . S
C1377 C1373 1.429 . S
C1377 C1378 1.523 . S
C1378 C1362 1.368 . S
C1378 C1374 1.368 . S
C1378 C1377 1.523 . S
H1379 C1354 0.950 . S
H1380 C1356 0.950 . S
H1381 C1357 0.949 . S
H1382 C1359 0.950 . S
H1383 C1361 0.950 . S
C1384 C1385 1.349 . S
C1384 C1386 1.327 . S
C1384 H1409 0.950 . S
C1385 C1384 1.349 . S
C1385 C1401 1.349 . S
C1386 C1384 1.327 . S
C1386 C1405 1.429 1_545 S
C1386 H1410 0.947 1_545 S
C1387 C1404 1.574 . S
C1387 C1406 1.368 . S
C1387 H1411 0.949 . S
H1388 C1392 0.949 . S
C1389 C1390 1.349 . S
C1389 C1391 1.327 . S
C1389 H1412 0.950 . S
C1390 C1389 1.349 . S
C1390 C1402 1.349 . S
C1391 C1389 1.327 . S
C1391 C1407 1.429 . S
C1391 H1413 0.950 . S
C1392 H1388 0.949 . S
C1392 C1400 1.574 . S
C1392 C1408 1.368 . S
H1393 C1401 0.950 . S
H1394 C1399 0.925 1_565 S
H1395 C1400 0.949 . S
H1396 C1402 0.950 . S
H1397 C1403 0.950 . S
H1398 C1404 0.949 . S
C1399 H1394 0.925 1_545 S
C1399 C1401 1.372 . S
C1399 C1405 1.409 1_545 S
C1400 C1392 1.574 . S
C1400 H1395 0.949 . S
C1400 C1406 1.368 . S
C1401 C1385 1.349 . S
C1401 H1393 0.950 . S
C1401 C1399 1.372 . S
C1402 C1390 1.349 . S
C1402 H1396 0.950 . S
C1402 C1403 1.327 . S
C1403 H1397 0.950 . S
C1403 C1402 1.327 . S
C1403 C1407 1.429 . S
C1404 C1387 1.574 . S
C1404 H1398 0.949 . S
C1404 C1408 1.368 . S
C1405 C1386 1.429 1_565 S
C1405 C1399 1.409 1_565 S
C1405 C1406 1.523 . S
C1406 C1387 1.368 . S
C1406 C1400 1.368 . S
C1406 C1405 1.523 . S
C1407 C1391 1.429 . S
C1407 C1403 1.429 . S
C1407 C1408 1.523 . S
C1408 C1392 1.368 . S
C1408 C1404 1.368 . S
C1408 C1407 1.523 . S
H1409 C1384 0.950 . S
H1410 C1386 0.947 1_565 S
H1411 C1387 0.949 . S
H1412 C1389 0.950 . S
H1413 C1391 0.950 . S
C1414 C1415 1.349 . S
C1414 C1416 1.327 . S
C1414 H1439 0.950 . S
C1415 C1414 1.349 . S
C1415 C1431 1.349 . S
C1416 C1414 1.327 . S
C1416 C1435 1.429 . S
C1416 H1440 0.950 . S
C1417 C1434 1.574 . S
C1417 C1436 1.368 . S
C1417 H1441 0.949 . S
H1418 C1422 0.949 . S
C1419 C1420 1.349 . S
C1419 C1421 1.327 . S
C1419 H1442 0.950 . S
C1420 C1419 1.349 . S
C1420 C1432 1.349 . S
C1421 C1419 1.327 . S
C1421 C1437 1.429 . S
C1421 H1443 0.950 . S
C1422 H1418 0.949 . S
C1422 C1430 1.574 . S
C1422 C1438 1.368 . S
H1423 C1431 0.950 . S
H1424 C1429 0.950 . S
H1425 C1430 0.949 . S
H1426 C1432 0.950 . S
H1427 C1433 0.950 . S
H1428 C1434 0.949 . S
C1429 H1424 0.950 . S
C1429 C1431 1.327 . S
C1429 C1435 1.429 . S
C1430 C1422 1.574 . S
C1430 H1425 0.949 . S
C1430 C1436 1.368 . S
C1431 C1415 1.349 . S
C1431 H1423 0.950 . S
C1431 C1429 1.327 . S
C1432 C1420 1.349 . S
C1432 H1426 0.950 . S
C1432 C1433 1.327 . S
C1433 H1427 0.950 . S
C1433 C1432 1.327 . S
C1433 C1437 1.429 . S
C1434 C1417 1.574 . S
C1434 H1428 0.949 . S
C1434 C1438 1.368 . S
C1435 C1416 1.429 . S
C1435 C1429 1.429 . S
C1435 C1436 1.523 . S
C1436 C1417 1.368 . S
C1436 C1430 1.368 . S
C1436 C1435 1.523 . S
C1437 C1421 1.429 . S
C1437 C1433 1.429 . S
C1437 C1438 1.523 . S
C1438 C1422 1.368 . S
C1438 C1434 1.368 . S
C1438 C1437 1.523 . S
H1439 C1414 0.950 . S
H1440 C1416 0.950 . S
H1441 C1417 0.949 . S
H1442 C1419 0.950 . S
H1443 C1421 0.950 . S
C1444 C1445 1.349 . S
C1444 C1446 1.327 1_565 S
C1444 H1469 0.950 . S
C1445 C1444 1.349 . S
C1445 C1461 1.349 . S
C1446 C1444 1.327 1_545 S
C1446 C1465 1.429 . S
C1446 H1470 0.950 . S
C1447 C1464 1.574 . S
C1447 C1466 1.368 . S
C1447 H1471 0.949 . S
H1448 C1452 0.949 . S
C1449 C1450 1.349 . S
C1449 C1451 1.327 . S
C1449 H1472 0.950 . S
C1450 C1449 1.349 . S
C1450 C1462 1.349 . S
C1451 C1449 1.327 . S
C1451 C1467 1.429 . S
C1451 H1473 0.950 . S
C1452 H1448 0.949 . S
C1452 C1460 1.574 . S
C1452 C1468 1.368 . S
H1453 C1461 0.950 . S
H1454 C1459 0.950 . S
H1455 C1460 0.949 . S
H1456 C1462 0.950 . S
H1457 C1463 0.950 . S
H1458 C1464 0.949 . S
C1459 H1454 0.950 . S
C1459 C1461 1.327 . S
C1459 C1465 1.429 1_565 S
C1460 C1452 1.574 . S
C1460 H1455 0.949 . S
C1460 C1466 1.368 . S
C1461 C1445 1.349 . S
C1461 H1453 0.950 . S
C1461 C1459 1.327 . S
C1462 C1450 1.349 . S
C1462 H1456 0.950 . S
C1462 C1463 1.327 . S
C1463 H1457 0.950 . S
C1463 C1462 1.327 . S
C1463 C1467 1.429 . S
C1464 C1447 1.574 . S
C1464 H1458 0.949 . S
C1464 C1468 1.368 . S
C1465 C1446 1.429 . S
C1465 C1459 1.429 1_545 S
C1465 C1466 1.523 . S
C1466 C1447 1.368 . S
C1466 C1460 1.368 . S
C1466 C1465 1.523 . S
C1467 C1451 1.429 . S
C1467 C1463 1.429 . S
C1467 C1468 1.523 . S
C1468 C1452 1.368 . S
C1468 C1464 1.368 . S
C1468 C1467 1.523 . S
H1469 C1444 0.950 . S
H1470 C1446 0.950 . S
H1471 C1447 0.949 . S
H1472 C1449 0.950 . S
H1473 C1451 0.950 . S
C1474 C1475 1.349 1_556 S
C1474 C1476 1.327 1_556 S
C1474 H1499 0.950 . S
C1475 C1474 1.349 1_554 S
C1475 C1491 1.349 . S
C1476 C1474 1.327 1_554 S
C1476 C1495 1.429 . S
C1476 H1500 0.950 1_554 S
C1477 C1494 1.574 . S
C1477 C1496 1.368 . S
C1477 H1501 0.949 . S
H1478 C1482 0.949 . S
C1479 C1480 1.349 . S
C1479 C1481 1.327 . S
C1479 H1502 0.950 . S
C1480 C1479 1.349 . S
C1480 C1492 1.349 . S
C1481 C1479 1.327 . S
C1481 C1497 1.429 . S
C1481 H1503 0.950 . S
C1482 H1478 0.949 . S
C1482 C1490 1.574 . S
C1482 C1498 1.368 . S
H1483 C1491 0.950 . S
H1484 C1489 0.950 . S
H1485 C1490 0.949 . S
H1486 C1492 0.950 . S
H1487 C1493 0.950 . S
H1488 C1494 0.949 . S
C1489 H1484 0.950 . S
C1489 C1491 1.327 . S
C1489 C1495 1.429 . S
C1490 C1482 1.574 . S
C1490 H1485 0.949 . S
C1490 C1496 1.368 . S
C1491 C1475 1.349 . S
C1491 H1483 0.950 . S
C1491 C1489 1.327 . S
C1492 C1480 1.349 . S
C1492 H1486 0.950 . S
C1492 C1493 1.327 . S
C1493 H1487 0.950 . S
C1493 C1492 1.327 . S
C1493 C1497 1.429 . S
C1494 C1477 1.574 . S
C1494 H1488 0.949 . S
C1494 C1498 1.368 . S
C1495 C1476 1.429 . S
C1495 C1489 1.429 . S
C1495 C1496 1.523 . S
C1496 C1477 1.368 . S
C1496 C1490 1.368 . S
C1496 C1495 1.523 . S
C1497 C1481 1.429 . S
C1497 C1493 1.429 . S
C1497 C1498 1.523 . S
C1498 C1482 1.368 . S
C1498 C1494 1.368 . S
C1498 C1497 1.523 . S
H1499 C1474 0.950 . S
H1500 C1476 0.950 1_556 S
H1501 C1477 0.949 . S
H1502 C1479 0.950 . S
H1503 C1481 0.950 . S
C1504 C1505 1.349 . S
C1504 C1506 1.327 . S
C1504 H1529 0.950 . S
C1505 C1504 1.349 . S
C1505 C1521 1.349 . S
C1506 C1504 1.327 . S
C1506 C1525 1.429 . S
C1506 H1530 0.950 . S
C1507 C1524 1.574 . S
C1507 C1526 1.368 . S
C1507 H1531 0.949 . S
H1508 C1512 0.949 . S
C1509 C1510 1.349 . S
C1509 C1511 1.327 . S
C1509 H1532 0.950 . S
C1510 C1509 1.349 . S
C1510 C1522 1.349 . S
C1511 C1509 1.327 . S
C1511 C1527 1.429 . S
C1511 H1533 0.950 . S
C1512 H1508 0.949 . S
C1512 C1520 1.574 . S
C1512 C1528 1.368 . S
H1513 C1521 0.950 . S
H1514 C1519 0.950 . S
H1515 C1520 0.949 . S
H1516 C1522 0.950 . S
H1517 C1523 0.950 . S
H1518 C1524 0.949 . S
C1519 H1514 0.950 . S
C1519 C1521 1.327 . S
C1519 C1525 1.429 . S
C1520 C1512 1.574 . S
C1520 H1515 0.949 . S
C1520 C1526 1.368 . S
C1521 C1505 1.349 . S
C1521 H1513 0.950 . S
C1521 C1519 1.327 . S
C1522 C1510 1.349 . S
C1522 H1516 0.950 . S
C1522 C1523 1.327 . S
C1523 H1517 0.950 . S
C1523 C1522 1.327 . S
C1523 C1527 1.429 . S
C1524 C1507 1.574 . S
C1524 H1518 0.949 . S
C1524 C1528 1.368 . S
C1525 C1506 1.429 . S
C1525 C1519 1.429 . S
C1525 C1526 1.523 . S
C1526 C1507 1.368 . S
C1526 C1520 1.368 . S
C1526 C1525 1.523 . S
C1527 C1511 1.429 . S
C1527 C1523 1.429 . S
C1527 C1528 1.523 . S
C1528 C1512 1.368 . S
C1528 C1524 1.368 . S
C1528 C1527 1.523 . S
H1529 C1504 0.950 . S
H1530 C1506 0.950 . S
H1531 C1507 0.949 . S
H1532 C1509 0.950 . S
H1533 C1511 0.950 . S
C1534 C1535 1.349 . S
C1534 C1536 1.327 . S
C1534 H1559 0.950 . S
C1535 C1534 1.349 . S
C1535 C1551 1.349 . S
C1536 C1534 1.327 . S
C1536 C1555 1.429 . S
C1536 H1560 0.950 . S
C1537 C1554 1.574 . S
C1537 C1556 1.368 . S
C1537 H1561 0.949 . S
H1538 C1542 0.949 . S
C1539 C1540 1.349 . S
C1539 C1541 1.327 . S
C1539 H1562 0.950 . S
C1540 C1539 1.349 . S
C1540 C1552 1.349 . S
C1541 C1539 1.327 . S
C1541 C1557 1.429 . S
C1541 H1563 0.950 . S
C1542 H1538 0.949 . S
C1542 C1550 1.574 . S
C1542 C1558 1.368 . S
H1543 C1551 0.950 . S
H1544 C1549 0.950 . S
H1545 C1550 0.949 . S
H1546 C1552 0.950 . S
H1547 C1553 0.950 . S
H1548 C1554 0.949 . S
C1549 H1544 0.950 . S
C1549 C1551 1.327 . S
C1549 C1555 1.429 . S
C1550 C1542 1.574 . S
C1550 H1545 0.949 . S
C1550 C1556 1.368 . S
C1551 C1535 1.349 . S
C1551 H1543 0.950 . S
C1551 C1549 1.327 . S
C1552 C1540 1.349 . S
C1552 H1546 0.950 . S
C1552 C1553 1.327 . S
C1553 H1547 0.950 . S
C1553 C1552 1.327 . S
C1553 C1557 1.429 . S
C1554 C1537 1.574 . S
C1554 H1548 0.949 . S
C1554 C1558 1.368 . S
C1555 C1536 1.429 . S
C1555 C1549 1.429 . S
C1555 C1556 1.523 . S
C1556 C1537 1.368 . S
C1556 C1550 1.368 . S
C1556 C1555 1.523 . S
C1557 C1541 1.429 . S
C1557 C1553 1.429 . S
C1557 C1558 1.523 . S
C1558 C1542 1.368 . S
C1558 C1554 1.368 . S
C1558 C1557 1.523 . S
H1559 C1534 0.950 . S
H1560 C1536 0.950 . S
H1561 C1537 0.949 . S
H1562 C1539 0.950 . S
H1563 C1541 0.950 . S
C1564 C1565 1.349 . S
C1564 C1566 1.327 . S
C1564 H1589 0.950 . S
C1565 C1564 1.349 . S
C1565 C1581 1.349 . S
C1566 C1564 1.327 . S
C1566 C1585 1.429 . S
C1566 H1590 0.950 . S
C1567 C1584 1.574 . S
C1567 C1586 1.368 . S
C1567 H1591 0.949 . S
H1568 C1572 0.949 . S
C1569 C1570 1.349 . S
C1569 C1571 1.327 . S
C1569 H1592 0.950 . S
C1570 C1569 1.349 . S
C1570 C1582 1.349 . S
C1571 C1569 1.327 . S
C1571 C1587 1.429 . S
C1571 H1593 0.950 . S
C1572 H1568 0.949 . S
C1572 C1580 1.574 . S
C1572 C1588 1.368 . S
H1573 C1581 0.950 . S
H1574 C1579 0.950 . S
H1575 C1580 0.949 . S
H1576 C1582 0.950 . S
H1577 C1583 0.950 . S
H1578 C1584 0.949 . S
C1579 H1574 0.950 . S
C1579 C1581 1.327 . S
C1579 C1585 1.429 . S
C1580 C1572 1.574 . S
C1580 H1575 0.949 . S
C1580 C1586 1.368 . S
C1581 C1565 1.349 . S
C1581 H1573 0.950 . S
C1581 C1579 1.327 . S
C1582 C1570 1.349 . S
C1582 H1576 0.950 . S
C1582 C1583 1.327 . S
C1583 H1577 0.950 . S
C1583 C1582 1.327 . S
C1583 C1587 1.429 . S
C1584 C1567 1.574 . S
C1584 H1578 0.949 . S
C1584 C1588 1.368 . S
C1585 C1566 1.429 . S
C1585 C1579 1.429 . S
C1585 C1586 1.523 . S
C1586 C1567 1.368 . S
C1586 C1580 1.368 . S
C1586 C1585 1.523 . S
C1587 C1571 1.429 . S
C1587 C1583 1.429 . S
C1587 C1588 1.523 . S
C1588 C1572 1.368 . S
C1588 C1584 1.368 . S
C1588 C1587 1.523 . S
H1589 C1564 0.950 . S
H1590 C1566 0.950 . S
H1591 C1567 0.949 . S
H1592 C1569 0.950 . S
H1593 C1571 0.950 . S
C1594 C1595 1.349 . S
C1594 C1596 1.327 . S
C1594 H1619 0.950 . S
C1595 C1594 1.349 . S
C1595 C1611 1.349 . S
C1596 C1594 1.327 . S
C1596 C1615 1.429 . S
C1596 H1620 0.950 . S
C1597 C1614 1.574 . S
C1597 C1616 1.368 . S
C1597 H1621 0.949 . S
H1598 C1602 0.949 . S
C1599 C1600 1.349 . S
C1599 C1601 1.327 . S
C1599 H1622 0.950 . S
C1600 C1599 1.349 . S
C1600 C1612 1.349 . S
C1601 C1599 1.327 . S
C1601 C1617 1.429 . S
C1601 H1623 0.950 . S
C1602 H1598 0.949 . S
C1602 C1610 1.574 . S
C1602 C1618 1.368 . S
H1603 C1611 0.950 . S
H1604 C1609 0.950 . S
H1605 C1610 0.949 . S
H1606 C1612 0.950 . S
H1607 C1613 0.950 . S
H1608 C1614 0.949 . S
C1609 H1604 0.950 . S
C1609 C1611 1.327 . S
C1609 C1615 1.429 . S
C1610 C1602 1.574 . S
C1610 H1605 0.949 . S
C1610 C1616 1.368 . S
C1611 C1595 1.349 . S
C1611 H1603 0.950 . S
C1611 C1609 1.327 . S
C1612 C1600 1.349 . S
C1612 H1606 0.950 . S
C1612 C1613 1.327 . S
C1613 H1607 0.950 . S
C1613 C1612 1.327 . S
C1613 C1617 1.429 . S
C1614 C1597 1.574 . S
C1614 H1608 0.949 . S
C1614 C1618 1.368 . S
C1615 C1596 1.429 . S
C1615 C1609 1.429 . S
C1615 C1616 1.523 . S
C1616 C1597 1.368 . S
C1616 C1610 1.368 . S
C1616 C1615 1.523 . S
C1617 C1601 1.429 . S
C1617 C1613 1.429 . S
C1617 C1618 1.523 . S
C1618 C1602 1.368 . S
C1618 C1614 1.368 . S
C1618 C1617 1.523 . S
H1619 C1594 0.950 . S
H1620 C1596 0.950 . S
H1621 C1597 0.949 . S
H1622 C1599 0.950 . S
H1623 C1601 0.950 . S
C1624 C1625 1.349 . S
C1624 C1626 1.327 . S
C1624 H1649 0.950 . S
C1625 C1624 1.349 . S
C1625 C1641 1.349 . S
C1626 C1624 1.327 . S
C1626 C1645 1.429 . S
C1626 H1650 0.950 . S
C1627 C1644 1.574 . S
C1627 C1646 1.368 . S
C1627 H1651 0.949 . S
H1628 C1632 0.949 . S
C1629 C1630 1.349 . S
C1629 C1631 1.327 . S
C1629 H1652 0.950 . S
C1630 C1629 1.349 . S
C1630 C1642 1.349 . S
C1631 C1629 1.327 . S
C1631 C1647 1.429 . S
C1631 H1653 0.950 . S
C1632 H1628 0.949 . S
C1632 C1640 1.574 . S
C1632 C1648 1.368 . S
H1633 C1641 0.950 . S
H1634 C1639 0.950 . S
H1635 C1640 0.949 . S
H1636 C1642 0.950 . S
H1637 C1643 0.950 . S
H1638 C1644 0.949 . S
C1639 H1634 0.950 . S
C1639 C1641 1.327 . S
C1639 C1645 1.429 . S
C1640 C1632 1.574 . S
C1640 H1635 0.949 . S
C1640 C1646 1.368 . S
C1641 C1625 1.349 . S
C1641 H1633 0.950 . S
C1641 C1639 1.327 . S
C1642 C1630 1.349 . S
C1642 H1636 0.950 . S
C1642 C1643 1.327 . S
C1643 H1637 0.950 . S
C1643 C1642 1.327 . S
C1643 C1647 1.429 . S
C1644 C1627 1.574 . S
C1644 H1638 0.949 . S
C1644 C1648 1.368 . S
C1645 C1626 1.429 . S
C1645 C1639 1.429 . S
C1645 C1646 1.523 . S
C1646 C1627 1.368 . S
C1646 C1640 1.368 . S
C1646 C1645 1.523 . S
C1647 C1631 1.429 . S
C1647 C1643 1.429 . S
C1647 C1648 1.523 . S
C1648 C1632 1.368 . S
C1648 C1644 1.368 . S
C1648 C1647 1.523 . S
H1649 C1624 0.950 . S
H1650 C1626 0.950 . S
H1651 C1627 0.949 . S
H1652 C1629 0.950 . S
H1653 C1631 0.950 . S
C1654 C1655 1.349 . S
C1654 C1656 1.327 . S
C1654 H1679 0.950 . S
C1655 C1654 1.349 . S
C1655 C1671 1.349 . S
C1656 C1654 1.327 . S
C1656 C1675 1.429 . S
C1656 H1680 0.950 . S
C1657 C1674 1.574 . S
C1657 C1676 1.368 . S
C1657 H1681 0.949 . S
H1658 C1662 0.949 . S
C1659 C1660 1.349 . S
C1659 C1661 1.327 . S
C1659 H1682 0.950 . S
C1660 C1659 1.349 . S
C1660 C1672 1.349 . S
C1661 C1659 1.327 . S
C1661 C1677 1.429 . S
C1661 H1683 0.950 . S
C1662 H1658 0.949 . S
C1662 C1670 1.574 . S
C1662 C1678 1.368 . S
H1663 C1671 0.950 . S
H1664 C1669 0.950 . S
H1665 C1670 0.949 . S
H1666 C1672 0.950 1_556 S
H1667 C1673 0.950 . S
H1668 C1674 0.949 . S
C1669 H1664 0.950 . S
C1669 C1671 1.327 . S
C1669 C1675 1.429 . S
C1670 C1662 1.574 . S
C1670 H1665 0.949 . S
C1670 C1676 1.368 . S
C1671 C1655 1.349 . S
C1671 H1663 0.950 . S
C1671 C1669 1.327 . S
C1672 C1660 1.349 . S
C1672 H1666 0.950 1_554 S
C1672 C1673 1.327 . S
C1673 H1667 0.950 . S
C1673 C1672 1.327 . S
C1673 C1677 1.429 . S
C1674 C1657 1.574 . S
C1674 H1668 0.949 . S
C1674 C1678 1.368 . S
C1675 C1656 1.429 . S
C1675 C1669 1.429 . S
C1675 C1676 1.523 . S
C1676 C1657 1.368 . S
C1676 C1670 1.368 . S
C1676 C1675 1.523 . S
C1677 C1661 1.429 . S
C1677 C1673 1.429 . S
C1677 C1678 1.523 . S
C1678 C1662 1.368 . S
C1678 C1674 1.368 . S
C1678 C1677 1.523 . S
H1679 C1654 0.950 . S
H1680 C1656 0.950 . S
H1681 C1657 0.949 . S
H1682 C1659 0.950 . S
H1683 C1661 0.950 . S
C1684 C1685 1.349 . S
C1684 C1686 1.327 . S
C1684 H1709 0.950 . S
C1685 C1684 1.349 . S
C1685 C1701 1.349 . S
C1686 C1684 1.327 . S
C1686 C1705 1.429 . S
C1686 H1710 0.950 . S
C1687 C1704 1.574 . S
C1687 C1706 1.368 . S
C1687 H1711 0.949 . S
H1688 C1692 0.949 . S
C1689 C1690 1.349 . S
C1689 C1691 1.327 . S
C1689 H1712 0.950 . S
C1690 C1689 1.349 . S
C1690 C1702 1.349 . S
C1691 C1689 1.327 . S
C1691 C1707 1.429 . S
C1691 H1713 0.950 . S
C1692 H1688 0.949 . S
C1692 C1700 1.574 . S
C1692 C1708 1.368 . S
H1693 C1701 0.950 . S
H1694 C1699 0.950 . S
H1695 C1700 0.949 . S
H1696 C1702 0.950 . S
H1697 C1703 0.950 . S
H1698 C1704 0.949 . S
C1699 H1694 0.950 . S
C1699 C1701 1.327 . S
C1699 C1705 1.429 . S
C1700 C1692 1.574 . S
C1700 H1695 0.949 . S
C1700 C1706 1.368 . S
C1701 C1685 1.349 . S
C1701 H1693 0.950 . S
C1701 C1699 1.327 . S
C1702 C1690 1.349 . S
C1702 H1696 0.950 . S
C1702 C1703 1.327 . S
C1703 H1697 0.950 . S
C1703 C1702 1.327 . S
C1703 C1707 1.429 . S
C1704 C1687 1.574 . S
C1704 H1698 0.949 . S
C1704 C1708 1.368 . S
C1705 C1686 1.429 . S
C1705 C1699 1.429 . S
C1705 C1706 1.523 . S
C1706 C1687 1.368 . S
C1706 C1700 1.368 . S
C1706 C1705 1.523 . S
C1707 C1691 1.429 . S
C1707 C1703 1.429 . S
C1707 C1708 1.523 . S
C1708 C1692 1.368 . S
C1708 C1704 1.368 . S
C1708 C1707 1.523 . S
H1709 C1684 0.950 . S
H1710 C1686 0.950 . S
H1711 C1687 0.949 . S
H1712 C1689 0.950 . S
H1713 C1691 0.950 . S
C1714 C1715 1.349 . S
C1714 C1716 1.327 . S
C1714 H1739 0.950 . S
C1715 C1714 1.349 . S
C1715 C1731 1.349 . S
C1716 C1714 1.327 . S
C1716 C1735 1.429 . S
C1716 H1740 0.950 . S
C1717 C1734 1.574 . S
C1717 C1736 1.368 . S
C1717 H1741 0.949 . S
H1718 C1722 0.949 . S
C1719 C1720 1.349 . S
C1719 C1721 1.327 . S
C1719 H1742 0.950 . S
C1720 C1719 1.349 . S
C1720 C1732 1.349 . S
C1721 C1719 1.327 . S
C1721 C1737 1.429 . S
C1721 H1743 0.950 . S
C1722 H1718 0.949 . S
C1722 C1730 1.574 . S
C1722 C1738 1.368 . S
H1723 C1731 0.950 . S
H1724 C1729 0.950 . S
H1725 C1730 0.949 . S
H1726 C1732 0.950 . S
H1727 C1733 0.950 . S
H1728 C1734 0.949 . S
C1729 H1724 0.950 . S
C1729 C1731 1.327 . S
C1729 C1735 1.429 . S
C1730 C1722 1.574 . S
C1730 H1725 0.949 . S
C1730 C1736 1.368 . S
C1731 C1715 1.349 . S
C1731 H1723 0.950 . S
C1731 C1729 1.327 . S
C1732 C1720 1.349 . S
C1732 H1726 0.950 . S
C1732 C1733 1.327 . S
C1733 H1727 0.950 . S
C1733 C1732 1.327 . S
C1733 C1737 1.429 . S
C1734 C1717 1.574 . S
C1734 H1728 0.949 . S
C1734 C1738 1.368 . S
C1735 C1716 1.429 . S
C1735 C1729 1.429 . S
C1735 C1736 1.523 . S
C1736 C1717 1.368 . S
C1736 C1730 1.368 . S
C1736 C1735 1.523 . S
C1737 C1721 1.429 . S
C1737 C1733 1.429 . S
C1737 C1738 1.523 . S
C1738 C1722 1.368 . S
C1738 C1734 1.368 . S
C1738 C1737 1.523 . S
H1739 C1714 0.950 . S
H1740 C1716 0.950 . S
H1741 C1717 0.949 . S
H1742 C1719 0.950 . S
H1743 C1721 0.950 . S
C1744 C1745 1.349 . S
C1744 C1746 1.327 . S
C1744 H1769 0.950 . S
C1745 C1744 1.349 . S
C1745 C1761 1.349 . S
C1746 C1744 1.327 . S
C1746 C1765 1.429 . S
C1746 H1770 0.950 . S
C1747 C1764 1.574 . S
C1747 C1766 1.368 . S
C1747 H1771 0.949 . S
H1748 C1752 0.949 . S
C1749 C1750 1.349 . S
C1749 C1751 1.327 . S
C1749 H1772 0.950 . S
C1750 C1749 1.349 . S
C1750 C1762 1.349 . S
C1751 C1749 1.327 . S
C1751 C1767 1.429 . S
C1751 H1773 0.950 . S
C1752 H1748 0.949 . S
C1752 C1760 1.574 . S
C1752 C1768 1.368 . S
H1753 C1761 0.950 . S
H1754 C1759 0.950 . S
H1755 C1760 0.949 . S
H1756 C1762 0.950 . S
H1757 C1763 0.950 . S
H1758 C1764 0.949 . S
C1759 H1754 0.950 . S
C1759 C1761 1.327 . S
C1759 C1765 1.429 . S
C1760 C1752 1.574 . S
C1760 H1755 0.949 . S
C1760 C1766 1.368 . S
C1761 C1745 1.349 . S
C1761 H1753 0.950 . S
C1761 C1759 1.327 . S
C1762 C1750 1.349 . S
C1762 H1756 0.950 . S
C1762 C1763 1.327 . S
C1763 H1757 0.950 . S
C1763 C1762 1.327 . S
C1763 C1767 1.429 . S
C1764 C1747 1.574 . S
C1764 H1758 0.949 . S
C1764 C1768 1.368 . S
C1765 C1746 1.429 . S
C1765 C1759 1.429 . S
C1765 C1766 1.523 . S
C1766 C1747 1.368 . S
C1766 C1760 1.368 . S
C1766 C1765 1.523 . S
C1767 C1751 1.429 . S
C1767 C1763 1.429 . S
C1767 C1768 1.523 . S
C1768 C1752 1.368 . S
C1768 C1764 1.368 . S
C1768 C1767 1.523 . S
H1769 C1744 0.950 . S
H1770 C1746 0.950 . S
H1771 C1747 0.949 . S
H1772 C1749 0.950 . S
H1773 C1751 0.950 . S
C1774 C1775 1.349 . S
C1774 C1776 1.327 . S
C1774 H1799 0.950 . S
C1775 C1774 1.349 . S
C1775 C1791 1.349 . S
C1776 C1774 1.327 . S
C1776 C1795 1.429 . S
C1776 H1800 0.950 . S
C1777 C1794 1.574 . S
C1777 C1796 1.368 . S
C1777 H1801 0.949 . S
H1778 C1782 0.949 . S
C1779 C1780 1.349 . S
C1779 C1781 1.327 . S
C1779 H1802 0.950 . S
C1780 C1779 1.349 . S
C1780 C1792 1.349 . S
C1781 C1779 1.327 . S
C1781 C1797 1.429 . S
C1781 H1803 0.950 . S
C1782 H1778 0.949 . S
C1782 C1790 1.574 . S
C1782 C1798 1.368 . S
H1783 C1791 0.950 . S
H1784 C1789 0.950 . S
H1785 C1790 0.949 . S
H1786 C1792 0.950 . S
H1787 C1793 0.950 . S
H1788 C1794 0.949 . S
C1789 H1784 0.950 . S
C1789 C1791 1.327 . S
C1789 C1795 1.429 . S
C1790 C1782 1.574 . S
C1790 H1785 0.949 . S
C1790 C1796 1.368 . S
C1791 C1775 1.349 . S
C1791 H1783 0.950 . S
C1791 C1789 1.327 . S
C1792 C1780 1.349 . S
C1792 H1786 0.950 . S
C1792 C1793 1.327 . S
C1793 H1787 0.950 . S
C1793 C1792 1.327 . S
C1793 C1797 1.429 . S
C1794 C1777 1.574 . S
C1794 H1788 0.949 . S
C1794 C1798 1.368 . S
C1795 C1776 1.429 . S
C1795 C1789 1.429 . S
C1795 C1796 1.523 . S
C1796 C1777 1.368 . S
C1796 C1790 1.368 . S
C1796 C1795 1.523 . S
C1797 C1781 1.429 . S
C1797 C1793 1.429 . S
C1797 C1798 1.523 . S
C1798 C1782 1.368 . S
C1798 C1794 1.368 . S
C1798 C1797 1.523 . S
H1799 C1774 0.950 . S
H1800 C1776 0.950 . S
H1801 C1777 0.949 . S
H1802 C1779 0.950 . S
H1803 C1781 0.950 . S
C1804 C1805 1.349 . S
C1804 C1806 1.327 . S
C1804 H1829 0.950 . S
C1805 C1804 1.349 . S
C1805 C1821 1.349 . S
C1806 C1804 1.327 . S
C1806 C1825 1.429 . S
C1806 H1830 0.950 . S
C1807 C1824 1.574 . S
C1807 C1826 1.368 . S
C1807 H1831 0.949 . S
H1808 C1812 0.949 . S
C1809 C1810 1.349 . S
C1809 C1811 1.327 . S
C1809 H1832 0.950 . S
C1810 C1809 1.349 . S
C1810 C1822 1.349 . S
C1811 C1809 1.327 . S
C1811 C1827 1.429 . S
C1811 H1833 0.950 . S
C1812 H1808 0.949 . S
C1812 C1820 1.574 . S
C1812 C1828 1.368 . S
H1813 C1821 0.950 . S
H1814 C1819 0.950 . S
H1815 C1820 0.949 . S
H1816 C1822 0.950 . S
H1817 C1823 0.950 . S
H1818 C1824 0.949 . S
C1819 H1814 0.950 . S
C1819 C1821 1.327 . S
C1819 C1825 1.429 . S
C1820 C1812 1.574 . S
C1820 H1815 0.949 . S
C1820 C1826 1.368 . S
C1821 C1805 1.349 . S
C1821 H1813 0.950 . S
C1821 C1819 1.327 . S
C1822 C1810 1.349 . S
C1822 H1816 0.950 . S
C1822 C1823 1.327 . S
C1823 H1817 0.950 . S
C1823 C1822 1.327 . S
C1823 C1827 1.429 . S
C1824 C1807 1.574 . S
C1824 H1818 0.949 . S
C1824 C1828 1.368 . S
C1825 C1806 1.429 . S
C1825 C1819 1.429 . S
C1825 C1826 1.523 . S
C1826 C1807 1.368 . S
C1826 C1820 1.368 . S
C1826 C1825 1.523 . S
C1827 C1811 1.429 . S
C1827 C1823 1.429 . S
C1827 C1828 1.523 . S
C1828 C1812 1.368 . S
C1828 C1824 1.368 . S
C1828 C1827 1.523 . S
H1829 C1804 0.950 . S
H1830 C1806 0.950 . S
H1831 C1807 0.949 . S
H1832 C1809 0.950 . S
H1833 C1811 0.950 . S
C1834 C1835 1.349 . S
C1834 C1836 1.327 . S
C1834 H1859 0.950 . S
C1835 C1834 1.349 . S
C1835 C1851 1.349 . S
C1836 C1834 1.327 . S
C1836 C1855 1.429 . S
C1836 H1860 0.950 . S
C1837 C1854 1.574 . S
C1837 C1856 1.368 . S
C1837 H1861 0.949 . S
H1838 C1842 0.949 . S
C1839 C1840 1.349 . S
C1839 C1841 1.327 . S
C1839 H1862 0.950 . S
C1840 C1839 1.349 . S
C1840 C1852 1.349 . S
C1841 C1839 1.327 . S
C1841 C1857 1.429 . S
C1841 H1863 0.950 . S
C1842 H1838 0.949 . S
C1842 C1850 1.574 . S
C1842 C1858 1.368 . S
H1843 C1851 0.950 . S
H1844 C1849 0.950 . S
H1845 C1850 0.949 . S
H1846 C1852 0.950 . S
H1847 C1853 0.950 . S
H1848 C1854 0.949 . S
C1849 H1844 0.950 . S
C1849 C1851 1.327 . S
C1849 C1855 1.429 . S
C1850 C1842 1.574 . S
C1850 H1845 0.949 . S
C1850 C1856 1.368 . S
C1851 C1835 1.349 . S
C1851 H1843 0.950 . S
C1851 C1849 1.327 . S
C1852 C1840 1.349 . S
C1852 H1846 0.950 . S
C1852 C1853 1.327 . S
C1853 H1847 0.950 . S
C1853 C1852 1.327 . S
C1853 C1857 1.429 . S
C1854 C1837 1.574 . S
C1854 H1848 0.949 . S
C1854 C1858 1.368 . S
C1855 C1836 1.429 . S
C1855 C1849 1.429 . S
C1855 C1856 1.523 . S
C1856 C1837 1.368 . S
C1856 C1850 1.368 . S
C1856 C1855 1.523 . S
C1857 C1841 1.429 . S
C1857 C1853 1.429 . S
C1857 C1858 1.523 1_655 S
C1858 C1842 1.368 . S
C1858 C1854 1.368 . S
C1858 C1857 1.523 1_455 S
H1859 C1834 0.950 . S
H1860 C1836 0.950 . S
H1861 C1837 0.949 . S
H1862 C1839 0.950 . S
H1863 C1841 0.950 . S
C1864 C1865 1.349 . S
C1864 C1866 1.327 . S
C1864 H1889 0.950 . S
C1865 C1864 1.349 . S
C1865 C1881 1.349 . S
C1866 C1864 1.327 . S
C1866 C1885 1.429 . S
C1866 H1890 0.950 . S
C1867 C1884 1.574 . S
C1867 C1886 1.368 . S
C1867 H1891 0.949 . S
H1868 C1872 0.949 . S
C1869 C1870 1.349 . S
C1869 C1871 1.327 . S
C1869 H1892 0.950 . S
C1870 C1869 1.349 . S
C1870 C1882 1.349 . S
C1871 C1869 1.327 . S
C1871 C1887 1.429 . S
C1871 H1893 0.950 . S
C1872 H1868 0.949 . S
C1872 C1880 1.574 . S
C1872 C1888 1.368 . S
H1873 C1881 0.950 . S
H1874 C1879 0.950 . S
H1875 C1880 0.949 . S
H1876 C1882 0.950 . S
H1877 C1883 0.950 . S
H1878 C1884 0.949 . S
C1879 H1874 0.950 . S
C1879 C1881 1.327 . S
C1879 C1885 1.429 . S
C1880 C1872 1.574 . S
C1880 H1875 0.949 . S
C1880 C1886 1.368 . S
C1881 C1865 1.349 . S
C1881 H1873 0.950 . S
C1881 C1879 1.327 . S
C1882 C1870 1.349 . S
C1882 H1876 0.950 . S
C1882 C1883 1.327 . S
C1883 H1877 0.950 . S
C1883 C1882 1.327 . S
C1883 C1887 1.429 . S
C1884 C1867 1.574 . S
C1884 H1878 0.949 . S
C1884 C1888 1.368 . S
C1885 C1866 1.429 . S
C1885 C1879 1.429 . S
C1885 C1886 1.523 . S
C1886 C1867 1.368 . S
C1886 C1880 1.368 . S
C1886 C1885 1.523 . S
C1887 C1871 1.429 . S
C1887 C1883 1.429 . S
C1887 C1888 1.523 . S
C1888 C1872 1.368 . S
C1888 C1884 1.368 . S
C1888 C1887 1.523 . S
H1889 C1864 0.950 . S
H1890 C1866 0.950 . S
H1891 C1867 0.949 . S
H1892 C1869 0.950 . S
H1893 C1871 0.950 . S
C1894 C1895 1.349 . S
C1894 C1896 1.327 . S
C1894 H1919 0.950 . S
C1895 C1894 1.349 . S
C1895 C1911 1.349 . S
C1896 C1894 1.327 . S
C1896 C1915 1.429 . S
C1896 H1920 0.950 . S
C1897 C1914 1.574 . S
C1897 C1916 1.368 . S
C1897 H1921 0.949 . S
H1898 C1902 0.949 . S
C1899 C1900 1.349 . S
C1899 C1901 1.327 . S
C1899 H1922 0.950 . S
C1900 C1899 1.349 . S
C1900 C1912 1.349 . S
C1901 C1899 1.327 . S
C1901 C1917 1.429 . S
C1901 H1923 0.950 . S
C1902 H1898 0.949 . S
C1902 C1910 1.574 . S
C1902 C1918 1.368 . S
H1903 C1911 0.950 . S
H1904 C1909 0.950 . S
H1905 C1910 0.949 . S
H1906 C1912 0.950 . S
H1907 C1913 0.950 . S
H1908 C1914 0.949 . S
C1909 H1904 0.950 . S
C1909 C1911 1.327 . S
C1909 C1915 1.429 . S
C1910 C1902 1.574 . S
C1910 H1905 0.949 . S
C1910 C1916 1.368 . S
C1911 C1895 1.349 . S
C1911 H1903 0.950 . S
C1911 C1909 1.327 . S
C1912 C1900 1.349 . S
C1912 H1906 0.950 . S
C1912 C1913 1.327 . S
C1913 H1907 0.950 . S
C1913 C1912 1.327 . S
C1913 C1917 1.429 . S
C1914 C1897 1.574 . S
C1914 H1908 0.949 . S
C1914 C1918 1.368 . S
C1915 C1896 1.429 . S
C1915 C1909 1.429 . S
C1915 C1916 1.523 . S
C1916 C1897 1.368 . S
C1916 C1910 1.368 . S
C1916 C1915 1.523 . S
C1917 C1901 1.429 . S
C1917 C1913 1.429 . S
C1917 C1918 1.523 . S
C1918 C1902 1.368 . S
C1918 C1914 1.368 . S
C1918 C1917 1.523 . S
H1919 C1894 0.950 . S
H1920 C1896 0.950 . S
H1921 C1897 0.949 . S
H1922 C1899 0.950 . S
H1923 C1901 0.950 . S
C1924 C1925 1.349 . S
C1924 C1926 1.327 . S
C1924 H1949 0.950 . S
C1925 C1924 1.349 . S
C1925 C1941 1.349 . S
C1926 C1924 1.327 . S
C1926 C1945 1.429 . S
C1926 H1950 0.950 . S
C1927 C1944 1.574 . S
C1927 C1946 1.368 . S
C1927 H1951 0.949 . S
H1928 C1932 0.949 . S
C1929 C1930 1.349 . S
C1929 C1931 1.327 . S
C1929 H1952 0.950 . S
C1930 C1929 1.349 . S
C1930 C1942 1.349 . S
C1931 C1929 1.327 . S
C1931 C1947 1.429 . S
C1931 H1953 0.950 . S
C1932 H1928 0.949 . S
C1932 C1940 1.574 . S
C1932 C1948 1.368 . S
H1933 C1941 0.950 . S
H1934 C1939 0.950 . S
H1935 C1940 0.949 . S
H1936 C1942 0.950 . S
H1937 C1943 0.950 . S
H1938 C1944 0.949 . S
C1939 H1934 0.950 . S
C1939 C1941 1.327 . S
C1939 C1945 1.429 . S
C1940 C1932 1.574 . S
C1940 H1935 0.949 . S
C1940 C1946 1.368 . S
C1941 C1925 1.349 . S
C1941 H1933 0.950 . S
C1941 C1939 1.327 . S
C1942 C1930 1.349 . S
C1942 H1936 0.950 . S
C1942 C1943 1.327 . S
C1943 H1937 0.950 . S
C1943 C1942 1.327 . S
C1943 C1947 1.429 . S
C1944 C1927 1.574 . S
C1944 H1938 0.949 . S
C1944 C1948 1.368 . S
C1945 C1926 1.429 . S
C1945 C1939 1.429 . S
C1945 C1946 1.523 . S
C1946 C1927 1.368 . S
C1946 C1940 1.368 . S
C1946 C1945 1.523 . S
C1947 C1931 1.429 . S
C1947 C1943 1.429 . S
C1947 C1948 1.523 . S
C1948 C1932 1.368 . S
C1948 C1944 1.368 . S
C1948 C1947 1.523 . S
H1949 C1924 0.950 . S
H1950 C1926 0.950 . S
H1951 C1927 0.949 . S
H1952 C1929 0.950 . S
H1953 C1931 0.950 . S
C1954 C1955 1.349 . S
C1954 C1956 1.327 . S
C1954 H1979 0.950 . S
C1955 C1954 1.349 . S
C1955 C1971 1.349 . S
C1956 C1954 1.327 . S
C1956 C1975 1.429 . S
C1956 H1980 0.950 . S
C1957 C1974 1.574 . S
C1957 C1976 1.368 . S
C1957 H1981 0.949 1_655 S
H1958 C1962 0.949 . S
C1959 C1960 1.349 . S
C1959 C1961 1.327 . S
C1959 H1982 0.950 . S
C1960 C1959 1.349 . S
C1960 C1972 1.349 . S
C1961 C1959 1.327 . S
C1961 C1977 1.429 . S
C1961 H1983 0.950 . S
C1962 H1958 0.949 . S
C1962 C1970 1.574 . S
C1962 C1978 1.368 . S
H1963 C1971 0.950 . S
H1964 C1969 0.950 . S
H1965 C1970 0.949 . S
H1966 C1972 0.950 . S
H1967 C1973 0.950 . S
H1968 C1974 0.949 . S
C1969 H1964 0.950 . S
C1969 C1971 1.327 . S
C1969 C1975 1.429 . S
C1970 C1962 1.574 . S
C1970 H1965 0.949 . S
C1970 C1976 1.368 . S
C1971 C1955 1.349 . S
C1971 H1963 0.950 . S
C1971 C1969 1.327 . S
C1972 C1960 1.349 . S
C1972 H1966 0.950 . S
C1972 C1973 1.327 . S
C1973 H1967 0.950 . S
C1973 C1972 1.327 . S
C1973 C1977 1.429 . S
C1974 C1957 1.574 . S
C1974 H1968 0.949 . S
C1974 C1978 1.368 . S
C1975 C1956 1.429 . S
C1975 C1969 1.429 . S
C1975 C1976 1.523 1_455 S
C1976 C1957 1.368 . S
C1976 C1970 1.368 . S
C1976 C1975 1.523 1_655 S
C1977 C1961 1.429 . S
C1977 C1973 1.429 . S
C1977 C1978 1.523 . S
C1978 C1962 1.368 . S
C1978 C1974 1.368 . S
C1978 C1977 1.523 . S
H1979 C1954 0.950 . S
H1980 C1956 0.950 . S
H1981 C1957 0.949 1_455 S
H1982 C1959 0.950 . S
H1983 C1961 0.950 . S
C1984 C1985 1.349 . S
C1984 C1986 1.327 . S
C1984 H2009 0.950 . S
C1985 C1984 1.349 . S
C1985 C2001 1.349 . S
C1986 C1984 1.327 . S
C1986 C2005 1.429 . S
C1986 H2010 0.950 . S
C1987 C2004 1.574 . S
C1987 C2006 1.368 . S
C1987 H2011 0.949 . S
H1988 C1992 0.949 . S
C1989 C1990 1.349 . S
C1989 C1991 1.327 . S
C1989 H2012 0.950 . S
C1990 C1989 1.349 . S
C1990 C2002 1.349 . S
C1991 C1989 1.327 . S
C1991 C2007 1.429 . S
C1991 H2013 0.950 . S
C1992 H1988 0.949 . S
C1992 C2000 1.574 . S
C1992 C2008 1.368 . S
H1993 C2001 0.950 . S
H1994 C1999 0.950 . S
H1995 C2000 0.949 . S
H1996 C2002 0.950 . S
H1997 C2003 0.950 . S
H1998 C2004 0.949 . S
C1999 H1994 0.950 . S
C1999 C2001 1.327 . S
C1999 C2005 1.429 . S
C2000 C1992 1.574 . S
C2000 H1995 0.949 . S
C2000 C2006 1.368 . S
C2001 C1985 1.349 . S
C2001 H1993 0.950 . S
C2001 C1999 1.327 . S
C2002 C1990 1.349 . S
C2002 H1996 0.950 . S
C2002 C2003 1.327 . S
C2003 H1997 0.950 . S
C2003 C2002 1.327 . S
C2003 C2007 1.429 . S
C2004 C1987 1.574 . S
C2004 H1998 0.949 . S
C2004 C2008 1.368 . S
C2005 C1986 1.429 . S
C2005 C1999 1.429 . S
C2005 C2006 1.523 . S
C2006 C1987 1.368 . S
C2006 C2000 1.368 . S
C2006 C2005 1.523 . S
C2007 C1991 1.429 . S
C2007 C2003 1.429 . S
C2007 C2008 1.523 . S
C2008 C1992 1.368 . S
C2008 C2004 1.368 . S
C2008 C2007 1.523 . S
H2009 C1984 0.950 . S
H2010 C1986 0.950 . S
H2011 C1987 0.949 . S
H2012 C1989 0.950 . S
H2013 C1991 0.950 . S
C2014 C2015 1.349 . S
C2014 C2016 1.327 . S
C2014 H2039 0.950 . S
C2015 C2014 1.349 . S
C2015 C2031 1.349 . S
C2016 C2014 1.327 . S
C2016 C2035 1.429 . S
C2016 H2040 0.950 . S
C2017 C2034 1.574 . S
C2017 C2036 1.368 . S
C2017 H2041 0.949 1_655 S
H2018 C2022 0.949 . S
C2019 C2020 1.349 . S
C2019 C2021 1.327 . S
C2019 H2042 0.950 . S
C2020 C2019 1.349 . S
C2020 C2032 1.349 . S
C2021 C2019 1.327 . S
C2021 C2037 1.429 . S
C2021 H2043 0.950 . S
C2022 H2018 0.949 . S
C2022 C2030 1.574 . S
C2022 C2038 1.368 . S
H2023 C2031 0.950 . S
H2024 C2029 0.950 . S
H2025 C2030 0.949 . S
H2026 C2032 0.950 . S
H2027 C2033 0.950 . S
H2028 C2034 0.949 . S
C2029 H2024 0.950 . S
C2029 C2031 1.327 . S
C2029 C2035 1.429 . S
C2030 C2022 1.574 . S
C2030 H2025 0.949 . S
C2030 C2036 1.368 . S
C2031 C2015 1.349 . S
C2031 H2023 0.950 . S
C2031 C2029 1.327 . S
C2032 C2020 1.349 . S
C2032 H2026 0.950 . S
C2032 C2033 1.327 . S
C2033 H2027 0.950 . S
C2033 C2032 1.327 . S
C2033 C2037 1.429 . S
C2034 C2017 1.574 . S
C2034 H2028 0.949 . S
C2034 C2038 1.368 . S
C2035 C2016 1.429 . S
C2035 C2029 1.429 . S
C2035 C2036 1.523 1_455 S
C2036 C2017 1.368 . S
C2036 C2030 1.368 . S
C2036 C2035 1.523 1_655 S
C2037 C2021 1.429 . S
C2037 C2033 1.429 . S
C2037 C2038 1.523 . S
C2038 C2022 1.368 . S
C2038 C2034 1.368 . S
C2038 C2037 1.523 . S
H2039 C2014 0.950 . S
H2040 C2016 0.950 . S
H2041 C2017 0.949 1_455 S
H2042 C2019 0.950 . S
H2043 C2021 0.950 . S
C2044 C2045 1.349 . S
C2044 C2046 1.327 . S
C2044 H2069 0.950 . S
C2045 C2044 1.349 . S
C2045 C2061 1.349 . S
C2046 C2044 1.327 . S
C2046 C2065 1.429 . S
C2046 H2070 0.950 . S
C2047 C2064 1.574 . S
C2047 C2066 1.368 . S
C2047 H2071 0.949 . S
H2048 C2052 0.949 . S
C2049 C2050 1.349 . S
C2049 C2051 1.327 . S
C2049 H2072 0.950 . S
C2050 C2049 1.349 . S
C2050 C2062 1.349 . S
C2051 C2049 1.327 . S
C2051 C2067 1.429 . S
C2051 H2073 0.950 . S
C2052 H2048 0.949 . S
C2052 C2060 1.574 . S
C2052 C2068 1.368 . S
H2053 C2061 0.950 . S
H2054 C2059 0.950 . S
H2055 C2060 0.949 . S
H2056 C2062 0.950 . S
H2057 C2063 0.950 . S
H2058 C2064 0.949 . S
C2059 H2054 0.950 . S
C2059 C2061 1.327 . S
C2059 C2065 1.429 . S
C2060 C2052 1.574 . S
C2060 H2055 0.949 . S
C2060 C2066 1.368 . S
C2061 C2045 1.349 . S
C2061 H2053 0.950 . S
C2061 C2059 1.327 . S
C2062 C2050 1.349 . S
C2062 H2056 0.950 . S
C2062 C2063 1.327 . S
C2063 H2057 0.950 . S
C2063 C2062 1.327 . S
C2063 C2067 1.429 . S
C2064 C2047 1.574 . S
C2064 H2058 0.949 . S
C2064 C2068 1.368 . S
C2065 C2046 1.429 . S
C2065 C2059 1.429 . S
C2065 C2066 1.523 . S
C2066 C2047 1.368 . S
C2066 C2060 1.368 . S
C2066 C2065 1.523 . S
C2067 C2051 1.429 . S
C2067 C2063 1.429 . S
C2067 C2068 1.523 . S
C2068 C2052 1.368 . S
C2068 C2064 1.368 . S
C2068 C2067 1.523 . S
H2069 C2044 0.950 . S
H2070 C2046 0.950 . S
H2071 C2047 0.949 . S
H2072 C2049 0.950 . S
H2073 C2051 0.950 . S
C2074 C2075 1.349 . S
C2074 C2076 1.327 . S
C2074 H2099 0.950 . S
C2075 C2074 1.349 . S
C2075 C2091 1.349 . S
C2076 C2074 1.327 . S
C2076 C2095 1.429 . S
C2076 H2100 0.950 . S
C2077 C2094 1.574 . S
C2077 C2096 1.368 . S
C2077 H2101 0.949 . S
H2078 C2082 0.949 . S
C2079 C2080 1.349 . S
C2079 C2081 1.327 . S
C2079 H2102 0.950 . S
C2080 C2079 1.349 . S
C2080 C2092 1.349 . S
C2081 C2079 1.327 . S
C2081 C2097 1.429 . S
C2081 H2103 0.950 . S
C2082 H2078 0.949 . S
C2082 C2090 1.574 . S
C2082 C2098 1.368 . S
H2083 C2091 0.950 . S
H2084 C2089 0.950 . S
H2085 C2090 0.949 . S
H2086 C2092 0.950 . S
H2087 C2093 0.950 . S
H2088 C2094 0.949 . S
C2089 H2084 0.950 . S
C2089 C2091 1.327 . S
C2089 C2095 1.429 . S
C2090 C2082 1.574 . S
C2090 H2085 0.949 . S
C2090 C2096 1.368 . S
C2091 C2075 1.349 . S
C2091 H2083 0.950 . S
C2091 C2089 1.327 . S
C2092 C2080 1.349 . S
C2092 H2086 0.950 . S
C2092 C2093 1.327 . S
C2093 H2087 0.950 . S
C2093 C2092 1.327 . S
C2093 C2097 1.429 . S
C2094 C2077 1.574 . S
C2094 H2088 0.949 . S
C2094 C2098 1.368 . S
C2095 C2076 1.429 . S
C2095 C2089 1.429 . S
C2095 C2096 1.523 . S
C2096 C2077 1.368 . S
C2096 C2090 1.368 . S
C2096 C2095 1.523 . S
C2097 C2081 1.429 . S
C2097 C2093 1.429 . S
C2097 C2098 1.523 . S
C2098 C2082 1.368 . S
C2098 C2094 1.368 . S
C2098 C2097 1.523 . S
H2099 C2074 0.950 . S
H2100 C2076 0.950 . S
H2101 C2077 0.949 . S
H2102 C2079 0.950 . S
H2103 C2081 0.950 . S
C2104 C2105 1.349 . S
C2104 C2106 1.327 . S
C2104 H2129 0.950 . S
C2105 C2104 1.349 . S
C2105 C2121 1.349 . S
C2106 C2104 1.327 . S
C2106 C2125 1.429 . S
C2106 H2130 0.950 . S
C2107 C2124 1.574 . S
C2107 C2126 1.368 . S
C2107 H2131 0.949 . S
H2108 C2112 0.949 . S
C2109 C2110 1.349 . S
C2109 C2111 1.327 . S
C2109 H2132 0.950 . S
C2110 C2109 1.349 . S
C2110 C2122 1.349 . S
C2111 C2109 1.327 . S
C2111 C2127 1.429 . S
C2111 H2133 0.950 . S
C2112 H2108 0.949 . S
C2112 C2120 1.574 . S
C2112 C2128 1.368 . S
H2113 C2121 0.950 . S
H2114 C2119 0.950 . S
H2115 C2120 0.949 . S
H2116 C2122 0.950 . S
H2117 C2123 0.950 . S
H2118 C2124 0.949 . S
C2119 H2114 0.950 . S
C2119 C2121 1.327 . S
C2119 C2125 1.429 . S
C2120 C2112 1.574 . S
C2120 H2115 0.949 . S
C2120 C2126 1.368 . S
C2121 C2105 1.349 . S
C2121 H2113 0.950 . S
C2121 C2119 1.327 . S
C2122 C2110 1.349 . S
C2122 H2116 0.950 . S
C2122 C2123 1.327 . S
C2123 H2117 0.950 . S
C2123 C2122 1.327 . S
C2123 C2127 1.429 . S
C2124 C2107 1.574 . S
C2124 H2118 0.949 . S
C2124 C2128 1.368 . S
C2125 C2106 1.429 . S
C2125 C2119 1.429 . S
C2125 C2126 1.523 . S
C2126 C2107 1.368 . S
C2126 C2120 1.368 . S
C2126 C2125 1.523 . S
C2127 C2111 1.429 . S
C2127 C2123 1.429 . S
C2127 C2128 1.523 . S
C2128 C2112 1.368 . S
C2128 C2124 1.368 . S
C2128 C2127 1.523 . S
H2129 C2104 0.950 . S
H2130 C2106 0.950 . S
H2131 C2107 0.949 . S
H2132 C2109 0.950 . S
H2133 C2111 0.950 . S
C2134 C2135 1.349 . S
C2134 C2136 1.327 . S
C2134 H2159 0.950 . S
C2135 C2134 1.349 . S
C2135 C2151 1.349 . S
C2136 C2134 1.327 . S
C2136 C2155 1.429 . S
C2136 H2160 0.950 . S
C2137 C2154 1.574 . S
C2137 C2156 1.368 . S
C2137 H2161 0.949 1_455 S
H2138 C2142 0.949 . S
C2139 C2140 1.349 . S
C2139 C2141 1.327 . S
C2139 H2162 0.950 . S
C2140 C2139 1.349 . S
C2140 C2152 1.349 . S
C2141 C2139 1.327 . S
C2141 C2157 1.429 . S
C2141 H2163 0.950 . S
C2142 H2138 0.949 . S
C2142 C2150 1.574 . S
C2142 C2158 1.368 . S
H2143 C2151 0.950 . S
H2144 C2149 0.950 . S
H2145 C2150 0.949 . S
H2146 C2152 0.950 . S
H2147 C2153 0.950 . S
H2148 C2154 0.949 . S
C2149 H2144 0.950 . S
C2149 C2151 1.327 . S
C2149 C2155 1.429 . S
C2150 C2142 1.574 . S
C2150 H2145 0.949 . S
C2150 C2156 1.368 . S
C2151 C2135 1.349 . S
C2151 H2143 0.950 . S
C2151 C2149 1.327 . S
C2152 C2140 1.349 . S
C2152 H2146 0.950 . S
C2152 C2153 1.327 . S
C2153 H2147 0.950 . S
C2153 C2152 1.327 . S
C2153 C2157 1.429 . S
C2154 C2137 1.574 . S
C2154 H2148 0.949 . S
C2154 C2158 1.368 . S
C2155 C2136 1.429 . S
C2155 C2149 1.429 . S
C2155 C2156 1.523 1_655 S
C2156 C2137 1.368 . S
C2156 C2150 1.368 . S
C2156 C2155 1.523 1_455 S
C2157 C2141 1.429 . S
C2157 C2153 1.429 . S
C2157 C2158 1.523 . S
C2158 C2142 1.368 . S
C2158 C2154 1.368 . S
C2158 C2157 1.523 . S
H2159 C2134 0.950 . S
H2160 C2136 0.950 . S
H2161 C2137 0.949 1_655 S
H2162 C2139 0.950 . S
H2163 C2141 0.950 . S
C2164 C2165 1.349 . S
C2164 C2166 1.327 . S
C2164 H2189 0.950 . S
C2165 C2164 1.349 . S
C2165 C2181 1.349 . S
C2166 C2164 1.327 . S
C2166 C2185 1.429 . S
C2166 H2190 0.950 . S
C2167 C2184 1.574 . S
C2167 C2186 1.368 . S
C2167 H2191 0.949 . S
H2168 C2172 0.949 . S
C2169 C2170 1.349 . S
C2169 C2171 1.327 . S
C2169 H2192 0.950 . S
C2170 C2169 1.349 . S
C2170 C2182 1.349 . S
C2171 C2169 1.327 . S
C2171 C2187 1.429 . S
C2171 H2193 0.950 . S
C2172 H2168 0.949 . S
C2172 C2180 1.574 . S
C2172 C2188 1.368 . S
H2173 C2181 0.950 . S
H2174 C2179 0.950 . S
H2175 C2180 0.949 . S
H2176 C2182 0.950 . S
H2177 C2183 0.950 . S
H2178 C2184 0.949 . S
C2179 H2174 0.950 . S
C2179 C2181 1.327 . S
C2179 C2185 1.429 . S
C2180 C2172 1.574 . S
C2180 H2175 0.949 . S
C2180 C2186 1.368 . S
C2181 C2165 1.349 . S
C2181 H2173 0.950 . S
C2181 C2179 1.327 . S
C2182 C2170 1.349 . S
C2182 H2176 0.950 . S
C2182 C2183 1.327 . S
C2183 H2177 0.950 . S
C2183 C2182 1.327 . S
C2183 C2187 1.429 . S
C2184 C2167 1.574 . S
C2184 H2178 0.949 . S
C2184 C2188 1.368 . S
C2185 C2166 1.429 . S
C2185 C2179 1.429 . S
C2185 C2186 1.523 . S
C2186 C2167 1.368 . S
C2186 C2180 1.368 . S
C2186 C2185 1.523 . S
C2187 C2171 1.429 . S
C2187 C2183 1.429 . S
C2187 C2188 1.523 . S
C2188 C2172 1.368 . S
C2188 C2184 1.368 . S
C2188 C2187 1.523 . S
H2189 C2164 0.950 . S
H2190 C2166 0.950 . S
H2191 C2167 0.949 . S
H2192 C2169 0.950 . S
H2193 C2171 0.950 . S
C2194 C2195 1.349 . S
C2194 C2196 1.327 . S
C2194 H2219 0.950 . S
C2195 C2194 1.349 . S
C2195 C2211 1.349 . S
C2196 C2194 1.327 . S
C2196 C2215 1.429 . S
C2196 H2220 0.950 . S
C2197 C2214 1.574 . S
C2197 C2216 1.368 . S
C2197 H2221 0.949 . S
H2198 C2202 0.949 . S
C2199 C2200 1.349 . S
C2199 C2201 1.327 . S
C2199 H2222 0.950 . S
C2200 C2199 1.349 . S
C2200 C2212 1.349 . S
C2201 C2199 1.327 . S
C2201 C2217 1.429 . S
C2201 H2223 0.950 . S
C2202 H2198 0.949 . S
C2202 C2210 1.574 . S
C2202 C2218 1.368 . S
H2203 C2211 0.950 . S
H2204 C2209 0.950 . S
H2205 C2210 0.949 . S
H2206 C2212 0.950 . S
H2207 C2213 0.950 . S
H2208 C2214 0.949 . S
C2209 H2204 0.950 . S
C2209 C2211 1.327 . S
C2209 C2215 1.429 . S
C2210 C2202 1.574 . S
C2210 H2205 0.949 . S
C2210 C2216 1.368 . S
C2211 C2195 1.349 . S
C2211 H2203 0.950 . S
C2211 C2209 1.327 . S
C2212 C2200 1.349 . S
C2212 H2206 0.950 . S
C2212 C2213 1.327 . S
C2213 H2207 0.950 . S
C2213 C2212 1.327 . S
C2213 C2217 1.429 . S
C2214 C2197 1.574 . S
C2214 H2208 0.949 . S
C2214 C2218 1.368 . S
C2215 C2196 1.429 . S
C2215 C2209 1.429 . S
C2215 C2216 1.523 . S
C2216 C2197 1.368 . S
C2216 C2210 1.368 . S
C2216 C2215 1.523 . S
C2217 C2201 1.429 . S
C2217 C2213 1.429 . S
C2217 C2218 1.523 . S
C2218 C2202 1.368 . S
C2218 C2214 1.368 . S
C2218 C2217 1.523 . S
H2219 C2194 0.950 . S
H2220 C2196 0.950 . S
H2221 C2197 0.949 . S
H2222 C2199 0.950 . S
H2223 C2201 0.950 . S
C545 C15 1.532 1_556 S
C550 C22 1.531 . S
C575 C56 1.531 . S
C580 C49 1.532 . S
C605 C83 1.532 . S
C610 C90 1.531 1_554 S
C635 C124 1.532 . S
C640 C117 1.531 . S
C665 C158 1.532 1_554 S
C670 C151 1.531 . S
C695 C192 1.532 . S
C700 C185 1.531 . S
C725 C219 1.531 1_556 S
C730 C226 1.532 . S
C755 C253 1.532 . S
C760 C260 1.531 . S
C785 C294 1.531 1_554 S
C790 C287 1.532 . S
C815 C321 1.532 . S
C820 C328 1.531 . S
C845 C355 1.532 1_556 S
C850 C362 1.531 . S
C875 C389 1.531 . S
C880 C396 1.532 . S
C905 C423 1.531 1_556 S
C910 C430 1.532 . S
C935 C464 1.532 . S
C940 C457 1.531 . S
C965 C498 1.532 1_554 S
C970 C491 1.531 . S
C995 C532 1.531 . S
C1000 C525 1.532 . S
C1025 C1 2.025 . S
C1030 C411 2.025 . S
C1055 C173 2.025 . S
C1060 C35 2.025 . S
C1085 C479 2.025 . S
C1090 C69 2.025 . S
C1115 C239 2.025 . S
C1120 C105 2.025 . S
C1145 C139 2.025 . S
C1150 C273 2.025 . S
C1175 C207 2.025 . S
C1180 C341 2.025 . S
C1205 C445 2.025 . S
C1210 C307 2.025 . S
C1235 C377 2.025 . S
C1240 C511 2.025 . S
C1265 C312 1.248 . S
C1270 C17 1.229 . S
C1295 C51 1.229 . S
C1300 C346 1.248 . S
C1325 C85 1.229 . S
C1330 C402 1.248 . S
C1355 C278 1.248 . S
C1360 C119 1.229 . S
C1385 C470 1.248 . S
C1390 C153 1.229 . S
C1415 C504 1.248 . S
C1420 C187 1.229 . S
C1445 C516 1.248 . S
C1450 C221 1.229 . S
C1475 C255 1.229 . S
C1480 C436 1.248 . S
C1505 C40 1.248 . S
C1510 C289 1.229 . S
C1535 C323 1.229 . S
C1540 C74 1.248 . S
C1565 C130 1.248 . S
C1570 C357 1.229 . S
C1595 C6 1.248 . S
C1600 C391 1.229 . S
C1625 C425 1.229 . S
C1630 C198 1.248 . S
C1655 C232 1.248 . S
C1660 C459 1.229 . S
C1685 C493 1.229 . S
C1690 C244 1.248 . S
C1715 C527 1.229 . S
C1720 C164 1.248 . S
C1745 C3 1.274 . S
C1750 C266 1.344 . S
C1775 C37 1.274 . S
C1780 C414 1.344 . S
C1805 C176 1.344 . S
C1810 C71 1.274 . S
C1835 C482 1.344 . S
C1840 C103 1.274 . S
C1865 C108 1.344 . S
C1870 C137 1.274 . S
C1895 C171 1.274 . S
C1900 C300 1.344 . S
C1925 C62 1.344 . S
C1930 C205 1.274 . S
C1955 C241 1.274 . S
C1960 C368 1.344 . S
C1985 C538 1.344 . S
C1990 C275 1.274 . S
C2015 C309 1.274 . S
C2020 C142 1.344 . S
C2045 C343 1.274 . S
C2050 C448 1.344 . S
C2075 C210 1.344 . S
C2080 C375 1.274 . S
C2105 C380 1.344 . S
C2110 C409 1.274 . S
C2135 C443 1.274 . S
C2140 C28 1.344 . S
C2165 C334 1.344 . S
C2170 C477 1.274 . S
C2195 C96 1.344 . S
C2200 C513 1.274 . S
