# Generated by pormake.
# Topology ukh, (4)-cn, num edge types: 1
# Building blocks:
#     Node 0, Type 0, BuildingBlock: UXUYUI_clean_sbu_0, # of connection points: 4
#     Node 1, Type 0, BuildingBlock: UXUYUI_clean_sbu_0, # of connection points: 4
#     Node 2, Type 0, BuildingBlock: UXUYUI_clean_sbu_0, # of connection points: 4
#     Node 3, Type 0, BuildingBlock: UXUYUI_clean_sbu_0, # of connection points: 4
#     Node 4, Type 0, BuildingBlock: UXUYUI_clean_sbu_0, # of connection points: 4
#     Node 5, Type 0, BuildingBlock: UXUYUI_clean_sbu_0, # of connection points: 4
#     Node 6, Type 0, BuildingBlock: UXUYUI_clean_sbu_0, # of connection points: 4
#     Node 7, Type 0, BuildingBlock: UXUYUI_clean_sbu_0, # of connection points: 4
#     Node 8, Type 0, BuildingBlock: UXUYUI_clean_sbu_0, # of connection points: 4
#     Node 9, Type 0, BuildingBlock: UXUYUI_clean_sbu_0, # of connection points: 4
#     Node 10, Type 0, BuildingBlock: UXUYUI_clean_sbu_0, # of connection points: 4
#     Node 11, Type 0, BuildingBlock: UXUYUI_clean_sbu_0, # of connection points: 4
#     Edge 12, Type (0, 0), BuildingBlock: AJUNOK_clean_linker_0, # of connection points: 2
#     Edge 13, Type (0, 0), BuildingBlock: AJUNOK_clean_linker_0, # of connection points: 2
#     Edge 14, Type (0, 0), BuildingBlock: AJUNOK_clean_linker_0, # of connection points: 2
#     Edge 15, Type (0, 0), BuildingBlock: AJUNOK_clean_linker_0, # of connection points: 2
#     Edge 16, Type (0, 0), BuildingBlock: AJUNOK_clean_linker_0, # of connection points: 2
#     Edge 17, Type (0, 0), BuildingBlock: AJUNOK_clean_linker_0, # of connection points: 2
#     Edge 18, Type (0, 0), BuildingBlock: AJUNOK_clean_linker_0, # of connection points: 2
#     Edge 19, Type (0, 0), BuildingBlock: AJUNOK_clean_linker_0, # of connection points: 2
#     Edge 20, Type (0, 0), BuildingBlock: AJUNOK_clean_linker_0, # of connection points: 2
#     Edge 21, Type (0, 0), BuildingBlock: AJUNOK_clean_linker_0, # of connection points: 2
#     Edge 22, Type (0, 0), BuildingBlock: AJUNOK_clean_linker_0, # of connection points: 2
#     Edge 23, Type (0, 0), BuildingBlock: AJUNOK_clean_linker_0, # of connection points: 2
#     Edge 24, Type (0, 0), BuildingBlock: AJUNOK_clean_linker_0, # of connection points: 2
#     Edge 25, Type (0, 0), BuildingBlock: AJUNOK_clean_linker_0, # of connection points: 2
#     Edge 26, Type (0, 0), BuildingBlock: AJUNOK_clean_linker_0, # of connection points: 2
#     Edge 27, Type (0, 0), BuildingBlock: AJUNOK_clean_linker_0, # of connection points: 2
#     Edge 28, Type (0, 0), BuildingBlock: AJUNOK_clean_linker_0, # of connection points: 2
#     Edge 29, Type (0, 0), BuildingBlock: AJUNOK_clean_linker_0, # of connection points: 2
#     Edge 30, Type (0, 0), BuildingBlock: AJUNOK_clean_linker_0, # of connection points: 2
#     Edge 31, Type (0, 0), BuildingBlock: AJUNOK_clean_linker_0, # of connection points: 2
#     Edge 32, Type (0, 0), BuildingBlock: AJUNOK_clean_linker_0, # of connection points: 2
#     Edge 33, Type (0, 0), BuildingBlock: AJUNOK_clean_linker_0, # of connection points: 2
#     Edge 34, Type (0, 0), BuildingBlock: AJUNOK_clean_linker_0, # of connection points: 2
#     Edge 35, Type (0, 0), BuildingBlock: AJUNOK_clean_linker_0, # of connection points: 2
# Relax obj value: 0.278
# Max RMSD: 0.251
# Mean RMSD: 0.251
data_MOF--net-ukh--node1-UXUYUI_clean_sbu_0--edge1-AJUNOK_clean_linker_0
_symmetry_space_group_name_H-M    P1
_symmetry_Int_Tables_number       1
_symmetry_cell_setting            triclinic
loop_
_symmetry_equiv_pos_as_xyz
'x, y, z'
_cell_length_a     37.925829
_cell_length_b     37.924755
_cell_length_c     73.768687
_cell_angle_alpha  89.992251
_cell_angle_beta   90.008584
_cell_angle_gamma 119.9874
loop_
_atom_site_label
_atom_site_type_symbol
_atom_site_fract_x
_atom_site_fract_y
_atom_site_fract_z
_atom_type_partial_charge
Li0 Li 0.36756 0.27082 0.0427 0.0
Li1 Li 0.33024 0.21964 0.06681 0.0
Li2 Li 0.33935 0.1977 0.03729 0.0
Li3 Li 0.29225 0.22243 0.04124 0.0
C4 C 0.40708 0.21699 0.05518 0.0
N5 N 0.45444 0.18047 0.055 0.0
C6 C 0.39981 0.18651 0.06775 0.0
C7 C 0.43868 0.22919 0.04264 0.0
C8 C 0.42403 0.16834 0.06741 0.0
C9 C 0.46222 0.21027 0.04273 0.0
C10 C 0.322 0.28175 0.07553 0.0
C11 C 0.28586 0.27933 0.10283 0.0
N12 N 0.32044 0.31136 0.10956 0.0
C13 C 0.35711 0.31479 0.08267 0.0
C14 C 0.286 0.264 0.08563 0.0
C15 C 0.35572 0.32928 0.09992 0.0
C16 C 0.39498 0.34712 0.02732 0.0
N17 N 0.40692 0.32596 0.03813 0.0
C18 C 0.46842 0.38687 0.04574 0.0
C19 C 0.44318 0.34465 0.04699 0.0
C20 C 0.45602 0.40974 0.03527 0.0
C21 C 0.41935 0.38925 0.02558 0.0
H22 H 0.36568 0.33138 0.02064 0.0
H23 H 0.4516 0.32702 0.05566 0.0
C24 C 0.29824 0.17611 0.09952 0.0
N25 N 0.3301 0.20972 0.09208 0.0
C26 C 0.29892 0.16709 0.11781 0.0
C27 C 0.36534 0.22729 0.12042 0.0
C28 C 0.36335 0.23517 0.10207 0.0
C29 C 0.33281 0.19282 0.12848 0.0
H30 H 0.27265 0.15585 0.09119 0.0
H31 H 0.38867 0.26113 0.09566 0.0
C32 C 0.34925 0.24158 0.00487 0.0
N33 N 0.38046 0.24979 0.97029 0.0
C34 C 0.32304 0.22435 0.99009 0.0
C35 C 0.39132 0.26326 0.00204 0.0
C36 C 0.33942 0.22874 0.97272 0.0
C37 C 0.4065 0.26701 0.98446 0.0
C38 C 0.24947 0.14563 0.05006 0.0
C39 C 0.23737 0.11665 0.03623 0.0
C40 C 0.22001 0.14629 0.06122 0.0
C41 C 0.196 0.08883 0.0338 0.0
C42 C 0.17894 0.11803 0.05833 0.0
N43 N 0.16788 0.09012 0.0448 0.0
C44 C 0.33252 0.1218 0.03743 0.0
C45 C 0.35425 0.15325 0.0087 0.0
C46 C 0.32629 0.08489 0.03052 0.0
N47 N 0.34484 0.15465 0.02639 0.0
C48 C 0.34828 0.11682 0.0012 0.0
C49 C 0.33281 0.08172 0.01203 0.0
H50 H 0.32467 0.12345 0.05137 0.0
H51 H 0.36431 0.1795 0.00011 0.0
C52 C 0.23131 0.24461 0.03904 0.0
N53 N 0.2434 0.21884 0.03248 0.0
C54 C 0.19714 0.24432 0.03179 0.0
C55 C 0.18823 0.19058 0.01137 0.0
C56 C 0.22288 0.19235 0.01882 0.0
C57 C 0.17524 0.217 0.0178 0.0
H58 H 0.2487 0.26599 0.04964 0.0
H59 H 0.23384 0.17308 0.01348 0.0
O60 O 0.38318 0.23456 0.05507 0.0
O61 O 0.32302 0.26642 0.05888 0.0
O62 O 0.33368 0.23782 0.02193 0.0
O63 O 0.28984 0.17347 0.05256 0.0
H64 H 0.37539 0.17658 0.07752 0.0
H65 H 0.44495 0.25296 0.03292 0.0
H66 H 0.41857 0.14451 0.07697 0.0
H67 H 0.48667 0.21929 0.03304 0.0
H68 H 0.25827 0.26572 0.11083 0.0
H69 H 0.38525 0.32884 0.07509 0.0
H70 H 0.25854 0.23849 0.08029 0.0
H71 H 0.38274 0.35469 0.10565 0.0
H72 H 0.49678 0.40161 0.05322 0.0
H73 H 0.40873 0.40587 0.01744 0.0
H74 H 0.27331 0.14016 0.12353 0.0
H75 H 0.39245 0.24732 0.12808 0.0
H76 H 0.2904 0.20767 0.99201 0.0
H77 H 0.41204 0.27693 0.01327 0.0
H78 H 0.31949 0.21542 0.96117 0.0
H79 H 0.439 0.2836 0.98209 0.0
H80 H 0.25948 0.116 0.02721 0.0
H81 H 0.22869 0.16864 0.07189 0.0
H82 H 0.18623 0.06639 0.02309 0.0
H83 H 0.15585 0.11836 0.06682 0.0
H84 H 0.31358 0.05841 0.03927 0.0
H85 H 0.35374 0.11554 0.98686 0.0
H86 H 0.18801 0.2653 0.03696 0.0
H87 H 0.17244 0.16966 0.00036 0.0
Li88 Li 0.09451 0.36951 0.37693 0.0
Li89 Li 0.10856 0.33347 0.40104 0.0
Li90 Li 0.14241 0.34327 0.37142 0.0
Li91 Li 0.07022 0.29578 0.37534 0.0
C92 C 0.18373 0.4153 0.39516 0.0
N93 N 0.25791 0.47524 0.40834 0.0
C94 C 0.20519 0.40553 0.40768 0.0
C95 C 0.19986 0.4556 0.38944 0.0
C96 C 0.24268 0.43625 0.41416 0.0
C97 C 0.23746 0.48545 0.39623 0.0
C98 C 0.03737 0.32245 0.40938 0.0
C99 C 0.00103 0.28379 0.43578 0.0
N100 N 0.005 0.31822 0.44342 0.0
C101 C 0.04083 0.35738 0.41745 0.0
C102 C 0.01707 0.28528 0.41857 0.0
C103 C 0.02434 0.35465 0.43468 0.0
C104 C 0.05055 0.39927 0.35836 0.0
N105 N 0.07863 0.40874 0.37169 0.0
C106 C 0.07218 0.46586 0.3806 0.0
C107 C 0.09047 0.44188 0.38245 0.0
C108 C 0.04159 0.45562 0.36751 0.0
C109 C 0.03198 0.42273 0.35585 0.0
H110 H 0.04133 0.37245 0.35013 0.0
H111 H 0.11242 0.44833 0.39314 0.0
C112 C 0.11638 0.29979 0.43387 0.0
N113 N 0.11707 0.33295 0.42648 0.0
C114 C 0.12531 0.29947 0.45219 0.0
C115 C 0.13541 0.36742 0.455 0.0
C116 C 0.12613 0.36637 0.43661 0.0
C117 C 0.13521 0.33368 0.46297 0.0
H118 H 0.10966 0.27387 0.42548 0.0
H119 H 0.12713 0.39259 0.43029 0.0
C120 C 0.11078 0.36158 0.34086 0.0
N121 N 0.13862 0.41108 0.31063 0.0
C122 C 0.09031 0.34813 0.32434 0.0
C123 C 0.14542 0.40017 0.34202 0.0
C124 C 0.10486 0.37362 0.3092 0.0
C125 C 0.15902 0.42474 0.32658 0.0
C126 C 0.10597 0.25407 0.38509 0.0
C127 C 0.12822 0.24287 0.37371 0.0
C128 C 0.07248 0.22396 0.39456 0.0
C129 C 0.11607 0.20172 0.3717 0.0
C130 C 0.06124 0.18313 0.39216 0.0
N131 N 0.08306 0.17293 0.38086 0.0
C132 C 0.22472 0.36079 0.36837 0.0
C133 C 0.18309 0.3306 0.3426 0.0
C134 C 0.25472 0.35362 0.36129 0.0
N135 N 0.1893 0.34832 0.35921 0.0
C136 C 0.21211 0.32248 0.3351 0.0
C137 C 0.24796 0.33286 0.34475 0.0
H138 H 0.22862 0.37356 0.38174 0.0
H139 H 0.15409 0.3194 0.3359 0.0
C140 C 0.98792 0.2349 0.37141 0.0
N141 N 0.02652 0.24677 0.36599 0.0
C142 C 0.95499 0.20081 0.36362 0.0
C143 C 0.00221 0.19156 0.34497 0.0
C144 C 0.0342 0.22616 0.35295 0.0
C145 C 0.96205 0.1788 0.35023 0.0
H146 H 0.98264 0.25248 0.38147 0.0
H147 H 0.06513 0.23705 0.34852 0.0
O148 O 0.1465 0.38596 0.38894 0.0
O149 O 0.05434 0.32476 0.39273 0.0
O150 O 0.09668 0.33695 0.35578 0.0
O151 O 0.11714 0.29424 0.38707 0.0
H152 H 0.19331 0.37447 0.41218 0.0
H153 H 0.18348 0.46376 0.37987 0.0
H154 H 0.25969 0.42907 0.42379 0.0
H155 H 0.25035 0.51675 0.39189 0.0
H156 H 0.98544 0.25525 0.44307 0.0
H157 H 0.05653 0.38641 0.41062 0.0
H158 H 0.01381 0.25787 0.41251 0.0
H159 H 0.02707 0.38152 0.44112 0.0
H160 H 0.08049 0.49093 0.38988 0.0
H161 H 0.00949 0.41447 0.34523 0.0
H162 H 0.12478 0.27285 0.45785 0.0
H163 H 0.14378 0.39475 0.46275 0.0
H164 H 0.06343 0.31831 0.32325 0.0
H165 H 0.16173 0.41099 0.35465 0.0
H166 H 0.08931 0.36363 0.29633 0.0
H167 H 0.18581 0.45467 0.32728 0.0
H168 H 0.15466 0.26562 0.36655 0.0
H169 H 0.05506 0.23199 0.4035 0.0
H170 H 0.13293 0.19267 0.36287 0.0
H171 H 0.03513 0.15954 0.39927 0.0
H172 H 0.28186 0.362 0.3692 0.0
H173 H 0.20493 0.30529 0.3226 0.0
H174 H 0.92432 0.19188 0.3679 0.0
H175 H 0.00864 0.17569 0.33443 0.0
Li176 Li 0.77604 0.11161 0.73485 0.0
Li177 Li 0.72424 0.09295 0.70968 0.0
Li178 Li 0.77441 0.06835 0.70913 0.0
Li179 Li 0.79658 0.13939 0.70499 0.0
C180 C 0.7267 0.02605 0.73889 0.0
N181 N 0.71845 0.96483 0.76184 0.0
C182 C 0.6881 0.99332 0.74281 0.0
C183 C 0.76116 0.02761 0.74658 0.0
C184 C 0.68455 0.96267 0.75446 0.0
C185 C 0.75633 0.99637 0.75817 0.0
C186 C 0.76767 0.18502 0.71781 0.0
C187 C 0.76274 0.23289 0.69798 0.0
N188 N 0.78736 0.26371 0.70935 0.0
C189 C 0.79256 0.21705 0.72941 0.0
C190 C 0.75231 0.19287 0.70206 0.0
C191 C 0.8023 0.25667 0.72485 0.0
C192 C 0.82445 0.15644 0.7636 0.0
N193 N 0.78728 0.12411 0.75973 0.0
C194 C 0.7697 0.11435 0.79115 0.0
C195 C 0.75985 0.10304 0.773 0.0
C196 C 0.80789 0.14782 0.79552 0.0
C197 C 0.83555 0.16876 0.7815 0.0
H198 H 0.84541 0.17281 0.75271 0.0
H199 H 0.7303 0.07771 0.7695 0.0
C200 C 0.65028 0.04469 0.69195 0.0
N201 N 0.669 0.07501 0.70435 0.0
C202 C 0.60829 0.02609 0.68928 0.0
C203 C 0.60581 0.07089 0.71193 0.0
C204 C 0.64791 0.08868 0.71415 0.0
C205 C 0.58542 0.0388 0.69951 0.0
H206 H 0.66783 0.03403 0.68459 0.0
H207 H 0.66357 0.11228 0.72419 0.0
C208 C 0.86037 0.12561 0.71642 0.0
N209 N 0.93993 0.14869 0.70778 0.0
C210 C 0.87182 0.12672 0.69833 0.0
C211 C 0.88934 0.13599 0.73013 0.0
C212 C 0.91221 0.13861 0.69423 0.0
C213 C 0.92941 0.14756 0.72549 0.0
C214 C 0.76053 0.09599 0.67133 0.0
C215 C 0.78321 0.08257 0.66157 0.0
C216 C 0.73927 0.11171 0.66207 0.0
C217 C 0.78508 0.0861 0.6427 0.0
C218 C 0.74189 0.11471 0.64318 0.0
N219 N 0.76461 0.10202 0.63397 0.0
C220 C 0.74408 0.99287 0.69344 0.0
C221 C 0.81296 0.02069 0.70251 0.0
C222 C 0.74412 0.95936 0.6857 0.0
N223 N 0.77829 0.02284 0.7014 0.0
C224 C 0.81453 0.98794 0.69469 0.0
C225 C 0.7799 0.95712 0.68598 0.0
H226 H 0.71704 0.99558 0.69276 0.0
H227 H 0.83958 0.0446 0.70913 0.0
C228 C 0.86722 0.21388 0.70623 0.0
N229 N 0.83923 0.18806 0.69408 0.0
C230 C 0.90489 0.24518 0.70037 0.0
C231 C 0.88377 0.22419 0.66947 0.0
C232 C 0.84621 0.19345 0.67594 0.0
C233 C 0.91416 0.2497 0.68181 0.0
H234 H 0.8614 0.20831 0.72059 0.0
H235 H 0.82406 0.17236 0.66648 0.0
O236 O 0.73063 0.05612 0.72742 0.0
O237 O 0.75835 0.14613 0.72185 0.0
O238 O 0.82121 0.1151 0.72073 0.0
O239 O 0.75814 0.09258 0.68979 0.0
H240 H 0.66117 0.99165 0.73689 0.0
H241 H 0.7913 0.05263 0.74364 0.0
H242 H 0.65485 0.93716 0.75764 0.0
H243 H 0.7827 0.99719 0.76423 0.0
H244 H 0.75126 0.23946 0.68578 0.0
H245 H 0.80449 0.21141 0.74171 0.0
H246 H 0.73263 0.1683 0.69309 0.0
H247 H 0.82178 0.28183 0.73362 0.0
H248 H 0.74754 0.09755 0.80161 0.0
H249 H 0.86555 0.19424 0.78434 0.0
H250 H 0.5937 0.00144 0.6796 0.0
H251 H 0.58919 0.08094 0.72039 0.0
H252 H 0.84986 0.11892 0.68757 0.0
H253 H 0.88097 0.13499 0.74422 0.0
H254 H 0.92152 0.13988 0.68027 0.0
H255 H 0.95214 0.15567 0.73597 0.0
H256 H 0.79908 0.06941 0.66845 0.0
H257 H 0.72086 0.12141 0.66937 0.0
H258 H 0.8027 0.07606 0.63498 0.0
H259 H 0.72578 0.12703 0.63584 0.0
H260 H 0.71691 0.93608 0.67906 0.0
H261 H 0.84247 0.98678 0.69533 0.0
H262 H 0.92742 0.26416 0.71033 0.0
H263 H 0.88988 0.22594 0.65506 0.0
Li264 Li 0.66363 0.77414 0.06748 0.0
Li265 Li 0.63166 0.7257 0.04229 0.0
Li266 Li 0.7041 0.7701 0.04189 0.0
Li267 Li 0.65934 0.79667 0.03793 0.0
C268 C 0.65345 0.69034 0.06777 0.0
N269 N 0.61238 0.61201 0.08143 0.0
C270 C 0.61927 0.67794 0.0788 0.0
C271 C 0.66686 0.66295 0.06377 0.0
C272 C 0.59891 0.63822 0.08557 0.0
C273 C 0.64563 0.62346 0.07077 0.0
C274 C 0.58548 0.77012 0.04751 0.0
C275 C 0.53913 0.76554 0.02403 0.0
N276 N 0.53253 0.79287 0.03316 0.0
C277 C 0.57813 0.79802 0.05671 0.0
C278 C 0.56578 0.75362 0.03107 0.0
C279 C 0.55129 0.80919 0.04921 0.0
C280 C 0.66122 0.82011 0.09612 0.0
N281 N 0.6644 0.78673 0.09239 0.0
C282 C 0.67082 0.77645 0.12389 0.0
C283 C 0.66965 0.76515 0.10578 0.0
C284 C 0.6674 0.81074 0.12816 0.0
C285 C 0.66254 0.83267 0.11399 0.0
H286 H 0.65817 0.83726 0.08513 0.0
H287 H 0.67318 0.73935 0.10243 0.0
C288 C 0.60539 0.64999 0.02629 0.0
N289 N 0.59244 0.67091 0.03667 0.0
C290 C 0.58175 0.60772 0.02476 0.0
C291 C 0.53111 0.60963 0.04401 0.0
C292 C 0.55563 0.65193 0.04508 0.0
C293 C 0.54475 0.58698 0.03419 0.0
H294 H 0.63517 0.66593 0.02004 0.0
H295 H 0.54645 0.66934 0.05347 0.0
C296 C 0.74187 0.83906 0.06406 0.0
N297 N 0.81069 0.87949 0.08538 0.0
C298 C 0.76404 0.88158 0.06425 0.0
C299 C 0.7547 0.81708 0.07473 0.0
C300 C 0.79877 0.90147 0.07511 0.0
C301 C 0.78956 0.83809 0.08542 0.0
C302 C 0.68636 0.77738 0.00636 0.0
C303 C 0.71875 0.81746 0.00718 0.0
C304 C 0.67592 0.75688 0.98977 0.0
C305 C 0.74004 0.83638 0.99136 0.0
C306 C 0.69798 0.77685 0.97424 0.0
N307 N 0.72931 0.81586 0.97535 0.0
C308 C 0.74993 0.73763 0.02799 0.0
C309 C 0.78881 0.80899 0.03254 0.0
C310 C 0.78353 0.73725 0.02053 0.0
N311 N 0.75322 0.77305 0.03395 0.0
C312 C 0.82313 0.81006 0.02504 0.0
C313 C 0.82066 0.77383 0.01897 0.0
H314 H 0.72081 0.70987 0.02855 0.0
H315 H 0.79038 0.83702 0.03673 0.0
C316 C 0.66906 0.87378 0.0375 0.0
N317 N 0.65587 0.84031 0.02683 0.0
C318 C 0.67567 0.91045 0.03015 0.0
C319 C 0.65271 0.87698 0.00114 0.0
C320 C 0.64623 0.84074 0.00911 0.0
C321 C 0.6687 0.91267 0.01162 0.0
H322 H 0.67651 0.87248 0.05154 0.0
H323 H 0.63567 0.81364 0.00093 0.0
O324 O 0.67292 0.72873 0.06053 0.0
O325 O 0.61257 0.7597 0.05429 0.0
O326 O 0.70762 0.81941 0.05357 0.0
O327 O 0.66502 0.75787 0.02163 0.0
H328 H 0.60813 0.69858 0.08183 0.0
H329 H 0.69331 0.67198 0.05533 0.0
H330 H 0.57223 0.62813 0.094 0.0
H331 H 0.65557 0.60189 0.06772 0.0
H332 H 0.52383 0.75319 0.01128 0.0
H333 H 0.59316 0.81109 0.06943 0.0
H334 H 0.57141 0.73222 0.02372 0.0
H335 H 0.54544 0.83088 0.05614 0.0
H336 H 0.67401 0.75835 0.13442 0.0
H337 H 0.66028 0.85955 0.1167 0.0
H338 H 0.59328 0.59123 0.01712 0.0
H339 H 0.50248 0.59464 0.05128 0.0
H340 H 0.75454 0.89905 0.05607 0.0
H341 H 0.73808 0.7842 0.0748 0.0
H342 H 0.81623 0.93437 0.07537 0.0
H343 H 0.79981 0.82147 0.09374 0.0
H344 H 0.72734 0.83395 0.01985 0.0
H345 H 0.65101 0.7258 0.98891 0.0
H346 H 0.7651 0.8674 0.99181 0.0
H347 H 0.6902 0.76133 0.96131 0.0
H348 H 0.78022 0.70888 0.01555 0.0
H349 H 0.85123 0.83889 0.02388 0.0
H350 H 0.68871 0.93738 0.03862 0.0
H351 H 0.64703 0.87757 0.98678 0.0
Li352 Li 0.90414 0.63431 0.37724 0.0
Li353 Li 0.88874 0.66707 0.40243 0.0
Li354 Li 0.86031 0.66124 0.37299 0.0
Li355 Li 0.93196 0.70658 0.37597 0.0
C356 C 0.81311 0.58874 0.38413 0.0
N357 N 0.73507 0.53639 0.37204 0.0
C358 C 0.77966 0.58438 0.39394 0.0
C359 C 0.80695 0.56636 0.36823 0.0
C360 C 0.74041 0.55779 0.38758 0.0
C361 C 0.76723 0.54006 0.36233 0.0
C362 C 0.96679 0.66032 0.39982 0.0
C363 C 0.02884 0.65762 0.39752 0.0
N364 N 0.01292 0.62503 0.40889 0.0
C365 C 0.95115 0.62697 0.41158 0.0
C366 C 0.00605 0.67597 0.39282 0.0
C367 C 0.97492 0.60952 0.41598 0.0
C368 C 0.95005 0.60573 0.35948 0.0
N369 N 0.91905 0.59457 0.37147 0.0
C370 C 0.92068 0.5342 0.37912 0.0
C371 C 0.90348 0.55913 0.38091 0.0
C372 C 0.95377 0.54563 0.36729 0.0
C373 C 0.96789 0.58155 0.35714 0.0
H374 H 0.96216 0.63442 0.35237 0.0
H375 H 0.87938 0.55152 0.39064 0.0
C376 C 0.84369 0.67099 0.43103 0.0
N377 N 0.87759 0.66867 0.42739 0.0
C378 C 0.83279 0.67291 0.4489 0.0
C379 C 0.89197 0.67007 0.45899 0.0
C380 C 0.90199 0.66866 0.44088 0.0
C381 C 0.85701 0.67239 0.46317 0.0
H382 H 0.82529 0.67166 0.41998 0.0
H383 H 0.92924 0.66767 0.43763 0.0
C384 C 0.90415 0.68653 0.34094 0.0
N385 N 0.90567 0.72745 0.30968 0.0
C386 C 0.89824 0.72007 0.34183 0.0
C387 C 0.91095 0.67393 0.32415 0.0
C388 C 0.89908 0.74031 0.32587 0.0
C389 C 0.91158 0.69498 0.3085 0.0
C390 C 0.90095 0.74513 0.3981 0.0
C391 C 0.88202 0.76858 0.39683 0.0
C392 C 0.93408 0.75728 0.4098 0.0
C393 C 0.89667 0.80395 0.40723 0.0
C394 C 0.94777 0.79281 0.41999 0.0
N395 N 0.92896 0.81522 0.4185 0.0
C396 C 0.79331 0.67188 0.37246 0.0
C397 C 0.80203 0.6463 0.34451 0.0
C398 C 0.76348 0.67859 0.36492 0.0
N399 N 0.81279 0.65729 0.36208 0.0
C400 C 0.77255 0.65292 0.33634 0.0
C401 C 0.75378 0.67038 0.34648 0.0
H402 H 0.80261 0.68043 0.38638 0.0
H403 H 0.81793 0.63465 0.33656 0.0
C404 C 0.00364 0.74829 0.35663 0.0
N405 N 0.97751 0.75486 0.36674 0.0
C406 C 0.03617 0.78048 0.34767 0.0
C407 C 0.01429 0.82581 0.35956 0.0
C408 C 0.98206 0.79267 0.36825 0.0
C409 C 0.04156 0.81978 0.34894 0.0
H410 H 0.99846 0.71769 0.35514 0.0
H411 H 0.96029 0.79722 0.37577 0.0
O412 O 0.85177 0.61548 0.38979 0.0
O413 O 0.94348 0.67704 0.39494 0.0
O414 O 0.90377 0.66616 0.35633 0.0
O415 O 0.88643 0.71018 0.38813 0.0
H416 H 0.78396 0.60158 0.40625 0.0
H417 H 0.83261 0.56964 0.36043 0.0
H418 H 0.71421 0.55424 0.39498 0.0
H419 H 0.76197 0.52269 0.35 0.0
H420 H 0.05918 0.66927 0.39211 0.0
H421 H 0.92057 0.61405 0.4169 0.0
H422 H 0.01879 0.70192 0.38382 0.0
H423 H 0.96303 0.58344 0.42491 0.0
H424 H 0.9095 0.50738 0.38757 0.0
H425 H 0.99322 0.5914 0.34785 0.0
H426 H 0.80584 0.67509 0.45151 0.0
H427 H 0.9111 0.66885 0.46958 0.0
H428 H 0.89298 0.73042 0.35465 0.0
H429 H 0.91572 0.64811 0.32325 0.0
H430 H 0.89449 0.76624 0.32637 0.0
H431 H 0.91678 0.68552 0.29542 0.0
H432 H 0.85631 0.75956 0.38786 0.0
H433 H 0.94916 0.73961 0.41103 0.0
H434 H 0.88235 0.82242 0.40635 0.0
H435 H 0.97337 0.80257 0.42909 0.0
H436 H 0.75027 0.69275 0.37311 0.0
H437 H 0.76586 0.64627 0.32207 0.0
H438 H 0.05629 0.77454 0.33944 0.0
H439 H 0.0177 0.85577 0.36104 0.0
Li440 Li 0.27069 0.9016 0.71119 0.0
Li441 Li 0.22498 0.88844 0.73546 0.0
Li442 Li 0.19956 0.86325 0.7049 0.0
Li443 Li 0.23234 0.93793 0.71095 0.0
C444 C 0.25046 0.82619 0.72203 0.0
N445 N 0.29187 0.78359 0.72354 0.0
C446 C 0.26381 0.81964 0.73869 0.0
C447 C 0.25769 0.81068 0.70617 0.0
C448 C 0.28479 0.7981 0.73916 0.0
C449 C 0.27886 0.78937 0.70721 0.0
C450 C 0.31142 0.96118 0.73538 0.0
C451 C 0.38117 0.01505 0.73236 0.0
N452 N 0.39171 0.99919 0.7465 0.0
C453 C 0.32291 0.94549 0.74992 0.0
C454 C 0.3407 0.99636 0.72658 0.0
C455 C 0.36366 0.96516 0.75534 0.0
C456 C 0.34181 0.93714 0.69029 0.0
N457 N 0.32476 0.91321 0.70511 0.0
C458 C 0.3894 0.92228 0.71408 0.0
C459 C 0.3475 0.90479 0.7167 0.0
C460 C 0.40813 0.94902 0.6995 0.0
C461 C 0.38364 0.95534 0.68717 0.0
H462 H 0.32332 0.94407 0.68146 0.0
H463 H 0.33388 0.88706 0.72875 0.0
C464 C 0.18813 0.83551 0.76468 0.0
N465 N 0.21227 0.87541 0.76031 0.0
C466 C 0.17682 0.82405 0.78266 0.0
C467 C 0.21547 0.895 0.79129 0.0
C468 C 0.22581 0.90513 0.7731 0.0
C469 C 0.19081 0.85397 0.79621 0.0
H470 H 0.17754 0.81263 0.75415 0.0
H471 H 0.24443 0.93667 0.76915 0.0
C472 C 0.22878 0.8996 0.67344 0.0
N473 N 0.19887 0.87687 0.63868 0.0
C474 C 0.20527 0.91454 0.66563 0.0
C475 C 0.23746 0.87348 0.66353 0.0
C476 C 0.19032 0.90259 0.64805 0.0
C477 C 0.22196 0.86224 0.64598 0.0
C478 C 0.15282 0.88292 0.73419 0.0
C479 C 0.12141 0.84265 0.73613 0.0
C480 C 0.1554 0.91271 0.74615 0.0
C481 C 0.09303 0.83283 0.75005 0.0
C482 C 0.12645 0.90165 0.75991 0.0
N483 N 0.09614 0.86227 0.76156 0.0
C484 C 0.14587 0.78359 0.68933 0.0
C485 C 0.1277 0.83481 0.68674 0.0
C486 C 0.10917 0.7551 0.68113 0.0
N487 N 0.15416 0.8225 0.69198 0.0
C488 C 0.091 0.80761 0.67855 0.0
C489 C 0.0811 0.76708 0.67578 0.0
H490 H 0.16726 0.77449 0.69388 0.0
H491 H 0.13478 0.86572 0.68937 0.0
C492 C 0.26372 0.01329 0.6938 0.0
N493 N 0.23154 0.98524 0.70359 0.0
C494 C 0.26264 0.04626 0.686 0.0
C495 C 0.19523 0.02076 0.69849 0.0
C496 C 0.19765 0.98829 0.70608 0.0
C497 C 0.22794 0.0501 0.68819 0.0
H498 H 0.28963 0.00924 0.69151 0.0
H499 H 0.17192 0.96473 0.71336 0.0
O500 O 0.22957 0.84688 0.72132 0.0
O501 O 0.27178 0.94194 0.72968 0.0
O502 O 0.24301 0.91024 0.69076 0.0
O503 O 0.18168 0.89289 0.72104 0.0
H504 H 0.25842 0.83143 0.75109 0.0
H505 H 0.24713 0.8151 0.69322 0.0
H506 H 0.29554 0.79301 0.75193 0.0
H507 H 0.28487 0.77736 0.69503 0.0
H508 H 0.4042 0.04212 0.7256 0.0
H509 H 0.30077 0.918 0.75675 0.0
H510 H 0.33238 0.00887 0.71529 0.0
H511 H 0.37304 0.95319 0.76649 0.0
H512 H 0.40731 0.91695 0.72398 0.0
H513 H 0.3969 0.97532 0.67561 0.0
H514 H 0.15774 0.79212 0.78597 0.0
H515 H 0.22621 0.91895 0.80136 0.0
H516 H 0.1982 0.93474 0.67313 0.0
H517 H 0.25598 0.86201 0.66933 0.0
H518 H 0.17183 0.91367 0.64188 0.0
H519 H 0.22829 0.84191 0.63817 0.0
H520 H 0.11926 0.81913 0.72713 0.0
H521 H 0.17989 0.94391 0.74498 0.0
H522 H 0.06866 0.80176 0.75177 0.0
H523 H 0.1282 0.92432 0.76933 0.0
H524 H 0.10275 0.72418 0.67907 0.0
H525 H 0.07003 0.81796 0.67484 0.0
H526 H 0.28839 0.06816 0.67809 0.0
H527 H 0.16751 0.02204 0.70008 0.0
Li528 Li 0.77014 0.70363 0.62457 0.0
Li529 Li 0.79517 0.65719 0.62763 0.0
Li530 Li 0.77117 0.66408 0.59882 0.0
Li531 Li 0.72296 0.63055 0.62405 0.0
C532 C 0.83797 0.74085 0.60227 0.0
N533 N 0.879 0.81031 0.58141 0.0
C534 C 0.88038 0.76088 0.60101 0.0
C535 C 0.81638 0.75609 0.59289 0.0
C536 C 0.90058 0.79597 0.5904 0.0
C537 C 0.8377 0.79126 0.58243 0.0
C538 C 0.77498 0.68313 0.66028 0.0
C539 C 0.76977 0.69406 0.69213 0.0
N540 N 0.8095 0.72402 0.69219 0.0
C541 C 0.81572 0.71411 0.66064 0.0
C542 C 0.75175 0.67307 0.67611 0.0
C543 C 0.83264 0.73438 0.67692 0.0
C544 C 0.73989 0.75369 0.63587 0.0
N545 N 0.775 0.75324 0.63289 0.0
C546 C 0.81432 0.82016 0.64519 0.0
C547 C 0.81187 0.7857 0.63715 0.0
C548 C 0.77851 0.82141 0.64861 0.0
C549 C 0.74095 0.78773 0.64366 0.0
H550 H 0.71101 0.72717 0.63256 0.0
H551 H 0.83932 0.78435 0.63487 0.0
C552 C 0.8682 0.6595 0.62463 0.0
N553 N 0.8393 0.65227 0.63726 0.0
C554 C 0.90691 0.66796 0.62992 0.0
C555 C 0.88483 0.65898 0.66114 0.0
C556 C 0.84604 0.6496 0.65519 0.0
C557 C 0.91636 0.67005 0.64843 0.0
H558 H 0.86198 0.6615 0.61048 0.0
H559 H 0.82247 0.64349 0.66498 0.0
C560 C 0.69274 0.6561 0.59585 0.0
N561 N 0.62416 0.62054 0.57417 0.0
C562 C 0.68232 0.62023 0.5864 0.0
C563 C 0.66826 0.67383 0.5943 0.0
C564 C 0.64754 0.60274 0.57551 0.0
C565 C 0.63373 0.65542 0.58325 0.0
C566 C 0.76398 0.58227 0.61733 0.0
C567 C 0.78728 0.57047 0.60705 0.0
C568 C 0.74896 0.5643 0.63422 0.0
C569 C 0.79538 0.54091 0.61392 0.0
C570 C 0.75774 0.53485 0.64061 0.0
N571 N 0.78059 0.52388 0.63041 0.0
C572 C 0.81363 0.65865 0.56964 0.0
C573 C 0.76433 0.67613 0.56055 0.0
C574 C 0.82655 0.66085 0.55178 0.0
N575 N 0.7829 0.66595 0.57366 0.0
C576 C 0.77594 0.67813 0.54243 0.0
C577 C 0.80757 0.67064 0.53795 0.0
H578 H 0.82844 0.6516 0.5804 0.0
H579 H 0.74096 0.68324 0.56412 0.0
C580 C 0.64822 0.60579 0.64046 0.0
N581 N 0.66809 0.59222 0.62973 0.0
C582 C 0.60606 0.58261 0.64258 0.0
C583 C 0.60575 0.5315 0.62287 0.0
C584 C 0.64802 0.55556 0.62123 0.0
C585 C 0.58424 0.54531 0.63344 0.0
H586 H 0.66495 0.63557 0.64665 0.0
H587 H 0.66456 0.54598 0.61248 0.0
O588 O 0.81795 0.70625 0.61249 0.0
O589 O 0.75741 0.6633 0.64445 0.0
O590 O 0.72597 0.6732 0.60703 0.0
O591 O 0.75653 0.61187 0.61111 0.0
H592 H 0.89749 0.74937 0.60816 0.0
H593 H 0.78356 0.74101 0.59365 0.0
H594 H 0.93341 0.8118 0.58931 0.0
H595 H 0.8214 0.80339 0.5751 0.0
H596 H 0.75215 0.68657 0.7045 0.0
H597 H 0.83417 0.72231 0.64851 0.0
H598 H 0.72008 0.64932 0.67601 0.0
H599 H 0.86416 0.75835 0.67739 0.0
H600 H 0.84382 0.84495 0.64922 0.0
H601 H 0.71265 0.7875 0.646 0.0
H602 H 0.93005 0.67568 0.61965 0.0
H603 H 0.89072 0.66075 0.67556 0.0
H604 H 0.70079 0.60596 0.58749 0.0
H605 H 0.6758 0.70148 0.6016 0.0
H606 H 0.63909 0.57497 0.56814 0.0
H607 H 0.61449 0.66881 0.58193 0.0
H608 H 0.79909 0.58406 0.59395 0.0
H609 H 0.73109 0.57333 0.64238 0.0
H610 H 0.81348 0.53154 0.60614 0.0
H611 H 0.74647 0.5208 0.65369 0.0
H612 H 0.85094 0.65472 0.54878 0.0
H613 H 0.76095 0.68615 0.53206 0.0
H614 H 0.59048 0.59467 0.65054 0.0
H615 H 0.5899 0.50294 0.61558 0.0
Li616 Li 0.14209 0.79731 0.96178 0.0
Li617 Li 0.07032 0.77309 0.95871 0.0
Li618 Li 0.09616 0.72428 0.95784 0.0
Li619 Li 0.11091 0.77443 0.93238 0.0
C620 C 0.09663 0.77707 0.99435 0.0
N621 N 0.0926 0.81259 0.02641 0.0
C622 C 0.10536 0.81751 0.99455 0.0
C623 C 0.0858 0.75469 0.01046 0.0
C624 C 0.10319 0.83493 0.01089 0.0
C625 C 0.08395 0.77319 0.02653 0.0
C626 C 0.10694 0.8488 0.94076 0.0
C627 C 0.07037 0.86945 0.9207 0.0
N628 N 0.08866 0.90677 0.92868 0.0
C629 C 0.12565 0.88746 0.94868 0.0
C630 C 0.0793 0.83977 0.92658 0.0
C631 C 0.11589 0.91631 0.94242 0.0
C632 C 0.21242 0.87093 0.95925 0.0
N633 N 0.19109 0.84112 0.97157 0.0
C634 C 0.23111 0.88465 0.99578 0.0
C635 C 0.20096 0.84653 0.98948 0.0
C636 C 0.25164 0.91694 0.98343 0.0
C637 C 0.24323 0.90905 0.96487 0.0
H638 H 0.20368 0.86586 0.94512 0.0
H639 H 0.18356 0.82234 0.99903 0.0
C640 C 0.99011 0.74033 0.96977 0.0
N641 N 0.02474 0.77653 0.96711 0.0
C642 C 0.95611 0.73911 0.97767 0.0
C643 C 0.99389 0.81253 0.97982 0.0
C644 C 0.02712 0.81235 0.97177 0.0
C645 C 0.95807 0.7755 0.98316 0.0
H646 H 0.98924 0.7123 0.96608 0.0
H647 H 0.05514 0.84071 0.96986 0.0
C648 C 0.18781 0.77123 0.94783 0.0
N649 N 0.26887 0.79842 0.95491 0.0
C650 C 0.21768 0.79705 0.93557 0.0
C651 C 0.19902 0.75897 0.96362 0.0
C652 C 0.25855 0.81053 0.93941 0.0
C653 C 0.24022 0.77313 0.96698 0.0
C654 C 0.02839 0.70918 0.92841 0.0
C655 C 0.02344 0.67316 0.92088 0.0
C656 C 0.00271 0.72379 0.92302 0.0
C657 C 0.99334 0.65276 0.90779 0.0
C658 C 0.97296 0.7025 0.90989 0.0
N659 N 0.96896 0.66775 0.90259 0.0
C660 C 0.05254 0.65164 0.97708 0.0
C661 C 0.08872 0.64681 0.95189 0.0
C662 C 0.03322 0.60961 0.9798 0.0
N663 N 0.07914 0.66915 0.96315 0.0
C664 C 0.06978 0.60457 0.95401 0.0
C665 C 0.04077 0.58534 0.96782 0.0
H666 H 0.04511 0.67015 0.98565 0.0
H667 H 0.10948 0.66154 0.94073 0.0
C668 C 0.14798 0.82514 0.90302 0.0
N669 N 0.12146 0.78561 0.90722 0.0
C670 C 0.15934 0.83678 0.88508 0.0
C671 C 0.11641 0.76666 0.87601 0.0
C672 C 0.1057 0.75637 0.89419 0.0
C673 C 0.14389 0.80729 0.87133 0.0
H674 H 0.16068 0.84767 0.91367 0.0
H675 H 0.08549 0.72502 0.89788 0.0
O676 O 0.09796 0.75912 0.97847 0.0
O677 O 0.11623 0.82028 0.94675 0.0
O678 O 0.14777 0.7585 0.94454 0.0
O679 O 0.05746 0.72933 0.94137 0.0
H680 H 0.11397 0.83535 0.98226 0.0
H681 H 0.07888 0.72333 0.01054 0.0
H682 H 0.10994 0.86621 0.01122 0.0
H683 H 0.0756 0.75622 0.0391 0.0
H684 H 0.049 0.86286 0.90974 0.0
H685 H 0.14731 0.89503 0.95961 0.0
H686 H 0.06525 0.81034 0.92006 0.0
H687 H 0.12998 0.94628 0.94848 0.0
H688 H 0.23607 0.88945 0.01023 0.0
H689 H 0.2586 0.93287 0.95487 0.0
H690 H 0.92874 0.70998 0.97964 0.0
H691 H 0.99664 0.84121 0.98393 0.0
H692 H 0.20939 0.80683 0.9233 0.0
H693 H 0.17614 0.73906 0.97325 0.0
H694 H 0.28206 0.8307 0.9301 0.0
H695 H 0.24941 0.76409 0.97919 0.0
H696 H 0.04287 0.66129 0.92498 0.0
H697 H 0.00541 0.75105 0.92901 0.0
H698 H 0.98936 0.625 0.90176 0.0
H699 H 0.95295 0.71352 0.90555 0.0
H700 H 0.01184 0.59617 0.99088 0.0
H701 H 0.07638 0.58696 0.94446 0.0
H702 H 0.18002 0.86854 0.88202 0.0
H703 H 0.10407 0.74301 0.86579 0.0
Li704 Li 0.29498 0.0665 0.28949 0.0
Li705 Li 0.34061 0.13907 0.29576 0.0
Li706 Li 0.33587 0.11126 0.26433 0.0
Li707 Li 0.37089 0.09628 0.28848 0.0
C708 C 0.25387 0.10237 0.27482 0.0
N709 N 0.17419 0.07917 0.26631 0.0
C710 C 0.23228 0.1158 0.28539 0.0
C711 C 0.23512 0.07773 0.25974 0.0
C712 C 0.19197 0.10356 0.28092 0.0
C713 C 0.19478 0.06618 0.2557 0.0
C714 C 0.34448 0.1017 0.32713 0.0
C715 C 0.39365 0.13681 0.35079 0.0
N716 N 0.36299 0.1226 0.36317 0.0
C717 C 0.31349 0.08704 0.34011 0.0
C718 C 0.38491 0.12646 0.33251 0.0
C719 C 0.32345 0.09813 0.35825 0.0
C720 C 0.23905 0.98268 0.29434 0.0
N721 N 0.24571 0.0209 0.29733 0.0
C722 C 0.18471 0.99482 0.3148 0.0
C723 C 0.2196 0.02753 0.30742 0.0
C724 C 0.17704 0.95502 0.31195 0.0
C725 C 0.20461 0.94905 0.30155 0.0
H726 H 0.26101 0.97838 0.28677 0.0
H727 H 0.22661 0.05829 0.31028 0.0
C728 C 0.36474 0.22202 0.30315 0.0
N729 N 0.34122 0.18275 0.30864 0.0
C730 C 0.35781 0.25241 0.31008 0.0
C731 C 0.3037 0.20145 0.32857 0.0
C732 C 0.31167 0.17222 0.32133 0.0
C733 C 0.32605 0.24193 0.32255 0.0
H734 H 0.38735 0.22939 0.29268 0.0
H735 H 0.29224 0.14058 0.32485 0.0
C736 C 0.32136 0.03316 0.25661 0.0
N737 N 0.30702 0.98412 0.22661 0.0
C738 C 0.3533 0.03057 0.24851 0.0
C739 C 0.28197 0.01016 0.24965 0.0
C740 C 0.34549 0.0058 0.2333 0.0
C741 C 0.27537 0.98573 0.23442 0.0
C742 C 0.42635 0.17482 0.27748 0.0
C743 C 0.44721 0.17769 0.26144 0.0
C744 C 0.44788 0.19746 0.29263 0.0
C745 C 0.48953 0.20246 0.26096 0.0
C746 C 0.49017 0.2219 0.29161 0.0
N747 N 0.50996 0.22383 0.27594 0.0
C748 C 0.3173 0.14598 0.23506 0.0
C749 C 0.35672 0.11598 0.22665 0.0
C750 C 0.317 0.15793 0.2172 0.0
N751 N 0.33648 0.12494 0.2394 0.0
C752 C 0.35731 0.12748 0.2086 0.0
C753 C 0.33737 0.14888 0.20373 0.0
H754 H 0.30234 0.15371 0.24549 0.0
H755 H 0.37303 0.1006 0.23051 0.0
C756 C 0.40507 0.0578 0.3084 0.0
N757 N 0.41128 0.08139 0.29351 0.0
C758 C 0.42868 0.0395 0.3113 0.0
C759 C 0.4653 0.07062 0.28369 0.0
C760 C 0.44112 0.08854 0.28137 0.0
C761 C 0.45844 0.04482 0.29856 0.0
H762 H 0.38054 0.05168 0.31763 0.0
H763 H 0.44464 0.10614 0.26932 0.0
O764 O 0.29333 0.11383 0.27906 0.0
O765 O 0.33527 0.09122 0.3093 0.0
O766 O 0.32845 0.05715 0.27157 0.0
O767 O 0.38493 0.1509 0.27816 0.0
H768 H 0.24637 0.13526 0.29698 0.0
H769 H 0.25169 0.06806 0.25111 0.0
H770 H 0.17484 0.11349 0.28907 0.0
H771 H 0.1799 0.04703 0.24409 0.0
H772 H 0.42482 0.15603 0.35514 0.0
H773 H 0.28206 0.06752 0.33618 0.0
H774 H 0.40931 0.13721 0.32271 0.0
H775 H 0.29975 0.08724 0.36842 0.0
H776 H 0.16474 0.00067 0.32318 0.0
H777 H 0.19981 0.91876 0.29922 0.0
H778 H 0.37603 0.28337 0.30525 0.0
H779 H 0.27854 0.19192 0.33793 0.0
H780 H 0.3839 0.04783 0.25378 0.0
H781 H 0.25664 0.01075 0.25603 0.0
H782 H 0.37003 0.00383 0.22681 0.0
H783 H 0.24505 0.96789 0.22886 0.0
H784 H 0.43093 0.16068 0.24953 0.0
H785 H 0.43208 0.19646 0.30499 0.0
H786 H 0.50611 0.2047 0.24868 0.0
H787 H 0.50725 0.23947 0.30326 0.0
H788 H 0.30075 0.17384 0.21397 0.0
H789 H 0.37371 0.1203 0.19861 0.0
H790 H 0.42291 0.02047 0.32313 0.0
H791 H 0.48774 0.07525 0.27348 0.0
Li792 Li 0.22016 0.29319 0.62505 0.0
Li793 Li 0.19543 0.3403 0.62831 0.0
Li794 Li 0.21667 0.33243 0.59897 0.0
Li795 Li 0.26835 0.36994 0.62368 0.0
C796 C 0.14669 0.2516 0.60783 0.0
N797 N 0.09575 0.17265 0.59636 0.0
C798 C 0.10946 0.22732 0.61653 0.0
C799 C 0.15791 0.23582 0.59325 0.0
C800 C 0.08417 0.18745 0.61055 0.0
C801 C 0.13177 0.19582 0.58766 0.0
C802 C 0.22797 0.33981 0.66172 0.0
C803 C 0.2447 0.38043 0.68888 0.0
N804 N 0.21323 0.34872 0.69761 0.0
C805 C 0.19595 0.30754 0.67097 0.0
C806 C 0.25269 0.37652 0.67072 0.0
C807 C 0.18892 0.31269 0.68911 0.0
C808 C 0.25136 0.24147 0.63256 0.0
N809 N 0.21746 0.24492 0.6338 0.0
C810 C 0.18343 0.18367 0.65117 0.0
C811 C 0.18371 0.21676 0.64275 0.0
C812 C 0.21835 0.17984 0.65048 0.0
C813 C 0.25237 0.20878 0.64073 0.0
H814 H 0.27809 0.26483 0.62571 0.0
H815 H 0.15747 0.22065 0.64385 0.0
C816 C 0.11705 0.3259 0.62873 0.0
N817 N 0.15129 0.34411 0.63907 0.0
C818 C 0.08007 0.31948 0.63554 0.0
C819 C 0.11446 0.35315 0.66322 0.0
C820 C 0.15106 0.35938 0.65574 0.0
C821 C 0.07822 0.332 0.65322 0.0
H822 H 0.11811 0.31468 0.61539 0.0
H823 H 0.17875 0.37495 0.66355 0.0
C824 C 0.28516 0.32194 0.59331 0.0
N825 N 0.33006 0.3149 0.5655 0.0
C826 C 0.3192 0.35657 0.58644 0.0
C827 C 0.27433 0.28366 0.58623 0.0
C828 C 0.34141 0.3524 0.57233 0.0
C829 C 0.29731 0.28076 0.57211 0.0
C830 C 0.21721 0.41059 0.61503 0.0
C831 C 0.18556 0.40921 0.60478 0.0
C832 C 0.23291 0.43709 0.62979 0.0
C833 C 0.16984 0.43428 0.60959 0.0
C834 C 0.21638 0.46168 0.63415 0.0
N835 N 0.18543 0.45975 0.62406 0.0
C836 C 0.16429 0.31487 0.56955 0.0
C837 C 0.23386 0.35036 0.56107 0.0
C838 C 0.15238 0.31506 0.55169 0.0
N839 N 0.20439 0.33197 0.57388 0.0
C840 C 0.2233 0.35137 0.543 0.0
C841 C 0.18209 0.33382 0.53817 0.0
H842 H 0.14146 0.30144 0.58005 0.0
H843 H 0.26552 0.36505 0.56489 0.0
C844 C 0.34332 0.3968 0.6401 0.0
N845 N 0.32331 0.40892 0.62867 0.0
C846 C 0.38535 0.42076 0.64241 0.0
C847 C 0.38529 0.46964 0.62137 0.0
C848 C 0.34311 0.44483 0.61957 0.0
C849 C 0.40694 0.45735 0.63273 0.0
H850 H 0.32677 0.36766 0.64686 0.0
H851 H 0.32643 0.45327 0.61032 0.0
O852 O 0.17192 0.2906 0.61365 0.0
O853 O 0.23564 0.33533 0.64404 0.0
O854 O 0.26331 0.32541 0.60726 0.0
O855 O 0.23208 0.38537 0.61093 0.0
H856 H 0.10037 0.23906 0.62788 0.0
H857 H 0.18634 0.25435 0.58625 0.0
H858 H 0.05534 0.16825 0.6172 0.0
H859 H 0.14008 0.18323 0.57638 0.0
H860 H 0.26349 0.40868 0.69602 0.0
H861 H 0.1765 0.27901 0.66417 0.0
H862 H 0.27769 0.40172 0.66374 0.0
H863 H 0.16409 0.28808 0.69642 0.0
H864 H 0.15644 0.16164 0.65837 0.0
H865 H 0.27993 0.20694 0.64001 0.0
H866 H 0.05278 0.3026 0.62747 0.0
H867 H 0.11418 0.36344 0.67689 0.0
H868 H 0.32814 0.3864 0.5918 0.0
H869 H 0.24869 0.25641 0.59166 0.0
H870 H 0.36764 0.37898 0.5668 0.0
H871 H 0.28919 0.25133 0.56647 0.0
H872 H 0.173 0.38865 0.59337 0.0
H873 H 0.25731 0.4383 0.63788 0.0
H874 H 0.14517 0.43339 0.60186 0.0
H875 H 0.22804 0.4822 0.6456 0.0
H876 H 0.12026 0.30061 0.54849 0.0
H877 H 0.24711 0.36646 0.53297 0.0
H878 H 0.40103 0.40983 0.651 0.0
H879 H 0.40098 0.49763 0.61365 0.0
Li880 Li 0.85755 0.19881 0.96115 0.0
Li881 Li 0.92964 0.22641 0.95748 0.0
Li882 Li 0.9011 0.27017 0.95814 0.0
Li883 Li 0.88557 0.22532 0.93184 0.0
C884 C 0.90228 0.21424 0.99279 0.0
N885 N 0.90511 0.17148 0.02257 0.0
C886 C 0.89774 0.17553 0.99061 0.0
C887 C 0.90839 0.2312 0.01012 0.0
C888 C 0.89924 0.15442 0.00583 0.0
C889 C 0.90967 0.20909 0.025 0.0
C890 C 0.89698 0.15848 0.93368 0.0
C891 C 0.94193 0.15841 0.91057 0.0
N892 N 0.92166 0.11701 0.91095 0.0
C893 C 0.87651 0.11595 0.9338 0.0
C894 C 0.92992 0.17995 0.92194 0.0
C895 C 0.88951 0.09554 0.92223 0.0
C896 C 0.78875 0.12358 0.95851 0.0
N897 N 0.80993 0.15323 0.97091 0.0
C898 C 0.77058 0.10895 0.99504 0.0
C899 C 0.80039 0.14729 0.98884 0.0
C900 C 0.75005 0.07689 0.9826 0.0
C901 C 0.75837 0.08514 0.96405 0.0
H902 H 0.79701 0.12922 0.94434 0.0
H903 H 0.81754 0.17141 0.99846 0.0
C904 C 1.00035 0.25345 0.97724 0.0
N905 N 0.97575 0.2232 0.96565 0.0
C906 C 0.03283 0.25273 0.98575 0.0
C907 C 0.01461 0.19 0.97004 0.0
C908 C 0.98213 0.19166 0.962 0.0
C909 C 0.04006 0.22049 0.98233 0.0
H910 H 0.9939 0.27755 0.98029 0.0
H911 H 0.96165 0.16719 0.95325 0.0
C912 C 0.81128 0.228 0.95287 0.0
N913 N 0.7364 0.20687 0.96768 0.0
C914 C 0.77565 0.20349 0.94311 0.0
C915 C 0.8089 0.2419 0.97012 0.0
C916 C 0.73806 0.19311 0.95085 0.0
C917 C 0.77074 0.23085 0.97738 0.0
C918 C 0.96293 0.30959 0.9353 0.0
C919 C 0.94779 0.327 0.92311 0.0
C920 C 0.00096 0.33386 0.94336 0.0
C921 C 0.97081 0.3686 0.91932 0.0
C922 C 0.023 0.37537 0.93926 0.0
N923 N 0.00758 0.39173 0.92744 0.0
C924 C 0.94637 0.34358 0.97702 0.0
C925 C 0.9003 0.34443 0.95552 0.0
C926 C 0.96447 0.3856 0.9795 0.0
N927 N 0.91561 0.3242 0.96487 0.0
C928 C 0.91763 0.38652 0.95752 0.0
C929 C 0.95072 0.40775 0.96937 0.0
H930 H 0.95836 0.32674 0.984 0.0
H931 H 0.87644 0.32831 0.94564 0.0
C932 C 0.83656 0.18408 0.90259 0.0
N933 N 0.87399 0.21564 0.90678 0.0
C934 C 0.82539 0.17341 0.88455 0.0
C935 C 0.8918 0.22764 0.87543 0.0
C936 C 0.90173 0.23724 0.8937 0.0
C937 C 0.85311 0.19544 0.87071 0.0
H938 H 0.81555 0.1669 0.91333 0.0
H939 H 0.93172 0.26143 0.89744 0.0
O940 O 0.90151 0.23599 0.97813 0.0
O941 O 0.88397 0.1787 0.94468 0.0
O942 O 0.84832 0.23751 0.94582 0.0
O943 O 0.94026 0.26917 0.9396 0.0
H944 H 0.89305 0.1618 0.97735 0.0
H945 H 0.91214 0.2612 0.01202 0.0
H946 H 0.89573 0.12445 0.00433 0.0
H947 H 0.91434 0.22186 0.03849 0.0
H948 H 0.96738 0.17461 0.90144 0.0
H949 H 0.85084 0.09892 0.94275 0.0
H950 H 0.94617 0.21284 0.92165 0.0
H951 H 0.87398 0.06263 0.9222 0.0
H952 H 0.7657 0.10386 0.00949 0.0
H953 H 0.743 0.06148 0.95398 0.0
H954 H 0.05145 0.27664 0.99526 0.0
H955 H 0.01954 0.16497 0.96676 0.0
H956 H 0.77697 0.19244 0.92976 0.0
H957 H 0.83623 0.26063 0.97789 0.0
H958 H 0.7102 0.17405 0.94349 0.0
H959 H 0.76841 0.24122 0.99075 0.0
H960 H 0.91817 0.30875 0.91693 0.0
H961 H 0.01317 0.32089 0.9528 0.0
H962 H 0.95929 0.38255 0.91004 0.0
H963 H 0.05232 0.39459 0.94551 0.0
H964 H 0.98985 0.40082 0.98878 0.0
H965 H 0.90673 0.40249 0.94912 0.0
H966 H 0.79533 0.1483 0.88144 0.0
H967 H 0.91435 0.24469 0.86513 0.0
Li968 Li 0.70741 0.93363 0.28964 0.0
Li969 Li 0.66198 0.86173 0.2934 0.0
Li970 Li 0.66449 0.88969 0.26395 0.0
Li971 Li 0.63513 0.90599 0.29008 0.0
C972 C 0.74219 0.89978 0.26624 0.0
N973 N 0.80833 0.92291 0.24369 0.0
C974 C 0.76376 0.87882 0.26669 0.0
C975 C 0.75414 0.93242 0.25427 0.0
C976 C 0.79718 0.89104 0.25521 0.0
C977 C 0.78768 0.94365 0.24299 0.0
C978 C 0.69138 0.90671 0.325 0.0
C979 C 0.70348 0.91438 0.35723 0.0
N980 N 0.73616 0.90912 0.35501 0.0
C981 C 0.72518 0.90148 0.32303 0.0
C982 C 0.68049 0.91331 0.34222 0.0
C983 C 0.74738 0.90277 0.33837 0.0
C984 C 0.7518 0.0046 0.3091 0.0
N985 N 0.75705 0.97932 0.29778 0.0
C986 C 0.82911 0.01741 0.30224 0.0
C987 C 0.79476 0.98496 0.29431 0.0
C988 C 0.82449 0.04365 0.31419 0.0
C989 C 0.7852 0.03711 0.31747 0.0
H990 H 0.72138 0.99873 0.31202 0.0
H991 H 0.79841 0.96395 0.28578 0.0
C992 C 0.66766 0.79225 0.29138 0.0
N993 N 0.65909 0.8139 0.30349 0.0
C994 C 0.67487 0.76153 0.29729 0.0
C995 C 0.66249 0.77454 0.32803 0.0
C996 C 0.65472 0.80462 0.32146 0.0
C997 C 0.67398 0.75341 0.3159 0.0
H998 H 0.67092 0.80031 0.27718 0.0
H999 H 0.64769 0.82214 0.33084 0.0
C1000 C 0.65914 0.96832 0.26739 0.0
N1001 N 0.62359 0.01495 0.25984 0.0
C1002 C 0.62517 0.9532 0.25601 0.0
C1003 C 0.67529 0.00731 0.27477 0.0
C1004 C 0.6076 0.97722 0.25239 0.0
C1005 C 0.6568 0.03036 0.27084 0.0
C1006 C 0.58751 0.81517 0.28399 0.0
C1007 C 0.57865 0.78082 0.27367 0.0
C1008 C 0.56932 0.81052 0.30095 0.0
C1009 C 0.55181 0.74219 0.28059 0.0
C1010 C 0.54263 0.77138 0.30739 0.0
N1011 N 0.53453 0.73832 0.29716 0.0
C1012 C 0.66301 0.84279 0.23504 0.0
C1013 C 0.66532 0.90373 0.22563 0.0
C1014 C 0.6644 0.83204 0.2171 0.0
N1015 N 0.66345 0.87802 0.23893 0.0
C1016 C 0.66634 0.89394 0.20744 0.0
C1017 C 0.66624 0.85786 0.20308 0.0
H1018 H 0.66214 0.82331 0.24594 0.0
H1019 H 0.66671 0.93206 0.22912 0.0
C1020 C 0.60844 0.95353 0.30799 0.0
N1021 N 0.596 0.92119 0.29666 0.0
C1022 C 0.58461 0.97177 0.3103 0.0
C1023 C 0.53471 0.92182 0.28992 0.0
C1024 C 0.5595 0.90448 0.28802 0.0
C1025 C 0.54761 0.95645 0.3009 0.0
H1026 H 0.63796 0.96653 0.31443 0.0
H1027 H 0.55086 0.87933 0.27877 0.0
O1028 O 0.70881 0.8874 0.2771 0.0
O1029 O 0.66923 0.90609 0.31022 0.0
O1030 O 0.67596 0.94473 0.27157 0.0
O1031 O 0.61459 0.85318 0.27773 0.0
H1032 H 0.75472 0.85335 0.27581 0.0
H1033 H 0.73779 0.94896 0.25369 0.0
H1034 H 0.81419 0.87512 0.25542 0.0
H1035 H 0.79729 0.96884 0.23367 0.0
H1036 H 0.69535 0.91942 0.37065 0.0
H1037 H 0.73423 0.89638 0.30985 0.0
H1038 H 0.65454 0.91761 0.34396 0.0
H1039 H 0.77354 0.89871 0.33704 0.0
H1040 H 0.85892 0.02176 0.2991 0.0
H1041 H 0.78023 0.05634 0.32674 0.0
H1042 H 0.68314 0.7457 0.28745 0.0
H1043 H 0.66211 0.76989 0.34252 0.0
H1044 H 0.61196 0.92286 0.25038 0.0
H1045 H 0.70164 0.01956 0.28354 0.0
H1046 H 0.58104 0.96573 0.24376 0.0
H1047 H 0.66879 0.06047 0.27656 0.0
H1048 H 0.59256 0.78395 0.26052 0.0
H1049 H 0.57611 0.83688 0.30913 0.0
H1050 H 0.54478 0.7153 0.27279 0.0
H1051 H 0.52847 0.76728 0.32054 0.0
H1052 H 0.6639 0.80379 0.2142 0.0
H1053 H 0.66802 0.91466 0.19692 0.0
H1054 H 0.59559 0.99838 0.31889 0.0
H1055 H 0.50687 0.90962 0.2821 0.0
C1056 C 0.51148 0.51925 0.01848 0.0
C1057 C 0.52196 0.54184 0.03468 0.0
C1058 C 0.49038 0.47651 0.01876 0.0
C1059 C 0.47973 0.45491 0.03524 0.0
H1060 H 0.51927 0.53475 0.00552 0.0
H1061 H 0.4825 0.46022 0.00599 0.0
S1062 S 0.50103 0.49989 0.08136 0.0
N1063 N 0.52081 0.53955 0.06761 0.0
N1064 N 0.48115 0.45934 0.06813 0.0
C1065 C 0.49042 0.47719 0.05151 0.0
C1066 C 0.51149 0.52061 0.05123 0.0
C1067 C 0.03933 0.52071 0.36756 0.0
C1068 C 0.01857 0.47793 0.36666 0.0
C1069 C 0.01817 0.54227 0.36745 0.0
C1070 C 0.97535 0.52193 0.36647 0.0
H1071 H 0.07225 0.53772 0.36839 0.0
H1072 H 0.03551 0.57514 0.36853 0.0
S1073 S 0.90647 0.41015 0.36378 0.0
N1074 N 0.95254 0.41596 0.365 0.0
N1075 N 0.91301 0.45657 0.36411 0.0
C1076 C 0.95422 0.4792 0.36536 0.0
C1077 C 0.97574 0.45721 0.36557 0.0
C1078 C 0.47569 0.95209 0.6994 0.0
C1079 C 0.45322 0.97231 0.69808 0.0
C1080 C 0.51839 0.9738 0.69936 0.0
C1081 C 0.54025 0.0166 0.6982 0.0
H1082 H 0.46013 0.91924 0.70063 0.0
H1083 H 0.5344 0.95697 0.70076 0.0
S1084 S 0.49577 0.08393 0.69425 0.0
N1085 N 0.45596 0.03756 0.69547 0.0
N1086 N 0.53618 0.07828 0.69517 0.0
C1087 C 0.51814 0.03714 0.69661 0.0
C1088 C 0.47467 0.01503 0.69657 0.0
C1089 C 0.51723 0.51131 0.61735 0.0
C1090 C 0.53905 0.52253 0.63377 0.0
C1091 C 0.47457 0.49103 0.61717 0.0
C1092 C 0.45211 0.48083 0.6334 0.0
H1093 H 0.5333 0.51872 0.60453 0.0
H1094 H 0.45903 0.48265 0.60422 0.0
S1095 S 0.49468 0.50339 0.67996 0.0
N1096 N 0.53508 0.52199 0.66665 0.0
N1097 N 0.45481 0.48383 0.66631 0.0
C1098 C 0.47353 0.49186 0.6499 0.0
C1099 C 0.517 0.51279 0.65009 0.0
C1100 C 0.01569 0.47483 0.96849 0.0
C1101 C 0.97296 0.45302 0.97006 0.0
C1102 C 0.03739 0.51752 0.968 0.0
C1103 C 0.01726 0.54012 0.96914 0.0
H1104 H 0.03248 0.45876 0.9672 0.0
H1105 H 0.07021 0.53295 0.96667 0.0
S1106 S 0.90568 0.49764 0.97358 0.0
N1107 N 0.9114 0.45725 0.97318 0.0
N1108 N 0.95196 0.53738 0.97175 0.0
C1109 C 0.97455 0.51869 0.97087 0.0
C1110 C 0.95247 0.47522 0.97141 0.0
C1111 C 0.52322 0.0421 0.29778 0.0
C1112 C 0.48074 0.02194 0.30016 0.0
C1113 C 0.54462 0.02081 0.29845 0.0
C1114 C 0.52435 0.97846 0.3014 0.0
H1115 H 0.54005 0.07461 0.29532 0.0
H1116 H 0.57721 0.03753 0.2962 0.0
S1117 S 0.41339 0.91131 0.30849 0.0
N1118 N 0.41914 0.95704 0.30547 0.0
N1119 N 0.45952 0.91728 0.30711 0.0
C1120 C 0.48196 0.95798 0.30398 0.0
C1121 C 0.46016 0.97965 0.30331 0.0
C1122 C 0.32703 0.13258 0.17062 0.0
C1123 C 0.33738 0.16123 0.18464 0.0
C1124 C 0.32555 0.14307 0.15253 0.0
C1125 C 0.33468 0.18269 0.14776 0.0
H1126 H 0.31939 0.10162 0.17368 0.0
H1127 H 0.31747 0.12003 0.14217 0.0
S1128 S 0.3644 0.26918 0.17932 0.0
N1129 N 0.35793 0.23119 0.19249 0.0
N1130 N 0.35442 0.25068 0.15851 0.0
C1131 C 0.34542 0.21173 0.16162 0.0
C1132 C 0.34686 0.20103 0.18005 0.0
C1133 C 0.17548 0.32274 0.48694 0.0
C1134 C 0.14685 0.3345 0.48225 0.0
C1135 C 0.18701 0.32306 0.50501 0.0
C1136 C 0.17015 0.33489 0.5191 0.0
H1137 H 0.18932 0.31347 0.47653 0.0
H1138 H 0.20888 0.31341 0.508 0.0
S1139 S 0.09439 0.36896 0.51401 0.0
N1140 N 0.10189 0.35831 0.49316 0.0
N1141 N 0.12419 0.35973 0.52711 0.0
C1142 C 0.14172 0.34703 0.51459 0.0
C1143 C 0.13 0.34673 0.49618 0.0
C1144 C 0.81336 0.13169 0.82795 0.0
C1145 C 0.81905 0.16064 0.81465 0.0
C1146 C 0.82451 0.14323 0.84603 0.0
C1147 C 0.84175 0.18413 0.85147 0.0
H1148 H 0.80077 0.09997 0.8243 0.0
H1149 H 0.82008 0.12001 0.85579 0.0
S1150 S 0.85971 0.27105 0.82219 0.0
N1151 N 0.84084 0.23157 0.80834 0.0
N1152 N 0.86188 0.25323 0.84233 0.0
C1153 C 0.84704 0.21327 0.83836 0.0
C1154 C 0.83565 0.20153 0.81996 0.0
C1155 C 0.63916 0.83331 0.15344 0.0
C1156 C 0.66834 0.82347 0.14727 0.0
C1157 C 0.63904 0.845 0.17145 0.0
C1158 C 0.66791 0.84699 0.18396 0.0
H1159 H 0.61582 0.83136 0.14434 0.0
H1160 H 0.61571 0.85175 0.17571 0.0
S1161 S 0.75297 0.82804 0.17438 0.0
N1162 N 0.72859 0.81934 0.15488 0.0
N1163 N 0.72782 0.84061 0.18882 0.0
C1164 C 0.69766 0.83797 0.17795 0.0
C1165 C 0.69799 0.82634 0.15959 0.0
C1166 C 0.79227 0.64828 0.50568 0.0
C1167 C 0.82064 0.67269 0.51891 0.0
C1168 C 0.80432 0.64845 0.48771 0.0
C1169 C 0.84512 0.67334 0.48229 0.0
H1170 H 0.7607 0.62827 0.50934 0.0
H1171 H 0.78159 0.62841 0.47805 0.0
S1172 S 0.93019 0.7459 0.51159 0.0
N1173 N 0.89062 0.72401 0.52536 0.0
N1174 N 0.91325 0.72521 0.49147 0.0
C1175 C 0.87356 0.69869 0.49536 0.0
C1176 C 0.86131 0.69818 0.51369 0.0
C1177 C 0.12723 0.8056 0.83835 0.0
C1178 C 0.15661 0.81895 0.85221 0.0
C1179 C 0.13853 0.81702 0.82026 0.0
C1180 C 0.17958 0.84227 0.81541 0.0
H1181 H 0.09521 0.78671 0.84154 0.0
H1182 H 0.11492 0.80647 0.81002 0.0
S1183 S 0.26849 0.88226 0.84627 0.0
N1184 N 0.22875 0.85652 0.85964 0.0
N1185 N 0.24983 0.87828 0.82567 0.0
C1186 C 0.20929 0.85526 0.82906 0.0
C1187 C 0.19784 0.84351 0.84745 0.0
C1188 C 0.27035 0.99008 0.98225 0.0
C1189 C 0.27683 0.9597 0.98985 0.0
C1190 C 0.29025 0.02987 0.98897 0.0
C1191 C 0.31731 0.04101 0.00367 0.0
H1192 H 0.24834 0.98273 0.97147 0.0
H1193 H 0.28284 0.05159 0.98314 0.0
S1194 S 0.34836 0.97446 0.02725 0.0
N1195 N 0.31496 0.9445 0.01196 0.0
N1196 N 0.35198 0.01947 0.02482 0.0
C1197 C 0.3253 0.01149 0.01102 0.0
C1198 C 0.30514 0.97083 0.00408 0.0
C1199 C 0.28504 0.29547 0.35184 0.0
C1200 C 0.27455 0.31633 0.33909 0.0
C1201 C 0.30395 0.27349 0.34651 0.0
C1202 C 0.31322 0.27148 0.32821 0.0
H1203 H 0.27657 0.29418 0.36595 0.0
H1204 H 0.30993 0.25659 0.35672 0.0
S1205 S 0.29584 0.32408 0.28973 0.0
N1206 N 0.27825 0.33668 0.30759 0.0
N1207 N 0.31281 0.29441 0.29745 0.0
C1208 C 0.30499 0.29403 0.31545 0.0
C1209 C 0.2858 0.31656 0.3209 0.0
C1210 C 0.98866 0.27483 0.68471 0.0
C1211 C 0.95681 0.27648 0.67565 0.0
C1212 C 0.02848 0.2952 0.67795 0.0
C1213 C 0.03799 0.31782 0.66181 0.0
H1214 H 0.98246 0.25589 0.69662 0.0
H1215 H 0.05148 0.29123 0.68486 0.0
S1216 S 0.96717 0.33659 0.63431 0.0
N1217 N 0.93849 0.30628 0.65077 0.0
N1218 N 0.01343 0.34413 0.63789 0.0
C1219 C 0.00702 0.32159 0.65313 0.0
C1220 C 0.96643 0.301 0.66008 0.0
C1221 C 0.71074 0.96381 0.98817 0.0
C1222 C 0.68385 0.953 0.00292 0.0
C1223 C 0.73073 0.00355 0.98134 0.0
C1224 C 0.72451 0.03412 0.98891 0.0
H1225 H 0.71803 0.94193 0.98243 0.0
H1226 H 0.75267 0.01073 0.97056 0.0
S1227 S 0.653 0.02 0.02621 0.0
N1228 N 0.64923 0.97491 0.02392 0.0
N1229 N 0.68645 0.04972 0.01088 0.0
C1230 C 0.69615 0.0232 0.00311 0.0
C1231 C 0.6759 0.98265 0.01014 0.0
C1232 C 0.72694 0.73255 0.3153 0.0
C1233 C 0.69036 0.7274 0.32264 0.0
C1234 C 0.74592 0.71213 0.3225 0.0
C1235 C 0.72929 0.68589 0.33743 0.0
H1236 H 0.74216 0.75401 0.30439 0.0
H1237 H 0.77496 0.71859 0.3169 0.0
S1238 S 0.63171 0.65783 0.36032 0.0
N1239 N 0.63624 0.69092 0.34462 0.0
N1240 N 0.67252 0.65305 0.35841 0.0
C1241 C 0.69191 0.67901 0.34445 0.0
C1242 C 0.67234 0.69964 0.33702 0.0
C1243 C 0.02798 0.75 0.65215 0.0
C1244 C 0.04109 0.73812 0.66761 0.0
C1245 C 0.98821 0.72672 0.64567 0.0
C1246 C 0.95974 0.69033 0.65429 0.0
H1247 H 0.04828 0.77839 0.64536 0.0
H1248 H 0.97925 0.73853 0.63428 0.0
S1249 S 0.97999 0.64369 0.69426 0.0
N1250 N 0.02336 0.68637 0.69081 0.0
N1251 N 0.94862 0.64176 0.67824 0.0
C1252 C 0.97305 0.67693 0.66921 0.0
C1253 C 0.01374 0.70089 0.6759 0.0
C1254 C 0.11247 0.25409 0.99294 0.0
C1255 C 0.07391 0.21877 0.99166 0.0
C1256 C 0.14492 0.25339 0.00168 0.0
C1257 C 0.14008 0.2173 0.00932 0.0
H1258 H 0.11779 0.2824 0.98693 0.0
H1259 H 0.17424 0.2811 0.00216 0.0
S1260 S 0.04488 0.11747 0.01105 0.0
N1261 N 0.03224 0.14734 -7e-05 0.0
N1262 N 0.09373 0.14597 0.0159 0.0
C1263 C 0.10174 0.18193 0.00837 0.0
C1264 C 0.06854 0.18267 -0.00036 0.0
C1265 C 0.86394 0.11645 0.32411 0.0
C1266 C 0.86023 0.07764 0.32333 0.0
C1267 C 0.89686 0.14891 0.33293 0.0
C1268 C 0.92746 0.14385 0.34117 0.0
H1269 H 0.84137 0.12189 0.31773 0.0
H1270 H 0.89868 0.17834 0.33312 0.0
S1271 S 0.93094 0.04812 0.34406 0.0
N1272 N 0.88907 0.03565 0.33246 0.0
N1273 N 0.9515 0.09712 0.34865 0.0
C1274 C 0.92418 0.10534 0.34058 0.0
C1275 C 0.89045 0.07213 0.33175 0.0
C1276 C 0.75241 0.85013 0.67221 0.0
C1277 C 0.77995 0.85675 0.65804 0.0
C1278 C 0.75283 0.88277 0.68131 0.0
C1279 C 0.78113 0.92319 0.67672 0.0
H1280 H 0.73047 0.81946 0.67641 0.0
H1281 H 0.731 0.87636 0.69207 0.0
S1282 S 0.85817 0.95728 0.64011 0.0
N1283 N 0.83508 0.90708 0.63936 0.0
N1284 N 0.83643 0.96837 0.65684 0.0
C1285 C 0.80887 0.93038 0.66266 0.0
C1286 C 0.80818 0.89718 0.65324 0.0
C1287 C 0.87644 0.80118 0.99591 0.0
C1288 C 0.85618 0.77439 0.01035 0.0
C1289 C 0.90937 0.80138 0.98719 0.0
C1290 C 0.92326 0.77486 0.99264 0.0
H1291 H 0.86629 0.82164 0.99111 0.0
H1292 H 0.92369 0.82205 0.97593 0.0
S1293 S 0.88295 0.70165 0.03091 0.0
N1294 N 0.85368 0.72241 0.03042 0.0
N1295 N 0.91592 0.72308 0.01421 0.0
C1296 C 0.90377 0.74855 0.00733 0.0
C1297 C 0.87016 0.74824 0.01614 0.0
C1298 C 0.11506 0.86014 0.34027 0.0
C1299 C 0.0754 0.85417 0.33913 0.0
C1300 C 0.14763 0.8925 0.33122 0.0
C1301 C 0.14174 0.9201 0.32073 0.0
H1302 H 0.12108 0.84001 0.34845 0.0
H1303 H 0.1778 0.89643 0.33274 0.0
S1304 S 0.04338 0.91578 0.31202 0.0
N1305 N 0.03165 0.877 0.32572 0.0
N1306 N 0.09306 0.93811 0.30885 0.0
C1307 C 0.10218 0.9141 0.3192 0.0
C1308 C 0.06898 0.88107 0.32837 0.0
C1309 C 0.23558 0.09143 0.66048 0.0
C1310 C 0.22516 0.08338 0.67894 0.0
C1311 C 0.23309 0.12252 0.65135 0.0
C1312 C 0.21992 0.14658 0.66032 0.0
H1313 H 0.24534 0.07326 0.65297 0.0
H1314 H 0.2412 0.12754 0.63713 0.0
S1315 S 0.1919 0.13981 0.70889 0.0
N1316 N 0.20303 0.10328 0.70605 0.0
N1317 N 0.19818 0.16163 0.68886 0.0
C1318 C 0.20971 0.1391 0.67879 0.0
C1319 C 0.21235 0.10751 0.6881 0.0
loop_
_geom_bond_atom_site_label_1
_geom_bond_atom_site_label_2
_geom_bond_distance
_geom_bond_site_symmetry_2
_ccdc_geom_bond_type
Li0 N17 1.990 . S
Li0 O60 1.956 . S
Li0 O61 1.970 . S
Li0 O62 1.961 . S
Li1 N25 1.990 . S
Li1 O60 1.970 . S
Li1 O61 1.956 . S
Li1 O63 1.961 . S
Li2 N47 1.990 . S
Li2 O60 1.961 . S
Li2 O62 1.956 . S
Li2 O63 1.970 . S
Li3 N53 1.990 . S
Li3 O61 1.961 . S
Li3 O62 1.970 . S
Li3 O63 1.956 . S
C4 C6 1.348 . S
C4 C7 1.356 . S
C4 O60 1.325 . S
N5 C8 1.314 . S
N5 C9 1.279 . S
C6 C4 1.348 . S
C6 C8 1.353 . S
C6 H64 0.929 . S
C7 C4 1.356 . S
C7 C9 1.358 . S
C7 H65 0.930 . S
C8 N5 1.314 . S
C8 C6 1.353 . S
C8 H66 0.930 . S
C9 N5 1.279 . S
C9 C7 1.358 . S
C9 H67 0.930 . S
C10 C13 1.348 . S
C10 C14 1.356 . S
C10 O61 1.325 . S
C11 N12 1.279 . S
C11 C14 1.358 . S
C11 H68 0.930 . S
N12 C11 1.279 . S
N12 C15 1.314 . S
C13 C10 1.348 . S
C13 C15 1.353 . S
C13 H69 0.929 . S
C14 C10 1.356 . S
C14 C11 1.358 . S
C14 H70 0.930 . S
C15 N12 1.314 . S
C15 C13 1.353 . S
C15 H71 0.930 . S
C16 N17 1.314 . S
C16 C21 1.353 . S
C16 H22 0.930 . S
N17 Li0 1.990 . S
N17 C16 1.314 . S
N17 C19 1.279 . S
C18 C19 1.358 . S
C18 C20 1.356 . S
C18 H72 0.930 . S
C19 N17 1.279 . S
C19 C18 1.358 . S
C19 H23 0.930 . S
C20 C18 1.356 . S
C20 C21 1.348 . S
C21 C16 1.353 . S
C21 C20 1.348 . S
C21 H73 0.929 . S
H22 C16 0.930 . S
H23 C19 0.930 . S
C24 N25 1.314 . S
C24 C26 1.353 . S
C24 H30 0.930 . S
N25 Li1 1.990 . S
N25 C24 1.314 . S
N25 C28 1.279 . S
C26 C24 1.353 . S
C26 C29 1.348 . S
C26 H74 0.929 . S
C27 C28 1.358 . S
C27 C29 1.356 . S
C27 H75 0.930 . S
C28 N25 1.279 . S
C28 C27 1.358 . S
C28 H31 0.930 . S
C29 C26 1.348 . S
C29 C27 1.356 . S
H30 C24 0.930 . S
H31 C28 0.930 . S
C32 C34 1.348 1_554 S
C32 C35 1.356 1_554 S
C32 O62 1.325 . S
N33 C36 1.314 . S
N33 C37 1.279 . S
C34 C32 1.348 1_556 S
C34 C36 1.353 . S
C34 H76 0.929 . S
C35 C32 1.356 1_556 S
C35 C37 1.358 . S
C35 H77 0.930 . S
C36 N33 1.314 . S
C36 C34 1.353 . S
C36 H78 0.930 . S
C37 N33 1.279 . S
C37 C35 1.358 . S
C37 H79 0.930 . S
C38 C39 1.348 . S
C38 C40 1.356 . S
C38 O63 1.325 . S
C39 C38 1.348 . S
C39 C41 1.353 . S
C39 H80 0.929 . S
C40 C38 1.356 . S
C40 C42 1.358 . S
C40 H81 0.930 . S
C41 C39 1.353 . S
C41 N43 1.314 . S
C41 H82 0.930 . S
C42 C40 1.358 . S
C42 N43 1.279 . S
C42 H83 0.930 . S
N43 C41 1.314 . S
N43 C42 1.279 . S
C44 C46 1.353 . S
C44 N47 1.314 . S
C44 H50 0.930 . S
C45 N47 1.279 1_556 S
C45 C48 1.358 . S
C45 H51 0.930 . S
C46 C44 1.353 . S
C46 C49 1.348 1_554 S
C46 H84 0.929 . S
N47 Li2 1.990 . S
N47 C44 1.314 . S
N47 C45 1.279 1_554 S
C48 C45 1.358 . S
C48 C49 1.356 . S
C48 H85 0.930 . S
C49 C46 1.348 1_556 S
C49 C48 1.356 . S
H50 C44 0.930 . S
H51 C45 0.930 . S
C52 N53 1.314 . S
C52 C54 1.353 . S
C52 H58 0.930 . S
N53 Li3 1.990 . S
N53 C52 1.314 . S
N53 C56 1.279 . S
C54 C52 1.353 . S
C54 C57 1.348 . S
C54 H86 0.929 . S
C55 C56 1.358 . S
C55 C57 1.356 . S
C55 H87 0.930 . S
C56 N53 1.279 . S
C56 C55 1.358 . S
C56 H59 0.930 . S
C57 C54 1.348 . S
C57 C55 1.356 . S
H58 C52 0.930 . S
H59 C56 0.930 . S
O60 Li0 1.956 . S
O60 Li1 1.970 . S
O60 Li2 1.961 . S
O60 C4 1.325 . S
O61 Li0 1.970 . S
O61 Li1 1.956 . S
O61 Li3 1.961 . S
O61 C10 1.325 . S
O62 Li0 1.961 . S
O62 Li2 1.956 . S
O62 Li3 1.970 . S
O62 C32 1.325 . S
O63 Li1 1.961 . S
O63 Li2 1.970 . S
O63 Li3 1.956 . S
O63 C38 1.325 . S
H64 C6 0.929 . S
H65 C7 0.930 . S
H66 C8 0.930 . S
H67 C9 0.930 . S
H68 C11 0.930 . S
H69 C13 0.929 . S
H70 C14 0.930 . S
H71 C15 0.930 . S
H72 C18 0.930 . S
H73 C21 0.929 . S
H74 C26 0.929 . S
H75 C27 0.930 . S
H76 C34 0.929 . S
H77 C35 0.930 . S
H78 C36 0.930 . S
H79 C37 0.930 . S
H80 C39 0.929 . S
H81 C40 0.930 . S
H82 C41 0.930 . S
H83 C42 0.930 . S
H84 C46 0.929 . S
H85 C48 0.930 . S
H86 C54 0.929 . S
H87 C55 0.930 . S
Li88 N105 1.990 . S
Li88 O148 1.956 . S
Li88 O149 1.970 . S
Li88 O150 1.961 . S
Li89 N113 1.990 . S
Li89 O148 1.970 . S
Li89 O149 1.956 . S
Li89 O151 1.961 . S
Li90 N135 1.990 . S
Li90 O148 1.961 . S
Li90 O150 1.956 . S
Li90 O151 1.970 . S
Li91 N141 1.990 . S
Li91 O149 1.961 . S
Li91 O150 1.970 . S
Li91 O151 1.956 . S
C92 C94 1.348 . S
C92 C95 1.356 . S
C92 O148 1.325 . S
N93 C96 1.314 . S
N93 C97 1.279 . S
C94 C92 1.348 . S
C94 C96 1.353 . S
C94 H152 0.929 . S
C95 C92 1.356 . S
C95 C97 1.358 . S
C95 H153 0.930 . S
C96 N93 1.314 . S
C96 C94 1.353 . S
C96 H154 0.930 . S
C97 N93 1.279 . S
C97 C95 1.358 . S
C97 H155 0.930 . S
C98 C101 1.348 . S
C98 C102 1.356 . S
C98 O149 1.325 . S
C99 N100 1.279 . S
C99 C102 1.358 1_655 S
C99 H156 0.930 . S
N100 C99 1.279 . S
N100 C103 1.314 1_655 S
C101 C98 1.348 . S
C101 C103 1.353 . S
C101 H157 0.929 . S
C102 C98 1.356 . S
C102 C99 1.358 1_455 S
C102 H158 0.930 . S
C103 N100 1.314 1_455 S
C103 C101 1.353 . S
C103 H159 0.930 . S
C104 N105 1.314 . S
C104 C109 1.353 . S
C104 H110 0.930 . S
N105 Li88 1.990 . S
N105 C104 1.314 . S
N105 C107 1.279 . S
C106 C107 1.358 . S
C106 C108 1.356 . S
C106 H160 0.930 . S
C107 N105 1.279 . S
C107 C106 1.358 . S
C107 H111 0.930 . S
C108 C106 1.356 . S
C108 C109 1.348 . S
C109 C104 1.353 . S
C109 C108 1.348 . S
C109 H161 0.929 . S
H110 C104 0.930 . S
H111 C107 0.930 . S
C112 N113 1.314 . S
C112 C114 1.353 . S
C112 H118 0.930 . S
N113 Li89 1.990 . S
N113 C112 1.314 . S
N113 C116 1.279 . S
C114 C112 1.353 . S
C114 C117 1.348 . S
C114 H162 0.929 . S
C115 C116 1.358 . S
C115 C117 1.356 . S
C115 H163 0.930 . S
C116 N113 1.279 . S
C116 C115 1.358 . S
C116 H119 0.930 . S
C117 C114 1.348 . S
C117 C115 1.356 . S
H118 C112 0.930 . S
H119 C116 0.930 . S
C120 C122 1.348 . S
C120 C123 1.356 . S
C120 O150 1.325 . S
N121 C124 1.314 . S
N121 C125 1.279 . S
C122 C120 1.348 . S
C122 C124 1.353 . S
C122 H164 0.929 . S
C123 C120 1.356 . S
C123 C125 1.358 . S
C123 H165 0.930 . S
C124 N121 1.314 . S
C124 C122 1.353 . S
C124 H166 0.930 . S
C125 N121 1.279 . S
C125 C123 1.358 . S
C125 H167 0.930 . S
C126 C127 1.348 . S
C126 C128 1.356 . S
C126 O151 1.325 . S
C127 C126 1.348 . S
C127 C129 1.353 . S
C127 H168 0.929 . S
C128 C126 1.356 . S
C128 C130 1.358 . S
C128 H169 0.930 . S
C129 C127 1.353 . S
C129 N131 1.314 . S
C129 H170 0.930 . S
C130 C128 1.358 . S
C130 N131 1.279 . S
C130 H171 0.930 . S
N131 C129 1.314 . S
N131 C130 1.279 . S
C132 C134 1.353 . S
C132 N135 1.314 . S
C132 H138 0.930 . S
C133 N135 1.279 . S
C133 C136 1.358 . S
C133 H139 0.930 . S
C134 C132 1.353 . S
C134 C137 1.348 . S
C134 H172 0.929 . S
N135 Li90 1.990 . S
N135 C132 1.314 . S
N135 C133 1.279 . S
C136 C133 1.358 . S
C136 C137 1.356 . S
C136 H173 0.930 . S
C137 C134 1.348 . S
C137 C136 1.356 . S
H138 C132 0.930 . S
H139 C133 0.930 . S
C140 N141 1.314 1_655 S
C140 C142 1.353 . S
C140 H146 0.930 . S
N141 Li91 1.990 . S
N141 C140 1.314 1_455 S
N141 C144 1.279 . S
C142 C140 1.353 . S
C142 C145 1.348 . S
C142 H174 0.929 . S
C143 C144 1.358 1_655 S
C143 C145 1.356 . S
C143 H175 0.930 . S
C144 N141 1.279 . S
C144 C143 1.358 1_455 S
C144 H147 0.930 . S
C145 C142 1.348 . S
C145 C143 1.356 . S
H146 C140 0.930 . S
H147 C144 0.930 . S
O148 Li88 1.956 . S
O148 Li89 1.970 . S
O148 Li90 1.961 . S
O148 C92 1.325 . S
O149 Li88 1.970 . S
O149 Li89 1.956 . S
O149 Li91 1.961 . S
O149 C98 1.325 . S
O150 Li88 1.961 . S
O150 Li90 1.956 . S
O150 Li91 1.970 . S
O150 C120 1.325 . S
O151 Li89 1.961 . S
O151 Li90 1.970 . S
O151 Li91 1.956 . S
O151 C126 1.325 . S
H152 C94 0.929 . S
H153 C95 0.930 . S
H154 C96 0.930 . S
H155 C97 0.930 . S
H156 C99 0.930 . S
H157 C101 0.929 . S
H158 C102 0.930 . S
H159 C103 0.930 . S
H160 C106 0.930 . S
H161 C109 0.929 . S
H162 C114 0.929 . S
H163 C115 0.930 . S
H164 C122 0.929 . S
H165 C123 0.930 . S
H166 C124 0.930 . S
H167 C125 0.930 . S
H168 C127 0.929 . S
H169 C128 0.930 . S
H170 C129 0.930 . S
H171 C130 0.930 . S
H172 C134 0.929 . S
H173 C136 0.930 . S
H174 C142 0.929 . S
H175 C143 0.930 . S
Li176 N193 1.990 . S
Li176 O236 1.956 . S
Li176 O237 1.970 . S
Li176 O238 1.961 . S
Li177 N201 1.990 . S
Li177 O236 1.970 . S
Li177 O237 1.956 . S
Li177 O239 1.961 . S
Li178 N223 1.990 . S
Li178 O236 1.961 . S
Li178 O238 1.956 . S
Li178 O239 1.970 . S
Li179 N229 1.990 . S
Li179 O237 1.961 . S
Li179 O238 1.970 . S
Li179 O239 1.956 . S
C180 C182 1.348 . S
C180 C183 1.356 . S
C180 O236 1.325 . S
N181 C184 1.314 1_565 S
N181 C185 1.279 . S
C182 C180 1.348 . S
C182 C184 1.353 . S
C182 H240 0.929 . S
C183 C180 1.356 . S
C183 C185 1.358 1_545 S
C183 H241 0.930 . S
C184 N181 1.314 1_545 S
C184 C182 1.353 . S
C184 H242 0.930 . S
C185 N181 1.279 . S
C185 C183 1.358 1_565 S
C185 H243 0.930 . S
C186 C189 1.348 . S
C186 C190 1.356 . S
C186 O237 1.325 . S
C187 N188 1.279 . S
C187 C190 1.358 . S
C187 H244 0.930 . S
N188 C187 1.279 . S
N188 C191 1.314 . S
C189 C186 1.348 . S
C189 C191 1.353 . S
C189 H245 0.929 . S
C190 C186 1.356 . S
C190 C187 1.358 . S
C190 H246 0.930 . S
C191 N188 1.314 . S
C191 C189 1.353 . S
C191 H247 0.930 . S
C192 N193 1.314 . S
C192 C197 1.353 . S
C192 H198 0.930 . S
N193 Li176 1.990 . S
N193 C192 1.314 . S
N193 C195 1.279 . S
C194 C195 1.358 . S
C194 C196 1.356 . S
C194 H248 0.930 . S
C195 N193 1.279 . S
C195 C194 1.358 . S
C195 H199 0.930 . S
C196 C194 1.356 . S
C196 C197 1.348 . S
C197 C192 1.353 . S
C197 C196 1.348 . S
C197 H249 0.929 . S
H198 C192 0.930 . S
H199 C195 0.930 . S
C200 N201 1.314 . S
C200 C202 1.353 . S
C200 H206 0.930 . S
N201 Li177 1.990 . S
N201 C200 1.314 . S
N201 C204 1.279 . S
C202 C200 1.353 . S
C202 C205 1.348 . S
C202 H250 0.929 . S
C203 C204 1.358 . S
C203 C205 1.356 . S
C203 H251 0.930 . S
C204 N201 1.279 . S
C204 C203 1.358 . S
C204 H207 0.930 . S
C205 C202 1.348 . S
C205 C203 1.356 . S
H206 C200 0.930 . S
H207 C204 0.930 . S
C208 C210 1.348 . S
C208 C211 1.356 . S
C208 O238 1.325 . S
N209 C212 1.314 . S
N209 C213 1.279 . S
C210 C208 1.348 . S
C210 C212 1.353 . S
C210 H252 0.929 . S
C211 C208 1.356 . S
C211 C213 1.358 . S
C211 H253 0.930 . S
C212 N209 1.314 . S
C212 C210 1.353 . S
C212 H254 0.930 . S
C213 N209 1.279 . S
C213 C211 1.358 . S
C213 H255 0.930 . S
C214 C215 1.348 . S
C214 C216 1.356 . S
C214 O239 1.325 . S
C215 C214 1.348 . S
C215 C217 1.353 . S
C215 H256 0.929 . S
C216 C214 1.356 . S
C216 C218 1.358 . S
C216 H257 0.930 . S
C217 C215 1.353 . S
C217 N219 1.314 . S
C217 H258 0.930 . S
C218 C216 1.358 . S
C218 N219 1.279 . S
C218 H259 0.930 . S
N219 C217 1.314 . S
N219 C218 1.279 . S
C220 C222 1.353 . S
C220 N223 1.314 1_565 S
C220 H226 0.930 . S
C221 N223 1.279 . S
C221 C224 1.358 1_545 S
C221 H227 0.930 . S
C222 C220 1.353 . S
C222 C225 1.348 . S
C222 H260 0.929 . S
N223 Li178 1.990 . S
N223 C220 1.314 1_545 S
N223 C221 1.279 . S
C224 C221 1.358 1_565 S
C224 C225 1.356 . S
C224 H261 0.930 . S
C225 C222 1.348 . S
C225 C224 1.356 . S
H226 C220 0.930 . S
H227 C221 0.930 . S
C228 N229 1.314 . S
C228 C230 1.353 . S
C228 H234 0.930 . S
N229 Li179 1.990 . S
N229 C228 1.314 . S
N229 C232 1.279 . S
C230 C228 1.353 . S
C230 C233 1.348 . S
C230 H262 0.929 . S
C231 C232 1.358 . S
C231 C233 1.356 . S
C231 H263 0.930 . S
C232 N229 1.279 . S
C232 C231 1.358 . S
C232 H235 0.930 . S
C233 C230 1.348 . S
C233 C231 1.356 . S
H234 C228 0.930 . S
H235 C232 0.930 . S
O236 Li176 1.956 . S
O236 Li177 1.970 . S
O236 Li178 1.961 . S
O236 C180 1.325 . S
O237 Li176 1.970 . S
O237 Li177 1.956 . S
O237 Li179 1.961 . S
O237 C186 1.325 . S
O238 Li176 1.961 . S
O238 Li178 1.956 . S
O238 Li179 1.970 . S
O238 C208 1.325 . S
O239 Li177 1.961 . S
O239 Li178 1.970 . S
O239 Li179 1.956 . S
O239 C214 1.325 . S
H240 C182 0.929 . S
H241 C183 0.930 . S
H242 C184 0.930 . S
H243 C185 0.930 . S
H244 C187 0.930 . S
H245 C189 0.929 . S
H246 C190 0.930 . S
H247 C191 0.930 . S
H248 C194 0.930 . S
H249 C197 0.929 . S
H250 C202 0.929 . S
H251 C203 0.930 . S
H252 C210 0.929 . S
H253 C211 0.930 . S
H254 C212 0.930 . S
H255 C213 0.930 . S
H256 C215 0.929 . S
H257 C216 0.930 . S
H258 C217 0.930 . S
H259 C218 0.930 . S
H260 C222 0.929 . S
H261 C224 0.930 . S
H262 C230 0.929 . S
H263 C231 0.930 . S
Li264 N281 1.990 . S
Li264 O324 1.956 . S
Li264 O325 1.970 . S
Li264 O326 1.961 . S
Li265 N289 1.990 . S
Li265 O324 1.970 . S
Li265 O325 1.956 . S
Li265 O327 1.961 . S
Li266 N311 1.990 . S
Li266 O324 1.961 . S
Li266 O326 1.956 . S
Li266 O327 1.970 . S
Li267 N317 1.990 . S
Li267 O325 1.961 . S
Li267 O326 1.970 . S
Li267 O327 1.956 . S
C268 C270 1.348 . S
C268 C271 1.356 . S
C268 O324 1.325 . S
N269 C272 1.314 . S
N269 C273 1.279 . S
C270 C268 1.348 . S
C270 C272 1.353 . S
C270 H328 0.929 . S
C271 C268 1.356 . S
C271 C273 1.358 . S
C271 H329 0.930 . S
C272 N269 1.314 . S
C272 C270 1.353 . S
C272 H330 0.930 . S
C273 N269 1.279 . S
C273 C271 1.358 . S
C273 H331 0.930 . S
C274 C277 1.348 . S
C274 C278 1.356 . S
C274 O325 1.325 . S
C275 N276 1.279 . S
C275 C278 1.358 . S
C275 H332 0.930 . S
N276 C275 1.279 . S
N276 C279 1.314 . S
C277 C274 1.348 . S
C277 C279 1.353 . S
C277 H333 0.929 . S
C278 C274 1.356 . S
C278 C275 1.358 . S
C278 H334 0.930 . S
C279 N276 1.314 . S
C279 C277 1.353 . S
C279 H335 0.930 . S
C280 N281 1.314 . S
C280 C285 1.353 . S
C280 H286 0.930 . S
N281 Li264 1.990 . S
N281 C280 1.314 . S
N281 C283 1.279 . S
C282 C283 1.358 . S
C282 C284 1.356 . S
C282 H336 0.930 . S
C283 N281 1.279 . S
C283 C282 1.358 . S
C283 H287 0.930 . S
C284 C282 1.356 . S
C284 C285 1.348 . S
C285 C280 1.353 . S
C285 C284 1.348 . S
C285 H337 0.929 . S
H286 C280 0.930 . S
H287 C283 0.930 . S
C288 N289 1.314 . S
C288 C290 1.353 . S
C288 H294 0.930 . S
N289 Li265 1.990 . S
N289 C288 1.314 . S
N289 C292 1.279 . S
C290 C288 1.353 . S
C290 C293 1.348 . S
C290 H338 0.929 . S
C291 C292 1.358 . S
C291 C293 1.356 . S
C291 H339 0.930 . S
C292 N289 1.279 . S
C292 C291 1.358 . S
C292 H295 0.930 . S
C293 C290 1.348 . S
C293 C291 1.356 . S
H294 C288 0.930 . S
H295 C292 0.930 . S
C296 C298 1.348 . S
C296 C299 1.356 . S
C296 O326 1.325 . S
N297 C300 1.314 . S
N297 C301 1.279 . S
C298 C296 1.348 . S
C298 C300 1.353 . S
C298 H340 0.929 . S
C299 C296 1.356 . S
C299 C301 1.358 . S
C299 H341 0.930 . S
C300 N297 1.314 . S
C300 C298 1.353 . S
C300 H342 0.930 . S
C301 N297 1.279 . S
C301 C299 1.358 . S
C301 H343 0.930 . S
C302 C303 1.348 1_554 S
C302 C304 1.356 1_554 S
C302 O327 1.325 . S
C303 C302 1.348 1_556 S
C303 C305 1.353 . S
C303 H344 0.929 . S
C304 C302 1.356 1_556 S
C304 C306 1.358 . S
C304 H345 0.930 . S
C305 C303 1.353 . S
C305 N307 1.314 . S
C305 H346 0.930 . S
C306 C304 1.358 . S
C306 N307 1.279 . S
C306 H347 0.930 . S
N307 C305 1.314 . S
N307 C306 1.279 . S
C308 C310 1.353 . S
C308 N311 1.314 . S
C308 H314 0.930 . S
C309 N311 1.279 . S
C309 C312 1.358 . S
C309 H315 0.930 . S
C310 C308 1.353 . S
C310 C313 1.348 . S
C310 H348 0.929 . S
N311 Li266 1.990 . S
N311 C308 1.314 . S
N311 C309 1.279 . S
C312 C309 1.358 . S
C312 C313 1.356 . S
C312 H349 0.930 . S
C313 C310 1.348 . S
C313 C312 1.356 . S
H314 C308 0.930 . S
H315 C309 0.930 . S
C316 N317 1.314 . S
C316 C318 1.353 . S
C316 H322 0.930 . S
N317 Li267 1.990 . S
N317 C316 1.314 . S
N317 C320 1.279 1_554 S
C318 C316 1.353 . S
C318 C321 1.348 1_554 S
C318 H350 0.929 . S
C319 C320 1.358 . S
C319 C321 1.356 . S
C319 H351 0.930 . S
C320 N317 1.279 1_556 S
C320 C319 1.358 . S
C320 H323 0.930 . S
C321 C318 1.348 1_556 S
C321 C319 1.356 . S
H322 C316 0.930 . S
H323 C320 0.930 . S
O324 Li264 1.956 . S
O324 Li265 1.970 . S
O324 Li266 1.961 . S
O324 C268 1.325 . S
O325 Li264 1.970 . S
O325 Li265 1.956 . S
O325 Li267 1.961 . S
O325 C274 1.325 . S
O326 Li264 1.961 . S
O326 Li266 1.956 . S
O326 Li267 1.970 . S
O326 C296 1.325 . S
O327 Li265 1.961 . S
O327 Li266 1.970 . S
O327 Li267 1.956 . S
O327 C302 1.325 . S
H328 C270 0.929 . S
H329 C271 0.930 . S
H330 C272 0.930 . S
H331 C273 0.930 . S
H332 C275 0.930 . S
H333 C277 0.929 . S
H334 C278 0.930 . S
H335 C279 0.930 . S
H336 C282 0.930 . S
H337 C285 0.929 . S
H338 C290 0.929 . S
H339 C291 0.930 . S
H340 C298 0.929 . S
H341 C299 0.930 . S
H342 C300 0.930 . S
H343 C301 0.930 . S
H344 C303 0.929 . S
H345 C304 0.930 . S
H346 C305 0.930 . S
H347 C306 0.930 . S
H348 C310 0.929 . S
H349 C312 0.930 . S
H350 C318 0.929 . S
H351 C319 0.930 . S
Li352 N369 1.990 . S
Li352 O412 1.956 . S
Li352 O413 1.970 . S
Li352 O414 1.961 . S
Li353 N377 1.990 . S
Li353 O412 1.970 . S
Li353 O413 1.956 . S
Li353 O415 1.961 . S
Li354 N399 1.990 . S
Li354 O412 1.961 . S
Li354 O414 1.956 . S
Li354 O415 1.970 . S
Li355 N405 1.990 . S
Li355 O413 1.961 . S
Li355 O414 1.970 . S
Li355 O415 1.956 . S
C356 C358 1.348 . S
C356 C359 1.356 . S
C356 O412 1.325 . S
N357 C360 1.314 . S
N357 C361 1.279 . S
C358 C356 1.348 . S
C358 C360 1.353 . S
C358 H416 0.929 . S
C359 C356 1.356 . S
C359 C361 1.358 . S
C359 H417 0.930 . S
C360 N357 1.314 . S
C360 C358 1.353 . S
C360 H418 0.930 . S
C361 N357 1.279 . S
C361 C359 1.358 . S
C361 H419 0.930 . S
C362 C365 1.348 . S
C362 C366 1.356 . S
C362 O413 1.325 . S
C363 N364 1.279 . S
C363 C366 1.358 1_455 S
C363 H420 0.930 . S
N364 C363 1.279 . S
N364 C367 1.314 1_455 S
C365 C362 1.348 . S
C365 C367 1.353 . S
C365 H421 0.929 . S
C366 C362 1.356 . S
C366 C363 1.358 1_655 S
C366 H422 0.930 . S
C367 N364 1.314 1_655 S
C367 C365 1.353 . S
C367 H423 0.930 . S
C368 N369 1.314 . S
C368 C373 1.353 . S
C368 H374 0.930 . S
N369 Li352 1.990 . S
N369 C368 1.314 . S
N369 C371 1.279 . S
C370 C371 1.358 . S
C370 C372 1.356 . S
C370 H424 0.930 . S
C371 N369 1.279 . S
C371 C370 1.358 . S
C371 H375 0.930 . S
C372 C370 1.356 . S
C372 C373 1.348 . S
C373 C368 1.353 . S
C373 C372 1.348 . S
C373 H425 0.929 . S
H374 C368 0.930 . S
H375 C371 0.930 . S
C376 N377 1.314 . S
C376 C378 1.353 . S
C376 H382 0.930 . S
N377 Li353 1.990 . S
N377 C376 1.314 . S
N377 C380 1.279 . S
C378 C376 1.353 . S
C378 C381 1.348 . S
C378 H426 0.929 . S
C379 C380 1.358 . S
C379 C381 1.356 . S
C379 H427 0.930 . S
C380 N377 1.279 . S
C380 C379 1.358 . S
C380 H383 0.930 . S
C381 C378 1.348 . S
C381 C379 1.356 . S
H382 C376 0.930 . S
H383 C380 0.930 . S
C384 C386 1.348 . S
C384 C387 1.356 . S
C384 O414 1.325 . S
N385 C388 1.314 . S
N385 C389 1.279 . S
C386 C384 1.348 . S
C386 C388 1.353 . S
C386 H428 0.929 . S
C387 C384 1.356 . S
C387 C389 1.358 . S
C387 H429 0.930 . S
C388 N385 1.314 . S
C388 C386 1.353 . S
C388 H430 0.930 . S
C389 N385 1.279 . S
C389 C387 1.358 . S
C389 H431 0.930 . S
C390 C391 1.348 . S
C390 C392 1.356 . S
C390 O415 1.325 . S
C391 C390 1.348 . S
C391 C393 1.353 . S
C391 H432 0.929 . S
C392 C390 1.356 . S
C392 C394 1.358 . S
C392 H433 0.930 . S
C393 C391 1.353 . S
C393 N395 1.314 . S
C393 H434 0.930 . S
C394 C392 1.358 . S
C394 N395 1.279 . S
C394 H435 0.930 . S
N395 C393 1.314 . S
N395 C394 1.279 . S
C396 C398 1.353 . S
C396 N399 1.314 . S
C396 H402 0.930 . S
C397 N399 1.279 . S
C397 C400 1.358 . S
C397 H403 0.930 . S
C398 C396 1.353 . S
C398 C401 1.348 . S
C398 H436 0.929 . S
N399 Li354 1.990 . S
N399 C396 1.314 . S
N399 C397 1.279 . S
C400 C397 1.358 . S
C400 C401 1.356 . S
C400 H437 0.930 . S
C401 C398 1.348 . S
C401 C400 1.356 . S
H402 C396 0.930 . S
H403 C397 0.930 . S
C404 N405 1.314 1_455 S
C404 C406 1.353 . S
C404 H410 0.930 . S
N405 Li355 1.990 . S
N405 C404 1.314 1_655 S
N405 C408 1.279 . S
C406 C404 1.353 . S
C406 C409 1.348 . S
C406 H438 0.929 . S
C407 C408 1.358 1_455 S
C407 C409 1.356 . S
C407 H439 0.930 . S
C408 N405 1.279 . S
C408 C407 1.358 1_655 S
C408 H411 0.930 . S
C409 C406 1.348 . S
C409 C407 1.356 . S
H410 C404 0.930 . S
H411 C408 0.930 . S
O412 Li352 1.956 . S
O412 Li353 1.970 . S
O412 Li354 1.961 . S
O412 C356 1.325 . S
O413 Li352 1.970 . S
O413 Li353 1.956 . S
O413 Li355 1.961 . S
O413 C362 1.325 . S
O414 Li352 1.961 . S
O414 Li354 1.956 . S
O414 Li355 1.970 . S
O414 C384 1.325 . S
O415 Li353 1.961 . S
O415 Li354 1.970 . S
O415 Li355 1.956 . S
O415 C390 1.325 . S
H416 C358 0.929 . S
H417 C359 0.930 . S
H418 C360 0.930 . S
H419 C361 0.930 . S
H420 C363 0.930 . S
H421 C365 0.929 . S
H422 C366 0.930 . S
H423 C367 0.930 . S
H424 C370 0.930 . S
H425 C373 0.929 . S
H426 C378 0.929 . S
H427 C379 0.930 . S
H428 C386 0.929 . S
H429 C387 0.930 . S
H430 C388 0.930 . S
H431 C389 0.930 . S
H432 C391 0.929 . S
H433 C392 0.930 . S
H434 C393 0.930 . S
H435 C394 0.930 . S
H436 C398 0.929 . S
H437 C400 0.930 . S
H438 C406 0.929 . S
H439 C407 0.930 . S
Li440 N457 1.990 . S
Li440 O500 1.956 . S
Li440 O501 1.970 . S
Li440 O502 1.961 . S
Li441 N465 1.990 . S
Li441 O500 1.970 . S
Li441 O501 1.956 . S
Li441 O503 1.961 . S
Li442 N487 1.990 . S
Li442 O500 1.961 . S
Li442 O502 1.956 . S
Li442 O503 1.970 . S
Li443 N493 1.990 . S
Li443 O501 1.961 . S
Li443 O502 1.970 . S
Li443 O503 1.956 . S
C444 C446 1.348 . S
C444 C447 1.356 . S
C444 O500 1.325 . S
N445 C448 1.314 . S
N445 C449 1.279 . S
C446 C444 1.348 . S
C446 C448 1.353 . S
C446 H504 0.929 . S
C447 C444 1.356 . S
C447 C449 1.358 . S
C447 H505 0.930 . S
C448 N445 1.314 . S
C448 C446 1.353 . S
C448 H506 0.930 . S
C449 N445 1.279 . S
C449 C447 1.358 . S
C449 H507 0.930 . S
C450 C453 1.348 . S
C450 C454 1.356 . S
C450 O501 1.325 . S
C451 N452 1.279 . S
C451 C454 1.358 1_545 S
C451 H508 0.930 . S
N452 C451 1.279 . S
N452 C455 1.314 1_545 S
C453 C450 1.348 . S
C453 C455 1.353 . S
C453 H509 0.929 . S
C454 C450 1.356 . S
C454 C451 1.358 1_565 S
C454 H510 0.930 . S
C455 N452 1.314 1_565 S
C455 C453 1.353 . S
C455 H511 0.930 . S
C456 N457 1.314 . S
C456 C461 1.353 . S
C456 H462 0.930 . S
N457 Li440 1.990 . S
N457 C456 1.314 . S
N457 C459 1.279 . S
C458 C459 1.358 . S
C458 C460 1.356 . S
C458 H512 0.930 . S
C459 N457 1.279 . S
C459 C458 1.358 . S
C459 H463 0.930 . S
C460 C458 1.356 . S
C460 C461 1.348 . S
C461 C456 1.353 . S
C461 C460 1.348 . S
C461 H513 0.929 . S
H462 C456 0.930 . S
H463 C459 0.930 . S
C464 N465 1.314 . S
C464 C466 1.353 . S
C464 H470 0.930 . S
N465 Li441 1.990 . S
N465 C464 1.314 . S
N465 C468 1.279 . S
C466 C464 1.353 . S
C466 C469 1.348 . S
C466 H514 0.929 . S
C467 C468 1.358 . S
C467 C469 1.356 . S
C467 H515 0.930 . S
C468 N465 1.279 . S
C468 C467 1.358 . S
C468 H471 0.930 . S
C469 C466 1.348 . S
C469 C467 1.356 . S
H470 C464 0.930 . S
H471 C468 0.930 . S
C472 C474 1.348 . S
C472 C475 1.356 . S
C472 O502 1.325 . S
N473 C476 1.314 . S
N473 C477 1.279 . S
C474 C472 1.348 . S
C474 C476 1.353 . S
C474 H516 0.929 . S
C475 C472 1.356 . S
C475 C477 1.358 . S
C475 H517 0.930 . S
C476 N473 1.314 . S
C476 C474 1.353 . S
C476 H518 0.930 . S
C477 N473 1.279 . S
C477 C475 1.358 . S
C477 H519 0.930 . S
C478 C479 1.348 . S
C478 C480 1.356 . S
C478 O503 1.325 . S
C479 C478 1.348 . S
C479 C481 1.353 . S
C479 H520 0.929 . S
C480 C478 1.356 . S
C480 C482 1.358 . S
C480 H521 0.930 . S
C481 C479 1.353 . S
C481 N483 1.314 . S
C481 H522 0.930 . S
C482 C480 1.358 . S
C482 N483 1.279 . S
C482 H523 0.930 . S
N483 C481 1.314 . S
N483 C482 1.279 . S
C484 C486 1.353 . S
C484 N487 1.314 . S
C484 H490 0.930 . S
C485 N487 1.279 . S
C485 C488 1.358 . S
C485 H491 0.930 . S
C486 C484 1.353 . S
C486 C489 1.348 . S
C486 H524 0.929 . S
N487 Li442 1.990 . S
N487 C484 1.314 . S
N487 C485 1.279 . S
C488 C485 1.358 . S
C488 C489 1.356 . S
C488 H525 0.930 . S
C489 C486 1.348 . S
C489 C488 1.356 . S
H490 C484 0.930 . S
H491 C485 0.930 . S
C492 N493 1.314 1_545 S
C492 C494 1.353 . S
C492 H498 0.930 . S
N493 Li443 1.990 . S
N493 C492 1.314 1_565 S
N493 C496 1.279 . S
C494 C492 1.353 . S
C494 C497 1.348 . S
C494 H526 0.929 . S
C495 C496 1.358 1_545 S
C495 C497 1.356 . S
C495 H527 0.930 . S
C496 N493 1.279 . S
C496 C495 1.358 1_565 S
C496 H499 0.930 . S
C497 C494 1.348 . S
C497 C495 1.356 . S
H498 C492 0.930 . S
H499 C496 0.930 . S
O500 Li440 1.956 . S
O500 Li441 1.970 . S
O500 Li442 1.961 . S
O500 C444 1.325 . S
O501 Li440 1.970 . S
O501 Li441 1.956 . S
O501 Li443 1.961 . S
O501 C450 1.325 . S
O502 Li440 1.961 . S
O502 Li442 1.956 . S
O502 Li443 1.970 . S
O502 C472 1.325 . S
O503 Li441 1.961 . S
O503 Li442 1.970 . S
O503 Li443 1.956 . S
O503 C478 1.325 . S
H504 C446 0.929 . S
H505 C447 0.930 . S
H506 C448 0.930 . S
H507 C449 0.930 . S
H508 C451 0.930 . S
H509 C453 0.929 . S
H510 C454 0.930 . S
H511 C455 0.930 . S
H512 C458 0.930 . S
H513 C461 0.929 . S
H514 C466 0.929 . S
H515 C467 0.930 . S
H516 C474 0.929 . S
H517 C475 0.930 . S
H518 C476 0.930 . S
H519 C477 0.930 . S
H520 C479 0.929 . S
H521 C480 0.930 . S
H522 C481 0.930 . S
H523 C482 0.930 . S
H524 C486 0.929 . S
H525 C488 0.930 . S
H526 C494 0.929 . S
H527 C495 0.930 . S
Li528 N545 1.990 . S
Li528 O588 1.956 . S
Li528 O589 1.970 . S
Li528 O590 1.961 . S
Li529 N553 1.990 . S
Li529 O588 1.970 . S
Li529 O589 1.956 . S
Li529 O591 1.961 . S
Li530 N575 1.990 . S
Li530 O588 1.961 . S
Li530 O590 1.956 . S
Li530 O591 1.970 . S
Li531 N581 1.990 . S
Li531 O589 1.961 . S
Li531 O590 1.970 . S
Li531 O591 1.956 . S
C532 C534 1.348 . S
C532 C535 1.356 . S
C532 O588 1.325 . S
N533 C536 1.314 . S
N533 C537 1.279 . S
C534 C532 1.348 . S
C534 C536 1.353 . S
C534 H592 0.929 . S
C535 C532 1.356 . S
C535 C537 1.358 . S
C535 H593 0.930 . S
C536 N533 1.314 . S
C536 C534 1.353 . S
C536 H594 0.930 . S
C537 N533 1.279 . S
C537 C535 1.358 . S
C537 H595 0.930 . S
C538 C541 1.348 . S
C538 C542 1.356 . S
C538 O589 1.325 . S
C539 N540 1.279 . S
C539 C542 1.358 . S
C539 H596 0.930 . S
N540 C539 1.279 . S
N540 C543 1.314 . S
C541 C538 1.348 . S
C541 C543 1.353 . S
C541 H597 0.929 . S
C542 C538 1.356 . S
C542 C539 1.358 . S
C542 H598 0.930 . S
C543 N540 1.314 . S
C543 C541 1.353 . S
C543 H599 0.930 . S
C544 N545 1.314 . S
C544 C549 1.353 . S
C544 H550 0.930 . S
N545 Li528 1.990 . S
N545 C544 1.314 . S
N545 C547 1.279 . S
C546 C547 1.358 . S
C546 C548 1.356 . S
C546 H600 0.930 . S
C547 N545 1.279 . S
C547 C546 1.358 . S
C547 H551 0.930 . S
C548 C546 1.356 . S
C548 C549 1.348 . S
C549 C544 1.353 . S
C549 C548 1.348 . S
C549 H601 0.929 . S
H550 C544 0.930 . S
H551 C547 0.930 . S
C552 N553 1.314 . S
C552 C554 1.353 . S
C552 H558 0.930 . S
N553 Li529 1.990 . S
N553 C552 1.314 . S
N553 C556 1.279 . S
C554 C552 1.353 . S
C554 C557 1.348 . S
C554 H602 0.929 . S
C555 C556 1.358 . S
C555 C557 1.356 . S
C555 H603 0.930 . S
C556 N553 1.279 . S
C556 C555 1.358 . S
C556 H559 0.930 . S
C557 C554 1.348 . S
C557 C555 1.356 . S
H558 C552 0.930 . S
H559 C556 0.930 . S
C560 C562 1.348 . S
C560 C563 1.356 . S
C560 O590 1.325 . S
N561 C564 1.314 . S
N561 C565 1.279 . S
C562 C560 1.348 . S
C562 C564 1.353 . S
C562 H604 0.929 . S
C563 C560 1.356 . S
C563 C565 1.358 . S
C563 H605 0.930 . S
C564 N561 1.314 . S
C564 C562 1.353 . S
C564 H606 0.930 . S
C565 N561 1.279 . S
C565 C563 1.358 . S
C565 H607 0.930 . S
C566 C567 1.348 . S
C566 C568 1.356 . S
C566 O591 1.325 . S
C567 C566 1.348 . S
C567 C569 1.353 . S
C567 H608 0.929 . S
C568 C566 1.356 . S
C568 C570 1.358 . S
C568 H609 0.930 . S
C569 C567 1.353 . S
C569 N571 1.314 . S
C569 H610 0.930 . S
C570 C568 1.358 . S
C570 N571 1.279 . S
C570 H611 0.930 . S
N571 C569 1.314 . S
N571 C570 1.279 . S
C572 C574 1.353 . S
C572 N575 1.314 . S
C572 H578 0.930 . S
C573 N575 1.279 . S
C573 C576 1.358 . S
C573 H579 0.930 . S
C574 C572 1.353 . S
C574 C577 1.348 . S
C574 H612 0.929 . S
N575 Li530 1.990 . S
N575 C572 1.314 . S
N575 C573 1.279 . S
C576 C573 1.358 . S
C576 C577 1.356 . S
C576 H613 0.930 . S
C577 C574 1.348 . S
C577 C576 1.356 . S
H578 C572 0.930 . S
H579 C573 0.930 . S
C580 N581 1.314 . S
C580 C582 1.353 . S
C580 H586 0.930 . S
N581 Li531 1.990 . S
N581 C580 1.314 . S
N581 C584 1.279 . S
C582 C580 1.353 . S
C582 C585 1.348 . S
C582 H614 0.929 . S
C583 C584 1.358 . S
C583 C585 1.356 . S
C583 H615 0.930 . S
C584 N581 1.279 . S
C584 C583 1.358 . S
C584 H587 0.930 . S
C585 C582 1.348 . S
C585 C583 1.356 . S
H586 C580 0.930 . S
H587 C584 0.930 . S
O588 Li528 1.956 . S
O588 Li529 1.970 . S
O588 Li530 1.961 . S
O588 C532 1.325 . S
O589 Li528 1.970 . S
O589 Li529 1.956 . S
O589 Li531 1.961 . S
O589 C538 1.325 . S
O590 Li528 1.961 . S
O590 Li530 1.956 . S
O590 Li531 1.970 . S
O590 C560 1.325 . S
O591 Li529 1.961 . S
O591 Li530 1.970 . S
O591 Li531 1.956 . S
O591 C566 1.325 . S
H592 C534 0.929 . S
H593 C535 0.930 . S
H594 C536 0.930 . S
H595 C537 0.930 . S
H596 C539 0.930 . S
H597 C541 0.929 . S
H598 C542 0.930 . S
H599 C543 0.930 . S
H600 C546 0.930 . S
H601 C549 0.929 . S
H602 C554 0.929 . S
H603 C555 0.930 . S
H604 C562 0.929 . S
H605 C563 0.930 . S
H606 C564 0.930 . S
H607 C565 0.930 . S
H608 C567 0.929 . S
H609 C568 0.930 . S
H610 C569 0.930 . S
H611 C570 0.930 . S
H612 C574 0.929 . S
H613 C576 0.930 . S
H614 C582 0.929 . S
H615 C583 0.930 . S
Li616 N633 1.990 . S
Li616 O676 1.956 . S
Li616 O677 1.970 . S
Li616 O678 1.961 . S
Li617 N641 1.990 . S
Li617 O676 1.970 . S
Li617 O677 1.956 . S
Li617 O679 1.961 . S
Li618 N663 1.990 . S
Li618 O676 1.961 . S
Li618 O678 1.956 . S
Li618 O679 1.970 . S
Li619 N669 1.990 . S
Li619 O677 1.961 . S
Li619 O678 1.970 . S
Li619 O679 1.956 . S
C620 C622 1.348 1_556 S
C620 C623 1.356 1_556 S
C620 O676 1.325 . S
N621 C624 1.314 . S
N621 C625 1.279 . S
C622 C620 1.348 1_554 S
C622 C624 1.353 . S
C622 H680 0.929 . S
C623 C620 1.356 1_554 S
C623 C625 1.358 . S
C623 H681 0.930 . S
C624 N621 1.314 . S
C624 C622 1.353 . S
C624 H682 0.930 . S
C625 N621 1.279 . S
C625 C623 1.358 . S
C625 H683 0.930 . S
C626 C629 1.348 . S
C626 C630 1.356 . S
C626 O677 1.325 . S
C627 N628 1.279 . S
C627 C630 1.358 . S
C627 H684 0.930 . S
N628 C627 1.279 . S
N628 C631 1.314 . S
C629 C626 1.348 . S
C629 C631 1.353 . S
C629 H685 0.929 . S
C630 C626 1.356 . S
C630 C627 1.358 . S
C630 H686 0.930 . S
C631 N628 1.314 . S
C631 C629 1.353 . S
C631 H687 0.930 . S
C632 N633 1.314 . S
C632 C637 1.353 . S
C632 H638 0.930 . S
N633 Li616 1.990 . S
N633 C632 1.314 . S
N633 C635 1.279 1_556 S
C634 C635 1.358 . S
C634 C636 1.356 . S
C634 H688 0.930 . S
C635 N633 1.279 1_554 S
C635 C634 1.358 . S
C635 H639 0.930 . S
C636 C634 1.356 . S
C636 C637 1.348 1_554 S
C637 C632 1.353 . S
C637 C636 1.348 1_556 S
C637 H689 0.929 . S
H638 C632 0.930 . S
H639 C635 0.930 . S
C640 N641 1.314 1_655 S
C640 C642 1.353 . S
C640 H646 0.930 . S
N641 Li617 1.990 . S
N641 C640 1.314 1_455 S
N641 C644 1.279 . S
C642 C640 1.353 . S
C642 C645 1.348 . S
C642 H690 0.929 . S
C643 C644 1.358 1_655 S
C643 C645 1.356 . S
C643 H691 0.930 . S
C644 N641 1.279 . S
C644 C643 1.358 1_455 S
C644 H647 0.930 . S
C645 C642 1.348 . S
C645 C643 1.356 . S
H646 C640 0.930 . S
H647 C644 0.930 . S
C648 C650 1.348 . S
C648 C651 1.356 . S
C648 O678 1.325 . S
N649 C652 1.314 . S
N649 C653 1.279 . S
C650 C648 1.348 . S
C650 C652 1.353 . S
C650 H692 0.929 . S
C651 C648 1.356 . S
C651 C653 1.358 . S
C651 H693 0.930 . S
C652 N649 1.314 . S
C652 C650 1.353 . S
C652 H694 0.930 . S
C653 N649 1.279 . S
C653 C651 1.358 . S
C653 H695 0.930 . S
C654 C655 1.348 . S
C654 C656 1.356 . S
C654 O679 1.325 . S
C655 C654 1.348 . S
C655 C657 1.353 . S
C655 H696 0.929 . S
C656 C654 1.356 . S
C656 C658 1.358 1_455 S
C656 H697 0.930 . S
C657 C655 1.353 . S
C657 N659 1.314 1_455 S
C657 H698 0.930 . S
C658 C656 1.358 1_655 S
C658 N659 1.279 . S
C658 H699 0.930 . S
N659 C657 1.314 1_655 S
N659 C658 1.279 . S
C660 C662 1.353 . S
C660 N663 1.314 . S
C660 H666 0.930 . S
C661 N663 1.279 . S
C661 C664 1.358 . S
C661 H667 0.930 . S
C662 C660 1.353 . S
C662 C665 1.348 . S
C662 H700 0.929 . S
N663 Li618 1.990 . S
N663 C660 1.314 . S
N663 C661 1.279 . S
C664 C661 1.358 . S
C664 C665 1.356 . S
C664 H701 0.930 . S
C665 C662 1.348 . S
C665 C664 1.356 . S
H666 C660 0.930 . S
H667 C661 0.930 . S
C668 N669 1.314 . S
C668 C670 1.353 . S
C668 H674 0.930 . S
N669 Li619 1.990 . S
N669 C668 1.314 . S
N669 C672 1.279 . S
C670 C668 1.353 . S
C670 C673 1.348 . S
C670 H702 0.929 . S
C671 C672 1.358 . S
C671 C673 1.356 . S
C671 H703 0.930 . S
C672 N669 1.279 . S
C672 C671 1.358 . S
C672 H675 0.930 . S
C673 C670 1.348 . S
C673 C671 1.356 . S
H674 C668 0.930 . S
H675 C672 0.930 . S
O676 Li616 1.956 . S
O676 Li617 1.970 . S
O676 Li618 1.961 . S
O676 C620 1.325 . S
O677 Li616 1.970 . S
O677 Li617 1.956 . S
O677 Li619 1.961 . S
O677 C626 1.325 . S
O678 Li616 1.961 . S
O678 Li618 1.956 . S
O678 Li619 1.970 . S
O678 C648 1.325 . S
O679 Li617 1.961 . S
O679 Li618 1.970 . S
O679 Li619 1.956 . S
O679 C654 1.325 . S
H680 C622 0.929 . S
H681 C623 0.930 . S
H682 C624 0.930 . S
H683 C625 0.930 . S
H684 C627 0.930 . S
H685 C629 0.929 . S
H686 C630 0.930 . S
H687 C631 0.930 . S
H688 C634 0.930 . S
H689 C637 0.929 . S
H690 C642 0.929 . S
H691 C643 0.930 . S
H692 C650 0.929 . S
H693 C651 0.930 . S
H694 C652 0.930 . S
H695 C653 0.930 . S
H696 C655 0.929 . S
H697 C656 0.930 . S
H698 C657 0.930 . S
H699 C658 0.930 . S
H700 C662 0.929 . S
H701 C664 0.930 . S
H702 C670 0.929 . S
H703 C671 0.930 . S
Li704 N721 1.990 . S
Li704 O764 1.956 . S
Li704 O765 1.970 . S
Li704 O766 1.961 . S
Li705 N729 1.990 . S
Li705 O764 1.970 . S
Li705 O765 1.956 . S
Li705 O767 1.961 . S
Li706 N751 1.990 . S
Li706 O764 1.961 . S
Li706 O766 1.956 . S
Li706 O767 1.970 . S
Li707 N757 1.990 . S
Li707 O765 1.961 . S
Li707 O766 1.970 . S
Li707 O767 1.956 . S
C708 C710 1.348 . S
C708 C711 1.356 . S
C708 O764 1.325 . S
N709 C712 1.314 . S
N709 C713 1.279 . S
C710 C708 1.348 . S
C710 C712 1.353 . S
C710 H768 0.929 . S
C711 C708 1.356 . S
C711 C713 1.358 . S
C711 H769 0.930 . S
C712 N709 1.314 . S
C712 C710 1.353 . S
C712 H770 0.930 . S
C713 N709 1.279 . S
C713 C711 1.358 . S
C713 H771 0.930 . S
C714 C717 1.348 . S
C714 C718 1.356 . S
C714 O765 1.325 . S
C715 N716 1.279 . S
C715 C718 1.358 . S
C715 H772 0.930 . S
N716 C715 1.279 . S
N716 C719 1.314 . S
C717 C714 1.348 . S
C717 C719 1.353 . S
C717 H773 0.929 . S
C718 C714 1.356 . S
C718 C715 1.358 . S
C718 H774 0.930 . S
C719 N716 1.314 . S
C719 C717 1.353 . S
C719 H775 0.930 . S
C720 N721 1.314 1_565 S
C720 C725 1.353 . S
C720 H726 0.930 . S
N721 Li704 1.990 . S
N721 C720 1.314 1_545 S
N721 C723 1.279 . S
C722 C723 1.358 1_565 S
C722 C724 1.356 . S
C722 H776 0.930 . S
C723 N721 1.279 . S
C723 C722 1.358 1_545 S
C723 H727 0.930 . S
C724 C722 1.356 . S
C724 C725 1.348 . S
C725 C720 1.353 . S
C725 C724 1.348 . S
C725 H777 0.929 . S
H726 C720 0.930 . S
H727 C723 0.930 . S
C728 N729 1.314 . S
C728 C730 1.353 . S
C728 H734 0.930 . S
N729 Li705 1.990 . S
N729 C728 1.314 . S
N729 C732 1.279 . S
C730 C728 1.353 . S
C730 C733 1.348 . S
C730 H778 0.929 . S
C731 C732 1.358 . S
C731 C733 1.356 . S
C731 H779 0.930 . S
C732 N729 1.279 . S
C732 C731 1.358 . S
C732 H735 0.930 . S
C733 C730 1.348 . S
C733 C731 1.356 . S
H734 C728 0.930 . S
H735 C732 0.930 . S
C736 C738 1.348 . S
C736 C739 1.356 . S
C736 O766 1.325 . S
N737 C740 1.314 1_565 S
N737 C741 1.279 . S
C738 C736 1.348 . S
C738 C740 1.353 . S
C738 H780 0.929 . S
C739 C736 1.356 . S
C739 C741 1.358 1_545 S
C739 H781 0.930 . S
C740 N737 1.314 1_545 S
C740 C738 1.353 . S
C740 H782 0.930 . S
C741 N737 1.279 . S
C741 C739 1.358 1_565 S
C741 H783 0.930 . S
C742 C743 1.348 . S
C742 C744 1.356 . S
C742 O767 1.325 . S
C743 C742 1.348 . S
C743 C745 1.353 . S
C743 H784 0.929 . S
C744 C742 1.356 . S
C744 C746 1.358 . S
C744 H785 0.930 . S
C745 C743 1.353 . S
C745 N747 1.314 . S
C745 H786 0.930 . S
C746 C744 1.358 . S
C746 N747 1.279 . S
C746 H787 0.930 . S
N747 C745 1.314 . S
N747 C746 1.279 . S
C748 C750 1.353 . S
C748 N751 1.314 . S
C748 H754 0.930 . S
C749 N751 1.279 . S
C749 C752 1.358 . S
C749 H755 0.930 . S
C750 C748 1.353 . S
C750 C753 1.348 . S
C750 H788 0.929 . S
N751 Li706 1.990 . S
N751 C748 1.314 . S
N751 C749 1.279 . S
C752 C749 1.358 . S
C752 C753 1.356 . S
C752 H789 0.930 . S
C753 C750 1.348 . S
C753 C752 1.356 . S
H754 C748 0.930 . S
H755 C749 0.930 . S
C756 N757 1.314 . S
C756 C758 1.353 . S
C756 H762 0.930 . S
N757 Li707 1.990 . S
N757 C756 1.314 . S
N757 C760 1.279 . S
C758 C756 1.353 . S
C758 C761 1.348 . S
C758 H790 0.929 . S
C759 C760 1.358 . S
C759 C761 1.356 . S
C759 H791 0.930 . S
C760 N757 1.279 . S
C760 C759 1.358 . S
C760 H763 0.930 . S
C761 C758 1.348 . S
C761 C759 1.356 . S
H762 C756 0.930 . S
H763 C760 0.930 . S
O764 Li704 1.956 . S
O764 Li705 1.970 . S
O764 Li706 1.961 . S
O764 C708 1.325 . S
O765 Li704 1.970 . S
O765 Li705 1.956 . S
O765 Li707 1.961 . S
O765 C714 1.325 . S
O766 Li704 1.961 . S
O766 Li706 1.956 . S
O766 Li707 1.970 . S
O766 C736 1.325 . S
O767 Li705 1.961 . S
O767 Li706 1.970 . S
O767 Li707 1.956 . S
O767 C742 1.325 . S
H768 C710 0.929 . S
H769 C711 0.930 . S
H770 C712 0.930 . S
H771 C713 0.930 . S
H772 C715 0.930 . S
H773 C717 0.929 . S
H774 C718 0.930 . S
H775 C719 0.930 . S
H776 C722 0.930 . S
H777 C725 0.929 . S
H778 C730 0.929 . S
H779 C731 0.930 . S
H780 C738 0.929 . S
H781 C739 0.930 . S
H782 C740 0.930 . S
H783 C741 0.930 . S
H784 C743 0.929 . S
H785 C744 0.930 . S
H786 C745 0.930 . S
H787 C746 0.930 . S
H788 C750 0.929 . S
H789 C752 0.930 . S
H790 C758 0.929 . S
H791 C759 0.930 . S
Li792 N809 1.990 . S
Li792 O852 1.956 . S
Li792 O853 1.970 . S
Li792 O854 1.961 . S
Li793 N817 1.990 . S
Li793 O852 1.970 . S
Li793 O853 1.956 . S
Li793 O855 1.961 . S
Li794 N839 1.990 . S
Li794 O852 1.961 . S
Li794 O854 1.956 . S
Li794 O855 1.970 . S
Li795 N845 1.990 . S
Li795 O853 1.961 . S
Li795 O854 1.970 . S
Li795 O855 1.956 . S
C796 C798 1.348 . S
C796 C799 1.356 . S
C796 O852 1.325 . S
N797 C800 1.314 . S
N797 C801 1.279 . S
C798 C796 1.348 . S
C798 C800 1.353 . S
C798 H856 0.929 . S
C799 C796 1.356 . S
C799 C801 1.358 . S
C799 H857 0.930 . S
C800 N797 1.314 . S
C800 C798 1.353 . S
C800 H858 0.930 . S
C801 N797 1.279 . S
C801 C799 1.358 . S
C801 H859 0.930 . S
C802 C805 1.348 . S
C802 C806 1.356 . S
C802 O853 1.325 . S
C803 N804 1.279 . S
C803 C806 1.358 . S
C803 H860 0.930 . S
N804 C803 1.279 . S
N804 C807 1.314 . S
C805 C802 1.348 . S
C805 C807 1.353 . S
C805 H861 0.929 . S
C806 C802 1.356 . S
C806 C803 1.358 . S
C806 H862 0.930 . S
C807 N804 1.314 . S
C807 C805 1.353 . S
C807 H863 0.930 . S
C808 N809 1.314 . S
C808 C813 1.353 . S
C808 H814 0.930 . S
N809 Li792 1.990 . S
N809 C808 1.314 . S
N809 C811 1.279 . S
C810 C811 1.358 . S
C810 C812 1.356 . S
C810 H864 0.930 . S
C811 N809 1.279 . S
C811 C810 1.358 . S
C811 H815 0.930 . S
C812 C810 1.356 . S
C812 C813 1.348 . S
C813 C808 1.353 . S
C813 C812 1.348 . S
C813 H865 0.929 . S
H814 C808 0.930 . S
H815 C811 0.930 . S
C816 N817 1.314 . S
C816 C818 1.353 . S
C816 H822 0.930 . S
N817 Li793 1.990 . S
N817 C816 1.314 . S
N817 C820 1.279 . S
C818 C816 1.353 . S
C818 C821 1.348 . S
C818 H866 0.929 . S
C819 C820 1.358 . S
C819 C821 1.356 . S
C819 H867 0.930 . S
C820 N817 1.279 . S
C820 C819 1.358 . S
C820 H823 0.930 . S
C821 C818 1.348 . S
C821 C819 1.356 . S
H822 C816 0.930 . S
H823 C820 0.930 . S
C824 C826 1.348 . S
C824 C827 1.356 . S
C824 O854 1.325 . S
N825 C828 1.314 . S
N825 C829 1.279 . S
C826 C824 1.348 . S
C826 C828 1.353 . S
C826 H868 0.929 . S
C827 C824 1.356 . S
C827 C829 1.358 . S
C827 H869 0.930 . S
C828 N825 1.314 . S
C828 C826 1.353 . S
C828 H870 0.930 . S
C829 N825 1.279 . S
C829 C827 1.358 . S
C829 H871 0.930 . S
C830 C831 1.348 . S
C830 C832 1.356 . S
C830 O855 1.325 . S
C831 C830 1.348 . S
C831 C833 1.353 . S
C831 H872 0.929 . S
C832 C830 1.356 . S
C832 C834 1.358 . S
C832 H873 0.930 . S
C833 C831 1.353 . S
C833 N835 1.314 . S
C833 H874 0.930 . S
C834 C832 1.358 . S
C834 N835 1.279 . S
C834 H875 0.930 . S
N835 C833 1.314 . S
N835 C834 1.279 . S
C836 C838 1.353 . S
C836 N839 1.314 . S
C836 H842 0.930 . S
C837 N839 1.279 . S
C837 C840 1.358 . S
C837 H843 0.930 . S
C838 C836 1.353 . S
C838 C841 1.348 . S
C838 H876 0.929 . S
N839 Li794 1.990 . S
N839 C836 1.314 . S
N839 C837 1.279 . S
C840 C837 1.358 . S
C840 C841 1.356 . S
C840 H877 0.930 . S
C841 C838 1.348 . S
C841 C840 1.356 . S
H842 C836 0.930 . S
H843 C837 0.930 . S
C844 N845 1.314 . S
C844 C846 1.353 . S
C844 H850 0.930 . S
N845 Li795 1.990 . S
N845 C844 1.314 . S
N845 C848 1.279 . S
C846 C844 1.353 . S
C846 C849 1.348 . S
C846 H878 0.929 . S
C847 C848 1.358 . S
C847 C849 1.356 . S
C847 H879 0.930 . S
C848 N845 1.279 . S
C848 C847 1.358 . S
C848 H851 0.930 . S
C849 C846 1.348 . S
C849 C847 1.356 . S
H850 C844 0.930 . S
H851 C848 0.930 . S
O852 Li792 1.956 . S
O852 Li793 1.970 . S
O852 Li794 1.961 . S
O852 C796 1.325 . S
O853 Li792 1.970 . S
O853 Li793 1.956 . S
O853 Li795 1.961 . S
O853 C802 1.325 . S
O854 Li792 1.961 . S
O854 Li794 1.956 . S
O854 Li795 1.970 . S
O854 C824 1.325 . S
O855 Li793 1.961 . S
O855 Li794 1.970 . S
O855 Li795 1.956 . S
O855 C830 1.325 . S
H856 C798 0.929 . S
H857 C799 0.930 . S
H858 C800 0.930 . S
H859 C801 0.930 . S
H860 C803 0.930 . S
H861 C805 0.929 . S
H862 C806 0.930 . S
H863 C807 0.930 . S
H864 C810 0.930 . S
H865 C813 0.929 . S
H866 C818 0.929 . S
H867 C819 0.930 . S
H868 C826 0.929 . S
H869 C827 0.930 . S
H870 C828 0.930 . S
H871 C829 0.930 . S
H872 C831 0.929 . S
H873 C832 0.930 . S
H874 C833 0.930 . S
H875 C834 0.930 . S
H876 C838 0.929 . S
H877 C840 0.930 . S
H878 C846 0.929 . S
H879 C847 0.930 . S
Li880 N897 1.990 . S
Li880 O940 1.956 . S
Li880 O941 1.970 . S
Li880 O942 1.961 . S
Li881 N905 1.990 . S
Li881 O940 1.970 . S
Li881 O941 1.956 . S
Li881 O943 1.961 . S
Li882 N927 1.990 . S
Li882 O940 1.961 . S
Li882 O942 1.956 . S
Li882 O943 1.970 . S
Li883 N933 1.990 . S
Li883 O941 1.961 . S
Li883 O942 1.970 . S
Li883 O943 1.956 . S
C884 C886 1.348 1_556 S
C884 C887 1.356 1_556 S
C884 O940 1.325 . S
N885 C888 1.314 . S
N885 C889 1.279 . S
C886 C884 1.348 1_554 S
C886 C888 1.353 . S
C886 H944 0.929 . S
C887 C884 1.356 1_554 S
C887 C889 1.358 . S
C887 H945 0.930 . S
C888 N885 1.314 . S
C888 C886 1.353 . S
C888 H946 0.930 . S
C889 N885 1.279 . S
C889 C887 1.358 . S
C889 H947 0.930 . S
C890 C893 1.348 . S
C890 C894 1.356 . S
C890 O941 1.325 . S
C891 N892 1.279 . S
C891 C894 1.358 . S
C891 H948 0.930 . S
N892 C891 1.279 . S
N892 C895 1.314 . S
C893 C890 1.348 . S
C893 C895 1.353 . S
C893 H949 0.929 . S
C894 C890 1.356 . S
C894 C891 1.358 . S
C894 H950 0.930 . S
C895 N892 1.314 . S
C895 C893 1.353 . S
C895 H951 0.930 . S
C896 N897 1.314 . S
C896 C901 1.353 . S
C896 H902 0.930 . S
N897 Li880 1.990 . S
N897 C896 1.314 . S
N897 C899 1.279 1_556 S
C898 C899 1.358 . S
C898 C900 1.356 . S
C898 H952 0.930 . S
C899 N897 1.279 1_554 S
C899 C898 1.358 . S
C899 H903 0.930 . S
C900 C898 1.356 . S
C900 C901 1.348 1_554 S
C901 C896 1.353 . S
C901 C900 1.348 1_556 S
C901 H953 0.929 . S
H902 C896 0.930 . S
H903 C899 0.930 . S
C904 N905 1.314 1_455 S
C904 C906 1.353 . S
C904 H910 0.930 . S
N905 Li881 1.990 . S
N905 C904 1.314 1_655 S
N905 C908 1.279 . S
C906 C904 1.353 . S
C906 C909 1.348 . S
C906 H954 0.929 . S
C907 C908 1.358 1_455 S
C907 C909 1.356 . S
C907 H955 0.930 . S
C908 N905 1.279 . S
C908 C907 1.358 1_655 S
C908 H911 0.930 . S
C909 C906 1.348 . S
C909 C907 1.356 . S
H910 C904 0.930 . S
H911 C908 0.930 . S
C912 C914 1.348 . S
C912 C915 1.356 . S
C912 O942 1.325 . S
N913 C916 1.314 . S
N913 C917 1.279 . S
C914 C912 1.348 . S
C914 C916 1.353 . S
C914 H956 0.929 . S
C915 C912 1.356 . S
C915 C917 1.358 . S
C915 H957 0.930 . S
C916 N913 1.314 . S
C916 C914 1.353 . S
C916 H958 0.930 . S
C917 N913 1.279 . S
C917 C915 1.358 . S
C917 H959 0.930 . S
C918 C919 1.348 . S
C918 C920 1.356 . S
C918 O943 1.325 . S
C919 C918 1.348 . S
C919 C921 1.353 . S
C919 H960 0.929 . S
C920 C918 1.356 . S
C920 C922 1.358 1_655 S
C920 H961 0.930 . S
C921 C919 1.353 . S
C921 N923 1.314 1_655 S
C921 H962 0.930 . S
C922 C920 1.358 1_455 S
C922 N923 1.279 . S
C922 H963 0.930 . S
N923 C921 1.314 1_455 S
N923 C922 1.279 . S
C924 C926 1.353 . S
C924 N927 1.314 . S
C924 H930 0.930 . S
C925 N927 1.279 . S
C925 C928 1.358 . S
C925 H931 0.930 . S
C926 C924 1.353 . S
C926 C929 1.348 . S
C926 H964 0.929 . S
N927 Li882 1.990 . S
N927 C924 1.314 . S
N927 C925 1.279 . S
C928 C925 1.358 . S
C928 C929 1.356 . S
C928 H965 0.930 . S
C929 C926 1.348 . S
C929 C928 1.356 . S
H930 C924 0.930 . S
H931 C925 0.930 . S
C932 N933 1.314 . S
C932 C934 1.353 . S
C932 H938 0.930 . S
N933 Li883 1.990 . S
N933 C932 1.314 . S
N933 C936 1.279 . S
C934 C932 1.353 . S
C934 C937 1.348 . S
C934 H966 0.929 . S
C935 C936 1.358 . S
C935 C937 1.356 . S
C935 H967 0.930 . S
C936 N933 1.279 . S
C936 C935 1.358 . S
C936 H939 0.930 . S
C937 C934 1.348 . S
C937 C935 1.356 . S
H938 C932 0.930 . S
H939 C936 0.930 . S
O940 Li880 1.956 . S
O940 Li881 1.970 . S
O940 Li882 1.961 . S
O940 C884 1.325 . S
O941 Li880 1.970 . S
O941 Li881 1.956 . S
O941 Li883 1.961 . S
O941 C890 1.325 . S
O942 Li880 1.961 . S
O942 Li882 1.956 . S
O942 Li883 1.970 . S
O942 C912 1.325 . S
O943 Li881 1.961 . S
O943 Li882 1.970 . S
O943 Li883 1.956 . S
O943 C918 1.325 . S
H944 C886 0.929 . S
H945 C887 0.930 . S
H946 C888 0.930 . S
H947 C889 0.930 . S
H948 C891 0.930 . S
H949 C893 0.929 . S
H950 C894 0.930 . S
H951 C895 0.930 . S
H952 C898 0.930 . S
H953 C901 0.929 . S
H954 C906 0.929 . S
H955 C907 0.930 . S
H956 C914 0.929 . S
H957 C915 0.930 . S
H958 C916 0.930 . S
H959 C917 0.930 . S
H960 C919 0.929 . S
H961 C920 0.930 . S
H962 C921 0.930 . S
H963 C922 0.930 . S
H964 C926 0.929 . S
H965 C928 0.930 . S
H966 C934 0.929 . S
H967 C935 0.930 . S
Li968 N985 1.990 . S
Li968 O1028 1.956 . S
Li968 O1029 1.970 . S
Li968 O1030 1.961 . S
Li969 N993 1.990 . S
Li969 O1028 1.970 . S
Li969 O1029 1.956 . S
Li969 O1031 1.961 . S
Li970 N1015 1.990 . S
Li970 O1028 1.961 . S
Li970 O1030 1.956 . S
Li970 O1031 1.970 . S
Li971 N1021 1.990 . S
Li971 O1029 1.961 . S
Li971 O1030 1.970 . S
Li971 O1031 1.956 . S
C972 C974 1.348 . S
C972 C975 1.356 . S
C972 O1028 1.325 . S
N973 C976 1.314 . S
N973 C977 1.279 . S
C974 C972 1.348 . S
C974 C976 1.353 . S
C974 H1032 0.929 . S
C975 C972 1.356 . S
C975 C977 1.358 . S
C975 H1033 0.930 . S
C976 N973 1.314 . S
C976 C974 1.353 . S
C976 H1034 0.930 . S
C977 N973 1.279 . S
C977 C975 1.358 . S
C977 H1035 0.930 . S
C978 C981 1.348 . S
C978 C982 1.356 . S
C978 O1029 1.325 . S
C979 N980 1.279 . S
C979 C982 1.358 . S
C979 H1036 0.930 . S
N980 C979 1.279 . S
N980 C983 1.314 . S
C981 C978 1.348 . S
C981 C983 1.353 . S
C981 H1037 0.929 . S
C982 C978 1.356 . S
C982 C979 1.358 . S
C982 H1038 0.930 . S
C983 N980 1.314 . S
C983 C981 1.353 . S
C983 H1039 0.930 . S
C984 N985 1.314 1_545 S
C984 C989 1.353 . S
C984 H990 0.930 . S
N985 Li968 1.990 . S
N985 C984 1.314 1_565 S
N985 C987 1.279 . S
C986 C987 1.358 1_545 S
C986 C988 1.356 . S
C986 H1040 0.930 . S
C987 N985 1.279 . S
C987 C986 1.358 1_565 S
C987 H991 0.930 . S
C988 C986 1.356 . S
C988 C989 1.348 . S
C989 C984 1.353 . S
C989 C988 1.348 . S
C989 H1041 0.929 . S
H990 C984 0.930 . S
H991 C987 0.930 . S
C992 N993 1.314 . S
C992 C994 1.353 . S
C992 H998 0.930 . S
N993 Li969 1.990 . S
N993 C992 1.314 . S
N993 C996 1.279 . S
C994 C992 1.353 . S
C994 C997 1.348 . S
C994 H1042 0.929 . S
C995 C996 1.358 . S
C995 C997 1.356 . S
C995 H1043 0.930 . S
C996 N993 1.279 . S
C996 C995 1.358 . S
C996 H999 0.930 . S
C997 C994 1.348 . S
C997 C995 1.356 . S
H998 C992 0.930 . S
H999 C996 0.930 . S
C1000 C1002 1.348 . S
C1000 C1003 1.356 . S
C1000 O1030 1.325 . S
N1001 C1004 1.314 1_545 S
N1001 C1005 1.279 . S
C1002 C1000 1.348 . S
C1002 C1004 1.353 . S
C1002 H1044 0.929 . S
C1003 C1000 1.356 . S
C1003 C1005 1.358 1_565 S
C1003 H1045 0.930 . S
C1004 N1001 1.314 1_565 S
C1004 C1002 1.353 . S
C1004 H1046 0.930 . S
C1005 N1001 1.279 . S
C1005 C1003 1.358 1_545 S
C1005 H1047 0.930 . S
C1006 C1007 1.348 . S
C1006 C1008 1.356 . S
C1006 O1031 1.325 . S
C1007 C1006 1.348 . S
C1007 C1009 1.353 . S
C1007 H1048 0.929 . S
C1008 C1006 1.356 . S
C1008 C1010 1.358 . S
C1008 H1049 0.930 . S
C1009 C1007 1.353 . S
C1009 N1011 1.314 . S
C1009 H1050 0.930 . S
C1010 C1008 1.358 . S
C1010 N1011 1.279 . S
C1010 H1051 0.930 . S
N1011 C1009 1.314 . S
N1011 C1010 1.279 . S
C1012 C1014 1.353 . S
C1012 N1015 1.314 . S
C1012 H1018 0.930 . S
C1013 N1015 1.279 . S
C1013 C1016 1.358 . S
C1013 H1019 0.930 . S
C1014 C1012 1.353 . S
C1014 C1017 1.348 . S
C1014 H1052 0.929 . S
N1015 Li970 1.990 . S
N1015 C1012 1.314 . S
N1015 C1013 1.279 . S
C1016 C1013 1.358 . S
C1016 C1017 1.356 . S
C1016 H1053 0.930 . S
C1017 C1014 1.348 . S
C1017 C1016 1.356 . S
H1018 C1012 0.930 . S
H1019 C1013 0.930 . S
C1020 N1021 1.314 . S
C1020 C1022 1.353 . S
C1020 H1026 0.930 . S
N1021 Li971 1.990 . S
N1021 C1020 1.314 . S
N1021 C1024 1.279 . S
C1022 C1020 1.353 . S
C1022 C1025 1.348 . S
C1022 H1054 0.929 . S
C1023 C1024 1.358 . S
C1023 C1025 1.356 . S
C1023 H1055 0.930 . S
C1024 N1021 1.279 . S
C1024 C1023 1.358 . S
C1024 H1027 0.930 . S
C1025 C1022 1.348 . S
C1025 C1023 1.356 . S
H1026 C1020 0.930 . S
H1027 C1024 0.930 . S
O1028 Li968 1.956 . S
O1028 Li969 1.970 . S
O1028 Li970 1.961 . S
O1028 C972 1.325 . S
O1029 Li968 1.970 . S
O1029 Li969 1.956 . S
O1029 Li971 1.961 . S
O1029 C978 1.325 . S
O1030 Li968 1.961 . S
O1030 Li970 1.956 . S
O1030 Li971 1.970 . S
O1030 C1000 1.325 . S
O1031 Li969 1.961 . S
O1031 Li970 1.970 . S
O1031 Li971 1.956 . S
O1031 C1006 1.325 . S
H1032 C974 0.929 . S
H1033 C975 0.930 . S
H1034 C976 0.930 . S
H1035 C977 0.930 . S
H1036 C979 0.930 . S
H1037 C981 0.929 . S
H1038 C982 0.930 . S
H1039 C983 0.930 . S
H1040 C986 0.930 . S
H1041 C989 0.929 . S
H1042 C994 0.929 . S
H1043 C995 0.930 . S
H1044 C1002 0.929 . S
H1045 C1003 0.930 . S
H1046 C1004 0.930 . S
H1047 C1005 0.930 . S
H1048 C1007 0.929 . S
H1049 C1008 0.930 . S
H1050 C1009 0.930 . S
H1051 C1010 0.930 . S
H1052 C1014 0.929 . S
H1053 C1016 0.930 . S
H1054 C1022 0.929 . S
H1055 C1023 0.930 . S
C1056 C1057 1.369 . S
C1056 C1058 1.419 . S
C1056 H1060 0.930 1_554 S
C1057 C1056 1.369 . S
C1057 C1066 1.429 . S
C1058 C1056 1.419 . S
C1058 C1059 1.363 . S
C1058 H1061 0.929 1_554 S
C1059 C1058 1.363 . S
C1059 C1065 1.428 . S
H1060 C1056 0.930 1_556 S
H1061 C1058 0.929 1_556 S
S1062 N1063 1.613 . S
S1062 N1064 1.610 . S
N1063 S1062 1.613 . S
N1063 C1066 1.350 . S
N1064 S1062 1.610 . S
N1064 C1065 1.351 . S
C1065 C1059 1.428 . S
C1065 N1064 1.351 . S
C1065 C1066 1.434 . S
C1066 C1057 1.429 . S
C1066 N1063 1.350 . S
C1066 C1065 1.434 . S
C1067 C1068 1.369 . S
C1067 C1069 1.419 1_455 S
C1067 H1071 0.930 . S
C1068 C1067 1.369 . S
C1068 C1077 1.429 . S
C1069 C1067 1.419 1_655 S
C1069 C1070 1.363 . S
C1069 H1072 0.929 . S
C1070 C1069 1.363 . S
C1070 C1076 1.428 . S
H1071 C1067 0.930 . S
H1072 C1069 0.929 . S
S1073 N1074 1.613 1_655 S
S1073 N1075 1.610 . S
N1074 S1073 1.613 1_455 S
N1074 C1077 1.350 . S
N1075 S1073 1.610 . S
N1075 C1076 1.351 . S
C1076 C1070 1.428 . S
C1076 N1075 1.351 . S
C1076 C1077 1.434 1_655 S
C1077 C1068 1.429 . S
C1077 N1074 1.350 . S
C1077 C1076 1.434 1_455 S
C1078 C1079 1.369 . S
C1078 C1080 1.419 1_565 S
C1078 H1082 0.930 . S
C1079 C1078 1.369 . S
C1079 C1088 1.429 . S
C1080 C1078 1.419 1_545 S
C1080 C1081 1.363 . S
C1080 H1083 0.929 . S
C1081 C1080 1.363 . S
C1081 C1087 1.428 . S
H1082 C1078 0.930 . S
H1083 C1080 0.929 . S
S1084 N1085 1.613 1_545 S
S1084 N1086 1.610 . S
N1085 S1084 1.613 1_565 S
N1085 C1088 1.350 . S
N1086 S1084 1.610 . S
N1086 C1087 1.351 . S
C1087 C1081 1.428 . S
C1087 N1086 1.351 . S
C1087 C1088 1.434 1_545 S
C1088 C1079 1.429 . S
C1088 N1085 1.350 . S
C1088 C1087 1.434 1_565 S
C1089 C1090 1.369 . S
C1089 C1091 1.419 . S
C1089 H1093 0.930 . S
C1090 C1089 1.369 . S
C1090 C1099 1.429 . S
C1091 C1089 1.419 . S
C1091 C1092 1.363 . S
C1091 H1094 0.929 . S
C1092 C1091 1.363 . S
C1092 C1098 1.428 . S
H1093 C1089 0.930 . S
H1094 C1091 0.929 . S
S1095 N1096 1.613 . S
S1095 N1097 1.610 . S
N1096 S1095 1.613 . S
N1096 C1099 1.350 . S
N1097 S1095 1.610 . S
N1097 C1098 1.351 . S
C1098 C1092 1.428 . S
C1098 N1097 1.351 . S
C1098 C1099 1.434 . S
C1099 C1090 1.429 . S
C1099 N1096 1.350 . S
C1099 C1098 1.434 . S
C1100 C1101 1.369 . S
C1100 C1102 1.419 1_655 S
C1100 H1104 0.930 . S
C1101 C1100 1.369 . S
C1101 C1110 1.429 . S
C1102 C1100 1.419 1_455 S
C1102 C1103 1.363 . S
C1102 H1105 0.929 . S
C1103 C1102 1.363 . S
C1103 C1109 1.428 . S
H1104 C1100 0.930 . S
H1105 C1102 0.929 . S
S1106 N1107 1.613 1_554 S
S1106 N1108 1.610 1_654 S
N1107 S1106 1.613 1_556 S
N1107 C1110 1.350 . S
N1108 S1106 1.610 1_456 S
N1108 C1109 1.351 . S
C1109 C1103 1.428 . S
C1109 N1108 1.351 . S
C1109 C1110 1.434 1_455 S
C1110 C1101 1.429 . S
C1110 N1107 1.350 . S
C1110 C1109 1.434 1_655 S
C1111 C1112 1.369 . S
C1111 C1113 1.419 1_545 S
C1111 H1115 0.930 . S
C1112 C1111 1.369 . S
C1112 C1121 1.429 . S
C1113 C1111 1.419 1_565 S
C1113 C1114 1.363 . S
C1113 H1116 0.929 . S
C1114 C1113 1.363 . S
C1114 C1120 1.428 . S
H1115 C1111 0.930 . S
H1116 C1113 0.929 . S
S1117 N1118 1.613 1_565 S
S1117 N1119 1.610 . S
N1118 S1117 1.613 1_545 S
N1118 C1121 1.350 . S
N1119 S1117 1.610 . S
N1119 C1120 1.351 . S
C1120 C1114 1.428 . S
C1120 N1119 1.351 . S
C1120 C1121 1.434 1_565 S
C1121 C1112 1.429 . S
C1121 N1118 1.350 . S
C1121 C1120 1.434 1_545 S
C1122 C1123 1.369 . S
C1122 C1124 1.419 . S
C1122 H1126 0.930 . S
C1123 C1122 1.369 . S
C1123 C1132 1.429 . S
C1124 C1122 1.419 . S
C1124 C1125 1.363 . S
C1124 H1127 0.929 . S
C1125 C1124 1.363 . S
C1125 C1131 1.428 . S
H1126 C1122 0.930 . S
H1127 C1124 0.929 . S
S1128 N1129 1.613 . S
S1128 N1130 1.610 . S
N1129 S1128 1.613 . S
N1129 C1132 1.350 . S
N1130 S1128 1.610 . S
N1130 C1131 1.351 . S
C1131 C1125 1.428 . S
C1131 N1130 1.351 . S
C1131 C1132 1.434 . S
C1132 C1123 1.429 . S
C1132 N1129 1.350 . S
C1132 C1131 1.434 . S
C1133 C1134 1.369 . S
C1133 C1135 1.419 . S
C1133 H1137 0.930 . S
C1134 C1133 1.369 . S
C1134 C1143 1.429 . S
C1135 C1133 1.419 . S
C1135 C1136 1.363 . S
C1135 H1138 0.929 . S
C1136 C1135 1.363 . S
C1136 C1142 1.428 . S
H1137 C1133 0.930 . S
H1138 C1135 0.929 . S
S1139 N1140 1.613 . S
S1139 N1141 1.610 . S
N1140 S1139 1.613 . S
N1140 C1143 1.350 . S
N1141 S1139 1.610 . S
N1141 C1142 1.351 . S
C1142 C1136 1.428 . S
C1142 N1141 1.351 . S
C1142 C1143 1.434 . S
C1143 C1134 1.429 . S
C1143 N1140 1.350 . S
C1143 C1142 1.434 . S
C1144 C1145 1.369 . S
C1144 C1146 1.419 . S
C1144 H1148 0.930 . S
C1145 C1144 1.369 . S
C1145 C1154 1.429 . S
C1146 C1144 1.419 . S
C1146 C1147 1.363 . S
C1146 H1149 0.929 . S
C1147 C1146 1.363 . S
C1147 C1153 1.428 . S
H1148 C1144 0.930 . S
H1149 C1146 0.929 . S
S1150 N1151 1.613 . S
S1150 N1152 1.610 . S
N1151 S1150 1.613 . S
N1151 C1154 1.350 . S
N1152 S1150 1.610 . S
N1152 C1153 1.351 . S
C1153 C1147 1.428 . S
C1153 N1152 1.351 . S
C1153 C1154 1.434 . S
C1154 C1145 1.429 . S
C1154 N1151 1.350 . S
C1154 C1153 1.434 . S
C1155 C1156 1.369 . S
C1155 C1157 1.419 . S
C1155 H1159 0.930 . S
C1156 C1155 1.369 . S
C1156 C1165 1.429 . S
C1157 C1155 1.419 . S
C1157 C1158 1.363 . S
C1157 H1160 0.929 . S
C1158 C1157 1.363 . S
C1158 C1164 1.428 . S
H1159 C1155 0.930 . S
H1160 C1157 0.929 . S
S1161 N1162 1.613 . S
S1161 N1163 1.610 . S
N1162 S1161 1.613 . S
N1162 C1165 1.350 . S
N1163 S1161 1.610 . S
N1163 C1164 1.351 . S
C1164 C1158 1.428 . S
C1164 N1163 1.351 . S
C1164 C1165 1.434 . S
C1165 C1156 1.429 . S
C1165 N1162 1.350 . S
C1165 C1164 1.434 . S
C1166 C1167 1.369 . S
C1166 C1168 1.419 . S
C1166 H1170 0.930 . S
C1167 C1166 1.369 . S
C1167 C1176 1.429 . S
C1168 C1166 1.419 . S
C1168 C1169 1.363 . S
C1168 H1171 0.929 . S
C1169 C1168 1.363 . S
C1169 C1175 1.428 . S
H1170 C1166 0.930 . S
H1171 C1168 0.929 . S
S1172 N1173 1.613 . S
S1172 N1174 1.610 . S
N1173 S1172 1.613 . S
N1173 C1176 1.350 . S
N1174 S1172 1.610 . S
N1174 C1175 1.351 . S
C1175 C1169 1.428 . S
C1175 N1174 1.351 . S
C1175 C1176 1.434 . S
C1176 C1167 1.429 . S
C1176 N1173 1.350 . S
C1176 C1175 1.434 . S
C1177 C1178 1.369 . S
C1177 C1179 1.419 . S
C1177 H1181 0.930 . S
C1178 C1177 1.369 . S
C1178 C1187 1.429 . S
C1179 C1177 1.419 . S
C1179 C1180 1.363 . S
C1179 H1182 0.929 . S
C1180 C1179 1.363 . S
C1180 C1186 1.428 . S
H1181 C1177 0.930 . S
H1182 C1179 0.929 . S
S1183 N1184 1.613 . S
S1183 N1185 1.610 . S
N1184 S1183 1.613 . S
N1184 C1187 1.350 . S
N1185 S1183 1.610 . S
N1185 C1186 1.351 . S
C1186 C1180 1.428 . S
C1186 N1185 1.351 . S
C1186 C1187 1.434 . S
C1187 C1178 1.429 . S
C1187 N1184 1.350 . S
C1187 C1186 1.434 . S
C1188 C1189 1.369 1_556 S
C1188 C1190 1.419 1_565 S
C1188 H1192 0.930 . S
C1189 C1188 1.369 1_554 S
C1189 C1198 1.429 . S
C1190 C1188 1.419 1_545 S
C1190 C1191 1.363 . S
C1190 H1193 0.929 . S
C1191 C1190 1.363 . S
C1191 C1197 1.428 1_556 S
H1192 C1188 0.930 . S
H1193 C1190 0.929 . S
S1194 N1195 1.613 1_545 S
S1194 N1196 1.610 . S
N1195 S1194 1.613 1_565 S
N1195 C1198 1.350 . S
N1196 S1194 1.610 . S
N1196 C1197 1.351 . S
C1197 C1191 1.428 1_554 S
C1197 N1196 1.351 . S
C1197 C1198 1.434 1_545 S
C1198 C1189 1.429 . S
C1198 N1195 1.350 . S
C1198 C1197 1.434 1_565 S
C1199 C1200 1.369 . S
C1199 C1201 1.419 . S
C1199 H1203 0.930 . S
C1200 C1199 1.369 . S
C1200 C1209 1.429 . S
C1201 C1199 1.419 . S
C1201 C1202 1.363 . S
C1201 H1204 0.929 . S
C1202 C1201 1.363 . S
C1202 C1208 1.428 . S
H1203 C1199 0.930 . S
H1204 C1201 0.929 . S
S1205 N1206 1.613 . S
S1205 N1207 1.610 . S
N1206 S1205 1.613 . S
N1206 C1209 1.350 . S
N1207 S1205 1.610 . S
N1207 C1208 1.351 . S
C1208 C1202 1.428 . S
C1208 N1207 1.351 . S
C1208 C1209 1.434 . S
C1209 C1200 1.429 . S
C1209 N1206 1.350 . S
C1209 C1208 1.434 . S
C1210 C1211 1.369 . S
C1210 C1212 1.419 1_655 S
C1210 H1214 0.930 . S
C1211 C1210 1.369 . S
C1211 C1220 1.429 . S
C1212 C1210 1.419 1_455 S
C1212 C1213 1.363 . S
C1212 H1215 0.929 . S
C1213 C1212 1.363 . S
C1213 C1219 1.428 . S
H1214 C1210 0.930 . S
H1215 C1212 0.929 . S
S1216 N1217 1.613 1_455 S
S1216 N1218 1.610 . S
N1217 S1216 1.613 1_655 S
N1217 C1220 1.350 . S
N1218 S1216 1.610 . S
N1218 C1219 1.351 . S
C1219 C1213 1.428 . S
C1219 N1218 1.351 . S
C1219 C1220 1.434 1_455 S
C1220 C1211 1.429 . S
C1220 N1217 1.350 . S
C1220 C1219 1.434 1_655 S
C1221 C1222 1.369 . S
C1221 C1223 1.419 1_565 S
C1221 H1225 0.930 . S
C1222 C1221 1.369 . S
C1222 C1231 1.429 1_556 S
C1223 C1221 1.419 1_545 S
C1223 C1224 1.363 1_556 S
C1223 H1226 0.929 . S
C1224 C1223 1.363 1_554 S
C1224 C1230 1.428 . S
H1225 C1221 0.930 . S
H1226 C1223 0.929 . S
S1227 N1228 1.613 . S
S1227 N1229 1.610 1_565 S
N1228 S1227 1.613 . S
N1228 C1231 1.350 . S
N1229 S1227 1.610 1_545 S
N1229 C1230 1.351 . S
C1230 C1224 1.428 . S
C1230 N1229 1.351 . S
C1230 C1231 1.434 1_545 S
C1231 C1222 1.429 1_554 S
C1231 N1228 1.350 . S
C1231 C1230 1.434 1_565 S
C1232 C1233 1.369 . S
C1232 C1234 1.419 . S
C1232 H1236 0.930 . S
C1233 C1232 1.369 . S
C1233 C1242 1.429 . S
C1234 C1232 1.419 . S
C1234 C1235 1.363 . S
C1234 H1237 0.929 . S
C1235 C1234 1.363 . S
C1235 C1241 1.428 . S
H1236 C1232 0.930 . S
H1237 C1234 0.929 . S
S1238 N1239 1.613 . S
S1238 N1240 1.610 . S
N1239 S1238 1.613 . S
N1239 C1242 1.350 . S
N1240 S1238 1.610 . S
N1240 C1241 1.351 . S
C1241 C1235 1.428 . S
C1241 N1240 1.351 . S
C1241 C1242 1.434 . S
C1242 C1233 1.429 . S
C1242 N1239 1.350 . S
C1242 C1241 1.434 . S
C1243 C1244 1.369 . S
C1243 C1245 1.419 1_455 S
C1243 H1247 0.930 . S
C1244 C1243 1.369 . S
C1244 C1253 1.429 . S
C1245 C1243 1.419 1_655 S
C1245 C1246 1.363 . S
C1245 H1248 0.929 . S
C1246 C1245 1.363 . S
C1246 C1252 1.428 . S
H1247 C1243 0.930 . S
H1248 C1245 0.929 . S
S1249 N1250 1.613 . S
S1249 N1251 1.610 1_455 S
N1250 S1249 1.613 . S
N1250 C1253 1.350 . S
N1251 S1249 1.610 1_655 S
N1251 C1252 1.351 . S
C1252 C1246 1.428 . S
C1252 N1251 1.351 . S
C1252 C1253 1.434 1_655 S
C1253 C1244 1.429 . S
C1253 N1250 1.350 . S
C1253 C1252 1.434 1_455 S
C1254 C1255 1.369 . S
C1254 C1256 1.419 . S
C1254 H1258 0.930 . S
C1255 C1254 1.369 . S
C1255 C1264 1.429 1_556 S
C1256 C1254 1.419 . S
C1256 C1257 1.363 1_556 S
C1256 H1259 0.929 . S
C1257 C1256 1.363 1_554 S
C1257 C1263 1.428 . S
H1258 C1254 0.930 . S
H1259 C1256 0.929 . S
S1260 N1261 1.613 . S
S1260 N1262 1.610 . S
N1261 S1260 1.613 . S
N1261 C1264 1.350 . S
N1262 S1260 1.610 . S
N1262 C1263 1.351 . S
C1263 C1257 1.428 . S
C1263 N1262 1.351 . S
C1263 C1264 1.434 . S
C1264 C1255 1.429 1_554 S
C1264 N1261 1.350 . S
C1264 C1263 1.434 . S
C1265 C1266 1.369 . S
C1265 C1267 1.419 . S
C1265 H1269 0.930 . S
C1266 C1265 1.369 . S
C1266 C1275 1.429 . S
C1267 C1265 1.419 . S
C1267 C1268 1.363 . S
C1267 H1270 0.929 . S
C1268 C1267 1.363 . S
C1268 C1274 1.428 . S
H1269 C1265 0.930 . S
H1270 C1267 0.929 . S
S1271 N1272 1.613 . S
S1271 N1273 1.610 . S
N1272 S1271 1.613 . S
N1272 C1275 1.350 . S
N1273 S1271 1.610 . S
N1273 C1274 1.351 . S
C1274 C1268 1.428 . S
C1274 N1273 1.351 . S
C1274 C1275 1.434 . S
C1275 C1266 1.429 . S
C1275 N1272 1.350 . S
C1275 C1274 1.434 . S
C1276 C1277 1.369 . S
C1276 C1278 1.419 . S
C1276 H1280 0.930 . S
C1277 C1276 1.369 . S
C1277 C1286 1.429 . S
C1278 C1276 1.419 . S
C1278 C1279 1.363 . S
C1278 H1281 0.929 . S
C1279 C1278 1.363 . S
C1279 C1285 1.428 . S
H1280 C1276 0.930 . S
H1281 C1278 0.929 . S
S1282 N1283 1.613 . S
S1282 N1284 1.610 . S
N1283 S1282 1.613 . S
N1283 C1286 1.350 . S
N1284 S1282 1.610 . S
N1284 C1285 1.351 . S
C1285 C1279 1.428 . S
C1285 N1284 1.351 . S
C1285 C1286 1.434 . S
C1286 C1277 1.429 . S
C1286 N1283 1.350 . S
C1286 C1285 1.434 . S
C1287 C1288 1.387 . S
C1287 C1289 1.401 1_554 S
C1287 H1291 0.930 1_554 S
C1288 C1287 1.387 . S
C1288 C1297 1.429 . S
C1289 C1287 1.401 1_556 S
C1289 C1290 1.363 . S
C1289 H1292 0.929 . S
C1290 C1289 1.363 . S
C1290 C1296 1.421 1_556 S
H1291 C1287 0.930 1_556 S
H1292 C1289 0.929 . S
S1293 N1294 1.613 . S
S1293 N1295 1.610 . S
N1294 S1293 1.613 . S
N1294 C1297 1.350 . S
N1295 S1293 1.610 . S
N1295 C1296 1.352 . S
C1296 C1290 1.421 1_554 S
C1296 N1295 1.352 . S
C1296 C1297 1.442 . S
C1297 C1288 1.429 . S
C1297 N1294 1.350 . S
C1297 C1296 1.442 . S
C1298 C1299 1.369 . S
C1298 C1300 1.419 . S
C1298 H1302 0.930 . S
C1299 C1298 1.369 . S
C1299 C1308 1.429 . S
C1300 C1298 1.419 . S
C1300 C1301 1.363 . S
C1300 H1303 0.929 . S
C1301 C1300 1.363 . S
C1301 C1307 1.428 . S
H1302 C1298 0.930 . S
H1303 C1300 0.929 . S
S1304 N1305 1.613 . S
S1304 N1306 1.610 . S
N1305 S1304 1.613 . S
N1305 C1308 1.350 . S
N1306 S1304 1.610 . S
N1306 C1307 1.351 . S
C1307 C1301 1.428 . S
C1307 N1306 1.351 . S
C1307 C1308 1.434 . S
C1308 C1299 1.429 . S
C1308 N1305 1.350 . S
C1308 C1307 1.434 . S
C1309 C1310 1.369 . S
C1309 C1311 1.419 . S
C1309 H1313 0.930 . S
C1310 C1309 1.369 . S
C1310 C1319 1.429 . S
C1311 C1309 1.419 . S
C1311 C1312 1.363 . S
C1311 H1314 0.929 . S
C1312 C1311 1.363 . S
C1312 C1318 1.428 . S
H1313 C1309 0.930 . S
H1314 C1311 0.929 . S
S1315 N1316 1.613 . S
S1315 N1317 1.610 . S
N1316 S1315 1.613 . S
N1316 C1319 1.350 . S
N1317 S1315 1.610 . S
N1317 C1318 1.351 . S
C1318 C1312 1.428 . S
C1318 N1317 1.351 . S
C1318 C1319 1.434 . S
C1319 C1310 1.429 . S
C1319 N1316 1.350 . S
C1319 C1318 1.434 . S
C1057 C293 2.261 . S
C1059 C20 2.267 . S
C1068 C108 2.263 . S
C1070 C372 2.269 . S
C1079 C460 2.260 . S
C1081 C205 2.269 . S
C1090 C585 2.270 . S
C1092 C849 2.263 . S
C1101 C929 2.271 . S
C1103 C665 2.262 . S
C1112 C761 2.262 . S
C1114 C1025 2.269 . S
C1123 C753 1.577 . S
C1125 C29 1.579 . S
C1134 C117 1.579 . S
C1136 C841 1.577 . S
C1145 C196 1.577 . S
C1147 C937 1.579 . S
C1156 C284 1.579 . S
C1158 C1017 1.577 . S
C1167 C577 1.578 . S
C1169 C381 1.578 . S
C1178 C673 1.577 . S
C1180 C469 1.579 . S
C1189 C636 1.548 . S
C1191 C49 1.539 . S
C1200 C137 1.547 . S
C1202 C733 1.537 . S
C1211 C233 1.547 . S
C1213 C821 1.542 . S
C1222 C321 1.542 . S
C1224 C900 1.546 . S
C1233 C997 1.548 . S
C1235 C401 1.540 . S
C1244 C489 1.540 . S
C1246 C557 1.547 . S
C1255 C909 1.279 . S
C1257 C57 1.288 . S
C1266 C988 1.280 . S
C1268 C145 1.286 . S
C1277 C548 1.282 . S
C1279 C225 1.284 . S
C1288 C313 1.289 . S
C1290 C645 1.281 . S
C1299 C409 1.280 . S
C1301 C724 1.286 . S
C1310 C497 1.282 . S
C1312 C812 1.284 . S
