# Generated by pormake.
# Topology wjz, (5)-cn, num edge types: 1
# Building blocks:
#     Node 0, Type 0, BuildingBlock: XOMCOT_clean_sbu_1, # of connection points: 5
#     Node 1, Type 0, BuildingBlock: XOMCOT_clean_sbu_1, # of connection points: 5
#     Node 2, Type 0, BuildingBlock: XOMCOT_clean_sbu_1, # of connection points: 5
#     Node 3, Type 0, BuildingBlock: XOMCOT_clean_sbu_1, # of connection points: 5
#     Node 4, Type 0, BuildingBlock: XOMCOT_clean_sbu_1, # of connection points: 5
#     Node 5, Type 0, BuildingBlock: XOMCOT_clean_sbu_1, # of connection points: 5
#     Node 6, Type 0, BuildingBlock: XOMCOT_clean_sbu_1, # of connection points: 5
#     Node 7, Type 0, BuildingBlock: XOMCOT_clean_sbu_1, # of connection points: 5
#     Node 8, Type 0, BuildingBlock: XOMCOT_clean_sbu_1, # of connection points: 5
#     Node 9, Type 0, BuildingBlock: XOMCOT_clean_sbu_1, # of connection points: 5
#     Node 10, Type 0, BuildingBlock: XOMCOT_clean_sbu_1, # of connection points: 5
#     Node 11, Type 0, BuildingBlock: XOMCOT_clean_sbu_1, # of connection points: 5
#     Edge 12, Type (0, 0), BuildingBlock: AJUNOK_clean_linker_0, # of connection points: 2
#     Edge 13, Type (0, 0), BuildingBlock: AJUNOK_clean_linker_0, # of connection points: 2
#     Edge 14, Type (0, 0), BuildingBlock: AJUNOK_clean_linker_0, # of connection points: 2
#     Edge 15, Type (0, 0), BuildingBlock: AJUNOK_clean_linker_0, # of connection points: 2
#     Edge 16, Type (0, 0), BuildingBlock: AJUNOK_clean_linker_0, # of connection points: 2
#     Edge 17, Type (0, 0), BuildingBlock: AJUNOK_clean_linker_0, # of connection points: 2
#     Edge 18, Type (0, 0), BuildingBlock: AJUNOK_clean_linker_0, # of connection points: 2
#     Edge 19, Type (0, 0), BuildingBlock: AJUNOK_clean_linker_0, # of connection points: 2
#     Edge 20, Type (0, 0), BuildingBlock: AJUNOK_clean_linker_0, # of connection points: 2
#     Edge 21, Type (0, 0), BuildingBlock: AJUNOK_clean_linker_0, # of connection points: 2
#     Edge 22, Type (0, 0), BuildingBlock: AJUNOK_clean_linker_0, # of connection points: 2
#     Edge 23, Type (0, 0), BuildingBlock: AJUNOK_clean_linker_0, # of connection points: 2
#     Edge 24, Type (0, 0), BuildingBlock: AJUNOK_clean_linker_0, # of connection points: 2
#     Edge 25, Type (0, 0), BuildingBlock: AJUNOK_clean_linker_0, # of connection points: 2
#     Edge 26, Type (0, 0), BuildingBlock: AJUNOK_clean_linker_0, # of connection points: 2
#     Edge 27, Type (0, 0), BuildingBlock: AJUNOK_clean_linker_0, # of connection points: 2
#     Edge 28, Type (0, 0), BuildingBlock: AJUNOK_clean_linker_0, # of connection points: 2
#     Edge 29, Type (0, 0), BuildingBlock: AJUNOK_clean_linker_0, # of connection points: 2
#     Edge 30, Type (0, 0), BuildingBlock: AJUNOK_clean_linker_0, # of connection points: 2
#     Edge 31, Type (0, 0), BuildingBlock: AJUNOK_clean_linker_0, # of connection points: 2
#     Edge 32, Type (0, 0), BuildingBlock: AJUNOK_clean_linker_0, # of connection points: 2
#     Edge 33, Type (0, 0), BuildingBlock: AJUNOK_clean_linker_0, # of connection points: 2
#     Edge 34, Type (0, 0), BuildingBlock: AJUNOK_clean_linker_0, # of connection points: 2
#     Edge 35, Type (0, 0), BuildingBlock: AJUNOK_clean_linker_0, # of connection points: 2
#     Edge 36, Type (0, 0), BuildingBlock: AJUNOK_clean_linker_0, # of connection points: 2
#     Edge 37, Type (0, 0), BuildingBlock: AJUNOK_clean_linker_0, # of connection points: 2
#     Edge 38, Type (0, 0), BuildingBlock: AJUNOK_clean_linker_0, # of connection points: 2
#     Edge 39, Type (0, 0), BuildingBlock: AJUNOK_clean_linker_0, # of connection points: 2
#     Edge 40, Type (0, 0), BuildingBlock: AJUNOK_clean_linker_0, # of connection points: 2
#     Edge 41, Type (0, 0), BuildingBlock: AJUNOK_clean_linker_0, # of connection points: 2
# Relax obj value: 0.180
# Max RMSD: 0.195
# Mean RMSD: 0.195
data_MOF--net-wjz--node1-XOMCOT_clean_sbu_1--edge1-AJUNOK_clean_linker_0
_symmetry_space_group_name_H-M    P1
_symmetry_Int_Tables_number       1
_symmetry_cell_setting            triclinic
loop_
_symmetry_equiv_pos_as_xyz
'x, y, z'
_cell_length_a     56.045114
_cell_length_b     56.005238
_cell_length_c     13.413084
_cell_angle_alpha  89.987458
_cell_angle_beta   90.033678
_cell_angle_gamma 119.9974
loop_
_atom_site_label
_atom_site_type_symbol
_atom_site_fract_x
_atom_site_fract_y
_atom_site_fract_z
_atom_type_partial_charge
C0 C 0.31437 0.44735 0.99433 0.0
C1 C 0.314 0.44561 0.89172 0.0
N2 N 0.32375 0.47116 0.85454 0.0
N3 N 0.32426 0.47386 0.0211 0.0
C4 C 0.32916 0.4877 0.93428 0.0
H5 H 0.30881 0.43057 0.0461 0.0
Co6 Co 0.33303 0.48832 0.14912 0.0
C7 C 0.38145 0.54472 0.11269 0.0
O8 O 0.39484 0.54335 0.19098 0.0
N9 N 0.34108 0.50263 0.27884 0.0
C10 C 0.34643 0.52906 0.41069 0.0
C11 C 0.34542 0.52759 0.3084 0.0
C12 C 0.33825 0.48892 0.36492 0.0
N13 N 0.34186 0.50465 0.44569 0.0
O14 O 0.30343 0.49572 0.14694 0.0
H15 H 0.34623 0.54325 0.2591 0.0
H16 H 0.33224 0.4674 0.36946 0.0
O17 O 0.35759 0.52462 0.09227 0.0
C18 C 0.28186 0.47507 0.18158 0.0
O19 O 0.28304 0.4529 0.20512 0.0
N20 N 0.36073 0.47859 0.15376 0.0
C21 C 0.3952 0.45596 0.16811 0.0
C22 C 0.40274 0.47948 0.10964 0.0
C23 C 0.38484 0.49003 0.10114 0.0
C24 C 0.35232 0.45466 0.20474 0.0
C25 C 0.36922 0.44313 0.21362 0.0
H26 H 0.39014 0.50667 0.04952 0.0
H27 H 0.33178 0.44379 0.2356 0.0
H28 H 0.33685 0.5096 0.92906 0.0
H29 H 0.30813 0.42724 0.84802 0.0
H30 H 0.34859 0.54604 0.45591 0.0
H31 H 0.42208 0.4894 0.06944 0.0
H32 H 0.36154 0.42381 0.2532 0.0
C33 C 0.86178 0.32218 0.18925 0.0
C34 C 0.86203 0.32019 0.08684 0.0
N35 N 0.84562 0.32909 0.04861 0.0
N36 N 0.84546 0.33248 0.21494 0.0
C37 C 0.83569 0.33616 0.12775 0.0
H38 H 0.87354 0.31745 0.24149 0.0
Co39 Co 0.84032 0.34205 0.34242 0.0
C40 C 0.83469 0.39144 0.30013 0.0
O41 O 0.85057 0.40505 0.37595 0.0
N42 N 0.83444 0.35069 0.47233 0.0
C43 C 0.81419 0.35701 0.60476 0.0
C44 C 0.8156 0.35754 0.50235 0.0
C45 C 0.84318 0.34488 0.55812 0.0
N46 N 0.83137 0.34874 0.63937 0.0
O47 O 0.80329 0.31251 0.34196 0.0
H48 H 0.80227 0.36092 0.4533 0.0
H49 H 0.85676 0.33648 0.56158 0.0
O50 O 0.82882 0.36667 0.28349 0.0
C51 C 0.80295 0.29113 0.37587 0.0
O52 O 0.82652 0.29302 0.40072 0.0
N53 N 0.8779 0.36972 0.34471 0.0
C54 C 0.93493 0.40537 0.35339 0.0
C55 C 0.91854 0.41038 0.28701 0.0
C56 C 0.89021 0.39178 0.28148 0.0
C57 C 0.89388 0.3634 0.40304 0.0
C58 C 0.92226 0.38103 0.40962 0.0
H59 H 0.87852 0.39465 0.22369 0.0
H60 H 0.88485 0.34379 0.44053 0.0
H61 H 0.82189 0.34435 0.12162 0.0
H62 H 0.87436 0.31395 0.04395 0.0
H63 H 0.80037 0.36073 0.65 0.0
H64 H 0.92758 0.42815 0.23815 0.0
H65 H 0.93427 0.37497 0.45537 0.0
C66 C 0.53839 0.85833 0.37096 0.0
C67 C 0.5411 0.85933 0.26857 0.0
N68 N 0.5158 0.84444 0.22825 0.0
N69 N 0.51151 0.84296 0.39492 0.0
C70 C 0.4984 0.83442 0.30632 0.0
H71 H 0.55483 0.86897 0.42447 0.0
Co72 Co 0.49641 0.83882 0.52241 0.0
C73 C 0.44159 0.83338 0.4681 0.0
O74 O 0.44216 0.84916 0.54164 0.0
N75 N 0.48159 0.83417 0.65196 0.0
C76 C 0.45469 0.81629 0.78546 0.0
C77 C 0.4555 0.81703 0.68283 0.0
C78 C 0.49631 0.84255 0.7376 0.0
N79 N 0.48046 0.8325 0.81973 0.0
O80 O 0.48833 0.80161 0.52731 0.0
H81 H 0.43834 0.80431 0.63454 0.0
H82 H 0.51851 0.85369 0.74026 0.0
O83 O 0.46084 0.8276 0.46026 0.0
C84 C 0.50902 0.80139 0.56552 0.0
O85 O 0.53118 0.8252 0.58448 0.0
N86 N 0.50697 0.87645 0.52076 0.0
C87 C 0.53191 0.93378 0.52148 0.0
C88 C 0.50962 0.91794 0.45803 0.0
C89 C 0.49788 0.88924 0.4568 0.0
C90 C 0.52949 0.89184 0.57891 0.0
C91 C 0.54194 0.92042 0.58193 0.0
H92 H 0.48267 0.87775 0.40061 0.0
H93 H 0.53897 0.88208 0.61886 0.0
H94 H 0.47634 0.82206 0.29816 0.0
H95 H 0.56016 0.87047 0.22727 0.0
H96 H 0.43673 0.80392 0.83114 0.0
H97 H 0.50233 0.92773 0.40625 0.0
H98 H 0.55986 0.93205 0.62886 0.0
C99 C 0.67599 0.53634 0.51812 0.0
C100 C 0.67896 0.53838 0.41584 0.0
N101 N 0.66856 0.51277 0.37796 0.0
N102 N 0.66351 0.50955 0.5445 0.0
C103 C 0.65953 0.4958 0.45762 0.0
H104 H 0.68165 0.55319 0.56967 0.0
Co105 Co 0.65182 0.49482 0.67249 0.0
C106 C 0.59969 0.44436 0.61231 0.0
O107 O 0.58537 0.44878 0.67994 0.0
N108 N 0.64112 0.48007 0.80232 0.0
C109 C 0.62744 0.45254 0.93561 0.0
C110 C 0.62638 0.45357 0.83326 0.0
C111 C 0.65191 0.49446 0.88753 0.0
N112 N 0.64364 0.47835 0.96941 0.0
O113 O 0.67974 0.48499 0.67754 0.0
H114 H 0.61667 0.43573 0.78538 0.0
H115 H 0.66695 0.51622 0.88953 0.0
O116 O 0.62586 0.4596 0.61019 0.0
C117 C 0.70135 0.50653 0.70722 0.0
O118 O 0.69999 0.52897 0.72351 0.0
N119 N 0.62599 0.50725 0.67034 0.0
C120 C 0.59186 0.53032 0.6742 0.0
C121 C 0.59064 0.5136 0.59436 0.0
C122 C 0.60839 0.50281 0.59269 0.0
C123 C 0.62887 0.52533 0.74376 0.0
C124 C 0.61182 0.53673 0.74801 0.0
H125 H 0.60822 0.49122 0.5282 0.0
H126 H 0.64521 0.53206 0.79739 0.0
H127 H 0.64884 0.47361 0.45199 0.0
H128 H 0.68753 0.5572 0.37261 0.0
H129 H 0.61747 0.43416 0.98128 0.0
H130 H 0.57631 0.5091 0.53344 0.0
H131 H 0.61489 0.55119 0.80705 0.0
C132 C 0.15443 0.6974 0.65839 0.0
C133 C 0.15367 0.6995 0.55609 0.0
N134 N 0.15151 0.67651 0.51545 0.0
N135 N 0.1527 0.67317 0.68261 0.0
C136 C 0.15069 0.66098 0.59353 0.0
H137 H 0.15567 0.7125 0.71137 0.0
Co138 Co 0.15245 0.65943 0.81196 0.0
C139 C 0.1781 0.62877 0.71601 0.0
O140 O 0.20358 0.64891 0.72766 0.0
N141 N 0.15229 0.64638 0.94022 0.0
C142 C 0.15757 0.62667 0.07602 0.0
C143 C 0.15856 0.62738 0.97322 0.0
C144 C 0.1475 0.65678 0.02369 0.0
N145 N 0.15096 0.64547 0.10714 0.0
O146 O 0.19101 0.68517 0.82645 0.0
H147 H 0.16418 0.61529 0.92631 0.0
H148 H 0.14198 0.67273 0.02355 0.0
O149 O 0.15833 0.63118 0.75177 0.0
C150 C 0.19233 0.70599 0.87044 0.0
O151 O 0.16915 0.70595 0.88502 0.0
N152 N 0.11451 0.63607 0.80423 0.0
C153 C 0.05728 0.60511 0.81111 0.0
C154 C 0.07317 0.59231 0.82131 0.0
C155 C 0.10186 0.60825 0.81883 0.0
C156 C 0.0994 0.6489 0.79629 0.0
C157 C 0.07073 0.6338 0.79896 0.0
H158 H 0.11386 0.59829 0.83142 0.0
H159 H 0.10968 0.67111 0.79091 0.0
H160 H 0.14884 0.6411 0.58474 0.0
H161 H 0.15404 0.71636 0.51544 0.0
H162 H 0.16246 0.6142 0.12424 0.0
H163 H 0.06352 0.57025 0.83257 0.0
H164 H 0.05925 0.64461 0.79494 0.0
C165 C 0.45483 0.14022 0.82868 0.0
C166 C 0.45217 0.14066 0.72656 0.0
N167 N 0.47748 0.15184 0.68557 0.0
N168 N 0.48167 0.15109 0.85205 0.0
C169 C 0.49495 0.15853 0.76339 0.0
H170 H 0.4382 0.13164 0.8823 0.0
Co171 Co 0.49587 0.15192 0.97949 0.0
C172 C 0.54369 0.14595 0.9197 0.0
O173 O 0.53706 0.12641 0.98635 0.0
N174 N 0.51001 0.15398 0.10958 0.0
C175 C 0.53664 0.16552 0.24514 0.0
C176 C 0.53613 0.16398 0.14249 0.0
C177 C 0.49548 0.15101 0.19383 0.0
N178 N 0.5109 0.15708 0.27713 0.0
O179 O 0.50838 0.19045 0.98925 0.0
H180 H 0.55412 0.17137 0.09577 0.0
H181 H 0.47412 0.14583 0.19393 0.0
O182 O 0.53056 0.15914 0.917 0.0
C183 C 0.48896 0.19267 0.02913 0.0
O184 O 0.46509 0.1701 0.04203 0.0
N185 N 0.48111 0.11287 0.97271 0.0
C186 C 0.45683 0.05529 0.96676 0.0
C187 C 0.47126 0.07142 0.88433 0.0
C188 C 0.48316 0.10011 0.88872 0.0
C189 C 0.46526 0.09711 0.05013 0.0
C190 C 0.4537 0.06856 0.05 0.0
H191 H 0.49401 0.112 0.82396 0.0
H192 H 0.46064 0.10623 0.11196 0.0
H193 H 0.51694 0.16724 0.7549 0.0
H194 H 0.43303 0.13294 0.68595 0.0
H195 H 0.55464 0.17289 0.29238 0.0
H196 H 0.47295 0.062 0.81623 0.0
H197 H 0.44205 0.05695 0.1145 0.0
C198 C 0.53996 0.6658 0.87997 0.0
C199 C 0.54074 0.66784 0.98219 0.0
N200 N 0.51729 0.66655 0.01475 0.0
N201 N 0.51596 0.66283 0.84691 0.0
C202 C 0.50311 0.66435 0.92998 0.0
H203 H 0.55528 0.66494 0.83373 0.0
Co204 Co 0.50059 0.65249 0.71884 0.0
C205 C 0.44259 0.62389 0.7995 0.0
O206 O 0.43504 0.64054 0.75989 0.0
N207 N 0.48553 0.64234 0.59225 0.0
C208 C 0.46118 0.6204 0.45825 0.0
C209 C 0.46258 0.61959 0.56067 0.0
C210 C 0.49779 0.65648 0.50842 0.0
N211 N 0.48334 0.64372 0.4256 0.0
O212 O 0.49171 0.68111 0.719 0.0
H213 H 0.44835 0.60294 0.60821 0.0
H214 H 0.51733 0.67555 0.50809 0.0
O215 O 0.4664 0.62733 0.78188 0.0
C216 C 0.51245 0.70389 0.69306 0.0
O217 O 0.53626 0.70491 0.68225 0.0
N218 N 0.51081 0.62548 0.71293 0.0
C219 C 0.53253 0.59056 0.69328 0.0
C220 C 0.50702 0.5814 0.74008 0.0
C221 C 0.49653 0.59924 0.74971 0.0
C222 C 0.53503 0.63433 0.66367 0.0
C223 C 0.54639 0.61729 0.65362 0.0
H224 H 0.47698 0.59168 0.78654 0.0
H225 H 0.54586 0.65506 0.63395 0.0
H226 H 0.48337 0.66318 0.92685 0.0
H227 H 0.55681 0.66846 0.02865 0.0
H228 H 0.44577 0.60437 0.41136 0.0
H229 H 0.49524 0.56062 0.76899 0.0
H230 H 0.56615 0.62521 0.61704 0.0
C231 C 0.84868 0.54768 0.04289 0.0
C232 C 0.84927 0.55053 0.14524 0.0
N233 N 0.84649 0.52735 0.18628 0.0
N234 N 0.84563 0.52285 0.01927 0.0
C235 C 0.84431 0.5111 0.10878 0.0
H236 H 0.85084 0.56306 0.98936 0.0
Co237 Co 0.84435 0.50862 0.89 0.0
C238 C 0.81793 0.45131 0.97772 0.0
O239 O 0.79263 0.44466 0.95355 0.0
N240 N 0.84308 0.49516 0.76197 0.0
C241 C 0.83743 0.47021 0.62594 0.0
C242 C 0.83699 0.46998 0.72873 0.0
C243 C 0.84728 0.51027 0.67868 0.0
N244 N 0.84358 0.49553 0.59495 0.0
O245 O 0.80594 0.49643 0.88044 0.0
H246 H 0.83219 0.45243 0.77545 0.0
H247 H 0.853 0.5318 0.67944 0.0
O248 O 0.83797 0.47452 0.95065 0.0
C249 C 0.80432 0.51599 0.83851 0.0
O250 O 0.82736 0.53927 0.82368 0.0
N251 N 0.8822 0.52242 0.89275 0.0
C252 C 0.9389 0.54755 0.86776 0.0
C253 C 0.92281 0.5188 0.873 0.0
C254 C 0.89429 0.50654 0.88365 0.0
C255 C 0.89764 0.55041 0.88831 0.0
C256 C 0.92611 0.56345 0.87658 0.0
H257 H 0.88195 0.48436 0.87996 0.0
H258 H 0.88769 0.56267 0.88992 0.0
H259 H 0.84154 0.49086 0.11869 0.0
H260 H 0.85227 0.56852 0.18583 0.0
H261 H 0.83286 0.45294 0.57768 0.0
H262 H 0.93206 0.50594 0.8645 0.0
H263 H 0.93796 0.58574 0.87241 0.0
C264 C 0.32978 0.86696 0.16574 0.0
C265 C 0.32786 0.86679 0.26821 0.0
N266 N 0.33255 0.84706 0.30411 0.0
N267 N 0.33632 0.84784 0.13692 0.0
C268 C 0.3371 0.83561 0.22298 0.0
H269 H 0.32718 0.88069 0.11623 0.0
Co270 Co 0.34497 0.84065 1.0085 0.0
C271 C 0.38969 0.82579 0.08476 0.0
O272 O 0.39826 0.81725 1.00901 0.0
N273 N 0.35272 0.83292 0.88052 0.0
C274 C 0.35589 0.80994 0.75068 0.0
C275 C 0.35641 0.81183 0.85301 0.0
C276 C 0.34917 0.84298 0.79344 0.0
N277 N 0.35089 0.82933 0.71315 0.0
O278 O 0.31678 0.8031 0.01981 0.0
H279 H 0.35695 0.79713 0.90364 0.0
H280 H 0.34329 0.85862 0.78896 0.0
O281 O 0.37161 0.83299 0.07199 0.0
C282 C 0.29458 0.80197 0.99144 0.0
O283 O 0.29522 0.8251 0.96854 0.0
N284 N 0.37101 0.87803 0.99216 0.0
C285 C 0.40187 0.93512 0.96914 0.0
C286 C 0.41423 0.92028 1.00491 0.0
C287 C 0.39846 0.89155 0.01457 0.0
C288 C 0.35909 0.89203 0.95357 0.0
C289 C 0.37409 0.92046 0.94106 0.0
H290 H 0.40836 0.88055 0.04152 0.0
H291 H 0.33742 0.88098 0.93475 0.0
H292 H 0.34242 0.81954 0.22659 0.0
H293 H 0.32383 0.88046 0.31299 0.0
H294 H 0.35803 0.79475 0.70784 0.0
H295 H 0.43559 0.93077 0.02822 0.0
H296 H 0.3638 0.93095 0.91152 0.0
C297 C 0.45758 0.31598 0.32537 0.0
C298 C 0.45566 0.31315 0.4278 0.0
N299 N 0.48138 0.32542 0.46541 0.0
N300 N 0.48438 0.33006 0.29904 0.0
C301 C 0.49829 0.33512 0.38604 0.0
H302 H 0.44058 0.30937 0.27378 0.0
Co303 Co 0.49865 0.34274 0.17138 0.0
C304 C 0.54798 0.39601 0.23448 0.0
O305 O 0.54246 0.41063 0.17169 0.0
N306 N 0.51285 0.35435 0.04205 0.0
C307 C 0.5397 0.36983 0.90765 0.0
C308 C 0.53894 0.37091 1.01 0.0
C309 C 0.49852 0.34256 0.95769 0.0
N310 N 0.51421 0.35182 0.87479 0.0
O311 O 0.511 0.31667 0.16471 0.0
H312 H 0.55683 0.38185 0.05698 0.0
H313 H 0.47698 0.32692 0.9576 0.0
O314 O 0.5334 0.36977 0.23368 0.0
C315 C 0.49127 0.29322 0.13871 0.0
O316 O 0.46672 0.29025 0.12486 0.0
N317 N 0.48419 0.36708 0.17595 0.0
C318 C 0.45806 0.39864 0.18103 0.0
C319 C 0.47607 0.40067 0.25753 0.0
C320 C 0.48809 0.38401 0.2553 0.0
C321 C 0.4658 0.36405 0.10346 0.0
C322 C 0.45284 0.37979 0.10383 0.0
H323 H 0.5003 0.38452 0.31829 0.0
H324 H 0.46006 0.34857 0.04679 0.0
H325 H 0.5205 0.34654 0.39234 0.0
H326 H 0.4369 0.30422 0.47139 0.0
H327 H 0.55786 0.38055 0.86132 0.0
H328 H 0.48077 0.41482 0.31912 0.0
H329 H 0.43817 0.37659 0.04541 0.0
C330 C 0.12786 0.45343 0.4976 0.0
C331 C 0.12792 0.45098 0.59992 0.0
N332 N 0.14523 0.47604 0.63845 0.0
N333 N 0.14477 0.47997 0.47203 0.0
C334 C 0.15522 0.49314 0.55938 0.0
H335 H 0.11544 0.43717 0.44541 0.0
Co336 Co 0.1491 0.49495 0.34449 0.0
C337 C 0.15559 0.54983 0.39554 0.0
O338 O 0.13801 0.5472 0.32551 0.0
N339 N 0.15421 0.50971 0.21422 0.0
C340 C 0.17314 0.53684 0.08177 0.0
C341 C 0.17128 0.53593 0.18402 0.0
C342 C 0.14706 0.495 0.12832 0.0
N343 N 0.15806 0.51098 0.04695 0.0
O344 O 0.18559 0.50087 0.33788 0.0
H345 H 0.1834 0.55322 0.23252 0.0
H346 H 0.13605 0.47276 0.12526 0.0
O347 O 0.16244 0.53139 0.40558 0.0
C348 C 0.1842 0.47932 0.30039 0.0
O349 O 0.15965 0.45823 0.28168 0.0
N350 N 0.11188 0.48642 0.3484 0.0
C351 C 0.05489 0.46566 0.35473 0.0
C352 C 0.07246 0.48548 0.42397 0.0
C353 C 0.10075 0.49479 0.42177 0.0
C354 C 0.0949 0.46639 0.28341 0.0
C355 C 0.06655 0.45605 0.28424 0.0
H356 H 0.11345 0.50798 0.48126 0.0
H357 H 0.10301 0.45701 0.23431 0.0
H358 H 0.16876 0.51516 0.5658 0.0
H359 H 0.11568 0.43238 0.64278 0.0
H360 H 0.1854 0.55503 0.03701 0.0
H361 H 0.0645 0.49338 0.48066 0.0
H362 H 0.05374 0.43977 0.23251 0.0
C363 C 0.67918 0.13362 0.65317 0.0
C364 C 0.68181 0.13352 0.75537 0.0
N365 N 0.66935 0.14649 0.79594 0.0
N366 N 0.66515 0.14657 0.62951 0.0
C367 C 0.65995 0.15463 0.71799 0.0
H368 H 0.68625 0.12409 0.59961 0.0
Co369 Co 0.6532 0.14932 0.50196 0.0
C370 C 0.60052 0.14679 0.55639 0.0
O371 O 0.5875 0.1286 0.48559 0.0
N372 N 0.64245 0.15311 0.37184 0.0
C373 C 0.62934 0.16698 0.23695 0.0
C374 C 0.6286 0.16569 0.33959 0.0
C375 C 0.65264 0.14848 0.28721 0.0
N376 N 0.64431 0.15586 0.20435 0.0
O377 O 0.68088 0.18726 0.49686 0.0
H378 H 0.61979 0.17489 0.38681 0.0
H379 H 0.66748 0.14152 0.28626 0.0
O380 O 0.62669 0.1581 0.5637 0.0
C381 C 0.70246 0.18812 0.46224 0.0
O382 O 0.70132 0.16457 0.44286 0.0
N383 N 0.62748 0.11079 0.50495 0.0
C384 C 0.59407 0.05341 0.50964 0.0
C385 C 0.5936 0.06957 0.58832 0.0
C386 C 0.61079 0.09819 0.58527 0.0
C387 C 0.6293 0.09498 0.43127 0.0
C388 C 0.6124 0.06644 0.43088 0.0
H389 H 0.61107 0.11011 0.64888 0.0
H390 H 0.6447 0.10405 0.37435 0.0
H391 H 0.64825 0.16508 0.72612 0.0
H392 H 0.69182 0.12433 0.79634 0.0
H393 H 0.62017 0.17599 0.19013 0.0
H394 H 0.58078 0.06013 0.65317 0.0
H395 H 0.61416 0.05458 0.37042 0.0
C396 C 0.31522 0.47083 0.5766 0.0
C397 C 0.33809 0.49607 0.54802 0.0
C398 C 0.31075 0.46269 0.67689 0.0
C399 C 0.32906 0.47949 0.75164 0.0
H400 H 0.3004 0.45764 0.52125 0.0
H401 H 0.29259 0.44341 0.69643 0.0
S402 S 0.3941 0.54565 0.7121 0.0
N403 N 0.38033 0.53663 0.59988 0.0
N404 N 0.37246 0.52122 0.78826 0.0
C405 C 0.35255 0.50435 0.72314 0.0
C406 C 0.35691 0.51267 0.62129 0.0
C407 C 0.8402 0.35678 0.91684 0.0
C408 C 0.84184 0.33342 0.94531 0.0
C409 C 0.83667 0.36155 0.81685 0.0
C410 C 0.83477 0.34324 0.74161 0.0
H411 H 0.8421 0.37172 0.97213 0.0
H412 H 0.83583 0.37991 0.79786 0.0
S413 S 0.83502 0.2777 0.77787 0.0
N414 N 0.83947 0.29092 0.89098 0.0
N415 N 0.83281 0.29989 0.7028 0.0
C416 C 0.83588 0.31957 0.76907 0.0
C417 C 0.83945 0.31469 0.87098 0.0
C418 C 0.48585 0.81669 0.08913 0.0
C419 C 0.50799 0.84163 0.12446 0.0
C420 C 0.47692 0.81384 0.98983 0.0
C421 C 0.48973 0.83586 0.92193 0.0
H422 H 0.47544 0.79918 0.13868 0.0
H423 H 0.46007 0.79414 0.96579 0.0
S424 S 0.54673 0.90633 0.97931 0.0
N425 N 0.54134 0.88928 0.08508 0.0
N426 N 0.52453 0.88396 0.89875 0.0
C427 C 0.51163 0.86103 0.95661 0.0
C428 C 0.52076 0.86391 0.05769 0.0
C429 C 0.65225 0.51153 0.1048 0.0
C430 C 0.65109 0.48719 0.07124 0.0
C431 C 0.65856 0.52008 0.2044 0.0
C432 C 0.66418 0.50473 0.27416 0.0
H433 H 0.64752 0.52365 0.05414 0.0
H434 H 0.65824 0.53844 0.22746 0.0
S435 S 0.66737 0.44136 0.22004 0.0
N436 N 0.65825 0.44905 0.11304 0.0
N437 N 0.67065 0.46531 0.29958 0.0
C438 C 0.66408 0.48087 0.24036 0.0
C439 C 0.65741 0.47205 0.13916 0.0
C440 C 0.13623 0.6338 0.282 0.0
C441 C 0.15047 0.65371 0.20832 0.0
C442 C 0.13607 0.64148 0.38141 0.0
C443 C 0.15055 0.66938 0.4113 0.0
H444 H 0.12501 0.61215 0.26227 0.0
H445 H 0.1245 0.62538 0.43525 0.0
S446 S 0.19329 0.72913 0.24686 0.0
N447 N 0.18041 0.70223 0.17142 0.0
N448 N 0.1809 0.71676 0.35858 0.0
C449 C 0.16515 0.68946 0.33794 0.0
C450 C 0.16497 0.6816 0.23646 0.0
C451 C 0.51009 0.17528 0.54696 0.0
C452 C 0.48475 0.15352 0.58134 0.0
C453 C 0.5185 0.17641 0.44762 0.0
C454 C 0.50183 0.15588 0.3786 0.0
H455 H 0.52357 0.19159 0.59739 0.0
H456 H 0.53811 0.19357 0.42443 0.0
S457 S 0.43473 0.09335 0.43172 0.0
N458 N 0.44382 0.11011 0.53882 0.0
N459 N 0.4595 0.1125 0.35232 0.0
C460 C 0.47652 0.13398 0.41179 0.0
C461 C 0.468 0.13274 0.51299 0.0
C462 C 0.51941 0.66422 0.29605 0.0
C463 C 0.49155 0.65175 0.32344 0.0
C464 C 0.5276 0.67017 0.19613 0.0
C465 C 0.50831 0.66374 0.11829 0.0
H466 H 0.53502 0.66861 0.35196 0.0
H467 H 0.54935 0.6795 0.18031 0.0
S468 S 0.43285 0.63536 0.15536 0.0
N469 N 0.44495 0.63653 0.26839 0.0
N470 N 0.45976 0.64711 0.08064 0.0
C471 C 0.48035 0.65279 0.14627 0.0
C472 C 0.47214 0.64683 0.24855 0.0
C473 C 0.8573 0.49665 0.41972 0.0
C474 C 0.84485 0.50454 0.49353 0.0
C475 C 0.85825 0.50472 0.32025 0.0
C476 C 0.84656 0.52078 0.29037 0.0
H477 H 0.86652 0.48429 0.4393 0.0
H478 H 0.86829 0.49837 0.26621 0.0
S479 S 0.80945 0.54476 0.45411 0.0
N480 N 0.81945 0.52818 0.52987 0.0
N481 N 0.82094 0.54308 0.34246 0.0
C482 C 0.83389 0.52866 0.36351 0.0
C483 C 0.83307 0.52057 0.46512 0.0
C484 C 0.34873 0.86404 0.4752 0.0
C485 C 0.33599 0.84198 0.40731 0.0
C486 C 0.3536 0.85974 0.57451 0.0
C487 C 0.34575 0.83319 0.61029 0.0
H488 H 0.35567 0.88491 0.45066 0.0
H489 H 0.36399 0.87742 0.62337 0.0
S490 S 0.30855 0.76808 0.46553 0.0
N491 N 0.31379 0.79244 0.3846 0.0
N492 N 0.32236 0.78418 0.57129 0.0
C493 C 0.33226 0.81084 0.54376 0.0
C494 C 0.32751 0.81528 0.44243 0.0
C495 C 0.51846 0.36419 0.69641 0.0
C496 C 0.50584 0.34438 0.77228 0.0
C497 C 0.51049 0.35777 0.59651 0.0
C498 C 0.48946 0.33132 0.56846 0.0
H499 H 0.53434 0.38501 0.71456 0.0
H500 H 0.52051 0.37379 0.5409 0.0
S501 S 0.45177 0.27121 0.7356 0.0
N502 N 0.47268 0.29648 0.81057 0.0
N503 N 0.4573 0.28476 0.62274 0.0
C504 C 0.47693 0.31119 0.64283 0.0
C505 C 0.48521 0.31761 0.7447 0.0
C506 C 0.13027 0.48037 0.90938 0.0
C507 C 0.1556 0.50176 0.94509 0.0
C508 C 0.12716 0.47161 0.80977 0.0
C509 C 0.14931 0.48387 0.74223 0.0
H510 H 0.11256 0.47081 0.95834 0.0
H511 H 0.10707 0.45568 0.78474 0.0
S512 S 0.22084 0.53812 0.80182 0.0
N513 N 0.20385 0.53324 0.90735 0.0
N514 N 0.19801 0.51677 0.72047 0.0
C515 C 0.17498 0.50461 0.77794 0.0
C516 C 0.17814 0.51356 0.87922 0.0
C517 C 0.66354 0.17236 0.93406 0.0
C518 C 0.66431 0.14896 0.89998 0.0
C519 C 0.65705 0.17455 0.03345 0.0
C520 C 0.65119 0.15347 0.10268 0.0
H521 H 0.66803 0.18914 0.8834 0.0
H522 H 0.65684 0.19296 0.05656 0.0
S523 S 0.64797 0.08692 0.05003 0.0
N524 N 0.65694 0.10355 0.94268 0.0
N525 N 0.64508 0.10786 0.12939 0.0
C526 C 0.6517 0.1299 0.06966 0.0
C527 C 0.65819 0.12761 0.96843 0.0
C528 C 0.43912 0.59487 0.94598 0.0
C529 C 0.42594 0.60386 0.87852 0.0
C530 C 0.4247 0.57658 0.02334 0.0
C531 C 0.39632 0.56602 0.03579 0.0
H532 H 0.46102 0.60238 0.94064 0.0
H533 H 0.43588 0.57025 0.07248 0.0
S534 S 0.35169 0.58232 0.87942 0.0
N535 N 0.38267 0.60071 0.82985 0.0
N536 N 0.35529 0.56562 0.9745 0.0
C537 C 0.3827 0.57462 0.96909 0.0
C538 C 0.39757 0.59375 0.89089 0.0
C539 C 0.80499 0.39557 0.16906 0.0
C540 C 0.83041 0.40672 0.21892 0.0
C541 C 0.80122 0.40967 0.0892 0.0
C542 C 0.82304 0.43493 0.05407 0.0
H543 H 0.78778 0.37608 0.19318 0.0
H544 H 0.78099 0.4008 0.0555 0.0
S545 S 0.89496 0.47048 0.15168 0.0
N546 N 0.87816 0.44331 0.22423 0.0
N547 N 0.87197 0.46878 0.07095 0.0
C548 C 0.84904 0.44531 0.10044 0.0
C549 C 0.85247 0.43153 0.18381 0.0
C550 C 0.4084 0.80744 0.21482 0.0
C551 C 0.40094 0.82697 0.1861 0.0
C552 C 0.41976 0.80853 0.30919 0.0
C553 C 0.42441 0.82936 0.37831 0.0
H554 H 0.40563 0.79128 0.16369 0.0
H555 H 0.42573 0.79337 0.32702 0.0
S556 S 0.40963 0.88628 0.33774 0.0
N557 N 0.39957 0.86815 0.23379 0.0
N558 N 0.42076 0.87016 0.41062 0.0
C559 C 0.41646 0.84868 0.35132 0.0
C560 C 0.40489 0.84756 0.25523 0.0
C561 C 0.55526 0.42557 0.38191 0.0
C562 C 0.56295 0.40908 0.32733 0.0
C563 C 0.56607 0.43536 0.47683 0.0
C564 C 0.58588 0.43002 0.5192 0.0
H565 H 0.54019 0.43041 0.35224 0.0
H566 H 0.55947 0.44799 0.5159 0.0
S567 S 0.61356 0.38858 0.40544 0.0
N568 N 0.59111 0.38736 0.32269 0.0
N569 N 0.61327 0.40777 0.49856 0.0
C570 C 0.59422 0.41403 0.46465 0.0
C571 C 0.5823 0.40306 0.36935 0.0
C572 C 0.18776 0.58467 0.52018 0.0
C573 C 0.16131 0.56947 0.47815 0.0
C574 C 0.19297 0.60319 0.59936 0.0
C575 C 0.17168 0.60638 0.6418 0.0
H576 H 0.20465 0.58275 0.49 0.0
H577 H 0.21389 0.61534 0.62653 0.0
S578 S 0.0978 0.5678 0.56615 0.0
N579 N 0.11332 0.55728 0.48802 0.0
N580 N 0.12231 0.58997 0.64048 0.0
C581 C 0.14476 0.58972 0.60374 0.0
C582 C 0.1398 0.5719 0.52086 0.0
C583 C 0.59211 0.17163 0.69624 0.0
C584 C 0.58494 0.14697 0.6452 0.0
C585 C 0.57881 0.17138 0.7857 0.0
C586 C 0.55922 0.14637 0.82989 0.0
H587 H 0.60787 0.19118 0.6663 0.0
H588 H 0.58414 0.19079 0.82126 0.0
S589 S 0.53405 0.07616 0.72774 0.0
N590 N 0.55622 0.09704 0.64407 0.0
N591 N 0.53402 0.09638 0.81706 0.0
C592 C 0.55256 0.12163 0.7808 0.0
C593 C 0.5647 0.12198 0.68719 0.0
C594 C 0.25836 0.50154 0.23018 0.0
C595 C 0.25676 0.47635 0.20541 0.0
C596 C 0.23495 0.50243 0.26267 0.0
C597 C 0.20911 0.47819 0.27046 0.0
H598 H 0.27793 0.52059 0.22686 0.0
H599 H 0.2371 0.52223 0.28119 0.0
S600 S 0.19399 0.40715 0.21009 0.0
N601 N 0.22722 0.42681 0.18784 0.0
N602 N 0.18345 0.42832 0.24855 0.0
C603 C 0.2073 0.45296 0.24429 0.0
C604 C 0.23105 0.45209 0.21183 0.0
C605 C 0.75231 0.2645 0.41487 0.0
C606 C 0.77701 0.26488 0.39213 0.0
C607 C 0.72823 0.23968 0.43884 0.0
C608 C 0.72803 0.21442 0.43971 0.0
H609 H 0.75174 0.28355 0.41651 0.0
H610 H 0.70969 0.2403 0.45645 0.0
S611 S 0.78732 0.20446 0.38039 0.0
N612 N 0.79959 0.2379 0.36842 0.0
N613 N 0.7548 0.19153 0.41311 0.0
C614 C 0.7526 0.21464 0.41531 0.0
C615 C 0.77697 0.23979 0.39158 0.0
C616 C 0.53349 0.7769 0.61924 0.0
C617 C 0.50845 0.77565 0.59547 0.0
C618 C 0.53427 0.75371 0.65278 0.0
C619 C 0.51004 0.72816 0.6647 0.0
H620 H 0.55288 0.79602 0.61171 0.0
H621 H 0.55422 0.75593 0.66917 0.0
S622 S 0.4389 0.7137 0.61396 0.0
N623 N 0.45859 0.74673 0.58705 0.0
N624 N 0.46004 0.70286 0.65027 0.0
C625 C 0.4847 0.72649 0.64196 0.0
C626 C 0.48392 0.75026 0.60699 0.0
C627 C 0.75284 0.48797 0.81308 0.0
C628 C 0.77802 0.51269 0.79944 0.0
C629 C 0.72789 0.4852 0.77785 0.0
C630 C 0.72744 0.5071 0.72831 0.0
H631 H 0.7523 0.47087 0.85281 0.0
H632 H 0.7088 0.46633 0.79325 0.0
S633 S 0.78758 0.57495 0.66412 0.0
N634 N 0.80073 0.5587 0.7255 0.0
N635 N 0.75412 0.55325 0.66034 0.0
C636 C 0.75247 0.53135 0.71054 0.0
C637 C 0.7777 0.53422 0.74587 0.0
C638 C 0.26878 0.75344 0.92667 0.0
C639 C 0.26881 0.77572 0.97523 0.0
C640 C 0.24396 0.7306 0.89386 0.0
C641 C 0.21848 0.72936 0.90905 0.0
H642 H 0.28809 0.75429 0.90962 0.0
H643 H 0.24483 0.71419 0.85429 0.0
S644 S 0.2079 0.7816 0.04309 0.0
N645 N 0.24153 0.79433 0.04408 0.0
N646 N 0.19511 0.75187 0.98401 0.0
C647 C 0.21842 0.75111 0.9622 0.0
C648 C 0.24354 0.77416 0.99489 0.0
C649 C 0.51292 0.26923 0.05172 0.0
C650 C 0.49484 0.26917 0.12457 0.0
C651 C 0.51194 0.24453 0.02333 0.0
C652 C 0.49278 0.21921 0.06695 0.0
H653 H 0.52672 0.28812 0.01266 0.0
H654 H 0.52525 0.24507 0.9638 0.0
S655 S 0.44445 0.20945 0.27321 0.0
N656 N 0.45966 0.24267 0.24712 0.0
N657 N 0.45804 0.19651 0.19622 0.0
C658 C 0.47604 0.21947 0.1448 0.0
C659 C 0.47699 0.24441 0.17289 0.0
C660 C 0.42606 0.4407 0.08978 0.0
C661 C 0.41322 0.44351 0.17556 0.0
C662 C 0.4411 0.42688 0.09312 0.0
C663 C 0.44383 0.41512 0.1822 0.0
H664 H 0.42378 0.44849 0.0186 0.0
H665 H 0.45038 0.42508 0.0248 0.0
S666 S 0.41548 0.4181 0.42917 0.0
N667 N 0.4059 0.43509 0.35387 0.0
N668 N 0.43281 0.40778 0.35906 0.0
C669 C 0.43168 0.41837 0.26916 0.0
C670 C 0.41667 0.4328 0.26601 0.0
C671 C 0.98052 0.43353 0.26813 0.0
C672 C 0.96539 0.42378 0.3571 0.0
C673 C 0.00939 0.44811 0.2688 0.0
C674 C 0.02439 0.4534 0.3583 0.0
H675 H 0.97007 0.42892 0.19683 0.0
H676 H 0.02007 0.45469 0.19809 0.0
S677 S 0.99449 0.43439 0.61262 0.0
N678 N 0.96751 0.42272 0.53808 0.0
N679 N 0.02172 0.44873 0.53901 0.0
C680 C 0.0095 0.44475 0.44825 0.0
C681 C 0.98006 0.43023 0.44764 0.0
C682 C 0.5903 0.00727 0.49631 0.0
C683 C 0.57741 0.02294 0.51301 0.0
C684 C 0.57531 0.97848 0.49881 0.0
C685 C 0.54682 0.96424 0.51746 0.0
H686 H 0.61226 0.01735 0.4823 0.0
H687 H 0.5861 0.96723 0.4856 0.0
S688 S 0.50323 0.99551 0.56572 0.0
N689 N 0.53446 0.02214 0.54853 0.0
N690 N 0.50619 0.96774 0.5533 0.0
C691 C 0.53357 0.97955 0.53381 0.0
C692 C 0.54891 0.00898 0.53201 0.0
C693 C 0.57147 0.55632 0.5932 0.0
C694 C 0.57402 0.54287 0.67763 0.0
C695 C 0.55733 0.57103 0.59817 0.0
C696 C 0.54518 0.57279 0.68767 0.0
H697 H 0.58132 0.55635 0.52371 0.0
H698 H 0.55628 0.58148 0.53176 0.0
S699 S 0.5445 0.53964 0.92816 0.0
N700 N 0.56163 0.5306 0.85143 0.0
N701 N 0.53594 0.55907 0.86189 0.0
C702 C 0.54681 0.55865 0.77175 0.0
C703 C 0.56104 0.54354 0.76648 0.0
C704 C 0.0145 0.57033 0.89908 0.0
C705 C 0.02687 0.58899 0.81964 0.0
C706 C 0.98589 0.55648 0.91312 0.0
C707 C 0.96879 0.561 0.84864 0.0
H708 H 0.02707 0.56703 0.95247 0.0
H709 H 0.97716 0.54275 0.97636 0.0
S710 S 0.99049 0.60503 0.62282 0.0
N711 N 0.01949 0.60921 0.67061 0.0
N712 N 0.96576 0.58347 0.69812 0.0
C713 C 0.98074 0.5788 0.7671 0.0
C714 C 0.00978 0.59274 0.75235 0.0
C715 C 0.41666 0.00855 1.00182 0.0
C716 C 0.44359 0.0247 0.96487 0.0
C717 C 0.40365 0.97979 1.00332 0.0
C718 C 0.41685 0.96579 0.96696 0.0
H719 H 0.40534 0.01819 0.02944 0.0
H720 H 0.38305 0.96843 0.03401 0.0
S721 S 0.48738 -0.00173 0.86093 0.0
N722 N 0.48328 0.02453 0.89207 0.0
N723 N 0.45827 0.97023 0.89093 0.0
C724 C 0.44375 0.98157 0.92911 0.0
C725 C 0.45717 0.01104 0.92848 0.0
loop_
_geom_bond_atom_site_label_1
_geom_bond_atom_site_label_2
_geom_bond_distance
_geom_bond_site_symmetry_2
_ccdc_geom_bond_type
C0 C1 1.351 . S
C0 N3 1.368 . S
C0 H5 0.931 . S
C1 C0 1.351 . S
C1 N2 1.373 . S
C1 H29 0.930 . S
N2 C1 1.373 . S
N2 C4 1.340 . S
N3 C0 1.368 . S
N3 C4 1.321 . S
N3 Co6 2.135 1_556 S
C4 N2 1.340 . S
C4 N3 1.321 . S
C4 H28 0.930 . S
H5 C0 0.931 . S
Co6 N3 2.135 1_554 S
Co6 N9 2.121 . S
Co6 O14 2.055 . S
Co6 O17 2.039 . S
Co6 N20 2.140 . S
C7 O8 1.227 . S
C7 O17 1.265 . S
O8 C7 1.227 . S
N9 Co6 2.121 . S
N9 C11 1.375 . S
N9 C12 1.313 . S
C10 C11 1.338 . S
C10 N13 1.377 . S
C10 H30 0.930 . S
C11 N9 1.375 . S
C11 C10 1.338 . S
C11 H15 0.931 . S
C12 N9 1.313 . S
C12 N13 1.344 . S
C12 H16 0.930 . S
N13 C10 1.377 . S
N13 C12 1.344 . S
O14 Co6 2.055 . S
O14 C18 1.253 . S
H15 C11 0.931 . S
H16 C12 0.930 . S
O17 Co6 2.039 . S
O17 C7 1.265 . S
C18 O14 1.253 . S
C18 O19 1.227 . S
O19 C18 1.227 . S
N20 Co6 2.140 . S
N20 C23 1.346 . S
N20 C24 1.345 . S
C21 C22 1.387 . S
C21 C25 1.391 . S
C22 C21 1.387 . S
C22 C23 1.369 . S
C22 H31 0.929 1_554 S
C23 N20 1.346 . S
C23 C22 1.369 . S
C23 H26 0.928 1_554 S
C24 N20 1.345 . S
C24 C25 1.371 . S
C24 H27 0.931 . S
C25 C21 1.391 . S
C25 C24 1.371 . S
C25 H32 0.930 . S
H26 C23 0.928 1_556 S
H27 C24 0.931 . S
H28 C4 0.930 . S
H29 C1 0.930 . S
H30 C10 0.930 . S
H31 C22 0.929 1_556 S
H32 C25 0.930 . S
C33 C34 1.351 1_554 S
C33 N36 1.368 . S
C33 H38 0.931 . S
C34 C33 1.351 1_556 S
C34 N35 1.373 . S
C34 H62 0.930 . S
N35 C34 1.373 . S
N35 C37 1.340 1_556 S
N36 C33 1.368 . S
N36 C37 1.321 . S
N36 Co39 2.135 . S
C37 N35 1.340 1_554 S
C37 N36 1.321 . S
C37 H61 0.930 . S
H38 C33 0.931 . S
Co39 N36 2.135 . S
Co39 N42 2.121 . S
Co39 O47 2.055 . S
Co39 O50 2.039 . S
Co39 N53 2.140 . S
C40 O41 1.227 . S
C40 O50 1.265 . S
O41 C40 1.227 . S
N42 Co39 2.121 . S
N42 C44 1.375 . S
N42 C45 1.313 . S
C43 C44 1.338 . S
C43 N46 1.377 . S
C43 H63 0.930 . S
C44 N42 1.375 . S
C44 C43 1.338 . S
C44 H48 0.931 . S
C45 N42 1.313 . S
C45 N46 1.344 . S
C45 H49 0.930 . S
N46 C43 1.377 . S
N46 C45 1.344 . S
O47 Co39 2.055 . S
O47 C51 1.253 . S
H48 C44 0.931 . S
H49 C45 0.930 . S
O50 Co39 2.039 . S
O50 C40 1.265 . S
C51 O47 1.253 . S
C51 O52 1.227 . S
O52 C51 1.227 . S
N53 Co39 2.140 . S
N53 C56 1.346 . S
N53 C57 1.345 . S
C54 C55 1.387 . S
C54 C58 1.391 . S
C55 C54 1.387 . S
C55 C56 1.369 . S
C55 H64 0.929 . S
C56 N53 1.346 . S
C56 C55 1.369 . S
C56 H59 0.928 . S
C57 N53 1.345 . S
C57 C58 1.371 . S
C57 H60 0.931 . S
C58 C54 1.391 . S
C58 C57 1.371 . S
C58 H65 0.930 . S
H59 C56 0.928 . S
H60 C57 0.931 . S
H61 C37 0.930 . S
H62 C34 0.930 . S
H63 C43 0.930 . S
H64 C55 0.929 . S
H65 C58 0.930 . S
C66 C67 1.351 . S
C66 N69 1.368 . S
C66 H71 0.931 . S
C67 C66 1.351 . S
C67 N68 1.373 . S
C67 H95 0.930 . S
N68 C67 1.373 . S
N68 C70 1.340 . S
N69 C66 1.368 . S
N69 C70 1.321 . S
N69 Co72 2.135 . S
C70 N68 1.340 . S
C70 N69 1.321 . S
C70 H94 0.930 . S
H71 C66 0.931 . S
Co72 N69 2.135 . S
Co72 N75 2.121 . S
Co72 O80 2.055 . S
Co72 O83 2.039 . S
Co72 N86 2.140 . S
C73 O74 1.227 . S
C73 O83 1.265 . S
O74 C73 1.227 . S
N75 Co72 2.121 . S
N75 C77 1.375 . S
N75 C78 1.313 . S
C76 C77 1.338 . S
C76 N79 1.377 . S
C76 H96 0.930 . S
C77 N75 1.375 . S
C77 C76 1.338 . S
C77 H81 0.931 . S
C78 N75 1.313 . S
C78 N79 1.344 . S
C78 H82 0.930 . S
N79 C76 1.377 . S
N79 C78 1.344 . S
O80 Co72 2.055 . S
O80 C84 1.253 . S
H81 C77 0.931 . S
H82 C78 0.930 . S
O83 Co72 2.039 . S
O83 C73 1.265 . S
C84 O80 1.253 . S
C84 O85 1.227 . S
O85 C84 1.227 . S
N86 Co72 2.140 . S
N86 C89 1.346 . S
N86 C90 1.345 . S
C87 C88 1.387 . S
C87 C91 1.391 . S
C88 C87 1.387 . S
C88 C89 1.369 . S
C88 H97 0.929 . S
C89 N86 1.346 . S
C89 C88 1.369 . S
C89 H92 0.928 . S
C90 N86 1.345 . S
C90 C91 1.371 . S
C90 H93 0.931 . S
C91 C87 1.391 . S
C91 C90 1.371 . S
C91 H98 0.930 . S
H92 C89 0.928 . S
H93 C90 0.931 . S
H94 C70 0.930 . S
H95 C67 0.930 . S
H96 C76 0.930 . S
H97 C88 0.929 . S
H98 C91 0.930 . S
C99 C100 1.351 . S
C99 N102 1.368 . S
C99 H104 0.931 . S
C100 C99 1.351 . S
C100 N101 1.373 . S
C100 H128 0.930 . S
N101 C100 1.373 . S
N101 C103 1.340 . S
N102 C99 1.368 . S
N102 C103 1.321 . S
N102 Co105 2.135 . S
C103 N101 1.340 . S
C103 N102 1.321 . S
C103 H127 0.930 . S
H104 C99 0.931 . S
Co105 N102 2.135 . S
Co105 N108 2.121 . S
Co105 O113 2.055 . S
Co105 O116 2.039 . S
Co105 N119 2.140 . S
C106 O107 1.227 . S
C106 O116 1.265 . S
O107 C106 1.227 . S
N108 Co105 2.121 . S
N108 C110 1.375 . S
N108 C111 1.313 . S
C109 C110 1.338 . S
C109 N112 1.377 . S
C109 H129 0.930 . S
C110 N108 1.375 . S
C110 C109 1.338 . S
C110 H114 0.931 . S
C111 N108 1.313 . S
C111 N112 1.344 . S
C111 H115 0.930 . S
N112 C109 1.377 . S
N112 C111 1.344 . S
O113 Co105 2.055 . S
O113 C117 1.253 . S
H114 C110 0.931 . S
H115 C111 0.930 . S
O116 Co105 2.039 . S
O116 C106 1.265 . S
C117 O113 1.253 . S
C117 O118 1.227 . S
O118 C117 1.227 . S
N119 Co105 2.140 . S
N119 C122 1.346 . S
N119 C123 1.345 . S
C120 C121 1.387 . S
C120 C124 1.391 . S
C121 C120 1.387 . S
C121 C122 1.369 . S
C121 H130 0.929 . S
C122 N119 1.346 . S
C122 C121 1.369 . S
C122 H125 0.928 . S
C123 N119 1.345 . S
C123 C124 1.371 . S
C123 H126 0.931 . S
C124 C120 1.391 . S
C124 C123 1.371 . S
C124 H131 0.930 . S
H125 C122 0.928 . S
H126 C123 0.931 . S
H127 C103 0.930 . S
H128 C100 0.930 . S
H129 C109 0.930 . S
H130 C121 0.929 . S
H131 C124 0.930 . S
C132 C133 1.351 . S
C132 N135 1.368 . S
C132 H137 0.931 . S
C133 C132 1.351 . S
C133 N134 1.373 . S
C133 H161 0.930 . S
N134 C133 1.373 . S
N134 C136 1.340 . S
N135 C132 1.368 . S
N135 C136 1.321 . S
N135 Co138 2.135 . S
C136 N134 1.340 . S
C136 N135 1.321 . S
C136 H160 0.930 . S
H137 C132 0.931 . S
Co138 N135 2.135 . S
Co138 N141 2.121 . S
Co138 O146 2.055 . S
Co138 O149 2.039 . S
Co138 N152 2.140 . S
C139 O140 1.227 . S
C139 O149 1.265 . S
O140 C139 1.227 . S
N141 Co138 2.121 . S
N141 C143 1.375 . S
N141 C144 1.313 . S
C142 C143 1.338 1_554 S
C142 N145 1.377 . S
C142 H162 0.930 . S
C143 N141 1.375 . S
C143 C142 1.338 1_556 S
C143 H147 0.931 . S
C144 N141 1.313 . S
C144 N145 1.344 1_556 S
C144 H148 0.930 . S
N145 C142 1.377 . S
N145 C144 1.344 1_554 S
O146 Co138 2.055 . S
O146 C150 1.253 . S
H147 C143 0.931 . S
H148 C144 0.930 . S
O149 Co138 2.039 . S
O149 C139 1.265 . S
C150 O146 1.253 . S
C150 O151 1.227 . S
O151 C150 1.227 . S
N152 Co138 2.140 . S
N152 C155 1.346 . S
N152 C156 1.345 . S
C153 C154 1.387 . S
C153 C157 1.391 . S
C154 C153 1.387 . S
C154 C155 1.369 . S
C154 H163 0.929 . S
C155 N152 1.346 . S
C155 C154 1.369 . S
C155 H158 0.928 . S
C156 N152 1.345 . S
C156 C157 1.371 . S
C156 H159 0.931 . S
C157 C153 1.391 . S
C157 C156 1.371 . S
C157 H164 0.930 . S
H158 C155 0.928 . S
H159 C156 0.931 . S
H160 C136 0.930 . S
H161 C133 0.930 . S
H162 C142 0.930 . S
H163 C154 0.929 . S
H164 C157 0.930 . S
C165 C166 1.351 . S
C165 N168 1.368 . S
C165 H170 0.931 . S
C166 C165 1.351 . S
C166 N167 1.373 . S
C166 H194 0.930 . S
N167 C166 1.373 . S
N167 C169 1.340 . S
N168 C165 1.368 . S
N168 C169 1.321 . S
N168 Co171 2.135 . S
C169 N167 1.340 . S
C169 N168 1.321 . S
C169 H193 0.930 . S
H170 C165 0.931 . S
Co171 N168 2.135 . S
Co171 N174 2.121 1_556 S
Co171 O179 2.055 . S
Co171 O182 2.039 . S
Co171 N185 2.140 . S
C172 O173 1.227 . S
C172 O182 1.265 . S
O173 C172 1.227 . S
N174 Co171 2.121 1_554 S
N174 C176 1.375 . S
N174 C177 1.313 . S
C175 C176 1.338 . S
C175 N178 1.377 . S
C175 H195 0.930 . S
C176 N174 1.375 . S
C176 C175 1.338 . S
C176 H180 0.931 . S
C177 N174 1.313 . S
C177 N178 1.344 . S
C177 H181 0.930 . S
N178 C175 1.377 . S
N178 C177 1.344 . S
O179 Co171 2.055 . S
O179 C183 1.253 . S
H180 C176 0.931 . S
H181 C177 0.930 . S
O182 Co171 2.039 . S
O182 C172 1.265 . S
C183 O179 1.253 . S
C183 O184 1.227 . S
O184 C183 1.227 . S
N185 Co171 2.140 . S
N185 C188 1.346 . S
N185 C189 1.345 1_556 S
C186 C187 1.387 . S
C186 C190 1.391 1_556 S
C187 C186 1.387 . S
C187 C188 1.369 . S
C187 H196 0.929 . S
C188 N185 1.346 . S
C188 C187 1.369 . S
C188 H191 0.928 . S
C189 N185 1.345 1_554 S
C189 C190 1.371 . S
C189 H192 0.931 . S
C190 C186 1.391 1_554 S
C190 C189 1.371 . S
C190 H197 0.930 . S
H191 C188 0.928 . S
H192 C189 0.931 . S
H193 C169 0.930 . S
H194 C166 0.930 . S
H195 C175 0.930 . S
H196 C187 0.929 . S
H197 C190 0.930 . S
C198 C199 1.351 1_556 S
C198 N201 1.368 . S
C198 H203 0.931 . S
C199 C198 1.351 1_554 S
C199 N200 1.373 . S
C199 H227 0.930 . S
N200 C199 1.373 . S
N200 C202 1.340 1_554 S
N201 C198 1.368 . S
N201 C202 1.321 . S
N201 Co204 2.135 . S
C202 N200 1.340 1_556 S
C202 N201 1.321 . S
C202 H226 0.930 . S
H203 C198 0.931 . S
Co204 N201 2.135 . S
Co204 N207 2.121 . S
Co204 O212 2.055 . S
Co204 O215 2.039 . S
Co204 N218 2.140 . S
C205 O206 1.227 . S
C205 O215 1.265 . S
O206 C205 1.227 . S
N207 Co204 2.121 . S
N207 C209 1.375 . S
N207 C210 1.313 . S
C208 C209 1.338 . S
C208 N211 1.377 . S
C208 H228 0.930 . S
C209 N207 1.375 . S
C209 C208 1.338 . S
C209 H213 0.931 . S
C210 N207 1.313 . S
C210 N211 1.344 . S
C210 H214 0.930 . S
N211 C208 1.377 . S
N211 C210 1.344 . S
O212 Co204 2.055 . S
O212 C216 1.253 . S
H213 C209 0.931 . S
H214 C210 0.930 . S
O215 Co204 2.039 . S
O215 C205 1.265 . S
C216 O212 1.253 . S
C216 O217 1.227 . S
O217 C216 1.227 . S
N218 Co204 2.140 . S
N218 C221 1.346 . S
N218 C222 1.345 . S
C219 C220 1.387 . S
C219 C223 1.391 . S
C220 C219 1.387 . S
C220 C221 1.369 . S
C220 H229 0.929 . S
C221 N218 1.346 . S
C221 C220 1.369 . S
C221 H224 0.928 . S
C222 N218 1.345 . S
C222 C223 1.371 . S
C222 H225 0.931 . S
C223 C219 1.391 . S
C223 C222 1.371 . S
C223 H230 0.930 . S
H224 C221 0.928 . S
H225 C222 0.931 . S
H226 C202 0.930 . S
H227 C199 0.930 . S
H228 C208 0.930 . S
H229 C220 0.929 . S
H230 C223 0.930 . S
C231 C232 1.351 . S
C231 N234 1.368 . S
C231 H236 0.931 . S
C232 C231 1.351 . S
C232 N233 1.373 . S
C232 H260 0.930 . S
N233 C232 1.373 . S
N233 C235 1.340 . S
N234 C231 1.368 . S
N234 C235 1.321 . S
N234 Co237 2.135 1_554 S
C235 N233 1.340 . S
C235 N234 1.321 . S
C235 H259 0.930 . S
H236 C231 0.931 . S
Co237 N234 2.135 1_556 S
Co237 N240 2.121 . S
Co237 O245 2.055 . S
Co237 O248 2.039 . S
Co237 N251 2.140 . S
C238 O239 1.227 . S
C238 O248 1.265 . S
O239 C238 1.227 . S
N240 Co237 2.121 . S
N240 C242 1.375 . S
N240 C243 1.313 . S
C241 C242 1.338 . S
C241 N244 1.377 . S
C241 H261 0.930 . S
C242 N240 1.375 . S
C242 C241 1.338 . S
C242 H246 0.931 . S
C243 N240 1.313 . S
C243 N244 1.344 . S
C243 H247 0.930 . S
N244 C241 1.377 . S
N244 C243 1.344 . S
O245 Co237 2.055 . S
O245 C249 1.253 . S
H246 C242 0.931 . S
H247 C243 0.930 . S
O248 Co237 2.039 . S
O248 C238 1.265 . S
C249 O245 1.253 . S
C249 O250 1.227 . S
O250 C249 1.227 . S
N251 Co237 2.140 . S
N251 C254 1.346 . S
N251 C255 1.345 . S
C252 C253 1.387 . S
C252 C256 1.391 . S
C253 C252 1.387 . S
C253 C254 1.369 . S
C253 H262 0.929 1_556 S
C254 N251 1.346 . S
C254 C253 1.369 . S
C254 H257 0.928 1_556 S
C255 N251 1.345 . S
C255 C256 1.371 . S
C255 H258 0.931 . S
C256 C252 1.391 . S
C256 C255 1.371 . S
C256 H263 0.930 . S
H257 C254 0.928 1_554 S
H258 C255 0.931 . S
H259 C235 0.930 . S
H260 C232 0.930 . S
H261 C241 0.930 . S
H262 C253 0.929 1_554 S
H263 C256 0.930 . S
C264 C265 1.351 . S
C264 N267 1.368 . S
C264 H269 0.931 . S
C265 C264 1.351 . S
C265 N266 1.373 . S
C265 H293 0.930 . S
N266 C265 1.373 . S
N266 C268 1.340 . S
N267 C264 1.368 . S
N267 C268 1.321 . S
N267 Co270 2.135 . S
C268 N266 1.340 . S
C268 N267 1.321 . S
C268 H292 0.930 . S
H269 C264 0.931 . S
Co270 N267 2.135 . S
Co270 N273 2.121 1_554 S
Co270 O278 2.055 . S
Co270 O281 2.039 . S
Co270 N284 2.140 . S
C271 O272 1.227 . S
C271 O281 1.265 . S
O272 C271 1.227 . S
N273 Co270 2.121 1_556 S
N273 C275 1.375 . S
N273 C276 1.313 . S
C274 C275 1.338 . S
C274 N277 1.377 . S
C274 H294 0.930 . S
C275 N273 1.375 . S
C275 C274 1.338 . S
C275 H279 0.931 . S
C276 N273 1.313 . S
C276 N277 1.344 . S
C276 H280 0.930 . S
N277 C274 1.377 . S
N277 C276 1.344 . S
O278 Co270 2.055 . S
O278 C282 1.253 . S
H279 C275 0.931 . S
H280 C276 0.930 . S
O281 Co270 2.039 . S
O281 C271 1.265 . S
C282 O278 1.253 . S
C282 O283 1.227 . S
O283 C282 1.227 . S
N284 Co270 2.140 . S
N284 C287 1.346 . S
N284 C288 1.345 1_554 S
C285 C286 1.387 . S
C285 C289 1.391 1_554 S
C286 C285 1.387 . S
C286 C287 1.369 . S
C286 H295 0.929 . S
C287 N284 1.346 . S
C287 C286 1.369 . S
C287 H290 0.928 . S
C288 N284 1.345 1_556 S
C288 C289 1.371 . S
C288 H291 0.931 . S
C289 C285 1.391 1_556 S
C289 C288 1.371 . S
C289 H296 0.930 . S
H290 C287 0.928 . S
H291 C288 0.931 . S
H292 C268 0.930 . S
H293 C265 0.930 . S
H294 C274 0.930 . S
H295 C286 0.929 . S
H296 C289 0.930 . S
C297 C298 1.351 . S
C297 N300 1.368 . S
C297 H302 0.931 . S
C298 C297 1.351 . S
C298 N299 1.373 . S
C298 H326 0.930 . S
N299 C298 1.373 . S
N299 C301 1.340 . S
N300 C297 1.368 . S
N300 C301 1.321 . S
N300 Co303 2.135 . S
C301 N299 1.340 . S
C301 N300 1.321 . S
C301 H325 0.930 . S
H302 C297 0.931 . S
Co303 N300 2.135 . S
Co303 N306 2.121 . S
Co303 O311 2.055 . S
Co303 O314 2.039 . S
Co303 N317 2.140 . S
C304 O305 1.227 . S
C304 O314 1.265 . S
O305 C304 1.227 . S
N306 Co303 2.121 . S
N306 C308 1.375 . S
N306 C309 1.313 . S
C307 C308 1.338 1_556 S
C307 N310 1.377 . S
C307 H327 0.930 . S
C308 N306 1.375 . S
C308 C307 1.338 1_554 S
C308 H312 0.931 . S
C309 N306 1.313 . S
C309 N310 1.344 1_554 S
C309 H313 0.930 . S
N310 C307 1.377 . S
N310 C309 1.344 1_556 S
O311 Co303 2.055 . S
O311 C315 1.253 . S
H312 C308 0.931 . S
H313 C309 0.930 . S
O314 Co303 2.039 . S
O314 C304 1.265 . S
C315 O311 1.253 . S
C315 O316 1.227 . S
O316 C315 1.227 . S
N317 Co303 2.140 . S
N317 C320 1.346 . S
N317 C321 1.345 . S
C318 C319 1.387 . S
C318 C322 1.391 . S
C319 C318 1.387 . S
C319 C320 1.369 . S
C319 H328 0.929 . S
C320 N317 1.346 . S
C320 C319 1.369 . S
C320 H323 0.928 . S
C321 N317 1.345 . S
C321 C322 1.371 . S
C321 H324 0.931 . S
C322 C318 1.391 . S
C322 C321 1.371 . S
C322 H329 0.930 . S
H323 C320 0.928 . S
H324 C321 0.931 . S
H325 C301 0.930 . S
H326 C298 0.930 . S
H327 C307 0.930 . S
H328 C319 0.929 . S
H329 C322 0.930 . S
C330 C331 1.351 . S
C330 N333 1.368 . S
C330 H335 0.931 . S
C331 C330 1.351 . S
C331 N332 1.373 . S
C331 H359 0.930 . S
N332 C331 1.373 . S
N332 C334 1.340 . S
N333 C330 1.368 . S
N333 C334 1.321 . S
N333 Co336 2.135 . S
C334 N332 1.340 . S
C334 N333 1.321 . S
C334 H358 0.930 . S
H335 C330 0.931 . S
Co336 N333 2.135 . S
Co336 N339 2.121 . S
Co336 O344 2.055 . S
Co336 O347 2.039 . S
Co336 N350 2.140 . S
C337 O338 1.227 . S
C337 O347 1.265 . S
O338 C337 1.227 . S
N339 Co336 2.121 . S
N339 C341 1.375 . S
N339 C342 1.313 . S
C340 C341 1.338 . S
C340 N343 1.377 . S
C340 H360 0.930 . S
C341 N339 1.375 . S
C341 C340 1.338 . S
C341 H345 0.931 . S
C342 N339 1.313 . S
C342 N343 1.344 . S
C342 H346 0.930 . S
N343 C340 1.377 . S
N343 C342 1.344 . S
O344 Co336 2.055 . S
O344 C348 1.253 . S
H345 C341 0.931 . S
H346 C342 0.930 . S
O347 Co336 2.039 . S
O347 C337 1.265 . S
C348 O344 1.253 . S
C348 O349 1.227 . S
O349 C348 1.227 . S
N350 Co336 2.140 . S
N350 C353 1.346 . S
N350 C354 1.345 . S
C351 C352 1.387 . S
C351 C355 1.391 . S
C352 C351 1.387 . S
C352 C353 1.369 . S
C352 H361 0.929 . S
C353 N350 1.346 . S
C353 C352 1.369 . S
C353 H356 0.928 . S
C354 N350 1.345 . S
C354 C355 1.371 . S
C354 H357 0.931 . S
C355 C351 1.391 . S
C355 C354 1.371 . S
C355 H362 0.930 . S
H356 C353 0.928 . S
H357 C354 0.931 . S
H358 C334 0.930 . S
H359 C331 0.930 . S
H360 C340 0.930 . S
H361 C352 0.929 . S
H362 C355 0.930 . S
C363 C364 1.351 . S
C363 N366 1.368 . S
C363 H368 0.931 . S
C364 C363 1.351 . S
C364 N365 1.373 . S
C364 H392 0.930 . S
N365 C364 1.373 . S
N365 C367 1.340 . S
N366 C363 1.368 . S
N366 C367 1.321 . S
N366 Co369 2.135 . S
C367 N365 1.340 . S
C367 N366 1.321 . S
C367 H391 0.930 . S
H368 C363 0.931 . S
Co369 N366 2.135 . S
Co369 N372 2.121 . S
Co369 O377 2.055 . S
Co369 O380 2.039 . S
Co369 N383 2.140 . S
C370 O371 1.227 . S
C370 O380 1.265 . S
O371 C370 1.227 . S
N372 Co369 2.121 . S
N372 C374 1.375 . S
N372 C375 1.313 . S
C373 C374 1.338 . S
C373 N376 1.377 . S
C373 H393 0.930 . S
C374 N372 1.375 . S
C374 C373 1.338 . S
C374 H378 0.931 . S
C375 N372 1.313 . S
C375 N376 1.344 . S
C375 H379 0.930 . S
N376 C373 1.377 . S
N376 C375 1.344 . S
O377 Co369 2.055 . S
O377 C381 1.253 . S
H378 C374 0.931 . S
H379 C375 0.930 . S
O380 Co369 2.039 . S
O380 C370 1.265 . S
C381 O377 1.253 . S
C381 O382 1.227 . S
O382 C381 1.227 . S
N383 Co369 2.140 . S
N383 C386 1.346 . S
N383 C387 1.345 . S
C384 C385 1.387 . S
C384 C388 1.391 . S
C385 C384 1.387 . S
C385 C386 1.369 . S
C385 H394 0.929 . S
C386 N383 1.346 . S
C386 C385 1.369 . S
C386 H389 0.928 . S
C387 N383 1.345 . S
C387 C388 1.371 . S
C387 H390 0.931 . S
C388 C384 1.391 . S
C388 C387 1.371 . S
C388 H395 0.930 . S
H389 C386 0.928 . S
H390 C387 0.931 . S
H391 C367 0.930 . S
H392 C364 0.930 . S
H393 C373 0.930 . S
H394 C385 0.929 . S
H395 C388 0.930 . S
C396 C397 1.369 . S
C396 C398 1.419 . S
C396 H400 0.930 . S
C397 C396 1.369 . S
C397 C406 1.429 . S
C398 C396 1.419 . S
C398 C399 1.363 . S
C398 H401 0.929 . S
C399 C398 1.363 . S
C399 C405 1.428 . S
H400 C396 0.930 . S
H401 C398 0.929 . S
S402 N403 1.613 . S
S402 N404 1.610 . S
N403 S402 1.613 . S
N403 C406 1.350 . S
N404 S402 1.610 . S
N404 C405 1.351 . S
C405 C399 1.428 . S
C405 N404 1.351 . S
C405 C406 1.434 . S
C406 C397 1.429 . S
C406 N403 1.350 . S
C406 C405 1.434 . S
C407 C408 1.369 . S
C407 C409 1.419 . S
C407 H411 0.930 . S
C408 C407 1.369 . S
C408 C417 1.429 . S
C409 C407 1.419 . S
C409 C410 1.363 . S
C409 H412 0.929 . S
C410 C409 1.363 . S
C410 C416 1.428 . S
H411 C407 0.930 . S
H412 C409 0.929 . S
S413 N414 1.613 . S
S413 N415 1.610 . S
N414 S413 1.613 . S
N414 C417 1.350 . S
N415 S413 1.610 . S
N415 C416 1.351 . S
C416 C410 1.428 . S
C416 N415 1.351 . S
C416 C417 1.434 . S
C417 C408 1.429 . S
C417 N414 1.350 . S
C417 C416 1.434 . S
C418 C419 1.369 . S
C418 C420 1.419 1_554 S
C418 H422 0.930 . S
C419 C418 1.369 . S
C419 C428 1.429 1_554 S
C420 C418 1.419 1_556 S
C420 C421 1.363 . S
C420 H423 0.929 . S
C421 C420 1.363 . S
C421 C427 1.428 . S
H422 C418 0.930 . S
H423 C420 0.929 . S
S424 N425 1.613 . S
S424 N426 1.610 . S
N425 S424 1.613 . S
N425 C428 1.350 . S
N426 S424 1.610 . S
N426 C427 1.351 . S
C427 C421 1.428 . S
C427 N426 1.351 . S
C427 C428 1.434 . S
C428 C419 1.429 1_556 S
C428 N425 1.350 . S
C428 C427 1.434 . S
C429 C430 1.369 1_554 S
C429 C431 1.419 . S
C429 H433 0.930 1_554 S
C430 C429 1.369 1_556 S
C430 C439 1.429 1_556 S
C431 C429 1.419 . S
C431 C432 1.363 . S
C431 H434 0.929 . S
C432 C431 1.363 . S
C432 C438 1.428 . S
H433 C429 0.930 1_556 S
H434 C431 0.929 . S
S435 N436 1.613 . S
S435 N437 1.610 . S
N436 S435 1.613 . S
N436 C439 1.350 . S
N437 S435 1.610 . S
N437 C438 1.351 . S
C438 C432 1.428 . S
C438 N437 1.351 . S
C438 C439 1.434 . S
C439 C430 1.429 1_554 S
C439 N436 1.350 . S
C439 C438 1.434 . S
C440 C441 1.369 . S
C440 C442 1.419 . S
C440 H444 0.930 . S
C441 C440 1.369 . S
C441 C450 1.429 . S
C442 C440 1.419 . S
C442 C443 1.363 . S
C442 H445 0.929 . S
C443 C442 1.363 . S
C443 C449 1.428 . S
H444 C440 0.930 . S
H445 C442 0.929 . S
S446 N447 1.613 . S
S446 N448 1.610 . S
N447 S446 1.613 . S
N447 C450 1.350 . S
N448 S446 1.610 . S
N448 C449 1.351 . S
C449 C443 1.428 . S
C449 N448 1.351 . S
C449 C450 1.434 . S
C450 C441 1.429 . S
C450 N447 1.350 . S
C450 C449 1.434 . S
C451 C452 1.369 . S
C451 C453 1.419 . S
C451 H455 0.930 . S
C452 C451 1.369 . S
C452 C461 1.429 . S
C453 C451 1.419 . S
C453 C454 1.363 . S
C453 H456 0.929 . S
C454 C453 1.363 . S
C454 C460 1.428 . S
H455 C451 0.930 . S
H456 C453 0.929 . S
S457 N458 1.613 . S
S457 N459 1.610 . S
N458 S457 1.613 . S
N458 C461 1.350 . S
N459 S457 1.610 . S
N459 C460 1.351 . S
C460 C454 1.428 . S
C460 N459 1.351 . S
C460 C461 1.434 . S
C461 C452 1.429 . S
C461 N458 1.350 . S
C461 C460 1.434 . S
C462 C463 1.369 . S
C462 C464 1.419 . S
C462 H466 0.930 . S
C463 C462 1.369 . S
C463 C472 1.429 . S
C464 C462 1.419 . S
C464 C465 1.363 . S
C464 H467 0.929 . S
C465 C464 1.363 . S
C465 C471 1.428 . S
H466 C462 0.930 . S
H467 C464 0.929 . S
S468 N469 1.613 . S
S468 N470 1.610 . S
N469 S468 1.613 . S
N469 C472 1.350 . S
N470 S468 1.610 . S
N470 C471 1.351 . S
C471 C465 1.428 . S
C471 N470 1.351 . S
C471 C472 1.434 . S
C472 C463 1.429 . S
C472 N469 1.350 . S
C472 C471 1.434 . S
C473 C474 1.369 . S
C473 C475 1.419 . S
C473 H477 0.930 . S
C474 C473 1.369 . S
C474 C483 1.429 . S
C475 C473 1.419 . S
C475 C476 1.363 . S
C475 H478 0.929 . S
C476 C475 1.363 . S
C476 C482 1.428 . S
H477 C473 0.930 . S
H478 C475 0.929 . S
S479 N480 1.613 . S
S479 N481 1.610 . S
N480 S479 1.613 . S
N480 C483 1.350 . S
N481 S479 1.610 . S
N481 C482 1.351 . S
C482 C476 1.428 . S
C482 N481 1.351 . S
C482 C483 1.434 . S
C483 C474 1.429 . S
C483 N480 1.350 . S
C483 C482 1.434 . S
C484 C485 1.369 . S
C484 C486 1.419 . S
C484 H488 0.930 . S
C485 C484 1.369 . S
C485 C494 1.429 . S
C486 C484 1.419 . S
C486 C487 1.363 . S
C486 H489 0.929 . S
C487 C486 1.363 . S
C487 C493 1.428 . S
H488 C484 0.930 . S
H489 C486 0.929 . S
S490 N491 1.613 . S
S490 N492 1.610 . S
N491 S490 1.613 . S
N491 C494 1.350 . S
N492 S490 1.610 . S
N492 C493 1.351 . S
C493 C487 1.428 . S
C493 N492 1.351 . S
C493 C494 1.434 . S
C494 C485 1.429 . S
C494 N491 1.350 . S
C494 C493 1.434 . S
C495 C496 1.369 . S
C495 C497 1.419 . S
C495 H499 0.930 . S
C496 C495 1.369 . S
C496 C505 1.429 . S
C497 C495 1.419 . S
C497 C498 1.363 . S
C497 H500 0.929 . S
C498 C497 1.363 . S
C498 C504 1.428 . S
H499 C495 0.930 . S
H500 C497 0.929 . S
S501 N502 1.613 . S
S501 N503 1.610 . S
N502 S501 1.613 . S
N502 C505 1.350 . S
N503 S501 1.610 . S
N503 C504 1.351 . S
C504 C498 1.428 . S
C504 N503 1.351 . S
C504 C505 1.434 . S
C505 C496 1.429 . S
C505 N502 1.350 . S
C505 C504 1.434 . S
C506 C507 1.369 1_556 S
C506 C508 1.419 . S
C506 H510 0.930 1_556 S
C507 C506 1.369 1_554 S
C507 C516 1.429 1_554 S
C508 C506 1.419 . S
C508 C509 1.363 . S
C508 H511 0.929 . S
C509 C508 1.363 . S
C509 C515 1.428 . S
H510 C506 0.930 1_554 S
H511 C508 0.929 . S
S512 N513 1.613 . S
S512 N514 1.610 . S
N513 S512 1.613 . S
N513 C516 1.350 . S
N514 S512 1.610 . S
N514 C515 1.351 . S
C515 C509 1.428 . S
C515 N514 1.351 . S
C515 C516 1.434 . S
C516 C507 1.429 1_556 S
C516 N513 1.350 . S
C516 C515 1.434 . S
C517 C518 1.369 . S
C517 C519 1.419 1_556 S
C517 H521 0.930 . S
C518 C517 1.369 . S
C518 C527 1.429 1_556 S
C519 C517 1.419 1_554 S
C519 C520 1.363 . S
C519 H522 0.929 . S
C520 C519 1.363 . S
C520 C526 1.428 . S
H521 C517 0.930 . S
H522 C519 0.929 . S
S523 N524 1.613 . S
S523 N525 1.610 . S
N524 S523 1.613 . S
N524 C527 1.350 . S
N525 S523 1.610 . S
N525 C526 1.351 . S
C526 C520 1.428 . S
C526 N525 1.351 . S
C526 C527 1.434 . S
C527 C518 1.429 1_554 S
C527 N524 1.350 . S
C527 C526 1.434 . S
C528 C529 1.369 . S
C528 C530 1.419 . S
C528 H532 0.930 . S
C529 C528 1.369 . S
C529 C538 1.429 . S
C530 C528 1.419 . S
C530 C531 1.363 . S
C530 H533 0.929 1_556 S
C531 C530 1.363 . S
C531 C537 1.428 . S
H532 C528 0.930 . S
H533 C530 0.929 1_554 S
S534 N535 1.613 . S
S534 N536 1.610 . S
N535 S534 1.613 . S
N535 C538 1.350 . S
N536 S534 1.610 . S
N536 C537 1.351 . S
C537 C531 1.428 . S
C537 N536 1.351 . S
C537 C538 1.434 . S
C538 C529 1.429 . S
C538 N535 1.350 . S
C538 C537 1.434 . S
C539 C540 1.369 . S
C539 C541 1.419 . S
C539 H543 0.930 . S
C540 C539 1.369 . S
C540 C549 1.429 . S
C541 C539 1.419 . S
C541 C542 1.363 . S
C541 H544 0.929 1_554 S
C542 C541 1.363 . S
C542 C548 1.428 . S
H543 C539 0.930 . S
H544 C541 0.929 1_556 S
S545 N546 1.613 . S
S545 N547 1.610 . S
N546 S545 1.613 . S
N546 C549 1.350 . S
N547 S545 1.610 . S
N547 C548 1.351 . S
C548 C542 1.428 . S
C548 N547 1.351 . S
C548 C549 1.434 . S
C549 C540 1.429 . S
C549 N546 1.350 . S
C549 C548 1.434 . S
C550 C551 1.369 . S
C550 C552 1.419 . S
C550 H554 0.930 . S
C551 C550 1.369 . S
C551 C560 1.429 . S
C552 C550 1.419 . S
C552 C553 1.363 . S
C552 H555 0.929 . S
C553 C552 1.363 . S
C553 C559 1.428 . S
H554 C550 0.930 . S
H555 C552 0.929 . S
S556 N557 1.613 . S
S556 N558 1.610 . S
N557 S556 1.613 . S
N557 C560 1.350 . S
N558 S556 1.610 . S
N558 C559 1.351 . S
C559 C553 1.428 . S
C559 N558 1.351 . S
C559 C560 1.434 . S
C560 C551 1.429 . S
C560 N557 1.350 . S
C560 C559 1.434 . S
C561 C562 1.369 . S
C561 C563 1.419 . S
C561 H565 0.930 . S
C562 C561 1.369 . S
C562 C571 1.429 . S
C563 C561 1.419 . S
C563 C564 1.363 . S
C563 H566 0.929 . S
C564 C563 1.363 . S
C564 C570 1.428 . S
H565 C561 0.930 . S
H566 C563 0.929 . S
S567 N568 1.613 . S
S567 N569 1.610 . S
N568 S567 1.613 . S
N568 C571 1.350 . S
N569 S567 1.610 . S
N569 C570 1.351 . S
C570 C564 1.428 . S
C570 N569 1.351 . S
C570 C571 1.434 . S
C571 C562 1.429 . S
C571 N568 1.350 . S
C571 C570 1.434 . S
C572 C573 1.369 . S
C572 C574 1.419 . S
C572 H576 0.930 . S
C573 C572 1.369 . S
C573 C582 1.429 . S
C574 C572 1.419 . S
C574 C575 1.363 . S
C574 H577 0.929 . S
C575 C574 1.363 . S
C575 C581 1.428 . S
H576 C572 0.930 . S
H577 C574 0.929 . S
S578 N579 1.613 . S
S578 N580 1.610 . S
N579 S578 1.613 . S
N579 C582 1.350 . S
N580 S578 1.610 . S
N580 C581 1.351 . S
C581 C575 1.428 . S
C581 N580 1.351 . S
C581 C582 1.434 . S
C582 C573 1.429 . S
C582 N579 1.350 . S
C582 C581 1.434 . S
C583 C584 1.369 . S
C583 C585 1.419 . S
C583 H587 0.930 . S
C584 C583 1.369 . S
C584 C593 1.429 . S
C585 C583 1.419 . S
C585 C586 1.363 . S
C585 H588 0.929 . S
C586 C585 1.363 . S
C586 C592 1.428 . S
H587 C583 0.930 . S
H588 C585 0.929 . S
S589 N590 1.613 . S
S589 N591 1.610 . S
N590 S589 1.613 . S
N590 C593 1.350 . S
N591 S589 1.610 . S
N591 C592 1.351 . S
C592 C586 1.428 . S
C592 N591 1.351 . S
C592 C593 1.434 . S
C593 C584 1.429 . S
C593 N590 1.350 . S
C593 C592 1.434 . S
C594 C595 1.369 . S
C594 C596 1.419 . S
C594 H598 0.930 . S
C595 C594 1.369 . S
C595 C604 1.429 . S
C596 C594 1.419 . S
C596 C597 1.363 . S
C596 H599 0.929 . S
C597 C596 1.363 . S
C597 C603 1.428 . S
H598 C594 0.930 . S
H599 C596 0.929 . S
S600 N601 1.613 . S
S600 N602 1.610 . S
N601 S600 1.613 . S
N601 C604 1.350 . S
N602 S600 1.610 . S
N602 C603 1.351 . S
C603 C597 1.428 . S
C603 N602 1.351 . S
C603 C604 1.434 . S
C604 C595 1.429 . S
C604 N601 1.350 . S
C604 C603 1.434 . S
C605 C606 1.369 . S
C605 C607 1.419 . S
C605 H609 0.930 . S
C606 C605 1.369 . S
C606 C615 1.429 . S
C607 C605 1.419 . S
C607 C608 1.363 . S
C607 H610 0.929 . S
C608 C607 1.363 . S
C608 C614 1.428 . S
H609 C605 0.930 . S
H610 C607 0.929 . S
S611 N612 1.613 . S
S611 N613 1.610 . S
N612 S611 1.613 . S
N612 C615 1.350 . S
N613 S611 1.610 . S
N613 C614 1.351 . S
C614 C608 1.428 . S
C614 N613 1.351 . S
C614 C615 1.434 . S
C615 C606 1.429 . S
C615 N612 1.350 . S
C615 C614 1.434 . S
C616 C617 1.369 . S
C616 C618 1.419 . S
C616 H620 0.930 . S
C617 C616 1.369 . S
C617 C626 1.429 . S
C618 C616 1.419 . S
C618 C619 1.363 . S
C618 H621 0.929 . S
C619 C618 1.363 . S
C619 C625 1.428 . S
H620 C616 0.930 . S
H621 C618 0.929 . S
S622 N623 1.613 . S
S622 N624 1.610 . S
N623 S622 1.613 . S
N623 C626 1.350 . S
N624 S622 1.610 . S
N624 C625 1.351 . S
C625 C619 1.428 . S
C625 N624 1.351 . S
C625 C626 1.434 . S
C626 C617 1.429 . S
C626 N623 1.350 . S
C626 C625 1.434 . S
C627 C628 1.369 . S
C627 C629 1.419 . S
C627 H631 0.930 . S
C628 C627 1.369 . S
C628 C637 1.429 . S
C629 C627 1.419 . S
C629 C630 1.363 . S
C629 H632 0.929 . S
C630 C629 1.363 . S
C630 C636 1.428 . S
H631 C627 0.930 . S
H632 C629 0.929 . S
S633 N634 1.613 . S
S633 N635 1.610 . S
N634 S633 1.613 . S
N634 C637 1.350 . S
N635 S633 1.610 . S
N635 C636 1.351 . S
C636 C630 1.428 . S
C636 N635 1.351 . S
C636 C637 1.434 . S
C637 C628 1.429 . S
C637 N634 1.350 . S
C637 C636 1.434 . S
C638 C639 1.369 . S
C638 C640 1.419 . S
C638 H642 0.930 . S
C639 C638 1.369 . S
C639 C648 1.429 1_556 S
C640 C638 1.419 . S
C640 C641 1.363 . S
C640 H643 0.929 . S
C641 C640 1.363 . S
C641 C647 1.428 . S
H642 C638 0.930 . S
H643 C640 0.929 . S
S644 N645 1.613 . S
S644 N646 1.610 . S
N645 S644 1.613 . S
N645 C648 1.350 . S
N646 S644 1.610 . S
N646 C647 1.351 1_554 S
C647 C641 1.428 . S
C647 N646 1.351 1_556 S
C647 C648 1.434 1_556 S
C648 C639 1.429 1_554 S
C648 N645 1.350 . S
C648 C647 1.434 1_554 S
C649 C650 1.369 . S
C649 C651 1.419 . S
C649 H653 0.930 . S
C650 C649 1.369 . S
C650 C659 1.429 . S
C651 C649 1.419 . S
C651 C652 1.363 . S
C651 H654 0.929 1_554 S
C652 C651 1.363 . S
C652 C658 1.428 . S
H653 C649 0.930 . S
H654 C651 0.929 1_556 S
S655 N656 1.613 . S
S655 N657 1.610 . S
N656 S655 1.613 . S
N656 C659 1.350 . S
N657 S655 1.610 . S
N657 C658 1.351 . S
C658 C652 1.428 . S
C658 N657 1.351 . S
C658 C659 1.434 . S
C659 C650 1.429 . S
C659 N656 1.350 . S
C659 C658 1.434 . S
C660 C661 1.369 . S
C660 C662 1.419 . S
C660 H664 0.930 . S
C661 C660 1.369 . S
C661 C670 1.429 . S
C662 C660 1.419 . S
C662 C663 1.363 . S
C662 H665 0.929 . S
C663 C662 1.363 . S
C663 C669 1.428 . S
H664 C660 0.930 . S
H665 C662 0.929 . S
S666 N667 1.613 . S
S666 N668 1.610 . S
N667 S666 1.613 . S
N667 C670 1.350 . S
N668 S666 1.610 . S
N668 C669 1.351 . S
C669 C663 1.428 . S
C669 N668 1.351 . S
C669 C670 1.434 . S
C670 C661 1.429 . S
C670 N667 1.350 . S
C670 C669 1.434 . S
C671 C672 1.369 . S
C671 C673 1.419 1_655 S
C671 H675 0.930 . S
C672 C671 1.369 . S
C672 C681 1.429 . S
C673 C671 1.419 1_455 S
C673 C674 1.363 . S
C673 H676 0.929 . S
C674 C673 1.363 . S
C674 C680 1.428 . S
H675 C671 0.930 . S
H676 C673 0.929 . S
S677 N678 1.613 . S
S677 N679 1.610 1_655 S
N678 S677 1.613 . S
N678 C681 1.350 . S
N679 S677 1.610 1_455 S
N679 C680 1.351 . S
C680 C674 1.428 . S
C680 N679 1.351 . S
C680 C681 1.434 1_455 S
C681 C672 1.429 . S
C681 N678 1.350 . S
C681 C680 1.434 1_655 S
C682 C683 1.369 . S
C682 C684 1.419 1_545 S
C682 H686 0.930 . S
C683 C682 1.369 . S
C683 C692 1.429 . S
C684 C682 1.419 1_565 S
C684 C685 1.363 . S
C684 H687 0.929 . S
C685 C684 1.363 . S
C685 C691 1.428 . S
H686 C682 0.930 . S
H687 C684 0.929 . S
S688 N689 1.613 1_565 S
S688 N690 1.610 . S
N689 S688 1.613 1_545 S
N689 C692 1.350 . S
N690 S688 1.610 . S
N690 C691 1.351 . S
C691 C685 1.428 . S
C691 N690 1.351 . S
C691 C692 1.434 1_565 S
C692 C683 1.429 . S
C692 N689 1.350 . S
C692 C691 1.434 1_545 S
C693 C694 1.369 . S
C693 C695 1.419 . S
C693 H697 0.930 . S
C694 C693 1.369 . S
C694 C703 1.429 . S
C695 C693 1.419 . S
C695 C696 1.363 . S
C695 H698 0.929 . S
C696 C695 1.363 . S
C696 C702 1.428 . S
H697 C693 0.930 . S
H698 C695 0.929 . S
S699 N700 1.613 . S
S699 N701 1.610 . S
N700 S699 1.613 . S
N700 C703 1.350 . S
N701 S699 1.610 . S
N701 C702 1.351 . S
C702 C696 1.428 . S
C702 N701 1.351 . S
C702 C703 1.434 . S
C703 C694 1.429 . S
C703 N700 1.350 . S
C703 C702 1.434 . S
C704 C705 1.369 . S
C704 C706 1.419 1_455 S
C704 H708 0.930 . S
C705 C704 1.369 . S
C705 C714 1.429 . S
C706 C704 1.419 1_655 S
C706 C707 1.363 . S
C706 H709 0.929 . S
C707 C706 1.363 . S
C707 C713 1.428 . S
H708 C704 0.930 . S
H709 C706 0.929 . S
S710 N711 1.613 1_655 S
S710 N712 1.610 . S
N711 S710 1.613 1_455 S
N711 C714 1.350 . S
N712 S710 1.610 . S
N712 C713 1.351 . S
C713 C707 1.428 . S
C713 N712 1.351 . S
C713 C714 1.434 1_655 S
C714 C705 1.429 . S
C714 N711 1.350 . S
C714 C713 1.434 1_455 S
C715 C716 1.369 1_554 S
C715 C717 1.419 1_545 S
C715 H719 0.930 . S
C716 C715 1.369 1_556 S
C716 C725 1.429 . S
C717 C715 1.419 1_565 S
C717 C718 1.363 . S
C717 H720 0.929 . S
C718 C717 1.363 . S
C718 C724 1.428 1_554 S
H719 C715 0.930 . S
H720 C717 0.929 . S
S721 N722 1.613 1_565 S
S721 N723 1.610 . S
N722 S721 1.613 1_545 S
N722 C725 1.350 . S
N723 S721 1.610 . S
N723 C724 1.351 . S
C724 C718 1.428 1_556 S
C724 N723 1.351 . S
C724 C725 1.434 1_565 S
C725 C716 1.429 . S
C725 N722 1.350 . S
C725 C724 1.434 1_545 S
C397 N13 1.375 . S
C399 N2 1.380 . S
C408 N35 1.378 . S
C410 N46 1.378 . S
C419 N68 1.380 . S
C421 N79 1.376 . S
C430 N112 1.381 . S
C432 N101 1.375 . S
C441 N145 1.381 . S
C443 N134 1.375 . S
C452 N167 1.381 . S
C454 N178 1.375 . S
C463 N211 1.377 . S
C465 N200 1.378 . S
C474 N244 1.381 . S
C476 N233 1.375 . S
C485 N266 1.374 . S
C487 N277 1.380 . S
C496 N310 1.379 . S
C498 N299 1.377 . S
C507 N343 1.381 . S
C509 N332 1.375 . S
C518 N365 1.380 . S
C520 N376 1.376 . S
C529 C205 1.571 . S
C531 C7 1.569 1_556 S
C540 C40 1.571 . S
C542 C238 1.565 1_554 S
C551 C271 1.564 . S
C553 C73 1.571 . S
C562 C304 1.573 . S
C564 C106 1.567 . S
C573 C337 1.572 . S
C575 C139 1.565 . S
C584 C370 1.568 . S
C586 C172 1.566 . S
C595 C18 1.300 . S
C597 C348 1.294 . S
C606 C51 1.301 . S
C608 C381 1.294 . S
C617 C84 1.291 . S
C619 C216 1.298 . S
C628 C249 1.292 . S
C630 C117 1.299 . S
C639 C282 1.298 1_556 S
C641 C150 1.292 . S
C650 C315 1.300 . S
C652 C183 1.294 1_554 S
C661 C21 1.548 . S
C663 C318 1.552 . S
C672 C54 1.548 . S
C674 C351 1.552 . S
C683 C384 1.553 . S
C685 C87 1.549 . S
C694 C120 1.548 . S
C696 C219 1.553 . S
C705 C153 1.554 . S
C707 C252 1.550 . S
C716 C186 1.552 . S
C718 C285 1.549 . S
