# Generated by pormake.
# Topology sxa, (6)-cn, num edge types: 1
# Building blocks:
#     Node 0, Type 0, BuildingBlock: VOLQOD_clean_sbu_1, # of connection points: 6
#     Node 1, Type 0, BuildingBlock: VOLQOD_clean_sbu_1, # of connection points: 6
#     Node 2, Type 0, BuildingBlock: VOLQOD_clean_sbu_1, # of connection points: 6
#     Node 3, Type 0, BuildingBlock: VOLQOD_clean_sbu_1, # of connection points: 6
#     Edge 4, Type (0, 0), BuildingBlock: FUNLAD_clean_linker_1, # of connection points: 2
#     Edge 5, Type (0, 0), BuildingBlock: FUNLAD_clean_linker_1, # of connection points: 2
#     Edge 6, Type (0, 0), BuildingBlock: FUNLAD_clean_linker_1, # of connection points: 2
#     Edge 7, Type (0, 0), BuildingBlock: FUNLAD_clean_linker_1, # of connection points: 2
#     Edge 8, Type (0, 0), BuildingBlock: FUNLAD_clean_linker_1, # of connection points: 2
#     Edge 9, Type (0, 0), BuildingBlock: FUNLAD_clean_linker_1, # of connection points: 2
#     Edge 10, Type (0, 0), BuildingBlock: FUNLAD_clean_linker_1, # of connection points: 2
#     Edge 11, Type (0, 0), BuildingBlock: FUNLAD_clean_linker_1, # of connection points: 2
#     Edge 12, Type (0, 0), BuildingBlock: FUNLAD_clean_linker_1, # of connection points: 2
#     Edge 13, Type (0, 0), BuildingBlock: FUNLAD_clean_linker_1, # of connection points: 2
#     Edge 14, Type (0, 0), BuildingBlock: FUNLAD_clean_linker_1, # of connection points: 2
#     Edge 15, Type (0, 0), BuildingBlock: FUNLAD_clean_linker_1, # of connection points: 2
# Relax obj value: 0.229
# Max RMSD: 0.203
# Mean RMSD: 0.203
data_MOF--net-sxa--node1-VOLQOD_clean_sbu_1--edge1-FUNLAD_clean_linker_1
_symmetry_space_group_name_H-M    P1
_symmetry_Int_Tables_number       1
_symmetry_cell_setting            triclinic
loop_
_symmetry_equiv_pos_as_xyz
'x, y, z'
_cell_length_a     26.449871
_cell_length_b     31.017211
_cell_length_c     18.782887
_cell_angle_alpha  89.491102
_cell_angle_beta   93.178921
_cell_angle_gamma 89.73067
loop_
_atom_site_label
_atom_site_type_symbol
_atom_site_fract_x
_atom_site_fract_y
_atom_site_fract_z
_atom_type_partial_charge
O0 O 0.93052 0.76568 0.34304 0.0
Zn1 Zn 0.00142 0.75408 0.30928 0.0
O2 O 0.01819 0.79739 0.24079 0.0
Zn3 Zn 0.05829 0.77269 0.16914 0.0
Zn4 Zn 0.95746 0.81933 0.19566 0.0
Zn5 Zn 0.05623 0.84309 0.28578 0.0
O6 O 0.13239 0.78517 0.18709 0.0
O7 O 0.12994 0.83488 0.27119 0.0
O8 O 0.0033 0.6941 0.26183 0.0
O9 O 0.04743 0.70947 0.16767 0.0
O10 O 0.03177 0.79067 0.07152 0.0
O11 O 0.95067 0.79209 0.09895 0.0
O12 O 0.96523 0.88266 0.17684 0.0
O13 O 0.05316 0.76281 0.39196 0.0
O14 O 0.0353 0.90151 0.23988 0.0
O15 O 0.05466 0.83486 0.3925 0.0
C16 C 0.89368 0.78832 0.31599 0.0
C17 C 0.15461 0.81078 0.23115 0.0
C18 C -0.01525 0.78875 0.0536 0.0
C19 C 0.02353 0.68263 0.20457 0.0
C20 C -0.00194 0.91073 0.19588 0.0
C21 C 0.06643 0.79841 0.42148 0.0
O22 O 0.89773 0.80971 0.25816 0.0
O23 O 0.45399 0.24337 0.37405 0.0
Zn24 Zn 0.50986 0.23928 0.30234 0.0
O25 O 0.49634 0.28495 0.23313 0.0
Zn26 Zn 0.47179 0.26121 0.14396 0.0
Zn27 Zn 0.44615 0.32486 0.26446 0.0
Zn28 Zn 0.55639 0.31539 0.21335 0.0
O29 O 0.50234 0.29035 0.06058 0.0
O30 O 0.57755 0.29872 0.11745 0.0
O31 O 0.51352 0.17989 0.25063 0.0
O32 O 0.49283 0.20041 0.13921 0.0
O33 O 0.39653 0.26005 0.13852 0.0
O34 O 0.37852 0.30941 0.2185 0.0
O35 O 0.46281 0.38697 0.23582 0.0
O36 O 0.57817 0.25156 0.35467 0.0
O37 O 0.54116 0.3788 0.20066 0.0
O38 O 0.61197 0.30339 0.28957 0.0
C39 C 0.43117 0.27634 0.39798 0.0
C40 C 0.54969 0.29736 0.05986 0.0
C41 C 0.36476 0.28141 0.17251 0.0
C42 C 0.50707 0.17139 0.18407 0.0
C43 C 0.50239 0.40235 0.20914 0.0
C44 C 0.61449 0.27718 0.34249 0.0
O45 O 0.43421 0.31356 0.36852 0.0
O46 O 0.09987 0.27223 0.72777 0.0
Zn47 Zn 0.02992 0.26108 0.76629 0.0
O48 O 0.01422 0.30564 0.83446 0.0
Zn49 Zn -0.01526 0.27986 0.91713 0.0
Zn50 Zn 0.07511 0.33571 0.86463 0.0
Zn51 Zn 0.96632 0.34765 0.79348 0.0
O52 O 0.91004 0.2913 0.91943 0.0
O53 O 0.89824 0.33723 0.82886 0.0
O54 O 0.02996 0.20055 0.81581 0.0
O55 O -0.00561 0.21621 0.91682 0.0
O56 O 0.02209 0.29708 1.00779 0.0
O57 O 0.09516 0.31726 0.96443 0.0
O58 O 0.06239 0.3992 0.87209 0.0
O59 O 0.97672 0.26705 0.68306 0.0
O60 O -0.01587 0.4091 0.82527 0.0
O61 O 0.95254 0.33619 0.68879 0.0
C62 C 0.13542 0.29829 0.74636 0.0
C63 C 0.88112 0.31446 0.87837 0.0
C64 C 0.0688 0.30651 1.01643 0.0
C65 C 0.0136 0.18892 0.87595 0.0
C66 C 0.02436 0.42349 0.85731 0.0
C67 C 0.9519 0.29974 0.65737 0.0
O68 O 0.13127 0.32416 0.79813 0.0
O69 O 0.5716 0.75064 0.6889 0.0
Zn70 Zn 0.51772 0.74488 0.76283 0.0
O71 O 0.5244 0.7939 0.8267 0.0
Zn72 Zn 0.54895 0.77478 0.92178 0.0
Zn73 Zn 0.56964 0.83642 0.78958 0.0
Zn74 Zn 0.46039 0.82289 0.83376 0.0
O75 O 0.50353 0.7962 0.99718 0.0
O76 O 0.4339 0.8096 0.92812 0.0
O77 O 0.52495 0.68748 0.81977 0.0
O78 O 0.5444 0.7106 0.92952 0.0
O79 O 0.62231 0.7917 0.94145 0.0
O80 O 0.63329 0.83415 0.84754 0.0
O81 O 0.54673 0.89779 0.80745 0.0
O82 O 0.44752 0.74672 0.71136 0.0
O83 O 0.46766 0.88749 0.83704 0.0
O84 O 0.40997 0.80392 0.75682 0.0
C85 C 0.59502 0.78297 0.66391 0.0
C86 C 0.45622 0.80419 0.98927 0.0
C87 C 0.64979 0.81611 0.90489 0.0
C88 C 0.5345 0.68005 0.88628 0.0
C89 C 0.50505 0.91225 0.82871 0.0
C90 C 0.40967 0.7723 0.71391 0.0
O91 O 0.59174 0.82052 0.69109 0.0
H92 H 0.06287 0.48185 0.89758 0.0
C93 C 0.02588 0.46712 0.88842 0.0
H94 H 0.94946 0.46847 0.91594 0.0
H95 H 0.07232 0.56738 0.18543 0.0
H96 H 0.10345 0.49563 0.21639 0.0
H97 H 0.0827 0.43388 0.13841 0.0
H98 H 0.03155 0.44365 1.02834 0.0
C99 C -0.01364 0.48371 0.9214 0.0
C100 C -0.00663 0.51997 0.9731 0.0
C101 C 0.0214 0.51339 0.03921 0.0
C102 C 0.03167 0.54874 0.08581 0.0
C103 C 0.06221 0.54159 0.14913 0.0
C104 C 0.08044 0.50054 0.16749 0.0
C105 C 0.06888 0.46579 0.12349 0.0
C106 C 0.03972 0.47193 0.06013 0.0
H107 H -0.00901 0.61643 0.2028 0.0
C108 C 0.01408 0.63901 0.17446 0.0
H109 H 0.05042 0.65262 0.07948 0.0
H110 H 0.93379 0.54268 0.85521 0.0
H111 H 0.89779 0.61356 0.82795 0.0
H112 H 0.91306 0.67417 0.91041 0.0
H113 H 0.96451 0.6645 1.0204 0.0
C114 C 0.02922 0.62913 0.10889 0.0
C115 C 0.01227 0.59032 0.06766 0.0
C116 C 0.98133 0.59617 1.00396 0.0
C117 C 0.97197 0.56105 0.9567 0.0
C118 C 0.94179 0.5682 0.89304 0.0
C119 C 0.92092 0.60869 0.87676 0.0
C120 C 0.92958 0.64285 0.92313 0.0
C121 C 0.95938 0.63688 0.98598 0.0
H122 H 0.46982 0.46805 0.1917 0.0
C123 C 0.50114 0.44702 0.1797 0.0
H124 H 0.56611 0.43938 0.12019 0.0
H125 H 0.4473 0.59312 0.92857 0.0
H126 H 0.38326 0.53934 0.90135 0.0
H127 H 0.38746 0.46793 0.96022 0.0
H128 H 0.45507 0.45028 0.04806 0.0
C129 C 0.53478 0.4603 0.13262 0.0
C130 C 0.53192 0.50335 0.0958 0.0
C131 C 0.49323 0.51265 0.04226 0.0
C132 C 0.49227 0.55317 1.00543 0.0
C133 C 0.45134 0.56236 0.95575 0.0
C134 C 0.41403 0.53183 0.93994 0.0
C135 C 0.4163 0.49168 0.97327 0.0
C136 C 0.45526 0.48204 1.0239 0.0
H137 H 0.53406 0.60842 0.87832 0.0
C138 C 0.53307 0.63524 0.91503 0.0
H139 H 0.52879 0.65471 1.02185 0.0
H140 H 0.61153 0.49606 0.19437 0.0
H141 H 0.67809 0.54837 0.21773 0.0
H142 H 0.67895 0.61687 0.15015 0.0
H143 H 0.61328 0.63359 0.05897 0.0
C144 C 0.52969 0.6276 0.98565 0.0
C145 C 0.53143 0.58365 1.01962 0.0
C146 C 0.57068 0.57382 0.07208 0.0
C147 C 0.57075 0.53391 0.11028 0.0
C148 C 0.61001 0.52555 0.16308 0.0
C149 C 0.64841 0.55534 0.1772 0.0
C150 C 0.64884 0.59394 0.13925 0.0
C151 C 0.61066 0.60321 0.08723 0.0
H152 H 0.46823 0.97452 0.85143 0.0
C153 C 0.5029 0.95579 0.85985 0.0
H154 H 0.57101 0.94726 0.92217 0.0
H155 H 0.60049 0.13308 0.04663 0.0
H156 H 0.67293 0.12668 0.97348 0.0
H157 H 0.68089 0.06525 0.89231 0.0
H158 H 0.61688 1.00953 0.88431 0.0
C159 C 0.53748 0.96726 0.91173 0.0
C160 C 0.53118 1.00524 0.95943 0.0
C161 C 0.56882 1.03774 0.96327 0.0
C162 C 0.56381 0.07368 1.00917 0.0
C163 C 0.60209 0.1055 1.01191 0.0
C164 C 0.64391 0.10216 0.97038 0.0
C165 C 0.64846 0.0675 0.92484 0.0
C166 C 0.61147 1.03565 0.92097 0.0
H167 H 0.52793 0.10149 0.19309 0.0
C168 C 0.51628 0.12733 0.1563 0.0
H169 H 0.50049 0.14594 0.0486 0.0
H170 H 0.45764 0.94446 0.97877 0.0
H171 H 0.38491 0.95184 0.05019 0.0
H172 H 0.37306 1.01681 0.12231 0.0
H173 H 0.4346 0.0746 0.12402 0.0
C174 C 0.51071 0.11968 0.08538 0.0
C175 C 0.52098 0.07756 0.05091 0.0
C176 C 0.48424 0.0444 0.04919 0.0
C177 C 0.48992 1.00773 1.00486 0.0
C178 C 0.45401 0.9741 1.00782 0.0
C179 C 0.41226 0.97768 0.04944 0.0
C180 C 0.40564 1.01422 0.09013 0.0
C181 C 0.44122 0.04719 0.09054 0.0
H182 H 0.95616 0.96454 0.14212 0.0
C183 C -0.00621 0.95341 0.16013 0.0
H184 H 0.07229 0.96358 0.15368 0.0
H185 H 0.96843 0.07217 0.87306 0.0
H186 H 0.94704 1.00159 0.8264 0.0
H187 H 0.96448 0.9359 0.8988 0.0
H188 H 0.00287 0.94045 1.01864 0.0
C189 C 0.03428 0.97487 0.13812 0.0
C190 C 0.02846 1.01408 0.09105 0.0
C191 C 0.00832 1.0109 1.01949 0.0
C192 C 0.00013 0.04881 0.97651 0.0
C193 C 0.97714 0.04457 0.90709 0.0
C194 C 0.96441 1.00419 0.87974 0.0
C195 C 0.97409 0.96721 0.92056 0.0
C196 C -0.00413 0.97031 0.98952 0.0
H197 H 0.04592 0.12232 0.87622 0.0
C198 C 0.02085 0.14383 0.90315 0.0
H199 H 0.97565 0.15297 0.99083 0.0
H200 H 0.07033 1.03142 0.22381 0.0
H201 H 0.09254 0.10179 0.27072 0.0
H202 H 0.07877 0.1672 0.19705 0.0
H203 H 0.04442 0.16277 0.07495 0.0
C204 C 5e-05 0.13079 0.96403 0.0
C205 C 0.01361 0.0899 1.00424 0.0
C206 C 0.03521 0.09272 0.07517 0.0
C207 C 0.04285 0.05491 0.1182 0.0
C208 C 0.06386 0.05903 0.18883 0.0
C209 C 0.07678 0.09922 0.2165 0.0
C210 C 0.06922 0.13608 0.17484 0.0
C211 C 0.04908 0.13306 0.10497 0.0
H212 H 0.36179 0.73431 0.63743 0.0
C213 C 0.36375 0.76409 0.66752 0.0
H214 H 0.32602 0.82145 0.69347 0.0
H215 H 0.19663 0.75629 0.39794 0.0
H216 H 0.2758 0.75921 0.33949 0.0
H217 H 0.35555 0.77659 0.40673 0.0
H218 H 0.35699 0.78921 0.53375 0.0
C219 C 0.32457 0.79207 0.66234 0.0
C220 C 0.27648 0.7829 0.61982 0.0
C221 C 0.27612 0.77733 0.54479 0.0
C222 C 0.22969 0.76925 0.50525 0.0
C223 C 0.23059 0.76279 0.4307 0.0
C224 C 0.27578 0.76468 0.39621 0.0
C225 C 0.32073 0.77421 0.43421 0.0
C226 C 0.32108 0.78088 0.50746 0.0
H227 H 0.1129 0.82872 0.50824 0.0
C228 C 0.10434 0.79822 0.48228 0.0
H229 H 0.1289 0.7342 0.46758 0.0
H230 H 0.2634 0.7908 0.76299 0.0
H231 H 0.18391 0.78832 0.82105 0.0
H232 H 0.10336 0.77659 0.75151 0.0
H233 H 0.10194 0.76714 0.62329 0.0
C234 C 0.1348 0.76402 0.49678 0.0
C235 C 0.18338 0.76893 0.54001 0.0
C236 C 0.18365 0.7746 0.61475 0.0
C237 C 0.23019 0.78143 0.65473 0.0
C238 C 0.22925 0.78617 0.72964 0.0
C239 C 0.18385 0.78461 0.76378 0.0
C240 C 0.1385 0.77801 0.72464 0.0
C241 C 0.13817 0.77287 0.65103 0.0
H242 H 0.21187 0.32221 0.72585 0.0
C243 C 0.18251 0.30001 0.70692 0.0
H244 H 0.16003 0.25592 0.62634 0.0
H245 H 0.29909 0.33463 0.39543 0.0
H246 H 0.21654 0.36025 0.35163 0.0
H247 H 0.14186 0.35086 0.42304 0.0
H248 H 0.14932 0.31558 0.5388 0.0
C249 C 0.18977 0.27689 0.64795 0.0
C250 C 0.23579 0.28301 0.60593 0.0
C251 C 0.23103 0.30364 0.53818 0.0
C252 C 0.27442 0.30972 0.49752 0.0
C253 C 0.26798 0.33005 0.42965 0.0
C254 C 0.22064 0.34482 0.40357 0.0
C255 C 0.17858 0.33943 0.44369 0.0
C256 C 0.18342 0.31898 0.51003 0.0
H257 H 0.38756 0.23702 0.47183 0.0
C258 C 0.39522 0.26988 0.45516 0.0
H259 H 0.37471 0.33531 0.46282 0.0
H260 H 0.25813 0.23963 0.73122 0.0
H261 H 0.34153 0.21784 0.77891 0.0
H262 H 0.41747 0.23283 0.71247 0.0
H263 H 0.41043 0.26895 0.59739 0.0
C264 C 0.36801 0.30258 0.48096 0.0
C265 C 0.32292 0.29531 0.52459 0.0
C266 C 0.32785 0.27542 0.59309 0.0
C267 C 0.28417 0.26851 0.63305 0.0
C268 C 0.29008 0.24693 0.69974 0.0
C269 C 0.33773 0.23408 0.72762 0.0
C270 C 0.38046 0.24239 0.69009 0.0
C271 C 0.37583 0.26287 0.62372 0.0
H272 H 0.92514 0.26916 0.55576 0.0
C273 C 0.91663 0.29373 0.59426 0.0
H274 H 0.86295 0.3381 0.62905 0.0
H275 H 0.72056 0.37384 0.3629 0.0
H276 H 0.76048 0.44311 0.38129 0.0
H277 H 0.8343 0.45096 0.46615 0.0
H278 H 0.86818 0.38957 0.53394 0.0
C279 C 0.87148 0.31429 0.58923 0.0
C280 C 0.83168 0.30712 0.53069 0.0
C281 C 0.81333 0.34295 0.48918 0.0
C282 C 0.7717 0.33809 0.43842 0.0
C283 C 0.75287 0.37512 0.40065 0.0
C284 C 0.77531 0.41528 0.41088 0.0
C285 C 0.81678 0.41972 0.45877 0.0
C286 C 0.8357 0.38417 0.49759 0.0
H287 H 0.65576 0.26447 0.4462 0.0
C288 C 0.65966 0.27736 0.3928 0.0
H289 H 0.70844 0.30556 0.321 0.0
H290 H 0.85087 0.23251 0.60805 0.0
H291 H 0.81599 0.16206 0.58262 0.0
H292 H 0.75348 0.1516 0.48196 0.0
H293 H 0.72401 0.21205 0.40809 0.0
C294 C 0.70476 0.29285 0.37456 0.0
C295 C 0.7493 0.297 0.42708 0.0
C296 C 0.7695 0.26066 0.46579 0.0
C297 C 0.80894 0.26606 0.51993 0.0
C298 C 0.82386 0.23 0.56306 0.0
C299 C 0.80369 0.1893 0.54952 0.0
C300 C 0.76828 0.18346 0.49315 0.0
C301 C 0.75128 0.21857 0.4516 0.0
H302 H 0.81828 0.81616 0.33386 0.0
C303 C 0.84602 0.79244 0.35396 0.0
H304 H 0.86493 0.7465 0.43446 0.0
H305 H 0.73575 0.81634 0.67815 0.0
H306 H 0.82145 0.82463 0.72793 0.0
H307 H 0.89449 0.81227 0.65455 0.0
H308 H 0.88228 0.79168 0.5308 0.0
C309 C 0.8368 0.76955 0.41327 0.0
C310 C 0.79165 0.77804 0.45648 0.0
C311 C 0.7993 0.79092 0.52872 0.0
C312 C 0.75705 0.79898 0.57082 0.0
C313 C 0.7662 0.81076 0.64316 0.0
C314 C 0.81529 0.81547 0.67264 0.0
C315 C 0.8564 0.80846 0.63134 0.0
C316 C 0.84877 0.79643 0.56029 0.0
H317 H 0.63383 0.74261 0.58678 0.0
C318 C 0.63078 0.77521 0.60692 0.0
H319 H 0.66197 0.83763 0.60784 0.0
H320 H 0.76237 0.74722 0.32428 0.0
H321 H 0.67653 0.74155 0.2733 0.0
H322 H 0.60378 0.76196 0.34266 0.0
H323 H 0.61639 0.78719 0.46411 0.0
C324 C 0.66315 0.80552 0.58531 0.0
C325 C 0.70685 0.79494 0.54071 0.0
C326 C 0.69909 0.78207 0.46857 0.0
C327 C 0.74137 0.77254 0.4271 0.0
C328 C 0.73205 0.75701 0.35696 0.0
C329 C 0.68286 0.75322 0.3272 0.0
C330 C 0.64189 0.76454 0.36636 0.0
C331 C 0.64966 0.77878 0.4362 0.0
H332 H 0.38621 0.81904 0.03935 0.0
C333 C 0.4249 0.80773 0.05074 0.0
H334 H 0.47627 0.78107 0.13037 0.0
H335 H 0.25876 0.87944 0.20375 0.0
H336 H 0.30885 0.9444 0.2072 0.0
H337 H 0.40148 0.94116 0.19763 0.0
H338 H 0.44392 0.87217 0.18032 0.0
C339 C 0.43912 0.79502 0.11739 0.0
C340 C 0.39919 0.79427 0.16978 0.0
C341 C 0.37559 0.83361 0.18581 0.0
C342 C 0.32281 0.83483 0.19578 0.0
C343 C 0.29913 0.87569 0.20089 0.0
C344 C 0.32747 0.91352 0.202 0.0
C345 C 0.37958 0.91178 0.19612 0.0
C346 C 0.40344 0.87233 0.18658 0.0
H347 H 0.22785 0.82832 0.28438 0.0
C348 C 0.21018 0.81223 0.23829 0.0
H349 H 0.22131 0.77804 0.14425 0.0
H350 H 0.43895 0.7136 0.16453 0.0
H351 H 0.39337 0.64611 0.17929 0.0
H352 H 0.30268 0.64672 0.20437 0.0
H353 H 0.25686 0.71447 0.21388 0.0
C354 C 0.23898 0.79517 0.18927 0.0
C355 C 0.29522 0.79554 0.19592 0.0
C356 C 0.3216 0.75565 0.19397 0.0
C357 C 0.37387 0.75511 0.18073 0.0
C358 C 0.3991 0.71518 0.17475 0.0
C359 C 0.37348 0.67649 0.18339 0.0
C360 C 0.32239 0.67684 0.19746 0.0
C361 C 0.2965 0.71587 0.2025 0.0
H362 H 0.13223 0.31179 0.09418 0.0
C363 C 0.09618 0.29554 0.0839 0.0
H364 H 0.05587 0.23802 0.09826 0.0
H365 H 0.27602 0.22677 0.2911 0.0
H366 H 0.22515 0.24472 0.3915 0.0
H367 H 0.13335 0.25903 0.37282 0.0
H368 H 0.09141 0.25363 0.2538 0.0
C369 C 0.08982 0.25627 0.11258 0.0
C370 C 0.13649 0.23176 0.13263 0.0
C371 C 0.15987 0.23592 0.20136 0.0
C372 C 0.21269 0.22886 0.21159 0.0
C373 C 0.23588 0.23269 0.2808 0.0
C374 C 0.20716 0.24292 0.33846 0.0
C375 C 0.1554 0.25085 0.32796 0.0
C376 C 0.13184 0.24785 0.2599 0.0
H377 H 0.28347 0.29516 0.17624 0.0
C378 C 0.31106 0.27033 0.16521 0.0
H379 H 0.3232 0.20413 0.14473 0.0
H380 H 0.09845 0.20684 1.00105 0.0
H381 H 0.14681 0.1783 0.90535 0.0
H382 H 0.2394 0.1679 0.92218 0.0
H383 H 0.28394 0.18569 0.03502 0.0
C384 C 0.29595 0.2295 0.15408 0.0
C385 C 0.24134 0.21916 0.15221 0.0
C386 C 0.21638 0.20677 0.08723 0.0
C387 C 0.16334 0.21285 0.07752 0.0
C388 C 0.13885 0.20259 1.01097 0.0
C389 C 0.16616 0.18625 0.9558 0.0
C390 C 0.21828 0.1804 0.9653 0.0
C391 C 0.2434 0.19078 1.03009 0.0
H392 H 0.55093 0.30015 0.9417 0.0
C393 C 0.57322 0.30413 0.99155 0.0
H394 H 0.64385 0.32062 0.04134 0.0
H395 H 0.76741 0.25637 0.78874 0.0
H396 H 0.72665 0.18623 0.79753 0.0
H397 H 0.65005 0.17766 0.8656 0.0
H398 H 0.6138 0.23877 0.92517 0.0
C399 C 0.62217 0.31494 0.99144 0.0
C400 C 0.64995 0.32162 0.92644 0.0
C401 C 0.66942 0.28554 0.89116 0.0
C402 C 0.7138 0.29025 0.85296 0.0
C403 C 0.734 0.25391 0.81935 0.0
C404 C 0.71094 0.21374 0.82384 0.0
C405 C 0.66782 0.20891 0.86225 0.0
C406 C 0.64735 0.24424 0.89617 0.0
H407 H 0.81276 0.29622 0.93251 0.0
C408 C 0.82637 0.31356 0.88681 0.0
H409 H 0.80558 0.35032 0.79365 0.0
H410 H 0.61214 0.39819 0.97013 0.0
H411 H 0.64914 0.46921 0.95282 0.0
H412 H 0.72722 0.47722 0.88762 0.0
H413 H 0.76871 0.41439 0.83937 0.0
C414 C 0.79306 0.3323 0.83925 0.0
C415 C 0.73843 0.33061 0.85177 0.0
C416 C 0.71398 0.3678 0.87618 0.0
C417 C 0.66938 0.3632 0.91384 0.0
C418 C 0.64648 0.40032 0.94146 0.0
C419 C 0.66721 0.44105 0.93167 0.0
C420 C 0.71117 0.44555 0.89493 0.0
C421 C 0.73464 0.40937 0.86766 0.0
H422 H 0.94899 0.75073 0.97254 0.0
C423 C 0.96818 0.78148 0.9794 0.0
H424 H 0.96888 0.84588 0.94815 0.0
H425 H 0.75307 0.73891 0.84827 0.0
H426 H 0.80104 0.70349 0.75895 0.0
H427 H 0.89149 0.71978 0.74752 0.0
H428 H 0.93431 0.7722 0.82523 0.0
C429 C 0.94897 0.81547 0.94267 0.0
C430 C 0.89296 0.81676 0.93207 0.0
C431 C 0.86829 0.7867 0.88596 0.0
C432 C 0.81634 0.77734 0.89282 0.0
C433 C 0.79265 0.74709 0.84592 0.0
C434 C 0.81975 0.7265 0.79436 0.0
C435 C 0.87069 0.73564 0.78794 0.0
C436 C 0.89485 0.76549 0.83297 0.0
H437 H 0.71883 0.85412 0.90972 0.0
C438 C 0.7029 0.82341 0.92549 0.0
H439 H 0.71953 0.75929 0.95722 0.0
H440 H 0.92599 0.88333 1.01939 0.0
H441 H 0.87804 0.91912 0.10746 0.0
H442 H 0.78987 0.89849 0.1261 0.0
H443 H 0.7487 0.84271 0.05472 0.0
C444 C 0.73399 0.79152 0.94821 0.0
C445 C 0.78924 0.79838 0.9457 0.0
C446 C 0.81336 0.82988 0.98976 0.0
C447 C 0.86484 0.84028 0.98116 0.0
C448 C 0.88743 0.87304 1.02434 0.0
C449 C 0.86027 0.89405 0.07529 0.0
C450 C 0.81055 0.8826 0.08556 0.0
C451 C 0.78725 0.8508 0.04371 0.0
loop_
_geom_bond_atom_site_label_1
_geom_bond_atom_site_label_2
_geom_bond_distance
_geom_bond_site_symmetry_2
_ccdc_geom_bond_type
O0 Zn1 1.953 1_655 S
O0 C16 1.225 . S
Zn1 O0 1.953 1_455 S
Zn1 O2 1.949 . S
Zn1 O8 1.919 . S
Zn1 O13 1.924 . S
O2 Zn1 1.949 . S
O2 Zn3 1.923 . S
O2 Zn4 1.950 1_455 S
O2 Zn5 1.945 . S
Zn3 O2 1.923 . S
Zn3 O6 1.933 . S
Zn3 O9 1.941 . S
Zn3 O10 1.965 1_455 S
Zn4 O2 1.950 1_655 S
Zn4 O11 1.938 . S
Zn4 O12 1.907 . S
Zn4 O22 1.953 . S
Zn5 O2 1.945 . S
Zn5 O7 1.932 . S
Zn5 O14 1.977 . S
Zn5 O15 1.910 . S
O6 Zn3 1.933 . S
O6 C17 1.226 . S
O7 Zn5 1.932 . S
O7 C17 1.307 . S
O8 Zn1 1.919 . S
O8 C19 1.253 . S
O9 Zn3 1.941 . S
O9 C19 1.283 . S
O10 Zn3 1.965 1_655 S
O10 C18 1.303 . S
O11 Zn4 1.938 . S
O11 C18 1.247 . S
O12 Zn4 1.907 . S
O12 C20 1.301 1_655 S
O13 Zn1 1.924 . S
O13 C21 1.311 . S
O14 Zn5 1.977 . S
O14 C20 1.272 . S
O15 Zn5 1.910 . S
O15 C21 1.231 . S
C16 O0 1.225 . S
C16 O22 1.298 . S
C17 O6 1.226 . S
C17 O7 1.307 . S
C18 O10 1.303 . S
C18 O11 1.247 . S
C19 O8 1.253 . S
C19 O9 1.283 . S
C20 O12 1.301 1_455 S
C20 O14 1.272 . S
C21 O13 1.311 . S
C21 O15 1.231 . S
O22 Zn4 1.953 . S
O22 C16 1.298 . S
O23 Zn24 1.953 . S
O23 C39 1.225 . S
Zn24 O23 1.953 . S
Zn24 O25 1.949 . S
Zn24 O31 1.919 . S
Zn24 O36 1.924 . S
O25 Zn24 1.949 . S
O25 Zn26 1.923 . S
O25 Zn27 1.950 . S
O25 Zn28 1.945 . S
Zn26 O25 1.923 . S
Zn26 O29 1.933 . S
Zn26 O32 1.941 . S
Zn26 O33 1.965 . S
Zn27 O25 1.950 . S
Zn27 O34 1.938 . S
Zn27 O35 1.906 . S
Zn27 O45 1.953 . S
Zn28 O25 1.945 . S
Zn28 O30 1.932 . S
Zn28 O37 1.977 . S
Zn28 O38 1.910 . S
O29 Zn26 1.933 . S
O29 C40 1.226 . S
O30 Zn28 1.932 . S
O30 C40 1.307 . S
O31 Zn24 1.919 . S
O31 C42 1.253 . S
O32 Zn26 1.941 . S
O32 C42 1.283 . S
O33 Zn26 1.965 . S
O33 C41 1.303 . S
O34 Zn27 1.938 . S
O34 C41 1.247 . S
O35 Zn27 1.906 . S
O35 C43 1.304 . S
O36 Zn24 1.924 . S
O36 C44 1.311 . S
O37 Zn28 1.977 . S
O37 C43 1.272 . S
O38 Zn28 1.910 . S
O38 C44 1.231 . S
C39 O23 1.225 . S
C39 O45 1.298 . S
C40 O29 1.226 . S
C40 O30 1.307 . S
C41 O33 1.303 . S
C41 O34 1.247 . S
C42 O31 1.253 . S
C42 O32 1.283 . S
C43 O35 1.304 . S
C43 O37 1.272 . S
C44 O36 1.311 . S
C44 O38 1.231 . S
O45 Zn27 1.953 . S
O45 C39 1.298 . S
O46 Zn47 1.953 . S
O46 C62 1.225 . S
Zn47 O46 1.953 . S
Zn47 O48 1.949 . S
Zn47 O54 1.919 . S
Zn47 O59 1.924 1_455 S
O48 Zn47 1.949 . S
O48 Zn49 1.923 . S
O48 Zn50 1.950 . S
O48 Zn51 1.945 1_455 S
Zn49 O48 1.923 . S
Zn49 O52 1.933 1_455 S
Zn49 O55 1.941 . S
Zn49 O56 1.965 . S
Zn50 O48 1.950 . S
Zn50 O57 1.938 . S
Zn50 O58 1.906 . S
Zn50 O68 1.953 . S
Zn51 O48 1.945 1_655 S
Zn51 O53 1.932 . S
Zn51 O60 1.977 . S
Zn51 O61 1.910 . S
O52 Zn49 1.933 1_655 S
O52 C63 1.226 . S
O53 Zn51 1.932 . S
O53 C63 1.307 . S
O54 Zn47 1.919 . S
O54 C65 1.253 . S
O55 Zn49 1.941 . S
O55 C65 1.283 . S
O56 Zn49 1.965 . S
O56 C64 1.303 . S
O57 Zn50 1.938 . S
O57 C64 1.247 . S
O58 Zn50 1.906 . S
O58 C66 1.304 . S
O59 Zn47 1.924 1_655 S
O59 C67 1.311 . S
O60 Zn51 1.977 . S
O60 C66 1.272 1_655 S
O61 Zn51 1.910 . S
O61 C67 1.231 . S
C62 O46 1.225 . S
C62 O68 1.298 . S
C63 O52 1.226 . S
C63 O53 1.307 . S
C64 O56 1.303 . S
C64 O57 1.247 . S
C65 O54 1.253 . S
C65 O55 1.283 . S
C66 O58 1.304 . S
C66 O60 1.272 1_455 S
C67 O59 1.311 . S
C67 O61 1.231 . S
O68 Zn50 1.953 . S
O68 C62 1.298 . S
O69 Zn70 1.953 . S
O69 C85 1.225 . S
Zn70 O69 1.953 . S
Zn70 O71 1.949 . S
Zn70 O77 1.919 . S
Zn70 O82 1.924 . S
O71 Zn70 1.949 . S
O71 Zn72 1.923 . S
O71 Zn73 1.950 . S
O71 Zn74 1.945 . S
Zn72 O71 1.923 . S
Zn72 O75 1.933 . S
Zn72 O78 1.941 . S
Zn72 O79 1.965 . S
Zn73 O71 1.950 . S
Zn73 O80 1.938 . S
Zn73 O81 1.906 . S
Zn73 O91 1.953 . S
Zn74 O71 1.945 . S
Zn74 O76 1.932 . S
Zn74 O83 1.977 . S
Zn74 O84 1.910 . S
O75 Zn72 1.933 . S
O75 C86 1.226 . S
O76 Zn74 1.932 . S
O76 C86 1.307 . S
O77 Zn70 1.919 . S
O77 C88 1.253 . S
O78 Zn72 1.941 . S
O78 C88 1.283 . S
O79 Zn72 1.965 . S
O79 C87 1.303 . S
O80 Zn73 1.938 . S
O80 C87 1.247 . S
O81 Zn73 1.906 . S
O81 C89 1.304 . S
O82 Zn70 1.924 . S
O82 C90 1.311 . S
O83 Zn74 1.977 . S
O83 C89 1.272 . S
O84 Zn74 1.910 . S
O84 C90 1.231 . S
C85 O69 1.225 . S
C85 O91 1.298 . S
C86 O75 1.226 . S
C86 O76 1.307 . S
C87 O79 1.303 . S
C87 O80 1.247 . S
C88 O77 1.253 . S
C88 O78 1.283 . S
C89 O81 1.304 . S
C89 O83 1.272 . S
C90 O82 1.311 . S
C90 O84 1.231 . S
O91 Zn73 1.953 . S
O91 C85 1.298 . S
H92 C93 0.951 . S
C93 H92 0.951 . S
C93 C99 1.271 . S
H94 C99 0.940 1_655 S
H95 C103 0.949 . S
H96 C104 0.950 . S
H97 C105 0.951 . S
H98 C106 0.951 . S
C99 C93 1.271 . S
C99 H94 0.940 1_455 S
C99 C100 1.481 . S
C100 C99 1.481 . S
C100 C101 1.397 1_455 S
C100 C117 1.394 . S
C101 C100 1.397 1_655 S
C101 C102 1.438 1_556 S
C101 C106 1.429 . S
C102 C101 1.438 1_554 S
C102 C103 1.428 . S
C102 C115 1.394 1_655 S
C103 H95 0.949 . S
C103 C102 1.428 . S
C103 C104 1.345 . S
C104 H96 0.950 . S
C104 C103 1.345 . S
C104 C105 1.424 . S
C105 H97 0.951 . S
C105 C104 1.424 . S
C105 C106 1.347 1_554 S
C106 H98 0.951 . S
C106 C101 1.429 . S
C106 C105 1.347 1_556 S
H107 C108 0.951 . S
C108 H107 0.951 . S
C108 C114 1.265 . S
H109 C114 0.950 . S
H110 C118 0.949 . S
H111 C119 0.950 . S
H112 C120 0.951 . S
H113 C121 0.944 1_554 S
C114 C108 1.265 . S
C114 H109 0.950 . S
C114 C115 1.478 . S
C115 C102 1.394 1_455 S
C115 C114 1.478 . S
C115 C116 1.396 . S
C116 C115 1.396 . S
C116 C117 1.438 1_554 S
C116 C121 1.428 1_554 S
C117 C100 1.394 . S
C117 C116 1.438 1_556 S
C117 C118 1.428 . S
C118 H110 0.949 . S
C118 C117 1.428 . S
C118 C119 1.345 . S
C119 H111 0.950 . S
C119 C118 1.345 . S
C119 C120 1.424 . S
C120 H112 0.951 . S
C120 C119 1.424 . S
C120 C121 1.355 . S
C121 H113 0.944 1_556 S
C121 C116 1.428 1_556 S
C121 C120 1.355 . S
H122 C123 0.951 . S
C123 H122 0.951 . S
C123 C129 1.265 . S
H124 C129 0.950 . S
H125 C133 0.949 . S
H126 C134 0.950 . S
H127 C135 0.951 . S
H128 C136 0.951 . S
C129 C123 1.265 . S
C129 H124 0.950 . S
C129 C130 1.478 . S
C130 C129 1.478 . S
C130 C131 1.397 1_554 S
C130 C147 1.394 . S
C131 C130 1.397 1_556 S
C131 C132 1.438 . S
C131 C136 1.429 . S
C132 C131 1.438 . S
C132 C133 1.428 . S
C132 C145 1.394 . S
C133 H125 0.949 . S
C133 C132 1.428 . S
C133 C134 1.345 . S
C134 H126 0.950 . S
C134 C133 1.345 . S
C134 C135 1.424 . S
C135 H127 0.951 . S
C135 C134 1.424 . S
C135 C136 1.347 . S
C136 H128 0.951 . S
C136 C131 1.429 . S
C136 C135 1.347 . S
H137 C138 0.951 . S
C138 H137 0.951 . S
C138 C144 1.265 . S
H139 C144 0.950 . S
H140 C148 0.949 . S
H141 C149 0.950 . S
H142 C150 0.951 . S
H143 C151 0.951 . S
C144 C138 1.265 . S
C144 H139 0.950 . S
C144 C145 1.478 . S
C145 C132 1.394 . S
C145 C144 1.478 . S
C145 C146 1.397 1_556 S
C146 C145 1.397 1_554 S
C146 C147 1.438 . S
C146 C151 1.429 . S
C147 C130 1.394 . S
C147 C146 1.438 . S
C147 C148 1.428 . S
C148 H140 0.949 . S
C148 C147 1.428 . S
C148 C149 1.345 . S
C149 H141 0.950 . S
C149 C148 1.345 . S
C149 C150 1.424 . S
C150 H142 0.951 . S
C150 C149 1.424 . S
C150 C151 1.347 . S
C151 H143 0.951 . S
C151 C146 1.429 . S
C151 C150 1.347 . S
H152 C153 0.951 . S
C153 H152 0.951 . S
C153 C159 1.265 . S
H154 C159 0.950 . S
H155 C163 0.949 1_554 S
H156 C164 0.950 . S
H157 C165 0.951 . S
H158 C166 0.951 . S
C159 C153 1.265 . S
C159 H154 0.950 . S
C159 C160 1.478 . S
C160 C159 1.478 . S
C160 C161 1.397 . S
C160 C177 1.394 1_556 S
C161 C160 1.397 . S
C161 C162 1.438 1_565 S
C161 C166 1.429 . S
C162 C161 1.438 1_545 S
C162 C163 1.428 . S
C162 C175 1.394 1_556 S
C163 H155 0.949 1_556 S
C163 C162 1.428 . S
C163 C164 1.345 . S
C164 H156 0.950 . S
C164 C163 1.345 . S
C164 C165 1.424 . S
C165 H157 0.951 . S
C165 C164 1.424 . S
C165 C166 1.347 1_545 S
C166 H158 0.951 . S
C166 C161 1.429 . S
C166 C165 1.347 1_565 S
H167 C168 0.951 . S
C168 H167 0.951 . S
C168 C174 1.265 . S
H169 C174 0.950 . S
H170 C178 0.949 1_556 S
H171 C179 0.950 . S
H172 C180 0.951 . S
H173 C181 0.951 . S
C174 C168 1.265 . S
C174 H169 0.950 . S
C174 C175 1.478 . S
C175 C162 1.394 1_554 S
C175 C174 1.478 . S
C175 C176 1.397 . S
C176 C175 1.397 . S
C176 C177 1.438 1_545 S
C176 C181 1.429 . S
C177 C160 1.394 1_554 S
C177 C176 1.438 1_565 S
C177 C178 1.428 . S
C178 H170 0.949 1_554 S
C178 C177 1.428 . S
C178 C179 1.345 . S
C179 H171 0.950 . S
C179 C178 1.345 . S
C179 C180 1.424 . S
C180 H172 0.951 . S
C180 C179 1.424 . S
C180 C181 1.347 1_565 S
C181 H173 0.951 . S
C181 C176 1.429 . S
C181 C180 1.347 1_545 S
H182 C183 0.951 . S
C183 H182 0.951 . S
C183 C189 1.265 . S
H184 C189 0.950 . S
H185 C193 0.949 . S
H186 C194 0.950 . S
H187 C195 0.951 . S
H188 C196 0.951 . S
C189 C183 1.265 . S
C189 H184 0.950 . S
C189 C190 1.478 . S
C190 C189 1.478 . S
C190 C191 1.397 1_554 S
C190 C207 1.391 1_565 S
C191 C190 1.397 1_556 S
C191 C192 1.438 1_565 S
C191 C196 1.429 . S
C192 C191 1.438 1_545 S
C192 C193 1.428 . S
C192 C205 1.394 . S
C193 H185 0.949 . S
C193 C192 1.428 . S
C193 C194 1.345 1_545 S
C194 H186 0.950 . S
C194 C193 1.345 1_565 S
C194 C195 1.424 . S
C195 H187 0.951 . S
C195 C194 1.424 . S
C195 C196 1.347 . S
C196 H188 0.951 . S
C196 C191 1.429 . S
C196 C195 1.347 . S
H197 C198 0.951 . S
C198 H197 0.951 . S
C198 C204 1.274 . S
H199 C204 0.936 1_655 S
H200 C208 0.949 1_565 S
H201 C209 0.950 . S
H202 C210 0.951 . S
H203 C211 0.951 . S
C204 C198 1.274 . S
C204 H199 0.936 1_455 S
C204 C205 1.482 . S
C205 C192 1.394 . S
C205 C204 1.482 . S
C205 C206 1.397 1_556 S
C206 C205 1.397 1_554 S
C206 C207 1.441 . S
C206 C211 1.429 1_455 S
C207 C190 1.391 1_545 S
C207 C206 1.441 . S
C207 C208 1.428 . S
C208 H200 0.949 1_545 S
C208 C207 1.428 . S
C208 C209 1.345 1_455 S
C209 H201 0.950 . S
C209 C208 1.345 1_655 S
C209 C210 1.424 . S
C210 H202 0.951 . S
C210 C209 1.424 . S
C210 C211 1.347 . S
C211 H203 0.951 . S
C211 C206 1.429 1_655 S
C211 C210 1.347 . S
H212 C213 0.951 . S
C213 H212 0.951 . S
C213 C219 1.265 . S
H214 C219 0.950 . S
H215 C223 0.949 . S
H216 C224 0.950 . S
H217 C225 0.951 . S
H218 C226 0.951 . S
C219 C213 1.265 . S
C219 H214 0.950 . S
C219 C220 1.478 . S
C220 C219 1.478 . S
C220 C221 1.397 . S
C220 C237 1.394 . S
C221 C220 1.397 . S
C221 C222 1.438 . S
C221 C226 1.429 . S
C222 C221 1.438 . S
C222 C223 1.428 . S
C222 C235 1.394 . S
C223 H215 0.949 . S
C223 C222 1.428 . S
C223 C224 1.345 . S
C224 H216 0.950 . S
C224 C223 1.345 . S
C224 C225 1.424 . S
C225 H217 0.951 . S
C225 C224 1.424 . S
C225 C226 1.347 . S
C226 H218 0.951 . S
C226 C221 1.429 . S
C226 C225 1.347 . S
H227 C228 0.951 . S
C228 H227 0.951 . S
C228 C234 1.265 . S
H229 C234 0.950 . S
H230 C238 0.949 . S
H231 C239 0.950 . S
H232 C240 0.951 . S
H233 C241 0.951 . S
C234 C228 1.265 . S
C234 H229 0.950 . S
C234 C235 1.478 . S
C235 C222 1.394 . S
C235 C234 1.478 . S
C235 C236 1.397 . S
C236 C235 1.397 . S
C236 C237 1.438 . S
C236 C241 1.429 . S
C237 C220 1.394 . S
C237 C236 1.438 . S
C237 C238 1.428 . S
C238 H230 0.949 . S
C238 C237 1.428 . S
C238 C239 1.345 . S
C239 H231 0.950 . S
C239 C238 1.345 . S
C239 C240 1.424 . S
C240 H232 0.951 . S
C240 C239 1.424 . S
C240 C241 1.347 . S
C241 H233 0.951 . S
C241 C236 1.429 . S
C241 C240 1.347 . S
H242 C243 0.951 . S
C243 H242 0.951 . S
C243 C249 1.265 . S
H244 C249 0.950 . S
H245 C253 0.949 . S
H246 C254 0.950 . S
H247 C255 0.951 . S
H248 C256 0.951 . S
C249 C243 1.265 . S
C249 H244 0.950 . S
C249 C250 1.478 . S
C250 C249 1.478 . S
C250 C251 1.397 . S
C250 C267 1.394 . S
C251 C250 1.397 . S
C251 C252 1.438 . S
C251 C256 1.429 . S
C252 C251 1.438 . S
C252 C253 1.428 . S
C252 C265 1.394 . S
C253 H245 0.949 . S
C253 C252 1.428 . S
C253 C254 1.345 . S
C254 H246 0.950 . S
C254 C253 1.345 . S
C254 C255 1.424 . S
C255 H247 0.951 . S
C255 C254 1.424 . S
C255 C256 1.347 . S
C256 H248 0.951 . S
C256 C251 1.429 . S
C256 C255 1.347 . S
H257 C258 0.951 . S
C258 H257 0.951 . S
C258 C264 1.265 . S
H259 C264 0.950 . S
H260 C268 0.949 . S
H261 C269 0.950 . S
H262 C270 0.951 . S
H263 C271 0.951 . S
C264 C258 1.265 . S
C264 H259 0.950 . S
C264 C265 1.478 . S
C265 C252 1.394 . S
C265 C264 1.478 . S
C265 C266 1.397 . S
C266 C265 1.397 . S
C266 C267 1.438 . S
C266 C271 1.429 . S
C267 C250 1.394 . S
C267 C266 1.438 . S
C267 C268 1.428 . S
C268 H260 0.949 . S
C268 C267 1.428 . S
C268 C269 1.345 . S
C269 H261 0.950 . S
C269 C268 1.345 . S
C269 C270 1.424 . S
C270 H262 0.951 . S
C270 C269 1.424 . S
C270 C271 1.347 . S
C271 H263 0.951 . S
C271 C266 1.429 . S
C271 C270 1.347 . S
H272 C273 0.951 . S
C273 H272 0.951 . S
C273 C279 1.265 . S
H274 C279 0.950 . S
H275 C283 0.949 . S
H276 C284 0.950 . S
H277 C285 0.951 . S
H278 C286 0.951 . S
C279 C273 1.265 . S
C279 H274 0.950 . S
C279 C280 1.478 . S
C280 C279 1.478 . S
C280 C281 1.397 . S
C280 C297 1.394 . S
C281 C280 1.397 . S
C281 C282 1.438 . S
C281 C286 1.429 . S
C282 C281 1.438 . S
C282 C283 1.428 . S
C282 C295 1.394 . S
C283 H275 0.949 . S
C283 C282 1.428 . S
C283 C284 1.345 . S
C284 H276 0.950 . S
C284 C283 1.345 . S
C284 C285 1.424 . S
C285 H277 0.951 . S
C285 C284 1.424 . S
C285 C286 1.347 . S
C286 H278 0.951 . S
C286 C281 1.429 . S
C286 C285 1.347 . S
H287 C288 0.951 . S
C288 H287 0.951 . S
C288 C294 1.265 . S
H289 C294 0.950 . S
H290 C298 0.949 . S
H291 C299 0.950 . S
H292 C300 0.951 . S
H293 C301 0.951 . S
C294 C288 1.265 . S
C294 H289 0.950 . S
C294 C295 1.478 . S
C295 C282 1.394 . S
C295 C294 1.478 . S
C295 C296 1.397 . S
C296 C295 1.397 . S
C296 C297 1.438 . S
C296 C301 1.429 . S
C297 C280 1.394 . S
C297 C296 1.438 . S
C297 C298 1.428 . S
C298 H290 0.949 . S
C298 C297 1.428 . S
C298 C299 1.345 . S
C299 H291 0.950 . S
C299 C298 1.345 . S
C299 C300 1.424 . S
C300 H292 0.951 . S
C300 C299 1.424 . S
C300 C301 1.347 . S
C301 H293 0.951 . S
C301 C296 1.429 . S
C301 C300 1.347 . S
H302 C303 0.951 . S
C303 H302 0.951 . S
C303 C309 1.265 . S
H304 C309 0.950 . S
H305 C313 0.949 . S
H306 C314 0.950 . S
H307 C315 0.951 . S
H308 C316 0.951 . S
C309 C303 1.265 . S
C309 H304 0.950 . S
C309 C310 1.478 . S
C310 C309 1.478 . S
C310 C311 1.397 . S
C310 C327 1.394 . S
C311 C310 1.397 . S
C311 C312 1.438 . S
C311 C316 1.429 . S
C312 C311 1.438 . S
C312 C313 1.428 . S
C312 C325 1.394 . S
C313 H305 0.949 . S
C313 C312 1.428 . S
C313 C314 1.345 . S
C314 H306 0.950 . S
C314 C313 1.345 . S
C314 C315 1.424 . S
C315 H307 0.951 . S
C315 C314 1.424 . S
C315 C316 1.347 . S
C316 H308 0.951 . S
C316 C311 1.429 . S
C316 C315 1.347 . S
H317 C318 0.951 . S
C318 H317 0.951 . S
C318 C324 1.265 . S
H319 C324 0.950 . S
H320 C328 0.949 . S
H321 C329 0.950 . S
H322 C330 0.951 . S
H323 C331 0.951 . S
C324 C318 1.265 . S
C324 H319 0.950 . S
C324 C325 1.478 . S
C325 C312 1.394 . S
C325 C324 1.478 . S
C325 C326 1.397 . S
C326 C325 1.397 . S
C326 C327 1.438 . S
C326 C331 1.429 . S
C327 C310 1.394 . S
C327 C326 1.438 . S
C327 C328 1.428 . S
C328 H320 0.949 . S
C328 C327 1.428 . S
C328 C329 1.345 . S
C329 H321 0.950 . S
C329 C328 1.345 . S
C329 C330 1.424 . S
C330 H322 0.951 . S
C330 C329 1.424 . S
C330 C331 1.347 . S
C331 H323 0.951 . S
C331 C326 1.429 . S
C331 C330 1.347 . S
H332 C333 0.951 . S
C333 H332 0.951 . S
C333 C339 1.265 1_556 S
H334 C339 0.950 . S
H335 C343 0.949 . S
H336 C344 0.950 . S
H337 C345 0.951 . S
H338 C346 0.951 . S
C339 C333 1.265 1_554 S
C339 H334 0.950 . S
C339 C340 1.478 . S
C340 C339 1.478 . S
C340 C341 1.397 . S
C340 C357 1.394 1_554 S
C341 C340 1.397 . S
C341 C342 1.438 . S
C341 C346 1.429 . S
C342 C341 1.438 . S
C342 C343 1.428 . S
C342 C355 1.394 1_554 S
C343 H335 0.949 . S
C343 C342 1.428 . S
C343 C344 1.345 . S
C344 H336 0.950 . S
C344 C343 1.345 . S
C344 C345 1.424 . S
C345 H337 0.951 . S
C345 C344 1.424 . S
C345 C346 1.347 . S
C346 H338 0.951 . S
C346 C341 1.429 . S
C346 C345 1.347 . S
H347 C348 0.951 . S
C348 H347 0.951 . S
C348 C354 1.265 1_554 S
H349 C354 0.950 . S
H350 C358 0.949 . S
H351 C359 0.950 . S
H352 C360 0.951 . S
H353 C361 0.951 . S
C354 C348 1.265 1_556 S
C354 H349 0.950 . S
C354 C355 1.478 . S
C355 C342 1.394 1_556 S
C355 C354 1.478 . S
C355 C356 1.397 . S
C356 C355 1.397 . S
C356 C357 1.438 . S
C356 C361 1.429 . S
C357 C340 1.394 1_556 S
C357 C356 1.438 . S
C357 C358 1.428 . S
C358 H350 0.949 . S
C358 C357 1.428 . S
C358 C359 1.345 . S
C359 H351 0.950 . S
C359 C358 1.345 . S
C359 C360 1.424 . S
C360 H352 0.951 . S
C360 C359 1.424 . S
C360 C361 1.347 . S
C361 H353 0.951 . S
C361 C356 1.429 . S
C361 C360 1.347 . S
H362 C363 0.951 . S
C363 H362 0.951 . S
C363 C369 1.265 . S
H364 C369 0.950 1_554 S
H365 C373 0.949 . S
H366 C374 0.950 . S
H367 C375 0.951 . S
H368 C376 0.951 . S
C369 C363 1.265 . S
C369 H364 0.950 1_556 S
C369 C370 1.478 . S
C370 C369 1.478 . S
C370 C371 1.397 1_556 S
C370 C387 1.394 . S
C371 C370 1.397 1_554 S
C371 C372 1.438 . S
C371 C376 1.429 . S
C372 C371 1.438 . S
C372 C373 1.428 . S
C372 C385 1.394 . S
C373 H365 0.949 . S
C373 C372 1.428 . S
C373 C374 1.345 . S
C374 H366 0.950 . S
C374 C373 1.345 . S
C374 C375 1.424 . S
C375 H367 0.951 . S
C375 C374 1.424 . S
C375 C376 1.347 . S
C376 H368 0.951 . S
C376 C371 1.429 . S
C376 C375 1.347 . S
H377 C378 0.951 . S
C378 H377 0.951 . S
C378 C384 1.265 . S
H379 C384 0.950 1_556 S
H380 C388 0.949 . S
H381 C389 0.950 . S
H382 C390 0.951 . S
H383 C391 0.951 . S
C384 C378 1.265 . S
C384 H379 0.950 1_554 S
C384 C385 1.478 . S
C385 C372 1.394 . S
C385 C384 1.478 . S
C385 C386 1.397 1_554 S
C386 C385 1.397 1_556 S
C386 C387 1.438 . S
C386 C391 1.429 . S
C387 C370 1.394 . S
C387 C386 1.438 . S
C387 C388 1.428 . S
C388 H380 0.949 . S
C388 C387 1.428 . S
C388 C389 1.345 . S
C389 H381 0.950 . S
C389 C388 1.345 . S
C389 C390 1.424 . S
C390 H382 0.951 . S
C390 C389 1.424 . S
C390 C391 1.347 . S
C391 H383 0.951 . S
C391 C386 1.429 . S
C391 C390 1.347 . S
H392 C393 0.951 1_556 S
C393 H392 0.951 1_554 S
C393 C399 1.265 . S
H394 C399 0.950 . S
H395 C403 0.949 . S
H396 C404 0.950 . S
H397 C405 0.951 . S
H398 C406 0.951 . S
C399 C393 1.265 . S
C399 H394 0.950 . S
C399 C400 1.478 . S
C400 C399 1.478 . S
C400 C401 1.397 . S
C400 C417 1.394 1_554 S
C401 C400 1.397 . S
C401 C402 1.438 . S
C401 C406 1.429 . S
C402 C401 1.438 . S
C402 C403 1.428 . S
C402 C415 1.394 1_554 S
C403 H395 0.949 . S
C403 C402 1.428 . S
C403 C404 1.345 . S
C404 H396 0.950 . S
C404 C403 1.345 . S
C404 C405 1.424 . S
C405 H397 0.951 . S
C405 C404 1.424 . S
C405 C406 1.347 . S
C406 H398 0.951 . S
C406 C401 1.429 . S
C406 C405 1.347 . S
H407 C408 0.951 1_554 S
C408 H407 0.951 1_556 S
C408 C414 1.265 . S
H409 C414 0.950 . S
H410 C418 0.949 . S
H411 C419 0.950 . S
H412 C420 0.951 . S
H413 C421 0.951 . S
C414 C408 1.265 . S
C414 H409 0.950 . S
C414 C415 1.478 . S
C415 C402 1.394 1_556 S
C415 C414 1.478 . S
C415 C416 1.397 . S
C416 C415 1.397 . S
C416 C417 1.438 . S
C416 C421 1.429 . S
C417 C400 1.394 1_556 S
C417 C416 1.438 . S
C417 C418 1.428 . S
C418 H410 0.949 . S
C418 C417 1.428 . S
C418 C419 1.345 . S
C419 H411 0.950 . S
C419 C418 1.345 . S
C419 C420 1.424 . S
C420 H412 0.951 . S
C420 C419 1.424 . S
C420 C421 1.347 . S
C421 H413 0.951 . S
C421 C416 1.429 . S
C421 C420 1.347 . S
H422 C423 0.951 . S
C423 H422 0.951 . S
C423 C429 1.265 . S
H424 C429 0.950 1_556 S
H425 C433 0.949 . S
H426 C434 0.950 . S
H427 C435 0.951 . S
H428 C436 0.951 . S
C429 C423 1.265 . S
C429 H424 0.950 1_554 S
C429 C430 1.478 . S
C430 C429 1.478 . S
C430 C431 1.397 1_554 S
C430 C447 1.394 . S
C431 C430 1.397 1_556 S
C431 C432 1.438 . S
C431 C436 1.429 . S
C432 C431 1.438 . S
C432 C433 1.428 . S
C432 C445 1.394 . S
C433 H425 0.949 . S
C433 C432 1.428 . S
C433 C434 1.345 . S
C434 H426 0.950 . S
C434 C433 1.345 . S
C434 C435 1.424 . S
C435 H427 0.951 . S
C435 C434 1.424 . S
C435 C436 1.347 . S
C436 H428 0.951 . S
C436 C431 1.429 . S
C436 C435 1.347 . S
H437 C438 0.951 . S
C438 H437 0.951 . S
C438 C444 1.265 . S
H439 C444 0.950 1_554 S
H440 C448 0.949 . S
H441 C449 0.950 . S
H442 C450 0.951 . S
H443 C451 0.951 . S
C444 C438 1.265 . S
C444 H439 0.950 1_556 S
C444 C445 1.478 . S
C445 C432 1.394 . S
C445 C444 1.478 . S
C445 C446 1.397 1_556 S
C446 C445 1.397 1_554 S
C446 C447 1.438 . S
C446 C451 1.429 . S
C447 C430 1.394 . S
C447 C446 1.438 . S
C447 C448 1.428 . S
C448 H440 0.949 . S
C448 C447 1.428 . S
C448 C449 1.345 . S
C449 H441 0.950 . S
C449 C448 1.345 . S
C449 C450 1.424 . S
C450 H442 0.951 . S
C450 C449 1.424 . S
C450 C451 1.347 . S
C451 H443 0.951 . S
C451 C446 1.429 . S
C451 C450 1.347 . S
C93 C66 2.144 . S
C108 C19 2.060 . S
C123 C43 2.151 . S
C138 C88 2.067 . S
C153 C89 2.177 . S
C168 C42 2.130 . S
C183 C20 2.152 . S
C198 C65 2.068 . S
C213 C90 1.473 . S
C228 C21 1.474 . S
C243 C62 2.080 . S
C258 C39 2.078 . S
C273 C67 1.559 . S
C288 C44 1.559 . S
C303 C16 2.080 . S
C318 C85 2.075 . S
C333 C86 0.459 . S
C348 C17 0.459 . S
C363 C64 0.325 . S
C378 C41 0.343 . S
C393 C40 0.701 . S
C408 C63 0.700 . S
C423 C18 0.333 . S
C438 C87 0.336 . S
