# Generated by pormake.
# Topology uke, (4)-cn, num edge types: 1
# Building blocks:
#     Node 0, Type 0, BuildingBlock: NAHDIM_clean_sbu_0, # of connection points: 4
#     Node 1, Type 0, BuildingBlock: NAHDIM_clean_sbu_0, # of connection points: 4
#     Node 2, Type 0, BuildingBlock: NAHDIM_clean_sbu_0, # of connection points: 4
#     Node 3, Type 0, BuildingBlock: NAHDIM_clean_sbu_0, # of connection points: 4
#     Node 4, Type 0, BuildingBlock: NAHDIM_clean_sbu_0, # of connection points: 4
#     Node 5, Type 0, BuildingBlock: NAHDIM_clean_sbu_0, # of connection points: 4
#     Node 6, Type 0, BuildingBlock: NAHDIM_clean_sbu_0, # of connection points: 4
#     Node 7, Type 0, BuildingBlock: NAHDIM_clean_sbu_0, # of connection points: 4
#     Node 8, Type 0, BuildingBlock: NAHDIM_clean_sbu_0, # of connection points: 4
#     Node 9, Type 0, BuildingBlock: NAHDIM_clean_sbu_0, # of connection points: 4
#     Node 10, Type 0, BuildingBlock: NAHDIM_clean_sbu_0, # of connection points: 4
#     Node 11, Type 0, BuildingBlock: NAHDIM_clean_sbu_0, # of connection points: 4
#     Node 12, Type 0, BuildingBlock: NAHDIM_clean_sbu_0, # of connection points: 4
#     Node 13, Type 0, BuildingBlock: NAHDIM_clean_sbu_0, # of connection points: 4
#     Node 14, Type 0, BuildingBlock: NAHDIM_clean_sbu_0, # of connection points: 4
#     Node 15, Type 0, BuildingBlock: NAHDIM_clean_sbu_0, # of connection points: 4
#     Node 16, Type 0, BuildingBlock: NAHDIM_clean_sbu_0, # of connection points: 4
#     Node 17, Type 0, BuildingBlock: NAHDIM_clean_sbu_0, # of connection points: 4
#     Node 18, Type 0, BuildingBlock: NAHDIM_clean_sbu_0, # of connection points: 4
#     Node 19, Type 0, BuildingBlock: NAHDIM_clean_sbu_0, # of connection points: 4
#     Node 20, Type 0, BuildingBlock: NAHDIM_clean_sbu_0, # of connection points: 4
#     Node 21, Type 0, BuildingBlock: NAHDIM_clean_sbu_0, # of connection points: 4
#     Node 22, Type 0, BuildingBlock: NAHDIM_clean_sbu_0, # of connection points: 4
#     Node 23, Type 0, BuildingBlock: NAHDIM_clean_sbu_0, # of connection points: 4
#     Node 24, Type 0, BuildingBlock: NAHDIM_clean_sbu_0, # of connection points: 4
#     Node 25, Type 0, BuildingBlock: NAHDIM_clean_sbu_0, # of connection points: 4
#     Node 26, Type 0, BuildingBlock: NAHDIM_clean_sbu_0, # of connection points: 4
#     Node 27, Type 0, BuildingBlock: NAHDIM_clean_sbu_0, # of connection points: 4
#     Node 28, Type 0, BuildingBlock: NAHDIM_clean_sbu_0, # of connection points: 4
#     Node 29, Type 0, BuildingBlock: NAHDIM_clean_sbu_0, # of connection points: 4
#     Node 30, Type 0, BuildingBlock: NAHDIM_clean_sbu_0, # of connection points: 4
#     Node 31, Type 0, BuildingBlock: NAHDIM_clean_sbu_0, # of connection points: 4
#     Edge 32, Type (0, 0), BuildingBlock: ZUJKAS_clean_linker_0, # of connection points: 2
#     Edge 33, Type (0, 0), BuildingBlock: ZUJKAS_clean_linker_0, # of connection points: 2
#     Edge 34, Type (0, 0), BuildingBlock: ZUJKAS_clean_linker_0, # of connection points: 2
#     Edge 35, Type (0, 0), BuildingBlock: ZUJKAS_clean_linker_0, # of connection points: 2
#     Edge 36, Type (0, 0), BuildingBlock: ZUJKAS_clean_linker_0, # of connection points: 2
#     Edge 37, Type (0, 0), BuildingBlock: ZUJKAS_clean_linker_0, # of connection points: 2
#     Edge 38, Type (0, 0), BuildingBlock: ZUJKAS_clean_linker_0, # of connection points: 2
#     Edge 39, Type (0, 0), BuildingBlock: ZUJKAS_clean_linker_0, # of connection points: 2
#     Edge 40, Type (0, 0), BuildingBlock: ZUJKAS_clean_linker_0, # of connection points: 2
#     Edge 41, Type (0, 0), BuildingBlock: ZUJKAS_clean_linker_0, # of connection points: 2
#     Edge 42, Type (0, 0), BuildingBlock: ZUJKAS_clean_linker_0, # of connection points: 2
#     Edge 43, Type (0, 0), BuildingBlock: ZUJKAS_clean_linker_0, # of connection points: 2
#     Edge 44, Type (0, 0), BuildingBlock: ZUJKAS_clean_linker_0, # of connection points: 2
#     Edge 45, Type (0, 0), BuildingBlock: ZUJKAS_clean_linker_0, # of connection points: 2
#     Edge 46, Type (0, 0), BuildingBlock: ZUJKAS_clean_linker_0, # of connection points: 2
#     Edge 47, Type (0, 0), BuildingBlock: ZUJKAS_clean_linker_0, # of connection points: 2
#     Edge 48, Type (0, 0), BuildingBlock: ZUJKAS_clean_linker_0, # of connection points: 2
#     Edge 49, Type (0, 0), BuildingBlock: ZUJKAS_clean_linker_0, # of connection points: 2
#     Edge 50, Type (0, 0), BuildingBlock: ZUJKAS_clean_linker_0, # of connection points: 2
#     Edge 51, Type (0, 0), BuildingBlock: ZUJKAS_clean_linker_0, # of connection points: 2
#     Edge 52, Type (0, 0), BuildingBlock: ZUJKAS_clean_linker_0, # of connection points: 2
#     Edge 53, Type (0, 0), BuildingBlock: ZUJKAS_clean_linker_0, # of connection points: 2
#     Edge 54, Type (0, 0), BuildingBlock: ZUJKAS_clean_linker_0, # of connection points: 2
#     Edge 55, Type (0, 0), BuildingBlock: ZUJKAS_clean_linker_0, # of connection points: 2
#     Edge 56, Type (0, 0), BuildingBlock: ZUJKAS_clean_linker_0, # of connection points: 2
#     Edge 57, Type (0, 0), BuildingBlock: ZUJKAS_clean_linker_0, # of connection points: 2
#     Edge 58, Type (0, 0), BuildingBlock: ZUJKAS_clean_linker_0, # of connection points: 2
#     Edge 59, Type (0, 0), BuildingBlock: ZUJKAS_clean_linker_0, # of connection points: 2
#     Edge 60, Type (0, 0), BuildingBlock: ZUJKAS_clean_linker_0, # of connection points: 2
#     Edge 61, Type (0, 0), BuildingBlock: ZUJKAS_clean_linker_0, # of connection points: 2
#     Edge 62, Type (0, 0), BuildingBlock: ZUJKAS_clean_linker_0, # of connection points: 2
#     Edge 63, Type (0, 0), BuildingBlock: ZUJKAS_clean_linker_0, # of connection points: 2
#     Edge 64, Type (0, 0), BuildingBlock: ZUJKAS_clean_linker_0, # of connection points: 2
#     Edge 65, Type (0, 0), BuildingBlock: ZUJKAS_clean_linker_0, # of connection points: 2
#     Edge 66, Type (0, 0), BuildingBlock: ZUJKAS_clean_linker_0, # of connection points: 2
#     Edge 67, Type (0, 0), BuildingBlock: ZUJKAS_clean_linker_0, # of connection points: 2
#     Edge 68, Type (0, 0), BuildingBlock: ZUJKAS_clean_linker_0, # of connection points: 2
#     Edge 69, Type (0, 0), BuildingBlock: ZUJKAS_clean_linker_0, # of connection points: 2
#     Edge 70, Type (0, 0), BuildingBlock: ZUJKAS_clean_linker_0, # of connection points: 2
#     Edge 71, Type (0, 0), BuildingBlock: ZUJKAS_clean_linker_0, # of connection points: 2
#     Edge 72, Type (0, 0), BuildingBlock: ZUJKAS_clean_linker_0, # of connection points: 2
#     Edge 73, Type (0, 0), BuildingBlock: ZUJKAS_clean_linker_0, # of connection points: 2
#     Edge 74, Type (0, 0), BuildingBlock: ZUJKAS_clean_linker_0, # of connection points: 2
#     Edge 75, Type (0, 0), BuildingBlock: ZUJKAS_clean_linker_0, # of connection points: 2
#     Edge 76, Type (0, 0), BuildingBlock: ZUJKAS_clean_linker_0, # of connection points: 2
#     Edge 77, Type (0, 0), BuildingBlock: ZUJKAS_clean_linker_0, # of connection points: 2
#     Edge 78, Type (0, 0), BuildingBlock: ZUJKAS_clean_linker_0, # of connection points: 2
#     Edge 79, Type (0, 0), BuildingBlock: ZUJKAS_clean_linker_0, # of connection points: 2
#     Edge 80, Type (0, 0), BuildingBlock: ZUJKAS_clean_linker_0, # of connection points: 2
#     Edge 81, Type (0, 0), BuildingBlock: ZUJKAS_clean_linker_0, # of connection points: 2
#     Edge 82, Type (0, 0), BuildingBlock: ZUJKAS_clean_linker_0, # of connection points: 2
#     Edge 83, Type (0, 0), BuildingBlock: ZUJKAS_clean_linker_0, # of connection points: 2
#     Edge 84, Type (0, 0), BuildingBlock: ZUJKAS_clean_linker_0, # of connection points: 2
#     Edge 85, Type (0, 0), BuildingBlock: ZUJKAS_clean_linker_0, # of connection points: 2
#     Edge 86, Type (0, 0), BuildingBlock: ZUJKAS_clean_linker_0, # of connection points: 2
#     Edge 87, Type (0, 0), BuildingBlock: ZUJKAS_clean_linker_0, # of connection points: 2
#     Edge 88, Type (0, 0), BuildingBlock: ZUJKAS_clean_linker_0, # of connection points: 2
#     Edge 89, Type (0, 0), BuildingBlock: ZUJKAS_clean_linker_0, # of connection points: 2
#     Edge 90, Type (0, 0), BuildingBlock: ZUJKAS_clean_linker_0, # of connection points: 2
#     Edge 91, Type (0, 0), BuildingBlock: ZUJKAS_clean_linker_0, # of connection points: 2
#     Edge 92, Type (0, 0), BuildingBlock: ZUJKAS_clean_linker_0, # of connection points: 2
#     Edge 93, Type (0, 0), BuildingBlock: ZUJKAS_clean_linker_0, # of connection points: 2
#     Edge 94, Type (0, 0), BuildingBlock: ZUJKAS_clean_linker_0, # of connection points: 2
#     Edge 95, Type (0, 0), BuildingBlock: ZUJKAS_clean_linker_0, # of connection points: 2
# Relax obj value: 0.231
# Max RMSD: 0.245
# Mean RMSD: 0.245
data_MOF--net-uke--node1-NAHDIM_clean_sbu_0--edge1-ZUJKAS_clean_linker_0
_symmetry_space_group_name_H-M    P1
_symmetry_Int_Tables_number       1
_symmetry_cell_setting            triclinic
loop_
_symmetry_equiv_pos_as_xyz
'x, y, z'
_cell_length_a     34.04662
_cell_length_b     129.58313
_cell_length_c     63.678495
_cell_angle_alpha  90.019652
_cell_angle_beta   89.956834
_cell_angle_gamma 89.994127
loop_
_atom_site_label
_atom_site_type_symbol
_atom_site_fract_x
_atom_site_fract_y
_atom_site_fract_z
_atom_type_partial_charge
C0 C 0.90436 0.04384 0.23073 0.0
O1 O 0.92308 0.0352 0.22669 0.0
O2 O 0.0041 0.04123 0.22009 0.0
Zn3 Zn 0.97004 0.05252 0.20863 0.0
O4 O 0.99623 0.06619 0.21382 0.0
C5 C 0.97129 0.04121 0.17007 0.0
O6 O 0.96821 0.03337 0.18302 0.0
O7 O 0.91768 0.05224 0.2233 0.0
C8 C 0.03276 0.06723 0.21027 0.0
O9 O 0.05296 0.05928 0.20334 0.0
C10 C 0.02619 0.04176 0.23611 0.0
O11 O 0.02708 0.05028 0.24729 0.0
O12 O 0.96847 0.05032 0.17736 0.0
C13 C 0.24862 0.2013 0.27315 0.0
O14 O 0.21766 0.2073 0.27169 0.0
O15 O 0.15564 0.19575 0.25388 0.0
Zn16 Zn 0.20547 0.18935 0.24318 0.0
O17 O 0.19855 0.1739 0.24155 0.0
C18 C 0.20211 0.2048 0.21164 0.0
O19 O 0.19522 0.2106 0.22815 0.0
O20 O 0.25035 0.19315 0.26207 0.0
C21 C 0.18881 0.16966 0.22432 0.0
O22 O 0.18493 0.17538 0.20743 0.0
C23 C 0.12552 0.19522 0.24216 0.0
O24 O 0.12655 0.18916 0.22563 0.0
O25 O 0.21187 0.19542 0.21435 0.0
C26 C 0.01932 0.20547 0.94674 0.0
O27 O 0.05313 0.21026 0.94862 0.0
O28 O 0.10138 0.20004 0.97812 0.0
Zn29 Zn 0.05163 0.19174 0.97818 0.0
O30 O 0.06408 0.17692 0.9716 0.0
C31 C 0.02829 0.20291 0.01339 0.0
O32 O 0.03072 0.21022 -0.00085 0.0
O33 O 0.01267 0.19744 0.95765 0.0
C34 C 0.06696 0.1701 0.98586 0.0
O35 O 0.06062 0.17271 0.00551 0.0
C36 C 0.12433 0.19858 0.99358 0.0
O37 O 0.11676 0.19102 0.0067 0.0
O38 O 0.03163 0.19357 0.00753 0.0
C39 C 0.24267 0.04215 0.91089 0.0
O40 O 0.20725 0.04491 0.90491 0.0
O41 O 0.1589 0.03699 0.94555 0.0
Zn42 Zn 0.20631 0.04591 0.9496 0.0
O43 O 0.19146 0.0607 0.94479 0.0
C44 C 0.21216 0.03528 0.98819 0.0
O45 O 0.21051 0.02728 0.97551 0.0
O46 O 0.25027 0.04176 0.9304 0.0
C47 C 0.21172 0.06774 0.95345 0.0
O48 O 0.24291 0.06514 0.96437 0.0
C49 C 0.13096 0.03912 0.9581 0.0
O50 O 0.13326 0.04758 0.9694 0.0
O51 O 0.218 0.04416 0.98032 0.0
C52 C 0.94224 0.9423 0.70138 0.0
O53 O 0.912 0.93758 0.69288 0.0
O54 O 0.85022 0.94588 0.73519 0.0
Zn55 Zn 0.8996 0.9377 0.73879 0.0
O56 O 0.89058 0.92279 0.73202 0.0
C57 C 0.90905 0.94851 0.77665 0.0
O58 O 0.90586 0.95619 0.76329 0.0
O59 O 0.94331 0.94343 0.72119 0.0
C60 C 0.91945 0.91659 0.73242 0.0
O61 O 0.95452 0.92014 0.73708 0.0
C62 C 0.82438 0.94415 0.74919 0.0
O63 O 0.82866 0.93607 0.76145 0.0
O64 O 0.91138 0.93936 0.76953 0.0
C65 C 0.68793 0.78374 0.7196 0.0
O66 O 0.70767 0.77575 0.72665 0.0
O67 O 0.7881 0.78286 0.7303 0.0
Zn68 Zn 0.75309 0.79486 0.73699 0.0
O69 O 0.77729 0.80813 0.72717 0.0
C70 C 0.75408 0.78738 0.77922 0.0
O71 O 0.75424 0.77843 0.76954 0.0
O72 O 0.70085 0.79278 0.72315 0.0
C73 C 0.81054 0.81071 0.73457 0.0
O74 O 0.82843 0.80443 0.74764 0.0
C75 C 0.81818 0.78255 0.71854 0.0
O76 O 0.82877 0.7908 0.70799 0.0
O77 O 0.75019 0.79558 0.76847 0.0
C78 C 0.95317 0.79503 0.061 0.0
O79 O 0.91806 0.79447 0.0695 0.0
O80 O 0.86896 0.78833 0.03086 0.0
Zn81 Zn 0.90603 0.80019 0.02635 0.0
O82 O 0.88427 0.81372 0.03664 0.0
C83 C 0.92004 0.79278 0.98488 0.0
O84 O 0.92526 0.7841 0.99518 0.0
O85 O 0.95614 0.79733 0.04167 0.0
C86 C 0.86345 0.81935 0.02469 0.0
O87 O 0.85427 0.81595 0.00589 0.0
C88 C 0.83983 0.78729 0.01857 0.0
O89 O 0.83211 0.79463 0.005 0.0
O90 O 0.91462 0.80105 0.99521 0.0
C91 C 0.76946 0.95432 0.07072 0.0
O92 O 0.80397 0.95124 0.07749 0.0
O93 O 0.85354 0.958 0.03591 0.0
Zn94 Zn 0.80582 0.94903 0.0325 0.0
O95 O 0.81743 0.93417 0.0398 0.0
C96 C 0.79544 0.95833 0.99196 0.0
O97 O 0.80361 0.96678 0.0025 0.0
O98 O 0.76263 0.95421 0.05111 0.0
C99 C 0.82679 0.9278 0.02545 0.0
O100 O 0.82982 0.93107 0.006 0.0
C101 C 0.88283 0.95623 0.02407 0.0
O102 O 0.8824 0.94799 0.01206 0.0
O103 O 0.79148 0.94989 0.00191 0.0
C104 C 0.02931 0.53383 0.80052 0.0
O105 O 0.06208 0.52892 0.7962 0.0
O106 O 0.11884 0.54358 0.78552 0.0
Zn107 Zn 0.06729 0.54984 0.77711 0.0
O108 O 0.06776 0.56514 0.78263 0.0
C109 C 0.07048 0.53824 0.73908 0.0
O110 O 0.07611 0.53064 0.75237 0.0
O111 O 0.02433 0.54293 0.79353 0.0
C112 C 0.07897 0.57127 0.76825 0.0
O113 O 0.08974 0.56748 0.75 0.0
C114 C 0.14864 0.54457 0.77368 0.0
O115 O 0.14653 0.55081 0.75746 0.0
O116 O 0.06236 0.54716 0.74616 0.0
C117 C 0.20619 0.7044 0.82253 0.0
O118 O 0.16908 0.70386 0.8281 0.0
O119 O 0.13038 0.70913 0.78273 0.0
Zn120 Zn 0.1734 0.69859 0.78334 0.0
O121 O 0.15267 0.68454 0.79063 0.0
C122 C 0.19724 0.70615 0.74332 0.0
O123 O 0.19303 0.71505 0.75296 0.0
O124 O 0.2155 0.70261 0.80356 0.0
C125 C 0.13098 0.67996 0.77733 0.0
O126 O 0.12165 0.68476 0.75985 0.0
C127 C 0.09473 0.70754 0.78761 0.0
O128 O 0.08443 0.6986 0.79562 0.0
O129 O 0.19354 0.69788 0.75383 0.0
C130 C 0.00424 0.7036 0.47485 0.0
O131 O 0.0246 0.71169 0.48084 0.0
O132 O 0.11134 0.70185 0.47704 0.0
Zn133 Zn 0.07235 0.69173 0.48846 0.0
O134 O 0.08742 0.67734 0.48024 0.0
C135 C 0.08175 0.70153 0.52836 0.0
O136 O 0.08399 0.70979 0.51647 0.0
O137 O 0.0185 0.69463 0.47733 0.0
C138 C 0.11531 0.67282 0.48975 0.0
O139 O 0.13474 0.67784 0.50436 0.0
C140 C 0.10966 0.70668 0.45971 0.0
O141 O 0.08094 0.70476 0.44651 0.0
O142 O 0.07461 0.69285 0.51987 0.0
C143 C 0.25099 0.53132 0.46472 0.0
O144 O 0.22023 0.52533 0.46714 0.0
O145 O 0.16379 0.53531 0.49327 0.0
Zn146 Zn 0.20986 0.54486 0.49358 0.0
O147 O 0.19357 0.55907 0.4847 0.0
C148 C 0.23033 0.53669 0.53298 0.0
O149 O 0.22965 0.52816 0.52182 0.0
O150 O 0.25301 0.53976 0.47484 0.0
C151 C 0.17083 0.56421 0.49656 0.0
O152 O 0.15786 0.55994 0.51396 0.0
C153 C 0.13771 0.53436 0.47919 0.0
O154 O 0.13956 0.54006 0.46216 0.0
O155 O 0.22637 0.54528 0.52362 0.0
C156 C 0.95902 0.45305 0.18464 0.0
O157 O 0.92924 0.44697 0.18027 0.0
O158 O 0.87693 0.45316 0.21863 0.0
Zn159 Zn 0.93178 0.44868 0.22519 0.0
O160 O 0.93531 0.43318 0.22533 0.0
C161 C 0.93063 0.46398 0.25629 0.0
O162 O 0.92136 0.4695 0.23971 0.0
O163 O 0.96729 0.45488 0.20372 0.0
C164 C 0.93973 0.42813 0.24226 0.0
O165 O 0.9428 0.43315 0.26011 0.0
C166 C 0.85115 0.45224 0.23294 0.0
O167 O 0.85963 0.44679 0.24974 0.0
O168 O 0.94165 0.45469 0.25366 0.0
C169 C 0.78071 0.29282 0.20033 0.0
O170 O 0.80246 0.28445 0.20096 0.0
O171 O 0.87475 0.28977 0.22336 0.0
Zn172 Zn 0.8351 0.30043 0.23185 0.0
O173 O 0.8592 0.3146 0.23103 0.0
C174 C 0.81639 0.2874 0.26659 0.0
O175 O 0.81848 0.2803 0.2519 0.0
O176 O 0.78879 0.30033 0.21242 0.0
C177 C 0.87015 0.31934 0.2475 0.0
O178 O 0.86671 0.31478 0.26583 0.0
C179 C 0.90364 0.28848 0.23569 0.0
O180 O 0.908 0.29483 0.25161 0.0
O181 O 0.81949 0.29685 0.26143 0.0
C182 C 0.9704 0.28635 0.54233 0.0
O183 O 0.93952 0.28046 0.53933 0.0
O184 O 0.88202 0.29246 0.51883 0.0
Zn185 Zn 0.93386 0.29828 0.50988 0.0
O186 O 0.92942 0.31376 0.50766 0.0
C187 C 0.93287 0.28293 0.47749 0.0
O188 O 0.91987 0.27715 0.49296 0.0
O189 O 0.97494 0.29435 0.53103 0.0
C190 C 0.92696 0.31818 0.48988 0.0
O191 O 0.92807 0.31256 0.47273 0.0
C192 C 0.85352 0.2929 0.50601 0.0
O193 O 0.85741 0.29844 0.48887 0.0
O194 O 0.94439 0.29206 0.48143 0.0
C195 C 0.74232 0.45522 0.51788 0.0
O196 O 0.76805 0.46238 0.513 0.0
O197 O 0.82827 0.45272 0.48743 0.0
Zn198 Zn 0.78121 0.44358 0.48506 0.0
O199 O 0.79778 0.42875 0.48688 0.0
C200 C 0.75543 0.45618 0.45206 0.0
O201 O 0.75714 0.46296 0.46737 0.0
O202 O 0.74214 0.44676 0.50774 0.0
C203 C 0.82874 0.4257 0.47761 0.0
O204 O 0.84955 0.43237 0.46675 0.0
C205 C 0.85212 0.45381 0.50256 0.0
O206 O 0.84742 0.44836 0.51977 0.0
O207 O 0.76043 0.4467 0.45639 0.0
C208 C 0.5572 0.04144 0.7621 0.0
O209 O 0.57861 0.03337 0.7571 0.0
O210 O 0.66306 0.04405 0.76344 0.0
Zn211 Zn 0.62495 0.05283 0.74732 0.0
O212 O 0.63765 0.06792 0.74979 0.0
C213 C 0.64097 0.0397 0.71182 0.0
O214 O 0.64963 0.03306 0.7267 0.0
O215 O 0.57058 0.05044 0.75862 0.0
C216 C 0.67041 0.07146 0.75604 0.0
O217 O 0.69839 0.06504 0.76157 0.0
C218 C 0.65743 0.04064 0.78191 0.0
O219 O 0.62713 0.04396 0.79276 0.0
O220 O 0.62851 0.04862 0.71686 0.0
C221 C 0.72833 0.2088 0.79297 0.0
O222 O 0.69594 0.20402 0.79857 0.0
O223 O 0.64518 0.20707 0.75915 0.0
Zn224 Zn 0.70052 0.20263 0.75322 0.0
O225 O 0.70505 0.18721 0.75562 0.0
C226 C 0.69796 0.21673 0.7202 0.0
O227 O 0.68603 0.22246 0.736 0.0
O228 O 0.73696 0.20937 0.77361 0.0
C229 C 0.70449 0.18123 0.73981 0.0
O230 O 0.70119 0.18518 0.7209 0.0
C231 C 0.61993 0.20519 0.74496 0.0
O232 O 0.62978 0.19912 0.7293 0.0
O233 O 0.7106 0.20768 0.7239 0.0
C234 C 0.5052 0.19666 0.448 0.0
O235 O 0.53729 0.19113 0.44573 0.0
O236 O 0.58446 0.20321 0.48306 0.0
Zn237 Zn 0.53345 0.19606 0.48894 0.0
O238 O 0.54191 0.18072 0.48937 0.0
C239 C 0.52293 0.21119 0.51963 0.0
O240 O 0.5303 0.21692 0.50306 0.0
O241 O 0.49585 0.19984 0.46619 0.0
C242 C 0.54919 0.17566 0.506 0.0
O243 O 0.55036 0.1805 0.52411 0.0
C244 C 0.60979 0.20351 0.49769 0.0
O245 O 0.60409 0.1979 0.51459 0.0
O246 O 0.51716 0.20157 0.51708 0.0
C247 C 0.6913 0.04997 0.42329 0.0
O248 O 0.65654 0.05424 0.42556 0.0
O249 O 0.64159 0.04153 0.47433 0.0
Zn250 Zn 0.6883 0.05053 0.46808 0.0
O251 O 0.6724 0.06549 0.47033 0.0
C252 C 0.72751 0.03733 0.49605 0.0
O253 O 0.7135 0.03051 0.48275 0.0
O254 O 0.71078 0.04753 0.43956 0.0
C255 C 0.68026 0.07082 0.48655 0.0
O256 O 0.70004 0.06659 0.50201 0.0
C257 C 0.62894 0.04218 0.4931 0.0
O258 O 0.64315 0.04943 0.50536 0.0
O259 O 0.72591 0.04683 0.49116 0.0
C260 C 0.45389 0.96551 0.21636 0.0
O261 O 0.41833 0.96552 0.20836 0.0
O262 O 0.36591 0.96894 0.24341 0.0
Zn263 Zn 0.40882 0.95889 0.25055 0.0
O264 O 0.39628 0.94454 0.24023 0.0
C265 C 0.38353 0.96034 0.29277 0.0
O266 O 0.35002 0.96128 0.28275 0.0
O267 O 0.45822 0.96317 0.23561 0.0
C268 C 0.37776 0.93777 0.25071 0.0
O269 O 0.36433 0.9401 0.26945 0.0
C270 C 0.33297 0.96655 0.23544 0.0
O271 O 0.32613 0.95692 0.23008 0.0
O272 O 0.4149 0.95906 0.28219 0.0
C273 C 0.30804 0.80287 0.17784 0.0
O274 O 0.34055 0.80385 0.16689 0.0
O275 O 0.40303 0.80021 0.19866 0.0
Zn276 Zn 0.35996 0.80913 0.21005 0.0
O277 O 0.36895 0.82431 0.2049 0.0
C278 C 0.36606 0.79716 0.24752 0.0
O279 O 0.36614 0.78957 0.23386 0.0
O280 O 0.30876 0.80477 0.19741 0.0
C281 C 0.38521 0.82978 0.21901 0.0
O282 O 0.39743 0.82532 0.23633 0.0
C283 C 0.43659 0.80084 0.20725 0.0
O284 O 0.4439 0.80872 0.21963 0.0
O285 O 0.36052 0.80633 0.24108 0.0
C286 C 0.45421 0.78845 0.53745 0.0
O287 O 0.4202 0.79321 0.53844 0.0
O288 O 0.39731 0.7887 0.48729 0.0
Zn289 Zn 0.44693 0.79575 0.49613 0.0
O290 O 0.43673 0.81032 0.5051 0.0
C291 C 0.48194 0.78717 0.46026 0.0
O292 O 0.47035 0.77874 0.46992 0.0
O293 O 0.47234 0.78818 0.52 0.0
C294 C 0.42011 0.81677 0.49303 0.0
O295 O 0.40859 0.81377 0.47431 0.0
C296 C 0.3623 0.78982 0.49373 0.0
O297 O 0.35457 0.79622 0.50918 0.0
O298 O 0.47947 0.79572 0.46995 0.0
C299 C 0.28782 0.95292 0.57615 0.0
O300 O 0.30601 0.96149 0.57101 0.0
O301 O 0.3931 0.95302 0.56643 0.0
Zn302 Zn 0.35297 0.94319 0.55466 0.0
O303 O 0.37094 0.92835 0.55509 0.0
C304 C 0.35486 0.95583 0.51703 0.0
O305 O 0.36843 0.96293 0.52984 0.0
O306 O 0.30251 0.94431 0.57073 0.0
C307 C 0.38835 0.92463 0.5391 0.0
O308 O 0.3967 0.93074 0.52326 0.0
C309 C 0.42923 0.95228 0.56164 0.0
O310 O 0.4414 0.94404 0.55153 0.0
O311 O 0.34431 0.94714 0.52438 0.0
C312 C 0.49864 0.54697 0.29153 0.0
O313 O 0.53109 0.55201 0.29597 0.0
O314 O 0.57978 0.54238 0.25746 0.0
Zn315 Zn 0.52958 0.55018 0.25151 0.0
O316 O 0.53667 0.56561 0.25381 0.0
C317 C 0.5144 0.53618 0.21956 0.0
O318 O 0.51436 0.53015 0.23614 0.0
O319 O 0.49001 0.54532 0.27243 0.0
C320 C 0.56099 0.57045 0.24231 0.0
O321 O 0.58177 0.56532 0.22843 0.0
C322 C 0.60372 0.54056 0.24257 0.0
O323 O 0.59798 0.54493 0.22423 0.0
O324 O 0.51473 0.5459 0.22239 0.0
C325 C 0.72021 0.69856 0.3115 0.0
O326 O 0.68283 0.69687 0.31534 0.0
O327 O 0.65005 0.70726 0.27446 0.0
Zn328 Zn 0.6908 0.69618 0.27086 0.0
O329 O 0.66824 0.68188 0.27336 0.0
C330 C 0.71289 0.70676 0.23326 0.0
O331 O 0.70603 0.71488 0.24506 0.0
O332 O 0.73216 0.69847 0.2926 0.0
C333 C 0.64928 0.67816 0.25793 0.0
O334 O 0.64404 0.68382 0.24105 0.0
C335 C 0.61361 0.70657 0.27045 0.0
O336 O 0.59855 0.6976 0.26532 0.0
O337 O 0.71157 0.69784 0.24154 0.0
C338 C 0.53421 0.68954 0.95409 0.0
O339 O 0.56694 0.68815 0.94352 0.0
O340 O 0.62923 0.69034 0.97474 0.0
Zn341 Zn 0.58342 0.6828 0.98734 0.0
O342 O 0.58939 0.66739 0.98453 0.0
C343 C 0.59178 0.69635 0.02199 0.0
O344 O 0.59492 0.70304 0.00656 0.0
O345 O 0.53372 0.68761 0.97364 0.0
C346 C 0.60472 0.66219 -0.00066 0.0
O347 O 0.61657 0.66699 0.01637 0.0
C348 C 0.6623 0.68957 0.98383 0.0
O349 O 0.66681 0.68248 -0.00164 0.0
O350 O 0.5838 0.687 0.01772 0.0
C351 C 0.78012 0.52299 0.97261 0.0
O352 O 0.75317 0.51609 0.97709 0.0
O353 O 0.68626 0.5263 0.9916 0.0
Zn354 Zn 0.73072 0.53592 -0.0021 0.0
O355 O 0.71467 0.55058 0.99229 0.0
C356 C 0.73688 0.52513 0.03619 0.0
O357 O 0.7358 0.51731 0.02307 0.0
O358 O 0.77742 0.532 0.98043 0.0
C359 C 0.68194 0.55379 -0.00065 0.0
O360 O 0.65942 0.54741 0.00996 0.0
C361 C 0.65678 0.5273 0.9796 0.0
O362 O 0.65258 0.53573 0.96837 0.0
O363 O 0.73962 0.53422 0.0288 0.0
C364 C 0.49274 0.45236 0.69705 0.0
O365 O 0.45487 0.4513 0.69369 0.0
O366 O 0.42142 0.45664 0.73595 0.0
Zn367 Zn 0.46699 0.4468 0.73728 0.0
O368 O 0.44872 0.4322 0.73264 0.0
C369 C 0.49237 0.45777 0.77271 0.0
O370 O 0.49073 0.46529 0.75889 0.0
O371 O 0.50612 0.45075 0.71536 0.0
C372 C 0.43879 0.42656 0.74808 0.0
O373 O 0.44069 0.43035 0.76719 0.0
C374 C 0.3977 0.45691 0.75136 0.0
O375 O 0.40143 0.45009 0.76648 0.0
O376 O 0.48851 0.44855 0.76629 0.0
C377 C 0.22855 0.28906 0.71625 0.0
O378 O 0.25117 0.28154 0.72296 0.0
O379 O 0.32834 0.29095 0.72517 0.0
Zn380 Zn 0.2884 0.30116 0.73553 0.0
O381 O 0.3061 0.31577 0.7299 0.0
C382 C 0.28993 0.2905 0.77534 0.0
O383 O 0.29607 0.28238 0.76343 0.0
O384 O 0.23776 0.29833 0.72053 0.0
C385 C 0.32569 0.32053 0.74386 0.0
O386 O 0.33432 0.31577 0.76147 0.0
C387 C 0.36385 0.29112 0.73121 0.0
O388 O 0.37593 0.29874 0.74319 0.0
O389 O 0.28335 0.29918 0.76675 0.0
C390 C 0.46666 0.30958 0.05502 0.0
O391 O 0.44919 0.31862 0.05544 0.0
O392 O 0.36473 0.29132 0.04203 0.0
Zn393 Zn 0.39731 0.30323 0.03188 0.0
O394 O 0.37215 0.31704 0.03784 0.0
C395 C 0.40224 0.29285 0.99192 0.0
O396 O 0.40348 0.28456 0.00375 0.0
O397 O 0.45033 0.30212 0.04548 0.0
C398 C 0.34864 0.32085 0.0244 0.0
O399 O 0.33967 0.31543 0.00764 0.0
C400 C 0.32776 0.29074 0.03972 0.0
O401 O 0.30855 0.29872 0.03227 0.0
O402 O 0.40182 0.30168 0.00059 0.0
C403 C 0.22263 0.46526 0.02197 0.0
O404 O 0.25592 0.47038 0.02189 0.0
O405 O 0.31725 0.45609 0.01334 0.0
Zn406 Zn 0.2689 0.44977 0.00097 0.0
O407 O 0.26888 0.43453 0.00725 0.0
C408 C 0.28685 0.46144 0.965 0.0
O409 O 0.28974 0.46857 0.97959 0.0
O410 O 0.22105 0.45643 0.01332 0.0
C411 C 0.27873 0.42787 0.99358 0.0
O412 O 0.28813 0.43095 0.97458 0.0
C413 C 0.34993 0.45315 0.00582 0.0
O414 O 0.35052 0.44516 0.9931 0.0
O415 O 0.27414 0.45255 0.97005 0.0
H416 H 0.197 0.05098 0.01575 0.0
H417 H 0.15409 0.05028 0.04646 0.0
H418 H 0.14214 0.01738 0.03898 0.0
H419 H 0.18472 0.01796 0.00802 0.0
H420 H 0.07268 0.04151 0.04204 0.0
H421 H 0.16425 0.02269 0.10361 0.0
H422 H 0.18578 0.02953 0.08172 0.0
H423 H 0.16391 0.01711 0.07769 0.0
C424 C 0.1861 0.04354 0.02088 0.0
C425 C 0.19422 0.03453 0.00934 0.0
C426 C 0.16139 0.04318 0.03837 0.0
C427 C 0.14485 0.0338 0.04483 0.0
C428 C 0.15474 0.02469 0.0342 0.0
H429 H 0.98716 0.02284 0.15065 0.0
H430 H 0.0244 0.02026 0.11822 0.0
C431 C 0.17924 0.02504 0.01657 0.0
C432 C 0.11487 0.03373 0.06161 0.0
H433 H 0.09942 0.0271 0.11275 0.0
C434 C 0.07839 0.03834 0.05751 0.0
C435 C 0.12232 0.02943 0.08156 0.0
C436 C 0.1612 0.02443 0.08661 0.0
C437 C 0.04927 0.03895 0.07307 0.0
C438 C 0.05726 0.03503 0.09335 0.0
C439 C 0.09336 0.03012 0.0972 0.0
C440 C 0.02984 0.03653 0.11119 0.0
C441 C 0.01025 0.04377 0.06761 0.0
C442 C 0.01972 0.04653 0.11774 0.0
C443 C -0.00174 0.04804 0.13619 0.0
C444 C 0.98689 0.03957 0.1486 0.0
C445 C 0.99544 0.02954 0.14147 0.0
C446 C 0.01685 0.02804 0.12298 0.0
H447 H 0.00418 0.04322 0.0505 0.0
H448 H 0.98582 0.04002 0.07631 0.0
H449 H 0.01084 0.05207 0.07188 0.0
H450 H 0.03007 0.0532 0.10913 0.0
H451 H 0.99239 0.05587 0.14126 0.0
H452 H 0.03584 0.22211 0.03069 0.0
H453 H 0.05968 0.22615 0.06596 0.0
H454 H 0.05724 0.19382 0.08186 0.0
H455 H 0.03323 0.18968 0.04673 0.0
H456 H 0.0329 0.20815 0.11518 0.0
H457 H 0.17639 0.21785 0.07775 0.0
H458 H 0.13323 0.22431 0.06817 0.0
H459 H 0.13877 0.2107 0.06409 0.0
C460 C 0.03938 0.21587 0.04185 0.0
C461 C 0.0332 0.20555 0.03581 0.0
C462 C 0.05318 0.21821 0.06195 0.0
C463 C 0.06088 0.21026 0.07627 0.0
C464 C 0.05162 0.20005 0.07092 0.0
H465 H 0.21457 0.19532 0.17395 0.0
H466 H 0.18073 0.19891 0.14092 0.0
C467 C 0.03788 0.1977 0.05084 0.0
C468 C 0.08236 0.21233 0.09596 0.0
H469 H 0.1744 0.21739 0.11455 0.0
C470 C 0.06363 0.21036 0.11515 0.0
C471 C 0.12254 0.21512 0.09568 0.0
C472 C 0.14421 0.21708 0.07537 0.0
C473 C 0.08445 0.21077 0.13413 0.0
C474 C 0.12491 0.21325 0.13378 0.0
C475 C 0.1433 0.21557 0.11467 0.0
C476 C 0.14944 0.21223 0.15276 0.0
C477 C 0.06362 0.20801 0.15431 0.0
C478 C 0.14417 0.21881 0.17 0.0
C479 C 0.16366 0.21682 0.18887 0.0
C480 C 0.1885 0.20818 0.19075 0.0
C481 C 0.19556 0.20201 0.173 0.0
C482 C 0.17625 0.20404 0.15414 0.0
H483 H 0.03359 0.20496 0.15149 0.0
H484 H 0.08069 0.20216 0.16318 0.0
H485 H 0.06113 0.21499 0.16432 0.0
H486 H 0.12384 0.22523 0.16911 0.0
H487 H 0.15749 0.22171 0.20227 0.0
H488 H 0.78988 0.94167 0.9658 0.0
H489 H 0.8071 0.94097 0.92855 0.0
H490 H 0.82732 0.9738 0.9284 0.0
H491 H 0.81032 0.97462 0.96575 0.0
H492 H 0.78145 0.96298 0.89085 0.0
H493 H 0.92884 0.94758 0.91224 0.0
H494 H 0.88668 0.94197 0.92496 0.0
H495 H 0.89958 0.95513 0.93027 0.0
C496 C 0.79725 0.94879 0.9578 0.0
C497 C 0.79902 0.95819 0.9688 0.0
C498 C 0.80715 0.94836 0.93654 0.0
C499 C 0.81878 0.95732 0.92591 0.0
C500 C 0.81844 0.96681 0.93644 0.0
H501 H 0.89385 0.96687 0.7962 0.0
H502 H 0.87289 0.96951 0.8325 0.0
C503 C 0.80869 0.96725 0.95776 0.0
C504 C 0.83405 0.9566 0.90427 0.0
H505 H 0.91361 0.94848 0.87619 0.0
C506 C 0.81037 0.95986 0.88756 0.0
C507 C 0.87177 0.95253 0.9002 0.0
C508 C 0.89848 0.94914 0.9178 0.0
C509 C 0.82314 0.95889 0.86666 0.0
C510 C 0.86094 0.95478 0.86256 0.0
C511 C 0.88471 0.95163 0.87938 0.0
C512 C 0.87598 0.95334 0.84092 0.0
C513 C 0.79561 0.96202 0.84922 0.0
C514 C 0.88642 0.94345 0.83388 0.0
C515 C 0.89896 0.94193 0.81323 0.0
C516 C 0.90136 0.95029 0.79922 0.0
C517 C 0.89235 0.96026 0.80657 0.0
C518 C 0.87993 0.96177 0.82726 0.0
H519 H 0.76454 0.96214 0.85458 0.0
H520 H 0.80327 0.96993 0.84395 0.0
H521 H 0.79804 0.95674 0.83555 0.0
H522 H 0.88386 0.93685 0.84424 0.0
H523 H 0.90558 0.93415 0.80807 0.0
H524 H 0.91582 0.77593 0.95916 0.0
H525 H 0.89023 0.77536 0.92338 0.0
H526 H 0.87884 0.8085 0.92331 0.0
H527 H 0.90387 0.80916 0.95925 0.0
H528 H 0.81016 0.79833 0.91285 0.0
H529 H 0.93507 0.78314 0.86616 0.0
H530 H 0.92358 0.77552 0.88888 0.0
H531 H 0.94122 0.7885 0.89213 0.0
C532 C 0.90878 0.78313 0.95138 0.0
C533 C 0.91174 0.79259 0.96209 0.0
C534 C 0.89426 0.78278 0.93088 0.0
C535 C 0.88287 0.79189 0.92066 0.0
C536 C 0.88754 0.80139 0.93094 0.0
H537 H 0.76392 0.80477 0.80307 0.0
H538 H 0.79312 0.80588 0.83803 0.0
C539 C 0.90196 0.80174 0.95145 0.0
C540 C 0.86261 0.79143 0.90013 0.0
H541 H 0.87241 0.78317 0.84951 0.0
C542 C 0.82386 0.7951 0.89894 0.0
C543 C 0.88049 0.78714 0.88209 0.0
C544 C 0.9225 0.78343 0.88226 0.0
C545 C 0.80222 0.79443 0.88026 0.0
C546 C 0.82002 0.79009 0.86226 0.0
C547 C 0.85881 0.78645 0.86341 0.0
C548 C 0.79918 0.78937 0.84194 0.0
C549 C 0.76021 0.79814 0.88006 0.0
C550 C 0.79273 0.77972 0.83263 0.0
C551 C 0.77607 0.77904 0.81264 0.0
C552 C 0.76589 0.78803 0.80153 0.0
C553 C 0.77121 0.79769 0.81123 0.0
C554 C 0.78785 0.79835 0.83123 0.0
H555 H 0.748 0.79882 0.89618 0.0
H556 H 0.75896 0.80588 0.87261 0.0
H557 H 0.74129 0.79284 0.87082 0.0
H558 H 0.80134 0.7727 0.84067 0.0
H559 H 0.77248 0.77149 0.80562 0.0
H560 H 0.09393 0.52058 0.7192 0.0
H561 H 0.1248 0.51924 0.68457 0.0
H562 H 0.10635 0.55178 0.67451 0.0
H563 H 0.07541 0.55323 0.70902 0.0
H564 H 0.09541 0.52596 0.64232 0.0
H565 H 0.229 0.54646 0.67028 0.0
H566 H 0.19432 0.54048 0.68798 0.0
H567 H 0.18287 0.55264 0.67594 0.0
C568 C 0.0958 0.52742 0.70948 0.0
C569 C 0.08251 0.53703 0.71692 0.0
C570 C 0.11354 0.52664 0.68976 0.0
C571 C 0.11842 0.53545 0.67729 0.0
C572 C 0.10329 0.54493 0.68414 0.0
H573 H 0.21868 0.55275 0.56009 0.0
H574 H 0.19585 0.55162 0.59634 0.0
C575 C 0.0854 0.54572 0.70379 0.0
C576 C 0.14058 0.53485 0.65743 0.0
H577 H 0.22471 0.54317 0.63371 0.0
C578 C 0.12384 0.52962 0.64041 0.0
C579 C 0.17764 0.53964 0.65519 0.0
C580 C 0.19731 0.54506 0.67333 0.0
C581 C 0.14259 0.52939 0.6208 0.0
C582 C 0.17947 0.53432 0.61844 0.0
C583 C 0.19656 0.53936 0.63564 0.0
C584 C 0.1992 0.53496 0.5978 0.0
C585 C 0.12201 0.52425 0.60259 0.0
C586 C 0.21059 0.52599 0.58705 0.0
C587 C 0.22355 0.52661 0.56627 0.0
C588 C 0.22551 0.5362 0.55601 0.0
C589 C 0.21724 0.54523 0.56747 0.0
C590 C 0.20414 0.5446 0.58819 0.0
H591 H 0.09044 0.52283 0.60595 0.0
H592 H 0.12429 0.52905 0.58819 0.0
H593 H 0.13613 0.5167 0.59936 0.0
H594 H 0.20788 0.5185 0.59443 0.0
H595 H 0.23008 0.51952 0.55795 0.0
H596 H 0.19652 0.68895 0.71848 0.0
H597 H 0.18292 0.68823 0.68086 0.0
H598 H 0.18269 0.72147 0.67806 0.0
H599 H 0.19651 0.7223 0.71568 0.0
H600 H 0.11268 0.69734 0.66511 0.0
H601 H 0.24555 0.71274 0.6252 0.0
H602 H 0.24666 0.70767 0.65164 0.0
H603 H 0.22746 0.72035 0.64674 0.0
C604 C 0.19461 0.69612 0.7098 0.0
C605 C 0.19726 0.70569 0.72012 0.0
C606 C 0.18676 0.69568 0.68831 0.0
C607 C 0.18188 0.70479 0.67673 0.0
C608 C 0.18688 0.71435 0.68669 0.0
H609 H 0.09846 0.71879 0.55136 0.0
H610 H 0.12131 0.71957 0.58774 0.0
C611 C 0.19465 0.71481 0.70821 0.0
C612 C 0.16693 0.70429 0.65498 0.0
H613 H 0.18849 0.71055 0.60425 0.0
C614 C 0.12933 0.70016 0.65176 0.0
C615 C 0.1886 0.70809 0.63773 0.0
C616 C 0.22945 0.7124 0.64037 0.0
C617 C 0.1125 0.69983 0.63169 0.0
C618 C 0.13427 0.70355 0.61436 0.0
C619 C 0.17189 0.70771 0.61759 0.0
C620 C 0.11872 0.70307 0.5927 0.0
C621 C 0.07122 0.69575 0.62932 0.0
C622 C 0.10954 0.69353 0.58351 0.0
C623 C 0.0962 0.69306 0.56281 0.0
C624 C 0.09224 0.70211 0.55084 0.0
C625 C 0.10109 0.71167 0.56017 0.0
C626 C 0.11429 0.71214 0.58092 0.0
H627 H 0.05491 0.69596 0.64444 0.0
H628 H 0.05453 0.70025 0.61748 0.0
H629 H 0.07248 0.6876 0.62402 0.0
H630 H 0.11349 0.68643 0.59221 0.0
H631 H 0.08999 0.68556 0.55604 0.0
H632 H 0.76032 0.44429 0.41669 0.0
H633 H 0.78365 0.44987 0.38226 0.0
H634 H 0.78322 0.48153 0.40313 0.0
H635 H 0.76008 0.47604 0.43773 0.0
H636 H 0.75941 0.46504 0.35107 0.0
H637 H 0.90078 0.4743 0.391 0.0
H638 H 0.86291 0.46674 0.4035 0.0
H639 H 0.85713 0.48044 0.40086 0.0
C640 C 0.76416 0.45247 0.41383 0.0
C641 C 0.75911 0.4597 0.43007 0.0
C642 C 0.77748 0.45564 0.39414 0.0
C643 C 0.78591 0.46607 0.3904 0.0
C644 C 0.77743 0.47342 0.40591 0.0
H645 H 0.88433 0.48055 0.26605 0.0
H646 H 0.84993 0.48354 0.29923 0.0
C647 C 0.76404 0.47026 0.42562 0.0
C648 C 0.80776 0.46896 0.37125 0.0
H649 H 0.9 0.47507 0.35424 0.0
C650 C 0.78992 0.46744 0.35168 0.0
C651 C 0.84768 0.47197 0.37226 0.0
C652 C 0.86853 0.47341 0.39298 0.0
C653 C 0.81142 0.46847 0.333 0.0
C654 C 0.85165 0.47117 0.33404 0.0
C655 C 0.86907 0.47308 0.35358 0.0
C656 C 0.8771 0.47068 0.31527 0.0
C657 C 0.7916 0.46607 0.31238 0.0
C658 C 0.90532 0.46283 0.31379 0.0
C659 C 0.92518 0.46113 0.29494 0.0
C660 C 0.91719 0.46728 0.27729 0.0
C661 C 0.89117 0.47567 0.27935 0.0
C662 C 0.87122 0.47734 0.29823 0.0
H663 H 0.76189 0.46268 0.31456 0.0
H664 H 0.7885 0.47328 0.30316 0.0
H665 H 0.80969 0.4606 0.30306 0.0
H666 H 0.91035 0.45764 0.32685 0.0
H667 H 0.94515 0.45464 0.29388 0.0
H668 H 0.82903 0.26817 0.28287 0.0
H669 H 0.84392 0.26383 0.31939 0.0
H670 H 0.8254 0.29555 0.33729 0.0
H671 H 0.81043 0.29998 0.30089 0.0
H672 H 0.90735 0.27292 0.34107 0.0
H673 H 0.76684 0.27918 0.38314 0.0
H674 H 0.7694 0.27724 0.35506 0.0
H675 H 0.78005 0.28969 0.36619 0.0
C676 C 0.82716 0.27418 0.29465 0.0
C677 C 0.81863 0.28443 0.28898 0.0
C678 C 0.8358 0.27168 0.31549 0.0
C679 C 0.83547 0.27935 0.33102 0.0
C680 C 0.82517 0.28949 0.32558 0.0
H681 H 0.96051 0.29211 0.44185 0.0
H682 H 0.93855 0.289 0.40589 0.0
C683 C 0.81679 0.29201 0.30475 0.0
C684 C 0.84986 0.27708 0.35244 0.0
H685 H 0.82542 0.27937 0.40417 0.0
C686 C 0.88928 0.27414 0.35489 0.0
C687 C 0.82612 0.27858 0.37039 0.0
C688 C 0.78313 0.28125 0.36862 0.0
C689 C 0.90621 0.27325 0.37488 0.0
C690 C 0.88314 0.27543 0.39279 0.0
C691 C 0.84313 0.27778 0.39038 0.0
C692 C 0.90051 0.27622 0.414 0.0
C693 C 0.94882 0.2702 0.37668 0.0
C694 C 0.88672 0.26999 0.43042 0.0
C695 C 0.89935 0.27172 0.451 0.0
C696 C 0.92552 0.27983 0.45551 0.0
C697 C 0.94048 0.28578 0.43888 0.0
C698 C 0.92807 0.28399 0.41831 0.0
H699 H 0.95893 0.26593 0.36254 0.0
H700 H 0.96703 0.27727 0.37818 0.0
H701 H 0.95389 0.26533 0.39077 0.0
H702 H 0.86521 0.26401 0.42741 0.0
H703 H 0.88698 0.26706 0.46348 0.0
H704 H 0.62233 0.05102 0.67696 0.0
H705 H 0.64008 0.04731 0.64051 0.0
H706 H 0.69578 0.01899 0.65987 0.0
H707 H 0.67814 0.0226 0.6964 0.0
H708 H 0.74315 0.03226 0.63423 0.0
H709 H 0.59621 0.02511 0.59954 0.0
H710 H 0.5991 0.03668 0.61503 0.0
H711 H 0.60547 0.02434 0.62744 0.0
C712 C 0.63794 0.04394 0.67346 0.0
C713 C 0.64884 0.03711 0.68959 0.0
C714 C 0.64788 0.04181 0.65261 0.0
C715 C 0.66889 0.03283 0.64753 0.0
C716 C 0.67936 0.02593 0.66351 0.0
H717 H 0.70705 0.01915 0.51486 0.0
H718 H 0.69829 0.0162 0.55244 0.0
C719 C 0.66919 0.02801 0.68435 0.0
C720 C 0.6821 0.03106 0.62569 0.0
H721 H 0.64843 0.02865 0.57552 0.0
C722 C 0.72253 0.03132 0.62139 0.0
C723 C 0.65514 0.02968 0.60907 0.0
C724 C 0.61155 0.02883 0.61295 0.0
C725 C 0.73662 0.03079 0.60071 0.0
C726 C 0.7095 0.03007 0.58398 0.0
C727 C 0.66919 0.02926 0.58838 0.0
C728 C 0.72171 0.03102 0.56177 0.0
C729 C 0.78033 0.03115 0.59691 0.0
C730 C 0.73883 0.04022 0.55462 0.0
C731 C 0.7439 0.04195 0.53315 0.0
C732 C 0.73172 0.03452 0.51844 0.0
C733 C 0.71702 0.02502 0.52574 0.0
C734 C 0.71176 0.02333 0.54722 0.0
H735 H 0.79695 0.02846 0.61089 0.0
H736 H 0.78872 0.02633 0.58319 0.0
H737 H 0.7892 0.03923 0.59366 0.0
H738 H 0.74606 0.04634 0.56555 0.0
H739 H 0.75513 0.04936 0.52804 0.0
H740 H 0.73276 0.21087 0.68348 0.0
H741 H 0.70638 0.2131 0.64799 0.0
H742 H 0.60783 0.22994 0.67347 0.0
H743 H 0.63528 0.22828 0.70857 0.0
H744 H 0.64316 0.205 0.63488 0.0
H745 H 0.62626 0.24695 0.62315 0.0
H746 H 0.65485 0.2417 0.64445 0.0
H747 H 0.60231 0.24303 0.64688 0.0
C748 C 0.70619 0.21534 0.68133 0.0
C749 C 0.68629 0.21949 0.69867 0.0
C750 C 0.69103 0.21659 0.6611 0.0
C751 C 0.65529 0.22181 0.65795 0.0
C752 C 0.63605 0.2262 0.67529 0.0
H753 H 0.49821 0.20405 0.55771 0.0
H754 H 0.52808 0.20775 0.59187 0.0
C755 C 0.65172 0.22519 0.69542 0.0
C756 C 0.6357 0.22149 0.63714 0.0
H757 H 0.58569 0.23604 0.60129 0.0
C758 C 0.63111 0.21183 0.62744 0.0
C759 C 0.62014 0.23039 0.62726 0.0
C760 C 0.62655 0.2411 0.63589 0.0
C761 C 0.61086 0.21078 0.60845 0.0
C762 C 0.59306 0.21956 0.5993 0.0
C763 C 0.59849 0.22928 0.60862 0.0
C764 C 0.57004 0.21878 0.57964 0.0
C765 C 0.60948 0.20026 0.59821 0.0
C766 C 0.58164 0.22437 0.56182 0.0
C767 C 0.56378 0.2225 0.54246 0.0
C768 C 0.53438 0.21493 0.5406 0.0
C769 C 0.52094 0.20987 0.55872 0.0
C770 C 0.53826 0.21191 0.57816 0.0
H771 H 0.63385 0.19525 0.60371 0.0
H772 H 0.58145 0.19641 0.60237 0.0
H773 H 0.61128 0.20088 0.58084 0.0
H774 H 0.60595 0.22975 0.56262 0.0
H775 H 0.57503 0.22646 0.52873 0.0
H776 H 0.32639 0.94318 0.48625 0.0
H777 H 0.33517 0.94498 0.44835 0.0
H778 H 0.39769 0.97355 0.45788 0.0
H779 H 0.38835 0.97194 0.49582 0.0
H780 H 0.34576 0.97474 0.42541 0.0
H781 H 0.43765 0.93968 0.41747 0.0
H782 H 0.39114 0.9371 0.42963 0.0
H783 H 0.42604 0.94535 0.44261 0.0
C784 C 0.34178 0.94989 0.48029 0.0
C785 C 0.35686 0.95739 0.49405 0.0
C786 C 0.34707 0.95085 0.45864 0.0
C787 C 0.36795 0.95926 0.45036 0.0
C788 C 0.38182 0.96695 0.46398 0.0
H789 H 0.44733 0.95972 0.31916 0.0
H790 H 0.44673 0.96033 0.35769 0.0
C791 C 0.37635 0.96603 0.48565 0.0
C792 C 0.37501 0.96004 0.42747 0.0
H793 H 0.41266 0.9469 0.38557 0.0
C794 C 0.3607 0.9687 0.41671 0.0
C795 C 0.3953 0.95226 0.41622 0.0
C796 C 0.41379 0.94313 0.4271 0.0
C797 C 0.36464 0.96959 0.39486 0.0
C798 C 0.38264 0.96149 0.38346 0.0
C799 C 0.39846 0.95304 0.39432 0.0
C800 C 0.38344 0.96137 0.36022 0.0
C801 C 0.34943 0.97919 0.3842 0.0
C802 C 0.3481 0.96159 0.34896 0.0
C803 C 0.34836 0.96128 0.32708 0.0
C804 C 0.38399 0.96063 0.31598 0.0
C805 C 0.41943 0.96026 0.32727 0.0
C806 C 0.41914 0.96061 0.34925 0.0
H807 H 0.34842 0.98583 0.39523 0.0
H808 H 0.36794 0.98132 0.37051 0.0
H809 H 0.31908 0.97777 0.37856 0.0
H810 H 0.32019 0.96189 0.35711 0.0
H811 H 0.32049 0.96149 0.31891 0.0
H812 H 0.49533 0.8037 0.4345 0.0
H813 H 0.48352 0.80435 0.39668 0.0
H814 H 0.46444 0.77148 0.39573 0.0
H815 H 0.47627 0.77069 0.43357 0.0
H816 H 0.50726 0.78202 0.35779 0.0
H817 H 0.36217 0.79791 0.38207 0.0
H818 H 0.40499 0.80383 0.39344 0.0
H819 H 0.39316 0.7907 0.39978 0.0
C820 C 0.48984 0.79655 0.42619 0.0
C821 C 0.48598 0.78717 0.43713 0.0
C822 C 0.48306 0.79695 0.40459 0.0
C823 C 0.47255 0.78799 0.39361 0.0
C824 C 0.47243 0.77847 0.40403 0.0
H825 H 0.38409 0.7787 0.26603 0.0
H826 H 0.41015 0.77591 0.30137 0.0
C827 C 0.47917 0.77805 0.42566 0.0
C828 C 0.45626 0.78879 0.37221 0.0
H829 H 0.37519 0.79715 0.3458 0.0
C830 C 0.4784 0.7853 0.35506 0.0
C831 C 0.41846 0.79299 0.36891 0.0
C832 C 0.39303 0.79652 0.38698 0.0
C833 C 0.46405 0.78621 0.33445 0.0
C834 C 0.42635 0.79055 0.33113 0.0
C835 C 0.40409 0.79387 0.34839 0.0
C836 C 0.40977 0.79208 0.30987 0.0
C837 C 0.4898 0.78282 0.31642 0.0
C838 C 0.3994 0.80204 0.30326 0.0
C839 C 0.38392 0.80365 0.28325 0.0
C840 C 0.37849 0.79531 0.26944 0.0
C841 C 0.38796 0.78529 0.27628 0.0
C842 C 0.40329 0.78369 0.29638 0.0
H843 H 0.52106 0.78212 0.3212 0.0
H844 H 0.47987 0.77514 0.3108 0.0
H845 H 0.4878 0.78832 0.30309 0.0
H846 H 0.40388 0.80862 0.31351 0.0
H847 H 0.37704 0.81146 0.27847 0.0
H848 H 0.73517 0.5395 0.06766 0.0
H849 H 0.69952 0.53813 0.10088 0.0
H850 H 0.67212 0.50634 0.08729 0.0
H851 H 0.7079 0.50758 0.05412 0.0
H852 H 0.60573 0.52035 0.09358 0.0
H853 H 0.7159 0.52225 0.15781 0.0
H854 H 0.72254 0.53145 0.13695 0.0
H855 H 0.72798 0.51792 0.13159 0.0
C856 C 0.7226 0.53212 0.07202 0.0
C857 C 0.72406 0.52368 0.05817 0.0
C858 C 0.70232 0.53135 0.09103 0.0
C859 C 0.68325 0.52213 0.09645 0.0
C860 C 0.6868 0.5135 0.08334 0.0
H861 H 0.5464 0.51726 0.21185 0.0
H862 H 0.58413 0.51221 0.18087 0.0
C863 C 0.70737 0.51423 0.06442 0.0
C864 C 0.65545 0.52199 0.11424 0.0
H865 H 0.64915 0.52542 0.16721 0.0
C866 C 0.61517 0.5213 0.10973 0.0
C867 C 0.668 0.5232 0.13521 0.0
C868 C 0.71098 0.52367 0.14081 0.0
C869 C 0.58693 0.52225 0.12565 0.0
C870 C 0.59944 0.52393 0.14649 0.0
C871 C 0.63975 0.52416 0.15113 0.0
C872 C 0.57136 0.52616 0.16355 0.0
C873 C 0.54396 0.52165 0.12006 0.0
C874 C 0.55085 0.53554 0.16372 0.0
C875 C 0.52937 0.53849 0.18142 0.0
C876 C 0.52809 0.53207 0.1992 0.0
C877 C 0.54649 0.52235 0.19836 0.0
C878 C 0.5683 0.51947 0.18074 0.0
H879 H 0.53934 0.51799 0.10447 0.0
H880 H 0.52746 0.51722 0.13211 0.0
H881 H 0.53157 0.52956 0.1195 0.0
H882 H 0.55327 0.54085 0.15063 0.0
H883 H 0.51565 0.54603 0.18163 0.0
H884 H 0.69876 0.72408 0.20994 0.0
H885 H 0.68414 0.72477 0.17235 0.0
H886 H 0.71082 0.69237 0.16671 0.0
H887 H 0.72549 0.69157 0.20424 0.0
H888 H 0.73691 0.70645 0.13137 0.0
H889 H 0.5793 0.70919 0.15458 0.0
H890 H 0.61293 0.71829 0.16608 0.0
H891 H 0.6168 0.70486 0.17257 0.0
C892 C 0.70251 0.71715 0.20063 0.0
C893 C 0.71274 0.70773 0.21013 0.0
C894 C 0.69403 0.71757 0.17918 0.0
C895 C 0.69591 0.70859 0.16694 0.0
C896 C 0.70914 0.69937 0.17599 0.0
H897 H 0.58325 0.68509 0.05794 0.0
H898 H 0.60876 0.68926 0.09284 0.0
C899 C 0.71744 0.69893 0.19743 0.0
C900 C 0.67992 0.70846 0.1454 0.0
H901 H 0.59321 0.70802 0.11854 0.0
C902 C 0.70558 0.70693 0.12846 0.0
C903 C 0.63896 0.70898 0.14184 0.0
C904 C 0.61019 0.71036 0.15967 0.0
C905 C 0.69117 0.70575 0.10794 0.0
C906 C 0.65018 0.70611 0.10446 0.0
C907 C 0.62462 0.70781 0.12136 0.0
C908 C 0.63312 0.704 0.0836 0.0
C909 C 0.71963 0.70375 0.09022 0.0
C910 C 0.63766 0.71104 0.06708 0.0
C911 C 0.62285 0.70872 0.04717 0.0
C912 C 0.60343 0.6993 0.0435 0.0
C913 C 0.59806 0.6924 0.06028 0.0
C914 C 0.61263 0.69476 0.08019 0.0
H915 H 0.74994 0.70233 0.09599 0.0
H916 H 0.70997 0.69699 0.08083 0.0
H917 H 0.72025 0.71055 0.07962 0.0
H918 H 0.65309 0.71825 0.06953 0.0
H919 H 0.62764 0.71418 0.03455 0.0
H920 H 0.49017 0.4441 0.80537 0.0
H921 H 0.46059 0.44711 0.8398 0.0
H922 H 0.44725 0.47939 0.82515 0.0
H923 H 0.47677 0.4765 0.79065 0.0
H924 H 0.4739 0.46211 0.87478 0.0
H925 H 0.33312 0.46676 0.83116 0.0
H926 H 0.37614 0.46098 0.81947 0.0
H927 H 0.37372 0.4747 0.82302 0.0
C928 C 0.48205 0.4519 0.80968 0.0
C929 C 0.48525 0.46003 0.79514 0.0
C930 C 0.46513 0.4536 0.82935 0.0
C931 C 0.45116 0.46342 0.83474 0.0
C932 C 0.45753 0.47173 0.82108 0.0
H933 H 0.33224 0.47775 0.95288 0.0
H934 H 0.3717 0.47919 0.92095 0.0
C935 C 0.47459 0.47006 0.80142 0.0
C936 C 0.42595 0.46464 0.85342 0.0
H937 H 0.33005 0.4675 0.86805 0.0
C938 C 0.44254 0.46341 0.87339 0.0
C939 C 0.38498 0.46619 0.85138 0.0
C940 C 0.36566 0.46718 0.83015 0.0
C941 C 0.41902 0.46361 0.89149 0.0
C942 C 0.37806 0.46511 0.88943 0.0
C943 C 0.36154 0.46643 0.86948 0.0
C944 C 0.35168 0.46474 0.9078 0.0
C945 C 0.43781 0.46192 0.91265 0.0
C946 C 0.32644 0.45629 0.91053 0.0
C947 C 0.30381 0.45542 0.92875 0.0
C948 C 0.30589 0.46305 0.94441 0.0
C949 C 0.32984 0.47175 0.9411 0.0
C950 C 0.35263 0.47257 0.92295 0.0
H951 H 0.46899 0.45947 0.91131 0.0
H952 H 0.4367 0.46922 0.92171 0.0
H953 H 0.42137 0.45599 0.92167 0.0
H954 H 0.32528 0.4502 0.8989 0.0
H955 H 0.28567 0.44863 0.93085 0.0
H956 H 0.28866 0.30632 0.80373 0.0
H957 H 0.30863 0.30572 0.84055 0.0
H958 H 0.32786 0.27292 0.83561 0.0
H959 H 0.30785 0.27341 0.79869 0.0
H960 H 0.2866 0.28026 0.87362 0.0
H961 H 0.42648 0.30085 0.85712 0.0
H962 H 0.38288 0.30695 0.84715 0.0
H963 H 0.39789 0.29467 0.83681 0.0
C964 C 0.29665 0.29894 0.8105 0.0
C965 C 0.29695 0.28992 0.79822 0.0
C966 C 0.30826 0.29864 0.8315 0.0
C967 C 0.32033 0.28931 0.8406 0.0
C968 C 0.31888 0.2802 0.82875 0.0
H969 H 0.39922 0.27523 0.96825 0.0
H970 H 0.38166 0.27375 0.93111 0.0
C971 C 0.3074 0.2805 0.80769 0.0
C972 C 0.33554 0.28916 0.86231 0.0
H973 H 0.41024 0.29819 0.89291 0.0
C974 C 0.31376 0.2841 0.87788 0.0
C975 C 0.37102 0.29417 0.86767 0.0
C976 C 0.3962 0.2994 0.85132 0.0
C977 C 0.32586 0.28423 0.89895 0.0
C978 C 0.36113 0.28937 0.90438 0.0
C979 C 0.38325 0.29426 0.88868 0.0
C980 C 0.37461 0.29019 0.92641 0.0
C981 C 0.30007 0.2792 0.91529 0.0
C982 C 0.3782 0.29994 0.93578 0.0
C983 C 0.38867 0.30082 0.95689 0.0
C984 C 0.39576 0.29195 0.96903 0.0
C985 C 0.39369 0.2822 0.95937 0.0
C986 C 0.38336 0.28134 0.9382 0.0
H987 H 0.2699 0.27778 0.90931 0.0
H988 H 0.31296 0.27166 0.91981 0.0
H989 H 0.29806 0.28406 0.92962 0.0
H990 H 0.37183 0.30687 0.92689 0.0
H991 H 0.39005 0.30845 0.96382 0.0
H992 H 0.25858 0.96432 0.21967 0.0
H993 H 0.20533 0.97703 0.22054 0.0
H994 H 0.28228 -0.00113 0.25087 0.0
H995 H 0.33568 0.98637 0.24968 0.0
H996 H 0.17196 0.98611 0.25546 0.0
H997 H 0.23683 0.01591 0.20345 0.0
H998 H 0.25594 0.00294 0.20496 0.0
H999 H 0.26855 0.0123 0.2247 0.0
C1000 C 0.26429 0.97188 0.22627 0.0
C1001 C 0.3014 0.97435 0.2345 0.0
C1002 C 0.23383 0.97911 0.22681 0.0
C1003 C 0.24006 0.98893 0.23552 0.0
C1004 C 0.2771 0.99142 0.24365 0.0
H1005 H 0.09289 0.04233 0.26004 0.0
H1006 H 0.14391 0.02901 0.26217 0.0
C1007 C 0.30756 0.98424 0.24303 0.0
C1008 C 0.20748 0.99644 0.23694 0.0
H1009 H 0.18064 0.0209 0.22327 0.0
C1010 C 0.17372 0.9937 0.24832 0.0
C1011 C 0.20998 0.00633 0.22764 0.0
C1012 C 0.24461 0.00953 0.21433 0.0
C1013 C 0.14254 0.00066 0.2509 0.0
C1014 C 0.1453 0.01057 0.24179 0.0
C1015 C 0.17899 0.01332 0.23043 0.0
C1016 C 0.11266 0.01804 0.24279 0.0
C1017 C 0.10705 -0.00254 0.26349 0.0
C1018 C 0.0782 0.01616 0.23143 0.0
C1019 C 0.04924 0.02374 0.23007 0.0
C1020 C 0.05429 0.03332 0.24009 0.0
C1021 C 0.08812 0.03501 0.25224 0.0
C1022 C 0.11729 0.02744 0.25343 0.0
H1023 H 0.11287 0.99045 0.27305 0.0
H1024 H 0.09752 0.0038 0.27407 0.0
H1025 H 0.08244 0.99574 0.25262 0.0
H1026 H 0.0744 0.00899 0.22291 0.0
H1027 H 0.02344 0.0222 0.22062 0.0
H1028 H 0.89735 0.2727 0.20729 0.0
H1029 H 0.93144 0.25607 0.20825 0.0
H1030 H -0.00235 0.26613 0.2622 0.0
H1031 H 0.96368 0.28273 0.2615 0.0
H1032 H 0.0138 0.25131 0.20714 0.0
H1033 H 0.94282 0.23925 0.28177 0.0
H1034 H 0.92471 0.24983 0.26606 0.0
H1035 H 0.96667 0.2516 0.28277 0.0
C1036 C 0.91949 0.27142 0.21922 0.0
C1037 C 0.92762 0.279 0.23442 0.0
C1038 C 0.93882 0.26191 0.21976 0.0
C1039 C 0.96637 0.25983 0.23556 0.0
C1040 C 0.97583 0.26754 0.25016 0.0
H1041 H 0.11957 0.2106 0.27138 0.0
H1042 H 0.07694 0.22573 0.26968 0.0
C1043 C 0.95659 0.27704 0.24963 0.0
C1044 C 0.98492 0.24956 0.23699 0.0
H1045 H 0.99496 0.2287 0.26926 0.0
C1046 C 0.00948 0.2463 0.2206 0.0
C1047 C 0.97901 0.24309 0.2546 0.0
C1048 C 0.9516 0.24605 0.27224 0.0
C1049 C 0.02951 0.23686 0.22168 0.0
C1050 C 0.02404 0.23045 0.23944 0.0
C1051 C -0.00105 0.23363 0.25567 0.0
C1052 C 0.04584 0.22067 0.24191 0.0
C1053 C 0.05741 0.234 0.20417 0.0
C1054 C 0.04112 0.21262 0.22741 0.0
C1055 C 0.06544 0.20395 0.22833 0.0
C1056 C 0.09471 0.2032 0.24383 0.0
C1057 C 0.09741 0.21096 0.25921 0.0
C1058 C 0.07313 0.21962 0.25825 0.0
H1059 H 0.06492 0.24074 0.19418 0.0
H1060 H 0.08502 0.23068 0.21053 0.0
H1061 H 0.04342 0.22809 0.19402 0.0
H1062 H 0.0196 0.21321 0.21496 0.0
H1063 H 0.06246 0.1981 0.21629 0.0
H1064 H 0.14579 0.21555 0.9708 0.0
H1065 H 0.18739 0.22982 0.98243 0.0
H1066 H 0.21087 0.21383 0.04044 0.0
H1067 H 0.16911 0.19954 0.02907 0.0
H1068 H 0.18196 0.2343 0.04517 0.0
H1069 H 0.30769 0.23238 0.98986 0.0
H1070 H 0.26046 0.23188 0.97733 0.0
H1071 H 0.27528 0.22157 0.99448 0.0
C1072 C 0.16042 0.21497 0.98585 0.0
C1073 C 0.15412 0.20642 -0.00098 0.0
C1074 C 0.18426 0.22311 0.99244 0.0
C1075 C 0.20229 0.22282 0.01223 0.0
C1076 C 0.19722 0.21415 0.0251 0.0
H1077 H 0.36124 0.27221 0.04975 0.0
H1078 H 0.33129 0.25514 0.04688 0.0
C1079 C 0.17348 0.20599 0.01851 0.0
C1080 C 0.22359 0.23195 0.02013 0.0
H1081 H 0.29943 0.24818 0.00876 0.0
C1082 C 0.20799 0.23727 0.03744 0.0
C1083 C 0.25766 0.23573 0.01008 0.0
C1084 C 0.27655 0.23005 0.99202 0.0
C1085 C 0.22467 0.24655 0.04441 0.0
C1086 C 0.25747 0.25062 0.03363 0.0
C1087 C 0.27409 0.24506 0.01691 0.0
C1088 C 0.27377 0.2609 0.03853 0.0
C1089 C 0.20682 0.25198 0.06307 0.0
C1090 C 0.25104 0.26978 0.0352 0.0
C1091 C 0.26804 0.27956 0.03678 0.0
C1092 C 0.30813 0.2806 0.04161 0.0
C1093 C 0.33028 0.27169 0.04598 0.0
C1094 C 0.31328 0.26192 0.04432 0.0
H1095 H 0.18946 0.24659 0.07297 0.0
H1096 H 0.22987 0.25564 0.07291 0.0
H1097 H 0.18677 0.25814 0.05743 0.0
H1098 H 0.22063 0.26914 0.03038 0.0
H1099 H 0.25019 0.28627 0.03329 0.0
H1100 H 0.07379 0.04026 0.98807 0.0
H1101 H 0.03136 0.02633 0.00039 0.0
H1102 H 0.08 0.00598 0.95348 0.0
H1103 H 0.12224 0.01992 0.9408 0.0
H1104 H -0.00151 0.00454 0.95746 0.0
H1105 H 0.07207 0.00206 0.03521 0.0
H1106 H 0.05402 0.01466 0.02847 0.0
H1107 H 0.09296 0.00899 0.01329 0.0
C1108 C 0.07509 0.03287 0.98014 0.0
C1109 C 0.10149 0.03118 0.96348 0.0
C1110 C 0.05111 0.02489 0.98737 0.0
C1111 C 0.05325 0.01509 0.97814 0.0
C1112 C 0.07821 0.0135 0.96091 0.0
H1113 H 0.94583 0.95547 -0.0024 0.0
H1114 H 0.98887 0.96973 0.98765 0.0
C1115 C 0.10221 0.02147 0.95364 0.0
C1116 C 0.02979 0.00643 0.98657 0.0
H1117 H 0.01592 0.99152 0.03017 0.0
C1118 C 0.00233 0.00167 0.97333 0.0
C1119 C 0.03496 0.00274 0.0073 0.0
C1120 C 0.0653 0.0073 0.02188 0.0
C1121 C 0.97953 0.99335 0.98034 0.0
C1122 C 0.98488 0.98961 0.00101 0.0
C1123 C 0.01207 0.99442 0.01433 0.0
C1124 C 0.96226 0.98071 0.00894 0.0
C1125 C 0.94948 0.98872 0.96568 0.0
C1126 C 0.93441 0.98207 0.02493 0.0
C1127 C 0.90983 0.97392 0.03075 0.0
C1128 C 0.91289 0.96428 0.02067 0.0
C1129 C 0.94251 0.9628 0.00557 0.0
C1130 C 0.96701 0.97095 -0.00023 0.0
H1131 H 0.94275 0.99392 0.9523 0.0
H1132 H 0.96108 0.98137 0.95921 0.0
H1133 H 0.92175 0.98698 0.97417 0.0
H1134 H 0.93058 0.98954 0.03227 0.0
H1135 H 0.8874 0.9753 0.04249 0.0
H1136 H 0.72691 0.03346 0.76669 0.0
H1137 H 0.752 0.01588 0.76989 0.0
H1138 H 0.6598 0.00861 0.81391 0.0
H1139 H 0.63431 0.02623 0.81079 0.0
H1140 H 0.77332 0.00182 0.80489 0.0
H1141 H 0.63967 0.99073 0.75951 0.0
H1142 H 0.65575 0.00396 0.76154 0.0
H1143 H 0.63297 -0.00222 0.78361 0.0
C1144 C 0.71263 0.02822 0.77754 0.0
C1145 C 0.67833 0.03117 0.78826 0.0
C1146 C 0.72705 0.01819 0.77937 0.0
C1147 C 0.70732 0.01095 0.79186 0.0
C1148 C 0.67516 0.0141 0.80405 0.0
H1149 H 0.78541 0.94622 0.78645 0.0
H1150 H 0.75214 0.96168 0.79952 0.0
C1151 C 0.6608 0.02418 0.80233 0.0
C1152 C 0.71742 -7e-05 0.78963 0.0
H1153 H 0.68841 0.97814 0.76373 0.0
C1154 C 0.75444 0.99654 0.79636 0.0
C1155 C 0.69279 0.99315 0.77818 0.0
C1156 C 0.65312 0.99654 0.77014 0.0
C1157 C 0.76806 0.98662 0.79131 0.0
C1158 C 0.74403 0.98003 0.77918 0.0
C1159 C 0.70647 0.98325 0.77314 0.0
C1160 C 0.75936 0.97026 0.77068 0.0
C1161 C 0.80892 0.98344 0.7978 0.0
C1162 C 0.7731 0.96993 0.74993 0.0
C1163 C 0.79218 0.96115 0.7424 0.0
C1164 C 0.79751 0.95254 0.75549 0.0
C1165 C 0.78152 0.95269 0.7759 0.0
C1166 C 0.76272 0.96152 0.78347 0.0
H1167 H 0.82371 0.98941 0.8075 0.0
H1168 H 0.80763 0.97615 0.8069 0.0
H1169 H 0.82702 0.98194 0.78361 0.0
H1170 H 0.77057 0.97664 0.73988 0.0
H1171 H 0.80419 0.96126 0.72664 0.0
H1172 H 0.10671 0.72628 0.76918 0.0
H1173 H 0.05714 0.73817 0.75576 0.0
H1174 H 0.9654 0.71795 0.77782 0.0
H1175 H 0.01483 0.70599 0.7915 0.0
H1176 H -0.00164 0.73322 0.72526 0.0
H1177 H 0.93496 0.74669 0.801 0.0
H1178 H 0.9821 0.74036 0.79935 0.0
H1179 H 0.93768 0.73294 0.79768 0.0
C1180 C 0.076 0.7244 0.77145 0.0
C1181 C 0.06469 0.71519 0.78146 0.0
C1182 C 0.04776 0.73119 0.76367 0.0
C1183 C 0.00774 0.72893 0.76588 0.0
C1184 C 0.99622 0.71986 0.7762 0.0
H1185 H 0.7995 0.76347 0.73321 0.0
H1186 H 0.84479 0.7495 0.74176 0.0
C1187 C 0.02448 0.71304 0.78399 0.0
C1188 C 0.97819 0.73598 0.75684 0.0
H1189 H 0.9041 0.75243 0.77 0.0
C1190 C 0.97766 0.73743 0.73499 0.0
C1191 C 0.95133 0.74141 0.76963 0.0
C1192 C 0.95156 0.74037 0.79324 0.0
C1193 C 0.95066 0.74415 0.72554 0.0
C1194 C 0.92408 0.74967 0.73836 0.0
C1195 C 0.92444 0.74814 0.7602 0.0
C1196 C 0.89623 0.75733 0.72976 0.0
C1197 C 0.9505 0.7452 0.70194 0.0
C1198 C 0.91004 0.76623 0.71957 0.0
C1199 C 0.88413 0.77423 0.71451 0.0
C1200 C 0.84419 0.77347 0.71987 0.0
C1201 C 0.83019 0.7643 0.72901 0.0
C1202 C 0.85599 0.75632 0.73392 0.0
H1203 H 0.96438 0.73843 0.69422 0.0
H1204 H 0.92011 0.74607 0.69587 0.0
H1205 H 0.96747 0.75217 0.69745 0.0
H1206 H 0.94111 0.76725 0.71657 0.0
H1207 H 0.89579 0.78122 0.70758 0.0
H1208 H 0.65766 0.70672 0.95893 0.0
H1209 H 0.69397 0.72279 0.96353 0.0
H1210 H 0.76536 0.70848 0.01125 0.0
H1211 H 0.72901 0.69238 0.00693 0.0
H1212 H 0.72581 0.72619 0.0246 0.0
H1213 H 0.80439 0.73334 0.94965 0.0
H1214 H 0.75337 0.73019 0.94646 0.0
H1215 H 0.7865 0.72073 0.95707 0.0
C1216 C 0.68186 0.70688 0.96996 0.0
C1217 C 0.69019 0.69829 0.9827 0.0
C1218 C 0.70267 0.71608 0.97252 0.0
C1219 C 0.73235 0.7168 0.9877 0.0
C1220 C 0.74254 0.70805 -0.00057 0.0
H1221 H 0.85481 0.76965 0.04081 0.0
H1222 H 0.82812 0.75245 0.03424 0.0
C1223 C 0.7218 0.69884 0.99687 0.0
C1224 C 0.74911 0.72697 0.99317 0.0
H1225 H 0.79815 0.74766 0.97299 0.0
C1226 C 0.74204 0.73085 0.01341 0.0
C1227 C 0.76986 0.73303 0.97846 0.0
C1228 C 0.77933 0.72909 0.95674 0.0
C1229 C 0.75436 0.74078 0.0192 0.0
C1230 C 0.77482 0.74688 0.00442 0.0
C1231 C 0.78227 0.74296 0.98424 0.0
C1232 C 0.78881 0.75739 0.00952 0.0
C1233 C 0.74436 0.74475 0.04083 0.0
C1234 C 0.77545 0.76585 -0.00219 0.0
C1235 C 0.7907 0.77568 0.00147 0.0
C1236 C 0.81979 0.77721 0.01682 0.0
C1237 C 0.83225 0.76875 0.02896 0.0
C1238 C 0.817 0.75892 0.02526 0.0
H1239 H 0.72034 0.74022 0.04822 0.0
H1240 H 0.77066 0.74414 0.05104 0.0
H1241 H 0.73542 0.75298 0.04023 0.0
H1242 H 0.7537 0.76481 0.98558 0.0
H1243 H 0.78054 0.78202 0.99181 0.0
H1244 H 0.16016 0.53001 0.8041 0.0
H1245 H 0.20689 0.51571 0.80319 0.0
H1246 H 0.25634 0.52763 0.74574 0.0
H1247 H 0.21018 0.54202 0.74663 0.0
H1248 H 0.20699 0.50164 0.77051 0.0
H1249 H 0.35399 0.51958 0.7791 0.0
H1250 H 0.30921 0.52617 0.78632 0.0
H1251 H 0.32412 0.52551 0.75926 0.0
C1252 C 0.18164 0.52974 0.79156 0.0
C1253 C 0.18135 0.53713 0.77538 0.0
C1254 C 0.20825 0.52155 0.79105 0.0
C1255 C 0.23516 0.52065 0.77447 0.0
C1256 C 0.23629 0.52829 0.75888 0.0
H1257 H 0.38832 0.4735 0.7253 0.0
H1258 H 0.34761 0.48877 0.7314 0.0
C1259 C 0.20975 0.5365 0.75939 0.0
C1260 C 0.25881 0.51115 0.77215 0.0
H1261 H 0.35248 0.50222 0.76649 0.0
C1262 C 0.23884 0.50174 0.76987 0.0
C1263 C 0.30026 0.51134 0.77116 0.0
C1264 C 0.32323 0.52117 0.77428 0.0
C1265 C 0.25919 0.49252 0.76608 0.0
C1266 C 0.30062 0.49273 0.76485 0.0
C1267 C 0.32066 0.50212 0.76736 0.0
C1268 C 0.32374 0.48328 0.76085 0.0
C1269 C 0.23616 0.4827 0.76281 0.0
C1270 C 0.32348 0.47514 0.77534 0.0
C1271 C 0.34642 0.46638 0.77182 0.0
C1272 C 0.37035 0.46567 0.75387 0.0
C1273 C 0.37009 0.47379 0.73924 0.0
C1274 C 0.34704 0.48254 0.74274 0.0
H1275 H 0.20479 0.48428 0.75923 0.0
H1276 H 0.24887 0.47806 0.7498 0.0
H1277 H 0.23739 0.47799 0.77734 0.0
H1278 H 0.30612 0.47565 0.78956 0.0
H1279 H 0.34601 0.46027 0.78341 0.0
H1280 H 0.36227 0.78137 0.45472 0.0
H1281 H 0.31512 0.76911 0.44021 0.0
H1282 H 0.24634 0.77115 0.49704 0.0
H1283 H 0.29268 0.78377 0.51128 0.0
H1284 H 0.30338 0.75087 0.45519 0.0
H1285 H 0.16033 0.77085 0.45448 0.0
H1286 H 0.20609 0.7777 0.45779 0.0
H1287 H 0.18228 0.77173 0.47998 0.0
C1288 C 0.33662 0.77936 0.46395 0.0
C1289 C 0.33118 0.78345 0.48419 0.0
C1290 C 0.30967 0.77238 0.45561 0.0
C1291 C 0.27695 0.76927 0.46742 0.0
C1292 C 0.27073 0.77364 0.48737 0.0
H1293 H 0.1747 0.71143 0.48245 0.0
H1294 H 0.21578 0.72669 0.47946 0.0
C1295 C 0.2974 0.78078 0.49559 0.0
C1296 C 0.25249 0.76051 0.46011 0.0
H1297 H 0.15782 0.75208 0.45639 0.0
C1298 C 0.27155 0.75123 0.45501 0.0
C1299 C 0.21099 0.76097 0.45944 0.0
C1300 C 0.18881 0.77089 0.46299 0.0
C1301 C 0.25025 0.74223 0.4507 0.0
C1302 C 0.20885 0.74246 0.45206 0.0
C1303 C 0.18965 0.75189 0.45565 0.0
C1304 C 0.18546 0.73285 0.45235 0.0
C1305 C 0.27239 0.7325 0.4453 0.0
C1306 C 0.15446 0.73129 0.43819 0.0
C1307 C 0.13061 0.72253 0.43991 0.0
C1308 C 0.13722 0.7153 0.45601 0.0
C1309 C 0.16885 0.71682 0.46983 0.0
C1310 C 0.19257 0.72552 0.46807 0.0
H1311 H 0.30093 0.7343 0.43765 0.0
H1312 H 0.27876 0.72817 0.45994 0.0
H1313 H 0.25507 0.72745 0.43469 0.0
H1314 H 0.14837 0.73692 0.42605 0.0
H1315 H 0.10631 0.7216 0.42912 0.0
H1316 H 0.87019 0.46544 0.46831 0.0
H1317 H 0.91936 0.47901 0.46549 0.0
H1318 H 0.9535 0.47387 0.52985 0.0
H1319 H 0.90434 0.4601 0.53284 0.0
H1320 H 0.923 0.49706 0.48999 0.0
H1321 H 0.05836 0.4733 0.49727 0.0
H1322 H 0.01096 0.46774 0.49144 0.0
H1323 H 0.02264 0.47162 0.51779 0.0
C1324 C 0.88828 0.46711 0.48188 0.0
C1325 C 0.88338 0.46168 0.50084 0.0
C1326 C 0.91633 0.47489 0.48021 0.0
C1327 C 0.94017 0.47737 0.49739 0.0
C1328 C 0.93571 0.47194 0.51631 0.0
H1329 H 0.12319 0.5228 0.51403 0.0
H1330 H 0.07379 0.50938 0.51853 0.0
C1331 C 0.90757 0.46411 0.51802 0.0
C1332 C 0.96872 0.4859 0.49549 0.0
H1333 H 0.06668 0.49138 0.49561 0.0
C1334 C 0.95444 0.49584 0.49121 0.0
C1335 C 0.00962 0.48424 0.49709 0.0
C1336 C 0.02649 0.47364 0.50098 0.0
C1337 C 0.98004 0.50422 0.48866 0.0
C1338 C 0.02096 0.50254 0.49007 0.0
C1339 C 0.03523 0.49261 0.4945 0.0
C1340 C 0.04963 0.511 0.4873 0.0
C1341 C 0.96304 0.51481 0.48487 0.0
C1342 C 0.05236 0.51637 0.4682 0.0
C1343 C 0.08055 0.52412 0.46557 0.0
C1344 C 0.10663 0.52652 0.48194 0.0
C1345 C 0.1036 0.52114 0.50106 0.0
C1346 C 0.07541 0.51345 0.50369 0.0
H1347 H 0.93164 0.51524 0.48957 0.0
H1348 H 0.97967 0.52079 0.49365 0.0
H1349 H 0.96496 0.51665 0.46788 0.0
H1350 H 0.03317 0.51445 0.45523 0.0
H1351 H 0.08232 0.52808 0.45062 0.0
H1352 H 0.61627 0.52772 0.27611 0.0
H1353 H 0.65797 0.51232 0.27694 0.0
H1354 H 0.69682 0.51869 0.21378 0.0
H1355 H 0.65569 0.53407 0.21281 0.0
H1356 H 0.65078 0.49548 0.24837 0.0
H1357 H 0.79946 0.51292 0.24591 0.0
H1358 H 0.75628 0.52013 0.25347 0.0
H1359 H 0.76675 0.51783 0.22618 0.0
C1360 C 0.63431 0.52596 0.26257 0.0
C1361 C 0.63278 0.53214 0.24443 0.0
C1362 C 0.65794 0.51714 0.26304 0.0
C1363 C 0.68064 0.51444 0.24549 0.0
C1364 C 0.68002 0.52075 0.22762 0.0
H1365 H 0.82869 0.46567 0.20218 0.0
H1366 H 0.78313 0.4801 0.20583 0.0
C1367 C 0.65641 0.52954 0.2271 0.0
C1368 C 0.7031 0.50469 0.24518 0.0
H1369 H 0.79512 0.495 0.23774 0.0
C1370 C 0.6824 0.49533 0.24629 0.0
C1371 C 0.74427 0.50459 0.24247 0.0
C1372 C 0.7681 0.5144 0.24213 0.0
C1373 C 0.70174 0.48584 0.2439 0.0
C1374 C 0.74276 0.48576 0.24057 0.0
C1375 C 0.76354 0.49511 0.24005 0.0
C1376 C 0.76506 0.47611 0.23736 0.0
C1377 C 0.67809 0.476 0.24425 0.0
C1378 C 0.7689 0.46891 0.25366 0.0
C1379 C 0.79486 0.46062 0.25162 0.0
C1380 C 0.81758 0.45947 0.2333 0.0
C1381 C 0.81174 0.46634 0.21652 0.0
C1382 C 0.78583 0.47462 0.21859 0.0
H1383 H 0.64614 0.47749 0.2424 0.0
H1384 H 0.68782 0.47068 0.23159 0.0
H1385 H 0.68264 0.47204 0.25951 0.0
H1386 H 0.75333 0.46999 0.26833 0.0
H1387 H 0.79871 0.45546 0.26484 0.0
H1388 H 0.83939 0.27943 0.53818 0.0
H1389 H 0.79577 0.26445 0.53739 0.0
H1390 H 0.75253 0.27381 0.4767 0.0
H1391 H 0.79618 0.28878 0.4772 0.0
H1392 H 0.71153 0.26195 0.53076 0.0
H1393 H 0.80372 0.24488 0.4675 0.0
H1394 H 0.81995 0.25562 0.48334 0.0
H1395 H 0.78545 0.25765 0.46243 0.0
C1396 C 0.82003 0.27843 0.52484 0.0
C1397 C 0.82159 0.28522 0.50763 0.0
C1398 C 0.79519 0.26986 0.52443 0.0
C1399 C 0.77167 0.26796 0.50681 0.0
C1400 C 0.77104 0.2751 0.49028 0.0
H1401 H 0.62615 0.21731 0.46646 0.0
H1402 H 0.667 0.23276 0.4691 0.0
C1403 C 0.79581 0.28368 0.49067 0.0
C1404 C 0.74998 0.25814 0.50508 0.0
H1405 H 0.74671 0.23563 0.47729 0.0
C1406 C 0.71916 0.25617 0.51913 0.0
C1407 C 0.76037 0.25063 0.48992 0.0
C1408 C 0.79437 0.25221 0.47502 0.0
C1409 C 0.69769 0.24695 0.51809 0.0
C1410 C 0.70803 0.23945 0.50289 0.0
C1411 C 0.73899 0.24141 0.48892 0.0
C1412 C 0.68626 0.22964 0.50084 0.0
C1413 C 0.66355 0.24541 0.53292 0.0
C1414 C 0.68489 0.22259 0.51753 0.0
C1415 C 0.66162 0.21375 0.51608 0.0
C1416 C 0.63952 0.2118 0.49785 0.0
C1417 C 0.64274 0.2186 0.48073 0.0
C1418 C 0.66598 0.22744 0.48222 0.0
H1419 H 0.65358 0.25282 0.53993 0.0
H1420 H 0.63832 0.24175 0.52476 0.0
H1421 H 0.67272 0.24025 0.54592 0.0
H1422 H 0.70109 0.22405 0.53186 0.0
H1423 H 0.65982 0.20867 0.52954 0.0
H1424 H 0.34378 0.27282 0.71273 0.0
H1425 H 0.38286 0.25699 0.71156 0.0
H1426 H 0.47963 0.27286 0.74089 0.0
H1427 H 0.4409 0.28875 0.74217 0.0
H1428 H 0.49851 0.25887 0.70506 0.0
H1429 H 0.40727 0.2413 0.76833 0.0
H1430 H 0.38185 0.24659 0.74601 0.0
H1431 H 0.40797 0.25502 0.76343 0.0
C1432 C 0.37359 0.273 0.71865 0.0
C1433 C 0.38916 0.28202 0.72773 0.0
C1434 C 0.39576 0.26394 0.71803 0.0
C1435 C 0.43379 0.26377 0.72639 0.0
C1436 C 0.45019 0.27287 0.73444 0.0
H1437 H 0.59108 0.21869 0.77411 0.0
H1438 H 0.5416 0.23206 0.76835 0.0
C1439 C 0.42802 0.28193 0.73516 0.0
C1440 C 0.45582 0.254 0.72792 0.0
H1441 H 0.45999 0.23141 0.75539 0.0
C1442 C 0.48998 0.2528 0.71587 0.0
C1443 C 0.44455 0.2462 0.74221 0.0
C1444 C 0.40856 0.2473 0.75588 0.0
C1445 C 0.51364 0.244 0.71797 0.0
C1446 C 0.50254 0.23623 0.7324 0.0
C1447 C 0.46809 0.23737 0.74423 0.0
C1448 C 0.52815 0.22727 0.73661 0.0
C1449 C 0.55105 0.24325 0.70531 0.0
C1450 C 0.5356 0.21992 0.72095 0.0
C1451 C 0.56371 0.21224 0.72422 0.0
C1452 C 0.58484 0.21183 0.74319 0.0
C1453 C 0.57542 0.21882 0.75931 0.0
C1454 C 0.54721 0.22647 0.75604 0.0
H1455 H 0.5587 0.25068 0.69762 0.0
H1456 H 0.57594 0.24085 0.71545 0.0
H1457 H 0.54737 0.23733 0.69288 0.0
H1458 H 0.52071 0.22036 0.70595 0.0
H1459 H 0.57028 0.20698 0.71147 0.0
H1460 H 0.60381 0.04041 0.53366 0.0
H1461 H 0.57002 0.02578 0.54971 0.0
H1462 H 0.56678 0.01033 0.48972 0.0
H1463 H 0.60007 0.02501 0.47341 0.0
H1464 H 0.49666 0.00916 0.51131 0.0
H1465 H 0.62188 -0.0019 0.56257 0.0
H1466 H 0.60518 0.01116 0.56574 0.0
H1467 H 0.62686 0.00721 0.54129 0.0
C1468 C 0.59552 0.03395 0.5238 0.0
C1469 C 0.60465 0.03387 0.50223 0.0
C1470 C 0.57656 0.02556 0.53307 0.0
C1471 C 0.56664 0.0169 0.52098 0.0
C1472 C 0.57447 0.01693 0.49933 0.0
H1473 H 0.50465 0.95439 0.54749 0.0
H1474 H 0.53936 0.97059 0.54097 0.0
C1475 C 0.59338 0.02533 0.49003 0.0
C1476 C 0.54802 0.00778 0.53078 0.0
H1477 H 0.56307 0.98848 0.56646 0.0
C1478 C 0.51106 0.00466 0.52345 0.0
C1479 C 0.56716 0.0019 0.54649 0.0
C1480 C 0.6076 0.00468 0.5544 0.0
C1481 C 0.49273 0.99578 0.53126 0.0
C1482 C 0.51165 0.98995 0.54708 0.0
C1483 C 0.54854 0.99307 0.55453 0.0
C1484 C 0.49441 0.98021 0.55487 0.0
C1485 C 0.45381 0.9925 0.52205 0.0
C1486 C 0.45866 0.98027 0.56579 0.0
C1487 C 0.4387 0.97104 0.56955 0.0
C1488 C 0.45425 0.96161 0.56239 0.0
C1489 C 0.49173 0.96152 0.55307 0.0
C1490 C 0.51164 0.97077 0.54934 0.0
H1491 H 0.44684 0.99673 0.50734 0.0
H1492 H 0.45374 0.98409 0.51863 0.0
H1493 H 0.43007 0.99407 0.53357 0.0
H1494 H 0.44522 0.9875 0.57042 0.0
H1495 H 0.41005 0.97137 0.57692 0.0
H1496 H 0.63436 0.72608 0.28205 0.0
H1497 H 0.60276 0.74217 0.27149 0.0
H1498 H 0.51048 0.72495 0.24113 0.0
H1499 H 0.54195 0.70876 0.25157 0.0
H1500 H 0.55153 0.73964 0.21515 0.0
H1501 H 0.50039 0.75688 0.29026 0.0
H1502 H 0.55028 0.75235 0.29036 0.0
H1503 H 0.51079 0.74327 0.28743 0.0
C1504 C 0.60686 0.7257 0.27353 0.0
C1505 C 0.59074 0.71615 0.26754 0.0
C1506 C 0.5888 0.7349 0.26758 0.0
C1507 C 0.55429 0.73472 0.25562 0.0
C1508 C 0.53709 0.72522 0.25043 0.0
H1509 H 0.42141 0.78172 0.19102 0.0
H1510 H 0.45302 0.76559 0.20104 0.0
C1511 C 0.55502 0.71599 0.25648 0.0
C1512 C 0.5385 0.7444 0.24681 0.0
H1513 H 0.5001 0.76776 0.26032 0.0
C1514 C 0.54 0.74578 0.22497 0.0
C1515 C 0.52396 0.75238 0.25974 0.0
C1516 C 0.52088 0.75116 0.28325 0.0
C1517 C 0.52791 0.75506 0.21568 0.0
C1518 C 0.51329 0.76306 0.22861 0.0
C1519 C 0.51164 0.76164 0.25047 0.0
C1520 C 0.49813 0.77285 0.21988 0.0
C1521 C 0.53177 0.7563 0.19221 0.0
C1522 C 0.51345 0.7823 0.22683 0.0
C1523 C 0.49527 0.79155 0.22125 0.0
C1524 C 0.46129 0.7915 0.20872 0.0
C1525 C 0.44762 0.78205 0.20062 0.0
C1526 C 0.46572 0.7728 0.2063 0.0
H1527 H 0.55389 0.7509 0.18558 0.0
H1528 H 0.5031 0.75456 0.18473 0.0
H1529 H 0.54023 0.76431 0.18798 0.0
H1530 H 0.5385 0.78248 0.23731 0.0
H1531 H 0.50656 0.79869 0.22773 0.0
H1532 H 0.35427 0.47223 0.02402 0.0
H1533 H 0.40712 0.48482 0.01998 0.0
H1534 H 0.47621 0.46234 0.98631 0.0
H1535 H 0.42327 0.44973 0.98992 0.0
H1536 H 0.48599 0.48512 0.03087 0.0
H1537 H 0.46616 0.48615 0.94438 0.0
H1538 H 0.43127 0.48006 0.96175 0.0
H1539 H 0.47591 0.47351 0.95466 0.0
C1540 C 0.38096 0.46989 0.01606 0.0
C1541 C 0.38442 0.46002 0.00706 0.0
C1542 C 0.41105 0.47711 0.01372 0.0
C1543 C 0.44502 0.47457 0.00239 0.0
C1544 C 0.44972 0.46451 0.99465 0.0
H1545 H 0.6622 0.5081 0.99643 0.0
H1546 H 0.60966 0.49557 0.00132 0.0
C1547 C 0.41959 0.4573 0.99689 0.0
C1548 C 0.47486 0.48256 -0.00199 0.0
H1549 H 0.5213 0.4952 0.95805 0.0
C1550 C 0.49367 0.48736 0.01497 0.0
C1551 C 0.48407 0.48561 0.97723 0.0
C1552 C 0.46303 0.48115 0.95845 0.0
C1553 C 0.52239 0.49494 0.0117 0.0
C1554 C 0.53297 0.49761 0.9909 0.0
C1555 C 0.51335 0.49303 0.97395 0.0
C1556 C 0.56507 0.50496 0.9865 0.0
C1557 C 0.54091 0.50007 0.03053 0.0
C1558 C 0.55774 0.51417 0.97559 0.0
C1559 C 0.58791 0.52135 0.97253 0.0
C1560 C 0.62574 0.51937 0.98036 0.0
C1561 C 0.63323 0.50991 0.99044 0.0
C1562 C 0.60322 0.50276 0.99338 0.0
H1563 H 0.52208 0.49936 0.04472 0.0
H1564 H 0.56942 0.49629 0.03399 0.0
H1565 H 0.5465 0.50838 0.0275 0.0
H1566 H 0.52846 0.51593 0.96998 0.0
H1567 H 0.5813 0.52856 0.9647 0.0
H1568 H 0.15142 0.15937 0.19284 0.0
H1569 H 0.13007 0.14141 0.19257 0.0
H1570 H 0.18272 0.13677 0.25346 0.0
H1571 H 0.20304 0.1549 0.25417 0.0
H1572 H 0.16905 0.12358 0.194 0.0
H1573 H 0.07243 0.12687 0.26399 0.0
H1574 H 0.09396 0.13798 0.2514 0.0
H1575 H 0.12279 0.13015 0.26891 0.0
C1576 C 0.15859 0.15454 0.20617 0.0
C1577 C 0.17861 0.15858 0.22362 0.0
C1578 C 0.14637 0.14426 0.20598 0.0
C1579 C 0.15413 0.1378 0.22316 0.0
C1580 C 0.17547 0.14169 0.24028 0.0
H1581 H 0.11148 0.07121 0.21207 0.0
H1582 H 0.14346 0.08797 0.21662 0.0
C1583 C 0.1873 0.15203 0.2406 0.0
C1584 C 0.13935 0.12704 0.22302 0.0
H1585 H 0.07879 0.11031 0.24888 0.0
C1586 C 0.14941 0.12066 0.20603 0.0
C1587 C 0.11336 0.12329 0.23862 0.0
C1588 C 0.09965 0.12995 0.25666 0.0
C1589 C 0.1337 0.1107 0.20398 0.0
C1590 C 0.10815 0.1069 0.21973 0.0
C1591 C 0.09861 0.11322 0.23691 0.0
C1592 C 0.08916 0.09664 0.21808 0.0
C1593 C 0.14339 0.10454 0.18453 0.0
C1594 C 0.04802 0.09588 0.21827 0.0
C1595 C 0.02969 0.08631 0.21607 0.0
C1596 C 0.05217 0.0773 0.2135 0.0
C1597 C 0.09337 0.07804 0.21374 0.0
C1598 C 0.1117 0.08761 0.21622 0.0
H1599 H 0.15445 0.10954 0.17165 0.0
H1600 H 0.16671 0.09885 0.1883 0.0
H1601 H 0.11727 0.10027 0.17875 0.0
H1602 H 0.03005 0.10275 0.21978 0.0
H1603 H -0.0021 0.086 0.21598 0.0
H1604 H 0.08285 0.16224 0.94688 0.0
H1605 H 0.10507 0.14481 0.93819 0.0
H1606 H 0.10174 0.13658 0.00378 0.0
H1607 H 0.07903 0.15393 0.01263 0.0
H1608 H 0.17284 0.13502 0.95179 0.0
H1609 H 0.04027 0.11319 0.97596 0.0
H1610 H 0.04 0.127 0.97219 0.0
H1611 H 0.05883 0.12155 0.99613 0.0
C1612 C 0.08651 0.1567 0.95945 0.0
C1613 C 0.07903 0.15947 0.98045 0.0
C1614 C 0.09926 0.14675 0.95445 0.0
C1615 C 0.10453 0.13938 0.97031 0.0
C1616 C 0.09707 0.1421 0.99127 0.0
H1617 H 0.2446 0.08434 0.97318 0.0
H1618 H 0.21894 0.10191 0.97494 0.0
C1619 C 0.08428 0.15204 0.99629 0.0
C1620 C 0.1194 0.12896 0.96509 0.0
H1621 H 0.0985 0.10333 0.97003 0.0
C1622 C 0.15647 0.12808 0.95559 0.0
C1623 C 0.09771 0.11995 0.96978 0.0
C1624 C 0.05683 0.12044 0.97889 0.0
C1625 C 0.17304 0.11839 0.95131 0.0
C1626 C 0.1522 0.10938 0.95701 0.0
C1627 C 0.11457 0.11026 0.96584 0.0
C1628 C 0.16929 0.09894 0.95461 0.0
C1629 C 0.21264 0.1179 0.94071 0.0
C1630 C 0.14967 0.09141 0.94276 0.0
C1631 C 0.16409 0.08133 0.94185 0.0
C1632 C 0.1983 0.07859 0.9529 0.0
C1633 C 0.21831 0.0862 0.96441 0.0
C1634 C 0.20381 0.09628 0.96534 0.0
H1635 H 0.21905 0.1251 0.93186 0.0
H1636 H 0.23578 0.11695 0.95281 0.0
H1637 H 0.21438 0.11125 0.92973 0.0
H1638 H 0.12287 0.09331 0.93445 0.0
H1639 H 0.14796 0.07564 0.93285 0.0
H1640 H 0.85159 0.90693 0.72062 0.0
H1641 H 0.84028 0.88836 0.71713 0.0
H1642 H 0.96149 0.88245 0.7325 0.0
H1643 H 0.97323 0.90101 0.73606 0.0
H1644 H 0.88346 0.87263 0.69098 0.0
H1645 H 0.89231 0.8668 0.77754 0.0
H1646 H 0.8836 0.87931 0.766 0.0
H1647 H 0.93184 0.87376 0.76523 0.0
C1648 C 0.87595 0.90169 0.72312 0.0
C1649 C 0.91323 0.90543 0.72882 0.0
C1650 C 0.86944 0.8911 0.72103 0.0
C1651 C 0.89999 0.88409 0.72473 0.0
C1652 C 0.93752 0.88778 0.72976 0.0
H1653 H 0.88382 0.81776 0.74441 0.0
H1654 H 0.9097 0.83518 0.73935 0.0
C1655 C 0.94413 0.89838 0.73176 0.0
C1656 C 0.89188 0.8729 0.72446 0.0
H1657 H 0.87983 0.85219 0.75682 0.0
C1658 C 0.88288 0.86811 0.70531 0.0
C1659 C 0.89134 0.86708 0.74321 0.0
C1660 C 0.90003 0.87196 0.76424 0.0
C1661 C 0.87311 0.85759 0.70443 0.0
C1662 C 0.87141 0.85183 0.72329 0.0
C1663 C 0.88124 0.85661 0.74237 0.0
C1664 C 0.85756 0.841 0.72394 0.0
C1665 C 0.86503 0.85276 0.68332 0.0
C1666 C 0.8198 0.83846 0.71677 0.0
C1667 C 0.80504 0.82849 0.7195 0.0
C1668 C 0.82755 0.82093 0.72978 0.0
C1669 C 0.8657 0.82342 0.73651 0.0
C1670 C 0.88055 0.83337 0.7336 0.0
H1671 H 0.87995 0.85705 0.67048 0.0
H1672 H 0.87481 0.84458 0.68287 0.0
H1673 H 0.83298 0.85299 0.68021 0.0
H1674 H 0.80112 0.84428 0.70977 0.0
H1675 H 0.77546 0.82683 0.71425 0.0
H1676 H 0.81036 0.91767 0.06223 0.0
H1677 H 0.81642 0.89911 0.06913 0.0
H1678 H 0.86131 0.89446 0.0065 0.0
H1679 H 0.85538 0.9129 -0.00056 0.0
H1680 H 0.77869 0.88295 0.04488 0.0
H1681 H 0.941 0.87942 0.04543 0.0
H1682 H 0.91598 0.89158 0.04933 0.0
H1683 H 0.92213 0.88644 0.0233 0.0
C1684 C 0.82191 0.9127 0.05001 0.0
C1685 C 0.83241 0.91675 0.03029 0.0
C1686 C 0.82527 0.90212 0.05397 0.0
C1687 C 0.83971 0.89547 0.0384 0.0
C1688 C 0.85068 0.89951 0.01883 0.0
H1689 H 0.81808 0.83314 0.00329 0.0
H1690 H 0.80926 0.85145 0.01089 0.0
C1691 C 0.84707 0.91004 0.0148 0.0
C1692 C 0.84153 0.88422 0.04195 0.0
H1693 H 0.90461 0.8638 0.04021 0.0
C1694 C 0.80623 0.87875 0.04423 0.0
C1695 C 0.87753 0.8788 0.04136 0.0
C1696 C 0.91638 0.88436 0.03992 0.0
C1697 C 0.80586 0.86792 0.0447 0.0
C1698 C 0.84168 0.86249 0.04264 0.0
C1699 C 0.87714 0.86799 0.04163 0.0
C1700 C 0.84296 0.85117 0.03969 0.0
C1701 C 0.76713 0.86238 0.04695 0.0
C1702 C 0.86482 0.84494 0.05339 0.0
C1703 C 0.87003 0.83446 0.04905 0.0
C1704 C 0.85385 0.83007 0.03078 0.0
C1705 C 0.83091 0.83628 0.01748 0.0
C1706 C 0.8256 0.84673 0.02188 0.0
H1707 H 0.74479 0.86735 0.05469 0.0
H1708 H 0.75596 0.86033 0.03113 0.0
H1709 H 0.77046 0.85516 0.05617 0.0
H1710 H 0.87868 0.84826 0.06714 0.0
H1711 H 0.88791 0.82989 0.0596 0.0
H1712 H 0.10718 0.58607 0.74184 0.0
H1713 H 0.11192 0.6046 0.74829 0.0
H1714 H 0.05988 0.60054 0.80948 0.0
H1715 H 0.05491 0.58191 0.8032 0.0
H1716 H 0.02815 0.61745 0.78371 0.0
H1717 H 0.19064 0.61795 0.79081 0.0
H1718 H 0.17253 0.61138 0.76793 0.0
H1719 H 0.16197 0.6063 0.79358 0.0
C1720 C 0.09668 0.58909 0.75668 0.0
C1721 C 0.08087 0.58251 0.77206 0.0
C1722 C 0.09955 0.59967 0.76035 0.0
C1723 C 0.0867 0.60387 0.77944 0.0
C1724 C 0.07014 0.5974 0.79469 0.0
H1725 H 0.14909 0.66743 0.81053 0.0
H1726 H 0.13415 0.64906 0.81428 0.0
C1727 C 0.0674 0.58677 0.79108 0.0
C1728 C 0.09073 0.61506 0.78329 0.0
H1729 H 0.1591 0.63421 0.78623 0.0
C1730 C 0.05672 0.62113 0.78453 0.0
C1731 C 0.12805 0.61977 0.78466 0.0
C1732 C 0.16544 0.61352 0.78438 0.0
C1733 C 0.05914 0.63192 0.78612 0.0
C1734 C 0.09651 0.63668 0.78624 0.0
C1735 C 0.13046 0.63055 0.786 0.0
C1736 C 0.10136 0.64801 0.78527 0.0
C1737 C 0.02174 0.63813 0.78744 0.0
C1738 C 0.08761 0.65351 0.76779 0.0
C1739 C 0.09613 0.66399 0.76556 0.0
C1740 C 0.11881 0.66914 0.78073 0.0
C1741 C 0.13158 0.66368 0.79855 0.0
C1742 C 0.12306 0.65319 0.80074 0.0
H1743 H -0.00302 0.6334 0.79351 0.0
H1744 H 0.0255 0.64498 0.79772 0.0
H1745 H 0.01369 0.64086 0.7715 0.0
H1746 H 0.07154 0.64961 0.75545 0.0
H1747 H 0.0859 0.66796 0.75164 0.0
H1748 H 0.1654 0.66018 0.51113 0.0
H1749 H 0.17455 0.64165 0.5064 0.0
H1750 H 0.09333 0.64196 0.45444 0.0
H1751 H 0.08327 0.66049 0.45938 0.0
H1752 H 0.07611 0.62694 0.48196 0.0
H1753 H 0.23443 0.62528 0.46305 0.0
H1754 H 0.22563 0.6323 0.48686 0.0
H1755 H 0.20682 0.63717 0.46236 0.0
C1756 C 0.14987 0.65634 0.49851 0.0
C1757 C 0.12357 0.6618 0.48565 0.0
C1758 C 0.15536 0.64575 0.49573 0.0
C1759 C 0.1351 0.64045 0.47985 0.0
C1760 C 0.10941 0.64592 0.46671 0.0
H1761 H 0.18944 0.57501 0.46099 0.0
H1762 H 0.17736 0.5933 0.45398 0.0
C1763 C 0.10372 0.6565 0.46955 0.0
C1764 C 0.13848 0.62909 0.47813 0.0
H1765 H 0.20527 0.6095 0.47567 0.0
C1766 C 0.10428 0.62312 0.48027 0.0
C1767 C 0.17512 0.62411 0.47552 0.0
C1768 C 0.2125 0.63006 0.47159 0.0
C1769 C 0.106 0.61232 0.48095 0.0
C1770 C 0.14299 0.60737 0.47997 0.0
C1771 C 0.17695 0.61331 0.47673 0.0
C1772 C 0.14745 0.59613 0.48342 0.0
C1773 C 0.06817 0.60632 0.48283 0.0
C1774 C 0.13459 0.59166 0.50228 0.0
C1775 C 0.14121 0.58121 0.50628 0.0
C1776 C 0.16135 0.57507 0.49161 0.0
C1777 C 0.17385 0.57954 0.47262 0.0
C1778 C 0.167 0.58998 0.46858 0.0
H1779 H 0.04301 0.61074 0.47631 0.0
H1780 H 0.07008 0.59879 0.47457 0.0
H1781 H 0.06194 0.60484 0.49967 0.0
H1782 H 0.12035 0.59631 0.51419 0.0
H1783 H 0.13144 0.57803 0.52112 0.0
H1784 H 0.89048 0.33219 0.27979 0.0
H1785 H 0.9081 0.35046 0.27758 0.0
H1786 H 0.89917 0.34916 0.21009 0.0
H1787 H 0.88105 0.33094 0.21211 0.0
H1788 H 0.9699 0.36078 0.25579 0.0
H1789 H 0.82206 0.37221 0.22699 0.0
H1790 H 0.83174 0.35973 0.23841 0.0
H1791 H 0.84599 0.36237 0.21177 0.0
C1792 C 0.89248 0.33577 0.26446 0.0
C1793 C 0.88393 0.33014 0.24614 0.0
C1794 C 0.90261 0.3462 0.26324 0.0
C1795 C 0.90427 0.35117 0.24371 0.0
C1796 C 0.8973 0.34549 0.22534 0.0
H1797 H 0.93263 0.41542 0.20819 0.0
H1798 H 0.928 0.39659 0.20807 0.0
C1799 C 0.8871 0.33507 0.22653 0.0
C1800 C 0.912 0.36239 0.24261 0.0
H1801 H 0.87018 0.3853 0.22861 0.0
C1802 C 0.94817 0.36616 0.24985 0.0
C1803 C 0.88348 0.36935 0.23488 0.0
C1804 C 0.84349 0.36576 0.22773 0.0
C1805 C 0.95677 0.37676 0.24934 0.0
C1806 C 0.92814 0.38372 0.24171 0.0
C1807 C 0.89211 0.37992 0.23436 0.0
C1808 C 0.9343 0.39502 0.24172 0.0
C1809 C -0.00347 0.38039 0.2567 0.0
C1810 C 0.93941 0.40035 0.2607 0.0
C1811 C 0.94206 0.41111 0.26083 0.0
C1812 C 0.93935 0.41672 0.242 0.0
C1813 C 0.93482 0.41133 0.22297 0.0
C1814 C 0.93219 0.40058 0.22287 0.0
H1815 H 0.01845 0.37404 0.25659 0.0
H1816 H 0.00758 0.38679 0.24671 0.0
H1817 H 0.994 0.38329 0.27305 0.0
H1818 H 0.94028 0.39622 0.27547 0.0
H1819 H 0.94542 0.41502 0.27576 0.0
H1820 H 0.91988 0.32987 0.45441 0.0
H1821 H 0.90738 0.3484 0.45211 0.0
H1822 H 0.90752 0.35055 0.51969 0.0
H1823 H 0.92049 0.33203 0.52219 0.0
H1824 H 0.84259 0.35872 0.46833 0.0
H1825 H 0.98124 0.37404 0.50191 0.0
H1826 H 0.97628 0.36088 0.49297 0.0
H1827 H 0.95704 0.36465 0.51812 0.0
C1828 C 0.91763 0.33429 0.46881 0.0
C1829 C 0.9212 0.32947 0.4885 0.0
C1830 C 0.91048 0.34488 0.46744 0.0
C1831 C 0.907 0.35085 0.48571 0.0
C1832 C 0.91088 0.3461 0.50539 0.0
H1833 H 0.79218 0.41003 0.49868 0.0
H1834 H 0.81193 0.39192 0.50041 0.0
C1835 C 0.91805 0.33551 0.50679 0.0
C1836 C 0.89711 0.36195 0.48414 0.0
H1837 H 0.92926 0.38609 0.49696 0.0
C1838 C 0.86161 0.36471 0.4745 0.0
C1839 C 0.9222 0.36973 0.49202 0.0
C1840 C 0.96151 0.36722 0.50167 0.0
C1841 C 0.85011 0.37507 0.47285 0.0
C1842 C 0.87455 0.38283 0.48136 0.0
C1843 C 0.91045 0.38009 0.49063 0.0
C1844 C 0.86326 0.39385 0.48075 0.0
C1845 C 0.81212 0.37762 0.46181 0.0
C1846 C 0.88618 0.40096 0.46956 0.0
C1847 C 0.87507 0.41133 0.46859 0.0
C1848 C 0.84095 0.41477 0.47891 0.0
C1849 C 0.81846 0.40763 0.49043 0.0
C1850 C 0.8296 0.39727 0.49137 0.0
H1851 H 0.80205 0.37116 0.45167 0.0
H1852 H 0.78897 0.37911 0.47371 0.0
H1853 H 0.81533 0.38465 0.45199 0.0
H1854 H 0.91239 0.39846 0.46134 0.0
H1855 H 0.89312 0.41664 0.45966 0.0
H1856 H 0.73608 0.08187 0.76917 0.0
H1857 H 0.74655 0.10058 0.76953 0.0
H1858 H 0.6305 0.1052 0.74411 0.0
H1859 H 0.61952 0.08661 0.74398 0.0
H1860 H 0.74536 0.11419 0.7361 0.0
H1861 H 0.63126 0.12463 0.79437 0.0
H1862 H 0.64823 0.11154 0.79079 0.0
H1863 H 0.61224 0.11694 0.77326 0.0
C1864 C 0.71271 0.08687 0.7638 0.0
C1865 C 0.67691 0.08275 0.75664 0.0
C1866 C 0.71874 0.09756 0.764 0.0
C1867 C 0.68904 0.10427 0.75717 0.0
C1868 C 0.65345 0.10017 0.74991 0.0
H1869 H 0.69837 0.16619 0.70984 0.0
H1870 H 0.6984 0.14751 0.71514 0.0
C1871 C 0.64736 0.08952 0.74974 0.0
C1872 C 0.69556 0.11557 0.7568 0.0
H1873 H 0.65606 0.13841 0.77308 0.0
C1874 C 0.72614 0.1195 0.74437 0.0
C1875 C 0.67084 0.12246 0.76786 0.0
C1876 C 0.63906 0.11868 0.78249 0.0
C1877 C 0.73164 0.13017 0.74201 0.0
C1878 C 0.7054 0.13705 0.75205 0.0
C1879 C 0.67585 0.13311 0.76517 0.0
C1880 C 0.70729 0.14835 0.74875 0.0
C1881 C 0.76549 0.13397 0.7288 0.0
C1882 C 0.71149 0.15503 0.76594 0.0
C1883 C 0.71108 0.16571 0.76301 0.0
C1884 C 0.7063 0.16992 0.74281 0.0
C1885 C 0.70234 0.1632 0.72559 0.0
C1886 C 0.70263 0.15252 0.72856 0.0
H1887 H 0.78912 0.12808 0.72763 0.0
H1888 H 0.75485 0.1356 0.71267 0.0
H1889 H 0.77817 0.14118 0.73535 0.0
H1890 H 0.71487 0.15197 0.78167 0.0
H1891 H 0.71419 0.17066 0.77661 0.0
H1892 H 0.54448 0.16319 0.47151 0.0
H1893 H 0.56349 0.14507 0.46876 0.0
H1894 H 0.59535 0.14491 0.5343 0.0
H1895 H 0.57567 0.163 0.53733 0.0
H1896 H 0.63671 0.13709 0.4756 0.0
H1897 H 0.52878 0.11899 0.52953 0.0
H1898 H 0.52328 0.132 0.51986 0.0
H1899 H 0.55619 0.12933 0.54125 0.0
C1900 C 0.55512 0.15928 0.48542 0.0
C1901 C 0.55853 0.16453 0.50466 0.0
C1902 C 0.56598 0.14892 0.4838 0.0
C1903 C 0.58038 0.14361 0.50137 0.0
C1904 C 0.58349 0.1488 0.52066 0.0
H1905 H 0.68637 0.08367 0.52042 0.0
H1906 H 0.66208 0.10136 0.52361 0.0
C1907 C 0.57244 0.15916 0.52233 0.0
C1908 C 0.59426 0.13284 0.49916 0.0
H1909 H 0.58154 0.10837 0.51783 0.0
C1910 C 0.62447 0.1308 0.48472 0.0
C1911 C 0.57826 0.12466 0.51113 0.0
C1912 C 0.54459 0.12631 0.52618 0.0
C1913 C 0.63959 0.12081 0.48218 0.0
C1914 C 0.62378 0.11266 0.49423 0.0
C1915 C 0.59358 0.11468 0.50866 0.0
C1916 C 0.63839 0.10197 0.49214 0.0
C1917 C 0.6729 0.11908 0.46693 0.0
C1918 C 0.63279 0.09647 0.47341 0.0
C1919 C 0.64656 0.08635 0.47152 0.0
C1920 C 0.66615 0.08158 0.48836 0.0
C1921 C 0.67157 0.08713 0.50712 0.0
C1922 C 0.65764 0.09722 0.50902 0.0
H1923 H 0.68717 0.12644 0.46223 0.0
H1924 H 0.69547 0.11391 0.47385 0.0
H1925 H 0.66134 0.11531 0.45255 0.0
H1926 H 0.61752 0.09998 0.46032 0.0
H1927 H 0.64178 0.08228 0.45689 0.0
H1928 H 0.40382 0.93028 0.213 0.0
H1929 H 0.40238 0.91239 0.20076 0.0
H1930 H 0.34308 0.90331 0.2577 0.0
H1931 H 0.34387 0.92116 0.26995 0.0
H1932 H 0.43803 0.89613 0.22026 0.0
H1933 H 0.27864 0.88869 0.2129 0.0
H1934 H 0.2987 0.90156 0.21476 0.0
H1935 H 0.29121 0.89396 0.23807 0.0
C1936 C 0.38995 0.92451 0.22279 0.0
C1937 C 0.37402 0.92714 0.24248 0.0
C1938 C 0.38915 0.91429 0.21576 0.0
C1939 C 0.37218 0.90655 0.2282 0.0
C1940 C 0.35553 0.90919 0.24764 0.0
H1941 H 0.42035 0.84336 0.2457 0.0
H1942 H 0.41903 0.86214 0.2441 0.0
C1943 C 0.35628 0.9194 0.25468 0.0
C1944 C 0.37481 0.89559 0.22181 0.0
H1945 H 0.32019 0.8737 0.2161 0.0
C1946 C 0.41223 0.89125 0.219 0.0
C1947 C 0.34115 0.88928 0.21982 0.0
C1948 C 0.30015 0.89363 0.22132 0.0
C1949 C 0.41696 0.88064 0.21546 0.0
C1950 C 0.38343 0.87422 0.21509 0.0
C1951 C 0.34591 0.87864 0.21664 0.0
C1952 C 0.38672 0.86284 0.21488 0.0
C1953 C 0.45785 0.87639 0.21255 0.0
C1954 C 0.36864 0.85699 0.19906 0.0
C1955 C 0.36919 0.8462 0.19996 0.0
C1956 C 0.38746 0.84112 0.21686 0.0
C1957 C 0.40611 0.84702 0.23245 0.0
C1958 C 0.40562 0.85777 0.2315 0.0
H1959 H 0.47829 0.88239 0.20655 0.0
H1960 H 0.4692 0.8737 0.22793 0.0
H1961 H 0.45795 0.86976 0.2015 0.0
H1962 H 0.35366 0.86077 0.18618 0.0
H1963 H 0.35445 0.84187 0.18774 0.0
H1964 H 0.42573 0.91447 0.50735 0.0
H1965 H 0.43175 0.89585 0.50248 0.0
H1966 H 0.37349 0.89071 0.56171 0.0
H1967 H 0.36695 0.90938 0.56668 0.0
H1968 H 0.46709 0.88044 0.52806 0.0
H1969 H 0.30616 0.87471 0.51831 0.0
H1970 H 0.32891 0.88728 0.51696 0.0
H1971 H 0.32116 0.88119 0.54195 0.0
C1972 C 0.41443 0.9094 0.51944 0.0
C1973 C 0.39554 0.91341 0.53732 0.0
C1974 C 0.41795 0.89877 0.51663 0.0
C1975 C 0.40251 0.89194 0.53157 0.0
C1976 C 0.385 0.89588 0.54984 0.0
H1977 H 0.44208 0.8254 0.53039 0.0
H1978 H 0.43728 0.84352 0.54079 0.0
C1979 C 0.3815 0.90654 0.5527 0.0
C1980 C 0.40389 0.8807 0.52759 0.0
H1981 H 0.34602 0.85983 0.51698 0.0
C1982 C 0.44067 0.8759 0.52575 0.0
C1983 C 0.3693 0.87487 0.52433 0.0
C1984 C 0.32909 0.87975 0.5253 0.0
C1985 C 0.44381 0.8654 0.52067 0.0
C1986 C 0.4092 0.85955 0.5176 0.0
C1987 C 0.37243 0.86434 0.51949 0.0
C1988 C 0.41065 0.84852 0.5117 0.0
C1989 C 0.48409 0.86071 0.51805 0.0
C1990 C 0.39619 0.84532 0.49213 0.0
C1991 C 0.39873 0.83496 0.48614 0.0
C1992 C 0.41562 0.82764 0.49969 0.0
C1993 C 0.42915 0.83086 0.51951 0.0
C1994 C 0.42661 0.84121 0.52547 0.0
H1995 H 0.50724 0.8667 0.51641 0.0
H1996 H 0.49107 0.85597 0.53207 0.0
H1997 H 0.48505 0.8556 0.50406 0.0
H1998 H 0.38358 0.85086 0.48134 0.0
H1999 H 0.38792 0.83273 0.47081 0.0
H2000 H 0.58815 0.67013 0.23582 0.0
H2001 H 0.56568 0.65222 0.2353 0.0
H2002 H 0.65648 0.64406 0.27959 0.0
H2003 H 0.67755 0.66208 0.28102 0.0
H2004 H 0.60163 0.63621 0.22196 0.0
H2005 H 0.56741 0.62917 0.30551 0.0
H2006 H 0.57679 0.64194 0.29545 0.0
H2007 H 0.61696 0.63357 0.30254 0.0
C2008 C 0.60288 0.66453 0.24569 0.0
C2009 C 0.63445 0.66748 0.25853 0.0
C2010 C 0.59004 0.6543 0.24539 0.0
C2011 C 0.60893 0.64679 0.25766 0.0
C2012 C 0.64053 0.64975 0.27051 0.0
H2013 H 0.62075 0.58221 0.22699 0.0
H2014 H 0.62993 0.60078 0.23086 0.0
C2015 C 0.65279 0.66003 0.27119 0.0
C2016 C 0.59756 0.63576 0.25574 0.0
H2017 H 0.57713 0.61406 0.28409 0.0
C2018 C 0.59577 0.63141 0.23556 0.0
C2019 C 0.58921 0.62951 0.27342 0.0
C2020 C 0.58726 0.63383 0.2954 0.0
C2021 C 0.58707 0.62094 0.2326 0.0
C2022 C 0.58157 0.61453 0.25034 0.0
C2023 C 0.58202 0.61894 0.27049 0.0
C2024 C 0.57613 0.60322 0.24834 0.0
C2025 C 0.58346 0.61692 0.21043 0.0
C2026 C 0.54368 0.59834 0.25764 0.0
C2027 C 0.53879 0.58766 0.25583 0.0
C2028 C 0.56618 0.58171 0.24458 0.0
C2029 C 0.59885 0.58661 0.2355 0.0
C2030 C 0.604 0.59724 0.23758 0.0
H2031 H 0.57503 0.62316 0.19935 0.0
H2032 H 0.6123 0.61384 0.20525 0.0
H2033 H 0.56134 0.61065 0.20934 0.0
H2034 H 0.52196 0.6028 0.26616 0.0
H2035 H 0.51335 0.58409 0.26303 0.0
H2036 H 0.57266 0.64934 0.96979 0.0
H2037 H 0.57913 0.63054 0.96763 0.0
H2038 H 0.65427 0.63081 0.02215 0.0
H2039 H 0.64706 0.64949 0.02479 0.0
H2040 H 0.64239 0.61845 0.96198 0.0
H2041 H 0.57464 0.60937 0.03868 0.0
H2042 H 0.57155 0.62202 0.02696 0.0
H2043 H 0.61461 0.61826 0.04151 0.0
C2044 C 0.59042 0.64538 0.98137 0.0
C2045 C 0.60907 0.65088 -0.00242 0.0
C2046 C 0.59408 0.63464 0.98011 0.0
C2047 C 0.61648 0.62925 0.995 0.0
C2048 C 0.63587 0.63477 0.01087 0.0
H2049 H 0.7275 0.57 0.98678 0.0
H2050 H 0.7082 0.58809 0.98381 0.0
C2051 C 0.63193 0.64546 0.01226 0.0
C2052 C 0.62058 0.61789 0.99374 0.0
H2053 H 0.61363 0.59596 0.0231 0.0
C2054 C 0.63566 0.61351 0.97525 0.0
C2055 C 0.61095 0.61141 0.01086 0.0
C2056 C 0.59163 0.6155 0.03052 0.0
C2057 C 0.64302 0.60287 0.97377 0.0
C2058 C 0.63615 0.59652 0.99147 0.0
C2059 C 0.61945 0.60084 0.00962 0.0
C2060 C 0.64722 0.58545 0.9919 0.0
C2061 C 0.6579 0.59858 0.95322 0.0
C2062 C 0.61964 0.57796 -0.00205 0.0
C2063 C 0.63082 0.56764 0.00011 0.0
C2064 C 0.66976 0.56461 0.99617 0.0
C2065 C 0.69719 0.57208 0.98976 0.0
C2066 C 0.68611 0.58242 0.98787 0.0
H2067 H 0.6486 0.60346 0.93977 0.0
H2068 H 0.69048 0.59847 0.95344 0.0
H2069 H 0.6472 0.59059 0.95055 0.0
H2070 H 0.58951 0.58012 0.00124 0.0
H2071 H 0.60898 0.56206 0.005 0.0
H2072 H 0.41 0.41314 0.77729 0.0
H2073 H 0.38966 0.39526 0.77193 0.0
H2074 H 0.41715 0.39772 0.70602 0.0
H2075 H 0.43769 0.41567 0.71118 0.0
H2076 H 0.33012 0.38744 0.74235 0.0
H2077 H 0.48104 0.3722 0.72865 0.0
H2078 H 0.47226 0.38446 0.74131 0.0
H2079 H 0.46591 0.38322 0.71347 0.0
C2080 C 0.41173 0.4099 0.76163 0.0
C2081 C 0.42566 0.41581 0.74468 0.0
C2082 C 0.39999 0.3997 0.75861 0.0
C2083 C 0.40223 0.39519 0.73863 0.0
C2084 C 0.41561 0.40107 0.72159 0.0
H2085 H 0.30496 0.33365 0.71192 0.0
H2086 H 0.32318 0.35187 0.70805 0.0
C2087 C 0.42721 0.41131 0.72458 0.0
C2088 C 0.39098 0.38426 0.7359 0.0
H2089 H 0.4292 0.36019 0.72838 0.0
C2090 C 0.35161 0.38147 0.73905 0.0
C2091 C 0.41929 0.37655 0.73172 0.0
C2092 C 0.46209 0.37918 0.7287 0.0
C2093 C 0.33988 0.3711 0.73856 0.0
C2094 C 0.3683 0.36337 0.73473 0.0
C2095 C 0.40753 0.36618 0.73116 0.0
C2096 C 0.35849 0.3523 0.73626 0.0
C2097 C 0.29754 0.36841 0.74296 0.0
C2098 C 0.37295 0.34653 0.75317 0.0
C2099 C 0.36258 0.33618 0.75547 0.0
C2100 C 0.33777 0.33138 0.74077 0.0
C2101 C 0.32405 0.33713 0.72352 0.0
C2102 C 0.3343 0.34753 0.72131 0.0
H2103 H 0.28037 0.3752 0.74839 0.0
H2104 H 0.28374 0.36541 0.72841 0.0
H2105 H 0.29571 0.36227 0.75507 0.0
H2106 H 0.39171 0.3501 0.76484 0.0
H2107 H 0.37381 0.33197 0.76887 0.0
H2108 H 0.25996 0.41884 0.03115 0.0
H2109 H 0.26854 0.40072 0.04111 0.0
H2110 H 0.313 0.3939 0.97922 0.0
H2111 H 0.30471 0.41196 0.96912 0.0
H2112 H 0.2367 0.38235 0.02166 0.0
H2113 H 0.39961 0.38358 0.02024 0.0
H2114 H 0.36972 0.39509 0.02127 0.0
H2115 H 0.37679 0.38843 0.9968 0.0
C2116 C 0.27147 0.41348 0.01964 0.0
C2117 C 0.2819 0.41685 -0.00063 0.0
C2118 C 0.2763 0.40314 0.02536 0.0
C2119 C 0.29193 0.39604 0.01099 0.0
C2120 C 0.30149 0.39932 0.99063 0.0
H2121 H 0.29641 0.33086 -0.00082 0.0
H2122 H 0.27969 0.34915 -0.00044 0.0
C2123 C 0.29655 0.40963 0.98487 0.0
C2124 C 0.29846 0.38519 0.01717 0.0
H2125 H 0.37009 0.36691 0.0214 0.0
C2126 C 0.26586 0.37898 0.02185 0.0
C2127 C 0.33659 0.38089 0.01776 0.0
C2128 C 0.37276 0.38735 0.01395 0.0
C2129 C 0.2703 0.36841 0.02611 0.0
C2130 C 0.30825 0.36398 0.02545 0.0
C2131 C 0.34098 0.37031 0.02177 0.0
C2132 C 0.31465 0.35271 0.02699 0.0
C2133 C 0.23435 0.36207 0.03109 0.0
C2134 C 0.33994 0.34864 0.04228 0.0
C2135 C 0.34976 0.33816 0.04205 0.0
C2136 C 0.33477 0.33162 0.02635 0.0
C2137 C 0.30846 0.33568 0.01148 0.0
C2138 C 0.2986 0.34613 0.01177 0.0
H2139 H 0.21018 0.36695 0.03734 0.0
H2140 H 0.2237 0.35832 0.0165 0.0
H2141 H 0.24111 0.35594 0.04272 0.0
H2142 H 0.35284 0.35362 0.05407 0.0
H2143 H 0.37016 0.33528 0.0537 0.0
H2144 H 0.86227 0.06054 0.24448 0.0
H2145 H 0.81866 0.0613 0.27498 0.0
H2146 H 0.83234 0.02854 0.28418 0.0
H2147 H 0.87555 0.02765 0.25356 0.0
H2148 H 0.75461 0.036 0.29172 0.0
H2149 H 0.86893 0.05862 0.33375 0.0
H2150 H 0.85295 0.06406 0.30926 0.0
H2151 H 0.87867 0.05195 0.30942 0.0
C2152 C 0.85548 0.05346 0.25275 0.0
C2153 C 0.87286 0.04405 0.24677 0.0
C2154 C 0.83068 0.05392 0.27022 0.0
C2155 C 0.82301 0.04501 0.28205 0.0
C2156 C 0.83814 0.03551 0.27531 0.0
H2157 H 0.76191 0.04123 0.4132 0.0
H2158 H 0.7914 0.03957 0.37837 0.0
C2159 C 0.86286 0.03502 0.25781 0.0
C2160 C 0.80189 0.04571 0.30233 0.0
H2161 H 0.80936 0.05575 0.35172 0.0
C2162 C 0.76642 0.04033 0.30485 0.0
C2163 C 0.81783 0.05124 0.31949 0.0
C2164 C 0.85685 0.05673 0.31801 0.0
C2165 C 0.74624 0.04041 0.32411 0.0
C2166 C 0.76186 0.0461 0.34113 0.0
C2167 C 0.79739 0.05143 0.33859 0.0
C2168 C 0.74243 0.0465 0.36194 0.0
C2169 C 0.70895 0.03421 0.32625 0.0
C2170 C 0.70508 0.05093 0.36423 0.0
C2171 C 0.68808 0.05188 0.38413 0.0
C2172 C 0.70831 0.04848 0.40211 0.0
C2173 C 0.74554 0.04393 0.3997 0.0
C2174 C 0.76245 0.04298 0.3798 0.0
H2175 H 0.70613 0.02836 0.31359 0.0
H2176 H 0.70777 0.03024 0.34168 0.0
H2177 H 0.68334 0.03949 0.32522 0.0
H2178 H 0.68946 0.05388 0.35069 0.0
H2179 H 0.65942 0.05545 0.38545 0.0
H2180 H 0.24804 0.21627 0.30334 0.0
H2181 H 0.29503 0.21852 0.33202 0.0
H2182 H 0.36479 0.19345 0.30765 0.0
H2183 H 0.31806 0.19112 0.27894 0.0
H2184 H 0.31093 0.2019 0.36061 0.0
H2185 H 0.44627 0.21637 0.3219 0.0
H2186 H 0.39811 0.21756 0.31021 0.0
H2187 H 0.42383 0.20546 0.30924 0.0
C2188 C 0.27373 0.21135 0.30386 0.0
C2189 C 0.27921 0.20346 0.28897 0.0
C2190 C 0.30052 0.21266 0.32023 0.0
C2191 C 0.33344 0.20622 0.32178 0.0
C2192 C 0.33985 0.19861 0.30649 0.0
H2193 H 0.51018 0.18836 0.40878 0.0
H2194 H 0.46802 0.19191 0.37864 0.0
C2195 C 0.31297 0.19724 0.29019 0.0
C2196 C 0.35862 0.2066 0.34059 0.0
H2197 H 0.45341 0.20968 0.35662 0.0
C2198 C 0.34198 0.20375 0.35988 0.0
C2199 C 0.39904 0.20896 0.3394 0.0
C2200 C 0.41792 0.21235 0.31912 0.0
C2201 C 0.36513 0.20272 0.37794 0.0
C2202 C 0.40581 0.20487 0.37669 0.0
C2203 C 0.42221 0.20804 0.35751 0.0
C2204 C 0.43224 0.20322 0.39479 0.0
C2205 C 0.34613 0.19884 0.39787 0.0
C2206 C 0.4264 0.20852 0.41376 0.0
C2207 C 0.45011 0.2064 0.43112 0.0
C2208 C 0.48044 0.19907 0.42965 0.0
C2209 C 0.48697 0.19402 0.41043 0.0
C2210 C 0.46301 0.19607 0.39317 0.0
H2211 H 0.31713 0.19521 0.3948 0.0
H2212 H 0.3652 0.19312 0.40587 0.0
H2213 H 0.34139 0.20543 0.40872 0.0
H2214 H 0.40335 0.21424 0.41517 0.0
H2215 H 0.44473 0.21051 0.44566 0.0
H2216 H 0.72524 0.20562 0.83525 0.0
H2217 H 0.77538 0.20986 0.86109 0.0
H2218 H 0.84426 0.22485 0.81307 0.0
H2219 H 0.79458 0.22036 0.78689 0.0
H2220 H 0.88621 0.21102 0.83358 0.0
H2221 H 0.80988 0.23516 0.89213 0.0
H2222 H 0.78281 0.22354 0.88736 0.0
H2223 H 0.78965 0.23271 0.8664 0.0
C2224 C 0.75067 0.20999 0.83023 0.0
C2225 C 0.75611 0.21258 0.80901 0.0
C2226 C 0.77917 0.21251 0.84509 0.0
C2227 C 0.8133 0.21783 0.83909 0.0
C2228 C 0.81801 0.22081 0.81805 0.0
H2229 H 0.02725 0.22063 0.91708 0.0
H2230 H 0.97882 0.22583 0.89062 0.0
C2231 C 0.78966 0.21821 0.80313 0.0
C2232 C 0.84607 0.21897 0.85417 0.0
H2233 H 0.86648 0.22548 0.90495 0.0
C2234 C 0.88226 0.21443 0.84899 0.0
C2235 C 0.8409 0.22345 0.87426 0.0
C2236 C 0.80379 0.22908 0.88026 0.0
C2237 C 0.91242 0.2136 0.86384 0.0
C2238 C 0.90618 0.21744 0.88432 0.0
C2239 C 0.87093 0.22249 0.88921 0.0
C2240 C 0.93416 0.2152 0.90135 0.0
C2241 C 0.94983 0.20804 0.85797 0.0
C2242 C 0.92456 0.20766 0.91625 0.0
C2243 C 0.95206 0.20463 0.93123 0.0
C2244 C 0.98959 0.20915 0.93163 0.0
C2245 C -0.00137 0.21698 0.91711 0.0
C2246 C 0.97108 0.21997 0.90202 0.0
H2247 H 0.94858 0.20471 0.84191 0.0
H2248 H 0.97485 0.21352 0.85867 0.0
H2249 H 0.9558 0.20174 0.86934 0.0
H2250 H 0.89614 0.2039 0.91588 0.0
H2251 H 0.94408 0.19863 0.94228 0.0
H2252 H 0.31855 0.03594 0.91764 0.0
H2253 H 0.37077 0.03406 0.89146 0.0
H2254 H 0.28944 0.04237 0.84241 0.0
H2255 H 0.23695 0.04407 0.86833 0.0
H2256 H 0.33871 0.02615 0.83116 0.0
H2257 H 0.42261 0.05914 0.86423 0.0
H2258 H 0.41254 0.04898 0.88263 0.0
H2259 H 0.37267 0.05636 0.87182 0.0
C2260 C 0.31172 0.0373 0.90126 0.0
C2261 C 0.27371 0.04026 0.89509 0.0
C2262 C 0.34161 0.03626 0.88635 0.0
C2263 C 0.33408 0.03826 0.86507 0.0
C2264 C 0.29586 0.04083 0.85877 0.0
H2265 H 0.50245 0.05616 0.77109 0.0
H2266 H 0.44639 0.05466 0.79484 0.0
C2267 C 0.26594 0.04182 0.87363 0.0
C2268 C 0.36624 0.03812 0.84941 0.0
H2269 H 0.45215 0.05003 0.83629 0.0
C2270 C 0.3636 0.03135 0.83226 0.0
C2271 C 0.3983 0.04503 0.85077 0.0
C2272 C 0.40168 0.05286 0.86823 0.0
C2273 C 0.3923 0.03128 0.8164 0.0
C2274 C 0.42471 0.03806 0.81798 0.0
C2275 C 0.42732 0.04481 0.83516 0.0
C2276 C 0.45604 0.03851 0.80185 0.0
C2277 C 0.38716 0.02415 0.79787 0.0
C2278 C 0.47967 0.02988 0.79765 0.0
C2279 C 0.5116 0.03069 0.78392 0.0
C2280 C 0.5207 0.04019 0.77441 0.0
C2281 C 0.49628 0.04874 0.77821 0.0
C2282 C 0.46427 0.0479 0.79179 0.0
H2283 H 0.35626 0.02151 0.79627 0.0
H2284 H 0.39616 0.02799 0.78304 0.0
H2285 H 0.40592 0.01723 0.80007 0.0
H2286 H 0.47433 0.02262 0.80556 0.0
H2287 H 0.53005 0.02399 0.78145 0.0
H2288 H 0.25039 0.96982 0.59261 0.0
H2289 H 0.1912 0.97001 0.61457 0.0
H2290 H 0.18315 0.93689 0.60961 0.0
H2291 H 0.24228 0.93659 0.58797 0.0
H2292 H 0.11458 0.96269 0.60622 0.0
H2293 H 0.18271 0.94208 0.67319 0.0
H2294 H 0.21128 0.94774 0.65226 0.0
H2295 H 0.18811 0.93539 0.64867 0.0
C2296 C 0.236 0.96258 0.59619 0.0
C2297 C 0.25125 0.95318 0.5887 0.0
C2298 C 0.2022 0.96271 0.60871 0.0
C2299 C 0.18329 0.95345 0.61399 0.0
C2300 C 0.19783 0.9441 0.60607 0.0
H2301 H 0.95271 0.93923 0.65928 0.0
H2302 H 0.01063 0.94342 0.63831 0.0
C2303 C 0.23155 0.94396 0.59363 0.0
C2304 C 0.14832 0.95347 0.62778 0.0
H2305 H 0.11275 0.94327 0.67334 0.0
C2306 C 0.1142 0.95855 0.62101 0.0
C2307 C 0.14819 0.9482 0.64723 0.0
C2308 C 0.18465 0.94313 0.6559 0.0
C2309 C 0.07936 0.95812 0.6328 0.0
C2310 C 0.07865 0.95233 0.65164 0.0
C2311 C 0.11324 0.94762 0.65879 0.0
C2312 C 0.04214 0.9507 0.66385 0.0
C2313 C 0.04372 0.96386 0.62498 0.0
C2314 C 0.04077 0.95329 0.68523 0.0
C2315 C 0.00788 0.9508 0.69733 0.0
C2316 C 0.97578 0.94562 0.68826 0.0
C2317 C 0.97686 0.94325 0.66673 0.0
C2318 C 0.00984 0.94571 0.65466 0.0
H2319 H 0.05209 0.97033 0.61443 0.0
H2320 H 0.02488 0.95849 0.61589 0.0
H2321 H 0.02615 0.96699 0.63823 0.0
H2322 H 0.0655 0.95708 0.69265 0.0
H2323 H 0.00795 0.95275 0.71387 0.0
H2324 H 0.66261 0.76567 0.7019 0.0
H2325 H 0.61735 0.76382 0.67228 0.0
H2326 H 0.59439 0.79653 0.67371 0.0
H2327 H 0.6398 0.79851 0.70311 0.0
H2328 H 0.53572 0.7699 0.6641 0.0
H2329 H 0.64583 0.79057 0.61542 0.0
H2330 H 0.65723 0.78534 0.64097 0.0
H2331 H 0.63132 0.79738 0.63875 0.0
C2332 C 0.64735 0.77245 0.69619 0.0
C2333 C 0.65531 0.78227 0.70459 0.0
C2334 C 0.62149 0.77136 0.67929 0.0
C2335 C 0.60325 0.78007 0.67063 0.0
C2336 C 0.60878 0.78975 0.68002 0.0
H2337 H 0.42789 0.79054 0.57768 0.0
H2338 H 0.46316 0.78642 0.60988 0.0
C2339 C 0.63468 0.79085 0.69682 0.0
C2340 C 0.5815 0.77927 0.65065 0.0
H2341 H 0.58332 0.78778 0.60005 0.0
C2342 C 0.54614 0.77373 0.65001 0.0
C2343 C 0.59579 0.78406 0.63223 0.0
C2344 C 0.63481 0.78959 0.63173 0.0
C2345 C 0.52372 0.77325 0.63151 0.0
C2346 C 0.53694 0.77856 0.61342 0.0
C2347 C 0.57311 0.78374 0.61393 0.0
C2348 C 0.51298 0.77949 0.59412 0.0
C2349 C 0.48619 0.76706 0.63154 0.0
C2350 C 0.52923 0.77698 0.5745 0.0
C2351 C 0.5094 0.77949 0.55599 0.0
C2352 C 0.47296 0.78457 0.55682 0.0
C2353 C 0.45589 0.78662 0.5765 0.0
C2354 C 0.47587 0.78417 0.59497 0.0
H2355 H 0.48707 0.76084 0.64354 0.0
H2356 H 0.46125 0.77223 0.63545 0.0
H2357 H 0.48055 0.76354 0.61593 0.0
H2358 H 0.55795 0.77341 0.5735 0.0
H2359 H 0.52323 0.77776 0.54107 0.0
H2360 H 0.23595 0.7999 0.1959 0.0
H2361 H 0.17403 0.79598 0.17813 0.0
H2362 H 0.23409 0.79565 0.11847 0.0
H2363 H 0.29612 0.79938 0.13607 0.0
H2364 H 0.13863 0.80814 0.14872 0.0
H2365 H 0.16859 0.76952 0.1151 0.0
H2366 H 0.19857 0.77513 0.13551 0.0
H2367 H 0.20577 0.77878 0.10852 0.0
C2368 C 0.23606 0.79886 0.17902 0.0
C2369 C 0.27093 0.79996 0.16738 0.0
C2370 C 0.20069 0.79661 0.16891 0.0
C2371 C 0.19961 0.79536 0.14704 0.0
C2372 C 0.23444 0.79632 0.13542 0.0
H2373 H 0.02995 0.79573 0.04841 0.0
H2374 H 0.08843 0.79483 0.07064 0.0
C2375 C 0.26982 0.79855 0.1455 0.0
C2376 C 0.16167 0.79395 0.13611 0.0
H2377 H 0.11413 0.77881 0.10035 0.0
C2378 C 0.13299 0.80164 0.1384 0.0
C2379 C 0.15448 0.78547 0.12264 0.0
C2380 C 0.18334 0.7767 0.12044 0.0
C2381 C 0.09794 0.80132 0.1269 0.0
C2382 C 0.09131 0.79301 0.11295 0.0
C2383 C 0.11949 0.78518 0.11103 0.0
C2384 C 0.05603 0.79264 0.09952 0.0
C2385 C 0.06892 0.81006 0.12912 0.0
C2386 C 0.01865 0.79146 0.10843 0.0
C2387 C 0.98518 0.79198 0.0958 0.0
C2388 C 0.98864 0.79368 0.07406 0.0
C2389 C 0.02629 0.79448 0.06511 0.0
C2390 C 0.05971 0.79394 0.07775 0.0
H2391 H 0.08167 0.81677 0.13759 0.0
H2392 H 0.05862 0.81268 0.11346 0.0
H2393 H 0.04295 0.80733 0.13808 0.0
H2394 H 0.01535 0.79033 0.12519 0.0
H2395 H 0.95663 0.79127 0.10317 0.0
H2396 H 0.77284 0.95375 0.11356 0.0
H2397 H 0.72004 0.95756 0.13842 0.0
H2398 H 0.64358 0.96569 0.08706 0.0
H2399 H 0.69598 0.96172 0.06202 0.0
H2400 H 0.67547 0.97552 0.14579 0.0
H2401 H 0.58285 0.94299 0.11789 0.0
H2402 H 0.63396 0.94426 0.11086 0.0
H2403 H 0.59735 0.95187 0.0977 0.0
C2404 C 0.74485 0.95638 0.10753 0.0
C2405 C 0.73844 0.95732 0.0858 0.0
C2406 C 0.71477 0.95858 0.12177 0.0
C2407 C 0.67779 0.96174 0.11454 0.0
C2408 C 0.67173 0.96306 0.09291 0.0
H2409 H 0.45355 0.97122 0.1752 0.0
H2410 H 0.50916 0.97161 0.151 0.0
C2411 C 0.70173 0.96083 0.07864 0.0
C2412 C 0.64521 0.96329 0.12959 0.0
H2413 H 0.55466 0.95416 0.14304 0.0
C2414 C 0.64901 0.97086 0.14523 0.0
C2415 C 0.61091 0.95715 0.12885 0.0
C2416 C 0.60602 0.94854 0.11306 0.0
C2417 C 0.61902 0.97257 0.15998 0.0
C2418 C 0.5847 0.96645 0.15916 0.0
C2419 C 0.58095 0.95889 0.14351 0.0
C2420 C 0.55233 0.96756 0.1745 0.0
C2421 C 0.62399 0.98099 0.17612 0.0
C2422 C 0.55834 0.96531 0.19581 0.0
C2423 C 0.52656 0.96509 0.20974 0.0
C2424 C 0.48825 0.96702 0.20249 0.0
C2425 C 0.48264 0.96965 0.18128 0.0
C2426 C 0.51437 0.96988 0.16742 0.0
H2427 H 0.64703 0.98661 0.17143 0.0
H2428 H 0.59597 0.98521 0.17864 0.0
H2429 H 0.63286 0.97749 0.19129 0.0
H2430 H 0.58732 0.96331 0.20151 0.0
H2431 H 0.53182 0.96301 0.22597 0.0
H2432 H 0.03425 0.51527 0.82072 0.0
H2433 H 0.99116 0.5088 0.84849 0.0
H2434 H 0.91755 0.5357 0.8419 0.0
H2435 H 0.96008 0.54217 0.81403 0.0
H2436 H 0.97984 0.51912 0.88556 0.0
H2437 H 0.83717 0.51253 0.84643 0.0
H2438 H 0.88272 0.51364 0.83201 0.0
H2439 H 0.85677 0.52503 0.8404 0.0
C2440 C 0.00845 0.51971 0.82489 0.0
C2441 C 0.0007 0.52928 0.81528 0.0
C2442 C 0.98388 0.51599 0.84074 0.0
C2443 C 0.951 0.52172 0.84707 0.0
C2444 C 0.94233 0.53105 0.83693 0.0
H2445 H 0.84088 0.53534 0.96038 0.0
H2446 H 0.88542 0.5326 0.93089 0.0
C2447 C 0.96686 0.53479 0.82111 0.0
C2448 C 0.92838 0.51866 0.86586 0.0
H2449 H 0.83473 0.51582 0.88388 0.0
C2450 C 0.94819 0.51816 0.88516 0.0
C2451 C 0.88724 0.51725 0.86527 0.0
C2452 C 0.8648 0.51703 0.84486 0.0
C2453 C 0.92755 0.51707 0.90406 0.0
C2454 C 0.88611 0.5166 0.90358 0.0
C2455 C 0.86654 0.51631 0.8842 0.0
C2456 C 0.86233 0.51754 0.92288 0.0
C2457 C 0.95017 0.51675 0.92441 0.0
C2458 C 0.83459 0.50997 0.92812 0.0
C2459 C 0.80895 0.51153 0.94496 0.0
C2460 C 0.81036 0.52075 0.95662 0.0
C2461 C 0.83905 0.52816 0.95172 0.0
C2462 C 0.86472 0.52658 0.93496 0.0
H2463 H 0.98045 0.51378 0.92195 0.0
H2464 H 0.9525 0.52468 0.93085 0.0
H2465 H 0.93517 0.51182 0.93622 0.0
H2466 H 0.83218 0.50299 0.91886 0.0
H2467 H 0.78712 0.50568 0.94833 0.0
H2468 H 0.19727 0.70623 0.86508 0.0
H2469 H 0.24932 0.70702 0.89153 0.0
H2470 H 0.33672 0.70685 0.84247 0.0
H2471 H 0.28512 0.70617 0.81598 0.0
H2472 H 0.30494 0.69169 0.89598 0.0
H2473 H 0.37768 0.72922 0.88184 0.0
H2474 H 0.329 0.72632 0.87222 0.0
H2475 H 0.37167 0.72187 0.85818 0.0
C2476 C 0.22755 0.70656 0.85991 0.0
C2477 C 0.2371 0.70608 0.83844 0.0
C2478 C 0.25721 0.70703 0.87504 0.0
C2479 C 0.2968 0.70713 0.86894 0.0
C2480 C 0.30633 0.70701 0.84751 0.0
H2481 H 0.52498 0.69351 0.91232 0.0
H2482 H 0.46508 0.69879 0.89421 0.0
C2483 C 0.27677 0.70653 0.83239 0.0
C2484 C 0.32829 0.70611 0.88476 0.0
H2485 H 0.41614 0.71635 0.89988 0.0
C2486 C 0.3289 0.69717 0.89719 0.0
C2487 C 0.35943 0.71329 0.88624 0.0
C2488 C 0.35928 0.72326 0.87405 0.0
C2489 C 0.36103 0.6949 0.91013 0.0
C2490 C 0.39301 0.70185 0.91088 0.0
C2491 C 0.3916 0.71102 0.89918 0.0
C2492 C 0.42947 0.69932 0.92235 0.0
C2493 C 0.36146 0.68481 0.92198 0.0
C2494 C 0.42933 0.69802 0.94421 0.0
C2495 C 0.46349 0.69493 0.95461 0.0
C2496 C 0.49836 0.69315 0.9433 0.0
C2497 C 0.49858 0.69476 0.92148 0.0
C2498 C 0.46444 0.69782 0.91111 0.0
H2499 H 0.33803 0.67947 0.91654 0.0
H2500 H 0.3903 0.68089 0.9202 0.0
H2501 H 0.35671 0.68633 0.93893 0.0
H2502 H 0.40274 0.69931 0.95318 0.0
H2503 H 0.46246 0.69385 0.97147 0.0
H2504 H 0.94955 0.68896 0.46577 0.0
H2505 H 0.89759 0.69002 0.43946 0.0
H2506 H 0.92695 0.72188 0.42784 0.0
H2507 H 0.97875 0.72096 0.45449 0.0
H2508 H 0.8444 0.71744 0.4267 0.0
H2509 H 0.93249 0.69077 0.37736 0.0
H2510 H 0.92198 0.68581 0.40308 0.0
H2511 H 0.95227 0.6971 0.40027 0.0
C2512 C 0.94453 0.69625 0.4579 0.0
C2513 C 0.96859 0.70483 0.46194 0.0
C2514 C 0.91493 0.69683 0.44284 0.0
C2515 C 0.9092 0.70594 0.43141 0.0
C2516 C 0.93122 0.71475 0.43644 0.0
H2517 H 0.79678 0.70477 0.30885 0.0
H2518 H 0.8423 0.70797 0.33781 0.0
C2519 C 0.96072 0.71421 0.45166 0.0
C2520 C 0.88251 0.70597 0.41315 0.0
H2521 H 0.86739 0.69419 0.36597 0.0
C2522 C 0.84943 0.71241 0.41334 0.0
C2523 C 0.88978 0.69958 0.39556 0.0
C2524 C 0.92625 0.69299 0.39388 0.0
C2525 C 0.82251 0.71235 0.39663 0.0
C2526 C 0.8287 0.70552 0.37958 0.0
C2527 C 0.86251 0.69935 0.37914 0.0
C2528 C 0.80016 0.7044 0.36222 0.0
C2529 C 0.78797 0.71963 0.39733 0.0
C2530 C 0.76147 0.70129 0.36636 0.0
C2531 C 0.73536 0.6995 0.34986 0.0
C2532 C 0.74768 0.70065 0.32892 0.0
C2533 C 0.78645 0.70378 0.32481 0.0
C2534 C 0.81245 0.70564 0.34133 0.0
H2535 H 0.79397 0.72637 0.40762 0.0
H2536 H 0.78036 0.72246 0.38139 0.0
H2537 H 0.76211 0.7155 0.40383 0.0
H2538 H 0.75168 0.7 0.38233 0.0
H2539 H 0.70574 0.69704 0.35353 0.0
H2540 H 0.43787 0.53324 0.28843 0.0
H2541 H 0.39679 0.5266 0.31695 0.0
H2542 H 0.46098 0.54522 0.3614 0.0
H2543 H 0.50281 0.55165 0.33315 0.0
H2544 H 0.4482 0.52547 0.37569 0.0
H2545 H 0.30988 0.54283 0.34527 0.0
H2546 H 0.3347 0.53424 0.32754 0.0
H2547 H 0.35746 0.54622 0.33491 0.0
C2548 C 0.44314 0.53593 0.30428 0.0
C2549 C 0.47335 0.54303 0.30855 0.0
C2550 C 0.41961 0.53215 0.32053 0.0
C2551 C 0.42553 0.53553 0.34122 0.0
C2552 C 0.45596 0.54251 0.34553 0.0
H2553 H 0.32288 0.5402 0.45976 0.0
H2554 H 0.3669 0.53849 0.4297 0.0
C2555 C 0.47972 0.54621 0.32936 0.0
C2556 C 0.39975 0.53203 0.35849 0.0
H2557 H 0.30601 0.53379 0.3771 0.0
C2558 C 0.41701 0.52718 0.37592 0.0
C2559 C 0.35904 0.53423 0.35867 0.0
C2560 C 0.3391 0.53974 0.3407 0.0
C2561 C 0.39489 0.52483 0.39386 0.0
C2562 C 0.35466 0.52744 0.39435 0.0
C2563 C 0.33692 0.53177 0.37655 0.0
C2564 C 0.33148 0.527 0.4139 0.0
C2565 C 0.41485 0.51981 0.41236 0.0
C2566 C 0.29725 0.52101 0.41502 0.0
C2567 C 0.27202 0.52196 0.43224 0.0
C2568 C 0.2804 0.52905 0.44834 0.0
C2569 C 0.31559 0.5347 0.44756 0.0
C2570 C 0.34092 0.53367 0.43048 0.0
H2571 H 0.44195 0.51566 0.40752 0.0
H2572 H 0.4233 0.52586 0.42385 0.0
H2573 H 0.39484 0.5143 0.42036 0.0
H2574 H 0.28939 0.5159 0.40224 0.0
H2575 H 0.24506 0.51752 0.43239 0.0
H2576 H 0.95869 0.4478 0.14322 0.0
H2577 H -1e-05 0.45482 0.11532 0.0
H2578 H 0.05228 0.47608 0.15933 0.0
H2579 H 0.01193 0.46885 0.18755 0.0
H2580 H 0.00943 0.47429 0.09859 0.0
H2581 H 0.14699 0.46074 0.13703 0.0
H2582 H 0.09906 0.45678 0.14595 0.0
H2583 H 0.11741 0.4694 0.15234 0.0
C2584 C 0.97892 0.45398 0.14697 0.0
C2585 C 0.98255 0.45767 0.16762 0.0
C2586 C 0.00234 0.45802 0.13099 0.0
C2587 C 0.02957 0.46586 0.13535 0.0
C2588 C 0.03205 0.46988 0.15576 0.0
H2589 H 0.2221 0.48111 0.05033 0.0
H2590 H 0.17176 0.48456 0.07684 0.0
C2591 C 0.00897 0.46574 0.17183 0.0
C2592 C 0.05674 0.46931 0.11865 0.0
H2593 H 0.15302 0.46845 0.10404 0.0
C2594 C 0.04091 0.47316 0.09985 0.0
C2595 C 0.0978 0.46786 0.12041 0.0
C2596 C 0.11643 0.4634 0.13992 0.0
C2597 C 0.06494 0.47517 0.08243 0.0
C2598 C 0.10564 0.47323 0.0839 0.0
C2599 C 0.12174 0.46998 0.10306 0.0
C2600 C 0.13141 0.473 0.06526 0.0
C2601 C 0.0465 0.47907 0.06243 0.0
C2602 C 0.12481 0.46555 0.04967 0.0
C2603 C 0.15356 0.4635 0.03464 0.0
C2604 C 0.18946 0.46884 0.03501 0.0
C2605 C 0.19479 0.47684 0.04967 0.0
C2606 C 0.16607 0.47884 0.06481 0.0
H2607 H 0.01873 0.48328 0.06566 0.0
H2608 H 0.06685 0.48425 0.05378 0.0
H2609 H 0.03943 0.4724 0.05216 0.0
H2610 H 0.09858 0.46082 0.04999 0.0
H2611 H 0.1485 0.45733 0.02346 0.0
H2612 H 0.73347 0.30952 0.19367 0.0
H2613 H 0.68254 0.31152 0.16701 0.0
H2614 H 0.7048 0.28062 0.14488 0.0
H2615 H 0.75584 0.27849 0.17162 0.0
H2616 H 0.69309 0.30947 0.12225 0.0
H2617 H 0.58413 0.28173 0.15484 0.0
H2618 H 0.62388 0.28692 0.17035 0.0
H2619 H 0.63333 0.27697 0.15141 0.0
C2620 C 0.72742 0.30311 0.18325 0.0
C2621 C 0.74867 0.29383 0.1848 0.0
C2622 C 0.69838 0.30429 0.168 0.0
C2623 C 0.68982 0.2962 0.15412 0.0
C2624 C 0.71071 0.2869 0.15565 0.0
H2625 H 0.50983 0.29183 0.05745 0.0
H2626 H 0.56699 0.28851 0.07964 0.0
C2627 C 0.7399 0.28571 0.1709 0.0
C2628 C 0.6595 0.29765 0.1378 0.0
H2629 H 0.56815 0.28978 0.1228 0.0
C2630 C 0.66579 0.30516 0.12229 0.0
C2631 C 0.62412 0.29196 0.13792 0.0
C2632 C 0.61561 0.28398 0.15458 0.0
C2633 C 0.63743 0.30717 0.10686 0.0
C2634 C 0.60161 0.30165 0.10727 0.0
C2635 C 0.59568 0.294 0.12254 0.0
C2636 C 0.56918 0.30395 0.09254 0.0
C2637 C 0.64621 0.3151 0.09017 0.0
C2638 C 0.55163 0.31375 0.09237 0.0
C2639 C 0.51903 0.31569 0.07967 0.0
C2640 C 0.50317 0.30782 0.06706 0.0
C2641 C 0.5213 0.29806 0.06698 0.0
C2642 C 0.55394 0.29614 0.07966 0.0
H2643 H 0.67832 0.31633 0.0883 0.0
H2644 H 0.63372 0.31278 0.07477 0.0
H2645 H 0.63287 0.32258 0.09478 0.0
H2646 H 0.56244 0.31982 0.10253 0.0
H2647 H 0.50566 0.32327 0.08017 0.0
H2648 H 0.03884 0.29634 0.55167 0.0
H2649 H 0.08045 0.29385 0.58249 0.0
H2650 H 0.00491 0.26927 0.60375 0.0
H2651 H 0.96294 0.2717 0.57296 0.0
H2652 H 0.0205 0.28492 0.63415 0.0
H2653 H 0.15698 0.2701 0.59732 0.0
H2654 H 0.13789 0.28152 0.585 0.0
H2655 H 0.1099 0.26976 0.58425 0.0
C2656 C 0.03131 0.29031 0.56275 0.0
C2657 C -0.00245 0.28423 0.5599 0.0
C2658 C 0.05524 0.28887 0.58028 0.0
C2659 C 0.04588 0.28131 0.59524 0.0
C2660 C 0.01265 0.2751 0.59228 0.0
H2661 H 0.20788 0.27043 0.69943 0.0
H2662 H 0.15936 0.26721 0.67188 0.0
C2663 C 0.98879 0.2765 0.57467 0.0
C2664 C 0.06937 0.28045 0.61464 0.0
H2665 H 0.1628 0.27672 0.63229 0.0
C2666 C 0.05149 0.28298 0.63383 0.0
C2667 C 0.1096 0.2778 0.61416 0.0
C2668 C 0.12971 0.27454 0.59411 0.0
C2669 C 0.07337 0.28343 0.65246 0.0
C2670 C 0.11412 0.28139 0.65174 0.0
C2671 C 0.13155 0.27835 0.63274 0.0
C2672 C 0.13983 0.28307 0.67011 0.0
C2673 C 0.05287 0.28623 0.67268 0.0
C2674 C 0.1445 0.29303 0.67834 0.0
C2675 C 0.17224 0.29491 0.69401 0.0
C2676 C 0.1959 0.28685 0.70165 0.0
C2677 C 0.19011 0.2768 0.6939 0.0
C2678 C 0.16245 0.27494 0.67815 0.0
H2679 H 0.02086 0.2846 0.67184 0.0
H2680 H 0.06552 0.28193 0.68616 0.0
H2681 H 0.05666 0.2946 0.67568 0.0
H2682 H 0.12779 0.29944 0.67207 0.0
H2683 H 0.176 0.30274 0.69963 0.0
H2684 H 0.57171 0.45607 0.69896 0.0
H2685 H 0.61637 0.45928 0.66957 0.0
H2686 H 0.51913 0.45737 0.62635 0.0
H2687 H 0.47423 0.45437 0.65558 0.0
H2688 H 0.63024 0.44597 0.63784 0.0
H2689 H 0.57563 0.48291 0.60547 0.0
H2690 H 0.56203 0.47832 0.63125 0.0
H2691 H 0.53725 0.47353 0.60827 0.0
C2692 C 0.55976 0.45647 0.68322 0.0
C2693 C 0.51946 0.45494 0.67957 0.0
C2694 C 0.58529 0.45833 0.66647 0.0
C2695 C 0.57095 0.45871 0.64584 0.0
C2696 C 0.53066 0.45736 0.6422 0.0
H2697 H 0.68539 0.44204 0.53168 0.0
H2698 H 0.64507 0.44372 0.5632 0.0
C2699 C 0.50508 0.45555 0.65892 0.0
C2700 C 0.59847 0.45951 0.62795 0.0
H2701 H 0.6161 0.47265 0.58247 0.0
C2702 C 0.62749 0.45189 0.62588 0.0
C2703 C 0.59511 0.4673 0.61251 0.0
C2704 C 0.56608 0.47604 0.61457 0.0
C2705 C 0.65221 0.4516 0.60832 0.0
C2706 C 0.64717 0.459 0.59225 0.0
C2707 C 0.61939 0.4669 0.59472 0.0
C2708 C 0.66975 0.45841 0.5725 0.0
C2709 C 0.68332 0.44332 0.60705 0.0
C2710 C 0.69582 0.46633 0.56693 0.0
C2711 C 0.71881 0.46543 0.54884 0.0
C2712 C 0.71588 0.45661 0.53604 0.0
C2713 C 0.68861 0.44889 0.5413 0.0
C2714 C 0.66567 0.44981 0.55934 0.0
H2715 H 0.69053 0.44017 0.62281 0.0
H2716 H 0.67233 0.43687 0.59722 0.0
H2717 H 0.71065 0.44634 0.59977 0.0
H2718 H 0.69909 0.47306 0.57687 0.0
H2719 H 0.73944 0.47153 0.54516 0.0
loop_
_geom_bond_atom_site_label_1
_geom_bond_atom_site_label_2
_geom_bond_distance
_geom_bond_site_symmetry_2
_ccdc_geom_bond_type
C0 O1 1.160 . S
C0 O7 1.185 . S
O1 C0 1.160 . S
O2 Zn3 1.899 . S
O2 C10 1.284 . S
Zn3 O2 1.899 . S
Zn3 O4 2.032 . S
Zn3 O7 2.086 . S
Zn3 O12 1.977 . S
O4 Zn3 2.032 . S
O4 C8 1.278 . S
C5 O6 1.203 . S
C5 O12 1.267 . S
O6 C5 1.203 . S
O7 C0 1.185 . S
O7 Zn3 2.086 . S
C8 O4 1.278 . S
C8 O9 1.211 . S
O9 C8 1.211 . S
C10 O2 1.284 . S
C10 O11 1.273 . S
O11 C10 1.273 . S
O12 Zn3 1.977 . S
O12 C5 1.267 . S
C13 O14 1.160 . S
C13 O20 1.185 . S
O14 C13 1.160 . S
O15 Zn16 1.899 . S
O15 C23 1.284 . S
Zn16 O15 1.899 . S
Zn16 O17 2.032 . S
Zn16 O20 2.086 . S
Zn16 O25 1.977 . S
O17 Zn16 2.032 . S
O17 C21 1.278 . S
C18 O19 1.203 . S
C18 O25 1.267 . S
O19 C18 1.203 . S
O20 C13 1.185 . S
O20 Zn16 2.086 . S
C21 O17 1.278 . S
C21 O22 1.211 . S
O22 C21 1.211 . S
C23 O15 1.284 . S
C23 O24 1.273 . S
O24 C23 1.273 . S
O25 Zn16 1.977 . S
O25 C18 1.267 . S
C26 O27 1.160 . S
C26 O33 1.185 . S
O27 C26 1.160 . S
O28 Zn29 1.899 . S
O28 C36 1.284 . S
Zn29 O28 1.899 . S
Zn29 O30 2.032 . S
Zn29 O33 2.086 . S
Zn29 O38 1.977 1_556 S
O30 Zn29 2.032 . S
O30 C34 1.278 . S
C31 O32 1.203 . S
C31 O38 1.267 . S
O32 C31 1.203 . S
O33 C26 1.185 . S
O33 Zn29 2.086 . S
C34 O30 1.278 . S
C34 O35 1.159 1_556 S
O35 C34 1.159 1_554 S
C36 O28 1.284 . S
C36 O37 1.273 . S
O37 C36 1.273 . S
O38 Zn29 1.977 1_554 S
O38 C31 1.267 . S
C39 O40 1.160 . S
C39 O46 1.185 . S
O40 C39 1.160 . S
O41 Zn42 1.899 . S
O41 C49 1.284 . S
Zn42 O41 1.899 . S
Zn42 O43 2.032 . S
Zn42 O46 2.086 . S
Zn42 O51 1.977 1_556 S
O43 Zn42 2.032 . S
O43 C47 1.278 . S
C44 O45 1.203 . S
C44 O51 1.267 . S
O45 C44 1.203 . S
O46 C39 1.185 . S
O46 Zn42 2.086 . S
C47 O43 1.278 . S
C47 O48 1.159 1_556 S
O48 C47 1.159 1_554 S
C49 O41 1.284 . S
C49 O50 1.273 . S
O50 C49 1.273 . S
O51 Zn42 1.977 1_554 S
O51 C44 1.267 . S
C52 O53 1.160 . S
C52 O59 1.185 . S
O53 C52 1.160 . S
O54 Zn55 1.899 . S
O54 C62 1.284 . S
Zn55 O54 1.899 . S
Zn55 O56 2.032 . S
Zn55 O59 2.086 . S
Zn55 O64 1.977 . S
O56 Zn55 2.032 . S
O56 C60 1.278 . S
C57 O58 1.203 . S
C57 O64 1.267 . S
O58 C57 1.203 . S
O59 C52 1.185 . S
O59 Zn55 2.086 . S
C60 O56 1.278 . S
C60 O61 1.211 . S
O61 C60 1.211 . S
C62 O54 1.284 . S
C62 O63 1.273 . S
O63 C62 1.273 . S
O64 Zn55 1.977 . S
O64 C57 1.267 . S
C65 O66 1.160 . S
C65 O72 1.185 . S
O66 C65 1.160 . S
O67 Zn68 1.899 . S
O67 C75 1.284 . S
Zn68 O67 1.899 . S
Zn68 O69 2.032 . S
Zn68 O72 2.086 . S
Zn68 O77 1.977 . S
O69 Zn68 2.032 . S
O69 C73 1.278 . S
C70 O71 1.203 . S
C70 O77 1.267 . S
O71 C70 1.203 . S
O72 C65 1.185 . S
O72 Zn68 2.086 . S
C73 O69 1.278 . S
C73 O74 1.211 . S
O74 C73 1.211 . S
C75 O67 1.284 . S
C75 O76 1.273 . S
O76 C75 1.273 . S
O77 Zn68 1.977 . S
O77 C70 1.267 . S
C78 O79 1.160 . S
C78 O85 1.185 . S
O79 C78 1.160 . S
O80 Zn81 1.899 . S
O80 C88 1.284 . S
Zn81 O80 1.899 . S
Zn81 O82 2.032 . S
Zn81 O85 2.086 . S
Zn81 O90 1.977 1_554 S
O82 Zn81 2.032 . S
O82 C86 1.278 . S
C83 O84 1.203 . S
C83 O90 1.267 . S
O84 C83 1.203 . S
O85 C78 1.185 . S
O85 Zn81 2.086 . S
C86 O82 1.278 . S
C86 O87 1.159 1_554 S
O87 C86 1.159 1_556 S
C88 O80 1.284 . S
C88 O89 1.273 . S
O89 C88 1.273 . S
O90 Zn81 1.977 1_556 S
O90 C83 1.267 . S
C91 O92 1.160 . S
C91 O98 1.185 . S
O92 C91 1.160 . S
O93 Zn94 1.899 . S
O93 C101 1.284 . S
Zn94 O93 1.899 . S
Zn94 O95 2.032 . S
Zn94 O98 2.086 . S
Zn94 O103 1.977 1_554 S
O95 Zn94 2.032 . S
O95 C99 1.278 . S
C96 O97 1.203 . S
C96 O103 1.267 . S
O97 C96 1.203 . S
O98 C91 1.185 . S
O98 Zn94 2.086 . S
C99 O95 1.278 . S
C99 O100 1.159 1_554 S
O100 C99 1.159 1_556 S
C101 O93 1.284 . S
C101 O102 1.273 . S
O102 C101 1.273 . S
O103 Zn94 1.977 1_556 S
O103 C96 1.267 . S
C104 O105 1.160 . S
C104 O111 1.185 . S
O105 C104 1.160 . S
O106 Zn107 1.899 . S
O106 C114 1.284 . S
Zn107 O106 1.899 . S
Zn107 O108 2.032 . S
Zn107 O111 2.086 . S
Zn107 O116 1.977 . S
O108 Zn107 2.032 . S
O108 C112 1.278 . S
C109 O110 1.203 . S
C109 O116 1.267 . S
O110 C109 1.203 . S
O111 C104 1.185 . S
O111 Zn107 2.086 . S
C112 O108 1.278 . S
C112 O113 1.211 . S
O113 C112 1.211 . S
C114 O106 1.284 . S
C114 O115 1.273 . S
O115 C114 1.273 . S
O116 Zn107 1.977 . S
O116 C109 1.267 . S
C117 O118 1.160 . S
C117 O124 1.185 . S
O118 C117 1.160 . S
O119 Zn120 1.899 . S
O119 C127 1.284 . S
Zn120 O119 1.899 . S
Zn120 O121 2.032 . S
Zn120 O124 2.086 . S
Zn120 O129 1.977 . S
O121 Zn120 2.032 . S
O121 C125 1.278 . S
C122 O123 1.203 . S
C122 O129 1.267 . S
O123 C122 1.203 . S
O124 C117 1.185 . S
O124 Zn120 2.086 . S
C125 O121 1.278 . S
C125 O126 1.211 . S
O126 C125 1.211 . S
C127 O119 1.284 . S
C127 O128 1.273 . S
O128 C127 1.273 . S
O129 Zn120 1.977 . S
O129 C122 1.267 . S
C130 O131 1.160 . S
C130 O137 1.185 . S
O131 C130 1.160 . S
O132 Zn133 1.899 . S
O132 C140 1.284 . S
Zn133 O132 1.899 . S
Zn133 O134 2.032 . S
Zn133 O137 2.086 . S
Zn133 O142 1.977 . S
O134 Zn133 2.032 . S
O134 C138 1.278 . S
C135 O136 1.203 . S
C135 O142 1.267 . S
O136 C135 1.203 . S
O137 C130 1.185 . S
O137 Zn133 2.086 . S
C138 O134 1.278 . S
C138 O139 1.211 . S
O139 C138 1.211 . S
C140 O132 1.284 . S
C140 O141 1.273 . S
O141 C140 1.273 . S
O142 Zn133 1.977 . S
O142 C135 1.267 . S
C143 O144 1.160 . S
C143 O150 1.185 . S
O144 C143 1.160 . S
O145 Zn146 1.899 . S
O145 C153 1.284 . S
Zn146 O145 1.899 . S
Zn146 O147 2.032 . S
Zn146 O150 2.086 . S
Zn146 O155 1.977 . S
O147 Zn146 2.032 . S
O147 C151 1.278 . S
C148 O149 1.203 . S
C148 O155 1.267 . S
O149 C148 1.203 . S
O150 C143 1.185 . S
O150 Zn146 2.086 . S
C151 O147 1.278 . S
C151 O152 1.211 . S
O152 C151 1.211 . S
C153 O145 1.284 . S
C153 O154 1.273 . S
O154 C153 1.273 . S
O155 Zn146 1.977 . S
O155 C148 1.267 . S
C156 O157 1.160 . S
C156 O163 1.185 . S
O157 C156 1.160 . S
O158 Zn159 1.899 . S
O158 C166 1.284 . S
Zn159 O158 1.899 . S
Zn159 O160 2.032 . S
Zn159 O163 2.086 . S
Zn159 O168 1.977 . S
O160 Zn159 2.032 . S
O160 C164 1.278 . S
C161 O162 1.203 . S
C161 O168 1.267 . S
O162 C161 1.203 . S
O163 C156 1.185 . S
O163 Zn159 2.086 . S
C164 O160 1.278 . S
C164 O165 1.211 . S
O165 C164 1.211 . S
C166 O158 1.284 . S
C166 O167 1.273 . S
O167 C166 1.273 . S
O168 Zn159 1.977 . S
O168 C161 1.267 . S
C169 O170 1.160 . S
C169 O176 1.185 . S
O170 C169 1.160 . S
O171 Zn172 1.899 . S
O171 C179 1.284 . S
Zn172 O171 1.899 . S
Zn172 O173 2.032 . S
Zn172 O176 2.086 . S
Zn172 O181 1.977 . S
O173 Zn172 2.032 . S
O173 C177 1.278 . S
C174 O175 1.203 . S
C174 O181 1.267 . S
O175 C174 1.203 . S
O176 C169 1.185 . S
O176 Zn172 2.086 . S
C177 O173 1.278 . S
C177 O178 1.211 . S
O178 C177 1.211 . S
C179 O171 1.284 . S
C179 O180 1.273 . S
O180 C179 1.273 . S
O181 Zn172 1.977 . S
O181 C174 1.267 . S
C182 O183 1.160 . S
C182 O189 1.185 . S
O183 C182 1.160 . S
O184 Zn185 1.899 . S
O184 C192 1.284 . S
Zn185 O184 1.899 . S
Zn185 O186 2.032 . S
Zn185 O189 2.086 . S
Zn185 O194 1.977 . S
O186 Zn185 2.032 . S
O186 C190 1.278 . S
C187 O188 1.203 . S
C187 O194 1.267 . S
O188 C187 1.203 . S
O189 C182 1.185 . S
O189 Zn185 2.086 . S
C190 O186 1.278 . S
C190 O191 1.211 . S
O191 C190 1.211 . S
C192 O184 1.284 . S
C192 O193 1.273 . S
O193 C192 1.273 . S
O194 Zn185 1.977 . S
O194 C187 1.267 . S
C195 O196 1.160 . S
C195 O202 1.185 . S
O196 C195 1.160 . S
O197 Zn198 1.899 . S
O197 C205 1.284 . S
Zn198 O197 1.899 . S
Zn198 O199 2.032 . S
Zn198 O202 2.086 . S
Zn198 O207 1.977 . S
O199 Zn198 2.032 . S
O199 C203 1.278 . S
C200 O201 1.203 . S
C200 O207 1.267 . S
O201 C200 1.203 . S
O202 C195 1.185 . S
O202 Zn198 2.086 . S
C203 O199 1.278 . S
C203 O204 1.211 . S
O204 C203 1.211 . S
C205 O197 1.284 . S
C205 O206 1.273 . S
O206 C205 1.273 . S
O207 Zn198 1.977 . S
O207 C200 1.267 . S
C208 O209 1.160 . S
C208 O215 1.185 . S
O209 C208 1.160 . S
O210 Zn211 1.899 . S
O210 C218 1.284 . S
Zn211 O210 1.899 . S
Zn211 O212 2.032 . S
Zn211 O215 2.086 . S
Zn211 O220 1.977 . S
O212 Zn211 2.032 . S
O212 C216 1.278 . S
C213 O214 1.203 . S
C213 O220 1.267 . S
O214 C213 1.203 . S
O215 C208 1.185 . S
O215 Zn211 2.086 . S
C216 O212 1.278 . S
C216 O217 1.211 . S
O217 C216 1.211 . S
C218 O210 1.284 . S
C218 O219 1.273 . S
O219 C218 1.273 . S
O220 Zn211 1.977 . S
O220 C213 1.267 . S
C221 O222 1.160 . S
C221 O228 1.185 . S
O222 C221 1.160 . S
O223 Zn224 1.899 . S
O223 C231 1.284 . S
Zn224 O223 1.899 . S
Zn224 O225 2.032 . S
Zn224 O228 2.086 . S
Zn224 O233 1.977 . S
O225 Zn224 2.032 . S
O225 C229 1.278 . S
C226 O227 1.203 . S
C226 O233 1.267 . S
O227 C226 1.203 . S
O228 C221 1.185 . S
O228 Zn224 2.086 . S
C229 O225 1.278 . S
C229 O230 1.211 . S
O230 C229 1.211 . S
C231 O223 1.284 . S
C231 O232 1.273 . S
O232 C231 1.273 . S
O233 Zn224 1.977 . S
O233 C226 1.267 . S
C234 O235 1.160 . S
C234 O241 1.185 . S
O235 C234 1.160 . S
O236 Zn237 1.899 . S
O236 C244 1.284 . S
Zn237 O236 1.899 . S
Zn237 O238 2.032 . S
Zn237 O241 2.086 . S
Zn237 O246 1.977 . S
O238 Zn237 2.032 . S
O238 C242 1.278 . S
C239 O240 1.203 . S
C239 O246 1.267 . S
O240 C239 1.203 . S
O241 C234 1.185 . S
O241 Zn237 2.086 . S
C242 O238 1.278 . S
C242 O243 1.211 . S
O243 C242 1.211 . S
C244 O236 1.284 . S
C244 O245 1.273 . S
O245 C244 1.273 . S
O246 Zn237 1.977 . S
O246 C239 1.267 . S
C247 O248 1.160 . S
C247 O254 1.185 . S
O248 C247 1.160 . S
O249 Zn250 1.899 . S
O249 C257 1.284 . S
Zn250 O249 1.899 . S
Zn250 O251 2.032 . S
Zn250 O254 2.086 . S
Zn250 O259 1.977 . S
O251 Zn250 2.032 . S
O251 C255 1.278 . S
C252 O253 1.203 . S
C252 O259 1.267 . S
O253 C252 1.203 . S
O254 C247 1.185 . S
O254 Zn250 2.086 . S
C255 O251 1.278 . S
C255 O256 1.211 . S
O256 C255 1.211 . S
C257 O249 1.284 . S
C257 O258 1.273 . S
O258 C257 1.273 . S
O259 Zn250 1.977 . S
O259 C252 1.267 . S
C260 O261 1.160 . S
C260 O267 1.185 . S
O261 C260 1.160 . S
O262 Zn263 1.899 . S
O262 C270 1.284 . S
Zn263 O262 1.899 . S
Zn263 O264 2.032 . S
Zn263 O267 2.086 . S
Zn263 O272 1.977 . S
O264 Zn263 2.032 . S
O264 C268 1.278 . S
C265 O266 1.203 . S
C265 O272 1.267 . S
O266 C265 1.203 . S
O267 C260 1.185 . S
O267 Zn263 2.086 . S
C268 O264 1.278 . S
C268 O269 1.211 . S
O269 C268 1.211 . S
C270 O262 1.284 . S
C270 O271 1.273 . S
O271 C270 1.273 . S
O272 Zn263 1.977 . S
O272 C265 1.267 . S
C273 O274 1.160 . S
C273 O280 1.185 . S
O274 C273 1.160 . S
O275 Zn276 1.899 . S
O275 C283 1.284 . S
Zn276 O275 1.899 . S
Zn276 O277 2.032 . S
Zn276 O280 2.086 . S
Zn276 O285 1.977 . S
O277 Zn276 2.032 . S
O277 C281 1.278 . S
C278 O279 1.203 . S
C278 O285 1.267 . S
O279 C278 1.203 . S
O280 C273 1.185 . S
O280 Zn276 2.086 . S
C281 O277 1.278 . S
C281 O282 1.211 . S
O282 C281 1.211 . S
C283 O275 1.284 . S
C283 O284 1.273 . S
O284 C283 1.273 . S
O285 Zn276 1.977 . S
O285 C278 1.267 . S
C286 O287 1.160 . S
C286 O293 1.185 . S
O287 C286 1.160 . S
O288 Zn289 1.899 . S
O288 C296 1.284 . S
Zn289 O288 1.899 . S
Zn289 O290 2.032 . S
Zn289 O293 2.086 . S
Zn289 O298 1.977 . S
O290 Zn289 2.032 . S
O290 C294 1.278 . S
C291 O292 1.203 . S
C291 O298 1.267 . S
O292 C291 1.203 . S
O293 C286 1.185 . S
O293 Zn289 2.086 . S
C294 O290 1.278 . S
C294 O295 1.211 . S
O295 C294 1.211 . S
C296 O288 1.284 . S
C296 O297 1.273 . S
O297 C296 1.273 . S
O298 Zn289 1.977 . S
O298 C291 1.267 . S
C299 O300 1.160 . S
C299 O306 1.185 . S
O300 C299 1.160 . S
O301 Zn302 1.899 . S
O301 C309 1.284 . S
Zn302 O301 1.899 . S
Zn302 O303 2.032 . S
Zn302 O306 2.086 . S
Zn302 O311 1.977 . S
O303 Zn302 2.032 . S
O303 C307 1.278 . S
C304 O305 1.203 . S
C304 O311 1.267 . S
O305 C304 1.203 . S
O306 C299 1.185 . S
O306 Zn302 2.086 . S
C307 O303 1.278 . S
C307 O308 1.211 . S
O308 C307 1.211 . S
C309 O301 1.284 . S
C309 O310 1.273 . S
O310 C309 1.273 . S
O311 Zn302 1.977 . S
O311 C304 1.267 . S
C312 O313 1.160 . S
C312 O319 1.185 . S
O313 C312 1.160 . S
O314 Zn315 1.899 . S
O314 C322 1.284 . S
Zn315 O314 1.899 . S
Zn315 O316 2.032 . S
Zn315 O319 2.086 . S
Zn315 O324 1.977 . S
O316 Zn315 2.032 . S
O316 C320 1.278 . S
C317 O318 1.203 . S
C317 O324 1.267 . S
O318 C317 1.203 . S
O319 C312 1.185 . S
O319 Zn315 2.086 . S
C320 O316 1.278 . S
C320 O321 1.211 . S
O321 C320 1.211 . S
C322 O314 1.284 . S
C322 O323 1.273 . S
O323 C322 1.273 . S
O324 Zn315 1.977 . S
O324 C317 1.267 . S
C325 O326 1.160 . S
C325 O332 1.185 . S
O326 C325 1.160 . S
O327 Zn328 1.899 . S
O327 C335 1.284 . S
Zn328 O327 1.899 . S
Zn328 O329 2.032 . S
Zn328 O332 2.086 . S
Zn328 O337 1.977 . S
O329 Zn328 2.032 . S
O329 C333 1.278 . S
C330 O331 1.203 . S
C330 O337 1.267 . S
O331 C330 1.203 . S
O332 C325 1.185 . S
O332 Zn328 2.086 . S
C333 O329 1.278 . S
C333 O334 1.211 . S
O334 C333 1.211 . S
C335 O327 1.284 . S
C335 O336 1.273 . S
O336 C335 1.273 . S
O337 Zn328 1.977 . S
O337 C330 1.267 . S
C338 O339 1.160 . S
C338 O345 1.185 . S
O339 C338 1.160 . S
O340 Zn341 1.899 . S
O340 C348 1.284 . S
Zn341 O340 1.899 . S
Zn341 O342 2.032 . S
Zn341 O345 2.086 . S
Zn341 O350 1.977 1_556 S
O342 Zn341 2.032 . S
O342 C346 1.278 . S
C343 O344 1.203 . S
C343 O350 1.267 . S
O344 C343 1.203 . S
O345 C338 1.185 . S
O345 Zn341 2.086 . S
C346 O342 1.278 . S
C346 O347 1.159 1_556 S
O347 C346 1.159 1_554 S
C348 O340 1.284 . S
C348 O349 1.273 . S
O349 C348 1.273 . S
O350 Zn341 1.977 1_554 S
O350 C343 1.267 . S
C351 O352 1.160 . S
C351 O358 1.185 . S
O352 C351 1.160 . S
O353 Zn354 1.899 . S
O353 C361 1.284 . S
Zn354 O353 1.899 . S
Zn354 O355 2.032 . S
Zn354 O358 2.086 . S
Zn354 O363 1.977 1_556 S
O355 Zn354 2.032 . S
O355 C359 1.278 . S
C356 O357 1.203 . S
C356 O363 1.267 . S
O357 C356 1.203 . S
O358 C351 1.185 . S
O358 Zn354 2.086 . S
C359 O355 1.278 . S
C359 O360 1.159 1_556 S
O360 C359 1.159 1_554 S
C361 O353 1.284 . S
C361 O362 1.273 . S
O362 C361 1.273 . S
O363 Zn354 1.977 1_554 S
O363 C356 1.267 . S
C364 O365 1.160 . S
C364 O371 1.185 . S
O365 C364 1.160 . S
O366 Zn367 1.899 . S
O366 C374 1.284 . S
Zn367 O366 1.899 . S
Zn367 O368 2.032 . S
Zn367 O371 2.086 . S
Zn367 O376 1.977 . S
O368 Zn367 2.032 . S
O368 C372 1.278 . S
C369 O370 1.203 . S
C369 O376 1.267 . S
O370 C369 1.203 . S
O371 C364 1.185 . S
O371 Zn367 2.086 . S
C372 O368 1.278 . S
C372 O373 1.211 . S
O373 C372 1.211 . S
C374 O366 1.284 . S
C374 O375 1.273 . S
O375 C374 1.273 . S
O376 Zn367 1.977 . S
O376 C369 1.267 . S
C377 O378 1.160 . S
C377 O384 1.185 . S
O378 C377 1.160 . S
O379 Zn380 1.899 . S
O379 C387 1.284 . S
Zn380 O379 1.899 . S
Zn380 O381 2.032 . S
Zn380 O384 2.086 . S
Zn380 O389 1.977 . S
O381 Zn380 2.032 . S
O381 C385 1.278 . S
C382 O383 1.203 . S
C382 O389 1.267 . S
O383 C382 1.203 . S
O384 C377 1.185 . S
O384 Zn380 2.086 . S
C385 O381 1.278 . S
C385 O386 1.211 . S
O386 C385 1.211 . S
C387 O379 1.284 . S
C387 O388 1.273 . S
O388 C387 1.273 . S
O389 Zn380 1.977 . S
O389 C382 1.267 . S
C390 O391 1.160 . S
C390 O397 1.185 . S
O391 C390 1.160 . S
O392 Zn393 1.899 . S
O392 C400 1.284 . S
Zn393 O392 1.899 . S
Zn393 O394 2.032 . S
Zn393 O397 2.086 . S
Zn393 O402 1.977 1_554 S
O394 Zn393 2.032 . S
O394 C398 1.278 . S
C395 O396 1.203 . S
C395 O402 1.267 . S
O396 C395 1.203 . S
O397 C390 1.185 . S
O397 Zn393 2.086 . S
C398 O394 1.278 . S
C398 O399 1.159 1_554 S
O399 C398 1.159 1_556 S
C400 O392 1.284 . S
C400 O401 1.273 . S
O401 C400 1.273 . S
O402 Zn393 1.977 1_556 S
O402 C395 1.267 . S
C403 O404 1.160 . S
C403 O410 1.185 . S
O404 C403 1.160 . S
O405 Zn406 1.899 . S
O405 C413 1.284 . S
Zn406 O405 1.899 . S
Zn406 O407 2.032 . S
Zn406 O410 2.086 . S
Zn406 O415 1.977 1_554 S
O407 Zn406 2.032 . S
O407 C411 1.278 . S
C408 O409 1.203 . S
C408 O415 1.267 . S
O409 C408 1.203 . S
O410 C403 1.185 . S
O410 Zn406 2.086 . S
C411 O407 1.278 . S
C411 O412 1.159 1_554 S
O412 C411 1.159 1_556 S
C413 O405 1.284 . S
C413 O414 1.273 . S
O414 C413 1.273 . S
O415 Zn406 1.977 1_556 S
O415 C408 1.267 . S
H416 C424 0.929 . S
H417 C426 0.930 . S
H418 C428 0.930 . S
H419 C431 0.929 . S
H420 C434 0.930 . S
H421 C436 0.960 . S
H422 C436 0.960 . S
H423 C436 0.960 . S
C424 H416 0.929 . S
C424 C425 1.377 . S
C424 C426 1.384 . S
C425 C424 1.377 . S
C425 C431 1.390 . S
C426 H417 0.930 . S
C426 C424 1.384 . S
C426 C427 1.372 . S
C427 C426 1.372 . S
C427 C428 1.400 . S
C427 C432 1.490 . S
C428 H418 0.930 . S
C428 C427 1.400 . S
C428 C431 1.386 . S
H429 C445 0.930 . S
H430 C446 0.931 . S
C431 H419 0.929 . S
C431 C425 1.390 . S
C431 C428 1.386 . S
C432 C427 1.490 . S
C432 C434 1.395 . S
C432 C435 1.403 . S
H433 C439 0.930 . S
C434 H420 0.930 . S
C434 C432 1.395 . S
C434 C437 1.403 . S
C435 C432 1.403 . S
C435 C436 1.524 . S
C435 C439 1.400 . S
C436 H421 0.960 . S
C436 H422 0.960 . S
C436 H423 0.960 . S
C436 C435 1.524 . S
C437 C434 1.403 . S
C437 C438 1.392 . S
C437 C441 1.495 . S
C438 C437 1.392 . S
C438 C439 1.385 . S
C438 C440 1.478 . S
C439 H433 0.930 . S
C439 C435 1.400 . S
C439 C438 1.385 . S
C440 C438 1.478 . S
C440 C442 1.381 . S
C440 C446 1.383 . S
C441 C437 1.495 . S
C441 H447 0.959 . S
C441 H448 0.961 . S
C441 H449 0.960 . S
C442 C440 1.381 . S
C442 C443 1.394 . S
C442 H450 0.930 . S
C443 C442 1.394 . S
C443 C444 1.383 . S
C443 H451 0.929 . S
C444 C443 1.383 . S
C444 C445 1.377 . S
C445 H429 0.930 . S
C445 C444 1.377 . S
C445 C446 1.379 . S
C446 H430 0.931 . S
C446 C440 1.383 . S
C446 C445 1.379 . S
H447 C441 0.959 . S
H448 C441 0.961 . S
H449 C441 0.960 . S
H450 C442 0.930 . S
H451 C443 0.929 . S
H452 C460 0.929 . S
H453 C462 0.930 . S
H454 C464 0.930 . S
H455 C467 0.929 . S
H456 C470 0.930 . S
H457 C472 0.960 . S
H458 C472 0.960 . S
H459 C472 0.960 . S
C460 H452 0.929 . S
C460 C461 1.377 . S
C460 C462 1.384 . S
C461 C460 1.377 . S
C461 C467 1.390 . S
C462 H453 0.930 . S
C462 C460 1.384 . S
C462 C463 1.372 . S
C463 C462 1.372 . S
C463 C464 1.400 . S
C463 C468 1.490 . S
C464 H454 0.930 . S
C464 C463 1.400 . S
C464 C467 1.386 . S
H465 C481 0.930 . S
H466 C482 0.931 . S
C467 H455 0.929 . S
C467 C461 1.390 . S
C467 C464 1.386 . S
C468 C463 1.490 . S
C468 C470 1.395 . S
C468 C471 1.403 . S
H469 C475 0.930 . S
C470 H456 0.930 . S
C470 C468 1.395 . S
C470 C473 1.403 . S
C471 C468 1.403 . S
C471 C472 1.524 . S
C471 C475 1.400 . S
C472 H457 0.960 . S
C472 H458 0.960 . S
C472 H459 0.960 . S
C472 C471 1.524 . S
C473 C470 1.403 . S
C473 C474 1.392 . S
C473 C477 1.495 . S
C474 C473 1.392 . S
C474 C475 1.385 . S
C474 C476 1.478 . S
C475 H469 0.930 . S
C475 C471 1.400 . S
C475 C474 1.385 . S
C476 C474 1.478 . S
C476 C478 1.381 . S
C476 C482 1.383 . S
C477 C473 1.495 . S
C477 H483 0.959 . S
C477 H484 0.961 . S
C477 H485 0.960 . S
C478 C476 1.381 . S
C478 C479 1.394 . S
C478 H486 0.930 . S
C479 C478 1.394 . S
C479 C480 1.383 . S
C479 H487 0.929 . S
C480 C479 1.383 . S
C480 C481 1.377 . S
C481 H465 0.930 . S
C481 C480 1.377 . S
C481 C482 1.379 . S
C482 H466 0.931 . S
C482 C476 1.383 . S
C482 C481 1.379 . S
H483 C477 0.959 . S
H484 C477 0.961 . S
H485 C477 0.960 . S
H486 C478 0.930 . S
H487 C479 0.929 . S
H488 C496 0.929 . S
H489 C498 0.930 . S
H490 C500 0.930 . S
H491 C503 0.929 . S
H492 C506 0.930 . S
H493 C508 0.960 . S
H494 C508 0.960 . S
H495 C508 0.960 . S
C496 H488 0.929 . S
C496 C497 1.377 . S
C496 C498 1.384 . S
C497 C496 1.377 . S
C497 C503 1.390 . S
C498 H489 0.930 . S
C498 C496 1.384 . S
C498 C499 1.372 . S
C499 C498 1.372 . S
C499 C500 1.400 . S
C499 C504 1.490 . S
C500 H490 0.930 . S
C500 C499 1.400 . S
C500 C503 1.386 . S
H501 C517 0.930 . S
H502 C518 0.931 . S
C503 H491 0.929 . S
C503 C497 1.390 . S
C503 C500 1.386 . S
C504 C499 1.490 . S
C504 C506 1.395 . S
C504 C507 1.403 . S
H505 C511 0.930 . S
C506 H492 0.930 . S
C506 C504 1.395 . S
C506 C509 1.403 . S
C507 C504 1.403 . S
C507 C508 1.524 . S
C507 C511 1.400 . S
C508 H493 0.960 . S
C508 H494 0.960 . S
C508 H495 0.960 . S
C508 C507 1.524 . S
C509 C506 1.403 . S
C509 C510 1.392 . S
C509 C513 1.495 . S
C510 C509 1.392 . S
C510 C511 1.385 . S
C510 C512 1.478 . S
C511 H505 0.930 . S
C511 C507 1.400 . S
C511 C510 1.385 . S
C512 C510 1.478 . S
C512 C514 1.381 . S
C512 C518 1.383 . S
C513 C509 1.495 . S
C513 H519 0.959 . S
C513 H520 0.961 . S
C513 H521 0.960 . S
C514 C512 1.381 . S
C514 C515 1.394 . S
C514 H522 0.930 . S
C515 C514 1.394 . S
C515 C516 1.383 . S
C515 H523 0.929 . S
C516 C515 1.383 . S
C516 C517 1.377 . S
C517 H501 0.930 . S
C517 C516 1.377 . S
C517 C518 1.379 . S
C518 H502 0.931 . S
C518 C512 1.383 . S
C518 C517 1.379 . S
H519 C513 0.959 . S
H520 C513 0.961 . S
H521 C513 0.960 . S
H522 C514 0.930 . S
H523 C515 0.929 . S
H524 C532 0.929 . S
H525 C534 0.930 . S
H526 C536 0.930 . S
H527 C539 0.929 . S
H528 C542 0.930 . S
H529 C544 0.960 . S
H530 C544 0.960 . S
H531 C544 0.960 . S
C532 H524 0.929 . S
C532 C533 1.377 . S
C532 C534 1.384 . S
C533 C532 1.377 . S
C533 C539 1.390 . S
C534 H525 0.930 . S
C534 C532 1.384 . S
C534 C535 1.372 . S
C535 C534 1.372 . S
C535 C536 1.400 . S
C535 C540 1.490 . S
C536 H526 0.930 . S
C536 C535 1.400 . S
C536 C539 1.386 . S
H537 C553 0.930 . S
H538 C554 0.931 . S
C539 H527 0.929 . S
C539 C533 1.390 . S
C539 C536 1.386 . S
C540 C535 1.490 . S
C540 C542 1.395 . S
C540 C543 1.403 . S
H541 C547 0.930 . S
C542 H528 0.930 . S
C542 C540 1.395 . S
C542 C545 1.403 . S
C543 C540 1.403 . S
C543 C544 1.524 . S
C543 C547 1.400 . S
C544 H529 0.960 . S
C544 H530 0.960 . S
C544 H531 0.960 . S
C544 C543 1.524 . S
C545 C542 1.403 . S
C545 C546 1.392 . S
C545 C549 1.495 . S
C546 C545 1.392 . S
C546 C547 1.385 . S
C546 C548 1.478 . S
C547 H541 0.930 . S
C547 C543 1.400 . S
C547 C546 1.385 . S
C548 C546 1.478 . S
C548 C550 1.381 . S
C548 C554 1.383 . S
C549 C545 1.495 . S
C549 H555 0.959 . S
C549 H556 0.961 . S
C549 H557 0.960 . S
C550 C548 1.381 . S
C550 C551 1.394 . S
C550 H558 0.930 . S
C551 C550 1.394 . S
C551 C552 1.383 . S
C551 H559 0.929 . S
C552 C551 1.383 . S
C552 C553 1.377 . S
C553 H537 0.930 . S
C553 C552 1.377 . S
C553 C554 1.379 . S
C554 H538 0.931 . S
C554 C548 1.383 . S
C554 C553 1.379 . S
H555 C549 0.959 . S
H556 C549 0.961 . S
H557 C549 0.960 . S
H558 C550 0.930 . S
H559 C551 0.929 . S
H560 C568 0.929 . S
H561 C570 0.930 . S
H562 C572 0.930 . S
H563 C575 0.929 . S
H564 C578 0.930 . S
H565 C580 0.960 . S
H566 C580 0.960 . S
H567 C580 0.960 . S
C568 H560 0.929 . S
C568 C569 1.377 . S
C568 C570 1.384 . S
C569 C568 1.377 . S
C569 C575 1.390 . S
C570 H561 0.930 . S
C570 C568 1.384 . S
C570 C571 1.372 . S
C571 C570 1.372 . S
C571 C572 1.400 . S
C571 C576 1.490 . S
C572 H562 0.930 . S
C572 C571 1.400 . S
C572 C575 1.386 . S
H573 C589 0.930 . S
H574 C590 0.931 . S
C575 H563 0.929 . S
C575 C569 1.390 . S
C575 C572 1.386 . S
C576 C571 1.490 . S
C576 C578 1.395 . S
C576 C579 1.403 . S
H577 C583 0.930 . S
C578 H564 0.930 . S
C578 C576 1.395 . S
C578 C581 1.403 . S
C579 C576 1.403 . S
C579 C580 1.524 . S
C579 C583 1.400 . S
C580 H565 0.960 . S
C580 H566 0.960 . S
C580 H567 0.960 . S
C580 C579 1.524 . S
C581 C578 1.403 . S
C581 C582 1.392 . S
C581 C585 1.495 . S
C582 C581 1.392 . S
C582 C583 1.385 . S
C582 C584 1.478 . S
C583 H577 0.930 . S
C583 C579 1.400 . S
C583 C582 1.385 . S
C584 C582 1.478 . S
C584 C586 1.381 . S
C584 C590 1.383 . S
C585 C581 1.495 . S
C585 H591 0.959 . S
C585 H592 0.961 . S
C585 H593 0.960 . S
C586 C584 1.381 . S
C586 C587 1.394 . S
C586 H594 0.930 . S
C587 C586 1.394 . S
C587 C588 1.383 . S
C587 H595 0.929 . S
C588 C587 1.383 . S
C588 C589 1.377 . S
C589 H573 0.930 . S
C589 C588 1.377 . S
C589 C590 1.379 . S
C590 H574 0.931 . S
C590 C584 1.383 . S
C590 C589 1.379 . S
H591 C585 0.959 . S
H592 C585 0.961 . S
H593 C585 0.960 . S
H594 C586 0.930 . S
H595 C587 0.929 . S
H596 C604 0.929 . S
H597 C606 0.930 . S
H598 C608 0.930 . S
H599 C611 0.929 . S
H600 C614 0.930 . S
H601 C616 0.960 . S
H602 C616 0.960 . S
H603 C616 0.960 . S
C604 H596 0.929 . S
C604 C605 1.377 . S
C604 C606 1.384 . S
C605 C604 1.377 . S
C605 C611 1.390 . S
C606 H597 0.930 . S
C606 C604 1.384 . S
C606 C607 1.372 . S
C607 C606 1.372 . S
C607 C608 1.400 . S
C607 C612 1.490 . S
C608 H598 0.930 . S
C608 C607 1.400 . S
C608 C611 1.386 . S
H609 C625 0.930 . S
H610 C626 0.931 . S
C611 H599 0.929 . S
C611 C605 1.390 . S
C611 C608 1.386 . S
C612 C607 1.490 . S
C612 C614 1.395 . S
C612 C615 1.403 . S
H613 C619 0.930 . S
C614 H600 0.930 . S
C614 C612 1.395 . S
C614 C617 1.403 . S
C615 C612 1.403 . S
C615 C616 1.524 . S
C615 C619 1.400 . S
C616 H601 0.960 . S
C616 H602 0.960 . S
C616 H603 0.960 . S
C616 C615 1.524 . S
C617 C614 1.403 . S
C617 C618 1.392 . S
C617 C621 1.495 . S
C618 C617 1.392 . S
C618 C619 1.385 . S
C618 C620 1.478 . S
C619 H613 0.930 . S
C619 C615 1.400 . S
C619 C618 1.385 . S
C620 C618 1.478 . S
C620 C622 1.381 . S
C620 C626 1.383 . S
C621 C617 1.495 . S
C621 H627 0.959 . S
C621 H628 0.961 . S
C621 H629 0.960 . S
C622 C620 1.381 . S
C622 C623 1.394 . S
C622 H630 0.930 . S
C623 C622 1.394 . S
C623 C624 1.383 . S
C623 H631 0.929 . S
C624 C623 1.383 . S
C624 C625 1.377 . S
C625 H609 0.930 . S
C625 C624 1.377 . S
C625 C626 1.379 . S
C626 H610 0.931 . S
C626 C620 1.383 . S
C626 C625 1.379 . S
H627 C621 0.959 . S
H628 C621 0.961 . S
H629 C621 0.960 . S
H630 C622 0.930 . S
H631 C623 0.929 . S
H632 C640 0.929 . S
H633 C642 0.930 . S
H634 C644 0.930 . S
H635 C647 0.929 . S
H636 C650 0.930 . S
H637 C652 0.960 . S
H638 C652 0.960 . S
H639 C652 0.960 . S
C640 H632 0.929 . S
C640 C641 1.377 . S
C640 C642 1.384 . S
C641 C640 1.377 . S
C641 C647 1.390 . S
C642 H633 0.930 . S
C642 C640 1.384 . S
C642 C643 1.372 . S
C643 C642 1.372 . S
C643 C644 1.400 . S
C643 C648 1.490 . S
C644 H634 0.930 . S
C644 C643 1.400 . S
C644 C647 1.386 . S
H645 C661 0.930 . S
H646 C662 0.931 . S
C647 H635 0.929 . S
C647 C641 1.390 . S
C647 C644 1.386 . S
C648 C643 1.490 . S
C648 C650 1.395 . S
C648 C651 1.403 . S
H649 C655 0.930 . S
C650 H636 0.930 . S
C650 C648 1.395 . S
C650 C653 1.403 . S
C651 C648 1.403 . S
C651 C652 1.524 . S
C651 C655 1.400 . S
C652 H637 0.960 . S
C652 H638 0.960 . S
C652 H639 0.960 . S
C652 C651 1.524 . S
C653 C650 1.403 . S
C653 C654 1.392 . S
C653 C657 1.495 . S
C654 C653 1.392 . S
C654 C655 1.385 . S
C654 C656 1.478 . S
C655 H649 0.930 . S
C655 C651 1.400 . S
C655 C654 1.385 . S
C656 C654 1.478 . S
C656 C658 1.381 . S
C656 C662 1.383 . S
C657 C653 1.495 . S
C657 H663 0.959 . S
C657 H664 0.961 . S
C657 H665 0.960 . S
C658 C656 1.381 . S
C658 C659 1.394 . S
C658 H666 0.930 . S
C659 C658 1.394 . S
C659 C660 1.383 . S
C659 H667 0.929 . S
C660 C659 1.383 . S
C660 C661 1.377 . S
C661 H645 0.930 . S
C661 C660 1.377 . S
C661 C662 1.379 . S
C662 H646 0.931 . S
C662 C656 1.383 . S
C662 C661 1.379 . S
H663 C657 0.959 . S
H664 C657 0.961 . S
H665 C657 0.960 . S
H666 C658 0.930 . S
H667 C659 0.929 . S
H668 C676 0.929 . S
H669 C678 0.930 . S
H670 C680 0.930 . S
H671 C683 0.929 . S
H672 C686 0.930 . S
H673 C688 0.960 . S
H674 C688 0.960 . S
H675 C688 0.960 . S
C676 H668 0.929 . S
C676 C677 1.377 . S
C676 C678 1.384 . S
C677 C676 1.377 . S
C677 C683 1.390 . S
C678 H669 0.930 . S
C678 C676 1.384 . S
C678 C679 1.372 . S
C679 C678 1.372 . S
C679 C680 1.400 . S
C679 C684 1.490 . S
C680 H670 0.930 . S
C680 C679 1.400 . S
C680 C683 1.386 . S
H681 C697 0.930 . S
H682 C698 0.931 . S
C683 H671 0.929 . S
C683 C677 1.390 . S
C683 C680 1.386 . S
C684 C679 1.490 . S
C684 C686 1.395 . S
C684 C687 1.403 . S
H685 C691 0.930 . S
C686 H672 0.930 . S
C686 C684 1.395 . S
C686 C689 1.403 . S
C687 C684 1.403 . S
C687 C688 1.524 . S
C687 C691 1.400 . S
C688 H673 0.960 . S
C688 H674 0.960 . S
C688 H675 0.960 . S
C688 C687 1.524 . S
C689 C686 1.403 . S
C689 C690 1.392 . S
C689 C693 1.495 . S
C690 C689 1.392 . S
C690 C691 1.385 . S
C690 C692 1.478 . S
C691 H685 0.930 . S
C691 C687 1.400 . S
C691 C690 1.385 . S
C692 C690 1.478 . S
C692 C694 1.381 . S
C692 C698 1.383 . S
C693 C689 1.495 . S
C693 H699 0.959 . S
C693 H700 0.961 . S
C693 H701 0.960 . S
C694 C692 1.381 . S
C694 C695 1.394 . S
C694 H702 0.930 . S
C695 C694 1.394 . S
C695 C696 1.383 . S
C695 H703 0.929 . S
C696 C695 1.383 . S
C696 C697 1.377 . S
C697 H681 0.930 . S
C697 C696 1.377 . S
C697 C698 1.379 . S
C698 H682 0.931 . S
C698 C692 1.383 . S
C698 C697 1.379 . S
H699 C693 0.959 . S
H700 C693 0.961 . S
H701 C693 0.960 . S
H702 C694 0.930 . S
H703 C695 0.929 . S
H704 C712 0.929 . S
H705 C714 0.930 . S
H706 C716 0.930 . S
H707 C719 0.929 . S
H708 C722 0.930 . S
H709 C724 0.960 . S
H710 C724 0.960 . S
H711 C724 0.960 . S
C712 H704 0.929 . S
C712 C713 1.377 . S
C712 C714 1.384 . S
C713 C712 1.377 . S
C713 C719 1.390 . S
C714 H705 0.930 . S
C714 C712 1.384 . S
C714 C715 1.372 . S
C715 C714 1.372 . S
C715 C716 1.400 . S
C715 C720 1.490 . S
C716 H706 0.930 . S
C716 C715 1.400 . S
C716 C719 1.386 . S
H717 C733 0.930 . S
H718 C734 0.931 . S
C719 H707 0.929 . S
C719 C713 1.390 . S
C719 C716 1.386 . S
C720 C715 1.490 . S
C720 C722 1.395 . S
C720 C723 1.403 . S
H721 C727 0.930 . S
C722 H708 0.930 . S
C722 C720 1.395 . S
C722 C725 1.403 . S
C723 C720 1.403 . S
C723 C724 1.524 . S
C723 C727 1.400 . S
C724 H709 0.960 . S
C724 H710 0.960 . S
C724 H711 0.960 . S
C724 C723 1.524 . S
C725 C722 1.403 . S
C725 C726 1.392 . S
C725 C729 1.495 . S
C726 C725 1.392 . S
C726 C727 1.385 . S
C726 C728 1.478 . S
C727 H721 0.930 . S
C727 C723 1.400 . S
C727 C726 1.385 . S
C728 C726 1.478 . S
C728 C730 1.381 . S
C728 C734 1.383 . S
C729 C725 1.495 . S
C729 H735 0.959 . S
C729 H736 0.961 . S
C729 H737 0.960 . S
C730 C728 1.381 . S
C730 C731 1.394 . S
C730 H738 0.930 . S
C731 C730 1.394 . S
C731 C732 1.383 . S
C731 H739 0.929 . S
C732 C731 1.383 . S
C732 C733 1.377 . S
C733 H717 0.930 . S
C733 C732 1.377 . S
C733 C734 1.379 . S
C734 H718 0.931 . S
C734 C728 1.383 . S
C734 C733 1.379 . S
H735 C729 0.959 . S
H736 C729 0.961 . S
H737 C729 0.960 . S
H738 C730 0.930 . S
H739 C731 0.929 . S
H740 C748 0.929 . S
H741 C750 0.930 . S
H742 C752 0.930 . S
H743 C755 0.929 . S
H744 C758 0.930 . S
H745 C760 0.960 . S
H746 C760 0.960 . S
H747 C760 0.960 . S
C748 H740 0.929 . S
C748 C749 1.377 . S
C748 C750 1.384 . S
C749 C748 1.377 . S
C749 C755 1.390 . S
C750 H741 0.930 . S
C750 C748 1.384 . S
C750 C751 1.372 . S
C751 C750 1.372 . S
C751 C752 1.400 . S
C751 C756 1.490 . S
C752 H742 0.930 . S
C752 C751 1.400 . S
C752 C755 1.386 . S
H753 C769 0.930 . S
H754 C770 0.931 . S
C755 H743 0.929 . S
C755 C749 1.390 . S
C755 C752 1.386 . S
C756 C751 1.490 . S
C756 C758 1.395 . S
C756 C759 1.403 . S
H757 C763 0.930 . S
C758 H744 0.930 . S
C758 C756 1.395 . S
C758 C761 1.403 . S
C759 C756 1.403 . S
C759 C760 1.524 . S
C759 C763 1.400 . S
C760 H745 0.960 . S
C760 H746 0.960 . S
C760 H747 0.960 . S
C760 C759 1.524 . S
C761 C758 1.403 . S
C761 C762 1.392 . S
C761 C765 1.495 . S
C762 C761 1.392 . S
C762 C763 1.385 . S
C762 C764 1.478 . S
C763 H757 0.930 . S
C763 C759 1.400 . S
C763 C762 1.385 . S
C764 C762 1.478 . S
C764 C766 1.381 . S
C764 C770 1.383 . S
C765 C761 1.495 . S
C765 H771 0.959 . S
C765 H772 0.961 . S
C765 H773 0.960 . S
C766 C764 1.381 . S
C766 C767 1.394 . S
C766 H774 0.930 . S
C767 C766 1.394 . S
C767 C768 1.383 . S
C767 H775 0.929 . S
C768 C767 1.383 . S
C768 C769 1.377 . S
C769 H753 0.930 . S
C769 C768 1.377 . S
C769 C770 1.379 . S
C770 H754 0.931 . S
C770 C764 1.383 . S
C770 C769 1.379 . S
H771 C765 0.959 . S
H772 C765 0.961 . S
H773 C765 0.960 . S
H774 C766 0.930 . S
H775 C767 0.929 . S
H776 C784 0.929 . S
H777 C786 0.930 . S
H778 C788 0.930 . S
H779 C791 0.929 . S
H780 C794 0.930 . S
H781 C796 0.960 . S
H782 C796 0.960 . S
H783 C796 0.960 . S
C784 H776 0.929 . S
C784 C785 1.377 . S
C784 C786 1.384 . S
C785 C784 1.377 . S
C785 C791 1.390 . S
C786 H777 0.930 . S
C786 C784 1.384 . S
C786 C787 1.372 . S
C787 C786 1.372 . S
C787 C788 1.400 . S
C787 C792 1.490 . S
C788 H778 0.930 . S
C788 C787 1.400 . S
C788 C791 1.386 . S
H789 C805 0.930 . S
H790 C806 0.931 . S
C791 H779 0.929 . S
C791 C785 1.390 . S
C791 C788 1.386 . S
C792 C787 1.490 . S
C792 C794 1.395 . S
C792 C795 1.403 . S
H793 C799 0.930 . S
C794 H780 0.930 . S
C794 C792 1.395 . S
C794 C797 1.403 . S
C795 C792 1.403 . S
C795 C796 1.524 . S
C795 C799 1.400 . S
C796 H781 0.960 . S
C796 H782 0.960 . S
C796 H783 0.960 . S
C796 C795 1.524 . S
C797 C794 1.403 . S
C797 C798 1.392 . S
C797 C801 1.495 . S
C798 C797 1.392 . S
C798 C799 1.385 . S
C798 C800 1.478 . S
C799 H793 0.930 . S
C799 C795 1.400 . S
C799 C798 1.385 . S
C800 C798 1.478 . S
C800 C802 1.381 . S
C800 C806 1.383 . S
C801 C797 1.495 . S
C801 H807 0.959 . S
C801 H808 0.961 . S
C801 H809 0.960 . S
C802 C800 1.381 . S
C802 C803 1.394 . S
C802 H810 0.930 . S
C803 C802 1.394 . S
C803 C804 1.383 . S
C803 H811 0.929 . S
C804 C803 1.383 . S
C804 C805 1.377 . S
C805 H789 0.930 . S
C805 C804 1.377 . S
C805 C806 1.379 . S
C806 H790 0.931 . S
C806 C800 1.383 . S
C806 C805 1.379 . S
H807 C801 0.959 . S
H808 C801 0.961 . S
H809 C801 0.960 . S
H810 C802 0.930 . S
H811 C803 0.929 . S
H812 C820 0.929 . S
H813 C822 0.930 . S
H814 C824 0.930 . S
H815 C827 0.929 . S
H816 C830 0.930 . S
H817 C832 0.960 . S
H818 C832 0.960 . S
H819 C832 0.960 . S
C820 H812 0.929 . S
C820 C821 1.377 . S
C820 C822 1.384 . S
C821 C820 1.377 . S
C821 C827 1.390 . S
C822 H813 0.930 . S
C822 C820 1.384 . S
C822 C823 1.372 . S
C823 C822 1.372 . S
C823 C824 1.400 . S
C823 C828 1.490 . S
C824 H814 0.930 . S
C824 C823 1.400 . S
C824 C827 1.386 . S
H825 C841 0.930 . S
H826 C842 0.931 . S
C827 H815 0.929 . S
C827 C821 1.390 . S
C827 C824 1.386 . S
C828 C823 1.490 . S
C828 C830 1.395 . S
C828 C831 1.403 . S
H829 C835 0.930 . S
C830 H816 0.930 . S
C830 C828 1.395 . S
C830 C833 1.403 . S
C831 C828 1.403 . S
C831 C832 1.524 . S
C831 C835 1.400 . S
C832 H817 0.960 . S
C832 H818 0.960 . S
C832 H819 0.960 . S
C832 C831 1.524 . S
C833 C830 1.403 . S
C833 C834 1.392 . S
C833 C837 1.495 . S
C834 C833 1.392 . S
C834 C835 1.385 . S
C834 C836 1.478 . S
C835 H829 0.930 . S
C835 C831 1.400 . S
C835 C834 1.385 . S
C836 C834 1.478 . S
C836 C838 1.381 . S
C836 C842 1.383 . S
C837 C833 1.495 . S
C837 H843 0.959 . S
C837 H844 0.961 . S
C837 H845 0.960 . S
C838 C836 1.381 . S
C838 C839 1.394 . S
C838 H846 0.930 . S
C839 C838 1.394 . S
C839 C840 1.383 . S
C839 H847 0.929 . S
C840 C839 1.383 . S
C840 C841 1.377 . S
C841 H825 0.930 . S
C841 C840 1.377 . S
C841 C842 1.379 . S
C842 H826 0.931 . S
C842 C836 1.383 . S
C842 C841 1.379 . S
H843 C837 0.959 . S
H844 C837 0.961 . S
H845 C837 0.960 . S
H846 C838 0.930 . S
H847 C839 0.929 . S
H848 C856 0.929 . S
H849 C858 0.930 . S
H850 C860 0.930 . S
H851 C863 0.929 . S
H852 C866 0.930 . S
H853 C868 0.960 . S
H854 C868 0.960 . S
H855 C868 0.960 . S
C856 H848 0.929 . S
C856 C857 1.377 . S
C856 C858 1.384 . S
C857 C856 1.377 . S
C857 C863 1.390 . S
C858 H849 0.930 . S
C858 C856 1.384 . S
C858 C859 1.372 . S
C859 C858 1.372 . S
C859 C860 1.400 . S
C859 C864 1.490 . S
C860 H850 0.930 . S
C860 C859 1.400 . S
C860 C863 1.386 . S
H861 C877 0.930 . S
H862 C878 0.931 . S
C863 H851 0.929 . S
C863 C857 1.390 . S
C863 C860 1.386 . S
C864 C859 1.490 . S
C864 C866 1.395 . S
C864 C867 1.403 . S
H865 C871 0.930 . S
C866 H852 0.930 . S
C866 C864 1.395 . S
C866 C869 1.403 . S
C867 C864 1.403 . S
C867 C868 1.524 . S
C867 C871 1.400 . S
C868 H853 0.960 . S
C868 H854 0.960 . S
C868 H855 0.960 . S
C868 C867 1.524 . S
C869 C866 1.403 . S
C869 C870 1.392 . S
C869 C873 1.495 . S
C870 C869 1.392 . S
C870 C871 1.385 . S
C870 C872 1.478 . S
C871 H865 0.930 . S
C871 C867 1.400 . S
C871 C870 1.385 . S
C872 C870 1.478 . S
C872 C874 1.381 . S
C872 C878 1.383 . S
C873 C869 1.495 . S
C873 H879 0.959 . S
C873 H880 0.961 . S
C873 H881 0.960 . S
C874 C872 1.381 . S
C874 C875 1.394 . S
C874 H882 0.930 . S
C875 C874 1.394 . S
C875 C876 1.383 . S
C875 H883 0.929 . S
C876 C875 1.383 . S
C876 C877 1.377 . S
C877 H861 0.930 . S
C877 C876 1.377 . S
C877 C878 1.379 . S
C878 H862 0.931 . S
C878 C872 1.383 . S
C878 C877 1.379 . S
H879 C873 0.959 . S
H880 C873 0.961 . S
H881 C873 0.960 . S
H882 C874 0.930 . S
H883 C875 0.929 . S
H884 C892 0.929 . S
H885 C894 0.930 . S
H886 C896 0.930 . S
H887 C899 0.929 . S
H888 C902 0.930 . S
H889 C904 0.960 . S
H890 C904 0.960 . S
H891 C904 0.960 . S
C892 H884 0.929 . S
C892 C893 1.377 . S
C892 C894 1.384 . S
C893 C892 1.377 . S
C893 C899 1.390 . S
C894 H885 0.930 . S
C894 C892 1.384 . S
C894 C895 1.372 . S
C895 C894 1.372 . S
C895 C896 1.400 . S
C895 C900 1.490 . S
C896 H886 0.930 . S
C896 C895 1.400 . S
C896 C899 1.386 . S
H897 C913 0.930 . S
H898 C914 0.931 . S
C899 H887 0.929 . S
C899 C893 1.390 . S
C899 C896 1.386 . S
C900 C895 1.490 . S
C900 C902 1.395 . S
C900 C903 1.403 . S
H901 C907 0.930 . S
C902 H888 0.930 . S
C902 C900 1.395 . S
C902 C905 1.403 . S
C903 C900 1.403 . S
C903 C904 1.524 . S
C903 C907 1.400 . S
C904 H889 0.960 . S
C904 H890 0.960 . S
C904 H891 0.960 . S
C904 C903 1.524 . S
C905 C902 1.403 . S
C905 C906 1.392 . S
C905 C909 1.495 . S
C906 C905 1.392 . S
C906 C907 1.385 . S
C906 C908 1.478 . S
C907 H901 0.930 . S
C907 C903 1.400 . S
C907 C906 1.385 . S
C908 C906 1.478 . S
C908 C910 1.381 . S
C908 C914 1.383 . S
C909 C905 1.495 . S
C909 H915 0.959 . S
C909 H916 0.961 . S
C909 H917 0.960 . S
C910 C908 1.381 . S
C910 C911 1.394 . S
C910 H918 0.930 . S
C911 C910 1.394 . S
C911 C912 1.383 . S
C911 H919 0.929 . S
C912 C911 1.383 . S
C912 C913 1.377 . S
C913 H897 0.930 . S
C913 C912 1.377 . S
C913 C914 1.379 . S
C914 H898 0.931 . S
C914 C908 1.383 . S
C914 C913 1.379 . S
H915 C909 0.959 . S
H916 C909 0.961 . S
H917 C909 0.960 . S
H918 C910 0.930 . S
H919 C911 0.929 . S
H920 C928 0.929 . S
H921 C930 0.930 . S
H922 C932 0.930 . S
H923 C935 0.929 . S
H924 C938 0.930 . S
H925 C940 0.960 . S
H926 C940 0.960 . S
H927 C940 0.960 . S
C928 H920 0.929 . S
C928 C929 1.377 . S
C928 C930 1.384 . S
C929 C928 1.377 . S
C929 C935 1.390 . S
C930 H921 0.930 . S
C930 C928 1.384 . S
C930 C931 1.372 . S
C931 C930 1.372 . S
C931 C932 1.400 . S
C931 C936 1.490 . S
C932 H922 0.930 . S
C932 C931 1.400 . S
C932 C935 1.386 . S
H933 C949 0.930 . S
H934 C950 0.931 . S
C935 H923 0.929 . S
C935 C929 1.390 . S
C935 C932 1.386 . S
C936 C931 1.490 . S
C936 C938 1.395 . S
C936 C939 1.403 . S
H937 C943 0.930 . S
C938 H924 0.930 . S
C938 C936 1.395 . S
C938 C941 1.403 . S
C939 C936 1.403 . S
C939 C940 1.524 . S
C939 C943 1.400 . S
C940 H925 0.960 . S
C940 H926 0.960 . S
C940 H927 0.960 . S
C940 C939 1.524 . S
C941 C938 1.403 . S
C941 C942 1.392 . S
C941 C945 1.495 . S
C942 C941 1.392 . S
C942 C943 1.385 . S
C942 C944 1.478 . S
C943 H937 0.930 . S
C943 C939 1.400 . S
C943 C942 1.385 . S
C944 C942 1.478 . S
C944 C946 1.381 . S
C944 C950 1.383 . S
C945 C941 1.495 . S
C945 H951 0.959 . S
C945 H952 0.961 . S
C945 H953 0.960 . S
C946 C944 1.381 . S
C946 C947 1.394 . S
C946 H954 0.930 . S
C947 C946 1.394 . S
C947 C948 1.383 . S
C947 H955 0.929 . S
C948 C947 1.383 . S
C948 C949 1.377 . S
C949 H933 0.930 . S
C949 C948 1.377 . S
C949 C950 1.379 . S
C950 H934 0.931 . S
C950 C944 1.383 . S
C950 C949 1.379 . S
H951 C945 0.959 . S
H952 C945 0.961 . S
H953 C945 0.960 . S
H954 C946 0.930 . S
H955 C947 0.929 . S
H956 C964 0.929 . S
H957 C966 0.930 . S
H958 C968 0.930 . S
H959 C971 0.929 . S
H960 C974 0.930 . S
H961 C976 0.960 . S
H962 C976 0.960 . S
H963 C976 0.960 . S
C964 H956 0.929 . S
C964 C965 1.377 . S
C964 C966 1.384 . S
C965 C964 1.377 . S
C965 C971 1.390 . S
C966 H957 0.930 . S
C966 C964 1.384 . S
C966 C967 1.372 . S
C967 C966 1.372 . S
C967 C968 1.400 . S
C967 C972 1.490 . S
C968 H958 0.930 . S
C968 C967 1.400 . S
C968 C971 1.386 . S
H969 C985 0.930 . S
H970 C986 0.931 . S
C971 H959 0.929 . S
C971 C965 1.390 . S
C971 C968 1.386 . S
C972 C967 1.490 . S
C972 C974 1.395 . S
C972 C975 1.403 . S
H973 C979 0.930 . S
C974 H960 0.930 . S
C974 C972 1.395 . S
C974 C977 1.403 . S
C975 C972 1.403 . S
C975 C976 1.524 . S
C975 C979 1.400 . S
C976 H961 0.960 . S
C976 H962 0.960 . S
C976 H963 0.960 . S
C976 C975 1.524 . S
C977 C974 1.403 . S
C977 C978 1.392 . S
C977 C981 1.495 . S
C978 C977 1.392 . S
C978 C979 1.385 . S
C978 C980 1.478 . S
C979 H973 0.930 . S
C979 C975 1.400 . S
C979 C978 1.385 . S
C980 C978 1.478 . S
C980 C982 1.381 . S
C980 C986 1.383 . S
C981 C977 1.495 . S
C981 H987 0.959 . S
C981 H988 0.961 . S
C981 H989 0.960 . S
C982 C980 1.381 . S
C982 C983 1.394 . S
C982 H990 0.930 . S
C983 C982 1.394 . S
C983 C984 1.383 . S
C983 H991 0.929 . S
C984 C983 1.383 . S
C984 C985 1.377 . S
C985 H969 0.930 . S
C985 C984 1.377 . S
C985 C986 1.379 . S
C986 H970 0.931 . S
C986 C980 1.383 . S
C986 C985 1.379 . S
H987 C981 0.959 . S
H988 C981 0.961 . S
H989 C981 0.960 . S
H990 C982 0.930 . S
H991 C983 0.929 . S
H992 C1000 0.929 . S
H993 C1002 0.930 . S
H994 C1004 0.930 . S
H995 C1007 0.929 . S
H996 C1010 0.930 . S
H997 C1012 0.960 . S
H998 C1012 0.960 . S
H999 C1012 0.960 1_565 S
C1000 H992 0.929 . S
C1000 C1001 1.377 . S
C1000 C1002 1.384 . S
C1001 C1000 1.377 . S
C1001 C1007 1.390 . S
C1002 H993 0.930 . S
C1002 C1000 1.384 . S
C1002 C1003 1.372 . S
C1003 C1002 1.372 . S
C1003 C1004 1.400 . S
C1003 C1008 1.490 . S
C1004 H994 0.930 . S
C1004 C1003 1.400 . S
C1004 C1007 1.386 . S
H1005 C1021 0.930 . S
H1006 C1022 0.931 . S
C1007 H995 0.929 . S
C1007 C1001 1.390 . S
C1007 C1004 1.386 . S
C1008 C1003 1.490 . S
C1008 C1010 1.395 . S
C1008 C1011 1.327 1_565 S
H1009 C1015 0.930 . S
C1010 H996 0.930 . S
C1010 C1008 1.395 . S
C1010 C1013 1.403 . S
C1011 C1008 1.327 1_545 S
C1011 C1012 1.540 . S
C1011 C1015 1.465 . S
C1012 H997 0.960 . S
C1012 H998 0.960 . S
C1012 H999 0.960 1_545 S
C1012 C1011 1.540 . S
C1013 C1010 1.403 . S
C1013 C1014 1.392 1_565 S
C1013 C1017 1.495 . S
C1014 C1013 1.392 1_545 S
C1014 C1015 1.385 . S
C1014 C1016 1.478 . S
C1015 H1009 0.930 . S
C1015 C1011 1.465 . S
C1015 C1014 1.385 . S
C1016 C1014 1.478 . S
C1016 C1018 1.381 . S
C1016 C1022 1.383 . S
C1017 C1013 1.495 . S
C1017 H1023 0.959 . S
C1017 H1024 0.961 . S
C1017 H1025 0.960 1_565 S
C1018 C1016 1.381 . S
C1018 C1019 1.394 . S
C1018 H1026 0.930 . S
C1019 C1018 1.394 . S
C1019 C1020 1.383 . S
C1019 H1027 0.929 . S
C1020 C1019 1.383 . S
C1020 C1021 1.377 . S
C1021 H1005 0.930 . S
C1021 C1020 1.377 . S
C1021 C1022 1.379 . S
C1022 H1006 0.931 . S
C1022 C1016 1.383 . S
C1022 C1021 1.379 . S
H1023 C1017 0.959 . S
H1024 C1017 0.961 . S
H1025 C1017 0.960 1_545 S
H1026 C1018 0.930 . S
H1027 C1019 0.929 . S
H1028 C1036 0.929 . S
H1029 C1038 0.930 . S
H1030 C1040 0.959 . S
H1031 C1043 0.929 . S
H1032 C1046 0.930 . S
H1033 C1048 0.960 . S
H1034 C1048 0.960 1_655 S
H1035 C1048 0.960 . S
C1036 H1028 0.929 . S
C1036 C1037 1.377 . S
C1036 C1038 1.384 . S
C1037 C1036 1.377 . S
C1037 C1043 1.390 . S
C1038 H1029 0.930 . S
C1038 C1036 1.384 . S
C1038 C1039 1.372 . S
C1039 C1038 1.372 . S
C1039 C1040 1.400 . S
C1039 C1044 1.490 . S
C1040 H1030 0.959 . S
C1040 C1039 1.400 . S
C1040 C1043 1.386 . S
H1041 C1057 0.930 . S
H1042 C1058 0.931 . S
C1043 H1031 0.929 . S
C1043 C1037 1.390 . S
C1043 C1040 1.386 . S
C1044 C1039 1.490 . S
C1044 C1046 1.395 . S
C1044 C1047 1.403 1_655 S
H1045 C1051 0.930 . S
C1046 H1032 0.930 . S
C1046 C1044 1.395 . S
C1046 C1049 1.403 . S
C1047 C1044 1.403 1_455 S
C1047 C1048 1.524 . S
C1047 C1051 1.400 . S
C1048 H1033 0.960 . S
C1048 H1034 0.960 1_455 S
C1048 H1035 0.960 . S
C1048 C1047 1.524 . S
C1049 C1046 1.403 . S
C1049 C1050 1.392 1_655 S
C1049 C1053 1.495 . S
C1050 C1049 1.392 1_455 S
C1050 C1051 1.385 . S
C1050 C1052 1.478 . S
C1051 H1045 0.930 . S
C1051 C1047 1.400 . S
C1051 C1050 1.385 . S
C1052 C1050 1.478 . S
C1052 C1054 1.381 . S
C1052 C1058 1.383 . S
C1053 C1049 1.495 . S
C1053 H1059 0.959 . S
C1053 H1060 0.961 . S
C1053 H1061 0.960 . S
C1054 C1052 1.381 . S
C1054 C1055 1.394 . S
C1054 H1062 0.930 1_455 S
C1055 C1054 1.394 . S
C1055 C1056 1.383 . S
C1055 H1063 0.929 . S
C1056 C1055 1.383 . S
C1056 C1057 1.377 . S
C1057 H1041 0.930 . S
C1057 C1056 1.377 . S
C1057 C1058 1.379 . S
C1058 H1042 0.931 . S
C1058 C1052 1.383 . S
C1058 C1057 1.379 . S
H1059 C1053 0.959 . S
H1060 C1053 0.961 . S
H1061 C1053 0.960 . S
H1062 C1054 0.930 1_655 S
H1063 C1055 0.929 . S
H1064 C1072 0.929 . S
H1065 C1074 0.930 . S
H1066 C1076 0.930 . S
H1067 C1079 0.929 . S
H1068 C1082 0.930 . S
H1069 C1084 0.960 . S
H1070 C1084 0.960 . S
H1071 C1084 0.960 . S
C1072 H1064 0.929 . S
C1072 C1073 1.377 . S
C1072 C1074 1.384 . S
C1073 C1072 1.377 . S
C1073 C1079 1.390 . S
C1074 H1065 0.930 . S
C1074 C1072 1.384 . S
C1074 C1075 1.372 . S
C1075 C1074 1.372 . S
C1075 C1076 1.400 . S
C1075 C1080 1.490 . S
C1076 H1066 0.930 . S
C1076 C1075 1.400 . S
C1076 C1079 1.386 . S
H1077 C1093 0.930 . S
H1078 C1094 0.931 . S
C1079 H1067 0.929 . S
C1079 C1073 1.390 . S
C1079 C1076 1.386 . S
C1080 C1075 1.490 . S
C1080 C1082 1.395 1_556 S
C1080 C1083 1.403 . S
H1081 C1087 0.930 . S
C1082 H1068 0.930 . S
C1082 C1080 1.395 1_554 S
C1082 C1085 1.403 . S
C1083 C1080 1.403 . S
C1083 C1084 1.524 . S
C1083 C1087 1.400 . S
C1084 H1069 0.960 . S
C1084 H1070 0.960 . S
C1084 H1071 0.960 . S
C1084 C1083 1.524 . S
C1085 C1082 1.403 . S
C1085 C1086 1.392 . S
C1085 C1089 1.495 . S
C1086 C1085 1.392 . S
C1086 C1087 1.385 1_554 S
C1086 C1088 1.478 . S
C1087 H1081 0.930 . S
C1087 C1083 1.400 . S
C1087 C1086 1.385 1_556 S
C1088 C1086 1.478 . S
C1088 C1090 1.381 . S
C1088 C1094 1.383 . S
C1089 C1085 1.495 . S
C1089 H1095 0.959 . S
C1089 H1096 0.961 . S
C1089 H1097 0.960 . S
C1090 C1088 1.381 . S
C1090 C1091 1.394 . S
C1090 H1098 0.930 . S
C1091 C1090 1.394 . S
C1091 C1092 1.383 . S
C1091 H1099 0.929 . S
C1092 C1091 1.383 . S
C1092 C1093 1.377 . S
C1093 H1077 0.930 . S
C1093 C1092 1.377 . S
C1093 C1094 1.379 . S
C1094 H1078 0.931 . S
C1094 C1088 1.383 . S
C1094 C1093 1.379 . S
H1095 C1089 0.959 . S
H1096 C1089 0.961 . S
H1097 C1089 0.960 . S
H1098 C1090 0.930 . S
H1099 C1091 0.929 . S
H1100 C1108 0.929 . S
H1101 C1110 0.921 1_655 S
H1102 C1112 0.930 . S
H1103 C1115 0.929 . S
H1104 C1118 0.930 . S
H1105 C1120 0.960 . S
H1106 C1120 0.960 . S
H1107 C1120 0.960 . S
C1108 H1100 0.929 . S
C1108 C1109 1.377 . S
C1108 C1110 1.384 . S
C1109 C1108 1.377 . S
C1109 C1115 1.390 . S
C1110 H1101 0.921 1_455 S
C1110 C1108 1.384 . S
C1110 C1111 1.372 . S
C1111 C1110 1.372 . S
C1111 C1112 1.400 . S
C1111 C1116 1.490 . S
C1112 H1102 0.930 . S
C1112 C1111 1.400 . S
C1112 C1115 1.386 . S
H1113 C1129 0.930 . S
H1114 C1130 0.931 . S
C1115 H1103 0.929 . S
C1115 C1109 1.390 . S
C1115 C1112 1.386 . S
C1116 C1111 1.490 . S
C1116 C1118 1.395 1_455 S
C1116 C1119 1.403 1_556 S
H1117 C1123 0.930 . S
C1118 H1104 0.930 . S
C1118 C1116 1.395 1_655 S
C1118 C1121 1.403 1_545 S
C1119 C1116 1.403 1_554 S
C1119 C1120 1.524 . S
C1119 C1123 1.400 1_545 S
C1120 H1105 0.960 . S
C1120 H1106 0.960 . S
C1120 H1107 0.960 . S
C1120 C1119 1.524 . S
C1121 C1118 1.403 1_565 S
C1121 C1122 1.392 1_556 S
C1121 C1125 1.495 . S
C1122 C1121 1.392 1_554 S
C1122 C1123 1.385 1_655 S
C1122 C1124 1.478 . S
C1123 H1117 0.930 . S
C1123 C1119 1.400 1_565 S
C1123 C1122 1.385 1_455 S
C1124 C1122 1.478 . S
C1124 C1126 1.381 . S
C1124 C1130 1.383 . S
C1125 C1121 1.495 . S
C1125 H1131 0.995 . S
C1125 H1132 0.961 . S
C1125 H1133 0.960 . S
C1126 C1124 1.381 . S
C1126 C1127 1.394 . S
C1126 H1134 0.930 . S
C1127 C1126 1.394 . S
C1127 C1128 1.383 . S
C1127 H1135 0.929 . S
C1128 C1127 1.383 . S
C1128 C1129 1.377 . S
C1129 H1113 0.930 . S
C1129 C1128 1.377 . S
C1129 C1130 1.379 . S
C1130 H1114 0.931 . S
C1130 C1124 1.383 . S
C1130 C1129 1.379 . S
H1131 C1125 0.995 . S
H1132 C1125 0.961 . S
H1133 C1125 0.960 . S
H1134 C1126 0.930 . S
H1135 C1127 0.929 . S
H1136 C1144 0.929 . S
H1137 C1146 0.930 . S
H1138 C1148 0.930 . S
H1139 C1151 0.929 . S
H1140 C1154 0.930 . S
H1141 C1156 1.047 . S
H1142 C1156 0.897 1_545 S
H1143 C1156 0.951 1_545 S
C1144 H1136 0.929 . S
C1144 C1145 1.377 . S
C1144 C1146 1.384 . S
C1145 C1144 1.377 . S
C1145 C1151 1.390 . S
C1146 H1137 0.930 . S
C1146 C1144 1.384 . S
C1146 C1147 1.372 . S
C1147 C1146 1.372 . S
C1147 C1148 1.400 . S
C1147 C1152 1.490 . S
C1148 H1138 0.930 . S
C1148 C1147 1.400 . S
C1148 C1151 1.386 . S
H1149 C1165 0.930 . S
H1150 C1166 0.931 . S
C1151 H1139 0.929 . S
C1151 C1145 1.390 . S
C1151 C1148 1.386 . S
C1152 C1147 1.490 . S
C1152 C1154 1.395 . S
C1152 C1155 1.406 . S
H1153 C1159 0.930 . S
C1154 H1140 0.930 . S
C1154 C1152 1.395 . S
C1154 C1157 1.403 . S
C1155 C1152 1.406 . S
C1155 C1156 1.519 1_545 S
C1155 C1159 1.397 1_545 S
C1156 H1141 1.047 . S
C1156 H1142 0.897 1_565 S
C1156 H1143 0.951 1_565 S
C1156 C1155 1.519 1_565 S
C1157 C1154 1.403 . S
C1157 C1158 1.392 1_545 S
C1157 C1161 1.495 . S
C1158 C1157 1.392 1_565 S
C1158 C1159 1.385 . S
C1158 C1160 1.478 . S
C1159 H1153 0.930 . S
C1159 C1155 1.397 1_565 S
C1159 C1158 1.385 . S
C1160 C1158 1.478 . S
C1160 C1162 1.381 . S
C1160 C1166 1.383 . S
C1161 C1157 1.495 . S
C1161 H1167 0.959 . S
C1161 H1168 0.961 1_545 S
C1161 H1169 0.960 . S
C1162 C1160 1.381 . S
C1162 C1163 1.394 . S
C1162 H1170 0.930 . S
C1163 C1162 1.394 . S
C1163 C1164 1.383 . S
C1163 H1171 0.929 . S
C1164 C1163 1.383 . S
C1164 C1165 1.377 . S
C1165 H1149 0.930 . S
C1165 C1164 1.377 . S
C1165 C1166 1.379 . S
C1166 H1150 0.931 . S
C1166 C1160 1.383 . S
C1166 C1165 1.379 . S
H1167 C1161 0.959 . S
H1168 C1161 0.961 1_565 S
H1169 C1161 0.960 . S
H1170 C1162 0.930 . S
H1171 C1163 0.929 . S
H1172 C1180 0.929 . S
H1173 C1182 0.930 . S
H1174 C1184 0.930 . S
H1175 C1187 0.929 . S
H1176 C1190 0.930 . S
H1177 C1192 0.960 . S
H1178 C1192 0.960 . S
H1179 C1192 0.960 . S
C1180 H1172 0.929 . S
C1180 C1181 1.377 . S
C1180 C1182 1.384 . S
C1181 C1180 1.377 . S
C1181 C1187 1.390 . S
C1182 H1173 0.930 . S
C1182 C1180 1.384 . S
C1182 C1183 1.372 . S
C1183 C1182 1.372 . S
C1183 C1184 1.400 . S
C1183 C1188 1.490 . S
C1184 H1174 0.930 . S
C1184 C1183 1.400 . S
C1184 C1187 1.386 . S
H1185 C1201 0.930 . S
H1186 C1202 0.931 . S
C1187 H1175 0.929 . S
C1187 C1181 1.390 . S
C1187 C1184 1.386 . S
C1188 C1183 1.490 . S
C1188 C1190 1.395 . S
C1188 C1191 1.403 . S
H1189 C1195 0.930 . S
C1190 H1176 0.930 . S
C1190 C1188 1.395 . S
C1190 C1193 1.403 1_455 S
C1191 C1188 1.403 . S
C1191 C1192 1.524 . S
C1191 C1195 1.400 1_455 S
C1192 H1177 0.960 . S
C1192 H1178 0.960 . S
C1192 H1179 0.960 . S
C1192 C1191 1.524 . S
C1193 C1190 1.403 1_655 S
C1193 C1194 1.392 . S
C1193 C1197 1.495 . S
C1194 C1193 1.392 . S
C1194 C1195 1.385 . S
C1194 C1196 1.478 . S
C1195 H1189 0.930 . S
C1195 C1191 1.400 1_655 S
C1195 C1194 1.385 . S
C1196 C1194 1.478 . S
C1196 C1198 1.381 . S
C1196 C1202 1.383 . S
C1197 C1193 1.495 . S
C1197 H1203 0.959 . S
C1197 H1204 0.961 . S
C1197 H1205 0.960 . S
C1198 C1196 1.381 . S
C1198 C1199 1.394 . S
C1198 H1206 0.930 . S
C1199 C1198 1.394 . S
C1199 C1200 1.383 . S
C1199 H1207 0.929 . S
C1200 C1199 1.383 . S
C1200 C1201 1.377 . S
C1201 H1185 0.930 . S
C1201 C1200 1.377 . S
C1201 C1202 1.379 . S
C1202 H1186 0.931 . S
C1202 C1196 1.383 . S
C1202 C1201 1.379 . S
H1203 C1197 0.959 . S
H1204 C1197 0.961 . S
H1205 C1197 0.960 . S
H1206 C1198 0.930 . S
H1207 C1199 0.929 . S
H1208 C1216 0.929 . S
H1209 C1218 0.930 1_554 S
H1210 C1220 0.930 . S
H1211 C1223 0.929 . S
H1212 C1226 0.930 . S
H1213 C1228 0.960 . S
H1214 C1228 0.960 . S
H1215 C1228 0.960 . S
C1216 H1208 0.929 . S
C1216 C1217 1.377 . S
C1216 C1218 1.384 . S
C1217 C1216 1.377 . S
C1217 C1223 1.390 . S
C1218 H1209 0.930 1_556 S
C1218 C1216 1.384 . S
C1218 C1219 1.372 . S
C1219 C1218 1.372 . S
C1219 C1220 1.400 . S
C1219 C1224 1.490 . S
C1220 H1210 0.930 . S
C1220 C1219 1.400 . S
C1220 C1223 1.386 . S
H1221 C1237 0.930 . S
H1222 C1238 0.950 . S
C1223 H1211 0.929 . S
C1223 C1217 1.390 . S
C1223 C1220 1.386 . S
C1224 C1219 1.490 . S
C1224 C1226 1.395 1_556 S
C1224 C1227 1.403 . S
H1225 C1231 0.930 . S
C1226 H1212 0.930 . S
C1226 C1224 1.395 1_554 S
C1226 C1229 1.403 . S
C1227 C1224 1.403 . S
C1227 C1228 1.524 . S
C1227 C1231 1.400 . S
C1228 H1213 0.960 . S
C1228 H1214 0.960 . S
C1228 H1215 0.960 . S
C1228 C1227 1.524 . S
C1229 C1226 1.403 . S
C1229 C1230 1.392 . S
C1229 C1233 1.495 . S
C1230 C1229 1.392 . S
C1230 C1231 1.385 1_554 S
C1230 C1232 1.478 . S
C1231 H1225 0.930 . S
C1231 C1227 1.400 . S
C1231 C1230 1.385 1_556 S
C1232 C1230 1.478 . S
C1232 C1234 1.381 . S
C1232 C1238 1.383 . S
C1233 C1229 1.495 . S
C1233 H1239 0.959 . S
C1233 H1240 0.961 . S
C1233 H1241 0.960 . S
C1234 C1232 1.381 . S
C1234 C1235 1.394 . S
C1234 H1242 0.930 . S
C1235 C1234 1.394 . S
C1235 C1236 1.383 . S
C1235 H1243 0.929 . S
C1236 C1235 1.383 . S
C1236 C1237 1.377 . S
C1237 H1221 0.930 . S
C1237 C1236 1.377 . S
C1237 C1238 1.379 . S
C1238 H1222 0.950 . S
C1238 C1232 1.383 . S
C1238 C1237 1.379 . S
H1239 C1233 0.959 . S
H1240 C1233 0.961 . S
H1241 C1233 0.960 . S
H1242 C1234 0.930 . S
H1243 C1235 0.929 . S
H1244 C1252 0.929 . S
H1245 C1254 0.930 . S
H1246 C1256 0.930 . S
H1247 C1259 0.929 . S
H1248 C1262 0.930 . S
H1249 C1264 0.960 . S
H1250 C1264 0.960 . S
H1251 C1264 0.960 . S
C1252 H1244 0.929 . S
C1252 C1253 1.377 . S
C1252 C1254 1.384 . S
C1253 C1252 1.377 . S
C1253 C1259 1.390 . S
C1254 H1245 0.930 . S
C1254 C1252 1.384 . S
C1254 C1255 1.372 . S
C1255 C1254 1.372 . S
C1255 C1256 1.400 . S
C1255 C1260 1.490 . S
C1256 H1246 0.930 . S
C1256 C1255 1.400 . S
C1256 C1259 1.386 . S
H1257 C1273 0.930 . S
H1258 C1274 0.931 . S
C1259 H1247 0.929 . S
C1259 C1253 1.390 . S
C1259 C1256 1.386 . S
C1260 C1255 1.490 . S
C1260 C1262 1.395 . S
C1260 C1263 1.403 . S
H1261 C1267 0.930 . S
C1262 H1248 0.930 . S
C1262 C1260 1.395 . S
C1262 C1265 1.403 . S
C1263 C1260 1.403 . S
C1263 C1264 1.524 . S
C1263 C1267 1.400 . S
C1264 H1249 0.960 . S
C1264 H1250 0.960 . S
C1264 H1251 0.960 . S
C1264 C1263 1.524 . S
C1265 C1262 1.403 . S
C1265 C1266 1.392 . S
C1265 C1269 1.495 . S
C1266 C1265 1.392 . S
C1266 C1267 1.385 . S
C1266 C1268 1.478 . S
C1267 H1261 0.930 . S
C1267 C1263 1.400 . S
C1267 C1266 1.385 . S
C1268 C1266 1.478 . S
C1268 C1270 1.381 . S
C1268 C1274 1.383 . S
C1269 C1265 1.495 . S
C1269 H1275 0.959 . S
C1269 H1276 0.961 . S
C1269 H1277 0.960 . S
C1270 C1268 1.381 . S
C1270 C1271 1.394 . S
C1270 H1278 0.930 . S
C1271 C1270 1.394 . S
C1271 C1272 1.383 . S
C1271 H1279 0.929 . S
C1272 C1271 1.383 . S
C1272 C1273 1.377 . S
C1273 H1257 0.930 . S
C1273 C1272 1.377 . S
C1273 C1274 1.379 . S
C1274 H1258 0.931 . S
C1274 C1268 1.383 . S
C1274 C1273 1.379 . S
H1275 C1269 0.959 . S
H1276 C1269 0.961 . S
H1277 C1269 0.960 . S
H1278 C1270 0.930 . S
H1279 C1271 0.929 . S
H1280 C1288 0.929 . S
H1281 C1290 0.930 . S
H1282 C1292 0.930 . S
H1283 C1295 0.929 . S
H1284 C1298 0.930 . S
H1285 C1300 0.960 . S
H1286 C1300 0.960 . S
H1287 C1300 0.960 . S
C1288 H1280 0.929 . S
C1288 C1289 1.377 . S
C1288 C1290 1.384 . S
C1289 C1288 1.377 . S
C1289 C1295 1.390 . S
C1290 H1281 0.930 . S
C1290 C1288 1.384 . S
C1290 C1291 1.372 . S
C1291 C1290 1.372 . S
C1291 C1292 1.400 . S
C1291 C1296 1.490 . S
C1292 H1282 0.930 . S
C1292 C1291 1.400 . S
C1292 C1295 1.386 . S
H1293 C1309 0.930 . S
H1294 C1310 0.931 . S
C1295 H1283 0.929 . S
C1295 C1289 1.390 . S
C1295 C1292 1.386 . S
C1296 C1291 1.490 . S
C1296 C1298 1.395 . S
C1296 C1299 1.403 . S
H1297 C1303 0.930 . S
C1298 H1284 0.930 . S
C1298 C1296 1.395 . S
C1298 C1301 1.403 . S
C1299 C1296 1.403 . S
C1299 C1300 1.524 . S
C1299 C1303 1.400 . S
C1300 H1285 0.960 . S
C1300 H1286 0.960 . S
C1300 H1287 0.960 . S
C1300 C1299 1.524 . S
C1301 C1298 1.403 . S
C1301 C1302 1.392 . S
C1301 C1305 1.495 . S
C1302 C1301 1.392 . S
C1302 C1303 1.385 . S
C1302 C1304 1.478 . S
C1303 H1297 0.930 . S
C1303 C1299 1.400 . S
C1303 C1302 1.385 . S
C1304 C1302 1.478 . S
C1304 C1306 1.381 . S
C1304 C1310 1.383 . S
C1305 C1301 1.495 . S
C1305 H1311 0.959 . S
C1305 H1312 0.961 . S
C1305 H1313 0.960 . S
C1306 C1304 1.381 . S
C1306 C1307 1.394 . S
C1306 H1314 0.930 . S
C1307 C1306 1.394 . S
C1307 C1308 1.383 . S
C1307 H1315 0.929 . S
C1308 C1307 1.383 . S
C1308 C1309 1.377 . S
C1309 H1293 0.930 . S
C1309 C1308 1.377 . S
C1309 C1310 1.379 . S
C1310 H1294 0.931 . S
C1310 C1304 1.383 . S
C1310 C1309 1.379 . S
H1311 C1305 0.959 . S
H1312 C1305 0.961 . S
H1313 C1305 0.960 . S
H1314 C1306 0.930 . S
H1315 C1307 0.929 . S
H1316 C1324 0.929 . S
H1317 C1326 0.930 . S
H1318 C1328 0.930 . S
H1319 C1331 0.929 . S
H1320 C1334 0.930 . S
H1321 C1336 0.960 . S
H1322 C1336 0.960 . S
H1323 C1336 0.960 . S
C1324 H1316 0.929 . S
C1324 C1325 1.377 . S
C1324 C1326 1.384 . S
C1325 C1324 1.377 . S
C1325 C1331 1.390 . S
C1326 H1317 0.930 . S
C1326 C1324 1.384 . S
C1326 C1327 1.372 . S
C1327 C1326 1.372 . S
C1327 C1328 1.400 . S
C1327 C1332 1.490 . S
C1328 H1318 0.930 . S
C1328 C1327 1.400 . S
C1328 C1331 1.386 . S
H1329 C1345 0.930 . S
H1330 C1346 0.931 . S
C1331 H1319 0.929 . S
C1331 C1325 1.390 . S
C1331 C1328 1.386 . S
C1332 C1327 1.490 . S
C1332 C1334 1.395 . S
C1332 C1335 1.403 1_655 S
H1333 C1339 0.930 . S
C1334 H1320 0.930 . S
C1334 C1332 1.395 . S
C1334 C1337 1.403 . S
C1335 C1332 1.403 1_455 S
C1335 C1336 1.524 . S
C1335 C1339 1.400 . S
C1336 H1321 0.960 . S
C1336 H1322 0.960 . S
C1336 H1323 0.960 . S
C1336 C1335 1.524 . S
C1337 C1334 1.403 . S
C1337 C1338 1.392 1_655 S
C1337 C1341 1.495 . S
C1338 C1337 1.392 1_455 S
C1338 C1339 1.385 . S
C1338 C1340 1.478 . S
C1339 H1333 0.930 . S
C1339 C1335 1.400 . S
C1339 C1338 1.385 . S
C1340 C1338 1.478 . S
C1340 C1342 1.381 . S
C1340 C1346 1.383 . S
C1341 C1337 1.495 . S
C1341 H1347 0.959 . S
C1341 H1348 0.961 . S
C1341 H1349 0.960 . S
C1342 C1340 1.381 . S
C1342 C1343 1.394 . S
C1342 H1350 0.930 . S
C1343 C1342 1.394 . S
C1343 C1344 1.383 . S
C1343 H1351 0.929 . S
C1344 C1343 1.383 . S
C1344 C1345 1.377 . S
C1345 H1329 0.930 . S
C1345 C1344 1.377 . S
C1345 C1346 1.379 . S
C1346 H1330 0.931 . S
C1346 C1340 1.383 . S
C1346 C1345 1.379 . S
H1347 C1341 0.959 . S
H1348 C1341 0.961 . S
H1349 C1341 0.960 . S
H1350 C1342 0.930 . S
H1351 C1343 0.929 . S
H1352 C1360 0.929 . S
H1353 C1362 0.930 . S
H1354 C1364 0.930 . S
H1355 C1367 0.929 . S
H1356 C1370 0.930 . S
H1357 C1372 0.960 . S
H1358 C1372 0.960 . S
H1359 C1372 0.960 . S
C1360 H1352 0.929 . S
C1360 C1361 1.377 . S
C1360 C1362 1.384 . S
C1361 C1360 1.377 . S
C1361 C1367 1.390 . S
C1362 H1353 0.930 . S
C1362 C1360 1.384 . S
C1362 C1363 1.372 . S
C1363 C1362 1.372 . S
C1363 C1364 1.400 . S
C1363 C1368 1.490 . S
C1364 H1354 0.930 . S
C1364 C1363 1.400 . S
C1364 C1367 1.386 . S
H1365 C1381 0.930 . S
H1366 C1382 0.931 . S
C1367 H1355 0.929 . S
C1367 C1361 1.390 . S
C1367 C1364 1.386 . S
C1368 C1363 1.490 . S
C1368 C1370 1.395 . S
C1368 C1371 1.403 . S
H1369 C1375 0.930 . S
C1370 H1356 0.930 . S
C1370 C1368 1.395 . S
C1370 C1373 1.403 . S
C1371 C1368 1.403 . S
C1371 C1372 1.524 . S
C1371 C1375 1.400 . S
C1372 H1357 0.960 . S
C1372 H1358 0.960 . S
C1372 H1359 0.960 . S
C1372 C1371 1.524 . S
C1373 C1370 1.403 . S
C1373 C1374 1.392 . S
C1373 C1377 1.495 . S
C1374 C1373 1.392 . S
C1374 C1375 1.385 . S
C1374 C1376 1.478 . S
C1375 H1369 0.930 . S
C1375 C1371 1.400 . S
C1375 C1374 1.385 . S
C1376 C1374 1.478 . S
C1376 C1378 1.381 . S
C1376 C1382 1.383 . S
C1377 C1373 1.495 . S
C1377 H1383 0.959 . S
C1377 H1384 0.961 . S
C1377 H1385 0.960 . S
C1378 C1376 1.381 . S
C1378 C1379 1.394 . S
C1378 H1386 0.930 . S
C1379 C1378 1.394 . S
C1379 C1380 1.383 . S
C1379 H1387 0.929 . S
C1380 C1379 1.383 . S
C1380 C1381 1.377 . S
C1381 H1365 0.930 . S
C1381 C1380 1.377 . S
C1381 C1382 1.379 . S
C1382 H1366 0.931 . S
C1382 C1376 1.383 . S
C1382 C1381 1.379 . S
H1383 C1377 0.959 . S
H1384 C1377 0.961 . S
H1385 C1377 0.960 . S
H1386 C1378 0.930 . S
H1387 C1379 0.929 . S
H1388 C1396 0.929 . S
H1389 C1398 0.930 . S
H1390 C1400 0.930 . S
H1391 C1403 0.929 . S
H1392 C1406 0.930 . S
H1393 C1408 0.960 . S
H1394 C1408 0.960 . S
H1395 C1408 0.960 . S
C1396 H1388 0.929 . S
C1396 C1397 1.377 . S
C1396 C1398 1.384 . S
C1397 C1396 1.377 . S
C1397 C1403 1.390 . S
C1398 H1389 0.930 . S
C1398 C1396 1.384 . S
C1398 C1399 1.372 . S
C1399 C1398 1.372 . S
C1399 C1400 1.400 . S
C1399 C1404 1.490 . S
C1400 H1390 0.930 . S
C1400 C1399 1.400 . S
C1400 C1403 1.386 . S
H1401 C1417 0.930 . S
H1402 C1418 0.931 . S
C1403 H1391 0.929 . S
C1403 C1397 1.390 . S
C1403 C1400 1.386 . S
C1404 C1399 1.490 . S
C1404 C1406 1.395 . S
C1404 C1407 1.403 . S
H1405 C1411 0.930 . S
C1406 H1392 0.930 . S
C1406 C1404 1.395 . S
C1406 C1409 1.403 . S
C1407 C1404 1.403 . S
C1407 C1408 1.524 . S
C1407 C1411 1.400 . S
C1408 H1393 0.960 . S
C1408 H1394 0.960 . S
C1408 H1395 0.960 . S
C1408 C1407 1.524 . S
C1409 C1406 1.403 . S
C1409 C1410 1.392 . S
C1409 C1413 1.495 . S
C1410 C1409 1.392 . S
C1410 C1411 1.385 . S
C1410 C1412 1.478 . S
C1411 H1405 0.930 . S
C1411 C1407 1.400 . S
C1411 C1410 1.385 . S
C1412 C1410 1.478 . S
C1412 C1414 1.381 . S
C1412 C1418 1.383 . S
C1413 C1409 1.495 . S
C1413 H1419 0.959 . S
C1413 H1420 0.961 . S
C1413 H1421 0.960 . S
C1414 C1412 1.381 . S
C1414 C1415 1.394 . S
C1414 H1422 0.930 . S
C1415 C1414 1.394 . S
C1415 C1416 1.383 . S
C1415 H1423 0.929 . S
C1416 C1415 1.383 . S
C1416 C1417 1.377 . S
C1417 H1401 0.930 . S
C1417 C1416 1.377 . S
C1417 C1418 1.379 . S
C1418 H1402 0.931 . S
C1418 C1412 1.383 . S
C1418 C1417 1.379 . S
H1419 C1413 0.959 . S
H1420 C1413 0.961 . S
H1421 C1413 0.960 . S
H1422 C1414 0.930 . S
H1423 C1415 0.929 . S
H1424 C1432 0.929 . S
H1425 C1434 0.930 . S
H1426 C1436 0.930 . S
H1427 C1439 0.929 . S
H1428 C1442 0.930 . S
H1429 C1444 0.960 . S
H1430 C1444 0.960 . S
H1431 C1444 0.960 . S
C1432 H1424 0.929 . S
C1432 C1433 1.377 . S
C1432 C1434 1.384 . S
C1433 C1432 1.377 . S
C1433 C1439 1.390 . S
C1434 H1425 0.930 . S
C1434 C1432 1.384 . S
C1434 C1435 1.372 . S
C1435 C1434 1.372 . S
C1435 C1436 1.400 . S
C1435 C1440 1.490 . S
C1436 H1426 0.930 . S
C1436 C1435 1.400 . S
C1436 C1439 1.386 . S
H1437 C1453 0.930 . S
H1438 C1454 0.931 . S
C1439 H1427 0.929 . S
C1439 C1433 1.390 . S
C1439 C1436 1.386 . S
C1440 C1435 1.490 . S
C1440 C1442 1.395 . S
C1440 C1443 1.403 . S
H1441 C1447 0.930 . S
C1442 H1428 0.930 . S
C1442 C1440 1.395 . S
C1442 C1445 1.403 . S
C1443 C1440 1.403 . S
C1443 C1444 1.524 . S
C1443 C1447 1.400 . S
C1444 H1429 0.960 . S
C1444 H1430 0.960 . S
C1444 H1431 0.960 . S
C1444 C1443 1.524 . S
C1445 C1442 1.403 . S
C1445 C1446 1.392 . S
C1445 C1449 1.495 . S
C1446 C1445 1.392 . S
C1446 C1447 1.385 . S
C1446 C1448 1.478 . S
C1447 H1441 0.930 . S
C1447 C1443 1.400 . S
C1447 C1446 1.385 . S
C1448 C1446 1.478 . S
C1448 C1450 1.381 . S
C1448 C1454 1.383 . S
C1449 C1445 1.495 . S
C1449 H1455 0.959 . S
C1449 H1456 0.961 . S
C1449 H1457 0.960 . S
C1450 C1448 1.381 . S
C1450 C1451 1.394 . S
C1450 H1458 0.930 . S
C1451 C1450 1.394 . S
C1451 C1452 1.383 . S
C1451 H1459 0.929 . S
C1452 C1451 1.383 . S
C1452 C1453 1.377 . S
C1453 H1437 0.930 . S
C1453 C1452 1.377 . S
C1453 C1454 1.379 . S
C1454 H1438 0.931 . S
C1454 C1448 1.383 . S
C1454 C1453 1.379 . S
H1455 C1449 0.959 . S
H1456 C1449 0.961 . S
H1457 C1449 0.960 . S
H1458 C1450 0.930 . S
H1459 C1451 0.929 . S
H1460 C1468 0.929 . S
H1461 C1470 0.930 . S
H1462 C1472 0.930 . S
H1463 C1475 0.929 . S
H1464 C1478 0.930 . S
H1465 C1480 0.890 1_565 S
H1466 C1480 0.960 . S
H1467 C1480 0.960 . S
C1468 H1460 0.929 . S
C1468 C1469 1.377 . S
C1468 C1470 1.384 . S
C1469 C1468 1.377 . S
C1469 C1475 1.390 . S
C1470 H1461 0.930 . S
C1470 C1468 1.384 . S
C1470 C1471 1.372 . S
C1471 C1470 1.372 . S
C1471 C1472 1.400 . S
C1471 C1476 1.490 . S
C1472 H1462 0.930 . S
C1472 C1471 1.400 . S
C1472 C1475 1.386 . S
H1473 C1489 0.930 . S
H1474 C1490 0.931 . S
C1475 H1463 0.929 . S
C1475 C1469 1.390 . S
C1475 C1472 1.386 . S
C1476 C1471 1.490 . S
C1476 C1478 1.395 . S
C1476 C1479 1.403 . S
H1477 C1483 0.930 . S
C1478 H1464 0.930 . S
C1478 C1476 1.395 . S
C1478 C1481 1.403 1_545 S
C1479 C1476 1.403 . S
C1479 C1480 1.524 . S
C1479 C1483 1.400 1_545 S
C1480 H1465 0.890 1_545 S
C1480 H1466 0.960 . S
C1480 H1467 0.960 . S
C1480 C1479 1.524 . S
C1481 C1478 1.403 1_565 S
C1481 C1482 1.392 . S
C1481 C1485 1.495 . S
C1482 C1481 1.392 . S
C1482 C1483 1.385 . S
C1482 C1484 1.478 . S
C1483 H1477 0.930 . S
C1483 C1479 1.400 1_565 S
C1483 C1482 1.385 . S
C1484 C1482 1.478 . S
C1484 C1486 1.381 . S
C1484 C1490 1.383 . S
C1485 C1481 1.495 . S
C1485 H1491 0.959 1_565 S
C1485 H1492 0.961 . S
C1485 H1493 0.960 . S
C1486 C1484 1.381 . S
C1486 C1487 1.394 . S
C1486 H1494 0.930 . S
C1487 C1486 1.394 . S
C1487 C1488 1.383 . S
C1487 H1495 0.929 . S
C1488 C1487 1.383 . S
C1488 C1489 1.377 . S
C1489 H1473 0.930 . S
C1489 C1488 1.377 . S
C1489 C1490 1.379 . S
C1490 H1474 0.931 . S
C1490 C1484 1.383 . S
C1490 C1489 1.379 . S
H1491 C1485 0.959 1_545 S
H1492 C1485 0.961 . S
H1493 C1485 0.960 . S
H1494 C1486 0.930 . S
H1495 C1487 0.929 . S
H1496 C1504 0.929 . S
H1497 C1506 0.930 . S
H1498 C1508 0.930 . S
H1499 C1511 0.929 . S
H1500 C1514 0.930 . S
H1501 C1516 0.960 . S
H1502 C1516 0.960 . S
H1503 C1516 0.960 . S
C1504 H1496 0.929 . S
C1504 C1505 1.377 . S
C1504 C1506 1.384 . S
C1505 C1504 1.377 . S
C1505 C1511 1.390 . S
C1506 H1497 0.930 . S
C1506 C1504 1.384 . S
C1506 C1507 1.372 . S
C1507 C1506 1.372 . S
C1507 C1508 1.400 . S
C1507 C1512 1.490 . S
C1508 H1498 0.930 . S
C1508 C1507 1.400 . S
C1508 C1511 1.386 . S
H1509 C1525 0.930 . S
H1510 C1526 0.931 . S
C1511 H1499 0.929 . S
C1511 C1505 1.390 . S
C1511 C1508 1.386 . S
C1512 C1507 1.490 . S
C1512 C1514 1.395 . S
C1512 C1515 1.403 . S
H1513 C1519 0.930 . S
C1514 H1500 0.930 . S
C1514 C1512 1.395 . S
C1514 C1517 1.403 . S
C1515 C1512 1.403 . S
C1515 C1516 1.524 . S
C1515 C1519 1.400 . S
C1516 H1501 0.960 . S
C1516 H1502 0.960 . S
C1516 H1503 0.960 . S
C1516 C1515 1.524 . S
C1517 C1514 1.403 . S
C1517 C1518 1.392 . S
C1517 C1521 1.495 . S
C1518 C1517 1.392 . S
C1518 C1519 1.385 . S
C1518 C1520 1.478 . S
C1519 H1513 0.930 . S
C1519 C1515 1.400 . S
C1519 C1518 1.385 . S
C1520 C1518 1.478 . S
C1520 C1522 1.381 . S
C1520 C1526 1.383 . S
C1521 C1517 1.495 . S
C1521 H1527 0.959 . S
C1521 H1528 0.961 . S
C1521 H1529 0.960 . S
C1522 C1520 1.381 . S
C1522 C1523 1.394 . S
C1522 H1530 0.930 . S
C1523 C1522 1.394 . S
C1523 C1524 1.383 . S
C1523 H1531 0.929 . S
C1524 C1523 1.383 . S
C1524 C1525 1.377 . S
C1525 H1509 0.930 . S
C1525 C1524 1.377 . S
C1525 C1526 1.379 . S
C1526 H1510 0.931 . S
C1526 C1520 1.383 . S
C1526 C1525 1.379 . S
H1527 C1521 0.959 . S
H1528 C1521 0.961 . S
H1529 C1521 0.960 . S
H1530 C1522 0.930 . S
H1531 C1523 0.929 . S
H1532 C1540 0.929 . S
H1533 C1542 0.930 . S
H1534 C1544 0.935 . S
H1535 C1547 0.929 1_556 S
H1536 C1550 0.930 . S
H1537 C1552 0.960 . S
H1538 C1552 0.960 . S
H1539 C1552 0.960 . S
C1540 H1532 0.929 . S
C1540 C1541 1.377 . S
C1540 C1542 1.384 . S
C1541 C1540 1.377 . S
C1541 C1547 1.390 . S
C1542 H1533 0.930 . S
C1542 C1540 1.384 . S
C1542 C1543 1.372 . S
C1543 C1542 1.372 . S
C1543 C1544 1.396 1_554 S
C1543 C1548 1.490 . S
C1544 H1534 0.935 . S
C1544 C1543 1.396 1_556 S
C1544 C1547 1.384 1_556 S
H1545 C1561 0.930 . S
H1546 C1562 0.931 . S
C1547 H1535 0.929 1_554 S
C1547 C1541 1.390 . S
C1547 C1544 1.384 1_554 S
C1548 C1543 1.490 . S
C1548 C1550 1.395 . S
C1548 C1551 1.403 1_554 S
H1549 C1555 0.930 . S
C1550 H1536 0.930 . S
C1550 C1548 1.395 . S
C1550 C1553 1.403 . S
C1551 C1548 1.403 1_556 S
C1551 C1552 1.524 . S
C1551 C1555 1.400 . S
C1552 H1537 0.960 . S
C1552 H1538 0.960 . S
C1552 H1539 0.960 . S
C1552 C1551 1.524 . S
C1553 C1550 1.403 . S
C1553 C1554 1.392 1_554 S
C1553 C1557 1.495 . S
C1554 C1553 1.392 1_556 S
C1554 C1555 1.385 . S
C1554 C1556 1.478 . S
C1555 H1549 0.930 . S
C1555 C1551 1.400 . S
C1555 C1554 1.385 . S
C1556 C1554 1.478 . S
C1556 C1558 1.381 1_556 S
C1556 C1562 1.383 . S
C1557 C1553 1.495 . S
C1557 H1563 0.959 . S
C1557 H1564 0.961 . S
C1557 H1565 0.960 . S
C1558 C1556 1.381 1_554 S
C1558 C1559 1.394 1_554 S
C1558 H1566 0.930 . S
C1559 C1558 1.394 1_556 S
C1559 C1560 1.383 . S
C1559 H1567 0.929 1_556 S
C1560 C1559 1.383 . S
C1560 C1561 1.377 . S
C1561 H1545 0.930 . S
C1561 C1560 1.377 . S
C1561 C1562 1.379 . S
C1562 H1546 0.931 . S
C1562 C1556 1.383 . S
C1562 C1561 1.379 . S
H1563 C1557 0.959 . S
H1564 C1557 0.961 . S
H1565 C1557 0.960 . S
H1566 C1558 0.930 . S
H1567 C1559 0.929 1_554 S
H1568 C1576 0.929 . S
H1569 C1578 0.930 . S
H1570 C1580 0.930 . S
H1571 C1583 0.929 . S
H1572 C1586 0.930 . S
H1573 C1588 0.960 . S
H1574 C1588 0.960 . S
H1575 C1588 0.960 . S
C1576 H1568 0.929 . S
C1576 C1577 1.377 . S
C1576 C1578 1.384 . S
C1577 C1576 1.377 . S
C1577 C1583 1.390 . S
C1578 H1569 0.930 . S
C1578 C1576 1.384 . S
C1578 C1579 1.372 . S
C1579 C1578 1.372 . S
C1579 C1580 1.400 . S
C1579 C1584 1.490 . S
C1580 H1570 0.930 . S
C1580 C1579 1.400 . S
C1580 C1583 1.386 . S
H1581 C1597 0.930 . S
H1582 C1598 0.931 . S
C1583 H1571 0.929 . S
C1583 C1577 1.390 . S
C1583 C1580 1.386 . S
C1584 C1579 1.490 . S
C1584 C1586 1.395 . S
C1584 C1587 1.403 . S
H1585 C1591 0.930 . S
C1586 H1572 0.930 . S
C1586 C1584 1.395 . S
C1586 C1589 1.403 . S
C1587 C1584 1.403 . S
C1587 C1588 1.524 . S
C1587 C1591 1.400 . S
C1588 H1573 0.960 . S
C1588 H1574 0.960 . S
C1588 H1575 0.960 . S
C1588 C1587 1.524 . S
C1589 C1586 1.403 . S
C1589 C1590 1.392 . S
C1589 C1593 1.495 . S
C1590 C1589 1.392 . S
C1590 C1591 1.385 . S
C1590 C1592 1.478 . S
C1591 H1585 0.930 . S
C1591 C1587 1.400 . S
C1591 C1590 1.385 . S
C1592 C1590 1.478 . S
C1592 C1594 1.381 . S
C1592 C1598 1.383 . S
C1593 C1589 1.495 . S
C1593 H1599 0.959 . S
C1593 H1600 0.961 . S
C1593 H1601 0.960 . S
C1594 C1592 1.381 . S
C1594 C1595 1.394 . S
C1594 H1602 0.930 . S
C1595 C1594 1.394 . S
C1595 C1596 1.383 . S
C1595 H1603 0.929 . S
C1596 C1595 1.383 . S
C1596 C1597 1.377 . S
C1597 H1581 0.930 . S
C1597 C1596 1.377 . S
C1597 C1598 1.379 . S
C1598 H1582 0.931 . S
C1598 C1592 1.383 . S
C1598 C1597 1.379 . S
H1599 C1593 0.959 . S
H1600 C1593 0.961 . S
H1601 C1593 0.960 . S
H1602 C1594 0.930 . S
H1603 C1595 0.929 . S
H1604 C1612 0.929 . S
H1605 C1614 0.930 . S
H1606 C1616 0.930 1_554 S
H1607 C1619 0.929 1_554 S
H1608 C1622 0.930 . S
H1609 C1624 0.960 . S
H1610 C1624 0.960 . S
H1611 C1624 0.960 . S
C1612 H1604 0.929 . S
C1612 C1613 1.377 . S
C1612 C1614 1.384 . S
C1613 C1612 1.377 . S
C1613 C1619 1.390 . S
C1614 H1605 0.930 . S
C1614 C1612 1.384 . S
C1614 C1615 1.372 . S
C1615 C1614 1.372 . S
C1615 C1616 1.400 . S
C1615 C1620 1.490 . S
C1616 H1606 0.930 1_556 S
C1616 C1615 1.400 . S
C1616 C1619 1.386 . S
H1617 C1633 0.896 1_554 S
H1618 C1634 0.931 . S
C1619 H1607 0.929 1_556 S
C1619 C1613 1.390 . S
C1619 C1616 1.386 . S
C1620 C1615 1.490 . S
C1620 C1622 1.395 . S
C1620 C1623 1.403 . S
H1621 C1627 0.924 1_554 S
C1622 H1608 0.930 . S
C1622 C1620 1.395 . S
C1622 C1625 1.403 . S
C1623 C1620 1.403 . S
C1623 C1624 1.524 1_556 S
C1623 C1627 1.400 . S
C1624 H1609 0.960 . S
C1624 H1610 0.960 . S
C1624 H1611 0.960 . S
C1624 C1623 1.524 1_554 S
C1625 C1622 1.403 . S
C1625 C1626 1.392 . S
C1625 C1629 1.495 . S
C1626 C1625 1.392 . S
C1626 C1627 1.385 . S
C1626 C1628 1.478 . S
C1627 H1621 0.924 1_556 S
C1627 C1623 1.400 . S
C1627 C1626 1.385 . S
C1628 C1626 1.478 . S
C1628 C1630 1.381 . S
C1628 C1634 1.383 . S
C1629 C1625 1.495 . S
C1629 H1635 0.959 . S
C1629 H1636 0.961 . S
C1629 H1637 0.960 . S
C1630 C1628 1.381 . S
C1630 C1631 1.394 . S
C1630 H1638 0.930 . S
C1631 C1630 1.394 . S
C1631 C1632 1.383 . S
C1631 H1639 0.929 . S
C1632 C1631 1.383 . S
C1632 C1633 1.377 . S
C1633 H1617 0.896 1_556 S
C1633 C1632 1.377 . S
C1633 C1634 1.379 . S
C1634 H1618 0.931 . S
C1634 C1628 1.383 . S
C1634 C1633 1.379 . S
H1635 C1629 0.959 . S
H1636 C1629 0.961 . S
H1637 C1629 0.960 . S
H1638 C1630 0.930 . S
H1639 C1631 0.929 . S
H1640 C1648 0.929 . S
H1641 C1650 0.930 . S
H1642 C1652 0.930 . S
H1643 C1655 0.929 . S
H1644 C1658 0.930 . S
H1645 C1660 0.960 . S
H1646 C1660 0.960 . S
H1647 C1660 0.960 . S
C1648 H1640 0.929 . S
C1648 C1649 1.377 . S
C1648 C1650 1.384 . S
C1649 C1648 1.377 . S
C1649 C1655 1.390 . S
C1650 H1641 0.930 . S
C1650 C1648 1.384 . S
C1650 C1651 1.372 . S
C1651 C1650 1.372 . S
C1651 C1652 1.400 . S
C1651 C1656 1.490 . S
C1652 H1642 0.930 . S
C1652 C1651 1.400 . S
C1652 C1655 1.386 . S
H1653 C1669 0.930 . S
H1654 C1670 0.931 . S
C1655 H1643 0.929 . S
C1655 C1649 1.390 . S
C1655 C1652 1.386 . S
C1656 C1651 1.490 . S
C1656 C1658 1.395 . S
C1656 C1659 1.403 . S
H1657 C1663 0.930 . S
C1658 H1644 0.930 . S
C1658 C1656 1.395 . S
C1658 C1661 1.403 . S
C1659 C1656 1.403 . S
C1659 C1660 1.524 . S
C1659 C1663 1.400 . S
C1660 H1645 0.960 . S
C1660 H1646 0.960 . S
C1660 H1647 0.960 . S
C1660 C1659 1.524 . S
C1661 C1658 1.403 . S
C1661 C1662 1.392 . S
C1661 C1665 1.495 . S
C1662 C1661 1.392 . S
C1662 C1663 1.385 . S
C1662 C1664 1.478 . S
C1663 H1657 0.930 . S
C1663 C1659 1.400 . S
C1663 C1662 1.385 . S
C1664 C1662 1.478 . S
C1664 C1666 1.381 . S
C1664 C1670 1.383 . S
C1665 C1661 1.495 . S
C1665 H1671 0.959 . S
C1665 H1672 0.961 . S
C1665 H1673 0.960 . S
C1666 C1664 1.381 . S
C1666 C1667 1.394 . S
C1666 H1674 0.930 . S
C1667 C1666 1.394 . S
C1667 C1668 1.383 . S
C1667 H1675 0.929 . S
C1668 C1667 1.383 . S
C1668 C1669 1.377 . S
C1669 H1653 0.930 . S
C1669 C1668 1.377 . S
C1669 C1670 1.379 . S
C1670 H1654 0.931 . S
C1670 C1664 1.383 . S
C1670 C1669 1.379 . S
H1671 C1665 0.959 . S
H1672 C1665 0.961 . S
H1673 C1665 0.960 . S
H1674 C1666 0.930 . S
H1675 C1667 0.929 . S
H1676 C1684 0.929 . S
H1677 C1686 0.930 . S
H1678 C1688 0.930 . S
H1679 C1691 0.929 . S
H1680 C1694 0.930 . S
H1681 C1696 0.960 . S
H1682 C1696 0.960 . S
H1683 C1696 0.960 . S
C1684 H1676 0.929 . S
C1684 C1685 1.377 . S
C1684 C1686 1.384 . S
C1685 C1684 1.377 . S
C1685 C1691 1.390 . S
C1686 H1677 0.930 . S
C1686 C1684 1.384 . S
C1686 C1687 1.372 . S
C1687 C1686 1.372 . S
C1687 C1688 1.400 . S
C1687 C1692 1.490 . S
C1688 H1678 0.930 . S
C1688 C1687 1.400 . S
C1688 C1691 1.386 . S
H1689 C1705 0.930 . S
H1690 C1706 0.931 . S
C1691 H1679 0.929 . S
C1691 C1685 1.390 . S
C1691 C1688 1.386 . S
C1692 C1687 1.490 . S
C1692 C1694 1.395 . S
C1692 C1695 1.403 . S
H1693 C1699 0.930 . S
C1694 H1680 0.930 . S
C1694 C1692 1.395 . S
C1694 C1697 1.403 . S
C1695 C1692 1.403 . S
C1695 C1696 1.524 . S
C1695 C1699 1.400 . S
C1696 H1681 0.960 . S
C1696 H1682 0.960 . S
C1696 H1683 0.960 . S
C1696 C1695 1.524 . S
C1697 C1694 1.403 . S
C1697 C1698 1.392 . S
C1697 C1701 1.495 1_554 S
C1698 C1697 1.392 . S
C1698 C1699 1.385 . S
C1698 C1700 1.478 . S
C1699 H1693 0.930 . S
C1699 C1695 1.400 . S
C1699 C1698 1.385 . S
C1700 C1698 1.478 . S
C1700 C1702 1.381 . S
C1700 C1706 1.383 . S
C1701 C1697 1.495 1_556 S
C1701 H1707 0.959 . S
C1701 H1708 0.962 . S
C1701 H1709 0.959 1_556 S
C1702 C1700 1.381 . S
C1702 C1703 1.394 . S
C1702 H1710 0.930 . S
C1703 C1702 1.394 . S
C1703 C1704 1.383 . S
C1703 H1711 0.929 . S
C1704 C1703 1.383 . S
C1704 C1705 1.377 . S
C1705 H1689 0.930 . S
C1705 C1704 1.377 . S
C1705 C1706 1.379 . S
C1706 H1690 0.931 . S
C1706 C1700 1.383 . S
C1706 C1705 1.379 . S
H1707 C1701 0.959 . S
H1708 C1701 0.962 . S
H1709 C1701 0.959 1_554 S
H1710 C1702 0.930 . S
H1711 C1703 0.929 . S
H1712 C1720 0.929 . S
H1713 C1722 0.930 . S
H1714 C1724 0.930 . S
H1715 C1727 0.929 . S
H1716 C1730 0.930 . S
H1717 C1732 0.960 . S
H1718 C1732 0.960 . S
H1719 C1732 0.960 . S
C1720 H1712 0.929 . S
C1720 C1721 1.377 . S
C1720 C1722 1.384 . S
C1721 C1720 1.377 . S
C1721 C1727 1.390 . S
C1722 H1713 0.930 . S
C1722 C1720 1.384 . S
C1722 C1723 1.372 . S
C1723 C1722 1.372 . S
C1723 C1724 1.400 . S
C1723 C1728 1.490 . S
C1724 H1714 0.930 . S
C1724 C1723 1.400 . S
C1724 C1727 1.386 . S
H1725 C1741 0.930 . S
H1726 C1742 0.931 . S
C1727 H1715 0.929 . S
C1727 C1721 1.390 . S
C1727 C1724 1.386 . S
C1728 C1723 1.490 . S
C1728 C1730 1.395 . S
C1728 C1731 1.403 . S
H1729 C1735 0.930 . S
C1730 H1716 0.930 . S
C1730 C1728 1.395 . S
C1730 C1733 1.403 . S
C1731 C1728 1.403 . S
C1731 C1732 1.524 . S
C1731 C1735 1.400 . S
C1732 H1717 0.960 . S
C1732 H1718 0.960 . S
C1732 H1719 0.960 . S
C1732 C1731 1.524 . S
C1733 C1730 1.403 . S
C1733 C1734 1.392 . S
C1733 C1737 1.495 . S
C1734 C1733 1.392 . S
C1734 C1735 1.385 . S
C1734 C1736 1.478 . S
C1735 H1729 0.930 . S
C1735 C1731 1.400 . S
C1735 C1734 1.385 . S
C1736 C1734 1.478 . S
C1736 C1738 1.381 . S
C1736 C1742 1.383 . S
C1737 C1733 1.495 . S
C1737 H1743 0.959 . S
C1737 H1744 0.961 . S
C1737 H1745 0.960 . S
C1738 C1736 1.381 . S
C1738 C1739 1.394 . S
C1738 H1746 0.930 . S
C1739 C1738 1.394 . S
C1739 C1740 1.383 . S
C1739 H1747 0.929 . S
C1740 C1739 1.383 . S
C1740 C1741 1.377 . S
C1741 H1725 0.930 . S
C1741 C1740 1.377 . S
C1741 C1742 1.379 . S
C1742 H1726 0.931 . S
C1742 C1736 1.383 . S
C1742 C1741 1.379 . S
H1743 C1737 0.959 . S
H1744 C1737 0.961 . S
H1745 C1737 0.960 . S
H1746 C1738 0.930 . S
H1747 C1739 0.929 . S
H1748 C1756 0.929 . S
H1749 C1758 0.930 . S
H1750 C1760 0.930 . S
H1751 C1763 0.929 . S
H1752 C1766 0.930 . S
H1753 C1768 0.960 . S
H1754 C1768 0.960 . S
H1755 C1768 0.960 . S
C1756 H1748 0.929 . S
C1756 C1757 1.377 . S
C1756 C1758 1.384 . S
C1757 C1756 1.377 . S
C1757 C1763 1.390 . S
C1758 H1749 0.930 . S
C1758 C1756 1.384 . S
C1758 C1759 1.372 . S
C1759 C1758 1.372 . S
C1759 C1760 1.400 . S
C1759 C1764 1.490 . S
C1760 H1750 0.930 . S
C1760 C1759 1.400 . S
C1760 C1763 1.386 . S
H1761 C1777 0.930 . S
H1762 C1778 0.931 . S
C1763 H1751 0.929 . S
C1763 C1757 1.390 . S
C1763 C1760 1.386 . S
C1764 C1759 1.490 . S
C1764 C1766 1.395 . S
C1764 C1767 1.403 . S
H1765 C1771 0.930 . S
C1766 H1752 0.930 . S
C1766 C1764 1.395 . S
C1766 C1769 1.403 . S
C1767 C1764 1.403 . S
C1767 C1768 1.524 . S
C1767 C1771 1.400 . S
C1768 H1753 0.960 . S
C1768 H1754 0.960 . S
C1768 H1755 0.960 . S
C1768 C1767 1.524 . S
C1769 C1766 1.403 . S
C1769 C1770 1.392 . S
C1769 C1773 1.495 . S
C1770 C1769 1.392 . S
C1770 C1771 1.385 . S
C1770 C1772 1.478 . S
C1771 H1765 0.930 . S
C1771 C1767 1.400 . S
C1771 C1770 1.385 . S
C1772 C1770 1.478 . S
C1772 C1774 1.381 . S
C1772 C1778 1.383 . S
C1773 C1769 1.495 . S
C1773 H1779 0.959 . S
C1773 H1780 0.961 . S
C1773 H1781 0.960 . S
C1774 C1772 1.381 . S
C1774 C1775 1.394 . S
C1774 H1782 0.930 . S
C1775 C1774 1.394 . S
C1775 C1776 1.383 . S
C1775 H1783 0.929 . S
C1776 C1775 1.383 . S
C1776 C1777 1.377 . S
C1777 H1761 0.930 . S
C1777 C1776 1.377 . S
C1777 C1778 1.379 . S
C1778 H1762 0.931 . S
C1778 C1772 1.383 . S
C1778 C1777 1.379 . S
H1779 C1773 0.959 . S
H1780 C1773 0.961 . S
H1781 C1773 0.960 . S
H1782 C1774 0.930 . S
H1783 C1775 0.929 . S
H1784 C1792 0.929 . S
H1785 C1794 0.930 . S
H1786 C1796 0.930 . S
H1787 C1799 0.929 . S
H1788 C1802 0.930 . S
H1789 C1804 0.960 . S
H1790 C1804 0.960 . S
H1791 C1804 0.960 . S
C1792 H1784 0.929 . S
C1792 C1793 1.377 . S
C1792 C1794 1.384 . S
C1793 C1792 1.377 . S
C1793 C1799 1.390 . S
C1794 H1785 0.930 . S
C1794 C1792 1.384 . S
C1794 C1795 1.372 . S
C1795 C1794 1.372 . S
C1795 C1796 1.400 . S
C1795 C1800 1.490 . S
C1796 H1786 0.930 . S
C1796 C1795 1.400 . S
C1796 C1799 1.386 . S
H1797 C1813 0.930 . S
H1798 C1814 0.931 . S
C1799 H1787 0.929 . S
C1799 C1793 1.390 . S
C1799 C1796 1.386 . S
C1800 C1795 1.490 . S
C1800 C1802 1.395 . S
C1800 C1803 1.403 . S
H1801 C1807 0.930 . S
C1802 H1788 0.930 . S
C1802 C1800 1.395 . S
C1802 C1805 1.403 . S
C1803 C1800 1.403 . S
C1803 C1804 1.524 . S
C1803 C1807 1.400 . S
C1804 H1789 0.960 . S
C1804 H1790 0.960 . S
C1804 H1791 0.960 . S
C1804 C1803 1.524 . S
C1805 C1802 1.403 . S
C1805 C1806 1.392 . S
C1805 C1809 1.495 . S
C1806 C1805 1.392 . S
C1806 C1807 1.385 . S
C1806 C1808 1.478 . S
C1807 H1801 0.930 . S
C1807 C1803 1.400 . S
C1807 C1806 1.385 . S
C1808 C1806 1.478 . S
C1808 C1810 1.381 . S
C1808 C1814 1.383 . S
C1809 C1805 1.495 . S
C1809 H1815 0.959 . S
C1809 H1816 0.961 . S
C1809 H1817 0.960 . S
C1810 C1808 1.381 . S
C1810 C1811 1.394 . S
C1810 H1818 0.930 . S
C1811 C1810 1.394 . S
C1811 C1812 1.383 . S
C1811 H1819 0.929 . S
C1812 C1811 1.383 . S
C1812 C1813 1.377 . S
C1813 H1797 0.930 . S
C1813 C1812 1.377 . S
C1813 C1814 1.379 . S
C1814 H1798 0.931 . S
C1814 C1808 1.383 . S
C1814 C1813 1.379 . S
H1815 C1809 0.959 . S
H1816 C1809 0.961 . S
H1817 C1809 0.960 . S
H1818 C1810 0.930 . S
H1819 C1811 0.929 . S
H1820 C1828 0.929 . S
H1821 C1830 0.930 . S
H1822 C1832 0.930 . S
H1823 C1835 0.929 . S
H1824 C1838 0.930 . S
H1825 C1840 0.960 . S
H1826 C1840 0.960 . S
H1827 C1840 0.960 . S
C1828 H1820 0.929 . S
C1828 C1829 1.377 . S
C1828 C1830 1.384 . S
C1829 C1828 1.377 . S
C1829 C1835 1.390 . S
C1830 H1821 0.930 . S
C1830 C1828 1.384 . S
C1830 C1831 1.372 . S
C1831 C1830 1.372 . S
C1831 C1832 1.400 . S
C1831 C1836 1.490 . S
C1832 H1822 0.930 . S
C1832 C1831 1.400 . S
C1832 C1835 1.386 . S
H1833 C1849 0.930 . S
H1834 C1850 0.931 . S
C1835 H1823 0.929 . S
C1835 C1829 1.390 . S
C1835 C1832 1.386 . S
C1836 C1831 1.490 . S
C1836 C1838 1.395 . S
C1836 C1839 1.403 . S
H1837 C1843 0.930 . S
C1838 H1824 0.930 . S
C1838 C1836 1.395 . S
C1838 C1841 1.403 . S
C1839 C1836 1.403 . S
C1839 C1840 1.524 . S
C1839 C1843 1.400 . S
C1840 H1825 0.960 . S
C1840 H1826 0.960 . S
C1840 H1827 0.960 . S
C1840 C1839 1.524 . S
C1841 C1838 1.403 . S
C1841 C1842 1.392 . S
C1841 C1845 1.495 . S
C1842 C1841 1.392 . S
C1842 C1843 1.385 . S
C1842 C1844 1.478 . S
C1843 H1837 0.930 . S
C1843 C1839 1.400 . S
C1843 C1842 1.385 . S
C1844 C1842 1.478 . S
C1844 C1846 1.381 . S
C1844 C1850 1.383 . S
C1845 C1841 1.495 . S
C1845 H1851 0.959 . S
C1845 H1852 0.961 . S
C1845 H1853 0.960 . S
C1846 C1844 1.381 . S
C1846 C1847 1.394 . S
C1846 H1854 0.930 . S
C1847 C1846 1.394 . S
C1847 C1848 1.383 . S
C1847 H1855 0.929 . S
C1848 C1847 1.383 . S
C1848 C1849 1.377 . S
C1849 H1833 0.930 . S
C1849 C1848 1.377 . S
C1849 C1850 1.379 . S
C1850 H1834 0.931 . S
C1850 C1844 1.383 . S
C1850 C1849 1.379 . S
H1851 C1845 0.959 . S
H1852 C1845 0.961 . S
H1853 C1845 0.960 . S
H1854 C1846 0.930 . S
H1855 C1847 0.929 . S
H1856 C1864 0.929 . S
H1857 C1866 0.930 . S
H1858 C1868 0.930 . S
H1859 C1871 0.929 . S
H1860 C1874 0.930 . S
H1861 C1876 0.960 . S
H1862 C1876 0.960 . S
H1863 C1876 0.960 . S
C1864 H1856 0.929 . S
C1864 C1865 1.377 . S
C1864 C1866 1.384 . S
C1865 C1864 1.377 . S
C1865 C1871 1.390 . S
C1866 H1857 0.930 . S
C1866 C1864 1.384 . S
C1866 C1867 1.372 . S
C1867 C1866 1.372 . S
C1867 C1868 1.400 . S
C1867 C1872 1.490 . S
C1868 H1858 0.930 . S
C1868 C1867 1.400 . S
C1868 C1871 1.386 . S
H1869 C1885 0.930 . S
H1870 C1886 0.931 . S
C1871 H1859 0.929 . S
C1871 C1865 1.390 . S
C1871 C1868 1.386 . S
C1872 C1867 1.490 . S
C1872 C1874 1.395 . S
C1872 C1875 1.403 . S
H1873 C1879 0.930 . S
C1874 H1860 0.930 . S
C1874 C1872 1.395 . S
C1874 C1877 1.403 . S
C1875 C1872 1.403 . S
C1875 C1876 1.524 . S
C1875 C1879 1.400 . S
C1876 H1861 0.960 . S
C1876 H1862 0.960 . S
C1876 H1863 0.960 . S
C1876 C1875 1.524 . S
C1877 C1874 1.403 . S
C1877 C1878 1.392 . S
C1877 C1881 1.495 . S
C1878 C1877 1.392 . S
C1878 C1879 1.385 . S
C1878 C1880 1.478 . S
C1879 H1873 0.930 . S
C1879 C1875 1.400 . S
C1879 C1878 1.385 . S
C1880 C1878 1.478 . S
C1880 C1882 1.381 . S
C1880 C1886 1.383 . S
C1881 C1877 1.495 . S
C1881 H1887 0.959 . S
C1881 H1888 0.961 . S
C1881 H1889 0.960 . S
C1882 C1880 1.381 . S
C1882 C1883 1.394 . S
C1882 H1890 0.930 . S
C1883 C1882 1.394 . S
C1883 C1884 1.383 . S
C1883 H1891 0.929 . S
C1884 C1883 1.383 . S
C1884 C1885 1.377 . S
C1885 H1869 0.930 . S
C1885 C1884 1.377 . S
C1885 C1886 1.379 . S
C1886 H1870 0.931 . S
C1886 C1880 1.383 . S
C1886 C1885 1.379 . S
H1887 C1881 0.959 . S
H1888 C1881 0.961 . S
H1889 C1881 0.960 . S
H1890 C1882 0.930 . S
H1891 C1883 0.929 . S
H1892 C1900 0.929 . S
H1893 C1902 0.930 . S
H1894 C1904 0.930 . S
H1895 C1907 0.929 . S
H1896 C1910 0.930 . S
H1897 C1912 0.960 . S
H1898 C1912 0.960 . S
H1899 C1912 0.960 . S
C1900 H1892 0.929 . S
C1900 C1901 1.377 . S
C1900 C1902 1.384 . S
C1901 C1900 1.377 . S
C1901 C1907 1.390 . S
C1902 H1893 0.930 . S
C1902 C1900 1.384 . S
C1902 C1903 1.372 . S
C1903 C1902 1.372 . S
C1903 C1904 1.400 . S
C1903 C1908 1.490 . S
C1904 H1894 0.930 . S
C1904 C1903 1.400 . S
C1904 C1907 1.386 . S
H1905 C1921 0.930 . S
H1906 C1922 0.931 . S
C1907 H1895 0.929 . S
C1907 C1901 1.390 . S
C1907 C1904 1.386 . S
C1908 C1903 1.490 . S
C1908 C1910 1.395 . S
C1908 C1911 1.403 . S
H1909 C1915 0.930 . S
C1910 H1896 0.930 . S
C1910 C1908 1.395 . S
C1910 C1913 1.403 . S
C1911 C1908 1.403 . S
C1911 C1912 1.524 . S
C1911 C1915 1.400 . S
C1912 H1897 0.960 . S
C1912 H1898 0.960 . S
C1912 H1899 0.960 . S
C1912 C1911 1.524 . S
C1913 C1910 1.403 . S
C1913 C1914 1.392 . S
C1913 C1917 1.495 . S
C1914 C1913 1.392 . S
C1914 C1915 1.385 . S
C1914 C1916 1.478 . S
C1915 H1909 0.930 . S
C1915 C1911 1.400 . S
C1915 C1914 1.385 . S
C1916 C1914 1.478 . S
C1916 C1918 1.381 . S
C1916 C1922 1.383 . S
C1917 C1913 1.495 . S
C1917 H1923 0.959 . S
C1917 H1924 0.961 . S
C1917 H1925 0.960 . S
C1918 C1916 1.381 . S
C1918 C1919 1.394 . S
C1918 H1926 0.930 . S
C1919 C1918 1.394 . S
C1919 C1920 1.383 . S
C1919 H1927 0.929 . S
C1920 C1919 1.383 . S
C1920 C1921 1.377 . S
C1921 H1905 0.930 . S
C1921 C1920 1.377 . S
C1921 C1922 1.379 . S
C1922 H1906 0.931 . S
C1922 C1916 1.383 . S
C1922 C1921 1.379 . S
H1923 C1917 0.959 . S
H1924 C1917 0.961 . S
H1925 C1917 0.960 . S
H1926 C1918 0.930 . S
H1927 C1919 0.929 . S
H1928 C1936 0.929 . S
H1929 C1938 0.930 . S
H1930 C1940 0.930 . S
H1931 C1943 0.929 . S
H1932 C1946 0.930 . S
H1933 C1948 0.960 . S
H1934 C1948 0.960 . S
H1935 C1948 0.960 . S
C1936 H1928 0.929 . S
C1936 C1937 1.377 . S
C1936 C1938 1.384 . S
C1937 C1936 1.377 . S
C1937 C1943 1.390 . S
C1938 H1929 0.930 . S
C1938 C1936 1.384 . S
C1938 C1939 1.372 . S
C1939 C1938 1.372 . S
C1939 C1940 1.400 . S
C1939 C1944 1.490 . S
C1940 H1930 0.930 . S
C1940 C1939 1.400 . S
C1940 C1943 1.386 . S
H1941 C1957 0.930 . S
H1942 C1958 0.931 . S
C1943 H1931 0.929 . S
C1943 C1937 1.390 . S
C1943 C1940 1.386 . S
C1944 C1939 1.490 . S
C1944 C1946 1.395 . S
C1944 C1947 1.403 . S
H1945 C1951 0.930 . S
C1946 H1932 0.930 . S
C1946 C1944 1.395 . S
C1946 C1949 1.403 . S
C1947 C1944 1.403 . S
C1947 C1948 1.524 . S
C1947 C1951 1.400 . S
C1948 H1933 0.960 . S
C1948 H1934 0.960 . S
C1948 H1935 0.960 . S
C1948 C1947 1.524 . S
C1949 C1946 1.403 . S
C1949 C1950 1.392 . S
C1949 C1953 1.495 . S
C1950 C1949 1.392 . S
C1950 C1951 1.385 . S
C1950 C1952 1.478 . S
C1951 H1945 0.930 . S
C1951 C1947 1.400 . S
C1951 C1950 1.385 . S
C1952 C1950 1.478 . S
C1952 C1954 1.381 . S
C1952 C1958 1.383 . S
C1953 C1949 1.495 . S
C1953 H1959 0.959 . S
C1953 H1960 0.961 . S
C1953 H1961 0.960 . S
C1954 C1952 1.381 . S
C1954 C1955 1.394 . S
C1954 H1962 0.930 . S
C1955 C1954 1.394 . S
C1955 C1956 1.383 . S
C1955 H1963 0.929 . S
C1956 C1955 1.383 . S
C1956 C1957 1.377 . S
C1957 H1941 0.930 . S
C1957 C1956 1.377 . S
C1957 C1958 1.379 . S
C1958 H1942 0.931 . S
C1958 C1952 1.383 . S
C1958 C1957 1.379 . S
H1959 C1953 0.959 . S
H1960 C1953 0.961 . S
H1961 C1953 0.960 . S
H1962 C1954 0.930 . S
H1963 C1955 0.929 . S
H1964 C1972 0.929 . S
H1965 C1974 0.930 . S
H1966 C1976 0.930 . S
H1967 C1979 0.929 . S
H1968 C1982 0.930 . S
H1969 C1984 0.960 . S
H1970 C1984 0.960 . S
H1971 C1984 0.960 . S
C1972 H1964 0.929 . S
C1972 C1973 1.377 . S
C1972 C1974 1.384 . S
C1973 C1972 1.377 . S
C1973 C1979 1.390 . S
C1974 H1965 0.930 . S
C1974 C1972 1.384 . S
C1974 C1975 1.372 . S
C1975 C1974 1.372 . S
C1975 C1976 1.400 . S
C1975 C1980 1.490 . S
C1976 H1966 0.930 . S
C1976 C1975 1.400 . S
C1976 C1979 1.386 . S
H1977 C1993 0.930 . S
H1978 C1994 0.931 . S
C1979 H1967 0.929 . S
C1979 C1973 1.390 . S
C1979 C1976 1.386 . S
C1980 C1975 1.490 . S
C1980 C1982 1.395 . S
C1980 C1983 1.403 . S
H1981 C1987 0.930 . S
C1982 H1968 0.930 . S
C1982 C1980 1.395 . S
C1982 C1985 1.403 . S
C1983 C1980 1.403 . S
C1983 C1984 1.524 . S
C1983 C1987 1.400 . S
C1984 H1969 0.960 . S
C1984 H1970 0.960 . S
C1984 H1971 0.960 . S
C1984 C1983 1.524 . S
C1985 C1982 1.403 . S
C1985 C1986 1.392 . S
C1985 C1989 1.495 . S
C1986 C1985 1.392 . S
C1986 C1987 1.385 . S
C1986 C1988 1.478 . S
C1987 H1981 0.930 . S
C1987 C1983 1.400 . S
C1987 C1986 1.385 . S
C1988 C1986 1.478 . S
C1988 C1990 1.381 . S
C1988 C1994 1.383 . S
C1989 C1985 1.495 . S
C1989 H1995 0.959 . S
C1989 H1996 0.961 . S
C1989 H1997 0.960 . S
C1990 C1988 1.381 . S
C1990 C1991 1.394 . S
C1990 H1998 0.930 . S
C1991 C1990 1.394 . S
C1991 C1992 1.383 . S
C1991 H1999 0.929 . S
C1992 C1991 1.383 . S
C1992 C1993 1.377 . S
C1993 H1977 0.930 . S
C1993 C1992 1.377 . S
C1993 C1994 1.379 . S
C1994 H1978 0.931 . S
C1994 C1988 1.383 . S
C1994 C1993 1.379 . S
H1995 C1989 0.959 . S
H1996 C1989 0.961 . S
H1997 C1989 0.960 . S
H1998 C1990 0.930 . S
H1999 C1991 0.929 . S
H2000 C2008 0.929 . S
H2001 C2010 0.930 . S
H2002 C2012 0.930 . S
H2003 C2015 0.929 . S
H2004 C2018 0.930 . S
H2005 C2020 0.960 . S
H2006 C2020 0.960 . S
H2007 C2020 0.960 . S
C2008 H2000 0.929 . S
C2008 C2009 1.377 . S
C2008 C2010 1.384 . S
C2009 C2008 1.377 . S
C2009 C2015 1.390 . S
C2010 H2001 0.930 . S
C2010 C2008 1.384 . S
C2010 C2011 1.372 . S
C2011 C2010 1.372 . S
C2011 C2012 1.400 . S
C2011 C2016 1.490 . S
C2012 H2002 0.930 . S
C2012 C2011 1.400 . S
C2012 C2015 1.386 . S
H2013 C2029 0.930 . S
H2014 C2030 0.931 . S
C2015 H2003 0.929 . S
C2015 C2009 1.390 . S
C2015 C2012 1.386 . S
C2016 C2011 1.490 . S
C2016 C2018 1.395 . S
C2016 C2019 1.403 . S
H2017 C2023 0.930 . S
C2018 H2004 0.930 . S
C2018 C2016 1.395 . S
C2018 C2021 1.403 . S
C2019 C2016 1.403 . S
C2019 C2020 1.524 . S
C2019 C2023 1.400 . S
C2020 H2005 0.960 . S
C2020 H2006 0.960 . S
C2020 H2007 0.960 . S
C2020 C2019 1.524 . S
C2021 C2018 1.403 . S
C2021 C2022 1.392 . S
C2021 C2025 1.495 . S
C2022 C2021 1.392 . S
C2022 C2023 1.385 . S
C2022 C2024 1.478 . S
C2023 H2017 0.930 . S
C2023 C2019 1.400 . S
C2023 C2022 1.385 . S
C2024 C2022 1.478 . S
C2024 C2026 1.381 . S
C2024 C2030 1.383 . S
C2025 C2021 1.495 . S
C2025 H2031 0.959 . S
C2025 H2032 0.961 . S
C2025 H2033 0.960 . S
C2026 C2024 1.381 . S
C2026 C2027 1.394 . S
C2026 H2034 0.930 . S
C2027 C2026 1.394 . S
C2027 C2028 1.383 . S
C2027 H2035 0.929 . S
C2028 C2027 1.383 . S
C2028 C2029 1.377 . S
C2029 H2013 0.930 . S
C2029 C2028 1.377 . S
C2029 C2030 1.379 . S
C2030 H2014 0.931 . S
C2030 C2024 1.383 . S
C2030 C2029 1.379 . S
H2031 C2025 0.959 . S
H2032 C2025 0.961 . S
H2033 C2025 0.960 . S
H2034 C2026 0.930 . S
H2035 C2027 0.929 . S
H2036 C2044 0.929 . S
H2037 C2046 0.930 . S
H2038 C2048 0.930 . S
H2039 C2051 0.929 . S
H2040 C2054 0.930 . S
H2041 C2056 0.960 . S
H2042 C2056 0.960 . S
H2043 C2056 0.960 . S
C2044 H2036 0.929 . S
C2044 C2045 1.377 . S
C2044 C2046 1.384 . S
C2045 C2044 1.377 . S
C2045 C2051 1.390 . S
C2046 H2037 0.930 . S
C2046 C2044 1.384 . S
C2046 C2047 1.372 . S
C2047 C2046 1.372 . S
C2047 C2048 1.400 . S
C2047 C2052 1.490 . S
C2048 H2038 0.930 . S
C2048 C2047 1.400 . S
C2048 C2051 1.386 . S
H2049 C2065 0.930 . S
H2050 C2066 0.931 . S
C2051 H2039 0.929 . S
C2051 C2045 1.390 . S
C2051 C2048 1.386 . S
C2052 C2047 1.490 . S
C2052 C2054 1.395 . S
C2052 C2055 1.403 . S
H2053 C2059 0.930 1_554 S
C2054 H2040 0.930 . S
C2054 C2052 1.395 . S
C2054 C2057 1.403 . S
C2055 C2052 1.403 . S
C2055 C2056 1.524 1_556 S
C2055 C2059 1.400 . S
C2056 H2041 0.960 . S
C2056 H2042 0.960 . S
C2056 H2043 0.960 . S
C2056 C2055 1.524 1_554 S
C2057 C2054 1.403 . S
C2057 C2058 1.392 . S
C2057 C2061 1.495 . S
C2058 C2057 1.392 . S
C2058 C2059 1.385 . S
C2058 C2060 1.478 . S
C2059 H2053 0.930 1_556 S
C2059 C2055 1.400 . S
C2059 C2058 1.385 . S
C2060 C2058 1.478 . S
C2060 C2062 1.381 . S
C2060 C2066 1.383 . S
C2061 C2057 1.495 . S
C2061 H2067 0.959 . S
C2061 H2068 0.961 . S
C2061 H2069 0.960 . S
C2062 C2060 1.381 . S
C2062 C2063 1.394 . S
C2062 H2070 0.930 . S
C2063 C2062 1.394 . S
C2063 C2064 1.383 . S
C2063 H2071 0.929 . S
C2064 C2063 1.383 . S
C2064 C2065 1.377 . S
C2065 H2049 0.930 . S
C2065 C2064 1.377 . S
C2065 C2066 1.379 . S
C2066 H2050 0.931 . S
C2066 C2060 1.383 . S
C2066 C2065 1.379 . S
H2067 C2061 0.959 . S
H2068 C2061 0.961 . S
H2069 C2061 0.960 . S
H2070 C2062 0.930 . S
H2071 C2063 0.929 . S
H2072 C2080 0.929 . S
H2073 C2082 0.930 . S
H2074 C2084 0.930 . S
H2075 C2087 0.929 . S
H2076 C2090 0.930 . S
H2077 C2092 0.960 . S
H2078 C2092 0.960 . S
H2079 C2092 0.960 . S
C2080 H2072 0.929 . S
C2080 C2081 1.377 . S
C2080 C2082 1.384 . S
C2081 C2080 1.377 . S
C2081 C2087 1.390 . S
C2082 H2073 0.930 . S
C2082 C2080 1.384 . S
C2082 C2083 1.372 . S
C2083 C2082 1.372 . S
C2083 C2084 1.400 . S
C2083 C2088 1.490 . S
C2084 H2074 0.930 . S
C2084 C2083 1.400 . S
C2084 C2087 1.386 . S
H2085 C2101 0.930 . S
H2086 C2102 0.931 . S
C2087 H2075 0.929 . S
C2087 C2081 1.390 . S
C2087 C2084 1.386 . S
C2088 C2083 1.490 . S
C2088 C2090 1.395 . S
C2088 C2091 1.403 . S
H2089 C2095 0.930 . S
C2090 H2076 0.930 . S
C2090 C2088 1.395 . S
C2090 C2093 1.403 . S
C2091 C2088 1.403 . S
C2091 C2092 1.524 . S
C2091 C2095 1.400 . S
C2092 H2077 0.960 . S
C2092 H2078 0.960 . S
C2092 H2079 0.960 . S
C2092 C2091 1.524 . S
C2093 C2090 1.403 . S
C2093 C2094 1.392 . S
C2093 C2097 1.495 . S
C2094 C2093 1.392 . S
C2094 C2095 1.385 . S
C2094 C2096 1.478 . S
C2095 H2089 0.930 . S
C2095 C2091 1.400 . S
C2095 C2094 1.385 . S
C2096 C2094 1.478 . S
C2096 C2098 1.381 . S
C2096 C2102 1.383 . S
C2097 C2093 1.495 . S
C2097 H2103 0.959 . S
C2097 H2104 0.961 . S
C2097 H2105 0.960 . S
C2098 C2096 1.381 . S
C2098 C2099 1.394 . S
C2098 H2106 0.930 . S
C2099 C2098 1.394 . S
C2099 C2100 1.383 . S
C2099 H2107 0.929 . S
C2100 C2099 1.383 . S
C2100 C2101 1.377 . S
C2101 H2085 0.930 . S
C2101 C2100 1.377 . S
C2101 C2102 1.379 . S
C2102 H2086 0.931 . S
C2102 C2096 1.383 . S
C2102 C2101 1.379 . S
H2103 C2097 0.959 . S
H2104 C2097 0.961 . S
H2105 C2097 0.960 . S
H2106 C2098 0.930 . S
H2107 C2099 0.929 . S
H2108 C2116 0.929 . S
H2109 C2118 0.930 . S
H2110 C2120 0.937 . S
H2111 C2123 0.907 1_556 S
H2112 C2126 0.930 . S
H2113 C2128 0.960 . S
H2114 C2128 0.960 . S
H2115 C2128 0.960 . S
C2116 H2108 0.929 . S
C2116 C2117 1.377 . S
C2116 C2118 1.384 . S
C2117 C2116 1.377 . S
C2117 C2123 1.390 . S
C2118 H2109 0.930 . S
C2118 C2116 1.384 . S
C2118 C2119 1.372 . S
C2119 C2118 1.372 . S
C2119 C2120 1.400 . S
C2119 C2124 1.490 . S
C2120 H2110 0.937 . S
C2120 C2119 1.400 . S
C2120 C2123 1.386 . S
H2121 C2137 0.930 1_556 S
H2122 C2138 0.931 1_556 S
C2123 H2111 0.907 1_554 S
C2123 C2117 1.390 . S
C2123 C2120 1.386 . S
C2124 C2119 1.490 . S
C2124 C2126 1.395 . S
C2124 C2127 1.403 . S
H2125 C2131 0.930 . S
C2126 H2112 0.930 . S
C2126 C2124 1.395 . S
C2126 C2129 1.403 . S
C2127 C2124 1.403 . S
C2127 C2128 1.524 . S
C2127 C2131 1.400 . S
C2128 H2113 0.960 . S
C2128 H2114 0.960 . S
C2128 H2115 0.960 . S
C2128 C2127 1.524 . S
C2129 C2126 1.403 . S
C2129 C2130 1.392 . S
C2129 C2133 1.495 . S
C2130 C2129 1.392 . S
C2130 C2131 1.385 . S
C2130 C2132 1.478 . S
C2131 H2125 0.930 . S
C2131 C2127 1.400 . S
C2131 C2130 1.385 . S
C2132 C2130 1.478 . S
C2132 C2134 1.381 . S
C2132 C2138 1.383 . S
C2133 C2129 1.495 . S
C2133 H2139 0.959 . S
C2133 H2140 0.961 . S
C2133 H2141 0.960 . S
C2134 C2132 1.381 . S
C2134 C2135 1.394 . S
C2134 H2142 0.930 . S
C2135 C2134 1.394 . S
C2135 C2136 1.383 . S
C2135 H2143 0.929 . S
C2136 C2135 1.383 . S
C2136 C2137 1.377 . S
C2137 H2121 0.930 1_554 S
C2137 C2136 1.377 . S
C2137 C2138 1.379 . S
C2138 H2122 0.931 1_554 S
C2138 C2132 1.383 . S
C2138 C2137 1.379 . S
H2139 C2133 0.959 . S
H2140 C2133 0.961 . S
H2141 C2133 0.960 . S
H2142 C2134 0.930 . S
H2143 C2135 0.929 . S
H2144 C2152 0.929 . S
H2145 C2154 0.930 . S
H2146 C2156 0.930 . S
H2147 C2159 0.946 . S
H2148 C2162 0.930 . S
H2149 C2164 0.960 . S
H2150 C2164 0.960 . S
H2151 C2164 0.960 . S
C2152 H2144 0.929 . S
C2152 C2153 1.377 . S
C2152 C2154 1.384 . S
C2153 C2152 1.377 . S
C2153 C2159 1.390 . S
C2154 H2145 0.930 . S
C2154 C2152 1.384 . S
C2154 C2155 1.372 . S
C2155 C2154 1.372 . S
C2155 C2156 1.400 . S
C2155 C2160 1.490 . S
C2156 H2146 0.930 . S
C2156 C2155 1.400 . S
C2156 C2159 1.386 . S
H2157 C2173 0.930 . S
H2158 C2174 0.931 . S
C2159 H2147 0.946 . S
C2159 C2153 1.390 . S
C2159 C2156 1.386 . S
C2160 C2155 1.490 . S
C2160 C2162 1.395 . S
C2160 C2163 1.403 . S
H2161 C2167 0.930 . S
C2162 H2148 0.930 . S
C2162 C2160 1.395 . S
C2162 C2165 1.403 . S
C2163 C2160 1.403 . S
C2163 C2164 1.524 . S
C2163 C2167 1.400 . S
C2164 H2149 0.960 . S
C2164 H2150 0.960 . S
C2164 H2151 0.960 . S
C2164 C2163 1.524 . S
C2165 C2162 1.403 . S
C2165 C2166 1.392 . S
C2165 C2169 1.495 . S
C2166 C2165 1.392 . S
C2166 C2167 1.385 . S
C2166 C2168 1.478 . S
C2167 H2161 0.930 . S
C2167 C2163 1.400 . S
C2167 C2166 1.385 . S
C2168 C2166 1.478 . S
C2168 C2170 1.381 . S
C2168 C2174 1.383 . S
C2169 C2165 1.495 . S
C2169 H2175 0.959 . S
C2169 H2176 0.961 . S
C2169 H2177 0.960 . S
C2170 C2168 1.381 . S
C2170 C2171 1.394 . S
C2170 H2178 0.930 . S
C2171 C2170 1.394 . S
C2171 C2172 1.383 . S
C2171 H2179 0.929 . S
C2172 C2171 1.383 . S
C2172 C2173 1.377 . S
C2173 H2157 0.930 . S
C2173 C2172 1.377 . S
C2173 C2174 1.379 . S
C2174 H2158 0.931 . S
C2174 C2168 1.383 . S
C2174 C2173 1.379 . S
H2175 C2169 0.959 . S
H2176 C2169 0.961 . S
H2177 C2169 0.960 . S
H2178 C2170 0.930 . S
H2179 C2171 0.929 . S
H2180 C2188 0.929 . S
H2181 C2190 0.930 . S
H2182 C2192 0.930 . S
H2183 C2195 0.929 . S
H2184 C2198 0.930 . S
H2185 C2200 0.960 . S
H2186 C2200 0.960 . S
H2187 C2200 0.960 . S
C2188 H2180 0.929 . S
C2188 C2189 1.377 . S
C2188 C2190 1.384 . S
C2189 C2188 1.377 . S
C2189 C2195 1.390 . S
C2190 H2181 0.930 . S
C2190 C2188 1.384 . S
C2190 C2191 1.372 . S
C2191 C2190 1.372 . S
C2191 C2192 1.400 . S
C2191 C2196 1.490 . S
C2192 H2182 0.930 . S
C2192 C2191 1.400 . S
C2192 C2195 1.386 . S
H2193 C2209 0.930 . S
H2194 C2210 0.931 . S
C2195 H2183 0.929 . S
C2195 C2189 1.390 . S
C2195 C2192 1.386 . S
C2196 C2191 1.490 . S
C2196 C2198 1.395 . S
C2196 C2199 1.403 . S
H2197 C2203 0.930 . S
C2198 H2184 0.930 . S
C2198 C2196 1.395 . S
C2198 C2201 1.403 . S
C2199 C2196 1.403 . S
C2199 C2200 1.524 . S
C2199 C2203 1.400 . S
C2200 H2185 0.960 . S
C2200 H2186 0.960 . S
C2200 H2187 0.960 . S
C2200 C2199 1.524 . S
C2201 C2198 1.403 . S
C2201 C2202 1.392 . S
C2201 C2205 1.495 . S
C2202 C2201 1.392 . S
C2202 C2203 1.385 . S
C2202 C2204 1.478 . S
C2203 H2197 0.930 . S
C2203 C2199 1.400 . S
C2203 C2202 1.385 . S
C2204 C2202 1.478 . S
C2204 C2206 1.381 . S
C2204 C2210 1.383 . S
C2205 C2201 1.495 . S
C2205 H2211 0.959 . S
C2205 H2212 0.961 . S
C2205 H2213 0.960 . S
C2206 C2204 1.381 . S
C2206 C2207 1.394 . S
C2206 H2214 0.930 . S
C2207 C2206 1.394 . S
C2207 C2208 1.383 . S
C2207 H2215 0.929 . S
C2208 C2207 1.383 . S
C2208 C2209 1.377 . S
C2209 H2193 0.930 . S
C2209 C2208 1.377 . S
C2209 C2210 1.379 . S
C2210 H2194 0.931 . S
C2210 C2204 1.383 . S
C2210 C2209 1.379 . S
H2211 C2205 0.959 . S
H2212 C2205 0.961 . S
H2213 C2205 0.960 . S
H2214 C2206 0.930 . S
H2215 C2207 0.929 . S
H2216 C2224 0.929 . S
H2217 C2226 0.930 . S
H2218 C2228 0.930 . S
H2219 C2231 0.929 . S
H2220 C2234 0.930 . S
H2221 C2236 0.960 . S
H2222 C2236 0.960 . S
H2223 C2236 0.960 . S
C2224 H2216 0.929 . S
C2224 C2225 1.377 . S
C2224 C2226 1.384 . S
C2225 C2224 1.377 . S
C2225 C2231 1.390 . S
C2226 H2217 0.930 . S
C2226 C2224 1.384 . S
C2226 C2227 1.372 . S
C2227 C2226 1.372 . S
C2227 C2228 1.400 . S
C2227 C2232 1.490 . S
C2228 H2218 0.930 . S
C2228 C2227 1.400 . S
C2228 C2231 1.386 . S
H2229 C2245 0.927 1_455 S
H2230 C2246 0.931 . S
C2231 H2219 0.929 . S
C2231 C2225 1.390 . S
C2231 C2228 1.386 . S
C2232 C2227 1.490 . S
C2232 C2234 1.395 . S
C2232 C2235 1.403 . S
H2233 C2239 0.930 . S
C2234 H2220 0.930 . S
C2234 C2232 1.395 . S
C2234 C2237 1.403 . S
C2235 C2232 1.403 . S
C2235 C2236 1.524 . S
C2235 C2239 1.400 . S
C2236 H2221 0.960 . S
C2236 H2222 0.960 . S
C2236 H2223 0.960 . S
C2236 C2235 1.524 . S
C2237 C2234 1.403 . S
C2237 C2238 1.392 . S
C2237 C2241 1.495 . S
C2238 C2237 1.392 . S
C2238 C2239 1.385 . S
C2238 C2240 1.478 . S
C2239 H2233 0.930 . S
C2239 C2235 1.400 . S
C2239 C2238 1.385 . S
C2240 C2238 1.478 . S
C2240 C2242 1.381 . S
C2240 C2246 1.383 . S
C2241 C2237 1.495 . S
C2241 H2247 0.959 . S
C2241 H2248 0.961 . S
C2241 H2249 0.960 . S
C2242 C2240 1.381 . S
C2242 C2243 1.394 . S
C2242 H2250 0.930 . S
C2243 C2242 1.394 . S
C2243 C2244 1.383 . S
C2243 H2251 0.929 . S
C2244 C2243 1.383 . S
C2244 C2245 1.377 . S
C2245 H2229 0.927 1_655 S
C2245 C2244 1.377 . S
C2245 C2246 1.379 . S
C2246 H2230 0.931 . S
C2246 C2240 1.383 . S
C2246 C2245 1.379 . S
H2247 C2241 0.959 . S
H2248 C2241 0.961 . S
H2249 C2241 0.960 . S
H2250 C2242 0.930 . S
H2251 C2243 0.929 . S
H2252 C2260 0.929 . S
H2253 C2262 0.930 . S
H2254 C2264 0.930 . S
H2255 C2267 0.929 . S
H2256 C2270 0.930 . S
H2257 C2272 0.960 . S
H2258 C2272 0.960 . S
H2259 C2272 0.960 . S
C2260 H2252 0.929 . S
C2260 C2261 1.377 . S
C2260 C2262 1.384 . S
C2261 C2260 1.377 . S
C2261 C2267 1.390 . S
C2262 H2253 0.930 . S
C2262 C2260 1.384 . S
C2262 C2263 1.372 . S
C2263 C2262 1.372 . S
C2263 C2264 1.400 . S
C2263 C2268 1.490 . S
C2264 H2254 0.930 . S
C2264 C2263 1.400 . S
C2264 C2267 1.386 . S
H2265 C2281 0.930 . S
H2266 C2282 0.931 . S
C2267 H2255 0.929 . S
C2267 C2261 1.390 . S
C2267 C2264 1.386 . S
C2268 C2263 1.490 . S
C2268 C2270 1.395 . S
C2268 C2271 1.403 . S
H2269 C2275 0.930 . S
C2270 H2256 0.930 . S
C2270 C2268 1.395 . S
C2270 C2273 1.403 . S
C2271 C2268 1.403 . S
C2271 C2272 1.524 . S
C2271 C2275 1.400 . S
C2272 H2257 0.960 . S
C2272 H2258 0.960 . S
C2272 H2259 0.960 . S
C2272 C2271 1.524 . S
C2273 C2270 1.403 . S
C2273 C2274 1.392 . S
C2273 C2277 1.495 . S
C2274 C2273 1.392 . S
C2274 C2275 1.385 . S
C2274 C2276 1.478 . S
C2275 H2269 0.930 . S
C2275 C2271 1.400 . S
C2275 C2274 1.385 . S
C2276 C2274 1.478 . S
C2276 C2278 1.381 . S
C2276 C2282 1.383 . S
C2277 C2273 1.495 . S
C2277 H2283 0.959 . S
C2277 H2284 0.961 . S
C2277 H2285 0.960 . S
C2278 C2276 1.381 . S
C2278 C2279 1.394 . S
C2278 H2286 0.930 . S
C2279 C2278 1.394 . S
C2279 C2280 1.383 . S
C2279 H2287 0.929 . S
C2280 C2279 1.383 . S
C2280 C2281 1.377 . S
C2281 H2265 0.930 . S
C2281 C2280 1.377 . S
C2281 C2282 1.379 . S
C2282 H2266 0.931 . S
C2282 C2276 1.383 . S
C2282 C2281 1.379 . S
H2283 C2277 0.959 . S
H2284 C2277 0.961 . S
H2285 C2277 0.960 . S
H2286 C2278 0.930 . S
H2287 C2279 0.929 . S
H2288 C2296 0.929 . S
H2289 C2298 0.930 . S
H2290 C2300 0.930 . S
H2291 C2303 0.929 . S
H2292 C2306 0.930 . S
H2293 C2308 0.960 . S
H2294 C2308 0.960 . S
H2295 C2308 0.960 . S
C2296 H2288 0.929 . S
C2296 C2297 1.377 . S
C2296 C2298 1.384 . S
C2297 C2296 1.377 . S
C2297 C2303 1.390 . S
C2298 H2289 0.930 . S
C2298 C2296 1.384 . S
C2298 C2299 1.372 . S
C2299 C2298 1.372 . S
C2299 C2300 1.400 . S
C2299 C2304 1.490 . S
C2300 H2290 0.930 . S
C2300 C2299 1.400 . S
C2300 C2303 1.386 . S
H2301 C2317 0.930 1_655 S
H2302 C2318 0.931 . S
C2303 H2291 0.929 . S
C2303 C2297 1.390 . S
C2303 C2300 1.386 . S
C2304 C2299 1.490 . S
C2304 C2306 1.395 . S
C2304 C2307 1.403 . S
H2305 C2311 0.930 . S
C2306 H2292 0.930 . S
C2306 C2304 1.395 . S
C2306 C2309 1.403 . S
C2307 C2304 1.403 . S
C2307 C2308 1.524 . S
C2307 C2311 1.400 . S
C2308 H2293 0.960 . S
C2308 H2294 0.960 . S
C2308 H2295 0.960 . S
C2308 C2307 1.524 . S
C2309 C2306 1.403 . S
C2309 C2310 1.392 . S
C2309 C2313 1.495 . S
C2310 C2309 1.392 . S
C2310 C2311 1.385 . S
C2310 C2312 1.478 . S
C2311 H2305 0.930 . S
C2311 C2307 1.400 . S
C2311 C2310 1.385 . S
C2312 C2310 1.478 . S
C2312 C2314 1.381 . S
C2312 C2318 1.383 . S
C2313 C2309 1.495 . S
C2313 H2319 0.959 . S
C2313 H2320 0.961 . S
C2313 H2321 0.960 . S
C2314 C2312 1.381 . S
C2314 C2315 1.394 . S
C2314 H2322 0.930 . S
C2315 C2314 1.394 . S
C2315 C2316 1.383 . S
C2315 H2323 0.929 . S
C2316 C2315 1.383 . S
C2316 C2317 1.377 . S
C2317 H2301 0.930 1_455 S
C2317 C2316 1.377 . S
C2317 C2318 1.379 . S
C2318 H2302 0.931 . S
C2318 C2312 1.383 . S
C2318 C2317 1.379 . S
H2319 C2313 0.959 . S
H2320 C2313 0.961 . S
H2321 C2313 0.960 . S
H2322 C2314 0.930 . S
H2323 C2315 0.929 . S
H2324 C2332 0.929 . S
H2325 C2334 0.930 . S
H2326 C2336 0.930 . S
H2327 C2339 0.929 . S
H2328 C2342 0.930 . S
H2329 C2344 0.960 . S
H2330 C2344 0.960 . S
H2331 C2344 0.960 . S
C2332 H2324 0.929 . S
C2332 C2333 1.377 . S
C2332 C2334 1.384 . S
C2333 C2332 1.377 . S
C2333 C2339 1.390 . S
C2334 H2325 0.930 . S
C2334 C2332 1.384 . S
C2334 C2335 1.372 . S
C2335 C2334 1.372 . S
C2335 C2336 1.400 . S
C2335 C2340 1.490 . S
C2336 H2326 0.930 . S
C2336 C2335 1.400 . S
C2336 C2339 1.386 . S
H2337 C2353 0.930 . S
H2338 C2354 0.931 . S
C2339 H2327 0.929 . S
C2339 C2333 1.390 . S
C2339 C2336 1.386 . S
C2340 C2335 1.490 . S
C2340 C2342 1.395 . S
C2340 C2343 1.403 . S
H2341 C2347 0.930 . S
C2342 H2328 0.930 . S
C2342 C2340 1.395 . S
C2342 C2345 1.403 . S
C2343 C2340 1.403 . S
C2343 C2344 1.524 . S
C2343 C2347 1.400 . S
C2344 H2329 0.960 . S
C2344 H2330 0.960 . S
C2344 H2331 0.960 . S
C2344 C2343 1.524 . S
C2345 C2342 1.403 . S
C2345 C2346 1.392 . S
C2345 C2349 1.495 . S
C2346 C2345 1.392 . S
C2346 C2347 1.385 . S
C2346 C2348 1.478 . S
C2347 H2341 0.930 . S
C2347 C2343 1.400 . S
C2347 C2346 1.385 . S
C2348 C2346 1.478 . S
C2348 C2350 1.381 . S
C2348 C2354 1.383 . S
C2349 C2345 1.495 . S
C2349 H2355 0.959 . S
C2349 H2356 0.961 . S
C2349 H2357 0.960 . S
C2350 C2348 1.381 . S
C2350 C2351 1.394 . S
C2350 H2358 0.930 . S
C2351 C2350 1.394 . S
C2351 C2352 1.383 . S
C2351 H2359 0.929 . S
C2352 C2351 1.383 . S
C2352 C2353 1.377 . S
C2353 H2337 0.930 . S
C2353 C2352 1.377 . S
C2353 C2354 1.379 . S
C2354 H2338 0.931 . S
C2354 C2348 1.383 . S
C2354 C2353 1.379 . S
H2355 C2349 0.959 . S
H2356 C2349 0.961 . S
H2357 C2349 0.960 . S
H2358 C2350 0.930 . S
H2359 C2351 0.929 . S
H2360 C2368 0.929 . S
H2361 C2370 0.930 . S
H2362 C2372 0.930 . S
H2363 C2375 0.929 . S
H2364 C2378 0.930 . S
H2365 C2380 0.960 . S
H2366 C2380 0.960 . S
H2367 C2380 0.960 . S
C2368 H2360 0.929 . S
C2368 C2369 1.377 . S
C2368 C2370 1.384 . S
C2369 C2368 1.377 . S
C2369 C2375 1.390 . S
C2370 H2361 0.930 . S
C2370 C2368 1.384 . S
C2370 C2371 1.372 . S
C2371 C2370 1.372 . S
C2371 C2372 1.400 . S
C2371 C2376 1.490 . S
C2372 H2362 0.930 . S
C2372 C2371 1.400 . S
C2372 C2375 1.386 . S
H2373 C2389 0.930 . S
H2374 C2390 0.931 . S
C2375 H2363 0.929 . S
C2375 C2369 1.390 . S
C2375 C2372 1.386 . S
C2376 C2371 1.490 . S
C2376 C2378 1.395 . S
C2376 C2379 1.403 . S
H2377 C2383 0.930 . S
C2378 H2364 0.930 . S
C2378 C2376 1.395 . S
C2378 C2381 1.403 . S
C2379 C2376 1.403 . S
C2379 C2380 1.524 . S
C2379 C2383 1.400 . S
C2380 H2365 0.960 . S
C2380 H2366 0.960 . S
C2380 H2367 0.960 . S
C2380 C2379 1.524 . S
C2381 C2378 1.403 . S
C2381 C2382 1.392 . S
C2381 C2385 1.495 . S
C2382 C2381 1.392 . S
C2382 C2383 1.385 . S
C2382 C2384 1.478 . S
C2383 H2377 0.930 . S
C2383 C2379 1.400 . S
C2383 C2382 1.385 . S
C2384 C2382 1.478 . S
C2384 C2386 1.381 . S
C2384 C2390 1.383 . S
C2385 C2381 1.495 . S
C2385 H2391 0.959 . S
C2385 H2392 0.961 . S
C2385 H2393 0.960 . S
C2386 C2384 1.381 . S
C2386 C2387 1.394 . S
C2386 H2394 0.930 . S
C2387 C2386 1.394 . S
C2387 C2388 1.383 . S
C2387 H2395 0.929 1_455 S
C2388 C2387 1.383 . S
C2388 C2389 1.377 . S
C2389 H2373 0.930 . S
C2389 C2388 1.377 . S
C2389 C2390 1.379 . S
C2390 H2374 0.931 . S
C2390 C2384 1.383 . S
C2390 C2389 1.379 . S
H2391 C2385 0.959 . S
H2392 C2385 0.961 . S
H2393 C2385 0.960 . S
H2394 C2386 0.930 . S
H2395 C2387 0.929 1_655 S
H2396 C2404 0.929 . S
H2397 C2406 0.930 . S
H2398 C2408 0.930 . S
H2399 C2411 0.929 . S
H2400 C2414 0.930 . S
H2401 C2416 0.960 . S
H2402 C2416 0.960 . S
H2403 C2416 0.960 . S
C2404 H2396 0.929 . S
C2404 C2405 1.377 . S
C2404 C2406 1.384 . S
C2405 C2404 1.377 . S
C2405 C2411 1.390 . S
C2406 H2397 0.930 . S
C2406 C2404 1.384 . S
C2406 C2407 1.372 . S
C2407 C2406 1.372 . S
C2407 C2408 1.400 . S
C2407 C2412 1.490 . S
C2408 H2398 0.930 . S
C2408 C2407 1.400 . S
C2408 C2411 1.386 . S
H2409 C2425 0.930 . S
H2410 C2426 0.931 . S
C2411 H2399 0.929 . S
C2411 C2405 1.390 . S
C2411 C2408 1.386 . S
C2412 C2407 1.490 . S
C2412 C2414 1.395 . S
C2412 C2415 1.403 . S
H2413 C2419 0.930 . S
C2414 H2400 0.930 . S
C2414 C2412 1.395 . S
C2414 C2417 1.403 . S
C2415 C2412 1.403 . S
C2415 C2416 1.524 . S
C2415 C2419 1.400 . S
C2416 H2401 0.960 . S
C2416 H2402 0.960 . S
C2416 H2403 0.960 . S
C2416 C2415 1.524 . S
C2417 C2414 1.403 . S
C2417 C2418 1.392 . S
C2417 C2421 1.495 . S
C2418 C2417 1.392 . S
C2418 C2419 1.385 . S
C2418 C2420 1.478 . S
C2419 H2413 0.930 . S
C2419 C2415 1.400 . S
C2419 C2418 1.385 . S
C2420 C2418 1.478 . S
C2420 C2422 1.381 . S
C2420 C2426 1.383 . S
C2421 C2417 1.495 . S
C2421 H2427 0.959 . S
C2421 H2428 0.961 . S
C2421 H2429 0.960 . S
C2422 C2420 1.381 . S
C2422 C2423 1.394 . S
C2422 H2430 0.930 . S
C2423 C2422 1.394 . S
C2423 C2424 1.383 . S
C2423 H2431 0.929 . S
C2424 C2423 1.383 . S
C2424 C2425 1.377 . S
C2425 H2409 0.930 . S
C2425 C2424 1.377 . S
C2425 C2426 1.379 . S
C2426 H2410 0.931 . S
C2426 C2420 1.383 . S
C2426 C2425 1.379 . S
H2427 C2421 0.959 . S
H2428 C2421 0.961 . S
H2429 C2421 0.960 . S
H2430 C2422 0.930 . S
H2431 C2423 0.929 . S
H2432 C2440 0.929 . S
H2433 C2442 0.930 . S
H2434 C2444 0.930 . S
H2435 C2447 0.929 . S
H2436 C2450 0.930 . S
H2437 C2452 0.960 . S
H2438 C2452 0.960 . S
H2439 C2452 0.960 . S
C2440 H2432 0.929 . S
C2440 C2441 1.377 . S
C2440 C2442 1.384 . S
C2441 C2440 1.377 . S
C2441 C2447 1.390 . S
C2442 H2433 0.930 . S
C2442 C2440 1.384 . S
C2442 C2443 1.372 . S
C2443 C2442 1.372 . S
C2443 C2444 1.400 . S
C2443 C2448 1.490 . S
C2444 H2434 0.930 . S
C2444 C2443 1.400 . S
C2444 C2447 1.386 . S
H2445 C2461 0.930 . S
H2446 C2462 0.931 . S
C2447 H2435 0.929 . S
C2447 C2441 1.390 . S
C2447 C2444 1.386 . S
C2448 C2443 1.490 . S
C2448 C2450 1.395 . S
C2448 C2451 1.403 . S
H2449 C2455 0.930 . S
C2450 H2436 0.930 . S
C2450 C2448 1.395 . S
C2450 C2453 1.403 . S
C2451 C2448 1.403 . S
C2451 C2452 1.524 . S
C2451 C2455 1.400 . S
C2452 H2437 0.960 . S
C2452 H2438 0.960 . S
C2452 H2439 0.960 . S
C2452 C2451 1.524 . S
C2453 C2450 1.403 . S
C2453 C2454 1.392 . S
C2453 C2457 1.495 . S
C2454 C2453 1.392 . S
C2454 C2455 1.385 . S
C2454 C2456 1.478 . S
C2455 H2449 0.930 . S
C2455 C2451 1.400 . S
C2455 C2454 1.385 . S
C2456 C2454 1.478 . S
C2456 C2458 1.381 . S
C2456 C2462 1.383 . S
C2457 C2453 1.495 . S
C2457 H2463 0.959 . S
C2457 H2464 0.961 . S
C2457 H2465 0.960 . S
C2458 C2456 1.381 . S
C2458 C2459 1.394 . S
C2458 H2466 0.930 . S
C2459 C2458 1.394 . S
C2459 C2460 1.383 . S
C2459 H2467 0.929 . S
C2460 C2459 1.383 . S
C2460 C2461 1.377 . S
C2461 H2445 0.930 . S
C2461 C2460 1.377 . S
C2461 C2462 1.379 . S
C2462 H2446 0.931 . S
C2462 C2456 1.383 . S
C2462 C2461 1.379 . S
H2463 C2457 0.959 . S
H2464 C2457 0.961 . S
H2465 C2457 0.960 . S
H2466 C2458 0.930 . S
H2467 C2459 0.929 . S
H2468 C2476 0.929 . S
H2469 C2478 0.930 . S
H2470 C2480 0.930 . S
H2471 C2483 0.929 . S
H2472 C2486 0.930 . S
H2473 C2488 0.960 . S
H2474 C2488 0.960 . S
H2475 C2488 0.960 . S
C2476 H2468 0.929 . S
C2476 C2477 1.377 . S
C2476 C2478 1.384 . S
C2477 C2476 1.377 . S
C2477 C2483 1.390 . S
C2478 H2469 0.930 . S
C2478 C2476 1.384 . S
C2478 C2479 1.372 . S
C2479 C2478 1.372 . S
C2479 C2480 1.400 . S
C2479 C2484 1.490 . S
C2480 H2470 0.930 . S
C2480 C2479 1.400 . S
C2480 C2483 1.386 . S
H2481 C2497 0.930 . S
H2482 C2498 0.931 . S
C2483 H2471 0.929 . S
C2483 C2477 1.390 . S
C2483 C2480 1.386 . S
C2484 C2479 1.490 . S
C2484 C2486 1.395 . S
C2484 C2487 1.403 . S
H2485 C2491 0.930 . S
C2486 H2472 0.930 . S
C2486 C2484 1.395 . S
C2486 C2489 1.403 . S
C2487 C2484 1.403 . S
C2487 C2488 1.524 . S
C2487 C2491 1.400 . S
C2488 H2473 0.960 . S
C2488 H2474 0.960 . S
C2488 H2475 0.960 . S
C2488 C2487 1.524 . S
C2489 C2486 1.403 . S
C2489 C2490 1.392 . S
C2489 C2493 1.495 . S
C2490 C2489 1.392 . S
C2490 C2491 1.385 . S
C2490 C2492 1.478 . S
C2491 H2485 0.930 . S
C2491 C2487 1.400 . S
C2491 C2490 1.385 . S
C2492 C2490 1.478 . S
C2492 C2494 1.381 . S
C2492 C2498 1.383 . S
C2493 C2489 1.495 . S
C2493 H2499 0.959 . S
C2493 H2500 0.961 . S
C2493 H2501 0.960 . S
C2494 C2492 1.381 . S
C2494 C2495 1.394 . S
C2494 H2502 0.930 . S
C2495 C2494 1.394 . S
C2495 C2496 1.383 . S
C2495 H2503 0.929 . S
C2496 C2495 1.383 . S
C2496 C2497 1.377 . S
C2497 H2481 0.930 . S
C2497 C2496 1.377 . S
C2497 C2498 1.379 . S
C2498 H2482 0.931 . S
C2498 C2492 1.383 . S
C2498 C2497 1.379 . S
H2499 C2493 0.959 . S
H2500 C2493 0.961 . S
H2501 C2493 0.960 . S
H2502 C2494 0.930 . S
H2503 C2495 0.929 . S
H2504 C2512 0.929 . S
H2505 C2514 0.930 . S
H2506 C2516 0.930 . S
H2507 C2519 0.929 1_455 S
H2508 C2522 0.930 . S
H2509 C2524 0.960 . S
H2510 C2524 0.960 . S
H2511 C2524 0.960 . S
C2512 H2504 0.929 . S
C2512 C2513 1.377 . S
C2512 C2514 1.384 . S
C2513 C2512 1.377 . S
C2513 C2519 1.390 . S
C2514 H2505 0.930 . S
C2514 C2512 1.384 . S
C2514 C2515 1.372 . S
C2515 C2514 1.372 . S
C2515 C2516 1.400 . S
C2515 C2520 1.490 . S
C2516 H2506 0.930 . S
C2516 C2515 1.400 . S
C2516 C2519 1.386 . S
H2517 C2533 0.930 . S
H2518 C2534 0.931 . S
C2519 H2507 0.929 1_655 S
C2519 C2513 1.390 . S
C2519 C2516 1.386 . S
C2520 C2515 1.490 . S
C2520 C2522 1.395 . S
C2520 C2523 1.403 . S
H2521 C2527 0.930 . S
C2522 H2508 0.930 . S
C2522 C2520 1.395 . S
C2522 C2525 1.403 . S
C2523 C2520 1.403 . S
C2523 C2524 1.524 . S
C2523 C2527 1.400 . S
C2524 H2509 0.960 . S
C2524 H2510 0.960 . S
C2524 H2511 0.960 . S
C2524 C2523 1.524 . S
C2525 C2522 1.403 . S
C2525 C2526 1.392 . S
C2525 C2529 1.495 . S
C2526 C2525 1.392 . S
C2526 C2527 1.385 . S
C2526 C2528 1.478 . S
C2527 H2521 0.930 . S
C2527 C2523 1.400 . S
C2527 C2526 1.385 . S
C2528 C2526 1.478 . S
C2528 C2530 1.381 . S
C2528 C2534 1.383 . S
C2529 C2525 1.495 . S
C2529 H2535 0.959 . S
C2529 H2536 0.961 . S
C2529 H2537 0.960 . S
C2530 C2528 1.381 . S
C2530 C2531 1.394 . S
C2530 H2538 0.930 . S
C2531 C2530 1.394 . S
C2531 C2532 1.383 . S
C2531 H2539 0.929 . S
C2532 C2531 1.383 . S
C2532 C2533 1.377 . S
C2533 H2517 0.930 . S
C2533 C2532 1.377 . S
C2533 C2534 1.379 . S
C2534 H2518 0.931 . S
C2534 C2528 1.383 . S
C2534 C2533 1.379 . S
H2535 C2529 0.959 . S
H2536 C2529 0.961 . S
H2537 C2529 0.960 . S
H2538 C2530 0.930 . S
H2539 C2531 0.929 . S
H2540 C2548 0.929 . S
H2541 C2550 0.930 . S
H2542 C2552 0.930 . S
H2543 C2555 0.929 . S
H2544 C2558 0.930 . S
H2545 C2560 0.960 . S
H2546 C2560 0.960 . S
H2547 C2560 0.960 . S
C2548 H2540 0.929 . S
C2548 C2549 1.377 . S
C2548 C2550 1.384 . S
C2549 C2548 1.377 . S
C2549 C2555 1.390 . S
C2550 H2541 0.930 . S
C2550 C2548 1.384 . S
C2550 C2551 1.372 . S
C2551 C2550 1.372 . S
C2551 C2552 1.400 . S
C2551 C2556 1.490 . S
C2552 H2542 0.930 . S
C2552 C2551 1.400 . S
C2552 C2555 1.386 . S
H2553 C2569 0.930 . S
H2554 C2570 0.931 . S
C2555 H2543 0.929 . S
C2555 C2549 1.390 . S
C2555 C2552 1.386 . S
C2556 C2551 1.490 . S
C2556 C2558 1.395 . S
C2556 C2559 1.403 . S
H2557 C2563 0.930 . S
C2558 H2544 0.930 . S
C2558 C2556 1.395 . S
C2558 C2561 1.403 . S
C2559 C2556 1.403 . S
C2559 C2560 1.524 . S
C2559 C2563 1.400 . S
C2560 H2545 0.960 . S
C2560 H2546 0.960 . S
C2560 H2547 0.960 . S
C2560 C2559 1.524 . S
C2561 C2558 1.403 . S
C2561 C2562 1.392 . S
C2561 C2565 1.495 . S
C2562 C2561 1.392 . S
C2562 C2563 1.385 . S
C2562 C2564 1.478 . S
C2563 H2557 0.930 . S
C2563 C2559 1.400 . S
C2563 C2562 1.385 . S
C2564 C2562 1.478 . S
C2564 C2566 1.381 . S
C2564 C2570 1.383 . S
C2565 C2561 1.495 . S
C2565 H2571 0.959 . S
C2565 H2572 0.961 . S
C2565 H2573 0.960 . S
C2566 C2564 1.381 . S
C2566 C2567 1.394 . S
C2566 H2574 0.930 . S
C2567 C2566 1.394 . S
C2567 C2568 1.383 . S
C2567 H2575 0.929 . S
C2568 C2567 1.383 . S
C2568 C2569 1.377 . S
C2569 H2553 0.930 . S
C2569 C2568 1.377 . S
C2569 C2570 1.379 . S
C2570 H2554 0.931 . S
C2570 C2564 1.383 . S
C2570 C2569 1.379 . S
H2571 C2565 0.959 . S
H2572 C2565 0.961 . S
H2573 C2565 0.960 . S
H2574 C2566 0.930 . S
H2575 C2567 0.929 . S
H2576 C2584 0.929 1_655 S
H2577 C2586 0.930 . S
H2578 C2588 0.930 . S
H2579 C2591 0.929 . S
H2580 C2594 0.930 . S
H2581 C2596 0.960 . S
H2582 C2596 0.960 . S
H2583 C2596 0.960 . S
C2584 H2576 0.929 1_455 S
C2584 C2585 1.377 . S
C2584 C2586 1.384 . S
C2585 C2584 1.377 . S
C2585 C2591 1.390 . S
C2586 H2577 0.930 . S
C2586 C2584 1.384 . S
C2586 C2587 1.372 . S
C2587 C2586 1.372 . S
C2587 C2588 1.400 . S
C2587 C2592 1.490 . S
C2588 H2578 0.930 . S
C2588 C2587 1.400 . S
C2588 C2591 1.386 . S
H2589 C2605 0.930 . S
H2590 C2606 0.931 . S
C2591 H2579 0.929 . S
C2591 C2585 1.390 . S
C2591 C2588 1.386 . S
C2592 C2587 1.490 . S
C2592 C2594 1.395 . S
C2592 C2595 1.403 . S
H2593 C2599 0.930 . S
C2594 H2580 0.930 . S
C2594 C2592 1.395 . S
C2594 C2597 1.403 . S
C2595 C2592 1.403 . S
C2595 C2596 1.524 . S
C2595 C2599 1.400 . S
C2596 H2581 0.960 . S
C2596 H2582 0.960 . S
C2596 H2583 0.960 . S
C2596 C2595 1.524 . S
C2597 C2594 1.403 . S
C2597 C2598 1.392 . S
C2597 C2601 1.495 . S
C2598 C2597 1.392 . S
C2598 C2599 1.385 . S
C2598 C2600 1.478 . S
C2599 H2593 0.930 . S
C2599 C2595 1.400 . S
C2599 C2598 1.385 . S
C2600 C2598 1.478 . S
C2600 C2602 1.381 . S
C2600 C2606 1.383 . S
C2601 C2597 1.495 . S
C2601 H2607 0.959 . S
C2601 H2608 0.961 . S
C2601 H2609 0.960 . S
C2602 C2600 1.381 . S
C2602 C2603 1.394 . S
C2602 H2610 0.930 . S
C2603 C2602 1.394 . S
C2603 C2604 1.383 . S
C2603 H2611 0.929 . S
C2604 C2603 1.383 . S
C2604 C2605 1.377 . S
C2605 H2589 0.930 . S
C2605 C2604 1.377 . S
C2605 C2606 1.379 . S
C2606 H2590 0.931 . S
C2606 C2600 1.383 . S
C2606 C2605 1.379 . S
H2607 C2601 0.959 . S
H2608 C2601 0.961 . S
H2609 C2601 0.960 . S
H2610 C2602 0.930 . S
H2611 C2603 0.929 . S
H2612 C2620 0.929 . S
H2613 C2622 0.930 . S
H2614 C2624 0.930 . S
H2615 C2627 0.929 . S
H2616 C2630 0.930 . S
H2617 C2632 0.960 . S
H2618 C2632 0.960 . S
H2619 C2632 0.960 . S
C2620 H2612 0.929 . S
C2620 C2621 1.377 . S
C2620 C2622 1.384 . S
C2621 C2620 1.377 . S
C2621 C2627 1.390 . S
C2622 H2613 0.930 . S
C2622 C2620 1.384 . S
C2622 C2623 1.372 . S
C2623 C2622 1.372 . S
C2623 C2624 1.400 . S
C2623 C2628 1.490 . S
C2624 H2614 0.930 . S
C2624 C2623 1.400 . S
C2624 C2627 1.386 . S
H2625 C2641 0.930 . S
H2626 C2642 0.931 . S
C2627 H2615 0.929 . S
C2627 C2621 1.390 . S
C2627 C2624 1.386 . S
C2628 C2623 1.490 . S
C2628 C2630 1.395 . S
C2628 C2631 1.403 . S
H2629 C2635 0.930 . S
C2630 H2616 0.930 . S
C2630 C2628 1.395 . S
C2630 C2633 1.403 . S
C2631 C2628 1.403 . S
C2631 C2632 1.524 . S
C2631 C2635 1.400 . S
C2632 H2617 0.960 . S
C2632 H2618 0.960 . S
C2632 H2619 0.960 . S
C2632 C2631 1.524 . S
C2633 C2630 1.403 . S
C2633 C2634 1.392 . S
C2633 C2637 1.495 . S
C2634 C2633 1.392 . S
C2634 C2635 1.385 . S
C2634 C2636 1.478 . S
C2635 H2629 0.930 . S
C2635 C2631 1.400 . S
C2635 C2634 1.385 . S
C2636 C2634 1.478 . S
C2636 C2638 1.381 . S
C2636 C2642 1.383 . S
C2637 C2633 1.495 . S
C2637 H2643 0.959 . S
C2637 H2644 0.961 . S
C2637 H2645 0.960 . S
C2638 C2636 1.381 . S
C2638 C2639 1.394 . S
C2638 H2646 0.930 . S
C2639 C2638 1.394 . S
C2639 C2640 1.383 . S
C2639 H2647 0.929 . S
C2640 C2639 1.383 . S
C2640 C2641 1.377 . S
C2641 H2625 0.930 . S
C2641 C2640 1.377 . S
C2641 C2642 1.379 . S
C2642 H2626 0.931 . S
C2642 C2636 1.383 . S
C2642 C2641 1.379 . S
H2643 C2637 0.959 . S
H2644 C2637 0.961 . S
H2645 C2637 0.960 . S
H2646 C2638 0.930 . S
H2647 C2639 0.929 . S
H2648 C2656 0.929 . S
H2649 C2658 0.930 . S
H2650 C2660 0.930 . S
H2651 C2663 0.929 . S
H2652 C2666 0.930 . S
H2653 C2668 0.960 . S
H2654 C2668 0.960 . S
H2655 C2668 0.960 . S
C2656 H2648 0.929 . S
C2656 C2657 1.377 . S
C2656 C2658 1.384 . S
C2657 C2656 1.377 . S
C2657 C2663 1.390 . S
C2658 H2649 0.930 . S
C2658 C2656 1.384 . S
C2658 C2659 1.372 . S
C2659 C2658 1.372 . S
C2659 C2660 1.400 . S
C2659 C2664 1.490 . S
C2660 H2650 0.930 . S
C2660 C2659 1.400 . S
C2660 C2663 1.386 . S
H2661 C2677 0.930 . S
H2662 C2678 0.931 . S
C2663 H2651 0.929 . S
C2663 C2657 1.390 . S
C2663 C2660 1.386 . S
C2664 C2659 1.490 . S
C2664 C2666 1.395 . S
C2664 C2667 1.403 . S
H2665 C2671 0.930 . S
C2666 H2652 0.930 . S
C2666 C2664 1.395 . S
C2666 C2669 1.403 . S
C2667 C2664 1.403 . S
C2667 C2668 1.524 . S
C2667 C2671 1.400 . S
C2668 H2653 0.960 . S
C2668 H2654 0.960 . S
C2668 H2655 0.960 . S
C2668 C2667 1.524 . S
C2669 C2666 1.403 . S
C2669 C2670 1.392 . S
C2669 C2673 1.495 . S
C2670 C2669 1.392 . S
C2670 C2671 1.385 . S
C2670 C2672 1.478 . S
C2671 H2665 0.930 . S
C2671 C2667 1.400 . S
C2671 C2670 1.385 . S
C2672 C2670 1.478 . S
C2672 C2674 1.381 . S
C2672 C2678 1.383 . S
C2673 C2669 1.495 . S
C2673 H2679 0.959 . S
C2673 H2680 0.961 . S
C2673 H2681 0.960 . S
C2674 C2672 1.381 . S
C2674 C2675 1.394 . S
C2674 H2682 0.930 . S
C2675 C2674 1.394 . S
C2675 C2676 1.383 . S
C2675 H2683 0.929 . S
C2676 C2675 1.383 . S
C2676 C2677 1.377 . S
C2677 H2661 0.930 . S
C2677 C2676 1.377 . S
C2677 C2678 1.379 . S
C2678 H2662 0.931 . S
C2678 C2672 1.383 . S
C2678 C2677 1.379 . S
H2679 C2673 0.959 . S
H2680 C2673 0.961 . S
H2681 C2673 0.960 . S
H2682 C2674 0.930 . S
H2683 C2675 0.929 . S
H2684 C2692 0.929 . S
H2685 C2694 0.930 . S
H2686 C2696 0.930 . S
H2687 C2699 0.929 . S
H2688 C2702 0.930 . S
H2689 C2704 0.960 . S
H2690 C2704 0.960 . S
H2691 C2704 0.960 . S
C2692 H2684 0.929 . S
C2692 C2693 1.377 . S
C2692 C2694 1.384 . S
C2693 C2692 1.377 . S
C2693 C2699 1.390 . S
C2694 H2685 0.930 . S
C2694 C2692 1.384 . S
C2694 C2695 1.372 . S
C2695 C2694 1.372 . S
C2695 C2696 1.400 . S
C2695 C2700 1.490 . S
C2696 H2686 0.930 . S
C2696 C2695 1.400 . S
C2696 C2699 1.386 . S
H2697 C2713 0.930 . S
H2698 C2714 0.931 . S
C2699 H2687 0.929 . S
C2699 C2693 1.390 . S
C2699 C2696 1.386 . S
C2700 C2695 1.490 . S
C2700 C2702 1.395 . S
C2700 C2703 1.403 . S
H2701 C2707 0.930 . S
C2702 H2688 0.930 . S
C2702 C2700 1.395 . S
C2702 C2705 1.403 . S
C2703 C2700 1.403 . S
C2703 C2704 1.524 . S
C2703 C2707 1.400 . S
C2704 H2689 0.960 . S
C2704 H2690 0.960 . S
C2704 H2691 0.960 . S
C2704 C2703 1.524 . S
C2705 C2702 1.403 . S
C2705 C2706 1.392 . S
C2705 C2709 1.495 . S
C2706 C2705 1.392 . S
C2706 C2707 1.385 . S
C2706 C2708 1.478 . S
C2707 H2701 0.930 . S
C2707 C2703 1.400 . S
C2707 C2706 1.385 . S
C2708 C2706 1.478 . S
C2708 C2710 1.381 . S
C2708 C2714 1.383 . S
C2709 C2705 1.495 . S
C2709 H2715 0.959 . S
C2709 H2716 0.961 . S
C2709 H2717 0.960 . S
C2710 C2708 1.381 . S
C2710 C2711 1.394 . S
C2710 H2718 0.930 . S
C2711 C2710 1.394 . S
C2711 C2712 1.383 . S
C2711 H2719 0.929 . S
C2712 C2711 1.383 . S
C2712 C2713 1.377 . S
C2713 H2697 0.930 . S
C2713 C2712 1.377 . S
C2713 C2714 1.379 . S
C2714 H2698 0.931 . S
C2714 C2708 1.383 . S
C2714 C2713 1.379 . S
H2715 C2709 0.959 . S
H2716 C2709 0.961 . S
H2717 C2709 0.960 . S
H2718 C2710 0.930 . S
H2719 C2711 0.929 . S
C425 C44 0.681 . S
C444 C5 0.650 . S
C461 C31 0.660 . S
C480 C18 0.586 . S
C497 C96 0.678 . S
C516 C57 0.621 . S
C533 C83 0.667 . S
C552 C70 0.739 . S
C569 C109 0.653 . S
C588 C148 0.622 . S
C605 C122 0.679 . S
C624 C135 0.751 . S
C641 C200 0.654 . S
C660 C161 0.673 . S
C677 C174 0.686 . S
C696 C187 0.682 . S
C713 C213 0.676 . S
C732 C252 0.749 . S
C749 C226 0.680 . S
C768 C239 0.643 . S
C785 C304 0.684 . S
C804 C265 0.654 . S
C821 C291 0.680 . S
C840 C278 0.633 . S
C857 C356 0.671 . S
C876 C317 0.740 . S
C893 C330 0.653 . S
C912 C343 0.634 . S
C929 C369 0.654 . S
C948 C408 0.610 . S
C965 C382 0.679 . S
C984 C395 0.623 . S
C1001 C270 0.938 . S
C1020 C10 0.934 . S
C1037 C179 0.927 . S
C1056 C23 0.908 . S
C1073 C36 0.939 . S
C1092 C400 0.952 . S
C1109 C49 0.928 . S
C1128 C101 0.906 . S
C1145 C218 0.926 . S
C1164 C62 0.922 . S
C1181 C127 0.933 . S
C1200 C75 0.958 . S
C1217 C348 0.935 . S
C1236 C88 0.961 . S
C1253 C114 0.938 . S
C1272 C374 0.956 . S
C1289 C296 0.928 . S
C1308 C140 0.935 . S
C1325 C205 0.929 . S
C1344 C153 0.941 . S
C1361 C322 0.938 . S
C1380 C166 0.937 . S
C1397 C192 0.927 . S
C1416 C244 0.915 . S
C1433 C387 0.929 . S
C1452 C231 0.901 . S
C1469 C257 0.927 . S
C1488 C309 0.909 . S
C1505 C335 0.934 . S
C1524 C283 0.960 . S
C1541 C413 0.934 . S
C1560 C361 0.907 . S
C1577 C21 1.146 . S
C1596 C8 1.097 . S
C1613 C34 1.136 . S
C1632 C47 1.156 . S
C1649 C60 1.140 . S
C1668 C73 1.175 . S
C1685 C99 1.145 . S
C1704 C86 1.127 . S
C1721 C112 1.130 . S
C1740 C125 1.172 . S
C1757 C138 1.131 . S
C1776 C151 1.163 . S
C1793 C177 1.130 . S
C1812 C164 1.126 . S
C1829 C190 1.131 . S
C1848 C203 1.105 . S
C1865 C216 1.146 . S
C1884 C229 1.097 . S
C1901 C242 1.135 . S
C1920 C255 1.158 . S
C1937 C268 1.146 . S
C1956 C281 1.152 . S
C1973 C307 1.130 . S
C1992 C294 1.129 . S
C2009 C333 1.146 . S
C2028 C320 1.098 . S
C2045 C346 1.130 . S
C2064 C359 1.176 . S
C2081 C372 1.130 . S
C2100 C385 1.114 . S
C2117 C411 1.146 . S
C2136 C398 1.142 . S
C2153 C0 1.453 1_655 S
C2172 C247 1.429 . S
C2189 C13 1.453 . S
C2208 C234 1.472 . S
C2225 C221 1.450 . S
C2244 C26 1.441 1_655 S
C2261 C39 1.458 . S
C2280 C208 1.432 . S
C2297 C299 1.455 . S
C2316 C52 1.463 1_455 S
C2333 C65 1.449 . S
C2352 C286 1.427 . S
C2369 C273 1.450 . S
C2388 C78 1.431 1_455 S
C2405 C91 1.455 . S
C2424 C260 1.461 . S
C2441 C104 1.455 1_655 S
C2460 C351 1.468 . S
C2477 C117 1.449 . S
C2496 C338 1.468 . S
C2513 C130 1.454 1_655 S
C2532 C325 1.428 . S
C2549 C312 1.456 . S
C2568 C143 1.464 . S
C2585 C156 1.455 1_455 S
C2604 C403 1.464 . S
C2621 C169 1.458 . S
C2640 C390 1.471 . S
C2657 C182 1.458 1_455 S
C2676 C377 1.473 . S
C2693 C364 1.451 . S
C2712 C195 1.434 . S
