# Generated by pormake.
# Topology can, (4)-cn, num edge types: 1
# Building blocks:
#     Node 0, Type 0, BuildingBlock: NAHDIM_clean_sbu_0, # of connection points: 4
#     Node 1, Type 0, BuildingBlock: NAHDIM_clean_sbu_0, # of connection points: 4
#     Node 2, Type 0, BuildingBlock: NAHDIM_clean_sbu_0, # of connection points: 4
#     Node 3, Type 0, BuildingBlock: NAHDIM_clean_sbu_0, # of connection points: 4
#     Node 4, Type 0, BuildingBlock: NAHDIM_clean_sbu_0, # of connection points: 4
#     Node 5, Type 0, BuildingBlock: NAHDIM_clean_sbu_0, # of connection points: 4
#     Node 6, Type 0, BuildingBlock: NAHDIM_clean_sbu_0, # of connection points: 4
#     Node 7, Type 0, BuildingBlock: NAHDIM_clean_sbu_0, # of connection points: 4
#     Node 8, Type 0, BuildingBlock: NAHDIM_clean_sbu_0, # of connection points: 4
#     Node 9, Type 0, BuildingBlock: NAHDIM_clean_sbu_0, # of connection points: 4
#     Node 10, Type 0, BuildingBlock: NAHDIM_clean_sbu_0, # of connection points: 4
#     Node 11, Type 0, BuildingBlock: NAHDIM_clean_sbu_0, # of connection points: 4
#     Edge 12, Type (0, 0), BuildingBlock: OJICUG_clean_linker_0, # of connection points: 2
#     Edge 13, Type (0, 0), BuildingBlock: OJICUG_clean_linker_0, # of connection points: 2
#     Edge 14, Type (0, 0), BuildingBlock: OJICUG_clean_linker_0, # of connection points: 2
#     Edge 15, Type (0, 0), BuildingBlock: OJICUG_clean_linker_0, # of connection points: 2
#     Edge 16, Type (0, 0), BuildingBlock: OJICUG_clean_linker_0, # of connection points: 2
#     Edge 17, Type (0, 0), BuildingBlock: OJICUG_clean_linker_0, # of connection points: 2
#     Edge 18, Type (0, 0), BuildingBlock: OJICUG_clean_linker_0, # of connection points: 2
#     Edge 19, Type (0, 0), BuildingBlock: OJICUG_clean_linker_0, # of connection points: 2
#     Edge 20, Type (0, 0), BuildingBlock: OJICUG_clean_linker_0, # of connection points: 2
#     Edge 21, Type (0, 0), BuildingBlock: OJICUG_clean_linker_0, # of connection points: 2
#     Edge 22, Type (0, 0), BuildingBlock: OJICUG_clean_linker_0, # of connection points: 2
#     Edge 23, Type (0, 0), BuildingBlock: OJICUG_clean_linker_0, # of connection points: 2
#     Edge 24, Type (0, 0), BuildingBlock: OJICUG_clean_linker_0, # of connection points: 2
#     Edge 25, Type (0, 0), BuildingBlock: OJICUG_clean_linker_0, # of connection points: 2
#     Edge 26, Type (0, 0), BuildingBlock: OJICUG_clean_linker_0, # of connection points: 2
#     Edge 27, Type (0, 0), BuildingBlock: OJICUG_clean_linker_0, # of connection points: 2
#     Edge 28, Type (0, 0), BuildingBlock: OJICUG_clean_linker_0, # of connection points: 2
#     Edge 29, Type (0, 0), BuildingBlock: OJICUG_clean_linker_0, # of connection points: 2
#     Edge 30, Type (0, 0), BuildingBlock: OJICUG_clean_linker_0, # of connection points: 2
#     Edge 31, Type (0, 0), BuildingBlock: OJICUG_clean_linker_0, # of connection points: 2
#     Edge 32, Type (0, 0), BuildingBlock: OJICUG_clean_linker_0, # of connection points: 2
#     Edge 33, Type (0, 0), BuildingBlock: OJICUG_clean_linker_0, # of connection points: 2
#     Edge 34, Type (0, 0), BuildingBlock: OJICUG_clean_linker_0, # of connection points: 2
#     Edge 35, Type (0, 0), BuildingBlock: OJICUG_clean_linker_0, # of connection points: 2
# Relax obj value: 0.092
# Max RMSD: 0.086
# Mean RMSD: 0.086
data_MOF--net-can--node1-NAHDIM_clean_sbu_0--edge1-OJICUG_clean_linker_0
_symmetry_space_group_name_H-M    P1
_symmetry_Int_Tables_number       1
_symmetry_cell_setting            triclinic
loop_
_symmetry_equiv_pos_as_xyz
'x, y, z'
_cell_length_a     43.951333
_cell_length_b     44.200516
_cell_length_c     18.288833
_cell_angle_alpha  90.007592
_cell_angle_beta   90.027145
_cell_angle_gamma 119.7239
loop_
_atom_site_label
_atom_site_type_symbol
_atom_site_fract_x
_atom_site_fract_y
_atom_site_fract_z
_atom_type_partial_charge
C0 C 0.11719 0.3766 0.20851 0.0
O1 O 0.088 0.3465 0.2056 0.0
O2 O 0.04514 0.39056 0.12243 0.0
Zn3 Zn 0.06911 0.40264 0.22117 0.0
O4 O 0.04035 0.36997 0.30202 0.0
C5 C 0.08687 0.47384 0.20079 0.0
O6 O 0.09245 0.46715 0.13367 0.0
O7 O 0.11553 0.40437 0.21469 0.0
C8 C 0.01043 0.36628 0.31645 0.0
O9 O -0.0022 0.38135 0.27377 0.0
C10 C 0.02145 0.36092 0.10001 0.0
O11 O 0.01017 0.3338 0.14348 0.0
O12 O 0.07725 0.45013 0.24893 0.0
C13 C 0.71306 0.12613 0.75745 0.0
O14 O 0.68489 0.12674 0.73561 0.0
O15 O 0.65289 0.02254 0.70992 0.0
Zn16 Zn 0.6628 0.05511 0.7943 0.0
O17 O 0.66006 0.03051 0.88821 0.0
C18 C 0.59382 0.04101 0.81292 0.0
O19 O 0.5911 0.01056 0.82642 0.0
O20 O 0.70993 0.09823 0.78435 0.0
C21 C 0.66163 0.04606 0.94768 0.0
O22 O 0.66779 0.07834 0.9451 0.0
C23 C 0.67489 0.0246 0.66236 0.0
O24 O 0.70776 0.04933 0.66773 0.0
O25 O 0.62371 0.06649 0.79666 0.0
C26 C 0.56214 0.71305 0.24035 0.0
O27 O 0.53182 0.68572 0.25638 0.0
O28 O 0.60571 0.65655 0.12682 0.0
Zn29 Zn 0.58378 0.66147 0.21957 0.0
O30 O 0.60734 0.65553 0.30844 0.0
C31 C 0.51292 0.60826 0.17247 0.0
O32 O 0.52445 0.61745 0.10534 0.0
O33 O 0.58774 0.70881 0.22263 0.0
C34 C 0.59309 0.65482 0.36939 0.0
O35 O 0.56595 0.65973 0.37009 0.0
C36 C 0.60397 0.62778 0.11056 0.0
O37 O 0.58829 0.6014 0.15593 0.0
O38 O 0.53328 0.6236 0.22592 0.0
C39 C 0.86496 0.60741 0.71322 0.0
O40 O 0.89383 0.63781 0.7115 0.0
O41 O 0.93817 0.5943 0.62892 0.0
Zn42 Zn 0.91386 0.58232 0.72716 0.0
O43 O 0.94199 0.61512 0.8085 0.0
C44 C 0.89398 0.51069 0.70789 0.0
O45 O 0.88594 0.51685 0.64244 0.0
O46 O 0.86717 0.57993 0.71921 0.0
C47 C 0.97304 0.6215 0.82122 0.0
O48 O 0.98751 0.60904 0.77642 0.0
C49 C 0.96057 0.62412 0.60479 0.0
O50 O 0.97031 0.65174 0.64614 0.0
O51 O 0.90601 0.53499 0.75502 0.0
C52 C 0.27218 0.85531 0.27381 0.0
O53 O 0.29991 0.85145 0.27763 0.0
O54 O 0.33459 0.96124 0.20882 0.0
Zn55 Zn 0.32319 0.92834 0.29297 0.0
O56 O 0.32454 0.95267 0.38643 0.0
C57 C 0.39152 0.94144 0.31983 0.0
O58 O 0.39413 0.97156 0.3365 0.0
O59 O 0.27595 0.88564 0.27917 0.0
C60 C 0.32131 0.93687 0.4464 0.0
O61 O 0.3142 0.90428 0.44472 0.0
C62 C 0.31259 0.96202 0.16492 0.0
O63 O 0.27898 0.94039 0.17441 0.0
O64 O 0.36211 0.91675 0.2984 0.0
C65 C 0.41977 0.26832 0.74016 0.0
O66 O 0.44965 0.29591 0.7576 0.0
O67 O 0.37484 0.32392 0.6274 0.0
Zn68 Zn 0.3969 0.31899 0.72002 0.0
O69 O 0.37293 0.32415 0.80904 0.0
C70 C 0.46787 0.37216 0.67384 0.0
O71 O 0.45684 0.36218 0.60667 0.0
O72 O 0.39389 0.27204 0.72196 0.0
C73 C 0.3869 0.32446 0.87014 0.0
O74 O 0.41404 0.31955 0.87097 0.0
C75 C 0.37701 0.35284 0.6108 0.0
O76 O 0.39323 0.37936 0.6557 0.0
O77 O 0.44716 0.35735 0.72703 0.0
C78 C 0.58106 0.85176 0.26418 0.0
O79 O 0.61155 0.87913 0.24933 0.0
O80 O 0.58899 0.92538 0.39143 0.0
Zn81 Zn 0.56405 0.90478 0.29666 0.0
O82 O 0.59216 0.93412 0.21131 0.0
C83 C 0.5159 0.92828 0.33168 0.0
O84 O 0.54383 0.95225 0.36564 0.0
O85 O 0.55609 0.85623 0.28572 0.0
C86 C 0.60722 0.96718 0.21325 0.0
O87 O 0.60511 0.98257 0.27293 0.0
C88 C 0.62201 0.94199 0.40047 0.0
O89 O 0.64265 0.94546 0.34536 0.0
O90 O 0.5177 0.90405 0.29794 0.0
C91 C 0.72905 0.59825 0.7045 0.0
O92 O 0.72651 0.6266 0.70065 0.0
O93 O 0.64421 0.57879 0.80753 0.0
Zn94 Zn 0.65426 0.56615 0.70781 0.0
O95 O 0.65248 0.59714 0.62942 0.0
C96 C 0.60043 0.49526 0.73444 0.0
O97 O 0.61116 0.50363 0.80231 0.0
O98 O 0.70123 0.5688 0.70789 0.0
C99 C 0.62618 0.60176 0.62739 0.0
O100 O 0.60232 0.58791 0.67892 0.0
C101 C 0.65232 0.60928 0.82859 0.0
O102 O 0.66913 0.63566 0.78371 0.0
O103 O 0.61597 0.5175 0.68415 0.0
C104 C 0.13433 0.73556 0.23413 0.0
O105 O 0.10646 0.73922 0.23088 0.0
O106 O 0.05309 0.66129 0.30543 0.0
Zn107 Zn 0.08275 0.66354 0.21866 0.0
O108 O 0.06242 0.66549 0.1211 0.0
C109 C 0.08881 0.60274 0.26628 0.0
O110 O 0.08696 0.61198 0.33368 0.0
O111 O 0.1306 0.70523 0.22963 0.0
C112 C 0.0336 0.66464 0.1082 0.0
O113 O 0.01428 0.6645 0.16313 0.0
C114 C 0.02546 0.63351 0.32367 0.0
O115 O 0.01459 0.60561 0.28267 0.0
O116 O 0.0877 0.62074 0.21329 0.0
C117 C 0.40388 0.1307 0.75983 0.0
O118 O 0.37395 0.10312 0.7425 0.0
O119 O 0.39781 0.05776 0.88926 0.0
Zn120 Zn 0.42155 0.07826 0.79355 0.0
O121 O 0.39276 0.04861 0.709 0.0
C122 C 0.46892 0.05342 0.8209 0.0
O123 O 0.44014 0.02801 0.84939 0.0
O124 O 0.42883 0.12661 0.7832 0.0
C125 C 0.37488 0.01557 0.71244 0.0
O126 O 0.37425 -0.00017 0.77379 0.0
C127 C 0.36515 0.04367 0.90179 0.0
O128 O 0.34404 0.04271 0.84984 0.0
O129 O 0.46805 0.07932 0.79295 0.0
C130 C 0.25188 0.38299 0.20321 0.0
O131 O 0.25383 0.35433 0.19864 0.0
O132 O 0.33678 0.40175 0.30759 0.0
Zn133 Zn 0.32668 0.41417 0.20766 0.0
O134 O 0.32799 0.38275 0.12965 0.0
C135 C 0.38035 0.48527 0.23316 0.0
O136 O 0.36918 0.47743 0.30086 0.0
O137 O 0.27999 0.41215 0.20757 0.0
C138 C 0.35383 0.37739 0.12823 0.0
O139 O 0.37754 0.39077 0.18021 0.0
C140 C 0.32803 0.3712 0.32933 0.0
O141 O 0.31046 0.34466 0.28515 0.0
O142 O 0.36519 0.4626 0.18338 0.0
C143 C 0.84954 0.24951 0.73635 0.0
O144 O 0.87813 0.24801 0.74987 0.0
O145 O 0.92864 0.32364 0.80091 0.0
Zn146 Zn 0.89929 0.32176 0.71376 0.0
O147 O 0.92123 0.32296 0.61637 0.0
C148 C 0.89325 0.38188 0.7665 0.0
O149 O 0.89837 0.37362 0.83258 0.0
O150 O 0.85218 0.2786 0.71954 0.0
C151 C 0.94833 0.32079 0.60173 0.0
O152 O 0.96543 0.31575 0.65493 0.0
C153 C 0.95715 0.35084 0.81768 0.0
O154 O 0.96906 0.37829 0.77499 0.0
O155 O 0.89237 0.36346 0.71235 0.0
C156 C 0.97748 0.32592 0.00274 0.0
C157 C 0.00605 0.35758 0.02619 0.0
H158 H 0.93968 0.29887 0.9185 0.0
C159 C 0.01936 0.38648 0.97896 0.0
H160 H 0.96662 0.30314 0.03763 0.0
C161 C 0.00403 0.38401 0.91061 0.0
C162 C 0.97493 0.35261 0.88784 0.0
H163 H 0.04144 0.41126 0.99507 0.0
H164 H 0.01465 0.40696 0.87624 0.0
C165 C 0.96204 0.32348 0.93437 0.0
C166 C 0.67249 0.9849 0.47705 0.0
C167 C 0.63663 0.9605 0.47019 0.0
H168 H 0.71286 0.02441 0.54341 0.0
C169 C 0.6142 0.95558 0.5292 0.0
H170 H 0.69046 0.98926 0.43255 0.0
C171 C 0.62697 0.97559 0.59245 0.0
C172 C 0.66251 0.00111 0.59822 0.0
H173 H 0.58647 0.93683 0.52597 0.0
H174 H 0.6087 0.97164 0.63607 0.0
C175 C 0.68532 0.00507 0.54051 0.0
C176 C 0.61283 0.5908 0.01872 0.0
C177 C 0.61777 0.62351 0.03975 0.0
H178 H 0.61982 0.56065 0.93585 0.0
C179 C 0.63518 0.65183 0.99158 0.0
H180 H 0.59955 0.56844 0.05447 0.0
C181 C 0.64692 0.64739 0.92347 0.0
C182 C 0.64139 0.61451 0.90195 0.0
H183 H 0.63947 0.67741 0.00615 0.0
H184 H 0.6599 0.66963 0.88735 0.0
C185 C 0.62444 0.58634 0.95059 0.0
C186 C 0.01916 0.66145 0.43813 0.0
C187 C 0.00752 0.63179 0.39353 0.0
H188 H 0.01346 0.68241 0.53961 0.0
C189 C 0.97953 0.59999 0.41793 0.0
H190 H 0.04065 0.68638 0.42095 0.0
C191 C 0.96408 0.5977 0.486 0.0
C192 C 0.97614 0.62718 0.5313 0.0
H193 H 0.96988 0.57663 0.38507 0.0
H194 H 0.94287 0.57264 0.50339 0.0
C195 C 0.00359 0.65919 0.50621 0.0
C196 C 0.31483 0.004 0.98259 0.0
C197 C 0.35108 0.02537 0.9719 0.0
H198 H 0.27407 0.96713 0.05226 0.0
C199 C 0.37417 0.02752 0.02741 0.0
H200 H 0.29636 0.00184 0.94086 0.0
C201 C 0.36147 0.00776 0.09093 0.0
C202 C 0.32535 0.98528 0.10052 0.0
H203 H 0.40224 0.04391 0.02121 0.0
H204 H 0.38015 0.00954 0.13177 0.0
C205 C 0.30207 0.98409 0.04636 0.0
C206 C 0.333 0.33302 0.42468 0.0
C207 C 0.3391 0.36602 0.40261 0.0
H208 H 0.34015 0.30292 0.50763 0.0
C209 C 0.3568 0.39438 0.4506 0.0
H210 H 0.31944 0.31063 0.38906 0.0
C211 C 0.36856 0.38995 0.5186 0.0
C212 C 0.36305 0.35709 0.54014 0.0
H213 H 0.36188 0.42016 0.43544 0.0
H214 H 0.38242 0.41244 0.55382 0.0
C215 C 0.3449 0.32861 0.49265 0.0
C216 C 0.97193 0.64368 0.94709 0.0
C217 C 0.99042 0.63779 0.89127 0.0
H218 H 0.97107 0.65691 0.05953 0.0
C219 C 0.02462 0.64453 0.90553 0.0
H220 H 0.94555 0.63887 0.93785 0.0
C221 C 0.03926 0.65499 0.97511 0.0
C222 C 0.01998 0.65877 0.03226 0.0
H223 H 0.0397 0.64054 0.86365 0.0
H224 H 0.06524 0.65874 0.9847 0.0
C225 C 0.98654 0.65399 0.01694 0.0
C226 C 0.34443 -0.00736 0.51644 0.0
C227 C 0.33076 0.95637 0.51613 0.0
H228 H 0.36904 0.0398 0.57871 0.0
C229 C 0.32904 0.93942 0.58228 0.0
H230 H 0.34605 0.0065 0.46644 0.0
C231 C 0.3422 0.95854 0.64673 0.0
C232 C 0.35748 -0.005 0.64625 0.0
H233 H 0.31851 0.91149 0.58396 0.0
H234 H 0.34142 0.9448 0.69636 0.0
C235 C 0.35772 0.01176 0.58079 0.0
C236 C 0.34719 0.34031 0.9383 0.0
C237 C 0.3756 0.33408 0.93828 0.0
H238 H 0.31771 0.35854 -0.00125 0.0
C239 C 0.39473 0.33934 0.0032 0.0
H240 H 0.33182 0.33634 0.88926 0.0
C241 C 0.38679 0.35221 0.06569 0.0
C242 C 0.35938 0.35989 0.06486 0.0
H243 H 0.41666 0.33462 0.00525 0.0
H244 H 0.40277 0.35699 0.1141 0.0
C245 C 0.33908 0.35298 0.00109 0.0
C246 C -0.00553 0.32989 0.50925 0.0
C247 C 0.96234 0.32793 0.52611 0.0
H248 H 0.03479 0.3432 0.42935 0.0
C249 C 0.94464 0.33526 0.47087 0.0
H250 H 0.00869 0.32424 0.55037 0.0
C251 C 0.95958 0.34617 0.40173 0.0
C252 C -0.00747 0.3499 0.38596 0.0
H253 H 0.91968 0.33373 0.48163 0.0
H254 H 0.94575 0.35275 0.36141 0.0
C255 C 0.00939 0.34071 0.4398 0.0
C256 C 0.65136 0.04329 0.08267 0.0
C257 C 0.6517 0.02664 0.01747 0.0
H258 H 0.63723 0.03761 0.19577 0.0
C259 C 0.63981 0.99068 0.01864 0.0
H260 H 0.66048 0.07099 0.0837 0.0
C261 C 0.62635 0.97151 0.08286 0.0
C262 C 0.62459 0.98792 0.14728 0.0
H263 H 0.6398 0.97707 0.96938 0.0
H264 H 0.61648 0.94367 0.08144 0.0
C265 C 0.63799 0.02413 0.14694 0.0
C266 C 0.58468 0.63908 0.50197 0.0
C267 C 0.6042 0.64494 0.43745 0.0
H268 H 0.5764 0.62099 0.61253 0.0
C269 C 0.63291 0.63918 0.43782 0.0
H270 H 0.56249 0.6434 0.50373 0.0
C271 C 0.64104 0.62651 0.50059 0.0
C272 C 0.62043 0.61909 0.56398 0.0
H273 H 0.64857 0.64361 0.38909 0.0
H274 H 0.6627 0.62138 0.49854 0.0
C275 C 0.59262 0.62619 0.56443 0.0
C276 C 0.08507 0.54673 0.30692 0.0
C277 C 0.0904 0.57066 0.25102 0.0
H278 H 0.07971 0.49726 0.33497 0.0
C279 C 0.09609 0.56314 0.17928 0.0
H280 H 0.08061 0.55176 0.36273 0.0
C281 C 0.09576 0.53208 0.16345 0.0
C282 C 0.0895 0.50769 0.21887 0.0
H283 H 0.10046 0.58109 0.13495 0.0
H284 H 0.09975 0.52695 0.10738 0.0
C285 C 0.08451 0.51549 0.29096 0.0
C286 C 0.53316 0.07877 0.79418 0.0
C287 C 0.50136 0.05108 0.81996 0.0
H288 H 0.58755 0.09747 0.77207 0.0
C289 C 0.50054 0.02054 0.84434 0.0
H290 H 0.53465 0.10267 0.77513 0.0
C291 C 0.53063 0.01752 0.84225 0.0
C292 C 0.56238 0.04503 0.81613 0.0
H293 H 0.47651 -0.0013 0.86455 0.0
H294 H 0.5289 -0.00651 0.86111 0.0
C295 C 0.56345 0.07581 0.79253 0.0
C296 C 0.4644 0.57088 0.2584 0.0
C297 C 0.47745 0.57859 0.18658 0.0
H298 H 0.4234 0.53567 0.32927 0.0
C299 C 0.45705 0.55667 0.12939 0.0
H300 H 0.47935 0.58737 0.30369 0.0
C301 C 0.42493 0.52687 0.14416 0.0
C302 C 0.41249 0.51852 0.21636 0.0
H303 H 0.46633 0.56192 0.07346 0.0
H304 H 0.41027 0.50996 0.09915 0.0
C305 C 0.43224 0.54125 0.27309 0.0
C306 C 0.88234 0.45157 0.66965 0.0
C307 C 0.89137 0.47673 0.72477 0.0
H308 H 0.87578 0.40196 0.63965 0.0
C309 C 0.89921 0.46963 0.79511 0.0
H310 H 0.87607 0.45615 0.61493 0.0
C311 C 0.89888 0.43838 0.80946 0.0
C312 C 0.89093 0.41372 0.75362 0.0
H313 H 0.90616 0.48845 0.83887 0.0
H314 H 0.9057 0.43395 0.86379 0.0
C315 C 0.88222 0.42049 0.68384 0.0
C316 C 0.45352 0.96311 0.35733 0.0
C317 C 0.42266 0.937 0.32476 0.0
H318 H 0.50686 0.98069 0.38544 0.0
C319 C 0.4223 0.90732 0.29601 0.0
H320 H 0.45465 0.98623 0.38032 0.0
C321 C 0.45248 0.9042 0.2986 0.0
C322 C 0.48345 0.93058 0.33052 0.0
H323 H 0.3989 0.88675 0.27056 0.0
H324 H 0.45159 0.88126 0.27525 0.0
C325 C 0.48349 0.95989 0.3604 0.0
C326 C 0.54806 0.43984 0.77489 0.0
C327 C 0.56828 0.46197 0.71787 0.0
H328 H 0.5006 0.39418 0.80569 0.0
C329 C 0.55626 0.45303 0.64549 0.0
H330 H 0.55656 0.44588 0.83123 0.0
C331 C 0.52412 0.42323 0.63076 0.0
C332 C 0.50328 0.40191 0.68814 0.0
H333 H 0.57128 0.46948 0.60027 0.0
H334 H 0.51519 0.41749 0.57462 0.0
C335 C 0.51589 0.41022 0.76022 0.0
C336 C 0.1828 0.41043 0.2101 0.0
C337 C 0.15162 0.3782 0.20608 0.0
H338 H 0.23882 0.43724 0.21235 0.0
C339 C 0.1537 0.34757 0.20049 0.0
H340 H 0.18214 0.43454 0.21442 0.0
C341 C 0.18625 0.34912 0.19932 0.0
C342 C 0.21742 0.38134 0.20372 0.0
H343 H 0.13019 0.32232 0.19728 0.0
H344 H 0.18694 0.32502 0.1952 0.0
C345 C 0.21532 0.41198 0.20893 0.0
C346 C 0.8114 0.18607 0.76427 0.0
C347 C 0.81467 0.21785 0.74112 0.0
H348 H 0.77678 0.13219 0.78771 0.0
C349 C 0.78426 0.21916 0.72289 0.0
H350 H 0.8343 0.18418 0.77871 0.0
C351 C 0.75129 0.18933 0.72783 0.0
C352 C 0.748 0.15759 0.7514 0.0
H353 H 0.78586 0.24324 0.70478 0.0
H354 H 0.72839 0.19125 0.71353 0.0
C355 C 0.77841 0.15627 0.7695 0.0
C356 C 0.53883 0.75338 0.26666 0.0
C357 C 0.56675 0.74849 0.2449 0.0
H358 H 0.52141 0.78978 0.28983 0.0
C359 C 0.59927 0.77782 0.22858 0.0
H360 H 0.51343 0.73133 0.2796 0.0
C361 C 0.60384 0.81134 0.23444 0.0
C362 C 0.57601 0.81624 0.25679 0.0
H363 H 0.62132 0.77496 0.21161 0.0
H364 H 0.62928 0.83339 0.2218 0.0
C365 C 0.54341 0.7869 0.27257 0.0
C366 C 0.79939 0.57253 0.71235 0.0
C367 C 0.83023 0.6051 0.70973 0.0
H368 H 0.74336 0.5448 0.71274 0.0
C369 C 0.8275 0.63539 0.70459 0.0
H370 H 0.80055 0.54867 0.71628 0.0
C371 C 0.79465 0.63317 0.70258 0.0
C372 C 0.76383 0.6006 0.70565 0.0
H373 H 0.85073 0.66089 0.70244 0.0
H374 H 0.79346 0.65701 0.69889 0.0
C375 C 0.76657 0.57031 0.71034 0.0
C376 C 0.20724 0.82881 0.2585 0.0
C377 C 0.23693 0.82471 0.26335 0.0
H378 H 0.1516 0.80393 0.24541 0.0
C379 C 0.23259 0.79109 0.25811 0.0
H380 H 0.20968 0.85438 0.26224 0.0
C381 C 0.1993 0.76217 0.24842 0.0
C382 C 0.1696 0.76625 0.24375 0.0
H383 H 0.25491 0.78702 0.2616 0.0
H384 H 0.19688 0.73661 0.24474 0.0
C385 C 0.17393 0.79988 0.24881 0.0
C386 C 0.44408 0.22883 0.76657 0.0
C387 C 0.41596 0.23319 0.74361 0.0
H388 H 0.46235 0.1931 0.78972 0.0
C389 C 0.38403 0.20359 0.72498 0.0
H390 H 0.46903 0.25109 0.78128 0.0
C391 C 0.38021 0.17035 0.72977 0.0
C392 C 0.40822 0.16597 0.75337 0.0
H393 H 0.36187 0.20604 0.70701 0.0
H394 H 0.3552 0.14808 0.71537 0.0
C395 C 0.44024 0.19557 0.77145 0.0
loop_
_geom_bond_atom_site_label_1
_geom_bond_atom_site_label_2
_geom_bond_distance
_geom_bond_site_symmetry_2
_ccdc_geom_bond_type
C0 O1 1.160 . S
C0 O7 1.185 . S
O1 C0 1.160 . S
O2 Zn3 1.899 . S
O2 C10 1.284 . S
Zn3 O2 1.899 . S
Zn3 O4 2.032 . S
Zn3 O7 2.086 . S
Zn3 O12 1.977 . S
O4 Zn3 2.032 . S
O4 C8 1.278 . S
C5 O6 1.203 . S
C5 O12 1.267 . S
O6 C5 1.203 . S
O7 C0 1.185 . S
O7 Zn3 2.086 . S
C8 O4 1.278 . S
C8 O9 1.211 . S
O9 C8 1.211 . S
C10 O2 1.284 . S
C10 O11 1.273 . S
O11 C10 1.273 . S
O12 Zn3 1.977 . S
O12 C5 1.267 . S
C13 O14 1.160 . S
C13 O20 1.185 . S
O14 C13 1.160 . S
O15 Zn16 1.899 . S
O15 C23 1.284 . S
Zn16 O15 1.899 . S
Zn16 O17 2.032 . S
Zn16 O20 2.086 . S
Zn16 O25 1.977 . S
O17 Zn16 2.032 . S
O17 C21 1.278 . S
C18 O19 1.203 . S
C18 O25 1.267 . S
O19 C18 1.203 . S
O20 C13 1.185 . S
O20 Zn16 2.086 . S
C21 O17 1.278 . S
C21 O22 1.211 . S
O22 C21 1.211 . S
C23 O15 1.284 . S
C23 O24 1.273 . S
O24 C23 1.273 . S
O25 Zn16 1.977 . S
O25 C18 1.267 . S
C26 O27 1.160 . S
C26 O33 1.185 . S
O27 C26 1.160 . S
O28 Zn29 1.899 . S
O28 C36 1.284 . S
Zn29 O28 1.899 . S
Zn29 O30 2.032 . S
Zn29 O33 2.086 . S
Zn29 O38 1.977 . S
O30 Zn29 2.032 . S
O30 C34 1.278 . S
C31 O32 1.203 . S
C31 O38 1.267 . S
O32 C31 1.203 . S
O33 C26 1.185 . S
O33 Zn29 2.086 . S
C34 O30 1.278 . S
C34 O35 1.211 . S
O35 C34 1.211 . S
C36 O28 1.284 . S
C36 O37 1.273 . S
O37 C36 1.273 . S
O38 Zn29 1.977 . S
O38 C31 1.267 . S
C39 O40 1.160 . S
C39 O46 1.185 . S
O40 C39 1.160 . S
O41 Zn42 1.899 . S
O41 C49 1.284 . S
Zn42 O41 1.899 . S
Zn42 O43 2.032 . S
Zn42 O46 2.086 . S
Zn42 O51 1.977 . S
O43 Zn42 2.032 . S
O43 C47 1.278 . S
C44 O45 1.203 . S
C44 O51 1.267 . S
O45 C44 1.203 . S
O46 C39 1.185 . S
O46 Zn42 2.086 . S
C47 O43 1.278 . S
C47 O48 1.211 . S
O48 C47 1.211 . S
C49 O41 1.284 . S
C49 O50 1.273 . S
O50 C49 1.273 . S
O51 Zn42 1.977 . S
O51 C44 1.267 . S
C52 O53 1.160 . S
C52 O59 1.185 . S
O53 C52 1.160 . S
O54 Zn55 1.899 . S
O54 C62 1.284 . S
Zn55 O54 1.899 . S
Zn55 O56 2.032 . S
Zn55 O59 2.086 . S
Zn55 O64 1.977 . S
O56 Zn55 2.032 . S
O56 C60 1.278 . S
C57 O58 1.203 . S
C57 O64 1.267 . S
O58 C57 1.203 . S
O59 C52 1.185 . S
O59 Zn55 2.086 . S
C60 O56 1.278 . S
C60 O61 1.211 . S
O61 C60 1.211 . S
C62 O54 1.284 . S
C62 O63 1.273 . S
O63 C62 1.273 . S
O64 Zn55 1.977 . S
O64 C57 1.267 . S
C65 O66 1.160 . S
C65 O72 1.185 . S
O66 C65 1.160 . S
O67 Zn68 1.899 . S
O67 C75 1.284 . S
Zn68 O67 1.899 . S
Zn68 O69 2.032 . S
Zn68 O72 2.086 . S
Zn68 O77 1.977 . S
O69 Zn68 2.032 . S
O69 C73 1.278 . S
C70 O71 1.203 . S
C70 O77 1.267 . S
O71 C70 1.203 . S
O72 C65 1.185 . S
O72 Zn68 2.086 . S
C73 O69 1.278 . S
C73 O74 1.211 . S
O74 C73 1.211 . S
C75 O67 1.284 . S
C75 O76 1.273 . S
O76 C75 1.273 . S
O77 Zn68 1.977 . S
O77 C70 1.267 . S
C78 O79 1.160 . S
C78 O85 1.185 . S
O79 C78 1.160 . S
O80 Zn81 1.899 . S
O80 C88 1.284 . S
Zn81 O80 1.899 . S
Zn81 O82 2.032 . S
Zn81 O85 2.086 . S
Zn81 O90 1.977 . S
O82 Zn81 2.032 . S
O82 C86 1.278 . S
C83 O84 1.203 . S
C83 O90 1.267 . S
O84 C83 1.203 . S
O85 C78 1.185 . S
O85 Zn81 2.086 . S
C86 O82 1.278 . S
C86 O87 1.211 . S
O87 C86 1.211 . S
C88 O80 1.284 . S
C88 O89 1.273 . S
O89 C88 1.273 . S
O90 Zn81 1.977 . S
O90 C83 1.267 . S
C91 O92 1.160 . S
C91 O98 1.185 . S
O92 C91 1.160 . S
O93 Zn94 1.899 . S
O93 C101 1.284 . S
Zn94 O93 1.899 . S
Zn94 O95 2.032 . S
Zn94 O98 2.086 . S
Zn94 O103 1.977 . S
O95 Zn94 2.032 . S
O95 C99 1.278 . S
C96 O97 1.203 . S
C96 O103 1.267 . S
O97 C96 1.203 . S
O98 C91 1.185 . S
O98 Zn94 2.086 . S
C99 O95 1.278 . S
C99 O100 1.211 . S
O100 C99 1.211 . S
C101 O93 1.284 . S
C101 O102 1.273 . S
O102 C101 1.273 . S
O103 Zn94 1.977 . S
O103 C96 1.267 . S
C104 O105 1.160 . S
C104 O111 1.185 . S
O105 C104 1.160 . S
O106 Zn107 1.899 . S
O106 C114 1.284 . S
Zn107 O106 1.899 . S
Zn107 O108 2.032 . S
Zn107 O111 2.086 . S
Zn107 O116 1.977 . S
O108 Zn107 2.032 . S
O108 C112 1.278 . S
C109 O110 1.203 . S
C109 O116 1.267 . S
O110 C109 1.203 . S
O111 C104 1.185 . S
O111 Zn107 2.086 . S
C112 O108 1.278 . S
C112 O113 1.211 . S
O113 C112 1.211 . S
C114 O106 1.284 . S
C114 O115 1.273 . S
O115 C114 1.273 . S
O116 Zn107 1.977 . S
O116 C109 1.267 . S
C117 O118 1.160 . S
C117 O124 1.185 . S
O118 C117 1.160 . S
O119 Zn120 1.899 . S
O119 C127 1.284 . S
Zn120 O119 1.899 . S
Zn120 O121 2.032 . S
Zn120 O124 2.086 . S
Zn120 O129 1.977 . S
O121 Zn120 2.032 . S
O121 C125 1.278 . S
C122 O123 1.203 . S
C122 O129 1.267 . S
O123 C122 1.203 . S
O124 C117 1.185 . S
O124 Zn120 2.086 . S
C125 O121 1.278 . S
C125 O126 1.211 . S
O126 C125 1.211 . S
C127 O119 1.284 . S
C127 O128 1.273 . S
O128 C127 1.273 . S
O129 Zn120 1.977 . S
O129 C122 1.267 . S
C130 O131 1.160 . S
C130 O137 1.185 . S
O131 C130 1.160 . S
O132 Zn133 1.899 . S
O132 C140 1.284 . S
Zn133 O132 1.899 . S
Zn133 O134 2.032 . S
Zn133 O137 2.086 . S
Zn133 O142 1.977 . S
O134 Zn133 2.032 . S
O134 C138 1.278 . S
C135 O136 1.203 . S
C135 O142 1.267 . S
O136 C135 1.203 . S
O137 C130 1.185 . S
O137 Zn133 2.086 . S
C138 O134 1.278 . S
C138 O139 1.211 . S
O139 C138 1.211 . S
C140 O132 1.284 . S
C140 O141 1.273 . S
O141 C140 1.273 . S
O142 Zn133 1.977 . S
O142 C135 1.267 . S
C143 O144 1.160 . S
C143 O150 1.185 . S
O144 C143 1.160 . S
O145 Zn146 1.899 . S
O145 C153 1.284 . S
Zn146 O145 1.899 . S
Zn146 O147 2.032 . S
Zn146 O150 2.086 . S
Zn146 O155 1.977 . S
O147 Zn146 2.032 . S
O147 C151 1.278 . S
C148 O149 1.203 . S
C148 O155 1.267 . S
O149 C148 1.203 . S
O150 C143 1.185 . S
O150 Zn146 2.086 . S
C151 O147 1.278 . S
C151 O152 1.211 . S
O152 C151 1.211 . S
C153 O145 1.284 . S
C153 O154 1.273 . S
O154 C153 1.273 . S
O155 Zn146 1.977 . S
O155 C148 1.267 . S
C156 C157 1.387 1_655 S
C156 H160 0.950 . S
C156 C165 1.390 1_554 S
C157 C156 1.387 1_455 S
C157 C159 1.387 . S
H158 C165 0.950 . S
C159 C157 1.387 . S
C159 C161 1.390 1_554 S
C159 H163 0.950 . S
H160 C156 0.950 . S
C161 C159 1.390 1_556 S
C161 C162 1.387 1_455 S
C161 H164 0.950 . S
C162 C161 1.387 1_655 S
C162 C165 1.387 . S
H163 C159 0.950 . S
H164 C161 0.950 . S
C165 C156 1.390 1_556 S
C165 H158 0.950 . S
C165 C162 1.387 . S
C166 C167 1.387 . S
C166 H170 0.950 . S
C166 C175 1.390 1_565 S
C167 C166 1.387 . S
C167 C169 1.387 . S
H168 C175 0.950 . S
C169 C167 1.387 . S
C169 C171 1.390 1_565 S
C169 H173 0.950 . S
H170 C166 0.950 . S
C171 C169 1.390 1_545 S
C171 C172 1.387 . S
C171 H174 0.950 . S
C172 C171 1.387 . S
C172 C175 1.387 . S
H173 C169 0.950 . S
H174 C171 0.950 . S
C175 C166 1.390 1_545 S
C175 H168 0.950 . S
C175 C172 1.387 . S
C176 C177 1.387 . S
C176 H180 0.950 . S
C176 C185 1.390 1_554 S
C177 C176 1.387 . S
C177 C179 1.387 . S
H178 C185 0.950 . S
C179 C177 1.387 . S
C179 C181 1.390 1_554 S
C179 H183 0.950 . S
H180 C176 0.950 . S
C181 C179 1.390 1_556 S
C181 C182 1.387 . S
C181 H184 0.950 . S
C182 C181 1.387 . S
C182 C185 1.387 . S
H183 C179 0.950 . S
H184 C181 0.950 . S
C185 C176 1.390 1_556 S
C185 H178 0.950 . S
C185 C182 1.387 . S
C186 C187 1.387 . S
C186 H190 0.950 . S
C186 C195 1.390 . S
C187 C186 1.387 . S
C187 C189 1.387 1_455 S
H188 C195 0.950 . S
C189 C187 1.387 1_655 S
C189 C191 1.390 . S
C189 H193 0.950 . S
H190 C186 0.950 . S
C191 C189 1.390 . S
C191 C192 1.387 . S
C191 H194 0.950 . S
C192 C191 1.387 . S
C192 C195 1.387 1_655 S
H193 C189 0.950 . S
H194 C191 0.950 . S
C195 C186 1.390 . S
C195 H188 0.950 . S
C195 C192 1.387 1_455 S
C196 C197 1.387 . S
C196 H200 0.950 . S
C196 C205 1.390 1_546 S
C197 C196 1.387 . S
C197 C199 1.387 . S
H198 C205 0.950 . S
C199 C197 1.387 . S
C199 C201 1.390 1_546 S
C199 H203 0.950 . S
H200 C196 0.950 . S
C201 C199 1.390 1_564 S
C201 C202 1.387 . S
C201 H204 0.950 . S
C202 C201 1.387 . S
C202 C205 1.387 . S
H203 C199 0.950 . S
H204 C201 0.950 . S
C205 C196 1.390 1_564 S
C205 H198 0.950 . S
C205 C202 1.387 . S
C206 C207 1.387 . S
C206 H210 0.950 . S
C206 C215 1.390 . S
C207 C206 1.387 . S
C207 C209 1.387 . S
H208 C215 0.950 . S
C209 C207 1.387 . S
C209 C211 1.390 . S
C209 H213 0.950 . S
H210 C206 0.950 . S
C211 C209 1.390 . S
C211 C212 1.387 . S
C211 H214 0.950 . S
C212 C211 1.387 . S
C212 C215 1.387 . S
H213 C209 0.950 . S
H214 C211 0.950 . S
C215 C206 1.390 . S
C215 H208 0.950 . S
C215 C212 1.387 . S
C216 C217 1.387 . S
C216 H220 0.950 . S
C216 C225 1.390 1_556 S
C217 C216 1.387 . S
C217 C219 1.387 1_655 S
H218 C225 0.950 . S
C219 C217 1.387 1_455 S
C219 C221 1.390 1_556 S
C219 H223 0.950 . S
H220 C216 0.950 . S
C221 C219 1.390 1_554 S
C221 C222 1.387 . S
C221 H224 0.950 . S
C222 C221 1.387 . S
C222 C225 1.387 1_455 S
H223 C219 0.950 . S
H224 C221 0.950 . S
C225 C216 1.390 1_554 S
C225 H218 0.950 . S
C225 C222 1.387 1_655 S
C226 C227 1.387 . S
C226 H230 0.950 . S
C226 C235 1.390 1_565 S
C227 C226 1.387 . S
C227 C229 1.387 . S
H228 C235 0.950 . S
C229 C227 1.387 . S
C229 C231 1.390 1_565 S
C229 H233 0.950 . S
H230 C226 0.950 . S
C231 C229 1.390 1_545 S
C231 C232 1.387 . S
C231 H234 0.950 . S
C232 C231 1.387 . S
C232 C235 1.387 . S
H233 C229 0.950 . S
H234 C231 0.950 . S
C235 C226 1.390 1_545 S
C235 H228 0.950 . S
C235 C232 1.387 . S
C236 C237 1.387 . S
C236 H240 0.950 . S
C236 C245 1.390 1_556 S
C237 C236 1.387 . S
C237 C239 1.387 . S
H238 C245 0.950 . S
C239 C237 1.387 . S
C239 C241 1.390 1_556 S
C239 H243 0.950 . S
H240 C236 0.950 . S
C241 C239 1.390 1_554 S
C241 C242 1.387 . S
C241 H244 0.950 . S
C242 C241 1.387 . S
C242 C245 1.387 . S
H243 C239 0.950 . S
H244 C241 0.950 . S
C245 C236 1.390 1_554 S
C245 H238 0.950 . S
C245 C242 1.387 . S
C246 C247 1.387 1_455 S
C246 H250 0.950 . S
C246 C255 1.390 . S
C247 C246 1.387 1_655 S
C247 C249 1.387 . S
H248 C255 0.950 . S
C249 C247 1.387 . S
C249 C251 1.390 . S
C249 H253 0.950 . S
H250 C246 0.950 . S
C251 C249 1.390 . S
C251 C252 1.387 1_655 S
C251 H254 0.950 . S
C252 C251 1.387 1_455 S
C252 C255 1.387 . S
H253 C249 0.950 . S
H254 C251 0.950 . S
C255 C246 1.390 . S
C255 H248 0.950 . S
C255 C252 1.387 . S
C256 C257 1.387 . S
C256 H260 0.950 . S
C256 C265 1.390 1_546 S
C257 C256 1.387 . S
C257 C259 1.387 . S
H258 C265 0.950 . S
C259 C257 1.387 . S
C259 C261 1.390 1_546 S
C259 H263 0.950 . S
H260 C256 0.950 . S
C261 C259 1.390 1_564 S
C261 C262 1.387 . S
C261 H264 0.950 . S
C262 C261 1.387 . S
C262 C265 1.387 . S
H263 C259 0.950 . S
H264 C261 0.950 . S
C265 C256 1.390 1_564 S
C265 H258 0.950 . S
C265 C262 1.387 . S
C266 C267 1.387 . S
C266 H270 0.950 . S
C266 C275 1.390 . S
C267 C266 1.387 . S
C267 C269 1.387 . S
H268 C275 0.950 . S
C269 C267 1.387 . S
C269 C271 1.390 . S
C269 H273 0.950 . S
H270 C266 0.950 . S
C271 C269 1.390 . S
C271 C272 1.387 . S
C271 H274 0.950 . S
C272 C271 1.387 . S
C272 C275 1.387 . S
H273 C269 0.950 . S
H274 C271 0.950 . S
C275 C266 1.390 . S
C275 H268 0.950 . S
C275 C272 1.387 . S
C276 C277 1.387 . S
C276 H280 0.950 . S
C276 C285 1.390 . S
C277 C276 1.387 . S
C277 C279 1.387 . S
H278 C285 0.950 . S
C279 C277 1.387 . S
C279 C281 1.390 . S
C279 H283 0.950 . S
H280 C276 0.950 . S
C281 C279 1.390 . S
C281 C282 1.387 . S
C281 H284 0.950 . S
C282 C281 1.387 . S
C282 C285 1.387 . S
H283 C279 0.950 . S
H284 C281 0.950 . S
C285 C276 1.390 . S
C285 H278 0.950 . S
C285 C282 1.387 . S
C286 C287 1.387 . S
C286 H290 0.950 . S
C286 C295 1.390 . S
C287 C286 1.387 . S
C287 C289 1.387 . S
H288 C295 0.950 . S
C289 C287 1.387 . S
C289 C291 1.390 . S
C289 H293 0.950 . S
H290 C286 0.950 . S
C291 C289 1.390 . S
C291 C292 1.387 . S
C291 H294 0.950 . S
C292 C291 1.387 . S
C292 C295 1.387 . S
H293 C289 0.950 . S
H294 C291 0.950 . S
C295 C286 1.390 . S
C295 H288 0.950 . S
C295 C292 1.387 . S
C296 C297 1.387 . S
C296 H300 0.950 . S
C296 C305 1.390 . S
C297 C296 1.387 . S
C297 C299 1.387 . S
H298 C305 0.950 . S
C299 C297 1.387 . S
C299 C301 1.390 . S
C299 H303 0.950 . S
H300 C296 0.950 . S
C301 C299 1.390 . S
C301 C302 1.387 . S
C301 H304 0.950 . S
C302 C301 1.387 . S
C302 C305 1.387 . S
H303 C299 0.950 . S
H304 C301 0.950 . S
C305 C296 1.390 . S
C305 H298 0.950 . S
C305 C302 1.387 . S
C306 C307 1.387 . S
C306 H310 0.950 . S
C306 C315 1.390 . S
C307 C306 1.387 . S
C307 C309 1.387 . S
H308 C315 0.950 . S
C309 C307 1.387 . S
C309 C311 1.390 . S
C309 H313 0.950 . S
H310 C306 0.950 . S
C311 C309 1.390 . S
C311 C312 1.387 . S
C311 H314 0.950 . S
C312 C311 1.387 . S
C312 C315 1.387 . S
H313 C309 0.950 . S
H314 C311 0.950 . S
C315 C306 1.390 . S
C315 H308 0.950 . S
C315 C312 1.387 . S
C316 C317 1.387 . S
C316 H320 0.950 . S
C316 C325 1.390 . S
C317 C316 1.387 . S
C317 C319 1.387 . S
H318 C325 0.950 . S
C319 C317 1.387 . S
C319 C321 1.390 . S
C319 H323 0.950 . S
H320 C316 0.950 . S
C321 C319 1.390 . S
C321 C322 1.387 . S
C321 H324 0.950 . S
C322 C321 1.387 . S
C322 C325 1.387 . S
H323 C319 0.950 . S
H324 C321 0.950 . S
C325 C316 1.390 . S
C325 H318 0.950 . S
C325 C322 1.387 . S
C326 C327 1.387 . S
C326 H330 0.950 . S
C326 C335 1.390 . S
C327 C326 1.387 . S
C327 C329 1.387 . S
H328 C335 0.950 . S
C329 C327 1.387 . S
C329 C331 1.390 . S
C329 H333 0.950 . S
H330 C326 0.950 . S
C331 C329 1.390 . S
C331 C332 1.387 . S
C331 H334 0.950 . S
C332 C331 1.387 . S
C332 C335 1.387 . S
H333 C329 0.950 . S
H334 C331 0.950 . S
C335 C326 1.390 . S
C335 H328 0.950 . S
C335 C332 1.387 . S
C336 C337 1.387 . S
C336 H340 0.950 . S
C336 C345 1.390 . S
C337 C336 1.387 . S
C337 C339 1.387 . S
H338 C345 0.950 . S
C339 C337 1.387 . S
C339 C341 1.390 . S
C339 H343 0.950 . S
H340 C336 0.950 . S
C341 C339 1.390 . S
C341 C342 1.387 . S
C341 H344 0.950 . S
C342 C341 1.387 . S
C342 C345 1.387 . S
H343 C339 0.950 . S
H344 C341 0.950 . S
C345 C336 1.390 . S
C345 H338 0.950 . S
C345 C342 1.387 . S
C346 C347 1.387 . S
C346 H350 0.950 . S
C346 C355 1.390 . S
C347 C346 1.387 . S
C347 C349 1.387 . S
H348 C355 0.950 . S
C349 C347 1.387 . S
C349 C351 1.390 . S
C349 H353 0.950 . S
H350 C346 0.950 . S
C351 C349 1.390 . S
C351 C352 1.387 . S
C351 H354 0.950 . S
C352 C351 1.387 . S
C352 C355 1.387 . S
H353 C349 0.950 . S
H354 C351 0.950 . S
C355 C346 1.390 . S
C355 H348 0.950 . S
C355 C352 1.387 . S
C356 C357 1.387 . S
C356 H360 0.950 . S
C356 C365 1.390 . S
C357 C356 1.387 . S
C357 C359 1.387 . S
H358 C365 0.950 . S
C359 C357 1.387 . S
C359 C361 1.390 . S
C359 H363 0.950 . S
H360 C356 0.950 . S
C361 C359 1.390 . S
C361 C362 1.387 . S
C361 H364 0.950 . S
C362 C361 1.387 . S
C362 C365 1.387 . S
H363 C359 0.950 . S
H364 C361 0.950 . S
C365 C356 1.390 . S
C365 H358 0.950 . S
C365 C362 1.387 . S
C366 C367 1.387 . S
C366 H370 0.950 . S
C366 C375 1.390 . S
C367 C366 1.387 . S
C367 C369 1.387 . S
H368 C375 0.950 . S
C369 C367 1.387 . S
C369 C371 1.390 . S
C369 H373 0.950 . S
H370 C366 0.950 . S
C371 C369 1.390 . S
C371 C372 1.387 . S
C371 H374 0.950 . S
C372 C371 1.387 . S
C372 C375 1.387 . S
H373 C369 0.950 . S
H374 C371 0.950 . S
C375 C366 1.390 . S
C375 H368 0.950 . S
C375 C372 1.387 . S
C376 C377 1.387 . S
C376 H380 0.950 . S
C376 C385 1.390 . S
C377 C376 1.387 . S
C377 C379 1.387 . S
H378 C385 0.950 . S
C379 C377 1.387 . S
C379 C381 1.390 . S
C379 H383 0.950 . S
H380 C376 0.950 . S
C381 C379 1.390 . S
C381 C382 1.387 . S
C381 H384 0.950 . S
C382 C381 1.387 . S
C382 C385 1.387 . S
H383 C379 0.950 . S
H384 C381 0.950 . S
C385 C376 1.390 . S
C385 H378 0.950 . S
C385 C382 1.387 . S
C386 C387 1.387 . S
C386 H390 0.950 . S
C386 C395 1.390 . S
C387 C386 1.387 . S
C387 C389 1.387 . S
H388 C395 0.950 . S
C389 C387 1.387 . S
C389 C391 1.390 . S
C389 H393 0.950 . S
H390 C386 0.950 . S
C391 C389 1.390 . S
C391 C392 1.387 . S
C391 H394 0.950 . S
C392 C391 1.387 . S
C392 C395 1.387 . S
H393 C389 0.950 . S
H394 C391 0.950 . S
C395 C386 1.390 . S
C395 H388 0.950 . S
C395 C392 1.387 . S
C157 C10 1.396 . S
C162 C153 1.395 . S
C167 C88 1.396 . S
C172 C23 1.396 . S
C177 C36 1.395 . S
C182 C101 1.395 . S
C187 C114 1.396 . S
C192 C49 1.396 . S
C197 C127 1.396 . S
C202 C62 1.396 . S
C207 C140 1.396 . S
C212 C75 1.395 . S
C217 C47 1.403 . S
C222 C112 1.401 . S
C227 C60 1.402 . S
C232 C125 1.402 . S
C237 C73 1.402 . S
C242 C138 1.402 . S
C247 C151 1.401 . S
C252 C8 1.403 . S
C257 C21 1.402 . S
C262 C86 1.402 . S
C267 C34 1.401 . S
C272 C99 1.403 . S
C277 C109 1.478 . S
C282 C5 1.476 . S
C287 C122 1.477 . S
C292 C18 1.477 . S
C297 C31 1.476 . S
C302 C135 1.478 . S
C307 C44 1.478 . S
C312 C148 1.476 . S
C317 C57 1.477 . S
C322 C83 1.477 . S
C327 C96 1.478 . S
C332 C70 1.476 . S
C337 C0 1.362 . S
C342 C130 1.362 . S
C347 C143 1.363 . S
C352 C13 1.364 . S
C357 C26 1.363 . S
C362 C78 1.364 . S
C367 C39 1.362 . S
C372 C91 1.362 . S
C377 C52 1.364 . S
C382 C104 1.363 . S
C387 C65 1.363 . S
C392 C117 1.364 . S
