# Generated by pormake.
# Topology wjd, (6)-cn, num edge types: 1
# Building blocks:
#     Node 0, Type 0, BuildingBlock: MIFKUJ_clean_sbu_0, # of connection points: 6
#     Node 1, Type 0, BuildingBlock: MIFKUJ_clean_sbu_0, # of connection points: 6
#     Node 2, Type 0, BuildingBlock: MIFKUJ_clean_sbu_0, # of connection points: 6
#     Node 3, Type 0, BuildingBlock: MIFKUJ_clean_sbu_0, # of connection points: 6
#     Node 4, Type 0, BuildingBlock: MIFKUJ_clean_sbu_0, # of connection points: 6
#     Node 5, Type 0, BuildingBlock: MIFKUJ_clean_sbu_0, # of connection points: 6
#     Node 6, Type 0, BuildingBlock: MIFKUJ_clean_sbu_0, # of connection points: 6
#     Node 7, Type 0, BuildingBlock: MIFKUJ_clean_sbu_0, # of connection points: 6
#     Node 8, Type 0, BuildingBlock: MIFKUJ_clean_sbu_0, # of connection points: 6
#     Node 9, Type 0, BuildingBlock: MIFKUJ_clean_sbu_0, # of connection points: 6
#     Node 10, Type 0, BuildingBlock: MIFKUJ_clean_sbu_0, # of connection points: 6
#     Node 11, Type 0, BuildingBlock: MIFKUJ_clean_sbu_0, # of connection points: 6
#     Edge 12, Type (0, 0), BuildingBlock: EZIPEK_clean_linker_0, # of connection points: 2
#     Edge 13, Type (0, 0), BuildingBlock: EZIPEK_clean_linker_0, # of connection points: 2
#     Edge 14, Type (0, 0), BuildingBlock: EZIPEK_clean_linker_0, # of connection points: 2
#     Edge 15, Type (0, 0), BuildingBlock: EZIPEK_clean_linker_0, # of connection points: 2
#     Edge 16, Type (0, 0), BuildingBlock: EZIPEK_clean_linker_0, # of connection points: 2
#     Edge 17, Type (0, 0), BuildingBlock: EZIPEK_clean_linker_0, # of connection points: 2
#     Edge 18, Type (0, 0), BuildingBlock: EZIPEK_clean_linker_0, # of connection points: 2
#     Edge 19, Type (0, 0), BuildingBlock: EZIPEK_clean_linker_0, # of connection points: 2
#     Edge 20, Type (0, 0), BuildingBlock: EZIPEK_clean_linker_0, # of connection points: 2
#     Edge 21, Type (0, 0), BuildingBlock: EZIPEK_clean_linker_0, # of connection points: 2
#     Edge 22, Type (0, 0), BuildingBlock: EZIPEK_clean_linker_0, # of connection points: 2
#     Edge 23, Type (0, 0), BuildingBlock: EZIPEK_clean_linker_0, # of connection points: 2
#     Edge 24, Type (0, 0), BuildingBlock: EZIPEK_clean_linker_0, # of connection points: 2
#     Edge 25, Type (0, 0), BuildingBlock: EZIPEK_clean_linker_0, # of connection points: 2
#     Edge 26, Type (0, 0), BuildingBlock: EZIPEK_clean_linker_0, # of connection points: 2
#     Edge 27, Type (0, 0), BuildingBlock: EZIPEK_clean_linker_0, # of connection points: 2
#     Edge 28, Type (0, 0), BuildingBlock: EZIPEK_clean_linker_0, # of connection points: 2
#     Edge 29, Type (0, 0), BuildingBlock: EZIPEK_clean_linker_0, # of connection points: 2
#     Edge 30, Type (0, 0), BuildingBlock: EZIPEK_clean_linker_0, # of connection points: 2
#     Edge 31, Type (0, 0), BuildingBlock: EZIPEK_clean_linker_0, # of connection points: 2
#     Edge 32, Type (0, 0), BuildingBlock: EZIPEK_clean_linker_0, # of connection points: 2
#     Edge 33, Type (0, 0), BuildingBlock: EZIPEK_clean_linker_0, # of connection points: 2
#     Edge 34, Type (0, 0), BuildingBlock: EZIPEK_clean_linker_0, # of connection points: 2
#     Edge 35, Type (0, 0), BuildingBlock: EZIPEK_clean_linker_0, # of connection points: 2
#     Edge 36, Type (0, 0), BuildingBlock: EZIPEK_clean_linker_0, # of connection points: 2
#     Edge 37, Type (0, 0), BuildingBlock: EZIPEK_clean_linker_0, # of connection points: 2
#     Edge 38, Type (0, 0), BuildingBlock: EZIPEK_clean_linker_0, # of connection points: 2
#     Edge 39, Type (0, 0), BuildingBlock: EZIPEK_clean_linker_0, # of connection points: 2
#     Edge 40, Type (0, 0), BuildingBlock: EZIPEK_clean_linker_0, # of connection points: 2
#     Edge 41, Type (0, 0), BuildingBlock: EZIPEK_clean_linker_0, # of connection points: 2
#     Edge 42, Type (0, 0), BuildingBlock: EZIPEK_clean_linker_0, # of connection points: 2
#     Edge 43, Type (0, 0), BuildingBlock: EZIPEK_clean_linker_0, # of connection points: 2
#     Edge 44, Type (0, 0), BuildingBlock: EZIPEK_clean_linker_0, # of connection points: 2
#     Edge 45, Type (0, 0), BuildingBlock: EZIPEK_clean_linker_0, # of connection points: 2
#     Edge 46, Type (0, 0), BuildingBlock: EZIPEK_clean_linker_0, # of connection points: 2
#     Edge 47, Type (0, 0), BuildingBlock: EZIPEK_clean_linker_0, # of connection points: 2
# Relax obj value: 0.092
# Max RMSD: 0.200
# Mean RMSD: 0.200
data_MOF--net-wjd--node1-MIFKUJ_clean_sbu_0--edge1-EZIPEK_clean_linker_0
_symmetry_space_group_name_H-M    P1
_symmetry_Int_Tables_number       1
_symmetry_cell_setting            triclinic
loop_
_symmetry_equiv_pos_as_xyz
'x, y, z'
_cell_length_a     27.640565
_cell_length_b     27.964987
_cell_length_c     36.460685
_cell_angle_alpha  89.831306
_cell_angle_beta   90.036757
_cell_angle_gamma 119.35955
loop_
_atom_site_label
_atom_site_type_symbol
_atom_site_fract_x
_atom_site_fract_y
_atom_site_fract_z
_atom_type_partial_charge
Zn0 Zn 0.23881 0.05566 0.11344 0.0
Zn1 Zn 0.36992 0.15468 0.08581 0.0
C2 C 0.18471 0.11713 0.11902 0.0
O3 O 0.17667 0.09362 0.15135 0.0
C4 C 0.47032 0.1494 0.10345 0.0
O5 O 0.46362 0.16519 0.13603 0.0
O6 O 0.17078 -0.01669 0.1145 0.0
O7 O 0.28788 0.04047 0.08168 0.0
O8 O 0.31567 0.11148 0.0457 0.0
C9 C 0.14192 0.9594 0.14252 0.0
O10 O 0.15674 -0.01751 0.17492 0.0
O11 O 0.21531 0.1104 0.09581 0.0
C12 C 0.43207 0.26544 0.10146 0.0
O13 O 0.43194 0.24422 0.13361 0.0
O14 O 0.40094 0.23458 0.07627 0.0
O15 O 0.35076 0.14012 0.13979 0.0
O16 O 0.27061 0.07619 0.1623 0.0
O17 O 0.43436 0.13997 0.07867 0.0
C18 C 0.29355 0.06014 0.0499 0.0
C19 C 0.31939 0.11536 0.16677 0.0
Zn20 Zn 0.73375 0.57003 0.40862 0.0
Zn21 Zn 0.80543 0.73623 0.38263 0.0
C22 C 0.63122 0.48409 0.38136 0.0
O23 O 0.6576 0.49499 0.34987 0.0
C24 C 0.91584 0.81922 0.37234 0.0
O25 O 0.89073 0.84583 0.36053 0.0
O26 O 0.77353 0.52551 0.41354 0.0
O27 O 0.74942 0.61182 0.35855 0.0
O28 O 0.78252 0.69656 0.33593 0.0
C29 C 0.78173 0.50323 0.38561 0.0
O30 O 0.7706 0.51465 0.35277 0.0
O31 O 0.65422 0.51438 0.40875 0.0
C32 C 0.79069 0.82418 0.41271 0.0
O33 O 0.82088 0.82038 0.43924 0.0
O34 O 0.77906 0.79178 0.38576 0.0
O35 O 0.77603 0.67733 0.41794 0.0
O36 O 0.73662 0.61054 0.45556 0.0
O37 O 0.88722 0.77045 0.3837 0.0
C38 C 0.76209 0.64512 0.33144 0.0
C39 C 0.75328 0.66031 0.4486 0.0
Zn40 Zn 0.90776 0.1553 0.10614 0.0
Zn41 Zn 0.80559 0.22903 0.09753 0.0
C42 C 0.84781 0.03977 0.12151 0.0
O43 O 0.84061 0.0559 0.15379 0.0
C44 C 0.79736 0.32648 0.09221 0.0
O45 O 0.76096 0.29733 0.06697 0.0
O46 O -0.01029 0.1842 0.09626 0.0
O47 O 0.87337 0.19033 0.07838 0.0
O48 O 0.84824 0.24168 0.04984 0.0
C49 C 0.02107 0.18072 0.12031 0.0
O50 O 0.00168 0.16604 0.15379 0.0
O51 O 0.87152 0.07473 0.09607 0.0
C52 C 0.68872 0.18437 0.10927 0.0
O53 O 0.70714 0.21598 0.1383 0.0
O54 O 0.72316 0.17965 0.08864 0.0
O55 O 0.83585 0.20217 0.14041 0.0
O56 O 0.88965 0.16703 0.15726 0.0
O57 O 0.82135 0.30509 0.11013 0.0
C58 C 0.88018 0.2215 0.05162 0.0
C59 C 0.85629 0.18482 0.16516 0.0
Zn60 Zn 0.38331 0.1543 0.39865 0.0
Zn61 Zn 0.25319 0.05011 0.37059 0.0
C62 C 0.48123 0.14446 0.38422 0.0
O63 O 0.48074 0.16782 0.35306 0.0
C64 C 0.20561 0.12047 0.36329 0.0
O65 O 0.20732 0.10775 0.32882 0.0
O66 O 0.41988 0.23513 0.40911 0.0
O67 O 0.36817 0.14593 0.344 0.0
O68 O 0.29128 0.07435 0.32419 0.0
C69 C 0.4458 0.26777 0.38285 0.0
O70 O 0.44253 0.24855 0.34966 0.0
O71 O 0.44271 0.13287 0.40738 0.0
C72 C 0.14208 0.96694 0.37567 0.0
O73 O 0.14053 0.00196 0.39874 0.0
O74 O 0.18682 0.9782 0.35937 0.0
O75 O 0.29449 0.03365 0.40853 0.0
O76 O 0.32472 0.11199 0.43738 0.0
O77 O 0.22624 0.10247 0.38721 0.0
C78 C 0.33676 0.11721 0.31821 0.0
C79 C 0.30573 0.06048 0.43808 0.0
Zn80 Zn 0.81862 0.72493 0.11947 0.0
Zn81 Zn 0.72582 0.57098 0.1011 0.0
C82 C 0.93008 0.77176 0.13657 0.0
O83 O 0.90874 0.77575 0.16784 0.0
C84 C 0.63609 0.46061 0.10504 0.0
O85 O 0.67459 0.44787 0.11324 0.0
O86 O 0.81693 0.79348 0.13099 0.0
O87 O 0.77808 0.7046 0.07245 0.0
O88 O 0.7237 0.61789 0.06018 0.0
C89 C 0.84245 0.83276 0.10865 0.0
O90 O 0.87166 0.82817 0.08199 0.0
O91 O 0.89753 0.74587 0.11052 0.0
C92 C 0.79656 0.52454 0.11384 0.0
O93 O 0.78095 0.5269 0.14746 0.0
O94 O 0.77754 0.54155 0.08828 0.0
O95 O 0.73341 0.59181 0.15471 0.0
O96 O 0.7904 0.68026 0.16476 0.0
O97 O 0.64881 0.50975 0.09844 0.0
C98 C 0.74578 0.66772 0.05067 0.0
C99 C 0.75892 0.63205 0.17625 0.0
Zn100 Zn 0.80942 0.21167 0.39353 0.0
Zn101 Zn 0.91559 0.15746 0.37657 0.0
C102 C 0.81505 0.3168 0.41138 0.0
O103 O 0.80799 0.29899 0.44538 0.0
C104 C 0.84788 0.04118 0.3771 0.0
O105 O 0.86598 0.0495 0.34308 0.0
O106 O 0.72745 0.16358 0.40457 0.0
O107 O 0.83114 0.19275 0.34444 0.0
O108 O 0.8892 0.16318 0.32714 0.0
C109 C 0.69331 0.16105 0.38026 0.0
O110 O 0.71195 0.18073 0.34737 0.0
O111 O 0.81907 0.288 0.38585 0.0
C112 C 0.00602 0.12776 0.37604 0.0
O113 O 0.96641 0.07659 0.3786 0.0
O114 O -0.00622 0.16612 0.37434 0.0
O115 O 0.92502 0.22314 0.40464 0.0
O116 O 0.85487 0.21388 0.43781 0.0
O117 O 0.86049 0.08258 0.39744 0.0
C118 C 0.85341 0.17782 0.31966 0.0
C119 C 0.90363 0.2205 0.43574 0.0
Zn120 Zn 0.1436 0.3897 0.60407 0.0
Zn121 Zn 0.07866 0.23729 0.62231 0.0
C122 C 0.1526 0.49154 0.57965 0.0
O123 O 0.17116 0.4815 0.54914 0.0
C124 C 0.12947 0.18365 0.59165 0.0
O125 O 0.08308 0.1631 0.57289 0.0
O126 O 0.22292 0.4141 0.59065 0.0
O127 O 0.12844 0.36555 0.65687 0.0
O128 O 0.08946 0.27648 0.6689 0.0
C129 C 0.25723 0.44653 0.61404 0.0
O130 O 0.23821 0.45289 0.64558 0.0
O131 O 0.13823 0.45789 0.60616 0.0
C132 C 0.96187 0.15643 0.62826 0.0
O133 O 0.00834 0.15552 0.63215 0.0
O134 O 0.00917 0.15908 0.63161 0.0
O135 O 0.05298 0.26014 0.57877 0.0
O136 O 0.09026 0.34766 0.56376 0.0
O137 O 0.14243 0.22473 0.61212 0.0
C138 C 0.10942 0.32566 0.67922 0.0
C139 C 0.05635 0.29757 0.55771 0.0
Zn140 Zn 0.15418 0.90447 0.87948 0.0
Zn141 Zn 0.20485 0.80279 0.90176 0.0
C142 C 0.04294 0.86695 0.90437 0.0
O143 O 0.06154 0.91978 0.90806 0.0
C144 C 0.31281 0.81528 0.92279 0.0
O145 O 0.2965 0.81345 0.95683 0.0
O146 O 0.16316 0.97906 0.87756 0.0
O147 O 0.21705 0.90903 0.90762 0.0
O148 O 0.20446 0.84543 0.94643 0.0
C149 C 0.20847 0.02351 0.88154 0.0
O150 O 0.25552 0.02313 0.88533 0.0
O151 O 0.07636 0.84987 0.89564 0.0
C152 C 0.16205 0.69279 0.88696 0.0
O153 O 0.19672 0.71621 0.85958 0.0
O154 O 0.15329 0.7226 0.9091 0.0
O155 O 0.19096 0.82655 0.85195 0.0
O156 O 0.16226 0.88247 0.83029 0.0
O157 O 0.28115 0.81166 0.89651 0.0
C158 C 0.21006 0.89238 0.94028 0.0
C159 C 0.17863 0.84786 0.82519 0.0
Zn160 Zn 0.56684 0.73512 0.58844 0.0
Zn161 Zn 0.74088 0.81999 0.6057 0.0
C162 C 0.46352 0.63861 0.61371 0.0
O163 O 0.45409 0.67285 0.63279 0.0
C164 C 0.79816 0.93521 0.61865 0.0
O165 O 0.79621 0.9176 0.65234 0.0
O166 O 0.5291 0.78027 0.57974 0.0
O167 O 0.61757 0.76542 0.63419 0.0
O168 O 0.70451 0.80789 0.65474 0.0
C169 C 0.51015 0.79368 0.60725 0.0
O170 O 0.52186 0.78379 0.64039 0.0
O171 O 0.50828 0.65596 0.59568 0.0
C172 C 0.84372 0.82254 0.58944 0.0
O173 O 0.85031 0.865 0.57027 0.0
O174 O 0.79771 0.79352 0.60566 0.0
O175 O 0.6769 0.7795 0.57433 0.0
O176 O 0.60488 0.72978 0.54198 0.0
O177 O 0.77541 0.90038 0.5932 0.0
C178 C 0.65234 0.78524 0.66057 0.0
C179 C 0.6567 0.75119 0.54595 0.0
Zn180 Zn 0.05954 0.21981 0.88702 0.0
Zn181 Zn 0.14822 0.38885 0.9092 0.0
C182 C 0.10806 0.15093 0.89264 0.0
O183 O 0.05593 0.11235 0.89115 0.0
C184 C 0.14375 0.4835 0.8844 0.0
O185 O 0.17729 0.48414 0.85875 0.0
O186 O -0.01566 0.14989 0.88331 0.0
O187 O 0.06421 0.26743 0.9278 0.0
O188 O 0.10554 0.34784 0.95428 0.0
C189 C 0.9483 0.12921 0.90873 0.0
O190 O 0.95636 0.1554 0.93988 0.0
O191 O 0.12036 0.20093 0.8921 0.0
C192 C 0.26685 0.44646 0.89035 0.0
O193 O 0.2488 0.42156 0.85879 0.0
O194 O 0.23244 0.43546 0.91653 0.0
O195 O 0.12484 0.34868 0.85985 0.0
O196 O 0.07546 0.26197 0.84087 0.0
O197 O 0.12292 0.4442 0.90711 0.0
C198 C 0.06738 0.29822 0.954 0.0
C199 C 0.10418 0.31306 0.83436 0.0
Zn200 Zn 0.21665 0.81274 0.59321 0.0
Zn201 Zn 0.17587 0.90974 0.61594 0.0
C202 C 0.32646 0.83157 0.61234 0.0
O203 O 0.30302 0.80943 0.64382 0.0
C204 C 0.06126 0.85979 0.61283 0.0
O205 O 0.07509 0.88629 0.64413 0.0
O206 O 0.18371 0.7336 0.57971 0.0
O207 O 0.20306 0.81873 0.64793 0.0
O208 O 0.17957 0.88135 0.66365 0.0
C209 C 0.15103 0.69476 0.60054 0.0
O210 O 0.13257 0.70565 0.63073 0.0
O211 O 0.29825 0.8396 0.58818 0.0
C212 C 0.16817 0.00299 0.59717 0.0
O213 O 0.14977 0.97461 0.56685 0.0
O214 O 0.18298 -0.01652 0.62357 0.0
O215 O 0.24285 0.92684 0.5869 0.0
O216 O 0.20302 0.85404 0.5525 0.0
O217 O 0.09963 0.86015 0.5933 0.0
C218 C 0.19014 0.84351 0.67192 0.0
C219 C 0.23207 0.90566 0.55551 0.0
Zn220 Zn 0.7219 0.79227 0.86958 0.0
Zn221 Zn 0.57324 0.74575 0.8912 0.0
C222 C 0.78425 0.90695 0.87448 0.0
O223 O 0.79275 0.89776 0.84042 0.0
C224 C 0.48298 0.63597 0.91029 0.0
O225 O 0.48272 0.65936 0.94145 0.0
O226 O 0.79021 0.78505 0.86126 0.0
O227 O 0.67092 0.72637 0.89954 0.0
O228 O 0.6235 0.75323 0.93359 0.0
C229 C 0.81192 0.77872 0.8903 0.0
O230 O 0.78981 0.78076 0.92162 0.0
O231 O 0.75062 0.86664 0.89431 0.0
C232 C 0.49997 0.78963 0.88196 0.0
O233 O 0.5054 0.78118 0.84718 0.0
O234 O 0.5267 0.77924 0.90605 0.0
O235 O 0.60174 0.76976 0.83881 0.0
O236 O 0.68766 0.7923 0.82197 0.0
O237 O 0.51898 0.6646 0.88628 0.0
C238 C 0.65688 0.73466 0.93082 0.0
C239 C 0.63931 0.78402 0.8144 0.0
C240 C 0.11914 0.20556 0.13584 0.0
C241 C 0.07465 0.18278 0.11034 0.0
C242 C 0.11312 0.12864 0.08279 0.0
C243 C 0.15485 0.14783 0.11026 0.0
N244 N 0.20836 0.21652 0.15502 0.0
N245 N 0.04525 0.14292 0.04989 0.0
C246 C 0.16143 0.1905 0.13415 0.0
C247 C 0.07689 0.15118 0.08051 0.0
N248 N 0.12001 0.24064 0.16216 0.0
N249 N 0.10538 0.08636 0.06042 0.0
H250 H 0.02177 0.16217 0.04538 0.0
H251 H 0.04856 0.12344 0.02649 0.0
H252 H 0.13142 0.06934 0.06041 0.0
H253 H 0.07074 0.06551 0.04363 0.0
H254 H 0.14674 0.2533 0.18457 0.0
H255 H 0.09264 0.25633 0.16176 0.0
H256 H 0.21817 0.25068 0.17119 0.0
H257 H 0.24017 0.20668 0.15346 0.0
C258 C 0.05922 0.91222 0.33682 0.0
C259 C 0.09081 0.91603 0.36822 0.0
C260 C 0.00947 0.84576 0.39977 0.0
C261 C 0.97664 0.84468 0.36938 0.0
N262 N 0.97269 0.85883 0.30435 0.0
N263 N 0.10221 0.87222 0.42148 0.0
C264 C 0.0024 0.87201 0.33624 0.0
C265 C 0.06788 0.87753 0.39691 0.0
N266 N 0.08264 0.94875 0.30863 0.0
N267 N -0.01447 0.82065 0.43219 0.0
H268 H 0.14537 0.89576 0.4195 0.0
H269 H 0.08817 0.84096 0.44102 0.0
H270 H 0.94285 0.79856 0.43642 0.0
H271 H 0.00828 0.82542 0.45601 0.0
H272 H 0.05977 0.9521 0.28704 0.0
H273 H 0.12485 0.97747 0.30775 0.0
H274 H -0.00947 0.87438 0.27884 0.0
H275 H 0.93139 0.82768 0.30295 0.0
C276 C 0.89494 -0.01658 0.12312 0.0
C277 C 0.84528 -0.01385 0.11852 0.0
C278 C 0.79328 0.88756 0.10658 0.0
C279 C 0.84226 0.88463 0.11364 0.0
N280 N 0.93655 0.92645 0.13545 0.0
N281 N 0.74602 0.94114 0.11091 0.0
C282 C 0.89228 0.93165 0.12376 0.0
C283 C 0.79394 0.93821 0.11187 0.0
N284 N 0.94485 0.0304 0.12644 0.0
N285 N 0.74707 0.84264 0.09335 0.0
H286 H 0.74549 0.97803 0.11355 0.0
H287 H 0.70661 0.90681 0.11 0.0
H288 H 0.74512 0.80483 0.08925 0.0
H289 H 0.71209 0.84374 0.08388 0.0
H290 H -0.017 0.03149 0.12488 0.0
H291 H 0.94842 0.06906 0.12821 0.0
H292 H 0.97224 0.95841 0.14691 0.0
H293 H 0.93575 0.88882 0.13689 0.0
C294 C 0.15406 0.17019 0.34623 0.0
C295 C 0.16826 0.14319 0.37357 0.0
C296 C 0.08414 0.12278 0.4079 0.0
C297 C 0.06489 0.14028 0.37718 0.0
N298 N 0.08192 0.18228 0.3171 0.0
N299 N 0.16235 0.12268 0.43812 0.0
C300 C 0.10058 0.16595 0.34673 0.0
C301 C 0.13807 0.12811 0.40694 0.0
N302 N 0.1929 0.20137 0.3206 0.0
N303 N 0.05033 0.09989 0.43763 0.0
H304 H 0.20451 0.13497 0.43934 0.0
H305 H 0.14356 0.11405 0.46381 0.0
H306 H 0.01234 0.09884 0.44054 0.0
H307 H 0.05854 0.07959 0.45863 0.0
H308 H 0.18759 0.22608 0.30145 0.0
H309 H 0.23321 0.20721 0.32149 0.0
H310 H 0.10344 0.19519 0.2924 0.0
H311 H 0.04301 0.17965 0.31613 0.0
C312 C 0.05285 0.9007 0.10957 0.0
C313 C 0.09066 0.90644 0.13784 0.0
C314 C 0.0278 0.81267 0.15833 0.0
C315 C -0.00976 0.80779 0.13024 0.0
N316 N 0.98121 0.83707 0.06929 0.0
N317 N 0.12208 0.86225 0.18134 0.0
C318 C 0.00748 0.84826 0.10241 0.0
C319 C 0.08072 0.86062 0.15992 0.0
N320 N 0.0578 0.94553 0.09114 0.0
N321 N 0.01231 0.77168 0.18367 0.0
H322 H 0.16191 0.8961 0.18216 0.0
H323 H 0.11856 0.82829 0.1955 0.0
H324 H 0.97558 0.73432 0.18118 0.0
H325 H 0.03482 0.77542 0.20744 0.0
H326 H 0.02796 0.94334 0.07267 0.0
H327 H 0.08776 -0.01443 0.09749 0.0
H328 H -0.00488 0.86505 0.04759 0.0
H329 H 0.95099 0.79778 0.06171 0.0
C330 C 0.8072 0.91453 0.43698 0.0
C331 C 0.78278 0.87352 0.41003 0.0
C332 C 0.77783 0.94133 0.3695 0.0
C333 C 0.81844 -0.01606 0.39173 0.0
N334 N 0.87485 0.00867 0.44714 0.0
N335 N 0.72644 0.84386 0.35547 0.0
C336 C 0.83307 0.97022 0.42611 0.0
C337 C 0.76195 0.88555 0.37771 0.0
N338 N 0.80499 0.90033 0.47295 0.0
N339 N 0.75351 0.95436 0.34142 0.0
H340 H 0.70574 0.80314 0.36435 0.0
H341 H 0.71633 0.84956 0.32893 0.0
H342 H 0.76217 -0.00549 0.33627 0.0
H343 H 0.72138 0.92554 0.32535 0.0
H344 H 0.81807 0.92931 0.49383 0.0
H345 H 0.78278 0.85958 0.48175 0.0
H346 H 0.88933 -0.00155 0.47067 0.0
H347 H 0.89937 0.04932 0.43935 0.0
C348 C 0.19461 0.09534 0.57145 0.0
C349 C 0.17012 0.05652 0.6003 0.0
C350 C 0.14066 0.11621 0.63013 0.0
C351 C 0.1547 0.14859 0.59774 0.0
N352 N 0.19623 0.17111 0.53774 0.0
N353 N 0.11526 0.02761 0.65604 0.0
C354 C 0.18256 0.13908 0.56852 0.0
C355 C 0.14303 0.06679 0.62985 0.0
N356 N 0.23003 0.09071 0.5474 0.0
N357 N 0.12356 0.13159 0.66092 0.0
H358 H 0.1144 -0.00992 0.65709 0.0
H359 H 0.08866 0.03014 0.67518 0.0
H360 H 0.11859 0.16606 0.66234 0.0
H361 H 0.11939 0.11295 0.68638 0.0
H362 H 0.25234 0.11972 0.52727 0.0
H363 H 0.24136 0.06033 0.54993 0.0
H364 H 0.21147 0.16294 0.51387 0.0
H365 H 0.19028 0.20512 0.53571 0.0
C366 C 0.96013 0.82709 0.8633 0.0
C367 C -0.01715 0.83079 0.89887 0.0
C368 C 0.88952 0.77493 0.92388 0.0
C369 C 0.86726 0.78114 0.89026 0.0
N370 N 0.87834 0.7839 0.82468 0.0
N371 N 0.97047 0.80697 0.96303 0.0
C372 C 0.90157 0.79837 0.85873 0.0
C373 C 0.94795 0.80347 0.92911 0.0
N374 N -0.00557 0.85323 0.83427 0.0
N375 N 0.85478 0.73902 0.94967 0.0
H376 H 0.01323 0.82608 0.96744 0.0
H377 H 0.94695 0.79363 0.98697 0.0
H378 H 0.81253 0.71354 0.94459 0.0
H379 H 0.86848 0.72935 0.97372 0.0
H380 H 0.98022 0.85817 0.80885 0.0
H381 H 0.03762 0.87294 0.8361 0.0
H382 H 0.90131 0.79212 0.80059 0.0
H383 H 0.83623 0.75647 0.82095 0.0
C384 C 0.82053 0.02986 0.63585 0.0
C385 C 0.82873 -0.00477 0.61133 0.0
C386 C 0.91223 0.07496 0.58787 0.0
C387 C 0.91168 0.10474 0.61901 0.0
N388 N 0.86257 0.11521 0.67003 0.0
N389 N 0.87862 -0.01328 0.5594 0.0
C390 C 0.86438 0.08406 0.64183 0.0
C391 C 0.87279 0.01847 0.58538 0.0
N392 N 0.77022 0.01085 0.65254 0.0
N393 N 0.94937 0.10142 0.56024 0.0
H394 H 0.84734 0.94762 0.55308 0.0
H395 H 0.91468 -0.00072 0.54409 0.0
H396 H 0.97679 0.14357 0.56079 0.0
H397 H 0.94901 0.08322 0.5353 0.0
H398 H 0.75982 0.03487 0.66894 0.0
H399 H 0.73687 0.97244 0.64621 0.0
H400 H 0.83192 0.10021 0.69018 0.0
H401 H 0.89343 0.15582 0.67406 0.0
C402 C 0.17952 0.13023 0.91841 0.0
C403 C 0.1515 0.1358 0.88758 0.0
C404 C 0.18406 0.08627 0.84901 0.0
C405 C 0.20617 0.07489 0.88076 0.0
N406 N 0.24204 0.09953 0.94202 0.0
N407 N 0.14006 0.13487 0.82209 0.0
C408 C 0.21019 0.10205 0.91424 0.0
C409 C 0.15857 0.11936 0.85222 0.0
N410 N 0.17382 0.14884 0.95187 0.0
N411 N 0.18505 0.06271 0.81641 0.0
H412 H 0.12135 0.15937 0.82399 0.0
H413 H 0.14684 0.12731 0.79519 0.0
H414 H 0.20653 0.04095 0.81325 0.0
H415 H 0.16401 0.06348 0.79295 0.0
H416 H 0.18774 0.14061 0.97636 0.0
H417 H 0.15299 0.17117 0.95526 0.0
H418 H 0.2501 0.12167 0.96627 0.0
H419 H 0.26458 0.07884 0.93936 0.0
C420 C -0.01651 0.83986 0.56709 0.0
C421 C 0.00148 0.83154 0.60189 0.0
C422 C 0.90899 0.80185 0.62744 0.0
C423 C 0.89161 0.81221 0.59296 0.0
N424 N 0.90485 0.81786 0.52747 0.0
N425 N 0.97451 0.78235 0.65916 0.0
C426 C 0.92639 0.82304 0.5619 0.0
C427 C 0.96161 0.80462 0.62991 0.0
N428 N 0.02067 0.86742 0.53983 0.0
N429 N 0.87829 0.79382 0.65851 0.0
H430 H 0.01245 0.78282 0.66104 0.0
H431 H 0.94554 0.75828 0.67899 0.0
H432 H 0.83981 0.79186 0.65912 0.0
H433 H 0.8933 0.79313 0.68463 0.0
H434 H 0.01005 0.88023 0.51575 0.0
H435 H 0.06279 0.8811 0.54224 0.0
H436 H 0.92723 0.82102 0.50374 0.0
H437 H 0.86279 0.80431 0.52298 0.0
C438 C 0.85866 0.06218 0.87832 0.0
C439 C 0.90078 0.07271 0.90448 0.0
C440 C 0.86056 0.97368 0.91585 0.0
C441 C 0.81847 0.96317 0.88962 0.0
N442 N 0.76921 -0.00341 0.85271 0.0
N443 N 0.9365 0.0399 0.95312 0.0
C444 C 0.81507 0.00734 0.87294 0.0
C445 C 0.89958 0.02891 0.92511 0.0
N446 N 0.86087 0.10455 0.85819 0.0
N447 N 0.86584 0.93112 0.92998 0.0
H448 H 0.96873 0.07908 0.95906 0.0
H449 H 0.93317 0.0106 0.97215 0.0
H450 H 0.83788 0.89013 0.92458 0.0
H451 H 0.89988 0.93618 0.94523 0.0
H452 H 0.8356 0.09912 0.83563 0.0
H453 H 0.89014 0.14551 0.86293 0.0
H454 H 0.7614 0.0268 0.84223 0.0
H455 H 0.73604 0.95693 0.84946 0.0
C456 C 0.34005 0.1701 0.26253 0.0
C457 C 0.35311 0.13255 0.27996 0.0
C458 C 0.36073 0.09573 0.22116 0.0
C459 C 0.34165 0.1289 0.20403 0.0
N460 N 0.32908 0.20814 0.20507 0.0
N461 N 0.39207 0.07259 0.27731 0.0
C462 C 0.33708 0.17008 0.22368 0.0
C463 C 0.36938 0.09996 0.25954 0.0
N464 N 0.32733 0.20307 0.2833 0.0
N465 N 0.36777 0.05853 0.20088 0.0
H466 H 0.39823 0.07547 0.30562 0.0
H467 H 0.40872 0.05099 0.26413 0.0
H468 H 0.36367 0.05613 0.17239 0.0
H469 H 0.37593 0.02897 0.21209 0.0
H470 H 0.31154 0.22718 0.27266 0.0
H471 H 0.33123 0.20507 0.3118 0.0
H472 H 0.32903 0.24163 0.21738 0.0
H473 H 0.32687 0.20853 0.17651 0.0
C474 C 0.79321 0.61767 0.27501 0.0
C475 C 0.75212 0.62495 0.29337 0.0
C476 C 0.71048 0.62838 0.23485 0.0
C477 C 0.75267 0.62311 0.21629 0.0
N478 N 0.82987 0.60567 0.21733 0.0
N479 N 0.6651 0.62463 0.29271 0.0
C480 C 0.7923 0.6148 0.23602 0.0
C481 C 0.70841 0.62591 0.27377 0.0
N482 N 0.835 0.61719 0.29485 0.0
N483 N 0.67434 0.6387 0.21527 0.0
H484 H 0.66276 0.62244 0.3213 0.0
H485 H 0.62948 0.62092 0.28037 0.0
H486 H 0.67357 0.63904 0.18666 0.0
H487 H 0.64716 0.64991 0.22715 0.0
H488 H 0.8698 0.61793 0.28337 0.0
H489 H 0.83586 0.61793 0.32345 0.0
H490 H 0.85584 0.5932 0.22961 0.0
H491 H 0.83351 0.6083 0.18885 0.0
C492 C 0.87902 0.23599 0.22414 0.0
C493 C 0.84417 0.18793 0.20408 0.0
C494 C 0.80466 0.13657 0.26081 0.0
C495 C 0.84257 0.18345 0.28081 0.0
N496 N 0.90441 0.28101 0.28342 0.0
N497 N 0.76399 0.098 0.20154 0.0
C498 C 0.87578 0.23444 0.26302 0.0
C499 C 0.80346 0.13995 0.22194 0.0
N500 N 0.91706 0.28204 0.20598 0.0
N501 N 0.7715 0.08862 0.27903 0.0
H502 H 0.76238 0.10011 0.173 0.0
H503 H 0.73045 0.06333 0.21272 0.0
H504 H 0.76981 0.08601 0.30761 0.0
H505 H 0.74711 0.05119 0.26611 0.0
H506 H 0.94839 0.31642 0.21891 0.0
H507 H 0.91869 0.28507 0.17742 0.0
H508 H 0.92559 0.32029 0.27224 0.0
H509 H 0.90332 0.28088 0.31202 0.0
C510 C 0.06455 0.32738 0.7381 0.0
C511 C 0.11276 0.33621 0.71887 0.0
C512 C 0.15967 0.33972 0.77646 0.0
C513 C 0.11132 0.33059 0.79572 0.0
N514 N 0.02321 0.32839 0.79661 0.0
N515 N 0.21003 0.36312 0.71884 0.0
C516 C 0.06557 0.32883 0.77701 0.0
C517 C 0.16185 0.34711 0.73785 0.0
N518 N 0.01722 0.31531 0.71915 0.0
N519 N 0.20161 0.33718 0.79466 0.0
H520 H 0.21232 0.3665 0.69033 0.0
H521 H 0.2485 0.3772 0.73137 0.0
H522 H 0.20081 0.33067 0.82288 0.0
H523 H 0.23526 0.33749 0.78162 0.0
H524 H 0.97872 0.30161 0.73155 0.0
H525 H 0.01588 0.31632 0.69056 0.0
H526 H -0.00926 0.33171 0.78471 0.0
H527 H 0.02318 0.32954 0.82523 0.0
C528 C 0.23521 0.88224 0.76863 0.0
C529 C 0.19055 0.83858 0.78751 0.0
C530 C 0.15227 0.79014 0.73008 0.0
C531 C 0.19556 0.83496 0.71109 0.0
N532 N 0.28606 0.91529 0.71156 0.0
N533 N 0.1165 0.74493 0.78863 0.0
C534 C 0.2399 0.87814 0.73028 0.0
C535 C 0.15271 0.7901 0.76901 0.0
N536 N 0.27165 0.92844 0.78722 0.0
N537 N 0.10881 0.75006 0.71103 0.0
H538 H 0.11524 0.74459 0.81722 0.0
H539 H 0.09135 0.70671 0.77682 0.0
H540 H 0.10692 0.74982 0.68249 0.0
H541 H 0.07308 0.71931 0.7234 0.0
H542 H 0.30038 0.96465 0.7744 0.0
H543 H 0.27153 0.93139 0.81575 0.0
H544 H 0.32178 0.94542 0.72422 0.0
H545 H 0.29052 0.91273 0.68331 0.0
C546 C 0.65877 0.83728 0.71722 0.0
C547 C 0.63355 0.78644 0.69847 0.0
C548 C 0.58968 0.73978 0.75587 0.0
C549 C 0.62653 0.78797 0.77536 0.0
N550 N 0.6925 0.8846 0.77503 0.0
N551 N 0.57292 0.68828 0.69958 0.0
C552 C 0.65949 0.8376 0.75609 0.0
C553 C 0.59713 0.73747 0.71744 0.0
N554 N 0.68107 0.88503 0.69759 0.0
N555 N 0.54827 0.6961 0.77396 0.0
H556 H 0.57685 0.68454 0.67149 0.0
H557 H 0.55192 0.65066 0.71308 0.0
H558 H 0.5416 0.69629 0.80198 0.0
H559 H 0.5169 0.66215 0.76061 0.0
H560 H 0.69656 0.92359 0.7095 0.0
H561 H 0.67834 0.88519 0.66905 0.0
H562 H 0.72283 0.92051 0.76273 0.0
H563 H 0.6906 0.88676 0.80351 0.0
C564 C 0.19609 0.95241 0.98433 0.0
C565 C 0.23141 0.93418 0.96927 0.0
C566 C 0.30942 0.00199 0.00541 0.0
C567 C 0.27488 0.02239 0.01863 0.0
N568 N 0.18915 0.02488 0.01605 0.0
N569 N 0.32366 0.94754 0.95977 0.0
C570 C 0.21929 2e-05 0.00658 0.0
C571 C 0.28872 0.96066 0.97818 0.0
N572 N 0.1402 0.92309 0.97825 0.0
N573 N 0.36154 0.02122 0.0195 0.0
H574 H 0.30985 0.91698 0.9399 0.0
H575 H 0.36671 0.96964 0.96208 0.0
H576 H 0.37914 0.05348 0.03815 0.0
H577 H 0.38605 0.00317 0.01441 0.0
H578 H 0.11145 0.93128 0.99114 0.0
H579 H 0.12207 0.88716 0.96282 0.0
H580 H 0.15009 0.01371 0.0054 0.0
H581 H 0.20576 0.06048 0.03179 0.0
C582 C 0.70234 0.71288 0.45875 0.0
C583 C 0.737 0.69261 0.4725 0.0
C584 C 0.71915 0.71084 0.53505 0.0
C585 C 0.68957 0.73655 0.52106 0.0
N586 N 0.66498 0.77387 0.46917 0.0
N587 N 0.78898 0.68461 0.52298 0.0
C588 C 0.68526 0.7416 0.48272 0.0
C589 C 0.74911 0.69595 0.51043 0.0
N590 N 0.68228 0.70155 0.42371 0.0
N591 N 0.71488 0.6961 0.57117 0.0
H592 H 0.81216 0.67414 0.50547 0.0
H593 H 0.80281 0.69136 0.55007 0.0
H594 H 0.69096 0.70324 0.59012 0.0
H595 H 0.73107 0.67211 0.58156 0.0
H596 H 0.65233 0.71075 0.41396 0.0
H597 H 0.69153 0.67876 0.4053 0.0
H598 H 0.66572 0.78279 0.44132 0.0
H599 H 0.65303 0.79631 0.48608 0.0
C600 C 0.02854 0.28068 0.01795 0.0
C601 C 0.02034 0.27979 0.97959 0.0
C602 C 0.92002 0.23667 0.98858 0.0
C603 C 0.92843 0.24118 0.02698 0.0
N604 N -0.00817 0.28335 0.07759 0.0
N605 N 0.96009 0.27282 0.92923 0.0
C606 C -0.01696 0.26769 0.04163 0.0
C607 C 0.96659 0.26257 0.96509 0.0
N608 N 0.07912 0.2925 0.03177 0.0
N609 N 0.8678 0.20643 0.97445 0.0
H610 H -0.00668 0.29382 0.91125 0.0
H611 H 0.92223 0.26571 0.91842 0.0
H612 H 0.83245 0.18609 0.99082 0.0
H613 H 0.86028 0.19725 0.94664 0.0
H614 H 0.0855 0.288 0.05946 0.0
H615 H 0.11337 0.30204 0.01512 0.0
H616 H 0.03132 0.30753 0.08857 0.0
H617 H 0.95975 0.27634 0.09566 0.0
C618 C 0.32854 0.02189 0.49294 0.0
C619 C 0.28901 0.02914 0.47262 0.0
C620 C 0.2126 0.9506 0.50292 0.0
C621 C 0.25155 0.94282 0.52358 0.0
N622 N 0.34623 0.96961 0.53935 0.0
N623 N 0.19637 0.01426 0.46699 0.0
C624 C 0.30964 0.97842 0.51906 0.0
C625 C 0.23179 -0.00258 0.48015 0.0
N626 N 0.38379 0.05694 0.48714 0.0
N627 N 0.1574 0.91308 0.50472 0.0
H628 H 0.21072 0.05049 0.45197 0.0
H629 H 0.15474 -0.00351 0.47448 0.0
H630 H 0.14169 0.87741 0.52041 0.0
H631 H 0.1274 0.91529 0.48871 0.0
H632 H 0.41595 0.0539 0.49964 0.0
H633 H 0.39778 0.09106 0.46998 0.0
H634 H 0.38908 -0.00558 0.53882 0.0
H635 H 0.33354 0.93611 0.55693 0.0
C636 C 0.74935 0.74056 0.00781 0.0
C637 C 0.72905 0.68409 0.01558 0.0
C638 C 0.6591 0.66026 0.96727 0.0
C639 C 0.67526 0.71663 0.96342 0.0
N640 N 0.72961 0.80996 0.9843 0.0
N641 N 0.68397 0.59338 0.98912 0.0
C642 C 0.71786 0.7565 0.98547 0.0
C643 C 0.68889 0.64433 0.99166 0.0
N644 N 0.80237 0.77821 0.01713 0.0
N645 N 0.61411 0.62194 0.9483 0.0
H646 H 0.71196 0.58358 0.00155 0.0
H647 H 0.65827 0.5638 0.97037 0.0
H648 H 0.5911 0.63248 0.93062 0.0
H649 H 0.59635 0.57986 0.9527 0.0
H650 H 0.82094 0.81946 0.00966 0.0
H651 H 0.8306 0.76626 0.02633 0.0
H652 H 0.75704 0.83949 0.00253 0.0
H653 H 0.70836 0.8236 0.96742 0.0
C654 C -0.0135 0.30604 0.51757 0.0
C655 C 0.01947 0.28111 0.5253 0.0
C656 C 0.96911 0.21175 0.47867 0.0
C657 C 0.94097 0.24023 0.46792 0.0
N658 N 0.93401 0.32286 0.47133 0.0
N659 N 0.05211 0.21927 0.50576 0.0
C660 C 0.95272 0.28983 0.4857 0.0
C661 C 0.01371 0.23653 0.50367 0.0
N662 N -0.01472 0.34328 0.5412 0.0
N663 N 0.95214 0.16016 0.46595 0.0
H664 H 0.08767 0.23888 0.52196 0.0
H665 H 0.05192 0.18973 0.48829 0.0
H666 H 0.91843 0.14029 0.44839 0.0
H667 H 0.96732 0.13532 0.47627 0.0
H668 H 0.95765 0.35833 0.53831 0.0
H669 H 0.00754 0.35499 0.56567 0.0
H670 H 0.94613 0.36197 0.48139 0.0
H671 H 0.91157 0.31371 0.44698 0.0
C672 C 0.61197 0.17741 0.06846 0.0
C673 C 0.62878 0.15886 0.0998 0.0
C674 C 0.53336 0.11391 0.12315 0.0
C675 C 0.51994 0.14285 0.09668 0.0
N676 N 0.54259 0.19511 0.0402 0.0
N677 N 0.6051 0.10225 0.15374 0.0
C678 C 0.55765 0.17154 0.06762 0.0
C679 C 0.58898 0.12418 0.1259 0.0
N680 N 0.64826 0.20148 0.04001 0.0
N681 N 0.49227 0.07597 0.14508 0.0
H682 H 0.64451 0.10585 0.15462 0.0
H683 H 0.58037 0.08163 0.17621 0.0
H684 H 0.45087 0.06625 0.14225 0.0
H685 H 0.49774 0.05062 0.16357 0.0
H686 H 0.63922 0.21517 0.01582 0.0
H687 H 0.68702 0.20402 0.0389 0.0
H688 H 0.56915 0.22079 0.01999 0.0
H689 H 0.50298 0.18998 0.03735 0.0
C690 C 0.53218 0.41922 0.36565 0.0
C691 C 0.57993 0.43139 0.38676 0.0
C692 C 0.53521 0.33753 0.41088 0.0
C693 C 0.48742 0.32537 0.38976 0.0
N694 N 0.43468 0.35604 0.35397 0.0
N695 N 0.62323 0.40571 0.43528 0.0
C696 C 0.48415 0.36686 0.36934 0.0
C697 C 0.5799 0.39203 0.41166 0.0
N698 N 0.53312 0.45742 0.34172 0.0
N699 N 0.54043 0.29629 0.42745 0.0
H700 H 0.66082 0.44213 0.43405 0.0
H701 H 0.62092 0.38142 0.45766 0.0
H702 H 0.50925 0.2555 0.42785 0.0
H703 H 0.57748 0.30151 0.43846 0.0
H704 H 0.5024 0.44891 0.32225 0.0
H705 H 0.56615 0.49748 0.34011 0.0
H706 H 0.42784 0.38558 0.34129 0.0
H707 H 0.3987 0.31811 0.35684 0.0
C708 C 0.82166 0.41856 0.06589 0.0
C709 C 0.81306 0.38494 0.09731 0.0
C710 C 0.83214 0.46315 0.13607 0.0
C711 C 0.82137 0.48853 0.10601 0.0
N712 N 0.82453 0.50014 0.0403 0.0
N713 N 0.80955 0.37647 0.16374 0.0
C714 C 0.82225 0.46947 0.0701 0.0
C715 C 0.81943 0.40782 0.1329 0.0
N716 N 0.8319 0.40296 0.03257 0.0
N717 N 0.85494 0.49219 0.16735 0.0
H718 H 0.79648 0.33468 0.16328 0.0
H719 H 0.80902 0.39112 0.18991 0.0
H720 H 0.86807 0.53408 0.16896 0.0
H721 H 0.86722 0.47662 0.18928 0.0
H722 H 0.84231 0.42724 0.00907 0.0
H723 H 0.83579 0.36797 0.02921 0.0
H724 H 0.81623 0.48497 0.01364 0.0
H725 H 0.83618 0.54158 0.04242 0.0
C726 C 0.53895 0.10166 0.36659 0.0
C727 C 0.52771 0.13344 0.39183 0.0
C728 C 0.62168 0.17246 0.41674 0.0
C729 C 0.63457 0.14394 0.38951 0.0
N730 N 0.60213 0.06989 0.34622 0.0
N731 N 0.55047 0.18165 0.44952 0.0
C732 C 0.59188 0.10463 0.36692 0.0
C733 C 0.56632 0.16275 0.41992 0.0
N734 N 0.49893 0.06921 0.34207 0.0
N735 N 0.66271 0.21204 0.43769 0.0
H736 H 0.51029 0.17493 0.45313 0.0
H737 H 0.57541 0.19864 0.47252 0.0
H738 H 0.7037 0.22045 0.43729 0.0
H739 H 0.657 0.23965 0.45372 0.0
H740 H 0.50587 0.05013 0.31982 0.0
H741 H 0.45827 0.06206 0.34401 0.0
H742 H 0.572 0.03746 0.33108 0.0
H743 H 0.64028 0.07068 0.34675 0.0
C744 C 0.51593 0.33408 0.06625 0.0
C745 C 0.47538 0.32241 0.09405 0.0
C746 C 0.53768 0.40759 0.12575 0.0
C747 C 0.5789 0.41721 0.09929 0.0
N748 N 0.60261 0.40169 0.03866 0.0
N749 N 0.4403 0.35536 0.14237 0.0
C750 C 0.56635 0.38442 0.06757 0.0
C751 C 0.48388 0.36202 0.12111 0.0
N752 N 0.50869 0.29607 0.04021 0.0
N753 N 0.55073 0.44026 0.15608 0.0
H754 H 0.40028 0.32239 0.1388 0.0
H755 H 0.44247 0.38472 0.16079 0.0
H756 H 0.58966 0.47466 0.15995 0.0
H757 H 0.52417 0.43157 0.17838 0.0
H758 H 0.54058 0.29954 0.02327 0.0
H759 H 0.47191 0.25975 0.03603 0.0
H760 H 0.59309 0.38256 0.01316 0.0
H761 H 0.64025 0.43842 0.03899 0.0
C762 C 0.74937 0.40252 0.38186 0.0
C763 C 0.79209 0.45631 0.39058 0.0
C764 C 0.85087 0.41892 0.4126 0.0
C765 C 0.809 0.36546 0.40232 0.0
N766 N 0.72185 0.30716 0.37204 0.0
N767 N 0.8861 0.51744 0.40929 0.0
C768 C 0.75948 0.35763 0.38522 0.0
C769 C 0.84359 0.46501 0.4047 0.0
N770 N 0.69782 0.39372 0.37225 0.0
N771 N 0.8975 0.4255 0.43002 0.0
H772 H 0.88193 0.55189 0.40382 0.0
H773 H 0.92653 0.52721 0.41592 0.0
H774 H 0.90599 0.39341 0.43355 0.0
H775 H 0.9266 0.4619 0.4423 0.0
H776 H 0.66281 0.35502 0.37072 0.0
H777 H 0.68853 0.42522 0.36882 0.0
H778 H 0.68876 0.3003 0.35508 0.0
H779 H 0.7256 0.27232 0.37583 0.0
C780 C 0.11394 0.6041 0.56925 0.0
C781 C 0.1485 0.64124 0.59645 0.0
C782 C 0.18489 0.57995 0.6129 0.0
C783 C 0.15217 0.5437 0.58456 0.0
N784 N 0.08764 0.52099 0.53437 0.0
N785 N 0.22134 0.66899 0.64154 0.0
C786 C 0.11741 0.55581 0.56219 0.0
C787 C 0.18476 0.63012 0.61785 0.0
N788 N 0.07669 0.61448 0.55111 0.0
N789 N 0.21655 0.56657 0.63497 0.0
H790 H 0.22161 0.70567 0.64696 0.0
H791 H 0.25391 0.66688 0.65431 0.0
H792 H 0.22429 0.53451 0.62927 0.0
H793 H 0.23387 0.58606 0.65966 0.0
H794 H 0.0466 0.58724 0.53318 0.0
H795 H 0.07346 0.64961 0.55578 0.0
H796 H 0.06637 0.52999 0.51443 0.0
H797 H 0.08578 0.48329 0.53007 0.0
C798 C 0.35559 0.75595 0.91287 0.0
C799 C 0.36197 0.80947 0.91467 0.0
C800 C 0.45992 0.85026 0.89709 0.0
C801 C 0.45288 0.7968 0.89355 0.0
N802 N 0.39573 0.69843 0.89665 0.0
N803 N 0.41644 0.90688 0.90415 0.0
C804 C 0.4011 0.74944 0.90116 0.0
C805 C 0.4132 0.85653 0.90573 0.0
N806 N 0.30542 0.71154 0.92158 0.0
N807 N 0.51158 0.89489 0.89291 0.0
H808 H 0.3832 0.91294 0.91075 0.0
H809 H 0.45054 0.94204 0.89398 0.0
H810 H 0.54635 0.8916 0.88566 0.0
H811 H 0.52104 0.9349 0.89893 0.0
H812 H 0.29678 0.67098 0.92149 0.0
H813 H 0.27131 0.71516 0.92981 0.0
H814 H 0.35979 0.6615 0.9015 0.0
H815 H 0.42771 0.69238 0.88685 0.0
C816 C 0.38549 0.5687 0.57603 0.0
C817 C 0.41814 0.58187 0.60835 0.0
C818 C 0.35547 0.49104 0.63358 0.0
C819 C 0.31688 0.48307 0.60549 0.0
N820 N 0.29729 0.51032 0.54674 0.0
N821 N 0.43819 0.55513 0.66671 0.0
C822 C 0.33304 0.51995 0.5752 0.0
C823 C 0.40475 0.54249 0.63658 0.0
N824 N 0.40452 0.60295 0.54627 0.0
N825 N 0.34435 0.4489 0.65724 0.0
H826 H 0.47589 0.59154 0.66872 0.0
H827 H 0.42776 0.53081 0.69019 0.0
H828 H 0.30884 0.41055 0.65458 0.0
H829 H 0.37217 0.44999 0.67691 0.0
H830 H 0.38563 0.59319 0.52062 0.0
H831 H 0.44199 0.6397 0.54616 0.0
H832 H 0.30204 0.53991 0.52752 0.0
H833 H 0.26239 0.4725 0.54206 0.0
C834 C 0.1544 0.61379 0.92431 0.0
C835 C 0.13872 0.63311 0.89289 0.0
C836 C 0.11211 0.54728 0.86043 0.0
C837 C 0.13558 0.53143 0.8894 0.0
N838 N 0.17557 0.54592 0.9502 0.0
N839 N 0.08638 0.61344 0.83725 0.0
C840 C 0.15448 0.56296 0.92218 0.0
C841 C 0.11223 0.598 0.86287 0.0
N842 N 0.17114 0.64504 0.95543 0.0
N843 N 0.09114 0.51433 0.83031 0.0
H844 H 0.08426 0.64952 0.83989 0.0
H845 H 0.0633 0.58922 0.81537 0.0
H846 H 0.08707 0.47526 0.82883 0.0
H847 H 0.07876 0.52563 0.8064 0.0
H848 H 0.18448 0.63495 0.97936 0.0
H849 H 0.16966 0.68123 0.95847 0.0
H850 H 0.18942 0.56573 0.97517 0.0
H851 H 0.18116 0.51179 0.94869 0.0
C852 C 0.42518 0.86263 0.63013 0.0
C853 C 0.38221 0.83873 0.60371 0.0
C854 C 0.42647 0.79057 0.57629 0.0
C855 C 0.46994 0.8142 0.60265 0.0
N856 N 0.51956 0.88686 0.64636 0.0
N857 N 0.35836 0.80223 0.54205 0.0
C858 C 0.4722 0.85489 0.62699 0.0
C859 C 0.38853 0.81064 0.57339 0.0
N860 N 0.42077 0.89229 0.65834 0.0
N861 N 0.41757 0.74578 0.55619 0.0
H862 H 0.33265 0.81902 0.53742 0.0
H863 H 0.36528 0.7853 0.51852 0.0
H864 H 0.44005 0.72525 0.55941 0.0
H865 H 0.38289 0.72459 0.53945 0.0
H866 H 0.44706 0.90481 0.68101 0.0
H867 H 0.38931 0.90269 0.6595 0.0
H868 H 0.52504 0.91991 0.6624 0.0
H869 H 0.55563 0.88412 0.64319 0.0
C870 C 0.40664 0.57135 0.86782 0.0
C871 C 0.43553 0.5802 0.9015 0.0
C872 C 0.35885 0.49246 0.92415 0.0
C873 C 0.32565 0.49131 0.89398 0.0
N874 N 0.31687 0.53777 0.8402 0.0
N875 N 0.4419 0.5453 0.96073 0.0
C876 C 0.34927 0.53282 0.86659 0.0
C877 C 0.41234 0.53944 0.92942 0.0
N878 N 0.4336 0.59776 0.83648 0.0
N879 N 0.34032 0.44786 0.94679 0.0
H880 H 0.4835 0.57524 0.96343 0.0
H881 H 0.425 0.52135 0.98411 0.0
H882 H 0.30232 0.41231 0.94301 0.0
H883 H 0.36452 0.44393 0.96719 0.0
H884 H 0.41408 0.58974 0.81099 0.0
H885 H 0.47653 0.61978 0.8344 0.0
H886 H 0.33164 0.5714 0.8225 0.0
H887 H 0.27425 0.51202 0.83839 0.0
loop_
_geom_bond_atom_site_label_1
_geom_bond_atom_site_label_2
_geom_bond_distance
_geom_bond_site_symmetry_2
_ccdc_geom_bond_type
Zn0 O6 1.969 . S
Zn0 O7 1.965 . S
Zn0 O11 2.024 . S
Zn0 O16 1.969 . S
Zn1 O8 1.969 . S
Zn1 O14 1.969 . S
Zn1 O15 1.965 . S
Zn1 O17 2.024 . S
C2 O3 1.229 . S
C2 O11 1.058 . S
O3 C2 1.229 . S
C4 O5 1.229 . S
C4 O17 1.058 . S
O5 C4 1.229 . S
O6 Zn0 1.969 . S
O6 C9 1.267 1_545 S
O7 Zn0 1.965 . S
O7 C18 1.260 . S
O8 Zn1 1.969 . S
O8 C18 1.258 . S
C9 O6 1.267 1_565 S
C9 O10 1.228 . S
O10 C9 1.228 . S
O11 Zn0 2.024 . S
O11 C2 1.058 . S
C12 O13 1.228 . S
C12 O14 1.267 . S
O13 C12 1.228 . S
O14 Zn1 1.969 . S
O14 C12 1.267 . S
O15 Zn1 1.965 . S
O15 C19 1.260 . S
O16 Zn0 1.969 . S
O16 C19 1.258 . S
O17 Zn1 2.024 . S
O17 C4 1.058 . S
C18 O7 1.260 . S
C18 O8 1.258 . S
C19 O15 1.260 . S
C19 O16 1.258 . S
Zn20 O26 1.969 . S
Zn20 O27 1.965 . S
Zn20 O31 2.024 . S
Zn20 O36 1.969 . S
Zn21 O28 1.969 . S
Zn21 O34 1.969 . S
Zn21 O35 1.965 . S
Zn21 O37 2.024 . S
C22 O23 1.229 . S
C22 O31 1.058 . S
O23 C22 1.229 . S
C24 O25 1.229 . S
C24 O37 1.058 . S
O25 C24 1.229 . S
O26 Zn20 1.969 . S
O26 C29 1.267 . S
O27 Zn20 1.965 . S
O27 C38 1.260 . S
O28 Zn21 1.969 . S
O28 C38 1.258 . S
C29 O26 1.267 . S
C29 O30 1.228 . S
O30 C29 1.228 . S
O31 Zn20 2.024 . S
O31 C22 1.058 . S
C32 O33 1.228 . S
C32 O34 1.267 . S
O33 C32 1.228 . S
O34 Zn21 1.969 . S
O34 C32 1.267 . S
O35 Zn21 1.965 . S
O35 C39 1.260 . S
O36 Zn20 1.969 . S
O36 C39 1.258 . S
O37 Zn21 2.024 . S
O37 C24 1.058 . S
C38 O27 1.260 . S
C38 O28 1.258 . S
C39 O35 1.260 . S
C39 O36 1.258 . S
Zn40 O46 1.969 . S
Zn40 O47 1.965 . S
Zn40 O51 2.024 . S
Zn40 O56 1.969 . S
Zn41 O48 1.969 . S
Zn41 O54 1.969 . S
Zn41 O55 1.965 . S
Zn41 O57 2.024 . S
C42 O43 1.229 . S
C42 O51 1.058 . S
O43 C42 1.229 . S
C44 O45 1.229 . S
C44 O57 1.058 . S
O45 C44 1.229 . S
O46 Zn40 1.969 . S
O46 C49 1.267 1_655 S
O47 Zn40 1.965 . S
O47 C58 1.260 . S
O48 Zn41 1.969 . S
O48 C58 1.258 . S
C49 O46 1.267 1_455 S
C49 O50 1.228 . S
O50 C49 1.228 . S
O51 Zn40 2.024 . S
O51 C42 1.058 . S
C52 O53 1.228 . S
C52 O54 1.267 . S
O53 C52 1.228 . S
O54 Zn41 1.969 . S
O54 C52 1.267 . S
O55 Zn41 1.965 . S
O55 C59 1.260 . S
O56 Zn40 1.969 . S
O56 C59 1.258 . S
O57 Zn41 2.024 . S
O57 C44 1.058 . S
C58 O47 1.260 . S
C58 O48 1.258 . S
C59 O55 1.260 . S
C59 O56 1.258 . S
Zn60 O66 1.969 . S
Zn60 O67 1.965 . S
Zn60 O71 2.024 . S
Zn60 O76 1.969 . S
Zn61 O68 1.969 . S
Zn61 O74 1.969 . S
Zn61 O75 1.965 . S
Zn61 O77 2.024 . S
C62 O63 1.229 . S
C62 O71 1.058 . S
O63 C62 1.229 . S
C64 O65 1.229 . S
C64 O77 1.058 . S
O65 C64 1.229 . S
O66 Zn60 1.969 . S
O66 C69 1.267 . S
O67 Zn60 1.965 . S
O67 C78 1.260 . S
O68 Zn61 1.969 . S
O68 C78 1.258 . S
C69 O66 1.267 . S
C69 O70 1.228 . S
O70 C69 1.228 . S
O71 Zn60 2.024 . S
O71 C62 1.058 . S
C72 O73 1.228 . S
C72 O74 1.267 1_565 S
O73 C72 1.228 . S
O74 Zn61 1.969 . S
O74 C72 1.267 1_545 S
O75 Zn61 1.965 . S
O75 C79 1.260 . S
O76 Zn60 1.969 . S
O76 C79 1.258 . S
O77 Zn61 2.024 . S
O77 C64 1.058 . S
C78 O67 1.260 . S
C78 O68 1.258 . S
C79 O75 1.260 . S
C79 O76 1.258 . S
Zn80 O86 1.969 . S
Zn80 O87 1.965 . S
Zn80 O91 2.024 . S
Zn80 O96 1.969 . S
Zn81 O88 1.969 . S
Zn81 O94 1.969 . S
Zn81 O95 1.965 . S
Zn81 O97 2.024 . S
C82 O83 1.229 . S
C82 O91 1.058 . S
O83 C82 1.229 . S
C84 O85 1.229 . S
C84 O97 1.058 . S
O85 C84 1.229 . S
O86 Zn80 1.969 . S
O86 C89 1.267 . S
O87 Zn80 1.965 . S
O87 C98 1.260 . S
O88 Zn81 1.969 . S
O88 C98 1.258 . S
C89 O86 1.267 . S
C89 O90 1.228 . S
O90 C89 1.228 . S
O91 Zn80 2.024 . S
O91 C82 1.058 . S
C92 O93 1.228 . S
C92 O94 1.267 . S
O93 C92 1.228 . S
O94 Zn81 1.969 . S
O94 C92 1.267 . S
O95 Zn81 1.965 . S
O95 C99 1.260 . S
O96 Zn80 1.969 . S
O96 C99 1.258 . S
O97 Zn81 2.024 . S
O97 C84 1.058 . S
C98 O87 1.260 . S
C98 O88 1.258 . S
C99 O95 1.260 . S
C99 O96 1.258 . S
Zn100 O106 1.969 . S
Zn100 O107 1.965 . S
Zn100 O111 2.024 . S
Zn100 O116 1.969 . S
Zn101 O108 1.969 . S
Zn101 O114 1.969 . S
Zn101 O115 1.965 . S
Zn101 O117 2.024 . S
C102 O103 1.229 . S
C102 O111 1.058 . S
O103 C102 1.229 . S
C104 O105 1.229 . S
C104 O117 1.058 . S
O105 C104 1.229 . S
O106 Zn100 1.969 . S
O106 C109 1.267 . S
O107 Zn100 1.965 . S
O107 C118 1.260 . S
O108 Zn101 1.969 . S
O108 C118 1.258 . S
C109 O106 1.267 . S
C109 O110 1.228 . S
O110 C109 1.228 . S
O111 Zn100 2.024 . S
O111 C102 1.058 . S
C112 O113 1.228 . S
C112 O114 1.267 1_455 S
O113 C112 1.228 . S
O114 Zn101 1.969 . S
O114 C112 1.267 1_655 S
O115 Zn101 1.965 . S
O115 C119 1.260 . S
O116 Zn100 1.969 . S
O116 C119 1.258 . S
O117 Zn101 2.024 . S
O117 C104 1.058 . S
C118 O107 1.260 . S
C118 O108 1.258 . S
C119 O115 1.260 . S
C119 O116 1.258 . S
Zn120 O126 1.969 . S
Zn120 O127 1.965 . S
Zn120 O131 2.024 . S
Zn120 O136 1.969 . S
Zn121 O128 1.969 . S
Zn121 O134 1.969 . S
Zn121 O135 1.965 . S
Zn121 O137 2.024 . S
C122 O123 1.229 . S
C122 O131 1.058 . S
O123 C122 1.229 . S
C124 O125 1.229 . S
C124 O137 1.058 . S
O125 C124 1.229 . S
O126 Zn120 1.969 . S
O126 C129 1.267 . S
O127 Zn120 1.965 . S
O127 C138 1.260 . S
O128 Zn121 1.969 . S
O128 C138 1.258 . S
C129 O126 1.267 . S
C129 O130 1.228 . S
O130 C129 1.228 . S
O131 Zn120 2.024 . S
O131 C122 1.058 . S
C132 O133 1.228 . S
C132 O134 1.267 1_655 S
O133 C132 1.228 . S
O134 Zn121 1.969 . S
O134 C132 1.267 1_455 S
O135 Zn121 1.965 . S
O135 C139 1.260 . S
O136 Zn120 1.969 . S
O136 C139 1.258 . S
O137 Zn121 2.024 . S
O137 C124 1.058 . S
C138 O127 1.260 . S
C138 O128 1.258 . S
C139 O135 1.260 . S
C139 O136 1.258 . S
Zn140 O146 1.969 . S
Zn140 O147 1.965 . S
Zn140 O151 2.024 . S
Zn140 O156 1.969 . S
Zn141 O148 1.969 . S
Zn141 O154 1.969 . S
Zn141 O155 1.965 . S
Zn141 O157 2.024 . S
C142 O143 1.229 . S
C142 O151 1.058 . S
O143 C142 1.229 . S
C144 O145 1.229 . S
C144 O157 1.058 . S
O145 C144 1.229 . S
O146 Zn140 1.969 . S
O146 C149 1.267 1_565 S
O147 Zn140 1.965 . S
O147 C158 1.260 . S
O148 Zn141 1.969 . S
O148 C158 1.258 . S
C149 O146 1.267 1_545 S
C149 O150 1.228 . S
O150 C149 1.228 . S
O151 Zn140 2.024 . S
O151 C142 1.058 . S
C152 O153 1.228 . S
C152 O154 1.267 . S
O153 C152 1.228 . S
O154 Zn141 1.969 . S
O154 C152 1.267 . S
O155 Zn141 1.965 . S
O155 C159 1.260 . S
O156 Zn140 1.969 . S
O156 C159 1.258 . S
O157 Zn141 2.024 . S
O157 C144 1.058 . S
C158 O147 1.260 . S
C158 O148 1.258 . S
C159 O155 1.260 . S
C159 O156 1.258 . S
Zn160 O166 1.969 . S
Zn160 O167 1.965 . S
Zn160 O171 2.024 . S
Zn160 O176 1.969 . S
Zn161 O168 1.969 . S
Zn161 O174 1.969 . S
Zn161 O175 1.965 . S
Zn161 O177 2.024 . S
C162 O163 1.229 . S
C162 O171 1.058 . S
O163 C162 1.229 . S
C164 O165 1.229 . S
C164 O177 1.058 . S
O165 C164 1.229 . S
O166 Zn160 1.969 . S
O166 C169 1.267 . S
O167 Zn160 1.965 . S
O167 C178 1.260 . S
O168 Zn161 1.969 . S
O168 C178 1.258 . S
C169 O166 1.267 . S
C169 O170 1.228 . S
O170 C169 1.228 . S
O171 Zn160 2.024 . S
O171 C162 1.058 . S
C172 O173 1.228 . S
C172 O174 1.267 . S
O173 C172 1.228 . S
O174 Zn161 1.969 . S
O174 C172 1.267 . S
O175 Zn161 1.965 . S
O175 C179 1.260 . S
O176 Zn160 1.969 . S
O176 C179 1.258 . S
O177 Zn161 2.024 . S
O177 C164 1.058 . S
C178 O167 1.260 . S
C178 O168 1.258 . S
C179 O175 1.260 . S
C179 O176 1.258 . S
Zn180 O186 1.969 . S
Zn180 O187 1.965 . S
Zn180 O191 2.024 . S
Zn180 O196 1.969 . S
Zn181 O188 1.969 . S
Zn181 O194 1.969 . S
Zn181 O195 1.965 . S
Zn181 O197 2.024 . S
C182 O183 1.229 . S
C182 O191 1.058 . S
O183 C182 1.229 . S
C184 O185 1.229 . S
C184 O197 1.058 . S
O185 C184 1.229 . S
O186 Zn180 1.969 . S
O186 C189 1.267 1_455 S
O187 Zn180 1.965 . S
O187 C198 1.260 . S
O188 Zn181 1.969 . S
O188 C198 1.258 . S
C189 O186 1.267 1_655 S
C189 O190 1.228 . S
O190 C189 1.228 . S
O191 Zn180 2.024 . S
O191 C182 1.058 . S
C192 O193 1.228 . S
C192 O194 1.267 . S
O193 C192 1.228 . S
O194 Zn181 1.969 . S
O194 C192 1.267 . S
O195 Zn181 1.965 . S
O195 C199 1.260 . S
O196 Zn180 1.969 . S
O196 C199 1.258 . S
O197 Zn181 2.024 . S
O197 C184 1.058 . S
C198 O187 1.260 . S
C198 O188 1.258 . S
C199 O195 1.260 . S
C199 O196 1.258 . S
Zn200 O206 1.969 . S
Zn200 O207 1.965 . S
Zn200 O211 2.024 . S
Zn200 O216 1.969 . S
Zn201 O208 1.969 . S
Zn201 O214 1.969 . S
Zn201 O215 1.965 . S
Zn201 O217 2.024 . S
C202 O203 1.229 . S
C202 O211 1.058 . S
O203 C202 1.229 . S
C204 O205 1.229 . S
C204 O217 1.058 . S
O205 C204 1.229 . S
O206 Zn200 1.969 . S
O206 C209 1.267 . S
O207 Zn200 1.965 . S
O207 C218 1.260 . S
O208 Zn201 1.969 . S
O208 C218 1.258 . S
C209 O206 1.267 . S
C209 O210 1.228 . S
O210 C209 1.228 . S
O211 Zn200 2.024 . S
O211 C202 1.058 . S
C212 O213 1.228 . S
C212 O214 1.267 1_545 S
O213 C212 1.228 . S
O214 Zn201 1.969 . S
O214 C212 1.267 1_565 S
O215 Zn201 1.965 . S
O215 C219 1.260 . S
O216 Zn200 1.969 . S
O216 C219 1.258 . S
O217 Zn201 2.024 . S
O217 C204 1.058 . S
C218 O207 1.260 . S
C218 O208 1.258 . S
C219 O215 1.260 . S
C219 O216 1.258 . S
Zn220 O226 1.969 . S
Zn220 O227 1.965 . S
Zn220 O231 2.024 . S
Zn220 O236 1.969 . S
Zn221 O228 1.969 . S
Zn221 O234 1.969 . S
Zn221 O235 1.965 . S
Zn221 O237 2.024 . S
C222 O223 1.229 . S
C222 O231 1.058 . S
O223 C222 1.229 . S
C224 O225 1.229 . S
C224 O237 1.058 . S
O225 C224 1.229 . S
O226 Zn220 1.969 . S
O226 C229 1.267 . S
O227 Zn220 1.965 . S
O227 C238 1.260 . S
O228 Zn221 1.969 . S
O228 C238 1.258 . S
C229 O226 1.267 . S
C229 O230 1.228 . S
O230 C229 1.228 . S
O231 Zn220 2.024 . S
O231 C222 1.058 . S
C232 O233 1.228 . S
C232 O234 1.267 . S
O233 C232 1.228 . S
O234 Zn221 1.969 . S
O234 C232 1.267 . S
O235 Zn221 1.965 . S
O235 C239 1.260 . S
O236 Zn220 1.969 . S
O236 C239 1.258 . S
O237 Zn221 2.024 . S
O237 C224 1.058 . S
C238 O227 1.260 . S
C238 O228 1.258 . S
C239 O235 1.260 . S
C239 O236 1.258 . S
C240 C241 1.363 . S
C240 C246 1.379 . S
C240 N248 1.356 . S
C241 C240 1.363 . S
C241 C247 1.363 . S
C242 C243 1.363 . S
C242 C247 1.379 . S
C242 N249 1.356 . S
C243 C242 1.363 . S
C243 C246 1.363 . S
N244 C246 1.356 . S
N244 H256 0.984 . S
N244 H257 0.985 . S
N245 C247 1.356 . S
N245 H250 0.977 1_455 S
N245 H251 0.985 . S
C246 C240 1.379 . S
C246 C243 1.363 . S
C246 N244 1.356 . S
C247 C241 1.363 . S
C247 C242 1.379 . S
C247 N245 1.356 . S
N248 C240 1.356 . S
N248 H254 0.984 . S
N248 H255 0.984 . S
N249 C242 1.356 . S
N249 H252 0.984 . S
N249 H253 0.985 . S
H250 N245 0.977 1_655 S
H251 N245 0.985 . S
H252 N249 0.984 . S
H253 N249 0.985 . S
H254 N248 0.984 . S
H255 N248 0.984 . S
H256 N244 0.984 . S
H257 N244 0.985 . S
C258 C259 1.363 . S
C258 C264 1.379 . S
C258 N266 1.356 . S
C259 C258 1.363 . S
C259 C265 1.363 . S
C260 C261 1.363 . S
C260 C265 1.379 . S
C260 N267 1.356 . S
C261 C260 1.363 . S
C261 C264 1.363 . S
N262 C264 1.356 1_655 S
N262 H274 0.984 . S
N262 H275 0.985 . S
N263 C265 1.356 . S
N263 H268 0.984 . S
N263 H269 0.985 . S
C264 C258 1.379 . S
C264 C261 1.363 . S
C264 N262 1.356 1_455 S
C265 C259 1.363 . S
C265 C260 1.379 . S
C265 N263 1.356 . S
N266 C258 1.356 . S
N266 H272 0.984 . S
N266 H273 0.984 . S
N267 C260 1.356 . S
N267 H270 0.984 1_455 S
N267 H271 0.985 . S
H268 N263 0.984 . S
H269 N263 0.985 . S
H270 N267 0.984 1_655 S
H271 N267 0.985 . S
H272 N266 0.984 . S
H273 N266 0.984 . S
H274 N262 0.984 . S
H275 N262 0.985 . S
C276 C277 1.363 . S
C276 C282 1.379 . S
C276 N284 1.356 1_565 S
C277 C276 1.363 . S
C277 C283 1.363 . S
C278 C279 1.363 . S
C278 C283 1.379 . S
C278 N285 1.356 . S
C279 C278 1.363 . S
C279 C282 1.363 . S
N280 C282 1.356 . S
N280 H292 0.984 . S
N280 H293 0.985 . S
N281 C283 1.356 . S
N281 H286 0.984 1_565 S
N281 H287 0.985 . S
C282 C276 1.379 . S
C282 C279 1.363 . S
C282 N280 1.356 . S
C283 C277 1.363 . S
C283 C278 1.379 . S
C283 N281 1.356 . S
N284 C276 1.356 1_545 S
N284 H290 0.984 . S
N284 H291 0.984 . S
N285 C278 1.356 . S
N285 H288 0.984 . S
N285 H289 0.985 . S
H286 N281 0.984 1_545 S
H287 N281 0.985 . S
H288 N285 0.984 . S
H289 N285 0.985 . S
H290 N284 0.984 . S
H291 N284 0.984 . S
H292 N280 0.984 . S
H293 N280 0.985 . S
C294 C295 1.363 . S
C294 C300 1.379 . S
C294 N302 1.356 . S
C295 C294 1.363 . S
C295 C301 1.363 . S
C296 C297 1.363 . S
C296 C301 1.379 . S
C296 N303 1.356 . S
C297 C296 1.363 . S
C297 C300 1.363 . S
N298 C300 1.356 . S
N298 H310 0.984 . S
N298 H311 0.985 . S
N299 C301 1.356 . S
N299 H304 0.984 . S
N299 H305 0.985 . S
C300 C294 1.379 . S
C300 C297 1.363 . S
C300 N298 1.356 . S
C301 C295 1.363 . S
C301 C296 1.379 . S
C301 N299 1.356 . S
N302 C294 1.356 . S
N302 H308 0.984 . S
N302 H309 0.984 . S
N303 C296 1.356 . S
N303 H306 0.984 1_455 S
N303 H307 0.985 . S
H304 N299 0.984 . S
H305 N299 0.985 . S
H306 N303 0.984 1_655 S
H307 N303 0.985 . S
H308 N302 0.984 . S
H309 N302 0.984 . S
H310 N298 0.984 . S
H311 N298 0.985 . S
C312 C313 1.363 . S
C312 C318 1.379 . S
C312 N320 1.356 . S
C313 C312 1.363 . S
C313 C319 1.363 . S
C314 C315 1.363 . S
C314 C319 1.379 . S
C314 N321 1.356 1_455 S
C315 C314 1.363 . S
C315 C318 1.363 . S
N316 C318 1.356 1_655 S
N316 H328 0.984 . S
N316 H329 0.985 . S
N317 C319 1.356 . S
N317 H322 0.984 . S
N317 H323 0.985 . S
C318 C312 1.379 . S
C318 C315 1.363 . S
C318 N316 1.356 1_455 S
C319 C313 1.363 . S
C319 C314 1.379 . S
C319 N317 1.356 . S
N320 C312 1.356 . S
N320 H326 0.984 . S
N320 H327 0.984 1_565 S
N321 C314 1.356 1_655 S
N321 H324 0.984 . S
N321 H325 0.985 1_655 S
H322 N317 0.984 . S
H323 N317 0.985 . S
H324 N321 0.984 . S
H325 N321 0.985 1_455 S
H326 N320 0.984 . S
H327 N320 0.984 1_545 S
H328 N316 0.984 . S
H329 N316 0.985 . S
C330 C331 1.363 . S
C330 C336 1.379 . S
C330 N338 1.356 . S
C331 C330 1.363 . S
C331 C337 1.363 . S
C332 C333 1.363 . S
C332 C337 1.379 . S
C332 N339 1.356 1_565 S
C333 C332 1.363 . S
C333 C336 1.363 . S
N334 C336 1.356 . S
N334 H346 0.984 . S
N334 H347 0.985 1_565 S
N335 C337 1.356 . S
N335 H340 0.984 . S
N335 H341 0.985 . S
C336 C330 1.379 . S
C336 C333 1.363 . S
C336 N334 1.356 . S
C337 C331 1.363 . S
C337 C332 1.379 . S
C337 N335 1.356 . S
N338 C330 1.356 . S
N338 H344 0.984 . S
N338 H345 0.984 . S
N339 C332 1.356 1_545 S
N339 H342 0.984 . S
N339 H343 0.985 . S
H340 N335 0.984 . S
H341 N335 0.985 . S
H342 N339 0.984 . S
H343 N339 0.985 . S
H344 N338 0.984 . S
H345 N338 0.984 . S
H346 N334 0.984 . S
H347 N334 0.985 1_545 S
C348 C349 1.363 . S
C348 C354 1.379 . S
C348 N356 1.356 . S
C349 C348 1.363 . S
C349 C355 1.363 . S
C350 C351 1.363 . S
C350 C355 1.379 . S
C350 N357 1.356 . S
C351 C350 1.363 . S
C351 C354 1.363 . S
N352 C354 1.356 . S
N352 H364 0.984 . S
N352 H365 0.985 . S
N353 C355 1.356 . S
N353 H358 0.984 . S
N353 H359 0.985 . S
C354 C348 1.379 . S
C354 C351 1.363 . S
C354 N352 1.356 . S
C355 C349 1.363 . S
C355 C350 1.379 . S
C355 N353 1.356 . S
N356 C348 1.356 . S
N356 H362 0.984 . S
N356 H363 0.984 . S
N357 C350 1.356 . S
N357 H360 0.984 . S
N357 H361 0.985 . S
H358 N353 0.984 . S
H359 N353 0.985 . S
H360 N357 0.984 . S
H361 N357 0.985 . S
H362 N356 0.984 . S
H363 N356 0.984 . S
H364 N352 0.984 . S
H365 N352 0.985 . S
C366 C367 1.363 . S
C366 C372 1.379 . S
C366 N374 1.356 1_655 S
C367 C366 1.363 . S
C367 C373 1.363 . S
C368 C369 1.363 . S
C368 C373 1.379 . S
C368 N375 1.356 . S
C369 C368 1.363 . S
C369 C372 1.363 . S
N370 C372 1.356 . S
N370 H382 0.984 . S
N370 H383 0.985 . S
N371 C373 1.356 . S
N371 H376 0.984 1_655 S
N371 H377 0.985 . S
C372 C366 1.379 . S
C372 C369 1.363 . S
C372 N370 1.356 . S
C373 C367 1.363 . S
C373 C368 1.379 . S
C373 N371 1.356 . S
N374 C366 1.356 1_455 S
N374 H380 0.984 . S
N374 H381 0.984 . S
N375 C368 1.356 . S
N375 H378 0.984 . S
N375 H379 0.985 . S
H376 N371 0.984 1_455 S
H377 N371 0.985 . S
H378 N375 0.984 . S
H379 N375 0.985 . S
H380 N374 0.984 . S
H381 N374 0.984 . S
H382 N370 0.984 . S
H383 N370 0.985 . S
C384 C385 1.363 . S
C384 C390 1.379 . S
C384 N392 1.356 1_545 S
C385 C384 1.363 . S
C385 C391 1.363 . S
C386 C387 1.363 . S
C386 C391 1.379 . S
C386 N393 1.356 . S
C387 C386 1.363 . S
C387 C390 1.363 . S
N388 C390 1.356 . S
N388 H400 0.984 . S
N388 H401 0.985 . S
N389 C391 1.356 1_565 S
N389 H394 0.984 . S
N389 H395 0.985 . S
C390 C384 1.379 . S
C390 C387 1.363 . S
C390 N388 1.356 . S
C391 C385 1.363 . S
C391 C386 1.379 . S
C391 N389 1.356 1_545 S
N392 C384 1.356 1_565 S
N392 H398 0.984 1_565 S
N392 H399 0.984 . S
N393 C386 1.356 . S
N393 H396 0.984 1_655 S
N393 H397 0.989 . S
H394 N389 0.984 . S
H395 N389 0.985 . S
H396 N393 0.984 1_455 S
H397 N393 0.989 . S
H398 N392 0.984 1_545 S
H399 N392 0.984 . S
H400 N388 0.984 . S
H401 N388 0.985 . S
C402 C403 1.363 . S
C402 C408 1.379 . S
C402 N410 1.356 . S
C403 C402 1.363 . S
C403 C409 1.363 . S
C404 C405 1.363 . S
C404 C409 1.379 . S
C404 N411 1.356 . S
C405 C404 1.363 . S
C405 C408 1.363 . S
N406 C408 1.356 . S
N406 H418 0.984 . S
N406 H419 0.985 . S
N407 C409 1.356 . S
N407 H412 0.984 . S
N407 H413 0.985 . S
C408 C402 1.379 . S
C408 C405 1.363 . S
C408 N406 1.356 . S
C409 C403 1.363 . S
C409 C404 1.379 . S
C409 N407 1.356 . S
N410 C402 1.356 . S
N410 H416 0.984 . S
N410 H417 0.984 . S
N411 C404 1.356 . S
N411 H414 0.984 . S
N411 H415 0.985 . S
H412 N407 0.984 . S
H413 N407 0.985 . S
H414 N411 0.984 . S
H415 N411 0.985 . S
H416 N410 0.984 . S
H417 N410 0.984 . S
H418 N406 0.984 . S
H419 N406 0.985 . S
C420 C421 1.363 . S
C420 C426 1.379 . S
C420 N428 1.356 . S
C421 C420 1.363 . S
C421 C427 1.363 . S
C422 C423 1.363 . S
C422 C427 1.379 . S
C422 N429 1.356 . S
C423 C422 1.363 . S
C423 C426 1.363 . S
N424 C426 1.356 . S
N424 H436 0.984 . S
N424 H437 0.985 . S
N425 C427 1.356 1_455 S
N425 H430 0.984 . S
N425 H431 0.985 . S
C426 C420 1.379 . S
C426 C423 1.363 . S
C426 N424 1.356 . S
C427 C421 1.363 . S
C427 C422 1.379 . S
C427 N425 1.356 1_655 S
N428 C420 1.356 . S
N428 H434 0.984 . S
N428 H435 0.984 1_655 S
N429 C422 1.356 . S
N429 H432 0.984 . S
N429 H433 0.985 . S
H430 N425 0.984 . S
H431 N425 0.985 . S
H432 N429 0.984 . S
H433 N429 0.985 . S
H434 N428 0.984 . S
H435 N428 0.984 1_455 S
H436 N424 0.984 . S
H437 N424 0.985 . S
C438 C439 1.363 . S
C438 C444 1.379 . S
C438 N446 1.356 . S
C439 C438 1.363 . S
C439 C445 1.363 . S
C440 C441 1.363 . S
C440 C445 1.379 . S
C440 N447 1.356 1_545 S
C441 C440 1.363 . S
C441 C444 1.363 . S
N442 C444 1.363 . S
N442 H454 0.998 . S
N442 H455 0.965 1_545 S
N443 C445 1.356 . S
N443 H448 0.984 1_655 S
N443 H449 0.985 1_655 S
C444 C438 1.379 . S
C444 C441 1.363 . S
C444 N442 1.363 . S
C445 C439 1.363 . S
C445 C440 1.379 . S
C445 N443 1.356 . S
N446 C438 1.356 . S
N446 H452 0.984 . S
N446 H453 0.984 . S
N447 C440 1.356 1_565 S
N447 H450 0.984 . S
N447 H451 0.985 . S
H448 N443 0.984 1_455 S
H449 N443 0.985 1_455 S
H450 N447 0.984 . S
H451 N447 0.985 . S
H452 N446 0.984 . S
H453 N446 0.984 . S
H454 N442 0.998 . S
H455 N442 0.965 1_565 S
C456 C457 1.363 . S
C456 C462 1.379 . S
C456 N464 1.356 . S
C457 C456 1.363 . S
C457 C463 1.363 . S
C458 C459 1.363 . S
C458 C463 1.379 . S
C458 N465 1.356 . S
C459 C458 1.363 . S
C459 C462 1.363 . S
N460 C462 1.356 . S
N460 H472 0.984 . S
N460 H473 0.985 . S
N461 C463 1.356 . S
N461 H466 0.984 . S
N461 H467 0.985 . S
C462 C456 1.379 . S
C462 C459 1.363 . S
C462 N460 1.356 . S
C463 C457 1.363 . S
C463 C458 1.379 . S
C463 N461 1.356 . S
N464 C456 1.356 . S
N464 H470 0.984 . S
N464 H471 0.984 . S
N465 C458 1.356 . S
N465 H468 0.984 . S
N465 H469 0.985 . S
H466 N461 0.984 . S
H467 N461 0.985 . S
H468 N465 0.984 . S
H469 N465 0.985 . S
H470 N464 0.984 . S
H471 N464 0.984 . S
H472 N460 0.984 . S
H473 N460 0.985 . S
C474 C475 1.363 . S
C474 C480 1.379 . S
C474 N482 1.356 . S
C475 C474 1.363 . S
C475 C481 1.363 . S
C476 C477 1.363 . S
C476 C481 1.379 . S
C476 N483 1.356 . S
C477 C476 1.363 . S
C477 C480 1.363 . S
N478 C480 1.356 . S
N478 H490 0.984 . S
N478 H491 0.985 . S
N479 C481 1.356 . S
N479 H484 0.984 . S
N479 H485 0.985 . S
C480 C474 1.379 . S
C480 C477 1.363 . S
C480 N478 1.356 . S
C481 C475 1.363 . S
C481 C476 1.379 . S
C481 N479 1.356 . S
N482 C474 1.356 . S
N482 H488 0.984 . S
N482 H489 0.984 . S
N483 C476 1.356 . S
N483 H486 0.984 . S
N483 H487 0.985 . S
H484 N479 0.984 . S
H485 N479 0.985 . S
H486 N483 0.984 . S
H487 N483 0.985 . S
H488 N482 0.984 . S
H489 N482 0.984 . S
H490 N478 0.984 . S
H491 N478 0.985 . S
C492 C493 1.363 . S
C492 C498 1.379 . S
C492 N500 1.356 . S
C493 C492 1.363 . S
C493 C499 1.363 . S
C494 C495 1.363 . S
C494 C499 1.379 . S
C494 N501 1.356 . S
C495 C494 1.363 . S
C495 C498 1.363 . S
N496 C498 1.356 . S
N496 H508 0.984 . S
N496 H509 0.985 . S
N497 C499 1.356 . S
N497 H502 0.984 . S
N497 H503 0.985 . S
C498 C492 1.379 . S
C498 C495 1.363 . S
C498 N496 1.356 . S
C499 C493 1.363 . S
C499 C494 1.379 . S
C499 N497 1.356 . S
N500 C492 1.356 . S
N500 H506 0.984 . S
N500 H507 0.984 . S
N501 C494 1.356 . S
N501 H504 0.984 . S
N501 H505 0.985 . S
H502 N497 0.984 . S
H503 N497 0.985 . S
H504 N501 0.984 . S
H505 N501 0.985 . S
H506 N500 0.984 . S
H507 N500 0.984 . S
H508 N496 0.984 . S
H509 N496 0.985 . S
C510 C511 1.363 . S
C510 C516 1.379 . S
C510 N518 1.356 . S
C511 C510 1.363 . S
C511 C517 1.363 . S
C512 C513 1.363 . S
C512 C517 1.379 . S
C512 N519 1.356 . S
C513 C512 1.363 . S
C513 C516 1.363 . S
N514 C516 1.356 . S
N514 H526 0.984 . S
N514 H527 0.985 . S
N515 C517 1.356 . S
N515 H520 0.984 . S
N515 H521 0.985 . S
C516 C510 1.379 . S
C516 C513 1.363 . S
C516 N514 1.356 . S
C517 C511 1.363 . S
C517 C512 1.379 . S
C517 N515 1.356 . S
N518 C510 1.356 . S
N518 H524 0.984 . S
N518 H525 0.984 . S
N519 C512 1.356 . S
N519 H522 0.984 . S
N519 H523 0.985 . S
H520 N515 0.984 . S
H521 N515 0.985 . S
H522 N519 0.984 . S
H523 N519 0.985 . S
H524 N518 0.984 . S
H525 N518 0.984 . S
H526 N514 0.984 . S
H527 N514 0.985 . S
C528 C529 1.363 . S
C528 C534 1.379 . S
C528 N536 1.356 . S
C529 C528 1.363 . S
C529 C535 1.363 . S
C530 C531 1.363 . S
C530 C535 1.379 . S
C530 N537 1.356 . S
C531 C530 1.363 . S
C531 C534 1.363 . S
N532 C534 1.356 . S
N532 H544 0.984 . S
N532 H545 0.985 . S
N533 C535 1.356 . S
N533 H538 0.984 . S
N533 H539 0.985 . S
C534 C528 1.379 . S
C534 C531 1.363 . S
C534 N532 1.356 . S
C535 C529 1.363 . S
C535 C530 1.379 . S
C535 N533 1.356 . S
N536 C528 1.356 . S
N536 H542 0.984 . S
N536 H543 0.984 . S
N537 C530 1.356 . S
N537 H540 0.984 . S
N537 H541 0.985 . S
H538 N533 0.984 . S
H539 N533 0.985 . S
H540 N537 0.984 . S
H541 N537 0.985 . S
H542 N536 0.984 . S
H543 N536 0.984 . S
H544 N532 0.984 . S
H545 N532 0.985 . S
C546 C547 1.363 . S
C546 C552 1.379 . S
C546 N554 1.356 . S
C547 C546 1.363 . S
C547 C553 1.363 . S
C548 C549 1.363 . S
C548 C553 1.379 . S
C548 N555 1.356 . S
C549 C548 1.363 . S
C549 C552 1.363 . S
N550 C552 1.356 . S
N550 H562 0.984 . S
N550 H563 0.985 . S
N551 C553 1.356 . S
N551 H556 0.984 . S
N551 H557 0.985 . S
C552 C546 1.379 . S
C552 C549 1.363 . S
C552 N550 1.356 . S
C553 C547 1.363 . S
C553 C548 1.379 . S
C553 N551 1.356 . S
N554 C546 1.356 . S
N554 H560 0.984 . S
N554 H561 0.984 . S
N555 C548 1.356 . S
N555 H558 0.984 . S
N555 H559 0.985 . S
H556 N551 0.984 . S
H557 N551 0.985 . S
H558 N555 0.984 . S
H559 N555 0.985 . S
H560 N554 0.984 . S
H561 N554 0.984 . S
H562 N550 0.984 . S
H563 N550 0.985 . S
C564 C565 1.363 . S
C564 C570 1.379 1_566 S
C564 N572 1.356 . S
C565 C564 1.363 . S
C565 C571 1.363 . S
C566 C567 1.363 . S
C566 C571 1.379 1_544 S
C566 N573 1.356 . S
C567 C566 1.363 . S
C567 C570 1.363 . S
N568 C570 1.356 . S
N568 H580 0.984 . S
N568 H581 0.985 . S
N569 C571 1.356 . S
N569 H574 0.984 . S
N569 H575 0.985 . S
C570 C564 1.379 1_544 S
C570 C567 1.363 . S
C570 N568 1.356 . S
C571 C565 1.363 . S
C571 C566 1.379 1_566 S
C571 N569 1.356 . S
N572 C564 1.356 . S
N572 H578 0.984 . S
N572 H579 0.984 . S
N573 C566 1.356 . S
N573 H576 0.984 . S
N573 H577 0.985 . S
H574 N569 0.984 . S
H575 N569 0.985 . S
H576 N573 0.984 . S
H577 N573 0.985 . S
H578 N572 0.984 . S
H579 N572 0.984 . S
H580 N568 0.984 . S
H581 N568 0.985 . S
C582 C583 1.363 . S
C582 C588 1.379 . S
C582 N590 1.356 . S
C583 C582 1.363 . S
C583 C589 1.363 . S
C584 C585 1.363 . S
C584 C589 1.379 . S
C584 N591 1.356 . S
C585 C584 1.363 . S
C585 C588 1.363 . S
N586 C588 1.356 . S
N586 H598 0.984 . S
N586 H599 0.985 . S
N587 C589 1.356 . S
N587 H592 0.984 . S
N587 H593 0.985 . S
C588 C582 1.379 . S
C588 C585 1.363 . S
C588 N586 1.356 . S
C589 C583 1.363 . S
C589 C584 1.379 . S
C589 N587 1.356 . S
N590 C582 1.356 . S
N590 H596 0.984 . S
N590 H597 0.984 . S
N591 C584 1.356 . S
N591 H594 0.984 . S
N591 H595 0.985 . S
H592 N587 0.984 . S
H593 N587 0.985 . S
H594 N591 0.984 . S
H595 N591 0.985 . S
H596 N590 0.984 . S
H597 N590 0.984 . S
H598 N586 0.984 . S
H599 N586 0.985 . S
C600 C601 1.363 1_554 S
C600 C606 1.379 1_455 S
C600 N608 1.356 . S
C601 C600 1.363 1_556 S
C601 C607 1.363 . S
C602 C603 1.363 1_556 S
C602 C607 1.379 1_655 S
C602 N609 1.356 . S
C603 C602 1.363 1_554 S
C603 C606 1.363 . S
N604 C606 1.356 . S
N604 H616 0.984 1_655 S
N604 H617 0.985 . S
N605 C607 1.356 . S
N605 H610 0.984 . S
N605 H611 0.985 1_455 S
C606 C600 1.379 1_655 S
C606 C603 1.363 . S
C606 N604 1.356 . S
C607 C601 1.363 . S
C607 C602 1.379 1_455 S
C607 N605 1.356 . S
N608 C600 1.356 . S
N608 H614 0.984 . S
N608 H615 0.984 . S
N609 C602 1.356 . S
N609 H612 0.984 . S
N609 H613 0.985 . S
H610 N605 0.984 . S
H611 N605 0.985 1_655 S
H612 N609 0.984 . S
H613 N609 0.985 . S
H614 N608 0.984 . S
H615 N608 0.984 . S
H616 N604 0.984 1_455 S
H617 N604 0.985 . S
C618 C619 1.363 . S
C618 C624 1.379 1_545 S
C618 N626 1.356 . S
C619 C618 1.363 . S
C619 C625 1.363 . S
C620 C621 1.363 . S
C620 C625 1.379 1_565 S
C620 N627 1.356 . S
C621 C620 1.363 . S
C621 C624 1.363 . S
N622 C624 1.356 . S
N622 H634 0.984 . S
N622 H635 0.985 . S
N623 C625 1.356 . S
N623 H628 0.984 . S
N623 H629 0.985 . S
C624 C618 1.379 1_565 S
C624 C621 1.363 . S
C624 N622 1.356 . S
C625 C619 1.363 . S
C625 C620 1.379 1_545 S
C625 N623 1.356 . S
N626 C618 1.356 . S
N626 H632 0.984 . S
N626 H633 0.984 . S
N627 C620 1.356 . S
N627 H630 0.984 . S
N627 H631 0.985 . S
H628 N623 0.984 . S
H629 N623 0.985 . S
H630 N627 0.984 . S
H631 N627 0.985 . S
H632 N626 0.984 . S
H633 N626 0.984 . S
H634 N622 0.984 . S
H635 N622 0.985 . S
C636 C637 1.363 . S
C636 C642 1.379 . S
C636 N644 1.356 . S
C637 C636 1.363 . S
C637 C643 1.363 1_554 S
C638 C639 1.363 . S
C638 C643 1.379 . S
C638 N645 1.356 . S
C639 C638 1.363 . S
C639 C642 1.363 1_556 S
N640 C642 1.356 . S
N640 H652 0.984 . S
N640 H653 0.986 . S
N641 C643 1.356 . S
N641 H646 0.986 . S
N641 H647 0.985 . S
C642 C636 1.379 . S
C642 C639 1.363 1_554 S
C642 N640 1.356 . S
C643 C637 1.363 1_556 S
C643 C638 1.379 . S
C643 N641 1.356 . S
N644 C636 1.356 . S
N644 H650 0.984 . S
N644 H651 0.984 . S
N645 C638 1.356 . S
N645 H648 0.984 . S
N645 H649 0.985 . S
H646 N641 0.986 . S
H647 N641 0.985 . S
H648 N645 0.984 . S
H649 N645 0.985 . S
H650 N644 0.984 . S
H651 N644 0.984 . S
H652 N640 0.984 . S
H653 N640 0.986 . S
C654 C655 1.363 . S
C654 C660 1.379 1_455 S
C654 N662 1.356 . S
C655 C654 1.363 . S
C655 C661 1.363 . S
C656 C657 1.363 . S
C656 C661 1.379 1_655 S
C656 N663 1.356 . S
C657 C656 1.363 . S
C657 C660 1.363 . S
N658 C660 1.356 . S
N658 H670 0.984 . S
N658 H671 0.985 . S
N659 C661 1.356 . S
N659 H664 0.984 . S
N659 H665 0.985 . S
C660 C654 1.379 1_655 S
C660 C657 1.363 . S
C660 N658 1.356 . S
C661 C655 1.363 . S
C661 C656 1.379 1_455 S
C661 N659 1.356 . S
N662 C654 1.356 . S
N662 H668 0.984 . S
N662 H669 0.984 . S
N663 C656 1.356 . S
N663 H666 0.984 . S
N663 H667 0.985 . S
H664 N659 0.984 . S
H665 N659 0.985 . S
H666 N663 0.984 . S
H667 N663 0.985 . S
H668 N662 0.984 . S
H669 N662 0.984 . S
H670 N658 0.984 . S
H671 N658 0.985 . S
C672 C673 1.363 . S
C672 C678 1.379 . S
C672 N680 1.356 . S
C673 C672 1.363 . S
C673 C679 1.363 . S
C674 C675 1.363 . S
C674 C679 1.379 . S
C674 N681 1.356 . S
C675 C674 1.363 . S
C675 C678 1.363 . S
N676 C678 1.356 . S
N676 H688 0.984 . S
N676 H689 0.985 . S
N677 C679 1.356 . S
N677 H682 0.984 . S
N677 H683 0.985 . S
C678 C672 1.379 . S
C678 C675 1.363 . S
C678 N676 1.356 . S
C679 C673 1.363 . S
C679 C674 1.379 . S
C679 N677 1.356 . S
N680 C672 1.356 . S
N680 H686 0.984 . S
N680 H687 0.984 . S
N681 C674 1.356 . S
N681 H684 0.984 . S
N681 H685 0.985 . S
H682 N677 0.984 . S
H683 N677 0.985 . S
H684 N681 0.984 . S
H685 N681 0.985 . S
H686 N680 0.984 . S
H687 N680 0.984 . S
H688 N676 0.984 . S
H689 N676 0.985 . S
C690 C691 1.363 . S
C690 C696 1.379 . S
C690 N698 1.356 . S
C691 C690 1.363 . S
C691 C697 1.363 . S
C692 C693 1.363 . S
C692 C697 1.379 . S
C692 N699 1.356 . S
C693 C692 1.363 . S
C693 C696 1.363 . S
N694 C696 1.356 . S
N694 H706 0.984 . S
N694 H707 0.985 . S
N695 C697 1.356 . S
N695 H700 0.984 . S
N695 H701 0.985 . S
C696 C690 1.379 . S
C696 C693 1.363 . S
C696 N694 1.356 . S
C697 C691 1.363 . S
C697 C692 1.379 . S
C697 N695 1.356 . S
N698 C690 1.356 . S
N698 H704 0.984 . S
N698 H705 0.984 . S
N699 C692 1.356 . S
N699 H702 0.984 . S
N699 H703 0.985 . S
H700 N695 0.984 . S
H701 N695 0.985 . S
H702 N699 0.984 . S
H703 N699 0.985 . S
H704 N698 0.984 . S
H705 N698 0.984 . S
H706 N694 0.984 . S
H707 N694 0.985 . S
C708 C709 1.363 . S
C708 C714 1.379 . S
C708 N716 1.356 . S
C709 C708 1.363 . S
C709 C715 1.363 . S
C710 C711 1.363 . S
C710 C715 1.379 . S
C710 N717 1.356 . S
C711 C710 1.363 . S
C711 C714 1.363 . S
N712 C714 1.356 . S
N712 H724 0.984 . S
N712 H725 0.985 . S
N713 C715 1.356 . S
N713 H718 0.984 . S
N713 H719 0.985 . S
C714 C708 1.379 . S
C714 C711 1.363 . S
C714 N712 1.356 . S
C715 C709 1.363 . S
C715 C710 1.379 . S
C715 N713 1.356 . S
N716 C708 1.356 . S
N716 H722 0.984 . S
N716 H723 0.984 . S
N717 C710 1.356 . S
N717 H720 0.984 . S
N717 H721 0.985 . S
H718 N713 0.984 . S
H719 N713 0.985 . S
H720 N717 0.984 . S
H721 N717 0.985 . S
H722 N716 0.984 . S
H723 N716 0.984 . S
H724 N712 0.984 . S
H725 N712 0.985 . S
C726 C727 1.363 . S
C726 C732 1.379 . S
C726 N734 1.356 . S
C727 C726 1.363 . S
C727 C733 1.363 . S
C728 C729 1.363 . S
C728 C733 1.379 . S
C728 N735 1.356 . S
C729 C728 1.363 . S
C729 C732 1.363 . S
N730 C732 1.356 . S
N730 H742 0.984 . S
N730 H743 0.985 . S
N731 C733 1.356 . S
N731 H736 0.984 . S
N731 H737 0.985 . S
C732 C726 1.379 . S
C732 C729 1.363 . S
C732 N730 1.356 . S
C733 C727 1.363 . S
C733 C728 1.379 . S
C733 N731 1.356 . S
N734 C726 1.356 . S
N734 H740 0.984 . S
N734 H741 0.984 . S
N735 C728 1.356 . S
N735 H738 0.984 . S
N735 H739 0.985 . S
H736 N731 0.984 . S
H737 N731 0.985 . S
H738 N735 0.984 . S
H739 N735 0.985 . S
H740 N734 0.984 . S
H741 N734 0.984 . S
H742 N730 0.984 . S
H743 N730 0.985 . S
C744 C745 1.363 . S
C744 C750 1.379 . S
C744 N752 1.356 . S
C745 C744 1.363 . S
C745 C751 1.363 . S
C746 C747 1.363 . S
C746 C751 1.379 . S
C746 N753 1.356 . S
C747 C746 1.363 . S
C747 C750 1.363 . S
N748 C750 1.356 . S
N748 H760 0.984 . S
N748 H761 0.985 . S
N749 C751 1.356 . S
N749 H754 0.984 . S
N749 H755 0.985 . S
C750 C744 1.379 . S
C750 C747 1.363 . S
C750 N748 1.356 . S
C751 C745 1.363 . S
C751 C746 1.379 . S
C751 N749 1.356 . S
N752 C744 1.356 . S
N752 H758 0.984 . S
N752 H759 0.984 . S
N753 C746 1.356 . S
N753 H756 0.984 . S
N753 H757 0.985 . S
H754 N749 0.984 . S
H755 N749 0.985 . S
H756 N753 0.984 . S
H757 N753 0.985 . S
H758 N752 0.984 . S
H759 N752 0.984 . S
H760 N748 0.984 . S
H761 N748 0.985 . S
C762 C763 1.363 . S
C762 C768 1.379 . S
C762 N770 1.356 . S
C763 C762 1.363 . S
C763 C769 1.363 . S
C764 C765 1.363 . S
C764 C769 1.379 . S
C764 N771 1.356 . S
C765 C764 1.363 . S
C765 C768 1.363 . S
N766 C768 1.356 . S
N766 H778 0.984 . S
N766 H779 0.985 . S
N767 C769 1.356 . S
N767 H772 0.984 . S
N767 H773 0.985 . S
C768 C762 1.379 . S
C768 C765 1.363 . S
C768 N766 1.356 . S
C769 C763 1.363 . S
C769 C764 1.379 . S
C769 N767 1.356 . S
N770 C762 1.356 . S
N770 H776 0.984 . S
N770 H777 0.984 . S
N771 C764 1.356 . S
N771 H774 0.984 . S
N771 H775 0.985 . S
H772 N767 0.984 . S
H773 N767 0.985 . S
H774 N771 0.984 . S
H775 N771 0.985 . S
H776 N770 0.984 . S
H777 N770 0.984 . S
H778 N766 0.984 . S
H779 N766 0.985 . S
C780 C781 1.363 . S
C780 C786 1.379 . S
C780 N788 1.356 . S
C781 C780 1.363 . S
C781 C787 1.363 . S
C782 C783 1.363 . S
C782 C787 1.379 . S
C782 N789 1.356 . S
C783 C782 1.363 . S
C783 C786 1.363 . S
N784 C786 1.356 . S
N784 H796 0.984 . S
N784 H797 0.985 . S
N785 C787 1.356 . S
N785 H790 0.984 . S
N785 H791 0.985 . S
C786 C780 1.379 . S
C786 C783 1.363 . S
C786 N784 1.356 . S
C787 C781 1.363 . S
C787 C782 1.379 . S
C787 N785 1.356 . S
N788 C780 1.356 . S
N788 H794 0.984 . S
N788 H795 0.984 . S
N789 C782 1.356 . S
N789 H792 0.984 . S
N789 H793 0.985 . S
H790 N785 0.984 . S
H791 N785 0.985 . S
H792 N789 0.984 . S
H793 N789 0.985 . S
H794 N788 0.984 . S
H795 N788 0.984 . S
H796 N784 0.984 . S
H797 N784 0.985 . S
C798 C799 1.363 . S
C798 C804 1.379 . S
C798 N806 1.356 . S
C799 C798 1.363 . S
C799 C805 1.363 . S
C800 C801 1.363 . S
C800 C805 1.379 . S
C800 N807 1.356 . S
C801 C800 1.363 . S
C801 C804 1.363 . S
N802 C804 1.356 . S
N802 H814 0.984 . S
N802 H815 0.985 . S
N803 C805 1.356 . S
N803 H808 0.984 . S
N803 H809 0.985 . S
C804 C798 1.379 . S
C804 C801 1.363 . S
C804 N802 1.356 . S
C805 C799 1.363 . S
C805 C800 1.379 . S
C805 N803 1.356 . S
N806 C798 1.356 . S
N806 H812 0.984 . S
N806 H813 0.984 . S
N807 C800 1.356 . S
N807 H810 0.984 . S
N807 H811 0.985 . S
H808 N803 0.984 . S
H809 N803 0.985 . S
H810 N807 0.984 . S
H811 N807 0.985 . S
H812 N806 0.984 . S
H813 N806 0.984 . S
H814 N802 0.984 . S
H815 N802 0.985 . S
C816 C817 1.363 . S
C816 C822 1.379 . S
C816 N824 1.356 . S
C817 C816 1.363 . S
C817 C823 1.363 . S
C818 C819 1.363 . S
C818 C823 1.379 . S
C818 N825 1.356 . S
C819 C818 1.363 . S
C819 C822 1.363 . S
N820 C822 1.356 . S
N820 H832 0.984 . S
N820 H833 0.985 . S
N821 C823 1.356 . S
N821 H826 0.984 . S
N821 H827 0.985 . S
C822 C816 1.379 . S
C822 C819 1.363 . S
C822 N820 1.356 . S
C823 C817 1.363 . S
C823 C818 1.379 . S
C823 N821 1.356 . S
N824 C816 1.356 . S
N824 H830 0.984 . S
N824 H831 0.984 . S
N825 C818 1.356 . S
N825 H828 0.984 . S
N825 H829 0.985 . S
H826 N821 0.984 . S
H827 N821 0.985 . S
H828 N825 0.984 . S
H829 N825 0.985 . S
H830 N824 0.984 . S
H831 N824 0.984 . S
H832 N820 0.984 . S
H833 N820 0.985 . S
C834 C835 1.363 . S
C834 C840 1.379 . S
C834 N842 1.356 . S
C835 C834 1.363 . S
C835 C841 1.363 . S
C836 C837 1.363 . S
C836 C841 1.379 . S
C836 N843 1.356 . S
C837 C836 1.363 . S
C837 C840 1.363 . S
N838 C840 1.356 . S
N838 H850 0.984 . S
N838 H851 0.985 . S
N839 C841 1.356 . S
N839 H844 0.984 . S
N839 H845 0.985 . S
C840 C834 1.379 . S
C840 C837 1.363 . S
C840 N838 1.356 . S
C841 C835 1.363 . S
C841 C836 1.379 . S
C841 N839 1.356 . S
N842 C834 1.356 . S
N842 H848 0.984 . S
N842 H849 0.984 . S
N843 C836 1.356 . S
N843 H846 0.984 . S
N843 H847 0.985 . S
H844 N839 0.984 . S
H845 N839 0.985 . S
H846 N843 0.984 . S
H847 N843 0.985 . S
H848 N842 0.984 . S
H849 N842 0.984 . S
H850 N838 0.984 . S
H851 N838 0.985 . S
C852 C853 1.363 . S
C852 C858 1.379 . S
C852 N860 1.356 . S
C853 C852 1.363 . S
C853 C859 1.363 . S
C854 C855 1.363 . S
C854 C859 1.379 . S
C854 N861 1.356 . S
C855 C854 1.363 . S
C855 C858 1.363 . S
N856 C858 1.356 . S
N856 H868 0.984 . S
N856 H869 0.985 . S
N857 C859 1.356 . S
N857 H862 0.984 . S
N857 H863 0.985 . S
C858 C852 1.379 . S
C858 C855 1.363 . S
C858 N856 1.356 . S
C859 C853 1.363 . S
C859 C854 1.379 . S
C859 N857 1.356 . S
N860 C852 1.356 . S
N860 H866 0.984 . S
N860 H867 0.984 . S
N861 C854 1.356 . S
N861 H864 0.984 . S
N861 H865 0.985 . S
H862 N857 0.984 . S
H863 N857 0.985 . S
H864 N861 0.984 . S
H865 N861 0.985 . S
H866 N860 0.984 . S
H867 N860 0.984 . S
H868 N856 0.984 . S
H869 N856 0.985 . S
C870 C871 1.363 . S
C870 C876 1.379 . S
C870 N878 1.356 . S
C871 C870 1.363 . S
C871 C877 1.363 . S
C872 C873 1.363 . S
C872 C877 1.379 . S
C872 N879 1.356 . S
C873 C872 1.363 . S
C873 C876 1.363 . S
N874 C876 1.356 . S
N874 H886 0.984 . S
N874 H887 0.985 . S
N875 C877 1.356 . S
N875 H880 0.984 . S
N875 H881 0.985 . S
C876 C870 1.379 . S
C876 C873 1.363 . S
C876 N874 1.356 . S
C877 C871 1.363 . S
C877 C872 1.379 . S
C877 N875 1.356 . S
N878 C870 1.356 . S
N878 H884 0.984 . S
N878 H885 0.984 . S
N879 C872 1.356 . S
N879 H882 0.984 . S
N879 H883 0.985 . S
H880 N875 0.984 . S
H881 N875 0.985 . S
H882 N879 0.984 . S
H883 N879 0.985 . S
H884 N878 0.984 . S
H885 N878 0.984 . S
H886 N874 0.984 . S
H887 N874 0.985 . S
C241 C49 1.154 . S
C243 C2 1.221 . S
C259 C72 1.154 . S
C261 C24 1.221 1_455 S
C277 C42 1.221 1_565 S
C279 C89 1.154 . S
C295 C64 1.221 . S
C297 C112 1.154 . S
C313 C9 1.154 . S
C315 C82 1.221 1_455 S
C331 C32 1.154 . S
C333 C104 1.221 1_565 S
C349 C212 1.154 . S
C351 C124 1.221 . S
C367 C142 1.221 1_655 S
C369 C229 1.154 . S
C385 C164 1.221 1_545 S
C387 C132 1.154 . S
C403 C182 1.221 . S
C405 C149 1.154 . S
C421 C204 1.221 1_655 S
C423 C172 1.154 . S
C439 C189 1.154 . S
C441 C222 1.221 1_545 S
C457 C78 1.727 . S
C459 C19 1.727 . S
C475 C38 1.727 . S
C477 C99 1.727 . S
C493 C59 1.727 . S
C495 C118 1.727 . S
C511 C138 1.727 . S
C513 C199 1.727 . S
C529 C159 1.727 . S
C531 C218 1.727 . S
C547 C178 1.727 . S
C549 C239 1.727 . S
C565 C158 2.002 . S
C567 C18 2.002 . S
C583 C39 2.002 . S
C585 C179 2.002 . S
C601 C198 2.002 . S
C603 C58 2.002 . S
C619 C79 2.002 . S
C621 C219 2.002 . S
C637 C98 2.002 . S
C639 C238 2.002 . S
C655 C139 2.002 . S
C657 C119 2.002 . S
C673 C52 1.459 . S
C675 C4 1.295 . S
C691 C22 1.295 . S
C693 C69 1.459 . S
C709 C44 1.295 . S
C711 C92 1.459 . S
C727 C62 1.295 . S
C729 C109 1.459 . S
C745 C12 1.459 . S
C747 C84 1.295 . S
C763 C29 1.459 . S
C765 C102 1.295 . S
C781 C209 1.459 . S
C783 C122 1.295 . S
C799 C144 1.295 . S
C801 C232 1.459 . S
C817 C162 1.295 . S
C819 C129 1.459 . S
C835 C152 1.459 . S
C837 C184 1.295 . S
C853 C202 1.295 . S
C855 C169 1.459 . S
C871 C224 1.295 . S
C873 C192 1.459 . S
