# Generated by pormake.
# Topology wkt, (7)-cn, num edge types: 1
# Building blocks:
#     Node 0, Type 0, BuildingBlock: NUHQUE_clean_sbu_2, # of connection points: 7
#     Node 1, Type 0, BuildingBlock: NUHQUE_clean_sbu_2, # of connection points: 7
#     Node 2, Type 0, BuildingBlock: NUHQUE_clean_sbu_2, # of connection points: 7
#     Node 3, Type 0, BuildingBlock: NUHQUE_clean_sbu_2, # of connection points: 7
#     Node 4, Type 0, BuildingBlock: NUHQUE_clean_sbu_2, # of connection points: 7
#     Node 5, Type 0, BuildingBlock: NUHQUE_clean_sbu_2, # of connection points: 7
#     Node 6, Type 0, BuildingBlock: NUHQUE_clean_sbu_2, # of connection points: 7
#     Node 7, Type 0, BuildingBlock: NUHQUE_clean_sbu_2, # of connection points: 7
#     Node 8, Type 0, BuildingBlock: NUHQUE_clean_sbu_2, # of connection points: 7
#     Node 9, Type 0, BuildingBlock: NUHQUE_clean_sbu_2, # of connection points: 7
#     Node 10, Type 0, BuildingBlock: NUHQUE_clean_sbu_2, # of connection points: 7
#     Node 11, Type 0, BuildingBlock: NUHQUE_clean_sbu_2, # of connection points: 7
#     Edge 12, Type (0, 0), BuildingBlock: XIVTED_clean_linker_0, # of connection points: 2
#     Edge 13, Type (0, 0), BuildingBlock: XIVTED_clean_linker_0, # of connection points: 2
#     Edge 14, Type (0, 0), BuildingBlock: XIVTED_clean_linker_0, # of connection points: 2
#     Edge 15, Type (0, 0), BuildingBlock: XIVTED_clean_linker_0, # of connection points: 2
#     Edge 16, Type (0, 0), BuildingBlock: XIVTED_clean_linker_0, # of connection points: 2
#     Edge 17, Type (0, 0), BuildingBlock: XIVTED_clean_linker_0, # of connection points: 2
#     Edge 18, Type (0, 0), BuildingBlock: XIVTED_clean_linker_0, # of connection points: 2
#     Edge 19, Type (0, 0), BuildingBlock: XIVTED_clean_linker_0, # of connection points: 2
#     Edge 20, Type (0, 0), BuildingBlock: XIVTED_clean_linker_0, # of connection points: 2
#     Edge 21, Type (0, 0), BuildingBlock: XIVTED_clean_linker_0, # of connection points: 2
#     Edge 22, Type (0, 0), BuildingBlock: XIVTED_clean_linker_0, # of connection points: 2
#     Edge 23, Type (0, 0), BuildingBlock: XIVTED_clean_linker_0, # of connection points: 2
#     Edge 24, Type (0, 0), BuildingBlock: XIVTED_clean_linker_0, # of connection points: 2
#     Edge 25, Type (0, 0), BuildingBlock: XIVTED_clean_linker_0, # of connection points: 2
#     Edge 26, Type (0, 0), BuildingBlock: XIVTED_clean_linker_0, # of connection points: 2
#     Edge 27, Type (0, 0), BuildingBlock: XIVTED_clean_linker_0, # of connection points: 2
#     Edge 28, Type (0, 0), BuildingBlock: XIVTED_clean_linker_0, # of connection points: 2
#     Edge 29, Type (0, 0), BuildingBlock: XIVTED_clean_linker_0, # of connection points: 2
#     Edge 30, Type (0, 0), BuildingBlock: XIVTED_clean_linker_0, # of connection points: 2
#     Edge 31, Type (0, 0), BuildingBlock: XIVTED_clean_linker_0, # of connection points: 2
#     Edge 32, Type (0, 0), BuildingBlock: XIVTED_clean_linker_0, # of connection points: 2
#     Edge 33, Type (0, 0), BuildingBlock: XIVTED_clean_linker_0, # of connection points: 2
#     Edge 34, Type (0, 0), BuildingBlock: XIVTED_clean_linker_0, # of connection points: 2
#     Edge 35, Type (0, 0), BuildingBlock: XIVTED_clean_linker_0, # of connection points: 2
#     Edge 36, Type (0, 0), BuildingBlock: XIVTED_clean_linker_0, # of connection points: 2
#     Edge 37, Type (0, 0), BuildingBlock: XIVTED_clean_linker_0, # of connection points: 2
#     Edge 38, Type (0, 0), BuildingBlock: XIVTED_clean_linker_0, # of connection points: 2
#     Edge 39, Type (0, 0), BuildingBlock: XIVTED_clean_linker_0, # of connection points: 2
#     Edge 40, Type (0, 0), BuildingBlock: XIVTED_clean_linker_0, # of connection points: 2
#     Edge 41, Type (0, 0), BuildingBlock: XIVTED_clean_linker_0, # of connection points: 2
#     Edge 42, Type (0, 0), BuildingBlock: XIVTED_clean_linker_0, # of connection points: 2
#     Edge 43, Type (0, 0), BuildingBlock: XIVTED_clean_linker_0, # of connection points: 2
#     Edge 44, Type (0, 0), BuildingBlock: XIVTED_clean_linker_0, # of connection points: 2
#     Edge 45, Type (0, 0), BuildingBlock: XIVTED_clean_linker_0, # of connection points: 2
#     Edge 46, Type (0, 0), BuildingBlock: XIVTED_clean_linker_0, # of connection points: 2
#     Edge 47, Type (0, 0), BuildingBlock: XIVTED_clean_linker_0, # of connection points: 2
#     Edge 48, Type (0, 0), BuildingBlock: XIVTED_clean_linker_0, # of connection points: 2
#     Edge 49, Type (0, 0), BuildingBlock: XIVTED_clean_linker_0, # of connection points: 2
#     Edge 50, Type (0, 0), BuildingBlock: XIVTED_clean_linker_0, # of connection points: 2
#     Edge 51, Type (0, 0), BuildingBlock: XIVTED_clean_linker_0, # of connection points: 2
#     Edge 52, Type (0, 0), BuildingBlock: XIVTED_clean_linker_0, # of connection points: 2
#     Edge 53, Type (0, 0), BuildingBlock: XIVTED_clean_linker_0, # of connection points: 2
# Relax obj value: 0.267
# Max RMSD: 0.278
# Mean RMSD: 0.278
data_MOF--net-wkt--node1-NUHQUE_clean_sbu_2--edge1-XIVTED_clean_linker_0
_symmetry_space_group_name_H-M    P1
_symmetry_Int_Tables_number       1
_symmetry_cell_setting            triclinic
loop_
_symmetry_equiv_pos_as_xyz
'x, y, z'
_cell_length_a     30.362871
_cell_length_b     30.529445
_cell_length_c     76.486353
_cell_angle_alpha  89.920137
_cell_angle_beta   89.645843
_cell_angle_gamma 119.99396
loop_
_atom_site_label
_atom_site_type_symbol
_atom_site_fract_x
_atom_site_fract_y
_atom_site_fract_z
_atom_type_partial_charge
O0 O 0.41586 0.49971 0.00174 0.0
Tb1 Tb 0.4669 0.56265 -0.01515 0.0
Eu2 Eu 0.41293 0.45734 -0.03746 0.0
C3 C 0.37711 0.50127 0.00892 0.0
O4 O 0.36936 0.53863 0.00479 0.0
C5 C 0.36605 0.53355 -0.03421 0.0
O6 O 0.4418 0.48859 0.93567 0.0
C7 C 0.36067 0.35953 -0.03754 0.0
C8 C 0.46787 0.53773 0.93328 0.0
O9 O 0.47337 0.56782 0.94629 0.0
C10 C 0.53247 0.51942 -0.02969 0.0
C11 C 0.37151 0.31738 -0.03613 0.0
C12 C 0.37107 0.29683 -0.01969 0.0
C13 C 0.38483 0.25946 -0.01774 0.0
C14 C 0.39665 0.24071 -0.0328 0.0
C15 C 0.39478 0.259 0.95047 0.0
C16 C 0.38265 0.29771 0.94899 0.0
O17 O 0.41089 0.57141 -0.02999 0.0
O18 O 0.35717 0.48654 -0.03416 0.0
O19 O 0.50194 0.59711 0.00967 0.0
O20 O 0.50137 0.64372 -0.01091 0.0
C21 C 0.51601 0.64316 0.00496 0.0
O22 O 0.4915 0.47446 -0.02831 0.0
O23 O 0.52823 0.55993 -0.02881 0.0
O24 O 0.37569 0.38686 0.94804 0.0
O25 O 0.36819 0.38682 -0.02335 0.0
H26 H 0.35986 0.31019 -0.00834 0.0
H27 H 0.40718 0.21182 -0.03156 0.0
H28 H 0.38271 0.31313 0.93621 0.0
O29 O 0.94711 0.38689 0.16717 0.0
Tb30 Tb 0.9401 0.43582 0.1482 0.0
Eu31 Eu 0.99809 0.37789 0.13105 0.0
C32 C 0.90447 0.35661 0.1755 0.0
O33 O 0.86328 0.35758 0.17096 0.0
C34 C 0.8741 0.32954 0.13217 0.0
O35 O 0.9999 0.40218 0.10316 0.0
C36 C 1.04729 0.32914 0.13412 0.0
C37 C 0.97593 0.42647 0.09905 0.0
O38 O 0.94896 0.43329 0.11098 0.0
C39 C 1.05226 0.49873 0.13607 0.0
C40 C 0.10066 0.3396 0.13434 0.0
C41 C 0.12231 0.33676 0.15016 0.0
C42 C 0.17216 0.34486 0.15071 0.0
C43 C 0.20011 0.35508 0.13498 0.0
C44 C 0.17948 0.35861 0.11892 0.0
C45 C 0.12968 0.35102 0.11885 0.0
O46 O 0.87955 0.37498 0.13332 0.0
O47 O 0.91294 0.32226 0.13502 0.0
O48 O 0.93603 0.47379 0.17175 0.0
O49 O 0.88897 0.4666 0.15021 0.0
C50 C 0.90184 0.4838 0.16602 0.0
O51 O 1.05635 0.4584 0.13906 0.0
O52 O 1.0074 0.49487 0.13524 0.0
O53 O 1.02967 0.33498 0.11915 0.0
O54 O 1.03167 0.34451 0.14768 0.0
H55 H 1.10036 0.32896 0.16214 0.0
H56 H 0.23771 0.35939 0.13525 0.0
H57 H 0.11358 0.35467 0.10672 0.0
O58 O 0.69548 0.98167 0.34185 0.0
Tb59 Tb 0.64073 0.96638 0.32108 0.0
Eu60 Eu 0.67987 0.98088 0.28144 0.0
C61 C 0.72698 0.96379 0.34145 0.0
O62 O 0.73103 0.9423 0.32715 0.0
C63 C 0.62766 0.87255 0.29778 0.0
O64 O 0.69138 0.99831 0.25293 0.0
C65 C 0.76757 1.02028 0.29641 0.0
C66 C 0.691 0.96532 0.24191 0.0
O67 O 0.68884 0.92402 0.248 0.0
C68 C 0.64632 1.05487 0.29722 0.0
C69 C 0.81089 0.07202 0.29729 0.0
C70 C 0.83732 0.09009 0.31295 0.0
C71 C 0.87445 0.14151 0.31475 0.0
C72 C 0.88613 0.17411 0.30019 0.0
C73 C 0.8601 0.15588 0.28435 0.0
C74 C 0.82252 0.10487 0.28308 0.0
O75 O 0.64007 0.89623 0.31296 0.0
O76 O 0.63015 0.89709 0.28343 0.0
O77 O 0.59405 0.95524 0.34409 0.0
O78 O 0.55767 0.92549 0.31975 0.0
C79 C 0.55054 0.93036 0.33628 0.0
O80 O 0.64315 1.02877 0.28323 0.0
O81 O 0.65771 1.04268 0.31245 0.0
O82 O 0.75855 0.99832 0.28103 0.0
O83 O 0.72623 1.0132 0.30451 0.0
H84 H 0.82795 1.06396 0.3238 0.0
H85 H 0.91346 0.21406 0.30133 0.0
H86 H 0.80157 0.09083 0.271 0.0
O87 O 0.78626 0.61253 0.50007 0.0
Tb88 Tb 0.74091 0.55407 0.48113 0.0
Eu89 Eu 0.80026 0.66648 0.46701 0.0
C90 C 0.82108 0.60811 0.50881 0.0
O91 O 0.82853 0.5702 0.50528 0.0
C92 C 0.84836 0.59168 0.46665 0.0
O93 O 0.76313 0.63605 0.44118 0.0
C94 C 0.85132 0.7641 0.46803 0.0
C95 C 0.77679 0.61144 0.43046 0.0
O96 O 0.81952 0.61153 0.433 0.0
C97 C 0.6809 0.6036 0.47014 0.0
C98 C 0.84061 0.80632 0.46868 0.0
C99 C 0.84243 0.82919 0.48471 0.0
C100 C 0.82996 0.86744 0.48589 0.0
C101 C 0.81582 0.88351 0.4708 0.0
C102 C 0.8157 0.86243 0.45439 0.0
C103 C 0.8286 0.82405 0.45353 0.0
O104 O 0.80209 0.55248 0.46694 0.0
O105 O 0.85615 0.63745 0.46995 0.0
O106 O 0.69855 0.51369 0.50445 0.0
O107 O 0.70597 0.47207 0.4835 0.0
C108 C 0.68667 0.4689 0.49899 0.0
O109 O 0.72016 0.64495 0.47629 0.0
O110 O 0.68708 0.56528 0.46629 0.0
O111 O 0.84134 0.73847 0.45333 0.0
O112 O 0.83877 0.73526 0.48214 0.0
H113 H 0.85273 0.81659 0.49647 0.0
H114 H 0.80525 0.91244 0.4719 0.0
H115 H 0.82974 0.80813 0.44101 0.0
O116 O 0.2345 0.74537 0.66248 0.0
Tb117 Tb 0.25569 0.69991 0.64648 0.0
Eu118 Eu 0.20486 0.7564 0.62699 0.0
C119 C 0.27084 0.78319 0.67116 0.0
O120 O 0.31792 0.793 0.66928 0.0
C121 C 0.3293 0.80534 0.63058 0.0
O122 O 0.20653 0.73159 0.59948 0.0
C123 C 0.15566 0.80509 0.62939 0.0
C124 C 0.23443 0.71092 0.59595 0.0
O125 O 0.26331 0.70869 0.60814 0.0
C126 C 0.15023 0.63636 0.63138 0.0
C127 C 0.10189 0.79305 0.63018 0.0
C128 C 1.0803 0.79456 0.64625 0.0
C129 C 1.0296 0.78373 0.64744 0.0
C130 C 1.00057 0.77199 0.63204 0.0
C131 C 1.0213 0.76987 0.61571 0.0
C132 C 1.07206 0.78029 0.61504 0.0
O133 O 0.32347 0.76059 0.63416 0.0
O134 O 0.28991 0.81273 0.63034 0.0
O135 O 0.24825 0.66289 0.67153 0.0
O136 O 0.29969 0.66317 0.65244 0.0
C137 C 0.28034 0.64777 0.66797 0.0
O138 O 0.1449 0.67575 0.63469 0.0
O139 O 0.19589 0.64232 0.63082 0.0
O140 O 0.17236 0.79743 0.61443 0.0
O141 O 0.17282 0.79224 0.64313 0.0
H142 H 0.10295 0.8031 0.65797 0.0
H143 H 0.96204 0.76523 0.63277 0.0
H144 H 1.08824 0.77748 0.60274 0.0
O145 O 0.54498 0.17889 0.83549 0.0
Tb146 Tb 0.60195 0.20555 0.81448 0.0
Eu147 Eu 0.49638 0.15673 0.79072 0.0
C148 C 0.50901 0.19081 0.83683 0.0
O149 O 0.50182 0.21477 0.82398 0.0
C150 C 0.57038 0.28062 0.79708 0.0
O151 O 0.53089 0.15608 0.76486 0.0
C152 C 0.39819 0.11075 0.78951 0.0
C153 C 0.57765 0.19153 0.76129 0.0
O154 O 0.60295 0.22713 0.77278 0.0
C155 C 0.55839 0.10206 0.79813 0.0
C156 C 0.35636 1.05762 0.79112 0.0
C157 C 0.33623 1.03715 0.80761 0.0
C158 C 0.30015 0.98565 0.80969 0.0
C159 C 0.28156 0.95517 0.79469 0.0
C160 C 0.29971 0.97545 0.77787 0.0
C161 C 0.3376 1.02669 0.77634 0.0
O162 O 0.60476 0.27465 0.8055 0.0
O163 O 0.52752 0.24206 0.79132 0.0
O164 O 0.64473 0.20091 0.83646 0.0
O165 O 0.68463 0.25242 0.81581 0.0
C166 C 0.68926 0.23435 0.83062 0.0
O167 O 0.51372 0.09736 0.80139 0.0
O168 O 0.59763 0.14769 0.79701 0.0
O169 O 0.42712 0.12244 0.77543 0.0
O170 O 0.42409 0.13174 0.80384 0.0
H171 H 0.34933 1.06148 0.81895 0.0
H172 H 0.25344 0.91554 0.79611 0.0
H173 H 0.35369 1.04237 0.76362 0.0
O174 O 0.63145 0.73975 0.7529 0.0
Tb175 Tb 0.57503 0.69233 0.77228 0.0
Eu176 Eu 0.68938 0.75512 0.78779 0.0
C177 C 0.61777 0.76641 0.74316 0.0
O178 O 0.57313 0.76213 0.74622 0.0
C179 C 0.61106 0.80072 0.78535 0.0
O180 O 0.66772 0.72941 0.81569 0.0
C181 C 0.78726 0.80475 0.78416 0.0
C182 C 0.61998 0.70921 0.82056 0.0
O183 O 0.58678 0.70827 0.80954 0.0
C184 C 0.62624 0.63499 0.78493 0.0
C185 C 0.82794 0.79133 0.78397 0.0
C186 C 0.85172 0.79198 0.76815 0.0
C187 C 0.88824 0.77661 0.76738 0.0
C188 C 0.90174 0.76112 0.78282 0.0
C189 C 0.87787 0.75971 0.79885 0.0
C190 C 0.84172 0.77578 0.79927 0.0
O191 O 0.57156 0.75479 0.7844 0.0
O192 O 0.65804 0.80895 0.78359 0.0
O193 O 0.53564 0.64579 0.74987 0.0
O194 O 0.49267 0.65641 0.76982 0.0
C195 C 0.49028 0.63439 0.75502 0.0
O196 O 0.66887 0.67498 0.77981 0.0
O197 O 0.58639 0.63968 0.78779 0.0
O198 O 0.76409 0.80045 0.7992 0.0
O199 O 0.75601 0.7889 0.77076 0.0
H200 H 0.84141 0.80409 0.75628 0.0
H201 H 0.92883 0.74787 0.78218 0.0
H202 H 0.8237 0.7754 0.81159 0.0
O203 O 0.96582 0.60351 0.91337 0.0
Tb204 Tb 0.95852 0.5433 0.93059 0.0
Eu205 Eu 1.00936 0.65008 0.95174 0.0
C206 C 0.92396 0.59314 0.90499 0.0
O207 O 0.88268 0.54976 0.90837 0.0
C208 C 0.88614 0.57289 0.94878 0.0
O209 O 1.00559 0.62155 -0.02092 0.0
C210 C 1.05487 0.74789 0.95101 0.0
C211 C 0.98247 0.57276 -0.01777 0.0
O212 O 0.95883 0.5409 -0.03044 0.0
C213 C 1.06711 0.58789 0.94505 0.0
C214 C 0.10792 0.79035 0.94947 0.0
C215 C 0.1279 0.8109 0.93297 0.0
C216 C 0.17896 0.84884 0.93083 0.0
C217 C 0.20963 0.86811 0.94576 0.0
C218 C 0.1897 0.84964 -0.03743 0.0
C219 C 0.13886 0.81039 -0.03576 0.0
O220 O 0.89349 0.53476 0.9455 0.0
O221 O 0.92428 0.61999 0.948 0.0
O222 O 0.9633 0.50881 0.90627 0.0
O223 O 0.9107 0.46248 0.92598 0.0
C224 C 0.92907 0.46296 0.91054 0.0
O225 O 1.07132 0.6327 0.94317 0.0
O226 O 1.02211 0.5474 0.94468 0.0
O227 O 1.04206 0.72152 -0.03435 0.0
O228 O 1.03569 0.71961 0.93701 0.0
H229 H 0.10329 0.79713 0.9217 0.0
H230 H 0.249 0.89752 0.94435 0.0
H231 H 0.12362 0.79487 -0.02294 0.0
O232 O 0.4295 0.94337 0.07478 0.0
Tb233 Tb 0.46191 0.92097 0.09605 0.0
Eu234 Eu 0.40906 0.97085 0.12203 0.0
C235 C 0.38204 0.93342 0.07457 0.0
O236 O 0.35387 0.91542 0.08867 0.0
C237 C 0.35644 0.84708 0.11535 0.0
O238 O 0.45345 0.9709 0.14539 0.0
C239 C 0.35524 1.01408 0.12657 0.0
C240 C 0.46815 0.93715 0.14627 0.0
O241 O 0.452 0.9013 0.13454 0.0
C242 C 0.52309 1.02785 0.11081 0.0
C243 C 0.36171 0.06502 0.12401 0.0
C244 C 0.36376 0.08411 0.10713 0.0
C245 C 0.37207 0.13326 0.10455 0.0
C246 C 0.37658 0.16275 0.1193 0.0
C247 C 0.37282 0.14359 0.13632 0.0
C248 C 0.36571 0.09473 0.13851 0.0
O249 O 0.39493 0.85251 0.10565 0.0
O250 O 0.3543 0.88587 0.12201 0.0
O251 O 0.50675 0.91985 0.0739 0.0
O252 O 0.49755 0.87413 0.09612 0.0
C253 C 0.51851 0.88817 0.08076 0.0
O254 O 0.48164 1.03059 0.10868 0.0
O255 O 0.51856 0.98297 0.11157 0.0
O256 O 0.38143 1.00882 0.13926 0.0
O257 O 0.35355 0.98923 0.11229 0.0
H258 H 0.3585 1.06038 0.09594 0.0
H259 H 0.38312 0.20074 0.11758 0.0
H260 H 0.36421 0.08001 0.15154 0.0
O261 O 0.50607 0.39126 0.24473 0.0
Tb262 Tb 0.56644 0.42952 0.26375 0.0
Eu263 Eu 0.52633 0.40483 0.30371 0.0
C264 C 0.47437 0.34215 0.24507 0.0
O265 O 0.47439 0.31522 0.25846 0.0
C266 C 0.57959 0.34871 0.28704 0.0
O267 O 0.51863 0.4105 0.33256 0.0
C268 C 0.43858 0.35758 0.28852 0.0
C269 C 0.5305 0.38395 0.34302 0.0
O270 O 0.53626 0.34747 0.33636 0.0
C271 C 0.56331 0.51347 0.28809 0.0
C272 C 0.39188 0.3608 0.2869 0.0
C273 C 0.37007 0.35627 0.27043 0.0
C274 C 0.32534 0.35885 0.26857 0.0
C275 C 0.30201 0.36515 0.28361 0.0
C276 C 0.32351 0.36973 0.30026 0.0
C277 C 0.36888 0.36819 0.30165 0.0
O278 O 0.56846 0.36067 0.27173 0.0
O279 O 0.57584 0.37004 0.30136 0.0
O280 O 0.60566 0.45838 0.23896 0.0
O281 O 0.64956 0.47313 0.26207 0.0
C282 C 0.6514 0.48007 0.24521 0.0
O283 O 0.56388 0.48932 0.30218 0.0
O284 O 0.55336 0.4911 0.27268 0.0
O285 O 0.44759 0.34426 0.30388 0.0
O286 O 0.47958 0.39369 0.28086 0.0
H287 H 0.38782 0.35031 0.25904 0.0
H288 H 0.26745 0.36696 0.28234 0.0
H289 H 0.38692 0.37352 0.31426 0.0
O290 O 0.24102 0.52386 0.41447 0.0
Tb291 Tb 0.26095 0.58915 0.43085 0.0
Eu292 Eu 0.20586 0.47955 0.45123 0.0
C293 C 0.27823 0.52099 0.4067 0.0
O294 O 0.32542 0.55593 0.40982 0.0
C295 C 0.32966 0.55358 0.44864 0.0
O296 O 0.20731 0.5085 0.47834 0.0
C297 C 0.15738 0.3816 0.45057 0.0
C298 C 0.2318 0.55741 0.48114 0.0
O299 O 0.25784 0.5884 0.46838 0.0
C300 C 0.15096 0.54442 0.44422 0.0
C301 C 0.10387 0.33983 0.44946 0.0
C302 C 1.0831 0.31887 0.43316 0.0
C303 C 1.03202 0.2805 0.43166 0.0
C304 C 1.00206 0.26205 0.44693 0.0
C305 C 1.02257 0.2812 0.46347 0.0
C306 C 1.0735 0.32029 0.46458 0.0
O307 O 0.32442 0.59298 0.44528 0.0
O308 O 0.29053 0.5071 0.44776 0.0
O309 O 0.26797 0.62442 0.40536 0.0
O310 O 0.30731 0.67075 0.42701 0.0
C311 C 0.29779 0.67053 0.41047 0.0
O312 O 0.14709 0.49991 0.44184 0.0
O313 O 0.19581 0.58534 0.44409 0.0
O314 O 0.17119 0.40773 0.46516 0.0
O315 O 0.17678 0.40993 0.43647 0.0
H316 H 0.10705 0.33238 0.42159 0.0
H317 H 0.96263 0.23261 0.44599 0.0
H318 H 1.08926 0.33601 0.47724 0.0
O319 O 0.78156 0.18147 0.57696 0.0
Tb320 Tb 0.74798 0.20656 0.59723 0.0
Eu321 Eu 0.80339 0.15911 0.62249 0.0
C322 C 0.83 0.19482 0.57619 0.0
O323 O 0.8594 0.21791 0.58946 0.0
C324 C 0.85263 0.28261 0.6156 0.0
O325 O 0.7667 0.15806 0.64807 0.0
C326 C 0.85547 0.11341 0.62447 0.0
C327 C 0.75431 0.19285 0.65103 0.0
O328 O 0.76392 0.22732 0.63905 0.0
C329 C 0.68626 0.10301 0.61443 0.0
C330 C 0.84241 1.05975 0.62417 0.0
C331 C 0.84705 1.03832 0.60858 0.0
C332 C 0.82901 0.98623 0.60745 0.0
C333 C 0.8073 0.95532 0.62227 0.0
C334 C 0.80377 0.97648 0.63817 0.0
C335 C 0.82191 1.02876 0.63901 0.0
O336 O 0.81262 0.276 0.60679 0.0
O337 O 0.85724 0.24449 0.62161 0.0
O338 O 0.70467 0.20307 0.57414 0.0
O339 O 0.71105 0.25201 0.59484 0.0
C340 C 0.69165 0.23527 0.57955 0.0
O341 O 0.72673 0.09854 0.61218 0.0
O342 O 0.69195 0.14837 0.61436 0.0
O343 O 0.84052 0.12822 0.63833 0.0
O344 O 0.84908 0.13179 0.60969 0.0
H345 H 0.86254 1.06181 0.59699 0.0
H346 H 0.79219 0.91487 0.6213 0.0
H347 H 0.81896 1.04509 0.65123 0.0
H348 H 0.5384 0.64524 0.03949 0.0
H349 H 0.56263 0.91392 0.04856 0.0
H350 H 0.54857 0.74103 -0.00368 0.0
H351 H 0.53214 0.81073 0.09153 0.0
H352 H 0.58676 0.86339 0.03045 0.0
H353 H 0.56423 0.71662 0.05934 0.0
C354 C 0.547 0.68161 0.03418 0.0
C355 C 0.54009 0.68726 0.01641 0.0
C356 C 0.57581 0.85232 0.04395 0.0
C357 C 0.56929 0.7685 0.03887 0.0
C358 C 0.56207 0.88114 0.05426 0.0
C359 C 0.54404 0.86536 0.07132 0.0
C360 C 0.57064 0.80719 0.05073 0.0
C361 C 0.54485 0.82335 0.07827 0.0
C362 C 0.5618 0.72229 0.04548 0.0
C363 C 0.55241 0.73507 0.01005 0.0
N364 N 0.55682 0.79492 0.0678 0.0
N365 N 0.56561 0.77377 0.02135 0.0
H366 H 0.82694 0.50295 0.15623 0.0
H367 H 0.74872 0.50895 0.25497 0.0
H368 H 0.91784 0.50972 0.20036 0.0
H369 H 0.65806 0.50006 0.21048 0.0
H370 H 0.82026 0.52907 0.23519 0.0
H371 H 0.77439 0.52172 0.17566 0.0
C372 C 0.83628 0.50927 0.16998 0.0
C373 C 0.87597 0.5039 0.17682 0.0
C374 C 0.78501 0.52365 0.22979 0.0
C375 C 0.81589 0.52458 0.19915 0.0
C376 C 0.74431 0.5123 0.24107 0.0
C377 C 0.69741 0.5019 0.23424 0.0
C378 C 0.7783 0.52425 0.21162 0.0
C379 C 0.6935 0.50699 0.2162 0.0
C380 C 0.80633 0.51994 0.18108 0.0
C381 C 0.88699 0.5129 0.19466 0.0
N382 N 0.7332 0.51706 0.20547 0.0
N383 N 0.85651 0.52196 0.2053 0.0
H384 H 0.28766 0.67364 0.37516 0.0
H385 H 0.53067 0.94687 0.36943 0.0
H386 H 0.36191 0.76818 0.41964 0.0
H387 H 0.4603 0.85291 0.3245 0.0
H388 H 0.45646 0.8905 0.38709 0.0
H389 H 0.33777 0.74599 0.35579 0.0
C390 C 0.31398 0.7099 0.38083 0.0
C391 C 0.32161 0.71499 0.39893 0.0
C392 C 0.45667 0.88257 0.3733 0.0
C393 C 0.37896 0.7975 0.37699 0.0
C394 C 0.49899 0.91482 0.36323 0.0
C395 C 0.50174 0.90374 0.34564 0.0
C396 C 0.41737 0.83849 0.36577 0.0
C397 C 0.45965 0.86228 0.33811 0.0
C398 C 0.3425 0.75115 0.3698 0.0
C399 C 0.35561 0.76266 0.4057 0.0
N400 N 0.41947 0.83038 0.34834 0.0
N401 N 0.3836 0.80197 0.3947 0.0
H402 H 0.66372 0.37352 0.48993 0.0
H403 H 0.66561 0.30558 0.58872 0.0
H404 H 0.65512 0.46078 0.53276 0.0
H405 H 0.66011 0.21103 0.54597 0.0
H406 H 0.6401 0.35133 0.56879 0.0
H407 H 0.64073 0.30291 0.51002 0.0
C408 C 0.65596 0.37734 0.50352 0.0
C409 C 0.66255 0.42318 0.50988 0.0
C410 C 0.64342 0.31991 0.5638 0.0
C411 C 0.63713 0.34335 0.53292 0.0
C412 C 0.65802 0.29388 0.57519 0.0
C413 C 0.66619 0.25559 0.56879 0.0
C414 C 0.63791 0.3079 0.54592 0.0
C415 C 0.65517 0.24117 0.55128 0.0
C416 C 0.6428 0.33709 0.51499 0.0
C417 C 0.65138 0.42621 0.52747 0.0
N418 N 0.6426 0.26809 0.54033 0.0
N419 N 0.64023 0.38713 0.53849 0.0
H420 H 0.34543 0.61234 0.66206 0.0
H421 H 0.39482 0.61675 0.76241 0.0
H422 H 0.24993 0.62315 0.70179 0.0
H423 H 0.4834 0.5947 0.72275 0.0
H424 H 0.32729 0.5947 0.74115 0.0
H425 H 0.38194 0.58231 0.68416 0.0
C426 C 0.33166 0.60758 0.67542 0.0
C427 C 0.29591 0.62151 0.68031 0.0
C428 C 0.36096 0.59349 0.73718 0.0
C429 C 0.33758 0.58794 0.70563 0.0
C430 C 0.39943 0.60605 0.74932 0.0
C431 C 0.44506 0.609 0.74407 0.0
C432 C 0.36894 0.58479 0.7197 0.0
C433 C 0.44908 0.59403 0.72712 0.0
C434 C 0.35229 0.59028 0.68803 0.0
C435 C 0.27839 0.61381 0.69764 0.0
N436 N 0.41193 0.58368 0.71538 0.0
N437 N 0.30023 0.59851 0.70979 0.0
H438 H 0.70182 0.20214 0.86235 0.0
H439 H 0.95531 0.46221 0.87649 0.0
H440 H 0.78319 0.31172 0.82163 0.0
H441 H 0.85759 0.36557 0.91782 0.0
H442 H 0.90924 0.39386 0.85561 0.0
H443 H 0.77489 0.24734 0.88154 0.0
C444 C 0.73557 0.23517 0.85736 0.0
C445 C 0.73629 0.2543 0.84065 0.0
C446 C 0.89859 0.38725 0.86931 0.0
C447 C 0.81934 0.30622 0.86245 0.0
C448 C 0.9248 0.42618 0.8812 0.0
C449 C 0.90907 0.41963 0.89873 0.0
C450 C 0.8564 0.34187 0.87507 0.0
C451 C 0.87 0.37226 0.90429 0.0
C452 C 0.77721 0.26091 0.86829 0.0
C453 C 0.78098 0.29654 0.83462 0.0
N454 N 0.84431 0.33532 0.89241 0.0
N455 N 0.82053 0.32183 0.84567 0.0
H456 H 0.42298 0.19584 0.84279 0.0
H457 H 0.46998 0.2348 0.94541 0.0
H458 H 0.53655 0.17576 0.86944 0.0
H459 H 0.34551 0.23641 0.91906 0.0
H460 H 0.49095 0.20643 0.91833 0.0
H461 H 0.38946 0.20311 0.87103 0.0
C462 C 0.44041 0.19221 0.85461 0.0
C463 C 0.48295 0.1857 0.85375 0.0
C464 C 0.45877 0.21256 0.91852 0.0
C465 C 0.44529 0.19488 0.8862 0.0
C466 C 0.44666 0.22861 0.93401 0.0
C467 C 0.40621 0.23856 0.93449 0.0
C468 C 0.43038 0.20657 0.90336 0.0
C469 C 0.37769 0.2303 0.91922 0.0
C470 C 0.42131 0.19647 0.87076 0.0
C471 C 0.50375 0.18088 0.86949 0.0
N472 N 0.39054 0.2152 0.90429 0.0
N473 N 0.48519 0.18633 0.88508 0.0
H474 H 0.2834 0.41974 0.11423 0.0
H475 H 0.27514 0.45708 0.0137 0.0
H476 H 0.1458 0.32645 0.08531 0.0
H477 H 0.40994 0.46993 0.03699 0.0
H478 H 0.22666 0.41371 0.04012 0.0
H479 H 0.33118 0.44355 0.08671 0.0
C480 C 0.26309 0.40358 0.10222 0.0
C481 C 0.20997 0.37122 0.10229 0.0
C482 C 0.26662 0.42514 0.03933 0.0
C483 C 0.26485 0.39989 0.07061 0.0
C484 C 0.29421 0.44974 0.02428 0.0
C485 C 0.34638 0.46662 0.02318 0.0
C486 C 0.2918 0.41898 0.05363 0.0
C487 C 0.36957 0.45684 0.03729 0.0
C488 C 0.29057 0.41747 0.08648 0.0
C489 C 0.18624 0.35263 0.08606 0.0
N490 N 0.34233 0.43454 0.05213 0.0
N491 N 0.21365 0.36782 0.07092 0.0
H492 H 0.78926 0.16406 0.26544 0.0
H493 H 0.98332 0.36016 0.19456 0.0
H494 H 0.95121 0.22442 0.26892 0.0
H495 H 0.81959 0.28279 0.19119 0.0
H496 H 0.9751 0.31341 0.22182 0.0
H497 H 0.80223 0.21214 0.23871 0.0
C498 C 0.8277 0.18767 0.26054 0.0
C499 C 0.86919 0.18984 0.26925 0.0
C500 C 0.94113 0.30667 0.21501 0.0
C501 C 0.88458 0.24528 0.23849 0.0
C502 C 0.9458 0.33305 0.19944 0.0
C503 C 0.90207 0.32562 0.1907 0.0
C504 C 0.89244 0.27288 0.22174 0.0
C505 C 0.85438 0.2902 0.19756 0.0
C506 C 0.83516 0.21514 0.24524 0.0
C507 C 0.91827 0.22181 0.26254 0.0
N508 N 0.85093 0.26548 0.21266 0.0
N509 N 0.92468 0.24816 0.24743 0.0
H510 H 0.73951 1.0132 0.37272 0.0
H511 H 0.76389 0.80614 0.42586 0.0
H512 H 0.76296 0.89968 0.34773 0.0
H513 H 0.83648 0.95896 0.44561 0.0
H514 H 0.74895 0.83631 0.39833 0.0
H515 H 0.76372 0.992 0.40081 0.0
C516 C 0.75035 0.98438 0.37309 0.0
C517 C 0.74894 0.95795 0.35789 0.0
C518 C 0.76827 0.8632 0.40871 0.0
C519 C 0.77508 0.93289 0.38982 0.0
C520 C 0.7771 0.84611 0.42444 0.0
C521 C 0.80253 0.88012 0.43809 0.0
C522 C 0.78374 0.9145 0.40661 0.0
C523 C 0.81659 0.93121 0.43556 0.0
C524 C 0.76408 0.97237 0.38908 0.0
C525 C 0.76345 0.92104 0.35908 0.0
N526 N 0.80688 0.9469 0.42011 0.0
N527 N 0.77505 0.90903 0.37481 0.0
H528 H 0.78513 0.64142 0.53553 0.0
H529 H 1.05272 0.80278 0.58184 0.0
H530 H 0.92222 0.65155 0.51477 0.0
H531 H 0.91797 0.7037 0.61198 0.0
H532 H 1.00363 0.77029 0.5551 0.0
H533 H 0.83269 0.68789 0.56169 0.0
C534 C 0.82546 0.65455 0.53632 0.0
C535 C 0.85002 0.64285 0.52308 0.0
C536 C 0.98492 0.75623 0.56763 0.0
C537 C 0.90419 0.69603 0.55256 0.0
C538 C 1.01293 0.7743 0.58296 0.0
C539 C 0.99007 0.75522 0.59939 0.0
C540 C 0.9332 0.71982 0.56862 0.0
C541 C 0.93756 0.71987 0.59976 0.0
C542 C 0.85231 0.68054 0.55123 0.0
C543 C 0.90206 0.65988 0.52476 0.0
N544 N 0.91096 0.70321 0.58461 0.0
N545 N 0.92752 0.68581 0.53921 0.0
H546 H 0.31465 0.88462 0.67471 0.0
H547 H 0.27145 0.87459 0.77436 0.0
H548 H 0.20468 0.74361 0.69862 0.0
H549 H 0.28642 1.00205 0.7447 0.0
H550 H 0.25048 0.82563 0.7474 0.0
H551 H 0.30957 0.92986 0.70043 0.0
C552 C 0.28851 0.86343 0.68524 0.0
C553 C 0.25965 0.81061 0.6846 0.0
C554 C 0.25769 0.86413 0.74692 0.0
C555 C 0.25529 0.86151 0.7142 0.0
C556 C 0.26953 0.89221 0.76232 0.0
C557 C 0.28158 0.9431 0.76192 0.0
C558 C 0.25903 0.88732 0.73093 0.0
C559 C 0.27914 0.96364 0.7457 0.0
C560 C 0.28568 0.88912 0.69988 0.0
C561 C 0.22694 0.78452 0.69862 0.0
N562 N 0.26916 0.93605 0.73083 0.0
N563 N 0.22647 0.81018 0.7131 0.0
H564 H 0.80759 0.69558 0.82252 0.0
H565 H 1.003 0.66775 0.88532 0.0
H566 H 0.96898 0.77357 0.81187 0.0
H567 H 0.84031 0.59237 0.89268 0.0
H568 H 0.99453 0.71201 0.85964 0.0
H569 H 0.82169 0.66163 0.8492 0.0
C570 C 0.84623 0.70602 0.82588 0.0
C571 C 0.88721 0.73811 0.81498 0.0
C572 C 0.96086 0.68604 0.86701 0.0
C573 C 0.90377 0.69817 0.8457 0.0
C574 C 0.96572 0.66109 0.8817 0.0
C575 C 0.92224 0.62601 0.89105 0.0
C576 C 0.91224 0.67585 0.86179 0.0
C577 C 0.87484 0.6186 0.88578 0.0
C578 C 0.85428 0.6863 0.84115 0.0
C579 C 0.93624 0.7489 0.81986 0.0
N580 N 0.87118 0.643 0.87153 0.0
N581 N 0.94322 0.72902 0.83489 0.0
H582 H 0.28762 0.92185 0.0696 0.0
H583 H 0.29009 0.87645 -0.03312 0.0
H584 H 0.4209 0.94445 0.04132 0.0
H585 H 0.16278 0.87053 -0.00552 0.0
H586 H 0.34045 0.90663 -0.00646 0.0
H587 H 0.2434 0.90894 0.04188 0.0
C588 C 0.30785 0.92477 0.05755 0.0
C589 C 0.35794 0.93382 0.05782 0.0
C590 C 0.3016 0.89907 -0.00627 0.0
C591 C 0.30718 0.91832 0.02597 0.0
C592 C 0.27284 0.882 -0.02153 0.0
C593 C 0.22187 0.87049 -0.02158 0.0
C594 C 0.27929 0.90453 0.00912 0.0
C595 C 0.20153 0.8779 -0.00604 0.0
C596 C 0.28251 0.91727 0.0417 0.0
C597 C 0.38227 0.93744 0.04176 0.0
N598 N 0.23014 0.8941 0.00866 0.0
N599 N 0.35646 0.92906 0.02651 0.0
H600 H 0.48269 0.3829 0.21248 0.0
H601 H 0.31935 0.11312 0.16728 0.0
H602 H 0.40197 0.24252 0.24132 0.0
H603 H 0.43741 0.24551 0.14091 0.0
H604 H 0.3335 0.16358 0.19362 0.0
H605 H 0.44853 0.33636 0.18532 0.0
C606 C 0.45701 0.34243 0.21315 0.0
C607 C 0.44594 0.31637 0.22916 0.0
C608 C 0.35589 0.1816 0.18199 0.0
C609 C 0.40703 0.26305 0.19815 0.0
C610 C 0.34815 0.15279 0.16698 0.0
C611 C 0.37774 0.17486 0.15188 0.0
C612 C 0.39323 0.23297 0.18189 0.0
C613 C 0.41347 0.22682 0.15216 0.0
C614 C 0.43778 0.3159 0.19763 0.0
C615 C 0.41215 0.26399 0.22923 0.0
N616 N 0.42045 0.254 0.16697 0.0
N617 N 0.39432 0.23893 0.21392 0.0
H618 H 0.20939 0.49155 0.38019 0.0
H619 H 0.31635 0.33027 0.33307 0.0
H620 H 0.3269 0.46806 0.40169 0.0
H621 H 0.27785 0.42793 0.30413 0.0
H622 H 0.2927 0.35585 0.36014 0.0
H623 H 0.20739 0.44322 0.35411 0.0
C624 C 0.23357 0.47488 0.37963 0.0
C625 C 0.26845 0.48363 0.39298 0.0
C626 C 0.28875 0.371 0.34781 0.0
C627 C 0.26605 0.42858 0.36357 0.0
C628 C 0.30254 0.35677 0.33235 0.0
C629 C 0.3005 0.37805 0.31628 0.0
C630 C 0.27186 0.40608 0.34724 0.0
C631 C 0.28036 0.41071 0.31618 0.0
C632 C 0.23271 0.44782 0.36475 0.0
C633 C 0.29962 0.4621 0.39159 0.0
N634 N 0.2673 0.42419 0.33147 0.0
N635 N 0.29775 0.43558 0.37712 0.0
H636 H 0.92432 0.20655 0.57087 0.0
H637 H 0.92236 0.25457 0.46845 0.0
H638 H 0.79026 0.18137 0.5432 0.0
H639 H 1.05004 0.26074 0.49525 0.0
H640 H 0.87175 0.22284 0.49525 0.0
H641 H 0.96888 0.22023 0.54297 0.0
C642 C 0.90398 0.2031 0.5589 0.0
C643 C 0.85361 0.19324 0.55939 0.0
C644 C 0.91073 0.23079 0.49524 0.0
C645 C 0.90476 0.20981 0.52735 0.0
C646 C 0.93967 0.2488 0.4799 0.0
C647 C 0.99075 0.26067 0.47957 0.0
C648 C 0.93299 0.2248 0.51043 0.0
C649 C 1.01118 0.25305 0.49495 0.0
C650 C 0.92952 0.21108 0.54295 0.0
C651 C 0.82909 0.18894 0.54345 0.0
N652 N 0.98236 0.23589 0.50974 0.0
N653 N 0.85513 0.19797 0.52809 0.0
H654 H 0.81547 0.89962 0.65217 0.0
H655 H 0.60852 0.84062 0.72736 0.0
H656 H 0.73322 0.97972 0.65939 0.0
H657 H 0.69912 0.76783 0.72613 0.0
H658 H 0.65502 0.89121 0.70217 0.0
H659 H 0.77345 0.84914 0.67854 0.0
C660 C 0.78852 0.90644 0.65927 0.0
C661 C 0.77813 0.94419 0.65368 0.0
C662 C 0.66512 0.8644 0.70736 0.0
C663 C 0.73033 0.88707 0.68372 0.0
C664 C 0.63845 0.83537 0.72179 0.0
C665 C 0.64972 0.79967 0.72878 0.0
C666 C 0.70336 0.85769 0.69963 0.0
C667 C 0.68929 0.79498 0.72111 0.0
C668 C 0.76487 0.87793 0.67434 0.0
C669 C 0.74309 0.95167 0.66337 0.0
N670 N 0.71455 0.82346 0.7068 0.0
N671 N 0.72056 0.92344 0.67785 0.0
H672 H 0.44374 0.49371 0.90108 0.0
H673 H 0.67266 0.72607 0.8511 0.0
H674 H 0.55025 0.6306 0.92764 0.0
H675 H 0.52662 0.62981 0.82753 0.0
H676 H 0.63889 0.68042 0.87893 0.0
H677 H 0.4854 0.53281 0.87321 0.0
C678 C 0.47604 0.5318 0.90103 0.0
C679 C 0.49323 0.55938 0.91653 0.0
C680 C 0.61456 0.66939 0.86758 0.0
C681 C 0.54115 0.60356 0.88504 0.0
C682 C 0.63371 0.69524 0.8518 0.0
C683 C 0.60201 0.68203 0.83721 0.0
C684 C 0.56398 0.62958 0.86847 0.0
C685 C 0.55194 0.64168 0.83862 0.0
C686 C 0.49965 0.55401 0.8852 0.0
C687 C 0.53537 0.60848 0.91586 0.0
N688 N 0.53444 0.61674 0.854 0.0
N689 N 0.55802 0.62912 0.90033 0.0
H690 H 1.00164 0.39914 0.06822 0.0
H691 H 1.00432 0.62254 0.01339 0.0
H692 H 0.96366 0.50588 0.09066 0.0
H693 H 0.96824 0.47969 -0.00984 0.0
H694 H 1.00789 0.58866 0.04208 0.0
H695 H 1.00783 0.43722 0.03931 0.0
C696 C 0.99489 0.43067 0.06704 0.0
C697 C 0.98158 0.44915 0.08169 0.0
C698 C 0.99929 0.56491 0.03065 0.0
C699 C 0.98931 0.4929 0.04909 0.0
C700 C 0.99732 0.58417 0.01435 0.0
C701 C 0.98541 0.55358 -0.00049 0.0
C702 C 0.99018 0.5152 0.03198 0.0
C703 C 0.97685 0.5042 0.00137 0.0
C704 C 0.99828 0.45218 0.05063 0.0
C705 C 0.97332 0.49011 0.0796 0.0
N706 N 0.97952 0.48648 0.01735 0.0
N707 N 0.97745 0.51076 0.06357 0.0
H708 H 0.50254 0.87147 0.15239 0.0
H709 H 0.69742 1.04688 0.22496 0.0
H710 H 0.52627 1.01814 0.1672 0.0
H711 H 0.65366 0.89019 0.21741 0.0
H712 H 0.65176 1.04397 0.1985 0.0
H713 H 0.57138 0.88389 0.17174 0.0
C714 C 0.52216 0.90626 0.15975 0.0
C715 C 0.50817 0.94352 0.15844 0.0
C716 C 0.65289 1.01047 0.20246 0.0
C717 C 0.58737 0.95821 0.18034 0.0
C718 C 0.6792 1.01217 0.2175 0.0
C719 C 0.67798 0.96824 0.22363 0.0
C720 C 0.62512 0.96451 0.1936 0.0
C721 C 0.65476 0.92466 0.2133 0.0
C722 C 0.56165 0.91342 0.17069 0.0
C723 C 0.53526 0.98808 0.16808 0.0
N724 N 0.62822 0.92355 0.19893 0.0
N725 N 0.57349 0.99409 0.1787 0.0
H726 H 0.52225 0.45605 0.36148 0.0
H727 H 0.77893 0.53572 0.412 0.0
H728 H 0.59419 0.36472 0.36249 0.0
H729 H 0.68805 0.60639 0.42081 0.0
H730 H 0.71139 0.47269 0.39366 0.0
H731 H 0.57977 0.50916 0.38435 0.0
C732 C 0.54935 0.44646 0.36681 0.0
C733 C 0.55404 0.40646 0.35988 0.0
C734 C 0.70626 0.50199 0.39963 0.0
C735 C 0.62075 0.46775 0.38567 0.0
C736 C 0.74507 0.53834 0.40991 0.0
C737 C 0.73928 0.57659 0.41781 0.0
C738 C 0.66162 0.50422 0.39714 0.0
C739 C 0.69426 0.57773 0.41488 0.0
C740 C 0.58241 0.47699 0.37979 0.0
C741 C 0.58954 0.39547 0.36735 0.0
N742 N 0.65722 0.54215 0.40472 0.0
N743 N 0.62228 0.42661 0.37961 0.0
H744 H 0.25367 0.63479 0.58941 0.0
H745 H 0.24332 0.6501 0.4871 0.0
H746 H 0.20514 0.73038 0.5645 0.0
H747 H 0.21077 0.51155 0.51323 0.0
H748 H 0.23886 0.6855 0.51525 0.0
H749 H 0.24774 0.59407 0.56137 0.0
C750 C 0.24191 0.64728 0.57799 0.0
C751 C 0.23028 0.68623 0.57913 0.0
C752 C 0.23238 0.64726 0.51478 0.0
C753 C 0.22366 0.64007 0.5472 0.0
C754 C 0.23531 0.6272 0.4988 0.0
C755 C 0.22782 0.57806 0.49797 0.0
C756 C 0.22297 0.61831 0.53001 0.0
C757 C 0.21687 0.54965 0.51341 0.0
C758 C 0.23814 0.62376 0.56209 0.0
C759 C 0.21454 0.70054 0.56407 0.0
N760 N 0.2154 0.57049 0.52891 0.0
N761 N 0.21227 0.6778 0.54859 0.0
H762 H 0.55232 0.11078 0.74002 0.0
H763 H 0.75054 0.27203 0.66557 0.0
H764 H 0.65922 0.27029 0.74546 0.0
H765 H 0.70025 0.11377 0.67343 0.0
H766 H 0.70675 0.27138 0.69257 0.0
H767 H 0.59596 0.11038 0.71298 0.0
C768 C 0.58476 0.1457 0.73545 0.0
C769 C 0.60233 0.19067 0.74488 0.0
C770 C 0.70549 0.23689 0.68839 0.0
C771 C 0.65173 0.19047 0.71419 0.0
C772 C 0.73022 0.23716 0.673 0.0
C773 C 0.72897 0.1929 0.66738 0.0
C774 C 0.67863 0.19182 0.69799 0.0
C775 C 0.70231 0.14874 0.67745 0.0
C776 C 0.60973 0.14535 0.72016 0.0
C777 C 0.64469 0.23483 0.73855 0.0
N778 N 0.67773 0.14917 0.69228 0.0
N779 N 0.66783 0.23371 0.72349 0.0
H780 H 0.34216 0.19975 0.09256 0.0
H781 H 0.36216 0.1633 -0.00761 0.0
H782 H 0.41106 0.113 0.0749 0.0
H783 H 0.41228 0.3126 0.01311 0.0
H784 H 0.36223 0.13348 0.02213 0.0
H785 H 0.34914 0.23171 0.06279 0.0
C786 C 0.35906 0.18756 0.08258 0.0
C787 C 0.376 0.15339 0.08645 0.0
C788 C 0.37318 0.17273 0.02 0.0
C789 C 0.38188 0.18841 0.05223 0.0
C790 C 0.37353 0.18999 0.00305 0.0
C791 C 0.38668 0.24059 9e-05 0.0
C792 C 0.3848 0.20591 0.0341 0.0
C793 C 0.40021 0.27293 0.01464 0.0
C794 C 0.3626 0.2056 0.06557 0.0
C795 C 0.39624 0.13817 0.07264 0.0
N796 N 0.39821 0.25487 0.03102 0.0
N797 N 0.3981 0.15535 0.05611 0.0
H798 H 0.37603 0.40399 0.23809 0.0
H799 H 0.12628 0.28129 0.17889 0.0
H800 H 0.22508 0.30601 0.25866 0.0
H801 H 0.27069 0.40571 0.16168 0.0
H802 H 0.16344 0.28359 0.20734 0.0
H803 H 0.33973 0.39831 0.20916 0.0
C804 C 0.33525 0.38106 0.23652 0.0
C805 C 0.30356 0.35552 0.25088 0.0
C806 C 0.187 0.31032 0.19732 0.0
C807 C 0.26169 0.34905 0.21773 0.0
C808 C 0.16575 0.30922 0.18106 0.0
C809 C 0.19517 0.34363 0.1678 0.0
C810 C 0.23826 0.34581 0.2004 0.0
C811 C 0.24653 0.37806 0.17136 0.0
C812 C 0.31453 0.37808 0.22 0.0
C813 C 0.25092 0.32684 0.24805 0.0
N814 N 0.26636 0.37831 0.1873 0.0
N815 N 0.23168 0.3243 0.23181 0.0
H816 H 1.05342 0.33145 0.40017 0.0
H817 H 0.83178 0.11025 0.34754 0.0
H818 H 0.96014 0.18288 0.42293 0.0
H819 H 0.97177 0.21877 0.32182 0.0
H820 H 0.87152 0.1426 0.37569 0.0
H821 H 1.01734 0.29705 0.37163 0.0
C822 C 1.02577 0.29157 0.39924 0.0
C823 C 1.01008 0.26011 0.41414 0.0
C824 C 0.89349 0.15908 0.36385 0.0
C825 C 0.96749 0.22115 0.38147 0.0
C826 C 0.87104 0.14041 0.3477 0.0
C827 C 0.8985 0.16128 0.33208 0.0
C828 C 0.94337 0.19978 0.36451 0.0
C829 C 0.94871 0.20174 0.33339 0.0
C830 C 1.00503 0.27213 0.38291 0.0
C831 C 0.97289 0.20898 0.41199 0.0
N832 N 0.96942 0.21989 0.34932 0.0
N833 N 0.95262 0.19122 0.39601 0.0
H834 H 0.91139 0.91633 0.50716 0.0
H835 H 0.74864 0.91104 0.59004 0.0
H836 H 0.75145 0.86616 0.50394 0.0
H837 H 0.91008 1.01383 0.58566 0.0
H838 H 0.74862 0.88341 0.55988 0.0
H839 H 0.91163 0.94382 0.53727 0.0
C840 C 0.87649 0.91175 0.5128 0.0
C841 C 0.83143 0.88949 0.50316 0.0
C842 C 0.78404 0.9118 0.56558 0.0
C843 C 0.83102 0.91939 0.53756 0.0
C844 C 0.78416 0.92706 0.58279 0.0
C845 C 0.82949 0.96449 0.59026 0.0
C846 C 0.82971 0.9337 0.55594 0.0
C847 C 0.87441 0.98481 0.5803 0.0
C848 C 0.87657 0.92722 0.52993 0.0
C849 C 0.78701 0.88378 0.51098 0.0
N850 N 0.87344 0.96905 0.56365 0.0
N851 N 0.78776 0.89823 0.52785 0.0
H852 H 0.98871 0.81731 0.75814 0.0
H853 H 0.93237 0.71927 0.6595 0.0
H854 H 0.83707 0.73233 0.73746 0.0
H855 H 1.07535 0.84663 0.67551 0.0
H856 H 0.89809 0.71603 0.68877 0.0
H857 H 1.02321 0.81919 0.7288 0.0
C858 C 0.96278 0.79867 0.74745 0.0
C859 C 0.91007 0.77491 0.75016 0.0
C860 C 0.93695 0.74471 0.68583 0.0
C861 C 0.94896 0.77684 0.71671 0.0
C862 C 0.95649 0.7469 0.66905 0.0
C863 C 1.00703 0.78318 0.66492 0.0
C864 C 0.96824 0.77863 0.69869 0.0
C865 C 1.03655 0.81728 0.67809 0.0
C866 C 0.98239 0.80007 0.73072 0.0
C867 C 0.878 0.75151 0.73586 0.0
N868 N 1.01686 0.81396 0.69437 0.0
N869 N 0.89792 0.75298 0.71977 0.0
H870 H 0.15454 0.79514 0.9001 0.0
H871 H 0.35696 1.01233 0.83977 0.0
H872 H 0.25082 0.94555 0.92042 0.0
H873 H 0.20599 0.90888 0.82081 0.0
H874 H 0.3286 0.97968 0.86926 0.0
H875 H 0.18346 0.82778 0.87062 0.0
C876 C 0.18148 0.83507 0.89845 0.0
C877 C 0.19947 0.86775 0.91291 0.0
C878 C 0.30186 0.96432 0.85859 0.0
C879 C 0.23414 0.90453 0.87913 0.0
C880 C 0.31773 0.98312 0.84172 0.0
C881 C 0.28362 0.96408 0.82764 0.0
C882 C 0.25198 0.92511 0.86141 0.0
C883 C 0.23389 0.9246 0.8311 0.0
C884 C 0.19812 0.85343 0.88159 0.0
C885 C 0.23604 0.9187 0.90982 0.0
N886 N 0.21963 0.90626 0.84764 0.0
N887 N 0.25231 0.9355 0.89325 0.0
H888 H 0.79649 0.48122 0.95096 0.0
H889 H 0.62326 0.60787 -0.03206 0.0
H890 H 0.85467 0.64192 0.95466 0.0
H891 H 0.5607 0.44618 -0.03372 0.0
H892 H 0.70773 0.61972 -0.037 0.0
H893 H 0.7104 0.46664 0.95642 0.0
C894 C 0.79135 0.51351 0.95294 0.0
C895 C 0.83335 0.563 0.95234 0.0
C896 C 0.67572 0.58155 -0.03627 0.0
C897 C 0.73429 0.54635 0.95859 0.0
C898 C 0.62712 0.57464 -0.03342 0.0
C899 C 0.58428 0.52581 -0.03241 0.0
C900 C 0.68233 0.53944 -0.0382 0.0
C901 C 0.59239 0.48452 -0.03435 0.0
C902 C 0.74202 0.50506 0.95606 0.0
C903 C 0.82385 0.60311 0.955 0.0
N904 N 0.64033 0.49226 -0.03716 0.0
N905 N 0.77563 0.59391 0.95797 0.0
H906 H 0.35109 0.75532 0.10935 0.0
H907 H 1.05725 0.59062 0.13667 0.0
H908 H 0.26235 0.8193 0.12929 0.0
H909 H 0.15235 0.52387 0.13001 0.0
H910 H 0.13133 0.67411 0.13207 0.0
H911 H 0.27866 0.67035 0.11491 0.0
C912 C 0.31649 0.75166 0.11489 0.0
C913 C 0.3131 0.79492 0.11883 0.0
C914 C 0.13622 0.64134 0.13166 0.0
C915 C 0.22969 0.69733 0.12513 0.0
C916 C 1.09375 0.5934 0.13426 0.0
C917 C 1.0983 0.54979 0.13376 0.0
C918 C 0.18404 0.64629 0.1283 0.0
C919 C 0.14693 0.55629 0.13059 0.0
C920 C 0.27517 0.70302 0.11811 0.0
C921 C 0.26711 0.78741 0.12605 0.0
N922 N 0.1878 0.60353 0.12788 0.0
N923 N 0.22737 0.73981 0.12886 0.0
H924 H 0.60331 0.31332 0.31659 0.0
H925 H 0.62847 0.09404 0.26741 0.0
H926 H 0.5855 0.28905 0.26091 0.0
H927 H 0.64676 0.11858 0.32306 0.0
H928 H 0.6145 0.16599 0.26475 0.0
H929 H 0.62104 0.24378 0.31907 0.0
C930 C 0.60328 0.29361 0.30482 0.0
C931 C 0.59274 0.30749 0.28848 0.0
C932 C 0.62163 0.15578 0.27756 0.0
C933 C 0.6131 0.22684 0.29132 0.0
C934 C 0.62964 0.11449 0.27912 0.0
C935 C 0.6388 0.09973 0.29553 0.0
C936 C 0.62259 0.18301 0.2925 0.0
C937 C 0.63988 0.12824 0.31014 0.0
C938 C 0.61342 0.25367 0.30629 0.0
C939 C 0.59338 0.28005 0.27379 0.0
N940 N 0.6318 0.16823 0.30828 0.0
N941 N 0.60322 0.24119 0.27557 0.0
H942 H 0.35888 0.48194 0.45129 0.0
H943 H 0.65246 0.67679 0.47308 0.0
H944 H 0.41919 0.64311 0.45436 0.0
H945 H 0.59237 0.51897 0.46119 0.0
H946 H 0.56736 0.6658 0.46816 0.0
H947 H 0.44377 0.49518 0.45685 0.0
C948 C 0.38987 0.52018 0.45318 0.0
C949 C 0.38148 0.56141 0.45231 0.0
C950 C 0.57294 0.63364 0.46665 0.0
C951 C 0.47971 0.57698 0.45878 0.0
C952 C 0.62151 0.63988 0.4695 0.0
C953 C 0.62987 0.59879 0.46758 0.0
C954 C 0.53225 0.58588 0.46197 0.0
C955 C 0.58813 0.55188 0.46284 0.0
C956 C 0.43858 0.52775 0.45633 0.0
C957 C 0.42362 0.61009 0.45485 0.0
N958 N 0.54149 0.54678 0.46027 0.0
N959 N 0.47073 0.6165 0.45799 0.0
H960 H 0.85306 0.3723 0.61056 0.0
H961 H 0.14976 0.54665 0.63056 0.0
H962 H 0.94949 0.31386 0.62714 0.0
H963 H 1.04859 0.60731 0.62739 0.0
H964 H 1.07733 0.4617 0.6272 0.0
H965 H 0.92411 0.45851 0.61469 0.0
C966 C 0.88907 0.37744 0.61508 0.0
C967 C 0.89505 0.33539 0.61848 0.0
C968 C 1.07078 0.49346 0.62727 0.0
C969 C 0.9769 0.43445 0.62312 0.0
C970 C 0.11228 0.54223 0.62914 0.0
C971 C 0.10549 0.58454 0.62929 0.0
C972 C 1.02169 0.48638 0.62533 0.0
C973 C 1.05573 0.57594 0.62741 0.0
C974 C 0.92962 0.42679 0.61748 0.0
C975 C 0.94277 0.3448 0.62438 0.0
N976 N 1.01581 0.52792 0.62543 0.0
N977 N 0.98172 0.39311 0.62639 0.0
H978 H 0.52012 0.79923 0.78973 0.0
H979 H 0.64734 0.10167 0.79245 0.0
H980 H 0.68168 0.90264 0.78574 0.0
H981 H 0.48625 1.00008 0.79924 0.0
H982 H 0.6598 1.02903 0.78948 0.0
H983 H 0.50646 0.87141 0.7928 0.0
C984 C 0.55283 0.83704 0.78952 0.0
C985 C 0.60226 0.84453 0.78748 0.0
C986 C 0.62166 1.02244 0.79162 0.0
C987 C 0.58663 0.92788 0.79096 0.0
C988 C 0.61442 1.06406 0.79331 0.0
C989 C 0.56556 1.05727 0.79613 0.0
C990 C 0.5798 0.97311 0.7927 0.0
C991 C 0.5246 1.00734 0.7971 0.0
C992 C 0.54491 0.87835 0.79128 0.0
C993 C 0.64291 0.89469 0.7873 0.0
N994 N 0.53263 0.9673 0.79539 0.0
N995 N 0.63419 0.93421 0.78899 0.0
H996 H 0.70139 0.60865 0.78563 0.0
H997 H 0.5023 0.31009 0.78699 0.0
H998 H 0.53845 0.54396 0.78744 0.0
H999 H 0.65965 0.37139 0.8011 0.0
H1000 H 0.51732 0.39614 0.78365 0.0
H1001 H 0.68932 0.5228 0.78812 0.0
C1002 C 0.66317 0.57655 0.7865 0.0
C1003 C 0.62093 0.58377 0.78635 0.0
C1004 C 0.54864 0.39084 0.78746 0.0
C1005 C 0.60684 0.48543 0.78902 0.0
C1006 C 0.54012 0.34155 0.78931 0.0
C1007 C 0.57966 0.33311 0.7944 0.0
C1008 C 0.59726 0.43247 0.79051 0.0
C1009 C 0.62786 0.37583 0.79725 0.0
C1010 C 0.65631 0.52757 0.78797 0.0
C1011 C 0.57228 0.54058 0.78757 0.0
N1012 N 0.63532 0.42352 0.79523 0.0
N1013 N 0.56664 0.49357 0.78876 0.0
H1014 H 1.06884 0.49945 0.94728 0.0
H1015 H 0.3686 0.62525 -0.03571 0.0
H1016 H 0.16903 0.66112 0.94881 0.0
H1017 H 0.26571 0.46487 -0.04088 0.0
H1018 H 0.29752 0.64015 -0.04106 0.0
H1019 H 0.14124 0.48745 0.9519 0.0
C1020 C 0.10612 0.53266 0.94856 0.0
C1021 C 0.11246 0.58152 0.94762 0.0
C1022 C 0.29055 0.60173 -0.04106 0.0
C1023 C 0.19664 0.56769 0.95303 0.0
C1024 C 0.33118 0.5931 -0.038 0.0
C1025 C 0.32345 0.5436 -0.03783 0.0
C1026 C 0.24151 0.56062 0.95607 0.0
C1027 C 0.27388 0.50367 -0.04088 0.0
C1028 C 0.14769 0.52565 0.95121 0.0
C1029 C 0.16211 0.62276 0.94941 0.0
N1030 N 0.23507 0.51305 0.95625 0.0
N1031 N 0.2022 0.61493 0.95205 0.0
H1032 H 0.8456 0.22864 0.13025 0.0
H1033 H 0.54933 0.12895 0.11157 0.0
H1034 H 0.78383 0.32845 0.12629 0.0
H1035 H 0.61397 1.03185 0.11653 0.0
H1036 H 0.63413 0.20261 0.11659 0.0
H1037 H 0.76085 0.15662 0.12493 0.0
C1038 C 0.81434 0.23559 0.12824 0.0
C1039 C 0.82236 0.28509 0.12874 0.0
C1040 C 0.62971 0.16515 0.11655 0.0
C1041 C 0.72422 0.20197 0.12259 0.0
C1042 C 0.58121 0.12302 0.11366 0.0
C1043 C 0.57415 0.07384 0.11356 0.0
C1044 C 0.67169 0.15827 0.11937 0.0
C1045 C 0.61719 0.0688 0.11642 0.0
C1046 C 0.76571 0.19425 0.1252 0.0
C1047 C 0.77984 0.29119 0.12604 0.0
N1048 N 0.66373 0.11019 0.11919 0.0
N1049 N 0.73285 0.25032 0.1231 0.0
H1050 H 0.60324 0.81308 0.26844 0.0
H1051 H 0.58222 0.57061 0.31788 0.0
H1052 H 0.62449 0.80837 0.32399 0.0
H1053 H 0.56347 0.57696 0.26224 0.0
H1054 H 0.59611 0.65648 0.32047 0.0
H1055 H 0.58677 0.72636 0.26613 0.0
C1056 C 0.60427 0.79387 0.28021 0.0
C1057 C 0.61535 0.81857 0.29647 0.0
C1058 C 0.58892 0.63915 0.30769 0.0
C1059 C 0.59651 0.71827 0.29383 0.0
C1060 C 0.58095 0.5899 0.30617 0.0
C1061 C 0.57158 0.56602 0.28978 0.0
C1062 C 0.58762 0.66528 0.29273 0.0
C1063 C 0.5705 0.59346 0.27515 0.0
C1064 C 0.59489 0.74413 0.27885 0.0
C1065 C 0.6161 0.79118 0.31118 0.0
N1066 N 0.57841 0.64137 0.27697 0.0
N1067 N 0.60694 0.74277 0.3095 0.0
H1068 H 1.04962 0.4694 0.44522 0.0
H1069 H 0.94966 0.66366 0.46542 0.0
H1070 H 0.14695 0.63091 0.44989 0.0
H1071 H 0.84869 0.50306 0.45976 0.0
H1072 H 1.02196 0.65141 0.45977 0.0
H1073 H 0.97546 0.47986 0.45047 0.0
C1074 C 1.0555 0.50703 0.44729 0.0
C1075 C 0.10486 0.5493 0.44705 0.0
C1076 C 0.98403 0.61875 0.45973 0.0
C1077 C 1.01993 0.56155 0.45314 0.0
C1078 C 0.94255 0.62574 0.46297 0.0
C1079 C 0.89271 0.58438 0.46308 0.0
C1080 C 0.97606 0.56994 0.45656 0.0
C1081 C 0.8863 0.53615 0.45981 0.0
C1082 C 1.01308 0.51298 0.4503 0.0
C1083 C 0.10986 0.59711 0.44989 0.0
N1084 N 0.92737 0.53028 0.45671 0.0
N1085 N 1.06817 0.60184 0.45281 0.0
H1086 H 0.35899 0.90589 0.62592 0.0
H1087 H 0.65816 1.00182 0.61684 0.0
H1088 H 0.42024 0.80549 0.6291 0.0
H1089 H 0.5953 0.10108 0.61745 0.0
H1090 H 0.57188 0.92919 0.62061 0.0
H1091 H 0.44529 0.97722 0.622 0.0
C1092 C 0.39047 0.89867 0.62575 0.0
C1093 C 0.38189 0.84925 0.62785 0.0
C1094 C 0.57701 0.96689 0.61992 0.0
C1095 C 0.48168 0.93147 0.62335 0.0
C1096 C 0.62635 1.00844 0.61775 0.0
C1097 C 0.63433 1.0579 0.61679 0.0
C1098 C 0.53507 0.97463 0.62109 0.0
C1099 C 0.59135 1.06386 0.6181 0.0
C1100 C 0.43995 0.9396 0.62354 0.0
C1101 C 0.42468 0.84273 0.62756 0.0
N1102 N 0.54391 1.02296 0.62014 0.0
N1103 N 0.47248 0.88318 0.62535 0.0
loop_
_geom_bond_atom_site_label_1
_geom_bond_atom_site_label_2
_geom_bond_distance
_geom_bond_site_symmetry_2
_ccdc_geom_bond_type
O0 Tb1 2.292 . S
O0 C3 1.255 . S
Tb1 O0 2.292 . S
Tb1 O17 2.326 . S
Tb1 O19 2.500 . S
Tb1 O20 2.473 . S
Tb1 O23 2.324 . S
Eu2 O6 2.292 . S
Eu2 C7 2.864 . S
Eu2 O18 2.324 1_556 S
Eu2 O22 2.326 1_556 S
Eu2 O24 2.500 . S
Eu2 O25 2.473 1_556 S
C3 O0 1.255 . S
C3 O4 1.247 . S
O4 C3 1.247 . S
C5 O17 1.242 . S
C5 O18 1.258 . S
O6 Eu2 2.292 . S
O6 C8 1.255 . S
C7 Eu2 2.864 . S
C7 C11 1.488 1_556 S
C7 O24 1.317 . S
C7 O25 1.229 1_556 S
C8 O6 1.255 . S
C8 O9 1.247 . S
O9 C8 1.247 . S
C10 O22 1.242 . S
C10 O23 1.258 . S
C11 C7 1.488 1_554 S
C11 C12 1.379 . S
C11 C16 1.392 1_554 S
C12 C11 1.379 . S
C12 C13 1.404 . S
C12 H26 0.929 . S
C13 C12 1.404 . S
C13 C14 1.389 . S
C14 C13 1.389 . S
C14 C15 1.353 1_554 S
C14 H27 0.931 . S
C15 C14 1.353 1_556 S
C15 C16 1.405 . S
C16 C11 1.392 1_556 S
C16 C15 1.405 . S
C16 H28 0.929 . S
O17 Tb1 2.326 . S
O17 C5 1.242 . S
O18 Eu2 2.324 1_554 S
O18 C5 1.258 . S
O19 Tb1 2.500 . S
O19 C21 1.273 . S
O20 Tb1 2.473 . S
O20 C21 1.257 . S
C21 O19 1.273 . S
C21 O20 1.257 . S
O22 Eu2 2.326 1_554 S
O22 C10 1.242 . S
O23 Tb1 2.324 . S
O23 C10 1.258 . S
O24 Eu2 2.500 . S
O24 C7 1.317 . S
O25 Eu2 2.473 1_554 S
O25 C7 1.229 1_554 S
H26 C12 0.929 . S
H27 C14 0.931 . S
H28 C16 0.929 . S
O29 Tb30 2.292 . S
O29 C32 1.255 . S
Tb30 O29 2.292 . S
Tb30 O46 2.326 . S
Tb30 O48 2.500 . S
Tb30 O49 2.473 . S
Tb30 O52 2.324 . S
Eu31 O35 2.292 . S
Eu31 C36 2.852 . S
Eu31 O47 2.324 . S
Eu31 O51 2.326 . S
Eu31 O53 2.500 . S
Eu31 O54 2.473 . S
C32 O29 1.255 . S
C32 O33 1.247 . S
O33 C32 1.247 . S
C34 O46 1.242 . S
C34 O47 1.258 . S
O35 Eu31 2.292 . S
O35 C37 1.255 . S
C36 Eu31 2.852 . S
C36 C40 1.503 1_655 S
C36 O53 1.273 . S
C36 O54 1.257 . S
C37 O35 1.255 . S
C37 O38 1.247 . S
O38 C37 1.247 . S
C39 O51 1.242 . S
C39 O52 1.258 . S
C40 C36 1.503 1_455 S
C40 C41 1.379 . S
C40 C45 1.392 . S
C41 C40 1.379 . S
C41 C42 1.404 . S
C41 H55 0.929 1_455 S
C42 C41 1.404 . S
C42 C43 1.389 . S
C43 C42 1.389 . S
C43 C44 1.399 . S
C43 H56 0.931 . S
C44 C43 1.399 . S
C44 C45 1.390 . S
C45 C40 1.392 . S
C45 C44 1.390 . S
C45 H57 0.929 . S
O46 Tb30 2.326 . S
O46 C34 1.242 . S
O47 Eu31 2.324 . S
O47 C34 1.258 . S
O48 Tb30 2.500 . S
O48 C50 1.273 . S
O49 Tb30 2.473 . S
O49 C50 1.257 . S
C50 O48 1.273 . S
C50 O49 1.257 . S
O51 Eu31 2.326 . S
O51 C39 1.242 . S
O52 Tb30 2.324 . S
O52 C39 1.258 . S
O53 Eu31 2.500 . S
O53 C36 1.273 . S
O54 Eu31 2.473 . S
O54 C36 1.257 . S
H55 C41 0.929 1_655 S
H56 C43 0.931 . S
H57 C45 0.929 . S
O58 Tb59 2.292 . S
O58 C61 1.255 . S
Tb59 O58 2.292 . S
Tb59 O75 2.326 . S
Tb59 O77 2.500 . S
Tb59 O78 2.473 . S
Tb59 O81 2.324 . S
Eu60 O64 2.292 . S
Eu60 C65 2.852 . S
Eu60 O76 2.324 . S
Eu60 O80 2.326 . S
Eu60 O82 2.500 . S
Eu60 O83 2.473 . S
C61 O58 1.255 . S
C61 O62 1.247 . S
O62 C61 1.247 . S
C63 O75 1.242 . S
C63 O76 1.258 . S
O64 Eu60 2.292 . S
O64 C66 1.255 . S
C65 Eu60 2.852 . S
C65 C69 1.503 1_565 S
C65 O82 1.273 . S
C65 O83 1.257 . S
C66 O64 1.255 . S
C66 O67 1.247 . S
O67 C66 1.247 . S
C68 O80 1.242 . S
C68 O81 1.258 . S
C69 C65 1.503 1_545 S
C69 C70 1.379 . S
C69 C74 1.392 . S
C70 C69 1.379 . S
C70 C71 1.404 . S
C70 H84 0.929 1_545 S
C71 C70 1.404 . S
C71 C72 1.389 . S
C72 C71 1.389 . S
C72 C73 1.399 . S
C72 H85 0.931 . S
C73 C72 1.399 . S
C73 C74 1.390 . S
C74 C69 1.392 . S
C74 C73 1.390 . S
C74 H86 0.929 . S
O75 Tb59 2.326 . S
O75 C63 1.242 . S
O76 Eu60 2.324 . S
O76 C63 1.258 . S
O77 Tb59 2.500 . S
O77 C79 1.273 . S
O78 Tb59 2.473 . S
O78 C79 1.257 . S
C79 O77 1.273 . S
C79 O78 1.257 . S
O80 Eu60 2.326 . S
O80 C68 1.242 . S
O81 Tb59 2.324 . S
O81 C68 1.258 . S
O82 Eu60 2.500 . S
O82 C65 1.273 . S
O83 Eu60 2.473 . S
O83 C65 1.257 . S
H84 C70 0.929 1_565 S
H85 C72 0.931 . S
H86 C74 0.929 . S
O87 Tb88 2.292 . S
O87 C90 1.255 . S
Tb88 O87 2.292 . S
Tb88 O104 2.326 . S
Tb88 O106 2.500 . S
Tb88 O107 2.473 . S
Tb88 O110 2.324 . S
Eu89 O93 2.292 . S
Eu89 C94 2.852 . S
Eu89 O105 2.324 . S
Eu89 O109 2.326 . S
Eu89 O111 2.500 . S
Eu89 O112 2.473 . S
C90 O87 1.255 . S
C90 O91 1.247 . S
O91 C90 1.247 . S
C92 O104 1.242 . S
C92 O105 1.258 . S
O93 Eu89 2.292 . S
O93 C95 1.255 . S
C94 Eu89 2.852 . S
C94 C98 1.503 . S
C94 O111 1.273 . S
C94 O112 1.257 . S
C95 O93 1.255 . S
C95 O96 1.247 . S
O96 C95 1.247 . S
C97 O109 1.242 . S
C97 O110 1.258 . S
C98 C94 1.503 . S
C98 C99 1.379 . S
C98 C103 1.392 . S
C99 C98 1.379 . S
C99 C100 1.404 . S
C99 H113 0.929 . S
C100 C99 1.404 . S
C100 C101 1.389 . S
C101 C100 1.389 . S
C101 C102 1.399 . S
C101 H114 0.931 . S
C102 C101 1.399 . S
C102 C103 1.390 . S
C103 C98 1.392 . S
C103 C102 1.390 . S
C103 H115 0.929 . S
O104 Tb88 2.326 . S
O104 C92 1.242 . S
O105 Eu89 2.324 . S
O105 C92 1.258 . S
O106 Tb88 2.500 . S
O106 C108 1.273 . S
O107 Tb88 2.473 . S
O107 C108 1.257 . S
C108 O106 1.273 . S
C108 O107 1.257 . S
O109 Eu89 2.326 . S
O109 C97 1.242 . S
O110 Tb88 2.324 . S
O110 C97 1.258 . S
O111 Eu89 2.500 . S
O111 C94 1.273 . S
O112 Eu89 2.473 . S
O112 C94 1.257 . S
H113 C99 0.929 . S
H114 C101 0.931 . S
H115 C103 0.929 . S
O116 Tb117 2.292 . S
O116 C119 1.255 . S
Tb117 O116 2.292 . S
Tb117 O133 2.326 . S
Tb117 O135 2.500 . S
Tb117 O136 2.473 . S
Tb117 O139 2.324 . S
Eu118 O122 2.292 . S
Eu118 C123 2.852 . S
Eu118 O134 2.324 . S
Eu118 O138 2.326 . S
Eu118 O140 2.500 . S
Eu118 O141 2.473 . S
C119 O116 1.255 . S
C119 O120 1.247 . S
O120 C119 1.247 . S
C121 O133 1.242 . S
C121 O134 1.258 . S
O122 Eu118 2.292 . S
O122 C124 1.255 . S
C123 Eu118 2.852 . S
C123 C127 1.503 1_455 S
C123 O140 1.273 . S
C123 O141 1.257 . S
C124 O122 1.255 . S
C124 O125 1.247 . S
O125 C124 1.247 . S
C126 O138 1.242 . S
C126 O139 1.258 . S
C127 C123 1.503 1_655 S
C127 C128 1.379 . S
C127 C132 1.392 . S
C128 C127 1.379 . S
C128 C129 1.404 . S
C128 H142 0.929 1_655 S
C129 C128 1.404 . S
C129 C130 1.389 . S
C130 C129 1.389 . S
C130 C131 1.399 . S
C130 H143 0.931 . S
C131 C130 1.399 . S
C131 C132 1.390 . S
C132 C127 1.392 . S
C132 C131 1.390 . S
C132 H144 0.929 . S
O133 Tb117 2.326 . S
O133 C121 1.242 . S
O134 Eu118 2.324 . S
O134 C121 1.258 . S
O135 Tb117 2.500 . S
O135 C137 1.273 . S
O136 Tb117 2.473 . S
O136 C137 1.257 . S
C137 O135 1.273 . S
C137 O136 1.257 . S
O138 Eu118 2.326 . S
O138 C126 1.242 . S
O139 Tb117 2.324 . S
O139 C126 1.258 . S
O140 Eu118 2.500 . S
O140 C123 1.273 . S
O141 Eu118 2.473 . S
O141 C123 1.257 . S
H142 C128 0.929 1_455 S
H143 C130 0.931 . S
H144 C132 0.929 . S
O145 Tb146 2.292 . S
O145 C148 1.255 . S
Tb146 O145 2.292 . S
Tb146 O162 2.326 . S
Tb146 O164 2.500 . S
Tb146 O165 2.473 . S
Tb146 O168 2.324 . S
Eu147 O151 2.292 . S
Eu147 C152 2.852 . S
Eu147 O163 2.324 . S
Eu147 O167 2.326 . S
Eu147 O169 2.500 . S
Eu147 O170 2.473 . S
C148 O145 1.255 . S
C148 O149 1.247 . S
O149 C148 1.247 . S
C150 O162 1.242 . S
C150 O163 1.258 . S
O151 Eu147 2.292 . S
O151 C153 1.255 . S
C152 Eu147 2.852 . S
C152 C156 1.503 1_545 S
C152 O169 1.273 . S
C152 O170 1.257 . S
C153 O151 1.255 . S
C153 O154 1.247 . S
O154 C153 1.247 . S
C155 O167 1.242 . S
C155 O168 1.258 . S
C156 C152 1.503 1_565 S
C156 C157 1.379 . S
C156 C161 1.392 . S
C157 C156 1.379 . S
C157 C158 1.404 . S
C157 H171 0.929 1_565 S
C158 C157 1.404 . S
C158 C159 1.389 . S
C159 C158 1.389 . S
C159 C160 1.399 . S
C159 H172 0.931 . S
C160 C159 1.399 . S
C160 C161 1.390 . S
C161 C156 1.392 . S
C161 C160 1.390 . S
C161 H173 0.929 . S
O162 Tb146 2.326 . S
O162 C150 1.242 . S
O163 Eu147 2.324 . S
O163 C150 1.258 . S
O164 Tb146 2.500 . S
O164 C166 1.273 . S
O165 Tb146 2.473 . S
O165 C166 1.257 . S
C166 O164 1.273 . S
C166 O165 1.257 . S
O167 Eu147 2.326 . S
O167 C155 1.242 . S
O168 Tb146 2.324 . S
O168 C155 1.258 . S
O169 Eu147 2.500 . S
O169 C152 1.273 . S
O170 Eu147 2.473 . S
O170 C152 1.257 . S
H171 C157 0.929 1_545 S
H172 C159 0.931 . S
H173 C161 0.929 . S
O174 Tb175 2.292 . S
O174 C177 1.255 . S
Tb175 O174 2.292 . S
Tb175 O191 2.326 . S
Tb175 O193 2.500 . S
Tb175 O194 2.473 . S
Tb175 O197 2.324 . S
Eu176 O180 2.292 . S
Eu176 C181 2.852 . S
Eu176 O192 2.324 . S
Eu176 O196 2.326 . S
Eu176 O198 2.500 . S
Eu176 O199 2.473 . S
C177 O174 1.255 . S
C177 O178 1.247 . S
O178 C177 1.247 . S
C179 O191 1.242 . S
C179 O192 1.258 . S
O180 Eu176 2.292 . S
O180 C182 1.255 . S
C181 Eu176 2.852 . S
C181 C185 1.503 . S
C181 O198 1.273 . S
C181 O199 1.257 . S
C182 O180 1.255 . S
C182 O183 1.247 . S
O183 C182 1.247 . S
C184 O196 1.242 . S
C184 O197 1.258 . S
C185 C181 1.503 . S
C185 C186 1.379 . S
C185 C190 1.392 . S
C186 C185 1.379 . S
C186 C187 1.404 . S
C186 H200 0.929 . S
C187 C186 1.404 . S
C187 C188 1.389 . S
C188 C187 1.389 . S
C188 C189 1.399 . S
C188 H201 0.931 . S
C189 C188 1.399 . S
C189 C190 1.390 . S
C190 C185 1.392 . S
C190 C189 1.390 . S
C190 H202 0.929 . S
O191 Tb175 2.326 . S
O191 C179 1.242 . S
O192 Eu176 2.324 . S
O192 C179 1.258 . S
O193 Tb175 2.500 . S
O193 C195 1.273 . S
O194 Tb175 2.473 . S
O194 C195 1.257 . S
C195 O193 1.273 . S
C195 O194 1.257 . S
O196 Eu176 2.326 . S
O196 C184 1.242 . S
O197 Tb175 2.324 . S
O197 C184 1.258 . S
O198 Eu176 2.500 . S
O198 C181 1.273 . S
O199 Eu176 2.473 . S
O199 C181 1.257 . S
H200 C186 0.929 . S
H201 C188 0.931 . S
H202 C190 0.929 . S
O203 Tb204 2.292 . S
O203 C206 1.255 . S
Tb204 O203 2.292 . S
Tb204 O220 2.326 . S
Tb204 O222 2.500 . S
Tb204 O223 2.473 . S
Tb204 O226 2.324 . S
Eu205 O209 2.292 . S
Eu205 C210 2.841 1_554 S
Eu205 O221 2.324 1_554 S
Eu205 O225 2.326 1_554 S
Eu205 O227 2.500 . S
Eu205 O228 2.473 1_554 S
C206 O203 1.255 . S
C206 O207 1.247 . S
O207 C206 1.247 . S
C208 O220 1.242 . S
C208 O221 1.258 . S
O209 Eu205 2.292 . S
O209 C211 1.255 . S
C210 Eu205 2.841 1_556 S
C210 C214 1.520 1_655 S
C210 O227 1.228 1_556 S
C210 O228 1.288 . S
C211 O209 1.255 . S
C211 O212 1.247 . S
O212 C211 1.247 . S
C213 O225 1.242 . S
C213 O226 1.258 . S
C214 C210 1.520 1_455 S
C214 C215 1.379 . S
C214 C219 1.392 1_556 S
C215 C214 1.379 . S
C215 C216 1.404 . S
C215 H229 0.929 1_455 S
C216 C215 1.404 . S
C216 C217 1.389 . S
C217 C216 1.389 . S
C217 C218 1.449 . S
C217 H230 0.931 . S
C218 C217 1.449 . S
C218 C219 1.376 1_556 S
C219 C214 1.392 1_554 S
C219 C218 1.376 1_554 S
C219 H231 0.929 . S
O220 Tb204 2.326 . S
O220 C208 1.242 . S
O221 Eu205 2.324 1_556 S
O221 C208 1.258 . S
O222 Tb204 2.500 . S
O222 C224 1.273 . S
O223 Tb204 2.473 . S
O223 C224 1.257 . S
C224 O222 1.273 . S
C224 O223 1.257 . S
O225 Eu205 2.326 1_556 S
O225 C213 1.242 . S
O226 Tb204 2.324 . S
O226 C213 1.258 . S
O227 Eu205 2.500 . S
O227 C210 1.228 1_554 S
O228 Eu205 2.473 1_556 S
O228 C210 1.288 . S
H229 C215 0.929 1_655 S
H230 C217 0.931 . S
H231 C219 0.929 . S
O232 Tb233 2.292 . S
O232 C235 1.255 . S
Tb233 O232 2.292 . S
Tb233 O249 2.326 . S
Tb233 O251 2.500 . S
Tb233 O252 2.473 . S
Tb233 O255 2.324 . S
Eu234 O238 2.292 . S
Eu234 C239 2.852 . S
Eu234 O250 2.324 . S
Eu234 O254 2.326 . S
Eu234 O256 2.500 . S
Eu234 O257 2.473 . S
C235 O232 1.255 . S
C235 O236 1.247 . S
O236 C235 1.247 . S
C237 O249 1.242 . S
C237 O250 1.258 . S
O238 Eu234 2.292 . S
O238 C240 1.255 . S
C239 Eu234 2.852 . S
C239 C243 1.503 1_565 S
C239 O256 1.273 . S
C239 O257 1.257 . S
C240 O238 1.255 . S
C240 O241 1.247 . S
O241 C240 1.247 . S
C242 O254 1.242 . S
C242 O255 1.258 . S
C243 C239 1.503 1_545 S
C243 C244 1.379 . S
C243 C248 1.392 . S
C244 C243 1.379 . S
C244 C245 1.404 . S
C244 H258 0.929 1_545 S
C245 C244 1.404 . S
C245 C246 1.389 . S
C246 C245 1.389 . S
C246 C247 1.399 . S
C246 H259 0.931 . S
C247 C246 1.399 . S
C247 C248 1.390 . S
C248 C243 1.392 . S
C248 C247 1.390 . S
C248 H260 0.929 . S
O249 Tb233 2.326 . S
O249 C237 1.242 . S
O250 Eu234 2.324 . S
O250 C237 1.258 . S
O251 Tb233 2.500 . S
O251 C253 1.273 . S
O252 Tb233 2.473 . S
O252 C253 1.257 . S
C253 O251 1.273 . S
C253 O252 1.257 . S
O254 Eu234 2.326 . S
O254 C242 1.242 . S
O255 Tb233 2.324 . S
O255 C242 1.258 . S
O256 Eu234 2.500 . S
O256 C239 1.273 . S
O257 Eu234 2.473 . S
O257 C239 1.257 . S
H258 C244 0.929 1_565 S
H259 C246 0.931 . S
H260 C248 0.929 . S
O261 Tb262 2.292 . S
O261 C264 1.255 . S
Tb262 O261 2.292 . S
Tb262 O278 2.326 . S
Tb262 O280 2.500 . S
Tb262 O281 2.473 . S
Tb262 O284 2.324 . S
Eu263 O267 2.292 . S
Eu263 C268 2.852 . S
Eu263 O279 2.324 . S
Eu263 O283 2.326 . S
Eu263 O285 2.500 . S
Eu263 O286 2.473 . S
C264 O261 1.255 . S
C264 O265 1.247 . S
O265 C264 1.247 . S
C266 O278 1.242 . S
C266 O279 1.258 . S
O267 Eu263 2.292 . S
O267 C269 1.255 . S
C268 Eu263 2.852 . S
C268 C272 1.503 . S
C268 O285 1.273 . S
C268 O286 1.257 . S
C269 O267 1.255 . S
C269 O270 1.247 . S
O270 C269 1.247 . S
C271 O283 1.242 . S
C271 O284 1.258 . S
C272 C268 1.503 . S
C272 C273 1.379 . S
C272 C277 1.392 . S
C273 C272 1.379 . S
C273 C274 1.404 . S
C273 H287 0.929 . S
C274 C273 1.404 . S
C274 C275 1.389 . S
C275 C274 1.389 . S
C275 C276 1.399 . S
C275 H288 0.931 . S
C276 C275 1.399 . S
C276 C277 1.390 . S
C277 C272 1.392 . S
C277 C276 1.390 . S
C277 H289 0.929 . S
O278 Tb262 2.326 . S
O278 C266 1.242 . S
O279 Eu263 2.324 . S
O279 C266 1.258 . S
O280 Tb262 2.500 . S
O280 C282 1.273 . S
O281 Tb262 2.473 . S
O281 C282 1.257 . S
C282 O280 1.273 . S
C282 O281 1.257 . S
O283 Eu263 2.326 . S
O283 C271 1.242 . S
O284 Tb262 2.324 . S
O284 C271 1.258 . S
O285 Eu263 2.500 . S
O285 C268 1.273 . S
O286 Eu263 2.473 . S
O286 C268 1.257 . S
H287 C273 0.929 . S
H288 C275 0.931 . S
H289 C277 0.929 . S
O290 Tb291 2.292 . S
O290 C293 1.255 . S
Tb291 O290 2.292 . S
Tb291 O307 2.326 . S
Tb291 O309 2.500 . S
Tb291 O310 2.473 . S
Tb291 O313 2.324 . S
Eu292 O296 2.292 . S
Eu292 C297 2.852 . S
Eu292 O308 2.324 . S
Eu292 O312 2.326 . S
Eu292 O314 2.500 . S
Eu292 O315 2.473 . S
C293 O290 1.255 . S
C293 O294 1.247 . S
O294 C293 1.247 . S
C295 O307 1.242 . S
C295 O308 1.258 . S
O296 Eu292 2.292 . S
O296 C298 1.255 . S
C297 Eu292 2.852 . S
C297 C301 1.503 1_455 S
C297 O314 1.273 . S
C297 O315 1.257 . S
C298 O296 1.255 . S
C298 O299 1.247 . S
O299 C298 1.247 . S
C300 O312 1.242 . S
C300 O313 1.258 . S
C301 C297 1.503 1_655 S
C301 C302 1.379 . S
C301 C306 1.392 . S
C302 C301 1.379 . S
C302 C303 1.404 . S
C302 H316 0.929 1_655 S
C303 C302 1.404 . S
C303 C304 1.389 . S
C304 C303 1.389 . S
C304 C305 1.399 . S
C304 H317 0.931 . S
C305 C304 1.399 . S
C305 C306 1.390 . S
C306 C301 1.392 . S
C306 C305 1.390 . S
C306 H318 0.929 . S
O307 Tb291 2.326 . S
O307 C295 1.242 . S
O308 Eu292 2.324 . S
O308 C295 1.258 . S
O309 Tb291 2.500 . S
O309 C311 1.273 . S
O310 Tb291 2.473 . S
O310 C311 1.257 . S
C311 O309 1.273 . S
C311 O310 1.257 . S
O312 Eu292 2.326 . S
O312 C300 1.242 . S
O313 Tb291 2.324 . S
O313 C300 1.258 . S
O314 Eu292 2.500 . S
O314 C297 1.273 . S
O315 Eu292 2.473 . S
O315 C297 1.257 . S
H316 C302 0.929 1_455 S
H317 C304 0.931 . S
H318 C306 0.929 . S
O319 Tb320 2.292 . S
O319 C322 1.255 . S
Tb320 O319 2.292 . S
Tb320 O336 2.326 . S
Tb320 O338 2.500 . S
Tb320 O339 2.473 . S
Tb320 O342 2.324 . S
Eu321 O325 2.292 . S
Eu321 C326 2.852 . S
Eu321 O337 2.324 . S
Eu321 O341 2.326 . S
Eu321 O343 2.500 . S
Eu321 O344 2.473 . S
C322 O319 1.255 . S
C322 O323 1.247 . S
O323 C322 1.247 . S
C324 O336 1.242 . S
C324 O337 1.258 . S
O325 Eu321 2.292 . S
O325 C327 1.255 . S
C326 Eu321 2.852 . S
C326 C330 1.503 1_545 S
C326 O343 1.273 . S
C326 O344 1.257 . S
C327 O325 1.255 . S
C327 O328 1.247 . S
O328 C327 1.247 . S
C329 O341 1.242 . S
C329 O342 1.258 . S
C330 C326 1.503 1_565 S
C330 C331 1.379 . S
C330 C335 1.392 . S
C331 C330 1.379 . S
C331 C332 1.404 . S
C331 H345 0.929 1_565 S
C332 C331 1.404 . S
C332 C333 1.389 . S
C333 C332 1.389 . S
C333 C334 1.399 . S
C333 H346 0.931 . S
C334 C333 1.399 . S
C334 C335 1.390 . S
C335 C330 1.392 . S
C335 C334 1.390 . S
C335 H347 0.929 . S
O336 Tb320 2.326 . S
O336 C324 1.242 . S
O337 Eu321 2.324 . S
O337 C324 1.258 . S
O338 Tb320 2.500 . S
O338 C340 1.273 . S
O339 Tb320 2.473 . S
O339 C340 1.257 . S
C340 O338 1.273 . S
C340 O339 1.257 . S
O341 Eu321 2.326 . S
O341 C329 1.242 . S
O342 Tb320 2.324 . S
O342 C329 1.258 . S
O343 Eu321 2.500 . S
O343 C326 1.273 . S
O344 Eu321 2.473 . S
O344 C326 1.257 . S
H345 C331 0.929 1_545 S
H346 C333 0.931 . S
H347 C335 0.929 . S
H348 C354 0.930 . S
H349 C358 0.930 . S
H350 C363 0.929 . S
H351 C361 0.929 . S
H352 C356 0.929 . S
H353 C362 0.929 . S
C354 H348 0.930 . S
C354 C355 1.367 . S
C354 C362 1.378 . S
C355 C354 1.367 . S
C355 C363 1.433 . S
C356 H352 0.929 . S
C356 C358 1.378 . S
C356 C360 1.350 . S
C357 C360 1.463 . S
C357 C362 1.350 . S
C357 N365 1.427 . S
C358 H349 0.930 . S
C358 C356 1.378 . S
C358 C359 1.367 . S
C359 C358 1.367 . S
C359 C361 1.433 . S
C360 C356 1.350 . S
C360 C357 1.463 . S
C360 N364 1.427 . S
C361 H351 0.929 . S
C361 C359 1.433 . S
C361 N364 1.384 . S
C362 H353 0.929 . S
C362 C354 1.378 . S
C362 C357 1.350 . S
C363 H350 0.929 . S
C363 C355 1.433 . S
C363 N365 1.384 . S
N364 C360 1.427 . S
N364 C361 1.384 . S
N365 C357 1.427 . S
N365 C363 1.384 . S
H366 C372 0.930 . S
H367 C376 0.930 . S
H368 C381 0.929 . S
H369 C379 0.929 . S
H370 C374 0.929 . S
H371 C380 0.929 . S
C372 H366 0.930 . S
C372 C373 1.367 . S
C372 C380 1.378 . S
C373 C372 1.367 . S
C373 C381 1.433 . S
C374 H370 0.929 . S
C374 C376 1.378 . S
C374 C378 1.350 . S
C375 C378 1.463 . S
C375 C380 1.350 . S
C375 N383 1.427 . S
C376 H367 0.930 . S
C376 C374 1.378 . S
C376 C377 1.367 . S
C377 C376 1.367 . S
C377 C379 1.433 . S
C378 C374 1.350 . S
C378 C375 1.463 . S
C378 N382 1.427 . S
C379 H369 0.929 . S
C379 C377 1.433 . S
C379 N382 1.384 . S
C380 H371 0.929 . S
C380 C372 1.378 . S
C380 C375 1.350 . S
C381 H368 0.929 . S
C381 C373 1.433 . S
C381 N383 1.384 . S
N382 C378 1.427 . S
N382 C379 1.384 . S
N383 C375 1.427 . S
N383 C381 1.384 . S
H384 C390 0.930 . S
H385 C394 0.930 . S
H386 C399 0.929 . S
H387 C397 0.929 . S
H388 C392 0.929 . S
H389 C398 0.929 . S
C390 H384 0.930 . S
C390 C391 1.367 . S
C390 C398 1.378 . S
C391 C390 1.367 . S
C391 C399 1.433 . S
C392 H388 0.929 . S
C392 C394 1.378 . S
C392 C396 1.350 . S
C393 C396 1.463 . S
C393 C398 1.350 . S
C393 N401 1.427 . S
C394 H385 0.930 . S
C394 C392 1.378 . S
C394 C395 1.367 . S
C395 C394 1.367 . S
C395 C397 1.433 . S
C396 C392 1.350 . S
C396 C393 1.463 . S
C396 N400 1.427 . S
C397 H387 0.929 . S
C397 C395 1.433 . S
C397 N400 1.384 . S
C398 H389 0.929 . S
C398 C390 1.378 . S
C398 C393 1.350 . S
C399 H386 0.929 . S
C399 C391 1.433 . S
C399 N401 1.384 . S
N400 C396 1.427 . S
N400 C397 1.384 . S
N401 C393 1.427 . S
N401 C399 1.384 . S
H402 C408 0.930 . S
H403 C412 0.930 . S
H404 C417 0.929 . S
H405 C415 0.929 . S
H406 C410 0.929 . S
H407 C416 0.929 . S
C408 H402 0.930 . S
C408 C409 1.367 . S
C408 C416 1.378 . S
C409 C408 1.367 . S
C409 C417 1.433 . S
C410 H406 0.929 . S
C410 C412 1.378 . S
C410 C414 1.350 . S
C411 C414 1.463 . S
C411 C416 1.350 . S
C411 N419 1.427 . S
C412 H403 0.930 . S
C412 C410 1.378 . S
C412 C413 1.367 . S
C413 C412 1.367 . S
C413 C415 1.433 . S
C414 C410 1.350 . S
C414 C411 1.463 . S
C414 N418 1.427 . S
C415 H405 0.929 . S
C415 C413 1.433 . S
C415 N418 1.384 . S
C416 H407 0.929 . S
C416 C408 1.378 . S
C416 C411 1.350 . S
C417 H404 0.929 . S
C417 C409 1.433 . S
C417 N419 1.384 . S
N418 C414 1.427 . S
N418 C415 1.384 . S
N419 C411 1.427 . S
N419 C417 1.384 . S
H420 C426 0.930 . S
H421 C430 0.930 . S
H422 C435 0.929 . S
H423 C433 0.929 . S
H424 C428 0.929 . S
H425 C434 0.929 . S
C426 H420 0.930 . S
C426 C427 1.367 . S
C426 C434 1.378 . S
C427 C426 1.367 . S
C427 C435 1.433 . S
C428 H424 0.929 . S
C428 C430 1.378 . S
C428 C432 1.350 . S
C429 C432 1.463 . S
C429 C434 1.350 . S
C429 N437 1.427 . S
C430 H421 0.930 . S
C430 C428 1.378 . S
C430 C431 1.367 . S
C431 C430 1.367 . S
C431 C433 1.433 . S
C432 C428 1.350 . S
C432 C429 1.463 . S
C432 N436 1.427 . S
C433 H423 0.929 . S
C433 C431 1.433 . S
C433 N436 1.384 . S
C434 H425 0.929 . S
C434 C426 1.378 . S
C434 C429 1.350 . S
C435 H422 0.929 . S
C435 C427 1.433 . S
C435 N437 1.384 . S
N436 C432 1.427 . S
N436 C433 1.384 . S
N437 C429 1.427 . S
N437 C435 1.384 . S
H438 C444 0.930 . S
H439 C448 0.930 . S
H440 C453 0.929 . S
H441 C451 0.929 . S
H442 C446 0.929 . S
H443 C452 0.929 . S
C444 H438 0.930 . S
C444 C445 1.367 . S
C444 C452 1.378 . S
C445 C444 1.367 . S
C445 C453 1.433 . S
C446 H442 0.929 . S
C446 C448 1.378 . S
C446 C450 1.350 . S
C447 C450 1.463 . S
C447 C452 1.350 . S
C447 N455 1.427 . S
C448 H439 0.930 . S
C448 C446 1.378 . S
C448 C449 1.367 . S
C449 C448 1.367 . S
C449 C451 1.433 . S
C450 C446 1.350 . S
C450 C447 1.463 . S
C450 N454 1.427 . S
C451 H441 0.929 . S
C451 C449 1.433 . S
C451 N454 1.384 . S
C452 H443 0.929 . S
C452 C444 1.378 . S
C452 C447 1.350 . S
C453 H440 0.929 . S
C453 C445 1.433 . S
C453 N455 1.384 . S
N454 C450 1.427 . S
N454 C451 1.384 . S
N455 C447 1.427 . S
N455 C453 1.384 . S
H456 C462 0.930 . S
H457 C466 0.930 1_554 S
H458 C471 0.929 . S
H459 C469 0.929 . S
H460 C464 0.929 . S
H461 C470 0.929 . S
C462 H456 0.930 . S
C462 C463 1.367 . S
C462 C470 1.378 . S
C463 C462 1.367 . S
C463 C471 1.433 . S
C464 H460 0.929 . S
C464 C466 1.378 . S
C464 C468 1.350 . S
C465 C468 1.463 . S
C465 C470 1.350 . S
C465 N473 1.427 . S
C466 H457 0.930 1_556 S
C466 C464 1.378 . S
C466 C467 1.367 . S
C467 C466 1.367 . S
C467 C469 1.433 . S
C468 C464 1.350 . S
C468 C465 1.463 . S
C468 N472 1.427 . S
C469 H459 0.929 . S
C469 C467 1.433 . S
C469 N472 1.384 . S
C470 H461 0.929 . S
C470 C462 1.378 . S
C470 C465 1.350 . S
C471 H458 0.929 . S
C471 C463 1.433 . S
C471 N473 1.384 . S
N472 C468 1.427 . S
N472 C469 1.384 . S
N473 C465 1.427 . S
N473 C471 1.384 . S
H474 C480 0.930 . S
H475 C484 0.930 . S
H476 C489 0.929 . S
H477 C487 0.929 . S
H478 C482 0.929 . S
H479 C488 0.929 . S
C480 H474 0.930 . S
C480 C481 1.367 . S
C480 C488 1.378 . S
C481 C480 1.367 . S
C481 C489 1.433 . S
C482 H478 0.929 . S
C482 C484 1.378 . S
C482 C486 1.350 . S
C483 C486 1.463 . S
C483 C488 1.350 . S
C483 N491 1.427 . S
C484 H475 0.930 . S
C484 C482 1.378 . S
C484 C485 1.367 . S
C485 C484 1.367 . S
C485 C487 1.433 . S
C486 C482 1.350 . S
C486 C483 1.463 . S
C486 N490 1.427 . S
C487 H477 0.929 . S
C487 C485 1.433 . S
C487 N490 1.384 . S
C488 H479 0.929 . S
C488 C480 1.378 . S
C488 C483 1.350 . S
C489 H476 0.929 . S
C489 C481 1.433 . S
C489 N491 1.384 . S
N490 C486 1.427 . S
N490 C487 1.384 . S
N491 C483 1.427 . S
N491 C489 1.384 . S
H492 C498 0.930 . S
H493 C502 0.930 . S
H494 C507 0.929 . S
H495 C505 0.929 . S
H496 C500 0.929 . S
H497 C506 0.929 . S
C498 H492 0.930 . S
C498 C499 1.367 . S
C498 C506 1.378 . S
C499 C498 1.367 . S
C499 C507 1.433 . S
C500 H496 0.929 . S
C500 C502 1.378 . S
C500 C504 1.350 . S
C501 C504 1.463 . S
C501 C506 1.350 . S
C501 N509 1.427 . S
C502 H493 0.930 . S
C502 C500 1.378 . S
C502 C503 1.367 . S
C503 C502 1.367 . S
C503 C505 1.433 . S
C504 C500 1.350 . S
C504 C501 1.463 . S
C504 N508 1.427 . S
C505 H495 0.929 . S
C505 C503 1.433 . S
C505 N508 1.384 . S
C506 H497 0.929 . S
C506 C498 1.378 . S
C506 C501 1.350 . S
C507 H494 0.929 . S
C507 C499 1.433 . S
C507 N509 1.384 . S
N508 C504 1.427 . S
N508 C505 1.384 . S
N509 C501 1.427 . S
N509 C507 1.384 . S
H510 C516 0.930 . S
H511 C520 0.930 . S
H512 C525 0.929 . S
H513 C523 0.929 . S
H514 C518 0.929 . S
H515 C524 0.929 . S
C516 H510 0.930 . S
C516 C517 1.367 . S
C516 C524 1.378 . S
C517 C516 1.367 . S
C517 C525 1.433 . S
C518 H514 0.929 . S
C518 C520 1.378 . S
C518 C522 1.350 . S
C519 C522 1.463 . S
C519 C524 1.350 . S
C519 N527 1.427 . S
C520 H511 0.930 . S
C520 C518 1.378 . S
C520 C521 1.367 . S
C521 C520 1.367 . S
C521 C523 1.433 . S
C522 C518 1.350 . S
C522 C519 1.463 . S
C522 N526 1.427 . S
C523 H513 0.929 . S
C523 C521 1.433 . S
C523 N526 1.384 . S
C524 H515 0.929 . S
C524 C516 1.378 . S
C524 C519 1.350 . S
C525 H512 0.929 . S
C525 C517 1.433 . S
C525 N527 1.384 . S
N526 C522 1.427 . S
N526 C523 1.384 . S
N527 C519 1.427 . S
N527 C525 1.384 . S
H528 C534 0.930 . S
H529 C538 0.930 . S
H530 C543 0.929 . S
H531 C541 0.929 . S
H532 C536 0.929 . S
H533 C542 0.929 . S
C534 H528 0.930 . S
C534 C535 1.367 . S
C534 C542 1.378 . S
C535 C534 1.367 . S
C535 C543 1.433 . S
C536 H532 0.929 . S
C536 C538 1.378 . S
C536 C540 1.350 . S
C537 C540 1.463 . S
C537 C542 1.350 . S
C537 N545 1.427 . S
C538 H529 0.930 . S
C538 C536 1.378 . S
C538 C539 1.367 . S
C539 C538 1.367 . S
C539 C541 1.433 . S
C540 C536 1.350 . S
C540 C537 1.463 . S
C540 N544 1.427 . S
C541 H531 0.929 . S
C541 C539 1.433 . S
C541 N544 1.384 . S
C542 H533 0.929 . S
C542 C534 1.378 . S
C542 C537 1.350 . S
C543 H530 0.929 . S
C543 C535 1.433 . S
C543 N545 1.384 . S
N544 C540 1.427 . S
N544 C541 1.384 . S
N545 C537 1.427 . S
N545 C543 1.384 . S
H546 C552 0.930 . S
H547 C556 0.930 . S
H548 C561 0.929 . S
H549 C559 0.929 . S
H550 C554 0.929 . S
H551 C560 0.929 . S
C552 H546 0.930 . S
C552 C553 1.367 . S
C552 C560 1.378 . S
C553 C552 1.367 . S
C553 C561 1.433 . S
C554 H550 0.929 . S
C554 C556 1.378 . S
C554 C558 1.350 . S
C555 C558 1.463 . S
C555 C560 1.350 . S
C555 N563 1.427 . S
C556 H547 0.930 . S
C556 C554 1.378 . S
C556 C557 1.367 . S
C557 C556 1.367 . S
C557 C559 1.433 . S
C558 C554 1.350 . S
C558 C555 1.463 . S
C558 N562 1.427 . S
C559 H549 0.929 . S
C559 C557 1.433 . S
C559 N562 1.384 . S
C560 H551 0.929 . S
C560 C552 1.378 . S
C560 C555 1.350 . S
C561 H548 0.929 . S
C561 C553 1.433 . S
C561 N563 1.384 . S
N562 C558 1.427 . S
N562 C559 1.384 . S
N563 C555 1.427 . S
N563 C561 1.384 . S
H564 C570 0.930 . S
H565 C574 0.930 . S
H566 C579 0.929 . S
H567 C577 0.929 . S
H568 C572 0.929 . S
H569 C578 0.929 . S
C570 H564 0.930 . S
C570 C571 1.367 . S
C570 C578 1.378 . S
C571 C570 1.367 . S
C571 C579 1.433 . S
C572 H568 0.929 . S
C572 C574 1.378 . S
C572 C576 1.350 . S
C573 C576 1.463 . S
C573 C578 1.350 . S
C573 N581 1.427 . S
C574 H565 0.930 . S
C574 C572 1.378 . S
C574 C575 1.367 . S
C575 C574 1.367 . S
C575 C577 1.433 . S
C576 C572 1.350 . S
C576 C573 1.463 . S
C576 N580 1.427 . S
C577 H567 0.929 . S
C577 C575 1.433 . S
C577 N580 1.384 . S
C578 H569 0.929 . S
C578 C570 1.378 . S
C578 C573 1.350 . S
C579 H566 0.929 . S
C579 C571 1.433 . S
C579 N581 1.384 . S
N580 C576 1.427 . S
N580 C577 1.384 . S
N581 C573 1.427 . S
N581 C579 1.384 . S
H582 C588 0.930 . S
H583 C592 0.930 . S
H584 C597 0.929 . S
H585 C595 0.929 . S
H586 C590 0.929 . S
H587 C596 0.929 . S
C588 H582 0.930 . S
C588 C589 1.367 . S
C588 C596 1.378 . S
C589 C588 1.367 . S
C589 C597 1.433 . S
C590 H586 0.929 . S
C590 C592 1.378 1_554 S
C590 C594 1.350 . S
C591 C594 1.463 . S
C591 C596 1.350 . S
C591 N599 1.427 . S
C592 H583 0.930 . S
C592 C590 1.378 1_556 S
C592 C593 1.360 1_556 S
C593 C592 1.360 1_554 S
C593 C595 1.480 . S
C594 C590 1.350 . S
C594 C591 1.463 . S
C594 N598 1.427 . S
C595 H585 0.929 . S
C595 C593 1.480 . S
C595 N598 1.384 . S
C596 H587 0.929 . S
C596 C588 1.378 . S
C596 C591 1.350 . S
C597 H584 0.929 . S
C597 C589 1.433 . S
C597 N599 1.384 . S
N598 C594 1.427 . S
N598 C595 1.384 . S
N599 C591 1.427 . S
N599 C597 1.384 . S
H600 C606 0.930 . S
H601 C610 0.930 . S
H602 C615 0.929 . S
H603 C613 0.929 . S
H604 C608 0.929 . S
H605 C614 0.929 . S
C606 H600 0.930 . S
C606 C607 1.367 . S
C606 C614 1.378 . S
C607 C606 1.367 . S
C607 C615 1.433 . S
C608 H604 0.929 . S
C608 C610 1.378 . S
C608 C612 1.350 . S
C609 C612 1.463 . S
C609 C614 1.350 . S
C609 N617 1.427 . S
C610 H601 0.930 . S
C610 C608 1.378 . S
C610 C611 1.367 . S
C611 C610 1.367 . S
C611 C613 1.433 . S
C612 C608 1.350 . S
C612 C609 1.463 . S
C612 N616 1.427 . S
C613 H603 0.929 . S
C613 C611 1.433 . S
C613 N616 1.384 . S
C614 H605 0.929 . S
C614 C606 1.378 . S
C614 C609 1.350 . S
C615 H602 0.929 . S
C615 C607 1.433 . S
C615 N617 1.384 . S
N616 C612 1.427 . S
N616 C613 1.384 . S
N617 C609 1.427 . S
N617 C615 1.384 . S
H618 C624 0.930 . S
H619 C628 0.930 . S
H620 C633 0.929 . S
H621 C631 0.929 . S
H622 C626 0.929 . S
H623 C632 0.929 . S
C624 H618 0.930 . S
C624 C625 1.367 . S
C624 C632 1.378 . S
C625 C624 1.367 . S
C625 C633 1.433 . S
C626 H622 0.929 . S
C626 C628 1.378 . S
C626 C630 1.350 . S
C627 C630 1.463 . S
C627 C632 1.350 . S
C627 N635 1.427 . S
C628 H619 0.930 . S
C628 C626 1.378 . S
C628 C629 1.367 . S
C629 C628 1.367 . S
C629 C631 1.433 . S
C630 C626 1.350 . S
C630 C627 1.463 . S
C630 N634 1.427 . S
C631 H621 0.929 . S
C631 C629 1.433 . S
C631 N634 1.384 . S
C632 H623 0.929 . S
C632 C624 1.378 . S
C632 C627 1.350 . S
C633 H620 0.929 . S
C633 C625 1.433 . S
C633 N635 1.384 . S
N634 C630 1.427 . S
N634 C631 1.384 . S
N635 C627 1.427 . S
N635 C633 1.384 . S
H636 C642 0.930 . S
H637 C646 0.930 . S
H638 C651 0.929 . S
H639 C649 0.929 . S
H640 C644 0.929 . S
H641 C650 0.929 . S
C642 H636 0.930 . S
C642 C643 1.367 . S
C642 C650 1.378 . S
C643 C642 1.367 . S
C643 C651 1.433 . S
C644 H640 0.929 . S
C644 C646 1.378 . S
C644 C648 1.350 . S
C645 C648 1.463 . S
C645 C650 1.350 . S
C645 N653 1.427 . S
C646 H637 0.930 . S
C646 C644 1.378 . S
C646 C647 1.367 . S
C647 C646 1.367 . S
C647 C649 1.433 . S
C648 C644 1.350 . S
C648 C645 1.463 . S
C648 N652 1.427 . S
C649 H639 0.929 . S
C649 C647 1.433 . S
C649 N652 1.384 . S
C650 H641 0.929 . S
C650 C642 1.378 . S
C650 C645 1.350 . S
C651 H638 0.929 . S
C651 C643 1.433 . S
C651 N653 1.384 . S
N652 C648 1.427 . S
N652 C649 1.384 . S
N653 C645 1.427 . S
N653 C651 1.384 . S
H654 C660 0.930 . S
H655 C664 0.930 . S
H656 C669 0.929 . S
H657 C667 0.929 . S
H658 C662 0.929 . S
H659 C668 0.929 . S
C660 H654 0.930 . S
C660 C661 1.367 . S
C660 C668 1.378 . S
C661 C660 1.367 . S
C661 C669 1.433 . S
C662 H658 0.929 . S
C662 C664 1.378 . S
C662 C666 1.350 . S
C663 C666 1.463 . S
C663 C668 1.350 . S
C663 N671 1.427 . S
C664 H655 0.930 . S
C664 C662 1.378 . S
C664 C665 1.367 . S
C665 C664 1.367 . S
C665 C667 1.433 . S
C666 C662 1.350 . S
C666 C663 1.463 . S
C666 N670 1.427 . S
C667 H657 0.929 . S
C667 C665 1.433 . S
C667 N670 1.384 . S
C668 H659 0.929 . S
C668 C660 1.378 . S
C668 C663 1.350 . S
C669 H656 0.929 . S
C669 C661 1.433 . S
C669 N671 1.384 . S
N670 C666 1.427 . S
N670 C667 1.384 . S
N671 C663 1.427 . S
N671 C669 1.384 . S
H672 C678 0.930 . S
H673 C682 0.930 . S
H674 C687 0.929 . S
H675 C685 0.929 . S
H676 C680 0.929 . S
H677 C686 0.929 . S
C678 H672 0.930 . S
C678 C679 1.367 . S
C678 C686 1.378 . S
C679 C678 1.367 . S
C679 C687 1.433 . S
C680 H676 0.929 . S
C680 C682 1.378 . S
C680 C684 1.350 . S
C681 C684 1.463 . S
C681 C686 1.350 . S
C681 N689 1.427 . S
C682 H673 0.930 . S
C682 C680 1.378 . S
C682 C683 1.367 . S
C683 C682 1.367 . S
C683 C685 1.433 . S
C684 C680 1.350 . S
C684 C681 1.463 . S
C684 N688 1.427 . S
C685 H675 0.929 . S
C685 C683 1.433 . S
C685 N688 1.384 . S
C686 H677 0.929 . S
C686 C678 1.378 . S
C686 C681 1.350 . S
C687 H674 0.929 . S
C687 C679 1.433 . S
C687 N689 1.384 . S
N688 C684 1.427 . S
N688 C685 1.384 . S
N689 C681 1.427 . S
N689 C687 1.384 . S
H690 C696 0.930 . S
H691 C700 0.930 . S
H692 C705 0.936 . S
H693 C703 0.929 . S
H694 C698 0.929 . S
H695 C704 0.929 . S
C696 H690 0.930 . S
C696 C697 1.367 . S
C696 C704 1.378 . S
C697 C696 1.367 . S
C697 C705 1.433 . S
C698 H694 0.929 . S
C698 C700 1.378 . S
C698 C702 1.350 . S
C699 C702 1.463 . S
C699 C704 1.350 . S
C699 N707 1.427 . S
C700 H691 0.930 . S
C700 C698 1.378 . S
C700 C701 1.367 . S
C701 C700 1.367 . S
C701 C703 1.433 . S
C702 C698 1.350 . S
C702 C699 1.463 . S
C702 N706 1.427 . S
C703 H693 0.929 . S
C703 C701 1.433 . S
C703 N706 1.384 . S
C704 H695 0.929 . S
C704 C696 1.378 . S
C704 C699 1.350 . S
C705 H692 0.936 . S
C705 C697 1.433 . S
C705 N707 1.384 . S
N706 C702 1.427 . S
N706 C703 1.384 . S
N707 C699 1.427 . S
N707 C705 1.384 . S
H708 C714 0.930 . S
H709 C718 0.930 1_545 S
H710 C723 0.929 1_545 S
H711 C721 0.929 . S
H712 C716 0.929 1_545 S
H713 C722 0.929 . S
C714 H708 0.930 . S
C714 C715 1.367 . S
C714 C722 1.378 . S
C715 C714 1.367 . S
C715 C723 1.433 . S
C716 H712 0.929 1_565 S
C716 C718 1.378 . S
C716 C720 1.350 . S
C717 C720 1.463 . S
C717 C722 1.350 . S
C717 N725 1.427 . S
C718 H709 0.930 1_565 S
C718 C716 1.378 . S
C718 C719 1.367 . S
C719 C718 1.367 . S
C719 C721 1.433 . S
C720 C716 1.350 . S
C720 C717 1.463 . S
C720 N724 1.427 . S
C721 H711 0.929 . S
C721 C719 1.433 . S
C721 N724 1.384 . S
C722 H713 0.929 . S
C722 C714 1.378 . S
C722 C717 1.350 . S
C723 H710 0.929 1_565 S
C723 C715 1.433 . S
C723 N725 1.384 . S
N724 C720 1.427 . S
N724 C721 1.384 . S
N725 C717 1.427 . S
N725 C723 1.384 . S
H726 C732 0.930 . S
H727 C736 0.930 . S
H728 C741 0.929 . S
H729 C739 0.929 . S
H730 C734 0.929 . S
H731 C740 0.929 . S
C732 H726 0.930 . S
C732 C733 1.367 . S
C732 C740 1.378 . S
C733 C732 1.367 . S
C733 C741 1.433 . S
C734 H730 0.929 . S
C734 C736 1.378 . S
C734 C738 1.350 . S
C735 C738 1.463 . S
C735 C740 1.350 . S
C735 N743 1.427 . S
C736 H727 0.930 . S
C736 C734 1.378 . S
C736 C737 1.367 . S
C737 C736 1.367 . S
C737 C739 1.433 . S
C738 C734 1.350 . S
C738 C735 1.463 . S
C738 N742 1.427 . S
C739 H729 0.929 . S
C739 C737 1.433 . S
C739 N742 1.384 . S
C740 H731 0.929 . S
C740 C732 1.378 . S
C740 C735 1.350 . S
C741 H728 0.929 . S
C741 C733 1.433 . S
C741 N743 1.384 . S
N742 C738 1.427 . S
N742 C739 1.384 . S
N743 C735 1.427 . S
N743 C741 1.384 . S
H744 C750 0.930 . S
H745 C754 0.930 . S
H746 C759 0.929 . S
H747 C757 0.929 . S
H748 C752 0.929 . S
H749 C758 0.929 . S
C750 H744 0.930 . S
C750 C751 1.367 . S
C750 C758 1.378 . S
C751 C750 1.367 . S
C751 C759 1.433 . S
C752 H748 0.929 . S
C752 C754 1.378 . S
C752 C756 1.350 . S
C753 C756 1.463 . S
C753 C758 1.350 . S
C753 N761 1.427 . S
C754 H745 0.930 . S
C754 C752 1.378 . S
C754 C755 1.367 . S
C755 C754 1.367 . S
C755 C757 1.433 . S
C756 C752 1.350 . S
C756 C753 1.463 . S
C756 N760 1.427 . S
C757 H747 0.929 . S
C757 C755 1.433 . S
C757 N760 1.384 . S
C758 H749 0.929 . S
C758 C750 1.378 . S
C758 C753 1.350 . S
C759 H746 0.929 . S
C759 C751 1.433 . S
C759 N761 1.384 . S
N760 C756 1.427 . S
N760 C757 1.384 . S
N761 C753 1.427 . S
N761 C759 1.384 . S
H762 C768 0.930 1_565 S
H763 C772 0.930 . S
H764 C777 0.929 . S
H765 C775 0.929 1_565 S
H766 C770 0.929 . S
H767 C776 0.929 1_565 S
C768 H762 0.930 1_545 S
C768 C769 1.367 . S
C768 C776 1.378 . S
C769 C768 1.367 . S
C769 C777 1.433 . S
C770 H766 0.929 . S
C770 C772 1.378 . S
C770 C774 1.350 . S
C771 C774 1.463 . S
C771 C776 1.350 . S
C771 N779 1.427 . S
C772 H763 0.930 . S
C772 C770 1.378 . S
C772 C773 1.367 . S
C773 C772 1.367 . S
C773 C775 1.433 . S
C774 C770 1.350 . S
C774 C771 1.463 . S
C774 N778 1.427 . S
C775 H765 0.929 1_545 S
C775 C773 1.433 . S
C775 N778 1.384 . S
C776 H767 0.929 1_545 S
C776 C768 1.378 . S
C776 C771 1.350 . S
C777 H764 0.929 . S
C777 C769 1.433 . S
C777 N779 1.384 . S
N778 C774 1.427 . S
N778 C775 1.384 . S
N779 C771 1.427 . S
N779 C777 1.384 . S
H780 C786 0.930 . S
H781 C790 0.930 . S
H782 C795 0.929 . S
H783 C793 0.929 . S
H784 C788 0.929 . S
H785 C794 0.929 . S
C786 H780 0.930 . S
C786 C787 1.367 . S
C786 C794 1.378 . S
C787 C786 1.367 . S
C787 C795 1.433 . S
C788 H784 0.929 . S
C788 C790 1.378 . S
C788 C792 1.350 . S
C789 C792 1.463 . S
C789 C794 1.350 . S
C789 N797 1.427 . S
C790 H781 0.930 . S
C790 C788 1.378 . S
C790 C791 1.367 . S
C791 C790 1.367 . S
C791 C793 1.433 . S
C792 C788 1.350 . S
C792 C789 1.463 . S
C792 N796 1.427 . S
C793 H783 0.929 . S
C793 C791 1.433 . S
C793 N796 1.384 . S
C794 H785 0.929 . S
C794 C786 1.378 . S
C794 C789 1.350 . S
C795 H782 0.929 . S
C795 C787 1.433 . S
C795 N797 1.384 . S
N796 C792 1.427 . S
N796 C793 1.384 . S
N797 C789 1.427 . S
N797 C795 1.384 . S
H798 C804 0.930 . S
H799 C808 0.930 . S
H800 C813 0.929 . S
H801 C811 0.929 . S
H802 C806 0.929 . S
H803 C812 0.929 . S
C804 H798 0.930 . S
C804 C805 1.367 . S
C804 C812 1.378 . S
C805 C804 1.367 . S
C805 C813 1.433 . S
C806 H802 0.929 . S
C806 C808 1.378 . S
C806 C810 1.350 . S
C807 C810 1.463 . S
C807 C812 1.350 . S
C807 N815 1.427 . S
C808 H799 0.930 . S
C808 C806 1.378 . S
C808 C809 1.367 . S
C809 C808 1.367 . S
C809 C811 1.433 . S
C810 C806 1.350 . S
C810 C807 1.463 . S
C810 N814 1.427 . S
C811 H801 0.929 . S
C811 C809 1.433 . S
C811 N814 1.384 . S
C812 H803 0.929 . S
C812 C804 1.378 . S
C812 C807 1.350 . S
C813 H800 0.929 . S
C813 C805 1.433 . S
C813 N815 1.384 . S
N814 C810 1.427 . S
N814 C811 1.384 . S
N815 C807 1.427 . S
N815 C813 1.384 . S
H816 C822 0.930 . S
H817 C826 0.930 . S
H818 C831 0.929 . S
H819 C829 0.929 . S
H820 C824 0.929 . S
H821 C830 0.929 . S
C822 H816 0.930 . S
C822 C823 1.367 . S
C822 C830 1.378 . S
C823 C822 1.367 . S
C823 C831 1.433 . S
C824 H820 0.929 . S
C824 C826 1.378 . S
C824 C828 1.350 . S
C825 C828 1.463 . S
C825 C830 1.350 . S
C825 N833 1.427 . S
C826 H817 0.930 . S
C826 C824 1.378 . S
C826 C827 1.367 . S
C827 C826 1.367 . S
C827 C829 1.433 . S
C828 C824 1.350 . S
C828 C825 1.463 . S
C828 N832 1.427 . S
C829 H819 0.929 . S
C829 C827 1.433 . S
C829 N832 1.384 . S
C830 H821 0.929 . S
C830 C822 1.378 . S
C830 C825 1.350 . S
C831 H818 0.929 . S
C831 C823 1.433 . S
C831 N833 1.384 . S
N832 C828 1.427 . S
N832 C829 1.384 . S
N833 C825 1.427 . S
N833 C831 1.384 . S
H834 C840 0.930 . S
H835 C844 0.930 . S
H836 C849 0.929 . S
H837 C847 0.929 . S
H838 C842 0.929 . S
H839 C848 0.929 . S
C840 H834 0.930 . S
C840 C841 1.367 . S
C840 C848 1.378 . S
C841 C840 1.367 . S
C841 C849 1.433 . S
C842 H838 0.929 . S
C842 C844 1.378 . S
C842 C846 1.350 . S
C843 C846 1.463 . S
C843 C848 1.350 . S
C843 N851 1.427 . S
C844 H835 0.930 . S
C844 C842 1.378 . S
C844 C845 1.367 . S
C845 C844 1.367 . S
C845 C847 1.433 . S
C846 C842 1.350 . S
C846 C843 1.463 . S
C846 N850 1.427 . S
C847 H837 0.929 . S
C847 C845 1.433 . S
C847 N850 1.384 . S
C848 H839 0.929 . S
C848 C840 1.378 . S
C848 C843 1.350 . S
C849 H836 0.929 . S
C849 C841 1.433 . S
C849 N851 1.384 . S
N850 C846 1.427 . S
N850 C847 1.384 . S
N851 C843 1.427 . S
N851 C849 1.384 . S
H852 C858 0.930 . S
H853 C862 0.930 . S
H854 C867 0.929 . S
H855 C865 0.929 . S
H856 C860 0.929 . S
H857 C866 0.929 . S
C858 H852 0.930 . S
C858 C859 1.367 . S
C858 C866 1.378 . S
C859 C858 1.367 . S
C859 C867 1.433 . S
C860 H856 0.929 . S
C860 C862 1.378 . S
C860 C864 1.350 . S
C861 C864 1.463 . S
C861 C866 1.350 . S
C861 N869 1.427 . S
C862 H853 0.930 . S
C862 C860 1.378 . S
C862 C863 1.367 . S
C863 C862 1.367 . S
C863 C865 1.433 . S
C864 C860 1.350 . S
C864 C861 1.463 . S
C864 N868 1.427 . S
C865 H855 0.929 . S
C865 C863 1.433 . S
C865 N868 1.384 . S
C866 H857 0.929 . S
C866 C858 1.378 . S
C866 C861 1.350 . S
C867 H854 0.929 . S
C867 C859 1.433 . S
C867 N869 1.384 . S
N868 C864 1.427 . S
N868 C865 1.384 . S
N869 C861 1.427 . S
N869 C867 1.384 . S
H870 C876 0.930 . S
H871 C880 0.930 . S
H872 C885 0.929 . S
H873 C883 0.929 . S
H874 C878 0.929 . S
H875 C884 0.929 . S
C876 H870 0.930 . S
C876 C877 1.367 . S
C876 C884 1.378 . S
C877 C876 1.367 . S
C877 C885 1.433 . S
C878 H874 0.929 . S
C878 C880 1.378 . S
C878 C882 1.350 . S
C879 C882 1.463 . S
C879 C884 1.350 . S
C879 N887 1.427 . S
C880 H871 0.930 . S
C880 C878 1.378 . S
C880 C881 1.367 . S
C881 C880 1.367 . S
C881 C883 1.433 . S
C882 C878 1.350 . S
C882 C879 1.463 . S
C882 N886 1.427 . S
C883 H873 0.929 . S
C883 C881 1.433 . S
C883 N886 1.384 . S
C884 H875 0.929 . S
C884 C876 1.378 . S
C884 C879 1.350 . S
C885 H872 0.929 . S
C885 C877 1.433 . S
C885 N887 1.384 . S
N886 C882 1.427 . S
N886 C883 1.384 . S
N887 C879 1.427 . S
N887 C885 1.384 . S
H888 C894 0.930 . S
H889 C898 0.930 . S
H890 C903 0.927 . S
H891 C901 0.929 . S
H892 C896 0.929 . S
H893 C902 0.929 . S
C894 H888 0.930 . S
C894 C895 1.367 . S
C894 C902 1.378 . S
C895 C894 1.367 . S
C895 C903 1.437 1_556 S
C896 H892 0.929 . S
C896 C898 1.378 . S
C896 C900 1.350 . S
C897 C900 1.463 1_556 S
C897 C902 1.350 . S
C897 N905 1.427 1_556 S
C898 H889 0.930 . S
C898 C896 1.378 . S
C898 C899 1.367 . S
C899 C898 1.367 . S
C899 C901 1.433 1_554 S
C900 C896 1.350 . S
C900 C897 1.463 1_554 S
C900 N904 1.427 1_554 S
C901 H891 0.929 . S
C901 C899 1.433 1_556 S
C901 N904 1.384 . S
C902 H893 0.929 . S
C902 C894 1.378 . S
C902 C897 1.350 . S
C903 H890 0.927 . S
C903 C895 1.437 1_554 S
C903 N905 1.382 . S
N904 C900 1.427 1_556 S
N904 C901 1.384 . S
N905 C897 1.427 1_554 S
N905 C903 1.382 . S
H906 C912 0.930 . S
H907 C916 0.930 . S
H908 C921 0.929 . S
H909 C919 0.929 . S
H910 C914 0.929 . S
H911 C920 0.929 . S
C912 H906 0.930 . S
C912 C913 1.367 . S
C912 C920 1.378 . S
C913 C912 1.367 . S
C913 C921 1.433 . S
C914 H910 0.929 . S
C914 C916 1.378 . S
C914 C918 1.350 . S
C915 C918 1.463 . S
C915 C920 1.350 . S
C915 N923 1.427 . S
C916 H907 0.930 . S
C916 C914 1.378 . S
C916 C917 1.367 . S
C917 C916 1.367 . S
C917 C919 1.433 . S
C918 C914 1.350 . S
C918 C915 1.463 . S
C918 N922 1.427 . S
C919 H909 0.929 . S
C919 C917 1.433 . S
C919 N922 1.384 . S
C920 H911 0.929 . S
C920 C912 1.378 . S
C920 C915 1.350 . S
C921 H908 0.929 . S
C921 C913 1.433 . S
C921 N923 1.384 . S
N922 C918 1.427 . S
N922 C919 1.384 . S
N923 C915 1.427 . S
N923 C921 1.384 . S
H924 C930 0.930 . S
H925 C934 0.930 . S
H926 C939 0.929 . S
H927 C937 0.929 . S
H928 C932 0.929 . S
H929 C938 0.929 . S
C930 H924 0.930 . S
C930 C931 1.367 . S
C930 C938 1.378 . S
C931 C930 1.367 . S
C931 C939 1.433 . S
C932 H928 0.929 . S
C932 C934 1.378 . S
C932 C936 1.350 . S
C933 C936 1.463 . S
C933 C938 1.350 . S
C933 N941 1.427 . S
C934 H925 0.930 . S
C934 C932 1.378 . S
C934 C935 1.367 . S
C935 C934 1.367 . S
C935 C937 1.433 . S
C936 C932 1.350 . S
C936 C933 1.463 . S
C936 N940 1.427 . S
C937 H927 0.929 . S
C937 C935 1.433 . S
C937 N940 1.384 . S
C938 H929 0.929 . S
C938 C930 1.378 . S
C938 C933 1.350 . S
C939 H926 0.929 . S
C939 C931 1.433 . S
C939 N941 1.384 . S
N940 C936 1.427 . S
N940 C937 1.384 . S
N941 C933 1.427 . S
N941 C939 1.384 . S
H942 C948 0.930 . S
H943 C952 0.930 . S
H944 C957 0.929 . S
H945 C955 0.929 . S
H946 C950 0.929 . S
H947 C956 0.929 . S
C948 H942 0.930 . S
C948 C949 1.367 . S
C948 C956 1.378 . S
C949 C948 1.367 . S
C949 C957 1.433 . S
C950 H946 0.929 . S
C950 C952 1.378 . S
C950 C954 1.350 . S
C951 C954 1.463 . S
C951 C956 1.350 . S
C951 N959 1.427 . S
C952 H943 0.930 . S
C952 C950 1.378 . S
C952 C953 1.367 . S
C953 C952 1.367 . S
C953 C955 1.433 . S
C954 C950 1.350 . S
C954 C951 1.463 . S
C954 N958 1.427 . S
C955 H945 0.929 . S
C955 C953 1.433 . S
C955 N958 1.384 . S
C956 H947 0.929 . S
C956 C948 1.378 . S
C956 C951 1.350 . S
C957 H944 0.929 . S
C957 C949 1.433 . S
C957 N959 1.384 . S
N958 C954 1.427 . S
N958 C955 1.384 . S
N959 C951 1.427 . S
N959 C957 1.384 . S
H960 C966 0.930 . S
H961 C970 0.930 . S
H962 C975 0.929 . S
H963 C973 0.929 . S
H964 C968 0.929 . S
H965 C974 0.929 . S
C966 H960 0.930 . S
C966 C967 1.367 . S
C966 C974 1.378 . S
C967 C966 1.367 . S
C967 C975 1.433 . S
C968 H964 0.929 . S
C968 C970 1.378 . S
C968 C972 1.350 . S
C969 C972 1.463 . S
C969 C974 1.350 . S
C969 N977 1.427 . S
C970 H961 0.930 . S
C970 C968 1.378 . S
C970 C971 1.367 . S
C971 C970 1.367 . S
C971 C973 1.433 . S
C972 C968 1.350 . S
C972 C969 1.463 . S
C972 N976 1.427 . S
C973 H963 0.929 . S
C973 C971 1.433 . S
C973 N976 1.384 . S
C974 H965 0.929 . S
C974 C966 1.378 . S
C974 C969 1.350 . S
C975 H962 0.929 . S
C975 C967 1.433 . S
C975 N977 1.384 . S
N976 C972 1.427 . S
N976 C973 1.384 . S
N977 C969 1.427 . S
N977 C975 1.384 . S
H978 C984 0.930 . S
H979 C988 0.930 . S
H980 C993 0.929 . S
H981 C991 0.929 . S
H982 C986 0.929 . S
H983 C992 0.929 . S
C984 H978 0.930 . S
C984 C985 1.367 . S
C984 C992 1.378 . S
C985 C984 1.367 . S
C985 C993 1.433 . S
C986 H982 0.929 . S
C986 C988 1.378 . S
C986 C990 1.350 . S
C987 C990 1.463 . S
C987 C992 1.350 . S
C987 N995 1.427 . S
C988 H979 0.930 . S
C988 C986 1.378 . S
C988 C989 1.367 . S
C989 C988 1.367 . S
C989 C991 1.433 . S
C990 C986 1.350 . S
C990 C987 1.463 . S
C990 N994 1.427 . S
C991 H981 0.929 . S
C991 C989 1.433 . S
C991 N994 1.384 . S
C992 H983 0.929 . S
C992 C984 1.378 . S
C992 C987 1.350 . S
C993 H980 0.929 . S
C993 C985 1.433 . S
C993 N995 1.384 . S
N994 C990 1.427 . S
N994 C991 1.384 . S
N995 C987 1.427 . S
N995 C993 1.384 . S
H996 C1002 0.930 . S
H997 C1006 0.930 . S
H998 C1011 0.929 . S
H999 C1009 0.929 . S
H1000 C1004 0.929 . S
H1001 C1010 0.929 . S
C1002 H996 0.930 . S
C1002 C1003 1.367 . S
C1002 C1010 1.378 . S
C1003 C1002 1.367 . S
C1003 C1011 1.433 . S
C1004 H1000 0.929 . S
C1004 C1006 1.378 . S
C1004 C1008 1.350 . S
C1005 C1008 1.463 . S
C1005 C1010 1.350 . S
C1005 N1013 1.427 . S
C1006 H997 0.930 . S
C1006 C1004 1.378 . S
C1006 C1007 1.367 . S
C1007 C1006 1.367 . S
C1007 C1009 1.433 . S
C1008 C1004 1.350 . S
C1008 C1005 1.463 . S
C1008 N1012 1.427 . S
C1009 H999 0.929 . S
C1009 C1007 1.433 . S
C1009 N1012 1.384 . S
C1010 H1001 0.929 . S
C1010 C1002 1.378 . S
C1010 C1005 1.350 . S
C1011 H998 0.929 . S
C1011 C1003 1.433 . S
C1011 N1013 1.384 . S
N1012 C1008 1.427 . S
N1012 C1009 1.384 . S
N1013 C1005 1.427 . S
N1013 C1011 1.384 . S
H1014 C1020 0.910 1_654 S
H1015 C1024 0.930 1_556 S
H1016 C1029 0.929 . S
H1017 C1027 0.929 . S
H1018 C1022 0.929 . S
H1019 C1028 0.929 . S
C1020 H1014 0.910 1_456 S
C1020 C1021 1.408 . S
C1020 C1028 1.361 1_556 S
C1021 C1020 1.408 . S
C1021 C1029 1.433 . S
C1022 H1018 0.929 . S
C1022 C1024 1.378 1_556 S
C1022 C1026 1.350 1_556 S
C1023 C1026 1.463 1_556 S
C1023 C1028 1.350 1_556 S
C1023 N1031 1.427 . S
C1024 H1015 0.930 1_554 S
C1024 C1022 1.378 1_554 S
C1024 C1025 1.367 . S
C1025 C1024 1.367 . S
C1025 C1027 1.433 . S
C1026 C1022 1.350 1_554 S
C1026 C1023 1.463 1_554 S
C1026 N1030 1.427 . S
C1027 H1017 0.929 . S
C1027 C1025 1.433 . S
C1027 N1030 1.384 . S
C1028 H1019 0.929 . S
C1028 C1020 1.361 1_554 S
C1028 C1023 1.350 1_554 S
C1029 H1016 0.929 . S
C1029 C1021 1.433 . S
C1029 N1031 1.384 . S
N1030 C1026 1.427 . S
N1030 C1027 1.384 . S
N1031 C1023 1.427 . S
N1031 C1029 1.384 . S
H1032 C1038 0.930 . S
H1033 C1042 0.930 . S
H1034 C1047 0.929 . S
H1035 C1045 0.929 . S
H1036 C1040 0.929 . S
H1037 C1046 0.929 . S
C1038 H1032 0.930 . S
C1038 C1039 1.367 . S
C1038 C1046 1.378 . S
C1039 C1038 1.367 . S
C1039 C1047 1.433 . S
C1040 H1036 0.929 . S
C1040 C1042 1.378 . S
C1040 C1044 1.350 . S
C1041 C1044 1.463 . S
C1041 C1046 1.350 . S
C1041 N1049 1.427 . S
C1042 H1033 0.930 . S
C1042 C1040 1.378 . S
C1042 C1043 1.367 . S
C1043 C1042 1.367 . S
C1043 C1045 1.433 . S
C1044 C1040 1.350 . S
C1044 C1041 1.463 . S
C1044 N1048 1.427 . S
C1045 H1035 0.929 . S
C1045 C1043 1.433 . S
C1045 N1048 1.384 . S
C1046 H1037 0.929 . S
C1046 C1038 1.378 . S
C1046 C1041 1.350 . S
C1047 H1034 0.929 . S
C1047 C1039 1.433 . S
C1047 N1049 1.384 . S
N1048 C1044 1.427 . S
N1048 C1045 1.384 . S
N1049 C1041 1.427 . S
N1049 C1047 1.384 . S
H1050 C1056 0.930 . S
H1051 C1060 0.930 . S
H1052 C1065 0.929 . S
H1053 C1063 0.929 . S
H1054 C1058 0.929 . S
H1055 C1064 0.929 . S
C1056 H1050 0.930 . S
C1056 C1057 1.367 . S
C1056 C1064 1.378 . S
C1057 C1056 1.367 . S
C1057 C1065 1.433 . S
C1058 H1054 0.929 . S
C1058 C1060 1.378 . S
C1058 C1062 1.350 . S
C1059 C1062 1.463 . S
C1059 C1064 1.350 . S
C1059 N1067 1.427 . S
C1060 H1051 0.930 . S
C1060 C1058 1.378 . S
C1060 C1061 1.367 . S
C1061 C1060 1.367 . S
C1061 C1063 1.433 . S
C1062 C1058 1.350 . S
C1062 C1059 1.463 . S
C1062 N1066 1.427 . S
C1063 H1053 0.929 . S
C1063 C1061 1.433 . S
C1063 N1066 1.384 . S
C1064 H1055 0.929 . S
C1064 C1056 1.378 . S
C1064 C1059 1.350 . S
C1065 H1052 0.929 . S
C1065 C1057 1.433 . S
C1065 N1067 1.384 . S
N1066 C1062 1.427 . S
N1066 C1063 1.384 . S
N1067 C1059 1.427 . S
N1067 C1065 1.384 . S
H1068 C1074 0.930 . S
H1069 C1078 0.930 . S
H1070 C1083 0.929 . S
H1071 C1081 0.929 . S
H1072 C1076 0.929 . S
H1073 C1082 0.929 . S
C1074 H1068 0.930 . S
C1074 C1075 1.367 . S
C1074 C1082 1.378 . S
C1075 C1074 1.367 . S
C1075 C1083 1.433 . S
C1076 H1072 0.929 . S
C1076 C1078 1.378 . S
C1076 C1080 1.350 . S
C1077 C1080 1.463 . S
C1077 C1082 1.350 . S
C1077 N1085 1.427 . S
C1078 H1069 0.930 . S
C1078 C1076 1.378 . S
C1078 C1079 1.367 . S
C1079 C1078 1.367 . S
C1079 C1081 1.433 . S
C1080 C1076 1.350 . S
C1080 C1077 1.463 . S
C1080 N1084 1.427 . S
C1081 H1071 0.929 . S
C1081 C1079 1.433 . S
C1081 N1084 1.384 . S
C1082 H1073 0.929 . S
C1082 C1074 1.378 . S
C1082 C1077 1.350 . S
C1083 H1070 0.929 . S
C1083 C1075 1.433 . S
C1083 N1085 1.384 . S
N1084 C1080 1.427 . S
N1084 C1081 1.384 . S
N1085 C1077 1.427 . S
N1085 C1083 1.384 . S
H1086 C1092 0.930 . S
H1087 C1096 0.930 . S
H1088 C1101 0.929 . S
H1089 C1099 0.929 . S
H1090 C1094 0.929 . S
H1091 C1100 0.929 . S
C1092 H1086 0.930 . S
C1092 C1093 1.367 . S
C1092 C1100 1.378 . S
C1093 C1092 1.367 . S
C1093 C1101 1.433 . S
C1094 H1090 0.929 . S
C1094 C1096 1.378 . S
C1094 C1098 1.350 . S
C1095 C1098 1.463 . S
C1095 C1100 1.350 . S
C1095 N1103 1.427 . S
C1096 H1087 0.930 . S
C1096 C1094 1.378 . S
C1096 C1097 1.367 . S
C1097 C1096 1.367 . S
C1097 C1099 1.433 . S
C1098 C1094 1.350 . S
C1098 C1095 1.463 . S
C1098 N1102 1.427 . S
C1099 H1089 0.929 . S
C1099 C1097 1.433 . S
C1099 N1102 1.384 . S
C1100 H1091 0.929 . S
C1100 C1092 1.378 . S
C1100 C1095 1.350 . S
C1101 H1088 0.929 . S
C1101 C1093 1.433 . S
C1101 N1103 1.384 . S
N1102 C1098 1.427 . S
N1102 C1099 1.384 . S
N1103 C1095 1.427 . S
N1103 C1101 1.384 . S
C355 C21 1.465 . S
C359 C253 1.465 . S
C373 C50 1.479 . S
C377 C282 1.479 . S
C391 C311 1.459 . S
C395 C79 1.459 . S
C409 C108 1.474 . S
C413 C340 1.474 . S
C427 C137 1.475 . S
C431 C195 1.475 . S
C445 C166 1.466 . S
C449 C224 1.466 . S
C463 C148 0.451 . S
C467 C15 0.535 . S
C481 C44 0.512 . S
C485 C3 0.447 . S
C499 C73 0.511 . S
C503 C32 0.446 . S
C517 C61 0.448 . S
C521 C102 0.496 . S
C535 C90 0.455 . S
C539 C131 0.483 . S
C553 C119 0.452 . S
C557 C160 0.519 . S
C571 C189 0.496 . S
C575 C206 0.448 . S
C589 C235 0.457 . S
C593 C218 0.498 1_554 S
C607 C264 0.459 . S
C611 C247 0.480 . S
C625 C293 0.462 . S
C629 C276 0.482 . S
C643 C322 0.460 . S
C647 C305 0.508 . S
C661 C334 0.499 . S
C665 C177 0.463 . S
C679 C8 0.549 . S
C683 C182 0.546 . S
C697 C37 0.530 . S
C701 C211 0.569 . S
C715 C240 0.534 . S
C719 C66 0.574 . S
C733 C269 0.574 . S
C737 C95 0.535 . S
C751 C124 0.544 . S
C755 C298 0.569 . S
C769 C153 0.574 . S
C773 C327 0.530 . S
C787 C245 1.649 . S
C791 C13 1.651 . S
C805 C274 1.655 . S
C809 C42 1.662 . S
C823 C303 1.660 . S
C827 C71 1.659 . S
C841 C100 1.660 . S
C845 C332 1.650 . S
C859 C187 1.658 . S
C863 C129 1.648 . S
C877 C216 1.658 . S
C881 C158 1.661 . S
C895 C208 3.151 . S
C899 C10 3.273 . S
C913 C237 3.151 . S
C917 C39 3.273 1_455 S
C931 C266 3.145 . S
C935 C68 3.273 1_545 S
C949 C295 3.148 . S
C953 C97 3.274 . S
C967 C324 3.151 . S
C971 C126 3.273 1_655 S
C985 C179 3.153 . S
C989 C155 3.274 1_565 S
C1003 C184 3.273 . S
C1007 C150 3.145 . S
C1021 C213 3.273 1_455 S
C1025 C5 3.145 . S
C1039 C34 3.146 . S
C1043 C242 3.273 1_545 S
C1057 C63 3.149 . S
C1061 C271 3.274 . S
C1075 C300 3.273 1_655 S
C1079 C92 3.147 . S
C1093 C121 3.146 . S
C1097 C329 3.273 1_565 S
