# Generated by pormake.
# Topology uoe, (4)-cn, num edge types: 1
# Building blocks:
#     Node 0, Type 0, BuildingBlock: NAWXER_clean_sbu_0, # of connection points: 4
#     Node 1, Type 0, BuildingBlock: NAWXER_clean_sbu_0, # of connection points: 4
#     Node 2, Type 0, BuildingBlock: NAWXER_clean_sbu_0, # of connection points: 4
#     Node 3, Type 0, BuildingBlock: NAWXER_clean_sbu_0, # of connection points: 4
#     Node 4, Type 0, BuildingBlock: NAWXER_clean_sbu_0, # of connection points: 4
#     Node 5, Type 0, BuildingBlock: NAWXER_clean_sbu_0, # of connection points: 4
#     Node 6, Type 0, BuildingBlock: NAWXER_clean_sbu_0, # of connection points: 4
#     Node 7, Type 0, BuildingBlock: NAWXER_clean_sbu_0, # of connection points: 4
#     Node 8, Type 0, BuildingBlock: NAWXER_clean_sbu_0, # of connection points: 4
#     Node 9, Type 0, BuildingBlock: NAWXER_clean_sbu_0, # of connection points: 4
#     Node 10, Type 0, BuildingBlock: NAWXER_clean_sbu_0, # of connection points: 4
#     Node 11, Type 0, BuildingBlock: NAWXER_clean_sbu_0, # of connection points: 4
#     Node 12, Type 0, BuildingBlock: NAWXER_clean_sbu_0, # of connection points: 4
#     Node 13, Type 0, BuildingBlock: NAWXER_clean_sbu_0, # of connection points: 4
#     Node 14, Type 0, BuildingBlock: NAWXER_clean_sbu_0, # of connection points: 4
#     Node 15, Type 0, BuildingBlock: NAWXER_clean_sbu_0, # of connection points: 4
#     Node 16, Type 0, BuildingBlock: NAWXER_clean_sbu_0, # of connection points: 4
#     Node 17, Type 0, BuildingBlock: NAWXER_clean_sbu_0, # of connection points: 4
#     Node 18, Type 0, BuildingBlock: NAWXER_clean_sbu_0, # of connection points: 4
#     Node 19, Type 0, BuildingBlock: NAWXER_clean_sbu_0, # of connection points: 4
#     Node 20, Type 0, BuildingBlock: NAWXER_clean_sbu_0, # of connection points: 4
#     Node 21, Type 0, BuildingBlock: NAWXER_clean_sbu_0, # of connection points: 4
#     Node 22, Type 0, BuildingBlock: NAWXER_clean_sbu_0, # of connection points: 4
#     Node 23, Type 0, BuildingBlock: NAWXER_clean_sbu_0, # of connection points: 4
#     Node 24, Type 0, BuildingBlock: NAWXER_clean_sbu_0, # of connection points: 4
#     Node 25, Type 0, BuildingBlock: NAWXER_clean_sbu_0, # of connection points: 4
#     Node 26, Type 0, BuildingBlock: NAWXER_clean_sbu_0, # of connection points: 4
#     Node 27, Type 0, BuildingBlock: NAWXER_clean_sbu_0, # of connection points: 4
#     Node 28, Type 0, BuildingBlock: NAWXER_clean_sbu_0, # of connection points: 4
#     Node 29, Type 0, BuildingBlock: NAWXER_clean_sbu_0, # of connection points: 4
#     Node 30, Type 0, BuildingBlock: NAWXER_clean_sbu_0, # of connection points: 4
#     Node 31, Type 0, BuildingBlock: NAWXER_clean_sbu_0, # of connection points: 4
#     Edge 32, Type (0, 0), BuildingBlock: MIFKUJ_clean_linker_0, # of connection points: 2
#     Edge 33, Type (0, 0), BuildingBlock: MIFKUJ_clean_linker_0, # of connection points: 2
#     Edge 34, Type (0, 0), BuildingBlock: MIFKUJ_clean_linker_0, # of connection points: 2
#     Edge 35, Type (0, 0), BuildingBlock: MIFKUJ_clean_linker_0, # of connection points: 2
#     Edge 36, Type (0, 0), BuildingBlock: MIFKUJ_clean_linker_0, # of connection points: 2
#     Edge 37, Type (0, 0), BuildingBlock: MIFKUJ_clean_linker_0, # of connection points: 2
#     Edge 38, Type (0, 0), BuildingBlock: MIFKUJ_clean_linker_0, # of connection points: 2
#     Edge 39, Type (0, 0), BuildingBlock: MIFKUJ_clean_linker_0, # of connection points: 2
#     Edge 40, Type (0, 0), BuildingBlock: MIFKUJ_clean_linker_0, # of connection points: 2
#     Edge 41, Type (0, 0), BuildingBlock: MIFKUJ_clean_linker_0, # of connection points: 2
#     Edge 42, Type (0, 0), BuildingBlock: MIFKUJ_clean_linker_0, # of connection points: 2
#     Edge 43, Type (0, 0), BuildingBlock: MIFKUJ_clean_linker_0, # of connection points: 2
#     Edge 44, Type (0, 0), BuildingBlock: MIFKUJ_clean_linker_0, # of connection points: 2
#     Edge 45, Type (0, 0), BuildingBlock: MIFKUJ_clean_linker_0, # of connection points: 2
#     Edge 46, Type (0, 0), BuildingBlock: MIFKUJ_clean_linker_0, # of connection points: 2
#     Edge 47, Type (0, 0), BuildingBlock: MIFKUJ_clean_linker_0, # of connection points: 2
#     Edge 48, Type (0, 0), BuildingBlock: MIFKUJ_clean_linker_0, # of connection points: 2
#     Edge 49, Type (0, 0), BuildingBlock: MIFKUJ_clean_linker_0, # of connection points: 2
#     Edge 50, Type (0, 0), BuildingBlock: MIFKUJ_clean_linker_0, # of connection points: 2
#     Edge 51, Type (0, 0), BuildingBlock: MIFKUJ_clean_linker_0, # of connection points: 2
#     Edge 52, Type (0, 0), BuildingBlock: MIFKUJ_clean_linker_0, # of connection points: 2
#     Edge 53, Type (0, 0), BuildingBlock: MIFKUJ_clean_linker_0, # of connection points: 2
#     Edge 54, Type (0, 0), BuildingBlock: MIFKUJ_clean_linker_0, # of connection points: 2
#     Edge 55, Type (0, 0), BuildingBlock: MIFKUJ_clean_linker_0, # of connection points: 2
#     Edge 56, Type (0, 0), BuildingBlock: MIFKUJ_clean_linker_0, # of connection points: 2
#     Edge 57, Type (0, 0), BuildingBlock: MIFKUJ_clean_linker_0, # of connection points: 2
#     Edge 58, Type (0, 0), BuildingBlock: MIFKUJ_clean_linker_0, # of connection points: 2
#     Edge 59, Type (0, 0), BuildingBlock: MIFKUJ_clean_linker_0, # of connection points: 2
#     Edge 60, Type (0, 0), BuildingBlock: MIFKUJ_clean_linker_0, # of connection points: 2
#     Edge 61, Type (0, 0), BuildingBlock: MIFKUJ_clean_linker_0, # of connection points: 2
#     Edge 62, Type (0, 0), BuildingBlock: MIFKUJ_clean_linker_0, # of connection points: 2
#     Edge 63, Type (0, 0), BuildingBlock: MIFKUJ_clean_linker_0, # of connection points: 2
#     Edge 64, Type (0, 0), BuildingBlock: MIFKUJ_clean_linker_0, # of connection points: 2
#     Edge 65, Type (0, 0), BuildingBlock: MIFKUJ_clean_linker_0, # of connection points: 2
#     Edge 66, Type (0, 0), BuildingBlock: MIFKUJ_clean_linker_0, # of connection points: 2
#     Edge 67, Type (0, 0), BuildingBlock: MIFKUJ_clean_linker_0, # of connection points: 2
#     Edge 68, Type (0, 0), BuildingBlock: MIFKUJ_clean_linker_0, # of connection points: 2
#     Edge 69, Type (0, 0), BuildingBlock: MIFKUJ_clean_linker_0, # of connection points: 2
#     Edge 70, Type (0, 0), BuildingBlock: MIFKUJ_clean_linker_0, # of connection points: 2
#     Edge 71, Type (0, 0), BuildingBlock: MIFKUJ_clean_linker_0, # of connection points: 2
#     Edge 72, Type (0, 0), BuildingBlock: MIFKUJ_clean_linker_0, # of connection points: 2
#     Edge 73, Type (0, 0), BuildingBlock: MIFKUJ_clean_linker_0, # of connection points: 2
#     Edge 74, Type (0, 0), BuildingBlock: MIFKUJ_clean_linker_0, # of connection points: 2
#     Edge 75, Type (0, 0), BuildingBlock: MIFKUJ_clean_linker_0, # of connection points: 2
#     Edge 76, Type (0, 0), BuildingBlock: MIFKUJ_clean_linker_0, # of connection points: 2
#     Edge 77, Type (0, 0), BuildingBlock: MIFKUJ_clean_linker_0, # of connection points: 2
#     Edge 78, Type (0, 0), BuildingBlock: MIFKUJ_clean_linker_0, # of connection points: 2
#     Edge 79, Type (0, 0), BuildingBlock: MIFKUJ_clean_linker_0, # of connection points: 2
#     Edge 80, Type (0, 0), BuildingBlock: MIFKUJ_clean_linker_0, # of connection points: 2
#     Edge 81, Type (0, 0), BuildingBlock: MIFKUJ_clean_linker_0, # of connection points: 2
#     Edge 82, Type (0, 0), BuildingBlock: MIFKUJ_clean_linker_0, # of connection points: 2
#     Edge 83, Type (0, 0), BuildingBlock: MIFKUJ_clean_linker_0, # of connection points: 2
#     Edge 84, Type (0, 0), BuildingBlock: MIFKUJ_clean_linker_0, # of connection points: 2
#     Edge 85, Type (0, 0), BuildingBlock: MIFKUJ_clean_linker_0, # of connection points: 2
#     Edge 86, Type (0, 0), BuildingBlock: MIFKUJ_clean_linker_0, # of connection points: 2
#     Edge 87, Type (0, 0), BuildingBlock: MIFKUJ_clean_linker_0, # of connection points: 2
#     Edge 88, Type (0, 0), BuildingBlock: MIFKUJ_clean_linker_0, # of connection points: 2
#     Edge 89, Type (0, 0), BuildingBlock: MIFKUJ_clean_linker_0, # of connection points: 2
#     Edge 90, Type (0, 0), BuildingBlock: MIFKUJ_clean_linker_0, # of connection points: 2
#     Edge 91, Type (0, 0), BuildingBlock: MIFKUJ_clean_linker_0, # of connection points: 2
#     Edge 92, Type (0, 0), BuildingBlock: MIFKUJ_clean_linker_0, # of connection points: 2
#     Edge 93, Type (0, 0), BuildingBlock: MIFKUJ_clean_linker_0, # of connection points: 2
#     Edge 94, Type (0, 0), BuildingBlock: MIFKUJ_clean_linker_0, # of connection points: 2
#     Edge 95, Type (0, 0), BuildingBlock: MIFKUJ_clean_linker_0, # of connection points: 2
# Relax obj value: 0.105
# Max RMSD: 0.239
# Mean RMSD: 0.239
data_MOF--net-uoe--node1-NAWXER_clean_sbu_0--edge1-MIFKUJ_clean_linker_0
_symmetry_space_group_name_H-M    P1
_symmetry_Int_Tables_number       1
_symmetry_cell_setting            triclinic
loop_
_symmetry_equiv_pos_as_xyz
'x, y, z'
_cell_length_a     96.306849
_cell_length_b     96.322016
_cell_length_c     37.277941
_cell_angle_alpha  89.993166
_cell_angle_beta   89.995635
_cell_angle_gamma 89.987659
loop_
_atom_site_label
_atom_site_type_symbol
_atom_site_fract_x
_atom_site_fract_y
_atom_site_fract_z
_atom_type_partial_charge
C0 C 0.11327 0.44865 0.07804 0.0
C1 C 0.06979 0.47184 0.04935 0.0
O2 O 0.11486 0.46188 0.07734 0.0
Zn3 Zn 0.10199 0.47955 0.06336 0.0
O4 O 0.10192 0.44347 0.06715 0.0
Zn5 Zn 0.09205 0.4605 0.05841 0.0
O6 O 0.09976 0.4688 0.00809 0.0
O7 O 0.11026 0.48826 0.02281 0.0
O8 O 0.07242 0.45892 0.04977 0.0
O9 O 0.07976 0.48056 0.05342 0.0
O10 O 0.10287 0.49001 0.1065 0.0
O11 O 0.09195 0.46992 0.11175 0.0
C12 C 0.10651 0.47974 -0.00113 0.0
C13 C 0.09643 0.48126 0.12577 0.0
C14 C 0.77723 0.82198 0.30163 0.0
C15 C 0.80202 0.86434 0.33196 0.0
O16 O 0.76889 0.83236 0.3042 0.0
Zn17 Zn 0.77087 0.85466 0.31421 0.0
O18 O 0.79022 0.82395 0.30453 0.0
Zn19 Zn 0.78931 0.84355 0.31225 0.0
O20 O 0.77875 0.84414 0.36426 0.0
O21 O 0.75964 0.85642 0.35601 0.0
O22 O 0.80672 0.85267 0.32193 0.0
O23 O 0.7889 0.86658 0.33007 0.0
O24 O 0.76362 0.86336 0.272 0.0
O25 O 0.78217 0.85083 0.26037 0.0
C26 C 0.76746 0.84943 0.37666 0.0
C27 C 0.77205 0.85839 0.24933 0.0
C28 C 0.40042 0.51813 0.62878 0.0
C29 C 0.39363 0.5213 0.50104 0.0
O30 O 0.40572 0.52945 0.61667 0.0
Zn31 Zn 0.40737 0.5394 0.56385 0.0
O32 O 0.39413 0.50991 0.60771 0.0
Zn33 Zn 0.39658 0.52085 0.56603 0.0
O34 O 0.41901 0.51894 0.5597 0.0
O35 O 0.42718 0.54031 0.55835 0.0
O36 O 0.38894 0.51282 0.52394 0.0
O37 O 0.40059 0.53188 0.51181 0.0
O38 O 0.39813 0.5568 0.5717 0.0
O39 O 0.38415 0.53898 0.57932 0.0
C40 C 0.42937 0.52731 0.55765 0.0
C41 C 0.38634 0.55212 0.58079 0.0
C42 C 0.73713 0.15448 0.87504 0.0
C43 C 0.73233 0.1456 0.74843 0.0
O44 O 0.72566 0.15957 0.8632 0.0
Zn45 Zn 0.71478 0.15991 0.81147 0.0
O46 O 0.74488 0.1475 0.85421 0.0
Zn47 Zn 0.73343 0.14922 0.81319 0.0
O48 O 0.735 0.17159 0.80449 0.0
O49 O 0.71353 0.1796 0.80408 0.0
O50 O 0.74098 0.14106 0.77112 0.0
O51 O 0.72186 0.15268 0.75939 0.0
O52 O 0.69763 0.15045 0.82214 0.0
O53 O 0.71573 0.13685 0.82948 0.0
C54 C 0.72651 0.18185 0.80218 0.0
C55 C 0.7026 0.13887 0.83198 0.0
C56 C 0.09547 0.51364 0.49922 0.0
C57 C 0.10466 0.51688 0.62609 0.0
O58 O 0.09087 0.52521 0.51168 0.0
Zn59 Zn 0.09052 0.53533 0.56447 0.0
O60 O 0.10186 0.50527 0.51971 0.0
Zn61 Zn 0.10057 0.51635 0.56149 0.0
O62 O 0.07826 0.51533 0.57015 0.0
O63 O 0.07085 0.53696 0.57235 0.0
O64 O 0.10846 0.50804 0.603 0.0
O65 O 0.09802 0.52775 0.61582 0.0
O66 O 0.10025 0.55235 0.55543 0.0
O67 O 0.1135 0.53402 0.54701 0.0
C68 C 0.06824 0.52404 0.57328 0.0
C69 C 0.11178 0.54724 0.54562 0.0
C70 C 0.72983 0.85831 0.87939 0.0
C71 C 0.73538 0.85037 0.75203 0.0
O72 O 0.71982 0.85078 0.86766 0.0
Zn73 Zn 0.71297 0.84409 0.81509 0.0
O74 O 0.73836 0.86347 0.85725 0.0
Zn75 Zn 0.73149 0.85505 0.81425 0.0
O76 O 0.71372 0.86711 0.79709 0.0
O77 O 0.69566 0.85353 0.8051 0.0
O78 O 0.74313 0.85713 0.77339 0.0
O79 O 0.72395 0.84508 0.76355 0.0
O80 O 0.71192 0.82439 0.82116 0.0
O81 O 0.73332 0.83258 0.82235 0.0
C82 C 0.70059 0.86506 0.79479 0.0
C83 C 0.7249 0.82223 0.82376 0.0
C84 C 0.38985 0.45216 0.05008 0.0
C85 C 0.43379 0.47476 0.07685 0.0
O86 O 0.38843 0.46541 0.05094 0.0
Zn87 Zn 0.40159 0.4829 0.06499 0.0
O88 O 0.4012 0.44684 0.06055 0.0
Zn89 Zn 0.4113 0.46376 0.06869 0.0
O90 O 0.40403 0.47184 0.11976 0.0
O91 O 0.39372 0.4915 0.10599 0.0
O92 O 0.43096 0.46189 0.07613 0.0
O93 O 0.42392 0.48364 0.07358 0.0
O94 O 0.40028 0.49366 0.02277 0.0
O95 O 0.41082 0.47346 0.01539 0.0
C96 C 0.39748 0.48282 0.12952 0.0
C97 C 0.40626 0.48496 0.0024 0.0
C98 C 0.77818 0.18406 0.32282 0.0
C99 C 0.80304 0.1411 0.29888 0.0
O100 O 0.7698 0.17376 0.31957 0.0
Zn101 Zn 0.7717 0.1514 0.31185 0.0
O102 O 0.79118 0.18186 0.32267 0.0
Zn103 Zn 0.79025 0.16213 0.31589 0.0
O104 O 0.78085 0.16109 0.26233 0.0
O105 O 0.76138 0.14924 0.26915 0.0
O106 O 0.80771 0.15281 0.30872 0.0
O107 O 0.78988 0.13901 0.29942 0.0
O108 O 0.76312 0.14344 0.35278 0.0
O109 O 0.78206 0.15495 0.36702 0.0
C110 C 0.76973 0.1558 0.24899 0.0
C111 C 0.77133 0.14794 0.37657 0.0
C112 C 0.90268 0.51488 0.99589 0.0
C113 C 0.89318 0.51792 0.12293 0.0
O114 O 0.89542 0.50692 0.01553 0.0
Zn115 Zn 0.89734 0.51748 0.05827 0.0
O116 O 0.90803 0.52595 0.0093 0.0
Zn117 Zn 0.90828 0.53597 0.06205 0.0
O118 O 0.92791 0.53673 0.07056 0.0
O119 O 0.91964 0.51541 0.0675 0.0
O120 O 0.90032 0.52851 0.11297 0.0
O121 O 0.88901 0.50935 0.09959 0.0
O122 O 0.88528 0.53569 0.04424 0.0
O123 O 0.89924 0.55344 0.05281 0.0
C124 C 0.92999 0.52371 0.07118 0.0
C125 C 0.88752 0.54882 0.04291 0.0
C126 C 0.23276 0.14576 0.87619 0.0
C127 C 0.23583 0.15632 0.74988 0.0
O128 O 0.24167 0.14225 0.85292 0.0
Zn129 Zn 0.23339 0.15058 0.81196 0.0
O130 O 0.22188 0.15244 0.86626 0.0
Zn131 Zn 0.21421 0.1604 0.81556 0.0
O132 O 0.19736 0.15043 0.8051 0.0
O133 O 0.21599 0.13764 0.79638 0.0
O134 O 0.22432 0.16073 0.76308 0.0
O135 O 0.24434 0.1498 0.76971 0.0
O136 O 0.23413 0.17276 0.82236 0.0
O137 O 0.21243 0.18001 0.82454 0.0
C138 C 0.20277 0.13913 0.79455 0.0
C139 C 0.22534 0.18269 0.82595 0.0
C140 C 0.60584 0.48267 0.63073 0.0
C141 C 0.59722 0.48314 0.50307 0.0
O142 O 0.6097 0.49109 0.60667 0.0
Zn143 Zn 0.6018 0.48209 0.56614 0.0
O144 O 0.59911 0.4717 0.62169 0.0
Zn145 Zn 0.59148 0.46324 0.57146 0.0
O146 O 0.60111 0.44594 0.56411 0.0
O147 O 0.61452 0.4641 0.55479 0.0
O148 O 0.59212 0.47217 0.5176 0.0
O149 O 0.60374 0.49187 0.52226 0.0
O150 O 0.57949 0.48361 0.57413 0.0
O151 O 0.57175 0.46216 0.57919 0.0
C152 C 0.61273 0.4509 0.55437 0.0
C153 C 0.56934 0.47512 0.57831 0.0
C154 C 0.26909 0.84397 0.2499 0.0
C155 C 0.27156 0.85387 0.37653 0.0
O156 O 0.26031 0.84994 0.27007 0.0
Zn157 Zn 0.27134 0.84936 0.31209 0.0
O158 O 0.28079 0.83988 0.26273 0.0
Zn159 Zn 0.29063 0.83991 0.31577 0.0
O160 O 0.29274 0.82027 0.32391 0.0
O161 O 0.27093 0.82714 0.32207 0.0
O162 O 0.28258 0.84737 0.36676 0.0
O163 O 0.26279 0.85743 0.35302 0.0
O164 O 0.28863 0.8627 0.29699 0.0
O165 O 0.30738 0.8502 0.30673 0.0
C166 C 0.2799 0.81736 0.32538 0.0
C167 C 0.3019 0.86143 0.29593 0.0
C168 C 0.90083 0.48315 0.6234 0.0
C169 C 0.89099 0.48127 0.49626 0.0
O170 O 0.89368 0.49143 0.60438 0.0
Zn171 Zn 0.89523 0.48119 0.56097 0.0
O172 O 0.90591 0.4721 0.60922 0.0
Zn173 Zn 0.90583 0.46247 0.55609 0.0
O174 O 0.92544 0.4614 0.54723 0.0
O175 O 0.91754 0.48284 0.55157 0.0
O176 O 0.89799 0.47052 0.50569 0.0
O177 O 0.8869 0.48969 0.52009 0.0
O178 O 0.88287 0.4632 0.57444 0.0
O179 O 0.89641 0.44516 0.56505 0.0
C180 C 0.92774 0.47439 0.54731 0.0
C181 C 0.88484 0.45003 0.57537 0.0
C182 C 0.26662 0.15427 0.37564 0.0
C183 C 0.26896 0.14418 0.24913 0.0
O184 O 0.25794 0.14795 0.35589 0.0
Zn185 Zn 0.26879 0.14873 0.31352 0.0
O186 O 0.27815 0.15863 0.3624 0.0
Zn187 Zn 0.28789 0.1586 0.30931 0.0
O188 O 0.28954 0.17826 0.30067 0.0
O189 O 0.26789 0.17094 0.30363 0.0
O190 O 0.27988 0.15087 0.25868 0.0
O191 O 0.26029 0.14049 0.27277 0.0
O192 O 0.28637 0.1358 0.32828 0.0
O193 O 0.30485 0.1487 0.31851 0.0
C194 C 0.27662 0.18091 0.29985 0.0
C195 C 0.29961 0.13736 0.32932 0.0
C196 C 0.61084 0.51917 0.00377 0.0
C197 C 0.60196 0.51499 0.13068 0.0
O198 O 0.61537 0.51054 0.02654 0.0
Zn199 Zn 0.60719 0.51827 0.06855 0.0
O200 O 0.60366 0.5296 0.01457 0.0
Zn201 Zn 0.59611 0.53672 0.06616 0.0
O202 O 0.60517 0.55411 0.07612 0.0
O203 O 0.61927 0.53636 0.083 0.0
O204 O 0.59644 0.52612 0.11806 0.0
O205 O 0.60941 0.50736 0.11064 0.0
O206 O 0.58478 0.51623 0.05986 0.0
O207 O 0.5765 0.53759 0.05826 0.0
C208 C 0.61698 0.54946 0.08515 0.0
C209 C 0.57441 0.52457 0.05698 0.0
C210 C 0.22601 0.82124 0.80567 0.0
C211 C 0.20217 0.86497 0.82756 0.0
O212 O 0.21307 0.82376 0.80484 0.0
Zn213 Zn 0.21441 0.84357 0.81067 0.0
O214 O 0.23462 0.83138 0.80841 0.0
Zn215 Zn 0.23323 0.85389 0.81382 0.0
O216 O 0.24385 0.85629 0.85608 0.0
O217 O 0.22417 0.84483 0.86389 0.0
O218 O 0.21538 0.86675 0.82654 0.0
O219 O 0.19719 0.85335 0.81811 0.0
O220 O 0.22236 0.8502 0.759 0.0
O221 O 0.24172 0.86121 0.77177 0.0
C222 C 0.23545 0.85 0.8767 0.0
C223 C 0.2332 0.85683 0.74859 0.0
C224 C 0.56769 0.97449 0.55294 0.0
C225 C 0.61082 0.94996 0.57818 0.0
O226 O 0.57799 0.98286 0.55583 0.0
Zn227 Zn 0.60025 0.98115 0.56363 0.0
O228 O 0.5699 0.96149 0.5535 0.0
Zn229 Zn 0.58973 0.9624 0.56032 0.0
O230 O 0.59088 0.97199 0.61346 0.0
O231 O 0.60209 0.99184 0.60589 0.0
O232 O 0.59914 0.94508 0.56871 0.0
O233 O 0.61281 0.96313 0.57683 0.0
O234 O 0.60821 0.98948 0.52246 0.0
O235 O 0.5972 0.97015 0.50906 0.0
C236 C 0.59587 0.98332 0.62629 0.0
C237 C 0.6041 0.9809 0.49909 0.0
C238 C 0.27879 0.32176 0.80454 0.0
C239 C 0.30335 0.36461 0.83256 0.0
O240 O 0.27045 0.33214 0.80668 0.0
Zn241 Zn 0.27222 0.35443 0.81581 0.0
O242 O 0.29178 0.32379 0.80732 0.0
Zn243 Zn 0.29084 0.34352 0.81414 0.0
O244 O 0.28051 0.34451 0.86625 0.0
O245 O 0.26096 0.35608 0.85769 0.0
O246 O 0.30815 0.35288 0.82327 0.0
O247 O 0.2902 0.36672 0.83068 0.0
O248 O 0.26478 0.36271 0.77332 0.0
O249 O 0.28359 0.3505 0.76211 0.0
C250 C 0.26909 0.34953 0.8785 0.0
C251 C 0.27332 0.35781 0.75082 0.0
C252 C 0.89566 0.02373 0.99768 0.0
C253 C 0.90287 0.02044 0.12605 0.0
O254 O 0.90329 0.03377 0.00875 0.0
Zn255 Zn 0.91009 0.04129 0.06041 0.0
O256 O 0.89024 0.01557 0.02035 0.0
Zn257 Zn 0.8985 0.02302 0.06304 0.0
O258 O 0.8869 0.04138 0.0767 0.0
O259 O 0.90106 0.05899 0.06858 0.0
O260 O 0.89581 0.01251 0.10582 0.0
O261 O 0.90864 0.03135 0.11292 0.0
O262 O 0.92987 0.04147 0.05436 0.0
O263 O 0.92087 0.02039 0.0562 0.0
C264 C 0.88925 0.05446 0.07814 0.0
C265 C 0.93153 0.02837 0.0538 0.0
C266 C 0.23168 0.64095 0.25618 0.0
C267 C 0.23702 0.65007 0.38295 0.0
O268 O 0.2217 0.64864 0.26744 0.0
Zn269 Zn 0.21504 0.65629 0.31927 0.0
O270 O 0.24025 0.63605 0.27861 0.0
Zn271 Zn 0.23326 0.64475 0.32095 0.0
O272 O 0.21506 0.63319 0.33668 0.0
O273 O 0.1975 0.64752 0.33004 0.0
O274 O 0.24441 0.64245 0.36272 0.0
O275 O 0.22594 0.65578 0.37063 0.0
O276 O 0.21459 0.67591 0.31136 0.0
O277 O 0.23576 0.66709 0.31157 0.0
C278 C 0.20202 0.63568 0.33926 0.0
C279 C 0.22764 0.67766 0.30912 0.0
C280 C 0.57268 0.02599 0.07083 0.0
C281 C 0.61615 0.05021 0.04797 0.0
O282 O 0.58289 0.01748 0.06797 0.0
Zn283 Zn 0.60538 0.01908 0.06214 0.0
O284 O 0.57506 0.03896 0.07139 0.0
Zn285 Zn 0.59487 0.03779 0.0652 0.0
O286 O 0.59617 0.02795 0.01208 0.0
O287 O 0.60777 0.00836 0.02027 0.0
O288 O 0.60449 0.05509 0.05756 0.0
O289 O 0.61805 0.03702 0.04903 0.0
O290 O 0.61292 0.01072 0.10394 0.0
O291 O 0.60163 0.02992 0.11684 0.0
C292 C 0.60141 0.01665 -0.00047 0.0
C293 C 0.60842 0.01916 0.12716 0.0
C294 C 0.23457 0.35075 0.25219 0.0
C295 C 0.23098 0.35643 0.38085 0.0
O296 O 0.22331 0.34526 0.26415 0.0
Zn297 Zn 0.21327 0.3431 0.31669 0.0
O298 O 0.2428 0.35683 0.27369 0.0
Zn299 Zn 0.23187 0.35402 0.31551 0.0
O300 O 0.23378 0.33153 0.321 0.0
O301 O 0.21242 0.32326 0.3209 0.0
O302 O 0.23938 0.36174 0.35862 0.0
O303 O 0.22078 0.34914 0.36923 0.0
O304 O 0.19583 0.35268 0.30956 0.0
O305 O 0.21386 0.36639 0.30223 0.0
C306 C 0.22543 0.32113 0.3222 0.0
C307 C 0.20069 0.36443 0.30075 0.0
C308 C 0.89638 0.98192 0.62735 0.0
C309 C 0.90363 0.98647 0.49941 0.0
O310 O 0.90412 0.972 0.6159 0.0
Zn311 Zn 0.91118 0.96511 0.56367 0.0
O312 O 0.89104 0.99023 0.60495 0.0
Zn313 Zn 0.89937 0.98314 0.56215 0.0
O314 O 0.88793 0.96467 0.54797 0.0
O315 O 0.90258 0.94735 0.55443 0.0
O316 O 0.89632 0.99396 0.52014 0.0
O317 O 0.90969 0.97557 0.5117 0.0
O318 O 0.93089 0.96502 0.56984 0.0
O319 O 0.92178 0.98605 0.56927 0.0
C320 C 0.8906 0.95165 0.54572 0.0
C321 C 0.93249 0.9781 0.57123 0.0
C322 C 0.30079 0.63772 0.80527 0.0
C323 C 0.27615 0.68075 0.8312 0.0
O324 O 0.2876 0.63593 0.80596 0.0
Zn325 Zn 0.26959 0.6482 0.81916 0.0
O326 O 0.30578 0.64921 0.81586 0.0
Zn327 Zn 0.2884 0.65883 0.82394 0.0
O328 O 0.28034 0.65122 0.87431 0.0
O329 O 0.26122 0.63994 0.86052 0.0
O330 O 0.28917 0.67858 0.83189 0.0
O331 O 0.26783 0.67045 0.82721 0.0
O332 O 0.2595 0.64636 0.77556 0.0
O333 O 0.27905 0.65826 0.77055 0.0
C334 C 0.2697 0.64415 0.8841 0.0
C335 C 0.26804 0.65311 0.75629 0.0
C336 C 0.38439 0.0512 0.55424 0.0
C337 C 0.42823 0.02769 0.57841 0.0
O338 O 0.39586 0.0564 0.56427 0.0
Zn339 Zn 0.40589 0.03928 0.57163 0.0
O340 O 0.38286 0.03797 0.55494 0.0
Zn341 Zn 0.3958 0.02027 0.56804 0.0
O342 O 0.38808 0.0117 0.60929 0.0
O343 O 0.39897 0.03108 0.62283 0.0
O344 O 0.4181 0.0191 0.57556 0.0
O345 O 0.42574 0.04064 0.578 0.0
O346 O 0.40488 0.02976 0.51829 0.0
O347 O 0.39413 0.00964 0.52566 0.0
C348 C 0.39229 0.0202 0.63276 0.0
C349 C 0.40014 0.01835 0.50532 0.0
C350 C 0.73453 0.64585 0.37803 0.0
C351 C 0.73649 0.65655 0.25161 0.0
O352 O 0.74324 0.64238 0.35426 0.0
Zn353 Zn 0.73446 0.65053 0.31364 0.0
O354 O 0.72347 0.65236 0.36869 0.0
Zn355 Zn 0.71521 0.66007 0.31838 0.0
O356 O 0.69845 0.64981 0.30909 0.0
O357 O 0.71717 0.63736 0.2987 0.0
O358 O 0.72501 0.66081 0.26538 0.0
O359 O 0.74512 0.64994 0.27089 0.0
O360 O 0.73489 0.67278 0.32394 0.0
O361 O 0.71306 0.67957 0.32754 0.0
C362 C 0.7039 0.63864 0.29789 0.0
C363 C 0.72592 0.68252 0.32805 0.0
C364 C 0.11419 0.9516 0.04467 0.0
C365 C 0.07108 0.97545 0.07366 0.0
O366 O 0.10261 0.94662 0.05453 0.0
Zn367 Zn 0.09316 0.9638 0.06473 0.0
O368 O 0.11615 0.96476 0.0469 0.0
Zn369 Zn 0.10366 0.98253 0.06255 0.0
O370 O 0.11177 0.99027 0.1045 0.0
O371 O 0.10064 0.97091 0.11654 0.0
O372 O 0.08125 0.98402 0.0708 0.0
O373 O 0.07348 0.96249 0.0725 0.0
O374 O 0.09372 0.97438 0.01246 0.0
O375 O 0.1055 0.99379 0.02121 0.0
C376 C 0.10761 0.98149 0.1273 0.0
C377 C 0.09882 0.9858 0.00033 0.0
C378 C 0.76858 0.35839 0.8821 0.0
C379 C 0.76692 0.34679 0.75615 0.0
O380 O 0.75982 0.36157 0.85816 0.0
Zn381 Zn 0.76862 0.35307 0.81803 0.0
O382 O 0.77969 0.35189 0.8731 0.0
Zn383 Zn 0.78806 0.34384 0.8233 0.0
O384 O 0.80475 0.35428 0.81398 0.0
O385 O 0.78582 0.36628 0.80231 0.0
O386 O 0.77854 0.34299 0.77 0.0
O387 O 0.75792 0.35294 0.77531 0.0
O388 O 0.76839 0.33108 0.82987 0.0
O389 O 0.79021 0.3243 0.83339 0.0
C390 C 0.79911 0.36523 0.80184 0.0
C391 C 0.77735 0.32139 0.83452 0.0
C392 C 0.40303 0.98509 0.13163 0.0
C393 C 0.39584 0.98185 0.00422 0.0
O394 O 0.39669 0.99325 0.11051 0.0
Zn395 Zn 0.39919 0.98235 0.06905 0.0
O396 O 0.40836 0.97376 0.11953 0.0
Zn397 Zn 0.40981 0.96373 0.0666 0.0
O398 O 0.42962 0.96273 0.0601 0.0
O399 O 0.42163 0.98415 0.063 0.0
O400 O 0.40269 0.97115 0.01474 0.0
O401 O 0.39155 0.99049 0.02721 0.0
O402 O 0.38663 0.96431 0.08244 0.0
O403 O 0.40047 0.94637 0.07492 0.0
C404 C 0.4319 0.97571 0.06023 0.0
C405 C 0.38871 0.95115 0.08401 0.0
C406 C 0.76622 0.65622 0.87731 0.0
C407 C 0.77072 0.64579 0.75131 0.0
O408 O 0.75831 0.64924 0.85691 0.0
Zn409 Zn 0.76967 0.65033 0.8156 0.0
O410 O 0.77778 0.66096 0.86509 0.0
Zn411 Zn 0.78852 0.66063 0.8132 0.0
O412 O 0.7901 0.68019 0.80428 0.0
O413 O 0.7685 0.67259 0.80502 0.0
O414 O 0.78134 0.65278 0.76173 0.0
O415 O 0.76189 0.64184 0.77428 0.0
O416 O 0.78722 0.63773 0.83185 0.0
O417 O 0.80554 0.651 0.82405 0.0
C418 C 0.77717 0.68266 0.80196 0.0
C419 C 0.8004 0.63951 0.83403 0.0
C420 C 0.09932 0.019 0.62645 0.0
C421 C 0.10855 0.01987 0.49925 0.0
O422 O 0.1051 0.0099 0.60685 0.0
Zn423 Zn 0.10452 0.02045 0.56395 0.0
O424 O 0.09538 0.03062 0.61286 0.0
Zn425 Zn 0.09535 0.03987 0.55912 0.0
O426 O 0.07568 0.0422 0.5514 0.0
O427 O 0.08226 0.02033 0.55489 0.0
O428 O 0.10232 0.0311 0.50855 0.0
O429 O 0.11214 0.01128 0.52321 0.0
O430 O 0.11823 0.03766 0.57709 0.0
O431 O 0.10604 0.05652 0.56627 0.0
C432 C 0.07258 0.02938 0.55114 0.0
C433 C 0.11723 0.05096 0.577 0.0
C434 C 0.70146 0.3675 0.33391 0.0
C435 C 0.72532 0.32389 0.31048 0.0
O436 O 0.69639 0.35589 0.32463 0.0
Zn437 Zn 0.71362 0.34612 0.31718 0.0
O438 O 0.71468 0.36921 0.33283 0.0
Zn439 Zn 0.73252 0.35644 0.31975 0.0
O440 O 0.74074 0.36404 0.27768 0.0
O441 O 0.7213 0.35305 0.26549 0.0
O442 O 0.73388 0.33406 0.31288 0.0
O443 O 0.71236 0.32632 0.31119 0.0
O444 O 0.72346 0.34744 0.3702 0.0
O445 O 0.74325 0.35862 0.36196 0.0
C446 C 0.73203 0.35979 0.25479 0.0
C447 C 0.73481 0.35251 0.38281 0.0
H448 H 0.95437 0.53831 0.07036 0.0
H449 H 0.97794 0.52902 0.06678 0.0
H450 H 0.96178 0.48732 0.0718 0.0
H451 H 0.93812 0.49651 0.07547 0.0
H452 H 0.98544 0.49064 0.11304 0.0
H453 H 0.97046 0.50015 0.99311 0.0
H454 H 0.96075 0.51441 0.94426 0.0
H455 H 0.99443 0.54331 0.95509 0.0
H456 H 0.00423 0.52933 0.00446 0.0
H457 H 0.04591 0.45637 0.04986 0.0
H458 H 0.022 0.46487 0.05289 0.0
H459 H 0.0368 0.50708 0.04793 0.0
H460 H 0.06073 0.4987 0.04472 0.0
H461 H 0.01358 0.50302 0.00616 0.0
H462 H 0.02864 0.49296 0.12635 0.0
H463 H 0.03831 0.47812 0.17411 0.0
H464 H 0.00417 0.44983 0.16246 0.0
H465 H 0.9945 0.46427 0.11385 0.0
C466 C 0.95581 0.52716 0.07113 0.0
C467 C 0.94433 0.51815 0.07297 0.0
C468 C 0.96929 0.52187 0.06892 0.0
C469 C 0.97159 0.50748 0.06851 0.0
C470 C 0.96023 0.49846 0.07194 0.0
C471 C 0.94671 0.50374 0.07398 0.0
C472 C 0.9858 0.50187 0.06312 0.0
C473 C 0.99154 0.49319 0.08948 0.0
C474 C 0.99381 0.50538 0.03258 0.0
C475 C 0.988 0.51377 0.00274 0.0
C476 C 0.97574 0.50961 0.98529 0.0
C477 C 0.97022 0.51763 0.95747 0.0
C478 C 0.97695 0.52978 0.94663 0.0
C479 C 0.98922 0.53391 0.96355 0.0
C480 C 0.99476 0.52594 0.99144 0.0
C481 C 0.04409 0.46746 0.04897 0.0
C482 C 0.05525 0.47686 0.04727 0.0
C483 C 0.03041 0.4723 0.05087 0.0
C484 C 0.02764 0.48661 0.05114 0.0
C485 C 0.03871 0.496 0.04788 0.0
C486 C 0.05239 0.49118 0.04612 0.0
C487 C 0.01326 0.49184 0.05616 0.0
C488 C 0.00749 0.50045 0.02971 0.0
C489 C 0.00521 0.48822 0.08656 0.0
C490 C 0.01092 0.47963 0.11615 0.0
C491 C 0.02325 0.48351 0.13374 0.0
C492 C 0.02873 0.47518 0.161 0.0
C493 C 0.02186 0.46305 0.17133 0.0
C494 C 0.00949 0.45922 0.15441 0.0
C495 C 0.00402 0.46746 0.12695 0.0
H496 H 0.02611 0.45663 0.19248 0.0
H497 H 0.97267 0.53597 0.92508 0.0
H498 H 0.75032 0.81409 0.28941 0.0
H499 H 0.7409 0.79051 0.28999 0.0
H500 H 0.78202 0.77405 0.30723 0.0
H501 H 0.79157 0.79753 0.30578 0.0
H502 H 0.76703 0.75769 0.26194 0.0
H503 H 0.75984 0.78031 0.37703 0.0
H504 H 0.7511 0.79998 0.41281 0.0
H505 H 0.70953 0.79147 0.37741 0.0
H506 H 0.71809 0.77197 0.3406 0.0
H507 H 0.75246 0.69221 0.33438 0.0
H508 H 0.76038 0.71619 0.32885 0.0
H509 H 0.71795 0.72996 0.31812 0.0
H510 H 0.70991 0.706 0.32442 0.0
H511 H 0.73241 0.74798 0.3574 0.0
H512 H 0.73828 0.7255 0.24454 0.0
H513 H 0.74609 0.70711 0.2032 0.0
H514 H 0.78857 0.71579 0.22999 0.0
H515 H 0.781 0.7341 0.27199 0.0
C516 C 0.75739 0.80544 0.29286 0.0
C517 C 0.77168 0.80771 0.29798 0.0
C518 C 0.75198 0.79197 0.29325 0.0
C519 C 0.76073 0.78054 0.29936 0.0
C520 C 0.77508 0.78272 0.30262 0.0
C521 C 0.78051 0.79617 0.3019 0.0
C522 C 0.7549 0.76643 0.30486 0.0
C523 C 0.75957 0.75553 0.28302 0.0
C524 C 0.74487 0.76369 0.33176 0.0
C525 C 0.73962 0.77477 0.35582 0.0
C526 C 0.74884 0.78264 0.37687 0.0
C527 C 0.74392 0.79379 0.39723 0.0
C528 C 0.72977 0.79701 0.39726 0.0
C529 C 0.72049 0.78899 0.37725 0.0
C530 C 0.72537 0.7779 0.35661 0.0
C531 C 0.74479 0.70035 0.33133 0.0
C532 C 0.73056 0.69717 0.32952 0.0
C533 C 0.74934 0.71405 0.32797 0.0
C534 C 0.73978 0.72484 0.32224 0.0
C535 C 0.72552 0.7218 0.32228 0.0
C536 C 0.72095 0.70808 0.3259 0.0
C537 C 0.74471 0.73917 0.3148 0.0
C538 C 0.73986 0.75011 0.33626 0.0
C539 C 0.75445 0.74198 0.28723 0.0
C540 C 0.75906 0.73109 0.26167 0.0
C541 C 0.74929 0.72343 0.24181 0.0
C542 C 0.75367 0.71302 0.21824 0.0
C543 C 0.76782 0.71026 0.21403 0.0
C544 C 0.77761 0.71793 0.23332 0.0
C545 C 0.77328 0.72833 0.25699 0.0
H546 H 0.77119 0.7022 0.19578 0.0
H547 H 0.72599 0.80571 0.41282 0.0
H548 H 0.45364 0.54208 0.5549 0.0
H549 H 0.47735 0.53308 0.55786 0.0
H550 H 0.46146 0.49126 0.56305 0.0
H551 H 0.43774 0.50015 0.55959 0.0
H552 H 0.48985 0.51873 0.61018 0.0
H553 H 0.48448 0.46906 0.52384 0.0
H554 H 0.47109 0.46065 0.47177 0.0
H555 H 0.46615 0.50251 0.43429 0.0
H556 H 0.47965 0.51116 0.48584 0.0
H557 H 0.54526 0.46004 0.58256 0.0
H558 H 0.52141 0.46876 0.58026 0.0
H559 H 0.53678 0.51073 0.5734 0.0
H560 H 0.56061 0.50214 0.57609 0.0
H561 H 0.50859 0.48299 0.5275 0.0
H562 H 0.51382 0.53271 0.61364 0.0
H563 H 0.52729 0.54124 0.66545 0.0
H564 H 0.53262 0.49942 0.70293 0.0
H565 H 0.51903 0.49067 0.65164 0.0
C566 C 0.45518 0.53096 0.55629 0.0
C567 C 0.44377 0.52184 0.5569 0.0
C568 C 0.46875 0.52583 0.55815 0.0
C569 C 0.47121 0.51149 0.56048 0.0
C570 C 0.45984 0.50236 0.56074 0.0
C571 C 0.44627 0.50747 0.55884 0.0
C572 C 0.48564 0.50613 0.5637 0.0
C573 C 0.49401 0.51106 0.59178 0.0
C574 C 0.49096 0.49585 0.54028 0.0
C575 C 0.48295 0.49076 0.50894 0.0
C576 C 0.48057 0.47646 0.50442 0.0
C577 C 0.47296 0.47165 0.475 0.0
C578 C 0.46773 0.48104 0.44981 0.0
C579 C 0.47015 0.49525 0.4539 0.0
C580 C 0.47777 0.50012 0.48325 0.0
C581 C 0.54357 0.47114 0.58097 0.0
C582 C 0.55487 0.48039 0.5796 0.0
C583 C 0.52993 0.4761 0.57948 0.0
C584 C 0.52729 0.4904 0.57686 0.0
C585 C 0.53854 0.49966 0.57592 0.0
C586 C 0.55218 0.49472 0.57738 0.0
C587 C 0.5128 0.49561 0.57394 0.0
C588 C 0.50442 0.49065 0.54591 0.0
C589 C 0.50747 0.50587 0.59737 0.0
C590 C 0.51553 0.51103 0.62857 0.0
C591 C 0.51783 0.52535 0.63301 0.0
C592 C 0.52549 0.53022 0.66228 0.0
C593 C 0.53085 0.52087 0.6874 0.0
C594 C 0.52851 0.50664 0.68337 0.0
C595 C 0.52085 0.50172 0.65418 0.0
H596 H 0.53678 0.52466 0.71002 0.0
H597 H 0.46183 0.4773 0.42707 0.0
H598 H 0.75362 0.19027 0.79943 0.0
H599 H 0.76254 0.21392 0.80455 0.0
H600 H 0.72066 0.22972 0.80813 0.0
H601 H 0.71162 0.2061 0.80249 0.0
H602 H 0.73719 0.24639 0.76847 0.0
H603 H 0.7388 0.22504 0.88451 0.0
H604 H 0.74492 0.20682 0.9282 0.0
H605 H 0.78826 0.21397 0.90844 0.0
H606 H 0.78238 0.23209 0.86415 0.0
H607 H 0.75074 0.31205 0.84192 0.0
H608 H 0.74256 0.28812 0.8382 0.0
H609 H 0.78482 0.27371 0.82934 0.0
H610 H 0.79316 0.29768 0.83351 0.0
H611 H 0.76842 0.25633 0.87129 0.0
H612 H 0.76613 0.27858 0.7557 0.0
H613 H 0.75927 0.29778 0.7157 0.0
H614 H 0.71627 0.28926 0.73662 0.0
H615 H 0.72288 0.27025 0.77756 0.0
C616 C 0.74629 0.19878 0.80083 0.0
C617 C 0.7319 0.19626 0.80084 0.0
C618 C 0.75141 0.2123 0.80393 0.0
C619 C 0.74227 0.22357 0.80739 0.0
C620 C 0.72791 0.22117 0.80565 0.0
C621 C 0.72276 0.20765 0.80247 0.0
C622 C 0.74766 0.23776 0.81443 0.0
C623 C 0.74391 0.24858 0.79113 0.0
C624 C 0.75657 0.2406 0.84379 0.0
C625 C 0.76014 0.22983 0.87074 0.0
C626 C 0.74963 0.22266 0.88929 0.0
C627 C 0.75306 0.21236 0.91418 0.0
C628 C 0.76697 0.20922 0.92103 0.0
C629 C 0.77749 0.2164 0.90307 0.0
C630 C 0.77411 0.2267 0.87808 0.0
C631 C 0.75834 0.3038 0.83971 0.0
C632 C 0.77261 0.3068 0.83757 0.0
C633 C 0.75362 0.29012 0.83751 0.0
C634 C 0.76306 0.27917 0.83277 0.0
C635 C 0.77736 0.28203 0.8328 0.0
C636 C 0.7821 0.29573 0.83514 0.0
C637 C 0.75796 0.26492 0.82535 0.0
C638 C 0.76176 0.25411 0.84855 0.0
C639 C 0.74902 0.2621 0.79605 0.0
C640 C 0.74501 0.27307 0.77 0.0
C641 C 0.75521 0.28084 0.7519 0.0
C642 C 0.75137 0.29171 0.72911 0.0
C643 C 0.73734 0.29478 0.72375 0.0
C644 C 0.72713 0.2869 0.7409 0.0
C645 C 0.73092 0.27608 0.76393 0.0
H646 H 0.73439 0.30324 0.70623 0.0
H647 H 0.7696 0.20123 0.94031 0.0
H648 H 0.05909 0.49718 0.57112 0.0
H649 H 0.03513 0.48905 0.56705 0.0
H650 H 0.02045 0.53127 0.57383 0.0
H651 H 0.04442 0.53953 0.57824 0.0
H652 H 0.00446 0.51342 0.61368 0.0
H653 H 0.02262 0.51574 0.49383 0.0
H654 H 0.0396 0.51084 0.44597 0.0
H655 H 0.03214 0.46711 0.45736 0.0
H656 H 0.01526 0.47174 0.50572 0.0
H657 H 0.93634 0.50144 0.55052 0.0
H658 H 0.96016 0.51004 0.55421 0.0
H659 H 0.97563 0.46816 0.54513 0.0
H660 H 0.95184 0.45946 0.54099 0.0
H661 H 0.99119 0.48611 0.5061 0.0
H662 H 0.97335 0.48358 0.62607 0.0
H663 H 0.95668 0.48822 0.67485 0.0
H664 H 0.9637 0.53203 0.66387 0.0
H665 H 0.98026 0.52766 0.61459 0.0
C666 C 0.05078 0.50475 0.57217 0.0
C667 C 0.0537 0.51903 0.57476 0.0
C668 C 0.03708 0.50008 0.56966 0.0
C669 C 0.02602 0.50957 0.56953 0.0
C670 C 0.02884 0.52377 0.57371 0.0
C671 C 0.04256 0.52847 0.57618 0.0
C672 C 0.01156 0.50471 0.56376 0.0
C673 C 0.00151 0.50761 0.58994 0.0
C674 C 0.00778 0.49689 0.5331 0.0
C675 C 0.01777 0.49408 0.50364 0.0
C676 C 0.02467 0.50507 0.4863 0.0
C677 C 0.03427 0.50234 0.45906 0.0
C678 C 0.03697 0.48867 0.44869 0.0
C679 C 0.03004 0.4777 0.46545 0.0
C680 C 0.02045 0.48037 0.49277 0.0
C681 C 0.9448 0.49405 0.54889 0.0
C682 C 0.94216 0.47974 0.54569 0.0
C683 C 0.95842 0.49899 0.55119 0.0
C684 C 0.96967 0.48972 0.55056 0.0
C685 C 0.96711 0.4755 0.54582 0.0
C686 C 0.95348 0.47054 0.54351 0.0
C687 C 0.98408 0.49481 0.55605 0.0
C688 C 0.99413 0.49194 0.52981 0.0
C689 C 0.98786 0.50264 0.5867 0.0
C690 C 0.97795 0.5053 0.61641 0.0
C691 C 0.97126 0.49421 0.63386 0.0
C692 C 0.96184 0.49678 0.66162 0.0
C693 C 0.95913 0.51041 0.6724 0.0
C694 C 0.96581 0.52148 0.65545 0.0
C695 C 0.97522 0.51896 0.62762 0.0
H696 H 0.95189 0.51237 0.69398 0.0
H697 H 0.04442 0.48658 0.42762 0.0
H698 H 0.79236 0.70665 0.80538 0.0
H699 H 0.78356 0.73044 0.80797 0.0
H700 H 0.74171 0.71532 0.79534 0.0
H701 H 0.75039 0.69147 0.79268 0.0
H702 H 0.74669 0.73927 0.75594 0.0
H703 H 0.75339 0.72222 0.87497 0.0
H704 H 0.76679 0.71147 0.92388 0.0
H705 H 0.79493 0.74603 0.92402 0.0
H706 H 0.78207 0.75672 0.87387 0.0
H707 H 0.71017 0.79802 0.81898 0.0
H708 H 0.71932 0.7744 0.81532 0.0
H709 H 0.76097 0.79007 0.82792 0.0
H710 H 0.75192 0.81379 0.83166 0.0
H711 H 0.75622 0.7659 0.86729 0.0
H712 H 0.74992 0.7824 0.74672 0.0
H713 H 0.73683 0.79272 0.6965 0.0
H714 H 0.70754 0.75916 0.70065 0.0
H715 H 0.72034 0.74875 0.75131 0.0
C716 C 0.78129 0.70837 0.80264 0.0
C717 C 0.77207 0.69713 0.79909 0.0
C718 C 0.77629 0.72198 0.80426 0.0
C719 C 0.76197 0.72462 0.80233 0.0
C720 C 0.75279 0.7135 0.79698 0.0
C721 C 0.75778 0.69988 0.79556 0.0
C722 C 0.75651 0.73888 0.8078 0.0
C723 C 0.74864 0.74504 0.78043 0.0
C724 C 0.75925 0.74646 0.83961 0.0
C725 C 0.76685 0.7402 0.87029 0.0
C726 C 0.76253 0.72747 0.88511 0.0
C727 C 0.77003 0.72138 0.91307 0.0
C728 C 0.78168 0.72808 0.92713 0.0
C729 C 0.7859 0.74085 0.9131 0.0
C730 C 0.77854 0.74691 0.88478 0.0
C731 C 0.72127 0.79646 0.82139 0.0
C732 C 0.73032 0.80783 0.82538 0.0
C733 C 0.72648 0.78295 0.81914 0.0
C734 C 0.74083 0.7805 0.82086 0.0
C735 C 0.74986 0.79174 0.82642 0.0
C736 C 0.74466 0.80529 0.82848 0.0
C737 C 0.74643 0.76629 0.81538 0.0
C738 C 0.7543 0.76014 0.84278 0.0
C739 C 0.74367 0.75868 0.78366 0.0
C740 C 0.73601 0.76487 0.75305 0.0
C741 C 0.74062 0.77728 0.73712 0.0
C742 C 0.73327 0.78314 0.70854 0.0
C743 C 0.72134 0.77662 0.69545 0.0
C744 C 0.71677 0.76421 0.71086 0.0
C745 C 0.72407 0.75832 0.73949 0.0
H746 H 0.71566 0.78116 0.67332 0.0
H747 H 0.78743 0.72338 0.94893 0.0
H748 H 0.55013 0.53931 0.05683 0.0
H749 H 0.5265 0.53021 0.06048 0.0
H750 H 0.54241 0.48837 0.05785 0.0
H751 H 0.56614 0.49737 0.05403 0.0
H752 H 0.51906 0.49146 0.01597 0.0
H753 H 0.53326 0.50204 0.13585 0.0
H754 H 0.54275 0.51668 0.18422 0.0
H755 H 0.50934 0.5457 0.17008 0.0
H756 H 0.49978 0.53134 0.12116 0.0
H757 H 0.45737 0.45884 0.07689 0.0
H758 H 0.48145 0.46684 0.0744 0.0
H759 H 0.46747 0.50936 0.07789 0.0
H760 H 0.44336 0.50147 0.08066 0.0
H761 H 0.49019 0.50524 0.12039 0.0
H762 H 0.47642 0.49486 -0.00076 0.0
H763 H 0.46709 0.4802 0.9507 0.0
H764 H 0.49981 0.45061 0.96758 0.0
H765 H 0.50922 0.46502 0.01662 0.0
C766 C 0.54863 0.52816 0.05663 0.0
C767 C 0.56005 0.51907 0.05535 0.0
C768 C 0.53511 0.52298 0.0589 0.0
C769 C 0.53272 0.50861 0.06 0.0
C770 C 0.54403 0.4995 0.0572 0.0
C771 C 0.55758 0.50467 0.05505 0.0
C772 C 0.51844 0.50315 0.06515 0.0
C773 C 0.51281 0.49431 0.03904 0.0
C774 C 0.51022 0.50706 0.095 0.0
C775 C 0.51588 0.51567 0.12459 0.0
C776 C 0.528 0.5116 0.14285 0.0
C777 C 0.53338 0.51984 0.1704 0.0
C778 C 0.52667 0.53213 0.18016 0.0
C779 C 0.51454 0.53619 0.16245 0.0
C780 C 0.50913 0.52799 0.13482 0.0
C781 C 0.45941 0.4699 0.0775 0.0
C782 C 0.44842 0.47952 0.07875 0.0
C783 C 0.47318 0.47445 0.07589 0.0
C784 C 0.47624 0.4887 0.07542 0.0
C785 C 0.46534 0.49832 0.07809 0.0
C786 C 0.45156 0.49378 0.0796 0.0
C787 C 0.49077 0.49361 0.07107 0.0
C788 C 0.49645 0.50235 0.09736 0.0
C789 C 0.49905 0.48959 0.04143 0.0
C790 C 0.49344 0.48095 0.01185 0.0
C791 C 0.48156 0.48517 0.9928 0.0
C792 C 0.47627 0.47692 0.96516 0.0
C793 C 0.48283 0.46446 0.95612 0.0
C794 C 0.49472 0.46025 0.97465 0.0
C795 C 0.50005 0.46846 0.00235 0.0
H796 H 0.47872 0.45808 0.93471 0.0
H797 H 0.53085 0.5385 0.2015 0.0
H798 H 0.75234 0.31517 0.30789 0.0
H799 H 0.76101 0.29136 0.30976 0.0
H800 H 0.71898 0.27595 0.31234 0.0
H801 H 0.71018 0.29978 0.31081 0.0
H802 H 0.73506 0.26325 0.36225 0.0
H803 H 0.73819 0.27337 0.23658 0.0
H804 H 0.74501 0.28683 0.18313 0.0
H805 H 0.78802 0.28174 0.21044 0.0
H806 H 0.78146 0.26841 0.26436 0.0
H807 H 0.75101 0.19239 0.32531 0.0
H808 H 0.74204 0.21613 0.32378 0.0
H809 H 0.78389 0.23204 0.32205 0.0
H810 H 0.79297 0.20834 0.32335 0.0
H811 H 0.76772 0.24439 0.27156 0.0
H812 H 0.76473 0.2344 0.39717 0.0
H813 H 0.75807 0.22077 0.45044 0.0
H814 H 0.715 0.22553 0.42338 0.0
H815 H 0.72141 0.23904 0.36961 0.0
C816 C 0.74491 0.30673 0.30856 0.0
C817 C 0.73055 0.30941 0.30912 0.0
C818 C 0.7499 0.29311 0.30956 0.0
C819 C 0.74065 0.28185 0.31096 0.0
C820 C 0.72631 0.28447 0.31128 0.0
C821 C 0.7213 0.29811 0.31022 0.0
C822 C 0.74596 0.26738 0.3129 0.0
C823 C 0.74204 0.25905 0.34214 0.0
C824 C 0.75534 0.26202 0.28716 0.0
C825 C 0.75932 0.27001 0.2547 0.0
C826 C 0.7491 0.27522 0.23135 0.0
C827 C 0.75292 0.2828 0.20094 0.0
C828 C 0.76694 0.28517 0.19344 0.0
C829 C 0.77717 0.27992 0.2163 0.0
C830 C 0.7734 0.27234 0.24678 0.0
C831 C 0.75833 0.20093 0.32492 0.0
C832 C 0.77272 0.19845 0.3245 0.0
C833 C 0.75317 0.2145 0.32411 0.0
C834 C 0.76229 0.22586 0.32297 0.0
C835 C 0.77666 0.22343 0.32288 0.0
C836 C 0.78183 0.20986 0.32381 0.0
C837 C 0.75685 0.24027 0.32091 0.0
C838 C 0.76073 0.24859 0.29166 0.0
C839 C 0.74746 0.24562 0.34666 0.0
C840 C 0.74356 0.23762 0.37916 0.0
C841 C 0.75384 0.23245 0.40242 0.0
C842 C 0.75011 0.22476 0.43273 0.0
C843 C 0.73612 0.22225 0.44023 0.0
C844 C 0.72583 0.22747 0.4175 0.0
C845 C 0.7295 0.23515 0.38712 0.0
H846 H 0.73326 0.21628 0.4637 0.0
H847 H 0.76987 0.29104 0.16988 0.0
H848 H 0.25185 0.3139 0.79314 0.0
H849 H 0.24234 0.29037 0.79426 0.0
H850 H 0.28343 0.27378 0.81097 0.0
H851 H 0.29307 0.29724 0.80911 0.0
H852 H 0.26842 0.25758 0.76565 0.0
H853 H 0.26141 0.28003 0.87989 0.0
H854 H 0.2529 0.29935 0.91716 0.0
H855 H 0.211 0.29048 0.88525 0.0
H856 H 0.21932 0.27146 0.84649 0.0
H857 H 0.25204 0.19175 0.8341 0.0
H858 H 0.26054 0.21557 0.83042 0.0
H859 H 0.21856 0.23042 0.81803 0.0
H860 H 0.20991 0.20659 0.82241 0.0
H861 H 0.23326 0.24773 0.85964 0.0
H862 H 0.23942 0.22606 0.74538 0.0
H863 H 0.24727 0.20781 0.70363 0.0
H864 H 0.28964 0.21546 0.73348 0.0
H865 H 0.28203 0.23361 0.77587 0.0
C866 C 0.25889 0.30524 0.79663 0.0
C867 C 0.27321 0.30747 0.80142 0.0
C868 C 0.25343 0.29179 0.79735 0.0
C869 C 0.26214 0.28033 0.80338 0.0
C870 C 0.27651 0.28247 0.80643 0.0
C871 C 0.282 0.2959 0.80545 0.0
C872 C 0.25624 0.26622 0.80861 0.0
C873 C 0.26085 0.25539 0.78645 0.0
C874 C 0.24609 0.26344 0.83521 0.0
C875 C 0.24101 0.2744 0.85996 0.0
C876 C 0.25039 0.28224 0.88065 0.0
C877 C 0.2456 0.29316 0.90198 0.0
C878 C 0.23142 0.29615 0.90359 0.0
C879 C 0.22199 0.28818 0.88392 0.0
C880 C 0.22674 0.27735 0.86215 0.0
C881 C 0.24458 0.20008 0.83104 0.0
C882 C 0.2303 0.19723 0.82822 0.0
C883 C 0.24947 0.2137 0.82876 0.0
C884 C 0.24022 0.22476 0.82316 0.0
C885 C 0.2259 0.22204 0.82214 0.0
C886 C 0.22098 0.2084 0.82464 0.0
C887 C 0.24554 0.23905 0.81687 0.0
C888 C 0.24082 0.24991 0.83882 0.0
C889 C 0.2555 0.2419 0.78986 0.0
C890 C 0.26014 0.23111 0.76406 0.0
C891 C 0.25041 0.22379 0.74322 0.0
C892 C 0.25481 0.21347 0.71942 0.0
C893 C 0.26894 0.21046 0.71596 0.0
C894 C 0.2787 0.21779 0.73622 0.0
C895 C 0.27434 0.2281 0.76013 0.0
H896 H 0.27233 0.20246 0.69753 0.0
H897 H 0.22773 0.30462 0.92012 0.0
H898 H 0.29573 0.79377 0.32119 0.0
H899 H 0.2876 0.76972 0.31935 0.0
H900 H 0.24539 0.78373 0.333 0.0
H901 H 0.25342 0.8078 0.33495 0.0
H902 H 0.25109 0.76054 0.37356 0.0
H903 H 0.25683 0.77563 0.25142 0.0
H904 H 0.26962 0.78547 0.20005 0.0
H905 H 0.2995 0.75248 0.20678 0.0
H906 H 0.287 0.74256 0.25858 0.0
H907 H 0.21363 0.70229 0.3131 0.0
H908 H 0.22344 0.72563 0.31619 0.0
H909 H 0.26463 0.70873 0.30398 0.0
H910 H 0.2549 0.68526 0.30087 0.0
H911 H 0.2605 0.73285 0.2639 0.0
H912 H 0.25425 0.71719 0.38451 0.0
H913 H 0.24132 0.7072 0.43543 0.0
H914 H 0.21246 0.74116 0.43173 0.0
H915 H 0.22508 0.75123 0.38033 0.0
C916 C 0.28473 0.79174 0.32422 0.0
C917 C 0.27521 0.80273 0.328 0.0
C918 C 0.2801 0.77798 0.32299 0.0
C919 C 0.26587 0.77494 0.32556 0.0
C920 C 0.25641 0.78584 0.33085 0.0
C921 C 0.26102 0.7996 0.33187 0.0
C922 C 0.26077 0.76048 0.32149 0.0
C923 C 0.25303 0.75454 0.34945 0.0
C924 C 0.26356 0.75253 0.29034 0.0
C925 C 0.27107 0.75845 0.25913 0.0
C926 C 0.2662 0.77054 0.24215 0.0
C927 C 0.27338 0.77612 0.21292 0.0
C928 C 0.28539 0.76962 0.20023 0.0
C929 C 0.29021 0.75751 0.21668 0.0
C930 C 0.28308 0.75191 0.24597 0.0
C931 C 0.22477 0.70351 0.31065 0.0
C932 C 0.23348 0.69188 0.30697 0.0
C933 C 0.23036 0.71687 0.3126 0.0
C934 C 0.24477 0.71889 0.31085 0.0
C935 C 0.25348 0.70739 0.30555 0.0
C936 C 0.2479 0.69399 0.30382 0.0
C937 C 0.25073 0.73298 0.31584 0.0
C938 C 0.25862 0.73884 0.28808 0.0
C939 C 0.24809 0.74085 0.34719 0.0
C940 C 0.24054 0.7349 0.37832 0.0
C941 C 0.24508 0.72247 0.39435 0.0
C942 C 0.23782 0.7168 0.42333 0.0
C943 C 0.22606 0.72353 0.43675 0.0
C944 C 0.22156 0.73595 0.42127 0.0
C945 C 0.22877 0.74165 0.39222 0.0
H946 H 0.22045 0.71913 0.4592 0.0
H947 H 0.29093 0.77396 0.17758 0.0
H948 H 0.29212 0.20477 0.29607 0.0
H949 H 0.28372 0.22873 0.2994 0.0
H950 H 0.24147 0.21395 0.30214 0.0
H951 H 0.24973 0.19001 0.29921 0.0
H952 H 0.26657 0.24475 0.25814 0.0
H953 H 0.22305 0.23394 0.36176 0.0
H954 H 0.21769 0.21693 0.4093 0.0
H955 H 0.26118 0.20906 0.42414 0.0
H956 H 0.26683 0.22626 0.37742 0.0
H957 H 0.21074 0.29679 0.32475 0.0
H958 H 0.21981 0.27313 0.32077 0.0
H959 H 0.26161 0.28914 0.31716 0.0
H960 H 0.25264 0.31284 0.32076 0.0
H961 H 0.2372 0.25782 0.36225 0.0
H962 H 0.28069 0.2691 0.25949 0.0
H963 H 0.28595 0.2858 0.21115 0.0
H964 H 0.24236 0.29244 0.19399 0.0
H965 H 0.23685 0.27564 0.24183 0.0
C966 C 0.28103 0.20661 0.29699 0.0
C967 C 0.27161 0.19545 0.29767 0.0
C968 C 0.27625 0.22032 0.29885 0.0
C969 C 0.26198 0.22312 0.30162 0.0
C970 C 0.25254 0.21203 0.30066 0.0
C971 C 0.25729 0.19834 0.29882 0.0
C972 C 0.25698 0.23757 0.30691 0.0
C973 C 0.26031 0.24766 0.28114 0.0
C974 C 0.2486 0.2413 0.33664 0.0
C975 C 0.24535 0.23129 0.36576 0.0
C976 C 0.23148 0.22866 0.37536 0.0
C977 C 0.22839 0.21899 0.40219 0.0
C978 C 0.23909 0.2119 0.4197 0.0
C979 C 0.25291 0.21455 0.41058 0.0
C980 C 0.25606 0.22426 0.38393 0.0
C981 C 0.22187 0.29529 0.32335 0.0
C982 C 0.23095 0.30674 0.32284 0.0
C983 C 0.22704 0.28175 0.32116 0.0
C984 C 0.24137 0.27936 0.31817 0.0
C985 C 0.25049 0.29073 0.31887 0.0
C986 C 0.24534 0.30429 0.32109 0.0
C987 C 0.24674 0.265 0.31339 0.0
C988 C 0.24349 0.25493 0.33928 0.0
C989 C 0.25518 0.26128 0.28379 0.0
C990 C 0.25837 0.27123 0.25453 0.0
C991 C 0.27223 0.27409 0.2453 0.0
C992 C 0.27525 0.28357 0.218 0.0
C993 C 0.2645 0.29021 0.1996 0.0
C994 C 0.25069 0.28733 0.20835 0.0
C995 C 0.24761 0.27784 0.23559 0.0
H996 H 0.26686 0.29757 0.17851 0.0
H997 H 0.23668 0.20438 0.44034 0.0
H998 H 0.24955 0.68915 0.8179 0.0
H999 H 0.24077 0.71291 0.81411 0.0
H1000 H 0.28125 0.72865 0.84209 0.0
H1001 H 0.29019 0.70487 0.84581 0.0
H1002 H 0.25917 0.74193 0.8783 0.0
H1003 H 0.27189 0.72899 0.75759 0.0
H1004 H 0.27138 0.71391 0.70416 0.0
H1005 H 0.22736 0.71997 0.69483 0.0
H1006 H 0.22757 0.73491 0.7486 0.0
H1007 H 0.25195 0.81202 0.82348 0.0
H1008 H 0.25986 0.78799 0.82891 0.0
H1009 H 0.21958 0.77349 0.79504 0.0
H1010 H 0.21153 0.79753 0.78979 0.0
H1011 H 0.24085 0.75924 0.76216 0.0
H1012 H 0.22742 0.77236 0.87956 0.0
H1013 H 0.22635 0.78582 0.93568 0.0
H1014 H 0.26968 0.77815 0.95416 0.0
H1015 H 0.27112 0.76499 0.89755 0.0
C1016 C 0.25658 0.69764 0.8236 0.0
C1017 C 0.2706 0.6951 0.83206 0.0
C1018 C 0.25155 0.71122 0.82124 0.0
C1019 C 0.2604 0.72253 0.82741 0.0
C1020 C 0.27427 0.72005 0.83711 0.0
C1021 C 0.27935 0.70646 0.83918 0.0
C1022 C 0.25526 0.73695 0.82299 0.0
C1023 C 0.25537 0.74582 0.8528 0.0
C1024 C 0.24984 0.74179 0.78998 0.0
C1025 C 0.24973 0.73297 0.75734 0.0
C1026 C 0.26208 0.72702 0.74432 0.0
C1027 C 0.26185 0.71851 0.71395 0.0
C1028 C 0.24934 0.71596 0.69617 0.0
C1029 C 0.23704 0.72194 0.70866 0.0
C1030 C 0.23721 0.73044 0.73907 0.0
C1031 C 0.2448 0.80374 0.81687 0.0
C1032 C 0.2311 0.8067 0.80622 0.0
C1033 C 0.24931 0.79 0.82021 0.0
C1034 C 0.24027 0.77894 0.81273 0.0
C1035 C 0.22672 0.78186 0.80103 0.0
C1036 C 0.22214 0.79561 0.79809 0.0
C1037 C 0.24494 0.76436 0.81742 0.0
C1038 C 0.24471 0.75542 0.78767 0.0
C1039 C 0.25009 0.7594 0.85064 0.0
C1040 C 0.24942 0.76783 0.88397 0.0
C1041 C 0.23678 0.77374 0.89523 0.0
C1042 C 0.2361 0.78128 0.92721 0.0
C1043 C 0.24794 0.78285 0.94846 0.0
C1044 C 0.26051 0.77693 0.93767 0.0
C1045 C 0.26128 0.76947 0.90556 0.0
H1046 H 0.24738 0.78864 0.9733 0.0
H1047 H 0.24919 0.70937 0.67265 0.0
H1048 H 0.45238 0.04279 0.57789 0.0
H1049 H 0.47615 0.03392 0.57406 0.0
H1050 H 0.46065 0.99193 0.5765 0.0
H1051 H 0.4369 1.00068 0.58076 0.0
H1052 H 0.48349 0.99453 0.61762 0.0
H1053 H 0.47 0.007 0.49777 0.0
H1054 H 0.46121 0.02257 0.45042 0.0
H1055 H 0.49515 0.05057 0.46906 0.0
H1056 H 0.50403 0.03525 0.5169 0.0
H1057 H 0.54329 0.95982 0.55302 0.0
H1058 H 0.51968 0.96906 0.55712 0.0
H1059 H 0.53587 0.0108 0.55553 0.0
H1060 H 0.55948 0.00167 0.55106 0.0
H1061 H 0.51281 0.00856 0.51431 0.0
H1062 H 0.52642 0.99596 0.63381 0.0
H1063 H 0.53522 0.98034 0.68103 0.0
H1064 H 0.50106 0.95256 0.66301 0.0
H1065 H 0.49216 0.96792 0.61529 0.0
C1066 C 0.45403 0.03167 0.57798 0.0
C1067 C 0.44271 0.02245 0.57942 0.0
C1068 C 0.46762 0.02661 0.57558 0.0
C1069 C 0.47017 0.01226 0.57441 0.0
C1070 C 0.45894 0.00305 0.57722 0.0
C1071 C 0.44535 0.00808 0.57959 0.0
C1072 C 0.48448 0.0068 0.56941 0.0
C1073 C 0.48984 0.99747 0.59481 0.0
C1074 C 0.49288 0.01085 0.54001 0.0
C1075 C 0.48759 0.02005 0.51117 0.0
C1076 C 0.47553 0.01653 0.49197 0.0
C1077 C 0.47054 0.02531 0.46501 0.0
C1078 C 0.4776 0.03757 0.4568 0.0
C1079 C 0.48968 0.04108 0.47548 0.0
C1080 C 0.4947 0.03235 0.50251 0.0
C1081 C 0.54183 0.97097 0.55316 0.0
C1082 C 0.5533 0.98 0.55191 0.0
C1083 C 0.52833 0.97624 0.55571 0.0
C1084 C 0.52602 0.99063 0.55721 0.0
C1085 C 0.5374 0.99966 0.55456 0.0
C1086 C 0.55091 0.99441 0.55205 0.0
C1087 C 0.5118 0.99626 0.56248 0.0
C1088 C 0.50646 0.00563 0.53714 0.0
C1089 C 0.50341 0.99225 0.59193 0.0
C1090 C 0.5087 0.98302 0.62073 0.0
C1091 C 0.52084 0.98647 0.63972 0.0
C1092 C 0.52584 0.97767 0.66661 0.0
C1093 C 0.51873 0.96545 0.67495 0.0
C1094 C 0.50657 0.96202 0.65648 0.0
C1095 C 0.50154 0.97077 0.62953 0.0
H1096 H 0.52261 0.95865 0.69579 0.0
H1097 H 0.47372 0.04435 0.43592 0.0
H1098 H 0.93895 0.00117 0.06286 0.0
H1099 H 0.96241 0.99155 0.06642 0.0
H1100 H 0.97963 0.03219 0.04718 0.0
H1101 H 0.95621 0.04193 0.04352 0.0
H1102 H 0.99271 0.01141 0.00798 0.0
H1103 H 0.97855 0.01976 0.13059 0.0
H1104 H 0.96274 0.01742 0.18229 0.0
H1105 H 0.96793 0.97315 0.18025 0.0
H1106 H 0.98364 0.97522 0.12818 0.0
H1107 H 0.06198 0.00208 0.06395 0.0
H1108 H 0.03797 0.01024 0.06088 0.0
H1109 H 0.02332 0.96886 0.08362 0.0
H1110 H 0.04734 0.96057 0.08664 0.0
H1111 H 0.00848 0.9888 0.12049 0.0
H1112 H 0.02288 0.97965 0.00123 0.0
H1113 H 0.03731 0.98064 0.9467 0.0
H1114 H 0.0304 0.02458 0.93911 0.0
H1115 H 0.01626 0.02394 0.99423 0.0
C1116 C 0.94771 0.00806 0.05905 0.0
C1117 C 0.94569 0.02234 0.05302 0.0
C1118 C 0.96112 0.00254 0.0613 0.0
C1119 C 0.97276 0.01119 0.05751 0.0
C1120 C 0.97078 0.02535 0.0503 0.0
C1121 C 0.95738 0.0309 0.04826 0.0
C1122 C 0.98701 0.00554 0.06166 0.0
C1123 C 0.99624 0.00665 0.03273 0.0
C1124 C 0.99141 0.99887 0.09356 0.0
C1125 C 0.98218 0.99764 0.12529 0.0
C1126 C 0.97626 0.00952 0.14102 0.0
C1127 C 0.96733 0.00824 0.17041 0.0
C1128 C 0.96432 0.99514 0.1845 0.0
C1129 C 0.97027 0.98329 0.16929 0.0
C1130 C 0.9792 0.98451 0.13986 0.0
C1131 C 0.05367 0.99472 0.0687 0.0
C1132 C 0.05659 0.98065 0.07537 0.0
C1133 C 0.03995 0.9994 0.06676 0.0
C1134 C 0.02886 0.99012 0.07158 0.0
C1135 C 0.03172 0.97619 0.07971 0.0
C1136 C 0.04546 0.97146 0.08135 0.0
C1137 C 0.01431 0.99492 0.06697 0.0
C1138 C 0.00499 0.9936 0.09575 0.0
C1139 C 0.00976 0.00125 0.03474 0.0
C1140 C 0.01864 0.00177 0.00218 0.0
C1141 C 0.02462 0.98957 0.98829 0.0
C1142 C 0.03272 0.99006 0.95721 0.0
C1143 C 0.0348 0.00267 0.9395 0.0
C1144 C 0.02882 0.01483 0.95292 0.0
C1145 C 0.02078 0.01441 0.98413 0.0
H1146 H 0.041 0.003 0.9153 0.0
H1147 H 0.9574 0.99418 0.20725 0.0
H1148 H 0.56339 1.00053 0.04929 0.0
H1149 H 0.53936 0.99234 0.04646 0.0
H1150 H 0.52519 0.03129 0.09013 0.0
H1151 H 0.54921 0.03967 0.0925 0.0
H1152 H 0.51313 0.00757 0.1228 0.0
H1153 H 0.52115 0.02644 0.0062 0.0
H1154 H 0.53266 0.02975 0.94779 0.0
H1155 H 0.52535 0.98699 0.92132 0.0
H1156 H 0.51408 0.98333 0.97998 0.0
H1157 H 0.44106 0.00132 0.08091 0.0
H1158 H 0.46506 0.00966 0.0832 0.0
H1159 H 0.47937 0.97064 0.04025 0.0
H1160 H 0.45539 0.96211 0.03844 0.0
H1161 H 0.4913 0.99447 0.00708 0.0
H1162 H 0.48381 0.9754 0.12369 0.0
H1163 H 0.47235 0.97189 0.1821 0.0
H1164 H 0.47864 0.01484 0.20825 0.0
H1165 H 0.48992 0.01868 0.14965 0.0
C1166 C 0.55518 0.00733 0.05852 0.0
C1167 C 0.55821 0.02075 0.07117 0.0
C1168 C 0.54144 0.00266 0.05667 0.0
C1169 C 0.53049 0.01124 0.06784 0.0
C1170 C 0.5335 0.02452 0.0813 0.0
C1171 C 0.54722 0.02929 0.0826 0.0
C1172 C 0.51591 0.00633 0.0656 0.0
C1173 C 0.50828 0.0049 0.09745 0.0
C1174 C 0.50973 0.00252 0.03257 0.0
C1175 C 0.51692 0.00457 0.99774 0.0
C1176 C 0.52218 0.01769 0.98819 0.0
C1177 C 0.52862 0.01964 0.95496 0.0
C1178 C 0.52973 0.00859 0.93086 0.0
C1179 C 0.52446 0.99555 0.94 0.0
C1180 C 0.51808 0.99352 0.97328 0.0
C1181 C 0.4493 0.99454 0.07171 0.0
C1182 C 0.44633 0.98105 0.05946 0.0
C1183 C 0.46301 0.9993 0.07324 0.0
C1184 C 0.47399 0.99073 0.06212 0.0
C1185 C 0.47104 0.9774 0.04901 0.0
C1186 C 0.45735 0.97254 0.04804 0.0
C1187 C 0.48855 0.9957 0.06426 0.0
C1188 C 0.49616 0.99715 0.0324 0.0
C1189 C 0.49473 0.99951 0.09727 0.0
C1190 C 0.48756 0.99736 0.13207 0.0
C1191 C 0.48258 0.98415 0.14166 0.0
C1192 C 0.47616 0.98208 0.17487 0.0
C1193 C 0.47478 0.99313 0.19887 0.0
C1194 C 0.47974 0.00629 0.18964 0.0
C1195 C 0.48613 0.00842 0.15641 0.0
H1196 H 0.46986 0.9915 0.22464 0.0
H1197 H 0.53469 0.01013 0.90511 0.0
H1198 H 0.04917 0.04562 0.54933 0.0
H1199 H 0.02496 0.03789 0.55134 0.0
H1200 H 0.03853 0.99521 0.5514 0.0
H1201 H 0.06269 0.00281 0.54899 0.0
H1202 H 0.01647 0.99876 0.50789 0.0
H1203 H 0.02895 0.01122 0.62882 0.0
H1204 H 0.03765 0.02678 0.6763 0.0
H1205 H 0.0049 0.05576 0.65373 0.0
H1206 H 0.99613 0.04045 0.60574 0.0
H1207 H 0.95725 0.96422 0.57276 0.0
H1208 H 0.98056 0.97403 0.56859 0.0
H1209 H 0.96329 0.01533 0.56698 0.0
H1210 H 0.93986 0.00561 0.57145 0.0
H1211 H 0.98658 0.01377 0.60919 0.0
H1212 H 0.97339 1.00069 0.49017 0.0
H1213 H 0.96459 0.98495 0.44323 0.0
H1214 H 0.99862 0.95708 0.46222 0.0
H1215 H 0.0075 0.97256 0.5097 0.0
C1216 C 0.047 0.03459 0.54941 0.0
C1217 C 0.05788 0.02484 0.54917 0.0
C1218 C 0.03316 0.03019 0.55076 0.0
C1219 C 0.02993 0.01597 0.55204 0.0
C1220 C 0.04076 0.00623 0.55053 0.0
C1221 C 0.05458 0.01061 0.54922 0.0
C1222 C 0.01534 0.01117 0.55583 0.0
C1223 C 0.00998 0.00194 0.53022 0.0
C1224 C 0.00675 0.01558 0.58451 0.0
C1225 C 0.01198 0.02477 0.61343 0.0
C1226 C 0.02367 0.02097 0.63379 0.0
C1227 C 0.0286 0.02973 0.66082 0.0
C1228 C 0.02185 0.04227 0.66796 0.0
C1229 C 0.01014 0.04606 0.64813 0.0
C1230 C 0.00518 0.03734 0.62102 0.0
C1231 C 0.95838 0.9754 0.57186 0.0
C1232 C 0.94666 0.98412 0.57221 0.0
C1233 C 0.97173 0.98099 0.5693 0.0
C1234 C 0.97365 0.9954 0.56686 0.0
C1235 C 0.96204 0.00418 0.56866 0.0
C1236 C 0.94865 0.99859 0.57119 0.0
C1237 C 0.98778 0.00123 0.56148 0.0
C1238 C 0.99304 0.01066 0.58674 0.0
C1239 C 0.99629 0.99701 0.53247 0.0
C1240 C 0.99104 0.98773 0.50372 0.0
C1241 C 0.97894 0.99116 0.48452 0.0
C1242 C 0.97395 0.98229 0.45779 0.0
C1243 C 0.98103 0.97001 0.4498 0.0
C1244 C 0.99314 0.96659 0.46847 0.0
C1245 C 0.99816 0.97541 0.49527 0.0
H1246 H 0.97714 0.96316 0.42909 0.0
H1247 H 0.02568 0.04904 0.68891 0.0
H1248 H 0.10282 0.46299 0.93994 0.0
H1249 H 0.10467 0.46975 0.8766 0.0
H1250 H 0.11664 0.51111 0.90811 0.0
H1251 H 0.11508 0.50446 0.97114 0.0
H1252 H 0.09384 0.50943 0.85788 0.0
H1253 H 0.1405 0.49225 0.87548 0.0
H1254 H 0.15789 0.47473 0.89308 0.0
H1255 H 0.14163 0.44644 0.81461 0.0
H1256 H 0.12401 0.46373 0.79688 0.0
H1257 H 0.10592 0.53525 0.68237 0.0
H1258 H 0.10853 0.52964 0.7462 0.0
H1259 H 0.10971 0.48597 0.72012 0.0
H1260 H 0.10803 0.49158 0.65668 0.0
H1261 H 0.12679 0.48958 0.76944 0.0
H1262 H 0.07946 0.50429 0.75382 0.0
H1263 H 0.06053 0.52016 0.7363 0.0
H1264 H 0.07566 0.5508 0.81029 0.0
H1265 H 0.09478 0.53516 0.82793 0.0
C1266 C 0.10602 0.47347 0.93335 0.0
C1267 C 0.1088 0.48318 0.96059 0.0
C1268 C 0.10707 0.4773 0.89721 0.0
C1269 C 0.11076 0.49093 0.88781 0.0
C1270 C 0.11375 0.50055 0.91488 0.0
C1271 C 0.11291 0.49669 0.95089 0.0
C1272 C 0.11093 0.49538 0.8498 0.0
C1273 C 0.10115 0.50524 0.83853 0.0
C1274 C 0.12022 0.48961 0.82457 0.0
C1275 C 0.13085 0.47924 0.83511 0.0
C1276 C 0.14055 0.48225 0.8622 0.0
C1277 C 0.15047 0.47237 0.87215 0.0
C1278 C 0.15084 0.45947 0.85504 0.0
C1279 C 0.14132 0.45644 0.82787 0.0
C1280 C 0.13138 0.46627 0.81784 0.0
C1281 C 0.10686 0.52448 0.69038 0.0
C1282 C 0.10677 0.51387 0.66458 0.0
C1283 C 0.10825 0.52126 0.72687 0.0
C1284 C 0.10905 0.50733 0.73824 0.0
C1285 C 0.10916 0.49679 0.71226 0.0
C1286 C 0.10816 0.50002 0.6759 0.0
C1287 C 0.10954 0.50358 0.77701 0.0
C1288 C 0.11946 0.49384 0.78859 0.0
C1289 C 0.10013 0.50922 0.8024 0.0
C1290 C 0.08863 0.51862 0.79189 0.0
C1291 C 0.0788 0.51445 0.76617 0.0
C1292 C 0.06803 0.52339 0.75625 0.0
C1293 C 0.06692 0.53649 0.77209 0.0
C1294 C 0.07655 0.54066 0.79798 0.0
C1295 C 0.08735 0.53176 0.80797 0.0
H1296 H 0.05857 0.54341 0.76438 0.0
H1297 H 0.15853 0.45184 0.86278 0.0
H1298 H 0.74534 0.8782 0.91262 0.0
H1299 H 0.75205 0.87917 0.97573 0.0
H1300 H 0.7275 0.84261 0.99706 0.0
H1301 H 0.72031 0.84193 0.9341 0.0
H1302 H 0.7255 0.85906 0.05138 0.0
H1303 H 0.76352 0.84114 0.98367 0.0
H1304 H 0.78105 0.84074 0.93545 0.0
H1305 H 0.7989 0.87847 0.97587 0.0
H1306 H 0.78135 0.87919 0.02407 0.0
H1307 H 0.78281 0.84339 0.19346 0.0
H1308 H 0.77547 0.84404 0.13065 0.0
H1309 H 0.74777 0.87803 0.15447 0.0
H1310 H 0.75473 0.87714 0.21741 0.0
H1311 H 0.77597 0.86146 0.0776 0.0
H1312 H 0.71833 0.87543 0.10631 0.0
H1313 H 0.70099 0.87229 0.15436 0.0
H1314 H 0.72275 0.83617 0.19182 0.0
H1315 H 0.7401 0.83899 0.14372 0.0
C1316 C 0.74121 0.87048 0.93087 0.0
C1317 C 0.73237 0.85993 0.91834 0.0
C1318 C 0.74513 0.87099 0.96692 0.0
C1319 C 0.74059 0.86075 0.99106 0.0
C1320 C 0.73122 0.85059 0.97897 0.0
C1321 C 0.7271 0.85021 0.94296 0.0
C1322 C 0.746 0.86038 0.02849 0.0
C1323 C 0.73653 0.85963 0.05707 0.0
C1324 C 0.76042 0.86073 0.03609 0.0
C1325 C 0.77104 0.86029 0.00727 0.0
C1326 C 0.77113 0.8494 0.98213 0.0
C1327 C 0.78107 0.84911 0.95483 0.0
C1328 C 0.79106 0.85959 0.95255 0.0
C1329 C 0.79115 0.87037 0.97764 0.0
C1330 C 0.78121 0.87072 0.00498 0.0
C1331 C 0.77529 0.85112 0.18522 0.0
C1332 C 0.76926 0.86013 0.21049 0.0
C1333 C 0.77109 0.85148 0.14928 0.0
C1334 C 0.76084 0.86089 0.13791 0.0
C1335 C 0.75543 0.87044 0.16272 0.0
C1336 C 0.75949 0.86997 0.19869 0.0
C1337 C 0.75546 0.86042 0.10047 0.0
C1338 C 0.76494 0.86097 0.07191 0.0
C1339 C 0.74108 0.8594 0.09287 0.0
C1340 C 0.73059 0.85752 0.12163 0.0
C1341 C 0.71938 0.86679 0.12472 0.0
C1342 C 0.70955 0.86507 0.15198 0.0
C1343 C 0.71079 0.85406 0.1762 0.0
C1344 C 0.72183 0.84472 0.17313 0.0
C1345 C 0.73167 0.84638 0.1459 0.0
H1346 H 0.70318 0.85276 0.1973 0.0
H1347 H 0.79875 0.85935 0.93138 0.0
H1348 H 0.39086 0.50791 0.15816 0.0
H1349 H 0.38911 0.51413 0.2214 0.0
H1350 H 0.39727 0.47169 0.25131 0.0
H1351 H 0.39942 0.46533 0.18762 0.0
H1352 H 0.37264 0.48866 0.28735 0.0
H1353 H 0.42229 0.48807 0.26235 0.0
H1354 H 0.44286 0.49447 0.22659 0.0
H1355 H 0.4341 0.53769 0.24366 0.0
H1356 H 0.41333 0.53152 0.27905 0.0
H1357 H 0.3863 0.49663 0.47131 0.0
H1358 H 0.38567 0.49046 0.4082 0.0
H1359 H 0.39657 0.5325 0.37964 0.0
H1360 H 0.3979 0.53861 0.44344 0.0
H1361 H 0.411 0.51602 0.34124 0.0
H1362 H 0.3627 0.51818 0.3671 0.0
H1363 H 0.34095 0.51351 0.39983 0.0
H1364 H 0.34522 0.46992 0.3784 0.0
H1365 H 0.3671 0.47431 0.34595 0.0
C1366 C 0.39217 0.49983 0.17807 0.0
C1367 C 0.3953 0.48611 0.16787 0.0
C1368 C 0.39118 0.50343 0.21418 0.0
C1369 C 0.3931 0.49338 0.24081 0.0
C1370 C 0.39575 0.47957 0.23094 0.0
C1371 C 0.39701 0.47597 0.19466 0.0
C1372 C 0.39284 0.49755 0.27892 0.0
C1373 C 0.38108 0.49444 0.29949 0.0
C1374 C 0.40362 0.50562 0.29391 0.0
C1375 C 0.41618 0.50933 0.27299 0.0
C1376 C 0.42467 0.49893 0.25818 0.0
C1377 C 0.43638 0.50252 0.23804 0.0
C1378 C 0.43976 0.51648 0.23277 0.0
C1379 C 0.43146 0.52688 0.24772 0.0
C1380 C 0.41973 0.52334 0.26784 0.0
C1381 C 0.38841 0.50465 0.45166 0.0
C1382 C 0.39208 0.51815 0.4624 0.0
C1383 C 0.38797 0.5011 0.41544 0.0
C1384 C 0.3908 0.51105 0.38895 0.0
C1385 C 0.39429 0.52463 0.39955 0.0
C1386 C 0.395 0.52814 0.43598 0.0
C1387 C 0.39079 0.50702 0.35042 0.0
C1388 C 0.40249 0.51022 0.32948 0.0
C1389 C 0.37979 0.49926 0.3349 0.0
C1390 C 0.36661 0.49657 0.35435 0.0
C1391 C 0.35906 0.50759 0.36959 0.0
C1392 C 0.34669 0.50499 0.38805 0.0
C1393 C 0.34172 0.49142 0.39126 0.0
C1394 C 0.34909 0.48042 0.37593 0.0
C1395 C 0.36147 0.48296 0.35745 0.0
H1396 H 0.33215 0.48943 0.40557 0.0
H1397 H 0.44883 0.51924 0.21717 0.0
H1398 H 0.71479 0.14986 0.69119 0.0
H1399 H 0.72088 0.14901 0.6271 0.0
H1400 H 0.76284 0.13765 0.65452 0.0
H1401 H 0.75686 0.13806 0.71806 0.0
H1402 H 0.757 0.16313 0.60429 0.0
H1403 H 0.74839 0.1136 0.62524 0.0
H1404 H 0.7336 0.09408 0.64455 0.0
H1405 H 0.7026 0.10587 0.56754 0.0
H1406 H 0.71714 0.12559 0.54816 0.0
H1407 H 0.78812 0.15093 0.43567 0.0
H1408 H 0.78122 0.14929 0.49881 0.0
H1409 H 0.7391 0.14034 0.46659 0.0
H1410 H 0.74607 0.14122 0.40395 0.0
H1411 H 0.74413 0.12541 0.52002 0.0
H1412 H 0.75033 0.17361 0.49664 0.0
H1413 H 0.76237 0.19481 0.47645 0.0
H1414 H 0.79411 0.18834 0.55563 0.0
H1415 H 0.78233 0.167 0.57602 0.0
C1416 C 0.72525 0.147 0.68349 0.0
C1417 C 0.73532 0.14399 0.70969 0.0
C1418 C 0.72871 0.14654 0.64698 0.0
C1419 C 0.74232 0.14331 0.63633 0.0
C1420 C 0.7523 0.14017 0.66234 0.0
C1421 C 0.74881 0.14034 0.69863 0.0
C1422 C 0.74638 0.14363 0.59814 0.0
C1423 C 0.75433 0.15484 0.58581 0.0
C1424 C 0.74244 0.13305 0.57404 0.0
C1425 C 0.73377 0.12116 0.58558 0.0
C1426 C 0.73835 0.11212 0.6127 0.0
C1427 C 0.73003 0.10099 0.62359 0.0
C1428 C 0.71715 0.09876 0.60737 0.0
C1429 C 0.71257 0.10762 0.58013 0.0
C1430 C 0.72085 0.11877 0.56917 0.0
C1431 C 0.77743 0.14848 0.44216 0.0
C1432 C 0.76765 0.14621 0.41484 0.0
C1433 C 0.77346 0.14765 0.47824 0.0
C1434 C 0.75955 0.14495 0.4876 0.0
C1435 C 0.74988 0.14242 0.46024 0.0
C1436 C 0.7539 0.14294 0.42433 0.0
C1437 C 0.75496 0.14492 0.52574 0.0
C1438 C 0.74685 0.13376 0.53821 0.0
C1439 C 0.7584 0.1558 0.54974 0.0
C1440 C 0.76552 0.16863 0.5376 0.0
C1441 C 0.75993 0.17666 0.50957 0.0
C1442 C 0.7667 0.18871 0.49812 0.0
C1443 C 0.77902 0.1929 0.51468 0.0
C1444 C 0.78458 0.18507 0.54279 0.0
C1445 C 0.77785 0.173 0.55433 0.0
H1446 H 0.78425 0.20223 0.50578 0.0
H1447 H 0.71072 0.09015 0.61583 0.0
H1448 H 0.89267 0.53619 0.17945 0.0
H1449 H 0.89009 0.53056 0.24324 0.0
H1450 H 0.88719 0.48701 0.21668 0.0
H1451 H 0.88882 0.49269 0.15322 0.0
H1452 H 0.87062 0.49105 0.26686 0.0
H1453 H 0.91826 0.50414 0.24972 0.0
H1454 H 0.93768 0.51928 0.23153 0.0
H1455 H 0.92408 0.55049 0.3059 0.0
H1456 H 0.90447 0.5356 0.32421 0.0
H1457 H 0.89462 0.46433 0.43771 0.0
H1458 H 0.89291 0.4709 0.3742 0.0
H1459 H 0.88133 0.51248 0.40475 0.0
H1460 H 0.88272 0.506 0.46796 0.0
H1461 H 0.9045 0.50997 0.3543 0.0
H1462 H 0.85728 0.49436 0.37292 0.0
H1463 H 0.83946 0.47739 0.39117 0.0
H1464 H 0.85479 0.44838 0.31318 0.0
H1465 H 0.87285 0.46511 0.29481 0.0
C1466 C 0.89134 0.52545 0.18734 0.0
C1467 C 0.89095 0.51489 0.16139 0.0
C1468 C 0.88998 0.5222 0.22381 0.0
C1469 C 0.88874 0.5083 0.23505 0.0
C1470 C 0.8881 0.49781 0.20894 0.0
C1471 C 0.88907 0.50108 0.17256 0.0
C1472 C 0.88834 0.50452 0.27384 0.0
C1473 C 0.87816 0.4951 0.28577 0.0
C1474 C 0.89803 0.50986 0.29895 0.0
C1475 C 0.90982 0.51882 0.28803 0.0
C1476 C 0.91936 0.51427 0.26201 0.0
C1477 C 0.93041 0.5228 0.2517 0.0
C1478 C 0.93209 0.53585 0.26747 0.0
C1479 C 0.92275 0.54039 0.29366 0.0
C1480 C 0.91167 0.53191 0.30403 0.0
C1481 C 0.89154 0.47481 0.43087 0.0
C1482 C 0.8888 0.48463 0.45789 0.0
C1483 C 0.89056 0.47855 0.39464 0.0
C1484 C 0.88702 0.49218 0.38492 0.0
C1485 C 0.8841 0.50192 0.41177 0.0
C1486 C 0.88484 0.49815 0.44788 0.0
C1487 C 0.88693 0.4965 0.3468 0.0
C1488 C 0.897 0.506 0.33516 0.0
C1489 C 0.8774 0.49096 0.32184 0.0
C1490 C 0.8665 0.48094 0.33275 0.0
C1491 C 0.85694 0.48431 0.35988 0.0
C1492 C 0.84677 0.47475 0.3702 0.0
C1493 C 0.84602 0.4618 0.35341 0.0
C1494 C 0.8554 0.45841 0.32619 0.0
C1495 C 0.86559 0.46793 0.3158 0.0
H1496 H 0.83814 0.45441 0.36143 0.0
H1497 H 0.94065 0.54244 0.25946 0.0
H1498 H 0.21468 0.14697 0.93307 0.0
H1499 H 0.22033 0.14449 0.99683 0.0
H1500 H 0.2633 0.13727 0.96957 0.0
H1501 H 0.2576 0.13902 0.90617 0.0
H1502 H 0.25749 0.12156 0.02176 0.0
H1503 H 0.25011 0.16993 -0.00126 0.0
H1504 H 0.23739 0.19067 0.97807 0.0
H1505 H 0.20502 0.1825 0.05441 0.0
H1506 H 0.21747 0.1616 0.07522 0.0
H1507 H 0.2864 0.14622 0.19098 0.0
H1508 H 0.27999 0.14427 0.12733 0.0
H1509 H 0.23762 0.13575 0.15731 0.0
H1510 H 0.24391 0.13731 0.22058 0.0
H1511 H 0.24293 0.15896 0.10516 0.0
H1512 H 0.25254 0.11039 0.12872 0.0
H1513 H 0.2672 0.09094 0.14911 0.0
H1514 H 0.29806 0.10157 0.07065 0.0
H1515 H 0.28366 0.12123 0.05015 0.0
C1516 C 0.22529 0.1447 0.94074 0.0
C1517 C 0.23569 0.14325 0.9146 0.0
C1518 C 0.22854 0.14338 0.97719 0.0
C1519 C 0.24232 0.14099 0.98816 0.0
C1520 C 0.2526 0.13912 0.96194 0.0
C1521 C 0.24932 0.14016 0.9256 0.0
C1522 C 0.2462 0.14082 0.02679 0.0
C1523 C 0.25439 0.12983 0.03982 0.0
C1524 C 0.24215 0.15155 0.05065 0.0
C1525 C 0.23465 0.16412 0.03825 0.0
C1526 C 0.24023 0.1725 0.01094 0.0
C1527 C 0.23308 0.18429 -0.00078 0.0
C1528 C 0.22039 0.18788 0.01485 0.0
C1529 C 0.21484 0.1797 0.04229 0.0
C1530 C 0.22194 0.16788 0.05407 0.0
C1531 C 0.27577 0.14375 0.18397 0.0
C1532 C 0.26567 0.1419 0.2108 0.0
C1533 C 0.27214 0.14264 0.14769 0.0
C1534 C 0.25834 0.1399 0.13783 0.0
C1535 C 0.24831 0.13788 0.1645 0.0
C1536 C 0.25196 0.13872 0.20063 0.0
C1537 C 0.25414 0.13976 0.0997 0.0
C1538 C 0.24594 0.15071 0.08691 0.0
C1539 C 0.25846 0.1292 0.07594 0.0
C1540 C 0.2671 0.11737 0.08819 0.0
C1541 C 0.26251 0.10867 0.11607 0.0
C1542 C 0.27076 0.09758 0.12758 0.0
C1543 C 0.28357 0.09504 0.11126 0.0
C1544 C 0.28815 0.10356 0.08331 0.0
C1545 C 0.27994 0.11467 0.07172 0.0
H1546 H 0.28994 0.08645 0.1202 0.0
H1547 H 0.21487 0.19701 0.00575 0.0
H1548 H 0.60799 0.53724 0.94728 0.0
H1549 H 0.60906 0.53165 0.88323 0.0
H1550 H 0.61779 0.48884 0.90918 0.0
H1551 H 0.6175 0.49452 0.97275 0.0
H1552 H 0.63194 0.49475 0.85463 0.0
H1553 H 0.58411 0.50168 0.88513 0.0
H1554 H 0.56375 0.51421 0.9089 0.0
H1555 H 0.56981 0.54659 0.83128 0.0
H1556 H 0.59033 0.53434 0.80736 0.0
H1557 H 0.60461 0.4654 0.68931 0.0
H1558 H 0.60728 0.47196 0.75269 0.0
H1559 H 0.61434 0.51447 0.7215 0.0
H1560 H 0.61206 0.50802 0.65845 0.0
H1561 H 0.59254 0.50893 0.77714 0.0
H1562 H 0.64063 0.49977 0.7463 0.0
H1563 H 0.65968 0.48524 0.72294 0.0
H1564 H 0.65101 0.45426 0.8027 0.0
H1565 H 0.63176 0.46852 0.8262 0.0
C1566 C 0.61031 0.52668 0.93922 0.0
C1567 C 0.61261 0.51632 0.96505 0.0
C1568 C 0.61081 0.52346 0.90262 0.0
C1569 C 0.61319 0.50973 0.89124 0.0
C1570 C 0.61592 0.4995 0.9171 0.0
C1571 C 0.61574 0.50277 0.95355 0.0
C1572 C 0.61248 0.50584 0.85262 0.0
C1573 C 0.62323 0.49776 0.8379 0.0
C1574 C 0.60118 0.50979 0.83044 0.0
C1575 C 0.58884 0.51717 0.84472 0.0
C1576 C 0.58115 0.51152 0.8733 0.0
C1577 C 0.56958 0.51856 0.88678 0.0
C1578 C 0.56551 0.5312 0.87168 0.0
C1579 C 0.57299 0.53681 0.843 0.0
C1580 C 0.58459 0.52982 0.82946 0.0
C1581 C 0.60686 0.47611 0.696 0.0
C1582 C 0.60816 0.48618 0.6689 0.0
C1583 C 0.60838 0.47983 0.73211 0.0
C1584 C 0.61099 0.4937 0.74158 0.0
C1585 C 0.61233 0.50373 0.71463 0.0
C1586 C 0.61109 0.49999 0.67863 0.0
C1587 C 0.61193 0.49789 0.77964 0.0
C1588 C 0.60122 0.50599 0.79409 0.0
C1589 C 0.62306 0.49368 0.80176 0.0
C1590 C 0.63466 0.48514 0.78774 0.0
C1591 C 0.64269 0.4898 0.75863 0.0
C1592 C 0.65355 0.48162 0.74541 0.0
C1593 C 0.65653 0.46882 0.76125 0.0
C1594 C 0.64868 0.46417 0.79041 0.0
C1595 C 0.6378 0.4723 0.80371 0.0
H1596 H 0.66494 0.46251 0.75099 0.0
H1597 H 0.55655 0.53664 0.88215 0.0
H1598 H 0.25827 0.86302 0.71926 0.0
H1599 H 0.26452 0.86386 0.65616 0.0
H1600 H 0.22199 0.85536 0.62699 0.0
H1601 H 0.21579 0.85379 0.69069 0.0
H1602 H 0.23764 0.84059 0.58743 0.0
H1603 H 0.23812 0.88864 0.6168 0.0
H1604 H 0.24401 0.90973 0.65104 0.0
H1605 H 0.28729 0.9033 0.62886 0.0
H1606 H 0.28167 0.88206 0.59487 0.0
H1607 H 0.24662 0.86102 0.40534 0.0
H1608 H 0.24044 0.86276 0.46862 0.0
H1609 H 0.28274 0.85374 0.49833 0.0
H1610 H 0.28904 0.85164 0.43461 0.0
H1611 H 0.26695 0.87801 0.53602 0.0
H1612 H 0.26486 0.82883 0.50699 0.0
H1613 H 0.25734 0.80903 0.46985 0.0
H1614 H 0.21465 0.81961 0.4889 0.0
H1615 H 0.22194 0.83963 0.52568 0.0
C1616 C 0.25018 0.86147 0.69948 0.0
C1617 C 0.2365 0.85842 0.71001 0.0
C1618 C 0.25377 0.86204 0.66327 0.0
C1619 C 0.2437 0.85995 0.63659 0.0
C1620 C 0.22996 0.85705 0.64702 0.0
C1621 C 0.2264 0.85621 0.68341 0.0
C1622 C 0.24773 0.86016 0.59801 0.0
C1623 C 0.24387 0.8489 0.57622 0.0
C1624 C 0.25604 0.87089 0.58317 0.0
C1625 C 0.25947 0.88368 0.60354 0.0
C1626 C 0.2489 0.89166 0.61944 0.0
C1627 C 0.25219 0.90366 0.63877 0.0
C1628 C 0.26602 0.90783 0.64219 0.0
C1629 C 0.27659 0.90005 0.62621 0.0
C1630 C 0.27335 0.88804 0.60687 0.0
C1631 C 0.25469 0.85954 0.42521 0.0
C1632 C 0.26834 0.85616 0.41492 0.0
C1633 C 0.2511 0.86052 0.46137 0.0
C1634 C 0.26112 0.85833 0.48798 0.0
C1635 C 0.27489 0.85547 0.47801 0.0
C1636 C 0.27845 0.85425 0.44169 0.0
C1637 C 0.25694 0.85844 0.52615 0.0
C1638 C 0.26073 0.86975 0.54759 0.0
C1639 C 0.24833 0.84794 0.54049 0.0
C1640 C 0.24395 0.83581 0.51876 0.0
C1641 C 0.25387 0.82701 0.50298 0.0
C1642 C 0.24965 0.81573 0.48205 0.0
C1643 C 0.23553 0.81308 0.47693 0.0
C1644 C 0.22559 0.82168 0.49284 0.0
C1645 C 0.22976 0.83299 0.51375 0.0
H1646 H 0.23228 0.80435 0.46072 0.0
H1647 H 0.26855 0.91712 0.65717 0.0
H1648 H 0.605 0.03634 0.1854 0.0
H1649 H 0.6059 0.0297 0.2491 0.0
H1650 H 0.61533 0.98753 0.2191 0.0
H1651 H 0.61485 0.99405 0.15589 0.0
H1652 H 0.59104 0.99297 0.26986 0.0
H1653 H 0.64012 0.0018 0.24925 0.0
H1654 H 0.65988 0.01632 0.23023 0.0
H1655 H 0.64878 0.04713 0.30837 0.0
H1656 H 0.62881 0.03287 0.32748 0.0
H1657 H 0.60207 0.96331 0.44129 0.0
H1658 H 0.60446 0.9694 0.37773 0.0
H1659 H 0.61247 0.01202 0.40705 0.0
H1660 H 0.61084 0.00587 0.47012 0.0
H1661 H 0.62821 0.00633 0.35524 0.0
H1662 H 0.57963 0.99961 0.37638 0.0
H1663 H 0.55857 0.98711 0.39575 0.0
H1664 H 0.56653 0.9552 0.318 0.0
H1665 H 0.58775 0.96742 0.29848 0.0
C1666 C 0.60742 0.02571 0.19246 0.0
C1667 C 0.60989 0.01574 0.16565 0.0
C1668 C 0.60792 0.02194 0.22874 0.0
C1669 C 0.61064 0.00813 0.23856 0.0
C1670 C 0.61321 0.99823 0.21193 0.0
C1671 C 0.61299 0.00202 0.17585 0.0
C1672 C 0.61038 0.00382 0.27656 0.0
C1673 C 0.59921 0.99574 0.28857 0.0
C1674 C 0.62087 0.0078 0.30089 0.0
C1675 C 0.63289 0.01635 0.28948 0.0
C1676 C 0.64181 0.01173 0.26211 0.0
C1677 C 0.65307 0.0199 0.25138 0.0
C1678 C 0.65556 0.03266 0.268 0.0
C1679 C 0.64682 0.03726 0.29547 0.0
C1680 C 0.63554 0.02913 0.30628 0.0
C1681 C 0.60447 0.97393 0.43408 0.0
C1682 C 0.60624 0.9841 0.46069 0.0
C1683 C 0.60574 0.97744 0.39776 0.0
C1684 C 0.60839 0.99125 0.38746 0.0
C1685 C 0.61045 0.0013 0.41415 0.0
C1686 C 0.60948 0.99775 0.45031 0.0
C1687 C 0.60878 0.99541 0.34903 0.0
C1688 C 0.61998 0.0035 0.33677 0.0
C1689 C 0.59811 0.99171 0.32463 0.0
C1690 C 0.58535 0.98435 0.33625 0.0
C1691 C 0.57694 0.98987 0.3636 0.0
C1692 C 0.56497 0.98285 0.37458 0.0
C1693 C 0.56124 0.97035 0.35819 0.0
C1694 C 0.56945 0.96487 0.33071 0.0
C1695 C 0.58144 0.97184 0.31967 0.0
H1696 H 0.55197 0.96493 0.36672 0.0
H1697 H 0.66428 0.03897 0.25967 0.0
H1698 H 0.24538 0.37694 0.41474 0.0
H1699 H 0.25226 0.37785 0.47774 0.0
H1700 H 0.2306 0.33935 0.49732 0.0
H1701 H 0.22311 0.33879 0.43458 0.0
H1702 H 0.22747 0.35467 0.55231 0.0
H1703 H 0.26708 0.34128 0.48366 0.0
H1704 H 0.28459 0.34309 0.43559 0.0
H1705 H 0.29865 0.38196 0.47872 0.0
H1706 H 0.2811 0.38047 0.5268 0.0
H1707 H 0.28549 0.34379 0.69508 0.0
H1708 H 0.27837 0.34394 0.63205 0.0
H1709 H 0.24778 0.37539 0.65549 0.0
H1710 H 0.2546 0.37506 0.71854 0.0
H1711 H 0.27744 0.36187 0.57908 0.0
H1712 H 0.21856 0.36955 0.60798 0.0
H1713 H 0.20165 0.36416 0.65572 0.0
H1714 H 0.22721 0.33035 0.6915 0.0
H1715 H 0.24416 0.33541 0.64369 0.0
C1716 C 0.24193 0.36876 0.43261 0.0
C1717 C 0.23377 0.35775 0.41972 0.0
C1718 C 0.24597 0.36923 0.46858 0.0
C1719 C 0.2423 0.35847 0.4922 0.0
C1720 C 0.23365 0.34775 0.47967 0.0
C1721 C 0.22935 0.34744 0.4438 0.0
C1722 C 0.24774 0.35823 0.52962 0.0
C1723 C 0.2384 0.35627 0.55808 0.0
C1724 C 0.26207 0.35993 0.53735 0.0
C1725 C 0.2727 0.36082 0.50864 0.0
C1726 C 0.27385 0.35026 0.48276 0.0
C1727 C 0.28379 0.35122 0.45553 0.0
C1728 C 0.2927 0.36265 0.45405 0.0
C1729 C 0.29172 0.37312 0.47988 0.0
C1730 C 0.2818 0.37222 0.50714 0.0
C1731 C 0.27738 0.35087 0.68672 0.0
C1732 C 0.27053 0.35932 0.71191 0.0
C1733 C 0.2733 0.35094 0.65067 0.0
C1734 C 0.26234 0.35947 0.63914 0.0
C1735 C 0.25604 0.36848 0.66388 0.0
C1736 C 0.26002 0.36834 0.69991 0.0
C1737 C 0.25712 0.35861 0.60165 0.0
C1738 C 0.26651 0.36032 0.57323 0.0
C1739 C 0.24292 0.35618 0.59389 0.0
C1740 C 0.2327 0.35296 0.62248 0.0
C1741 C 0.22054 0.36093 0.62596 0.0
C1742 C 0.21095 0.35794 0.65304 0.0
C1743 C 0.21337 0.34695 0.67671 0.0
C1744 C 0.22537 0.33889 0.67325 0.0
C1745 C 0.23497 0.34183 0.64619 0.0
H1746 H 0.20594 0.34465 0.69767 0.0
H1747 H 0.30038 0.36338 0.43294 0.0
H1748 H 0.87567 0.00826 0.96446 0.0
H1749 H 0.87483 0.00129 0.90147 0.0
H1750 H 0.91214 0.02478 0.88072 0.0
H1751 H 0.91264 0.0323 0.94334 0.0
H1752 H 0.89632 0.02733 0.8265 0.0
H1753 H 0.91202 0.9883 0.89451 0.0
H1754 H 0.91115 0.97063 0.94234 0.0
H1755 H 0.873 0.9547 0.89926 0.0
H1756 H 0.87354 0.9724 0.85142 0.0
H1757 H 0.91108 0.97054 0.68309 0.0
H1758 H 0.91027 0.97743 0.74629 0.0
H1759 H 0.87696 0.00596 0.72283 0.0
H1760 H 0.87792 0.9994 0.65967 0.0
H1761 H 0.89208 0.97709 0.79907 0.0
H1762 H 0.88081 0.03536 0.77078 0.0
H1763 H 0.88516 0.05268 0.72331 0.0
H1764 H 0.92064 0.02947 0.68762 0.0
H1765 H 0.91662 0.01213 0.73516 0.0
C1766 C 0.88359 0.01209 0.94634 0.0
C1767 C 0.89426 0.02078 0.95888 0.0
C1768 C 0.88317 0.008 0.91037 0.0
C1769 C 0.89362 0.0122 0.88641 0.0
C1770 C 0.90398 0.02134 0.89862 0.0
C1771 C 0.90425 0.02565 0.93445 0.0
C1772 C 0.89397 0.00685 0.84893 0.0
C1773 C 0.89535 0.01635 0.82059 0.0
C1774 C 0.89307 0.99247 0.84101 0.0
C1775 C 0.89276 0.98175 0.86959 0.0
C1776 C 0.9034 0.98108 0.89538 0.0
C1777 C 0.90297 0.97105 0.92247 0.0
C1778 C 0.89201 0.96157 0.92389 0.0
C1779 C 0.88147 0.96207 0.89815 0.0
C1780 C 0.88184 0.97209 0.87103 0.0
C1781 C 0.90346 0.97815 0.69148 0.0
C1782 C 0.89466 0.98453 0.66627 0.0
C1783 C 0.90301 0.98208 0.72763 0.0
C1784 C 0.89375 0.99243 0.73921 0.0
C1785 C 0.88442 0.9982 0.71441 0.0
C1786 C 0.88494 0.99438 0.67831 0.0
C1787 C 0.89418 0.9976 0.77678 0.0
C1788 C 0.89297 0.98807 0.80507 0.0
C1789 C 0.89573 0.0119 0.78473 0.0
C1790 C 0.89831 0.02237 0.7563 0.0
C1791 C 0.88957 0.03398 0.75288 0.0
C1792 C 0.89197 0.0438 0.72595 0.0
C1793 C 0.90314 0.04215 0.70239 0.0
C1794 C 0.91196 0.03071 0.70579 0.0
C1795 C 0.90961 0.02088 0.7327 0.0
H1796 H 0.90497 0.04976 0.68155 0.0
H1797 H 0.89169 0.95382 0.94489 0.0
H1798 H 0.28491 0.65262 0.94231 0.0
H1799 H 0.27878 0.65025 0.00575 0.0
H1800 H 0.24131 0.62853 0.97636 0.0
H1801 H 0.24746 0.63059 0.91315 0.0
H1802 H 0.25731 0.66055 0.04108 0.0
H1803 H 0.23233 0.60575 0.04161 0.0
H1804 H 0.23496 0.58329 0.01055 0.0
H1805 H 0.27767 0.59266 0.98809 0.0
H1806 H 0.27535 0.61509 0.01942 0.0
H1807 H 0.21798 0.65311 0.19982 0.0
H1808 H 0.2242 0.65193 0.1362 0.0
H1809 H 0.25728 0.62331 0.16108 0.0
H1810 H 0.25105 0.62428 0.22447 0.0
H1811 H 0.24465 0.61606 0.09972 0.0
H1812 H 0.26412 0.65734 0.15129 0.0
H1813 H 0.26351 0.67948 0.18445 0.0
H1814 H 0.23587 0.69666 0.1057 0.0
H1815 H 0.23614 0.67452 0.07235 0.0
C1816 C 0.27546 0.64717 0.94938 0.0
C1817 C 0.26669 0.64178 0.92262 0.0
C1818 C 0.27193 0.64589 0.98565 0.0
C1819 C 0.25962 0.63915 0.99587 0.0
C1820 C 0.25096 0.63358 0.96922 0.0
C1821 C 0.25449 0.63482 0.93302 0.0
C1822 C 0.25552 0.63841 0.03425 0.0
C1823 C 0.25455 0.65081 0.05386 0.0
C1824 C 0.25206 0.6257 0.05114 0.0
C1825 C 0.25361 0.61216 0.03257 0.0
C1826 C 0.24229 0.60299 0.03017 0.0
C1827 C 0.24373 0.59027 0.01249 0.0
C1828 C 0.25646 0.58657 0.99726 0.0
C1829 C 0.2678 0.59557 -0.00022 0.0
C1830 C 0.26642 0.60829 0.01745 0.0
C1831 C 0.22643 0.64639 0.19168 0.0
C1832 C 0.23409 0.63888 0.21728 0.0
C1833 C 0.23002 0.64578 0.15534 0.0
C1834 C 0.24135 0.6377 0.14399 0.0
C1835 C 0.24853 0.62964 0.16923 0.0
C1836 C 0.24497 0.63025 0.20551 0.0
C1837 C 0.24625 0.63822 0.10625 0.0
C1838 C 0.24736 0.62579 0.08682 0.0
C1839 C 0.25013 0.65087 0.08972 0.0
C1840 C 0.25004 0.66423 0.10952 0.0
C1841 C 0.25783 0.66581 0.14118 0.0
C1842 C 0.25756 0.67836 0.16 0.0
C1843 C 0.24963 0.68946 0.14724 0.0
C1844 C 0.24199 0.68804 0.11558 0.0
C1845 C 0.24221 0.6755 0.0967 0.0
H1846 H 0.24942 0.69917 0.16185 0.0
H1847 H 0.25755 0.57672 0.98356 0.0
H1848 H 0.38968 0.00678 0.97446 0.0
H1849 H 0.38772 0.01259 0.91133 0.0
H1850 H 0.39515 0.96976 0.8831 0.0
H1851 H 0.39787 0.96398 0.94689 0.0
H1852 H 0.40913 0.9851 0.8405 0.0
H1853 H 0.36187 0.98592 0.87682 0.0
H1854 H 0.34157 0.99195 0.91398 0.0
H1855 H 0.34756 0.03515 0.89022 0.0
H1856 H 0.36802 0.02941 0.85329 0.0
H1857 H 0.38519 0.99518 0.66117 0.0
H1858 H 0.38455 0.98858 0.72431 0.0
H1859 H 0.39483 0.0305 0.75476 0.0
H1860 H 0.39584 0.03723 0.69119 0.0
H1861 H 0.37093 0.01475 0.79435 0.0
H1862 H 0.41958 0.01228 0.75915 0.0
H1863 H 0.43855 0.00463 0.71933 0.0
H1864 H 0.42776 0.96203 0.73869 0.0
H1865 H 0.40857 0.96945 0.77818 0.0
C1866 C 0.39077 0.99853 0.95491 0.0
C1867 C 0.39383 0.98488 0.96568 0.0
C1868 C 0.38956 0.00187 0.9187 0.0
C1869 C 0.39096 0.99158 0.89232 0.0
C1870 C 0.39396 0.97789 0.90296 0.0
C1871 C 0.39546 0.97457 0.93936 0.0
C1872 C 0.38988 0.99537 0.85373 0.0
C1873 C 0.40063 0.99139 0.83044 0.0
C1874 C 0.37889 0.00372 0.84038 0.0
C1875 C 0.36656 0.00724 0.8625 0.0
C1876 C 0.35892 0.99672 0.87971 0.0
C1877 C 0.34737 1.00008 0.90071 0.0
C1878 C 0.34329 0.01393 0.90452 0.0
C1879 C 0.35074 0.02443 0.88726 0.0
C1880 C 0.3623 0.02113 0.86625 0.0
C1881 C 0.38717 0.00308 0.6812 0.0
C1882 C 0.3906 0.01675 0.67117 0.0
C1883 C 0.38683 0.99925 0.71725 0.0
C1884 C 0.3897 0.00904 0.74397 0.0
C1885 C 0.39259 0.02282 0.73432 0.0
C1886 C 0.39318 0.02663 0.6981 0.0
C1887 C 0.39022 0.00462 0.78188 0.0
C1888 C 0.37935 0.00844 0.80476 0.0
C1889 C 0.40091 0.99588 0.79466 0.0
C1890 C 0.41255 0.99142 0.77129 0.0
C1891 C 0.42117 0.00128 0.75464 0.0
C1892 C 0.43198 0.99699 0.73219 0.0
C1893 C 0.43433 0.98285 0.7264 0.0
C1894 C 0.42591 0.97298 0.74315 0.0
C1895 C 0.41508 0.97722 0.76559 0.0
H1896 H 0.44271 0.97955 0.709 0.0
H1897 H 0.33435 0.01651 0.92079 0.0
H1898 H 0.71678 0.64575 0.43561 0.0
H1899 H 0.72297 0.64365 0.49911 0.0
H1900 H 0.7662 0.63974 0.4701 0.0
H1901 H 0.75999 0.64102 0.40691 0.0
H1902 H 0.76214 0.62376 0.52241 0.0
H1903 H 0.75059 0.67133 0.50068 0.0
H1904 H 0.73615 0.69102 0.48071 0.0
H1905 H 0.70479 0.67999 0.55747 0.0
H1906 H 0.71897 0.66011 0.57758 0.0
H1907 H 0.78842 0.64927 0.69406 0.0
H1908 H 0.78261 0.64726 0.63003 0.0
H1909 H 0.74073 0.63567 0.65766 0.0
H1910 H 0.74644 0.6373 0.72122 0.0
H1911 H 0.74447 0.65934 0.60709 0.0
H1912 H 0.75827 0.61158 0.62875 0.0
H1913 H 0.77461 0.5934 0.64839 0.0
H1914 H 0.80443 0.60729 0.57063 0.0
H1915 H 0.78833 0.6257 0.55088 0.0
C1916 C 0.72757 0.64428 0.44286 0.0
C1917 C 0.73789 0.64359 0.4163 0.0
C1918 C 0.73113 0.64319 0.47916 0.0
C1919 C 0.74512 0.64185 0.48958 0.0
C1920 C 0.75535 0.64077 0.46292 0.0
C1921 C 0.75177 0.64153 0.42672 0.0
C1922 C 0.74922 0.64195 0.52811 0.0
C1923 C 0.75836 0.63166 0.54073 0.0
C1924 C 0.74432 0.65219 0.55232 0.0
C1925 C 0.73577 0.66415 0.54036 0.0
C1926 C 0.74057 0.67305 0.51313 0.0
C1927 C 0.73244 0.68425 0.50181 0.0
C1928 C 0.71954 0.68673 0.51774 0.0
C1929 C 0.71477 0.67804 0.54511 0.0
C1930 C 0.72285 0.66681 0.55649 0.0
C1931 C 0.77804 0.64611 0.68645 0.0
C1932 C 0.76791 0.64345 0.71273 0.0
C1933 C 0.77475 0.64497 0.64995 0.0
C1934 C 0.76124 0.64136 0.63931 0.0
C1935 C 0.7512 0.63849 0.66543 0.0
C1936 C 0.75453 0.63938 0.70175 0.0
C1937 C 0.75727 0.64119 0.601 0.0
C1938 C 0.74819 0.65149 0.58855 0.0
C1939 C 0.7625 0.6312 0.57683 0.0
C1940 C 0.77216 0.62011 0.58863 0.0
C1941 C 0.76836 0.61085 0.61609 0.0
C1942 C 0.77757 0.60048 0.62718 0.0
C1943 C 0.79057 0.59922 0.61085 0.0
C1944 C 0.79437 0.60829 0.58331 0.0
C1945 C 0.7852 0.61869 0.57213 0.0
H1946 H 0.79768 0.59118 0.61947 0.0
H1947 H 0.71326 0.6954 0.50895 0.0
H1948 H 0.11474 0.99448 0.4715 0.0
H1949 H 0.11594 0.98776 0.40874 0.0
H1950 H 0.10823 0.03018 0.37711 0.0
H1951 H 0.10635 0.03688 0.44037 0.0
H1952 H 0.09324 0.01437 0.33825 0.0
H1953 H 0.14125 0.01353 0.36903 0.0
H1954 H 0.1621 0.00748 0.40409 0.0
H1955 H 0.1552 0.96422 0.38285 0.0
H1956 H 0.13419 0.96999 0.34804 0.0
H1957 H 0.1158 0.00578 0.15784 0.0
H1958 H 0.11715 0.01142 0.2215 0.0
H1959 H 0.10566 0.96946 0.2485 0.0
H1960 H 0.10392 0.96371 0.18434 0.0
H1961 H 0.13073 0.98471 0.28848 0.0
H1962 H 0.08163 0.98708 0.25807 0.0
H1963 H 0.06207 0.99467 0.22015 0.0
H1964 H 0.07302 0.0373 0.23845 0.0
H1965 H 0.0928 0.02994 0.27601 0.0
C1966 C 0.11345 0.00245 0.45126 0.0
C1967 C 0.1105 0.01625 0.46096 0.0
C1968 C 0.11421 0.99858 0.41524 0.0
C1969 C 0.11241 0.00847 0.38799 0.0
C1970 C 0.10968 0.02234 0.3976 0.0
C1971 C 0.10866 0.02618 0.43375 0.0
C1972 C 0.1127 0.00418 0.34961 0.0
C1973 C 0.10156 0.00804 0.32743 0.0
C1974 C 0.12343 0.99571 0.3353 0.0
C1975 C 0.13607 0.99219 0.35619 0.0
C1976 C 0.14411 0.00272 0.37205 0.0
C1977 C 0.15597 0.99934 0.39185 0.0
C1978 C 0.15995 0.98547 0.39577 0.0
C1979 C 0.1521 0.97495 0.37982 0.0
C1980 C 0.14022 0.97827 0.36002 0.0
C1981 C 0.1137 0.99766 0.17719 0.0
C1982 C 0.10972 0.98428 0.16599 0.0
C1983 C 0.11446 1.00093 0.21357 0.0
C1984 C 0.11146 0.99087 0.23952 0.0
C1985 C 0.10802 0.97734 0.22869 0.0
C1986 C 0.10701 0.9741 0.19213 0.0
C1987 C 0.11128 0.99484 0.27782 0.0
C1988 C 0.12245 0.99099 0.29972 0.0
C1989 C 0.10075 0.00351 0.29174 0.0
C1990 C 0.08877 0.00795 0.26951 0.0
C1991 C 0.07994 0.99807 0.25371 0.0
C1992 C 0.0688 0.00233 0.23235 0.0
C1993 C 0.06632 0.01646 0.2268 0.0
C1994 C 0.07496 0.02636 0.24272 0.0
C1995 C 0.08613 0.02214 0.26407 0.0
H1996 H 0.05769 0.01974 0.21025 0.0
H1997 H 0.16913 0.98288 0.41111 0.0
H1998 H 0.75653 0.36731 0.22416 0.0
H1999 H 0.76211 0.36881 0.16071 0.0
H2000 H 0.71975 0.35848 0.13391 0.0
H2001 H 0.71424 0.35632 0.19789 0.0
H2002 H 0.73583 0.34448 0.09324 0.0
H2003 H 0.73397 0.39238 0.12337 0.0
H2004 H 0.73897 0.4137 0.15759 0.0
H2005 H 0.78234 0.40975 0.13294 0.0
H2006 H 0.77764 0.38829 0.09896 0.0
H2007 H 0.74337 0.36497 0.91043 0.0
H2008 H 0.73712 0.36687 0.97369 0.0
H2009 H 0.77973 0.35972 0.00372 0.0
H2010 H 0.78612 0.35743 0.94015 0.0
H2011 H 0.76281 0.38344 0.04094 0.0
H2012 H 0.76322 0.33408 0.01252 0.0
H2013 H 0.75661 0.3139 0.97558 0.0
H2014 H 0.71349 0.32247 0.99482 0.0
H2015 H 0.71985 0.34286 0.03139 0.0
C2016 C 0.74833 0.36549 0.20484 0.0
C2017 C 0.73491 0.36175 0.2161 0.0
C2018 C 0.75153 0.36644 0.16844 0.0
C2019 C 0.74131 0.36402 0.14234 0.0
C2020 C 0.72782 0.36044 0.1535 0.0
C2021 C 0.72466 0.35925 0.19005 0.0
C2022 C 0.74496 0.36454 0.10356 0.0
C2023 C 0.74154 0.35313 0.08183 0.0
C2024 C 0.75257 0.37573 0.08847 0.0
C2025 C 0.75546 0.38865 0.10886 0.0
C2026 C 0.74459 0.39599 0.12546 0.0
C2027 C 0.74737 0.40812 0.14478 0.0
C2028 C 0.76096 0.41306 0.14751 0.0
C2029 C 0.77181 0.4059 0.13084 0.0
C2030 C 0.76909 0.39377 0.11151 0.0
C2031 C 0.75149 0.36397 0.93038 0.0
C2032 C 0.76526 0.36101 0.92027 0.0
C2033 C 0.74786 0.36504 0.9665 0.0
C2034 C 0.75796 0.36339 0.99319 0.0
C2035 C 0.77182 0.36103 0.98334 0.0
C2036 C 0.77543 0.3597 0.94711 0.0
C2037 C 0.75379 0.36338 0.03135 0.0
C2038 C 0.75708 0.37488 0.05269 0.0
C2039 C 0.74583 0.35243 0.04593 0.0
C2040 C 0.74201 0.34008 0.02434 0.0
C2041 C 0.75233 0.33174 0.00858 0.0
C2042 C 0.74863 0.32025 0.98777 0.0
C2043 C 0.73464 0.31693 0.98277 0.0
C2044 C 0.72432 0.32507 -0.00133 0.0
C2045 C 0.72797 0.33659 0.01945 0.0
H2046 H 0.7318 0.30803 0.96664 0.0
H2047 H 0.76309 0.42245 0.16247 0.0
H2048 H 0.09395 0.48775 0.47071 0.0
H2049 H 0.09146 0.48148 0.40761 0.0
H2050 H 0.09031 0.52491 0.37901 0.0
H2051 H 0.09209 0.53121 0.4425 0.0
H2052 H 0.07289 0.51156 0.33919 0.0
H2053 H 0.12047 0.50437 0.37221 0.0
H2054 H 0.13998 0.49494 0.40745 0.0
H2055 H 0.12774 0.45344 0.3797 0.0
H2056 H 0.10803 0.46262 0.34468 0.0
H2057 H 0.09768 0.50625 0.1597 0.0
H2058 H 0.09471 0.51083 0.22374 0.0
H2059 H 0.08736 0.46727 0.24262 0.0
H2060 H 0.09022 0.46258 0.17844 0.0
H2061 H 0.10777 0.47944 0.28708 0.0
H2062 H 0.06081 0.48808 0.24916 0.0
H2063 H 0.04254 0.49883 0.21201 0.0
H2064 H 0.05553 0.53933 0.24628 0.0
H2065 H 0.07396 0.52886 0.28342 0.0
C2066 C 0.0931 0.49595 0.45095 0.0
C2067 C 0.09338 0.50996 0.46131 0.0
C2068 C 0.09173 0.49236 0.41491 0.0
C2069 C 0.09105 0.50272 0.38849 0.0
C2070 C 0.09088 0.51674 0.39893 0.0
C2071 C 0.09194 0.52033 0.43513 0.0
C2072 C 0.09092 0.49895 0.34995 0.0
C2073 C 0.0806 0.50465 0.32776 0.0
C2074 C 0.10084 0.48973 0.33509 0.0
C2075 C 0.11267 0.48418 0.3562 0.0
C2076 C 0.12187 0.49323 0.37388 0.0
C2077 C 0.13297 0.48793 0.39377 0.0
C2078 C 0.13507 0.4736 0.39592 0.0
C2079 C 0.12608 0.46454 0.37809 0.0
C2080 C 0.11495 0.46978 0.35821 0.0
C2081 C 0.09535 0.49766 0.17745 0.0
C2082 C 0.09418 0.48406 0.16416 0.0
C2083 C 0.09357 0.50031 0.21393 0.0
C2084 C 0.09069 0.4894 0.23767 0.0
C2085 C 0.08949 0.47581 0.22453 0.0
C2086 C 0.0911 0.47317 0.18795 0.0
C2087 C 0.08984 0.49212 0.27652 0.0
C2088 C 0.09999 0.48625 0.2987 0.0
C2089 C 0.07996 0.50138 0.29114 0.0
C2090 C 0.06885 0.50768 0.26886 0.0
C2091 C 0.05985 0.49929 0.24856 0.0
C2092 C 0.04945 0.50532 0.22755 0.0
C2093 C 0.04791 0.51974 0.22668 0.0
C2094 C 0.05674 0.52816 0.24694 0.0
C2095 C 0.06715 0.52218 0.26804 0.0
H2096 H 0.03985 0.52438 0.21038 0.0
H2097 H 0.14368 0.46952 0.41132 0.0
H2098 H 0.75871 0.86025 0.71895 0.0
H2099 H 0.76472 0.85857 0.65541 0.0
H2100 H 0.72711 0.8355 0.6355 0.0
H2101 H 0.72106 0.83699 0.69903 0.0
H2102 H 0.74936 0.82459 0.59959 0.0
H2103 H 0.72886 0.86925 0.6215 0.0
H2104 H 0.72662 0.89225 0.64985 0.0
H2105 H 0.76649 0.90401 0.60824 0.0
H2106 H 0.76907 0.88096 0.58019 0.0
H2107 H 0.74482 0.85987 0.41152 0.0
H2108 H 0.73938 0.85821 0.47531 0.0
H2109 H 0.7763 0.83372 0.4924 0.0
H2110 H 0.78177 0.83519 0.42844 0.0
H2111 H 0.75454 0.86818 0.5299 0.0
H2112 H 0.77229 0.81306 0.55734 0.0
H2113 H 0.77247 0.78972 0.52986 0.0
H2114 H 0.7347 0.79917 0.4738 0.0
H2115 H 0.73462 0.82272 0.49981 0.0
C2116 C 0.75175 0.85475 0.70111 0.0
C2117 C 0.73935 0.84884 0.71397 0.0
C2118 C 0.75521 0.8538 0.66484 0.0
C2119 C 0.74629 0.84702 0.64081 0.0
C2120 C 0.73413 0.84077 0.6537 0.0
C2121 C 0.73066 0.84169 0.68996 0.0
C2122 C 0.7493 0.84695 0.60193 0.0
C2123 C 0.75055 0.83413 0.58439 0.0
C2124 C 0.75074 0.85941 0.58211 0.0
C2125 C 0.74918 0.87331 0.59892 0.0
C2126 C 0.73717 0.8767 0.61853 0.0
C2127 C 0.73584 0.88975 0.63456 0.0
C2128 C 0.74641 0.89958 0.63085 0.0
C2129 C 0.75832 0.89638 0.6111 0.0
C2130 C 0.75971 0.88331 0.59515 0.0
C2131 C 0.75173 0.85401 0.42873 0.0
C2132 C 0.76377 0.84772 0.41492 0.0
C2133 C 0.74861 0.85309 0.4652 0.0
C2134 C 0.7574 0.8458 0.48854 0.0
C2135 C 0.76927 0.83924 0.47476 0.0
C2136 C 0.77242 0.84017 0.43824 0.0
C2137 C 0.75457 0.84583 0.52757 0.0
C2138 C 0.75343 0.85866 0.54519 0.0
C2139 C 0.75312 0.83343 0.54745 0.0
C2140 C 0.75353 0.81963 0.53021 0.0
C2141 C 0.76412 0.81017 0.53881 0.0
C2142 C 0.76425 0.79695 0.52334 0.0
C2143 C 0.75368 0.79302 0.49972 0.0
C2144 C 0.74301 0.80232 0.49148 0.0
C2145 C 0.74298 0.81563 0.50635 0.0
H2146 H 0.75372 0.78274 0.48799 0.0
H2147 H 0.74536 0.90969 0.64324 0.0
H2148 H 0.40305 0.53577 0.68557 0.0
H2149 H 0.40498 0.52952 0.74899 0.0
H2150 H 0.40346 0.48605 0.72077 0.0
H2151 H 0.40078 0.49229 0.65769 0.0
H2152 H 0.38836 0.48977 0.77593 0.0
H2153 H 0.4346 0.50336 0.74491 0.0
H2154 H 0.45282 0.51865 0.7204 0.0
H2155 H 0.44234 0.55004 0.79757 0.0
H2156 H 0.42394 0.535 0.82227 0.0
H2157 H 0.41167 0.46666 0.94812 0.0
H2158 H 0.41201 0.47163 0.88361 0.0
H2159 H 0.40405 0.51489 0.90537 0.0
H2160 H 0.4036 0.51004 0.96964 0.0
H2161 H 0.42498 0.51008 0.85343 0.0
H2162 H 0.37821 0.49535 0.88308 0.0
H2163 H 0.36073 0.47909 0.90697 0.0
H2164 H 0.37352 0.44821 0.83078 0.0
H2165 H 0.39128 0.46421 0.80688 0.0
C2166 C 0.40316 0.52489 0.69302 0.0
C2167 C 0.40181 0.5145 0.66689 0.0
C2168 C 0.40433 0.52132 0.72918 0.0
C2169 C 0.40463 0.50729 0.7396 0.0
C2170 C 0.40326 0.49693 0.7134 0.0
C2171 C 0.40175 0.5005 0.67739 0.0
C2172 C 0.40614 0.50338 0.77783 0.0
C2173 C 0.39652 0.49404 0.79268 0.0
C2174 C 0.41669 0.50906 0.79984 0.0
C2175 C 0.42782 0.51809 0.78525 0.0
C2176 C 0.43613 0.51355 0.75651 0.0
C2177 C 0.44649 0.52217 0.74261 0.0
C2178 C 0.44872 0.53532 0.75737 0.0
C2179 C 0.4406 0.53986 0.78615 0.0
C2180 C 0.43021 0.53129 0.80014 0.0
C2181 C 0.41012 0.47724 0.93913 0.0
C2182 C 0.40752 0.48796 0.96382 0.0
C2183 C 0.41028 0.48004 0.90237 0.0
C2184 C 0.40795 0.49359 0.88995 0.0
C2185 C 0.40585 0.50437 0.91458 0.0
C2186 C 0.40554 0.50157 0.95122 0.0
C2187 C 0.4072 0.49656 0.85123 0.0
C2188 C 0.41694 0.50573 0.83642 0.0
C2189 C 0.39691 0.49054 0.82913 0.0
C2190 C 0.38621 0.48093 0.8435 0.0
C2191 C 0.37741 0.48505 0.87167 0.0
C2192 C 0.36743 0.47588 0.88518 0.0
C2193 C 0.36605 0.4626 0.87049 0.0
C2194 C 0.37463 0.45848 0.8422 0.0
C2195 C 0.38466 0.46759 0.82868 0.0
H2196 H 0.35832 0.45553 0.88096 0.0
H2197 H 0.45675 0.54197 0.74656 0.0
H2198 H 0.78605 0.16726 0.19649 0.0
H2199 H 0.78083 0.16882 0.13228 0.0
H2200 H 0.74122 0.14912 0.15048 0.0
H2201 H 0.74635 0.14739 0.21427 0.0
H2202 H 0.7548 0.1374 0.09573 0.0
H2203 H 0.74296 0.18335 0.13514 0.0
H2204 H 0.74709 0.20598 0.16416 0.0
H2205 H 0.78002 0.21453 0.08971 0.0
H2206 H 0.77622 0.19185 0.06057 0.0
H2207 H 0.72385 0.16991 0.92625 0.0
H2208 H 0.73012 0.1721 0.98964 0.0
H2209 H 0.76606 0.14625 0.97211 0.0
H2210 H 0.75988 0.14392 0.90895 0.0
H2211 H 0.75388 0.1814 0.0264 0.0
H2212 H 0.7673 0.1233 0.04143 0.0
H2213 H 0.76136 0.10088 0.01327 0.0
H2214 H 0.72171 0.11714 0.98142 0.0
H2215 H 0.72734 0.13957 0.00983 0.0
C2216 C 0.7762 0.16333 0.18681 0.0
C2217 C 0.76662 0.15719 0.21042 0.0
C2218 C 0.77323 0.16427 0.15019 0.0
C2219 C 0.76061 0.15915 0.13679 0.0
C2220 C 0.75102 0.15311 0.16035 0.0
C2221 C 0.75398 0.15215 0.19681 0.0
C2222 C 0.75748 0.1596 0.09804 0.0
C2223 C 0.75464 0.14702 0.08059 0.0
C2224 C 0.75711 0.17218 0.07848 0.0
C2225 C 0.7594 0.18583 0.09593 0.0
C2226 C 0.75116 0.19 0.12516 0.0
C2227 C 0.75343 0.20285 0.14159 0.0
C2228 C 0.76384 0.21167 0.12886 0.0
C2229 C 0.77198 0.20768 0.09959 0.0
C2230 C 0.76977 0.19483 0.08309 0.0
C2231 C 0.73313 0.16476 0.93585 0.0
C2232 C 0.74126 0.15658 0.91273 0.0
C2233 C 0.73674 0.16612 0.97196 0.0
C2234 C 0.74846 0.15923 0.98543 0.0
C2235 C 0.7569 0.15153 0.96215 0.0
C2236 C 0.75333 0.1502 0.92611 0.0
C2237 C 0.75132 0.1592 0.02429 0.0
C2238 C 0.75413 0.17181 0.04165 0.0
C2239 C 0.75141 0.14668 0.04404 0.0
C2240 C 0.74781 0.13315 0.02743 0.0
C2241 C 0.7573 0.12206 0.02854 0.0
C2242 C 0.75398 0.10936 0.01252 0.0
C2243 C 0.74118 0.10761 0.99547 0.0
C2244 C 0.73164 0.11853 0.99452 0.0
C2245 C 0.73489 0.13124 0.01054 0.0
H2246 H 0.73864 0.09777 0.98305 0.0
H2247 H 0.76557 0.22162 0.14161 0.0
H2248 H 0.8869 0.50155 0.6656 0.0
H2249 H 0.89098 0.50666 0.72876 0.0
H2250 H 0.92485 0.4773 0.73036 0.0
H2251 H 0.92048 0.47177 0.6673 0.0
H2252 H 0.91032 0.47411 0.78744 0.0
H2253 H 0.93074 0.5127 0.73104 0.0
H2254 H 0.93294 0.53249 0.68939 0.0
H2255 H 0.89901 0.55307 0.74192 0.0
H2256 H 0.8965 0.53332 0.78353 0.0
H2257 H 0.92287 0.52479 0.95122 0.0
H2258 H 0.92669 0.51865 0.88826 0.0
H2259 H 0.89116 0.49136 0.89176 0.0
H2260 H 0.88765 0.49702 0.95481 0.0
H2261 H 0.91228 0.52262 0.83191 0.0
H2262 H 0.89422 0.46454 0.83614 0.0
H2263 H 0.89554 0.44457 0.87739 0.0
H2264 H 0.93109 0.46256 0.92905 0.0
H2265 H 0.93014 0.48253 0.88777 0.0
C2266 C 0.89524 0.49621 0.67936 0.0
C2267 C 0.90339 0.48628 0.66153 0.0
C2268 C 0.89763 0.4992 0.71541 0.0
C2269 C 0.90839 0.49255 0.73413 0.0
C2270 C 0.91651 0.48258 0.71641 0.0
C2271 C 0.91401 0.47944 0.68042 0.0
C2272 C 0.91075 0.49571 0.77254 0.0
C2273 C 0.91085 0.4847 0.79718 0.0
C2274 C 0.91194 0.50952 0.78516 0.0
C2275 C 0.91339 0.52148 0.76027 0.0
C2276 C 0.9237 0.52141 0.73354 0.0
C2277 C 0.92501 0.53263 0.70997 0.0
C2278 C 0.91611 0.54402 0.71298 0.0
C2279 C 0.9059 0.54424 0.73962 0.0
C2280 C 0.90454 0.53304 0.76324 0.0
C2281 C 0.91593 0.51743 0.93853 0.0
C2282 C 0.90498 0.51135 0.95789 0.0
C2283 C 0.91812 0.51393 0.90261 0.0
C2284 C 0.90935 0.50437 0.88541 0.0
C2285 C 0.89831 0.49845 0.90467 0.0
C2286 C 0.89624 0.50178 0.94066 0.0
C2287 C 0.91124 0.50103 0.8469 0.0
C2288 C 0.91195 0.51201 0.82221 0.0
C2289 C 0.91131 0.48717 0.83423 0.0
C2290 C 0.91203 0.4751 0.859 0.0
C2291 C 0.90237 0.46421 0.85618 0.0
C2292 C 0.90304 0.45289 0.87959 0.0
C2293 C 0.91336 0.45231 0.90589 0.0
C2294 C 0.92306 0.46304 0.90875 0.0
C2295 C 0.92245 0.47437 0.88537 0.0
H2296 H 0.91386 0.44355 0.92401 0.0
H2297 H 0.91713 0.55269 0.69471 0.0
H2298 H 0.21848 0.16616 0.69776 0.0
H2299 H 0.2234 0.16829 0.63361 0.0
H2300 H 0.26513 0.15354 0.65144 0.0
H2301 H 0.26035 0.15139 0.71555 0.0
H2302 H 0.26359 0.17612 0.60408 0.0
H2303 H 0.24134 0.13157 0.62417 0.0
H2304 H 0.22242 0.11644 0.64567 0.0
H2305 H 0.19367 0.13708 0.57563 0.0
H2306 H 0.21238 0.1525 0.55416 0.0
H2307 H 0.28467 0.15428 0.43171 0.0
H2308 H 0.27903 0.15675 0.49533 0.0
H2309 H 0.23581 0.16266 0.46822 0.0
H2310 H 0.24135 0.15928 0.40483 0.0
H2311 H 0.23698 0.14616 0.52049 0.0
H2312 H 0.25835 0.19031 0.49831 0.0
H2313 H 0.27656 0.20638 0.47723 0.0
H2314 H 0.30582 0.1879 0.54982 0.0
H2315 H 0.28781 0.17169 0.57127 0.0
C2316 C 0.22874 0.16348 0.68808 0.0
C2317 C 0.23899 0.15848 0.71161 0.0
C2318 C 0.23151 0.16469 0.65148 0.0
C2319 C 0.24457 0.16094 0.63794 0.0
C2320 C 0.25498 0.15646 0.66151 0.0
C2321 C 0.2522 0.15517 0.69805 0.0
C2322 C 0.24724 0.16102 0.59901 0.0
C2323 C 0.25785 0.16954 0.5857 0.0
C2324 C 0.23945 0.15268 0.57519 0.0
C2325 C 0.22823 0.1433 0.58786 0.0
C2326 C 0.23096 0.13296 0.61357 0.0
C2327 C 0.22027 0.12433 0.62573 0.0
C2328 C 0.20684 0.12583 0.61211 0.0
C2329 C 0.20407 0.13595 0.58622 0.0
C2330 C 0.21471 0.14464 0.57404 0.0
C2331 C 0.274 0.1562 0.43946 0.0
C2332 C 0.26342 0.15658 0.41363 0.0
C2333 C 0.27078 0.15771 0.47575 0.0
C2334 C 0.25701 0.16014 0.4866 0.0
C2335 C 0.24649 0.16078 0.46055 0.0
C2336 C 0.24966 0.15887 0.42441 0.0
C2337 C 0.25342 0.16128 0.52516 0.0
C2338 C 0.24264 0.15293 0.53856 0.0
C2339 C 0.26093 0.16993 0.54896 0.0
C2340 C 0.27175 0.17973 0.53624 0.0
C2341 C 0.26868 0.18963 0.50966 0.0
C2342 C 0.27896 0.19877 0.49766 0.0
C2343 C 0.29234 0.19813 0.51208 0.0
C2344 C 0.29545 0.18838 0.53866 0.0
C2345 C 0.28521 0.17924 0.55083 0.0
H2346 H 0.30028 0.2052 0.50272 0.0
H2347 H 0.19858 0.11913 0.62155 0.0
H2348 H 0.61882 0.49973 0.17382 0.0
H2349 H 0.61472 0.49305 0.23607 0.0
H2350 H 0.57485 0.5136 0.23332 0.0
H2351 H 0.57933 0.52097 0.17158 0.0
H2352 H 0.58604 0.51955 0.29167 0.0
H2353 H 0.57889 0.47684 0.23233 0.0
H2354 H 0.58359 0.45725 0.19156 0.0
H2355 H 0.62001 0.44674 0.25219 0.0
H2356 H 0.61567 0.4664 0.29302 0.0
H2357 H 0.58183 0.46809 0.45518 0.0
H2358 H 0.57906 0.47246 0.39092 0.0
H2359 H 0.60669 0.5076 0.39894 0.0
H2360 H 0.6092 0.50356 0.46308 0.0
H2361 H 0.59626 0.47225 0.33727 0.0
H2362 H 0.59761 0.53291 0.34365 0.0
H2363 H 0.58967 0.55154 0.38414 0.0
H2364 H 0.55866 0.52439 0.428 0.0
H2365 H 0.56626 0.50566 0.38742 0.0
C2366 C 0.60918 0.50279 0.18655 0.0
C2367 C 0.5994 0.51088 0.16807 0.0
C2368 C 0.60677 0.49886 0.222 0.0
C2369 C 0.59434 0.50257 0.23924 0.0
C2370 C 0.58452 0.5106 0.22063 0.0
C2371 C 0.58708 0.51482 0.18542 0.0
C2372 C 0.59198 0.49869 0.27726 0.0
C2373 C 0.58817 0.50917 0.30151 0.0
C2374 C 0.59431 0.48504 0.29013 0.0
C2375 C 0.597 0.47318 0.2656 0.0
C2376 C 0.58796 0.47042 0.23682 0.0
C2377 C 0.59056 0.45929 0.21371 0.0
C2378 C 0.60211 0.45077 0.21923 0.0
C2379 C 0.61108 0.45335 0.24792 0.0
C2380 C 0.60854 0.46449 0.27108 0.0
C2381 C 0.58725 0.47679 0.44325 0.0
C2382 C 0.59562 0.48557 0.46424 0.0
C2383 C 0.58568 0.47925 0.40655 0.0
C2384 C 0.59246 0.49051 0.39031 0.0
C2385 C 0.60107 0.49907 0.4111 0.0
C2386 C 0.60255 0.4967 0.44775 0.0
C2387 C 0.59087 0.49323 0.35148 0.0
C2388 C 0.59393 0.48255 0.32718 0.0
C2389 C 0.58733 0.50656 0.3384 0.0
C2390 C 0.58259 0.51785 0.36263 0.0
C2391 C 0.58905 0.53094 0.36178 0.0
C2392 C 0.58461 0.54151 0.38479 0.0
C2393 C 0.57369 0.53914 0.40869 0.0
C2394 C 0.56715 0.5262 0.40956 0.0
C2395 C 0.57153 0.5156 0.38659 0.0
H2396 H 0.57028 0.54733 0.42649 0.0
H2397 H 0.60409 0.44216 0.20131 0.0
H2398 H 0.25941 0.85741 0.91068 0.0
H2399 H 0.265 0.85475 0.9742 0.0
H2400 H 0.22471 0.83665 0.99318 0.0
H2401 H 0.21897 0.83928 0.92958 0.0
H2402 H 0.23251 0.8577 0.0423 0.0
H2403 H 0.2522 0.81714 0.9853 0.0
H2404 H 0.26725 0.80596 0.94035 0.0
H2405 H 0.3032 0.82437 0.98882 0.0
H2406 H 0.28834 0.83641 0.03274 0.0
H2407 H 0.24403 0.8383 0.22031 0.0
H2408 H 0.23832 0.83702 0.15655 0.0
H2409 H 0.28119 0.84522 0.12985 0.0
H2410 H 0.28705 0.84556 0.19377 0.0
H2411 H 0.27175 0.82839 0.08371 0.0
H2412 H 0.255 0.87127 0.13104 0.0
H2413 H 0.24209 0.88673 0.17191 0.0
H2414 H 0.20372 0.86767 0.14011 0.0
H2415 H 0.21643 0.85196 0.09939 0.0
C2416 C 0.25172 0.85287 0.92833 0.0
C2417 C 0.23875 0.84851 0.91512 0.0
C2418 C 0.25496 0.85132 0.96454 0.0
C2419 C 0.24531 0.84539 0.98811 0.0
C2420 C 0.23229 0.84121 0.97522 0.0
C2421 C 0.22905 0.84269 0.93893 0.0
C2422 C 0.24876 0.84367 0.02639 0.0
C2423 C 0.24094 0.85112 0.05151 0.0
C2424 C 0.26014 0.83551 0.03792 0.0
C2425 C 0.2691 0.82781 0.01222 0.0
C2426 C 0.2633 0.81894 0.98624 0.0
C2427 C 0.2718 0.81243 0.96092 0.0
C2428 C 0.28617 0.81435 0.96192 0.0
C2429 C 0.29207 0.82287 0.98811 0.0
C2430 C 0.2836 0.82961 0.0131 0.0
C2431 C 0.25223 0.83967 0.20073 0.0
C2432 C 0.26593 0.84216 0.21169 0.0
C2433 C 0.24896 0.83902 0.16436 0.0
C2434 C 0.25925 0.84143 0.13836 0.0
C2435 C 0.27307 0.84339 0.14938 0.0
C2436 C 0.27641 0.84362 0.18583 0.0
C2437 C 0.2555 0.84246 0.09988 0.0
C2438 C 0.26325 0.8349 0.07465 0.0
C2439 C 0.24437 0.85093 0.08799 0.0
C2440 C 0.23668 0.86034 0.11247 0.0
C2441 C 0.24382 0.87031 0.13297 0.0
C2442 C 0.23654 0.87912 0.15608 0.0
C2443 C 0.2221 0.87815 0.15868 0.0
C2444 C 0.2149 0.86839 0.13812 0.0
C2445 C 0.22214 0.85953 0.11501 0.0
H2446 H 0.21648 0.88499 0.17657 0.0
H2447 H 0.29272 0.80925 0.94234 0.0
H2448 H 0.59345 0.00868 0.65697 0.0
H2449 H 0.59278 0.0141 0.7209 0.0
H2450 H 0.59557 0.97041 0.74594 0.0
H2451 H 0.5955 0.96491 0.68176 0.0
H2452 H 0.57909 0.98198 0.79117 0.0
H2453 H 0.62443 0.99239 0.74835 0.0
H2454 H 0.64221 0.00283 0.70916 0.0
H2455 H 0.62865 0.04363 0.73965 0.0
H2456 H 0.61064 0.03343 0.77865 0.0
H2457 H 0.60654 0.99176 0.96753 0.0
H2458 H 0.60431 0.986 0.90399 0.0
H2459 H 0.59102 0.02787 0.88144 0.0
H2460 H 0.59313 0.03375 0.94513 0.0
H2461 H 0.61267 0.017 0.83594 0.0
H2462 H 0.56837 0.00378 0.88623 0.0
H2463 H 0.55395 0.99099 0.92958 0.0
H2464 H 0.56846 0.95226 0.88682 0.0
H2465 H 0.58364 0.96479 0.84454 0.0
C2466 C 0.59382 1.00025 0.67618 0.0
C2467 C 0.59464 0.98641 0.66467 0.0
C2468 C 0.5935 0.00334 0.71264 0.0
C2469 C 0.59449 0.99267 0.73818 0.0
C2470 C 0.59486 0.97879 0.72667 0.0
C2471 C 0.59483 0.97567 0.6901 0.0
C2472 C 0.59556 0.99608 0.77677 0.0
C2473 C 0.58653 0.98952 0.80101 0.0
C2474 C 0.60527 0.00595 0.78958 0.0
C2475 C 0.61609 0.01214 0.76614 0.0
C2476 C 0.62516 0.00359 0.74649 0.0
C2477 C 0.6353 0.00946 0.72434 0.0
C2478 C 0.63654 0.02388 0.72185 0.0
C2479 C 0.62766 0.03246 0.74157 0.0
C2480 C 0.6175 0.02664 0.76372 0.0
C2481 C 0.60314 0.99975 0.94908 0.0
C2482 C 0.59999 0.01321 0.96125 0.0
C2483 C 0.60183 0.99642 0.91288 0.0
C2484 C 0.59742 0.0065 0.88832 0.0
C2485 C 0.59441 0.01997 0.90022 0.0
C2486 C 0.59557 0.02329 0.93652 0.0
C2487 C 0.59615 0.00301 0.85004 0.0
C2488 C 0.60519 0.00952 0.82594 0.0
C2489 C 0.58678 0.99277 0.83766 0.0
C2490 C 0.57728 0.98526 0.86238 0.0
C2491 C 0.56862 0.99254 0.88626 0.0
C2492 C 0.56028 0.98533 0.91064 0.0
C2493 C 0.5602 0.97083 0.9108 0.0
C2494 C 0.56852 0.9635 0.88667 0.0
C2495 C 0.57706 0.97065 0.86259 0.0
H2496 H 0.55369 0.96529 0.92965 0.0
H2497 H 0.64439 0.02841 0.7047 0.0
H2498 H 0.25962 0.35548 0.22051 0.0
H2499 H 0.2652 0.3545 0.15674 0.0
H2500 H 0.22262 0.34405 0.1327 0.0
H2501 H 0.21705 0.34462 0.19672 0.0
H2502 H 0.23945 0.32833 0.09508 0.0
H2503 H 0.23581 0.3771 0.11685 0.0
H2504 H 0.24044 0.39928 0.14758 0.0
H2505 H 0.28375 0.39582 0.12157 0.0
H2506 H 0.27936 0.37351 0.0911 0.0
H2507 H 0.2433 0.34955 0.90859 0.0
H2508 H 0.23751 0.34797 0.97252 0.0
H2509 H 0.28102 0.34476 -0.0015 0.0
H2510 H 0.28689 0.34593 0.93454 0.0
H2511 H 0.26359 0.36727 0.03419 0.0
H2512 H 0.26678 0.31792 0.01377 0.0
H2513 H 0.26168 0.2954 0.98523 0.0
H2514 H 0.21828 0.3007 0.00772 0.0
H2515 H 0.22313 0.32329 0.03635 0.0
C2516 C 0.25143 0.353 0.20165 0.0
C2517 C 0.2379 0.35014 0.21359 0.0
C2518 C 0.25462 0.35251 0.16518 0.0
C2519 C 0.24428 0.34942 0.13989 0.0
C2520 C 0.23076 0.34647 0.15176 0.0
C2521 C 0.22759 0.3468 0.18832 0.0
C2522 C 0.24767 0.34902 0.10113 0.0
C2523 C 0.24453 0.33694 0.08166 0.0
C2524 C 0.25456 0.36014 0.08377 0.0
C2525 C 0.25726 0.37356 0.10203 0.0
C2526 C 0.24633 0.38101 0.11797 0.0
C2527 C 0.24891 0.39362 0.13528 0.0
C2528 C 0.26239 0.39894 0.13662 0.0
C2529 C 0.27331 0.39168 0.12056 0.0
C2530 C 0.27078 0.37906 0.10323 0.0
C2531 C 0.25162 0.34839 0.92793 0.0
C2532 C 0.26554 0.34792 0.91672 0.0
C2533 C 0.24829 0.34742 0.96431 0.0
C2534 C 0.25886 0.34622 0.98997 0.0
C2535 C 0.27275 0.34562 0.97891 0.0
C2536 C 0.27607 0.34628 0.94247 0.0
C2537 C 0.2554 0.3466 0.02849 0.0
C2538 C 0.25849 0.3587 0.04775 0.0
C2539 C 0.24834 0.33559 0.04553 0.0
C2540 C 0.2453 0.32236 0.02682 0.0
C2541 C 0.25613 0.31437 0.01221 0.0
C2542 C 0.25329 0.30155 0.99625 0.0
C2543 C 0.23967 0.29662 0.99473 0.0
C2544 C 0.22883 0.30453 0.00899 0.0
C2545 C 0.23162 0.31733 0.02514 0.0
H2546 H 0.2375 0.28667 0.98246 0.0
H2547 H 0.26438 0.40871 0.15003 0.0
H2548 H 0.92435 0.97888 0.45355 0.0
H2549 H 0.92702 0.98553 0.39058 0.0
H2550 H 0.88866 0.00866 0.39617 0.0
H2551 H 0.88633 0.00259 0.45942 0.0
H2552 H 0.91328 0.98038 0.33432 0.0
H2553 H 0.88823 0.03565 0.34053 0.0
H2554 H 0.88673 0.05532 0.3827 0.0
H2555 H 0.92411 0.04175 0.43478 0.0
H2556 H 0.92596 0.02212 0.39263 0.0
H2557 H 0.88927 1.00058 0.16475 0.0
H2558 H 0.89197 0.99528 0.22838 0.0
H2559 H 0.92306 0.02734 0.23773 0.0
H2560 H 0.92017 0.03295 0.17425 0.0
H2561 H 0.90626 0.02873 0.29207 0.0
H2562 H 0.93238 0.99315 0.23712 0.0
H2563 H 0.93758 0.97417 0.19483 0.0
H2564 H 0.90481 0.94966 0.2405 0.0
H2565 H 0.89928 0.96857 0.28277 0.0
C2566 C 0.91654 0.98544 0.44131 0.0
C2567 C 0.90518 0.99029 0.46135 0.0
C2568 C 0.91806 0.98922 0.40535 0.0
C2569 C 0.90816 0.99778 0.38872 0.0
C2570 C 0.89665 0.00238 0.40861 0.0
C2571 C 0.89527 0.99883 0.44471 0.0
C2572 C 0.90958 0.00158 0.35033 0.0
C2573 C 0.91181 0.99097 0.32514 0.0
C2574 C 0.90812 0.01546 0.3383 0.0
C2575 C 0.90715 0.02733 0.36359 0.0
C2576 C 0.89616 0.03689 0.36088 0.0
C2577 C 0.89525 0.04803 0.3848 0.0
C2578 C 0.90529 0.04976 0.41147 0.0
C2579 C 0.91631 0.04037 0.4142 0.0
C2580 C 0.91728 0.02923 0.39032 0.0
C2581 C 0.8967 0.00648 0.18031 0.0
C2582 C 0.90453 0.01715 0.16447 0.0
C2583 C 0.89829 0.0034 0.21664 0.0
C2584 C 0.90786 0.01078 0.23766 0.0
C2585 C 0.91563 0.0215 0.22197 0.0
C2586 C 0.91397 0.02467 0.18569 0.0
C2587 C 0.90951 0.00748 0.27621 0.0
C2588 C 0.90785 0.01818 0.30136 0.0
C2589 C 0.91207 0.99378 0.28825 0.0
C2590 C 0.91535 0.98233 0.26295 0.0
C2591 C 0.92622 0.98375 0.23799 0.0
C2592 C 0.92924 0.973 0.21404 0.0
C2593 C 0.92151 0.96073 0.21494 0.0
C2594 C 0.91078 0.95917 0.23983 0.0
C2595 C 0.90771 0.9699 0.26382 0.0
H2596 H 0.92387 0.95241 0.19638 0.0
H2597 H 0.90456 0.05839 0.42998 0.0
H2598 H 0.28283 0.66887 0.70875 0.0
H2599 H 0.27846 0.67178 0.64459 0.0
H2600 H 0.2434 0.64403 0.65208 0.0
H2601 H 0.24748 0.64132 0.71624 0.0
H2602 H 0.27891 0.65425 0.59121 0.0
H2603 H 0.21821 0.65355 0.59559 0.0
H2604 H 0.19948 0.66152 0.63574 0.0
H2605 H 0.22674 0.69207 0.6812 0.0
H2606 H 0.24556 0.68446 0.64091 0.0
H2607 H 0.25207 0.63287 0.42576 0.0
H2608 H 0.25846 0.63652 0.4884 0.0
H2609 H 0.23845 0.67665 0.48651 0.0
H2610 H 0.23136 0.67264 0.42436 0.0
H2611 H 0.23196 0.66517 0.54421 0.0
H2612 H 0.27518 0.67212 0.48687 0.0
H2613 H 0.29497 0.66737 0.44674 0.0
H2614 H 0.30452 0.63043 0.50632 0.0
H2615 H 0.28466 0.63483 0.5465 0.0
C2616 C 0.27414 0.66344 0.69676 0.0
C2617 C 0.26544 0.65493 0.71759 0.0
C2618 C 0.27169 0.6651 0.6601 0.0
C2619 C 0.2605 0.65828 0.64371 0.0
C2620 C 0.25192 0.64963 0.66437 0.0
C2621 C 0.2543 0.64804 0.70101 0.0
C2622 C 0.25792 0.65986 0.60482 0.0
C2623 C 0.26868 0.65672 0.58082 0.0
C2624 C 0.24469 0.66356 0.59139 0.0
C2625 C 0.23334 0.66835 0.61537 0.0
C2626 C 0.22019 0.66202 0.61399 0.0
C2627 C 0.20956 0.66647 0.6368 0.0
C2628 C 0.21193 0.67728 0.66105 0.0
C2629 C 0.22493 0.68369 0.66246 0.0
C2630 C 0.23559 0.6793 0.63966 0.0
C2631 C 0.24909 0.64248 0.43873 0.0
C2632 C 0.24121 0.65246 0.42038 0.0
C2633 C 0.25284 0.64462 0.47444 0.0
C2634 C 0.24918 0.65698 0.49208 0.0
C2635 C 0.24141 0.66703 0.47354 0.0
C2636 C 0.23736 0.66474 0.43807 0.0
C2637 C 0.25284 0.65906 0.53038 0.0
C2638 C 0.24226 0.66288 0.55437 0.0
C2639 C 0.26638 0.65649 0.54368 0.0
C2640 C 0.27835 0.65376 0.51954 0.0
C2641 C 0.28143 0.66293 0.49125 0.0
C2642 C 0.29267 0.6603 0.46852 0.0
C2643 C 0.30097 0.64859 0.47393 0.0
C2644 C 0.29807 0.63949 0.50214 0.0
C2645 C 0.28683 0.64206 0.52493 0.0
H2646 H 0.30967 0.64658 0.4563 0.0
H2647 H 0.20369 0.68069 0.67872 0.0
H2648 H 0.39816 0.01021 0.16252 0.0
H2649 H 0.39896 0.01599 0.22625 0.0
H2650 H 0.41076 0.97388 0.2511 0.0
H2651 H 0.41009 0.96797 0.18716 0.0
H2652 H 0.38788 0.98499 0.29181 0.0
H2653 H 0.43408 0.9975 0.25326 0.0
H2654 H 0.45058 0.00988 0.21431 0.0
H2655 H 0.43468 0.04901 0.25091 0.0
H2656 H 0.41762 0.03688 0.289 0.0
H2657 H 0.40217 0.99298 0.47438 0.0
H2658 H 0.40386 0.98769 0.41055 0.0
H2659 H 0.40231 0.03147 0.38584 0.0
H2660 H 0.40134 0.03683 0.45006 0.0
H2661 H 0.42006 0.01977 0.34409 0.0
H2662 H 0.37339 0.00971 0.37659 0.0
H2663 H 0.35425 0.99942 0.41155 0.0
H2664 H 0.3684 0.95852 0.38388 0.0
H2665 H 0.38775 0.96858 0.34915 0.0
C2666 C 0.40099 0.00218 0.1815 0.0
C2667 C 0.40405 0.98863 0.16993 0.0
C2668 C 0.40148 0.00552 0.21782 0.0
C2669 C 0.40498 0.99536 0.24312 0.0
C2670 C 0.40807 0.98183 0.23176 0.0
C2671 C 0.40773 0.9785 0.19534 0.0
C2672 C 0.40498 0.9988 0.28159 0.0
C2673 C 0.39505 0.99241 0.30349 0.0
C2674 C 0.41395 0.00897 0.29609 0.0
C2675 C 0.42445 0.01626 0.27378 0.0
C2676 C 0.43399 0.00874 0.25279 0.0
C2677 C 0.44347 0.01572 0.23088 0.0
C2678 C 0.44374 0.03021 0.23023 0.0
C2679 C 0.43448 0.03777 0.25144 0.0
C2680 C 0.42486 0.03085 0.27313 0.0
C2681 C 0.40224 0.00147 0.45529 0.0
C2682 C 0.40154 0.0153 0.46693 0.0
C2683 C 0.40313 0.99844 0.41886 0.0
C2684 C 0.40289 0.00917 0.39339 0.0
C2685 C 0.40248 0.02303 0.40504 0.0
C2686 C 0.4019 0.02608 0.44163 0.0
C2687 C 0.403 0.00585 0.35464 0.0
C2688 C 0.4129 0.01229 0.33259 0.0
C2689 C 0.39372 0.99602 0.33968 0.0
C2690 C 0.3821 0.98991 0.36057 0.0
C2691 C 0.37249 0.99852 0.37821 0.0
C2692 C 0.36159 0.99273 0.39794 0.0
C2693 C 0.36013 0.97832 0.40002 0.0
C2694 C 0.36956 0.96968 0.38229 0.0
C2695 C 0.38048 0.97542 0.36256 0.0
H2696 H 0.35169 0.97385 0.4153 0.0
H2697 H 0.45112 0.03558 0.21327 0.0
H2698 H 0.72112 0.67151 0.20342 0.0
H2699 H 0.72545 0.6741 0.13903 0.0
H2700 H 0.76301 0.65003 0.14925 0.0
H2701 H 0.75879 0.64733 0.21339 0.0
H2702 H 0.7478 0.68452 0.09785 0.0
H2703 H 0.76296 0.62682 0.08062 0.0
H2704 H 0.75833 0.60426 0.10959 0.0
H2705 H 0.71901 0.61935 0.14743 0.0
H2706 H 0.72331 0.64191 0.11822 0.0
H2707 H 0.78067 0.67028 0.9292 0.0
H2708 H 0.7742 0.67318 0.99227 0.0
H2709 H 0.73598 0.65103 0.97304 0.0
H2710 H 0.74239 0.64794 0.91035 0.0
H2711 H 0.74937 0.64055 0.02856 0.0
H2712 H 0.73568 0.68561 0.9888 0.0
H2713 H 0.73786 0.70869 0.9607 0.0
H2714 H 0.77032 0.71938 0.0346 0.0
H2715 H 0.76848 0.69629 0.06287 0.0
C2716 C 0.73036 0.66686 0.192 0.0
C2717 C 0.73952 0.65905 0.21337 0.0
C2718 C 0.73285 0.66843 0.15532 0.0
C2719 C 0.74446 0.66213 0.13953 0.0
C2720 C 0.75392 0.65485 0.16103 0.0
C2721 C 0.75148 0.6533 0.19764 0.0
C2722 C 0.74622 0.66225 0.10024 0.0
C2723 C 0.74817 0.67494 0.08255 0.0
C2724 C 0.74635 0.64974 0.08045 0.0
C2725 C 0.74354 0.6361 0.09752 0.0
C2726 C 0.7533 0.6253 0.09498 0.0
C2727 C 0.75074 0.61251 0.11146 0.0
C2728 C 0.7384 0.61039 0.13043 0.0
C2729 C 0.72858 0.62102 0.13283 0.0
C2730 C 0.73109 0.63382 0.11636 0.0
C2731 C 0.77085 0.66611 0.93837 0.0
C2732 C 0.76211 0.65875 0.91489 0.0
C2733 C 0.76712 0.66787 0.97432 0.0
C2734 C 0.75459 0.66236 0.98722 0.0
C2735 C 0.74571 0.65534 0.96359 0.0
C2736 C 0.74941 0.65357 0.92777 0.0
C2737 C 0.75122 0.66284 0.02588 0.0
C2738 C 0.749 0.65018 0.04361 0.0
C2739 C 0.75059 0.67542 0.04542 0.0
C2740 C 0.75201 0.68916 0.02778 0.0
C2741 C 0.74339 0.69282 -0.00118 0.0
C2742 C 0.74452 0.70593 0.98296 0.0
C2743 C 0.75419 0.7155 0.99595 0.0
C2744 C 0.76281 0.71196 0.02465 0.0
C2745 C 0.76172 0.69887 0.04061 0.0
H2746 H 0.755 0.72567 0.98376 0.0
H2747 H 0.73644 0.60049 0.14321 0.0
H2748 H 0.10767 0.00945 0.96713 0.0
H2749 H 0.10563 0.0154 0.90373 0.0
H2750 H 0.0841 0.97689 0.88389 0.0
H2751 H 0.08619 0.97075 0.94736 0.0
H2752 H 0.10587 0.98191 0.83693 0.0
H2753 H 0.06716 0.00728 0.88752 0.0
H2754 H 0.05676 0.02411 0.92948 0.0
H2755 H 0.0814 0.05678 0.88406 0.0
H2756 H 0.0924 0.04009 0.84278 0.0
H2757 H 0.09103 0.99477 0.65629 0.0
H2758 H 0.08844 0.98954 0.72007 0.0
H2759 H 0.10118 0.03133 0.74632 0.0
H2760 H 0.10273 0.03683 0.68226 0.0
H2761 H 0.08291 0.02443 0.79087 0.0
H2762 H 0.12386 0.00163 0.74901 0.0
H2763 H 0.13805 0.98639 0.71049 0.0
H2764 H 0.11338 0.95126 0.74162 0.0
H2765 H 0.09893 0.96633 0.77997 0.0
C2766 C 0.10243 0.00226 0.94936 0.0
C2767 C 0.09711 0.98961 0.96224 0.0
C2768 C 0.10122 0.00572 0.91319 0.0
C2769 C 0.0946 0.99664 0.88931 0.0
C2770 C 0.08921 0.98404 0.90204 0.0
C2771 C 0.0904 0.98057 0.93827 0.0
C2772 C 0.0939 1.0 0.8507 0.0
C2773 C 0.10065 0.99107 0.8267 0.0
C2774 C 0.0876 0.0123 0.83781 0.0
C2775 C 0.08069 0.02238 0.86216 0.0
C2776 C 0.07045 0.01802 0.88662 0.0
C2777 C 0.06444 0.02754 0.91028 0.0
C2778 C 0.06836 0.04149 0.90933 0.0
C2779 C 0.07835 0.04596 0.88476 0.0
C2780 C 0.08451 0.03647 0.86128 0.0
C2781 C 0.09316 0.00284 0.6758 0.0
C2782 C 0.0972 0.01614 0.66469 0.0
C2783 C 0.09177 0.99984 0.71219 0.0
C2784 C 0.09501 0.00991 0.73813 0.0
C2785 C 0.09867 0.02336 0.72689 0.0
C2786 C 0.0996 0.02649 0.69038 0.0
C2787 C 0.09493 0.00633 0.77686 0.0
C2788 C 0.08806 0.0152 0.80095 0.0
C2789 C 0.10156 0.99423 0.79012 0.0
C2790 C 0.11022 0.98514 0.76705 0.0
C2791 C 0.1214 0.99067 0.74743 0.0
C2792 C 0.1295 0.98206 0.72566 0.0
C2793 C 0.12659 0.96787 0.72353 0.0
C2794 C 0.1156 0.96226 0.74324 0.0
C2795 C 0.10746 0.97083 0.76502 0.0
H2796 H 0.13288 0.96122 0.70666 0.0
H2797 H 0.06367 0.04884 0.92766 0.0
H2798 H 0.74191 0.34278 0.72407 0.0
H2799 H 0.73719 0.34127 0.65961 0.0
H2800 H 0.781 0.34484 0.63743 0.0
H2801 H 0.78584 0.34603 0.70196 0.0
H2802 H 0.76259 0.36508 0.60339 0.0
H2803 H 0.76847 0.31598 0.6185 0.0
H2804 H 0.76445 0.29286 0.64491 0.0
H2805 H 0.72125 0.29539 0.61733 0.0
H2806 H 0.72498 0.31859 0.59097 0.0
H2807 H 0.75971 0.35723 0.41519 0.0
H2808 H 0.76535 0.35493 0.47867 0.0
H2809 H 0.72308 0.34287 0.50114 0.0
H2810 H 0.71741 0.34484 0.43733 0.0
H2811 H 0.74095 0.32643 0.53556 0.0
H2812 H 0.7351 0.37543 0.52041 0.0
H2813 H 0.73889 0.39861 0.49417 0.0
H2814 H 0.78195 0.39677 0.5237 0.0
H2815 H 0.77845 0.37346 0.54948 0.0
C2816 C 0.75054 0.34304 0.70542 0.0
C2817 C 0.76422 0.34457 0.71779 0.0
C2818 C 0.74784 0.3421 0.66875 0.0
C2819 C 0.75876 0.34291 0.64402 0.0
C2820 C 0.77247 0.34412 0.6563 0.0
C2821 C 0.77521 0.34477 0.69303 0.0
C2822 C 0.7557 0.34386 0.6054 0.0
C2823 C 0.75816 0.35655 0.58822 0.0
C2824 C 0.74936 0.33288 0.58642 0.0
C2825 C 0.74699 0.31908 0.60305 0.0
C2826 C 0.75808 0.31168 0.61841 0.0
C2827 C 0.75587 0.29852 0.63319 0.0
C2828 C 0.74261 0.29265 0.63274 0.0
C2829 C 0.73152 0.29994 0.61758 0.0
C2830 C 0.73368 0.31308 0.60266 0.0
C2831 C 0.7516 0.35412 0.43362 0.0
C2832 C 0.73811 0.35122 0.42129 0.0
C2833 C 0.75483 0.35285 0.46991 0.0
C2834 C 0.7446 0.34888 0.49465 0.0
C2835 C 0.73113 0.34593 0.48244 0.0
C2836 C 0.72791 0.34707 0.44603 0.0
C2837 C 0.74805 0.34764 0.53318 0.0
C2838 C 0.74555 0.33493 0.5505 0.0
C2839 C 0.75434 0.35864 0.5524 0.0
C2840 C 0.75653 0.3726 0.53645 0.0
C2841 C 0.7454 0.37989 0.52091 0.0
C2842 C 0.74749 0.39307 0.50619 0.0
C2843 C 0.76067 0.39914 0.50714 0.0
C2844 C 0.77176 0.39204 0.52288 0.0
C2845 C 0.76973 0.37884 0.53754 0.0
H2846 H 0.76227 0.40936 0.49578 0.0
H2847 H 0.74092 0.28247 0.64423 0.0
H2848 H 0.10938 0.42268 0.1054 0.0
H2849 H 0.12512 0.40961 0.14421 0.0
H2850 H 0.15633 0.44129 0.13176 0.0
H2851 H 0.14046 0.45472 0.09356 0.0
H2852 H 0.16498 0.41014 0.12698 0.0
H2853 H 0.14229 0.44456 0.20084 0.0
H2854 H 0.12196 0.45734 0.22387 0.0
H2855 H 0.10459 0.41932 0.26389 0.0
H2856 H 0.1247 0.40627 0.24044 0.0
H2857 H 0.20849 0.38869 0.2684 0.0
H2858 H 0.19409 0.4041 0.23205 0.0
H2859 H 0.15795 0.37964 0.2577 0.0
H2860 H 0.1723 0.36409 0.29418 0.0
H2861 H 0.15226 0.40811 0.25601 0.0
H2862 H 0.17329 0.37352 0.182 0.0
H2863 H 0.19263 0.35951 0.15817 0.0
H2864 H 0.21214 0.39638 0.11755 0.0
H2865 H 0.19298 0.41066 0.14168 0.0
C2866 C 0.11968 0.42678 0.1103 0.0
C2867 C 0.12366 0.43976 0.09637 0.0
C2868 C 0.12863 0.41931 0.13265 0.0
C2869 C 0.14182 0.42454 0.14099 0.0
C2870 C 0.14617 0.43711 0.1256 0.0
C2871 C 0.1371 0.44475 0.1038 0.0
C2872 C 0.15068 0.4172 0.16743 0.0
C2873 C 0.16237 0.4099 0.15528 0.0
C2874 C 0.147 0.41658 0.20416 0.0
C2875 C 0.13493 0.42441 0.2185 0.0
C2876 C 0.13406 0.4389 0.21419 0.0
C2877 C 0.1226 0.4462 0.22739 0.0
C2878 C 0.11198 0.43914 0.24525 0.0
C2879 C 0.11282 0.42477 0.25 0.0
C2880 C 0.12425 0.41742 0.23676 0.0
C2881 C 0.19744 0.38671 0.26696 0.0
C2882 C 0.19158 0.37507 0.28405 0.0
C2883 C 0.18922 0.39552 0.246 0.0
C2884 C 0.17498 0.39291 0.24174 0.0
C2885 C 0.16893 0.38182 0.26055 0.0
C2886 C 0.17716 0.37294 0.28136 0.0
C2887 C 0.16665 0.40111 0.21566 0.0
C2888 C 0.155 0.40849 0.22779 0.0
C2889 C 0.17028 0.40169 0.17883 0.0
C2890 C 0.18177 0.39317 0.16395 0.0
C2891 C 0.18175 0.37866 0.16824 0.0
C2892 C 0.19267 0.37067 0.15465 0.0
C2893 C 0.2036 0.37705 0.13639 0.0
C2894 C 0.20365 0.39145 0.13171 0.0
C2895 C 0.19276 0.3995 0.14532 0.0
H2896 H 0.21197 0.37082 0.12573 0.0
H2897 H 0.10312 0.44481 0.2555 0.0
H2898 H 0.86358 0.95702 0.52717 0.0
H2899 H 0.84804 0.94235 0.49167 0.0
H2900 H 0.87917 0.91019 0.48906 0.0
H2901 H 0.89475 0.92474 0.52465 0.0
H2902 H 0.86897 0.91661 0.42172 0.0
H2903 H 0.85076 0.90578 0.53845 0.0
H2904 H 0.84093 0.91099 0.59802 0.0
H2905 H 0.80599 0.931 0.54853 0.0
H2906 H 0.81572 0.92608 0.48862 0.0
H2907 H 0.82966 0.8615 0.34722 0.0
H2908 H 0.84417 0.87689 0.38313 0.0
H2909 H 0.8101 0.90571 0.39315 0.0
H2910 H 0.79537 0.89015 0.35789 0.0
H2911 H 0.8215 0.90176 0.45623 0.0
H2912 H 0.83908 0.9127 0.33992 0.0
H2913 H 0.84871 0.9081 0.2798 0.0
H2914 H 0.88453 0.88891 0.32722 0.0
H2915 H 0.87502 0.89323 0.38765 0.0
C2916 C 0.86704 0.94674 0.51959 0.0
C2917 C 0.88043 0.94208 0.52879 0.0
C2918 C 0.85814 0.93836 0.49928 0.0
C2919 C 0.86245 0.92518 0.48764 0.0
C2920 C 0.87564 0.92034 0.49765 0.0
C2921 C 0.88451 0.92865 0.51822 0.0
C2922 C 0.85352 0.91673 0.46348 0.0
C2923 C 0.85865 0.91319 0.42943 0.0
C2924 C 0.8399 0.91269 0.47306 0.0
C2925 C 0.83405 0.91569 0.50905 0.0
C2926 C 0.84105 0.91141 0.54026 0.0
C2927 C 0.83548 0.91428 0.57409 0.0
C2928 C 0.82287 0.92136 0.57706 0.0
C2929 C 0.81578 0.92554 0.54619 0.0
C2930 C 0.82131 0.9227 0.51229 0.0
C2931 C 0.82529 0.87121 0.35655 0.0
C2932 C 0.81133 0.87458 0.34956 0.0
C2933 C 0.83363 0.88004 0.37709 0.0
C2934 C 0.8283 0.89255 0.39072 0.0
C2935 C 0.81447 0.89612 0.38301 0.0
C2936 C 0.80607 0.88724 0.36262 0.0
C2937 C 0.83695 0.90154 0.4144 0.0
C2938 C 0.83179 0.9052 0.44838 0.0
C2939 C 0.85052 0.9058 0.40463 0.0
C2940 C 0.85627 0.90317 0.36832 0.0
C2941 C 0.84895 0.9074 0.33753 0.0
C2942 C 0.8544 0.90486 0.30339 0.0
C2943 C 0.86721 0.89818 0.29969 0.0
C2944 C 0.8746 0.89406 0.33013 0.0
C2945 C 0.8692 0.89657 0.36433 0.0
H2946 H 0.87141 0.89623 0.27324 0.0
H2947 H 0.81857 0.92357 0.60327 0.0
H2948 H 0.39049 0.57856 0.60479 0.0
H2949 H 0.37498 0.59243 0.64223 0.0
H2950 H 0.34342 0.5609 0.63388 0.0
H2951 H 0.35903 0.54669 0.5969 0.0
H2952 H 0.33448 0.59146 0.62803 0.0
H2953 H 0.35881 0.55858 0.70299 0.0
H2954 H 0.37978 0.54645 0.7244 0.0
H2955 H 0.39743 0.58531 0.75765 0.0
H2956 H 0.37664 0.5977 0.73583 0.0
H2957 H 0.29283 0.6135 0.77304 0.0
H2958 H 0.30684 0.59844 0.73477 0.0
H2959 H 0.343 0.62337 0.75701 0.0
H2960 H 0.32905 0.63853 0.79554 0.0
H2961 H 0.34923 0.59556 0.75524 0.0
H2962 H 0.32536 0.6286 0.682 0.0
H2963 H 0.30513 0.64146 0.65876 0.0
H2964 H 0.28724 0.60343 0.62049 0.0
H2965 H 0.30725 0.59028 0.64413 0.0
C2966 C 0.38016 0.57465 0.61024 0.0
C2967 C 0.37603 0.56146 0.59792 0.0
C2968 C 0.37133 0.58259 0.63176 0.0
C2969 C 0.35811 0.57764 0.64097 0.0
C2970 C 0.35359 0.56489 0.627 0.0
C2971 C 0.36253 0.55679 0.60592 0.0
C2972 C 0.34957 0.58531 0.66749 0.0
C2973 C 0.33754 0.59219 0.65597 0.0
C2974 C 0.35382 0.58652 0.70369 0.0
C2975 C 0.36623 0.57909 0.71741 0.0
C2976 C 0.36722 0.56456 0.71456 0.0
C2977 C 0.37906 0.55762 0.72682 0.0
C2978 C 0.38995 0.5651 0.74227 0.0
C2979 C 0.38899 0.57953 0.74562 0.0
C2980 C 0.37718 0.58651 0.73333 0.0
C2981 C 0.30381 0.61567 0.77037 0.0
C2982 C 0.30978 0.6273 0.78725 0.0
C2983 C 0.31179 0.60708 0.74825 0.0
C2984 C 0.32591 0.60992 0.74248 0.0
C2985 C 0.3321 0.62103 0.76092 0.0
C2986 C 0.32411 0.62967 0.78298 0.0
C2987 C 0.33402 0.60171 0.71595 0.0
C2988 C 0.34605 0.59477 0.7274 0.0
C2989 C 0.32979 0.60054 0.67961 0.0
C2990 C 0.31774 0.60842 0.66524 0.0
C2991 C 0.31705 0.62295 0.66894 0.0
C2992 C 0.30563 0.6303 0.65565 0.0
C2993 C 0.29489 0.62327 0.63824 0.0
C2994 C 0.29556 0.60887 0.63404 0.0
C2995 C 0.30694 0.60146 0.64739 0.0
H2996 H 0.28606 0.62898 0.62794 0.0
H2997 H 0.39912 0.55972 0.75172 0.0
H2998 H 0.70925 0.11234 0.85288 0.0
H2999 H 0.69531 0.09659 0.88991 0.0
H3000 H 0.66196 0.12644 0.89119 0.0
H3001 H 0.6757 0.14216 0.85396 0.0
H3002 H 0.66935 0.11683 0.95964 0.0
H3003 H 0.65822 0.09817 0.84327 0.0
H3004 H 0.66343 0.08824 0.78382 0.0
H3005 H 0.68424 0.05385 0.83367 0.0
H3006 H 0.67932 0.06369 0.89346 0.0
H3007 H 0.61395 0.07799 0.03366 0.0
H3008 H 0.62973 0.09233 -0.00154 0.0
H3009 H 0.65803 0.05782 0.98861 0.0
H3010 H 0.64206 0.04325 0.02309 0.0
H3011 H 0.65465 0.06926 0.92578 0.0
H3012 H 0.66537 0.08693 0.04187 0.0
H3013 H 0.66076 0.09663 0.10191 0.0
H3014 H 0.64184 0.13253 0.05417 0.0
H3015 H 0.64617 0.12296 0.99382 0.0
C3016 C 0.69886 0.11546 0.86053 0.0
C3017 C 0.69361 0.12852 0.85035 0.0
C3018 C 0.69091 0.10645 0.88174 0.0
C3019 C 0.6776 0.11036 0.89341 0.0
C3020 C 0.67221 0.12323 0.8826 0.0
C3021 C 0.68007 0.13217 0.86108 0.0
C3022 C 0.66949 0.10132 0.91809 0.0
C3023 C 0.66599 0.10648 0.95213 0.0
C3024 C 0.66553 0.08765 0.90874 0.0
C3025 C 0.66855 0.08175 0.87283 0.0
C3026 C 0.66403 0.08856 0.84156 0.0
C3027 C 0.6669 0.08293 0.8078 0.0
C3028 C 0.6742 0.07044 0.80497 0.0
C3029 C 0.67861 0.06354 0.8359 0.0
C3030 C 0.67578 0.06913 0.86973 0.0
C3031 C 0.62364 0.07348 0.02457 0.0
C3032 C 0.62672 0.05944 0.03132 0.0
C3033 C 0.6327 0.08173 0.00444 0.0
C3034 C 0.64518 0.07623 0.99099 0.0
C3035 C 0.64848 0.06233 -0.00141 0.0
C3036 C 0.63937 0.05402 0.01855 0.0
C3037 C 0.65434 0.08479 0.96742 0.0
C3038 C 0.65807 0.07956 0.93354 0.0
C3039 C 0.65863 0.09836 0.97705 0.0
C3040 C 0.65599 0.10416 0.01331 0.0
C3041 C 0.66013 0.09685 0.04417 0.0
C3042 C 0.65758 0.10233 0.07826 0.0
C3043 C 0.65098 0.11517 0.08185 0.0
C3044 C 0.64694 0.12258 0.05135 0.0
C3045 C 0.64946 0.11713 0.01719 0.0
H3046 H 0.64902 0.1194 0.10827 0.0
H3047 H 0.6764 0.06609 0.77881 0.0
H3048 H 0.20811 0.60914 0.36085 0.0
H3049 H 0.19346 0.59346 0.39599 0.0
H3050 H 0.16022 0.62343 0.39321 0.0
H3051 H 0.17476 0.63917 0.35808 0.0
H3052 H 0.16554 0.61396 0.46148 0.0
H3053 H 0.15812 0.59427 0.34417 0.0
H3054 H 0.16533 0.58409 0.2864 0.0
H3055 H 0.18539 0.55056 0.34188 0.0
H3056 H 0.17846 0.56065 0.40003 0.0
H3057 H 0.10945 0.57472 0.5286 0.0
H3058 H 0.12567 0.58895 0.49466 0.0
H3059 H 0.1546 0.55478 0.49058 0.0
H3060 H 0.1381 0.54024 0.52362 0.0
H3061 H 0.15286 0.56585 0.42731 0.0
H3062 H 0.16004 0.58456 0.54424 0.0
H3063 H 0.15358 0.59456 0.6028 0.0
H3064 H 0.13519 0.62965 0.54996 0.0
H3065 H 0.14137 0.61977 0.49104 0.0
C3066 C 0.19761 0.61233 0.36722 0.0
C3067 C 0.19263 0.62544 0.35659 0.0
C3068 C 0.18924 0.60333 0.38734 0.0
C3069 C 0.17573 0.60727 0.39727 0.0
C3070 C 0.17062 0.62019 0.38595 0.0
C3071 C 0.17894 0.62915 0.36566 0.0
C3072 C 0.16713 0.59821 0.42076 0.0
C3073 C 0.16261 0.6035 0.45385 0.0
C3074 C 0.16375 0.58438 0.41139 0.0
C3075 C 0.1679 0.57829 0.37645 0.0
C3076 C 0.16417 0.58479 0.34406 0.0
C3077 C 0.16819 0.57902 0.31125 0.0
C3078 C 0.17585 0.5667 0.31047 0.0
C3079 C 0.17948 0.56011 0.34252 0.0
C3080 C 0.1755 0.56584 0.37541 0.0
C3081 C 0.11934 0.57025 0.521 0.0
C3082 C 0.12247 0.55632 0.529 0.0
C3083 C 0.12866 0.57845 0.50161 0.0
C3084 C 0.14149 0.57304 0.49032 0.0
C3085 C 0.14479 0.55922 0.49896 0.0
C3086 C 0.13538 0.55094 0.51806 0.0
C3087 C 0.15108 0.58164 0.46805 0.0
C3088 C 0.15582 0.57628 0.43517 0.0
C3089 C 0.1548 0.59537 0.47778 0.0
C3090 C 0.15108 0.60136 0.51319 0.0
C3091 C 0.15453 0.59436 0.54509 0.0
C3092 C 0.15093 0.60002 0.57835 0.0
C3093 C 0.14395 0.61272 0.58009 0.0
C3094 C 0.14058 0.61981 0.54857 0.0
C3095 C 0.14415 0.61419 0.51523 0.0
H3096 H 0.14117 0.61708 0.60587 0.0
H3097 H 0.17894 0.56225 0.28504 0.0
H3098 H 0.60665 0.92424 0.60689 0.0
H3099 H 0.62279 0.91073 0.6436 0.0
H3100 H 0.65468 0.94136 0.62608 0.0
H3101 H 0.63844 0.95522 0.59 0.0
H3102 H 0.66193 0.90983 0.61968 0.0
H3103 H 0.64212 0.94502 0.69745 0.0
H3104 H 0.62254 0.95807 0.72354 0.0
H3105 H 0.60555 0.92027 0.766 0.0
H3106 H 0.6249 0.90696 0.73956 0.0
H3107 H 0.70862 0.88754 0.75498 0.0
H3108 H 0.69398 0.90249 0.71779 0.0
H3109 H 0.65757 0.88057 0.75415 0.0
H3110 H 0.67215 0.86551 0.79134 0.0
H3111 H 0.65288 0.90845 0.75074 0.0
H3112 H 0.67061 0.87304 0.67539 0.0
H3113 H 0.68748 0.85791 0.64474 0.0
H3114 H 0.70613 0.89345 0.5947 0.0
H3115 H 0.68954 0.90887 0.6257 0.0
C3116 C 0.61716 0.92802 0.61027 0.0
C3117 C 0.62126 0.94082 0.59548 0.0
C3118 C 0.62634 0.9203 0.63142 0.0
C3119 C 0.63987 0.9251 0.6377 0.0
C3120 C 0.64426 0.93751 0.62153 0.0
C3121 C 0.63498 0.9454 0.60093 0.0
C3122 C 0.64913 0.91745 0.66259 0.0
C3123 C 0.66018 0.90974 0.64843 0.0
C3124 C 0.64643 0.91695 0.69987 0.0
C3125 C 0.63489 0.92497 0.71618 0.0
C3126 C 0.63414 0.93947 0.71204 0.0
C3127 C 0.62309 0.94692 0.72694 0.0
C3128 C 0.61279 0.94 0.74634 0.0
C3129 C 0.61353 0.92562 0.75093 0.0
C3130 C 0.62454 0.91812 0.736 0.0
C3131 C 0.69748 0.88602 0.75555 0.0
C3132 C 0.69157 0.8753 0.77616 0.0
C3133 C 0.68913 0.89453 0.73404 0.0
C3134 C 0.67469 0.89255 0.73281 0.0
C3135 C 0.66869 0.88228 0.75459 0.0
C3136 C 0.67705 0.87367 0.77584 0.0
C3137 C 0.66591 0.9009 0.70797 0.0
C3138 C 0.65485 0.90868 0.72209 0.0
C3139 C 0.66846 0.90126 0.67051 0.0
C3140 C 0.67893 0.89214 0.65325 0.0
C3141 C 0.67845 0.87767 0.65835 0.0
C3142 C 0.68793 0.86903 0.64081 0.0
C3143 C 0.69785 0.87471 0.61778 0.0
C3144 C 0.69843 0.88907 0.61255 0.0
C3145 C 0.68901 0.89777 0.63015 0.0
H3146 H 0.70502 0.86797 0.60378 0.0
H3147 H 0.60425 0.94577 0.7579 0.0
H3148 H 0.29753 0.3918 0.84907 0.0
H3149 H 0.31177 0.40779 0.88477 0.0
H3150 H 0.34392 0.37679 0.8921 0.0
H3151 H 0.32995 0.36089 0.85603 0.0
H3152 H 0.33488 0.38766 0.9592 0.0
H3153 H 0.34986 0.40338 0.84317 0.0
H3154 H 0.3475 0.41292 0.78212 0.0
H3155 H 0.32904 0.44998 0.82481 0.0
H3156 H 0.33103 0.44055 0.88611 0.0
H3157 H 0.3907 0.42412 0.03867 0.0
H3158 H 0.37497 0.41023 0.00218 0.0
H3159 H 0.34913 0.44618 0.98452 0.0
H3160 H 0.36507 0.46027 0.02039 0.0
H3161 H 0.3536 0.43357 0.92337 0.0
H3162 H 0.33864 0.41855 0.03894 0.0
H3163 H 0.34105 0.40957 0.10057 0.0
H3164 H 0.3588 0.37183 0.0599 0.0
H3165 H 0.35667 0.38066 0.99802 0.0
C3166 C 0.30774 0.38848 0.8577 0.0
C3167 C 0.31258 0.37504 0.84969 0.0
C3168 C 0.31586 0.39764 0.87809 0.0
C3169 C 0.32888 0.39345 0.89118 0.0
C3170 C 0.3339 0.38022 0.88231 0.0
C3171 C 0.32591 0.37116 0.86152 0.0
C3172 C 0.33688 0.40243 0.91618 0.0
C3173 C 0.3391 0.39764 0.95128 0.0
C3174 C 0.34196 0.41565 0.90618 0.0
C3175 C 0.34038 0.42115 0.86922 0.0
C3176 C 0.34509 0.41347 0.83953 0.0
C3177 C 0.34387 0.41888 0.80487 0.0
C3178 C 0.33807 0.43202 0.79957 0.0
C3179 C 0.33348 0.43978 0.82893 0.0
C3180 C 0.33463 0.4344 0.86363 0.0
C3181 C 0.38155 0.42905 0.02758 0.0
C3182 C 0.37916 0.44333 0.03259 0.0
C3183 C 0.37252 0.42106 0.00672 0.0
C3184 C 0.36076 0.4271 0.99074 0.0
C3185 C 0.35812 0.44127 0.99653 0.0
C3186 C 0.36721 0.4493 0.01728 0.0
C3187 C 0.35171 0.41877 0.96646 0.0
C3188 C 0.34927 0.42365 0.93148 0.0
C3189 C 0.34629 0.40568 0.97666 0.0
C3190 C 0.3476 0.40032 0.01385 0.0
C3191 C 0.34315 0.40838 0.04315 0.0
C3192 C 0.34445 0.40331 0.07813 0.0
C3193 C 0.3501 0.39015 0.08415 0.0
C3194 C 0.35444 0.38203 0.05519 0.0
C3195 C 0.35317 0.38705 0.02016 0.0
H3196 H 0.3511 0.38625 0.11125 0.0
H3197 H 0.33718 0.43621 0.77273 0.0
H3198 H 0.83003 0.14482 0.27848 0.0
H3199 H 0.84419 0.12939 0.24149 0.0
H3200 H 0.81166 0.09868 0.2432 0.0
H3201 H 0.79725 0.11418 0.27984 0.0
H3202 H 0.84032 0.08798 0.25101 0.0
H3203 H 0.81222 0.11696 0.1747 0.0
H3204 H 0.80265 0.13933 0.15409 0.0
H3205 H 0.84376 0.15382 0.12994 0.0
H3206 H 0.8536 0.13161 0.15106 0.0
H3207 H 0.86372 0.04768 0.10512 0.0
H3208 H 0.84863 0.06205 0.14242 0.0
H3209 H 0.87662 0.09663 0.12958 0.0
H3210 H 0.89175 0.08235 0.09187 0.0
H3211 H 0.84977 0.10512 0.12776 0.0
H3212 H 0.87815 0.0768 0.20366 0.0
H3213 H 0.88839 0.05494 0.22571 0.0
H3214 H 0.84778 0.03966 0.25211 0.0
H3215 H 0.83726 0.06135 0.22963 0.0
C3216 C 0.82595 0.13469 0.27164 0.0
C3217 C 0.81246 0.13077 0.28202 0.0
C3218 C 0.83406 0.1259 0.25036 0.0
C3219 C 0.82891 0.11296 0.23933 0.0
C3220 C 0.8158 0.10864 0.25141 0.0
C3221 C 0.80759 0.11751 0.27233 0.0
C3222 C 0.83683 0.10447 0.21313 0.0
C3223 C 0.84223 0.09161 0.2239 0.0
C3224 C 0.83956 0.10938 0.17803 0.0
C3225 C 0.83366 0.12267 0.16482 0.0
C3226 C 0.81923 0.12496 0.16529 0.0
C3227 C 0.81375 0.1376 0.15347 0.0
C3228 C 0.82259 0.148 0.1408 0.0
C3229 C 0.83693 0.14576 0.13982 0.0
C3230 C 0.84246 0.13314 0.15169 0.0
C3231 C 0.86658 0.05841 0.10966 0.0
C3232 C 0.87902 0.06382 0.09564 0.0
C3233 C 0.85796 0.06659 0.13123 0.0
C3234 C 0.86163 0.08034 0.13942 0.0
C3235 C 0.87362 0.08603 0.12381 0.0
C3236 C 0.88226 0.07784 0.1022 0.0
C3237 C 0.8533 0.08856 0.16553 0.0
C3238 C 0.84783 0.10142 0.15478 0.0
C3239 C 0.8506 0.08367 0.20075 0.0
C3240 C 0.8569 0.07065 0.2146 0.0
C3241 C 0.87138 0.06874 0.2139 0.0
C3242 C 0.87724 0.05638 0.22651 0.0
C3243 C 0.86874 0.0459 0.24022 0.0
C3244 C 0.85435 0.04778 0.24143 0.0
C3245 C 0.84844 0.0601 0.22877 0.0
H3246 H 0.8733 0.03635 0.24998 0.0
H3247 H 0.81834 0.15778 0.13166 0.0
H3248 H 0.89092 0.57618 0.02544 0.0
H3249 H 0.87534 0.59083 0.99021 0.0
H3250 H 0.84544 0.55758 0.98547 0.0
H3251 H 0.86103 0.54276 0.0206 0.0
H3252 H 0.86624 0.58531 0.92095 0.0
H3253 H 0.81259 0.57323 0.98164 0.0
H3254 H 0.80225 0.56654 0.03969 0.0
H3255 H 0.83593 0.58618 0.09551 0.0
H3256 H 0.84636 0.59315 0.03784 0.0
H3257 H 0.79315 0.61335 0.8565 0.0
H3258 H 0.80739 0.59688 0.89044 0.0
H3259 H 0.84177 0.62556 0.88702 0.0
H3260 H 0.8278 0.6418 0.85227 0.0
H3261 H 0.81822 0.59873 0.9542 0.0
H3262 H 0.87245 0.60936 0.89114 0.0
H3263 H 0.88255 0.61525 0.83226 0.0
H3264 H 0.84734 0.5972 0.77921 0.0
H3265 H 0.83712 0.59104 0.83773 0.0
C3266 C 0.88095 0.57202 0.01743 0.0
C3267 C 0.87725 0.55826 0.02588 0.0
C3268 C 0.87209 0.5804 0.99708 0.0
C3269 C 0.85924 0.57531 0.98513 0.0
C3270 C 0.85527 0.56176 0.99458 0.0
C3271 C 0.8642 0.55331 0.01469 0.0
C3272 C 0.85035 0.58398 0.9614 0.0
C3273 C 0.85579 0.58839 0.92837 0.0
C3274 C 0.83656 0.58758 0.97052 0.0
C3275 C 0.83033 0.58356 0.00539 0.0
C3276 C 0.81776 0.57615 0.00631 0.0
C3277 C 0.81189 0.57231 0.03915 0.0
C3278 C 0.81846 0.57589 0.07126 0.0
C3279 C 0.83089 0.58336 0.07061 0.0
C3280 C 0.8368 0.58723 0.03785 0.0
C3281 C 0.80382 0.61604 0.86245 0.0
C3282 C 0.80934 0.62888 0.85144 0.0
C3283 C 0.81193 0.60664 0.88206 0.0
C3284 C 0.82573 0.60987 0.89113 0.0
C3285 C 0.83128 0.62263 0.8798 0.0
C3286 C 0.82323 0.63196 0.85994 0.0
C3287 C 0.83414 0.60023 0.91373 0.0
C3288 C 0.82863 0.59561 0.94655 0.0
C3289 C 0.84784 0.5963 0.90424 0.0
C3290 C 0.85396 0.59986 0.86887 0.0
C3291 C 0.86689 0.6066 0.86691 0.0
C3292 C 0.87263 0.61 0.83359 0.0
C3293 C 0.86557 0.60664 0.80202 0.0
C3294 C 0.85277 0.59985 0.80369 0.0
C3295 C 0.84699 0.59642 0.83693 0.0
H3296 H 0.87003 0.60928 0.77626 0.0
H3297 H 0.8139 0.5729 0.09665 0.0
H3298 H 0.1174 0.07917 0.58573 0.0
H3299 H 0.1338 0.09304 0.62024 0.0
H3300 H 0.15854 0.05653 0.64045 0.0
H3301 H 0.14193 0.04247 0.60656 0.0
H3302 H 0.15488 0.06971 0.70038 0.0
H3303 H 0.16989 0.0834 0.58467 0.0
H3304 H 0.16837 0.0919 0.52242 0.0
H3305 H 0.15187 0.1307 0.55979 0.0
H3306 H 0.15307 0.12236 0.62225 0.0
H3307 H 0.20989 0.11246 0.77615 0.0
H3308 H 0.1967 0.09637 0.73818 0.0
H3309 H 0.16343 0.12617 0.73068 0.0
H3310 H 0.17636 0.14218 0.76905 0.0
H3311 H 0.17379 0.11533 0.66271 0.0
H3312 H 0.15776 0.0998 0.77924 0.0
H3313 H 0.16096 0.09091 0.84073 0.0
H3314 H 0.18173 0.05485 0.79938 0.0
H3315 H 0.17882 0.06363 0.73763 0.0
C3316 C 0.12644 0.07409 0.59696 0.0
C3317 C 0.12831 0.05967 0.59332 0.0
C3318 C 0.13588 0.08208 0.61665 0.0
C3319 C 0.14751 0.07589 0.63286 0.0
C3320 C 0.14965 0.06157 0.62828 0.0
C3321 C 0.14018 0.05354 0.60869 0.0
C3322 C 0.15681 0.08422 0.65658 0.0
C3323 C 0.15921 0.07956 0.6918 0.0
C3324 C 0.1624 0.09719 0.64577 0.0
C3325 C 0.16144 0.10219 0.60817 0.0
C3326 C 0.1658 0.09369 0.57961 0.0
C3327 C 0.16502 0.09849 0.54428 0.0
C3328 C 0.16 0.11182 0.53715 0.0
C3329 C 0.15575 0.12038 0.56534 0.0
C3330 C 0.15648 0.11562 0.60073 0.0
C3331 C 0.19966 0.11549 0.76694 0.0
C3332 C 0.19417 0.1286 0.77576 0.0
C3333 C 0.19216 0.1063 0.74518 0.0
C3334 C 0.17913 0.11012 0.7315 0.0
C3335 C 0.1735 0.12305 0.74088 0.0
C3336 C 0.18087 0.13214 0.76306 0.0
C3337 C 0.17152 0.1009 0.70634 0.0
C3338 C 0.1695 0.10541 0.67094 0.0
C3339 C 0.16649 0.08773 0.71677 0.0
C3340 C 0.16823 0.08245 0.75386 0.0
C3341 C 0.16314 0.09004 0.78328 0.0
C3342 C 0.16486 0.08501 0.81818 0.0
C3343 C 0.17158 0.07235 0.82397 0.0
C3344 C 0.17655 0.06467 0.79486 0.0
C3345 C 0.17486 0.06967 0.75991 0.0
H3346 H 0.17291 0.06847 0.851 0.0
H3347 H 0.15942 0.11552 0.50977 0.0
H3348 H 0.70949 0.39114 0.36892 0.0
H3349 H 0.69498 0.40648 0.40526 0.0
H3350 H 0.6586 0.38335 0.37417 0.0
H3351 H 0.67303 0.36791 0.33772 0.0
H3352 H 0.65356 0.41185 0.37805 0.0
H3353 H 0.67289 0.37573 0.45044 0.0
H3354 H 0.69171 0.36102 0.47424 0.0
H3355 H 0.71136 0.39688 0.52007 0.0
H3356 H 0.69274 0.41186 0.49599 0.0
H3357 H 0.60876 0.42519 0.52547 0.0
H3358 H 0.62485 0.41216 0.4875 0.0
H3359 H 0.65651 0.44297 0.50567 0.0
H3360 H 0.64031 0.45636 0.54299 0.0
H3361 H 0.66447 0.41161 0.50828 0.0
H3362 H 0.64341 0.44758 0.4361 0.0
H3363 H 0.62365 0.46108 0.41257 0.0
H3364 H 0.60628 0.42408 0.36667 0.0
H3365 H 0.6258 0.41029 0.39065 0.0
C3366 C 0.69837 0.38946 0.36916 0.0
C3367 C 0.69244 0.37821 0.35058 0.0
C3368 C 0.69009 0.39822 0.39011 0.0
C3369 C 0.67573 0.39594 0.39283 0.0
C3370 C 0.66966 0.38528 0.37252 0.0
C3371 C 0.67794 0.37645 0.35174 0.0
C3372 C 0.66725 0.40395 0.41894 0.0
C3373 C 0.6559 0.41174 0.40651 0.0
C3374 C 0.67036 0.40388 0.45611 0.0
C3375 C 0.68149 0.39494 0.47111 0.0
C3376 C 0.68127 0.3805 0.46536 0.0
C3377 C 0.69189 0.37211 0.47892 0.0
C3378 C 0.70272 0.37802 0.49859 0.0
C3379 C 0.70296 0.39233 0.50478 0.0
C3380 C 0.69237 0.40078 0.49121 0.0
C3381 C 0.61923 0.42908 0.52207 0.0
C3382 C 0.62325 0.44183 0.53724 0.0
C3383 C 0.62838 0.42164 0.5002 0.0
C3384 C 0.64181 0.42667 0.49362 0.0
C3385 C 0.64617 0.43895 0.51045 0.0
C3386 C 0.63692 0.44656 0.53175 0.0
C3387 C 0.65087 0.41955 0.4673 0.0
C3388 C 0.66226 0.41186 0.47975 0.0
C3389 C 0.64771 0.41959 0.43021 0.0
C3390 C 0.63599 0.42787 0.41558 0.0
C3391 C 0.6353 0.44229 0.42137 0.0
C3392 C 0.62416 0.45 0.40788 0.0
C3393 C 0.6137 0.44344 0.38822 0.0
C3394 C 0.61438 0.42915 0.38197 0.0
C3395 C 0.62548 0.42138 0.39551 0.0
H3396 H 0.60509 0.44944 0.37776 0.0
H3397 H 0.71088 0.37147 0.50916 0.0
H3398 H 0.39182 0.92393 0.10303 0.0
H3399 H 0.37586 0.90957 0.13746 0.0
H3400 H 0.34573 0.94272 0.13725 0.0
H3401 H 0.36195 0.95741 0.10377 0.0
H3402 H 0.3473 0.93271 0.20138 0.0
H3403 H 0.34165 0.91184 0.08651 0.0
H3404 H 0.34881 0.90118 0.02928 0.0
H3405 H 0.3683 0.86773 0.08639 0.0
H3406 H 0.36142 0.87828 0.14401 0.0
H3407 H 0.29392 0.88703 0.27071 0.0
H3408 H 0.30767 0.90315 0.23423 0.0
H3409 H 0.34308 0.87597 0.24283 0.0
H3410 H 0.32952 0.8599 0.27943 0.0
H3411 H 0.33701 0.88353 0.17235 0.0
H3412 H 0.34301 0.90565 0.2875 0.0
H3413 H 0.33509 0.91652 0.34378 0.0
H3414 H 0.31351 0.94787 0.2838 0.0
H3415 H 0.32115 0.93707 0.22711 0.0
C3416 C 0.38172 0.92813 0.10974 0.0
C3417 C 0.37817 0.94184 0.10046 0.0
C3418 C 0.37254 0.91985 0.12943 0.0
C3419 C 0.35946 0.92495 0.13974 0.0
C3420 C 0.35574 0.93852 0.12969 0.0
C3421 C 0.365 0.94689 0.11032 0.0
C3422 C 0.35004 0.91634 0.16254 0.0
C3423 C 0.34485 0.92203 0.19459 0.0
C3424 C 0.34696 0.90231 0.15422 0.0
C3425 C 0.35111 0.89592 0.1196 0.0
C3426 C 0.34755 0.90226 0.08688 0.0
C3427 C 0.35154 0.89623 0.05437 0.0
C3428 C 0.35903 0.8838 0.0542 0.0
C3429 C 0.36251 0.87736 0.08656 0.0
C3430 C 0.35855 0.88335 0.11916 0.0
C3431 C 0.3047 0.8846 0.26537 0.0
C3432 C 0.3106 0.87215 0.27806 0.0
C3433 C 0.31254 0.89382 0.24447 0.0
C3434 C 0.32639 0.89074 0.2357 0.0
C3435 C 0.3324 0.87853 0.24914 0.0
C3436 C 0.32463 0.86939 0.27028 0.0
C3437 C 0.33449 0.89986 0.21118 0.0
C3438 C 0.3394 0.89425 0.17883 0.0
C3439 C 0.33715 0.91398 0.21902 0.0
C3440 C 0.33252 0.92046 0.25307 0.0
C3441 C 0.33647 0.91478 0.28631 0.0
C3442 C 0.33205 0.92095 0.31828 0.0
C3443 C 0.32377 0.93285 0.31737 0.0
C3444 C 0.31991 0.93863 0.28447 0.0
C3445 C 0.32428 0.9325 0.25241 0.0
H3446 H 0.32037 0.93762 0.34216 0.0
H3447 H 0.36211 0.87915 0.029 0.0
H3448 H 0.79009 0.38819 0.76517 0.0
H3449 H 0.80381 0.4035 0.72667 0.0
H3450 H 0.84102 0.38129 0.75582 0.0
H3451 H 0.82742 0.36602 0.79466 0.0
H3452 H 0.84606 0.40862 0.75183 0.0
H3453 H 0.82413 0.37429 0.67882 0.0
H3454 H 0.80475 0.36064 0.65389 0.0
H3455 H 0.7867 0.39773 0.61022 0.0
H3456 H 0.80582 0.41168 0.63564 0.0
H3457 H 0.88913 0.4241 0.60276 0.0
H3458 H 0.87344 0.41068 0.64093 0.0
H3459 H 0.84164 0.44172 0.62728 0.0
H3460 H 0.85743 0.45546 0.58968 0.0
H3461 H 0.83324 0.41097 0.62297 0.0
H3462 H 0.8562 0.44506 0.69708 0.0
H3463 H 0.87658 0.45766 0.72037 0.0
H3464 H 0.8937 0.41946 0.76 0.0
H3465 H 0.87353 0.40659 0.73629 0.0
C3466 C 0.80123 0.38669 0.76391 0.0
C3467 C 0.80763 0.37581 0.78292 0.0
C3468 C 0.80905 0.39541 0.74165 0.0
C3469 C 0.82342 0.3934 0.73782 0.0
C3470 C 0.82994 0.38301 0.7582 0.0
C3471 C 0.82214 0.37428 0.78043 0.0
C3472 C 0.83158 0.40171 0.71154 0.0
C3473 C 0.84328 0.40903 0.72364 0.0
C3474 C 0.8279 0.40241 0.67471 0.0
C3475 C 0.81632 0.39407 0.65957 0.0
C3476 C 0.81595 0.37958 0.66427 0.0
C3477 C 0.80502 0.37178 0.65002 0.0
C3478 C 0.79448 0.37832 0.6306 0.0
C3479 C 0.79485 0.39268 0.62538 0.0
C3480 C 0.80572 0.40055 0.63974 0.0
C3481 C 0.87872 0.42798 0.60724 0.0
C3482 C 0.87454 0.44088 0.5932 0.0
C3483 C 0.86979 0.42031 0.62921 0.0
C3484 C 0.85644 0.42527 0.63708 0.0
C3485 C 0.85192 0.43774 0.62149 0.0
C3486 C 0.86095 0.44556 0.60005 0.0
C3487 C 0.84761 0.41782 0.66341 0.0
C3488 C 0.83586 0.41063 0.65126 0.0
C3489 C 0.85131 0.41711 0.7001 0.0
C3490 C 0.86343 0.42484 0.71453 0.0
C3491 C 0.86438 0.43932 0.7104 0.0
C3492 C 0.87588 0.44652 0.72375 0.0
C3493 C 0.88644 0.43937 0.74158 0.0
C3494 C 0.88552 0.42499 0.74613 0.0
C3495 C 0.87405 0.41774 0.73275 0.0
H3496 H 0.89533 0.44496 0.75194 0.0
H3497 H 0.78608 0.37226 0.61948 0.0
H3498 H 0.35987 0.04305 0.52358 0.0
H3499 H 0.34426 0.05704 0.48663 0.0
H3500 H 0.36918 0.09333 0.50755 0.0
H3501 H 0.38479 0.07945 0.54488 0.0
H3502 H 0.34172 0.09981 0.50649 0.0
H3503 H 0.37388 0.0754 0.43146 0.0
H3504 H 0.38632 0.05485 0.40861 0.0
H3505 H 0.34769 0.03673 0.37531 0.0
H3506 H 0.33498 0.05713 0.39839 0.0
H3507 H 0.32603 0.14081 0.35423 0.0
H3508 H 0.33918 0.12513 0.39295 0.0
H3509 H 0.30653 0.09468 0.38549 0.0
H3510 H 0.29305 0.11049 0.34726 0.0
H3511 H 0.33673 0.08466 0.3798 0.0
H3512 H 0.30486 0.11042 0.45429 0.0
H3513 H 0.29348 0.13185 0.47542 0.0
H3514 H 0.33295 0.14821 0.50821 0.0
H3515 H 0.3446 0.12695 0.4867 0.0
C3516 C 0.36191 0.05406 0.52093 0.0
C3517 C 0.37367 0.06009 0.53704 0.0
C3518 C 0.35301 0.06203 0.49958 0.0
C3519 C 0.35569 0.07619 0.49374 0.0
C3520 C 0.36693 0.08242 0.51152 0.0
C3521 C 0.37586 0.07445 0.53288 0.0
C3522 C 0.34731 0.08428 0.46747 0.0
C3523 C 0.34072 0.09652 0.47878 0.0
C3524 C 0.34586 0.07995 0.43129 0.0
C3525 C 0.35346 0.06773 0.41699 0.0
C3526 C 0.36802 0.06699 0.41949 0.0
C3527 C 0.37512 0.05538 0.40648 0.0
C3528 C 0.3678 0.04448 0.39062 0.0
C3529 C 0.35335 0.04518 0.38765 0.0
C3530 C 0.34618 0.05678 0.40066 0.0
C3531 C 0.32171 0.13069 0.3602 0.0
C3532 C 0.30845 0.12693 0.34768 0.0
C3533 C 0.32924 0.12176 0.38247 0.0
C3534 C 0.32378 0.10881 0.39223 0.0
C3535 C 0.31091 0.10465 0.37822 0.0
C3536 C 0.30323 0.1137 0.35641 0.0
C3537 C 0.33116 0.10009 0.41895 0.0
C3538 C 0.33763 0.08781 0.40764 0.0
C3539 C 0.33261 0.10444 0.45502 0.0
C3540 C 0.32562 0.11715 0.46853 0.0
C3541 C 0.31113 0.11864 0.46571 0.0
C3542 C 0.30462 0.13075 0.4778 0.0
C3543 C 0.31249 0.14141 0.49304 0.0
C3544 C 0.32687 0.13995 0.49634 0.0
C3545 C 0.33343 0.12787 0.48423 0.0
H3546 H 0.30743 0.15078 0.50237 0.0
H3547 H 0.37332 0.03552 0.3805 0.0
H3548 H 0.61331 0.57632 0.10659 0.0
H3549 H 0.62924 0.59071 0.14104 0.0
H3550 H 0.66021 0.55837 0.13635 0.0
H3551 H 0.64403 0.54365 0.1029 0.0
H3552 H 0.65905 0.56761 0.20115 0.0
H3553 H 0.66294 0.5899 0.08759 0.0
H3554 H 0.65491 0.60101 0.03171 0.0
H3555 H 0.63521 0.6333 0.09269 0.0
H3556 H 0.64296 0.62228 0.14898 0.0
H3557 H 0.71205 0.6135 0.27024 0.0
H3558 H 0.69825 0.59761 0.23336 0.0
H3559 H 0.66246 0.62402 0.24641 0.0
H3560 H 0.6761 0.63991 0.28334 0.0
H3561 H 0.66781 0.61734 0.17516 0.0
H3562 H 0.6637 0.59373 0.28901 0.0
H3563 H 0.6727 0.58249 0.34372 0.0
H3564 H 0.69438 0.55249 0.27951 0.0
H3565 H 0.68566 0.56367 0.22437 0.0
C3566 C 0.62359 0.57232 0.11236 0.0
C3567 C 0.62739 0.55882 0.10184 0.0
C3568 C 0.63274 0.58061 0.13203 0.0
C3569 C 0.64605 0.57575 0.14106 0.0
C3570 C 0.65001 0.56239 0.1298 0.0
C3571 C 0.64078 0.554 0.11046 0.0
C3572 C 0.65548 0.58434 0.16381 0.0
C3573 C 0.66116 0.57841 0.19502 0.0
C3574 C 0.65812 0.59852 0.15634 0.0
C3575 C 0.65344 0.6052 0.12253 0.0
C3576 C 0.65681 0.59932 0.0891 0.0
C3577 C 0.65232 0.60561 0.05735 0.0
C3578 C 0.64453 0.61783 0.05866 0.0
C3579 C 0.64123 0.62382 0.09172 0.0
C3580 C 0.64569 0.61757 0.12356 0.0
C3581 C 0.70118 0.61581 0.26579 0.0
C3582 C 0.69519 0.628 0.27982 0.0
C3583 C 0.69331 0.60672 0.24465 0.0
C3584 C 0.67933 0.60965 0.23705 0.0
C3585 C 0.67324 0.62159 0.25181 0.0
C3586 C 0.68105 0.63062 0.27313 0.0
C3587 C 0.67115 0.60063 0.2125 0.0
C3588 C 0.66575 0.60649 0.18099 0.0
C3589 C 0.66893 0.58637 0.21945 0.0
C3590 C 0.67415 0.57962 0.25257 0.0
C3591 C 0.67049 0.58481 0.28655 0.0
C3592 C 0.67551 0.57843 0.31764 0.0
C3593 C 0.68414 0.5668 0.31509 0.0
C3594 C 0.68772 0.56151 0.28144 0.0
C3595 C 0.68273 0.56785 0.25027 0.0
H3596 H 0.68802 0.56188 0.33919 0.0
H3597 H 0.64106 0.62269 0.03404 0.0
H3598 H 0.17437 0.86304 0.84183 0.0
H3599 H 0.16018 0.87891 0.87716 0.0
H3600 H 0.19493 0.90691 0.88695 0.0
H3601 H 0.20935 0.89084 0.85234 0.0
H3602 H 0.1836 0.90357 0.9498 0.0
H3603 H 0.16572 0.9146 0.83416 0.0
H3604 H 0.15584 0.91026 0.77419 0.0
H3605 H 0.11992 0.89147 0.82211 0.0
H3606 H 0.12966 0.89553 0.88239 0.0
H3607 H 0.14074 0.95822 0.02381 0.0
H3608 H 0.15644 0.94428 0.9866 0.0
H3609 H 0.12655 0.91097 0.98545 0.0
H3610 H 0.1109 0.9247 0.02287 0.0
H3611 H 0.13599 0.91853 0.91689 0.0
H3612 H 0.15493 0.90711 0.03284 0.0
H3613 H 0.16504 0.91221 0.09216 0.0
H3614 H 0.19932 0.93304 0.04188 0.0
H3615 H 0.18931 0.92821 0.98222 0.0
C3616 C 0.17896 0.87268 0.85092 0.0
C3617 C 0.19303 0.87564 0.84413 0.0
C3618 C 0.17079 0.8818 0.87112 0.0
C3619 C 0.17641 0.89421 0.88462 0.0
C3620 C 0.19033 0.89741 0.87694 0.0
C3621 C 0.19855 0.88824 0.8569 0.0
C3622 C 0.16796 0.9034 0.9084 0.0
C3623 C 0.17329 0.90704 0.94224 0.0
C3624 C 0.15438 0.90777 0.89903 0.0
C3625 C 0.14849 0.90527 0.86281 0.0
C3626 C 0.15577 0.90944 0.83192 0.0
C3627 C 0.15018 0.90705 0.79786 0.0
C3628 C 0.13728 0.90056 0.79434 0.0
C3629 C 0.12992 0.89648 0.82488 0.0
C3630 C 0.13546 0.89884 0.859 0.0
C3631 C 0.1376 0.94783 0.01617 0.0
C3632 C 0.12454 0.94259 0.0264 0.0
C3633 C 0.14659 0.93989 0.99485 0.0
C3634 C 0.14264 0.9266 0.98313 0.0
C3635 C 0.12979 0.92121 0.99407 0.0
C3636 C 0.12088 0.92907 0.01569 0.0
C3637 C 0.1516 0.91852 0.95819 0.0
C3638 C 0.14635 0.91511 0.92419 0.0
C3639 C 0.16529 0.9145 0.96725 0.0
C3640 C 0.17129 0.91744 0.00309 0.0
C3641 C 0.16456 0.9129 0.03444 0.0
C3642 C 0.17028 0.91571 0.06812 0.0
C3643 C 0.18279 0.92298 0.07079 0.0
C3644 C 0.18962 0.92743 0.03977 0.0
C3645 C 0.18393 0.92465 0.00602 0.0
H3646 H 0.18721 0.92514 0.09689 0.0
H3647 H 0.13297 0.89872 0.76795 0.0
loop_
_geom_bond_atom_site_label_1
_geom_bond_atom_site_label_2
_geom_bond_distance
_geom_bond_site_symmetry_2
_ccdc_geom_bond_type
C0 O2 1.247 . S
C0 O4 1.258 . S
C1 O8 1.247 . S
C1 O9 1.258 . S
O2 C0 1.247 . S
O2 Zn3 2.028 . S
Zn3 O2 2.028 . S
Zn3 O7 2.035 . S
Zn3 O9 2.035 . S
Zn3 O10 2.028 . S
O4 C0 1.258 . S
O4 Zn5 2.035 . S
Zn5 O4 2.035 . S
Zn5 O6 2.028 . S
Zn5 O8 2.028 . S
Zn5 O11 2.035 . S
O6 Zn5 2.028 . S
O6 C12 1.247 . S
O7 Zn3 2.035 . S
O7 C12 1.258 . S
O8 C1 1.247 . S
O8 Zn5 2.028 . S
O9 C1 1.258 . S
O9 Zn3 2.035 . S
O10 Zn3 2.028 . S
O10 C13 1.247 . S
O11 Zn5 2.035 . S
O11 C13 1.258 . S
C12 O6 1.247 . S
C12 O7 1.258 . S
C13 O10 1.247 . S
C13 O11 1.258 . S
C14 O16 1.247 . S
C14 O18 1.258 . S
C15 O22 1.247 . S
C15 O23 1.258 . S
O16 C14 1.247 . S
O16 Zn17 2.028 . S
Zn17 O16 2.028 . S
Zn17 O21 2.035 . S
Zn17 O23 2.035 . S
Zn17 O24 2.028 . S
O18 C14 1.258 . S
O18 Zn19 2.035 . S
Zn19 O18 2.035 . S
Zn19 O20 2.028 . S
Zn19 O22 2.028 . S
Zn19 O25 2.035 . S
O20 Zn19 2.028 . S
O20 C26 1.247 . S
O21 Zn17 2.035 . S
O21 C26 1.258 . S
O22 C15 1.247 . S
O22 Zn19 2.028 . S
O23 C15 1.258 . S
O23 Zn17 2.035 . S
O24 Zn17 2.028 . S
O24 C27 1.247 . S
O25 Zn19 2.035 . S
O25 C27 1.258 . S
C26 O20 1.247 . S
C26 O21 1.258 . S
C27 O24 1.247 . S
C27 O25 1.258 . S
C28 O30 1.247 . S
C28 O32 1.258 . S
C29 O36 1.247 . S
C29 O37 1.258 . S
O30 C28 1.247 . S
O30 Zn31 2.028 . S
Zn31 O30 2.028 . S
Zn31 O35 2.035 . S
Zn31 O37 2.035 . S
Zn31 O38 2.028 . S
O32 C28 1.258 . S
O32 Zn33 2.035 . S
Zn33 O32 2.035 . S
Zn33 O34 2.028 . S
Zn33 O36 2.028 . S
Zn33 O39 2.035 . S
O34 Zn33 2.028 . S
O34 C40 1.247 . S
O35 Zn31 2.035 . S
O35 C40 1.258 . S
O36 C29 1.247 . S
O36 Zn33 2.028 . S
O37 C29 1.258 . S
O37 Zn31 2.035 . S
O38 Zn31 2.028 . S
O38 C41 1.247 . S
O39 Zn33 2.035 . S
O39 C41 1.258 . S
C40 O34 1.247 . S
C40 O35 1.258 . S
C41 O38 1.247 . S
C41 O39 1.258 . S
C42 O44 1.247 . S
C42 O46 1.258 . S
C43 O50 1.247 . S
C43 O51 1.258 . S
O44 C42 1.247 . S
O44 Zn45 2.028 . S
Zn45 O44 2.028 . S
Zn45 O49 2.035 . S
Zn45 O51 2.035 . S
Zn45 O52 2.028 . S
O46 C42 1.258 . S
O46 Zn47 2.035 . S
Zn47 O46 2.035 . S
Zn47 O48 2.028 . S
Zn47 O50 2.028 . S
Zn47 O53 2.035 . S
O48 Zn47 2.028 . S
O48 C54 1.247 . S
O49 Zn45 2.035 . S
O49 C54 1.258 . S
O50 C43 1.247 . S
O50 Zn47 2.028 . S
O51 C43 1.258 . S
O51 Zn45 2.035 . S
O52 Zn45 2.028 . S
O52 C55 1.247 . S
O53 Zn47 2.035 . S
O53 C55 1.258 . S
C54 O48 1.247 . S
C54 O49 1.258 . S
C55 O52 1.247 . S
C55 O53 1.258 . S
C56 O58 1.247 . S
C56 O60 1.258 . S
C57 O64 1.247 . S
C57 O65 1.258 . S
O58 C56 1.247 . S
O58 Zn59 2.028 . S
Zn59 O58 2.028 . S
Zn59 O63 2.035 . S
Zn59 O65 2.035 . S
Zn59 O66 2.028 . S
O60 C56 1.258 . S
O60 Zn61 2.035 . S
Zn61 O60 2.035 . S
Zn61 O62 2.028 . S
Zn61 O64 2.028 . S
Zn61 O67 2.035 . S
O62 Zn61 2.028 . S
O62 C68 1.247 . S
O63 Zn59 2.035 . S
O63 C68 1.258 . S
O64 C57 1.247 . S
O64 Zn61 2.028 . S
O65 C57 1.258 . S
O65 Zn59 2.035 . S
O66 Zn59 2.028 . S
O66 C69 1.247 . S
O67 Zn61 2.035 . S
O67 C69 1.258 . S
C68 O62 1.247 . S
C68 O63 1.258 . S
C69 O66 1.247 . S
C69 O67 1.258 . S
C70 O72 1.247 . S
C70 O74 1.258 . S
C71 O78 1.247 . S
C71 O79 1.258 . S
O72 C70 1.247 . S
O72 Zn73 2.028 . S
Zn73 O72 2.028 . S
Zn73 O77 2.035 . S
Zn73 O79 2.035 . S
Zn73 O80 2.028 . S
O74 C70 1.258 . S
O74 Zn75 2.035 . S
Zn75 O74 2.035 . S
Zn75 O76 2.028 . S
Zn75 O78 2.028 . S
Zn75 O81 2.035 . S
O76 Zn75 2.028 . S
O76 C82 1.247 . S
O77 Zn73 2.035 . S
O77 C82 1.258 . S
O78 C71 1.247 . S
O78 Zn75 2.028 . S
O79 C71 1.258 . S
O79 Zn73 2.035 . S
O80 Zn73 2.028 . S
O80 C83 1.247 . S
O81 Zn75 2.035 . S
O81 C83 1.258 . S
C82 O76 1.247 . S
C82 O77 1.258 . S
C83 O80 1.247 . S
C83 O81 1.258 . S
C84 O86 1.247 . S
C84 O88 1.258 . S
C85 O92 1.247 . S
C85 O93 1.258 . S
O86 C84 1.247 . S
O86 Zn87 2.028 . S
Zn87 O86 2.028 . S
Zn87 O91 2.035 . S
Zn87 O93 2.035 . S
Zn87 O94 2.028 1_554 S
O88 C84 1.258 . S
O88 Zn89 2.035 . S
Zn89 O88 2.035 . S
Zn89 O90 2.028 . S
Zn89 O92 2.028 . S
Zn89 O95 2.035 1_554 S
O90 Zn89 2.028 . S
O90 C96 1.247 . S
O91 Zn87 2.035 . S
O91 C96 1.258 . S
O92 C85 1.247 . S
O92 Zn89 2.028 . S
O93 C85 1.258 . S
O93 Zn87 2.035 . S
O94 Zn87 2.028 1_556 S
O94 C97 1.247 . S
O95 Zn89 2.035 1_556 S
O95 C97 1.258 . S
C96 O90 1.247 . S
C96 O91 1.258 . S
C97 O94 1.247 . S
C97 O95 1.258 . S
C98 O100 1.247 . S
C98 O102 1.258 . S
C99 O106 1.247 . S
C99 O107 1.258 . S
O100 C98 1.247 . S
O100 Zn101 2.028 . S
Zn101 O100 2.028 . S
Zn101 O105 2.035 . S
Zn101 O107 2.035 . S
Zn101 O108 2.028 . S
O102 C98 1.258 . S
O102 Zn103 2.035 . S
Zn103 O102 2.035 . S
Zn103 O104 2.028 . S
Zn103 O106 2.028 . S
Zn103 O109 2.035 . S
O104 Zn103 2.028 . S
O104 C110 1.247 . S
O105 Zn101 2.035 . S
O105 C110 1.258 . S
O106 C99 1.247 . S
O106 Zn103 2.028 . S
O107 C99 1.258 . S
O107 Zn101 2.035 . S
O108 Zn101 2.028 . S
O108 C111 1.247 . S
O109 Zn103 2.035 . S
O109 C111 1.258 . S
C110 O104 1.247 . S
C110 O105 1.258 . S
C111 O108 1.247 . S
C111 O109 1.258 . S
C112 O114 1.247 . S
C112 O116 1.258 . S
C113 O120 1.247 . S
C113 O121 1.258 . S
O114 C112 1.247 . S
O114 Zn115 2.028 1_556 S
Zn115 O114 2.028 1_554 S
Zn115 O119 2.035 . S
Zn115 O121 2.035 . S
Zn115 O122 2.028 . S
O116 C112 1.258 . S
O116 Zn117 2.035 1_556 S
Zn117 O116 2.035 1_554 S
Zn117 O118 2.028 . S
Zn117 O120 2.028 . S
Zn117 O123 2.035 . S
O118 Zn117 2.028 . S
O118 C124 1.247 . S
O119 Zn115 2.035 . S
O119 C124 1.258 . S
O120 C113 1.247 . S
O120 Zn117 2.028 . S
O121 C113 1.258 . S
O121 Zn115 2.035 . S
O122 Zn115 2.028 . S
O122 C125 1.247 . S
O123 Zn117 2.035 . S
O123 C125 1.258 . S
C124 O118 1.247 . S
C124 O119 1.258 . S
C125 O122 1.247 . S
C125 O123 1.258 . S
C126 O128 1.247 . S
C126 O130 1.258 . S
C127 O134 1.247 . S
C127 O135 1.258 . S
O128 C126 1.247 . S
O128 Zn129 2.028 . S
Zn129 O128 2.028 . S
Zn129 O133 2.035 . S
Zn129 O135 2.035 . S
Zn129 O136 2.028 . S
O130 C126 1.258 . S
O130 Zn131 2.035 . S
Zn131 O130 2.035 . S
Zn131 O132 2.028 . S
Zn131 O134 2.028 . S
Zn131 O137 2.035 . S
O132 Zn131 2.028 . S
O132 C138 1.247 . S
O133 Zn129 2.035 . S
O133 C138 1.258 . S
O134 C127 1.247 . S
O134 Zn131 2.028 . S
O135 C127 1.258 . S
O135 Zn129 2.035 . S
O136 Zn129 2.028 . S
O136 C139 1.247 . S
O137 Zn131 2.035 . S
O137 C139 1.258 . S
C138 O132 1.247 . S
C138 O133 1.258 . S
C139 O136 1.247 . S
C139 O137 1.258 . S
C140 O142 1.247 . S
C140 O144 1.258 . S
C141 O148 1.247 . S
C141 O149 1.258 . S
O142 C140 1.247 . S
O142 Zn143 2.028 . S
Zn143 O142 2.028 . S
Zn143 O147 2.035 . S
Zn143 O149 2.035 . S
Zn143 O150 2.028 . S
O144 C140 1.258 . S
O144 Zn145 2.035 . S
Zn145 O144 2.035 . S
Zn145 O146 2.028 . S
Zn145 O148 2.028 . S
Zn145 O151 2.035 . S
O146 Zn145 2.028 . S
O146 C152 1.247 . S
O147 Zn143 2.035 . S
O147 C152 1.258 . S
O148 C141 1.247 . S
O148 Zn145 2.028 . S
O149 C141 1.258 . S
O149 Zn143 2.035 . S
O150 Zn143 2.028 . S
O150 C153 1.247 . S
O151 Zn145 2.035 . S
O151 C153 1.258 . S
C152 O146 1.247 . S
C152 O147 1.258 . S
C153 O150 1.247 . S
C153 O151 1.258 . S
C154 O156 1.247 . S
C154 O158 1.258 . S
C155 O162 1.247 . S
C155 O163 1.258 . S
O156 C154 1.247 . S
O156 Zn157 2.028 . S
Zn157 O156 2.028 . S
Zn157 O161 2.035 . S
Zn157 O163 2.035 . S
Zn157 O164 2.028 . S
O158 C154 1.258 . S
O158 Zn159 2.035 . S
Zn159 O158 2.035 . S
Zn159 O160 2.028 . S
Zn159 O162 2.028 . S
Zn159 O165 2.035 . S
O160 Zn159 2.028 . S
O160 C166 1.247 . S
O161 Zn157 2.035 . S
O161 C166 1.258 . S
O162 C155 1.247 . S
O162 Zn159 2.028 . S
O163 C155 1.258 . S
O163 Zn157 2.035 . S
O164 Zn157 2.028 . S
O164 C167 1.247 . S
O165 Zn159 2.035 . S
O165 C167 1.258 . S
C166 O160 1.247 . S
C166 O161 1.258 . S
C167 O164 1.247 . S
C167 O165 1.258 . S
C168 O170 1.247 . S
C168 O172 1.258 . S
C169 O176 1.247 . S
C169 O177 1.258 . S
O170 C168 1.247 . S
O170 Zn171 2.028 . S
Zn171 O170 2.028 . S
Zn171 O175 2.035 . S
Zn171 O177 2.035 . S
Zn171 O178 2.028 . S
O172 C168 1.258 . S
O172 Zn173 2.035 . S
Zn173 O172 2.035 . S
Zn173 O174 2.028 . S
Zn173 O176 2.028 . S
Zn173 O179 2.035 . S
O174 Zn173 2.028 . S
O174 C180 1.247 . S
O175 Zn171 2.035 . S
O175 C180 1.258 . S
O176 C169 1.247 . S
O176 Zn173 2.028 . S
O177 C169 1.258 . S
O177 Zn171 2.035 . S
O178 Zn171 2.028 . S
O178 C181 1.247 . S
O179 Zn173 2.035 . S
O179 C181 1.258 . S
C180 O174 1.247 . S
C180 O175 1.258 . S
C181 O178 1.247 . S
C181 O179 1.258 . S
C182 O184 1.247 . S
C182 O186 1.258 . S
C183 O190 1.247 . S
C183 O191 1.258 . S
O184 C182 1.247 . S
O184 Zn185 2.028 . S
Zn185 O184 2.028 . S
Zn185 O189 2.035 . S
Zn185 O191 2.035 . S
Zn185 O192 2.028 . S
O186 C182 1.258 . S
O186 Zn187 2.035 . S
Zn187 O186 2.035 . S
Zn187 O188 2.028 . S
Zn187 O190 2.028 . S
Zn187 O193 2.035 . S
O188 Zn187 2.028 . S
O188 C194 1.247 . S
O189 Zn185 2.035 . S
O189 C194 1.258 . S
O190 C183 1.247 . S
O190 Zn187 2.028 . S
O191 C183 1.258 . S
O191 Zn185 2.035 . S
O192 Zn185 2.028 . S
O192 C195 1.247 . S
O193 Zn187 2.035 . S
O193 C195 1.258 . S
C194 O188 1.247 . S
C194 O189 1.258 . S
C195 O192 1.247 . S
C195 O193 1.258 . S
C196 O198 1.247 . S
C196 O200 1.258 . S
C197 O204 1.247 . S
C197 O205 1.258 . S
O198 C196 1.247 . S
O198 Zn199 2.028 . S
Zn199 O198 2.028 . S
Zn199 O203 2.035 . S
Zn199 O205 2.035 . S
Zn199 O206 2.028 . S
O200 C196 1.258 . S
O200 Zn201 2.035 . S
Zn201 O200 2.035 . S
Zn201 O202 2.028 . S
Zn201 O204 2.028 . S
Zn201 O207 2.035 . S
O202 Zn201 2.028 . S
O202 C208 1.247 . S
O203 Zn199 2.035 . S
O203 C208 1.258 . S
O204 C197 1.247 . S
O204 Zn201 2.028 . S
O205 C197 1.258 . S
O205 Zn199 2.035 . S
O206 Zn199 2.028 . S
O206 C209 1.247 . S
O207 Zn201 2.035 . S
O207 C209 1.258 . S
C208 O202 1.247 . S
C208 O203 1.258 . S
C209 O206 1.247 . S
C209 O207 1.258 . S
C210 O212 1.247 . S
C210 O214 1.258 . S
C211 O218 1.247 . S
C211 O219 1.258 . S
O212 C210 1.247 . S
O212 Zn213 2.028 . S
Zn213 O212 2.028 . S
Zn213 O217 2.035 . S
Zn213 O219 2.035 . S
Zn213 O220 2.028 . S
O214 C210 1.258 . S
O214 Zn215 2.035 . S
Zn215 O214 2.035 . S
Zn215 O216 2.028 . S
Zn215 O218 2.028 . S
Zn215 O221 2.035 . S
O216 Zn215 2.028 . S
O216 C222 1.247 . S
O217 Zn213 2.035 . S
O217 C222 1.258 . S
O218 C211 1.247 . S
O218 Zn215 2.028 . S
O219 C211 1.258 . S
O219 Zn213 2.035 . S
O220 Zn213 2.028 . S
O220 C223 1.247 . S
O221 Zn215 2.035 . S
O221 C223 1.258 . S
C222 O216 1.247 . S
C222 O217 1.258 . S
C223 O220 1.247 . S
C223 O221 1.258 . S
C224 O226 1.247 . S
C224 O228 1.258 1_545 S
C225 O232 1.247 . S
C225 O233 1.258 . S
O226 C224 1.247 . S
O226 Zn227 2.028 . S
Zn227 O226 2.028 . S
Zn227 O231 2.035 . S
Zn227 O233 2.035 1_545 S
Zn227 O234 2.024 1_545 S
O228 C224 1.258 1_565 S
O228 Zn229 2.035 . S
Zn229 O228 2.035 . S
Zn229 O230 2.028 . S
Zn229 O232 2.028 . S
Zn229 O235 2.035 . S
O230 Zn229 2.028 . S
O230 C236 1.247 . S
O231 Zn227 2.035 . S
O231 C236 1.258 1_545 S
O232 C225 1.247 . S
O232 Zn229 2.028 . S
O233 C225 1.258 . S
O233 Zn227 2.035 1_565 S
O234 Zn227 2.024 1_565 S
O234 C237 1.259 . S
O235 Zn229 2.035 . S
O235 C237 1.258 . S
C236 O230 1.247 . S
C236 O231 1.258 1_565 S
C237 O234 1.259 . S
C237 O235 1.258 . S
C238 O240 1.247 . S
C238 O242 1.258 . S
C239 O246 1.247 . S
C239 O247 1.258 . S
O240 C238 1.247 . S
O240 Zn241 2.028 . S
Zn241 O240 2.028 . S
Zn241 O245 2.035 . S
Zn241 O247 2.035 . S
Zn241 O248 2.028 . S
O242 C238 1.258 . S
O242 Zn243 2.035 . S
Zn243 O242 2.035 . S
Zn243 O244 2.028 . S
Zn243 O246 2.028 . S
Zn243 O249 2.035 . S
O244 Zn243 2.028 . S
O244 C250 1.247 . S
O245 Zn241 2.035 . S
O245 C250 1.258 . S
O246 C239 1.247 . S
O246 Zn243 2.028 . S
O247 C239 1.258 . S
O247 Zn241 2.035 . S
O248 Zn241 2.028 . S
O248 C251 1.247 . S
O249 Zn243 2.035 . S
O249 C251 1.258 . S
C250 O244 1.247 . S
C250 O245 1.258 . S
C251 O248 1.247 . S
C251 O249 1.258 . S
C252 O254 1.247 . S
C252 O256 1.267 . S
C253 O260 1.247 1_545 S
C253 O261 1.258 . S
O254 C252 1.247 . S
O254 Zn255 2.028 . S
Zn255 O254 2.028 . S
Zn255 O259 2.035 . S
Zn255 O261 2.035 . S
Zn255 O262 2.028 . S
O256 C252 1.267 . S
O256 Zn257 2.033 1_545 S
Zn257 O256 2.033 1_565 S
Zn257 O258 2.028 1_565 S
Zn257 O260 2.028 . S
Zn257 O263 2.035 . S
O258 Zn257 2.028 1_545 S
O258 C264 1.247 . S
O259 Zn255 2.035 . S
O259 C264 1.258 . S
O260 C253 1.247 1_565 S
O260 Zn257 2.028 . S
O261 C253 1.258 . S
O261 Zn255 2.035 . S
O262 Zn255 2.028 . S
O262 C265 1.247 1_545 S
O263 Zn257 2.035 . S
O263 C265 1.258 . S
C264 O258 1.247 . S
C264 O259 1.258 . S
C265 O262 1.247 1_565 S
C265 O263 1.258 . S
C266 O268 1.247 . S
C266 O270 1.258 . S
C267 O274 1.247 . S
C267 O275 1.258 . S
O268 C266 1.247 . S
O268 Zn269 2.028 . S
Zn269 O268 2.028 . S
Zn269 O273 2.035 . S
Zn269 O275 2.035 . S
Zn269 O276 2.028 . S
O270 C266 1.258 . S
O270 Zn271 2.035 . S
Zn271 O270 2.035 . S
Zn271 O272 2.028 . S
Zn271 O274 2.028 . S
Zn271 O277 2.035 . S
O272 Zn271 2.028 . S
O272 C278 1.247 . S
O273 Zn269 2.035 . S
O273 C278 1.258 . S
O274 C267 1.247 . S
O274 Zn271 2.028 . S
O275 C267 1.258 . S
O275 Zn269 2.035 . S
O276 Zn269 2.028 . S
O276 C279 1.247 . S
O277 Zn271 2.035 . S
O277 C279 1.258 . S
C278 O272 1.247 . S
C278 O273 1.258 . S
C279 O276 1.247 . S
C279 O277 1.258 . S
C280 O282 1.247 . S
C280 O284 1.258 1_565 S
C281 O288 1.247 . S
C281 O289 1.258 . S
O282 C280 1.247 . S
O282 Zn283 2.028 . S
Zn283 O282 2.028 . S
Zn283 O287 2.035 1_554 S
Zn283 O289 2.035 1_565 S
Zn283 O290 2.025 1_565 S
O284 C280 1.258 1_545 S
O284 Zn285 2.035 . S
Zn285 O284 2.035 . S
Zn285 O286 2.028 1_554 S
Zn285 O288 2.028 . S
Zn285 O291 2.035 . S
O286 Zn285 2.028 1_556 S
O286 C292 1.247 . S
O287 Zn283 2.035 1_556 S
O287 C292 1.258 1_565 S
O288 C281 1.247 . S
O288 Zn285 2.028 . S
O289 C281 1.258 . S
O289 Zn283 2.035 1_545 S
O290 Zn283 2.025 1_545 S
O290 C293 1.258 . S
O291 Zn285 2.035 . S
O291 C293 1.258 . S
C292 O286 1.247 . S
C292 O287 1.258 1_545 S
C293 O290 1.258 . S
C293 O291 1.258 . S
C294 O296 1.247 . S
C294 O298 1.258 . S
C295 O302 1.247 . S
C295 O303 1.258 . S
O296 C294 1.247 . S
O296 Zn297 2.028 . S
Zn297 O296 2.028 . S
Zn297 O301 2.035 . S
Zn297 O303 2.035 . S
Zn297 O304 2.028 . S
O298 C294 1.258 . S
O298 Zn299 2.035 . S
Zn299 O298 2.035 . S
Zn299 O300 2.028 . S
Zn299 O302 2.028 . S
Zn299 O305 2.035 . S
O300 Zn299 2.028 . S
O300 C306 1.247 . S
O301 Zn297 2.035 . S
O301 C306 1.258 . S
O302 C295 1.247 . S
O302 Zn299 2.028 . S
O303 C295 1.258 . S
O303 Zn297 2.035 . S
O304 Zn297 2.028 . S
O304 C307 1.247 . S
O305 Zn299 2.035 . S
O305 C307 1.258 . S
C306 O300 1.247 . S
C306 O301 1.258 . S
C307 O304 1.247 . S
C307 O305 1.258 . S
C308 O310 1.247 . S
C308 O312 1.266 . S
C309 O316 1.247 1_565 S
C309 O317 1.258 . S
O310 C308 1.247 . S
O310 Zn311 2.028 . S
Zn311 O310 2.028 . S
Zn311 O315 2.035 . S
Zn311 O317 2.035 . S
Zn311 O318 2.028 . S
O312 C308 1.266 . S
O312 Zn313 2.033 1_565 S
Zn313 O312 2.033 1_545 S
Zn313 O314 2.028 1_545 S
Zn313 O316 2.028 . S
Zn313 O319 2.035 . S
O314 Zn313 2.028 1_565 S
O314 C320 1.247 . S
O315 Zn311 2.035 . S
O315 C320 1.258 . S
O316 C309 1.247 1_545 S
O316 Zn313 2.028 . S
O317 C309 1.258 . S
O317 Zn311 2.035 . S
O318 Zn311 2.028 . S
O318 C321 1.247 1_565 S
O319 Zn313 2.035 . S
O319 C321 1.258 . S
C320 O314 1.247 . S
C320 O315 1.258 . S
C321 O318 1.247 1_545 S
C321 O319 1.258 . S
C322 O324 1.247 . S
C322 O326 1.258 . S
C323 O330 1.247 . S
C323 O331 1.258 . S
O324 C322 1.247 . S
O324 Zn325 2.028 . S
Zn325 O324 2.028 . S
Zn325 O329 2.035 . S
Zn325 O331 2.035 . S
Zn325 O332 2.028 . S
O326 C322 1.258 . S
O326 Zn327 2.035 . S
Zn327 O326 2.035 . S
Zn327 O328 2.028 . S
Zn327 O330 2.028 . S
Zn327 O333 2.035 . S
O328 Zn327 2.028 . S
O328 C334 1.247 . S
O329 Zn325 2.035 . S
O329 C334 1.258 . S
O330 C323 1.247 . S
O330 Zn327 2.028 . S
O331 C323 1.258 . S
O331 Zn325 2.035 . S
O332 Zn325 2.028 . S
O332 C335 1.247 . S
O333 Zn327 2.035 . S
O333 C335 1.258 . S
C334 O328 1.247 . S
C334 O329 1.258 . S
C335 O332 1.247 . S
C335 O333 1.258 . S
C336 O338 1.247 . S
C336 O340 1.258 . S
C337 O344 1.247 . S
C337 O345 1.258 1_565 S
O338 C336 1.247 . S
O338 Zn339 2.028 . S
Zn339 O338 2.028 . S
Zn339 O343 2.035 . S
Zn339 O345 2.035 . S
Zn339 O346 2.028 . S
O340 C336 1.258 . S
O340 Zn341 2.035 1_545 S
Zn341 O340 2.035 1_565 S
Zn341 O342 2.025 1_565 S
Zn341 O344 2.028 . S
Zn341 O347 2.035 . S
O342 Zn341 2.025 1_545 S
O342 C348 1.259 . S
O343 Zn339 2.035 . S
O343 C348 1.258 . S
O344 C337 1.247 . S
O344 Zn341 2.028 . S
O345 C337 1.258 1_545 S
O345 Zn339 2.035 . S
O346 Zn339 2.028 . S
O346 C349 1.247 . S
O347 Zn341 2.035 . S
O347 C349 1.258 1_565 S
C348 O342 1.259 . S
C348 O343 1.258 . S
C349 O346 1.247 . S
C349 O347 1.258 1_545 S
C350 O352 1.247 . S
C350 O354 1.258 . S
C351 O358 1.247 . S
C351 O359 1.258 . S
O352 C350 1.247 . S
O352 Zn353 2.028 . S
Zn353 O352 2.028 . S
Zn353 O357 2.035 . S
Zn353 O359 2.035 . S
Zn353 O360 2.028 . S
O354 C350 1.258 . S
O354 Zn355 2.035 . S
Zn355 O354 2.035 . S
Zn355 O356 2.028 . S
Zn355 O358 2.028 . S
Zn355 O361 2.035 . S
O356 Zn355 2.028 . S
O356 C362 1.247 . S
O357 Zn353 2.035 . S
O357 C362 1.258 . S
O358 C351 1.247 . S
O358 Zn355 2.028 . S
O359 C351 1.258 . S
O359 Zn353 2.035 . S
O360 Zn353 2.028 . S
O360 C363 1.247 . S
O361 Zn355 2.035 . S
O361 C363 1.258 . S
C362 O356 1.247 . S
C362 O357 1.258 . S
C363 O360 1.247 . S
C363 O361 1.258 . S
C364 O366 1.247 . S
C364 O368 1.258 . S
C365 O372 1.247 . S
C365 O373 1.258 1_545 S
O366 C364 1.247 . S
O366 Zn367 2.028 . S
Zn367 O366 2.028 . S
Zn367 O371 2.035 . S
Zn367 O373 2.035 . S
Zn367 O374 2.028 1_554 S
O368 C364 1.258 . S
O368 Zn369 2.035 1_565 S
Zn369 O368 2.035 1_545 S
Zn369 O370 2.025 1_545 S
Zn369 O372 2.028 . S
Zn369 O375 2.035 1_554 S
O370 Zn369 2.025 1_565 S
O370 C376 1.258 . S
O371 Zn367 2.035 . S
O371 C376 1.258 . S
O372 C365 1.247 . S
O372 Zn369 2.028 . S
O373 C365 1.258 1_565 S
O373 Zn367 2.035 . S
O374 Zn367 2.028 1_556 S
O374 C377 1.247 . S
O375 Zn369 2.035 1_556 S
O375 C377 1.258 1_545 S
C376 O370 1.258 . S
C376 O371 1.258 . S
C377 O374 1.247 . S
C377 O375 1.258 1_565 S
C378 O380 1.247 . S
C378 O382 1.258 . S
C379 O386 1.247 . S
C379 O387 1.258 . S
O380 C378 1.247 . S
O380 Zn381 2.028 . S
Zn381 O380 2.028 . S
Zn381 O385 2.035 . S
Zn381 O387 2.035 . S
Zn381 O388 2.028 . S
O382 C378 1.258 . S
O382 Zn383 2.035 . S
Zn383 O382 2.035 . S
Zn383 O384 2.028 . S
Zn383 O386 2.028 . S
Zn383 O389 2.035 . S
O384 Zn383 2.028 . S
O384 C390 1.247 . S
O385 Zn381 2.035 . S
O385 C390 1.258 . S
O386 C379 1.247 . S
O386 Zn383 2.028 . S
O387 C379 1.258 . S
O387 Zn381 2.035 . S
O388 Zn381 2.028 . S
O388 C391 1.247 . S
O389 Zn383 2.035 . S
O389 C391 1.258 . S
C390 O384 1.247 . S
C390 O385 1.258 . S
C391 O388 1.247 . S
C391 O389 1.258 . S
C392 O394 1.247 1_565 S
C392 O396 1.258 . S
C393 O400 1.247 . S
C393 O401 1.267 . S
O394 C392 1.247 1_545 S
O394 Zn395 2.028 . S
Zn395 O394 2.028 . S
Zn395 O399 2.035 . S
Zn395 O401 2.033 1_545 S
Zn395 O402 2.028 1_545 S
O396 C392 1.258 . S
O396 Zn397 2.035 . S
Zn397 O396 2.035 . S
Zn397 O398 2.028 . S
Zn397 O400 2.028 . S
Zn397 O403 2.035 . S
O398 Zn397 2.028 . S
O398 C404 1.247 1_565 S
O399 Zn395 2.035 . S
O399 C404 1.258 . S
O400 C393 1.247 . S
O400 Zn397 2.028 . S
O401 C393 1.267 . S
O401 Zn395 2.033 1_565 S
O402 Zn395 2.028 1_565 S
O402 C405 1.247 . S
O403 Zn397 2.035 . S
O403 C405 1.258 . S
C404 O398 1.247 1_545 S
C404 O399 1.258 . S
C405 O402 1.247 . S
C405 O403 1.258 . S
C406 O408 1.247 . S
C406 O410 1.258 . S
C407 O414 1.247 . S
C407 O415 1.258 . S
O408 C406 1.247 . S
O408 Zn409 2.028 . S
Zn409 O408 2.028 . S
Zn409 O413 2.035 . S
Zn409 O415 2.035 . S
Zn409 O416 2.028 . S
O410 C406 1.258 . S
O410 Zn411 2.035 . S
Zn411 O410 2.035 . S
Zn411 O412 2.028 . S
Zn411 O414 2.028 . S
Zn411 O417 2.035 . S
O412 Zn411 2.028 . S
O412 C418 1.247 . S
O413 Zn409 2.035 . S
O413 C418 1.258 . S
O414 C407 1.247 . S
O414 Zn411 2.028 . S
O415 C407 1.258 . S
O415 Zn409 2.035 . S
O416 Zn409 2.028 . S
O416 C419 1.247 . S
O417 Zn411 2.035 . S
O417 C419 1.258 . S
C418 O412 1.247 . S
C418 O413 1.258 . S
C419 O416 1.247 . S
C419 O417 1.258 . S
C420 O422 1.247 1_545 S
C420 O424 1.258 . S
C421 O428 1.247 . S
C421 O429 1.266 . S
O422 C420 1.247 1_565 S
O422 Zn423 2.028 . S
Zn423 O422 2.028 . S
Zn423 O427 2.035 . S
Zn423 O429 2.033 1_565 S
Zn423 O430 2.028 1_565 S
O424 C420 1.258 . S
O424 Zn425 2.035 . S
Zn425 O424 2.035 . S
Zn425 O426 2.028 . S
Zn425 O428 2.028 . S
Zn425 O431 2.035 . S
O426 Zn425 2.028 . S
O426 C432 1.247 1_545 S
O427 Zn423 2.035 . S
O427 C432 1.258 . S
O428 C421 1.247 . S
O428 Zn425 2.028 . S
O429 C421 1.266 . S
O429 Zn423 2.033 1_545 S
O430 Zn423 2.028 1_545 S
O430 C433 1.247 . S
O431 Zn425 2.035 . S
O431 C433 1.258 . S
C432 O426 1.247 1_565 S
C432 O427 1.258 . S
C433 O430 1.247 . S
C433 O431 1.258 . S
C434 O436 1.247 . S
C434 O438 1.258 . S
C435 O442 1.247 . S
C435 O443 1.258 . S
O436 C434 1.247 . S
O436 Zn437 2.028 . S
Zn437 O436 2.028 . S
Zn437 O441 2.035 . S
Zn437 O443 2.035 . S
Zn437 O444 2.028 . S
O438 C434 1.258 . S
O438 Zn439 2.035 . S
Zn439 O438 2.035 . S
Zn439 O440 2.028 . S
Zn439 O442 2.028 . S
Zn439 O445 2.035 . S
O440 Zn439 2.028 . S
O440 C446 1.247 . S
O441 Zn437 2.035 . S
O441 C446 1.258 . S
O442 C435 1.247 . S
O442 Zn439 2.028 . S
O443 C435 1.258 . S
O443 Zn437 2.035 . S
O444 Zn437 2.028 . S
O444 C447 1.247 . S
O445 Zn439 2.035 . S
O445 C447 1.258 . S
C446 O440 1.247 . S
C446 O441 1.258 . S
C447 O444 1.247 . S
C447 O445 1.258 . S
H448 C466 0.951 . S
H449 C468 0.951 . S
H450 C470 0.950 . S
H451 C471 0.950 . S
H452 C473 0.950 . S
H453 C476 0.950 1_554 S
H454 C477 0.950 . S
H455 C479 0.950 . S
H456 C480 0.950 . S
H457 C481 0.951 . S
H458 C483 0.951 . S
H459 C485 0.950 . S
H460 C486 0.950 . S
H461 C488 0.950 . S
H462 C491 0.950 . S
H463 C492 0.950 . S
H464 C494 0.950 . S
H465 C495 0.950 . S
C466 H448 0.951 . S
C466 C467 1.366 . S
C466 C468 1.388 . S
C467 C466 1.366 . S
C467 C471 1.385 . S
C468 H449 0.951 . S
C468 C466 1.388 . S
C468 C469 1.366 . S
C469 C468 1.366 . S
C469 C470 1.414 . S
C469 C472 1.499 . S
C470 H450 0.950 . S
C470 C469 1.414 . S
C470 C471 1.374 . S
C471 H451 0.950 . S
C471 C467 1.385 . S
C471 C470 1.374 . S
C472 C469 1.499 . S
C472 C473 1.373 . S
C472 C474 1.389 . S
C473 H452 0.950 . S
C473 C472 1.373 . S
C473 C489 1.377 1_655 S
C474 C472 1.389 . S
C474 C475 1.524 1_554 S
C474 C488 1.377 1_655 S
C475 C474 1.524 1_556 S
C475 C476 1.397 . S
C475 C480 1.363 . S
C476 H453 0.950 1_556 S
C476 C475 1.397 . S
C476 C477 1.334 . S
C477 H454 0.950 . S
C477 C476 1.334 . S
C477 C478 1.287 . S
C478 C477 1.287 . S
C478 C479 1.524 . S
C478 H497 0.913 . S
C479 H455 0.950 . S
C479 C478 1.524 . S
C479 C480 1.415 . S
C480 H456 0.950 . S
C480 C475 1.363 . S
C480 C479 1.415 . S
C481 H457 0.951 . S
C481 C482 1.366 . S
C481 C483 1.388 . S
C482 C481 1.366 . S
C482 C486 1.385 . S
C483 H458 0.951 . S
C483 C481 1.388 . S
C483 C484 1.366 . S
C484 C483 1.366 . S
C484 C485 1.414 . S
C484 C487 1.499 . S
C485 H459 0.950 . S
C485 C484 1.414 . S
C485 C486 1.374 . S
C486 H460 0.950 . S
C486 C482 1.385 . S
C486 C485 1.374 . S
C487 C484 1.499 . S
C487 C488 1.373 . S
C487 C489 1.389 . S
C488 H461 0.950 . S
C488 C474 1.377 1_455 S
C488 C487 1.373 . S
C489 C473 1.377 1_455 S
C489 C487 1.389 . S
C489 C490 1.524 . S
C490 C489 1.524 . S
C490 C491 1.397 . S
C490 C495 1.363 . S
C491 H462 0.950 . S
C491 C490 1.397 . S
C491 C492 1.334 . S
C492 H463 0.950 . S
C492 C491 1.334 . S
C492 C493 1.287 . S
C493 C492 1.287 . S
C493 C494 1.524 . S
C493 H496 0.999 . S
C494 H464 0.950 . S
C494 C493 1.524 . S
C494 C495 1.415 . S
C495 H465 0.950 . S
C495 C490 1.363 . S
C495 C494 1.415 . S
H496 C493 0.999 . S
H497 C478 0.913 . S
H498 C516 0.951 . S
H499 C518 0.951 . S
H500 C520 0.950 . S
H501 C521 0.950 . S
H502 C523 0.950 . S
H503 C526 0.950 . S
H504 C527 0.950 . S
H505 C529 0.950 . S
H506 C530 0.950 . S
H507 C531 0.951 . S
H508 C533 0.951 . S
H509 C535 0.950 . S
H510 C536 0.950 . S
H511 C538 0.950 . S
H512 C541 0.950 . S
H513 C542 0.950 . S
H514 C544 0.950 . S
H515 C545 0.950 . S
C516 H498 0.951 . S
C516 C517 1.366 . S
C516 C518 1.388 . S
C517 C516 1.366 . S
C517 C521 1.385 . S
C518 H499 0.951 . S
C518 C516 1.388 . S
C518 C519 1.366 . S
C519 C518 1.366 . S
C519 C520 1.414 . S
C519 C522 1.499 . S
C520 H500 0.950 . S
C520 C519 1.414 . S
C520 C521 1.374 . S
C521 H501 0.950 . S
C521 C517 1.385 . S
C521 C520 1.374 . S
C522 C519 1.499 . S
C522 C523 1.373 . S
C522 C524 1.389 . S
C523 H502 0.950 . S
C523 C522 1.373 . S
C523 C539 1.377 . S
C524 C522 1.389 . S
C524 C525 1.524 . S
C524 C538 1.377 . S
C525 C524 1.524 . S
C525 C526 1.397 . S
C525 C530 1.363 . S
C526 H503 0.950 . S
C526 C525 1.397 . S
C526 C527 1.334 . S
C527 H504 0.950 . S
C527 C526 1.334 . S
C527 C528 1.287 . S
C528 C527 1.287 . S
C528 C529 1.524 . S
C528 H547 0.913 . S
C529 H505 0.950 . S
C529 C528 1.524 . S
C529 C530 1.415 . S
C530 H506 0.950 . S
C530 C525 1.363 . S
C530 C529 1.415 . S
C531 H507 0.951 . S
C531 C532 1.366 . S
C531 C533 1.388 . S
C532 C531 1.366 . S
C532 C536 1.385 . S
C533 H508 0.951 . S
C533 C531 1.388 . S
C533 C534 1.366 . S
C534 C533 1.366 . S
C534 C535 1.414 . S
C534 C537 1.499 . S
C535 H509 0.950 . S
C535 C534 1.414 . S
C535 C536 1.374 . S
C536 H510 0.950 . S
C536 C532 1.385 . S
C536 C535 1.374 . S
C537 C534 1.499 . S
C537 C538 1.373 . S
C537 C539 1.389 . S
C538 H511 0.950 . S
C538 C524 1.377 . S
C538 C537 1.373 . S
C539 C523 1.377 . S
C539 C537 1.389 . S
C539 C540 1.524 . S
C540 C539 1.524 . S
C540 C541 1.397 . S
C540 C545 1.363 . S
C541 H512 0.950 . S
C541 C540 1.397 . S
C541 C542 1.334 . S
C542 H513 0.950 . S
C542 C541 1.334 . S
C542 C543 1.287 . S
C543 C542 1.287 . S
C543 C544 1.524 . S
C543 H546 0.999 . S
C544 H514 0.950 . S
C544 C543 1.524 . S
C544 C545 1.415 . S
C545 H515 0.950 . S
C545 C540 1.363 . S
C545 C544 1.415 . S
H546 C543 0.999 . S
H547 C528 0.913 . S
H548 C566 0.951 . S
H549 C568 0.951 . S
H550 C570 0.950 . S
H551 C571 0.950 . S
H552 C573 0.950 . S
H553 C576 0.950 . S
H554 C577 0.950 . S
H555 C579 0.950 . S
H556 C580 0.950 . S
H557 C581 0.951 . S
H558 C583 0.951 . S
H559 C585 0.950 . S
H560 C586 0.950 . S
H561 C588 0.950 . S
H562 C591 0.950 . S
H563 C592 0.950 . S
H564 C594 0.950 . S
H565 C595 0.950 . S
C566 H548 0.951 . S
C566 C567 1.366 . S
C566 C568 1.388 . S
C567 C566 1.366 . S
C567 C571 1.385 . S
C568 H549 0.951 . S
C568 C566 1.388 . S
C568 C569 1.366 . S
C569 C568 1.366 . S
C569 C570 1.414 . S
C569 C572 1.499 . S
C570 H550 0.950 . S
C570 C569 1.414 . S
C570 C571 1.374 . S
C571 H551 0.950 . S
C571 C567 1.385 . S
C571 C570 1.374 . S
C572 C569 1.499 . S
C572 C573 1.373 . S
C572 C574 1.389 . S
C573 H552 0.950 . S
C573 C572 1.373 . S
C573 C589 1.377 . S
C574 C572 1.389 . S
C574 C575 1.524 . S
C574 C588 1.377 . S
C575 C574 1.524 . S
C575 C576 1.397 . S
C575 C580 1.363 . S
C576 H553 0.950 . S
C576 C575 1.397 . S
C576 C577 1.334 . S
C577 H554 0.950 . S
C577 C576 1.334 . S
C577 C578 1.287 . S
C578 C577 1.287 . S
C578 C579 1.524 . S
C578 H597 0.913 . S
C579 H555 0.950 . S
C579 C578 1.524 . S
C579 C580 1.415 . S
C580 H556 0.950 . S
C580 C575 1.363 . S
C580 C579 1.415 . S
C581 H557 0.951 . S
C581 C582 1.366 . S
C581 C583 1.388 . S
C582 C581 1.366 . S
C582 C586 1.385 . S
C583 H558 0.951 . S
C583 C581 1.388 . S
C583 C584 1.366 . S
C584 C583 1.366 . S
C584 C585 1.414 . S
C584 C587 1.499 . S
C585 H559 0.950 . S
C585 C584 1.414 . S
C585 C586 1.374 . S
C586 H560 0.950 . S
C586 C582 1.385 . S
C586 C585 1.374 . S
C587 C584 1.499 . S
C587 C588 1.373 . S
C587 C589 1.389 . S
C588 H561 0.950 . S
C588 C574 1.377 . S
C588 C587 1.373 . S
C589 C573 1.377 . S
C589 C587 1.389 . S
C589 C590 1.524 . S
C590 C589 1.524 . S
C590 C591 1.397 . S
C590 C595 1.363 . S
C591 H562 0.950 . S
C591 C590 1.397 . S
C591 C592 1.334 . S
C592 H563 0.950 . S
C592 C591 1.334 . S
C592 C593 1.287 . S
C593 C592 1.287 . S
C593 C594 1.524 . S
C593 H596 0.999 . S
C594 H564 0.950 . S
C594 C593 1.524 . S
C594 C595 1.415 . S
C595 H565 0.950 . S
C595 C590 1.363 . S
C595 C594 1.415 . S
H596 C593 0.999 . S
H597 C578 0.913 . S
H598 C616 0.951 . S
H599 C618 0.951 . S
H600 C620 0.950 . S
H601 C621 0.950 . S
H602 C623 0.950 . S
H603 C626 0.950 . S
H604 C627 0.950 . S
H605 C629 0.950 . S
H606 C630 0.950 . S
H607 C631 0.951 . S
H608 C633 0.951 . S
H609 C635 0.950 . S
H610 C636 0.950 . S
H611 C638 0.950 . S
H612 C641 0.950 . S
H613 C642 0.950 . S
H614 C644 0.950 . S
H615 C645 0.950 . S
C616 H598 0.951 . S
C616 C617 1.366 . S
C616 C618 1.388 . S
C617 C616 1.366 . S
C617 C621 1.385 . S
C618 H599 0.951 . S
C618 C616 1.388 . S
C618 C619 1.366 . S
C619 C618 1.366 . S
C619 C620 1.414 . S
C619 C622 1.499 . S
C620 H600 0.950 . S
C620 C619 1.414 . S
C620 C621 1.374 . S
C621 H601 0.950 . S
C621 C617 1.385 . S
C621 C620 1.374 . S
C622 C619 1.499 . S
C622 C623 1.373 . S
C622 C624 1.389 . S
C623 H602 0.950 . S
C623 C622 1.373 . S
C623 C639 1.377 . S
C624 C622 1.389 . S
C624 C625 1.524 . S
C624 C638 1.377 . S
C625 C624 1.524 . S
C625 C626 1.397 . S
C625 C630 1.363 . S
C626 H603 0.950 . S
C626 C625 1.397 . S
C626 C627 1.334 . S
C627 H604 0.950 . S
C627 C626 1.334 . S
C627 C628 1.287 . S
C628 C627 1.287 . S
C628 C629 1.524 . S
C628 H647 0.913 . S
C629 H605 0.950 . S
C629 C628 1.524 . S
C629 C630 1.415 . S
C630 H606 0.950 . S
C630 C625 1.363 . S
C630 C629 1.415 . S
C631 H607 0.951 . S
C631 C632 1.366 . S
C631 C633 1.388 . S
C632 C631 1.366 . S
C632 C636 1.385 . S
C633 H608 0.951 . S
C633 C631 1.388 . S
C633 C634 1.366 . S
C634 C633 1.366 . S
C634 C635 1.414 . S
C634 C637 1.499 . S
C635 H609 0.950 . S
C635 C634 1.414 . S
C635 C636 1.374 . S
C636 H610 0.950 . S
C636 C632 1.385 . S
C636 C635 1.374 . S
C637 C634 1.499 . S
C637 C638 1.373 . S
C637 C639 1.389 . S
C638 H611 0.950 . S
C638 C624 1.377 . S
C638 C637 1.373 . S
C639 C623 1.377 . S
C639 C637 1.389 . S
C639 C640 1.524 . S
C640 C639 1.524 . S
C640 C641 1.397 . S
C640 C645 1.363 . S
C641 H612 0.950 . S
C641 C640 1.397 . S
C641 C642 1.334 . S
C642 H613 0.950 . S
C642 C641 1.334 . S
C642 C643 1.287 . S
C643 C642 1.287 . S
C643 C644 1.524 . S
C643 H646 0.999 . S
C644 H614 0.950 . S
C644 C643 1.524 . S
C644 C645 1.415 . S
C645 H615 0.950 . S
C645 C640 1.363 . S
C645 C644 1.415 . S
H646 C643 0.999 . S
H647 C628 0.913 . S
H648 C666 0.951 . S
H649 C668 0.951 . S
H650 C670 0.950 . S
H651 C671 0.950 . S
H652 C673 0.950 . S
H653 C676 0.950 . S
H654 C677 0.950 . S
H655 C679 0.950 . S
H656 C680 1.005 . S
H657 C681 0.951 . S
H658 C683 0.951 . S
H659 C685 0.950 . S
H660 C686 0.950 . S
H661 C688 0.950 . S
H662 C691 0.950 . S
H663 C692 0.950 . S
H664 C694 0.950 . S
H665 C695 1.006 . S
C666 H648 0.951 . S
C666 C667 1.366 . S
C666 C668 1.388 . S
C667 C666 1.366 . S
C667 C671 1.385 . S
C668 H649 0.951 . S
C668 C666 1.388 . S
C668 C669 1.366 . S
C669 C668 1.366 . S
C669 C670 1.414 . S
C669 C672 1.499 . S
C670 H650 0.950 . S
C670 C669 1.414 . S
C670 C671 1.374 . S
C671 H651 0.950 . S
C671 C667 1.385 . S
C671 C670 1.374 . S
C672 C669 1.499 . S
C672 C673 1.373 . S
C672 C674 1.389 . S
C673 H652 0.950 . S
C673 C672 1.373 . S
C673 C689 1.377 1_455 S
C674 C672 1.389 . S
C674 C675 1.524 . S
C674 C688 1.377 1_455 S
C675 C674 1.524 . S
C675 C676 1.397 . S
C675 C680 1.363 . S
C676 H653 0.950 . S
C676 C675 1.397 . S
C676 C677 1.334 . S
C677 H654 0.950 . S
C677 C676 1.334 . S
C677 C678 1.287 . S
C678 C677 1.287 . S
C678 C679 1.524 . S
C678 H697 0.913 . S
C679 H655 0.950 . S
C679 C678 1.524 . S
C679 C680 1.415 . S
C680 H656 1.005 . S
C680 C675 1.363 . S
C680 C679 1.415 . S
C681 H657 0.951 . S
C681 C682 1.366 . S
C681 C683 1.388 . S
C682 C681 1.366 . S
C682 C686 1.385 . S
C683 H658 0.951 . S
C683 C681 1.388 . S
C683 C684 1.366 . S
C684 C683 1.366 . S
C684 C685 1.414 . S
C684 C687 1.499 . S
C685 H659 0.950 . S
C685 C684 1.414 . S
C685 C686 1.374 . S
C686 H660 0.950 . S
C686 C682 1.385 . S
C686 C685 1.374 . S
C687 C684 1.499 . S
C687 C688 1.373 . S
C687 C689 1.389 . S
C688 H661 0.950 . S
C688 C674 1.377 1_655 S
C688 C687 1.373 . S
C689 C673 1.377 1_655 S
C689 C687 1.389 . S
C689 C690 1.524 . S
C690 C689 1.524 . S
C690 C691 1.397 . S
C690 C695 1.363 . S
C691 H662 0.950 . S
C691 C690 1.397 . S
C691 C692 1.334 . S
C692 H663 0.950 . S
C692 C691 1.334 . S
C692 C693 1.287 . S
C693 C692 1.287 . S
C693 C694 1.524 . S
C693 H696 0.999 . S
C694 H664 0.950 . S
C694 C693 1.524 . S
C694 C695 1.415 . S
C695 H665 1.006 . S
C695 C690 1.363 . S
C695 C694 1.415 . S
H696 C693 0.999 . S
H697 C678 0.913 . S
H698 C716 0.951 . S
H699 C718 0.951 . S
H700 C720 0.950 . S
H701 C721 0.950 . S
H702 C723 0.950 . S
H703 C726 0.950 . S
H704 C727 0.950 . S
H705 C729 0.950 . S
H706 C730 0.950 . S
H707 C731 0.951 . S
H708 C733 0.951 . S
H709 C735 0.950 . S
H710 C736 0.950 . S
H711 C738 0.950 . S
H712 C741 0.950 . S
H713 C742 0.950 . S
H714 C744 0.950 . S
H715 C745 0.950 . S
C716 H698 0.951 . S
C716 C717 1.366 . S
C716 C718 1.388 . S
C717 C716 1.366 . S
C717 C721 1.385 . S
C718 H699 0.951 . S
C718 C716 1.388 . S
C718 C719 1.366 . S
C719 C718 1.366 . S
C719 C720 1.414 . S
C719 C722 1.499 . S
C720 H700 0.950 . S
C720 C719 1.414 . S
C720 C721 1.374 . S
C721 H701 0.950 . S
C721 C717 1.385 . S
C721 C720 1.374 . S
C722 C719 1.499 . S
C722 C723 1.373 . S
C722 C724 1.389 . S
C723 H702 0.950 . S
C723 C722 1.373 . S
C723 C739 1.377 . S
C724 C722 1.389 . S
C724 C725 1.524 . S
C724 C738 1.377 . S
C725 C724 1.524 . S
C725 C726 1.397 . S
C725 C730 1.363 . S
C726 H703 0.950 . S
C726 C725 1.397 . S
C726 C727 1.334 . S
C727 H704 0.950 . S
C727 C726 1.334 . S
C727 C728 1.287 . S
C728 C727 1.287 . S
C728 C729 1.524 . S
C728 H747 0.913 . S
C729 H705 0.950 . S
C729 C728 1.524 . S
C729 C730 1.415 . S
C730 H706 0.950 . S
C730 C725 1.363 . S
C730 C729 1.415 . S
C731 H707 0.951 . S
C731 C732 1.366 . S
C731 C733 1.388 . S
C732 C731 1.366 . S
C732 C736 1.385 . S
C733 H708 0.951 . S
C733 C731 1.388 . S
C733 C734 1.366 . S
C734 C733 1.366 . S
C734 C735 1.414 . S
C734 C737 1.499 . S
C735 H709 0.950 . S
C735 C734 1.414 . S
C735 C736 1.374 . S
C736 H710 0.950 . S
C736 C732 1.385 . S
C736 C735 1.374 . S
C737 C734 1.499 . S
C737 C738 1.373 . S
C737 C739 1.389 . S
C738 H711 0.950 . S
C738 C724 1.377 . S
C738 C737 1.373 . S
C739 C723 1.377 . S
C739 C737 1.389 . S
C739 C740 1.524 . S
C740 C739 1.524 . S
C740 C741 1.397 . S
C740 C745 1.363 . S
C741 H712 0.950 . S
C741 C740 1.397 . S
C741 C742 1.334 . S
C742 H713 0.950 . S
C742 C741 1.334 . S
C742 C743 1.287 . S
C743 C742 1.287 . S
C743 C744 1.524 . S
C743 H746 0.999 . S
C744 H714 0.950 . S
C744 C743 1.524 . S
C744 C745 1.415 . S
C745 H715 0.950 . S
C745 C740 1.363 . S
C745 C744 1.415 . S
H746 C743 0.999 . S
H747 C728 0.913 . S
H748 C766 0.951 . S
H749 C768 0.951 . S
H750 C770 0.950 . S
H751 C771 0.950 . S
H752 C773 0.950 . S
H753 C776 0.950 . S
H754 C777 0.950 . S
H755 C779 0.950 . S
H756 C780 0.950 . S
H757 C781 0.951 . S
H758 C783 0.951 . S
H759 C785 0.950 . S
H760 C786 0.950 . S
H761 C788 0.950 . S
H762 C791 0.950 1_556 S
H763 C792 0.950 . S
H764 C794 0.950 . S
H765 C795 0.950 . S
C766 H748 0.951 . S
C766 C767 1.366 . S
C766 C768 1.388 . S
C767 C766 1.366 . S
C767 C771 1.385 . S
C768 H749 0.951 . S
C768 C766 1.388 . S
C768 C769 1.366 . S
C769 C768 1.366 . S
C769 C770 1.414 . S
C769 C772 1.499 . S
C770 H750 0.950 . S
C770 C769 1.414 . S
C770 C771 1.374 . S
C771 H751 0.950 . S
C771 C767 1.385 . S
C771 C770 1.374 . S
C772 C769 1.499 . S
C772 C773 1.373 . S
C772 C774 1.389 . S
C773 H752 0.950 . S
C773 C772 1.373 . S
C773 C789 1.377 . S
C774 C772 1.389 . S
C774 C775 1.524 . S
C774 C788 1.377 . S
C775 C774 1.524 . S
C775 C776 1.397 . S
C775 C780 1.363 . S
C776 H753 0.950 . S
C776 C775 1.397 . S
C776 C777 1.334 . S
C777 H754 0.950 . S
C777 C776 1.334 . S
C777 C778 1.287 . S
C778 C777 1.287 . S
C778 C779 1.524 . S
C778 H797 0.913 . S
C779 H755 0.950 . S
C779 C778 1.524 . S
C779 C780 1.415 . S
C780 H756 0.950 . S
C780 C775 1.363 . S
C780 C779 1.415 . S
C781 H757 0.951 . S
C781 C782 1.366 . S
C781 C783 1.388 . S
C782 C781 1.366 . S
C782 C786 1.385 . S
C783 H758 0.951 . S
C783 C781 1.388 . S
C783 C784 1.366 . S
C784 C783 1.366 . S
C784 C785 1.414 . S
C784 C787 1.499 . S
C785 H759 0.950 . S
C785 C784 1.414 . S
C785 C786 1.374 . S
C786 H760 0.950 . S
C786 C782 1.385 . S
C786 C785 1.374 . S
C787 C784 1.499 . S
C787 C788 1.373 . S
C787 C789 1.389 . S
C788 H761 0.950 . S
C788 C774 1.377 . S
C788 C787 1.373 . S
C789 C773 1.377 . S
C789 C787 1.389 . S
C789 C790 1.524 . S
C790 C789 1.524 . S
C790 C791 1.397 . S
C790 C795 1.363 . S
C791 H762 0.950 1_554 S
C791 C790 1.397 . S
C791 C792 1.334 1_554 S
C792 H763 0.950 . S
C792 C791 1.334 1_556 S
C792 C793 1.287 . S
C793 C792 1.287 . S
C793 C794 1.524 1_556 S
C793 H796 0.999 . S
C794 H764 0.950 . S
C794 C793 1.524 1_554 S
C794 C795 1.415 . S
C795 H765 0.950 . S
C795 C790 1.363 . S
C795 C794 1.415 . S
H796 C793 0.999 . S
H797 C778 0.913 . S
H798 C816 0.951 . S
H799 C818 0.951 . S
H800 C820 0.950 . S
H801 C821 0.950 . S
H802 C823 0.950 . S
H803 C826 0.950 . S
H804 C827 0.950 . S
H805 C829 0.950 . S
H806 C830 0.950 . S
H807 C831 0.951 . S
H808 C833 0.951 . S
H809 C835 0.950 . S
H810 C836 0.950 . S
H811 C838 0.950 . S
H812 C841 0.950 . S
H813 C842 0.950 . S
H814 C844 0.950 . S
H815 C845 0.950 . S
C816 H798 0.951 . S
C816 C817 1.366 . S
C816 C818 1.388 . S
C817 C816 1.366 . S
C817 C821 1.385 . S
C818 H799 0.951 . S
C818 C816 1.388 . S
C818 C819 1.366 . S
C819 C818 1.366 . S
C819 C820 1.414 . S
C819 C822 1.499 . S
C820 H800 0.950 . S
C820 C819 1.414 . S
C820 C821 1.374 . S
C821 H801 0.950 . S
C821 C817 1.385 . S
C821 C820 1.374 . S
C822 C819 1.499 . S
C822 C823 1.373 . S
C822 C824 1.389 . S
C823 H802 0.950 . S
C823 C822 1.373 . S
C823 C839 1.377 . S
C824 C822 1.389 . S
C824 C825 1.524 . S
C824 C838 1.377 . S
C825 C824 1.524 . S
C825 C826 1.397 . S
C825 C830 1.363 . S
C826 H803 0.950 . S
C826 C825 1.397 . S
C826 C827 1.334 . S
C827 H804 0.950 . S
C827 C826 1.334 . S
C827 C828 1.287 . S
C828 C827 1.287 . S
C828 C829 1.524 . S
C828 H847 0.913 . S
C829 H805 0.950 . S
C829 C828 1.524 . S
C829 C830 1.415 . S
C830 H806 0.950 . S
C830 C825 1.363 . S
C830 C829 1.415 . S
C831 H807 0.951 . S
C831 C832 1.366 . S
C831 C833 1.388 . S
C832 C831 1.366 . S
C832 C836 1.385 . S
C833 H808 0.951 . S
C833 C831 1.388 . S
C833 C834 1.366 . S
C834 C833 1.366 . S
C834 C835 1.414 . S
C834 C837 1.499 . S
C835 H809 0.950 . S
C835 C834 1.414 . S
C835 C836 1.374 . S
C836 H810 0.950 . S
C836 C832 1.385 . S
C836 C835 1.374 . S
C837 C834 1.499 . S
C837 C838 1.373 . S
C837 C839 1.389 . S
C838 H811 0.950 . S
C838 C824 1.377 . S
C838 C837 1.373 . S
C839 C823 1.377 . S
C839 C837 1.389 . S
C839 C840 1.524 . S
C840 C839 1.524 . S
C840 C841 1.397 . S
C840 C845 1.363 . S
C841 H812 0.950 . S
C841 C840 1.397 . S
C841 C842 1.334 . S
C842 H813 0.950 . S
C842 C841 1.334 . S
C842 C843 1.287 . S
C843 C842 1.287 . S
C843 C844 1.524 . S
C843 H846 0.999 . S
C844 H814 0.950 . S
C844 C843 1.524 . S
C844 C845 1.415 . S
C845 H815 0.950 . S
C845 C840 1.363 . S
C845 C844 1.415 . S
H846 C843 0.999 . S
H847 C828 0.913 . S
H848 C866 0.951 . S
H849 C868 0.951 . S
H850 C870 0.950 . S
H851 C871 0.950 . S
H852 C873 0.950 . S
H853 C876 0.950 . S
H854 C877 0.950 . S
H855 C879 0.950 . S
H856 C880 0.950 . S
H857 C881 0.951 . S
H858 C883 0.951 . S
H859 C885 0.950 . S
H860 C886 0.950 . S
H861 C888 0.950 . S
H862 C891 0.950 . S
H863 C892 0.950 . S
H864 C894 0.950 . S
H865 C895 0.950 . S
C866 H848 0.951 . S
C866 C867 1.366 . S
C866 C868 1.388 . S
C867 C866 1.366 . S
C867 C871 1.385 . S
C868 H849 0.951 . S
C868 C866 1.388 . S
C868 C869 1.366 . S
C869 C868 1.366 . S
C869 C870 1.414 . S
C869 C872 1.499 . S
C870 H850 0.950 . S
C870 C869 1.414 . S
C870 C871 1.374 . S
C871 H851 0.950 . S
C871 C867 1.385 . S
C871 C870 1.374 . S
C872 C869 1.499 . S
C872 C873 1.373 . S
C872 C874 1.389 . S
C873 H852 0.950 . S
C873 C872 1.373 . S
C873 C889 1.377 . S
C874 C872 1.389 . S
C874 C875 1.524 . S
C874 C888 1.377 . S
C875 C874 1.524 . S
C875 C876 1.397 . S
C875 C880 1.363 . S
C876 H853 0.950 . S
C876 C875 1.397 . S
C876 C877 1.334 . S
C877 H854 0.950 . S
C877 C876 1.334 . S
C877 C878 1.287 . S
C878 C877 1.287 . S
C878 C879 1.524 . S
C878 H897 0.913 . S
C879 H855 0.950 . S
C879 C878 1.524 . S
C879 C880 1.415 . S
C880 H856 0.950 . S
C880 C875 1.363 . S
C880 C879 1.415 . S
C881 H857 0.951 . S
C881 C882 1.366 . S
C881 C883 1.388 . S
C882 C881 1.366 . S
C882 C886 1.385 . S
C883 H858 0.951 . S
C883 C881 1.388 . S
C883 C884 1.366 . S
C884 C883 1.366 . S
C884 C885 1.414 . S
C884 C887 1.499 . S
C885 H859 0.950 . S
C885 C884 1.414 . S
C885 C886 1.374 . S
C886 H860 0.950 . S
C886 C882 1.385 . S
C886 C885 1.374 . S
C887 C884 1.499 . S
C887 C888 1.373 . S
C887 C889 1.389 . S
C888 H861 0.950 . S
C888 C874 1.377 . S
C888 C887 1.373 . S
C889 C873 1.377 . S
C889 C887 1.389 . S
C889 C890 1.524 . S
C890 C889 1.524 . S
C890 C891 1.397 . S
C890 C895 1.363 . S
C891 H862 0.950 . S
C891 C890 1.397 . S
C891 C892 1.334 . S
C892 H863 0.950 . S
C892 C891 1.334 . S
C892 C893 1.287 . S
C893 C892 1.287 . S
C893 C894 1.524 . S
C893 H896 0.999 . S
C894 H864 0.950 . S
C894 C893 1.524 . S
C894 C895 1.415 . S
C895 H865 0.950 . S
C895 C890 1.363 . S
C895 C894 1.415 . S
H896 C893 0.999 . S
H897 C878 0.913 . S
H898 C916 0.951 . S
H899 C918 0.951 . S
H900 C920 0.950 . S
H901 C921 0.950 . S
H902 C923 0.950 . S
H903 C926 0.950 . S
H904 C927 0.950 . S
H905 C929 0.950 . S
H906 C930 0.950 . S
H907 C931 0.951 . S
H908 C933 0.951 . S
H909 C935 0.950 . S
H910 C936 0.950 . S
H911 C938 0.950 . S
H912 C941 0.950 . S
H913 C942 0.950 . S
H914 C944 0.950 . S
H915 C945 0.950 . S
C916 H898 0.951 . S
C916 C917 1.366 . S
C916 C918 1.388 . S
C917 C916 1.366 . S
C917 C921 1.385 . S
C918 H899 0.951 . S
C918 C916 1.388 . S
C918 C919 1.366 . S
C919 C918 1.366 . S
C919 C920 1.414 . S
C919 C922 1.499 . S
C920 H900 0.950 . S
C920 C919 1.414 . S
C920 C921 1.374 . S
C921 H901 0.950 . S
C921 C917 1.385 . S
C921 C920 1.374 . S
C922 C919 1.499 . S
C922 C923 1.373 . S
C922 C924 1.389 . S
C923 H902 0.950 . S
C923 C922 1.373 . S
C923 C939 1.377 . S
C924 C922 1.389 . S
C924 C925 1.524 . S
C924 C938 1.377 . S
C925 C924 1.524 . S
C925 C926 1.397 . S
C925 C930 1.363 . S
C926 H903 0.950 . S
C926 C925 1.397 . S
C926 C927 1.334 . S
C927 H904 0.950 . S
C927 C926 1.334 . S
C927 C928 1.287 . S
C928 C927 1.287 . S
C928 C929 1.524 . S
C928 H947 0.913 . S
C929 H905 0.950 . S
C929 C928 1.524 . S
C929 C930 1.415 . S
C930 H906 0.950 . S
C930 C925 1.363 . S
C930 C929 1.415 . S
C931 H907 0.951 . S
C931 C932 1.366 . S
C931 C933 1.388 . S
C932 C931 1.366 . S
C932 C936 1.385 . S
C933 H908 0.951 . S
C933 C931 1.388 . S
C933 C934 1.366 . S
C934 C933 1.366 . S
C934 C935 1.414 . S
C934 C937 1.499 . S
C935 H909 0.950 . S
C935 C934 1.414 . S
C935 C936 1.374 . S
C936 H910 0.950 . S
C936 C932 1.385 . S
C936 C935 1.374 . S
C937 C934 1.499 . S
C937 C938 1.373 . S
C937 C939 1.389 . S
C938 H911 0.950 . S
C938 C924 1.377 . S
C938 C937 1.373 . S
C939 C923 1.377 . S
C939 C937 1.389 . S
C939 C940 1.524 . S
C940 C939 1.524 . S
C940 C941 1.397 . S
C940 C945 1.363 . S
C941 H912 0.950 . S
C941 C940 1.397 . S
C941 C942 1.334 . S
C942 H913 0.950 . S
C942 C941 1.334 . S
C942 C943 1.287 . S
C943 C942 1.287 . S
C943 C944 1.524 . S
C943 H946 0.999 . S
C944 H914 0.950 . S
C944 C943 1.524 . S
C944 C945 1.415 . S
C945 H915 0.950 . S
C945 C940 1.363 . S
C945 C944 1.415 . S
H946 C943 0.999 . S
H947 C928 0.913 . S
H948 C966 0.951 . S
H949 C968 0.951 . S
H950 C970 0.950 . S
H951 C971 0.950 . S
H952 C973 0.950 . S
H953 C976 0.950 . S
H954 C977 0.950 . S
H955 C979 0.950 . S
H956 C980 0.950 . S
H957 C981 0.951 . S
H958 C983 0.951 . S
H959 C985 0.950 . S
H960 C986 0.950 . S
H961 C988 0.950 . S
H962 C991 0.950 . S
H963 C992 0.950 . S
H964 C994 0.950 . S
H965 C995 0.950 . S
C966 H948 0.951 . S
C966 C967 1.366 . S
C966 C968 1.388 . S
C967 C966 1.366 . S
C967 C971 1.385 . S
C968 H949 0.951 . S
C968 C966 1.388 . S
C968 C969 1.366 . S
C969 C968 1.366 . S
C969 C970 1.414 . S
C969 C972 1.499 . S
C970 H950 0.950 . S
C970 C969 1.414 . S
C970 C971 1.374 . S
C971 H951 0.950 . S
C971 C967 1.385 . S
C971 C970 1.374 . S
C972 C969 1.499 . S
C972 C973 1.373 . S
C972 C974 1.389 . S
C973 H952 0.950 . S
C973 C972 1.373 . S
C973 C989 1.377 . S
C974 C972 1.389 . S
C974 C975 1.524 . S
C974 C988 1.377 . S
C975 C974 1.524 . S
C975 C976 1.397 . S
C975 C980 1.363 . S
C976 H953 0.950 . S
C976 C975 1.397 . S
C976 C977 1.334 . S
C977 H954 0.950 . S
C977 C976 1.334 . S
C977 C978 1.287 . S
C978 C977 1.287 . S
C978 C979 1.524 . S
C978 H997 0.913 . S
C979 H955 0.950 . S
C979 C978 1.524 . S
C979 C980 1.415 . S
C980 H956 0.950 . S
C980 C975 1.363 . S
C980 C979 1.415 . S
C981 H957 0.951 . S
C981 C982 1.366 . S
C981 C983 1.388 . S
C982 C981 1.366 . S
C982 C986 1.385 . S
C983 H958 0.951 . S
C983 C981 1.388 . S
C983 C984 1.366 . S
C984 C983 1.366 . S
C984 C985 1.414 . S
C984 C987 1.499 . S
C985 H959 0.950 . S
C985 C984 1.414 . S
C985 C986 1.374 . S
C986 H960 0.950 . S
C986 C982 1.385 . S
C986 C985 1.374 . S
C987 C984 1.499 . S
C987 C988 1.373 . S
C987 C989 1.389 . S
C988 H961 0.950 . S
C988 C974 1.377 . S
C988 C987 1.373 . S
C989 C973 1.377 . S
C989 C987 1.389 . S
C989 C990 1.524 . S
C990 C989 1.524 . S
C990 C991 1.397 . S
C990 C995 1.363 . S
C991 H962 0.950 . S
C991 C990 1.397 . S
C991 C992 1.334 . S
C992 H963 0.950 . S
C992 C991 1.334 . S
C992 C993 1.287 . S
C993 C992 1.287 . S
C993 C994 1.524 . S
C993 H996 0.999 . S
C994 H964 0.950 . S
C994 C993 1.524 . S
C994 C995 1.415 . S
C995 H965 0.950 . S
C995 C990 1.363 . S
C995 C994 1.415 . S
H996 C993 0.999 . S
H997 C978 0.913 . S
H998 C1016 0.951 . S
H999 C1018 0.951 . S
H1000 C1020 0.950 . S
H1001 C1021 0.950 . S
H1002 C1023 0.950 . S
H1003 C1026 0.950 . S
H1004 C1027 0.950 . S
H1005 C1029 0.950 . S
H1006 C1030 0.950 . S
H1007 C1031 0.951 . S
H1008 C1033 0.951 . S
H1009 C1035 0.950 . S
H1010 C1036 0.950 . S
H1011 C1038 0.950 . S
H1012 C1041 0.950 . S
H1013 C1042 0.950 . S
H1014 C1044 0.950 . S
H1015 C1045 0.950 . S
C1016 H998 0.951 . S
C1016 C1017 1.366 . S
C1016 C1018 1.388 . S
C1017 C1016 1.366 . S
C1017 C1021 1.385 . S
C1018 H999 0.951 . S
C1018 C1016 1.388 . S
C1018 C1019 1.366 . S
C1019 C1018 1.366 . S
C1019 C1020 1.414 . S
C1019 C1022 1.499 . S
C1020 H1000 0.950 . S
C1020 C1019 1.414 . S
C1020 C1021 1.374 . S
C1021 H1001 0.950 . S
C1021 C1017 1.385 . S
C1021 C1020 1.374 . S
C1022 C1019 1.499 . S
C1022 C1023 1.373 . S
C1022 C1024 1.389 . S
C1023 H1002 0.950 . S
C1023 C1022 1.373 . S
C1023 C1039 1.377 . S
C1024 C1022 1.389 . S
C1024 C1025 1.524 . S
C1024 C1038 1.377 . S
C1025 C1024 1.524 . S
C1025 C1026 1.397 . S
C1025 C1030 1.363 . S
C1026 H1003 0.950 . S
C1026 C1025 1.397 . S
C1026 C1027 1.334 . S
C1027 H1004 0.950 . S
C1027 C1026 1.334 . S
C1027 C1028 1.287 . S
C1028 C1027 1.287 . S
C1028 C1029 1.524 . S
C1028 H1047 0.913 . S
C1029 H1005 0.950 . S
C1029 C1028 1.524 . S
C1029 C1030 1.415 . S
C1030 H1006 0.950 . S
C1030 C1025 1.363 . S
C1030 C1029 1.415 . S
C1031 H1007 0.951 . S
C1031 C1032 1.366 . S
C1031 C1033 1.388 . S
C1032 C1031 1.366 . S
C1032 C1036 1.385 . S
C1033 H1008 0.951 . S
C1033 C1031 1.388 . S
C1033 C1034 1.366 . S
C1034 C1033 1.366 . S
C1034 C1035 1.414 . S
C1034 C1037 1.499 . S
C1035 H1009 0.950 . S
C1035 C1034 1.414 . S
C1035 C1036 1.374 . S
C1036 H1010 0.950 . S
C1036 C1032 1.385 . S
C1036 C1035 1.374 . S
C1037 C1034 1.499 . S
C1037 C1038 1.373 . S
C1037 C1039 1.389 . S
C1038 H1011 0.950 . S
C1038 C1024 1.377 . S
C1038 C1037 1.373 . S
C1039 C1023 1.377 . S
C1039 C1037 1.389 . S
C1039 C1040 1.524 . S
C1040 C1039 1.524 . S
C1040 C1041 1.397 . S
C1040 C1045 1.363 . S
C1041 H1012 0.950 . S
C1041 C1040 1.397 . S
C1041 C1042 1.334 . S
C1042 H1013 0.950 . S
C1042 C1041 1.334 . S
C1042 C1043 1.287 . S
C1043 C1042 1.287 . S
C1043 C1044 1.524 . S
C1043 H1046 0.999 . S
C1044 H1014 0.950 . S
C1044 C1043 1.524 . S
C1044 C1045 1.415 . S
C1045 H1015 0.950 . S
C1045 C1040 1.363 . S
C1045 C1044 1.415 . S
H1046 C1043 0.999 . S
H1047 C1028 0.913 . S
H1048 C1066 0.951 . S
H1049 C1068 0.951 . S
H1050 C1070 0.950 . S
H1051 C1071 0.950 . S
H1052 C1073 0.950 . S
H1053 C1076 0.950 . S
H1054 C1077 0.950 . S
H1055 C1079 0.950 . S
H1056 C1080 0.950 . S
H1057 C1081 0.951 . S
H1058 C1083 0.951 . S
H1059 C1085 0.950 . S
H1060 C1086 0.950 . S
H1061 C1088 0.950 . S
H1062 C1091 0.950 . S
H1063 C1092 0.950 . S
H1064 C1094 0.950 . S
H1065 C1095 0.950 . S
C1066 H1048 0.951 . S
C1066 C1067 1.366 1_545 S
C1066 C1068 1.388 . S
C1067 C1066 1.366 1_565 S
C1067 C1071 1.385 . S
C1068 H1049 0.951 . S
C1068 C1066 1.388 . S
C1068 C1069 1.366 1_545 S
C1069 C1068 1.366 1_565 S
C1069 C1070 1.414 . S
C1069 C1072 1.502 . S
C1070 H1050 0.950 . S
C1070 C1069 1.414 . S
C1070 C1071 1.374 . S
C1071 H1051 0.950 . S
C1071 C1067 1.385 . S
C1071 C1070 1.374 . S
C1072 C1069 1.502 . S
C1072 C1073 1.419 . S
C1072 C1074 1.342 1_565 S
C1073 H1052 0.950 . S
C1073 C1072 1.419 . S
C1073 C1089 1.377 . S
C1074 C1072 1.342 1_545 S
C1074 C1075 1.524 . S
C1074 C1088 1.377 . S
C1075 C1074 1.524 . S
C1075 C1076 1.397 . S
C1075 C1080 1.363 . S
C1076 H1053 0.950 . S
C1076 C1075 1.397 . S
C1076 C1077 1.334 . S
C1077 H1054 0.950 . S
C1077 C1076 1.334 . S
C1077 C1078 1.287 . S
C1078 C1077 1.287 . S
C1078 C1079 1.524 . S
C1078 H1097 0.913 . S
C1079 H1055 0.950 . S
C1079 C1078 1.524 . S
C1079 C1080 1.415 . S
C1080 H1056 0.950 . S
C1080 C1075 1.363 . S
C1080 C1079 1.415 . S
C1081 H1057 0.951 . S
C1081 C1082 1.366 1_565 S
C1081 C1083 1.388 . S
C1082 C1081 1.366 1_545 S
C1082 C1086 1.385 . S
C1083 H1058 0.951 . S
C1083 C1081 1.388 . S
C1083 C1084 1.366 1_565 S
C1084 C1083 1.366 1_545 S
C1084 C1085 1.414 . S
C1084 C1087 1.502 . S
C1085 H1059 0.950 . S
C1085 C1084 1.414 . S
C1085 C1086 1.374 . S
C1086 H1060 0.950 . S
C1086 C1082 1.385 . S
C1086 C1085 1.374 . S
C1087 C1084 1.502 . S
C1087 C1088 1.418 . S
C1087 C1089 1.343 1_545 S
C1088 H1061 0.950 . S
C1088 C1074 1.377 . S
C1088 C1087 1.418 . S
C1089 C1073 1.377 . S
C1089 C1087 1.343 1_565 S
C1089 C1090 1.524 . S
C1090 C1089 1.524 . S
C1090 C1091 1.397 . S
C1090 C1095 1.363 . S
C1091 H1062 0.950 . S
C1091 C1090 1.397 . S
C1091 C1092 1.334 . S
C1092 H1063 0.950 . S
C1092 C1091 1.334 . S
C1092 C1093 1.287 . S
C1093 C1092 1.287 . S
C1093 C1094 1.524 . S
C1093 H1096 0.999 . S
C1094 H1064 0.950 . S
C1094 C1093 1.524 . S
C1094 C1095 1.415 . S
C1095 H1065 0.950 . S
C1095 C1090 1.363 . S
C1095 C1094 1.415 . S
H1096 C1093 0.999 . S
H1097 C1078 0.913 . S
H1098 C1116 0.951 . S
H1099 C1118 0.951 . S
H1100 C1120 0.950 . S
H1101 C1121 0.950 . S
H1102 C1123 0.959 . S
H1103 C1126 0.950 . S
H1104 C1127 0.950 . S
H1105 C1129 0.950 . S
H1106 C1130 0.950 . S
H1107 C1131 0.951 . S
H1108 C1133 0.951 . S
H1109 C1135 0.950 . S
H1110 C1136 0.950 . S
H1111 C1138 0.959 . S
H1112 C1141 0.950 1_554 S
H1113 C1142 0.950 . S
H1114 C1144 0.950 . S
H1115 C1145 0.950 . S
C1116 H1098 0.951 . S
C1116 C1117 1.366 . S
C1116 C1118 1.388 . S
C1117 C1116 1.366 . S
C1117 C1121 1.385 1_565 S
C1118 H1099 0.951 . S
C1118 C1116 1.388 . S
C1118 C1119 1.366 . S
C1119 C1118 1.366 . S
C1119 C1120 1.414 1_565 S
C1119 C1122 1.498 . S
C1120 H1100 0.950 . S
C1120 C1119 1.414 1_545 S
C1120 C1121 1.374 . S
C1121 H1101 0.950 . S
C1121 C1117 1.385 1_545 S
C1121 C1120 1.374 . S
C1122 C1119 1.498 . S
C1122 C1123 1.370 1_565 S
C1122 C1124 1.387 . S
C1123 H1102 0.959 . S
C1123 C1122 1.370 1_545 S
C1123 C1139 1.376 1_655 S
C1124 C1122 1.387 . S
C1124 C1125 1.524 . S
C1124 C1138 1.376 1_655 S
C1125 C1124 1.524 . S
C1125 C1126 1.348 1_565 S
C1125 C1130 1.407 . S
C1126 H1103 0.950 . S
C1126 C1125 1.348 1_545 S
C1126 C1127 1.334 . S
C1127 H1104 0.950 . S
C1127 C1126 1.334 . S
C1127 C1128 1.287 . S
C1128 C1127 1.287 . S
C1128 C1129 1.524 1_545 S
C1128 H1147 0.913 . S
C1129 H1105 0.950 . S
C1129 C1128 1.524 1_565 S
C1129 C1130 1.415 . S
C1130 H1106 0.950 . S
C1130 C1125 1.407 . S
C1130 C1129 1.415 . S
C1131 H1107 0.951 . S
C1131 C1132 1.366 . S
C1131 C1133 1.388 . S
C1132 C1131 1.366 . S
C1132 C1136 1.385 1_545 S
C1133 H1108 0.951 . S
C1133 C1131 1.388 . S
C1133 C1134 1.366 . S
C1134 C1133 1.366 . S
C1134 C1135 1.414 1_545 S
C1134 C1137 1.498 . S
C1135 H1109 0.950 . S
C1135 C1134 1.414 1_565 S
C1135 C1136 1.374 . S
C1136 H1110 0.950 . S
C1136 C1132 1.385 1_565 S
C1136 C1135 1.374 . S
C1137 C1134 1.498 . S
C1137 C1138 1.370 1_545 S
C1137 C1139 1.387 . S
C1138 H1111 0.959 . S
C1138 C1124 1.376 1_455 S
C1138 C1137 1.370 1_565 S
C1139 C1123 1.376 1_455 S
C1139 C1137 1.387 . S
C1139 C1140 1.524 1_554 S
C1140 C1139 1.524 1_556 S
C1140 C1141 1.346 1_545 S
C1140 C1145 1.409 . S
C1141 H1112 0.950 1_556 S
C1141 C1140 1.346 1_565 S
C1141 C1142 1.334 . S
C1142 H1113 0.950 . S
C1142 C1141 1.334 . S
C1142 C1143 1.287 . S
C1143 C1142 1.287 . S
C1143 C1144 1.524 1_565 S
C1143 H1146 0.999 . S
C1144 H1114 0.950 . S
C1144 C1143 1.524 1_545 S
C1144 C1145 1.415 . S
C1145 H1115 0.950 . S
C1145 C1140 1.409 . S
C1145 C1144 1.415 . S
H1146 C1143 0.999 . S
H1147 C1128 0.913 . S
H1148 C1166 0.951 . S
H1149 C1168 0.951 . S
H1150 C1170 0.950 . S
H1151 C1171 0.950 . S
H1152 C1173 0.955 . S
H1153 C1176 0.950 1_554 S
H1154 C1177 0.950 . S
H1155 C1179 0.950 . S
H1156 C1180 0.950 . S
H1157 C1181 0.951 . S
H1158 C1183 0.951 . S
H1159 C1185 0.950 . S
H1160 C1186 0.950 . S
H1161 C1188 0.955 . S
H1162 C1191 0.950 . S
H1163 C1192 0.950 . S
H1164 C1194 0.950 . S
H1165 C1195 0.950 . S
C1166 H1148 0.951 . S
C1166 C1167 1.366 . S
C1166 C1168 1.388 . S
C1167 C1166 1.366 . S
C1167 C1171 1.385 1_565 S
C1168 H1149 0.951 . S
C1168 C1166 1.388 . S
C1168 C1169 1.366 . S
C1169 C1168 1.366 . S
C1169 C1170 1.414 1_565 S
C1169 C1172 1.498 . S
C1170 H1150 0.950 . S
C1170 C1169 1.414 1_545 S
C1170 C1171 1.374 . S
C1171 H1151 0.950 . S
C1171 C1167 1.385 1_545 S
C1171 C1170 1.374 . S
C1172 C1169 1.498 . S
C1172 C1173 1.371 . S
C1172 C1174 1.387 1_565 S
C1173 H1152 0.955 . S
C1173 C1172 1.371 . S
C1173 C1189 1.376 . S
C1174 C1172 1.387 1_545 S
C1174 C1175 1.535 1_554 S
C1174 C1188 1.376 . S
C1175 C1174 1.535 1_556 S
C1175 C1176 1.397 . S
C1175 C1180 1.363 1_545 S
C1176 H1153 0.950 1_556 S
C1176 C1175 1.397 . S
C1176 C1177 1.334 . S
C1177 H1154 0.950 . S
C1177 C1176 1.334 . S
C1177 C1178 1.287 . S
C1178 C1177 1.287 . S
C1178 C1179 1.524 1_545 S
C1178 H1197 0.913 . S
C1179 H1155 0.950 . S
C1179 C1178 1.524 1_565 S
C1179 C1180 1.415 . S
C1180 H1156 0.950 . S
C1180 C1175 1.363 1_565 S
C1180 C1179 1.415 . S
C1181 H1157 0.951 . S
C1181 C1182 1.366 . S
C1181 C1183 1.388 . S
C1182 C1181 1.366 . S
C1182 C1186 1.385 1_545 S
C1183 H1158 0.951 . S
C1183 C1181 1.388 . S
C1183 C1184 1.366 . S
C1184 C1183 1.366 . S
C1184 C1185 1.414 1_545 S
C1184 C1187 1.499 1_545 S
C1185 H1159 0.950 . S
C1185 C1184 1.414 1_565 S
C1185 C1186 1.374 . S
C1186 H1160 0.950 . S
C1186 C1182 1.385 1_565 S
C1186 C1185 1.374 . S
C1187 C1184 1.499 1_565 S
C1187 C1188 1.372 1_565 S
C1187 C1189 1.387 . S
C1188 H1161 0.955 . S
C1188 C1174 1.376 . S
C1188 C1187 1.372 1_545 S
C1189 C1173 1.376 . S
C1189 C1187 1.387 . S
C1189 C1190 1.535 . S
C1190 C1189 1.535 . S
C1190 C1191 1.397 . S
C1190 C1195 1.363 1_565 S
C1191 H1162 0.950 . S
C1191 C1190 1.397 . S
C1191 C1192 1.334 . S
C1192 H1163 0.950 . S
C1192 C1191 1.334 . S
C1192 C1193 1.287 . S
C1193 C1192 1.287 . S
C1193 C1194 1.524 1_565 S
C1193 H1196 0.999 . S
C1194 H1164 0.950 . S
C1194 C1193 1.524 1_545 S
C1194 C1195 1.415 . S
C1195 H1165 0.950 . S
C1195 C1190 1.363 1_545 S
C1195 C1194 1.415 . S
H1196 C1193 0.999 . S
H1197 C1178 0.913 . S
H1198 C1216 0.951 . S
H1199 C1218 0.951 . S
H1200 C1220 0.950 . S
H1201 C1221 0.950 . S
H1202 C1223 0.950 . S
H1203 C1226 0.950 . S
H1204 C1227 0.950 . S
H1205 C1229 0.950 . S
H1206 C1230 0.950 . S
H1207 C1231 0.951 . S
H1208 C1233 0.951 . S
H1209 C1235 0.950 . S
H1210 C1236 0.950 . S
H1211 C1238 0.950 . S
H1212 C1241 0.950 . S
H1213 C1242 0.950 . S
H1214 C1244 0.950 . S
H1215 C1245 0.950 . S
C1216 H1198 0.951 . S
C1216 C1217 1.366 1_545 S
C1216 C1218 1.388 . S
C1217 C1216 1.366 1_565 S
C1217 C1221 1.385 . S
C1218 H1199 0.951 . S
C1218 C1216 1.388 . S
C1218 C1219 1.366 1_545 S
C1219 C1218 1.366 1_565 S
C1219 C1220 1.414 . S
C1219 C1222 1.501 . S
C1220 H1200 0.950 . S
C1220 C1219 1.414 . S
C1220 C1221 1.374 . S
C1221 H1201 0.950 . S
C1221 C1217 1.385 . S
C1221 C1220 1.374 . S
C1222 C1219 1.501 . S
C1222 C1223 1.402 . S
C1222 C1224 1.360 1_565 S
C1223 H1202 0.950 . S
C1223 C1222 1.402 . S
C1223 C1239 1.377 1_455 S
C1224 C1222 1.360 1_545 S
C1224 C1225 1.524 . S
C1224 C1238 1.377 1_455 S
C1225 C1224 1.524 . S
C1225 C1226 1.397 . S
C1225 C1230 1.363 . S
C1226 H1203 0.950 . S
C1226 C1225 1.397 . S
C1226 C1227 1.334 . S
C1227 H1204 0.950 . S
C1227 C1226 1.334 . S
C1227 C1228 1.287 . S
C1228 C1227 1.287 . S
C1228 C1229 1.524 . S
C1228 H1247 0.913 . S
C1229 H1205 0.950 . S
C1229 C1228 1.524 . S
C1229 C1230 1.415 . S
C1230 H1206 0.950 . S
C1230 C1225 1.363 . S
C1230 C1229 1.415 . S
C1231 H1207 0.951 . S
C1231 C1232 1.366 1_565 S
C1231 C1233 1.388 . S
C1232 C1231 1.366 1_545 S
C1232 C1236 1.385 . S
C1233 H1208 0.951 . S
C1233 C1231 1.388 . S
C1233 C1234 1.366 1_565 S
C1234 C1233 1.366 1_545 S
C1234 C1235 1.414 . S
C1234 C1237 1.501 . S
C1235 H1209 0.950 . S
C1235 C1234 1.414 . S
C1235 C1236 1.374 . S
C1236 H1210 0.950 . S
C1236 C1232 1.385 . S
C1236 C1235 1.374 . S
C1237 C1234 1.501 . S
C1237 C1238 1.403 . S
C1237 C1239 1.359 1_545 S
C1238 H1211 0.950 . S
C1238 C1224 1.377 1_655 S
C1238 C1237 1.403 . S
C1239 C1223 1.377 1_655 S
C1239 C1237 1.359 1_565 S
C1239 C1240 1.524 . S
C1240 C1239 1.524 . S
C1240 C1241 1.397 . S
C1240 C1245 1.363 . S
C1241 H1212 0.950 . S
C1241 C1240 1.397 . S
C1241 C1242 1.334 . S
C1242 H1213 0.950 . S
C1242 C1241 1.334 . S
C1242 C1243 1.287 . S
C1243 C1242 1.287 . S
C1243 C1244 1.524 . S
C1243 H1246 0.999 . S
C1244 H1214 0.950 . S
C1244 C1243 1.524 . S
C1244 C1245 1.415 . S
C1245 H1215 0.950 . S
C1245 C1240 1.363 . S
C1245 C1244 1.415 . S
H1246 C1243 0.999 . S
H1247 C1228 0.913 . S
H1248 C1266 0.951 . S
H1249 C1268 0.951 . S
H1250 C1270 0.950 . S
H1251 C1271 0.950 . S
H1252 C1273 0.950 . S
H1253 C1276 0.950 . S
H1254 C1277 0.950 . S
H1255 C1279 0.950 . S
H1256 C1280 0.950 . S
H1257 C1281 0.951 . S
H1258 C1283 0.951 . S
H1259 C1285 0.950 . S
H1260 C1286 0.950 . S
H1261 C1288 0.950 . S
H1262 C1291 0.950 . S
H1263 C1292 0.950 . S
H1264 C1294 0.950 . S
H1265 C1295 0.950 . S
C1266 H1248 0.951 . S
C1266 C1267 1.366 . S
C1266 C1268 1.388 . S
C1267 C1266 1.366 . S
C1267 C1271 1.385 . S
C1268 H1249 0.951 . S
C1268 C1266 1.388 . S
C1268 C1269 1.366 . S
C1269 C1268 1.366 . S
C1269 C1270 1.414 . S
C1269 C1272 1.499 . S
C1270 H1250 0.950 . S
C1270 C1269 1.414 . S
C1270 C1271 1.374 . S
C1271 H1251 0.950 . S
C1271 C1267 1.385 . S
C1271 C1270 1.374 . S
C1272 C1269 1.499 . S
C1272 C1273 1.373 . S
C1272 C1274 1.389 . S
C1273 H1252 0.950 . S
C1273 C1272 1.373 . S
C1273 C1289 1.377 . S
C1274 C1272 1.389 . S
C1274 C1275 1.524 . S
C1274 C1288 1.377 . S
C1275 C1274 1.524 . S
C1275 C1276 1.397 . S
C1275 C1280 1.363 . S
C1276 H1253 0.950 . S
C1276 C1275 1.397 . S
C1276 C1277 1.334 . S
C1277 H1254 0.950 . S
C1277 C1276 1.334 . S
C1277 C1278 1.287 . S
C1278 C1277 1.287 . S
C1278 C1279 1.524 . S
C1278 H1297 0.913 . S
C1279 H1255 0.950 . S
C1279 C1278 1.524 . S
C1279 C1280 1.415 . S
C1280 H1256 0.950 . S
C1280 C1275 1.363 . S
C1280 C1279 1.415 . S
C1281 H1257 0.951 . S
C1281 C1282 1.366 . S
C1281 C1283 1.388 . S
C1282 C1281 1.366 . S
C1282 C1286 1.385 . S
C1283 H1258 0.951 . S
C1283 C1281 1.388 . S
C1283 C1284 1.366 . S
C1284 C1283 1.366 . S
C1284 C1285 1.414 . S
C1284 C1287 1.499 . S
C1285 H1259 0.950 . S
C1285 C1284 1.414 . S
C1285 C1286 1.374 . S
C1286 H1260 0.950 . S
C1286 C1282 1.385 . S
C1286 C1285 1.374 . S
C1287 C1284 1.499 . S
C1287 C1288 1.373 . S
C1287 C1289 1.389 . S
C1288 H1261 0.950 . S
C1288 C1274 1.377 . S
C1288 C1287 1.373 . S
C1289 C1273 1.377 . S
C1289 C1287 1.389 . S
C1289 C1290 1.524 . S
C1290 C1289 1.524 . S
C1290 C1291 1.397 . S
C1290 C1295 1.363 . S
C1291 H1262 0.950 . S
C1291 C1290 1.397 . S
C1291 C1292 1.334 . S
C1292 H1263 0.950 . S
C1292 C1291 1.334 . S
C1292 C1293 1.287 . S
C1293 C1292 1.287 . S
C1293 C1294 1.524 . S
C1293 H1296 0.999 . S
C1294 H1264 0.950 . S
C1294 C1293 1.524 . S
C1294 C1295 1.415 . S
C1295 H1265 0.950 . S
C1295 C1290 1.363 . S
C1295 C1294 1.415 . S
H1296 C1293 0.999 . S
H1297 C1278 0.913 . S
H1298 C1316 0.951 . S
H1299 C1318 0.951 . S
H1300 C1320 0.950 . S
H1301 C1321 0.950 . S
H1302 C1323 0.950 . S
H1303 C1326 0.954 . S
H1304 C1327 0.950 . S
H1305 C1329 0.950 . S
H1306 C1330 0.950 . S
H1307 C1331 0.951 . S
H1308 C1333 0.951 . S
H1309 C1335 0.950 . S
H1310 C1336 0.950 . S
H1311 C1338 0.950 . S
H1312 C1341 0.950 . S
H1313 C1342 0.950 . S
H1314 C1344 0.950 . S
H1315 C1345 0.950 . S
C1316 H1298 0.951 . S
C1316 C1317 1.366 . S
C1316 C1318 1.388 . S
C1317 C1316 1.366 . S
C1317 C1321 1.385 . S
C1318 H1299 0.951 . S
C1318 C1316 1.388 . S
C1318 C1319 1.366 . S
C1319 C1318 1.366 . S
C1319 C1320 1.414 . S
C1319 C1322 1.499 1_556 S
C1320 H1300 0.950 . S
C1320 C1319 1.414 . S
C1320 C1321 1.374 . S
C1321 H1301 0.950 . S
C1321 C1317 1.385 . S
C1321 C1320 1.374 . S
C1322 C1319 1.499 1_554 S
C1322 C1323 1.373 . S
C1322 C1324 1.389 . S
C1323 H1302 0.950 . S
C1323 C1322 1.373 . S
C1323 C1339 1.377 . S
C1324 C1322 1.389 . S
C1324 C1325 1.524 . S
C1324 C1338 1.377 . S
C1325 C1324 1.524 . S
C1325 C1326 1.377 1_554 S
C1325 C1330 1.363 . S
C1326 H1303 0.954 . S
C1326 C1325 1.377 1_556 S
C1326 C1327 1.350 . S
C1327 H1304 0.950 . S
C1327 C1326 1.350 . S
C1327 C1328 1.287 . S
C1328 C1327 1.287 . S
C1328 C1329 1.524 1_556 S
C1328 H1347 0.913 . S
C1329 H1305 0.950 . S
C1329 C1328 1.524 1_554 S
C1329 C1330 1.415 . S
C1330 H1306 0.950 . S
C1330 C1325 1.363 . S
C1330 C1329 1.415 . S
C1331 H1307 0.951 . S
C1331 C1332 1.366 . S
C1331 C1333 1.388 . S
C1332 C1331 1.366 . S
C1332 C1336 1.385 . S
C1333 H1308 0.951 . S
C1333 C1331 1.388 . S
C1333 C1334 1.366 . S
C1334 C1333 1.366 . S
C1334 C1335 1.414 . S
C1334 C1337 1.499 . S
C1335 H1309 0.950 . S
C1335 C1334 1.414 . S
C1335 C1336 1.374 . S
C1336 H1310 0.950 . S
C1336 C1332 1.385 . S
C1336 C1335 1.374 . S
C1337 C1334 1.499 . S
C1337 C1338 1.373 . S
C1337 C1339 1.389 . S
C1338 H1311 0.950 . S
C1338 C1324 1.377 . S
C1338 C1337 1.373 . S
C1339 C1323 1.377 . S
C1339 C1337 1.389 . S
C1339 C1340 1.524 . S
C1340 C1339 1.524 . S
C1340 C1341 1.397 . S
C1340 C1345 1.363 . S
C1341 H1312 0.950 . S
C1341 C1340 1.397 . S
C1341 C1342 1.334 . S
C1342 H1313 0.950 . S
C1342 C1341 1.334 . S
C1342 C1343 1.287 . S
C1343 C1342 1.287 . S
C1343 C1344 1.524 . S
C1343 H1346 0.999 . S
C1344 H1314 0.950 . S
C1344 C1343 1.524 . S
C1344 C1345 1.415 . S
C1345 H1315 0.950 . S
C1345 C1340 1.363 . S
C1345 C1344 1.415 . S
H1346 C1343 0.999 . S
H1347 C1328 0.913 . S
H1348 C1366 0.951 . S
H1349 C1368 0.951 . S
H1350 C1370 0.950 . S
H1351 C1371 0.950 . S
H1352 C1373 0.950 . S
H1353 C1376 0.950 . S
H1354 C1377 0.950 . S
H1355 C1379 0.950 . S
H1356 C1380 0.950 . S
H1357 C1381 0.951 . S
H1358 C1383 0.951 . S
H1359 C1385 0.950 . S
H1360 C1386 0.950 . S
H1361 C1388 0.950 . S
H1362 C1391 0.950 . S
H1363 C1392 0.950 . S
H1364 C1394 0.950 . S
H1365 C1395 0.950 . S
C1366 H1348 0.951 . S
C1366 C1367 1.366 . S
C1366 C1368 1.388 . S
C1367 C1366 1.366 . S
C1367 C1371 1.385 . S
C1368 H1349 0.951 . S
C1368 C1366 1.388 . S
C1368 C1369 1.366 . S
C1369 C1368 1.366 . S
C1369 C1370 1.414 . S
C1369 C1372 1.499 . S
C1370 H1350 0.950 . S
C1370 C1369 1.414 . S
C1370 C1371 1.374 . S
C1371 H1351 0.950 . S
C1371 C1367 1.385 . S
C1371 C1370 1.374 . S
C1372 C1369 1.499 . S
C1372 C1373 1.373 . S
C1372 C1374 1.389 . S
C1373 H1352 0.950 . S
C1373 C1372 1.373 . S
C1373 C1389 1.377 . S
C1374 C1372 1.389 . S
C1374 C1375 1.524 . S
C1374 C1388 1.377 . S
C1375 C1374 1.524 . S
C1375 C1376 1.397 . S
C1375 C1380 1.363 . S
C1376 H1353 0.950 . S
C1376 C1375 1.397 . S
C1376 C1377 1.334 . S
C1377 H1354 0.950 . S
C1377 C1376 1.334 . S
C1377 C1378 1.287 . S
C1378 C1377 1.287 . S
C1378 C1379 1.524 . S
C1378 H1397 0.913 . S
C1379 H1355 0.950 . S
C1379 C1378 1.524 . S
C1379 C1380 1.415 . S
C1380 H1356 0.950 . S
C1380 C1375 1.363 . S
C1380 C1379 1.415 . S
C1381 H1357 0.951 . S
C1381 C1382 1.366 . S
C1381 C1383 1.388 . S
C1382 C1381 1.366 . S
C1382 C1386 1.385 . S
C1383 H1358 0.951 . S
C1383 C1381 1.388 . S
C1383 C1384 1.366 . S
C1384 C1383 1.366 . S
C1384 C1385 1.414 . S
C1384 C1387 1.499 . S
C1385 H1359 0.950 . S
C1385 C1384 1.414 . S
C1385 C1386 1.374 . S
C1386 H1360 0.950 . S
C1386 C1382 1.385 . S
C1386 C1385 1.374 . S
C1387 C1384 1.499 . S
C1387 C1388 1.373 . S
C1387 C1389 1.389 . S
C1388 H1361 0.950 . S
C1388 C1374 1.377 . S
C1388 C1387 1.373 . S
C1389 C1373 1.377 . S
C1389 C1387 1.389 . S
C1389 C1390 1.524 . S
C1390 C1389 1.524 . S
C1390 C1391 1.397 . S
C1390 C1395 1.363 . S
C1391 H1362 0.950 . S
C1391 C1390 1.397 . S
C1391 C1392 1.334 . S
C1392 H1363 0.950 . S
C1392 C1391 1.334 . S
C1392 C1393 1.287 . S
C1393 C1392 1.287 . S
C1393 C1394 1.524 . S
C1393 H1396 0.999 . S
C1394 H1364 0.950 . S
C1394 C1393 1.524 . S
C1394 C1395 1.415 . S
C1395 H1365 0.950 . S
C1395 C1390 1.363 . S
C1395 C1394 1.415 . S
H1396 C1393 0.999 . S
H1397 C1378 0.913 . S
H1398 C1416 0.951 . S
H1399 C1418 0.951 . S
H1400 C1420 0.950 . S
H1401 C1421 0.950 . S
H1402 C1423 0.950 . S
H1403 C1426 0.950 . S
H1404 C1427 0.950 . S
H1405 C1429 0.950 . S
H1406 C1430 0.950 . S
H1407 C1431 0.951 . S
H1408 C1433 0.951 . S
H1409 C1435 0.950 . S
H1410 C1436 0.950 . S
H1411 C1438 0.950 . S
H1412 C1441 0.950 . S
H1413 C1442 0.950 . S
H1414 C1444 0.950 . S
H1415 C1445 0.950 . S
C1416 H1398 0.951 . S
C1416 C1417 1.366 . S
C1416 C1418 1.388 . S
C1417 C1416 1.366 . S
C1417 C1421 1.385 . S
C1418 H1399 0.951 . S
C1418 C1416 1.388 . S
C1418 C1419 1.366 . S
C1419 C1418 1.366 . S
C1419 C1420 1.414 . S
C1419 C1422 1.499 . S
C1420 H1400 0.950 . S
C1420 C1419 1.414 . S
C1420 C1421 1.374 . S
C1421 H1401 0.950 . S
C1421 C1417 1.385 . S
C1421 C1420 1.374 . S
C1422 C1419 1.499 . S
C1422 C1423 1.373 . S
C1422 C1424 1.389 . S
C1423 H1402 0.950 . S
C1423 C1422 1.373 . S
C1423 C1439 1.377 . S
C1424 C1422 1.389 . S
C1424 C1425 1.524 . S
C1424 C1438 1.377 . S
C1425 C1424 1.524 . S
C1425 C1426 1.397 . S
C1425 C1430 1.363 . S
C1426 H1403 0.950 . S
C1426 C1425 1.397 . S
C1426 C1427 1.334 . S
C1427 H1404 0.950 . S
C1427 C1426 1.334 . S
C1427 C1428 1.287 . S
C1428 C1427 1.287 . S
C1428 C1429 1.524 . S
C1428 H1447 0.913 . S
C1429 H1405 0.950 . S
C1429 C1428 1.524 . S
C1429 C1430 1.415 . S
C1430 H1406 0.950 . S
C1430 C1425 1.363 . S
C1430 C1429 1.415 . S
C1431 H1407 0.951 . S
C1431 C1432 1.366 . S
C1431 C1433 1.388 . S
C1432 C1431 1.366 . S
C1432 C1436 1.385 . S
C1433 H1408 0.951 . S
C1433 C1431 1.388 . S
C1433 C1434 1.366 . S
C1434 C1433 1.366 . S
C1434 C1435 1.414 . S
C1434 C1437 1.499 . S
C1435 H1409 0.950 . S
C1435 C1434 1.414 . S
C1435 C1436 1.374 . S
C1436 H1410 0.950 . S
C1436 C1432 1.385 . S
C1436 C1435 1.374 . S
C1437 C1434 1.499 . S
C1437 C1438 1.373 . S
C1437 C1439 1.389 . S
C1438 H1411 0.950 . S
C1438 C1424 1.377 . S
C1438 C1437 1.373 . S
C1439 C1423 1.377 . S
C1439 C1437 1.389 . S
C1439 C1440 1.524 . S
C1440 C1439 1.524 . S
C1440 C1441 1.397 . S
C1440 C1445 1.363 . S
C1441 H1412 0.950 . S
C1441 C1440 1.397 . S
C1441 C1442 1.334 . S
C1442 H1413 0.950 . S
C1442 C1441 1.334 . S
C1442 C1443 1.287 . S
C1443 C1442 1.287 . S
C1443 C1444 1.524 . S
C1443 H1446 0.999 . S
C1444 H1414 0.950 . S
C1444 C1443 1.524 . S
C1444 C1445 1.415 . S
C1445 H1415 0.950 . S
C1445 C1440 1.363 . S
C1445 C1444 1.415 . S
H1446 C1443 0.999 . S
H1447 C1428 0.913 . S
H1448 C1466 0.951 . S
H1449 C1468 0.951 . S
H1450 C1470 0.950 . S
H1451 C1471 0.950 . S
H1452 C1473 0.950 . S
H1453 C1476 0.950 . S
H1454 C1477 0.950 . S
H1455 C1479 0.950 . S
H1456 C1480 0.950 . S
H1457 C1481 0.951 . S
H1458 C1483 0.951 . S
H1459 C1485 0.950 . S
H1460 C1486 0.950 . S
H1461 C1488 0.950 . S
H1462 C1491 0.950 . S
H1463 C1492 0.950 . S
H1464 C1494 0.950 . S
H1465 C1495 0.950 . S
C1466 H1448 0.951 . S
C1466 C1467 1.366 . S
C1466 C1468 1.388 . S
C1467 C1466 1.366 . S
C1467 C1471 1.385 . S
C1468 H1449 0.951 . S
C1468 C1466 1.388 . S
C1468 C1469 1.366 . S
C1469 C1468 1.366 . S
C1469 C1470 1.414 . S
C1469 C1472 1.499 . S
C1470 H1450 0.950 . S
C1470 C1469 1.414 . S
C1470 C1471 1.374 . S
C1471 H1451 0.950 . S
C1471 C1467 1.385 . S
C1471 C1470 1.374 . S
C1472 C1469 1.499 . S
C1472 C1473 1.373 . S
C1472 C1474 1.389 . S
C1473 H1452 0.950 . S
C1473 C1472 1.373 . S
C1473 C1489 1.377 . S
C1474 C1472 1.389 . S
C1474 C1475 1.524 . S
C1474 C1488 1.377 . S
C1475 C1474 1.524 . S
C1475 C1476 1.397 . S
C1475 C1480 1.363 . S
C1476 H1453 0.950 . S
C1476 C1475 1.397 . S
C1476 C1477 1.334 . S
C1477 H1454 0.950 . S
C1477 C1476 1.334 . S
C1477 C1478 1.287 . S
C1478 C1477 1.287 . S
C1478 C1479 1.524 . S
C1478 H1497 0.913 . S
C1479 H1455 0.950 . S
C1479 C1478 1.524 . S
C1479 C1480 1.415 . S
C1480 H1456 0.950 . S
C1480 C1475 1.363 . S
C1480 C1479 1.415 . S
C1481 H1457 0.951 . S
C1481 C1482 1.366 . S
C1481 C1483 1.388 . S
C1482 C1481 1.366 . S
C1482 C1486 1.385 . S
C1483 H1458 0.951 . S
C1483 C1481 1.388 . S
C1483 C1484 1.366 . S
C1484 C1483 1.366 . S
C1484 C1485 1.414 . S
C1484 C1487 1.499 . S
C1485 H1459 0.950 . S
C1485 C1484 1.414 . S
C1485 C1486 1.374 . S
C1486 H1460 0.950 . S
C1486 C1482 1.385 . S
C1486 C1485 1.374 . S
C1487 C1484 1.499 . S
C1487 C1488 1.373 . S
C1487 C1489 1.389 . S
C1488 H1461 0.950 . S
C1488 C1474 1.377 . S
C1488 C1487 1.373 . S
C1489 C1473 1.377 . S
C1489 C1487 1.389 . S
C1489 C1490 1.524 . S
C1490 C1489 1.524 . S
C1490 C1491 1.397 . S
C1490 C1495 1.363 . S
C1491 H1462 0.950 . S
C1491 C1490 1.397 . S
C1491 C1492 1.334 . S
C1492 H1463 0.950 . S
C1492 C1491 1.334 . S
C1492 C1493 1.287 . S
C1493 C1492 1.287 . S
C1493 C1494 1.524 . S
C1493 H1496 0.999 . S
C1494 H1464 0.950 . S
C1494 C1493 1.524 . S
C1494 C1495 1.415 . S
C1495 H1465 0.950 . S
C1495 C1490 1.363 . S
C1495 C1494 1.415 . S
H1496 C1493 0.999 . S
H1497 C1478 0.913 . S
H1498 C1516 0.951 . S
H1499 C1518 0.951 . S
H1500 C1520 0.950 . S
H1501 C1521 0.950 . S
H1502 C1523 0.950 . S
H1503 C1526 0.950 . S
H1504 C1527 0.950 1_556 S
H1505 C1529 0.950 . S
H1506 C1530 0.950 . S
H1507 C1531 0.951 . S
H1508 C1533 0.951 . S
H1509 C1535 0.950 . S
H1510 C1536 0.950 . S
H1511 C1538 0.950 . S
H1512 C1541 0.950 . S
H1513 C1542 0.950 . S
H1514 C1544 0.950 . S
H1515 C1545 0.950 . S
C1516 H1498 0.951 . S
C1516 C1517 1.366 . S
C1516 C1518 1.388 . S
C1517 C1516 1.366 . S
C1517 C1521 1.385 . S
C1518 H1499 0.951 . S
C1518 C1516 1.388 . S
C1518 C1519 1.366 . S
C1519 C1518 1.366 . S
C1519 C1520 1.414 . S
C1519 C1522 1.499 1_556 S
C1520 H1500 0.950 . S
C1520 C1519 1.414 . S
C1520 C1521 1.374 . S
C1521 H1501 0.950 . S
C1521 C1517 1.385 . S
C1521 C1520 1.374 . S
C1522 C1519 1.499 1_554 S
C1522 C1523 1.373 . S
C1522 C1524 1.389 . S
C1523 H1502 0.950 . S
C1523 C1522 1.373 . S
C1523 C1539 1.377 . S
C1524 C1522 1.389 . S
C1524 C1525 1.524 . S
C1524 C1538 1.377 . S
C1525 C1524 1.524 . S
C1525 C1526 1.397 . S
C1525 C1530 1.363 . S
C1526 H1503 0.950 . S
C1526 C1525 1.397 . S
C1526 C1527 1.334 . S
C1527 H1504 0.950 1_554 S
C1527 C1526 1.334 . S
C1527 C1528 1.287 . S
C1528 C1527 1.287 . S
C1528 C1529 1.524 . S
C1528 H1547 0.913 . S
C1529 H1505 0.950 . S
C1529 C1528 1.524 . S
C1529 C1530 1.415 . S
C1530 H1506 0.950 . S
C1530 C1525 1.363 . S
C1530 C1529 1.415 . S
C1531 H1507 0.951 . S
C1531 C1532 1.366 . S
C1531 C1533 1.388 . S
C1532 C1531 1.366 . S
C1532 C1536 1.385 . S
C1533 H1508 0.951 . S
C1533 C1531 1.388 . S
C1533 C1534 1.366 . S
C1534 C1533 1.366 . S
C1534 C1535 1.414 . S
C1534 C1537 1.499 . S
C1535 H1509 0.950 . S
C1535 C1534 1.414 . S
C1535 C1536 1.374 . S
C1536 H1510 0.950 . S
C1536 C1532 1.385 . S
C1536 C1535 1.374 . S
C1537 C1534 1.499 . S
C1537 C1538 1.373 . S
C1537 C1539 1.389 . S
C1538 H1511 0.950 . S
C1538 C1524 1.377 . S
C1538 C1537 1.373 . S
C1539 C1523 1.377 . S
C1539 C1537 1.389 . S
C1539 C1540 1.524 . S
C1540 C1539 1.524 . S
C1540 C1541 1.397 . S
C1540 C1545 1.363 . S
C1541 H1512 0.950 . S
C1541 C1540 1.397 . S
C1541 C1542 1.334 . S
C1542 H1513 0.950 . S
C1542 C1541 1.334 . S
C1542 C1543 1.287 . S
C1543 C1542 1.287 . S
C1543 C1544 1.524 . S
C1543 H1546 0.999 . S
C1544 H1514 0.950 . S
C1544 C1543 1.524 . S
C1544 C1545 1.415 . S
C1545 H1515 0.950 . S
C1545 C1540 1.363 . S
C1545 C1544 1.415 . S
H1546 C1543 0.999 . S
H1547 C1528 0.913 . S
H1548 C1566 0.951 . S
H1549 C1568 0.951 . S
H1550 C1570 0.950 . S
H1551 C1571 0.950 . S
H1552 C1573 0.950 . S
H1553 C1576 0.950 . S
H1554 C1577 0.950 . S
H1555 C1579 0.950 . S
H1556 C1580 0.950 . S
H1557 C1581 0.951 . S
H1558 C1583 0.951 . S
H1559 C1585 0.950 . S
H1560 C1586 0.950 . S
H1561 C1588 0.950 . S
H1562 C1591 0.950 . S
H1563 C1592 0.950 . S
H1564 C1594 0.950 . S
H1565 C1595 0.950 . S
C1566 H1548 0.951 . S
C1566 C1567 1.366 . S
C1566 C1568 1.388 . S
C1567 C1566 1.366 . S
C1567 C1571 1.385 . S
C1568 H1549 0.951 . S
C1568 C1566 1.388 . S
C1568 C1569 1.366 . S
C1569 C1568 1.366 . S
C1569 C1570 1.414 . S
C1569 C1572 1.499 . S
C1570 H1550 0.950 . S
C1570 C1569 1.414 . S
C1570 C1571 1.374 . S
C1571 H1551 0.950 . S
C1571 C1567 1.385 . S
C1571 C1570 1.374 . S
C1572 C1569 1.499 . S
C1572 C1573 1.373 . S
C1572 C1574 1.389 . S
C1573 H1552 0.950 . S
C1573 C1572 1.373 . S
C1573 C1589 1.377 . S
C1574 C1572 1.389 . S
C1574 C1575 1.524 . S
C1574 C1588 1.377 . S
C1575 C1574 1.524 . S
C1575 C1576 1.397 . S
C1575 C1580 1.363 . S
C1576 H1553 0.950 . S
C1576 C1575 1.397 . S
C1576 C1577 1.334 . S
C1577 H1554 0.950 . S
C1577 C1576 1.334 . S
C1577 C1578 1.287 . S
C1578 C1577 1.287 . S
C1578 C1579 1.524 . S
C1578 H1597 0.913 . S
C1579 H1555 0.950 . S
C1579 C1578 1.524 . S
C1579 C1580 1.415 . S
C1580 H1556 0.950 . S
C1580 C1575 1.363 . S
C1580 C1579 1.415 . S
C1581 H1557 0.951 . S
C1581 C1582 1.366 . S
C1581 C1583 1.388 . S
C1582 C1581 1.366 . S
C1582 C1586 1.385 . S
C1583 H1558 0.951 . S
C1583 C1581 1.388 . S
C1583 C1584 1.366 . S
C1584 C1583 1.366 . S
C1584 C1585 1.414 . S
C1584 C1587 1.499 . S
C1585 H1559 0.950 . S
C1585 C1584 1.414 . S
C1585 C1586 1.374 . S
C1586 H1560 0.950 . S
C1586 C1582 1.385 . S
C1586 C1585 1.374 . S
C1587 C1584 1.499 . S
C1587 C1588 1.373 . S
C1587 C1589 1.389 . S
C1588 H1561 0.950 . S
C1588 C1574 1.377 . S
C1588 C1587 1.373 . S
C1589 C1573 1.377 . S
C1589 C1587 1.389 . S
C1589 C1590 1.524 . S
C1590 C1589 1.524 . S
C1590 C1591 1.397 . S
C1590 C1595 1.363 . S
C1591 H1562 0.950 . S
C1591 C1590 1.397 . S
C1591 C1592 1.334 . S
C1592 H1563 0.950 . S
C1592 C1591 1.334 . S
C1592 C1593 1.287 . S
C1593 C1592 1.287 . S
C1593 C1594 1.524 . S
C1593 H1596 0.999 . S
C1594 H1564 0.950 . S
C1594 C1593 1.524 . S
C1594 C1595 1.415 . S
C1595 H1565 0.950 . S
C1595 C1590 1.363 . S
C1595 C1594 1.415 . S
H1596 C1593 0.999 . S
H1597 C1578 0.913 . S
H1598 C1616 0.951 . S
H1599 C1618 0.951 . S
H1600 C1620 0.950 . S
H1601 C1621 0.950 . S
H1602 C1623 0.950 . S
H1603 C1626 0.950 . S
H1604 C1627 0.950 . S
H1605 C1629 0.950 . S
H1606 C1630 0.950 . S
H1607 C1631 0.951 . S
H1608 C1633 0.951 . S
H1609 C1635 0.950 . S
H1610 C1636 0.950 . S
H1611 C1638 0.950 . S
H1612 C1641 0.950 . S
H1613 C1642 0.950 . S
H1614 C1644 0.950 . S
H1615 C1645 0.950 . S
C1616 H1598 0.951 . S
C1616 C1617 1.366 . S
C1616 C1618 1.388 . S
C1617 C1616 1.366 . S
C1617 C1621 1.385 . S
C1618 H1599 0.951 . S
C1618 C1616 1.388 . S
C1618 C1619 1.366 . S
C1619 C1618 1.366 . S
C1619 C1620 1.414 . S
C1619 C1622 1.499 . S
C1620 H1600 0.950 . S
C1620 C1619 1.414 . S
C1620 C1621 1.374 . S
C1621 H1601 0.950 . S
C1621 C1617 1.385 . S
C1621 C1620 1.374 . S
C1622 C1619 1.499 . S
C1622 C1623 1.373 . S
C1622 C1624 1.389 . S
C1623 H1602 0.950 . S
C1623 C1622 1.373 . S
C1623 C1639 1.377 . S
C1624 C1622 1.389 . S
C1624 C1625 1.524 . S
C1624 C1638 1.377 . S
C1625 C1624 1.524 . S
C1625 C1626 1.397 . S
C1625 C1630 1.363 . S
C1626 H1603 0.950 . S
C1626 C1625 1.397 . S
C1626 C1627 1.334 . S
C1627 H1604 0.950 . S
C1627 C1626 1.334 . S
C1627 C1628 1.287 . S
C1628 C1627 1.287 . S
C1628 C1629 1.524 . S
C1628 H1647 0.913 . S
C1629 H1605 0.950 . S
C1629 C1628 1.524 . S
C1629 C1630 1.415 . S
C1630 H1606 0.950 . S
C1630 C1625 1.363 . S
C1630 C1629 1.415 . S
C1631 H1607 0.951 . S
C1631 C1632 1.366 . S
C1631 C1633 1.388 . S
C1632 C1631 1.366 . S
C1632 C1636 1.385 . S
C1633 H1608 0.951 . S
C1633 C1631 1.388 . S
C1633 C1634 1.366 . S
C1634 C1633 1.366 . S
C1634 C1635 1.414 . S
C1634 C1637 1.499 . S
C1635 H1609 0.950 . S
C1635 C1634 1.414 . S
C1635 C1636 1.374 . S
C1636 H1610 0.950 . S
C1636 C1632 1.385 . S
C1636 C1635 1.374 . S
C1637 C1634 1.499 . S
C1637 C1638 1.373 . S
C1637 C1639 1.389 . S
C1638 H1611 0.950 . S
C1638 C1624 1.377 . S
C1638 C1637 1.373 . S
C1639 C1623 1.377 . S
C1639 C1637 1.389 . S
C1639 C1640 1.524 . S
C1640 C1639 1.524 . S
C1640 C1641 1.397 . S
C1640 C1645 1.363 . S
C1641 H1612 0.950 . S
C1641 C1640 1.397 . S
C1641 C1642 1.334 . S
C1642 H1613 0.950 . S
C1642 C1641 1.334 . S
C1642 C1643 1.287 . S
C1643 C1642 1.287 . S
C1643 C1644 1.524 . S
C1643 H1646 0.999 . S
C1644 H1614 0.950 . S
C1644 C1643 1.524 . S
C1644 C1645 1.415 . S
C1645 H1615 0.950 . S
C1645 C1640 1.363 . S
C1645 C1644 1.415 . S
H1646 C1643 0.999 . S
H1647 C1628 0.913 . S
H1648 C1666 0.951 . S
H1649 C1668 0.951 . S
H1650 C1670 0.950 . S
H1651 C1671 0.950 . S
H1652 C1673 0.950 . S
H1653 C1676 0.950 . S
H1654 C1677 0.950 . S
H1655 C1679 0.950 . S
H1656 C1680 0.950 . S
H1657 C1681 0.951 . S
H1658 C1683 0.951 . S
H1659 C1685 0.950 . S
H1660 C1686 0.950 . S
H1661 C1688 0.950 . S
H1662 C1691 0.950 . S
H1663 C1692 0.950 . S
H1664 C1694 0.950 . S
H1665 C1695 0.950 . S
C1666 H1648 0.951 . S
C1666 C1667 1.366 . S
C1666 C1668 1.388 . S
C1667 C1666 1.366 . S
C1667 C1671 1.385 1_545 S
C1668 H1649 0.951 . S
C1668 C1666 1.388 . S
C1668 C1669 1.366 . S
C1669 C1668 1.366 . S
C1669 C1670 1.414 1_545 S
C1669 C1672 1.499 . S
C1670 H1650 0.950 . S
C1670 C1669 1.414 1_565 S
C1670 C1671 1.374 . S
C1671 H1651 0.950 . S
C1671 C1667 1.385 1_565 S
C1671 C1670 1.374 . S
C1672 C1669 1.499 . S
C1672 C1673 1.373 1_545 S
C1672 C1674 1.389 . S
C1673 H1652 0.950 . S
C1673 C1672 1.373 1_565 S
C1673 C1689 1.377 . S
C1674 C1672 1.389 . S
C1674 C1675 1.524 . S
C1674 C1688 1.377 . S
C1675 C1674 1.524 . S
C1675 C1676 1.397 . S
C1675 C1680 1.363 . S
C1676 H1653 0.950 . S
C1676 C1675 1.397 . S
C1676 C1677 1.334 . S
C1677 H1654 0.950 . S
C1677 C1676 1.334 . S
C1677 C1678 1.287 . S
C1678 C1677 1.287 . S
C1678 C1679 1.524 . S
C1678 H1697 0.913 . S
C1679 H1655 0.950 . S
C1679 C1678 1.524 . S
C1679 C1680 1.415 . S
C1680 H1656 0.950 . S
C1680 C1675 1.363 . S
C1680 C1679 1.415 . S
C1681 H1657 0.951 . S
C1681 C1682 1.366 . S
C1681 C1683 1.388 . S
C1682 C1681 1.366 . S
C1682 C1686 1.385 1_565 S
C1683 H1658 0.951 . S
C1683 C1681 1.388 . S
C1683 C1684 1.366 . S
C1684 C1683 1.366 . S
C1684 C1685 1.414 1_565 S
C1684 C1687 1.499 . S
C1685 H1659 0.950 . S
C1685 C1684 1.414 1_545 S
C1685 C1686 1.374 . S
C1686 H1660 0.950 . S
C1686 C1682 1.385 1_545 S
C1686 C1685 1.374 . S
C1687 C1684 1.499 . S
C1687 C1688 1.373 1_565 S
C1687 C1689 1.389 . S
C1688 H1661 0.950 . S
C1688 C1674 1.377 . S
C1688 C1687 1.373 1_545 S
C1689 C1673 1.377 . S
C1689 C1687 1.389 . S
C1689 C1690 1.524 . S
C1690 C1689 1.524 . S
C1690 C1691 1.397 . S
C1690 C1695 1.363 . S
C1691 H1662 0.950 . S
C1691 C1690 1.397 . S
C1691 C1692 1.334 . S
C1692 H1663 0.950 . S
C1692 C1691 1.334 . S
C1692 C1693 1.287 . S
C1693 C1692 1.287 . S
C1693 C1694 1.524 . S
C1693 H1696 0.999 . S
C1694 H1664 0.950 . S
C1694 C1693 1.524 . S
C1694 C1695 1.415 . S
C1695 H1665 0.950 . S
C1695 C1690 1.363 . S
C1695 C1694 1.415 . S
H1696 C1693 0.999 . S
H1697 C1678 0.913 . S
H1698 C1716 0.951 . S
H1699 C1718 0.951 . S
H1700 C1720 0.950 . S
H1701 C1721 0.950 . S
H1702 C1723 0.950 . S
H1703 C1726 0.950 . S
H1704 C1727 0.950 . S
H1705 C1729 0.950 . S
H1706 C1730 0.950 . S
H1707 C1731 0.951 . S
H1708 C1733 0.951 . S
H1709 C1735 0.950 . S
H1710 C1736 0.950 . S
H1711 C1738 0.950 . S
H1712 C1741 0.950 . S
H1713 C1742 0.950 . S
H1714 C1744 0.950 . S
H1715 C1745 0.950 . S
C1716 H1698 0.951 . S
C1716 C1717 1.366 . S
C1716 C1718 1.388 . S
C1717 C1716 1.366 . S
C1717 C1721 1.385 . S
C1718 H1699 0.951 . S
C1718 C1716 1.388 . S
C1718 C1719 1.366 . S
C1719 C1718 1.366 . S
C1719 C1720 1.414 . S
C1719 C1722 1.499 . S
C1720 H1700 0.950 . S
C1720 C1719 1.414 . S
C1720 C1721 1.374 . S
C1721 H1701 0.950 . S
C1721 C1717 1.385 . S
C1721 C1720 1.374 . S
C1722 C1719 1.499 . S
C1722 C1723 1.373 . S
C1722 C1724 1.389 . S
C1723 H1702 0.950 . S
C1723 C1722 1.373 . S
C1723 C1739 1.377 . S
C1724 C1722 1.389 . S
C1724 C1725 1.524 . S
C1724 C1738 1.377 . S
C1725 C1724 1.524 . S
C1725 C1726 1.397 . S
C1725 C1730 1.363 . S
C1726 H1703 0.950 . S
C1726 C1725 1.397 . S
C1726 C1727 1.334 . S
C1727 H1704 0.950 . S
C1727 C1726 1.334 . S
C1727 C1728 1.287 . S
C1728 C1727 1.287 . S
C1728 C1729 1.524 . S
C1728 H1747 0.913 . S
C1729 H1705 0.950 . S
C1729 C1728 1.524 . S
C1729 C1730 1.415 . S
C1730 H1706 0.950 . S
C1730 C1725 1.363 . S
C1730 C1729 1.415 . S
C1731 H1707 0.951 . S
C1731 C1732 1.366 . S
C1731 C1733 1.388 . S
C1732 C1731 1.366 . S
C1732 C1736 1.385 . S
C1733 H1708 0.951 . S
C1733 C1731 1.388 . S
C1733 C1734 1.366 . S
C1734 C1733 1.366 . S
C1734 C1735 1.414 . S
C1734 C1737 1.499 . S
C1735 H1709 0.950 . S
C1735 C1734 1.414 . S
C1735 C1736 1.374 . S
C1736 H1710 0.950 . S
C1736 C1732 1.385 . S
C1736 C1735 1.374 . S
C1737 C1734 1.499 . S
C1737 C1738 1.373 . S
C1737 C1739 1.389 . S
C1738 H1711 0.950 . S
C1738 C1724 1.377 . S
C1738 C1737 1.373 . S
C1739 C1723 1.377 . S
C1739 C1737 1.389 . S
C1739 C1740 1.524 . S
C1740 C1739 1.524 . S
C1740 C1741 1.397 . S
C1740 C1745 1.363 . S
C1741 H1712 0.950 . S
C1741 C1740 1.397 . S
C1741 C1742 1.334 . S
C1742 H1713 0.950 . S
C1742 C1741 1.334 . S
C1742 C1743 1.287 . S
C1743 C1742 1.287 . S
C1743 C1744 1.524 . S
C1743 H1746 0.999 . S
C1744 H1714 0.950 . S
C1744 C1743 1.524 . S
C1744 C1745 1.415 . S
C1745 H1715 0.950 . S
C1745 C1740 1.363 . S
C1745 C1744 1.415 . S
H1746 C1743 0.999 . S
H1747 C1728 0.913 . S
H1748 C1766 0.951 . S
H1749 C1768 0.951 . S
H1750 C1770 0.950 1_565 S
H1751 C1771 0.950 . S
H1752 C1773 0.950 . S
H1753 C1776 0.950 . S
H1754 C1777 0.950 . S
H1755 C1779 0.950 . S
H1756 C1780 0.950 . S
H1757 C1781 0.951 . S
H1758 C1783 0.951 . S
H1759 C1785 0.950 1_545 S
H1760 C1786 0.950 . S
H1761 C1788 0.950 . S
H1762 C1791 0.950 . S
H1763 C1792 0.950 . S
H1764 C1794 0.950 . S
H1765 C1795 0.950 . S
C1766 H1748 0.951 . S
C1766 C1767 1.366 . S
C1766 C1768 1.388 . S
C1767 C1766 1.366 . S
C1767 C1771 1.385 . S
C1768 H1749 0.951 . S
C1768 C1766 1.388 . S
C1768 C1769 1.366 . S
C1769 C1768 1.366 . S
C1769 C1770 1.414 . S
C1769 C1772 1.499 . S
C1770 H1750 0.950 1_545 S
C1770 C1769 1.414 . S
C1770 C1771 1.374 . S
C1771 H1751 0.950 . S
C1771 C1767 1.385 . S
C1771 C1770 1.374 . S
C1772 C1769 1.499 . S
C1772 C1773 1.373 . S
C1772 C1774 1.389 1_545 S
C1773 H1752 0.950 . S
C1773 C1772 1.373 . S
C1773 C1789 1.377 . S
C1774 C1772 1.389 1_565 S
C1774 C1775 1.524 . S
C1774 C1788 1.377 . S
C1775 C1774 1.524 . S
C1775 C1776 1.397 . S
C1775 C1780 1.363 . S
C1776 H1753 0.950 . S
C1776 C1775 1.397 . S
C1776 C1777 1.334 . S
C1777 H1754 0.950 . S
C1777 C1776 1.334 . S
C1777 C1778 1.287 . S
C1778 C1777 1.287 . S
C1778 C1779 1.524 . S
C1778 H1797 0.913 . S
C1779 H1755 0.950 . S
C1779 C1778 1.524 . S
C1779 C1780 1.415 . S
C1780 H1756 0.950 . S
C1780 C1775 1.363 . S
C1780 C1779 1.415 . S
C1781 H1757 0.951 . S
C1781 C1782 1.366 . S
C1781 C1783 1.388 . S
C1782 C1781 1.366 . S
C1782 C1786 1.385 . S
C1783 H1758 0.951 . S
C1783 C1781 1.388 . S
C1783 C1784 1.366 . S
C1784 C1783 1.366 . S
C1784 C1785 1.414 . S
C1784 C1787 1.499 . S
C1785 H1759 0.950 1_565 S
C1785 C1784 1.414 . S
C1785 C1786 1.374 . S
C1786 H1760 0.950 . S
C1786 C1782 1.385 . S
C1786 C1785 1.374 . S
C1787 C1784 1.499 . S
C1787 C1788 1.373 . S
C1787 C1789 1.389 1_565 S
C1788 H1761 0.950 . S
C1788 C1774 1.377 . S
C1788 C1787 1.373 . S
C1789 C1773 1.377 . S
C1789 C1787 1.389 1_545 S
C1789 C1790 1.524 . S
C1790 C1789 1.524 . S
C1790 C1791 1.397 . S
C1790 C1795 1.363 . S
C1791 H1762 0.950 . S
C1791 C1790 1.397 . S
C1791 C1792 1.334 . S
C1792 H1763 0.950 . S
C1792 C1791 1.334 . S
C1792 C1793 1.287 . S
C1793 C1792 1.287 . S
C1793 C1794 1.524 . S
C1793 H1796 0.999 . S
C1794 H1764 0.950 . S
C1794 C1793 1.524 . S
C1794 C1795 1.415 . S
C1795 H1765 0.950 . S
C1795 C1790 1.363 . S
C1795 C1794 1.415 . S
H1796 C1793 0.999 . S
H1797 C1778 0.913 . S
H1798 C1816 0.951 . S
H1799 C1818 0.951 . S
H1800 C1820 0.950 . S
H1801 C1821 0.950 . S
H1802 C1823 0.950 . S
H1803 C1826 0.950 1_556 S
H1804 C1827 0.950 . S
H1805 C1829 0.950 . S
H1806 C1830 0.950 . S
H1807 C1831 0.951 . S
H1808 C1833 0.951 . S
H1809 C1835 0.950 . S
H1810 C1836 0.950 . S
H1811 C1838 0.950 . S
H1812 C1841 0.950 . S
H1813 C1842 0.950 . S
H1814 C1844 0.950 . S
H1815 C1845 0.950 . S
C1816 H1798 0.951 . S
C1816 C1817 1.366 . S
C1816 C1818 1.388 . S
C1817 C1816 1.366 . S
C1817 C1821 1.385 . S
C1818 H1799 0.951 . S
C1818 C1816 1.388 . S
C1818 C1819 1.366 . S
C1819 C1818 1.366 . S
C1819 C1820 1.414 . S
C1819 C1822 1.499 1_556 S
C1820 H1800 0.950 . S
C1820 C1819 1.414 . S
C1820 C1821 1.374 . S
C1821 H1801 0.950 . S
C1821 C1817 1.385 . S
C1821 C1820 1.374 . S
C1822 C1819 1.499 1_554 S
C1822 C1823 1.373 . S
C1822 C1824 1.389 . S
C1823 H1802 0.950 . S
C1823 C1822 1.373 . S
C1823 C1839 1.377 . S
C1824 C1822 1.389 . S
C1824 C1825 1.524 . S
C1824 C1838 1.377 . S
C1825 C1824 1.524 . S
C1825 C1826 1.397 . S
C1825 C1830 1.363 . S
C1826 H1803 0.950 1_554 S
C1826 C1825 1.397 . S
C1826 C1827 1.334 1_554 S
C1827 H1804 0.950 . S
C1827 C1826 1.334 1_556 S
C1827 C1828 1.287 . S
C1828 C1827 1.287 . S
C1828 C1829 1.524 1_556 S
C1828 H1847 0.913 . S
C1829 H1805 0.950 . S
C1829 C1828 1.524 1_554 S
C1829 C1830 1.415 . S
C1830 H1806 0.950 . S
C1830 C1825 1.363 . S
C1830 C1829 1.415 . S
C1831 H1807 0.951 . S
C1831 C1832 1.366 . S
C1831 C1833 1.388 . S
C1832 C1831 1.366 . S
C1832 C1836 1.385 . S
C1833 H1808 0.951 . S
C1833 C1831 1.388 . S
C1833 C1834 1.366 . S
C1834 C1833 1.366 . S
C1834 C1835 1.414 . S
C1834 C1837 1.499 . S
C1835 H1809 0.950 . S
C1835 C1834 1.414 . S
C1835 C1836 1.374 . S
C1836 H1810 0.950 . S
C1836 C1832 1.385 . S
C1836 C1835 1.374 . S
C1837 C1834 1.499 . S
C1837 C1838 1.373 . S
C1837 C1839 1.389 . S
C1838 H1811 0.950 . S
C1838 C1824 1.377 . S
C1838 C1837 1.373 . S
C1839 C1823 1.377 . S
C1839 C1837 1.389 . S
C1839 C1840 1.524 . S
C1840 C1839 1.524 . S
C1840 C1841 1.397 . S
C1840 C1845 1.363 . S
C1841 H1812 0.950 . S
C1841 C1840 1.397 . S
C1841 C1842 1.334 . S
C1842 H1813 0.950 . S
C1842 C1841 1.334 . S
C1842 C1843 1.287 . S
C1843 C1842 1.287 . S
C1843 C1844 1.524 . S
C1843 H1846 0.999 . S
C1844 H1814 0.950 . S
C1844 C1843 1.524 . S
C1844 C1845 1.415 . S
C1845 H1815 0.950 . S
C1845 C1840 1.363 . S
C1845 C1844 1.415 . S
H1846 C1843 0.999 . S
H1847 C1828 0.913 . S
H1848 C1866 0.951 . S
H1849 C1868 0.951 . S
H1850 C1870 0.950 . S
H1851 C1871 0.950 . S
H1852 C1873 0.950 . S
H1853 C1876 0.950 . S
H1854 C1877 0.950 . S
H1855 C1879 0.950 . S
H1856 C1880 0.950 . S
H1857 C1881 0.951 . S
H1858 C1883 0.951 . S
H1859 C1885 0.950 . S
H1860 C1886 0.950 . S
H1861 C1888 0.950 . S
H1862 C1891 0.950 . S
H1863 C1892 0.950 . S
H1864 C1894 0.950 . S
H1865 C1895 0.950 . S
C1866 H1848 0.951 . S
C1866 C1867 1.366 1_545 S
C1866 C1868 1.388 . S
C1867 C1866 1.366 1_565 S
C1867 C1871 1.385 . S
C1868 H1849 0.951 . S
C1868 C1866 1.388 . S
C1868 C1869 1.366 1_545 S
C1869 C1868 1.366 1_565 S
C1869 C1870 1.414 . S
C1869 C1872 1.499 . S
C1870 H1850 0.950 . S
C1870 C1869 1.414 . S
C1870 C1871 1.374 . S
C1871 H1851 0.950 . S
C1871 C1867 1.385 . S
C1871 C1870 1.374 . S
C1872 C1869 1.499 . S
C1872 C1873 1.373 . S
C1872 C1874 1.389 1_565 S
C1873 H1852 0.950 . S
C1873 C1872 1.373 . S
C1873 C1889 1.377 . S
C1874 C1872 1.389 1_545 S
C1874 C1875 1.524 . S
C1874 C1888 1.377 . S
C1875 C1874 1.524 . S
C1875 C1876 1.397 . S
C1875 C1880 1.363 . S
C1876 H1853 0.950 . S
C1876 C1875 1.397 . S
C1876 C1877 1.334 . S
C1877 H1854 0.950 . S
C1877 C1876 1.334 . S
C1877 C1878 1.287 . S
C1878 C1877 1.287 . S
C1878 C1879 1.524 . S
C1878 H1897 0.913 . S
C1879 H1855 0.950 . S
C1879 C1878 1.524 . S
C1879 C1880 1.415 . S
C1880 H1856 0.950 . S
C1880 C1875 1.363 . S
C1880 C1879 1.415 . S
C1881 H1857 0.951 . S
C1881 C1882 1.366 1_565 S
C1881 C1883 1.388 . S
C1882 C1881 1.366 1_545 S
C1882 C1886 1.385 . S
C1883 H1858 0.951 . S
C1883 C1881 1.388 . S
C1883 C1884 1.366 1_565 S
C1884 C1883 1.366 1_545 S
C1884 C1885 1.414 . S
C1884 C1887 1.499 . S
C1885 H1859 0.950 . S
C1885 C1884 1.414 . S
C1885 C1886 1.374 . S
C1886 H1860 0.950 . S
C1886 C1882 1.385 . S
C1886 C1885 1.374 . S
C1887 C1884 1.499 . S
C1887 C1888 1.373 . S
C1887 C1889 1.389 1_545 S
C1888 H1861 0.950 . S
C1888 C1874 1.377 . S
C1888 C1887 1.373 . S
C1889 C1873 1.377 . S
C1889 C1887 1.389 1_565 S
C1889 C1890 1.524 . S
C1890 C1889 1.524 . S
C1890 C1891 1.397 . S
C1890 C1895 1.363 . S
C1891 H1862 0.950 . S
C1891 C1890 1.397 . S
C1891 C1892 1.334 . S
C1892 H1863 0.950 . S
C1892 C1891 1.334 . S
C1892 C1893 1.287 . S
C1893 C1892 1.287 . S
C1893 C1894 1.524 . S
C1893 H1896 0.999 . S
C1894 H1864 0.950 . S
C1894 C1893 1.524 . S
C1894 C1895 1.415 . S
C1895 H1865 0.950 . S
C1895 C1890 1.363 . S
C1895 C1894 1.415 . S
H1896 C1893 0.999 . S
H1897 C1878 0.913 . S
H1898 C1916 0.951 . S
H1899 C1918 0.951 . S
H1900 C1920 0.950 . S
H1901 C1921 0.950 . S
H1902 C1923 0.950 . S
H1903 C1926 0.950 . S
H1904 C1927 0.950 . S
H1905 C1929 0.950 . S
H1906 C1930 0.950 . S
H1907 C1931 0.951 . S
H1908 C1933 0.951 . S
H1909 C1935 0.950 . S
H1910 C1936 0.950 . S
H1911 C1938 0.950 . S
H1912 C1941 0.950 . S
H1913 C1942 0.950 . S
H1914 C1944 0.950 . S
H1915 C1945 0.950 . S
C1916 H1898 0.951 . S
C1916 C1917 1.366 . S
C1916 C1918 1.388 . S
C1917 C1916 1.366 . S
C1917 C1921 1.385 . S
C1918 H1899 0.951 . S
C1918 C1916 1.388 . S
C1918 C1919 1.366 . S
C1919 C1918 1.366 . S
C1919 C1920 1.414 . S
C1919 C1922 1.499 . S
C1920 H1900 0.950 . S
C1920 C1919 1.414 . S
C1920 C1921 1.374 . S
C1921 H1901 0.950 . S
C1921 C1917 1.385 . S
C1921 C1920 1.374 . S
C1922 C1919 1.499 . S
C1922 C1923 1.373 . S
C1922 C1924 1.389 . S
C1923 H1902 0.950 . S
C1923 C1922 1.373 . S
C1923 C1939 1.377 . S
C1924 C1922 1.389 . S
C1924 C1925 1.524 . S
C1924 C1938 1.377 . S
C1925 C1924 1.524 . S
C1925 C1926 1.397 . S
C1925 C1930 1.363 . S
C1926 H1903 0.950 . S
C1926 C1925 1.397 . S
C1926 C1927 1.334 . S
C1927 H1904 0.950 . S
C1927 C1926 1.334 . S
C1927 C1928 1.287 . S
C1928 C1927 1.287 . S
C1928 C1929 1.524 . S
C1928 H1947 0.913 . S
C1929 H1905 0.950 . S
C1929 C1928 1.524 . S
C1929 C1930 1.415 . S
C1930 H1906 0.950 . S
C1930 C1925 1.363 . S
C1930 C1929 1.415 . S
C1931 H1907 0.951 . S
C1931 C1932 1.366 . S
C1931 C1933 1.388 . S
C1932 C1931 1.366 . S
C1932 C1936 1.385 . S
C1933 H1908 0.951 . S
C1933 C1931 1.388 . S
C1933 C1934 1.366 . S
C1934 C1933 1.366 . S
C1934 C1935 1.414 . S
C1934 C1937 1.499 . S
C1935 H1909 0.950 . S
C1935 C1934 1.414 . S
C1935 C1936 1.374 . S
C1936 H1910 0.950 . S
C1936 C1932 1.385 . S
C1936 C1935 1.374 . S
C1937 C1934 1.499 . S
C1937 C1938 1.373 . S
C1937 C1939 1.389 . S
C1938 H1911 0.950 . S
C1938 C1924 1.377 . S
C1938 C1937 1.373 . S
C1939 C1923 1.377 . S
C1939 C1937 1.389 . S
C1939 C1940 1.524 . S
C1940 C1939 1.524 . S
C1940 C1941 1.397 . S
C1940 C1945 1.363 . S
C1941 H1912 0.950 . S
C1941 C1940 1.397 . S
C1941 C1942 1.334 . S
C1942 H1913 0.950 . S
C1942 C1941 1.334 . S
C1942 C1943 1.287 . S
C1943 C1942 1.287 . S
C1943 C1944 1.524 . S
C1943 H1946 0.999 . S
C1944 H1914 0.950 . S
C1944 C1943 1.524 . S
C1944 C1945 1.415 . S
C1945 H1915 0.950 . S
C1945 C1940 1.363 . S
C1945 C1944 1.415 . S
H1946 C1943 0.999 . S
H1947 C1928 0.913 . S
H1948 C1966 0.951 . S
H1949 C1968 0.951 . S
H1950 C1970 0.950 . S
H1951 C1971 0.950 . S
H1952 C1973 0.950 . S
H1953 C1976 0.950 1_545 S
H1954 C1977 0.972 . S
H1955 C1979 0.950 . S
H1956 C1980 0.950 . S
H1957 C1981 0.951 . S
H1958 C1983 0.951 . S
H1959 C1985 0.950 . S
H1960 C1986 0.950 . S
H1961 C1988 0.950 . S
H1962 C1991 0.950 1_565 S
H1963 C1992 0.973 . S
H1964 C1994 0.950 . S
H1965 C1995 0.950 . S
C1966 H1948 0.951 . S
C1966 C1967 1.366 1_565 S
C1966 C1968 1.388 . S
C1967 C1966 1.366 1_545 S
C1967 C1971 1.385 . S
C1968 H1949 0.951 . S
C1968 C1966 1.388 . S
C1968 C1969 1.366 1_565 S
C1969 C1968 1.366 1_545 S
C1969 C1970 1.414 . S
C1969 C1972 1.499 . S
C1970 H1950 0.950 . S
C1970 C1969 1.414 . S
C1970 C1971 1.374 . S
C1971 H1951 0.950 . S
C1971 C1967 1.385 . S
C1971 C1970 1.374 . S
C1972 C1969 1.499 . S
C1972 C1973 1.373 . S
C1972 C1974 1.389 1_545 S
C1973 H1952 0.950 . S
C1973 C1972 1.373 . S
C1973 C1989 1.377 . S
C1974 C1972 1.389 1_565 S
C1974 C1975 1.524 . S
C1974 C1988 1.377 . S
C1975 C1974 1.524 . S
C1975 C1976 1.397 . S
C1975 C1980 1.363 . S
C1976 H1953 0.950 1_565 S
C1976 C1975 1.397 . S
C1976 C1977 1.334 . S
C1977 H1954 0.972 . S
C1977 C1976 1.334 . S
C1977 C1978 1.287 . S
C1978 C1977 1.287 . S
C1978 C1979 1.524 . S
C1978 H1997 0.913 . S
C1979 H1955 0.950 . S
C1979 C1978 1.524 . S
C1979 C1980 1.415 . S
C1980 H1956 0.950 . S
C1980 C1975 1.363 . S
C1980 C1979 1.415 . S
C1981 H1957 0.951 . S
C1981 C1982 1.366 1_545 S
C1981 C1983 1.388 . S
C1982 C1981 1.366 1_565 S
C1982 C1986 1.385 . S
C1983 H1958 0.951 . S
C1983 C1981 1.388 . S
C1983 C1984 1.366 1_545 S
C1984 C1983 1.366 1_565 S
C1984 C1985 1.414 . S
C1984 C1987 1.499 . S
C1985 H1959 0.950 . S
C1985 C1984 1.414 . S
C1985 C1986 1.374 . S
C1986 H1960 0.950 . S
C1986 C1982 1.385 . S
C1986 C1985 1.374 . S
C1987 C1984 1.499 . S
C1987 C1988 1.373 . S
C1987 C1989 1.389 1_565 S
C1988 H1961 0.950 . S
C1988 C1974 1.377 . S
C1988 C1987 1.373 . S
C1989 C1973 1.377 . S
C1989 C1987 1.389 1_545 S
C1989 C1990 1.524 . S
C1990 C1989 1.524 . S
C1990 C1991 1.397 . S
C1990 C1995 1.363 . S
C1991 H1962 0.950 1_545 S
C1991 C1990 1.397 . S
C1991 C1992 1.334 . S
C1992 H1963 0.973 . S
C1992 C1991 1.334 . S
C1992 C1993 1.287 . S
C1993 C1992 1.287 . S
C1993 C1994 1.524 . S
C1993 H1996 0.999 . S
C1994 H1964 0.950 . S
C1994 C1993 1.524 . S
C1994 C1995 1.415 . S
C1995 H1965 0.950 . S
C1995 C1990 1.363 . S
C1995 C1994 1.415 . S
H1996 C1993 0.999 . S
H1997 C1978 0.913 . S
H1998 C2016 0.951 . S
H1999 C2018 0.951 . S
H2000 C2020 0.950 . S
H2001 C2021 0.950 . S
H2002 C2023 0.950 . S
H2003 C2026 0.950 . S
H2004 C2027 0.950 . S
H2005 C2029 0.950 . S
H2006 C2030 0.950 . S
H2007 C2031 0.951 . S
H2008 C2033 0.951 . S
H2009 C2035 0.950 . S
H2010 C2036 0.950 . S
H2011 C2038 0.950 . S
H2012 C2041 0.950 . S
H2013 C2042 0.950 . S
H2014 C2044 0.950 . S
H2015 C2045 0.950 . S
C2016 H1998 0.951 . S
C2016 C2017 1.366 . S
C2016 C2018 1.388 . S
C2017 C2016 1.366 . S
C2017 C2021 1.385 . S
C2018 H1999 0.951 . S
C2018 C2016 1.388 . S
C2018 C2019 1.366 . S
C2019 C2018 1.366 . S
C2019 C2020 1.414 . S
C2019 C2022 1.499 . S
C2020 H2000 0.950 . S
C2020 C2019 1.414 . S
C2020 C2021 1.374 . S
C2021 H2001 0.950 . S
C2021 C2017 1.385 . S
C2021 C2020 1.374 . S
C2022 C2019 1.499 . S
C2022 C2023 1.373 . S
C2022 C2024 1.389 . S
C2023 H2002 0.950 . S
C2023 C2022 1.373 . S
C2023 C2039 1.377 . S
C2024 C2022 1.389 . S
C2024 C2025 1.524 . S
C2024 C2038 1.377 . S
C2025 C2024 1.524 . S
C2025 C2026 1.397 . S
C2025 C2030 1.363 . S
C2026 H2003 0.950 . S
C2026 C2025 1.397 . S
C2026 C2027 1.334 . S
C2027 H2004 0.950 . S
C2027 C2026 1.334 . S
C2027 C2028 1.287 . S
C2028 C2027 1.287 . S
C2028 C2029 1.524 . S
C2028 H2047 0.913 . S
C2029 H2005 0.950 . S
C2029 C2028 1.524 . S
C2029 C2030 1.415 . S
C2030 H2006 0.950 . S
C2030 C2025 1.363 . S
C2030 C2029 1.415 . S
C2031 H2007 0.951 . S
C2031 C2032 1.366 . S
C2031 C2033 1.388 . S
C2032 C2031 1.366 . S
C2032 C2036 1.385 . S
C2033 H2008 0.951 . S
C2033 C2031 1.388 . S
C2033 C2034 1.366 . S
C2034 C2033 1.366 . S
C2034 C2035 1.414 . S
C2034 C2037 1.499 1_556 S
C2035 H2009 0.950 . S
C2035 C2034 1.414 . S
C2035 C2036 1.374 . S
C2036 H2010 0.950 . S
C2036 C2032 1.385 . S
C2036 C2035 1.374 . S
C2037 C2034 1.499 1_554 S
C2037 C2038 1.373 . S
C2037 C2039 1.389 . S
C2038 H2011 0.950 . S
C2038 C2024 1.377 . S
C2038 C2037 1.373 . S
C2039 C2023 1.377 . S
C2039 C2037 1.389 . S
C2039 C2040 1.524 . S
C2040 C2039 1.524 . S
C2040 C2041 1.397 . S
C2040 C2045 1.363 . S
C2041 H2012 0.950 . S
C2041 C2040 1.397 . S
C2041 C2042 1.334 1_554 S
C2042 H2013 0.950 . S
C2042 C2041 1.334 1_556 S
C2042 C2043 1.287 . S
C2043 C2042 1.287 . S
C2043 C2044 1.524 1_556 S
C2043 H2046 0.999 . S
C2044 H2014 0.950 . S
C2044 C2043 1.524 1_554 S
C2044 C2045 1.415 . S
C2045 H2015 0.950 . S
C2045 C2040 1.363 . S
C2045 C2044 1.415 . S
H2046 C2043 0.999 . S
H2047 C2028 0.913 . S
H2048 C2066 0.951 . S
H2049 C2068 0.951 . S
H2050 C2070 0.950 . S
H2051 C2071 0.950 . S
H2052 C2073 0.950 . S
H2053 C2076 0.950 . S
H2054 C2077 0.950 . S
H2055 C2079 0.950 . S
H2056 C2080 0.950 . S
H2057 C2081 0.951 . S
H2058 C2083 0.951 . S
H2059 C2085 0.950 . S
H2060 C2086 0.950 . S
H2061 C2088 0.950 . S
H2062 C2091 0.950 . S
H2063 C2092 0.950 . S
H2064 C2094 0.950 . S
H2065 C2095 0.950 . S
C2066 H2048 0.951 . S
C2066 C2067 1.366 . S
C2066 C2068 1.388 . S
C2067 C2066 1.366 . S
C2067 C2071 1.385 . S
C2068 H2049 0.951 . S
C2068 C2066 1.388 . S
C2068 C2069 1.366 . S
C2069 C2068 1.366 . S
C2069 C2070 1.414 . S
C2069 C2072 1.499 . S
C2070 H2050 0.950 . S
C2070 C2069 1.414 . S
C2070 C2071 1.374 . S
C2071 H2051 0.950 . S
C2071 C2067 1.385 . S
C2071 C2070 1.374 . S
C2072 C2069 1.499 . S
C2072 C2073 1.373 . S
C2072 C2074 1.389 . S
C2073 H2052 0.950 . S
C2073 C2072 1.373 . S
C2073 C2089 1.377 . S
C2074 C2072 1.389 . S
C2074 C2075 1.524 . S
C2074 C2088 1.377 . S
C2075 C2074 1.524 . S
C2075 C2076 1.397 . S
C2075 C2080 1.363 . S
C2076 H2053 0.950 . S
C2076 C2075 1.397 . S
C2076 C2077 1.334 . S
C2077 H2054 0.950 . S
C2077 C2076 1.334 . S
C2077 C2078 1.287 . S
C2078 C2077 1.287 . S
C2078 C2079 1.524 . S
C2078 H2097 0.913 . S
C2079 H2055 0.950 . S
C2079 C2078 1.524 . S
C2079 C2080 1.415 . S
C2080 H2056 0.950 . S
C2080 C2075 1.363 . S
C2080 C2079 1.415 . S
C2081 H2057 0.951 . S
C2081 C2082 1.366 . S
C2081 C2083 1.388 . S
C2082 C2081 1.366 . S
C2082 C2086 1.385 . S
C2083 H2058 0.951 . S
C2083 C2081 1.388 . S
C2083 C2084 1.366 . S
C2084 C2083 1.366 . S
C2084 C2085 1.414 . S
C2084 C2087 1.499 . S
C2085 H2059 0.950 . S
C2085 C2084 1.414 . S
C2085 C2086 1.374 . S
C2086 H2060 0.950 . S
C2086 C2082 1.385 . S
C2086 C2085 1.374 . S
C2087 C2084 1.499 . S
C2087 C2088 1.373 . S
C2087 C2089 1.389 . S
C2088 H2061 0.950 . S
C2088 C2074 1.377 . S
C2088 C2087 1.373 . S
C2089 C2073 1.377 . S
C2089 C2087 1.389 . S
C2089 C2090 1.524 . S
C2090 C2089 1.524 . S
C2090 C2091 1.397 . S
C2090 C2095 1.363 . S
C2091 H2062 0.950 . S
C2091 C2090 1.397 . S
C2091 C2092 1.334 . S
C2092 H2063 0.950 . S
C2092 C2091 1.334 . S
C2092 C2093 1.287 . S
C2093 C2092 1.287 . S
C2093 C2094 1.524 . S
C2093 H2096 0.999 . S
C2094 H2064 0.950 . S
C2094 C2093 1.524 . S
C2094 C2095 1.415 . S
C2095 H2065 0.950 . S
C2095 C2090 1.363 . S
C2095 C2094 1.415 . S
H2096 C2093 0.999 . S
H2097 C2078 0.913 . S
H2098 C2116 0.951 . S
H2099 C2118 0.951 . S
H2100 C2120 0.950 . S
H2101 C2121 0.950 . S
H2102 C2123 0.950 . S
H2103 C2126 0.950 . S
H2104 C2127 0.950 . S
H2105 C2129 0.950 . S
H2106 C2130 0.950 . S
H2107 C2131 0.951 . S
H2108 C2133 0.951 . S
H2109 C2135 0.950 . S
H2110 C2136 0.950 . S
H2111 C2138 0.950 . S
H2112 C2141 0.950 . S
H2113 C2142 0.950 . S
H2114 C2144 0.950 . S
H2115 C2145 0.950 . S
C2116 H2098 0.951 . S
C2116 C2117 1.366 . S
C2116 C2118 1.388 . S
C2117 C2116 1.366 . S
C2117 C2121 1.385 . S
C2118 H2099 0.951 . S
C2118 C2116 1.388 . S
C2118 C2119 1.366 . S
C2119 C2118 1.366 . S
C2119 C2120 1.414 . S
C2119 C2122 1.499 . S
C2120 H2100 0.950 . S
C2120 C2119 1.414 . S
C2120 C2121 1.374 . S
C2121 H2101 0.950 . S
C2121 C2117 1.385 . S
C2121 C2120 1.374 . S
C2122 C2119 1.499 . S
C2122 C2123 1.373 . S
C2122 C2124 1.389 . S
C2123 H2102 0.950 . S
C2123 C2122 1.373 . S
C2123 C2139 1.377 . S
C2124 C2122 1.389 . S
C2124 C2125 1.524 . S
C2124 C2138 1.377 . S
C2125 C2124 1.524 . S
C2125 C2126 1.397 . S
C2125 C2130 1.363 . S
C2126 H2103 0.950 . S
C2126 C2125 1.397 . S
C2126 C2127 1.334 . S
C2127 H2104 0.950 . S
C2127 C2126 1.334 . S
C2127 C2128 1.287 . S
C2128 C2127 1.287 . S
C2128 C2129 1.524 . S
C2128 H2147 0.913 . S
C2129 H2105 0.950 . S
C2129 C2128 1.524 . S
C2129 C2130 1.415 . S
C2130 H2106 0.950 . S
C2130 C2125 1.363 . S
C2130 C2129 1.415 . S
C2131 H2107 0.951 . S
C2131 C2132 1.366 . S
C2131 C2133 1.388 . S
C2132 C2131 1.366 . S
C2132 C2136 1.385 . S
C2133 H2108 0.951 . S
C2133 C2131 1.388 . S
C2133 C2134 1.366 . S
C2134 C2133 1.366 . S
C2134 C2135 1.414 . S
C2134 C2137 1.499 . S
C2135 H2109 0.950 . S
C2135 C2134 1.414 . S
C2135 C2136 1.374 . S
C2136 H2110 0.950 . S
C2136 C2132 1.385 . S
C2136 C2135 1.374 . S
C2137 C2134 1.499 . S
C2137 C2138 1.373 . S
C2137 C2139 1.389 . S
C2138 H2111 0.950 . S
C2138 C2124 1.377 . S
C2138 C2137 1.373 . S
C2139 C2123 1.377 . S
C2139 C2137 1.389 . S
C2139 C2140 1.524 . S
C2140 C2139 1.524 . S
C2140 C2141 1.397 . S
C2140 C2145 1.363 . S
C2141 H2112 0.950 . S
C2141 C2140 1.397 . S
C2141 C2142 1.334 . S
C2142 H2113 0.950 . S
C2142 C2141 1.334 . S
C2142 C2143 1.287 . S
C2143 C2142 1.287 . S
C2143 C2144 1.524 . S
C2143 H2146 0.999 . S
C2144 H2114 0.950 . S
C2144 C2143 1.524 . S
C2144 C2145 1.415 . S
C2145 H2115 0.950 . S
C2145 C2140 1.363 . S
C2145 C2144 1.415 . S
H2146 C2143 0.999 . S
H2147 C2128 0.913 . S
H2148 C2166 0.951 . S
H2149 C2168 0.951 . S
H2150 C2170 0.950 . S
H2151 C2171 0.950 . S
H2152 C2173 0.950 . S
H2153 C2176 0.950 . S
H2154 C2177 0.950 . S
H2155 C2179 0.950 . S
H2156 C2180 0.950 . S
H2157 C2181 0.951 . S
H2158 C2183 0.951 . S
H2159 C2185 0.950 . S
H2160 C2186 0.950 . S
H2161 C2188 0.950 . S
H2162 C2191 0.950 . S
H2163 C2192 0.950 . S
H2164 C2194 0.950 . S
H2165 C2195 0.950 . S
C2166 H2148 0.951 . S
C2166 C2167 1.366 . S
C2166 C2168 1.388 . S
C2167 C2166 1.366 . S
C2167 C2171 1.385 . S
C2168 H2149 0.951 . S
C2168 C2166 1.388 . S
C2168 C2169 1.366 . S
C2169 C2168 1.366 . S
C2169 C2170 1.414 . S
C2169 C2172 1.499 . S
C2170 H2150 0.950 . S
C2170 C2169 1.414 . S
C2170 C2171 1.374 . S
C2171 H2151 0.950 . S
C2171 C2167 1.385 . S
C2171 C2170 1.374 . S
C2172 C2169 1.499 . S
C2172 C2173 1.373 . S
C2172 C2174 1.389 . S
C2173 H2152 0.950 . S
C2173 C2172 1.373 . S
C2173 C2189 1.377 . S
C2174 C2172 1.389 . S
C2174 C2175 1.524 . S
C2174 C2188 1.377 . S
C2175 C2174 1.524 . S
C2175 C2176 1.397 . S
C2175 C2180 1.363 . S
C2176 H2153 0.950 . S
C2176 C2175 1.397 . S
C2176 C2177 1.334 . S
C2177 H2154 0.950 . S
C2177 C2176 1.334 . S
C2177 C2178 1.287 . S
C2178 C2177 1.287 . S
C2178 C2179 1.524 . S
C2178 H2197 0.913 . S
C2179 H2155 0.950 . S
C2179 C2178 1.524 . S
C2179 C2180 1.415 . S
C2180 H2156 0.950 . S
C2180 C2175 1.363 . S
C2180 C2179 1.415 . S
C2181 H2157 0.951 . S
C2181 C2182 1.366 . S
C2181 C2183 1.388 . S
C2182 C2181 1.366 . S
C2182 C2186 1.385 . S
C2183 H2158 0.951 . S
C2183 C2181 1.388 . S
C2183 C2184 1.366 . S
C2184 C2183 1.366 . S
C2184 C2185 1.414 . S
C2184 C2187 1.499 . S
C2185 H2159 0.950 . S
C2185 C2184 1.414 . S
C2185 C2186 1.374 . S
C2186 H2160 0.950 . S
C2186 C2182 1.385 . S
C2186 C2185 1.374 . S
C2187 C2184 1.499 . S
C2187 C2188 1.373 . S
C2187 C2189 1.389 . S
C2188 H2161 0.950 . S
C2188 C2174 1.377 . S
C2188 C2187 1.373 . S
C2189 C2173 1.377 . S
C2189 C2187 1.389 . S
C2189 C2190 1.524 . S
C2190 C2189 1.524 . S
C2190 C2191 1.397 . S
C2190 C2195 1.363 . S
C2191 H2162 0.950 . S
C2191 C2190 1.397 . S
C2191 C2192 1.334 . S
C2192 H2163 0.950 . S
C2192 C2191 1.334 . S
C2192 C2193 1.287 . S
C2193 C2192 1.287 . S
C2193 C2194 1.524 . S
C2193 H2196 0.999 . S
C2194 H2164 0.950 . S
C2194 C2193 1.524 . S
C2194 C2195 1.415 . S
C2195 H2165 0.950 . S
C2195 C2190 1.363 . S
C2195 C2194 1.415 . S
H2196 C2193 0.999 . S
H2197 C2178 0.913 . S
H2198 C2216 0.951 . S
H2199 C2218 0.951 . S
H2200 C2220 0.950 . S
H2201 C2221 0.950 . S
H2202 C2223 0.950 . S
H2203 C2226 0.950 . S
H2204 C2227 0.950 . S
H2205 C2229 0.950 . S
H2206 C2230 0.950 . S
H2207 C2231 0.951 . S
H2208 C2233 0.951 . S
H2209 C2235 0.950 . S
H2210 C2236 0.950 . S
H2211 C2238 0.950 . S
H2212 C2241 0.950 1_556 S
H2213 C2242 0.950 . S
H2214 C2244 0.950 . S
H2215 C2245 0.950 . S
C2216 H2198 0.951 . S
C2216 C2217 1.366 . S
C2216 C2218 1.388 . S
C2217 C2216 1.366 . S
C2217 C2221 1.385 . S
C2218 H2199 0.951 . S
C2218 C2216 1.388 . S
C2218 C2219 1.366 . S
C2219 C2218 1.366 . S
C2219 C2220 1.414 . S
C2219 C2222 1.499 . S
C2220 H2200 0.950 . S
C2220 C2219 1.414 . S
C2220 C2221 1.374 . S
C2221 H2201 0.950 . S
C2221 C2217 1.385 . S
C2221 C2220 1.374 . S
C2222 C2219 1.499 . S
C2222 C2223 1.373 . S
C2222 C2224 1.389 . S
C2223 H2202 0.950 . S
C2223 C2222 1.373 . S
C2223 C2239 1.377 . S
C2224 C2222 1.389 . S
C2224 C2225 1.524 . S
C2224 C2238 1.377 . S
C2225 C2224 1.524 . S
C2225 C2226 1.397 . S
C2225 C2230 1.363 . S
C2226 H2203 0.950 . S
C2226 C2225 1.397 . S
C2226 C2227 1.334 . S
C2227 H2204 0.950 . S
C2227 C2226 1.334 . S
C2227 C2228 1.287 . S
C2228 C2227 1.287 . S
C2228 C2229 1.524 . S
C2228 H2247 0.913 . S
C2229 H2205 0.950 . S
C2229 C2228 1.524 . S
C2229 C2230 1.415 . S
C2230 H2206 0.950 . S
C2230 C2225 1.363 . S
C2230 C2229 1.415 . S
C2231 H2207 0.951 . S
C2231 C2232 1.366 . S
C2231 C2233 1.388 . S
C2232 C2231 1.366 . S
C2232 C2236 1.385 . S
C2233 H2208 0.951 . S
C2233 C2231 1.388 . S
C2233 C2234 1.366 . S
C2234 C2233 1.366 . S
C2234 C2235 1.414 . S
C2234 C2237 1.499 1_556 S
C2235 H2209 0.950 . S
C2235 C2234 1.414 . S
C2235 C2236 1.374 . S
C2236 H2210 0.950 . S
C2236 C2232 1.385 . S
C2236 C2235 1.374 . S
C2237 C2234 1.499 1_554 S
C2237 C2238 1.373 . S
C2237 C2239 1.389 . S
C2238 H2211 0.950 . S
C2238 C2224 1.377 . S
C2238 C2237 1.373 . S
C2239 C2223 1.377 . S
C2239 C2237 1.389 . S
C2239 C2240 1.524 . S
C2240 C2239 1.524 . S
C2240 C2241 1.397 . S
C2240 C2245 1.363 . S
C2241 H2212 0.950 1_554 S
C2241 C2240 1.397 . S
C2241 C2242 1.334 1_554 S
C2242 H2213 0.950 . S
C2242 C2241 1.334 1_556 S
C2242 C2243 1.287 . S
C2243 C2242 1.287 . S
C2243 C2244 1.524 1_556 S
C2243 H2246 0.999 . S
C2244 H2214 0.950 . S
C2244 C2243 1.524 1_554 S
C2244 C2245 1.415 . S
C2245 H2215 0.950 . S
C2245 C2240 1.363 . S
C2245 C2244 1.415 . S
H2246 C2243 0.999 . S
H2247 C2228 0.913 . S
H2248 C2266 0.951 . S
H2249 C2268 0.951 . S
H2250 C2270 0.950 . S
H2251 C2271 0.950 . S
H2252 C2273 0.950 . S
H2253 C2276 0.950 . S
H2254 C2277 0.950 . S
H2255 C2279 0.950 . S
H2256 C2280 0.950 . S
H2257 C2281 0.951 . S
H2258 C2283 0.951 . S
H2259 C2285 0.950 . S
H2260 C2286 0.950 . S
H2261 C2288 0.950 . S
H2262 C2291 0.950 . S
H2263 C2292 0.950 . S
H2264 C2294 0.950 . S
H2265 C2295 0.950 . S
C2266 H2248 0.951 . S
C2266 C2267 1.366 . S
C2266 C2268 1.388 . S
C2267 C2266 1.366 . S
C2267 C2271 1.385 . S
C2268 H2249 0.951 . S
C2268 C2266 1.388 . S
C2268 C2269 1.366 . S
C2269 C2268 1.366 . S
C2269 C2270 1.414 . S
C2269 C2272 1.499 . S
C2270 H2250 0.950 . S
C2270 C2269 1.414 . S
C2270 C2271 1.374 . S
C2271 H2251 0.950 . S
C2271 C2267 1.385 . S
C2271 C2270 1.374 . S
C2272 C2269 1.499 . S
C2272 C2273 1.373 . S
C2272 C2274 1.389 . S
C2273 H2252 0.950 . S
C2273 C2272 1.373 . S
C2273 C2289 1.377 . S
C2274 C2272 1.389 . S
C2274 C2275 1.524 . S
C2274 C2288 1.377 . S
C2275 C2274 1.524 . S
C2275 C2276 1.397 . S
C2275 C2280 1.363 . S
C2276 H2253 0.950 . S
C2276 C2275 1.397 . S
C2276 C2277 1.334 . S
C2277 H2254 0.950 . S
C2277 C2276 1.334 . S
C2277 C2278 1.287 . S
C2278 C2277 1.287 . S
C2278 C2279 1.524 . S
C2278 H2297 0.913 . S
C2279 H2255 0.950 . S
C2279 C2278 1.524 . S
C2279 C2280 1.415 . S
C2280 H2256 0.950 . S
C2280 C2275 1.363 . S
C2280 C2279 1.415 . S
C2281 H2257 0.951 . S
C2281 C2282 1.366 . S
C2281 C2283 1.388 . S
C2282 C2281 1.366 . S
C2282 C2286 1.385 . S
C2283 H2258 0.951 . S
C2283 C2281 1.388 . S
C2283 C2284 1.366 . S
C2284 C2283 1.366 . S
C2284 C2285 1.414 . S
C2284 C2287 1.499 . S
C2285 H2259 0.950 . S
C2285 C2284 1.414 . S
C2285 C2286 1.374 . S
C2286 H2260 0.950 . S
C2286 C2282 1.385 . S
C2286 C2285 1.374 . S
C2287 C2284 1.499 . S
C2287 C2288 1.373 . S
C2287 C2289 1.389 . S
C2288 H2261 0.950 . S
C2288 C2274 1.377 . S
C2288 C2287 1.373 . S
C2289 C2273 1.377 . S
C2289 C2287 1.389 . S
C2289 C2290 1.524 . S
C2290 C2289 1.524 . S
C2290 C2291 1.397 . S
C2290 C2295 1.363 . S
C2291 H2262 0.950 . S
C2291 C2290 1.397 . S
C2291 C2292 1.334 . S
C2292 H2263 0.950 . S
C2292 C2291 1.334 . S
C2292 C2293 1.287 . S
C2293 C2292 1.287 . S
C2293 C2294 1.524 . S
C2293 H2296 0.999 . S
C2294 H2264 0.950 . S
C2294 C2293 1.524 . S
C2294 C2295 1.415 . S
C2295 H2265 0.950 . S
C2295 C2290 1.363 . S
C2295 C2294 1.415 . S
H2296 C2293 0.999 . S
H2297 C2278 0.913 . S
H2298 C2316 0.951 . S
H2299 C2318 0.951 . S
H2300 C2320 0.950 . S
H2301 C2321 0.950 . S
H2302 C2323 0.950 . S
H2303 C2326 0.950 . S
H2304 C2327 0.950 . S
H2305 C2329 0.950 . S
H2306 C2330 0.950 . S
H2307 C2331 0.951 . S
H2308 C2333 0.951 . S
H2309 C2335 0.950 . S
H2310 C2336 0.950 . S
H2311 C2338 0.950 . S
H2312 C2341 0.950 . S
H2313 C2342 0.950 . S
H2314 C2344 0.950 . S
H2315 C2345 0.950 . S
C2316 H2298 0.951 . S
C2316 C2317 1.366 . S
C2316 C2318 1.388 . S
C2317 C2316 1.366 . S
C2317 C2321 1.385 . S
C2318 H2299 0.951 . S
C2318 C2316 1.388 . S
C2318 C2319 1.366 . S
C2319 C2318 1.366 . S
C2319 C2320 1.414 . S
C2319 C2322 1.499 . S
C2320 H2300 0.950 . S
C2320 C2319 1.414 . S
C2320 C2321 1.374 . S
C2321 H2301 0.950 . S
C2321 C2317 1.385 . S
C2321 C2320 1.374 . S
C2322 C2319 1.499 . S
C2322 C2323 1.373 . S
C2322 C2324 1.389 . S
C2323 H2302 0.950 . S
C2323 C2322 1.373 . S
C2323 C2339 1.377 . S
C2324 C2322 1.389 . S
C2324 C2325 1.524 . S
C2324 C2338 1.377 . S
C2325 C2324 1.524 . S
C2325 C2326 1.397 . S
C2325 C2330 1.363 . S
C2326 H2303 0.950 . S
C2326 C2325 1.397 . S
C2326 C2327 1.334 . S
C2327 H2304 0.950 . S
C2327 C2326 1.334 . S
C2327 C2328 1.287 . S
C2328 C2327 1.287 . S
C2328 C2329 1.524 . S
C2328 H2347 0.913 . S
C2329 H2305 0.950 . S
C2329 C2328 1.524 . S
C2329 C2330 1.415 . S
C2330 H2306 0.950 . S
C2330 C2325 1.363 . S
C2330 C2329 1.415 . S
C2331 H2307 0.951 . S
C2331 C2332 1.366 . S
C2331 C2333 1.388 . S
C2332 C2331 1.366 . S
C2332 C2336 1.385 . S
C2333 H2308 0.951 . S
C2333 C2331 1.388 . S
C2333 C2334 1.366 . S
C2334 C2333 1.366 . S
C2334 C2335 1.414 . S
C2334 C2337 1.499 . S
C2335 H2309 0.950 . S
C2335 C2334 1.414 . S
C2335 C2336 1.374 . S
C2336 H2310 0.950 . S
C2336 C2332 1.385 . S
C2336 C2335 1.374 . S
C2337 C2334 1.499 . S
C2337 C2338 1.373 . S
C2337 C2339 1.389 . S
C2338 H2311 0.950 . S
C2338 C2324 1.377 . S
C2338 C2337 1.373 . S
C2339 C2323 1.377 . S
C2339 C2337 1.389 . S
C2339 C2340 1.524 . S
C2340 C2339 1.524 . S
C2340 C2341 1.397 . S
C2340 C2345 1.363 . S
C2341 H2312 0.950 . S
C2341 C2340 1.397 . S
C2341 C2342 1.334 . S
C2342 H2313 0.950 . S
C2342 C2341 1.334 . S
C2342 C2343 1.287 . S
C2343 C2342 1.287 . S
C2343 C2344 1.524 . S
C2343 H2346 0.999 . S
C2344 H2314 0.950 . S
C2344 C2343 1.524 . S
C2344 C2345 1.415 . S
C2345 H2315 0.950 . S
C2345 C2340 1.363 . S
C2345 C2344 1.415 . S
H2346 C2343 0.999 . S
H2347 C2328 0.913 . S
H2348 C2366 0.951 . S
H2349 C2368 0.951 . S
H2350 C2370 0.950 . S
H2351 C2371 0.950 . S
H2352 C2373 0.950 . S
H2353 C2376 0.950 . S
H2354 C2377 0.950 . S
H2355 C2379 0.950 . S
H2356 C2380 0.950 . S
H2357 C2381 0.951 . S
H2358 C2383 0.951 . S
H2359 C2385 0.950 . S
H2360 C2386 0.950 . S
H2361 C2388 0.950 . S
H2362 C2391 0.950 . S
H2363 C2392 0.950 . S
H2364 C2394 0.950 . S
H2365 C2395 0.950 . S
C2366 H2348 0.951 . S
C2366 C2367 1.366 . S
C2366 C2368 1.388 . S
C2367 C2366 1.366 . S
C2367 C2371 1.385 . S
C2368 H2349 0.951 . S
C2368 C2366 1.388 . S
C2368 C2369 1.366 . S
C2369 C2368 1.366 . S
C2369 C2370 1.414 . S
C2369 C2372 1.499 . S
C2370 H2350 0.950 . S
C2370 C2369 1.414 . S
C2370 C2371 1.374 . S
C2371 H2351 0.950 . S
C2371 C2367 1.385 . S
C2371 C2370 1.374 . S
C2372 C2369 1.499 . S
C2372 C2373 1.373 . S
C2372 C2374 1.389 . S
C2373 H2352 0.950 . S
C2373 C2372 1.373 . S
C2373 C2389 1.377 . S
C2374 C2372 1.389 . S
C2374 C2375 1.524 . S
C2374 C2388 1.377 . S
C2375 C2374 1.524 . S
C2375 C2376 1.397 . S
C2375 C2380 1.363 . S
C2376 H2353 0.950 . S
C2376 C2375 1.397 . S
C2376 C2377 1.334 . S
C2377 H2354 0.950 . S
C2377 C2376 1.334 . S
C2377 C2378 1.287 . S
C2378 C2377 1.287 . S
C2378 C2379 1.524 . S
C2378 H2397 0.913 . S
C2379 H2355 0.950 . S
C2379 C2378 1.524 . S
C2379 C2380 1.415 . S
C2380 H2356 0.950 . S
C2380 C2375 1.363 . S
C2380 C2379 1.415 . S
C2381 H2357 0.951 . S
C2381 C2382 1.366 . S
C2381 C2383 1.388 . S
C2382 C2381 1.366 . S
C2382 C2386 1.385 . S
C2383 H2358 0.951 . S
C2383 C2381 1.388 . S
C2383 C2384 1.366 . S
C2384 C2383 1.366 . S
C2384 C2385 1.414 . S
C2384 C2387 1.499 . S
C2385 H2359 0.950 . S
C2385 C2384 1.414 . S
C2385 C2386 1.374 . S
C2386 H2360 0.950 . S
C2386 C2382 1.385 . S
C2386 C2385 1.374 . S
C2387 C2384 1.499 . S
C2387 C2388 1.373 . S
C2387 C2389 1.389 . S
C2388 H2361 0.950 . S
C2388 C2374 1.377 . S
C2388 C2387 1.373 . S
C2389 C2373 1.377 . S
C2389 C2387 1.389 . S
C2389 C2390 1.524 . S
C2390 C2389 1.524 . S
C2390 C2391 1.397 . S
C2390 C2395 1.363 . S
C2391 H2362 0.950 . S
C2391 C2390 1.397 . S
C2391 C2392 1.334 . S
C2392 H2363 0.950 . S
C2392 C2391 1.334 . S
C2392 C2393 1.287 . S
C2393 C2392 1.287 . S
C2393 C2394 1.524 . S
C2393 H2396 0.999 . S
C2394 H2364 0.950 . S
C2394 C2393 1.524 . S
C2394 C2395 1.415 . S
C2395 H2365 0.950 . S
C2395 C2390 1.363 . S
C2395 C2394 1.415 . S
H2396 C2393 0.999 . S
H2397 C2378 0.913 . S
H2398 C2416 0.951 . S
H2399 C2418 0.951 . S
H2400 C2420 0.950 . S
H2401 C2421 0.950 . S
H2402 C2423 0.950 . S
H2403 C2426 0.950 . S
H2404 C2427 0.950 . S
H2405 C2429 0.950 . S
H2406 C2430 0.950 . S
H2407 C2431 0.951 . S
H2408 C2433 0.951 . S
H2409 C2435 0.950 . S
H2410 C2436 0.950 . S
H2411 C2438 0.950 . S
H2412 C2441 0.950 . S
H2413 C2442 0.950 . S
H2414 C2444 0.950 . S
H2415 C2445 0.950 . S
C2416 H2398 0.951 . S
C2416 C2417 1.366 . S
C2416 C2418 1.388 . S
C2417 C2416 1.366 . S
C2417 C2421 1.385 . S
C2418 H2399 0.951 . S
C2418 C2416 1.388 . S
C2418 C2419 1.366 . S
C2419 C2418 1.366 . S
C2419 C2420 1.414 . S
C2419 C2422 1.499 1_556 S
C2420 H2400 0.950 . S
C2420 C2419 1.414 . S
C2420 C2421 1.374 . S
C2421 H2401 0.950 . S
C2421 C2417 1.385 . S
C2421 C2420 1.374 . S
C2422 C2419 1.499 1_554 S
C2422 C2423 1.373 . S
C2422 C2424 1.389 . S
C2423 H2402 0.950 . S
C2423 C2422 1.373 . S
C2423 C2439 1.377 . S
C2424 C2422 1.389 . S
C2424 C2425 1.524 . S
C2424 C2438 1.377 . S
C2425 C2424 1.524 . S
C2425 C2426 1.397 . S
C2425 C2430 1.363 . S
C2426 H2403 0.950 . S
C2426 C2425 1.397 . S
C2426 C2427 1.334 1_554 S
C2427 H2404 0.950 . S
C2427 C2426 1.334 1_556 S
C2427 C2428 1.287 . S
C2428 C2427 1.287 . S
C2428 C2429 1.524 1_556 S
C2428 H2447 0.913 . S
C2429 H2405 0.950 . S
C2429 C2428 1.524 1_554 S
C2429 C2430 1.415 . S
C2430 H2406 0.950 . S
C2430 C2425 1.363 . S
C2430 C2429 1.415 . S
C2431 H2407 0.951 . S
C2431 C2432 1.366 . S
C2431 C2433 1.388 . S
C2432 C2431 1.366 . S
C2432 C2436 1.385 . S
C2433 H2408 0.951 . S
C2433 C2431 1.388 . S
C2433 C2434 1.366 . S
C2434 C2433 1.366 . S
C2434 C2435 1.414 . S
C2434 C2437 1.499 . S
C2435 H2409 0.950 . S
C2435 C2434 1.414 . S
C2435 C2436 1.374 . S
C2436 H2410 0.950 . S
C2436 C2432 1.385 . S
C2436 C2435 1.374 . S
C2437 C2434 1.499 . S
C2437 C2438 1.373 . S
C2437 C2439 1.389 . S
C2438 H2411 0.950 . S
C2438 C2424 1.377 . S
C2438 C2437 1.373 . S
C2439 C2423 1.377 . S
C2439 C2437 1.389 . S
C2439 C2440 1.524 . S
C2440 C2439 1.524 . S
C2440 C2441 1.397 . S
C2440 C2445 1.363 . S
C2441 H2412 0.950 . S
C2441 C2440 1.397 . S
C2441 C2442 1.334 . S
C2442 H2413 0.950 . S
C2442 C2441 1.334 . S
C2442 C2443 1.287 . S
C2443 C2442 1.287 . S
C2443 C2444 1.524 . S
C2443 H2446 0.999 . S
C2444 H2414 0.950 . S
C2444 C2443 1.524 . S
C2444 C2445 1.415 . S
C2445 H2415 0.950 . S
C2445 C2440 1.363 . S
C2445 C2444 1.415 . S
H2446 C2443 0.999 . S
H2447 C2428 0.913 . S
H2448 C2466 0.951 . S
H2449 C2468 0.951 . S
H2450 C2470 0.950 . S
H2451 C2471 0.950 . S
H2452 C2473 0.950 . S
H2453 C2476 0.950 . S
H2454 C2477 0.950 . S
H2455 C2479 0.950 . S
H2456 C2480 0.950 . S
H2457 C2481 0.951 . S
H2458 C2483 0.951 . S
H2459 C2485 0.950 . S
H2460 C2486 0.950 . S
H2461 C2488 0.950 . S
H2462 C2491 0.950 . S
H2463 C2492 0.950 . S
H2464 C2494 0.950 . S
H2465 C2495 0.950 . S
C2466 H2448 0.951 . S
C2466 C2467 1.366 1_545 S
C2466 C2468 1.388 . S
C2467 C2466 1.366 1_565 S
C2467 C2471 1.385 . S
C2468 H2449 0.951 . S
C2468 C2466 1.388 . S
C2468 C2469 1.366 1_545 S
C2469 C2468 1.366 1_565 S
C2469 C2470 1.414 . S
C2469 C2472 1.499 . S
C2470 H2450 0.950 . S
C2470 C2469 1.414 . S
C2470 C2471 1.374 . S
C2471 H2451 0.950 . S
C2471 C2467 1.385 . S
C2471 C2470 1.374 . S
C2472 C2469 1.499 . S
C2472 C2473 1.373 . S
C2472 C2474 1.389 1_565 S
C2473 H2452 0.950 . S
C2473 C2472 1.373 . S
C2473 C2489 1.377 . S
C2474 C2472 1.389 1_545 S
C2474 C2475 1.524 . S
C2474 C2488 1.377 . S
C2475 C2474 1.524 . S
C2475 C2476 1.397 . S
C2475 C2480 1.363 . S
C2476 H2453 0.950 . S
C2476 C2475 1.397 . S
C2476 C2477 1.334 . S
C2477 H2454 0.950 . S
C2477 C2476 1.334 . S
C2477 C2478 1.287 . S
C2478 C2477 1.287 . S
C2478 C2479 1.524 . S
C2478 H2497 0.913 . S
C2479 H2455 0.950 . S
C2479 C2478 1.524 . S
C2479 C2480 1.415 . S
C2480 H2456 0.950 . S
C2480 C2475 1.363 . S
C2480 C2479 1.415 . S
C2481 H2457 0.951 . S
C2481 C2482 1.366 1_565 S
C2481 C2483 1.388 . S
C2482 C2481 1.366 1_545 S
C2482 C2486 1.385 . S
C2483 H2458 0.951 . S
C2483 C2481 1.388 . S
C2483 C2484 1.366 1_565 S
C2484 C2483 1.366 1_545 S
C2484 C2485 1.414 . S
C2484 C2487 1.499 . S
C2485 H2459 0.950 . S
C2485 C2484 1.414 . S
C2485 C2486 1.374 . S
C2486 H2460 0.950 . S
C2486 C2482 1.385 . S
C2486 C2485 1.374 . S
C2487 C2484 1.499 . S
C2487 C2488 1.373 . S
C2487 C2489 1.389 1_545 S
C2488 H2461 0.950 . S
C2488 C2474 1.377 . S
C2488 C2487 1.373 . S
C2489 C2473 1.377 . S
C2489 C2487 1.389 1_565 S
C2489 C2490 1.524 . S
C2490 C2489 1.524 . S
C2490 C2491 1.397 . S
C2490 C2495 1.363 . S
C2491 H2462 0.950 . S
C2491 C2490 1.397 . S
C2491 C2492 1.334 . S
C2492 H2463 0.950 . S
C2492 C2491 1.334 . S
C2492 C2493 1.287 . S
C2493 C2492 1.287 . S
C2493 C2494 1.524 . S
C2493 H2496 0.999 . S
C2494 H2464 0.950 . S
C2494 C2493 1.524 . S
C2494 C2495 1.415 . S
C2495 H2465 0.950 . S
C2495 C2490 1.363 . S
C2495 C2494 1.415 . S
H2496 C2493 0.999 . S
H2497 C2478 0.913 . S
H2498 C2516 0.951 . S
H2499 C2518 0.951 . S
H2500 C2520 0.950 . S
H2501 C2521 0.950 . S
H2502 C2523 0.950 . S
H2503 C2526 0.950 . S
H2504 C2527 0.950 . S
H2505 C2529 0.950 . S
H2506 C2530 0.950 . S
H2507 C2531 0.951 . S
H2508 C2533 0.951 . S
H2509 C2535 0.950 . S
H2510 C2536 0.950 . S
H2511 C2538 0.950 . S
H2512 C2541 0.950 . S
H2513 C2542 0.950 . S
H2514 C2544 0.950 . S
H2515 C2545 0.950 . S
C2516 H2498 0.951 . S
C2516 C2517 1.366 . S
C2516 C2518 1.388 . S
C2517 C2516 1.366 . S
C2517 C2521 1.385 . S
C2518 H2499 0.951 . S
C2518 C2516 1.388 . S
C2518 C2519 1.366 . S
C2519 C2518 1.366 . S
C2519 C2520 1.414 . S
C2519 C2522 1.499 . S
C2520 H2500 0.950 . S
C2520 C2519 1.414 . S
C2520 C2521 1.374 . S
C2521 H2501 0.950 . S
C2521 C2517 1.385 . S
C2521 C2520 1.374 . S
C2522 C2519 1.499 . S
C2522 C2523 1.373 . S
C2522 C2524 1.389 . S
C2523 H2502 0.950 . S
C2523 C2522 1.373 . S
C2523 C2539 1.377 . S
C2524 C2522 1.389 . S
C2524 C2525 1.524 . S
C2524 C2538 1.377 . S
C2525 C2524 1.524 . S
C2525 C2526 1.397 . S
C2525 C2530 1.363 . S
C2526 H2503 0.950 . S
C2526 C2525 1.397 . S
C2526 C2527 1.334 . S
C2527 H2504 0.950 . S
C2527 C2526 1.334 . S
C2527 C2528 1.287 . S
C2528 C2527 1.287 . S
C2528 C2529 1.524 . S
C2528 H2547 0.913 . S
C2529 H2505 0.950 . S
C2529 C2528 1.524 . S
C2529 C2530 1.415 . S
C2530 H2506 0.950 . S
C2530 C2525 1.363 . S
C2530 C2529 1.415 . S
C2531 H2507 0.951 . S
C2531 C2532 1.366 . S
C2531 C2533 1.388 . S
C2532 C2531 1.366 . S
C2532 C2536 1.385 . S
C2533 H2508 0.951 . S
C2533 C2531 1.388 . S
C2533 C2534 1.366 . S
C2534 C2533 1.366 . S
C2534 C2535 1.414 . S
C2534 C2537 1.499 1_556 S
C2535 H2509 0.950 . S
C2535 C2534 1.414 . S
C2535 C2536 1.374 . S
C2536 H2510 0.950 . S
C2536 C2532 1.385 . S
C2536 C2535 1.374 . S
C2537 C2534 1.499 1_554 S
C2537 C2538 1.373 . S
C2537 C2539 1.389 . S
C2538 H2511 0.950 . S
C2538 C2524 1.377 . S
C2538 C2537 1.373 . S
C2539 C2523 1.377 . S
C2539 C2537 1.389 . S
C2539 C2540 1.524 . S
C2540 C2539 1.524 . S
C2540 C2541 1.397 . S
C2540 C2545 1.363 . S
C2541 H2512 0.950 . S
C2541 C2540 1.397 . S
C2541 C2542 1.334 1_554 S
C2542 H2513 0.950 . S
C2542 C2541 1.334 1_556 S
C2542 C2543 1.287 1_556 S
C2543 C2542 1.287 1_554 S
C2543 C2544 1.524 . S
C2543 H2546 0.999 1_554 S
C2544 H2514 0.950 . S
C2544 C2543 1.524 . S
C2544 C2545 1.415 . S
C2545 H2515 0.950 . S
C2545 C2540 1.363 . S
C2545 C2544 1.415 . S
H2546 C2543 0.999 1_556 S
H2547 C2528 0.913 . S
H2548 C2566 0.929 1_545 S
H2549 C2568 0.951 . S
H2550 C2570 0.950 . S
H2551 C2571 0.950 . S
H2552 C2573 0.950 . S
H2553 C2576 0.950 . S
H2554 C2577 0.950 . S
H2555 C2579 0.950 . S
H2556 C2580 0.950 . S
H2557 C2581 0.928 1_565 S
H2558 C2583 0.951 . S
H2559 C2585 0.950 . S
H2560 C2586 0.950 . S
H2561 C2588 0.950 . S
H2562 C2591 0.950 . S
H2563 C2592 0.950 . S
H2564 C2594 0.950 . S
H2565 C2595 0.950 . S
C2566 H2548 0.929 1_565 S
C2566 C2567 1.400 . S
C2566 C2568 1.379 1_565 S
C2567 C2566 1.400 . S
C2567 C2571 1.385 . S
C2568 H2549 0.951 . S
C2568 C2566 1.379 1_545 S
C2568 C2569 1.366 1_545 S
C2569 C2568 1.366 1_565 S
C2569 C2570 1.414 . S
C2569 C2572 1.499 . S
C2570 H2550 0.950 . S
C2570 C2569 1.414 . S
C2570 C2571 1.374 . S
C2571 H2551 0.950 . S
C2571 C2567 1.385 . S
C2571 C2570 1.374 . S
C2572 C2569 1.499 . S
C2572 C2573 1.373 . S
C2572 C2574 1.389 1_565 S
C2573 H2552 0.950 . S
C2573 C2572 1.373 . S
C2573 C2589 1.377 . S
C2574 C2572 1.389 1_545 S
C2574 C2575 1.524 . S
C2574 C2588 1.377 . S
C2575 C2574 1.524 . S
C2575 C2576 1.397 . S
C2575 C2580 1.363 . S
C2576 H2553 0.950 . S
C2576 C2575 1.397 . S
C2576 C2577 1.334 . S
C2577 H2554 0.950 . S
C2577 C2576 1.334 . S
C2577 C2578 1.287 . S
C2578 C2577 1.287 . S
C2578 C2579 1.524 . S
C2578 H2597 0.913 . S
C2579 H2555 0.950 . S
C2579 C2578 1.524 . S
C2579 C2580 1.415 . S
C2580 H2556 0.950 . S
C2580 C2575 1.363 . S
C2580 C2579 1.415 . S
C2581 H2557 0.928 1_545 S
C2581 C2582 1.401 . S
C2581 C2583 1.379 1_545 S
C2582 C2581 1.401 . S
C2582 C2586 1.385 . S
C2583 H2558 0.951 . S
C2583 C2581 1.379 1_565 S
C2583 C2584 1.366 1_565 S
C2584 C2583 1.366 1_545 S
C2584 C2585 1.414 . S
C2584 C2587 1.499 . S
C2585 H2559 0.950 . S
C2585 C2584 1.414 . S
C2585 C2586 1.374 . S
C2586 H2560 0.950 . S
C2586 C2582 1.385 . S
C2586 C2585 1.374 . S
C2587 C2584 1.499 . S
C2587 C2588 1.373 . S
C2587 C2589 1.389 1_545 S
C2588 H2561 0.950 . S
C2588 C2574 1.377 . S
C2588 C2587 1.373 . S
C2589 C2573 1.377 . S
C2589 C2587 1.389 1_565 S
C2589 C2590 1.524 . S
C2590 C2589 1.524 . S
C2590 C2591 1.397 . S
C2590 C2595 1.363 . S
C2591 H2562 0.950 . S
C2591 C2590 1.397 . S
C2591 C2592 1.334 . S
C2592 H2563 0.950 . S
C2592 C2591 1.334 . S
C2592 C2593 1.287 . S
C2593 C2592 1.287 . S
C2593 C2594 1.524 . S
C2593 H2596 0.999 . S
C2594 H2564 0.950 . S
C2594 C2593 1.524 . S
C2594 C2595 1.415 . S
C2595 H2565 0.950 . S
C2595 C2590 1.363 . S
C2595 C2594 1.415 . S
H2596 C2593 0.999 . S
H2597 C2578 0.913 . S
H2598 C2616 0.951 . S
H2599 C2618 0.951 . S
H2600 C2620 0.950 . S
H2601 C2621 0.950 . S
H2602 C2623 0.950 . S
H2603 C2626 0.950 . S
H2604 C2627 0.950 . S
H2605 C2629 0.950 . S
H2606 C2630 0.950 . S
H2607 C2631 0.951 . S
H2608 C2633 0.951 . S
H2609 C2635 0.950 . S
H2610 C2636 0.950 . S
H2611 C2638 0.950 . S
H2612 C2641 0.950 . S
H2613 C2642 0.950 . S
H2614 C2644 0.950 . S
H2615 C2645 0.950 . S
C2616 H2598 0.951 . S
C2616 C2617 1.366 . S
C2616 C2618 1.388 . S
C2617 C2616 1.366 . S
C2617 C2621 1.385 . S
C2618 H2599 0.951 . S
C2618 C2616 1.388 . S
C2618 C2619 1.366 . S
C2619 C2618 1.366 . S
C2619 C2620 1.414 . S
C2619 C2622 1.499 . S
C2620 H2600 0.950 . S
C2620 C2619 1.414 . S
C2620 C2621 1.374 . S
C2621 H2601 0.950 . S
C2621 C2617 1.385 . S
C2621 C2620 1.374 . S
C2622 C2619 1.499 . S
C2622 C2623 1.373 . S
C2622 C2624 1.389 . S
C2623 H2602 0.950 . S
C2623 C2622 1.373 . S
C2623 C2639 1.377 . S
C2624 C2622 1.389 . S
C2624 C2625 1.524 . S
C2624 C2638 1.377 . S
C2625 C2624 1.524 . S
C2625 C2626 1.397 . S
C2625 C2630 1.363 . S
C2626 H2603 0.950 . S
C2626 C2625 1.397 . S
C2626 C2627 1.334 . S
C2627 H2604 0.950 . S
C2627 C2626 1.334 . S
C2627 C2628 1.287 . S
C2628 C2627 1.287 . S
C2628 C2629 1.524 . S
C2628 H2647 0.913 . S
C2629 H2605 0.950 . S
C2629 C2628 1.524 . S
C2629 C2630 1.415 . S
C2630 H2606 0.950 . S
C2630 C2625 1.363 . S
C2630 C2629 1.415 . S
C2631 H2607 0.951 . S
C2631 C2632 1.366 . S
C2631 C2633 1.388 . S
C2632 C2631 1.366 . S
C2632 C2636 1.385 . S
C2633 H2608 0.951 . S
C2633 C2631 1.388 . S
C2633 C2634 1.366 . S
C2634 C2633 1.366 . S
C2634 C2635 1.414 . S
C2634 C2637 1.499 . S
C2635 H2609 0.950 . S
C2635 C2634 1.414 . S
C2635 C2636 1.374 . S
C2636 H2610 0.950 . S
C2636 C2632 1.385 . S
C2636 C2635 1.374 . S
C2637 C2634 1.499 . S
C2637 C2638 1.373 . S
C2637 C2639 1.389 . S
C2638 H2611 0.950 . S
C2638 C2624 1.377 . S
C2638 C2637 1.373 . S
C2639 C2623 1.377 . S
C2639 C2637 1.389 . S
C2639 C2640 1.524 . S
C2640 C2639 1.524 . S
C2640 C2641 1.397 . S
C2640 C2645 1.363 . S
C2641 H2612 0.950 . S
C2641 C2640 1.397 . S
C2641 C2642 1.334 . S
C2642 H2613 0.950 . S
C2642 C2641 1.334 . S
C2642 C2643 1.287 . S
C2643 C2642 1.287 . S
C2643 C2644 1.524 . S
C2643 H2646 0.999 . S
C2644 H2614 0.950 . S
C2644 C2643 1.524 . S
C2644 C2645 1.415 . S
C2645 H2615 0.950 . S
C2645 C2640 1.363 . S
C2645 C2644 1.415 . S
H2646 C2643 0.999 . S
H2647 C2628 0.913 . S
H2648 C2666 0.951 . S
H2649 C2668 0.951 . S
H2650 C2670 0.950 . S
H2651 C2671 0.950 . S
H2652 C2673 0.950 . S
H2653 C2676 0.950 1_565 S
H2654 C2677 1.003 . S
H2655 C2679 0.950 . S
H2656 C2680 0.950 . S
H2657 C2681 0.951 . S
H2658 C2683 0.951 . S
H2659 C2685 0.950 . S
H2660 C2686 0.950 . S
H2661 C2688 0.950 . S
H2662 C2691 0.950 1_545 S
H2663 C2692 1.004 . S
H2664 C2694 0.950 . S
H2665 C2695 0.950 . S
C2666 H2648 0.951 . S
C2666 C2667 1.366 1_545 S
C2666 C2668 1.388 . S
C2667 C2666 1.366 1_565 S
C2667 C2671 1.385 . S
C2668 H2649 0.951 . S
C2668 C2666 1.388 . S
C2668 C2669 1.366 1_545 S
C2669 C2668 1.366 1_565 S
C2669 C2670 1.414 . S
C2669 C2672 1.499 . S
C2670 H2650 0.950 . S
C2670 C2669 1.414 . S
C2670 C2671 1.374 . S
C2671 H2651 0.950 . S
C2671 C2667 1.385 . S
C2671 C2670 1.374 . S
C2672 C2669 1.499 . S
C2672 C2673 1.373 . S
C2672 C2674 1.389 1_565 S
C2673 H2652 0.950 . S
C2673 C2672 1.373 . S
C2673 C2689 1.377 . S
C2674 C2672 1.389 1_545 S
C2674 C2675 1.524 . S
C2674 C2688 1.377 . S
C2675 C2674 1.524 . S
C2675 C2676 1.397 . S
C2675 C2680 1.363 . S
C2676 H2653 0.950 1_545 S
C2676 C2675 1.397 . S
C2676 C2677 1.334 . S
C2677 H2654 1.003 . S
C2677 C2676 1.334 . S
C2677 C2678 1.287 . S
C2678 C2677 1.287 . S
C2678 C2679 1.524 . S
C2678 H2697 0.913 . S
C2679 H2655 0.950 . S
C2679 C2678 1.524 . S
C2679 C2680 1.415 . S
C2680 H2656 0.950 . S
C2680 C2675 1.363 . S
C2680 C2679 1.415 . S
C2681 H2657 0.951 . S
C2681 C2682 1.366 1_565 S
C2681 C2683 1.388 . S
C2682 C2681 1.366 1_545 S
C2682 C2686 1.385 . S
C2683 H2658 0.951 . S
C2683 C2681 1.388 . S
C2683 C2684 1.366 1_565 S
C2684 C2683 1.366 1_545 S
C2684 C2685 1.414 . S
C2684 C2687 1.499 . S
C2685 H2659 0.950 . S
C2685 C2684 1.414 . S
C2685 C2686 1.374 . S
C2686 H2660 0.950 . S
C2686 C2682 1.385 . S
C2686 C2685 1.374 . S
C2687 C2684 1.499 . S
C2687 C2688 1.373 . S
C2687 C2689 1.389 1_545 S
C2688 H2661 0.950 . S
C2688 C2674 1.377 . S
C2688 C2687 1.373 . S
C2689 C2673 1.377 . S
C2689 C2687 1.389 1_565 S
C2689 C2690 1.524 . S
C2690 C2689 1.524 . S
C2690 C2691 1.397 . S
C2690 C2695 1.363 . S
C2691 H2662 0.950 1_565 S
C2691 C2690 1.397 . S
C2691 C2692 1.334 . S
C2692 H2663 1.004 . S
C2692 C2691 1.334 . S
C2692 C2693 1.287 . S
C2693 C2692 1.287 . S
C2693 C2694 1.524 . S
C2693 H2696 0.999 . S
C2694 H2664 0.950 . S
C2694 C2693 1.524 . S
C2694 C2695 1.415 . S
C2695 H2665 0.950 . S
C2695 C2690 1.363 . S
C2695 C2694 1.415 . S
H2696 C2693 0.999 . S
H2697 C2678 0.913 . S
H2698 C2716 0.951 . S
H2699 C2718 0.951 . S
H2700 C2720 0.950 . S
H2701 C2721 0.950 . S
H2702 C2723 0.950 . S
H2703 C2726 0.950 . S
H2704 C2727 0.950 . S
H2705 C2729 0.950 . S
H2706 C2730 0.950 . S
H2707 C2731 0.951 . S
H2708 C2733 0.951 . S
H2709 C2735 0.950 . S
H2710 C2736 0.950 . S
H2711 C2738 0.950 . S
H2712 C2741 0.950 1_556 S
H2713 C2742 0.950 . S
H2714 C2744 0.950 . S
H2715 C2745 0.950 . S
C2716 H2698 0.951 . S
C2716 C2717 1.366 . S
C2716 C2718 1.388 . S
C2717 C2716 1.366 . S
C2717 C2721 1.385 . S
C2718 H2699 0.951 . S
C2718 C2716 1.388 . S
C2718 C2719 1.366 . S
C2719 C2718 1.366 . S
C2719 C2720 1.414 . S
C2719 C2722 1.499 . S
C2720 H2700 0.950 . S
C2720 C2719 1.414 . S
C2720 C2721 1.374 . S
C2721 H2701 0.950 . S
C2721 C2717 1.385 . S
C2721 C2720 1.374 . S
C2722 C2719 1.499 . S
C2722 C2723 1.373 . S
C2722 C2724 1.389 . S
C2723 H2702 0.950 . S
C2723 C2722 1.373 . S
C2723 C2739 1.377 . S
C2724 C2722 1.389 . S
C2724 C2725 1.524 . S
C2724 C2738 1.377 . S
C2725 C2724 1.524 . S
C2725 C2726 1.397 . S
C2725 C2730 1.363 . S
C2726 H2703 0.950 . S
C2726 C2725 1.397 . S
C2726 C2727 1.334 . S
C2727 H2704 0.950 . S
C2727 C2726 1.334 . S
C2727 C2728 1.287 . S
C2728 C2727 1.287 . S
C2728 C2729 1.524 . S
C2728 H2747 0.913 . S
C2729 H2705 0.950 . S
C2729 C2728 1.524 . S
C2729 C2730 1.415 . S
C2730 H2706 0.950 . S
C2730 C2725 1.363 . S
C2730 C2729 1.415 . S
C2731 H2707 0.951 . S
C2731 C2732 1.366 . S
C2731 C2733 1.388 . S
C2732 C2731 1.366 . S
C2732 C2736 1.385 . S
C2733 H2708 0.951 . S
C2733 C2731 1.388 . S
C2733 C2734 1.366 . S
C2734 C2733 1.366 . S
C2734 C2735 1.414 . S
C2734 C2737 1.499 1_556 S
C2735 H2709 0.950 . S
C2735 C2734 1.414 . S
C2735 C2736 1.374 . S
C2736 H2710 0.950 . S
C2736 C2732 1.385 . S
C2736 C2735 1.374 . S
C2737 C2734 1.499 1_554 S
C2737 C2738 1.373 . S
C2737 C2739 1.389 . S
C2738 H2711 0.950 . S
C2738 C2724 1.377 . S
C2738 C2737 1.373 . S
C2739 C2723 1.377 . S
C2739 C2737 1.389 . S
C2739 C2740 1.524 . S
C2740 C2739 1.524 . S
C2740 C2741 1.397 . S
C2740 C2745 1.363 . S
C2741 H2712 0.950 1_554 S
C2741 C2740 1.397 . S
C2741 C2742 1.334 1_554 S
C2742 H2713 0.950 . S
C2742 C2741 1.334 1_556 S
C2742 C2743 1.287 . S
C2743 C2742 1.287 . S
C2743 C2744 1.524 1_556 S
C2743 H2746 0.999 . S
C2744 H2714 0.950 . S
C2744 C2743 1.524 1_554 S
C2744 C2745 1.415 . S
C2745 H2715 0.950 . S
C2745 C2740 1.363 . S
C2745 C2744 1.415 . S
H2746 C2743 0.999 . S
H2747 C2728 0.913 . S
H2748 C2766 0.931 1_545 S
H2749 C2768 0.951 . S
H2750 C2770 0.950 . S
H2751 C2771 0.950 . S
H2752 C2773 0.950 . S
H2753 C2776 0.950 . S
H2754 C2777 0.950 . S
H2755 C2779 0.950 . S
H2756 C2780 0.950 . S
H2757 C2781 0.931 1_565 S
H2758 C2783 0.951 . S
H2759 C2785 0.950 . S
H2760 C2786 0.950 . S
H2761 C2788 0.950 . S
H2762 C2791 0.950 . S
H2763 C2792 0.950 . S
H2764 C2794 0.950 . S
H2765 C2795 0.950 . S
C2766 H2748 0.931 1_565 S
C2766 C2767 1.396 . S
C2766 C2768 1.380 1_565 S
C2767 C2766 1.396 . S
C2767 C2771 1.385 . S
C2768 H2749 0.951 . S
C2768 C2766 1.380 1_545 S
C2768 C2769 1.366 1_545 S
C2769 C2768 1.366 1_565 S
C2769 C2770 1.414 . S
C2769 C2772 1.499 . S
C2770 H2750 0.950 . S
C2770 C2769 1.414 . S
C2770 C2771 1.374 . S
C2771 H2751 0.950 . S
C2771 C2767 1.385 . S
C2771 C2770 1.374 . S
C2772 C2769 1.499 . S
C2772 C2773 1.373 . S
C2772 C2774 1.389 1_565 S
C2773 H2752 0.950 . S
C2773 C2772 1.373 . S
C2773 C2789 1.377 . S
C2774 C2772 1.389 1_545 S
C2774 C2775 1.524 . S
C2774 C2788 1.377 . S
C2775 C2774 1.524 . S
C2775 C2776 1.397 . S
C2775 C2780 1.363 . S
C2776 H2753 0.950 . S
C2776 C2775 1.397 . S
C2776 C2777 1.334 . S
C2777 H2754 0.950 . S
C2777 C2776 1.334 . S
C2777 C2778 1.287 . S
C2778 C2777 1.287 . S
C2778 C2779 1.524 . S
C2778 H2797 0.913 . S
C2779 H2755 0.950 . S
C2779 C2778 1.524 . S
C2779 C2780 1.415 . S
C2780 H2756 0.950 . S
C2780 C2775 1.363 . S
C2780 C2779 1.415 . S
C2781 H2757 0.931 1_545 S
C2781 C2782 1.396 . S
C2781 C2783 1.380 1_545 S
C2782 C2781 1.396 . S
C2782 C2786 1.385 . S
C2783 H2758 0.951 . S
C2783 C2781 1.380 1_565 S
C2783 C2784 1.366 1_565 S
C2784 C2783 1.366 1_545 S
C2784 C2785 1.414 . S
C2784 C2787 1.499 . S
C2785 H2759 0.950 . S
C2785 C2784 1.414 . S
C2785 C2786 1.374 . S
C2786 H2760 0.950 . S
C2786 C2782 1.385 . S
C2786 C2785 1.374 . S
C2787 C2784 1.499 . S
C2787 C2788 1.373 . S
C2787 C2789 1.389 1_545 S
C2788 H2761 0.950 . S
C2788 C2774 1.377 . S
C2788 C2787 1.373 . S
C2789 C2773 1.377 . S
C2789 C2787 1.389 1_565 S
C2789 C2790 1.524 . S
C2790 C2789 1.524 . S
C2790 C2791 1.397 . S
C2790 C2795 1.363 . S
C2791 H2762 0.950 . S
C2791 C2790 1.397 . S
C2791 C2792 1.334 . S
C2792 H2763 0.950 . S
C2792 C2791 1.334 . S
C2792 C2793 1.287 . S
C2793 C2792 1.287 . S
C2793 C2794 1.524 . S
C2793 H2796 0.999 . S
C2794 H2764 0.950 . S
C2794 C2793 1.524 . S
C2794 C2795 1.415 . S
C2795 H2765 0.950 . S
C2795 C2790 1.363 . S
C2795 C2794 1.415 . S
H2796 C2793 0.999 . S
H2797 C2778 0.913 . S
H2798 C2816 0.951 . S
H2799 C2818 0.951 . S
H2800 C2820 0.950 . S
H2801 C2821 0.950 . S
H2802 C2823 0.950 . S
H2803 C2826 0.950 . S
H2804 C2827 0.950 . S
H2805 C2829 0.950 . S
H2806 C2830 0.950 . S
H2807 C2831 0.951 . S
H2808 C2833 0.951 . S
H2809 C2835 0.950 . S
H2810 C2836 0.950 . S
H2811 C2838 0.950 . S
H2812 C2841 0.950 . S
H2813 C2842 0.950 . S
H2814 C2844 0.950 . S
H2815 C2845 0.950 . S
C2816 H2798 0.951 . S
C2816 C2817 1.366 . S
C2816 C2818 1.388 . S
C2817 C2816 1.366 . S
C2817 C2821 1.385 . S
C2818 H2799 0.951 . S
C2818 C2816 1.388 . S
C2818 C2819 1.366 . S
C2819 C2818 1.366 . S
C2819 C2820 1.414 . S
C2819 C2822 1.499 . S
C2820 H2800 0.950 . S
C2820 C2819 1.414 . S
C2820 C2821 1.374 . S
C2821 H2801 0.950 . S
C2821 C2817 1.385 . S
C2821 C2820 1.374 . S
C2822 C2819 1.499 . S
C2822 C2823 1.373 . S
C2822 C2824 1.389 . S
C2823 H2802 0.950 . S
C2823 C2822 1.373 . S
C2823 C2839 1.377 . S
C2824 C2822 1.389 . S
C2824 C2825 1.524 . S
C2824 C2838 1.377 . S
C2825 C2824 1.524 . S
C2825 C2826 1.397 . S
C2825 C2830 1.363 . S
C2826 H2803 0.950 . S
C2826 C2825 1.397 . S
C2826 C2827 1.334 . S
C2827 H2804 0.950 . S
C2827 C2826 1.334 . S
C2827 C2828 1.287 . S
C2828 C2827 1.287 . S
C2828 C2829 1.524 . S
C2828 H2847 0.913 . S
C2829 H2805 0.950 . S
C2829 C2828 1.524 . S
C2829 C2830 1.415 . S
C2830 H2806 0.950 . S
C2830 C2825 1.363 . S
C2830 C2829 1.415 . S
C2831 H2807 0.951 . S
C2831 C2832 1.366 . S
C2831 C2833 1.388 . S
C2832 C2831 1.366 . S
C2832 C2836 1.385 . S
C2833 H2808 0.951 . S
C2833 C2831 1.388 . S
C2833 C2834 1.366 . S
C2834 C2833 1.366 . S
C2834 C2835 1.414 . S
C2834 C2837 1.499 . S
C2835 H2809 0.950 . S
C2835 C2834 1.414 . S
C2835 C2836 1.374 . S
C2836 H2810 0.950 . S
C2836 C2832 1.385 . S
C2836 C2835 1.374 . S
C2837 C2834 1.499 . S
C2837 C2838 1.373 . S
C2837 C2839 1.389 . S
C2838 H2811 0.950 . S
C2838 C2824 1.377 . S
C2838 C2837 1.373 . S
C2839 C2823 1.377 . S
C2839 C2837 1.389 . S
C2839 C2840 1.524 . S
C2840 C2839 1.524 . S
C2840 C2841 1.397 . S
C2840 C2845 1.363 . S
C2841 H2812 0.950 . S
C2841 C2840 1.397 . S
C2841 C2842 1.334 . S
C2842 H2813 0.950 . S
C2842 C2841 1.334 . S
C2842 C2843 1.287 . S
C2843 C2842 1.287 . S
C2843 C2844 1.524 . S
C2843 H2846 0.999 . S
C2844 H2814 0.950 . S
C2844 C2843 1.524 . S
C2844 C2845 1.415 . S
C2845 H2815 0.950 . S
C2845 C2840 1.363 . S
C2845 C2844 1.415 . S
H2846 C2843 0.999 . S
H2847 C2828 0.913 . S
H2848 C2866 0.951 . S
H2849 C2868 0.951 . S
H2850 C2870 0.950 . S
H2851 C2871 0.950 . S
H2852 C2873 0.950 . S
H2853 C2876 0.950 . S
H2854 C2877 0.950 . S
H2855 C2879 0.950 . S
H2856 C2880 0.950 . S
H2857 C2881 0.951 . S
H2858 C2883 0.951 . S
H2859 C2885 0.950 . S
H2860 C2886 0.950 . S
H2861 C2888 0.950 . S
H2862 C2891 0.950 . S
H2863 C2892 0.950 . S
H2864 C2894 0.950 . S
H2865 C2895 0.950 . S
C2866 H2848 0.951 . S
C2866 C2867 1.366 . S
C2866 C2868 1.388 . S
C2867 C2866 1.366 . S
C2867 C2871 1.385 . S
C2868 H2849 0.951 . S
C2868 C2866 1.388 . S
C2868 C2869 1.366 . S
C2869 C2868 1.366 . S
C2869 C2870 1.414 . S
C2869 C2872 1.499 . S
C2870 H2850 0.950 . S
C2870 C2869 1.414 . S
C2870 C2871 1.374 . S
C2871 H2851 0.950 . S
C2871 C2867 1.385 . S
C2871 C2870 1.374 . S
C2872 C2869 1.499 . S
C2872 C2873 1.373 . S
C2872 C2874 1.389 . S
C2873 H2852 0.950 . S
C2873 C2872 1.373 . S
C2873 C2889 1.377 . S
C2874 C2872 1.389 . S
C2874 C2875 1.524 . S
C2874 C2888 1.377 . S
C2875 C2874 1.524 . S
C2875 C2876 1.397 . S
C2875 C2880 1.363 . S
C2876 H2853 0.950 . S
C2876 C2875 1.397 . S
C2876 C2877 1.334 . S
C2877 H2854 0.950 . S
C2877 C2876 1.334 . S
C2877 C2878 1.287 . S
C2878 C2877 1.287 . S
C2878 C2879 1.524 . S
C2878 H2897 0.913 . S
C2879 H2855 0.950 . S
C2879 C2878 1.524 . S
C2879 C2880 1.415 . S
C2880 H2856 0.950 . S
C2880 C2875 1.363 . S
C2880 C2879 1.415 . S
C2881 H2857 0.951 . S
C2881 C2882 1.366 . S
C2881 C2883 1.388 . S
C2882 C2881 1.366 . S
C2882 C2886 1.385 . S
C2883 H2858 0.951 . S
C2883 C2881 1.388 . S
C2883 C2884 1.366 . S
C2884 C2883 1.366 . S
C2884 C2885 1.414 . S
C2884 C2887 1.499 . S
C2885 H2859 0.950 . S
C2885 C2884 1.414 . S
C2885 C2886 1.374 . S
C2886 H2860 0.950 . S
C2886 C2882 1.385 . S
C2886 C2885 1.374 . S
C2887 C2884 1.499 . S
C2887 C2888 1.373 . S
C2887 C2889 1.389 . S
C2888 H2861 0.950 . S
C2888 C2874 1.377 . S
C2888 C2887 1.373 . S
C2889 C2873 1.377 . S
C2889 C2887 1.389 . S
C2889 C2890 1.524 . S
C2890 C2889 1.524 . S
C2890 C2891 1.397 . S
C2890 C2895 1.363 . S
C2891 H2862 0.950 . S
C2891 C2890 1.397 . S
C2891 C2892 1.334 . S
C2892 H2863 0.950 . S
C2892 C2891 1.334 . S
C2892 C2893 1.287 . S
C2893 C2892 1.287 . S
C2893 C2894 1.524 . S
C2893 H2896 0.999 . S
C2894 H2864 0.950 . S
C2894 C2893 1.524 . S
C2894 C2895 1.415 . S
C2895 H2865 0.950 . S
C2895 C2890 1.363 . S
C2895 C2894 1.415 . S
H2896 C2893 0.999 . S
H2897 C2878 0.913 . S
H2898 C2916 0.951 . S
H2899 C2918 0.951 . S
H2900 C2920 0.950 . S
H2901 C2921 0.950 . S
H2902 C2923 0.950 . S
H2903 C2926 0.950 . S
H2904 C2927 0.950 . S
H2905 C2929 0.950 . S
H2906 C2930 0.950 . S
H2907 C2931 0.951 . S
H2908 C2933 0.951 . S
H2909 C2935 0.950 . S
H2910 C2936 0.950 . S
H2911 C2938 0.950 . S
H2912 C2941 0.950 . S
H2913 C2942 0.950 . S
H2914 C2944 0.950 . S
H2915 C2945 0.950 . S
C2916 H2898 0.951 . S
C2916 C2917 1.366 . S
C2916 C2918 1.388 . S
C2917 C2916 1.366 . S
C2917 C2921 1.385 . S
C2918 H2899 0.951 . S
C2918 C2916 1.388 . S
C2918 C2919 1.366 . S
C2919 C2918 1.366 . S
C2919 C2920 1.414 . S
C2919 C2922 1.499 . S
C2920 H2900 0.950 . S
C2920 C2919 1.414 . S
C2920 C2921 1.374 . S
C2921 H2901 0.950 . S
C2921 C2917 1.385 . S
C2921 C2920 1.374 . S
C2922 C2919 1.499 . S
C2922 C2923 1.373 . S
C2922 C2924 1.389 . S
C2923 H2902 0.950 . S
C2923 C2922 1.373 . S
C2923 C2939 1.377 . S
C2924 C2922 1.389 . S
C2924 C2925 1.524 . S
C2924 C2938 1.377 . S
C2925 C2924 1.524 . S
C2925 C2926 1.397 . S
C2925 C2930 1.363 . S
C2926 H2903 0.950 . S
C2926 C2925 1.397 . S
C2926 C2927 1.334 . S
C2927 H2904 0.950 . S
C2927 C2926 1.334 . S
C2927 C2928 1.287 . S
C2928 C2927 1.287 . S
C2928 C2929 1.524 . S
C2928 H2947 0.913 . S
C2929 H2905 0.950 . S
C2929 C2928 1.524 . S
C2929 C2930 1.415 . S
C2930 H2906 0.950 . S
C2930 C2925 1.363 . S
C2930 C2929 1.415 . S
C2931 H2907 0.951 . S
C2931 C2932 1.366 . S
C2931 C2933 1.388 . S
C2932 C2931 1.366 . S
C2932 C2936 1.385 . S
C2933 H2908 0.951 . S
C2933 C2931 1.388 . S
C2933 C2934 1.366 . S
C2934 C2933 1.366 . S
C2934 C2935 1.414 . S
C2934 C2937 1.499 . S
C2935 H2909 0.950 . S
C2935 C2934 1.414 . S
C2935 C2936 1.374 . S
C2936 H2910 0.950 . S
C2936 C2932 1.385 . S
C2936 C2935 1.374 . S
C2937 C2934 1.499 . S
C2937 C2938 1.373 . S
C2937 C2939 1.389 . S
C2938 H2911 0.950 . S
C2938 C2924 1.377 . S
C2938 C2937 1.373 . S
C2939 C2923 1.377 . S
C2939 C2937 1.389 . S
C2939 C2940 1.524 . S
C2940 C2939 1.524 . S
C2940 C2941 1.397 . S
C2940 C2945 1.363 . S
C2941 H2912 0.950 . S
C2941 C2940 1.397 . S
C2941 C2942 1.334 . S
C2942 H2913 0.950 . S
C2942 C2941 1.334 . S
C2942 C2943 1.287 . S
C2943 C2942 1.287 . S
C2943 C2944 1.524 . S
C2943 H2946 0.999 . S
C2944 H2914 0.950 . S
C2944 C2943 1.524 . S
C2944 C2945 1.415 . S
C2945 H2915 0.950 . S
C2945 C2940 1.363 . S
C2945 C2944 1.415 . S
H2946 C2943 0.999 . S
H2947 C2928 0.913 . S
H2948 C2966 0.951 . S
H2949 C2968 0.951 . S
H2950 C2970 0.950 . S
H2951 C2971 0.950 . S
H2952 C2973 0.950 . S
H2953 C2976 0.950 . S
H2954 C2977 0.950 . S
H2955 C2979 0.950 . S
H2956 C2980 0.950 . S
H2957 C2981 0.951 . S
H2958 C2983 0.951 . S
H2959 C2985 0.950 . S
H2960 C2986 0.950 . S
H2961 C2988 0.950 . S
H2962 C2991 0.950 . S
H2963 C2992 0.950 . S
H2964 C2994 0.950 . S
H2965 C2995 0.950 . S
C2966 H2948 0.951 . S
C2966 C2967 1.366 . S
C2966 C2968 1.388 . S
C2967 C2966 1.366 . S
C2967 C2971 1.385 . S
C2968 H2949 0.951 . S
C2968 C2966 1.388 . S
C2968 C2969 1.366 . S
C2969 C2968 1.366 . S
C2969 C2970 1.414 . S
C2969 C2972 1.499 . S
C2970 H2950 0.950 . S
C2970 C2969 1.414 . S
C2970 C2971 1.374 . S
C2971 H2951 0.950 . S
C2971 C2967 1.385 . S
C2971 C2970 1.374 . S
C2972 C2969 1.499 . S
C2972 C2973 1.373 . S
C2972 C2974 1.389 . S
C2973 H2952 0.950 . S
C2973 C2972 1.373 . S
C2973 C2989 1.377 . S
C2974 C2972 1.389 . S
C2974 C2975 1.524 . S
C2974 C2988 1.377 . S
C2975 C2974 1.524 . S
C2975 C2976 1.397 . S
C2975 C2980 1.363 . S
C2976 H2953 0.950 . S
C2976 C2975 1.397 . S
C2976 C2977 1.334 . S
C2977 H2954 0.950 . S
C2977 C2976 1.334 . S
C2977 C2978 1.287 . S
C2978 C2977 1.287 . S
C2978 C2979 1.524 . S
C2978 H2997 0.913 . S
C2979 H2955 0.950 . S
C2979 C2978 1.524 . S
C2979 C2980 1.415 . S
C2980 H2956 0.950 . S
C2980 C2975 1.363 . S
C2980 C2979 1.415 . S
C2981 H2957 0.951 . S
C2981 C2982 1.366 . S
C2981 C2983 1.388 . S
C2982 C2981 1.366 . S
C2982 C2986 1.385 . S
C2983 H2958 0.951 . S
C2983 C2981 1.388 . S
C2983 C2984 1.366 . S
C2984 C2983 1.366 . S
C2984 C2985 1.414 . S
C2984 C2987 1.499 . S
C2985 H2959 0.950 . S
C2985 C2984 1.414 . S
C2985 C2986 1.374 . S
C2986 H2960 0.950 . S
C2986 C2982 1.385 . S
C2986 C2985 1.374 . S
C2987 C2984 1.499 . S
C2987 C2988 1.373 . S
C2987 C2989 1.389 . S
C2988 H2961 0.950 . S
C2988 C2974 1.377 . S
C2988 C2987 1.373 . S
C2989 C2973 1.377 . S
C2989 C2987 1.389 . S
C2989 C2990 1.524 . S
C2990 C2989 1.524 . S
C2990 C2991 1.397 . S
C2990 C2995 1.363 . S
C2991 H2962 0.950 . S
C2991 C2990 1.397 . S
C2991 C2992 1.334 . S
C2992 H2963 0.950 . S
C2992 C2991 1.334 . S
C2992 C2993 1.287 . S
C2993 C2992 1.287 . S
C2993 C2994 1.524 . S
C2993 H2996 0.999 . S
C2994 H2964 0.950 . S
C2994 C2993 1.524 . S
C2994 C2995 1.415 . S
C2995 H2965 0.950 . S
C2995 C2990 1.363 . S
C2995 C2994 1.415 . S
H2996 C2993 0.999 . S
H2997 C2978 0.913 . S
H2998 C3016 0.951 . S
H2999 C3018 0.951 . S
H3000 C3020 0.950 . S
H3001 C3021 0.950 . S
H3002 C3023 0.950 . S
H3003 C3026 0.950 . S
H3004 C3027 0.950 . S
H3005 C3029 0.950 . S
H3006 C3030 0.950 . S
H3007 C3031 0.951 . S
H3008 C3033 0.951 . S
H3009 C3035 0.950 . S
H3010 C3036 0.950 . S
H3011 C3038 0.950 . S
H3012 C3041 0.950 . S
H3013 C3042 0.950 . S
H3014 C3044 0.950 . S
H3015 C3045 0.950 . S
C3016 H2998 0.951 . S
C3016 C3017 1.366 . S
C3016 C3018 1.388 . S
C3017 C3016 1.366 . S
C3017 C3021 1.385 . S
C3018 H2999 0.951 . S
C3018 C3016 1.388 . S
C3018 C3019 1.366 . S
C3019 C3018 1.366 . S
C3019 C3020 1.414 . S
C3019 C3022 1.499 . S
C3020 H3000 0.950 . S
C3020 C3019 1.414 . S
C3020 C3021 1.374 . S
C3021 H3001 0.950 . S
C3021 C3017 1.385 . S
C3021 C3020 1.374 . S
C3022 C3019 1.499 . S
C3022 C3023 1.373 . S
C3022 C3024 1.389 . S
C3023 H3002 0.950 . S
C3023 C3022 1.373 . S
C3023 C3039 1.377 . S
C3024 C3022 1.389 . S
C3024 C3025 1.524 . S
C3024 C3038 1.377 . S
C3025 C3024 1.524 . S
C3025 C3026 1.397 . S
C3025 C3030 1.363 . S
C3026 H3003 0.950 . S
C3026 C3025 1.397 . S
C3026 C3027 1.334 . S
C3027 H3004 0.950 . S
C3027 C3026 1.334 . S
C3027 C3028 1.287 . S
C3028 C3027 1.287 . S
C3028 C3029 1.524 . S
C3028 H3047 0.913 . S
C3029 H3005 0.950 . S
C3029 C3028 1.524 . S
C3029 C3030 1.415 . S
C3030 H3006 0.950 . S
C3030 C3025 1.363 . S
C3030 C3029 1.415 . S
C3031 H3007 0.951 . S
C3031 C3032 1.366 . S
C3031 C3033 1.388 . S
C3032 C3031 1.366 . S
C3032 C3036 1.385 1_554 S
C3033 H3008 0.951 . S
C3033 C3031 1.388 . S
C3033 C3034 1.366 1_554 S
C3034 C3033 1.366 1_556 S
C3034 C3035 1.414 . S
C3034 C3037 1.499 . S
C3035 H3009 0.950 . S
C3035 C3034 1.414 . S
C3035 C3036 1.374 . S
C3036 H3010 0.950 . S
C3036 C3032 1.385 1_556 S
C3036 C3035 1.374 . S
C3037 C3034 1.499 . S
C3037 C3038 1.373 . S
C3037 C3039 1.389 . S
C3038 H3011 0.950 . S
C3038 C3024 1.377 . S
C3038 C3037 1.373 . S
C3039 C3023 1.377 . S
C3039 C3037 1.389 . S
C3039 C3040 1.524 1_556 S
C3040 C3039 1.524 1_554 S
C3040 C3041 1.397 . S
C3040 C3045 1.363 . S
C3041 H3012 0.950 . S
C3041 C3040 1.397 . S
C3041 C3042 1.334 . S
C3042 H3013 0.950 . S
C3042 C3041 1.334 . S
C3042 C3043 1.287 . S
C3043 C3042 1.287 . S
C3043 C3044 1.524 . S
C3043 H3046 0.999 . S
C3044 H3014 0.950 . S
C3044 C3043 1.524 . S
C3044 C3045 1.415 . S
C3045 H3015 0.950 . S
C3045 C3040 1.363 . S
C3045 C3044 1.415 . S
H3046 C3043 0.999 . S
H3047 C3028 0.913 . S
H3048 C3066 0.951 . S
H3049 C3068 0.951 . S
H3050 C3070 0.950 . S
H3051 C3071 0.950 . S
H3052 C3073 0.950 . S
H3053 C3076 0.950 . S
H3054 C3077 0.950 . S
H3055 C3079 0.950 . S
H3056 C3080 0.950 . S
H3057 C3081 0.951 . S
H3058 C3083 0.951 . S
H3059 C3085 0.950 . S
H3060 C3086 0.950 . S
H3061 C3088 0.950 . S
H3062 C3091 0.950 . S
H3063 C3092 0.950 . S
H3064 C3094 0.950 . S
H3065 C3095 0.950 . S
C3066 H3048 0.951 . S
C3066 C3067 1.366 . S
C3066 C3068 1.388 . S
C3067 C3066 1.366 . S
C3067 C3071 1.385 . S
C3068 H3049 0.951 . S
C3068 C3066 1.388 . S
C3068 C3069 1.366 . S
C3069 C3068 1.366 . S
C3069 C3070 1.414 . S
C3069 C3072 1.499 . S
C3070 H3050 0.950 . S
C3070 C3069 1.414 . S
C3070 C3071 1.374 . S
C3071 H3051 0.950 . S
C3071 C3067 1.385 . S
C3071 C3070 1.374 . S
C3072 C3069 1.499 . S
C3072 C3073 1.373 . S
C3072 C3074 1.389 . S
C3073 H3052 0.950 . S
C3073 C3072 1.373 . S
C3073 C3089 1.377 . S
C3074 C3072 1.389 . S
C3074 C3075 1.524 . S
C3074 C3088 1.377 . S
C3075 C3074 1.524 . S
C3075 C3076 1.397 . S
C3075 C3080 1.363 . S
C3076 H3053 0.950 . S
C3076 C3075 1.397 . S
C3076 C3077 1.334 . S
C3077 H3054 0.950 . S
C3077 C3076 1.334 . S
C3077 C3078 1.287 . S
C3078 C3077 1.287 . S
C3078 C3079 1.524 . S
C3078 H3097 0.913 . S
C3079 H3055 0.950 . S
C3079 C3078 1.524 . S
C3079 C3080 1.415 . S
C3080 H3056 0.950 . S
C3080 C3075 1.363 . S
C3080 C3079 1.415 . S
C3081 H3057 0.951 . S
C3081 C3082 1.366 . S
C3081 C3083 1.388 . S
C3082 C3081 1.366 . S
C3082 C3086 1.385 . S
C3083 H3058 0.951 . S
C3083 C3081 1.388 . S
C3083 C3084 1.366 . S
C3084 C3083 1.366 . S
C3084 C3085 1.414 . S
C3084 C3087 1.499 . S
C3085 H3059 0.950 . S
C3085 C3084 1.414 . S
C3085 C3086 1.374 . S
C3086 H3060 0.950 . S
C3086 C3082 1.385 . S
C3086 C3085 1.374 . S
C3087 C3084 1.499 . S
C3087 C3088 1.373 . S
C3087 C3089 1.389 . S
C3088 H3061 0.950 . S
C3088 C3074 1.377 . S
C3088 C3087 1.373 . S
C3089 C3073 1.377 . S
C3089 C3087 1.389 . S
C3089 C3090 1.524 . S
C3090 C3089 1.524 . S
C3090 C3091 1.397 . S
C3090 C3095 1.363 . S
C3091 H3062 0.950 . S
C3091 C3090 1.397 . S
C3091 C3092 1.334 . S
C3092 H3063 0.950 . S
C3092 C3091 1.334 . S
C3092 C3093 1.287 . S
C3093 C3092 1.287 . S
C3093 C3094 1.524 . S
C3093 H3096 0.999 . S
C3094 H3064 0.950 . S
C3094 C3093 1.524 . S
C3094 C3095 1.415 . S
C3095 H3065 0.950 . S
C3095 C3090 1.363 . S
C3095 C3094 1.415 . S
H3096 C3093 0.999 . S
H3097 C3078 0.913 . S
H3098 C3116 0.951 . S
H3099 C3118 0.951 . S
H3100 C3120 0.950 . S
H3101 C3121 0.950 . S
H3102 C3123 0.950 . S
H3103 C3126 0.950 . S
H3104 C3127 0.950 . S
H3105 C3129 0.950 . S
H3106 C3130 0.950 . S
H3107 C3131 0.951 . S
H3108 C3133 0.951 . S
H3109 C3135 0.950 . S
H3110 C3136 0.950 . S
H3111 C3138 0.950 . S
H3112 C3141 0.950 . S
H3113 C3142 0.950 . S
H3114 C3144 0.950 . S
H3115 C3145 0.950 . S
C3116 H3098 0.951 . S
C3116 C3117 1.366 . S
C3116 C3118 1.388 . S
C3117 C3116 1.366 . S
C3117 C3121 1.385 . S
C3118 H3099 0.951 . S
C3118 C3116 1.388 . S
C3118 C3119 1.366 . S
C3119 C3118 1.366 . S
C3119 C3120 1.414 . S
C3119 C3122 1.499 . S
C3120 H3100 0.950 . S
C3120 C3119 1.414 . S
C3120 C3121 1.374 . S
C3121 H3101 0.950 . S
C3121 C3117 1.385 . S
C3121 C3120 1.374 . S
C3122 C3119 1.499 . S
C3122 C3123 1.373 . S
C3122 C3124 1.389 . S
C3123 H3102 0.950 . S
C3123 C3122 1.373 . S
C3123 C3139 1.377 . S
C3124 C3122 1.389 . S
C3124 C3125 1.524 . S
C3124 C3138 1.377 . S
C3125 C3124 1.524 . S
C3125 C3126 1.397 . S
C3125 C3130 1.363 . S
C3126 H3103 0.950 . S
C3126 C3125 1.397 . S
C3126 C3127 1.334 . S
C3127 H3104 0.950 . S
C3127 C3126 1.334 . S
C3127 C3128 1.287 . S
C3128 C3127 1.287 . S
C3128 C3129 1.524 . S
C3128 H3147 0.913 . S
C3129 H3105 0.950 . S
C3129 C3128 1.524 . S
C3129 C3130 1.415 . S
C3130 H3106 0.950 . S
C3130 C3125 1.363 . S
C3130 C3129 1.415 . S
C3131 H3107 0.951 . S
C3131 C3132 1.366 . S
C3131 C3133 1.388 . S
C3132 C3131 1.366 . S
C3132 C3136 1.385 . S
C3133 H3108 0.951 . S
C3133 C3131 1.388 . S
C3133 C3134 1.366 . S
C3134 C3133 1.366 . S
C3134 C3135 1.414 . S
C3134 C3137 1.499 . S
C3135 H3109 0.950 . S
C3135 C3134 1.414 . S
C3135 C3136 1.374 . S
C3136 H3110 0.950 . S
C3136 C3132 1.385 . S
C3136 C3135 1.374 . S
C3137 C3134 1.499 . S
C3137 C3138 1.373 . S
C3137 C3139 1.389 . S
C3138 H3111 0.950 . S
C3138 C3124 1.377 . S
C3138 C3137 1.373 . S
C3139 C3123 1.377 . S
C3139 C3137 1.389 . S
C3139 C3140 1.524 . S
C3140 C3139 1.524 . S
C3140 C3141 1.397 . S
C3140 C3145 1.363 . S
C3141 H3112 0.950 . S
C3141 C3140 1.397 . S
C3141 C3142 1.334 . S
C3142 H3113 0.950 . S
C3142 C3141 1.334 . S
C3142 C3143 1.287 . S
C3143 C3142 1.287 . S
C3143 C3144 1.524 . S
C3143 H3146 0.999 . S
C3144 H3114 0.950 . S
C3144 C3143 1.524 . S
C3144 C3145 1.415 . S
C3145 H3115 0.950 . S
C3145 C3140 1.363 . S
C3145 C3144 1.415 . S
H3146 C3143 0.999 . S
H3147 C3128 0.913 . S
H3148 C3166 0.951 . S
H3149 C3168 0.951 . S
H3150 C3170 0.950 . S
H3151 C3171 0.950 . S
H3152 C3173 0.950 . S
H3153 C3176 0.950 . S
H3154 C3177 0.950 . S
H3155 C3179 0.950 . S
H3156 C3180 0.950 . S
H3157 C3181 0.951 . S
H3158 C3183 0.951 . S
H3159 C3185 0.950 . S
H3160 C3186 0.956 . S
H3161 C3188 0.950 . S
H3162 C3191 0.950 . S
H3163 C3192 0.950 . S
H3164 C3194 0.950 . S
H3165 C3195 0.950 1_556 S
C3166 H3148 0.951 . S
C3166 C3167 1.366 . S
C3166 C3168 1.388 . S
C3167 C3166 1.366 . S
C3167 C3171 1.385 . S
C3168 H3149 0.951 . S
C3168 C3166 1.388 . S
C3168 C3169 1.366 . S
C3169 C3168 1.366 . S
C3169 C3170 1.414 . S
C3169 C3172 1.499 . S
C3170 H3150 0.950 . S
C3170 C3169 1.414 . S
C3170 C3171 1.374 . S
C3171 H3151 0.950 . S
C3171 C3167 1.385 . S
C3171 C3170 1.374 . S
C3172 C3169 1.499 . S
C3172 C3173 1.373 . S
C3172 C3174 1.389 . S
C3173 H3152 0.950 . S
C3173 C3172 1.373 . S
C3173 C3189 1.377 . S
C3174 C3172 1.389 . S
C3174 C3175 1.524 . S
C3174 C3188 1.377 . S
C3175 C3174 1.524 . S
C3175 C3176 1.397 . S
C3175 C3180 1.363 . S
C3176 H3153 0.950 . S
C3176 C3175 1.397 . S
C3176 C3177 1.334 . S
C3177 H3154 0.950 . S
C3177 C3176 1.334 . S
C3177 C3178 1.287 . S
C3178 C3177 1.287 . S
C3178 C3179 1.524 . S
C3178 H3197 0.913 . S
C3179 H3155 0.950 . S
C3179 C3178 1.524 . S
C3179 C3180 1.415 . S
C3180 H3156 0.950 . S
C3180 C3175 1.363 . S
C3180 C3179 1.415 . S
C3181 H3157 0.951 . S
C3181 C3182 1.366 . S
C3181 C3183 1.388 1_554 S
C3182 C3181 1.366 . S
C3182 C3186 1.392 . S
C3183 H3158 0.951 . S
C3183 C3181 1.388 1_556 S
C3183 C3184 1.366 . S
C3184 C3183 1.366 . S
C3184 C3185 1.414 . S
C3184 C3187 1.499 . S
C3185 H3159 0.950 . S
C3185 C3184 1.414 . S
C3185 C3186 1.362 1_556 S
C3186 H3160 0.956 . S
C3186 C3182 1.392 . S
C3186 C3185 1.362 1_554 S
C3187 C3184 1.499 . S
C3187 C3188 1.373 . S
C3187 C3189 1.389 . S
C3188 H3161 0.950 . S
C3188 C3174 1.377 . S
C3188 C3187 1.373 . S
C3189 C3173 1.377 . S
C3189 C3187 1.389 . S
C3189 C3190 1.524 1_556 S
C3190 C3189 1.524 1_554 S
C3190 C3191 1.397 . S
C3190 C3195 1.363 . S
C3191 H3162 0.950 . S
C3191 C3190 1.397 . S
C3191 C3192 1.334 . S
C3192 H3163 0.950 . S
C3192 C3191 1.334 . S
C3192 C3193 1.287 . S
C3193 C3192 1.287 . S
C3193 C3194 1.524 . S
C3193 H3196 0.999 . S
C3194 H3164 0.950 . S
C3194 C3193 1.524 . S
C3194 C3195 1.415 . S
C3195 H3165 0.950 1_554 S
C3195 C3190 1.363 . S
C3195 C3194 1.415 . S
H3196 C3193 0.999 . S
H3197 C3178 0.913 . S
H3198 C3216 0.951 . S
H3199 C3218 0.951 . S
H3200 C3220 0.950 . S
H3201 C3221 0.950 . S
H3202 C3223 0.950 . S
H3203 C3226 0.950 . S
H3204 C3227 0.950 . S
H3205 C3229 0.950 . S
H3206 C3230 0.950 . S
H3207 C3231 0.951 . S
H3208 C3233 0.951 . S
H3209 C3235 0.950 . S
H3210 C3236 0.950 . S
H3211 C3238 0.950 . S
H3212 C3241 0.950 . S
H3213 C3242 0.950 . S
H3214 C3244 0.950 . S
H3215 C3245 0.950 . S
C3216 H3198 0.951 . S
C3216 C3217 1.366 . S
C3216 C3218 1.388 . S
C3217 C3216 1.366 . S
C3217 C3221 1.385 . S
C3218 H3199 0.951 . S
C3218 C3216 1.388 . S
C3218 C3219 1.366 . S
C3219 C3218 1.366 . S
C3219 C3220 1.414 . S
C3219 C3222 1.499 . S
C3220 H3200 0.950 . S
C3220 C3219 1.414 . S
C3220 C3221 1.374 . S
C3221 H3201 0.950 . S
C3221 C3217 1.385 . S
C3221 C3220 1.374 . S
C3222 C3219 1.499 . S
C3222 C3223 1.373 . S
C3222 C3224 1.389 . S
C3223 H3202 0.950 . S
C3223 C3222 1.373 . S
C3223 C3239 1.377 . S
C3224 C3222 1.389 . S
C3224 C3225 1.524 . S
C3224 C3238 1.377 . S
C3225 C3224 1.524 . S
C3225 C3226 1.397 . S
C3225 C3230 1.363 . S
C3226 H3203 0.950 . S
C3226 C3225 1.397 . S
C3226 C3227 1.334 . S
C3227 H3204 0.950 . S
C3227 C3226 1.334 . S
C3227 C3228 1.287 . S
C3228 C3227 1.287 . S
C3228 C3229 1.524 . S
C3228 H3247 0.913 . S
C3229 H3205 0.950 . S
C3229 C3228 1.524 . S
C3229 C3230 1.415 . S
C3230 H3206 0.950 . S
C3230 C3225 1.363 . S
C3230 C3229 1.415 . S
C3231 H3207 0.951 . S
C3231 C3232 1.366 . S
C3231 C3233 1.388 . S
C3232 C3231 1.366 . S
C3232 C3236 1.385 . S
C3233 H3208 0.951 . S
C3233 C3231 1.388 . S
C3233 C3234 1.366 . S
C3234 C3233 1.366 . S
C3234 C3235 1.414 . S
C3234 C3237 1.499 . S
C3235 H3209 0.950 . S
C3235 C3234 1.414 . S
C3235 C3236 1.374 . S
C3236 H3210 0.950 . S
C3236 C3232 1.385 . S
C3236 C3235 1.374 . S
C3237 C3234 1.499 . S
C3237 C3238 1.373 . S
C3237 C3239 1.389 . S
C3238 H3211 0.950 . S
C3238 C3224 1.377 . S
C3238 C3237 1.373 . S
C3239 C3223 1.377 . S
C3239 C3237 1.389 . S
C3239 C3240 1.524 . S
C3240 C3239 1.524 . S
C3240 C3241 1.397 . S
C3240 C3245 1.363 . S
C3241 H3212 0.950 . S
C3241 C3240 1.397 . S
C3241 C3242 1.334 . S
C3242 H3213 0.950 . S
C3242 C3241 1.334 . S
C3242 C3243 1.287 . S
C3243 C3242 1.287 . S
C3243 C3244 1.524 . S
C3243 H3246 0.999 . S
C3244 H3214 0.950 . S
C3244 C3243 1.524 . S
C3244 C3245 1.415 . S
C3245 H3215 0.950 . S
C3245 C3240 1.363 . S
C3245 C3244 1.415 . S
H3246 C3243 0.999 . S
H3247 C3228 0.913 . S
H3248 C3266 0.951 . S
H3249 C3268 0.951 . S
H3250 C3270 0.950 . S
H3251 C3271 0.950 . S
H3252 C3273 0.950 . S
H3253 C3276 0.950 . S
H3254 C3277 0.950 . S
H3255 C3279 0.950 . S
H3256 C3280 0.950 . S
H3257 C3281 0.951 . S
H3258 C3283 0.951 . S
H3259 C3285 0.950 . S
H3260 C3286 0.950 . S
H3261 C3288 0.950 . S
H3262 C3291 0.950 . S
H3263 C3292 0.950 . S
H3264 C3294 0.950 . S
H3265 C3295 0.950 . S
C3266 H3248 0.951 . S
C3266 C3267 1.366 . S
C3266 C3268 1.388 . S
C3267 C3266 1.366 . S
C3267 C3271 1.385 1_554 S
C3268 H3249 0.951 . S
C3268 C3266 1.388 . S
C3268 C3269 1.366 1_554 S
C3269 C3268 1.366 1_556 S
C3269 C3270 1.414 . S
C3269 C3272 1.499 . S
C3270 H3250 0.950 . S
C3270 C3269 1.414 . S
C3270 C3271 1.374 . S
C3271 H3251 0.950 . S
C3271 C3267 1.385 1_556 S
C3271 C3270 1.374 . S
C3272 C3269 1.499 . S
C3272 C3273 1.373 . S
C3272 C3274 1.389 . S
C3273 H3252 0.950 . S
C3273 C3272 1.373 . S
C3273 C3289 1.377 . S
C3274 C3272 1.389 . S
C3274 C3275 1.524 . S
C3274 C3288 1.377 . S
C3275 C3274 1.524 . S
C3275 C3276 1.397 . S
C3275 C3280 1.363 1_556 S
C3276 H3253 0.950 . S
C3276 C3275 1.397 . S
C3276 C3277 1.334 1_556 S
C3277 H3254 0.950 . S
C3277 C3276 1.334 1_554 S
C3277 C3278 1.287 . S
C3278 C3277 1.287 . S
C3278 C3279 1.524 . S
C3278 H3297 0.913 . S
C3279 H3255 0.950 . S
C3279 C3278 1.524 . S
C3279 C3280 1.415 . S
C3280 H3256 0.950 . S
C3280 C3275 1.363 1_554 S
C3280 C3279 1.415 . S
C3281 H3257 0.951 . S
C3281 C3282 1.366 . S
C3281 C3283 1.388 . S
C3282 C3281 1.366 . S
C3282 C3286 1.385 . S
C3283 H3258 0.951 . S
C3283 C3281 1.388 . S
C3283 C3284 1.366 . S
C3284 C3283 1.366 . S
C3284 C3285 1.414 . S
C3284 C3287 1.499 . S
C3285 H3259 0.950 . S
C3285 C3284 1.414 . S
C3285 C3286 1.374 . S
C3286 H3260 0.950 . S
C3286 C3282 1.385 . S
C3286 C3285 1.374 . S
C3287 C3284 1.499 . S
C3287 C3288 1.373 . S
C3287 C3289 1.389 . S
C3288 H3261 0.950 . S
C3288 C3274 1.377 . S
C3288 C3287 1.373 . S
C3289 C3273 1.377 . S
C3289 C3287 1.389 . S
C3289 C3290 1.524 . S
C3290 C3289 1.524 . S
C3290 C3291 1.397 . S
C3290 C3295 1.363 . S
C3291 H3262 0.950 . S
C3291 C3290 1.397 . S
C3291 C3292 1.334 . S
C3292 H3263 0.950 . S
C3292 C3291 1.334 . S
C3292 C3293 1.287 . S
C3293 C3292 1.287 . S
C3293 C3294 1.524 . S
C3293 H3296 0.999 . S
C3294 H3264 0.950 . S
C3294 C3293 1.524 . S
C3294 C3295 1.415 . S
C3295 H3265 0.950 . S
C3295 C3290 1.363 . S
C3295 C3294 1.415 . S
H3296 C3293 0.999 . S
H3297 C3278 0.913 . S
H3298 C3316 0.951 . S
H3299 C3318 0.951 . S
H3300 C3320 0.950 . S
H3301 C3321 0.950 . S
H3302 C3323 0.950 . S
H3303 C3326 0.950 . S
H3304 C3327 0.950 . S
H3305 C3329 0.950 . S
H3306 C3330 0.950 . S
H3307 C3331 0.951 . S
H3308 C3333 0.951 . S
H3309 C3335 0.950 . S
H3310 C3336 0.950 . S
H3311 C3338 0.950 . S
H3312 C3341 0.950 . S
H3313 C3342 0.950 . S
H3314 C3344 0.950 . S
H3315 C3345 0.950 . S
C3316 H3298 0.951 . S
C3316 C3317 1.366 . S
C3316 C3318 1.388 . S
C3317 C3316 1.366 . S
C3317 C3321 1.385 . S
C3318 H3299 0.951 . S
C3318 C3316 1.388 . S
C3318 C3319 1.366 . S
C3319 C3318 1.366 . S
C3319 C3320 1.414 . S
C3319 C3322 1.499 . S
C3320 H3300 0.950 . S
C3320 C3319 1.414 . S
C3320 C3321 1.374 . S
C3321 H3301 0.950 . S
C3321 C3317 1.385 . S
C3321 C3320 1.374 . S
C3322 C3319 1.499 . S
C3322 C3323 1.373 . S
C3322 C3324 1.389 . S
C3323 H3302 0.950 . S
C3323 C3322 1.373 . S
C3323 C3339 1.377 . S
C3324 C3322 1.389 . S
C3324 C3325 1.524 . S
C3324 C3338 1.377 . S
C3325 C3324 1.524 . S
C3325 C3326 1.397 . S
C3325 C3330 1.363 . S
C3326 H3303 0.950 . S
C3326 C3325 1.397 . S
C3326 C3327 1.334 . S
C3327 H3304 0.950 . S
C3327 C3326 1.334 . S
C3327 C3328 1.287 . S
C3328 C3327 1.287 . S
C3328 C3329 1.524 . S
C3328 H3347 0.913 . S
C3329 H3305 0.950 . S
C3329 C3328 1.524 . S
C3329 C3330 1.415 . S
C3330 H3306 0.950 . S
C3330 C3325 1.363 . S
C3330 C3329 1.415 . S
C3331 H3307 0.951 . S
C3331 C3332 1.366 . S
C3331 C3333 1.388 . S
C3332 C3331 1.366 . S
C3332 C3336 1.385 . S
C3333 H3308 0.951 . S
C3333 C3331 1.388 . S
C3333 C3334 1.366 . S
C3334 C3333 1.366 . S
C3334 C3335 1.414 . S
C3334 C3337 1.499 . S
C3335 H3309 0.950 . S
C3335 C3334 1.414 . S
C3335 C3336 1.374 . S
C3336 H3310 0.950 . S
C3336 C3332 1.385 . S
C3336 C3335 1.374 . S
C3337 C3334 1.499 . S
C3337 C3338 1.373 . S
C3337 C3339 1.389 . S
C3338 H3311 0.950 . S
C3338 C3324 1.377 . S
C3338 C3337 1.373 . S
C3339 C3323 1.377 . S
C3339 C3337 1.389 . S
C3339 C3340 1.524 . S
C3340 C3339 1.524 . S
C3340 C3341 1.397 . S
C3340 C3345 1.363 . S
C3341 H3312 0.950 . S
C3341 C3340 1.397 . S
C3341 C3342 1.334 . S
C3342 H3313 0.950 . S
C3342 C3341 1.334 . S
C3342 C3343 1.287 . S
C3343 C3342 1.287 . S
C3343 C3344 1.524 . S
C3343 H3346 0.999 . S
C3344 H3314 0.950 . S
C3344 C3343 1.524 . S
C3344 C3345 1.415 . S
C3345 H3315 0.950 . S
C3345 C3340 1.363 . S
C3345 C3344 1.415 . S
H3346 C3343 0.999 . S
H3347 C3328 0.913 . S
H3348 C3366 0.951 . S
H3349 C3368 0.951 . S
H3350 C3370 0.950 . S
H3351 C3371 0.950 . S
H3352 C3373 0.950 . S
H3353 C3376 0.950 . S
H3354 C3377 0.950 . S
H3355 C3379 0.950 . S
H3356 C3380 0.950 . S
H3357 C3381 0.951 . S
H3358 C3383 0.951 . S
H3359 C3385 0.950 . S
H3360 C3386 0.950 . S
H3361 C3388 0.950 . S
H3362 C3391 0.950 . S
H3363 C3392 0.950 . S
H3364 C3394 0.950 . S
H3365 C3395 0.950 . S
C3366 H3348 0.951 . S
C3366 C3367 1.366 . S
C3366 C3368 1.388 . S
C3367 C3366 1.366 . S
C3367 C3371 1.385 . S
C3368 H3349 0.951 . S
C3368 C3366 1.388 . S
C3368 C3369 1.366 . S
C3369 C3368 1.366 . S
C3369 C3370 1.414 . S
C3369 C3372 1.499 . S
C3370 H3350 0.950 . S
C3370 C3369 1.414 . S
C3370 C3371 1.374 . S
C3371 H3351 0.950 . S
C3371 C3367 1.385 . S
C3371 C3370 1.374 . S
C3372 C3369 1.499 . S
C3372 C3373 1.373 . S
C3372 C3374 1.389 . S
C3373 H3352 0.950 . S
C3373 C3372 1.373 . S
C3373 C3389 1.377 . S
C3374 C3372 1.389 . S
C3374 C3375 1.524 . S
C3374 C3388 1.377 . S
C3375 C3374 1.524 . S
C3375 C3376 1.397 . S
C3375 C3380 1.363 . S
C3376 H3353 0.950 . S
C3376 C3375 1.397 . S
C3376 C3377 1.334 . S
C3377 H3354 0.950 . S
C3377 C3376 1.334 . S
C3377 C3378 1.287 . S
C3378 C3377 1.287 . S
C3378 C3379 1.524 . S
C3378 H3397 0.913 . S
C3379 H3355 0.950 . S
C3379 C3378 1.524 . S
C3379 C3380 1.415 . S
C3380 H3356 0.950 . S
C3380 C3375 1.363 . S
C3380 C3379 1.415 . S
C3381 H3357 0.951 . S
C3381 C3382 1.366 . S
C3381 C3383 1.388 . S
C3382 C3381 1.366 . S
C3382 C3386 1.385 . S
C3383 H3358 0.951 . S
C3383 C3381 1.388 . S
C3383 C3384 1.366 . S
C3384 C3383 1.366 . S
C3384 C3385 1.414 . S
C3384 C3387 1.499 . S
C3385 H3359 0.950 . S
C3385 C3384 1.414 . S
C3385 C3386 1.374 . S
C3386 H3360 0.950 . S
C3386 C3382 1.385 . S
C3386 C3385 1.374 . S
C3387 C3384 1.499 . S
C3387 C3388 1.373 . S
C3387 C3389 1.389 . S
C3388 H3361 0.950 . S
C3388 C3374 1.377 . S
C3388 C3387 1.373 . S
C3389 C3373 1.377 . S
C3389 C3387 1.389 . S
C3389 C3390 1.524 . S
C3390 C3389 1.524 . S
C3390 C3391 1.397 . S
C3390 C3395 1.363 . S
C3391 H3362 0.950 . S
C3391 C3390 1.397 . S
C3391 C3392 1.334 . S
C3392 H3363 0.950 . S
C3392 C3391 1.334 . S
C3392 C3393 1.287 . S
C3393 C3392 1.287 . S
C3393 C3394 1.524 . S
C3393 H3396 0.999 . S
C3394 H3364 0.950 . S
C3394 C3393 1.524 . S
C3394 C3395 1.415 . S
C3395 H3365 0.950 . S
C3395 C3390 1.363 . S
C3395 C3394 1.415 . S
H3396 C3393 0.999 . S
H3397 C3378 0.913 . S
H3398 C3416 0.951 . S
H3399 C3418 0.951 . S
H3400 C3420 0.950 . S
H3401 C3421 0.950 . S
H3402 C3423 0.950 . S
H3403 C3426 0.950 . S
H3404 C3427 0.950 . S
H3405 C3429 0.950 . S
H3406 C3430 0.950 . S
H3407 C3431 0.951 . S
H3408 C3433 0.951 . S
H3409 C3435 0.950 . S
H3410 C3436 0.950 . S
H3411 C3438 0.950 . S
H3412 C3441 0.950 . S
H3413 C3442 0.950 . S
H3414 C3444 0.950 . S
H3415 C3445 0.950 . S
C3416 H3398 0.951 . S
C3416 C3417 1.366 . S
C3416 C3418 1.388 . S
C3417 C3416 1.366 . S
C3417 C3421 1.385 . S
C3418 H3399 0.951 . S
C3418 C3416 1.388 . S
C3418 C3419 1.366 . S
C3419 C3418 1.366 . S
C3419 C3420 1.414 . S
C3419 C3422 1.499 . S
C3420 H3400 0.950 . S
C3420 C3419 1.414 . S
C3420 C3421 1.374 . S
C3421 H3401 0.950 . S
C3421 C3417 1.385 . S
C3421 C3420 1.374 . S
C3422 C3419 1.499 . S
C3422 C3423 1.373 . S
C3422 C3424 1.389 . S
C3423 H3402 0.950 . S
C3423 C3422 1.373 . S
C3423 C3439 1.377 . S
C3424 C3422 1.389 . S
C3424 C3425 1.524 . S
C3424 C3438 1.377 . S
C3425 C3424 1.524 . S
C3425 C3426 1.397 . S
C3425 C3430 1.363 . S
C3426 H3403 0.950 . S
C3426 C3425 1.397 . S
C3426 C3427 1.334 . S
C3427 H3404 0.950 . S
C3427 C3426 1.334 . S
C3427 C3428 1.287 . S
C3428 C3427 1.287 . S
C3428 C3429 1.524 . S
C3428 H3447 0.913 . S
C3429 H3405 0.950 . S
C3429 C3428 1.524 . S
C3429 C3430 1.415 . S
C3430 H3406 0.950 . S
C3430 C3425 1.363 . S
C3430 C3429 1.415 . S
C3431 H3407 0.951 . S
C3431 C3432 1.366 . S
C3431 C3433 1.388 . S
C3432 C3431 1.366 . S
C3432 C3436 1.385 . S
C3433 H3408 0.951 . S
C3433 C3431 1.388 . S
C3433 C3434 1.366 . S
C3434 C3433 1.366 . S
C3434 C3435 1.414 . S
C3434 C3437 1.499 . S
C3435 H3409 0.950 . S
C3435 C3434 1.414 . S
C3435 C3436 1.374 . S
C3436 H3410 0.950 . S
C3436 C3432 1.385 . S
C3436 C3435 1.374 . S
C3437 C3434 1.499 . S
C3437 C3438 1.373 . S
C3437 C3439 1.389 . S
C3438 H3411 0.950 . S
C3438 C3424 1.377 . S
C3438 C3437 1.373 . S
C3439 C3423 1.377 . S
C3439 C3437 1.389 . S
C3439 C3440 1.524 . S
C3440 C3439 1.524 . S
C3440 C3441 1.397 . S
C3440 C3445 1.363 . S
C3441 H3412 0.950 . S
C3441 C3440 1.397 . S
C3441 C3442 1.334 . S
C3442 H3413 0.950 . S
C3442 C3441 1.334 . S
C3442 C3443 1.287 . S
C3443 C3442 1.287 . S
C3443 C3444 1.524 . S
C3443 H3446 0.999 . S
C3444 H3414 0.950 . S
C3444 C3443 1.524 . S
C3444 C3445 1.415 . S
C3445 H3415 0.950 . S
C3445 C3440 1.363 . S
C3445 C3444 1.415 . S
H3446 C3443 0.999 . S
H3447 C3428 0.913 . S
H3448 C3466 0.951 . S
H3449 C3468 0.951 . S
H3450 C3470 0.950 . S
H3451 C3471 0.950 . S
H3452 C3473 0.950 . S
H3453 C3476 0.950 . S
H3454 C3477 0.950 . S
H3455 C3479 0.950 . S
H3456 C3480 0.950 . S
H3457 C3481 0.951 . S
H3458 C3483 0.951 . S
H3459 C3485 0.950 . S
H3460 C3486 0.950 . S
H3461 C3488 0.950 . S
H3462 C3491 0.950 . S
H3463 C3492 0.950 . S
H3464 C3494 0.950 . S
H3465 C3495 0.950 . S
C3466 H3448 0.951 . S
C3466 C3467 1.366 . S
C3466 C3468 1.388 . S
C3467 C3466 1.366 . S
C3467 C3471 1.385 . S
C3468 H3449 0.951 . S
C3468 C3466 1.388 . S
C3468 C3469 1.366 . S
C3469 C3468 1.366 . S
C3469 C3470 1.414 . S
C3469 C3472 1.499 . S
C3470 H3450 0.950 . S
C3470 C3469 1.414 . S
C3470 C3471 1.374 . S
C3471 H3451 0.950 . S
C3471 C3467 1.385 . S
C3471 C3470 1.374 . S
C3472 C3469 1.499 . S
C3472 C3473 1.373 . S
C3472 C3474 1.389 . S
C3473 H3452 0.950 . S
C3473 C3472 1.373 . S
C3473 C3489 1.377 . S
C3474 C3472 1.389 . S
C3474 C3475 1.524 . S
C3474 C3488 1.377 . S
C3475 C3474 1.524 . S
C3475 C3476 1.397 . S
C3475 C3480 1.363 . S
C3476 H3453 0.950 . S
C3476 C3475 1.397 . S
C3476 C3477 1.334 . S
C3477 H3454 0.950 . S
C3477 C3476 1.334 . S
C3477 C3478 1.287 . S
C3478 C3477 1.287 . S
C3478 C3479 1.524 . S
C3478 H3497 0.913 . S
C3479 H3455 0.950 . S
C3479 C3478 1.524 . S
C3479 C3480 1.415 . S
C3480 H3456 0.950 . S
C3480 C3475 1.363 . S
C3480 C3479 1.415 . S
C3481 H3457 0.951 . S
C3481 C3482 1.366 . S
C3481 C3483 1.388 . S
C3482 C3481 1.366 . S
C3482 C3486 1.385 . S
C3483 H3458 0.951 . S
C3483 C3481 1.388 . S
C3483 C3484 1.366 . S
C3484 C3483 1.366 . S
C3484 C3485 1.414 . S
C3484 C3487 1.499 . S
C3485 H3459 0.950 . S
C3485 C3484 1.414 . S
C3485 C3486 1.374 . S
C3486 H3460 0.950 . S
C3486 C3482 1.385 . S
C3486 C3485 1.374 . S
C3487 C3484 1.499 . S
C3487 C3488 1.373 . S
C3487 C3489 1.389 . S
C3488 H3461 0.950 . S
C3488 C3474 1.377 . S
C3488 C3487 1.373 . S
C3489 C3473 1.377 . S
C3489 C3487 1.389 . S
C3489 C3490 1.524 . S
C3490 C3489 1.524 . S
C3490 C3491 1.397 . S
C3490 C3495 1.363 . S
C3491 H3462 0.950 . S
C3491 C3490 1.397 . S
C3491 C3492 1.334 . S
C3492 H3463 0.950 . S
C3492 C3491 1.334 . S
C3492 C3493 1.287 . S
C3493 C3492 1.287 . S
C3493 C3494 1.524 . S
C3493 H3496 0.999 . S
C3494 H3464 0.950 . S
C3494 C3493 1.524 . S
C3494 C3495 1.415 . S
C3495 H3465 0.950 . S
C3495 C3490 1.363 . S
C3495 C3494 1.415 . S
H3496 C3493 0.999 . S
H3497 C3478 0.913 . S
H3498 C3516 0.951 . S
H3499 C3518 0.951 . S
H3500 C3520 0.950 . S
H3501 C3521 0.950 . S
H3502 C3523 0.950 . S
H3503 C3526 0.950 . S
H3504 C3527 0.950 . S
H3505 C3529 0.950 . S
H3506 C3530 0.950 . S
H3507 C3531 0.951 . S
H3508 C3533 0.951 . S
H3509 C3535 0.950 . S
H3510 C3536 0.950 . S
H3511 C3538 0.950 . S
H3512 C3541 0.950 . S
H3513 C3542 0.950 . S
H3514 C3544 0.950 . S
H3515 C3545 0.950 . S
C3516 H3498 0.951 . S
C3516 C3517 1.366 . S
C3516 C3518 1.388 . S
C3517 C3516 1.366 . S
C3517 C3521 1.385 . S
C3518 H3499 0.951 . S
C3518 C3516 1.388 . S
C3518 C3519 1.366 . S
C3519 C3518 1.366 . S
C3519 C3520 1.414 . S
C3519 C3522 1.499 . S
C3520 H3500 0.950 . S
C3520 C3519 1.414 . S
C3520 C3521 1.374 . S
C3521 H3501 0.950 . S
C3521 C3517 1.385 . S
C3521 C3520 1.374 . S
C3522 C3519 1.499 . S
C3522 C3523 1.373 . S
C3522 C3524 1.389 . S
C3523 H3502 0.950 . S
C3523 C3522 1.373 . S
C3523 C3539 1.377 . S
C3524 C3522 1.389 . S
C3524 C3525 1.524 . S
C3524 C3538 1.377 . S
C3525 C3524 1.524 . S
C3525 C3526 1.397 . S
C3525 C3530 1.363 . S
C3526 H3503 0.950 . S
C3526 C3525 1.397 . S
C3526 C3527 1.334 . S
C3527 H3504 0.950 . S
C3527 C3526 1.334 . S
C3527 C3528 1.287 . S
C3528 C3527 1.287 . S
C3528 C3529 1.524 . S
C3528 H3547 0.913 . S
C3529 H3505 0.950 . S
C3529 C3528 1.524 . S
C3529 C3530 1.415 . S
C3530 H3506 0.950 . S
C3530 C3525 1.363 . S
C3530 C3529 1.415 . S
C3531 H3507 0.951 . S
C3531 C3532 1.366 . S
C3531 C3533 1.388 . S
C3532 C3531 1.366 . S
C3532 C3536 1.385 . S
C3533 H3508 0.951 . S
C3533 C3531 1.388 . S
C3533 C3534 1.366 . S
C3534 C3533 1.366 . S
C3534 C3535 1.414 . S
C3534 C3537 1.499 . S
C3535 H3509 0.950 . S
C3535 C3534 1.414 . S
C3535 C3536 1.374 . S
C3536 H3510 0.950 . S
C3536 C3532 1.385 . S
C3536 C3535 1.374 . S
C3537 C3534 1.499 . S
C3537 C3538 1.373 . S
C3537 C3539 1.389 . S
C3538 H3511 0.950 . S
C3538 C3524 1.377 . S
C3538 C3537 1.373 . S
C3539 C3523 1.377 . S
C3539 C3537 1.389 . S
C3539 C3540 1.524 . S
C3540 C3539 1.524 . S
C3540 C3541 1.397 . S
C3540 C3545 1.363 . S
C3541 H3512 0.950 . S
C3541 C3540 1.397 . S
C3541 C3542 1.334 . S
C3542 H3513 0.950 . S
C3542 C3541 1.334 . S
C3542 C3543 1.287 . S
C3543 C3542 1.287 . S
C3543 C3544 1.524 . S
C3543 H3546 0.999 . S
C3544 H3514 0.950 . S
C3544 C3543 1.524 . S
C3544 C3545 1.415 . S
C3545 H3515 0.950 . S
C3545 C3540 1.363 . S
C3545 C3544 1.415 . S
H3546 C3543 0.999 . S
H3547 C3528 0.913 . S
H3548 C3566 0.951 . S
H3549 C3568 0.951 . S
H3550 C3570 0.950 . S
H3551 C3571 0.950 . S
H3552 C3573 0.950 . S
H3553 C3576 0.950 . S
H3554 C3577 0.950 . S
H3555 C3579 0.950 . S
H3556 C3580 0.950 . S
H3557 C3581 0.951 . S
H3558 C3583 0.951 . S
H3559 C3585 0.950 . S
H3560 C3586 0.950 . S
H3561 C3588 0.950 . S
H3562 C3591 0.950 . S
H3563 C3592 0.950 . S
H3564 C3594 0.950 . S
H3565 C3595 0.950 . S
C3566 H3548 0.951 . S
C3566 C3567 1.366 . S
C3566 C3568 1.388 . S
C3567 C3566 1.366 . S
C3567 C3571 1.385 . S
C3568 H3549 0.951 . S
C3568 C3566 1.388 . S
C3568 C3569 1.366 . S
C3569 C3568 1.366 . S
C3569 C3570 1.414 . S
C3569 C3572 1.499 . S
C3570 H3550 0.950 . S
C3570 C3569 1.414 . S
C3570 C3571 1.374 . S
C3571 H3551 0.950 . S
C3571 C3567 1.385 . S
C3571 C3570 1.374 . S
C3572 C3569 1.499 . S
C3572 C3573 1.373 . S
C3572 C3574 1.389 . S
C3573 H3552 0.950 . S
C3573 C3572 1.373 . S
C3573 C3589 1.377 . S
C3574 C3572 1.389 . S
C3574 C3575 1.524 . S
C3574 C3588 1.377 . S
C3575 C3574 1.524 . S
C3575 C3576 1.397 . S
C3575 C3580 1.363 . S
C3576 H3553 0.950 . S
C3576 C3575 1.397 . S
C3576 C3577 1.334 . S
C3577 H3554 0.950 . S
C3577 C3576 1.334 . S
C3577 C3578 1.287 . S
C3578 C3577 1.287 . S
C3578 C3579 1.524 . S
C3578 H3597 0.913 . S
C3579 H3555 0.950 . S
C3579 C3578 1.524 . S
C3579 C3580 1.415 . S
C3580 H3556 0.950 . S
C3580 C3575 1.363 . S
C3580 C3579 1.415 . S
C3581 H3557 0.951 . S
C3581 C3582 1.366 . S
C3581 C3583 1.388 . S
C3582 C3581 1.366 . S
C3582 C3586 1.385 . S
C3583 H3558 0.951 . S
C3583 C3581 1.388 . S
C3583 C3584 1.366 . S
C3584 C3583 1.366 . S
C3584 C3585 1.414 . S
C3584 C3587 1.499 . S
C3585 H3559 0.950 . S
C3585 C3584 1.414 . S
C3585 C3586 1.374 . S
C3586 H3560 0.950 . S
C3586 C3582 1.385 . S
C3586 C3585 1.374 . S
C3587 C3584 1.499 . S
C3587 C3588 1.373 . S
C3587 C3589 1.389 . S
C3588 H3561 0.950 . S
C3588 C3574 1.377 . S
C3588 C3587 1.373 . S
C3589 C3573 1.377 . S
C3589 C3587 1.389 . S
C3589 C3590 1.524 . S
C3590 C3589 1.524 . S
C3590 C3591 1.397 . S
C3590 C3595 1.363 . S
C3591 H3562 0.950 . S
C3591 C3590 1.397 . S
C3591 C3592 1.334 . S
C3592 H3563 0.950 . S
C3592 C3591 1.334 . S
C3592 C3593 1.287 . S
C3593 C3592 1.287 . S
C3593 C3594 1.524 . S
C3593 H3596 0.999 . S
C3594 H3564 0.950 . S
C3594 C3593 1.524 . S
C3594 C3595 1.415 . S
C3595 H3565 0.950 . S
C3595 C3590 1.363 . S
C3595 C3594 1.415 . S
H3596 C3593 0.999 . S
H3597 C3578 0.913 . S
H3598 C3616 0.951 . S
H3599 C3618 0.951 . S
H3600 C3620 0.950 . S
H3601 C3621 0.950 . S
H3602 C3623 0.950 . S
H3603 C3626 0.950 . S
H3604 C3627 0.950 . S
H3605 C3629 0.950 . S
H3606 C3630 0.950 . S
H3607 C3631 0.951 . S
H3608 C3633 0.958 . S
H3609 C3635 0.950 . S
H3610 C3636 0.950 . S
H3611 C3638 0.950 . S
H3612 C3641 0.950 . S
H3613 C3642 0.950 . S
H3614 C3644 0.950 . S
H3615 C3645 0.950 . S
C3616 H3598 0.951 . S
C3616 C3617 1.366 . S
C3616 C3618 1.388 . S
C3617 C3616 1.366 . S
C3617 C3621 1.385 . S
C3618 H3599 0.951 . S
C3618 C3616 1.388 . S
C3618 C3619 1.366 . S
C3619 C3618 1.366 . S
C3619 C3620 1.414 . S
C3619 C3622 1.499 . S
C3620 H3600 0.950 . S
C3620 C3619 1.414 . S
C3620 C3621 1.374 . S
C3621 H3601 0.950 . S
C3621 C3617 1.385 . S
C3621 C3620 1.374 . S
C3622 C3619 1.499 . S
C3622 C3623 1.373 . S
C3622 C3624 1.389 . S
C3623 H3602 0.950 . S
C3623 C3622 1.373 . S
C3623 C3639 1.377 . S
C3624 C3622 1.389 . S
C3624 C3625 1.524 . S
C3624 C3638 1.377 . S
C3625 C3624 1.524 . S
C3625 C3626 1.397 . S
C3625 C3630 1.363 . S
C3626 H3603 0.950 . S
C3626 C3625 1.397 . S
C3626 C3627 1.334 . S
C3627 H3604 0.950 . S
C3627 C3626 1.334 . S
C3627 C3628 1.287 . S
C3628 C3627 1.287 . S
C3628 C3629 1.524 . S
C3628 H3647 0.913 . S
C3629 H3605 0.950 . S
C3629 C3628 1.524 . S
C3629 C3630 1.415 . S
C3630 H3606 0.950 . S
C3630 C3625 1.363 . S
C3630 C3629 1.415 . S
C3631 H3607 0.951 . S
C3631 C3632 1.366 . S
C3631 C3633 1.402 . S
C3632 C3631 1.366 . S
C3632 C3636 1.385 1_554 S
C3633 H3608 0.958 . S
C3633 C3631 1.402 . S
C3633 C3634 1.346 1_554 S
C3634 C3633 1.346 1_556 S
C3634 C3635 1.414 . S
C3634 C3637 1.499 . S
C3635 H3609 0.950 . S
C3635 C3634 1.414 . S
C3635 C3636 1.374 . S
C3636 H3610 0.950 . S
C3636 C3632 1.385 1_556 S
C3636 C3635 1.374 . S
C3637 C3634 1.499 . S
C3637 C3638 1.373 . S
C3637 C3639 1.389 . S
C3638 H3611 0.950 . S
C3638 C3624 1.377 . S
C3638 C3637 1.373 . S
C3639 C3623 1.377 . S
C3639 C3637 1.389 . S
C3639 C3640 1.524 1_556 S
C3640 C3639 1.524 1_554 S
C3640 C3641 1.397 . S
C3640 C3645 1.363 . S
C3641 H3612 0.950 . S
C3641 C3640 1.397 . S
C3641 C3642 1.334 . S
C3642 H3613 0.950 . S
C3642 C3641 1.334 . S
C3642 C3643 1.287 . S
C3643 C3642 1.287 . S
C3643 C3644 1.524 . S
C3643 H3646 0.999 . S
C3644 H3614 0.950 . S
C3644 C3643 1.524 . S
C3644 C3645 1.415 . S
C3645 H3615 0.950 . S
C3645 C3640 1.363 . S
C3645 C3644 1.415 . S
H3646 C3643 0.999 . S
H3647 C3628 0.913 . S
C467 C124 2.041 . S
C482 C1 2.041 . S
C517 C14 2.044 . S
C532 C363 2.044 . S
C567 C40 2.044 . S
C582 C153 2.044 . S
C617 C54 2.044 . S
C632 C391 2.044 . S
C667 C68 2.044 . S
C682 C180 2.041 . S
C717 C418 2.042 . S
C732 C83 2.042 . S
C767 C209 2.045 . S
C782 C85 2.042 . S
C817 C435 2.044 . S
C832 C98 2.044 . S
C867 C238 2.044 . S
C882 C139 2.044 . S
C917 C166 2.041 . S
C932 C279 2.041 . S
C967 C194 2.041 . S
C982 C306 2.044 . S
C1017 C323 2.042 . S
C1032 C210 2.042 . S
C1067 C337 2.045 . S
C1082 C224 2.045 . S
C1117 C265 2.042 . S
C1132 C365 2.045 . S
C1167 C280 2.045 . S
C1182 C404 2.042 . S
C1217 C432 2.042 . S
C1232 C321 2.042 . S
C1267 C12 1.949 1_556 S
C1282 C57 1.948 . S
C1317 C70 1.950 . S
C1332 C27 1.949 . S
C1367 C96 1.949 . S
C1382 C29 1.948 . S
C1417 C43 1.948 . S
C1432 C111 1.948 . S
C1467 C113 1.949 . S
C1482 C169 1.949 . S
C1517 C126 1.948 . S
C1532 C183 1.949 . S
C1567 C196 1.948 1_556 S
C1582 C140 1.948 . S
C1617 C223 1.950 . S
C1632 C155 1.950 . S
C1667 C293 1.949 . S
C1682 C237 1.948 . S
C1717 C295 1.949 . S
C1732 C251 1.949 . S
C1767 C252 1.950 1_556 S
C1782 C308 1.950 . S
C1817 C334 1.950 . S
C1832 C266 1.949 . S
C1867 C393 1.950 1_556 S
C1882 C348 1.949 . S
C1917 C350 1.948 . S
C1932 C407 1.949 . S
C1967 C421 1.950 . S
C1982 C376 1.949 . S
C2017 C446 1.949 . S
C2032 C378 1.948 . S
C2067 C56 0.290 . S
C2082 C13 0.292 . S
C2117 C71 0.291 . S
C2132 C26 0.290 . S
C2167 C28 0.289 . S
C2182 C97 0.291 . S
C2217 C110 0.290 . S
C2232 C42 0.290 . S
C2267 C168 0.292 . S
C2282 C112 0.292 . S
C2317 C127 0.289 . S
C2332 C182 0.291 . S
C2367 C197 0.290 . S
C2382 C141 0.290 . S
C2417 C222 0.292 . S
C2432 C154 0.291 . S
C2467 C236 0.290 . S
C2482 C292 0.290 . S
C2517 C294 0.289 . S
C2532 C250 0.290 . S
C2567 C309 0.292 . S
C2582 C253 0.292 . S
C2617 C335 0.292 . S
C2632 C267 0.292 . S
C2667 C392 0.292 . S
C2682 C349 0.290 . S
C2717 C351 0.290 . S
C2732 C406 0.292 . S
C2767 C377 0.290 . S
C2782 C420 0.292 . S
C2817 C379 0.289 . S
C2832 C447 0.289 . S
C2867 C0 2.124 . S
C2882 C307 2.123 . S
C2917 C320 2.124 . S
C2932 C15 2.122 . S
C2967 C41 2.122 . S
C2982 C322 2.124 . S
C3017 C55 2.122 . S
C3032 C281 2.122 . S
C3067 C278 2.124 . S
C3082 C69 2.122 . S
C3117 C225 2.122 . S
C3132 C82 2.125 . S
C3167 C239 2.122 . S
C3182 C84 2.124 . S
C3217 C99 2.123 . S
C3232 C264 2.124 . S
C3267 C125 2.124 . S
C3282 C419 2.124 . S
C3317 C433 2.124 . S
C3332 C138 2.122 . S
C3367 C434 2.122 . S
C3382 C152 2.122 . S
C3417 C405 2.125 . S
C3432 C167 2.124 . S
C3467 C390 2.122 . S
C3482 C181 2.124 . S
C3517 C336 2.122 . S
C3532 C195 2.125 . S
C3567 C208 2.123 . S
C3582 C362 2.122 . S
C3617 C211 2.124 . S
C3632 C364 2.122 . S
