# Generated by pormake.
# Topology crr, (4)-cn, num edge types: 1
# Building blocks:
#     Node 0, Type 0, BuildingBlock: NAWXER_clean_sbu_0, # of connection points: 4
#     Node 1, Type 0, BuildingBlock: NAWXER_clean_sbu_0, # of connection points: 4
#     Node 2, Type 0, BuildingBlock: NAWXER_clean_sbu_0, # of connection points: 4
#     Node 3, Type 0, BuildingBlock: NAWXER_clean_sbu_0, # of connection points: 4
#     Node 4, Type 0, BuildingBlock: NAWXER_clean_sbu_0, # of connection points: 4
#     Node 5, Type 0, BuildingBlock: NAWXER_clean_sbu_0, # of connection points: 4
#     Node 6, Type 0, BuildingBlock: NAWXER_clean_sbu_0, # of connection points: 4
#     Node 7, Type 0, BuildingBlock: NAWXER_clean_sbu_0, # of connection points: 4
#     Node 8, Type 0, BuildingBlock: NAWXER_clean_sbu_0, # of connection points: 4
#     Node 9, Type 0, BuildingBlock: NAWXER_clean_sbu_0, # of connection points: 4
#     Node 10, Type 0, BuildingBlock: NAWXER_clean_sbu_0, # of connection points: 4
#     Node 11, Type 0, BuildingBlock: NAWXER_clean_sbu_0, # of connection points: 4
#     Edge 12, Type (0, 0), BuildingBlock: UVAHIK_clean_linker_0, # of connection points: 2
#     Edge 13, Type (0, 0), BuildingBlock: UVAHIK_clean_linker_0, # of connection points: 2
#     Edge 14, Type (0, 0), BuildingBlock: UVAHIK_clean_linker_0, # of connection points: 2
#     Edge 15, Type (0, 0), BuildingBlock: UVAHIK_clean_linker_0, # of connection points: 2
#     Edge 16, Type (0, 0), BuildingBlock: UVAHIK_clean_linker_0, # of connection points: 2
#     Edge 17, Type (0, 0), BuildingBlock: UVAHIK_clean_linker_0, # of connection points: 2
#     Edge 18, Type (0, 0), BuildingBlock: UVAHIK_clean_linker_0, # of connection points: 2
#     Edge 19, Type (0, 0), BuildingBlock: UVAHIK_clean_linker_0, # of connection points: 2
#     Edge 20, Type (0, 0), BuildingBlock: UVAHIK_clean_linker_0, # of connection points: 2
#     Edge 21, Type (0, 0), BuildingBlock: UVAHIK_clean_linker_0, # of connection points: 2
#     Edge 22, Type (0, 0), BuildingBlock: UVAHIK_clean_linker_0, # of connection points: 2
#     Edge 23, Type (0, 0), BuildingBlock: UVAHIK_clean_linker_0, # of connection points: 2
#     Edge 24, Type (0, 0), BuildingBlock: UVAHIK_clean_linker_0, # of connection points: 2
#     Edge 25, Type (0, 0), BuildingBlock: UVAHIK_clean_linker_0, # of connection points: 2
#     Edge 26, Type (0, 0), BuildingBlock: UVAHIK_clean_linker_0, # of connection points: 2
#     Edge 27, Type (0, 0), BuildingBlock: UVAHIK_clean_linker_0, # of connection points: 2
#     Edge 28, Type (0, 0), BuildingBlock: UVAHIK_clean_linker_0, # of connection points: 2
#     Edge 29, Type (0, 0), BuildingBlock: UVAHIK_clean_linker_0, # of connection points: 2
#     Edge 30, Type (0, 0), BuildingBlock: UVAHIK_clean_linker_0, # of connection points: 2
#     Edge 31, Type (0, 0), BuildingBlock: UVAHIK_clean_linker_0, # of connection points: 2
#     Edge 32, Type (0, 0), BuildingBlock: UVAHIK_clean_linker_0, # of connection points: 2
#     Edge 33, Type (0, 0), BuildingBlock: UVAHIK_clean_linker_0, # of connection points: 2
#     Edge 34, Type (0, 0), BuildingBlock: UVAHIK_clean_linker_0, # of connection points: 2
#     Edge 35, Type (0, 0), BuildingBlock: UVAHIK_clean_linker_0, # of connection points: 2
# Relax obj value: 0.065
# Max RMSD: 0.110
# Mean RMSD: 0.110
data_MOF--net-crr--node1-NAWXER_clean_sbu_0--edge1-UVAHIK_clean_linker_0
_symmetry_space_group_name_H-M    P1
_symmetry_Int_Tables_number       1
_symmetry_cell_setting            triclinic
loop_
_symmetry_equiv_pos_as_xyz
'x, y, z'
_cell_length_a     51.998601
_cell_length_b     51.660025
_cell_length_c     51.71822
_cell_angle_alpha  89.982407
_cell_angle_beta   90.127856
_cell_angle_gamma 89.954721
loop_
_atom_site_label
_atom_site_type_symbol
_atom_site_fract_x
_atom_site_fract_y
_atom_site_fract_z
_atom_type_partial_charge
C0 C 0.05084 0.34609 0.36049 0.0
C1 C 0.10275 0.35269 0.28296 0.0
O2 O 0.07135 0.35931 0.36441 0.0
Zn3 Zn 0.10422 0.37124 0.34233 0.0
O4 O 0.04678 0.33605 0.33847 0.0
Zn5 Zn 0.07743 0.3485 0.32198 0.0
O6 O 0.10846 0.32713 0.34013 0.0
O7 O 0.13267 0.35601 0.35998 0.0
O8 O 0.08189 0.34028 0.28594 0.0
O9 O 0.11281 0.36459 0.30226 0.0
O10 O 0.10224 0.40813 0.3432 0.0
O11 O 0.07098 0.38992 0.32065 0.0
C12 C 0.12828 0.33263 0.35396 0.0
C13 C 0.08213 0.41029 0.32942 0.0
C14 C 0.34788 0.88919 0.70786 0.0
C15 C 0.32411 0.9375 0.6297 0.0
O16 O 0.33658 0.91105 0.70736 0.0
Zn17 Zn 0.33582 0.91486 0.66962 0.0
O18 O 0.35402 0.8781 0.68662 0.0
Zn19 Zn 0.35135 0.88409 0.64616 0.0
O20 O 0.38717 0.88495 0.63601 0.0
O21 O 0.37539 0.91872 0.65942 0.0
O22 O 0.33486 0.91562 0.62538 0.0
O23 O 0.32111 0.94536 0.65283 0.0
O24 O 0.30928 0.88516 0.65894 0.0
O25 O 0.32949 0.85581 0.63547 0.0
C26 C 0.39265 0.9064 0.64674 0.0
C27 C 0.30898 0.86392 0.64614 0.0
C28 C 0.96199 0.65556 0.31069 0.0
C29 C 0.92602 0.74074 0.32678 0.0
O30 O 0.9687 0.67695 0.30063 0.0
Zn31 Zn 0.94392 0.69787 0.31853 0.0
O32 O 0.94372 0.65496 0.32732 0.0
Zn33 Zn 0.91819 0.68234 0.34556 0.0
O34 O 0.88506 0.67008 0.33603 0.0
O35 O 0.90773 0.68376 0.30273 0.0
O36 O 0.91547 0.72321 0.34068 0.0
O37 O 0.94334 0.73458 0.31068 0.0
O38 O 0.95835 0.69521 0.35806 0.0
O39 O 0.92635 0.67917 0.38107 0.0
C40 C 0.88709 0.67365 0.31187 0.0
C41 C 0.94919 0.68762 0.37984 0.0
C42 C 0.67802 0.06889 0.72954 0.0
C43 C 0.69976 0.03085 0.64582 0.0
O44 O 0.69301 0.0499 0.72541 0.0
Zn45 Zn 0.68873 0.04869 0.68797 0.0
O46 O 0.66628 0.07954 0.71051 0.0
Zn47 Zn 0.66401 0.07559 0.6696 0.0
O48 O 0.62873 0.06769 0.66343 0.0
O49 O 0.64968 0.03545 0.68193 0.0
O50 O 0.68387 0.04974 0.64428 0.0
O51 O 0.70773 0.02328 0.66784 0.0
O52 O 0.70643 0.08484 0.67618 0.0
O53 O 0.67595 0.10831 0.65774 0.0
C54 C 0.6289 0.04475 0.67217 0.0
C55 C 0.69922 0.10576 0.66483 0.0
C56 C 0.09633 0.63651 0.71375 0.0
C57 C 0.05854 0.64641 0.62813 0.0
O58 O 0.10144 0.6235 0.69353 0.0
Zn59 Zn 0.07759 0.64054 0.67073 0.0
O60 O 0.07939 0.65455 0.71278 0.0
Zn61 Zn 0.05428 0.67189 0.68477 0.0
O62 O 0.02019 0.66492 0.69835 0.0
O63 O 0.04132 0.62976 0.68626 0.0
O64 O 0.04955 0.66239 0.6448 0.0
O65 O 0.0754 0.6299 0.63492 0.0
O66 O 0.09387 0.67796 0.66694 0.0
O67 O 0.06731 0.70721 0.68293 0.0
C68 C 0.02133 0.64044 0.69602 0.0
C69 C 0.08847 0.70161 0.67194 0.0
C70 C 0.64537 0.95723 0.332 0.0
C71 C 0.73277 0.92344 0.33313 0.0
O72 O 0.647 0.93536 0.3436 0.0
Zn73 Zn 0.67597 0.90711 0.35159 0.0
O74 O 0.66527 0.96683 0.32153 0.0
Zn75 Zn 0.6892 0.93973 0.33113 0.0
O76 O 0.67832 0.90737 0.30698 0.0
O77 O 0.66477 0.8769 0.33342 0.0
O78 O 0.72508 0.94389 0.32183 0.0
O79 O 0.71663 0.90857 0.3445 0.0
O80 O 0.6756 0.90527 0.3884 0.0
O81 O 0.69072 0.94229 0.37335 0.0
C82 C 0.6693 0.88454 0.31058 0.0
C83 C 0.68511 0.92752 0.39257 0.0
C84 C 0.81464 0.39507 0.63944 0.0
C85 C 0.87676 0.38023 0.5708 0.0
O86 O 0.81113 0.39898 0.6154 0.0
Zn87 Zn 0.84518 0.3881 0.60491 0.0
O88 O 0.83616 0.38598 0.64753 0.0
Zn89 Zn 0.87252 0.37388 0.63218 0.0
O90 O 0.89561 0.39709 0.64951 0.0
O91 O 0.86872 0.41714 0.62314 0.0
O92 O 0.88554 0.37411 0.59315 0.0
O93 O 0.85413 0.38927 0.56872 0.0
O94 O 0.84311 0.34751 0.61294 0.0
O95 O 0.87318 0.33761 0.64144 0.0
C96 C 0.88689 0.418 0.63995 0.0
C97 C 0.8545 0.33068 0.62716 0.0
C98 C 0.40128 0.08775 0.35041 0.0
C99 C 0.32525 0.14057 0.36525 0.0
O100 O 0.39979 0.10989 0.36094 0.0
Zn101 Zn 0.36314 0.11394 0.35873 0.0
O102 O 0.38064 0.07627 0.34304 0.0
Zn103 Zn 0.33991 0.08405 0.3431 0.0
O104 O 0.33135 0.08316 0.30654 0.0
O105 O 0.35606 0.11603 0.31781 0.0
O106 O 0.31975 0.11851 0.35525 0.0
O107 O 0.34851 0.14598 0.37054 0.0
O108 O 0.34874 0.08708 0.3866 0.0
O109 O 0.32596 0.05773 0.36581 0.0
C110 C 0.3437 0.10347 0.30035 0.0
C111 C 0.33477 0.06666 0.38694 0.0
C112 C 0.32158 0.34303 0.02339 0.0
C113 C 0.32945 0.26992 0.08315 0.0
O114 O 0.32862 0.34947 0.04621 0.0
Zn115 Zn 0.33758 0.33165 0.08202 0.0
O116 O 0.31792 0.31933 0.0179 0.0
Zn117 Zn 0.32516 0.3056 0.05244 0.0
O118 O 0.29503 0.32179 0.0761 0.0
O119 O 0.31345 0.34755 0.10475 0.0
O120 O 0.32155 0.26866 0.05987 0.0
O121 O 0.33565 0.29187 0.09286 0.0
O122 O 0.37335 0.33944 0.08679 0.0
O123 O 0.36607 0.31101 0.05573 0.0
C124 C 0.29325 0.33744 0.0953 0.0
C125 C 0.38186 0.32426 0.06949 0.0
C126 C 0.28786 0.64308 0.90628 0.0
C127 C 0.36134 0.65594 0.9631 0.0
O128 O 0.28764 0.65208 0.92916 0.0
Zn129 Zn 0.32433 0.65048 0.93451 0.0
O130 O 0.30933 0.63724 0.89558 0.0
Zn131 Zn 0.34957 0.63732 0.90521 0.0
O132 O 0.35797 0.601 0.90165 0.0
O133 O 0.33076 0.60921 0.93328 0.0
O134 O 0.36793 0.64783 0.94065 0.0
O135 O 0.33778 0.65998 0.96807 0.0
O136 O 0.3377 0.68027 0.90844 0.0
O137 O 0.36374 0.6613 0.88068 0.0
C138 C 0.34373 0.59289 0.91988 0.0
C139 C 0.35259 0.68164 0.88871 0.0
C140 C 0.64598 0.68289 0.12214 0.0
C141 C 0.65803 0.60302 0.07279 0.0
O142 O 0.63673 0.66266 0.13304 0.0
Zn143 Zn 0.63284 0.62208 0.12617 0.0
O144 O 0.65641 0.68096 0.09998 0.0
Zn145 Zn 0.65128 0.64374 0.09608 0.0
O146 O 0.61054 0.64076 0.09269 0.0
O147 O 0.59584 0.6175 0.12522 0.0
O148 O 0.66351 0.62585 0.06547 0.0
O149 O 0.64685 0.59944 0.09456 0.0
O150 O 0.65244 0.60846 0.15493 0.0
O151 O 0.67596 0.62927 0.12606 0.0
C152 C 0.59162 0.63051 0.10479 0.0
C153 C 0.67425 0.61651 0.14728 0.0
C154 C 0.66489 0.27931 0.89551 0.0
C155 C 0.67268 0.36744 0.92856 0.0
O156 O 0.64683 0.29407 0.88721 0.0
Zn157 Zn 0.63565 0.33386 0.89136 0.0
O158 O 0.68183 0.28855 0.91059 0.0
Zn159 Zn 0.66865 0.32358 0.91221 0.0
O160 O 0.63283 0.32027 0.93338 0.0
O161 O 0.6024 0.33208 0.90604 0.0
O162 O 0.68696 0.34807 0.93347 0.0
O163 O 0.65337 0.36481 0.91329 0.0
O164 O 0.63675 0.34654 0.85692 0.0
O165 O 0.67515 0.33879 0.87352 0.0
C166 C 0.60899 0.32456 0.92843 0.0
C167 C 0.66103 0.34673 0.85468 0.0
C168 C 0.16943 0.31857 0.37489 0.0
C169 C 0.14679 0.31218 0.36141 0.0
C170 C 0.18812 0.29978 0.37981 0.0
C171 C 0.1999 0.22924 0.38184 0.0
H172 H 0.26975 0.24858 0.36418 0.0
C173 C 0.27921 0.15414 0.36203 0.0
C174 C 0.30456 0.15973 0.36966 0.0
C175 C 0.2598 0.17259 0.36477 0.0
C176 C 0.25047 0.24295 0.36967 0.0
H177 H 0.1256 0.28079 0.34343 0.0
H178 H 0.15832 0.24801 0.35195 0.0
H179 H 0.2358 0.28098 0.3626 0.0
H180 H 0.32926 0.18884 0.38691 0.0
H181 H 0.29523 0.22101 0.392 0.0
H182 H 0.21454 0.19109 0.38858 0.0
C183 C 0.16151 0.26754 0.35884 0.0
C184 C 0.23098 0.26153 0.36873 0.0
C185 C 0.14283 0.28636 0.35384 0.0
C186 C 0.30995 0.18398 0.3807 0.0
C187 C 0.29048 0.20245 0.38351 0.0
C188 C 0.21942 0.21066 0.38288 0.0
C189 C 0.18457 0.27417 0.37144 0.0
C190 C 0.20544 0.2548 0.37445 0.0
C191 C 0.26524 0.19706 0.3753 0.0
C192 C 0.24487 0.21721 0.37643 0.0
H193 H 0.17304 0.33825 0.38113 0.0
H194 H 0.20553 0.30539 0.38989 0.0
H195 H 0.18045 0.22358 0.38669 0.0
H196 H 0.27437 0.13566 0.35341 0.0
H197 H 0.24067 0.16792 0.35788 0.0
C198 C 0.26286 0.85784 0.65789 0.0
C199 C 0.28477 0.84901 0.64463 0.0
C200 C 0.2402 0.84347 0.65773 0.0
C201 C 0.21742 0.77689 0.64906 0.0
H202 H 0.14993 0.80902 0.64779 0.0
C203 C 0.12671 0.71539 0.64689 0.0
C204 C 0.10744 0.7216 0.66487 0.0
C205 C 0.14662 0.73259 0.64186 0.0
C206 C 0.16866 0.79986 0.64832 0.0
H207 H 0.29978 0.81856 0.62007 0.0
H208 H 0.25995 0.79351 0.61952 0.0
H209 H 0.18839 0.83579 0.6427 0.0
H210 H 0.0931 0.75135 0.69062 0.0
H211 H 0.12843 0.78164 0.68197 0.0
H212 H 0.19786 0.74105 0.65485 0.0
C213 C 0.26052 0.8114 0.63041 0.0
C214 C 0.19067 0.81513 0.6454 0.0
C215 C 0.2833 0.82578 0.63063 0.0
C216 C 0.10775 0.74605 0.67674 0.0
C217 C 0.1279 0.76336 0.67174 0.0
C218 C 0.1955 0.76168 0.65188 0.0
C219 C 0.23883 0.81995 0.64424 0.0
C220 C 0.2153 0.80379 0.64583 0.0
C221 C 0.14788 0.75642 0.65476 0.0
C222 C 0.1709 0.77297 0.65157 0.0
H223 H 0.26329 0.87568 0.66888 0.0
H224 H 0.224 0.85044 0.66888 0.0
H225 H 0.23608 0.76761 0.65009 0.0
H226 H 0.12676 0.69689 0.63702 0.0
H227 H 0.16138 0.72698 0.62821 0.0
C228 C 0.77067 0.90796 0.35736 0.0
C229 C 0.76007 0.91631 0.33387 0.0
C230 C 0.79463 0.89596 0.35791 0.0
C231 C 0.85197 0.87665 0.31949 0.0
H232 H 0.84481 0.81401 0.36015 0.0
C233 C 0.91322 0.78305 0.30696 0.0
C234 C 0.91672 0.76754 0.32899 0.0
C235 C 0.89928 0.8062 0.30867 0.0
C236 C 0.84754 0.83163 0.34914 0.0
H237 H 0.76657 0.92045 0.29278 0.0
H238 H 0.80838 0.89832 0.29348 0.0
H239 H 0.81117 0.8461 0.3611 0.0
H240 H 0.91112 0.76513 0.37039 0.0
H241 H 0.88792 0.80591 0.37365 0.0
H242 H 0.88829 0.86129 0.30695 0.0
C243 C 0.79845 0.90161 0.31156 0.0
C244 C 0.82814 0.85012 0.34968 0.0
C245 C 0.77455 0.91419 0.31111 0.0
C246 C 0.90827 0.77659 0.35306 0.0
C247 C 0.89488 0.79987 0.35487 0.0
C248 C 0.87159 0.85798 0.31897 0.0
C249 C 0.80815 0.89135 0.33486 0.0
C250 C 0.83003 0.87286 0.33491 0.0
C251 C 0.88901 0.81425 0.33252 0.0
C252 C 0.86951 0.83524 0.33382 0.0
H253 H 0.75988 0.9097 0.37518 0.0
H254 H 0.80191 0.88894 0.37627 0.0
H255 H 0.85394 0.89397 0.30787 0.0
H256 H 0.91959 0.77638 0.28817 0.0
H257 H 0.89507 0.8168 0.2911 0.0
C258 C 0.85247 0.28632 0.64717 0.0
C259 C 0.844 0.30412 0.6284 0.0
C260 C 0.83958 0.26276 0.65053 0.0
C261 C 0.77512 0.23722 0.64341 0.0
H262 H 0.80511 0.16868 0.64861 0.0
C263 C 0.71136 0.14733 0.64355 0.0
C264 C 0.71778 0.12686 0.66022 0.0
C265 C 0.72846 0.16771 0.63965 0.0
C266 C 0.7965 0.18774 0.64755 0.0
H267 H 0.81661 0.31033 0.59722 0.0
H268 H 0.79426 0.26953 0.60323 0.0
H269 H 0.83302 0.20628 0.64166 0.0
H270 H 0.74734 0.1115 0.68562 0.0
H271 H 0.77702 0.14757 0.67931 0.0
H272 H 0.73879 0.21923 0.64975 0.0
C273 C 0.81058 0.2739 0.61554 0.0
C274 C 0.81247 0.20918 0.6435 0.0
C275 C 0.82346 0.29724 0.61209 0.0
C276 C 0.74187 0.12701 0.67262 0.0
C277 C 0.75893 0.1476 0.66891 0.0
C278 C 0.75926 0.21596 0.6477 0.0
C279 C 0.818 0.25681 0.63527 0.0
C280 C 0.8018 0.23402 0.64094 0.0
C281 C 0.75228 0.16832 0.65257 0.0
C282 C 0.76966 0.1909 0.64935 0.0
H283 H 0.8683 0.29105 0.65998 0.0
H284 H 0.84565 0.24982 0.66587 0.0
H285 H 0.76649 0.25627 0.64207 0.0
H286 H 0.69309 0.14762 0.63345 0.0
H287 H 0.72296 0.18303 0.62644 0.0
C288 C 0.31541 0.22518 0.09685 0.0
C289 C 0.33161 0.24678 0.0998 0.0
C290 C 0.31536 0.20546 0.1156 0.0
C291 C 0.32851 0.19916 0.18464 0.0
H292 H 0.33339 0.12489 0.17481 0.0
C293 C 0.35901 0.13475 0.26719 0.0
C294 C 0.34281 0.11402 0.27373 0.0
C295 C 0.35625 0.14744 0.24361 0.0
C296 C 0.33168 0.14558 0.17772 0.0
H297 H 0.36197 0.26357 0.12322 0.0
H298 H 0.36208 0.22941 0.15534 0.0
H299 H 0.33093 0.15376 0.13688 0.0
H300 H 0.31205 0.08926 0.25985 0.0
H301 H 0.30726 0.11174 0.21818 0.0
H302 H 0.32987 0.19143 0.22515 0.0
C303 C 0.34893 0.2279 0.13913 0.0
C304 C 0.33025 0.16203 0.15611 0.0
C305 C 0.34889 0.24745 0.12068 0.0
C306 C 0.32476 0.10524 0.25539 0.0
C307 C 0.32202 0.11803 0.23157 0.0
C308 C 0.32998 0.1829 0.20601 0.0
C309 C 0.33154 0.20721 0.13737 0.0
C310 C 0.32949 0.18903 0.15947 0.0
C311 C 0.33724 0.13977 0.22591 0.0
C312 C 0.33239 0.15604 0.20282 0.0
H313 H 0.30193 0.2242 0.08088 0.0
H314 H 0.30185 0.18961 0.11377 0.0
H315 H 0.32727 0.21986 0.18782 0.0
H316 H 0.37338 0.1418 0.28064 0.0
H317 H 0.36856 0.16384 0.2395 0.0
C318 C 0.26415 0.6238 0.86916 0.0
C319 C 0.26375 0.63886 0.89177 0.0
C320 C 0.24188 0.62029 0.85461 0.0
C321 C 0.18195 0.65224 0.83847 0.0
H322 H 0.16672 0.5869 0.80478 0.0
C323 C 0.10322 0.64499 0.76081 0.0
C324 C 0.11055 0.632 0.7381 0.0
C325 C 0.11795 0.64281 0.78328 0.0
C326 C 0.17074 0.60528 0.81402 0.0
H327 H 0.23954 0.66161 0.91721 0.0
H328 H 0.20039 0.65571 0.89135 0.0
H329 H 0.19984 0.58872 0.83827 0.0
H330 H 0.13848 0.60568 0.72145 0.0
H331 H 0.1645 0.60225 0.76053 0.0
H332 H 0.15375 0.66909 0.81352 0.0
C333 C 0.21808 0.64662 0.88505 0.0
C334 C 0.18962 0.60629 0.83322 0.0
C335 C 0.24042 0.64995 0.89983 0.0
C336 C 0.13233 0.61593 0.73863 0.0
C337 C 0.14715 0.61384 0.7611 0.0
C338 C 0.16313 0.65125 0.81921 0.0
C339 C 0.21868 0.63188 0.8622 0.0
C340 C 0.1959 0.62992 0.84511 0.0
C341 C 0.1404 0.62768 0.78352 0.0
C342 C 0.15781 0.62789 0.80629 0.0
H343 H 0.28178 0.61485 0.86248 0.0
H344 H 0.24305 0.60916 0.8369 0.0
H345 H 0.18658 0.67077 0.84711 0.0
H346 H 0.08636 0.65731 0.76113 0.0
H347 H 0.11201 0.65336 0.80035 0.0
C348 C 0.66119 0.72874 0.12948 0.0
C349 C 0.64581 0.70756 0.13674 0.0
C350 C 0.66337 0.75038 0.14577 0.0
C351 C 0.65999 0.76532 0.2145 0.0
H352 H 0.65272 0.83748 0.19523 0.0
C353 C 0.65196 0.8434 0.2921 0.0
C354 C 0.66523 0.86677 0.28848 0.0
C355 C 0.64954 0.82568 0.2719 0.0
C356 C 0.65513 0.81743 0.20083 0.0
H357 H 0.61928 0.69335 0.16586 0.0
H358 H 0.62315 0.73072 0.19392 0.0
H359 H 0.64882 0.80371 0.16206 0.0
H360 H 0.68583 0.89019 0.26055 0.0
H361 H 0.68201 0.8589 0.22528 0.0
H362 H 0.66657 0.77858 0.253 0.0
C363 C 0.63385 0.7305 0.17597 0.0
C364 C 0.65287 0.79815 0.18186 0.0
C365 C 0.63161 0.7091 0.15979 0.0
C366 C 0.67545 0.87234 0.26394 0.0
C367 C 0.67319 0.85446 0.2437 0.0
C368 C 0.66243 0.78445 0.23332 0.0
C369 C 0.65029 0.75102 0.16954 0.0
C370 C 0.65474 0.7719 0.18868 0.0
C371 C 0.66057 0.83071 0.24759 0.0
C372 C 0.65948 0.81072 0.22689 0.0
H373 H 0.67234 0.72814 0.11183 0.0
H374 H 0.67613 0.76603 0.14038 0.0
H375 H 0.66208 0.74524 0.2202 0.0
H376 H 0.64359 0.83862 0.31066 0.0
H377 H 0.63911 0.80789 0.27542 0.0
C378 C 0.6992 0.36261 0.83011 0.0
C379 C 0.67286 0.35672 0.83078 0.0
C380 C 0.71023 0.3727 0.80771 0.0
C381 C 0.70338 0.37361 0.73794 0.0
H382 H 0.75306 0.42939 0.7424 0.0
C383 C 0.7681 0.39983 0.65152 0.0
C384 C 0.79422 0.40003 0.65851 0.0
C385 C 0.74909 0.40092 0.67065 0.0
C386 C 0.73913 0.41388 0.74081 0.0
H387 H 0.63742 0.35664 0.80848 0.0
H388 H 0.65695 0.37386 0.76914 0.0
H389 H 0.72779 0.41778 0.78038 0.0
H390 H 0.82097 0.4034 0.69059 0.0
H391 H 0.78816 0.40513 0.72363 0.0
H392 H 0.71575 0.36866 0.69883 0.0
C393 C 0.66892 0.37082 0.78604 0.0
C394 C 0.72474 0.40724 0.76253 0.0
C395 C 0.6578 0.361 0.80855 0.0
C396 C 0.80098 0.40295 0.68463 0.0
C397 C 0.78212 0.40424 0.70359 0.0
C398 C 0.71795 0.38012 0.71623 0.0
C399 C 0.69521 0.37686 0.78547 0.0
C400 C 0.70739 0.38647 0.76152 0.0
C401 C 0.75599 0.40257 0.69693 0.0
C402 C 0.73666 0.39969 0.71775 0.0
H403 H 0.71128 0.3596 0.84693 0.0
H404 H 0.73066 0.37683 0.80763 0.0
H405 H 0.69014 0.35747 0.7367 0.0
H406 H 0.7624 0.39763 0.63149 0.0
H407 H 0.72906 0.39975 0.66497 0.0
C408 C 0.37329 0.85722 0.73295 0.0
C409 C 0.3529 0.87505 0.7322 0.0
C410 C 0.37551 0.8396 0.75321 0.0
C411 C 0.35319 0.82108 0.8184 0.0
H412 H 0.36382 0.75172 0.79175 0.0
C413 C 0.33914 0.72747 0.87962 0.0
C414 C 0.35552 0.7064 0.87451 0.0
C415 C 0.34033 0.74997 0.86454 0.0
C416 C 0.36129 0.77095 0.79967 0.0
H417 H 0.31985 0.88968 0.753 0.0
H418 H 0.32358 0.85843 0.78868 0.0
H419 H 0.36351 0.78816 0.76224 0.0
H420 H 0.38695 0.69302 0.85048 0.0
H421 H 0.38946 0.73232 0.82467 0.0
H422 H 0.35088 0.80358 0.85598 0.0
C423 C 0.33793 0.85829 0.77353 0.0
C424 C 0.36105 0.7919 0.78269 0.0
C425 C 0.3358 0.87619 0.75317 0.0
C426 C 0.37384 0.70875 0.85474 0.0
C427 C 0.37517 0.73127 0.83983 0.0
C428 C 0.35355 0.8 0.83553 0.0
C429 C 0.35724 0.83915 0.77316 0.0
C430 C 0.35721 0.81723 0.79181 0.0
C431 C 0.35803 0.75193 0.84411 0.0
C432 C 0.35777 0.77467 0.82635 0.0
H433 H 0.38697 0.85613 0.71721 0.0
H434 H 0.39099 0.82557 0.7527 0.0
H435 H 0.35021 0.84038 0.82599 0.0
H436 H 0.32478 0.72629 0.89471 0.0
H437 H 0.32672 0.76538 0.86829 0.0
C438 C 0.72177 0.61823 0.15254 0.0
C439 C 0.69748 0.61378 0.1635 0.0
C440 C 0.74348 0.62054 0.16818 0.0
C441 C 0.76954 0.61086 0.23403 0.0
H442 H 0.80978 0.67174 0.21705 0.0
C443 C 0.84293 0.65584 0.30474 0.0
C444 C 0.86605 0.66542 0.29446 0.0
C445 C 0.8232 0.64747 0.28842 0.0
C446 C 0.79904 0.65445 0.22185 0.0
H447 H 0.67712 0.60646 0.19929 0.0
H448 H 0.71521 0.61076 0.22682 0.0
H449 H 0.77425 0.6591 0.18922 0.0
H450 H 0.88669 0.67352 0.25897 0.0
H451 H 0.85233 0.65867 0.23047 0.0
H452 H 0.79432 0.60643 0.26687 0.0
C453 C 0.71741 0.61232 0.20605 0.0
C454 C 0.77866 0.64718 0.2059 0.0
C455 C 0.6956 0.60987 0.19032 0.0
C456 C 0.86904 0.66643 0.2675 0.0
C457 C 0.84932 0.65797 0.25116 0.0
C458 C 0.79005 0.61811 0.25 0.0
C459 C 0.74139 0.6186 0.19517 0.0
C460 C 0.76364 0.62536 0.21181 0.0
C461 C 0.82617 0.64842 0.26145 0.0
C462 C 0.80494 0.64007 0.24414 0.0
H463 H 0.72389 0.62096 0.13188 0.0
H464 H 0.76181 0.62475 0.1592 0.0
H465 H 0.75842 0.59386 0.23896 0.0
H466 H 0.83997 0.65485 0.32544 0.0
H467 H 0.80546 0.64063 0.29697 0.0
C468 C 0.69584 0.07989 0.77338 0.0
C469 C 0.6755 0.08068 0.75545 0.0
C470 C 0.69515 0.09546 0.79559 0.0
C471 C 0.6522 0.13716 0.83548 0.0
H472 H 0.71202 0.1815 0.8417 0.0
C473 C 0.64599 0.24148 0.87206 0.0
C474 C 0.66625 0.25204 0.88666 0.0
C475 C 0.64774 0.21644 0.86209 0.0
C476 C 0.69535 0.16898 0.8407 0.0
H477 H 0.63776 0.09674 0.74761 0.0
H478 H 0.63642 0.12348 0.78618 0.0
H479 H 0.71382 0.14339 0.81399 0.0
H480 H 0.70397 0.24422 0.90287 0.0
H481 H 0.70706 0.20035 0.88527 0.0
H482 H 0.63336 0.16338 0.86131 0.0
C483 C 0.65294 0.11103 0.78327 0.0
C484 C 0.6964 0.14708 0.82482 0.0
C485 C 0.65376 0.09581 0.76104 0.0
C486 C 0.68805 0.23667 0.89165 0.0
C487 C 0.68987 0.21159 0.8815 0.0
C488 C 0.65115 0.15903 0.85134 0.0
C489 C 0.67394 0.11171 0.8004 0.0
C490 C 0.67453 0.13146 0.8213 0.0
C491 C 0.66983 0.2013 0.86636 0.0
C492 C 0.67241 0.17572 0.85339 0.0
H493 H 0.71288 0.06848 0.76951 0.0
H494 H 0.71154 0.09544 0.80855 0.0
H495 H 0.63517 0.12525 0.83352 0.0
H496 H 0.6289 0.25273 0.86788 0.0
H497 H 0.63211 0.20931 0.85019 0.0
C498 C 0.26553 0.36138 0.12663 0.0
C499 C 0.26794 0.3427 0.10707 0.0
C500 C 0.24213 0.36487 0.13929 0.0
C501 C 0.18556 0.32836 0.1579 0.0
H502 H 0.16242 0.3952 0.18284 0.0
C503 C 0.10788 0.33771 0.23704 0.0
C504 C 0.11564 0.35374 0.25758 0.0
C505 C 0.12124 0.3381 0.21358 0.0
C506 C 0.16856 0.3764 0.17591 0.0
H507 H 0.24741 0.31377 0.08467 0.0
H508 H 0.20651 0.31979 0.10702 0.0
H509 H 0.19596 0.39306 0.14996 0.0
H510 H 0.14279 0.38344 0.2693 0.0
H511 H 0.16603 0.38394 0.22875 0.0
H512 H 0.15913 0.31166 0.18478 0.0
C513 C 0.22281 0.33163 0.11256 0.0
C514 C 0.18773 0.37519 0.15712 0.0
C515 C 0.2462 0.32825 0.09976 0.0
C516 C 0.1364 0.37072 0.25393 0.0
C517 C 0.14956 0.37124 0.23054 0.0
C518 C 0.16641 0.32957 0.17675 0.0
C519 C 0.22068 0.34968 0.13274 0.0
C520 C 0.19709 0.35115 0.14865 0.0
C521 C 0.14237 0.35473 0.21022 0.0
C522 C 0.15846 0.35359 0.18665 0.0
H523 H 0.28188 0.37291 0.13264 0.0
H524 H 0.24118 0.3787 0.155 0.0
H525 H 0.19251 0.30954 0.15187 0.0
H526 H 0.09189 0.32449 0.23926 0.0
H527 H 0.11524 0.32523 0.19818 0.0
C528 C 0.88197 0.37456 0.5229 0.0
C529 C 0.89286 0.37574 0.54776 0.0
C530 C 0.89726 0.36851 0.5015 0.0
C531 C 0.96055 0.3393 0.48488 0.0
H532 H 0.9508 0.37467 0.41945 0.0
C533 C 0.03863 0.34845 0.40701 0.0
C534 C 0.0315 0.34399 0.3812 0.0
C535 C 0.0201 0.3487 0.42647 0.0
C536 C 0.95347 0.36438 0.43752 0.0
H537 H 0.92838 0.37246 0.56959 0.0
H538 H 0.95507 0.36291 0.53239 0.0
H539 H 0.92133 0.38323 0.45515 0.0
H540 H -0.0005 0.33584 0.35549 0.0
H541 H 0.96692 0.33686 0.38964 0.0
H542 H 0.99343 0.32142 0.4675 0.0
C543 C 0.93464 0.3657 0.52937 0.0
C544 C 0.9366 0.36923 0.45796 0.0
C545 C 0.91936 0.37143 0.55072 0.0
C546 C 0.00554 0.33922 0.37526 0.0
C547 C 0.98691 0.33994 0.3947 0.0
C548 C 0.97757 0.33473 0.46458 0.0
C549 C 0.92376 0.36379 0.50454 0.0
C550 C 0.94025 0.35711 0.48206 0.0
C551 C 0.99404 0.3449 0.42043 0.0
C552 C 0.97442 0.34754 0.44088 0.0
H553 H 0.86155 0.37765 0.52007 0.0
H554 H 0.88821 0.36703 0.48268 0.0
H555 H 0.96354 0.32908 0.50292 0.0
H556 H 0.0585 0.35213 0.41215 0.0
H557 H 0.02605 0.35277 0.44614 0.0
C558 C 0.33572 0.06642 0.43529 0.0
C559 C 0.32885 0.05414 0.412 0.0
C560 C 0.3306 0.05475 0.45907 0.0
C561 C 0.32131 0.99117 0.48839 0.0
H562 H 0.29694 0.03023 0.54755 0.0
C563 C 0.30681 0.94039 0.58514 0.0
C564 C 0.31613 0.95312 0.60722 0.0
C565 C 0.30358 0.95375 0.56195 0.0
C566 C 0.30393 0.01909 0.53128 0.0
H567 H 0.3108 0.0201 0.3955 0.0
H568 H 0.30205 0.99954 0.43719 0.0
H569 H 0.30062 0.05139 0.50541 0.0
H570 H 0.32815 0.99 0.62289 0.0
H571 H 0.32329 0.01345 0.58196 0.0
H572 H 0.32558 0.95917 0.51409 0.0
C573 C 0.31148 0.01822 0.43692 0.0
C574 C 0.30597 0.0312 0.50713 0.0
C575 C 0.31643 0.03001 0.41307 0.0
C576 C 0.32077 0.97984 0.60613 0.0
C577 C 0.31796 0.99321 0.58267 0.0
C578 C 0.31946 0.97915 0.51247 0.0
C579 C 0.31863 0.03043 0.46017 0.0
C580 C 0.31483 0.01737 0.48547 0.0
C581 C 0.31015 0.98007 0.56008 0.0
C582 C 0.31083 0.99294 0.53429 0.0
H583 H 0.34522 0.08507 0.4352 0.0
H584 H 0.33663 0.0645 0.47661 0.0
H585 H 0.32866 0.98012 0.4722 0.0
H586 H 0.30281 0.91981 0.58559 0.0
H587 H 0.29674 0.94316 0.54522 0.0
C588 C 0.06545 0.64016 0.58048 0.0
C589 C 0.04997 0.64868 0.60103 0.0
C590 C 0.05837 0.64553 0.55487 0.0
C591 C 0.01687 0.69069 0.51772 0.0
H592 H 0.0229 0.64053 0.46231 0.0
C593 C 0.95337 0.69034 0.42759 0.0
C594 C 0.96516 0.68767 0.40336 0.0
C595 C 0.96782 0.68814 0.45019 0.0
C596 C 0.02156 0.65486 0.47754 0.0
H597 H 0.01429 0.66799 0.61096 0.0
H598 H 0.00159 0.67652 0.56665 0.0
H599 H 0.03998 0.63013 0.50525 0.0
H600 H 0.00124 0.68088 0.38358 0.0
H601 H 0.02658 0.67623 0.42353 0.0
H602 H -0.00279 0.71478 0.49038 0.0
C603 C 0.01965 0.66662 0.57011 0.0
C604 C 0.0313 0.64893 0.50209 0.0
C605 C 0.0268 0.66151 0.59553 0.0
C606 C 0.99179 0.68321 0.40208 0.0
C607 C 0.00621 0.6804 0.42481 0.0
C608 C 0.00691 0.69644 0.49336 0.0
C609 C 0.03563 0.65933 0.54948 0.0
C610 C 0.02834 0.6665 0.52264 0.0
C611 C 0.99424 0.68273 0.44902 0.0
C612 C 0.00859 0.67833 0.47327 0.0
H613 H 0.08348 0.63031 0.58421 0.0
H614 H 0.07108 0.63963 0.53939 0.0
H615 H 0.01496 0.70499 0.53291 0.0
H616 H 0.93288 0.69381 0.42909 0.0
H617 H 0.95815 0.6898 0.46866 0.0
C618 C 0.70845 0.03213 0.59869 0.0
C619 C 0.70753 0.01779 0.62174 0.0
C620 C 0.71186 0.01975 0.57501 0.0
C621 C 0.69584 0.95982 0.54337 0.0
H622 H 0.73751 0.98701 0.48752 0.0
C623 C 0.68962 0.91811 0.43989 0.0
C624 C 0.69053 0.93596 0.41938 0.0
C625 C 0.69529 0.92587 0.46514 0.0
C626 C 0.72558 0.9793 0.50283 0.0
H627 H 0.71044 0.9794 0.63833 0.0
H628 H 0.71588 0.95747 0.5965 0.0
H629 H 0.74272 0.00421 0.53116 0.0
H630 H 0.69799 0.976 0.40936 0.0
H631 H 0.70703 0.98976 0.45347 0.0
H632 H 0.67771 0.93587 0.51502 0.0
C633 C 0.71417 0.97837 0.59695 0.0
C634 C 0.72876 0.98901 0.52785 0.0
C635 C 0.71123 0.99088 0.62081 0.0
C636 C 0.6972 0.96176 0.4247 0.0
C637 C 0.70262 0.96958 0.45001 0.0
C638 C 0.69246 0.95029 0.5183 0.0
C639 C 0.71402 0.9927 0.5738 0.0
C640 C 0.71358 0.97972 0.54826 0.0
C641 C 0.70178 0.95173 0.47057 0.0
C642 C 0.70693 0.96028 0.4976 0.0
H643 H 0.70571 0.05293 0.59889 0.0
H644 H 0.71143 0.03128 0.55751 0.0
H645 H 0.68362 0.95256 0.55867 0.0
H646 H 0.6848 0.89802 0.43641 0.0
H647 H 0.69481 0.9115 0.48038 0.0
C648 C 0.44884 0.08516 0.35827 0.0
C649 C 0.42659 0.07527 0.3464 0.0
C650 C 0.47263 0.07305 0.35473 0.0
C651 C 0.523 0.05146 0.33441 0.0
H652 H 0.52458 0.97648 0.33254 0.0
C653 C 0.61713 0.99378 0.3168 0.0
C654 C 0.62049 0.97117 0.33155 0.0
C655 C 0.59351 0.00683 0.31684 0.0
C656 C 0.52454 0.99742 0.3332 0.0
H657 H 0.41198 0.04531 0.32094 0.0
H658 H 0.45347 0.02459 0.31425 0.0
H659 H 0.48366 0.99871 0.33667 0.0
H660 H 0.60176 0.94472 0.35813 0.0
H661 H 0.56106 0.96765 0.35866 0.0
H662 H 0.56408 0.05004 0.33208 0.0
C663 C 0.45251 0.04131 0.32685 0.0
C664 C 0.50099 0.01022 0.3352 0.0
C665 C 0.42871 0.05326 0.33059 0.0
C666 C 0.5998 0.96195 0.34636 0.0
C667 C 0.57634 0.97504 0.34653 0.0
C668 C 0.54663 0.03863 0.33259 0.0
C669 C 0.47476 0.0509 0.33905 0.0
C670 C 0.49989 0.03741 0.336 0.0
C671 C 0.57282 0.9976 0.33173 0.0
C672 C 0.5477 0.01143 0.33222 0.0
H673 H 0.44784 0.10205 0.37063 0.0
H674 H 0.48925 0.08076 0.36475 0.0
H675 H 0.52288 0.07242 0.33459 0.0
H676 H 0.63268 0.00135 0.30514 0.0
H677 H 0.59139 0.02399 0.305 0.0
C678 C 0.00449 0.59898 0.71262 0.0
C679 C -0.0005 0.62371 0.7026 0.0
C680 C 0.98538 0.58013 0.71265 0.0
C681 C 0.93348 0.56159 0.67081 0.0
H682 H 0.92745 0.50413 0.71868 0.0
C683 C 0.88347 0.46623 0.64194 0.0
C684 C 0.89608 0.44334 0.64947 0.0
C685 C 0.89108 0.49012 0.65195 0.0
C686 C 0.92898 0.52001 0.70509 0.0
H687 H 0.97028 0.649 0.68667 0.0
H688 H 0.93661 0.6157 0.68635 0.0
H689 H 0.94788 0.54429 0.73281 0.0
H690 H 0.92667 0.42761 0.67334 0.0
H691 H 0.94048 0.46939 0.69023 0.0
H692 H 0.91597 0.53701 0.64265 0.0
C693 C 0.95533 0.61099 0.69427 0.0
C694 C 0.94046 0.54305 0.71325 0.0
C695 C 0.97447 0.63005 0.69463 0.0
C696 C 0.91657 0.44488 0.66714 0.0
C697 C 0.92428 0.46881 0.67705 0.0
C698 C 0.92211 0.53854 0.66262 0.0
C699 C 0.96098 0.58556 0.70228 0.0
C700 C 0.94358 0.56376 0.69594 0.0
C701 C 0.91158 0.49171 0.66962 0.0
C702 C 0.92049 0.5172 0.67941 0.0
H703 H 0.0237 0.59371 0.7189 0.0
H704 H 0.99043 0.56072 0.71876 0.0
H705 H 0.93596 0.57705 0.65688 0.0
H706 H 0.86742 0.46572 0.62856 0.0
H707 H 0.88073 0.50734 0.64602 0.0
C708 C 0.60739 0.00134 0.67196 0.0
C709 C 0.60573 0.02839 0.66956 0.0
C710 C 0.58584 0.9858 0.66731 0.0
C711 C 0.52192 0.98796 0.63509 0.0
H712 H 0.50718 0.92793 0.67758 0.0
C713 C 0.42146 0.94468 0.64666 0.0
C714 C 0.41858 0.91772 0.64479 0.0
C715 C 0.44581 0.95585 0.64647 0.0
C716 C 0.51133 0.9444 0.66531 0.0
H717 H 0.58002 0.06044 0.66139 0.0
H718 H 0.54236 0.03356 0.65419 0.0
H719 H 0.54677 0.9524 0.68485 0.0
H720 H 0.43884 0.88125 0.64098 0.0
H721 H 0.48191 0.90096 0.64139 0.0
H722 H 0.48585 0.98062 0.61644 0.0
C723 C 0.56042 0.02417 0.6588 0.0
C724 C 0.53397 0.95843 0.66944 0.0
C725 C 0.58197 0.03964 0.66317 0.0
C726 C 0.44058 0.9021 0.64234 0.0
C727 C 0.46511 0.91331 0.64269 0.0
C728 C 0.49922 0.97414 0.63119 0.0
C729 C 0.56216 0.99704 0.66038 0.0
C730 C 0.53925 0.98073 0.65474 0.0
C731 C 0.46786 0.94029 0.64484 0.0
C732 C 0.49349 0.95255 0.64659 0.0
H733 H 0.6255 0.99209 0.6767 0.0
H734 H 0.58793 0.96498 0.66853 0.0
H735 H 0.52569 0.00458 0.6229 0.0
H736 H 0.40483 0.9572 0.64844 0.0
H737 H 0.44743 0.97668 0.64839 0.0
C738 C 0.00191 0.63185 0.29792 0.0
C739 C 0.9757 0.63146 0.30442 0.0
C740 C 0.01554 0.60866 0.29532 0.0
C741 C 0.00956 0.53915 0.28419 0.0
H742 H 0.06462 0.5314 0.33428 0.0
C743 C 0.04602 0.43902 0.31562 0.0
C744 C 0.07183 0.4361 0.32305 0.0
C745 C 0.03618 0.46347 0.30977 0.0
C746 C 0.04975 0.53327 0.31971 0.0
H747 H 0.94279 0.60681 0.31174 0.0
H748 H 0.96646 0.56632 0.30646 0.0
H749 H 0.04441 0.57348 0.32827 0.0
H750 H 0.10785 0.45623 0.32938 0.0
H751 H 0.09102 0.49878 0.31819 0.0
H752 H 0.01482 0.4991 0.2754 0.0
C753 C 0.97649 0.58448 0.30368 0.0
C754 C 0.03816 0.55742 0.31636 0.0
C755 C 0.96303 0.6076 0.30685 0.0
C756 C 0.08777 0.45799 0.32404 0.0
C757 C 0.07806 0.4824 0.3177 0.0
C758 C 0.02146 0.51509 0.28717 0.0
C759 C 0.00296 0.58483 0.29854 0.0
C760 C 0.01759 0.56038 0.29903 0.0
C761 C 0.05207 0.48551 0.31072 0.0
C762 C 0.04126 0.51167 0.30548 0.0
H763 H 0.01212 0.65003 0.29606 0.0
H764 H 0.03598 0.60929 0.29136 0.0
H765 H 0.99378 0.54109 0.27061 0.0
H766 H 0.03327 0.42246 0.31484 0.0
H767 H 0.01595 0.46509 0.30506 0.0
C768 C 0.30594 0.38682 0.01227 0.0
C769 C 0.31779 0.3638 0.00426 0.0
C770 C 0.30583 0.40853 0.99631 0.0
C771 C 0.34539 0.4405 0.94909 0.0
H772 H 0.2873 0.48745 0.94491 0.0
C773 C 0.35354 0.54613 0.90996 0.0
C774 C 0.34087 0.56481 0.92509 0.0
C775 C 0.34962 0.51965 0.91449 0.0
C776 C 0.30373 0.47458 0.94591 0.0
H777 H 0.33826 0.34498 0.97309 0.0
H778 H 0.33866 0.38356 0.94504 0.0
H779 H 0.28096 0.44349 0.96082 0.0
H780 H 0.31446 0.57024 0.95709 0.0
H781 H 0.30797 0.52448 0.96512 0.0
H782 H 0.36841 0.47207 0.93543 0.0
C783 C 0.32914 0.38454 0.96362 0.0
C784 C 0.30005 0.44937 0.95486 0.0
C785 C 0.32874 0.36249 0.9795 0.0
C786 C 0.32446 0.55645 0.94496 0.0
C787 C 0.32053 0.53014 0.94942 0.0
C788 C 0.34911 0.46585 0.94021 0.0
C789 C 0.31803 0.40789 0.97212 0.0
C790 C 0.32097 0.43236 0.9574 0.0
C791 C 0.33286 0.51139 0.93414 0.0
C792 C 0.32846 0.48344 0.93944 0.0
H793 H 0.29746 0.3883 0.03134 0.0
H794 H 0.2974 0.42629 0.00355 0.0
H795 H 0.36191 0.42786 0.95105 0.0
H796 H 0.36627 0.55192 0.89446 0.0
H797 H 0.35939 0.50568 0.90238 0.0
C798 C 0.40662 0.665 0.97557 0.0
C799 C 0.38131 0.65943 0.98307 0.0
C800 C 0.4263 0.66585 0.99388 0.0
C801 C 0.44654 0.6363 0.05321 0.0
H802 H 0.49888 0.68971 0.05225 0.0
C803 C 0.54347 0.62722 0.10927 0.0
C804 C 0.56519 0.63481 0.09501 0.0
C805 C 0.51866 0.63255 0.10001 0.0
C806 C 0.48447 0.6746 0.05274 0.0
H807 H 0.35651 0.65085 0.01559 0.0
H808 H 0.39138 0.65159 0.04776 0.0
H809 H 0.45905 0.696 0.02809 0.0
H810 H 0.57785 0.65343 0.0596 0.0
H811 H 0.53505 0.66214 0.0434 0.0
H812 H 0.4726 0.6142 0.0766 0.0
C813 C 0.39576 0.65564 0.0277 0.0
C814 C 0.46163 0.6783 0.03905 0.0
C815 C 0.37587 0.65534 0.00937 0.0
C816 C 0.5616 0.64749 0.07124 0.0
C817 C 0.53697 0.65273 0.06202 0.0
C818 C 0.46957 0.63246 0.06675 0.0
C819 C 0.42116 0.66069 0.02001 0.0
C820 C 0.44283 0.65886 0.03848 0.0
C821 C 0.51519 0.64559 0.07636 0.0
C822 C 0.48915 0.6512 0.06587 0.0
H823 H 0.41132 0.66829 0.95543 0.0
H824 H 0.44576 0.66953 0.98741 0.0
H825 H 0.43236 0.62096 0.05292 0.0
H826 H 0.54562 0.61748 0.1277 0.0
H827 H 0.50224 0.62681 0.1115 0.0
C828 C 0.667 0.41547 0.93061 0.0
C829 C 0.6772 0.39264 0.94132 0.0
C830 C 0.66914 0.439 0.94376 0.0
C831 C 0.67023 0.46401 0.00843 0.0
H832 H 0.69429 0.52843 0.97857 0.0
C833 C 0.67069 0.55677 0.06908 0.0
C834 C 0.6647 0.58029 0.05688 0.0
C835 C 0.67552 0.53458 0.05454 0.0
C836 C 0.68716 0.51072 0.98713 0.0
H837 H 0.69819 0.37664 0.97389 0.0
H838 H 0.70125 0.41776 0.99726 0.0
H839 H 0.69688 0.48839 0.95349 0.0
H840 H 0.6595 0.59927 0.01994 0.0
H841 H 0.66656 0.56013 0.99434 0.0
H842 H 0.65907 0.486 0.04138 0.0
C843 C 0.69189 0.41738 0.97853 0.0
C844 C 0.68886 0.48778 0.97279 0.0
C845 C 0.69021 0.39393 0.96513 0.0
C846 C 0.66417 0.58135 0.02978 0.0
C847 C 0.66837 0.5589 0.01516 0.0
C848 C 0.66803 0.48693 0.02253 0.0
C849 C 0.68108 0.44004 0.96809 0.0
C850 C 0.68047 0.46424 0.98339 0.0
C851 C 0.67377 0.53508 0.02738 0.0
C852 C 0.67654 0.51065 0.01217 0.0
H853 H 0.65696 0.41507 0.91223 0.0
H854 H 0.66053 0.45619 0.9354 0.0
H855 H 0.66319 0.44617 0.01684 0.0
H856 H 0.67166 0.55553 0.08997 0.0
H857 H 0.68045 0.51695 0.06474 0.0
C858 C 0.41906 0.30214 0.0487 0.0
C859 C 0.40972 0.32206 0.06461 0.0
C860 C 0.44499 0.30114 0.04205 0.0
C861 C 0.5029 0.29886 0.03611 0.0
H862 H 0.52519 0.36386 0.00611 0.0
C863 C 0.59519 0.3114 0.97307 0.0
C864 C 0.58947 0.32276 0.94901 0.0
C865 C 0.57678 0.31113 0.99279 0.0
C866 C 0.51938 0.34566 0.01473 0.0
H867 H 0.42045 0.35576 0.08719 0.0
H868 H 0.46592 0.35419 0.07518 0.0
H869 H 0.48653 0.36278 0.03262 0.0
H870 H 0.56001 0.34266 0.92675 0.0
H871 H 0.52823 0.34236 0.96106 0.0
H872 H 0.53512 0.28159 0.01686 0.0
C873 C 0.45306 0.33939 0.0679 0.0
C874 C 0.4974 0.34507 0.03009 0.0
C875 C 0.42708 0.34028 0.07475 0.0
C876 C 0.56504 0.33369 0.94501 0.0
C877 C 0.5469 0.33377 0.96474 0.0
C878 C 0.52505 0.29951 0.02087 0.0
C879 C 0.46213 0.32012 0.05103 0.0
C880 C 0.48835 0.32149 0.04004 0.0
C881 C 0.55263 0.32267 0.98883 0.0
C882 C 0.5328 0.32274 0.0092 0.0
H883 H 0.40622 0.28766 0.04078 0.0
H884 H 0.45132 0.28626 0.02875 0.0
H885 H 0.49645 0.28047 0.04379 0.0
H886 H 0.61387 0.30282 0.97668 0.0
H887 H 0.58151 0.30234 0.01121 0.0
loop_
_geom_bond_atom_site_label_1
_geom_bond_atom_site_label_2
_geom_bond_distance
_geom_bond_site_symmetry_2
_ccdc_geom_bond_type
C0 O2 1.247 . S
C0 O4 1.258 . S
C1 O8 1.247 . S
C1 O9 1.258 . S
O2 C0 1.247 . S
O2 Zn3 2.028 . S
Zn3 O2 2.028 . S
Zn3 O7 2.035 . S
Zn3 O9 2.035 . S
Zn3 O10 2.028 . S
O4 C0 1.258 . S
O4 Zn5 2.035 . S
Zn5 O4 2.035 . S
Zn5 O6 2.028 . S
Zn5 O8 2.028 . S
Zn5 O11 2.035 . S
O6 Zn5 2.028 . S
O6 C12 1.247 . S
O7 Zn3 2.035 . S
O7 C12 1.258 . S
O8 C1 1.247 . S
O8 Zn5 2.028 . S
O9 C1 1.258 . S
O9 Zn3 2.035 . S
O10 Zn3 2.028 . S
O10 C13 1.247 . S
O11 Zn5 2.035 . S
O11 C13 1.258 . S
C12 O6 1.247 . S
C12 O7 1.258 . S
C13 O10 1.247 . S
C13 O11 1.258 . S
C14 O16 1.247 . S
C14 O18 1.258 . S
C15 O22 1.247 . S
C15 O23 1.258 . S
O16 C14 1.247 . S
O16 Zn17 2.028 . S
Zn17 O16 2.028 . S
Zn17 O21 2.035 . S
Zn17 O23 2.035 . S
Zn17 O24 2.028 . S
O18 C14 1.258 . S
O18 Zn19 2.035 . S
Zn19 O18 2.035 . S
Zn19 O20 2.028 . S
Zn19 O22 2.028 . S
Zn19 O25 2.035 . S
O20 Zn19 2.028 . S
O20 C26 1.247 . S
O21 Zn17 2.035 . S
O21 C26 1.258 . S
O22 C15 1.247 . S
O22 Zn19 2.028 . S
O23 C15 1.258 . S
O23 Zn17 2.035 . S
O24 Zn17 2.028 . S
O24 C27 1.247 . S
O25 Zn19 2.035 . S
O25 C27 1.258 . S
C26 O20 1.247 . S
C26 O21 1.258 . S
C27 O24 1.247 . S
C27 O25 1.258 . S
C28 O30 1.247 . S
C28 O32 1.258 . S
C29 O36 1.247 . S
C29 O37 1.258 . S
O30 C28 1.247 . S
O30 Zn31 2.028 . S
Zn31 O30 2.028 . S
Zn31 O35 2.035 . S
Zn31 O37 2.035 . S
Zn31 O38 2.028 . S
O32 C28 1.258 . S
O32 Zn33 2.035 . S
Zn33 O32 2.035 . S
Zn33 O34 2.028 . S
Zn33 O36 2.028 . S
Zn33 O39 2.035 . S
O34 Zn33 2.028 . S
O34 C40 1.247 . S
O35 Zn31 2.035 . S
O35 C40 1.258 . S
O36 C29 1.247 . S
O36 Zn33 2.028 . S
O37 C29 1.258 . S
O37 Zn31 2.035 . S
O38 Zn31 2.028 . S
O38 C41 1.247 . S
O39 Zn33 2.035 . S
O39 C41 1.258 . S
C40 O34 1.247 . S
C40 O35 1.258 . S
C41 O38 1.247 . S
C41 O39 1.258 . S
C42 O44 1.247 . S
C42 O46 1.258 . S
C43 O50 1.247 . S
C43 O51 1.258 . S
O44 C42 1.247 . S
O44 Zn45 2.028 . S
Zn45 O44 2.028 . S
Zn45 O49 2.035 . S
Zn45 O51 2.035 . S
Zn45 O52 2.028 . S
O46 C42 1.258 . S
O46 Zn47 2.035 . S
Zn47 O46 2.035 . S
Zn47 O48 2.028 . S
Zn47 O50 2.028 . S
Zn47 O53 2.035 . S
O48 Zn47 2.028 . S
O48 C54 1.247 . S
O49 Zn45 2.035 . S
O49 C54 1.258 . S
O50 C43 1.247 . S
O50 Zn47 2.028 . S
O51 C43 1.258 . S
O51 Zn45 2.035 . S
O52 Zn45 2.028 . S
O52 C55 1.247 . S
O53 Zn47 2.035 . S
O53 C55 1.258 . S
C54 O48 1.247 . S
C54 O49 1.258 . S
C55 O52 1.247 . S
C55 O53 1.258 . S
C56 O58 1.247 . S
C56 O60 1.258 . S
C57 O64 1.247 . S
C57 O65 1.258 . S
O58 C56 1.247 . S
O58 Zn59 2.028 . S
Zn59 O58 2.028 . S
Zn59 O63 2.035 . S
Zn59 O65 2.035 . S
Zn59 O66 2.028 . S
O60 C56 1.258 . S
O60 Zn61 2.035 . S
Zn61 O60 2.035 . S
Zn61 O62 2.028 . S
Zn61 O64 2.028 . S
Zn61 O67 2.035 . S
O62 Zn61 2.028 . S
O62 C68 1.247 . S
O63 Zn59 2.035 . S
O63 C68 1.258 . S
O64 C57 1.247 . S
O64 Zn61 2.028 . S
O65 C57 1.258 . S
O65 Zn59 2.035 . S
O66 Zn59 2.028 . S
O66 C69 1.247 . S
O67 Zn61 2.035 . S
O67 C69 1.258 . S
C68 O62 1.247 . S
C68 O63 1.258 . S
C69 O66 1.247 . S
C69 O67 1.258 . S
C70 O72 1.247 . S
C70 O74 1.258 . S
C71 O78 1.247 . S
C71 O79 1.258 . S
O72 C70 1.247 . S
O72 Zn73 2.028 . S
Zn73 O72 2.028 . S
Zn73 O77 2.035 . S
Zn73 O79 2.035 . S
Zn73 O80 2.028 . S
O74 C70 1.258 . S
O74 Zn75 2.035 . S
Zn75 O74 2.035 . S
Zn75 O76 2.028 . S
Zn75 O78 2.028 . S
Zn75 O81 2.035 . S
O76 Zn75 2.028 . S
O76 C82 1.247 . S
O77 Zn73 2.035 . S
O77 C82 1.258 . S
O78 C71 1.247 . S
O78 Zn75 2.028 . S
O79 C71 1.258 . S
O79 Zn73 2.035 . S
O80 Zn73 2.028 . S
O80 C83 1.247 . S
O81 Zn75 2.035 . S
O81 C83 1.258 . S
C82 O76 1.247 . S
C82 O77 1.258 . S
C83 O80 1.247 . S
C83 O81 1.258 . S
C84 O86 1.247 . S
C84 O88 1.258 . S
C85 O92 1.247 . S
C85 O93 1.258 . S
O86 C84 1.247 . S
O86 Zn87 2.028 . S
Zn87 O86 2.028 . S
Zn87 O91 2.035 . S
Zn87 O93 2.035 . S
Zn87 O94 2.028 . S
O88 C84 1.258 . S
O88 Zn89 2.035 . S
Zn89 O88 2.035 . S
Zn89 O90 2.028 . S
Zn89 O92 2.028 . S
Zn89 O95 2.035 . S
O90 Zn89 2.028 . S
O90 C96 1.247 . S
O91 Zn87 2.035 . S
O91 C96 1.258 . S
O92 C85 1.247 . S
O92 Zn89 2.028 . S
O93 C85 1.258 . S
O93 Zn87 2.035 . S
O94 Zn87 2.028 . S
O94 C97 1.247 . S
O95 Zn89 2.035 . S
O95 C97 1.258 . S
C96 O90 1.247 . S
C96 O91 1.258 . S
C97 O94 1.247 . S
C97 O95 1.258 . S
C98 O100 1.247 . S
C98 O102 1.258 . S
C99 O106 1.247 . S
C99 O107 1.258 . S
O100 C98 1.247 . S
O100 Zn101 2.028 . S
Zn101 O100 2.028 . S
Zn101 O105 2.035 . S
Zn101 O107 2.035 . S
Zn101 O108 2.028 . S
O102 C98 1.258 . S
O102 Zn103 2.035 . S
Zn103 O102 2.035 . S
Zn103 O104 2.028 . S
Zn103 O106 2.028 . S
Zn103 O109 2.035 . S
O104 Zn103 2.028 . S
O104 C110 1.247 . S
O105 Zn101 2.035 . S
O105 C110 1.258 . S
O106 C99 1.247 . S
O106 Zn103 2.028 . S
O107 C99 1.258 . S
O107 Zn101 2.035 . S
O108 Zn101 2.028 . S
O108 C111 1.247 . S
O109 Zn103 2.035 . S
O109 C111 1.258 . S
C110 O104 1.247 . S
C110 O105 1.258 . S
C111 O108 1.247 . S
C111 O109 1.258 . S
C112 O114 1.247 . S
C112 O116 1.258 . S
C113 O120 1.247 . S
C113 O121 1.258 . S
O114 C112 1.247 . S
O114 Zn115 2.028 . S
Zn115 O114 2.028 . S
Zn115 O119 2.035 . S
Zn115 O121 2.035 . S
Zn115 O122 2.028 . S
O116 C112 1.258 . S
O116 Zn117 2.035 . S
Zn117 O116 2.035 . S
Zn117 O118 2.028 . S
Zn117 O120 2.028 . S
Zn117 O123 2.035 . S
O118 Zn117 2.028 . S
O118 C124 1.247 . S
O119 Zn115 2.035 . S
O119 C124 1.258 . S
O120 C113 1.247 . S
O120 Zn117 2.028 . S
O121 C113 1.258 . S
O121 Zn115 2.035 . S
O122 Zn115 2.028 . S
O122 C125 1.247 . S
O123 Zn117 2.035 . S
O123 C125 1.258 . S
C124 O118 1.247 . S
C124 O119 1.258 . S
C125 O122 1.247 . S
C125 O123 1.258 . S
C126 O128 1.247 . S
C126 O130 1.258 . S
C127 O134 1.247 . S
C127 O135 1.258 . S
O128 C126 1.247 . S
O128 Zn129 2.028 . S
Zn129 O128 2.028 . S
Zn129 O133 2.035 . S
Zn129 O135 2.035 . S
Zn129 O136 2.028 . S
O130 C126 1.258 . S
O130 Zn131 2.035 . S
Zn131 O130 2.035 . S
Zn131 O132 2.028 . S
Zn131 O134 2.028 . S
Zn131 O137 2.035 . S
O132 Zn131 2.028 . S
O132 C138 1.247 . S
O133 Zn129 2.035 . S
O133 C138 1.258 . S
O134 C127 1.247 . S
O134 Zn131 2.028 . S
O135 C127 1.258 . S
O135 Zn129 2.035 . S
O136 Zn129 2.028 . S
O136 C139 1.247 . S
O137 Zn131 2.035 . S
O137 C139 1.258 . S
C138 O132 1.247 . S
C138 O133 1.258 . S
C139 O136 1.247 . S
C139 O137 1.258 . S
C140 O142 1.247 . S
C140 O144 1.258 . S
C141 O148 1.247 . S
C141 O149 1.258 . S
O142 C140 1.247 . S
O142 Zn143 2.028 . S
Zn143 O142 2.028 . S
Zn143 O147 2.035 . S
Zn143 O149 2.035 . S
Zn143 O150 2.028 . S
O144 C140 1.258 . S
O144 Zn145 2.035 . S
Zn145 O144 2.035 . S
Zn145 O146 2.028 . S
Zn145 O148 2.028 . S
Zn145 O151 2.035 . S
O146 Zn145 2.028 . S
O146 C152 1.247 . S
O147 Zn143 2.035 . S
O147 C152 1.258 . S
O148 C141 1.247 . S
O148 Zn145 2.028 . S
O149 C141 1.258 . S
O149 Zn143 2.035 . S
O150 Zn143 2.028 . S
O150 C153 1.247 . S
O151 Zn145 2.035 . S
O151 C153 1.258 . S
C152 O146 1.247 . S
C152 O147 1.258 . S
C153 O150 1.247 . S
C153 O151 1.258 . S
C154 O156 1.247 . S
C154 O158 1.258 . S
C155 O162 1.247 . S
C155 O163 1.258 . S
O156 C154 1.247 . S
O156 Zn157 2.028 . S
Zn157 O156 2.028 . S
Zn157 O161 2.035 . S
Zn157 O163 2.035 . S
Zn157 O164 2.028 . S
O158 C154 1.258 . S
O158 Zn159 2.035 . S
Zn159 O158 2.035 . S
Zn159 O160 2.028 . S
Zn159 O162 2.028 . S
Zn159 O165 2.035 . S
O160 Zn159 2.028 . S
O160 C166 1.247 . S
O161 Zn157 2.035 . S
O161 C166 1.258 . S
O162 C155 1.247 . S
O162 Zn159 2.028 . S
O163 C155 1.258 . S
O163 Zn157 2.035 . S
O164 Zn157 2.028 . S
O164 C167 1.247 . S
O165 Zn159 2.035 . S
O165 C167 1.258 . S
C166 O160 1.247 . S
C166 O161 1.258 . S
C167 O164 1.247 . S
C167 O165 1.258 . S
C168 C169 1.349 . S
C168 C170 1.327 . S
C168 H193 0.950 . S
C169 C168 1.349 . S
C169 C185 1.349 . S
C170 C168 1.327 . S
C170 C189 1.429 . S
C170 H194 0.950 . S
C171 C188 1.574 . S
C171 C190 1.368 . S
C171 H195 0.949 . S
H172 C176 0.949 . S
C173 C174 1.349 . S
C173 C175 1.327 . S
C173 H196 0.950 . S
C174 C173 1.349 . S
C174 C186 1.349 . S
C175 C173 1.327 . S
C175 C191 1.429 . S
C175 H197 0.950 . S
C176 H172 0.949 . S
C176 C184 1.574 . S
C176 C192 1.368 . S
H177 C185 0.950 . S
H178 C183 0.950 . S
H179 C184 0.949 . S
H180 C186 0.950 . S
H181 C187 0.950 . S
H182 C188 0.949 . S
C183 H178 0.950 . S
C183 C185 1.327 . S
C183 C189 1.429 . S
C184 C176 1.574 . S
C184 H179 0.949 . S
C184 C190 1.368 . S
C185 C169 1.349 . S
C185 H177 0.950 . S
C185 C183 1.327 . S
C186 C174 1.349 . S
C186 H180 0.950 . S
C186 C187 1.327 . S
C187 H181 0.950 . S
C187 C186 1.327 . S
C187 C191 1.429 . S
C188 C171 1.574 . S
C188 H182 0.949 . S
C188 C192 1.368 . S
C189 C170 1.429 . S
C189 C183 1.429 . S
C189 C190 1.523 . S
C190 C171 1.368 . S
C190 C184 1.368 . S
C190 C189 1.523 . S
C191 C175 1.429 . S
C191 C187 1.429 . S
C191 C192 1.523 . S
C192 C176 1.368 . S
C192 C188 1.368 . S
C192 C191 1.523 . S
H193 C168 0.950 . S
H194 C170 0.950 . S
H195 C171 0.949 . S
H196 C173 0.950 . S
H197 C175 0.950 . S
C198 C199 1.349 . S
C198 C200 1.327 . S
C198 H223 0.950 . S
C199 C198 1.349 . S
C199 C215 1.349 . S
C200 C198 1.327 . S
C200 C219 1.429 . S
C200 H224 0.950 . S
C201 C218 1.574 . S
C201 C220 1.368 . S
C201 H225 0.949 . S
H202 C206 0.949 . S
C203 C204 1.349 . S
C203 C205 1.327 . S
C203 H226 0.950 . S
C204 C203 1.349 . S
C204 C216 1.349 . S
C205 C203 1.327 . S
C205 C221 1.429 . S
C205 H227 0.950 . S
C206 H202 0.949 . S
C206 C214 1.574 . S
C206 C222 1.368 . S
H207 C215 0.950 . S
H208 C213 0.950 . S
H209 C214 0.949 . S
H210 C216 0.950 . S
H211 C217 0.950 . S
H212 C218 0.949 . S
C213 H208 0.950 . S
C213 C215 1.327 . S
C213 C219 1.429 . S
C214 C206 1.574 . S
C214 H209 0.949 . S
C214 C220 1.368 . S
C215 C199 1.349 . S
C215 H207 0.950 . S
C215 C213 1.327 . S
C216 C204 1.349 . S
C216 H210 0.950 . S
C216 C217 1.327 . S
C217 H211 0.950 . S
C217 C216 1.327 . S
C217 C221 1.429 . S
C218 C201 1.574 . S
C218 H212 0.949 . S
C218 C222 1.368 . S
C219 C200 1.429 . S
C219 C213 1.429 . S
C219 C220 1.523 . S
C220 C201 1.368 . S
C220 C214 1.368 . S
C220 C219 1.523 . S
C221 C205 1.429 . S
C221 C217 1.429 . S
C221 C222 1.523 . S
C222 C206 1.368 . S
C222 C218 1.368 . S
C222 C221 1.523 . S
H223 C198 0.950 . S
H224 C200 0.950 . S
H225 C201 0.949 . S
H226 C203 0.950 . S
H227 C205 0.950 . S
C228 C229 1.349 . S
C228 C230 1.327 . S
C228 H253 0.950 . S
C229 C228 1.349 . S
C229 C245 1.349 . S
C230 C228 1.327 . S
C230 C249 1.429 . S
C230 H254 0.950 . S
C231 C248 1.574 . S
C231 C250 1.368 . S
C231 H255 0.949 . S
H232 C236 0.949 . S
C233 C234 1.349 . S
C233 C235 1.327 . S
C233 H256 0.950 . S
C234 C233 1.349 . S
C234 C246 1.349 . S
C235 C233 1.327 . S
C235 C251 1.429 . S
C235 H257 0.950 . S
C236 H232 0.949 . S
C236 C244 1.574 . S
C236 C252 1.368 . S
H237 C245 0.950 . S
H238 C243 0.950 . S
H239 C244 0.949 . S
H240 C246 0.950 . S
H241 C247 0.950 . S
H242 C248 0.949 . S
C243 H238 0.950 . S
C243 C245 1.327 . S
C243 C249 1.429 . S
C244 C236 1.574 . S
C244 H239 0.949 . S
C244 C250 1.368 . S
C245 C229 1.349 . S
C245 H237 0.950 . S
C245 C243 1.327 . S
C246 C234 1.349 . S
C246 H240 0.950 . S
C246 C247 1.327 . S
C247 H241 0.950 . S
C247 C246 1.327 . S
C247 C251 1.429 . S
C248 C231 1.574 . S
C248 H242 0.949 . S
C248 C252 1.368 . S
C249 C230 1.429 . S
C249 C243 1.429 . S
C249 C250 1.523 . S
C250 C231 1.368 . S
C250 C244 1.368 . S
C250 C249 1.523 . S
C251 C235 1.429 . S
C251 C247 1.429 . S
C251 C252 1.523 . S
C252 C236 1.368 . S
C252 C248 1.368 . S
C252 C251 1.523 . S
H253 C228 0.950 . S
H254 C230 0.950 . S
H255 C231 0.949 . S
H256 C233 0.950 . S
H257 C235 0.950 . S
C258 C259 1.349 . S
C258 C260 1.327 . S
C258 H283 0.950 . S
C259 C258 1.349 . S
C259 C275 1.349 . S
C260 C258 1.327 . S
C260 C279 1.429 . S
C260 H284 0.950 . S
C261 C278 1.574 . S
C261 C280 1.368 . S
C261 H285 0.949 . S
H262 C266 0.949 . S
C263 C264 1.349 . S
C263 C265 1.327 . S
C263 H286 0.950 . S
C264 C263 1.349 . S
C264 C276 1.349 . S
C265 C263 1.327 . S
C265 C281 1.429 . S
C265 H287 0.950 . S
C266 H262 0.949 . S
C266 C274 1.574 . S
C266 C282 1.368 . S
H267 C275 0.950 . S
H268 C273 0.950 . S
H269 C274 0.949 . S
H270 C276 0.950 . S
H271 C277 0.950 . S
H272 C278 0.949 . S
C273 H268 0.950 . S
C273 C275 1.327 . S
C273 C279 1.429 . S
C274 C266 1.574 . S
C274 H269 0.949 . S
C274 C280 1.368 . S
C275 C259 1.349 . S
C275 H267 0.950 . S
C275 C273 1.327 . S
C276 C264 1.349 . S
C276 H270 0.950 . S
C276 C277 1.327 . S
C277 H271 0.950 . S
C277 C276 1.327 . S
C277 C281 1.429 . S
C278 C261 1.574 . S
C278 H272 0.949 . S
C278 C282 1.368 . S
C279 C260 1.429 . S
C279 C273 1.429 . S
C279 C280 1.523 . S
C280 C261 1.368 . S
C280 C274 1.368 . S
C280 C279 1.523 . S
C281 C265 1.429 . S
C281 C277 1.429 . S
C281 C282 1.523 . S
C282 C266 1.368 . S
C282 C278 1.368 . S
C282 C281 1.523 . S
H283 C258 0.950 . S
H284 C260 0.950 . S
H285 C261 0.949 . S
H286 C263 0.950 . S
H287 C265 0.950 . S
C288 C289 1.349 . S
C288 C290 1.327 . S
C288 H313 0.950 . S
C289 C288 1.349 . S
C289 C305 1.349 . S
C290 C288 1.327 . S
C290 C309 1.429 . S
C290 H314 0.950 . S
C291 C308 1.574 . S
C291 C310 1.368 . S
C291 H315 0.949 . S
H292 C296 0.949 . S
C293 C294 1.349 . S
C293 C295 1.327 . S
C293 H316 0.950 . S
C294 C293 1.349 . S
C294 C306 1.349 . S
C295 C293 1.327 . S
C295 C311 1.429 . S
C295 H317 0.950 . S
C296 H292 0.949 . S
C296 C304 1.574 . S
C296 C312 1.368 . S
H297 C305 0.950 . S
H298 C303 0.950 . S
H299 C304 0.949 . S
H300 C306 0.950 . S
H301 C307 0.950 . S
H302 C308 0.949 . S
C303 H298 0.950 . S
C303 C305 1.327 . S
C303 C309 1.429 . S
C304 C296 1.574 . S
C304 H299 0.949 . S
C304 C310 1.368 . S
C305 C289 1.349 . S
C305 H297 0.950 . S
C305 C303 1.327 . S
C306 C294 1.349 . S
C306 H300 0.950 . S
C306 C307 1.327 . S
C307 H301 0.950 . S
C307 C306 1.327 . S
C307 C311 1.429 . S
C308 C291 1.574 . S
C308 H302 0.949 . S
C308 C312 1.368 . S
C309 C290 1.429 . S
C309 C303 1.429 . S
C309 C310 1.523 . S
C310 C291 1.368 . S
C310 C304 1.368 . S
C310 C309 1.523 . S
C311 C295 1.429 . S
C311 C307 1.429 . S
C311 C312 1.523 . S
C312 C296 1.368 . S
C312 C308 1.368 . S
C312 C311 1.523 . S
H313 C288 0.950 . S
H314 C290 0.950 . S
H315 C291 0.949 . S
H316 C293 0.950 . S
H317 C295 0.950 . S
C318 C319 1.349 . S
C318 C320 1.327 . S
C318 H343 0.950 . S
C319 C318 1.349 . S
C319 C335 1.349 . S
C320 C318 1.327 . S
C320 C339 1.429 . S
C320 H344 0.950 . S
C321 C338 1.574 . S
C321 C340 1.368 . S
C321 H345 0.949 . S
H322 C326 0.949 . S
C323 C324 1.349 . S
C323 C325 1.327 . S
C323 H346 0.950 . S
C324 C323 1.349 . S
C324 C336 1.349 . S
C325 C323 1.327 . S
C325 C341 1.429 . S
C325 H347 0.950 . S
C326 H322 0.949 . S
C326 C334 1.574 . S
C326 C342 1.368 . S
H327 C335 0.950 . S
H328 C333 0.950 . S
H329 C334 0.949 . S
H330 C336 0.950 . S
H331 C337 0.950 . S
H332 C338 0.949 . S
C333 H328 0.950 . S
C333 C335 1.327 . S
C333 C339 1.429 . S
C334 C326 1.574 . S
C334 H329 0.949 . S
C334 C340 1.368 . S
C335 C319 1.349 . S
C335 H327 0.950 . S
C335 C333 1.327 . S
C336 C324 1.349 . S
C336 H330 0.950 . S
C336 C337 1.327 . S
C337 H331 0.950 . S
C337 C336 1.327 . S
C337 C341 1.429 . S
C338 C321 1.574 . S
C338 H332 0.949 . S
C338 C342 1.368 . S
C339 C320 1.429 . S
C339 C333 1.429 . S
C339 C340 1.523 . S
C340 C321 1.368 . S
C340 C334 1.368 . S
C340 C339 1.523 . S
C341 C325 1.429 . S
C341 C337 1.429 . S
C341 C342 1.523 . S
C342 C326 1.368 . S
C342 C338 1.368 . S
C342 C341 1.523 . S
H343 C318 0.950 . S
H344 C320 0.950 . S
H345 C321 0.949 . S
H346 C323 0.950 . S
H347 C325 0.950 . S
C348 C349 1.349 . S
C348 C350 1.327 . S
C348 H373 0.950 . S
C349 C348 1.349 . S
C349 C365 1.349 . S
C350 C348 1.327 . S
C350 C369 1.429 . S
C350 H374 0.950 . S
C351 C368 1.574 . S
C351 C370 1.368 . S
C351 H375 0.949 . S
H352 C356 0.949 . S
C353 C354 1.349 . S
C353 C355 1.327 . S
C353 H376 0.950 . S
C354 C353 1.349 . S
C354 C366 1.349 . S
C355 C353 1.327 . S
C355 C371 1.429 . S
C355 H377 0.950 . S
C356 H352 0.949 . S
C356 C364 1.574 . S
C356 C372 1.368 . S
H357 C365 0.950 . S
H358 C363 0.950 . S
H359 C364 0.949 . S
H360 C366 0.950 . S
H361 C367 0.950 . S
H362 C368 0.949 . S
C363 H358 0.950 . S
C363 C365 1.327 . S
C363 C369 1.429 . S
C364 C356 1.574 . S
C364 H359 0.949 . S
C364 C370 1.368 . S
C365 C349 1.349 . S
C365 H357 0.950 . S
C365 C363 1.327 . S
C366 C354 1.349 . S
C366 H360 0.950 . S
C366 C367 1.327 . S
C367 H361 0.950 . S
C367 C366 1.327 . S
C367 C371 1.429 . S
C368 C351 1.574 . S
C368 H362 0.949 . S
C368 C372 1.368 . S
C369 C350 1.429 . S
C369 C363 1.429 . S
C369 C370 1.523 . S
C370 C351 1.368 . S
C370 C364 1.368 . S
C370 C369 1.523 . S
C371 C355 1.429 . S
C371 C367 1.429 . S
C371 C372 1.523 . S
C372 C356 1.368 . S
C372 C368 1.368 . S
C372 C371 1.523 . S
H373 C348 0.950 . S
H374 C350 0.950 . S
H375 C351 0.949 . S
H376 C353 0.950 . S
H377 C355 0.950 . S
C378 C379 1.349 . S
C378 C380 1.327 . S
C378 H403 0.950 . S
C379 C378 1.349 . S
C379 C395 1.349 . S
C380 C378 1.327 . S
C380 C399 1.429 . S
C380 H404 0.950 . S
C381 C398 1.574 . S
C381 C400 1.368 . S
C381 H405 0.949 . S
H382 C386 0.949 . S
C383 C384 1.349 . S
C383 C385 1.327 . S
C383 H406 0.950 . S
C384 C383 1.349 . S
C384 C396 1.349 . S
C385 C383 1.327 . S
C385 C401 1.429 . S
C385 H407 0.950 . S
C386 H382 0.949 . S
C386 C394 1.574 . S
C386 C402 1.368 . S
H387 C395 0.950 . S
H388 C393 0.950 . S
H389 C394 0.949 . S
H390 C396 0.950 . S
H391 C397 0.950 . S
H392 C398 0.949 . S
C393 H388 0.950 . S
C393 C395 1.327 . S
C393 C399 1.429 . S
C394 C386 1.574 . S
C394 H389 0.949 . S
C394 C400 1.368 . S
C395 C379 1.349 . S
C395 H387 0.950 . S
C395 C393 1.327 . S
C396 C384 1.349 . S
C396 H390 0.950 . S
C396 C397 1.327 . S
C397 H391 0.950 . S
C397 C396 1.327 . S
C397 C401 1.429 . S
C398 C381 1.574 . S
C398 H392 0.949 . S
C398 C402 1.368 . S
C399 C380 1.429 . S
C399 C393 1.429 . S
C399 C400 1.523 . S
C400 C381 1.368 . S
C400 C394 1.368 . S
C400 C399 1.523 . S
C401 C385 1.429 . S
C401 C397 1.429 . S
C401 C402 1.523 . S
C402 C386 1.368 . S
C402 C398 1.368 . S
C402 C401 1.523 . S
H403 C378 0.950 . S
H404 C380 0.950 . S
H405 C381 0.949 . S
H406 C383 0.950 . S
H407 C385 0.950 . S
C408 C409 1.349 . S
C408 C410 1.327 . S
C408 H433 0.950 . S
C409 C408 1.349 . S
C409 C425 1.349 . S
C410 C408 1.327 . S
C410 C429 1.429 . S
C410 H434 0.950 . S
C411 C428 1.574 . S
C411 C430 1.368 . S
C411 H435 0.949 . S
H412 C416 0.949 . S
C413 C414 1.349 . S
C413 C415 1.327 . S
C413 H436 0.950 . S
C414 C413 1.349 . S
C414 C426 1.349 . S
C415 C413 1.327 . S
C415 C431 1.429 . S
C415 H437 0.950 . S
C416 H412 0.949 . S
C416 C424 1.574 . S
C416 C432 1.368 . S
H417 C425 0.950 . S
H418 C423 0.950 . S
H419 C424 0.949 . S
H420 C426 0.950 . S
H421 C427 0.950 . S
H422 C428 0.949 . S
C423 H418 0.950 . S
C423 C425 1.327 . S
C423 C429 1.429 . S
C424 C416 1.574 . S
C424 H419 0.949 . S
C424 C430 1.368 . S
C425 C409 1.349 . S
C425 H417 0.950 . S
C425 C423 1.327 . S
C426 C414 1.349 . S
C426 H420 0.950 . S
C426 C427 1.327 . S
C427 H421 0.950 . S
C427 C426 1.327 . S
C427 C431 1.429 . S
C428 C411 1.574 . S
C428 H422 0.949 . S
C428 C432 1.368 . S
C429 C410 1.429 . S
C429 C423 1.429 . S
C429 C430 1.523 . S
C430 C411 1.368 . S
C430 C424 1.368 . S
C430 C429 1.523 . S
C431 C415 1.429 . S
C431 C427 1.429 . S
C431 C432 1.523 . S
C432 C416 1.368 . S
C432 C428 1.368 . S
C432 C431 1.523 . S
H433 C408 0.950 . S
H434 C410 0.950 . S
H435 C411 0.949 . S
H436 C413 0.950 . S
H437 C415 0.950 . S
C438 C439 1.349 . S
C438 C440 1.327 . S
C438 H463 0.950 . S
C439 C438 1.349 . S
C439 C455 1.349 . S
C440 C438 1.327 . S
C440 C459 1.429 . S
C440 H464 0.950 . S
C441 C458 1.574 . S
C441 C460 1.368 . S
C441 H465 0.949 . S
H442 C446 0.949 . S
C443 C444 1.349 . S
C443 C445 1.327 . S
C443 H466 0.950 . S
C444 C443 1.349 . S
C444 C456 1.349 . S
C445 C443 1.327 . S
C445 C461 1.429 . S
C445 H467 0.950 . S
C446 H442 0.949 . S
C446 C454 1.574 . S
C446 C462 1.368 . S
H447 C455 0.950 . S
H448 C453 0.950 . S
H449 C454 0.949 . S
H450 C456 0.950 . S
H451 C457 0.950 . S
H452 C458 0.949 . S
C453 H448 0.950 . S
C453 C455 1.327 . S
C453 C459 1.429 . S
C454 C446 1.574 . S
C454 H449 0.949 . S
C454 C460 1.368 . S
C455 C439 1.349 . S
C455 H447 0.950 . S
C455 C453 1.327 . S
C456 C444 1.349 . S
C456 H450 0.950 . S
C456 C457 1.327 . S
C457 H451 0.950 . S
C457 C456 1.327 . S
C457 C461 1.429 . S
C458 C441 1.574 . S
C458 H452 0.949 . S
C458 C462 1.368 . S
C459 C440 1.429 . S
C459 C453 1.429 . S
C459 C460 1.523 . S
C460 C441 1.368 . S
C460 C454 1.368 . S
C460 C459 1.523 . S
C461 C445 1.429 . S
C461 C457 1.429 . S
C461 C462 1.523 . S
C462 C446 1.368 . S
C462 C458 1.368 . S
C462 C461 1.523 . S
H463 C438 0.950 . S
H464 C440 0.950 . S
H465 C441 0.949 . S
H466 C443 0.950 . S
H467 C445 0.950 . S
C468 C469 1.349 . S
C468 C470 1.327 . S
C468 H493 0.950 . S
C469 C468 1.349 . S
C469 C485 1.349 . S
C470 C468 1.327 . S
C470 C489 1.429 . S
C470 H494 0.950 . S
C471 C488 1.574 . S
C471 C490 1.368 . S
C471 H495 0.949 . S
H472 C476 0.949 . S
C473 C474 1.349 . S
C473 C475 1.327 . S
C473 H496 0.950 . S
C474 C473 1.349 . S
C474 C486 1.349 . S
C475 C473 1.327 . S
C475 C491 1.429 . S
C475 H497 0.950 . S
C476 H472 0.949 . S
C476 C484 1.574 . S
C476 C492 1.368 . S
H477 C485 0.950 . S
H478 C483 0.950 . S
H479 C484 0.949 . S
H480 C486 0.950 . S
H481 C487 0.950 . S
H482 C488 0.949 . S
C483 H478 0.950 . S
C483 C485 1.327 . S
C483 C489 1.429 . S
C484 C476 1.574 . S
C484 H479 0.949 . S
C484 C490 1.368 . S
C485 C469 1.349 . S
C485 H477 0.950 . S
C485 C483 1.327 . S
C486 C474 1.349 . S
C486 H480 0.950 . S
C486 C487 1.327 . S
C487 H481 0.950 . S
C487 C486 1.327 . S
C487 C491 1.429 . S
C488 C471 1.574 . S
C488 H482 0.949 . S
C488 C492 1.368 . S
C489 C470 1.429 . S
C489 C483 1.429 . S
C489 C490 1.523 . S
C490 C471 1.368 . S
C490 C484 1.368 . S
C490 C489 1.523 . S
C491 C475 1.429 . S
C491 C487 1.429 . S
C491 C492 1.523 . S
C492 C476 1.368 . S
C492 C488 1.368 . S
C492 C491 1.523 . S
H493 C468 0.950 . S
H494 C470 0.950 . S
H495 C471 0.949 . S
H496 C473 0.950 . S
H497 C475 0.950 . S
C498 C499 1.349 . S
C498 C500 1.327 . S
C498 H523 0.950 . S
C499 C498 1.349 . S
C499 C515 1.349 . S
C500 C498 1.327 . S
C500 C519 1.429 . S
C500 H524 0.950 . S
C501 C518 1.574 . S
C501 C520 1.368 . S
C501 H525 0.949 . S
H502 C506 0.949 . S
C503 C504 1.349 . S
C503 C505 1.327 . S
C503 H526 0.950 . S
C504 C503 1.349 . S
C504 C516 1.349 . S
C505 C503 1.327 . S
C505 C521 1.429 . S
C505 H527 0.950 . S
C506 H502 0.949 . S
C506 C514 1.574 . S
C506 C522 1.368 . S
H507 C515 0.950 . S
H508 C513 0.950 . S
H509 C514 0.949 . S
H510 C516 0.950 . S
H511 C517 0.950 . S
H512 C518 0.949 . S
C513 H508 0.950 . S
C513 C515 1.327 . S
C513 C519 1.429 . S
C514 C506 1.574 . S
C514 H509 0.949 . S
C514 C520 1.368 . S
C515 C499 1.349 . S
C515 H507 0.950 . S
C515 C513 1.327 . S
C516 C504 1.349 . S
C516 H510 0.950 . S
C516 C517 1.327 . S
C517 H511 0.950 . S
C517 C516 1.327 . S
C517 C521 1.429 . S
C518 C501 1.574 . S
C518 H512 0.949 . S
C518 C522 1.368 . S
C519 C500 1.429 . S
C519 C513 1.429 . S
C519 C520 1.523 . S
C520 C501 1.368 . S
C520 C514 1.368 . S
C520 C519 1.523 . S
C521 C505 1.429 . S
C521 C517 1.429 . S
C521 C522 1.523 . S
C522 C506 1.368 . S
C522 C518 1.368 . S
C522 C521 1.523 . S
H523 C498 0.950 . S
H524 C500 0.950 . S
H525 C501 0.949 . S
H526 C503 0.950 . S
H527 C505 0.950 . S
C528 C529 1.349 . S
C528 C530 1.327 . S
C528 H553 0.950 . S
C529 C528 1.349 . S
C529 C545 1.349 . S
C530 C528 1.327 . S
C530 C549 1.429 . S
C530 H554 0.950 . S
C531 C548 1.574 . S
C531 C550 1.368 1_455 S
C531 H555 0.949 . S
H532 C536 0.949 . S
C533 C534 1.349 . S
C533 C535 1.327 . S
C533 H556 0.950 . S
C534 C533 1.349 . S
C534 C546 1.349 . S
C535 C533 1.327 . S
C535 C551 1.429 . S
C535 H557 0.950 . S
C536 H532 0.949 . S
C536 C544 1.574 . S
C536 C552 1.368 1_655 S
H537 C545 0.950 . S
H538 C543 0.950 1_455 S
H539 C544 0.949 . S
H540 C546 0.950 . S
H541 C547 0.950 1_655 S
H542 C548 0.949 . S
C543 H538 0.950 1_655 S
C543 C545 1.327 . S
C543 C549 1.429 . S
C544 C536 1.574 . S
C544 H539 0.949 . S
C544 C550 1.368 . S
C545 C529 1.349 . S
C545 H537 0.950 . S
C545 C543 1.327 . S
C546 C534 1.349 . S
C546 H540 0.950 . S
C546 C547 1.327 . S
C547 H541 0.950 1_455 S
C547 C546 1.327 . S
C547 C551 1.429 . S
C548 C531 1.574 . S
C548 H542 0.949 . S
C548 C552 1.368 . S
C549 C530 1.429 . S
C549 C543 1.429 . S
C549 C550 1.523 . S
C550 C531 1.368 1_655 S
C550 C544 1.368 . S
C550 C549 1.523 . S
C551 C535 1.429 . S
C551 C547 1.429 . S
C551 C552 1.523 . S
C552 C536 1.368 1_455 S
C552 C548 1.368 . S
C552 C551 1.523 . S
H553 C528 0.950 . S
H554 C530 0.950 . S
H555 C531 0.949 . S
H556 C533 0.950 . S
H557 C535 0.950 . S
C558 C559 1.349 . S
C558 C560 1.327 . S
C558 H583 0.950 . S
C559 C558 1.349 . S
C559 C575 1.349 . S
C560 C558 1.327 . S
C560 C579 1.429 . S
C560 H584 0.950 . S
C561 C578 1.574 . S
C561 C580 1.368 1_565 S
C561 H585 0.949 . S
H562 C566 0.949 . S
C563 C564 1.349 . S
C563 C565 1.327 . S
C563 H586 0.950 . S
C564 C563 1.349 . S
C564 C576 1.349 . S
C565 C563 1.327 . S
C565 C581 1.429 . S
C565 H587 0.950 . S
C566 H562 0.949 . S
C566 C574 1.574 . S
C566 C582 1.368 1_545 S
H567 C575 0.950 1_565 S
H568 C573 0.950 . S
H569 C574 0.949 . S
H570 C576 0.950 1_545 S
H571 C577 0.950 . S
H572 C578 0.949 . S
C573 H568 0.950 . S
C573 C575 1.327 1_565 S
C573 C579 1.429 1_565 S
C574 C566 1.574 . S
C574 H569 0.949 . S
C574 C580 1.368 . S
C575 C559 1.349 . S
C575 H567 0.950 1_545 S
C575 C573 1.327 1_545 S
C576 C564 1.349 . S
C576 H570 0.950 1_565 S
C576 C577 1.327 1_565 S
C577 H571 0.950 . S
C577 C576 1.327 1_545 S
C577 C581 1.429 1_545 S
C578 C561 1.574 . S
C578 H572 0.949 . S
C578 C582 1.368 . S
C579 C560 1.429 . S
C579 C573 1.429 1_545 S
C579 C580 1.523 . S
C580 C561 1.368 1_545 S
C580 C574 1.368 . S
C580 C579 1.523 . S
C581 C565 1.429 . S
C581 C577 1.429 1_565 S
C581 C582 1.523 . S
C582 C566 1.368 1_565 S
C582 C578 1.368 . S
C582 C581 1.523 . S
H583 C558 0.950 . S
H584 C560 0.950 . S
H585 C561 0.949 . S
H586 C563 0.950 . S
H587 C565 0.950 . S
C588 C589 1.349 . S
C588 C590 1.327 . S
C588 H613 0.950 . S
C589 C588 1.349 . S
C589 C605 1.349 . S
C590 C588 1.327 . S
C590 C609 1.429 . S
C590 H614 0.950 . S
C591 C608 1.574 . S
C591 C610 1.368 1_655 S
C591 H615 0.949 . S
H592 C596 0.949 . S
C593 C594 1.349 . S
C593 C595 1.327 . S
C593 H616 0.950 . S
C594 C593 1.349 . S
C594 C606 1.349 . S
C595 C593 1.327 . S
C595 C611 1.429 . S
C595 H617 0.950 . S
C596 H592 0.949 . S
C596 C604 1.574 . S
C596 C612 1.368 1_455 S
H597 C605 0.950 . S
H598 C603 0.950 1_655 S
H599 C604 0.949 . S
H600 C606 0.950 . S
H601 C607 0.950 1_455 S
H602 C608 0.949 . S
C603 H598 0.950 1_455 S
C603 C605 1.327 . S
C603 C609 1.429 . S
C604 C596 1.574 . S
C604 H599 0.949 . S
C604 C610 1.368 . S
C605 C589 1.349 . S
C605 H597 0.950 . S
C605 C603 1.327 . S
C606 C594 1.349 . S
C606 H600 0.950 . S
C606 C607 1.327 . S
C607 H601 0.950 1_655 S
C607 C606 1.327 . S
C607 C611 1.429 . S
C608 C591 1.574 . S
C608 H602 0.949 . S
C608 C612 1.368 . S
C609 C590 1.429 . S
C609 C603 1.429 . S
C609 C610 1.523 . S
C610 C591 1.368 1_455 S
C610 C604 1.368 . S
C610 C609 1.523 . S
C611 C595 1.429 . S
C611 C607 1.429 . S
C611 C612 1.523 . S
C612 C596 1.368 1_655 S
C612 C608 1.368 . S
C612 C611 1.523 . S
H613 C588 0.950 . S
H614 C590 0.950 . S
H615 C591 0.949 . S
H616 C593 0.950 . S
H617 C595 0.950 . S
C618 C619 1.349 . S
C618 C620 1.327 . S
C618 H643 0.950 . S
C619 C618 1.349 . S
C619 C635 1.349 . S
C620 C618 1.327 . S
C620 C639 1.429 . S
C620 H644 0.950 . S
C621 C638 1.574 . S
C621 C640 1.368 1_565 S
C621 H645 0.949 . S
H622 C626 0.949 . S
C623 C624 1.349 . S
C623 C625 1.327 . S
C623 H646 0.950 . S
C624 C623 1.349 . S
C624 C636 1.349 . S
C625 C623 1.327 . S
C625 C641 1.429 . S
C625 H647 0.950 . S
C626 H622 0.949 . S
C626 C634 1.574 . S
C626 C642 1.368 1_545 S
H627 C635 0.950 1_565 S
H628 C633 0.950 . S
H629 C634 0.949 . S
H630 C636 0.950 1_545 S
H631 C637 0.950 . S
H632 C638 0.949 . S
C633 H628 0.950 . S
C633 C635 1.327 1_565 S
C633 C639 1.429 1_565 S
C634 C626 1.574 . S
C634 H629 0.949 . S
C634 C640 1.368 . S
C635 C619 1.349 . S
C635 H627 0.950 1_545 S
C635 C633 1.327 1_545 S
C636 C624 1.349 . S
C636 H630 0.950 1_565 S
C636 C637 1.327 1_565 S
C637 H631 0.950 . S
C637 C636 1.327 1_545 S
C637 C641 1.429 1_545 S
C638 C621 1.574 . S
C638 H632 0.949 . S
C638 C642 1.368 . S
C639 C620 1.429 . S
C639 C633 1.429 1_545 S
C639 C640 1.523 . S
C640 C621 1.368 1_545 S
C640 C634 1.368 . S
C640 C639 1.523 . S
C641 C625 1.429 . S
C641 C637 1.429 1_565 S
C641 C642 1.523 . S
C642 C626 1.368 1_565 S
C642 C638 1.368 . S
C642 C641 1.523 . S
H643 C618 0.950 . S
H644 C620 0.950 . S
H645 C621 0.949 . S
H646 C623 0.950 . S
H647 C625 0.950 . S
C648 C649 1.349 . S
C648 C650 1.327 . S
C648 H673 0.950 . S
C649 C648 1.349 . S
C649 C665 1.349 . S
C650 C648 1.327 . S
C650 C669 1.429 . S
C650 H674 0.950 1_545 S
C651 C668 1.574 . S
C651 C670 1.368 . S
C651 H675 0.949 . S
H652 C656 0.949 . S
C653 C654 1.349 . S
C653 C655 1.327 . S
C653 H676 0.950 . S
C654 C653 1.349 . S
C654 C666 1.349 . S
C655 C653 1.327 . S
C655 C671 1.429 . S
C655 H677 0.950 1_565 S
C656 H652 0.949 . S
C656 C664 1.574 . S
C656 C672 1.368 . S
H657 C665 0.950 . S
H658 C663 0.950 . S
H659 C664 0.949 . S
H660 C666 0.950 . S
H661 C667 0.950 . S
H662 C668 0.949 . S
C663 H658 0.950 . S
C663 C665 1.327 . S
C663 C669 1.429 . S
C664 C656 1.574 . S
C664 H659 0.949 . S
C664 C670 1.368 1_565 S
C665 C649 1.349 . S
C665 H657 0.950 . S
C665 C663 1.327 . S
C666 C654 1.349 . S
C666 H660 0.950 . S
C666 C667 1.327 . S
C667 H661 0.950 . S
C667 C666 1.327 . S
C667 C671 1.429 . S
C668 C651 1.574 . S
C668 H662 0.949 . S
C668 C672 1.368 1_545 S
C669 C650 1.429 . S
C669 C663 1.429 . S
C669 C670 1.523 . S
C670 C651 1.368 . S
C670 C664 1.368 1_545 S
C670 C669 1.523 . S
C671 C655 1.429 . S
C671 C667 1.429 . S
C671 C672 1.523 . S
C672 C656 1.368 . S
C672 C668 1.368 1_565 S
C672 C671 1.523 . S
H673 C648 0.950 . S
H674 C650 0.950 1_565 S
H675 C651 0.949 . S
H676 C653 0.950 . S
H677 C655 0.950 1_545 S
C678 C679 1.349 . S
C678 C680 1.327 . S
C678 H703 0.950 . S
C679 C678 1.349 . S
C679 C695 1.349 . S
C680 C678 1.327 . S
C680 C699 1.429 . S
C680 H704 0.950 1_455 S
C681 C698 1.574 . S
C681 C700 1.368 . S
C681 H705 0.949 . S
H682 C686 0.949 . S
C683 C684 1.349 . S
C683 C685 1.327 . S
C683 H706 0.950 . S
C684 C683 1.349 . S
C684 C696 1.349 . S
C685 C683 1.327 . S
C685 C701 1.429 . S
C685 H707 0.950 1_655 S
C686 H682 0.949 . S
C686 C694 1.574 . S
C686 C702 1.368 . S
H687 C695 0.950 . S
H688 C693 0.950 . S
H689 C694 0.949 . S
H690 C696 0.950 . S
H691 C697 0.950 . S
H692 C698 0.949 . S
C693 H688 0.950 . S
C693 C695 1.327 . S
C693 C699 1.429 . S
C694 C686 1.574 . S
C694 H689 0.949 . S
C694 C700 1.368 1_655 S
C695 C679 1.349 . S
C695 H687 0.950 . S
C695 C693 1.327 . S
C696 C684 1.349 . S
C696 H690 0.950 . S
C696 C697 1.327 . S
C697 H691 0.950 . S
C697 C696 1.327 . S
C697 C701 1.429 . S
C698 C681 1.574 . S
C698 H692 0.949 . S
C698 C702 1.368 1_455 S
C699 C680 1.429 . S
C699 C693 1.429 . S
C699 C700 1.523 . S
C700 C681 1.368 . S
C700 C694 1.368 1_455 S
C700 C699 1.523 . S
C701 C685 1.429 . S
C701 C697 1.429 . S
C701 C702 1.523 . S
C702 C686 1.368 . S
C702 C698 1.368 1_655 S
C702 C701 1.523 . S
H703 C678 0.950 . S
H704 C680 0.950 1_655 S
H705 C681 0.949 . S
H706 C683 0.950 . S
H707 C685 0.950 1_455 S
C708 C709 1.349 . S
C708 C710 1.327 . S
C708 H733 0.950 . S
C709 C708 1.349 . S
C709 C725 1.349 . S
C710 C708 1.327 . S
C710 C729 1.429 . S
C710 H734 0.950 1_545 S
C711 C728 1.574 . S
C711 C730 1.368 . S
C711 H735 0.949 . S
H712 C716 0.949 . S
C713 C714 1.349 . S
C713 C715 1.327 . S
C713 H736 0.950 . S
C714 C713 1.349 . S
C714 C726 1.349 . S
C715 C713 1.327 . S
C715 C731 1.429 . S
C715 H737 0.950 1_565 S
C716 H712 0.949 . S
C716 C724 1.574 . S
C716 C732 1.368 . S
H717 C725 0.950 . S
H718 C723 0.950 . S
H719 C724 0.949 . S
H720 C726 0.950 . S
H721 C727 0.950 . S
H722 C728 0.949 . S
C723 H718 0.950 . S
C723 C725 1.327 . S
C723 C729 1.429 . S
C724 C716 1.574 . S
C724 H719 0.949 . S
C724 C730 1.368 1_565 S
C725 C709 1.349 . S
C725 H717 0.950 . S
C725 C723 1.327 . S
C726 C714 1.349 . S
C726 H720 0.950 . S
C726 C727 1.327 . S
C727 H721 0.950 . S
C727 C726 1.327 . S
C727 C731 1.429 . S
C728 C711 1.574 . S
C728 H722 0.949 . S
C728 C732 1.368 1_545 S
C729 C710 1.429 . S
C729 C723 1.429 . S
C729 C730 1.523 . S
C730 C711 1.368 . S
C730 C724 1.368 1_545 S
C730 C729 1.523 . S
C731 C715 1.429 . S
C731 C727 1.429 . S
C731 C732 1.523 . S
C732 C716 1.368 . S
C732 C728 1.368 1_565 S
C732 C731 1.523 . S
H733 C708 0.950 . S
H734 C710 0.950 1_565 S
H735 C711 0.949 . S
H736 C713 0.950 . S
H737 C715 0.950 1_545 S
C738 C739 1.349 . S
C738 C740 1.327 . S
C738 H763 0.950 . S
C739 C738 1.349 . S
C739 C755 1.349 . S
C740 C738 1.327 . S
C740 C759 1.429 . S
C740 H764 0.950 1_655 S
C741 C758 1.574 . S
C741 C760 1.368 . S
C741 H765 0.949 . S
H742 C746 0.949 . S
C743 C744 1.349 . S
C743 C745 1.327 . S
C743 H766 0.950 . S
C744 C743 1.349 . S
C744 C756 1.349 . S
C745 C743 1.327 . S
C745 C761 1.429 . S
C745 H767 0.950 1_455 S
C746 H742 0.949 . S
C746 C754 1.574 . S
C746 C762 1.368 . S
H747 C755 0.950 . S
H748 C753 0.950 . S
H749 C754 0.949 . S
H750 C756 0.950 . S
H751 C757 0.950 . S
H752 C758 0.949 . S
C753 H748 0.950 . S
C753 C755 1.327 . S
C753 C759 1.429 . S
C754 C746 1.574 . S
C754 H749 0.949 . S
C754 C760 1.368 1_455 S
C755 C739 1.349 . S
C755 H747 0.950 . S
C755 C753 1.327 . S
C756 C744 1.349 . S
C756 H750 0.950 . S
C756 C757 1.327 . S
C757 H751 0.950 . S
C757 C756 1.327 . S
C757 C761 1.429 . S
C758 C741 1.574 . S
C758 H752 0.949 . S
C758 C762 1.368 1_655 S
C759 C740 1.429 . S
C759 C753 1.429 . S
C759 C760 1.523 . S
C760 C741 1.368 . S
C760 C754 1.368 1_655 S
C760 C759 1.523 . S
C761 C745 1.429 . S
C761 C757 1.429 . S
C761 C762 1.523 . S
C762 C746 1.368 . S
C762 C758 1.368 1_455 S
C762 C761 1.523 . S
H763 C738 0.950 . S
H764 C740 0.950 1_455 S
H765 C741 0.949 . S
H766 C743 0.950 . S
H767 C745 0.950 1_655 S
C768 C769 1.349 . S
C768 C770 1.327 . S
C768 H793 0.950 . S
C769 C768 1.349 . S
C769 C785 1.349 . S
C770 C768 1.327 . S
C770 C789 1.429 . S
C770 H794 0.950 . S
C771 C788 1.574 . S
C771 C790 1.368 1_556 S
C771 H795 0.949 . S
H772 C776 0.949 . S
C773 C774 1.349 . S
C773 C775 1.327 . S
C773 H796 0.950 . S
C774 C773 1.349 . S
C774 C786 1.349 . S
C775 C773 1.327 . S
C775 C791 1.429 . S
C775 H797 0.950 . S
C776 H772 0.949 . S
C776 C784 1.574 . S
C776 C792 1.368 1_554 S
H777 C785 0.950 1_556 S
H778 C783 0.950 . S
H779 C784 0.949 . S
H780 C786 0.950 1_554 S
H781 C787 0.950 . S
H782 C788 0.949 . S
C783 H778 0.950 . S
C783 C785 1.327 1_556 S
C783 C789 1.429 1_556 S
C784 C776 1.574 . S
C784 H779 0.949 . S
C784 C790 1.368 . S
C785 C769 1.349 . S
C785 H777 0.950 1_554 S
C785 C783 1.327 1_554 S
C786 C774 1.349 . S
C786 H780 0.950 1_556 S
C786 C787 1.327 1_556 S
C787 H781 0.950 . S
C787 C786 1.327 1_554 S
C787 C791 1.429 1_554 S
C788 C771 1.574 . S
C788 H782 0.949 . S
C788 C792 1.368 . S
C789 C770 1.429 . S
C789 C783 1.429 1_554 S
C789 C790 1.523 . S
C790 C771 1.368 1_554 S
C790 C784 1.368 . S
C790 C789 1.523 . S
C791 C775 1.429 . S
C791 C787 1.429 1_556 S
C791 C792 1.523 . S
C792 C776 1.368 1_556 S
C792 C788 1.368 . S
C792 C791 1.523 . S
H793 C768 0.950 . S
H794 C770 0.950 . S
H795 C771 0.949 . S
H796 C773 0.950 . S
H797 C775 0.950 . S
C798 C799 1.349 . S
C798 C800 1.327 . S
C798 H823 0.950 . S
C799 C798 1.349 . S
C799 C815 1.349 . S
C800 C798 1.327 . S
C800 C819 1.429 . S
C800 H824 0.950 . S
C801 C818 1.574 . S
C801 C820 1.368 1_554 S
C801 H825 0.949 . S
H802 C806 0.949 . S
C803 C804 1.349 . S
C803 C805 1.327 . S
C803 H826 0.950 . S
C804 C803 1.349 . S
C804 C816 1.349 . S
C805 C803 1.327 . S
C805 C821 1.429 . S
C805 H827 0.950 . S
C806 H802 0.949 . S
C806 C814 1.574 . S
C806 C822 1.368 1_556 S
H807 C815 0.950 . S
H808 C813 0.950 1_554 S
H809 C814 0.949 . S
H810 C816 0.950 . S
H811 C817 0.950 1_556 S
H812 C818 0.949 . S
C813 H808 0.950 1_556 S
C813 C815 1.327 . S
C813 C819 1.429 . S
C814 C806 1.574 . S
C814 H809 0.949 . S
C814 C820 1.368 . S
C815 C799 1.349 . S
C815 H807 0.950 . S
C815 C813 1.327 . S
C816 C804 1.349 . S
C816 H810 0.950 . S
C816 C817 1.327 . S
C817 H811 0.950 1_554 S
C817 C816 1.327 . S
C817 C821 1.429 . S
C818 C801 1.574 . S
C818 H812 0.949 . S
C818 C822 1.368 . S
C819 C800 1.429 . S
C819 C813 1.429 . S
C819 C820 1.523 . S
C820 C801 1.368 1_556 S
C820 C814 1.368 . S
C820 C819 1.523 . S
C821 C805 1.429 . S
C821 C817 1.429 . S
C821 C822 1.523 . S
C822 C806 1.368 1_554 S
C822 C818 1.368 . S
C822 C821 1.523 . S
H823 C798 0.950 . S
H824 C800 0.950 . S
H825 C801 0.949 . S
H826 C803 0.950 . S
H827 C805 0.950 . S
C828 C829 1.349 . S
C828 C830 1.327 . S
C828 H853 0.950 . S
C829 C828 1.349 . S
C829 C845 1.309 1_556 S
C830 C828 1.327 . S
C830 C849 1.429 . S
C830 H854 0.950 . S
C831 C848 1.574 . S
C831 C850 1.368 1_554 S
C831 H855 0.949 . S
H832 C836 0.949 . S
C833 C834 1.349 . S
C833 C835 1.327 . S
C833 H856 0.950 . S
C834 C833 1.349 . S
C834 C846 1.309 1_554 S
C835 C833 1.327 . S
C835 C851 1.429 . S
C835 H857 0.950 . S
C836 H832 0.949 . S
C836 C844 1.574 . S
C836 C852 1.368 1_556 S
H837 C845 0.981 . S
H838 C843 0.950 . S
H839 C844 0.949 . S
H840 C846 0.981 . S
H841 C847 0.950 . S
H842 C848 0.949 . S
C843 H838 0.950 . S
C843 C845 1.338 . S
C843 C849 1.429 1_554 S
C844 C836 1.574 . S
C844 H839 0.949 . S
C844 C850 1.368 . S
C845 C829 1.309 1_554 S
C845 H837 0.981 . S
C845 C843 1.338 . S
C846 C834 1.309 1_556 S
C846 H840 0.981 . S
C846 C847 1.338 . S
C847 H841 0.950 . S
C847 C846 1.338 . S
C847 C851 1.429 1_556 S
C848 C831 1.574 . S
C848 H842 0.949 . S
C848 C852 1.368 . S
C849 C830 1.429 . S
C849 C843 1.429 1_556 S
C849 C850 1.523 . S
C850 C831 1.368 1_556 S
C850 C844 1.368 . S
C850 C849 1.523 . S
C851 C835 1.429 . S
C851 C847 1.429 1_554 S
C851 C852 1.523 . S
C852 C836 1.368 1_554 S
C852 C848 1.368 . S
C852 C851 1.523 . S
H853 C828 0.950 . S
H854 C830 0.950 . S
H855 C831 0.949 . S
H856 C833 0.950 . S
H857 C835 0.950 . S
C858 C859 1.349 . S
C858 C860 1.327 . S
C858 H883 0.950 . S
C859 C858 1.349 . S
C859 C875 1.349 . S
C860 C858 1.327 . S
C860 C879 1.429 . S
C860 H884 0.950 1_554 S
C861 C878 1.574 . S
C861 C880 1.368 . S
C861 H885 0.949 . S
H862 C866 0.949 . S
C863 C864 1.349 . S
C863 C865 1.327 . S
C863 H886 0.950 . S
C864 C863 1.349 . S
C864 C876 1.349 . S
C865 C863 1.327 . S
C865 C881 1.429 . S
C865 H887 0.950 1_556 S
C866 H862 0.949 . S
C866 C874 1.574 . S
C866 C882 1.368 . S
H867 C875 0.950 . S
H868 C873 0.950 . S
H869 C874 0.949 . S
H870 C876 0.950 . S
H871 C877 0.950 . S
H872 C878 0.949 . S
C873 H868 0.950 . S
C873 C875 1.327 . S
C873 C879 1.429 . S
C874 C866 1.574 . S
C874 H869 0.949 . S
C874 C880 1.368 1_556 S
C875 C859 1.349 . S
C875 H867 0.950 . S
C875 C873 1.327 . S
C876 C864 1.349 . S
C876 H870 0.950 . S
C876 C877 1.327 . S
C877 H871 0.950 . S
C877 C876 1.327 . S
C877 C881 1.429 . S
C878 C861 1.574 . S
C878 H872 0.949 . S
C878 C882 1.368 1_554 S
C879 C860 1.429 . S
C879 C873 1.429 . S
C879 C880 1.523 . S
C880 C861 1.368 . S
C880 C874 1.368 1_554 S
C880 C879 1.523 . S
C881 C865 1.429 . S
C881 C877 1.429 . S
C881 C882 1.523 . S
C882 C866 1.368 . S
C882 C878 1.368 1_556 S
C882 C881 1.523 . S
H883 C858 0.950 . S
H884 C860 0.950 1_556 S
H885 C861 0.949 . S
H886 C863 0.950 . S
H887 C865 0.950 1_554 S
C169 C12 1.398 . S
C174 C99 1.398 . S
C199 C27 1.398 . S
C204 C69 1.397 . S
C229 C71 1.398 . S
C234 C29 1.397 . S
C259 C97 1.397 . S
C264 C55 1.398 . S
C289 C113 1.398 . S
C294 C110 1.398 . S
C319 C126 1.398 . S
C324 C56 1.397 . S
C349 C140 1.397 . S
C354 C82 1.398 . S
C379 C167 1.397 . S
C384 C84 1.397 . S
C409 C14 1.398 . S
C414 C139 1.398 . S
C439 C153 1.397 . S
C444 C40 1.397 . S
C469 C42 1.398 . S
C474 C154 1.397 . S
C499 C124 1.398 . S
C504 C1 1.398 . S
C529 C85 1.765 . S
C534 C0 1.763 . S
C559 C111 1.764 . S
C564 C15 1.764 . S
C589 C57 1.765 . S
C594 C41 1.765 . S
C619 C43 1.763 . S
C624 C83 1.763 . S
C649 C98 1.763 . S
C654 C70 1.763 . S
C679 C68 1.765 . S
C684 C96 1.765 . S
C709 C54 1.763 . S
C714 C26 1.763 . S
C739 C28 1.765 . S
C744 C13 1.764 . S
C769 C112 1.763 . S
C774 C138 1.763 . S
C799 C127 1.764 . S
C804 C152 1.765 . S
C829 C155 1.765 . S
C834 C141 1.765 . S
C859 C125 1.764 . S
C864 C166 1.765 . S
