# Generated by pormake.
# Topology snp, (6)-cn, num edge types: 1
# Building blocks:
#     Node 0, Type 0, BuildingBlock: GEDQOX_clean_sbu_0, # of connection points: 6
#     Node 1, Type 0, BuildingBlock: GEDQOX_clean_sbu_0, # of connection points: 6
#     Node 2, Type 0, BuildingBlock: GEDQOX_clean_sbu_0, # of connection points: 6
#     Node 3, Type 0, BuildingBlock: GEDQOX_clean_sbu_0, # of connection points: 6
#     Edge 4, Type (0, 0), BuildingBlock: XUDNAN_clean_linker_2, # of connection points: 2
#     Edge 5, Type (0, 0), BuildingBlock: XUDNAN_clean_linker_2, # of connection points: 2
#     Edge 6, Type (0, 0), BuildingBlock: XUDNAN_clean_linker_2, # of connection points: 2
#     Edge 7, Type (0, 0), BuildingBlock: XUDNAN_clean_linker_2, # of connection points: 2
#     Edge 8, Type (0, 0), BuildingBlock: XUDNAN_clean_linker_2, # of connection points: 2
#     Edge 9, Type (0, 0), BuildingBlock: XUDNAN_clean_linker_2, # of connection points: 2
#     Edge 10, Type (0, 0), BuildingBlock: XUDNAN_clean_linker_2, # of connection points: 2
#     Edge 11, Type (0, 0), BuildingBlock: XUDNAN_clean_linker_2, # of connection points: 2
#     Edge 12, Type (0, 0), BuildingBlock: XUDNAN_clean_linker_2, # of connection points: 2
#     Edge 13, Type (0, 0), BuildingBlock: XUDNAN_clean_linker_2, # of connection points: 2
#     Edge 14, Type (0, 0), BuildingBlock: XUDNAN_clean_linker_2, # of connection points: 2
#     Edge 15, Type (0, 0), BuildingBlock: XUDNAN_clean_linker_2, # of connection points: 2
# Relax obj value: 0.199
# Max RMSD: 0.224
# Mean RMSD: 0.211
data_MOF--net-snp--node1-GEDQOX_clean_sbu_0--edge1-XUDNAN_clean_linker_2
_symmetry_space_group_name_H-M    P1
_symmetry_Int_Tables_number       1
_symmetry_cell_setting            triclinic
loop_
_symmetry_equiv_pos_as_xyz
'x, y, z'
_cell_length_a     26.218988
_cell_length_b     25.636707
_cell_length_c     35.73716
_cell_angle_alpha  85.065726
_cell_angle_beta   103.92678
_cell_angle_gamma 96.388913
loop_
_atom_site_label
_atom_site_type_symbol
_atom_site_fract_x
_atom_site_fract_y
_atom_site_fract_z
_atom_type_partial_charge
Nd0 Nd 0.24521 0.96947 0.08524 0.0
Nd1 Nd 0.25617 0.06082 0.14389 0.0
C2 C 0.25899 0.89274 0.04509 0.0
C3 C 0.24796 0.87823 1.00483 0.0
C4 C 0.27886 0.84296 0.99482 0.0
C5 C 0.26935 0.8285 0.95678 0.0
C6 C 0.22862 0.84905 0.92801 0.0
C7 C 0.19768 0.88456 0.93816 0.0
C8 C 0.20744 0.89924 0.97628 0.0
C9 C 0.15522 0.01294 0.08576 0.0
C10 C 0.24791 0.09301 0.05277 0.0
C11 C 0.24675 0.12177 0.1977 0.0
C12 C 0.23186 0.12004 0.23537 0.0
C13 C 0.20523 0.1608 0.24344 0.0
C14 C 0.19818 0.16471 0.28079 0.0
C15 C 0.21809 0.12813 0.31099 0.0
C16 C 0.24199 0.08557 0.30222 0.0
C17 C 0.24861 0.08143 0.26484 0.0
C18 C 0.3473 0.03085 0.13073 0.0
C19 C 0.23914 0.93645 0.17533 0.0
O20 O 0.29447 0.9327 0.05443 0.0
O21 O 0.21817 0.8924 0.0604 0.0
O22 O 0.1618 -0.00564 0.05468 0.0
O23 O 0.19261 0.0037 0.11384 0.0
O24 O 0.26236 0.0459 0.04936 0.0
O25 O 0.23683 0.10608 0.08484 0.0
O26 O 0.20924 0.11293 0.16659 0.0
O27 O 0.29043 0.10152 0.19751 0.0
O28 O 0.34204 0.07922 0.13646 0.0
O29 O 0.307 0.00169 0.13406 0.0
O30 O 0.23901 -0.01321 0.18092 0.0
O31 O 0.24512 0.91979 0.14261 0.0
H32 H 0.31032 0.82642 1.01651 0.0
H33 H 0.29344 0.8006 0.95 0.0
H34 H 0.1664 0.90148 0.91656 0.0
H35 H 0.18345 0.92694 0.98346 0.0
H36 H 0.1919 0.19103 0.22123 0.0
H37 H 0.17981 0.19807 0.28646 0.0
H38 H 0.25698 0.05618 0.3246 0.0
H39 H 0.26869 0.04915 0.2594 0.0
Nd40 Nd 0.07314 0.2369 0.70571 0.0
Nd41 Nd 0.98274 0.20063 0.74899 0.0
C42 C 0.14222 0.27876 0.66584 0.0
C43 C 0.15263 0.26566 0.62895 0.0
C44 C 0.20074 0.28356 0.61955 0.0
C45 C 0.21241 0.26796 0.58611 0.0
C46 C 0.17615 0.23408 0.56125 0.0
C47 C 0.1273 0.21736 0.57028 0.0
C48 C 0.11585 0.23273 0.60389 0.0
C49 C 0.06241 0.13284 0.7262 0.0
C50 C 0.96342 0.18056 0.65651 0.0
C51 C 0.90846 0.15409 0.78229 0.0
C52 C 0.88863 0.15814 0.81719 0.0
C53 C 0.88788 0.11436 0.84348 0.0
C54 C 0.86841 0.11674 0.87633 0.0
C55 C 0.84865 0.16288 0.88345 0.0
C56 C 0.84978 0.20688 0.85718 0.0
C57 C 0.86964 0.20459 0.82441 0.0
C58 C -0.00553 0.30563 0.72897 0.0
C59 C 0.09729 0.24291 0.8004 0.0
O60 O 0.09717 0.29776 0.66363 0.0
O61 O 0.15349 0.24363 0.69466 0.0
O62 O 0.0763 0.15137 0.69489 0.0
O63 O 0.05767 0.16837 0.7467 0.0
O64 O 0.00556 0.2131 0.65466 0.0
O65 O 0.95044 0.16572 0.68961 0.0
O66 O 0.95505 0.13695 0.78761 0.0
O67 O 0.90033 0.19221 0.75533 0.0
O68 O 0.97849 0.28717 0.75959 0.0
O69 O -0.00139 0.26923 0.70877 0.0
O70 O 0.05208 0.2145 0.80041 0.0
O71 O 0.11135 0.26194 0.76815 0.0
H72 H 0.22973 0.3089 0.63844 0.0
H73 H 0.25011 0.2822 0.57984 0.0
H74 H 0.09866 0.19092 0.55211 0.0
H75 H 0.0787 0.21797 0.61078 0.0
H76 H 0.90237 0.07815 0.8386 0.0
H77 H 0.86926 0.08241 0.8963 0.0
H78 H 0.83451 0.24285 0.86157 0.0
H79 H 0.86974 0.23908 0.80467 0.0
Nd80 Nd 0.81508 0.95812 0.17181 0.0
Nd81 Nd 0.77793 0.04128 0.21887 0.0
C82 C 0.86128 0.91403 0.12559 0.0
C83 C 0.86288 0.91252 0.08426 0.0
C84 C 0.89425 0.95068 0.06685 0.0
C85 C 0.89867 0.94657 1.02887 0.0
C86 C 0.87206 0.90406 1.00728 0.0
C87 C 0.84037 0.86622 1.02465 0.0
C88 C 0.83599 0.87032 0.0626 0.0
C89 C 0.71092 0.94683 0.17466 0.0
C90 C 0.76974 0.06935 0.12789 0.0
C91 C 0.73704 0.08487 0.26775 0.0
C92 C 0.75308 0.08605 0.31013 0.0
C93 C 0.80178 0.06871 0.33024 0.0
C94 C 0.81844 0.0717 0.37029 0.0
C95 C 0.7866 0.09192 0.39105 0.0
C96 C 0.73733 0.1083 0.37085 0.0
C97 C 0.72079 0.10547 0.33069 0.0
C98 C 0.87849 0.05935 0.21107 0.0
C99 C 0.82465 0.92824 0.26202 0.0
O100 O 0.88133 0.95689 0.14331 0.0
O101 O 0.8189 0.89231 0.1362 0.0
O102 O 0.73642 0.90685 0.17255 0.0
O103 O 0.73892 -0.01096 0.17173 0.0
O104 O 0.79809 0.0294 0.129 0.0
O105 O 0.75038 0.07945 0.15733 0.0
O106 O 0.71851 0.03886 0.25418 0.0
O107 O 0.77042 0.11061 0.24922 0.0
O108 O 0.85036 0.09695 0.21346 0.0
O109 O 0.85499 0.01481 0.21704 0.0
O110 O 0.79903 0.96986 0.26285 0.0
O111 O 0.84063 0.91789 0.23138 0.0
H112 H 0.91615 -0.01663 0.08274 0.0
H113 H 0.92392 0.9762 1.01675 0.0
H114 H 0.81873 0.83332 1.00888 0.0
H115 H 0.81197 0.83991 0.07517 0.0
H116 H 0.82722 0.05337 0.31485 0.0
H117 H 0.85619 0.05808 0.38503 0.0
H118 H 0.7121 0.12446 0.38597 0.0
H119 H 0.68312 0.11905 0.31566 0.0
Nd120 Nd 0.06973 0.74321 0.57086 0.0
Nd121 Nd 0.97358 0.73754 0.60452 0.0
C122 C 0.14533 0.76528 0.53281 0.0
C123 C 0.1526 0.76657 0.4932 0.0
C124 C 0.2017 0.75718 0.48737 0.0
C125 C 0.21044 0.76089 0.4501 0.0
C126 C 0.17018 0.77437 0.41809 0.0
C127 C 0.12041 0.78206 0.42397 0.0
C128 C 0.11162 0.77802 0.46121 0.0
C129 C 0.03013 0.64333 0.58788 0.0
C130 C 0.95171 0.75009 0.51334 0.0
C131 C 0.90398 0.72603 0.64823 0.0
C132 C 0.90095 0.74926 0.6845 0.0
C133 C 0.9298 0.73131 0.72101 0.0
C134 C 0.92767 0.75485 0.75463 0.0
C135 C 0.897 0.79717 0.75268 0.0
C136 C 0.86762 0.81448 0.7162 0.0
C137 C 0.86947 0.79082 0.68269 0.0
C138 C 0.01991 0.8381 0.59499 0.0
C139 C 0.0921 0.73814 0.66347 0.0
O140 O 0.11735 0.80067 0.54021 0.0
O141 O 0.13533 0.71887 0.54903 0.0
O142 O 0.07997 0.65799 0.59216 0.0
O143 O 0.00217 0.67995 0.57263 0.0
O144 O 0.00269 0.7648 0.51904 0.0
O145 O 0.93037 0.72793 0.54141 0.0
O146 O 0.93952 0.69304 0.65056 0.0
O147 O 0.89984 0.7581 0.61738 0.0
O148 O 0.96983 0.82434 0.58405 0.0
O149 O 0.0433 0.79766 0.60659 0.0
O150 O 0.04121 0.72254 0.65832 0.0
O151 O 0.11273 0.75486 0.63383 0.0
H152 H 0.23369 0.74806 0.51176 0.0
H153 H 0.24928 0.75528 0.44651 0.0
H154 H 0.08849 0.79196 0.39978 0.0
H155 H 0.07319 0.78478 0.46506 0.0
H156 H 0.95447 0.69937 0.72368 0.0
H157 H 0.95091 0.74053 0.78212 0.0
H158 H 0.84273 0.84625 0.71346 0.0
H159 H 0.84638 0.80543 0.65519 0.0
H160 H 0.96569 0.00935 0.22416 0.0
H161 H 0.87752 0.12371 0.14593 0.0
H162 H 0.93527 0.12105 0.10051 0.0
H163 H 0.09201 0.06714 0.20741 0.0
H164 H 0.11887 0.00482 0.21339 0.0
H165 H 0.07023 0.01561 0.23917 0.0
H166 H 0.00941 0.9344 0.20968 0.0
H167 H 0.05805 0.92204 0.18436 0.0
H168 H 0.99139 0.9305 0.15797 0.0
H169 H 0.00212 0.1 0.06227 0.0
H170 H 0.0791 0.07352 0.041 0.0
H171 H 0.11988 0.97601 0.14716 0.0
C172 C 0.95926 0.03441 0.19775 0.0
C173 C 0.9176 0.06621 0.18801 0.0
C174 C 0.90984 0.09903 0.15353 0.0
C175 C 0.94202 0.09747 0.12755 0.0
C176 C 0.98213 0.06398 0.1374 0.0
C177 C 0.99144 0.03424 0.17221 0.0
C178 C 0.03829 0.00368 0.17754 0.0
C179 C 0.08242 0.02395 0.21139 0.0
C180 C 0.02336 0.94415 0.18269 0.0
C181 C 0.05244 0.01831 0.13951 0.0
C182 C 0.02022 0.05332 0.11646 0.0
C183 C 0.02775 0.07273 0.08019 0.0
C184 C 0.07087 0.05722 0.06814 0.0
C185 C 0.10484 0.02303 0.09262 0.0
C186 C 0.09442 0.00245 0.12797 0.0
H187 H 0.9574 0.90796 0.60976 0.0
H188 H 0.11943 0.86828 0.63522 0.0
H189 H 0.14158 0.92429 0.69078 0.0
H190 H 0.98258 0.04016 0.62969 0.0
H191 H 0.92587 0.03871 0.65014 0.0
H192 H 0.92614 -0.00673 0.6149 0.0
H193 H 0.90526 0.91804 0.66454 0.0
H194 H 0.90968 0.96421 0.70077 0.0
H195 H 0.95071 0.91031 0.71087 0.0
H196 H 0.14773 -0.01072 0.7384 0.0
H197 H 0.14317 0.07631 0.76083 0.0
H198 H 0.97576 0.06705 0.71009 0.0
C199 C -0.00219 0.91171 0.62656 0.0
C200 C 0.03668 0.88367 0.61844 0.0
C201 C 0.08911 0.88972 0.64104 0.0
C202 C 0.10168 0.92023 0.67317 0.0
C203 C 0.06128 0.94397 0.6822 0.0
C204 C 0.01079 0.94112 0.65895 0.0
C205 C 0.97571 0.97431 0.67249 0.0
C206 C 0.95127 0.01397 0.63989 0.0
C207 C 0.93279 0.93964 0.6881 0.0
C208 C 0.01577 0.00053 0.70483 0.0
C209 C 0.06435 -0.0196 0.7113 0.0
C210 C 0.10981 0.00453 0.73453 0.0
C211 C 0.10685 0.05361 0.74766 0.0
C212 C 0.05898 0.07719 0.73702 0.0
C213 C 0.01216 0.04835 0.71922 0.0
H214 H 0.65794 0.03046 0.17604 0.0
H215 H 0.63567 0.86219 0.1628 0.0
H216 H 0.53856 0.86592 0.14837 0.0
H217 H 0.54936 0.03868 0.22043 0.0
H218 H 0.53396 0.10122 0.19557 0.0
H219 H 0.60079 0.08356 0.20688 0.0
H220 H 0.6027 0.09965 0.13457 0.0
H221 H 0.53555 0.11643 0.12287 0.0
H222 H 0.55344 0.06468 0.0988 0.0
H223 H 0.44485 0.88951 0.13377 0.0
H224 H 0.3609 0.9292 0.12367 0.0
H225 H 0.44636 0.083 0.14389 0.0
C226 C 0.63276 -0.00584 0.17054 0.0
C227 C 0.65389 0.94595 0.17047 0.0
C228 C 0.61987 0.89938 0.16312 0.0
C229 C 0.56492 0.90126 0.15474 0.0
C230 C 0.54543 0.94998 0.15392 0.0
C231 C 0.5784 -0.00454 0.16195 0.0
C232 C 0.54806 0.04307 0.1586 0.0
C233 C 0.55866 0.06808 0.1977 0.0
C234 C 0.5607 0.08331 0.12681 0.0
C235 C 0.49241 0.01744 0.14722 0.0
C236 C 0.49175 0.96375 0.1447 0.0
C237 C 0.44489 0.93146 0.13546 0.0
C238 C 0.39747 0.95449 0.12947 0.0
C239 C 0.39738 0.00927 0.13245 0.0
C240 C 0.44541 0.04119 0.1409 0.0
H241 H 0.06807 0.36614 0.70003 0.0
H242 H 0.91266 0.36559 0.72185 0.0
H243 H 0.90217 0.45226 0.6854 0.0
H244 H 0.10511 0.50597 0.70891 0.0
H245 H 0.14117 0.51048 0.67153 0.0
H246 H 0.13576 0.44994 0.70042 0.0
H247 H 0.09776 0.40111 0.63792 0.0
H248 H 0.10068 0.46143 0.60856 0.0
H249 H 0.03891 0.42122 0.60461 0.0
H250 H 0.90705 0.53582 0.6416 0.0
H251 H 0.93231 0.61536 0.60287 0.0
H252 H 0.08562 0.55984 0.61297 0.0
C253 C 0.03202 0.3845 0.69713 0.0
C254 C 0.99101 0.35979 0.71313 0.0
C255 C 0.94459 0.38479 0.70981 0.0
C256 C 0.93817 0.43351 0.68894 0.0
C257 C 0.97891 0.45632 0.67227 0.0
C258 C 0.02536 0.43303 0.67689 0.0
C259 C 0.06363 0.46559 0.65688 0.0
C260 C 0.1144 0.48411 0.68619 0.0
C261 C 0.0759 0.43552 0.62511 0.0
C262 C 0.03135 0.51068 0.63987 0.0
C263 C 0.98237 0.50463 0.64858 0.0
C264 C 0.94555 0.54128 0.63502 0.0
C265 C 0.96005 0.58607 0.61301 0.0
C266 C 0.01104 0.59369 0.6056 0.0
C267 C 0.04649 0.55505 0.61855 0.0
H268 H 0.11445 0.2221 0.48698 0.0
H269 H 0.27057 0.2005 0.55875 0.0
H270 H 0.29608 0.16807 0.50354 0.0
H271 H 0.1029 0.10626 0.43134 0.0
H272 H 0.06923 0.1382 0.38675 0.0
H273 H 0.06211 0.15807 0.43226 0.0
H274 H 0.09366 0.25414 0.41402 0.0
H275 H 0.10088 0.23458 0.3685 0.0
H276 H 0.15611 0.26809 0.4007 0.0
H277 H 0.30558 0.13859 0.44097 0.0
H278 H 0.30019 0.11851 0.37388 0.0
H279 H 0.13857 0.15978 0.34088 0.0
C280 C 0.15387 0.21016 0.49113 0.0
C281 C 0.1906 0.21423 0.52735 0.0
C282 C 0.24194 0.19861 0.53132 0.0
C283 C 0.25671 0.17969 0.50015 0.0
C284 C 0.21982 0.17648 0.46493 0.0
C285 C 0.1695 0.19144 0.4601 0.0
C286 C 0.13818 0.18549 0.41866 0.0
C287 C 0.09027 0.14458 0.41718 0.0
C288 C 0.12123 0.23876 0.39934 0.0
C289 C 0.1791 0.1657 0.40091 0.0
C290 C 0.22561 0.16013 0.42837 0.0
C291 C 0.26929 0.14258 0.41924 0.0
C292 C 0.26569 0.13091 0.38101 0.0
C293 C 0.21889 0.13714 0.35196 0.0
C294 C 0.17496 0.15468 0.3623 0.0
H295 H 0.78919 0.08458 0.91507 0.0
H296 H 0.86005 0.24473 0.93097 0.0
H297 H 0.82933 0.24446 0.99116 0.0
H298 H 0.67548 0.09211 0.95828 0.0
H299 H 0.68105 0.02674 0.98093 0.0
H300 H 0.70016 0.04303 0.93582 0.0
H301 H 0.79291 0.01253 0.96644 0.0
H302 H 0.77432 -0.00419 1.01142 0.0
H303 H 0.83176 0.0409 1.00993 0.0
H304 H 0.80239 0.22167 0.05473 0.0
H305 H 0.78821 0.17621 0.11611 0.0
H306 H 0.73558 0.03207 0.05777 0.0
C307 C 0.7978 0.11992 0.93088 0.0
C308 C 0.82694 0.16471 0.91812 0.0
C309 C 0.83704 0.21016 0.93974 0.0
C310 C 0.81972 0.21039 0.97401 0.0
C311 C 0.79194 0.16506 0.98613 0.0
C312 C 0.78112 0.12068 0.96508 0.0
C313 C 0.75645 0.07489 0.98621 0.0
C314 C 0.69991 0.05824 0.96397 0.0
C315 C 0.79091 0.02834 0.99397 0.0
C316 C 0.7566 0.09979 1.02306 0.0
C317 C 0.77628 0.1521 1.02243 0.0
C318 C 0.78562 0.18117 0.05519 0.0
C319 C 0.77694 0.15535 0.08983 0.0
C320 C 0.75979 0.10116 0.09117 0.0
C321 C 0.74729 0.07398 0.05702 0.0
H322 H 0.91464 0.84391 0.48658 0.0
H323 H 0.91972 0.68638 0.45355 0.0
H324 H 0.88066 0.71375 0.38533 0.0
H325 H 0.78906 0.8731 0.41465 0.0
H326 H 0.81361 0.94065 0.40665 0.0
H327 H 0.83479 0.90661 0.45318 0.0
H328 H 0.93214 0.92945 0.44924 0.0
H329 H 0.91117 0.96277 0.40254 0.0
H330 H 0.95342 0.9103 0.40846 0.0
H331 H 0.85395 0.76119 0.32059 0.0
H332 H 0.83342 0.82334 0.26353 0.0
H333 H 0.84186 0.95017 0.33836 0.0
C334 C 0.90546 0.81488 0.46504 0.0
C335 C 0.91858 0.76275 0.47501 0.0
C336 C 0.90838 0.72603 0.44628 0.0
C337 C 0.88656 0.74137 0.40758 0.0
C338 C 0.87505 0.79348 0.39838 0.0
C339 C 0.88328 0.82954 0.42636 0.0
C340 C 0.87087 0.88392 0.40848 0.0
C341 C 0.8243 0.90212 0.42151 0.0
C342 C 0.91983 0.92394 0.41773 0.0
C343 C 0.85582 0.87313 0.36599 0.0
C344 C 0.85856 0.82072 0.36086 0.0
C345 C 0.85061 0.80204 0.32425 0.0
C346 C 0.83935 0.83772 0.29203 0.0
C347 C 0.83565 0.89141 0.29655 0.0
C348 C 0.84351 0.90915 0.33405 0.0
H349 H 0.05432 0.75079 0.72664 0.0
H350 H 0.19971 0.75106 0.6888 0.0
H351 H 0.25076 0.779 0.75276 0.0
H352 H 0.09211 0.86626 0.77758 0.0
H353 H 0.05913 0.8435 0.81561 0.0
H354 H 0.03473 0.81936 0.76814 0.0
H355 H 0.04297 0.72229 0.79678 0.0
H356 H 0.06456 0.74764 0.84409 0.0
H357 H 0.10458 0.70555 0.8279 0.0
H358 H 0.28541 0.80949 0.82013 0.0
H359 H 0.30155 0.83964 0.88613 0.0
H360 H 0.13292 0.82203 0.87885 0.0
C361 C 0.09698 0.75542 0.73206 0.0
C362 C 0.1232 0.74787 0.70298 0.0
C363 C 0.17895 0.75605 0.71085 0.0
C364 C 0.20819 0.77207 0.74701 0.0
C365 C 0.18098 0.78025 0.77475 0.0
C366 C 0.12663 0.77213 0.76769 0.0
C367 C 0.10668 0.78607 0.80163 0.0
C368 C 0.07108 0.83149 0.79005 0.0
C369 C 0.078 0.73752 0.81862 0.0
C370 C 0.1584 0.80315 0.82905 0.0
C371 C 0.20078 0.79933 0.81304 0.0
C372 C 0.25256 0.81244 0.83302 0.0
C373 C 0.26134 0.82931 0.87053 0.0
C374 C 0.21854 0.83307 0.88769 0.0
C375 C 0.16642 0.82013 0.8664 0.0
H376 H 0.88092 0.81382 0.97305 0.0
H377 H 0.87576 -0.01755 0.94995 0.0
H378 H 0.88412 0.97389 0.88343 0.0
H379 H 0.97574 0.7988 0.91687 0.0
H380 H 0.94436 0.73633 0.89977 0.0
H381 H 0.93925 0.75583 0.94588 0.0
H382 H 0.83723 0.74273 0.92425 0.0
H383 H 0.84205 0.72304 0.87814 0.0
H384 H 0.804 0.77661 0.88035 0.0
H385 H 0.89083 0.94641 0.81845 0.0
H386 H 0.89565 0.90274 0.76077 0.0
H387 H 0.89532 0.75163 0.82565 0.0
C388 C 0.88121 0.84899 0.954 0.0
C389 C 0.87757 0.89889 0.967 0.0
C390 C 0.87901 0.94387 0.94106 0.0
C391 C 0.88354 0.93936 0.90307 0.0
C392 C 0.88688 0.88961 0.89127 0.0
C393 C 0.88589 0.84523 0.91601 0.0
C394 C 0.88973 0.79629 0.89606 0.0
C395 C 0.94028 0.77029 0.91583 0.0
C396 C 0.84031 0.75738 0.89462 0.0
C397 C 0.89237 0.81993 0.85608 0.0
C398 C 0.89083 0.87383 0.85396 0.0
C399 C 0.89202 0.90421 0.81986 0.0
C400 C 0.89449 0.87889 0.78707 0.0
C401 C 0.89574 0.82354 0.78829 0.0
C402 C 0.89503 0.79397 0.8236 0.0
H403 H 0.18516 0.95146 0.2282 0.0
H404 H 0.27205 0.83652 0.19449 0.0
H405 H 0.26068 0.77851 0.25201 0.0
H406 H 0.23477 0.94044 0.32609 0.0
H407 H 0.17361 0.94681 0.3392 0.0
H408 H 0.18459 0.97629 0.294 0.0
H409 H 0.09957 0.92596 0.25705 0.0
H410 H 0.08691 0.89627 0.30174 0.0
H411 H 0.08982 0.85551 0.26373 0.0
H412 H 0.24532 0.73754 0.31764 0.0
H413 H 0.22323 0.71566 0.38128 0.0
H414 H 0.14391 0.85806 0.36784 0.0
C415 C 0.20107 0.91375 0.23242 0.0
C416 C 0.2295 0.89849 0.20699 0.0
C417 C 0.24991 0.84881 0.21362 0.0
C418 C 0.24367 0.81578 0.24619 0.0
C419 C 0.21595 0.83275 0.27109 0.0
C420 C 0.19422 0.88031 0.26396 0.0
C421 C 0.16691 0.89065 0.2949 0.0
C422 C 0.1915 0.94152 0.31474 0.0
C423 C 0.10724 0.89211 0.27837 0.0
C424 C 0.17829 0.84249 0.32163 0.0
C425 C 0.20626 0.80914 0.30754 0.0
C426 C 0.22279 0.76311 0.32854 0.0
C427 C 0.21028 0.75111 0.36466 0.0
C428 C 0.18128 0.78487 0.3792 0.0
C429 C 0.16504 0.83086 0.35712 0.0
H430 H 0.16049 0.16651 0.82825 0.0
H431 H 0.11599 0.31283 0.85693 0.0
H432 H 0.1631 0.29587 0.92526 0.0
H433 H 0.13342 0.09456 0.90585 0.0
H434 H 0.18619 0.05249 0.91371 0.0
H435 H 0.16092 0.08175 0.86627 0.0
H436 H 0.25454 0.12371 0.86345 0.0
H437 H 0.28043 0.09387 0.91082 0.0
H438 H 0.29181 0.16392 0.90158 0.0
H439 H 0.20148 0.2554 0.99155 0.0
H440 H 0.22799 0.19639 0.04968 0.0
H441 H 0.2453 0.07467 0.97759 0.0
C442 C 0.16331 0.19624 0.84865 0.0
C443 C 0.13676 0.24202 0.83736 0.0
C444 C 0.13803 0.27866 0.86496 0.0
C445 C 0.16439 0.26906 0.90379 0.0
C446 C 0.18882 0.22247 0.91437 0.0
C447 C 0.18887 0.18685 0.88743 0.0
C448 C 0.21133 0.1366 0.90667 0.0
C449 C 0.17052 0.08856 0.89759 0.0
C450 C 0.26259 0.12911 0.89494 0.0
C451 C 0.22217 0.14856 0.94878 0.0
C452 C 0.20971 0.19854 0.95264 0.0
C453 C 0.21234 0.21664 0.98881 0.0
C454 C 0.22732 0.18267 1.02172 0.0
C455 C 0.23922 0.13088 1.01839 0.0
C456 C 0.23752 0.11426 0.98134 0.0
H457 H 0.88513 0.12898 0.43148 0.0
H458 H 0.72992 0.0671 0.44643 0.0
H459 H 0.75959 0.07913 0.51649 0.0
H460 H 0.96062 0.07127 0.52305 0.0
H461 H 0.00832 0.12791 0.53091 0.0
H462 H 0.97607 0.11111 0.48241 0.0
H463 H 0.94441 0.20442 0.46721 0.0
H464 H 0.97655 0.2214 0.51562 0.0
H465 H 0.90713 0.22841 0.49739 0.0
H466 H 0.80535 0.10046 0.58464 0.0
H467 H 0.8627 0.13243 0.64532 0.0
H468 H 0.98757 0.18188 0.58565 0.0
C469 C 0.85764 0.11714 0.44959 0.0
C470 C 0.80517 0.09698 0.43347 0.0
C471 C 0.77013 0.08299 0.45807 0.0
C472 C 0.78674 0.08935 0.49793 0.0
C473 C 0.83852 0.10981 0.5128 0.0
C474 C 0.87349 0.12352 0.4894 0.0
C475 C 0.92627 0.14692 0.51236 0.0
C476 C 0.97042 0.11222 0.51216 0.0
C477 C 0.93931 0.20366 0.49724 0.0
C478 C 0.91506 0.14536 0.55213 0.0
C479 C 0.86452 0.1231 0.55189 0.0
C480 C 0.84505 0.11785 0.58517 0.0
C481 C 0.87794 0.13618 0.61952 0.0
C482 C 0.92961 0.15995 0.6203 0.0
C483 C 0.94825 0.16422 0.58607 0.0
loop_
_geom_bond_atom_site_label_1
_geom_bond_atom_site_label_2
_geom_bond_distance
_geom_bond_site_symmetry_2
_ccdc_geom_bond_type
Nd0 C2 2.836 1_554 S
Nd0 O20 2.500 . S
Nd0 O21 2.492 . S
Nd0 O22 2.487 . S
Nd0 O23 2.682 1_565 S
Nd0 O24 2.410 1_565 S
Nd0 O29 2.414 1_565 S
Nd0 O31 2.424 . S
Nd1 C11 2.836 . S
Nd1 O23 2.414 . S
Nd1 O25 2.424 . S
Nd1 O26 2.500 . S
Nd1 O27 2.492 . S
Nd1 O28 2.487 . S
Nd1 O29 2.682 . S
Nd1 O30 2.410 . S
C2 Nd0 2.836 1_556 S
C2 C3 1.498 . S
C2 O20 1.258 1_556 S
C2 O21 1.239 1_556 S
C3 C2 1.498 . S
C3 C4 1.366 . S
C3 C8 1.407 . S
C4 C3 1.366 . S
C4 C5 1.392 . S
C4 H32 0.930 . S
C5 C4 1.392 . S
C5 C6 1.398 . S
C5 H33 0.929 . S
C6 C5 1.398 . S
C6 C7 1.352 . S
C7 C6 1.352 . S
C7 C8 1.384 . S
C7 H34 0.930 . S
C8 C3 1.407 . S
C8 C7 1.384 . S
C8 H35 0.929 . S
C9 O22 1.241 1_545 S
C9 O23 1.273 . S
C10 O24 1.251 . S
C10 O25 1.268 . S
C11 Nd1 2.836 . S
C11 C12 1.498 . S
C11 O26 1.258 . S
C11 O27 1.239 . S
C12 C11 1.498 . S
C12 C13 1.366 . S
C12 C17 1.407 . S
C13 C12 1.366 . S
C13 C14 1.392 . S
C13 H36 0.930 . S
C14 C13 1.392 . S
C14 C15 1.398 . S
C14 H37 0.929 . S
C15 C14 1.398 . S
C15 C16 1.352 . S
C16 C15 1.352 . S
C16 C17 1.384 . S
C16 H38 0.930 . S
C17 C12 1.407 . S
C17 C16 1.384 . S
C17 H39 0.929 . S
C18 O28 1.241 . S
C18 O29 1.273 . S
C19 O30 1.251 1_565 S
C19 O31 1.268 . S
O20 Nd0 2.500 . S
O20 C2 1.258 1_554 S
O21 Nd0 2.492 . S
O21 C2 1.239 1_554 S
O22 Nd0 2.487 . S
O22 C9 1.241 1_565 S
O23 Nd0 2.682 1_545 S
O23 Nd1 2.414 . S
O23 C9 1.273 . S
O24 Nd0 2.410 1_545 S
O24 C10 1.251 . S
O25 Nd1 2.424 . S
O25 C10 1.268 . S
O26 Nd1 2.500 . S
O26 C11 1.258 . S
O27 Nd1 2.492 . S
O27 C11 1.239 . S
O28 Nd1 2.487 . S
O28 C18 1.241 . S
O29 Nd0 2.414 1_545 S
O29 Nd1 2.682 . S
O29 C18 1.273 . S
O30 Nd1 2.410 . S
O30 C19 1.251 1_545 S
O31 Nd0 2.424 . S
O31 C19 1.268 . S
H32 C4 0.930 . S
H33 C5 0.929 . S
H34 C7 0.930 . S
H35 C8 0.929 . S
H36 C13 0.930 . S
H37 C14 0.929 . S
H38 C16 0.930 . S
H39 C17 0.929 . S
Nd40 C42 2.836 . S
Nd40 O60 2.500 . S
Nd40 O61 2.492 . S
Nd40 O62 2.487 . S
Nd40 O63 2.682 . S
Nd40 O64 2.410 . S
Nd40 O69 2.414 . S
Nd40 O71 2.424 . S
Nd41 C51 2.836 . S
Nd41 O63 2.414 1_655 S
Nd41 O65 2.424 . S
Nd41 O66 2.500 . S
Nd41 O67 2.492 . S
Nd41 O68 2.487 1_655 S
Nd41 O69 2.682 1_655 S
Nd41 O70 2.410 1_655 S
C42 Nd40 2.836 . S
C42 C43 1.498 . S
C42 O60 1.258 . S
C42 O61 1.239 . S
C43 C42 1.498 . S
C43 C44 1.366 . S
C43 C48 1.407 . S
C44 C43 1.366 . S
C44 C45 1.392 . S
C44 H72 0.930 . S
C45 C44 1.392 . S
C45 C46 1.398 . S
C45 H73 0.929 . S
C46 C45 1.398 . S
C46 C47 1.352 . S
C47 C46 1.352 . S
C47 C48 1.384 . S
C47 H74 0.930 . S
C48 C43 1.407 . S
C48 C47 1.384 . S
C48 H75 0.929 . S
C49 O62 1.241 . S
C49 O63 1.273 . S
C50 O64 1.251 . S
C50 O65 1.268 1_455 S
C51 Nd41 2.836 . S
C51 C52 1.498 . S
C51 O66 1.258 . S
C51 O67 1.239 . S
C52 C51 1.498 . S
C52 C53 1.366 . S
C52 C57 1.407 . S
C53 C52 1.366 . S
C53 C54 1.392 . S
C53 H76 0.930 . S
C54 C53 1.392 . S
C54 C55 1.398 . S
C54 H77 0.929 . S
C55 C54 1.398 . S
C55 C56 1.352 . S
C56 C55 1.352 . S
C56 C57 1.384 . S
C56 H78 0.930 . S
C57 C52 1.407 . S
C57 C56 1.384 . S
C57 H79 0.929 . S
C58 O68 1.241 . S
C58 O69 1.273 . S
C59 O70 1.251 . S
C59 O71 1.268 . S
O60 Nd40 2.500 . S
O60 C42 1.258 . S
O61 Nd40 2.492 . S
O61 C42 1.239 . S
O62 Nd40 2.487 . S
O62 C49 1.241 . S
O63 Nd40 2.682 . S
O63 Nd41 2.414 1_455 S
O63 C49 1.273 . S
O64 Nd40 2.410 . S
O64 C50 1.251 . S
O65 Nd41 2.424 . S
O65 C50 1.268 1_655 S
O66 Nd41 2.500 . S
O66 C51 1.258 . S
O67 Nd41 2.492 . S
O67 C51 1.239 . S
O68 Nd41 2.487 1_455 S
O68 C58 1.241 . S
O69 Nd40 2.414 . S
O69 Nd41 2.682 1_455 S
O69 C58 1.273 . S
O70 Nd41 2.410 1_455 S
O70 C59 1.251 . S
O71 Nd40 2.424 . S
O71 C59 1.268 . S
H72 C44 0.930 . S
H73 C45 0.929 . S
H74 C47 0.930 . S
H75 C48 0.929 . S
H76 C53 0.930 . S
H77 C54 0.929 . S
H78 C56 0.930 . S
H79 C57 0.929 . S
Nd80 C82 2.836 . S
Nd80 O100 2.500 . S
Nd80 O101 2.492 . S
Nd80 O102 2.487 . S
Nd80 O103 2.682 1_565 S
Nd80 O104 2.410 1_565 S
Nd80 O109 2.402 1_565 S
Nd80 O111 2.424 . S
Nd81 C91 2.836 . S
Nd81 O103 2.414 . S
Nd81 O105 2.424 . S
Nd81 O106 2.500 . S
Nd81 O107 2.492 . S
Nd81 O108 2.487 . S
Nd81 O109 2.699 . S
Nd81 O110 2.410 1_545 S
C82 Nd80 2.836 . S
C82 C83 1.498 . S
C82 O100 1.258 . S
C82 O101 1.239 . S
C83 C82 1.498 . S
C83 C84 1.366 . S
C83 C88 1.407 1_554 S
C84 C83 1.366 . S
C84 C85 1.392 1_554 S
C84 H112 0.930 . S
C85 C84 1.392 1_556 S
C85 C86 1.398 . S
C85 H113 0.929 . S
C86 C85 1.398 . S
C86 C87 1.352 . S
C87 C86 1.352 . S
C87 C88 1.384 . S
C87 H114 0.930 . S
C88 C83 1.407 1_556 S
C88 C87 1.384 . S
C88 H115 0.929 1_556 S
C89 O102 1.241 . S
C89 O103 1.273 1_565 S
C90 O104 1.251 . S
C90 O105 1.268 . S
C91 Nd81 2.836 . S
C91 C92 1.498 . S
C91 O106 1.258 . S
C91 O107 1.239 . S
C92 C91 1.498 . S
C92 C93 1.366 . S
C92 C97 1.407 . S
C93 C92 1.366 . S
C93 C94 1.392 . S
C93 H116 0.930 . S
C94 C93 1.392 . S
C94 C95 1.398 . S
C94 H117 0.929 . S
C95 C94 1.398 . S
C95 C96 1.352 . S
C96 C95 1.352 . S
C96 C97 1.384 . S
C96 H118 0.930 . S
C97 C92 1.407 . S
C97 C96 1.384 . S
C97 H119 0.929 . S
C98 O108 1.241 . S
C98 O109 1.279 . S
C99 O110 1.251 . S
C99 O111 1.268 . S
O100 Nd80 2.500 . S
O100 C82 1.258 . S
O101 Nd80 2.492 . S
O101 C82 1.239 . S
O102 Nd80 2.487 . S
O102 C89 1.241 . S
O103 Nd80 2.682 1_545 S
O103 Nd81 2.414 . S
O103 C89 1.273 1_545 S
O104 Nd80 2.410 1_545 S
O104 C90 1.251 . S
O105 Nd81 2.424 . S
O105 C90 1.268 . S
O106 Nd81 2.500 . S
O106 C91 1.258 . S
O107 Nd81 2.492 . S
O107 C91 1.239 . S
O108 Nd81 2.487 . S
O108 C98 1.241 . S
O109 Nd80 2.402 1_545 S
O109 Nd81 2.699 . S
O109 C98 1.279 . S
O110 Nd81 2.410 1_565 S
O110 C99 1.251 . S
O111 Nd80 2.424 . S
O111 C99 1.268 . S
H112 C84 0.930 . S
H113 C85 0.929 . S
H114 C87 0.930 . S
H115 C88 0.929 1_554 S
H116 C93 0.930 . S
H117 C94 0.929 . S
H118 C96 0.930 . S
H119 C97 0.929 . S
Nd120 C122 2.836 . S
Nd120 O140 2.500 . S
Nd120 O141 2.492 . S
Nd120 O142 2.487 . S
Nd120 O143 2.682 1_455 S
Nd120 O144 2.410 1_455 S
Nd120 O149 2.414 . S
Nd120 O151 2.424 . S
Nd121 C131 2.836 . S
Nd121 O143 2.414 . S
Nd121 O145 2.424 . S
Nd121 O146 2.500 . S
Nd121 O147 2.492 . S
Nd121 O148 2.487 . S
Nd121 O149 2.682 1_655 S
Nd121 O150 2.410 1_655 S
C122 Nd120 2.836 . S
C122 C123 1.498 . S
C122 O140 1.258 . S
C122 O141 1.239 . S
C123 C122 1.498 . S
C123 C124 1.366 . S
C123 C128 1.407 . S
C124 C123 1.366 . S
C124 C125 1.392 . S
C124 H152 0.930 . S
C125 C124 1.392 . S
C125 C126 1.398 . S
C125 H153 0.929 . S
C126 C125 1.398 . S
C126 C127 1.352 . S
C127 C126 1.352 . S
C127 C128 1.384 . S
C127 H154 0.930 . S
C128 C123 1.407 . S
C128 C127 1.384 . S
C128 H155 0.929 . S
C129 O142 1.241 . S
C129 O143 1.273 1_455 S
C130 O144 1.251 . S
C130 O145 1.268 . S
C131 Nd121 2.836 . S
C131 C132 1.498 . S
C131 O146 1.258 . S
C131 O147 1.239 . S
C132 C131 1.498 . S
C132 C133 1.366 . S
C132 C137 1.407 . S
C133 C132 1.366 . S
C133 C134 1.392 . S
C133 H156 0.930 . S
C134 C133 1.392 . S
C134 C135 1.398 . S
C134 H157 0.929 . S
C135 C134 1.398 . S
C135 C136 1.352 . S
C136 C135 1.352 . S
C136 C137 1.384 . S
C136 H158 0.930 . S
C137 C132 1.407 . S
C137 C136 1.384 . S
C137 H159 0.929 . S
C138 O148 1.241 . S
C138 O149 1.273 1_655 S
C139 O150 1.251 . S
C139 O151 1.268 . S
O140 Nd120 2.500 . S
O140 C122 1.258 . S
O141 Nd120 2.492 . S
O141 C122 1.239 . S
O142 Nd120 2.487 . S
O142 C129 1.241 . S
O143 Nd120 2.682 1_655 S
O143 Nd121 2.414 . S
O143 C129 1.273 1_655 S
O144 Nd120 2.410 1_655 S
O144 C130 1.251 . S
O145 Nd121 2.424 . S
O145 C130 1.268 . S
O146 Nd121 2.500 . S
O146 C131 1.258 . S
O147 Nd121 2.492 . S
O147 C131 1.239 . S
O148 Nd121 2.487 . S
O148 C138 1.241 . S
O149 Nd120 2.414 . S
O149 Nd121 2.682 1_455 S
O149 C138 1.273 1_455 S
O150 Nd121 2.410 1_455 S
O150 C139 1.251 . S
O151 Nd120 2.424 . S
O151 C139 1.268 . S
H152 C124 0.930 . S
H153 C125 0.929 . S
H154 C127 0.930 . S
H155 C128 0.929 . S
H156 C133 0.930 . S
H157 C134 0.929 . S
H158 C136 0.930 . S
H159 C137 0.929 . S
H160 C172 0.930 . S
H161 C174 0.930 . S
H162 C175 0.930 . S
H163 C179 0.959 . S
H164 C179 0.959 . S
H165 C179 0.961 . S
H166 C180 0.970 . S
H167 C180 0.950 1_455 S
H168 C180 0.964 . S
H169 C183 0.929 . S
H170 C184 0.931 . S
H171 C186 0.930 . S
C172 H160 0.930 . S
C172 C173 1.399 1_565 S
C172 C177 1.399 . S
C173 C172 1.399 1_545 S
C173 C174 1.376 . S
C174 H161 0.930 . S
C174 C173 1.376 . S
C174 C175 1.388 . S
C175 H162 0.930 . S
C175 C174 1.388 . S
C175 C176 1.390 1_655 S
C176 C175 1.390 1_455 S
C176 C177 1.394 1_445 S
C176 C182 1.465 . S
C177 C172 1.399 . S
C177 C176 1.394 1_665 S
C177 C178 1.516 1_655 S
C178 C177 1.516 1_455 S
C178 C179 1.502 . S
C178 C180 1.557 1_455 S
C178 C181 1.526 1_565 S
C179 H163 0.959 . S
C179 H164 0.959 . S
C179 H165 0.961 . S
C179 C178 1.502 . S
C180 H166 0.970 . S
C180 H167 0.950 1_655 S
C180 H168 0.964 . S
C180 C178 1.557 1_655 S
C181 C178 1.526 1_545 S
C181 C182 1.396 . S
C181 C186 1.390 1_545 S
C182 C176 1.465 . S
C182 C181 1.396 . S
C182 C183 1.399 . S
C183 H169 0.929 . S
C183 C182 1.399 . S
C183 C184 1.385 . S
C184 H170 0.931 . S
C184 C183 1.385 . S
C184 C185 1.389 . S
C185 C184 1.389 . S
C185 C186 1.387 1_545 S
C186 H171 0.930 . S
C186 C181 1.390 1_565 S
C186 C185 1.387 1_565 S
H187 C199 0.930 . S
H188 C201 0.930 . S
H189 C202 0.930 . S
H190 C206 0.959 1_545 S
H191 C206 0.963 . S
H192 C206 0.961 . S
H193 C207 0.960 1_655 S
H194 C207 0.952 1_655 S
H195 C207 0.959 . S
H196 C210 0.929 . S
H197 C211 0.931 . S
H198 C213 0.930 . S
C199 H187 0.930 . S
C199 C200 1.399 1_655 S
C199 C204 1.399 1_655 S
C200 C199 1.399 1_455 S
C200 C201 1.376 . S
C201 H188 0.930 . S
C201 C200 1.376 . S
C201 C202 1.388 1_565 S
C202 H189 0.930 . S
C202 C201 1.388 1_545 S
C202 C203 1.390 . S
C203 C202 1.390 . S
C203 C204 1.394 1_545 S
C203 C209 1.465 . S
C204 C199 1.399 1_455 S
C204 C203 1.394 1_565 S
C204 C205 1.516 1_455 S
C205 C204 1.516 1_655 S
C205 C206 1.502 . S
C205 C207 1.561 1_655 S
C205 C208 1.526 1_665 S
C206 H190 0.959 1_565 S
C206 H191 0.963 . S
C206 H192 0.961 . S
C206 C205 1.502 . S
C207 H193 0.960 1_455 S
C207 H194 0.952 1_455 S
C207 H195 0.959 . S
C207 C205 1.561 1_455 S
C208 C205 1.526 1_445 S
C208 C209 1.396 . S
C208 C213 1.390 . S
C209 C203 1.465 . S
C209 C208 1.396 . S
C209 C210 1.399 . S
C210 H196 0.929 . S
C210 C209 1.399 . S
C210 C211 1.385 . S
C211 H197 0.931 . S
C211 C210 1.385 . S
C211 C212 1.389 . S
C212 C211 1.389 . S
C212 C213 1.387 . S
C213 H198 0.930 . S
C213 C208 1.390 . S
C213 C212 1.387 . S
H214 C226 0.930 . S
H215 C228 0.930 1_565 S
H216 C229 0.930 . S
H217 C233 0.959 . S
H218 C233 0.959 . S
H219 C233 0.961 . S
H220 C234 0.960 . S
H221 C234 0.961 . S
H222 C234 0.959 . S
H223 C237 0.929 . S
H224 C238 0.931 . S
H225 C240 0.930 . S
C226 H214 0.930 . S
C226 C227 1.399 . S
C226 C231 1.399 . S
C227 C226 1.399 . S
C227 C228 1.376 . S
C228 H215 0.930 1_545 S
C228 C227 1.376 . S
C228 C229 1.388 . S
C229 H216 0.930 . S
C229 C228 1.388 . S
C229 C230 1.390 . S
C230 C229 1.390 . S
C230 C231 1.394 . S
C230 C236 1.465 . S
C231 C226 1.399 . S
C231 C230 1.394 . S
C231 C232 1.516 . S
C232 C231 1.516 . S
C232 C233 1.502 . S
C232 C234 1.561 1_545 S
C232 C235 1.526 . S
C233 H217 0.959 . S
C233 H218 0.959 . S
C233 H219 0.961 . S
C233 C232 1.502 . S
C234 H220 0.960 . S
C234 H221 0.961 . S
C234 H222 0.959 . S
C234 C232 1.561 1_565 S
C235 C232 1.526 . S
C235 C236 1.396 . S
C235 C240 1.390 . S
C236 C230 1.465 . S
C236 C235 1.396 . S
C236 C237 1.399 . S
C237 H223 0.929 . S
C237 C236 1.399 . S
C237 C238 1.385 . S
C238 H224 0.931 . S
C238 C237 1.385 . S
C238 C239 1.389 . S
C239 C238 1.389 . S
C239 C240 1.387 . S
C240 H225 0.930 . S
C240 C235 1.390 . S
C240 C239 1.387 . S
H241 C253 0.930 . S
H242 C255 0.930 1_655 S
H243 C256 0.930 . S
H244 C260 0.959 . S
H245 C260 0.959 . S
H246 C260 0.961 . S
H247 C261 0.960 . S
H248 C261 0.961 . S
H249 C261 0.959 . S
H250 C264 0.929 . S
H251 C265 0.931 . S
H252 C267 0.930 . S
C253 H241 0.930 . S
C253 C254 1.399 . S
C253 C258 1.399 . S
C254 C253 1.399 . S
C254 C255 1.376 . S
C255 H242 0.930 1_455 S
C255 C254 1.376 . S
C255 C256 1.388 1_455 S
C256 H243 0.930 . S
C256 C255 1.388 1_655 S
C256 C257 1.390 1_655 S
C257 C256 1.390 1_455 S
C257 C258 1.394 . S
C257 C263 1.465 1_455 S
C258 C253 1.399 . S
C258 C257 1.394 . S
C258 C259 1.516 . S
C259 C258 1.516 . S
C259 C260 1.502 . S
C259 C261 1.561 . S
C259 C262 1.526 . S
C260 H244 0.959 . S
C260 H245 0.959 . S
C260 H246 0.961 . S
C260 C259 1.502 . S
C261 H247 0.960 . S
C261 H248 0.961 . S
C261 H249 0.959 . S
C261 C259 1.561 . S
C262 C259 1.526 . S
C262 C263 1.396 1_455 S
C262 C267 1.390 . S
C263 C257 1.465 1_655 S
C263 C262 1.396 1_655 S
C263 C264 1.399 . S
C264 H250 0.929 . S
C264 C263 1.399 . S
C264 C265 1.385 . S
C265 H251 0.931 . S
C265 C264 1.385 . S
C265 C266 1.389 . S
C266 C265 1.389 . S
C266 C267 1.387 1_655 S
C267 H252 0.930 . S
C267 C262 1.390 . S
C267 C266 1.387 1_455 S
H268 C280 0.930 . S
H269 C282 0.930 . S
H270 C283 0.930 . S
H271 C287 0.959 . S
H272 C287 0.959 . S
H273 C287 0.961 . S
H274 C288 0.960 . S
H275 C288 0.961 . S
H276 C288 0.959 . S
H277 C291 0.929 . S
H278 C292 0.931 . S
H279 C294 0.930 . S
C280 H268 0.930 . S
C280 C281 1.399 . S
C280 C285 1.399 . S
C281 C280 1.399 . S
C281 C282 1.376 . S
C282 H269 0.930 . S
C282 C281 1.376 . S
C282 C283 1.388 . S
C283 H270 0.930 . S
C283 C282 1.388 . S
C283 C284 1.390 . S
C284 C283 1.390 . S
C284 C285 1.394 . S
C284 C290 1.465 . S
C285 C280 1.399 . S
C285 C284 1.394 . S
C285 C286 1.516 . S
C286 C285 1.516 . S
C286 C287 1.502 . S
C286 C288 1.561 . S
C286 C289 1.526 . S
C287 H271 0.959 . S
C287 H272 0.959 . S
C287 H273 0.961 . S
C287 C286 1.502 . S
C288 H274 0.960 . S
C288 H275 0.961 . S
C288 H276 0.959 . S
C288 C286 1.561 . S
C289 C286 1.526 . S
C289 C290 1.396 . S
C289 C294 1.390 . S
C290 C284 1.465 . S
C290 C289 1.396 . S
C290 C291 1.399 . S
C291 H277 0.929 . S
C291 C290 1.399 . S
C291 C292 1.385 . S
C292 H278 0.931 . S
C292 C291 1.385 . S
C292 C293 1.389 . S
C293 C292 1.389 . S
C293 C294 1.387 . S
C294 H279 0.930 . S
C294 C289 1.390 . S
C294 C293 1.387 . S
H295 C307 0.930 . S
H296 C309 0.930 . S
H297 C310 0.930 . S
H298 C314 0.959 . S
H299 C314 0.959 . S
H300 C314 0.961 . S
H301 C315 0.960 . S
H302 C315 0.961 . S
H303 C315 0.959 . S
H304 C318 0.929 . S
H305 C319 0.931 . S
H306 C321 0.930 . S
C307 H295 0.930 . S
C307 C308 1.399 . S
C307 C312 1.399 . S
C308 C307 1.399 . S
C308 C309 1.376 . S
C309 H296 0.930 . S
C309 C308 1.376 . S
C309 C310 1.388 . S
C310 H297 0.930 . S
C310 C309 1.388 . S
C310 C311 1.390 . S
C311 C310 1.390 . S
C311 C312 1.394 . S
C311 C317 1.465 . S
C312 C307 1.399 . S
C312 C311 1.394 . S
C312 C313 1.516 . S
C313 C312 1.516 . S
C313 C314 1.502 . S
C313 C315 1.561 . S
C313 C316 1.526 . S
C314 H298 0.959 . S
C314 H299 0.959 . S
C314 H300 0.961 . S
C314 C313 1.502 . S
C315 H301 0.960 . S
C315 H302 0.961 . S
C315 H303 0.959 . S
C315 C313 1.561 . S
C316 C313 1.526 . S
C316 C317 1.396 . S
C316 C321 1.390 1_556 S
C317 C311 1.465 . S
C317 C316 1.396 . S
C317 C318 1.399 1_556 S
C318 H304 0.929 . S
C318 C317 1.399 1_554 S
C318 C319 1.385 . S
C319 H305 0.931 . S
C319 C318 1.385 . S
C319 C320 1.389 . S
C320 C319 1.389 . S
C320 C321 1.387 . S
C321 H306 0.930 . S
C321 C316 1.390 1_554 S
C321 C320 1.387 . S
H322 C334 0.930 . S
H323 C336 0.930 . S
H324 C337 0.930 . S
H325 C341 0.959 . S
H326 C341 0.959 . S
H327 C341 0.961 . S
H328 C342 0.960 . S
H329 C342 0.961 . S
H330 C342 0.959 . S
H331 C345 0.929 . S
H332 C346 0.931 . S
H333 C348 0.930 . S
C334 H322 0.930 . S
C334 C335 1.399 . S
C334 C339 1.399 . S
C335 C334 1.399 . S
C335 C336 1.376 . S
C336 H323 0.930 . S
C336 C335 1.376 . S
C336 C337 1.388 . S
C337 H324 0.930 . S
C337 C336 1.388 . S
C337 C338 1.390 . S
C338 C337 1.390 . S
C338 C339 1.394 . S
C338 C344 1.465 . S
C339 C334 1.399 . S
C339 C338 1.394 . S
C339 C340 1.516 . S
C340 C339 1.516 . S
C340 C341 1.502 . S
C340 C342 1.561 . S
C340 C343 1.526 . S
C341 H325 0.959 . S
C341 H326 0.959 . S
C341 H327 0.961 . S
C341 C340 1.502 . S
C342 H328 0.960 . S
C342 H329 0.961 . S
C342 H330 0.959 . S
C342 C340 1.561 . S
C343 C340 1.526 . S
C343 C344 1.396 . S
C343 C348 1.390 . S
C344 C338 1.465 . S
C344 C343 1.396 . S
C344 C345 1.399 . S
C345 H331 0.929 . S
C345 C344 1.399 . S
C345 C346 1.385 . S
C346 H332 0.931 . S
C346 C345 1.385 . S
C346 C347 1.389 . S
C347 C346 1.389 . S
C347 C348 1.387 . S
C348 H333 0.930 . S
C348 C343 1.390 . S
C348 C347 1.387 . S
H349 C361 0.930 . S
H350 C363 0.930 . S
H351 C364 0.930 . S
H352 C368 0.959 . S
H353 C368 0.959 . S
H354 C368 0.961 . S
H355 C369 0.960 . S
H356 C369 0.961 . S
H357 C369 0.959 . S
H358 C372 0.929 . S
H359 C373 0.931 . S
H360 C375 0.930 . S
C361 H349 0.930 . S
C361 C362 1.399 . S
C361 C366 1.399 . S
C362 C361 1.399 . S
C362 C363 1.376 . S
C363 H350 0.930 . S
C363 C362 1.376 . S
C363 C364 1.388 . S
C364 H351 0.930 . S
C364 C363 1.388 . S
C364 C365 1.390 . S
C365 C364 1.390 . S
C365 C366 1.394 . S
C365 C371 1.465 . S
C366 C361 1.399 . S
C366 C365 1.394 . S
C366 C367 1.516 . S
C367 C366 1.516 . S
C367 C368 1.502 . S
C367 C369 1.561 . S
C367 C370 1.526 . S
C368 H352 0.959 . S
C368 H353 0.959 . S
C368 H354 0.961 . S
C368 C367 1.502 . S
C369 H355 0.960 . S
C369 H356 0.961 . S
C369 H357 0.959 . S
C369 C367 1.561 . S
C370 C367 1.526 . S
C370 C371 1.396 . S
C370 C375 1.390 . S
C371 C365 1.465 . S
C371 C370 1.396 . S
C371 C372 1.399 . S
C372 H358 0.929 . S
C372 C371 1.399 . S
C372 C373 1.385 . S
C373 H359 0.931 . S
C373 C372 1.385 . S
C373 C374 1.389 . S
C374 C373 1.389 . S
C374 C375 1.387 . S
C375 H360 0.930 . S
C375 C370 1.390 . S
C375 C374 1.387 . S
H376 C388 0.930 . S
H377 C390 0.930 . S
H378 C391 0.930 . S
H379 C395 0.959 . S
H380 C395 0.959 . S
H381 C395 0.961 . S
H382 C396 0.960 . S
H383 C396 0.961 . S
H384 C396 0.959 . S
H385 C399 0.929 . S
H386 C400 0.931 . S
H387 C402 0.930 . S
C388 H376 0.930 . S
C388 C389 1.399 . S
C388 C393 1.399 . S
C389 C388 1.399 . S
C389 C390 1.376 . S
C390 H377 0.930 . S
C390 C389 1.376 . S
C390 C391 1.388 . S
C391 H378 0.930 . S
C391 C390 1.388 . S
C391 C392 1.390 . S
C392 C391 1.390 . S
C392 C393 1.394 . S
C392 C398 1.465 . S
C393 C388 1.399 . S
C393 C392 1.394 . S
C393 C394 1.516 . S
C394 C393 1.516 . S
C394 C395 1.502 . S
C394 C396 1.561 . S
C394 C397 1.526 . S
C395 H379 0.959 . S
C395 H380 0.959 . S
C395 H381 0.961 . S
C395 C394 1.502 . S
C396 H382 0.960 . S
C396 H383 0.961 . S
C396 H384 0.959 . S
C396 C394 1.561 . S
C397 C394 1.526 . S
C397 C398 1.396 . S
C397 C402 1.390 . S
C398 C392 1.465 . S
C398 C397 1.396 . S
C398 C399 1.399 . S
C399 H385 0.929 . S
C399 C398 1.399 . S
C399 C400 1.385 . S
C400 H386 0.931 . S
C400 C399 1.385 . S
C400 C401 1.389 . S
C401 C400 1.389 . S
C401 C402 1.387 . S
C402 H387 0.930 . S
C402 C397 1.390 . S
C402 C401 1.387 . S
H403 C415 0.930 . S
H404 C417 0.930 1_545 S
H405 C418 0.930 1_545 S
H406 C422 0.959 . S
H407 C422 0.959 . S
H408 C422 0.961 . S
H409 C423 0.960 . S
H410 C423 0.961 . S
H411 C423 0.959 . S
H412 C426 0.929 . S
H413 C427 0.931 . S
H414 C429 0.930 . S
C415 H403 0.930 . S
C415 C416 1.399 . S
C415 C420 1.399 . S
C416 C415 1.399 . S
C416 C417 1.376 . S
C417 H404 0.930 1_565 S
C417 C416 1.376 . S
C417 C418 1.388 . S
C418 H405 0.930 1_565 S
C418 C417 1.388 . S
C418 C419 1.390 . S
C419 C418 1.390 . S
C419 C420 1.394 . S
C419 C425 1.465 . S
C420 C415 1.399 . S
C420 C419 1.394 . S
C420 C421 1.516 . S
C421 C420 1.516 . S
C421 C422 1.502 . S
C421 C423 1.561 . S
C421 C424 1.526 . S
C422 H406 0.959 . S
C422 H407 0.959 . S
C422 H408 0.961 . S
C422 C421 1.502 . S
C423 H409 0.960 . S
C423 H410 0.961 . S
C423 H411 0.959 . S
C423 C421 1.561 . S
C424 C421 1.526 . S
C424 C425 1.396 . S
C424 C429 1.390 . S
C425 C419 1.465 . S
C425 C424 1.396 . S
C425 C426 1.399 . S
C426 H412 0.929 . S
C426 C425 1.399 . S
C426 C427 1.385 . S
C427 H413 0.931 . S
C427 C426 1.385 . S
C427 C428 1.389 . S
C428 C427 1.389 . S
C428 C429 1.387 . S
C429 H414 0.930 . S
C429 C424 1.390 . S
C429 C428 1.387 . S
H430 C442 0.930 . S
H431 C444 0.930 . S
H432 C445 0.930 . S
H433 C449 0.959 . S
H434 C449 0.959 . S
H435 C449 0.961 . S
H436 C450 0.960 . S
H437 C450 0.961 . S
H438 C450 0.959 . S
H439 C453 0.929 . S
H440 C454 0.931 . S
H441 C456 0.930 . S
C442 H430 0.930 . S
C442 C443 1.399 . S
C442 C447 1.399 . S
C443 C442 1.399 . S
C443 C444 1.376 . S
C444 H431 0.930 . S
C444 C443 1.376 . S
C444 C445 1.388 . S
C445 H432 0.930 . S
C445 C444 1.388 . S
C445 C446 1.390 . S
C446 C445 1.390 . S
C446 C447 1.394 . S
C446 C452 1.465 . S
C447 C442 1.399 . S
C447 C446 1.394 . S
C447 C448 1.516 . S
C448 C447 1.516 . S
C448 C449 1.502 . S
C448 C450 1.561 . S
C448 C451 1.526 . S
C449 H433 0.959 . S
C449 H434 0.959 . S
C449 H435 0.961 . S
C449 C448 1.502 . S
C450 H436 0.960 . S
C450 H437 0.961 . S
C450 H438 0.959 . S
C450 C448 1.561 . S
C451 C448 1.526 . S
C451 C452 1.396 . S
C451 C456 1.390 . S
C452 C446 1.465 . S
C452 C451 1.396 . S
C452 C453 1.399 . S
C453 H439 0.929 . S
C453 C452 1.399 . S
C453 C454 1.385 . S
C454 H440 0.931 . S
C454 C453 1.385 . S
C454 C455 1.389 . S
C455 C454 1.389 . S
C455 C456 1.387 . S
C456 H441 0.930 . S
C456 C451 1.390 . S
C456 C455 1.387 . S
H457 C469 0.930 . S
H458 C471 0.930 . S
H459 C472 0.930 . S
H460 C476 0.959 . S
H461 C476 0.959 . S
H462 C476 0.961 . S
H463 C477 0.960 . S
H464 C477 0.961 . S
H465 C477 0.959 1_455 S
H466 C480 0.929 . S
H467 C481 0.931 . S
H468 C483 0.930 . S
C469 H457 0.930 . S
C469 C470 1.399 . S
C469 C474 1.399 . S
C470 C469 1.399 . S
C470 C471 1.376 . S
C471 H458 0.930 . S
C471 C470 1.376 . S
C471 C472 1.388 . S
C472 H459 0.930 . S
C472 C471 1.388 . S
C472 C473 1.390 . S
C473 C472 1.390 . S
C473 C474 1.394 . S
C473 C479 1.465 . S
C474 C469 1.399 . S
C474 C473 1.394 . S
C474 C475 1.516 . S
C475 C474 1.516 . S
C475 C476 1.502 . S
C475 C477 1.561 . S
C475 C478 1.526 . S
C476 H460 0.959 . S
C476 H461 0.959 . S
C476 H462 0.961 . S
C476 C475 1.502 . S
C477 H463 0.960 . S
C477 H464 0.961 . S
C477 H465 0.959 1_655 S
C477 C475 1.561 . S
C478 C475 1.526 . S
C478 C479 1.396 . S
C478 C483 1.390 . S
C479 C473 1.465 . S
C479 C478 1.396 . S
C479 C480 1.399 . S
C480 H466 0.929 . S
C480 C479 1.399 . S
C480 C481 1.385 . S
C481 H467 0.931 . S
C481 C480 1.385 . S
C481 C482 1.389 . S
C482 C481 1.389 . S
C482 C483 1.387 . S
C483 H468 0.930 . S
C483 C478 1.390 . S
C483 C482 1.387 . S
C173 C98 0.270 . S
C185 C9 0.549 . S
C200 C138 0.772 1_455 S
C212 C49 0.556 . S
C227 C89 1.005 1_545 S
C239 C18 0.946 . S
C254 C58 1.033 . S
C266 C129 1.151 1_655 S
C281 C46 1.086 . S
C293 C15 1.064 . S
C308 C55 1.712 . S
C320 C90 1.723 . S
C335 C130 2.136 . S
C347 C99 2.064 . S
C362 C139 1.305 . S
C374 C6 1.352 . S
C389 C86 1.058 . S
C401 C135 1.000 . S
C416 C19 1.727 . S
C428 C126 1.705 . S
C443 C59 2.145 . S
C455 C10 2.101 1_556 S
C470 C95 1.346 . S
C482 C50 1.370 1_655 S
