# Generated by pormake.
# Topology gsi, (4)-cn, num edge types: 1
# Building blocks:
#     Node 0, Type 0, BuildingBlock: TATPOV_clean_sbu_0, # of connection points: 4
#     Node 1, Type 0, BuildingBlock: TATPOV_clean_sbu_0, # of connection points: 4
#     Node 2, Type 0, BuildingBlock: TATPOV_clean_sbu_0, # of connection points: 4
#     Node 3, Type 0, BuildingBlock: TATPOV_clean_sbu_0, # of connection points: 4
#     Node 4, Type 0, BuildingBlock: TATPOV_clean_sbu_0, # of connection points: 4
#     Node 5, Type 0, BuildingBlock: TATPOV_clean_sbu_0, # of connection points: 4
#     Node 6, Type 0, BuildingBlock: TATPOV_clean_sbu_0, # of connection points: 4
#     Node 7, Type 0, BuildingBlock: TATPOV_clean_sbu_0, # of connection points: 4
#     Node 8, Type 0, BuildingBlock: TATPOV_clean_sbu_0, # of connection points: 4
#     Node 9, Type 0, BuildingBlock: TATPOV_clean_sbu_0, # of connection points: 4
#     Node 10, Type 0, BuildingBlock: TATPOV_clean_sbu_0, # of connection points: 4
#     Node 11, Type 0, BuildingBlock: TATPOV_clean_sbu_0, # of connection points: 4
#     Node 12, Type 0, BuildingBlock: TATPOV_clean_sbu_0, # of connection points: 4
#     Node 13, Type 0, BuildingBlock: TATPOV_clean_sbu_0, # of connection points: 4
#     Node 14, Type 0, BuildingBlock: TATPOV_clean_sbu_0, # of connection points: 4
#     Node 15, Type 0, BuildingBlock: TATPOV_clean_sbu_0, # of connection points: 4
#     Edge 16, Type (0, 0), BuildingBlock: KIFKEQ_clean_linker_1, # of connection points: 2
#     Edge 17, Type (0, 0), BuildingBlock: KIFKEQ_clean_linker_1, # of connection points: 2
#     Edge 18, Type (0, 0), BuildingBlock: KIFKEQ_clean_linker_1, # of connection points: 2
#     Edge 19, Type (0, 0), BuildingBlock: KIFKEQ_clean_linker_1, # of connection points: 2
#     Edge 20, Type (0, 0), BuildingBlock: KIFKEQ_clean_linker_1, # of connection points: 2
#     Edge 21, Type (0, 0), BuildingBlock: KIFKEQ_clean_linker_1, # of connection points: 2
#     Edge 22, Type (0, 0), BuildingBlock: KIFKEQ_clean_linker_1, # of connection points: 2
#     Edge 23, Type (0, 0), BuildingBlock: KIFKEQ_clean_linker_1, # of connection points: 2
#     Edge 24, Type (0, 0), BuildingBlock: KIFKEQ_clean_linker_1, # of connection points: 2
#     Edge 25, Type (0, 0), BuildingBlock: KIFKEQ_clean_linker_1, # of connection points: 2
#     Edge 26, Type (0, 0), BuildingBlock: KIFKEQ_clean_linker_1, # of connection points: 2
#     Edge 27, Type (0, 0), BuildingBlock: KIFKEQ_clean_linker_1, # of connection points: 2
#     Edge 28, Type (0, 0), BuildingBlock: KIFKEQ_clean_linker_1, # of connection points: 2
#     Edge 29, Type (0, 0), BuildingBlock: KIFKEQ_clean_linker_1, # of connection points: 2
#     Edge 30, Type (0, 0), BuildingBlock: KIFKEQ_clean_linker_1, # of connection points: 2
#     Edge 31, Type (0, 0), BuildingBlock: KIFKEQ_clean_linker_1, # of connection points: 2
#     Edge 32, Type (0, 0), BuildingBlock: KIFKEQ_clean_linker_1, # of connection points: 2
#     Edge 33, Type (0, 0), BuildingBlock: KIFKEQ_clean_linker_1, # of connection points: 2
#     Edge 34, Type (0, 0), BuildingBlock: KIFKEQ_clean_linker_1, # of connection points: 2
#     Edge 35, Type (0, 0), BuildingBlock: KIFKEQ_clean_linker_1, # of connection points: 2
#     Edge 36, Type (0, 0), BuildingBlock: KIFKEQ_clean_linker_1, # of connection points: 2
#     Edge 37, Type (0, 0), BuildingBlock: KIFKEQ_clean_linker_1, # of connection points: 2
#     Edge 38, Type (0, 0), BuildingBlock: KIFKEQ_clean_linker_1, # of connection points: 2
#     Edge 39, Type (0, 0), BuildingBlock: KIFKEQ_clean_linker_1, # of connection points: 2
#     Edge 40, Type (0, 0), BuildingBlock: KIFKEQ_clean_linker_1, # of connection points: 2
#     Edge 41, Type (0, 0), BuildingBlock: KIFKEQ_clean_linker_1, # of connection points: 2
#     Edge 42, Type (0, 0), BuildingBlock: KIFKEQ_clean_linker_1, # of connection points: 2
#     Edge 43, Type (0, 0), BuildingBlock: KIFKEQ_clean_linker_1, # of connection points: 2
#     Edge 44, Type (0, 0), BuildingBlock: KIFKEQ_clean_linker_1, # of connection points: 2
#     Edge 45, Type (0, 0), BuildingBlock: KIFKEQ_clean_linker_1, # of connection points: 2
#     Edge 46, Type (0, 0), BuildingBlock: KIFKEQ_clean_linker_1, # of connection points: 2
#     Edge 47, Type (0, 0), BuildingBlock: KIFKEQ_clean_linker_1, # of connection points: 2
# Relax obj value: 0.042
# Max RMSD: 0.070
# Mean RMSD: 0.054
data_MOF--net-gsi--node1-TATPOV_clean_sbu_0--edge1-KIFKEQ_clean_linker_1
_symmetry_space_group_name_H-M    P1
_symmetry_Int_Tables_number       1
_symmetry_cell_setting            triclinic
loop_
_symmetry_equiv_pos_as_xyz
'x, y, z'
_cell_length_a     42.435606
_cell_length_b     43.367236
_cell_length_c     43.293647
_cell_angle_alpha  90.773463
_cell_angle_beta   90.026016
_cell_angle_gamma 93.462513
loop_
_atom_site_label
_atom_site_type_symbol
_atom_site_fract_x
_atom_site_fract_y
_atom_site_fract_z
_atom_type_partial_charge
Zn0 Zn 0.10425 0.14859 0.2092 0.0
Zn1 Zn 0.14448 0.13832 0.16265 0.0
O2 O 0.13572 0.09517 0.18187 0.0
O3 O 0.10362 0.10402 0.22054 0.0
O4 O 0.17311 0.13101 0.12612 0.0
O5 O 0.07235 0.1627 0.17927 0.0
O6 O 0.10736 0.15919 0.14205 0.0
C7 C 0.11945 0.08549 0.20499 0.0
C8 C 0.16481 0.18179 0.2163 0.0
O9 O 0.17093 0.16731 0.19143 0.0
O10 O 0.13752 0.17878 0.22816 0.0
C11 C 0.20311 0.13477 0.1263 0.0
O12 O 0.21776 0.14304 0.1521 0.0
C13 C 0.08025 0.16642 0.15134 0.0
Zn14 Zn 0.9179 0.34433 0.20752 0.0
Zn15 Zn 0.87967 0.3535 0.15855 0.0
O16 O 0.89051 0.39779 0.1756 0.0
O17 O 0.92268 0.3901 0.21442 0.0
O18 O 0.84995 0.35772 0.12253 0.0
O19 O 0.9479 0.32445 0.17863 0.0
O20 O 0.9159 0.33007 0.13922 0.0
C21 C 0.90803 0.40831 0.19781 0.0
C22 C 0.85551 0.3158 0.21439 0.0
O23 O 0.85202 0.32751 0.1879 0.0
O24 O 0.8818 0.31937 0.22826 0.0
C25 C 0.82835 0.37679 0.1216 0.0
O26 O 0.82555 0.39654 0.14457 0.0
C27 C 0.94143 0.32071 0.15024 0.0
Zn28 Zn 0.22922 0.8751 0.35926 0.0
Zn29 Zn 0.17162 0.85272 0.37312 0.0
O30 O 0.19251 0.8619 0.41636 0.0
O31 O 0.23812 0.8852 0.40353 0.0
O32 O 0.12716 0.835 0.38177 0.0
O33 O 0.21198 0.90647 0.33161 0.0
O34 O 0.16397 0.89015 0.34533 0.0
C35 C 0.21881 0.87581 0.42409 0.0
C36 C 0.21803 0.81336 0.33788 0.0
O37 O 0.19054 0.81754 0.34834 0.0
O38 O 0.23996 0.83424 0.34113 0.0
C39 C 0.12217 0.80789 0.39231 0.0
O40 O 0.14645 0.79193 0.39939 0.0
C41 C 0.18241 0.9084 0.32983 0.0
Zn42 Zn 0.80747 0.61369 0.34987 0.0
Zn43 Zn 0.85944 0.6489 0.36312 0.0
O44 O 0.84038 0.63823 0.40635 0.0
O45 O 0.799 0.60706 0.39492 0.0
O46 O 0.901 0.67291 0.37233 0.0
O47 O 0.83086 0.58416 0.32457 0.0
O48 O 0.87425 0.61287 0.33546 0.0
C49 C 0.81653 0.62106 0.41491 0.0
C50 C 0.80665 0.67498 0.32543 0.0
O51 O 0.83356 0.67909 0.33846 0.0
O52 O 0.79087 0.64939 0.32751 0.0
C53 C 0.90368 0.70104 0.38122 0.0
O54 O 0.87807 0.71607 0.38567 0.0
C55 C 0.86027 0.58967 0.32176 0.0
Zn56 Zn 0.43475 0.84046 0.7028 0.0
Zn57 Zn 0.39625 0.85436 0.65501 0.0
O58 O 0.40691 0.89628 0.67679 0.0
O59 O 0.43747 0.88524 0.71579 0.0
O60 O 0.367 0.864 0.61994 0.0
O61 O 0.46501 0.82512 0.67124 0.0
O62 O 0.43226 0.83305 0.63294 0.0
C63 C 0.42305 0.90481 0.70063 0.0
C64 C 0.37301 0.80977 0.70608 0.0
O65 O 0.36903 0.82504 0.68162 0.0
O66 O 0.3995 0.81154 0.71971 0.0
C67 C 0.33723 0.865 0.62307 0.0
O68 O 0.32459 0.86078 0.65049 0.0
C69 C 0.45817 0.82356 0.64279 0.0
Zn70 Zn 0.90611 0.83658 0.83901 0.0
Zn71 Zn 0.86743 0.84475 0.88568 0.0
O72 O 0.90779 0.8276 0.90601 0.0
O73 O 0.94064 0.8258 0.86667 0.0
O74 O 0.83672 0.84992 0.9216 0.0
O75 O 0.90405 0.87975 0.82513 0.0
O76 O 0.87089 0.88756 0.8632 0.0
C77 C 0.93489 0.8222 0.89504 0.0
C78 C 0.84994 0.79749 0.8341 0.0
O79 O 0.8432 0.812 0.85879 0.0
O80 O 0.87629 0.80312 0.82102 0.0
C81 C 0.83049 0.82671 0.93876 0.0
O82 O 0.84495 0.80125 0.93327 0.0
C83 C 0.88628 0.89738 0.83949 0.0
Zn84 Zn 0.11791 0.66799 0.78917 0.0
Zn85 Zn 0.14809 0.64839 0.83905 0.0
O86 O 0.11385 0.6745 0.85889 0.0
O87 O 0.09113 0.69257 0.81766 0.0
O88 O 0.17178 0.63293 0.87578 0.0
O89 O 0.10599 0.62433 0.77565 0.0
O90 O 0.13278 0.60841 0.81537 0.0
C91 C 0.09374 0.69137 0.84676 0.0
C92 C 0.18337 0.6874 0.78966 0.0
O93 O 0.18271 0.67407 0.81573 0.0
O94 O 0.15863 0.68754 0.77335 0.0
C95 C 0.1894 0.6518 0.89179 0.0
O96 O 0.19142 0.68111 0.88426 0.0
C97 C 0.1167 0.60252 0.79083 0.0
Zn98 Zn 0.76424 0.07793 0.65861 0.0
Zn99 Zn 0.81977 0.11032 0.6503 0.0
O100 O 0.83266 0.0735 0.67693 0.0
O101 O 0.78723 0.04668 0.68214 0.0
O102 O 0.85951 0.1381 0.64435 0.0
O103 O 0.75791 0.07462 0.61261 0.0
O104 O 0.80267 0.10204 0.60576 0.0
C105 C 0.81646 0.05044 0.68804 0.0
C106 C 0.76555 0.13733 0.68748 0.0
O107 O 0.79319 0.13895 0.67593 0.0
O108 O 0.74744 0.11338 0.68313 0.0
C109 C 0.88679 0.1311 0.63545 0.0
O110 O 0.89183 0.10216 0.62885 0.0
C111 C 0.77791 0.08776 0.59467 0.0
Zn112 Zn 0.10219 0.31939 0.7222 0.0
Zn113 Zn 0.12728 0.33015 0.66812 0.0
O114 O 0.0873 0.30057 0.65746 0.0
O115 O 0.06792 0.29172 0.70393 0.0
O116 O 0.15034 0.33827 0.62725 0.0
O117 O 0.09474 0.36328 0.72986 0.0
O118 O 0.11812 0.37426 0.68564 0.0
C119 C 0.06634 0.28753 0.675 0.0
C120 C 0.1645 0.30113 0.72073 0.0
O121 O 0.16205 0.30952 0.69276 0.0
O122 O 0.14154 0.30319 0.73907 0.0
C123 C 0.1579 0.31542 0.61062 0.0
O124 O 0.14856 0.2874 0.61924 0.0
C125 C 0.10485 0.38307 0.71053 0.0
Zn126 Zn 0.60329 0.17019 0.30044 0.0
Zn127 Zn 0.63673 0.14882 0.34732 0.0
O128 O 0.59862 0.16864 0.36842 0.0
O129 O 0.56898 0.18176 0.32953 0.0
O130 O 0.66017 0.1328 0.38401 0.0
O131 O 0.60091 0.12826 0.28009 0.0
O132 O 0.62778 0.11034 0.31883 0.0
C133 C 0.57352 0.17976 0.35829 0.0
C134 C 0.66614 0.19924 0.3059 0.0
O135 O 0.66841 0.18024 0.32785 0.0
O136 O 0.6404 0.20034 0.29121 0.0
C137 C 0.68991 0.13052 0.38516 0.0
O138 O 0.70717 0.13802 0.3609 0.0
C139 C 0.61371 0.10611 0.29289 0.0
Zn140 Zn 0.61931 0.64216 0.71015 0.0
Zn141 Zn 0.65804 0.63201 0.66281 0.0
O142 O 0.64377 0.58855 0.67889 0.0
O143 O 0.60746 0.59698 0.71378 0.0
O144 O 0.68598 0.62394 0.62585 0.0
O145 O 0.59529 0.67012 0.68376 0.0
O146 O 0.6248 0.65904 0.6437 0.0
C147 C 0.62349 0.57832 0.69863 0.0
C148 C 0.683 0.66506 0.72173 0.0
O149 O 0.6869 0.65636 0.69382 0.0
O150 O 0.6564 0.66047 0.73466 0.0
C151 C 0.71589 0.62867 0.62506 0.0
O152 O 0.73104 0.63841 0.65013 0.0
C153 C 0.60213 0.6731 0.65549 0.0
Zn154 Zn 0.72394 0.36947 0.85764 0.0
Zn155 Zn 0.66581 0.34637 0.86948 0.0
O156 O 0.68536 0.35588 0.91319 0.0
O157 O 0.73116 0.37997 0.90228 0.0
O158 O 0.62155 0.32779 0.87744 0.0
O159 O 0.70662 0.4003 0.82926 0.0
O160 O 0.65825 0.38349 0.84123 0.0
C161 C 0.71108 0.3702 0.92198 0.0
C162 C 0.71375 0.30763 0.83564 0.0
O163 O 0.6859 0.31165 0.84522 0.0
O164 O 0.73552 0.32855 0.83982 0.0
C165 C 0.61719 0.3009 0.88867 0.0
O166 O 0.64188 0.28588 0.89658 0.0
C167 C 0.6771 0.40184 0.82629 0.0
Zn168 Zn 0.30176 0.10771 0.85499 0.0
Zn169 Zn 0.35488 0.13954 0.86676 0.0
O170 O 0.33467 0.13278 0.91052 0.0
O171 O 0.29052 0.10553 0.89958 0.0
O172 O 0.39727 0.16238 0.87506 0.0
O173 O 0.32278 0.07357 0.83452 0.0
O174 O 0.36771 0.10073 0.84163 0.0
C175 C 0.30901 0.11861 0.91931 0.0
C176 C 0.30532 0.16614 0.82518 0.0
O177 O 0.33158 0.16969 0.8395 0.0
O178 O 0.28806 0.14154 0.82808 0.0
C179 C 0.40003 0.19072 0.88319 0.0
O180 O 0.37441 0.20583 0.8874 0.0
C181 C 0.35226 0.07692 0.8305 0.0
Zn182 Zn 0.39579 0.3426 0.33899 0.0
Zn183 Zn 0.35676 0.34912 0.38571 0.0
O184 O 0.39554 0.32793 0.40453 0.0
O185 O 0.4286 0.32576 0.36543 0.0
O186 O 0.32663 0.35366 0.42224 0.0
O187 O 0.39839 0.38714 0.32948 0.0
O188 O 0.36267 0.39314 0.36564 0.0
C189 C 0.42209 0.32081 0.39345 0.0
C190 C 0.33638 0.30825 0.33032 0.0
O191 O 0.33079 0.31959 0.35692 0.0
O192 O 0.36272 0.31445 0.31737 0.0
C193 C 0.31953 0.32957 0.43793 0.0
O194 O 0.33263 0.30382 0.43042 0.0
C195 C 0.3801 0.40425 0.34381 0.0
Zn196 Zn 0.2669 0.58455 0.15923 0.0
Zn197 Zn 0.32269 0.61684 0.15189 0.0
O198 O 0.33495 0.57976 0.17851 0.0
O199 O 0.28954 0.55258 0.18211 0.0
O200 O 0.36267 0.64447 0.14623 0.0
O201 O 0.26036 0.5826 0.11325 0.0
O202 O 0.30561 0.60941 0.10723 0.0
C203 C 0.31857 0.55642 0.18883 0.0
C204 C 0.26844 0.64353 0.18908 0.0
O205 O 0.29609 0.64531 0.17757 0.0
O206 O 0.25036 0.61961 0.1845 0.0
C207 C 0.39006 0.63735 0.13779 0.0
O208 O 0.39516 0.60831 0.1317 0.0
C209 C 0.28062 0.59592 0.09571 0.0
Zn210 Zn 0.60355 0.83255 0.21706 0.0
Zn211 Zn 0.63129 0.83686 0.16276 0.0
O212 O 0.59064 0.80774 0.1533 0.0
O213 O 0.56997 0.80328 0.19984 0.0
O214 O 0.65572 0.84141 0.12221 0.0
O215 O 0.59598 0.87721 0.21893 0.0
O216 O 0.62425 0.88252 0.1764 0.0
C217 C 0.56905 0.79657 0.17132 0.0
C218 C 0.66554 0.81185 0.21909 0.0
O219 O 0.66391 0.81691 0.19021 0.0
O220 O 0.64264 0.81751 0.23654 0.0
C221 C 0.66455 0.81768 0.10774 0.0
O222 O 0.65575 0.79019 0.11818 0.0
C223 C 0.60909 0.89432 0.1987 0.0
H224 H 0.15811 0.22442 0.2625 0.0
H225 H 0.22835 0.18247 0.20622 0.0
H226 H 0.19964 0.25492 0.2898 0.0
H227 H 0.26995 0.21195 0.23432 0.0
H228 H 0.33506 0.29177 0.26933 0.0
H229 H 0.29349 0.26218 0.24144 0.0
H230 H 0.24069 0.25048 0.32632 0.0
H231 H 0.28182 0.28129 0.35399 0.0
C232 C 0.18245 0.22163 0.25604 0.0
C233 C 0.18994 0.20109 0.23215 0.0
C234 C 0.2063 0.23893 0.27187 0.0
C235 C 0.23822 0.23582 0.26441 0.0
C236 C 0.24564 0.21533 0.24039 0.0
C237 C 0.22177 0.19831 0.22432 0.0
C238 C 0.31463 0.28279 0.28208 0.0
C239 C 0.31172 0.2889 0.31387 0.0
C240 C 0.29082 0.26567 0.26609 0.0
C241 C 0.26366 0.2539 0.28157 0.0
C242 C 0.26098 0.25965 0.31351 0.0
C243 C 0.28467 0.27711 0.32945 0.0
H244 H 0.85029 0.29654 0.27431 0.0
H245 H 0.79942 0.29648 0.18779 0.0
H246 H 0.80453 0.27032 0.29881 0.0
H247 H 0.75429 0.26947 0.21189 0.0
H248 H 0.72803 0.19327 0.32121 0.0
H249 H 0.77427 0.22176 0.30018 0.0
H250 H 0.71339 0.27816 0.2479 0.0
H251 H 0.66734 0.24899 0.26802 0.0
C252 C 0.82946 0.29069 0.26046 0.0
C253 C 0.82845 0.2987 0.22913 0.0
C254 C 0.80327 0.27558 0.27448 0.0
C255 C 0.77561 0.26799 0.2574 0.0
C256 C 0.7749 0.27559 0.22595 0.0
C257 C 0.80092 0.29087 0.21203 0.0
C258 C 0.72455 0.21195 0.30545 0.0
C259 C 0.69405 0.21868 0.29604 0.0
C260 C 0.75106 0.22836 0.29346 0.0
C261 C 0.74758 0.25201 0.27203 0.0
C262 C 0.71697 0.25958 0.26374 0.0
C263 C 0.69054 0.243 0.27546 0.0
H264 H 0.21807 0.64188 0.22852 0.0
H265 H 0.2965 0.70133 0.1967 0.0
H266 H 0.20506 0.68111 0.26651 0.0
H267 H 0.28287 0.74088 0.23383 0.0
H268 H 0.27494 0.79116 0.3239 0.0
H269 H 0.28555 0.74924 0.28832 0.0
H270 H 0.18533 0.73156 0.2732 0.0
H271 H 0.17469 0.77294 0.30982 0.0
C272 C 0.23223 0.66352 0.22931 0.0
C273 C 0.25845 0.66845 0.20977 0.0
C274 C 0.22473 0.68601 0.25105 0.0
C275 C 0.24318 0.71396 0.25351 0.0
C276 C 0.26867 0.71928 0.23312 0.0
C277 C 0.27632 0.69672 0.21163 0.0
C278 C 0.25515 0.77808 0.31326 0.0
C279 C 0.224 0.78547 0.31945 0.0
C280 C 0.26123 0.75424 0.29264 0.0
C281 C 0.23631 0.73746 0.27741 0.0
C282 C 0.20506 0.74397 0.28461 0.0
C283 C 0.19895 0.76768 0.30557 0.0
H284 H 0.77043 0.66644 0.27453 0.0
H285 H 0.81336 0.73792 0.334 0.0
H286 H 0.74354 0.70497 0.246 0.0
H287 H 0.78568 0.77689 0.30543 0.0
H288 H 0.68324 0.81183 0.27955 0.0
H289 H 0.72509 0.78358 0.30255 0.0
H290 H 0.7528 0.75263 0.21191 0.0
H291 H 0.71094 0.78112 0.18868 0.0
C292 C 0.77436 0.69053 0.28126 0.0
C293 C 0.79364 0.69926 0.30665 0.0
C294 C 0.75923 0.7126 0.26471 0.0
C295 C 0.76261 0.74387 0.27349 0.0
C296 C 0.78278 0.75287 0.29824 0.0
C297 C 0.79856 0.73069 0.3145 0.0
C298 C 0.69859 0.79943 0.26446 0.0
C299 C 0.6935 0.79823 0.23236 0.0
C300 C 0.72276 0.78357 0.27763 0.0
C301 C 0.74205 0.7659 0.25899 0.0
C302 C 0.73812 0.76606 0.22675 0.0
C303 C 0.71419 0.7823 0.2135 0.0
H304 H 0.31111 0.81036 0.68993 0.0
H305 H 0.37434 0.76614 0.75127 0.0
H306 H 0.2667 0.77994 0.7111 0.0
H307 H 0.32972 0.73454 0.77177 0.0
H308 H 0.23595 0.70793 0.82257 0.0
H309 H 0.28287 0.73676 0.80285 0.0
H310 H 0.24438 0.72885 0.71039 0.0
H311 H 0.19733 0.70144 0.7302 0.0
C312 C 0.31559 0.79387 0.70774 0.0
C313 C 0.34628 0.79059 0.71883 0.0
C314 C 0.29009 0.77624 0.71978 0.0
C315 C 0.29463 0.75452 0.74294 0.0
C316 C 0.32535 0.75126 0.75416 0.0
C317 C 0.35092 0.76922 0.74229 0.0
C318 C 0.23769 0.71233 0.79804 0.0
C319 C 0.21284 0.70283 0.77798 0.0
C320 C 0.2646 0.72869 0.78671 0.0
C321 C 0.26722 0.73549 0.75507 0.0
C322 C 0.24281 0.72481 0.73498 0.0
C323 C 0.21587 0.70892 0.74633 0.0
H324 H 0.68717 0.67476 0.78393 0.0
H325 H 0.73775 0.69215 0.69871 0.0
H326 H 0.72875 0.70372 0.81251 0.0
H327 H 0.77881 0.72225 0.72713 0.0
H328 H 0.78701 0.78955 0.84693 0.0
H329 H 0.74778 0.75566 0.8203 0.0
H330 H 0.82104 0.72013 0.76287 0.0
H331 H 0.86005 0.75496 0.78871 0.0
C332 C 0.70717 0.68485 0.77128 0.0
C333 C 0.70913 0.68131 0.73904 0.0
C334 C 0.73093 0.70162 0.78766 0.0
C335 C 0.75703 0.71557 0.77214 0.0
C336 C 0.75927 0.71149 0.73992 0.0
C337 C 0.73565 0.69437 0.72356 0.0
C338 C 0.79476 0.77434 0.82877 0.0
C339 C 0.82657 0.77507 0.81979 0.0
C340 C 0.77229 0.75476 0.81358 0.0
C341 C 0.78121 0.7352 0.78932 0.0
C342 C 0.81324 0.7353 0.78102 0.0
C343 C 0.83564 0.75513 0.79598 0.0
H344 H 0.77117 0.28646 0.82132 0.0
H345 H 0.6711 0.26668 0.80744 0.0
H346 H 0.78236 0.24461 0.78582 0.0
H347 H 0.68229 0.22547 0.77094 0.0
H348 H 0.79373 0.19518 0.6948 0.0
H349 H 0.78006 0.23503 0.73163 0.0
H350 H 0.70225 0.17546 0.76465 0.0
H351 H 0.71526 0.13601 0.72696 0.0
C352 C 0.75155 0.27307 0.81075 0.0
C353 C 0.72027 0.27997 0.81703 0.0
C354 C 0.75796 0.24927 0.79016 0.0
C355 C 0.73324 0.23202 0.77507 0.0
C356 C 0.70189 0.23817 0.78226 0.0
C357 C 0.69547 0.26181 0.80316 0.0
C358 C 0.77354 0.19069 0.70973 0.0
C359 C 0.75563 0.16242 0.70801 0.0
C360 C 0.76586 0.21342 0.73107 0.0
C361 C 0.74032 0.20829 0.75144 0.0
C362 C 0.72193 0.18028 0.74918 0.0
C363 C 0.72942 0.15764 0.72759 0.0
H364 H 0.20881 0.27125 0.6877 0.0
H365 H 0.18586 0.30232 0.77974 0.0
H366 H 0.25238 0.24334 0.70887 0.0
H367 H 0.22926 0.2749 0.80066 0.0
H368 H 0.31516 0.22902 0.83128 0.0
H369 H 0.2891 0.26809 0.80147 0.0
H370 H 0.24521 0.19592 0.74344 0.0
H371 H 0.27062 0.15726 0.77322 0.0
C372 C 0.21356 0.27271 0.71228 0.0
C373 C 0.19368 0.28841 0.73218 0.0
C374 C 0.23843 0.25682 0.72435 0.0
C375 C 0.2441 0.25697 0.75638 0.0
C376 C 0.22567 0.27465 0.77587 0.0
C377 C 0.20058 0.29003 0.76392 0.0
C378 C 0.30049 0.22173 0.81171 0.0
C379 C 0.29441 0.19022 0.8048 0.0
C380 C 0.28564 0.24398 0.79471 0.0
C381 C 0.26517 0.23496 0.7702 0.0
C382 C 0.26112 0.20358 0.76196 0.0
C383 C 0.27538 0.18143 0.77924 0.0
H384 H 0.1204 0.91775 0.31611 0.0
H385 H 0.21617 0.95053 0.29521 0.0
H386 H 0.10071 0.95533 0.28026 0.0
H387 H 0.19664 0.98805 0.26025 0.0
H388 H 0.15902 0.0417 0.18486 0.0
H389 H 0.17056 -0.00569 0.21128 0.0
H390 H 0.09818 0.01105 0.27857 0.0
H391 H 0.08603 0.05768 0.25181 0.0
C392 C 0.13721 0.93294 0.30396 0.0
C393 C 0.16983 0.93123 0.30868 0.0
C394 C 0.12596 0.95441 0.2834 0.0
C395 C 0.14712 0.9745 0.26716 0.0
C396 C 0.17968 0.97249 0.27177 0.0
C397 C 0.19088 0.95116 0.2922 0.0
C398 C 0.14503 0.03483 0.2048 0.0
C399 C 0.12204 0.05378 0.21655 0.0
C400 C 0.15179 0.00781 0.22009 0.0
C401 C 0.13573 -0.00073 0.24741 0.0
C402 C 0.11097 0.01687 0.2576 0.0
C403 C 0.10416 0.04379 0.24231 0.0
H404 H 0.95385 0.44106 0.23043 0.0
H405 H 0.86294 0.44931 0.18752 0.0
H406 H 0.94962 0.49097 0.25606 0.0
H407 H 0.85798 0.49857 0.21405 0.0
H408 H 0.85458 0.58933 0.25999 0.0
H409 H 0.87321 0.55096 0.22363 0.0
H410 H 0.9195 0.50685 0.2988 0.0
H411 H 0.90192 0.54631 0.33461 0.0
C412 C 0.93318 0.45385 0.22607 0.0
C413 C 0.90853 0.44116 0.20728 0.0
C414 C 0.93064 0.48234 0.24096 0.0
C415 C 0.90321 0.49859 0.23771 0.0
C416 C 0.87961 0.48692 0.21699 0.0
C417 C 0.88236 0.45858 0.20175 0.0
C418 C 0.86961 0.5719 0.26836 0.0
C419 C 0.87709 0.57061 0.29984 0.0
C420 C 0.88 0.54976 0.24767 0.0
C421 C 0.89749 0.52548 0.25825 0.0
C422 C 0.90644 0.52538 0.28966 0.0
C423 C 0.89637 0.54787 0.31028 0.0
H424 H 0.32745 0.15922 0.96635 0.0
H425 H 0.26797 0.07703 0.94636 0.0
H426 H 0.30398 0.16211 0.01804 0.0
H427 H 0.24529 0.07945 0.9977 0.0
H428 H 0.17989 0.11812 0.06931 0.0
H429 H 0.20885 0.11318 0.02133 0.0
H430 H 0.29636 0.13763 0.06917 0.0
H431 H 0.26714 0.14319 0.11745 0.0
C432 C 0.30991 0.14145 0.97321 0.0
C433 C 0.29922 0.11819 0.95214 0.0
C434 C 0.29647 0.14307 1.00279 0.0
C435 C 0.27228 0.12135 1.01176 0.0
C436 C 0.2632 0.09705 0.99126 0.0
C437 C 0.27637 0.09557 0.96185 0.0
C438 C 0.20531 0.12236 0.06974 0.0
C439 C 0.22116 0.13095 0.0973 0.0
C440 C 0.22198 0.11934 0.0422 0.0
C441 C 0.255 0.12475 0.04142 0.0
C442 C 0.27093 0.13347 0.06895 0.0
C443 C 0.25419 0.13646 0.09663 0.0
H444 H 0.78959 0.42171 0.10414 0.0
H445 H 0.81677 0.33021 0.07934 0.0
H446 H 0.7546 0.42112 0.0591 0.0
H447 H 0.78154 0.32956 0.03471 0.0
H448 H 0.69806 0.32945 0.96869 0.0
H449 H 0.72196 0.33123 0.02044 0.0
H450 H 0.76755 0.42049 1.00079 0.0
H451 H 0.74429 0.41844 0.94922 0.0
C452 C 0.78788 0.40139 0.08928 0.0
C453 C 0.80618 0.37613 0.09513 0.0
C454 C 0.76784 0.40106 0.06356 0.0
C455 C 0.76524 0.37522 0.04355 0.0
C456 C 0.78276 0.34961 0.04997 0.0
C457 C 0.80319 0.35014 0.07534 0.0
C458 C 0.71251 0.34975 0.97582 0.0
C459 C 0.71945 0.37376 0.955 0.0
C460 C 0.72635 0.35067 1.00526 0.0
C461 C 0.74673 0.37593 0.01451 0.0
C462 C 0.75181 0.40084 0.99439 0.0
C463 C 0.73857 0.39962 0.96485 0.0
H464 H 0.27251 0.86101 0.61996 0.0
H465 H 0.35605 0.87867 0.56434 0.0
H466 H 0.23942 0.86676 0.57431 0.0
H467 H 0.32315 0.88405 0.51901 0.0
H468 H 0.26043 0.9194 0.44821 0.0
H469 H 0.28594 0.91948 0.49847 0.0
H470 H 0.22699 0.83919 0.52397 0.0
H471 H 0.20085 0.83945 0.47341 0.0
C472 C 0.28382 0.86626 0.59807 0.0
C473 C 0.31695 0.86947 0.59581 0.0
C474 C 0.26484 0.86938 0.57193 0.0
C475 C 0.27862 0.87607 0.5431 0.0
C476 C 0.31173 0.87944 0.54098 0.0
C477 C 0.33064 0.87616 0.56696 0.0
C478 C 0.25245 0.90207 0.46473 0.0
C479 C 0.22893 0.87915 0.45673 0.0
C480 C 0.26723 0.90202 0.49346 0.0
C481 C 0.25903 0.87892 0.51491 0.0
C482 C 0.23385 0.85729 0.50789 0.0
C483 C 0.21884 0.85745 0.47899 0.0
H484 H 0.69148 0.6105 0.56887 0.0
H485 H 0.77939 0.63879 0.61437 0.0
H486 H 0.71908 0.60691 0.51994 0.0
H487 H 0.80725 0.63453 0.56524 0.0
H488 H 0.83443 0.6602 0.46315 0.0
H489 H 0.81226 0.66018 0.51535 0.0
H490 H 0.75597 0.57646 0.49314 0.0
H491 H 0.77737 0.57694 0.44112 0.0
C492 C 0.71678 0.61565 0.56852 0.0
C493 C 0.73318 0.62493 0.59559 0.0
C494 C 0.73269 0.61341 0.54043 0.0
C495 C 0.76547 0.62028 0.53862 0.0
C496 C 0.78197 0.62932 0.56575 0.0
C497 C 0.76601 0.63158 0.59394 0.0
C498 C 0.8177 0.64156 0.46964 0.0
C499 C 0.80735 0.61882 0.44787 0.0
C500 C 0.80501 0.6415 0.49956 0.0
C501 C 0.78189 0.6186 0.50828 0.0
C502 C 0.77308 0.5949 0.48699 0.0
C503 C 0.78553 0.59508 0.45718 0.0
H504 H 0.0052 0.32461 0.15058 0.0
H505 H 0.92478 0.2749 0.10853 0.0
H506 H 0.03926 0.28503 0.13256 0.0
H507 H 0.95893 0.23456 0.09085 0.0
H508 H 0.0164 0.16103 0.14959 0.0
H509 H 0.98224 0.19994 0.13126 0.0
H510 H 0.06281 0.25043 0.09149 0.0
H511 H 0.09708 0.21089 0.10953 0.0
C512 C 0.99509 0.30575 0.13639 0.0
C513 C 0.96243 0.30248 0.13124 0.0
C514 C 0.01462 0.28315 0.12583 0.0
C515 C 1.00169 0.25652 0.11054 0.0
C516 C 0.96946 0.25485 0.10262 0.0
C517 C 0.94996 0.2779 0.11268 0.0
C518 C 0.02657 0.17969 0.13568 0.0
C519 C 0.05933 0.18331 0.13137 0.0
C520 C 0.00698 0.20191 0.12496 0.0
C521 C 0.01995 0.22846 0.11031 0.0
C522 C 0.05227 0.23023 0.10285 0.0
C523 C 0.07184 0.20759 0.1131 0.0
H524 H 0.96121 0.67716 0.37194 0.0
H525 H 0.9182 0.76097 0.39966 0.0
H526 H 0.01326 0.7036 0.37665 0.0
H527 H 0.97043 0.7873 0.40503 0.0
H528 H 0.06692 0.83214 0.37433 0.0
H529 H 0.01411 0.80662 0.37345 0.0
H530 H 0.05071 0.7255 0.41379 0.0
H531 H 0.10358 0.75072 0.41403 0.0
C532 C 0.96284 0.70117 0.3793 0.0
C533 C 0.93545 0.71692 0.38535 0.0
C534 C 0.99276 0.71632 0.3822 0.0
C535 C 0.99614 0.74762 0.39127 0.0
C536 C 0.96874 0.7633 0.39763 0.0
C537 C 0.93877 0.74813 0.39472 0.0
C538 C 0.06368 0.80894 0.38323 0.0
C539 C 0.08958 0.79344 0.39409 0.0
C540 C 0.03332 0.79434 0.38286 0.0
C541 C 0.0281 0.76389 0.39337 0.0
C542 C 0.05391 0.74874 0.405 0.0
C543 C 0.08424 0.76331 0.40533 0.0
H544 H 0.56418 0.66696 0.604 0.0
H545 H 0.60599 0.73316 0.66944 0.0
H546 H 0.5316 0.70705 0.58328 0.0
H547 H 0.57409 0.77271 0.64948 0.0
H548 H 0.51726 0.84162 0.62429 0.0
H549 H 0.55781 0.80631 0.6105 0.0
H550 H 0.48666 0.73069 0.60666 0.0
H551 H 0.44618 0.76652 0.61849 0.0
C552 C 0.567 0.69031 0.61322 0.0
C553 C 0.58719 0.69721 0.63834 0.0
C554 C 0.5484 0.71318 0.60151 0.0
C555 C 0.55016 0.74317 0.61465 0.0
C556 C 0.57235 0.75021 0.63825 0.0
C557 C 0.59047 0.72745 0.65002 0.0
C558 C 0.51022 0.81777 0.61864 0.0
C559 C 0.47886 0.80657 0.62255 0.0
C560 C 0.5334 0.79745 0.61106 0.0
C561 C 0.52565 0.76548 0.60864 0.0
C562 C 0.49357 0.75509 0.60841 0.0
C563 C 0.47029 0.77561 0.61524 0.0
H564 H 0.78802 -0.00114 0.71335 0.0
H565 H 0.87542 0.05551 0.7152 0.0
H566 H 0.80704 0.96793 0.75481 0.0
H567 H 0.89453 0.0242 0.75726 0.0
H568 H 0.92499 0.93057 0.80056 0.0
H569 H 0.91013 0.97094 0.76588 0.0
H570 H 0.81916 0.97208 0.81042 0.0
H571 H 0.83391 0.93113 0.84496 0.0
C572 C 0.81141 0.00471 0.72251 0.0
C573 C 0.83018 0.02976 0.71084 0.0
C574 C 0.82214 0.98715 0.74665 0.0
C575 C 0.85202 -0.00602 0.75983 0.0
C576 C 0.8713 0.01846 0.74768 0.0
C577 C 0.86045 0.03626 0.72347 0.0
C578 C 0.90209 0.94 0.80352 0.0
C579 C 0.88042 0.92735 0.82522 0.0
C580 C 0.89364 0.96323 0.78365 0.0
C581 C 0.86324 0.97425 0.78494 0.0
C582 C 0.84256 0.96355 0.80846 0.0
C583 C 0.85111 0.94037 0.82851 0.0
H584 H 0.09695 0.58401 0.73306 0.0
H585 H 0.12787 0.54873 0.82021 0.0
H586 H 0.09295 0.5316 0.71147 0.0
H587 H 0.12359 0.49632 0.79853 0.0
H588 H 0.07644 0.40668 0.76105 0.0
H589 H 0.07834 0.4598 0.77931 0.0
H590 H 0.13098 0.48837 0.69828 0.0
H591 H 0.12945 0.4345 0.6797 0.0
C592 C 0.10265 0.56507 0.74771 0.0
C593 C 0.11256 0.57052 0.77847 0.0
C594 C 0.10062 0.53513 0.73519 0.0
C595 C 0.10799 0.50998 0.7533 0.0
C596 C 0.11756 0.51534 0.78412 0.0
C597 C 0.12003 0.54531 0.79653 0.0
C598 C 0.08832 0.42415 0.74684 0.0
C599 C 0.1031 0.41619 0.71896 0.0
C600 C 0.08949 0.45462 0.75749 0.0
C601 C 0.10518 0.47808 0.74047 0.0
C602 C 0.11874 0.47061 0.71186 0.0
C603 C 0.11785 0.43984 0.70123 0.0
H604 H 0.68242 0.77203 0.06865 0.0
H605 H 0.69711 0.87003 0.08658 0.0
H606 H 0.72135 0.77562 0.0275 0.0
H607 H 0.73699 0.87353 0.04583 0.0
H608 H 0.78904 0.87173 0.95179 0.0
H609 H 0.74764 0.87064 0.9912 0.0
H610 H 0.77677 0.78236 0.02199 0.0
H611 H 0.81719 0.78307 0.98234 0.0
C612 C 0.69396 0.7944 0.06382 0.0
C613 C 0.68668 0.8207 0.08111 0.0
C614 C 0.71655 0.79644 0.0403 0.0
C615 C 0.73282 0.8248 0.03349 0.0
C616 C 0.72489 0.85132 0.0502 0.0
C617 C 0.70206 0.84931 0.07368 0.0
C618 C 0.78661 0.85215 0.96706 0.0
C619 C 0.80638 0.82741 0.96372 0.0
C620 C 0.76292 0.85156 0.98976 0.0
C621 C 0.75849 0.82624 1.0097 0.0
C622 C 0.77882 0.80191 1.00667 0.0
C623 C 0.80228 0.80243 0.98399 0.0
H624 H 0.22537 0.68701 0.93285 0.0
H625 H 0.19321 0.59256 0.91216 0.0
H626 H 0.25163 0.67023 0.9791 0.0
H627 H 0.22028 0.57561 0.95808 0.0
H628 H 0.23117 0.56747 0.06411 0.0
H629 H 0.21279 0.57889 1.01272 0.0
H630 H 0.29408 0.64234 0.99999 0.0
H631 H 0.31216 0.63147 0.05211 0.0
C632 C 0.2242 0.66259 0.93796 0.0
C633 C 0.20689 0.64118 0.91894 0.0
C634 C 0.23955 0.65291 0.96439 0.0
C635 C 0.2381 0.62154 0.97242 0.0
C636 C 0.22155 0.6 0.95286 0.0
C637 C 0.20608 0.60971 0.92647 0.0
C638 C 0.24546 0.58352 0.05025 0.0
C639 C 0.27299 0.59881 0.06244 0.0
C640 C 0.23497 0.58995 0.02059 0.0
C641 C 0.25174 0.6118 1.00224 0.0
C642 C 0.28027 0.6258 0.01372 0.0
C643 C 0.2908 0.61935 0.0435 0.0
H644 H 0.66091 0.11256 0.43882 0.0
H645 H 0.75309 0.12704 0.39727 0.0
H646 H 0.68537 0.09925 0.4872 0.0
H647 H 0.77767 0.11313 0.44582 0.0
H648 H 0.80484 0.12633 0.55089 0.0
H649 H 0.78555 0.13403 0.49849 0.0
H650 H 0.71456 0.05953 0.51064 0.0
H651 H 0.7333 0.05231 0.56296 0.0
C652 C 0.68641 0.11262 0.43989 0.0
C653 C 0.705 0.12091 0.41412 0.0
C654 C 0.70048 0.10476 0.46764 0.0
C655 C 0.73353 0.10495 0.4704 0.0
C656 C 0.75217 0.11297 0.44455 0.0
C657 C 0.73806 0.12078 0.41668 0.0
C658 C 0.78551 0.11124 0.54214 0.0
C659 C 0.77035 0.08899 0.56127 0.0
C660 C 0.77446 0.11562 0.51208 0.0
C661 C 0.74812 0.09775 0.50056 0.0
C662 C 0.73437 0.07421 0.51905 0.0
C663 C 0.74528 0.06994 0.54902 0.0
H664 H 0.17216 0.27228 0.56726 0.0
H665 H 0.19222 0.36809 0.59261 0.0
H666 H 0.21003 0.27736 0.52531 0.0
H667 H 0.23107 0.37302 0.55093 0.0
H668 H 0.28083 0.37569 0.45531 0.0
H669 H 0.2404 0.37376 0.49573 0.0
H670 H 0.26554 0.28188 0.51917 0.0
H671 H 0.30496 0.28351 0.47858 0.0
C672 C 0.18465 0.2945 0.56388 0.0
C673 C 0.17922 0.31971 0.5835 0.0
C674 C 0.20664 0.29737 0.53988 0.0
C675 C 0.22415 0.32548 0.53489 0.0
C676 C 0.21799 0.35104 0.5539 0.0
C677 C 0.19575 0.3482 0.57789 0.0
C678 C 0.27772 0.35514 0.46918 0.0
C679 C 0.29605 0.32968 0.46349 0.0
C680 C 0.25459 0.35405 0.49245 0.0
C681 C 0.2493 0.3275 0.5106 0.0
C682 C 0.26825 0.30243 0.50526 0.0
C683 C 0.29114 0.30347 0.48203 0.0
H684 H 0.06738 0.68038 0.90421 0.0
H685 H 0.07725 0.7483 0.83234 0.0
H686 H 0.03177 0.71373 0.93255 0.0
H687 H 0.04292 0.78136 0.86044 0.0
H688 H 0.9938 0.84483 0.90938 0.0
H689 H 0.03878 0.81246 0.91035 0.0
H690 H 0.97527 0.7313 0.91697 0.0
H691 H 0.93031 0.76394 0.91685 0.0
C692 C 0.06242 0.7026 0.89483 0.0
C693 C 0.07474 0.71169 0.86597 0.0
C694 C 0.04217 0.72163 0.911 0.0
C695 C 0.03493 0.75034 0.89895 0.0
C696 C 0.0485 0.75972 0.87073 0.0
C697 C 0.06789 0.74058 0.85439 0.0
C698 C 0.98958 0.82029 0.91327 0.0
C699 C 0.95869 0.80682 0.91289 0.0
C700 C 0.01531 0.80169 0.91346 0.0
C701 C 0.01044 0.76933 0.91277 0.0
C702 C 0.97974 0.75616 0.91743 0.0
C703 C 0.95395 0.77489 0.91758 0.0
H704 H 0.0087 0.27913 0.70071 0.0
H705 H 0.06313 0.2507 0.6222 0.0
H706 H 0.96568 0.24284 0.68574 0.0
H707 H 0.01925 0.21378 0.60686 0.0
H708 H 0.95004 0.1243 0.62527 0.0
H709 H 0.99319 0.16433 0.62885 0.0
H710 H 0.92557 0.23308 0.64578 0.0
H711 H 0.88271 0.19332 0.64277 0.0
C712 C 0.01132 0.2653 0.67994 0.0
C713 C 0.0394 0.26772 0.6627 0.0
C714 C 0.98648 0.24459 0.67122 0.0
C715 C 0.98893 0.22542 0.64505 0.0
C716 C 0.01673 0.22819 0.62723 0.0
C717 C 0.0417 0.24943 0.63582 0.0
C718 C 0.94438 0.14802 0.6294 0.0
C719 C 0.91292 0.15548 0.63427 0.0
C720 C 0.96911 0.17098 0.63122 0.0
C721 C 0.96284 0.20184 0.63793 0.0
C722 C 0.93125 0.20945 0.6411 0.0
C723 C 0.90665 0.18661 0.63936 0.0
H724 H 0.5099 0.17521 0.35311 0.0
H725 H 0.5855 0.21543 0.41002 0.0
H726 H 0.4727 0.20732 0.37907 0.0
H727 H 0.54816 0.24843 0.43579 0.0
H728 H 0.48502 0.33193 0.40065 0.0
H729 H 0.52243 0.29214 0.40734 0.0
H730 H 0.44548 0.22597 0.42804 0.0
H731 H 0.40802 0.26627 0.42188 0.0
C732 C 0.51831 0.19025 0.37193 0.0
C733 C 0.55052 0.19305 0.37944 0.0
C734 C 0.49697 0.20851 0.38701 0.0
C735 C 0.50752 0.23051 0.40944 0.0
C736 C 0.53939 0.23163 0.41864 0.0
C737 C 0.5607 0.21274 0.40397 0.0
C738 C 0.47632 0.30935 0.40845 0.0
C739 C 0.44373 0.30207 0.41068 0.0
C740 C 0.49774 0.28648 0.41226 0.0
C741 C 0.48683 0.25579 0.4177 0.0
C742 C 0.4545 0.24941 0.42368 0.0
C743 C 0.43308 0.27252 0.42043 0.0
H744 H 0.5849 0.55011 0.74162 0.0
H745 H 0.66112 0.53283 0.6787 0.0
H746 H 0.59422 0.50285 0.76868 0.0
H747 H 0.66973 0.48486 0.70528 0.0
H748 H 0.71186 0.44359 0.79217 0.0
H749 H 0.69358 0.48004 0.75547 0.0
H750 H 0.59705 0.44712 0.77229 0.0
H751 H 0.6155 0.41051 0.80991 0.0
C752 C 0.603 0.53572 0.73289 0.0
C753 C 0.62284 0.5457 0.70848 0.0
C754 C 0.60822 0.50846 0.74838 0.0
C755 C 0.63327 0.49051 0.73966 0.0
C756 C 0.65079 0.49869 0.71308 0.0
C757 C 0.64567 0.52606 0.69766 0.0
C758 C 0.6867 0.44392 0.78811 0.0
C759 C 0.66514 0.42419 0.8042 0.0
C760 C 0.67622 0.46463 0.76665 0.0
C761 C 0.64386 0.46624 0.76055 0.0
C762 C 0.62216 0.44644 0.77648 0.0
C763 C 0.6327 0.42555 0.79808 0.0
H764 H 0.32309 0.02941 0.79819 0.0
H765 H 0.41554 0.07339 0.8166 0.0
H766 H 0.34601 -0.00615 0.76249 0.0
H767 H 0.43874 0.03687 0.7804 0.0
H768 H 0.45622 0.93111 0.74944 0.0
H769 H 0.44368 0.97737 0.77845 0.0
H770 H 0.37328 -0.00367 0.71042 0.0
H771 H 0.38547 0.94995 0.68145 0.0
C772 C 0.34841 0.03151 0.79471 0.0
C773 C 0.36749 0.05433 0.81036 0.0
C774 C 0.36147 0.01127 0.77387 0.0
C775 C 0.39404 0.01301 0.7682 0.0
C776 C 0.41347 0.03529 0.78421 0.0
C777 C 0.40024 0.05603 0.80497 0.0
C778 C 0.43862 0.94556 0.7402 0.0
C779 C 0.42129 0.93645 0.71351 0.0
C780 C 0.43162 0.97216 0.75677 0.0
C781 C 0.40712 -0.00998 0.74696 0.0
C782 C 0.39195 0.9826 0.71871 0.0
C783 C 0.39902 0.95609 0.70208 0.0
H784 H 0.41429 0.25111 0.89989 0.0
H785 H 0.45768 0.16706 0.87367 0.0
H786 H 0.4663 0.27809 0.90357 0.0
H787 H 0.50958 0.19418 0.8767 0.0
H788 H 0.60004 0.24389 0.91164 0.0
H789 H 0.54761 0.21772 0.91254 0.0
H790 H 0.50891 0.29694 0.87048 0.0
H791 H 0.56127 0.32341 0.8702 0.0
C792 C 0.4349 0.23836 0.89492 0.0
C793 C 0.43175 0.20689 0.88646 0.0
C794 C 0.46475 0.2539 0.89685 0.0
C795 C 0.49221 0.23838 0.89037 0.0
C796 C 0.48903 0.2068 0.88227 0.0
C797 C 0.4592 0.19127 0.88035 0.0
C798 C 0.58033 0.25585 0.90277 0.0
C799 C 0.58493 0.28575 0.89077 0.0
C800 C 0.55026 0.24073 0.9031 0.0
C801 C 0.52399 0.25509 0.89141 0.0
C802 C 0.5285 0.28527 0.87999 0.0
C803 C 0.5586 0.30042 0.87969 0.0
H804 H 0.29056 0.5033 0.21131 0.0
H805 H 0.37539 0.56318 0.21992 0.0
H806 H 0.30738 0.47302 0.25426 0.0
H807 H 0.39229 0.53251 0.26345 0.0
H808 H 0.42193 0.43966 0.30991 0.0
H809 H 0.40912 0.47998 0.27423 0.0
H810 H 0.31432 0.47804 0.31068 0.0
H811 H 0.32704 0.43718 0.34613 0.0
C812 C 0.31296 0.50995 0.22225 0.0
C813 C 0.3316 0.53578 0.21209 0.0
C814 C 0.32238 0.49278 0.24724 0.0
C815 C 0.35079 0.50078 0.26282 0.0
C816 C 0.37014 0.5259 0.25205 0.0
C817 C 0.36058 0.54331 0.22698 0.0
C818 C 0.39862 0.44853 0.31101 0.0
C819 C 0.37533 0.43491 0.33053 0.0
C820 C 0.3913 0.47168 0.29052 0.0
C821 C 0.3605 0.48165 0.28906 0.0
C822 C 0.33811 0.47028 0.31079 0.0
C823 C 0.34549 0.44718 0.33143 0.0
H824 H 0.65281 0.05883 0.30139 0.0
H825 H 0.5734 0.08516 0.24728 0.0
H826 H 0.65247 0.00967 0.27268 0.0
H827 H 0.57294 0.03605 0.21906 0.0
H828 H 0.55964 0.92651 0.21676 0.0
H829 H 0.56143 0.97949 0.23678 0.0
H830 H 0.66065 -0.00971 0.21476 0.0
H831 H 0.65863 0.93716 0.19395 0.0
C832 C 0.63525 0.05408 0.28351 0.0
C833 C 0.61304 0.07578 0.27672 0.0
C834 C 0.6353 0.02616 0.26687 0.0
C835 C 0.61282 0.01927 0.24353 0.0
C836 C 0.59054 0.04086 0.2369 0.0
C837 C 0.59081 0.06891 0.25312 0.0
C838 C 0.58158 0.94055 0.21532 0.0
C839 C 0.60893 0.92796 0.20364 0.0
C840 C 0.58264 0.97078 0.22685 0.0
C841 C 0.61125 0.98879 0.22757 0.0
C842 C 0.63837 0.97671 0.21463 0.0
C843 C 0.63713 0.94657 0.2024 0.0
H844 H 0.56615 0.75669 0.12069 0.0
H845 H 0.51133 0.78918 0.19722 0.0
H846 H 0.5225 0.71882 0.10719 0.0
H847 H 0.4686 0.75187 0.18413 0.0
H848 H 0.38582 0.69971 0.14342 0.0
H849 H 0.42852 0.73968 0.14517 0.0
H850 H 0.49644 0.67067 0.13078 0.0
H851 H 0.45342 0.63044 0.12838 0.0
C852 C 0.54471 0.75607 0.13428 0.0
C853 C 0.54225 0.77585 0.16007 0.0
C854 C 0.51986 0.73428 0.12675 0.0
C855 C 0.492 0.73235 0.14455 0.0
C856 C 0.48941 0.75291 0.16962 0.0
C857 C 0.51412 0.77423 0.17727 0.0
C858 C 0.40979 0.69297 0.14035 0.0
C859 C 0.41617 0.66175 0.13623 0.0
C860 C 0.43432 0.71594 0.14137 0.0
C861 C 0.46596 0.70837 0.13849 0.0
C862 C 0.47233 0.67732 0.13289 0.0
C863 C 0.44767 0.65424 0.13176 0.0
loop_
_geom_bond_atom_site_label_1
_geom_bond_atom_site_label_2
_geom_bond_distance
_geom_bond_site_symmetry_2
_ccdc_geom_bond_type
Zn0 O3 2.031 . S
Zn0 O5 2.049 . S
Zn0 O10 2.067 . S
Zn1 O2 1.962 . S
Zn1 O4 1.986 . S
Zn1 O6 1.996 . S
Zn1 O9 1.943 . S
O2 Zn1 1.962 . S
O2 C7 1.254 . S
O3 Zn0 2.031 . S
O3 C7 1.269 . S
O4 Zn1 1.986 . S
O4 C11 1.262 . S
O5 Zn0 2.049 . S
O5 C13 1.260 . S
O6 Zn1 1.996 . S
O6 C13 1.257 . S
C7 O2 1.254 . S
C7 O3 1.269 . S
C8 O9 1.249 . S
C8 O10 1.270 . S
O9 Zn1 1.943 . S
O9 C8 1.249 . S
O10 Zn0 2.067 . S
O10 C8 1.270 . S
C11 O4 1.262 . S
C11 O12 1.232 . S
O12 C11 1.232 . S
C13 O5 1.260 . S
C13 O6 1.257 . S
Zn14 O17 2.031 . S
Zn14 O19 2.049 . S
Zn14 O24 2.067 . S
Zn15 O16 1.962 . S
Zn15 O18 1.986 . S
Zn15 O20 1.996 . S
Zn15 O23 1.943 . S
O16 Zn15 1.962 . S
O16 C21 1.254 . S
O17 Zn14 2.031 . S
O17 C21 1.269 . S
O18 Zn15 1.986 . S
O18 C25 1.262 . S
O19 Zn14 2.049 . S
O19 C27 1.260 . S
O20 Zn15 1.996 . S
O20 C27 1.257 . S
C21 O16 1.254 . S
C21 O17 1.269 . S
C22 O23 1.249 . S
C22 O24 1.270 . S
O23 Zn15 1.943 . S
O23 C22 1.249 . S
O24 Zn14 2.067 . S
O24 C22 1.270 . S
C25 O18 1.262 . S
C25 O26 1.232 . S
O26 C25 1.232 . S
C27 O19 1.260 . S
C27 O20 1.257 . S
Zn28 O31 2.031 . S
Zn28 O33 2.049 . S
Zn28 O38 2.067 . S
Zn29 O30 1.962 . S
Zn29 O32 1.986 . S
Zn29 O34 1.996 . S
Zn29 O37 1.943 . S
O30 Zn29 1.962 . S
O30 C35 1.254 . S
O31 Zn28 2.031 . S
O31 C35 1.269 . S
O32 Zn29 1.986 . S
O32 C39 1.262 . S
O33 Zn28 2.049 . S
O33 C41 1.260 . S
O34 Zn29 1.996 . S
O34 C41 1.257 . S
C35 O30 1.254 . S
C35 O31 1.269 . S
C36 O37 1.249 . S
C36 O38 1.270 . S
O37 Zn29 1.943 . S
O37 C36 1.249 . S
O38 Zn28 2.067 . S
O38 C36 1.270 . S
C39 O32 1.262 . S
C39 O40 1.232 . S
O40 C39 1.232 . S
C41 O33 1.260 . S
C41 O34 1.257 . S
Zn42 O45 2.031 . S
Zn42 O47 2.049 . S
Zn42 O52 2.067 . S
Zn43 O44 1.962 . S
Zn43 O46 1.986 . S
Zn43 O48 1.996 . S
Zn43 O51 1.943 . S
O44 Zn43 1.962 . S
O44 C49 1.254 . S
O45 Zn42 2.031 . S
O45 C49 1.269 . S
O46 Zn43 1.986 . S
O46 C53 1.262 . S
O47 Zn42 2.049 . S
O47 C55 1.260 . S
O48 Zn43 1.996 . S
O48 C55 1.257 . S
C49 O44 1.254 . S
C49 O45 1.269 . S
C50 O51 1.249 . S
C50 O52 1.270 . S
O51 Zn43 1.943 . S
O51 C50 1.249 . S
O52 Zn42 2.067 . S
O52 C50 1.270 . S
C53 O46 1.262 . S
C53 O54 1.232 . S
O54 C53 1.232 . S
C55 O47 1.260 . S
C55 O48 1.257 . S
Zn56 O59 2.031 . S
Zn56 O61 2.049 . S
Zn56 O66 2.067 . S
Zn57 O58 1.962 . S
Zn57 O60 1.986 . S
Zn57 O62 1.996 . S
Zn57 O65 1.943 . S
O58 Zn57 1.962 . S
O58 C63 1.254 . S
O59 Zn56 2.031 . S
O59 C63 1.269 . S
O60 Zn57 1.986 . S
O60 C67 1.262 . S
O61 Zn56 2.049 . S
O61 C69 1.260 . S
O62 Zn57 1.996 . S
O62 C69 1.257 . S
C63 O58 1.254 . S
C63 O59 1.269 . S
C64 O65 1.249 . S
C64 O66 1.270 . S
O65 Zn57 1.943 . S
O65 C64 1.249 . S
O66 Zn56 2.067 . S
O66 C64 1.270 . S
C67 O60 1.262 . S
C67 O68 1.232 . S
O68 C67 1.232 . S
C69 O61 1.260 . S
C69 O62 1.257 . S
Zn70 O73 2.031 . S
Zn70 O75 2.049 . S
Zn70 O80 2.067 . S
Zn71 O72 1.962 . S
Zn71 O74 1.986 . S
Zn71 O76 1.996 . S
Zn71 O79 1.943 . S
O72 Zn71 1.962 . S
O72 C77 1.254 . S
O73 Zn70 2.031 . S
O73 C77 1.269 . S
O74 Zn71 1.986 . S
O74 C81 1.262 . S
O75 Zn70 2.049 . S
O75 C83 1.260 . S
O76 Zn71 1.996 . S
O76 C83 1.257 . S
C77 O72 1.254 . S
C77 O73 1.269 . S
C78 O79 1.249 . S
C78 O80 1.270 . S
O79 Zn71 1.943 . S
O79 C78 1.249 . S
O80 Zn70 2.067 . S
O80 C78 1.270 . S
C81 O74 1.262 . S
C81 O82 1.232 . S
O82 C81 1.232 . S
C83 O75 1.260 . S
C83 O76 1.257 . S
Zn84 O87 2.031 . S
Zn84 O89 2.049 . S
Zn84 O94 2.067 . S
Zn85 O86 1.962 . S
Zn85 O88 1.986 . S
Zn85 O90 1.996 . S
Zn85 O93 1.943 . S
O86 Zn85 1.962 . S
O86 C91 1.254 . S
O87 Zn84 2.031 . S
O87 C91 1.269 . S
O88 Zn85 1.986 . S
O88 C95 1.262 . S
O89 Zn84 2.049 . S
O89 C97 1.260 . S
O90 Zn85 1.996 . S
O90 C97 1.257 . S
C91 O86 1.254 . S
C91 O87 1.269 . S
C92 O93 1.249 . S
C92 O94 1.270 . S
O93 Zn85 1.943 . S
O93 C92 1.249 . S
O94 Zn84 2.067 . S
O94 C92 1.270 . S
C95 O88 1.262 . S
C95 O96 1.232 . S
O96 C95 1.232 . S
C97 O89 1.260 . S
C97 O90 1.257 . S
Zn98 O101 2.031 . S
Zn98 O103 2.049 . S
Zn98 O108 2.067 . S
Zn99 O100 1.962 . S
Zn99 O102 1.986 . S
Zn99 O104 1.996 . S
Zn99 O107 1.943 . S
O100 Zn99 1.962 . S
O100 C105 1.254 . S
O101 Zn98 2.031 . S
O101 C105 1.269 . S
O102 Zn99 1.986 . S
O102 C109 1.262 . S
O103 Zn98 2.049 . S
O103 C111 1.260 . S
O104 Zn99 1.996 . S
O104 C111 1.257 . S
C105 O100 1.254 . S
C105 O101 1.269 . S
C106 O107 1.249 . S
C106 O108 1.270 . S
O107 Zn99 1.943 . S
O107 C106 1.249 . S
O108 Zn98 2.067 . S
O108 C106 1.270 . S
C109 O102 1.262 . S
C109 O110 1.232 . S
O110 C109 1.232 . S
C111 O103 1.260 . S
C111 O104 1.257 . S
Zn112 O115 2.031 . S
Zn112 O117 2.049 . S
Zn112 O122 2.067 . S
Zn113 O114 1.962 . S
Zn113 O116 1.986 . S
Zn113 O118 1.996 . S
Zn113 O121 1.943 . S
O114 Zn113 1.962 . S
O114 C119 1.254 . S
O115 Zn112 2.031 . S
O115 C119 1.269 . S
O116 Zn113 1.986 . S
O116 C123 1.262 . S
O117 Zn112 2.049 . S
O117 C125 1.260 . S
O118 Zn113 1.996 . S
O118 C125 1.257 . S
C119 O114 1.254 . S
C119 O115 1.269 . S
C120 O121 1.249 . S
C120 O122 1.270 . S
O121 Zn113 1.943 . S
O121 C120 1.249 . S
O122 Zn112 2.067 . S
O122 C120 1.270 . S
C123 O116 1.262 . S
C123 O124 1.232 . S
O124 C123 1.232 . S
C125 O117 1.260 . S
C125 O118 1.257 . S
Zn126 O129 2.031 . S
Zn126 O131 2.049 . S
Zn126 O136 2.067 . S
Zn127 O128 1.962 . S
Zn127 O130 1.986 . S
Zn127 O132 1.996 . S
Zn127 O135 1.943 . S
O128 Zn127 1.962 . S
O128 C133 1.254 . S
O129 Zn126 2.031 . S
O129 C133 1.269 . S
O130 Zn127 1.986 . S
O130 C137 1.262 . S
O131 Zn126 2.049 . S
O131 C139 1.260 . S
O132 Zn127 1.996 . S
O132 C139 1.257 . S
C133 O128 1.254 . S
C133 O129 1.269 . S
C134 O135 1.249 . S
C134 O136 1.270 . S
O135 Zn127 1.943 . S
O135 C134 1.249 . S
O136 Zn126 2.067 . S
O136 C134 1.270 . S
C137 O130 1.262 . S
C137 O138 1.232 . S
O138 C137 1.232 . S
C139 O131 1.260 . S
C139 O132 1.257 . S
Zn140 O143 2.031 . S
Zn140 O145 2.049 . S
Zn140 O150 2.067 . S
Zn141 O142 1.962 . S
Zn141 O144 1.986 . S
Zn141 O146 1.996 . S
Zn141 O149 1.943 . S
O142 Zn141 1.962 . S
O142 C147 1.254 . S
O143 Zn140 2.031 . S
O143 C147 1.269 . S
O144 Zn141 1.986 . S
O144 C151 1.262 . S
O145 Zn140 2.049 . S
O145 C153 1.260 . S
O146 Zn141 1.996 . S
O146 C153 1.257 . S
C147 O142 1.254 . S
C147 O143 1.269 . S
C148 O149 1.249 . S
C148 O150 1.270 . S
O149 Zn141 1.943 . S
O149 C148 1.249 . S
O150 Zn140 2.067 . S
O150 C148 1.270 . S
C151 O144 1.262 . S
C151 O152 1.232 . S
O152 C151 1.232 . S
C153 O145 1.260 . S
C153 O146 1.257 . S
Zn154 O157 2.031 . S
Zn154 O159 2.049 . S
Zn154 O164 2.067 . S
Zn155 O156 1.962 . S
Zn155 O158 1.986 . S
Zn155 O160 1.996 . S
Zn155 O163 1.943 . S
O156 Zn155 1.962 . S
O156 C161 1.254 . S
O157 Zn154 2.031 . S
O157 C161 1.269 . S
O158 Zn155 1.986 . S
O158 C165 1.262 . S
O159 Zn154 2.049 . S
O159 C167 1.260 . S
O160 Zn155 1.996 . S
O160 C167 1.257 . S
C161 O156 1.254 . S
C161 O157 1.269 . S
C162 O163 1.249 . S
C162 O164 1.270 . S
O163 Zn155 1.943 . S
O163 C162 1.249 . S
O164 Zn154 2.067 . S
O164 C162 1.270 . S
C165 O158 1.262 . S
C165 O166 1.232 . S
O166 C165 1.232 . S
C167 O159 1.260 . S
C167 O160 1.257 . S
Zn168 O171 2.031 . S
Zn168 O173 2.049 . S
Zn168 O178 2.067 . S
Zn169 O170 1.962 . S
Zn169 O172 1.986 . S
Zn169 O174 1.996 . S
Zn169 O177 1.943 . S
O170 Zn169 1.962 . S
O170 C175 1.254 . S
O171 Zn168 2.031 . S
O171 C175 1.269 . S
O172 Zn169 1.986 . S
O172 C179 1.262 . S
O173 Zn168 2.049 . S
O173 C181 1.260 . S
O174 Zn169 1.996 . S
O174 C181 1.257 . S
C175 O170 1.254 . S
C175 O171 1.269 . S
C176 O177 1.249 . S
C176 O178 1.270 . S
O177 Zn169 1.943 . S
O177 C176 1.249 . S
O178 Zn168 2.067 . S
O178 C176 1.270 . S
C179 O172 1.262 . S
C179 O180 1.232 . S
O180 C179 1.232 . S
C181 O173 1.260 . S
C181 O174 1.257 . S
Zn182 O185 2.031 . S
Zn182 O187 2.049 . S
Zn182 O192 2.067 . S
Zn183 O184 1.962 . S
Zn183 O186 1.986 . S
Zn183 O188 1.996 . S
Zn183 O191 1.943 . S
O184 Zn183 1.962 . S
O184 C189 1.254 . S
O185 Zn182 2.031 . S
O185 C189 1.269 . S
O186 Zn183 1.986 . S
O186 C193 1.262 . S
O187 Zn182 2.049 . S
O187 C195 1.260 . S
O188 Zn183 1.996 . S
O188 C195 1.257 . S
C189 O184 1.254 . S
C189 O185 1.269 . S
C190 O191 1.249 . S
C190 O192 1.270 . S
O191 Zn183 1.943 . S
O191 C190 1.249 . S
O192 Zn182 2.067 . S
O192 C190 1.270 . S
C193 O186 1.262 . S
C193 O194 1.232 . S
O194 C193 1.232 . S
C195 O187 1.260 . S
C195 O188 1.257 . S
Zn196 O199 2.031 . S
Zn196 O201 2.049 . S
Zn196 O206 2.067 . S
Zn197 O198 1.962 . S
Zn197 O200 1.986 . S
Zn197 O202 1.996 . S
Zn197 O205 1.943 . S
O198 Zn197 1.962 . S
O198 C203 1.254 . S
O199 Zn196 2.031 . S
O199 C203 1.269 . S
O200 Zn197 1.986 . S
O200 C207 1.262 . S
O201 Zn196 2.049 . S
O201 C209 1.260 . S
O202 Zn197 1.996 . S
O202 C209 1.257 . S
C203 O198 1.254 . S
C203 O199 1.269 . S
C204 O205 1.249 . S
C204 O206 1.270 . S
O205 Zn197 1.943 . S
O205 C204 1.249 . S
O206 Zn196 2.067 . S
O206 C204 1.270 . S
C207 O200 1.262 . S
C207 O208 1.232 . S
O208 C207 1.232 . S
C209 O201 1.260 . S
C209 O202 1.257 . S
Zn210 O213 2.031 . S
Zn210 O215 2.049 . S
Zn210 O220 2.067 . S
Zn211 O212 1.962 . S
Zn211 O214 1.986 . S
Zn211 O216 1.996 . S
Zn211 O219 1.943 . S
O212 Zn211 1.962 . S
O212 C217 1.254 . S
O213 Zn210 2.031 . S
O213 C217 1.269 . S
O214 Zn211 1.986 . S
O214 C221 1.262 . S
O215 Zn210 2.049 . S
O215 C223 1.260 . S
O216 Zn211 1.996 . S
O216 C223 1.257 . S
C217 O212 1.254 . S
C217 O213 1.269 . S
C218 O219 1.249 . S
C218 O220 1.270 . S
O219 Zn211 1.943 . S
O219 C218 1.249 . S
O220 Zn210 2.067 . S
O220 C218 1.270 . S
C221 O214 1.262 . S
C221 O222 1.232 . S
O222 C221 1.232 . S
C223 O215 1.260 . S
C223 O216 1.257 . S
H224 C232 0.950 . S
H225 C237 0.950 . S
H226 C234 0.950 . S
H227 C236 0.950 . S
H228 C238 0.950 . S
H229 C240 0.950 . S
H230 C242 0.950 . S
H231 C243 0.950 . S
C232 H224 0.950 . S
C232 C233 1.386 . S
C232 C234 1.391 . S
C233 C232 1.386 . S
C233 C237 1.393 . S
C234 H226 0.950 . S
C234 C232 1.391 . S
C234 C235 1.400 . S
C235 C234 1.400 . S
C235 C236 1.398 . S
C235 C241 1.491 . S
C236 H227 0.950 . S
C236 C235 1.398 . S
C236 C237 1.391 . S
C237 H225 0.950 . S
C237 C233 1.393 . S
C237 C236 1.391 . S
C238 H228 0.950 . S
C238 C239 1.386 . S
C238 C240 1.391 . S
C239 C238 1.386 . S
C239 C243 1.393 . S
C240 H229 0.950 . S
C240 C238 1.391 . S
C240 C241 1.400 . S
C241 C235 1.491 . S
C241 C240 1.400 . S
C241 C242 1.398 . S
C242 H230 0.950 . S
C242 C241 1.398 . S
C242 C243 1.391 . S
C243 H231 0.950 . S
C243 C239 1.393 . S
C243 C242 1.391 . S
H244 C252 0.950 . S
H245 C257 0.950 . S
H246 C254 0.950 . S
H247 C256 0.950 . S
H248 C258 0.950 . S
H249 C260 0.950 . S
H250 C262 0.950 . S
H251 C263 0.950 . S
C252 H244 0.950 . S
C252 C253 1.386 . S
C252 C254 1.391 . S
C253 C252 1.386 . S
C253 C257 1.393 . S
C254 H246 0.950 . S
C254 C252 1.391 . S
C254 C255 1.400 . S
C255 C254 1.400 . S
C255 C256 1.398 . S
C255 C261 1.491 . S
C256 H247 0.950 . S
C256 C255 1.398 . S
C256 C257 1.391 . S
C257 H245 0.950 . S
C257 C253 1.393 . S
C257 C256 1.391 . S
C258 H248 0.950 . S
C258 C259 1.386 . S
C258 C260 1.391 . S
C259 C258 1.386 . S
C259 C263 1.393 . S
C260 H249 0.950 . S
C260 C258 1.391 . S
C260 C261 1.400 . S
C261 C255 1.491 . S
C261 C260 1.400 . S
C261 C262 1.398 . S
C262 H250 0.950 . S
C262 C261 1.398 . S
C262 C263 1.391 . S
C263 H251 0.950 . S
C263 C259 1.393 . S
C263 C262 1.391 . S
H264 C272 0.950 . S
H265 C277 0.950 . S
H266 C274 0.950 . S
H267 C276 0.950 . S
H268 C278 0.950 . S
H269 C280 0.950 . S
H270 C282 0.950 . S
H271 C283 0.950 . S
C272 H264 0.950 . S
C272 C273 1.386 . S
C272 C274 1.391 . S
C273 C272 1.386 . S
C273 C277 1.393 . S
C274 H266 0.950 . S
C274 C272 1.391 . S
C274 C275 1.400 . S
C275 C274 1.400 . S
C275 C276 1.398 . S
C275 C281 1.491 . S
C276 H267 0.950 . S
C276 C275 1.398 . S
C276 C277 1.391 . S
C277 H265 0.950 . S
C277 C273 1.393 . S
C277 C276 1.391 . S
C278 H268 0.950 . S
C278 C279 1.386 . S
C278 C280 1.391 . S
C279 C278 1.386 . S
C279 C283 1.393 . S
C280 H269 0.950 . S
C280 C278 1.391 . S
C280 C281 1.400 . S
C281 C275 1.491 . S
C281 C280 1.400 . S
C281 C282 1.398 . S
C282 H270 0.950 . S
C282 C281 1.398 . S
C282 C283 1.391 . S
C283 H271 0.950 . S
C283 C279 1.393 . S
C283 C282 1.391 . S
H284 C292 0.950 . S
H285 C297 0.950 . S
H286 C294 0.950 . S
H287 C296 0.950 . S
H288 C298 0.950 . S
H289 C300 0.950 . S
H290 C302 0.950 . S
H291 C303 0.950 . S
C292 H284 0.950 . S
C292 C293 1.386 . S
C292 C294 1.391 . S
C293 C292 1.386 . S
C293 C297 1.393 . S
C294 H286 0.950 . S
C294 C292 1.391 . S
C294 C295 1.400 . S
C295 C294 1.400 . S
C295 C296 1.398 . S
C295 C301 1.491 . S
C296 H287 0.950 . S
C296 C295 1.398 . S
C296 C297 1.391 . S
C297 H285 0.950 . S
C297 C293 1.393 . S
C297 C296 1.391 . S
C298 H288 0.950 . S
C298 C299 1.386 . S
C298 C300 1.391 . S
C299 C298 1.386 . S
C299 C303 1.393 . S
C300 H289 0.950 . S
C300 C298 1.391 . S
C300 C301 1.400 . S
C301 C295 1.491 . S
C301 C300 1.400 . S
C301 C302 1.398 . S
C302 H290 0.950 . S
C302 C301 1.398 . S
C302 C303 1.391 . S
C303 H291 0.950 . S
C303 C299 1.393 . S
C303 C302 1.391 . S
H304 C312 0.950 . S
H305 C317 0.950 . S
H306 C314 0.950 . S
H307 C316 0.950 . S
H308 C318 0.950 . S
H309 C320 0.950 . S
H310 C322 0.950 . S
H311 C323 0.950 . S
C312 H304 0.950 . S
C312 C313 1.386 . S
C312 C314 1.391 . S
C313 C312 1.386 . S
C313 C317 1.393 . S
C314 H306 0.950 . S
C314 C312 1.391 . S
C314 C315 1.400 . S
C315 C314 1.400 . S
C315 C316 1.398 . S
C315 C321 1.491 . S
C316 H307 0.950 . S
C316 C315 1.398 . S
C316 C317 1.391 . S
C317 H305 0.950 . S
C317 C313 1.393 . S
C317 C316 1.391 . S
C318 H308 0.950 . S
C318 C319 1.386 . S
C318 C320 1.391 . S
C319 C318 1.386 . S
C319 C323 1.393 . S
C320 H309 0.950 . S
C320 C318 1.391 . S
C320 C321 1.400 . S
C321 C315 1.491 . S
C321 C320 1.400 . S
C321 C322 1.398 . S
C322 H310 0.950 . S
C322 C321 1.398 . S
C322 C323 1.391 . S
C323 H311 0.950 . S
C323 C319 1.393 . S
C323 C322 1.391 . S
H324 C332 0.950 . S
H325 C337 0.950 . S
H326 C334 0.950 . S
H327 C336 0.950 . S
H328 C338 0.950 . S
H329 C340 0.950 . S
H330 C342 0.950 . S
H331 C343 0.950 . S
C332 H324 0.950 . S
C332 C333 1.386 . S
C332 C334 1.391 . S
C333 C332 1.386 . S
C333 C337 1.393 . S
C334 H326 0.950 . S
C334 C332 1.391 . S
C334 C335 1.400 . S
C335 C334 1.400 . S
C335 C336 1.398 . S
C335 C341 1.491 . S
C336 H327 0.950 . S
C336 C335 1.398 . S
C336 C337 1.391 . S
C337 H325 0.950 . S
C337 C333 1.393 . S
C337 C336 1.391 . S
C338 H328 0.950 . S
C338 C339 1.386 . S
C338 C340 1.391 . S
C339 C338 1.386 . S
C339 C343 1.393 . S
C340 H329 0.950 . S
C340 C338 1.391 . S
C340 C341 1.400 . S
C341 C335 1.491 . S
C341 C340 1.400 . S
C341 C342 1.398 . S
C342 H330 0.950 . S
C342 C341 1.398 . S
C342 C343 1.391 . S
C343 H331 0.950 . S
C343 C339 1.393 . S
C343 C342 1.391 . S
H344 C352 0.950 . S
H345 C357 0.950 . S
H346 C354 0.950 . S
H347 C356 0.950 . S
H348 C358 0.950 . S
H349 C360 0.950 . S
H350 C362 0.950 . S
H351 C363 0.950 . S
C352 H344 0.950 . S
C352 C353 1.386 . S
C352 C354 1.391 . S
C353 C352 1.386 . S
C353 C357 1.393 . S
C354 H346 0.950 . S
C354 C352 1.391 . S
C354 C355 1.400 . S
C355 C354 1.400 . S
C355 C356 1.398 . S
C355 C361 1.491 . S
C356 H347 0.950 . S
C356 C355 1.398 . S
C356 C357 1.391 . S
C357 H345 0.950 . S
C357 C353 1.393 . S
C357 C356 1.391 . S
C358 H348 0.950 . S
C358 C359 1.386 . S
C358 C360 1.391 . S
C359 C358 1.386 . S
C359 C363 1.393 . S
C360 H349 0.950 . S
C360 C358 1.391 . S
C360 C361 1.400 . S
C361 C355 1.491 . S
C361 C360 1.400 . S
C361 C362 1.398 . S
C362 H350 0.950 . S
C362 C361 1.398 . S
C362 C363 1.391 . S
C363 H351 0.950 . S
C363 C359 1.393 . S
C363 C362 1.391 . S
H364 C372 0.950 . S
H365 C377 0.950 . S
H366 C374 0.950 . S
H367 C376 0.950 . S
H368 C378 0.950 . S
H369 C380 0.950 . S
H370 C382 0.950 . S
H371 C383 0.950 . S
C372 H364 0.950 . S
C372 C373 1.386 . S
C372 C374 1.391 . S
C373 C372 1.386 . S
C373 C377 1.393 . S
C374 H366 0.950 . S
C374 C372 1.391 . S
C374 C375 1.400 . S
C375 C374 1.400 . S
C375 C376 1.398 . S
C375 C381 1.491 . S
C376 H367 0.950 . S
C376 C375 1.398 . S
C376 C377 1.391 . S
C377 H365 0.950 . S
C377 C373 1.393 . S
C377 C376 1.391 . S
C378 H368 0.950 . S
C378 C379 1.386 . S
C378 C380 1.391 . S
C379 C378 1.386 . S
C379 C383 1.393 . S
C380 H369 0.950 . S
C380 C378 1.391 . S
C380 C381 1.400 . S
C381 C375 1.491 . S
C381 C380 1.400 . S
C381 C382 1.398 . S
C382 H370 0.950 . S
C382 C381 1.398 . S
C382 C383 1.391 . S
C383 H371 0.950 . S
C383 C379 1.393 . S
C383 C382 1.391 . S
H384 C392 0.950 . S
H385 C397 0.950 . S
H386 C394 0.950 . S
H387 C396 0.950 1_545 S
H388 C398 0.950 . S
H389 C400 0.950 . S
H390 C402 0.950 1_565 S
H391 C403 0.950 . S
C392 H384 0.950 . S
C392 C393 1.386 . S
C392 C394 1.391 . S
C393 C392 1.386 . S
C393 C397 1.393 . S
C394 H386 0.950 . S
C394 C392 1.391 . S
C394 C395 1.400 . S
C395 C394 1.400 . S
C395 C396 1.398 . S
C395 C401 1.491 1_565 S
C396 H387 0.950 1_565 S
C396 C395 1.398 . S
C396 C397 1.391 . S
C397 H385 0.950 . S
C397 C393 1.393 . S
C397 C396 1.391 . S
C398 H388 0.950 . S
C398 C399 1.386 . S
C398 C400 1.391 . S
C399 C398 1.386 . S
C399 C403 1.393 . S
C400 H389 0.950 . S
C400 C398 1.391 . S
C400 C401 1.400 . S
C401 C395 1.491 1_545 S
C401 C400 1.400 . S
C401 C402 1.398 . S
C402 H390 0.950 1_545 S
C402 C401 1.398 . S
C402 C403 1.391 . S
C403 H391 0.950 . S
C403 C399 1.393 . S
C403 C402 1.391 . S
H404 C412 0.950 . S
H405 C417 0.950 . S
H406 C414 0.950 . S
H407 C416 0.950 . S
H408 C418 0.950 . S
H409 C420 0.950 . S
H410 C422 0.950 . S
H411 C423 0.950 . S
C412 H404 0.950 . S
C412 C413 1.386 . S
C412 C414 1.391 . S
C413 C412 1.386 . S
C413 C417 1.393 . S
C414 H406 0.950 . S
C414 C412 1.391 . S
C414 C415 1.400 . S
C415 C414 1.400 . S
C415 C416 1.398 . S
C415 C421 1.491 . S
C416 H407 0.950 . S
C416 C415 1.398 . S
C416 C417 1.391 . S
C417 H405 0.950 . S
C417 C413 1.393 . S
C417 C416 1.391 . S
C418 H408 0.950 . S
C418 C419 1.386 . S
C418 C420 1.391 . S
C419 C418 1.386 . S
C419 C423 1.393 . S
C420 H409 0.950 . S
C420 C418 1.391 . S
C420 C421 1.400 . S
C421 C415 1.491 . S
C421 C420 1.400 . S
C421 C422 1.398 . S
C422 H410 0.950 . S
C422 C421 1.398 . S
C422 C423 1.391 . S
C423 H411 0.950 . S
C423 C419 1.393 . S
C423 C422 1.391 . S
H424 C432 0.950 . S
H425 C437 0.950 . S
H426 C434 0.950 . S
H427 C436 0.950 . S
H428 C438 0.950 . S
H429 C440 0.950 1_556 S
H430 C442 0.950 . S
H431 C443 0.950 . S
C432 H424 0.950 . S
C432 C433 1.386 . S
C432 C434 1.391 . S
C433 C432 1.386 . S
C433 C437 1.393 . S
C434 H426 0.950 . S
C434 C432 1.391 . S
C434 C435 1.400 . S
C435 C434 1.400 . S
C435 C436 1.398 . S
C435 C441 1.491 1_556 S
C436 H427 0.950 . S
C436 C435 1.398 . S
C436 C437 1.391 . S
C437 H425 0.950 . S
C437 C433 1.393 . S
C437 C436 1.391 . S
C438 H428 0.950 . S
C438 C439 1.386 . S
C438 C440 1.391 . S
C439 C438 1.386 . S
C439 C443 1.393 . S
C440 H429 0.950 1_554 S
C440 C438 1.391 . S
C440 C441 1.400 . S
C441 C435 1.491 1_554 S
C441 C440 1.400 . S
C441 C442 1.398 . S
C442 H430 0.950 . S
C442 C441 1.398 . S
C442 C443 1.391 . S
C443 H431 0.950 . S
C443 C439 1.393 . S
C443 C442 1.391 . S
H444 C452 0.950 . S
H445 C457 0.950 . S
H446 C454 0.950 . S
H447 C456 0.919 1_556 S
H448 C458 0.950 . S
H449 C460 0.950 . S
H450 C462 0.950 . S
H451 C463 0.950 . S
C452 H444 0.950 . S
C452 C453 1.386 . S
C452 C454 1.391 . S
C453 C452 1.386 . S
C453 C457 1.393 . S
C454 H446 0.950 . S
C454 C452 1.391 . S
C454 C455 1.400 . S
C455 C454 1.400 . S
C455 C456 1.400 . S
C455 C461 1.491 1_554 S
C456 H447 0.919 1_554 S
C456 C455 1.400 . S
C456 C457 1.420 . S
C457 H445 0.950 . S
C457 C453 1.393 . S
C457 C456 1.420 . S
C458 H448 0.950 . S
C458 C459 1.386 . S
C458 C460 1.391 . S
C459 C458 1.386 . S
C459 C463 1.393 . S
C460 H449 0.950 . S
C460 C458 1.391 . S
C460 C461 1.400 . S
C461 C455 1.491 1_556 S
C461 C460 1.400 . S
C461 C462 1.398 . S
C462 H450 0.950 . S
C462 C461 1.398 . S
C462 C463 1.391 . S
C463 H451 0.950 . S
C463 C459 1.393 . S
C463 C462 1.391 . S
H464 C472 0.950 . S
H465 C477 0.950 . S
H466 C474 0.950 . S
H467 C476 0.950 . S
H468 C478 0.950 . S
H469 C480 0.950 . S
H470 C482 0.950 . S
H471 C483 0.950 . S
C472 H464 0.950 . S
C472 C473 1.386 . S
C472 C474 1.391 . S
C473 C472 1.386 . S
C473 C477 1.393 . S
C474 H466 0.950 . S
C474 C472 1.391 . S
C474 C475 1.400 . S
C475 C474 1.400 . S
C475 C476 1.398 . S
C475 C481 1.491 . S
C476 H467 0.950 . S
C476 C475 1.398 . S
C476 C477 1.391 . S
C477 H465 0.950 . S
C477 C473 1.393 . S
C477 C476 1.391 . S
C478 H468 0.950 . S
C478 C479 1.386 . S
C478 C480 1.391 . S
C479 C478 1.386 . S
C479 C483 1.393 . S
C480 H469 0.950 . S
C480 C478 1.391 . S
C480 C481 1.400 . S
C481 C475 1.491 . S
C481 C480 1.400 . S
C481 C482 1.398 . S
C482 H470 0.950 . S
C482 C481 1.398 . S
C482 C483 1.391 . S
C483 H471 0.950 . S
C483 C479 1.393 . S
C483 C482 1.391 . S
H484 C492 0.950 . S
H485 C497 0.950 . S
H486 C494 0.950 . S
H487 C496 0.950 . S
H488 C498 0.950 . S
H489 C500 0.950 . S
H490 C502 0.950 . S
H491 C503 0.950 . S
C492 H484 0.950 . S
C492 C493 1.386 . S
C492 C494 1.391 . S
C493 C492 1.386 . S
C493 C497 1.393 . S
C494 H486 0.950 . S
C494 C492 1.391 . S
C494 C495 1.400 . S
C495 C494 1.400 . S
C495 C496 1.398 . S
C495 C501 1.491 . S
C496 H487 0.950 . S
C496 C495 1.398 . S
C496 C497 1.391 . S
C497 H485 0.950 . S
C497 C493 1.393 . S
C497 C496 1.391 . S
C498 H488 0.950 . S
C498 C499 1.386 . S
C498 C500 1.391 . S
C499 C498 1.386 . S
C499 C503 1.393 . S
C500 H489 0.950 . S
C500 C498 1.391 . S
C500 C501 1.400 . S
C501 C495 1.491 . S
C501 C500 1.400 . S
C501 C502 1.398 . S
C502 H490 0.950 . S
C502 C501 1.398 . S
C502 C503 1.391 . S
C503 H491 0.950 . S
C503 C499 1.393 . S
C503 C502 1.391 . S
H504 C512 0.950 . S
H505 C517 0.950 . S
H506 C514 0.950 1_455 S
H507 C516 0.950 . S
H508 C518 0.950 . S
H509 C520 0.950 1_655 S
H510 C522 0.950 . S
H511 C523 0.950 . S
C512 H504 0.950 . S
C512 C513 1.386 . S
C512 C514 1.391 . S
C513 C512 1.386 . S
C513 C517 1.393 . S
C514 H506 0.950 1_655 S
C514 C512 1.391 . S
C514 C515 1.400 . S
C515 C514 1.400 . S
C515 C516 1.398 . S
C515 C521 1.491 1_655 S
C516 H507 0.950 . S
C516 C515 1.398 . S
C516 C517 1.391 . S
C517 H505 0.950 . S
C517 C513 1.393 . S
C517 C516 1.391 . S
C518 H508 0.950 . S
C518 C519 1.386 . S
C518 C520 1.391 . S
C519 C518 1.386 . S
C519 C523 1.393 . S
C520 H509 0.950 1_455 S
C520 C518 1.391 . S
C520 C521 1.400 . S
C521 C515 1.491 1_455 S
C521 C520 1.400 . S
C521 C522 1.398 . S
C522 H510 0.950 . S
C522 C521 1.398 . S
C522 C523 1.391 . S
C523 H511 0.950 . S
C523 C519 1.393 . S
C523 C522 1.391 . S
H524 C532 0.950 . S
H525 C537 0.950 . S
H526 C534 0.950 . S
H527 C536 0.950 . S
H528 C538 0.950 . S
H529 C540 0.950 1_655 S
H530 C542 0.950 . S
H531 C543 0.950 . S
C532 H524 0.950 . S
C532 C533 1.386 . S
C532 C534 1.391 . S
C533 C532 1.386 . S
C533 C537 1.393 . S
C534 H526 0.950 . S
C534 C532 1.391 . S
C534 C535 1.400 . S
C535 C534 1.400 . S
C535 C536 1.398 . S
C535 C541 1.491 1_655 S
C536 H527 0.950 . S
C536 C535 1.398 . S
C536 C537 1.391 . S
C537 H525 0.950 . S
C537 C533 1.393 . S
C537 C536 1.391 . S
C538 H528 0.950 . S
C538 C539 1.386 . S
C538 C540 1.391 . S
C539 C538 1.386 . S
C539 C543 1.393 . S
C540 H529 0.950 1_455 S
C540 C538 1.391 . S
C540 C541 1.400 . S
C541 C535 1.491 1_455 S
C541 C540 1.400 . S
C541 C542 1.398 . S
C542 H530 0.950 . S
C542 C541 1.398 . S
C542 C543 1.391 . S
C543 H531 0.950 . S
C543 C539 1.393 . S
C543 C542 1.391 . S
H544 C552 0.950 . S
H545 C557 0.950 . S
H546 C554 0.950 . S
H547 C556 0.950 . S
H548 C558 0.950 . S
H549 C560 0.950 . S
H550 C562 0.950 . S
H551 C563 0.950 . S
C552 H544 0.950 . S
C552 C553 1.386 . S
C552 C554 1.391 . S
C553 C552 1.386 . S
C553 C557 1.393 . S
C554 H546 0.950 . S
C554 C552 1.391 . S
C554 C555 1.400 . S
C555 C554 1.400 . S
C555 C556 1.398 . S
C555 C561 1.491 . S
C556 H547 0.950 . S
C556 C555 1.398 . S
C556 C557 1.391 . S
C557 H545 0.950 . S
C557 C553 1.393 . S
C557 C556 1.391 . S
C558 H548 0.950 . S
C558 C559 1.386 . S
C558 C560 1.391 . S
C559 C558 1.386 . S
C559 C563 1.393 . S
C560 H549 0.950 . S
C560 C558 1.391 . S
C560 C561 1.400 . S
C561 C555 1.491 . S
C561 C560 1.400 . S
C561 C562 1.398 . S
C562 H550 0.950 . S
C562 C561 1.398 . S
C562 C563 1.391 . S
C563 H551 0.950 . S
C563 C559 1.393 . S
C563 C562 1.391 . S
H564 C572 0.950 . S
H565 C577 0.950 . S
H566 C574 0.950 . S
H567 C576 0.950 1_565 S
H568 C578 0.950 . S
H569 C580 0.950 . S
H570 C582 0.950 1_545 S
H571 C583 0.950 . S
C572 H564 0.950 . S
C572 C573 1.386 . S
C572 C574 1.391 . S
C573 C572 1.386 . S
C573 C577 1.393 . S
C574 H566 0.950 . S
C574 C572 1.391 . S
C574 C575 1.400 . S
C575 C574 1.400 . S
C575 C576 1.398 . S
C575 C581 1.491 1_545 S
C576 H567 0.950 1_545 S
C576 C575 1.398 . S
C576 C577 1.391 . S
C577 H565 0.950 . S
C577 C573 1.393 . S
C577 C576 1.391 . S
C578 H568 0.950 . S
C578 C579 1.386 . S
C578 C580 1.391 . S
C579 C578 1.386 . S
C579 C583 1.393 . S
C580 H569 0.950 . S
C580 C578 1.391 . S
C580 C581 1.400 . S
C581 C575 1.491 1_565 S
C581 C580 1.400 . S
C581 C582 1.398 . S
C582 H570 0.950 1_565 S
C582 C581 1.398 . S
C582 C583 1.391 . S
C583 H571 0.950 . S
C583 C579 1.393 . S
C583 C582 1.391 . S
H584 C592 0.950 . S
H585 C597 0.950 . S
H586 C594 0.950 . S
H587 C596 0.950 . S
H588 C598 0.950 . S
H589 C600 0.950 . S
H590 C602 0.950 . S
H591 C603 0.950 . S
C592 H584 0.950 . S
C592 C593 1.386 . S
C592 C594 1.391 . S
C593 C592 1.386 . S
C593 C597 1.393 . S
C594 H586 0.950 . S
C594 C592 1.391 . S
C594 C595 1.400 . S
C595 C594 1.400 . S
C595 C596 1.398 . S
C595 C601 1.491 . S
C596 H587 0.950 . S
C596 C595 1.398 . S
C596 C597 1.391 . S
C597 H585 0.950 . S
C597 C593 1.393 . S
C597 C596 1.391 . S
C598 H588 0.950 . S
C598 C599 1.386 . S
C598 C600 1.391 . S
C599 C598 1.386 . S
C599 C603 1.393 . S
C600 H589 0.950 . S
C600 C598 1.391 . S
C600 C601 1.400 . S
C601 C595 1.491 . S
C601 C600 1.400 . S
C601 C602 1.398 . S
C602 H590 0.950 . S
C602 C601 1.398 . S
C602 C603 1.391 . S
C603 H591 0.950 . S
C603 C599 1.393 . S
C603 C602 1.391 . S
H604 C612 0.950 . S
H605 C617 0.950 . S
H606 C614 0.950 . S
H607 C616 0.950 . S
H608 C618 0.950 . S
H609 C620 0.950 . S
H610 C622 0.950 1_554 S
H611 C623 0.950 . S
C612 H604 0.950 . S
C612 C613 1.386 . S
C612 C614 1.391 . S
C613 C612 1.386 . S
C613 C617 1.393 . S
C614 H606 0.950 . S
C614 C612 1.391 . S
C614 C615 1.400 . S
C615 C614 1.400 . S
C615 C616 1.398 . S
C615 C621 1.491 1_554 S
C616 H607 0.950 . S
C616 C615 1.398 . S
C616 C617 1.391 . S
C617 H605 0.950 . S
C617 C613 1.393 . S
C617 C616 1.391 . S
C618 H608 0.950 . S
C618 C619 1.386 . S
C618 C620 1.391 . S
C619 C618 1.386 . S
C619 C623 1.393 . S
C620 H609 0.950 . S
C620 C618 1.391 . S
C620 C621 1.400 . S
C621 C615 1.491 1_556 S
C621 C620 1.400 . S
C621 C622 1.398 . S
C622 H610 0.950 1_556 S
C622 C621 1.398 . S
C622 C623 1.391 . S
C623 H611 0.950 . S
C623 C619 1.393 . S
C623 C622 1.391 . S
H624 C632 0.950 . S
H625 C637 0.950 . S
H626 C634 0.950 . S
H627 C636 0.950 1_554 S
H628 C638 0.950 . S
H629 C640 0.950 . S
H630 C642 0.950 . S
H631 C643 0.950 . S
C632 H624 0.950 . S
C632 C633 1.386 . S
C632 C634 1.391 . S
C633 C632 1.386 . S
C633 C637 1.393 . S
C634 H626 0.950 . S
C634 C632 1.391 . S
C634 C635 1.400 . S
C635 C634 1.400 . S
C635 C636 1.398 . S
C635 C641 1.491 1_556 S
C636 H627 0.950 1_556 S
C636 C635 1.398 . S
C636 C637 1.391 . S
C637 H625 0.950 . S
C637 C633 1.393 . S
C637 C636 1.391 . S
C638 H628 0.950 . S
C638 C639 1.386 . S
C638 C640 1.391 . S
C639 C638 1.386 . S
C639 C643 1.393 . S
C640 H629 0.950 . S
C640 C638 1.391 . S
C640 C641 1.400 . S
C641 C635 1.491 1_554 S
C641 C640 1.400 . S
C641 C642 1.398 . S
C642 H630 0.950 . S
C642 C641 1.398 . S
C642 C643 1.391 . S
C643 H631 0.950 . S
C643 C639 1.393 . S
C643 C642 1.391 . S
H644 C652 0.950 . S
H645 C657 0.950 . S
H646 C654 0.950 . S
H647 C656 0.950 . S
H648 C658 0.950 . S
H649 C660 0.950 . S
H650 C662 0.950 . S
H651 C663 0.950 . S
C652 H644 0.950 . S
C652 C653 1.386 . S
C652 C654 1.391 . S
C653 C652 1.386 . S
C653 C657 1.393 . S
C654 H646 0.950 . S
C654 C652 1.391 . S
C654 C655 1.400 . S
C655 C654 1.400 . S
C655 C656 1.398 . S
C655 C661 1.491 . S
C656 H647 0.950 . S
C656 C655 1.398 . S
C656 C657 1.391 . S
C657 H645 0.950 . S
C657 C653 1.393 . S
C657 C656 1.391 . S
C658 H648 0.950 . S
C658 C659 1.386 . S
C658 C660 1.391 . S
C659 C658 1.386 . S
C659 C663 1.393 . S
C660 H649 0.950 . S
C660 C658 1.391 . S
C660 C661 1.400 . S
C661 C655 1.491 . S
C661 C660 1.400 . S
C661 C662 1.398 . S
C662 H650 0.950 . S
C662 C661 1.398 . S
C662 C663 1.391 . S
C663 H651 0.950 . S
C663 C659 1.393 . S
C663 C662 1.391 . S
H664 C672 0.950 . S
H665 C677 0.950 . S
H666 C674 0.950 . S
H667 C676 0.950 . S
H668 C678 0.950 . S
H669 C680 0.950 . S
H670 C682 0.950 . S
H671 C683 0.950 . S
C672 H664 0.950 . S
C672 C673 1.386 . S
C672 C674 1.391 . S
C673 C672 1.386 . S
C673 C677 1.393 . S
C674 H666 0.950 . S
C674 C672 1.391 . S
C674 C675 1.400 . S
C675 C674 1.400 . S
C675 C676 1.398 . S
C675 C681 1.491 . S
C676 H667 0.950 . S
C676 C675 1.398 . S
C676 C677 1.391 . S
C677 H665 0.950 . S
C677 C673 1.393 . S
C677 C676 1.391 . S
C678 H668 0.950 . S
C678 C679 1.386 . S
C678 C680 1.391 . S
C679 C678 1.386 . S
C679 C683 1.393 . S
C680 H669 0.950 . S
C680 C678 1.391 . S
C680 C681 1.400 . S
C681 C675 1.491 . S
C681 C680 1.400 . S
C681 C682 1.398 . S
C682 H670 0.950 . S
C682 C681 1.398 . S
C682 C683 1.391 . S
C683 H671 0.950 . S
C683 C679 1.393 . S
C683 C682 1.391 . S
H684 C692 0.950 . S
H685 C697 0.950 . S
H686 C694 0.950 . S
H687 C696 0.950 . S
H688 C698 0.950 . S
H689 C700 0.950 1_455 S
H690 C702 0.950 . S
H691 C703 0.950 . S
C692 H684 0.950 . S
C692 C693 1.386 . S
C692 C694 1.391 . S
C693 C692 1.386 . S
C693 C697 1.393 . S
C694 H686 0.950 . S
C694 C692 1.391 . S
C694 C695 1.400 . S
C695 C694 1.400 . S
C695 C696 1.398 . S
C695 C701 1.491 1_455 S
C696 H687 0.950 . S
C696 C695 1.398 . S
C696 C697 1.391 . S
C697 H685 0.950 . S
C697 C693 1.393 . S
C697 C696 1.391 . S
C698 H688 0.950 . S
C698 C699 1.386 . S
C698 C700 1.391 . S
C699 C698 1.386 . S
C699 C703 1.393 . S
C700 H689 0.950 1_655 S
C700 C698 1.391 . S
C700 C701 1.400 . S
C701 C695 1.491 1_655 S
C701 C700 1.400 . S
C701 C702 1.398 . S
C702 H690 0.950 . S
C702 C701 1.398 . S
C702 C703 1.391 . S
C703 H691 0.950 . S
C703 C699 1.393 . S
C703 C702 1.391 . S
H704 C712 0.950 . S
H705 C717 0.950 . S
H706 C714 0.950 . S
H707 C716 0.950 . S
H708 C718 0.950 . S
H709 C720 0.950 1_455 S
H710 C722 0.950 . S
H711 C723 0.950 . S
C712 H704 0.950 . S
C712 C713 1.386 . S
C712 C714 1.391 . S
C713 C712 1.386 . S
C713 C717 1.393 . S
C714 H706 0.950 . S
C714 C712 1.391 . S
C714 C715 1.400 . S
C715 C714 1.400 . S
C715 C716 1.398 . S
C715 C721 1.491 1_455 S
C716 H707 0.950 . S
C716 C715 1.398 . S
C716 C717 1.391 . S
C717 H705 0.950 . S
C717 C713 1.393 . S
C717 C716 1.391 . S
C718 H708 0.950 . S
C718 C719 1.386 . S
C718 C720 1.391 . S
C719 C718 1.386 . S
C719 C723 1.393 . S
C720 H709 0.950 1_655 S
C720 C718 1.391 . S
C720 C721 1.400 . S
C721 C715 1.491 1_655 S
C721 C720 1.400 . S
C721 C722 1.398 . S
C722 H710 0.950 . S
C722 C721 1.398 . S
C722 C723 1.391 . S
C723 H711 0.950 . S
C723 C719 1.393 . S
C723 C722 1.391 . S
H724 C732 0.950 . S
H725 C737 0.950 . S
H726 C734 0.950 . S
H727 C736 0.950 . S
H728 C738 0.950 . S
H729 C740 0.950 . S
H730 C742 0.950 . S
H731 C743 0.950 . S
C732 H724 0.950 . S
C732 C733 1.386 . S
C732 C734 1.391 . S
C733 C732 1.386 . S
C733 C737 1.393 . S
C734 H726 0.950 . S
C734 C732 1.391 . S
C734 C735 1.400 . S
C735 C734 1.400 . S
C735 C736 1.398 . S
C735 C741 1.491 . S
C736 H727 0.950 . S
C736 C735 1.398 . S
C736 C737 1.391 . S
C737 H725 0.950 . S
C737 C733 1.393 . S
C737 C736 1.391 . S
C738 H728 0.950 . S
C738 C739 1.386 . S
C738 C740 1.391 . S
C739 C738 1.386 . S
C739 C743 1.393 . S
C740 H729 0.950 . S
C740 C738 1.391 . S
C740 C741 1.400 . S
C741 C735 1.491 . S
C741 C740 1.400 . S
C741 C742 1.398 . S
C742 H730 0.950 . S
C742 C741 1.398 . S
C742 C743 1.391 . S
C743 H731 0.950 . S
C743 C739 1.393 . S
C743 C742 1.391 . S
H744 C752 0.950 . S
H745 C757 0.950 . S
H746 C754 0.950 . S
H747 C756 0.950 . S
H748 C758 0.950 . S
H749 C760 0.950 . S
H750 C762 0.950 . S
H751 C763 0.950 . S
C752 H744 0.950 . S
C752 C753 1.386 . S
C752 C754 1.391 . S
C753 C752 1.386 . S
C753 C757 1.393 . S
C754 H746 0.950 . S
C754 C752 1.391 . S
C754 C755 1.400 . S
C755 C754 1.400 . S
C755 C756 1.398 . S
C755 C761 1.491 . S
C756 H747 0.950 . S
C756 C755 1.398 . S
C756 C757 1.391 . S
C757 H745 0.950 . S
C757 C753 1.393 . S
C757 C756 1.391 . S
C758 H748 0.950 . S
C758 C759 1.386 . S
C758 C760 1.391 . S
C759 C758 1.386 . S
C759 C763 1.393 . S
C760 H749 0.950 . S
C760 C758 1.391 . S
C760 C761 1.400 . S
C761 C755 1.491 . S
C761 C760 1.400 . S
C761 C762 1.398 . S
C762 H750 0.950 . S
C762 C761 1.398 . S
C762 C763 1.391 . S
C763 H751 0.950 . S
C763 C759 1.393 . S
C763 C762 1.391 . S
H764 C772 0.950 . S
H765 C777 0.950 . S
H766 C774 0.950 . S
H767 C776 0.950 1_565 S
H768 C778 0.950 . S
H769 C780 0.950 . S
H770 C782 0.950 1_545 S
H771 C783 0.950 . S
C772 H764 0.950 . S
C772 C773 1.386 . S
C772 C774 1.391 . S
C773 C772 1.386 . S
C773 C777 1.393 . S
C774 H766 0.950 . S
C774 C772 1.391 . S
C774 C775 1.400 . S
C775 C774 1.400 . S
C775 C776 1.398 . S
C775 C781 1.491 1_545 S
C776 H767 0.950 1_545 S
C776 C775 1.398 . S
C776 C777 1.391 . S
C777 H765 0.950 . S
C777 C773 1.393 . S
C777 C776 1.391 . S
C778 H768 0.950 . S
C778 C779 1.386 . S
C778 C780 1.391 . S
C779 C778 1.386 . S
C779 C783 1.393 . S
C780 H769 0.950 . S
C780 C778 1.391 . S
C780 C781 1.400 . S
C781 C775 1.491 1_565 S
C781 C780 1.400 . S
C781 C782 1.398 . S
C782 H770 0.950 1_565 S
C782 C781 1.398 . S
C782 C783 1.391 . S
C783 H771 0.950 . S
C783 C779 1.393 . S
C783 C782 1.391 . S
H784 C792 0.950 . S
H785 C797 0.950 . S
H786 C794 0.950 . S
H787 C796 0.950 . S
H788 C798 0.950 . S
H789 C800 0.950 . S
H790 C802 0.950 . S
H791 C803 0.950 . S
C792 H784 0.950 . S
C792 C793 1.386 . S
C792 C794 1.391 . S
C793 C792 1.386 . S
C793 C797 1.393 . S
C794 H786 0.950 . S
C794 C792 1.391 . S
C794 C795 1.400 . S
C795 C794 1.400 . S
C795 C796 1.398 . S
C795 C801 1.491 . S
C796 H787 0.950 . S
C796 C795 1.398 . S
C796 C797 1.391 . S
C797 H785 0.950 . S
C797 C793 1.393 . S
C797 C796 1.391 . S
C798 H788 0.950 . S
C798 C799 1.386 . S
C798 C800 1.391 . S
C799 C798 1.386 . S
C799 C803 1.393 . S
C800 H789 0.950 . S
C800 C798 1.391 . S
C800 C801 1.400 . S
C801 C795 1.491 . S
C801 C800 1.400 . S
C801 C802 1.398 . S
C802 H790 0.950 . S
C802 C801 1.398 . S
C802 C803 1.391 . S
C803 H791 0.950 . S
C803 C799 1.393 . S
C803 C802 1.391 . S
H804 C812 0.950 . S
H805 C817 0.950 . S
H806 C814 0.950 . S
H807 C816 0.950 . S
H808 C818 0.950 . S
H809 C820 0.950 . S
H810 C822 0.950 . S
H811 C823 0.950 . S
C812 H804 0.950 . S
C812 C813 1.386 . S
C812 C814 1.391 . S
C813 C812 1.386 . S
C813 C817 1.393 . S
C814 H806 0.950 . S
C814 C812 1.391 . S
C814 C815 1.400 . S
C815 C814 1.400 . S
C815 C816 1.398 . S
C815 C821 1.491 . S
C816 H807 0.950 . S
C816 C815 1.398 . S
C816 C817 1.391 . S
C817 H805 0.950 . S
C817 C813 1.393 . S
C817 C816 1.391 . S
C818 H808 0.950 . S
C818 C819 1.386 . S
C818 C820 1.391 . S
C819 C818 1.386 . S
C819 C823 1.393 . S
C820 H809 0.950 . S
C820 C818 1.391 . S
C820 C821 1.400 . S
C821 C815 1.491 . S
C821 C820 1.400 . S
C821 C822 1.398 . S
C822 H810 0.950 . S
C822 C821 1.398 . S
C822 C823 1.391 . S
C823 H811 0.950 . S
C823 C819 1.393 . S
C823 C822 1.391 . S
H824 C832 0.950 . S
H825 C837 0.950 . S
H826 C834 0.950 1_565 S
H827 C836 0.950 . S
H828 C838 0.950 . S
H829 C840 0.950 1_545 S
H830 C842 0.950 . S
H831 C843 0.950 . S
C832 H824 0.950 . S
C832 C833 1.386 . S
C832 C834 1.391 . S
C833 C832 1.386 . S
C833 C837 1.393 . S
C834 H826 0.950 1_545 S
C834 C832 1.391 . S
C834 C835 1.400 . S
C835 C834 1.400 . S
C835 C836 1.398 . S
C835 C841 1.491 1_545 S
C836 H827 0.950 . S
C836 C835 1.398 . S
C836 C837 1.391 . S
C837 H825 0.950 . S
C837 C833 1.393 . S
C837 C836 1.391 . S
C838 H828 0.950 . S
C838 C839 1.386 . S
C838 C840 1.391 . S
C839 C838 1.386 . S
C839 C843 1.393 . S
C840 H829 0.950 1_565 S
C840 C838 1.391 . S
C840 C841 1.400 . S
C841 C835 1.491 1_565 S
C841 C840 1.400 . S
C841 C842 1.398 . S
C842 H830 0.950 . S
C842 C841 1.398 . S
C842 C843 1.391 . S
C843 H831 0.950 . S
C843 C839 1.393 . S
C843 C842 1.391 . S
H844 C852 0.950 . S
H845 C857 0.950 . S
H846 C854 0.950 . S
H847 C856 0.950 . S
H848 C858 0.950 . S
H849 C860 0.950 . S
H850 C862 0.950 . S
H851 C863 0.950 . S
C852 H844 0.950 . S
C852 C853 1.386 . S
C852 C854 1.391 . S
C853 C852 1.386 . S
C853 C857 1.393 . S
C854 H846 0.950 . S
C854 C852 1.391 . S
C854 C855 1.400 . S
C855 C854 1.400 . S
C855 C856 1.398 . S
C855 C861 1.491 . S
C856 H847 0.950 . S
C856 C855 1.398 . S
C856 C857 1.391 . S
C857 H845 0.950 . S
C857 C853 1.393 . S
C857 C856 1.391 . S
C858 H848 0.950 . S
C858 C859 1.386 . S
C858 C860 1.391 . S
C859 C858 1.386 . S
C859 C863 1.393 . S
C860 H849 0.950 . S
C860 C858 1.391 . S
C860 C861 1.400 . S
C861 C855 1.491 . S
C861 C860 1.400 . S
C861 C862 1.398 . S
C862 H850 0.950 . S
C862 C861 1.398 . S
C862 C863 1.391 . S
C863 H851 0.950 . S
C863 C859 1.393 . S
C863 C862 1.391 . S
C233 C8 1.359 . S
C239 C190 1.347 . S
C253 C22 1.207 . S
C259 C134 1.192 . S
C273 C204 1.054 . S
C279 C36 1.033 . S
C293 C50 0.993 . S
C299 C218 0.995 . S
C313 C64 1.200 . S
C319 C92 1.200 . S
C333 C148 1.370 . S
C339 C78 1.363 . S
C353 C162 1.049 . S
C359 C106 1.055 . S
C373 C120 0.991 . S
C379 C176 0.991 . S
C393 C41 1.621 . S
C399 C7 1.710 . S
C413 C21 1.527 . S
C419 C55 1.437 . S
C433 C175 1.475 . S
C439 C11 1.474 . S
C453 C25 1.461 . S
C459 C161 1.463 . S
C473 C67 1.467 . S
C479 C35 1.466 . S
C493 C151 1.472 . S
C499 C49 1.464 . S
C513 C27 1.515 . S
C519 C13 1.547 . S
C533 C53 1.458 . S
C539 C39 1.454 . S
C553 C153 1.515 . S
C559 C69 1.543 . S
C573 C105 1.479 . S
C579 C83 1.351 . S
C593 C97 1.360 . S
C599 C125 1.345 . S
C613 C221 1.562 . S
C619 C81 1.569 . S
C633 C95 1.631 . S
C639 C209 1.506 . S
C653 C137 1.635 . S
C659 C111 1.496 . S
C673 C123 1.562 . S
C679 C193 1.569 . S
C693 C91 1.765 . S
C699 C77 1.757 . S
C713 C119 1.347 . S
C719 C109 1.340 . S
C733 C133 1.765 . S
C739 C189 1.757 . S
C753 C147 1.708 . S
C759 C167 1.593 . S
C773 C181 1.468 . S
C779 C63 1.526 . S
C793 C179 1.466 . S
C799 C165 1.468 . S
C813 C203 1.487 . S
C819 C195 1.373 . S
C833 C139 1.362 . S
C839 C223 1.378 . S
C853 C217 1.340 . S
C859 C207 1.348 . S
