# Generated by pormake.
# Topology unw, (4)-cn, num edge types: 1
# Building blocks:
#     Node 0, Type 0, BuildingBlock: KOZSID_clean_sbu_0, # of connection points: 4
#     Node 1, Type 0, BuildingBlock: KOZSID_clean_sbu_0, # of connection points: 4
#     Node 2, Type 0, BuildingBlock: KOZSID_clean_sbu_0, # of connection points: 4
#     Node 3, Type 0, BuildingBlock: KOZSID_clean_sbu_0, # of connection points: 4
#     Node 4, Type 0, BuildingBlock: KOZSID_clean_sbu_0, # of connection points: 4
#     Node 5, Type 0, BuildingBlock: KOZSID_clean_sbu_0, # of connection points: 4
#     Node 6, Type 0, BuildingBlock: KOZSID_clean_sbu_0, # of connection points: 4
#     Node 7, Type 0, BuildingBlock: KOZSID_clean_sbu_0, # of connection points: 4
#     Node 8, Type 0, BuildingBlock: KOZSID_clean_sbu_0, # of connection points: 4
#     Node 9, Type 0, BuildingBlock: KOZSID_clean_sbu_0, # of connection points: 4
#     Node 10, Type 0, BuildingBlock: KOZSID_clean_sbu_0, # of connection points: 4
#     Node 11, Type 0, BuildingBlock: KOZSID_clean_sbu_0, # of connection points: 4
#     Node 12, Type 0, BuildingBlock: KOZSID_clean_sbu_0, # of connection points: 4
#     Node 13, Type 0, BuildingBlock: KOZSID_clean_sbu_0, # of connection points: 4
#     Node 14, Type 0, BuildingBlock: KOZSID_clean_sbu_0, # of connection points: 4
#     Node 15, Type 0, BuildingBlock: KOZSID_clean_sbu_0, # of connection points: 4
#     Node 16, Type 0, BuildingBlock: KOZSID_clean_sbu_0, # of connection points: 4
#     Node 17, Type 0, BuildingBlock: KOZSID_clean_sbu_0, # of connection points: 4
#     Node 18, Type 0, BuildingBlock: KOZSID_clean_sbu_0, # of connection points: 4
#     Node 19, Type 0, BuildingBlock: KOZSID_clean_sbu_0, # of connection points: 4
#     Node 20, Type 0, BuildingBlock: KOZSID_clean_sbu_0, # of connection points: 4
#     Node 21, Type 0, BuildingBlock: KOZSID_clean_sbu_0, # of connection points: 4
#     Node 22, Type 0, BuildingBlock: KOZSID_clean_sbu_0, # of connection points: 4
#     Node 23, Type 0, BuildingBlock: KOZSID_clean_sbu_0, # of connection points: 4
#     Edge 24, Type (0, 0), BuildingBlock: AJUNOK_clean_linker_0, # of connection points: 2
#     Edge 25, Type (0, 0), BuildingBlock: AJUNOK_clean_linker_0, # of connection points: 2
#     Edge 26, Type (0, 0), BuildingBlock: AJUNOK_clean_linker_0, # of connection points: 2
#     Edge 27, Type (0, 0), BuildingBlock: AJUNOK_clean_linker_0, # of connection points: 2
#     Edge 28, Type (0, 0), BuildingBlock: AJUNOK_clean_linker_0, # of connection points: 2
#     Edge 29, Type (0, 0), BuildingBlock: AJUNOK_clean_linker_0, # of connection points: 2
#     Edge 30, Type (0, 0), BuildingBlock: AJUNOK_clean_linker_0, # of connection points: 2
#     Edge 31, Type (0, 0), BuildingBlock: AJUNOK_clean_linker_0, # of connection points: 2
#     Edge 32, Type (0, 0), BuildingBlock: AJUNOK_clean_linker_0, # of connection points: 2
#     Edge 33, Type (0, 0), BuildingBlock: AJUNOK_clean_linker_0, # of connection points: 2
#     Edge 34, Type (0, 0), BuildingBlock: AJUNOK_clean_linker_0, # of connection points: 2
#     Edge 35, Type (0, 0), BuildingBlock: AJUNOK_clean_linker_0, # of connection points: 2
#     Edge 36, Type (0, 0), BuildingBlock: AJUNOK_clean_linker_0, # of connection points: 2
#     Edge 37, Type (0, 0), BuildingBlock: AJUNOK_clean_linker_0, # of connection points: 2
#     Edge 38, Type (0, 0), BuildingBlock: AJUNOK_clean_linker_0, # of connection points: 2
#     Edge 39, Type (0, 0), BuildingBlock: AJUNOK_clean_linker_0, # of connection points: 2
#     Edge 40, Type (0, 0), BuildingBlock: AJUNOK_clean_linker_0, # of connection points: 2
#     Edge 41, Type (0, 0), BuildingBlock: AJUNOK_clean_linker_0, # of connection points: 2
#     Edge 42, Type (0, 0), BuildingBlock: AJUNOK_clean_linker_0, # of connection points: 2
#     Edge 43, Type (0, 0), BuildingBlock: AJUNOK_clean_linker_0, # of connection points: 2
#     Edge 44, Type (0, 0), BuildingBlock: AJUNOK_clean_linker_0, # of connection points: 2
#     Edge 45, Type (0, 0), BuildingBlock: AJUNOK_clean_linker_0, # of connection points: 2
#     Edge 46, Type (0, 0), BuildingBlock: AJUNOK_clean_linker_0, # of connection points: 2
#     Edge 47, Type (0, 0), BuildingBlock: AJUNOK_clean_linker_0, # of connection points: 2
#     Edge 48, Type (0, 0), BuildingBlock: AJUNOK_clean_linker_0, # of connection points: 2
#     Edge 49, Type (0, 0), BuildingBlock: AJUNOK_clean_linker_0, # of connection points: 2
#     Edge 50, Type (0, 0), BuildingBlock: AJUNOK_clean_linker_0, # of connection points: 2
#     Edge 51, Type (0, 0), BuildingBlock: AJUNOK_clean_linker_0, # of connection points: 2
#     Edge 52, Type (0, 0), BuildingBlock: AJUNOK_clean_linker_0, # of connection points: 2
#     Edge 53, Type (0, 0), BuildingBlock: AJUNOK_clean_linker_0, # of connection points: 2
#     Edge 54, Type (0, 0), BuildingBlock: AJUNOK_clean_linker_0, # of connection points: 2
#     Edge 55, Type (0, 0), BuildingBlock: AJUNOK_clean_linker_0, # of connection points: 2
#     Edge 56, Type (0, 0), BuildingBlock: AJUNOK_clean_linker_0, # of connection points: 2
#     Edge 57, Type (0, 0), BuildingBlock: AJUNOK_clean_linker_0, # of connection points: 2
#     Edge 58, Type (0, 0), BuildingBlock: AJUNOK_clean_linker_0, # of connection points: 2
#     Edge 59, Type (0, 0), BuildingBlock: AJUNOK_clean_linker_0, # of connection points: 2
#     Edge 60, Type (0, 0), BuildingBlock: AJUNOK_clean_linker_0, # of connection points: 2
#     Edge 61, Type (0, 0), BuildingBlock: AJUNOK_clean_linker_0, # of connection points: 2
#     Edge 62, Type (0, 0), BuildingBlock: AJUNOK_clean_linker_0, # of connection points: 2
#     Edge 63, Type (0, 0), BuildingBlock: AJUNOK_clean_linker_0, # of connection points: 2
#     Edge 64, Type (0, 0), BuildingBlock: AJUNOK_clean_linker_0, # of connection points: 2
#     Edge 65, Type (0, 0), BuildingBlock: AJUNOK_clean_linker_0, # of connection points: 2
#     Edge 66, Type (0, 0), BuildingBlock: AJUNOK_clean_linker_0, # of connection points: 2
#     Edge 67, Type (0, 0), BuildingBlock: AJUNOK_clean_linker_0, # of connection points: 2
#     Edge 68, Type (0, 0), BuildingBlock: AJUNOK_clean_linker_0, # of connection points: 2
#     Edge 69, Type (0, 0), BuildingBlock: AJUNOK_clean_linker_0, # of connection points: 2
#     Edge 70, Type (0, 0), BuildingBlock: AJUNOK_clean_linker_0, # of connection points: 2
#     Edge 71, Type (0, 0), BuildingBlock: AJUNOK_clean_linker_0, # of connection points: 2
# Relax obj value: 0.349
# Max RMSD: 0.301
# Mean RMSD: 0.271
data_MOF--net-unw--node1-KOZSID_clean_sbu_0--edge1-AJUNOK_clean_linker_0
_symmetry_space_group_name_H-M    P1
_symmetry_Int_Tables_number       1
_symmetry_cell_setting            triclinic
loop_
_symmetry_equiv_pos_as_xyz
'x, y, z'
_cell_length_a     49.493929
_cell_length_b     40.198494
_cell_length_c     42.543137
_cell_angle_alpha  90.016
_cell_angle_beta   90.675735
_cell_angle_gamma 89.954823
loop_
_atom_site_label
_atom_site_type_symbol
_atom_site_fract_x
_atom_site_fract_y
_atom_site_fract_z
_atom_type_partial_charge
C0 C 0.13417 0.45409 0.22552 0.0
C1 C 0.11611 0.45658 0.20054 0.0
C2 C 0.09965 0.42895 0.20194 0.0
C3 C 0.10854 0.41107 0.22769 0.0
N4 N 0.12917 0.42627 0.24275 0.0
Co5 Co 0.15183 0.40709 0.27699 0.0
N6 N 0.13917 0.36141 0.26844 0.0
C7 C 0.11645 0.35328 0.25249 0.0
C8 C 0.11286 0.3194 0.25064 0.0
C9 C 0.13463 0.30568 0.2664 0.0
C10 C 0.1504 0.332 0.27695 0.0
N11 N 0.17659 0.38874 0.30957 0.0
C12 C 0.18551 0.35723 0.3135 0.0
C13 C 0.20419 0.35545 0.33813 0.0
C14 C 0.20648 0.38692 0.35032 0.0
C15 C 0.18944 0.40618 0.3323 0.0
N16 N 0.1639 0.45314 0.28588 0.0
C17 C 0.17578 0.46386 0.31265 0.0
C18 C 0.18352 0.49656 0.31098 0.0
C19 C 0.17666 0.50676 0.2812 0.0
C20 C 0.16476 0.47967 0.2662 0.0
N21 N 0.12154 0.41038 0.30839 0.0
C22 C 0.0751 0.38884 0.34199 0.0
C23 C 0.10126 0.38456 0.35414 0.0
C24 C 0.12379 0.39444 0.33695 0.0
C25 C 0.07268 0.40936 0.31529 0.0
C26 C 0.09604 0.4209 0.29972 0.0
N27 N 0.18057 0.40106 0.24618 0.0
C28 C 0.22776 0.39588 0.23384 0.0
C29 C 0.22118 0.37712 0.20696 0.0
C30 C 0.194 0.37289 0.19902 0.0
C31 C 0.17419 0.38507 0.2187 0.0
C32 C 0.20705 0.40787 0.25311 0.0
H33 H 0.15365 0.37965 0.2123 0.0
H34 H 0.21246 0.42119 0.27428 0.0
H35 H 0.14266 0.38689 0.347 0.0
H36 H 0.09295 0.43691 0.27977 0.0
C37 C 0.10267 0.37743 0.23425 0.0
C38 C 0.15551 0.47874 0.2331 0.0
C39 C 0.1755 0.32854 0.2955 0.0
C40 C 0.18704 0.44083 0.33373 0.0
H41 H 0.11539 0.47591 0.18284 0.0
H42 H 0.08437 0.42166 0.1849 0.0
H43 H 0.09715 0.30616 0.23792 0.0
H44 H 0.13864 0.27939 0.26942 0.0
H45 H 0.21502 0.33379 0.34658 0.0
H46 H 0.21962 0.39493 0.36937 0.0
H47 H 0.19532 0.51039 0.32812 0.0
H48 H 0.1813 0.53092 0.27173 0.0
H49 H 0.10468 0.3721 0.37638 0.0
H50 H 0.05299 0.41547 0.30559 0.0
H51 H 0.24863 0.40055 0.24033 0.0
H52 H 0.18793 0.3587 0.17847 0.0
C53 C 0.62543 0.10276 0.29428 0.0
C54 C 0.60778 0.1082 0.31877 0.0
C55 C 0.59442 0.13762 0.31206 0.0
C56 C 0.60467 0.14863 0.28392 0.0
N57 N 0.62335 0.12761 0.27275 0.0
Co58 Co 0.64684 0.13539 0.23623 0.0
N59 N 0.64104 0.18373 0.23751 0.0
C60 C 0.62022 0.19916 0.25142 0.0
C61 C 0.62141 0.23314 0.24776 0.0
C62 C 0.64426 0.23903 0.23037 0.0
C63 C 0.65584 0.20824 0.22443 0.0
N64 N 0.67127 0.1419 0.20039 0.0
C65 C 0.6843 0.16969 0.19126 0.0
C66 C 0.69976 0.16344 0.16485 0.0
C67 C 0.69574 0.13062 0.1571 0.0
C68 C 0.67822 0.11863 0.17918 0.0
N69 N 0.65228 0.08694 0.23477 0.0
C70 C 0.66011 0.06896 0.20985 0.0
C71 C 0.66326 0.0358 0.2171 0.0
C72 C 0.65733 0.03315 0.24852 0.0
C73 C 0.65094 0.06494 0.25863 0.0
N74 N 0.6153 0.13267 0.20676 0.0
C75 C 0.56689 0.14689 0.17269 0.0
C76 C 0.592 0.15875 0.16286 0.0
C77 C 0.61542 0.15222 0.18033 0.0
C78 C 0.56708 0.1248 0.19849 0.0
C79 C 0.59155 0.11736 0.21462 0.0
N80 N 0.67752 0.14072 0.26545 0.0
C81 C 0.72522 0.1384 0.27729 0.0
C82 C 0.72169 0.15983 0.30302 0.0
C83 C 0.69561 0.16991 0.31044 0.0
C84 C 0.67401 0.16043 0.29134 0.0
C85 C 0.70272 0.12873 0.25898 0.0
H86 H 0.65459 0.1706 0.29691 0.0
H87 H 0.7058 0.11274 0.23894 0.0
H88 H 0.63315 0.16545 0.17325 0.0
H89 H 0.59081 0.10098 0.2347 0.0
C90 C 0.60335 0.18151 0.27223 0.0
C91 C 0.64378 0.07396 0.29085 0.0
C92 C 0.67994 0.20267 0.20507 0.0
C93 C 0.67148 0.08506 0.18388 0.0
H94 H 0.60534 0.09312 0.33959 0.0
H95 H 0.58056 0.15067 0.32722 0.0
H96 H 0.60799 0.25155 0.25762 0.0
H97 H 0.65156 0.26312 0.22296 0.0
H98 H 0.71227 0.18084 0.1522 0.0
H99 H 0.70518 0.11694 0.13826 0.0
H100 H 0.67109 0.01636 0.20212 0.0
H101 H 0.65837 0.01073 0.26257 0.0
H102 H 0.59356 0.17485 0.14255 0.0
H103 H 0.54844 0.1147 0.20742 0.0
H104 H 0.74519 0.12977 0.27106 0.0
H105 H 0.69205 0.18657 0.33 0.0
C106 C 0.9034 0.56131 0.23374 0.0
C107 C 0.91989 0.56686 0.20823 0.0
C108 C 0.93349 0.59629 0.21422 0.0
C109 C 0.92467 0.60713 0.24311 0.0
N110 N 0.90674 0.58589 0.25546 0.0
Co111 Co 0.88472 0.59365 0.2931 0.0
N112 N 0.88994 0.64205 0.29153 0.0
C113 C 0.91005 0.65766 0.27646 0.0
C114 C 0.90842 0.69165 0.27976 0.0
C115 C 0.88611 0.69731 0.29815 0.0
C116 C 0.87533 0.66637 0.30523 0.0
N117 N 0.86125 0.59976 0.32976 0.0
C118 C 0.84822 0.6273 0.33945 0.0
C119 C 0.8343 0.62103 0.36703 0.0
C120 C 0.83916 0.58837 0.37473 0.0
C121 C 0.85572 0.57659 0.35157 0.0
N122 N 0.88009 0.54498 0.29485 0.0
C123 C 0.8738 0.52721 0.32051 0.0
C124 C 0.87028 0.4941 0.31383 0.0
C125 C 0.87418 0.49113 0.28205 0.0
C126 C 0.88013 0.52278 0.27087 0.0
N127 N 0.91736 0.5924 0.32149 0.0
C128 C 0.96591 0.6127 0.35267 0.0
C129 C 0.94055 0.6215 0.36401 0.0
C130 C 0.91701 0.61184 0.34811 0.0
C131 C 0.96635 0.59011 0.32725 0.0
C132 C 0.94188 0.57992 0.31229 0.0
N133 N 0.85307 0.59848 0.26521 0.0
C134 C 0.80512 0.59506 0.25482 0.0
C135 C 0.80737 0.61915 0.23102 0.0
C136 C 0.83293 0.63089 0.22355 0.0
C137 C 0.85532 0.6201 0.24052 0.0
C138 C 0.82837 0.58508 0.27182 0.0
H139 H 0.87439 0.63072 0.23433 0.0
H140 H 0.82629 0.56781 0.2911 0.0
H141 H 0.89885 0.62301 0.35654 0.0
H142 H 0.94306 0.5637 0.29212 0.0
C143 C 0.92618 0.64008 0.25472 0.0
C144 C 0.88542 0.53206 0.23783 0.0
C145 C 0.85192 0.66036 0.32568 0.0
C146 C 0.86322 0.54331 0.34692 0.0
H147 H 0.92137 0.55171 0.18729 0.0
H148 H 0.9465 0.60947 0.1982 0.0
H149 H 0.92107 0.71021 0.26886 0.0
H150 H 0.87859 0.72139 0.30531 0.0
H151 H 0.82255 0.63844 0.38066 0.0
H152 H 0.8311 0.57475 0.39445 0.0
H153 H 0.86318 0.47488 0.32952 0.0
H154 H 0.87181 0.46822 0.26922 0.0
H155 H 0.93873 0.63743 0.38442 0.0
H156 H 0.98543 0.58166 0.31795 0.0
H157 H 0.78555 0.58528 0.26114 0.0
H158 H 0.83559 0.64897 0.20495 0.0
C159 C 0.38726 0.94247 0.30223 0.0
C160 C 0.40364 0.94477 0.32873 0.0
C161 C 0.42044 0.9173 0.3284 0.0
C162 C 0.41347 0.89967 0.30172 0.0
N163 N 0.39366 0.91485 0.28523 0.0
Co164 Co 0.37343 0.89586 0.249 0.0
N165 N 0.38539 0.85009 0.25825 0.0
C166 C 0.40712 0.84189 0.27595 0.0
C167 C 0.41088 0.80801 0.27742 0.0
C168 C 0.39037 0.79442 0.25939 0.0
C169 C 0.37513 0.8208 0.24787 0.0
N170 N 0.35099 0.87811 0.21406 0.0
C171 C 0.34244 0.84671 0.20873 0.0
C172 C 0.32688 0.84507 0.18133 0.0
C173 C 0.32606 0.87661 0.16907 0.0
C174 C 0.341 0.89568 0.18959 0.0
N175 N 0.36217 0.94199 0.2392 0.0
C176 C 0.35287 0.95306 0.21125 0.0
C177 C 0.34533 0.9859 0.21218 0.0
C178 C 0.34971 0.99585 0.24264 0.0
C179 C 0.35995 0.96846 0.25875 0.0
N180 N 0.40588 0.89887 0.22073 0.0
C181 C 0.45616 0.87939 0.1931 0.0
C182 C 0.43111 0.87061 0.17976 0.0
C183 C 0.4068 0.87957 0.19404 0.0
C184 C 0.45507 0.90192 0.21859 0.0
C185 C 0.42994 0.91237 0.23096 0.0
N186 N 0.34275 0.88978 0.27733 0.0
C187 C 0.29506 0.88768 0.28827 0.0
C188 C 0.3002 0.86935 0.31596 0.0
C189 C 0.32704 0.86317 0.32437 0.0
C190 C 0.34771 0.8737 0.30514 0.0
C191 C 0.3167 0.89762 0.26918 0.0
H192 H 0.36781 0.86727 0.31248 0.0
H193 H 0.31241 0.91067 0.2475 0.0
H194 H 0.38921 0.86837 0.18378 0.0
H195 H 0.43046 0.92979 0.25019 0.0
C196 C 0.41978 0.86602 0.29539 0.0
C197 C 0.36659 0.96738 0.29259 0.0
C198 C 0.35138 0.81762 0.22683 0.0
C199 C 0.34374 0.93032 0.18859 0.0
H200 H 0.40311 0.96392 0.3466 0.0
H201 H 0.43464 0.90993 0.34665 0.0
H202 H 0.4259 0.79465 0.29114 0.0
H203 H 0.38685 0.76817 0.25545 0.0
H204 H 0.31769 0.82326 0.17082 0.0
H205 H 0.31546 0.88469 0.14802 0.0
H206 H 0.33536 1.00006 0.19377 0.0
H207 H 0.34474 0.02012 0.25174 0.0
H208 H 0.42993 0.8552 0.15893 0.0
H209 H 0.47324 0.91045 0.2303 0.0
H210 H 0.2746 0.89385 0.28116 0.0
H211 H 0.33223 0.84897 0.34522 0.0
C212 C 0.10573 0.56291 0.77169 0.0
C213 C 0.08826 0.56722 0.79653 0.0
C214 C 0.07399 0.59616 0.79046 0.0
C215 C 0.08341 0.60796 0.7622 0.0
N216 N 0.10244 0.58784 0.75035 0.0
Co217 Co 0.12485 0.59705 0.71333 0.0
N218 N 0.11777 0.64514 0.71504 0.0
C219 C 0.09688 0.65957 0.72973 0.0
C220 C 0.09747 0.69366 0.72686 0.0
C221 C 0.11994 0.70063 0.70912 0.0
C222 C 0.13185 0.67033 0.702 0.0
N223 N 0.14838 0.60473 0.67701 0.0
C224 C 0.16042 0.63301 0.66765 0.0
C225 C 0.17464 0.62783 0.64007 0.0
C226 C 0.17104 0.59504 0.63204 0.0
C227 C 0.15486 0.58213 0.65501 0.0
N228 N 0.13143 0.54869 0.71133 0.0
C229 C 0.13884 0.53154 0.68568 0.0
C230 C 0.14324 0.49852 0.69202 0.0
C231 C 0.13858 0.49489 0.72357 0.0
C232 C 0.13127 0.52605 0.7349 0.0
N233 N 0.09286 0.59382 0.68444 0.0
C234 C 0.04358 0.60763 0.652 0.0
C235 C 0.06788 0.62192 0.64272 0.0
C236 C 0.09187 0.61498 0.65906 0.0
C237 C 0.04477 0.58436 0.67682 0.0
C238 C 0.06966 0.57731 0.69228 0.0
N239 N 0.15585 0.60366 0.74201 0.0
C240 C 0.20369 0.60347 0.75368 0.0
C241 C 0.20011 0.62708 0.77786 0.0
C242 C 0.17381 0.63746 0.78409 0.0
C243 C 0.15223 0.62497 0.76669 0.0
C244 C 0.18125 0.59214 0.73591 0.0
H245 H 0.13262 0.63445 0.77231 0.0
H246 H 0.18447 0.5752 0.71659 0.0
H247 H 0.10905 0.62947 0.65237 0.0
H248 H 0.06975 0.56008 0.71177 0.0
C249 C 0.08094 0.64092 0.75083 0.0
C250 C 0.12435 0.53427 0.76769 0.0
C251 C 0.15571 0.66562 0.68193 0.0
C252 C 0.14885 0.54841 0.65944 0.0
H253 H 0.08645 0.55149 0.81703 0.0
H254 H 0.05996 0.60835 0.80603 0.0
H255 H 0.08403 0.71146 0.73763 0.0
H256 H 0.1268 0.72514 0.7024 0.0
H257 H 0.18584 0.64597 0.6267 0.0
H258 H 0.17972 0.58206 0.61229 0.0
H259 H 0.15119 0.47985 0.67628 0.0
H260 H 0.14124 0.4719 0.73622 0.0
H261 H 0.06817 0.6405 0.62428 0.0
H262 H 0.0265 0.57241 0.68481 0.0
H263 H 0.22367 0.59449 0.74799 0.0
H264 H 0.16969 0.65649 0.80137 0.0
C265 C 0.38561 0.10275 0.71809 0.0
C266 C 0.40294 0.10904 0.69349 0.0
C267 C 0.41543 0.13901 0.70021 0.0
C268 C 0.40503 0.14948 0.72849 0.0
N269 N 0.38712 0.12756 0.73973 0.0
Co270 Co 0.36338 0.13424 0.77616 0.0
N271 N 0.36724 0.18283 0.77451 0.0
C272 C 0.38755 0.19931 0.76068 0.0
C273 C 0.38502 0.2332 0.76412 0.0
C274 C 0.36186 0.23791 0.78128 0.0
C275 C 0.35143 0.20654 0.78731 0.0
N276 N 0.33876 0.13956 0.81195 0.0
C277 C 0.3246 0.1666 0.82083 0.0
C278 C 0.30937 0.15961 0.84725 0.0
C279 C 0.31475 0.12714 0.85525 0.0
C280 C 0.33279 0.11605 0.8333 0.0
N281 N 0.3599 0.08554 0.77784 0.0
C282 C 0.35277 0.06722 0.80281 0.0
C283 C 0.35052 0.03396 0.79548 0.0
C284 C 0.35625 0.03163 0.76395 0.0
C285 C 0.36163 0.06369 0.75387 0.0
N286 N 0.39488 0.13369 0.80571 0.0
C287 C 0.44263 0.14904 0.84039 0.0
C288 C 0.41755 0.16214 0.84877 0.0
C289 C 0.39437 0.15474 0.83111 0.0
C290 C 0.44278 0.12539 0.81586 0.0
C291 C 0.41867 0.11783 0.79904 0.0
N292 N 0.33256 0.13739 0.74689 0.0
C293 C 0.28559 0.12923 0.73348 0.0
C294 C 0.28784 0.15121 0.70791 0.0
C295 C 0.31306 0.16517 0.70191 0.0
C296 C 0.33496 0.1579 0.72141 0.0
C297 C 0.3083 0.12246 0.75261 0.0
H298 H 0.35369 0.17018 0.7164 0.0
H299 H 0.30612 0.10605 0.77251 0.0
H300 H 0.37642 0.16818 0.83718 0.0
H301 H 0.41961 0.10056 0.77961 0.0
C302 C 0.40515 0.18246 0.74004 0.0
C303 C 0.36807 0.0732 0.72155 0.0
C304 C 0.32758 0.19967 0.80668 0.0
C305 C 0.34082 0.08284 0.82873 0.0
H306 H 0.40568 0.09416 0.67258 0.0
H307 H 0.42872 0.15276 0.68494 0.0
H308 H 0.39778 0.25229 0.75425 0.0
H309 H 0.35362 0.26161 0.78853 0.0
H310 H 0.29608 0.1763 0.85972 0.0
H311 H 0.30582 0.11303 0.87414 0.0
H312 H 0.34328 0.01419 0.81045 0.0
H313 H 0.35565 0.00925 0.74981 0.0
H314 H 0.41584 0.17925 0.86831 0.0
H315 H 0.46154 0.11395 0.80873 0.0
H316 H 0.26638 0.11787 0.73894 0.0
H317 H 0.3157 0.18295 0.68308 0.0
C318 C 0.87406 0.44812 0.78689 0.0
C319 C 0.89091 0.44966 0.81305 0.0
C320 C 0.90701 0.42167 0.81222 0.0
C321 C 0.89913 0.40453 0.78563 0.0
N322 N 0.87958 0.42057 0.76934 0.0
Co323 Co 0.85794 0.40217 0.73369 0.0
N324 N 0.87014 0.35607 0.74179 0.0
C325 C 0.89203 0.34739 0.75908 0.0
C326 C 0.89594 0.31353 0.75973 0.0
C327 C 0.87535 0.30031 0.74166 0.0
C328 C 0.85993 0.32691 0.73096 0.0
N329 N 0.83395 0.38476 0.69973 0.0
C330 C 0.82591 0.35327 0.69375 0.0
C331 C 0.80836 0.35213 0.66801 0.0
C332 C 0.80546 0.38415 0.65749 0.0
C333 C 0.8212 0.40295 0.67741 0.0
N334 N 0.84638 0.44869 0.72524 0.0
C335 C 0.83501 0.46003 0.69838 0.0
C336 C 0.82733 0.49274 0.70038 0.0
C337 C 0.8335 0.5023 0.7305 0.0
C338 C 0.845 0.47487 0.74539 0.0
N339 N 0.88933 0.40546 0.70344 0.0
C340 C 0.93526 0.38102 0.66996 0.0
C341 C 0.9093 0.3813 0.65647 0.0
C342 C 0.887 0.39289 0.6734 0.0
C343 C 0.93815 0.39854 0.69849 0.0
C344 C 0.91525 0.4116 0.71399 0.0
N345 N 0.82826 0.39599 0.76339 0.0
C346 C 0.78086 0.39461 0.7757 0.0
C347 C 0.78644 0.37607 0.80303 0.0
C348 C 0.8133 0.36948 0.81086 0.0
C349 C 0.8337 0.37953 0.79091 0.0
C350 C 0.80215 0.40453 0.75623 0.0
H351 H 0.85385 0.37254 0.79748 0.0
H352 H 0.79743 0.41803 0.73496 0.0
H353 H 0.86805 0.38989 0.66159 0.0
H354 H 0.91899 0.42541 0.73517 0.0
C355 C 0.90494 0.37093 0.7788 0.0
C356 C 0.85313 0.47326 0.77887 0.0
C357 C 0.83593 0.32388 0.71044 0.0
C358 C 0.82381 0.43756 0.67681 0.0
H359 H 0.89095 0.46851 0.83122 0.0
H360 H 0.92129 0.41364 0.83012 0.0
H361 H 0.91115 0.29991 0.77294 0.0
H362 H 0.87188 0.27415 0.73717 0.0
H363 H 0.79899 0.33039 0.65758 0.0
H364 H 0.79318 0.39268 0.63788 0.0
H365 H 0.81583 0.5069 0.68321 0.0
H366 H 0.82849 0.52624 0.74024 0.0
H367 H 0.90573 0.37172 0.63303 0.0
H368 H 0.95781 0.4013 0.70957 0.0
H369 H 0.76026 0.40081 0.76912 0.0
H370 H 0.81858 0.35522 0.83166 0.0
C371 C 0.62108 0.94127 0.70775 0.0
C372 C 0.60333 0.94387 0.68247 0.0
C373 C 0.58717 0.91587 0.68314 0.0
C374 C 0.59588 0.89767 0.70878 0.0
N375 N 0.6162 0.91295 0.7243 0.0
Co376 Co 0.63829 0.89374 0.75891 0.0
N377 N 0.62672 0.84791 0.74937 0.0
C378 C 0.6044 0.83952 0.73279 0.0
C379 C 0.60128 0.80558 0.73066 0.0
C380 C 0.62288 0.79214 0.74701 0.0
C381 C 0.63809 0.81867 0.75823 0.0
N382 N 0.66236 0.87566 0.79223 0.0
C383 C 0.67179 0.84439 0.79617 0.0
C384 C 0.68863 0.84246 0.82251 0.0
C385 C 0.68939 0.87365 0.83555 0.0
C386 C 0.67315 0.89284 0.81648 0.0
N387 N 0.64928 0.93985 0.76904 0.0
C388 C 0.65968 0.95043 0.79666 0.0
C389 C 0.66662 0.98344 0.79606 0.0
C390 C 0.66064 0.99407 0.76617 0.0
C391 C 0.65004 0.96687 0.75004 0.0
N392 N 0.60707 0.89573 0.78896 0.0
C393 C 0.55847 0.87477 0.81867 0.0
C394 C 0.584 0.86678 0.83106 0.0
C395 C 0.60755 0.87625 0.81556 0.0
C396 C 0.55806 0.89821 0.79403 0.0
C397 C 0.58251 0.90926 0.78042 0.0
N398 N 0.66789 0.88887 0.72887 0.0
C399 C 0.71532 0.88527 0.71684 0.0
C400 C 0.70916 0.86729 0.68936 0.0
C401 C 0.6822 0.86249 0.68107 0.0
C402 C 0.66205 0.87356 0.70085 0.0
C403 C 0.69423 0.89595 0.7364 0.0
H404 H 0.64168 0.86787 0.69395 0.0
H405 H 0.6992 0.90843 0.75818 0.0
H406 H 0.62569 0.86535 0.82478 0.0
H407 H 0.58102 0.92721 0.7617 0.0
C408 C 0.59045 0.86374 0.71471 0.0
C409 C 0.64161 0.96652 0.71668 0.0
C410 C 0.66286 0.81563 0.77759 0.0
C411 C 0.67004 0.92739 0.81832 0.0
H412 H 0.60251 0.9636 0.66519 0.0
H413 H 0.57218 0.90864 0.66572 0.0
H414 H 0.58594 0.79215 0.71751 0.0
H415 H 0.62712 0.76591 0.75002 0.0
H416 H 0.69886 0.82068 0.83174 0.0
H417 H 0.70089 0.88151 0.85604 0.0
H418 H 0.67718 0.99738 0.81419 0.0
H419 H 0.66481 0.01871 0.7575 0.0
H420 H 0.58608 0.85163 0.85196 0.0
H421 H 0.53905 0.90694 0.78426 0.0
H422 H 0.73613 0.88966 0.7238 0.0
H423 H 0.67669 0.84917 0.65978 0.0
C424 C 0.29702 0.0847 0.38062 0.0
C425 C 0.31702 0.08424 0.40364 0.0
C426 C 0.3133 0.11236 0.42168 0.0
C427 C 0.29121 0.12842 0.40878 0.0
N428 N 0.2808 0.11181 0.38408 0.0
Co429 Co 0.25139 0.12756 0.35579 0.0
N430 N 0.25626 0.17439 0.36847 0.0
C431 C 0.26909 0.18463 0.39484 0.0
C432 C 0.26887 0.21864 0.39795 0.0
C433 C 0.25474 0.23025 0.37218 0.0
C434 C 0.24691 0.2026 0.35472 0.0
N435 N 0.22257 0.14214 0.32609 0.0
C436 C 0.21684 0.17285 0.31477 0.0
C437 C 0.19436 0.17177 0.29485 0.0
C438 C 0.18574 0.13937 0.29411 0.0
C439 C 0.20325 0.12246 0.31357 0.0
N440 N 0.24668 0.08033 0.34358 0.0
C441 C 0.2246 0.06702 0.32982 0.0
C442 C 0.22844 0.03444 0.3212 0.0
C443 C 0.25458 0.02701 0.32974 0.0
C444 C 0.26527 0.05544 0.34359 0.0
N445 N 0.22405 0.12407 0.39004 0.0
C446 C 0.19036 0.13345 0.44316 0.0
C447 C 0.18629 0.15135 0.41551 0.0
C448 C 0.20327 0.14682 0.38994 0.0
C449 C 0.21111 0.10933 0.44332 0.0
C450 C 0.22736 0.10456 0.41631 0.0
N451 N 0.27808 0.13402 0.32255 0.0
C452 C 0.28754 0.14009 0.26742 0.0
C453 C 0.31012 0.15998 0.27448 0.0
C454 C 0.31738 0.16444 0.30603 0.0
C455 C 0.30123 0.15123 0.32957 0.0
C456 C 0.27199 0.12692 0.29183 0.0
H457 H 0.30663 0.15701 0.35351 0.0
H458 H 0.25419 0.11268 0.28584 0.0
H459 H 0.20022 0.16397 0.37104 0.0
H460 H 0.2433 0.0862 0.4173 0.0
C461 C 0.28435 0.16208 0.41326 0.0
C462 C 0.29296 0.05856 0.35655 0.0
C463 C 0.22899 0.20383 0.32669 0.0
C464 C 0.20457 0.08785 0.31713 0.0
H465 H 0.33285 0.06588 0.40662 0.0
H466 H 0.3264 0.12121 0.44044 0.0
H467 H 0.27851 0.23333 0.4162 0.0
H468 H 0.2505 0.2561 0.36701 0.0
H469 H 0.18456 0.19237 0.28296 0.0
H470 H 0.16897 0.12932 0.2806 0.0
H471 H 0.21479 0.01888 0.30763 0.0
H472 H 0.26466 0.00374 0.32501 0.0
H473 H 0.17097 0.1706 0.41422 0.0
H474 H 0.21504 0.0947 0.46425 0.0
H475 H 0.28149 0.13557 0.24325 0.0
H476 H 0.33453 0.17975 0.31263 0.0
C477 C 0.90237 0.20095 0.44903 0.0
C478 C 0.91278 0.16897 0.44946 0.0
C479 C 0.92567 0.16458 0.42142 0.0
C480 C 0.92245 0.19407 0.40544 0.0
N481 N 0.90912 0.21736 0.42225 0.0
Co482 Co 0.89532 0.26138 0.40668 0.0
N483 N 0.90368 0.25026 0.36211 0.0
C484 C 0.91687 0.22301 0.35172 0.0
C485 C 0.9176 0.22113 0.3195 0.0
C486 C 0.90373 0.24854 0.30889 0.0
C487 C 0.89537 0.26569 0.33533 0.0
N488 N 0.88099 0.30518 0.39195 0.0
C489 C 0.87584 0.31598 0.36246 0.0
C490 C 0.86565 0.34821 0.36235 0.0
C491 C 0.8638 0.35773 0.39307 0.0
C492 C 0.87298 0.33093 0.41001 0.0
N493 N 0.88617 0.27179 0.4513 0.0
C494 C 0.87802 0.30139 0.46284 0.0
C495 C 0.87027 0.2999 0.49364 0.0
C496 C 0.8727 0.2672 0.50191 0.0
C497 C 0.88205 0.2505 0.47562 0.0
N498 N 0.9325 0.28235 0.41092 0.0
C499 C 0.98093 0.31756 0.39539 0.0
C500 C 0.9599 0.33298 0.41181 0.0
C501 C 0.93631 0.31503 0.41961 0.0
C502 C 0.97787 0.28351 0.38945 0.0
C503 C 0.95451 0.26654 0.39849 0.0
N504 N 0.8592 0.24114 0.40014 0.0
C505 C 0.81106 0.24737 0.39142 0.0
C506 C 0.81021 0.21678 0.37566 0.0
C507 C 0.8335 0.19762 0.37465 0.0
C508 C 0.85751 0.21008 0.38695 0.0
C509 C 0.8358 0.25893 0.40393 0.0
H510 H 0.87474 0.19469 0.38389 0.0
H511 H 0.83608 0.28284 0.41526 0.0
H512 H 0.92133 0.32841 0.43216 0.0
H513 H 0.95462 0.24073 0.39392 0.0
C514 C 0.92521 0.19777 0.37267 0.0
C515 C 0.88462 0.2142 0.47349 0.0
C516 C 0.87886 0.2959 0.33426 0.0
C517 C 0.87199 0.32784 0.44267 0.0
H518 H 0.90995 0.15026 0.46741 0.0
H519 H 0.93407 0.14159 0.41258 0.0
H520 H 0.92608 0.2014 0.30537 0.0
H521 H 0.89963 0.25478 0.28455 0.0
H522 H 0.85952 0.36294 0.34221 0.0
H523 H 0.85577 0.38089 0.40197 0.0
H524 H 0.86155 0.31963 0.50757 0.0
H525 H 0.86676 0.25688 0.52421 0.0
H526 H 0.96139 0.35896 0.41833 0.0
H527 H 0.99294 0.2697 0.37667 0.0
H528 H 0.79313 0.26272 0.39293 0.0
H529 H 0.83346 0.17364 0.36299 0.0
C530 C 0.78994 0.89029 0.41785 0.0
C531 C 0.81181 0.91115 0.41275 0.0
C532 C 0.80778 0.92553 0.38353 0.0
C533 C 0.78348 0.91341 0.37244 0.0
N534 N 0.77211 0.89288 0.39328 0.0
Co535 Co 0.73877 0.86689 0.38627 0.0
N536 N 0.74223 0.86817 0.34029 0.0
C537 C 0.75668 0.8909 0.32447 0.0
C538 C 0.75439 0.88672 0.29247 0.0
C539 C 0.7372 0.86009 0.28823 0.0
C540 C 0.72992 0.84929 0.31797 0.0
N541 N 0.70574 0.83987 0.38084 0.0
C542 C 0.69697 0.82224 0.35562 0.0
C543 C 0.67272 0.80645 0.36228 0.0
C544 C 0.66593 0.81546 0.39234 0.0
C545 C 0.6864 0.83595 0.40257 0.0
N546 N 0.73552 0.86638 0.43223 0.0
C547 C 0.71268 0.86246 0.44844 0.0
C548 C 0.71718 0.86441 0.48041 0.0
C549 C 0.7446 0.86943 0.48414 0.0
C550 C 0.75529 0.86971 0.45416 0.0
N551 N 0.71658 0.90805 0.38307 0.0
C552 C 0.68924 0.96789 0.36727 0.0
C553 C 0.6822 0.93764 0.35329 0.0
C554 C 0.69592 0.90853 0.36129 0.0
C555 C 0.70998 0.9674 0.39029 0.0
C556 C 0.72311 0.93713 0.39821 0.0
N557 N 0.76076 0.82649 0.38705 0.0
C558 C 0.76665 0.76777 0.39596 0.0
C559 C 0.79038 0.76831 0.37826 0.0
C560 C 0.7994 0.79835 0.36615 0.0
C561 C 0.78423 0.82684 0.37038 0.0
C562 C 0.75225 0.7975 0.40054 0.0
H563 H 0.79112 0.84891 0.35878 0.0
H564 H 0.73389 0.79693 0.414 0.0
H565 H 0.69054 0.88675 0.34807 0.0
H566 H 0.73922 0.93747 0.41559 0.0
C567 C 0.77489 0.91226 0.34063 0.0
C568 C 0.78428 0.87026 0.44663 0.0
C569 C 0.70924 0.82362 0.32421 0.0
C570 C 0.68999 0.84838 0.43335 0.0
H571 H 0.82879 0.91613 0.42808 0.0
H572 H 0.82186 0.94121 0.3711 0.0
H573 H 0.76445 0.9008 0.27437 0.0
H574 H 0.7304 0.85019 0.26584 0.0
H575 H 0.6608 0.79073 0.34683 0.0
H576 H 0.64846 0.80741 0.40536 0.0
H577 H 0.70276 0.85987 0.49886 0.0
H578 H 0.75571 0.87052 0.50619 0.0
H579 H 0.66703 0.93661 0.33475 0.0
H580 H 0.71629 0.99025 0.40167 0.0
H581 H 0.75915 0.74467 0.40559 0.0
H582 H 0.81741 0.79951 0.35194 0.0
C583 C 0.12944 0.79592 0.46258 0.0
C584 C 0.11218 0.82314 0.46268 0.0
C585 C 0.09674 0.82123 0.43543 0.0
C586 C 0.10509 0.79295 0.42005 0.0
N587 N 0.12446 0.77702 0.43649 0.0
Co588 Co 0.14604 0.73902 0.42138 0.0
N589 N 0.13882 0.74927 0.37694 0.0
C590 C 0.11825 0.76813 0.3662 0.0
C591 C 0.11849 0.77104 0.33399 0.0
C592 C 0.14037 0.75257 0.32426 0.0
C593 C 0.15231 0.73918 0.35111 0.0
N594 N 0.16847 0.70116 0.40805 0.0
C595 C 0.17993 0.69523 0.37996 0.0
C596 C 0.19349 0.6649 0.38048 0.0
C597 C 0.19012 0.65167 0.40996 0.0
C598 C 0.17469 0.67442 0.42581 0.0
N599 N 0.15288 0.72896 0.46595 0.0
C600 C 0.15935 0.69919 0.47813 0.0
C601 C 0.16291 0.70061 0.51028 0.0
C602 C 0.15867 0.73341 0.51836 0.0
C603 C 0.15297 0.75015 0.4906 0.0
N604 N 0.1136 0.70949 0.41996 0.0
C605 C 0.0648 0.67472 0.40625 0.0
C606 C 0.08812 0.66931 0.38892 0.0
C607 C 0.11177 0.68692 0.39574 0.0
C608 C 0.06677 0.69704 0.43185 0.0
C609 C 0.09143 0.71382 0.43856 0.0
N610 N 0.17766 0.76854 0.41959 0.0
C611 C 0.22556 0.77452 0.41151 0.0
C612 C 0.22093 0.80438 0.39522 0.0
C613 C 0.19503 0.81766 0.39462 0.0
C614 C 0.17381 0.79944 0.40668 0.0
C615 C 0.20349 0.75706 0.42399 0.0
H616 H 0.154 0.80937 0.40241 0.0
H617 H 0.20706 0.73321 0.43497 0.0
H618 H 0.12803 0.68338 0.37965 0.0
H619 H 0.0922 0.73126 0.45789 0.0
C620 C 0.10252 0.78702 0.38736 0.0
C621 C 0.1496 0.78641 0.48744 0.0
C622 C 0.1753 0.71558 0.35163 0.0
C623 C 0.16895 0.67401 0.45819 0.0
H624 H 0.11088 0.84273 0.47987 0.0
H625 H 0.08284 0.83994 0.42666 0.0
H626 H 0.10511 0.78588 0.31938 0.0
H627 H 0.14674 0.74938 0.30021 0.0
H628 H 0.20412 0.65313 0.36137 0.0
H629 H 0.19844 0.62859 0.41891 0.0
H630 H 0.17003 0.68094 0.52565 0.0
H631 H 0.16102 0.74418 0.54153 0.0
H632 H 0.08774 0.65287 0.36873 0.0
H633 H 0.04931 0.70193 0.44624 0.0
H634 H 0.2456 0.76374 0.41271 0.0
H635 H 0.19081 0.84085 0.38251 0.0
C636 C 0.22034 0.8942 0.59005 0.0
C637 C 0.19877 0.91549 0.59539 0.0
C638 C 0.20326 0.9299 0.62453 0.0
C639 C 0.22754 0.91737 0.63533 0.0
N640 N 0.23848 0.89661 0.61435 0.0
Co641 Co 0.2714 0.8697 0.62099 0.0
N642 N 0.26833 0.87098 0.66699 0.0
C643 C 0.25445 0.89417 0.68298 0.0
C644 C 0.25717 0.89015 0.71495 0.0
C645 C 0.27404 0.86314 0.71899 0.0
C646 C 0.2807 0.85194 0.68916 0.0
N647 N 0.30386 0.84153 0.6259 0.0
C648 C 0.31231 0.82329 0.65086 0.0
C649 C 0.33588 0.80618 0.64364 0.0
C650 C 0.34266 0.81512 0.61358 0.0
C651 C 0.32283 0.83682 0.60386 0.0
N652 N 0.27431 0.86929 0.575 0.0
C653 C 0.29693 0.86483 0.55852 0.0
C654 C 0.29217 0.86693 0.5266 0.0
C655 C 0.26479 0.87259 0.52321 0.0
C656 C 0.25439 0.87302 0.55332 0.0
N657 N 0.29442 0.91024 0.62432 0.0
C658 C 0.32204 0.96933 0.64215 0.0
C659 C 0.32938 0.9384 0.65451 0.0
C660 C 0.31552 0.90969 0.64554 0.0
C661 C 0.301 0.96991 0.6195 0.0
C662 C 0.28776 0.94002 0.61051 0.0
N663 N 0.24859 0.83002 0.6203 0.0
C664 C 0.24136 0.77155 0.61132 0.0
C665 C 0.21784 0.77287 0.62936 0.0
C666 C 0.20957 0.80317 0.64163 0.0
C667 C 0.22531 0.83111 0.6373 0.0
C668 C 0.25633 0.8008 0.60658 0.0
H669 H 0.21901 0.85334 0.64911 0.0
H670 H 0.27453 0.79963 0.59288 0.0
H671 H 0.32107 0.88737 0.6578 0.0
H672 H 0.27139 0.94126 0.59352 0.0
C673 C 0.23642 0.916 0.66704 0.0
C674 C 0.22549 0.87386 0.56127 0.0
C675 C 0.30085 0.82565 0.68266 0.0
C676 C 0.31936 0.84969 0.57323 0.0
H677 H 0.18169 0.9207 0.58024 0.0
H678 H 0.18947 0.94583 0.63713 0.0
H679 H 0.24764 0.90463 0.73319 0.0
H680 H 0.28104 0.85324 0.7413 0.0
H681 H 0.34745 0.78978 0.65882 0.0
H682 H 0.35971 0.80629 0.60024 0.0
H683 H 0.30632 0.86195 0.50796 0.0
H684 H 0.25349 0.87385 0.5013 0.0
H685 H 0.34483 0.93645 0.67267 0.0
H686 H 0.29449 0.99328 0.60927 0.0
H687 H 0.24829 0.74821 0.60157 0.0
H688 H 0.19173 0.80491 0.65611 0.0
C689 C 0.10675 0.18824 0.56318 0.0
C690 C 0.09588 0.15655 0.56441 0.0
C691 C 0.08069 0.15521 0.59121 0.0
C692 C 0.08324 0.18604 0.60495 0.0
N693 N 0.09831 0.2072 0.58781 0.0
Co694 Co 0.11266 0.25148 0.60172 0.0
N695 N 0.10131 0.24435 0.64585 0.0
C696 C 0.08445 0.22044 0.65615 0.0
C697 C 0.08119 0.22141 0.68819 0.0
C698 C 0.09708 0.24727 0.6986 0.0
C699 C 0.10914 0.2607 0.67226 0.0
N700 N 0.12894 0.29464 0.6149 0.0
C701 C 0.13436 0.30616 0.64406 0.0
C702 C 0.14704 0.33697 0.64314 0.0
C703 C 0.15007 0.34477 0.61209 0.0
C704 C 0.1392 0.31835 0.59597 0.0
N705 N 0.12383 0.25845 0.55739 0.0
C706 C 0.13199 0.28719 0.54421 0.0
C707 C 0.1404 0.28324 0.51376 0.0
C708 C 0.13827 0.24988 0.5077 0.0
C709 C 0.12868 0.23535 0.5349 0.0
N710 N 0.07645 0.27455 0.59439 0.0
C711 C 0.02792 0.30911 0.61174 0.0
C712 C 0.05085 0.32612 0.60116 0.0
C713 C 0.07438 0.30867 0.5924 0.0
C714 C 0.02908 0.27423 0.60967 0.0
C715 C 0.05266 0.25794 0.59958 0.0
N716 N 0.14741 0.22935 0.61153 0.0
C717 C 0.1961 0.2303 0.61683 0.0
C718 C 0.19535 0.20273 0.63705 0.0
C719 C 0.17055 0.18764 0.64244 0.0
C720 C 0.14712 0.20109 0.6295 0.0
C721 C 0.17183 0.2432 0.6042 0.0
H722 H 0.12871 0.18905 0.63556 0.0
H723 H 0.17282 0.26497 0.58952 0.0
H724 H 0.09073 0.32368 0.58477 0.0
H725 H 0.05122 0.23167 0.59728 0.0
C726 C 0.07666 0.19397 0.63626 0.0
C727 C 0.12618 0.19939 0.53942 0.0
C728 C 0.12853 0.28819 0.67294 0.0
C729 C 0.13911 0.3142 0.56329 0.0
H730 H 0.09957 0.13615 0.54842 0.0
H731 H 0.07085 0.13349 0.6008 0.0
H732 H 0.06995 0.20415 0.70252 0.0
H733 H 0.10003 0.25481 0.72282 0.0
H734 H 0.15375 0.35198 0.66286 0.0
H735 H 0.15967 0.36664 0.60248 0.0
H736 H 0.14961 0.30176 0.49886 0.0
H737 H 0.14451 0.2374 0.48643 0.0
H738 H 0.05099 0.35303 0.60015 0.0
H739 H 0.01239 0.2589 0.61699 0.0
H740 H 0.21505 0.24256 0.61187 0.0
H741 H 0.16913 0.16594 0.65743 0.0
C742 C 0.7054 0.08538 0.62638 0.0
C743 C 0.68194 0.08725 0.60839 0.0
C744 C 0.68283 0.11698 0.59265 0.0
C745 C 0.7067 0.13159 0.60193 0.0
N746 N 0.72149 0.11246 0.62181 0.0
Co747 Co 0.75496 0.12622 0.64558 0.0
N748 N 0.75134 0.17354 0.63206 0.0
C749 C 0.73411 0.18537 0.60987 0.0
C750 C 0.73647 0.21905 0.60535 0.0
C751 C 0.75633 0.22916 0.62593 0.0
C752 C 0.76498 0.20098 0.64195 0.0
N753 N 0.78751 0.13949 0.67102 0.0
C754 C 0.79734 0.17005 0.67801 0.0
C755 C 0.81975 0.16813 0.69792 0.0
C756 C 0.82422 0.13515 0.70361 0.0
C757 C 0.80426 0.11893 0.68713 0.0
N758 N 0.75843 0.07861 0.65886 0.0
C759 C 0.77976 0.06468 0.67394 0.0
C760 C 0.77545 0.03223 0.68244 0.0
C761 C 0.74958 0.02534 0.67304 0.0
C762 C 0.73953 0.05401 0.65895 0.0
N763 N 0.77873 0.11892 0.60773 0.0
C764 C 0.81523 0.13779 0.55935 0.0
C765 C 0.8245 0.12397 0.58777 0.0
C766 C 0.80613 0.11422 0.61109 0.0
C767 C 0.78718 0.13759 0.55429 0.0
C768 C 0.76965 0.12696 0.57805 0.0
N769 N 0.73213 0.13583 0.68226 0.0
C770 C 0.72696 0.14088 0.73844 0.0
C771 C 0.70444 0.16156 0.73409 0.0
C772 C 0.69518 0.16752 0.70358 0.0
C773 C 0.70924 0.15461 0.67822 0.0
C774 C 0.74021 0.12775 0.71221 0.0
H775 H 0.70192 0.16139 0.65544 0.0
H776 H 0.75748 0.1121 0.71634 0.0
H777 H 0.81478 0.10403 0.63201 0.0
H778 H 0.74875 0.12691 0.57205 0.0
C779 C 0.71387 0.16498 0.59673 0.0
C780 C 0.71139 0.05783 0.6481 0.0
C781 C 0.78624 0.20132 0.66622 0.0
C782 C 0.80016 0.08457 0.6868 0.0
H783 H 0.66554 0.06947 0.60763 0.0
H784 H 0.6671 0.1276 0.57787 0.0
H785 H 0.72455 0.23462 0.58973 0.0
H786 H 0.76347 0.2544 0.62906 0.0
H787 H 0.83162 0.18844 0.70746 0.0
H788 H 0.83987 0.12434 0.71837 0.0
H789 H 0.78858 0.01646 0.69649 0.0
H790 H 0.73905 1.00239 0.67778 0.0
H791 H 0.84596 0.1215 0.5925 0.0
H792 H 0.77839 0.14718 0.53274 0.0
H793 H 0.73445 0.13527 0.76187 0.0
H794 H 0.67784 0.18341 0.69922 0.0
C795 C 0.87918 0.79031 0.546 0.0
C796 C 0.89664 0.8173 0.54666 0.0
C797 C 0.91229 0.81414 0.57365 0.0
C798 C 0.90384 0.78539 0.58812 0.0
N799 N 0.88419 0.77036 0.57138 0.0
Co800 Co 0.86224 0.73225 0.58548 0.0
N801 N 0.87022 0.74051 0.63014 0.0
C802 C 0.89136 0.75823 0.64113 0.0
C803 C 0.89206 0.75919 0.67345 0.0
C804 C 0.87023 0.74059 0.68298 0.0
C805 C 0.85736 0.72913 0.65589 0.0
N806 N 0.83902 0.69469 0.59776 0.0
C807 C 0.82785 0.68789 0.62584 0.0
C808 C 0.81333 0.6583 0.62429 0.0
C809 C 0.81591 0.6463 0.59424 0.0
C810 C 0.83181 0.66903 0.57908 0.0
N811 N 0.85497 0.72389 0.54066 0.0
C812 C 0.84797 0.69472 0.5276 0.0
C813 C 0.8447 0.69714 0.49548 0.0
C814 C 0.8497 0.72999 0.48833 0.0
C815 C 0.85549 0.74573 0.51659 0.0
N816 N 0.89426 0.70187 0.58558 0.0
C817 C 0.94315 0.66749 0.60035 0.0
C818 C 0.91902 0.66022 0.61555 0.0
C819 C 0.8954 0.67763 0.60831 0.0
C820 C 0.94177 0.69102 0.57567 0.0
C821 C 0.91709 0.70759 0.56842 0.0
N822 N 0.83124 0.76261 0.58861 0.0
C823 C 0.78328 0.77186 0.5931 0.0
C824 C 0.78801 0.80124 0.61036 0.0
C825 C 0.81465 0.81166 0.61454 0.0
C826 C 0.83567 0.79236 0.60346 0.0
C827 C 0.80526 0.75296 0.58219 0.0
H828 H 0.85564 0.80058 0.60955 0.0
H829 H 0.80132 0.72979 0.57012 0.0
H830 H 0.87862 0.67254 0.62322 0.0
H831 H 0.91691 0.72624 0.55012 0.0
C832 C 0.90694 0.77785 0.62045 0.0
C833 C 0.85903 0.78178 0.52081 0.0
C834 C 0.83419 0.70588 0.65514 0.0
C835 C 0.8376 0.66939 0.54674 0.0
H836 H 0.898 0.83747 0.5301 0.0
H837 H 0.92648 0.83226 0.58286 0.0
H838 H 0.90612 0.77272 0.68833 0.0
H839 H 0.86457 0.73586 0.70706 0.0
H840 H 0.80275 0.64603 0.64315 0.0
H841 H 0.80695 0.62392 0.58456 0.0
H842 H 0.83725 0.67818 0.47954 0.0
H843 H 0.84763 0.74153 0.46547 0.0
H844 H 0.91847 0.6419 0.6342 0.0
H845 H 0.95977 0.69782 0.563 0.0
H846 H 0.76289 0.7629 0.58917 0.0
H847 H 0.81961 0.83336 0.62854 0.0
C848 C 0.39219 0.32014 0.05596 0.0
C849 C 0.40262 0.35206 0.05536 0.0
C850 C 0.4128 0.3582 0.0849 0.0
C851 C 0.40806 0.32972 0.10186 0.0
N852 N 0.39651 0.30535 0.08439 0.0
Co853 Co 0.3822 0.26182 0.10024 0.0
N854 N 0.38727 0.27499 0.14523 0.0
C855 C 0.39675 0.30449 0.1558 0.0
C856 C 0.39512 0.30788 0.18784 0.0
C857 C 0.38342 0.27905 0.19816 0.0
C858 C 0.37869 0.25961 0.17176 0.0
N859 N 0.36922 0.2175 0.11512 0.0
C860 C 0.36459 0.20642 0.14456 0.0
C861 C 0.3564 0.17337 0.14454 0.0
C862 C 0.35539 0.16348 0.11385 0.0
C863 C 0.36307 0.19088 0.09703 0.0
N864 N 0.37516 0.24978 0.05517 0.0
C865 C 0.36701 0.21995 0.04399 0.0
C866 C 0.35965 0.22054 0.01283 0.0
C867 C 0.36234 0.25294 1.0038 0.0
C868 C 0.37153 0.27028 0.03002 0.0
N869 N 0.41984 0.24253 0.10002 0.0
C870 C 0.4685 0.20852 0.11729 0.0
C871 C 0.44959 0.19427 0.09637 0.0
C872 C 0.42574 0.21169 0.08788 0.0
C873 C 0.46344 0.24119 0.12684 0.0
C874 C 0.43978 0.25761 0.11755 0.0
N875 N 0.34517 0.28101 0.10296 0.0
C876 C 0.29985 0.27401 0.12266 0.0
C877 C 0.29827 0.30806 0.12896 0.0
C878 C 0.31881 0.32864 0.1188 0.0
C879 C 0.34192 0.31481 0.10615 0.0
C880 C 0.32316 0.26114 0.10856 0.0
H881 H 0.35729 0.33242 0.10122 0.0
H882 H 0.32355 0.23487 0.10404 0.0
H883 H 0.41218 0.19946 0.07198 0.0
H884 H 0.43777 0.28217 0.12614 0.0
C885 C 0.40639 0.3286 0.13481 0.0
C886 C 0.37488 0.30649 0.03089 0.0
C887 C 0.3655 0.22703 0.1727 0.0
C888 C 0.36184 0.19363 0.06439 0.0
H889 H 0.40097 0.36988 0.03636 0.0
H890 H 0.41989 0.38189 0.09382 0.0
H891 H 0.40117 0.32907 0.20196 0.0
H892 H 0.37855 0.27314 0.22226 0.0
H893 H 0.35086 0.15831 0.16454 0.0
H894 H 0.34878 0.13961 0.10484 0.0
H895 H 0.35125 0.20037 0.99897 0.0
H896 H 0.3568 0.26273 0.98097 0.0
H897 H 0.45302 0.16978 0.08661 0.0
H898 H 0.47728 0.25406 0.14255 0.0
H899 H 0.28374 0.25741 0.12953 0.0
H900 H 0.31793 0.35527 0.12279 0.0
C901 C 0.38446 0.69111 0.91738 0.0
C902 C 0.39711 0.66057 0.92079 0.0
C903 C 0.40924 0.65383 0.8927 0.0
C904 C 0.40348 0.68061 0.87368 0.0
N905 N 0.38907 0.70444 0.88845 0.0
Co906 Co 0.37341 0.74564 0.86882 0.0
N907 N 0.38127 0.72997 0.82522 0.0
C908 C 0.39413 0.70154 0.8173 0.0
C909 C 0.39417 0.69585 0.78547 0.0
C910 C 0.37997 0.72182 0.77248 0.0
C911 C 0.37211 0.74198 0.79719 0.0
N912 N 0.358 0.78715 0.84997 0.0
C913 C 0.35212 0.79463 0.81965 0.0
C914 C 0.34082 0.82619 0.81691 0.0
C915 C 0.33947 0.83891 0.84657 0.0
C916 C 0.34984 0.8145 0.86567 0.0
N917 N 0.3639 0.76013 0.91242 0.0
C918 C 0.35381 0.79003 0.92083 0.0
C919 C 0.34522 0.79125 0.95129 0.0
C920 C 0.34932 0.75999 0.96284 0.0
C921 C 0.3607 0.74143 0.93882 0.0
N922 N 0.40997 0.76858 0.87093 0.0
C923 C 0.45899 0.80481 0.85982 0.0
C924 C 0.43785 0.81852 0.87747 0.0
C925 C 0.41385 0.80011 0.88285 0.0
C926 C 0.45513 0.77231 0.84902 0.0
C927 C 0.43151 0.75475 0.85566 0.0
N928 N 0.33791 0.72315 0.86458 0.0
C929 C 0.28993 0.7264 0.85341 0.0
C930 C 0.2902 0.69395 0.84132 0.0
C931 C 0.31391 0.67561 0.84372 0.0
C932 C 0.33719 0.69036 0.85572 0.0
C933 C 0.31406 0.74051 0.86513 0.0
H934 H 0.35471 0.67504 0.85594 0.0
H935 H 0.31348 0.76583 0.87328 0.0
H936 H 0.39871 0.81211 0.89643 0.0
H937 H 0.43119 0.73014 0.84711 0.0
C938 C 0.40447 0.67993 0.8406 0.0
C939 C 0.36696 0.70576 0.94149 0.0
C940 C 0.3556 0.77201 0.79316 0.0
C941 C 0.34799 0.81424 0.89831 0.0
H942 H 0.39636 0.64411 0.94089 0.0
H943 H 0.41888 0.63074 0.88604 0.0
H944 H 0.40274 0.6748 0.77324 0.0
H945 H 0.37546 0.72527 0.74774 0.0
H946 H 0.33342 0.83842 0.79586 0.0
H947 H 0.33053 0.86233 0.85352 0.0
H948 H 0.33515 0.81165 0.96295 0.0
H949 H 0.34329 0.75166 0.98585 0.0
H950 H 0.4397 0.8434 0.88702 0.0
H951 H 0.47002 0.76024 0.8345 0.0
H952 H 0.2716 0.74111 0.85264 0.0
H953 H 0.31467 0.6501 0.83551 0.0
C954 C 0.18947 0.43509 0.87768 0.0
C955 C 0.16629 0.43584 0.89556 0.0
C956 C 0.16708 0.40809 0.91426 0.0
C957 C 0.19065 0.39197 0.90675 0.0
N958 N 0.20539 0.40853 0.88526 0.0
Co959 Co 0.23798 0.39159 0.86269 0.0
N960 N 0.23331 0.34568 0.87964 0.0
C961 C 0.21571 0.33616 0.90196 0.0
C962 C 0.21721 0.30282 0.90875 0.0
C963 C 0.23685 0.29048 0.88954 0.0
C964 C 0.24627 0.3171 0.87208 0.0
N965 N 0.2699 0.37526 0.83882 0.0
C966 C 0.27923 0.34399 0.83477 0.0
C967 C 0.30206 0.34353 0.81601 0.0
C968 C 0.3071 0.37571 0.80776 0.0
C969 C 0.28719 0.39386 0.82186 0.0
N970 N 0.24219 0.43769 0.84561 0.0
C971 C 0.26336 0.44958 0.82932 0.0
C972 C 0.25896 0.48072 0.81718 0.0
C973 C 0.23314 0.48868 0.8252 0.0
C974 C 0.22322 0.462 0.84227 0.0
N975 N 0.26271 0.40104 0.89985 0.0
C976 C 0.30237 0.38185 0.94556 0.0
C977 C 0.30956 0.3985 0.91788 0.0
C978 C 0.28958 0.40823 0.89581 0.0
C979 C 0.27465 0.38052 0.95197 0.0
C980 C 0.2555 0.39134 0.92953 0.0
N981 N 0.21432 0.37987 0.82671 0.0
C982 C 0.20797 0.37088 0.77103 0.0
C983 C 0.1849 0.35167 0.77663 0.0
C984 C 0.17588 0.34879 0.80738 0.0
C985 C 0.1908 0.36288 0.83188 0.0
C986 C 0.22219 0.38508 0.79636 0.0
H987 H 0.18352 0.35857 0.85501 0.0
H988 H 0.23997 0.3993 0.79127 0.0
H989 H 0.29649 0.42049 0.87522 0.0
H990 H 0.23494 0.39009 0.93633 0.0
C991 C 0.19641 0.35848 0.91372 0.0
C992 C 0.19508 0.45913 0.85258 0.0
C993 C 0.26733 0.31423 0.84839 0.0
C994 C 0.28343 0.42811 0.81865 0.0
H995 H 0.14995 0.4537 0.89403 0.0
H996 H 0.15123 0.39926 0.92944 0.0
H997 H 0.20496 0.28894 0.92506 0.0
H998 H 0.24333 0.2648 0.88824 0.0
H999 H 0.31384 0.32217 0.80893 0.0
H1000 H 0.32311 0.38472 0.79289 0.0
H1001 H 0.27189 0.49451 0.80151 0.0
H1002 H 0.22253 0.51068 0.81735 0.0
H1003 H 0.33052 0.40353 0.91276 0.0
H1004 H 0.26745 0.3698 0.97364 0.0
H1005 H 0.21517 0.37448 0.74733 0.0
H1006 H 0.15799 0.33443 0.8127 0.0
C1007 C 0.61392 0.31281 0.95059 0.0
C1008 C 0.59762 0.34079 0.95068 0.0
C1009 C 0.58173 0.33906 0.92378 0.0
C1010 C 0.58911 0.31009 0.90874 0.0
N1011 N 0.60835 0.29367 0.92498 0.0
Co1012 Co 0.62848 0.25421 0.91056 0.0
N1013 N 0.61987 0.26294 0.86605 0.0
C1014 C 0.59951 0.28228 0.85547 0.0
C1015 C 0.59867 0.28375 0.82317 0.0
C1016 C 0.61962 0.26389 0.81318 0.0
C1017 C 0.6321 0.25119 0.84 0.0
N1018 N 0.64951 0.21496 0.8975 0.0
C1019 C 0.65972 0.20747 0.86909 0.0
C1020 C 0.67262 0.17671 0.86997 0.0
C1021 C 0.67013 0.16479 0.90004 0.0
C1022 C 0.65585 0.18871 0.91581 0.0
N1023 N 0.63692 0.24569 0.95525 0.0
C1024 C 0.6442 0.2164 0.968 0.0
C1025 C 0.65119 0.2194 0.99927 0.0
C1026 C 0.6484 0.25262 0.00626 0.0
C1027 C 0.63962 0.26809 0.97883 0.0
N1028 N 0.59526 0.22625 0.91173 0.0
C1029 C 0.54424 0.19683 0.89875 0.0
C1030 C 0.56719 0.18755 0.88222 0.0
C1031 C 0.59202 0.20257 0.88869 0.0
C1032 C 0.54772 0.21968 0.92366 0.0
C1033 C 0.57349 0.23366 0.93012 0.0
N1034 N 0.66071 0.28211 0.90649 0.0
C1035 C 0.70884 0.28604 0.89961 0.0
C1036 C 0.70518 0.31494 0.88159 0.0
C1037 C 0.67952 0.32884 0.87915 0.0
C1038 C 0.65767 0.31216 0.8917 0.0
C1039 C 0.68616 0.27009 0.91229 0.0
H1040 H 0.63807 0.32244 0.88676 0.0
H1041 H 0.68897 0.24687 0.92467 0.0
H1042 H 0.60797 0.19649 0.87285 0.0
H1043 H 0.57541 0.25179 0.94877 0.0
C1044 C 0.58518 0.30296 0.87646 0.0
C1045 C 0.63403 0.30385 0.97517 0.0
C1046 C 0.65441 0.2267 0.8403 0.0
C1047 C 0.65197 0.19006 0.94843 0.0
H1048 H 0.59775 0.36063 0.96789 0.0
H1049 H 0.56815 0.35812 0.915 0.0
H1050 H 0.58522 0.29855 0.8086 0.0
H1051 H 0.62503 0.25928 0.789 0.0
H1052 H 0.68227 0.16384 0.85079 0.0
H1053 H 0.6784 0.14188 0.90942 0.0
H1054 H 0.65968 0.20038 0.01444 0.0
H1055 H 0.65324 0.26403 0.02863 0.0
H1056 H 0.56566 0.17039 0.86263 0.0
H1057 H 0.53057 0.22737 0.93746 0.0
H1058 H 0.72865 0.27485 0.90216 0.0
H1059 H 0.67608 0.35133 0.86563 0.0
C1060 C 0.79038 0.58644 0.87824 0.0
C1061 C 0.81355 0.58936 0.89656 0.0
C1062 C 0.81121 0.61888 0.91295 0.0
C1063 C 0.78672 0.6324 0.90387 0.0
N1064 N 0.77366 0.61277 0.88316 0.0
Co1065 Co 0.74013 0.62414 0.85996 0.0
N1066 N 0.74525 0.67224 0.86626 0.0
C1067 C 0.76093 0.68604 0.88877 0.0
C1068 C 0.76006 0.72023 0.88785 0.0
C1069 C 0.7426 0.72806 0.86347 0.0
C1070 C 0.73378 0.69814 0.85068 0.0
N1071 N 0.70675 0.63423 0.83584 0.0
C1072 C 0.69889 0.66291 0.82188 0.0
C1073 C 0.67416 0.65875 0.80656 0.0
C1074 C 0.66618 0.62657 0.81194 0.0
C1075 C 0.68646 0.61277 0.82997 0.0
N1076 N 0.73545 0.57575 0.85367 0.0
C1077 C 0.71219 0.56017 0.84636 0.0
C1078 C 0.71612 0.52715 0.83941 0.0
C1079 C 0.74349 0.52194 0.84213 0.0
C1080 C 0.75488 0.55206 0.85114 0.0
N1081 N 0.71873 0.62378 0.89955 0.0
C1082 C 0.69237 0.63518 0.9578 0.0
C1083 C 0.68562 0.65322 0.9308 0.0
C1084 C 0.69886 0.64741 0.90252 0.0
C1085 C 0.71253 0.6105 0.95484 0.0
C1086 C 0.72518 0.60487 0.92543 0.0
N1087 N 0.7611 0.62729 0.82125 0.0
C1088 C 0.76301 0.62664 0.7647 0.0
C1089 C 0.78665 0.64584 0.76566 0.0
C1090 C 0.79801 0.65384 0.79482 0.0
C1091 C 0.78491 0.64459 0.82218 0.0
C1092 C 0.75078 0.61704 0.79289 0.0
H1093 H 0.79342 0.65325 0.84404 0.0
H1094 H 0.73231 0.60281 0.79174 0.0
H1095 H 0.69369 0.66383 0.8835 0.0
H1096 H 0.74078 0.58613 0.92394 0.0
C1097 C 0.7793 0.66624 0.90633 0.0
C1098 C 0.78398 0.55816 0.85709 0.0
C1099 C 0.71292 0.69496 0.82571 0.0
C1100 C 0.68965 0.57878 0.83652 0.0
H1101 H 0.83053 0.57239 0.89733 0.0
H1102 H 0.82658 0.63034 0.92766 0.0
H1103 H 0.77142 0.73746 0.9024 0.0
H1104 H 0.73685 0.75287 0.85611 0.0
H1105 H 0.66287 0.67704 0.79315 0.0
H1106 H 0.64829 0.61438 0.80269 0.0
H1107 H 0.70132 0.50974 0.83028 0.0
H1108 H 0.75362 0.49894 0.83657 0.0
H1109 H 0.67092 0.67317 0.93174 0.0
H1110 H 0.71864 0.59589 0.97508 0.0
H1111 H 0.7538 0.61975 0.74241 0.0
H1112 H 0.81618 0.6688 0.7965 0.0
C1113 C 0.62552 0.68447 0.09355 0.0
C1114 C 0.61287 0.65376 0.0923 0.0
C1115 C 0.59892 0.65043 0.1198 0.0
C1116 C 0.60395 0.67909 0.13646 0.0
N1117 N 0.61952 0.70093 0.12069 0.0
Co1118 Co 0.63679 0.74217 0.1384 0.0
N1119 N 0.62588 0.73128 0.18216 0.0
C1120 C 0.60841 0.70725 0.19079 0.0
C1121 C 0.60583 0.70494 0.22285 0.0
C1122 C 0.62288 0.72864 0.23515 0.0
C1123 C 0.63498 0.74412 0.20985 0.0
N1124 N 0.65558 0.78239 0.15543 0.0
C1125 C 0.66227 0.79022 0.18545 0.0
C1126 C 0.67714 0.81951 0.18698 0.0
C1127 C 0.68013 0.83026 0.15676 0.0
C1128 C 0.66711 0.80696 0.13858 0.0
N1129 N 0.6478 0.75288 0.09456 0.0
C1130 C 0.65814 0.78189 0.08425 0.0
C1131 C 0.66539 0.78095 0.05321 0.0
C1132 C 0.66012 0.74915 0.0435 0.0
C1133 C 0.65003 0.73241 0.06931 0.0
N1134 N 0.60193 0.76886 0.13382 0.0
C1135 C 0.55483 0.80804 0.14816 0.0
C1136 C 0.5787 0.82258 0.13687 0.0
C1137 C 0.60165 0.80288 0.13011 0.0
C1138 C 0.55454 0.77312 0.14857 0.0
C1139 C 0.57744 0.75451 0.14028 0.0
N1140 N 0.67031 0.71619 0.14504 0.0
C1141 C 0.71899 0.71208 0.14819 0.0
C1142 C 0.71716 0.68191 0.16472 0.0
C1143 C 0.69156 0.66885 0.16996 0.0
C1144 C 0.66873 0.68603 0.15985 0.0
C1145 C 0.69532 0.72867 0.13829 0.0
H1146 H 0.64987 0.67507 0.16562 0.0
H1147 H 0.69735 0.75198 0.12613 0.0
H1148 H 0.61893 0.81605 0.12219 0.0
H1149 H 0.57468 0.7284 0.14007 0.0
C1150 C 0.59899 0.68362 0.16878 0.0
C1151 C 0.64431 0.69666 0.06944 0.0
C1152 C 0.65551 0.77024 0.2129 0.0
C1153 C 0.66712 0.80588 0.10571 0.0
H1154 H 0.6146 0.63505 0.07415 0.0
H1155 H 0.58822 0.62856 0.12772 0.0
H1156 H 0.59419 0.68688 0.23582 0.0
H1157 H 0.6266 0.73338 0.25987 0.0
H1158 H 0.68545 0.83151 0.2077 0.0
H1159 H 0.6913 0.85179 0.14892 0.0
H1160 H 0.67554 0.80015 0.03999 0.0
H1161 H 0.66451 0.73896 0.02056 0.0
H1162 H 0.58001 0.84912 0.13314 0.0
H1163 H 0.53689 0.75955 0.15603 0.0
H1164 H 0.7385 0.7231 0.14351 0.0
H1165 H 0.68892 0.64617 0.1833 0.0
C1166 C 0.21921 0.59049 0.13418 0.0
C1167 C 0.19507 0.59476 0.11788 0.0
C1168 C 0.19743 0.62392 0.1012 0.0
C1169 C 0.22282 0.63588 0.10827 0.0
N1170 N 0.23682 0.61556 0.12774 0.0
Co1171 Co 0.27218 0.62564 0.14859 0.0
N1172 N 0.27036 0.6733 0.13704 0.0
C1173 C 0.2541 0.68664 0.11474 0.0
C1174 C 0.25762 0.72041 0.11177 0.0
C1175 C 0.27727 0.72868 0.13349 0.0
C1176 C 0.28461 0.69943 0.14862 0.0
N1177 N 0.30641 0.63525 0.17199 0.0
C1178 C 0.31688 0.6647 0.18143 0.0
C1179 C 0.3403 0.66012 0.19927 0.0
C1180 C 0.34478 0.62655 0.2007 0.0
C1181 C 0.32376 0.6126 0.1841 0.0
N1182 N 0.27405 0.57753 0.15956 0.0
C1183 C 0.2961 0.56101 0.17003 0.0
C1184 C 0.29059 0.52887 0.17862 0.0
C1185 C 0.26338 0.52506 0.17402 0.0
C1186 C 0.25368 0.55506 0.16226 0.0
N1187 N 0.29291 0.61846 0.10815 0.0
C1188 C 0.32024 0.63708 0.05176 0.0
C1189 C 0.33433 0.631 0.07995 0.0
C1190 C 0.32055 0.62229 0.10744 0.0
C1191 C 0.29277 0.62807 0.05146 0.0
C1192 C 0.27997 0.61761 0.07933 0.0
N1193 N 0.25218 0.63534 0.18732 0.0
C1194 C 0.24904 0.63658 0.24392 0.0
C1195 C 0.22742 0.65912 0.24197 0.0
C1196 C 0.2178 0.66828 0.21231 0.0
C1197 C 0.23044 0.65639 0.18554 0.0
C1198 C 0.26094 0.62463 0.21626 0.0
H1199 H 0.22297 0.66544 0.16343 0.0
H1200 H 0.27763 0.60754 0.21835 0.0
H1201 H 0.33306 0.61997 0.12786 0.0
H1202 H 0.25933 0.60999 0.07702 0.0
C1203 C 0.23247 0.6681 0.1019 0.0
C1204 C 0.22501 0.56222 0.15537 0.0
C1205 C 0.3054 0.69716 0.17344 0.0
C1206 C 0.31866 0.57861 0.18089 0.0
H1207 H 0.17746 0.57885 0.1186 0.0
H1208 H 0.18185 0.63594 0.0872 0.0
H1209 H 0.24632 0.7373 0.09679 0.0
H1210 H 0.28505 0.7534 0.138 0.0
H1211 H 0.35284 0.67894 0.21025 0.0
H1212 H 0.361 0.61386 0.21306 0.0
H1213 H 0.30411 0.51143 0.19015 0.0
H1214 H 0.25209 0.50321 0.1805 0.0
H1215 H 0.35605 0.6337 0.08135 0.0
H1216 H 0.28075 0.63005 0.03014 0.0
H1217 H 0.25675 0.62842 0.26657 0.0
H1218 H 0.20112 0.68558 0.20976 0.0
C1219 C 0.81654 0.43621 0.12801 0.0
C1220 C 0.83976 0.43603 0.11018 0.0
C1221 C 0.8384 0.40821 0.09158 0.0
C1222 C 0.81448 0.39295 0.09908 0.0
N1223 N 0.80006 0.41016 0.12044 0.0
Co1224 Co 0.76726 0.39431 0.14319 0.0
N1225 N 0.77117 0.34809 0.12677 0.0
C1226 C 0.78824 0.33799 0.10411 0.0
C1227 C 0.78626 0.30458 0.09776 0.0
C1228 C 0.76686 0.29285 0.11765 0.0
C1229 C 0.75807 0.31987 0.13505 0.0
N1230 N 0.7353 0.37904 0.1675 0.0
C1231 C 0.72585 0.34798 0.17242 0.0
C1232 C 0.7032 0.34829 0.19146 0.0
C1233 C 0.6984 0.38075 0.19897 0.0
C1234 C 0.71829 0.39828 0.18422 0.0
N1235 N 0.76376 0.44077 0.15964 0.0
C1236 C 0.74268 0.45343 0.17563 0.0
C1237 C 0.74774 0.48434 0.18794 0.0
C1238 C 0.77384 0.49129 0.18034 0.0
C1239 C 0.78326 0.46438 0.16322 0.0
N1240 N 0.74253 0.40367 0.10587 0.0
C1241 C 0.70328 0.38417 0.0596 0.0
C1242 C 0.69578 0.40051 0.08739 0.0
C1243 C 0.71552 0.41029 0.10976 0.0
C1244 C 0.73108 0.38344 0.05344 0.0
C1245 C 0.74998 0.39446 0.07612 0.0
N1246 N 0.79093 0.38268 0.17919 0.0
C1247 C 0.79872 0.37681 0.23504 0.0
C1248 C 0.82164 0.35721 0.22963 0.0
C1249 C 0.82938 0.35171 0.1987 0.0
C1250 C 0.81392 0.36458 0.17407 0.0
C1251 C 0.78382 0.38961 0.20951 0.0
H1252 H 0.82043 0.35864 0.15093 0.0
H1253 H 0.76624 0.40431 0.21446 0.0
H1254 H 0.70832 0.4222 0.13041 0.0
H1255 H 0.77059 0.39384 0.06938 0.0
C1256 C 0.80791 0.35966 0.09212 0.0
C1257 C 0.8114 0.46059 0.15305 0.0
C1258 C 0.73751 0.31774 0.1594 0.0
C1259 C 0.72237 0.43254 0.18662 0.0
H1260 H 0.85648 0.45332 0.11169 0.0
H1261 H 0.85408 0.39877 0.07646 0.0
H1262 H 0.79814 0.29021 0.08142 0.0
H1263 H 0.76019 0.2673 0.11947 0.0
H1264 H 0.69141 0.32723 0.19922 0.0
H1265 H 0.6826 0.39034 0.21384 0.0
H1266 H 0.73508 0.49847 0.20368 0.0
H1267 H 0.78495 0.5127 0.18864 0.0
H1268 H 0.67475 0.40527 0.09239 0.0
H1269 H 0.73857 0.37306 0.03175 0.0
H1270 H 0.79221 0.38192 0.25878 0.0
H1271 H 0.84676 0.33638 0.1934 0.0
C1272 C 0.18626 0.55558 0.19319 0.0
C1273 C 0.20288 0.54161 0.17001 0.0
C1274 C 0.16907 0.53559 0.2116 0.0
C1275 C 0.16854 0.5006 0.20853 0.0
H1276 H 0.18742 0.582 0.19808 0.0
H1277 H 0.1569 0.5476 0.22927 0.0
S1278 S 0.20333 0.45269 0.14641 0.0
N1279 N 0.21318 0.49145 0.14058 0.0
N1280 N 0.18291 0.45378 0.17683 0.0
C1281 C 0.18311 0.48682 0.18347 0.0
C1282 C 0.19984 0.5073 0.16396 0.0
C1283 C 0.54068 0.19422 0.14781 0.0
C1284 C 0.54131 0.16063 0.15759 0.0
C1285 C 0.5177 0.20859 0.13374 0.0
C1286 C 0.49349 0.19066 0.12927 0.0
H1287 H 0.55804 0.21016 0.15153 0.0
H1288 H 0.51897 0.23439 0.12659 0.0
S1289 S 0.48373 0.1017 0.15019 0.0
N1290 N 0.51541 0.10933 0.16047 0.0
N1291 N 0.47164 0.13696 0.13588 0.0
C1292 C 0.49365 0.15694 0.13872 0.0
C1293 C 0.51747 0.14196 0.15261 0.0
C1294 C 0.85313 0.46229 0.18808 0.0
C1295 C 0.83409 0.47941 0.1693 0.0
C1296 C 0.87161 0.47949 0.20775 0.0
C1297 C 0.87104 0.51451 0.21077 0.0
H1298 H 0.85313 0.43534 0.1884 0.0
H1299 H 0.88609 0.46504 0.22119 0.0
S1300 S 0.83069 0.57105 0.15963 0.0
N1301 N 0.82065 0.53347 0.149 0.0
N1302 N 0.85356 0.56554 0.18775 0.0
C1303 C 0.85416 0.53185 0.18948 0.0
C1304 C 0.83604 0.51438 0.16855 0.0
C1305 C 0.50406 0.81447 0.15624 0.0
C1306 C 0.53028 0.82815 0.15878 0.0
C1307 C 0.48103 0.83094 0.16762 0.0
C1308 C 0.48213 0.86307 0.18124 0.0
H1309 H 0.50091 0.79048 0.1453 0.0
H1310 H 0.46212 0.81756 0.16596 0.0
S1311 S 0.54558 0.91154 0.19292 0.0
N1312 N 0.55583 0.87628 0.17716 0.0
N1313 N 0.51242 0.90853 0.1953 0.0
C1314 C 0.50814 0.87766 0.18329 0.0
C1315 C 0.53198 0.86018 0.17269 0.0
C1316 C 0.15389 0.46254 0.81689 0.0
C1317 C 0.17284 0.47873 0.83648 0.0
C1318 C 0.13613 0.48071 0.7971 0.0
C1319 C 0.13744 0.51575 0.7949 0.0
H1320 H 0.15352 0.43561 0.81591 0.0
H1321 H 0.12192 0.46703 0.78255 0.0
S1322 S 0.17803 0.56984 0.84781 0.0
N1323 N 0.18704 0.5318 0.85811 0.0
N1324 N 0.15558 0.56576 0.81904 0.0
C1325 C 0.15422 0.53213 0.81688 0.0
C1326 C 0.17154 0.51367 0.83791 0.0
C1327 C 0.51283 0.15064 0.88054 0.0
C1328 C 0.51707 0.18467 0.88736 0.0
C1329 C 0.48892 0.13924 0.86557 0.0
C1330 C 0.46814 0.16136 0.85647 0.0
H1331 H 0.52837 0.13264 0.88647 0.0
H1332 H 0.48673 0.11285 0.86111 0.0
S1333 S 0.4702 0.25338 0.86636 0.0
N1334 N 0.49881 0.24043 0.88251 0.0
N1335 N 0.45448 0.21956 0.85395 0.0
C1336 C 0.47229 0.19554 0.86298 0.0
C1337 C 0.49648 0.20701 0.87851 0.0
C1338 C 0.82246 0.55064 0.81885 0.0
C1339 C 0.80557 0.53694 0.8419 0.0
C1340 C 0.83955 0.5304 0.80043 0.0
C1341 C 0.83974 0.49534 0.80326 0.0
H1342 H 0.82174 0.57712 0.81417 0.0
H1343 H 0.85208 0.54233 0.78307 0.0
S1344 S 0.80462 0.44805 0.86547 0.0
N1345 N 0.79498 0.4869 0.87126 0.0
N1346 N 0.82489 0.44879 0.83491 0.0
C1347 C 0.82485 0.48179 0.82818 0.0
C1348 C 0.80822 0.50252 0.84771 0.0
C1349 C 0.50794 0.87371 0.83214 0.0
C1350 C 0.53321 0.85734 0.83048 0.0
C1351 C 0.48433 0.85721 0.84261 0.0
C1352 C 0.48476 0.8235 0.8521 0.0
H1353 H 0.50626 0.89955 0.82524 0.0
H1354 H 0.46544 0.87081 0.84246 0.0
S1355 S 0.54556 0.76901 0.85329 0.0
N1356 N 0.5564 0.80446 0.83866 0.0
N1357 N 0.51342 0.77521 0.86112 0.0
C1358 C 0.51005 0.80723 0.85151 0.0
C1359 C 0.53377 0.82358 0.84003 0.0
C1360 C 0.12989 0.16046 0.49261 0.0
C1361 C 0.14209 0.17609 0.51877 0.0
C1362 C 0.14552 0.14443 0.46944 0.0
C1363 C 0.17404 0.143 0.47151 0.0
H1364 H 0.10823 0.16229 0.48908 0.0
H1365 H 0.13526 0.13443 0.44889 0.0
S1366 S 0.21569 0.17952 0.53576 0.0
N1367 N 0.18435 0.18848 0.54567 0.0
N1368 N 0.21352 0.15823 0.50261 0.0
C1369 C 0.1863 0.15728 0.49831 0.0
C1370 C 0.17042 0.17389 0.52169 0.0
C1371 C 0.85651 0.17301 0.54778 0.0
C1372 C 0.83442 0.15401 0.53644 0.0
C1373 C 0.87334 0.19108 0.5274 0.0
C1374 C 0.86865 0.19163 0.49469 0.0
H1375 H 0.8604 0.17496 0.57281 0.0
H1376 H 0.88976 0.20553 0.53745 0.0
S1377 S 0.81612 0.14332 0.4519 0.0
N1378 N 0.81108 0.13422 0.48925 0.0
N1379 N 0.84184 0.16944 0.45157 0.0
C1380 C 0.84757 0.17169 0.48279 0.0
C1381 C 0.83062 0.15282 0.50344 0.0
C1382 C 0.83152 0.85601 0.47063 0.0
C1383 C 0.80413 0.84765 0.46475 0.0
C1384 C 0.84911 0.83541 0.48877 0.0
C1385 C 0.8402 0.80568 0.50301 0.0
H1386 H 0.83982 0.87873 0.46165 0.0
H1387 H 0.86999 0.84272 0.49067 0.0
S1388 S 0.77085 0.7707 0.4943 0.0
N1389 N 0.7701 0.80486 0.47296 0.0
N1390 N 0.8015 0.76926 0.50968 0.0
C1391 C 0.81283 0.79715 0.49748 0.0
C1392 C 0.79537 0.81717 0.47791 0.0
C1393 C 0.15994 0.83925 0.52052 0.0
C1394 C 0.16864 0.80975 0.50561 0.0
C1395 C 0.1778 0.85961 0.53852 0.0
C1396 C 0.20532 0.85129 0.54353 0.0
H1397 H 0.13901 0.84656 0.51922 0.0
H1398 H 0.1696 0.88213 0.54812 0.0
S1399 S 0.23805 0.77451 0.51249 0.0
N1400 N 0.20715 0.77329 0.49776 0.0
N1401 N 0.23917 0.80845 0.53414 0.0
C1402 C 0.21384 0.82088 0.52989 0.0
C1403 C 0.19605 0.80108 0.51051 0.0
C1404 C 0.65309 0.02496 0.6978 0.0
C1405 C 0.65444 0.99015 0.69352 0.0
C1406 C 0.67058 0.04686 0.68188 0.0
C1407 C 0.68952 0.035 0.66012 0.0
H1408 H 0.63933 0.03528 0.71484 0.0
H1409 H 0.6701 0.07309 0.68769 0.0
S1410 S 0.69563 0.94745 0.63352 0.0
N1411 N 0.673 0.94581 0.66171 0.0
N1412 N 0.70443 0.98695 0.63037 0.0
C1413 C 0.68863 1.00083 0.65272 0.0
C1414 C 0.67136 0.97846 0.66959 0.0
C1415 C 0.97342 0.64745 0.64506 0.0
C1416 C 0.96914 0.65172 0.61232 0.0
C1417 C 0.99677 0.6319 0.65745 0.0
C1418 C 0.01736 0.62008 0.63786 0.0
H1419 H 0.95873 0.65675 0.66156 0.0
H1420 H 0.99911 0.63016 0.68275 0.0
S1421 S 0.01619 0.62317 0.55052 0.0
N1422 N 0.98754 0.64116 0.56057 0.0
N1423 N 0.03154 0.61275 0.58378 0.0
C1424 C 0.01342 0.6239 0.60509 0.0
C1425 C 0.98945 0.63953 0.5924 0.0
C1426 C 0.33002 0.05056 0.68816 0.0
C1427 C 0.35797 0.0518 0.69495 0.0
C1428 C 0.31874 0.02549 0.66879 0.0
C1429 C 0.3349 1.00022 0.65576 0.0
H1430 H 0.31656 0.06815 0.69927 0.0
H1431 H 0.29699 0.0246 0.66581 0.0
S1432 S 0.40951 0.99359 0.66454 0.0
N1433 N 0.40163 0.02652 0.68579 0.0
N1434 N 0.3808 0.97991 0.64916 0.0
C1435 C 0.36309 1.00237 0.66103 0.0
C1436 C 0.37452 0.02792 0.68068 0.0
C1437 C 0.00731 0.35719 0.64286 0.0
C1438 C 1.00368 0.32756 0.62528 0.0
C1439 C 0.98546 0.37425 0.65685 0.0
C1440 C 0.95859 0.36258 0.65446 0.0
H1441 H 0.0274 0.36724 0.64641 0.0
H1442 H 0.98984 0.39697 0.66956 0.0
S1443 S 0.9374 0.28597 0.61132 0.0
N1444 N 0.97019 0.28834 0.60533 0.0
N1445 N 0.93008 0.31802 0.63387 0.0
C1446 C 0.95467 0.33272 0.63723 0.0
C1447 C 0.97682 0.31589 0.62224 0.0
C1448 C 0.69259 0.0252 0.34316 0.0
C1449 C 0.6764 0.99933 0.35496 0.0
C1450 C 0.6814 0.05092 0.32452 0.0
C1451 C 0.65353 0.05217 0.31728 0.0
H1452 H 0.71432 0.02427 0.3464 0.0
H1453 H 0.69489 0.06895 0.31416 0.0
S1454 S 0.60195 0.99248 0.34473 0.0
N1455 N 0.63055 0.97846 0.36015 0.0
N1456 N 0.60989 0.02626 0.32478 0.0
C1457 C 0.63692 0.0277 0.33047 0.0
C1458 C 0.64825 1.00151 0.3494 0.0
C1459 C 0.01447 0.60981 0.37363 0.0
C1460 C 0.99106 0.6286 0.36677 0.0
C1461 C 0.03771 0.62453 0.38749 0.0
C1462 C 0.03869 0.65872 0.39539 0.0
H1463 H 0.01482 0.58344 0.36843 0.0
H1464 H 0.05523 0.60898 0.39187 0.0
S1465 S 0.98401 0.71984 0.37967 0.0
N1466 N 0.97139 0.68418 0.36709 0.0
N1467 N 0.01449 0.71114 0.39354 0.0
C1468 C 0.01553 0.67778 0.38851 0.0
C1469 C 0.992 0.66297 0.37411 0.0
C1470 C 0.35457 0.02545 0.3123 0.0
C1471 C 0.35231 0.99054 0.31515 0.0
C1472 C 0.33629 0.04735 0.32717 0.0
C1473 C 0.31537 0.03538 0.34626 0.0
H1474 H 0.36966 0.03591 0.29697 0.0
H1475 H 0.33774 0.07376 0.32241 0.0
S1476 S 0.30465 0.94684 0.36753 0.0
N1477 N 0.32976 0.94561 0.3423 0.0
N1478 N 0.29679 0.98654 0.37174 0.0
C1479 C 0.31485 1.00084 0.35212 0.0
C1480 C 0.33301 0.97853 0.33635 0.0
C1481 C 0.02533 0.38561 0.35787 0.0
C1482 C 0.05126 0.37094 0.35656 0.0
C1483 C 1.00304 0.36877 0.37112 0.0
C1484 C 0.00549 0.33642 0.38393 0.0
H1485 H 0.02213 0.41039 0.34861 0.0
H1486 H 0.98355 0.38101 0.37064 0.0
S1487 S 0.0689 0.2867 0.38721 0.0
N1488 N 0.07741 0.32104 0.36864 0.0
N1489 N 0.03679 0.29141 0.39603 0.0
C1490 C 0.03146 0.32187 0.38351 0.0
C1491 C 0.05389 0.33852 0.36927 0.0
C1492 C 0.6951 0.65363 0.01501 0.0
C1493 C 0.67928 0.64449 0.98858 0.0
C1494 C 0.68345 0.66879 0.04171 0.0
C1495 C 0.65542 0.67504 0.04344 0.0
H1496 H 0.71685 0.65083 0.01436 0.0
H1497 H 0.69664 0.6769 0.06071 0.0
S1498 S 0.60471 0.65401 0.98178 0.0
N1499 N 0.63364 0.64117 0.96704 0.0
N1500 N 0.61215 0.66981 0.01666 0.0
C1501 C 0.63928 0.66477 0.01783 0.0
C1502 C 0.65107 0.64946 0.99067 0.0
C1503 C 0.3258 0.64532 0.99233 0.0
C1504 C 0.33389 0.65303 0.02355 0.0
C1505 C 0.33719 0.66143 0.966 0.0
C1506 C 0.35742 0.68583 0.96947 0.0
H1507 H 0.31035 0.62679 0.98802 0.0
H1508 H 0.32963 0.65528 0.94271 0.0
S1509 S 0.38696 0.71519 0.04496 0.0
N1510 N 0.36384 0.68794 0.05546 0.0
N1511 N 0.38634 0.71551 0.00618 0.0
C1512 C 0.3666 0.69281 1.00015 0.0
C1513 C 0.35458 0.67723 0.02702 0.0
C1514 C 0.319 0.36449 1.00014 0.0
C1515 C 0.32302 0.3655 0.96727 0.0
C1516 C 0.33635 0.34648 0.02049 0.0
C1517 C 0.35871 0.32872 0.00913 0.0
H1518 H 0.30206 0.37742 0.01038 0.0
H1519 H 0.33178 0.34577 0.0453 0.0
S1520 S 0.38026 0.32485 0.92607 0.0
N1521 N 0.35235 0.34737 0.92489 0.0
N1522 N 0.38542 0.31545 0.96344 0.0
C1523 C 0.36392 0.33077 0.97677 0.0
C1524 C 0.34605 0.34862 0.95586 0.0
C1525 C 0.68737 0.36561 0.00488 0.0
C1526 C 0.6829 0.36739 0.03768 0.0
C1527 C 0.67056 0.34668 0.98458 0.0
C1528 C 0.6482 0.32895 0.9959 0.0
H1529 H 0.70439 0.37839 0.99468 0.0
H1530 H 0.67574 0.3449 0.95996 0.0
S1531 S 0.62558 0.32661 0.07858 0.0
N1532 N 0.65311 0.34978 0.0798 0.0
N1533 N 0.62107 0.31631 0.04133 0.0
C1534 C 0.64244 0.3319 0.02805 0.0
C1535 C 0.6598 0.35056 0.04893 0.0
C1536 C 0.18373 0.27995 0.33104 0.0
C1537 C 0.18748 0.29525 0.30171 0.0
C1538 C 0.19754 0.25066 0.33903 0.0
C1539 C 0.21555 0.23571 0.31796 0.0
H1540 H 0.1705 0.29121 0.34815 0.0
H1541 H 0.19415 0.2396 0.36187 0.0
S1542 S 0.22943 0.26349 0.23676 0.0
N1543 N 0.2085 0.29191 0.25055 0.0
N1544 N 0.23437 0.23645 0.26553 0.0
C1545 C 0.21851 0.24991 0.28805 0.0
C1546 C 0.20444 0.2798 0.27992 0.0
C1547 C 0.76606 0.18668 0.37217 0.0
C1548 C 0.78634 0.20529 0.35755 0.0
C1549 C 0.74545 0.17145 0.35429 0.0
C1550 C 0.74478 0.17386 0.32122 0.0
H1551 H 0.76647 0.18334 0.39744 0.0
H1552 H 0.73004 0.15743 0.36637 0.0
S1553 S 0.79287 0.22102 0.27215 0.0
N1554 N 0.80432 0.22601 0.30848 0.0
N1555 N 0.7656 0.19755 0.27489 0.0
C1556 C 0.76489 0.19268 0.30648 0.0
C1557 C 0.78568 0.20834 0.32466 0.0
C1558 C 0.80893 0.69186 0.33206 0.0
C1559 C 0.83651 0.68821 0.33944 0.0
C1560 C 0.79336 0.71651 0.3466 0.0
C1561 C 0.80496 0.73795 0.3691 0.0
H1562 H 0.79945 0.67575 0.31474 0.0
H1563 H 0.77248 0.71974 0.33929 0.0
S1564 S 0.87566 0.73622 0.39865 0.0
N1565 N 0.87421 0.70594 0.37241 0.0
N1566 N 0.84516 0.75297 0.39913 0.0
C1567 C 0.83229 0.73373 0.37738 0.0
C1568 C 0.84804 0.70862 0.36272 0.0
C1569 C 0.28145 0.85461 0.36893 0.0
C1570 C 0.27848 0.85481 0.3358 0.0
C1571 C 0.26337 0.83735 0.38819 0.0
C1572 C 0.24151 0.81992 0.37506 0.0
H1573 H 0.29805 0.86775 0.38014 0.0
H1574 H 0.26625 0.83807 0.41346 0.0
S1575 S 0.22381 0.81277 0.29044 0.0
N1576 N 0.25149 0.8357 0.29114 0.0
N1577 N 0.2172 0.80418 0.32748 0.0
C1578 C 0.2379 0.82028 0.34223 0.0
C1579 C 0.25637 0.83759 0.32258 0.0
C1580 C 0.19845 0.69755 0.67653 0.0
C1581 C 0.17087 0.69408 0.66903 0.0
C1582 C 0.21423 0.72178 0.66179 0.0
C1583 C 0.20288 0.74301 0.63896 0.0
H1584 H 0.20782 0.68137 0.69388 0.0
H1585 H 0.23514 0.72475 0.66907 0.0
S1586 S 0.13231 0.74183 0.60907 0.0
N1587 N 0.13342 0.71189 0.63566 0.0
N1588 N 0.1629 0.75824 0.60863 0.0
C1589 C 0.17552 0.73917 0.63071 0.0
C1590 C 0.15954 0.71444 0.64556 0.0
C1591 C 0.2405 0.17311 0.70425 0.0
C1592 C 0.26393 0.16216 0.68899 0.0
C1593 C 0.21873 0.18675 0.68722 0.0
C1594 C 0.21957 0.1902 0.65429 0.0
H1595 H 0.23921 0.1719 0.72962 0.0
H1596 H 0.20111 0.19494 0.69998 0.0
S1597 S 0.27531 0.16331 0.60283 0.0
N1598 N 0.28598 0.15401 0.63871 0.0
N1599 N 0.24519 0.18035 0.60696 0.0
C1600 C 0.24269 0.17914 0.63869 0.0
C1601 C 0.26479 0.1649 0.65596 0.0
C1602 C 0.78726 0.25152 0.7012 0.0
C1603 C 0.79884 0.23305 0.67675 0.0
C1604 C 0.80001 0.28022 0.71302 0.0
C1605 C 0.8249 0.29094 0.70104 0.0
H1606 H 0.76828 0.24366 0.71123 0.0
H1607 H 0.79021 0.29443 0.73129 0.0
S1608 S 0.86312 0.2515 0.63662 0.0
N1609 N 0.83626 0.22756 0.64075 0.0
N1610 N 0.86026 0.28145 0.663 0.0
C1611 C 0.83664 0.27263 0.67664 0.0
C1612 C 0.82359 0.24366 0.66448 0.0
C1613 C 0.748 0.80058 0.64592 0.0
C1614 C 0.7663 0.81894 0.62775 0.0
C1615 C 0.73007 0.81652 0.66633 0.0
C1616 C 0.73007 0.85134 0.66981 0.0
H1617 H 0.74804 0.77365 0.64512 0.0
H1618 H 0.71618 0.80145 0.67972 0.0
S1619 S 0.77231 0.91113 0.62622 0.0
N1620 N 0.78168 0.87431 0.61296 0.0
N1621 N 0.74897 0.90379 0.65275 0.0
C1622 C 0.74794 0.87006 0.6517 0.0
C1623 C 0.76575 0.85398 0.63029 0.0
C1624 C 0.31054 0.19721 0.22711 0.0
C1625 C 0.32494 0.17804 0.24941 0.0
C1626 C 0.32401 0.21489 0.20351 0.0
C1627 C 0.35233 0.21418 0.20149 0.0
H1628 H 0.28869 0.1985 0.22784 0.0
H1629 H 0.31218 0.22837 0.18611 0.0
S1630 S 0.3994 0.16746 0.25334 0.0
N1631 N 0.3692 0.15933 0.26756 0.0
N1632 N 0.39432 0.19265 0.22317 0.0
C1633 C 0.36699 0.19561 0.22377 0.0
C1634 C 0.35334 0.17756 0.24776 0.0
C1635 C 0.83709 0.30539 0.30231 0.0
C1636 C 0.86536 0.30756 0.305 0.0
C1637 C 0.82304 0.32174 0.27801 0.0
C1638 C 0.83683 0.34102 0.25574 0.0
H1639 H 0.82574 0.29177 0.31972 0.0
H1640 H 0.80126 0.31931 0.27664 0.0
S1641 S 0.91078 0.35591 0.25385 0.0
N1642 N 0.90658 0.33105 0.28432 0.0
N1643 N 0.88033 0.36197 0.23855 0.0
C1644 C 0.86516 0.34324 0.25822 0.0
C1645 C 0.8794 0.32649 0.28291 0.0
C1646 C 0.65591 0.80583 0.26115 0.0
C1647 C 0.66746 0.77972 0.24391 0.0
C1648 C 0.66943 0.81963 0.28726 0.0
C1649 C 0.69486 0.80758 0.29717 0.0
H1650 H 0.63682 0.81653 0.25358 0.0
H1651 H 0.66021 0.84032 0.29945 0.0
S1652 S 0.7334 0.73924 0.26032 0.0
N1653 N 0.70559 0.74222 0.23856 0.0
N1654 N 0.73077 0.76775 0.28813 0.0
C1655 C 0.70635 0.78109 0.2805 0.0
C1656 C 0.69266 0.76718 0.25379 0.0
C1657 C 0.18651 0.67153 0.27396 0.0
C1658 C 0.2147 0.67372 0.27026 0.0
C1659 C 0.17368 0.68639 0.29962 0.0
C1660 C 0.18849 0.70459 0.32215 0.0
H1661 H 0.17435 0.65775 0.25709 0.0
H1662 H 0.15213 0.6829 0.30232 0.0
S1663 S 0.26238 0.71907 0.32271 0.0
N1664 N 0.25687 0.69621 0.29097 0.0
N1665 N 0.23258 0.72446 0.33906 0.0
C1666 C 0.21655 0.70743 0.31852 0.0
C1667 C 0.2297 0.69194 0.29262 0.0
C1668 C 0.31819 0.77011 0.75285 0.0
C1669 C 0.34392 0.7817 0.76206 0.0
C1670 C 0.30443 0.78403 0.72682 0.0
C1671 C 0.31592 0.81012 0.70949 0.0
H1672 H 0.30829 0.75106 0.76654 0.0
H1673 H 0.28451 0.77484 0.7206 0.0
S1674 S 0.38248 0.84961 0.72466 0.0
N1675 N 0.38033 0.82038 0.7518 0.0
N1676 N 0.35423 0.84726 0.70372 0.0
C1677 C 0.3417 0.82164 0.71841 0.0
C1678 C 0.35582 0.80714 0.74441 0.0
C1679 C 0.14234 0.3372 0.74724 0.0
C1680 C 0.17052 0.33374 0.75099 0.0
C1681 C 0.12833 0.32052 0.72309 0.0
C1682 C 0.14202 0.29947 0.70231 0.0
H1683 H 0.13118 0.35367 0.76252 0.0
H1684 H 0.1069 0.32512 0.71985 0.0
S1685 S 0.21508 0.27956 0.70365 0.0
N1686 N 0.21119 0.30591 0.73308 0.0
N1687 N 0.18475 0.27468 0.68767 0.0
C1688 C 0.16992 0.29482 0.70647 0.0
C1689 C 0.18422 0.31195 0.73082 0.0
C1690 C 0.70618 0.19968 0.78062 0.0
C1691 C 0.69118 0.17841 0.76079 0.0
C1692 C 0.69373 0.21698 0.80521 0.0
C1693 C 0.66591 0.2136 0.81069 0.0
H1694 H 0.72764 0.203 0.77704 0.0
H1695 H 0.70603 0.23238 0.82061 0.0
S1696 S 0.61808 0.1597 0.76656 0.0
N1697 N 0.64722 0.15446 0.74867 0.0
N1698 N 0.62402 0.18639 0.79534 0.0
C1699 C 0.65074 0.19242 0.79109 0.0
C1700 C 0.66333 0.175 0.76598 0.0
C1701 C 0.79572 0.69784 0.69205 0.0
C1702 C 0.82298 0.69228 0.68471 0.0
C1703 C 0.78379 0.68187 0.71777 0.0
C1704 C 0.79876 0.6598 0.73686 0.0
H1705 H 0.78353 0.71435 0.67758 0.0
H1706 H 0.76287 0.68719 0.72306 0.0
S1707 S 0.87016 0.63499 0.72592 0.0
N1708 N 0.86406 0.66175 0.69724 0.0
N1709 N 0.84186 0.63231 0.74596 0.0
C1710 C 0.82592 0.65381 0.72949 0.0
C1711 C 0.83797 0.66987 0.70327 0.0
C1712 C 0.23989 0.3616 0.15454 0.0
C1713 C 0.24187 0.36022 0.18761 0.0
C1714 C 0.25742 0.34334 0.13553 0.0
C1715 C 0.27723 0.3226 0.1489 0.0
H1716 H 0.22471 0.37707 0.14325 0.0
H1717 H 0.25579 0.34582 0.11021 0.0
S1718 S 0.29182 0.31086 0.23376 0.0
N1719 N 0.2659 0.33681 0.23273 0.0
N1720 N 0.29882 0.30248 0.19673 0.0
C1721 C 0.27965 0.32103 0.18176 0.0
C1722 C 0.26202 0.33991 0.20119 0.0
C1723 C 0.26789 0.66966 0.79358 0.0
C1724 C 0.26646 0.67869 0.82547 0.0
C1725 C 0.2467 0.65237 0.7786 0.0
C1726 C 0.22335 0.64303 0.79505 0.0
H1727 H 0.28559 0.67605 0.7801 0.0
H1728 H 0.24846 0.64688 0.75378 0.0
S1729 S 0.21119 0.65879 0.88004 0.0
N1730 N 0.24081 0.67611 0.87345 0.0
N1731 N 0.20118 0.64303 0.84603 0.0
C1732 C 0.22209 0.65157 0.8273 0.0
C1733 C 0.24356 0.66953 0.84232 0.0
C1734 C 0.274 0.26685 0.81141 0.0
C1735 C 0.27971 0.28174 0.84065 0.0
C1736 C 0.28945 0.23998 0.80061 0.0
C1737 C 0.31111 0.22756 0.81868 0.0
H1738 H 0.25815 0.27687 0.79637 0.0
H1739 H 0.28479 0.22926 0.77782 0.0
S1740 S 0.33411 0.25795 0.89671 0.0
N1741 N 0.3082 0.28214 0.88746 0.0
N1742 N 0.33738 0.2317 0.8671 0.0
C1743 C 0.31673 0.24193 0.84811 0.0
C1744 C 0.30093 0.26903 0.85916 0.0
C1745 C 0.74766 0.34779 0.87504 0.0
C1746 C 0.72671 0.32878 0.8618 0.0
C1747 C 0.76648 0.36379 0.8558 0.0
C1748 C 0.76484 0.3615 0.82271 0.0
H1749 H 0.74923 0.35071 0.90031 0.0
H1750 H 0.78249 0.37803 0.86692 0.0
S1751 S 0.71444 0.31251 0.77707 0.0
N1752 N 0.70572 0.30733 0.81409 0.0
N1753 N 0.74125 0.33698 0.77791 0.0
C1754 C 0.74405 0.34213 0.80936 0.0
C1755 C 0.72498 0.32585 0.82893 0.0
C1756 C 0.67523 0.73654 0.82373 0.0
C1757 C 0.70015 0.72534 0.81213 0.0
C1758 C 0.66236 0.7646 0.81091 0.0
C1759 C 0.67413 0.7826 0.78631 0.0
H1760 H 0.66573 0.72355 0.84298 0.0
H1761 H 0.64357 0.77303 0.82104 0.0
S1762 S 0.73928 0.76393 0.74811 0.0
N1763 N 0.73603 0.73423 0.77468 0.0
N1764 N 0.71218 0.78774 0.75117 0.0
C1765 C 0.69902 0.77174 0.77456 0.0
C1766 C 0.712 0.74293 0.78739 0.0
C1767 C 0.75967 0.68421 0.19716 0.0
C1768 C 0.74116 0.66535 0.17932 0.0
C1769 C 0.78049 0.66884 0.21445 0.0
C1770 C 0.78364 0.634 0.21463 0.0
H1771 H 0.75768 0.711 0.19843 0.0
H1772 H 0.79425 0.68438 0.22794 0.0
S1773 S 0.7423 0.57352 0.16949 0.0
N1774 N 0.72862 0.60998 0.16109 0.0
N1775 N 0.76756 0.58124 0.19415 0.0
C1776 C 0.76565 0.61485 0.19653 0.0
C1777 C 0.74453 0.63048 0.17868 0.0
C1778 C 0.35498 0.7663 0.194 0.0
C1779 C 0.34097 0.78462 0.21677 0.0
C1780 C 0.34322 0.73826 0.17971 0.0
C1781 C 0.31716 0.72764 0.18786 0.0
H1782 H 0.37474 0.7744 0.18645 0.0
H1783 H 0.35449 0.72486 0.16206 0.0
S1784 S 0.2722 0.7672 0.24574 0.0
N1785 N 0.29966 0.79057 0.2464 0.0
N1786 N 0.27781 0.7373 0.21999 0.0
C1787 C 0.30307 0.74559 0.21066 0.0
C1788 C 0.31495 0.77422 0.22506 0.0
C1789 C 0.73215 0.27113 0.19758 0.0
C1790 C 0.72534 0.28552 0.16842 0.0
C1791 C 0.71734 0.24422 0.2094 0.0
C1792 C 0.69518 0.23133 0.19251 0.0
H1793 H 0.74849 0.28142 0.21169 0.0
H1794 H 0.72299 0.23372 0.23199 0.0
S1795 S 0.6693 0.26033 0.1152 0.0
N1796 N 0.69524 0.28498 0.12299 0.0
N1797 N 0.66727 0.23447 0.14527 0.0
C1798 C 0.68838 0.24529 0.16324 0.0
C1799 C 0.70355 0.27241 0.15113 0.0
loop_
_geom_bond_atom_site_label_1
_geom_bond_atom_site_label_2
_geom_bond_distance
_geom_bond_site_symmetry_2
_ccdc_geom_bond_type
C0 C1 1.443 . S
C0 N4 1.376 . S
C0 C38 1.389 . S
C1 C0 1.443 . S
C1 C2 1.340 . S
C1 H41 0.951 . S
C2 C1 1.340 . S
C2 C3 1.439 . S
C2 H42 0.950 . S
C3 C2 1.439 . S
C3 N4 1.374 . S
C3 C37 1.395 . S
N4 C0 1.376 . S
N4 C3 1.374 . S
N4 Co5 2.008 . S
Co5 N4 2.008 . S
Co5 N6 1.995 . S
Co5 N11 2.008 . S
Co5 N16 1.995 . S
Co5 N21 2.282 . S
Co5 N27 2.282 . S
N6 Co5 1.995 . S
N6 C7 1.376 . S
N6 C10 1.383 . S
C7 N6 1.376 . S
C7 C8 1.446 . S
C7 C37 1.391 . S
C8 C7 1.446 . S
C8 C9 1.339 . S
C8 H43 0.949 . S
C9 C8 1.339 . S
C9 C10 1.439 . S
C9 H44 0.950 . S
C10 N6 1.383 . S
C10 C9 1.439 . S
C10 C39 1.392 . S
N11 Co5 2.008 . S
N11 C12 1.376 . S
N11 C15 1.374 . S
C12 N11 1.376 . S
C12 C13 1.443 . S
C12 C39 1.389 . S
C13 C12 1.443 . S
C13 C14 1.340 . S
C13 H45 0.951 . S
C14 C13 1.340 . S
C14 C15 1.439 . S
C14 H46 0.950 . S
C15 N11 1.374 . S
C15 C14 1.439 . S
C15 C40 1.395 . S
N16 Co5 1.995 . S
N16 C17 1.376 . S
N16 C20 1.383 . S
C17 N16 1.376 . S
C17 C18 1.446 . S
C17 C40 1.391 . S
C18 C17 1.446 . S
C18 C19 1.339 . S
C18 H47 0.949 . S
C19 C18 1.339 . S
C19 C20 1.439 . S
C19 H48 0.950 . S
C20 N16 1.383 . S
C20 C19 1.439 . S
C20 C38 1.392 . S
N21 Co5 2.282 . S
N21 C24 1.332 . S
N21 C26 1.332 . S
C22 C23 1.386 . S
C22 C25 1.388 . S
C23 C22 1.386 . S
C23 C24 1.382 . S
C23 H49 0.950 . S
C24 N21 1.332 . S
C24 C23 1.382 . S
C24 H35 0.952 . S
C25 C22 1.388 . S
C25 C26 1.382 . S
C25 H50 0.950 . S
C26 N21 1.332 . S
C26 C25 1.382 . S
C26 H36 0.948 . S
N27 Co5 2.282 . S
N27 C31 1.332 . S
N27 C32 1.332 . S
C28 C29 1.388 . S
C28 C32 1.382 . S
C28 H51 0.950 . S
C29 C28 1.388 . S
C29 C30 1.386 . S
C30 C29 1.386 . S
C30 C31 1.382 . S
C30 H52 0.950 . S
C31 N27 1.332 . S
C31 C30 1.382 . S
C31 H33 0.952 . S
C32 N27 1.332 . S
C32 C28 1.382 . S
C32 H34 0.948 . S
H33 C31 0.952 . S
H34 C32 0.948 . S
H35 C24 0.952 . S
H36 C26 0.948 . S
C37 C3 1.395 . S
C37 C7 1.391 . S
C38 C0 1.389 . S
C38 C20 1.392 . S
C39 C10 1.392 . S
C39 C12 1.389 . S
C40 C15 1.395 . S
C40 C17 1.391 . S
H41 C1 0.951 . S
H42 C2 0.950 . S
H43 C8 0.949 . S
H44 C9 0.950 . S
H45 C13 0.951 . S
H46 C14 0.950 . S
H47 C18 0.949 . S
H48 C19 0.950 . S
H49 C23 0.950 . S
H50 C25 0.950 . S
H51 C28 0.950 . S
H52 C30 0.950 . S
C53 C54 1.443 . S
C53 N57 1.376 . S
C53 C91 1.389 . S
C54 C53 1.443 . S
C54 C55 1.340 . S
C54 H94 0.951 . S
C55 C54 1.340 . S
C55 C56 1.439 . S
C55 H95 0.950 . S
C56 C55 1.439 . S
C56 N57 1.374 . S
C56 C90 1.395 . S
N57 C53 1.376 . S
N57 C56 1.374 . S
N57 Co58 2.008 . S
Co58 N57 2.008 . S
Co58 N59 1.995 . S
Co58 N64 2.008 . S
Co58 N69 1.995 . S
Co58 N74 2.282 . S
Co58 N80 2.282 . S
N59 Co58 1.995 . S
N59 C60 1.376 . S
N59 C63 1.383 . S
C60 N59 1.376 . S
C60 C61 1.446 . S
C60 C90 1.391 . S
C61 C60 1.446 . S
C61 C62 1.339 . S
C61 H96 0.949 . S
C62 C61 1.339 . S
C62 C63 1.439 . S
C62 H97 0.950 . S
C63 N59 1.383 . S
C63 C62 1.439 . S
C63 C92 1.392 . S
N64 Co58 2.008 . S
N64 C65 1.376 . S
N64 C68 1.374 . S
C65 N64 1.376 . S
C65 C66 1.443 . S
C65 C92 1.389 . S
C66 C65 1.443 . S
C66 C67 1.340 . S
C66 H98 0.951 . S
C67 C66 1.340 . S
C67 C68 1.439 . S
C67 H99 0.950 . S
C68 N64 1.374 . S
C68 C67 1.439 . S
C68 C93 1.395 . S
N69 Co58 1.995 . S
N69 C70 1.376 . S
N69 C73 1.383 . S
C70 N69 1.376 . S
C70 C71 1.446 . S
C70 C93 1.391 . S
C71 C70 1.446 . S
C71 C72 1.339 . S
C71 H100 0.949 1_545 S
C72 C71 1.339 . S
C72 C73 1.439 . S
C72 H101 0.950 1_545 S
C73 N69 1.383 . S
C73 C72 1.439 . S
C73 C91 1.392 . S
N74 Co58 2.282 . S
N74 C77 1.332 . S
N74 C79 1.332 . S
C75 C76 1.386 . S
C75 C78 1.388 . S
C76 C75 1.386 . S
C76 C77 1.382 . S
C76 H102 0.950 . S
C77 N74 1.332 . S
C77 C76 1.382 . S
C77 H88 0.952 . S
C78 C75 1.388 . S
C78 C79 1.382 . S
C78 H103 0.950 . S
C79 N74 1.332 . S
C79 C78 1.382 . S
C79 H89 0.948 . S
N80 Co58 2.282 . S
N80 C84 1.332 . S
N80 C85 1.332 . S
C81 C82 1.388 . S
C81 C85 1.382 . S
C81 H104 0.950 . S
C82 C81 1.388 . S
C82 C83 1.386 . S
C83 C82 1.386 . S
C83 C84 1.382 . S
C83 H105 0.950 . S
C84 N80 1.332 . S
C84 C83 1.382 . S
C84 H86 0.952 . S
C85 N80 1.332 . S
C85 C81 1.382 . S
C85 H87 0.948 . S
H86 C84 0.952 . S
H87 C85 0.948 . S
H88 C77 0.952 . S
H89 C79 0.948 . S
C90 C56 1.395 . S
C90 C60 1.391 . S
C91 C53 1.389 . S
C91 C73 1.392 . S
C92 C63 1.392 . S
C92 C65 1.389 . S
C93 C68 1.395 . S
C93 C70 1.391 . S
H94 C54 0.951 . S
H95 C55 0.950 . S
H96 C61 0.949 . S
H97 C62 0.950 . S
H98 C66 0.951 . S
H99 C67 0.950 . S
H100 C71 0.949 1_565 S
H101 C72 0.950 1_565 S
H102 C76 0.950 . S
H103 C78 0.950 . S
H104 C81 0.950 . S
H105 C83 0.950 . S
C106 C107 1.443 . S
C106 N110 1.376 . S
C106 C144 1.389 . S
C107 C106 1.443 . S
C107 C108 1.340 . S
C107 H147 0.951 . S
C108 C107 1.340 . S
C108 C109 1.439 . S
C108 H148 0.950 . S
C109 C108 1.439 . S
C109 N110 1.374 . S
C109 C143 1.395 . S
N110 C106 1.376 . S
N110 C109 1.374 . S
N110 Co111 2.008 . S
Co111 N110 2.008 . S
Co111 N112 1.995 . S
Co111 N117 2.008 . S
Co111 N122 1.995 . S
Co111 N127 2.282 . S
Co111 N133 2.282 . S
N112 Co111 1.995 . S
N112 C113 1.376 . S
N112 C116 1.383 . S
C113 N112 1.376 . S
C113 C114 1.446 . S
C113 C143 1.391 . S
C114 C113 1.446 . S
C114 C115 1.339 . S
C114 H149 0.949 . S
C115 C114 1.339 . S
C115 C116 1.439 . S
C115 H150 0.950 . S
C116 N112 1.383 . S
C116 C115 1.439 . S
C116 C145 1.392 . S
N117 Co111 2.008 . S
N117 C118 1.376 . S
N117 C121 1.374 . S
C118 N117 1.376 . S
C118 C119 1.443 . S
C118 C145 1.389 . S
C119 C118 1.443 . S
C119 C120 1.340 . S
C119 H151 0.951 . S
C120 C119 1.340 . S
C120 C121 1.439 . S
C120 H152 0.950 . S
C121 N117 1.374 . S
C121 C120 1.439 . S
C121 C146 1.395 . S
N122 Co111 1.995 . S
N122 C123 1.376 . S
N122 C126 1.383 . S
C123 N122 1.376 . S
C123 C124 1.446 . S
C123 C146 1.391 . S
C124 C123 1.446 . S
C124 C125 1.339 . S
C124 H153 0.949 . S
C125 C124 1.339 . S
C125 C126 1.439 . S
C125 H154 0.950 . S
C126 N122 1.383 . S
C126 C125 1.439 . S
C126 C144 1.392 . S
N127 Co111 2.282 . S
N127 C130 1.332 . S
N127 C132 1.332 . S
C128 C129 1.386 . S
C128 C131 1.388 . S
C129 C128 1.386 . S
C129 C130 1.382 . S
C129 H155 0.950 . S
C130 N127 1.332 . S
C130 C129 1.382 . S
C130 H141 0.952 . S
C131 C128 1.388 . S
C131 C132 1.382 . S
C131 H156 0.950 . S
C132 N127 1.332 . S
C132 C131 1.382 . S
C132 H142 0.948 . S
N133 Co111 2.282 . S
N133 C137 1.332 . S
N133 C138 1.332 . S
C134 C135 1.388 . S
C134 C138 1.382 . S
C134 H157 0.950 . S
C135 C134 1.388 . S
C135 C136 1.386 . S
C136 C135 1.386 . S
C136 C137 1.382 . S
C136 H158 0.950 . S
C137 N133 1.332 . S
C137 C136 1.382 . S
C137 H139 0.952 . S
C138 N133 1.332 . S
C138 C134 1.382 . S
C138 H140 0.948 . S
H139 C137 0.952 . S
H140 C138 0.948 . S
H141 C130 0.952 . S
H142 C132 0.948 . S
C143 C109 1.395 . S
C143 C113 1.391 . S
C144 C106 1.389 . S
C144 C126 1.392 . S
C145 C116 1.392 . S
C145 C118 1.389 . S
C146 C121 1.395 . S
C146 C123 1.391 . S
H147 C107 0.951 . S
H148 C108 0.950 . S
H149 C114 0.949 . S
H150 C115 0.950 . S
H151 C119 0.951 . S
H152 C120 0.950 . S
H153 C124 0.949 . S
H154 C125 0.950 . S
H155 C129 0.950 . S
H156 C131 0.950 . S
H157 C134 0.950 . S
H158 C136 0.950 . S
C159 C160 1.443 . S
C159 N163 1.376 . S
C159 C197 1.389 . S
C160 C159 1.443 . S
C160 C161 1.340 . S
C160 H200 0.951 . S
C161 C160 1.340 . S
C161 C162 1.439 . S
C161 H201 0.950 . S
C162 C161 1.439 . S
C162 N163 1.374 . S
C162 C196 1.395 . S
N163 C159 1.376 . S
N163 C162 1.374 . S
N163 Co164 2.008 . S
Co164 N163 2.008 . S
Co164 N165 1.995 . S
Co164 N170 2.008 . S
Co164 N175 1.995 . S
Co164 N180 2.282 . S
Co164 N186 2.282 . S
N165 Co164 1.995 . S
N165 C166 1.376 . S
N165 C169 1.383 . S
C166 N165 1.376 . S
C166 C167 1.446 . S
C166 C196 1.391 . S
C167 C166 1.446 . S
C167 C168 1.339 . S
C167 H202 0.949 . S
C168 C167 1.339 . S
C168 C169 1.439 . S
C168 H203 0.950 . S
C169 N165 1.383 . S
C169 C168 1.439 . S
C169 C198 1.392 . S
N170 Co164 2.008 . S
N170 C171 1.376 . S
N170 C174 1.374 . S
C171 N170 1.376 . S
C171 C172 1.443 . S
C171 C198 1.389 . S
C172 C171 1.443 . S
C172 C173 1.340 . S
C172 H204 0.951 . S
C173 C172 1.340 . S
C173 C174 1.439 . S
C173 H205 0.950 . S
C174 N170 1.374 . S
C174 C173 1.439 . S
C174 C199 1.395 . S
N175 Co164 1.995 . S
N175 C176 1.376 . S
N175 C179 1.383 . S
C176 N175 1.376 . S
C176 C177 1.446 1_565 S
C176 C199 1.391 . S
C177 C176 1.446 1_545 S
C177 C178 1.339 . S
C177 H206 0.949 . S
C178 C177 1.339 . S
C178 C179 1.439 1_545 S
C178 H207 0.950 . S
C179 N175 1.383 . S
C179 C178 1.439 1_565 S
C179 C197 1.392 . S
N180 Co164 2.282 . S
N180 C183 1.332 . S
N180 C185 1.332 . S
C181 C182 1.386 . S
C181 C184 1.388 . S
C182 C181 1.386 . S
C182 C183 1.382 . S
C182 H208 0.950 . S
C183 N180 1.332 . S
C183 C182 1.382 . S
C183 H194 0.952 . S
C184 C181 1.388 . S
C184 C185 1.382 . S
C184 H209 0.950 . S
C185 N180 1.332 . S
C185 C184 1.382 . S
C185 H195 0.948 . S
N186 Co164 2.282 . S
N186 C190 1.332 . S
N186 C191 1.332 . S
C187 C188 1.388 . S
C187 C191 1.382 . S
C187 H210 0.950 . S
C188 C187 1.388 . S
C188 C189 1.386 . S
C189 C188 1.386 . S
C189 C190 1.382 . S
C189 H211 0.950 . S
C190 N186 1.332 . S
C190 C189 1.382 . S
C190 H192 0.952 . S
C191 N186 1.332 . S
C191 C187 1.382 . S
C191 H193 0.948 . S
H192 C190 0.952 . S
H193 C191 0.948 . S
H194 C183 0.952 . S
H195 C185 0.948 . S
C196 C162 1.395 . S
C196 C166 1.391 . S
C197 C159 1.389 . S
C197 C179 1.392 . S
C198 C169 1.392 . S
C198 C171 1.389 . S
C199 C174 1.395 . S
C199 C176 1.391 . S
H200 C160 0.951 . S
H201 C161 0.950 . S
H202 C167 0.949 . S
H203 C168 0.950 . S
H204 C172 0.951 . S
H205 C173 0.950 . S
H206 C177 0.949 . S
H207 C178 0.950 . S
H208 C182 0.950 . S
H209 C184 0.950 . S
H210 C187 0.950 . S
H211 C189 0.950 . S
C212 C213 1.443 . S
C212 N216 1.376 . S
C212 C250 1.389 . S
C213 C212 1.443 . S
C213 C214 1.340 . S
C213 H253 0.951 . S
C214 C213 1.340 . S
C214 C215 1.439 . S
C214 H254 0.950 . S
C215 C214 1.439 . S
C215 N216 1.374 . S
C215 C249 1.395 . S
N216 C212 1.376 . S
N216 C215 1.374 . S
N216 Co217 2.008 . S
Co217 N216 2.008 . S
Co217 N218 1.995 . S
Co217 N223 2.008 . S
Co217 N228 1.995 . S
Co217 N233 2.282 . S
Co217 N239 2.282 . S
N218 Co217 1.995 . S
N218 C219 1.376 . S
N218 C222 1.383 . S
C219 N218 1.376 . S
C219 C220 1.446 . S
C219 C249 1.391 . S
C220 C219 1.446 . S
C220 C221 1.339 . S
C220 H255 0.949 . S
C221 C220 1.339 . S
C221 C222 1.439 . S
C221 H256 0.950 . S
C222 N218 1.383 . S
C222 C221 1.439 . S
C222 C251 1.392 . S
N223 Co217 2.008 . S
N223 C224 1.376 . S
N223 C227 1.374 . S
C224 N223 1.376 . S
C224 C225 1.443 . S
C224 C251 1.389 . S
C225 C224 1.443 . S
C225 C226 1.340 . S
C225 H257 0.951 . S
C226 C225 1.340 . S
C226 C227 1.439 . S
C226 H258 0.950 . S
C227 N223 1.374 . S
C227 C226 1.439 . S
C227 C252 1.395 . S
N228 Co217 1.995 . S
N228 C229 1.376 . S
N228 C232 1.383 . S
C229 N228 1.376 . S
C229 C230 1.446 . S
C229 C252 1.391 . S
C230 C229 1.446 . S
C230 C231 1.339 . S
C230 H259 0.949 . S
C231 C230 1.339 . S
C231 C232 1.439 . S
C231 H260 0.950 . S
C232 N228 1.383 . S
C232 C231 1.439 . S
C232 C250 1.392 . S
N233 Co217 2.282 . S
N233 C236 1.332 . S
N233 C238 1.332 . S
C234 C235 1.386 . S
C234 C237 1.388 . S
C235 C234 1.386 . S
C235 C236 1.382 . S
C235 H261 0.950 . S
C236 N233 1.332 . S
C236 C235 1.382 . S
C236 H247 0.952 . S
C237 C234 1.388 . S
C237 C238 1.382 . S
C237 H262 0.950 . S
C238 N233 1.332 . S
C238 C237 1.382 . S
C238 H248 0.948 . S
N239 Co217 2.282 . S
N239 C243 1.332 . S
N239 C244 1.332 . S
C240 C241 1.388 . S
C240 C244 1.382 . S
C240 H263 0.950 . S
C241 C240 1.388 . S
C241 C242 1.386 . S
C242 C241 1.386 . S
C242 C243 1.382 . S
C242 H264 0.950 . S
C243 N239 1.332 . S
C243 C242 1.382 . S
C243 H245 0.952 . S
C244 N239 1.332 . S
C244 C240 1.382 . S
C244 H246 0.948 . S
H245 C243 0.952 . S
H246 C244 0.948 . S
H247 C236 0.952 . S
H248 C238 0.948 . S
C249 C215 1.395 . S
C249 C219 1.391 . S
C250 C212 1.389 . S
C250 C232 1.392 . S
C251 C222 1.392 . S
C251 C224 1.389 . S
C252 C227 1.395 . S
C252 C229 1.391 . S
H253 C213 0.951 . S
H254 C214 0.950 . S
H255 C220 0.949 . S
H256 C221 0.950 . S
H257 C225 0.951 . S
H258 C226 0.950 . S
H259 C230 0.949 . S
H260 C231 0.950 . S
H261 C235 0.950 . S
H262 C237 0.950 . S
H263 C240 0.950 . S
H264 C242 0.950 . S
C265 C266 1.443 . S
C265 N269 1.376 . S
C265 C303 1.389 . S
C266 C265 1.443 . S
C266 C267 1.340 . S
C266 H306 0.951 . S
C267 C266 1.340 . S
C267 C268 1.439 . S
C267 H307 0.950 . S
C268 C267 1.439 . S
C268 N269 1.374 . S
C268 C302 1.395 . S
N269 C265 1.376 . S
N269 C268 1.374 . S
N269 Co270 2.008 . S
Co270 N269 2.008 . S
Co270 N271 1.995 . S
Co270 N276 2.008 . S
Co270 N281 1.995 . S
Co270 N286 2.282 . S
Co270 N292 2.282 . S
N271 Co270 1.995 . S
N271 C272 1.376 . S
N271 C275 1.383 . S
C272 N271 1.376 . S
C272 C273 1.446 . S
C272 C302 1.391 . S
C273 C272 1.446 . S
C273 C274 1.339 . S
C273 H308 0.949 . S
C274 C273 1.339 . S
C274 C275 1.439 . S
C274 H309 0.950 . S
C275 N271 1.383 . S
C275 C274 1.439 . S
C275 C304 1.392 . S
N276 Co270 2.008 . S
N276 C277 1.376 . S
N276 C280 1.374 . S
C277 N276 1.376 . S
C277 C278 1.443 . S
C277 C304 1.389 . S
C278 C277 1.443 . S
C278 C279 1.340 . S
C278 H310 0.951 . S
C279 C278 1.340 . S
C279 C280 1.439 . S
C279 H311 0.950 . S
C280 N276 1.374 . S
C280 C279 1.439 . S
C280 C305 1.395 . S
N281 Co270 1.995 . S
N281 C282 1.376 . S
N281 C285 1.383 . S
C282 N281 1.376 . S
C282 C283 1.446 . S
C282 C305 1.391 . S
C283 C282 1.446 . S
C283 C284 1.339 . S
C283 H312 0.949 1_545 S
C284 C283 1.339 . S
C284 C285 1.439 . S
C284 H313 0.950 1_545 S
C285 N281 1.383 . S
C285 C284 1.439 . S
C285 C303 1.392 . S
N286 Co270 2.282 . S
N286 C289 1.332 . S
N286 C291 1.332 . S
C287 C288 1.386 . S
C287 C290 1.388 . S
C288 C287 1.386 . S
C288 C289 1.382 . S
C288 H314 0.950 . S
C289 N286 1.332 . S
C289 C288 1.382 . S
C289 H300 0.952 . S
C290 C287 1.388 . S
C290 C291 1.382 . S
C290 H315 0.950 . S
C291 N286 1.332 . S
C291 C290 1.382 . S
C291 H301 0.948 . S
N292 Co270 2.282 . S
N292 C296 1.332 . S
N292 C297 1.332 . S
C293 C294 1.388 . S
C293 C297 1.382 . S
C293 H316 0.950 . S
C294 C293 1.388 . S
C294 C295 1.386 . S
C295 C294 1.386 . S
C295 C296 1.382 . S
C295 H317 0.950 . S
C296 N292 1.332 . S
C296 C295 1.382 . S
C296 H298 0.952 . S
C297 N292 1.332 . S
C297 C293 1.382 . S
C297 H299 0.948 . S
H298 C296 0.952 . S
H299 C297 0.948 . S
H300 C289 0.952 . S
H301 C291 0.948 . S
C302 C268 1.395 . S
C302 C272 1.391 . S
C303 C265 1.389 . S
C303 C285 1.392 . S
C304 C275 1.392 . S
C304 C277 1.389 . S
C305 C280 1.395 . S
C305 C282 1.391 . S
H306 C266 0.951 . S
H307 C267 0.950 . S
H308 C273 0.949 . S
H309 C274 0.950 . S
H310 C278 0.951 . S
H311 C279 0.950 . S
H312 C283 0.949 1_565 S
H313 C284 0.950 1_565 S
H314 C288 0.950 . S
H315 C290 0.950 . S
H316 C293 0.950 . S
H317 C295 0.950 . S
C318 C319 1.443 . S
C318 N322 1.376 . S
C318 C356 1.389 . S
C319 C318 1.443 . S
C319 C320 1.340 . S
C319 H359 0.951 . S
C320 C319 1.340 . S
C320 C321 1.439 . S
C320 H360 0.950 . S
C321 C320 1.439 . S
C321 N322 1.374 . S
C321 C355 1.395 . S
N322 C318 1.376 . S
N322 C321 1.374 . S
N322 Co323 2.008 . S
Co323 N322 2.008 . S
Co323 N324 1.995 . S
Co323 N329 2.008 . S
Co323 N334 1.995 . S
Co323 N339 2.282 . S
Co323 N345 2.282 . S
N324 Co323 1.995 . S
N324 C325 1.376 . S
N324 C328 1.383 . S
C325 N324 1.376 . S
C325 C326 1.446 . S
C325 C355 1.391 . S
C326 C325 1.446 . S
C326 C327 1.339 . S
C326 H361 0.949 . S
C327 C326 1.339 . S
C327 C328 1.439 . S
C327 H362 0.950 . S
C328 N324 1.383 . S
C328 C327 1.439 . S
C328 C357 1.392 . S
N329 Co323 2.008 . S
N329 C330 1.376 . S
N329 C333 1.374 . S
C330 N329 1.376 . S
C330 C331 1.443 . S
C330 C357 1.389 . S
C331 C330 1.443 . S
C331 C332 1.340 . S
C331 H363 0.951 . S
C332 C331 1.340 . S
C332 C333 1.439 . S
C332 H364 0.950 . S
C333 N329 1.374 . S
C333 C332 1.439 . S
C333 C358 1.395 . S
N334 Co323 1.995 . S
N334 C335 1.376 . S
N334 C338 1.383 . S
C335 N334 1.376 . S
C335 C336 1.446 . S
C335 C358 1.391 . S
C336 C335 1.446 . S
C336 C337 1.339 . S
C336 H365 0.949 . S
C337 C336 1.339 . S
C337 C338 1.439 . S
C337 H366 0.950 . S
C338 N334 1.383 . S
C338 C337 1.439 . S
C338 C356 1.392 . S
N339 Co323 2.282 . S
N339 C342 1.332 . S
N339 C344 1.332 . S
C340 C341 1.386 . S
C340 C343 1.388 . S
C341 C340 1.386 . S
C341 C342 1.382 . S
C341 H367 0.950 . S
C342 N339 1.332 . S
C342 C341 1.382 . S
C342 H353 0.952 . S
C343 C340 1.388 . S
C343 C344 1.382 . S
C343 H368 0.950 . S
C344 N339 1.332 . S
C344 C343 1.382 . S
C344 H354 0.948 . S
N345 Co323 2.282 . S
N345 C349 1.332 . S
N345 C350 1.332 . S
C346 C347 1.388 . S
C346 C350 1.382 . S
C346 H369 0.950 . S
C347 C346 1.388 . S
C347 C348 1.386 . S
C348 C347 1.386 . S
C348 C349 1.382 . S
C348 H370 0.950 . S
C349 N345 1.332 . S
C349 C348 1.382 . S
C349 H351 0.952 . S
C350 N345 1.332 . S
C350 C346 1.382 . S
C350 H352 0.948 . S
H351 C349 0.952 . S
H352 C350 0.948 . S
H353 C342 0.952 . S
H354 C344 0.948 . S
C355 C321 1.395 . S
C355 C325 1.391 . S
C356 C318 1.389 . S
C356 C338 1.392 . S
C357 C328 1.392 . S
C357 C330 1.389 . S
C358 C333 1.395 . S
C358 C335 1.391 . S
H359 C319 0.951 . S
H360 C320 0.950 . S
H361 C326 0.949 . S
H362 C327 0.950 . S
H363 C331 0.951 . S
H364 C332 0.950 . S
H365 C336 0.949 . S
H366 C337 0.950 . S
H367 C341 0.950 . S
H368 C343 0.950 . S
H369 C346 0.950 . S
H370 C348 0.950 . S
C371 C372 1.443 . S
C371 N375 1.376 . S
C371 C409 1.389 . S
C372 C371 1.443 . S
C372 C373 1.340 . S
C372 H412 0.951 . S
C373 C372 1.340 . S
C373 C374 1.439 . S
C373 H413 0.950 . S
C374 C373 1.439 . S
C374 N375 1.374 . S
C374 C408 1.395 . S
N375 C371 1.376 . S
N375 C374 1.374 . S
N375 Co376 2.008 . S
Co376 N375 2.008 . S
Co376 N377 1.995 . S
Co376 N382 2.008 . S
Co376 N387 1.995 . S
Co376 N392 2.282 . S
Co376 N398 2.282 . S
N377 Co376 1.995 . S
N377 C378 1.376 . S
N377 C381 1.383 . S
C378 N377 1.376 . S
C378 C379 1.446 . S
C378 C408 1.391 . S
C379 C378 1.446 . S
C379 C380 1.339 . S
C379 H414 0.949 . S
C380 C379 1.339 . S
C380 C381 1.439 . S
C380 H415 0.950 . S
C381 N377 1.383 . S
C381 C380 1.439 . S
C381 C410 1.392 . S
N382 Co376 2.008 . S
N382 C383 1.376 . S
N382 C386 1.374 . S
C383 N382 1.376 . S
C383 C384 1.443 . S
C383 C410 1.389 . S
C384 C383 1.443 . S
C384 C385 1.340 . S
C384 H416 0.951 . S
C385 C384 1.340 . S
C385 C386 1.439 . S
C385 H417 0.950 . S
C386 N382 1.374 . S
C386 C385 1.439 . S
C386 C411 1.395 . S
N387 Co376 1.995 . S
N387 C388 1.376 . S
N387 C391 1.383 . S
C388 N387 1.376 . S
C388 C389 1.446 1_565 S
C388 C411 1.391 . S
C389 C388 1.446 1_545 S
C389 C390 1.339 . S
C389 H418 0.949 . S
C390 C389 1.339 . S
C390 C391 1.439 1_545 S
C390 H419 0.950 . S
C391 N387 1.383 . S
C391 C390 1.439 1_565 S
C391 C409 1.392 . S
N392 Co376 2.282 . S
N392 C395 1.332 . S
N392 C397 1.332 . S
C393 C394 1.386 . S
C393 C396 1.388 . S
C394 C393 1.386 . S
C394 C395 1.382 . S
C394 H420 0.950 . S
C395 N392 1.332 . S
C395 C394 1.382 . S
C395 H406 0.952 . S
C396 C393 1.388 . S
C396 C397 1.382 . S
C396 H421 0.950 . S
C397 N392 1.332 . S
C397 C396 1.382 . S
C397 H407 0.948 . S
N398 Co376 2.282 . S
N398 C402 1.332 . S
N398 C403 1.332 . S
C399 C400 1.388 . S
C399 C403 1.382 . S
C399 H422 0.950 . S
C400 C399 1.388 . S
C400 C401 1.386 . S
C401 C400 1.386 . S
C401 C402 1.382 . S
C401 H423 0.950 . S
C402 N398 1.332 . S
C402 C401 1.382 . S
C402 H404 0.952 . S
C403 N398 1.332 . S
C403 C399 1.382 . S
C403 H405 0.948 . S
H404 C402 0.952 . S
H405 C403 0.948 . S
H406 C395 0.952 . S
H407 C397 0.948 . S
C408 C374 1.395 . S
C408 C378 1.391 . S
C409 C371 1.389 . S
C409 C391 1.392 . S
C410 C381 1.392 . S
C410 C383 1.389 . S
C411 C386 1.395 . S
C411 C388 1.391 . S
H412 C372 0.951 . S
H413 C373 0.950 . S
H414 C379 0.949 . S
H415 C380 0.950 . S
H416 C384 0.951 . S
H417 C385 0.950 . S
H418 C389 0.949 . S
H419 C390 0.950 . S
H420 C394 0.950 . S
H421 C396 0.950 . S
H422 C399 0.950 . S
H423 C401 0.950 . S
C424 C425 1.443 . S
C424 N428 1.376 . S
C424 C462 1.389 . S
C425 C424 1.443 . S
C425 C426 1.340 . S
C425 H465 0.951 . S
C426 C425 1.340 . S
C426 C427 1.439 . S
C426 H466 0.950 . S
C427 C426 1.439 . S
C427 N428 1.374 . S
C427 C461 1.395 . S
N428 C424 1.376 . S
N428 C427 1.374 . S
N428 Co429 2.008 . S
Co429 N428 2.008 . S
Co429 N430 1.995 . S
Co429 N435 2.008 . S
Co429 N440 1.995 . S
Co429 N445 2.282 . S
Co429 N451 2.282 . S
N430 Co429 1.995 . S
N430 C431 1.376 . S
N430 C434 1.383 . S
C431 N430 1.376 . S
C431 C432 1.446 . S
C431 C461 1.391 . S
C432 C431 1.446 . S
C432 C433 1.339 . S
C432 H467 0.949 . S
C433 C432 1.339 . S
C433 C434 1.439 . S
C433 H468 0.950 . S
C434 N430 1.383 . S
C434 C433 1.439 . S
C434 C463 1.392 . S
N435 Co429 2.008 . S
N435 C436 1.376 . S
N435 C439 1.374 . S
C436 N435 1.376 . S
C436 C437 1.443 . S
C436 C463 1.389 . S
C437 C436 1.443 . S
C437 C438 1.340 . S
C437 H469 0.951 . S
C438 C437 1.340 . S
C438 C439 1.439 . S
C438 H470 0.950 . S
C439 N435 1.374 . S
C439 C438 1.439 . S
C439 C464 1.395 . S
N440 Co429 1.995 . S
N440 C441 1.376 . S
N440 C444 1.383 . S
C441 N440 1.376 . S
C441 C442 1.446 . S
C441 C464 1.391 . S
C442 C441 1.446 . S
C442 C443 1.339 . S
C442 H471 0.949 . S
C443 C442 1.339 . S
C443 C444 1.439 . S
C443 H472 0.950 . S
C444 N440 1.383 . S
C444 C443 1.439 . S
C444 C462 1.392 . S
N445 Co429 2.282 . S
N445 C448 1.332 . S
N445 C450 1.332 . S
C446 C447 1.386 . S
C446 C449 1.388 . S
C447 C446 1.386 . S
C447 C448 1.382 . S
C447 H473 0.950 . S
C448 N445 1.332 . S
C448 C447 1.382 . S
C448 H459 0.952 . S
C449 C446 1.388 . S
C449 C450 1.382 . S
C449 H474 0.950 . S
C450 N445 1.332 . S
C450 C449 1.382 . S
C450 H460 0.948 . S
N451 Co429 2.282 . S
N451 C455 1.332 . S
N451 C456 1.332 . S
C452 C453 1.388 . S
C452 C456 1.382 . S
C452 H475 0.950 . S
C453 C452 1.388 . S
C453 C454 1.386 . S
C454 C453 1.386 . S
C454 C455 1.382 . S
C454 H476 0.950 . S
C455 N451 1.332 . S
C455 C454 1.382 . S
C455 H457 0.952 . S
C456 N451 1.332 . S
C456 C452 1.382 . S
C456 H458 0.948 . S
H457 C455 0.952 . S
H458 C456 0.948 . S
H459 C448 0.952 . S
H460 C450 0.948 . S
C461 C427 1.395 . S
C461 C431 1.391 . S
C462 C424 1.389 . S
C462 C444 1.392 . S
C463 C434 1.392 . S
C463 C436 1.389 . S
C464 C439 1.395 . S
C464 C441 1.391 . S
H465 C425 0.951 . S
H466 C426 0.950 . S
H467 C432 0.949 . S
H468 C433 0.950 . S
H469 C437 0.951 . S
H470 C438 0.950 . S
H471 C442 0.949 . S
H472 C443 0.950 . S
H473 C447 0.950 . S
H474 C449 0.950 . S
H475 C452 0.950 . S
H476 C454 0.950 . S
C477 C478 1.443 . S
C477 N481 1.376 . S
C477 C515 1.389 . S
C478 C477 1.443 . S
C478 C479 1.340 . S
C478 H518 0.951 . S
C479 C478 1.340 . S
C479 C480 1.439 . S
C479 H519 0.950 . S
C480 C479 1.439 . S
C480 N481 1.374 . S
C480 C514 1.395 . S
N481 C477 1.376 . S
N481 C480 1.374 . S
N481 Co482 2.008 . S
Co482 N481 2.008 . S
Co482 N483 1.995 . S
Co482 N488 2.008 . S
Co482 N493 1.995 . S
Co482 N498 2.282 . S
Co482 N504 2.282 . S
N483 Co482 1.995 . S
N483 C484 1.376 . S
N483 C487 1.383 . S
C484 N483 1.376 . S
C484 C485 1.446 . S
C484 C514 1.391 . S
C485 C484 1.446 . S
C485 C486 1.339 . S
C485 H520 0.949 . S
C486 C485 1.339 . S
C486 C487 1.439 . S
C486 H521 0.950 . S
C487 N483 1.383 . S
C487 C486 1.439 . S
C487 C516 1.392 . S
N488 Co482 2.008 . S
N488 C489 1.376 . S
N488 C492 1.374 . S
C489 N488 1.376 . S
C489 C490 1.443 . S
C489 C516 1.389 . S
C490 C489 1.443 . S
C490 C491 1.340 . S
C490 H522 0.951 . S
C491 C490 1.340 . S
C491 C492 1.439 . S
C491 H523 0.950 . S
C492 N488 1.374 . S
C492 C491 1.439 . S
C492 C517 1.395 . S
N493 Co482 1.995 . S
N493 C494 1.376 . S
N493 C497 1.383 . S
C494 N493 1.376 . S
C494 C495 1.446 . S
C494 C517 1.391 . S
C495 C494 1.446 . S
C495 C496 1.339 . S
C495 H524 0.949 . S
C496 C495 1.339 . S
C496 C497 1.439 . S
C496 H525 0.950 . S
C497 N493 1.383 . S
C497 C496 1.439 . S
C497 C515 1.392 . S
N498 Co482 2.282 . S
N498 C501 1.332 . S
N498 C503 1.332 . S
C499 C500 1.386 . S
C499 C502 1.388 . S
C500 C499 1.386 . S
C500 C501 1.382 . S
C500 H526 0.950 . S
C501 N498 1.332 . S
C501 C500 1.382 . S
C501 H512 0.952 . S
C502 C499 1.388 . S
C502 C503 1.382 . S
C502 H527 0.950 . S
C503 N498 1.332 . S
C503 C502 1.382 . S
C503 H513 0.948 . S
N504 Co482 2.282 . S
N504 C508 1.332 . S
N504 C509 1.332 . S
C505 C506 1.388 . S
C505 C509 1.382 . S
C505 H528 0.950 . S
C506 C505 1.388 . S
C506 C507 1.386 . S
C507 C506 1.386 . S
C507 C508 1.382 . S
C507 H529 0.950 . S
C508 N504 1.332 . S
C508 C507 1.382 . S
C508 H510 0.952 . S
C509 N504 1.332 . S
C509 C505 1.382 . S
C509 H511 0.948 . S
H510 C508 0.952 . S
H511 C509 0.948 . S
H512 C501 0.952 . S
H513 C503 0.948 . S
C514 C480 1.395 . S
C514 C484 1.391 . S
C515 C477 1.389 . S
C515 C497 1.392 . S
C516 C487 1.392 . S
C516 C489 1.389 . S
C517 C492 1.395 . S
C517 C494 1.391 . S
H518 C478 0.951 . S
H519 C479 0.950 . S
H520 C485 0.949 . S
H521 C486 0.950 . S
H522 C490 0.951 . S
H523 C491 0.950 . S
H524 C495 0.949 . S
H525 C496 0.950 . S
H526 C500 0.950 . S
H527 C502 0.950 . S
H528 C505 0.950 . S
H529 C507 0.950 . S
C530 C531 1.443 . S
C530 N534 1.376 . S
C530 C568 1.389 . S
C531 C530 1.443 . S
C531 C532 1.340 . S
C531 H571 0.951 . S
C532 C531 1.340 . S
C532 C533 1.439 . S
C532 H572 0.950 . S
C533 C532 1.439 . S
C533 N534 1.374 . S
C533 C567 1.395 . S
N534 C530 1.376 . S
N534 C533 1.374 . S
N534 Co535 2.008 . S
Co535 N534 2.008 . S
Co535 N536 1.995 . S
Co535 N541 2.008 . S
Co535 N546 1.995 . S
Co535 N551 2.282 . S
Co535 N557 2.282 . S
N536 Co535 1.995 . S
N536 C537 1.376 . S
N536 C540 1.383 . S
C537 N536 1.376 . S
C537 C538 1.446 . S
C537 C567 1.391 . S
C538 C537 1.446 . S
C538 C539 1.339 . S
C538 H573 0.949 . S
C539 C538 1.339 . S
C539 C540 1.439 . S
C539 H574 0.950 . S
C540 N536 1.383 . S
C540 C539 1.439 . S
C540 C569 1.392 . S
N541 Co535 2.008 . S
N541 C542 1.376 . S
N541 C545 1.374 . S
C542 N541 1.376 . S
C542 C543 1.443 . S
C542 C569 1.389 . S
C543 C542 1.443 . S
C543 C544 1.340 . S
C543 H575 0.951 . S
C544 C543 1.340 . S
C544 C545 1.439 . S
C544 H576 0.950 . S
C545 N541 1.374 . S
C545 C544 1.439 . S
C545 C570 1.395 . S
N546 Co535 1.995 . S
N546 C547 1.376 . S
N546 C550 1.383 . S
C547 N546 1.376 . S
C547 C548 1.446 . S
C547 C570 1.391 . S
C548 C547 1.446 . S
C548 C549 1.339 . S
C548 H577 0.949 . S
C549 C548 1.339 . S
C549 C550 1.439 . S
C549 H578 0.950 . S
C550 N546 1.383 . S
C550 C549 1.439 . S
C550 C568 1.392 . S
N551 Co535 2.282 . S
N551 C554 1.332 . S
N551 C556 1.332 . S
C552 C553 1.386 . S
C552 C555 1.388 . S
C553 C552 1.386 . S
C553 C554 1.382 . S
C553 H579 0.950 . S
C554 N551 1.332 . S
C554 C553 1.382 . S
C554 H565 0.952 . S
C555 C552 1.388 . S
C555 C556 1.382 . S
C555 H580 0.950 . S
C556 N551 1.332 . S
C556 C555 1.382 . S
C556 H566 0.948 . S
N557 Co535 2.282 . S
N557 C561 1.332 . S
N557 C562 1.332 . S
C558 C559 1.388 . S
C558 C562 1.382 . S
C558 H581 0.950 . S
C559 C558 1.388 . S
C559 C560 1.386 . S
C560 C559 1.386 . S
C560 C561 1.382 . S
C560 H582 0.950 . S
C561 N557 1.332 . S
C561 C560 1.382 . S
C561 H563 0.952 . S
C562 N557 1.332 . S
C562 C558 1.382 . S
C562 H564 0.948 . S
H563 C561 0.952 . S
H564 C562 0.948 . S
H565 C554 0.952 . S
H566 C556 0.948 . S
C567 C533 1.395 . S
C567 C537 1.391 . S
C568 C530 1.389 . S
C568 C550 1.392 . S
C569 C540 1.392 . S
C569 C542 1.389 . S
C570 C545 1.395 . S
C570 C547 1.391 . S
H571 C531 0.951 . S
H572 C532 0.950 . S
H573 C538 0.949 . S
H574 C539 0.950 . S
H575 C543 0.951 . S
H576 C544 0.950 . S
H577 C548 0.949 . S
H578 C549 0.950 . S
H579 C553 0.950 . S
H580 C555 0.950 . S
H581 C558 0.950 . S
H582 C560 0.950 . S
C583 C584 1.443 . S
C583 N587 1.376 . S
C583 C621 1.389 . S
C584 C583 1.443 . S
C584 C585 1.340 . S
C584 H624 0.951 . S
C585 C584 1.340 . S
C585 C586 1.439 . S
C585 H625 0.950 . S
C586 C585 1.439 . S
C586 N587 1.374 . S
C586 C620 1.395 . S
N587 C583 1.376 . S
N587 C586 1.374 . S
N587 Co588 2.008 . S
Co588 N587 2.008 . S
Co588 N589 1.995 . S
Co588 N594 2.008 . S
Co588 N599 1.995 . S
Co588 N604 2.282 . S
Co588 N610 2.282 . S
N589 Co588 1.995 . S
N589 C590 1.376 . S
N589 C593 1.383 . S
C590 N589 1.376 . S
C590 C591 1.446 . S
C590 C620 1.391 . S
C591 C590 1.446 . S
C591 C592 1.339 . S
C591 H626 0.949 . S
C592 C591 1.339 . S
C592 C593 1.439 . S
C592 H627 0.950 . S
C593 N589 1.383 . S
C593 C592 1.439 . S
C593 C622 1.392 . S
N594 Co588 2.008 . S
N594 C595 1.376 . S
N594 C598 1.374 . S
C595 N594 1.376 . S
C595 C596 1.443 . S
C595 C622 1.389 . S
C596 C595 1.443 . S
C596 C597 1.340 . S
C596 H628 0.951 . S
C597 C596 1.340 . S
C597 C598 1.439 . S
C597 H629 0.950 . S
C598 N594 1.374 . S
C598 C597 1.439 . S
C598 C623 1.395 . S
N599 Co588 1.995 . S
N599 C600 1.376 . S
N599 C603 1.383 . S
C600 N599 1.376 . S
C600 C601 1.446 . S
C600 C623 1.391 . S
C601 C600 1.446 . S
C601 C602 1.339 . S
C601 H630 0.949 . S
C602 C601 1.339 . S
C602 C603 1.439 . S
C602 H631 0.950 . S
C603 N599 1.383 . S
C603 C602 1.439 . S
C603 C621 1.392 . S
N604 Co588 2.282 . S
N604 C607 1.332 . S
N604 C609 1.332 . S
C605 C606 1.386 . S
C605 C608 1.388 . S
C606 C605 1.386 . S
C606 C607 1.382 . S
C606 H632 0.950 . S
C607 N604 1.332 . S
C607 C606 1.382 . S
C607 H618 0.952 . S
C608 C605 1.388 . S
C608 C609 1.382 . S
C608 H633 0.950 . S
C609 N604 1.332 . S
C609 C608 1.382 . S
C609 H619 0.948 . S
N610 Co588 2.282 . S
N610 C614 1.332 . S
N610 C615 1.332 . S
C611 C612 1.388 . S
C611 C615 1.382 . S
C611 H634 0.950 . S
C612 C611 1.388 . S
C612 C613 1.386 . S
C613 C612 1.386 . S
C613 C614 1.382 . S
C613 H635 0.950 . S
C614 N610 1.332 . S
C614 C613 1.382 . S
C614 H616 0.952 . S
C615 N610 1.332 . S
C615 C611 1.382 . S
C615 H617 0.948 . S
H616 C614 0.952 . S
H617 C615 0.948 . S
H618 C607 0.952 . S
H619 C609 0.948 . S
C620 C586 1.395 . S
C620 C590 1.391 . S
C621 C583 1.389 . S
C621 C603 1.392 . S
C622 C593 1.392 . S
C622 C595 1.389 . S
C623 C598 1.395 . S
C623 C600 1.391 . S
H624 C584 0.951 . S
H625 C585 0.950 . S
H626 C591 0.949 . S
H627 C592 0.950 . S
H628 C596 0.951 . S
H629 C597 0.950 . S
H630 C601 0.949 . S
H631 C602 0.950 . S
H632 C606 0.950 . S
H633 C608 0.950 . S
H634 C611 0.950 . S
H635 C613 0.950 . S
C636 C637 1.443 . S
C636 N640 1.376 . S
C636 C674 1.389 . S
C637 C636 1.443 . S
C637 C638 1.340 . S
C637 H677 0.951 . S
C638 C637 1.340 . S
C638 C639 1.439 . S
C638 H678 0.950 . S
C639 C638 1.439 . S
C639 N640 1.374 . S
C639 C673 1.395 . S
N640 C636 1.376 . S
N640 C639 1.374 . S
N640 Co641 2.008 . S
Co641 N640 2.008 . S
Co641 N642 1.995 . S
Co641 N647 2.008 . S
Co641 N652 1.995 . S
Co641 N657 2.282 . S
Co641 N663 2.282 . S
N642 Co641 1.995 . S
N642 C643 1.376 . S
N642 C646 1.383 . S
C643 N642 1.376 . S
C643 C644 1.446 . S
C643 C673 1.391 . S
C644 C643 1.446 . S
C644 C645 1.339 . S
C644 H679 0.949 . S
C645 C644 1.339 . S
C645 C646 1.439 . S
C645 H680 0.950 . S
C646 N642 1.383 . S
C646 C645 1.439 . S
C646 C675 1.392 . S
N647 Co641 2.008 . S
N647 C648 1.376 . S
N647 C651 1.374 . S
C648 N647 1.376 . S
C648 C649 1.443 . S
C648 C675 1.389 . S
C649 C648 1.443 . S
C649 C650 1.340 . S
C649 H681 0.951 . S
C650 C649 1.340 . S
C650 C651 1.439 . S
C650 H682 0.950 . S
C651 N647 1.374 . S
C651 C650 1.439 . S
C651 C676 1.395 . S
N652 Co641 1.995 . S
N652 C653 1.376 . S
N652 C656 1.383 . S
C653 N652 1.376 . S
C653 C654 1.446 . S
C653 C676 1.391 . S
C654 C653 1.446 . S
C654 C655 1.339 . S
C654 H683 0.949 . S
C655 C654 1.339 . S
C655 C656 1.439 . S
C655 H684 0.950 . S
C656 N652 1.383 . S
C656 C655 1.439 . S
C656 C674 1.392 . S
N657 Co641 2.282 . S
N657 C660 1.332 . S
N657 C662 1.332 . S
C658 C659 1.386 . S
C658 C661 1.388 . S
C659 C658 1.386 . S
C659 C660 1.382 . S
C659 H685 0.950 . S
C660 N657 1.332 . S
C660 C659 1.382 . S
C660 H671 0.952 . S
C661 C658 1.388 . S
C661 C662 1.382 . S
C661 H686 0.950 . S
C662 N657 1.332 . S
C662 C661 1.382 . S
C662 H672 0.948 . S
N663 Co641 2.282 . S
N663 C667 1.332 . S
N663 C668 1.332 . S
C664 C665 1.388 . S
C664 C668 1.382 . S
C664 H687 0.950 . S
C665 C664 1.388 . S
C665 C666 1.386 . S
C666 C665 1.386 . S
C666 C667 1.382 . S
C666 H688 0.950 . S
C667 N663 1.332 . S
C667 C666 1.382 . S
C667 H669 0.952 . S
C668 N663 1.332 . S
C668 C664 1.382 . S
C668 H670 0.948 . S
H669 C667 0.952 . S
H670 C668 0.948 . S
H671 C660 0.952 . S
H672 C662 0.948 . S
C673 C639 1.395 . S
C673 C643 1.391 . S
C674 C636 1.389 . S
C674 C656 1.392 . S
C675 C646 1.392 . S
C675 C648 1.389 . S
C676 C651 1.395 . S
C676 C653 1.391 . S
H677 C637 0.951 . S
H678 C638 0.950 . S
H679 C644 0.949 . S
H680 C645 0.950 . S
H681 C649 0.951 . S
H682 C650 0.950 . S
H683 C654 0.949 . S
H684 C655 0.950 . S
H685 C659 0.950 . S
H686 C661 0.950 . S
H687 C664 0.950 . S
H688 C666 0.950 . S
C689 C690 1.443 . S
C689 N693 1.376 . S
C689 C727 1.389 . S
C690 C689 1.443 . S
C690 C691 1.340 . S
C690 H730 0.951 . S
C691 C690 1.340 . S
C691 C692 1.439 . S
C691 H731 0.950 . S
C692 C691 1.439 . S
C692 N693 1.374 . S
C692 C726 1.395 . S
N693 C689 1.376 . S
N693 C692 1.374 . S
N693 Co694 2.008 . S
Co694 N693 2.008 . S
Co694 N695 1.995 . S
Co694 N700 2.008 . S
Co694 N705 1.995 . S
Co694 N710 2.282 . S
Co694 N716 2.282 . S
N695 Co694 1.995 . S
N695 C696 1.376 . S
N695 C699 1.383 . S
C696 N695 1.376 . S
C696 C697 1.446 . S
C696 C726 1.391 . S
C697 C696 1.446 . S
C697 C698 1.339 . S
C697 H732 0.949 . S
C698 C697 1.339 . S
C698 C699 1.439 . S
C698 H733 0.950 . S
C699 N695 1.383 . S
C699 C698 1.439 . S
C699 C728 1.392 . S
N700 Co694 2.008 . S
N700 C701 1.376 . S
N700 C704 1.374 . S
C701 N700 1.376 . S
C701 C702 1.443 . S
C701 C728 1.389 . S
C702 C701 1.443 . S
C702 C703 1.340 . S
C702 H734 0.951 . S
C703 C702 1.340 . S
C703 C704 1.439 . S
C703 H735 0.950 . S
C704 N700 1.374 . S
C704 C703 1.439 . S
C704 C729 1.395 . S
N705 Co694 1.995 . S
N705 C706 1.376 . S
N705 C709 1.383 . S
C706 N705 1.376 . S
C706 C707 1.446 . S
C706 C729 1.391 . S
C707 C706 1.446 . S
C707 C708 1.339 . S
C707 H736 0.949 . S
C708 C707 1.339 . S
C708 C709 1.439 . S
C708 H737 0.950 . S
C709 N705 1.383 . S
C709 C708 1.439 . S
C709 C727 1.392 . S
N710 Co694 2.282 . S
N710 C713 1.332 . S
N710 C715 1.332 . S
C711 C712 1.386 . S
C711 C714 1.388 . S
C712 C711 1.386 . S
C712 C713 1.382 . S
C712 H738 0.950 . S
C713 N710 1.332 . S
C713 C712 1.382 . S
C713 H724 0.952 . S
C714 C711 1.388 . S
C714 C715 1.382 . S
C714 H739 0.950 . S
C715 N710 1.332 . S
C715 C714 1.382 . S
C715 H725 0.948 . S
N716 Co694 2.282 . S
N716 C720 1.332 . S
N716 C721 1.332 . S
C717 C718 1.388 . S
C717 C721 1.382 . S
C717 H740 0.950 . S
C718 C717 1.388 . S
C718 C719 1.386 . S
C719 C718 1.386 . S
C719 C720 1.382 . S
C719 H741 0.950 . S
C720 N716 1.332 . S
C720 C719 1.382 . S
C720 H722 0.952 . S
C721 N716 1.332 . S
C721 C717 1.382 . S
C721 H723 0.948 . S
H722 C720 0.952 . S
H723 C721 0.948 . S
H724 C713 0.952 . S
H725 C715 0.948 . S
C726 C692 1.395 . S
C726 C696 1.391 . S
C727 C689 1.389 . S
C727 C709 1.392 . S
C728 C699 1.392 . S
C728 C701 1.389 . S
C729 C704 1.395 . S
C729 C706 1.391 . S
H730 C690 0.951 . S
H731 C691 0.950 . S
H732 C697 0.949 . S
H733 C698 0.950 . S
H734 C702 0.951 . S
H735 C703 0.950 . S
H736 C707 0.949 . S
H737 C708 0.950 . S
H738 C712 0.950 . S
H739 C714 0.950 . S
H740 C717 0.950 . S
H741 C719 0.950 . S
C742 C743 1.443 . S
C742 N746 1.376 . S
C742 C780 1.389 . S
C743 C742 1.443 . S
C743 C744 1.340 . S
C743 H783 0.951 . S
C744 C743 1.340 . S
C744 C745 1.439 . S
C744 H784 0.950 . S
C745 C744 1.439 . S
C745 N746 1.374 . S
C745 C779 1.395 . S
N746 C742 1.376 . S
N746 C745 1.374 . S
N746 Co747 2.008 . S
Co747 N746 2.008 . S
Co747 N748 1.995 . S
Co747 N753 2.008 . S
Co747 N758 1.995 . S
Co747 N763 2.282 . S
Co747 N769 2.282 . S
N748 Co747 1.995 . S
N748 C749 1.376 . S
N748 C752 1.383 . S
C749 N748 1.376 . S
C749 C750 1.446 . S
C749 C779 1.391 . S
C750 C749 1.446 . S
C750 C751 1.339 . S
C750 H785 0.949 . S
C751 C750 1.339 . S
C751 C752 1.439 . S
C751 H786 0.950 . S
C752 N748 1.383 . S
C752 C751 1.439 . S
C752 C781 1.392 . S
N753 Co747 2.008 . S
N753 C754 1.376 . S
N753 C757 1.374 . S
C754 N753 1.376 . S
C754 C755 1.443 . S
C754 C781 1.389 . S
C755 C754 1.443 . S
C755 C756 1.340 . S
C755 H787 0.951 . S
C756 C755 1.340 . S
C756 C757 1.439 . S
C756 H788 0.950 . S
C757 N753 1.374 . S
C757 C756 1.439 . S
C757 C782 1.395 . S
N758 Co747 1.995 . S
N758 C759 1.376 . S
N758 C762 1.383 . S
C759 N758 1.376 . S
C759 C760 1.446 . S
C759 C782 1.391 . S
C760 C759 1.446 . S
C760 C761 1.339 . S
C760 H789 0.949 . S
C761 C760 1.339 . S
C761 C762 1.439 . S
C761 H790 0.950 . S
C762 N758 1.383 . S
C762 C761 1.439 . S
C762 C780 1.392 . S
N763 Co747 2.282 . S
N763 C766 1.332 . S
N763 C768 1.332 . S
C764 C765 1.386 . S
C764 C767 1.388 . S
C765 C764 1.386 . S
C765 C766 1.382 . S
C765 H791 0.950 . S
C766 N763 1.332 . S
C766 C765 1.382 . S
C766 H777 0.952 . S
C767 C764 1.388 . S
C767 C768 1.382 . S
C767 H792 0.950 . S
C768 N763 1.332 . S
C768 C767 1.382 . S
C768 H778 0.948 . S
N769 Co747 2.282 . S
N769 C773 1.332 . S
N769 C774 1.332 . S
C770 C771 1.388 . S
C770 C774 1.382 . S
C770 H793 0.950 . S
C771 C770 1.388 . S
C771 C772 1.386 . S
C772 C771 1.386 . S
C772 C773 1.382 . S
C772 H794 0.950 . S
C773 N769 1.332 . S
C773 C772 1.382 . S
C773 H775 0.952 . S
C774 N769 1.332 . S
C774 C770 1.382 . S
C774 H776 0.948 . S
H775 C773 0.952 . S
H776 C774 0.948 . S
H777 C766 0.952 . S
H778 C768 0.948 . S
C779 C745 1.395 . S
C779 C749 1.391 . S
C780 C742 1.389 . S
C780 C762 1.392 . S
C781 C752 1.392 . S
C781 C754 1.389 . S
C782 C757 1.395 . S
C782 C759 1.391 . S
H783 C743 0.951 . S
H784 C744 0.950 . S
H785 C750 0.949 . S
H786 C751 0.950 . S
H787 C755 0.951 . S
H788 C756 0.950 . S
H789 C760 0.949 . S
H790 C761 0.950 . S
H791 C765 0.950 . S
H792 C767 0.950 . S
H793 C770 0.950 . S
H794 C772 0.950 . S
C795 C796 1.443 . S
C795 N799 1.376 . S
C795 C833 1.389 . S
C796 C795 1.443 . S
C796 C797 1.340 . S
C796 H836 0.951 . S
C797 C796 1.340 . S
C797 C798 1.439 . S
C797 H837 0.950 . S
C798 C797 1.439 . S
C798 N799 1.374 . S
C798 C832 1.395 . S
N799 C795 1.376 . S
N799 C798 1.374 . S
N799 Co800 2.008 . S
Co800 N799 2.008 . S
Co800 N801 1.995 . S
Co800 N806 2.008 . S
Co800 N811 1.995 . S
Co800 N816 2.282 . S
Co800 N822 2.282 . S
N801 Co800 1.995 . S
N801 C802 1.376 . S
N801 C805 1.383 . S
C802 N801 1.376 . S
C802 C803 1.446 . S
C802 C832 1.391 . S
C803 C802 1.446 . S
C803 C804 1.339 . S
C803 H838 0.949 . S
C804 C803 1.339 . S
C804 C805 1.439 . S
C804 H839 0.950 . S
C805 N801 1.383 . S
C805 C804 1.439 . S
C805 C834 1.392 . S
N806 Co800 2.008 . S
N806 C807 1.376 . S
N806 C810 1.374 . S
C807 N806 1.376 . S
C807 C808 1.443 . S
C807 C834 1.389 . S
C808 C807 1.443 . S
C808 C809 1.340 . S
C808 H840 0.951 . S
C809 C808 1.340 . S
C809 C810 1.439 . S
C809 H841 0.950 . S
C810 N806 1.374 . S
C810 C809 1.439 . S
C810 C835 1.395 . S
N811 Co800 1.995 . S
N811 C812 1.376 . S
N811 C815 1.383 . S
C812 N811 1.376 . S
C812 C813 1.446 . S
C812 C835 1.391 . S
C813 C812 1.446 . S
C813 C814 1.339 . S
C813 H842 0.949 . S
C814 C813 1.339 . S
C814 C815 1.439 . S
C814 H843 0.950 . S
C815 N811 1.383 . S
C815 C814 1.439 . S
C815 C833 1.392 . S
N816 Co800 2.282 . S
N816 C819 1.332 . S
N816 C821 1.332 . S
C817 C818 1.386 . S
C817 C820 1.388 . S
C818 C817 1.386 . S
C818 C819 1.382 . S
C818 H844 0.950 . S
C819 N816 1.332 . S
C819 C818 1.382 . S
C819 H830 0.952 . S
C820 C817 1.388 . S
C820 C821 1.382 . S
C820 H845 0.950 . S
C821 N816 1.332 . S
C821 C820 1.382 . S
C821 H831 0.948 . S
N822 Co800 2.282 . S
N822 C826 1.332 . S
N822 C827 1.332 . S
C823 C824 1.388 . S
C823 C827 1.382 . S
C823 H846 0.950 . S
C824 C823 1.388 . S
C824 C825 1.386 . S
C825 C824 1.386 . S
C825 C826 1.382 . S
C825 H847 0.950 . S
C826 N822 1.332 . S
C826 C825 1.382 . S
C826 H828 0.952 . S
C827 N822 1.332 . S
C827 C823 1.382 . S
C827 H829 0.948 . S
H828 C826 0.952 . S
H829 C827 0.948 . S
H830 C819 0.952 . S
H831 C821 0.948 . S
C832 C798 1.395 . S
C832 C802 1.391 . S
C833 C795 1.389 . S
C833 C815 1.392 . S
C834 C805 1.392 . S
C834 C807 1.389 . S
C835 C810 1.395 . S
C835 C812 1.391 . S
H836 C796 0.951 . S
H837 C797 0.950 . S
H838 C803 0.949 . S
H839 C804 0.950 . S
H840 C808 0.951 . S
H841 C809 0.950 . S
H842 C813 0.949 . S
H843 C814 0.950 . S
H844 C818 0.950 . S
H845 C820 0.950 . S
H846 C823 0.950 . S
H847 C825 0.950 . S
C848 C849 1.443 . S
C848 N852 1.376 . S
C848 C886 1.389 . S
C849 C848 1.443 . S
C849 C850 1.340 . S
C849 H889 0.951 . S
C850 C849 1.340 . S
C850 C851 1.439 . S
C850 H890 0.950 . S
C851 C850 1.439 . S
C851 N852 1.374 . S
C851 C885 1.395 . S
N852 C848 1.376 . S
N852 C851 1.374 . S
N852 Co853 2.008 . S
Co853 N852 2.008 . S
Co853 N854 1.995 . S
Co853 N859 2.008 . S
Co853 N864 1.995 . S
Co853 N869 2.282 . S
Co853 N875 2.282 . S
N854 Co853 1.995 . S
N854 C855 1.376 . S
N854 C858 1.383 . S
C855 N854 1.376 . S
C855 C856 1.446 . S
C855 C885 1.391 . S
C856 C855 1.446 . S
C856 C857 1.339 . S
C856 H891 0.949 . S
C857 C856 1.339 . S
C857 C858 1.439 . S
C857 H892 0.950 . S
C858 N854 1.383 . S
C858 C857 1.439 . S
C858 C887 1.392 . S
N859 Co853 2.008 . S
N859 C860 1.376 . S
N859 C863 1.374 . S
C860 N859 1.376 . S
C860 C861 1.443 . S
C860 C887 1.389 . S
C861 C860 1.443 . S
C861 C862 1.340 . S
C861 H893 0.951 . S
C862 C861 1.340 . S
C862 C863 1.439 . S
C862 H894 0.950 . S
C863 N859 1.374 . S
C863 C862 1.439 . S
C863 C888 1.395 . S
N864 Co853 1.995 . S
N864 C865 1.376 . S
N864 C868 1.383 . S
C865 N864 1.376 . S
C865 C866 1.446 . S
C865 C888 1.391 . S
C866 C865 1.446 . S
C866 C867 1.339 . S
C866 H895 0.949 . S
C867 C866 1.339 . S
C867 C868 1.439 . S
C867 H896 0.950 . S
C868 N864 1.383 . S
C868 C867 1.439 . S
C868 C886 1.392 . S
N869 Co853 2.282 . S
N869 C872 1.332 . S
N869 C874 1.332 . S
C870 C871 1.386 . S
C870 C873 1.388 . S
C871 C870 1.386 . S
C871 C872 1.382 . S
C871 H897 0.950 . S
C872 N869 1.332 . S
C872 C871 1.382 . S
C872 H883 0.952 . S
C873 C870 1.388 . S
C873 C874 1.382 . S
C873 H898 0.950 . S
C874 N869 1.332 . S
C874 C873 1.382 . S
C874 H884 0.948 . S
N875 Co853 2.282 . S
N875 C879 1.332 . S
N875 C880 1.332 . S
C876 C877 1.388 . S
C876 C880 1.382 . S
C876 H899 0.950 . S
C877 C876 1.388 . S
C877 C878 1.386 . S
C878 C877 1.386 . S
C878 C879 1.382 . S
C878 H900 0.950 . S
C879 N875 1.332 . S
C879 C878 1.382 . S
C879 H881 0.952 . S
C880 N875 1.332 . S
C880 C876 1.382 . S
C880 H882 0.948 . S
H881 C879 0.952 . S
H882 C880 0.948 . S
H883 C872 0.952 . S
H884 C874 0.948 . S
C885 C851 1.395 . S
C885 C855 1.391 . S
C886 C848 1.389 . S
C886 C868 1.392 . S
C887 C858 1.392 . S
C887 C860 1.389 . S
C888 C863 1.395 . S
C888 C865 1.391 . S
H889 C849 0.951 . S
H890 C850 0.950 . S
H891 C856 0.949 . S
H892 C857 0.950 . S
H893 C861 0.951 . S
H894 C862 0.950 . S
H895 C866 0.949 . S
H896 C867 0.950 . S
H897 C871 0.950 . S
H898 C873 0.950 . S
H899 C876 0.950 . S
H900 C878 0.950 . S
C901 C902 1.443 . S
C901 N905 1.376 . S
C901 C939 1.389 . S
C902 C901 1.443 . S
C902 C903 1.340 . S
C902 H942 0.951 . S
C903 C902 1.340 . S
C903 C904 1.439 . S
C903 H943 0.950 . S
C904 C903 1.439 . S
C904 N905 1.374 . S
C904 C938 1.395 . S
N905 C901 1.376 . S
N905 C904 1.374 . S
N905 Co906 2.008 . S
Co906 N905 2.008 . S
Co906 N907 1.995 . S
Co906 N912 2.008 . S
Co906 N917 1.995 . S
Co906 N922 2.282 . S
Co906 N928 2.282 . S
N907 Co906 1.995 . S
N907 C908 1.376 . S
N907 C911 1.383 . S
C908 N907 1.376 . S
C908 C909 1.446 . S
C908 C938 1.391 . S
C909 C908 1.446 . S
C909 C910 1.339 . S
C909 H944 0.949 . S
C910 C909 1.339 . S
C910 C911 1.439 . S
C910 H945 0.950 . S
C911 N907 1.383 . S
C911 C910 1.439 . S
C911 C940 1.392 . S
N912 Co906 2.008 . S
N912 C913 1.376 . S
N912 C916 1.374 . S
C913 N912 1.376 . S
C913 C914 1.443 . S
C913 C940 1.389 . S
C914 C913 1.443 . S
C914 C915 1.340 . S
C914 H946 0.951 . S
C915 C914 1.340 . S
C915 C916 1.439 . S
C915 H947 0.950 . S
C916 N912 1.374 . S
C916 C915 1.439 . S
C916 C941 1.395 . S
N917 Co906 1.995 . S
N917 C918 1.376 . S
N917 C921 1.383 . S
C918 N917 1.376 . S
C918 C919 1.446 . S
C918 C941 1.391 . S
C919 C918 1.446 . S
C919 C920 1.339 . S
C919 H948 0.949 . S
C920 C919 1.339 . S
C920 C921 1.439 . S
C920 H949 0.950 . S
C921 N917 1.383 . S
C921 C920 1.439 . S
C921 C939 1.392 . S
N922 Co906 2.282 . S
N922 C925 1.332 . S
N922 C927 1.332 . S
C923 C924 1.386 . S
C923 C926 1.388 . S
C924 C923 1.386 . S
C924 C925 1.382 . S
C924 H950 0.950 . S
C925 N922 1.332 . S
C925 C924 1.382 . S
C925 H936 0.952 . S
C926 C923 1.388 . S
C926 C927 1.382 . S
C926 H951 0.950 . S
C927 N922 1.332 . S
C927 C926 1.382 . S
C927 H937 0.948 . S
N928 Co906 2.282 . S
N928 C932 1.332 . S
N928 C933 1.332 . S
C929 C930 1.388 . S
C929 C933 1.382 . S
C929 H952 0.950 . S
C930 C929 1.388 . S
C930 C931 1.386 . S
C931 C930 1.386 . S
C931 C932 1.382 . S
C931 H953 0.950 . S
C932 N928 1.332 . S
C932 C931 1.382 . S
C932 H934 0.952 . S
C933 N928 1.332 . S
C933 C929 1.382 . S
C933 H935 0.948 . S
H934 C932 0.952 . S
H935 C933 0.948 . S
H936 C925 0.952 . S
H937 C927 0.948 . S
C938 C904 1.395 . S
C938 C908 1.391 . S
C939 C901 1.389 . S
C939 C921 1.392 . S
C940 C911 1.392 . S
C940 C913 1.389 . S
C941 C916 1.395 . S
C941 C918 1.391 . S
H942 C902 0.951 . S
H943 C903 0.950 . S
H944 C909 0.949 . S
H945 C910 0.950 . S
H946 C914 0.951 . S
H947 C915 0.950 . S
H948 C919 0.949 . S
H949 C920 0.950 . S
H950 C924 0.950 . S
H951 C926 0.950 . S
H952 C929 0.950 . S
H953 C931 0.950 . S
C954 C955 1.443 . S
C954 N958 1.376 . S
C954 C992 1.389 . S
C955 C954 1.443 . S
C955 C956 1.340 . S
C955 H995 0.951 . S
C956 C955 1.340 . S
C956 C957 1.439 . S
C956 H996 0.950 . S
C957 C956 1.439 . S
C957 N958 1.374 . S
C957 C991 1.395 . S
N958 C954 1.376 . S
N958 C957 1.374 . S
N958 Co959 2.008 . S
Co959 N958 2.008 . S
Co959 N960 1.995 . S
Co959 N965 2.008 . S
Co959 N970 1.995 . S
Co959 N975 2.282 . S
Co959 N981 2.282 . S
N960 Co959 1.995 . S
N960 C961 1.376 . S
N960 C964 1.383 . S
C961 N960 1.376 . S
C961 C962 1.446 . S
C961 C991 1.391 . S
C962 C961 1.446 . S
C962 C963 1.339 . S
C962 H997 0.949 . S
C963 C962 1.339 . S
C963 C964 1.439 . S
C963 H998 0.950 . S
C964 N960 1.383 . S
C964 C963 1.439 . S
C964 C993 1.392 . S
N965 Co959 2.008 . S
N965 C966 1.376 . S
N965 C969 1.374 . S
C966 N965 1.376 . S
C966 C967 1.443 . S
C966 C993 1.389 . S
C967 C966 1.443 . S
C967 C968 1.340 . S
C967 H999 0.951 . S
C968 C967 1.340 . S
C968 C969 1.439 . S
C968 H1000 0.950 . S
C969 N965 1.374 . S
C969 C968 1.439 . S
C969 C994 1.395 . S
N970 Co959 1.995 . S
N970 C971 1.376 . S
N970 C974 1.383 . S
C971 N970 1.376 . S
C971 C972 1.446 . S
C971 C994 1.391 . S
C972 C971 1.446 . S
C972 C973 1.339 . S
C972 H1001 0.949 . S
C973 C972 1.339 . S
C973 C974 1.439 . S
C973 H1002 0.950 . S
C974 N970 1.383 . S
C974 C973 1.439 . S
C974 C992 1.392 . S
N975 Co959 2.282 . S
N975 C978 1.332 . S
N975 C980 1.332 . S
C976 C977 1.386 . S
C976 C979 1.388 . S
C977 C976 1.386 . S
C977 C978 1.382 . S
C977 H1003 0.950 . S
C978 N975 1.332 . S
C978 C977 1.382 . S
C978 H989 0.952 . S
C979 C976 1.388 . S
C979 C980 1.382 . S
C979 H1004 0.950 1_556 S
C980 N975 1.332 . S
C980 C979 1.382 . S
C980 H990 0.948 . S
N981 Co959 2.282 . S
N981 C985 1.332 . S
N981 C986 1.332 . S
C982 C983 1.388 . S
C982 C986 1.382 . S
C982 H1005 0.950 . S
C983 C982 1.388 . S
C983 C984 1.386 . S
C984 C983 1.386 . S
C984 C985 1.382 . S
C984 H1006 0.950 . S
C985 N981 1.332 . S
C985 C984 1.382 . S
C985 H987 0.952 . S
C986 N981 1.332 . S
C986 C982 1.382 . S
C986 H988 0.948 . S
H987 C985 0.952 . S
H988 C986 0.948 . S
H989 C978 0.952 . S
H990 C980 0.948 . S
C991 C957 1.395 . S
C991 C961 1.391 . S
C992 C954 1.389 . S
C992 C974 1.392 . S
C993 C964 1.392 . S
C993 C966 1.389 . S
C994 C969 1.395 . S
C994 C971 1.391 . S
H995 C955 0.951 . S
H996 C956 0.950 . S
H997 C962 0.949 . S
H998 C963 0.950 . S
H999 C967 0.951 . S
H1000 C968 0.950 . S
H1001 C972 0.949 . S
H1002 C973 0.950 . S
H1003 C977 0.950 . S
H1004 C979 0.950 1_554 S
H1005 C982 0.950 . S
H1006 C984 0.950 . S
C1007 C1008 1.443 . S
C1007 N1011 1.376 . S
C1007 C1045 1.389 . S
C1008 C1007 1.443 . S
C1008 C1009 1.340 . S
C1008 H1048 0.951 . S
C1009 C1008 1.340 . S
C1009 C1010 1.439 . S
C1009 H1049 0.950 . S
C1010 C1009 1.439 . S
C1010 N1011 1.374 . S
C1010 C1044 1.395 . S
N1011 C1007 1.376 . S
N1011 C1010 1.374 . S
N1011 Co1012 2.008 . S
Co1012 N1011 2.008 . S
Co1012 N1013 1.995 . S
Co1012 N1018 2.008 . S
Co1012 N1023 1.995 . S
Co1012 N1028 2.282 . S
Co1012 N1034 2.282 . S
N1013 Co1012 1.995 . S
N1013 C1014 1.376 . S
N1013 C1017 1.383 . S
C1014 N1013 1.376 . S
C1014 C1015 1.446 . S
C1014 C1044 1.391 . S
C1015 C1014 1.446 . S
C1015 C1016 1.339 . S
C1015 H1050 0.949 . S
C1016 C1015 1.339 . S
C1016 C1017 1.439 . S
C1016 H1051 0.950 . S
C1017 N1013 1.383 . S
C1017 C1016 1.439 . S
C1017 C1046 1.392 . S
N1018 Co1012 2.008 . S
N1018 C1019 1.376 . S
N1018 C1022 1.374 . S
C1019 N1018 1.376 . S
C1019 C1020 1.443 . S
C1019 C1046 1.389 . S
C1020 C1019 1.443 . S
C1020 C1021 1.340 . S
C1020 H1052 0.951 . S
C1021 C1020 1.340 . S
C1021 C1022 1.439 . S
C1021 H1053 0.950 . S
C1022 N1018 1.374 . S
C1022 C1021 1.439 . S
C1022 C1047 1.395 . S
N1023 Co1012 1.995 . S
N1023 C1024 1.376 . S
N1023 C1027 1.383 . S
C1024 N1023 1.376 . S
C1024 C1025 1.446 . S
C1024 C1047 1.391 . S
C1025 C1024 1.446 . S
C1025 C1026 1.339 . S
C1025 H1054 0.949 . S
C1026 C1025 1.339 . S
C1026 C1027 1.439 . S
C1026 H1055 0.950 . S
C1027 N1023 1.383 . S
C1027 C1026 1.439 . S
C1027 C1045 1.392 . S
N1028 Co1012 2.282 . S
N1028 C1031 1.332 . S
N1028 C1033 1.332 . S
C1029 C1030 1.386 . S
C1029 C1032 1.388 . S
C1030 C1029 1.386 . S
C1030 C1031 1.382 . S
C1030 H1056 0.950 . S
C1031 N1028 1.332 . S
C1031 C1030 1.382 . S
C1031 H1042 0.952 . S
C1032 C1029 1.388 . S
C1032 C1033 1.382 . S
C1032 H1057 0.950 . S
C1033 N1028 1.332 . S
C1033 C1032 1.382 . S
C1033 H1043 0.948 . S
N1034 Co1012 2.282 . S
N1034 C1038 1.332 . S
N1034 C1039 1.332 . S
C1035 C1036 1.388 . S
C1035 C1039 1.382 . S
C1035 H1058 0.950 . S
C1036 C1035 1.388 . S
C1036 C1037 1.386 . S
C1037 C1036 1.386 . S
C1037 C1038 1.382 . S
C1037 H1059 0.950 . S
C1038 N1034 1.332 . S
C1038 C1037 1.382 . S
C1038 H1040 0.952 . S
C1039 N1034 1.332 . S
C1039 C1035 1.382 . S
C1039 H1041 0.948 . S
H1040 C1038 0.952 . S
H1041 C1039 0.948 . S
H1042 C1031 0.952 . S
H1043 C1033 0.948 . S
C1044 C1010 1.395 . S
C1044 C1014 1.391 . S
C1045 C1007 1.389 . S
C1045 C1027 1.392 . S
C1046 C1017 1.392 . S
C1046 C1019 1.389 . S
C1047 C1022 1.395 . S
C1047 C1024 1.391 . S
H1048 C1008 0.951 . S
H1049 C1009 0.950 . S
H1050 C1015 0.949 . S
H1051 C1016 0.950 . S
H1052 C1020 0.951 . S
H1053 C1021 0.950 . S
H1054 C1025 0.949 . S
H1055 C1026 0.950 . S
H1056 C1030 0.950 . S
H1057 C1032 0.950 . S
H1058 C1035 0.950 . S
H1059 C1037 0.950 . S
C1060 C1061 1.443 . S
C1060 N1064 1.376 . S
C1060 C1098 1.389 . S
C1061 C1060 1.443 . S
C1061 C1062 1.340 . S
C1061 H1101 0.951 . S
C1062 C1061 1.340 . S
C1062 C1063 1.439 . S
C1062 H1102 0.950 . S
C1063 C1062 1.439 . S
C1063 N1064 1.374 . S
C1063 C1097 1.395 . S
N1064 C1060 1.376 . S
N1064 C1063 1.374 . S
N1064 Co1065 2.008 . S
Co1065 N1064 2.008 . S
Co1065 N1066 1.995 . S
Co1065 N1071 2.008 . S
Co1065 N1076 1.995 . S
Co1065 N1081 2.282 . S
Co1065 N1087 2.282 . S
N1066 Co1065 1.995 . S
N1066 C1067 1.376 . S
N1066 C1070 1.383 . S
C1067 N1066 1.376 . S
C1067 C1068 1.446 . S
C1067 C1097 1.391 . S
C1068 C1067 1.446 . S
C1068 C1069 1.339 . S
C1068 H1103 0.949 . S
C1069 C1068 1.339 . S
C1069 C1070 1.439 . S
C1069 H1104 0.950 . S
C1070 N1066 1.383 . S
C1070 C1069 1.439 . S
C1070 C1099 1.392 . S
N1071 Co1065 2.008 . S
N1071 C1072 1.376 . S
N1071 C1075 1.374 . S
C1072 N1071 1.376 . S
C1072 C1073 1.443 . S
C1072 C1099 1.389 . S
C1073 C1072 1.443 . S
C1073 C1074 1.340 . S
C1073 H1105 0.951 . S
C1074 C1073 1.340 . S
C1074 C1075 1.439 . S
C1074 H1106 0.950 . S
C1075 N1071 1.374 . S
C1075 C1074 1.439 . S
C1075 C1100 1.395 . S
N1076 Co1065 1.995 . S
N1076 C1077 1.376 . S
N1076 C1080 1.383 . S
C1077 N1076 1.376 . S
C1077 C1078 1.446 . S
C1077 C1100 1.391 . S
C1078 C1077 1.446 . S
C1078 C1079 1.339 . S
C1078 H1107 0.949 . S
C1079 C1078 1.339 . S
C1079 C1080 1.439 . S
C1079 H1108 0.950 . S
C1080 N1076 1.383 . S
C1080 C1079 1.439 . S
C1080 C1098 1.392 . S
N1081 Co1065 2.282 . S
N1081 C1084 1.332 . S
N1081 C1086 1.332 . S
C1082 C1083 1.386 . S
C1082 C1085 1.388 . S
C1083 C1082 1.386 . S
C1083 C1084 1.382 . S
C1083 H1109 0.950 . S
C1084 N1081 1.332 . S
C1084 C1083 1.382 . S
C1084 H1095 0.952 . S
C1085 C1082 1.388 . S
C1085 C1086 1.382 . S
C1085 H1110 0.950 . S
C1086 N1081 1.332 . S
C1086 C1085 1.382 . S
C1086 H1096 0.948 . S
N1087 Co1065 2.282 . S
N1087 C1091 1.332 . S
N1087 C1092 1.332 . S
C1088 C1089 1.388 . S
C1088 C1092 1.382 . S
C1088 H1111 0.950 . S
C1089 C1088 1.388 . S
C1089 C1090 1.386 . S
C1090 C1089 1.386 . S
C1090 C1091 1.382 . S
C1090 H1112 0.950 . S
C1091 N1087 1.332 . S
C1091 C1090 1.382 . S
C1091 H1093 0.952 . S
C1092 N1087 1.332 . S
C1092 C1088 1.382 . S
C1092 H1094 0.948 . S
H1093 C1091 0.952 . S
H1094 C1092 0.948 . S
H1095 C1084 0.952 . S
H1096 C1086 0.948 . S
C1097 C1063 1.395 . S
C1097 C1067 1.391 . S
C1098 C1060 1.389 . S
C1098 C1080 1.392 . S
C1099 C1070 1.392 . S
C1099 C1072 1.389 . S
C1100 C1075 1.395 . S
C1100 C1077 1.391 . S
H1101 C1061 0.951 . S
H1102 C1062 0.950 . S
H1103 C1068 0.949 . S
H1104 C1069 0.950 . S
H1105 C1073 0.951 . S
H1106 C1074 0.950 . S
H1107 C1078 0.949 . S
H1108 C1079 0.950 . S
H1109 C1083 0.950 . S
H1110 C1085 0.950 . S
H1111 C1088 0.950 . S
H1112 C1090 0.950 . S
C1113 C1114 1.443 . S
C1113 N1117 1.376 . S
C1113 C1151 1.389 . S
C1114 C1113 1.443 . S
C1114 C1115 1.340 . S
C1114 H1154 0.951 . S
C1115 C1114 1.340 . S
C1115 C1116 1.439 . S
C1115 H1155 0.950 . S
C1116 C1115 1.439 . S
C1116 N1117 1.374 . S
C1116 C1150 1.395 . S
N1117 C1113 1.376 . S
N1117 C1116 1.374 . S
N1117 Co1118 2.008 . S
Co1118 N1117 2.008 . S
Co1118 N1119 1.995 . S
Co1118 N1124 2.008 . S
Co1118 N1129 1.995 . S
Co1118 N1134 2.282 . S
Co1118 N1140 2.282 . S
N1119 Co1118 1.995 . S
N1119 C1120 1.376 . S
N1119 C1123 1.383 . S
C1120 N1119 1.376 . S
C1120 C1121 1.446 . S
C1120 C1150 1.391 . S
C1121 C1120 1.446 . S
C1121 C1122 1.339 . S
C1121 H1156 0.949 . S
C1122 C1121 1.339 . S
C1122 C1123 1.439 . S
C1122 H1157 0.950 . S
C1123 N1119 1.383 . S
C1123 C1122 1.439 . S
C1123 C1152 1.392 . S
N1124 Co1118 2.008 . S
N1124 C1125 1.376 . S
N1124 C1128 1.374 . S
C1125 N1124 1.376 . S
C1125 C1126 1.443 . S
C1125 C1152 1.389 . S
C1126 C1125 1.443 . S
C1126 C1127 1.340 . S
C1126 H1158 0.951 . S
C1127 C1126 1.340 . S
C1127 C1128 1.439 . S
C1127 H1159 0.950 . S
C1128 N1124 1.374 . S
C1128 C1127 1.439 . S
C1128 C1153 1.395 . S
N1129 Co1118 1.995 . S
N1129 C1130 1.376 . S
N1129 C1133 1.383 . S
C1130 N1129 1.376 . S
C1130 C1131 1.446 . S
C1130 C1153 1.391 . S
C1131 C1130 1.446 . S
C1131 C1132 1.339 . S
C1131 H1160 0.949 . S
C1132 C1131 1.339 . S
C1132 C1133 1.439 . S
C1132 H1161 0.950 . S
C1133 N1129 1.383 . S
C1133 C1132 1.439 . S
C1133 C1151 1.392 . S
N1134 Co1118 2.282 . S
N1134 C1137 1.332 . S
N1134 C1139 1.332 . S
C1135 C1136 1.386 . S
C1135 C1138 1.388 . S
C1136 C1135 1.386 . S
C1136 C1137 1.382 . S
C1136 H1162 0.950 . S
C1137 N1134 1.332 . S
C1137 C1136 1.382 . S
C1137 H1148 0.952 . S
C1138 C1135 1.388 . S
C1138 C1139 1.382 . S
C1138 H1163 0.950 . S
C1139 N1134 1.332 . S
C1139 C1138 1.382 . S
C1139 H1149 0.948 . S
N1140 Co1118 2.282 . S
N1140 C1144 1.332 . S
N1140 C1145 1.332 . S
C1141 C1142 1.388 . S
C1141 C1145 1.382 . S
C1141 H1164 0.950 . S
C1142 C1141 1.388 . S
C1142 C1143 1.386 . S
C1143 C1142 1.386 . S
C1143 C1144 1.382 . S
C1143 H1165 0.950 . S
C1144 N1140 1.332 . S
C1144 C1143 1.382 . S
C1144 H1146 0.952 . S
C1145 N1140 1.332 . S
C1145 C1141 1.382 . S
C1145 H1147 0.948 . S
H1146 C1144 0.952 . S
H1147 C1145 0.948 . S
H1148 C1137 0.952 . S
H1149 C1139 0.948 . S
C1150 C1116 1.395 . S
C1150 C1120 1.391 . S
C1151 C1113 1.389 . S
C1151 C1133 1.392 . S
C1152 C1123 1.392 . S
C1152 C1125 1.389 . S
C1153 C1128 1.395 . S
C1153 C1130 1.391 . S
H1154 C1114 0.951 . S
H1155 C1115 0.950 . S
H1156 C1121 0.949 . S
H1157 C1122 0.950 . S
H1158 C1126 0.951 . S
H1159 C1127 0.950 . S
H1160 C1131 0.949 . S
H1161 C1132 0.950 . S
H1162 C1136 0.950 . S
H1163 C1138 0.950 . S
H1164 C1141 0.950 . S
H1165 C1143 0.950 . S
C1166 C1167 1.443 . S
C1166 N1170 1.376 . S
C1166 C1204 1.389 . S
C1167 C1166 1.443 . S
C1167 C1168 1.340 . S
C1167 H1207 0.951 . S
C1168 C1167 1.340 . S
C1168 C1169 1.439 . S
C1168 H1208 0.950 . S
C1169 C1168 1.439 . S
C1169 N1170 1.374 . S
C1169 C1203 1.395 . S
N1170 C1166 1.376 . S
N1170 C1169 1.374 . S
N1170 Co1171 2.008 . S
Co1171 N1170 2.008 . S
Co1171 N1172 1.995 . S
Co1171 N1177 2.008 . S
Co1171 N1182 1.995 . S
Co1171 N1187 2.282 . S
Co1171 N1193 2.282 . S
N1172 Co1171 1.995 . S
N1172 C1173 1.376 . S
N1172 C1176 1.383 . S
C1173 N1172 1.376 . S
C1173 C1174 1.446 . S
C1173 C1203 1.391 . S
C1174 C1173 1.446 . S
C1174 C1175 1.339 . S
C1174 H1209 0.949 . S
C1175 C1174 1.339 . S
C1175 C1176 1.439 . S
C1175 H1210 0.950 . S
C1176 N1172 1.383 . S
C1176 C1175 1.439 . S
C1176 C1205 1.392 . S
N1177 Co1171 2.008 . S
N1177 C1178 1.376 . S
N1177 C1181 1.374 . S
C1178 N1177 1.376 . S
C1178 C1179 1.443 . S
C1178 C1205 1.389 . S
C1179 C1178 1.443 . S
C1179 C1180 1.340 . S
C1179 H1211 0.951 . S
C1180 C1179 1.340 . S
C1180 C1181 1.439 . S
C1180 H1212 0.950 . S
C1181 N1177 1.374 . S
C1181 C1180 1.439 . S
C1181 C1206 1.395 . S
N1182 Co1171 1.995 . S
N1182 C1183 1.376 . S
N1182 C1186 1.383 . S
C1183 N1182 1.376 . S
C1183 C1184 1.446 . S
C1183 C1206 1.391 . S
C1184 C1183 1.446 . S
C1184 C1185 1.339 . S
C1184 H1213 0.949 . S
C1185 C1184 1.339 . S
C1185 C1186 1.439 . S
C1185 H1214 0.950 . S
C1186 N1182 1.383 . S
C1186 C1185 1.439 . S
C1186 C1204 1.392 . S
N1187 Co1171 2.282 . S
N1187 C1190 1.332 . S
N1187 C1192 1.332 . S
C1188 C1189 1.386 . S
C1188 C1191 1.388 . S
C1189 C1188 1.386 . S
C1189 C1190 1.382 . S
C1189 H1215 0.950 . S
C1190 N1187 1.332 . S
C1190 C1189 1.382 . S
C1190 H1201 0.952 . S
C1191 C1188 1.388 . S
C1191 C1192 1.382 . S
C1191 H1216 0.950 . S
C1192 N1187 1.332 . S
C1192 C1191 1.382 . S
C1192 H1202 0.948 . S
N1193 Co1171 2.282 . S
N1193 C1197 1.332 . S
N1193 C1198 1.332 . S
C1194 C1195 1.388 . S
C1194 C1198 1.382 . S
C1194 H1217 0.950 . S
C1195 C1194 1.388 . S
C1195 C1196 1.386 . S
C1196 C1195 1.386 . S
C1196 C1197 1.382 . S
C1196 H1218 0.950 . S
C1197 N1193 1.332 . S
C1197 C1196 1.382 . S
C1197 H1199 0.952 . S
C1198 N1193 1.332 . S
C1198 C1194 1.382 . S
C1198 H1200 0.948 . S
H1199 C1197 0.952 . S
H1200 C1198 0.948 . S
H1201 C1190 0.952 . S
H1202 C1192 0.948 . S
C1203 C1169 1.395 . S
C1203 C1173 1.391 . S
C1204 C1166 1.389 . S
C1204 C1186 1.392 . S
C1205 C1176 1.392 . S
C1205 C1178 1.389 . S
C1206 C1181 1.395 . S
C1206 C1183 1.391 . S
H1207 C1167 0.951 . S
H1208 C1168 0.950 . S
H1209 C1174 0.949 . S
H1210 C1175 0.950 . S
H1211 C1179 0.951 . S
H1212 C1180 0.950 . S
H1213 C1184 0.949 . S
H1214 C1185 0.950 . S
H1215 C1189 0.950 . S
H1216 C1191 0.950 . S
H1217 C1194 0.950 . S
H1218 C1196 0.950 . S
C1219 C1220 1.443 . S
C1219 N1223 1.376 . S
C1219 C1257 1.389 . S
C1220 C1219 1.443 . S
C1220 C1221 1.340 . S
C1220 H1260 0.951 . S
C1221 C1220 1.340 . S
C1221 C1222 1.439 . S
C1221 H1261 0.950 . S
C1222 C1221 1.439 . S
C1222 N1223 1.374 . S
C1222 C1256 1.395 . S
N1223 C1219 1.376 . S
N1223 C1222 1.374 . S
N1223 Co1224 2.008 . S
Co1224 N1223 2.008 . S
Co1224 N1225 1.995 . S
Co1224 N1230 2.008 . S
Co1224 N1235 1.995 . S
Co1224 N1240 2.282 . S
Co1224 N1246 2.282 . S
N1225 Co1224 1.995 . S
N1225 C1226 1.376 . S
N1225 C1229 1.383 . S
C1226 N1225 1.376 . S
C1226 C1227 1.446 . S
C1226 C1256 1.391 . S
C1227 C1226 1.446 . S
C1227 C1228 1.339 . S
C1227 H1262 0.949 . S
C1228 C1227 1.339 . S
C1228 C1229 1.439 . S
C1228 H1263 0.950 . S
C1229 N1225 1.383 . S
C1229 C1228 1.439 . S
C1229 C1258 1.392 . S
N1230 Co1224 2.008 . S
N1230 C1231 1.376 . S
N1230 C1234 1.374 . S
C1231 N1230 1.376 . S
C1231 C1232 1.443 . S
C1231 C1258 1.389 . S
C1232 C1231 1.443 . S
C1232 C1233 1.340 . S
C1232 H1264 0.951 . S
C1233 C1232 1.340 . S
C1233 C1234 1.439 . S
C1233 H1265 0.950 . S
C1234 N1230 1.374 . S
C1234 C1233 1.439 . S
C1234 C1259 1.395 . S
N1235 Co1224 1.995 . S
N1235 C1236 1.376 . S
N1235 C1239 1.383 . S
C1236 N1235 1.376 . S
C1236 C1237 1.446 . S
C1236 C1259 1.391 . S
C1237 C1236 1.446 . S
C1237 C1238 1.339 . S
C1237 H1266 0.949 . S
C1238 C1237 1.339 . S
C1238 C1239 1.439 . S
C1238 H1267 0.950 . S
C1239 N1235 1.383 . S
C1239 C1238 1.439 . S
C1239 C1257 1.392 . S
N1240 Co1224 2.282 . S
N1240 C1243 1.332 . S
N1240 C1245 1.332 . S
C1241 C1242 1.386 . S
C1241 C1244 1.388 . S
C1242 C1241 1.386 . S
C1242 C1243 1.382 . S
C1242 H1268 0.950 . S
C1243 N1240 1.332 . S
C1243 C1242 1.382 . S
C1243 H1254 0.952 . S
C1244 C1241 1.388 . S
C1244 C1245 1.382 . S
C1244 H1269 0.950 1_554 S
C1245 N1240 1.332 . S
C1245 C1244 1.382 . S
C1245 H1255 0.948 . S
N1246 Co1224 2.282 . S
N1246 C1250 1.332 . S
N1246 C1251 1.332 . S
C1247 C1248 1.388 . S
C1247 C1251 1.382 . S
C1247 H1270 0.950 . S
C1248 C1247 1.388 . S
C1248 C1249 1.386 . S
C1249 C1248 1.386 . S
C1249 C1250 1.382 . S
C1249 H1271 0.950 . S
C1250 N1246 1.332 . S
C1250 C1249 1.382 . S
C1250 H1252 0.952 . S
C1251 N1246 1.332 . S
C1251 C1247 1.382 . S
C1251 H1253 0.948 . S
H1252 C1250 0.952 . S
H1253 C1251 0.948 . S
H1254 C1243 0.952 . S
H1255 C1245 0.948 . S
C1256 C1222 1.395 . S
C1256 C1226 1.391 . S
C1257 C1219 1.389 . S
C1257 C1239 1.392 . S
C1258 C1229 1.392 . S
C1258 C1231 1.389 . S
C1259 C1234 1.395 . S
C1259 C1236 1.391 . S
H1260 C1220 0.951 . S
H1261 C1221 0.950 . S
H1262 C1227 0.949 . S
H1263 C1228 0.950 . S
H1264 C1232 0.951 . S
H1265 C1233 0.950 . S
H1266 C1237 0.949 . S
H1267 C1238 0.950 . S
H1268 C1242 0.950 . S
H1269 C1244 0.950 1_556 S
H1270 C1247 0.950 . S
H1271 C1249 0.950 . S
C1272 C1273 1.369 . S
C1272 C1274 1.419 . S
C1272 H1276 0.930 . S
C1273 C1272 1.369 . S
C1273 C1282 1.429 . S
C1274 C1272 1.419 . S
C1274 C1275 1.363 . S
C1274 H1277 0.929 . S
C1275 C1274 1.363 . S
C1275 C1281 1.428 . S
H1276 C1272 0.930 . S
H1277 C1274 0.929 . S
S1278 N1279 1.613 . S
S1278 N1280 1.610 . S
N1279 S1278 1.613 . S
N1279 C1282 1.350 . S
N1280 S1278 1.610 . S
N1280 C1281 1.351 . S
C1281 C1275 1.428 . S
C1281 N1280 1.351 . S
C1281 C1282 1.434 . S
C1282 C1273 1.429 . S
C1282 N1279 1.350 . S
C1282 C1281 1.434 . S
C1283 C1284 1.369 . S
C1283 C1285 1.419 . S
C1283 H1287 0.930 . S
C1284 C1283 1.369 . S
C1284 C1293 1.429 . S
C1285 C1283 1.419 . S
C1285 C1286 1.363 . S
C1285 H1288 0.929 . S
C1286 C1285 1.363 . S
C1286 C1292 1.428 . S
H1287 C1283 0.930 . S
H1288 C1285 0.929 . S
S1289 N1290 1.613 . S
S1289 N1291 1.610 . S
N1290 S1289 1.613 . S
N1290 C1293 1.350 . S
N1291 S1289 1.610 . S
N1291 C1292 1.351 . S
C1292 C1286 1.428 . S
C1292 N1291 1.351 . S
C1292 C1293 1.434 . S
C1293 C1284 1.429 . S
C1293 N1290 1.350 . S
C1293 C1292 1.434 . S
C1294 C1295 1.369 . S
C1294 C1296 1.419 . S
C1294 H1298 0.930 . S
C1295 C1294 1.369 . S
C1295 C1304 1.429 . S
C1296 C1294 1.419 . S
C1296 C1297 1.363 . S
C1296 H1299 0.929 . S
C1297 C1296 1.363 . S
C1297 C1303 1.428 . S
H1298 C1294 0.930 . S
H1299 C1296 0.929 . S
S1300 N1301 1.613 . S
S1300 N1302 1.610 . S
N1301 S1300 1.613 . S
N1301 C1304 1.350 . S
N1302 S1300 1.610 . S
N1302 C1303 1.351 . S
C1303 C1297 1.428 . S
C1303 N1302 1.351 . S
C1303 C1304 1.434 . S
C1304 C1295 1.429 . S
C1304 N1301 1.350 . S
C1304 C1303 1.434 . S
C1305 C1306 1.369 . S
C1305 C1307 1.419 . S
C1305 H1309 0.930 . S
C1306 C1305 1.369 . S
C1306 C1315 1.429 . S
C1307 C1305 1.419 . S
C1307 C1308 1.363 . S
C1307 H1310 0.929 . S
C1308 C1307 1.363 . S
C1308 C1314 1.428 . S
H1309 C1305 0.930 . S
H1310 C1307 0.929 . S
S1311 N1312 1.613 . S
S1311 N1313 1.610 . S
N1312 S1311 1.613 . S
N1312 C1315 1.350 . S
N1313 S1311 1.610 . S
N1313 C1314 1.351 . S
C1314 C1308 1.428 . S
C1314 N1313 1.351 . S
C1314 C1315 1.434 . S
C1315 C1306 1.429 . S
C1315 N1312 1.350 . S
C1315 C1314 1.434 . S
C1316 C1317 1.369 . S
C1316 C1318 1.419 . S
C1316 H1320 0.930 . S
C1317 C1316 1.369 . S
C1317 C1326 1.429 . S
C1318 C1316 1.419 . S
C1318 C1319 1.363 . S
C1318 H1321 0.929 . S
C1319 C1318 1.363 . S
C1319 C1325 1.428 . S
H1320 C1316 0.930 . S
H1321 C1318 0.929 . S
S1322 N1323 1.613 . S
S1322 N1324 1.610 . S
N1323 S1322 1.613 . S
N1323 C1326 1.350 . S
N1324 S1322 1.610 . S
N1324 C1325 1.351 . S
C1325 C1319 1.428 . S
C1325 N1324 1.351 . S
C1325 C1326 1.434 . S
C1326 C1317 1.429 . S
C1326 N1323 1.350 . S
C1326 C1325 1.434 . S
C1327 C1328 1.369 . S
C1327 C1329 1.419 . S
C1327 H1331 0.930 . S
C1328 C1327 1.369 . S
C1328 C1337 1.429 . S
C1329 C1327 1.419 . S
C1329 C1330 1.363 . S
C1329 H1332 0.929 . S
C1330 C1329 1.363 . S
C1330 C1336 1.428 . S
H1331 C1327 0.930 . S
H1332 C1329 0.929 . S
S1333 N1334 1.613 . S
S1333 N1335 1.610 . S
N1334 S1333 1.613 . S
N1334 C1337 1.350 . S
N1335 S1333 1.610 . S
N1335 C1336 1.351 . S
C1336 C1330 1.428 . S
C1336 N1335 1.351 . S
C1336 C1337 1.434 . S
C1337 C1328 1.429 . S
C1337 N1334 1.350 . S
C1337 C1336 1.434 . S
C1338 C1339 1.369 . S
C1338 C1340 1.419 . S
C1338 H1342 0.930 . S
C1339 C1338 1.369 . S
C1339 C1348 1.429 . S
C1340 C1338 1.419 . S
C1340 C1341 1.363 . S
C1340 H1343 0.929 . S
C1341 C1340 1.363 . S
C1341 C1347 1.428 . S
H1342 C1338 0.930 . S
H1343 C1340 0.929 . S
S1344 N1345 1.613 . S
S1344 N1346 1.610 . S
N1345 S1344 1.613 . S
N1345 C1348 1.350 . S
N1346 S1344 1.610 . S
N1346 C1347 1.351 . S
C1347 C1341 1.428 . S
C1347 N1346 1.351 . S
C1347 C1348 1.434 . S
C1348 C1339 1.429 . S
C1348 N1345 1.350 . S
C1348 C1347 1.434 . S
C1349 C1350 1.369 . S
C1349 C1351 1.419 . S
C1349 H1353 0.930 . S
C1350 C1349 1.369 . S
C1350 C1359 1.429 . S
C1351 C1349 1.419 . S
C1351 C1352 1.363 . S
C1351 H1354 0.929 . S
C1352 C1351 1.363 . S
C1352 C1358 1.428 . S
H1353 C1349 0.930 . S
H1354 C1351 0.929 . S
S1355 N1356 1.613 . S
S1355 N1357 1.610 . S
N1356 S1355 1.613 . S
N1356 C1359 1.350 . S
N1357 S1355 1.610 . S
N1357 C1358 1.351 . S
C1358 C1352 1.428 . S
C1358 N1357 1.351 . S
C1358 C1359 1.434 . S
C1359 C1350 1.429 . S
C1359 N1356 1.350 . S
C1359 C1358 1.434 . S
C1360 C1361 1.369 . S
C1360 C1362 1.419 . S
C1360 H1364 0.930 . S
C1361 C1360 1.369 . S
C1361 C1370 1.429 . S
C1362 C1360 1.419 . S
C1362 C1363 1.363 . S
C1362 H1365 0.929 . S
C1363 C1362 1.363 . S
C1363 C1369 1.428 . S
H1364 C1360 0.930 . S
H1365 C1362 0.929 . S
S1366 N1367 1.613 . S
S1366 N1368 1.610 . S
N1367 S1366 1.613 . S
N1367 C1370 1.350 . S
N1368 S1366 1.610 . S
N1368 C1369 1.351 . S
C1369 C1363 1.428 . S
C1369 N1368 1.351 . S
C1369 C1370 1.434 . S
C1370 C1361 1.429 . S
C1370 N1367 1.350 . S
C1370 C1369 1.434 . S
C1371 C1372 1.369 . S
C1371 C1373 1.419 . S
C1371 H1375 0.930 . S
C1372 C1371 1.369 . S
C1372 C1381 1.429 . S
C1373 C1371 1.419 . S
C1373 C1374 1.363 . S
C1373 H1376 0.929 . S
C1374 C1373 1.363 . S
C1374 C1380 1.428 . S
H1375 C1371 0.930 . S
H1376 C1373 0.929 . S
S1377 N1378 1.613 . S
S1377 N1379 1.610 . S
N1378 S1377 1.613 . S
N1378 C1381 1.350 . S
N1379 S1377 1.610 . S
N1379 C1380 1.351 . S
C1380 C1374 1.428 . S
C1380 N1379 1.351 . S
C1380 C1381 1.434 . S
C1381 C1372 1.429 . S
C1381 N1378 1.350 . S
C1381 C1380 1.434 . S
C1382 C1383 1.369 . S
C1382 C1384 1.419 . S
C1382 H1386 0.930 . S
C1383 C1382 1.369 . S
C1383 C1392 1.429 . S
C1384 C1382 1.419 . S
C1384 C1385 1.363 . S
C1384 H1387 0.929 . S
C1385 C1384 1.363 . S
C1385 C1391 1.428 . S
H1386 C1382 0.930 . S
H1387 C1384 0.929 . S
S1388 N1389 1.613 . S
S1388 N1390 1.610 . S
N1389 S1388 1.613 . S
N1389 C1392 1.350 . S
N1390 S1388 1.610 . S
N1390 C1391 1.351 . S
C1391 C1385 1.428 . S
C1391 N1390 1.351 . S
C1391 C1392 1.434 . S
C1392 C1383 1.429 . S
C1392 N1389 1.350 . S
C1392 C1391 1.434 . S
C1393 C1394 1.369 . S
C1393 C1395 1.419 . S
C1393 H1397 0.930 . S
C1394 C1393 1.369 . S
C1394 C1403 1.429 . S
C1395 C1393 1.419 . S
C1395 C1396 1.363 . S
C1395 H1398 0.929 . S
C1396 C1395 1.363 . S
C1396 C1402 1.428 . S
H1397 C1393 0.930 . S
H1398 C1395 0.929 . S
S1399 N1400 1.613 . S
S1399 N1401 1.610 . S
N1400 S1399 1.613 . S
N1400 C1403 1.350 . S
N1401 S1399 1.610 . S
N1401 C1402 1.351 . S
C1402 C1396 1.428 . S
C1402 N1401 1.351 . S
C1402 C1403 1.434 . S
C1403 C1394 1.429 . S
C1403 N1400 1.350 . S
C1403 C1402 1.434 . S
C1404 C1405 1.369 . S
C1404 C1406 1.419 . S
C1404 H1408 0.930 . S
C1405 C1404 1.369 . S
C1405 C1414 1.429 1_545 S
C1406 C1404 1.419 . S
C1406 C1407 1.363 . S
C1406 H1409 0.929 . S
C1407 C1406 1.363 . S
C1407 C1413 1.428 . S
H1408 C1404 0.930 . S
H1409 C1406 0.929 . S
S1410 N1411 1.613 . S
S1410 N1412 1.644 . S
N1411 S1410 1.613 . S
N1411 C1414 1.350 . S
N1412 S1410 1.644 . S
N1412 C1413 1.332 1_565 S
C1413 C1407 1.428 . S
C1413 N1412 1.332 1_545 S
C1413 C1414 1.434 1_545 S
C1414 C1405 1.429 1_565 S
C1414 N1411 1.350 . S
C1414 C1413 1.434 1_565 S
C1415 C1416 1.369 1_455 S
C1415 C1417 1.419 . S
C1415 H1419 0.930 . S
C1416 C1415 1.369 1_655 S
C1416 C1425 1.429 . S
C1417 C1415 1.419 . S
C1417 C1418 1.363 . S
C1417 H1420 0.929 . S
C1418 C1417 1.363 . S
C1418 C1424 1.428 1_455 S
H1419 C1415 0.930 . S
H1420 C1417 0.929 . S
S1421 N1422 1.613 . S
S1421 N1423 1.610 . S
N1422 S1421 1.613 . S
N1422 C1425 1.350 . S
N1423 S1421 1.610 . S
N1423 C1424 1.351 . S
C1424 C1418 1.428 1_655 S
C1424 N1423 1.351 . S
C1424 C1425 1.434 . S
C1425 C1416 1.429 . S
C1425 N1422 1.350 . S
C1425 C1424 1.434 . S
C1426 C1427 1.369 1_565 S
C1426 C1428 1.419 . S
C1426 H1430 0.930 . S
C1427 C1426 1.369 1_545 S
C1427 C1436 1.429 . S
C1428 C1426 1.419 . S
C1428 C1429 1.363 . S
C1428 H1431 0.929 . S
C1429 C1428 1.363 . S
C1429 C1435 1.428 1_565 S
H1430 C1426 0.930 . S
H1431 C1428 0.929 . S
S1432 N1433 1.613 . S
S1432 N1434 1.610 . S
N1433 S1432 1.613 . S
N1433 C1436 1.350 . S
N1434 S1432 1.610 . S
N1434 C1435 1.351 . S
C1435 C1429 1.428 1_545 S
C1435 N1434 1.351 . S
C1435 C1436 1.434 . S
C1436 C1427 1.429 . S
C1436 N1433 1.350 . S
C1436 C1435 1.434 . S
C1437 C1438 1.369 1_455 S
C1437 C1439 1.419 1_455 S
C1437 H1441 0.930 . S
C1438 C1437 1.369 1_655 S
C1438 C1447 1.429 . S
C1439 C1437 1.419 1_655 S
C1439 C1440 1.363 . S
C1439 H1442 0.929 . S
C1440 C1439 1.363 . S
C1440 C1446 1.428 . S
H1441 C1437 0.930 . S
H1442 C1439 0.929 . S
S1443 N1444 1.613 . S
S1443 N1445 1.610 . S
N1444 S1443 1.613 . S
N1444 C1447 1.350 . S
N1445 S1443 1.610 . S
N1445 C1446 1.351 . S
C1446 C1440 1.428 . S
C1446 N1445 1.351 . S
C1446 C1447 1.434 . S
C1447 C1438 1.429 . S
C1447 N1444 1.350 . S
C1447 C1446 1.434 . S
C1448 C1449 1.369 . S
C1448 C1450 1.419 . S
C1448 H1452 0.930 . S
C1449 C1448 1.369 . S
C1449 C1458 1.429 1_565 S
C1450 C1448 1.419 . S
C1450 C1451 1.363 1_565 S
C1450 H1453 0.929 . S
C1451 C1450 1.363 1_545 S
C1451 C1457 1.428 . S
H1452 C1448 0.930 . S
H1453 C1450 0.929 . S
S1454 N1455 1.613 . S
S1454 N1456 1.610 . S
N1455 S1454 1.613 . S
N1455 C1458 1.350 . S
N1456 S1454 1.610 . S
N1456 C1457 1.351 . S
C1457 C1451 1.428 . S
C1457 N1456 1.351 . S
C1457 C1458 1.434 . S
C1458 C1449 1.429 1_545 S
C1458 N1455 1.350 . S
C1458 C1457 1.434 . S
C1459 C1460 1.369 . S
C1459 C1461 1.419 1_655 S
C1459 H1463 0.930 1_655 S
C1460 C1459 1.369 . S
C1460 C1469 1.429 . S
C1461 C1459 1.419 1_455 S
C1461 C1462 1.363 . S
C1461 H1464 0.929 . S
C1462 C1461 1.363 . S
C1462 C1468 1.428 1_455 S
H1463 C1459 0.930 1_455 S
H1464 C1461 0.929 . S
S1465 N1466 1.613 . S
S1465 N1467 1.610 . S
N1466 S1465 1.613 . S
N1466 C1469 1.350 . S
N1467 S1465 1.610 . S
N1467 C1468 1.351 . S
C1468 C1462 1.428 1_655 S
C1468 N1467 1.351 . S
C1468 C1469 1.434 . S
C1469 C1460 1.429 . S
C1469 N1466 1.350 . S
C1469 C1468 1.434 . S
C1470 C1471 1.369 . S
C1470 C1472 1.419 . S
C1470 H1474 0.930 . S
C1471 C1470 1.369 . S
C1471 C1480 1.429 . S
C1472 C1470 1.419 . S
C1472 C1473 1.363 . S
C1472 H1475 0.929 . S
C1473 C1472 1.363 . S
C1473 C1479 1.428 . S
H1474 C1470 0.930 . S
H1475 C1472 0.929 . S
S1476 N1477 1.613 . S
S1476 N1478 1.610 . S
N1477 S1476 1.613 . S
N1477 C1480 1.350 . S
N1478 S1476 1.610 . S
N1478 C1479 1.351 . S
C1479 C1473 1.428 . S
C1479 N1478 1.351 . S
C1479 C1480 1.434 . S
C1480 C1471 1.429 . S
C1480 N1477 1.350 . S
C1480 C1479 1.434 . S
C1481 C1482 1.369 . S
C1481 C1483 1.419 1_455 S
C1481 H1485 0.930 . S
C1482 C1481 1.369 . S
C1482 C1491 1.429 . S
C1483 C1481 1.419 1_655 S
C1483 C1484 1.363 1_655 S
C1483 H1486 0.929 . S
C1484 C1483 1.363 1_455 S
C1484 C1490 1.428 . S
H1485 C1481 0.930 . S
H1486 C1483 0.929 . S
S1487 N1488 1.613 . S
S1487 N1489 1.610 . S
N1488 S1487 1.613 . S
N1488 C1491 1.350 . S
N1489 S1487 1.610 . S
N1489 C1490 1.351 . S
C1490 C1484 1.428 . S
C1490 N1489 1.351 . S
C1490 C1491 1.434 . S
C1491 C1482 1.429 . S
C1491 N1488 1.350 . S
C1491 C1490 1.434 . S
C1492 C1493 1.369 . S
C1492 C1494 1.419 . S
C1492 H1496 0.930 . S
C1493 C1492 1.369 . S
C1493 C1502 1.429 . S
C1494 C1492 1.419 . S
C1494 C1495 1.363 . S
C1494 H1497 0.929 . S
C1495 C1494 1.363 . S
C1495 C1501 1.428 . S
H1496 C1492 0.930 . S
H1497 C1494 0.929 . S
S1498 N1499 1.613 . S
S1498 N1500 1.610 1_556 S
N1499 S1498 1.613 . S
N1499 C1502 1.350 1_556 S
N1500 S1498 1.610 1_554 S
N1500 C1501 1.351 . S
C1501 C1495 1.428 . S
C1501 N1500 1.351 . S
C1501 C1502 1.434 . S
C1502 C1493 1.429 . S
C1502 N1499 1.350 1_554 S
C1502 C1501 1.434 . S
C1503 C1504 1.369 . S
C1503 C1505 1.419 . S
C1503 H1507 0.930 . S
C1504 C1503 1.369 . S
C1504 C1513 1.429 1_556 S
C1505 C1503 1.419 . S
C1505 C1506 1.363 . S
C1505 H1508 0.929 . S
C1506 C1505 1.363 . S
C1506 C1512 1.428 . S
H1507 C1503 0.930 . S
H1508 C1505 0.929 . S
S1509 N1510 1.613 . S
S1509 N1511 1.610 . S
N1510 S1509 1.613 . S
N1510 C1513 1.350 . S
N1511 S1509 1.610 . S
N1511 C1512 1.351 1_554 S
C1512 C1506 1.428 . S
C1512 N1511 1.351 1_556 S
C1512 C1513 1.434 1_556 S
C1513 C1504 1.429 1_554 S
C1513 N1510 1.350 . S
C1513 C1512 1.434 1_554 S
C1514 C1515 1.369 . S
C1514 C1516 1.419 . S
C1514 H1518 0.930 . S
C1515 C1514 1.369 . S
C1515 C1524 1.429 1_554 S
C1516 C1514 1.419 . S
C1516 C1517 1.363 . S
C1516 H1519 0.929 . S
C1517 C1516 1.363 . S
C1517 C1523 1.428 . S
H1518 C1514 0.930 . S
H1519 C1516 0.929 . S
S1520 N1521 1.613 . S
S1520 N1522 1.610 . S
N1521 S1520 1.613 . S
N1521 C1524 1.350 . S
N1522 S1520 1.610 . S
N1522 C1523 1.351 1_556 S
C1523 C1517 1.428 . S
C1523 N1522 1.351 1_554 S
C1523 C1524 1.434 1_554 S
C1524 C1515 1.429 1_556 S
C1524 N1521 1.350 . S
C1524 C1523 1.434 1_556 S
C1525 C1526 1.369 . S
C1525 C1527 1.419 . S
C1525 H1529 0.930 . S
C1526 C1525 1.369 . S
C1526 C1535 1.429 . S
C1527 C1525 1.419 . S
C1527 C1528 1.363 . S
C1527 H1530 0.929 . S
C1528 C1527 1.363 . S
C1528 C1534 1.428 . S
H1529 C1525 0.930 . S
H1530 C1527 0.929 . S
S1531 N1532 1.613 . S
S1531 N1533 1.610 1_554 S
N1532 S1531 1.613 . S
N1532 C1535 1.350 1_554 S
N1533 S1531 1.610 1_556 S
N1533 C1534 1.351 . S
C1534 C1528 1.428 . S
C1534 N1533 1.351 . S
C1534 C1535 1.434 . S
C1535 C1526 1.429 . S
C1535 N1532 1.350 1_556 S
C1535 C1534 1.434 . S
C1536 C1537 1.369 . S
C1536 C1538 1.419 . S
C1536 H1540 0.930 . S
C1537 C1536 1.369 . S
C1537 C1546 1.429 . S
C1538 C1536 1.419 . S
C1538 C1539 1.363 . S
C1538 H1541 0.929 . S
C1539 C1538 1.363 . S
C1539 C1545 1.428 . S
H1540 C1536 0.930 . S
H1541 C1538 0.929 . S
S1542 N1543 1.613 . S
S1542 N1544 1.610 . S
N1543 S1542 1.613 . S
N1543 C1546 1.350 . S
N1544 S1542 1.610 . S
N1544 C1545 1.351 . S
C1545 C1539 1.428 . S
C1545 N1544 1.351 . S
C1545 C1546 1.434 . S
C1546 C1537 1.429 . S
C1546 N1543 1.350 . S
C1546 C1545 1.434 . S
C1547 C1548 1.369 . S
C1547 C1549 1.419 . S
C1547 H1551 0.930 . S
C1548 C1547 1.369 . S
C1548 C1557 1.429 . S
C1549 C1547 1.419 . S
C1549 C1550 1.363 . S
C1549 H1552 0.929 . S
C1550 C1549 1.363 . S
C1550 C1556 1.428 . S
H1551 C1547 0.930 . S
H1552 C1549 0.929 . S
S1553 N1554 1.613 . S
S1553 N1555 1.610 . S
N1554 S1553 1.613 . S
N1554 C1557 1.350 . S
N1555 S1553 1.610 . S
N1555 C1556 1.351 . S
C1556 C1550 1.428 . S
C1556 N1555 1.351 . S
C1556 C1557 1.434 . S
C1557 C1548 1.429 . S
C1557 N1554 1.350 . S
C1557 C1556 1.434 . S
C1558 C1559 1.369 . S
C1558 C1560 1.419 . S
C1558 H1562 0.930 . S
C1559 C1558 1.369 . S
C1559 C1568 1.429 . S
C1560 C1558 1.419 . S
C1560 C1561 1.363 . S
C1560 H1563 0.929 . S
C1561 C1560 1.363 . S
C1561 C1567 1.428 . S
H1562 C1558 0.930 . S
H1563 C1560 0.929 . S
S1564 N1565 1.613 . S
S1564 N1566 1.610 . S
N1565 S1564 1.613 . S
N1565 C1568 1.350 . S
N1566 S1564 1.610 . S
N1566 C1567 1.351 . S
C1567 C1561 1.428 . S
C1567 N1566 1.351 . S
C1567 C1568 1.434 . S
C1568 C1559 1.429 . S
C1568 N1565 1.350 . S
C1568 C1567 1.434 . S
C1569 C1570 1.369 . S
C1569 C1571 1.419 . S
C1569 H1573 0.930 . S
C1570 C1569 1.369 . S
C1570 C1579 1.429 . S
C1571 C1569 1.419 . S
C1571 C1572 1.363 . S
C1571 H1574 0.929 . S
C1572 C1571 1.363 . S
C1572 C1578 1.428 . S
H1573 C1569 0.930 . S
H1574 C1571 0.929 . S
S1575 N1576 1.613 . S
S1575 N1577 1.610 . S
N1576 S1575 1.613 . S
N1576 C1579 1.350 . S
N1577 S1575 1.610 . S
N1577 C1578 1.351 . S
C1578 C1572 1.428 . S
C1578 N1577 1.351 . S
C1578 C1579 1.434 . S
C1579 C1570 1.429 . S
C1579 N1576 1.350 . S
C1579 C1578 1.434 . S
C1580 C1581 1.369 . S
C1580 C1582 1.419 . S
C1580 H1584 0.930 . S
C1581 C1580 1.369 . S
C1581 C1590 1.429 . S
C1582 C1580 1.419 . S
C1582 C1583 1.363 . S
C1582 H1585 0.929 . S
C1583 C1582 1.363 . S
C1583 C1589 1.428 . S
H1584 C1580 0.930 . S
H1585 C1582 0.929 . S
S1586 N1587 1.613 . S
S1586 N1588 1.610 . S
N1587 S1586 1.613 . S
N1587 C1590 1.350 . S
N1588 S1586 1.610 . S
N1588 C1589 1.351 . S
C1589 C1583 1.428 . S
C1589 N1588 1.351 . S
C1589 C1590 1.434 . S
C1590 C1581 1.429 . S
C1590 N1587 1.350 . S
C1590 C1589 1.434 . S
C1591 C1592 1.369 . S
C1591 C1593 1.419 . S
C1591 H1595 0.930 . S
C1592 C1591 1.369 . S
C1592 C1601 1.429 . S
C1593 C1591 1.419 . S
C1593 C1594 1.363 . S
C1593 H1596 0.929 . S
C1594 C1593 1.363 . S
C1594 C1600 1.428 . S
H1595 C1591 0.930 . S
H1596 C1593 0.929 . S
S1597 N1598 1.613 . S
S1597 N1599 1.610 . S
N1598 S1597 1.613 . S
N1598 C1601 1.350 . S
N1599 S1597 1.610 . S
N1599 C1600 1.351 . S
C1600 C1594 1.428 . S
C1600 N1599 1.351 . S
C1600 C1601 1.434 . S
C1601 C1592 1.429 . S
C1601 N1598 1.350 . S
C1601 C1600 1.434 . S
C1602 C1603 1.369 . S
C1602 C1604 1.419 . S
C1602 H1606 0.930 . S
C1603 C1602 1.369 . S
C1603 C1612 1.429 . S
C1604 C1602 1.419 . S
C1604 C1605 1.363 . S
C1604 H1607 0.929 . S
C1605 C1604 1.363 . S
C1605 C1611 1.428 . S
H1606 C1602 0.930 . S
H1607 C1604 0.929 . S
S1608 N1609 1.613 . S
S1608 N1610 1.610 . S
N1609 S1608 1.613 . S
N1609 C1612 1.350 . S
N1610 S1608 1.610 . S
N1610 C1611 1.351 . S
C1611 C1605 1.428 . S
C1611 N1610 1.351 . S
C1611 C1612 1.434 . S
C1612 C1603 1.429 . S
C1612 N1609 1.350 . S
C1612 C1611 1.434 . S
C1613 C1614 1.369 . S
C1613 C1615 1.419 . S
C1613 H1617 0.930 . S
C1614 C1613 1.369 . S
C1614 C1623 1.429 . S
C1615 C1613 1.419 . S
C1615 C1616 1.363 . S
C1615 H1618 0.929 . S
C1616 C1615 1.363 . S
C1616 C1622 1.428 . S
H1617 C1613 0.930 . S
H1618 C1615 0.929 . S
S1619 N1620 1.613 . S
S1619 N1621 1.610 . S
N1620 S1619 1.613 . S
N1620 C1623 1.350 . S
N1621 S1619 1.610 . S
N1621 C1622 1.351 . S
C1622 C1616 1.428 . S
C1622 N1621 1.351 . S
C1622 C1623 1.434 . S
C1623 C1614 1.429 . S
C1623 N1620 1.350 . S
C1623 C1622 1.434 . S
C1624 C1625 1.369 . S
C1624 C1626 1.419 . S
C1624 H1628 0.930 . S
C1625 C1624 1.369 . S
C1625 C1634 1.429 . S
C1626 C1624 1.419 . S
C1626 C1627 1.363 . S
C1626 H1629 0.929 . S
C1627 C1626 1.363 . S
C1627 C1633 1.428 . S
H1628 C1624 0.930 . S
H1629 C1626 0.929 . S
S1630 N1631 1.613 . S
S1630 N1632 1.610 . S
N1631 S1630 1.613 . S
N1631 C1634 1.350 . S
N1632 S1630 1.610 . S
N1632 C1633 1.351 . S
C1633 C1627 1.428 . S
C1633 N1632 1.351 . S
C1633 C1634 1.434 . S
C1634 C1625 1.429 . S
C1634 N1631 1.350 . S
C1634 C1633 1.434 . S
C1635 C1636 1.369 . S
C1635 C1637 1.419 . S
C1635 H1639 0.930 . S
C1636 C1635 1.369 . S
C1636 C1645 1.429 . S
C1637 C1635 1.419 . S
C1637 C1638 1.363 . S
C1637 H1640 0.929 . S
C1638 C1637 1.363 . S
C1638 C1644 1.428 . S
H1639 C1635 0.930 . S
H1640 C1637 0.929 . S
S1641 N1642 1.613 . S
S1641 N1643 1.610 . S
N1642 S1641 1.613 . S
N1642 C1645 1.350 . S
N1643 S1641 1.610 . S
N1643 C1644 1.351 . S
C1644 C1638 1.428 . S
C1644 N1643 1.351 . S
C1644 C1645 1.434 . S
C1645 C1636 1.429 . S
C1645 N1642 1.350 . S
C1645 C1644 1.434 . S
C1646 C1647 1.369 . S
C1646 C1648 1.419 . S
C1646 H1650 0.930 . S
C1647 C1646 1.369 . S
C1647 C1656 1.429 . S
C1648 C1646 1.419 . S
C1648 C1649 1.363 . S
C1648 H1651 0.929 . S
C1649 C1648 1.363 . S
C1649 C1655 1.428 . S
H1650 C1646 0.930 . S
H1651 C1648 0.929 . S
S1652 N1653 1.613 . S
S1652 N1654 1.610 . S
N1653 S1652 1.613 . S
N1653 C1656 1.350 . S
N1654 S1652 1.610 . S
N1654 C1655 1.351 . S
C1655 C1649 1.428 . S
C1655 N1654 1.351 . S
C1655 C1656 1.434 . S
C1656 C1647 1.429 . S
C1656 N1653 1.350 . S
C1656 C1655 1.434 . S
C1657 C1658 1.369 . S
C1657 C1659 1.419 . S
C1657 H1661 0.930 . S
C1658 C1657 1.369 . S
C1658 C1667 1.429 . S
C1659 C1657 1.419 . S
C1659 C1660 1.363 . S
C1659 H1662 0.929 . S
C1660 C1659 1.363 . S
C1660 C1666 1.428 . S
H1661 C1657 0.930 . S
H1662 C1659 0.929 . S
S1663 N1664 1.613 . S
S1663 N1665 1.610 . S
N1664 S1663 1.613 . S
N1664 C1667 1.350 . S
N1665 S1663 1.610 . S
N1665 C1666 1.351 . S
C1666 C1660 1.428 . S
C1666 N1665 1.351 . S
C1666 C1667 1.434 . S
C1667 C1658 1.429 . S
C1667 N1664 1.350 . S
C1667 C1666 1.434 . S
C1668 C1669 1.369 . S
C1668 C1670 1.419 . S
C1668 H1672 0.930 . S
C1669 C1668 1.369 . S
C1669 C1678 1.429 . S
C1670 C1668 1.419 . S
C1670 C1671 1.363 . S
C1670 H1673 0.929 . S
C1671 C1670 1.363 . S
C1671 C1677 1.428 . S
H1672 C1668 0.930 . S
H1673 C1670 0.929 . S
S1674 N1675 1.613 . S
S1674 N1676 1.610 . S
N1675 S1674 1.613 . S
N1675 C1678 1.350 . S
N1676 S1674 1.610 . S
N1676 C1677 1.351 . S
C1677 C1671 1.428 . S
C1677 N1676 1.351 . S
C1677 C1678 1.434 . S
C1678 C1669 1.429 . S
C1678 N1675 1.350 . S
C1678 C1677 1.434 . S
C1679 C1680 1.369 . S
C1679 C1681 1.419 . S
C1679 H1683 0.930 . S
C1680 C1679 1.369 . S
C1680 C1689 1.429 . S
C1681 C1679 1.419 . S
C1681 C1682 1.363 . S
C1681 H1684 0.929 . S
C1682 C1681 1.363 . S
C1682 C1688 1.428 . S
H1683 C1679 0.930 . S
H1684 C1681 0.929 . S
S1685 N1686 1.613 . S
S1685 N1687 1.610 . S
N1686 S1685 1.613 . S
N1686 C1689 1.350 . S
N1687 S1685 1.610 . S
N1687 C1688 1.351 . S
C1688 C1682 1.428 . S
C1688 N1687 1.351 . S
C1688 C1689 1.434 . S
C1689 C1680 1.429 . S
C1689 N1686 1.350 . S
C1689 C1688 1.434 . S
C1690 C1691 1.369 . S
C1690 C1692 1.419 . S
C1690 H1694 0.930 . S
C1691 C1690 1.369 . S
C1691 C1700 1.429 . S
C1692 C1690 1.419 . S
C1692 C1693 1.363 . S
C1692 H1695 0.929 . S
C1693 C1692 1.363 . S
C1693 C1699 1.428 . S
H1694 C1690 0.930 . S
H1695 C1692 0.929 . S
S1696 N1697 1.613 . S
S1696 N1698 1.610 . S
N1697 S1696 1.613 . S
N1697 C1700 1.350 . S
N1698 S1696 1.610 . S
N1698 C1699 1.351 . S
C1699 C1693 1.428 . S
C1699 N1698 1.351 . S
C1699 C1700 1.434 . S
C1700 C1691 1.429 . S
C1700 N1697 1.350 . S
C1700 C1699 1.434 . S
C1701 C1702 1.369 . S
C1701 C1703 1.419 . S
C1701 H1705 0.930 . S
C1702 C1701 1.369 . S
C1702 C1711 1.429 . S
C1703 C1701 1.419 . S
C1703 C1704 1.363 . S
C1703 H1706 0.929 . S
C1704 C1703 1.363 . S
C1704 C1710 1.428 . S
H1705 C1701 0.930 . S
H1706 C1703 0.929 . S
S1707 N1708 1.613 . S
S1707 N1709 1.610 . S
N1708 S1707 1.613 . S
N1708 C1711 1.350 . S
N1709 S1707 1.610 . S
N1709 C1710 1.351 . S
C1710 C1704 1.428 . S
C1710 N1709 1.351 . S
C1710 C1711 1.434 . S
C1711 C1702 1.429 . S
C1711 N1708 1.350 . S
C1711 C1710 1.434 . S
C1712 C1713 1.369 . S
C1712 C1714 1.419 . S
C1712 H1716 0.930 . S
C1713 C1712 1.369 . S
C1713 C1722 1.429 . S
C1714 C1712 1.419 . S
C1714 C1715 1.363 . S
C1714 H1717 0.929 . S
C1715 C1714 1.363 . S
C1715 C1721 1.428 . S
H1716 C1712 0.930 . S
H1717 C1714 0.929 . S
S1718 N1719 1.613 . S
S1718 N1720 1.610 . S
N1719 S1718 1.613 . S
N1719 C1722 1.350 . S
N1720 S1718 1.610 . S
N1720 C1721 1.351 . S
C1721 C1715 1.428 . S
C1721 N1720 1.351 . S
C1721 C1722 1.434 . S
C1722 C1713 1.429 . S
C1722 N1719 1.350 . S
C1722 C1721 1.434 . S
C1723 C1724 1.369 . S
C1723 C1725 1.419 . S
C1723 H1727 0.930 . S
C1724 C1723 1.369 . S
C1724 C1733 1.429 . S
C1725 C1723 1.419 . S
C1725 C1726 1.363 . S
C1725 H1728 0.929 . S
C1726 C1725 1.363 . S
C1726 C1732 1.428 . S
H1727 C1723 0.930 . S
H1728 C1725 0.929 . S
S1729 N1730 1.613 . S
S1729 N1731 1.610 . S
N1730 S1729 1.613 . S
N1730 C1733 1.350 . S
N1731 S1729 1.610 . S
N1731 C1732 1.351 . S
C1732 C1726 1.428 . S
C1732 N1731 1.351 . S
C1732 C1733 1.434 . S
C1733 C1724 1.429 . S
C1733 N1730 1.350 . S
C1733 C1732 1.434 . S
C1734 C1735 1.369 . S
C1734 C1736 1.419 . S
C1734 H1738 0.930 . S
C1735 C1734 1.369 . S
C1735 C1744 1.429 . S
C1736 C1734 1.419 . S
C1736 C1737 1.363 . S
C1736 H1739 0.929 . S
C1737 C1736 1.363 . S
C1737 C1743 1.428 . S
H1738 C1734 0.930 . S
H1739 C1736 0.929 . S
S1740 N1741 1.613 . S
S1740 N1742 1.610 . S
N1741 S1740 1.613 . S
N1741 C1744 1.350 . S
N1742 S1740 1.610 . S
N1742 C1743 1.351 . S
C1743 C1737 1.428 . S
C1743 N1742 1.351 . S
C1743 C1744 1.434 . S
C1744 C1735 1.429 . S
C1744 N1741 1.350 . S
C1744 C1743 1.434 . S
C1745 C1746 1.369 . S
C1745 C1747 1.419 . S
C1745 H1749 0.930 . S
C1746 C1745 1.369 . S
C1746 C1755 1.429 . S
C1747 C1745 1.419 . S
C1747 C1748 1.363 . S
C1747 H1750 0.929 . S
C1748 C1747 1.363 . S
C1748 C1754 1.428 . S
H1749 C1745 0.930 . S
H1750 C1747 0.929 . S
S1751 N1752 1.613 . S
S1751 N1753 1.610 . S
N1752 S1751 1.613 . S
N1752 C1755 1.350 . S
N1753 S1751 1.610 . S
N1753 C1754 1.351 . S
C1754 C1748 1.428 . S
C1754 N1753 1.351 . S
C1754 C1755 1.434 . S
C1755 C1746 1.429 . S
C1755 N1752 1.350 . S
C1755 C1754 1.434 . S
C1756 C1757 1.369 . S
C1756 C1758 1.419 . S
C1756 H1760 0.930 . S
C1757 C1756 1.369 . S
C1757 C1766 1.429 . S
C1758 C1756 1.419 . S
C1758 C1759 1.363 . S
C1758 H1761 0.929 . S
C1759 C1758 1.363 . S
C1759 C1765 1.428 . S
H1760 C1756 0.930 . S
H1761 C1758 0.929 . S
S1762 N1763 1.613 . S
S1762 N1764 1.610 . S
N1763 S1762 1.613 . S
N1763 C1766 1.350 . S
N1764 S1762 1.610 . S
N1764 C1765 1.351 . S
C1765 C1759 1.428 . S
C1765 N1764 1.351 . S
C1765 C1766 1.434 . S
C1766 C1757 1.429 . S
C1766 N1763 1.350 . S
C1766 C1765 1.434 . S
C1767 C1768 1.369 . S
C1767 C1769 1.419 . S
C1767 H1771 0.930 . S
C1768 C1767 1.369 . S
C1768 C1777 1.429 . S
C1769 C1767 1.419 . S
C1769 C1770 1.363 . S
C1769 H1772 0.929 . S
C1770 C1769 1.363 . S
C1770 C1776 1.428 . S
H1771 C1767 0.930 . S
H1772 C1769 0.929 . S
S1773 N1774 1.613 . S
S1773 N1775 1.610 . S
N1774 S1773 1.613 . S
N1774 C1777 1.350 . S
N1775 S1773 1.610 . S
N1775 C1776 1.351 . S
C1776 C1770 1.428 . S
C1776 N1775 1.351 . S
C1776 C1777 1.434 . S
C1777 C1768 1.429 . S
C1777 N1774 1.350 . S
C1777 C1776 1.434 . S
C1778 C1779 1.369 . S
C1778 C1780 1.419 . S
C1778 H1782 0.930 . S
C1779 C1778 1.369 . S
C1779 C1788 1.429 . S
C1780 C1778 1.419 . S
C1780 C1781 1.363 . S
C1780 H1783 0.929 . S
C1781 C1780 1.363 . S
C1781 C1787 1.428 . S
H1782 C1778 0.930 . S
H1783 C1780 0.929 . S
S1784 N1785 1.613 . S
S1784 N1786 1.610 . S
N1785 S1784 1.613 . S
N1785 C1788 1.350 . S
N1786 S1784 1.610 . S
N1786 C1787 1.351 . S
C1787 C1781 1.428 . S
C1787 N1786 1.351 . S
C1787 C1788 1.434 . S
C1788 C1779 1.429 . S
C1788 N1785 1.350 . S
C1788 C1787 1.434 . S
C1789 C1790 1.369 . S
C1789 C1791 1.419 . S
C1789 H1793 0.930 . S
C1790 C1789 1.369 . S
C1790 C1799 1.429 . S
C1791 C1789 1.419 . S
C1791 C1792 1.363 . S
C1791 H1794 0.929 . S
C1792 C1791 1.363 . S
C1792 C1798 1.428 . S
H1793 C1789 0.930 . S
H1794 C1791 0.929 . S
S1795 N1796 1.613 . S
S1795 N1797 1.610 . S
N1796 S1795 1.613 . S
N1796 C1799 1.350 . S
N1797 S1795 1.610 . S
N1797 C1798 1.351 . S
C1798 C1792 1.428 . S
C1798 N1797 1.351 . S
C1798 C1799 1.434 . S
C1799 C1790 1.429 . S
C1799 N1796 1.350 . S
C1799 C1798 1.434 . S
C1273 C1204 2.214 . S
C1275 C38 2.252 . S
C1284 C75 2.115 . S
C1286 C870 2.201 . S
C1295 C1257 2.145 . S
C1297 C144 2.193 . S
C1306 C1135 2.300 . S
C1308 C181 2.195 . S
C1317 C992 2.146 . S
C1319 C250 2.193 . S
C1328 C1029 2.205 . S
C1330 C287 2.114 . S
C1339 C1098 2.211 . S
C1341 C356 2.250 . S
C1350 C393 2.191 . S
C1352 C923 2.302 . S
C1361 C727 2.204 . S
C1363 C446 2.321 . S
C1372 C764 2.324 . S
C1374 C515 2.204 . S
C1383 C568 2.384 . S
C1385 C833 2.249 . S
C1394 C621 2.248 . S
C1396 C674 2.383 . S
C1405 C409 2.234 1_545 S
C1407 C780 2.191 . S
C1416 C817 2.373 . S
C1418 C234 2.293 . S
C1427 C303 2.216 . S
C1429 C658 2.122 . S
C1438 C711 2.303 1_655 S
C1440 C340 2.222 . S
C1449 C552 2.123 . S
C1451 C91 2.218 . S
C1460 C128 2.287 . S
C1462 C605 2.376 . S
C1471 C197 2.237 1_545 S
C1473 C462 2.192 . S
C1482 C22 2.220 . S
C1484 C499 2.302 1_455 S
C1493 C1082 2.279 1_554 S
C1495 C1151 2.187 . S
C1504 C1188 2.278 1_556 S
C1506 C939 2.186 . S
C1515 C976 2.269 1_554 S
C1517 C886 2.161 . S
C1526 C1241 2.270 1_556 S
C1528 C1045 2.159 . S
C1537 C39 2.086 . S
C1539 C463 2.102 . S
C1548 C506 1.600 . S
C1550 C82 1.641 . S
C1559 C145 1.852 . S
C1561 C559 1.831 . S
C1570 C188 1.771 . S
C1572 C612 1.739 . S
C1581 C251 1.849 . S
C1583 C665 1.834 . S
C1592 C294 1.636 . S
C1594 C718 1.609 . S
C1603 C781 2.107 . S
C1605 C357 2.090 . S
C1614 C824 1.748 . S
C1616 C400 1.769 . S
C1625 C453 1.889 . S
C1627 C887 1.822 . S
C1636 C516 1.691 . S
C1638 C1248 1.768 . S
C1647 C1152 2.005 . S
C1649 C569 2.107 . S
C1658 C1195 1.726 . S
C1660 C622 1.652 . S
C1669 C940 2.006 . S
C1671 C675 2.111 . S
C1680 C983 1.765 . S
C1682 C728 1.682 . S
C1691 C771 1.894 . S
C1693 C1046 1.817 . S
C1702 C834 1.654 . S
C1704 C1089 1.730 . S
C1713 C29 1.588 . S
C1715 C877 1.561 . S
C1724 C930 1.702 . S
C1726 C241 1.643 . S
C1735 C993 2.122 . S
C1737 C304 2.090 . S
C1746 C1036 1.556 . S
C1748 C347 1.584 . S
C1757 C1099 2.118 . S
C1759 C410 2.105 . S
C1768 C1142 1.693 . S
C1770 C135 1.653 . S
C1779 C198 2.102 . S
C1781 C1205 2.123 . S
C1790 C1258 2.122 . S
C1792 C92 2.090 . S
