# Generated by pormake.
# Topology cbo, (4)-cn, num edge types: 1
# Building blocks:
#     Node 0, Type 0, BuildingBlock: QUQFOY_clean_sbu_1, # of connection points: 4
#     Node 1, Type 0, BuildingBlock: QUQFOY_clean_sbu_1, # of connection points: 4
#     Node 2, Type 0, BuildingBlock: QUQFOY_clean_sbu_1, # of connection points: 4
#     Node 3, Type 0, BuildingBlock: QUQFOY_clean_sbu_1, # of connection points: 4
#     Node 4, Type 0, BuildingBlock: QUQFOY_clean_sbu_1, # of connection points: 4
#     Node 5, Type 0, BuildingBlock: QUQFOY_clean_sbu_1, # of connection points: 4
#     Node 6, Type 0, BuildingBlock: QUQFOY_clean_sbu_1, # of connection points: 4
#     Node 7, Type 0, BuildingBlock: QUQFOY_clean_sbu_1, # of connection points: 4
#     Node 8, Type 0, BuildingBlock: QUQFOY_clean_sbu_1, # of connection points: 4
#     Node 9, Type 0, BuildingBlock: QUQFOY_clean_sbu_1, # of connection points: 4
#     Node 10, Type 0, BuildingBlock: QUQFOY_clean_sbu_1, # of connection points: 4
#     Node 11, Type 0, BuildingBlock: QUQFOY_clean_sbu_1, # of connection points: 4
#     Node 12, Type 0, BuildingBlock: QUQFOY_clean_sbu_1, # of connection points: 4
#     Node 13, Type 0, BuildingBlock: QUQFOY_clean_sbu_1, # of connection points: 4
#     Node 14, Type 0, BuildingBlock: QUQFOY_clean_sbu_1, # of connection points: 4
#     Node 15, Type 0, BuildingBlock: QUQFOY_clean_sbu_1, # of connection points: 4
#     Node 16, Type 0, BuildingBlock: QUQFOY_clean_sbu_1, # of connection points: 4
#     Node 17, Type 0, BuildingBlock: QUQFOY_clean_sbu_1, # of connection points: 4
#     Node 18, Type 0, BuildingBlock: QUQFOY_clean_sbu_1, # of connection points: 4
#     Node 19, Type 0, BuildingBlock: QUQFOY_clean_sbu_1, # of connection points: 4
#     Node 20, Type 0, BuildingBlock: QUQFOY_clean_sbu_1, # of connection points: 4
#     Node 21, Type 0, BuildingBlock: QUQFOY_clean_sbu_1, # of connection points: 4
#     Node 22, Type 0, BuildingBlock: QUQFOY_clean_sbu_1, # of connection points: 4
#     Node 23, Type 0, BuildingBlock: QUQFOY_clean_sbu_1, # of connection points: 4
#     Edge 24, Type (0, 0), BuildingBlock: ZUJKAS_clean_linker_0, # of connection points: 2
#     Edge 25, Type (0, 0), BuildingBlock: ZUJKAS_clean_linker_0, # of connection points: 2
#     Edge 26, Type (0, 0), BuildingBlock: ZUJKAS_clean_linker_0, # of connection points: 2
#     Edge 27, Type (0, 0), BuildingBlock: ZUJKAS_clean_linker_0, # of connection points: 2
#     Edge 28, Type (0, 0), BuildingBlock: ZUJKAS_clean_linker_0, # of connection points: 2
#     Edge 29, Type (0, 0), BuildingBlock: ZUJKAS_clean_linker_0, # of connection points: 2
#     Edge 30, Type (0, 0), BuildingBlock: ZUJKAS_clean_linker_0, # of connection points: 2
#     Edge 31, Type (0, 0), BuildingBlock: ZUJKAS_clean_linker_0, # of connection points: 2
#     Edge 32, Type (0, 0), BuildingBlock: ZUJKAS_clean_linker_0, # of connection points: 2
#     Edge 33, Type (0, 0), BuildingBlock: ZUJKAS_clean_linker_0, # of connection points: 2
#     Edge 34, Type (0, 0), BuildingBlock: ZUJKAS_clean_linker_0, # of connection points: 2
#     Edge 35, Type (0, 0), BuildingBlock: ZUJKAS_clean_linker_0, # of connection points: 2
#     Edge 36, Type (0, 0), BuildingBlock: ZUJKAS_clean_linker_0, # of connection points: 2
#     Edge 37, Type (0, 0), BuildingBlock: ZUJKAS_clean_linker_0, # of connection points: 2
#     Edge 38, Type (0, 0), BuildingBlock: ZUJKAS_clean_linker_0, # of connection points: 2
#     Edge 39, Type (0, 0), BuildingBlock: ZUJKAS_clean_linker_0, # of connection points: 2
#     Edge 40, Type (0, 0), BuildingBlock: ZUJKAS_clean_linker_0, # of connection points: 2
#     Edge 41, Type (0, 0), BuildingBlock: ZUJKAS_clean_linker_0, # of connection points: 2
#     Edge 42, Type (0, 0), BuildingBlock: ZUJKAS_clean_linker_0, # of connection points: 2
#     Edge 43, Type (0, 0), BuildingBlock: ZUJKAS_clean_linker_0, # of connection points: 2
#     Edge 44, Type (0, 0), BuildingBlock: ZUJKAS_clean_linker_0, # of connection points: 2
#     Edge 45, Type (0, 0), BuildingBlock: ZUJKAS_clean_linker_0, # of connection points: 2
#     Edge 46, Type (0, 0), BuildingBlock: ZUJKAS_clean_linker_0, # of connection points: 2
#     Edge 47, Type (0, 0), BuildingBlock: ZUJKAS_clean_linker_0, # of connection points: 2
#     Edge 48, Type (0, 0), BuildingBlock: ZUJKAS_clean_linker_0, # of connection points: 2
#     Edge 49, Type (0, 0), BuildingBlock: ZUJKAS_clean_linker_0, # of connection points: 2
#     Edge 50, Type (0, 0), BuildingBlock: ZUJKAS_clean_linker_0, # of connection points: 2
#     Edge 51, Type (0, 0), BuildingBlock: ZUJKAS_clean_linker_0, # of connection points: 2
#     Edge 52, Type (0, 0), BuildingBlock: ZUJKAS_clean_linker_0, # of connection points: 2
#     Edge 53, Type (0, 0), BuildingBlock: ZUJKAS_clean_linker_0, # of connection points: 2
#     Edge 54, Type (0, 0), BuildingBlock: ZUJKAS_clean_linker_0, # of connection points: 2
#     Edge 55, Type (0, 0), BuildingBlock: ZUJKAS_clean_linker_0, # of connection points: 2
#     Edge 56, Type (0, 0), BuildingBlock: ZUJKAS_clean_linker_0, # of connection points: 2
#     Edge 57, Type (0, 0), BuildingBlock: ZUJKAS_clean_linker_0, # of connection points: 2
#     Edge 58, Type (0, 0), BuildingBlock: ZUJKAS_clean_linker_0, # of connection points: 2
#     Edge 59, Type (0, 0), BuildingBlock: ZUJKAS_clean_linker_0, # of connection points: 2
#     Edge 60, Type (0, 0), BuildingBlock: ZUJKAS_clean_linker_0, # of connection points: 2
#     Edge 61, Type (0, 0), BuildingBlock: ZUJKAS_clean_linker_0, # of connection points: 2
#     Edge 62, Type (0, 0), BuildingBlock: ZUJKAS_clean_linker_0, # of connection points: 2
#     Edge 63, Type (0, 0), BuildingBlock: ZUJKAS_clean_linker_0, # of connection points: 2
#     Edge 64, Type (0, 0), BuildingBlock: ZUJKAS_clean_linker_0, # of connection points: 2
#     Edge 65, Type (0, 0), BuildingBlock: ZUJKAS_clean_linker_0, # of connection points: 2
#     Edge 66, Type (0, 0), BuildingBlock: ZUJKAS_clean_linker_0, # of connection points: 2
#     Edge 67, Type (0, 0), BuildingBlock: ZUJKAS_clean_linker_0, # of connection points: 2
#     Edge 68, Type (0, 0), BuildingBlock: ZUJKAS_clean_linker_0, # of connection points: 2
#     Edge 69, Type (0, 0), BuildingBlock: ZUJKAS_clean_linker_0, # of connection points: 2
#     Edge 70, Type (0, 0), BuildingBlock: ZUJKAS_clean_linker_0, # of connection points: 2
#     Edge 71, Type (0, 0), BuildingBlock: ZUJKAS_clean_linker_0, # of connection points: 2
# Relax obj value: 0.100
# Max RMSD: 0.122
# Mean RMSD: 0.122
data_MOF--net-cbo--node1-QUQFOY_clean_sbu_1--edge1-ZUJKAS_clean_linker_0
_symmetry_space_group_name_H-M    P1
_symmetry_Int_Tables_number       1
_symmetry_cell_setting            triclinic
loop_
_symmetry_equiv_pos_as_xyz
'x, y, z'
_cell_length_a     69.288959
_cell_length_b     69.2623
_cell_length_c     69.299936
_cell_angle_alpha  90.000358
_cell_angle_beta   89.990575
_cell_angle_gamma 90.002769
loop_
_atom_site_label
_atom_site_type_symbol
_atom_site_fract_x
_atom_site_fract_y
_atom_site_fract_z
_atom_type_partial_charge
O0 O 0.11559 0.1935 0.31331 0.0
Cd1 Cd 0.11696 0.16696 0.32674 0.0
Cd2 Cd 0.13824 0.18688 0.35174 0.0
O3 O 0.13023 0.21072 0.33568 0.0
O4 O 0.09571 0.15183 0.31461 0.0
O5 O 0.09601 0.15974 0.34551 0.0
C6 C 0.08717 0.15182 0.33113 0.0
C7 C 0.13326 0.18552 0.38497 0.0
C8 C 0.12149 0.20971 0.31958 0.0
C9 C 0.1586 0.156 0.32923 0.0
O10 O 0.16033 0.17026 0.34064 0.0
O11 O 0.14205 0.15128 0.32281 0.0
O12 O 0.14684 0.19595 0.37762 0.0
O13 O 0.1221 0.17618 0.37331 0.0
O14 O 0.38699 0.81136 0.81063 0.0
Cd15 Cd 0.38552 0.83731 0.82521 0.0
Cd16 Cd 0.36528 0.81606 0.84986 0.0
O17 O 0.37419 0.79295 0.8332 0.0
O18 O 0.40606 0.85382 0.81358 0.0
O19 O 0.40699 0.84343 0.84375 0.0
C20 C 0.41514 0.85268 0.82977 0.0
C21 C 0.37057 0.81769 0.88303 0.0
C22 C 0.38213 0.79475 0.81675 0.0
C23 C 0.34363 0.84686 0.82867 0.0
O24 O 0.34245 0.83188 0.83919 0.0
O25 O 0.36 0.85264 0.82269 0.0
O26 O 0.35745 0.80657 0.87586 0.0
O27 O 0.3812 0.82744 0.87121 0.0
O28 O 0.61677 0.31137 0.69274 0.0
Cd29 Cd 0.61873 0.3375 0.67864 0.0
Cd30 Cd 0.63715 0.31613 0.65256 0.0
O31 O 0.62839 0.29307 0.66944 0.0
O32 O 0.59865 0.35441 0.69051 0.0
O33 O 0.59734 0.34422 0.66026 0.0
C34 C 0.58944 0.35352 0.67436 0.0
C35 C 0.6311 0.31769 0.61949 0.0
C36 C 0.62101 0.29476 0.68617 0.0
C37 C 0.66065 0.34592 0.6735 0.0
O38 O 0.66077 0.33141 0.66228 0.0
O39 O 0.64485 0.35182 0.68077 0.0
O40 O 0.64413 0.30632 0.62643 0.0
O41 O 0.62095 0.32771 0.6315 0.0
O42 O 0.88598 0.69518 0.18951 0.0
Cd43 Cd 0.88402 0.66871 0.17605 0.0
Cd44 Cd 0.86489 0.68952 0.14998 0.0
O45 O 0.87326 0.71299 0.16644 0.0
O46 O 0.90462 0.65279 0.18832 0.0
O47 O 0.90502 0.66113 0.15752 0.0
C48 C 0.91344 0.65283 0.17193 0.0
C49 C 0.87062 0.68811 0.11685 0.0
C50 C 0.88118 0.71162 0.18294 0.0
C51 C 0.84216 0.65958 0.17173 0.0
O52 O 0.84172 0.67382 0.16015 0.0
O53 O 0.85811 0.65413 0.17903 0.0
O54 O 0.85736 0.6991 0.12394 0.0
O55 O 0.88111 0.67828 0.12873 0.0
O56 O 0.31131 0.11553 0.19034 0.0
Cd57 Cd 0.32565 0.11789 0.16439 0.0
Cd58 Cd 0.3505 0.1374 0.18641 0.0
O59 O 0.33307 0.12907 0.20918 0.0
O60 O 0.31393 0.09733 0.14798 0.0
O61 O 0.34447 0.09698 0.15722 0.0
C62 C 0.33033 0.08853 0.14849 0.0
C63 C 0.38359 0.13143 0.18585 0.0
C64 C 0.31691 0.12064 0.20704 0.0
C65 C 0.32983 0.15992 0.15563 0.0
O66 O 0.34089 0.16046 0.17026 0.0
O67 O 0.32285 0.14391 0.14992 0.0
O68 O 0.37633 0.14473 0.1967 0.0
O69 O 0.37188 0.12101 0.17576 0.0
O70 O 0.18976 0.88729 0.69156 0.0
Cd71 Cd 0.1758 0.88501 0.66536 0.0
Cd72 Cd 0.15209 0.86348 0.68669 0.0
O73 O 0.16855 0.87231 0.70995 0.0
O74 O 0.18776 0.90591 0.64957 0.0
O75 O 0.15698 0.90587 0.65788 0.0
C76 C 0.17128 0.91453 0.64963 0.0
C77 C 0.11888 0.86833 0.68504 0.0
C78 C 0.1843 0.88157 0.70812 0.0
C79 C 0.17417 0.84293 0.65568 0.0
O80 O 0.16336 0.84129 0.67042 0.0
O81 O 0.17984 0.85953 0.65021 0.0
O82 O 0.12619 0.85505 0.69587 0.0
O83 O 0.13059 0.87936 0.67557 0.0
O84 O 0.81365 0.38506 0.80908 0.0
Cd85 Cd 0.82667 0.38383 0.83585 0.0
Cd86 Cd 0.8516 0.36202 0.81628 0.0
O87 O 0.8358 0.36971 0.79218 0.0
O88 O 0.81438 0.40529 0.85057 0.0
O89 O 0.84543 0.40477 0.84326 0.0
C90 C 0.83096 0.41373 0.85087 0.0
C91 C 0.88494 0.36618 0.81766 0.0
C92 C 0.81987 0.37879 0.793 0.0
C93 C 0.82845 0.34233 0.84724 0.0
O94 O 0.84004 0.34041 0.83316 0.0
O95 O 0.82213 0.35897 0.85176 0.0
O96 O 0.87729 0.3523 0.80788 0.0
O97 O 0.87355 0.37818 0.82627 0.0
O98 O 0.69063 0.61821 0.3091 0.0
Cd99 Cd 0.67744 0.61882 0.33574 0.0
Cd100 Cd 0.65148 0.63949 0.31625 0.0
O101 O 0.66795 0.63277 0.29222 0.0
O102 O 0.68992 0.59744 0.35037 0.0
O103 O 0.65894 0.59753 0.34271 0.0
C104 C 0.67349 0.58871 0.35036 0.0
C105 C 0.61821 0.63437 0.31684 0.0
C106 C 0.68426 0.62437 0.29305 0.0
C107 C 0.67378 0.65999 0.34748 0.0
O108 O 0.66183 0.66136 0.33364 0.0
O109 O 0.68121 0.64373 0.35168 0.0
O110 O 0.6257 0.64858 0.30741 0.0
O111 O 0.62976 0.62257 0.32552 0.0
O112 O 0.19279 0.31223 0.11867 0.0
Cd113 Cd 0.16648 0.326 0.12007 0.0
Cd114 Cd 0.18727 0.35185 0.13941 0.0
O115 O 0.21076 0.33528 0.13121 0.0
O116 O 0.15085 0.31356 0.09936 0.0
O117 O 0.15938 0.34432 0.09872 0.0
C118 C 0.15115 0.32984 0.09033 0.0
C119 C 0.1858 0.38503 0.13383 0.0
C120 C 0.20927 0.31868 0.1235 0.0
C121 C 0.15683 0.33034 0.1617 0.0
O122 O 0.17123 0.34169 0.16236 0.0
O123 O 0.15145 0.32319 0.14568 0.0
O124 O 0.1967 0.37791 0.14715 0.0
O125 O 0.1762 0.37314 0.12313 0.0
O126 O 0.68911 0.18987 0.88787 0.0
Cd127 Cd 0.66303 0.17579 0.88559 0.0
Cd128 Cd 0.68471 0.1511 0.86551 0.0
O129 O 0.70775 0.16818 0.87394 0.0
O130 O 0.64696 0.18796 0.90612 0.0
O131 O 0.65559 0.15724 0.90666 0.0
C132 C 0.64721 0.17163 0.91505 0.0
C133 C 0.68356 0.11798 0.87139 0.0
C134 C 0.70575 0.18425 0.8826 0.0
C135 C 0.65393 0.1724 0.8436 0.0
O136 O 0.66845 0.16121 0.84273 0.0
O137 O 0.64841 0.17914 0.85977 0.0
O138 O 0.69441 0.12507 0.85801 0.0
O139 O 0.6738 0.12988 0.88195 0.0
O140 O 0.8132 0.81038 0.38549 0.0
Cd141 Cd 0.83904 0.82501 0.38392 0.0
Cd142 Cd 0.81749 0.85082 0.36542 0.0
O143 O 0.79466 0.83355 0.37404 0.0
O144 O 0.85579 0.81362 0.40438 0.0
O145 O 0.84485 0.84364 0.40531 0.0
C146 C 0.85426 0.82978 0.41351 0.0
C147 C 0.8181 0.88397 0.37135 0.0
C148 C 0.79654 0.81678 0.38128 0.0
C149 C 0.84792 0.83044 0.34219 0.0
O150 O 0.83321 0.8414 0.34195 0.0
O151 O 0.85377 0.82321 0.35803 0.0
O152 O 0.80706 0.87666 0.35825 0.0
O153 O 0.82838 0.87228 0.38161 0.0
O154 O 0.31313 0.69029 0.61421 0.0
Cd155 Cd 0.33925 0.67629 0.61652 0.0
Cd156 Cd 0.31777 0.65155 0.63682 0.0
O157 O 0.2947 0.66864 0.62848 0.0
O158 O 0.35533 0.6882 0.59583 0.0
O159 O 0.34668 0.65748 0.59567 0.0
C160 C 0.35512 0.67175 0.58713 0.0
C161 C 0.31842 0.61829 0.63156 0.0
C162 C 0.29656 0.68466 0.61969 0.0
C163 C 0.34858 0.67309 0.65849 0.0
O164 O 0.33416 0.66177 0.65946 0.0
O165 O 0.35394 0.67987 0.64228 0.0
O166 O 0.30776 0.6258 0.64486 0.0
O167 O 0.3283 0.62983 0.62073 0.0
O168 O 0.88593 0.80846 0.68991 0.0
Cd169 Cd 0.88502 0.83514 0.67668 0.0
Cd170 Cd 0.86342 0.81558 0.65168 0.0
O171 O 0.87094 0.79148 0.66758 0.0
O172 O 0.90658 0.84978 0.68886 0.0
O173 O 0.90602 0.8422 0.65788 0.0
C174 C 0.91504 0.84985 0.67229 0.0
C175 C 0.86794 0.81681 0.61839 0.0
C176 C 0.87974 0.79235 0.68366 0.0
C177 C 0.84365 0.84669 0.6746 0.0
O178 O 0.84177 0.83255 0.66307 0.0
O179 O 0.86026 0.85122 0.68097 0.0
O180 O 0.85393 0.80713 0.62592 0.0
O181 O 0.87983 0.82544 0.62988 0.0
O182 O 0.61489 0.19169 0.19055 0.0
Cd183 Cd 0.6171 0.16578 0.17602 0.0
Cd184 Cd 0.63802 0.18768 0.15238 0.0
O185 O 0.62932 0.21058 0.16942 0.0
O186 O 0.59653 0.14963 0.18807 0.0
O187 O 0.59593 0.15854 0.15746 0.0
C188 C 0.58759 0.14999 0.17177 0.0
C189 C 0.63223 0.18649 0.11931 0.0
C190 C 0.62038 0.20839 0.18529 0.0
C191 C 0.65916 0.15639 0.17344 0.0
O192 O 0.66055 0.17136 0.16291 0.0
O193 O 0.6427 0.15071 0.17927 0.0
O194 O 0.64562 0.19735 0.12639 0.0
O195 O 0.62169 0.17669 0.13117 0.0
O196 O 0.38594 0.68917 0.31045 0.0
Cd197 Cd 0.38391 0.66362 0.32555 0.0
Cd198 Cd 0.36499 0.6862 0.35032 0.0
O199 O 0.37368 0.70858 0.33249 0.0
O200 O 0.40412 0.64646 0.31424 0.0
O201 O 0.40536 0.65768 0.34411 0.0
C202 C 0.41338 0.64806 0.3303 0.0
C203 C 0.37132 0.68553 0.38336 0.0
C204 C 0.38144 0.70606 0.31605 0.0
C205 C 0.3419 0.65533 0.33051 0.0
O206 O 0.34159 0.67032 0.34107 0.0
O207 O 0.35781 0.64916 0.3237 0.0
O208 O 0.35818 0.69667 0.37626 0.0
O209 O 0.38143 0.67528 0.37151 0.0
O210 O 0.11843 0.30955 0.81346 0.0
Cd211 Cd 0.11963 0.33542 0.82816 0.0
Cd212 Cd 0.13982 0.31427 0.85289 0.0
O213 O 0.13123 0.29118 0.83604 0.0
O214 O 0.09896 0.35172 0.81648 0.0
O215 O 0.09798 0.34118 0.8466 0.0
C216 C 0.08976 0.35033 0.83259 0.0
C217 C 0.13429 0.31533 0.88605 0.0
C218 C 0.12338 0.29296 0.81955 0.0
C219 C 0.1614 0.3453 0.83192 0.0
O220 O 0.16261 0.33036 0.8425 0.0
O221 O 0.14504 0.35093 0.82577 0.0
O222 O 0.14757 0.30446 0.87878 0.0
O223 O 0.12368 0.32522 0.87432 0.0
O224 O 0.69119 0.88657 0.81465 0.0
Cd225 Cd 0.67686 0.88442 0.84061 0.0
Cd226 Cd 0.65228 0.86423 0.8188 0.0
O227 O 0.66987 0.87212 0.79597 0.0
O228 O 0.6883 0.90537 0.8567 0.0
O229 O 0.65774 0.90516 0.84751 0.0
C230 C 0.67177 0.91391 0.85613 0.0
C231 C 0.61908 0.86962 0.81835 0.0
C232 C 0.68583 0.88095 0.79803 0.0
C233 C 0.67312 0.84261 0.85025 0.0
O234 O 0.66193 0.84175 0.83574 0.0
O235 O 0.68013 0.85874 0.85555 0.0
O236 O 0.62679 0.8558 0.80853 0.0
O237 O 0.63038 0.88086 0.82803 0.0
O238 O 0.81258 0.11572 0.31136 0.0
Cd239 Cd 0.82673 0.11779 0.33748 0.0
Cd240 Cd 0.85035 0.13933 0.31612 0.0
O241 O 0.83374 0.13068 0.29291 0.0
O242 O 0.81468 0.09692 0.35323 0.0
O243 O 0.84542 0.09673 0.34474 0.0
C244 C 0.83109 0.08816 0.35302 0.0
C245 C 0.88349 0.13413 0.31772 0.0
C246 C 0.81797 0.12148 0.2948 0.0
C247 C 0.82864 0.15977 0.34743 0.0
O248 O 0.83929 0.16149 0.33259 0.0
O249 O 0.82296 0.14316 0.35284 0.0
O250 O 0.87632 0.14754 0.30695 0.0
O251 O 0.87168 0.12319 0.32715 0.0
O252 O 0.18853 0.61668 0.19522 0.0
Cd253 Cd 0.1751 0.61825 0.16868 0.0
Cd254 Cd 0.15024 0.63945 0.18893 0.0
O255 O 0.16619 0.63106 0.21271 0.0
O256 O 0.18744 0.5972 0.1534 0.0
O257 O 0.15651 0.59719 0.16122 0.0
C258 C 0.17098 0.58853 0.15326 0.0
C259 C 0.11703 0.63447 0.18691 0.0
C260 C 0.18231 0.62235 0.21152 0.0
C261 C 0.17282 0.66005 0.15827 0.0
O262 O 0.1616 0.66168 0.17269 0.0
O263 O 0.17899 0.6435 0.15321 0.0
O264 O 0.12418 0.64791 0.19766 0.0
O265 O 0.12889 0.6234 0.1777 0.0
O266 O 0.31392 0.38588 0.69296 0.0
Cd267 Cd 0.32748 0.38414 0.66654 0.0
Cd268 Cd 0.35262 0.36347 0.68733 0.0
O269 O 0.33542 0.37053 0.71071 0.0
O270 O 0.31513 0.40506 0.6511 0.0
O271 O 0.346 0.40529 0.65912 0.0
C272 C 0.33151 0.41388 0.65112 0.0
C273 C 0.38577 0.36918 0.68736 0.0
C274 C 0.31954 0.37963 0.70926 0.0
C275 C 0.3311 0.34246 0.65598 0.0
O276 O 0.34282 0.34134 0.67004 0.0
O277 O 0.32378 0.35866 0.65134 0.0
O278 O 0.37835 0.35502 0.69691 0.0
O279 O 0.3742 0.38057 0.67817 0.0
O280 O 0.81107 0.69035 0.88509 0.0
Cd281 Cd 0.83717 0.67618 0.88337 0.0
Cd282 Cd 0.81565 0.6505 0.86464 0.0
O283 O 0.79253 0.66733 0.87335 0.0
O284 O 0.85331 0.68845 0.90377 0.0
O285 O 0.84426 0.65785 0.90472 0.0
C286 C 0.85285 0.67224 0.9129 0.0
C287 C 0.81704 0.61734 0.87028 0.0
C288 C 0.7944 0.68402 0.88079 0.0
C289 C 0.84593 0.67144 0.8416 0.0
O290 O 0.83125 0.66043 0.8413 0.0
O291 O 0.85184 0.67848 0.8575 0.0
O292 O 0.80586 0.62449 0.85722 0.0
O293 O 0.82695 0.62919 0.88073 0.0
O294 O 0.31022 0.81357 0.11425 0.0
Cd295 Cd 0.33641 0.82761 0.11621 0.0
Cd296 Cd 0.3153 0.85139 0.13785 0.0
O297 O 0.29199 0.83475 0.12945 0.0
O298 O 0.35206 0.8156 0.09523 0.0
O299 O 0.34374 0.84639 0.09525 0.0
C300 C 0.35195 0.83207 0.08659 0.0
C301 C 0.31687 0.88456 0.13253 0.0
C302 C 0.29374 0.81898 0.12022 0.0
C303 C 0.34653 0.8294 0.15815 0.0
O304 O 0.33188 0.8403 0.15992 0.0
O305 O 0.35177 0.82361 0.14152 0.0
O306 O 0.3062 0.87742 0.14604 0.0
O307 O 0.32623 0.8727 0.12158 0.0
O308 O 0.19371 0.19064 0.61678 0.0
Cd309 Cd 0.1673 0.17709 0.6186 0.0
Cd310 Cd 0.18804 0.1513 0.63819 0.0
O311 O 0.21156 0.16783 0.62992 0.0
O312 O 0.15157 0.18936 0.59787 0.0
O313 O 0.15983 0.15852 0.59761 0.0
C314 C 0.15163 0.17294 0.58909 0.0
C315 C 0.18634 0.11816 0.63246 0.0
C316 C 0.21015 0.18425 0.62183 0.0
C317 C 0.15776 0.17315 0.66036 0.0
O318 O 0.172 0.16159 0.66108 0.0
O319 O 0.1525 0.18033 0.6443 0.0
O320 O 0.19728 0.12513 0.64582 0.0
O321 O 0.17682 0.13016 0.62182 0.0
O322 O 0.69046 0.31299 0.38909 0.0
Cd323 Cd 0.66452 0.32743 0.38671 0.0
Cd324 Cd 0.68628 0.35097 0.36549 0.0
O325 O 0.7092 0.33408 0.3744 0.0
O326 O 0.64838 0.31581 0.40752 0.0
O327 O 0.65734 0.34644 0.40749 0.0
C328 C 0.64874 0.33231 0.41612 0.0
C329 C 0.68547 0.38424 0.37026 0.0
C330 C 0.70711 0.31828 0.38351 0.0
C331 C 0.65507 0.32945 0.34465 0.0
O332 O 0.66995 0.34008 0.34315 0.0
O333 O 0.64944 0.32374 0.36118 0.0
O334 O 0.69619 0.3766 0.35707 0.0
O335 O 0.67558 0.37282 0.38121 0.0
H336 H 0.16301 0.34427 0.19815 0.0
H337 H 0.15244 0.32986 0.22857 0.0
H338 H 0.12023 0.28685 0.1972 0.0
H339 H 0.13041 0.30133 0.16668 0.0
H340 H 0.1015 0.30011 0.23136 0.0
H341 H 0.17784 0.27874 0.24447 0.0
H342 H 0.17372 0.30411 0.24111 0.0
H343 H 0.16965 0.2877 0.22145 0.0
C344 C 0.1534 0.33195 0.19769 0.0
C345 C 0.1478 0.32377 0.17996 0.0
C346 C 0.14743 0.3237 0.21511 0.0
C347 C 0.13592 0.30705 0.21511 0.0
C348 C 0.12921 0.29965 0.19749 0.0
H349 H 0.10262 0.21268 0.28511 0.0
H350 H 0.104 0.2393 0.2622 0.0
C351 C 0.13507 0.30795 0.18006 0.0
C352 C 0.13228 0.29627 0.23322 0.0
H353 H 0.15499 0.26899 0.26738 0.0
C354 C 0.11318 0.29345 0.23937 0.0
C355 C 0.14757 0.28761 0.24365 0.0
C356 C 0.16835 0.28951 0.23732 0.0
C357 C 0.10895 0.28191 0.25552 0.0
C358 C 0.1242 0.27273 0.26552 0.0
C359 C 0.14332 0.27613 0.25976 0.0
C360 C 0.12079 0.25805 0.28072 0.0
C361 C 0.08819 0.27955 0.26162 0.0
C362 C 0.12973 0.2597 0.29883 0.0
C363 C 0.12911 0.24437 0.31198 0.0
C364 C 0.11969 0.22703 0.30714 0.0
C365 C 0.11001 0.2258 0.28933 0.0
C366 C 0.11063 0.24111 0.27624 0.0
H367 H 0.07932 0.29211 0.25706 0.0
H368 H 0.08212 0.26648 0.25463 0.0
H369 H 0.08694 0.27783 0.2775 0.0
H370 H 0.13777 0.2726 0.30251 0.0
H371 H 0.13672 0.24581 0.32555 0.0
H372 H 0.36858 0.75794 0.82237 0.0
H373 H 0.36796 0.73158 0.79885 0.0
H374 H 0.39898 0.76705 0.75819 0.0
H375 H 0.39988 0.79331 0.78157 0.0
H376 H 0.34963 0.73519 0.76391 0.0
H377 H 0.42604 0.71527 0.75198 0.0
H378 H 0.41815 0.72878 0.77284 0.0
H379 H 0.42197 0.74079 0.75014 0.0
C380 C 0.37567 0.75998 0.8086 0.0
C381 C 0.38418 0.7778 0.80383 0.0
C382 C 0.37529 0.74489 0.79517 0.0
C383 C 0.3836 0.74726 0.77684 0.0
C384 C 0.39285 0.76472 0.77237 0.0
H385 H 0.37429 0.70282 0.66285 0.0
H386 H 0.3843 0.71802 0.69308 0.0
C387 C 0.39319 0.7798 0.78574 0.0
C388 C 0.38049 0.73263 0.76152 0.0
H389 H 0.40366 0.70614 0.72697 0.0
C390 C 0.36143 0.72852 0.75607 0.0
C391 C 0.39592 0.72408 0.75123 0.0
C392 C 0.41667 0.7273 0.75696 0.0
C393 C 0.35736 0.71689 0.74002 0.0
C394 C 0.37279 0.70877 0.72936 0.0
C395 C 0.39187 0.71236 0.73517 0.0
C396 C 0.36927 0.69767 0.7114 0.0
C397 C 0.33656 0.71424 0.73403 0.0
C398 C 0.35823 0.6807 0.71171 0.0
C399 C 0.35235 0.67205 0.69446 0.0
C400 C 0.35761 0.68012 0.67657 0.0
C401 C 0.36991 0.69627 0.67635 0.0
C402 C 0.37566 0.70498 0.69363 0.0
H403 H 0.32685 0.72483 0.74116 0.0
H404 H 0.33496 0.71574 0.71816 0.0
H405 H 0.33171 0.69954 0.73815 0.0
H406 H 0.3535 0.67458 0.7253 0.0
H407 H 0.34308 0.65949 0.69516 0.0
H408 H 0.63417 0.25791 0.67994 0.0
H409 H 0.63466 0.23121 0.7031 0.0
H410 H 0.60416 0.2664 0.74439 0.0
H411 H 0.60341 0.293 0.72139 0.0
H412 H 0.65319 0.23432 0.73811 0.0
H413 H 0.5767 0.21468 0.74996 0.0
H414 H 0.58465 0.22832 0.72919 0.0
H415 H 0.58089 0.24017 0.752 0.0
C416 C 0.62716 0.25981 0.69377 0.0
C417 C 0.61885 0.27765 0.69884 0.0
C418 C 0.62746 0.24454 0.70699 0.0
C419 C 0.61926 0.24673 0.72539 0.0
C420 C 0.61021 0.26421 0.73014 0.0
H421 H 0.62815 0.20202 0.83906 0.0
H422 H 0.61824 0.21713 0.80876 0.0
C423 C 0.60995 0.27949 0.717 0.0
C424 C 0.62232 0.23189 0.74051 0.0
H425 H 0.59905 0.20533 0.77493 0.0
C426 C 0.64136 0.22766 0.74592 0.0
C427 C 0.60686 0.22335 0.75076 0.0
C428 C 0.58613 0.22671 0.74507 0.0
C429 C 0.6454 0.21594 0.76192 0.0
C430 C 0.62993 0.20785 0.77256 0.0
C431 C 0.61087 0.21153 0.76675 0.0
C432 C 0.63339 0.19678 0.79054 0.0
C433 C 0.66618 0.2132 0.7679 0.0
C434 C 0.64447 0.17983 0.79032 0.0
C435 C 0.6503 0.17124 0.80762 0.0
C436 C 0.64495 0.17933 0.82546 0.0
C437 C 0.6326 0.19545 0.82559 0.0
C438 C 0.62691 0.20411 0.80828 0.0
H439 H 0.67593 0.22377 0.76079 0.0
H440 H 0.6678 0.21468 0.78377 0.0
H441 H 0.67099 0.1985 0.76374 0.0
H442 H 0.64926 0.17368 0.77677 0.0
H443 H 0.65961 0.15869 0.80699 0.0
H444 H 0.86676 0.74805 0.17695 0.0
H445 H 0.86608 0.77478 0.20009 0.0
H446 H 0.8989 0.74069 0.2405 0.0
H447 H 0.89986 0.7141 0.21752 0.0
H448 H 0.84857 0.77108 0.23537 0.0
H449 H 0.92453 0.79323 0.24575 0.0
H450 H 0.91667 0.77932 0.22514 0.0
H451 H 0.92138 0.76761 0.24785 0.0
C452 C 0.87425 0.74642 0.19057 0.0
C453 C 0.88326 0.72888 0.19543 0.0
C454 C 0.87384 0.76171 0.20377 0.0
C455 C 0.88262 0.75982 0.22194 0.0
C456 C 0.8924 0.74267 0.22643 0.0
H457 H 0.87451 0.80178 0.33633 0.0
H458 H 0.88431 0.78787 0.30544 0.0
C459 C 0.89277 0.72738 0.2133 0.0
C460 C 0.87939 0.77449 0.23719 0.0
H461 H 0.90248 0.80129 0.27152 0.0
C462 C 0.86033 0.77804 0.24303 0.0
C463 C 0.89476 0.78342 0.24722 0.0
C464 C 0.91547 0.78086 0.24105 0.0
C465 C 0.85624 0.78937 0.25929 0.0
C466 C 0.87165 0.79777 0.26976 0.0
C467 C 0.8907 0.79485 0.26348 0.0
C468 C 0.86822 0.80825 0.2881 0.0
C469 C 0.83551 0.79133 0.26573 0.0
C470 C 0.85662 0.82484 0.28855 0.0
C471 C 0.85084 0.83275 0.3062 0.0
C472 C 0.85676 0.82431 0.3237 0.0
C473 C 0.86961 0.80859 0.32314 0.0
C474 C 0.87525 0.80062 0.30549 0.0
H475 H 0.82592 0.78068 0.25853 0.0
H476 H 0.83426 0.78939 0.28159 0.0
H477 H 0.8302 0.806 0.26209 0.0
H478 H 0.85139 0.83121 0.27527 0.0
H479 H 0.84114 0.845 0.3061 0.0
H480 H 0.28503 0.09764 0.2091 0.0
H481 H 0.25988 0.09816 0.23378 0.0
H482 H 0.29278 0.13945 0.26672 0.0
H483 H 0.31829 0.13877 0.24221 0.0
H484 H 0.27238 0.11106 0.2897 0.0
H485 H 0.22572 0.1469 0.23519 0.0
H486 H 0.23541 0.12406 0.2277 0.0
H487 H 0.25139 0.14407 0.23193 0.0
C488 C 0.28711 0.10658 0.22176 0.0
C489 C 0.30353 0.1184 0.22355 0.0
C490 C 0.2727 0.10688 0.23583 0.0
C491 C 0.2743 0.11916 0.25183 0.0
C492 C 0.29125 0.12995 0.2544 0.0
H493 H 0.19635 0.16431 0.33749 0.0
H494 H 0.22492 0.15252 0.32061 0.0
C495 C 0.3058 0.12955 0.24038 0.0
C496 C 0.25753 0.12213 0.26475 0.0
H497 H 0.21134 0.13919 0.26499 0.0
C498 C 0.259 0.11717 0.28435 0.0
C499 C 0.24016 0.13024 0.25772 0.0
C500 C 0.23805 0.13681 0.23704 0.0
C501 C 0.24338 0.11986 0.29704 0.0
C502 C 0.22601 0.12791 0.28994 0.0
C503 C 0.22459 0.13281 0.27035 0.0
C504 C 0.2093 0.13241 0.30253 0.0
C505 C 0.2455 0.11389 0.31786 0.0
C506 C 0.19101 0.12487 0.29815 0.0
C507 C 0.17458 0.1317 0.30766 0.0
C508 C 0.17613 0.14632 0.32166 0.0
C509 C 0.19461 0.15304 0.32679 0.0
C510 C 0.21102 0.14621 0.31724 0.0
H511 H 0.25728 0.10317 0.31975 0.0
H512 H 0.24909 0.12678 0.32667 0.0
H513 H 0.23186 0.10764 0.32348 0.0
H514 H 0.18936 0.11426 0.28677 0.0
H515 H 0.16061 0.12615 0.30338 0.0
H516 H 0.30627 0.83552 0.83479 0.0
H517 H 0.2775 0.84712 0.81805 0.0
H518 H 0.31145 0.89085 0.78964 0.0
H519 H 0.34044 0.87916 0.80603 0.0
H520 H 0.25796 0.88331 0.81353 0.0
H521 H 0.29103 0.85682 0.74537 0.0
H522 H 0.30059 0.85076 0.76881 0.0
H523 H 0.30531 0.87407 0.75843 0.0
C524 C 0.30761 0.84784 0.82525 0.0
C525 C 0.32575 0.85619 0.82149 0.0
C526 C 0.29111 0.85447 0.81573 0.0
C527 C 0.29244 0.86958 0.80233 0.0
C528 C 0.31021 0.87893 0.79968 0.0
H529 H 0.21579 0.90506 0.71046 0.0
H530 H 0.24066 0.90502 0.73537 0.0
C531 C 0.32675 0.87225 0.80911 0.0
C532 C 0.27576 0.87416 0.78975 0.0
H533 H 0.26085 0.87205 0.74289 0.0
C534 C 0.25857 0.88096 0.79806 0.0
C535 C 0.27657 0.87086 0.76962 0.0
C536 C 0.29428 0.86256 0.75999 0.0
C537 C 0.2422 0.88481 0.78667 0.0
C538 C 0.24305 0.88149 0.76655 0.0
C539 C 0.26028 0.87476 0.7583 0.0
C540 C 0.22623 0.88417 0.75359 0.0
C541 C 0.22423 0.89255 0.79621 0.0
C542 C 0.20955 0.87286 0.75582 0.0
C543 C 0.1952 0.87291 0.7416 0.0
C544 C 0.19744 0.88408 0.72479 0.0
C545 C 0.21366 0.89618 0.72315 0.0
C546 C 0.2279 0.8962 0.7374 0.0
H547 H 0.22751 0.89931 0.81037 0.0
H548 H 0.21696 0.90336 0.78687 0.0
H549 H 0.21402 0.88047 0.79874 0.0
H550 H 0.20812 0.86317 0.76801 0.0
H551 H 0.18292 0.86337 0.74326 0.0
H552 H 0.82538 0.36255 0.75727 0.0
H553 H 0.80232 0.3616 0.73051 0.0
H554 H 0.76306 0.39735 0.76298 0.0
H555 H 0.78599 0.39863 0.78956 0.0
H556 H 0.76667 0.34558 0.73436 0.0
H557 H 0.75868 0.42105 0.70972 0.0
H558 H 0.77886 0.41311 0.72419 0.0
H559 H 0.75614 0.4189 0.73539 0.0
C560 C 0.81205 0.37061 0.75852 0.0
C561 C 0.8075 0.38057 0.77563 0.0
C562 C 0.79888 0.37004 0.74321 0.0
C563 C 0.78105 0.37958 0.74464 0.0
C564 C 0.77689 0.39025 0.76134 0.0
H565 H 0.66663 0.37268 0.702 0.0
H566 H 0.69754 0.38214 0.71614 0.0
C567 C 0.78999 0.39081 0.77663 0.0
C568 C 0.76575 0.37633 0.73002 0.0
H569 H 0.73221 0.39955 0.70231 0.0
C570 C 0.75939 0.35734 0.72702 0.0
C571 C 0.75619 0.39171 0.72056 0.0
C572 C 0.76295 0.41232 0.72247 0.0
C573 C 0.74311 0.35336 0.71567 0.0
C574 C 0.73312 0.3688 0.70676 0.0
C575 C 0.73988 0.38775 0.70917 0.0
C576 C 0.71484 0.36552 0.69615 0.0
C577 C 0.73614 0.33275 0.7142 0.0
C578 C 0.71438 0.35371 0.67972 0.0
C579 C 0.69673 0.34816 0.67166 0.0
C580 C 0.67922 0.35448 0.67982 0.0
C581 C 0.67982 0.36748 0.69541 0.0
C582 C 0.69748 0.37292 0.70351 0.0
H583 H 0.74307 0.32324 0.72509 0.0
H584 H 0.72025 0.33197 0.71613 0.0
H585 H 0.73967 0.327 0.69968 0.0
H586 H 0.72765 0.34816 0.67359 0.0
H587 H 0.69682 0.33832 0.65952 0.0
H588 H 0.83697 0.63193 0.19955 0.0
H589 H 0.80648 0.62171 0.21396 0.0
H590 H 0.7752 0.65718 0.17351 0.0
H591 H 0.80562 0.6677 0.15914 0.0
H592 H 0.76625 0.66515 0.21095 0.0
H593 H 0.76213 0.5863 0.19888 0.0
H594 H 0.78482 0.59367 0.20895 0.0
H595 H 0.77807 0.60177 0.18522 0.0
C596 C 0.8236 0.63722 0.19339 0.0
C597 C 0.82378 0.65076 0.17826 0.0
C598 C 0.80615 0.63125 0.20159 0.0
C599 C 0.78853 0.63854 0.1947 0.0
C600 C 0.78862 0.65131 0.17899 0.0
H601 H 0.67748 0.63895 0.25676 0.0
H602 H 0.70044 0.64085 0.22991 0.0
C603 C 0.80605 0.65731 0.17079 0.0
C604 C 0.7704 0.63484 0.20547 0.0
H605 H 0.74243 0.59901 0.22456 0.0
C606 C 0.76079 0.65072 0.21362 0.0
C607 C 0.76336 0.616 0.20898 0.0
C608 C 0.77252 0.59847 0.19989 0.0
C609 C 0.745 0.64823 0.22604 0.0
C610 C 0.73837 0.62934 0.23012 0.0
C611 C 0.74751 0.61348 0.22139 0.0
C612 C 0.72331 0.62577 0.24491 0.0
C613 C 0.73627 0.66581 0.23554 0.0
C614 C 0.72822 0.6158 0.26181 0.0
C615 C 0.71513 0.61455 0.27707 0.0
C616 C 0.69682 0.62326 0.27575 0.0
C617 C 0.6915 0.63223 0.25833 0.0
C618 C 0.70463 0.63342 0.243 0.0
H619 H 0.74549 0.67882 0.23381 0.0
H620 H 0.72205 0.66891 0.22887 0.0
H621 H 0.73397 0.66325 0.25119 0.0
H622 H 0.74252 0.60971 0.26355 0.0
H623 H 0.71969 0.60738 0.29019 0.0
H624 H 0.30169 0.16517 0.12835 0.0
H625 H 0.28737 0.19573 0.1182 0.0
H626 H 0.32885 0.22686 0.15261 0.0
H627 H 0.34308 0.19636 0.1631 0.0
H628 H 0.29207 0.23631 0.16146 0.0
H629 H 0.30145 0.23972 0.08228 0.0
H630 H 0.29123 0.21722 0.09002 0.0
H631 H 0.31533 0.22358 0.09734 0.0
C632 C 0.3081 0.17851 0.13339 0.0
C633 C 0.32344 0.17828 0.14667 0.0
C634 C 0.29995 0.19601 0.12746 0.0
C635 C 0.30714 0.21361 0.13451 0.0
C636 C 0.32311 0.21346 0.14694 0.0
H637 H 0.24633 0.32536 0.13601 0.0
H638 H 0.27303 0.30216 0.13693 0.0
C639 C 0.33123 0.19598 0.15293 0.0
C640 C 0.2964 0.23183 0.13102 0.0
H641 H 0.27622 0.25964 0.09568 0.0
C642 C 0.28893 0.24166 0.14709 0.0
C643 C 0.29226 0.23873 0.11227 0.0
C644 C 0.30065 0.22937 0.0945 0.0
C645 C 0.27658 0.25756 0.14492 0.0
C646 C 0.27186 0.26404 0.12614 0.0
C647 C 0.2799 0.25467 0.11006 0.0
C648 C 0.25707 0.27919 0.12301 0.0
C649 C 0.26785 0.26658 0.16273 0.0
C650 C 0.23963 0.27428 0.11402 0.0
C651 C 0.22444 0.28749 0.11336 0.0
C652 C 0.22638 0.30593 0.12167 0.0
C653 C 0.2443 0.31124 0.12961 0.0
C654 C 0.25954 0.29798 0.13023 0.0
H655 H 0.27009 0.25754 0.17579 0.0
H656 H 0.27467 0.28083 0.16534 0.0
H657 H 0.25211 0.2689 0.16079 0.0
H658 H 0.23745 0.25989 0.10829 0.0
H659 H 0.21091 0.28294 0.10698 0.0
H660 H 0.83538 0.30451 0.83817 0.0
H661 H 0.81786 0.27623 0.84983 0.0
H662 H 0.78627 0.31207 0.88971 0.0
H663 H 0.80343 0.34058 0.87787 0.0
H664 H 0.811 0.25822 0.8859 0.0
H665 H 0.74437 0.28983 0.85431 0.0
H666 H 0.76806 0.29944 0.84942 0.0
H667 H 0.75615 0.30486 0.87183 0.0
C668 C 0.82494 0.30639 0.84966 0.0
C669 C 0.82056 0.32489 0.85684 0.0
C670 C 0.81497 0.29016 0.85633 0.0
C671 C 0.80049 0.29213 0.87032 0.0
C672 C 0.79714 0.31033 0.8786 0.0
H673 H 0.70748 0.21657 0.90496 0.0
H674 H 0.73238 0.24146 0.90472 0.0
C675 C 0.80701 0.32659 0.87186 0.0
C676 C 0.78771 0.27557 0.87482 0.0
H677 H 0.74106 0.26034 0.87077 0.0
C678 C 0.79568 0.25867 0.88269 0.0
C679 C 0.76778 0.27613 0.87038 0.0
C680 C 0.75856 0.29344 0.86085 0.0
C681 C 0.78415 0.24238 0.88651 0.0
C682 C 0.76423 0.24303 0.88211 0.0
C683 C 0.75631 0.25995 0.87429 0.0
C684 C 0.75117 0.22631 0.88492 0.0
C685 C 0.79328 0.22473 0.89536 0.0
C686 C 0.75371 0.20925 0.87425 0.0
C687 C 0.73947 0.1949 0.87438 0.0
C688 C 0.72236 0.19751 0.88502 0.0
C689 C 0.7204 0.21415 0.89649 0.0
C690 C 0.73464 0.22839 0.89641 0.0
H691 H 0.80726 0.22819 0.90241 0.0
H692 H 0.78353 0.21805 0.90619 0.0
H693 H 0.79607 0.21392 0.88387 0.0
H694 H 0.76618 0.20749 0.865 0.0
H695 H 0.74138 0.18229 0.86534 0.0
H696 H 0.75939 0.82316 0.36908 0.0
H697 H 0.73271 0.79996 0.36881 0.0
H698 H 0.76877 0.75802 0.39734 0.0
H699 H 0.79533 0.78106 0.39791 0.0
H700 H 0.73496 0.76555 0.34951 0.0
H701 H 0.71815 0.75169 0.42628 0.0
H702 H 0.73164 0.77258 0.41843 0.0
H703 H 0.74345 0.74959 0.42119 0.0
C704 C 0.7615 0.80915 0.37569 0.0
C705 C 0.77954 0.80394 0.38342 0.0
C706 C 0.74624 0.79592 0.37553 0.0
C707 C 0.74867 0.77734 0.38327 0.0
C708 C 0.7664 0.7724 0.39169 0.0
H709 H 0.70438 0.6638 0.37221 0.0
H710 H 0.71958 0.69387 0.38268 0.0
C711 C 0.78165 0.78557 0.39183 0.0
C712 C 0.73372 0.76228 0.38036 0.0
H713 H 0.70814 0.72714 0.40367 0.0
C714 C 0.72876 0.7574 0.36136 0.0
C715 C 0.72578 0.7516 0.39585 0.0
C716 C 0.72988 0.75675 0.41659 0.0
C717 C 0.71691 0.74149 0.35734 0.0
C718 C 0.70947 0.73039 0.3728 0.0
C719 C 0.71386 0.73567 0.39185 0.0
C720 C 0.69837 0.71244 0.36925 0.0
C721 C 0.71335 0.73609 0.33652 0.0
C722 C 0.68093 0.71292 0.359 0.0
C723 C 0.67226 0.69576 0.35286 0.0
C724 C 0.68081 0.6778 0.35704 0.0
C725 C 0.69746 0.67736 0.36865 0.0
C726 C 0.70618 0.69455 0.37467 0.0
H727 H 0.72339 0.74361 0.32654 0.0
H728 H 0.71493 0.72028 0.33438 0.0
H729 H 0.6984 0.74019 0.33249 0.0
H730 H 0.67445 0.72658 0.35503 0.0
H731 H 0.65932 0.69662 0.34414 0.0
H732 H 0.16814 0.80529 0.66609 0.0
H733 H 0.18548 0.77689 0.65444 0.0
H734 H 0.21501 0.81199 0.6124 0.0
H735 H 0.19802 0.84061 0.62417 0.0
H736 H 0.191 0.75818 0.6182 0.0
H737 H 0.25848 0.79083 0.64682 0.0
H738 H 0.2349 0.80028 0.6525 0.0
H739 H 0.24585 0.80545 0.62955 0.0
C740 C 0.17808 0.80697 0.65415 0.0
C741 C 0.18193 0.82532 0.64629 0.0
C742 C 0.18794 0.79068 0.64748 0.0
C743 C 0.2018 0.79242 0.63284 0.0
C744 C 0.20463 0.81043 0.62398 0.0
H745 H 0.29436 0.71675 0.59702 0.0
H746 H 0.26942 0.74159 0.59747 0.0
C747 C 0.19484 0.82676 0.63069 0.0
C748 C 0.21453 0.77586 0.6282 0.0
H749 H 0.26139 0.761 0.63094 0.0
C750 C 0.20641 0.75878 0.62088 0.0
C751 C 0.23459 0.77663 0.63193 0.0
C752 C 0.24401 0.79419 0.6408 0.0
C753 C 0.21792 0.74251 0.61694 0.0
C754 C 0.23797 0.74334 0.62067 0.0
C755 C 0.24604 0.76045 0.62792 0.0
C756 C 0.25104 0.72662 0.61779 0.0
C757 C 0.2086 0.72467 0.60865 0.0
C758 C 0.24874 0.70967 0.62868 0.0
C759 C 0.263 0.69533 0.6284 0.0
C760 C 0.27989 0.69786 0.61742 0.0
C761 C 0.28161 0.71439 0.60575 0.0
C762 C 0.26734 0.72861 0.60596 0.0
H763 H 0.19449 0.72802 0.60181 0.0
H764 H 0.21811 0.71773 0.59779 0.0
H765 H 0.206 0.71414 0.62044 0.0
H766 H 0.23646 0.70798 0.6382 0.0
H767 H 0.26127 0.68282 0.63761 0.0
H768 H 0.83741 0.65874 0.80521 0.0
H769 H 0.84792 0.67282 0.77465 0.0
H770 H 0.88422 0.71288 0.80549 0.0
H771 H 0.87404 0.69872 0.8361 0.0
H772 H 0.84023 0.71014 0.76574 0.0
H773 H 0.91893 0.69771 0.7608 0.0
H774 H 0.9036 0.68421 0.777 0.0
H775 H 0.91194 0.70793 0.78354 0.0
C776 C 0.84798 0.67023 0.8055 0.0
C777 C 0.85477 0.67769 0.82314 0.0
C778 C 0.85399 0.67826 0.788 0.0
C779 C 0.86697 0.6938 0.78776 0.0
C780 C 0.87452 0.70063 0.80528 0.0
H781 H 0.89718 0.78958 0.71888 0.0
H782 H 0.89531 0.76283 0.74165 0.0
C783 C 0.86856 0.69258 0.8228 0.0
C784 C 0.87055 0.70455 0.76959 0.0
H785 H 0.90617 0.72363 0.74135 0.0
C786 C 0.85462 0.71277 0.76015 0.0
C787 C 0.88933 0.70802 0.76239 0.0
C788 C 0.90691 0.69884 0.77135 0.0
C789 C 0.857 0.72522 0.74437 0.0
C790 C 0.87583 0.72927 0.73759 0.0
C791 C 0.89175 0.72048 0.74656 0.0
C792 C 0.87928 0.74407 0.72253 0.0
C793 C 0.83938 0.73479 0.73582 0.0
C794 C 0.8715 0.74213 0.70392 0.0
C795 C 0.87242 0.7575 0.69083 0.0
C796 C 0.88124 0.77502 0.69614 0.0
C797 C 0.89012 0.77638 0.71435 0.0
C798 C 0.88914 0.76106 0.7274 0.0
H799 H 0.82643 0.73304 0.74513 0.0
H800 H 0.84194 0.75045 0.73357 0.0
H801 H 0.83616 0.72819 0.72159 0.0
H802 H 0.86414 0.72898 0.69976 0.0
H803 H 0.86558 0.75591 0.67688 0.0
H804 H 0.59762 0.20988 0.21736 0.0
H805 H 0.59763 0.23457 0.24247 0.0
H806 H 0.63809 0.26842 0.20942 0.0
H807 H 0.63792 0.24389 0.184 0.0
H808 H 0.63065 0.24284 0.26221 0.0
H809 H 0.60124 0.30977 0.22956 0.0
H810 H 0.59764 0.28621 0.21896 0.0
H811 H 0.62016 0.2987 0.21574 0.0
C812 C 0.60619 0.22278 0.21519 0.0
C813 C 0.6179 0.22484 0.19873 0.0
C814 C 0.60615 0.23689 0.22956 0.0
C815 C 0.61777 0.25338 0.2278 0.0
C816 C 0.62871 0.256 0.21094 0.0
H817 H 0.66566 0.33567 0.30711 0.0
H818 H 0.65403 0.31855 0.27858 0.0
C819 C 0.62868 0.2419 0.19645 0.0
C820 C 0.62039 0.26634 0.24464 0.0
H821 H 0.61766 0.31323 0.25974 0.0
C822 C 0.62756 0.25819 0.26174 0.0
C823 C 0.61656 0.28639 0.24392 0.0
C824 C 0.60831 0.2958 0.22612 0.0
C825 C 0.63144 0.26956 0.278 0.0
C826 C 0.62766 0.28962 0.27731 0.0
C827 C 0.62038 0.29782 0.26026 0.0
C828 C 0.63225 0.30229 0.29392 0.0
C829 C 0.64022 0.26008 0.29555 0.0
C830 C 0.62328 0.29942 0.31186 0.0
C831 C 0.62997 0.30908 0.32826 0.0
C832 C 0.64568 0.3219 0.32697 0.0
C833 C 0.65363 0.3258 0.30868 0.0
C834 C 0.64698 0.31607 0.29232 0.0
H835 H 0.64622 0.24559 0.29218 0.0
H836 H 0.65193 0.26914 0.30168 0.0
H837 H 0.62894 0.25825 0.30677 0.0
H838 H 0.61164 0.28908 0.31332 0.0
H839 H 0.62338 0.30587 0.34206 0.0
H840 H 0.40252 0.70682 0.28283 0.0
H841 H 0.40233 0.73168 0.2579 0.0
H842 H 0.36487 0.76687 0.29302 0.0
H843 H 0.36526 0.74216 0.31827 0.0
H844 H 0.36907 0.74162 0.23961 0.0
H845 H 0.40251 0.80686 0.27182 0.0
H846 H 0.40544 0.78306 0.28207 0.0
H847 H 0.38361 0.79647 0.28619 0.0
C848 C 0.39456 0.72002 0.28547 0.0
C849 C 0.38378 0.72244 0.30249 0.0
C850 C 0.39451 0.73424 0.2712 0.0
C851 C 0.38369 0.75119 0.27362 0.0
C852 C 0.37364 0.75409 0.29098 0.0
H853 H 0.33685 0.83588 0.19591 0.0
H854 H 0.34839 0.81823 0.22416 0.0
C855 C 0.37379 0.73989 0.30537 0.0
C856 C 0.38095 0.76445 0.25703 0.0
H857 H 0.38531 0.81133 0.24223 0.0
C858 C 0.37285 0.75681 0.24011 0.0
C859 C 0.38569 0.78431 0.2578 0.0
C860 C 0.39495 0.79317 0.27538 0.0
C861 C 0.369 0.7685 0.22408 0.0
C862 C 0.37372 0.78835 0.2248 0.0
C863 C 0.38186 0.79606 0.24168 0.0
C864 C 0.36933 0.80132 0.20837 0.0
C865 C 0.3593 0.75959 0.20671 0.0
C866 C 0.3779 0.79825 0.19027 0.0
C867 C 0.37127 0.80823 0.17403 0.0
C868 C 0.35602 0.82155 0.17565 0.0
C869 C 0.34852 0.82563 0.19409 0.0
C870 C 0.35512 0.81559 0.2103 0.0
H871 H 0.35279 0.74533 0.21011 0.0
H872 H 0.34782 0.76921 0.20102 0.0
H873 H 0.37016 0.75742 0.19513 0.0
H874 H 0.38912 0.7875 0.18856 0.0
H875 H 0.37751 0.80485 0.16011 0.0
H876 H 0.13206 0.20279 0.66524 0.0
H877 H 0.12197 0.21741 0.69571 0.0
H878 H 0.15282 0.17348 0.7272 0.0
H879 H 0.16333 0.15895 0.6968 0.0
H880 H 0.10254 0.20473 0.72935 0.0
H881 H 0.17924 0.22358 0.74399 0.0
H882 H 0.17123 0.2149 0.72081 0.0
H883 H 0.17446 0.19834 0.74052 0.0
C884 C 0.13644 0.19602 0.67863 0.0
C885 C 0.14878 0.17988 0.67857 0.0
C886 C 0.13064 0.20439 0.69604 0.0
C887 C 0.137 0.19676 0.71369 0.0
C888 C 0.1481 0.17983 0.71371 0.0
H889 H 0.13715 0.25623 0.82513 0.0
H890 H 0.13796 0.22991 0.80156 0.0
C891 C 0.15403 0.17151 0.69632 0.0
C892 C 0.13339 0.20752 0.73183 0.0
H893 H 0.15632 0.23369 0.76671 0.0
C894 C 0.11428 0.21093 0.73764 0.0
C895 C 0.14876 0.21558 0.74262 0.0
C896 C 0.16958 0.2131 0.73665 0.0
C897 C 0.11012 0.22245 0.75381 0.0
C898 C 0.12548 0.23099 0.76421 0.0
C899 C 0.14458 0.22703 0.75878 0.0
C900 C 0.12225 0.24555 0.77956 0.0
C901 C 0.08934 0.22549 0.75953 0.0
C902 C 0.11292 0.26296 0.77512 0.0
C903 C 0.11247 0.27802 0.78851 0.0
C904 C 0.12147 0.27603 0.8066 0.0
C905 C 0.13007 0.25825 0.81135 0.0
C906 C 0.13055 0.24319 0.7979 0.0
H907 H 0.08008 0.2134 0.7545 0.0
H908 H 0.08783 0.2269 0.77542 0.0
H909 H 0.08395 0.23895 0.75274 0.0
H910 H 0.1068 0.26529 0.76093 0.0
H911 H 0.10571 0.2915 0.78435 0.0
H912 H 0.71832 0.90312 0.79648 0.0
H913 H 0.74316 0.90302 0.77155 0.0
H914 H 0.70913 0.86352 0.73755 0.0
H915 H 0.68398 0.86372 0.76238 0.0
H916 H 0.76214 0.8693 0.7624 0.0
H917 H 0.72938 0.9014 0.69673 0.0
H918 H 0.71935 0.90486 0.72055 0.0
H919 H 0.71529 0.88264 0.70779 0.0
C920 C 0.71588 0.89471 0.78353 0.0
C921 C 0.69922 0.88328 0.78151 0.0
C922 C 0.7301 0.89472 0.76927 0.0
C923 C 0.72797 0.88336 0.75265 0.0
C924 C 0.71092 0.87268 0.75009 0.0
H925 H 0.80585 0.83751 0.66772 0.0
H926 H 0.77761 0.84898 0.68541 0.0
C927 C 0.6966 0.87273 0.76436 0.0
C928 C 0.7446 0.88075 0.73945 0.0
H929 H 0.75942 0.88501 0.69261 0.0
C930 C 0.76162 0.87296 0.74718 0.0
C931 C 0.74379 0.88532 0.71958 0.0
C932 C 0.72603 0.89417 0.71065 0.0
C933 C 0.77773 0.86922 0.73556 0.0
C934 C 0.77699 0.87383 0.71568 0.0
C935 C 0.76 0.88168 0.70789 0.0
C936 C 0.79348 0.86952 0.70274 0.0
C937 C 0.79516 0.85972 0.74457 0.0
C938 C 0.81163 0.87792 0.70601 0.0
C939 C 0.82787 0.87129 0.69603 0.0
C940 C 0.8262 0.85627 0.68248 0.0
C941 C 0.80771 0.849 0.67815 0.0
C942 C 0.79151 0.85556 0.68822 0.0
H943 H 0.7917 0.85307 0.75874 0.0
H944 H 0.80112 0.84837 0.73495 0.0
H945 H 0.80654 0.87074 0.74694 0.0
H946 H 0.81337 0.889 0.7169 0.0
H947 H 0.84184 0.87736 0.69957 0.0
H948 H 0.66197 0.12427 0.19638 0.0
H949 H 0.69078 0.11249 0.21304 0.0
H950 H 0.72523 0.15569 0.18442 0.0
H951 H 0.69664 0.16737 0.16743 0.0
H952 H 0.74445 0.11944 0.18932 0.0
H953 H 0.71127 0.14667 0.25713 0.0
H954 H 0.69694 0.12941 0.24414 0.0
H955 H 0.70185 0.15261 0.23362 0.0
C956 C 0.67573 0.13104 0.19332 0.0
C957 C 0.67692 0.14698 0.1808 0.0
C958 C 0.69216 0.12432 0.2029 0.0
C959 C 0.71003 0.1335 0.20026 0.0
C960 C 0.71155 0.14848 0.18674 0.0
H961 H 0.81941 0.13953 0.25957 0.0
H962 H 0.79422 0.13973 0.23482 0.0
C963 C 0.69515 0.15516 0.17707 0.0
C964 C 0.72661 0.1289 0.21295 0.0
H965 H 0.74136 0.13132 0.25984 0.0
C966 C 0.7438 0.12192 0.20476 0.0
C967 C 0.72575 0.13236 0.23305 0.0
C968 C 0.70805 0.14084 0.24255 0.0
C969 C 0.7601 0.11808 0.21624 0.0
C970 C 0.7592 0.12159 0.23633 0.0
C971 C 0.74197 0.12847 0.24446 0.0
C972 C 0.77597 0.11894 0.24936 0.0
C973 C 0.77806 0.11016 0.20684 0.0
C974 C 0.77421 0.10704 0.26564 0.0
C975 C 0.78844 0.10706 0.27989 0.0
C976 C 0.80475 0.11903 0.27817 0.0
C977 C 0.80706 0.13009 0.2613 0.0
C978 C 0.79272 0.13014 0.24707 0.0
H979 H 0.77479 0.10329 0.19272 0.0
H980 H 0.78834 0.12217 0.20422 0.0
H981 H 0.78525 0.0994 0.21629 0.0
H982 H 0.76139 0.09832 0.26771 0.0
H983 H 0.78625 0.09827 0.29263 0.0
H984 H 0.33617 0.62831 0.3022 0.0
H985 H 0.30535 0.61864 0.28801 0.0
H986 H 0.27495 0.65255 0.33042 0.0
H987 H 0.30569 0.66263 0.3445 0.0
H988 H 0.27082 0.6011 0.30136 0.0
H989 H 0.25945 0.67748 0.27914 0.0
H990 H 0.28226 0.66889 0.28825 0.0
H991 H 0.26267 0.67367 0.30456 0.0
C992 C 0.32293 0.63345 0.30876 0.0
C993 C 0.32342 0.64652 0.32429 0.0
C994 C 0.30532 0.62788 0.30062 0.0
C995 C 0.2879 0.63522 0.3079 0.0
C996 C 0.28826 0.64706 0.32433 0.0
H997 H 0.17693 0.63782 0.2476 0.0
H998 H 0.20025 0.63859 0.27415 0.0
C999 C 0.30586 0.65274 0.33239 0.0
C1000 C 0.26966 0.63189 0.29722 0.0
H1001 H 0.23583 0.65511 0.26995 0.0
C1002 C 0.26305 0.61291 0.29463 0.0
C1003 C 0.25953 0.64734 0.28846 0.0
C1004 C 0.26636 0.66799 0.29006 0.0
C1005 C 0.24673 0.60893 0.28325 0.0
C1006 C 0.23701 0.62433 0.274 0.0
C1007 C 0.24324 0.64334 0.27715 0.0
C1008 C 0.22159 0.62112 0.25949 0.0
C1009 C 0.24015 0.58829 0.28111 0.0
C1010 C 0.22571 0.61079 0.24257 0.0
C1011 C 0.21247 0.61034 0.2274 0.0
C1012 C 0.19485 0.62035 0.22875 0.0
C1013 C 0.19035 0.62994 0.24608 0.0
C1014 C 0.20366 0.6304 0.26127 0.0
H1015 H 0.24467 0.5794 0.29367 0.0
H1016 H 0.22422 0.58738 0.2796 0.0
H1017 H 0.24683 0.58198 0.268 0.0
H1018 H 0.23961 0.60388 0.24067 0.0
H1019 H 0.21642 0.60281 0.21428 0.0
H1020 H 0.32061 0.35956 0.7434 0.0
H1021 H 0.29547 0.35871 0.7683 0.0
H1022 H 0.26392 0.40303 0.73809 0.0
H1023 H 0.28869 0.40376 0.71304 0.0
H1024 H 0.27671 0.3869 0.79303 0.0
H1025 H 0.22765 0.35575 0.73776 0.0
H1026 H 0.25337 0.35758 0.73419 0.0
H1027 H 0.23826 0.37846 0.73115 0.0
C1028 C 0.30851 0.36939 0.74226 0.0
C1029 C 0.30647 0.38149 0.72608 0.0
C1030 C 0.29417 0.36889 0.7565 0.0
C1031 C 0.27767 0.38053 0.75479 0.0
C1032 C 0.27637 0.39367 0.73946 0.0
H1033 H 0.1645 0.37636 0.80764 0.0
H1034 H 0.1936 0.38774 0.79128 0.0
C1035 C 0.29056 0.39407 0.72517 0.0
C1036 C 0.261 0.37767 0.76787 0.0
H1037 H 0.21406 0.36278 0.7681 0.0
C1038 C 0.26299 0.38166 0.78763 0.0
C1039 C 0.24317 0.3707 0.76077 0.0
C1040 C 0.24045 0.36519 0.73985 0.0
C1041 C 0.24743 0.37914 0.80045 0.0
C1042 C 0.22959 0.37225 0.79329 0.0
C1043 C 0.22768 0.36829 0.77353 0.0
C1044 C 0.21286 0.368 0.80593 0.0
C1045 C 0.25013 0.38406 0.82147 0.0
C1046 C 0.2141 0.35348 0.81998 0.0
C1047 C 0.19749 0.34694 0.8294 0.0
C1048 C 0.17928 0.35469 0.82479 0.0
C1049 C 0.17826 0.37002 0.81152 0.0
C1050 C 0.19488 0.37656 0.80214 0.0
H1051 H 0.26244 0.39412 0.82365 0.0
H1052 H 0.23688 0.39069 0.82759 0.0
H1053 H 0.25322 0.37064 0.82965 0.0
H1054 H 0.22774 0.3464 0.82289 0.0
H1055 H 0.19882 0.33511 0.83953 0.0
H1056 H 0.75689 0.67743 0.86964 0.0
H1057 H 0.73033 0.70079 0.86929 0.0
H1058 H 0.76716 0.74327 0.89596 0.0
H1059 H 0.7936 0.72007 0.8967 0.0
H1060 H 0.72885 0.74389 0.91 0.0
H1061 H 0.73205 0.74485 0.82971 0.0
H1062 H 0.72777 0.72172 0.84063 0.0
H1063 H 0.75052 0.73363 0.84421 0.0
C1064 C 0.75925 0.69164 0.87572 0.0
C1065 C 0.77747 0.69695 0.88294 0.0
C1066 C 0.74407 0.70499 0.87543 0.0
C1067 C 0.74691 0.72387 0.88227 0.0
C1068 C 0.76469 0.72881 0.89053 0.0
H1069 H 0.70202 0.83788 0.87684 0.0
H1070 H 0.7167 0.80751 0.88704 0.0
C1071 C 0.77982 0.71551 0.89087 0.0
C1072 C 0.73208 0.73905 0.87947 0.0
H1073 H 0.71057 0.76627 0.84453 0.0
C1074 C 0.72465 0.74866 0.8957 0.0
C1075 C 0.72667 0.74527 0.86079 0.0
C1076 C 0.73473 0.73598 0.8428 0.0
C1077 C 0.7122 0.76457 0.89373 0.0
C1078 C 0.70736 0.7712 0.87504 0.0
C1079 C 0.71425 0.76114 0.85885 0.0
C1080 C 0.69645 0.78933 0.87168 0.0
C1081 C 0.70447 0.77419 0.91165 0.0
C1082 C 0.68005 0.78926 0.8598 0.0
C1083 C 0.67174 0.80662 0.85377 0.0
C1084 C 0.67971 0.82443 0.85945 0.0
C1085 C 0.69546 0.82445 0.87225 0.0
C1086 C 0.70382 0.80706 0.87821 0.0
H1087 H 0.70414 0.76401 0.92404 0.0
H1088 H 0.71405 0.7864 0.91561 0.0
H1089 H 0.6897 0.77993 0.90928 0.0
H1090 H 0.67416 0.77576 0.85454 0.0
H1091 H 0.65957 0.80606 0.84398 0.0
H1092 H 0.19662 0.66233 0.12674 0.0
H1093 H 0.2133 0.691 0.11466 0.0
H1094 H 0.18358 0.72619 0.15649 0.0
H1095 H 0.16653 0.69772 0.16844 0.0
H1096 H 0.18871 0.74465 0.12021 0.0
H1097 H 0.25676 0.71291 0.14844 0.0
H1098 H 0.2442 0.69802 0.13136 0.0
H1099 H 0.23334 0.70322 0.15434 0.0
C1100 C 0.19335 0.67621 0.13316 0.0
C1101 C 0.18045 0.67766 0.14877 0.0
C1102 C 0.20295 0.69257 0.12627 0.0
C1103 C 0.19998 0.71063 0.13498 0.0
C1104 C 0.18615 0.71236 0.14965 0.0
H1105 H 0.25865 0.82062 0.13855 0.0
H1106 H 0.23402 0.7953 0.13947 0.0
C1107 C 0.17645 0.69604 0.15648 0.0
C1108 C 0.21251 0.72727 0.1301 0.0
H1109 H 0.25926 0.74258 0.13216 0.0
C1110 C 0.20415 0.74422 0.12272 0.0
C1111 C 0.23262 0.72671 0.13361 0.0
C1112 C 0.24229 0.70933 0.14254 0.0
C1113 C 0.21547 0.76056 0.11852 0.0
C1114 C 0.23557 0.75993 0.12202 0.0
C1115 C 0.24387 0.74296 0.12932 0.0
C1116 C 0.24844 0.77675 0.11888 0.0
C1117 C 0.2059 0.77825 0.11021 0.0
C1118 C 0.26459 0.77486 0.10682 0.0
C1119 C 0.27875 0.78919 0.1064 0.0
C1120 C 0.27709 0.8057 0.1181 0.0
C1121 C 0.26033 0.80812 0.12931 0.0
C1122 C 0.24617 0.79369 0.12978 0.0
H1123 H 0.19171 0.77475 0.10361 0.0
H1124 H 0.20341 0.78887 0.12193 0.0
H1125 H 0.21521 0.78515 0.09914 0.0
H1126 H 0.26664 0.76189 0.09832 0.0
H1127 H 0.2914 0.78691 0.0975 0.0
H1128 H 0.30103 0.33807 0.63065 0.0
H1129 H 0.28618 0.30773 0.62036 0.0
H1130 H 0.33069 0.27572 0.64978 0.0
H1131 H 0.34549 0.30594 0.66041 0.0
H1132 H 0.29889 0.27379 0.60027 0.0
H1133 H 0.28061 0.25928 0.67714 0.0
H1134 H 0.28906 0.28251 0.66898 0.0
H1135 H 0.30577 0.26292 0.67207 0.0
C1136 C 0.30789 0.3246 0.63464 0.0
C1137 C 0.32427 0.32445 0.64663 0.0
C1138 C 0.29939 0.30727 0.62873 0.0
C1139 C 0.30712 0.2895 0.63466 0.0
C1140 C 0.32429 0.28929 0.64538 0.0
H1141 H 0.24673 0.17845 0.63598 0.0
H1142 H 0.2733 0.20177 0.63658 0.0
C1143 C 0.33275 0.3066 0.65138 0.0
C1144 C 0.29624 0.27141 0.63113 0.0
H1145 H 0.27016 0.23663 0.65432 0.0
C1146 C 0.29274 0.26554 0.61207 0.0
C1147 C 0.28826 0.26066 0.64657 0.0
C1148 C 0.29094 0.26667 0.66735 0.0
C1149 C 0.28121 0.24933 0.60802 0.0
C1150 C 0.27271 0.23899 0.62346 0.0
C1151 C 0.27677 0.2445 0.64251 0.0
C1152 C 0.25805 0.22368 0.62035 0.0
C1153 C 0.27816 0.24351 0.58728 0.0
C1154 C 0.24077 0.22812 0.61079 0.0
C1155 C 0.2256 0.21486 0.61042 0.0
C1156 C 0.2273 0.19691 0.61977 0.0
C1157 C 0.24494 0.19212 0.62862 0.0
C1158 C 0.26014 0.20544 0.62898 0.0
H1159 H 0.29038 0.24827 0.57805 0.0
H1160 H 0.27648 0.22763 0.58585 0.0
H1161 H 0.26486 0.25053 0.58176 0.0
H1162 H 0.23862 0.24223 0.60442 0.0
H1163 H 0.21224 0.21905 0.60347 0.0
H1164 H 0.70878 0.28625 0.40635 0.0
H1165 H 0.73357 0.26123 0.40632 0.0
H1166 H 0.76722 0.29442 0.36581 0.0
H1167 H 0.7426 0.31974 0.36599 0.0
H1168 H 0.74179 0.24155 0.37327 0.0
H1169 H 0.80872 0.27433 0.40246 0.0
H1170 H 0.78516 0.28488 0.40615 0.0
H1171 H 0.79758 0.28818 0.38361 0.0
C1172 C 0.72166 0.28847 0.39776 0.0
C1173 C 0.72363 0.30493 0.38604 0.0
C1174 C 0.73583 0.27415 0.3978 0.0
C1175 C 0.75229 0.27598 0.38615 0.0
C1176 C 0.75482 0.29286 0.37521 0.0
H1177 H 0.83456 0.19748 0.33719 0.0
H1178 H 0.81738 0.2258 0.34924 0.0
C1179 C 0.74067 0.30729 0.37525 0.0
C1180 C 0.76527 0.25917 0.38346 0.0
H1181 H 0.81223 0.24426 0.38576 0.0
C1182 C 0.75716 0.24206 0.37626 0.0
C1183 C 0.78533 0.25996 0.38716 0.0
C1184 C 0.79472 0.27777 0.39543 0.0
C1185 C 0.76856 0.22587 0.3722 0.0
C1186 C 0.78864 0.22664 0.37582 0.0
C1187 C 0.79681 0.24369 0.38315 0.0
C1188 C 0.80135 0.21013 0.37097 0.0
C1189 C 0.7591 0.20833 0.36336 0.0
C1190 C 0.79865 0.19208 0.37976 0.0
C1191 C 0.80834 0.17579 0.37282 0.0
C1192 C 0.82103 0.17732 0.35704 0.0
C1193 C 0.82479 0.19572 0.34926 0.0
C1194 C 0.81502 0.21197 0.35616 0.0
H1195 H 0.74455 0.21167 0.35751 0.0
H1196 H 0.76809 0.20232 0.35154 0.0
H1197 H 0.75742 0.19701 0.37457 0.0
H1198 H 0.78841 0.19044 0.39146 0.0
H1199 H 0.80525 0.16189 0.37929 0.0
H1200 H 0.1512 0.14096 0.56576 0.0
H1201 H 0.14345 0.13987 0.53127 0.0
H1202 H 0.12818 0.20021 0.5327 0.0
H1203 H 0.13548 0.20135 0.56713 0.0
H1204 H 0.10385 0.17846 0.50907 0.0
H1205 H 0.18128 0.16443 0.49318 0.0
H1206 H 0.16984 0.14702 0.50861 0.0
H1207 H 0.17295 0.17143 0.51682 0.0
C1208 C 0.14586 0.1539 0.5588 0.0
C1209 C 0.14418 0.1713 0.56913 0.0
C1210 C 0.14154 0.15328 0.53908 0.0
C1211 C 0.13564 0.17006 0.52936 0.0
C1212 C 0.13281 0.18711 0.5399 0.0
H1213 H 0.15306 0.20528 0.41262 0.0
H1214 H 0.15174 0.20072 0.4475 0.0
C1215 C 0.13704 0.18774 0.55959 0.0
C1216 C 0.13384 0.17044 0.50803 0.0
H1217 H 0.16034 0.16693 0.46665 0.0
C1218 C 0.11613 0.17578 0.49975 0.0
C1219 C 0.14999 0.16721 0.49595 0.0
C1220 C 0.16965 0.16236 0.50402 0.0
C1221 C 0.1142 0.17823 0.4797 0.0
C1222 C 0.13037 0.175 0.46765 0.0
C1223 C 0.14796 0.16933 0.47593 0.0
C1224 C 0.12983 0.17849 0.44654 0.0
C1225 C 0.09513 0.18496 0.47164 0.0
C1226 C 0.11779 0.16761 0.43439 0.0
C1227 C 0.11843 0.17027 0.41436 0.0
C1228 C 0.13126 0.18371 0.40617 0.0
C1229 C 0.14303 0.19479 0.41843 0.0
C1230 C 0.14232 0.19218 0.43839 0.0
H1231 H 0.08552 0.19079 0.48308 0.0
H1232 H 0.09733 0.19628 0.46051 0.0
H1233 H 0.08768 0.17258 0.46472 0.0
H1234 H 0.10828 0.15673 0.44035 0.0
H1235 H 0.10926 0.16143 0.40529 0.0
H1236 H 0.36911 0.80413 0.0648 0.0
H1237 H 0.37699 0.8055 0.03056 0.0
H1238 H 0.35964 0.86528 0.02876 0.0
H1239 H 0.35133 0.86393 0.0631 0.0
H1240 H 0.3419 0.84414 0.00141 0.0
H1241 H 0.42012 0.82867 0.99895 0.0
H1242 H 0.40729 0.811 0.01285 0.0
H1243 H 0.40795 0.83571 0.0209 0.0
C1244 C 0.36732 0.81771 0.05725 0.0
C1245 C 0.35951 0.83391 0.06668 0.0
C1246 C 0.37199 0.8185 0.03766 0.0
C1247 C 0.36915 0.83555 0.02711 0.0
C1248 C 0.36207 0.85199 0.03665 0.0
H1249 H 0.39469 0.84205 0.90286 0.0
H1250 H 0.3954 0.8478 0.93779 0.0
C1251 C 0.35735 0.85121 0.05628 0.0
C1252 C 0.37144 0.83545 0.00581 0.0
H1253 H 0.40236 0.82274 0.96954 0.0
C1254 C 0.35523 0.83975 0.99445 0.0
C1255 C 0.38886 0.82991 0.99668 0.0
C1256 C 0.40709 0.82626 0.00798 0.0
C1257 C 0.35569 0.8378 0.97431 0.0
C1258 C 0.37271 0.83102 0.9653 0.0
C1259 C 0.38923 0.82763 0.97652 0.0
C1260 C 0.37329 0.82675 0.94435 0.0
C1261 C 0.33786 0.84286 0.96287 0.0
C1262 C 0.36105 0.81261 0.93657 0.0
C1263 C 0.3606 0.8093 0.9167 0.0
C1264 C 0.37249 0.81999 0.9042 0.0
C1265 C 0.38532 0.83361 0.9121 0.0
C1266 C 0.38574 0.83693 0.93203 0.0
H1267 H 0.32827 0.85284 0.97098 0.0
H1268 H 0.34171 0.84967 0.94888 0.0
H1269 H 0.32958 0.82948 0.95984 0.0
H1270 H 0.35162 0.80431 0.94588 0.0
H1271 H 0.35065 0.7986 0.91113 0.0
H1272 H 0.6308 0.30479 0.43779 0.0
H1273 H 0.62293 0.30629 0.47202 0.0
H1274 H 0.64168 0.36564 0.47394 0.0
H1275 H 0.64998 0.36415 0.43961 0.0
H1276 H 0.65904 0.34404 0.50111 0.0
H1277 H 0.58052 0.33027 0.50396 0.0
H1278 H 0.59287 0.31236 0.48994 0.0
H1279 H 0.59273 0.3371 0.48197 0.0
C1280 C 0.63288 0.31831 0.44536 0.0
C1281 C 0.6411 0.33433 0.43597 0.0
C1282 C 0.62822 0.31918 0.46495 0.0
C1283 C 0.63148 0.33614 0.47553 0.0
C1284 C 0.63893 0.35243 0.46602 0.0
H1285 H 0.60726 0.34266 0.60008 0.0
H1286 H 0.60623 0.34855 0.56518 0.0
C1287 C 0.64364 0.35157 0.4464 0.0
C1288 C 0.6293 0.33601 0.49685 0.0
H1289 H 0.59834 0.32375 0.53324 0.0
C1290 C 0.64567 0.3399 0.50813 0.0
C1291 C 0.61182 0.33079 0.50606 0.0
C1292 C 0.59344 0.32759 0.49485 0.0
C1293 C 0.64529 0.33784 0.52826 0.0
C1294 C 0.62819 0.33136 0.53733 0.0
C1295 C 0.61153 0.3284 0.52621 0.0
C1296 C 0.62768 0.32694 0.55826 0.0
C1297 C 0.6633 0.34242 0.53961 0.0
C1298 C 0.63962 0.31244 0.56581 0.0
C1299 C 0.64025 0.30905 0.58566 0.0
C1300 C 0.62884 0.32002 0.59836 0.0
C1301 C 0.61626 0.334 0.59069 0.0
C1302 C 0.61565 0.33739 0.57077 0.0
H1303 H 0.67307 0.35222 0.53149 0.0
H1304 H 0.65969 0.34925 0.55366 0.0
H1305 H 0.67128 0.32884 0.54254 0.0
H1306 H 0.64871 0.30394 0.55635 0.0
H1307 H 0.65 0.29808 0.59106 0.0
H1308 H 0.8939 0.66294 0.09702 0.0
H1309 H 0.89502 0.65782 0.06203 0.0
H1310 H 0.85356 0.70355 0.05398 0.0
H1311 H 0.85212 0.70856 0.0888 0.0
H1312 H 0.84359 0.66976 0.03537 0.0
H1313 H 0.91939 0.6902 0.01881 0.0
H1314 H 0.91641 0.67247 0.03752 0.0
H1315 H 0.90772 0.69662 0.04121 0.0
C1316 C 0.88523 0.67208 0.08776 0.0
C1317 C 0.87289 0.68613 0.09569 0.0
C1318 C 0.88595 0.66918 0.06777 0.0
C1319 C 0.87448 0.6804 0.05539 0.0
C1320 C 0.86254 0.69473 0.06327 0.0
H1321 H 0.86999 0.70063 0.93415 0.0
H1322 H 0.87717 0.70014 0.96862 0.0
C1323 C 0.86176 0.69759 0.08319 0.0
C1324 C 0.87387 0.67658 0.03433 0.0
H1325 H 0.90068 0.67805 0.99297 0.0
C1326 C 0.85609 0.67145 0.0261 0.0
C1327 C 0.8902 0.67889 0.0223 0.0
C1328 C 0.9095 0.685 0.03031 0.0
C1329 C 0.85406 0.66896 0.00612 0.0
C1330 C 0.87038 0.67125 0.99405 0.0
C1331 C 0.88826 0.67608 0.0023 0.0
C1332 C 0.86866 0.67037 0.97273 0.0
C1333 C 0.83426 0.66471 0.99806 0.0
C1334 C 0.8622 0.65355 0.96343 0.0
C1335 C 0.85796 0.6538 0.94368 0.0
C1336 C 0.86025 0.67086 0.93291 0.0
C1337 C 0.86795 0.68728 0.94204 0.0
C1338 C 0.87211 0.68703 0.96175 0.0
H1339 H 0.82267 0.66749 0.00878 0.0
H1340 H 0.83139 0.67359 0.98503 0.0
H1341 H 0.83348 0.64928 0.99383 0.0
H1342 H 0.8598 0.64043 0.97158 0.0
H1343 H 0.85219 0.64087 0.93706 0.0
H1344 H 0.40378 0.10819 0.16096 0.0
H1345 H 0.43882 0.10717 0.15625 0.0
H1346 H 0.44624 0.14847 0.20223 0.0
H1347 H 0.41135 0.14981 0.20682 0.0
H1348 H 0.4651 0.15872 0.16869 0.0
H1349 H 0.48189 0.08287 0.18881 0.0
H1350 H 0.46332 0.08581 0.17095 0.0
H1351 H 0.45937 0.09438 0.19509 0.0
C1352 C 0.4129 0.11684 0.17025 0.0
C1353 C 0.40478 0.12911 0.18425 0.0
C1354 C 0.43293 0.11618 0.16759 0.0
C1355 C 0.44515 0.12764 0.17898 0.0
C1356 C 0.43708 0.1395 0.19328 0.0
H1357 H 0.56625 0.13258 0.1999 0.0
H1358 H 0.53181 0.12524 0.19917 0.0
C1359 C 0.41711 0.14022 0.19591 0.0
C1360 C 0.46623 0.12839 0.17534 0.0
H1361 H 0.5077 0.10174 0.17682 0.0
C1362 C 0.47442 0.14624 0.17036 0.0
C1363 C 0.47833 0.11209 0.17761 0.0
C1364 C 0.47037 0.09271 0.18356 0.0
C1365 C 0.4944 0.14837 0.16797 0.0
C1366 C 0.50653 0.13209 0.1702 0.0
C1367 C 0.49834 0.11414 0.17489 0.0
C1368 C 0.52785 0.13391 0.16945 0.0
C1369 C 0.5024 0.16824 0.16386 0.0
C1370 C 0.53721 0.14051 0.15273 0.0
C1371 C 0.55695 0.14484 0.15312 0.0
C1372 C 0.56763 0.1425 0.17021 0.0
C1373 C 0.55843 0.13466 0.18653 0.0
C1374 C 0.53874 0.13041 0.18613 0.0
H1375 H 0.49161 0.17977 0.16665 0.0
H1376 H 0.51537 0.17113 0.17283 0.0
H1377 H 0.50671 0.16912 0.14847 0.0
H1378 H 0.52913 0.14295 0.13958 0.0
H1379 H 0.56363 0.15073 0.14027 0.0
H1380 H 0.93741 0.86605 0.70032 0.0
H1381 H 0.97167 0.87376 0.69863 0.0
H1382 H 0.97255 0.85766 0.63852 0.0
H1383 H 0.93817 0.84952 0.64018 0.0
H1384 H 1.00031 0.83954 0.65887 0.0
H1385 H 0.00278 0.91748 0.67581 0.0
H1386 H 0.98915 0.90427 0.69342 0.0
H1387 H 0.98076 0.90538 0.66885 0.0
C1388 C 0.94476 0.86448 0.68662 0.0
C1389 C 0.93506 0.8571 0.67039 0.0
C1390 C 0.96436 0.86906 0.68564 0.0
C1391 C 0.97465 0.86656 0.66839 0.0
C1392 C 0.96486 0.85983 0.65195 0.0
H1393 H 0.09878 0.89282 0.66127 0.0
H1394 H 0.06381 0.8934 0.65569 0.0
C1395 C 0.94521 0.85521 0.65292 0.0
C1396 C 0.99595 0.86889 0.66821 0.0
H1397 H 0.03231 0.89967 0.68103 0.0
C1398 C 0.00729 0.8528 0.66342 0.0
C1399 C 0.00512 0.88624 0.67395 0.0
C1400 C 0.99381 0.90438 0.6781 0.0
C1401 C 0.02746 0.85328 0.66511 0.0
C1402 C 0.03651 0.87019 0.67212 0.0
C1403 C 0.0253 0.88661 0.67597 0.0
C1404 C 0.05751 0.87072 0.67621 0.0
C1405 C 0.03888 0.83557 0.65955 0.0
C1406 C 0.06544 0.85819 0.68999 0.0
C1407 C 0.08532 0.85781 0.6932 0.0
C1408 C 0.0977 0.87007 0.68278 0.0
C1409 C 0.08964 0.88316 0.6695 0.0
C1410 C 0.06969 0.88351 0.66628 0.0
H1411 H 0.03069 0.82621 0.64943 0.0
H1412 H 0.05281 0.83959 0.65272 0.0
H1413 H 0.04203 0.82699 0.6727 0.0
H1414 H 0.05624 0.8485 0.69811 0.0
H1415 H 0.09101 0.84765 0.70364 0.0
H1416 H 0.06195 0.3383 0.85775 0.0
H1417 H 0.0274 0.3454 0.85619 0.0
H1418 H 0.03769 0.38562 0.80978 0.0
H1419 H 0.07212 0.37785 0.81065 0.0
H1420 H 0.00421 0.37581 0.85955 0.0
H1421 H 1.00121 0.34905 0.78416 0.0
H1422 H 0.02247 0.34666 0.79891 0.0
H1423 H 0.01715 0.36922 0.78713 0.0
C1424 C 0.05688 0.34886 0.84741 0.0
C1425 C 0.06967 0.35731 0.83413 0.0
C1426 C 0.03711 0.3529 0.84651 0.0
C1427 C 0.02985 0.36562 0.83248 0.0
C1428 C 0.04285 0.37526 0.82027 0.0
H1429 H 0.90631 0.39681 0.83092 0.0
H1430 H 0.94149 0.39853 0.83441 0.0
C1431 C 0.06255 0.37093 0.8209 0.0
C1432 C 0.00866 0.36777 0.82988 0.0
H1433 H 0.97249 0.36209 0.79689 0.0
C1434 C 0.99725 0.37285 0.84585 0.0
C1435 C 0.99955 0.3636 0.81205 0.0
C1436 C 0.01068 0.35664 0.79464 0.0
C1437 C 0.97701 0.37367 0.84456 0.0
C1438 C 0.96796 0.3699 0.82662 0.0
C1439 C 0.97942 0.36513 0.8106 0.0
C1440 C 0.94663 0.36938 0.82432 0.0
C1441 C 0.96555 0.37777 0.86261 0.0
C1442 C 0.93783 0.35273 0.81681 0.0
C1443 C 0.91786 0.35191 0.81436 0.0
C1444 C 0.90617 0.36765 0.81954 0.0
C1445 C 0.91494 0.3844 0.82693 0.0
C1446 C 0.93503 0.38533 0.82909 0.0
H1447 H 0.97419 0.37515 0.87586 0.0
H1448 H 0.96109 0.39316 0.86265 0.0
H1449 H 0.95235 0.3687 0.86327 0.0
H1450 H 0.94643 0.34024 0.81297 0.0
H1451 H 0.91156 0.33876 0.8087 0.0
H1452 H 0.44116 0.65997 0.35552 0.0
H1453 H 0.47568 0.65279 0.35404 0.0
H1454 H 0.46539 0.61245 0.30772 0.0
H1455 H 0.43096 0.62031 0.30852 0.0
H1456 H 0.49885 0.62247 0.35752 0.0
H1457 H 0.5019 0.64888 0.28199 0.0
H1458 H 0.48061 0.6513 0.2967 0.0
H1459 H 0.48604 0.62867 0.2851 0.0
C1460 C 0.44621 0.64935 0.34522 0.0
C1461 C 0.43342 0.64091 0.33194 0.0
C1462 C 0.46596 0.64527 0.34436 0.0
C1463 C 0.47323 0.63251 0.33038 0.0
C1464 C 0.46023 0.62285 0.31819 0.0
H1465 H 0.59738 0.60318 0.32968 0.0
H1466 H 0.5622 0.60064 0.33272 0.0
C1467 C 0.44053 0.62722 0.31877 0.0
C1468 C 0.49444 0.63037 0.3278 0.0
H1469 H 0.5307 0.63636 0.29496 0.0
C1470 C 0.50583 0.62544 0.34383 0.0
C1471 C 0.50358 0.63456 0.30999 0.0
C1472 C 0.49245 0.64133 0.29252 0.0
C1473 C 0.52609 0.62486 0.34263 0.0
C1474 C 0.53518 0.62872 0.32472 0.0
C1475 C 0.52374 0.63326 0.30863 0.0
C1476 C 0.55652 0.62967 0.32257 0.0
C1477 C 0.53752 0.62097 0.36075 0.0
C1478 C 0.56503 0.64651 0.31515 0.0
C1479 C 0.58501 0.6478 0.31297 0.0
C1480 C 0.597 0.63234 0.31832 0.0
C1481 C 0.58851 0.61538 0.32557 0.0
C1482 C 0.56842 0.61398 0.32748 0.0
H1483 H 0.52874 0.6234 0.37395 0.0
H1484 H 0.54228 0.60567 0.36079 0.0
H1485 H 0.55052 0.6303 0.36149 0.0
H1486 H 0.5562 0.6588 0.31123 0.0
H1487 H 0.59107 0.6611 0.30741 0.0
H1488 H 0.2047 0.41316 0.15384 0.0
H1489 H 0.19892 0.44791 0.15288 0.0
H1490 H 0.15586 0.43978 0.10872 0.0
H1491 H 0.16167 0.40483 0.10944 0.0
H1492 H 0.18106 0.47179 0.10219 0.0
H1493 H 0.14986 0.47258 0.17582 0.0
H1494 H 0.17322 0.46143 0.17473 0.0
H1495 H 0.15322 0.45059 0.16224 0.0
C1496 C 0.19409 0.41872 0.1438 0.0
C1497 C 0.18353 0.4062 0.13182 0.0
C1498 C 0.19074 0.43859 0.14335 0.0
C1499 C 0.17669 0.44635 0.13102 0.0
C1500 C 0.16666 0.43403 0.11845 0.0
H1501 H 0.13914 0.565 0.15331 0.0
H1502 H 0.13789 0.5307 0.14475 0.0
C1503 C 0.17001 0.41409 0.11888 0.0
C1504 C 0.17232 0.46729 0.13167 0.0
H1505 H 0.15872 0.50314 0.16257 0.0
C1506 C 0.17595 0.47866 0.1153 0.0
C1507 C 0.16527 0.47616 0.14865 0.0
C1508 C 0.15997 0.46455 0.16631 0.0
C1509 C 0.17367 0.49882 0.11581 0.0
C1510 C 0.16787 0.50781 0.13322 0.0
C1511 C 0.16331 0.4963 0.14926 0.0
C1512 C 0.16775 0.5291 0.1357 0.0
C1513 C 0.17761 0.5103 0.09774 0.0
C1514 C 0.18486 0.53966 0.13322 0.0
C1515 C 0.18559 0.55922 0.13804 0.0
C1516 C 0.16928 0.56861 0.14564 0.0
C1517 C 0.15195 0.55821 0.14747 0.0
C1518 C 0.15122 0.5386 0.1426 0.0
H1519 H 0.1754 0.50138 0.08459 0.0
H1520 H 0.16818 0.52323 0.09686 0.0
H1521 H 0.19287 0.51516 0.09782 0.0
H1522 H 0.19793 0.53258 0.12838 0.0
H1523 H 0.1992 0.56677 0.13653 0.0
H1524 H 0.69924 0.93617 0.87345 0.0
H1525 H 0.69745 0.97052 0.88081 0.0
H1526 H 0.6379 0.9715 0.86272 0.0
H1527 H 0.63969 0.93705 0.8549 0.0
H1528 H 0.6588 0.99872 0.84481 0.0
H1529 H 0.67371 0.00276 0.92304 0.0
H1530 H 0.69167 0.98888 0.91061 0.0
H1531 H 0.66707 0.98049 0.91122 0.0
C1532 C 0.68562 0.94356 0.87141 0.0
C1533 C 0.66962 0.93387 0.86351 0.0
C1534 C 0.68458 0.96322 0.87578 0.0
C1535 C 0.66748 0.97358 0.87256 0.0
C1536 C 0.65122 0.96377 0.86543 0.0
H1537 H 0.65952 0.09825 0.89592 0.0
H1538 H 0.65423 0.06325 0.89725 0.0
C1539 C 0.65226 0.94407 0.86099 0.0
C1540 C 0.66736 0.99494 0.87446 0.0
H1541 H 0.67948 0.03193 0.90477 0.0
C1542 C 0.66303 0.00596 0.85802 0.0
C1543 C 0.67269 0.00446 0.89174 0.0
C1544 C 0.67635 0.99352 0.9102 0.0
C1545 C 0.66474 0.02614 0.85813 0.0
C1546 C 0.67132 0.03554 0.87501 0.0
C1547 C 0.67475 0.02465 0.89175 0.0
C1548 C 0.67534 0.05657 0.87523 0.0
C1549 C 0.65962 0.0372 0.84007 0.0
C1550 C 0.68936 0.06432 0.86285 0.0
C1551 C 0.69239 0.08424 0.86203 0.0
C1552 C 0.68156 0.09681 0.87371 0.0
C1553 C 0.66806 0.08895 0.8867 0.0
C1554 C 0.66501 0.06897 0.88748 0.0
H1555 H 0.64974 0.0288 0.83063 0.0
H1556 H 0.65267 0.0512 0.84363 0.0
H1557 H 0.67298 0.0402 0.83177 0.0
H1558 H 0.69778 0.05496 0.85358 0.0
H1559 H 0.703 0.08978 0.85198 0.0
H1560 H 0.86278 0.06442 0.35227 0.0
H1561 H 0.86372 0.02989 0.35994 0.0
H1562 H 0.80404 0.03206 0.37746 0.0
H1563 H 0.80305 0.06651 0.37021 0.0
H1564 H 0.82664 0.00813 0.40103 0.0
H1565 H 0.83696 0.99215 0.32303 0.0
H1566 H 0.85498 0.00743 0.33371 0.0
H1567 H 0.83053 0.01585 0.33168 0.0
C1568 C 0.84996 0.05762 0.35809 0.0
C1569 C 0.83277 0.06816 0.3604 0.0
C1570 C 0.8505 0.03787 0.36236 0.0
C1571 C 0.83383 0.02835 0.3689 0.0
C1572 C 0.81704 0.0391 0.37235 0.0
H1573 H 0.79695 0.91169 0.3531 0.0
H1574 H 0.80146 0.94661 0.35442 0.0
C1575 C 0.8165 0.05881 0.36814 0.0
C1576 C 0.83325 0.00702 0.3707 0.0
H1577 H 0.83502 0.96561 0.34405 0.0
C1578 C 0.82863 0.99878 0.38864 0.0
C1579 C 0.83557 0.99492 0.35441 0.0
C1580 C 0.83963 0.00297 0.33457 0.0
C1581 C 0.82605 0.97874 0.39067 0.0
C1582 C 0.82838 0.96668 0.37437 0.0
C1583 C 0.8333 0.97491 0.35653 0.0
C1584 C 0.82483 0.94557 0.37509 0.0
C1585 C 0.82018 0.97072 0.41003 0.0
C1586 C 0.83635 0.93338 0.38647 0.0
C1587 C 0.83374 0.91333 0.38582 0.0
C1588 C 0.81969 0.90517 0.37364 0.0
C1589 C 0.80792 0.91748 0.36262 0.0
C1590 C 0.81049 0.93746 0.36333 0.0
H1591 H 0.81494 0.98221 0.41993 0.0
H1592 H 0.80866 0.9597 0.40837 0.0
H1593 H 0.83282 0.96366 0.41686 0.0
H1594 H 0.84771 0.93931 0.39541 0.0
H1595 H 0.84311 0.90423 0.3944 0.0
H1596 H 0.36315 0.43771 0.65144 0.0
H1597 H 0.36393 0.47225 0.64376 0.0
H1598 H 0.30396 0.47003 0.62731 0.0
H1599 H 0.30313 0.43557 0.63457 0.0
H1600 H 0.32596 0.49378 0.60324 0.0
H1601 H 0.33812 0.51037 0.68083 0.0
H1602 H 0.35591 0.49501 0.66988 0.0
H1603 H 0.33152 0.4866 0.67252 0.0
C1604 C 0.35023 0.44451 0.64587 0.0
C1605 C 0.33302 0.43393 0.64383 0.0
C1606 C 0.35067 0.46427 0.6416 0.0
C1607 C 0.33389 0.47378 0.63534 0.0
C1608 C 0.31704 0.463 0.63221 0.0
H1609 H 0.29792 0.59086 0.65096 0.0
H1610 H 0.30235 0.55592 0.65003 0.0
C1611 C 0.3166 0.44329 0.63641 0.0
C1612 C 0.3333 0.49511 0.6334 0.0
H1613 H 0.3359 0.53676 0.65963 0.0
C1614 C 0.32829 0.50322 0.61551 0.0
C1615 C 0.33605 0.50735 0.64951 0.0
C1616 C 0.34054 0.49946 0.66932 0.0
C1617 C 0.32575 0.52326 0.61336 0.0
C1618 C 0.32854 0.53547 0.62948 0.0
C1619 C 0.33383 0.52736 0.64727 0.0
C1620 C 0.32508 0.5566 0.62864 0.0
C1621 C 0.31943 0.53111 0.59407 0.0
C1622 C 0.33627 0.56861 0.61675 0.0
C1623 C 0.3337 0.58868 0.61717 0.0
C1624 C 0.32001 0.59705 0.62962 0.0
C1625 C 0.3086 0.58491 0.64121 0.0
C1626 C 0.31113 0.56492 0.64073 0.0
H1627 H 0.31381 0.51957 0.58446 0.0
H1628 H 0.30806 0.54227 0.59591 0.0
H1629 H 0.33195 0.53797 0.58681 0.0
H1630 H 0.34735 0.56254 0.60755 0.0
H1631 H 0.3428 0.59763 0.60815 0.0
H1632 H 0.88176 0.80794 0.43137 0.0
H1633 H 0.88943 0.80735 0.46583 0.0
H1634 H 0.84931 0.85398 0.4756 0.0
H1635 H 0.84231 0.85525 0.44104 0.0
H1636 H 0.87959 0.85744 0.49888 0.0
H1637 H 0.85262 0.78209 0.50231 0.0
H1638 H 0.87289 0.78494 0.4865 0.0
H1639 H 0.85038 0.79669 0.48093 0.0
C1640 C 0.87486 0.8183 0.44083 0.0
C1641 C 0.86127 0.8315 0.43357 0.0
C1642 C 0.87913 0.81784 0.46055 0.0
C1643 C 0.86947 0.83018 0.47341 0.0
C1644 C 0.85683 0.84419 0.46599 0.0
H1645 H 0.84089 0.80778 0.59144 0.0
H1646 H 0.84297 0.81166 0.55656 0.0
C1647 C 0.85284 0.84492 0.44622 0.0
C1648 C 0.87149 0.82774 0.49463 0.0
H1649 H 0.86521 0.79513 0.53105 0.0
C1650 C 0.8765 0.84381 0.50594 0.0
C1651 C 0.86715 0.81 0.50386 0.0
C1652 C 0.86027 0.7925 0.49282 0.0
C1653 C 0.87705 0.84272 0.52619 0.0
C1654 C 0.87306 0.82488 0.53537 0.0
C1655 C 0.86841 0.80875 0.52402 0.0
C1656 C 0.87217 0.82282 0.55671 0.0
C1657 C 0.88106 0.86089 0.53753 0.0
C1658 C 0.88795 0.82764 0.56851 0.0
C1659 C 0.88667 0.8257 0.5886 0.0
C1660 C 0.86974 0.81851 0.59718 0.0
C1661 C 0.85416 0.8133 0.58529 0.0
C1662 C 0.85534 0.81552 0.56532 0.0
H1663 H 0.87866 0.87406 0.5287 0.0
H1664 H 0.87178 0.86173 0.55056 0.0
H1665 H 0.89637 0.86088 0.54223 0.0
H1666 H 0.90129 0.8328 0.56221 0.0
H1667 H 0.89897 0.8297 0.59739 0.0
H1668 H 0.63044 0.19998 0.93663 0.0
H1669 H 0.62373 0.19937 0.97119 0.0
H1670 H 0.64067 0.13952 0.9736 0.0
H1671 H 0.64782 0.14008 0.93897 0.0
H1672 H 0.60049 0.17747 0.99584 0.0
H1673 H 0.67863 0.16604 0.01029 0.0
H1674 H 0.66958 0.1723 0.98671 0.0
H1675 H 0.66739 0.14798 0.99548 0.0
C1676 C 0.63247 0.18658 0.94441 0.0
C1677 C 0.63993 0.17015 0.93509 0.0
C1678 C 0.62858 0.18625 0.96418 0.0
C1679 C 0.63208 0.16952 0.97503 0.0
C1680 C 0.63825 0.1527 0.96555 0.0
H1681 H 0.60844 0.16177 0.09955 0.0
H1682 H 0.60688 0.15689 0.06456 0.0
C1683 C 0.64222 0.15302 0.94574 0.0
C1684 C 0.63072 0.17033 0.99638 0.0
H1685 H 0.65818 0.16838 0.03724 0.0
C1686 C 0.61304 0.17533 0.00494 0.0
C1687 C 0.64722 0.16783 0.00816 0.0
C1688 C 0.66683 0.1634 0.99975 0.0
C1689 C 0.61146 0.17809 0.02498 0.0
C1690 C 0.62796 0.17554 0.03674 0.0
C1691 C 0.64554 0.17026 0.02818 0.0
C1692 C 0.6277 0.17919 0.05783 0.0
C1693 C 0.59236 0.1844 0.03332 0.0
C1694 C 0.63998 0.19327 0.06567 0.0
C1695 C 0.64101 0.19599 0.08561 0.0
C1696 C 0.6298 0.18464 0.09815 0.0
C1697 C 0.61717 0.17082 0.09027 0.0
C1698 C 0.6162 0.16806 0.07027 0.0
H1699 H 0.58241 0.18988 0.02201 0.0
H1700 H 0.58535 0.17189 0.04047 0.0
H1701 H 0.59446 0.19586 0.04433 0.0
H1702 H 0.64899 0.202 0.05634 0.0
H1703 H 0.65087 0.20676 0.09118 0.0
H1704 H 0.39553 0.66119 0.40308 0.0
H1705 H 0.39679 0.65591 0.43806 0.0
H1706 H 0.35396 0.70028 0.44636 0.0
H1707 H 0.35244 0.70553 0.41155 0.0
H1708 H 0.40459 0.68119 0.4696 0.0
H1709 H 0.33007 0.65217 0.47197 0.0
H1710 H 0.34334 0.65498 0.44972 0.0
H1711 H 0.3317 0.67544 0.46067 0.0
C1712 C 0.3865 0.66994 0.41237 0.0
C1713 C 0.37375 0.68366 0.40452 0.0
C1714 C 0.38724 0.66689 0.43234 0.0
C1715 C 0.37519 0.67744 0.44474 0.0
C1716 C 0.36309 0.69171 0.437 0.0
H1717 H 0.3726 0.69962 0.5655 0.0
H1718 H 0.3802 0.69843 0.53119 0.0
C1719 C 0.36232 0.69476 0.41709 0.0
C1720 C 0.37479 0.6733 0.46572 0.0
H1721 H 0.34428 0.66048 0.50219 0.0
C1722 C 0.39148 0.67647 0.47674 0.0
C1723 C 0.35779 0.66673 0.47493 0.0
C1724 C 0.33975 0.66193 0.46371 0.0
C1725 C 0.39134 0.67414 0.4969 0.0
C1726 C 0.37398 0.66876 0.50623 0.0
C1727 C 0.35756 0.66473 0.49507 0.0
C1728 C 0.37198 0.66849 0.52757 0.0
C1729 C 0.40976 0.67753 0.50798 0.0
C1730 C 0.36482 0.65205 0.53704 0.0
C1731 C 0.36028 0.65274 0.55672 0.0
C1732 C 0.36269 0.66994 0.56722 0.0
C1733 C 0.37063 0.68612 0.55787 0.0
C1734 C 0.37513 0.68542 0.53823 0.0
H1735 H 0.42265 0.67507 0.49876 0.0
H1736 H 0.41017 0.69275 0.51297 0.0
H1737 H 0.41069 0.66797 0.52081 0.0
H1738 H 0.36217 0.63886 0.52907 0.0
H1739 H 0.35415 0.64004 0.56347 0.0
H1740 H 0.13462 0.30132 0.06879 0.0
H1741 H 0.12772 0.30189 0.03426 0.0
H1742 H 0.14438 0.36182 0.03172 0.0
H1743 H 0.1517 0.36131 0.06631 0.0
H1744 H 0.10406 0.32383 0.00994 0.0
H1745 H 0.18199 0.33542 0.99452 0.0
H1746 H 0.17325 0.32907 0.01819 0.0
H1747 H 0.17091 0.35342 0.00954 0.0
C1748 C 0.13657 0.31473 0.06098 0.0
C1749 C 0.14397 0.33121 0.07025 0.0
C1750 C 0.13257 0.31503 0.04123 0.0
C1751 C 0.13589 0.33178 0.03036 0.0
C1752 C 0.14208 0.34863 0.03979 0.0
H1753 H 0.11077 0.34001 0.90618 0.0
H1754 H 0.10963 0.34475 0.94121 0.0
C1755 C 0.14615 0.34834 0.05957 0.0
C1756 C 0.13428 0.331 0.00903 0.0
H1757 H 0.1612 0.33314 0.96782 0.0
C1758 C 0.11649 0.32601 1.00068 0.0
C1759 C 0.15061 0.33357 0.99704 0.0
C1760 C 0.17032 0.338 0.00521 0.0
C1761 C 0.11466 0.32333 0.98065 0.0
C1762 C 0.13099 0.32595 0.96869 0.0
C1763 C 0.14868 0.33121 0.97703 0.0
C1764 C 0.13047 0.32237 0.94759 0.0
C1765 C 0.09546 0.31706 0.97253 0.0
C1766 C 0.14261 0.3083 0.93955 0.0
C1767 C 0.1434 0.30566 0.9196 0.0
C1768 C 0.13208 0.31708 0.90723 0.0
C1769 C 0.11958 0.3309 0.91532 0.0
C1770 C 0.11885 0.33358 0.93534 0.0
H1771 H 0.08563 0.31156 0.98396 0.0
H1772 H 0.08837 0.32958 0.96549 0.0
H1773 H 0.09741 0.30561 0.96149 0.0
H1774 H 0.15171 0.2995 0.94874 0.0
H1775 H 0.15317 0.29488 0.91386 0.0
H1776 H 0.59198 0.84404 0.80594 0.0
H1777 H 0.55703 0.84656 0.80867 0.0
H1778 H 0.56291 0.90271 0.83499 0.0
H1779 H 0.59815 0.89993 0.83296 0.0
H1780 H 0.53717 0.88192 0.85396 0.0
H1781 H 0.52027 0.8767 0.77637 0.0
H1782 H 0.5344 0.85638 0.78384 0.0
H1783 H 0.54455 0.88033 0.78501 0.0
C1784 C 0.58587 0.85703 0.81213 0.0
C1785 C 0.59784 0.87185 0.8191 0.0
C1786 C 0.56584 0.85851 0.81358 0.0
C1787 C 0.55727 0.87503 0.82161 0.0
C1788 C 0.56918 0.88989 0.82859 0.0
H1789 H 0.43207 0.88084 0.80812 0.0
H1790 H 0.46609 0.89018 0.80794 0.0
C1791 C 0.5893 0.8883 0.82738 0.0
C1792 C 0.53592 0.87624 0.8234 0.0
H1793 H 0.49431 0.86889 0.79817 0.0
C1794 C 0.52777 0.87937 0.8417 0.0
C1795 C 0.52357 0.8734 0.80738 0.0
C1796 C 0.53117 0.87174 0.78703 0.0
C1797 C 0.50769 0.87876 0.84457 0.0
C1798 C 0.49546 0.87426 0.82881 0.0
C1799 C 0.5036 0.87207 0.81037 0.0
C1800 C 0.47436 0.87084 0.83107 0.0
C1801 C 0.49988 0.88303 0.86443 0.0
C1802 C 0.46748 0.85721 0.84444 0.0
C1803 C 0.44793 0.85219 0.84486 0.0
C1804 C 0.43498 0.8603 0.83154 0.0
C1805 C 0.44173 0.87433 0.81854 0.0
C1806 C 0.46119 0.87964 0.8184 0.0
H1807 H 0.50957 0.893 0.87242 0.0
H1808 H 0.48526 0.88957 0.86376 0.0
H1809 H 0.49904 0.8694 0.8728 0.0
H1810 H 0.47734 0.84974 0.85398 0.0
H1811 H 0.44318 0.84116 0.85487 0.0
H1812 H 0.90333 0.10941 0.34147 0.0
H1813 H 0.93827 0.10852 0.34712 0.0
H1814 H 0.94633 0.15337 0.30473 0.0
H1815 H 0.91157 0.15453 0.29914 0.0
H1816 H 0.96988 0.10207 0.32187 0.0
H1817 H 0.97173 0.17547 0.35361 0.0
H1818 H 0.94956 0.1622 0.35021 0.0
H1819 H 0.96049 0.17478 0.33029 0.0
C1820 C 0.91256 0.11899 0.33326 0.0
C1821 C 0.90466 0.13217 0.31997 0.0
C1822 C 0.93251 0.11846 0.33652 0.0
C1823 C 0.94482 0.13115 0.32663 0.0
C1824 C 0.93703 0.14375 0.31282 0.0
H1825 H 0.06501 0.13538 0.30308 0.0
H1826 H 0.03075 0.12761 0.30465 0.0
C1827 C 0.91715 0.14431 0.30957 0.0
C1828 C 0.96579 0.13156 0.33082 0.0
H1829 H 0.00208 0.16199 0.34431 0.0
C1830 C 0.97693 0.11508 0.327 0.0
C1831 C 0.9749 0.14841 0.3379 0.0
C1832 C 0.96354 0.16616 0.34344 0.0
C1833 C 0.99711 0.11534 0.32913 0.0
C1834 C 0.00633 0.13263 0.33495 0.0
C1835 C 0.99505 0.14878 0.3397 0.0
C1836 C 0.02764 0.13487 0.33487 0.0
C1837 C 0.00834 0.09715 0.32501 0.0
C1838 C 0.03736 0.14162 0.35133 0.0
C1839 C 0.057 0.14628 0.35044 0.0
C1840 C 0.06722 0.14439 0.333 0.0
C1841 C 0.0576 0.13694 0.31676 0.0
C1842 C 0.038 0.13233 0.31766 0.0
H1843 H 0.9993 0.08409 0.32726 0.0
H1844 H 0.01303 0.09723 0.3097 0.0
H1845 H 0.02135 0.09608 0.33429 0.0
H1846 H 0.02961 0.14381 0.36474 0.0
H1847 H 0.06397 0.15202 0.36319 0.0
H1848 H 0.09723 0.60971 0.16315 0.0
H1849 H 0.0623 0.60888 0.15734 0.0
H1850 H 0.05417 0.65402 0.1994 0.0
H1851 H 0.08891 0.65511 0.20515 0.0
H1852 H 0.03055 0.60265 0.18249 0.0
H1853 H 0.029 0.67587 0.15032 0.0
H1854 H 0.05113 0.66259 0.15391 0.0
H1855 H 0.04014 0.67529 0.1737 0.0
C1856 C 0.08798 0.61937 0.17125 0.0
C1857 C 0.09587 0.6326 0.18449 0.0
C1858 C 0.06805 0.61887 0.1679 0.0
C1859 C 0.05572 0.63165 0.17766 0.0
C1860 C 0.06349 0.64433 0.19141 0.0
H1861 H 0.93517 0.6362 0.20025 0.0
H1862 H 0.96942 0.62828 0.19908 0.0
C1863 C 0.08335 0.64485 0.19475 0.0
C1864 C 0.03476 0.63208 0.17339 0.0
H1865 H 0.99859 0.6625 0.15954 0.0
C1866 C 0.02355 0.61565 0.17726 0.0
C1867 C 0.02571 0.64891 0.16617 0.0
C1868 C 0.03713 0.66661 0.16059 0.0
C1869 C 0.00339 0.61593 0.17502 0.0
C1870 C 0.99422 0.6332 0.16904 0.0
C1871 C 0.00557 0.6493 0.16427 0.0
C1872 C 0.97291 0.63546 0.16888 0.0
C1873 C 0.9921 0.59778 0.17918 0.0
C1874 C 0.96338 0.64218 0.15229 0.0
C1875 C 0.94376 0.64693 0.15296 0.0
C1876 C 0.93333 0.64515 0.17029 0.0
C1877 C 0.94273 0.63767 0.18665 0.0
C1878 C 0.96233 0.63298 0.18597 0.0
H1879 H 1.00114 0.5847 0.17707 0.0
H1880 H 0.98729 0.59797 0.19445 0.0
H1881 H 0.97916 0.59667 0.1698 0.0
H1882 H 0.97129 0.64431 0.13897 0.0
H1883 H 0.93696 0.65269 0.14012 0.0
H1884 H 0.4133 0.34366 0.69889 0.0
H1885 H 0.44818 0.3467 0.69595 0.0
H1886 H 0.44139 0.40333 0.67094 0.0
H1887 H 0.4062 0.40006 0.67319 0.0
H1888 H 0.46733 0.38326 0.65136 0.0
H1889 H 0.4847 0.37667 0.72873 0.0
H1890 H 0.47076 0.35634 0.72095 0.0
H1891 H 0.46034 0.38019 0.72029 0.0
C1892 C 0.41919 0.35686 0.69293 0.0
C1893 C 0.40697 0.37169 0.68641 0.0
C1894 C 0.43919 0.35863 0.69137 0.0
C1895 C 0.44749 0.37544 0.68366 0.0
C1896 C 0.43533 0.39029 0.67709 0.0
H1897 H 0.57278 0.38142 0.69659 0.0
H1898 H 0.53879 0.3909 0.6971 0.0
C1899 C 0.41524 0.38842 0.67842 0.0
C1900 C 0.46881 0.37697 0.68179 0.0
H1901 H 0.51061 0.36946 0.70663 0.0
C1902 C 0.47683 0.38056 0.66351 0.0
C1903 C 0.48127 0.37393 0.69768 0.0
C1904 C 0.4738 0.3718 0.71803 0.0
C1905 C 0.49689 0.38016 0.66052 0.0
C1906 C 0.50924 0.37542 0.67611 0.0
C1907 C 0.50124 0.37282 0.69456 0.0
C1908 C 0.53033 0.37205 0.67363 0.0
C1909 C 0.50456 0.38488 0.6407 0.0
C1910 C 0.5371 0.35867 0.65996 0.0
C1911 C 0.55663 0.35359 0.65935 0.0
C1912 C 0.56967 0.36137 0.67278 0.0
C1913 C 0.56304 0.37517 0.68607 0.0
C1914 C 0.5436 0.38056 0.6864 0.0
H1915 H 0.49478 0.39501 0.63301 0.0
H1916 H 0.51917 0.39142 0.64141 0.0
H1917 H 0.50534 0.37144 0.63202 0.0
H1918 H 0.52716 0.35142 0.65033 0.0
H1919 H 0.56127 0.34272 0.64911 0.0
H1920 H 0.84147 0.59747 0.89432 0.0
H1921 H 0.84721 0.56251 0.89495 0.0
H1922 H 0.80348 0.55449 0.85143 0.0
H1923 H 0.79776 0.58925 0.85057 0.0
H1924 H 0.82188 0.53056 0.90182 0.0
H1925 H 0.85227 0.5297 0.82784 0.0
H1926 H 0.84919 0.55169 0.8415 0.0
H1927 H 0.82897 0.54097 0.82924 0.0
C1928 C 0.83296 0.58823 0.88501 0.0
C1929 C 0.81927 0.59616 0.87227 0.0
C1930 C 0.83628 0.56828 0.88538 0.0
C1931 C 0.82603 0.55599 0.87297 0.0
C1932 C 0.81182 0.56378 0.86084 0.0
H1933 H 0.80292 0.43575 0.86755 0.0
H1934 H 0.80444 0.46996 0.87559 0.0
C1935 C 0.8085 0.58366 0.86045 0.0
C1936 C 0.83033 0.53504 0.87226 0.0
H1937 H 0.84351 0.49916 0.8412 0.0
C1938 C 0.82683 0.52368 0.88866 0.0
C1939 C 0.83718 0.52616 0.8552 0.0
C1940 C 0.84232 0.53777 0.83749 0.0
C1941 C 0.82903 0.50351 0.88811 0.0
C1942 C 0.83463 0.49451 0.87064 0.0
C1943 C 0.83907 0.50601 0.85456 0.0
C1944 C 0.8346 0.47322 0.86814 0.0
C1945 C 0.82521 0.49203 0.9062 0.0
C1946 C 0.85104 0.46361 0.86119 0.0
C1947 C 0.85018 0.44399 0.8564 0.0
C1948 C 0.83279 0.43369 0.85833 0.0
C1949 C 0.81656 0.44321 0.86594 0.0
C1950 C 0.81744 0.46278 0.87071 0.0
H1951 H 0.82753 0.50093 0.91934 0.0
H1952 H 0.80994 0.48719 0.90624 0.0
H1953 H 0.83462 0.47907 0.907 0.0
H1954 H 0.86441 0.47142 0.85897 0.0
H1955 H 0.86293 0.43709 0.85053 0.0
H1956 H 0.34057 0.90433 0.10772 0.0
H1957 H 0.34606 0.9393 0.10653 0.0
H1958 H 0.30355 0.94754 0.15121 0.0
H1959 H 0.29814 0.91274 0.15269 0.0
H1960 H 0.32094 0.9707 0.09966 0.0
H1961 H 0.352 0.97349 0.17326 0.0
H1962 H 0.34868 0.95113 0.16029 0.0
H1963 H 0.32867 0.96225 0.17255 0.0
C1964 C 0.33231 0.91361 0.1172 0.0
C1965 C 0.31905 0.90574 0.13043 0.0
C1966 C 0.33547 0.93357 0.1165 0.0
C1967 C 0.32549 0.94595 0.12905 0.0
C1968 C 0.31171 0.93819 0.1417 0.0
H1969 H 0.30243 0.0666 0.13142 0.0
H1970 H 0.30381 0.03225 0.12395 0.0
C1971 C 0.30857 0.91829 0.14245 0.0
C1972 C 0.32959 0.96697 0.12927 0.0
H1973 H 0.34282 0.00366 0.15934 0.0
C1974 C 0.32594 0.97791 0.11262 0.0
C1975 C 0.33651 0.9763 0.14606 0.0
C1976 C 0.34189 0.96517 0.164 0.0
C1977 C 0.3281 0.9981 0.11263 0.0
C1978 C 0.33378 0.00755 0.12984 0.0
C1979 C 0.33832 0.99646 0.14618 0.0
C1980 C 0.33387 0.02891 0.13177 0.0
C1981 C 0.32422 0.00909 0.09425 0.0
C1982 C 0.35031 0.03856 0.13869 0.0
C1983 C 0.34951 0.05824 0.1432 0.0
C1984 C 0.3322 0.06861 0.14096 0.0
C1985 C 0.31602 0.05909 0.13324 0.0
C1986 C 0.31682 0.03943 0.12881 0.0
H1987 H 0.3266 0.99986 0.08135 0.0
H1988 H 0.30892 0.01382 0.0941 0.0
H1989 H 0.33356 0.02207 0.0931 0.0
H1990 H 0.36361 0.03071 0.14119 0.0
H1991 H 0.36222 0.06513 0.14914 0.0
H1992 H 0.13942 0.93803 0.65022 0.0
H1993 H 0.13811 0.97241 0.64202 0.0
H1994 H 0.19789 0.97062 0.62475 0.0
H1995 H 0.19922 0.93634 0.63251 0.0
H1996 H 0.15913 0.99964 0.65991 0.0
H1997 H 0.17499 0.00259 0.58181 0.0
H1998 H 0.16791 0.98054 0.59381 0.0
H1999 H 0.19262 0.9886 0.5946 0.0
C2000 C 0.15215 0.94486 0.64423 0.0
C2001 C 0.16944 0.93445 0.64206 0.0
C2002 C 0.15138 0.96451 0.63958 0.0
C2003 C 0.16783 0.97407 0.63256 0.0
C2004 C 0.18487 0.96351 0.62969 0.0
H2005 H 0.20511 0.08975 0.65223 0.0
H2006 H 0.19922 0.05503 0.65089 0.0
C2007 C 0.18565 0.94389 0.63429 0.0
C2008 C 0.16798 0.99541 0.6304 0.0
H2009 H 0.181 0.03187 0.59982 0.0
C2010 C 0.16361 0.00668 0.64666 0.0
C2011 C 0.17364 0.00465 0.61308 0.0
C2012 C 0.17736 0.99346 0.59479 0.0
C2013 C 0.16563 0.02682 0.64636 0.0
C2014 C 0.17256 0.03594 0.62945 0.0
C2015 C 0.176 0.02482 0.61287 0.0
C2016 C 0.17697 0.05688 0.62907 0.0
C2017 C 0.1605 0.03816 0.66424 0.0
C2018 C 0.16697 0.06938 0.61665 0.0
C2019 C 0.1704 0.0893 0.61728 0.0
C2020 C 0.18395 0.09701 0.6303 0.0
C2021 C 0.19447 0.08433 0.64214 0.0
C2022 C 0.19105 0.06447 0.64148 0.0
H2023 H 0.1504 0.03003 0.67367 0.0
H2024 H 0.17382 0.04105 0.67264 0.0
H2025 H 0.15381 0.05223 0.66045 0.0
H2026 H 0.15615 0.06377 0.60686 0.0
H2027 H 0.16209 0.09868 0.60793 0.0
H2028 H 0.70585 0.41149 0.35049 0.0
H2029 H 0.70151 0.44644 0.35123 0.0
H2030 H 0.65673 0.44019 0.394 0.0
H2031 H 0.66118 0.40509 0.39358 0.0
H2032 H 0.66788 0.46572 0.34181 0.0
H2033 H 0.69079 0.48301 0.41672 0.0
H2034 H 0.69635 0.46026 0.40526 0.0
H2035 H 0.67256 0.46468 0.41455 0.0
C2036 C 0.69523 0.41752 0.36025 0.0
C2037 C 0.68386 0.40549 0.37198 0.0
C2038 C 0.69275 0.43752 0.36062 0.0
C2039 C 0.67889 0.44594 0.37275 0.0
C2040 C 0.66773 0.43403 0.38476 0.0
H2041 H 0.64165 0.56515 0.35017 0.0
H2042 H 0.64061 0.5306 0.35778 0.0
C2043 C 0.67025 0.41397 0.38445 0.0
C2044 C 0.67555 0.46708 0.37187 0.0
H2045 H 0.67874 0.50882 0.39793 0.0
C2046 C 0.67014 0.47515 0.3541 0.0
C2047 C 0.6786 0.47931 0.38792 0.0
C2048 C 0.68505 0.47147 0.40718 0.0
C2049 C 0.66806 0.49517 0.35181 0.0
C2050 C 0.6711 0.50744 0.36785 0.0
C2051 C 0.67621 0.49935 0.38572 0.0
C2052 C 0.67074 0.52876 0.36583 0.0
C2053 C 0.66344 0.50303 0.33202 0.0
C2054 C 0.68774 0.53933 0.36874 0.0
C2055 C 0.68834 0.55905 0.36457 0.0
C2056 C 0.67192 0.56859 0.35741 0.0
C2057 C 0.65458 0.5582 0.35554 0.0
C2058 C 0.65399 0.53844 0.35978 0.0
H2059 H 0.66558 0.49205 0.32054 0.0
H2060 H 0.64812 0.50767 0.33163 0.0
H2061 H 0.67258 0.51577 0.32867 0.0
H2062 H 0.70081 0.53216 0.37347 0.0
H2063 H 0.70191 0.56663 0.36628 0.0
loop_
_geom_bond_atom_site_label_1
_geom_bond_atom_site_label_2
_geom_bond_distance
_geom_bond_site_symmetry_2
_ccdc_geom_bond_type
O0 Cd1 2.223 . S
O0 C8 1.315 . S
Cd1 O0 2.223 . S
Cd1 O4 2.297 . S
Cd1 O5 2.439 . S
Cd1 O11 2.240 . S
Cd2 O3 2.240 . S
Cd2 O10 2.223 . S
Cd2 O12 2.297 . S
Cd2 O13 2.439 . S
O3 Cd2 2.240 . S
O3 C8 1.279 . S
O4 Cd1 2.297 . S
O4 C6 1.247 . S
O5 Cd1 2.439 . S
O5 C6 1.208 . S
C6 O4 1.247 . S
C6 O5 1.208 . S
C7 O12 1.247 . S
C7 O13 1.208 . S
C8 O0 1.315 . S
C8 O3 1.279 . S
C9 O10 1.315 . S
C9 O11 1.279 . S
O10 Cd2 2.223 . S
O10 C9 1.315 . S
O11 Cd1 2.240 . S
O11 C9 1.279 . S
O12 Cd2 2.297 . S
O12 C7 1.247 . S
O13 Cd2 2.439 . S
O13 C7 1.208 . S
O14 Cd15 2.223 . S
O14 C22 1.315 . S
Cd15 O14 2.223 . S
Cd15 O18 2.297 . S
Cd15 O19 2.439 . S
Cd15 O25 2.240 . S
Cd16 O17 2.240 . S
Cd16 O24 2.223 . S
Cd16 O26 2.297 . S
Cd16 O27 2.439 . S
O17 Cd16 2.240 . S
O17 C22 1.279 . S
O18 Cd15 2.297 . S
O18 C20 1.247 . S
O19 Cd15 2.439 . S
O19 C20 1.208 . S
C20 O18 1.247 . S
C20 O19 1.208 . S
C21 O26 1.247 . S
C21 O27 1.208 . S
C22 O14 1.315 . S
C22 O17 1.279 . S
C23 O24 1.315 . S
C23 O25 1.279 . S
O24 Cd16 2.223 . S
O24 C23 1.315 . S
O25 Cd15 2.240 . S
O25 C23 1.279 . S
O26 Cd16 2.297 . S
O26 C21 1.247 . S
O27 Cd16 2.439 . S
O27 C21 1.208 . S
O28 Cd29 2.223 . S
O28 C36 1.315 . S
Cd29 O28 2.223 . S
Cd29 O32 2.297 . S
Cd29 O33 2.439 . S
Cd29 O39 2.240 . S
Cd30 O31 2.240 . S
Cd30 O38 2.223 . S
Cd30 O40 2.297 . S
Cd30 O41 2.439 . S
O31 Cd30 2.240 . S
O31 C36 1.279 . S
O32 Cd29 2.297 . S
O32 C34 1.247 . S
O33 Cd29 2.439 . S
O33 C34 1.208 . S
C34 O32 1.247 . S
C34 O33 1.208 . S
C35 O40 1.247 . S
C35 O41 1.208 . S
C36 O28 1.315 . S
C36 O31 1.279 . S
C37 O38 1.315 . S
C37 O39 1.279 . S
O38 Cd30 2.223 . S
O38 C37 1.315 . S
O39 Cd29 2.240 . S
O39 C37 1.279 . S
O40 Cd30 2.297 . S
O40 C35 1.247 . S
O41 Cd30 2.439 . S
O41 C35 1.208 . S
O42 Cd43 2.223 . S
O42 C50 1.315 . S
Cd43 O42 2.223 . S
Cd43 O46 2.297 . S
Cd43 O47 2.439 . S
Cd43 O53 2.240 . S
Cd44 O45 2.240 . S
Cd44 O52 2.223 . S
Cd44 O54 2.297 . S
Cd44 O55 2.439 . S
O45 Cd44 2.240 . S
O45 C50 1.279 . S
O46 Cd43 2.297 . S
O46 C48 1.247 . S
O47 Cd43 2.439 . S
O47 C48 1.208 . S
C48 O46 1.247 . S
C48 O47 1.208 . S
C49 O54 1.247 . S
C49 O55 1.208 . S
C50 O42 1.315 . S
C50 O45 1.279 . S
C51 O52 1.315 . S
C51 O53 1.279 . S
O52 Cd44 2.223 . S
O52 C51 1.315 . S
O53 Cd43 2.240 . S
O53 C51 1.279 . S
O54 Cd44 2.297 . S
O54 C49 1.247 . S
O55 Cd44 2.439 . S
O55 C49 1.208 . S
O56 Cd57 2.223 . S
O56 C64 1.315 . S
Cd57 O56 2.223 . S
Cd57 O60 2.297 . S
Cd57 O61 2.439 . S
Cd57 O67 2.240 . S
Cd58 O59 2.240 . S
Cd58 O66 2.223 . S
Cd58 O68 2.297 . S
Cd58 O69 2.439 . S
O59 Cd58 2.240 . S
O59 C64 1.279 . S
O60 Cd57 2.297 . S
O60 C62 1.247 . S
O61 Cd57 2.439 . S
O61 C62 1.208 . S
C62 O60 1.247 . S
C62 O61 1.208 . S
C63 O68 1.247 . S
C63 O69 1.208 . S
C64 O56 1.315 . S
C64 O59 1.279 . S
C65 O66 1.315 . S
C65 O67 1.279 . S
O66 Cd58 2.223 . S
O66 C65 1.315 . S
O67 Cd57 2.240 . S
O67 C65 1.279 . S
O68 Cd58 2.297 . S
O68 C63 1.247 . S
O69 Cd58 2.439 . S
O69 C63 1.208 . S
O70 Cd71 2.223 . S
O70 C78 1.315 . S
Cd71 O70 2.223 . S
Cd71 O74 2.297 . S
Cd71 O75 2.439 . S
Cd71 O81 2.240 . S
Cd72 O73 2.240 . S
Cd72 O80 2.223 . S
Cd72 O82 2.297 . S
Cd72 O83 2.439 . S
O73 Cd72 2.240 . S
O73 C78 1.279 . S
O74 Cd71 2.297 . S
O74 C76 1.247 . S
O75 Cd71 2.439 . S
O75 C76 1.208 . S
C76 O74 1.247 . S
C76 O75 1.208 . S
C77 O82 1.247 . S
C77 O83 1.208 . S
C78 O70 1.315 . S
C78 O73 1.279 . S
C79 O80 1.315 . S
C79 O81 1.279 . S
O80 Cd72 2.223 . S
O80 C79 1.315 . S
O81 Cd71 2.240 . S
O81 C79 1.279 . S
O82 Cd72 2.297 . S
O82 C77 1.247 . S
O83 Cd72 2.439 . S
O83 C77 1.208 . S
O84 Cd85 2.223 . S
O84 C92 1.315 . S
Cd85 O84 2.223 . S
Cd85 O88 2.297 . S
Cd85 O89 2.439 . S
Cd85 O95 2.240 . S
Cd86 O87 2.240 . S
Cd86 O94 2.223 . S
Cd86 O96 2.297 . S
Cd86 O97 2.439 . S
O87 Cd86 2.240 . S
O87 C92 1.279 . S
O88 Cd85 2.297 . S
O88 C90 1.247 . S
O89 Cd85 2.439 . S
O89 C90 1.208 . S
C90 O88 1.247 . S
C90 O89 1.208 . S
C91 O96 1.247 . S
C91 O97 1.208 . S
C92 O84 1.315 . S
C92 O87 1.279 . S
C93 O94 1.315 . S
C93 O95 1.279 . S
O94 Cd86 2.223 . S
O94 C93 1.315 . S
O95 Cd85 2.240 . S
O95 C93 1.279 . S
O96 Cd86 2.297 . S
O96 C91 1.247 . S
O97 Cd86 2.439 . S
O97 C91 1.208 . S
O98 Cd99 2.223 . S
O98 C106 1.315 . S
Cd99 O98 2.223 . S
Cd99 O102 2.297 . S
Cd99 O103 2.439 . S
Cd99 O109 2.240 . S
Cd100 O101 2.240 . S
Cd100 O108 2.223 . S
Cd100 O110 2.297 . S
Cd100 O111 2.439 . S
O101 Cd100 2.240 . S
O101 C106 1.279 . S
O102 Cd99 2.297 . S
O102 C104 1.247 . S
O103 Cd99 2.439 . S
O103 C104 1.208 . S
C104 O102 1.247 . S
C104 O103 1.208 . S
C105 O110 1.247 . S
C105 O111 1.208 . S
C106 O98 1.315 . S
C106 O101 1.279 . S
C107 O108 1.315 . S
C107 O109 1.279 . S
O108 Cd100 2.223 . S
O108 C107 1.315 . S
O109 Cd99 2.240 . S
O109 C107 1.279 . S
O110 Cd100 2.297 . S
O110 C105 1.247 . S
O111 Cd100 2.439 . S
O111 C105 1.208 . S
O112 Cd113 2.223 . S
O112 C120 1.315 . S
Cd113 O112 2.223 . S
Cd113 O116 2.297 . S
Cd113 O117 2.439 . S
Cd113 O123 2.240 . S
Cd114 O115 2.240 . S
Cd114 O122 2.223 . S
Cd114 O124 2.297 . S
Cd114 O125 2.439 . S
O115 Cd114 2.240 . S
O115 C120 1.279 . S
O116 Cd113 2.297 . S
O116 C118 1.247 . S
O117 Cd113 2.439 . S
O117 C118 1.208 . S
C118 O116 1.247 . S
C118 O117 1.208 . S
C119 O124 1.247 . S
C119 O125 1.208 . S
C120 O112 1.315 . S
C120 O115 1.279 . S
C121 O122 1.315 . S
C121 O123 1.279 . S
O122 Cd114 2.223 . S
O122 C121 1.315 . S
O123 Cd113 2.240 . S
O123 C121 1.279 . S
O124 Cd114 2.297 . S
O124 C119 1.247 . S
O125 Cd114 2.439 . S
O125 C119 1.208 . S
O126 Cd127 2.223 . S
O126 C134 1.315 . S
Cd127 O126 2.223 . S
Cd127 O130 2.297 . S
Cd127 O131 2.439 . S
Cd127 O137 2.240 . S
Cd128 O129 2.240 . S
Cd128 O136 2.223 . S
Cd128 O138 2.297 . S
Cd128 O139 2.439 . S
O129 Cd128 2.240 . S
O129 C134 1.279 . S
O130 Cd127 2.297 . S
O130 C132 1.247 . S
O131 Cd127 2.439 . S
O131 C132 1.208 . S
C132 O130 1.247 . S
C132 O131 1.208 . S
C133 O138 1.247 . S
C133 O139 1.208 . S
C134 O126 1.315 . S
C134 O129 1.279 . S
C135 O136 1.315 . S
C135 O137 1.279 . S
O136 Cd128 2.223 . S
O136 C135 1.315 . S
O137 Cd127 2.240 . S
O137 C135 1.279 . S
O138 Cd128 2.297 . S
O138 C133 1.247 . S
O139 Cd128 2.439 . S
O139 C133 1.208 . S
O140 Cd141 2.223 . S
O140 C148 1.315 . S
Cd141 O140 2.223 . S
Cd141 O144 2.297 . S
Cd141 O145 2.439 . S
Cd141 O151 2.240 . S
Cd142 O143 2.240 . S
Cd142 O150 2.223 . S
Cd142 O152 2.297 . S
Cd142 O153 2.439 . S
O143 Cd142 2.240 . S
O143 C148 1.279 . S
O144 Cd141 2.297 . S
O144 C146 1.247 . S
O145 Cd141 2.439 . S
O145 C146 1.208 . S
C146 O144 1.247 . S
C146 O145 1.208 . S
C147 O152 1.247 . S
C147 O153 1.208 . S
C148 O140 1.315 . S
C148 O143 1.279 . S
C149 O150 1.315 . S
C149 O151 1.279 . S
O150 Cd142 2.223 . S
O150 C149 1.315 . S
O151 Cd141 2.240 . S
O151 C149 1.279 . S
O152 Cd142 2.297 . S
O152 C147 1.247 . S
O153 Cd142 2.439 . S
O153 C147 1.208 . S
O154 Cd155 2.223 . S
O154 C162 1.315 . S
Cd155 O154 2.223 . S
Cd155 O158 2.297 . S
Cd155 O159 2.439 . S
Cd155 O165 2.240 . S
Cd156 O157 2.240 . S
Cd156 O164 2.223 . S
Cd156 O166 2.297 . S
Cd156 O167 2.439 . S
O157 Cd156 2.240 . S
O157 C162 1.279 . S
O158 Cd155 2.297 . S
O158 C160 1.247 . S
O159 Cd155 2.439 . S
O159 C160 1.208 . S
C160 O158 1.247 . S
C160 O159 1.208 . S
C161 O166 1.247 . S
C161 O167 1.208 . S
C162 O154 1.315 . S
C162 O157 1.279 . S
C163 O164 1.315 . S
C163 O165 1.279 . S
O164 Cd156 2.223 . S
O164 C163 1.315 . S
O165 Cd155 2.240 . S
O165 C163 1.279 . S
O166 Cd156 2.297 . S
O166 C161 1.247 . S
O167 Cd156 2.439 . S
O167 C161 1.208 . S
O168 Cd169 2.223 . S
O168 C176 1.315 . S
Cd169 O168 2.223 . S
Cd169 O172 2.297 . S
Cd169 O173 2.439 . S
Cd169 O179 2.240 . S
Cd170 O171 2.240 . S
Cd170 O178 2.223 . S
Cd170 O180 2.297 . S
Cd170 O181 2.439 . S
O171 Cd170 2.240 . S
O171 C176 1.279 . S
O172 Cd169 2.297 . S
O172 C174 1.247 . S
O173 Cd169 2.439 . S
O173 C174 1.208 . S
C174 O172 1.247 . S
C174 O173 1.208 . S
C175 O180 1.247 . S
C175 O181 1.208 . S
C176 O168 1.315 . S
C176 O171 1.279 . S
C177 O178 1.315 . S
C177 O179 1.279 . S
O178 Cd170 2.223 . S
O178 C177 1.315 . S
O179 Cd169 2.240 . S
O179 C177 1.279 . S
O180 Cd170 2.297 . S
O180 C175 1.247 . S
O181 Cd170 2.439 . S
O181 C175 1.208 . S
O182 Cd183 2.223 . S
O182 C190 1.315 . S
Cd183 O182 2.223 . S
Cd183 O186 2.297 . S
Cd183 O187 2.439 . S
Cd183 O193 2.240 . S
Cd184 O185 2.240 . S
Cd184 O192 2.223 . S
Cd184 O194 2.297 . S
Cd184 O195 2.439 . S
O185 Cd184 2.240 . S
O185 C190 1.279 . S
O186 Cd183 2.297 . S
O186 C188 1.247 . S
O187 Cd183 2.439 . S
O187 C188 1.208 . S
C188 O186 1.247 . S
C188 O187 1.208 . S
C189 O194 1.247 . S
C189 O195 1.208 . S
C190 O182 1.315 . S
C190 O185 1.279 . S
C191 O192 1.315 . S
C191 O193 1.279 . S
O192 Cd184 2.223 . S
O192 C191 1.315 . S
O193 Cd183 2.240 . S
O193 C191 1.279 . S
O194 Cd184 2.297 . S
O194 C189 1.247 . S
O195 Cd184 2.439 . S
O195 C189 1.208 . S
O196 Cd197 2.223 . S
O196 C204 1.315 . S
Cd197 O196 2.223 . S
Cd197 O200 2.297 . S
Cd197 O201 2.439 . S
Cd197 O207 2.240 . S
Cd198 O199 2.240 . S
Cd198 O206 2.223 . S
Cd198 O208 2.297 . S
Cd198 O209 2.439 . S
O199 Cd198 2.240 . S
O199 C204 1.279 . S
O200 Cd197 2.297 . S
O200 C202 1.247 . S
O201 Cd197 2.439 . S
O201 C202 1.208 . S
C202 O200 1.247 . S
C202 O201 1.208 . S
C203 O208 1.247 . S
C203 O209 1.208 . S
C204 O196 1.315 . S
C204 O199 1.279 . S
C205 O206 1.315 . S
C205 O207 1.279 . S
O206 Cd198 2.223 . S
O206 C205 1.315 . S
O207 Cd197 2.240 . S
O207 C205 1.279 . S
O208 Cd198 2.297 . S
O208 C203 1.247 . S
O209 Cd198 2.439 . S
O209 C203 1.208 . S
O210 Cd211 2.223 . S
O210 C218 1.315 . S
Cd211 O210 2.223 . S
Cd211 O214 2.297 . S
Cd211 O215 2.439 . S
Cd211 O221 2.240 . S
Cd212 O213 2.240 . S
Cd212 O220 2.223 . S
Cd212 O222 2.297 . S
Cd212 O223 2.439 . S
O213 Cd212 2.240 . S
O213 C218 1.279 . S
O214 Cd211 2.297 . S
O214 C216 1.247 . S
O215 Cd211 2.439 . S
O215 C216 1.208 . S
C216 O214 1.247 . S
C216 O215 1.208 . S
C217 O222 1.247 . S
C217 O223 1.208 . S
C218 O210 1.315 . S
C218 O213 1.279 . S
C219 O220 1.315 . S
C219 O221 1.279 . S
O220 Cd212 2.223 . S
O220 C219 1.315 . S
O221 Cd211 2.240 . S
O221 C219 1.279 . S
O222 Cd212 2.297 . S
O222 C217 1.247 . S
O223 Cd212 2.439 . S
O223 C217 1.208 . S
O224 Cd225 2.223 . S
O224 C232 1.315 . S
Cd225 O224 2.223 . S
Cd225 O228 2.297 . S
Cd225 O229 2.439 . S
Cd225 O235 2.240 . S
Cd226 O227 2.240 . S
Cd226 O234 2.223 . S
Cd226 O236 2.297 . S
Cd226 O237 2.439 . S
O227 Cd226 2.240 . S
O227 C232 1.279 . S
O228 Cd225 2.297 . S
O228 C230 1.247 . S
O229 Cd225 2.439 . S
O229 C230 1.208 . S
C230 O228 1.247 . S
C230 O229 1.208 . S
C231 O236 1.247 . S
C231 O237 1.208 . S
C232 O224 1.315 . S
C232 O227 1.279 . S
C233 O234 1.315 . S
C233 O235 1.279 . S
O234 Cd226 2.223 . S
O234 C233 1.315 . S
O235 Cd225 2.240 . S
O235 C233 1.279 . S
O236 Cd226 2.297 . S
O236 C231 1.247 . S
O237 Cd226 2.439 . S
O237 C231 1.208 . S
O238 Cd239 2.223 . S
O238 C246 1.315 . S
Cd239 O238 2.223 . S
Cd239 O242 2.297 . S
Cd239 O243 2.439 . S
Cd239 O249 2.240 . S
Cd240 O241 2.240 . S
Cd240 O248 2.223 . S
Cd240 O250 2.297 . S
Cd240 O251 2.439 . S
O241 Cd240 2.240 . S
O241 C246 1.279 . S
O242 Cd239 2.297 . S
O242 C244 1.247 . S
O243 Cd239 2.439 . S
O243 C244 1.208 . S
C244 O242 1.247 . S
C244 O243 1.208 . S
C245 O250 1.247 . S
C245 O251 1.208 . S
C246 O238 1.315 . S
C246 O241 1.279 . S
C247 O248 1.315 . S
C247 O249 1.279 . S
O248 Cd240 2.223 . S
O248 C247 1.315 . S
O249 Cd239 2.240 . S
O249 C247 1.279 . S
O250 Cd240 2.297 . S
O250 C245 1.247 . S
O251 Cd240 2.439 . S
O251 C245 1.208 . S
O252 Cd253 2.223 . S
O252 C260 1.315 . S
Cd253 O252 2.223 . S
Cd253 O256 2.297 . S
Cd253 O257 2.439 . S
Cd253 O263 2.240 . S
Cd254 O255 2.240 . S
Cd254 O262 2.223 . S
Cd254 O264 2.297 . S
Cd254 O265 2.439 . S
O255 Cd254 2.240 . S
O255 C260 1.279 . S
O256 Cd253 2.297 . S
O256 C258 1.247 . S
O257 Cd253 2.439 . S
O257 C258 1.208 . S
C258 O256 1.247 . S
C258 O257 1.208 . S
C259 O264 1.247 . S
C259 O265 1.208 . S
C260 O252 1.315 . S
C260 O255 1.279 . S
C261 O262 1.315 . S
C261 O263 1.279 . S
O262 Cd254 2.223 . S
O262 C261 1.315 . S
O263 Cd253 2.240 . S
O263 C261 1.279 . S
O264 Cd254 2.297 . S
O264 C259 1.247 . S
O265 Cd254 2.439 . S
O265 C259 1.208 . S
O266 Cd267 2.223 . S
O266 C274 1.315 . S
Cd267 O266 2.223 . S
Cd267 O270 2.297 . S
Cd267 O271 2.439 . S
Cd267 O277 2.240 . S
Cd268 O269 2.240 . S
Cd268 O276 2.223 . S
Cd268 O278 2.297 . S
Cd268 O279 2.439 . S
O269 Cd268 2.240 . S
O269 C274 1.279 . S
O270 Cd267 2.297 . S
O270 C272 1.247 . S
O271 Cd267 2.439 . S
O271 C272 1.208 . S
C272 O270 1.247 . S
C272 O271 1.208 . S
C273 O278 1.247 . S
C273 O279 1.208 . S
C274 O266 1.315 . S
C274 O269 1.279 . S
C275 O276 1.315 . S
C275 O277 1.279 . S
O276 Cd268 2.223 . S
O276 C275 1.315 . S
O277 Cd267 2.240 . S
O277 C275 1.279 . S
O278 Cd268 2.297 . S
O278 C273 1.247 . S
O279 Cd268 2.439 . S
O279 C273 1.208 . S
O280 Cd281 2.223 . S
O280 C288 1.315 . S
Cd281 O280 2.223 . S
Cd281 O284 2.297 . S
Cd281 O285 2.439 . S
Cd281 O291 2.240 . S
Cd282 O283 2.240 . S
Cd282 O290 2.223 . S
Cd282 O292 2.297 . S
Cd282 O293 2.439 . S
O283 Cd282 2.240 . S
O283 C288 1.279 . S
O284 Cd281 2.297 . S
O284 C286 1.247 . S
O285 Cd281 2.439 . S
O285 C286 1.208 . S
C286 O284 1.247 . S
C286 O285 1.208 . S
C287 O292 1.247 . S
C287 O293 1.208 . S
C288 O280 1.315 . S
C288 O283 1.279 . S
C289 O290 1.315 . S
C289 O291 1.279 . S
O290 Cd282 2.223 . S
O290 C289 1.315 . S
O291 Cd281 2.240 . S
O291 C289 1.279 . S
O292 Cd282 2.297 . S
O292 C287 1.247 . S
O293 Cd282 2.439 . S
O293 C287 1.208 . S
O294 Cd295 2.223 . S
O294 C302 1.315 . S
Cd295 O294 2.223 . S
Cd295 O298 2.297 . S
Cd295 O299 2.439 . S
Cd295 O305 2.240 . S
Cd296 O297 2.240 . S
Cd296 O304 2.223 . S
Cd296 O306 2.297 . S
Cd296 O307 2.439 . S
O297 Cd296 2.240 . S
O297 C302 1.279 . S
O298 Cd295 2.297 . S
O298 C300 1.247 . S
O299 Cd295 2.439 . S
O299 C300 1.208 . S
C300 O298 1.247 . S
C300 O299 1.208 . S
C301 O306 1.247 . S
C301 O307 1.208 . S
C302 O294 1.315 . S
C302 O297 1.279 . S
C303 O304 1.315 . S
C303 O305 1.279 . S
O304 Cd296 2.223 . S
O304 C303 1.315 . S
O305 Cd295 2.240 . S
O305 C303 1.279 . S
O306 Cd296 2.297 . S
O306 C301 1.247 . S
O307 Cd296 2.439 . S
O307 C301 1.208 . S
O308 Cd309 2.223 . S
O308 C316 1.315 . S
Cd309 O308 2.223 . S
Cd309 O312 2.297 . S
Cd309 O313 2.439 . S
Cd309 O319 2.240 . S
Cd310 O311 2.240 . S
Cd310 O318 2.223 . S
Cd310 O320 2.297 . S
Cd310 O321 2.439 . S
O311 Cd310 2.240 . S
O311 C316 1.279 . S
O312 Cd309 2.297 . S
O312 C314 1.247 . S
O313 Cd309 2.439 . S
O313 C314 1.208 . S
C314 O312 1.247 . S
C314 O313 1.208 . S
C315 O320 1.247 . S
C315 O321 1.208 . S
C316 O308 1.315 . S
C316 O311 1.279 . S
C317 O318 1.315 . S
C317 O319 1.279 . S
O318 Cd310 2.223 . S
O318 C317 1.315 . S
O319 Cd309 2.240 . S
O319 C317 1.279 . S
O320 Cd310 2.297 . S
O320 C315 1.247 . S
O321 Cd310 2.439 . S
O321 C315 1.208 . S
O322 Cd323 2.223 . S
O322 C330 1.315 . S
Cd323 O322 2.223 . S
Cd323 O326 2.297 . S
Cd323 O327 2.439 . S
Cd323 O333 2.240 . S
Cd324 O325 2.240 . S
Cd324 O332 2.223 . S
Cd324 O334 2.297 . S
Cd324 O335 2.439 . S
O325 Cd324 2.240 . S
O325 C330 1.279 . S
O326 Cd323 2.297 . S
O326 C328 1.247 . S
O327 Cd323 2.439 . S
O327 C328 1.208 . S
C328 O326 1.247 . S
C328 O327 1.208 . S
C329 O334 1.247 . S
C329 O335 1.208 . S
C330 O322 1.315 . S
C330 O325 1.279 . S
C331 O332 1.315 . S
C331 O333 1.279 . S
O332 Cd324 2.223 . S
O332 C331 1.315 . S
O333 Cd323 2.240 . S
O333 C331 1.279 . S
O334 Cd324 2.297 . S
O334 C329 1.247 . S
O335 Cd324 2.439 . S
O335 C329 1.208 . S
H336 C344 0.929 . S
H337 C346 0.930 . S
H338 C348 0.930 . S
H339 C351 0.929 . S
H340 C354 0.930 . S
H341 C356 0.960 . S
H342 C356 0.960 . S
H343 C356 0.960 . S
C344 H336 0.929 . S
C344 C345 1.377 . S
C344 C346 1.384 . S
C345 C344 1.377 . S
C345 C351 1.390 . S
C346 H337 0.930 . S
C346 C344 1.384 . S
C346 C347 1.372 . S
C347 C346 1.372 . S
C347 C348 1.400 . S
C347 C352 1.490 . S
C348 H338 0.930 . S
C348 C347 1.400 . S
C348 C351 1.386 . S
H349 C365 0.930 . S
H350 C366 0.931 . S
C351 H339 0.929 . S
C351 C345 1.390 . S
C351 C348 1.386 . S
C352 C347 1.490 . S
C352 C354 1.395 . S
C352 C355 1.403 . S
H353 C359 0.930 . S
C354 H340 0.930 . S
C354 C352 1.395 . S
C354 C357 1.403 . S
C355 C352 1.403 . S
C355 C356 1.524 . S
C355 C359 1.400 . S
C356 H341 0.960 . S
C356 H342 0.960 . S
C356 H343 0.960 . S
C356 C355 1.524 . S
C357 C354 1.403 . S
C357 C358 1.392 . S
C357 C361 1.495 . S
C358 C357 1.392 . S
C358 C359 1.385 . S
C358 C360 1.478 . S
C359 H353 0.930 . S
C359 C355 1.400 . S
C359 C358 1.385 . S
C360 C358 1.478 . S
C360 C362 1.381 . S
C360 C366 1.383 . S
C361 C357 1.495 . S
C361 H367 0.959 . S
C361 H368 0.961 . S
C361 H369 0.960 . S
C362 C360 1.381 . S
C362 C363 1.394 . S
C362 H370 0.930 . S
C363 C362 1.394 . S
C363 C364 1.383 . S
C363 H371 0.929 . S
C364 C363 1.383 . S
C364 C365 1.377 . S
C365 H349 0.930 . S
C365 C364 1.377 . S
C365 C366 1.379 . S
C366 H350 0.931 . S
C366 C360 1.383 . S
C366 C365 1.379 . S
H367 C361 0.959 . S
H368 C361 0.961 . S
H369 C361 0.960 . S
H370 C362 0.930 . S
H371 C363 0.929 . S
H372 C380 0.929 . S
H373 C382 0.930 . S
H374 C384 0.930 . S
H375 C387 0.929 . S
H376 C390 0.930 . S
H377 C392 0.960 . S
H378 C392 0.960 . S
H379 C392 0.960 . S
C380 H372 0.929 . S
C380 C381 1.377 . S
C380 C382 1.384 . S
C381 C380 1.377 . S
C381 C387 1.390 . S
C382 H373 0.930 . S
C382 C380 1.384 . S
C382 C383 1.372 . S
C383 C382 1.372 . S
C383 C384 1.400 . S
C383 C388 1.490 . S
C384 H374 0.930 . S
C384 C383 1.400 . S
C384 C387 1.386 . S
H385 C401 0.930 . S
H386 C402 0.931 . S
C387 H375 0.929 . S
C387 C381 1.390 . S
C387 C384 1.386 . S
C388 C383 1.490 . S
C388 C390 1.395 . S
C388 C391 1.403 . S
H389 C395 0.930 . S
C390 H376 0.930 . S
C390 C388 1.395 . S
C390 C393 1.403 . S
C391 C388 1.403 . S
C391 C392 1.524 . S
C391 C395 1.400 . S
C392 H377 0.960 . S
C392 H378 0.960 . S
C392 H379 0.960 . S
C392 C391 1.524 . S
C393 C390 1.403 . S
C393 C394 1.392 . S
C393 C397 1.495 . S
C394 C393 1.392 . S
C394 C395 1.385 . S
C394 C396 1.478 . S
C395 H389 0.930 . S
C395 C391 1.400 . S
C395 C394 1.385 . S
C396 C394 1.478 . S
C396 C398 1.381 . S
C396 C402 1.383 . S
C397 C393 1.495 . S
C397 H403 0.959 . S
C397 H404 0.961 . S
C397 H405 0.960 . S
C398 C396 1.381 . S
C398 C399 1.394 . S
C398 H406 0.930 . S
C399 C398 1.394 . S
C399 C400 1.383 . S
C399 H407 0.929 . S
C400 C399 1.383 . S
C400 C401 1.377 . S
C401 H385 0.930 . S
C401 C400 1.377 . S
C401 C402 1.379 . S
C402 H386 0.931 . S
C402 C396 1.383 . S
C402 C401 1.379 . S
H403 C397 0.959 . S
H404 C397 0.961 . S
H405 C397 0.960 . S
H406 C398 0.930 . S
H407 C399 0.929 . S
H408 C416 0.929 . S
H409 C418 0.930 . S
H410 C420 0.930 . S
H411 C423 0.929 . S
H412 C426 0.930 . S
H413 C428 0.960 . S
H414 C428 0.960 . S
H415 C428 0.960 . S
C416 H408 0.929 . S
C416 C417 1.377 . S
C416 C418 1.384 . S
C417 C416 1.377 . S
C417 C423 1.390 . S
C418 H409 0.930 . S
C418 C416 1.384 . S
C418 C419 1.372 . S
C419 C418 1.372 . S
C419 C420 1.400 . S
C419 C424 1.490 . S
C420 H410 0.930 . S
C420 C419 1.400 . S
C420 C423 1.386 . S
H421 C437 0.930 . S
H422 C438 0.931 . S
C423 H411 0.929 . S
C423 C417 1.390 . S
C423 C420 1.386 . S
C424 C419 1.490 . S
C424 C426 1.395 . S
C424 C427 1.403 . S
H425 C431 0.930 . S
C426 H412 0.930 . S
C426 C424 1.395 . S
C426 C429 1.403 . S
C427 C424 1.403 . S
C427 C428 1.524 . S
C427 C431 1.400 . S
C428 H413 0.960 . S
C428 H414 0.960 . S
C428 H415 0.960 . S
C428 C427 1.524 . S
C429 C426 1.403 . S
C429 C430 1.392 . S
C429 C433 1.495 . S
C430 C429 1.392 . S
C430 C431 1.385 . S
C430 C432 1.478 . S
C431 H425 0.930 . S
C431 C427 1.400 . S
C431 C430 1.385 . S
C432 C430 1.478 . S
C432 C434 1.381 . S
C432 C438 1.383 . S
C433 C429 1.495 . S
C433 H439 0.959 . S
C433 H440 0.961 . S
C433 H441 0.960 . S
C434 C432 1.381 . S
C434 C435 1.394 . S
C434 H442 0.930 . S
C435 C434 1.394 . S
C435 C436 1.383 . S
C435 H443 0.929 . S
C436 C435 1.383 . S
C436 C437 1.377 . S
C437 H421 0.930 . S
C437 C436 1.377 . S
C437 C438 1.379 . S
C438 H422 0.931 . S
C438 C432 1.383 . S
C438 C437 1.379 . S
H439 C433 0.959 . S
H440 C433 0.961 . S
H441 C433 0.960 . S
H442 C434 0.930 . S
H443 C435 0.929 . S
H444 C452 0.929 . S
H445 C454 0.930 . S
H446 C456 0.930 . S
H447 C459 0.929 . S
H448 C462 0.930 . S
H449 C464 0.960 . S
H450 C464 0.960 . S
H451 C464 0.960 . S
C452 H444 0.929 . S
C452 C453 1.377 . S
C452 C454 1.384 . S
C453 C452 1.377 . S
C453 C459 1.390 . S
C454 H445 0.930 . S
C454 C452 1.384 . S
C454 C455 1.372 . S
C455 C454 1.372 . S
C455 C456 1.400 . S
C455 C460 1.490 . S
C456 H446 0.930 . S
C456 C455 1.400 . S
C456 C459 1.386 . S
H457 C473 0.930 . S
H458 C474 0.931 . S
C459 H447 0.929 . S
C459 C453 1.390 . S
C459 C456 1.386 . S
C460 C455 1.490 . S
C460 C462 1.395 . S
C460 C463 1.403 . S
H461 C467 0.930 . S
C462 H448 0.930 . S
C462 C460 1.395 . S
C462 C465 1.403 . S
C463 C460 1.403 . S
C463 C464 1.524 . S
C463 C467 1.400 . S
C464 H449 0.960 . S
C464 H450 0.960 . S
C464 H451 0.960 . S
C464 C463 1.524 . S
C465 C462 1.403 . S
C465 C466 1.392 . S
C465 C469 1.495 . S
C466 C465 1.392 . S
C466 C467 1.385 . S
C466 C468 1.478 . S
C467 H461 0.930 . S
C467 C463 1.400 . S
C467 C466 1.385 . S
C468 C466 1.478 . S
C468 C470 1.381 . S
C468 C474 1.383 . S
C469 C465 1.495 . S
C469 H475 0.959 . S
C469 H476 0.961 . S
C469 H477 0.960 . S
C470 C468 1.381 . S
C470 C471 1.394 . S
C470 H478 0.930 . S
C471 C470 1.394 . S
C471 C472 1.383 . S
C471 H479 0.929 . S
C472 C471 1.383 . S
C472 C473 1.377 . S
C473 H457 0.930 . S
C473 C472 1.377 . S
C473 C474 1.379 . S
C474 H458 0.931 . S
C474 C468 1.383 . S
C474 C473 1.379 . S
H475 C469 0.959 . S
H476 C469 0.961 . S
H477 C469 0.960 . S
H478 C470 0.930 . S
H479 C471 0.929 . S
H480 C488 0.929 . S
H481 C490 0.930 . S
H482 C492 0.930 . S
H483 C495 0.929 . S
H484 C498 0.930 . S
H485 C500 0.960 . S
H486 C500 0.960 . S
H487 C500 0.960 . S
C488 H480 0.929 . S
C488 C489 1.377 . S
C488 C490 1.384 . S
C489 C488 1.377 . S
C489 C495 1.390 . S
C490 H481 0.930 . S
C490 C488 1.384 . S
C490 C491 1.372 . S
C491 C490 1.372 . S
C491 C492 1.400 . S
C491 C496 1.490 . S
C492 H482 0.930 . S
C492 C491 1.400 . S
C492 C495 1.386 . S
H493 C509 0.930 . S
H494 C510 0.931 . S
C495 H483 0.929 . S
C495 C489 1.390 . S
C495 C492 1.386 . S
C496 C491 1.490 . S
C496 C498 1.395 . S
C496 C499 1.403 . S
H497 C503 0.930 . S
C498 H484 0.930 . S
C498 C496 1.395 . S
C498 C501 1.403 . S
C499 C496 1.403 . S
C499 C500 1.524 . S
C499 C503 1.400 . S
C500 H485 0.960 . S
C500 H486 0.960 . S
C500 H487 0.960 . S
C500 C499 1.524 . S
C501 C498 1.403 . S
C501 C502 1.392 . S
C501 C505 1.495 . S
C502 C501 1.392 . S
C502 C503 1.385 . S
C502 C504 1.478 . S
C503 H497 0.930 . S
C503 C499 1.400 . S
C503 C502 1.385 . S
C504 C502 1.478 . S
C504 C506 1.381 . S
C504 C510 1.383 . S
C505 C501 1.495 . S
C505 H511 0.959 . S
C505 H512 0.961 . S
C505 H513 0.960 . S
C506 C504 1.381 . S
C506 C507 1.394 . S
C506 H514 0.930 . S
C507 C506 1.394 . S
C507 C508 1.383 . S
C507 H515 0.929 . S
C508 C507 1.383 . S
C508 C509 1.377 . S
C509 H493 0.930 . S
C509 C508 1.377 . S
C509 C510 1.379 . S
C510 H494 0.931 . S
C510 C504 1.383 . S
C510 C509 1.379 . S
H511 C505 0.959 . S
H512 C505 0.961 . S
H513 C505 0.960 . S
H514 C506 0.930 . S
H515 C507 0.929 . S
H516 C524 0.929 . S
H517 C526 0.930 . S
H518 C528 0.930 . S
H519 C531 0.929 . S
H520 C534 0.930 . S
H521 C536 0.960 . S
H522 C536 0.960 . S
H523 C536 0.960 . S
C524 H516 0.929 . S
C524 C525 1.377 . S
C524 C526 1.384 . S
C525 C524 1.377 . S
C525 C531 1.390 . S
C526 H517 0.930 . S
C526 C524 1.384 . S
C526 C527 1.372 . S
C527 C526 1.372 . S
C527 C528 1.400 . S
C527 C532 1.490 . S
C528 H518 0.930 . S
C528 C527 1.400 . S
C528 C531 1.386 . S
H529 C545 0.930 . S
H530 C546 0.931 . S
C531 H519 0.929 . S
C531 C525 1.390 . S
C531 C528 1.386 . S
C532 C527 1.490 . S
C532 C534 1.395 . S
C532 C535 1.403 . S
H533 C539 0.930 . S
C534 H520 0.930 . S
C534 C532 1.395 . S
C534 C537 1.403 . S
C535 C532 1.403 . S
C535 C536 1.524 . S
C535 C539 1.400 . S
C536 H521 0.960 . S
C536 H522 0.960 . S
C536 H523 0.960 . S
C536 C535 1.524 . S
C537 C534 1.403 . S
C537 C538 1.392 . S
C537 C541 1.495 . S
C538 C537 1.392 . S
C538 C539 1.385 . S
C538 C540 1.478 . S
C539 H533 0.930 . S
C539 C535 1.400 . S
C539 C538 1.385 . S
C540 C538 1.478 . S
C540 C542 1.381 . S
C540 C546 1.383 . S
C541 C537 1.495 . S
C541 H547 0.959 . S
C541 H548 0.961 . S
C541 H549 0.960 . S
C542 C540 1.381 . S
C542 C543 1.394 . S
C542 H550 0.930 . S
C543 C542 1.394 . S
C543 C544 1.383 . S
C543 H551 0.929 . S
C544 C543 1.383 . S
C544 C545 1.377 . S
C545 H529 0.930 . S
C545 C544 1.377 . S
C545 C546 1.379 . S
C546 H530 0.931 . S
C546 C540 1.383 . S
C546 C545 1.379 . S
H547 C541 0.959 . S
H548 C541 0.961 . S
H549 C541 0.960 . S
H550 C542 0.930 . S
H551 C543 0.929 . S
H552 C560 0.929 . S
H553 C562 0.930 . S
H554 C564 0.930 . S
H555 C567 0.929 . S
H556 C570 0.930 . S
H557 C572 0.960 . S
H558 C572 0.960 . S
H559 C572 0.960 . S
C560 H552 0.929 . S
C560 C561 1.377 . S
C560 C562 1.384 . S
C561 C560 1.377 . S
C561 C567 1.390 . S
C562 H553 0.930 . S
C562 C560 1.384 . S
C562 C563 1.372 . S
C563 C562 1.372 . S
C563 C564 1.400 . S
C563 C568 1.490 . S
C564 H554 0.930 . S
C564 C563 1.400 . S
C564 C567 1.386 . S
H565 C581 0.930 . S
H566 C582 0.931 . S
C567 H555 0.929 . S
C567 C561 1.390 . S
C567 C564 1.386 . S
C568 C563 1.490 . S
C568 C570 1.395 . S
C568 C571 1.403 . S
H569 C575 0.930 . S
C570 H556 0.930 . S
C570 C568 1.395 . S
C570 C573 1.403 . S
C571 C568 1.403 . S
C571 C572 1.524 . S
C571 C575 1.400 . S
C572 H557 0.960 . S
C572 H558 0.960 . S
C572 H559 0.960 . S
C572 C571 1.524 . S
C573 C570 1.403 . S
C573 C574 1.392 . S
C573 C577 1.495 . S
C574 C573 1.392 . S
C574 C575 1.385 . S
C574 C576 1.478 . S
C575 H569 0.930 . S
C575 C571 1.400 . S
C575 C574 1.385 . S
C576 C574 1.478 . S
C576 C578 1.381 . S
C576 C582 1.383 . S
C577 C573 1.495 . S
C577 H583 0.959 . S
C577 H584 0.961 . S
C577 H585 0.960 . S
C578 C576 1.381 . S
C578 C579 1.394 . S
C578 H586 0.930 . S
C579 C578 1.394 . S
C579 C580 1.383 . S
C579 H587 0.929 . S
C580 C579 1.383 . S
C580 C581 1.377 . S
C581 H565 0.930 . S
C581 C580 1.377 . S
C581 C582 1.379 . S
C582 H566 0.931 . S
C582 C576 1.383 . S
C582 C581 1.379 . S
H583 C577 0.959 . S
H584 C577 0.961 . S
H585 C577 0.960 . S
H586 C578 0.930 . S
H587 C579 0.929 . S
H588 C596 0.929 . S
H589 C598 0.930 . S
H590 C600 0.930 . S
H591 C603 0.929 . S
H592 C606 0.930 . S
H593 C608 0.960 . S
H594 C608 0.960 . S
H595 C608 0.960 . S
C596 H588 0.929 . S
C596 C597 1.377 . S
C596 C598 1.384 . S
C597 C596 1.377 . S
C597 C603 1.390 . S
C598 H589 0.930 . S
C598 C596 1.384 . S
C598 C599 1.372 . S
C599 C598 1.372 . S
C599 C600 1.400 . S
C599 C604 1.490 . S
C600 H590 0.930 . S
C600 C599 1.400 . S
C600 C603 1.386 . S
H601 C617 0.930 . S
H602 C618 0.931 . S
C603 H591 0.929 . S
C603 C597 1.390 . S
C603 C600 1.386 . S
C604 C599 1.490 . S
C604 C606 1.395 . S
C604 C607 1.403 . S
H605 C611 0.930 . S
C606 H592 0.930 . S
C606 C604 1.395 . S
C606 C609 1.403 . S
C607 C604 1.403 . S
C607 C608 1.524 . S
C607 C611 1.400 . S
C608 H593 0.960 . S
C608 H594 0.960 . S
C608 H595 0.960 . S
C608 C607 1.524 . S
C609 C606 1.403 . S
C609 C610 1.392 . S
C609 C613 1.495 . S
C610 C609 1.392 . S
C610 C611 1.385 . S
C610 C612 1.478 . S
C611 H605 0.930 . S
C611 C607 1.400 . S
C611 C610 1.385 . S
C612 C610 1.478 . S
C612 C614 1.381 . S
C612 C618 1.383 . S
C613 C609 1.495 . S
C613 H619 0.959 . S
C613 H620 0.961 . S
C613 H621 0.960 . S
C614 C612 1.381 . S
C614 C615 1.394 . S
C614 H622 0.930 . S
C615 C614 1.394 . S
C615 C616 1.383 . S
C615 H623 0.929 . S
C616 C615 1.383 . S
C616 C617 1.377 . S
C617 H601 0.930 . S
C617 C616 1.377 . S
C617 C618 1.379 . S
C618 H602 0.931 . S
C618 C612 1.383 . S
C618 C617 1.379 . S
H619 C613 0.959 . S
H620 C613 0.961 . S
H621 C613 0.960 . S
H622 C614 0.930 . S
H623 C615 0.929 . S
H624 C632 0.929 . S
H625 C634 0.930 . S
H626 C636 0.930 . S
H627 C639 0.929 . S
H628 C642 0.930 . S
H629 C644 0.960 . S
H630 C644 0.960 . S
H631 C644 0.960 . S
C632 H624 0.929 . S
C632 C633 1.377 . S
C632 C634 1.384 . S
C633 C632 1.377 . S
C633 C639 1.390 . S
C634 H625 0.930 . S
C634 C632 1.384 . S
C634 C635 1.372 . S
C635 C634 1.372 . S
C635 C636 1.400 . S
C635 C640 1.490 . S
C636 H626 0.930 . S
C636 C635 1.400 . S
C636 C639 1.386 . S
H637 C653 0.930 . S
H638 C654 0.931 . S
C639 H627 0.929 . S
C639 C633 1.390 . S
C639 C636 1.386 . S
C640 C635 1.490 . S
C640 C642 1.395 . S
C640 C643 1.403 . S
H641 C647 0.930 . S
C642 H628 0.930 . S
C642 C640 1.395 . S
C642 C645 1.403 . S
C643 C640 1.403 . S
C643 C644 1.524 . S
C643 C647 1.400 . S
C644 H629 0.960 . S
C644 H630 0.960 . S
C644 H631 0.960 . S
C644 C643 1.524 . S
C645 C642 1.403 . S
C645 C646 1.392 . S
C645 C649 1.495 . S
C646 C645 1.392 . S
C646 C647 1.385 . S
C646 C648 1.478 . S
C647 H641 0.930 . S
C647 C643 1.400 . S
C647 C646 1.385 . S
C648 C646 1.478 . S
C648 C650 1.381 . S
C648 C654 1.383 . S
C649 C645 1.495 . S
C649 H655 0.959 . S
C649 H656 0.961 . S
C649 H657 0.960 . S
C650 C648 1.381 . S
C650 C651 1.394 . S
C650 H658 0.930 . S
C651 C650 1.394 . S
C651 C652 1.383 . S
C651 H659 0.929 . S
C652 C651 1.383 . S
C652 C653 1.377 . S
C653 H637 0.930 . S
C653 C652 1.377 . S
C653 C654 1.379 . S
C654 H638 0.931 . S
C654 C648 1.383 . S
C654 C653 1.379 . S
H655 C649 0.959 . S
H656 C649 0.961 . S
H657 C649 0.960 . S
H658 C650 0.930 . S
H659 C651 0.929 . S
H660 C668 0.929 . S
H661 C670 0.930 . S
H662 C672 0.930 . S
H663 C675 0.929 . S
H664 C678 0.930 . S
H665 C680 0.960 . S
H666 C680 0.960 . S
H667 C680 0.960 . S
C668 H660 0.929 . S
C668 C669 1.377 . S
C668 C670 1.384 . S
C669 C668 1.377 . S
C669 C675 1.390 . S
C670 H661 0.930 . S
C670 C668 1.384 . S
C670 C671 1.372 . S
C671 C670 1.372 . S
C671 C672 1.400 . S
C671 C676 1.490 . S
C672 H662 0.930 . S
C672 C671 1.400 . S
C672 C675 1.386 . S
H673 C689 0.930 . S
H674 C690 0.931 . S
C675 H663 0.929 . S
C675 C669 1.390 . S
C675 C672 1.386 . S
C676 C671 1.490 . S
C676 C678 1.395 . S
C676 C679 1.403 . S
H677 C683 0.930 . S
C678 H664 0.930 . S
C678 C676 1.395 . S
C678 C681 1.403 . S
C679 C676 1.403 . S
C679 C680 1.524 . S
C679 C683 1.400 . S
C680 H665 0.960 . S
C680 H666 0.960 . S
C680 H667 0.960 . S
C680 C679 1.524 . S
C681 C678 1.403 . S
C681 C682 1.392 . S
C681 C685 1.495 . S
C682 C681 1.392 . S
C682 C683 1.385 . S
C682 C684 1.478 . S
C683 H677 0.930 . S
C683 C679 1.400 . S
C683 C682 1.385 . S
C684 C682 1.478 . S
C684 C686 1.381 . S
C684 C690 1.383 . S
C685 C681 1.495 . S
C685 H691 0.959 . S
C685 H692 0.961 . S
C685 H693 0.960 . S
C686 C684 1.381 . S
C686 C687 1.394 . S
C686 H694 0.930 . S
C687 C686 1.394 . S
C687 C688 1.383 . S
C687 H695 0.929 . S
C688 C687 1.383 . S
C688 C689 1.377 . S
C689 H673 0.930 . S
C689 C688 1.377 . S
C689 C690 1.379 . S
C690 H674 0.931 . S
C690 C684 1.383 . S
C690 C689 1.379 . S
H691 C685 0.959 . S
H692 C685 0.961 . S
H693 C685 0.960 . S
H694 C686 0.930 . S
H695 C687 0.929 . S
H696 C704 0.929 . S
H697 C706 0.930 . S
H698 C708 0.930 . S
H699 C711 0.929 . S
H700 C714 0.930 . S
H701 C716 0.960 . S
H702 C716 0.960 . S
H703 C716 0.960 . S
C704 H696 0.929 . S
C704 C705 1.377 . S
C704 C706 1.384 . S
C705 C704 1.377 . S
C705 C711 1.390 . S
C706 H697 0.930 . S
C706 C704 1.384 . S
C706 C707 1.372 . S
C707 C706 1.372 . S
C707 C708 1.400 . S
C707 C712 1.490 . S
C708 H698 0.930 . S
C708 C707 1.400 . S
C708 C711 1.386 . S
H709 C725 0.930 . S
H710 C726 0.931 . S
C711 H699 0.929 . S
C711 C705 1.390 . S
C711 C708 1.386 . S
C712 C707 1.490 . S
C712 C714 1.395 . S
C712 C715 1.403 . S
H713 C719 0.930 . S
C714 H700 0.930 . S
C714 C712 1.395 . S
C714 C717 1.403 . S
C715 C712 1.403 . S
C715 C716 1.524 . S
C715 C719 1.400 . S
C716 H701 0.960 . S
C716 H702 0.960 . S
C716 H703 0.960 . S
C716 C715 1.524 . S
C717 C714 1.403 . S
C717 C718 1.392 . S
C717 C721 1.495 . S
C718 C717 1.392 . S
C718 C719 1.385 . S
C718 C720 1.478 . S
C719 H713 0.930 . S
C719 C715 1.400 . S
C719 C718 1.385 . S
C720 C718 1.478 . S
C720 C722 1.381 . S
C720 C726 1.383 . S
C721 C717 1.495 . S
C721 H727 0.959 . S
C721 H728 0.961 . S
C721 H729 0.960 . S
C722 C720 1.381 . S
C722 C723 1.394 . S
C722 H730 0.930 . S
C723 C722 1.394 . S
C723 C724 1.383 . S
C723 H731 0.929 . S
C724 C723 1.383 . S
C724 C725 1.377 . S
C725 H709 0.930 . S
C725 C724 1.377 . S
C725 C726 1.379 . S
C726 H710 0.931 . S
C726 C720 1.383 . S
C726 C725 1.379 . S
H727 C721 0.959 . S
H728 C721 0.961 . S
H729 C721 0.960 . S
H730 C722 0.930 . S
H731 C723 0.929 . S
H732 C740 0.929 . S
H733 C742 0.930 . S
H734 C744 0.930 . S
H735 C747 0.929 . S
H736 C750 0.930 . S
H737 C752 0.960 . S
H738 C752 0.960 . S
H739 C752 0.960 . S
C740 H732 0.929 . S
C740 C741 1.377 . S
C740 C742 1.384 . S
C741 C740 1.377 . S
C741 C747 1.390 . S
C742 H733 0.930 . S
C742 C740 1.384 . S
C742 C743 1.372 . S
C743 C742 1.372 . S
C743 C744 1.400 . S
C743 C748 1.490 . S
C744 H734 0.930 . S
C744 C743 1.400 . S
C744 C747 1.386 . S
H745 C761 0.930 . S
H746 C762 0.931 . S
C747 H735 0.929 . S
C747 C741 1.390 . S
C747 C744 1.386 . S
C748 C743 1.490 . S
C748 C750 1.395 . S
C748 C751 1.403 . S
H749 C755 0.930 . S
C750 H736 0.930 . S
C750 C748 1.395 . S
C750 C753 1.403 . S
C751 C748 1.403 . S
C751 C752 1.524 . S
C751 C755 1.400 . S
C752 H737 0.960 . S
C752 H738 0.960 . S
C752 H739 0.960 . S
C752 C751 1.524 . S
C753 C750 1.403 . S
C753 C754 1.392 . S
C753 C757 1.495 . S
C754 C753 1.392 . S
C754 C755 1.385 . S
C754 C756 1.478 . S
C755 H749 0.930 . S
C755 C751 1.400 . S
C755 C754 1.385 . S
C756 C754 1.478 . S
C756 C758 1.381 . S
C756 C762 1.383 . S
C757 C753 1.495 . S
C757 H763 0.959 . S
C757 H764 0.961 . S
C757 H765 0.960 . S
C758 C756 1.381 . S
C758 C759 1.394 . S
C758 H766 0.930 . S
C759 C758 1.394 . S
C759 C760 1.383 . S
C759 H767 0.929 . S
C760 C759 1.383 . S
C760 C761 1.377 . S
C761 H745 0.930 . S
C761 C760 1.377 . S
C761 C762 1.379 . S
C762 H746 0.931 . S
C762 C756 1.383 . S
C762 C761 1.379 . S
H763 C757 0.959 . S
H764 C757 0.961 . S
H765 C757 0.960 . S
H766 C758 0.930 . S
H767 C759 0.929 . S
H768 C776 0.929 . S
H769 C778 0.930 . S
H770 C780 0.930 . S
H771 C783 0.929 . S
H772 C786 0.930 . S
H773 C788 0.960 . S
H774 C788 0.960 . S
H775 C788 0.960 . S
C776 H768 0.929 . S
C776 C777 1.377 . S
C776 C778 1.384 . S
C777 C776 1.377 . S
C777 C783 1.390 . S
C778 H769 0.930 . S
C778 C776 1.384 . S
C778 C779 1.372 . S
C779 C778 1.372 . S
C779 C780 1.400 . S
C779 C784 1.490 . S
C780 H770 0.930 . S
C780 C779 1.400 . S
C780 C783 1.386 . S
H781 C797 0.930 . S
H782 C798 0.931 . S
C783 H771 0.929 . S
C783 C777 1.390 . S
C783 C780 1.386 . S
C784 C779 1.490 . S
C784 C786 1.395 . S
C784 C787 1.403 . S
H785 C791 0.930 . S
C786 H772 0.930 . S
C786 C784 1.395 . S
C786 C789 1.403 . S
C787 C784 1.403 . S
C787 C788 1.524 . S
C787 C791 1.400 . S
C788 H773 0.960 . S
C788 H774 0.960 . S
C788 H775 0.960 . S
C788 C787 1.524 . S
C789 C786 1.403 . S
C789 C790 1.392 . S
C789 C793 1.495 . S
C790 C789 1.392 . S
C790 C791 1.385 . S
C790 C792 1.478 . S
C791 H785 0.930 . S
C791 C787 1.400 . S
C791 C790 1.385 . S
C792 C790 1.478 . S
C792 C794 1.381 . S
C792 C798 1.383 . S
C793 C789 1.495 . S
C793 H799 0.959 . S
C793 H800 0.961 . S
C793 H801 0.960 . S
C794 C792 1.381 . S
C794 C795 1.394 . S
C794 H802 0.930 . S
C795 C794 1.394 . S
C795 C796 1.383 . S
C795 H803 0.929 . S
C796 C795 1.383 . S
C796 C797 1.377 . S
C797 H781 0.930 . S
C797 C796 1.377 . S
C797 C798 1.379 . S
C798 H782 0.931 . S
C798 C792 1.383 . S
C798 C797 1.379 . S
H799 C793 0.959 . S
H800 C793 0.961 . S
H801 C793 0.960 . S
H802 C794 0.930 . S
H803 C795 0.929 . S
H804 C812 0.929 . S
H805 C814 0.930 . S
H806 C816 0.930 . S
H807 C819 0.929 . S
H808 C822 0.930 . S
H809 C824 0.960 . S
H810 C824 0.960 . S
H811 C824 0.960 . S
C812 H804 0.929 . S
C812 C813 1.377 . S
C812 C814 1.384 . S
C813 C812 1.377 . S
C813 C819 1.390 . S
C814 H805 0.930 . S
C814 C812 1.384 . S
C814 C815 1.372 . S
C815 C814 1.372 . S
C815 C816 1.400 . S
C815 C820 1.490 . S
C816 H806 0.930 . S
C816 C815 1.400 . S
C816 C819 1.386 . S
H817 C833 0.930 . S
H818 C834 0.931 . S
C819 H807 0.929 . S
C819 C813 1.390 . S
C819 C816 1.386 . S
C820 C815 1.490 . S
C820 C822 1.395 . S
C820 C823 1.403 . S
H821 C827 0.930 . S
C822 H808 0.930 . S
C822 C820 1.395 . S
C822 C825 1.403 . S
C823 C820 1.403 . S
C823 C824 1.524 . S
C823 C827 1.400 . S
C824 H809 0.960 . S
C824 H810 0.960 . S
C824 H811 0.960 . S
C824 C823 1.524 . S
C825 C822 1.403 . S
C825 C826 1.392 . S
C825 C829 1.495 . S
C826 C825 1.392 . S
C826 C827 1.385 . S
C826 C828 1.478 . S
C827 H821 0.930 . S
C827 C823 1.400 . S
C827 C826 1.385 . S
C828 C826 1.478 . S
C828 C830 1.381 . S
C828 C834 1.383 . S
C829 C825 1.495 . S
C829 H835 0.959 . S
C829 H836 0.961 . S
C829 H837 0.960 . S
C830 C828 1.381 . S
C830 C831 1.394 . S
C830 H838 0.930 . S
C831 C830 1.394 . S
C831 C832 1.383 . S
C831 H839 0.929 . S
C832 C831 1.383 . S
C832 C833 1.377 . S
C833 H817 0.930 . S
C833 C832 1.377 . S
C833 C834 1.379 . S
C834 H818 0.931 . S
C834 C828 1.383 . S
C834 C833 1.379 . S
H835 C829 0.959 . S
H836 C829 0.961 . S
H837 C829 0.960 . S
H838 C830 0.930 . S
H839 C831 0.929 . S
H840 C848 0.929 . S
H841 C850 0.930 . S
H842 C852 0.930 . S
H843 C855 0.929 . S
H844 C858 0.930 . S
H845 C860 0.960 . S
H846 C860 0.960 . S
H847 C860 0.960 . S
C848 H840 0.929 . S
C848 C849 1.377 . S
C848 C850 1.384 . S
C849 C848 1.377 . S
C849 C855 1.390 . S
C850 H841 0.930 . S
C850 C848 1.384 . S
C850 C851 1.372 . S
C851 C850 1.372 . S
C851 C852 1.400 . S
C851 C856 1.490 . S
C852 H842 0.930 . S
C852 C851 1.400 . S
C852 C855 1.386 . S
H853 C869 0.930 . S
H854 C870 0.931 . S
C855 H843 0.929 . S
C855 C849 1.390 . S
C855 C852 1.386 . S
C856 C851 1.490 . S
C856 C858 1.395 . S
C856 C859 1.403 . S
H857 C863 0.930 . S
C858 H844 0.930 . S
C858 C856 1.395 . S
C858 C861 1.403 . S
C859 C856 1.403 . S
C859 C860 1.524 . S
C859 C863 1.400 . S
C860 H845 0.960 . S
C860 H846 0.960 . S
C860 H847 0.960 . S
C860 C859 1.524 . S
C861 C858 1.403 . S
C861 C862 1.392 . S
C861 C865 1.495 . S
C862 C861 1.392 . S
C862 C863 1.385 . S
C862 C864 1.478 . S
C863 H857 0.930 . S
C863 C859 1.400 . S
C863 C862 1.385 . S
C864 C862 1.478 . S
C864 C866 1.381 . S
C864 C870 1.383 . S
C865 C861 1.495 . S
C865 H871 0.959 . S
C865 H872 0.961 . S
C865 H873 0.960 . S
C866 C864 1.381 . S
C866 C867 1.394 . S
C866 H874 0.930 . S
C867 C866 1.394 . S
C867 C868 1.383 . S
C867 H875 0.929 . S
C868 C867 1.383 . S
C868 C869 1.377 . S
C869 H853 0.930 . S
C869 C868 1.377 . S
C869 C870 1.379 . S
C870 H854 0.931 . S
C870 C864 1.383 . S
C870 C869 1.379 . S
H871 C865 0.959 . S
H872 C865 0.961 . S
H873 C865 0.960 . S
H874 C866 0.930 . S
H875 C867 0.929 . S
H876 C884 0.929 . S
H877 C886 0.930 . S
H878 C888 0.930 . S
H879 C891 0.929 . S
H880 C894 0.930 . S
H881 C896 0.960 . S
H882 C896 0.960 . S
H883 C896 0.960 . S
C884 H876 0.929 . S
C884 C885 1.377 . S
C884 C886 1.384 . S
C885 C884 1.377 . S
C885 C891 1.390 . S
C886 H877 0.930 . S
C886 C884 1.384 . S
C886 C887 1.372 . S
C887 C886 1.372 . S
C887 C888 1.400 . S
C887 C892 1.490 . S
C888 H878 0.930 . S
C888 C887 1.400 . S
C888 C891 1.386 . S
H889 C905 0.930 . S
H890 C906 0.931 . S
C891 H879 0.929 . S
C891 C885 1.390 . S
C891 C888 1.386 . S
C892 C887 1.490 . S
C892 C894 1.395 . S
C892 C895 1.403 . S
H893 C899 0.930 . S
C894 H880 0.930 . S
C894 C892 1.395 . S
C894 C897 1.403 . S
C895 C892 1.403 . S
C895 C896 1.524 . S
C895 C899 1.400 . S
C896 H881 0.960 . S
C896 H882 0.960 . S
C896 H883 0.960 . S
C896 C895 1.524 . S
C897 C894 1.403 . S
C897 C898 1.392 . S
C897 C901 1.495 . S
C898 C897 1.392 . S
C898 C899 1.385 . S
C898 C900 1.478 . S
C899 H893 0.930 . S
C899 C895 1.400 . S
C899 C898 1.385 . S
C900 C898 1.478 . S
C900 C902 1.381 . S
C900 C906 1.383 . S
C901 C897 1.495 . S
C901 H907 0.959 . S
C901 H908 0.961 . S
C901 H909 0.960 . S
C902 C900 1.381 . S
C902 C903 1.394 . S
C902 H910 0.930 . S
C903 C902 1.394 . S
C903 C904 1.383 . S
C903 H911 0.929 . S
C904 C903 1.383 . S
C904 C905 1.377 . S
C905 H889 0.930 . S
C905 C904 1.377 . S
C905 C906 1.379 . S
C906 H890 0.931 . S
C906 C900 1.383 . S
C906 C905 1.379 . S
H907 C901 0.959 . S
H908 C901 0.961 . S
H909 C901 0.960 . S
H910 C902 0.930 . S
H911 C903 0.929 . S
H912 C920 0.929 . S
H913 C922 0.930 . S
H914 C924 0.930 . S
H915 C927 0.929 . S
H916 C930 0.930 . S
H917 C932 0.960 . S
H918 C932 0.960 . S
H919 C932 0.960 . S
C920 H912 0.929 . S
C920 C921 1.377 . S
C920 C922 1.384 . S
C921 C920 1.377 . S
C921 C927 1.390 . S
C922 H913 0.930 . S
C922 C920 1.384 . S
C922 C923 1.372 . S
C923 C922 1.372 . S
C923 C924 1.400 . S
C923 C928 1.490 . S
C924 H914 0.930 . S
C924 C923 1.400 . S
C924 C927 1.386 . S
H925 C941 0.930 . S
H926 C942 0.931 . S
C927 H915 0.929 . S
C927 C921 1.390 . S
C927 C924 1.386 . S
C928 C923 1.490 . S
C928 C930 1.395 . S
C928 C931 1.403 . S
H929 C935 0.930 . S
C930 H916 0.930 . S
C930 C928 1.395 . S
C930 C933 1.403 . S
C931 C928 1.403 . S
C931 C932 1.524 . S
C931 C935 1.400 . S
C932 H917 0.960 . S
C932 H918 0.960 . S
C932 H919 0.960 . S
C932 C931 1.524 . S
C933 C930 1.403 . S
C933 C934 1.392 . S
C933 C937 1.495 . S
C934 C933 1.392 . S
C934 C935 1.385 . S
C934 C936 1.478 . S
C935 H929 0.930 . S
C935 C931 1.400 . S
C935 C934 1.385 . S
C936 C934 1.478 . S
C936 C938 1.381 . S
C936 C942 1.383 . S
C937 C933 1.495 . S
C937 H943 0.959 . S
C937 H944 0.961 . S
C937 H945 0.960 . S
C938 C936 1.381 . S
C938 C939 1.394 . S
C938 H946 0.930 . S
C939 C938 1.394 . S
C939 C940 1.383 . S
C939 H947 0.929 . S
C940 C939 1.383 . S
C940 C941 1.377 . S
C941 H925 0.930 . S
C941 C940 1.377 . S
C941 C942 1.379 . S
C942 H926 0.931 . S
C942 C936 1.383 . S
C942 C941 1.379 . S
H943 C937 0.959 . S
H944 C937 0.961 . S
H945 C937 0.960 . S
H946 C938 0.930 . S
H947 C939 0.929 . S
H948 C956 0.929 . S
H949 C958 0.930 . S
H950 C960 0.930 . S
H951 C963 0.929 . S
H952 C966 0.930 . S
H953 C968 0.960 . S
H954 C968 0.960 . S
H955 C968 0.960 . S
C956 H948 0.929 . S
C956 C957 1.377 . S
C956 C958 1.384 . S
C957 C956 1.377 . S
C957 C963 1.390 . S
C958 H949 0.930 . S
C958 C956 1.384 . S
C958 C959 1.372 . S
C959 C958 1.372 . S
C959 C960 1.400 . S
C959 C964 1.490 . S
C960 H950 0.930 . S
C960 C959 1.400 . S
C960 C963 1.386 . S
H961 C977 0.930 . S
H962 C978 0.931 . S
C963 H951 0.929 . S
C963 C957 1.390 . S
C963 C960 1.386 . S
C964 C959 1.490 . S
C964 C966 1.395 . S
C964 C967 1.403 . S
H965 C971 0.930 . S
C966 H952 0.930 . S
C966 C964 1.395 . S
C966 C969 1.403 . S
C967 C964 1.403 . S
C967 C968 1.524 . S
C967 C971 1.400 . S
C968 H953 0.960 . S
C968 H954 0.960 . S
C968 H955 0.960 . S
C968 C967 1.524 . S
C969 C966 1.403 . S
C969 C970 1.392 . S
C969 C973 1.495 . S
C970 C969 1.392 . S
C970 C971 1.385 . S
C970 C972 1.478 . S
C971 H965 0.930 . S
C971 C967 1.400 . S
C971 C970 1.385 . S
C972 C970 1.478 . S
C972 C974 1.381 . S
C972 C978 1.383 . S
C973 C969 1.495 . S
C973 H979 0.959 . S
C973 H980 0.961 . S
C973 H981 0.960 . S
C974 C972 1.381 . S
C974 C975 1.394 . S
C974 H982 0.930 . S
C975 C974 1.394 . S
C975 C976 1.383 . S
C975 H983 0.929 . S
C976 C975 1.383 . S
C976 C977 1.377 . S
C977 H961 0.930 . S
C977 C976 1.377 . S
C977 C978 1.379 . S
C978 H962 0.931 . S
C978 C972 1.383 . S
C978 C977 1.379 . S
H979 C973 0.959 . S
H980 C973 0.961 . S
H981 C973 0.960 . S
H982 C974 0.930 . S
H983 C975 0.929 . S
H984 C992 0.929 . S
H985 C994 0.930 . S
H986 C996 0.930 . S
H987 C999 0.929 . S
H988 C1002 0.930 . S
H989 C1004 0.960 . S
H990 C1004 0.960 . S
H991 C1004 0.960 . S
C992 H984 0.929 . S
C992 C993 1.377 . S
C992 C994 1.384 . S
C993 C992 1.377 . S
C993 C999 1.390 . S
C994 H985 0.930 . S
C994 C992 1.384 . S
C994 C995 1.372 . S
C995 C994 1.372 . S
C995 C996 1.400 . S
C995 C1000 1.490 . S
C996 H986 0.930 . S
C996 C995 1.400 . S
C996 C999 1.386 . S
H997 C1013 0.930 . S
H998 C1014 0.931 . S
C999 H987 0.929 . S
C999 C993 1.390 . S
C999 C996 1.386 . S
C1000 C995 1.490 . S
C1000 C1002 1.395 . S
C1000 C1003 1.403 . S
H1001 C1007 0.930 . S
C1002 H988 0.930 . S
C1002 C1000 1.395 . S
C1002 C1005 1.403 . S
C1003 C1000 1.403 . S
C1003 C1004 1.524 . S
C1003 C1007 1.400 . S
C1004 H989 0.960 . S
C1004 H990 0.960 . S
C1004 H991 0.960 . S
C1004 C1003 1.524 . S
C1005 C1002 1.403 . S
C1005 C1006 1.392 . S
C1005 C1009 1.495 . S
C1006 C1005 1.392 . S
C1006 C1007 1.385 . S
C1006 C1008 1.478 . S
C1007 H1001 0.930 . S
C1007 C1003 1.400 . S
C1007 C1006 1.385 . S
C1008 C1006 1.478 . S
C1008 C1010 1.381 . S
C1008 C1014 1.383 . S
C1009 C1005 1.495 . S
C1009 H1015 0.959 . S
C1009 H1016 0.961 . S
C1009 H1017 0.960 . S
C1010 C1008 1.381 . S
C1010 C1011 1.394 . S
C1010 H1018 0.930 . S
C1011 C1010 1.394 . S
C1011 C1012 1.383 . S
C1011 H1019 0.929 . S
C1012 C1011 1.383 . S
C1012 C1013 1.377 . S
C1013 H997 0.930 . S
C1013 C1012 1.377 . S
C1013 C1014 1.379 . S
C1014 H998 0.931 . S
C1014 C1008 1.383 . S
C1014 C1013 1.379 . S
H1015 C1009 0.959 . S
H1016 C1009 0.961 . S
H1017 C1009 0.960 . S
H1018 C1010 0.930 . S
H1019 C1011 0.929 . S
H1020 C1028 0.929 . S
H1021 C1030 0.930 . S
H1022 C1032 0.930 . S
H1023 C1035 0.929 . S
H1024 C1038 0.930 . S
H1025 C1040 0.960 . S
H1026 C1040 0.960 . S
H1027 C1040 0.960 . S
C1028 H1020 0.929 . S
C1028 C1029 1.377 . S
C1028 C1030 1.384 . S
C1029 C1028 1.377 . S
C1029 C1035 1.390 . S
C1030 H1021 0.930 . S
C1030 C1028 1.384 . S
C1030 C1031 1.372 . S
C1031 C1030 1.372 . S
C1031 C1032 1.400 . S
C1031 C1036 1.490 . S
C1032 H1022 0.930 . S
C1032 C1031 1.400 . S
C1032 C1035 1.386 . S
H1033 C1049 0.930 . S
H1034 C1050 0.931 . S
C1035 H1023 0.929 . S
C1035 C1029 1.390 . S
C1035 C1032 1.386 . S
C1036 C1031 1.490 . S
C1036 C1038 1.395 . S
C1036 C1039 1.403 . S
H1037 C1043 0.930 . S
C1038 H1024 0.930 . S
C1038 C1036 1.395 . S
C1038 C1041 1.403 . S
C1039 C1036 1.403 . S
C1039 C1040 1.524 . S
C1039 C1043 1.400 . S
C1040 H1025 0.960 . S
C1040 H1026 0.960 . S
C1040 H1027 0.960 . S
C1040 C1039 1.524 . S
C1041 C1038 1.403 . S
C1041 C1042 1.392 . S
C1041 C1045 1.495 . S
C1042 C1041 1.392 . S
C1042 C1043 1.385 . S
C1042 C1044 1.478 . S
C1043 H1037 0.930 . S
C1043 C1039 1.400 . S
C1043 C1042 1.385 . S
C1044 C1042 1.478 . S
C1044 C1046 1.381 . S
C1044 C1050 1.383 . S
C1045 C1041 1.495 . S
C1045 H1051 0.959 . S
C1045 H1052 0.961 . S
C1045 H1053 0.960 . S
C1046 C1044 1.381 . S
C1046 C1047 1.394 . S
C1046 H1054 0.930 . S
C1047 C1046 1.394 . S
C1047 C1048 1.383 . S
C1047 H1055 0.929 . S
C1048 C1047 1.383 . S
C1048 C1049 1.377 . S
C1049 H1033 0.930 . S
C1049 C1048 1.377 . S
C1049 C1050 1.379 . S
C1050 H1034 0.931 . S
C1050 C1044 1.383 . S
C1050 C1049 1.379 . S
H1051 C1045 0.959 . S
H1052 C1045 0.961 . S
H1053 C1045 0.960 . S
H1054 C1046 0.930 . S
H1055 C1047 0.929 . S
H1056 C1064 0.929 . S
H1057 C1066 0.930 . S
H1058 C1068 0.930 . S
H1059 C1071 0.929 . S
H1060 C1074 0.930 . S
H1061 C1076 0.960 . S
H1062 C1076 0.960 . S
H1063 C1076 0.960 . S
C1064 H1056 0.929 . S
C1064 C1065 1.377 . S
C1064 C1066 1.384 . S
C1065 C1064 1.377 . S
C1065 C1071 1.390 . S
C1066 H1057 0.930 . S
C1066 C1064 1.384 . S
C1066 C1067 1.372 . S
C1067 C1066 1.372 . S
C1067 C1068 1.400 . S
C1067 C1072 1.490 . S
C1068 H1058 0.930 . S
C1068 C1067 1.400 . S
C1068 C1071 1.386 . S
H1069 C1085 0.930 . S
H1070 C1086 0.931 . S
C1071 H1059 0.929 . S
C1071 C1065 1.390 . S
C1071 C1068 1.386 . S
C1072 C1067 1.490 . S
C1072 C1074 1.395 . S
C1072 C1075 1.403 . S
H1073 C1079 0.930 . S
C1074 H1060 0.930 . S
C1074 C1072 1.395 . S
C1074 C1077 1.403 . S
C1075 C1072 1.403 . S
C1075 C1076 1.524 . S
C1075 C1079 1.400 . S
C1076 H1061 0.960 . S
C1076 H1062 0.960 . S
C1076 H1063 0.960 . S
C1076 C1075 1.524 . S
C1077 C1074 1.403 . S
C1077 C1078 1.392 . S
C1077 C1081 1.495 . S
C1078 C1077 1.392 . S
C1078 C1079 1.385 . S
C1078 C1080 1.478 . S
C1079 H1073 0.930 . S
C1079 C1075 1.400 . S
C1079 C1078 1.385 . S
C1080 C1078 1.478 . S
C1080 C1082 1.381 . S
C1080 C1086 1.383 . S
C1081 C1077 1.495 . S
C1081 H1087 0.959 . S
C1081 H1088 0.961 . S
C1081 H1089 0.960 . S
C1082 C1080 1.381 . S
C1082 C1083 1.394 . S
C1082 H1090 0.930 . S
C1083 C1082 1.394 . S
C1083 C1084 1.383 . S
C1083 H1091 0.929 . S
C1084 C1083 1.383 . S
C1084 C1085 1.377 . S
C1085 H1069 0.930 . S
C1085 C1084 1.377 . S
C1085 C1086 1.379 . S
C1086 H1070 0.931 . S
C1086 C1080 1.383 . S
C1086 C1085 1.379 . S
H1087 C1081 0.959 . S
H1088 C1081 0.961 . S
H1089 C1081 0.960 . S
H1090 C1082 0.930 . S
H1091 C1083 0.929 . S
H1092 C1100 0.929 . S
H1093 C1102 0.930 . S
H1094 C1104 0.930 . S
H1095 C1107 0.929 . S
H1096 C1110 0.930 . S
H1097 C1112 0.960 . S
H1098 C1112 0.960 . S
H1099 C1112 0.960 . S
C1100 H1092 0.929 . S
C1100 C1101 1.377 . S
C1100 C1102 1.384 . S
C1101 C1100 1.377 . S
C1101 C1107 1.390 . S
C1102 H1093 0.930 . S
C1102 C1100 1.384 . S
C1102 C1103 1.372 . S
C1103 C1102 1.372 . S
C1103 C1104 1.400 . S
C1103 C1108 1.490 . S
C1104 H1094 0.930 . S
C1104 C1103 1.400 . S
C1104 C1107 1.386 . S
H1105 C1121 0.930 . S
H1106 C1122 0.931 . S
C1107 H1095 0.929 . S
C1107 C1101 1.390 . S
C1107 C1104 1.386 . S
C1108 C1103 1.490 . S
C1108 C1110 1.395 . S
C1108 C1111 1.403 . S
H1109 C1115 0.930 . S
C1110 H1096 0.930 . S
C1110 C1108 1.395 . S
C1110 C1113 1.403 . S
C1111 C1108 1.403 . S
C1111 C1112 1.524 . S
C1111 C1115 1.400 . S
C1112 H1097 0.960 . S
C1112 H1098 0.960 . S
C1112 H1099 0.960 . S
C1112 C1111 1.524 . S
C1113 C1110 1.403 . S
C1113 C1114 1.392 . S
C1113 C1117 1.495 . S
C1114 C1113 1.392 . S
C1114 C1115 1.385 . S
C1114 C1116 1.478 . S
C1115 H1109 0.930 . S
C1115 C1111 1.400 . S
C1115 C1114 1.385 . S
C1116 C1114 1.478 . S
C1116 C1118 1.381 . S
C1116 C1122 1.383 . S
C1117 C1113 1.495 . S
C1117 H1123 0.959 . S
C1117 H1124 0.961 . S
C1117 H1125 0.960 . S
C1118 C1116 1.381 . S
C1118 C1119 1.394 . S
C1118 H1126 0.930 . S
C1119 C1118 1.394 . S
C1119 C1120 1.383 . S
C1119 H1127 0.929 . S
C1120 C1119 1.383 . S
C1120 C1121 1.377 . S
C1121 H1105 0.930 . S
C1121 C1120 1.377 . S
C1121 C1122 1.379 . S
C1122 H1106 0.931 . S
C1122 C1116 1.383 . S
C1122 C1121 1.379 . S
H1123 C1117 0.959 . S
H1124 C1117 0.961 . S
H1125 C1117 0.960 . S
H1126 C1118 0.930 . S
H1127 C1119 0.929 . S
H1128 C1136 0.929 . S
H1129 C1138 0.930 . S
H1130 C1140 0.930 . S
H1131 C1143 0.929 . S
H1132 C1146 0.930 . S
H1133 C1148 0.960 . S
H1134 C1148 0.960 . S
H1135 C1148 0.960 . S
C1136 H1128 0.929 . S
C1136 C1137 1.377 . S
C1136 C1138 1.384 . S
C1137 C1136 1.377 . S
C1137 C1143 1.390 . S
C1138 H1129 0.930 . S
C1138 C1136 1.384 . S
C1138 C1139 1.372 . S
C1139 C1138 1.372 . S
C1139 C1140 1.400 . S
C1139 C1144 1.490 . S
C1140 H1130 0.930 . S
C1140 C1139 1.400 . S
C1140 C1143 1.386 . S
H1141 C1157 0.930 . S
H1142 C1158 0.931 . S
C1143 H1131 0.929 . S
C1143 C1137 1.390 . S
C1143 C1140 1.386 . S
C1144 C1139 1.490 . S
C1144 C1146 1.395 . S
C1144 C1147 1.403 . S
H1145 C1151 0.930 . S
C1146 H1132 0.930 . S
C1146 C1144 1.395 . S
C1146 C1149 1.403 . S
C1147 C1144 1.403 . S
C1147 C1148 1.524 . S
C1147 C1151 1.400 . S
C1148 H1133 0.960 . S
C1148 H1134 0.960 . S
C1148 H1135 0.960 . S
C1148 C1147 1.524 . S
C1149 C1146 1.403 . S
C1149 C1150 1.392 . S
C1149 C1153 1.495 . S
C1150 C1149 1.392 . S
C1150 C1151 1.385 . S
C1150 C1152 1.478 . S
C1151 H1145 0.930 . S
C1151 C1147 1.400 . S
C1151 C1150 1.385 . S
C1152 C1150 1.478 . S
C1152 C1154 1.381 . S
C1152 C1158 1.383 . S
C1153 C1149 1.495 . S
C1153 H1159 0.959 . S
C1153 H1160 0.961 . S
C1153 H1161 0.960 . S
C1154 C1152 1.381 . S
C1154 C1155 1.394 . S
C1154 H1162 0.930 . S
C1155 C1154 1.394 . S
C1155 C1156 1.383 . S
C1155 H1163 0.929 . S
C1156 C1155 1.383 . S
C1156 C1157 1.377 . S
C1157 H1141 0.930 . S
C1157 C1156 1.377 . S
C1157 C1158 1.379 . S
C1158 H1142 0.931 . S
C1158 C1152 1.383 . S
C1158 C1157 1.379 . S
H1159 C1153 0.959 . S
H1160 C1153 0.961 . S
H1161 C1153 0.960 . S
H1162 C1154 0.930 . S
H1163 C1155 0.929 . S
H1164 C1172 0.929 . S
H1165 C1174 0.930 . S
H1166 C1176 0.930 . S
H1167 C1179 0.929 . S
H1168 C1182 0.930 . S
H1169 C1184 0.960 . S
H1170 C1184 0.960 . S
H1171 C1184 0.960 . S
C1172 H1164 0.929 . S
C1172 C1173 1.377 . S
C1172 C1174 1.384 . S
C1173 C1172 1.377 . S
C1173 C1179 1.390 . S
C1174 H1165 0.930 . S
C1174 C1172 1.384 . S
C1174 C1175 1.372 . S
C1175 C1174 1.372 . S
C1175 C1176 1.400 . S
C1175 C1180 1.490 . S
C1176 H1166 0.930 . S
C1176 C1175 1.400 . S
C1176 C1179 1.386 . S
H1177 C1193 0.930 . S
H1178 C1194 0.931 . S
C1179 H1167 0.929 . S
C1179 C1173 1.390 . S
C1179 C1176 1.386 . S
C1180 C1175 1.490 . S
C1180 C1182 1.395 . S
C1180 C1183 1.403 . S
H1181 C1187 0.930 . S
C1182 H1168 0.930 . S
C1182 C1180 1.395 . S
C1182 C1185 1.403 . S
C1183 C1180 1.403 . S
C1183 C1184 1.524 . S
C1183 C1187 1.400 . S
C1184 H1169 0.960 . S
C1184 H1170 0.960 . S
C1184 H1171 0.960 . S
C1184 C1183 1.524 . S
C1185 C1182 1.403 . S
C1185 C1186 1.392 . S
C1185 C1189 1.495 . S
C1186 C1185 1.392 . S
C1186 C1187 1.385 . S
C1186 C1188 1.478 . S
C1187 H1181 0.930 . S
C1187 C1183 1.400 . S
C1187 C1186 1.385 . S
C1188 C1186 1.478 . S
C1188 C1190 1.381 . S
C1188 C1194 1.383 . S
C1189 C1185 1.495 . S
C1189 H1195 0.959 . S
C1189 H1196 0.961 . S
C1189 H1197 0.960 . S
C1190 C1188 1.381 . S
C1190 C1191 1.394 . S
C1190 H1198 0.930 . S
C1191 C1190 1.394 . S
C1191 C1192 1.383 . S
C1191 H1199 0.929 . S
C1192 C1191 1.383 . S
C1192 C1193 1.377 . S
C1193 H1177 0.930 . S
C1193 C1192 1.377 . S
C1193 C1194 1.379 . S
C1194 H1178 0.931 . S
C1194 C1188 1.383 . S
C1194 C1193 1.379 . S
H1195 C1189 0.959 . S
H1196 C1189 0.961 . S
H1197 C1189 0.960 . S
H1198 C1190 0.930 . S
H1199 C1191 0.929 . S
H1200 C1208 0.929 . S
H1201 C1210 0.930 . S
H1202 C1212 0.930 . S
H1203 C1215 0.929 . S
H1204 C1218 0.930 . S
H1205 C1220 0.960 . S
H1206 C1220 0.960 . S
H1207 C1220 0.960 . S
C1208 H1200 0.929 . S
C1208 C1209 1.377 . S
C1208 C1210 1.384 . S
C1209 C1208 1.377 . S
C1209 C1215 1.390 . S
C1210 H1201 0.930 . S
C1210 C1208 1.384 . S
C1210 C1211 1.372 . S
C1211 C1210 1.372 . S
C1211 C1212 1.400 . S
C1211 C1216 1.490 . S
C1212 H1202 0.930 . S
C1212 C1211 1.400 . S
C1212 C1215 1.386 . S
H1213 C1229 0.930 . S
H1214 C1230 0.931 . S
C1215 H1203 0.929 . S
C1215 C1209 1.390 . S
C1215 C1212 1.386 . S
C1216 C1211 1.490 . S
C1216 C1218 1.395 . S
C1216 C1219 1.403 . S
H1217 C1223 0.930 . S
C1218 H1204 0.930 . S
C1218 C1216 1.395 . S
C1218 C1221 1.403 . S
C1219 C1216 1.403 . S
C1219 C1220 1.524 . S
C1219 C1223 1.400 . S
C1220 H1205 0.960 . S
C1220 H1206 0.960 . S
C1220 H1207 0.960 . S
C1220 C1219 1.524 . S
C1221 C1218 1.403 . S
C1221 C1222 1.392 . S
C1221 C1225 1.495 . S
C1222 C1221 1.392 . S
C1222 C1223 1.385 . S
C1222 C1224 1.478 . S
C1223 H1217 0.930 . S
C1223 C1219 1.400 . S
C1223 C1222 1.385 . S
C1224 C1222 1.478 . S
C1224 C1226 1.381 . S
C1224 C1230 1.383 . S
C1225 C1221 1.495 . S
C1225 H1231 0.959 . S
C1225 H1232 0.961 . S
C1225 H1233 0.960 . S
C1226 C1224 1.381 . S
C1226 C1227 1.394 . S
C1226 H1234 0.930 . S
C1227 C1226 1.394 . S
C1227 C1228 1.383 . S
C1227 H1235 0.929 . S
C1228 C1227 1.383 . S
C1228 C1229 1.377 . S
C1229 H1213 0.930 . S
C1229 C1228 1.377 . S
C1229 C1230 1.379 . S
C1230 H1214 0.931 . S
C1230 C1224 1.383 . S
C1230 C1229 1.379 . S
H1231 C1225 0.959 . S
H1232 C1225 0.961 . S
H1233 C1225 0.960 . S
H1234 C1226 0.930 . S
H1235 C1227 0.929 . S
H1236 C1244 0.929 . S
H1237 C1246 0.930 . S
H1238 C1248 0.930 . S
H1239 C1251 0.929 . S
H1240 C1254 0.930 . S
H1241 C1256 0.960 . S
H1242 C1256 0.960 . S
H1243 C1256 0.960 . S
C1244 H1236 0.929 . S
C1244 C1245 1.377 . S
C1244 C1246 1.384 . S
C1245 C1244 1.377 . S
C1245 C1251 1.390 . S
C1246 H1237 0.930 . S
C1246 C1244 1.384 . S
C1246 C1247 1.372 . S
C1247 C1246 1.372 . S
C1247 C1248 1.400 . S
C1247 C1252 1.490 . S
C1248 H1238 0.930 . S
C1248 C1247 1.400 . S
C1248 C1251 1.386 . S
H1249 C1265 0.930 . S
H1250 C1266 0.931 . S
C1251 H1239 0.929 . S
C1251 C1245 1.390 . S
C1251 C1248 1.386 . S
C1252 C1247 1.490 . S
C1252 C1254 1.395 . S
C1252 C1255 1.403 . S
H1253 C1259 0.930 . S
C1254 H1240 0.930 . S
C1254 C1252 1.395 . S
C1254 C1257 1.403 1_554 S
C1255 C1252 1.403 . S
C1255 C1256 1.524 . S
C1255 C1259 1.400 1_554 S
C1256 H1241 0.960 . S
C1256 H1242 0.960 . S
C1256 H1243 0.960 . S
C1256 C1255 1.524 . S
C1257 C1254 1.403 1_556 S
C1257 C1258 1.392 . S
C1257 C1261 1.495 . S
C1258 C1257 1.392 . S
C1258 C1259 1.385 . S
C1258 C1260 1.478 . S
C1259 H1253 0.930 . S
C1259 C1255 1.400 1_556 S
C1259 C1258 1.385 . S
C1260 C1258 1.478 . S
C1260 C1262 1.381 . S
C1260 C1266 1.383 . S
C1261 C1257 1.495 . S
C1261 H1267 0.959 . S
C1261 H1268 0.961 . S
C1261 H1269 0.960 . S
C1262 C1260 1.381 . S
C1262 C1263 1.394 . S
C1262 H1270 0.930 . S
C1263 C1262 1.394 . S
C1263 C1264 1.383 . S
C1263 H1271 0.929 . S
C1264 C1263 1.383 . S
C1264 C1265 1.377 . S
C1265 H1249 0.930 . S
C1265 C1264 1.377 . S
C1265 C1266 1.379 . S
C1266 H1250 0.931 . S
C1266 C1260 1.383 . S
C1266 C1265 1.379 . S
H1267 C1261 0.959 . S
H1268 C1261 0.961 . S
H1269 C1261 0.960 . S
H1270 C1262 0.930 . S
H1271 C1263 0.929 . S
H1272 C1280 0.929 . S
H1273 C1282 0.930 . S
H1274 C1284 0.930 . S
H1275 C1287 0.929 . S
H1276 C1290 0.930 . S
H1277 C1292 0.960 . S
H1278 C1292 0.960 . S
H1279 C1292 0.960 . S
C1280 H1272 0.929 . S
C1280 C1281 1.377 . S
C1280 C1282 1.384 . S
C1281 C1280 1.377 . S
C1281 C1287 1.390 . S
C1282 H1273 0.930 . S
C1282 C1280 1.384 . S
C1282 C1283 1.372 . S
C1283 C1282 1.372 . S
C1283 C1284 1.400 . S
C1283 C1288 1.490 . S
C1284 H1274 0.930 . S
C1284 C1283 1.400 . S
C1284 C1287 1.386 . S
H1285 C1301 0.930 . S
H1286 C1302 0.931 . S
C1287 H1275 0.929 . S
C1287 C1281 1.390 . S
C1287 C1284 1.386 . S
C1288 C1283 1.490 . S
C1288 C1290 1.395 . S
C1288 C1291 1.403 . S
H1289 C1295 0.930 . S
C1290 H1276 0.930 . S
C1290 C1288 1.395 . S
C1290 C1293 1.403 . S
C1291 C1288 1.403 . S
C1291 C1292 1.524 . S
C1291 C1295 1.400 . S
C1292 H1277 0.960 . S
C1292 H1278 0.960 . S
C1292 H1279 0.960 . S
C1292 C1291 1.524 . S
C1293 C1290 1.403 . S
C1293 C1294 1.392 . S
C1293 C1297 1.495 . S
C1294 C1293 1.392 . S
C1294 C1295 1.385 . S
C1294 C1296 1.478 . S
C1295 H1289 0.930 . S
C1295 C1291 1.400 . S
C1295 C1294 1.385 . S
C1296 C1294 1.478 . S
C1296 C1298 1.381 . S
C1296 C1302 1.383 . S
C1297 C1293 1.495 . S
C1297 H1303 0.959 . S
C1297 H1304 0.961 . S
C1297 H1305 0.960 . S
C1298 C1296 1.381 . S
C1298 C1299 1.394 . S
C1298 H1306 0.930 . S
C1299 C1298 1.394 . S
C1299 C1300 1.383 . S
C1299 H1307 0.929 . S
C1300 C1299 1.383 . S
C1300 C1301 1.377 . S
C1301 H1285 0.930 . S
C1301 C1300 1.377 . S
C1301 C1302 1.379 . S
C1302 H1286 0.931 . S
C1302 C1296 1.383 . S
C1302 C1301 1.379 . S
H1303 C1297 0.959 . S
H1304 C1297 0.961 . S
H1305 C1297 0.960 . S
H1306 C1298 0.930 . S
H1307 C1299 0.929 . S
H1308 C1316 0.929 . S
H1309 C1318 0.930 . S
H1310 C1320 0.930 . S
H1311 C1323 0.929 . S
H1312 C1326 0.930 . S
H1313 C1328 0.960 1_556 S
H1314 C1328 0.960 . S
H1315 C1328 0.960 . S
C1316 H1308 0.929 . S
C1316 C1317 1.377 . S
C1316 C1318 1.384 . S
C1317 C1316 1.377 . S
C1317 C1323 1.390 . S
C1318 H1309 0.930 . S
C1318 C1316 1.384 . S
C1318 C1319 1.372 . S
C1319 C1318 1.372 . S
C1319 C1320 1.400 . S
C1319 C1324 1.490 . S
C1320 H1310 0.930 . S
C1320 C1319 1.400 . S
C1320 C1323 1.386 . S
H1321 C1337 0.930 . S
H1322 C1338 0.931 . S
C1323 H1311 0.929 . S
C1323 C1317 1.390 . S
C1323 C1320 1.386 . S
C1324 C1319 1.490 . S
C1324 C1326 1.395 . S
C1324 C1327 1.403 . S
H1325 C1331 0.930 . S
C1326 H1312 0.930 . S
C1326 C1324 1.395 . S
C1326 C1329 1.403 . S
C1327 C1324 1.403 . S
C1327 C1328 1.524 . S
C1327 C1331 1.400 1_554 S
C1328 H1313 0.960 1_554 S
C1328 H1314 0.960 . S
C1328 H1315 0.960 . S
C1328 C1327 1.524 . S
C1329 C1326 1.403 . S
C1329 C1330 1.392 1_554 S
C1329 C1333 1.490 1_554 S
C1330 C1329 1.392 1_556 S
C1330 C1331 1.385 . S
C1330 C1332 1.478 . S
C1331 H1325 0.930 . S
C1331 C1327 1.400 1_556 S
C1331 C1330 1.385 . S
C1332 C1330 1.478 . S
C1332 C1334 1.381 . S
C1332 C1338 1.383 . S
C1333 C1329 1.490 1_556 S
C1333 H1339 0.913 1_556 S
C1333 H1340 1.000 . S
C1333 H1341 0.975 . S
C1334 C1332 1.381 . S
C1334 C1335 1.394 . S
C1334 H1342 0.930 . S
C1335 C1334 1.394 . S
C1335 C1336 1.383 . S
C1335 H1343 0.929 . S
C1336 C1335 1.383 . S
C1336 C1337 1.377 . S
C1337 H1321 0.930 . S
C1337 C1336 1.377 . S
C1337 C1338 1.379 . S
C1338 H1322 0.931 . S
C1338 C1332 1.383 . S
C1338 C1337 1.379 . S
H1339 C1333 0.913 1_554 S
H1340 C1333 1.000 . S
H1341 C1333 0.975 . S
H1342 C1334 0.930 . S
H1343 C1335 0.929 . S
H1344 C1352 0.929 . S
H1345 C1354 0.930 . S
H1346 C1356 0.930 . S
H1347 C1359 0.929 . S
H1348 C1362 0.930 . S
H1349 C1364 0.960 . S
H1350 C1364 0.960 . S
H1351 C1364 0.960 . S
C1352 H1344 0.929 . S
C1352 C1353 1.377 . S
C1352 C1354 1.384 . S
C1353 C1352 1.377 . S
C1353 C1359 1.390 . S
C1354 H1345 0.930 . S
C1354 C1352 1.384 . S
C1354 C1355 1.372 . S
C1355 C1354 1.372 . S
C1355 C1356 1.400 . S
C1355 C1360 1.490 . S
C1356 H1346 0.930 . S
C1356 C1355 1.400 . S
C1356 C1359 1.386 . S
H1357 C1373 0.930 . S
H1358 C1374 0.931 . S
C1359 H1347 0.929 . S
C1359 C1353 1.390 . S
C1359 C1356 1.386 . S
C1360 C1355 1.490 . S
C1360 C1362 1.395 . S
C1360 C1363 1.403 . S
H1361 C1367 0.930 . S
C1362 H1348 0.930 . S
C1362 C1360 1.395 . S
C1362 C1365 1.403 . S
C1363 C1360 1.403 . S
C1363 C1364 1.524 . S
C1363 C1367 1.400 . S
C1364 H1349 0.960 . S
C1364 H1350 0.960 . S
C1364 H1351 0.960 . S
C1364 C1363 1.524 . S
C1365 C1362 1.403 . S
C1365 C1366 1.392 . S
C1365 C1369 1.495 . S
C1366 C1365 1.392 . S
C1366 C1367 1.385 . S
C1366 C1368 1.478 . S
C1367 H1361 0.930 . S
C1367 C1363 1.400 . S
C1367 C1366 1.385 . S
C1368 C1366 1.478 . S
C1368 C1370 1.381 . S
C1368 C1374 1.383 . S
C1369 C1365 1.495 . S
C1369 H1375 0.959 . S
C1369 H1376 0.961 . S
C1369 H1377 0.960 . S
C1370 C1368 1.381 . S
C1370 C1371 1.394 . S
C1370 H1378 0.930 . S
C1371 C1370 1.394 . S
C1371 C1372 1.383 . S
C1371 H1379 0.929 . S
C1372 C1371 1.383 . S
C1372 C1373 1.377 . S
C1373 H1357 0.930 . S
C1373 C1372 1.377 . S
C1373 C1374 1.379 . S
C1374 H1358 0.931 . S
C1374 C1368 1.383 . S
C1374 C1373 1.379 . S
H1375 C1369 0.959 . S
H1376 C1369 0.961 . S
H1377 C1369 0.960 . S
H1378 C1370 0.930 . S
H1379 C1371 0.929 . S
H1380 C1388 0.929 . S
H1381 C1390 0.930 . S
H1382 C1392 0.930 . S
H1383 C1395 0.929 . S
H1384 C1398 0.929 1_655 S
H1385 C1400 0.960 . S
H1386 C1400 0.960 . S
H1387 C1400 0.960 . S
C1388 H1380 0.929 . S
C1388 C1389 1.377 . S
C1388 C1390 1.384 . S
C1389 C1388 1.377 . S
C1389 C1395 1.390 . S
C1390 H1381 0.930 . S
C1390 C1388 1.384 . S
C1390 C1391 1.372 . S
C1391 C1390 1.372 . S
C1391 C1392 1.400 . S
C1391 C1396 1.490 . S
C1392 H1382 0.930 . S
C1392 C1391 1.400 . S
C1392 C1395 1.386 . S
H1393 C1409 0.930 . S
H1394 C1410 0.931 . S
C1395 H1383 0.929 . S
C1395 C1389 1.390 . S
C1395 C1392 1.386 . S
C1396 C1391 1.490 . S
C1396 C1398 1.391 1_655 S
C1396 C1399 1.403 . S
H1397 C1403 0.930 . S
C1398 H1384 0.929 1_455 S
C1398 C1396 1.391 1_455 S
C1398 C1401 1.408 . S
C1399 C1396 1.403 . S
C1399 C1400 1.524 . S
C1399 C1403 1.400 1_655 S
C1400 H1385 0.960 . S
C1400 H1386 0.960 . S
C1400 H1387 0.960 . S
C1400 C1399 1.524 . S
C1401 C1398 1.408 . S
C1401 C1402 1.392 . S
C1401 C1405 1.495 . S
C1402 C1401 1.392 . S
C1402 C1403 1.385 . S
C1402 C1404 1.478 . S
C1403 H1397 0.930 . S
C1403 C1399 1.400 1_455 S
C1403 C1402 1.385 . S
C1404 C1402 1.478 . S
C1404 C1406 1.381 . S
C1404 C1410 1.383 . S
C1405 C1401 1.495 . S
C1405 H1411 0.959 . S
C1405 H1412 0.961 . S
C1405 H1413 0.960 . S
C1406 C1404 1.381 . S
C1406 C1407 1.394 . S
C1406 H1414 0.930 . S
C1407 C1406 1.394 . S
C1407 C1408 1.383 . S
C1407 H1415 0.929 . S
C1408 C1407 1.383 . S
C1408 C1409 1.377 . S
C1409 H1393 0.930 . S
C1409 C1408 1.377 . S
C1409 C1410 1.379 . S
C1410 H1394 0.931 . S
C1410 C1404 1.383 . S
C1410 C1409 1.379 . S
H1411 C1405 0.959 . S
H1412 C1405 0.961 . S
H1413 C1405 0.960 . S
H1414 C1406 0.930 . S
H1415 C1407 0.929 . S
H1416 C1424 0.929 . S
H1417 C1426 0.930 . S
H1418 C1428 0.930 . S
H1419 C1431 0.929 . S
H1420 C1434 0.930 . S
H1421 C1436 0.960 . S
H1422 C1436 0.960 . S
H1423 C1436 0.960 . S
C1424 H1416 0.929 . S
C1424 C1425 1.377 . S
C1424 C1426 1.384 . S
C1425 C1424 1.377 . S
C1425 C1431 1.390 . S
C1426 H1417 0.930 . S
C1426 C1424 1.384 . S
C1426 C1427 1.372 . S
C1427 C1426 1.372 . S
C1427 C1428 1.400 . S
C1427 C1432 1.490 . S
C1428 H1418 0.930 . S
C1428 C1427 1.400 . S
C1428 C1431 1.386 . S
H1429 C1445 0.930 . S
H1430 C1446 0.931 . S
C1431 H1419 0.929 . S
C1431 C1425 1.390 . S
C1431 C1428 1.386 . S
C1432 C1427 1.490 . S
C1432 C1434 1.395 . S
C1432 C1435 1.403 . S
H1433 C1439 0.930 . S
C1434 H1420 0.930 . S
C1434 C1432 1.395 . S
C1434 C1437 1.403 1_455 S
C1435 C1432 1.403 . S
C1435 C1436 1.524 . S
C1435 C1439 1.400 1_455 S
C1436 H1421 0.960 . S
C1436 H1422 0.960 . S
C1436 H1423 0.960 . S
C1436 C1435 1.524 . S
C1437 C1434 1.403 1_655 S
C1437 C1438 1.392 . S
C1437 C1441 1.495 . S
C1438 C1437 1.392 . S
C1438 C1439 1.385 . S
C1438 C1440 1.478 . S
C1439 H1433 0.930 . S
C1439 C1435 1.400 1_655 S
C1439 C1438 1.385 . S
C1440 C1438 1.478 . S
C1440 C1442 1.381 . S
C1440 C1446 1.383 . S
C1441 C1437 1.495 . S
C1441 H1447 0.959 . S
C1441 H1448 0.961 . S
C1441 H1449 0.960 . S
C1442 C1440 1.381 . S
C1442 C1443 1.394 . S
C1442 H1450 0.930 . S
C1443 C1442 1.394 . S
C1443 C1444 1.383 . S
C1443 H1451 0.929 . S
C1444 C1443 1.383 . S
C1444 C1445 1.377 . S
C1445 H1429 0.930 . S
C1445 C1444 1.377 . S
C1445 C1446 1.379 . S
C1446 H1430 0.931 . S
C1446 C1440 1.383 . S
C1446 C1445 1.379 . S
H1447 C1441 0.959 . S
H1448 C1441 0.961 . S
H1449 C1441 0.960 . S
H1450 C1442 0.930 . S
H1451 C1443 0.929 . S
H1452 C1460 0.929 . S
H1453 C1462 0.930 . S
H1454 C1464 0.930 . S
H1455 C1467 0.929 . S
H1456 C1470 0.930 . S
H1457 C1472 0.960 . S
H1458 C1472 0.960 . S
H1459 C1472 0.960 . S
C1460 H1452 0.929 . S
C1460 C1461 1.377 . S
C1460 C1462 1.384 . S
C1461 C1460 1.377 . S
C1461 C1467 1.390 . S
C1462 H1453 0.930 . S
C1462 C1460 1.384 . S
C1462 C1463 1.372 . S
C1463 C1462 1.372 . S
C1463 C1464 1.400 . S
C1463 C1468 1.490 . S
C1464 H1454 0.930 . S
C1464 C1463 1.400 . S
C1464 C1467 1.386 . S
H1465 C1481 0.930 . S
H1466 C1482 0.931 . S
C1467 H1455 0.929 . S
C1467 C1461 1.390 . S
C1467 C1464 1.386 . S
C1468 C1463 1.490 . S
C1468 C1470 1.395 . S
C1468 C1471 1.403 . S
H1469 C1475 0.930 . S
C1470 H1456 0.930 . S
C1470 C1468 1.395 . S
C1470 C1473 1.403 . S
C1471 C1468 1.403 . S
C1471 C1472 1.524 . S
C1471 C1475 1.400 . S
C1472 H1457 0.960 . S
C1472 H1458 0.960 . S
C1472 H1459 0.960 . S
C1472 C1471 1.524 . S
C1473 C1470 1.403 . S
C1473 C1474 1.392 . S
C1473 C1477 1.495 . S
C1474 C1473 1.392 . S
C1474 C1475 1.385 . S
C1474 C1476 1.478 . S
C1475 H1469 0.930 . S
C1475 C1471 1.400 . S
C1475 C1474 1.385 . S
C1476 C1474 1.478 . S
C1476 C1478 1.381 . S
C1476 C1482 1.383 . S
C1477 C1473 1.495 . S
C1477 H1483 0.959 . S
C1477 H1484 0.961 . S
C1477 H1485 0.960 . S
C1478 C1476 1.381 . S
C1478 C1479 1.394 . S
C1478 H1486 0.930 . S
C1479 C1478 1.394 . S
C1479 C1480 1.383 . S
C1479 H1487 0.929 . S
C1480 C1479 1.383 . S
C1480 C1481 1.377 . S
C1481 H1465 0.930 . S
C1481 C1480 1.377 . S
C1481 C1482 1.379 . S
C1482 H1466 0.931 . S
C1482 C1476 1.383 . S
C1482 C1481 1.379 . S
H1483 C1477 0.959 . S
H1484 C1477 0.961 . S
H1485 C1477 0.960 . S
H1486 C1478 0.930 . S
H1487 C1479 0.929 . S
H1488 C1496 0.929 . S
H1489 C1498 0.930 . S
H1490 C1500 0.930 . S
H1491 C1503 0.929 . S
H1492 C1506 0.930 . S
H1493 C1508 0.960 . S
H1494 C1508 0.960 . S
H1495 C1508 0.960 . S
C1496 H1488 0.929 . S
C1496 C1497 1.377 . S
C1496 C1498 1.384 . S
C1497 C1496 1.377 . S
C1497 C1503 1.390 . S
C1498 H1489 0.930 . S
C1498 C1496 1.384 . S
C1498 C1499 1.372 . S
C1499 C1498 1.372 . S
C1499 C1500 1.400 . S
C1499 C1504 1.490 . S
C1500 H1490 0.930 . S
C1500 C1499 1.400 . S
C1500 C1503 1.386 . S
H1501 C1517 0.930 . S
H1502 C1518 0.931 . S
C1503 H1491 0.929 . S
C1503 C1497 1.390 . S
C1503 C1500 1.386 . S
C1504 C1499 1.490 . S
C1504 C1506 1.395 . S
C1504 C1507 1.403 . S
H1505 C1511 0.930 . S
C1506 H1492 0.930 . S
C1506 C1504 1.395 . S
C1506 C1509 1.403 . S
C1507 C1504 1.403 . S
C1507 C1508 1.524 . S
C1507 C1511 1.400 . S
C1508 H1493 0.960 . S
C1508 H1494 0.960 . S
C1508 H1495 0.960 . S
C1508 C1507 1.524 . S
C1509 C1506 1.403 . S
C1509 C1510 1.392 . S
C1509 C1513 1.495 . S
C1510 C1509 1.392 . S
C1510 C1511 1.385 . S
C1510 C1512 1.478 . S
C1511 H1505 0.930 . S
C1511 C1507 1.400 . S
C1511 C1510 1.385 . S
C1512 C1510 1.478 . S
C1512 C1514 1.381 . S
C1512 C1518 1.383 . S
C1513 C1509 1.495 . S
C1513 H1519 0.959 . S
C1513 H1520 0.961 . S
C1513 H1521 0.960 . S
C1514 C1512 1.381 . S
C1514 C1515 1.394 . S
C1514 H1522 0.930 . S
C1515 C1514 1.394 . S
C1515 C1516 1.383 . S
C1515 H1523 0.929 . S
C1516 C1515 1.383 . S
C1516 C1517 1.377 . S
C1517 H1501 0.930 . S
C1517 C1516 1.377 . S
C1517 C1518 1.379 . S
C1518 H1502 0.931 . S
C1518 C1512 1.383 . S
C1518 C1517 1.379 . S
H1519 C1513 0.959 . S
H1520 C1513 0.961 . S
H1521 C1513 0.960 . S
H1522 C1514 0.930 . S
H1523 C1515 0.929 . S
H1524 C1532 0.929 . S
H1525 C1534 0.930 . S
H1526 C1536 0.930 . S
H1527 C1539 0.929 . S
H1528 C1542 0.930 1_565 S
H1529 C1544 0.960 . S
H1530 C1544 0.960 . S
H1531 C1544 0.960 . S
C1532 H1524 0.929 . S
C1532 C1533 1.377 . S
C1532 C1534 1.384 . S
C1533 C1532 1.377 . S
C1533 C1539 1.390 . S
C1534 H1525 0.930 . S
C1534 C1532 1.384 . S
C1534 C1535 1.372 . S
C1535 C1534 1.372 . S
C1535 C1536 1.400 . S
C1535 C1540 1.490 . S
C1536 H1526 0.930 . S
C1536 C1535 1.400 . S
C1536 C1539 1.386 . S
H1537 C1553 0.930 . S
H1538 C1554 0.931 . S
C1539 H1527 0.929 . S
C1539 C1533 1.390 . S
C1539 C1536 1.386 . S
C1540 C1535 1.490 . S
C1540 C1542 1.395 1_565 S
C1540 C1543 1.403 . S
H1541 C1547 0.930 . S
C1542 H1528 0.930 1_545 S
C1542 C1540 1.395 1_545 S
C1542 C1545 1.403 . S
C1543 C1540 1.403 . S
C1543 C1544 1.524 . S
C1543 C1547 1.400 1_565 S
C1544 H1529 0.960 . S
C1544 H1530 0.960 . S
C1544 H1531 0.960 . S
C1544 C1543 1.524 . S
C1545 C1542 1.403 . S
C1545 C1546 1.392 . S
C1545 C1549 1.495 . S
C1546 C1545 1.392 . S
C1546 C1547 1.385 . S
C1546 C1548 1.478 . S
C1547 H1541 0.930 . S
C1547 C1543 1.400 1_545 S
C1547 C1546 1.385 . S
C1548 C1546 1.478 . S
C1548 C1550 1.381 . S
C1548 C1554 1.383 . S
C1549 C1545 1.495 . S
C1549 H1555 0.959 . S
C1549 H1556 0.961 . S
C1549 H1557 0.960 . S
C1550 C1548 1.381 . S
C1550 C1551 1.394 . S
C1550 H1558 0.930 . S
C1551 C1550 1.394 . S
C1551 C1552 1.383 . S
C1551 H1559 0.929 . S
C1552 C1551 1.383 . S
C1552 C1553 1.377 . S
C1553 H1537 0.930 . S
C1553 C1552 1.377 . S
C1553 C1554 1.379 . S
C1554 H1538 0.931 . S
C1554 C1548 1.383 . S
C1554 C1553 1.379 . S
H1555 C1549 0.959 . S
H1556 C1549 0.961 . S
H1557 C1549 0.960 . S
H1558 C1550 0.930 . S
H1559 C1551 0.929 . S
H1560 C1568 0.929 . S
H1561 C1570 0.930 . S
H1562 C1572 0.930 . S
H1563 C1575 0.929 . S
H1564 C1578 0.930 . S
H1565 C1580 0.960 1_565 S
H1566 C1580 0.960 . S
H1567 C1580 0.960 . S
C1568 H1560 0.929 . S
C1568 C1569 1.377 . S
C1568 C1570 1.384 . S
C1569 C1568 1.377 . S
C1569 C1575 1.390 . S
C1570 H1561 0.930 . S
C1570 C1568 1.384 . S
C1570 C1571 1.372 . S
C1571 C1570 1.372 . S
C1571 C1572 1.400 . S
C1571 C1576 1.490 . S
C1572 H1562 0.930 . S
C1572 C1571 1.400 . S
C1572 C1575 1.386 . S
H1573 C1589 0.930 . S
H1574 C1590 0.931 . S
C1575 H1563 0.929 . S
C1575 C1569 1.390 . S
C1575 C1572 1.386 . S
C1576 C1571 1.490 . S
C1576 C1578 1.395 . S
C1576 C1579 1.443 . S
H1577 C1583 0.930 . S
C1578 H1564 0.930 . S
C1578 C1576 1.395 . S
C1578 C1581 1.403 1_545 S
C1579 C1576 1.443 . S
C1579 C1580 1.537 . S
C1579 C1583 1.346 1_545 S
C1580 H1565 0.960 1_545 S
C1580 H1566 0.960 . S
C1580 H1567 0.960 . S
C1580 C1579 1.537 . S
C1581 C1578 1.403 1_565 S
C1581 C1582 1.392 . S
C1581 C1585 1.495 . S
C1582 C1581 1.392 . S
C1582 C1583 1.385 . S
C1582 C1584 1.478 . S
C1583 H1577 0.930 . S
C1583 C1579 1.346 1_565 S
C1583 C1582 1.385 . S
C1584 C1582 1.478 . S
C1584 C1586 1.381 . S
C1584 C1590 1.383 . S
C1585 C1581 1.495 . S
C1585 H1591 0.959 . S
C1585 H1592 0.961 . S
C1585 H1593 0.960 . S
C1586 C1584 1.381 . S
C1586 C1587 1.394 . S
C1586 H1594 0.930 . S
C1587 C1586 1.394 . S
C1587 C1588 1.383 . S
C1587 H1595 0.929 . S
C1588 C1587 1.383 . S
C1588 C1589 1.377 . S
C1589 H1573 0.930 . S
C1589 C1588 1.377 . S
C1589 C1590 1.379 . S
C1590 H1574 0.931 . S
C1590 C1584 1.383 . S
C1590 C1589 1.379 . S
H1591 C1585 0.959 . S
H1592 C1585 0.961 . S
H1593 C1585 0.960 . S
H1594 C1586 0.930 . S
H1595 C1587 0.929 . S
H1596 C1604 0.929 . S
H1597 C1606 0.930 . S
H1598 C1608 0.930 . S
H1599 C1611 0.929 . S
H1600 C1614 0.930 . S
H1601 C1616 0.960 . S
H1602 C1616 0.960 . S
H1603 C1616 0.960 . S
C1604 H1596 0.929 . S
C1604 C1605 1.377 . S
C1604 C1606 1.384 . S
C1605 C1604 1.377 . S
C1605 C1611 1.390 . S
C1606 H1597 0.930 . S
C1606 C1604 1.384 . S
C1606 C1607 1.372 . S
C1607 C1606 1.372 . S
C1607 C1608 1.400 . S
C1607 C1612 1.490 . S
C1608 H1598 0.930 . S
C1608 C1607 1.400 . S
C1608 C1611 1.386 . S
H1609 C1625 0.930 . S
H1610 C1626 0.931 . S
C1611 H1599 0.929 . S
C1611 C1605 1.390 . S
C1611 C1608 1.386 . S
C1612 C1607 1.490 . S
C1612 C1614 1.395 . S
C1612 C1615 1.403 . S
H1613 C1619 0.930 . S
C1614 H1600 0.930 . S
C1614 C1612 1.395 . S
C1614 C1617 1.403 . S
C1615 C1612 1.403 . S
C1615 C1616 1.524 . S
C1615 C1619 1.400 . S
C1616 H1601 0.960 . S
C1616 H1602 0.960 . S
C1616 H1603 0.960 . S
C1616 C1615 1.524 . S
C1617 C1614 1.403 . S
C1617 C1618 1.392 . S
C1617 C1621 1.495 . S
C1618 C1617 1.392 . S
C1618 C1619 1.385 . S
C1618 C1620 1.478 . S
C1619 H1613 0.930 . S
C1619 C1615 1.400 . S
C1619 C1618 1.385 . S
C1620 C1618 1.478 . S
C1620 C1622 1.381 . S
C1620 C1626 1.383 . S
C1621 C1617 1.495 . S
C1621 H1627 0.959 . S
C1621 H1628 0.961 . S
C1621 H1629 0.960 . S
C1622 C1620 1.381 . S
C1622 C1623 1.394 . S
C1622 H1630 0.930 . S
C1623 C1622 1.394 . S
C1623 C1624 1.383 . S
C1623 H1631 0.929 . S
C1624 C1623 1.383 . S
C1624 C1625 1.377 . S
C1625 H1609 0.930 . S
C1625 C1624 1.377 . S
C1625 C1626 1.379 . S
C1626 H1610 0.931 . S
C1626 C1620 1.383 . S
C1626 C1625 1.379 . S
H1627 C1621 0.959 . S
H1628 C1621 0.961 . S
H1629 C1621 0.960 . S
H1630 C1622 0.930 . S
H1631 C1623 0.929 . S
H1632 C1640 0.929 . S
H1633 C1642 0.930 . S
H1634 C1644 0.930 . S
H1635 C1647 0.929 . S
H1636 C1650 0.930 . S
H1637 C1652 0.960 . S
H1638 C1652 0.960 . S
H1639 C1652 0.960 . S
C1640 H1632 0.929 . S
C1640 C1641 1.377 . S
C1640 C1642 1.384 . S
C1641 C1640 1.377 . S
C1641 C1647 1.390 . S
C1642 H1633 0.930 . S
C1642 C1640 1.384 . S
C1642 C1643 1.372 . S
C1643 C1642 1.372 . S
C1643 C1644 1.400 . S
C1643 C1648 1.490 . S
C1644 H1634 0.930 . S
C1644 C1643 1.400 . S
C1644 C1647 1.386 . S
H1645 C1661 0.930 . S
H1646 C1662 0.931 . S
C1647 H1635 0.929 . S
C1647 C1641 1.390 . S
C1647 C1644 1.386 . S
C1648 C1643 1.490 . S
C1648 C1650 1.395 . S
C1648 C1651 1.403 . S
H1649 C1655 0.930 . S
C1650 H1636 0.930 . S
C1650 C1648 1.395 . S
C1650 C1653 1.403 . S
C1651 C1648 1.403 . S
C1651 C1652 1.524 . S
C1651 C1655 1.400 . S
C1652 H1637 0.960 . S
C1652 H1638 0.960 . S
C1652 H1639 0.960 . S
C1652 C1651 1.524 . S
C1653 C1650 1.403 . S
C1653 C1654 1.392 . S
C1653 C1657 1.495 . S
C1654 C1653 1.392 . S
C1654 C1655 1.385 . S
C1654 C1656 1.478 . S
C1655 H1649 0.930 . S
C1655 C1651 1.400 . S
C1655 C1654 1.385 . S
C1656 C1654 1.478 . S
C1656 C1658 1.381 . S
C1656 C1662 1.383 . S
C1657 C1653 1.495 . S
C1657 H1663 0.959 . S
C1657 H1664 0.961 . S
C1657 H1665 0.960 . S
C1658 C1656 1.381 . S
C1658 C1659 1.394 . S
C1658 H1666 0.930 . S
C1659 C1658 1.394 . S
C1659 C1660 1.383 . S
C1659 H1667 0.929 . S
C1660 C1659 1.383 . S
C1660 C1661 1.377 . S
C1661 H1645 0.930 . S
C1661 C1660 1.377 . S
C1661 C1662 1.379 . S
C1662 H1646 0.931 . S
C1662 C1656 1.383 . S
C1662 C1661 1.379 . S
H1663 C1657 0.959 . S
H1664 C1657 0.961 . S
H1665 C1657 0.960 . S
H1666 C1658 0.930 . S
H1667 C1659 0.929 . S
H1668 C1676 0.929 . S
H1669 C1678 0.930 . S
H1670 C1680 0.930 . S
H1671 C1683 0.929 . S
H1672 C1686 0.930 . S
H1673 C1688 0.960 1_554 S
H1674 C1688 0.960 . S
H1675 C1688 0.960 . S
C1676 H1668 0.929 . S
C1676 C1677 1.377 . S
C1676 C1678 1.384 . S
C1677 C1676 1.377 . S
C1677 C1683 1.390 . S
C1678 H1669 0.930 . S
C1678 C1676 1.384 . S
C1678 C1679 1.372 . S
C1679 C1678 1.372 . S
C1679 C1680 1.400 . S
C1679 C1684 1.490 . S
C1680 H1670 0.930 . S
C1680 C1679 1.400 . S
C1680 C1683 1.386 . S
H1681 C1697 0.930 . S
H1682 C1698 0.931 . S
C1683 H1671 0.929 . S
C1683 C1677 1.390 . S
C1683 C1680 1.386 . S
C1684 C1679 1.490 . S
C1684 C1686 1.395 . S
C1684 C1687 1.425 . S
H1685 C1691 0.930 . S
C1686 H1672 0.930 . S
C1686 C1684 1.395 . S
C1686 C1689 1.403 1_556 S
C1687 C1684 1.425 . S
C1687 C1688 1.529 . S
C1687 C1691 1.372 1_556 S
C1688 H1673 0.960 1_556 S
C1688 H1674 0.960 . S
C1688 H1675 0.960 . S
C1688 C1687 1.529 . S
C1689 C1686 1.403 1_554 S
C1689 C1690 1.392 . S
C1689 C1693 1.495 . S
C1690 C1689 1.392 . S
C1690 C1691 1.385 . S
C1690 C1692 1.478 . S
C1691 H1685 0.930 . S
C1691 C1687 1.372 1_554 S
C1691 C1690 1.385 . S
C1692 C1690 1.478 . S
C1692 C1694 1.381 . S
C1692 C1698 1.383 . S
C1693 C1689 1.495 . S
C1693 H1699 0.920 1_554 S
C1693 H1700 0.961 . S
C1693 H1701 0.960 . S
C1694 C1692 1.381 . S
C1694 C1695 1.394 . S
C1694 H1702 0.930 . S
C1695 C1694 1.394 . S
C1695 C1696 1.383 . S
C1695 H1703 0.929 . S
C1696 C1695 1.383 . S
C1696 C1697 1.377 . S
C1697 H1681 0.930 . S
C1697 C1696 1.377 . S
C1697 C1698 1.379 . S
C1698 H1682 0.931 . S
C1698 C1692 1.383 . S
C1698 C1697 1.379 . S
H1699 C1693 0.920 1_556 S
H1700 C1693 0.961 . S
H1701 C1693 0.960 . S
H1702 C1694 0.930 . S
H1703 C1695 0.929 . S
H1704 C1712 0.929 . S
H1705 C1714 0.930 . S
H1706 C1716 0.930 . S
H1707 C1719 0.929 . S
H1708 C1722 0.930 . S
H1709 C1724 0.960 . S
H1710 C1724 0.960 . S
H1711 C1724 0.960 . S
C1712 H1704 0.929 . S
C1712 C1713 1.377 . S
C1712 C1714 1.384 . S
C1713 C1712 1.377 . S
C1713 C1719 1.390 . S
C1714 H1705 0.930 . S
C1714 C1712 1.384 . S
C1714 C1715 1.372 . S
C1715 C1714 1.372 . S
C1715 C1716 1.400 . S
C1715 C1720 1.490 . S
C1716 H1706 0.930 . S
C1716 C1715 1.400 . S
C1716 C1719 1.386 . S
H1717 C1733 0.930 . S
H1718 C1734 0.931 . S
C1719 H1707 0.929 . S
C1719 C1713 1.390 . S
C1719 C1716 1.386 . S
C1720 C1715 1.490 . S
C1720 C1722 1.395 . S
C1720 C1723 1.403 . S
H1721 C1727 0.930 . S
C1722 H1708 0.930 . S
C1722 C1720 1.395 . S
C1722 C1725 1.403 . S
C1723 C1720 1.403 . S
C1723 C1724 1.524 . S
C1723 C1727 1.400 . S
C1724 H1709 0.960 . S
C1724 H1710 0.960 . S
C1724 H1711 0.960 . S
C1724 C1723 1.524 . S
C1725 C1722 1.403 . S
C1725 C1726 1.392 . S
C1725 C1729 1.495 . S
C1726 C1725 1.392 . S
C1726 C1727 1.385 . S
C1726 C1728 1.478 . S
C1727 H1721 0.930 . S
C1727 C1723 1.400 . S
C1727 C1726 1.385 . S
C1728 C1726 1.478 . S
C1728 C1730 1.381 . S
C1728 C1734 1.383 . S
C1729 C1725 1.495 . S
C1729 H1735 0.959 . S
C1729 H1736 0.961 . S
C1729 H1737 0.960 . S
C1730 C1728 1.381 . S
C1730 C1731 1.394 . S
C1730 H1738 0.930 . S
C1731 C1730 1.394 . S
C1731 C1732 1.383 . S
C1731 H1739 0.929 . S
C1732 C1731 1.383 . S
C1732 C1733 1.377 . S
C1733 H1717 0.930 . S
C1733 C1732 1.377 . S
C1733 C1734 1.379 . S
C1734 H1718 0.931 . S
C1734 C1728 1.383 . S
C1734 C1733 1.379 . S
H1735 C1729 0.959 . S
H1736 C1729 0.961 . S
H1737 C1729 0.960 . S
H1738 C1730 0.930 . S
H1739 C1731 0.929 . S
H1740 C1748 0.929 . S
H1741 C1750 0.930 . S
H1742 C1752 0.930 . S
H1743 C1755 0.929 . S
H1744 C1758 0.930 . S
H1745 C1760 0.960 1_556 S
H1746 C1760 0.960 . S
H1747 C1760 0.960 . S
C1748 H1740 0.929 . S
C1748 C1749 1.377 . S
C1748 C1750 1.384 . S
C1749 C1748 1.377 . S
C1749 C1755 1.390 . S
C1750 H1741 0.930 . S
C1750 C1748 1.384 . S
C1750 C1751 1.372 . S
C1751 C1750 1.372 . S
C1751 C1752 1.400 . S
C1751 C1756 1.490 . S
C1752 H1742 0.930 . S
C1752 C1751 1.400 . S
C1752 C1755 1.386 . S
H1753 C1769 0.930 . S
H1754 C1770 0.931 . S
C1755 H1743 0.929 . S
C1755 C1749 1.390 . S
C1755 C1752 1.386 . S
C1756 C1751 1.490 . S
C1756 C1758 1.395 . S
C1756 C1759 1.399 1_554 S
H1757 C1763 0.930 . S
C1758 H1744 0.930 . S
C1758 C1756 1.395 . S
C1758 C1761 1.403 1_554 S
C1759 C1756 1.399 1_556 S
C1759 C1760 1.523 1_556 S
C1759 C1763 1.404 . S
C1760 H1745 0.960 1_554 S
C1760 H1746 0.960 . S
C1760 H1747 0.960 . S
C1760 C1759 1.523 1_554 S
C1761 C1758 1.403 1_556 S
C1761 C1762 1.392 . S
C1761 C1765 1.495 . S
C1762 C1761 1.392 . S
C1762 C1763 1.385 . S
C1762 C1764 1.478 . S
C1763 H1757 0.930 . S
C1763 C1759 1.404 . S
C1763 C1762 1.385 . S
C1764 C1762 1.478 . S
C1764 C1766 1.381 . S
C1764 C1770 1.383 . S
C1765 C1761 1.495 . S
C1765 H1771 0.952 1_556 S
C1765 H1772 0.961 . S
C1765 H1773 0.960 . S
C1766 C1764 1.381 . S
C1766 C1767 1.394 . S
C1766 H1774 0.930 . S
C1767 C1766 1.394 . S
C1767 C1768 1.383 . S
C1767 H1775 0.929 . S
C1768 C1767 1.383 . S
C1768 C1769 1.377 . S
C1769 H1753 0.930 . S
C1769 C1768 1.377 . S
C1769 C1770 1.379 . S
C1770 H1754 0.931 . S
C1770 C1764 1.383 . S
C1770 C1769 1.379 . S
H1771 C1765 0.952 1_554 S
H1772 C1765 0.961 . S
H1773 C1765 0.960 . S
H1774 C1766 0.930 . S
H1775 C1767 0.929 . S
H1776 C1784 0.929 . S
H1777 C1786 0.930 . S
H1778 C1788 0.930 . S
H1779 C1791 0.929 . S
H1780 C1794 0.930 . S
H1781 C1796 0.960 . S
H1782 C1796 0.960 . S
H1783 C1796 0.960 . S
C1784 H1776 0.929 . S
C1784 C1785 1.377 . S
C1784 C1786 1.384 . S
C1785 C1784 1.377 . S
C1785 C1791 1.390 . S
C1786 H1777 0.930 . S
C1786 C1784 1.384 . S
C1786 C1787 1.372 . S
C1787 C1786 1.372 . S
C1787 C1788 1.400 . S
C1787 C1792 1.490 . S
C1788 H1778 0.930 . S
C1788 C1787 1.400 . S
C1788 C1791 1.386 . S
H1789 C1805 0.930 . S
H1790 C1806 0.931 . S
C1791 H1779 0.929 . S
C1791 C1785 1.390 . S
C1791 C1788 1.386 . S
C1792 C1787 1.490 . S
C1792 C1794 1.395 . S
C1792 C1795 1.403 . S
H1793 C1799 0.930 . S
C1794 H1780 0.930 . S
C1794 C1792 1.395 . S
C1794 C1797 1.403 . S
C1795 C1792 1.403 . S
C1795 C1796 1.524 . S
C1795 C1799 1.400 . S
C1796 H1781 0.960 . S
C1796 H1782 0.960 . S
C1796 H1783 0.960 . S
C1796 C1795 1.524 . S
C1797 C1794 1.403 . S
C1797 C1798 1.392 . S
C1797 C1801 1.495 . S
C1798 C1797 1.392 . S
C1798 C1799 1.385 . S
C1798 C1800 1.478 . S
C1799 H1793 0.930 . S
C1799 C1795 1.400 . S
C1799 C1798 1.385 . S
C1800 C1798 1.478 . S
C1800 C1802 1.381 . S
C1800 C1806 1.383 . S
C1801 C1797 1.495 . S
C1801 H1807 0.959 . S
C1801 H1808 0.961 . S
C1801 H1809 0.960 . S
C1802 C1800 1.381 . S
C1802 C1803 1.394 . S
C1802 H1810 0.930 . S
C1803 C1802 1.394 . S
C1803 C1804 1.383 . S
C1803 H1811 0.929 . S
C1804 C1803 1.383 . S
C1804 C1805 1.377 . S
C1805 H1789 0.930 . S
C1805 C1804 1.377 . S
C1805 C1806 1.379 . S
C1806 H1790 0.931 . S
C1806 C1800 1.383 . S
C1806 C1805 1.379 . S
H1807 C1801 0.959 . S
H1808 C1801 0.961 . S
H1809 C1801 0.960 . S
H1810 C1802 0.930 . S
H1811 C1803 0.929 . S
H1812 C1820 0.929 . S
H1813 C1822 0.930 . S
H1814 C1824 0.930 . S
H1815 C1827 0.929 . S
H1816 C1830 0.930 . S
H1817 C1832 0.960 . S
H1818 C1832 0.960 . S
H1819 C1832 0.960 . S
C1820 H1812 0.929 . S
C1820 C1821 1.377 . S
C1820 C1822 1.384 . S
C1821 C1820 1.377 . S
C1821 C1827 1.390 . S
C1822 H1813 0.930 . S
C1822 C1820 1.384 . S
C1822 C1823 1.372 . S
C1823 C1822 1.372 . S
C1823 C1824 1.400 . S
C1823 C1828 1.490 . S
C1824 H1814 0.930 . S
C1824 C1823 1.400 . S
C1824 C1827 1.386 . S
H1825 C1841 0.930 . S
H1826 C1842 0.931 . S
C1827 H1815 0.929 . S
C1827 C1821 1.390 . S
C1827 C1824 1.386 . S
C1828 C1823 1.490 . S
C1828 C1830 1.395 . S
C1828 C1831 1.403 . S
H1829 C1835 0.930 . S
C1830 H1816 0.930 . S
C1830 C1828 1.395 . S
C1830 C1833 1.403 1_655 S
C1831 C1828 1.403 . S
C1831 C1832 1.524 . S
C1831 C1835 1.400 1_655 S
C1832 H1817 0.960 . S
C1832 H1818 0.960 . S
C1832 H1819 0.960 . S
C1832 C1831 1.524 . S
C1833 C1830 1.403 1_455 S
C1833 C1834 1.392 . S
C1833 C1837 1.495 . S
C1834 C1833 1.392 . S
C1834 C1835 1.385 . S
C1834 C1836 1.478 . S
C1835 H1829 0.930 . S
C1835 C1831 1.400 1_455 S
C1835 C1834 1.385 . S
C1836 C1834 1.478 . S
C1836 C1838 1.381 . S
C1836 C1842 1.383 . S
C1837 C1833 1.495 . S
C1837 H1843 0.959 . S
C1837 H1844 0.961 . S
C1837 H1845 0.960 . S
C1838 C1836 1.381 . S
C1838 C1839 1.394 . S
C1838 H1846 0.930 . S
C1839 C1838 1.394 . S
C1839 C1840 1.383 . S
C1839 H1847 0.929 . S
C1840 C1839 1.383 . S
C1840 C1841 1.377 . S
C1841 H1825 0.930 . S
C1841 C1840 1.377 . S
C1841 C1842 1.379 . S
C1842 H1826 0.931 . S
C1842 C1836 1.383 . S
C1842 C1841 1.379 . S
H1843 C1837 0.959 . S
H1844 C1837 0.961 . S
H1845 C1837 0.960 . S
H1846 C1838 0.930 . S
H1847 C1839 0.929 . S
H1848 C1856 0.929 . S
H1849 C1858 0.930 . S
H1850 C1860 0.930 . S
H1851 C1863 0.929 . S
H1852 C1866 0.930 . S
H1853 C1868 0.960 . S
H1854 C1868 0.960 . S
H1855 C1868 0.960 . S
C1856 H1848 0.929 . S
C1856 C1857 1.377 . S
C1856 C1858 1.384 . S
C1857 C1856 1.377 . S
C1857 C1863 1.390 . S
C1858 H1849 0.930 . S
C1858 C1856 1.384 . S
C1858 C1859 1.372 . S
C1859 C1858 1.372 . S
C1859 C1860 1.400 . S
C1859 C1864 1.490 . S
C1860 H1850 0.930 . S
C1860 C1859 1.400 . S
C1860 C1863 1.386 . S
H1861 C1877 0.930 . S
H1862 C1878 0.931 . S
C1863 H1851 0.929 . S
C1863 C1857 1.390 . S
C1863 C1860 1.386 . S
C1864 C1859 1.490 . S
C1864 C1866 1.395 . S
C1864 C1867 1.403 . S
H1865 C1871 0.935 . S
C1866 H1852 0.930 . S
C1866 C1864 1.395 . S
C1866 C1869 1.403 1_455 S
C1867 C1864 1.403 . S
C1867 C1868 1.524 . S
C1867 C1871 1.373 1_455 S
C1868 H1853 0.960 . S
C1868 H1854 0.960 . S
C1868 H1855 0.960 . S
C1868 C1867 1.524 . S
C1869 C1866 1.403 1_655 S
C1869 C1870 1.392 . S
C1869 C1873 1.495 . S
C1870 C1869 1.392 . S
C1870 C1871 1.407 . S
C1870 C1872 1.478 . S
C1871 H1865 0.935 . S
C1871 C1867 1.373 1_655 S
C1871 C1870 1.407 . S
C1872 C1870 1.478 . S
C1872 C1874 1.381 . S
C1872 C1878 1.383 . S
C1873 C1869 1.495 . S
C1873 H1879 0.959 . S
C1873 H1880 0.961 . S
C1873 H1881 0.960 . S
C1874 C1872 1.381 . S
C1874 C1875 1.394 . S
C1874 H1882 0.930 . S
C1875 C1874 1.394 . S
C1875 C1876 1.383 . S
C1875 H1883 0.929 . S
C1876 C1875 1.383 . S
C1876 C1877 1.377 . S
C1877 H1861 0.930 . S
C1877 C1876 1.377 . S
C1877 C1878 1.379 . S
C1878 H1862 0.931 . S
C1878 C1872 1.383 . S
C1878 C1877 1.379 . S
H1879 C1873 0.959 . S
H1880 C1873 0.961 . S
H1881 C1873 0.960 . S
H1882 C1874 0.930 . S
H1883 C1875 0.929 . S
H1884 C1892 0.929 . S
H1885 C1894 0.930 . S
H1886 C1896 0.930 . S
H1887 C1899 0.929 . S
H1888 C1902 0.930 . S
H1889 C1904 0.960 . S
H1890 C1904 0.960 . S
H1891 C1904 0.960 . S
C1892 H1884 0.929 . S
C1892 C1893 1.377 . S
C1892 C1894 1.384 . S
C1893 C1892 1.377 . S
C1893 C1899 1.390 . S
C1894 H1885 0.930 . S
C1894 C1892 1.384 . S
C1894 C1895 1.372 . S
C1895 C1894 1.372 . S
C1895 C1896 1.400 . S
C1895 C1900 1.490 . S
C1896 H1886 0.930 . S
C1896 C1895 1.400 . S
C1896 C1899 1.386 . S
H1897 C1913 0.930 . S
H1898 C1914 0.931 . S
C1899 H1887 0.929 . S
C1899 C1893 1.390 . S
C1899 C1896 1.386 . S
C1900 C1895 1.490 . S
C1900 C1902 1.395 . S
C1900 C1903 1.403 . S
H1901 C1907 0.930 . S
C1902 H1888 0.930 . S
C1902 C1900 1.395 . S
C1902 C1905 1.403 . S
C1903 C1900 1.403 . S
C1903 C1904 1.524 . S
C1903 C1907 1.400 . S
C1904 H1889 0.960 . S
C1904 H1890 0.960 . S
C1904 H1891 0.960 . S
C1904 C1903 1.524 . S
C1905 C1902 1.403 . S
C1905 C1906 1.392 . S
C1905 C1909 1.495 . S
C1906 C1905 1.392 . S
C1906 C1907 1.385 . S
C1906 C1908 1.478 . S
C1907 H1901 0.930 . S
C1907 C1903 1.400 . S
C1907 C1906 1.385 . S
C1908 C1906 1.478 . S
C1908 C1910 1.381 . S
C1908 C1914 1.383 . S
C1909 C1905 1.495 . S
C1909 H1915 0.959 . S
C1909 H1916 0.961 . S
C1909 H1917 0.960 . S
C1910 C1908 1.381 . S
C1910 C1911 1.394 . S
C1910 H1918 0.930 . S
C1911 C1910 1.394 . S
C1911 C1912 1.383 . S
C1911 H1919 0.929 . S
C1912 C1911 1.383 . S
C1912 C1913 1.377 . S
C1913 H1897 0.930 . S
C1913 C1912 1.377 . S
C1913 C1914 1.379 . S
C1914 H1898 0.931 . S
C1914 C1908 1.383 . S
C1914 C1913 1.379 . S
H1915 C1909 0.959 . S
H1916 C1909 0.961 . S
H1917 C1909 0.960 . S
H1918 C1910 0.930 . S
H1919 C1911 0.929 . S
H1920 C1928 0.929 . S
H1921 C1930 0.930 . S
H1922 C1932 0.930 . S
H1923 C1935 0.929 . S
H1924 C1938 0.930 . S
H1925 C1940 0.960 . S
H1926 C1940 0.960 . S
H1927 C1940 0.960 . S
C1928 H1920 0.929 . S
C1928 C1929 1.377 . S
C1928 C1930 1.384 . S
C1929 C1928 1.377 . S
C1929 C1935 1.390 . S
C1930 H1921 0.930 . S
C1930 C1928 1.384 . S
C1930 C1931 1.372 . S
C1931 C1930 1.372 . S
C1931 C1932 1.400 . S
C1931 C1936 1.490 . S
C1932 H1922 0.930 . S
C1932 C1931 1.400 . S
C1932 C1935 1.386 . S
H1933 C1949 0.930 . S
H1934 C1950 0.931 . S
C1935 H1923 0.929 . S
C1935 C1929 1.390 . S
C1935 C1932 1.386 . S
C1936 C1931 1.490 . S
C1936 C1938 1.395 . S
C1936 C1939 1.403 . S
H1937 C1943 0.930 . S
C1938 H1924 0.930 . S
C1938 C1936 1.395 . S
C1938 C1941 1.403 . S
C1939 C1936 1.403 . S
C1939 C1940 1.524 . S
C1939 C1943 1.400 . S
C1940 H1925 0.960 . S
C1940 H1926 0.960 . S
C1940 H1927 0.960 . S
C1940 C1939 1.524 . S
C1941 C1938 1.403 . S
C1941 C1942 1.392 . S
C1941 C1945 1.495 . S
C1942 C1941 1.392 . S
C1942 C1943 1.385 . S
C1942 C1944 1.478 . S
C1943 H1937 0.930 . S
C1943 C1939 1.400 . S
C1943 C1942 1.385 . S
C1944 C1942 1.478 . S
C1944 C1946 1.381 . S
C1944 C1950 1.383 . S
C1945 C1941 1.495 . S
C1945 H1951 0.959 . S
C1945 H1952 0.961 . S
C1945 H1953 0.960 . S
C1946 C1944 1.381 . S
C1946 C1947 1.394 . S
C1946 H1954 0.930 . S
C1947 C1946 1.394 . S
C1947 C1948 1.383 . S
C1947 H1955 0.929 . S
C1948 C1947 1.383 . S
C1948 C1949 1.377 . S
C1949 H1933 0.930 . S
C1949 C1948 1.377 . S
C1949 C1950 1.379 . S
C1950 H1934 0.931 . S
C1950 C1944 1.383 . S
C1950 C1949 1.379 . S
H1951 C1945 0.959 . S
H1952 C1945 0.961 . S
H1953 C1945 0.960 . S
H1954 C1946 0.930 . S
H1955 C1947 0.929 . S
H1956 C1964 0.929 . S
H1957 C1966 0.930 . S
H1958 C1968 0.930 . S
H1959 C1971 0.929 . S
H1960 C1974 0.930 . S
H1961 C1976 0.960 . S
H1962 C1976 0.960 . S
H1963 C1976 0.960 . S
C1964 H1956 0.929 . S
C1964 C1965 1.377 . S
C1964 C1966 1.384 . S
C1965 C1964 1.377 . S
C1965 C1971 1.390 . S
C1966 H1957 0.930 . S
C1966 C1964 1.384 . S
C1966 C1967 1.372 . S
C1967 C1966 1.372 . S
C1967 C1968 1.400 . S
C1967 C1972 1.490 . S
C1968 H1958 0.930 . S
C1968 C1967 1.400 . S
C1968 C1971 1.386 . S
H1969 C1985 0.930 . S
H1970 C1986 0.931 . S
C1971 H1959 0.929 . S
C1971 C1965 1.390 . S
C1971 C1968 1.386 . S
C1972 C1967 1.490 . S
C1972 C1974 1.395 . S
C1972 C1975 1.403 . S
H1973 C1979 0.930 . S
C1974 H1960 0.930 . S
C1974 C1972 1.395 . S
C1974 C1977 1.403 1_565 S
C1975 C1972 1.403 . S
C1975 C1976 1.524 . S
C1975 C1979 1.400 1_565 S
C1976 H1961 0.960 . S
C1976 H1962 0.960 . S
C1976 H1963 0.960 . S
C1976 C1975 1.524 . S
C1977 C1974 1.403 1_545 S
C1977 C1978 1.392 . S
C1977 C1981 1.495 . S
C1978 C1977 1.392 . S
C1978 C1979 1.385 . S
C1978 C1980 1.478 . S
C1979 H1973 0.930 . S
C1979 C1975 1.400 1_545 S
C1979 C1978 1.385 . S
C1980 C1978 1.478 . S
C1980 C1982 1.381 . S
C1980 C1986 1.383 . S
C1981 C1977 1.495 . S
C1981 H1987 0.959 . S
C1981 H1988 0.961 . S
C1981 H1989 0.960 . S
C1982 C1980 1.381 . S
C1982 C1983 1.394 . S
C1982 H1990 0.930 . S
C1983 C1982 1.394 . S
C1983 C1984 1.383 . S
C1983 H1991 0.929 . S
C1984 C1983 1.383 . S
C1984 C1985 1.377 . S
C1985 H1969 0.930 . S
C1985 C1984 1.377 . S
C1985 C1986 1.379 . S
C1986 H1970 0.931 . S
C1986 C1980 1.383 . S
C1986 C1985 1.379 . S
H1987 C1981 0.959 . S
H1988 C1981 0.961 . S
H1989 C1981 0.960 . S
H1990 C1982 0.930 . S
H1991 C1983 0.929 . S
H1992 C2000 0.929 . S
H1993 C2002 0.930 . S
H1994 C2004 0.930 . S
H1995 C2007 0.929 . S
H1996 C2010 0.930 . S
H1997 C2012 0.960 . S
H1998 C2012 0.960 . S
H1999 C2012 0.960 . S
C2000 H1992 0.929 . S
C2000 C2001 1.377 . S
C2000 C2002 1.384 . S
C2001 C2000 1.377 . S
C2001 C2007 1.390 . S
C2002 H1993 0.930 . S
C2002 C2000 1.384 . S
C2002 C2003 1.372 . S
C2003 C2002 1.372 . S
C2003 C2004 1.400 . S
C2003 C2008 1.490 . S
C2004 H1994 0.930 . S
C2004 C2003 1.400 . S
C2004 C2007 1.386 . S
H2005 C2021 0.930 . S
H2006 C2022 0.931 . S
C2007 H1995 0.929 . S
C2007 C2001 1.390 . S
C2007 C2004 1.386 . S
C2008 C2003 1.490 . S
C2008 C2010 1.395 . S
C2008 C2011 1.403 . S
H2009 C2015 0.930 . S
C2010 H1996 0.930 . S
C2010 C2008 1.395 . S
C2010 C2013 1.403 1_565 S
C2011 C2008 1.403 . S
C2011 C2012 1.524 . S
C2011 C2015 1.400 1_565 S
C2012 H1997 0.960 . S
C2012 H1998 0.960 . S
C2012 H1999 0.960 . S
C2012 C2011 1.524 . S
C2013 C2010 1.403 1_545 S
C2013 C2014 1.392 . S
C2013 C2017 1.495 . S
C2014 C2013 1.392 . S
C2014 C2015 1.385 . S
C2014 C2016 1.478 . S
C2015 H2009 0.930 . S
C2015 C2011 1.400 1_545 S
C2015 C2014 1.385 . S
C2016 C2014 1.478 . S
C2016 C2018 1.381 . S
C2016 C2022 1.383 . S
C2017 C2013 1.495 . S
C2017 H2023 0.959 . S
C2017 H2024 0.961 . S
C2017 H2025 0.960 . S
C2018 C2016 1.381 . S
C2018 C2019 1.394 . S
C2018 H2026 0.930 . S
C2019 C2018 1.394 . S
C2019 C2020 1.383 . S
C2019 H2027 0.929 . S
C2020 C2019 1.383 . S
C2020 C2021 1.377 . S
C2021 H2005 0.930 . S
C2021 C2020 1.377 . S
C2021 C2022 1.379 . S
C2022 H2006 0.931 . S
C2022 C2016 1.383 . S
C2022 C2021 1.379 . S
H2023 C2017 0.959 . S
H2024 C2017 0.961 . S
H2025 C2017 0.960 . S
H2026 C2018 0.930 . S
H2027 C2019 0.929 . S
H2028 C2036 0.929 . S
H2029 C2038 0.930 . S
H2030 C2040 0.930 . S
H2031 C2043 0.929 . S
H2032 C2046 0.930 . S
H2033 C2048 0.960 . S
H2034 C2048 0.960 . S
H2035 C2048 0.960 . S
C2036 H2028 0.929 . S
C2036 C2037 1.377 . S
C2036 C2038 1.384 . S
C2037 C2036 1.377 . S
C2037 C2043 1.390 . S
C2038 H2029 0.930 . S
C2038 C2036 1.384 . S
C2038 C2039 1.372 . S
C2039 C2038 1.372 . S
C2039 C2040 1.400 . S
C2039 C2044 1.490 . S
C2040 H2030 0.930 . S
C2040 C2039 1.400 . S
C2040 C2043 1.386 . S
H2041 C2057 0.930 . S
H2042 C2058 0.931 . S
C2043 H2031 0.929 . S
C2043 C2037 1.390 . S
C2043 C2040 1.386 . S
C2044 C2039 1.490 . S
C2044 C2046 1.395 . S
C2044 C2047 1.403 . S
H2045 C2051 0.930 . S
C2046 H2032 0.930 . S
C2046 C2044 1.395 . S
C2046 C2049 1.403 . S
C2047 C2044 1.403 . S
C2047 C2048 1.524 . S
C2047 C2051 1.400 . S
C2048 H2033 0.960 . S
C2048 H2034 0.960 . S
C2048 H2035 0.960 . S
C2048 C2047 1.524 . S
C2049 C2046 1.403 . S
C2049 C2050 1.392 . S
C2049 C2053 1.495 . S
C2050 C2049 1.392 . S
C2050 C2051 1.385 . S
C2050 C2052 1.478 . S
C2051 H2045 0.930 . S
C2051 C2047 1.400 . S
C2051 C2050 1.385 . S
C2052 C2050 1.478 . S
C2052 C2054 1.381 . S
C2052 C2058 1.383 . S
C2053 C2049 1.495 . S
C2053 H2059 0.959 . S
C2053 H2060 0.961 . S
C2053 H2061 0.960 . S
C2054 C2052 1.381 . S
C2054 C2055 1.394 . S
C2054 H2062 0.930 . S
C2055 C2054 1.394 . S
C2055 C2056 1.383 . S
C2055 H2063 0.929 . S
C2056 C2055 1.383 . S
C2056 C2057 1.377 . S
C2057 H2041 0.930 . S
C2057 C2056 1.377 . S
C2057 C2058 1.379 . S
C2058 H2042 0.931 . S
C2058 C2052 1.383 . S
C2058 C2057 1.379 . S
H2059 C2053 0.959 . S
H2060 C2053 0.961 . S
H2061 C2053 0.960 . S
H2062 C2054 0.930 . S
H2063 C2055 0.929 . S
C345 C121 1.145 . S
C364 C8 1.132 . S
C381 C22 1.120 . S
C400 C163 1.128 . S
C417 C36 1.122 . S
C436 C135 1.129 . S
C453 C50 1.124 . S
C472 C149 1.140 . S
C489 C64 1.116 . S
C508 C9 1.132 . S
C525 C23 1.146 . S
C544 C78 1.151 . S
C561 C92 1.123 . S
C580 C37 1.147 . S
C597 C51 1.152 . S
C616 C106 1.093 . S
C633 C65 1.152 . S
C652 C120 1.091 . S
C669 C93 1.147 . S
C688 C134 1.151 . S
C705 C148 1.124 . S
C724 C107 1.132 . S
C741 C79 1.148 . S
C760 C162 1.148 . S
C777 C289 1.145 . S
C796 C176 1.085 . S
C813 C190 1.121 . S
C832 C331 1.156 . S
C849 C204 1.124 . S
C868 C303 1.163 . S
C885 C317 1.152 . S
C904 C218 1.143 . S
C921 C232 1.121 . S
C940 C177 1.158 . S
C957 C191 1.152 . S
C976 C246 1.151 . S
C993 C205 1.152 . S
C1012 C260 1.144 . S
C1029 C274 1.116 . S
C1048 C219 1.142 . S
C1065 C288 1.124 . S
C1084 C233 1.161 . S
C1101 C261 1.152 . S
C1120 C302 1.150 . S
C1137 C275 1.149 . S
C1156 C316 1.114 . S
C1173 C330 1.123 . S
C1192 C247 1.161 . S
C1209 C314 1.515 . S
C1228 C7 1.561 . S
C1245 C300 1.508 . S
C1264 C21 1.533 . S
C1281 C328 1.508 . S
C1300 C35 1.534 . S
C1317 C49 1.554 . S
C1336 C286 1.522 . S
C1353 C63 1.555 . S
C1372 C188 1.528 . S
C1389 C174 1.507 . S
C1408 C77 1.534 . S
C1425 C216 1.515 . S
C1444 C91 1.560 . S
C1461 C202 1.512 . S
C1480 C105 1.552 . S
C1497 C119 1.549 . S
C1516 C258 1.485 . S
C1533 C230 1.509 . S
C1552 C133 1.542 . S
C1569 C244 1.518 . S
C1588 C147 1.565 . S
C1605 C272 1.518 . S
C1624 C161 1.564 . S
C1641 C146 1.508 . S
C1660 C175 1.565 . S
C1677 C132 1.508 . S
C1696 C189 1.565 . S
C1713 C203 1.549 . S
C1732 C160 1.518 . S
C1749 C118 1.517 . S
C1768 C217 1.542 . S
C1785 C231 1.548 . S
C1804 C20 1.522 . S
C1821 C245 1.551 . S
C1840 C6 1.494 . S
C1857 C259 1.554 . S
C1876 C48 1.482 . S
C1893 C273 1.548 . S
C1912 C34 1.534 . S
C1929 C287 1.550 . S
C1948 C90 1.502 . S
C1965 C301 1.552 . S
C1984 C62 1.489 . S
C2001 C76 1.516 . S
C2020 C315 1.532 . S
C2037 C329 1.552 . S
C2056 C104 1.523 . S
