# Generated by pormake.
# Topology zga, (5)-cn, num edge types: 1
# Building blocks:
#     Node 0, Type 0, BuildingBlock: BEQFEK_clean_sbu_0, # of connection points: 5
#     Node 1, Type 0, BuildingBlock: BEQFEK_clean_sbu_0, # of connection points: 5
#     Node 2, Type 0, BuildingBlock: BEQFEK_clean_sbu_0, # of connection points: 5
#     Node 3, Type 0, BuildingBlock: BEQFEK_clean_sbu_0, # of connection points: 5
#     Node 4, Type 0, BuildingBlock: BEQFEK_clean_sbu_0, # of connection points: 5
#     Node 5, Type 0, BuildingBlock: BEQFEK_clean_sbu_0, # of connection points: 5
#     Node 6, Type 0, BuildingBlock: BEQFEK_clean_sbu_0, # of connection points: 5
#     Node 7, Type 0, BuildingBlock: BEQFEK_clean_sbu_0, # of connection points: 5
#     Node 8, Type 0, BuildingBlock: BEQFEK_clean_sbu_0, # of connection points: 5
#     Node 9, Type 0, BuildingBlock: BEQFEK_clean_sbu_0, # of connection points: 5
#     Node 10, Type 0, BuildingBlock: BEQFEK_clean_sbu_0, # of connection points: 5
#     Node 11, Type 0, BuildingBlock: BEQFEK_clean_sbu_0, # of connection points: 5
#     Node 12, Type 0, BuildingBlock: BEQFEK_clean_sbu_0, # of connection points: 5
#     Node 13, Type 0, BuildingBlock: BEQFEK_clean_sbu_0, # of connection points: 5
#     Node 14, Type 0, BuildingBlock: BEQFEK_clean_sbu_0, # of connection points: 5
#     Node 15, Type 0, BuildingBlock: BEQFEK_clean_sbu_0, # of connection points: 5
#     Edge 16, Type (0, 0), None
#     Edge 17, Type (0, 0), None
#     Edge 18, Type (0, 0), None
#     Edge 19, Type (0, 0), None
#     Edge 20, Type (0, 0), None
#     Edge 21, Type (0, 0), None
#     Edge 22, Type (0, 0), None
#     Edge 23, Type (0, 0), None
#     Edge 24, Type (0, 0), None
#     Edge 25, Type (0, 0), None
#     Edge 26, Type (0, 0), None
#     Edge 27, Type (0, 0), None
#     Edge 28, Type (0, 0), None
#     Edge 29, Type (0, 0), None
#     Edge 30, Type (0, 0), None
#     Edge 31, Type (0, 0), None
#     Edge 32, Type (0, 0), None
#     Edge 33, Type (0, 0), None
#     Edge 34, Type (0, 0), None
#     Edge 35, Type (0, 0), None
#     Edge 36, Type (0, 0), None
#     Edge 37, Type (0, 0), None
#     Edge 38, Type (0, 0), None
#     Edge 39, Type (0, 0), None
#     Edge 40, Type (0, 0), None
#     Edge 41, Type (0, 0), None
#     Edge 42, Type (0, 0), None
#     Edge 43, Type (0, 0), None
#     Edge 44, Type (0, 0), None
#     Edge 45, Type (0, 0), None
#     Edge 46, Type (0, 0), None
#     Edge 47, Type (0, 0), None
#     Edge 48, Type (0, 0), None
#     Edge 49, Type (0, 0), None
#     Edge 50, Type (0, 0), None
#     Edge 51, Type (0, 0), None
#     Edge 52, Type (0, 0), None
#     Edge 53, Type (0, 0), None
#     Edge 54, Type (0, 0), None
#     Edge 55, Type (0, 0), None
# Relax obj value: 0.198
# Max RMSD: 0.239
# Mean RMSD: 0.200
data_MOF--net-zga--node1-BEQFEK_clean_sbu_0--edge1-none
_symmetry_space_group_name_H-M    P1
_symmetry_Int_Tables_number       1
_symmetry_cell_setting            triclinic
loop_
_symmetry_equiv_pos_as_xyz
'x, y, z'
_cell_length_a     25.726712
_cell_length_b     40.856145
_cell_length_c     10.827398
_cell_angle_alpha  90.8442
_cell_angle_beta   89.289518
_cell_angle_gamma 100.50448
loop_
_atom_site_label
_atom_site_type_symbol
_atom_site_fract_x
_atom_site_fract_y
_atom_site_fract_z
_atom_type_partial_charge
Co0 Co 0.10613 0.54309 0.9985 0.0
Co1 Co 0.06404 0.54093 0.26814 0.0
C2 C 0.08564 0.60485 0.13651 0.0
O3 O 0.10273 0.59083 0.04209 0.0
O4 O 0.06891 0.58857 0.23263 0.0
C5 C 0.09362 0.55206 0.75843 0.0
O6 O 0.06666 0.57287 0.81122 0.0
C7 C 0.06794 0.55541 0.53245 0.0
C8 C 0.06446 0.5048 0.60611 0.0
C9 C 0.07629 0.53825 0.63739 0.0
N10 N 0.0544 0.53311 0.44049 0.0
N11 N 0.05137 0.50291 0.48578 0.0
C12 C 0.08134 0.59227 0.5148 0.0
H13 H 0.11098 0.59819 0.43964 0.0
H14 H 0.09787 0.60533 0.59979 0.0
H15 H 0.04526 0.60152 0.48736 0.0
C16 C 0.18487 0.50595 0.12038 0.0
N17 N 0.14381 0.52243 0.11902 0.0
N18 N 0.13072 0.52819 0.23365 0.0
C19 C 0.16648 0.51921 0.31062 0.0
C20 C 0.20039 0.50299 0.24358 0.0
C21 C 0.20656 0.49244 0.00576 0.0
H22 H 0.17416 0.48428 0.93913 0.0
H23 H 0.23524 0.51247 0.96116 0.0
H24 H 0.22616 0.47122 0.02699 0.0
O25 O 0.0355 0.51932 0.98281 0.0
O26 O 0.00177 0.51373 0.17114 0.0
H27 H 0.15978 0.51858 0.50798 0.0
H28 H 0.2225 0.53908 0.45198 0.0
C29 C 0.17932 0.53498 0.4349 0.0
H30 H 0.16681 0.55941 0.44078 0.0
H31 H 0.0444 0.48111 0.43237 0.0
O32 O 0.12457 0.53842 0.82353 0.0
C33 C -0.00249 0.50889 0.05422 0.0
Co34 Co 0.12454 0.70589 0.2781 0.0
Co35 Co 0.0835 0.70367 0.00929 0.0
C36 C 0.08853 0.64101 0.138 0.0
O37 O 0.1059 0.65743 0.23465 0.0
O38 O 0.07638 0.6553 0.04141 0.0
C39 C 0.10752 0.69576 0.51875 0.0
O40 O 0.07082 0.67354 0.46652 0.0
C41 C 0.07372 0.69129 0.74338 0.0
C42 C 0.10809 0.74175 0.67809 0.0
C43 C 0.09643 0.70871 0.64129 0.0
N44 N 0.0759 0.71281 0.83903 0.0
N45 N 0.0943 0.74309 0.79804 0.0
C46 C 0.05833 0.65442 0.75539 0.0
H47 H 0.09406 0.64379 0.77477 0.0
H48 H 0.04019 0.64311 0.66898 0.0
H49 H 0.02957 0.64829 0.83246 0.0
C50 C 0.22233 0.74363 0.14881 0.0
N51 N 0.17157 0.72786 0.15335 0.0
N52 N 0.15532 0.72174 0.03933 0.0
C53 C 0.19633 0.7305 0.96006 0.0
C54 C 0.23921 0.74641 0.0252 0.0
C55 C 0.25511 0.75282 0.26039 0.0
H56 H 0.23127 0.74728 0.34609 0.0
H57 H 0.28755 0.73833 0.25823 0.0
H58 H 0.27239 0.77972 0.25825 0.0
O59 O 0.06346 0.72692 0.2982 0.0
O60 O 0.03248 0.72713 0.10996 0.0
H61 H 0.20044 0.73387 0.76272 0.0
H62 H 0.23939 0.7066 0.82542 0.0
C63 C 0.20088 0.71507 0.83501 0.0
H64 H 0.16963 0.69296 0.82166 0.0
H65 H 0.10275 0.76421 0.85485 0.0
O66 O 0.14527 0.71121 0.45231 0.0
C67 C 0.03034 0.73458 0.22491 0.0
Co68 Co 0.83968 0.44913 0.04748 0.0
Co69 Co 0.88785 0.46091 0.78176 0.0
C70 C 0.87101 0.39339 0.90831 0.0
O71 O 0.85067 0.40352 0.00598 0.0
O72 O 0.8853 0.41268 0.81806 0.0
C73 C 0.85428 0.44197 0.28951 0.0
O74 O 0.88625 0.42469 0.23415 0.0
C75 C 0.86024 0.44574 0.52488 0.0
C76 C 0.9151 0.48358 0.42164 0.0
C77 C 0.8721 0.4579 0.40768 0.0
N78 N 0.89354 0.46399 0.60568 0.0
N79 N 0.92597 0.48681 0.54323 0.0
C80 C 0.81412 0.41955 0.56017 0.0
H81 H 0.82234 0.40676 0.64498 0.0
H82 H 0.77953 0.43153 0.57958 0.0
H83 H 0.80355 0.40131 0.48352 0.0
C84 C 0.7488 0.47279 0.90943 0.0
N85 N 0.79825 0.46635 0.92206 0.0
N86 N 0.82469 0.47592 0.8205 0.0
C87 C 0.7956 0.4915 0.74627 0.0
C88 C 0.74532 0.48892 0.79595 0.0
C89 C 0.7055 0.46166 1.00114 0.0
H90 H 0.70899 0.4368 0.03651 0.0
H91 H 0.66599 0.46049 0.95955 0.0
H92 H 0.71014 0.47915 0.08128 0.0
O93 O 0.91071 0.47755 0.06368 0.0
O94 O 0.94725 0.48718 0.8781 0.0
H95 H 0.79834 0.53603 0.63964 0.0
H96 H 0.81535 0.50124 0.55549 0.0
C97 C 0.81902 0.51452 0.64549 0.0
H98 H 0.86153 0.52394 0.66326 0.0
H99 H 0.95424 0.50516 0.58409 0.0
O100 O 0.81984 0.45277 0.22504 0.0
C101 C 0.94913 0.49053 0.99582 0.0
Co102 Co 0.89832 0.29664 0.02716 0.0
Co103 Co 0.85833 0.29506 0.75771 0.0
C104 C 0.87639 0.35835 0.89762 0.0
O105 O 0.8919 0.34397 0.99038 0.0
O106 O 0.86293 0.34267 0.79751 0.0
C107 C 0.88927 0.30707 0.27002 0.0
O108 O 0.86255 0.32824 0.22282 0.0
C109 C 0.86005 0.30951 0.49601 0.0
C110 C 0.86332 0.25952 0.41886 0.0
C111 C 0.87218 0.29295 0.39023 0.0
N112 N 0.84771 0.28698 0.58595 0.0
N113 N 0.84799 0.25705 0.53814 0.0
C114 C 0.86969 0.34631 0.51772 0.0
H115 H 0.83644 0.35272 0.57324 0.0
H116 H 0.90654 0.35383 0.57123 0.0
H117 H 0.87361 0.36028 0.4301 0.0
C118 C 0.9753 0.25805 0.89927 0.0
N119 N 0.93623 0.27613 0.90218 0.0
N120 N 0.92393 0.28138 0.78776 0.0
C121 C 0.95769 0.26948 0.70948 0.0
C122 C -0.01068 0.25259 0.77609 0.0
C123 C -0.00021 0.24726 0.01199 0.0
H124 H 0.97764 0.25241 0.0964 0.0
H125 H 0.04091 0.26116 0.01736 0.0
H126 H 0.00084 0.22027 0.00509 0.0
O127 O 0.82789 0.27196 0.04612 0.0
O128 O 0.79652 0.26876 0.85674 0.0
H129 H 0.95775 0.26181 0.51337 0.0
H130 H 0.01476 0.28875 0.57016 0.0
C131 C 0.97118 0.2819 0.58162 0.0
H132 H 0.95481 0.30451 0.56412 0.0
H133 H 0.84293 0.23532 0.58982 0.0
O134 O 0.91864 0.29282 0.19953 0.0
C135 C 0.79077 0.26248 0.97224 0.0
Co136 Co 0.10614 0.04309 0.4985 0.0
Co137 Co 0.06405 0.04093 0.76815 0.0
C138 C 0.08567 0.10485 0.63651 0.0
O139 O 0.10276 0.09083 0.54209 0.0
O140 O 0.06893 0.08857 0.73263 0.0
C141 C 0.09363 0.05206 0.25844 0.0
O142 O 0.06669 0.07288 0.31122 0.0
C143 C 0.06796 0.05542 0.03245 0.0
C144 C 0.06446 0.0048 0.10612 0.0
C145 C 0.0763 0.03825 0.1374 0.0
N146 N 0.05442 0.03312 0.9405 0.0
N147 N 0.05137 0.00291 0.98579 0.0
C148 C 0.08138 0.09227 0.01479 0.0
H149 H 0.11102 0.09819 0.93963 0.0
H150 H 0.09791 0.10533 0.09978 0.0
H151 H 0.0453 0.10152 0.98735 0.0
C152 C 0.18487 0.00593 0.62038 0.0
N153 N 0.14381 0.02242 0.61902 0.0
N154 N 0.13073 0.02819 0.73365 0.0
C155 C 0.16649 0.0192 0.81063 0.0
C156 C 0.20039 0.00297 0.74358 0.0
C157 C 0.20655 0.99242 0.50576 0.0
H158 H 0.17416 0.98426 0.43913 0.0
H159 H 0.23524 0.01245 0.46115 0.0
H160 H 0.22615 0.9712 0.52699 0.0
O161 O 0.03551 0.01933 0.48282 0.0
O162 O 0.00178 0.01374 0.67114 0.0
H163 H 0.15978 0.01856 0.00798 0.0
H164 H 0.22251 0.03905 0.95199 0.0
C165 C 0.17933 0.03496 0.93491 0.0
H166 H 0.16683 0.05939 0.9408 0.0
H167 H 0.04439 0.98111 0.93238 0.0
O168 O 0.12458 0.03841 0.32354 0.0
C169 C -0.00248 0.0089 0.55422 0.0
Co170 Co 0.12452 0.2059 0.7781 0.0
Co171 Co 0.08349 0.20366 0.50928 0.0
C172 C 0.08855 0.14101 0.63799 0.0
O173 O 0.10591 0.15743 0.73464 0.0
O174 O 0.0764 0.1553 0.5414 0.0
C175 C 0.10751 0.19576 0.01875 0.0
O176 O 0.07082 0.17353 0.96651 0.0
C177 C 0.07371 0.19128 0.24337 0.0
C178 C 0.10805 0.24175 0.17809 0.0
C179 C 0.09641 0.20871 0.14129 0.0
N180 N 0.07587 0.21281 0.33902 0.0
N181 N 0.09426 0.24309 0.29803 0.0
C182 C 0.05834 0.15442 0.25538 0.0
H183 H 0.09408 0.1438 0.27474 0.0
H184 H 0.0402 0.1431 0.16897 0.0
H185 H 0.02959 0.14827 0.33245 0.0
C186 C 0.22229 0.24366 0.6488 0.0
N187 N 0.17154 0.22788 0.65334 0.0
N188 N 0.15529 0.22175 0.53933 0.0
C189 C 0.1963 0.23052 0.46005 0.0
C190 C 0.23918 0.24644 0.5252 0.0
C191 C 0.25507 0.25285 0.76038 0.0
H192 H 0.23123 0.24732 0.84609 0.0
H193 H 0.2875 0.23836 0.75825 0.0
H194 H 0.27236 0.27975 0.75822 0.0
O195 O 0.06342 0.22691 0.79819 0.0
O196 O 0.03244 0.2271 0.60995 0.0
H197 H 0.20041 0.23389 0.26272 0.0
H198 H 0.23938 0.20663 0.32544 0.0
C199 C 0.20086 0.21509 0.33501 0.0
H200 H 0.16962 0.19298 0.32166 0.0
H201 H 0.1027 0.26421 0.35484 0.0
O202 O 0.14525 0.21122 0.9523 0.0
C203 C 0.03029 0.23456 0.7249 0.0
Co204 Co 0.83968 0.94915 0.54748 0.0
Co205 Co 0.88786 0.96093 0.28176 0.0
C206 C 0.87102 0.89341 0.40831 0.0
O207 O 0.85068 0.90354 0.50598 0.0
O208 O 0.88531 0.9127 0.31806 0.0
C209 C 0.85429 0.94199 0.78951 0.0
O210 O 0.88626 0.92471 0.73416 0.0
C211 C 0.86025 0.94576 0.02488 0.0
C212 C 0.9151 0.9836 0.92163 0.0
C213 C 0.8721 0.95792 0.90768 0.0
N214 N 0.89355 0.96401 0.10568 0.0
N215 N 0.92597 0.98683 0.04323 0.0
C216 C 0.81413 0.91957 0.06017 0.0
H217 H 0.82235 0.90677 0.14498 0.0
H218 H 0.77953 0.93154 0.07958 0.0
H219 H 0.80356 0.90132 0.98352 0.0
C220 C 0.7488 0.9728 0.40943 0.0
N221 N 0.79825 0.96637 0.42206 0.0
N222 N 0.8247 0.97594 0.3205 0.0
C223 C 0.7956 0.99152 0.24626 0.0
C224 C 0.74531 0.98894 0.29595 0.0
C225 C 0.70551 0.96168 0.50113 0.0
H226 H 0.709 0.93681 0.5365 0.0
H227 H 0.66599 0.9605 0.45955 0.0
H228 H 0.71013 0.97916 0.58128 0.0
O229 O 0.91072 0.97757 0.56367 0.0
O230 O 0.94725 0.9872 0.3781 0.0
H231 H 0.79834 0.03604 0.13964 0.0
H232 H 0.81535 0.00126 0.05548 0.0
C233 C 0.81902 0.01453 0.14549 0.0
H234 H 0.86152 0.02396 0.16325 0.0
H235 H 0.95424 0.00519 0.08408 0.0
O236 O 0.81984 0.95279 0.72503 0.0
C237 C 0.94914 0.99055 0.49582 0.0
Co238 Co 0.89837 0.79667 0.52716 0.0
Co239 Co 0.85838 0.79508 0.25771 0.0
C240 C 0.87641 0.85837 0.39762 0.0
O241 O 0.89193 0.84399 0.49038 0.0
O242 O 0.86296 0.84269 0.29751 0.0
C243 C 0.88932 0.80709 0.77002 0.0
O244 O 0.86259 0.82826 0.72282 0.0
C245 C 0.86009 0.80953 0.99601 0.0
C246 C 0.86338 0.75955 0.91886 0.0
C247 C 0.87223 0.79297 0.89023 0.0
N248 N 0.84776 0.78701 0.08595 0.0
N249 N 0.84804 0.75707 0.03814 0.0
C250 C 0.86973 0.84633 0.01773 0.0
H251 H 0.83648 0.85274 0.07324 0.0
H252 H 0.90657 0.85386 0.07125 0.0
H253 H 0.87365 0.86031 0.9301 0.0
C254 C 0.97536 0.75809 0.39928 0.0
N255 N 0.93629 0.77617 0.40218 0.0
N256 N 0.92399 0.78142 0.28776 0.0
C257 C 0.95775 0.76952 0.20948 0.0
C258 C -0.0106 0.75264 0.2761 0.0
C259 C -0.00015 0.7473 0.512 0.0
H260 H 0.9777 0.75246 0.59641 0.0
H261 H 0.04098 0.76119 0.51736 0.0
H262 H 0.00088 0.72031 0.50511 0.0
O263 O 0.82795 0.77198 0.54612 0.0
O264 O 0.79657 0.76878 0.35674 0.0
H265 H 0.9578 0.76184 0.01338 0.0
H266 H 0.01481 0.78878 0.07012 0.0
C267 C 0.97124 0.78194 0.08161 0.0
H268 H 0.95486 0.80454 0.0641 0.0
H269 H 0.84299 0.73534 0.08981 0.0
O270 O 0.91869 0.79285 0.69953 0.0
C271 C 0.79083 0.76249 0.47224 0.0
Co272 Co 0.60614 0.5431 0.4985 0.0
Co273 Co 0.56406 0.54093 0.76815 0.0
C274 C 0.58567 0.60485 0.63651 0.0
O275 O 0.60276 0.59084 0.54209 0.0
O276 O 0.56894 0.58858 0.73263 0.0
C277 C 0.59364 0.55207 0.25843 0.0
O278 O 0.56669 0.57288 0.31122 0.0
C279 C 0.56797 0.55542 0.03244 0.0
C280 C 0.56446 0.50481 0.10613 0.0
C281 C 0.5763 0.53826 0.1374 0.0
N282 N 0.55443 0.53312 0.9405 0.0
N283 N 0.55136 0.50292 0.9858 0.0
C284 C 0.5814 0.59228 0.01478 0.0
H285 H 0.61104 0.59819 0.93962 0.0
H286 H 0.59793 0.60534 0.09977 0.0
H287 H 0.54532 0.60153 0.98734 0.0
C288 C 0.68489 0.50595 0.62035 0.0
N289 N 0.64382 0.52243 0.61901 0.0
N290 N 0.63074 0.52819 0.73365 0.0
C291 C 0.66651 0.51921 0.81061 0.0
C292 C 0.70043 0.50301 0.74353 0.0
C293 C 0.70656 0.49244 0.50571 0.0
H294 H 0.67416 0.48428 0.43908 0.0
H295 H 0.73525 0.51246 0.46112 0.0
H296 H 0.72615 0.47121 0.52693 0.0
O297 O 0.53551 0.51934 0.48282 0.0
O298 O 0.50178 0.51375 0.67114 0.0
H299 H 0.65977 0.51856 0.00795 0.0
H300 H 0.72251 0.53904 0.95204 0.0
C301 C 0.67934 0.53495 0.93491 0.0
H302 H 0.66685 0.55939 0.94082 0.0
H303 H 0.54438 0.48112 0.93239 0.0
O304 O 0.62458 0.53842 0.32354 0.0
C305 C 0.49753 0.5089 0.55423 0.0
Co306 Co 0.62456 0.7059 0.7781 0.0
Co307 Co 0.58352 0.70367 0.50929 0.0
C308 C 0.58856 0.64102 0.638 0.0
O309 O 0.60593 0.65744 0.73464 0.0
O310 O 0.57641 0.65531 0.54141 0.0
C311 C 0.60755 0.69576 0.01875 0.0
O312 O 0.57085 0.67354 0.96651 0.0
C313 C 0.57375 0.69129 0.24337 0.0
C314 C 0.60809 0.74175 0.17809 0.0
C315 C 0.59645 0.70872 0.14129 0.0
N316 N 0.57592 0.71282 0.33903 0.0
N317 N 0.59431 0.7431 0.29803 0.0
C318 C 0.55836 0.65443 0.25539 0.0
H319 H 0.5941 0.6438 0.27476 0.0
H320 H 0.54023 0.64311 0.16897 0.0
H321 H 0.52961 0.64828 0.33245 0.0
C322 C 0.72234 0.74365 0.6488 0.0
N323 N 0.67158 0.72787 0.65334 0.0
N324 N 0.65534 0.72175 0.53933 0.0
C325 C 0.69634 0.73051 0.46005 0.0
C326 C 0.73922 0.74643 0.5252 0.0
C327 C 0.75512 0.75284 0.76038 0.0
H328 H 0.73128 0.74731 0.84609 0.0
H329 H 0.78756 0.73835 0.75824 0.0
H330 H 0.7724 0.77974 0.75823 0.0
O331 O 0.56348 0.72692 0.79819 0.0
O332 O 0.53249 0.72713 0.60996 0.0
H333 H 0.70046 0.73389 0.26272 0.0
H334 H 0.73942 0.70662 0.32542 0.0
C335 C 0.7009 0.71509 0.33501 0.0
H336 H 0.66965 0.69298 0.32166 0.0
H337 H 0.60275 0.76421 0.35484 0.0
O338 O 0.64529 0.71122 0.95231 0.0
C339 C 0.53035 0.73458 0.7249 0.0
Co340 Co 0.33969 0.44916 0.5475 0.0
Co341 Co 0.38785 0.46093 0.28178 0.0
C342 C 0.37102 0.39341 0.40832 0.0
O343 O 0.35068 0.40355 0.50599 0.0
O344 O 0.3853 0.4127 0.31807 0.0
C345 C 0.35429 0.44199 0.78953 0.0
O346 O 0.38626 0.42471 0.73418 0.0
C347 C 0.36025 0.44576 0.0249 0.0
C348 C 0.4151 0.4836 0.92165 0.0
C349 C 0.3721 0.45793 0.9077 0.0
N350 N 0.39354 0.46401 0.1057 0.0
N351 N 0.42596 0.48684 0.04325 0.0
C352 C 0.31413 0.41957 0.06019 0.0
H353 H 0.32236 0.40677 0.14497 0.0
H354 H 0.27954 0.43154 0.07966 0.0
H355 H 0.30355 0.40133 0.98352 0.0
C356 C 0.24881 0.47281 0.40949 0.0
N357 N 0.29826 0.46637 0.4221 0.0
N358 N 0.32469 0.47594 0.32052 0.0
C359 C 0.2956 0.49153 0.2463 0.0
C360 C 0.24532 0.48896 0.29605 0.0
C361 C 0.20552 0.46168 0.50121 0.0
H362 H 0.20902 0.43682 0.53658 0.0
H363 H 0.166 0.46051 0.45962 0.0
H364 H 0.21014 0.47917 0.58134 0.0
O365 O 0.41072 0.47757 0.56369 0.0
O366 O 0.44725 0.4872 0.37811 0.0
H367 H 0.29832 0.53604 0.13963 0.0
H368 H 0.31534 0.50125 0.05551 0.0
C369 C 0.31901 0.51454 0.1455 0.0
H370 H 0.36151 0.52397 0.16326 0.0
H371 H 0.45423 0.50519 0.0841 0.0
O372 O 0.31985 0.45279 0.72505 0.0
C373 C 0.44914 0.49055 0.49583 0.0
Co374 Co 0.39833 0.29666 0.52716 0.0
Co375 Co 0.35834 0.29508 0.25772 0.0
C376 C 0.37639 0.35837 0.39762 0.0
O377 O 0.39191 0.34399 0.49038 0.0
O378 O 0.36294 0.34269 0.29751 0.0
C379 C 0.38929 0.30709 0.77002 0.0
O380 O 0.36256 0.32826 0.72282 0.0
C381 C 0.36006 0.30953 0.99601 0.0
C382 C 0.36333 0.25954 0.91886 0.0
C383 C 0.37219 0.29297 0.89023 0.0
N384 N 0.34772 0.28701 0.08595 0.0
N385 N 0.348 0.25707 0.03814 0.0
C386 C 0.3697 0.34633 0.01772 0.0
H387 H 0.33645 0.35274 0.07323 0.0
H388 H 0.40655 0.35385 0.07124 0.0
H389 H 0.37363 0.36031 0.9301 0.0
C390 C 0.4753 0.25807 0.39927 0.0
N391 N 0.43624 0.27615 0.40218 0.0
N392 N 0.42394 0.28141 0.28776 0.0
C393 C 0.45769 0.2695 0.20948 0.0
C394 C 0.48932 0.2526 0.27609 0.0
C395 C 0.49978 0.24727 0.51199 0.0
H396 H 0.47763 0.25243 0.5964 0.0
H397 H 0.54091 0.26117 0.51737 0.0
H398 H 0.50083 0.22028 0.50509 0.0
O399 O 0.32791 0.27198 0.54612 0.0
O400 O 0.29653 0.26878 0.35674 0.0
H401 H 0.45776 0.26183 0.01337 0.0
H402 H 0.51477 0.28876 0.07016 0.0
C403 C 0.47119 0.28192 0.08162 0.0
H404 H 0.45483 0.30453 0.06412 0.0
H405 H 0.34294 0.23534 0.08982 0.0
O406 O 0.41865 0.29284 0.69953 0.0
C407 C 0.29078 0.2625 0.47224 0.0
Co408 Co 0.60612 0.0431 0.99849 0.0
Co409 Co 0.56404 0.04092 0.26814 0.0
C410 C 0.58563 0.10485 0.13651 0.0
O411 O 0.60272 0.09083 0.04208 0.0
O412 O 0.56891 0.08857 0.23263 0.0
C413 C 0.59361 0.05206 0.75843 0.0
O414 O 0.56666 0.07287 0.81121 0.0
C415 C 0.56795 0.05541 0.53244 0.0
C416 C 0.56445 0.0048 0.60612 0.0
C417 C 0.57628 0.03825 0.63739 0.0
N418 N 0.55441 0.03311 0.44049 0.0
N419 N 0.55136 0.00291 0.48579 0.0
C420 C 0.58136 0.09227 0.51478 0.0
H421 H 0.611 0.09819 0.43962 0.0
H422 H 0.59789 0.10533 0.59977 0.0
H423 H 0.54528 0.10152 0.48733 0.0
C424 C 0.68488 0.00596 0.12034 0.0
N425 N 0.64381 0.02243 0.11901 0.0
N426 N 0.63073 0.02819 0.23364 0.0
C427 C 0.6665 0.01922 0.3106 0.0
C428 C 0.70043 0.00302 0.24353 0.0
C429 C 0.70656 0.99245 0.00571 0.0
H430 H 0.67416 0.98429 0.93908 0.0
H431 H 0.73525 0.01248 0.96111 0.0
H432 H 0.72615 0.97122 0.02693 0.0
O433 O 0.53549 0.01932 0.98281 0.0
O434 O 0.50177 0.01373 0.17114 0.0
H435 H 0.65976 0.01856 0.50794 0.0
H436 H 0.7225 0.03905 0.45203 0.0
C437 C 0.67932 0.03496 0.43491 0.0
H438 H 0.66683 0.0594 0.44081 0.0
H439 H 0.54438 0.98111 0.43238 0.0
O440 O 0.62456 0.03842 0.82353 0.0
C441 C 0.49751 0.00888 0.05422 0.0
Co442 Co 0.6245 0.20589 0.2781 0.0
Co443 Co 0.58346 0.20366 0.00928 0.0
C444 C 0.58851 0.14101 0.13799 0.0
O445 O 0.60588 0.15743 0.23464 0.0
O446 O 0.57636 0.1553 0.0414 0.0
C447 C 0.60749 0.19576 0.51875 0.0
O448 O 0.57079 0.17353 0.46651 0.0
C449 C 0.57369 0.19128 0.74337 0.0
C450 C 0.60803 0.24174 0.67809 0.0
C451 C 0.59639 0.20871 0.64129 0.0
N452 N 0.57585 0.21281 0.83903 0.0
N453 N 0.59425 0.24309 0.79803 0.0
C454 C 0.55831 0.15442 0.75539 0.0
H455 H 0.59404 0.14379 0.77476 0.0
H456 H 0.54018 0.1431 0.66897 0.0
H457 H 0.52955 0.14827 0.83245 0.0
C458 C 0.72228 0.24365 0.14881 0.0
N459 N 0.67152 0.22787 0.15334 0.0
N460 N 0.65528 0.22175 0.03933 0.0
C461 C 0.69628 0.2305 0.96005 0.0
C462 C 0.73916 0.24643 0.0252 0.0
C463 C 0.75506 0.25283 0.26038 0.0
H464 H 0.73121 0.2473 0.34609 0.0
H465 H 0.78749 0.23834 0.25825 0.0
H466 H 0.77235 0.27973 0.25823 0.0
O467 O 0.56341 0.22691 0.29819 0.0
O468 O 0.53242 0.22711 0.10995 0.0
H469 H 0.70039 0.23388 0.76272 0.0
H470 H 0.73936 0.20661 0.82543 0.0
C471 C 0.70083 0.21508 0.83501 0.0
H472 H 0.66959 0.19297 0.82166 0.0
H473 H 0.60269 0.2642 0.85484 0.0
O474 O 0.64523 0.21122 0.45231 0.0
C475 C 0.53028 0.23456 0.2249 0.0
Co476 Co 0.33968 0.94913 0.0475 0.0
Co477 Co 0.38784 0.96091 0.78177 0.0
C478 C 0.37101 0.89339 0.90832 0.0
O479 O 0.35067 0.90352 0.00599 0.0
O480 O 0.3853 0.91268 0.81806 0.0
C481 C 0.35428 0.94197 0.28952 0.0
O482 O 0.38625 0.92469 0.23417 0.0
C483 C 0.36024 0.94574 0.52489 0.0
C484 C 0.4151 0.98358 0.42165 0.0
C485 C 0.3721 0.9579 0.40769 0.0
N486 N 0.39354 0.96399 0.60569 0.0
N487 N 0.42596 0.98681 0.54325 0.0
C488 C 0.31413 0.91954 0.56018 0.0
H489 H 0.32235 0.90674 0.64497 0.0
H490 H 0.27953 0.93152 0.57964 0.0
H491 H 0.30354 0.90131 0.48352 0.0
C492 C 0.2488 0.97279 0.90948 0.0
N493 N 0.29825 0.96635 0.92209 0.0
N494 N 0.32469 0.97592 0.82051 0.0
C495 C 0.29559 0.9915 0.7463 0.0
C496 C 0.24532 0.98894 0.79604 0.0
C497 C 0.20551 0.96166 1.0012 0.0
H498 H 0.20901 0.9368 0.03658 0.0
H499 H 0.16599 0.96049 0.95962 0.0
H500 H 0.21014 0.97915 0.08134 0.0
O501 O 0.41071 0.97755 0.06369 0.0
O502 O 0.44724 0.98718 0.87811 0.0
H503 H 0.29832 0.03602 0.63963 0.0
H504 H 0.31534 0.00123 0.55551 0.0
C505 C 0.319 0.01451 0.6455 0.0
H506 H 0.36151 0.02395 0.66326 0.0
H507 H 0.45422 0.00517 0.5841 0.0
O508 O 0.31984 0.95277 0.22505 0.0
C509 C 0.44913 0.99053 0.99583 0.0
Co510 Co 0.39836 0.79665 0.02717 0.0
Co511 Co 0.35836 0.79506 0.75772 0.0
C512 C 0.37639 0.85835 0.89762 0.0
O513 O 0.39192 0.84397 0.99038 0.0
O514 O 0.36295 0.84267 0.79751 0.0
C515 C 0.3893 0.80707 0.27002 0.0
O516 O 0.36257 0.82823 0.22282 0.0
C517 C 0.36008 0.80951 0.49601 0.0
C518 C 0.36337 0.75952 0.41886 0.0
C519 C 0.37221 0.79295 0.39023 0.0
N520 N 0.34775 0.78698 0.58595 0.0
N521 N 0.34804 0.75705 0.53814 0.0
C522 C 0.3697 0.84631 0.51772 0.0
H523 H 0.33645 0.85271 0.57323 0.0
H524 H 0.40655 0.85384 0.57124 0.0
H525 H 0.37362 0.86028 0.4301 0.0
C526 C 0.47536 0.75808 0.89928 0.0
N527 N 0.43628 0.77615 0.90218 0.0
N528 N 0.42398 0.7814 0.78776 0.0
C529 C 0.45775 0.76951 0.70948 0.0
C530 C 0.4894 0.75263 0.7761 0.0
C531 C 0.49985 0.74729 0.012 0.0
H532 H 0.4777 0.75244 0.09641 0.0
H533 H 0.54098 0.76118 0.01736 0.0
H534 H 0.50089 0.7203 0.0051 0.0
O535 O 0.32794 0.77195 0.04612 0.0
O536 O 0.29656 0.76876 0.85674 0.0
H537 H 0.45779 0.76183 0.51338 0.0
H538 H 0.5148 0.78877 0.57012 0.0
C539 C 0.47123 0.78192 0.58161 0.0
H540 H 0.45485 0.80453 0.56411 0.0
H541 H 0.34299 0.73532 0.58982 0.0
O542 O 0.41868 0.79283 0.19954 0.0
C543 C 0.29082 0.76247 0.97224 0.0
loop_
_geom_bond_atom_site_label_1
_geom_bond_atom_site_label_2
_geom_bond_distance
_geom_bond_site_symmetry_2
_ccdc_geom_bond_type
Co0 O3 1.970 1_556 S
Co0 N17 1.989 1_556 S
Co0 O25 1.967 1_556 S
Co0 O32 1.920 . S
Co1 O4 1.966 . S
Co1 N10 2.022 . S
Co1 N18 1.993 . S
Co1 O26 1.941 1_455 S
C2 O3 1.258 . S
C2 O4 1.263 . S
O3 Co0 1.970 1_554 S
O3 C2 1.258 . S
O4 Co1 1.966 . S
O4 C2 1.263 . S
C5 O6 1.235 . S
C5 O32 1.289 . S
O6 C5 1.235 . S
C7 C9 1.400 . S
C7 N10 1.351 . S
C7 C12 1.501 . S
C8 C9 1.387 . S
C8 N11 1.341 . S
C9 C7 1.400 . S
C9 C8 1.387 . S
N10 Co1 2.022 . S
N10 C7 1.351 . S
N10 N11 1.365 . S
N11 C8 1.341 . S
N11 N10 1.365 . S
N11 H31 0.862 . S
C12 C7 1.501 . S
C12 H13 0.961 . S
C12 H14 0.961 . S
C12 H15 0.960 . S
H13 C12 0.961 . S
H14 C12 0.961 . S
H15 C12 0.960 . S
C16 N17 1.342 . S
C16 C20 1.401 . S
C16 C21 1.499 1_554 S
N17 Co0 1.989 1_554 S
N17 C16 1.342 . S
N17 N18 1.388 . S
N18 Co1 1.993 . S
N18 N17 1.388 . S
N18 C19 1.346 . S
C19 N18 1.346 . S
C19 C20 1.396 . S
C19 C29 1.510 . S
C20 C16 1.401 . S
C20 C19 1.396 . S
C21 C16 1.499 1_556 S
C21 H22 0.959 . S
C21 H23 0.960 . S
C21 H24 0.961 . S
H22 C21 0.959 . S
H23 C21 0.960 . S
H24 C21 0.961 . S
O25 Co0 1.967 1_554 S
O25 C33 1.258 1_455 S
O26 Co1 1.941 1_655 S
O26 C33 1.266 . S
H27 C29 0.959 . S
H28 C29 0.961 . S
C29 C19 1.510 . S
C29 H27 0.959 . S
C29 H28 0.961 . S
C29 H30 0.960 . S
H30 C29 0.960 . S
H31 N11 0.862 . S
O32 Co0 1.920 . S
O32 C5 1.289 . S
C33 O25 1.258 1_655 S
C33 O26 1.266 . S
Co34 O37 1.970 . S
Co34 N51 1.989 . S
Co34 O59 1.967 . S
Co34 O66 1.920 . S
Co35 O38 1.966 1_556 S
Co35 N44 2.022 . S
Co35 N52 1.993 1_556 S
Co35 O60 1.941 1_556 S
C36 O37 1.258 . S
C36 O38 1.263 . S
O37 Co34 1.970 . S
O37 C36 1.258 . S
O38 Co35 1.966 1_554 S
O38 C36 1.263 . S
C39 O40 1.235 . S
C39 O66 1.289 . S
O40 C39 1.235 . S
C41 C43 1.400 . S
C41 N44 1.351 . S
C41 C46 1.501 . S
C42 C43 1.387 . S
C42 N45 1.341 . S
C43 C41 1.400 . S
C43 C42 1.387 . S
N44 Co35 2.022 . S
N44 C41 1.351 . S
N44 N45 1.365 . S
N45 C42 1.341 . S
N45 N44 1.365 . S
N45 H65 0.862 . S
C46 C41 1.501 . S
C46 H47 0.961 . S
C46 H48 0.961 . S
C46 H49 0.960 . S
H47 C46 0.961 . S
H48 C46 0.961 . S
H49 C46 0.960 . S
C50 N51 1.342 . S
C50 C54 1.401 . S
C50 C55 1.499 . S
N51 Co34 1.989 . S
N51 C50 1.342 . S
N51 N52 1.388 . S
N52 Co35 1.993 1_554 S
N52 N51 1.388 . S
N52 C53 1.346 1_554 S
C53 N52 1.346 1_556 S
C53 C54 1.396 1_556 S
C53 C63 1.510 . S
C54 C50 1.401 . S
C54 C53 1.396 1_554 S
C55 C50 1.499 . S
C55 H56 0.959 . S
C55 H57 0.960 . S
C55 H58 0.961 . S
H56 C55 0.959 . S
H57 C55 0.960 . S
H58 C55 0.961 . S
O59 Co34 1.967 . S
O59 C67 1.258 . S
O60 Co35 1.941 1_554 S
O60 C67 1.266 . S
H61 C63 0.959 . S
H62 C63 0.961 . S
C63 C53 1.510 . S
C63 H61 0.959 . S
C63 H62 0.961 . S
C63 H64 0.960 . S
H64 C63 0.960 . S
H65 N45 0.862 . S
O66 Co34 1.920 . S
O66 C39 1.289 . S
C67 O59 1.258 . S
C67 O60 1.266 . S
Co68 O71 1.970 1_554 S
Co68 N85 1.989 1_554 S
Co68 O93 1.967 . S
Co68 O100 1.920 . S
Co69 O72 1.966 . S
Co69 N78 2.022 . S
Co69 N86 1.993 . S
Co69 O94 1.941 . S
C70 O71 1.258 . S
C70 O72 1.263 . S
O71 Co68 1.970 1_556 S
O71 C70 1.258 . S
O72 Co69 1.966 . S
O72 C70 1.263 . S
C73 O74 1.235 . S
C73 O100 1.289 . S
O74 C73 1.235 . S
C75 C77 1.400 . S
C75 N78 1.351 . S
C75 C80 1.501 . S
C76 C77 1.387 . S
C76 N79 1.341 . S
C77 C75 1.400 . S
C77 C76 1.387 . S
N78 Co69 2.022 . S
N78 C75 1.351 . S
N78 N79 1.365 . S
N79 C76 1.341 . S
N79 N78 1.365 . S
N79 H99 0.862 . S
C80 C75 1.501 . S
C80 H81 0.961 . S
C80 H82 0.961 . S
C80 H83 0.960 . S
H81 C80 0.961 . S
H82 C80 0.961 . S
H83 C80 0.960 . S
C84 N85 1.342 . S
C84 C88 1.401 . S
C84 C89 1.499 1_556 S
N85 Co68 1.989 1_556 S
N85 C84 1.342 . S
N85 N86 1.388 . S
N86 Co69 1.993 . S
N86 N85 1.388 . S
N86 C87 1.346 . S
C87 N86 1.346 . S
C87 C88 1.396 . S
C87 C97 1.510 . S
C88 C84 1.401 . S
C88 C87 1.396 . S
C89 C84 1.499 1_554 S
C89 H90 0.959 . S
C89 H91 0.960 . S
C89 H92 0.961 . S
H90 C89 0.959 . S
H91 C89 0.960 . S
H92 C89 0.961 . S
O93 Co68 1.967 . S
O93 C101 1.258 1_554 S
O94 Co69 1.941 . S
O94 C101 1.266 . S
H95 C97 0.959 . S
H96 C97 0.961 . S
C97 C87 1.510 . S
C97 H95 0.959 . S
C97 H96 0.961 . S
C97 H98 0.960 . S
H98 C97 0.960 . S
H99 N79 0.862 . S
O100 Co68 1.920 . S
O100 C73 1.289 . S
C101 O93 1.258 1_556 S
C101 O94 1.266 . S
Co102 O105 1.970 1_554 S
Co102 N119 1.989 1_554 S
Co102 O127 1.967 . S
Co102 O134 1.920 . S
Co103 O106 1.966 . S
Co103 N112 2.022 . S
Co103 N120 1.993 . S
Co103 O128 1.941 . S
C104 O105 1.258 . S
C104 O106 1.263 . S
O105 Co102 1.970 1_556 S
O105 C104 1.258 . S
O106 Co103 1.966 . S
O106 C104 1.263 . S
C107 O108 1.235 1_655 S
C107 O134 1.289 . S
O108 C107 1.235 1_455 S
C109 C111 1.400 . S
C109 N112 1.351 . S
C109 C114 1.501 . S
C110 C111 1.387 . S
C110 N113 1.341 . S
C111 C109 1.400 . S
C111 C110 1.387 . S
N112 Co103 2.022 . S
N112 C109 1.351 . S
N112 N113 1.365 . S
N113 C110 1.341 . S
N113 N112 1.365 . S
N113 H133 0.862 . S
C114 C109 1.501 . S
C114 H115 0.961 . S
C114 H116 0.961 . S
C114 H117 0.960 . S
H115 C114 0.961 . S
H116 C114 0.961 . S
H117 C114 0.960 . S
C118 N119 1.342 1_455 S
C118 C122 1.401 . S
C118 C123 1.499 1_556 S
N119 Co102 1.989 1_556 S
N119 C118 1.342 1_655 S
N119 N120 1.388 . S
N120 Co103 1.993 . S
N120 N119 1.388 . S
N120 C121 1.346 1_655 S
C121 N120 1.346 1_455 S
C121 C122 1.396 . S
C121 C131 1.510 . S
C122 C118 1.401 . S
C122 C121 1.396 . S
C123 C118 1.499 1_554 S
C123 H124 0.959 . S
C123 H125 0.960 . S
C123 H126 0.961 . S
H124 C123 0.959 . S
H125 C123 0.960 . S
H126 C123 0.961 . S
O127 Co102 1.967 . S
O127 C135 1.258 1_554 S
O128 Co103 1.941 . S
O128 C135 1.266 . S
H129 C131 0.960 1_655 S
H130 C131 0.961 . S
C131 C121 1.510 . S
C131 H129 0.960 1_455 S
C131 H130 0.961 . S
C131 H132 0.960 1_455 S
H132 C131 0.960 1_655 S
H133 N113 0.862 . S
O134 Co102 1.920 . S
O134 C107 1.289 . S
C135 O127 1.258 1_556 S
C135 O128 1.266 . S
Co136 O139 1.970 . S
Co136 N153 1.989 . S
Co136 O161 1.967 . S
Co136 O168 1.920 . S
Co137 O140 1.966 . S
Co137 N146 2.022 . S
Co137 N154 1.993 . S
Co137 O162 1.941 1_455 S
C138 O139 1.258 . S
C138 O140 1.263 . S
O139 Co136 1.970 . S
O139 C138 1.258 . S
O140 Co137 1.966 . S
O140 C138 1.263 . S
C141 O142 1.235 . S
C141 O168 1.289 . S
O142 C141 1.235 . S
C143 C145 1.400 . S
C143 N146 1.351 1_554 S
C143 C148 1.501 . S
C144 C145 1.387 . S
C144 N147 1.341 . S
C145 C143 1.400 . S
C145 C144 1.387 . S
N146 Co137 2.022 . S
N146 C143 1.351 1_556 S
N146 N147 1.365 1_556 S
N147 C144 1.341 . S
N147 N146 1.365 1_554 S
N147 H167 0.865 1_545 S
C148 C143 1.501 . S
C148 H149 0.961 1_554 S
C148 H150 0.961 . S
C148 H151 0.960 . S
H149 C148 0.961 1_556 S
H150 C148 0.961 . S
H151 C148 0.960 . S
C152 N153 1.342 . S
C152 C156 1.401 1_545 S
C152 C157 1.499 1_545 S
N153 Co136 1.989 . S
N153 C152 1.342 . S
N153 N154 1.388 . S
N154 Co137 1.993 . S
N154 N153 1.388 . S
N154 C155 1.346 . S
C155 N154 1.346 . S
C155 C156 1.396 1_545 S
C155 C165 1.510 . S
C156 C152 1.401 1_565 S
C156 C155 1.396 1_565 S
C157 C152 1.499 1_565 S
C157 H158 0.959 1_565 S
C157 H159 0.960 1_565 S
C157 H160 0.961 . S
H158 C157 0.959 1_545 S
H159 C157 0.960 1_545 S
H160 C157 0.961 . S
O161 Co136 1.967 . S
O161 C169 1.258 1_455 S
O162 Co137 1.941 1_655 S
O162 C169 1.266 . S
H163 C165 0.959 1_565 S
H164 C165 0.961 . S
C165 C155 1.510 . S
C165 H163 0.959 1_545 S
C165 H164 0.961 . S
C165 H166 0.960 . S
H166 C165 0.960 . S
H167 N147 0.865 1_565 S
O168 Co136 1.920 . S
O168 C141 1.289 . S
C169 O161 1.258 1_655 S
C169 O162 1.266 . S
Co170 O173 1.970 . S
Co170 N187 1.989 . S
Co170 O195 1.967 . S
Co170 O202 1.920 . S
Co171 O174 1.966 . S
Co171 N180 2.022 . S
Co171 N188 1.993 . S
Co171 O196 1.941 . S
C172 O173 1.258 . S
C172 O174 1.263 . S
O173 Co170 1.970 . S
O173 C172 1.258 . S
O174 Co171 1.966 . S
O174 C172 1.263 . S
C175 O176 1.235 1_554 S
C175 O202 1.289 1_554 S
O176 C175 1.235 1_556 S
C177 C179 1.400 . S
C177 N180 1.351 . S
C177 C182 1.501 . S
C178 C179 1.387 . S
C178 N181 1.341 . S
C179 C177 1.400 . S
C179 C178 1.387 . S
N180 Co171 2.022 . S
N180 C177 1.351 . S
N180 N181 1.365 . S
N181 C178 1.341 . S
N181 N180 1.365 . S
N181 H201 0.862 . S
C182 C177 1.501 . S
C182 H183 0.961 . S
C182 H184 0.961 . S
C182 H185 0.960 . S
H183 C182 0.961 . S
H184 C182 0.961 . S
H185 C182 0.960 . S
C186 N187 1.342 . S
C186 C190 1.401 . S
C186 C191 1.499 . S
N187 Co170 1.989 . S
N187 C186 1.342 . S
N187 N188 1.388 . S
N188 Co171 1.993 . S
N188 N187 1.388 . S
N188 C189 1.346 . S
C189 N188 1.346 . S
C189 C190 1.396 . S
C189 C199 1.510 . S
C190 C186 1.401 . S
C190 C189 1.396 . S
C191 C186 1.499 . S
C191 H192 0.959 . S
C191 H193 0.960 . S
C191 H194 0.961 . S
H192 C191 0.959 . S
H193 C191 0.960 . S
H194 C191 0.961 . S
O195 Co170 1.967 . S
O195 C203 1.258 . S
O196 Co171 1.941 . S
O196 C203 1.266 . S
H197 C199 0.959 . S
H198 C199 0.961 . S
C199 C189 1.510 . S
C199 H197 0.959 . S
C199 H198 0.961 . S
C199 H200 0.960 . S
H200 C199 0.960 . S
H201 N181 0.862 . S
O202 Co170 1.920 . S
O202 C175 1.289 1_556 S
C203 O195 1.258 . S
C203 O196 1.266 . S
Co204 O207 1.970 . S
Co204 N221 1.989 . S
Co204 O229 1.967 . S
Co204 O236 1.920 . S
Co205 O208 1.966 . S
Co205 N214 2.022 . S
Co205 N222 1.993 . S
Co205 O230 1.941 . S
C206 O207 1.258 . S
C206 O208 1.263 . S
O207 Co204 1.970 . S
O207 C206 1.258 . S
O208 Co205 1.966 . S
O208 C206 1.263 . S
C209 O210 1.235 . S
C209 O236 1.289 . S
O210 C209 1.235 . S
C211 C213 1.400 . S
C211 N214 1.351 1_556 S
C211 C216 1.501 1_556 S
C212 C213 1.387 . S
C212 N215 1.341 1_556 S
C213 C211 1.400 . S
C213 C212 1.387 . S
N214 Co205 2.022 . S
N214 C211 1.351 1_554 S
N214 N215 1.365 . S
N215 C212 1.341 1_554 S
N215 N214 1.365 . S
N215 H235 0.862 1_565 S
C216 C211 1.501 1_554 S
C216 H217 0.961 . S
C216 H218 0.961 1_554 S
C216 H219 0.960 1_554 S
H217 C216 0.961 . S
H218 C216 0.961 1_556 S
H219 C216 0.960 1_556 S
C220 N221 1.342 . S
C220 C224 1.401 . S
C220 C225 1.499 . S
N221 Co204 1.989 . S
N221 C220 1.342 . S
N221 N222 1.388 . S
N222 Co205 1.993 . S
N222 N221 1.388 . S
N222 C223 1.346 . S
C223 N222 1.346 . S
C223 C224 1.396 . S
C223 C233 1.510 . S
C224 C220 1.401 . S
C224 C223 1.396 . S
C225 C220 1.499 . S
C225 H226 0.959 . S
C225 H227 0.960 . S
C225 H228 0.961 1_565 S
H226 C225 0.959 . S
H227 C225 0.960 . S
H228 C225 0.961 1_545 S
O229 Co204 1.967 . S
O229 C237 1.258 . S
O230 Co205 1.941 . S
O230 C237 1.266 . S
H231 C233 0.959 1_545 S
H232 C233 0.961 . S
C233 C223 1.510 . S
C233 H231 0.959 1_565 S
C233 H232 0.961 . S
C233 H234 0.960 . S
H234 C233 0.960 . S
H235 N215 0.862 1_545 S
O236 Co204 1.920 . S
O236 C209 1.289 . S
C237 O229 1.258 . S
C237 O230 1.266 . S
Co238 O241 1.970 . S
Co238 N255 1.989 . S
Co238 O263 1.967 . S
Co238 O270 1.920 . S
Co239 O242 1.966 . S
Co239 N248 2.022 . S
Co239 N256 1.993 . S
Co239 O264 1.941 . S
C240 O241 1.258 . S
C240 O242 1.263 . S
O241 Co238 1.970 . S
O241 C240 1.258 . S
O242 Co239 1.966 . S
O242 C240 1.263 . S
C243 O244 1.235 1_655 S
C243 O270 1.289 . S
O244 C243 1.235 1_455 S
C245 C247 1.400 . S
C245 N248 1.351 1_556 S
C245 C250 1.501 1_556 S
C246 C247 1.387 . S
C246 N249 1.341 . S
C247 C245 1.400 . S
C247 C246 1.387 . S
N248 Co239 2.022 . S
N248 C245 1.351 1_554 S
N248 N249 1.365 1_554 S
N249 C246 1.341 . S
N249 N248 1.365 1_556 S
N249 H269 0.862 1_556 S
C250 C245 1.501 1_554 S
C250 H251 0.961 . S
C250 H252 0.961 1_554 S
C250 H253 0.960 1_554 S
H251 C250 0.961 . S
H252 C250 0.961 1_556 S
H253 C250 0.960 1_556 S
C254 N255 1.342 1_455 S
C254 C258 1.401 . S
C254 C259 1.499 . S
N255 Co238 1.989 . S
N255 C254 1.342 1_655 S
N255 N256 1.388 . S
N256 Co239 1.993 . S
N256 N255 1.388 . S
N256 C257 1.346 1_655 S
C257 N256 1.346 1_455 S
C257 C258 1.396 . S
C257 C267 1.510 . S
C258 C254 1.401 . S
C258 C257 1.396 . S
C259 C254 1.499 . S
C259 H260 0.959 . S
C259 H261 0.960 . S
C259 H262 0.961 . S
H260 C259 0.959 . S
H261 C259 0.960 . S
H262 C259 0.961 . S
O263 Co238 1.967 . S
O263 C271 1.258 . S
O264 Co239 1.941 . S
O264 C271 1.266 . S
H265 C267 0.960 1_655 S
H266 C267 0.961 . S
C267 C257 1.510 . S
C267 H265 0.960 1_455 S
C267 H266 0.961 . S
C267 H268 0.960 1_455 S
H268 C267 0.960 1_655 S
H269 N249 0.862 1_554 S
O270 Co238 1.920 . S
O270 C243 1.289 . S
C271 O263 1.258 . S
C271 O264 1.266 . S
Co272 O275 1.970 . S
Co272 N289 1.989 . S
Co272 O297 1.967 . S
Co272 O304 1.920 . S
Co273 O276 1.966 . S
Co273 N282 2.022 . S
Co273 N290 1.993 . S
Co273 O298 1.941 . S
C274 O275 1.258 . S
C274 O276 1.263 . S
O275 Co272 1.970 . S
O275 C274 1.258 . S
O276 Co273 1.966 . S
O276 C274 1.263 . S
C277 O278 1.235 . S
C277 O304 1.289 . S
O278 C277 1.235 . S
C279 C281 1.400 . S
C279 N282 1.351 1_554 S
C279 C284 1.501 . S
C280 C281 1.387 . S
C280 N283 1.341 . S
C281 C279 1.400 . S
C281 C280 1.387 . S
N282 Co273 2.022 . S
N282 C279 1.351 1_556 S
N282 N283 1.365 1_556 S
N283 C280 1.341 . S
N283 N282 1.365 1_554 S
N283 H303 0.865 . S
C284 C279 1.501 . S
C284 H285 0.961 1_554 S
C284 H286 0.961 . S
C284 H287 0.960 . S
H285 C284 0.961 1_556 S
H286 C284 0.961 . S
H287 C284 0.960 . S
C288 N289 1.342 . S
C288 C292 1.401 . S
C288 C293 1.499 . S
N289 Co272 1.989 . S
N289 C288 1.342 . S
N289 N290 1.388 . S
N290 Co273 1.993 . S
N290 N289 1.388 . S
N290 C291 1.346 . S
C291 N290 1.346 . S
C291 C292 1.396 . S
C291 C301 1.510 . S
C292 C288 1.401 . S
C292 C291 1.396 . S
C293 C288 1.499 . S
C293 H294 0.959 . S
C293 H295 0.960 . S
C293 H296 0.961 . S
H294 C293 0.959 . S
H295 C293 0.960 . S
H296 C293 0.961 . S
O297 Co272 1.967 . S
O297 C305 1.258 . S
O298 Co273 1.941 . S
O298 C305 1.266 . S
H299 C301 0.959 . S
H300 C301 0.961 . S
C301 C291 1.510 . S
C301 H299 0.959 . S
C301 H300 0.961 . S
C301 H302 0.960 . S
H302 C301 0.960 . S
H303 N283 0.865 . S
O304 Co272 1.920 . S
O304 C277 1.289 . S
C305 O297 1.258 . S
C305 O298 1.266 . S
Co306 O309 1.970 . S
Co306 N323 1.989 . S
Co306 O331 1.967 . S
Co306 O338 1.920 . S
Co307 O310 1.966 . S
Co307 N316 2.022 . S
Co307 N324 1.993 . S
Co307 O332 1.941 . S
C308 O309 1.258 . S
C308 O310 1.263 . S
O309 Co306 1.970 . S
O309 C308 1.258 . S
O310 Co307 1.966 . S
O310 C308 1.263 . S
C311 O312 1.235 1_554 S
C311 O338 1.289 1_554 S
O312 C311 1.235 1_556 S
C313 C315 1.400 . S
C313 N316 1.351 . S
C313 C318 1.501 . S
C314 C315 1.387 . S
C314 N317 1.341 . S
C315 C313 1.400 . S
C315 C314 1.387 . S
N316 Co307 2.022 . S
N316 C313 1.351 . S
N316 N317 1.365 . S
N317 C314 1.341 . S
N317 N316 1.365 . S
N317 H337 0.862 . S
C318 C313 1.501 . S
C318 H319 0.961 . S
C318 H320 0.961 . S
C318 H321 0.960 . S
H319 C318 0.961 . S
H320 C318 0.961 . S
H321 C318 0.960 . S
C322 N323 1.342 . S
C322 C326 1.401 . S
C322 C327 1.499 . S
N323 Co306 1.989 . S
N323 C322 1.342 . S
N323 N324 1.388 . S
N324 Co307 1.993 . S
N324 N323 1.388 . S
N324 C325 1.346 . S
C325 N324 1.346 . S
C325 C326 1.396 . S
C325 C335 1.510 . S
C326 C322 1.401 . S
C326 C325 1.396 . S
C327 C322 1.499 . S
C327 H328 0.959 . S
C327 H329 0.960 . S
C327 H330 0.961 . S
H328 C327 0.959 . S
H329 C327 0.960 . S
H330 C327 0.961 . S
O331 Co306 1.967 . S
O331 C339 1.258 . S
O332 Co307 1.941 . S
O332 C339 1.266 . S
H333 C335 0.959 . S
H334 C335 0.961 . S
C335 C325 1.510 . S
C335 H333 0.959 . S
C335 H334 0.961 . S
C335 H336 0.960 . S
H336 C335 0.960 . S
H337 N317 0.862 . S
O338 Co306 1.920 . S
O338 C311 1.289 1_556 S
C339 O331 1.258 . S
C339 O332 1.266 . S
Co340 O343 1.970 . S
Co340 N357 1.989 . S
Co340 O365 1.967 . S
Co340 O372 1.920 . S
Co341 O344 1.966 . S
Co341 N350 2.022 . S
Co341 N358 1.993 . S
Co341 O366 1.941 . S
C342 O343 1.258 . S
C342 O344 1.263 . S
O343 Co340 1.970 . S
O343 C342 1.258 . S
O344 Co341 1.966 . S
O344 C342 1.263 . S
C345 O346 1.235 . S
C345 O372 1.289 . S
O346 C345 1.235 . S
C347 C349 1.400 . S
C347 N350 1.351 1_556 S
C347 C352 1.501 1_556 S
C348 C349 1.387 . S
C348 N351 1.341 1_556 S
C349 C347 1.400 . S
C349 C348 1.387 . S
N350 Co341 2.022 . S
N350 C347 1.351 1_554 S
N350 N351 1.365 . S
N351 C348 1.341 1_554 S
N351 N350 1.365 . S
N351 H371 0.862 . S
C352 C347 1.501 1_554 S
C352 H353 0.961 . S
C352 H354 0.961 1_554 S
C352 H355 0.960 1_554 S
H353 C352 0.961 . S
H354 C352 0.961 1_556 S
H355 C352 0.960 1_556 S
C356 N357 1.342 . S
C356 C360 1.401 . S
C356 C361 1.499 . S
N357 Co340 1.989 . S
N357 C356 1.342 . S
N357 N358 1.388 . S
N358 Co341 1.993 . S
N358 N357 1.388 . S
N358 C359 1.346 . S
C359 N358 1.346 . S
C359 C360 1.396 . S
C359 C369 1.510 . S
C360 C356 1.401 . S
C360 C359 1.396 . S
C361 C356 1.499 . S
C361 H362 0.959 . S
C361 H363 0.960 . S
C361 H364 0.961 . S
H362 C361 0.959 . S
H363 C361 0.960 . S
H364 C361 0.961 . S
O365 Co340 1.967 . S
O365 C373 1.258 . S
O366 Co341 1.941 . S
O366 C373 1.266 . S
H367 C369 0.959 . S
H368 C369 0.961 . S
C369 C359 1.510 . S
C369 H367 0.959 . S
C369 H368 0.961 . S
C369 H370 0.960 . S
H370 C369 0.960 . S
H371 N351 0.862 . S
O372 Co340 1.920 . S
O372 C345 1.289 . S
C373 O365 1.258 . S
C373 O366 1.266 . S
Co374 O377 1.970 . S
Co374 N391 1.989 . S
Co374 O399 1.967 . S
Co374 O406 1.920 . S
Co375 O378 1.966 . S
Co375 N384 2.022 . S
Co375 N392 1.993 . S
Co375 O400 1.941 . S
C376 O377 1.258 . S
C376 O378 1.263 . S
O377 Co374 1.970 . S
O377 C376 1.258 . S
O378 Co375 1.966 . S
O378 C376 1.263 . S
C379 O380 1.235 . S
C379 O406 1.289 . S
O380 C379 1.235 . S
C381 C383 1.400 . S
C381 N384 1.351 1_556 S
C381 C386 1.501 1_556 S
C382 C383 1.387 . S
C382 N385 1.341 . S
C383 C381 1.400 . S
C383 C382 1.387 . S
N384 Co375 2.022 . S
N384 C381 1.351 1_554 S
N384 N385 1.365 1_554 S
N385 C382 1.341 . S
N385 N384 1.365 1_556 S
N385 H405 0.862 1_556 S
C386 C381 1.501 1_554 S
C386 H387 0.961 . S
C386 H388 0.961 1_554 S
C386 H389 0.960 1_554 S
H387 C386 0.961 . S
H388 C386 0.961 1_556 S
H389 C386 0.960 1_556 S
C390 N391 1.342 . S
C390 C394 1.401 . S
C390 C395 1.499 . S
N391 Co374 1.989 . S
N391 C390 1.342 . S
N391 N392 1.388 . S
N392 Co375 1.993 . S
N392 N391 1.388 . S
N392 C393 1.346 . S
C393 N392 1.346 . S
C393 C394 1.396 . S
C393 C403 1.510 . S
C394 C390 1.401 . S
C394 C393 1.396 . S
C395 C390 1.499 . S
C395 H396 0.959 . S
C395 H397 0.960 . S
C395 H398 0.961 . S
H396 C395 0.959 . S
H397 C395 0.960 . S
H398 C395 0.961 . S
O399 Co374 1.967 . S
O399 C407 1.258 . S
O400 Co375 1.941 . S
O400 C407 1.266 . S
H401 C403 0.959 . S
H402 C403 0.961 . S
C403 C393 1.510 . S
C403 H401 0.959 . S
C403 H402 0.961 . S
C403 H404 0.960 . S
H404 C403 0.960 . S
H405 N385 0.862 1_554 S
O406 Co374 1.920 . S
O406 C379 1.289 . S
C407 O399 1.258 . S
C407 O400 1.266 . S
Co408 O411 1.970 1_556 S
Co408 N425 1.989 1_556 S
Co408 O433 1.967 1_556 S
Co408 O440 1.920 . S
Co409 O412 1.966 . S
Co409 N418 2.022 . S
Co409 N426 1.993 . S
Co409 O434 1.941 . S
C410 O411 1.258 . S
C410 O412 1.263 . S
O411 Co408 1.970 1_554 S
O411 C410 1.258 . S
O412 Co409 1.966 . S
O412 C410 1.263 . S
C413 O414 1.235 . S
C413 O440 1.289 . S
O414 C413 1.235 . S
C415 C417 1.400 . S
C415 N418 1.351 . S
C415 C420 1.501 . S
C416 C417 1.387 . S
C416 N419 1.341 . S
C417 C415 1.400 . S
C417 C416 1.387 . S
N418 Co409 2.022 . S
N418 C415 1.351 . S
N418 N419 1.365 . S
N419 C416 1.341 . S
N419 N418 1.365 . S
N419 H439 0.862 1_545 S
C420 C415 1.501 . S
C420 H421 0.961 . S
C420 H422 0.961 . S
C420 H423 0.960 . S
H421 C420 0.961 . S
H422 C420 0.961 . S
H423 C420 0.960 . S
C424 N425 1.342 . S
C424 C428 1.401 1_545 S
C424 C429 1.499 1_544 S
N425 Co408 1.989 1_554 S
N425 C424 1.342 . S
N425 N426 1.388 . S
N426 Co409 1.993 . S
N426 N425 1.388 . S
N426 C427 1.346 . S
C427 N426 1.346 . S
C427 C428 1.396 1_545 S
C427 C437 1.510 . S
C428 C424 1.401 1_565 S
C428 C427 1.396 1_565 S
C429 C424 1.499 1_566 S
C429 H430 0.959 1_565 S
C429 H431 0.960 1_565 S
C429 H432 0.961 . S
H430 C429 0.959 1_545 S
H431 C429 0.960 1_545 S
H432 C429 0.961 . S
O433 Co408 1.967 1_554 S
O433 C441 1.258 . S
O434 Co409 1.941 . S
O434 C441 1.266 . S
H435 C437 0.959 1_565 S
H436 C437 0.961 . S
C437 C427 1.510 . S
C437 H435 0.959 1_545 S
C437 H436 0.961 . S
C437 H438 0.960 . S
H438 C437 0.960 . S
H439 N419 0.862 1_565 S
O440 Co408 1.920 . S
O440 C413 1.289 . S
C441 O433 1.258 . S
C441 O434 1.266 . S
Co442 O445 1.970 . S
Co442 N459 1.989 . S
Co442 O467 1.967 . S
Co442 O474 1.920 . S
Co443 O446 1.966 1_556 S
Co443 N452 2.022 . S
Co443 N460 1.993 1_556 S
Co443 O468 1.941 1_556 S
C444 O445 1.258 . S
C444 O446 1.263 . S
O445 Co442 1.970 . S
O445 C444 1.258 . S
O446 Co443 1.966 1_554 S
O446 C444 1.263 . S
C447 O448 1.235 . S
C447 O474 1.289 . S
O448 C447 1.235 . S
C449 C451 1.400 . S
C449 N452 1.351 . S
C449 C454 1.501 . S
C450 C451 1.387 . S
C450 N453 1.341 . S
C451 C449 1.400 . S
C451 C450 1.387 . S
N452 Co443 2.022 . S
N452 C449 1.351 . S
N452 N453 1.365 . S
N453 C450 1.341 . S
N453 N452 1.365 . S
N453 H473 0.862 . S
C454 C449 1.501 . S
C454 H455 0.961 . S
C454 H456 0.961 . S
C454 H457 0.960 . S
H455 C454 0.961 . S
H456 C454 0.961 . S
H457 C454 0.960 . S
C458 N459 1.342 . S
C458 C462 1.401 . S
C458 C463 1.499 . S
N459 Co442 1.989 . S
N459 C458 1.342 . S
N459 N460 1.388 . S
N460 Co443 1.993 1_554 S
N460 N459 1.388 . S
N460 C461 1.346 1_554 S
C461 N460 1.346 1_556 S
C461 C462 1.396 1_556 S
C461 C471 1.510 . S
C462 C458 1.401 . S
C462 C461 1.396 1_554 S
C463 C458 1.499 . S
C463 H464 0.959 . S
C463 H465 0.960 . S
C463 H466 0.961 . S
H464 C463 0.959 . S
H465 C463 0.960 . S
H466 C463 0.961 . S
O467 Co442 1.967 . S
O467 C475 1.258 . S
O468 Co443 1.941 1_554 S
O468 C475 1.266 . S
H469 C471 0.959 . S
H470 C471 0.961 . S
C471 C461 1.510 . S
C471 H469 0.959 . S
C471 H470 0.961 . S
C471 H472 0.960 . S
H472 C471 0.960 . S
H473 N453 0.862 . S
O474 Co442 1.920 . S
O474 C447 1.289 . S
C475 O467 1.258 . S
C475 O468 1.266 . S
Co476 O479 1.970 1_554 S
Co476 N493 1.989 1_554 S
Co476 O501 1.967 . S
Co476 O508 1.920 . S
Co477 O480 1.966 . S
Co477 N486 2.022 . S
Co477 N494 1.993 . S
Co477 O502 1.941 . S
C478 O479 1.258 . S
C478 O480 1.263 . S
O479 Co476 1.970 1_556 S
O479 C478 1.258 . S
O480 Co477 1.966 . S
O480 C478 1.263 . S
C481 O482 1.235 . S
C481 O508 1.289 . S
O482 C481 1.235 . S
C483 C485 1.400 . S
C483 N486 1.351 . S
C483 C488 1.501 . S
C484 C485 1.387 . S
C484 N487 1.341 . S
C485 C483 1.400 . S
C485 C484 1.387 . S
N486 Co477 2.022 . S
N486 C483 1.351 . S
N486 N487 1.365 . S
N487 C484 1.341 . S
N487 N486 1.365 . S
N487 H507 0.862 1_565 S
C488 C483 1.501 . S
C488 H489 0.961 . S
C488 H490 0.961 . S
C488 H491 0.960 . S
H489 C488 0.961 . S
H490 C488 0.961 . S
H491 C488 0.960 . S
C492 N493 1.342 . S
C492 C496 1.401 . S
C492 C497 1.499 1_556 S
N493 Co476 1.989 1_556 S
N493 C492 1.342 . S
N493 N494 1.388 . S
N494 Co477 1.993 . S
N494 N493 1.388 . S
N494 C495 1.346 . S
C495 N494 1.346 . S
C495 C496 1.396 . S
C495 C505 1.510 . S
C496 C492 1.401 . S
C496 C495 1.396 . S
C497 C492 1.499 1_554 S
C497 H498 0.959 . S
C497 H499 0.960 . S
C497 H500 0.961 1_565 S
H498 C497 0.959 . S
H499 C497 0.960 . S
H500 C497 0.961 1_545 S
O501 Co476 1.967 . S
O501 C509 1.258 1_554 S
O502 Co477 1.941 . S
O502 C509 1.266 . S
H503 C505 0.959 1_545 S
H504 C505 0.961 . S
C505 C495 1.510 . S
C505 H503 0.959 1_565 S
C505 H504 0.961 . S
C505 H506 0.960 . S
H506 C505 0.960 . S
H507 N487 0.862 1_545 S
O508 Co476 1.920 . S
O508 C481 1.289 . S
C509 O501 1.258 1_556 S
C509 O502 1.266 . S
Co510 O513 1.970 1_554 S
Co510 N527 1.989 1_554 S
Co510 O535 1.967 . S
Co510 O542 1.920 . S
Co511 O514 1.966 . S
Co511 N520 2.022 . S
Co511 N528 1.993 . S
Co511 O536 1.941 . S
C512 O513 1.258 . S
C512 O514 1.263 . S
O513 Co510 1.970 1_556 S
O513 C512 1.258 . S
O514 Co511 1.966 . S
O514 C512 1.263 . S
C515 O516 1.235 . S
C515 O542 1.289 . S
O516 C515 1.235 . S
C517 C519 1.400 . S
C517 N520 1.351 . S
C517 C522 1.501 . S
C518 C519 1.387 . S
C518 N521 1.341 . S
C519 C517 1.400 . S
C519 C518 1.387 . S
N520 Co511 2.022 . S
N520 C517 1.351 . S
N520 N521 1.365 . S
N521 C518 1.341 . S
N521 N520 1.365 . S
N521 H541 0.862 . S
C522 C517 1.501 . S
C522 H523 0.961 . S
C522 H524 0.961 . S
C522 H525 0.960 . S
H523 C522 0.961 . S
H524 C522 0.961 . S
H525 C522 0.960 . S
C526 N527 1.342 . S
C526 C530 1.401 . S
C526 C531 1.499 1_556 S
N527 Co510 1.989 1_556 S
N527 C526 1.342 . S
N527 N528 1.388 . S
N528 Co511 1.993 . S
N528 N527 1.388 . S
N528 C529 1.346 . S
C529 N528 1.346 . S
C529 C530 1.396 . S
C529 C539 1.510 . S
C530 C526 1.401 . S
C530 C529 1.396 . S
C531 C526 1.499 1_554 S
C531 H532 0.959 . S
C531 H533 0.960 . S
C531 H534 0.961 . S
H532 C531 0.959 . S
H533 C531 0.960 . S
H534 C531 0.961 . S
O535 Co510 1.967 . S
O535 C543 1.258 1_554 S
O536 Co511 1.941 . S
O536 C543 1.266 . S
H537 C539 0.959 . S
H538 C539 0.961 . S
C539 C529 1.510 . S
C539 H537 0.959 . S
C539 H538 0.961 . S
C539 H540 0.960 . S
H540 C539 0.960 . S
H541 N521 0.862 . S
O542 Co510 1.920 . S
O542 C515 1.289 . S
C543 O535 1.258 1_556 S
C543 O536 1.266 . S
C360 C20 2.004 . S
C67 C258 2.203 . S
C543 C54 1.949 1_556 S
C101 C33 2.111 1_556 S
C88 C292 2.004 . S
C203 C122 2.203 . S
C462 C135 1.949 1_554 S
C496 C156 2.004 . S
C190 C407 1.949 . S
C237 C169 2.111 1_565 S
C428 C224 2.004 . S
C326 C271 1.949 . S
C530 C339 2.203 . S
C305 C373 2.111 . S
C394 C475 2.203 . S
C509 C441 2.111 1_566 S
C9 C5 2.079 . S
C43 C39 2.085 . S
C77 C73 2.132 . S
C107 C111 2.006 . S
C141 C145 2.079 . S
C179 C175 2.085 . S
C213 C209 2.132 . S
C247 C243 2.006 . S
C281 C277 2.079 . S
C311 C315 2.085 . S
C349 C345 2.132 . S
C383 C379 2.006 . S
C417 C413 2.079 . S
C451 C447 2.085 . S
C485 C481 2.132 . S
C515 C519 2.006 . S
C2 C36 1.734 . S
C70 C104 1.553 . S
C138 C172 1.734 . S
C206 C240 1.553 . S
C308 C274 1.734 . S
C342 C376 1.553 . S
C444 C410 1.734 . S
C512 C478 1.553 . S
