# Generated by pormake.
# Topology wje, (4)-cn, num edge types: 1
# Building blocks:
#     Node 0, Type 0, BuildingBlock: NAHDIM_clean_sbu_0, # of connection points: 4
#     Node 1, Type 0, BuildingBlock: NAHDIM_clean_sbu_0, # of connection points: 4
#     Node 2, Type 0, BuildingBlock: NAHDIM_clean_sbu_0, # of connection points: 4
#     Node 3, Type 0, BuildingBlock: NAHDIM_clean_sbu_0, # of connection points: 4
#     Node 4, Type 0, BuildingBlock: NAHDIM_clean_sbu_0, # of connection points: 4
#     Node 5, Type 0, BuildingBlock: NAHDIM_clean_sbu_0, # of connection points: 4
#     Node 6, Type 0, BuildingBlock: NAHDIM_clean_sbu_0, # of connection points: 4
#     Node 7, Type 0, BuildingBlock: NAHDIM_clean_sbu_0, # of connection points: 4
#     Node 8, Type 0, BuildingBlock: NAHDIM_clean_sbu_0, # of connection points: 4
#     Node 9, Type 0, BuildingBlock: NAHDIM_clean_sbu_0, # of connection points: 4
#     Node 10, Type 0, BuildingBlock: NAHDIM_clean_sbu_0, # of connection points: 4
#     Node 11, Type 0, BuildingBlock: NAHDIM_clean_sbu_0, # of connection points: 4
#     Edge 12, Type (0, 0), BuildingBlock: EZIPEK_clean_linker_0, # of connection points: 2
#     Edge 13, Type (0, 0), BuildingBlock: EZIPEK_clean_linker_0, # of connection points: 2
#     Edge 14, Type (0, 0), BuildingBlock: EZIPEK_clean_linker_0, # of connection points: 2
#     Edge 15, Type (0, 0), BuildingBlock: EZIPEK_clean_linker_0, # of connection points: 2
#     Edge 16, Type (0, 0), BuildingBlock: EZIPEK_clean_linker_0, # of connection points: 2
#     Edge 17, Type (0, 0), BuildingBlock: EZIPEK_clean_linker_0, # of connection points: 2
#     Edge 18, Type (0, 0), BuildingBlock: EZIPEK_clean_linker_0, # of connection points: 2
#     Edge 19, Type (0, 0), BuildingBlock: EZIPEK_clean_linker_0, # of connection points: 2
#     Edge 20, Type (0, 0), BuildingBlock: EZIPEK_clean_linker_0, # of connection points: 2
#     Edge 21, Type (0, 0), BuildingBlock: EZIPEK_clean_linker_0, # of connection points: 2
#     Edge 22, Type (0, 0), BuildingBlock: EZIPEK_clean_linker_0, # of connection points: 2
#     Edge 23, Type (0, 0), BuildingBlock: EZIPEK_clean_linker_0, # of connection points: 2
#     Edge 24, Type (0, 0), BuildingBlock: EZIPEK_clean_linker_0, # of connection points: 2
#     Edge 25, Type (0, 0), BuildingBlock: EZIPEK_clean_linker_0, # of connection points: 2
#     Edge 26, Type (0, 0), BuildingBlock: EZIPEK_clean_linker_0, # of connection points: 2
#     Edge 27, Type (0, 0), BuildingBlock: EZIPEK_clean_linker_0, # of connection points: 2
#     Edge 28, Type (0, 0), BuildingBlock: EZIPEK_clean_linker_0, # of connection points: 2
#     Edge 29, Type (0, 0), BuildingBlock: EZIPEK_clean_linker_0, # of connection points: 2
#     Edge 30, Type (0, 0), BuildingBlock: EZIPEK_clean_linker_0, # of connection points: 2
#     Edge 31, Type (0, 0), BuildingBlock: EZIPEK_clean_linker_0, # of connection points: 2
#     Edge 32, Type (0, 0), BuildingBlock: EZIPEK_clean_linker_0, # of connection points: 2
#     Edge 33, Type (0, 0), BuildingBlock: EZIPEK_clean_linker_0, # of connection points: 2
#     Edge 34, Type (0, 0), BuildingBlock: EZIPEK_clean_linker_0, # of connection points: 2
#     Edge 35, Type (0, 0), BuildingBlock: EZIPEK_clean_linker_0, # of connection points: 2
# Relax obj value: 0.161
# Max RMSD: 0.138
# Mean RMSD: 0.138
data_MOF--net-wje--node1-NAHDIM_clean_sbu_0--edge1-EZIPEK_clean_linker_0
_symmetry_space_group_name_H-M    P1
_symmetry_Int_Tables_number       1
_symmetry_cell_setting            triclinic
loop_
_symmetry_equiv_pos_as_xyz
'x, y, z'
_cell_length_a     30.386794
_cell_length_b     30.400705
_cell_length_c     26.741492
_cell_angle_alpha  90.079362
_cell_angle_beta   89.995505
_cell_angle_gamma 120.0726
loop_
_atom_site_label
_atom_site_type_symbol
_atom_site_fract_x
_atom_site_fract_y
_atom_site_fract_z
_atom_type_partial_charge
C0 C 0.27747 0.07219 0.25266 0.0
O1 O 0.23309 0.03758 0.27023 0.0
O2 O 0.2463 0.94926 0.29139 0.0
Zn3 Zn 0.31378 0.01227 0.30345 0.0
O4 O 0.37317 0.00354 0.28232 0.0
C5 C 0.29585 0.98815 0.40775 0.0
O6 O 0.27789 0.94221 0.38968 0.0
O7 O 0.31701 0.06975 0.26304 0.0
C8 C 0.39528 0.98837 0.31221 0.0
O9 O 0.37952 0.97732 0.35858 0.0
C10 C 0.24048 0.90488 0.29183 0.0
O11 O 0.2816 0.90119 0.29469 0.0
O12 O 0.31518 0.02618 0.37825 0.0
C13 C 0.22911 0.28566 0.53642 0.0
O14 O 0.25929 0.275 0.51047 0.0
O15 O 0.29937 0.23168 0.60084 0.0
Zn16 Zn 0.29497 0.29351 0.61742 0.0
O17 O 0.36043 0.35741 0.60279 0.0
C18 C 0.32176 0.29647 0.72007 0.0
O19 O 0.36766 0.31651 0.70105 0.0
O20 O 0.23649 0.29425 0.58304 0.0
C21 C 0.3652 0.40015 0.61395 0.0
O22 O 0.32617 0.40228 0.63224 0.0
C23 C 0.34219 0.23414 0.60451 0.0
O24 O 0.3827 0.27956 0.6078 0.0
O25 O 0.28432 0.28677 0.69172 0.0
C26 C 0.9081 0.2322 0.88466 0.0
O27 O 0.94997 0.26352 0.86065 0.0
O28 O 0.02598 0.29614 0.95585 0.0
Zn29 Zn 0.96285 0.30008 0.96301 0.0
O30 O 0.97181 0.36534 0.93472 0.0
C31 C -0.00248 0.33658 0.05792 0.0
O32 O 0.03303 0.37112 0.0293 0.0
O33 O 0.90396 0.23948 0.93081 0.0
C34 C 0.94843 0.38453 0.95686 0.0
O35 O 0.917 0.35933 0.99343 0.0
C36 C 0.06784 0.32999 0.93749 0.0
O37 O 0.06987 0.36792 0.9121 0.0
O38 O 0.95757 0.30065 0.038 0.0
C39 C 0.68579 0.94284 0.19804 0.0
O40 O 0.69823 0.98261 0.16965 0.0
O41 O 0.74037 0.06976 0.25308 0.0
Zn42 Zn 0.6777 0.00581 0.27333 0.0
O43 O 0.61532 0.00951 0.25739 0.0
C44 C 0.72233 0.02541 0.37236 0.0
O45 O 0.76561 0.04356 0.34829 0.0
O46 O 0.67518 0.94382 0.2438 0.0
C47 C 0.57332 0.97308 0.27283 0.0
O48 O 0.57209 0.93326 0.2933 0.0
C49 C 0.74445 0.11008 0.27155 0.0
O50 O 0.70499 0.10657 0.29542 0.0
O51 O 0.68057 0.00453 0.34838 0.0
C52 C 0.76137 0.67419 0.59127 0.0
O53 O 0.77052 0.71765 0.61079 0.0
O54 O 0.66649 0.69891 0.64251 0.0
Zn55 Zn 0.6694 0.63515 0.64935 0.0
O56 O 0.59924 0.57488 0.64005 0.0
C57 C 0.66157 0.64839 0.74974 0.0
O58 O 0.623 0.65069 0.73058 0.0
O59 O 0.72063 0.63361 0.60256 0.0
C60 C 0.56867 0.57311 0.6066 0.0
O61 O 0.58332 0.61072 0.57477 0.0
C62 C 0.66804 0.72637 0.60629 0.0
O63 O 0.67244 0.71426 0.56013 0.0
O64 O 0.68922 0.63858 0.72142 0.0
C65 C 0.05702 0.74318 0.87195 0.0
O66 O 0.02992 0.70034 0.84749 0.0
O67 O 0.93068 0.68101 0.9628 0.0
Zn68 Zn -0.00287 0.68314 0.95526 0.0
O69 O 0.98928 0.61835 0.92637 0.0
C70 C 0.00814 0.71425 0.056 0.0
O71 O -0.0039 0.74643 0.0365 0.0
O72 O 0.04927 0.74525 0.91836 0.0
C73 C 0.9644 0.57888 0.95304 0.0
O74 O 0.94412 0.58212 0.99519 0.0
C75 C 0.88637 0.64808 0.9487 0.0
O76 O 0.88009 0.61363 0.91542 0.0
O77 O 0.0162 0.68553 0.02749 0.0
C78 C 0.90458 0.66361 0.45579 0.0
O79 O 0.93343 0.64635 0.47334 0.0
O80 O 0.02757 0.73182 0.36877 0.0
Zn81 Zn 0.95889 0.66935 0.36699 0.0
O82 O 0.96193 0.60635 0.38474 0.0
C83 C 0.98062 0.67038 0.26698 0.0
O84 O 0.01917 0.67034 0.28908 0.0
O85 O 0.90855 0.67669 0.41014 0.0
C86 C 0.00431 0.6083 0.39113 0.0
O87 O 0.04658 0.65231 0.38993 0.0
C88 C 0.06224 0.76261 0.39785 0.0
O89 O 0.05724 0.75736 0.44659 0.0
O90 O 0.9439 0.66653 0.29332 0.0
C91 C 0.21638 0.91764 0.76844 0.0
O92 O 0.2113 0.95688 0.75702 0.0
O93 O 0.31592 0.04228 0.732 0.0
Zn94 Zn 0.31394 0.97635 0.72003 0.0
O95 O 0.38162 0.98347 0.73599 0.0
C96 C 0.27877 0.98256 0.62213 0.0
O97 O 0.25247 -0.00131 0.64728 0.0
O98 O 0.25686 0.91763 0.75655 0.0
C99 C 0.39168 0.95066 0.71858 0.0
O100 O 0.35591 0.91019 0.69579 0.0
C101 C 0.35599 0.08191 0.71771 0.0
O102 O 0.39542 0.07705 0.70654 0.0
O103 O 0.30543 0.96763 0.64536 0.0
C104 C 0.2947 0.23097 0.12059 0.0
O105 O 0.28947 0.26827 0.13873 0.0
O106 O 0.24684 0.29201 0.0339 0.0
Zn107 Zn 0.31117 0.28841 0.03183 0.0
O108 O 0.36852 0.35508 0.05778 0.0
C109 C 0.28974 0.24667 0.93039 0.0
O110 O 0.24716 0.21056 0.94972 0.0
O111 O 0.30418 0.23061 0.07433 0.0
C112 C 0.39649 0.3894 0.0267 0.0
O113 O 0.38944 0.3801 0.97855 0.0
C114 C 0.24416 0.32053 0.00082 0.0
O115 O 0.2836 0.34753 0.97192 0.0
O116 O 0.32332 0.28039 0.95868 0.0
C117 C 0.06849 0.30156 0.43698 0.0
O118 O 0.02042 0.26933 0.44652 0.0
O119 O 0.96224 0.27864 0.3578 0.0
Zn120 Zn 0.02659 0.3444 0.36862 0.0
O121 O 0.01158 0.39523 0.40013 0.0
C122 C 0.0405 0.33169 0.26716 0.0
O123 O 0.03135 0.28745 0.28433 0.0
O124 O 0.0802 0.33681 0.40528 0.0
C125 C 0.0422 0.44146 0.38971 0.0
O126 O 0.08365 0.45347 0.36425 0.0
C127 C 0.91798 0.27 0.36865 0.0
O128 O 0.91243 0.30097 0.39889 0.0
O129 O 0.04671 0.3664 0.29768 0.0
C130 C 0.74862 0.06291 0.77576 0.0
O131 O 0.70616 0.02976 0.79775 0.0
O132 O 0.6949 0.93833 0.69466 0.0
Zn133 Zn 0.6966 0.00491 0.6889 0.0
O134 O 0.62907 -0.00277 0.71118 0.0
C135 C 0.70596 0.04808 0.5851 0.0
O136 O 0.69336 0.08094 0.60183 0.0
O137 O 0.75384 0.05983 0.72897 0.0
C138 C 0.59461 0.99091 0.68027 0.0
O139 O 0.60272 0.9909 0.63217 0.0
C140 C 0.65849 0.90211 0.67092 0.0
O141 O 0.62171 0.90818 0.65306 0.0
O142 O 0.70988 0.01803 0.61516 0.0
C143 C 0.68398 0.76404 0.12106 0.0
O144 O 0.7183 0.75332 0.13736 0.0
O145 O 0.72058 0.67883 0.07337 0.0
Zn146 Zn 0.65434 0.67562 0.05986 0.0
O147 O 0.59609 0.60875 0.08197 0.0
C148 C 0.69008 0.70037 0.95841 0.0
O149 O 0.73347 0.73211 0.97988 0.0
O150 O 0.65201 0.73586 0.08819 0.0
C151 C 0.55285 0.5957 0.06325 0.0
O152 O 0.54692 0.6287 0.03679 0.0
C153 C 0.72299 0.63936 0.06312 0.0
O154 O 0.6802 0.5976 0.05271 0.0
O155 O 0.65056 0.67458 0.98484 0.0
C156 C 0.31431 0.16455 0.23173 0.0
C157 C 0.2813 0.11278 0.21914 0.0
C158 C 0.2535 0.13874 0.14426 0.0
C159 C 0.29034 0.19019 0.15415 0.0
N160 N 0.36279 0.25124 0.20204 0.0
N161 N 0.2269 0.05022 0.1583 0.0
C162 C 0.32269 0.20293 0.19649 0.0
C163 C 0.25283 0.09969 0.174 0.0
N164 N 0.33622 0.17726 0.27808 0.0
N165 N 0.21782 0.12717 0.10775 0.0
H166 H 0.22633 0.0205 0.17828 0.0
H167 H 0.21006 0.03928 0.12314 0.0
H168 H 0.2164 0.15466 0.08563 0.0
H169 H 0.18675 0.09083 0.10259 0.0
H170 H 0.35626 0.21454 0.29118 0.0
H171 H 0.33027 0.15034 0.30535 0.0
H172 H 0.39074 0.26132 0.2293 0.0
H173 H 0.37105 0.28024 0.17647 0.0
C174 C 0.14828 0.24646 0.48646 0.0
C175 C 0.18778 0.28949 0.51118 0.0
C176 C 0.14566 0.33833 0.49211 0.0
C177 C 0.10905 0.29703 0.46308 0.0
N178 N 0.0805 0.21498 0.42514 0.0
N179 N 0.22949 0.37928 0.52959 0.0
C180 C 0.1116 0.25185 0.45825 0.0
C181 C 0.18797 0.33627 0.51191 0.0
N182 N 0.14469 0.20001 0.49138 0.0
N183 N 0.13906 0.37872 0.5024 0.0
H184 H 0.26175 0.37966 0.54348 0.0
H185 H 0.23402 0.41544 0.52609 0.0
H186 H 0.10808 0.38132 0.48937 0.0
H187 H 0.16158 0.4073 0.52775 0.0
H188 H 0.11361 0.1663 0.47878 0.0
H189 H 0.17055 0.1944 0.51209 0.0
H190 H 0.08445 0.18381 0.41606 0.0
H191 H 0.05366 0.21776 0.40314 0.0
C192 C 0.83611 0.10759 0.81297 0.0
C193 C 0.78896 0.10554 0.80481 0.0
C194 C 0.81942 0.1861 0.8501 0.0
C195 C 0.86663 0.18817 0.85811 0.0
N196 N 0.91825 0.14859 0.85471 0.0
N197 N 0.73653 0.14419 0.80969 0.0
C198 C 0.8747 0.14845 0.84124 0.0
C199 C 0.78057 0.1449 0.82232 0.0
N200 N 0.84411 0.07071 0.79295 0.0
N201 N 0.81187 0.22358 0.86932 0.0
H202 H 0.70746 0.11495 0.78903 0.0
H203 H 0.72938 0.17365 0.81675 0.0
H204 H 0.84047 0.25607 0.88677 0.0
H205 H 0.77695 0.22208 0.87012 0.0
H206 H 0.87927 0.0727 0.79197 0.0
H207 H 0.81576 0.03858 0.77478 0.0
H208 H 0.9248 0.11862 0.84826 0.0
H209 H 0.94707 0.17753 0.87588 0.0
C210 C 0.72781 0.85838 0.13349 0.0
C211 C 0.68382 0.80986 0.13965 0.0
C212 C 0.63914 0.84962 0.17825 0.0
C213 C 0.68489 0.89729 0.17714 0.0
N214 N 0.77529 0.94571 0.16182 0.0
N215 N 0.60023 0.75795 0.17513 0.0
C216 C 0.72995 0.90139 0.15687 0.0
C217 C 0.64007 0.80505 0.16391 0.0
N218 N 0.76679 0.86376 0.1037 0.0
N219 N 0.59444 0.84714 0.19131 0.0
H220 H 0.59965 0.72433 0.16585 0.0
H221 H 0.5698 0.75223 0.19758 0.0
H222 H 0.59204 0.87904 0.20135 0.0
H223 H 0.55908 0.81431 0.18769 0.0
H224 H 0.79734 0.89896 0.0936 0.0
H225 H 0.76629 0.83338 0.08501 0.0
H226 H 0.81017 0.94906 0.15268 0.0
H227 H 0.77875 0.97793 0.17942 0.0
C228 C 0.88565 0.69571 0.53468 0.0
C229 C 0.86806 0.66796 0.48932 0.0
C230 C 0.78176 0.65052 0.50788 0.0
C231 C 0.7982 0.67255 0.556 0.0
N232 N 0.86425 0.70768 0.61881 0.0
N233 N 0.79747 0.61085 0.43693 0.0
C234 C 0.84978 0.69298 0.57042 0.0
C235 C 0.81557 0.6432 0.47692 0.0
N236 N 0.93664 0.72621 0.54294 0.0
N237 N 0.73455 0.63834 0.49087 0.0
H238 H 0.82062 0.60332 0.41391 0.0
H239 H 0.75882 0.58769 0.42949 0.0
H240 H 0.70907 0.6444 0.51176 0.0
H241 H 0.72267 0.6271 0.45418 0.0
H242 H 0.95138 0.75125 0.57306 0.0
H243 H 0.96419 0.73049 0.51705 0.0
H244 H 0.90022 0.71779 0.63246 0.0
H245 H 0.83896 0.70492 0.64665 0.0
C246 C 0.12554 0.84708 0.77477 0.0
C247 C 0.17527 0.87363 0.79537 0.0
C248 C 0.14844 0.81173 0.86359 0.0
C249 C 0.09759 0.78836 0.84587 0.0
N250 N 0.03591 0.78999 0.79016 0.0
N251 N 0.2315 0.88756 0.86493 0.0
C252 C 0.08557 0.80775 0.80297 0.0
C253 C 0.18605 0.85776 0.84138 0.0
N254 N 0.11682 0.85781 0.72739 0.0
N255 N 0.16143 0.78886 0.90011 0.0
H256 H 0.25968 0.92222 0.85057 0.0
H257 H 0.23922 0.88045 0.90103 0.0
H258 H 0.13542 0.75437 0.91652 0.0
H259 H 0.19892 0.80146 0.91059 0.0
H260 H 0.08255 0.83595 0.70855 0.0
H261 H 0.14524 0.88549 0.70495 0.0
H262 H 0.02485 0.80648 0.76241 0.0
H263 H 0.00546 0.76194 0.81044 0.0
C264 C 0.44054 0.9543 0.2598 0.0
C265 C 0.44216 0.98852 0.29699 0.0
C266 C 0.5303 0.01364 0.31692 0.0
C267 C 0.52926 0.98058 0.27882 0.0
N268 N 0.48773 0.92623 0.20822 0.0
N269 N 0.49152 0.05967 0.35175 0.0
C270 C 0.48563 0.95297 0.24841 0.0
C271 C 0.488 0.02091 0.32277 0.0
N272 N 0.39552 0.92162 0.23696 0.0
N273 N 0.57072 0.03631 0.34907 0.0
H274 H 0.46153 0.06679 0.35617 0.0
H275 H 0.52548 0.0878 0.36733 0.0
H276 H 0.60277 0.03234 0.34613 0.0
H277 H 0.57083 0.05578 0.38119 0.0
H278 H 0.39036 0.89165 0.21411 0.0
H279 H 0.36216 0.92252 0.24314 0.0
H280 H 0.45912 0.90947 0.18144 0.0
H281 H 0.52009 0.92414 0.19938 0.0
C282 C 0.48575 0.52137 0.65073 0.0
C283 C 0.5153 0.53093 0.60679 0.0
C284 C 0.44255 0.46013 0.56481 0.0
C285 C 0.41585 0.44645 0.61092 0.0
N286 N 0.41628 0.45856 0.70038 0.0
N287 N 0.52441 0.50564 0.52358 0.0
C288 C 0.43846 0.47564 0.65464 0.0
C289 C 0.49436 0.49947 0.56405 0.0
N290 N 0.50194 0.55686 0.68807 0.0
N291 N 0.41801 0.43655 0.52158 0.0
H292 H 0.56267 0.53369 0.52175 0.0
H293 H 0.51264 0.48028 0.49365 0.0
H294 H 0.37981 0.40817 0.52063 0.0
H295 H 0.43401 0.44842 0.48624 0.0
H296 H 0.47953 0.55389 0.71881 0.0
H297 H 0.53531 0.59193 0.68554 0.0
H298 H 0.43417 0.47583 0.73387 0.0
H299 H 0.38243 0.42435 0.70548 0.0
C300 C 0.00767 0.52747 0.95497 0.0
C301 C 0.96468 0.53154 0.94162 0.0
C302 C 0.91445 0.43973 0.92738 0.0
C303 C 0.95666 0.43525 0.94311 0.0
N304 N 0.04688 0.47511 0.95958 0.0
N305 N 0.88196 0.49541 0.90395 0.0
C306 C 0.00456 0.47929 0.95242 0.0
C307 C 0.91953 0.48874 0.92413 0.0
N308 N 0.05034 0.56907 0.97318 0.0
N309 N 0.86933 0.39686 0.91651 0.0
H310 H 0.88543 0.53118 0.90059 0.0
H311 H 0.84946 0.4667 0.88683 0.0
H312 H 0.86561 0.36085 0.9146 0.0
H313 H 0.83527 0.39643 0.91074 0.0
H314 H 0.08038 0.56744 0.98997 0.0
H315 H 0.0547 0.60534 0.97426 0.0
H316 H 0.08364 0.50614 0.96109 0.0
H317 H 0.04618 0.44057 0.95989 0.0
C318 C 0.03261 0.55459 0.43588 0.0
C319 C 0.00705 0.5612 0.39467 0.0
C320 C -0.006 0.48181 0.35753 0.0
C321 C 0.0258 0.47937 0.39493 0.0
N322 N 0.07775 0.51372 0.46848 0.0
N323 N 0.96908 0.53479 0.3126 0.0
C324 C 0.04561 0.51573 0.43397 0.0
C325 C 0.9885 0.52542 0.3548 0.0
N326 N 0.04321 0.5847 0.4773 0.0
N327 N 0.9695 0.4427 0.3242 0.0
H328 H 0.96507 0.5666 0.30808 0.0
H329 H 0.96092 0.51329 0.28001 0.0
H330 H 0.97416 0.41099 0.32347 0.0
H331 H 0.94126 0.43959 0.29993 0.0
H332 H 0.05753 0.57886 0.51043 0.0
H333 H 0.03329 0.61288 0.48017 0.0
H334 H 0.09825 0.54242 0.49441 0.0
H335 H 0.08615 0.48438 0.46936 0.0
C336 C 0.51166 0.94151 0.72641 0.0
C337 C 0.54548 0.98441 0.69738 0.0
C338 C 0.47827 0.0046 0.68219 0.0
C339 C 0.44521 0.96358 0.71355 0.0
N340 N 0.43248 0.89876 0.77294 0.0
N341 N 0.56526 0.06392 0.65896 0.0
C342 C 0.4626 0.93383 0.73808 0.0
C343 C 0.53009 0.01826 0.67894 0.0
N344 N 0.52517 0.90667 0.74045 0.0
N345 N 0.45965 0.02854 0.65305 0.0
H346 H 0.60389 0.07559 0.65694 0.0
H347 H 0.55704 0.09223 0.64934 0.0
H348 H 0.42139 0.01833 0.65244 0.0
H349 H 0.48109 0.05505 0.62567 0.0
H350 H 0.49991 0.87175 0.75649 0.0
H351 H 0.56069 0.91083 0.73284 0.0
H352 H 0.445 0.87955 0.79584 0.0
H353 H 0.39619 0.89201 0.78193 0.0
C354 C 0.42647 0.47257 0.0716 0.0
C355 C 0.43769 0.43955 0.04372 0.0
C356 C 0.52444 0.50884 0.02948 0.0
C357 C 0.51428 0.54125 0.05956 0.0
N358 N 0.45945 0.55227 0.11687 0.0
N359 N 0.5003 0.42231 0.00793 0.0
C360 C 0.46643 0.5225 0.08315 0.0
C361 C 0.48771 0.45649 0.0265 0.0
N362 N 0.37737 0.45739 0.08456 0.0
N363 N 0.56768 0.52846 0.00117 0.0
H364 H 0.47441 0.38337 0.00611 0.0
H365 H 0.53748 0.43182 -0.00066 0.0
H366 H 0.59482 0.56701 0.00041 0.0
H367 H 0.57424 0.50733 0.97456 0.0
H368 H 0.36612 0.48182 0.09963 0.0
H369 H 0.34699 0.4212 0.07694 0.0
H370 H 0.42714 0.53903 0.13912 0.0
H371 H 0.48795 0.58917 0.12566 0.0
C372 C 0.10865 0.84083 0.34656 0.0
C373 C 0.1097 0.80154 0.37407 0.0
C374 C 0.18726 0.81805 0.3304 0.0
C375 C 0.19007 0.86163 0.30801 0.0
N376 N 0.14242 0.89932 0.27667 0.0
N377 N 0.15281 0.7563 0.39731 0.0
C378 C 0.14746 0.86881 0.3109 0.0
C379 C 0.14991 0.79124 0.36754 0.0
N380 N 0.07116 0.85215 0.35574 0.0
N381 N 0.21701 0.79952 0.31284 0.0
H382 H 0.12647 0.73658 0.42546 0.0
H383 H 0.18396 0.75074 0.39751 0.0
H384 H 0.23884 0.81372 0.28051 0.0
H385 H 0.21406 0.76567 0.32517 0.0
H386 H 0.07075 0.88348 0.34066 0.0
H387 H 0.04261 0.83256 0.38216 0.0
H388 H 0.11053 0.90347 0.27389 0.0
H389 H 0.16751 0.91535 0.24669 0.0
C390 C 0.39307 0.19537 0.63566 0.0
C391 C 0.34488 0.18935 0.62395 0.0
C392 C 0.30496 0.12052 0.68494 0.0
C393 C 0.35299 0.12588 0.6964 0.0
N394 N 0.44374 0.18169 0.69664 0.0
N395 N 0.25464 0.12988 0.62072 0.0
C396 C 0.39749 0.16714 0.6756 0.0
C397 C 0.30056 0.14703 0.64356 0.0
N398 N 0.43401 0.22562 0.60633 0.0
N399 N 0.2643 0.09347 0.71568 0.0
H400 H 0.25125 0.14407 0.58632 0.0
H401 H 0.22189 0.09678 0.63175 0.0
H402 H 0.26791 0.08018 0.75049 0.0
H403 H 0.22938 0.09154 0.71039 0.0
H404 H 0.46935 0.22824 0.61037 0.0
H405 H 0.43046 0.24256 0.57381 0.0
H406 H 0.47716 0.21415 0.68581 0.0
H407 H 0.44733 0.16511 0.7294 0.0
C408 C 0.19827 0.36918 0.99264 0.0
C409 C 0.19677 0.32178 0.99157 0.0
C410 C 0.11495 0.28315 0.94813 0.0
C411 C 0.11454 0.32943 0.95219 0.0
N412 N 0.15063 0.41318 0.98958 0.0
N413 N 0.14719 0.23054 0.98012 0.0
C414 C 0.15485 0.37176 0.97734 0.0
C415 C 0.15287 0.27768 0.97352 0.0
N416 N 0.24116 0.41185 0.00871 0.0
N417 N 0.0804 0.24509 0.91799 0.0
H418 H 0.17424 0.22431 -0.00263 0.0
H419 H 0.1134 0.19706 0.97229 0.0
H420 H 0.05325 0.24845 0.89707 0.0
H421 H 0.08222 0.21258 0.90947 0.0
H422 H 0.2472 0.44846 0.00379 0.0
H423 H 0.27184 0.41085 0.02498 0.0
H424 H 0.17603 0.44204 0.01321 0.0
H425 H 0.11954 0.41704 0.98018 0.0
C426 C 0.84086 0.24292 0.31364 0.0
C427 C 0.87453 0.23075 0.33927 0.0
C428 C 0.83685 0.15011 0.294 0.0
C429 C 0.79525 0.15613 0.2799 0.0
N430 N 0.76048 0.21142 0.27017 0.0
N431 N 0.89914 0.16827 0.35839 0.0
C432 C 0.79825 0.20371 0.28782 0.0
C433 C 0.87117 0.18313 0.33055 0.0
N434 N 0.85093 0.29204 0.31127 0.0
N435 N 0.84478 0.11425 0.27176 0.0
H436 H 0.92281 0.19006 0.38761 0.0
H437 H 0.89426 0.13184 0.35602 0.0
H438 H 0.82446 0.09382 0.24039 0.0
H439 H 0.87655 0.11078 0.27941 0.0
H440 H 0.83022 0.30344 0.28919 0.0
H441 H 0.88332 0.32267 0.32655 0.0
H442 H 0.75648 0.24227 0.28056 0.0
H443 H 0.73234 0.18582 0.2459 0.0
C444 C 0.62176 0.76519 0.64683 0.0
C445 C 0.66378 0.77157 0.61792 0.0
C446 C 0.70038 0.86381 0.62051 0.0
C447 C 0.66182 0.85749 0.65469 0.0
N448 N 0.58923 0.80283 0.70548 0.0
N449 N 0.74729 0.827 0.5837 0.0
C450 C 0.62335 0.80831 0.66923 0.0
C451 C 0.70419 0.82087 0.60624 0.0
N452 N 0.57965 0.71802 0.6515 0.0
N453 N 0.73209 0.91039 0.59998 0.0
H454 H 0.75183 0.79665 0.57253 0.0
H455 H 0.78023 0.86222 0.57981 0.0
H456 H 0.73062 0.94296 0.60903 0.0
H457 H 0.75678 0.91581 0.57055 0.0
H458 H 0.54595 0.71163 0.66811 0.0
H459 H 0.57653 0.68575 0.63432 0.0
H460 H 0.5637 0.76802 0.72152 0.0
H461 H 0.5894 0.83372 0.72276 0.0
C462 C 0.77476 0.5986 0.03985 0.0
C463 C 0.77207 0.64351 0.04687 0.0
C464 C 0.8407 0.6885 0.98678 0.0
C465 C 0.84327 0.64381 0.97853 0.0
N466 N 0.8215 0.55964 0.00709 0.0
N467 N 0.82152 0.7353 0.04726 0.0
C468 C 0.81262 0.59952 0.00769 0.0
C469 C 0.81083 0.68991 0.02662 0.0
N470 N 0.74169 0.55537 0.06494 0.0
N471 N 0.86626 0.72959 0.95612 0.0
H472 H 0.80591 0.73765 0.08117 0.0
H473 H 0.85167 0.77 0.03531 0.0
H474 H 0.88764 0.72959 0.92556 0.0
H475 H 0.86174 0.76136 0.95804 0.0
H476 H 0.7358 0.51943 0.05617 0.0
H477 H 0.71966 0.55579 0.09469 0.0
H478 H 0.80464 0.52915 0.03176 0.0
H479 H 0.84868 0.55829 0.98458 0.0
C480 C 0.33518 0.02166 0.49209 0.0
C481 C 0.2912 0.99384 0.46208 0.0
C482 C 0.23867 0.9587 0.53717 0.0
C483 C 0.28235 0.98776 0.56712 0.0
N484 N 0.36894 0.05686 0.57371 0.0
N485 N 0.19973 0.94606 0.45535 0.0
C486 C 0.32968 0.02231 0.54476 0.0
C487 C 0.24245 0.9655 0.48449 0.0
N488 N 0.38241 0.04521 0.47076 0.0
N489 N 0.19417 0.92308 0.55881 0.0
H490 H 0.20112 0.95144 0.41671 0.0
H491 H 0.163 0.92902 0.46979 0.0
H492 H 0.18991 0.91709 0.59733 0.0
H493 H 0.1627 0.89671 0.53844 0.0
H494 H 0.41594 0.0606 0.49147 0.0
H495 H 0.38835 0.04615 0.43232 0.0
H496 H 0.40248 0.08648 0.55903 0.0
H497 H 0.36604 0.05903 0.61233 0.0
C498 C 0.32711 0.2432 0.84764 0.0
C499 C 0.29463 0.2548 0.87559 0.0
C500 C 0.28466 0.29821 0.8031 0.0
C501 C 0.3132 0.28264 0.77372 0.0
N502 N 0.35169 0.22997 0.76537 0.0
N503 N 0.23233 0.28191 0.87618 0.0
C504 C 0.33189 0.25233 0.7952 0.0
C505 C 0.27014 0.27864 0.8521 0.0
N506 N 0.3534 0.22358 0.87109 0.0
N507 N 0.27346 0.33362 0.78527 0.0
H508 H 0.21974 0.26663 0.91147 0.0
H509 H 0.20991 0.2946 0.85908 0.0
H510 H 0.28529 0.35067 0.75029 0.0
H511 H 0.25726 0.3501 0.80727 0.0
H512 H 0.382 0.21977 0.8537 0.0
H513 H 0.34888 0.21417 0.90899 0.0
H514 H 0.36111 0.20348 0.77844 0.0
H515 H 0.35389 0.23375 0.72661 0.0
C516 C 0.98732 0.33846 0.19932 0.0
C517 C 0.03123 0.33623 0.21374 0.0
C518 C 0.04939 0.32868 0.12608 0.0
C519 C 0.00817 0.33547 0.11158 0.0
N520 N 0.94324 0.3555 0.13337 0.0
N521 N 0.10848 0.33722 0.19148 0.0
C522 C 0.97861 0.34284 0.14791 0.0
C523 C 0.06361 0.33371 0.17725 0.0
N524 N 0.95254 0.33383 0.23443 0.0
N525 N 0.07347 0.31516 0.09125 0.0
H526 H 0.1199 0.34079 0.22878 0.0
H527 H 0.13633 0.34108 0.16629 0.0
H528 H 0.06321 0.3096 0.0536 0.0
H529 H 0.10037 0.30478 0.10021 0.0
H530 H 0.91715 0.32928 0.22542 0.0
H531 H 0.95691 0.33004 0.27252 0.0
H532 H 0.92469 0.36713 0.15827 0.0
H533 H 0.93549 0.35857 0.09595 0.0
C534 C 0.74517 0.08084 0.44885 0.0
C535 C 0.7218 0.03155 0.42711 0.0
C536 C 0.68487 0.99367 0.5078 0.0
C537 C 0.71165 0.04257 0.53067 0.0
N538 N 0.77683 0.13091 0.52449 0.0
N539 N 0.67991 0.94076 0.43788 0.0
C540 C 0.7446 0.08573 0.50165 0.0
C541 C 0.69492 0.98787 0.45724 0.0
N542 N 0.76591 0.12303 0.41915 0.0
N543 N 0.6477 0.95309 0.53322 0.0
H544 H 0.6871 0.93508 0.40097 0.0
H545 H 0.6651 0.90803 0.4597 0.0
H546 H 0.63707 0.95562 0.56949 0.0
H547 H 0.62356 0.91812 0.51651 0.0
H548 H 0.77853 0.15958 0.43273 0.0
H549 H 0.76632 0.12116 0.38033 0.0
H550 H 0.80533 0.16207 0.50545 0.0
H551 H 0.77866 0.13575 0.56319 0.0
C552 C 0.68409 0.64284 0.88869 0.0
C553 C 0.6885 0.6895 0.90445 0.0
C554 C 0.68769 0.71332 0.81731 0.0
C555 C 0.67568 0.66368 0.80231 0.0
N556 N 0.65781 0.5792 0.82345 0.0
N557 N 0.69158 0.76835 0.88501 0.0
C558 C 0.67309 0.62797 0.83783 0.0
C559 C 0.68992 0.72479 0.86908 0.0
N560 N 0.69184 0.61346 0.92214 0.0
N561 N 0.6983 0.7498 0.78198 0.0
H562 H 0.69436 0.77846 0.92267 0.0
H563 H 0.68671 0.79275 0.86134 0.0
H564 H 0.69808 0.74299 0.7437 0.0
H565 H 0.71197 0.78792 0.79048 0.0
H566 H 0.69425 0.58165 0.91201 0.0
H567 H 0.70092 0.62384 0.95943 0.0
H568 H 0.64933 0.54992 0.84864 0.0
H569 H 0.64992 0.56697 0.78639 0.0
C570 C 0.95029 0.64679 0.17853 0.0
C571 C 0.9847 0.68283 0.21322 0.0
C572 C 0.03634 0.73816 0.14462 0.0
C573 C 0.00049 0.70342 0.11006 0.0
N574 N 0.91765 0.63062 0.09389 0.0
N575 N 0.0539 0.76747 0.23044 0.0
C576 C 0.95575 0.65938 0.12692 0.0
C577 C 0.02593 0.72991 0.19659 0.0
N578 N 0.91368 0.59985 0.19459 0.0
N579 N 0.08087 0.7783 0.12777 0.0
H580 H 0.04642 0.76337 0.26871 0.0
H581 H 0.08116 0.80428 0.22032 0.0
H582 H 0.08931 0.78582 0.08984 0.0
H583 H 0.11104 0.80178 0.15117 0.0
H584 H 0.89133 0.56997 0.1704 0.0
H585 H 0.90821 0.58943 0.23221 0.0
H586 H 0.88195 0.60144 0.1048 0.0
H587 H 0.92 0.63882 0.05585 0.0
loop_
_geom_bond_atom_site_label_1
_geom_bond_atom_site_label_2
_geom_bond_distance
_geom_bond_site_symmetry_2
_ccdc_geom_bond_type
C0 O1 1.160 . S
C0 O7 1.185 . S
O1 C0 1.160 . S
O2 Zn3 1.899 1_565 S
O2 C10 1.284 . S
Zn3 O2 1.899 1_545 S
Zn3 O4 2.032 . S
Zn3 O7 2.086 . S
Zn3 O12 1.977 . S
O4 Zn3 2.032 . S
O4 C8 1.278 1_545 S
C5 O6 1.203 1_545 S
C5 O12 1.267 . S
O6 C5 1.203 1_565 S
O7 C0 1.185 . S
O7 Zn3 2.086 . S
C8 O4 1.278 1_565 S
C8 O9 1.211 . S
O9 C8 1.211 . S
C10 O2 1.284 . S
C10 O11 1.273 . S
O11 C10 1.273 . S
O12 Zn3 1.977 . S
O12 C5 1.267 . S
C13 O14 1.160 . S
C13 O20 1.185 . S
O14 C13 1.160 . S
O15 Zn16 1.899 . S
O15 C23 1.284 . S
Zn16 O15 1.899 . S
Zn16 O17 2.032 . S
Zn16 O20 2.086 . S
Zn16 O25 1.977 . S
O17 Zn16 2.032 . S
O17 C21 1.278 . S
C18 O19 1.203 . S
C18 O25 1.267 . S
O19 C18 1.203 . S
O20 C13 1.185 . S
O20 Zn16 2.086 . S
C21 O17 1.278 . S
C21 O22 1.211 . S
O22 C21 1.211 . S
C23 O15 1.284 . S
C23 O24 1.273 . S
O24 C23 1.273 . S
O25 Zn16 1.977 . S
O25 C18 1.267 . S
C26 O27 1.160 . S
C26 O33 1.185 . S
O27 C26 1.160 . S
O28 Zn29 1.899 1_455 S
O28 C36 1.284 . S
Zn29 O28 1.899 1_655 S
Zn29 O30 2.032 . S
Zn29 O33 2.086 . S
Zn29 O38 1.977 1_556 S
O30 Zn29 2.032 . S
O30 C34 1.278 1_655 S
C31 O32 1.203 1_655 S
C31 O38 1.267 . S
O32 C31 1.203 1_455 S
O33 C26 1.185 . S
O33 Zn29 2.086 . S
C34 O30 1.278 1_455 S
C34 O35 1.233 . S
O35 C34 1.233 . S
C36 O28 1.284 . S
C36 O37 1.273 . S
O37 C36 1.273 . S
O38 Zn29 1.977 1_554 S
O38 C31 1.267 . S
C39 O40 1.160 . S
C39 O46 1.185 . S
O40 C39 1.160 . S
O41 Zn42 1.899 1_545 S
O41 C49 1.284 . S
Zn42 O41 1.899 1_565 S
Zn42 O43 2.032 . S
Zn42 O46 2.086 . S
Zn42 O51 1.977 . S
O43 Zn42 2.032 . S
O43 C47 1.278 1_565 S
C44 O45 1.203 1_565 S
C44 O51 1.267 . S
O45 C44 1.203 1_545 S
O46 C39 1.185 . S
O46 Zn42 2.086 . S
C47 O43 1.278 1_545 S
C47 O48 1.211 . S
O48 C47 1.211 . S
C49 O41 1.284 . S
C49 O50 1.273 . S
O50 C49 1.273 . S
O51 Zn42 1.977 . S
O51 C44 1.267 . S
C52 O53 1.160 . S
C52 O59 1.185 . S
O53 C52 1.160 . S
O54 Zn55 1.899 . S
O54 C62 1.284 . S
Zn55 O54 1.899 . S
Zn55 O56 2.032 . S
Zn55 O59 2.086 . S
Zn55 O64 1.977 . S
O56 Zn55 2.032 . S
O56 C60 1.278 . S
C57 O58 1.203 . S
C57 O64 1.267 . S
O58 C57 1.203 . S
O59 C52 1.185 . S
O59 Zn55 2.086 . S
C60 O56 1.278 . S
C60 O61 1.211 . S
O61 C60 1.211 . S
C62 O54 1.284 . S
C62 O63 1.273 . S
O63 C62 1.273 . S
O64 Zn55 1.977 . S
O64 C57 1.267 . S
C65 O66 1.160 . S
C65 O72 1.185 . S
O66 C65 1.160 . S
O67 Zn68 1.899 1_655 S
O67 C75 1.284 . S
Zn68 O67 1.899 1_455 S
Zn68 O69 2.032 . S
Zn68 O72 2.086 . S
Zn68 O77 1.977 1_556 S
O69 Zn68 2.032 . S
O69 C73 1.278 1_455 S
C70 O71 1.203 1_455 S
C70 O77 1.267 . S
O71 C70 1.203 1_655 S
O72 C65 1.185 . S
O72 Zn68 2.086 . S
C73 O69 1.278 1_655 S
C73 O74 1.233 . S
O74 C73 1.233 . S
C75 O67 1.284 . S
C75 O76 1.273 . S
O76 C75 1.273 . S
O77 Zn68 1.977 1_554 S
O77 C70 1.267 . S
C78 O79 1.160 . S
C78 O85 1.185 . S
O79 C78 1.160 . S
O80 Zn81 1.899 1_455 S
O80 C88 1.284 . S
Zn81 O80 1.899 1_655 S
Zn81 O82 2.032 . S
Zn81 O85 2.086 . S
Zn81 O90 1.977 . S
O82 Zn81 2.032 . S
O82 C86 1.278 1_655 S
C83 O84 1.203 1_655 S
C83 O90 1.267 . S
O84 C83 1.203 1_455 S
O85 C78 1.185 . S
O85 Zn81 2.086 . S
C86 O82 1.278 1_455 S
C86 O87 1.211 . S
O87 C86 1.211 . S
C88 O80 1.284 . S
C88 O89 1.273 . S
O89 C88 1.273 . S
O90 Zn81 1.977 . S
O90 C83 1.267 . S
C91 O92 1.160 . S
C91 O98 1.185 . S
O92 C91 1.160 . S
O93 Zn94 1.899 1_545 S
O93 C101 1.284 . S
Zn94 O93 1.899 1_565 S
Zn94 O95 2.032 . S
Zn94 O98 2.086 . S
Zn94 O103 1.977 . S
O95 Zn94 2.032 . S
O95 C99 1.278 1_565 S
C96 O97 1.203 1_565 S
C96 O103 1.267 . S
O97 C96 1.203 1_545 S
O98 C91 1.185 . S
O98 Zn94 2.086 . S
C99 O95 1.278 1_545 S
C99 O100 1.211 . S
O100 C99 1.211 . S
C101 O93 1.284 . S
C101 O102 1.273 . S
O102 C101 1.273 . S
O103 Zn94 1.977 . S
O103 C96 1.267 . S
C104 O105 1.160 . S
C104 O111 1.185 . S
O105 C104 1.160 . S
O106 Zn107 1.899 . S
O106 C114 1.284 . S
Zn107 O106 1.899 . S
Zn107 O108 2.032 . S
Zn107 O111 2.086 . S
Zn107 O116 1.977 1_554 S
O108 Zn107 2.032 . S
O108 C112 1.278 . S
C109 O110 1.203 . S
C109 O116 1.267 . S
O110 C109 1.203 . S
O111 C104 1.185 . S
O111 Zn107 2.086 . S
C112 O108 1.278 . S
C112 O113 1.211 . S
O113 C112 1.211 . S
C114 O106 1.284 . S
C114 O115 1.273 . S
O115 C114 1.273 . S
O116 Zn107 1.977 1_556 S
O116 C109 1.267 . S
C117 O118 1.160 . S
C117 O124 1.185 . S
O118 C117 1.160 . S
O119 Zn120 1.899 1_655 S
O119 C127 1.284 . S
Zn120 O119 1.899 1_455 S
Zn120 O121 2.032 . S
Zn120 O124 2.086 . S
Zn120 O129 1.977 . S
O121 Zn120 2.032 . S
O121 C125 1.278 1_455 S
C122 O123 1.203 1_455 S
C122 O129 1.267 . S
O123 C122 1.203 1_655 S
O124 C117 1.185 . S
O124 Zn120 2.086 . S
C125 O121 1.278 1_655 S
C125 O126 1.211 . S
O126 C125 1.211 . S
C127 O119 1.284 . S
C127 O128 1.273 . S
O128 C127 1.273 . S
O129 Zn120 1.977 . S
O129 C122 1.267 . S
C130 O131 1.160 . S
C130 O137 1.185 . S
O131 C130 1.160 . S
O132 Zn133 1.899 1_565 S
O132 C140 1.284 . S
Zn133 O132 1.899 1_545 S
Zn133 O134 2.032 . S
Zn133 O137 2.086 . S
Zn133 O142 1.977 . S
O134 Zn133 2.032 . S
O134 C138 1.278 1_545 S
C135 O136 1.203 1_545 S
C135 O142 1.267 . S
O136 C135 1.203 1_565 S
O137 C130 1.185 . S
O137 Zn133 2.086 . S
C138 O134 1.278 1_565 S
C138 O139 1.211 . S
O139 C138 1.211 . S
C140 O132 1.284 . S
C140 O141 1.273 . S
O141 C140 1.273 . S
O142 Zn133 1.977 . S
O142 C135 1.267 . S
C143 O144 1.160 . S
C143 O150 1.185 . S
O144 C143 1.160 . S
O145 Zn146 1.899 . S
O145 C153 1.284 . S
Zn146 O145 1.899 . S
Zn146 O147 2.032 . S
Zn146 O150 2.086 . S
Zn146 O155 1.977 1_554 S
O147 Zn146 2.032 . S
O147 C151 1.278 . S
C148 O149 1.203 . S
C148 O155 1.267 . S
O149 C148 1.203 . S
O150 C143 1.185 . S
O150 Zn146 2.086 . S
C151 O147 1.278 . S
C151 O152 1.211 . S
O152 C151 1.211 . S
C153 O145 1.284 . S
C153 O154 1.273 . S
O154 C153 1.273 . S
O155 Zn146 1.977 1_556 S
O155 C148 1.267 . S
C156 C157 1.363 . S
C156 C162 1.379 . S
C156 N164 1.356 . S
C157 C156 1.363 . S
C157 C163 1.363 . S
C158 C159 1.363 . S
C158 C163 1.379 . S
C158 N165 1.356 . S
C159 C158 1.363 . S
C159 C162 1.363 . S
N160 C162 1.356 . S
N160 H172 0.984 . S
N160 H173 0.985 . S
N161 C163 1.356 . S
N161 H166 0.984 . S
N161 H167 0.985 . S
C162 C156 1.379 . S
C162 C159 1.363 . S
C162 N160 1.356 . S
C163 C157 1.363 . S
C163 C158 1.379 . S
C163 N161 1.356 . S
N164 C156 1.356 . S
N164 H170 0.984 . S
N164 H171 0.984 . S
N165 C158 1.356 . S
N165 H168 0.984 . S
N165 H169 0.985 . S
H166 N161 0.984 . S
H167 N161 0.985 . S
H168 N165 0.984 . S
H169 N165 0.985 . S
H170 N164 0.984 . S
H171 N164 0.984 . S
H172 N160 0.984 . S
H173 N160 0.985 . S
C174 C175 1.363 . S
C174 C180 1.379 . S
C174 N182 1.356 . S
C175 C174 1.363 . S
C175 C181 1.363 . S
C176 C177 1.363 . S
C176 C181 1.379 . S
C176 N183 1.356 . S
C177 C176 1.363 . S
C177 C180 1.363 . S
N178 C180 1.356 . S
N178 H190 0.984 . S
N178 H191 0.985 . S
N179 C181 1.356 . S
N179 H184 0.984 . S
N179 H185 0.985 . S
C180 C174 1.379 . S
C180 C177 1.363 . S
C180 N178 1.356 . S
C181 C175 1.363 . S
C181 C176 1.379 . S
C181 N179 1.356 . S
N182 C174 1.356 . S
N182 H188 0.984 . S
N182 H189 0.984 . S
N183 C176 1.356 . S
N183 H186 0.984 . S
N183 H187 0.985 . S
H184 N179 0.984 . S
H185 N179 0.985 . S
H186 N183 0.984 . S
H187 N183 0.985 . S
H188 N182 0.984 . S
H189 N182 0.984 . S
H190 N178 0.984 . S
H191 N178 0.985 . S
C192 C193 1.363 . S
C192 C198 1.379 . S
C192 N200 1.356 . S
C193 C192 1.363 . S
C193 C199 1.363 . S
C194 C195 1.363 . S
C194 C199 1.379 . S
C194 N201 1.356 . S
C195 C194 1.363 . S
C195 C198 1.363 . S
N196 C198 1.356 . S
N196 H208 0.984 . S
N196 H209 0.985 . S
N197 C199 1.356 . S
N197 H202 0.984 . S
N197 H203 0.985 . S
C198 C192 1.379 . S
C198 C195 1.363 . S
C198 N196 1.356 . S
C199 C193 1.363 . S
C199 C194 1.379 . S
C199 N197 1.356 . S
N200 C192 1.356 . S
N200 H206 0.984 . S
N200 H207 0.984 . S
N201 C194 1.356 . S
N201 H204 0.984 . S
N201 H205 0.985 . S
H202 N197 0.984 . S
H203 N197 0.985 . S
H204 N201 0.984 . S
H205 N201 0.985 . S
H206 N200 0.984 . S
H207 N200 0.984 . S
H208 N196 0.984 . S
H209 N196 0.985 . S
C210 C211 1.363 . S
C210 C216 1.379 . S
C210 N218 1.356 . S
C211 C210 1.363 . S
C211 C217 1.363 . S
C212 C213 1.363 . S
C212 C217 1.379 . S
C212 N219 1.356 . S
C213 C212 1.363 . S
C213 C216 1.363 . S
N214 C216 1.356 . S
N214 H226 0.984 . S
N214 H227 0.985 . S
N215 C217 1.356 . S
N215 H220 0.984 . S
N215 H221 0.985 . S
C216 C210 1.379 . S
C216 C213 1.363 . S
C216 N214 1.356 . S
C217 C211 1.363 . S
C217 C212 1.379 . S
C217 N215 1.356 . S
N218 C210 1.356 . S
N218 H224 0.984 . S
N218 H225 0.984 . S
N219 C212 1.356 . S
N219 H222 0.984 . S
N219 H223 0.985 . S
H220 N215 0.984 . S
H221 N215 0.985 . S
H222 N219 0.984 . S
H223 N219 0.985 . S
H224 N218 0.984 . S
H225 N218 0.984 . S
H226 N214 0.984 . S
H227 N214 0.985 . S
C228 C229 1.363 . S
C228 C234 1.379 . S
C228 N236 1.356 . S
C229 C228 1.363 . S
C229 C235 1.363 . S
C230 C231 1.363 . S
C230 C235 1.379 . S
C230 N237 1.356 . S
C231 C230 1.363 . S
C231 C234 1.363 . S
N232 C234 1.356 . S
N232 H244 0.984 . S
N232 H245 0.985 . S
N233 C235 1.356 . S
N233 H238 0.984 . S
N233 H239 0.985 . S
C234 C228 1.379 . S
C234 C231 1.363 . S
C234 N232 1.356 . S
C235 C229 1.363 . S
C235 C230 1.379 . S
C235 N233 1.356 . S
N236 C228 1.356 . S
N236 H242 0.984 . S
N236 H243 0.984 . S
N237 C230 1.356 . S
N237 H240 0.984 . S
N237 H241 0.985 . S
H238 N233 0.984 . S
H239 N233 0.985 . S
H240 N237 0.984 . S
H241 N237 0.985 . S
H242 N236 0.984 . S
H243 N236 0.984 . S
H244 N232 0.984 . S
H245 N232 0.985 . S
C246 C247 1.363 . S
C246 C252 1.379 . S
C246 N254 1.356 . S
C247 C246 1.363 . S
C247 C253 1.363 . S
C248 C249 1.363 . S
C248 C253 1.379 . S
C248 N255 1.356 . S
C249 C248 1.363 . S
C249 C252 1.363 . S
N250 C252 1.356 . S
N250 H262 0.984 . S
N250 H263 0.985 . S
N251 C253 1.356 . S
N251 H256 0.984 . S
N251 H257 0.985 . S
C252 C246 1.379 . S
C252 C249 1.363 . S
C252 N250 1.356 . S
C253 C247 1.363 . S
C253 C248 1.379 . S
C253 N251 1.356 . S
N254 C246 1.356 . S
N254 H260 0.984 . S
N254 H261 0.984 . S
N255 C248 1.356 . S
N255 H258 0.984 . S
N255 H259 0.985 . S
H256 N251 0.984 . S
H257 N251 0.985 . S
H258 N255 0.984 . S
H259 N255 0.985 . S
H260 N254 0.984 . S
H261 N254 0.984 . S
H262 N250 0.984 . S
H263 N250 0.985 . S
C264 C265 1.363 . S
C264 C270 1.379 . S
C264 N272 1.356 . S
C265 C264 1.363 . S
C265 C271 1.363 1_565 S
C266 C267 1.363 . S
C266 C271 1.379 . S
C266 N273 1.356 . S
C267 C266 1.363 . S
C267 C270 1.363 1_545 S
N268 C270 1.356 . S
N268 H280 0.984 . S
N268 H281 0.985 . S
N269 C271 1.356 . S
N269 H274 0.984 . S
N269 H275 0.985 . S
C270 C264 1.379 . S
C270 C267 1.363 1_565 S
C270 N268 1.356 . S
C271 C265 1.363 1_545 S
C271 C266 1.379 . S
C271 N269 1.356 . S
N272 C264 1.356 . S
N272 H278 0.984 . S
N272 H279 0.984 . S
N273 C266 1.356 . S
N273 H276 0.984 . S
N273 H277 0.985 . S
H274 N269 0.984 . S
H275 N269 0.985 . S
H276 N273 0.984 . S
H277 N273 0.985 . S
H278 N272 0.984 . S
H279 N272 0.984 . S
H280 N268 0.984 . S
H281 N268 0.985 . S
C282 C283 1.363 . S
C282 C288 1.379 . S
C282 N290 1.356 . S
C283 C282 1.363 . S
C283 C289 1.363 . S
C284 C285 1.363 . S
C284 C289 1.379 . S
C284 N291 1.356 . S
C285 C284 1.363 . S
C285 C288 1.363 . S
N286 C288 1.356 . S
N286 H298 0.984 . S
N286 H299 0.985 . S
N287 C289 1.356 . S
N287 H292 0.984 . S
N287 H293 0.985 . S
C288 C282 1.379 . S
C288 C285 1.363 . S
C288 N286 1.356 . S
C289 C283 1.363 . S
C289 C284 1.379 . S
C289 N287 1.356 . S
N290 C282 1.356 . S
N290 H296 0.984 . S
N290 H297 0.984 . S
N291 C284 1.356 . S
N291 H294 0.984 . S
N291 H295 0.985 . S
H292 N287 0.984 . S
H293 N287 0.985 . S
H294 N291 0.984 . S
H295 N291 0.985 . S
H296 N290 0.984 . S
H297 N290 0.984 . S
H298 N286 0.984 . S
H299 N286 0.985 . S
C300 C301 1.363 1_455 S
C300 C306 1.379 . S
C300 N308 1.356 1_556 S
C301 C300 1.363 1_655 S
C301 C307 1.363 . S
C302 C303 1.363 1_655 S
C302 C307 1.379 . S
C302 N309 1.356 . S
C303 C302 1.363 1_455 S
C303 C306 1.363 . S
N304 C306 1.356 1_554 S
N304 H316 0.984 . S
N304 H317 0.985 1_554 S
N305 C307 1.356 . S
N305 H310 0.984 . S
N305 H311 0.985 . S
C306 C300 1.379 . S
C306 C303 1.363 . S
C306 N304 1.356 1_556 S
C307 C301 1.363 . S
C307 C302 1.379 . S
C307 N305 1.356 . S
N308 C300 1.356 1_554 S
N308 H314 0.984 . S
N308 H315 0.984 1_554 S
N309 C302 1.356 . S
N309 H312 0.984 . S
N309 H313 0.985 . S
H310 N305 0.984 . S
H311 N305 0.985 . S
H312 N309 0.984 . S
H313 N309 0.985 . S
H314 N308 0.984 . S
H315 N308 0.984 1_556 S
H316 N304 0.984 . S
H317 N304 0.985 1_556 S
C318 C319 1.363 . S
C318 C324 1.379 . S
C318 N326 1.356 . S
C319 C318 1.363 . S
C319 C325 1.363 1_455 S
C320 C321 1.363 . S
C320 C325 1.379 . S
C320 N327 1.356 . S
C321 C320 1.363 . S
C321 C324 1.363 1_655 S
N322 C324 1.356 . S
N322 H334 0.984 . S
N322 H335 0.985 . S
N323 C325 1.356 . S
N323 H328 0.984 . S
N323 H329 0.985 . S
C324 C318 1.379 . S
C324 C321 1.363 1_455 S
C324 N322 1.356 . S
C325 C319 1.363 1_655 S
C325 C320 1.379 . S
C325 N323 1.356 . S
N326 C318 1.356 . S
N326 H332 0.984 . S
N326 H333 0.984 . S
N327 C320 1.356 . S
N327 H330 0.984 . S
N327 H331 0.985 . S
H328 N323 0.984 . S
H329 N323 0.985 . S
H330 N327 0.984 . S
H331 N327 0.985 . S
H332 N326 0.984 . S
H333 N326 0.984 . S
H334 N322 0.984 . S
H335 N322 0.985 . S
C336 C337 1.363 . S
C336 C342 1.379 . S
C336 N344 1.356 . S
C337 C336 1.363 . S
C337 C343 1.363 1_565 S
C338 C339 1.363 . S
C338 C343 1.379 . S
C338 N345 1.356 . S
C339 C338 1.363 . S
C339 C342 1.363 1_545 S
N340 C342 1.356 . S
N340 H352 0.984 . S
N340 H353 0.985 . S
N341 C343 1.356 . S
N341 H346 0.984 . S
N341 H347 0.985 . S
C342 C336 1.379 . S
C342 C339 1.363 1_565 S
C342 N340 1.356 . S
C343 C337 1.363 1_545 S
C343 C338 1.379 . S
C343 N341 1.356 . S
N344 C336 1.356 . S
N344 H350 0.984 . S
N344 H351 0.984 . S
N345 C338 1.356 . S
N345 H348 0.984 . S
N345 H349 0.985 . S
H346 N341 0.984 . S
H347 N341 0.985 . S
H348 N345 0.984 . S
H349 N345 0.985 . S
H350 N344 0.984 . S
H351 N344 0.984 . S
H352 N340 0.984 . S
H353 N340 0.985 . S
C354 C355 1.363 . S
C354 C360 1.379 . S
C354 N362 1.356 . S
C355 C354 1.363 . S
C355 C361 1.363 . S
C356 C357 1.363 . S
C356 C361 1.379 . S
C356 N363 1.356 1_554 S
C357 C356 1.363 . S
C357 C360 1.363 . S
N358 C360 1.356 . S
N358 H370 0.984 . S
N358 H371 0.985 . S
N359 C361 1.356 1_556 S
N359 H364 0.984 1_556 S
N359 H365 0.985 . S
C360 C354 1.379 . S
C360 C357 1.363 . S
C360 N358 1.356 . S
C361 C355 1.363 . S
C361 C356 1.379 . S
C361 N359 1.356 1_554 S
N362 C354 1.356 . S
N362 H368 0.984 . S
N362 H369 0.984 . S
N363 C356 1.356 1_556 S
N363 H366 0.984 1_556 S
N363 H367 0.985 . S
H364 N359 0.984 1_554 S
H365 N359 0.985 . S
H366 N363 0.984 1_554 S
H367 N363 0.985 . S
H368 N362 0.984 . S
H369 N362 0.984 . S
H370 N358 0.984 . S
H371 N358 0.985 . S
C372 C373 1.363 . S
C372 C378 1.379 . S
C372 N380 1.356 . S
C373 C372 1.363 . S
C373 C379 1.363 . S
C374 C375 1.363 . S
C374 C379 1.379 . S
C374 N381 1.356 . S
C375 C374 1.363 . S
C375 C378 1.363 . S
N376 C378 1.356 . S
N376 H388 0.984 . S
N376 H389 0.985 . S
N377 C379 1.356 . S
N377 H382 0.984 . S
N377 H383 0.985 . S
C378 C372 1.379 . S
C378 C375 1.363 . S
C378 N376 1.356 . S
C379 C373 1.363 . S
C379 C374 1.379 . S
C379 N377 1.356 . S
N380 C372 1.356 . S
N380 H386 0.984 . S
N380 H387 0.984 . S
N381 C374 1.356 . S
N381 H384 0.984 . S
N381 H385 0.985 . S
H382 N377 0.984 . S
H383 N377 0.985 . S
H384 N381 0.984 . S
H385 N381 0.985 . S
H386 N380 0.984 . S
H387 N380 0.984 . S
H388 N376 0.984 . S
H389 N376 0.985 . S
C390 C391 1.363 . S
C390 C396 1.379 . S
C390 N398 1.356 . S
C391 C390 1.363 . S
C391 C397 1.363 . S
C392 C393 1.363 . S
C392 C397 1.379 . S
C392 N399 1.356 . S
C393 C392 1.363 . S
C393 C396 1.363 . S
N394 C396 1.356 . S
N394 H406 0.984 . S
N394 H407 0.985 . S
N395 C397 1.356 . S
N395 H400 0.984 . S
N395 H401 0.985 . S
C396 C390 1.379 . S
C396 C393 1.363 . S
C396 N394 1.356 . S
C397 C391 1.363 . S
C397 C392 1.379 . S
C397 N395 1.356 . S
N398 C390 1.356 . S
N398 H404 0.984 . S
N398 H405 0.984 . S
N399 C392 1.356 . S
N399 H402 0.984 . S
N399 H403 0.985 . S
H400 N395 0.984 . S
H401 N395 0.985 . S
H402 N399 0.984 . S
H403 N399 0.985 . S
H404 N398 0.984 . S
H405 N398 0.984 . S
H406 N394 0.984 . S
H407 N394 0.985 . S
C408 C409 1.363 . S
C408 C414 1.379 . S
C408 N416 1.356 . S
C409 C408 1.363 . S
C409 C415 1.363 1_554 S
C410 C411 1.363 . S
C410 C415 1.379 . S
C410 N417 1.356 . S
C411 C410 1.363 . S
C411 C414 1.363 1_556 S
N412 C414 1.356 1_556 S
N412 H424 0.984 1_556 S
N412 H425 0.985 . S
N413 C415 1.356 1_554 S
N413 H418 0.984 . S
N413 H419 0.985 1_554 S
C414 C408 1.379 . S
C414 C411 1.363 1_554 S
C414 N412 1.356 1_554 S
C415 C409 1.363 1_556 S
C415 C410 1.379 . S
C415 N413 1.356 1_556 S
N416 C408 1.356 . S
N416 H422 0.984 . S
N416 H423 0.984 . S
N417 C410 1.356 . S
N417 H420 0.984 . S
N417 H421 0.985 . S
H418 N413 0.984 . S
H419 N413 0.985 1_556 S
H420 N417 0.984 . S
H421 N417 0.985 . S
H422 N416 0.984 . S
H423 N416 0.984 . S
H424 N412 0.984 1_554 S
H425 N412 0.985 . S
C426 C427 1.363 . S
C426 C432 1.379 . S
C426 N434 1.356 . S
C427 C426 1.363 . S
C427 C433 1.363 . S
C428 C429 1.363 . S
C428 C433 1.379 . S
C428 N435 1.356 . S
C429 C428 1.363 . S
C429 C432 1.363 . S
N430 C432 1.356 . S
N430 H442 0.984 . S
N430 H443 0.985 . S
N431 C433 1.356 . S
N431 H436 0.984 . S
N431 H437 0.985 . S
C432 C426 1.379 . S
C432 C429 1.363 . S
C432 N430 1.356 . S
C433 C427 1.363 . S
C433 C428 1.379 . S
C433 N431 1.356 . S
N434 C426 1.356 . S
N434 H440 0.984 . S
N434 H441 0.984 . S
N435 C428 1.356 . S
N435 H438 0.984 . S
N435 H439 0.985 . S
H436 N431 0.984 . S
H437 N431 0.985 . S
H438 N435 0.984 . S
H439 N435 0.985 . S
H440 N434 0.984 . S
H441 N434 0.984 . S
H442 N430 0.984 . S
H443 N430 0.985 . S
C444 C445 1.363 . S
C444 C450 1.379 . S
C444 N452 1.356 . S
C445 C444 1.363 . S
C445 C451 1.363 . S
C446 C447 1.363 . S
C446 C451 1.379 . S
C446 N453 1.356 . S
C447 C446 1.363 . S
C447 C450 1.363 . S
N448 C450 1.356 . S
N448 H460 0.984 . S
N448 H461 0.985 . S
N449 C451 1.356 . S
N449 H454 0.984 . S
N449 H455 0.985 . S
C450 C444 1.379 . S
C450 C447 1.363 . S
C450 N448 1.356 . S
C451 C445 1.363 . S
C451 C446 1.379 . S
C451 N449 1.356 . S
N452 C444 1.356 . S
N452 H458 0.984 . S
N452 H459 0.984 . S
N453 C446 1.356 . S
N453 H456 0.984 . S
N453 H457 0.985 . S
H454 N449 0.984 . S
H455 N449 0.985 . S
H456 N453 0.984 . S
H457 N453 0.985 . S
H458 N452 0.984 . S
H459 N452 0.984 . S
H460 N448 0.984 . S
H461 N448 0.985 . S
C462 C463 1.363 . S
C462 C468 1.379 . S
C462 N470 1.356 . S
C463 C462 1.363 . S
C463 C469 1.363 1_554 S
C464 C465 1.363 . S
C464 C469 1.379 . S
C464 N471 1.356 . S
C465 C464 1.363 . S
C465 C468 1.363 1_556 S
N466 C468 1.356 1_556 S
N466 H478 0.984 1_556 S
N466 H479 0.985 . S
N467 C469 1.356 1_554 S
N467 H472 0.984 . S
N467 H473 0.985 1_554 S
C468 C462 1.379 . S
C468 C465 1.363 1_554 S
C468 N466 1.356 1_554 S
C469 C463 1.363 1_556 S
C469 C464 1.379 . S
C469 N467 1.356 1_556 S
N470 C462 1.356 . S
N470 H476 0.984 . S
N470 H477 0.984 . S
N471 C464 1.356 . S
N471 H474 0.984 . S
N471 H475 0.985 . S
H472 N467 0.984 . S
H473 N467 0.985 1_556 S
H474 N471 0.984 . S
H475 N471 0.985 . S
H476 N470 0.984 . S
H477 N470 0.984 . S
H478 N466 0.984 1_554 S
H479 N466 0.985 . S
C480 C481 1.363 . S
C480 C486 1.379 . S
C480 N488 1.356 . S
C481 C480 1.363 . S
C481 C487 1.363 1_545 S
C482 C483 1.363 . S
C482 C487 1.379 . S
C482 N489 1.356 . S
C483 C482 1.363 . S
C483 C486 1.363 1_565 S
N484 C486 1.356 . S
N484 H496 0.984 . S
N484 H497 0.985 . S
N485 C487 1.356 . S
N485 H490 0.984 . S
N485 H491 0.985 . S
C486 C480 1.379 . S
C486 C483 1.363 1_545 S
C486 N484 1.356 . S
C487 C481 1.363 1_565 S
C487 C482 1.379 . S
C487 N485 1.356 . S
N488 C480 1.356 . S
N488 H494 0.984 . S
N488 H495 0.984 . S
N489 C482 1.356 . S
N489 H492 0.984 . S
N489 H493 0.985 . S
H490 N485 0.984 . S
H491 N485 0.985 . S
H492 N489 0.984 . S
H493 N489 0.985 . S
H494 N488 0.984 . S
H495 N488 0.984 . S
H496 N484 0.984 . S
H497 N484 0.985 . S
C498 C499 1.363 . S
C498 C504 1.379 . S
C498 N506 1.356 . S
C499 C498 1.363 . S
C499 C505 1.363 . S
C500 C501 1.363 . S
C500 C505 1.379 . S
C500 N507 1.356 . S
C501 C500 1.363 . S
C501 C504 1.363 . S
N502 C504 1.356 . S
N502 H514 0.984 . S
N502 H515 0.985 . S
N503 C505 1.356 . S
N503 H508 0.984 . S
N503 H509 0.985 . S
C504 C498 1.379 . S
C504 C501 1.363 . S
C504 N502 1.356 . S
C505 C499 1.363 . S
C505 C500 1.379 . S
C505 N503 1.356 . S
N506 C498 1.356 . S
N506 H512 0.984 . S
N506 H513 0.984 . S
N507 C500 1.356 . S
N507 H510 0.984 . S
N507 H511 0.985 . S
H508 N503 0.984 . S
H509 N503 0.985 . S
H510 N507 0.984 . S
H511 N507 0.985 . S
H512 N506 0.984 . S
H513 N506 0.984 . S
H514 N502 0.984 . S
H515 N502 0.985 . S
C516 C517 1.363 . S
C516 C522 1.379 1_455 S
C516 N524 1.356 . S
C517 C516 1.363 . S
C517 C523 1.363 . S
C518 C519 1.363 . S
C518 C523 1.379 1_655 S
C518 N525 1.356 . S
C519 C518 1.363 . S
C519 C522 1.363 . S
N520 C522 1.356 . S
N520 H532 0.984 . S
N520 H533 0.985 . S
N521 C523 1.356 . S
N521 H526 0.984 . S
N521 H527 0.985 . S
C522 C516 1.379 1_655 S
C522 C519 1.363 . S
C522 N520 1.356 . S
C523 C517 1.363 . S
C523 C518 1.379 1_455 S
C523 N521 1.356 . S
N524 C516 1.356 . S
N524 H530 0.984 . S
N524 H531 0.984 . S
N525 C518 1.356 . S
N525 H528 0.984 . S
N525 H529 0.985 . S
H526 N521 0.984 . S
H527 N521 0.985 . S
H528 N525 0.984 . S
H529 N525 0.985 . S
H530 N524 0.984 . S
H531 N524 0.984 . S
H532 N520 0.984 . S
H533 N520 0.985 . S
C534 C535 1.363 1_545 S
C534 C540 1.379 . S
C534 N542 1.356 . S
C535 C534 1.363 1_565 S
C535 C541 1.363 . S
C536 C537 1.363 1_565 S
C536 C541 1.379 . S
C536 N543 1.356 . S
C537 C536 1.363 1_545 S
C537 C540 1.363 . S
N538 C540 1.356 . S
N538 H550 0.984 . S
N538 H551 0.985 . S
N539 C541 1.356 . S
N539 H544 0.984 . S
N539 H545 0.985 . S
C540 C534 1.379 . S
C540 C537 1.363 . S
C540 N538 1.356 . S
C541 C535 1.363 . S
C541 C536 1.379 . S
C541 N539 1.356 . S
N542 C534 1.356 . S
N542 H548 0.984 . S
N542 H549 0.984 . S
N543 C536 1.356 . S
N543 H546 0.984 . S
N543 H547 0.985 . S
H544 N539 0.984 . S
H545 N539 0.985 . S
H546 N543 0.984 . S
H547 N543 0.985 . S
H548 N542 0.984 . S
H549 N542 0.984 . S
H550 N538 0.984 . S
H551 N538 0.985 . S
C552 C553 1.363 . S
C552 C558 1.379 . S
C552 N560 1.356 . S
C553 C552 1.363 . S
C553 C559 1.363 . S
C554 C555 1.363 . S
C554 C559 1.379 . S
C554 N561 1.356 . S
C555 C554 1.363 . S
C555 C558 1.363 . S
N556 C558 1.356 . S
N556 H568 0.984 . S
N556 H569 0.985 . S
N557 C559 1.356 . S
N557 H562 0.984 . S
N557 H563 0.985 . S
C558 C552 1.379 . S
C558 C555 1.363 . S
C558 N556 1.356 . S
C559 C553 1.363 . S
C559 C554 1.379 . S
C559 N557 1.356 . S
N560 C552 1.356 . S
N560 H566 0.984 . S
N560 H567 0.984 . S
N561 C554 1.356 . S
N561 H564 0.984 . S
N561 H565 0.985 . S
H562 N557 0.984 . S
H563 N557 0.985 . S
H564 N561 0.984 . S
H565 N561 0.985 . S
H566 N560 0.984 . S
H567 N560 0.984 . S
H568 N556 0.984 . S
H569 N556 0.985 . S
C570 C571 1.363 . S
C570 C576 1.379 . S
C570 N578 1.356 . S
C571 C570 1.363 . S
C571 C577 1.363 1_655 S
C572 C573 1.363 . S
C572 C577 1.379 . S
C572 N579 1.356 . S
C573 C572 1.363 . S
C573 C576 1.363 1_455 S
N574 C576 1.356 . S
N574 H586 0.984 . S
N574 H587 0.985 . S
N575 C577 1.356 . S
N575 H580 0.984 . S
N575 H581 0.985 . S
C576 C570 1.379 . S
C576 C573 1.363 1_655 S
C576 N574 1.356 . S
C577 C571 1.363 1_455 S
C577 C572 1.379 . S
C577 N575 1.356 . S
N578 C570 1.356 . S
N578 H584 0.984 . S
N578 H585 0.984 . S
N579 C572 1.356 . S
N579 H582 0.984 . S
N579 H583 0.985 . S
H580 N575 0.984 . S
H581 N575 0.985 . S
H582 N579 0.984 . S
H583 N579 0.985 . S
H584 N578 0.984 . S
H585 N578 0.984 . S
H586 N574 0.984 . S
H587 N574 0.985 . S
C157 C0 1.650 . S
C159 C104 1.648 . S
C175 C13 1.650 . S
C177 C117 1.647 . S
C193 C130 1.647 . S
C195 C26 1.644 . S
C211 C143 1.650 . S
C213 C39 1.647 . S
C229 C78 1.650 . S
C231 C52 1.648 . S
C247 C91 1.647 . S
C249 C65 1.644 . S
C265 C8 1.386 . S
C267 C47 1.389 . S
C283 C60 1.385 . S
C285 C21 1.385 . S
C301 C73 1.383 . S
C303 C34 1.380 . S
C319 C86 1.386 . S
C321 C125 1.389 . S
C337 C138 1.383 . S
C339 C99 1.380 . S
C355 C112 1.385 . S
C357 C151 1.385 . S
C373 C88 1.255 . S
C375 C10 1.258 . S
C391 C23 1.252 . S
C393 C101 1.255 . S
C409 C114 1.252 . S
C411 C36 1.255 . S
C427 C127 1.255 . S
C429 C49 1.258 . S
C445 C62 1.252 . S
C447 C140 1.255 . S
C463 C153 1.252 . S
C465 C75 1.255 . S
C481 C5 1.105 . S
C483 C96 1.104 . S
C499 C109 1.106 . S
C501 C18 1.106 . S
C517 C122 1.105 . S
C519 C31 1.104 . S
C535 C44 1.105 . S
C537 C135 1.104 . S
C553 C148 1.106 . S
C555 C57 1.106 . S
C571 C83 1.105 . S
C573 C70 1.104 . S
