# Generated by pormake.
# Topology lta, (4)-cn, num edge types: 1
# Building blocks:
#     Node 0, Type 0, BuildingBlock: UXUYUI_clean_sbu_0, # of connection points: 4
#     Node 1, Type 0, BuildingBlock: UXUYUI_clean_sbu_0, # of connection points: 4
#     Node 2, Type 0, BuildingBlock: UXUYUI_clean_sbu_0, # of connection points: 4
#     Node 3, Type 0, BuildingBlock: UXUYUI_clean_sbu_0, # of connection points: 4
#     Node 4, Type 0, BuildingBlock: UXUYUI_clean_sbu_0, # of connection points: 4
#     Node 5, Type 0, BuildingBlock: UXUYUI_clean_sbu_0, # of connection points: 4
#     Node 6, Type 0, BuildingBlock: UXUYUI_clean_sbu_0, # of connection points: 4
#     Node 7, Type 0, BuildingBlock: UXUYUI_clean_sbu_0, # of connection points: 4
#     Node 8, Type 0, BuildingBlock: UXUYUI_clean_sbu_0, # of connection points: 4
#     Node 9, Type 0, BuildingBlock: UXUYUI_clean_sbu_0, # of connection points: 4
#     Node 10, Type 0, BuildingBlock: UXUYUI_clean_sbu_0, # of connection points: 4
#     Node 11, Type 0, BuildingBlock: UXUYUI_clean_sbu_0, # of connection points: 4
#     Node 12, Type 0, BuildingBlock: UXUYUI_clean_sbu_0, # of connection points: 4
#     Node 13, Type 0, BuildingBlock: UXUYUI_clean_sbu_0, # of connection points: 4
#     Node 14, Type 0, BuildingBlock: UXUYUI_clean_sbu_0, # of connection points: 4
#     Node 15, Type 0, BuildingBlock: UXUYUI_clean_sbu_0, # of connection points: 4
#     Node 16, Type 0, BuildingBlock: UXUYUI_clean_sbu_0, # of connection points: 4
#     Node 17, Type 0, BuildingBlock: UXUYUI_clean_sbu_0, # of connection points: 4
#     Node 18, Type 0, BuildingBlock: UXUYUI_clean_sbu_0, # of connection points: 4
#     Node 19, Type 0, BuildingBlock: UXUYUI_clean_sbu_0, # of connection points: 4
#     Node 20, Type 0, BuildingBlock: UXUYUI_clean_sbu_0, # of connection points: 4
#     Node 21, Type 0, BuildingBlock: UXUYUI_clean_sbu_0, # of connection points: 4
#     Node 22, Type 0, BuildingBlock: UXUYUI_clean_sbu_0, # of connection points: 4
#     Node 23, Type 0, BuildingBlock: UXUYUI_clean_sbu_0, # of connection points: 4
#     Edge 24, Type (0, 0), BuildingBlock: XUDNAN_clean_linker_2, # of connection points: 2
#     Edge 25, Type (0, 0), BuildingBlock: XUDNAN_clean_linker_2, # of connection points: 2
#     Edge 26, Type (0, 0), BuildingBlock: XUDNAN_clean_linker_2, # of connection points: 2
#     Edge 27, Type (0, 0), BuildingBlock: XUDNAN_clean_linker_2, # of connection points: 2
#     Edge 28, Type (0, 0), BuildingBlock: XUDNAN_clean_linker_2, # of connection points: 2
#     Edge 29, Type (0, 0), BuildingBlock: XUDNAN_clean_linker_2, # of connection points: 2
#     Edge 30, Type (0, 0), BuildingBlock: XUDNAN_clean_linker_2, # of connection points: 2
#     Edge 31, Type (0, 0), BuildingBlock: XUDNAN_clean_linker_2, # of connection points: 2
#     Edge 32, Type (0, 0), BuildingBlock: XUDNAN_clean_linker_2, # of connection points: 2
#     Edge 33, Type (0, 0), BuildingBlock: XUDNAN_clean_linker_2, # of connection points: 2
#     Edge 34, Type (0, 0), BuildingBlock: XUDNAN_clean_linker_2, # of connection points: 2
#     Edge 35, Type (0, 0), BuildingBlock: XUDNAN_clean_linker_2, # of connection points: 2
#     Edge 36, Type (0, 0), BuildingBlock: XUDNAN_clean_linker_2, # of connection points: 2
#     Edge 37, Type (0, 0), BuildingBlock: XUDNAN_clean_linker_2, # of connection points: 2
#     Edge 38, Type (0, 0), BuildingBlock: XUDNAN_clean_linker_2, # of connection points: 2
#     Edge 39, Type (0, 0), BuildingBlock: XUDNAN_clean_linker_2, # of connection points: 2
#     Edge 40, Type (0, 0), BuildingBlock: XUDNAN_clean_linker_2, # of connection points: 2
#     Edge 41, Type (0, 0), BuildingBlock: XUDNAN_clean_linker_2, # of connection points: 2
#     Edge 42, Type (0, 0), BuildingBlock: XUDNAN_clean_linker_2, # of connection points: 2
#     Edge 43, Type (0, 0), BuildingBlock: XUDNAN_clean_linker_2, # of connection points: 2
#     Edge 44, Type (0, 0), BuildingBlock: XUDNAN_clean_linker_2, # of connection points: 2
#     Edge 45, Type (0, 0), BuildingBlock: XUDNAN_clean_linker_2, # of connection points: 2
#     Edge 46, Type (0, 0), BuildingBlock: XUDNAN_clean_linker_2, # of connection points: 2
#     Edge 47, Type (0, 0), BuildingBlock: XUDNAN_clean_linker_2, # of connection points: 2
#     Edge 48, Type (0, 0), BuildingBlock: XUDNAN_clean_linker_2, # of connection points: 2
#     Edge 49, Type (0, 0), BuildingBlock: XUDNAN_clean_linker_2, # of connection points: 2
#     Edge 50, Type (0, 0), BuildingBlock: XUDNAN_clean_linker_2, # of connection points: 2
#     Edge 51, Type (0, 0), BuildingBlock: XUDNAN_clean_linker_2, # of connection points: 2
#     Edge 52, Type (0, 0), BuildingBlock: XUDNAN_clean_linker_2, # of connection points: 2
#     Edge 53, Type (0, 0), BuildingBlock: XUDNAN_clean_linker_2, # of connection points: 2
#     Edge 54, Type (0, 0), BuildingBlock: XUDNAN_clean_linker_2, # of connection points: 2
#     Edge 55, Type (0, 0), BuildingBlock: XUDNAN_clean_linker_2, # of connection points: 2
#     Edge 56, Type (0, 0), BuildingBlock: XUDNAN_clean_linker_2, # of connection points: 2
#     Edge 57, Type (0, 0), BuildingBlock: XUDNAN_clean_linker_2, # of connection points: 2
#     Edge 58, Type (0, 0), BuildingBlock: XUDNAN_clean_linker_2, # of connection points: 2
#     Edge 59, Type (0, 0), BuildingBlock: XUDNAN_clean_linker_2, # of connection points: 2
#     Edge 60, Type (0, 0), BuildingBlock: XUDNAN_clean_linker_2, # of connection points: 2
#     Edge 61, Type (0, 0), BuildingBlock: XUDNAN_clean_linker_2, # of connection points: 2
#     Edge 62, Type (0, 0), BuildingBlock: XUDNAN_clean_linker_2, # of connection points: 2
#     Edge 63, Type (0, 0), BuildingBlock: XUDNAN_clean_linker_2, # of connection points: 2
#     Edge 64, Type (0, 0), BuildingBlock: XUDNAN_clean_linker_2, # of connection points: 2
#     Edge 65, Type (0, 0), BuildingBlock: XUDNAN_clean_linker_2, # of connection points: 2
#     Edge 66, Type (0, 0), BuildingBlock: XUDNAN_clean_linker_2, # of connection points: 2
#     Edge 67, Type (0, 0), BuildingBlock: XUDNAN_clean_linker_2, # of connection points: 2
#     Edge 68, Type (0, 0), BuildingBlock: XUDNAN_clean_linker_2, # of connection points: 2
#     Edge 69, Type (0, 0), BuildingBlock: XUDNAN_clean_linker_2, # of connection points: 2
#     Edge 70, Type (0, 0), BuildingBlock: XUDNAN_clean_linker_2, # of connection points: 2
#     Edge 71, Type (0, 0), BuildingBlock: XUDNAN_clean_linker_2, # of connection points: 2
# Relax obj value: 0.238
# Max RMSD: 0.085
# Mean RMSD: 0.085
data_MOF--net-lta--node1-UXUYUI_clean_sbu_0--edge1-XUDNAN_clean_linker_2
_symmetry_space_group_name_H-M    P1
_symmetry_Int_Tables_number       1
_symmetry_cell_setting            triclinic
loop_
_symmetry_equiv_pos_as_xyz
'x, y, z'
_cell_length_a     83.007323
_cell_length_b     82.998718
_cell_length_c     82.98402
_cell_angle_alpha  90.005218
_cell_angle_beta   89.997739
_cell_angle_gamma 90.000406
loop_
_atom_site_label
_atom_site_type_symbol
_atom_site_fract_x
_atom_site_fract_y
_atom_site_fract_z
_atom_type_partial_charge
Li0 Li 0.12626 0.32149 0.51037 0.0
Li1 Li 0.13871 0.29681 0.50035 0.0
Li2 Li 0.1313 0.3176 0.48153 0.0
Li3 Li 0.11129 0.30124 0.49583 0.0
C4 C 0.16017 0.32123 0.50914 0.0
N5 N 0.18611 0.3249 0.52971 0.0
C6 C 0.15993 0.31419 0.52446 0.0
C7 C 0.17363 0.33011 0.5043 0.0
C8 C 0.17315 0.31619 0.53467 0.0
C9 C 0.18661 0.33185 0.51487 0.0
C10 C 0.11082 0.28979 0.525 0.0
C11 C 0.09643 0.26471 0.52808 0.0
N12 N 0.08752 0.27138 0.5401 0.0
C13 C 0.10167 0.29631 0.53755 0.0
C14 C 0.10832 0.27379 0.52037 0.0
C15 C 0.0899 0.28684 0.54498 0.0
C16 C 0.10864 0.34027 0.53158 0.0
N17 N 0.12399 0.3378 0.52645 0.0
C18 C 0.13344 0.35952 0.54285 0.0
C19 C 0.13631 0.34726 0.53169 0.0
C20 C 0.11771 0.36224 0.54846 0.0
C21 C 0.10521 0.3524 0.54269 0.0
H22 H 0.09899 0.33294 0.5268 0.0
H23 H 0.1483 0.34566 0.52699 0.0
C24 C 0.16882 0.28249 0.49569 0.0
N25 N 0.15517 0.28162 0.50469 0.0
C26 C 0.1816 0.27204 0.4987 0.0
C27 C 0.16626 0.26038 0.52057 0.0
C28 C 0.15368 0.27094 0.517 0.0
C29 C 0.18042 0.26086 0.51132 0.0
H30 H 0.16983 0.29145 0.48629 0.0
H31 H 0.14284 0.27078 0.5242 0.0
C32 C 0.10877 0.34093 0.48994 0.0
N33 N 0.10375 0.37348 0.48513 0.0
C34 C 0.09321 0.34679 0.48734 0.0
C35 C 0.12178 0.35163 0.49015 0.0
C36 C 0.09092 0.36329 0.48492 0.0
C37 C 0.11899 0.36803 0.48767 0.0
C38 C 0.13581 0.28237 0.47218 0.0
C39 C 0.14735 0.28634 0.46058 0.0
C40 C 0.13346 0.26622 0.47635 0.0
C41 C 0.15656 0.27412 0.45356 0.0
C42 C 0.14293 0.25435 0.46909 0.0
N43 N 0.1542 0.25851 0.45795 0.0
C44 C 0.15125 0.33309 0.45858 0.0
C45 C 0.12335 0.33251 0.4524 0.0
C46 C 0.15442 0.34209 0.44472 0.0
N47 N 0.1359 0.32865 0.46216 0.0
C48 C 0.12593 0.34162 0.43853 0.0
C49 C 0.14161 0.34664 0.43464 0.0
H50 H 0.16097 0.32978 0.46658 0.0
H51 H 0.11128 0.32874 0.45558 0.0
C52 C 0.07838 0.30101 0.5014 0.0
N53 N 0.09027 0.29276 0.49377 0.0
C54 C 0.06236 0.29639 0.49954 0.0
C55 C 0.07114 0.27467 0.48219 0.0
C56 C 0.08704 0.27974 0.48439 0.0
C57 C 0.05853 0.28317 0.48967 0.0
H58 H 0.08137 0.31143 0.50864 0.0
H59 H 0.09676 0.2735 0.47838 0.0
O60 O 0.14753 0.31919 0.49875 0.0
O61 O 0.12219 0.29897 0.51735 0.0
O62 O 0.11113 0.3248 0.49242 0.0
O63 O 0.12686 0.29421 0.47937 0.0
H64 H 0.14966 0.30728 0.52848 0.0
H65 H 0.17405 0.33563 0.49249 0.0
H66 H 0.17312 0.31081 0.54654 0.0
H67 H 0.1971 0.33871 0.51128 0.0
H68 H 0.09427 0.25237 0.52448 0.0
H69 H 0.10368 0.3085 0.54161 0.0
H70 H 0.11538 0.2685 0.51082 0.0
H71 H 0.08269 0.29177 0.55465 0.0
H72 H 0.14335 0.36709 0.54669 0.0
H73 H 0.09291 0.35405 0.5467 0.0
H74 H 0.19244 0.27294 0.49148 0.0
H75 H 0.16492 0.25189 0.53039 0.0
H76 H 0.08301 0.33865 0.4872 0.0
H77 H 0.13391 0.34734 0.49221 0.0
H78 H 0.07894 0.36799 0.48287 0.0
H79 H 0.12895 0.37644 0.48779 0.0
H80 H 0.14931 0.29873 0.45711 0.0
H81 H 0.12448 0.26286 0.48515 0.0
H82 H 0.16562 0.27705 0.44465 0.0
H83 H 0.14131 0.24182 0.47231 0.0
H84 H 0.16665 0.34584 0.44217 0.0
H85 H 0.11578 0.34477 0.43096 0.0
H86 H 0.05306 0.3035 0.50528 0.0
H87 H 0.06872 0.26436 0.47456 0.0
Li88 Li 0.69769 0.14175 0.504 0.0
Li89 Li 0.67328 0.13213 0.51681 0.0
Li90 Li 0.69046 0.11415 0.50092 0.0
Li91 Li 0.67405 0.13466 0.48793 0.0
C92 C 0.70202 0.1132 0.52993 0.0
N93 N 0.71414 0.08708 0.54664 0.0
C94 C 0.69269 0.10563 0.54173 0.0
C95 C 0.71755 0.10752 0.52668 0.0
C96 C 0.69903 0.09244 0.55004 0.0
C97 C 0.72344 0.09428 0.53523 0.0
C98 C 0.66816 0.16338 0.51257 0.0
C99 C 0.64334 0.17435 0.52298 0.0
N100 N 0.6519 0.18546 0.53146 0.0
C101 C 0.67671 0.17493 0.52136 0.0
C102 C 0.65134 0.16312 0.51333 0.0
C103 C 0.66826 0.18599 0.53084 0.0
C104 C 0.71516 0.17041 0.49818 0.0
N105 N 0.71497 0.15636 0.50658 0.0
C106 C 0.73947 0.16326 0.51993 0.0
C107 C 0.72675 0.15263 0.51731 0.0
C108 C 0.73998 0.17793 0.51152 0.0
C109 C 0.72764 0.18143 0.50046 0.0
H110 H 0.70548 0.17311 0.48988 0.0
H111 H 0.7262 0.14146 0.52394 0.0
C112 C 0.64643 0.12656 0.53741 0.0
N113 N 0.66067 0.13443 0.53573 0.0
C114 C 0.63701 0.12901 0.55113 0.0
C115 C 0.65719 0.14746 0.56114 0.0
C116 C 0.66634 0.14442 0.54739 0.0
C117 C 0.64223 0.13979 0.56315 0.0
H118 H 0.64238 0.1184 0.52809 0.0
H119 H 0.67786 0.1503 0.54581 0.0
C120 C 0.70883 0.1365 0.47532 0.0
N121 N 0.7331 0.15274 0.45933 0.0
C122 C 0.70503 0.14804 0.46366 0.0
C123 C 0.72497 0.1332 0.47883 0.0
C124 C 0.71748 0.15611 0.4557 0.0
C125 C 0.73706 0.14156 0.47063 0.0
C126 C 0.65476 0.10993 0.49135 0.0
C127 C 0.65812 0.09744 0.48055 0.0
C128 C 0.63936 0.11673 0.49168 0.0
C129 C 0.64601 0.09204 0.47017 0.0
C130 C 0.6276 0.11103 0.48107 0.0
N131 N 0.63114 0.0989 0.47063 0.0
C132 C 0.6904 0.08078 0.50684 0.0
C133 C 0.70993 0.08946 0.48789 0.0
C134 C 0.69474 0.06473 0.50438 0.0
N135 N 0.69793 0.0927 0.49854 0.0
C136 C 0.71468 0.07359 0.48507 0.0
C137 C 0.70689 0.06096 0.49319 0.0
H138 H 0.68071 0.08373 0.51504 0.0
H139 H 0.71555 0.09916 0.4813 0.0
C140 C 0.65007 0.14995 0.46842 0.0
N141 N 0.66189 0.13864 0.46892 0.0
C142 C 0.64036 0.15142 0.45475 0.0
C143 C 0.6556 0.12999 0.44221 0.0
C144 C 0.66496 0.12891 0.45611 0.0
C145 C 0.64296 0.14122 0.44148 0.0
H146 H 0.64798 0.15763 0.4787 0.0
H147 H 0.67444 0.12 0.45689 0.0
O148 O 0.69592 0.12594 0.52143 0.0
O149 O 0.67623 0.1523 0.50339 0.0
O150 O 0.69682 0.12871 0.48349 0.0
O151 O 0.66658 0.11571 0.50128 0.0
H152 H 0.68063 0.10978 0.54436 0.0
H153 H 0.72486 0.11309 0.51743 0.0
H154 H 0.69192 0.08643 0.55916 0.0
H155 H 0.73538 0.08969 0.53275 0.0
H156 H 0.63033 0.17419 0.52379 0.0
H157 H 0.68972 0.17526 0.52103 0.0
H158 H 0.64453 0.15412 0.50682 0.0
H159 H 0.67473 0.19495 0.53776 0.0
H160 H 0.74882 0.15998 0.52841 0.0
H161 H 0.72743 0.19271 0.49389 0.0
H162 H 0.6258 0.12245 0.5523 0.0
H163 H 0.6617 0.15599 0.56992 0.0
H164 H 0.69262 0.15087 0.4609 0.0
H165 H 0.72814 0.12449 0.48801 0.0
H166 H 0.71471 0.16511 0.44668 0.0
H167 H 0.7496 0.13922 0.47332 0.0
H168 H 0.67 0.09213 0.47999 0.0
H169 H 0.63658 0.12648 0.49987 0.0
H170 H 0.64847 0.08245 0.46169 0.0
H171 H 0.61567 0.11627 0.48111 0.0
H172 H 0.6882 0.05537 0.51069 0.0
H173 H 0.72419 0.07123 0.47644 0.0
H174 H 0.63088 0.16038 0.45459 0.0
H175 H 0.6579 0.12176 0.43234 0.0
Li176 Li 0.85749 0.6984 0.50194 0.0
Li177 Li 0.86155 0.67198 0.51374 0.0
Li178 Li 0.88388 0.68735 0.5023 0.0
Li179 Li 0.86344 0.67537 0.48484 0.0
C180 C 0.88194 0.69708 0.53187 0.0
N181 N 0.90658 0.70496 0.55283 0.0
C182 C 0.88617 0.68654 0.54431 0.0
C183 C 0.89018 0.71167 0.53015 0.0
C184 C 0.89867 0.69074 0.55477 0.0
C185 C 0.90263 0.71541 0.54084 0.0
C186 C 0.83103 0.67183 0.50523 0.0
C187 C 0.81576 0.64819 0.51252 0.0
N188 N 0.80474 0.65772 0.52001 0.0
C189 C 0.81954 0.68139 0.513 0.0
C190 C 0.82912 0.65509 0.50495 0.0
C191 C 0.80633 0.67403 0.52039 0.0
C192 C 0.83261 0.71984 0.4935 0.0
N193 N 0.84515 0.71746 0.50375 0.0
C194 C 0.83898 0.74168 0.51795 0.0
C195 C 0.84854 0.72805 0.51575 0.0
C196 C 0.82575 0.74434 0.50773 0.0
C197 C 0.82272 0.73331 0.49524 0.0
H198 H 0.83007 0.71104 0.48422 0.0
H199 H 0.85848 0.72576 0.52382 0.0
C200 C 0.86442 0.6441 0.53269 0.0
N201 N 0.85609 0.65808 0.53104 0.0
C202 C 0.86168 0.63412 0.54591 0.0
C203 C 0.84181 0.65312 0.55554 0.0
C204 C 0.84505 0.66281 0.54218 0.0
C205 C 0.85028 0.6386 0.55761 0.0
H206 H 0.87358 0.64094 0.524 0.0
H207 H 0.83897 0.67424 0.54082 0.0
C208 C 0.8693 0.7111 0.47594 0.0
N209 N 0.86034 0.73944 0.46095 0.0
C210 C 0.85865 0.71077 0.4629 0.0
C211 C 0.87545 0.72583 0.48132 0.0
C212 C 0.85427 0.72523 0.45548 0.0
C213 C 0.87074 0.74003 0.47361 0.0
C214 C 0.88476 0.65245 0.48999 0.0
C215 C 0.89825 0.65552 0.48037 0.0
C216 C 0.87714 0.63745 0.48907 0.0
C217 C 0.90388 0.64353 0.46998 0.0
C218 C 0.88314 0.62578 0.47852 0.0
N219 N 0.89626 0.62904 0.46927 0.0
C220 C 0.91405 0.67883 0.51315 0.0
C221 C 0.91469 0.70093 0.49502 0.0
C222 C 0.93076 0.67766 0.51281 0.0
N223 N 0.9064 0.69008 0.50406 0.0
C224 C 0.9315 0.70026 0.4944 0.0
C225 C 0.93964 0.68815 0.50297 0.0
H226 H 0.90708 0.67019 0.51997 0.0
H227 H 0.90824 0.7095 0.48763 0.0
C228 C 0.8517 0.65205 0.4624 0.0
N229 N 0.86144 0.66503 0.46453 0.0
C230 C 0.85361 0.6422 0.44888 0.0
C231 C 0.87457 0.66009 0.43944 0.0
C232 C 0.87236 0.66948 0.45318 0.0
C233 C 0.8656 0.64587 0.43748 0.0
H234 H 0.84325 0.64868 0.47169 0.0
H235 H 0.88008 0.67975 0.4553 0.0
O236 O 0.86992 0.69307 0.52131 0.0
O237 O 0.84409 0.6788 0.49799 0.0
O238 O 0.87346 0.69711 0.48358 0.0
O239 O 0.87872 0.66423 0.49984 0.0
H240 H 0.87997 0.67519 0.54583 0.0
H241 H 0.88717 0.71991 0.52051 0.0
H242 H 0.90211 0.68267 0.56441 0.0
H243 H 0.90918 0.72661 0.53958 0.0
H244 H 0.81421 0.63525 0.51251 0.0
H245 H 0.82086 0.69434 0.51344 0.0
H246 H 0.83803 0.64748 0.49928 0.0
H247 H 0.79738 0.68128 0.52649 0.0
H248 H 0.84182 0.74996 0.52762 0.0
H249 H 0.8125 0.73477 0.48726 0.0
H250 H 0.86883 0.62328 0.5472 0.0
H251 H 0.83289 0.65704 0.56421 0.0
H252 H 0.85366 0.69949 0.45867 0.0
H253 H 0.88361 0.7263 0.49147 0.0
H254 H 0.84599 0.72517 0.44542 0.0
H255 H 0.87533 0.75152 0.47771 0.0
H256 H 0.90415 0.66712 0.48067 0.0
H257 H 0.86652 0.63494 0.49621 0.0
H258 H 0.91423 0.64578 0.4624 0.0
H259 H 0.87729 0.61417 0.47761 0.0
H260 H 0.93665 0.66824 0.51966 0.0
H261 H 0.93798 0.70844 0.48656 0.0
H262 H 0.84651 0.6313 0.44794 0.0
H263 H 0.88373 0.66354 0.43082 0.0
Li264 Li 0.32231 0.87052 0.51406 0.0
Li265 Li 0.30112 0.86056 0.49779 0.0
Li266 Li 0.32621 0.86769 0.48422 0.0
Li267 Li 0.30734 0.88814 0.49561 0.0
C268 C 0.32007 0.83523 0.50495 0.0
N269 N 0.31359 0.80359 0.51298 0.0
C270 C 0.32001 0.83045 0.5211 0.0
C271 C 0.31696 0.82391 0.49288 0.0
C272 C 0.3167 0.81439 0.52491 0.0
C273 C 0.31366 0.80798 0.49719 0.0
C274 C 0.28562 0.87223 0.52247 0.0
C275 C 0.2566 0.87085 0.52325 0.0
N276 N 0.25747 0.86195 0.53699 0.0
C277 C 0.28623 0.86311 0.53661 0.0
C278 C 0.27069 0.87621 0.51576 0.0
C279 C 0.27186 0.85803 0.54377 0.0
C280 C 0.32754 0.87707 0.54716 0.0
N281 N 0.33388 0.87013 0.53377 0.0
C282 C 0.35836 0.86431 0.54768 0.0
C283 C 0.34891 0.86369 0.53379 0.0
C284 C 0.35217 0.87134 0.56183 0.0
C285 C 0.33641 0.8776 0.56144 0.0
H286 H 0.31566 0.88241 0.54669 0.0
H287 H 0.35371 0.85848 0.52285 0.0
C288 C 0.276 0.84497 0.48174 0.0
N289 N 0.28394 0.84521 0.49606 0.0
C290 C 0.26371 0.83389 0.47901 0.0
C291 C 0.26794 0.82331 0.50579 0.0
C292 C 0.28011 0.8347 0.50805 0.0
C293 C 0.25964 0.82275 0.49106 0.0
H294 H 0.27932 0.85325 0.4723 0.0
H295 H 0.28668 0.83491 0.51926 0.0
C296 C 0.34052 0.89612 0.50765 0.0
N297 N 0.3593 0.91422 0.52836 0.0
C298 C 0.33344 0.90782 0.51749 0.0
C299 C 0.35715 0.89357 0.50842 0.0
C300 C 0.34314 0.91686 0.52785 0.0
C301 C 0.36644 0.90286 0.51895 0.0
C302 C 0.29773 0.88189 0.46557 0.0
C303 C 0.30732 0.88632 0.45245 0.0
C304 C 0.28175 0.88717 0.46634 0.0
C305 C 0.30082 0.89614 0.44042 0.0
C306 C 0.27571 0.897 0.45409 0.0
N307 N 0.28529 0.90125 0.44149 0.0
C308 C 0.33615 0.85069 0.45689 0.0
C309 C 0.35441 0.87096 0.46533 0.0
C310 C 0.3461 0.84667 0.44394 0.0
N311 N 0.3405 0.86257 0.46727 0.0
C312 C 0.36476 0.86732 0.45258 0.0
C313 C 0.36063 0.85504 0.44165 0.0
H314 H 0.3248 0.84452 0.45852 0.0
H315 H 0.3574 0.88055 0.47358 0.0
C316 C 0.28869 0.91597 0.50236 0.0
N317 N 0.29977 0.90947 0.49219 0.0
C318 C 0.28343 0.93179 0.50011 0.0
C319 C 0.30085 0.93377 0.47682 0.0
C320 C 0.30607 0.91807 0.47976 0.0
C321 C 0.28949 0.94077 0.48715 0.0
H322 H 0.28418 0.90899 0.51238 0.0
H323 H 0.31525 0.91277 0.4722 0.0
O324 O 0.32325 0.85091 0.50098 0.0
O325 O 0.29955 0.8773 0.51525 0.0
O326 O 0.33112 0.88673 0.49788 0.0
O327 O 0.3039 0.87239 0.47756 0.0
H328 H 0.32233 0.83905 0.5306 0.0
H329 H 0.31691 0.82741 0.48033 0.0
H330 H 0.31653 0.81053 0.53736 0.0
H331 H 0.31111 0.79911 0.48798 0.0
H332 H 0.24497 0.87377 0.51814 0.0
H333 H 0.29765 0.85971 0.54186 0.0
H334 H 0.26999 0.88326 0.50484 0.0
H335 H 0.27216 0.85087 0.55466 0.0
H336 H 0.37054 0.85968 0.54712 0.0
H337 H 0.33092 0.88291 0.57201 0.0
H338 H 0.25748 0.83407 0.46755 0.0
H339 H 0.26537 0.8148 0.51534 0.0
H340 H 0.32056 0.90972 0.51736 0.0
H341 H 0.3628 0.88431 0.50121 0.0
H342 H 0.3378 0.92591 0.53557 0.0
H343 H 0.37931 0.90096 0.51971 0.0
H344 H 0.31971 0.88239 0.45162 0.0
H345 H 0.27413 0.8838 0.47635 0.0
H346 H 0.30814 0.89973 0.43025 0.0
H347 H 0.2634 0.90125 0.4546 0.0
H348 H 0.3423 0.83734 0.43565 0.0
H349 H 0.3759 0.87399 0.45137 0.0
H350 H 0.27478 0.93698 0.5084 0.0
H351 H 0.306 0.94053 0.46691 0.0
Li352 Li 0.1131 0.68687 0.49513 0.0
Li353 Li 0.13466 0.67486 0.51316 0.0
Li354 Li 0.13873 0.69831 0.49693 0.0
Li355 Li 0.13565 0.67294 0.48285 0.0
C356 C 0.12561 0.70953 0.52381 0.0
N357 N 0.131 0.73724 0.54151 0.0
C358 C 0.13561 0.70914 0.53736 0.0
C359 C 0.11807 0.72396 0.51949 0.0
C360 C 0.13826 0.72329 0.54609 0.0
C361 C 0.12103 0.73785 0.52852 0.0
C362 C 0.11903 0.64792 0.49488 0.0
C363 C 0.13232 0.62209 0.49419 0.0
N364 N 0.1188 0.6154 0.48778 0.0
C365 C 0.10525 0.64079 0.48835 0.0
C366 C 0.13267 0.6385 0.49788 0.0
C367 C 0.10537 0.62433 0.48483 0.0
C368 C 0.08361 0.68111 0.48045 0.0
N369 N 0.09058 0.68901 0.49297 0.0
C370 C 0.06486 0.69639 0.50349 0.0
C371 C 0.08167 0.69681 0.50427 0.0
C372 C 0.05732 0.68771 0.49107 0.0
C373 C 0.0669 0.68035 0.47923 0.0
H374 H 0.09106 0.67494 0.47173 0.0
H375 H 0.08759 0.70281 0.5142 0.0
C376 C 0.15151 0.66601 0.54176 0.0
N377 N 0.13832 0.66318 0.53249 0.0
C378 C 0.15409 0.65706 0.55579 0.0
C379 C 0.12965 0.64225 0.55022 0.0
C380 C 0.12735 0.65174 0.53656 0.0
C381 C 0.14317 0.64482 0.56013 0.0
H382 H 0.15997 0.67528 0.53833 0.0
H383 H 0.11689 0.64982 0.52905 0.0
C384 C 0.11609 0.70095 0.46634 0.0
N385 N 0.09419 0.71473 0.44534 0.0
C386 C 0.11405 0.69464 0.45086 0.0
C387 C 0.10729 0.71455 0.47096 0.0
C388 C 0.10284 0.7017 0.44046 0.0
C389 C 0.09619 0.72126 0.46024 0.0
C390 C 0.16769 0.68437 0.49404 0.0
C391 C 0.17003 0.69037 0.47847 0.0
C392 C 0.18036 0.68481 0.50512 0.0
C393 C 0.18496 0.69692 0.47431 0.0
C394 C 0.19513 0.69143 0.50049 0.0
N395 N 0.19709 0.69732 0.48532 0.0
C396 C 0.1619 0.721 0.50789 0.0
C397 C 0.14948 0.72719 0.48293 0.0
C398 C 0.17278 0.73366 0.50595 0.0
N399 N 0.15078 0.71783 0.49629 0.0
C400 C 0.1601 0.73994 0.48048 0.0
C401 C 0.17222 0.74302 0.49187 0.0
H402 H 0.16298 0.71311 0.5182 0.0
H403 H 0.14072 0.72427 0.47376 0.0
C404 C 0.12855 0.65374 0.45625 0.0
N405 N 0.14094 0.6587 0.46573 0.0
C406 C 0.13121 0.64274 0.44387 0.0
C407 C 0.15935 0.64187 0.45134 0.0
C408 C 0.15613 0.65294 0.46362 0.0
C409 C 0.14677 0.63661 0.44129 0.0
H410 H 0.11653 0.65825 0.45846 0.0
H411 H 0.16568 0.65669 0.47163 0.0
O412 O 0.12297 0.69579 0.51506 0.0
O413 O 0.11934 0.6641 0.49797 0.0
O414 O 0.12694 0.69413 0.47675 0.0
O415 O 0.15296 0.67844 0.49847 0.0
H416 H 0.14137 0.69808 0.54102 0.0
H417 H 0.10995 0.72444 0.50936 0.0
H418 H 0.14609 0.72317 0.55651 0.0
H419 H 0.11535 0.74911 0.52524 0.0
H420 H 0.14281 0.61467 0.49636 0.0
H421 H 0.09459 0.6479 0.48596 0.0
H422 H 0.14349 0.64387 0.50281 0.0
H423 H 0.09481 0.61866 0.47972 0.0
H424 H 0.05788 0.70207 0.51295 0.0
H425 H 0.06153 0.67369 0.46937 0.0
H426 H 0.16451 0.65979 0.56314 0.0
H427 H 0.12104 0.63279 0.55272 0.0
H428 H 0.12116 0.68454 0.4468 0.0
H429 H 0.10897 0.71981 0.48271 0.0
H430 H 0.10109 0.69687 0.42848 0.0
H431 H 0.08919 0.73168 0.46375 0.0
H432 H 0.16032 0.69018 0.46976 0.0
H433 H 0.17879 0.68021 0.51721 0.0
H434 H 0.18689 0.70173 0.46235 0.0
H435 H 0.20501 0.69193 0.50897 0.0
H436 H 0.18209 0.73549 0.51491 0.0
H437 H 0.15919 0.74699 0.46953 0.0
H438 H 0.12117 0.63913 0.43635 0.0
H439 H 0.17146 0.63723 0.44996 0.0
Li440 Li 0.32527 0.12262 0.51172 0.0
Li441 Li 0.30308 0.10983 0.49757 0.0
Li442 Li 0.32127 0.12792 0.48239 0.0
Li443 Li 0.3021 0.13833 0.50186 0.0
C444 C 0.32923 0.09109 0.49545 0.0
N445 N 0.33239 0.05813 0.49905 0.0
C446 C 0.32671 0.08391 0.51048 0.0
C447 C 0.33346 0.08149 0.48227 0.0
C448 C 0.32835 0.06724 0.51206 0.0
C449 C 0.33498 0.06485 0.48433 0.0
C450 C 0.29287 0.11433 0.52969 0.0
C451 C 0.26637 0.10724 0.5393 0.0
N452 N 0.27314 0.09997 0.55234 0.0
C453 C 0.29955 0.10684 0.54322 0.0
C454 C 0.27613 0.11456 0.52772 0.0
C455 C 0.28937 0.09963 0.55452 0.0
C456 C 0.33874 0.12992 0.54179 0.0
N457 N 0.3407 0.12074 0.52838 0.0
C458 C 0.36392 0.10809 0.53964 0.0
C459 C 0.35316 0.11022 0.52692 0.0
C460 C 0.36198 0.11713 0.55379 0.0
C461 C 0.34938 0.12836 0.55472 0.0
H462 H 0.32874 0.13825 0.54251 0.0
H463 H 0.35466 0.10336 0.51596 0.0
C464 C 0.29141 0.08425 0.47953 0.0
N465 N 0.29193 0.0898 0.49493 0.0
C466 C 0.28667 0.06842 0.47634 0.0
C467 C 0.28189 0.06471 0.5048 0.0
C468 C 0.28711 0.08042 0.50747 0.0
C469 C 0.28222 0.05826 0.48915 0.0
H470 H 0.29568 0.09183 0.46982 0.0
H471 H 0.28821 0.08461 0.51967 0.0
C472 C 0.34077 0.14961 0.49952 0.0
N473 N 0.37195 0.16121 0.49867 0.0
C474 C 0.34392 0.16569 0.50338 0.0
C475 C 0.35348 0.13941 0.49526 0.0
C476 C 0.35976 0.17133 0.50287 0.0
C477 C 0.36916 0.14551 0.49489 0.0
C478 C 0.28522 0.13453 0.47459 0.0
C479 C 0.28821 0.14562 0.46228 0.0
C480 C 0.26945 0.13194 0.47986 0.0
C481 C 0.27533 0.15421 0.45566 0.0
C482 C 0.25691 0.14078 0.47295 0.0
N483 N 0.26009 0.15166 0.4611 0.0
C484 C 0.33198 0.11938 0.45156 0.0
C485 C 0.33742 0.14655 0.45846 0.0
C486 C 0.33965 0.12131 0.43673 0.0
N487 N 0.33132 0.1318 0.46219 0.0
C488 C 0.34522 0.14902 0.44376 0.0
C489 C 0.34656 0.13625 0.43273 0.0
H490 H 0.32658 0.10796 0.45465 0.0
H491 H 0.33628 0.15639 0.46691 0.0
C492 C 0.2801 0.15642 0.52043 0.0
N493 N 0.28882 0.15635 0.50658 0.0
C494 C 0.26964 0.16909 0.52381 0.0
C495 C 0.27802 0.18194 0.49905 0.0
C496 C 0.28833 0.16897 0.49615 0.0
C497 C 0.26834 0.18199 0.51294 0.0
H498 H 0.28121 0.14663 0.52888 0.0
H499 H 0.29587 0.1689 0.48553 0.0
O500 O 0.32694 0.10733 0.49356 0.0
O501 O 0.30268 0.12149 0.51854 0.0
O502 O 0.32529 0.14395 0.50007 0.0
O503 O 0.29768 0.12618 0.48138 0.0
H504 H 0.32324 0.09111 0.52077 0.0
H505 H 0.3355 0.08678 0.47056 0.0
H506 H 0.3263 0.06153 0.5236 0.0
H507 H 0.33818 0.05728 0.47422 0.0
H508 H 0.25341 0.1073 0.53792 0.0
H509 H 0.31246 0.10655 0.54496 0.0
H510 H 0.27076 0.12031 0.51734 0.0
H511 H 0.29439 0.09376 0.56502 0.0
H512 H 0.37368 0.0995 0.53844 0.0
H513 H 0.34753 0.13552 0.56548 0.0
H514 H 0.28741 0.06399 0.4641 0.0
H515 H 0.27832 0.05748 0.51506 0.0
H516 H 0.3342 0.17372 0.50673 0.0
H517 H 0.35131 0.12694 0.49222 0.0
H518 H 0.36238 0.18376 0.50581 0.0
H519 H 0.37911 0.13777 0.4916 0.0
H520 H 0.30035 0.1477 0.45801 0.0
H521 H 0.26693 0.1232 0.48919 0.0
H522 H 0.27747 0.16294 0.44621 0.0
H523 H 0.24465 0.13899 0.47698 0.0
H524 H 0.34047 0.11109 0.42865 0.0
H525 H 0.35009 0.16082 0.44104 0.0
H526 H 0.26239 0.16858 0.53464 0.0
H527 H 0.27768 0.19182 0.49054 0.0
Li528 Li 0.889 0.30716 0.49201 0.0
Li529 Li 0.87391 0.32581 0.51026 0.0
Li530 Li 0.86168 0.30119 0.49773 0.0
Li531 Li 0.86761 0.32374 0.4816 0.0
C532 C 0.89239 0.29586 0.52133 0.0
N533 N 0.91916 0.28263 0.5361 0.0
C534 C 0.90132 0.30491 0.53238 0.0
C535 C 0.89703 0.28002 0.51789 0.0
C536 C 0.91481 0.29801 0.53971 0.0
C537 C 0.91062 0.27358 0.52544 0.0
C538 C 0.8949 0.34078 0.4807 0.0
C539 C 0.90102 0.36723 0.47034 0.0
N540 N 0.90755 0.36039 0.45696 0.0
C541 C 0.90167 0.33401 0.46684 0.0
C542 C 0.89456 0.35752 0.48248 0.0
C543 C 0.908 0.34413 0.45498 0.0
C544 C 0.91343 0.28679 0.47848 0.0
N545 N 0.91024 0.29939 0.48845 0.0
C546 C 0.93812 0.30225 0.49478 0.0
C547 C 0.92219 0.30725 0.49638 0.0
C548 C 0.94182 0.28906 0.48482 0.0
C549 C 0.92924 0.28135 0.47653 0.0
H550 H 0.90375 0.281 0.47201 0.0
H551 H 0.9193 0.31743 0.50399 0.0
C552 C 0.86501 0.33397 0.54147 0.0
N553 N 0.87465 0.33857 0.52907 0.0
C554 C 0.86515 0.34255 0.55592 0.0
C555 C 0.88507 0.3605 0.54449 0.0
C556 C 0.88464 0.35148 0.53029 0.0
C557 C 0.87527 0.35601 0.55755 0.0
H558 H 0.85726 0.32359 0.5401 0.0
H559 H 0.89239 0.35465 0.52032 0.0
C560 C 0.86436 0.28775 0.47049 0.0
N561 N 0.8476 0.26093 0.45998 0.0
C562 C 0.85066 0.28953 0.46084 0.0
C563 C 0.8695 0.27229 0.4748 0.0
C564 C 0.84238 0.27583 0.45563 0.0
C565 C 0.86086 0.2589 0.46938 0.0
C566 C 0.8408 0.33405 0.49612 0.0
C567 C 0.83027 0.33095 0.48333 0.0
C568 C 0.83936 0.34842 0.50479 0.0
C569 C 0.81857 0.34237 0.47934 0.0
C570 C 0.82748 0.35952 0.50043 0.0
N571 N 0.81743 0.35629 0.4879 0.0
C572 C 0.85094 0.27258 0.51272 0.0
C573 C 0.83171 0.28509 0.49572 0.0
C574 C 0.84012 0.26024 0.51636 0.0
N575 N 0.84662 0.28458 0.50246 0.0
C576 C 0.82055 0.27297 0.49893 0.0
C577 C 0.82473 0.26033 0.50936 0.0
H578 H 0.86277 0.27258 0.51811 0.0
H579 H 0.8285 0.29486 0.48778 0.0
C580 C 0.86275 0.33065 0.44848 0.0
N581 N 0.862 0.33699 0.46357 0.0
C582 C 0.85949 0.34025 0.43507 0.0
C583 C 0.85536 0.3629 0.45292 0.0
C584 C 0.85856 0.35283 0.46598 0.0
C585 C 0.85581 0.35661 0.43722 0.0
H586 H 0.86628 0.31824 0.44682 0.0
H587 H 0.85862 0.35774 0.47803 0.0
O588 O 0.87935 0.30253 0.51373 0.0
O589 O 0.88813 0.33107 0.49218 0.0
O590 O 0.87247 0.30104 0.476 0.0
O591 O 0.85237 0.32304 0.50024 0.0
H592 H 0.89801 0.31718 0.53517 0.0
H593 H 0.89038 0.27286 0.50929 0.0
H594 H 0.92187 0.30491 0.54822 0.0
H595 H 0.91441 0.26139 0.52278 0.0
H596 H 0.90075 0.38021 0.47152 0.0
H597 H 0.90177 0.32109 0.46511 0.0
H598 H 0.8891 0.36299 0.49298 0.0
H599 H 0.9132 0.33906 0.44415 0.0
H600 H 0.94747 0.30882 0.50109 0.0
H601 H 0.93155 0.27116 0.46872 0.0
H602 H 0.8573 0.3388 0.56565 0.0
H603 H 0.89318 0.37069 0.54536 0.0
H604 H 0.84623 0.30135 0.45765 0.0
H605 H 0.87984 0.27063 0.48251 0.0
H606 H 0.83172 0.27706 0.44823 0.0
H607 H 0.86466 0.24689 0.47273 0.0
H608 H 0.83135 0.32004 0.47632 0.0
H609 H 0.84737 0.35103 0.51473 0.0
H610 H 0.81045 0.34019 0.46938 0.0
H611 H 0.82627 0.37071 0.50701 0.0
H612 H 0.84381 0.25066 0.52441 0.0
H613 H 0.80871 0.2736 0.49348 0.0
H614 H 0.86034 0.33507 0.42312 0.0
H615 H 0.85263 0.37547 0.45507 0.0
Li616 Li 0.69034 0.88982 0.49136 0.0
Li617 Li 0.67377 0.87169 0.50752 0.0
Li618 Li 0.69959 0.86284 0.4946 0.0
Li619 Li 0.67558 0.8672 0.47806 0.0
C620 C 0.70305 0.89125 0.52032 0.0
N621 N 0.71673 0.91674 0.53681 0.0
C622 C 0.69464 0.8987 0.53287 0.0
C623 C 0.71849 0.89663 0.51629 0.0
C624 C 0.70175 0.9116 0.54103 0.0
C625 C 0.72517 0.90958 0.52473 0.0
C626 C 0.65074 0.89043 0.49057 0.0
C627 C 0.62261 0.88367 0.48764 0.0
N628 N 0.61854 0.89895 0.49191 0.0
C629 C 0.64626 0.90615 0.49468 0.0
C630 C 0.6388 0.87916 0.48683 0.0
C631 C 0.62994 0.91019 0.49539 0.0
C632 C 0.70789 0.9159 0.47805 0.0
N633 N 0.69669 0.91166 0.4892 0.0
C634 C 0.69401 0.93896 0.4978 0.0
C635 C 0.68981 0.92276 0.49906 0.0
C636 C 0.70549 0.9438 0.48632 0.0
C637 C 0.71255 0.93199 0.47643 0.0
H638 H 0.71316 0.90682 0.47036 0.0
H639 H 0.68104 0.91901 0.50792 0.0
C640 C 0.66157 0.85498 0.53404 0.0
N641 N 0.66067 0.86927 0.52611 0.0
C642 C 0.65196 0.85211 0.54751 0.0
C643 C 0.64126 0.87908 0.54496 0.0
C644 C 0.65097 0.88135 0.53141 0.0
C645 C 0.64154 0.86422 0.55312 0.0
H646 H 0.66964 0.84569 0.52974 0.0
H647 H 0.65088 0.89279 0.52524 0.0
C648 C 0.71053 0.86913 0.46544 0.0
N649 N 0.73624 0.85644 0.44852 0.0
C650 C 0.70784 0.85827 0.45285 0.0
C651 C 0.72628 0.87366 0.46932 0.0
C652 C 0.72101 0.85197 0.44446 0.0
C653 C 0.73912 0.86707 0.46066 0.0
C654 C 0.66961 0.83758 0.49511 0.0
C655 C 0.67684 0.82288 0.49113 0.0
C656 C 0.65318 0.83797 0.4988 0.0
C657 C 0.66743 0.80893 0.49051 0.0
C658 C 0.64419 0.82377 0.49806 0.0
N659 N 0.65143 0.80966 0.49393 0.0
C660 C 0.7274 0.85241 0.51068 0.0
C661 C 0.72068 0.83683 0.48772 0.0
C662 C 0.74047 0.84241 0.51401 0.0
N663 N 0.71781 0.84943 0.49776 0.0
C664 C 0.73356 0.82644 0.49064 0.0
C665 C 0.74357 0.82908 0.50405 0.0
H666 H 0.72477 0.86242 0.51857 0.0
H667 H 0.71281 0.83468 0.47757 0.0
C668 C 0.65616 0.8729 0.45113 0.0
N669 N 0.66365 0.86098 0.4595 0.0
C670 C 0.64576 0.86912 0.43848 0.0
C671 C 0.65168 0.84092 0.4427 0.0
C672 C 0.66201 0.84526 0.45524 0.0
C673 C 0.64313 0.85291 0.43439 0.0
H674 H 0.65781 0.88533 0.4547 0.0
H675 H 0.66849 0.83604 0.4617 0.0
O676 O 0.69617 0.87879 0.512 0.0
O677 O 0.66671 0.8863 0.48984 0.0
O678 O 0.6978 0.8753 0.4739 0.0
O679 O 0.6787 0.85136 0.49577 0.0
H680 H 0.68272 0.89466 0.53619 0.0
H681 H 0.72517 0.89099 0.50663 0.0
H682 H 0.69534 0.91754 0.55071 0.0
H683 H 0.73705 0.91395 0.52164 0.0
H684 H 0.61327 0.87503 0.4848 0.0
H685 H 0.65527 0.91515 0.49736 0.0
H686 H 0.64195 0.86713 0.48308 0.0
H687 H 0.62634 0.92228 0.49867 0.0
H688 H 0.68803 0.94762 0.50551 0.0
H689 H 0.72158 0.93512 0.46755 0.0
H690 H 0.6525 0.84042 0.55327 0.0
H691 H 0.63373 0.88891 0.54906 0.0
H692 H 0.69574 0.85468 0.44964 0.0
H693 H 0.72858 0.88205 0.47902 0.0
H694 H 0.71911 0.8435 0.43473 0.0
H695 H 0.75137 0.87038 0.46361 0.0
H696 H 0.68955 0.82223 0.48846 0.0
H697 H 0.64745 0.84903 0.5025 0.0
H698 H 0.67287 0.79752 0.48732 0.0
H699 H 0.63146 0.82394 0.50087 0.0
H700 H 0.74799 0.84504 0.52434 0.0
H701 H 0.73533 0.81619 0.48276 0.0
H702 H 0.63932 0.87873 0.43244 0.0
H703 H 0.65021 0.8283 0.43971 0.0
Li704 Li 0.49934 0.14212 0.3027 0.0
Li705 Li 0.50948 0.13493 0.32902 0.0
Li706 Li 0.49503 0.11495 0.31226 0.0
Li707 Li 0.48007 0.13678 0.32578 0.0
C708 C 0.52779 0.12692 0.29671 0.0
N709 N 0.55197 0.12981 0.27398 0.0
C710 C 0.54151 0.13612 0.30003 0.0
C711 C 0.52651 0.11899 0.28191 0.0
C712 C 0.55356 0.13748 0.28837 0.0
C713 C 0.53882 0.12065 0.27055 0.0
C714 C 0.50358 0.16715 0.33101 0.0
C715 C 0.50337 0.18805 0.35125 0.0
N716 N 0.51834 0.1927 0.3465 0.0
C717 C 0.51897 0.17214 0.32637 0.0
C718 C 0.49571 0.17516 0.34359 0.0
C719 C 0.52623 0.18507 0.33434 0.0
C720 C 0.49029 0.1551 0.27263 0.0
N721 N 0.50243 0.15467 0.28363 0.0
C722 C 0.5187 0.17163 0.26699 0.0
C723 C 0.51639 0.16287 0.28113 0.0
C724 C 0.50647 0.17209 0.25531 0.0
C725 C 0.49207 0.16373 0.2583 0.0
H726 H 0.47918 0.14875 0.27497 0.0
H727 H 0.52578 0.16268 0.29005 0.0
C728 C 0.53941 0.12598 0.34073 0.0
N729 N 0.52717 0.13641 0.34378 0.0
C730 C 0.55352 0.1265 0.34981 0.0
C731 C 0.54187 0.14787 0.36578 0.0
C732 C 0.52795 0.14693 0.35634 0.0
C733 C 0.55501 0.13776 0.36235 0.0
H734 H 0.5383 0.11737 0.33101 0.0
H735 H 0.51791 0.15475 0.35897 0.0
C736 C 0.47005 0.12018 0.29265 0.0
N737 N 0.45276 0.10032 0.27226 0.0
C738 C 0.45406 0.11625 0.2962 0.0
C739 C 0.47714 0.11423 0.27859 0.0
C740 C 0.44555 0.10614 0.28578 0.0
C741 C 0.46824 0.10415 0.26847 0.0
C742 C 0.49023 0.11724 0.35161 0.0
C743 C 0.48819 0.10177 0.35793 0.0
C744 C 0.48917 0.13062 0.36177 0.0
C745 C 0.48522 0.09994 0.3744 0.0
C746 C 0.48621 0.12829 0.37817 0.0
N747 N 0.48431 0.11313 0.3841 0.0
C748 C 0.50544 0.0834 0.30302 0.0
C749 C 0.47871 0.08608 0.31272 0.0
C750 C 0.50391 0.06661 0.3027 0.0
N751 N 0.49296 0.09267 0.30816 0.0
C752 C 0.47661 0.06945 0.31246 0.0
C753 C 0.48946 0.05945 0.30786 0.0
H754 H 0.51681 0.08896 0.29991 0.0
H755 H 0.46918 0.09373 0.3172 0.0
C756 C 0.45331 0.15509 0.33862 0.0
N757 N 0.45983 0.14033 0.33577 0.0
C758 C 0.4384 0.15637 0.34641 0.0
C759 C 0.43698 0.12728 0.34736 0.0
C760 C 0.45199 0.12657 0.33994 0.0
C761 C 0.43009 0.1423 0.35077 0.0
H762 H 0.45961 0.16583 0.33482 0.0
H763 H 0.45743 0.11501 0.33739 0.0
O764 O 0.51585 0.12541 0.308 0.0
O765 O 0.49625 0.15452 0.32333 0.0
O766 O 0.47868 0.12988 0.30283 0.0
O767 O 0.49269 0.11924 0.33545 0.0
H768 H 0.54275 0.14237 0.3114 0.0
H769 H 0.51619 0.11153 0.27924 0.0
H770 H 0.56417 0.14468 0.29074 0.0
H771 H 0.53795 0.11463 0.25903 0.0
H772 H 0.49743 0.19431 0.36102 0.0
H773 H 0.52539 0.16589 0.31698 0.0
H774 H 0.48392 0.17137 0.34756 0.0
H775 H 0.53818 0.18898 0.3309 0.0
H776 H 0.52986 0.17819 0.26536 0.0
H777 H 0.48234 0.16375 0.24961 0.0
H778 H 0.56317 0.11817 0.34703 0.0
H779 H 0.54247 0.15668 0.37539 0.0
H780 H 0.44828 0.12093 0.30689 0.0
H781 H 0.48937 0.1174 0.27551 0.0
H782 H 0.4332 0.10293 0.28843 0.0
H783 H 0.47362 0.09939 0.25759 0.0
H784 H 0.48882 0.09131 0.35016 0.0
H785 H 0.49046 0.14266 0.35699 0.0
H786 H 0.48359 0.08804 0.37947 0.0
H787 H 0.48535 0.13854 0.38618 0.0
H788 H 0.51419 0.05934 0.29928 0.0
H789 H 0.46519 0.06447 0.31634 0.0
H790 H 0.43332 0.16815 0.34882 0.0
H791 H 0.43093 0.11619 0.35067 0.0
Li792 Li 0.87063 0.51444 0.32326 0.0
Li793 Li 0.86004 0.50254 0.29979 0.0
Li794 Li 0.86651 0.4854 0.32226 0.0
Li795 Li 0.88845 0.49907 0.30525 0.0
C796 C 0.83733 0.51265 0.32353 0.0
N797 N 0.81166 0.53345 0.32753 0.0
C798 C 0.83668 0.52705 0.31486 0.0
C799 C 0.82492 0.5088 0.33424 0.0
C800 C 0.82361 0.53741 0.31703 0.0
C801 C 0.81204 0.51948 0.3361 0.0
C802 C 0.8794 0.52985 0.28877 0.0
C803 C 0.89117 0.53654 0.26303 0.0
N804 N 0.88474 0.55157 0.26409 0.0
C805 C 0.87307 0.54544 0.28968 0.0
C806 C 0.88868 0.52542 0.27542 0.0
C807 C 0.87584 0.55621 0.27704 0.0
C808 C 0.88161 0.54446 0.33354 0.0
N809 N 0.87089 0.53262 0.33707 0.0
C810 C 0.86243 0.54653 0.36079 0.0
C811 C 0.86132 0.53339 0.35034 0.0
C812 C 0.87355 0.55888 0.35755 0.0
C813 C 0.88313 0.55778 0.34364 0.0
H814 H 0.88919 0.54339 0.32299 0.0
H815 H 0.85311 0.52363 0.353 0.0
C816 C 0.82905 0.49993 0.28588 0.0
N817 N 0.84441 0.50483 0.2829 0.0
C818 C 0.81706 0.502 0.27427 0.0
C819 C 0.83701 0.51355 0.25649 0.0
C820 C 0.8486 0.51115 0.26838 0.0
C821 C 0.82097 0.50917 0.25947 0.0
H822 H 0.82608 0.49448 0.29733 0.0
H823 H 0.86091 0.51422 0.2659 0.0
C824 C 0.89187 0.5029 0.34345 0.0
N825 N 0.90245 0.51576 0.37226 0.0
C826 C 0.90568 0.51251 0.34384 0.0
C827 C 0.88348 0.49975 0.3577 0.0
C828 C 0.91083 0.51893 0.35853 0.0
C829 C 0.88902 0.50637 0.37215 0.0
C830 C 0.86621 0.47532 0.28569 0.0
C831 C 0.85213 0.46614 0.2867 0.0
C832 C 0.87335 0.47806 0.27069 0.0
C833 C 0.84529 0.46002 0.27259 0.0
C834 C 0.86614 0.47172 0.25687 0.0
N835 N 0.85236 0.46293 0.2581 0.0
C836 C 0.84659 0.46131 0.33599 0.0
C837 C 0.87454 0.45937 0.34167 0.0
C838 C 0.84344 0.44778 0.34552 0.0
N839 N 0.86193 0.4668 0.33436 0.0
C840 C 0.87194 0.44592 0.35137 0.0
C841 C 0.85622 0.44004 0.35349 0.0
H842 H 0.83682 0.46754 0.33003 0.0
H843 H 0.8866 0.46402 0.34007 0.0
C844 C 0.91944 0.51022 0.29812 0.0
N845 N 0.90978 0.49702 0.29783 0.0
C846 C 0.93564 0.5089 0.29392 0.0
C847 C 0.93158 0.48045 0.28907 0.0
C848 C 0.91541 0.48234 0.29327 0.0
C849 C 0.94199 0.4938 0.2896 0.0
H850 H 0.91458 0.52171 0.30188 0.0
H851 H 0.90741 0.47205 0.29333 0.0
O852 O 0.85007 0.50236 0.32174 0.0
O853 O 0.87717 0.51928 0.30124 0.0
O854 O 0.88632 0.49697 0.32912 0.0
O855 O 0.87279 0.48185 0.29929 0.0
H856 H 0.84612 0.53014 0.30648 0.0
H857 H 0.82527 0.4977 0.34107 0.0
H858 H 0.82295 0.5486 0.31037 0.0
H859 H 0.80236 0.51668 0.34436 0.0
H860 H 0.8982 0.53321 0.25257 0.0
H861 H 0.8662 0.54925 0.30008 0.0
H862 H 0.89368 0.51344 0.27447 0.0
H863 H 0.87096 0.56829 0.27757 0.0
H864 H 0.85499 0.54679 0.37151 0.0
H865 H 0.89175 0.5671 0.34062 0.0
H866 H 0.80482 0.49837 0.27698 0.0
H867 H 0.84058 0.51869 0.24504 0.0
H868 H 0.91225 0.51514 0.33289 0.0
H869 H 0.87267 0.49245 0.35756 0.0
H870 H 0.92144 0.52648 0.359 0.0
H871 H 0.8826 0.50412 0.38327 0.0
H872 H 0.84645 0.46398 0.29824 0.0
H873 H 0.88426 0.48514 0.26974 0.0
H874 H 0.83431 0.45301 0.27316 0.0
H875 H 0.87146 0.47383 0.24516 0.0
H876 H 0.83114 0.44367 0.34696 0.0
H877 H 0.88214 0.44016 0.35713 0.0
H878 H 0.94316 0.51956 0.29427 0.0
H879 H 0.93599 0.46855 0.28603 0.0
Li880 Li 0.51391 0.86412 0.32007 0.0
Li881 Li 0.49825 0.88554 0.30768 0.0
Li882 Li 0.48526 0.86318 0.32203 0.0
Li883 Li 0.4976 0.85873 0.29603 0.0
C884 C 0.50803 0.88592 0.34348 0.0
N885 N 0.52565 0.89795 0.36908 0.0
C886 C 0.5152 0.90113 0.34246 0.0
C887 C 0.50966 0.87693 0.35764 0.0
C888 C 0.52408 0.90698 0.35551 0.0
C889 C 0.51867 0.88318 0.37041 0.0
C890 C 0.53009 0.86773 0.29058 0.0
C891 C 0.55286 0.87107 0.27283 0.0
N892 N 0.55752 0.85569 0.27604 0.0
C893 C 0.53512 0.85196 0.29372 0.0
C894 C 0.53905 0.87739 0.28009 0.0
C895 C 0.54902 0.8461 0.28625 0.0
C896 C 0.53562 0.84345 0.33592 0.0
N897 N 0.5332 0.85902 0.33152 0.0
C898 C 0.55643 0.86735 0.34633 0.0
C899 C 0.54368 0.87081 0.33592 0.0
C900 C 0.55874 0.85146 0.35183 0.0
C901 C 0.54844 0.83936 0.34596 0.0
H902 H 0.52742 0.8342 0.33186 0.0
H903 H 0.54174 0.88303 0.33189 0.0
C904 C 0.48147 0.91387 0.30856 0.0
N905 N 0.49605 0.90788 0.30424 0.0
C906 C 0.47892 0.93042 0.30894 0.0
C907 C 0.50633 0.93439 0.29985 0.0
C908 C 0.50832 0.91765 0.29952 0.0
C909 C 0.49159 0.94093 0.30508 0.0
H910 H 0.472 0.90574 0.31233 0.0
H911 H 0.51985 0.91248 0.29633 0.0
C912 C 0.49319 0.83247 0.32331 0.0
N913 N 0.479 0.8067 0.33894 0.0
C914 C 0.48554 0.82036 0.31446 0.0
C915 C 0.49387 0.8313 0.3401 0.0
C916 C 0.47838 0.80747 0.32258 0.0
C917 C 0.48655 0.81824 0.34778 0.0
C918 C 0.4729 0.87913 0.28715 0.0
C919 C 0.45625 0.88045 0.2851 0.0
C920 C 0.48325 0.88434 0.27492 0.0
C921 C 0.4502 0.88697 0.27081 0.0
C922 C 0.47673 0.89079 0.26081 0.0
N923 N 0.46048 0.89197 0.25906 0.0
C924 C 0.46646 0.86621 0.3497 0.0
C925 C 0.45606 0.84733 0.33095 0.0
C926 C 0.4537 0.8633 0.36018 0.0
N927 N 0.46747 0.85819 0.33548 0.0
C928 C 0.44308 0.84396 0.34115 0.0
C929 C 0.44178 0.85207 0.35595 0.0
H930 H 0.47551 0.87498 0.35289 0.0
H931 H 0.45704 0.84134 0.31942 0.0
C932 C 0.50586 0.84226 0.26615 0.0
N933 N 0.49425 0.84629 0.277 0.0
C934 C 0.50266 0.83086 0.25419 0.0
C935 C 0.47526 0.82914 0.26384 0.0
C936 C 0.47904 0.84038 0.27571 0.0
C937 C 0.48731 0.82375 0.25326 0.0
H938 H 0.51775 0.84737 0.26702 0.0
H939 H 0.47 0.84384 0.28444 0.0
O940 O 0.49934 0.87995 0.33078 0.0
O941 O 0.51679 0.87397 0.29805 0.0
O942 O 0.50008 0.84533 0.3156 0.0
O943 O 0.47894 0.87273 0.3011 0.0
H944 H 0.51404 0.90833 0.33168 0.0
H945 H 0.50409 0.86523 0.35877 0.0
H946 H 0.52976 0.91869 0.35482 0.0
H947 H 0.52012 0.87629 0.38138 0.0
H948 H 0.55989 0.87841 0.26467 0.0
H949 H 0.52827 0.84422 0.30163 0.0
H950 H 0.53536 0.88965 0.27761 0.0
H951 H 0.55301 0.8339 0.28852 0.0
H952 H 0.56393 0.87716 0.3505 0.0
H953 H 0.55002 0.82686 0.34932 0.0
H954 H 0.46728 0.93494 0.31273 0.0
H955 H 0.51643 0.94209 0.29689 0.0
H956 H 0.48517 0.82084 0.30146 0.0
H957 H 0.4999 0.84044 0.34713 0.0
H958 H 0.47235 0.79806 0.31587 0.0
H959 H 0.48687 0.81728 0.36078 0.0
H960 H 0.44809 0.87645 0.29447 0.0
H961 H 0.49617 0.88341 0.27626 0.0
H962 H 0.43733 0.88806 0.26906 0.0
H963 H 0.48459 0.89487 0.25125 0.0
H964 H 0.45325 0.86969 0.37156 0.0
H965 H 0.43404 0.83534 0.33738 0.0
H966 H 0.51236 0.8271 0.24631 0.0
H967 H 0.46314 0.82434 0.26333 0.0
Li968 Li 0.13314 0.50714 0.32576 0.0
Li969 Li 0.11394 0.49322 0.3092 0.0
Li970 Li 0.13477 0.47837 0.32293 0.0
Li971 Li 0.14114 0.49531 0.30045 0.0
C972 C 0.10435 0.49783 0.34071 0.0
N973 N 0.07857 0.51165 0.35662 0.0
C974 C 0.09962 0.51359 0.33708 0.0
C975 C 0.09599 0.48912 0.35244 0.0
C976 C 0.08655 0.52036 0.34525 0.0
C977 C 0.08298 0.49632 0.36035 0.0
C978 C 0.12101 0.51926 0.28935 0.0
C979 C 0.11171 0.51521 0.26211 0.0
N980 N 0.11152 0.53144 0.25985 0.0
C981 C 0.12072 0.53589 0.28676 0.0
C982 C 0.11647 0.50882 0.27693 0.0
C983 C 0.11588 0.54182 0.27176 0.0
C984 C 0.14339 0.53837 0.3335 0.0
N985 N 0.13701 0.52472 0.33988 0.0
C986 C 0.13722 0.53622 0.36625 0.0
C987 C 0.1339 0.5234 0.35591 0.0
C988 C 0.14381 0.55052 0.36004 0.0
C989 C 0.14689 0.55151 0.34341 0.0
H990 H 0.1458 0.53901 0.32071 0.0
H991 H 0.12896 0.51235 0.3607 0.0
C992 C 0.08557 0.47768 0.29963 0.0
N993 N 0.09212 0.49239 0.30256 0.0
C994 C 0.06946 0.47636 0.29502 0.0
C995 C 0.06719 0.50537 0.29653 0.0
C996 C 0.08336 0.50614 0.30099 0.0
C997 C 0.06003 0.49033 0.29357 0.0
H998 H 0.09286 0.46696 0.30105 0.0
H999 H 0.08889 0.51769 0.30331 0.0
C1000 C 0.16232 0.49402 0.33467 0.0
N1001 N 0.18174 0.49401 0.3617 0.0
C1002 C 0.17868 0.4977 0.33332 0.0
C1003 C 0.15582 0.49035 0.34977 0.0
C1004 C 0.18831 0.49763 0.34713 0.0
C1005 C 0.16584 0.49041 0.36329 0.0
C1006 C 0.13556 0.4629 0.29373 0.0
C1007 C 0.1522 0.46133 0.2959 0.0
C1008 C 0.12722 0.45133 0.28479 0.0
C1009 C 0.1602 0.44819 0.28908 0.0
C1010 C 0.13565 0.43837 0.27815 0.0
N1011 N 0.15183 0.43708 0.28042 0.0
C1012 C 0.12587 0.4505 0.33901 0.0
C1013 C 0.15418 0.4531 0.33631 0.0
C1014 C 0.12772 0.43631 0.34781 0.0
N1015 N 0.13899 0.45866 0.33369 0.0
C1016 C 0.1566 0.43902 0.34519 0.0
C1017 C 0.14326 0.43054 0.35126 0.0
H1018 H 0.11394 0.45514 0.33655 0.0
H1019 H 0.16442 0.45975 0.33179 0.0
C1020 C 0.16626 0.51004 0.28387 0.0
N1021 N 0.15455 0.49871 0.28235 0.0
C1022 C 0.1763 0.5136 0.27087 0.0
C1023 C 0.16206 0.49368 0.25504 0.0
C1024 C 0.15215 0.49067 0.26827 0.0
C1025 C 0.17427 0.5053 0.25628 0.0
H1026 H 0.16771 0.51634 0.29519 0.0
H1027 H 0.14248 0.48202 0.26723 0.0
O1028 O 0.11704 0.49084 0.33284 0.0
O1029 O 0.12581 0.51336 0.30398 0.0
O1030 O 0.15278 0.4942 0.32122 0.0
O1031 O 0.12736 0.4756 0.30033 0.0
H1032 H 0.10593 0.52054 0.32806 0.0
H1033 H 0.09951 0.47691 0.35539 0.0
H1034 H 0.08276 0.53253 0.34255 0.0
H1035 H 0.07639 0.48971 0.36944 0.0
H1036 H 0.10818 0.50726 0.2524 0.0
H1037 H 0.1242 0.54413 0.29625 0.0
H1038 H 0.11659 0.49592 0.27868 0.0
H1039 H 0.1156 0.55466 0.26959 0.0
H1040 H 0.13487 0.53484 0.37902 0.0
H1041 H 0.15179 0.56237 0.33809 0.0
H1042 H 0.06432 0.46453 0.29303 0.0
H1043 H 0.06036 0.51643 0.29538 0.0
H1044 H 0.18388 0.5006 0.32171 0.0
H1045 H 0.14319 0.48745 0.35107 0.0
H1046 H 0.201 0.50045 0.34626 0.0
H1047 H 0.16097 0.48758 0.37505 0.0
H1048 H 0.15891 0.47016 0.3027 0.0
H1049 H 0.11434 0.45238 0.28298 0.0
H1050 H 0.17306 0.44684 0.29066 0.0
H1051 H 0.12934 0.42933 0.2712 0.0
H1052 H 0.11707 0.43 0.35193 0.0
H1053 H 0.1688 0.43512 0.34765 0.0
H1054 H 0.18566 0.52258 0.27226 0.0
H1055 H 0.16005 0.48719 0.2439 0.0
Li1056 Li 0.48389 0.86609 0.67411 0.0
Li1057 Li 0.50123 0.88307 0.6894 0.0
Li1058 Li 0.5127 0.86374 0.66948 0.0
Li1059 Li 0.49965 0.8543 0.6952 0.0
C1060 C 0.4907 0.89608 0.66043 0.0
N1061 N 0.47468 0.9235 0.65042 0.0
C1062 C 0.47687 0.90126 0.66855 0.0
C1063 C 0.49633 0.90482 0.64719 0.0
C1064 C 0.46896 0.91516 0.66331 0.0
C1065 C 0.48807 0.91866 0.64232 0.0
C1066 C 0.47837 0.87562 0.71277 0.0
C1067 C 0.48495 0.87817 0.74096 0.0
N1068 N 0.47076 0.88596 0.7435 0.0
C1069 C 0.46383 0.88363 0.71566 0.0
C1070 C 0.48901 0.87286 0.72551 0.0
C1071 C 0.46022 0.88877 0.73128 0.0
C1072 C 0.4498 0.86631 0.6708 0.0
N1073 N 0.46404 0.8654 0.66276 0.0
C1074 C 0.45049 0.86561 0.6374 0.0
C1075 C 0.46465 0.86501 0.64641 0.0
C1076 C 0.43563 0.867 0.64534 0.0
C1077 C 0.43534 0.86727 0.66225 0.0
H1078 H 0.44972 0.86665 0.68382 0.0
H1079 H 0.4762 0.86456 0.64037 0.0
C1080 C 0.5208 0.90927 0.6935 0.0
N1081 N 0.50558 0.90424 0.69672 0.0
C1082 C 0.52483 0.92548 0.69489 0.0
C1083 C 0.49755 0.93105 0.70347 0.0
C1084 C 0.49408 0.91462 0.70206 0.0
C1085 C 0.51296 0.9367 0.69928 0.0
H1086 H 0.52959 0.9008 0.68895 0.0
H1087 H 0.48195 0.91039 0.70415 0.0
C1088 C 0.48706 0.83587 0.66514 0.0
N1089 N 0.4657 0.81604 0.64912 0.0
C1090 C 0.47403 0.82911 0.67338 0.0
C1091 C 0.48934 0.83246 0.64881 0.0
C1092 C 0.46333 0.81914 0.66504 0.0
C1093 C 0.47837 0.82242 0.64091 0.0
C1094 C 0.53231 0.86711 0.70177 0.0
C1095 C 0.54565 0.85793 0.69715 0.0
C1096 C 0.5328 0.87581 0.71619 0.0
C1097 C 0.55911 0.85727 0.70723 0.0
C1098 C 0.54649 0.87486 0.72593 0.0
N1099 N 0.55924 0.86567 0.7213 0.0
C1100 C 0.53609 0.87388 0.64782 0.0
C1101 C 0.53606 0.84568 0.65248 0.0
C1102 C 0.54927 0.87247 0.63751 0.0
N1103 N 0.52982 0.8606 0.65501 0.0
C1104 C 0.54938 0.84372 0.64239 0.0
C1105 C 0.55614 0.85725 0.63479 0.0
H1106 H 0.53099 0.8856 0.65031 0.0
H1107 H 0.53083 0.83537 0.65851 0.0
C1108 C 0.48836 0.83258 0.71927 0.0
N1109 N 0.50123 0.83726 0.7103 0.0
C1110 C 0.48947 0.81906 0.72923 0.0
C1111 C 0.51703 0.81552 0.72052 0.0
C1112 C 0.51534 0.82899 0.71066 0.0
C1113 C 0.50394 0.81025 0.72985 0.0
H1114 H 0.47712 0.83912 0.71839 0.0
H1115 H 0.52517 0.83262 0.70297 0.0
O1116 O 0.49873 0.88255 0.66537 0.0
O1117 O 0.48212 0.87072 0.69747 0.0
O1118 O 0.49744 0.84595 0.67299 0.0
O1119 O 0.51912 0.86803 0.6919 0.0
H1120 H 0.47232 0.89468 0.67881 0.0
H1121 H 0.50697 0.90095 0.64072 0.0
H1122 H 0.45827 0.91931 0.66951 0.0
H1123 H 0.49232 0.92555 0.6321 0.0
H1124 H 0.49309 0.8761 0.75093 0.0
H1125 H 0.4555 0.88598 0.70592 0.0
H1126 H 0.50024 0.86662 0.72354 0.0
H1127 H 0.44904 0.89503 0.73368 0.0
H1128 H 0.45118 0.86559 0.62436 0.0
H1129 H 0.42406 0.86831 0.66874 0.0
H1130 H 0.53691 0.9293 0.69176 0.0
H1131 H 0.488 0.93932 0.70672 0.0
H1132 H 0.47209 0.83171 0.68601 0.0
H1133 H 0.49937 0.83765 0.64229 0.0
H1134 H 0.45311 0.81391 0.67122 0.0
H1135 H 0.47992 0.81974 0.62825 0.0
H1136 H 0.54556 0.85127 0.68595 0.0
H1137 H 0.52281 0.88337 0.71976 0.0
H1138 H 0.56946 0.85011 0.70386 0.0
H1139 H 0.54701 0.8815 0.73714 0.0
H1140 H 0.55429 0.88321 0.63204 0.0
H1141 H 0.55432 0.83179 0.64051 0.0
H1142 H 0.47897 0.81528 0.73599 0.0
H1143 H 0.52847 0.80924 0.72071 0.0
Li1144 Li 0.12742 0.51506 0.67271 0.0
Li1145 Li 0.13695 0.49603 0.69353 0.0
Li1146 Li 0.12248 0.48644 0.67068 0.0
Li1147 Li 0.10828 0.5007 0.69107 0.0
C1148 C 0.1524 0.48687 0.66217 0.0
N1149 N 0.16901 0.46406 0.64451 0.0
C1150 C 0.15926 0.47356 0.66987 0.0
C1151 C 0.15396 0.48857 0.64549 0.0
C1152 C 0.16763 0.46217 0.66073 0.0
C1153 C 0.1624 0.4769 0.63677 0.0
C1154 C 0.13388 0.52643 0.70645 0.0
C1155 C 0.13962 0.53719 0.73285 0.0
N1156 N 0.15257 0.54513 0.72672 0.0
C1157 C 0.14712 0.53487 0.70039 0.0
C1158 C 0.12998 0.52773 0.7228 0.0
C1159 C 0.15647 0.54419 0.71083 0.0
C1160 C 0.12202 0.54712 0.66207 0.0
N1161 N 0.13205 0.5342 0.66127 0.0
C1162 C 0.14972 0.54821 0.64345 0.0
C1163 C 0.14576 0.53456 0.65236 0.0
C1164 C 0.13959 0.56178 0.64387 0.0
C1165 C 0.12561 0.56114 0.65345 0.0
H1166 H 0.11126 0.5465 0.6694 0.0
H1167 H 0.15362 0.52419 0.65215 0.0
C1168 C 0.1552 0.48628 0.72206 0.0
N1169 N 0.15516 0.49404 0.70762 0.0
C1170 C 0.16828 0.48787 0.73251 0.0
C1171 C 0.1815 0.50454 0.71265 0.0
C1172 C 0.16823 0.50253 0.70257 0.0
C1173 C 0.18142 0.49752 0.72802 0.0
H1174 H 0.14501 0.47923 0.72582 0.0
H1175 H 0.16804 0.50836 0.69092 0.0
C1176 C 0.09215 0.49945 0.66209 0.0
N1177 N 0.06185 0.49019 0.65189 0.0
C1178 C 0.08606 0.48432 0.6663 0.0
C1179 C 0.08284 0.50987 0.65271 0.0
C1180 C 0.07072 0.47986 0.66102 0.0
C1181 C 0.06755 0.50496 0.64767 0.0
C1182 C 0.11752 0.47305 0.70844 0.0
C1183 C 0.11883 0.45644 0.71086 0.0
C1184 C 0.11386 0.48308 0.72146 0.0
C1185 C 0.11651 0.45015 0.7263 0.0
C1186 C 0.11155 0.47633 0.73671 0.0
N1187 N 0.11293 0.46014 0.7388 0.0
C1188 C 0.12269 0.45431 0.65823 0.0
C1189 C 0.11638 0.47511 0.63967 0.0
C1190 C 0.12056 0.44265 0.64626 0.0
N1191 N 0.12046 0.47015 0.65472 0.0
C1192 C 0.11402 0.46389 0.62742 0.0
C1193 C 0.11597 0.44742 0.63067 0.0
H1194 H 0.12599 0.45076 0.67032 0.0
H1195 H 0.11488 0.48782 0.63722 0.0
C1196 C 0.08131 0.51828 0.70143 0.0
N1197 N 0.08771 0.50321 0.70092 0.0
C1198 C 0.06558 0.5206 0.70694 0.0
C1199 C 0.06359 0.49193 0.71182 0.0
C1200 C 0.07918 0.49012 0.70587 0.0
C1201 C 0.05658 0.50729 0.71218 0.0
H1202 H 0.08827 0.5284 0.69709 0.0
H1203 H 0.08428 0.47819 0.70476 0.0
O1204 O 0.1437 0.49785 0.67087 0.0
O1205 O 0.12477 0.51696 0.69646 0.0
O1206 O 0.10705 0.50421 0.6673 0.0
O1207 O 0.11943 0.47928 0.69329 0.0
H1208 H 0.15795 0.47191 0.68274 0.0
H1209 H 0.14846 0.49863 0.63928 0.0
H1210 H 0.17295 0.45178 0.66652 0.0
H1211 H 0.16362 0.47801 0.62384 0.0
H1212 H 0.13679 0.53824 0.74553 0.0
H1213 H 0.15039 0.53398 0.68782 0.0
H1214 H 0.1196 0.52159 0.72771 0.0
H1215 H 0.16687 0.55063 0.70631 0.0
H1216 H 0.16046 0.54796 0.63605 0.0
H1217 H 0.11755 0.57136 0.65433 0.0
H1218 H 0.16777 0.48222 0.74426 0.0
H1219 H 0.19154 0.51181 0.7086 0.0
H1220 H 0.09305 0.47613 0.67364 0.0
H1221 H 0.08738 0.52165 0.64941 0.0
H1222 H 0.06584 0.4682 0.66422 0.0
H1223 H 0.0602 0.51291 0.64041 0.0
H1224 H 0.12159 0.44849 0.70089 0.0
H1225 H 0.11283 0.49592 0.71982 0.0
H1226 H 0.1175 0.43732 0.72834 0.0
H1227 H 0.10871 0.48397 0.74688 0.0
H1228 H 0.12213 0.43004 0.64925 0.0
H1229 H 0.11077 0.46808 0.61549 0.0
H1230 H 0.06041 0.53258 0.70692 0.0
H1231 H 0.05682 0.48137 0.71543 0.0
Li1232 Li 0.49576 0.13621 0.70098 0.0
Li1233 Li 0.4845 0.12741 0.67668 0.0
Li1234 Li 0.50207 0.10974 0.69204 0.0
Li1235 Li 0.51346 0.13306 0.67653 0.0
C1236 C 0.47139 0.1204 0.71137 0.0
N1237 N 0.45334 0.12673 0.73862 0.0
C1238 C 0.4579 0.13043 0.71043 0.0
C1239 C 0.47562 0.11346 0.72612 0.0
C1240 C 0.44895 0.13351 0.72436 0.0
C1241 C 0.46636 0.11684 0.73977 0.0
C1242 C 0.48795 0.15876 0.66973 0.0
C1243 C 0.48854 0.17549 0.64595 0.0
N1244 N 0.47287 0.17954 0.64849 0.0
C1245 C 0.47186 0.16315 0.67213 0.0
C1246 C 0.49638 0.16502 0.65655 0.0
C1247 C 0.46445 0.17364 0.66125 0.0
C1248 C 0.50031 0.1464 0.73349 0.0
N1249 N 0.49236 0.14934 0.71948 0.0
C1250 C 0.47826 0.17136 0.73144 0.0
C1251 C 0.4816 0.1616 0.71821 0.0
C1252 C 0.4862 0.16858 0.7461 0.0
C1253 C 0.49742 0.15595 0.74705 0.0
H1254 H 0.50886 0.13662 0.73417 0.0
H1255 H 0.47554 0.16376 0.70694 0.0
C1256 C 0.4534 0.11754 0.66761 0.0
N1257 N 0.46616 0.12658 0.66273 0.0
C1258 C 0.4405 0.11477 0.6572 0.0
C1259 C 0.45393 0.13093 0.63703 0.0
C1260 C 0.46666 0.1332 0.64774 0.0
C1261 C 0.44075 0.12142 0.64166 0.0
H1262 H 0.45352 0.11198 0.67938 0.0
H1263 H 0.47721 0.13972 0.64383 0.0
C1264 C 0.52965 0.11796 0.70663 0.0
N1265 N 0.55379 0.09996 0.72085 0.0
C1266 C 0.54504 0.11751 0.69979 0.0
C1267 C 0.5266 0.10937 0.7208 0.0
C1268 C 0.55707 0.10831 0.70714 0.0
C1269 C 0.53894 0.1003 0.72777 0.0
C1270 C 0.49553 0.10526 0.65636 0.0
C1271 C 0.48578 0.09197 0.65981 0.0
C1272 C 0.49753 0.11018 0.64037 0.0
C1273 C 0.47819 0.08381 0.6472 0.0
C1274 C 0.48975 0.10169 0.62809 0.0
N1275 N 0.48032 0.0888 0.63173 0.0
C1276 C 0.49597 0.07774 0.70316 0.0
C1277 C 0.52119 0.08238 0.6906 0.0
C1278 C 0.49904 0.06119 0.70379 0.0
N1279 N 0.50693 0.08787 0.69643 0.0
C1280 C 0.52491 0.06605 0.69132 0.0
C1281 C 0.51356 0.0551 0.69748 0.0
H1282 H 0.48451 0.0824 0.70726 0.0
H1283 H 0.52947 0.09063 0.68487 0.0
C1284 C 0.53996 0.15317 0.66697 0.0
N1285 N 0.5317 0.13926 0.66435 0.0
C1286 C 0.55362 0.15673 0.65773 0.0
C1287 C 0.54981 0.13163 0.6434 0.0
C1288 C 0.53649 0.12846 0.65304 0.0
C1289 C 0.55853 0.14591 0.64567 0.0
H1290 H 0.53599 0.16142 0.67625 0.0
H1291 H 0.53007 0.11723 0.65163 0.0
O1292 O 0.48057 0.11761 0.69797 0.0
O1293 O 0.49553 0.14863 0.68032 0.0
O1294 O 0.51769 0.1268 0.69952 0.0
O1295 O 0.50261 0.11373 0.66862 0.0
H1296 H 0.45449 0.13594 0.69913 0.0
H1297 H 0.48601 0.10566 0.72705 0.0
H1298 H 0.43855 0.14134 0.72384 0.0
H1299 H 0.46956 0.11164 0.75128 0.0
H1300 H 0.49492 0.18038 0.63569 0.0
H1301 H 0.46501 0.15823 0.68205 0.0
H1302 H 0.50882 0.16179 0.65447 0.0
H1303 H 0.45197 0.17701 0.6629 0.0
H1304 H 0.46975 0.18116 0.73012 0.0
H1305 H 0.50377 0.15341 0.75816 0.0
H1306 H 0.43054 0.10732 0.66117 0.0
H1307 H 0.4547 0.13596 0.62501 0.0
H1308 H 0.54767 0.12413 0.68888 0.0
H1309 H 0.51476 0.10949 0.72622 0.0
H1310 H 0.569 0.10781 0.70193 0.0
H1311 H 0.5367 0.0935 0.73866 0.0
H1312 H 0.48384 0.08817 0.67212 0.0
H1313 H 0.50474 0.12065 0.63748 0.0
H1314 H 0.47054 0.07357 0.64971 0.0
H1315 H 0.49112 0.10542 0.61568 0.0
H1316 H 0.48979 0.05323 0.7084 0.0
H1317 H 0.53639 0.06203 0.68661 0.0
H1318 H 0.56017 0.16781 0.65985 0.0
H1319 H 0.55348 0.12284 0.63447 0.0
Li1320 Li 0.86645 0.51168 0.67397 0.0
Li1321 Li 0.88676 0.50017 0.69308 0.0
Li1322 Li 0.87022 0.48201 0.67667 0.0
Li1323 Li 0.85886 0.49678 0.69822 0.0
C1324 C 0.89487 0.49021 0.65839 0.0
N1325 N 0.91166 0.47117 0.63685 0.0
C1326 C 0.90882 0.48216 0.66331 0.0
C1327 C 0.88948 0.48862 0.64251 0.0
C1328 C 0.91715 0.47261 0.65223 0.0
C1329 C 0.89812 0.47891 0.63181 0.0
C1330 C 0.87805 0.52912 0.70503 0.0
C1331 C 0.88889 0.53961 0.72985 0.0
N1332 N 0.89415 0.5529 0.72183 0.0
C1333 C 0.88343 0.54293 0.69704 0.0
C1334 C 0.88066 0.52748 0.72157 0.0
C1335 C 0.8916 0.5548 0.70575 0.0
C1336 C 0.84969 0.5395 0.66503 0.0
N1337 N 0.86158 0.52923 0.66044 0.0
C1338 C 0.86697 0.54494 0.63698 0.0
C1339 C 0.87026 0.53169 0.64679 0.0
C1340 C 0.85471 0.55577 0.64136 0.0
C1341 C 0.84601 0.55293 0.6556 0.0
H1342 H 0.84321 0.53734 0.67612 0.0
H1343 H 0.87989 0.52352 0.64365 0.0
C1344 C 0.91418 0.49271 0.71177 0.0
N1345 N 0.90763 0.50372 0.70159 0.0
C1346 C 0.93002 0.4945 0.71713 0.0
C1347 C 0.93192 0.51914 0.70171 0.0
C1348 C 0.91613 0.51673 0.69647 0.0
C1349 C 0.93919 0.5078 0.71199 0.0
H1350 H 0.90729 0.48225 0.71531 0.0
H1351 H 0.91076 0.52507 0.68804 0.0
C1352 C 0.83465 0.48983 0.67899 0.0
N1353 N 0.80358 0.48084 0.68683 0.0
C1354 C 0.83096 0.47361 0.68165 0.0
C1355 C 0.82254 0.50145 0.6802 0.0
C1356 C 0.81517 0.46931 0.6856 0.0
C1357 C 0.80691 0.49667 0.68424 0.0
C1358 C 0.87227 0.47073 0.71252 0.0
C1359 C 0.86593 0.45528 0.71032 0.0
C1360 C 0.87498 0.4765 0.7281 0.0
C1361 C 0.8622 0.44592 0.72381 0.0
C1362 C 0.87106 0.46679 0.74128 0.0
N1363 N 0.8648 0.45183 0.73888 0.0
C1364 C 0.88119 0.4509 0.6682 0.0
C1365 C 0.86068 0.46162 0.65143 0.0
C1366 C 0.88218 0.4371 0.65864 0.0
N1367 N 0.87057 0.46277 0.66442 0.0
C1368 C 0.86133 0.4481 0.64149 0.0
C1369 C 0.87224 0.43565 0.64501 0.0
H1370 H 0.88906 0.45229 0.6785 0.0
H1371 H 0.85248 0.47136 0.64867 0.0
C1372 C 0.83704 0.51268 0.7178 0.0
N1373 N 0.84234 0.49759 0.71425 0.0
C1374 C 0.82375 0.51488 0.72781 0.0
C1375 C 0.82185 0.48597 0.73081 0.0
C1376 C 0.83501 0.48432 0.72048 0.0
C1377 C 0.81597 0.5014 0.73435 0.0
H1378 H 0.84279 0.52303 0.71237 0.0
H1379 H 0.83887 0.47244 0.71697 0.0
O1380 O 0.88625 0.49916 0.66921 0.0
O1381 O 0.87014 0.51731 0.6967 0.0
O1382 O 0.85013 0.49432 0.67557 0.0
O1383 O 0.87619 0.47997 0.69946 0.0
H1384 H 0.91308 0.48313 0.67559 0.0
H1385 H 0.87855 0.49454 0.63858 0.0
H1386 H 0.92793 0.46626 0.65588 0.0
H1387 H 0.89401 0.47746 0.61953 0.0
H1388 H 0.89107 0.53847 0.74265 0.0
H1389 H 0.88147 0.54439 0.68424 0.0
H1390 H 0.87638 0.51695 0.72795 0.0
H1391 H 0.89593 0.56551 0.69972 0.0
H1392 H 0.87418 0.54686 0.62628 0.0
H1393 H 0.83644 0.56095 0.65938 0.0
H1394 H 0.93517 0.48523 0.72472 0.0
H1395 H 0.93841 0.52965 0.69754 0.0
H1396 H 0.84022 0.46448 0.68093 0.0
H1397 H 0.82521 0.51405 0.67824 0.0
H1398 H 0.81216 0.45682 0.68779 0.0
H1399 H 0.79744 0.50555 0.68535 0.0
H1400 H 0.86375 0.45062 0.69835 0.0
H1401 H 0.88003 0.48835 0.73 0.0
H1402 H 0.8572 0.43398 0.7223 0.0
H1403 H 0.87301 0.47113 0.75341 0.0
H1404 H 0.89088 0.42785 0.66164 0.0
H1405 H 0.85337 0.44737 0.63118 0.0
H1406 H 0.81949 0.52696 0.73029 0.0
H1407 H 0.81592 0.47531 0.73545 0.0
Li1408 Li 0.32415 0.50958 0.12995 0.0
Li1409 Li 0.29881 0.4981 0.13628 0.0
Li1410 Li 0.32171 0.48052 0.13068 0.0
Li1411 Li 0.30799 0.49734 0.10878 0.0
C1412 C 0.32794 0.4954 0.1622 0.0
N1413 N 0.34632 0.49471 0.18997 0.0
C1414 C 0.32185 0.50176 0.17656 0.0
C1415 C 0.34338 0.48865 0.16199 0.0
C1416 C 0.33134 0.50133 0.19046 0.0
C1417 C 0.35248 0.48842 0.17614 0.0
C1418 C 0.29853 0.53087 0.1285 0.0
C1419 C 0.28743 0.55763 0.12622 0.0
N1420 N 0.29004 0.56 0.14222 0.0
C1421 C 0.30115 0.5336 0.14492 0.0
C1422 C 0.29165 0.54299 0.11905 0.0
C1423 C 0.29676 0.54839 0.15163 0.0
C1424 C 0.33815 0.53919 0.12187 0.0
N1425 N 0.33814 0.52769 0.13356 0.0
C1426 C 0.35705 0.54287 0.14909 0.0
C1427 C 0.34731 0.52934 0.14704 0.0
C1428 C 0.35744 0.55479 0.13713 0.0
C1429 C 0.34788 0.55283 0.12333 0.0
H1430 H 0.33056 0.53775 0.11137 0.0
H1431 H 0.34713 0.52029 0.15628 0.0
C1432 C 0.27983 0.4924 0.16364 0.0
N1433 N 0.28016 0.50014 0.14924 0.0
C1434 C 0.2668 0.49446 0.17403 0.0
C1435 C 0.25457 0.51219 0.15438 0.0
C1436 C 0.26776 0.50964 0.1443 0.0
C1437 C 0.2541 0.50468 0.16953 0.0
H1438 H 0.28983 0.48481 0.16714 0.0
H1439 H 0.26824 0.51542 0.13264 0.0
C1440 C 0.34506 0.50133 0.10766 0.0
N1441 N 0.37244 0.51706 0.09713 0.0
C1442 C 0.34447 0.5111 0.09395 0.0
C1443 C 0.35962 0.49943 0.11591 0.0
C1444 C 0.35844 0.51898 0.08884 0.0
C1445 C 0.37331 0.50753 0.11043 0.0
C1446 C 0.28447 0.47285 0.12485 0.0
C1447 C 0.2825 0.46113 0.13677 0.0
C1448 C 0.271 0.47879 0.11667 0.0
C1449 C 0.26702 0.45563 0.14042 0.0
C1450 C 0.25572 0.47298 0.12068 0.0
N1451 N 0.25406 0.46163 0.13238 0.0
C1452 C 0.32888 0.45257 0.14895 0.0
C1453 C 0.34488 0.45665 0.12563 0.0
C1454 C 0.33811 0.43918 0.15329 0.0
N1455 N 0.33252 0.46103 0.1354 0.0
C1456 C 0.3545 0.44347 0.12958 0.0
C1457 C 0.35129 0.4346 0.14367 0.0
H1458 H 0.31913 0.45653 0.15663 0.0
H1459 H 0.34759 0.46375 0.11505 0.0
C1460 C 0.28881 0.50764 0.08313 0.0
N1461 N 0.30152 0.49812 0.08702 0.0
C1462 C 0.2838 0.50893 0.06714 0.0
C1463 C 0.30503 0.49048 0.05952 0.0
C1464 C 0.30957 0.48948 0.07569 0.0
C1465 C 0.29203 0.5004 0.05505 0.0
H1466 H 0.28258 0.51426 0.09247 0.0
H1467 H 0.31968 0.48204 0.0792 0.0
O1468 O 0.31866 0.49553 0.14856 0.0
O1469 O 0.30282 0.51653 0.12158 0.0
O1470 O 0.33142 0.49382 0.11306 0.0
O1471 O 0.29946 0.47878 0.12146 0.0
H1472 H 0.30993 0.50702 0.17698 0.0
H1473 H 0.34838 0.4838 0.15101 0.0
H1474 H 0.32678 0.50623 0.20164 0.0
H1475 H 0.36445 0.48327 0.17613 0.0
H1476 H 0.28208 0.56711 0.11905 0.0
H1477 H 0.30653 0.52443 0.15241 0.0
H1478 H 0.28963 0.54112 0.10631 0.0
H1479 H 0.29871 0.55064 0.16433 0.0
H1480 H 0.36436 0.5439 0.15986 0.0
H1481 H 0.34774 0.56185 0.1139 0.0
H1482 H 0.2669 0.48854 0.18566 0.0
H1483 H 0.24488 0.51999 0.15043 0.0
H1484 H 0.33329 0.5128 0.08748 0.0
H1485 H 0.36032 0.49188 0.12649 0.0
H1486 H 0.35813 0.52668 0.07832 0.0
H1487 H 0.38463 0.50625 0.11676 0.0
H1488 H 0.29279 0.45645 0.14323 0.0
H1489 H 0.27231 0.48793 0.10748 0.0
H1490 H 0.2653 0.44662 0.14969 0.0
H1491 H 0.24518 0.47754 0.11453 0.0
H1492 H 0.33509 0.43264 0.16417 0.0
H1493 H 0.3647 0.44066 0.12195 0.0
H1494 H 0.27358 0.51653 0.06429 0.0
H1495 H 0.31187 0.48387 0.05059 0.0
Li1496 Li 0.32119 0.51097 0.86896 0.0
Li1497 Li 0.30271 0.49461 0.8849 0.0
Li1498 Li 0.32237 0.48203 0.86717 0.0
Li1499 Li 0.29919 0.49623 0.8564 0.0
C1500 C 0.3371 0.50438 0.89503 0.0
N1501 N 0.35803 0.52417 0.91179 0.0
C1502 C 0.3317 0.51304 0.90845 0.0
C1503 C 0.35316 0.50585 0.89013 0.0
C1504 C 0.34247 0.52294 0.91678 0.0
C1505 C 0.36354 0.51591 0.89876 0.0
C1506 C 0.28654 0.5235 0.86515 0.0
C1507 C 0.25889 0.52903 0.85809 0.0
N1508 N 0.26383 0.54178 0.84906 0.0
C1509 C 0.29134 0.53666 0.8558 0.0
C1510 C 0.27018 0.51965 0.86633 0.0
C1511 C 0.27967 0.54576 0.84778 0.0
C1512 C 0.34656 0.53278 0.86073 0.0
N1513 N 0.33297 0.53058 0.86957 0.0
C1514 C 0.3367 0.55586 0.88277 0.0
C1515 C 0.32777 0.54188 0.88022 0.0
C1516 C 0.35118 0.55821 0.87433 0.0
C1517 C 0.35595 0.54656 0.86298 0.0
H1518 H 0.3504 0.52362 0.85233 0.0
H1519 H 0.31687 0.53978 0.88706 0.0
C1520 C 0.30087 0.48412 0.91681 0.0
N1521 N 0.29319 0.4933 0.90565 0.0
C1522 C 0.29643 0.485 0.93299 0.0
C1523 C 0.27552 0.50392 0.9257 0.0
C1524 C 0.28052 0.50284 0.90968 0.0
C1525 C 0.28388 0.49537 0.93771 0.0
H1526 H 0.3111 0.47688 0.91327 0.0
H1527 H 0.27477 0.51017 0.90061 0.0
C1528 C 0.33095 0.49006 0.83802 0.0
N1529 N 0.34915 0.47269 0.81619 0.0
C1530 C 0.32343 0.48166 0.8255 0.0
C1531 C 0.34773 0.48963 0.83941 0.0
C1532 C 0.33284 0.47297 0.81457 0.0
C1533 C 0.35671 0.48076 0.82827 0.0
C1534 C 0.29136 0.46625 0.87966 0.0
C1535 C 0.29971 0.45364 0.88707 0.0
C1536 C 0.2751 0.46873 0.88326 0.0
C1537 C 0.29163 0.44373 0.89801 0.0
C1538 C 0.26746 0.45857 0.89429 0.0
N1539 N 0.27581 0.44638 0.90138 0.0
C1540 C 0.35014 0.46277 0.8721 0.0
C1541 C 0.33127 0.45234 0.85337 0.0
C1542 C 0.36066 0.45004 0.86901 0.0
N1543 N 0.33593 0.46383 0.86407 0.0
C1544 C 0.3414 0.43936 0.84994 0.0
C1545 C 0.35641 0.43818 0.85769 0.0
H1546 H 0.35341 0.47191 0.88074 0.0
H1547 H 0.31977 0.4534 0.84734 0.0
C1548 C 0.28807 0.50776 0.82701 0.0
N1549 N 0.28434 0.49741 0.83912 0.0
C1550 C 0.27746 0.50998 0.8142 0.0
C1551 C 0.25942 0.49066 0.82647 0.0
C1552 C 0.27045 0.48876 0.83903 0.0
C1553 C 0.26283 0.50148 0.81388 0.0
H1554 H 0.29927 0.51441 0.82741 0.0
H1555 H 0.26782 0.48061 0.84883 0.0
O1556 O 0.32662 0.49498 0.88641 0.0
O1557 O 0.29782 0.51417 0.87274 0.0
O1558 O 0.32192 0.49835 0.84905 0.0
O1559 O 0.29915 0.47631 0.86919 0.0
H1560 H 0.31927 0.51239 0.91225 0.0
H1561 H 0.35749 0.49962 0.87954 0.0
H1562 H 0.33843 0.52974 0.92713 0.0
H1563 H 0.37595 0.51724 0.89501 0.0
H1564 H 0.24621 0.52611 0.8588 0.0
H1565 H 0.30395 0.5397 0.85455 0.0
H1566 H 0.26626 0.50933 0.87325 0.0
H1567 H 0.28323 0.55594 0.84044 0.0
H1568 H 0.33239 0.56464 0.89141 0.0
H1569 H 0.3671 0.54775 0.85632 0.0
H1570 H 0.30344 0.47837 0.94177 0.0
H1571 H 0.26562 0.51186 0.92871 0.0
H1572 H 0.31046 0.48164 0.82433 0.0
H1573 H 0.35375 0.49576 0.8492 0.0
H1574 H 0.32718 0.46636 0.80487 0.0
H1575 H 0.36969 0.48021 0.8293 0.0
H1576 H 0.31232 0.45162 0.88453 0.0
H1577 H 0.26851 0.47858 0.87782 0.0
H1578 H 0.29795 0.43396 0.90388 0.0
H1579 H 0.25491 0.46042 0.89727 0.0
H1580 H 0.37215 0.44972 0.87517 0.0
H1581 H 0.33751 0.43035 0.84134 0.0
H1582 H 0.28073 0.51821 0.80462 0.0
H1583 H 0.24821 0.48399 0.82679 0.0
Li1584 Li 0.48652 0.32388 0.86461 0.0
Li1585 Li 0.50064 0.30809 0.88547 0.0
Li1586 Li 0.51633 0.32118 0.86488 0.0
Li1587 Li 0.49954 0.29898 0.85873 0.0
C1588 C 0.49909 0.33869 0.89536 0.0
N1589 N 0.4929 0.3516 0.92542 0.0
C1590 C 0.48377 0.33726 0.9022 0.0
C1591 C 0.51123 0.34682 0.90374 0.0
C1592 C 0.48089 0.34383 0.91743 0.0
C1593 C 0.50787 0.35323 0.91894 0.0
C1594 C 0.47361 0.28792 0.87276 0.0
C1595 C 0.47308 0.25957 0.87915 0.0
N1596 N 0.45962 0.25784 0.86996 0.0
C1597 C 0.45972 0.28588 0.86347 0.0
C1598 C 0.48032 0.27468 0.88073 0.0
C1599 C 0.45285 0.27056 0.86217 0.0
C1600 C 0.4574 0.33284 0.84957 0.0
N1601 N 0.46905 0.33786 0.85992 0.0
C1602 C 0.45551 0.36292 0.86392 0.0
C1603 C 0.46851 0.35269 0.86683 0.0
C1604 C 0.44304 0.35789 0.85365 0.0
C1605 C 0.44418 0.34272 0.84624 0.0
H1606 H 0.45837 0.32114 0.84393 0.0
H1607 H 0.47818 0.35663 0.87459 0.0
C1608 C 0.51443 0.30778 0.91588 0.0
N1609 N 0.50079 0.30371 0.9078 0.0
C1610 C 0.51434 0.3086 0.93265 0.0
C1611 C 0.48658 0.29966 0.93248 0.0
C1612 C 0.48711 0.29931 0.91567 0.0
C1613 C 0.50016 0.3049 0.94105 0.0
H1614 H 0.52502 0.31145 0.90924 0.0
H1615 H 0.47633 0.29653 0.90889 0.0
C1616 C 0.50195 0.33238 0.83639 0.0
N1617 N 0.50342 0.35911 0.81657 0.0
C1618 C 0.50146 0.33056 0.81966 0.0
C1619 C 0.50315 0.34782 0.84305 0.0
C1620 C 0.50224 0.34421 0.80984 0.0
C1621 C 0.50388 0.36117 0.83282 0.0
C1622 C 0.53151 0.29192 0.86553 0.0
C1623 C 0.53413 0.29447 0.84907 0.0
C1624 C 0.54224 0.28233 0.87427 0.0
C1625 C 0.54744 0.28733 0.84164 0.0
C1626 C 0.55541 0.2754 0.86639 0.0
N1627 N 0.55771 0.27802 0.85038 0.0
C1628 C 0.54541 0.33253 0.87575 0.0
C1629 C 0.54205 0.33769 0.84786 0.0
C1630 C 0.56027 0.34033 0.87573 0.0
N1631 N 0.53651 0.33163 0.86205 0.0
C1632 C 0.55682 0.34577 0.84732 0.0
C1633 C 0.56604 0.34727 0.86143 0.0
H1634 H 0.54082 0.32729 0.88676 0.0
H1635 H 0.53505 0.33636 0.83697 0.0
C1636 C 0.4867 0.28233 0.83278 0.0
N1637 N 0.4968 0.28056 0.84553 0.0
C1638 C 0.48287 0.26913 0.82315 0.0
C1639 C 0.50028 0.25261 0.8397 0.0
C1640 C 0.50363 0.26611 0.84915 0.0
C1641 C 0.48964 0.25404 0.82663 0.0
H1642 H 0.48136 0.29397 0.83034 0.0
H1643 H 0.51135 0.26498 0.85957 0.0
O1644 O 0.50229 0.33179 0.88072 0.0
O1645 O 0.48084 0.30269 0.87378 0.0
O1646 O 0.50103 0.31905 0.84604 0.0
O1647 O 0.51865 0.29881 0.87321 0.0
H1648 H 0.47427 0.33089 0.89593 0.0
H1649 H 0.52313 0.3481 0.89861 0.0
H1650 H 0.46913 0.34269 0.92293 0.0
H1651 H 0.51716 0.35948 0.9256 0.0
H1652 H 0.47821 0.24921 0.88515 0.0
H1653 H 0.45436 0.29597 0.85723 0.0
H1654 H 0.49118 0.27602 0.88782 0.0
H1655 H 0.44215 0.26879 0.85494 0.0
H1656 H 0.45529 0.37468 0.86956 0.0
H1657 H 0.43483 0.33841 0.83823 0.0
H1658 H 0.52499 0.31275 0.93895 0.0
H1659 H 0.47541 0.29693 0.93864 0.0
H1660 H 0.50049 0.31869 0.81432 0.0
H1661 H 0.50362 0.34954 0.85593 0.0
H1662 H 0.50189 0.34297 0.79687 0.0
H1663 H 0.50484 0.37317 0.83781 0.0
H1664 H 0.52602 0.30184 0.84206 0.0
H1665 H 0.5404 0.28028 0.88702 0.0
H1666 H 0.5496 0.28919 0.82892 0.0
H1667 H 0.5638 0.26795 0.87302 0.0
H1668 H 0.56695 0.34131 0.8869 0.0
H1669 H 0.561 0.35076 0.83601 0.0
H1670 H 0.47474 0.27072 0.81307 0.0
H1671 H 0.50562 0.24111 0.8428 0.0
Li1672 Li 0.69349 0.49676 0.88801 0.0
Li1673 Li 0.67494 0.48079 0.87003 0.0
Li1674 Li 0.69446 0.49848 0.85896 0.0
Li1675 Li 0.67162 0.50993 0.87227 0.0
C1676 C 0.71109 0.47226 0.86476 0.0
N1677 N 0.73645 0.45927 0.84761 0.0
C1678 C 0.70811 0.46284 0.85113 0.0
C1679 C 0.72692 0.47494 0.8698 0.0
C1680 C 0.72112 0.45642 0.84258 0.0
C1681 C 0.73959 0.46829 0.86093 0.0
C1682 C 0.65401 0.49262 0.89464 0.0
C1683 C 0.62579 0.48911 0.88871 0.0
N1684 N 0.62232 0.49093 0.90463 0.0
C1685 C 0.65018 0.49449 0.91092 0.0
C1686 C 0.64175 0.48994 0.88342 0.0
C1687 C 0.63407 0.49358 0.91574 0.0
C1688 C 0.70228 0.51195 0.9162 0.0
N1689 N 0.7038 0.49777 0.90819 0.0
C1690 C 0.71786 0.48602 0.93037 0.0
C1691 C 0.71149 0.48492 0.91481 0.0
C1692 C 0.7163 0.5005 0.93903 0.0
C1693 C 0.70855 0.51362 0.93167 0.0
H1694 H 0.69588 0.52185 0.91065 0.0
H1695 H 0.71237 0.47375 0.90814 0.0
C1696 C 0.65779 0.45628 0.85392 0.0
N1697 N 0.66419 0.46087 0.86828 0.0
C1698 C 0.64956 0.44167 0.85263 0.0
C1699 C 0.6549 0.43675 0.88087 0.0
C1700 C 0.66298 0.45147 0.88162 0.0
C1701 C 0.64801 0.43171 0.86624 0.0
H1702 H 0.65908 0.464 0.84351 0.0
H1703 H 0.66818 0.45552 0.89287 0.0
C1704 C 0.70628 0.52755 0.87466 0.0
N1705 N 0.73031 0.55059 0.87524 0.0
C1706 C 0.70341 0.54293 0.86844 0.0
C1707 C 0.72127 0.52399 0.88147 0.0
C1708 C 0.71575 0.55438 0.86875 0.0
C1709 C 0.73329 0.53577 0.88155 0.0
C1710 C 0.66714 0.50604 0.83972 0.0
C1711 C 0.67478 0.52087 0.83741 0.0
C1712 C 0.65505 0.50117 0.82907 0.0
C1713 C 0.67023 0.53056 0.82443 0.0
C1714 C 0.65083 0.51121 0.81623 0.0
N1715 N 0.65845 0.52558 0.8142 0.0
C1716 C 0.70364 0.49589 0.82617 0.0
C1717 C 0.72442 0.50543 0.84324 0.0
C1718 C 0.71367 0.49714 0.81276 0.0
N1719 N 0.70898 0.50041 0.841 0.0
C1720 C 0.73497 0.50658 0.83021 0.0
C1721 C 0.72952 0.5026 0.81473 0.0
H1722 H 0.69163 0.49112 0.82472 0.0
H1723 H 0.72871 0.50822 0.85515 0.0
C1724 C 0.66052 0.5387 0.88507 0.0
N1725 N 0.6568 0.52716 0.87407 0.0
C1726 C 0.64997 0.55149 0.88781 0.0
C1727 C 0.63207 0.54039 0.86767 0.0
C1728 C 0.64291 0.52772 0.86542 0.0
C1729 C 0.6355 0.55239 0.8791 0.0
H1730 H 0.67161 0.53783 0.89185 0.0
H1731 H 0.6401 0.51821 0.85698 0.0
O1732 O 0.69854 0.47903 0.87299 0.0
O1733 O 0.6697 0.49366 0.88973 0.0
O1734 O 0.69417 0.51635 0.87487 0.0
O1735 O 0.67121 0.4964 0.85247 0.0
H1736 H 0.6959 0.4607 0.84708 0.0
H1737 H 0.72939 0.48222 0.88033 0.0
H1738 H 0.71902 0.44922 0.83192 0.0
H1739 H 0.75192 0.47034 0.86461 0.0
H1740 H 0.61617 0.48705 0.88016 0.0
H1741 H 0.65956 0.49665 0.91973 0.0
H1742 H 0.64449 0.48861 0.87074 0.0
H1743 H 0.63092 0.49499 0.92831 0.0
H1744 H 0.72375 0.47565 0.93565 0.0
H1745 H 0.70679 0.52488 0.93803 0.0
H1746 H 0.64455 0.43815 0.84111 0.0
H1747 H 0.65378 0.42955 0.8917 0.0
H1748 H 0.69175 0.54606 0.86351 0.0
H1749 H 0.72369 0.51219 0.88642 0.0
H1750 H 0.71372 0.56631 0.86392 0.0
H1751 H 0.74499 0.53312 0.88665 0.0
H1752 H 0.68418 0.52478 0.84547 0.0
H1753 H 0.64893 0.48978 0.83075 0.0
H1754 H 0.67608 0.54205 0.82249 0.0
H1755 H 0.64148 0.50759 0.8079 0.0
H1756 H 0.70919 0.49361 0.80101 0.0
H1757 H 0.7472 0.51068 0.83219 0.0
H1758 H 0.6531 0.56057 0.89665 0.0
H1759 H 0.62092 0.54055 0.86089 0.0
Li1760 Li 0.49655 0.69504 0.88623 0.0
Li1761 Li 0.50988 0.67256 0.87285 0.0
Li1762 Li 0.49579 0.69325 0.85797 0.0
Li1763 Li 0.47904 0.67495 0.87311 0.0
C1764 C 0.52179 0.71075 0.87087 0.0
N1765 N 0.53466 0.74139 0.86917 0.0
C1766 C 0.53848 0.71292 0.87093 0.0
C1767 C 0.51164 0.72414 0.86995 0.0
C1768 C 0.54475 0.72852 0.87006 0.0
C1769 C 0.51837 0.73954 0.86909 0.0
C1770 C 0.49583 0.67154 0.90757 0.0
C1771 C 0.48365 0.67279 0.93394 0.0
N1772 N 0.49856 0.67315 0.94072 0.0
C1773 C 0.51103 0.67181 0.91481 0.0
C1774 C 0.48201 0.67193 0.9172 0.0
C1775 C 0.51216 0.67264 0.93159 0.0
C1776 C 0.48354 0.71184 0.9123 0.0
N1777 N 0.49762 0.70813 0.90485 0.0
C1778 C 0.51281 0.71799 0.92716 0.0
C1779 C 0.51211 0.71147 0.91169 0.0
C1780 C 0.49845 0.72091 0.93561 0.0
C1781 C 0.48367 0.71829 0.9278 0.0
H1782 H 0.47221 0.7088 0.90661 0.0
H1783 H 0.52311 0.70804 0.90561 0.0
C1784 C 0.54116 0.65988 0.86665 0.0
N1785 N 0.5269 0.65757 0.87436 0.0
C1786 C 0.55377 0.64891 0.86878 0.0
C1787 C 0.53671 0.63357 0.88676 0.0
C1788 C 0.52439 0.64465 0.88409 0.0
C1789 C 0.55164 0.6357 0.87914 0.0
H1790 H 0.54279 0.67035 0.85905 0.0
H1791 H 0.51289 0.64312 0.89 0.0
C1792 C 0.4646 0.70728 0.86794 0.0
N1793 N 0.43793 0.72504 0.85886 0.0
C1794 C 0.4524 0.70016 0.85875 0.0
C1795 C 0.46311 0.72337 0.87269 0.0
C1796 C 0.43905 0.70936 0.85423 0.0
C1797 C 0.44958 0.73217 0.86792 0.0
C1798 C 0.49431 0.66862 0.83867 0.0
C1799 C 0.48008 0.67032 0.82984 0.0
C1800 C 0.50895 0.66657 0.83061 0.0
C1801 C 0.48078 0.67018 0.81302 0.0
C1802 C 0.50914 0.66649 0.81378 0.0
N1803 N 0.49517 0.6683 0.8054 0.0
C1804 C 0.51233 0.70681 0.83174 0.0
C1805 C 0.48442 0.71275 0.8316 0.0
C1806 C 0.51467 0.7161 0.81793 0.0
N1807 N 0.49741 0.70547 0.83841 0.0
C1808 C 0.48623 0.72226 0.81788 0.0
C1809 C 0.50153 0.72416 0.81099 0.0
H1810 H 0.52245 0.70075 0.83727 0.0
H1811 H 0.47264 0.71129 0.83673 0.0
C1812 C 0.44776 0.66772 0.88443 0.0
N1813 N 0.45993 0.66278 0.87465 0.0
C1814 C 0.43402 0.6582 0.88625 0.0
C1815 C 0.44554 0.6389 0.86769 0.0
C1816 C 0.45906 0.64877 0.86625 0.0
C1817 C 0.43286 0.6435 0.87793 0.0
H1818 H 0.44884 0.67897 0.89092 0.0
H1819 H 0.46901 0.64514 0.85865 0.0
O1820 O 0.51552 0.69552 0.87165 0.0
O1821 O 0.49449 0.67139 0.89114 0.0
O1822 O 0.47762 0.69842 0.8728 0.0
O1823 O 0.49396 0.66921 0.85512 0.0
H1824 H 0.54649 0.70265 0.87162 0.0
H1825 H 0.49873 0.72267 0.8698 0.0
H1826 H 0.55765 0.73038 0.87009 0.0
H1827 H 0.51065 0.75001 0.86834 0.0
H1828 H 0.47307 0.67327 0.94153 0.0
H1829 H 0.52185 0.67169 0.90753 0.0
H1830 H 0.47016 0.67181 0.91179 0.0
H1831 H 0.52385 0.67301 0.93734 0.0
H1832 H 0.52444 0.71961 0.93287 0.0
H1833 H 0.47235 0.72046 0.93393 0.0
H1834 H 0.56517 0.65094 0.86276 0.0
H1835 H 0.53458 0.62342 0.89469 0.0
H1836 H 0.45329 0.68774 0.85497 0.0
H1837 H 0.47228 0.72901 0.88006 0.0
H1838 H 0.42958 0.70403 0.84703 0.0
H1839 H 0.44831 0.74464 0.87147 0.0
H1840 H 0.46866 0.67186 0.8359 0.0
H1841 H 0.52007 0.66527 0.83729 0.0
H1842 H 0.46987 0.6716 0.80601 0.0
H1843 H 0.52039 0.66504 0.80737 0.0
H1844 H 0.52669 0.71731 0.81297 0.0
H1845 H 0.47575 0.72806 0.8127 0.0
H1846 H 0.42444 0.66227 0.89413 0.0
H1847 H 0.44526 0.62756 0.86124 0.0
Li1848 Li 0.69834 0.49784 0.13646 0.0
Li1849 Li 0.67732 0.48188 0.12604 0.0
Li1850 Li 0.69318 0.49825 0.10828 0.0
Li1851 Li 0.67333 0.51108 0.12628 0.0
C1852 C 0.71485 0.47414 0.12731 0.0
N1853 N 0.74378 0.4643 0.1406 0.0
C1854 C 0.71501 0.4645 0.14113 0.0
C1855 C 0.72944 0.47879 0.12028 0.0
C1856 C 0.72975 0.45966 0.14766 0.0
C1857 C 0.74393 0.47368 0.12716 0.0
C1858 C 0.66469 0.48854 0.15394 0.0
C1859 C 0.63715 0.48541 0.1627 0.0
N1860 N 0.64141 0.47198 0.17105 0.0
C1861 C 0.66881 0.47476 0.16271 0.0
C1862 C 0.64874 0.49396 0.15398 0.0
C1863 C 0.65686 0.46653 0.17124 0.0
C1864 C 0.72824 0.50809 0.14848 0.0
N1865 N 0.71433 0.50058 0.15268 0.0
C1866 C 0.72302 0.49868 0.18007 0.0
C1867 C 0.71152 0.49584 0.16812 0.0
C1868 C 0.73741 0.50664 0.17607 0.0
C1869 C 0.74002 0.51121 0.16 0.0
H1870 H 0.73017 0.51175 0.13618 0.0
H1871 H 0.70026 0.49009 0.17119 0.0
C1872 C 0.67253 0.44796 0.12982 0.0
N1873 N 0.66521 0.4624 0.12743 0.0
C1874 C 0.6634 0.43386 0.13065 0.0
C1875 C 0.63941 0.44974 0.1261 0.0
C1876 C 0.64899 0.46352 0.1255 0.0
C1877 C 0.64658 0.43462 0.12874 0.0
H1878 H 0.68547 0.44735 0.13097 0.0
H1879 H 0.64353 0.47515 0.12336 0.0
C1880 C 0.70301 0.52875 0.11301 0.0
N1881 N 0.71667 0.55192 0.09333 0.0
C1882 C 0.69443 0.54272 0.10912 0.0
C1883 C 0.71858 0.52662 0.10692 0.0
C1884 C 0.70155 0.55428 0.09916 0.0
C1885 C 0.72526 0.53844 0.09697 0.0
C1886 C 0.66467 0.48751 0.09502 0.0
C1887 C 0.67241 0.47305 0.09115 0.0
C1888 C 0.65242 0.49329 0.08502 0.0
C1889 C 0.6677 0.46457 0.0774 0.0
C1890 C 0.64805 0.48446 0.07136 0.0
N1891 N 0.65572 0.4704 0.06787 0.0
C1892 C 0.7106 0.48746 0.08078 0.0
C1893 C 0.69697 0.51236 0.07762 0.0
C1894 C 0.71636 0.48829 0.06498 0.0
N1895 N 0.70137 0.49957 0.08685 0.0
C1896 C 0.70271 0.51385 0.06191 0.0
C1897 C 0.71257 0.50174 0.05547 0.0
H1898 H 0.7133 0.47705 0.08811 0.0
H1899 H 0.68896 0.52141 0.08246 0.0
C1900 C 0.66225 0.53869 0.14186 0.0
N1901 N 0.65894 0.52836 0.1296 0.0
C1902 C 0.65204 0.55167 0.14498 0.0
C1903 C 0.63517 0.54305 0.12284 0.0
C1904 C 0.64573 0.53024 0.12014 0.0
C1905 C 0.63827 0.55398 0.1354 0.0
H1906 H 0.67289 0.53684 0.14916 0.0
H1907 H 0.64334 0.52172 0.11059 0.0
O1908 O 0.70053 0.47936 0.12098 0.0
O1909 O 0.67613 0.49654 0.14516 0.0
O1910 O 0.69621 0.5173 0.12277 0.0
O1911 O 0.66921 0.49617 0.10833 0.0
H1912 H 0.7039 0.46106 0.14697 0.0
H1913 H 0.72964 0.48649 0.10979 0.0
H1914 H 0.73002 0.45229 0.15841 0.0
H1915 H 0.75529 0.47725 0.12188 0.0
H1916 H 0.62475 0.48943 0.16276 0.0
H1917 H 0.68103 0.47029 0.16271 0.0
H1918 H 0.64528 0.50455 0.14724 0.0
H1919 H 0.65986 0.45577 0.17795 0.0
H1920 H 0.72051 0.49509 0.19237 0.0
H1921 H 0.75105 0.51715 0.15637 0.0
H1922 H 0.66945 0.42252 0.13283 0.0
H1923 H 0.62656 0.45092 0.12421 0.0
H1924 H 0.68239 0.54463 0.11367 0.0
H1925 H 0.7253 0.51577 0.10945 0.0
H1926 H 0.69502 0.56512 0.09604 0.0
H1927 H 0.73723 0.53686 0.09206 0.0
H1928 H 0.68201 0.4684 0.09861 0.0
H1929 H 0.64638 0.50451 0.08771 0.0
H1930 H 0.6736 0.45338 0.07428 0.0
H1931 H 0.63859 0.4888 0.06352 0.0
H1932 H 0.72372 0.4786 0.06028 0.0
H1933 H 0.69919 0.52417 0.05475 0.0
H1934 H 0.65499 0.5599 0.15467 0.0
H1935 H 0.62457 0.54422 0.11532 0.0
Li1936 Li 0.49807 0.69744 0.1339 0.0
Li1937 Li 0.51322 0.6739 0.12464 0.0
Li1938 Li 0.49792 0.69104 0.10499 0.0
Li1939 Li 0.48429 0.67267 0.12367 0.0
C1940 C 0.52579 0.71064 0.11901 0.0
N1941 N 0.54421 0.73838 0.11929 0.0
C1942 C 0.54088 0.71072 0.12649 0.0
C1943 C 0.52021 0.7246 0.11143 0.0
C1944 C 0.54998 0.72488 0.12657 0.0
C1945 C 0.52966 0.73852 0.11177 0.0
C1946 C 0.50618 0.66805 0.15529 0.0
C1947 C 0.51637 0.64404 0.16811 0.0
N1948 N 0.52336 0.6533 0.17969 0.0
C1949 C 0.51338 0.67732 0.16736 0.0
C1950 C 0.50757 0.65127 0.15571 0.0
C1951 C 0.52204 0.66964 0.17959 0.0
C1952 C 0.48058 0.7156 0.15531 0.0
N1953 N 0.49577 0.714 0.14945 0.0
C1954 C 0.50524 0.73491 0.16681 0.0
C1955 C 0.50808 0.72332 0.15494 0.0
C1956 C 0.48965 0.73677 0.17313 0.0
C1957 C 0.47721 0.727 0.16715 0.0
H1958 H 0.47107 0.70791 0.15081 0.0
H1959 H 0.52012 0.72157 0.15042 0.0
C1960 C 0.5341 0.64805 0.11837 0.0
N1961 N 0.53214 0.66129 0.12779 0.0
C1962 C 0.54693 0.63755 0.12108 0.0
C1963 C 0.55584 0.65479 0.1428 0.0
C1964 C 0.54283 0.66498 0.13964 0.0
C1965 C 0.55789 0.64074 0.13357 0.0
H1966 H 0.52553 0.64546 0.10894 0.0
H1967 H 0.54103 0.67561 0.14693 0.0
C1968 C 0.46926 0.7076 0.11423 0.0
N1969 N 0.4489 0.73204 0.10439 0.0
C1970 C 0.45389 0.70399 0.10838 0.0
C1971 C 0.47416 0.72367 0.11533 0.0
C1972 C 0.44381 0.7165 0.10338 0.0
C1973 C 0.46372 0.73585 0.11023 0.0
C1974 C 0.49195 0.65439 0.099 0.0
C1975 C 0.48444 0.65628 0.08405 0.0
C1976 C 0.49139 0.63946 0.10677 0.0
C1977 C 0.4763 0.64323 0.0772 0.0
C1978 C 0.4831 0.62671 0.09955 0.0
N1979 N 0.47578 0.62885 0.08505 0.0
C1980 C 0.51256 0.70331 0.07716 0.0
C1981 C 0.48407 0.70223 0.07573 0.0
C1982 C 0.5134 0.70955 0.06157 0.0
N1983 N 0.49805 0.69989 0.08392 0.0
C1984 C 0.48433 0.70841 0.0601 0.0
C1985 C 0.49916 0.71209 0.0528 0.0
H1986 H 0.52351 0.70103 0.08384 0.0
H1987 H 0.47272 0.69901 0.08119 0.0
C1988 C 0.46429 0.65223 0.14152 0.0
N1989 N 0.46593 0.65934 0.12688 0.0
C1990 C 0.45115 0.64228 0.14469 0.0
C1991 C 0.44147 0.64726 0.11767 0.0
C1992 C 0.45482 0.65717 0.11504 0.0
C1993 C 0.43951 0.63968 0.13269 0.0
H1994 H 0.47318 0.65431 0.15079 0.0
H1995 H 0.45634 0.66309 0.10354 0.0
O1996 O 0.51676 0.69684 0.11881 0.0
O1997 O 0.49781 0.67537 0.14312 0.0
O1998 O 0.47926 0.69545 0.1192 0.0
O1999 O 0.49981 0.66709 0.10598 0.0
H2000 H 0.5455 0.69999 0.13224 0.0
H2001 H 0.5088 0.72467 0.10519 0.0
H2002 H 0.56162 0.72514 0.13241 0.0
H2003 H 0.52545 0.74942 0.10599 0.0
H2004 H 0.51765 0.63108 0.16852 0.0
H2005 H 0.5124 0.69031 0.16725 0.0
H2006 H 0.50206 0.64391 0.14648 0.0
H2007 H 0.52775 0.67666 0.18896 0.0
H2008 H 0.51523 0.74201 0.1713 0.0
H2009 H 0.46499 0.72815 0.17157 0.0
H2010 H 0.54793 0.62678 0.11377 0.0
H2011 H 0.56412 0.65782 0.15241 0.0
H2012 H 0.44981 0.69164 0.10762 0.0
H2013 H 0.48578 0.72676 0.12027 0.0
H2014 H 0.43193 0.71386 0.09873 0.0
H2015 H 0.46738 0.74834 0.111 0.0
H2016 H 0.48483 0.66771 0.07782 0.0
H2017 H 0.49714 0.63778 0.11834 0.0
H2018 H 0.47037 0.64454 0.06567 0.0
H2019 H 0.48246 0.61513 0.1055 0.0
H2020 H 0.5251 0.71191 0.05629 0.0
H2021 H 0.47307 0.71019 0.05377 0.0
H2022 H 0.45023 0.63652 0.15636 0.0
H2023 H 0.43269 0.64573 0.10814 0.0
Li2024 Li 0.48417 0.32595 0.13735 0.0
Li2025 Li 0.49817 0.30027 0.14014 0.0
Li2026 Li 0.51281 0.32446 0.13255 0.0
Li2027 Li 0.49412 0.3113 0.11395 0.0
C2028 C 0.49532 0.32594 0.16701 0.0
N2029 N 0.48177 0.33765 0.19508 0.0
C2030 C 0.48858 0.31533 0.17821 0.0
C2031 C 0.49524 0.3425 0.17011 0.0
C2032 C 0.48179 0.32149 0.19234 0.0
C2033 C 0.4883 0.34818 0.18435 0.0
C2034 C 0.46587 0.29923 0.11907 0.0
C2035 C 0.4559 0.27951 0.10019 0.0
N2036 N 0.44339 0.28944 0.09656 0.0
C2037 C 0.45288 0.30922 0.1152 0.0
C2038 C 0.46738 0.28423 0.11157 0.0
C2039 C 0.44164 0.30406 0.10377 0.0
C2040 C 0.46398 0.35273 0.1357 0.0
N2041 N 0.46671 0.33905 0.14426 0.0
C2042 C 0.4429 0.34345 0.15989 0.0
C2043 C 0.45649 0.33423 0.15614 0.0
C2044 C 0.43967 0.35748 0.15101 0.0
C2045 C 0.45049 0.36217 0.1389 0.0
H2046 H 0.47201 0.35607 0.12603 0.0
H2047 H 0.45866 0.32302 0.1624 0.0
C2048 C 0.51327 0.28015 0.16219 0.0
N2049 N 0.50013 0.28123 0.1525 0.0
C2050 C 0.51599 0.26628 0.17122 0.0
C2051 C 0.4912 0.25514 0.16068 0.0
C2052 C 0.48908 0.26918 0.15163 0.0
C2053 C 0.50489 0.25357 0.17049 0.0
H2054 H 0.52169 0.29008 0.16281 0.0
H2055 H 0.47866 0.27047 0.14392 0.0
C2056 C 0.50432 0.34727 0.11272 0.0
N2057 N 0.5224 0.37257 0.10085 0.0
C2058 C 0.51146 0.34616 0.0975 0.0
C2059 C 0.50633 0.36126 0.12188 0.0
C2060 C 0.52055 0.35909 0.09171 0.0
C2061 C 0.51554 0.37391 0.11567 0.0
C2062 C 0.52382 0.28964 0.12466 0.0
C2063 C 0.53878 0.29108 0.13227 0.0
C2064 C 0.51841 0.27448 0.1197 0.0
C2065 C 0.54803 0.27726 0.13491 0.0
C2066 C 0.528 0.26096 0.1226 0.0
N2067 N 0.54249 0.26262 0.13008 0.0
C2068 C 0.53697 0.34459 0.14644 0.0
C2069 C 0.54258 0.33418 0.12044 0.0
C2070 C 0.55146 0.35315 0.14643 0.0
N2071 N 0.5328 0.33549 0.13349 0.0
C2072 C 0.55712 0.34255 0.11988 0.0
C2073 C 0.56171 0.35227 0.13296 0.0
H2074 H 0.52901 0.34529 0.15672 0.0
H2075 H 0.53892 0.3268 0.11033 0.0
C2076 C 0.48015 0.31896 0.08467 0.0
N2077 N 0.49015 0.3081 0.09174 0.0
C2078 C 0.47893 0.31966 0.06795 0.0
C2079 C 0.49754 0.29729 0.06614 0.0
C2080 C 0.49853 0.29713 0.08294 0.0
C2081 C 0.48807 0.30905 0.0585 0.0
H2082 H 0.47385 0.32769 0.09202 0.0
H2083 H 0.50664 0.28886 0.08888 0.0
O2084 O 0.50192 0.32017 0.15306 0.0
O2085 O 0.47719 0.30421 0.12996 0.0
O2086 O 0.49572 0.33458 0.1188 0.0
O2087 O 0.51445 0.30298 0.12224 0.0
H2088 H 0.48848 0.30249 0.176 0.0
H2089 H 0.50031 0.35088 0.16151 0.0
H2090 H 0.47648 0.31343 0.20109 0.0
H2091 H 0.48806 0.36097 0.18686 0.0
H2092 H 0.45697 0.26798 0.09422 0.0
H2093 H 0.45154 0.32089 0.12083 0.0
H2094 H 0.4774 0.27639 0.11436 0.0
H2095 H 0.43157 0.31169 0.10061 0.0
H2096 H 0.43471 0.33937 0.16919 0.0
H2097 H 0.44846 0.37297 0.13185 0.0
H2098 H 0.52653 0.26561 0.17889 0.0
H2099 H 0.48237 0.24557 0.15988 0.0
H2100 H 0.51024 0.33535 0.09033 0.0
H2101 H 0.501 0.36227 0.13373 0.0
H2102 H 0.52621 0.35837 0.07999 0.0
H2103 H 0.51728 0.38477 0.12267 0.0
H2104 H 0.54312 0.30269 0.13628 0.0
H2105 H 0.50682 0.27313 0.11391 0.0
H2106 H 0.55959 0.27818 0.14086 0.0
H2107 H 0.5239 0.24913 0.11895 0.0
H2108 H 0.55462 0.36033 0.15685 0.0
H2109 H 0.5645 0.3417 0.10915 0.0
H2110 H 0.47148 0.32885 0.06245 0.0
H2111 H 0.50489 0.28904 0.05919 0.0
H2112 H 0.12577 0.42217 0.37798 0.0
H2113 H 0.16589 0.40642 0.34831 0.0
H2114 H 0.16994 0.38308 0.36636 0.0
H2115 H 0.14225 0.41127 0.41582 0.0
H2116 H 0.12333 0.40459 0.4241 0.0
H2117 H 0.12362 0.41996 0.4088 0.0
H2118 H 0.10443 0.40283 0.39107 0.0
H2119 H 0.10404 0.38742 0.40634 0.0
H2120 H 0.10991 0.38242 0.38604 0.0
H2121 H 0.16991 0.36176 0.38825 0.0
H2122 H 0.1652 0.34381 0.41164 0.0
H2123 H 0.12454 0.37333 0.42599 0.0
C2124 C 0.13526 0.41371 0.37507 0.0
C2125 C 0.14549 0.41615 0.36168 0.0
C2126 C 0.158 0.40493 0.3586 0.0
C2127 C 0.16034 0.39158 0.36872 0.0
C2128 C 0.15003 0.3896 0.38182 0.0
C2129 C 0.13768 0.40032 0.38494 0.0
C2130 C 0.12827 0.39556 0.39979 0.0
C2131 C 0.12945 0.40862 0.4129 0.0
C2132 C 0.11062 0.39183 0.39555 0.0
C2133 C 0.13727 0.38049 0.4046 0.0
C2134 C 0.14982 0.37725 0.39415 0.0
C2135 C 0.16006 0.36413 0.39645 0.0
C2136 C 0.15735 0.35406 0.40977 0.0
C2137 C 0.14444 0.35714 0.42051 0.0
C2138 C 0.13432 0.37053 0.41782 0.0
H2139 H 0.61006 0.14404 0.44101 0.0
H2140 H 0.65167 0.13953 0.40966 0.0
H2141 H 0.6337 0.13896 0.38594 0.0
H2142 H 0.58456 0.11766 0.41947 0.0
H2143 H 0.56651 0.12929 0.42268 0.0
H2144 H 0.58267 0.13018 0.43712 0.0
H2145 H 0.58385 0.16124 0.43408 0.0
H2146 H 0.56765 0.16046 0.41965 0.0
H2147 H 0.58645 0.16995 0.41435 0.0
H2148 H 0.61122 0.1379 0.36579 0.0
H2149 H 0.58575 0.1366 0.35051 0.0
H2150 H 0.55879 0.14173 0.39504 0.0
C2151 C 0.61541 0.14324 0.42914 0.0
C2152 C 0.63227 0.14187 0.42717 0.0
C2153 C 0.63878 0.14046 0.41145 0.0
C2154 C 0.62868 0.14022 0.39791 0.0
C2155 C 0.61212 0.14143 0.4003 0.0
C2156 C 0.60552 0.14296 0.41551 0.0
C2157 C 0.58729 0.14353 0.4148 0.0
C2158 C 0.57983 0.12932 0.42407 0.0
C2159 C 0.58094 0.15976 0.42109 0.0
C2160 C 0.58466 0.1419 0.39683 0.0
C2161 C 0.59914 0.14076 0.38868 0.0
C2162 C 0.5998 0.13882 0.37203 0.0
C2163 C 0.58527 0.13797 0.36348 0.0
C2164 C 0.57027 0.13901 0.37158 0.0
C2165 C 0.57004 0.1411 0.38848 0.0
H2166 H 0.84509 0.6272 0.41915 0.0
H2167 H 0.89575 0.63767 0.42708 0.0
H2168 H 0.90313 0.61739 0.40675 0.0
H2169 H 0.8499 0.58475 0.41541 0.0
H2170 H 0.83475 0.58247 0.40001 0.0
H2171 H 0.83326 0.59867 0.41437 0.0
H2172 H 0.83204 0.6194 0.39104 0.0
H2173 H 0.83346 0.60325 0.3766 0.0
H2174 H 0.84779 0.61957 0.37607 0.0
H2175 H 0.90519 0.59525 0.38657 0.0
H2176 H 0.90174 0.57256 0.36768 0.0
H2177 H 0.84982 0.57603 0.37306 0.0
C2178 C 0.85773 0.62528 0.41657 0.0
C2179 C 0.86981 0.63423 0.42457 0.0
C2180 C 0.88623 0.63131 0.42082 0.0
C2181 C 0.89057 0.61971 0.40938 0.0
C2182 C 0.87838 0.61106 0.40181 0.0
C2183 C 0.86229 0.61368 0.40521 0.0
C2184 C 0.85161 0.60232 0.39573 0.0
C2185 C 0.8418 0.59141 0.40706 0.0
C2186 C 0.84058 0.6117 0.38417 0.0
C2187 C 0.86423 0.59281 0.38661 0.0
C2188 C 0.87958 0.59811 0.39024 0.0
C2189 C 0.89323 0.59106 0.38351 0.0
C2190 C 0.89114 0.57824 0.37274 0.0
C2191 C 0.87552 0.57259 0.36882 0.0
C2192 C 0.86192 0.58001 0.37589 0.0
H2193 H 0.3774 0.87614 0.42258 0.0
H2194 H 0.36819 0.82514 0.42961 0.0
H2195 H 0.38654 0.81877 0.40704 0.0
H2196 H 0.38068 0.87516 0.37897 0.0
H2197 H 0.3967 0.88982 0.37854 0.0
H2198 H 0.38197 0.89033 0.39447 0.0
H2199 H 0.40479 0.88868 0.41575 0.0
H2200 H 0.41958 0.88819 0.3999 0.0
H2201 H 0.4191 0.87237 0.41477 0.0
H2202 H 0.40709 0.818 0.38451 0.0
H2203 H 0.4286 0.82294 0.36443 0.0
H2204 H 0.42425 0.87439 0.37263 0.0
C2205 C 0.37925 0.86362 0.41942 0.0
C2206 C 0.37134 0.85114 0.42787 0.0
C2207 C 0.37395 0.83492 0.42318 0.0
C2208 C 0.38439 0.83118 0.41041 0.0
C2209 C 0.39208 0.84379 0.40244 0.0
C2210 C 0.38961 0.85968 0.40678 0.0
C2211 C 0.39979 0.87099 0.39676 0.0
C2212 C 0.38915 0.88224 0.38658 0.0
C2213 C 0.41151 0.88062 0.40743 0.0
C2214 C 0.40861 0.85897 0.38631 0.0
C2215 C 0.40391 0.84335 0.38962 0.0
C2216 C 0.41078 0.8302 0.38173 0.0
C2217 C 0.42291 0.83311 0.3703 0.0
C2218 C 0.4281 0.84903 0.36702 0.0
C2219 C 0.42064 0.86208 0.375 0.0
H2220 H 0.11841 0.58145 0.62762 0.0
H2221 H 0.1694 0.57469 0.63727 0.0
H2222 H 0.17584 0.59653 0.61822 0.0
H2223 H 0.12127 0.58874 0.58679 0.0
H2224 H 0.10599 0.60416 0.58601 0.0
H2225 H 0.10521 0.58895 0.60142 0.0
H2226 H 0.10491 0.611 0.62353 0.0
H2227 H 0.10551 0.62633 0.60817 0.0
H2228 H 0.12055 0.62607 0.62383 0.0
H2229 H 0.17683 0.61672 0.59575 0.0
H2230 H 0.17226 0.63498 0.57287 0.0
H2231 H 0.12054 0.63069 0.58005 0.0
C2232 C 0.13092 0.58482 0.62613 0.0
C2233 C 0.14339 0.57619 0.63388 0.0
C2234 C 0.15962 0.58086 0.63124 0.0
C2235 C 0.16341 0.59336 0.62055 0.0
C2236 C 0.15084 0.60132 0.61281 0.0
C2237 C 0.13491 0.59742 0.61567 0.0
C2238 C 0.12369 0.60743 0.60535 0.0
C2239 C 0.11344 0.59667 0.59424 0.0
C2240 C 0.11304 0.61836 0.61585 0.0
C2241 C 0.13584 0.61716 0.59584 0.0
C2242 C 0.15142 0.61349 0.60034 0.0
C2243 C 0.16467 0.62001 0.59238 0.0
C2244 C 0.16192 0.63049 0.57942 0.0
C2245 C 0.14601 0.6345 0.57458 0.0
C2246 C 0.13287 0.62787 0.5832 0.0
H2247 H 0.37848 0.14001 0.57084 0.0
H2248 H 0.37009 0.08853 0.56771 0.0
H2249 H 0.38845 0.08412 0.59078 0.0
H2250 H 0.42044 0.1372 0.57976 0.0
H2251 H 0.42054 0.15415 0.59334 0.0
H2252 H 0.40608 0.1533 0.57719 0.0
H2253 H 0.38282 0.15651 0.59778 0.0
H2254 H 0.39722 0.15735 0.61401 0.0
H2255 H 0.38127 0.14262 0.61441 0.0
H2256 H 0.40772 0.08534 0.61398 0.0
H2257 H 0.42812 0.0919 0.63468 0.0
H2258 H 0.42459 0.14251 0.62211 0.0
C2259 C 0.38042 0.12785 0.57515 0.0
C2260 C 0.37288 0.1146 0.56763 0.0
C2261 C 0.37586 0.09881 0.57334 0.0
C2262 C 0.38616 0.09621 0.58645 0.0
C2263 C 0.39346 0.10952 0.5936 0.0
C2264 C 0.39083 0.12502 0.58809 0.0
C2265 C 0.40076 0.13715 0.59741 0.0
C2266 C 0.41266 0.14597 0.58626 0.0
C2267 C 0.38986 0.14911 0.60644 0.0
C2268 C 0.40943 0.12605 0.60897 0.0
C2269 C 0.40491 0.11018 0.6067 0.0
C2270 C 0.41133 0.09772 0.61592 0.0
C2271 C 0.42282 0.10156 0.62768 0.0
C2272 C 0.42784 0.1177 0.62998 0.0
C2273 C 0.42098 0.13007 0.62054 0.0
H2274 H 0.87281 0.4351 0.61204 0.0
H2275 H 0.87423 0.40395 0.65401 0.0
H2276 H 0.87574 0.3801 0.6362 0.0
H2277 H 0.84793 0.40973 0.58764 0.0
H2278 H 0.85837 0.41442 0.56917 0.0
H2279 H 0.85775 0.42897 0.58526 0.0
H2280 H 0.88895 0.43037 0.58528 0.0
H2281 H 0.88967 0.4158 0.5692 0.0
H2282 H 0.90045 0.4121 0.58769 0.0
H2283 H 0.87619 0.35968 0.61376 0.0
H2284 H 0.87632 0.34417 0.58832 0.0
H2285 H 0.87469 0.3888 0.56114 0.0
C2286 C 0.87336 0.42325 0.61748 0.0
C2287 C 0.87336 0.42134 0.63439 0.0
C2288 C 0.87435 0.40567 0.64107 0.0
C2289 C 0.87514 0.39207 0.63106 0.0
C2290 C 0.87504 0.39439 0.61443 0.0
C2291 C 0.87424 0.40959 0.60769 0.0
C2292 C 0.87429 0.40881 0.58947 0.0
C2293 C 0.85865 0.4159 0.58248 0.0
C2294 C 0.88923 0.41727 0.5825 0.0
C2295 C 0.87511 0.39078 0.587 0.0
C2296 C 0.87551 0.38266 0.60154 0.0
C2297 C 0.87593 0.3659 0.6023 0.0
C2298 C 0.87592 0.35721 0.58781 0.0
C2299 C 0.87554 0.3653 0.57279 0.0
C2300 C 0.8752 0.38231 0.57244 0.0
H2301 H 0.56089 0.87072 0.6051 0.0
H2302 H 0.58373 0.84032 0.64096 0.0
H2303 H 0.60818 0.83871 0.62398 0.0
H2304 H 0.57728 0.85034 0.57025 0.0
H2305 H 0.57967 0.86866 0.55885 0.0
H2306 H 0.56399 0.86716 0.57377 0.0
H2307 H 0.57502 0.89273 0.58793 0.0
H2308 H 0.59079 0.89425 0.57311 0.0
H2309 H 0.5958 0.89332 0.59422 0.0
H2310 H 0.63049 0.84148 0.60359 0.0
H2311 H 0.64851 0.84708 0.58063 0.0
H2312 H 0.61047 0.87475 0.55767 0.0
C2313 C 0.57106 0.86373 0.60937 0.0
C2314 C 0.57048 0.85566 0.62432 0.0
C2315 C 0.58391 0.84647 0.62945 0.0
C2316 C 0.59786 0.84557 0.61995 0.0
C2317 C 0.59808 0.85382 0.60532 0.0
C2318 C 0.58498 0.8626 0.59999 0.0
C2319 C 0.58823 0.87024 0.58376 0.0
C2320 C 0.5766 0.8637 0.5709 0.0
C2321 C 0.58741 0.88873 0.58483 0.0
C2322 C 0.60528 0.86451 0.58085 0.0
C2323 C 0.61077 0.8551 0.59344 0.0
C2324 C 0.62627 0.84869 0.59357 0.0
C2325 C 0.63638 0.85187 0.58042 0.0
C2326 C 0.63092 0.86129 0.56724 0.0
C2327 C 0.61513 0.86767 0.56758 0.0
H2328 H 0.37504 0.15233 0.42797 0.0
H2329 H 0.33864 0.12438 0.40288 0.0
H2330 H 0.35499 0.12544 0.37806 0.0
H2331 H 0.38644 0.17818 0.39309 0.0
H2332 H 0.4074 0.17817 0.39877 0.0
H2333 H 0.39201 0.17673 0.41404 0.0
H2334 H 0.40505 0.15045 0.42472 0.0
H2335 H 0.42041 0.15177 0.4095 0.0
H2336 H 0.40825 0.13384 0.41107 0.0
H2337 H 0.3766 0.12668 0.35715 0.0
H2338 H 0.40184 0.12858 0.34139 0.0
H2339 H 0.42363 0.15678 0.37954 0.0
C2340 C 0.37027 0.14683 0.41714 0.0
C2341 C 0.35555 0.13826 0.41738 0.0
C2342 C 0.34996 0.13086 0.40304 0.0
C2343 C 0.35909 0.13152 0.38885 0.0
C2344 C 0.37369 0.13978 0.38913 0.0
C2345 C 0.37919 0.14744 0.40286 0.0
C2346 C 0.39581 0.15454 0.40028 0.0
C2347 C 0.39538 0.173 0.40162 0.0
C2348 C 0.4081 0.1472 0.41209 0.0
C2349 C 0.39902 0.14922 0.38313 0.0
C2350 C 0.38605 0.14084 0.37687 0.0
C2351 C 0.38669 0.13352 0.36177 0.0
C2352 C 0.40104 0.13462 0.35293 0.0
C2353 C 0.41446 0.14303 0.35921 0.0
C2354 C 0.41333 0.15066 0.37434 0.0
H2355 H 0.86872 0.3864 0.432 0.0
H2356 H 0.83712 0.35067 0.41064 0.0
H2357 H 0.83311 0.36841 0.38698 0.0
H2358 H 0.84693 0.42164 0.41859 0.0
H2359 H 0.86498 0.43312 0.41485 0.0
H2360 H 0.86488 0.41776 0.43019 0.0
H2361 H 0.88929 0.40388 0.41651 0.0
H2362 H 0.88946 0.41917 0.40112 0.0
H2363 H 0.888 0.39822 0.39558 0.0
H2364 H 0.8327 0.39024 0.36564 0.0
H2365 H 0.83687 0.41383 0.34784 0.0
H2366 H 0.8689 0.43485 0.3834 0.0
C2367 C 0.86079 0.3824 0.42243 0.0
C2368 C 0.85313 0.36724 0.42315 0.0
C2369 C 0.84314 0.36224 0.41025 0.0
C2370 C 0.84074 0.37225 0.39683 0.0
C2371 C 0.84849 0.38715 0.39651 0.0
C2372 C 0.85837 0.39216 0.40895 0.0
C2373 C 0.86573 0.40845 0.40549 0.0
C2374 C 0.8603 0.42098 0.41802 0.0
C2375 C 0.88421 0.40735 0.40462 0.0
C2376 C 0.85849 0.41185 0.38913 0.0
C2377 C 0.8485 0.39949 0.38417 0.0
C2378 C 0.84049 0.39999 0.36941 0.0
C2379 C 0.84286 0.41344 0.35943 0.0
C2380 C 0.85325 0.4261 0.36423 0.0
C2381 C 0.86105 0.42526 0.37932 0.0
H2382 H 0.58857 0.8657 0.35642 0.0
H2383 H 0.55671 0.82908 0.37614 0.0
H2384 H 0.5763 0.82365 0.39761 0.0
H2385 H 0.62689 0.84659 0.36684 0.0
H2386 H 0.63624 0.86539 0.37239 0.0
H2387 H 0.62072 0.86505 0.3572 0.0
H2388 H 0.60432 0.88611 0.37341 0.0
H2389 H 0.61977 0.88653 0.38862 0.0
H2390 H 0.59925 0.88202 0.39414 0.0
H2391 H 0.59824 0.82335 0.41805 0.0
H2392 H 0.62047 0.82924 0.43686 0.0
H2393 H 0.63743 0.86705 0.40496 0.0
C2394 C 0.58567 0.85649 0.36517 0.0
C2395 C 0.57109 0.84768 0.36431 0.0
C2396 C 0.56795 0.8357 0.37611 0.0
C2397 C 0.57897 0.83257 0.38848 0.0
C2398 C 0.59307 0.8416 0.38904 0.0
C2399 C 0.59643 0.85338 0.37777 0.0
C2400 C 0.61184 0.86225 0.3819 0.0
C2401 C 0.62468 0.85966 0.3688 0.0
C2402 C 0.60859 0.88029 0.38468 0.0
C2403 C 0.61642 0.85382 0.39742 0.0
C2404 C 0.60555 0.84178 0.40118 0.0
C2405 C 0.60693 0.83263 0.41517 0.0
C2406 C 0.61964 0.83601 0.42574 0.0
C2407 C 0.63072 0.84853 0.42232 0.0
C2408 C 0.62913 0.85742 0.40788 0.0
H2409 H 0.12763 0.61112 0.43273 0.0
H2410 H 0.17251 0.63504 0.42054 0.0
H2411 H 0.17696 0.61538 0.3986 0.0
H2412 H 0.14077 0.57065 0.42488 0.0
H2413 H 0.12172 0.56445 0.41649 0.0
H2414 H 0.12238 0.58015 0.43146 0.0
H2415 H 0.10725 0.5994 0.41207 0.0
H2416 H 0.10653 0.58376 0.39704 0.0
H2417 H 0.11529 0.60304 0.39222 0.0
H2418 H 0.17608 0.59336 0.37756 0.0
H2419 H 0.17022 0.57045 0.35945 0.0
H2420 H 0.12547 0.56177 0.3851 0.0
C2421 C 0.13836 0.61231 0.42539 0.0
C2422 C 0.14972 0.62464 0.42833 0.0
C2423 C 0.16373 0.62559 0.41863 0.0
C2424 C 0.16631 0.61454 0.40608 0.0
C2425 C 0.15478 0.60263 0.40344 0.0
C2426 C 0.1411 0.60145 0.41285 0.0
C2427 C 0.13046 0.58766 0.40747 0.0
C2428 C 0.12874 0.57498 0.42087 0.0
C2429 C 0.11391 0.59384 0.40186 0.0
C2430 C 0.14026 0.58129 0.3935 0.0
C2431 C 0.15425 0.59005 0.39136 0.0
C2432 C 0.16515 0.58642 0.37912 0.0
C2433 C 0.16167 0.57346 0.36884 0.0
C2434 C 0.14739 0.56431 0.37086 0.0
C2435 C 0.13659 0.56837 0.38337 0.0
H2436 H 0.37568 0.85029 0.57249 0.0
H2437 H 0.35195 0.89534 0.58485 0.0
H2438 H 0.36897 0.89758 0.60898 0.0
H2439 H 0.38289 0.83567 0.613 0.0
H2440 H 0.40261 0.82795 0.60819 0.0
H2441 H 0.38726 0.8288 0.59286 0.0
H2442 H 0.40622 0.84565 0.57464 0.0
H2443 H 0.42163 0.8448 0.58987 0.0
H2444 H 0.41486 0.86403 0.58237 0.0
H2445 H 0.38934 0.89557 0.63131 0.0
H2446 H 0.413 0.89054 0.64876 0.0
H2447 H 0.42489 0.84828 0.62044 0.0
C2448 C 0.37401 0.86069 0.58017 0.0
C2449 C 0.36222 0.87252 0.5767 0.0
C2450 C 0.36049 0.88582 0.58734 0.0
C2451 C 0.37021 0.88728 0.60108 0.0
C2452 C 0.38176 0.87548 0.60399 0.0
C2453 C 0.38381 0.86253 0.59374 0.0
C2454 C 0.39793 0.85218 0.59887 0.0
C2455 C 0.39233 0.83514 0.60351 0.0
C2456 C 0.41093 0.85164 0.58566 0.0
C2457 C 0.40364 0.86147 0.61348 0.0
C2458 C 0.39397 0.87471 0.61641 0.0
C2459 C 0.39696 0.88521 0.62917 0.0
C2460 C 0.41035 0.88224 0.63904 0.0
C2461 C 0.42068 0.86904 0.6359 0.0
C2462 C 0.41716 0.85847 0.62305 0.0
H2463 H 0.13438 0.42104 0.6229 0.0
H2464 H 0.09084 0.44667 0.60946 0.0
H2465 H 0.08623 0.4273 0.58737 0.0
H2466 H 0.14737 0.41217 0.58304 0.0
H2467 H 0.15504 0.39243 0.58786 0.0
H2468 H 0.1546 0.4079 0.60307 0.0
H2469 H 0.13791 0.38925 0.62175 0.0
H2470 H 0.13835 0.37369 0.60662 0.0
H2471 H 0.11934 0.38068 0.61444 0.0
H2472 H 0.0867 0.4057 0.56639 0.0
H2473 H 0.09233 0.38328 0.54768 0.0
H2474 H 0.1354 0.37144 0.5749 0.0
C2475 C 0.12378 0.42243 0.61543 0.0
C2476 C 0.11297 0.43536 0.61786 0.0
C2477 C 0.09935 0.43695 0.60769 0.0
C2478 C 0.09659 0.42597 0.59517 0.0
C2479 C 0.10755 0.41346 0.593 0.0
C2480 C 0.12086 0.41161 0.60283 0.0
C2481 C 0.13101 0.39737 0.5976 0.0
C2482 C 0.14801 0.4028 0.59259 0.0
C2483 C 0.13168 0.38449 0.6109 0.0
C2484 C 0.12137 0.3916 0.58322 0.0
C2485 C 0.10785 0.401 0.58084 0.0
C2486 C 0.09719 0.39816 0.5682 0.0
C2487 C 0.10044 0.38535 0.55769 0.0
C2488 C 0.11426 0.37556 0.55987 0.0
C2489 C 0.12481 0.37878 0.57285 0.0
H2490 H 0.56044 0.14479 0.61297 0.0
H2491 H 0.58896 0.15336 0.65587 0.0
H2492 H 0.61368 0.15451 0.63915 0.0
H2493 H 0.58694 0.11892 0.59391 0.0
H2494 H 0.58344 0.12631 0.57379 0.0
H2495 H 0.5679 0.12804 0.5888 0.0
H2496 H 0.56644 0.15889 0.58413 0.0
H2497 H 0.58184 0.15723 0.56891 0.0
H2498 H 0.58454 0.1708 0.58565 0.0
H2499 H 0.6354 0.15106 0.61811 0.0
H2500 H 0.65228 0.14572 0.59428 0.0
H2501 H 0.60915 0.1411 0.56495 0.0
C2502 C 0.57187 0.14723 0.61877 0.0
C2503 C 0.5729 0.14901 0.63564 0.0
C2504 C 0.58799 0.15215 0.64291 0.0
C2505 C 0.60205 0.15274 0.63353 0.0
C2506 C 0.60069 0.15045 0.61693 0.0
C2507 C 0.58593 0.14805 0.60959 0.0
C2508 C 0.58774 0.14526 0.59167 0.0
C2509 C 0.58112 0.12865 0.58676 0.0
C2510 C 0.57966 0.15886 0.58202 0.0
C2511 C 0.60587 0.14591 0.59013 0.0
C2512 C 0.61314 0.14895 0.60479 0.0
C2513 C 0.62983 0.14905 0.6065 0.0
C2514 C 0.63932 0.14606 0.59283 0.0
C2515 C 0.63212 0.14308 0.57761 0.0
C2516 C 0.61513 0.14316 0.57635 0.0
H2517 H 0.85325 0.55742 0.60842 0.0
H2518 H 0.84888 0.58663 0.65159 0.0
H2519 H 0.84488 0.61084 0.63475 0.0
H2520 H 0.8761 0.58511 0.58614 0.0
H2521 H 0.86668 0.58066 0.56708 0.0
H2522 H 0.86759 0.56546 0.5825 0.0
H2523 H 0.83655 0.56219 0.58127 0.0
H2524 H 0.83555 0.57739 0.5658 0.0
H2525 H 0.82385 0.57961 0.58397 0.0
H2526 H 0.84381 0.63213 0.61324 0.0
H2527 H 0.8456 0.64885 0.58873 0.0
H2528 H 0.85008 0.60557 0.55965 0.0
C2529 C 0.85136 0.5689 0.61434 0.0
C2530 C 0.85135 0.57015 0.63131 0.0
C2531 C 0.84871 0.58536 0.6386 0.0
C2532 C 0.84648 0.59918 0.62914 0.0
C2533 C 0.84679 0.59755 0.61244 0.0
C2534 C 0.84907 0.58278 0.6051 0.0
C2535 C 0.84968 0.58437 0.58695 0.0
C2536 C 0.86598 0.57856 0.58029 0.0
C2537 C 0.83556 0.57536 0.57903 0.0
C2538 C 0.84781 0.60241 0.58524 0.0
C2539 C 0.84603 0.60979 0.60005 0.0
C2540 C 0.84494 0.62647 0.60155 0.0
C2541 C 0.84587 0.63586 0.58753 0.0
C2542 C 0.84791 0.62854 0.57222 0.0
C2543 C 0.84863 0.61157 0.57115 0.0
H2544 H 0.36646 0.41256 0.12418 0.0
H2545 H 0.36123 0.42667 0.1743 0.0
H2546 H 0.38131 0.40619 0.18209 0.0
H2547 H 0.37419 0.36941 0.13092 0.0
H2548 H 0.38896 0.36856 0.11502 0.0
H2549 H 0.37243 0.38258 0.11373 0.0
H2550 H 0.39267 0.40612 0.11024 0.0
H2551 H 0.40922 0.39221 0.11156 0.0
H2552 H 0.40818 0.40913 0.12515 0.0
H2553 H 0.40393 0.38584 0.18409 0.0
H2554 H 0.42753 0.36803 0.17989 0.0
H2555 H 0.41859 0.36849 0.12841 0.0
C2556 C 0.3694 0.4113 0.13682 0.0
C2557 C 0.36217 0.42123 0.14861 0.0
C2558 C 0.36633 0.41902 0.16504 0.0
C2559 C 0.3778 0.40746 0.16959 0.0
C2560 C 0.38499 0.39819 0.15759 0.0
C2561 C 0.38091 0.39998 0.14154 0.0
C2562 C 0.39131 0.38956 0.1308 0.0
C2563 C 0.38111 0.37677 0.12211 0.0
C2564 C 0.40091 0.39987 0.11874 0.0
C2565 C 0.40221 0.38198 0.14326 0.0
C2566 C 0.39823 0.38685 0.15868 0.0
C2567 C 0.40705 0.38182 0.17208 0.0
C2568 C 0.42039 0.37171 0.16961 0.0
C2569 C 0.42487 0.36699 0.15384 0.0
C2570 C 0.41548 0.37202 0.14059 0.0
H2571 H 0.41661 0.62591 0.8551 0.0
H2572 H 0.41779 0.63627 0.90637 0.0
H2573 H 0.39576 0.61679 0.91078 0.0
H2574 H 0.373 0.62002 0.8519 0.0
H2575 H 0.37499 0.60382 0.83757 0.0
H2576 H 0.38992 0.61956 0.8383 0.0
H2577 H 0.4123 0.59815 0.84232 0.0
H2578 H 0.39744 0.58237 0.84168 0.0
H2579 H 0.41072 0.58406 0.85878 0.0
H2580 H 0.37527 0.59465 0.90992 0.0
H2581 H 0.35725 0.57187 0.90379 0.0
H2582 H 0.36905 0.57626 0.85298 0.0
C2583 C 0.41217 0.62415 0.86725 0.0
C2584 C 0.41888 0.63265 0.88039 0.0
C2585 C 0.41266 0.63009 0.89608 0.0
C2586 C 0.40021 0.61899 0.89872 0.0
C2587 C 0.39405 0.61064 0.88553 0.0
C2588 C 0.39974 0.61316 0.87009 0.0
C2589 C 0.39148 0.60218 0.85809 0.0
C2590 C 0.38177 0.61199 0.84574 0.0
C2591 C 0.40372 0.59103 0.84973 0.0
C2592 C 0.38051 0.59284 0.86926 0.0
C2593 C 0.38211 0.59796 0.88502 0.0
C2594 C 0.37371 0.5907 0.89759 0.0
C2595 C 0.36342 0.57782 0.89396 0.0
C2596 C 0.36158 0.57234 0.87787 0.0
C2597 C 0.37021 0.58009 0.8654 0.0
H2598 H 0.42635 0.37521 0.87614 0.0
H2599 H 0.42782 0.36439 0.825 0.0
H2600 H 0.40477 0.38277 0.82052 0.0
H2601 H 0.38284 0.37825 0.87959 0.0
H2602 H 0.3838 0.39458 0.89388 0.0
H2603 H 0.39981 0.37995 0.89305 0.0
H2604 H 0.42059 0.40287 0.88875 0.0
H2605 H 0.40466 0.41756 0.88955 0.0
H2606 H 0.41785 0.4168 0.87231 0.0
H2607 H 0.38256 0.40362 0.82156 0.0
H2608 H 0.36284 0.42495 0.82803 0.0
H2609 H 0.37578 0.42143 0.87861 0.0
C2610 C 0.42184 0.37671 0.86399 0.0
C2611 C 0.42888 0.36842 0.8509 0.0
C2612 C 0.42249 0.37053 0.83521 0.0
C2613 C 0.40945 0.38097 0.83255 0.0
C2614 C 0.40291 0.38908 0.84573 0.0
C2615 C 0.40885 0.38699 0.86114 0.0
C2616 C 0.39995 0.39736 0.8732 0.0
C2617 C 0.39107 0.3869 0.88566 0.0
C2618 C 0.41145 0.40936 0.88143 0.0
C2619 C 0.38826 0.40586 0.86213 0.0
C2620 C 0.39008 0.40089 0.84635 0.0
C2621 C 0.38091 0.40747 0.83391 0.0
C2622 C 0.36968 0.41951 0.83772 0.0
C2623 C 0.36771 0.42485 0.85384 0.0
C2624 C 0.37707 0.41775 0.86615 0.0
H2625 H 0.61915 0.42627 0.85117 0.0
H2626 H 0.65612 0.40261 0.87958 0.0
H2627 H 0.64005 0.37755 0.87956 0.0
H2628 H 0.58611 0.40913 0.87083 0.0
H2629 H 0.57388 0.40704 0.853 0.0
H2630 H 0.58893 0.4226 0.85401 0.0
H2631 H 0.60199 0.41181 0.82777 0.0
H2632 H 0.58695 0.39619 0.82666 0.0
H2633 H 0.60802 0.39097 0.82661 0.0
H2634 H 0.6191 0.35581 0.87815 0.0
H2635 H 0.59465 0.339 0.87564 0.0
H2636 H 0.57153 0.37683 0.84795 0.0
C2637 C 0.62404 0.41571 0.85708 0.0
C2638 C 0.63891 0.41636 0.86534 0.0
C2639 C 0.6447 0.4024 0.87328 0.0
C2640 C 0.63572 0.38809 0.87323 0.0
C2641 C 0.62102 0.38793 0.86513 0.0
C2642 C 0.61524 0.40135 0.85716 0.0
C2643 C 0.59865 0.39832 0.85021 0.0
C2644 C 0.58616 0.40996 0.85745 0.0
C2645 C 0.59893 0.39938 0.83171 0.0
C2646 C 0.59586 0.3812 0.85581 0.0
C2647 C 0.60895 0.37537 0.86428 0.0
C2648 C 0.60884 0.36017 0.87139 0.0
C2649 C 0.5949 0.35075 0.86997 0.0
C2650 C 0.58126 0.35659 0.86153 0.0
C2651 C 0.5819 0.37192 0.85418 0.0
H2652 H 0.61902 0.57073 0.85706 0.0
H2653 H 0.62553 0.56345 0.90843 0.0
H2654 H 0.60556 0.58479 0.914 0.0
H2655 H 0.61412 0.61425 0.85885 0.0
H2656 H 0.59909 0.61468 0.84318 0.0
H2657 H 0.61427 0.59916 0.84321 0.0
H2658 H 0.59201 0.57727 0.84279 0.0
H2659 H 0.57677 0.5927 0.84273 0.0
H2660 H 0.57664 0.57739 0.85814 0.0
H2661 H 0.58391 0.6057 0.914 0.0
H2662 H 0.56251 0.62564 0.90841 0.0
H2663 H 0.57047 0.6199 0.85708 0.0
C2664 C 0.61623 0.57366 0.86947 0.0
C2665 C 0.62383 0.56549 0.88233 0.0
C2666 C 0.61998 0.56971 0.89842 0.0
C2667 C 0.60862 0.58175 0.90169 0.0
C2668 C 0.60132 0.58954 0.88874 0.0
C2669 C 0.60502 0.58575 0.87296 0.0
C2670 C 0.5953 0.59585 0.86127 0.0
C2671 C 0.60636 0.60662 0.85103 0.0
C2672 C 0.58454 0.58516 0.85061 0.0
C2673 C 0.58538 0.60574 0.87296 0.0
C2674 C 0.58904 0.60188 0.88875 0.0
C2675 C 0.58102 0.60892 0.9017 0.0
C2676 C 0.56887 0.62016 0.89842 0.0
C2677 C 0.56494 0.6243 0.88234 0.0
C2678 C 0.57342 0.6171 0.86948 0.0
H2679 H 0.6232 0.57334 0.11323 0.0
H2680 H 0.62811 0.56543 0.16471 0.0
H2681 H 0.60928 0.58787 0.16992 0.0
H2682 H 0.62011 0.6169 0.1148 0.0
H2683 H 0.60537 0.61785 0.09888 0.0
H2684 H 0.61992 0.60174 0.09925 0.0
H2685 H 0.59681 0.58074 0.09855 0.0
H2686 H 0.5822 0.59677 0.09816 0.0
H2687 H 0.5812 0.58157 0.11364 0.0
H2688 H 0.58894 0.61034 0.16946 0.0
H2689 H 0.56832 0.63089 0.16333 0.0
H2690 H 0.57684 0.62408 0.11216 0.0
C2691 C 0.6203 0.57629 0.1256 0.0
C2692 C 0.62717 0.56765 0.13856 0.0
C2693 C 0.62318 0.57202 0.15459 0.0
C2694 C 0.61245 0.58471 0.15767 0.0
C2695 C 0.60585 0.59292 0.1446 0.0
C2696 C 0.60963 0.58889 0.12889 0.0
C2697 C 0.60053 0.59929 0.117 0.0
C2698 C 0.61218 0.60955 0.10689 0.0
C2699 C 0.58953 0.58897 0.1062 0.0
C2700 C 0.59084 0.60962 0.12847 0.0
C2701 C 0.59415 0.60584 0.14434 0.0
C2702 C 0.58635 0.61351 0.15707 0.0
C2703 C 0.57473 0.62523 0.15348 0.0
C2704 C 0.57099 0.62914 0.13727 0.0
C2705 C 0.57933 0.62129 0.12467 0.0
H2706 H 0.378 0.56791 0.11493 0.0
H2707 H 0.36043 0.57383 0.1638 0.0
H2708 H 0.37858 0.59715 0.16751 0.0
H2709 H 0.41883 0.57672 0.12353 0.0
H2710 H 0.42251 0.58728 0.1049 0.0
H2711 H 0.40738 0.57177 0.10574 0.0
H2712 H 0.38601 0.59194 0.09517 0.0
H2713 H 0.4011 0.60753 0.09429 0.0
H2714 H 0.38288 0.61068 0.10569 0.0
H2715 H 0.39917 0.61913 0.16619 0.0
H2716 H 0.4214 0.63794 0.16024 0.0
H2717 H 0.42605 0.61725 0.1124 0.0
C2718 C 0.37781 0.57429 0.12631 0.0
C2719 C 0.36781 0.56915 0.13907 0.0
C2720 C 0.36809 0.57756 0.15392 0.0
C2721 C 0.37827 0.59085 0.15609 0.0
C2722 C 0.38809 0.59553 0.14331 0.0
C2723 C 0.38798 0.58751 0.12872 0.0
C2724 C 0.4003 0.59449 0.11721 0.0
C2725 C 0.41301 0.58181 0.11258 0.0
C2726 C 0.39207 0.60158 0.1022 0.0
C2727 C 0.40746 0.6076 0.12768 0.0
C2728 C 0.40016 0.60807 0.14264 0.0
C2729 C 0.40497 0.6189 0.15451 0.0
C2730 C 0.41767 0.62946 0.15105 0.0
C2731 C 0.4255 0.62904 0.13587 0.0
C2732 C 0.42017 0.61803 0.12402 0.0
H2733 H 0.61627 0.43083 0.14162 0.0
H2734 H 0.65409 0.40477 0.11652 0.0
H2735 H 0.63716 0.38036 0.11649 0.0
H2736 H 0.60179 0.39774 0.16615 0.0
H2737 H 0.58095 0.40353 0.16418 0.0
H2738 H 0.59653 0.41863 0.16336 0.0
H2739 H 0.58591 0.42822 0.13559 0.0
H2740 H 0.57028 0.41321 0.13635 0.0
H2741 H 0.58387 0.41386 0.11942 0.0
H2742 H 0.61567 0.35911 0.11813 0.0
H2743 H 0.59097 0.34277 0.12081 0.0
H2744 H 0.56675 0.38324 0.14345 0.0
C2745 C 0.62103 0.42003 0.13608 0.0
C2746 C 0.63659 0.41975 0.12915 0.0
C2747 C 0.64236 0.40525 0.12219 0.0
C2748 C 0.63279 0.39132 0.12203 0.0
C2749 C 0.61747 0.39209 0.12883 0.0
C2750 C 0.61161 0.40608 0.13569 0.0
C2751 C 0.59446 0.40394 0.14152 0.0
C2752 C 0.59338 0.40608 0.15989 0.0
C2753 C 0.58295 0.41549 0.13269 0.0
C2754 C 0.59152 0.38661 0.13668 0.0
C2755 C 0.60498 0.37995 0.1295 0.0
C2756 C 0.60505 0.36419 0.12374 0.0
C2757 C 0.59093 0.35505 0.12522 0.0
C2758 C 0.57689 0.36172 0.13231 0.0
C2759 C 0.57732 0.37769 0.13821 0.0
H2760 H 0.03335 0.28317 0.51106 0.0
H2761 H 0.04494 0.27467 0.46077 0.0
H2762 H 0.01602 0.27164 0.45465 0.0
H2763 H 0.9973 0.25636 0.51314 0.0
H2764 H 0.98676 0.27023 0.5261 0.0
H2765 H 0.00841 0.26886 0.52699 0.0
H2766 H 0.01053 0.29958 0.52173 0.0
H2767 H 0.98894 0.30102 0.52069 0.0
H2768 H 0.00106 0.30802 0.50409 0.0
H2769 H 0.98586 0.27348 0.45331 0.0
H2770 H 0.957 0.27968 0.45695 0.0
H2771 H 0.96513 0.287 0.5081 0.0
C2772 C 0.02983 0.28038 0.49881 0.0
C2773 C 0.04143 0.2791 0.48641 0.0
C2774 C 0.03632 0.27542 0.47053 0.0
C2775 C 0.0199 0.27374 0.46692 0.0
C2776 C 0.00876 0.27563 0.47934 0.0
C2777 C 0.01353 0.27872 0.495 0.0
C2778 C -0.0008 0.2817 0.50587 0.0
C2779 C 0.99784 0.2685 0.51879 0.0
C2780 C -1e-05 0.29858 0.51353 0.0
C2781 C 0.98566 0.28049 0.49374 0.0
C2782 C 0.99137 0.27673 0.47856 0.0
C2783 C 0.9812 0.2761 0.4652 0.0
C2784 C 0.96482 0.2796 0.4674 0.0
C2785 C 0.95879 0.2838 0.48282 0.0
C2786 C 0.96937 0.28391 0.49615 0.0
H2787 H 0.70909 0.0353 0.51399 0.0
H2788 H 0.7124 0.04801 0.46335 0.0
H2789 H 0.71576 0.01934 0.45639 0.0
H2790 H 0.73749 0.00066 0.51272 0.0
H2791 H 0.72553 0.98914 0.52672 0.0
H2792 H 0.7258 0.01082 0.52795 0.0
H2793 H 0.69466 0.01132 0.52567 0.0
H2794 H 0.6943 0.98969 0.52435 0.0
H2795 H 0.68507 0.00164 0.50874 0.0
H2796 H 0.71517 0.98931 0.45457 0.0
H2797 H 0.71101 0.96012 0.45809 0.0
H2798 H 0.70855 0.96683 0.50994 0.0
C2799 C 0.71075 0.03207 0.50146 0.0
C2800 C 0.71058 0.04392 0.48923 0.0
C2801 C 0.7128 0.0392 0.47297 0.0
C2802 C 0.71466 0.02292 0.46887 0.0
C2803 C 0.71439 0.01153 0.48119 0.0
C2804 C 0.71263 0.01589 0.49716 0.0
C2805 C 0.7115 0.00124 0.50796 0.0
C2806 C 0.72594 0.00042 0.51952 0.0
C2807 C 0.69543 0.00096 0.51721 0.0
C2808 C 0.71226 0.98797 0.49548 0.0
C2809 C 0.71414 0.99414 0.48014 0.0
C2810 C 0.71403 0.98429 0.46655 0.0
C2811 C 0.71173 0.96769 0.46869 0.0
C2812 C 0.70951 0.96112 0.4843 0.0
C2813 C 0.71011 0.97144 0.49784 0.0
H2814 H 0.96439 0.71021 0.5039 0.0
H2815 H 0.95394 0.65959 0.49599 0.0
H2816 H 0.98278 0.6543 0.49132 0.0
H2817 H 0.99599 0.71374 0.47394 0.0
H2818 H 0.00824 0.727 0.48602 0.0
H2819 H 0.98666 0.72702 0.48838 0.0
H2820 H 0.98992 0.72123 0.5189 0.0
H2821 H 0.0115 0.72121 0.51663 0.0
H2822 H 0.0015 0.704 0.52531 0.0
H2823 H 0.01235 0.65432 0.48755 0.0
H2824 H 0.04156 0.65939 0.48615 0.0
H2825 H 0.03335 0.70995 0.49678 0.0
C2826 C 0.96823 0.69805 0.50112 0.0
C2827 C 0.95701 0.68528 0.50039 0.0
C2828 C 0.96241 0.66949 0.49683 0.0
C2829 C 0.97872 0.66638 0.49405 0.0
C2830 C 0.98949 0.67919 0.49492 0.0
C2831 C 0.98454 0.6947 0.49845 0.0
C2832 C -0.00124 0.70615 0.4991 0.0
C2833 C 0.99732 0.71925 0.48608 0.0
C2834 C 0.00052 0.71358 0.51599 0.0
C2835 C 0.01243 0.69461 0.49544 0.0
C2836 C 0.00674 0.67916 0.49294 0.0
C2837 C 0.01697 0.66636 0.48942 0.0
C2838 C 0.03352 0.66939 0.48854 0.0
C2839 C 0.03968 0.68508 0.49124 0.0
C2840 C 0.02896 0.69784 0.4947 0.0
H2841 H 0.2907 0.03337 0.50915 0.0
H2842 H 0.26815 0.04325 0.46294 0.0
H2843 H 0.26628 0.01399 0.45779 0.0
H2844 H 0.31398 0.00088 0.49738 0.0
H2845 H 0.31126 0.98955 0.51571 0.0
H2846 H 0.30999 0.01118 0.51609 0.0
H2847 H 0.28149 0.00949 0.52873 0.0
H2848 H 0.2827 0.98781 0.52852 0.0
H2849 H 0.26606 0.99784 0.51882 0.0
H2850 H 0.26939 0.98361 0.45672 0.0
H2851 H 0.27556 0.95462 0.46074 0.0
H2852 H 0.29379 0.9651 0.50851 0.0
C2853 C 0.28488 0.02951 0.49814 0.0
C2854 C 0.27952 0.04073 0.48649 0.0
C2855 C 0.27253 0.03495 0.472 0.0
C2856 C 0.2713 0.01834 0.46901 0.0
C2857 C 0.27688 0.00768 0.48072 0.0
C2858 C 0.28332 0.01306 0.49509 0.0
C2859 C 0.28888 -0.00076 0.50556 0.0
C2860 C 0.30711 0.00028 0.50887 0.0
C2861 C 0.2792 -0.00144 0.52134 0.0
C2862 C 0.28488 0.98519 0.49471 0.0
C2863 C 0.27802 0.99026 0.48039 0.0
C2864 C 0.27445 0.97948 0.46801 0.0
C2865 C 0.27801 0.96311 0.47035 0.0
C2866 C 0.28485 0.95777 0.48501 0.0
C2867 C 0.28818 0.96892 0.49736 0.0
H2868 H 0.50204 0.96616 0.28599 0.0
H2869 H 0.47726 0.95537 0.33082 0.0
H2870 H 0.47382 0.98433 0.33596 0.0
H2871 H 0.5236 0.00092 0.30092 0.0
H2872 H 0.52181 0.01214 0.28241 0.0
H2873 H 0.52219 0.99045 0.28194 0.0
H2874 H 0.49504 0.99024 0.26652 0.0
H2875 H 0.49458 0.01194 0.26695 0.0
H2876 H 0.4779 0.00057 0.27496 0.0
H2877 H 0.47326 0.01402 0.33665 0.0
H2878 H 0.47561 0.0433 0.33289 0.0
H2879 H 0.50064 0.03552 0.28757 0.0
C2880 C 0.49594 0.96992 0.2969 0.0
C2881 C 0.48973 0.95848 0.3079 0.0
C2882 C 0.48179 0.96388 0.32203 0.0
C2883 C 0.47988 0.98031 0.32513 0.0
C2884 C 0.48602 0.99124 0.31403 0.0
C2885 C 0.4939 0.98635 0.30021 0.0
C2886 C 0.49938 0.00074 0.29036 0.0
C2887 C 0.51784 0.00108 0.28882 0.0
C2888 C 0.49124 0.00088 0.27371 0.0
C2889 C 0.49333 0.01442 0.30085 0.0
C2890 C 0.48566 0.0086 0.31442 0.0
C2891 C 0.47912 0.01877 0.32602 0.0
C2892 C 0.48042 0.03539 0.32369 0.0
C2893 C 0.48812 0.04173 0.30983 0.0
C2894 C 0.49471 0.03105 0.2983 0.0
H2895 H 0.9668 0.50806 0.30596 0.0
H2896 H 0.95686 0.47491 0.26672 0.0
H2897 H 0.98612 0.47076 0.26293 0.0
H2898 H 0.00219 0.52659 0.28794 0.0
H2899 H 0.0124 0.52849 0.30702 0.0
H2900 H 0.99072 0.52909 0.30622 0.0
H2901 H 0.9893 0.50563 0.32681 0.0
H2902 H 0.01096 0.50491 0.32762 0.0
H2903 H -0.0003 0.48704 0.32252 0.0
H2904 H 0.01657 0.46949 0.26429 0.0
H2905 H 0.04572 0.47173 0.27028 0.0
H2906 H 0.03521 0.50621 0.30814 0.0
C2907 C 0.97073 0.50017 0.29634 0.0
C2908 C 0.95952 0.49185 0.2866 0.0
C2909 C 0.96522 0.4813 0.27443 0.0
C2910 C 0.98181 0.47894 0.27213 0.0
C2911 C 0.9925 0.48727 0.28204 0.0
C2912 C 0.98717 0.49774 0.29384 0.0
C2913 C 0.00104 0.50499 0.30314 0.0
C2914 C 0.00162 0.52338 0.30094 0.0
C2915 C 0.0002 0.50036 0.32108 0.0
C2916 C 0.01506 0.49687 0.29483 0.0
C2917 C 0.00992 0.48669 0.28269 0.0
C2918 C 0.02073 0.47751 0.2737 0.0
C2919 C 0.03722 0.47879 0.27723 0.0
C2920 C 0.04268 0.48922 0.28959 0.0
C2921 C 0.0314 0.49836 0.29843 0.0
H2922 H 0.50361 0.96156 0.7194 0.0
H2923 H 0.5289 0.95144 0.6747 0.0
H2924 H 0.53305 0.98044 0.67043 0.0
H2925 H 0.4827 0.99601 0.70525 0.0
H2926 H 0.48424 0.00719 0.72381 0.0
H2927 H 0.4842 0.9855 0.72421 0.0
H2928 H 0.51131 0.98561 0.73969 0.0
H2929 H 0.5114 0.00732 0.7394 0.0
H2930 H 0.5283 0.99629 0.73139 0.0
H2931 H 0.53264 0.0101 0.66963 0.0
H2932 H 0.52851 0.03918 0.67275 0.0
H2933 H 0.50433 0.03083 0.71849 0.0
C2934 C 0.51014 0.96547 0.7088 0.0
C2935 C 0.51613 0.9542 0.69751 0.0
C2936 C 0.52455 0.95979 0.68374 0.0
C2937 C 0.52688 0.97626 0.68113 0.0
C2938 C 0.52077 0.98702 0.69241 0.0
C2939 C 0.51265 0.98193 0.70602 0.0
C2940 C 0.50689 0.99618 0.71592 0.0
C2941 C 0.48841 0.99622 0.71738 0.0
C2942 C 0.51496 0.99635 0.73259 0.0
C2943 C 0.51278 0.01001 0.70553 0.0
C2944 C 0.52078 0.00439 0.69207 0.0
C2945 C 0.52668 0.0147 0.68027 0.0
C2946 C 0.52438 0.03126 0.68226 0.0
C2947 C 0.51635 0.03744 0.69604 0.0
C2948 C 0.51053 0.02657 0.70783 0.0
H2949 H 0.96407 0.51877 0.69315 0.0
H2950 H 0.95366 0.4997 0.74077 0.0
H2951 H 0.98274 0.49952 0.74694 0.0
H2952 H 0.99831 0.49651 0.68559 0.0
H2953 H 0.00916 0.51235 0.67544 0.0
H2954 H 0.9875 0.51228 0.67529 0.0
H2955 H 0.98714 0.54105 0.68743 0.0
H2956 H 0.00886 0.54126 0.68754 0.0
H2957 H 0.99787 0.54501 0.7059 0.0
H2958 H 0.01306 0.49845 0.74663 0.0
H2959 H 0.04225 0.498 0.7403 0.0
H2960 H 0.03252 0.51964 0.69381 0.0
C2961 C 0.96777 0.51501 0.70507 0.0
C2962 C 0.95649 0.50922 0.71645 0.0
C2963 C 0.96204 0.50397 0.73174 0.0
C2964 C 0.97854 0.50396 0.73542 0.0
C2965 C 0.98931 0.50948 0.72379 0.0
C2966 C 0.98413 0.51512 0.70901 0.0
C2967 C 0.99816 0.51969 0.69832 0.0
C2968 C 0.99828 0.5096 0.68275 0.0
C2969 C 0.998 0.53784 0.69458 0.0
C2970 C 0.01209 0.51532 0.70921 0.0
C2971 C 0.00675 0.50947 0.72388 0.0
C2972 C 0.01739 0.50335 0.73535 0.0
C2973 C 0.03389 0.50309 0.73167 0.0
C2974 C 0.03951 0.50907 0.71673 0.0
C2975 C 0.02849 0.51545 0.70549 0.0
H2976 H 0.28532 0.47388 0.96306 0.0
H2977 H 0.27626 0.52422 0.9519 0.0
H2978 H 0.27447 0.53028 0.98084 0.0
H2979 H 0.26023 0.47163 -2e-05 0.0
H2980 H 0.27456 0.45885 0.01013 0.0
H2981 H 0.27257 0.4579 0.98852 0.0
H2982 H 0.30313 0.46355 0.9855 0.0
H2983 H 0.30519 0.46464 0.00705 0.0
H2984 H 0.31163 0.4813 0.99469 0.0
H2985 H 0.27693 0.53167 0.01072 0.0
H2986 H 0.2831 0.52813 0.03955 0.0
H2987 H 0.29107 0.47704 0.03151 0.0
C2988 C 0.28273 0.48614 0.96666 0.0
C2989 C 0.28078 0.49851 0.9551 0.0
C2990 C 0.2774 0.5144 0.96042 0.0
C2991 C 0.27647 0.51802 0.97687 0.0
C2992 C 0.27891 0.50564 0.98791 0.0
C2993 C 0.28188 0.48999 0.98305 0.0
C2994 C 0.28541 0.4792 0.99734 0.0
C2995 C 0.27241 0.46612 -0.0009 0.0
C2996 C 0.30234 0.47174 0.99606 0.0
C2997 C 0.28447 0.49134 0.01092 0.0
C2998 C 0.2805 0.50647 0.00524 0.0
C2999 C 0.27975 0.51982 0.01537 0.0
C3000 C 0.28323 0.51767 0.03175 0.0
C3001 C 0.28747 0.50229 0.03785 0.0
C3002 C 0.28792 0.48896 0.02724 0.0
H3003 H 0.4919 0.28413 0.9654 0.0
H3004 H 0.50562 0.33356 0.95556 0.0
H3005 H 0.50287 0.34016 0.98447 0.0
H3006 H 0.46279 0.29244 0.9967 0.0
H3007 H 0.46845 0.27539 0.00891 0.0
H3008 H 0.47092 0.2746 0.98735 0.0
H3009 H 0.50119 0.26782 0.99096 0.0
H3010 H 0.49878 0.26852 0.01252 0.0
H3011 H 0.51372 0.28099 0.00286 0.0
H3012 H 0.49823 0.34154 0.01398 0.0
H3013 H 0.49433 0.33719 0.04313 0.0
H3014 H 0.48494 0.2865 0.0344 0.0
C3015 C 0.49429 0.29631 0.96942 0.0
C3016 C 0.49898 0.30838 0.95841 0.0
C3017 C 0.50214 0.32418 0.96395 0.0
C3018 C 0.50052 0.32804 0.98027 0.0
C3019 C 0.49588 0.3159 0.99087 0.0
C3020 C 0.493 0.30031 0.98576 0.0
C3021 C 0.48886 0.28942 -0.00018 0.0
C3022 C 0.47173 0.28256 0.99809 0.0
C3023 C 0.50139 0.27589 0.00165 0.0
C3024 C 0.48986 0.30135 0.01361 0.0
C3025 C 0.49373 0.31658 0.00811 0.0
C3026 C 0.49521 0.32968 0.01847 0.0
C3027 C 0.49288 0.32711 0.03496 0.0
C3028 C 0.48927 0.31154 0.04092 0.0
C3029 C 0.48771 0.29851 0.0301 0.0
H3030 H 0.7115 0.47855 0.96312 0.0
H3031 H 0.73216 0.52557 0.95346 0.0
H3032 H 0.7367 0.52954 0.9826 0.0
H3033 H 0.68983 0.48935 0.99614 0.0
H3034 H 0.69287 0.4711 0.00752 0.0
H3035 H 0.69386 0.47062 0.98589 0.0
H3036 H 0.72252 0.45832 0.98723 0.0
H3037 H 0.72157 0.4586 0.00894 0.0
H3038 H 0.73799 0.46841 -0.00134 0.0
H3039 H 0.73487 0.53027 0.01255 0.0
H3040 H 0.72794 0.52711 0.04137 0.0
H3041 H 0.70922 0.47934 0.03166 0.0
C3042 C 0.71755 0.48941 0.96709 0.0
C3043 C 0.72154 0.50173 0.95605 0.0
C3044 C 0.72896 0.51601 0.96175 0.0
C3045 C 0.73167 0.51832 0.97825 0.0
C3046 C 0.72706 0.50617 0.98887 0.0
C3047 C 0.72035 0.49189 0.98352 0.0
C3048 C 0.71503 0.48143 0.99749 0.0
C3049 C 0.69682 0.47793 0.99671 0.0
C3050 C 0.72487 0.46576 0.99811 0.0
C3051 C 0.71914 0.49236 0.0115 0.0
C3052 C 0.72624 0.5065 0.00628 0.0
C3053 C 0.72968 0.5191 0.01683 0.0
C3054 C 0.72563 0.51726 0.03312 0.0
C3055 C 0.71825 0.50292 0.03866 0.0
C3056 C 0.71524 0.49024 0.02775 0.0
H3057 H 0.48086 0.70649 0.95916 0.0
H3058 H 0.51773 0.7427 0.95145 0.0
H3059 H 0.52049 0.74607 0.98099 0.0
H3060 H 0.46239 0.72471 0.99533 0.0
H3061 H 0.45908 0.70531 0.00451 0.0
H3062 H 0.45879 0.70727 0.98289 0.0
H3063 H 0.48076 0.68518 0.98059 0.0
H3064 H 0.4812 0.68321 0.00217 0.0
H3065 H 0.49948 0.68764 0.99132 0.0
H3066 H 0.52073 0.74366 0.01134 0.0
H3067 H 0.51844 0.73574 0.03999 0.0
H3068 H 0.48168 0.7008 0.02728 0.0
C3069 C 0.48914 0.71552 0.96366 0.0
C3070 C 0.49891 0.72453 0.95306 0.0
C3071 C 0.51008 0.73576 0.95942 0.0
C3072 C 0.51167 0.73778 0.97614 0.0
C3073 C 0.50202 0.72847 0.98626 0.0
C3074 C 0.49092 0.71762 0.98024 0.0
C3075 C 0.48291 0.70813 0.99356 0.0
C3076 C 0.46471 0.71157 0.9941 0.0
C3077 C 0.4863 0.68998 0.9918 0.0
C3078 C 0.49141 0.71514 0.00806 0.0
C3079 C 0.5023 0.72694 0.00365 0.0
C3080 C 0.51212 0.73455 0.01494 0.0
C3081 C 0.51081 0.72991 0.03115 0.0
C3082 C 0.49982 0.71772 0.03586 0.0
C3083 C 0.48994 0.7104 0.02412 0.0
H3084 H 0.19767 0.24278 0.48993 0.0
H3085 H 0.19364 0.25427 0.54077 0.0
H3086 H 0.21655 0.23613 0.54667 0.0
H3087 H 0.20681 0.20108 0.49519 0.0
H3088 H 0.22067 0.20027 0.47849 0.0
H3089 H 0.20436 0.21456 0.47833 0.0
H3090 H 0.22478 0.23783 0.47421 0.0
H3091 H 0.24117 0.22361 0.47444 0.0
H3092 H 0.24112 0.24033 0.48831 0.0
H3093 H 0.23983 0.21678 0.54692 0.0
H3094 H 0.26091 0.19644 0.54178 0.0
H3095 H 0.24898 0.19707 0.49083 0.0
C3096 C 0.20172 0.24157 0.50228 0.0
C3097 C 0.19399 0.24992 0.51491 0.0
C3098 C 0.19939 0.24786 0.53096 0.0
C3099 C 0.21242 0.23769 0.5344 0.0
C3100 C 0.21982 0.22965 0.52165 0.0
C3101 C 0.21461 0.23139 0.50593 0.0
C3102 C 0.22424 0.22096 0.4945 0.0
C3103 C 0.21337 0.20848 0.48614 0.0
C3104 C 0.23337 0.23131 0.48214 0.0
C3105 C 0.23568 0.21303 0.50626 0.0
C3106 C 0.23302 0.21829 0.52183 0.0
C3107 C 0.242 0.21253 0.53478 0.0
C3108 C 0.25387 0.20092 0.53175 0.0
C3109 C 0.25658 0.19511 0.51591 0.0
C3110 C 0.24741 0.20142 0.50303 0.0
H3111 H 0.75596 0.19648 0.48929 0.0
H3112 H 0.75372 0.18587 0.54049 0.0
H3113 H 0.77574 0.20522 0.54544 0.0
H3114 H 0.7989 0.20136 0.48667 0.0
H3115 H 0.79776 0.21777 0.47249 0.0
H3116 H 0.78214 0.20272 0.47292 0.0
H3117 H 0.76066 0.22501 0.47705 0.0
H3118 H 0.77621 0.24014 0.47661 0.0
H3119 H 0.76275 0.23891 0.49362 0.0
H3120 H 0.79774 0.22595 0.54485 0.0
H3121 H 0.81778 0.24713 0.53878 0.0
H3122 H 0.8052 0.24444 0.48809 0.0
C3123 C 0.76001 0.19829 0.50156 0.0
C3124 C 0.75317 0.1896 0.51449 0.0
C3125 C 0.75897 0.19219 0.53035 0.0
C3126 C 0.7714 0.20322 0.5333 0.0
C3127 C 0.77787 0.21157 0.52028 0.0
C3128 C 0.77235 0.20928 0.50473 0.0
C3129 C 0.78117 0.21996 0.49289 0.0
C3130 C 0.79055 0.20985 0.48052 0.0
C3131 C 0.7695 0.2317 0.48456 0.0
C3132 C 0.79244 0.2287 0.50423 0.0
C3133 C 0.79041 0.22364 0.51996 0.0
C3134 C 0.79947 0.23 0.53258 0.0
C3135 C 0.81086 0.24195 0.52901 0.0
C3136 C 0.81301 0.24741 0.51298 0.0
C3137 C 0.80369 0.24062 0.50048 0.0
H3138 H 0.8118 0.76413 0.48518 0.0
H3139 H 0.81444 0.75529 0.53669 0.0
H3140 H 0.79493 0.77719 0.54143 0.0
H3141 H 0.80733 0.80786 0.48755 0.0
H3142 H 0.79334 0.80863 0.47095 0.0
H3143 H 0.80845 0.79306 0.47169 0.0
H3144 H 0.78616 0.7713 0.46937 0.0
H3145 H 0.771 0.78679 0.46868 0.0
H3146 H 0.76986 0.77117 0.48373 0.0
H3147 H 0.77378 0.79857 0.54048 0.0
H3148 H 0.75265 0.81836 0.53393 0.0
H3149 H 0.76403 0.8136 0.48306 0.0
C3150 C 0.80833 0.76685 0.49746 0.0
C3151 C 0.81471 0.75807 0.51057 0.0
C3152 C 0.80993 0.76205 0.52648 0.0
C3153 C 0.79879 0.7744 0.52929 0.0
C3154 C 0.79261 0.78269 0.51609 0.0
C3155 C 0.79725 0.77915 0.5005 0.0
C3156 C 0.78834 0.78949 0.48841 0.0
C3157 C 0.80007 0.80041 0.47911 0.0
C3158 C 0.77824 0.77906 0.47687 0.0
C3159 C 0.77774 0.79918 0.49964 0.0
C3160 C 0.78046 0.79514 0.51555 0.0
C3161 C 0.77169 0.80202 0.52808 0.0
C3162 C 0.75977 0.81333 0.52423 0.0
C3163 C 0.75674 0.81765 0.50798 0.0
C3164 C 0.76597 0.81051 0.49558 0.0
H3165 H 0.18543 0.76526 0.51257 0.0
H3166 H 0.18821 0.74733 0.4635 0.0
H3167 H 0.21053 0.76611 0.45788 0.0
H3168 H 0.19436 0.80707 0.50318 0.0
H3169 H 0.20619 0.81011 0.52114 0.0
H3170 H 0.19001 0.79565 0.52114 0.0
H3171 H 0.20988 0.7734 0.53038 0.0
H3172 H 0.22614 0.78777 0.53031 0.0
H3173 H 0.22775 0.76952 0.51864 0.0
H3174 H 0.23321 0.78573 0.4579 0.0
H3175 H 0.25435 0.80586 0.46321 0.0
H3176 H 0.23659 0.81157 0.51213 0.0
C3177 C 0.19071 0.76534 0.50064 0.0
C3178 C 0.18501 0.75495 0.48842 0.0
C3179 C 0.19219 0.75541 0.47294 0.0
C3180 C 0.20494 0.76595 0.46966 0.0
C3181 C 0.21033 0.77595 0.48199 0.0
C3182 C 0.20342 0.77583 0.49713 0.0
C3183 C 0.21164 0.78773 0.50826 0.0
C3184 C 0.19985 0.80092 0.51375 0.0
C3185 C 0.21931 0.77908 0.52275 0.0
C3186 C 0.22436 0.79442 0.49702 0.0
C3187 C 0.22338 0.78745 0.48194 0.0
C3188 C 0.234 0.79143 0.4696 0.0
C3189 C 0.24591 0.80295 0.47272 0.0
C3190 C 0.24705 0.81043 0.48804 0.0
C3191 C 0.23611 0.80602 0.50033 0.0
H3192 H 0.48437 0.19159 0.24039 0.0
H3193 H 0.53358 0.17431 0.23659 0.0
H3194 H 0.53787 0.19182 0.21293 0.0
H3195 H 0.47691 0.19507 0.19657 0.0
H3196 H 0.465 0.21308 0.19898 0.0
H3197 H 0.4654 0.19813 0.21474 0.0
H3198 H 0.47445 0.21992 0.2352 0.0
H3199 H 0.47413 0.23489 0.21954 0.0
H3200 H 0.49225 0.23167 0.23107 0.0
H3201 H 0.53756 0.2129 0.19139 0.0
H3202 H 0.53247 0.23586 0.1731 0.0
H3203 H 0.48328 0.2388 0.19045 0.0
C3204 C 0.49592 0.19118 0.23435 0.0
C3205 C 0.50865 0.18159 0.24034 0.0
C3206 C 0.52372 0.1817 0.23232 0.0
C3207 C 0.52623 0.1915 0.2188 0.0
C3208 C 0.51351 0.201 0.21338 0.0
C3209 C 0.49861 0.20084 0.22082 0.0
C3210 C 0.48723 0.21286 0.21317 0.0
C3211 C 0.47278 0.20427 0.2054 0.0
C3212 C 0.4817 0.22559 0.22548 0.0
C3213 C 0.49819 0.22011 0.20053 0.0
C3214 C 0.51326 0.21302 0.20078 0.0
C3215 C 0.52574 0.21839 0.19092 0.0
C3216 C 0.52278 0.23146 0.18065 0.0
C3217 C 0.50747 0.23896 0.18034 0.0
C3218 C 0.49498 0.23304 0.19024 0.0
H3219 H 0.79733 0.48855 0.24908 0.0
H3220 H 0.8165 0.53669 0.24212 0.0
H3221 H 0.7963 0.54167 0.22085 0.0
H3222 H 0.79007 0.48026 0.20786 0.0
H3223 H 0.77168 0.46922 0.21126 0.0
H3224 H 0.78699 0.46974 0.22662 0.0
H3225 H 0.76618 0.48076 0.24714 0.0
H3226 H 0.75079 0.48025 0.23183 0.0
H3227 H 0.755 0.49876 0.24239 0.0
H3228 H 0.77493 0.5411 0.19981 0.0
H3229 H 0.75374 0.53493 0.17991 0.0
H3230 H 0.74853 0.48704 0.2003 0.0
C3231 C 0.79709 0.50021 0.24323 0.0
C3232 C 0.80844 0.51225 0.2472 0.0
C3233 C 0.80798 0.52727 0.23912 0.0
C3234 C 0.79651 0.53024 0.22712 0.0
C3235 C 0.7856 0.51807 0.22337 0.0
C3236 C 0.78576 0.50336 0.23117 0.0
C3237 C 0.77312 0.49211 0.22434 0.0
C3238 C 0.78094 0.47694 0.21709 0.0
C3239 C 0.76053 0.48772 0.23719 0.0
C3240 C 0.76596 0.50275 0.21138 0.0
C3241 C 0.77328 0.5177 0.2111 0.0
C3242 C 0.76907 0.52946 0.19992 0.0
C3243 C 0.7571 0.5258 0.18861 0.0
C3244 C 0.74955 0.5105 0.18854 0.0
C3245 C 0.75396 0.49891 0.20019 0.0
H3246 H 0.501 0.76774 0.17614 0.0
H3247 H 0.47121 0.73194 0.19998 0.0
H3248 H 0.46607 0.751 0.22217 0.0
H3249 H 0.51959 0.78293 0.21164 0.0
H3250 H 0.51988 0.80359 0.20494 0.0
H3251 H 0.52049 0.78748 0.19042 0.0
H3252 H 0.49531 0.79926 0.17619 0.0
H3253 H 0.49461 0.81541 0.1907 0.0
H3254 H 0.47721 0.80276 0.18768 0.0
H3255 H 0.4654 0.77309 0.24239 0.0
H3256 H 0.46925 0.79689 0.25957 0.0
H3257 H 0.49895 0.81886 0.22245 0.0
C3258 C 0.4934 0.76393 0.18603 0.0
C3259 C 0.48643 0.7484 0.18629 0.0
C3260 C 0.47646 0.74388 0.1994 0.0
C3261 C 0.47352 0.75459 0.21209 0.0
C3262 C 0.48058 0.76978 0.21147 0.0
C3263 C 0.49029 0.77449 0.19879 0.0
C3264 C 0.49676 0.79137 0.20134 0.0
C3265 C 0.51528 0.79133 0.20214 0.0
C3266 C 0.4906 0.80288 0.18819 0.0
C3267 C 0.48939 0.79527 0.21757 0.0
C3268 C 0.48004 0.78267 0.22313 0.0
C3269 C 0.47249 0.78314 0.23808 0.0
C3270 C 0.47466 0.79681 0.2477 0.0
C3271 C 0.48425 0.80991 0.24233 0.0
C3272 C 0.49157 0.80909 0.22696 0.0
H3273 H 0.19049 0.48332 0.23804 0.0
H3274 H 0.18236 0.53462 0.24367 0.0
H3275 H 0.20079 0.54003 0.22084 0.0
H3276 H 0.2322 0.48616 0.22966 0.0
H3277 H 0.23235 0.4699 0.21526 0.0
H3278 H 0.21767 0.47009 0.23122 0.0
H3279 H 0.19466 0.46814 0.21019 0.0
H3280 H 0.20928 0.46794 0.19414 0.0
H3281 H 0.19348 0.48284 0.19424 0.0
H3282 H 0.2205 0.53976 0.19785 0.0
H3283 H 0.24143 0.53399 0.17744 0.0
H3284 H 0.23705 0.48287 0.18741 0.0
C3285 C 0.19243 0.49567 0.23429 0.0
C3286 C 0.18498 0.50857 0.24246 0.0
C3287 C 0.18804 0.5246 0.23752 0.0
C3288 C 0.19838 0.52777 0.22455 0.0
C3289 C 0.2056 0.51475 0.21677 0.0
C3290 C 0.20283 0.49903 0.22151 0.0
C3291 C 0.21277 0.48727 0.21176 0.0
C3292 C 0.22444 0.4778 0.22263 0.0
C3293 C 0.20189 0.47588 0.20201 0.0
C3294 C 0.22169 0.49884 0.20089 0.0
C3295 C 0.21724 0.51462 0.20382 0.0
C3296 C 0.22403 0.52745 0.19539 0.0
C3297 C 0.23583 0.52406 0.18379 0.0
C3298 C 0.24079 0.508 0.18088 0.0
C3299 C 0.23351 0.49526 0.18947 0.0
H3300 H 0.48957 0.75451 0.80688 0.0
H3301 H 0.51867 0.71792 0.78349 0.0
H3302 H 0.52234 0.73593 0.75999 0.0
H3303 H 0.46933 0.76886 0.77136 0.0
H3304 H 0.46961 0.78964 0.77768 0.0
H3305 H 0.4692 0.77381 0.79252 0.0
H3306 H 0.49502 0.78541 0.80573 0.0
H3307 H 0.49549 0.80129 0.79095 0.0
H3308 H 0.51278 0.78842 0.79359 0.0
H3309 H 0.52235 0.75775 0.73897 0.0
H3310 H 0.51959 0.78213 0.72223 0.0
H3311 H 0.49126 0.80477 0.75998 0.0
C3312 C 0.4966 0.75024 0.79674 0.0
C3313 C 0.50378 0.73482 0.7969 0.0
C3314 C 0.51315 0.72975 0.78358 0.0
C3315 C 0.51523 0.73985 0.77019 0.0
C3316 C 0.50795 0.75498 0.77042 0.0
C3317 C 0.4989 0.76019 0.78338 0.0
C3318 C 0.49262 0.77711 0.78077 0.0
C3319 C 0.47409 0.77736 0.78057 0.0
C3320 C 0.49939 0.78874 0.79352 0.0
C3321 C 0.49949 0.78059 0.76426 0.0
C3322 C 0.50825 0.76766 0.75848 0.0
C3323 C 0.51563 0.768 0.74342 0.0
C3324 C 0.51408 0.78196 0.73406 0.0
C3325 C 0.50531 0.79546 0.73982 0.0
C3326 C 0.49791 0.79465 0.75514 0.0
H3327 H 0.24418 0.47882 0.79846 0.0
H3328 H 0.255 0.53002 0.79925 0.0
H3329 H 0.23608 0.53433 0.77677 0.0
H3330 H 0.23999 0.47477 0.75561 0.0
H3331 H 0.22342 0.46079 0.75685 0.0
H3332 H 0.23813 0.4616 0.77278 0.0
H3333 H 0.21546 0.46668 0.79365 0.0
H3334 H 0.20067 0.46582 0.7778 0.0
H3335 H 0.20176 0.48327 0.79068 0.0
H3336 H 0.21596 0.53318 0.7544 0.0
H3337 H 0.1951 0.52676 0.73421 0.0
H3338 H 0.19689 0.47643 0.74834 0.0
C3339 C 0.24249 0.49096 0.79401 0.0
C3340 C 0.25119 0.50406 0.80056 0.0
C3341 C 0.24872 0.51974 0.79424 0.0
C3342 C 0.23793 0.52233 0.78153 0.0
C3343 C 0.22964 0.50915 0.77531 0.0
C3344 C 0.23171 0.49379 0.78138 0.0
C3345 C 0.22108 0.48175 0.77271 0.0
C3346 C 0.23127 0.46898 0.76397 0.0
C3347 C 0.20902 0.47393 0.78441 0.0
C3348 C 0.21268 0.49278 0.76087 0.0
C3349 C 0.21787 0.50851 0.76251 0.0
C3350 C 0.21184 0.52089 0.75294 0.0
C3351 C 0.20008 0.51711 0.74144 0.0
C3352 C 0.19446 0.50109 0.73966 0.0
C3353 C 0.20091 0.48879 0.74949 0.0
H3354 H 0.50844 0.18207 0.76638 0.0
H3355 H 0.45708 0.17948 0.757 0.0
H3356 H 0.45217 0.19956 0.77841 0.0
H3357 H 0.50532 0.18796 0.8107 0.0
H3358 H 0.52211 0.20173 0.81101 0.0
H3359 H 0.52139 0.18582 0.79624 0.0
H3360 H 0.52447 0.2069 0.77341 0.0
H3361 H 0.52509 0.22286 0.78807 0.0
H3362 H 0.51034 0.22335 0.77213 0.0
H3363 H 0.45308 0.22179 0.79865 0.0
H3364 H 0.45975 0.24433 0.81695 0.0
H3365 H 0.51046 0.23218 0.81344 0.0
C3366 C 0.49613 0.1854 0.76915 0.0
C3367 C 0.48313 0.17923 0.76008 0.0
C3368 C 0.46721 0.18417 0.76375 0.0
C3369 C 0.4643 0.19547 0.77594 0.0
C3370 C 0.47742 0.20161 0.78441 0.0
C3371 C 0.49301 0.19667 0.78127 0.0
C3372 C 0.50506 0.20595 0.79134 0.0
C3373 C 0.51399 0.19469 0.80302 0.0
C3374 C 0.51693 0.21532 0.78059 0.0
C3375 C 0.49384 0.2172 0.80027 0.0
C3376 C 0.47794 0.21441 0.7962 0.0
C3377 C 0.46546 0.22395 0.80211 0.0
C3378 C 0.46936 0.23677 0.81238 0.0
C3379 C 0.48559 0.23989 0.8166 0.0
C3380 C 0.49793 0.22984 0.81062 0.0
H3381 H 0.75984 0.49027 0.81151 0.0
H3382 H 0.72344 0.51813 0.78645 0.0
H3383 H 0.74172 0.52099 0.76305 0.0
H3384 H 0.79434 0.51221 0.79751 0.0
H3385 H 0.80682 0.49457 0.79539 0.0
H3386 H 0.79093 0.49489 0.81017 0.0
H3387 H 0.77875 0.46896 0.79773 0.0
H3388 H 0.79461 0.46855 0.78292 0.0
H3389 H 0.77384 0.46855 0.77657 0.0
H3390 H 0.76428 0.5216 0.74294 0.0
H3391 H 0.789 0.51836 0.72658 0.0
H3392 H 0.81015 0.48903 0.76429 0.0
C3393 C 0.75579 0.49702 0.8011 0.0
C3394 C 0.74034 0.50407 0.80071 0.0
C3395 C 0.73526 0.51261 0.78686 0.0
C3396 C 0.74556 0.51434 0.77359 0.0
C3397 C 0.76077 0.50728 0.77436 0.0
C3398 C 0.76582 0.49865 0.78768 0.0
C3399 C 0.78259 0.49193 0.78528 0.0
C3400 C 0.79436 0.49882 0.79783 0.0
C3401 C 0.78243 0.4734 0.78564 0.0
C3402 C 0.78624 0.49822 0.76857 0.0
C3403 C 0.77354 0.50716 0.76254 0.0
C3404 C 0.77426 0.51456 0.74749 0.0
C3405 C 0.78833 0.51272 0.73834 0.0
C3406 C 0.80135 0.50343 0.74423 0.0
C3407 C 0.80026 0.49606 0.7595 0.0
loop_
_geom_bond_atom_site_label_1
_geom_bond_atom_site_label_2
_geom_bond_distance
_geom_bond_site_symmetry_2
_ccdc_geom_bond_type
Li0 N17 1.990 . S
Li0 O60 1.956 . S
Li0 O61 1.970 . S
Li0 O62 1.961 . S
Li1 N25 1.990 . S
Li1 O60 1.970 . S
Li1 O61 1.956 . S
Li1 O63 1.961 . S
Li2 N47 1.990 . S
Li2 O60 1.961 . S
Li2 O62 1.956 . S
Li2 O63 1.970 . S
Li3 N53 1.990 . S
Li3 O61 1.961 . S
Li3 O62 1.970 . S
Li3 O63 1.956 . S
C4 C6 1.348 . S
C4 C7 1.356 . S
C4 O60 1.325 . S
N5 C8 1.314 . S
N5 C9 1.279 . S
C6 C4 1.348 . S
C6 C8 1.353 . S
C6 H64 0.929 . S
C7 C4 1.356 . S
C7 C9 1.358 . S
C7 H65 0.930 . S
C8 N5 1.314 . S
C8 C6 1.353 . S
C8 H66 0.930 . S
C9 N5 1.279 . S
C9 C7 1.358 . S
C9 H67 0.930 . S
C10 C13 1.348 . S
C10 C14 1.356 . S
C10 O61 1.325 . S
C11 N12 1.279 . S
C11 C14 1.358 . S
C11 H68 0.930 . S
N12 C11 1.279 . S
N12 C15 1.314 . S
C13 C10 1.348 . S
C13 C15 1.353 . S
C13 H69 0.929 . S
C14 C10 1.356 . S
C14 C11 1.358 . S
C14 H70 0.930 . S
C15 N12 1.314 . S
C15 C13 1.353 . S
C15 H71 0.930 . S
C16 N17 1.314 . S
C16 C21 1.353 . S
C16 H22 0.930 . S
N17 Li0 1.990 . S
N17 C16 1.314 . S
N17 C19 1.279 . S
C18 C19 1.358 . S
C18 C20 1.356 . S
C18 H72 0.930 . S
C19 N17 1.279 . S
C19 C18 1.358 . S
C19 H23 0.930 . S
C20 C18 1.356 . S
C20 C21 1.348 . S
C21 C16 1.353 . S
C21 C20 1.348 . S
C21 H73 0.929 . S
H22 C16 0.930 . S
H23 C19 0.930 . S
C24 N25 1.314 . S
C24 C26 1.353 . S
C24 H30 0.930 . S
N25 Li1 1.990 . S
N25 C24 1.314 . S
N25 C28 1.279 . S
C26 C24 1.353 . S
C26 C29 1.348 . S
C26 H74 0.929 . S
C27 C28 1.358 . S
C27 C29 1.356 . S
C27 H75 0.930 . S
C28 N25 1.279 . S
C28 C27 1.358 . S
C28 H31 0.930 . S
C29 C26 1.348 . S
C29 C27 1.356 . S
H30 C24 0.930 . S
H31 C28 0.930 . S
C32 C34 1.348 . S
C32 C35 1.356 . S
C32 O62 1.325 . S
N33 C36 1.314 . S
N33 C37 1.279 . S
C34 C32 1.348 . S
C34 C36 1.353 . S
C34 H76 0.929 . S
C35 C32 1.356 . S
C35 C37 1.358 . S
C35 H77 0.930 . S
C36 N33 1.314 . S
C36 C34 1.353 . S
C36 H78 0.930 . S
C37 N33 1.279 . S
C37 C35 1.358 . S
C37 H79 0.930 . S
C38 C39 1.348 . S
C38 C40 1.356 . S
C38 O63 1.325 . S
C39 C38 1.348 . S
C39 C41 1.353 . S
C39 H80 0.929 . S
C40 C38 1.356 . S
C40 C42 1.358 . S
C40 H81 0.930 . S
C41 C39 1.353 . S
C41 N43 1.314 . S
C41 H82 0.930 . S
C42 C40 1.358 . S
C42 N43 1.279 . S
C42 H83 0.930 . S
N43 C41 1.314 . S
N43 C42 1.279 . S
C44 C46 1.353 . S
C44 N47 1.314 . S
C44 H50 0.930 . S
C45 N47 1.279 . S
C45 C48 1.358 . S
C45 H51 0.930 . S
C46 C44 1.353 . S
C46 C49 1.348 . S
C46 H84 0.929 . S
N47 Li2 1.990 . S
N47 C44 1.314 . S
N47 C45 1.279 . S
C48 C45 1.358 . S
C48 C49 1.356 . S
C48 H85 0.930 . S
C49 C46 1.348 . S
C49 C48 1.356 . S
H50 C44 0.930 . S
H51 C45 0.930 . S
C52 N53 1.314 . S
C52 C54 1.353 . S
C52 H58 0.930 . S
N53 Li3 1.990 . S
N53 C52 1.314 . S
N53 C56 1.279 . S
C54 C52 1.353 . S
C54 C57 1.348 . S
C54 H86 0.929 . S
C55 C56 1.358 . S
C55 C57 1.356 . S
C55 H87 0.930 . S
C56 N53 1.279 . S
C56 C55 1.358 . S
C56 H59 0.930 . S
C57 C54 1.348 . S
C57 C55 1.356 . S
H58 C52 0.930 . S
H59 C56 0.930 . S
O60 Li0 1.956 . S
O60 Li1 1.970 . S
O60 Li2 1.961 . S
O60 C4 1.325 . S
O61 Li0 1.970 . S
O61 Li1 1.956 . S
O61 Li3 1.961 . S
O61 C10 1.325 . S
O62 Li0 1.961 . S
O62 Li2 1.956 . S
O62 Li3 1.970 . S
O62 C32 1.325 . S
O63 Li1 1.961 . S
O63 Li2 1.970 . S
O63 Li3 1.956 . S
O63 C38 1.325 . S
H64 C6 0.929 . S
H65 C7 0.930 . S
H66 C8 0.930 . S
H67 C9 0.930 . S
H68 C11 0.930 . S
H69 C13 0.929 . S
H70 C14 0.930 . S
H71 C15 0.930 . S
H72 C18 0.930 . S
H73 C21 0.929 . S
H74 C26 0.929 . S
H75 C27 0.930 . S
H76 C34 0.929 . S
H77 C35 0.930 . S
H78 C36 0.930 . S
H79 C37 0.930 . S
H80 C39 0.929 . S
H81 C40 0.930 . S
H82 C41 0.930 . S
H83 C42 0.930 . S
H84 C46 0.929 . S
H85 C48 0.930 . S
H86 C54 0.929 . S
H87 C55 0.930 . S
Li88 N105 1.990 . S
Li88 O148 1.956 . S
Li88 O149 1.970 . S
Li88 O150 1.961 . S
Li89 N113 1.990 . S
Li89 O148 1.970 . S
Li89 O149 1.956 . S
Li89 O151 1.961 . S
Li90 N135 1.990 . S
Li90 O148 1.961 . S
Li90 O150 1.956 . S
Li90 O151 1.970 . S
Li91 N141 1.990 . S
Li91 O149 1.961 . S
Li91 O150 1.970 . S
Li91 O151 1.956 . S
C92 C94 1.348 . S
C92 C95 1.356 . S
C92 O148 1.325 . S
N93 C96 1.314 . S
N93 C97 1.279 . S
C94 C92 1.348 . S
C94 C96 1.353 . S
C94 H152 0.929 . S
C95 C92 1.356 . S
C95 C97 1.358 . S
C95 H153 0.930 . S
C96 N93 1.314 . S
C96 C94 1.353 . S
C96 H154 0.930 . S
C97 N93 1.279 . S
C97 C95 1.358 . S
C97 H155 0.930 . S
C98 C101 1.348 . S
C98 C102 1.356 . S
C98 O149 1.325 . S
C99 N100 1.279 . S
C99 C102 1.358 . S
C99 H156 0.930 . S
N100 C99 1.279 . S
N100 C103 1.314 . S
C101 C98 1.348 . S
C101 C103 1.353 . S
C101 H157 0.929 . S
C102 C98 1.356 . S
C102 C99 1.358 . S
C102 H158 0.930 . S
C103 N100 1.314 . S
C103 C101 1.353 . S
C103 H159 0.930 . S
C104 N105 1.314 . S
C104 C109 1.353 . S
C104 H110 0.930 . S
N105 Li88 1.990 . S
N105 C104 1.314 . S
N105 C107 1.279 . S
C106 C107 1.358 . S
C106 C108 1.356 . S
C106 H160 0.930 . S
C107 N105 1.279 . S
C107 C106 1.358 . S
C107 H111 0.930 . S
C108 C106 1.356 . S
C108 C109 1.348 . S
C109 C104 1.353 . S
C109 C108 1.348 . S
C109 H161 0.929 . S
H110 C104 0.930 . S
H111 C107 0.930 . S
C112 N113 1.314 . S
C112 C114 1.353 . S
C112 H118 0.930 . S
N113 Li89 1.990 . S
N113 C112 1.314 . S
N113 C116 1.279 . S
C114 C112 1.353 . S
C114 C117 1.348 . S
C114 H162 0.929 . S
C115 C116 1.358 . S
C115 C117 1.356 . S
C115 H163 0.930 . S
C116 N113 1.279 . S
C116 C115 1.358 . S
C116 H119 0.930 . S
C117 C114 1.348 . S
C117 C115 1.356 . S
H118 C112 0.930 . S
H119 C116 0.930 . S
C120 C122 1.348 . S
C120 C123 1.356 . S
C120 O150 1.325 . S
N121 C124 1.314 . S
N121 C125 1.279 . S
C122 C120 1.348 . S
C122 C124 1.353 . S
C122 H164 0.929 . S
C123 C120 1.356 . S
C123 C125 1.358 . S
C123 H165 0.930 . S
C124 N121 1.314 . S
C124 C122 1.353 . S
C124 H166 0.930 . S
C125 N121 1.279 . S
C125 C123 1.358 . S
C125 H167 0.930 . S
C126 C127 1.348 . S
C126 C128 1.356 . S
C126 O151 1.325 . S
C127 C126 1.348 . S
C127 C129 1.353 . S
C127 H168 0.929 . S
C128 C126 1.356 . S
C128 C130 1.358 . S
C128 H169 0.930 . S
C129 C127 1.353 . S
C129 N131 1.314 . S
C129 H170 0.930 . S
C130 C128 1.358 . S
C130 N131 1.279 . S
C130 H171 0.930 . S
N131 C129 1.314 . S
N131 C130 1.279 . S
C132 C134 1.353 . S
C132 N135 1.314 . S
C132 H138 0.930 . S
C133 N135 1.279 . S
C133 C136 1.358 . S
C133 H139 0.930 . S
C134 C132 1.353 . S
C134 C137 1.348 . S
C134 H172 0.929 . S
N135 Li90 1.990 . S
N135 C132 1.314 . S
N135 C133 1.279 . S
C136 C133 1.358 . S
C136 C137 1.356 . S
C136 H173 0.930 . S
C137 C134 1.348 . S
C137 C136 1.356 . S
H138 C132 0.930 . S
H139 C133 0.930 . S
C140 N141 1.314 . S
C140 C142 1.353 . S
C140 H146 0.930 . S
N141 Li91 1.990 . S
N141 C140 1.314 . S
N141 C144 1.279 . S
C142 C140 1.353 . S
C142 C145 1.348 . S
C142 H174 0.929 . S
C143 C144 1.358 . S
C143 C145 1.356 . S
C143 H175 0.930 . S
C144 N141 1.279 . S
C144 C143 1.358 . S
C144 H147 0.930 . S
C145 C142 1.348 . S
C145 C143 1.356 . S
H146 C140 0.930 . S
H147 C144 0.930 . S
O148 Li88 1.956 . S
O148 Li89 1.970 . S
O148 Li90 1.961 . S
O148 C92 1.325 . S
O149 Li88 1.970 . S
O149 Li89 1.956 . S
O149 Li91 1.961 . S
O149 C98 1.325 . S
O150 Li88 1.961 . S
O150 Li90 1.956 . S
O150 Li91 1.970 . S
O150 C120 1.325 . S
O151 Li89 1.961 . S
O151 Li90 1.970 . S
O151 Li91 1.956 . S
O151 C126 1.325 . S
H152 C94 0.929 . S
H153 C95 0.930 . S
H154 C96 0.930 . S
H155 C97 0.930 . S
H156 C99 0.930 . S
H157 C101 0.929 . S
H158 C102 0.930 . S
H159 C103 0.930 . S
H160 C106 0.930 . S
H161 C109 0.929 . S
H162 C114 0.929 . S
H163 C115 0.930 . S
H164 C122 0.929 . S
H165 C123 0.930 . S
H166 C124 0.930 . S
H167 C125 0.930 . S
H168 C127 0.929 . S
H169 C128 0.930 . S
H170 C129 0.930 . S
H171 C130 0.930 . S
H172 C134 0.929 . S
H173 C136 0.930 . S
H174 C142 0.929 . S
H175 C143 0.930 . S
Li176 N193 1.990 . S
Li176 O236 1.956 . S
Li176 O237 1.970 . S
Li176 O238 1.961 . S
Li177 N201 1.990 . S
Li177 O236 1.970 . S
Li177 O237 1.956 . S
Li177 O239 1.961 . S
Li178 N223 1.990 . S
Li178 O236 1.961 . S
Li178 O238 1.956 . S
Li178 O239 1.970 . S
Li179 N229 1.990 . S
Li179 O237 1.961 . S
Li179 O238 1.970 . S
Li179 O239 1.956 . S
C180 C182 1.348 . S
C180 C183 1.356 . S
C180 O236 1.325 . S
N181 C184 1.314 . S
N181 C185 1.279 . S
C182 C180 1.348 . S
C182 C184 1.353 . S
C182 H240 0.929 . S
C183 C180 1.356 . S
C183 C185 1.358 . S
C183 H241 0.930 . S
C184 N181 1.314 . S
C184 C182 1.353 . S
C184 H242 0.930 . S
C185 N181 1.279 . S
C185 C183 1.358 . S
C185 H243 0.930 . S
C186 C189 1.348 . S
C186 C190 1.356 . S
C186 O237 1.325 . S
C187 N188 1.279 . S
C187 C190 1.358 . S
C187 H244 0.930 . S
N188 C187 1.279 . S
N188 C191 1.314 . S
C189 C186 1.348 . S
C189 C191 1.353 . S
C189 H245 0.929 . S
C190 C186 1.356 . S
C190 C187 1.358 . S
C190 H246 0.930 . S
C191 N188 1.314 . S
C191 C189 1.353 . S
C191 H247 0.930 . S
C192 N193 1.314 . S
C192 C197 1.353 . S
C192 H198 0.930 . S
N193 Li176 1.990 . S
N193 C192 1.314 . S
N193 C195 1.279 . S
C194 C195 1.358 . S
C194 C196 1.356 . S
C194 H248 0.930 . S
C195 N193 1.279 . S
C195 C194 1.358 . S
C195 H199 0.930 . S
C196 C194 1.356 . S
C196 C197 1.348 . S
C197 C192 1.353 . S
C197 C196 1.348 . S
C197 H249 0.929 . S
H198 C192 0.930 . S
H199 C195 0.930 . S
C200 N201 1.314 . S
C200 C202 1.353 . S
C200 H206 0.930 . S
N201 Li177 1.990 . S
N201 C200 1.314 . S
N201 C204 1.279 . S
C202 C200 1.353 . S
C202 C205 1.348 . S
C202 H250 0.929 . S
C203 C204 1.358 . S
C203 C205 1.356 . S
C203 H251 0.930 . S
C204 N201 1.279 . S
C204 C203 1.358 . S
C204 H207 0.930 . S
C205 C202 1.348 . S
C205 C203 1.356 . S
H206 C200 0.930 . S
H207 C204 0.930 . S
C208 C210 1.348 . S
C208 C211 1.356 . S
C208 O238 1.325 . S
N209 C212 1.314 . S
N209 C213 1.279 . S
C210 C208 1.348 . S
C210 C212 1.353 . S
C210 H252 0.929 . S
C211 C208 1.356 . S
C211 C213 1.358 . S
C211 H253 0.930 . S
C212 N209 1.314 . S
C212 C210 1.353 . S
C212 H254 0.930 . S
C213 N209 1.279 . S
C213 C211 1.358 . S
C213 H255 0.930 . S
C214 C215 1.348 . S
C214 C216 1.356 . S
C214 O239 1.325 . S
C215 C214 1.348 . S
C215 C217 1.353 . S
C215 H256 0.929 . S
C216 C214 1.356 . S
C216 C218 1.358 . S
C216 H257 0.930 . S
C217 C215 1.353 . S
C217 N219 1.314 . S
C217 H258 0.930 . S
C218 C216 1.358 . S
C218 N219 1.279 . S
C218 H259 0.930 . S
N219 C217 1.314 . S
N219 C218 1.279 . S
C220 C222 1.353 . S
C220 N223 1.314 . S
C220 H226 0.930 . S
C221 N223 1.279 . S
C221 C224 1.358 . S
C221 H227 0.930 . S
C222 C220 1.353 . S
C222 C225 1.348 . S
C222 H260 0.929 . S
N223 Li178 1.990 . S
N223 C220 1.314 . S
N223 C221 1.279 . S
C224 C221 1.358 . S
C224 C225 1.356 . S
C224 H261 0.930 . S
C225 C222 1.348 . S
C225 C224 1.356 . S
H226 C220 0.930 . S
H227 C221 0.930 . S
C228 N229 1.314 . S
C228 C230 1.353 . S
C228 H234 0.930 . S
N229 Li179 1.990 . S
N229 C228 1.314 . S
N229 C232 1.279 . S
C230 C228 1.353 . S
C230 C233 1.348 . S
C230 H262 0.929 . S
C231 C232 1.358 . S
C231 C233 1.356 . S
C231 H263 0.930 . S
C232 N229 1.279 . S
C232 C231 1.358 . S
C232 H235 0.930 . S
C233 C230 1.348 . S
C233 C231 1.356 . S
H234 C228 0.930 . S
H235 C232 0.930 . S
O236 Li176 1.956 . S
O236 Li177 1.970 . S
O236 Li178 1.961 . S
O236 C180 1.325 . S
O237 Li176 1.970 . S
O237 Li177 1.956 . S
O237 Li179 1.961 . S
O237 C186 1.325 . S
O238 Li176 1.961 . S
O238 Li178 1.956 . S
O238 Li179 1.970 . S
O238 C208 1.325 . S
O239 Li177 1.961 . S
O239 Li178 1.970 . S
O239 Li179 1.956 . S
O239 C214 1.325 . S
H240 C182 0.929 . S
H241 C183 0.930 . S
H242 C184 0.930 . S
H243 C185 0.930 . S
H244 C187 0.930 . S
H245 C189 0.929 . S
H246 C190 0.930 . S
H247 C191 0.930 . S
H248 C194 0.930 . S
H249 C197 0.929 . S
H250 C202 0.929 . S
H251 C203 0.930 . S
H252 C210 0.929 . S
H253 C211 0.930 . S
H254 C212 0.930 . S
H255 C213 0.930 . S
H256 C215 0.929 . S
H257 C216 0.930 . S
H258 C217 0.930 . S
H259 C218 0.930 . S
H260 C222 0.929 . S
H261 C224 0.930 . S
H262 C230 0.929 . S
H263 C231 0.930 . S
Li264 N281 1.990 . S
Li264 O324 1.956 . S
Li264 O325 1.970 . S
Li264 O326 1.961 . S
Li265 N289 1.990 . S
Li265 O324 1.970 . S
Li265 O325 1.956 . S
Li265 O327 1.961 . S
Li266 N311 1.990 . S
Li266 O324 1.961 . S
Li266 O326 1.956 . S
Li266 O327 1.970 . S
Li267 N317 1.990 . S
Li267 O325 1.961 . S
Li267 O326 1.970 . S
Li267 O327 1.956 . S
C268 C270 1.348 . S
C268 C271 1.356 . S
C268 O324 1.325 . S
N269 C272 1.314 . S
N269 C273 1.279 . S
C270 C268 1.348 . S
C270 C272 1.353 . S
C270 H328 0.929 . S
C271 C268 1.356 . S
C271 C273 1.358 . S
C271 H329 0.930 . S
C272 N269 1.314 . S
C272 C270 1.353 . S
C272 H330 0.930 . S
C273 N269 1.279 . S
C273 C271 1.358 . S
C273 H331 0.930 . S
C274 C277 1.348 . S
C274 C278 1.356 . S
C274 O325 1.325 . S
C275 N276 1.279 . S
C275 C278 1.358 . S
C275 H332 0.930 . S
N276 C275 1.279 . S
N276 C279 1.314 . S
C277 C274 1.348 . S
C277 C279 1.353 . S
C277 H333 0.929 . S
C278 C274 1.356 . S
C278 C275 1.358 . S
C278 H334 0.930 . S
C279 N276 1.314 . S
C279 C277 1.353 . S
C279 H335 0.930 . S
C280 N281 1.314 . S
C280 C285 1.353 . S
C280 H286 0.930 . S
N281 Li264 1.990 . S
N281 C280 1.314 . S
N281 C283 1.279 . S
C282 C283 1.358 . S
C282 C284 1.356 . S
C282 H336 0.930 . S
C283 N281 1.279 . S
C283 C282 1.358 . S
C283 H287 0.930 . S
C284 C282 1.356 . S
C284 C285 1.348 . S
C285 C280 1.353 . S
C285 C284 1.348 . S
C285 H337 0.929 . S
H286 C280 0.930 . S
H287 C283 0.930 . S
C288 N289 1.314 . S
C288 C290 1.353 . S
C288 H294 0.930 . S
N289 Li265 1.990 . S
N289 C288 1.314 . S
N289 C292 1.279 . S
C290 C288 1.353 . S
C290 C293 1.348 . S
C290 H338 0.929 . S
C291 C292 1.358 . S
C291 C293 1.356 . S
C291 H339 0.930 . S
C292 N289 1.279 . S
C292 C291 1.358 . S
C292 H295 0.930 . S
C293 C290 1.348 . S
C293 C291 1.356 . S
H294 C288 0.930 . S
H295 C292 0.930 . S
C296 C298 1.348 . S
C296 C299 1.356 . S
C296 O326 1.325 . S
N297 C300 1.314 . S
N297 C301 1.279 . S
C298 C296 1.348 . S
C298 C300 1.353 . S
C298 H340 0.929 . S
C299 C296 1.356 . S
C299 C301 1.358 . S
C299 H341 0.930 . S
C300 N297 1.314 . S
C300 C298 1.353 . S
C300 H342 0.930 . S
C301 N297 1.279 . S
C301 C299 1.358 . S
C301 H343 0.930 . S
C302 C303 1.348 . S
C302 C304 1.356 . S
C302 O327 1.325 . S
C303 C302 1.348 . S
C303 C305 1.353 . S
C303 H344 0.929 . S
C304 C302 1.356 . S
C304 C306 1.358 . S
C304 H345 0.930 . S
C305 C303 1.353 . S
C305 N307 1.314 . S
C305 H346 0.930 . S
C306 C304 1.358 . S
C306 N307 1.279 . S
C306 H347 0.930 . S
N307 C305 1.314 . S
N307 C306 1.279 . S
C308 C310 1.353 . S
C308 N311 1.314 . S
C308 H314 0.930 . S
C309 N311 1.279 . S
C309 C312 1.358 . S
C309 H315 0.930 . S
C310 C308 1.353 . S
C310 C313 1.348 . S
C310 H348 0.929 . S
N311 Li266 1.990 . S
N311 C308 1.314 . S
N311 C309 1.279 . S
C312 C309 1.358 . S
C312 C313 1.356 . S
C312 H349 0.930 . S
C313 C310 1.348 . S
C313 C312 1.356 . S
H314 C308 0.930 . S
H315 C309 0.930 . S
C316 N317 1.314 . S
C316 C318 1.353 . S
C316 H322 0.930 . S
N317 Li267 1.990 . S
N317 C316 1.314 . S
N317 C320 1.279 . S
C318 C316 1.353 . S
C318 C321 1.348 . S
C318 H350 0.929 . S
C319 C320 1.358 . S
C319 C321 1.356 . S
C319 H351 0.930 . S
C320 N317 1.279 . S
C320 C319 1.358 . S
C320 H323 0.930 . S
C321 C318 1.348 . S
C321 C319 1.356 . S
H322 C316 0.930 . S
H323 C320 0.930 . S
O324 Li264 1.956 . S
O324 Li265 1.970 . S
O324 Li266 1.961 . S
O324 C268 1.325 . S
O325 Li264 1.970 . S
O325 Li265 1.956 . S
O325 Li267 1.961 . S
O325 C274 1.325 . S
O326 Li264 1.961 . S
O326 Li266 1.956 . S
O326 Li267 1.970 . S
O326 C296 1.325 . S
O327 Li265 1.961 . S
O327 Li266 1.970 . S
O327 Li267 1.956 . S
O327 C302 1.325 . S
H328 C270 0.929 . S
H329 C271 0.930 . S
H330 C272 0.930 . S
H331 C273 0.930 . S
H332 C275 0.930 . S
H333 C277 0.929 . S
H334 C278 0.930 . S
H335 C279 0.930 . S
H336 C282 0.930 . S
H337 C285 0.929 . S
H338 C290 0.929 . S
H339 C291 0.930 . S
H340 C298 0.929 . S
H341 C299 0.930 . S
H342 C300 0.930 . S
H343 C301 0.930 . S
H344 C303 0.929 . S
H345 C304 0.930 . S
H346 C305 0.930 . S
H347 C306 0.930 . S
H348 C310 0.929 . S
H349 C312 0.930 . S
H350 C318 0.929 . S
H351 C319 0.930 . S
Li352 N369 1.990 . S
Li352 O412 1.956 . S
Li352 O413 1.970 . S
Li352 O414 1.961 . S
Li353 N377 1.990 . S
Li353 O412 1.970 . S
Li353 O413 1.956 . S
Li353 O415 1.961 . S
Li354 N399 1.990 . S
Li354 O412 1.961 . S
Li354 O414 1.956 . S
Li354 O415 1.970 . S
Li355 N405 1.990 . S
Li355 O413 1.961 . S
Li355 O414 1.970 . S
Li355 O415 1.956 . S
C356 C358 1.348 . S
C356 C359 1.356 . S
C356 O412 1.325 . S
N357 C360 1.314 . S
N357 C361 1.279 . S
C358 C356 1.348 . S
C358 C360 1.353 . S
C358 H416 0.929 . S
C359 C356 1.356 . S
C359 C361 1.358 . S
C359 H417 0.930 . S
C360 N357 1.314 . S
C360 C358 1.353 . S
C360 H418 0.930 . S
C361 N357 1.279 . S
C361 C359 1.358 . S
C361 H419 0.930 . S
C362 C365 1.348 . S
C362 C366 1.356 . S
C362 O413 1.325 . S
C363 N364 1.279 . S
C363 C366 1.358 . S
C363 H420 0.930 . S
N364 C363 1.279 . S
N364 C367 1.314 . S
C365 C362 1.348 . S
C365 C367 1.353 . S
C365 H421 0.929 . S
C366 C362 1.356 . S
C366 C363 1.358 . S
C366 H422 0.930 . S
C367 N364 1.314 . S
C367 C365 1.353 . S
C367 H423 0.930 . S
C368 N369 1.314 . S
C368 C373 1.353 . S
C368 H374 0.930 . S
N369 Li352 1.990 . S
N369 C368 1.314 . S
N369 C371 1.279 . S
C370 C371 1.358 . S
C370 C372 1.356 . S
C370 H424 0.930 . S
C371 N369 1.279 . S
C371 C370 1.358 . S
C371 H375 0.930 . S
C372 C370 1.356 . S
C372 C373 1.348 . S
C373 C368 1.353 . S
C373 C372 1.348 . S
C373 H425 0.929 . S
H374 C368 0.930 . S
H375 C371 0.930 . S
C376 N377 1.314 . S
C376 C378 1.353 . S
C376 H382 0.930 . S
N377 Li353 1.990 . S
N377 C376 1.314 . S
N377 C380 1.279 . S
C378 C376 1.353 . S
C378 C381 1.348 . S
C378 H426 0.929 . S
C379 C380 1.358 . S
C379 C381 1.356 . S
C379 H427 0.930 . S
C380 N377 1.279 . S
C380 C379 1.358 . S
C380 H383 0.930 . S
C381 C378 1.348 . S
C381 C379 1.356 . S
H382 C376 0.930 . S
H383 C380 0.930 . S
C384 C386 1.348 . S
C384 C387 1.356 . S
C384 O414 1.325 . S
N385 C388 1.314 . S
N385 C389 1.279 . S
C386 C384 1.348 . S
C386 C388 1.353 . S
C386 H428 0.929 . S
C387 C384 1.356 . S
C387 C389 1.358 . S
C387 H429 0.930 . S
C388 N385 1.314 . S
C388 C386 1.353 . S
C388 H430 0.930 . S
C389 N385 1.279 . S
C389 C387 1.358 . S
C389 H431 0.930 . S
C390 C391 1.348 . S
C390 C392 1.356 . S
C390 O415 1.325 . S
C391 C390 1.348 . S
C391 C393 1.353 . S
C391 H432 0.929 . S
C392 C390 1.356 . S
C392 C394 1.358 . S
C392 H433 0.930 . S
C393 C391 1.353 . S
C393 N395 1.314 . S
C393 H434 0.930 . S
C394 C392 1.358 . S
C394 N395 1.279 . S
C394 H435 0.930 . S
N395 C393 1.314 . S
N395 C394 1.279 . S
C396 C398 1.353 . S
C396 N399 1.314 . S
C396 H402 0.930 . S
C397 N399 1.279 . S
C397 C400 1.358 . S
C397 H403 0.930 . S
C398 C396 1.353 . S
C398 C401 1.348 . S
C398 H436 0.929 . S
N399 Li354 1.990 . S
N399 C396 1.314 . S
N399 C397 1.279 . S
C400 C397 1.358 . S
C400 C401 1.356 . S
C400 H437 0.930 . S
C401 C398 1.348 . S
C401 C400 1.356 . S
H402 C396 0.930 . S
H403 C397 0.930 . S
C404 N405 1.314 . S
C404 C406 1.353 . S
C404 H410 0.930 . S
N405 Li355 1.990 . S
N405 C404 1.314 . S
N405 C408 1.279 . S
C406 C404 1.353 . S
C406 C409 1.348 . S
C406 H438 0.929 . S
C407 C408 1.358 . S
C407 C409 1.356 . S
C407 H439 0.930 . S
C408 N405 1.279 . S
C408 C407 1.358 . S
C408 H411 0.930 . S
C409 C406 1.348 . S
C409 C407 1.356 . S
H410 C404 0.930 . S
H411 C408 0.930 . S
O412 Li352 1.956 . S
O412 Li353 1.970 . S
O412 Li354 1.961 . S
O412 C356 1.325 . S
O413 Li352 1.970 . S
O413 Li353 1.956 . S
O413 Li355 1.961 . S
O413 C362 1.325 . S
O414 Li352 1.961 . S
O414 Li354 1.956 . S
O414 Li355 1.970 . S
O414 C384 1.325 . S
O415 Li353 1.961 . S
O415 Li354 1.970 . S
O415 Li355 1.956 . S
O415 C390 1.325 . S
H416 C358 0.929 . S
H417 C359 0.930 . S
H418 C360 0.930 . S
H419 C361 0.930 . S
H420 C363 0.930 . S
H421 C365 0.929 . S
H422 C366 0.930 . S
H423 C367 0.930 . S
H424 C370 0.930 . S
H425 C373 0.929 . S
H426 C378 0.929 . S
H427 C379 0.930 . S
H428 C386 0.929 . S
H429 C387 0.930 . S
H430 C388 0.930 . S
H431 C389 0.930 . S
H432 C391 0.929 . S
H433 C392 0.930 . S
H434 C393 0.930 . S
H435 C394 0.930 . S
H436 C398 0.929 . S
H437 C400 0.930 . S
H438 C406 0.929 . S
H439 C407 0.930 . S
Li440 N457 1.990 . S
Li440 O500 1.956 . S
Li440 O501 1.970 . S
Li440 O502 1.961 . S
Li441 N465 1.990 . S
Li441 O500 1.970 . S
Li441 O501 1.956 . S
Li441 O503 1.961 . S
Li442 N487 1.990 . S
Li442 O500 1.961 . S
Li442 O502 1.956 . S
Li442 O503 1.970 . S
Li443 N493 1.990 . S
Li443 O501 1.961 . S
Li443 O502 1.970 . S
Li443 O503 1.956 . S
C444 C446 1.348 . S
C444 C447 1.356 . S
C444 O500 1.325 . S
N445 C448 1.314 . S
N445 C449 1.279 . S
C446 C444 1.348 . S
C446 C448 1.353 . S
C446 H504 0.929 . S
C447 C444 1.356 . S
C447 C449 1.358 . S
C447 H505 0.930 . S
C448 N445 1.314 . S
C448 C446 1.353 . S
C448 H506 0.930 . S
C449 N445 1.279 . S
C449 C447 1.358 . S
C449 H507 0.930 . S
C450 C453 1.348 . S
C450 C454 1.356 . S
C450 O501 1.325 . S
C451 N452 1.279 . S
C451 C454 1.358 . S
C451 H508 0.930 . S
N452 C451 1.279 . S
N452 C455 1.314 . S
C453 C450 1.348 . S
C453 C455 1.353 . S
C453 H509 0.929 . S
C454 C450 1.356 . S
C454 C451 1.358 . S
C454 H510 0.930 . S
C455 N452 1.314 . S
C455 C453 1.353 . S
C455 H511 0.930 . S
C456 N457 1.314 . S
C456 C461 1.353 . S
C456 H462 0.930 . S
N457 Li440 1.990 . S
N457 C456 1.314 . S
N457 C459 1.279 . S
C458 C459 1.358 . S
C458 C460 1.356 . S
C458 H512 0.930 . S
C459 N457 1.279 . S
C459 C458 1.358 . S
C459 H463 0.930 . S
C460 C458 1.356 . S
C460 C461 1.348 . S
C461 C456 1.353 . S
C461 C460 1.348 . S
C461 H513 0.929 . S
H462 C456 0.930 . S
H463 C459 0.930 . S
C464 N465 1.314 . S
C464 C466 1.353 . S
C464 H470 0.930 . S
N465 Li441 1.990 . S
N465 C464 1.314 . S
N465 C468 1.279 . S
C466 C464 1.353 . S
C466 C469 1.348 . S
C466 H514 0.929 . S
C467 C468 1.358 . S
C467 C469 1.356 . S
C467 H515 0.930 . S
C468 N465 1.279 . S
C468 C467 1.358 . S
C468 H471 0.930 . S
C469 C466 1.348 . S
C469 C467 1.356 . S
H470 C464 0.930 . S
H471 C468 0.930 . S
C472 C474 1.348 . S
C472 C475 1.356 . S
C472 O502 1.325 . S
N473 C476 1.314 . S
N473 C477 1.279 . S
C474 C472 1.348 . S
C474 C476 1.353 . S
C474 H516 0.929 . S
C475 C472 1.356 . S
C475 C477 1.358 . S
C475 H517 0.930 . S
C476 N473 1.314 . S
C476 C474 1.353 . S
C476 H518 0.930 . S
C477 N473 1.279 . S
C477 C475 1.358 . S
C477 H519 0.930 . S
C478 C479 1.348 . S
C478 C480 1.356 . S
C478 O503 1.325 . S
C479 C478 1.348 . S
C479 C481 1.353 . S
C479 H520 0.929 . S
C480 C478 1.356 . S
C480 C482 1.358 . S
C480 H521 0.930 . S
C481 C479 1.353 . S
C481 N483 1.314 . S
C481 H522 0.930 . S
C482 C480 1.358 . S
C482 N483 1.279 . S
C482 H523 0.930 . S
N483 C481 1.314 . S
N483 C482 1.279 . S
C484 C486 1.353 . S
C484 N487 1.314 . S
C484 H490 0.930 . S
C485 N487 1.279 . S
C485 C488 1.358 . S
C485 H491 0.930 . S
C486 C484 1.353 . S
C486 C489 1.348 . S
C486 H524 0.929 . S
N487 Li442 1.990 . S
N487 C484 1.314 . S
N487 C485 1.279 . S
C488 C485 1.358 . S
C488 C489 1.356 . S
C488 H525 0.930 . S
C489 C486 1.348 . S
C489 C488 1.356 . S
H490 C484 0.930 . S
H491 C485 0.930 . S
C492 N493 1.314 . S
C492 C494 1.353 . S
C492 H498 0.930 . S
N493 Li443 1.990 . S
N493 C492 1.314 . S
N493 C496 1.279 . S
C494 C492 1.353 . S
C494 C497 1.348 . S
C494 H526 0.929 . S
C495 C496 1.358 . S
C495 C497 1.356 . S
C495 H527 0.930 . S
C496 N493 1.279 . S
C496 C495 1.358 . S
C496 H499 0.930 . S
C497 C494 1.348 . S
C497 C495 1.356 . S
H498 C492 0.930 . S
H499 C496 0.930 . S
O500 Li440 1.956 . S
O500 Li441 1.970 . S
O500 Li442 1.961 . S
O500 C444 1.325 . S
O501 Li440 1.970 . S
O501 Li441 1.956 . S
O501 Li443 1.961 . S
O501 C450 1.325 . S
O502 Li440 1.961 . S
O502 Li442 1.956 . S
O502 Li443 1.970 . S
O502 C472 1.325 . S
O503 Li441 1.961 . S
O503 Li442 1.970 . S
O503 Li443 1.956 . S
O503 C478 1.325 . S
H504 C446 0.929 . S
H505 C447 0.930 . S
H506 C448 0.930 . S
H507 C449 0.930 . S
H508 C451 0.930 . S
H509 C453 0.929 . S
H510 C454 0.930 . S
H511 C455 0.930 . S
H512 C458 0.930 . S
H513 C461 0.929 . S
H514 C466 0.929 . S
H515 C467 0.930 . S
H516 C474 0.929 . S
H517 C475 0.930 . S
H518 C476 0.930 . S
H519 C477 0.930 . S
H520 C479 0.929 . S
H521 C480 0.930 . S
H522 C481 0.930 . S
H523 C482 0.930 . S
H524 C486 0.929 . S
H525 C488 0.930 . S
H526 C494 0.929 . S
H527 C495 0.930 . S
Li528 N545 1.990 . S
Li528 O588 1.956 . S
Li528 O589 1.970 . S
Li528 O590 1.961 . S
Li529 N553 1.990 . S
Li529 O588 1.970 . S
Li529 O589 1.956 . S
Li529 O591 1.961 . S
Li530 N575 1.990 . S
Li530 O588 1.961 . S
Li530 O590 1.956 . S
Li530 O591 1.970 . S
Li531 N581 1.990 . S
Li531 O589 1.961 . S
Li531 O590 1.970 . S
Li531 O591 1.956 . S
C532 C534 1.348 . S
C532 C535 1.356 . S
C532 O588 1.325 . S
N533 C536 1.314 . S
N533 C537 1.279 . S
C534 C532 1.348 . S
C534 C536 1.353 . S
C534 H592 0.929 . S
C535 C532 1.356 . S
C535 C537 1.358 . S
C535 H593 0.930 . S
C536 N533 1.314 . S
C536 C534 1.353 . S
C536 H594 0.930 . S
C537 N533 1.279 . S
C537 C535 1.358 . S
C537 H595 0.930 . S
C538 C541 1.348 . S
C538 C542 1.356 . S
C538 O589 1.325 . S
C539 N540 1.279 . S
C539 C542 1.358 . S
C539 H596 0.930 . S
N540 C539 1.279 . S
N540 C543 1.314 . S
C541 C538 1.348 . S
C541 C543 1.353 . S
C541 H597 0.929 . S
C542 C538 1.356 . S
C542 C539 1.358 . S
C542 H598 0.930 . S
C543 N540 1.314 . S
C543 C541 1.353 . S
C543 H599 0.930 . S
C544 N545 1.314 . S
C544 C549 1.353 . S
C544 H550 0.930 . S
N545 Li528 1.990 . S
N545 C544 1.314 . S
N545 C547 1.279 . S
C546 C547 1.358 . S
C546 C548 1.356 . S
C546 H600 0.930 . S
C547 N545 1.279 . S
C547 C546 1.358 . S
C547 H551 0.930 . S
C548 C546 1.356 . S
C548 C549 1.348 . S
C549 C544 1.353 . S
C549 C548 1.348 . S
C549 H601 0.929 . S
H550 C544 0.930 . S
H551 C547 0.930 . S
C552 N553 1.314 . S
C552 C554 1.353 . S
C552 H558 0.930 . S
N553 Li529 1.990 . S
N553 C552 1.314 . S
N553 C556 1.279 . S
C554 C552 1.353 . S
C554 C557 1.348 . S
C554 H602 0.929 . S
C555 C556 1.358 . S
C555 C557 1.356 . S
C555 H603 0.930 . S
C556 N553 1.279 . S
C556 C555 1.358 . S
C556 H559 0.930 . S
C557 C554 1.348 . S
C557 C555 1.356 . S
H558 C552 0.930 . S
H559 C556 0.930 . S
C560 C562 1.348 . S
C560 C563 1.356 . S
C560 O590 1.325 . S
N561 C564 1.314 . S
N561 C565 1.279 . S
C562 C560 1.348 . S
C562 C564 1.353 . S
C562 H604 0.929 . S
C563 C560 1.356 . S
C563 C565 1.358 . S
C563 H605 0.930 . S
C564 N561 1.314 . S
C564 C562 1.353 . S
C564 H606 0.930 . S
C565 N561 1.279 . S
C565 C563 1.358 . S
C565 H607 0.930 . S
C566 C567 1.348 . S
C566 C568 1.356 . S
C566 O591 1.325 . S
C567 C566 1.348 . S
C567 C569 1.353 . S
C567 H608 0.929 . S
C568 C566 1.356 . S
C568 C570 1.358 . S
C568 H609 0.930 . S
C569 C567 1.353 . S
C569 N571 1.314 . S
C569 H610 0.930 . S
C570 C568 1.358 . S
C570 N571 1.279 . S
C570 H611 0.930 . S
N571 C569 1.314 . S
N571 C570 1.279 . S
C572 C574 1.353 . S
C572 N575 1.314 . S
C572 H578 0.930 . S
C573 N575 1.279 . S
C573 C576 1.358 . S
C573 H579 0.930 . S
C574 C572 1.353 . S
C574 C577 1.348 . S
C574 H612 0.929 . S
N575 Li530 1.990 . S
N575 C572 1.314 . S
N575 C573 1.279 . S
C576 C573 1.358 . S
C576 C577 1.356 . S
C576 H613 0.930 . S
C577 C574 1.348 . S
C577 C576 1.356 . S
H578 C572 0.930 . S
H579 C573 0.930 . S
C580 N581 1.314 . S
C580 C582 1.353 . S
C580 H586 0.930 . S
N581 Li531 1.990 . S
N581 C580 1.314 . S
N581 C584 1.279 . S
C582 C580 1.353 . S
C582 C585 1.348 . S
C582 H614 0.929 . S
C583 C584 1.358 . S
C583 C585 1.356 . S
C583 H615 0.930 . S
C584 N581 1.279 . S
C584 C583 1.358 . S
C584 H587 0.930 . S
C585 C582 1.348 . S
C585 C583 1.356 . S
H586 C580 0.930 . S
H587 C584 0.930 . S
O588 Li528 1.956 . S
O588 Li529 1.970 . S
O588 Li530 1.961 . S
O588 C532 1.325 . S
O589 Li528 1.970 . S
O589 Li529 1.956 . S
O589 Li531 1.961 . S
O589 C538 1.325 . S
O590 Li528 1.961 . S
O590 Li530 1.956 . S
O590 Li531 1.970 . S
O590 C560 1.325 . S
O591 Li529 1.961 . S
O591 Li530 1.970 . S
O591 Li531 1.956 . S
O591 C566 1.325 . S
H592 C534 0.929 . S
H593 C535 0.930 . S
H594 C536 0.930 . S
H595 C537 0.930 . S
H596 C539 0.930 . S
H597 C541 0.929 . S
H598 C542 0.930 . S
H599 C543 0.930 . S
H600 C546 0.930 . S
H601 C549 0.929 . S
H602 C554 0.929 . S
H603 C555 0.930 . S
H604 C562 0.929 . S
H605 C563 0.930 . S
H606 C564 0.930 . S
H607 C565 0.930 . S
H608 C567 0.929 . S
H609 C568 0.930 . S
H610 C569 0.930 . S
H611 C570 0.930 . S
H612 C574 0.929 . S
H613 C576 0.930 . S
H614 C582 0.929 . S
H615 C583 0.930 . S
Li616 N633 1.990 . S
Li616 O676 1.956 . S
Li616 O677 1.970 . S
Li616 O678 1.961 . S
Li617 N641 1.990 . S
Li617 O676 1.970 . S
Li617 O677 1.956 . S
Li617 O679 1.961 . S
Li618 N663 1.990 . S
Li618 O676 1.961 . S
Li618 O678 1.956 . S
Li618 O679 1.970 . S
Li619 N669 1.990 . S
Li619 O677 1.961 . S
Li619 O678 1.970 . S
Li619 O679 1.956 . S
C620 C622 1.348 . S
C620 C623 1.356 . S
C620 O676 1.325 . S
N621 C624 1.314 . S
N621 C625 1.279 . S
C622 C620 1.348 . S
C622 C624 1.353 . S
C622 H680 0.929 . S
C623 C620 1.356 . S
C623 C625 1.358 . S
C623 H681 0.930 . S
C624 N621 1.314 . S
C624 C622 1.353 . S
C624 H682 0.930 . S
C625 N621 1.279 . S
C625 C623 1.358 . S
C625 H683 0.930 . S
C626 C629 1.348 . S
C626 C630 1.356 . S
C626 O677 1.325 . S
C627 N628 1.279 . S
C627 C630 1.358 . S
C627 H684 0.930 . S
N628 C627 1.279 . S
N628 C631 1.314 . S
C629 C626 1.348 . S
C629 C631 1.353 . S
C629 H685 0.929 . S
C630 C626 1.356 . S
C630 C627 1.358 . S
C630 H686 0.930 . S
C631 N628 1.314 . S
C631 C629 1.353 . S
C631 H687 0.930 . S
C632 N633 1.314 . S
C632 C637 1.353 . S
C632 H638 0.930 . S
N633 Li616 1.990 . S
N633 C632 1.314 . S
N633 C635 1.279 . S
C634 C635 1.358 . S
C634 C636 1.356 . S
C634 H688 0.930 . S
C635 N633 1.279 . S
C635 C634 1.358 . S
C635 H639 0.930 . S
C636 C634 1.356 . S
C636 C637 1.348 . S
C637 C632 1.353 . S
C637 C636 1.348 . S
C637 H689 0.929 . S
H638 C632 0.930 . S
H639 C635 0.930 . S
C640 N641 1.314 . S
C640 C642 1.353 . S
C640 H646 0.930 . S
N641 Li617 1.990 . S
N641 C640 1.314 . S
N641 C644 1.279 . S
C642 C640 1.353 . S
C642 C645 1.348 . S
C642 H690 0.929 . S
C643 C644 1.358 . S
C643 C645 1.356 . S
C643 H691 0.930 . S
C644 N641 1.279 . S
C644 C643 1.358 . S
C644 H647 0.930 . S
C645 C642 1.348 . S
C645 C643 1.356 . S
H646 C640 0.930 . S
H647 C644 0.930 . S
C648 C650 1.348 . S
C648 C651 1.356 . S
C648 O678 1.325 . S
N649 C652 1.314 . S
N649 C653 1.279 . S
C650 C648 1.348 . S
C650 C652 1.353 . S
C650 H692 0.929 . S
C651 C648 1.356 . S
C651 C653 1.358 . S
C651 H693 0.930 . S
C652 N649 1.314 . S
C652 C650 1.353 . S
C652 H694 0.930 . S
C653 N649 1.279 . S
C653 C651 1.358 . S
C653 H695 0.930 . S
C654 C655 1.348 . S
C654 C656 1.356 . S
C654 O679 1.325 . S
C655 C654 1.348 . S
C655 C657 1.353 . S
C655 H696 0.929 . S
C656 C654 1.356 . S
C656 C658 1.358 . S
C656 H697 0.930 . S
C657 C655 1.353 . S
C657 N659 1.314 . S
C657 H698 0.930 . S
C658 C656 1.358 . S
C658 N659 1.279 . S
C658 H699 0.930 . S
N659 C657 1.314 . S
N659 C658 1.279 . S
C660 C662 1.353 . S
C660 N663 1.314 . S
C660 H666 0.930 . S
C661 N663 1.279 . S
C661 C664 1.358 . S
C661 H667 0.930 . S
C662 C660 1.353 . S
C662 C665 1.348 . S
C662 H700 0.929 . S
N663 Li618 1.990 . S
N663 C660 1.314 . S
N663 C661 1.279 . S
C664 C661 1.358 . S
C664 C665 1.356 . S
C664 H701 0.930 . S
C665 C662 1.348 . S
C665 C664 1.356 . S
H666 C660 0.930 . S
H667 C661 0.930 . S
C668 N669 1.314 . S
C668 C670 1.353 . S
C668 H674 0.930 . S
N669 Li619 1.990 . S
N669 C668 1.314 . S
N669 C672 1.279 . S
C670 C668 1.353 . S
C670 C673 1.348 . S
C670 H702 0.929 . S
C671 C672 1.358 . S
C671 C673 1.356 . S
C671 H703 0.930 . S
C672 N669 1.279 . S
C672 C671 1.358 . S
C672 H675 0.930 . S
C673 C670 1.348 . S
C673 C671 1.356 . S
H674 C668 0.930 . S
H675 C672 0.930 . S
O676 Li616 1.956 . S
O676 Li617 1.970 . S
O676 Li618 1.961 . S
O676 C620 1.325 . S
O677 Li616 1.970 . S
O677 Li617 1.956 . S
O677 Li619 1.961 . S
O677 C626 1.325 . S
O678 Li616 1.961 . S
O678 Li618 1.956 . S
O678 Li619 1.970 . S
O678 C648 1.325 . S
O679 Li617 1.961 . S
O679 Li618 1.970 . S
O679 Li619 1.956 . S
O679 C654 1.325 . S
H680 C622 0.929 . S
H681 C623 0.930 . S
H682 C624 0.930 . S
H683 C625 0.930 . S
H684 C627 0.930 . S
H685 C629 0.929 . S
H686 C630 0.930 . S
H687 C631 0.930 . S
H688 C634 0.930 . S
H689 C637 0.929 . S
H690 C642 0.929 . S
H691 C643 0.930 . S
H692 C650 0.929 . S
H693 C651 0.930 . S
H694 C652 0.930 . S
H695 C653 0.930 . S
H696 C655 0.929 . S
H697 C656 0.930 . S
H698 C657 0.930 . S
H699 C658 0.930 . S
H700 C662 0.929 . S
H701 C664 0.930 . S
H702 C670 0.929 . S
H703 C671 0.930 . S
Li704 N721 1.990 . S
Li704 O764 1.956 . S
Li704 O765 1.970 . S
Li704 O766 1.961 . S
Li705 N729 1.990 . S
Li705 O764 1.970 . S
Li705 O765 1.956 . S
Li705 O767 1.961 . S
Li706 N751 1.990 . S
Li706 O764 1.961 . S
Li706 O766 1.956 . S
Li706 O767 1.970 . S
Li707 N757 1.990 . S
Li707 O765 1.961 . S
Li707 O766 1.970 . S
Li707 O767 1.956 . S
C708 C710 1.348 . S
C708 C711 1.356 . S
C708 O764 1.325 . S
N709 C712 1.314 . S
N709 C713 1.279 . S
C710 C708 1.348 . S
C710 C712 1.353 . S
C710 H768 0.929 . S
C711 C708 1.356 . S
C711 C713 1.358 . S
C711 H769 0.930 . S
C712 N709 1.314 . S
C712 C710 1.353 . S
C712 H770 0.930 . S
C713 N709 1.279 . S
C713 C711 1.358 . S
C713 H771 0.930 . S
C714 C717 1.348 . S
C714 C718 1.356 . S
C714 O765 1.325 . S
C715 N716 1.279 . S
C715 C718 1.358 . S
C715 H772 0.930 . S
N716 C715 1.279 . S
N716 C719 1.314 . S
C717 C714 1.348 . S
C717 C719 1.353 . S
C717 H773 0.929 . S
C718 C714 1.356 . S
C718 C715 1.358 . S
C718 H774 0.930 . S
C719 N716 1.314 . S
C719 C717 1.353 . S
C719 H775 0.930 . S
C720 N721 1.314 . S
C720 C725 1.353 . S
C720 H726 0.930 . S
N721 Li704 1.990 . S
N721 C720 1.314 . S
N721 C723 1.279 . S
C722 C723 1.358 . S
C722 C724 1.356 . S
C722 H776 0.930 . S
C723 N721 1.279 . S
C723 C722 1.358 . S
C723 H727 0.930 . S
C724 C722 1.356 . S
C724 C725 1.348 . S
C725 C720 1.353 . S
C725 C724 1.348 . S
C725 H777 0.929 . S
H726 C720 0.930 . S
H727 C723 0.930 . S
C728 N729 1.314 . S
C728 C730 1.353 . S
C728 H734 0.930 . S
N729 Li705 1.990 . S
N729 C728 1.314 . S
N729 C732 1.279 . S
C730 C728 1.353 . S
C730 C733 1.348 . S
C730 H778 0.929 . S
C731 C732 1.358 . S
C731 C733 1.356 . S
C731 H779 0.930 . S
C732 N729 1.279 . S
C732 C731 1.358 . S
C732 H735 0.930 . S
C733 C730 1.348 . S
C733 C731 1.356 . S
H734 C728 0.930 . S
H735 C732 0.930 . S
C736 C738 1.348 . S
C736 C739 1.356 . S
C736 O766 1.325 . S
N737 C740 1.314 . S
N737 C741 1.279 . S
C738 C736 1.348 . S
C738 C740 1.353 . S
C738 H780 0.929 . S
C739 C736 1.356 . S
C739 C741 1.358 . S
C739 H781 0.930 . S
C740 N737 1.314 . S
C740 C738 1.353 . S
C740 H782 0.930 . S
C741 N737 1.279 . S
C741 C739 1.358 . S
C741 H783 0.930 . S
C742 C743 1.348 . S
C742 C744 1.356 . S
C742 O767 1.325 . S
C743 C742 1.348 . S
C743 C745 1.353 . S
C743 H784 0.929 . S
C744 C742 1.356 . S
C744 C746 1.358 . S
C744 H785 0.930 . S
C745 C743 1.353 . S
C745 N747 1.314 . S
C745 H786 0.930 . S
C746 C744 1.358 . S
C746 N747 1.279 . S
C746 H787 0.930 . S
N747 C745 1.314 . S
N747 C746 1.279 . S
C748 C750 1.353 . S
C748 N751 1.314 . S
C748 H754 0.930 . S
C749 N751 1.279 . S
C749 C752 1.358 . S
C749 H755 0.930 . S
C750 C748 1.353 . S
C750 C753 1.348 . S
C750 H788 0.929 . S
N751 Li706 1.990 . S
N751 C748 1.314 . S
N751 C749 1.279 . S
C752 C749 1.358 . S
C752 C753 1.356 . S
C752 H789 0.930 . S
C753 C750 1.348 . S
C753 C752 1.356 . S
H754 C748 0.930 . S
H755 C749 0.930 . S
C756 N757 1.314 . S
C756 C758 1.353 . S
C756 H762 0.930 . S
N757 Li707 1.990 . S
N757 C756 1.314 . S
N757 C760 1.279 . S
C758 C756 1.353 . S
C758 C761 1.348 . S
C758 H790 0.929 . S
C759 C760 1.358 . S
C759 C761 1.356 . S
C759 H791 0.930 . S
C760 N757 1.279 . S
C760 C759 1.358 . S
C760 H763 0.930 . S
C761 C758 1.348 . S
C761 C759 1.356 . S
H762 C756 0.930 . S
H763 C760 0.930 . S
O764 Li704 1.956 . S
O764 Li705 1.970 . S
O764 Li706 1.961 . S
O764 C708 1.325 . S
O765 Li704 1.970 . S
O765 Li705 1.956 . S
O765 Li707 1.961 . S
O765 C714 1.325 . S
O766 Li704 1.961 . S
O766 Li706 1.956 . S
O766 Li707 1.970 . S
O766 C736 1.325 . S
O767 Li705 1.961 . S
O767 Li706 1.970 . S
O767 Li707 1.956 . S
O767 C742 1.325 . S
H768 C710 0.929 . S
H769 C711 0.930 . S
H770 C712 0.930 . S
H771 C713 0.930 . S
H772 C715 0.930 . S
H773 C717 0.929 . S
H774 C718 0.930 . S
H775 C719 0.930 . S
H776 C722 0.930 . S
H777 C725 0.929 . S
H778 C730 0.929 . S
H779 C731 0.930 . S
H780 C738 0.929 . S
H781 C739 0.930 . S
H782 C740 0.930 . S
H783 C741 0.930 . S
H784 C743 0.929 . S
H785 C744 0.930 . S
H786 C745 0.930 . S
H787 C746 0.930 . S
H788 C750 0.929 . S
H789 C752 0.930 . S
H790 C758 0.929 . S
H791 C759 0.930 . S
Li792 N809 1.990 . S
Li792 O852 1.956 . S
Li792 O853 1.970 . S
Li792 O854 1.961 . S
Li793 N817 1.990 . S
Li793 O852 1.970 . S
Li793 O853 1.956 . S
Li793 O855 1.961 . S
Li794 N839 1.990 . S
Li794 O852 1.961 . S
Li794 O854 1.956 . S
Li794 O855 1.970 . S
Li795 N845 1.990 . S
Li795 O853 1.961 . S
Li795 O854 1.970 . S
Li795 O855 1.956 . S
C796 C798 1.348 . S
C796 C799 1.356 . S
C796 O852 1.325 . S
N797 C800 1.314 . S
N797 C801 1.279 . S
C798 C796 1.348 . S
C798 C800 1.353 . S
C798 H856 0.929 . S
C799 C796 1.356 . S
C799 C801 1.358 . S
C799 H857 0.930 . S
C800 N797 1.314 . S
C800 C798 1.353 . S
C800 H858 0.930 . S
C801 N797 1.279 . S
C801 C799 1.358 . S
C801 H859 0.930 . S
C802 C805 1.348 . S
C802 C806 1.356 . S
C802 O853 1.325 . S
C803 N804 1.279 . S
C803 C806 1.358 . S
C803 H860 0.930 . S
N804 C803 1.279 . S
N804 C807 1.314 . S
C805 C802 1.348 . S
C805 C807 1.353 . S
C805 H861 0.929 . S
C806 C802 1.356 . S
C806 C803 1.358 . S
C806 H862 0.930 . S
C807 N804 1.314 . S
C807 C805 1.353 . S
C807 H863 0.930 . S
C808 N809 1.314 . S
C808 C813 1.353 . S
C808 H814 0.930 . S
N809 Li792 1.990 . S
N809 C808 1.314 . S
N809 C811 1.279 . S
C810 C811 1.358 . S
C810 C812 1.356 . S
C810 H864 0.930 . S
C811 N809 1.279 . S
C811 C810 1.358 . S
C811 H815 0.930 . S
C812 C810 1.356 . S
C812 C813 1.348 . S
C813 C808 1.353 . S
C813 C812 1.348 . S
C813 H865 0.929 . S
H814 C808 0.930 . S
H815 C811 0.930 . S
C816 N817 1.314 . S
C816 C818 1.353 . S
C816 H822 0.930 . S
N817 Li793 1.990 . S
N817 C816 1.314 . S
N817 C820 1.279 . S
C818 C816 1.353 . S
C818 C821 1.348 . S
C818 H866 0.929 . S
C819 C820 1.358 . S
C819 C821 1.356 . S
C819 H867 0.930 . S
C820 N817 1.279 . S
C820 C819 1.358 . S
C820 H823 0.930 . S
C821 C818 1.348 . S
C821 C819 1.356 . S
H822 C816 0.930 . S
H823 C820 0.930 . S
C824 C826 1.348 . S
C824 C827 1.356 . S
C824 O854 1.325 . S
N825 C828 1.314 . S
N825 C829 1.279 . S
C826 C824 1.348 . S
C826 C828 1.353 . S
C826 H868 0.929 . S
C827 C824 1.356 . S
C827 C829 1.358 . S
C827 H869 0.930 . S
C828 N825 1.314 . S
C828 C826 1.353 . S
C828 H870 0.930 . S
C829 N825 1.279 . S
C829 C827 1.358 . S
C829 H871 0.930 . S
C830 C831 1.348 . S
C830 C832 1.356 . S
C830 O855 1.325 . S
C831 C830 1.348 . S
C831 C833 1.353 . S
C831 H872 0.929 . S
C832 C830 1.356 . S
C832 C834 1.358 . S
C832 H873 0.930 . S
C833 C831 1.353 . S
C833 N835 1.314 . S
C833 H874 0.930 . S
C834 C832 1.358 . S
C834 N835 1.279 . S
C834 H875 0.930 . S
N835 C833 1.314 . S
N835 C834 1.279 . S
C836 C838 1.353 . S
C836 N839 1.314 . S
C836 H842 0.930 . S
C837 N839 1.279 . S
C837 C840 1.358 . S
C837 H843 0.930 . S
C838 C836 1.353 . S
C838 C841 1.348 . S
C838 H876 0.929 . S
N839 Li794 1.990 . S
N839 C836 1.314 . S
N839 C837 1.279 . S
C840 C837 1.358 . S
C840 C841 1.356 . S
C840 H877 0.930 . S
C841 C838 1.348 . S
C841 C840 1.356 . S
H842 C836 0.930 . S
H843 C837 0.930 . S
C844 N845 1.314 . S
C844 C846 1.353 . S
C844 H850 0.930 . S
N845 Li795 1.990 . S
N845 C844 1.314 . S
N845 C848 1.279 . S
C846 C844 1.353 . S
C846 C849 1.348 . S
C846 H878 0.929 . S
C847 C848 1.358 . S
C847 C849 1.356 . S
C847 H879 0.930 . S
C848 N845 1.279 . S
C848 C847 1.358 . S
C848 H851 0.930 . S
C849 C846 1.348 . S
C849 C847 1.356 . S
H850 C844 0.930 . S
H851 C848 0.930 . S
O852 Li792 1.956 . S
O852 Li793 1.970 . S
O852 Li794 1.961 . S
O852 C796 1.325 . S
O853 Li792 1.970 . S
O853 Li793 1.956 . S
O853 Li795 1.961 . S
O853 C802 1.325 . S
O854 Li792 1.961 . S
O854 Li794 1.956 . S
O854 Li795 1.970 . S
O854 C824 1.325 . S
O855 Li793 1.961 . S
O855 Li794 1.970 . S
O855 Li795 1.956 . S
O855 C830 1.325 . S
H856 C798 0.929 . S
H857 C799 0.930 . S
H858 C800 0.930 . S
H859 C801 0.930 . S
H860 C803 0.930 . S
H861 C805 0.929 . S
H862 C806 0.930 . S
H863 C807 0.930 . S
H864 C810 0.930 . S
H865 C813 0.929 . S
H866 C818 0.929 . S
H867 C819 0.930 . S
H868 C826 0.929 . S
H869 C827 0.930 . S
H870 C828 0.930 . S
H871 C829 0.930 . S
H872 C831 0.929 . S
H873 C832 0.930 . S
H874 C833 0.930 . S
H875 C834 0.930 . S
H876 C838 0.929 . S
H877 C840 0.930 . S
H878 C846 0.929 . S
H879 C847 0.930 . S
Li880 N897 1.990 . S
Li880 O940 1.956 . S
Li880 O941 1.970 . S
Li880 O942 1.961 . S
Li881 N905 1.990 . S
Li881 O940 1.970 . S
Li881 O941 1.956 . S
Li881 O943 1.961 . S
Li882 N927 1.990 . S
Li882 O940 1.961 . S
Li882 O942 1.956 . S
Li882 O943 1.970 . S
Li883 N933 1.990 . S
Li883 O941 1.961 . S
Li883 O942 1.970 . S
Li883 O943 1.956 . S
C884 C886 1.348 . S
C884 C887 1.356 . S
C884 O940 1.325 . S
N885 C888 1.314 . S
N885 C889 1.279 . S
C886 C884 1.348 . S
C886 C888 1.353 . S
C886 H944 0.929 . S
C887 C884 1.356 . S
C887 C889 1.358 . S
C887 H945 0.930 . S
C888 N885 1.314 . S
C888 C886 1.353 . S
C888 H946 0.930 . S
C889 N885 1.279 . S
C889 C887 1.358 . S
C889 H947 0.930 . S
C890 C893 1.348 . S
C890 C894 1.356 . S
C890 O941 1.325 . S
C891 N892 1.279 . S
C891 C894 1.358 . S
C891 H948 0.930 . S
N892 C891 1.279 . S
N892 C895 1.314 . S
C893 C890 1.348 . S
C893 C895 1.353 . S
C893 H949 0.929 . S
C894 C890 1.356 . S
C894 C891 1.358 . S
C894 H950 0.930 . S
C895 N892 1.314 . S
C895 C893 1.353 . S
C895 H951 0.930 . S
C896 N897 1.314 . S
C896 C901 1.353 . S
C896 H902 0.930 . S
N897 Li880 1.990 . S
N897 C896 1.314 . S
N897 C899 1.279 . S
C898 C899 1.358 . S
C898 C900 1.356 . S
C898 H952 0.930 . S
C899 N897 1.279 . S
C899 C898 1.358 . S
C899 H903 0.930 . S
C900 C898 1.356 . S
C900 C901 1.348 . S
C901 C896 1.353 . S
C901 C900 1.348 . S
C901 H953 0.929 . S
H902 C896 0.930 . S
H903 C899 0.930 . S
C904 N905 1.314 . S
C904 C906 1.353 . S
C904 H910 0.930 . S
N905 Li881 1.990 . S
N905 C904 1.314 . S
N905 C908 1.279 . S
C906 C904 1.353 . S
C906 C909 1.348 . S
C906 H954 0.929 . S
C907 C908 1.358 . S
C907 C909 1.356 . S
C907 H955 0.930 . S
C908 N905 1.279 . S
C908 C907 1.358 . S
C908 H911 0.930 . S
C909 C906 1.348 . S
C909 C907 1.356 . S
H910 C904 0.930 . S
H911 C908 0.930 . S
C912 C914 1.348 . S
C912 C915 1.356 . S
C912 O942 1.325 . S
N913 C916 1.314 . S
N913 C917 1.279 . S
C914 C912 1.348 . S
C914 C916 1.353 . S
C914 H956 0.929 . S
C915 C912 1.356 . S
C915 C917 1.358 . S
C915 H957 0.930 . S
C916 N913 1.314 . S
C916 C914 1.353 . S
C916 H958 0.930 . S
C917 N913 1.279 . S
C917 C915 1.358 . S
C917 H959 0.930 . S
C918 C919 1.348 . S
C918 C920 1.356 . S
C918 O943 1.325 . S
C919 C918 1.348 . S
C919 C921 1.353 . S
C919 H960 0.929 . S
C920 C918 1.356 . S
C920 C922 1.358 . S
C920 H961 0.930 . S
C921 C919 1.353 . S
C921 N923 1.314 . S
C921 H962 0.930 . S
C922 C920 1.358 . S
C922 N923 1.279 . S
C922 H963 0.930 . S
N923 C921 1.314 . S
N923 C922 1.279 . S
C924 C926 1.353 . S
C924 N927 1.314 . S
C924 H930 0.930 . S
C925 N927 1.279 . S
C925 C928 1.358 . S
C925 H931 0.930 . S
C926 C924 1.353 . S
C926 C929 1.348 . S
C926 H964 0.929 . S
N927 Li882 1.990 . S
N927 C924 1.314 . S
N927 C925 1.279 . S
C928 C925 1.358 . S
C928 C929 1.356 . S
C928 H965 0.930 . S
C929 C926 1.348 . S
C929 C928 1.356 . S
H930 C924 0.930 . S
H931 C925 0.930 . S
C932 N933 1.314 . S
C932 C934 1.353 . S
C932 H938 0.930 . S
N933 Li883 1.990 . S
N933 C932 1.314 . S
N933 C936 1.279 . S
C934 C932 1.353 . S
C934 C937 1.348 . S
C934 H966 0.929 . S
C935 C936 1.358 . S
C935 C937 1.356 . S
C935 H967 0.930 . S
C936 N933 1.279 . S
C936 C935 1.358 . S
C936 H939 0.930 . S
C937 C934 1.348 . S
C937 C935 1.356 . S
H938 C932 0.930 . S
H939 C936 0.930 . S
O940 Li880 1.956 . S
O940 Li881 1.970 . S
O940 Li882 1.961 . S
O940 C884 1.325 . S
O941 Li880 1.970 . S
O941 Li881 1.956 . S
O941 Li883 1.961 . S
O941 C890 1.325 . S
O942 Li880 1.961 . S
O942 Li882 1.956 . S
O942 Li883 1.970 . S
O942 C912 1.325 . S
O943 Li881 1.961 . S
O943 Li882 1.970 . S
O943 Li883 1.956 . S
O943 C918 1.325 . S
H944 C886 0.929 . S
H945 C887 0.930 . S
H946 C888 0.930 . S
H947 C889 0.930 . S
H948 C891 0.930 . S
H949 C893 0.929 . S
H950 C894 0.930 . S
H951 C895 0.930 . S
H952 C898 0.930 . S
H953 C901 0.929 . S
H954 C906 0.929 . S
H955 C907 0.930 . S
H956 C914 0.929 . S
H957 C915 0.930 . S
H958 C916 0.930 . S
H959 C917 0.930 . S
H960 C919 0.929 . S
H961 C920 0.930 . S
H962 C921 0.930 . S
H963 C922 0.930 . S
H964 C926 0.929 . S
H965 C928 0.930 . S
H966 C934 0.929 . S
H967 C935 0.930 . S
Li968 N985 1.990 . S
Li968 O1028 1.956 . S
Li968 O1029 1.970 . S
Li968 O1030 1.961 . S
Li969 N993 1.990 . S
Li969 O1028 1.970 . S
Li969 O1029 1.956 . S
Li969 O1031 1.961 . S
Li970 N1015 1.990 . S
Li970 O1028 1.961 . S
Li970 O1030 1.956 . S
Li970 O1031 1.970 . S
Li971 N1021 1.990 . S
Li971 O1029 1.961 . S
Li971 O1030 1.970 . S
Li971 O1031 1.956 . S
C972 C974 1.348 . S
C972 C975 1.356 . S
C972 O1028 1.325 . S
N973 C976 1.314 . S
N973 C977 1.279 . S
C974 C972 1.348 . S
C974 C976 1.353 . S
C974 H1032 0.929 . S
C975 C972 1.356 . S
C975 C977 1.358 . S
C975 H1033 0.930 . S
C976 N973 1.314 . S
C976 C974 1.353 . S
C976 H1034 0.930 . S
C977 N973 1.279 . S
C977 C975 1.358 . S
C977 H1035 0.930 . S
C978 C981 1.348 . S
C978 C982 1.356 . S
C978 O1029 1.325 . S
C979 N980 1.279 . S
C979 C982 1.358 . S
C979 H1036 0.930 . S
N980 C979 1.279 . S
N980 C983 1.314 . S
C981 C978 1.348 . S
C981 C983 1.353 . S
C981 H1037 0.929 . S
C982 C978 1.356 . S
C982 C979 1.358 . S
C982 H1038 0.930 . S
C983 N980 1.314 . S
C983 C981 1.353 . S
C983 H1039 0.930 . S
C984 N985 1.314 . S
C984 C989 1.353 . S
C984 H990 0.930 . S
N985 Li968 1.990 . S
N985 C984 1.314 . S
N985 C987 1.279 . S
C986 C987 1.358 . S
C986 C988 1.356 . S
C986 H1040 0.930 . S
C987 N985 1.279 . S
C987 C986 1.358 . S
C987 H991 0.930 . S
C988 C986 1.356 . S
C988 C989 1.348 . S
C989 C984 1.353 . S
C989 C988 1.348 . S
C989 H1041 0.929 . S
H990 C984 0.930 . S
H991 C987 0.930 . S
C992 N993 1.314 . S
C992 C994 1.353 . S
C992 H998 0.930 . S
N993 Li969 1.990 . S
N993 C992 1.314 . S
N993 C996 1.279 . S
C994 C992 1.353 . S
C994 C997 1.348 . S
C994 H1042 0.929 . S
C995 C996 1.358 . S
C995 C997 1.356 . S
C995 H1043 0.930 . S
C996 N993 1.279 . S
C996 C995 1.358 . S
C996 H999 0.930 . S
C997 C994 1.348 . S
C997 C995 1.356 . S
H998 C992 0.930 . S
H999 C996 0.930 . S
C1000 C1002 1.348 . S
C1000 C1003 1.356 . S
C1000 O1030 1.325 . S
N1001 C1004 1.314 . S
N1001 C1005 1.279 . S
C1002 C1000 1.348 . S
C1002 C1004 1.353 . S
C1002 H1044 0.929 . S
C1003 C1000 1.356 . S
C1003 C1005 1.358 . S
C1003 H1045 0.930 . S
C1004 N1001 1.314 . S
C1004 C1002 1.353 . S
C1004 H1046 0.930 . S
C1005 N1001 1.279 . S
C1005 C1003 1.358 . S
C1005 H1047 0.930 . S
C1006 C1007 1.348 . S
C1006 C1008 1.356 . S
C1006 O1031 1.325 . S
C1007 C1006 1.348 . S
C1007 C1009 1.353 . S
C1007 H1048 0.929 . S
C1008 C1006 1.356 . S
C1008 C1010 1.358 . S
C1008 H1049 0.930 . S
C1009 C1007 1.353 . S
C1009 N1011 1.314 . S
C1009 H1050 0.930 . S
C1010 C1008 1.358 . S
C1010 N1011 1.279 . S
C1010 H1051 0.930 . S
N1011 C1009 1.314 . S
N1011 C1010 1.279 . S
C1012 C1014 1.353 . S
C1012 N1015 1.314 . S
C1012 H1018 0.930 . S
C1013 N1015 1.279 . S
C1013 C1016 1.358 . S
C1013 H1019 0.930 . S
C1014 C1012 1.353 . S
C1014 C1017 1.348 . S
C1014 H1052 0.929 . S
N1015 Li970 1.990 . S
N1015 C1012 1.314 . S
N1015 C1013 1.279 . S
C1016 C1013 1.358 . S
C1016 C1017 1.356 . S
C1016 H1053 0.930 . S
C1017 C1014 1.348 . S
C1017 C1016 1.356 . S
H1018 C1012 0.930 . S
H1019 C1013 0.930 . S
C1020 N1021 1.314 . S
C1020 C1022 1.353 . S
C1020 H1026 0.930 . S
N1021 Li971 1.990 . S
N1021 C1020 1.314 . S
N1021 C1024 1.279 . S
C1022 C1020 1.353 . S
C1022 C1025 1.348 . S
C1022 H1054 0.929 . S
C1023 C1024 1.358 . S
C1023 C1025 1.356 . S
C1023 H1055 0.930 . S
C1024 N1021 1.279 . S
C1024 C1023 1.358 . S
C1024 H1027 0.930 . S
C1025 C1022 1.348 . S
C1025 C1023 1.356 . S
H1026 C1020 0.930 . S
H1027 C1024 0.930 . S
O1028 Li968 1.956 . S
O1028 Li969 1.970 . S
O1028 Li970 1.961 . S
O1028 C972 1.325 . S
O1029 Li968 1.970 . S
O1029 Li969 1.956 . S
O1029 Li971 1.961 . S
O1029 C978 1.325 . S
O1030 Li968 1.961 . S
O1030 Li970 1.956 . S
O1030 Li971 1.970 . S
O1030 C1000 1.325 . S
O1031 Li969 1.961 . S
O1031 Li970 1.970 . S
O1031 Li971 1.956 . S
O1031 C1006 1.325 . S
H1032 C974 0.929 . S
H1033 C975 0.930 . S
H1034 C976 0.930 . S
H1035 C977 0.930 . S
H1036 C979 0.930 . S
H1037 C981 0.929 . S
H1038 C982 0.930 . S
H1039 C983 0.930 . S
H1040 C986 0.930 . S
H1041 C989 0.929 . S
H1042 C994 0.929 . S
H1043 C995 0.930 . S
H1044 C1002 0.929 . S
H1045 C1003 0.930 . S
H1046 C1004 0.930 . S
H1047 C1005 0.930 . S
H1048 C1007 0.929 . S
H1049 C1008 0.930 . S
H1050 C1009 0.930 . S
H1051 C1010 0.930 . S
H1052 C1014 0.929 . S
H1053 C1016 0.930 . S
H1054 C1022 0.929 . S
H1055 C1023 0.930 . S
Li1056 N1073 1.990 . S
Li1056 O1116 1.956 . S
Li1056 O1117 1.970 . S
Li1056 O1118 1.961 . S
Li1057 N1081 1.990 . S
Li1057 O1116 1.970 . S
Li1057 O1117 1.956 . S
Li1057 O1119 1.961 . S
Li1058 N1103 1.990 . S
Li1058 O1116 1.961 . S
Li1058 O1118 1.956 . S
Li1058 O1119 1.970 . S
Li1059 N1109 1.990 . S
Li1059 O1117 1.961 . S
Li1059 O1118 1.970 . S
Li1059 O1119 1.956 . S
C1060 C1062 1.348 . S
C1060 C1063 1.356 . S
C1060 O1116 1.325 . S
N1061 C1064 1.314 . S
N1061 C1065 1.279 . S
C1062 C1060 1.348 . S
C1062 C1064 1.353 . S
C1062 H1120 0.929 . S
C1063 C1060 1.356 . S
C1063 C1065 1.358 . S
C1063 H1121 0.930 . S
C1064 N1061 1.314 . S
C1064 C1062 1.353 . S
C1064 H1122 0.930 . S
C1065 N1061 1.279 . S
C1065 C1063 1.358 . S
C1065 H1123 0.930 . S
C1066 C1069 1.348 . S
C1066 C1070 1.356 . S
C1066 O1117 1.325 . S
C1067 N1068 1.279 . S
C1067 C1070 1.358 . S
C1067 H1124 0.930 . S
N1068 C1067 1.279 . S
N1068 C1071 1.314 . S
C1069 C1066 1.348 . S
C1069 C1071 1.353 . S
C1069 H1125 0.929 . S
C1070 C1066 1.356 . S
C1070 C1067 1.358 . S
C1070 H1126 0.930 . S
C1071 N1068 1.314 . S
C1071 C1069 1.353 . S
C1071 H1127 0.930 . S
C1072 N1073 1.314 . S
C1072 C1077 1.353 . S
C1072 H1078 0.930 . S
N1073 Li1056 1.990 . S
N1073 C1072 1.314 . S
N1073 C1075 1.279 . S
C1074 C1075 1.358 . S
C1074 C1076 1.356 . S
C1074 H1128 0.930 . S
C1075 N1073 1.279 . S
C1075 C1074 1.358 . S
C1075 H1079 0.930 . S
C1076 C1074 1.356 . S
C1076 C1077 1.348 . S
C1077 C1072 1.353 . S
C1077 C1076 1.348 . S
C1077 H1129 0.929 . S
H1078 C1072 0.930 . S
H1079 C1075 0.930 . S
C1080 N1081 1.314 . S
C1080 C1082 1.353 . S
C1080 H1086 0.930 . S
N1081 Li1057 1.990 . S
N1081 C1080 1.314 . S
N1081 C1084 1.279 . S
C1082 C1080 1.353 . S
C1082 C1085 1.348 . S
C1082 H1130 0.929 . S
C1083 C1084 1.358 . S
C1083 C1085 1.356 . S
C1083 H1131 0.930 . S
C1084 N1081 1.279 . S
C1084 C1083 1.358 . S
C1084 H1087 0.930 . S
C1085 C1082 1.348 . S
C1085 C1083 1.356 . S
H1086 C1080 0.930 . S
H1087 C1084 0.930 . S
C1088 C1090 1.348 . S
C1088 C1091 1.356 . S
C1088 O1118 1.325 . S
N1089 C1092 1.314 . S
N1089 C1093 1.279 . S
C1090 C1088 1.348 . S
C1090 C1092 1.353 . S
C1090 H1132 0.929 . S
C1091 C1088 1.356 . S
C1091 C1093 1.358 . S
C1091 H1133 0.930 . S
C1092 N1089 1.314 . S
C1092 C1090 1.353 . S
C1092 H1134 0.930 . S
C1093 N1089 1.279 . S
C1093 C1091 1.358 . S
C1093 H1135 0.930 . S
C1094 C1095 1.348 . S
C1094 C1096 1.356 . S
C1094 O1119 1.325 . S
C1095 C1094 1.348 . S
C1095 C1097 1.353 . S
C1095 H1136 0.929 . S
C1096 C1094 1.356 . S
C1096 C1098 1.358 . S
C1096 H1137 0.930 . S
C1097 C1095 1.353 . S
C1097 N1099 1.314 . S
C1097 H1138 0.930 . S
C1098 C1096 1.358 . S
C1098 N1099 1.279 . S
C1098 H1139 0.930 . S
N1099 C1097 1.314 . S
N1099 C1098 1.279 . S
C1100 C1102 1.353 . S
C1100 N1103 1.314 . S
C1100 H1106 0.930 . S
C1101 N1103 1.279 . S
C1101 C1104 1.358 . S
C1101 H1107 0.930 . S
C1102 C1100 1.353 . S
C1102 C1105 1.348 . S
C1102 H1140 0.929 . S
N1103 Li1058 1.990 . S
N1103 C1100 1.314 . S
N1103 C1101 1.279 . S
C1104 C1101 1.358 . S
C1104 C1105 1.356 . S
C1104 H1141 0.930 . S
C1105 C1102 1.348 . S
C1105 C1104 1.356 . S
H1106 C1100 0.930 . S
H1107 C1101 0.930 . S
C1108 N1109 1.314 . S
C1108 C1110 1.353 . S
C1108 H1114 0.930 . S
N1109 Li1059 1.990 . S
N1109 C1108 1.314 . S
N1109 C1112 1.279 . S
C1110 C1108 1.353 . S
C1110 C1113 1.348 . S
C1110 H1142 0.929 . S
C1111 C1112 1.358 . S
C1111 C1113 1.356 . S
C1111 H1143 0.930 . S
C1112 N1109 1.279 . S
C1112 C1111 1.358 . S
C1112 H1115 0.930 . S
C1113 C1110 1.348 . S
C1113 C1111 1.356 . S
H1114 C1108 0.930 . S
H1115 C1112 0.930 . S
O1116 Li1056 1.956 . S
O1116 Li1057 1.970 . S
O1116 Li1058 1.961 . S
O1116 C1060 1.325 . S
O1117 Li1056 1.970 . S
O1117 Li1057 1.956 . S
O1117 Li1059 1.961 . S
O1117 C1066 1.325 . S
O1118 Li1056 1.961 . S
O1118 Li1058 1.956 . S
O1118 Li1059 1.970 . S
O1118 C1088 1.325 . S
O1119 Li1057 1.961 . S
O1119 Li1058 1.970 . S
O1119 Li1059 1.956 . S
O1119 C1094 1.325 . S
H1120 C1062 0.929 . S
H1121 C1063 0.930 . S
H1122 C1064 0.930 . S
H1123 C1065 0.930 . S
H1124 C1067 0.930 . S
H1125 C1069 0.929 . S
H1126 C1070 0.930 . S
H1127 C1071 0.930 . S
H1128 C1074 0.930 . S
H1129 C1077 0.929 . S
H1130 C1082 0.929 . S
H1131 C1083 0.930 . S
H1132 C1090 0.929 . S
H1133 C1091 0.930 . S
H1134 C1092 0.930 . S
H1135 C1093 0.930 . S
H1136 C1095 0.929 . S
H1137 C1096 0.930 . S
H1138 C1097 0.930 . S
H1139 C1098 0.930 . S
H1140 C1102 0.929 . S
H1141 C1104 0.930 . S
H1142 C1110 0.929 . S
H1143 C1111 0.930 . S
Li1144 N1161 1.990 . S
Li1144 O1204 1.956 . S
Li1144 O1205 1.970 . S
Li1144 O1206 1.961 . S
Li1145 N1169 1.990 . S
Li1145 O1204 1.970 . S
Li1145 O1205 1.956 . S
Li1145 O1207 1.961 . S
Li1146 N1191 1.990 . S
Li1146 O1204 1.961 . S
Li1146 O1206 1.956 . S
Li1146 O1207 1.970 . S
Li1147 N1197 1.990 . S
Li1147 O1205 1.961 . S
Li1147 O1206 1.970 . S
Li1147 O1207 1.956 . S
C1148 C1150 1.348 . S
C1148 C1151 1.356 . S
C1148 O1204 1.325 . S
N1149 C1152 1.314 . S
N1149 C1153 1.279 . S
C1150 C1148 1.348 . S
C1150 C1152 1.353 . S
C1150 H1208 0.929 . S
C1151 C1148 1.356 . S
C1151 C1153 1.358 . S
C1151 H1209 0.930 . S
C1152 N1149 1.314 . S
C1152 C1150 1.353 . S
C1152 H1210 0.930 . S
C1153 N1149 1.279 . S
C1153 C1151 1.358 . S
C1153 H1211 0.930 . S
C1154 C1157 1.348 . S
C1154 C1158 1.356 . S
C1154 O1205 1.325 . S
C1155 N1156 1.279 . S
C1155 C1158 1.358 . S
C1155 H1212 0.930 . S
N1156 C1155 1.279 . S
N1156 C1159 1.314 . S
C1157 C1154 1.348 . S
C1157 C1159 1.353 . S
C1157 H1213 0.929 . S
C1158 C1154 1.356 . S
C1158 C1155 1.358 . S
C1158 H1214 0.930 . S
C1159 N1156 1.314 . S
C1159 C1157 1.353 . S
C1159 H1215 0.930 . S
C1160 N1161 1.314 . S
C1160 C1165 1.353 . S
C1160 H1166 0.930 . S
N1161 Li1144 1.990 . S
N1161 C1160 1.314 . S
N1161 C1163 1.279 . S
C1162 C1163 1.358 . S
C1162 C1164 1.356 . S
C1162 H1216 0.930 . S
C1163 N1161 1.279 . S
C1163 C1162 1.358 . S
C1163 H1167 0.930 . S
C1164 C1162 1.356 . S
C1164 C1165 1.348 . S
C1165 C1160 1.353 . S
C1165 C1164 1.348 . S
C1165 H1217 0.929 . S
H1166 C1160 0.930 . S
H1167 C1163 0.930 . S
C1168 N1169 1.314 . S
C1168 C1170 1.353 . S
C1168 H1174 0.930 . S
N1169 Li1145 1.990 . S
N1169 C1168 1.314 . S
N1169 C1172 1.279 . S
C1170 C1168 1.353 . S
C1170 C1173 1.348 . S
C1170 H1218 0.929 . S
C1171 C1172 1.358 . S
C1171 C1173 1.356 . S
C1171 H1219 0.930 . S
C1172 N1169 1.279 . S
C1172 C1171 1.358 . S
C1172 H1175 0.930 . S
C1173 C1170 1.348 . S
C1173 C1171 1.356 . S
H1174 C1168 0.930 . S
H1175 C1172 0.930 . S
C1176 C1178 1.348 . S
C1176 C1179 1.356 . S
C1176 O1206 1.325 . S
N1177 C1180 1.314 . S
N1177 C1181 1.279 . S
C1178 C1176 1.348 . S
C1178 C1180 1.353 . S
C1178 H1220 0.929 . S
C1179 C1176 1.356 . S
C1179 C1181 1.358 . S
C1179 H1221 0.930 . S
C1180 N1177 1.314 . S
C1180 C1178 1.353 . S
C1180 H1222 0.930 . S
C1181 N1177 1.279 . S
C1181 C1179 1.358 . S
C1181 H1223 0.930 . S
C1182 C1183 1.348 . S
C1182 C1184 1.356 . S
C1182 O1207 1.325 . S
C1183 C1182 1.348 . S
C1183 C1185 1.353 . S
C1183 H1224 0.929 . S
C1184 C1182 1.356 . S
C1184 C1186 1.358 . S
C1184 H1225 0.930 . S
C1185 C1183 1.353 . S
C1185 N1187 1.314 . S
C1185 H1226 0.930 . S
C1186 C1184 1.358 . S
C1186 N1187 1.279 . S
C1186 H1227 0.930 . S
N1187 C1185 1.314 . S
N1187 C1186 1.279 . S
C1188 C1190 1.353 . S
C1188 N1191 1.314 . S
C1188 H1194 0.930 . S
C1189 N1191 1.279 . S
C1189 C1192 1.358 . S
C1189 H1195 0.930 . S
C1190 C1188 1.353 . S
C1190 C1193 1.348 . S
C1190 H1228 0.929 . S
N1191 Li1146 1.990 . S
N1191 C1188 1.314 . S
N1191 C1189 1.279 . S
C1192 C1189 1.358 . S
C1192 C1193 1.356 . S
C1192 H1229 0.930 . S
C1193 C1190 1.348 . S
C1193 C1192 1.356 . S
H1194 C1188 0.930 . S
H1195 C1189 0.930 . S
C1196 N1197 1.314 . S
C1196 C1198 1.353 . S
C1196 H1202 0.930 . S
N1197 Li1147 1.990 . S
N1197 C1196 1.314 . S
N1197 C1200 1.279 . S
C1198 C1196 1.353 . S
C1198 C1201 1.348 . S
C1198 H1230 0.929 . S
C1199 C1200 1.358 . S
C1199 C1201 1.356 . S
C1199 H1231 0.930 . S
C1200 N1197 1.279 . S
C1200 C1199 1.358 . S
C1200 H1203 0.930 . S
C1201 C1198 1.348 . S
C1201 C1199 1.356 . S
H1202 C1196 0.930 . S
H1203 C1200 0.930 . S
O1204 Li1144 1.956 . S
O1204 Li1145 1.970 . S
O1204 Li1146 1.961 . S
O1204 C1148 1.325 . S
O1205 Li1144 1.970 . S
O1205 Li1145 1.956 . S
O1205 Li1147 1.961 . S
O1205 C1154 1.325 . S
O1206 Li1144 1.961 . S
O1206 Li1146 1.956 . S
O1206 Li1147 1.970 . S
O1206 C1176 1.325 . S
O1207 Li1145 1.961 . S
O1207 Li1146 1.970 . S
O1207 Li1147 1.956 . S
O1207 C1182 1.325 . S
H1208 C1150 0.929 . S
H1209 C1151 0.930 . S
H1210 C1152 0.930 . S
H1211 C1153 0.930 . S
H1212 C1155 0.930 . S
H1213 C1157 0.929 . S
H1214 C1158 0.930 . S
H1215 C1159 0.930 . S
H1216 C1162 0.930 . S
H1217 C1165 0.929 . S
H1218 C1170 0.929 . S
H1219 C1171 0.930 . S
H1220 C1178 0.929 . S
H1221 C1179 0.930 . S
H1222 C1180 0.930 . S
H1223 C1181 0.930 . S
H1224 C1183 0.929 . S
H1225 C1184 0.930 . S
H1226 C1185 0.930 . S
H1227 C1186 0.930 . S
H1228 C1190 0.929 . S
H1229 C1192 0.930 . S
H1230 C1198 0.929 . S
H1231 C1199 0.930 . S
Li1232 N1249 1.990 . S
Li1232 O1292 1.956 . S
Li1232 O1293 1.970 . S
Li1232 O1294 1.961 . S
Li1233 N1257 1.990 . S
Li1233 O1292 1.970 . S
Li1233 O1293 1.956 . S
Li1233 O1295 1.961 . S
Li1234 N1279 1.990 . S
Li1234 O1292 1.961 . S
Li1234 O1294 1.956 . S
Li1234 O1295 1.970 . S
Li1235 N1285 1.990 . S
Li1235 O1293 1.961 . S
Li1235 O1294 1.970 . S
Li1235 O1295 1.956 . S
C1236 C1238 1.348 . S
C1236 C1239 1.356 . S
C1236 O1292 1.325 . S
N1237 C1240 1.314 . S
N1237 C1241 1.279 . S
C1238 C1236 1.348 . S
C1238 C1240 1.353 . S
C1238 H1296 0.929 . S
C1239 C1236 1.356 . S
C1239 C1241 1.358 . S
C1239 H1297 0.930 . S
C1240 N1237 1.314 . S
C1240 C1238 1.353 . S
C1240 H1298 0.930 . S
C1241 N1237 1.279 . S
C1241 C1239 1.358 . S
C1241 H1299 0.930 . S
C1242 C1245 1.348 . S
C1242 C1246 1.356 . S
C1242 O1293 1.325 . S
C1243 N1244 1.279 . S
C1243 C1246 1.358 . S
C1243 H1300 0.930 . S
N1244 C1243 1.279 . S
N1244 C1247 1.314 . S
C1245 C1242 1.348 . S
C1245 C1247 1.353 . S
C1245 H1301 0.929 . S
C1246 C1242 1.356 . S
C1246 C1243 1.358 . S
C1246 H1302 0.930 . S
C1247 N1244 1.314 . S
C1247 C1245 1.353 . S
C1247 H1303 0.930 . S
C1248 N1249 1.314 . S
C1248 C1253 1.353 . S
C1248 H1254 0.930 . S
N1249 Li1232 1.990 . S
N1249 C1248 1.314 . S
N1249 C1251 1.279 . S
C1250 C1251 1.358 . S
C1250 C1252 1.356 . S
C1250 H1304 0.930 . S
C1251 N1249 1.279 . S
C1251 C1250 1.358 . S
C1251 H1255 0.930 . S
C1252 C1250 1.356 . S
C1252 C1253 1.348 . S
C1253 C1248 1.353 . S
C1253 C1252 1.348 . S
C1253 H1305 0.929 . S
H1254 C1248 0.930 . S
H1255 C1251 0.930 . S
C1256 N1257 1.314 . S
C1256 C1258 1.353 . S
C1256 H1262 0.930 . S
N1257 Li1233 1.990 . S
N1257 C1256 1.314 . S
N1257 C1260 1.279 . S
C1258 C1256 1.353 . S
C1258 C1261 1.348 . S
C1258 H1306 0.929 . S
C1259 C1260 1.358 . S
C1259 C1261 1.356 . S
C1259 H1307 0.930 . S
C1260 N1257 1.279 . S
C1260 C1259 1.358 . S
C1260 H1263 0.930 . S
C1261 C1258 1.348 . S
C1261 C1259 1.356 . S
H1262 C1256 0.930 . S
H1263 C1260 0.930 . S
C1264 C1266 1.348 . S
C1264 C1267 1.356 . S
C1264 O1294 1.325 . S
N1265 C1268 1.314 . S
N1265 C1269 1.279 . S
C1266 C1264 1.348 . S
C1266 C1268 1.353 . S
C1266 H1308 0.929 . S
C1267 C1264 1.356 . S
C1267 C1269 1.358 . S
C1267 H1309 0.930 . S
C1268 N1265 1.314 . S
C1268 C1266 1.353 . S
C1268 H1310 0.930 . S
C1269 N1265 1.279 . S
C1269 C1267 1.358 . S
C1269 H1311 0.930 . S
C1270 C1271 1.348 . S
C1270 C1272 1.356 . S
C1270 O1295 1.325 . S
C1271 C1270 1.348 . S
C1271 C1273 1.353 . S
C1271 H1312 0.929 . S
C1272 C1270 1.356 . S
C1272 C1274 1.358 . S
C1272 H1313 0.930 . S
C1273 C1271 1.353 . S
C1273 N1275 1.314 . S
C1273 H1314 0.930 . S
C1274 C1272 1.358 . S
C1274 N1275 1.279 . S
C1274 H1315 0.930 . S
N1275 C1273 1.314 . S
N1275 C1274 1.279 . S
C1276 C1278 1.353 . S
C1276 N1279 1.314 . S
C1276 H1282 0.930 . S
C1277 N1279 1.279 . S
C1277 C1280 1.358 . S
C1277 H1283 0.930 . S
C1278 C1276 1.353 . S
C1278 C1281 1.348 . S
C1278 H1316 0.929 . S
N1279 Li1234 1.990 . S
N1279 C1276 1.314 . S
N1279 C1277 1.279 . S
C1280 C1277 1.358 . S
C1280 C1281 1.356 . S
C1280 H1317 0.930 . S
C1281 C1278 1.348 . S
C1281 C1280 1.356 . S
H1282 C1276 0.930 . S
H1283 C1277 0.930 . S
C1284 N1285 1.314 . S
C1284 C1286 1.353 . S
C1284 H1290 0.930 . S
N1285 Li1235 1.990 . S
N1285 C1284 1.314 . S
N1285 C1288 1.279 . S
C1286 C1284 1.353 . S
C1286 C1289 1.348 . S
C1286 H1318 0.929 . S
C1287 C1288 1.358 . S
C1287 C1289 1.356 . S
C1287 H1319 0.930 . S
C1288 N1285 1.279 . S
C1288 C1287 1.358 . S
C1288 H1291 0.930 . S
C1289 C1286 1.348 . S
C1289 C1287 1.356 . S
H1290 C1284 0.930 . S
H1291 C1288 0.930 . S
O1292 Li1232 1.956 . S
O1292 Li1233 1.970 . S
O1292 Li1234 1.961 . S
O1292 C1236 1.325 . S
O1293 Li1232 1.970 . S
O1293 Li1233 1.956 . S
O1293 Li1235 1.961 . S
O1293 C1242 1.325 . S
O1294 Li1232 1.961 . S
O1294 Li1234 1.956 . S
O1294 Li1235 1.970 . S
O1294 C1264 1.325 . S
O1295 Li1233 1.961 . S
O1295 Li1234 1.970 . S
O1295 Li1235 1.956 . S
O1295 C1270 1.325 . S
H1296 C1238 0.929 . S
H1297 C1239 0.930 . S
H1298 C1240 0.930 . S
H1299 C1241 0.930 . S
H1300 C1243 0.930 . S
H1301 C1245 0.929 . S
H1302 C1246 0.930 . S
H1303 C1247 0.930 . S
H1304 C1250 0.930 . S
H1305 C1253 0.929 . S
H1306 C1258 0.929 . S
H1307 C1259 0.930 . S
H1308 C1266 0.929 . S
H1309 C1267 0.930 . S
H1310 C1268 0.930 . S
H1311 C1269 0.930 . S
H1312 C1271 0.929 . S
H1313 C1272 0.930 . S
H1314 C1273 0.930 . S
H1315 C1274 0.930 . S
H1316 C1278 0.929 . S
H1317 C1280 0.930 . S
H1318 C1286 0.929 . S
H1319 C1287 0.930 . S
Li1320 N1337 1.990 . S
Li1320 O1380 1.956 . S
Li1320 O1381 1.970 . S
Li1320 O1382 1.961 . S
Li1321 N1345 1.990 . S
Li1321 O1380 1.970 . S
Li1321 O1381 1.956 . S
Li1321 O1383 1.961 . S
Li1322 N1367 1.990 . S
Li1322 O1380 1.961 . S
Li1322 O1382 1.956 . S
Li1322 O1383 1.970 . S
Li1323 N1373 1.990 . S
Li1323 O1381 1.961 . S
Li1323 O1382 1.970 . S
Li1323 O1383 1.956 . S
C1324 C1326 1.348 . S
C1324 C1327 1.356 . S
C1324 O1380 1.325 . S
N1325 C1328 1.314 . S
N1325 C1329 1.279 . S
C1326 C1324 1.348 . S
C1326 C1328 1.353 . S
C1326 H1384 0.929 . S
C1327 C1324 1.356 . S
C1327 C1329 1.358 . S
C1327 H1385 0.930 . S
C1328 N1325 1.314 . S
C1328 C1326 1.353 . S
C1328 H1386 0.930 . S
C1329 N1325 1.279 . S
C1329 C1327 1.358 . S
C1329 H1387 0.930 . S
C1330 C1333 1.348 . S
C1330 C1334 1.356 . S
C1330 O1381 1.325 . S
C1331 N1332 1.279 . S
C1331 C1334 1.358 . S
C1331 H1388 0.930 . S
N1332 C1331 1.279 . S
N1332 C1335 1.314 . S
C1333 C1330 1.348 . S
C1333 C1335 1.353 . S
C1333 H1389 0.929 . S
C1334 C1330 1.356 . S
C1334 C1331 1.358 . S
C1334 H1390 0.930 . S
C1335 N1332 1.314 . S
C1335 C1333 1.353 . S
C1335 H1391 0.930 . S
C1336 N1337 1.314 . S
C1336 C1341 1.353 . S
C1336 H1342 0.930 . S
N1337 Li1320 1.990 . S
N1337 C1336 1.314 . S
N1337 C1339 1.279 . S
C1338 C1339 1.358 . S
C1338 C1340 1.356 . S
C1338 H1392 0.930 . S
C1339 N1337 1.279 . S
C1339 C1338 1.358 . S
C1339 H1343 0.930 . S
C1340 C1338 1.356 . S
C1340 C1341 1.348 . S
C1341 C1336 1.353 . S
C1341 C1340 1.348 . S
C1341 H1393 0.929 . S
H1342 C1336 0.930 . S
H1343 C1339 0.930 . S
C1344 N1345 1.314 . S
C1344 C1346 1.353 . S
C1344 H1350 0.930 . S
N1345 Li1321 1.990 . S
N1345 C1344 1.314 . S
N1345 C1348 1.279 . S
C1346 C1344 1.353 . S
C1346 C1349 1.348 . S
C1346 H1394 0.929 . S
C1347 C1348 1.358 . S
C1347 C1349 1.356 . S
C1347 H1395 0.930 . S
C1348 N1345 1.279 . S
C1348 C1347 1.358 . S
C1348 H1351 0.930 . S
C1349 C1346 1.348 . S
C1349 C1347 1.356 . S
H1350 C1344 0.930 . S
H1351 C1348 0.930 . S
C1352 C1354 1.348 . S
C1352 C1355 1.356 . S
C1352 O1382 1.325 . S
N1353 C1356 1.314 . S
N1353 C1357 1.279 . S
C1354 C1352 1.348 . S
C1354 C1356 1.353 . S
C1354 H1396 0.929 . S
C1355 C1352 1.356 . S
C1355 C1357 1.358 . S
C1355 H1397 0.930 . S
C1356 N1353 1.314 . S
C1356 C1354 1.353 . S
C1356 H1398 0.930 . S
C1357 N1353 1.279 . S
C1357 C1355 1.358 . S
C1357 H1399 0.930 . S
C1358 C1359 1.348 . S
C1358 C1360 1.356 . S
C1358 O1383 1.325 . S
C1359 C1358 1.348 . S
C1359 C1361 1.353 . S
C1359 H1400 0.929 . S
C1360 C1358 1.356 . S
C1360 C1362 1.358 . S
C1360 H1401 0.930 . S
C1361 C1359 1.353 . S
C1361 N1363 1.314 . S
C1361 H1402 0.930 . S
C1362 C1360 1.358 . S
C1362 N1363 1.279 . S
C1362 H1403 0.930 . S
N1363 C1361 1.314 . S
N1363 C1362 1.279 . S
C1364 C1366 1.353 . S
C1364 N1367 1.314 . S
C1364 H1370 0.930 . S
C1365 N1367 1.279 . S
C1365 C1368 1.358 . S
C1365 H1371 0.930 . S
C1366 C1364 1.353 . S
C1366 C1369 1.348 . S
C1366 H1404 0.929 . S
N1367 Li1322 1.990 . S
N1367 C1364 1.314 . S
N1367 C1365 1.279 . S
C1368 C1365 1.358 . S
C1368 C1369 1.356 . S
C1368 H1405 0.930 . S
C1369 C1366 1.348 . S
C1369 C1368 1.356 . S
H1370 C1364 0.930 . S
H1371 C1365 0.930 . S
C1372 N1373 1.314 . S
C1372 C1374 1.353 . S
C1372 H1378 0.930 . S
N1373 Li1323 1.990 . S
N1373 C1372 1.314 . S
N1373 C1376 1.279 . S
C1374 C1372 1.353 . S
C1374 C1377 1.348 . S
C1374 H1406 0.929 . S
C1375 C1376 1.358 . S
C1375 C1377 1.356 . S
C1375 H1407 0.930 . S
C1376 N1373 1.279 . S
C1376 C1375 1.358 . S
C1376 H1379 0.930 . S
C1377 C1374 1.348 . S
C1377 C1375 1.356 . S
H1378 C1372 0.930 . S
H1379 C1376 0.930 . S
O1380 Li1320 1.956 . S
O1380 Li1321 1.970 . S
O1380 Li1322 1.961 . S
O1380 C1324 1.325 . S
O1381 Li1320 1.970 . S
O1381 Li1321 1.956 . S
O1381 Li1323 1.961 . S
O1381 C1330 1.325 . S
O1382 Li1320 1.961 . S
O1382 Li1322 1.956 . S
O1382 Li1323 1.970 . S
O1382 C1352 1.325 . S
O1383 Li1321 1.961 . S
O1383 Li1322 1.970 . S
O1383 Li1323 1.956 . S
O1383 C1358 1.325 . S
H1384 C1326 0.929 . S
H1385 C1327 0.930 . S
H1386 C1328 0.930 . S
H1387 C1329 0.930 . S
H1388 C1331 0.930 . S
H1389 C1333 0.929 . S
H1390 C1334 0.930 . S
H1391 C1335 0.930 . S
H1392 C1338 0.930 . S
H1393 C1341 0.929 . S
H1394 C1346 0.929 . S
H1395 C1347 0.930 . S
H1396 C1354 0.929 . S
H1397 C1355 0.930 . S
H1398 C1356 0.930 . S
H1399 C1357 0.930 . S
H1400 C1359 0.929 . S
H1401 C1360 0.930 . S
H1402 C1361 0.930 . S
H1403 C1362 0.930 . S
H1404 C1366 0.929 . S
H1405 C1368 0.930 . S
H1406 C1374 0.929 . S
H1407 C1375 0.930 . S
Li1408 N1425 1.990 . S
Li1408 O1468 1.956 . S
Li1408 O1469 1.970 . S
Li1408 O1470 1.961 . S
Li1409 N1433 1.990 . S
Li1409 O1468 1.970 . S
Li1409 O1469 1.956 . S
Li1409 O1471 1.961 . S
Li1410 N1455 1.990 . S
Li1410 O1468 1.961 . S
Li1410 O1470 1.956 . S
Li1410 O1471 1.970 . S
Li1411 N1461 1.990 . S
Li1411 O1469 1.961 . S
Li1411 O1470 1.970 . S
Li1411 O1471 1.956 . S
C1412 C1414 1.348 . S
C1412 C1415 1.356 . S
C1412 O1468 1.325 . S
N1413 C1416 1.314 . S
N1413 C1417 1.279 . S
C1414 C1412 1.348 . S
C1414 C1416 1.353 . S
C1414 H1472 0.929 . S
C1415 C1412 1.356 . S
C1415 C1417 1.358 . S
C1415 H1473 0.930 . S
C1416 N1413 1.314 . S
C1416 C1414 1.353 . S
C1416 H1474 0.930 . S
C1417 N1413 1.279 . S
C1417 C1415 1.358 . S
C1417 H1475 0.930 . S
C1418 C1421 1.348 . S
C1418 C1422 1.356 . S
C1418 O1469 1.325 . S
C1419 N1420 1.279 . S
C1419 C1422 1.358 . S
C1419 H1476 0.930 . S
N1420 C1419 1.279 . S
N1420 C1423 1.314 . S
C1421 C1418 1.348 . S
C1421 C1423 1.353 . S
C1421 H1477 0.929 . S
C1422 C1418 1.356 . S
C1422 C1419 1.358 . S
C1422 H1478 0.930 . S
C1423 N1420 1.314 . S
C1423 C1421 1.353 . S
C1423 H1479 0.930 . S
C1424 N1425 1.314 . S
C1424 C1429 1.353 . S
C1424 H1430 0.930 . S
N1425 Li1408 1.990 . S
N1425 C1424 1.314 . S
N1425 C1427 1.279 . S
C1426 C1427 1.358 . S
C1426 C1428 1.356 . S
C1426 H1480 0.930 . S
C1427 N1425 1.279 . S
C1427 C1426 1.358 . S
C1427 H1431 0.930 . S
C1428 C1426 1.356 . S
C1428 C1429 1.348 . S
C1429 C1424 1.353 . S
C1429 C1428 1.348 . S
C1429 H1481 0.929 . S
H1430 C1424 0.930 . S
H1431 C1427 0.930 . S
C1432 N1433 1.314 . S
C1432 C1434 1.353 . S
C1432 H1438 0.930 . S
N1433 Li1409 1.990 . S
N1433 C1432 1.314 . S
N1433 C1436 1.279 . S
C1434 C1432 1.353 . S
C1434 C1437 1.348 . S
C1434 H1482 0.929 . S
C1435 C1436 1.358 . S
C1435 C1437 1.356 . S
C1435 H1483 0.930 . S
C1436 N1433 1.279 . S
C1436 C1435 1.358 . S
C1436 H1439 0.930 . S
C1437 C1434 1.348 . S
C1437 C1435 1.356 . S
H1438 C1432 0.930 . S
H1439 C1436 0.930 . S
C1440 C1442 1.348 . S
C1440 C1443 1.356 . S
C1440 O1470 1.325 . S
N1441 C1444 1.314 . S
N1441 C1445 1.279 . S
C1442 C1440 1.348 . S
C1442 C1444 1.353 . S
C1442 H1484 0.929 . S
C1443 C1440 1.356 . S
C1443 C1445 1.358 . S
C1443 H1485 0.930 . S
C1444 N1441 1.314 . S
C1444 C1442 1.353 . S
C1444 H1486 0.930 . S
C1445 N1441 1.279 . S
C1445 C1443 1.358 . S
C1445 H1487 0.930 . S
C1446 C1447 1.348 . S
C1446 C1448 1.356 . S
C1446 O1471 1.325 . S
C1447 C1446 1.348 . S
C1447 C1449 1.353 . S
C1447 H1488 0.929 . S
C1448 C1446 1.356 . S
C1448 C1450 1.358 . S
C1448 H1489 0.930 . S
C1449 C1447 1.353 . S
C1449 N1451 1.314 . S
C1449 H1490 0.930 . S
C1450 C1448 1.358 . S
C1450 N1451 1.279 . S
C1450 H1491 0.930 . S
N1451 C1449 1.314 . S
N1451 C1450 1.279 . S
C1452 C1454 1.353 . S
C1452 N1455 1.314 . S
C1452 H1458 0.930 . S
C1453 N1455 1.279 . S
C1453 C1456 1.358 . S
C1453 H1459 0.930 . S
C1454 C1452 1.353 . S
C1454 C1457 1.348 . S
C1454 H1492 0.929 . S
N1455 Li1410 1.990 . S
N1455 C1452 1.314 . S
N1455 C1453 1.279 . S
C1456 C1453 1.358 . S
C1456 C1457 1.356 . S
C1456 H1493 0.930 . S
C1457 C1454 1.348 . S
C1457 C1456 1.356 . S
H1458 C1452 0.930 . S
H1459 C1453 0.930 . S
C1460 N1461 1.314 . S
C1460 C1462 1.353 . S
C1460 H1466 0.930 . S
N1461 Li1411 1.990 . S
N1461 C1460 1.314 . S
N1461 C1464 1.279 . S
C1462 C1460 1.353 . S
C1462 C1465 1.348 . S
C1462 H1494 0.929 . S
C1463 C1464 1.358 . S
C1463 C1465 1.356 . S
C1463 H1495 0.930 . S
C1464 N1461 1.279 . S
C1464 C1463 1.358 . S
C1464 H1467 0.930 . S
C1465 C1462 1.348 . S
C1465 C1463 1.356 . S
H1466 C1460 0.930 . S
H1467 C1464 0.930 . S
O1468 Li1408 1.956 . S
O1468 Li1409 1.970 . S
O1468 Li1410 1.961 . S
O1468 C1412 1.325 . S
O1469 Li1408 1.970 . S
O1469 Li1409 1.956 . S
O1469 Li1411 1.961 . S
O1469 C1418 1.325 . S
O1470 Li1408 1.961 . S
O1470 Li1410 1.956 . S
O1470 Li1411 1.970 . S
O1470 C1440 1.325 . S
O1471 Li1409 1.961 . S
O1471 Li1410 1.970 . S
O1471 Li1411 1.956 . S
O1471 C1446 1.325 . S
H1472 C1414 0.929 . S
H1473 C1415 0.930 . S
H1474 C1416 0.930 . S
H1475 C1417 0.930 . S
H1476 C1419 0.930 . S
H1477 C1421 0.929 . S
H1478 C1422 0.930 . S
H1479 C1423 0.930 . S
H1480 C1426 0.930 . S
H1481 C1429 0.929 . S
H1482 C1434 0.929 . S
H1483 C1435 0.930 . S
H1484 C1442 0.929 . S
H1485 C1443 0.930 . S
H1486 C1444 0.930 . S
H1487 C1445 0.930 . S
H1488 C1447 0.929 . S
H1489 C1448 0.930 . S
H1490 C1449 0.930 . S
H1491 C1450 0.930 . S
H1492 C1454 0.929 . S
H1493 C1456 0.930 . S
H1494 C1462 0.929 . S
H1495 C1463 0.930 . S
Li1496 N1513 1.990 . S
Li1496 O1556 1.956 . S
Li1496 O1557 1.970 . S
Li1496 O1558 1.961 . S
Li1497 N1521 1.990 . S
Li1497 O1556 1.970 . S
Li1497 O1557 1.956 . S
Li1497 O1559 1.961 . S
Li1498 N1543 1.990 . S
Li1498 O1556 1.961 . S
Li1498 O1558 1.956 . S
Li1498 O1559 1.970 . S
Li1499 N1549 1.990 . S
Li1499 O1557 1.961 . S
Li1499 O1558 1.970 . S
Li1499 O1559 1.956 . S
C1500 C1502 1.348 . S
C1500 C1503 1.356 . S
C1500 O1556 1.325 . S
N1501 C1504 1.314 . S
N1501 C1505 1.279 . S
C1502 C1500 1.348 . S
C1502 C1504 1.353 . S
C1502 H1560 0.929 . S
C1503 C1500 1.356 . S
C1503 C1505 1.358 . S
C1503 H1561 0.930 . S
C1504 N1501 1.314 . S
C1504 C1502 1.353 . S
C1504 H1562 0.930 . S
C1505 N1501 1.279 . S
C1505 C1503 1.358 . S
C1505 H1563 0.930 . S
C1506 C1509 1.348 . S
C1506 C1510 1.356 . S
C1506 O1557 1.325 . S
C1507 N1508 1.279 . S
C1507 C1510 1.358 . S
C1507 H1564 0.930 . S
N1508 C1507 1.279 . S
N1508 C1511 1.314 . S
C1509 C1506 1.348 . S
C1509 C1511 1.353 . S
C1509 H1565 0.929 . S
C1510 C1506 1.356 . S
C1510 C1507 1.358 . S
C1510 H1566 0.930 . S
C1511 N1508 1.314 . S
C1511 C1509 1.353 . S
C1511 H1567 0.930 . S
C1512 N1513 1.314 . S
C1512 C1517 1.353 . S
C1512 H1518 0.930 . S
N1513 Li1496 1.990 . S
N1513 C1512 1.314 . S
N1513 C1515 1.279 . S
C1514 C1515 1.358 . S
C1514 C1516 1.356 . S
C1514 H1568 0.930 . S
C1515 N1513 1.279 . S
C1515 C1514 1.358 . S
C1515 H1519 0.930 . S
C1516 C1514 1.356 . S
C1516 C1517 1.348 . S
C1517 C1512 1.353 . S
C1517 C1516 1.348 . S
C1517 H1569 0.929 . S
H1518 C1512 0.930 . S
H1519 C1515 0.930 . S
C1520 N1521 1.314 . S
C1520 C1522 1.353 . S
C1520 H1526 0.930 . S
N1521 Li1497 1.990 . S
N1521 C1520 1.314 . S
N1521 C1524 1.279 . S
C1522 C1520 1.353 . S
C1522 C1525 1.348 . S
C1522 H1570 0.929 . S
C1523 C1524 1.358 . S
C1523 C1525 1.356 . S
C1523 H1571 0.930 . S
C1524 N1521 1.279 . S
C1524 C1523 1.358 . S
C1524 H1527 0.930 . S
C1525 C1522 1.348 . S
C1525 C1523 1.356 . S
H1526 C1520 0.930 . S
H1527 C1524 0.930 . S
C1528 C1530 1.348 . S
C1528 C1531 1.356 . S
C1528 O1558 1.325 . S
N1529 C1532 1.314 . S
N1529 C1533 1.279 . S
C1530 C1528 1.348 . S
C1530 C1532 1.353 . S
C1530 H1572 0.929 . S
C1531 C1528 1.356 . S
C1531 C1533 1.358 . S
C1531 H1573 0.930 . S
C1532 N1529 1.314 . S
C1532 C1530 1.353 . S
C1532 H1574 0.930 . S
C1533 N1529 1.279 . S
C1533 C1531 1.358 . S
C1533 H1575 0.930 . S
C1534 C1535 1.348 . S
C1534 C1536 1.356 . S
C1534 O1559 1.325 . S
C1535 C1534 1.348 . S
C1535 C1537 1.353 . S
C1535 H1576 0.929 . S
C1536 C1534 1.356 . S
C1536 C1538 1.358 . S
C1536 H1577 0.930 . S
C1537 C1535 1.353 . S
C1537 N1539 1.314 . S
C1537 H1578 0.930 . S
C1538 C1536 1.358 . S
C1538 N1539 1.279 . S
C1538 H1579 0.930 . S
N1539 C1537 1.314 . S
N1539 C1538 1.279 . S
C1540 C1542 1.353 . S
C1540 N1543 1.314 . S
C1540 H1546 0.930 . S
C1541 N1543 1.279 . S
C1541 C1544 1.358 . S
C1541 H1547 0.930 . S
C1542 C1540 1.353 . S
C1542 C1545 1.348 . S
C1542 H1580 0.929 . S
N1543 Li1498 1.990 . S
N1543 C1540 1.314 . S
N1543 C1541 1.279 . S
C1544 C1541 1.358 . S
C1544 C1545 1.356 . S
C1544 H1581 0.930 . S
C1545 C1542 1.348 . S
C1545 C1544 1.356 . S
H1546 C1540 0.930 . S
H1547 C1541 0.930 . S
C1548 N1549 1.314 . S
C1548 C1550 1.353 . S
C1548 H1554 0.930 . S
N1549 Li1499 1.990 . S
N1549 C1548 1.314 . S
N1549 C1552 1.279 . S
C1550 C1548 1.353 . S
C1550 C1553 1.348 . S
C1550 H1582 0.929 . S
C1551 C1552 1.358 . S
C1551 C1553 1.356 . S
C1551 H1583 0.930 . S
C1552 N1549 1.279 . S
C1552 C1551 1.358 . S
C1552 H1555 0.930 . S
C1553 C1550 1.348 . S
C1553 C1551 1.356 . S
H1554 C1548 0.930 . S
H1555 C1552 0.930 . S
O1556 Li1496 1.956 . S
O1556 Li1497 1.970 . S
O1556 Li1498 1.961 . S
O1556 C1500 1.325 . S
O1557 Li1496 1.970 . S
O1557 Li1497 1.956 . S
O1557 Li1499 1.961 . S
O1557 C1506 1.325 . S
O1558 Li1496 1.961 . S
O1558 Li1498 1.956 . S
O1558 Li1499 1.970 . S
O1558 C1528 1.325 . S
O1559 Li1497 1.961 . S
O1559 Li1498 1.970 . S
O1559 Li1499 1.956 . S
O1559 C1534 1.325 . S
H1560 C1502 0.929 . S
H1561 C1503 0.930 . S
H1562 C1504 0.930 . S
H1563 C1505 0.930 . S
H1564 C1507 0.930 . S
H1565 C1509 0.929 . S
H1566 C1510 0.930 . S
H1567 C1511 0.930 . S
H1568 C1514 0.930 . S
H1569 C1517 0.929 . S
H1570 C1522 0.929 . S
H1571 C1523 0.930 . S
H1572 C1530 0.929 . S
H1573 C1531 0.930 . S
H1574 C1532 0.930 . S
H1575 C1533 0.930 . S
H1576 C1535 0.929 . S
H1577 C1536 0.930 . S
H1578 C1537 0.930 . S
H1579 C1538 0.930 . S
H1580 C1542 0.929 . S
H1581 C1544 0.930 . S
H1582 C1550 0.929 . S
H1583 C1551 0.930 . S
Li1584 N1601 1.990 . S
Li1584 O1644 1.956 . S
Li1584 O1645 1.970 . S
Li1584 O1646 1.961 . S
Li1585 N1609 1.990 . S
Li1585 O1644 1.970 . S
Li1585 O1645 1.956 . S
Li1585 O1647 1.961 . S
Li1586 N1631 1.990 . S
Li1586 O1644 1.961 . S
Li1586 O1646 1.956 . S
Li1586 O1647 1.970 . S
Li1587 N1637 1.990 . S
Li1587 O1645 1.961 . S
Li1587 O1646 1.970 . S
Li1587 O1647 1.956 . S
C1588 C1590 1.348 . S
C1588 C1591 1.356 . S
C1588 O1644 1.325 . S
N1589 C1592 1.314 . S
N1589 C1593 1.279 . S
C1590 C1588 1.348 . S
C1590 C1592 1.353 . S
C1590 H1648 0.929 . S
C1591 C1588 1.356 . S
C1591 C1593 1.358 . S
C1591 H1649 0.930 . S
C1592 N1589 1.314 . S
C1592 C1590 1.353 . S
C1592 H1650 0.930 . S
C1593 N1589 1.279 . S
C1593 C1591 1.358 . S
C1593 H1651 0.930 . S
C1594 C1597 1.348 . S
C1594 C1598 1.356 . S
C1594 O1645 1.325 . S
C1595 N1596 1.279 . S
C1595 C1598 1.358 . S
C1595 H1652 0.930 . S
N1596 C1595 1.279 . S
N1596 C1599 1.314 . S
C1597 C1594 1.348 . S
C1597 C1599 1.353 . S
C1597 H1653 0.929 . S
C1598 C1594 1.356 . S
C1598 C1595 1.358 . S
C1598 H1654 0.930 . S
C1599 N1596 1.314 . S
C1599 C1597 1.353 . S
C1599 H1655 0.930 . S
C1600 N1601 1.314 . S
C1600 C1605 1.353 . S
C1600 H1606 0.930 . S
N1601 Li1584 1.990 . S
N1601 C1600 1.314 . S
N1601 C1603 1.279 . S
C1602 C1603 1.358 . S
C1602 C1604 1.356 . S
C1602 H1656 0.930 . S
C1603 N1601 1.279 . S
C1603 C1602 1.358 . S
C1603 H1607 0.930 . S
C1604 C1602 1.356 . S
C1604 C1605 1.348 . S
C1605 C1600 1.353 . S
C1605 C1604 1.348 . S
C1605 H1657 0.929 . S
H1606 C1600 0.930 . S
H1607 C1603 0.930 . S
C1608 N1609 1.314 . S
C1608 C1610 1.353 . S
C1608 H1614 0.930 . S
N1609 Li1585 1.990 . S
N1609 C1608 1.314 . S
N1609 C1612 1.279 . S
C1610 C1608 1.353 . S
C1610 C1613 1.348 . S
C1610 H1658 0.929 . S
C1611 C1612 1.358 . S
C1611 C1613 1.356 . S
C1611 H1659 0.930 . S
C1612 N1609 1.279 . S
C1612 C1611 1.358 . S
C1612 H1615 0.930 . S
C1613 C1610 1.348 . S
C1613 C1611 1.356 . S
H1614 C1608 0.930 . S
H1615 C1612 0.930 . S
C1616 C1618 1.348 . S
C1616 C1619 1.356 . S
C1616 O1646 1.325 . S
N1617 C1620 1.314 . S
N1617 C1621 1.279 . S
C1618 C1616 1.348 . S
C1618 C1620 1.353 . S
C1618 H1660 0.929 . S
C1619 C1616 1.356 . S
C1619 C1621 1.358 . S
C1619 H1661 0.930 . S
C1620 N1617 1.314 . S
C1620 C1618 1.353 . S
C1620 H1662 0.930 . S
C1621 N1617 1.279 . S
C1621 C1619 1.358 . S
C1621 H1663 0.930 . S
C1622 C1623 1.348 . S
C1622 C1624 1.356 . S
C1622 O1647 1.325 . S
C1623 C1622 1.348 . S
C1623 C1625 1.353 . S
C1623 H1664 0.929 . S
C1624 C1622 1.356 . S
C1624 C1626 1.358 . S
C1624 H1665 0.930 . S
C1625 C1623 1.353 . S
C1625 N1627 1.314 . S
C1625 H1666 0.930 . S
C1626 C1624 1.358 . S
C1626 N1627 1.279 . S
C1626 H1667 0.930 . S
N1627 C1625 1.314 . S
N1627 C1626 1.279 . S
C1628 C1630 1.353 . S
C1628 N1631 1.314 . S
C1628 H1634 0.930 . S
C1629 N1631 1.279 . S
C1629 C1632 1.358 . S
C1629 H1635 0.930 . S
C1630 C1628 1.353 . S
C1630 C1633 1.348 . S
C1630 H1668 0.929 . S
N1631 Li1586 1.990 . S
N1631 C1628 1.314 . S
N1631 C1629 1.279 . S
C1632 C1629 1.358 . S
C1632 C1633 1.356 . S
C1632 H1669 0.930 . S
C1633 C1630 1.348 . S
C1633 C1632 1.356 . S
H1634 C1628 0.930 . S
H1635 C1629 0.930 . S
C1636 N1637 1.314 . S
C1636 C1638 1.353 . S
C1636 H1642 0.930 . S
N1637 Li1587 1.990 . S
N1637 C1636 1.314 . S
N1637 C1640 1.279 . S
C1638 C1636 1.353 . S
C1638 C1641 1.348 . S
C1638 H1670 0.929 . S
C1639 C1640 1.358 . S
C1639 C1641 1.356 . S
C1639 H1671 0.930 . S
C1640 N1637 1.279 . S
C1640 C1639 1.358 . S
C1640 H1643 0.930 . S
C1641 C1638 1.348 . S
C1641 C1639 1.356 . S
H1642 C1636 0.930 . S
H1643 C1640 0.930 . S
O1644 Li1584 1.956 . S
O1644 Li1585 1.970 . S
O1644 Li1586 1.961 . S
O1644 C1588 1.325 . S
O1645 Li1584 1.970 . S
O1645 Li1585 1.956 . S
O1645 Li1587 1.961 . S
O1645 C1594 1.325 . S
O1646 Li1584 1.961 . S
O1646 Li1586 1.956 . S
O1646 Li1587 1.970 . S
O1646 C1616 1.325 . S
O1647 Li1585 1.961 . S
O1647 Li1586 1.970 . S
O1647 Li1587 1.956 . S
O1647 C1622 1.325 . S
H1648 C1590 0.929 . S
H1649 C1591 0.930 . S
H1650 C1592 0.930 . S
H1651 C1593 0.930 . S
H1652 C1595 0.930 . S
H1653 C1597 0.929 . S
H1654 C1598 0.930 . S
H1655 C1599 0.930 . S
H1656 C1602 0.930 . S
H1657 C1605 0.929 . S
H1658 C1610 0.929 . S
H1659 C1611 0.930 . S
H1660 C1618 0.929 . S
H1661 C1619 0.930 . S
H1662 C1620 0.930 . S
H1663 C1621 0.930 . S
H1664 C1623 0.929 . S
H1665 C1624 0.930 . S
H1666 C1625 0.930 . S
H1667 C1626 0.930 . S
H1668 C1630 0.929 . S
H1669 C1632 0.930 . S
H1670 C1638 0.929 . S
H1671 C1639 0.930 . S
Li1672 N1689 1.990 . S
Li1672 O1732 1.956 . S
Li1672 O1733 1.970 . S
Li1672 O1734 1.961 . S
Li1673 N1697 1.990 . S
Li1673 O1732 1.970 . S
Li1673 O1733 1.956 . S
Li1673 O1735 1.961 . S
Li1674 N1719 1.990 . S
Li1674 O1732 1.961 . S
Li1674 O1734 1.956 . S
Li1674 O1735 1.970 . S
Li1675 N1725 1.990 . S
Li1675 O1733 1.961 . S
Li1675 O1734 1.970 . S
Li1675 O1735 1.956 . S
C1676 C1678 1.348 . S
C1676 C1679 1.356 . S
C1676 O1732 1.325 . S
N1677 C1680 1.314 . S
N1677 C1681 1.279 . S
C1678 C1676 1.348 . S
C1678 C1680 1.353 . S
C1678 H1736 0.929 . S
C1679 C1676 1.356 . S
C1679 C1681 1.358 . S
C1679 H1737 0.930 . S
C1680 N1677 1.314 . S
C1680 C1678 1.353 . S
C1680 H1738 0.930 . S
C1681 N1677 1.279 . S
C1681 C1679 1.358 . S
C1681 H1739 0.930 . S
C1682 C1685 1.348 . S
C1682 C1686 1.356 . S
C1682 O1733 1.325 . S
C1683 N1684 1.279 . S
C1683 C1686 1.358 . S
C1683 H1740 0.930 . S
N1684 C1683 1.279 . S
N1684 C1687 1.314 . S
C1685 C1682 1.348 . S
C1685 C1687 1.353 . S
C1685 H1741 0.929 . S
C1686 C1682 1.356 . S
C1686 C1683 1.358 . S
C1686 H1742 0.930 . S
C1687 N1684 1.314 . S
C1687 C1685 1.353 . S
C1687 H1743 0.930 . S
C1688 N1689 1.314 . S
C1688 C1693 1.353 . S
C1688 H1694 0.930 . S
N1689 Li1672 1.990 . S
N1689 C1688 1.314 . S
N1689 C1691 1.279 . S
C1690 C1691 1.358 . S
C1690 C1692 1.356 . S
C1690 H1744 0.930 . S
C1691 N1689 1.279 . S
C1691 C1690 1.358 . S
C1691 H1695 0.930 . S
C1692 C1690 1.356 . S
C1692 C1693 1.348 . S
C1693 C1688 1.353 . S
C1693 C1692 1.348 . S
C1693 H1745 0.929 . S
H1694 C1688 0.930 . S
H1695 C1691 0.930 . S
C1696 N1697 1.314 . S
C1696 C1698 1.353 . S
C1696 H1702 0.930 . S
N1697 Li1673 1.990 . S
N1697 C1696 1.314 . S
N1697 C1700 1.279 . S
C1698 C1696 1.353 . S
C1698 C1701 1.348 . S
C1698 H1746 0.929 . S
C1699 C1700 1.358 . S
C1699 C1701 1.356 . S
C1699 H1747 0.930 . S
C1700 N1697 1.279 . S
C1700 C1699 1.358 . S
C1700 H1703 0.930 . S
C1701 C1698 1.348 . S
C1701 C1699 1.356 . S
H1702 C1696 0.930 . S
H1703 C1700 0.930 . S
C1704 C1706 1.348 . S
C1704 C1707 1.356 . S
C1704 O1734 1.325 . S
N1705 C1708 1.314 . S
N1705 C1709 1.279 . S
C1706 C1704 1.348 . S
C1706 C1708 1.353 . S
C1706 H1748 0.929 . S
C1707 C1704 1.356 . S
C1707 C1709 1.358 . S
C1707 H1749 0.930 . S
C1708 N1705 1.314 . S
C1708 C1706 1.353 . S
C1708 H1750 0.930 . S
C1709 N1705 1.279 . S
C1709 C1707 1.358 . S
C1709 H1751 0.930 . S
C1710 C1711 1.348 . S
C1710 C1712 1.356 . S
C1710 O1735 1.325 . S
C1711 C1710 1.348 . S
C1711 C1713 1.353 . S
C1711 H1752 0.929 . S
C1712 C1710 1.356 . S
C1712 C1714 1.358 . S
C1712 H1753 0.930 . S
C1713 C1711 1.353 . S
C1713 N1715 1.314 . S
C1713 H1754 0.930 . S
C1714 C1712 1.358 . S
C1714 N1715 1.279 . S
C1714 H1755 0.930 . S
N1715 C1713 1.314 . S
N1715 C1714 1.279 . S
C1716 C1718 1.353 . S
C1716 N1719 1.314 . S
C1716 H1722 0.930 . S
C1717 N1719 1.279 . S
C1717 C1720 1.358 . S
C1717 H1723 0.930 . S
C1718 C1716 1.353 . S
C1718 C1721 1.348 . S
C1718 H1756 0.929 . S
N1719 Li1674 1.990 . S
N1719 C1716 1.314 . S
N1719 C1717 1.279 . S
C1720 C1717 1.358 . S
C1720 C1721 1.356 . S
C1720 H1757 0.930 . S
C1721 C1718 1.348 . S
C1721 C1720 1.356 . S
H1722 C1716 0.930 . S
H1723 C1717 0.930 . S
C1724 N1725 1.314 . S
C1724 C1726 1.353 . S
C1724 H1730 0.930 . S
N1725 Li1675 1.990 . S
N1725 C1724 1.314 . S
N1725 C1728 1.279 . S
C1726 C1724 1.353 . S
C1726 C1729 1.348 . S
C1726 H1758 0.929 . S
C1727 C1728 1.358 . S
C1727 C1729 1.356 . S
C1727 H1759 0.930 . S
C1728 N1725 1.279 . S
C1728 C1727 1.358 . S
C1728 H1731 0.930 . S
C1729 C1726 1.348 . S
C1729 C1727 1.356 . S
H1730 C1724 0.930 . S
H1731 C1728 0.930 . S
O1732 Li1672 1.956 . S
O1732 Li1673 1.970 . S
O1732 Li1674 1.961 . S
O1732 C1676 1.325 . S
O1733 Li1672 1.970 . S
O1733 Li1673 1.956 . S
O1733 Li1675 1.961 . S
O1733 C1682 1.325 . S
O1734 Li1672 1.961 . S
O1734 Li1674 1.956 . S
O1734 Li1675 1.970 . S
O1734 C1704 1.325 . S
O1735 Li1673 1.961 . S
O1735 Li1674 1.970 . S
O1735 Li1675 1.956 . S
O1735 C1710 1.325 . S
H1736 C1678 0.929 . S
H1737 C1679 0.930 . S
H1738 C1680 0.930 . S
H1739 C1681 0.930 . S
H1740 C1683 0.930 . S
H1741 C1685 0.929 . S
H1742 C1686 0.930 . S
H1743 C1687 0.930 . S
H1744 C1690 0.930 . S
H1745 C1693 0.929 . S
H1746 C1698 0.929 . S
H1747 C1699 0.930 . S
H1748 C1706 0.929 . S
H1749 C1707 0.930 . S
H1750 C1708 0.930 . S
H1751 C1709 0.930 . S
H1752 C1711 0.929 . S
H1753 C1712 0.930 . S
H1754 C1713 0.930 . S
H1755 C1714 0.930 . S
H1756 C1718 0.929 . S
H1757 C1720 0.930 . S
H1758 C1726 0.929 . S
H1759 C1727 0.930 . S
Li1760 N1777 1.990 . S
Li1760 O1820 1.956 . S
Li1760 O1821 1.970 . S
Li1760 O1822 1.961 . S
Li1761 N1785 1.990 . S
Li1761 O1820 1.970 . S
Li1761 O1821 1.956 . S
Li1761 O1823 1.961 . S
Li1762 N1807 1.990 . S
Li1762 O1820 1.961 . S
Li1762 O1822 1.956 . S
Li1762 O1823 1.970 . S
Li1763 N1813 1.990 . S
Li1763 O1821 1.961 . S
Li1763 O1822 1.970 . S
Li1763 O1823 1.956 . S
C1764 C1766 1.348 . S
C1764 C1767 1.356 . S
C1764 O1820 1.325 . S
N1765 C1768 1.314 . S
N1765 C1769 1.279 . S
C1766 C1764 1.348 . S
C1766 C1768 1.353 . S
C1766 H1824 0.929 . S
C1767 C1764 1.356 . S
C1767 C1769 1.358 . S
C1767 H1825 0.930 . S
C1768 N1765 1.314 . S
C1768 C1766 1.353 . S
C1768 H1826 0.930 . S
C1769 N1765 1.279 . S
C1769 C1767 1.358 . S
C1769 H1827 0.930 . S
C1770 C1773 1.348 . S
C1770 C1774 1.356 . S
C1770 O1821 1.325 . S
C1771 N1772 1.279 . S
C1771 C1774 1.358 . S
C1771 H1828 0.930 . S
N1772 C1771 1.279 . S
N1772 C1775 1.314 . S
C1773 C1770 1.348 . S
C1773 C1775 1.353 . S
C1773 H1829 0.929 . S
C1774 C1770 1.356 . S
C1774 C1771 1.358 . S
C1774 H1830 0.930 . S
C1775 N1772 1.314 . S
C1775 C1773 1.353 . S
C1775 H1831 0.930 . S
C1776 N1777 1.314 . S
C1776 C1781 1.353 . S
C1776 H1782 0.930 . S
N1777 Li1760 1.990 . S
N1777 C1776 1.314 . S
N1777 C1779 1.279 . S
C1778 C1779 1.358 . S
C1778 C1780 1.356 . S
C1778 H1832 0.930 . S
C1779 N1777 1.279 . S
C1779 C1778 1.358 . S
C1779 H1783 0.930 . S
C1780 C1778 1.356 . S
C1780 C1781 1.348 . S
C1781 C1776 1.353 . S
C1781 C1780 1.348 . S
C1781 H1833 0.929 . S
H1782 C1776 0.930 . S
H1783 C1779 0.930 . S
C1784 N1785 1.314 . S
C1784 C1786 1.353 . S
C1784 H1790 0.930 . S
N1785 Li1761 1.990 . S
N1785 C1784 1.314 . S
N1785 C1788 1.279 . S
C1786 C1784 1.353 . S
C1786 C1789 1.348 . S
C1786 H1834 0.929 . S
C1787 C1788 1.358 . S
C1787 C1789 1.356 . S
C1787 H1835 0.930 . S
C1788 N1785 1.279 . S
C1788 C1787 1.358 . S
C1788 H1791 0.930 . S
C1789 C1786 1.348 . S
C1789 C1787 1.356 . S
H1790 C1784 0.930 . S
H1791 C1788 0.930 . S
C1792 C1794 1.348 . S
C1792 C1795 1.356 . S
C1792 O1822 1.325 . S
N1793 C1796 1.314 . S
N1793 C1797 1.279 . S
C1794 C1792 1.348 . S
C1794 C1796 1.353 . S
C1794 H1836 0.929 . S
C1795 C1792 1.356 . S
C1795 C1797 1.358 . S
C1795 H1837 0.930 . S
C1796 N1793 1.314 . S
C1796 C1794 1.353 . S
C1796 H1838 0.930 . S
C1797 N1793 1.279 . S
C1797 C1795 1.358 . S
C1797 H1839 0.930 . S
C1798 C1799 1.348 . S
C1798 C1800 1.356 . S
C1798 O1823 1.325 . S
C1799 C1798 1.348 . S
C1799 C1801 1.353 . S
C1799 H1840 0.929 . S
C1800 C1798 1.356 . S
C1800 C1802 1.358 . S
C1800 H1841 0.930 . S
C1801 C1799 1.353 . S
C1801 N1803 1.314 . S
C1801 H1842 0.930 . S
C1802 C1800 1.358 . S
C1802 N1803 1.279 . S
C1802 H1843 0.930 . S
N1803 C1801 1.314 . S
N1803 C1802 1.279 . S
C1804 C1806 1.353 . S
C1804 N1807 1.314 . S
C1804 H1810 0.930 . S
C1805 N1807 1.279 . S
C1805 C1808 1.358 . S
C1805 H1811 0.930 . S
C1806 C1804 1.353 . S
C1806 C1809 1.348 . S
C1806 H1844 0.929 . S
N1807 Li1762 1.990 . S
N1807 C1804 1.314 . S
N1807 C1805 1.279 . S
C1808 C1805 1.358 . S
C1808 C1809 1.356 . S
C1808 H1845 0.930 . S
C1809 C1806 1.348 . S
C1809 C1808 1.356 . S
H1810 C1804 0.930 . S
H1811 C1805 0.930 . S
C1812 N1813 1.314 . S
C1812 C1814 1.353 . S
C1812 H1818 0.930 . S
N1813 Li1763 1.990 . S
N1813 C1812 1.314 . S
N1813 C1816 1.279 . S
C1814 C1812 1.353 . S
C1814 C1817 1.348 . S
C1814 H1846 0.929 . S
C1815 C1816 1.358 . S
C1815 C1817 1.356 . S
C1815 H1847 0.930 . S
C1816 N1813 1.279 . S
C1816 C1815 1.358 . S
C1816 H1819 0.930 . S
C1817 C1814 1.348 . S
C1817 C1815 1.356 . S
H1818 C1812 0.930 . S
H1819 C1816 0.930 . S
O1820 Li1760 1.956 . S
O1820 Li1761 1.970 . S
O1820 Li1762 1.961 . S
O1820 C1764 1.325 . S
O1821 Li1760 1.970 . S
O1821 Li1761 1.956 . S
O1821 Li1763 1.961 . S
O1821 C1770 1.325 . S
O1822 Li1760 1.961 . S
O1822 Li1762 1.956 . S
O1822 Li1763 1.970 . S
O1822 C1792 1.325 . S
O1823 Li1761 1.961 . S
O1823 Li1762 1.970 . S
O1823 Li1763 1.956 . S
O1823 C1798 1.325 . S
H1824 C1766 0.929 . S
H1825 C1767 0.930 . S
H1826 C1768 0.930 . S
H1827 C1769 0.930 . S
H1828 C1771 0.930 . S
H1829 C1773 0.929 . S
H1830 C1774 0.930 . S
H1831 C1775 0.930 . S
H1832 C1778 0.930 . S
H1833 C1781 0.929 . S
H1834 C1786 0.929 . S
H1835 C1787 0.930 . S
H1836 C1794 0.929 . S
H1837 C1795 0.930 . S
H1838 C1796 0.930 . S
H1839 C1797 0.930 . S
H1840 C1799 0.929 . S
H1841 C1800 0.930 . S
H1842 C1801 0.930 . S
H1843 C1802 0.930 . S
H1844 C1806 0.929 . S
H1845 C1808 0.930 . S
H1846 C1814 0.929 . S
H1847 C1815 0.930 . S
Li1848 N1865 1.990 . S
Li1848 O1908 1.956 . S
Li1848 O1909 1.970 . S
Li1848 O1910 1.961 . S
Li1849 N1873 1.990 . S
Li1849 O1908 1.970 . S
Li1849 O1909 1.956 . S
Li1849 O1911 1.961 . S
Li1850 N1895 1.990 . S
Li1850 O1908 1.961 . S
Li1850 O1910 1.956 . S
Li1850 O1911 1.970 . S
Li1851 N1901 1.990 . S
Li1851 O1909 1.961 . S
Li1851 O1910 1.970 . S
Li1851 O1911 1.956 . S
C1852 C1854 1.348 . S
C1852 C1855 1.356 . S
C1852 O1908 1.325 . S
N1853 C1856 1.314 . S
N1853 C1857 1.279 . S
C1854 C1852 1.348 . S
C1854 C1856 1.353 . S
C1854 H1912 0.929 . S
C1855 C1852 1.356 . S
C1855 C1857 1.358 . S
C1855 H1913 0.930 . S
C1856 N1853 1.314 . S
C1856 C1854 1.353 . S
C1856 H1914 0.930 . S
C1857 N1853 1.279 . S
C1857 C1855 1.358 . S
C1857 H1915 0.930 . S
C1858 C1861 1.348 . S
C1858 C1862 1.356 . S
C1858 O1909 1.325 . S
C1859 N1860 1.279 . S
C1859 C1862 1.358 . S
C1859 H1916 0.930 . S
N1860 C1859 1.279 . S
N1860 C1863 1.314 . S
C1861 C1858 1.348 . S
C1861 C1863 1.353 . S
C1861 H1917 0.929 . S
C1862 C1858 1.356 . S
C1862 C1859 1.358 . S
C1862 H1918 0.930 . S
C1863 N1860 1.314 . S
C1863 C1861 1.353 . S
C1863 H1919 0.930 . S
C1864 N1865 1.314 . S
C1864 C1869 1.353 . S
C1864 H1870 0.930 . S
N1865 Li1848 1.990 . S
N1865 C1864 1.314 . S
N1865 C1867 1.279 . S
C1866 C1867 1.358 . S
C1866 C1868 1.356 . S
C1866 H1920 0.930 . S
C1867 N1865 1.279 . S
C1867 C1866 1.358 . S
C1867 H1871 0.930 . S
C1868 C1866 1.356 . S
C1868 C1869 1.348 . S
C1869 C1864 1.353 . S
C1869 C1868 1.348 . S
C1869 H1921 0.929 . S
H1870 C1864 0.930 . S
H1871 C1867 0.930 . S
C1872 N1873 1.314 . S
C1872 C1874 1.353 . S
C1872 H1878 0.930 . S
N1873 Li1849 1.990 . S
N1873 C1872 1.314 . S
N1873 C1876 1.279 . S
C1874 C1872 1.353 . S
C1874 C1877 1.348 . S
C1874 H1922 0.929 . S
C1875 C1876 1.358 . S
C1875 C1877 1.356 . S
C1875 H1923 0.930 . S
C1876 N1873 1.279 . S
C1876 C1875 1.358 . S
C1876 H1879 0.930 . S
C1877 C1874 1.348 . S
C1877 C1875 1.356 . S
H1878 C1872 0.930 . S
H1879 C1876 0.930 . S
C1880 C1882 1.348 . S
C1880 C1883 1.356 . S
C1880 O1910 1.325 . S
N1881 C1884 1.314 . S
N1881 C1885 1.279 . S
C1882 C1880 1.348 . S
C1882 C1884 1.353 . S
C1882 H1924 0.929 . S
C1883 C1880 1.356 . S
C1883 C1885 1.358 . S
C1883 H1925 0.930 . S
C1884 N1881 1.314 . S
C1884 C1882 1.353 . S
C1884 H1926 0.930 . S
C1885 N1881 1.279 . S
C1885 C1883 1.358 . S
C1885 H1927 0.930 . S
C1886 C1887 1.348 . S
C1886 C1888 1.356 . S
C1886 O1911 1.325 . S
C1887 C1886 1.348 . S
C1887 C1889 1.353 . S
C1887 H1928 0.929 . S
C1888 C1886 1.356 . S
C1888 C1890 1.358 . S
C1888 H1929 0.930 . S
C1889 C1887 1.353 . S
C1889 N1891 1.314 . S
C1889 H1930 0.930 . S
C1890 C1888 1.358 . S
C1890 N1891 1.279 . S
C1890 H1931 0.930 . S
N1891 C1889 1.314 . S
N1891 C1890 1.279 . S
C1892 C1894 1.353 . S
C1892 N1895 1.314 . S
C1892 H1898 0.930 . S
C1893 N1895 1.279 . S
C1893 C1896 1.358 . S
C1893 H1899 0.930 . S
C1894 C1892 1.353 . S
C1894 C1897 1.348 . S
C1894 H1932 0.929 . S
N1895 Li1850 1.990 . S
N1895 C1892 1.314 . S
N1895 C1893 1.279 . S
C1896 C1893 1.358 . S
C1896 C1897 1.356 . S
C1896 H1933 0.930 . S
C1897 C1894 1.348 . S
C1897 C1896 1.356 . S
H1898 C1892 0.930 . S
H1899 C1893 0.930 . S
C1900 N1901 1.314 . S
C1900 C1902 1.353 . S
C1900 H1906 0.930 . S
N1901 Li1851 1.990 . S
N1901 C1900 1.314 . S
N1901 C1904 1.279 . S
C1902 C1900 1.353 . S
C1902 C1905 1.348 . S
C1902 H1934 0.929 . S
C1903 C1904 1.358 . S
C1903 C1905 1.356 . S
C1903 H1935 0.930 . S
C1904 N1901 1.279 . S
C1904 C1903 1.358 . S
C1904 H1907 0.930 . S
C1905 C1902 1.348 . S
C1905 C1903 1.356 . S
H1906 C1900 0.930 . S
H1907 C1904 0.930 . S
O1908 Li1848 1.956 . S
O1908 Li1849 1.970 . S
O1908 Li1850 1.961 . S
O1908 C1852 1.325 . S
O1909 Li1848 1.970 . S
O1909 Li1849 1.956 . S
O1909 Li1851 1.961 . S
O1909 C1858 1.325 . S
O1910 Li1848 1.961 . S
O1910 Li1850 1.956 . S
O1910 Li1851 1.970 . S
O1910 C1880 1.325 . S
O1911 Li1849 1.961 . S
O1911 Li1850 1.970 . S
O1911 Li1851 1.956 . S
O1911 C1886 1.325 . S
H1912 C1854 0.929 . S
H1913 C1855 0.930 . S
H1914 C1856 0.930 . S
H1915 C1857 0.930 . S
H1916 C1859 0.930 . S
H1917 C1861 0.929 . S
H1918 C1862 0.930 . S
H1919 C1863 0.930 . S
H1920 C1866 0.930 . S
H1921 C1869 0.929 . S
H1922 C1874 0.929 . S
H1923 C1875 0.930 . S
H1924 C1882 0.929 . S
H1925 C1883 0.930 . S
H1926 C1884 0.930 . S
H1927 C1885 0.930 . S
H1928 C1887 0.929 . S
H1929 C1888 0.930 . S
H1930 C1889 0.930 . S
H1931 C1890 0.930 . S
H1932 C1894 0.929 . S
H1933 C1896 0.930 . S
H1934 C1902 0.929 . S
H1935 C1903 0.930 . S
Li1936 N1953 1.990 . S
Li1936 O1996 1.956 . S
Li1936 O1997 1.970 . S
Li1936 O1998 1.961 . S
Li1937 N1961 1.990 . S
Li1937 O1996 1.970 . S
Li1937 O1997 1.956 . S
Li1937 O1999 1.961 . S
Li1938 N1983 1.990 . S
Li1938 O1996 1.961 . S
Li1938 O1998 1.956 . S
Li1938 O1999 1.970 . S
Li1939 N1989 1.990 . S
Li1939 O1997 1.961 . S
Li1939 O1998 1.970 . S
Li1939 O1999 1.956 . S
C1940 C1942 1.348 . S
C1940 C1943 1.356 . S
C1940 O1996 1.325 . S
N1941 C1944 1.314 . S
N1941 C1945 1.279 . S
C1942 C1940 1.348 . S
C1942 C1944 1.353 . S
C1942 H2000 0.929 . S
C1943 C1940 1.356 . S
C1943 C1945 1.358 . S
C1943 H2001 0.930 . S
C1944 N1941 1.314 . S
C1944 C1942 1.353 . S
C1944 H2002 0.930 . S
C1945 N1941 1.279 . S
C1945 C1943 1.358 . S
C1945 H2003 0.930 . S
C1946 C1949 1.348 . S
C1946 C1950 1.356 . S
C1946 O1997 1.325 . S
C1947 N1948 1.279 . S
C1947 C1950 1.358 . S
C1947 H2004 0.930 . S
N1948 C1947 1.279 . S
N1948 C1951 1.314 . S
C1949 C1946 1.348 . S
C1949 C1951 1.353 . S
C1949 H2005 0.929 . S
C1950 C1946 1.356 . S
C1950 C1947 1.358 . S
C1950 H2006 0.930 . S
C1951 N1948 1.314 . S
C1951 C1949 1.353 . S
C1951 H2007 0.930 . S
C1952 N1953 1.314 . S
C1952 C1957 1.353 . S
C1952 H1958 0.930 . S
N1953 Li1936 1.990 . S
N1953 C1952 1.314 . S
N1953 C1955 1.279 . S
C1954 C1955 1.358 . S
C1954 C1956 1.356 . S
C1954 H2008 0.930 . S
C1955 N1953 1.279 . S
C1955 C1954 1.358 . S
C1955 H1959 0.930 . S
C1956 C1954 1.356 . S
C1956 C1957 1.348 . S
C1957 C1952 1.353 . S
C1957 C1956 1.348 . S
C1957 H2009 0.929 . S
H1958 C1952 0.930 . S
H1959 C1955 0.930 . S
C1960 N1961 1.314 . S
C1960 C1962 1.353 . S
C1960 H1966 0.930 . S
N1961 Li1937 1.990 . S
N1961 C1960 1.314 . S
N1961 C1964 1.279 . S
C1962 C1960 1.353 . S
C1962 C1965 1.348 . S
C1962 H2010 0.929 . S
C1963 C1964 1.358 . S
C1963 C1965 1.356 . S
C1963 H2011 0.930 . S
C1964 N1961 1.279 . S
C1964 C1963 1.358 . S
C1964 H1967 0.930 . S
C1965 C1962 1.348 . S
C1965 C1963 1.356 . S
H1966 C1960 0.930 . S
H1967 C1964 0.930 . S
C1968 C1970 1.348 . S
C1968 C1971 1.356 . S
C1968 O1998 1.325 . S
N1969 C1972 1.314 . S
N1969 C1973 1.279 . S
C1970 C1968 1.348 . S
C1970 C1972 1.353 . S
C1970 H2012 0.929 . S
C1971 C1968 1.356 . S
C1971 C1973 1.358 . S
C1971 H2013 0.930 . S
C1972 N1969 1.314 . S
C1972 C1970 1.353 . S
C1972 H2014 0.930 . S
C1973 N1969 1.279 . S
C1973 C1971 1.358 . S
C1973 H2015 0.930 . S
C1974 C1975 1.348 . S
C1974 C1976 1.356 . S
C1974 O1999 1.325 . S
C1975 C1974 1.348 . S
C1975 C1977 1.353 . S
C1975 H2016 0.929 . S
C1976 C1974 1.356 . S
C1976 C1978 1.358 . S
C1976 H2017 0.930 . S
C1977 C1975 1.353 . S
C1977 N1979 1.314 . S
C1977 H2018 0.930 . S
C1978 C1976 1.358 . S
C1978 N1979 1.279 . S
C1978 H2019 0.930 . S
N1979 C1977 1.314 . S
N1979 C1978 1.279 . S
C1980 C1982 1.353 . S
C1980 N1983 1.314 . S
C1980 H1986 0.930 . S
C1981 N1983 1.279 . S
C1981 C1984 1.358 . S
C1981 H1987 0.930 . S
C1982 C1980 1.353 . S
C1982 C1985 1.348 . S
C1982 H2020 0.929 . S
N1983 Li1938 1.990 . S
N1983 C1980 1.314 . S
N1983 C1981 1.279 . S
C1984 C1981 1.358 . S
C1984 C1985 1.356 . S
C1984 H2021 0.930 . S
C1985 C1982 1.348 . S
C1985 C1984 1.356 . S
H1986 C1980 0.930 . S
H1987 C1981 0.930 . S
C1988 N1989 1.314 . S
C1988 C1990 1.353 . S
C1988 H1994 0.930 . S
N1989 Li1939 1.990 . S
N1989 C1988 1.314 . S
N1989 C1992 1.279 . S
C1990 C1988 1.353 . S
C1990 C1993 1.348 . S
C1990 H2022 0.929 . S
C1991 C1992 1.358 . S
C1991 C1993 1.356 . S
C1991 H2023 0.930 . S
C1992 N1989 1.279 . S
C1992 C1991 1.358 . S
C1992 H1995 0.930 . S
C1993 C1990 1.348 . S
C1993 C1991 1.356 . S
H1994 C1988 0.930 . S
H1995 C1992 0.930 . S
O1996 Li1936 1.956 . S
O1996 Li1937 1.970 . S
O1996 Li1938 1.961 . S
O1996 C1940 1.325 . S
O1997 Li1936 1.970 . S
O1997 Li1937 1.956 . S
O1997 Li1939 1.961 . S
O1997 C1946 1.325 . S
O1998 Li1936 1.961 . S
O1998 Li1938 1.956 . S
O1998 Li1939 1.970 . S
O1998 C1968 1.325 . S
O1999 Li1937 1.961 . S
O1999 Li1938 1.970 . S
O1999 Li1939 1.956 . S
O1999 C1974 1.325 . S
H2000 C1942 0.929 . S
H2001 C1943 0.930 . S
H2002 C1944 0.930 . S
H2003 C1945 0.930 . S
H2004 C1947 0.930 . S
H2005 C1949 0.929 . S
H2006 C1950 0.930 . S
H2007 C1951 0.930 . S
H2008 C1954 0.930 . S
H2009 C1957 0.929 . S
H2010 C1962 0.929 . S
H2011 C1963 0.930 . S
H2012 C1970 0.929 . S
H2013 C1971 0.930 . S
H2014 C1972 0.930 . S
H2015 C1973 0.930 . S
H2016 C1975 0.929 . S
H2017 C1976 0.930 . S
H2018 C1977 0.930 . S
H2019 C1978 0.930 . S
H2020 C1982 0.929 . S
H2021 C1984 0.930 . S
H2022 C1990 0.929 . S
H2023 C1991 0.930 . S
Li2024 N2041 1.990 . S
Li2024 O2084 1.956 . S
Li2024 O2085 1.970 . S
Li2024 O2086 1.961 . S
Li2025 N2049 1.990 . S
Li2025 O2084 1.970 . S
Li2025 O2085 1.956 . S
Li2025 O2087 1.961 . S
Li2026 N2071 1.990 . S
Li2026 O2084 1.961 . S
Li2026 O2086 1.956 . S
Li2026 O2087 1.970 . S
Li2027 N2077 1.990 . S
Li2027 O2085 1.961 . S
Li2027 O2086 1.970 . S
Li2027 O2087 1.956 . S
C2028 C2030 1.348 . S
C2028 C2031 1.356 . S
C2028 O2084 1.325 . S
N2029 C2032 1.314 . S
N2029 C2033 1.279 . S
C2030 C2028 1.348 . S
C2030 C2032 1.353 . S
C2030 H2088 0.929 . S
C2031 C2028 1.356 . S
C2031 C2033 1.358 . S
C2031 H2089 0.930 . S
C2032 N2029 1.314 . S
C2032 C2030 1.353 . S
C2032 H2090 0.930 . S
C2033 N2029 1.279 . S
C2033 C2031 1.358 . S
C2033 H2091 0.930 . S
C2034 C2037 1.348 . S
C2034 C2038 1.356 . S
C2034 O2085 1.325 . S
C2035 N2036 1.279 . S
C2035 C2038 1.358 . S
C2035 H2092 0.930 . S
N2036 C2035 1.279 . S
N2036 C2039 1.314 . S
C2037 C2034 1.348 . S
C2037 C2039 1.353 . S
C2037 H2093 0.929 . S
C2038 C2034 1.356 . S
C2038 C2035 1.358 . S
C2038 H2094 0.930 . S
C2039 N2036 1.314 . S
C2039 C2037 1.353 . S
C2039 H2095 0.930 . S
C2040 N2041 1.314 . S
C2040 C2045 1.353 . S
C2040 H2046 0.930 . S
N2041 Li2024 1.990 . S
N2041 C2040 1.314 . S
N2041 C2043 1.279 . S
C2042 C2043 1.358 . S
C2042 C2044 1.356 . S
C2042 H2096 0.930 . S
C2043 N2041 1.279 . S
C2043 C2042 1.358 . S
C2043 H2047 0.930 . S
C2044 C2042 1.356 . S
C2044 C2045 1.348 . S
C2045 C2040 1.353 . S
C2045 C2044 1.348 . S
C2045 H2097 0.929 . S
H2046 C2040 0.930 . S
H2047 C2043 0.930 . S
C2048 N2049 1.314 . S
C2048 C2050 1.353 . S
C2048 H2054 0.930 . S
N2049 Li2025 1.990 . S
N2049 C2048 1.314 . S
N2049 C2052 1.279 . S
C2050 C2048 1.353 . S
C2050 C2053 1.348 . S
C2050 H2098 0.929 . S
C2051 C2052 1.358 . S
C2051 C2053 1.356 . S
C2051 H2099 0.930 . S
C2052 N2049 1.279 . S
C2052 C2051 1.358 . S
C2052 H2055 0.930 . S
C2053 C2050 1.348 . S
C2053 C2051 1.356 . S
H2054 C2048 0.930 . S
H2055 C2052 0.930 . S
C2056 C2058 1.348 . S
C2056 C2059 1.356 . S
C2056 O2086 1.325 . S
N2057 C2060 1.314 . S
N2057 C2061 1.279 . S
C2058 C2056 1.348 . S
C2058 C2060 1.353 . S
C2058 H2100 0.929 . S
C2059 C2056 1.356 . S
C2059 C2061 1.358 . S
C2059 H2101 0.930 . S
C2060 N2057 1.314 . S
C2060 C2058 1.353 . S
C2060 H2102 0.930 . S
C2061 N2057 1.279 . S
C2061 C2059 1.358 . S
C2061 H2103 0.930 . S
C2062 C2063 1.348 . S
C2062 C2064 1.356 . S
C2062 O2087 1.325 . S
C2063 C2062 1.348 . S
C2063 C2065 1.353 . S
C2063 H2104 0.929 . S
C2064 C2062 1.356 . S
C2064 C2066 1.358 . S
C2064 H2105 0.930 . S
C2065 C2063 1.353 . S
C2065 N2067 1.314 . S
C2065 H2106 0.930 . S
C2066 C2064 1.358 . S
C2066 N2067 1.279 . S
C2066 H2107 0.930 . S
N2067 C2065 1.314 . S
N2067 C2066 1.279 . S
C2068 C2070 1.353 . S
C2068 N2071 1.314 . S
C2068 H2074 0.930 . S
C2069 N2071 1.279 . S
C2069 C2072 1.358 . S
C2069 H2075 0.930 . S
C2070 C2068 1.353 . S
C2070 C2073 1.348 . S
C2070 H2108 0.929 . S
N2071 Li2026 1.990 . S
N2071 C2068 1.314 . S
N2071 C2069 1.279 . S
C2072 C2069 1.358 . S
C2072 C2073 1.356 . S
C2072 H2109 0.930 . S
C2073 C2070 1.348 . S
C2073 C2072 1.356 . S
H2074 C2068 0.930 . S
H2075 C2069 0.930 . S
C2076 N2077 1.314 . S
C2076 C2078 1.353 . S
C2076 H2082 0.930 . S
N2077 Li2027 1.990 . S
N2077 C2076 1.314 . S
N2077 C2080 1.279 . S
C2078 C2076 1.353 . S
C2078 C2081 1.348 . S
C2078 H2110 0.929 . S
C2079 C2080 1.358 . S
C2079 C2081 1.356 . S
C2079 H2111 0.930 . S
C2080 N2077 1.279 . S
C2080 C2079 1.358 . S
C2080 H2083 0.930 . S
C2081 C2078 1.348 . S
C2081 C2079 1.356 . S
H2082 C2076 0.930 . S
H2083 C2080 0.930 . S
O2084 Li2024 1.956 . S
O2084 Li2025 1.970 . S
O2084 Li2026 1.961 . S
O2084 C2028 1.325 . S
O2085 Li2024 1.970 . S
O2085 Li2025 1.956 . S
O2085 Li2027 1.961 . S
O2085 C2034 1.325 . S
O2086 Li2024 1.961 . S
O2086 Li2026 1.956 . S
O2086 Li2027 1.970 . S
O2086 C2056 1.325 . S
O2087 Li2025 1.961 . S
O2087 Li2026 1.970 . S
O2087 Li2027 1.956 . S
O2087 C2062 1.325 . S
H2088 C2030 0.929 . S
H2089 C2031 0.930 . S
H2090 C2032 0.930 . S
H2091 C2033 0.930 . S
H2092 C2035 0.930 . S
H2093 C2037 0.929 . S
H2094 C2038 0.930 . S
H2095 C2039 0.930 . S
H2096 C2042 0.930 . S
H2097 C2045 0.929 . S
H2098 C2050 0.929 . S
H2099 C2051 0.930 . S
H2100 C2058 0.929 . S
H2101 C2059 0.930 . S
H2102 C2060 0.930 . S
H2103 C2061 0.930 . S
H2104 C2063 0.929 . S
H2105 C2064 0.930 . S
H2106 C2065 0.930 . S
H2107 C2066 0.930 . S
H2108 C2070 0.929 . S
H2109 C2072 0.930 . S
H2110 C2078 0.929 . S
H2111 C2079 0.930 . S
H2112 C2124 0.930 . S
H2113 C2126 0.930 . S
H2114 C2127 0.930 . S
H2115 C2131 0.959 . S
H2116 C2131 0.959 . S
H2117 C2131 0.961 . S
H2118 C2132 0.960 . S
H2119 C2132 0.961 . S
H2120 C2132 0.959 . S
H2121 C2135 0.929 . S
H2122 C2136 0.931 . S
H2123 C2138 0.930 . S
C2124 H2112 0.930 . S
C2124 C2125 1.399 . S
C2124 C2129 1.399 . S
C2125 C2124 1.399 . S
C2125 C2126 1.376 . S
C2126 H2113 0.930 . S
C2126 C2125 1.376 . S
C2126 C2127 1.388 . S
C2127 H2114 0.930 . S
C2127 C2126 1.388 . S
C2127 C2128 1.390 . S
C2128 C2127 1.390 . S
C2128 C2129 1.394 . S
C2128 C2134 1.465 . S
C2129 C2124 1.399 . S
C2129 C2128 1.394 . S
C2129 C2130 1.516 . S
C2130 C2129 1.516 . S
C2130 C2131 1.502 . S
C2130 C2132 1.561 . S
C2130 C2133 1.526 . S
C2131 H2115 0.959 . S
C2131 H2116 0.959 . S
C2131 H2117 0.961 . S
C2131 C2130 1.502 . S
C2132 H2118 0.960 . S
C2132 H2119 0.961 . S
C2132 H2120 0.959 . S
C2132 C2130 1.561 . S
C2133 C2130 1.526 . S
C2133 C2134 1.396 . S
C2133 C2138 1.390 . S
C2134 C2128 1.465 . S
C2134 C2133 1.396 . S
C2134 C2135 1.399 . S
C2135 H2121 0.929 . S
C2135 C2134 1.399 . S
C2135 C2136 1.385 . S
C2136 H2122 0.931 . S
C2136 C2135 1.385 . S
C2136 C2137 1.389 . S
C2137 C2136 1.389 . S
C2137 C2138 1.387 . S
C2138 H2123 0.930 . S
C2138 C2133 1.390 . S
C2138 C2137 1.387 . S
H2139 C2151 0.930 . S
H2140 C2153 0.930 . S
H2141 C2154 0.930 . S
H2142 C2158 0.959 . S
H2143 C2158 0.959 . S
H2144 C2158 0.961 . S
H2145 C2159 0.960 . S
H2146 C2159 0.961 . S
H2147 C2159 0.959 . S
H2148 C2162 0.929 . S
H2149 C2163 0.931 . S
H2150 C2165 0.930 . S
C2151 H2139 0.930 . S
C2151 C2152 1.399 . S
C2151 C2156 1.399 . S
C2152 C2151 1.399 . S
C2152 C2153 1.376 . S
C2153 H2140 0.930 . S
C2153 C2152 1.376 . S
C2153 C2154 1.388 . S
C2154 H2141 0.930 . S
C2154 C2153 1.388 . S
C2154 C2155 1.390 . S
C2155 C2154 1.390 . S
C2155 C2156 1.394 . S
C2155 C2161 1.465 . S
C2156 C2151 1.399 . S
C2156 C2155 1.394 . S
C2156 C2157 1.516 . S
C2157 C2156 1.516 . S
C2157 C2158 1.502 . S
C2157 C2159 1.561 . S
C2157 C2160 1.526 . S
C2158 H2142 0.959 . S
C2158 H2143 0.959 . S
C2158 H2144 0.961 . S
C2158 C2157 1.502 . S
C2159 H2145 0.960 . S
C2159 H2146 0.961 . S
C2159 H2147 0.959 . S
C2159 C2157 1.561 . S
C2160 C2157 1.526 . S
C2160 C2161 1.396 . S
C2160 C2165 1.390 . S
C2161 C2155 1.465 . S
C2161 C2160 1.396 . S
C2161 C2162 1.399 . S
C2162 H2148 0.929 . S
C2162 C2161 1.399 . S
C2162 C2163 1.385 . S
C2163 H2149 0.931 . S
C2163 C2162 1.385 . S
C2163 C2164 1.389 . S
C2164 C2163 1.389 . S
C2164 C2165 1.387 . S
C2165 H2150 0.930 . S
C2165 C2160 1.390 . S
C2165 C2164 1.387 . S
H2166 C2178 0.930 . S
H2167 C2180 0.930 . S
H2168 C2181 0.930 . S
H2169 C2185 0.959 . S
H2170 C2185 0.959 . S
H2171 C2185 0.961 . S
H2172 C2186 0.960 . S
H2173 C2186 0.961 . S
H2174 C2186 0.959 . S
H2175 C2189 0.929 . S
H2176 C2190 0.931 . S
H2177 C2192 0.930 . S
C2178 H2166 0.930 . S
C2178 C2179 1.399 . S
C2178 C2183 1.399 . S
C2179 C2178 1.399 . S
C2179 C2180 1.376 . S
C2180 H2167 0.930 . S
C2180 C2179 1.376 . S
C2180 C2181 1.388 . S
C2181 H2168 0.930 . S
C2181 C2180 1.388 . S
C2181 C2182 1.390 . S
C2182 C2181 1.390 . S
C2182 C2183 1.394 . S
C2182 C2188 1.465 . S
C2183 C2178 1.399 . S
C2183 C2182 1.394 . S
C2183 C2184 1.516 . S
C2184 C2183 1.516 . S
C2184 C2185 1.502 . S
C2184 C2186 1.561 . S
C2184 C2187 1.526 . S
C2185 H2169 0.959 . S
C2185 H2170 0.959 . S
C2185 H2171 0.961 . S
C2185 C2184 1.502 . S
C2186 H2172 0.960 . S
C2186 H2173 0.961 . S
C2186 H2174 0.959 . S
C2186 C2184 1.561 . S
C2187 C2184 1.526 . S
C2187 C2188 1.396 . S
C2187 C2192 1.390 . S
C2188 C2182 1.465 . S
C2188 C2187 1.396 . S
C2188 C2189 1.399 . S
C2189 H2175 0.929 . S
C2189 C2188 1.399 . S
C2189 C2190 1.385 . S
C2190 H2176 0.931 . S
C2190 C2189 1.385 . S
C2190 C2191 1.389 . S
C2191 C2190 1.389 . S
C2191 C2192 1.387 . S
C2192 H2177 0.930 . S
C2192 C2187 1.390 . S
C2192 C2191 1.387 . S
H2193 C2205 0.930 . S
H2194 C2207 0.930 . S
H2195 C2208 0.930 . S
H2196 C2212 0.959 . S
H2197 C2212 0.959 . S
H2198 C2212 0.961 . S
H2199 C2213 0.960 . S
H2200 C2213 0.961 . S
H2201 C2213 0.959 . S
H2202 C2216 0.929 . S
H2203 C2217 0.931 . S
H2204 C2219 0.930 . S
C2205 H2193 0.930 . S
C2205 C2206 1.399 . S
C2205 C2210 1.399 . S
C2206 C2205 1.399 . S
C2206 C2207 1.376 . S
C2207 H2194 0.930 . S
C2207 C2206 1.376 . S
C2207 C2208 1.388 . S
C2208 H2195 0.930 . S
C2208 C2207 1.388 . S
C2208 C2209 1.390 . S
C2209 C2208 1.390 . S
C2209 C2210 1.394 . S
C2209 C2215 1.465 . S
C2210 C2205 1.399 . S
C2210 C2209 1.394 . S
C2210 C2211 1.516 . S
C2211 C2210 1.516 . S
C2211 C2212 1.502 . S
C2211 C2213 1.561 . S
C2211 C2214 1.526 . S
C2212 H2196 0.959 . S
C2212 H2197 0.959 . S
C2212 H2198 0.961 . S
C2212 C2211 1.502 . S
C2213 H2199 0.960 . S
C2213 H2200 0.961 . S
C2213 H2201 0.959 . S
C2213 C2211 1.561 . S
C2214 C2211 1.526 . S
C2214 C2215 1.396 . S
C2214 C2219 1.390 . S
C2215 C2209 1.465 . S
C2215 C2214 1.396 . S
C2215 C2216 1.399 . S
C2216 H2202 0.929 . S
C2216 C2215 1.399 . S
C2216 C2217 1.385 . S
C2217 H2203 0.931 . S
C2217 C2216 1.385 . S
C2217 C2218 1.389 . S
C2218 C2217 1.389 . S
C2218 C2219 1.387 . S
C2219 H2204 0.930 . S
C2219 C2214 1.390 . S
C2219 C2218 1.387 . S
H2220 C2232 0.930 . S
H2221 C2234 0.930 . S
H2222 C2235 0.930 . S
H2223 C2239 0.959 . S
H2224 C2239 0.959 . S
H2225 C2239 0.961 . S
H2226 C2240 0.960 . S
H2227 C2240 0.961 . S
H2228 C2240 0.959 . S
H2229 C2243 0.929 . S
H2230 C2244 0.931 . S
H2231 C2246 0.930 . S
C2232 H2220 0.930 . S
C2232 C2233 1.399 . S
C2232 C2237 1.399 . S
C2233 C2232 1.399 . S
C2233 C2234 1.376 . S
C2234 H2221 0.930 . S
C2234 C2233 1.376 . S
C2234 C2235 1.388 . S
C2235 H2222 0.930 . S
C2235 C2234 1.388 . S
C2235 C2236 1.390 . S
C2236 C2235 1.390 . S
C2236 C2237 1.394 . S
C2236 C2242 1.465 . S
C2237 C2232 1.399 . S
C2237 C2236 1.394 . S
C2237 C2238 1.516 . S
C2238 C2237 1.516 . S
C2238 C2239 1.502 . S
C2238 C2240 1.561 . S
C2238 C2241 1.526 . S
C2239 H2223 0.959 . S
C2239 H2224 0.959 . S
C2239 H2225 0.961 . S
C2239 C2238 1.502 . S
C2240 H2226 0.960 . S
C2240 H2227 0.961 . S
C2240 H2228 0.959 . S
C2240 C2238 1.561 . S
C2241 C2238 1.526 . S
C2241 C2242 1.396 . S
C2241 C2246 1.390 . S
C2242 C2236 1.465 . S
C2242 C2241 1.396 . S
C2242 C2243 1.399 . S
C2243 H2229 0.929 . S
C2243 C2242 1.399 . S
C2243 C2244 1.385 . S
C2244 H2230 0.931 . S
C2244 C2243 1.385 . S
C2244 C2245 1.389 . S
C2245 C2244 1.389 . S
C2245 C2246 1.387 . S
C2246 H2231 0.930 . S
C2246 C2241 1.390 . S
C2246 C2245 1.387 . S
H2247 C2259 0.930 . S
H2248 C2261 0.930 . S
H2249 C2262 0.930 . S
H2250 C2266 0.959 . S
H2251 C2266 0.959 . S
H2252 C2266 0.961 . S
H2253 C2267 0.960 . S
H2254 C2267 0.961 . S
H2255 C2267 0.959 . S
H2256 C2270 0.929 . S
H2257 C2271 0.931 . S
H2258 C2273 0.930 . S
C2259 H2247 0.930 . S
C2259 C2260 1.399 . S
C2259 C2264 1.399 . S
C2260 C2259 1.399 . S
C2260 C2261 1.376 . S
C2261 H2248 0.930 . S
C2261 C2260 1.376 . S
C2261 C2262 1.388 . S
C2262 H2249 0.930 . S
C2262 C2261 1.388 . S
C2262 C2263 1.390 . S
C2263 C2262 1.390 . S
C2263 C2264 1.394 . S
C2263 C2269 1.465 . S
C2264 C2259 1.399 . S
C2264 C2263 1.394 . S
C2264 C2265 1.516 . S
C2265 C2264 1.516 . S
C2265 C2266 1.502 . S
C2265 C2267 1.561 . S
C2265 C2268 1.526 . S
C2266 H2250 0.959 . S
C2266 H2251 0.959 . S
C2266 H2252 0.961 . S
C2266 C2265 1.502 . S
C2267 H2253 0.960 . S
C2267 H2254 0.961 . S
C2267 H2255 0.959 . S
C2267 C2265 1.561 . S
C2268 C2265 1.526 . S
C2268 C2269 1.396 . S
C2268 C2273 1.390 . S
C2269 C2263 1.465 . S
C2269 C2268 1.396 . S
C2269 C2270 1.399 . S
C2270 H2256 0.929 . S
C2270 C2269 1.399 . S
C2270 C2271 1.385 . S
C2271 H2257 0.931 . S
C2271 C2270 1.385 . S
C2271 C2272 1.389 . S
C2272 C2271 1.389 . S
C2272 C2273 1.387 . S
C2273 H2258 0.930 . S
C2273 C2268 1.390 . S
C2273 C2272 1.387 . S
H2274 C2286 0.930 . S
H2275 C2288 0.930 . S
H2276 C2289 0.930 . S
H2277 C2293 0.959 . S
H2278 C2293 0.959 . S
H2279 C2293 0.961 . S
H2280 C2294 0.960 . S
H2281 C2294 0.961 . S
H2282 C2294 0.959 . S
H2283 C2297 0.929 . S
H2284 C2298 0.931 . S
H2285 C2300 0.930 . S
C2286 H2274 0.930 . S
C2286 C2287 1.399 . S
C2286 C2291 1.399 . S
C2287 C2286 1.399 . S
C2287 C2288 1.376 . S
C2288 H2275 0.930 . S
C2288 C2287 1.376 . S
C2288 C2289 1.388 . S
C2289 H2276 0.930 . S
C2289 C2288 1.388 . S
C2289 C2290 1.390 . S
C2290 C2289 1.390 . S
C2290 C2291 1.394 . S
C2290 C2296 1.465 . S
C2291 C2286 1.399 . S
C2291 C2290 1.394 . S
C2291 C2292 1.516 . S
C2292 C2291 1.516 . S
C2292 C2293 1.502 . S
C2292 C2294 1.561 . S
C2292 C2295 1.526 . S
C2293 H2277 0.959 . S
C2293 H2278 0.959 . S
C2293 H2279 0.961 . S
C2293 C2292 1.502 . S
C2294 H2280 0.960 . S
C2294 H2281 0.961 . S
C2294 H2282 0.959 . S
C2294 C2292 1.561 . S
C2295 C2292 1.526 . S
C2295 C2296 1.396 . S
C2295 C2300 1.390 . S
C2296 C2290 1.465 . S
C2296 C2295 1.396 . S
C2296 C2297 1.399 . S
C2297 H2283 0.929 . S
C2297 C2296 1.399 . S
C2297 C2298 1.385 . S
C2298 H2284 0.931 . S
C2298 C2297 1.385 . S
C2298 C2299 1.389 . S
C2299 C2298 1.389 . S
C2299 C2300 1.387 . S
C2300 H2285 0.930 . S
C2300 C2295 1.390 . S
C2300 C2299 1.387 . S
H2301 C2313 0.930 . S
H2302 C2315 0.930 . S
H2303 C2316 0.930 . S
H2304 C2320 0.959 . S
H2305 C2320 0.959 . S
H2306 C2320 0.961 . S
H2307 C2321 0.960 . S
H2308 C2321 0.961 . S
H2309 C2321 0.959 . S
H2310 C2324 0.929 . S
H2311 C2325 0.931 . S
H2312 C2327 0.930 . S
C2313 H2301 0.930 . S
C2313 C2314 1.399 . S
C2313 C2318 1.399 . S
C2314 C2313 1.399 . S
C2314 C2315 1.376 . S
C2315 H2302 0.930 . S
C2315 C2314 1.376 . S
C2315 C2316 1.388 . S
C2316 H2303 0.930 . S
C2316 C2315 1.388 . S
C2316 C2317 1.390 . S
C2317 C2316 1.390 . S
C2317 C2318 1.394 . S
C2317 C2323 1.465 . S
C2318 C2313 1.399 . S
C2318 C2317 1.394 . S
C2318 C2319 1.516 . S
C2319 C2318 1.516 . S
C2319 C2320 1.502 . S
C2319 C2321 1.561 . S
C2319 C2322 1.526 . S
C2320 H2304 0.959 . S
C2320 H2305 0.959 . S
C2320 H2306 0.961 . S
C2320 C2319 1.502 . S
C2321 H2307 0.960 . S
C2321 H2308 0.961 . S
C2321 H2309 0.959 . S
C2321 C2319 1.561 . S
C2322 C2319 1.526 . S
C2322 C2323 1.396 . S
C2322 C2327 1.390 . S
C2323 C2317 1.465 . S
C2323 C2322 1.396 . S
C2323 C2324 1.399 . S
C2324 H2310 0.929 . S
C2324 C2323 1.399 . S
C2324 C2325 1.385 . S
C2325 H2311 0.931 . S
C2325 C2324 1.385 . S
C2325 C2326 1.389 . S
C2326 C2325 1.389 . S
C2326 C2327 1.387 . S
C2327 H2312 0.930 . S
C2327 C2322 1.390 . S
C2327 C2326 1.387 . S
H2328 C2340 0.930 . S
H2329 C2342 0.930 . S
H2330 C2343 0.930 . S
H2331 C2347 0.959 . S
H2332 C2347 0.959 . S
H2333 C2347 0.961 . S
H2334 C2348 0.960 . S
H2335 C2348 0.961 . S
H2336 C2348 0.959 . S
H2337 C2351 0.929 . S
H2338 C2352 0.931 . S
H2339 C2354 0.930 . S
C2340 H2328 0.930 . S
C2340 C2341 1.399 . S
C2340 C2345 1.399 . S
C2341 C2340 1.399 . S
C2341 C2342 1.376 . S
C2342 H2329 0.930 . S
C2342 C2341 1.376 . S
C2342 C2343 1.388 . S
C2343 H2330 0.930 . S
C2343 C2342 1.388 . S
C2343 C2344 1.390 . S
C2344 C2343 1.390 . S
C2344 C2345 1.394 . S
C2344 C2350 1.465 . S
C2345 C2340 1.399 . S
C2345 C2344 1.394 . S
C2345 C2346 1.516 . S
C2346 C2345 1.516 . S
C2346 C2347 1.502 . S
C2346 C2348 1.561 . S
C2346 C2349 1.526 . S
C2347 H2331 0.959 . S
C2347 H2332 0.959 . S
C2347 H2333 0.961 . S
C2347 C2346 1.502 . S
C2348 H2334 0.960 . S
C2348 H2335 0.961 . S
C2348 H2336 0.959 . S
C2348 C2346 1.561 . S
C2349 C2346 1.526 . S
C2349 C2350 1.396 . S
C2349 C2354 1.390 . S
C2350 C2344 1.465 . S
C2350 C2349 1.396 . S
C2350 C2351 1.399 . S
C2351 H2337 0.929 . S
C2351 C2350 1.399 . S
C2351 C2352 1.385 . S
C2352 H2338 0.931 . S
C2352 C2351 1.385 . S
C2352 C2353 1.389 . S
C2353 C2352 1.389 . S
C2353 C2354 1.387 . S
C2354 H2339 0.930 . S
C2354 C2349 1.390 . S
C2354 C2353 1.387 . S
H2355 C2367 0.930 . S
H2356 C2369 0.930 . S
H2357 C2370 0.930 . S
H2358 C2374 0.959 . S
H2359 C2374 0.959 . S
H2360 C2374 0.961 . S
H2361 C2375 0.960 . S
H2362 C2375 0.961 . S
H2363 C2375 0.959 . S
H2364 C2378 0.929 . S
H2365 C2379 0.931 . S
H2366 C2381 0.930 . S
C2367 H2355 0.930 . S
C2367 C2368 1.399 . S
C2367 C2372 1.399 . S
C2368 C2367 1.399 . S
C2368 C2369 1.376 . S
C2369 H2356 0.930 . S
C2369 C2368 1.376 . S
C2369 C2370 1.388 . S
C2370 H2357 0.930 . S
C2370 C2369 1.388 . S
C2370 C2371 1.390 . S
C2371 C2370 1.390 . S
C2371 C2372 1.394 . S
C2371 C2377 1.465 . S
C2372 C2367 1.399 . S
C2372 C2371 1.394 . S
C2372 C2373 1.516 . S
C2373 C2372 1.516 . S
C2373 C2374 1.502 . S
C2373 C2375 1.561 . S
C2373 C2376 1.526 . S
C2374 H2358 0.959 . S
C2374 H2359 0.959 . S
C2374 H2360 0.961 . S
C2374 C2373 1.502 . S
C2375 H2361 0.960 . S
C2375 H2362 0.961 . S
C2375 H2363 0.959 . S
C2375 C2373 1.561 . S
C2376 C2373 1.526 . S
C2376 C2377 1.396 . S
C2376 C2381 1.390 . S
C2377 C2371 1.465 . S
C2377 C2376 1.396 . S
C2377 C2378 1.399 . S
C2378 H2364 0.929 . S
C2378 C2377 1.399 . S
C2378 C2379 1.385 . S
C2379 H2365 0.931 . S
C2379 C2378 1.385 . S
C2379 C2380 1.389 . S
C2380 C2379 1.389 . S
C2380 C2381 1.387 . S
C2381 H2366 0.930 . S
C2381 C2376 1.390 . S
C2381 C2380 1.387 . S
H2382 C2394 0.930 . S
H2383 C2396 0.930 . S
H2384 C2397 0.930 . S
H2385 C2401 0.959 . S
H2386 C2401 0.959 . S
H2387 C2401 0.961 . S
H2388 C2402 0.960 . S
H2389 C2402 0.961 . S
H2390 C2402 0.959 . S
H2391 C2405 0.929 . S
H2392 C2406 0.931 . S
H2393 C2408 0.930 . S
C2394 H2382 0.930 . S
C2394 C2395 1.399 . S
C2394 C2399 1.399 . S
C2395 C2394 1.399 . S
C2395 C2396 1.376 . S
C2396 H2383 0.930 . S
C2396 C2395 1.376 . S
C2396 C2397 1.388 . S
C2397 H2384 0.930 . S
C2397 C2396 1.388 . S
C2397 C2398 1.390 . S
C2398 C2397 1.390 . S
C2398 C2399 1.394 . S
C2398 C2404 1.465 . S
C2399 C2394 1.399 . S
C2399 C2398 1.394 . S
C2399 C2400 1.516 . S
C2400 C2399 1.516 . S
C2400 C2401 1.502 . S
C2400 C2402 1.561 . S
C2400 C2403 1.526 . S
C2401 H2385 0.959 . S
C2401 H2386 0.959 . S
C2401 H2387 0.961 . S
C2401 C2400 1.502 . S
C2402 H2388 0.960 . S
C2402 H2389 0.961 . S
C2402 H2390 0.959 . S
C2402 C2400 1.561 . S
C2403 C2400 1.526 . S
C2403 C2404 1.396 . S
C2403 C2408 1.390 . S
C2404 C2398 1.465 . S
C2404 C2403 1.396 . S
C2404 C2405 1.399 . S
C2405 H2391 0.929 . S
C2405 C2404 1.399 . S
C2405 C2406 1.385 . S
C2406 H2392 0.931 . S
C2406 C2405 1.385 . S
C2406 C2407 1.389 . S
C2407 C2406 1.389 . S
C2407 C2408 1.387 . S
C2408 H2393 0.930 . S
C2408 C2403 1.390 . S
C2408 C2407 1.387 . S
H2409 C2421 0.930 . S
H2410 C2423 0.930 . S
H2411 C2424 0.930 . S
H2412 C2428 0.959 . S
H2413 C2428 0.959 . S
H2414 C2428 0.961 . S
H2415 C2429 0.960 . S
H2416 C2429 0.961 . S
H2417 C2429 0.959 . S
H2418 C2432 0.929 . S
H2419 C2433 0.931 . S
H2420 C2435 0.930 . S
C2421 H2409 0.930 . S
C2421 C2422 1.399 . S
C2421 C2426 1.399 . S
C2422 C2421 1.399 . S
C2422 C2423 1.376 . S
C2423 H2410 0.930 . S
C2423 C2422 1.376 . S
C2423 C2424 1.388 . S
C2424 H2411 0.930 . S
C2424 C2423 1.388 . S
C2424 C2425 1.390 . S
C2425 C2424 1.390 . S
C2425 C2426 1.394 . S
C2425 C2431 1.465 . S
C2426 C2421 1.399 . S
C2426 C2425 1.394 . S
C2426 C2427 1.516 . S
C2427 C2426 1.516 . S
C2427 C2428 1.502 . S
C2427 C2429 1.561 . S
C2427 C2430 1.526 . S
C2428 H2412 0.959 . S
C2428 H2413 0.959 . S
C2428 H2414 0.961 . S
C2428 C2427 1.502 . S
C2429 H2415 0.960 . S
C2429 H2416 0.961 . S
C2429 H2417 0.959 . S
C2429 C2427 1.561 . S
C2430 C2427 1.526 . S
C2430 C2431 1.396 . S
C2430 C2435 1.390 . S
C2431 C2425 1.465 . S
C2431 C2430 1.396 . S
C2431 C2432 1.399 . S
C2432 H2418 0.929 . S
C2432 C2431 1.399 . S
C2432 C2433 1.385 . S
C2433 H2419 0.931 . S
C2433 C2432 1.385 . S
C2433 C2434 1.389 . S
C2434 C2433 1.389 . S
C2434 C2435 1.387 . S
C2435 H2420 0.930 . S
C2435 C2430 1.390 . S
C2435 C2434 1.387 . S
H2436 C2448 0.930 . S
H2437 C2450 0.930 . S
H2438 C2451 0.930 . S
H2439 C2455 0.959 . S
H2440 C2455 0.959 . S
H2441 C2455 0.961 . S
H2442 C2456 0.960 . S
H2443 C2456 0.961 . S
H2444 C2456 0.959 . S
H2445 C2459 0.929 . S
H2446 C2460 0.931 . S
H2447 C2462 0.930 . S
C2448 H2436 0.930 . S
C2448 C2449 1.399 . S
C2448 C2453 1.399 . S
C2449 C2448 1.399 . S
C2449 C2450 1.376 . S
C2450 H2437 0.930 . S
C2450 C2449 1.376 . S
C2450 C2451 1.388 . S
C2451 H2438 0.930 . S
C2451 C2450 1.388 . S
C2451 C2452 1.390 . S
C2452 C2451 1.390 . S
C2452 C2453 1.394 . S
C2452 C2458 1.465 . S
C2453 C2448 1.399 . S
C2453 C2452 1.394 . S
C2453 C2454 1.516 . S
C2454 C2453 1.516 . S
C2454 C2455 1.502 . S
C2454 C2456 1.561 . S
C2454 C2457 1.526 . S
C2455 H2439 0.959 . S
C2455 H2440 0.959 . S
C2455 H2441 0.961 . S
C2455 C2454 1.502 . S
C2456 H2442 0.960 . S
C2456 H2443 0.961 . S
C2456 H2444 0.959 . S
C2456 C2454 1.561 . S
C2457 C2454 1.526 . S
C2457 C2458 1.396 . S
C2457 C2462 1.390 . S
C2458 C2452 1.465 . S
C2458 C2457 1.396 . S
C2458 C2459 1.399 . S
C2459 H2445 0.929 . S
C2459 C2458 1.399 . S
C2459 C2460 1.385 . S
C2460 H2446 0.931 . S
C2460 C2459 1.385 . S
C2460 C2461 1.389 . S
C2461 C2460 1.389 . S
C2461 C2462 1.387 . S
C2462 H2447 0.930 . S
C2462 C2457 1.390 . S
C2462 C2461 1.387 . S
H2463 C2475 0.930 . S
H2464 C2477 0.930 . S
H2465 C2478 0.930 . S
H2466 C2482 0.959 . S
H2467 C2482 0.959 . S
H2468 C2482 0.961 . S
H2469 C2483 0.960 . S
H2470 C2483 0.961 . S
H2471 C2483 0.959 . S
H2472 C2486 0.929 . S
H2473 C2487 0.931 . S
H2474 C2489 0.930 . S
C2475 H2463 0.930 . S
C2475 C2476 1.399 . S
C2475 C2480 1.399 . S
C2476 C2475 1.399 . S
C2476 C2477 1.376 . S
C2477 H2464 0.930 . S
C2477 C2476 1.376 . S
C2477 C2478 1.388 . S
C2478 H2465 0.930 . S
C2478 C2477 1.388 . S
C2478 C2479 1.390 . S
C2479 C2478 1.390 . S
C2479 C2480 1.394 . S
C2479 C2485 1.465 . S
C2480 C2475 1.399 . S
C2480 C2479 1.394 . S
C2480 C2481 1.516 . S
C2481 C2480 1.516 . S
C2481 C2482 1.502 . S
C2481 C2483 1.561 . S
C2481 C2484 1.526 . S
C2482 H2466 0.959 . S
C2482 H2467 0.959 . S
C2482 H2468 0.961 . S
C2482 C2481 1.502 . S
C2483 H2469 0.960 . S
C2483 H2470 0.961 . S
C2483 H2471 0.959 . S
C2483 C2481 1.561 . S
C2484 C2481 1.526 . S
C2484 C2485 1.396 . S
C2484 C2489 1.390 . S
C2485 C2479 1.465 . S
C2485 C2484 1.396 . S
C2485 C2486 1.399 . S
C2486 H2472 0.929 . S
C2486 C2485 1.399 . S
C2486 C2487 1.385 . S
C2487 H2473 0.931 . S
C2487 C2486 1.385 . S
C2487 C2488 1.389 . S
C2488 C2487 1.389 . S
C2488 C2489 1.387 . S
C2489 H2474 0.930 . S
C2489 C2484 1.390 . S
C2489 C2488 1.387 . S
H2490 C2502 0.930 . S
H2491 C2504 0.930 . S
H2492 C2505 0.930 . S
H2493 C2509 0.959 . S
H2494 C2509 0.959 . S
H2495 C2509 0.961 . S
H2496 C2510 0.960 . S
H2497 C2510 0.961 . S
H2498 C2510 0.959 . S
H2499 C2513 0.929 . S
H2500 C2514 0.931 . S
H2501 C2516 0.930 . S
C2502 H2490 0.930 . S
C2502 C2503 1.399 . S
C2502 C2507 1.399 . S
C2503 C2502 1.399 . S
C2503 C2504 1.376 . S
C2504 H2491 0.930 . S
C2504 C2503 1.376 . S
C2504 C2505 1.388 . S
C2505 H2492 0.930 . S
C2505 C2504 1.388 . S
C2505 C2506 1.390 . S
C2506 C2505 1.390 . S
C2506 C2507 1.394 . S
C2506 C2512 1.465 . S
C2507 C2502 1.399 . S
C2507 C2506 1.394 . S
C2507 C2508 1.516 . S
C2508 C2507 1.516 . S
C2508 C2509 1.502 . S
C2508 C2510 1.561 . S
C2508 C2511 1.526 . S
C2509 H2493 0.959 . S
C2509 H2494 0.959 . S
C2509 H2495 0.961 . S
C2509 C2508 1.502 . S
C2510 H2496 0.960 . S
C2510 H2497 0.961 . S
C2510 H2498 0.959 . S
C2510 C2508 1.561 . S
C2511 C2508 1.526 . S
C2511 C2512 1.396 . S
C2511 C2516 1.390 . S
C2512 C2506 1.465 . S
C2512 C2511 1.396 . S
C2512 C2513 1.399 . S
C2513 H2499 0.929 . S
C2513 C2512 1.399 . S
C2513 C2514 1.385 . S
C2514 H2500 0.931 . S
C2514 C2513 1.385 . S
C2514 C2515 1.389 . S
C2515 C2514 1.389 . S
C2515 C2516 1.387 . S
C2516 H2501 0.930 . S
C2516 C2511 1.390 . S
C2516 C2515 1.387 . S
H2517 C2529 0.930 . S
H2518 C2531 0.930 . S
H2519 C2532 0.930 . S
H2520 C2536 0.959 . S
H2521 C2536 0.959 . S
H2522 C2536 0.961 . S
H2523 C2537 0.960 . S
H2524 C2537 0.961 . S
H2525 C2537 0.959 . S
H2526 C2540 0.929 . S
H2527 C2541 0.931 . S
H2528 C2543 0.930 . S
C2529 H2517 0.930 . S
C2529 C2530 1.399 . S
C2529 C2534 1.399 . S
C2530 C2529 1.399 . S
C2530 C2531 1.376 . S
C2531 H2518 0.930 . S
C2531 C2530 1.376 . S
C2531 C2532 1.388 . S
C2532 H2519 0.930 . S
C2532 C2531 1.388 . S
C2532 C2533 1.390 . S
C2533 C2532 1.390 . S
C2533 C2534 1.394 . S
C2533 C2539 1.465 . S
C2534 C2529 1.399 . S
C2534 C2533 1.394 . S
C2534 C2535 1.516 . S
C2535 C2534 1.516 . S
C2535 C2536 1.502 . S
C2535 C2537 1.561 . S
C2535 C2538 1.526 . S
C2536 H2520 0.959 . S
C2536 H2521 0.959 . S
C2536 H2522 0.961 . S
C2536 C2535 1.502 . S
C2537 H2523 0.960 . S
C2537 H2524 0.961 . S
C2537 H2525 0.959 . S
C2537 C2535 1.561 . S
C2538 C2535 1.526 . S
C2538 C2539 1.396 . S
C2538 C2543 1.390 . S
C2539 C2533 1.465 . S
C2539 C2538 1.396 . S
C2539 C2540 1.399 . S
C2540 H2526 0.929 . S
C2540 C2539 1.399 . S
C2540 C2541 1.385 . S
C2541 H2527 0.931 . S
C2541 C2540 1.385 . S
C2541 C2542 1.389 . S
C2542 C2541 1.389 . S
C2542 C2543 1.387 . S
C2543 H2528 0.930 . S
C2543 C2538 1.390 . S
C2543 C2542 1.387 . S
H2544 C2556 0.930 . S
H2545 C2558 0.930 . S
H2546 C2559 0.930 . S
H2547 C2563 0.959 . S
H2548 C2563 0.959 . S
H2549 C2563 0.961 . S
H2550 C2564 0.960 . S
H2551 C2564 0.961 . S
H2552 C2564 0.959 . S
H2553 C2567 0.929 . S
H2554 C2568 0.931 . S
H2555 C2570 0.930 . S
C2556 H2544 0.930 . S
C2556 C2557 1.399 . S
C2556 C2561 1.399 . S
C2557 C2556 1.399 . S
C2557 C2558 1.376 . S
C2558 H2545 0.930 . S
C2558 C2557 1.376 . S
C2558 C2559 1.388 . S
C2559 H2546 0.930 . S
C2559 C2558 1.388 . S
C2559 C2560 1.390 . S
C2560 C2559 1.390 . S
C2560 C2561 1.394 . S
C2560 C2566 1.465 . S
C2561 C2556 1.399 . S
C2561 C2560 1.394 . S
C2561 C2562 1.516 . S
C2562 C2561 1.516 . S
C2562 C2563 1.502 . S
C2562 C2564 1.561 . S
C2562 C2565 1.526 . S
C2563 H2547 0.959 . S
C2563 H2548 0.959 . S
C2563 H2549 0.961 . S
C2563 C2562 1.502 . S
C2564 H2550 0.960 . S
C2564 H2551 0.961 . S
C2564 H2552 0.959 . S
C2564 C2562 1.561 . S
C2565 C2562 1.526 . S
C2565 C2566 1.396 . S
C2565 C2570 1.390 . S
C2566 C2560 1.465 . S
C2566 C2565 1.396 . S
C2566 C2567 1.399 . S
C2567 H2553 0.929 . S
C2567 C2566 1.399 . S
C2567 C2568 1.385 . S
C2568 H2554 0.931 . S
C2568 C2567 1.385 . S
C2568 C2569 1.389 . S
C2569 C2568 1.389 . S
C2569 C2570 1.387 . S
C2570 H2555 0.930 . S
C2570 C2565 1.390 . S
C2570 C2569 1.387 . S
H2571 C2583 0.930 . S
H2572 C2585 0.930 . S
H2573 C2586 0.930 . S
H2574 C2590 0.959 . S
H2575 C2590 0.959 . S
H2576 C2590 0.961 . S
H2577 C2591 0.960 . S
H2578 C2591 0.961 . S
H2579 C2591 0.959 . S
H2580 C2594 0.929 . S
H2581 C2595 0.931 . S
H2582 C2597 0.930 . S
C2583 H2571 0.930 . S
C2583 C2584 1.399 . S
C2583 C2588 1.399 . S
C2584 C2583 1.399 . S
C2584 C2585 1.376 . S
C2585 H2572 0.930 . S
C2585 C2584 1.376 . S
C2585 C2586 1.388 . S
C2586 H2573 0.930 . S
C2586 C2585 1.388 . S
C2586 C2587 1.390 . S
C2587 C2586 1.390 . S
C2587 C2588 1.394 . S
C2587 C2593 1.465 . S
C2588 C2583 1.399 . S
C2588 C2587 1.394 . S
C2588 C2589 1.516 . S
C2589 C2588 1.516 . S
C2589 C2590 1.502 . S
C2589 C2591 1.561 . S
C2589 C2592 1.526 . S
C2590 H2574 0.959 . S
C2590 H2575 0.959 . S
C2590 H2576 0.961 . S
C2590 C2589 1.502 . S
C2591 H2577 0.960 . S
C2591 H2578 0.961 . S
C2591 H2579 0.959 . S
C2591 C2589 1.561 . S
C2592 C2589 1.526 . S
C2592 C2593 1.396 . S
C2592 C2597 1.390 . S
C2593 C2587 1.465 . S
C2593 C2592 1.396 . S
C2593 C2594 1.399 . S
C2594 H2580 0.929 . S
C2594 C2593 1.399 . S
C2594 C2595 1.385 . S
C2595 H2581 0.931 . S
C2595 C2594 1.385 . S
C2595 C2596 1.389 . S
C2596 C2595 1.389 . S
C2596 C2597 1.387 . S
C2597 H2582 0.930 . S
C2597 C2592 1.390 . S
C2597 C2596 1.387 . S
H2598 C2610 0.930 . S
H2599 C2612 0.930 . S
H2600 C2613 0.930 . S
H2601 C2617 0.959 . S
H2602 C2617 0.959 . S
H2603 C2617 0.961 . S
H2604 C2618 0.960 . S
H2605 C2618 0.961 . S
H2606 C2618 0.959 . S
H2607 C2621 0.929 . S
H2608 C2622 0.931 . S
H2609 C2624 0.930 . S
C2610 H2598 0.930 . S
C2610 C2611 1.399 . S
C2610 C2615 1.399 . S
C2611 C2610 1.399 . S
C2611 C2612 1.376 . S
C2612 H2599 0.930 . S
C2612 C2611 1.376 . S
C2612 C2613 1.388 . S
C2613 H2600 0.930 . S
C2613 C2612 1.388 . S
C2613 C2614 1.390 . S
C2614 C2613 1.390 . S
C2614 C2615 1.394 . S
C2614 C2620 1.465 . S
C2615 C2610 1.399 . S
C2615 C2614 1.394 . S
C2615 C2616 1.516 . S
C2616 C2615 1.516 . S
C2616 C2617 1.502 . S
C2616 C2618 1.561 . S
C2616 C2619 1.526 . S
C2617 H2601 0.959 . S
C2617 H2602 0.959 . S
C2617 H2603 0.961 . S
C2617 C2616 1.502 . S
C2618 H2604 0.960 . S
C2618 H2605 0.961 . S
C2618 H2606 0.959 . S
C2618 C2616 1.561 . S
C2619 C2616 1.526 . S
C2619 C2620 1.396 . S
C2619 C2624 1.390 . S
C2620 C2614 1.465 . S
C2620 C2619 1.396 . S
C2620 C2621 1.399 . S
C2621 H2607 0.929 . S
C2621 C2620 1.399 . S
C2621 C2622 1.385 . S
C2622 H2608 0.931 . S
C2622 C2621 1.385 . S
C2622 C2623 1.389 . S
C2623 C2622 1.389 . S
C2623 C2624 1.387 . S
C2624 H2609 0.930 . S
C2624 C2619 1.390 . S
C2624 C2623 1.387 . S
H2625 C2637 0.930 . S
H2626 C2639 0.930 . S
H2627 C2640 0.930 . S
H2628 C2644 0.959 . S
H2629 C2644 0.959 . S
H2630 C2644 0.961 . S
H2631 C2645 0.960 . S
H2632 C2645 0.961 . S
H2633 C2645 0.959 . S
H2634 C2648 0.929 . S
H2635 C2649 0.931 . S
H2636 C2651 0.930 . S
C2637 H2625 0.930 . S
C2637 C2638 1.399 . S
C2637 C2642 1.399 . S
C2638 C2637 1.399 . S
C2638 C2639 1.376 . S
C2639 H2626 0.930 . S
C2639 C2638 1.376 . S
C2639 C2640 1.388 . S
C2640 H2627 0.930 . S
C2640 C2639 1.388 . S
C2640 C2641 1.390 . S
C2641 C2640 1.390 . S
C2641 C2642 1.394 . S
C2641 C2647 1.465 . S
C2642 C2637 1.399 . S
C2642 C2641 1.394 . S
C2642 C2643 1.516 . S
C2643 C2642 1.516 . S
C2643 C2644 1.502 . S
C2643 C2645 1.561 . S
C2643 C2646 1.526 . S
C2644 H2628 0.959 . S
C2644 H2629 0.959 . S
C2644 H2630 0.961 . S
C2644 C2643 1.502 . S
C2645 H2631 0.960 . S
C2645 H2632 0.961 . S
C2645 H2633 0.959 . S
C2645 C2643 1.561 . S
C2646 C2643 1.526 . S
C2646 C2647 1.396 . S
C2646 C2651 1.390 . S
C2647 C2641 1.465 . S
C2647 C2646 1.396 . S
C2647 C2648 1.399 . S
C2648 H2634 0.929 . S
C2648 C2647 1.399 . S
C2648 C2649 1.385 . S
C2649 H2635 0.931 . S
C2649 C2648 1.385 . S
C2649 C2650 1.389 . S
C2650 C2649 1.389 . S
C2650 C2651 1.387 . S
C2651 H2636 0.930 . S
C2651 C2646 1.390 . S
C2651 C2650 1.387 . S
H2652 C2664 0.930 . S
H2653 C2666 0.930 . S
H2654 C2667 0.930 . S
H2655 C2671 0.959 . S
H2656 C2671 0.959 . S
H2657 C2671 0.961 . S
H2658 C2672 0.960 . S
H2659 C2672 0.961 . S
H2660 C2672 0.959 . S
H2661 C2675 0.929 . S
H2662 C2676 0.931 . S
H2663 C2678 0.930 . S
C2664 H2652 0.930 . S
C2664 C2665 1.399 . S
C2664 C2669 1.399 . S
C2665 C2664 1.399 . S
C2665 C2666 1.376 . S
C2666 H2653 0.930 . S
C2666 C2665 1.376 . S
C2666 C2667 1.388 . S
C2667 H2654 0.930 . S
C2667 C2666 1.388 . S
C2667 C2668 1.390 . S
C2668 C2667 1.390 . S
C2668 C2669 1.394 . S
C2668 C2674 1.465 . S
C2669 C2664 1.399 . S
C2669 C2668 1.394 . S
C2669 C2670 1.516 . S
C2670 C2669 1.516 . S
C2670 C2671 1.502 . S
C2670 C2672 1.561 . S
C2670 C2673 1.526 . S
C2671 H2655 0.959 . S
C2671 H2656 0.959 . S
C2671 H2657 0.961 . S
C2671 C2670 1.502 . S
C2672 H2658 0.960 . S
C2672 H2659 0.961 . S
C2672 H2660 0.959 . S
C2672 C2670 1.561 . S
C2673 C2670 1.526 . S
C2673 C2674 1.396 . S
C2673 C2678 1.390 . S
C2674 C2668 1.465 . S
C2674 C2673 1.396 . S
C2674 C2675 1.399 . S
C2675 H2661 0.929 . S
C2675 C2674 1.399 . S
C2675 C2676 1.385 . S
C2676 H2662 0.931 . S
C2676 C2675 1.385 . S
C2676 C2677 1.389 . S
C2677 C2676 1.389 . S
C2677 C2678 1.387 . S
C2678 H2663 0.930 . S
C2678 C2673 1.390 . S
C2678 C2677 1.387 . S
H2679 C2691 0.930 . S
H2680 C2693 0.930 . S
H2681 C2694 0.930 . S
H2682 C2698 0.959 . S
H2683 C2698 0.959 . S
H2684 C2698 0.961 . S
H2685 C2699 0.960 . S
H2686 C2699 0.961 . S
H2687 C2699 0.959 . S
H2688 C2702 0.929 . S
H2689 C2703 0.931 . S
H2690 C2705 0.930 . S
C2691 H2679 0.930 . S
C2691 C2692 1.399 . S
C2691 C2696 1.399 . S
C2692 C2691 1.399 . S
C2692 C2693 1.376 . S
C2693 H2680 0.930 . S
C2693 C2692 1.376 . S
C2693 C2694 1.388 . S
C2694 H2681 0.930 . S
C2694 C2693 1.388 . S
C2694 C2695 1.390 . S
C2695 C2694 1.390 . S
C2695 C2696 1.394 . S
C2695 C2701 1.465 . S
C2696 C2691 1.399 . S
C2696 C2695 1.394 . S
C2696 C2697 1.516 . S
C2697 C2696 1.516 . S
C2697 C2698 1.502 . S
C2697 C2699 1.561 . S
C2697 C2700 1.526 . S
C2698 H2682 0.959 . S
C2698 H2683 0.959 . S
C2698 H2684 0.961 . S
C2698 C2697 1.502 . S
C2699 H2685 0.960 . S
C2699 H2686 0.961 . S
C2699 H2687 0.959 . S
C2699 C2697 1.561 . S
C2700 C2697 1.526 . S
C2700 C2701 1.396 . S
C2700 C2705 1.390 . S
C2701 C2695 1.465 . S
C2701 C2700 1.396 . S
C2701 C2702 1.399 . S
C2702 H2688 0.929 . S
C2702 C2701 1.399 . S
C2702 C2703 1.385 . S
C2703 H2689 0.931 . S
C2703 C2702 1.385 . S
C2703 C2704 1.389 . S
C2704 C2703 1.389 . S
C2704 C2705 1.387 . S
C2705 H2690 0.930 . S
C2705 C2700 1.390 . S
C2705 C2704 1.387 . S
H2706 C2718 0.930 . S
H2707 C2720 0.930 . S
H2708 C2721 0.930 . S
H2709 C2725 0.959 . S
H2710 C2725 0.959 . S
H2711 C2725 0.961 . S
H2712 C2726 0.960 . S
H2713 C2726 0.961 . S
H2714 C2726 0.959 . S
H2715 C2729 0.929 . S
H2716 C2730 0.931 . S
H2717 C2732 0.930 . S
C2718 H2706 0.930 . S
C2718 C2719 1.399 . S
C2718 C2723 1.399 . S
C2719 C2718 1.399 . S
C2719 C2720 1.376 . S
C2720 H2707 0.930 . S
C2720 C2719 1.376 . S
C2720 C2721 1.388 . S
C2721 H2708 0.930 . S
C2721 C2720 1.388 . S
C2721 C2722 1.390 . S
C2722 C2721 1.390 . S
C2722 C2723 1.394 . S
C2722 C2728 1.465 . S
C2723 C2718 1.399 . S
C2723 C2722 1.394 . S
C2723 C2724 1.516 . S
C2724 C2723 1.516 . S
C2724 C2725 1.502 . S
C2724 C2726 1.561 . S
C2724 C2727 1.526 . S
C2725 H2709 0.959 . S
C2725 H2710 0.959 . S
C2725 H2711 0.961 . S
C2725 C2724 1.502 . S
C2726 H2712 0.960 . S
C2726 H2713 0.961 . S
C2726 H2714 0.959 . S
C2726 C2724 1.561 . S
C2727 C2724 1.526 . S
C2727 C2728 1.396 . S
C2727 C2732 1.390 . S
C2728 C2722 1.465 . S
C2728 C2727 1.396 . S
C2728 C2729 1.399 . S
C2729 H2715 0.929 . S
C2729 C2728 1.399 . S
C2729 C2730 1.385 . S
C2730 H2716 0.931 . S
C2730 C2729 1.385 . S
C2730 C2731 1.389 . S
C2731 C2730 1.389 . S
C2731 C2732 1.387 . S
C2732 H2717 0.930 . S
C2732 C2727 1.390 . S
C2732 C2731 1.387 . S
H2733 C2745 0.930 . S
H2734 C2747 0.930 . S
H2735 C2748 0.930 . S
H2736 C2752 0.959 . S
H2737 C2752 0.959 . S
H2738 C2752 0.961 . S
H2739 C2753 0.960 . S
H2740 C2753 0.961 . S
H2741 C2753 0.959 . S
H2742 C2756 0.929 . S
H2743 C2757 0.931 . S
H2744 C2759 0.930 . S
C2745 H2733 0.930 . S
C2745 C2746 1.399 . S
C2745 C2750 1.399 . S
C2746 C2745 1.399 . S
C2746 C2747 1.376 . S
C2747 H2734 0.930 . S
C2747 C2746 1.376 . S
C2747 C2748 1.388 . S
C2748 H2735 0.930 . S
C2748 C2747 1.388 . S
C2748 C2749 1.390 . S
C2749 C2748 1.390 . S
C2749 C2750 1.394 . S
C2749 C2755 1.465 . S
C2750 C2745 1.399 . S
C2750 C2749 1.394 . S
C2750 C2751 1.516 . S
C2751 C2750 1.516 . S
C2751 C2752 1.502 . S
C2751 C2753 1.561 . S
C2751 C2754 1.526 . S
C2752 H2736 0.959 . S
C2752 H2737 0.959 . S
C2752 H2738 0.961 . S
C2752 C2751 1.502 . S
C2753 H2739 0.960 . S
C2753 H2740 0.961 . S
C2753 H2741 0.959 . S
C2753 C2751 1.561 . S
C2754 C2751 1.526 . S
C2754 C2755 1.396 . S
C2754 C2759 1.390 . S
C2755 C2749 1.465 . S
C2755 C2754 1.396 . S
C2755 C2756 1.399 . S
C2756 H2742 0.929 . S
C2756 C2755 1.399 . S
C2756 C2757 1.385 . S
C2757 H2743 0.931 . S
C2757 C2756 1.385 . S
C2757 C2758 1.389 . S
C2758 C2757 1.389 . S
C2758 C2759 1.387 . S
C2759 H2744 0.930 . S
C2759 C2754 1.390 . S
C2759 C2758 1.387 . S
H2760 C2772 0.930 . S
H2761 C2774 0.930 . S
H2762 C2775 0.930 . S
H2763 C2779 0.962 . S
H2764 C2779 0.979 . S
H2765 C2779 0.940 1_455 S
H2766 C2780 0.953 1_455 S
H2767 C2780 0.967 . S
H2768 C2780 0.960 . S
H2769 C2783 0.929 . S
H2770 C2784 0.931 . S
H2771 C2786 0.930 . S
C2772 H2760 0.930 . S
C2772 C2773 1.399 . S
C2772 C2777 1.399 . S
C2773 C2772 1.399 . S
C2773 C2774 1.376 . S
C2774 H2761 0.930 . S
C2774 C2773 1.376 . S
C2774 C2775 1.388 . S
C2775 H2762 0.930 . S
C2775 C2774 1.388 . S
C2775 C2776 1.390 . S
C2776 C2775 1.390 . S
C2776 C2777 1.394 . S
C2776 C2782 1.465 1_455 S
C2777 C2772 1.399 . S
C2777 C2776 1.394 . S
C2777 C2778 1.516 1_455 S
C2778 C2777 1.516 1_655 S
C2778 C2779 1.502 . S
C2778 C2780 1.561 . S
C2778 C2781 1.525 . S
C2779 H2763 0.962 . S
C2779 H2764 0.979 . S
C2779 H2765 0.940 1_655 S
C2779 C2778 1.502 . S
C2780 H2766 0.953 1_655 S
C2780 H2767 0.967 . S
C2780 H2768 0.960 . S
C2780 C2778 1.561 . S
C2781 C2778 1.525 . S
C2781 C2782 1.396 . S
C2781 C2786 1.390 . S
C2782 C2776 1.465 1_655 S
C2782 C2781 1.396 . S
C2782 C2783 1.399 . S
C2783 H2769 0.929 . S
C2783 C2782 1.399 . S
C2783 C2784 1.385 . S
C2784 H2770 0.931 . S
C2784 C2783 1.385 . S
C2784 C2785 1.389 . S
C2785 C2784 1.389 . S
C2785 C2786 1.387 . S
C2786 H2771 0.930 . S
C2786 C2781 1.390 . S
C2786 C2785 1.387 . S
H2787 C2799 0.930 . S
H2788 C2801 0.930 . S
H2789 C2802 0.930 . S
H2790 C2806 0.962 . S
H2791 C2806 0.982 . S
H2792 C2806 0.936 1_545 S
H2793 C2807 0.953 1_545 S
H2794 C2807 0.968 . S
H2795 C2807 0.960 . S
H2796 C2810 0.929 . S
H2797 C2811 0.931 . S
H2798 C2813 0.930 . S
C2799 H2787 0.930 . S
C2799 C2800 1.399 . S
C2799 C2804 1.399 . S
C2800 C2799 1.399 . S
C2800 C2801 1.376 . S
C2801 H2788 0.930 . S
C2801 C2800 1.376 . S
C2801 C2802 1.388 . S
C2802 H2789 0.930 . S
C2802 C2801 1.388 . S
C2802 C2803 1.390 . S
C2803 C2802 1.390 . S
C2803 C2804 1.394 . S
C2803 C2809 1.465 1_545 S
C2804 C2799 1.399 . S
C2804 C2803 1.394 . S
C2804 C2805 1.515 1_545 S
C2805 C2804 1.515 1_565 S
C2805 C2806 1.501 . S
C2805 C2807 1.561 . S
C2805 C2808 1.527 . S
C2806 H2790 0.962 . S
C2806 H2791 0.982 . S
C2806 H2792 0.936 1_565 S
C2806 C2805 1.501 . S
C2807 H2793 0.953 1_565 S
C2807 H2794 0.968 . S
C2807 H2795 0.960 . S
C2807 C2805 1.561 . S
C2808 C2805 1.527 . S
C2808 C2809 1.396 . S
C2808 C2813 1.390 . S
C2809 C2803 1.465 1_565 S
C2809 C2808 1.396 . S
C2809 C2810 1.399 . S
C2810 H2796 0.929 . S
C2810 C2809 1.399 . S
C2810 C2811 1.385 . S
C2811 H2797 0.931 . S
C2811 C2810 1.385 . S
C2811 C2812 1.389 . S
C2812 C2811 1.389 . S
C2812 C2813 1.387 . S
C2813 H2798 0.930 . S
C2813 C2808 1.390 . S
C2813 C2812 1.387 . S
H2814 C2826 0.930 . S
H2815 C2828 0.930 . S
H2816 C2829 0.930 . S
H2817 C2833 0.961 . S
H2818 C2833 0.973 . S
H2819 C2833 0.945 1_655 S
H2820 C2834 0.957 1_655 S
H2821 C2834 0.964 . S
H2822 C2834 0.959 . S
H2823 C2837 0.929 . S
H2824 C2838 0.931 . S
H2825 C2840 0.930 . S
C2826 H2814 0.930 . S
C2826 C2827 1.399 . S
C2826 C2831 1.399 . S
C2827 C2826 1.399 . S
C2827 C2828 1.376 . S
C2828 H2815 0.930 . S
C2828 C2827 1.376 . S
C2828 C2829 1.388 . S
C2829 H2816 0.930 . S
C2829 C2828 1.388 . S
C2829 C2830 1.390 . S
C2830 C2829 1.390 . S
C2830 C2831 1.394 . S
C2830 C2836 1.465 1_655 S
C2831 C2826 1.399 . S
C2831 C2830 1.394 . S
C2831 C2832 1.519 1_655 S
C2832 C2831 1.519 1_455 S
C2832 C2833 1.502 . S
C2832 C2834 1.561 . S
C2832 C2835 1.523 . S
C2833 H2817 0.961 . S
C2833 H2818 0.973 . S
C2833 H2819 0.945 1_455 S
C2833 C2832 1.502 . S
C2834 H2820 0.957 1_455 S
C2834 H2821 0.964 . S
C2834 H2822 0.959 . S
C2834 C2832 1.561 . S
C2835 C2832 1.523 . S
C2835 C2836 1.396 . S
C2835 C2840 1.390 . S
C2836 C2830 1.465 1_455 S
C2836 C2835 1.396 . S
C2836 C2837 1.399 . S
C2837 H2823 0.929 . S
C2837 C2836 1.399 . S
C2837 C2838 1.385 . S
C2838 H2824 0.931 . S
C2838 C2837 1.385 . S
C2838 C2839 1.389 . S
C2839 C2838 1.389 . S
C2839 C2840 1.387 . S
C2840 H2825 0.930 . S
C2840 C2835 1.390 . S
C2840 C2839 1.387 . S
H2841 C2853 0.930 . S
H2842 C2855 0.930 . S
H2843 C2856 0.930 . S
H2844 C2860 0.962 . S
H2845 C2860 0.976 . S
H2846 C2860 0.943 1_545 S
H2847 C2861 0.966 1_545 S
H2848 C2861 0.955 . S
H2849 C2861 0.956 . S
H2850 C2864 0.929 . S
H2851 C2865 0.931 . S
H2852 C2867 0.930 . S
C2853 H2841 0.930 . S
C2853 C2854 1.399 . S
C2853 C2858 1.399 . S
C2854 C2853 1.399 . S
C2854 C2855 1.376 . S
C2855 H2842 0.930 . S
C2855 C2854 1.376 . S
C2855 C2856 1.388 . S
C2856 H2843 0.930 . S
C2856 C2855 1.388 . S
C2856 C2857 1.390 . S
C2857 C2856 1.390 . S
C2857 C2858 1.394 . S
C2857 C2863 1.465 1_545 S
C2858 C2853 1.399 . S
C2858 C2857 1.394 . S
C2858 C2859 1.521 1_545 S
C2859 C2858 1.521 1_565 S
C2859 C2860 1.501 . S
C2859 C2861 1.561 . S
C2859 C2862 1.521 . S
C2860 H2844 0.962 . S
C2860 H2845 0.976 . S
C2860 H2846 0.943 1_565 S
C2860 C2859 1.501 . S
C2861 H2847 0.966 1_565 S
C2861 H2848 0.955 . S
C2861 H2849 0.956 . S
C2861 C2859 1.561 . S
C2862 C2859 1.521 . S
C2862 C2863 1.396 . S
C2862 C2867 1.390 . S
C2863 C2857 1.465 1_565 S
C2863 C2862 1.396 . S
C2863 C2864 1.399 . S
C2864 H2850 0.929 . S
C2864 C2863 1.399 . S
C2864 C2865 1.385 . S
C2865 H2851 0.931 . S
C2865 C2864 1.385 . S
C2865 C2866 1.389 . S
C2866 C2865 1.389 . S
C2866 C2867 1.387 . S
C2867 H2852 0.930 . S
C2867 C2862 1.390 . S
C2867 C2866 1.387 . S
H2868 C2880 0.930 . S
H2869 C2882 0.930 . S
H2870 C2883 0.930 . S
H2871 C2887 0.961 . S
H2872 C2887 0.973 . S
H2873 C2887 0.946 1_565 S
H2874 C2888 0.958 1_565 S
H2875 C2888 0.963 . S
H2876 C2888 0.959 . S
H2877 C2891 0.929 . S
H2878 C2892 0.931 . S
H2879 C2894 0.930 . S
C2880 H2868 0.930 . S
C2880 C2881 1.399 . S
C2880 C2885 1.399 . S
C2881 C2880 1.399 . S
C2881 C2882 1.376 . S
C2882 H2869 0.930 . S
C2882 C2881 1.376 . S
C2882 C2883 1.388 . S
C2883 H2870 0.930 . S
C2883 C2882 1.388 . S
C2883 C2884 1.390 . S
C2884 C2883 1.390 . S
C2884 C2885 1.394 . S
C2884 C2890 1.465 1_565 S
C2885 C2880 1.399 . S
C2885 C2884 1.394 . S
C2885 C2886 1.520 1_565 S
C2886 C2885 1.520 1_545 S
C2886 C2887 1.502 . S
C2886 C2888 1.561 . S
C2886 C2889 1.522 . S
C2887 H2871 0.961 . S
C2887 H2872 0.973 . S
C2887 H2873 0.946 1_545 S
C2887 C2886 1.502 . S
C2888 H2874 0.958 1_545 S
C2888 H2875 0.963 . S
C2888 H2876 0.959 . S
C2888 C2886 1.561 . S
C2889 C2886 1.522 . S
C2889 C2890 1.396 . S
C2889 C2894 1.390 . S
C2890 C2884 1.465 1_545 S
C2890 C2889 1.396 . S
C2890 C2891 1.399 . S
C2891 H2877 0.929 . S
C2891 C2890 1.399 . S
C2891 C2892 1.385 . S
C2892 H2878 0.931 . S
C2892 C2891 1.385 . S
C2892 C2893 1.389 . S
C2893 C2892 1.389 . S
C2893 C2894 1.387 . S
C2894 H2879 0.930 . S
C2894 C2889 1.390 . S
C2894 C2893 1.387 . S
H2895 C2907 0.930 . S
H2896 C2909 0.930 . S
H2897 C2910 0.930 . S
H2898 C2914 0.962 . S
H2899 C2914 0.981 . S
H2900 C2914 0.937 1_655 S
H2901 C2915 0.962 1_655 S
H2902 C2915 0.959 . S
H2903 C2915 0.959 . S
H2904 C2918 0.929 . S
H2905 C2919 0.931 . S
H2906 C2921 0.930 . S
C2907 H2895 0.930 . S
C2907 C2908 1.399 . S
C2907 C2912 1.399 . S
C2908 C2907 1.399 . S
C2908 C2909 1.376 . S
C2909 H2896 0.930 . S
C2909 C2908 1.376 . S
C2909 C2910 1.388 . S
C2910 H2897 0.930 . S
C2910 C2909 1.388 . S
C2910 C2911 1.390 . S
C2911 C2910 1.390 . S
C2911 C2912 1.394 . S
C2911 C2917 1.465 1_655 S
C2912 C2907 1.399 . S
C2912 C2911 1.394 . S
C2912 C2913 1.518 1_655 S
C2913 C2912 1.518 1_455 S
C2913 C2914 1.501 . S
C2913 C2915 1.561 . S
C2913 C2916 1.524 . S
C2914 H2898 0.962 . S
C2914 H2899 0.981 . S
C2914 H2900 0.937 1_455 S
C2914 C2913 1.501 . S
C2915 H2901 0.962 1_455 S
C2915 H2902 0.959 . S
C2915 H2903 0.959 . S
C2915 C2913 1.561 . S
C2916 C2913 1.524 . S
C2916 C2917 1.396 . S
C2916 C2921 1.390 . S
C2917 C2911 1.465 1_455 S
C2917 C2916 1.396 . S
C2917 C2918 1.399 . S
C2918 H2904 0.929 . S
C2918 C2917 1.399 . S
C2918 C2919 1.385 . S
C2919 H2905 0.931 . S
C2919 C2918 1.385 . S
C2919 C2920 1.389 . S
C2920 C2919 1.389 . S
C2920 C2921 1.387 . S
C2921 H2906 0.930 . S
C2921 C2916 1.390 . S
C2921 C2920 1.387 . S
H2922 C2934 0.930 . S
H2923 C2936 0.930 . S
H2924 C2937 0.930 . S
H2925 C2941 0.961 . S
H2926 C2941 0.974 . S
H2927 C2941 0.945 1_565 S
H2928 C2942 0.956 1_565 S
H2929 C2942 0.964 . S
H2930 C2942 0.959 . S
H2931 C2945 0.929 . S
H2932 C2946 0.931 . S
H2933 C2948 0.930 . S
C2934 H2922 0.930 . S
C2934 C2935 1.399 . S
C2934 C2939 1.399 . S
C2935 C2934 1.399 . S
C2935 C2936 1.376 . S
C2936 H2923 0.930 . S
C2936 C2935 1.376 . S
C2936 C2937 1.388 . S
C2937 H2924 0.930 . S
C2937 C2936 1.388 . S
C2937 C2938 1.390 . S
C2938 C2937 1.390 . S
C2938 C2939 1.394 . S
C2938 C2944 1.465 1_565 S
C2939 C2934 1.399 . S
C2939 C2938 1.394 . S
C2939 C2940 1.519 1_565 S
C2940 C2939 1.519 1_545 S
C2940 C2941 1.502 . S
C2940 C2942 1.561 . S
C2940 C2943 1.523 . S
C2941 H2925 0.961 . S
C2941 H2926 0.974 . S
C2941 H2927 0.945 1_545 S
C2941 C2940 1.502 . S
C2942 H2928 0.956 1_545 S
C2942 H2929 0.964 . S
C2942 H2930 0.959 . S
C2942 C2940 1.561 . S
C2943 C2940 1.523 . S
C2943 C2944 1.396 . S
C2943 C2948 1.390 . S
C2944 C2938 1.465 1_545 S
C2944 C2943 1.396 . S
C2944 C2945 1.399 . S
C2945 H2931 0.929 . S
C2945 C2944 1.399 . S
C2945 C2946 1.385 . S
C2946 H2932 0.931 . S
C2946 C2945 1.385 . S
C2946 C2947 1.389 . S
C2947 C2946 1.389 . S
C2947 C2948 1.387 . S
C2948 H2933 0.930 . S
C2948 C2943 1.390 . S
C2948 C2947 1.387 . S
H2949 C2961 0.930 . S
H2950 C2963 0.930 . S
H2951 C2964 0.930 . S
H2952 C2968 0.962 . S
H2953 C2968 0.977 . S
H2954 C2968 0.942 1_655 S
H2955 C2969 0.966 1_655 S
H2956 C2969 0.956 . S
H2957 C2969 0.956 . S
H2958 C2972 0.929 . S
H2959 C2973 0.931 . S
H2960 C2975 0.930 . S
C2961 H2949 0.930 . S
C2961 C2962 1.399 . S
C2961 C2966 1.399 . S
C2962 C2961 1.399 . S
C2962 C2963 1.376 . S
C2963 H2950 0.930 . S
C2963 C2962 1.376 . S
C2963 C2964 1.388 . S
C2964 H2951 0.930 . S
C2964 C2963 1.388 . S
C2964 C2965 1.390 . S
C2965 C2964 1.390 . S
C2965 C2966 1.394 . S
C2965 C2971 1.465 1_655 S
C2966 C2961 1.399 . S
C2966 C2965 1.394 . S
C2966 C2967 1.521 1_655 S
C2967 C2966 1.521 1_455 S
C2967 C2968 1.501 . S
C2967 C2969 1.561 . S
C2967 C2970 1.521 . S
C2968 H2952 0.962 . S
C2968 H2953 0.977 . S
C2968 H2954 0.942 1_455 S
C2968 C2967 1.501 . S
C2969 H2955 0.966 1_455 S
C2969 H2956 0.956 . S
C2969 H2957 0.956 . S
C2969 C2967 1.561 . S
C2970 C2967 1.521 . S
C2970 C2971 1.396 . S
C2970 C2975 1.390 . S
C2971 C2965 1.465 1_455 S
C2971 C2970 1.396 . S
C2971 C2972 1.399 . S
C2972 H2958 0.929 . S
C2972 C2971 1.399 . S
C2972 C2973 1.385 . S
C2973 H2959 0.931 . S
C2973 C2972 1.385 . S
C2973 C2974 1.389 . S
C2974 C2973 1.389 . S
C2974 C2975 1.387 . S
C2975 H2960 0.930 . S
C2975 C2970 1.390 . S
C2975 C2974 1.387 . S
H2976 C2988 0.930 . S
H2977 C2990 0.930 . S
H2978 C2991 0.930 . S
H2979 C2995 0.962 . S
H2980 C2995 0.983 . S
H2981 C2995 0.936 1_556 S
H2982 C2996 0.953 1_556 S
H2983 C2996 0.968 . S
H2984 C2996 0.960 . S
H2985 C2999 0.929 . S
H2986 C3000 0.931 . S
H2987 C3002 0.930 . S
C2988 H2976 0.930 . S
C2988 C2989 1.399 . S
C2988 C2993 1.399 . S
C2989 C2988 1.399 . S
C2989 C2990 1.376 . S
C2990 H2977 0.930 . S
C2990 C2989 1.376 . S
C2990 C2991 1.388 . S
C2991 H2978 0.930 . S
C2991 C2990 1.388 . S
C2991 C2992 1.390 . S
C2992 C2991 1.390 . S
C2992 C2993 1.394 . S
C2992 C2998 1.465 1_556 S
C2993 C2988 1.399 . S
C2993 C2992 1.394 . S
C2993 C2994 1.515 1_556 S
C2994 C2993 1.515 1_554 S
C2994 C2995 1.501 . S
C2994 C2996 1.561 . S
C2994 C2997 1.527 . S
C2995 H2979 0.962 . S
C2995 H2980 0.983 . S
C2995 H2981 0.936 1_554 S
C2995 C2994 1.501 . S
C2996 H2982 0.953 1_554 S
C2996 H2983 0.968 . S
C2996 H2984 0.960 . S
C2996 C2994 1.561 . S
C2997 C2994 1.527 . S
C2997 C2998 1.396 . S
C2997 C3002 1.390 . S
C2998 C2992 1.465 1_554 S
C2998 C2997 1.396 . S
C2998 C2999 1.399 . S
C2999 H2985 0.929 . S
C2999 C2998 1.399 . S
C2999 C3000 1.385 . S
C3000 H2986 0.931 . S
C3000 C2999 1.385 . S
C3000 C3001 1.389 . S
C3001 C3000 1.389 . S
C3001 C3002 1.387 . S
C3002 H2987 0.930 . S
C3002 C2997 1.390 . S
C3002 C3001 1.387 . S
H3003 C3015 0.930 . S
H3004 C3017 0.930 . S
H3005 C3018 0.930 . S
H3006 C3022 0.961 . S
H3007 C3022 0.974 . S
H3008 C3022 0.944 1_556 S
H3009 C3023 0.956 1_556 S
H3010 C3023 0.965 . S
H3011 C3023 0.959 . S
H3012 C3026 0.929 . S
H3013 C3027 0.931 . S
H3014 C3029 0.930 . S
C3015 H3003 0.930 . S
C3015 C3016 1.399 . S
C3015 C3020 1.399 . S
C3016 C3015 1.399 . S
C3016 C3017 1.376 . S
C3017 H3004 0.930 . S
C3017 C3016 1.376 . S
C3017 C3018 1.388 . S
C3018 H3005 0.930 . S
C3018 C3017 1.388 . S
C3018 C3019 1.390 . S
C3019 C3018 1.390 . S
C3019 C3020 1.394 . S
C3019 C3025 1.465 1_556 S
C3020 C3015 1.399 . S
C3020 C3019 1.394 . S
C3020 C3021 1.519 1_556 S
C3021 C3020 1.519 1_554 S
C3021 C3022 1.502 . S
C3021 C3023 1.561 . S
C3021 C3024 1.523 . S
C3022 H3006 0.961 . S
C3022 H3007 0.974 . S
C3022 H3008 0.944 1_554 S
C3022 C3021 1.502 . S
C3023 H3009 0.956 1_554 S
C3023 H3010 0.965 . S
C3023 H3011 0.959 . S
C3023 C3021 1.561 . S
C3024 C3021 1.523 . S
C3024 C3025 1.396 . S
C3024 C3029 1.390 . S
C3025 C3019 1.465 1_554 S
C3025 C3024 1.396 . S
C3025 C3026 1.399 . S
C3026 H3012 0.929 . S
C3026 C3025 1.399 . S
C3026 C3027 1.385 . S
C3027 H3013 0.931 . S
C3027 C3026 1.385 . S
C3027 C3028 1.389 . S
C3028 C3027 1.389 . S
C3028 C3029 1.387 . S
C3029 H3014 0.930 . S
C3029 C3024 1.390 . S
C3029 C3028 1.387 . S
H3030 C3042 0.930 . S
H3031 C3044 0.930 . S
H3032 C3045 0.930 . S
H3033 C3049 0.961 . S
H3034 C3049 0.972 . S
H3035 C3049 0.947 1_556 S
H3036 C3050 0.967 1_556 S
H3037 C3050 0.954 . S
H3038 C3050 0.955 . S
H3039 C3053 0.929 . S
H3040 C3054 0.931 . S
H3041 C3056 0.930 . S
C3042 H3030 0.930 . S
C3042 C3043 1.399 . S
C3042 C3047 1.399 . S
C3043 C3042 1.399 . S
C3043 C3044 1.376 . S
C3044 H3031 0.930 . S
C3044 C3043 1.376 . S
C3044 C3045 1.388 . S
C3045 H3032 0.930 . S
C3045 C3044 1.388 . S
C3045 C3046 1.390 . S
C3046 C3045 1.390 . S
C3046 C3047 1.394 . S
C3046 C3052 1.465 1_556 S
C3047 C3042 1.399 . S
C3047 C3046 1.394 . S
C3047 C3048 1.510 . S
C3048 C3047 1.510 . S
C3048 C3049 1.502 1_556 S
C3048 C3050 1.561 1_556 S
C3048 C3051 1.532 1_556 S
C3049 H3033 0.961 . S
C3049 H3034 0.972 . S
C3049 H3035 0.947 1_554 S
C3049 C3048 1.502 1_554 S
C3050 H3036 0.967 1_554 S
C3050 H3037 0.954 . S
C3050 H3038 0.955 . S
C3050 C3048 1.561 1_554 S
C3051 C3048 1.532 1_554 S
C3051 C3052 1.396 . S
C3051 C3056 1.390 . S
C3052 C3046 1.465 1_554 S
C3052 C3051 1.396 . S
C3052 C3053 1.399 . S
C3053 H3039 0.929 . S
C3053 C3052 1.399 . S
C3053 C3054 1.385 . S
C3054 H3040 0.931 . S
C3054 C3053 1.385 . S
C3054 C3055 1.389 . S
C3055 C3054 1.389 . S
C3055 C3056 1.387 . S
C3056 H3041 0.930 . S
C3056 C3051 1.390 . S
C3056 C3055 1.387 . S
H3057 C3069 0.930 . S
H3058 C3071 0.930 . S
H3059 C3072 0.930 . S
H3060 C3076 0.962 . S
H3061 C3076 0.981 . S
H3062 C3076 0.937 1_556 S
H3063 C3077 0.962 1_556 S
H3064 C3077 0.959 . S
H3065 C3077 0.959 . S
H3066 C3080 0.929 . S
H3067 C3081 0.931 . S
H3068 C3083 0.930 . S
C3069 H3057 0.930 . S
C3069 C3070 1.399 . S
C3069 C3074 1.399 . S
C3070 C3069 1.399 . S
C3070 C3071 1.376 . S
C3071 H3058 0.930 . S
C3071 C3070 1.376 . S
C3071 C3072 1.388 . S
C3072 H3059 0.930 . S
C3072 C3071 1.388 . S
C3072 C3073 1.390 . S
C3073 C3072 1.390 . S
C3073 C3074 1.394 . S
C3073 C3079 1.465 1_556 S
C3074 C3069 1.399 . S
C3074 C3073 1.394 . S
C3074 C3075 1.518 1_556 S
C3075 C3074 1.518 1_554 S
C3075 C3076 1.501 . S
C3075 C3077 1.561 . S
C3075 C3078 1.524 . S
C3076 H3060 0.962 . S
C3076 H3061 0.981 . S
C3076 H3062 0.937 1_554 S
C3076 C3075 1.501 . S
C3077 H3063 0.962 1_554 S
C3077 H3064 0.959 . S
C3077 H3065 0.959 . S
C3077 C3075 1.561 . S
C3078 C3075 1.524 . S
C3078 C3079 1.396 . S
C3078 C3083 1.390 . S
C3079 C3073 1.465 1_554 S
C3079 C3078 1.396 . S
C3079 C3080 1.399 . S
C3080 H3066 0.929 . S
C3080 C3079 1.399 . S
C3080 C3081 1.385 . S
C3081 H3067 0.931 . S
C3081 C3080 1.385 . S
C3081 C3082 1.389 . S
C3082 C3081 1.389 . S
C3082 C3083 1.387 . S
C3083 H3068 0.930 . S
C3083 C3078 1.390 . S
C3083 C3082 1.387 . S
H3084 C3096 0.930 . S
H3085 C3098 0.930 . S
H3086 C3099 0.930 . S
H3087 C3103 0.959 . S
H3088 C3103 0.959 . S
H3089 C3103 0.961 . S
H3090 C3104 0.960 . S
H3091 C3104 0.961 . S
H3092 C3104 0.959 . S
H3093 C3107 0.929 . S
H3094 C3108 0.931 . S
H3095 C3110 0.930 . S
C3096 H3084 0.930 . S
C3096 C3097 1.399 . S
C3096 C3101 1.399 . S
C3097 C3096 1.399 . S
C3097 C3098 1.376 . S
C3098 H3085 0.930 . S
C3098 C3097 1.376 . S
C3098 C3099 1.388 . S
C3099 H3086 0.930 . S
C3099 C3098 1.388 . S
C3099 C3100 1.390 . S
C3100 C3099 1.390 . S
C3100 C3101 1.394 . S
C3100 C3106 1.465 . S
C3101 C3096 1.399 . S
C3101 C3100 1.394 . S
C3101 C3102 1.516 . S
C3102 C3101 1.516 . S
C3102 C3103 1.502 . S
C3102 C3104 1.561 . S
C3102 C3105 1.526 . S
C3103 H3087 0.959 . S
C3103 H3088 0.959 . S
C3103 H3089 0.961 . S
C3103 C3102 1.502 . S
C3104 H3090 0.960 . S
C3104 H3091 0.961 . S
C3104 H3092 0.959 . S
C3104 C3102 1.561 . S
C3105 C3102 1.526 . S
C3105 C3106 1.396 . S
C3105 C3110 1.390 . S
C3106 C3100 1.465 . S
C3106 C3105 1.396 . S
C3106 C3107 1.399 . S
C3107 H3093 0.929 . S
C3107 C3106 1.399 . S
C3107 C3108 1.385 . S
C3108 H3094 0.931 . S
C3108 C3107 1.385 . S
C3108 C3109 1.389 . S
C3109 C3108 1.389 . S
C3109 C3110 1.387 . S
C3110 H3095 0.930 . S
C3110 C3105 1.390 . S
C3110 C3109 1.387 . S
H3111 C3123 0.930 . S
H3112 C3125 0.930 . S
H3113 C3126 0.930 . S
H3114 C3130 0.959 . S
H3115 C3130 0.959 . S
H3116 C3130 0.961 . S
H3117 C3131 0.960 . S
H3118 C3131 0.961 . S
H3119 C3131 0.959 . S
H3120 C3134 0.929 . S
H3121 C3135 0.931 . S
H3122 C3137 0.930 . S
C3123 H3111 0.930 . S
C3123 C3124 1.399 . S
C3123 C3128 1.399 . S
C3124 C3123 1.399 . S
C3124 C3125 1.376 . S
C3125 H3112 0.930 . S
C3125 C3124 1.376 . S
C3125 C3126 1.388 . S
C3126 H3113 0.930 . S
C3126 C3125 1.388 . S
C3126 C3127 1.390 . S
C3127 C3126 1.390 . S
C3127 C3128 1.394 . S
C3127 C3133 1.465 . S
C3128 C3123 1.399 . S
C3128 C3127 1.394 . S
C3128 C3129 1.516 . S
C3129 C3128 1.516 . S
C3129 C3130 1.502 . S
C3129 C3131 1.561 . S
C3129 C3132 1.526 . S
C3130 H3114 0.959 . S
C3130 H3115 0.959 . S
C3130 H3116 0.961 . S
C3130 C3129 1.502 . S
C3131 H3117 0.960 . S
C3131 H3118 0.961 . S
C3131 H3119 0.959 . S
C3131 C3129 1.561 . S
C3132 C3129 1.526 . S
C3132 C3133 1.396 . S
C3132 C3137 1.390 . S
C3133 C3127 1.465 . S
C3133 C3132 1.396 . S
C3133 C3134 1.399 . S
C3134 H3120 0.929 . S
C3134 C3133 1.399 . S
C3134 C3135 1.385 . S
C3135 H3121 0.931 . S
C3135 C3134 1.385 . S
C3135 C3136 1.389 . S
C3136 C3135 1.389 . S
C3136 C3137 1.387 . S
C3137 H3122 0.930 . S
C3137 C3132 1.390 . S
C3137 C3136 1.387 . S
H3138 C3150 0.930 . S
H3139 C3152 0.930 . S
H3140 C3153 0.930 . S
H3141 C3157 0.959 . S
H3142 C3157 0.959 . S
H3143 C3157 0.961 . S
H3144 C3158 0.960 . S
H3145 C3158 0.961 . S
H3146 C3158 0.959 . S
H3147 C3161 0.929 . S
H3148 C3162 0.931 . S
H3149 C3164 0.930 . S
C3150 H3138 0.930 . S
C3150 C3151 1.399 . S
C3150 C3155 1.399 . S
C3151 C3150 1.399 . S
C3151 C3152 1.376 . S
C3152 H3139 0.930 . S
C3152 C3151 1.376 . S
C3152 C3153 1.388 . S
C3153 H3140 0.930 . S
C3153 C3152 1.388 . S
C3153 C3154 1.390 . S
C3154 C3153 1.390 . S
C3154 C3155 1.394 . S
C3154 C3160 1.465 . S
C3155 C3150 1.399 . S
C3155 C3154 1.394 . S
C3155 C3156 1.516 . S
C3156 C3155 1.516 . S
C3156 C3157 1.502 . S
C3156 C3158 1.561 . S
C3156 C3159 1.526 . S
C3157 H3141 0.959 . S
C3157 H3142 0.959 . S
C3157 H3143 0.961 . S
C3157 C3156 1.502 . S
C3158 H3144 0.960 . S
C3158 H3145 0.961 . S
C3158 H3146 0.959 . S
C3158 C3156 1.561 . S
C3159 C3156 1.526 . S
C3159 C3160 1.396 . S
C3159 C3164 1.390 . S
C3160 C3154 1.465 . S
C3160 C3159 1.396 . S
C3160 C3161 1.399 . S
C3161 H3147 0.929 . S
C3161 C3160 1.399 . S
C3161 C3162 1.385 . S
C3162 H3148 0.931 . S
C3162 C3161 1.385 . S
C3162 C3163 1.389 . S
C3163 C3162 1.389 . S
C3163 C3164 1.387 . S
C3164 H3149 0.930 . S
C3164 C3159 1.390 . S
C3164 C3163 1.387 . S
H3165 C3177 0.930 . S
H3166 C3179 0.930 . S
H3167 C3180 0.930 . S
H3168 C3184 0.959 . S
H3169 C3184 0.959 . S
H3170 C3184 0.961 . S
H3171 C3185 0.960 . S
H3172 C3185 0.961 . S
H3173 C3185 0.959 . S
H3174 C3188 0.929 . S
H3175 C3189 0.931 . S
H3176 C3191 0.930 . S
C3177 H3165 0.930 . S
C3177 C3178 1.399 . S
C3177 C3182 1.399 . S
C3178 C3177 1.399 . S
C3178 C3179 1.376 . S
C3179 H3166 0.930 . S
C3179 C3178 1.376 . S
C3179 C3180 1.388 . S
C3180 H3167 0.930 . S
C3180 C3179 1.388 . S
C3180 C3181 1.390 . S
C3181 C3180 1.390 . S
C3181 C3182 1.394 . S
C3181 C3187 1.465 . S
C3182 C3177 1.399 . S
C3182 C3181 1.394 . S
C3182 C3183 1.516 . S
C3183 C3182 1.516 . S
C3183 C3184 1.502 . S
C3183 C3185 1.561 . S
C3183 C3186 1.526 . S
C3184 H3168 0.959 . S
C3184 H3169 0.959 . S
C3184 H3170 0.961 . S
C3184 C3183 1.502 . S
C3185 H3171 0.960 . S
C3185 H3172 0.961 . S
C3185 H3173 0.959 . S
C3185 C3183 1.561 . S
C3186 C3183 1.526 . S
C3186 C3187 1.396 . S
C3186 C3191 1.390 . S
C3187 C3181 1.465 . S
C3187 C3186 1.396 . S
C3187 C3188 1.399 . S
C3188 H3174 0.929 . S
C3188 C3187 1.399 . S
C3188 C3189 1.385 . S
C3189 H3175 0.931 . S
C3189 C3188 1.385 . S
C3189 C3190 1.389 . S
C3190 C3189 1.389 . S
C3190 C3191 1.387 . S
C3191 H3176 0.930 . S
C3191 C3186 1.390 . S
C3191 C3190 1.387 . S
H3192 C3204 0.930 . S
H3193 C3206 0.930 . S
H3194 C3207 0.930 . S
H3195 C3211 0.959 . S
H3196 C3211 0.959 . S
H3197 C3211 0.961 . S
H3198 C3212 0.960 . S
H3199 C3212 0.961 . S
H3200 C3212 0.959 . S
H3201 C3215 0.929 . S
H3202 C3216 0.931 . S
H3203 C3218 0.930 . S
C3204 H3192 0.930 . S
C3204 C3205 1.399 . S
C3204 C3209 1.399 . S
C3205 C3204 1.399 . S
C3205 C3206 1.376 . S
C3206 H3193 0.930 . S
C3206 C3205 1.376 . S
C3206 C3207 1.388 . S
C3207 H3194 0.930 . S
C3207 C3206 1.388 . S
C3207 C3208 1.390 . S
C3208 C3207 1.390 . S
C3208 C3209 1.394 . S
C3208 C3214 1.465 . S
C3209 C3204 1.399 . S
C3209 C3208 1.394 . S
C3209 C3210 1.516 . S
C3210 C3209 1.516 . S
C3210 C3211 1.502 . S
C3210 C3212 1.561 . S
C3210 C3213 1.526 . S
C3211 H3195 0.959 . S
C3211 H3196 0.959 . S
C3211 H3197 0.961 . S
C3211 C3210 1.502 . S
C3212 H3198 0.960 . S
C3212 H3199 0.961 . S
C3212 H3200 0.959 . S
C3212 C3210 1.561 . S
C3213 C3210 1.526 . S
C3213 C3214 1.396 . S
C3213 C3218 1.390 . S
C3214 C3208 1.465 . S
C3214 C3213 1.396 . S
C3214 C3215 1.399 . S
C3215 H3201 0.929 . S
C3215 C3214 1.399 . S
C3215 C3216 1.385 . S
C3216 H3202 0.931 . S
C3216 C3215 1.385 . S
C3216 C3217 1.389 . S
C3217 C3216 1.389 . S
C3217 C3218 1.387 . S
C3218 H3203 0.930 . S
C3218 C3213 1.390 . S
C3218 C3217 1.387 . S
H3219 C3231 0.930 . S
H3220 C3233 0.930 . S
H3221 C3234 0.930 . S
H3222 C3238 0.959 . S
H3223 C3238 0.959 . S
H3224 C3238 0.961 . S
H3225 C3239 0.960 . S
H3226 C3239 0.961 . S
H3227 C3239 0.959 . S
H3228 C3242 0.929 . S
H3229 C3243 0.931 . S
H3230 C3245 0.930 . S
C3231 H3219 0.930 . S
C3231 C3232 1.399 . S
C3231 C3236 1.399 . S
C3232 C3231 1.399 . S
C3232 C3233 1.376 . S
C3233 H3220 0.930 . S
C3233 C3232 1.376 . S
C3233 C3234 1.388 . S
C3234 H3221 0.930 . S
C3234 C3233 1.388 . S
C3234 C3235 1.390 . S
C3235 C3234 1.390 . S
C3235 C3236 1.394 . S
C3235 C3241 1.465 . S
C3236 C3231 1.399 . S
C3236 C3235 1.394 . S
C3236 C3237 1.516 . S
C3237 C3236 1.516 . S
C3237 C3238 1.502 . S
C3237 C3239 1.561 . S
C3237 C3240 1.526 . S
C3238 H3222 0.959 . S
C3238 H3223 0.959 . S
C3238 H3224 0.961 . S
C3238 C3237 1.502 . S
C3239 H3225 0.960 . S
C3239 H3226 0.961 . S
C3239 H3227 0.959 . S
C3239 C3237 1.561 . S
C3240 C3237 1.526 . S
C3240 C3241 1.396 . S
C3240 C3245 1.390 . S
C3241 C3235 1.465 . S
C3241 C3240 1.396 . S
C3241 C3242 1.399 . S
C3242 H3228 0.929 . S
C3242 C3241 1.399 . S
C3242 C3243 1.385 . S
C3243 H3229 0.931 . S
C3243 C3242 1.385 . S
C3243 C3244 1.389 . S
C3244 C3243 1.389 . S
C3244 C3245 1.387 . S
C3245 H3230 0.930 . S
C3245 C3240 1.390 . S
C3245 C3244 1.387 . S
H3246 C3258 0.930 . S
H3247 C3260 0.930 . S
H3248 C3261 0.930 . S
H3249 C3265 0.959 . S
H3250 C3265 0.959 . S
H3251 C3265 0.961 . S
H3252 C3266 0.960 . S
H3253 C3266 0.961 . S
H3254 C3266 0.959 . S
H3255 C3269 0.929 . S
H3256 C3270 0.931 . S
H3257 C3272 0.930 . S
C3258 H3246 0.930 . S
C3258 C3259 1.399 . S
C3258 C3263 1.399 . S
C3259 C3258 1.399 . S
C3259 C3260 1.376 . S
C3260 H3247 0.930 . S
C3260 C3259 1.376 . S
C3260 C3261 1.388 . S
C3261 H3248 0.930 . S
C3261 C3260 1.388 . S
C3261 C3262 1.390 . S
C3262 C3261 1.390 . S
C3262 C3263 1.394 . S
C3262 C3268 1.465 . S
C3263 C3258 1.399 . S
C3263 C3262 1.394 . S
C3263 C3264 1.516 . S
C3264 C3263 1.516 . S
C3264 C3265 1.502 . S
C3264 C3266 1.561 . S
C3264 C3267 1.526 . S
C3265 H3249 0.959 . S
C3265 H3250 0.959 . S
C3265 H3251 0.961 . S
C3265 C3264 1.502 . S
C3266 H3252 0.960 . S
C3266 H3253 0.961 . S
C3266 H3254 0.959 . S
C3266 C3264 1.561 . S
C3267 C3264 1.526 . S
C3267 C3268 1.396 . S
C3267 C3272 1.390 . S
C3268 C3262 1.465 . S
C3268 C3267 1.396 . S
C3268 C3269 1.399 . S
C3269 H3255 0.929 . S
C3269 C3268 1.399 . S
C3269 C3270 1.385 . S
C3270 H3256 0.931 . S
C3270 C3269 1.385 . S
C3270 C3271 1.389 . S
C3271 C3270 1.389 . S
C3271 C3272 1.387 . S
C3272 H3257 0.930 . S
C3272 C3267 1.390 . S
C3272 C3271 1.387 . S
H3273 C3285 0.930 . S
H3274 C3287 0.930 . S
H3275 C3288 0.930 . S
H3276 C3292 0.959 . S
H3277 C3292 0.959 . S
H3278 C3292 0.961 . S
H3279 C3293 0.960 . S
H3280 C3293 0.961 . S
H3281 C3293 0.959 . S
H3282 C3296 0.929 . S
H3283 C3297 0.931 . S
H3284 C3299 0.930 . S
C3285 H3273 0.930 . S
C3285 C3286 1.399 . S
C3285 C3290 1.399 . S
C3286 C3285 1.399 . S
C3286 C3287 1.376 . S
C3287 H3274 0.930 . S
C3287 C3286 1.376 . S
C3287 C3288 1.388 . S
C3288 H3275 0.930 . S
C3288 C3287 1.388 . S
C3288 C3289 1.390 . S
C3289 C3288 1.390 . S
C3289 C3290 1.394 . S
C3289 C3295 1.465 . S
C3290 C3285 1.399 . S
C3290 C3289 1.394 . S
C3290 C3291 1.516 . S
C3291 C3290 1.516 . S
C3291 C3292 1.502 . S
C3291 C3293 1.561 . S
C3291 C3294 1.526 . S
C3292 H3276 0.959 . S
C3292 H3277 0.959 . S
C3292 H3278 0.961 . S
C3292 C3291 1.502 . S
C3293 H3279 0.960 . S
C3293 H3280 0.961 . S
C3293 H3281 0.959 . S
C3293 C3291 1.561 . S
C3294 C3291 1.526 . S
C3294 C3295 1.396 . S
C3294 C3299 1.390 . S
C3295 C3289 1.465 . S
C3295 C3294 1.396 . S
C3295 C3296 1.399 . S
C3296 H3282 0.929 . S
C3296 C3295 1.399 . S
C3296 C3297 1.385 . S
C3297 H3283 0.931 . S
C3297 C3296 1.385 . S
C3297 C3298 1.389 . S
C3298 C3297 1.389 . S
C3298 C3299 1.387 . S
C3299 H3284 0.930 . S
C3299 C3294 1.390 . S
C3299 C3298 1.387 . S
H3300 C3312 0.930 . S
H3301 C3314 0.930 . S
H3302 C3315 0.930 . S
H3303 C3319 0.959 . S
H3304 C3319 0.959 . S
H3305 C3319 0.961 . S
H3306 C3320 0.960 . S
H3307 C3320 0.961 . S
H3308 C3320 0.959 . S
H3309 C3323 0.929 . S
H3310 C3324 0.931 . S
H3311 C3326 0.930 . S
C3312 H3300 0.930 . S
C3312 C3313 1.399 . S
C3312 C3317 1.399 . S
C3313 C3312 1.399 . S
C3313 C3314 1.376 . S
C3314 H3301 0.930 . S
C3314 C3313 1.376 . S
C3314 C3315 1.388 . S
C3315 H3302 0.930 . S
C3315 C3314 1.388 . S
C3315 C3316 1.390 . S
C3316 C3315 1.390 . S
C3316 C3317 1.394 . S
C3316 C3322 1.465 . S
C3317 C3312 1.399 . S
C3317 C3316 1.394 . S
C3317 C3318 1.516 . S
C3318 C3317 1.516 . S
C3318 C3319 1.502 . S
C3318 C3320 1.561 . S
C3318 C3321 1.526 . S
C3319 H3303 0.959 . S
C3319 H3304 0.959 . S
C3319 H3305 0.961 . S
C3319 C3318 1.502 . S
C3320 H3306 0.960 . S
C3320 H3307 0.961 . S
C3320 H3308 0.959 . S
C3320 C3318 1.561 . S
C3321 C3318 1.526 . S
C3321 C3322 1.396 . S
C3321 C3326 1.390 . S
C3322 C3316 1.465 . S
C3322 C3321 1.396 . S
C3322 C3323 1.399 . S
C3323 H3309 0.929 . S
C3323 C3322 1.399 . S
C3323 C3324 1.385 . S
C3324 H3310 0.931 . S
C3324 C3323 1.385 . S
C3324 C3325 1.389 . S
C3325 C3324 1.389 . S
C3325 C3326 1.387 . S
C3326 H3311 0.930 . S
C3326 C3321 1.390 . S
C3326 C3325 1.387 . S
H3327 C3339 0.930 . S
H3328 C3341 0.930 . S
H3329 C3342 0.930 . S
H3330 C3346 0.959 . S
H3331 C3346 0.959 . S
H3332 C3346 0.961 . S
H3333 C3347 0.960 . S
H3334 C3347 0.961 . S
H3335 C3347 0.959 . S
H3336 C3350 0.929 . S
H3337 C3351 0.931 . S
H3338 C3353 0.930 . S
C3339 H3327 0.930 . S
C3339 C3340 1.399 . S
C3339 C3344 1.399 . S
C3340 C3339 1.399 . S
C3340 C3341 1.376 . S
C3341 H3328 0.930 . S
C3341 C3340 1.376 . S
C3341 C3342 1.388 . S
C3342 H3329 0.930 . S
C3342 C3341 1.388 . S
C3342 C3343 1.390 . S
C3343 C3342 1.390 . S
C3343 C3344 1.394 . S
C3343 C3349 1.465 . S
C3344 C3339 1.399 . S
C3344 C3343 1.394 . S
C3344 C3345 1.516 . S
C3345 C3344 1.516 . S
C3345 C3346 1.502 . S
C3345 C3347 1.561 . S
C3345 C3348 1.526 . S
C3346 H3330 0.959 . S
C3346 H3331 0.959 . S
C3346 H3332 0.961 . S
C3346 C3345 1.502 . S
C3347 H3333 0.960 . S
C3347 H3334 0.961 . S
C3347 H3335 0.959 . S
C3347 C3345 1.561 . S
C3348 C3345 1.526 . S
C3348 C3349 1.396 . S
C3348 C3353 1.390 . S
C3349 C3343 1.465 . S
C3349 C3348 1.396 . S
C3349 C3350 1.399 . S
C3350 H3336 0.929 . S
C3350 C3349 1.399 . S
C3350 C3351 1.385 . S
C3351 H3337 0.931 . S
C3351 C3350 1.385 . S
C3351 C3352 1.389 . S
C3352 C3351 1.389 . S
C3352 C3353 1.387 . S
C3353 H3338 0.930 . S
C3353 C3348 1.390 . S
C3353 C3352 1.387 . S
H3354 C3366 0.930 . S
H3355 C3368 0.930 . S
H3356 C3369 0.930 . S
H3357 C3373 0.959 . S
H3358 C3373 0.959 . S
H3359 C3373 0.961 . S
H3360 C3374 0.960 . S
H3361 C3374 0.961 . S
H3362 C3374 0.959 . S
H3363 C3377 0.929 . S
H3364 C3378 0.931 . S
H3365 C3380 0.930 . S
C3366 H3354 0.930 . S
C3366 C3367 1.399 . S
C3366 C3371 1.399 . S
C3367 C3366 1.399 . S
C3367 C3368 1.376 . S
C3368 H3355 0.930 . S
C3368 C3367 1.376 . S
C3368 C3369 1.388 . S
C3369 H3356 0.930 . S
C3369 C3368 1.388 . S
C3369 C3370 1.390 . S
C3370 C3369 1.390 . S
C3370 C3371 1.394 . S
C3370 C3376 1.465 . S
C3371 C3366 1.399 . S
C3371 C3370 1.394 . S
C3371 C3372 1.516 . S
C3372 C3371 1.516 . S
C3372 C3373 1.502 . S
C3372 C3374 1.561 . S
C3372 C3375 1.526 . S
C3373 H3357 0.959 . S
C3373 H3358 0.959 . S
C3373 H3359 0.961 . S
C3373 C3372 1.502 . S
C3374 H3360 0.960 . S
C3374 H3361 0.961 . S
C3374 H3362 0.959 . S
C3374 C3372 1.561 . S
C3375 C3372 1.526 . S
C3375 C3376 1.396 . S
C3375 C3380 1.390 . S
C3376 C3370 1.465 . S
C3376 C3375 1.396 . S
C3376 C3377 1.399 . S
C3377 H3363 0.929 . S
C3377 C3376 1.399 . S
C3377 C3378 1.385 . S
C3378 H3364 0.931 . S
C3378 C3377 1.385 . S
C3378 C3379 1.389 . S
C3379 C3378 1.389 . S
C3379 C3380 1.387 . S
C3380 H3365 0.930 . S
C3380 C3375 1.390 . S
C3380 C3379 1.387 . S
H3381 C3393 0.930 . S
H3382 C3395 0.930 . S
H3383 C3396 0.930 . S
H3384 C3400 0.959 . S
H3385 C3400 0.959 . S
H3386 C3400 0.961 . S
H3387 C3401 0.960 . S
H3388 C3401 0.961 . S
H3389 C3401 0.959 . S
H3390 C3404 0.929 . S
H3391 C3405 0.931 . S
H3392 C3407 0.930 . S
C3393 H3381 0.930 . S
C3393 C3394 1.399 . S
C3393 C3398 1.399 . S
C3394 C3393 1.399 . S
C3394 C3395 1.376 . S
C3395 H3382 0.930 . S
C3395 C3394 1.376 . S
C3395 C3396 1.388 . S
C3396 H3383 0.930 . S
C3396 C3395 1.388 . S
C3396 C3397 1.390 . S
C3397 C3396 1.390 . S
C3397 C3398 1.394 . S
C3397 C3403 1.465 . S
C3398 C3393 1.399 . S
C3398 C3397 1.394 . S
C3398 C3399 1.516 . S
C3399 C3398 1.516 . S
C3399 C3400 1.502 . S
C3399 C3401 1.561 . S
C3399 C3402 1.526 . S
C3400 H3384 0.959 . S
C3400 H3385 0.959 . S
C3400 H3386 0.961 . S
C3400 C3399 1.502 . S
C3401 H3387 0.960 . S
C3401 H3388 0.961 . S
C3401 H3389 0.959 . S
C3401 C3399 1.561 . S
C3402 C3399 1.526 . S
C3402 C3403 1.396 . S
C3402 C3407 1.390 . S
C3403 C3397 1.465 . S
C3403 C3402 1.396 . S
C3403 C3404 1.399 . S
C3404 H3390 0.929 . S
C3404 C3403 1.399 . S
C3404 C3405 1.385 . S
C3405 H3391 0.931 . S
C3405 C3404 1.385 . S
C3405 C3406 1.389 . S
C3406 C3405 1.389 . S
C3406 C3407 1.387 . S
C3407 H3392 0.930 . S
C3407 C3402 1.390 . S
C3407 C3406 1.387 . S
C2125 C1017 1.555 . S
C2137 C49 1.556 . S
C2152 C145 1.541 . S
C2164 C733 1.539 . S
C2179 C233 1.523 . S
C2191 C812 1.525 . S
C2206 C313 1.535 . S
C2218 C929 1.542 . S
C2233 C1164 1.557 . S
C2245 C381 1.554 . S
C2260 C460 1.530 . S
C2272 C1261 1.530 . S
C2287 C1369 1.546 . S
C2299 C557 1.549 . S
C2314 C1105 1.559 . S
C2326 C645 1.558 . S
C2341 C489 1.526 . S
C2353 C761 1.526 . S
C2368 C585 1.545 . S
C2380 C841 1.547 . S
C2395 C900 1.519 . S
C2407 C673 1.525 . S
C2422 C409 1.559 . S
C2434 C988 1.557 . S
C2449 C284 1.523 . S
C2461 C1076 1.521 . S
C2476 C1193 1.525 . S
C2488 C20 1.526 . S
C2503 C1289 1.553 . S
C2515 C117 1.557 . S
C2530 C1340 1.551 . S
C2542 C205 1.555 . S
C2557 C1457 1.530 . S
C2569 C2044 1.538 . S
C2584 C1817 1.522 . S
C2596 C1516 1.519 . S
C2611 C1604 1.535 . S
C2623 C1545 1.542 . S
C2638 C1701 1.546 . S
C2650 C1633 1.544 . S
C2665 C1729 1.523 . S
C2677 C1789 1.522 . S
C2692 C1905 1.533 . S
C2704 C1965 1.540 . S
C2719 C1428 1.559 . S
C2731 C1993 1.557 . S
C2746 C1877 1.523 . S
C2758 C2073 1.522 . S
C2773 C57 1.308 . S
C2785 C548 1.312 . S
C2800 C137 1.313 . S
C2812 C636 1.321 . S
C2827 C225 1.314 . S
C2839 C372 1.310 . S
C2854 C469 1.356 . S
C2866 C321 1.354 . S
C2881 C909 1.316 . S
C2893 C753 1.311 . S
C2908 C849 1.350 . S
C2920 C997 1.355 . S
C2935 C1085 1.312 . S
C2947 C1281 1.309 . S
C2962 C1349 1.356 . S
C2974 C1201 1.356 . S
C2989 C1525 1.315 . S
C3001 C1465 1.324 . S
C3016 C1613 1.311 . S
C3028 C2081 1.309 . S
C3043 C1692 1.352 . S
C3055 C1897 1.344 . S
C3070 C1780 1.349 . S
C3082 C1985 1.354 . S
C3097 C29 0.546 . S
C3109 C497 0.554 . S
C3124 C108 0.546 . S
C3136 C577 0.553 . S
C3151 C196 0.543 . S
C3163 C665 0.547 . S
C3178 C401 0.546 . S
C3190 C293 0.555 . S
C3205 C724 0.557 . S
C3217 C2053 0.566 . S
C3232 C821 0.546 . S
C3244 C1868 0.554 . S
C3259 C1956 0.557 . S
C3271 C937 0.548 . S
C3286 C1025 0.565 . S
C3298 C1437 0.556 . S
C3313 C1809 0.552 . S
C3325 C1113 0.544 . S
C3340 C1553 0.570 . S
C3352 C1173 0.563 . S
C3367 C1252 0.555 . S
C3379 C1641 0.565 . S
C3394 C1721 0.546 . S
C3406 C1377 0.555 . S
