# Generated by pormake.
# Topology vby, (6)-cn, num edge types: 1
# Building blocks:
#     Node 0, Type 0, BuildingBlock: KUMJIN_clean_sbu_0, # of connection points: 6
#     Node 1, Type 0, BuildingBlock: KUMJIN_clean_sbu_0, # of connection points: 6
#     Node 2, Type 0, BuildingBlock: KUMJIN_clean_sbu_0, # of connection points: 6
#     Node 3, Type 0, BuildingBlock: KUMJIN_clean_sbu_0, # of connection points: 6
#     Node 4, Type 0, BuildingBlock: KUMJIN_clean_sbu_0, # of connection points: 6
#     Node 5, Type 0, BuildingBlock: KUMJIN_clean_sbu_0, # of connection points: 6
#     Node 6, Type 0, BuildingBlock: KUMJIN_clean_sbu_0, # of connection points: 6
#     Node 7, Type 0, BuildingBlock: KUMJIN_clean_sbu_0, # of connection points: 6
#     Edge 8, Type (0, 0), BuildingBlock: MIFKUJ_clean_linker_0, # of connection points: 2
#     Edge 9, Type (0, 0), BuildingBlock: MIFKUJ_clean_linker_0, # of connection points: 2
#     Edge 10, Type (0, 0), BuildingBlock: MIFKUJ_clean_linker_0, # of connection points: 2
#     Edge 11, Type (0, 0), BuildingBlock: MIFKUJ_clean_linker_0, # of connection points: 2
#     Edge 12, Type (0, 0), BuildingBlock: MIFKUJ_clean_linker_0, # of connection points: 2
#     Edge 13, Type (0, 0), BuildingBlock: MIFKUJ_clean_linker_0, # of connection points: 2
#     Edge 14, Type (0, 0), BuildingBlock: MIFKUJ_clean_linker_0, # of connection points: 2
#     Edge 15, Type (0, 0), BuildingBlock: MIFKUJ_clean_linker_0, # of connection points: 2
#     Edge 16, Type (0, 0), BuildingBlock: MIFKUJ_clean_linker_0, # of connection points: 2
#     Edge 17, Type (0, 0), BuildingBlock: MIFKUJ_clean_linker_0, # of connection points: 2
#     Edge 18, Type (0, 0), BuildingBlock: MIFKUJ_clean_linker_0, # of connection points: 2
#     Edge 19, Type (0, 0), BuildingBlock: MIFKUJ_clean_linker_0, # of connection points: 2
#     Edge 20, Type (0, 0), BuildingBlock: MIFKUJ_clean_linker_0, # of connection points: 2
#     Edge 21, Type (0, 0), BuildingBlock: MIFKUJ_clean_linker_0, # of connection points: 2
#     Edge 22, Type (0, 0), BuildingBlock: MIFKUJ_clean_linker_0, # of connection points: 2
#     Edge 23, Type (0, 0), BuildingBlock: MIFKUJ_clean_linker_0, # of connection points: 2
#     Edge 24, Type (0, 0), BuildingBlock: MIFKUJ_clean_linker_0, # of connection points: 2
#     Edge 25, Type (0, 0), BuildingBlock: MIFKUJ_clean_linker_0, # of connection points: 2
#     Edge 26, Type (0, 0), BuildingBlock: MIFKUJ_clean_linker_0, # of connection points: 2
#     Edge 27, Type (0, 0), BuildingBlock: MIFKUJ_clean_linker_0, # of connection points: 2
#     Edge 28, Type (0, 0), BuildingBlock: MIFKUJ_clean_linker_0, # of connection points: 2
#     Edge 29, Type (0, 0), BuildingBlock: MIFKUJ_clean_linker_0, # of connection points: 2
#     Edge 30, Type (0, 0), BuildingBlock: MIFKUJ_clean_linker_0, # of connection points: 2
#     Edge 31, Type (0, 0), BuildingBlock: MIFKUJ_clean_linker_0, # of connection points: 2
# Relax obj value: 0.108
# Max RMSD: 0.192
# Mean RMSD: 0.192
data_MOF--net-vby--node1-KUMJIN_clean_sbu_0--edge1-MIFKUJ_clean_linker_0
_symmetry_space_group_name_H-M    P1
_symmetry_Int_Tables_number       1
_symmetry_cell_setting            triclinic
loop_
_symmetry_equiv_pos_as_xyz
'x, y, z'
_cell_length_a     19.288032
_cell_length_b     116.3116
_cell_length_c     39.252533
_cell_angle_alpha  115.27317
_cell_angle_beta   90.27144
_cell_angle_gamma 89.714851
loop_
_atom_site_label
_atom_site_type_symbol
_atom_site_fract_x
_atom_site_fract_y
_atom_site_fract_z
_atom_type_partial_charge
Eu0 Eu 0.1037 0.39909 0.02121 0.0
C1 C 0.98889 0.3476 0.91814 0.0
C2 C 0.88079 0.34659 0.94774 0.0
C3 C 0.89267 0.3353 0.87983 0.0
C4 C 0.94881 0.35129 0.95016 0.0
C5 C 0.96208 0.33918 0.88277 0.0
C6 C 0.85228 0.33892 0.91235 0.0
C7 C 0.07797 0.33676 0.85756 0.0
N8 N 0.057 0.35078 0.92248 0.0
C9 C 0.10239 0.34488 0.89337 0.0
C10 C 1.00726 0.33409 0.85205 0.0
Eu11 Eu 0.09543 0.36471 0.98407 0.0
N12 N 0.97938 0.35808 0.98405 0.0
C13 C 0.94686 0.35957 0.01651 0.0
C14 C 0.84538 0.3489 0.98106 0.0
C15 C 0.87929 0.35513 0.01556 0.0
H16 H 0.15723 0.34688 0.89761 0.0
H17 H 0.85328 0.3566 0.04148 0.0
H18 H 0.8003 0.33517 0.91004 0.0
H19 H 0.11376 0.33248 0.83432 0.0
H20 H 0.97229 0.36435 0.04339 0.0
H21 H 0.22276 0.41681 0.92526 0.0
H22 H 0.79314 0.34542 0.98039 0.0
H23 H 0.17421 0.39879 0.10161 0.0
H24 H 0.12853 0.40919 0.95133 0.0
H25 H 0.2815 0.40442 0.13689 0.0
H26 H 0.871 0.32889 0.8529 0.0
H27 H 0.33794 0.42093 0.95557 0.0
H28 H 0.41212 0.42244 0.00918 0.0
H29 H 0.9888 0.32755 0.82449 0.0
H30 H 0.42563 0.42009 0.06784 0.0
N31 N 0.19155 0.40661 0.99274 0.0
C32 C 0.17965 0.40982 0.9633 0.0
C33 C 0.29728 0.41699 0.96632 0.0
C34 C 0.30766 0.41495 -0.00147 0.0
C35 C 0.2326 0.4146 0.949 0.0
C36 C 0.25316 0.40972 0.01147 0.0
H37 H 0.37817 0.41319 0.115 0.0
N38 N 0.20871 0.40313 0.05671 0.0
C39 C 0.27686 0.4054 0.11076 0.0
C40 C 0.26149 0.40815 0.04448 0.0
C41 C 0.21555 0.40199 0.0899 0.0
C42 C 0.33139 0.41035 0.09831 0.0
C43 C 0.32435 0.41181 0.06497 0.0
O44 O 0.04484 0.41351 0.06798 0.0
O45 O 0.02955 0.38266 0.00782 0.0
O46 O 0.07767 0.3693 0.93389 0.0
O47 O 0.09478 0.39118 0.95757 0.0
O48 O 1.00081 0.39659 0.99039 0.0
O49 O 0.10249 0.41904 0.03093 0.0
O50 O 0.16897 0.34876 0.96939 0.0
O51 O 0.16848 0.38165 0.00996 0.0
O52 O 0.06764 0.3949 0.06974 0.0
O53 O 0.08896 0.37318 0.04799 0.0
O54 O 0.20038 0.36656 0.96099 0.0
O55 O 0.09716 0.35255 0.01414 0.0
C56 C 0.98087 0.38623 0.99211 0.0
C57 C 1.00135 0.43086 0.05614 0.0
C58 C 0.96342 0.44999 0.04922 0.0
C59 C 1.01679 0.44226 0.05309 0.0
C60 C 0.8942 0.44619 0.04914 0.0
C61 C 0.93181 0.4273 0.05567 0.0
C62 C 0.87874 0.43497 0.05236 0.0
C63 C 0.08376 0.3799 0.92957 0.0
C64 C 0.05865 0.42267 0.05837 0.0
C65 C 0.37806 0.41695 0.05198 0.0
C66 C 0.37012 0.41838 0.01867 0.0
C67 C 0.21813 0.37756 0.98629 0.0
C68 C 0.12738 0.33102 0.97828 0.0
C69 C 0.16206 0.32289 0.99131 0.0
C70 C 0.14198 0.30998 0.97811 0.0
C71 C 0.08845 0.30537 0.95123 0.0
C72 C 0.07379 0.32605 0.95185 0.0
C73 C 0.05483 0.31334 0.93825 0.0
C74 C 0.07133 0.38437 0.07484 0.0
C75 C 0.14417 0.34476 0.99313 0.0
H76 H 0.07049 0.44492 0.05282 0.0
H77 H 0.85174 0.45196 0.04691 0.0
H78 H 0.9184 0.41856 0.05759 0.0
H79 H 0.82523 0.43217 0.05214 0.0
H80 H 0.20299 0.32663 0.01212 0.0
H81 H 0.07267 0.2955 0.94005 0.0
H82 H 0.04591 0.332 0.94187 0.0
H83 H 1.01347 0.30967 0.91771 0.0
Eu84 Eu 0.94971 0.64894 0.03922 0.0
C85 C 0.80829 0.59823 0.94959 0.0
C86 C 0.72084 0.59852 0.99418 0.0
C87 C 0.70159 0.58621 0.92717 0.0
C88 C 0.78575 0.60246 0.98649 0.0
C89 C 0.76666 0.58988 0.91959 0.0
C90 C 0.67877 0.59051 0.96437 0.0
C91 C 0.86157 0.58745 0.87724 0.0
N92 N 0.87311 0.60133 0.94314 0.0
C93 C 0.90157 0.59539 0.90796 0.0
C94 C 0.79333 0.58483 0.88299 0.0
Eu95 Eu 0.93955 0.61413 -0.00305 0.0
N96 N 0.82875 0.60978 0.01495 0.0
C97 C 0.81081 0.61302 0.05165 0.0
C98 C 0.70131 0.60225 0.03167 0.0
C99 C 0.74686 0.60941 0.0605 0.0
H100 H 0.95558 0.59679 0.90371 0.0
H101 H 0.73268 0.61221 0.08962 0.0
H102 H 0.62954 0.58722 0.96993 0.0
H103 H 0.88395 0.5831 0.84933 0.0
H104 H 0.84465 0.61862 0.07455 0.0
H105 H 0.19192 0.66168 0.99308 0.0
H106 H 0.65187 0.59943 0.03862 0.0
H107 H 0.87907 0.66078 0.12598 0.0
H108 H 0.08016 0.65074 0.98537 0.0
H109 H 0.91058 0.67541 0.1911 0.0
H110 H 0.66983 0.57962 0.90449 0.0
H111 H 0.23369 0.67598 0.0566 0.0
H112 H 0.21235 0.68662 0.12644 0.0
H113 H 0.76283 0.57842 0.85928 0.0
H114 H 0.13811 0.68981 0.18025 0.0
N115 N 0.0611 0.65791 0.04425 0.0
C116 C 0.09865 0.65663 0.01342 0.0
C117 C 0.18564 0.67087 0.0536 0.0
C118 C 0.14579 0.67254 0.08508 0.0
C119 C 0.16198 0.66288 0.01763 0.0
C120 C 0.0829 0.66582 0.07947 0.0
H121 H 1.02563 0.68569 0.20467 0.0
N122 N 0.97703 0.66212 0.10311 0.0
C123 C 0.94748 0.67335 0.16854 0.0
C124 C 0.03992 0.66792 0.10982 0.0
C125 C 0.92985 0.66505 0.13161 0.0
C126 C 1.01258 0.6791 0.1761 0.0
C127 C 0.05916 0.67662 0.14653 0.0
O128 O 0.87164 0.66401 0.05318 0.0
O129 O 0.87652 0.63212 0.01191 0.0
O130 O 0.93126 0.61976 0.9484 0.0
O131 O 0.96566 0.64107 0.97574 0.0
O132 O 0.8431 0.64704 0.0607 0.0
O133 O 0.94998 0.66205 0.01217 0.0
O134 O 0.9989 0.59649 0.96873 0.0
O135 O 1.01169 0.63081 0.02028 0.0
O136 O 0.98967 0.64309 0.08402 0.0
O137 O 0.95885 0.62173 0.06036 0.0
O138 O 0.048 0.61505 0.97494 0.0
O139 O 0.94797 0.60049 0.02157 0.0
C140 C 0.82506 0.63631 0.03418 0.0
C141 C 0.90807 0.68294 0.04949 0.0
C142 C 0.89702 0.70382 0.04823 0.0
C143 C 0.88561 0.69051 0.03127 0.0
C144 C 0.93096 0.70935 0.08327 0.0
C145 C 0.93963 0.68892 0.08501 0.0
C146 C 0.95165 0.70195 0.10155 0.0
C147 C 0.95019 0.63034 0.94621 0.0
C148 C 0.89843 0.66892 0.03194 0.0
C149 C 0.12266 0.68302 0.15232 0.0
C150 C 0.16537 0.6811 0.12164 0.0
C151 C 0.06386 0.62646 -0.00135 0.0
C152 C 0.04308 0.58622 0.00551 0.0
C153 C 0.02971 0.57483 0.0088 0.0
C154 C 0.08301 0.56841 0.01866 0.0
C155 C 0.15002 0.57373 0.02512 0.0
C156 C 0.10996 0.59136 0.01259 0.0
C157 C 0.16309 0.5851 0.02227 0.0
C158 C 0.98111 0.63244 0.0879 0.0
C159 C 0.98635 0.59251 0.99454 0.0
H160 H 0.85985 0.68611 0.00415 0.0
H161 H 0.93985 0.71951 0.09707 0.0
H162 H 0.9543 0.68358 0.1004 0.0
H163 H 0.97644 0.70637 0.1289 0.0
H164 H 0.97746 0.57107 0.00403 0.0
H165 H 0.19288 0.56902 0.0319 0.0
H166 H 0.1211 0.60016 0.01047 0.0
H167 H 0.21485 0.58905 0.02738 0.0
Eu168 Eu 0.13072 0.61565 0.49957 0.0
C169 C 1.00683 0.66723 0.61038 0.0
C170 C 0.89889 0.66986 0.58265 0.0
C171 C 0.91252 0.67944 0.65073 0.0
C172 C 0.96651 0.66478 0.57878 0.0
C173 C 0.98088 0.67485 0.64667 0.0
C174 C 0.8716 0.67695 0.61877 0.0
C175 C 0.09402 0.67382 0.672 0.0
N176 N 0.07311 0.66283 0.60547 0.0
C177 C 0.11759 0.66637 0.63546 0.0
C178 C 1.02514 0.67795 0.67769 0.0
Eu179 Eu 0.10892 0.65033 0.54259 0.0
N180 N 0.99446 0.65794 0.54422 0.0
C181 C 0.95915 0.65649 0.51242 0.0
C182 C 0.86145 0.66796 0.55008 0.0
C183 C 0.89214 0.66138 0.51486 0.0
H184 H 0.17087 0.6632 0.6313 0.0
H185 H 0.86447 0.66008 0.48951 0.0
H186 H 0.81953 0.68082 0.62227 0.0
H187 H 0.12898 0.67637 0.69574 0.0
H188 H 0.98193 0.65141 0.48496 0.0
H189 H 0.37671 0.60935 0.55858 0.0
H190 H 0.80954 0.67177 0.55186 0.0
H191 H 0.07066 0.59818 0.41264 0.0
H192 H 0.25655 0.61668 0.56006 0.0
H193 H 0.11591 0.58442 0.34918 0.0
H194 H 0.89142 0.6852 0.67839 0.0
H195 H 0.43638 0.59776 0.49745 0.0
H196 H 0.43053 0.58791 0.42691 0.0
H197 H 1.00713 0.68377 0.70602 0.0
H198 H 0.35943 0.58132 0.36948 0.0
N199 N 0.24817 0.60972 0.5005 0.0
C200 C 0.28187 0.61169 0.53322 0.0
C201 C 0.38367 0.60108 0.49803 0.0
C202 C 0.34756 0.59843 0.46455 0.0
C203 C 0.35021 0.60755 0.53251 0.0
C204 C 0.27846 0.60272 0.46674 0.0
H205 H 0.24161 0.57978 0.34021 0.0
N206 N 0.17028 0.60209 0.43831 0.0
C207 C 0.15113 0.58854 0.37285 0.0
C208 C 0.23841 0.59891 0.43455 0.0
C209 C 0.12574 0.59636 0.40869 0.0
C210 C 0.22211 0.58599 0.36789 0.0
C211 C 0.26644 0.59086 0.39915 0.0
O212 O 0.06379 0.59894 0.48362 0.0
O213 O 0.05314 0.63165 0.52294 0.0
O214 O 0.07198 0.64304 0.58447 0.0
O215 O 0.13472 0.62423 0.56412 0.0
O216 O 1.02023 0.61549 0.47808 0.0
O217 O 0.14148 0.60274 0.52667 0.0
O218 O 0.1803 0.66646 0.56007 0.0
O219 O 0.18821 0.63433 0.51718 0.0
O220 O 0.14081 0.62152 0.45161 0.0
O221 O 0.09658 0.64227 0.4788 0.0
O222 O 0.21506 0.64952 0.56685 0.0
O223 O 0.10757 0.66335 0.51523 0.0
C224 C 1.00115 0.62673 0.50149 0.0
C225 C 0.04601 0.59025 0.52783 0.0
C226 C 1.01006 0.57259 0.54242 0.0
C227 C 0.05289 0.57752 0.5227 0.0
C228 C 0.96013 0.58074 0.56728 0.0
C229 C 0.99644 0.59815 0.55299 0.0
C230 C 0.95374 0.59338 0.57255 0.0
C231 C 0.09732 0.63337 0.58991 0.0
C232 C 0.09216 0.59515 0.50728 0.0
C233 C 0.33673 0.58737 0.39647 0.0
C234 C 0.37719 0.59112 0.42917 0.0
C235 C 0.23758 0.63899 0.54094 0.0
C236 C 0.13876 0.68478 0.55411 0.0
C237 C 0.16383 0.6928 0.53801 0.0
C238 C 0.14722 0.70596 0.55444 0.0
C239 C 0.10612 0.71087 0.58712 0.0
C240 C 0.09852 0.69013 0.58686 0.0
C241 C 0.08219 0.70302 0.60312 0.0
C242 C 0.11699 0.63189 0.4494 0.0
C243 C 0.15461 0.67094 0.53734 0.0
H244 H 0.09244 0.57157 0.50379 0.0
H245 H 0.9252 0.57734 0.58243 0.0
H246 H 0.99086 0.60797 0.55748 0.0
H247 H 0.91527 0.5995 0.59183 0.0
H248 H 0.19535 0.68881 0.51282 0.0
H249 H 0.0934 0.7209 0.60086 0.0
H250 H 0.08015 0.6844 0.60027 0.0
H251 H 0.05116 0.70698 0.62848 0.0
Eu252 Eu 0.963 0.36184 0.47462 0.0
C253 C 0.83852 0.41215 0.59303 0.0
C254 C 0.72947 0.41479 0.56618 0.0
C255 C 0.74363 0.42373 0.63418 0.0
C256 C 0.79747 0.40984 0.56171 0.0
C257 C 0.8125 0.41935 0.62959 0.0
C258 C 0.70224 0.42147 0.60253 0.0
C259 C 0.92651 0.41849 0.65426 0.0
N260 N 0.90511 0.40794 0.5877 0.0
C261 C 0.95007 0.41143 0.61748 0.0
C262 C 0.85717 0.42231 0.6604 0.0
Eu263 Eu 0.94082 0.39636 0.52449 0.0
N264 N 0.82515 0.40335 0.52689 0.0
C265 C 0.78998 0.40243 0.49557 0.0
C266 C 0.69176 0.41327 0.53399 0.0
C267 C 0.72267 0.40724 0.4986 0.0
H268 H 1.00372 0.40846 0.61286 0.0
H269 H 0.69498 0.4063 0.4736 0.0
H270 H 0.64986 0.42521 0.60648 0.0
H271 H 0.96173 0.42097 0.67783 0.0
H272 H 0.81336 0.39779 0.46805 0.0
H273 H 0.21211 0.35194 0.5231 0.0
H274 H 0.63958 0.41701 0.53625 0.0
H275 H 0.89635 0.34715 0.38768 0.0
H276 H 0.09284 0.35982 0.52942 0.0
H277 H 0.93625 0.33464 0.32236 0.0
H278 H 0.72252 0.42918 0.66205 0.0
H279 H 0.26756 0.342 0.46029 0.0
H280 H 0.25607 0.33411 0.39019 0.0
H281 H 0.83913 0.42782 0.68892 0.0
H282 H 0.18061 0.32949 0.33517 0.0
N283 N 0.07946 0.35471 0.47084 0.0
C284 C 0.11564 0.35553 0.50178 0.0
C285 C 0.21481 0.3455 0.46291 0.0
C286 C 0.17626 0.34403 0.43106 0.0
C287 C 0.18382 0.35107 0.49834 0.0
C288 C 0.1075 0.34865 0.43599 0.0
H289 H 0.06069 0.32938 0.30959 0.0
N290 N 0.99752 0.34941 0.41138 0.0
C291 C 0.97321 0.33785 0.34535 0.0
C292 C 0.06522 0.34601 0.40516 0.0
C293 C 0.95078 0.34492 0.38237 0.0
C294 C 0.04353 0.33496 0.33825 0.0
C295 C 0.09028 0.33875 0.36842 0.0
O296 O 0.89436 0.34527 0.45687 0.0
O297 O 0.88405 0.37764 0.50197 0.0
O298 O 0.9138 0.38783 0.56497 0.0
O299 O 0.98001 0.36947 0.53803 0.0
O300 O 0.85491 0.36279 0.45233 0.0
O301 O 0.96388 0.34927 0.50336 0.0
O302 O 1.00545 0.41343 0.54708 0.0
O303 O 1.01965 0.38067 0.49614 0.0
O304 O 0.98202 0.36951 0.43122 0.0
O305 O 0.93543 0.39003 0.46095 0.0
O306 O 0.04983 0.3955 0.54579 0.0
O307 O 0.93234 0.41071 0.50241 0.0
C308 C 0.83387 0.37335 0.47867 0.0
C309 C 0.9388 0.3276 0.4654 0.0
C310 C 0.92915 0.30635 0.46428 0.0
C311 C 0.90774 0.31924 0.47858 0.0
C312 C 0.98078 0.30201 0.43636 0.0
C313 C 0.99016 0.32288 0.43765 0.0
C314 C 1.01082 0.3102 0.42321 0.0
C315 C 0.94587 0.37805 0.5669 0.0
C316 C 0.91923 0.34124 0.48076 0.0
C317 C 0.16013 0.33494 0.3632 0.0
C318 C 0.20307 0.33756 0.39452 0.0
C319 C 0.07063 0.38503 0.51892 0.0
C320 C 0.02937 0.42376 0.50771 0.0
C321 C 1.01855 0.4363 0.51179 0.0
C322 C 0.06474 0.44193 0.49551 0.0
C323 C 0.12194 0.43472 0.47518 0.0
C324 C 0.08678 0.41684 0.4874 0.0
C325 C 0.13267 0.4223 0.4712 0.0
C326 C 0.96052 0.38032 0.43106 0.0
C327 C 0.98007 0.41803 0.52459 0.0
H328 H 0.86824 0.3228 0.50018 0.0
H329 H 0.99754 0.29217 0.42427 0.0
H330 H 1.01447 0.32899 0.42707 0.0
H331 H 0.05041 0.30671 0.40169 0.0
H332 H 0.9737 0.44158 0.52724 0.0
H333 H 0.15921 0.43873 0.46277 0.0
H334 H 0.09581 0.40719 0.48393 0.0
H335 H 0.17696 0.41691 0.45555 0.0
Eu336 Eu 0.61703 0.89606 0.02162 0.0
C337 C 0.48458 0.8452 0.91365 0.0
C338 C 0.37513 0.84488 0.94321 0.0
C339 C 0.38535 0.83436 0.87503 0.0
C340 C 0.44487 0.8488 0.94585 0.0
C341 C 0.45599 0.83752 0.87801 0.0
C342 C 0.34495 0.83805 0.90759 0.0
C343 C 0.57106 0.83518 0.85164 0.0
N344 N 0.55308 0.84814 0.91759 0.0
C345 C 0.59708 0.8428 0.88756 0.0
C346 C 0.5 0.83272 0.84671 0.0
Eu347 Eu 0.59327 0.8612 0.97932 0.0
N348 N 0.47599 0.85519 0.97987 0.0
C349 C 0.442 0.85697 0.01223 0.0
C350 C 0.33872 0.84744 0.97643 0.0
C351 C 0.37277 0.85328 0.01104 0.0
H352 H 0.65199 0.84476 0.89128 0.0
H353 H 0.34562 0.85502 0.03687 0.0
H354 H 0.29117 0.83514 0.90501 0.0
H355 H 0.60576 0.83125 0.82778 0.0
H356 H 0.46719 0.86153 0.03927 0.0
H357 H 0.82501 0.89742 0.92837 0.0
H358 H 0.28507 0.84461 0.97561 0.0
H359 H 0.61547 0.91203 0.11745 0.0
H360 H 0.70831 0.89362 0.94455 0.0
H361 H 0.69831 0.92091 0.16988 0.0
H362 H 0.36216 0.82864 0.84784 0.0
H363 H 0.9163 0.90524 0.97719 0.0
H364 H 0.95062 0.91249 0.0446 0.0
H365 H 0.48004 0.82676 0.81888 0.0
H366 H 0.91701 0.91815 0.11012 0.0
N367 N 0.73061 0.89908 0.00281 0.0
C368 C 0.74631 0.89704 0.96667 0.0
C369 C 0.86442 0.90365 0.98474 0.0
C370 C 0.84797 0.90614 0.02186 0.0
C371 C 0.81309 0.89924 0.95714 0.0
C372 C 0.77953 0.90389 0.03028 0.0
H373 H 0.8233 0.92135 0.15707 0.0
N374 N 0.69322 0.90577 0.07463 0.0
C375 C 0.71691 0.91681 0.14114 0.0
C376 C 0.76075 0.90698 0.06712 0.0
C377 C 0.67023 0.91152 0.11116 0.0
C378 C 0.78731 0.91704 0.13379 0.0
C379 C 0.80974 0.91253 0.09651 0.0
O380 O 0.57715 0.91531 0.05433 0.0
O381 O 0.53906 0.88015 -0.00229 0.0
O382 O 0.56852 0.86723 0.93281 0.0
O383 O 0.59935 0.88866 0.95824 0.0
O384 O 0.50495 0.89666 0.0412 0.0
O385 O 0.59851 0.90915 0.99543 0.0
O386 O 0.66163 0.84451 0.96166 0.0
O387 O 0.67277 0.87712 0.00546 0.0
O388 O 0.59944 0.89092 0.07025 0.0
O389 O 0.58449 0.86891 0.0429 0.0
O390 O 0.70053 0.86164 0.95631 0.0
O391 O 0.59149 0.84858 0.00783 0.0
C392 C 0.48586 0.88541 0.01778 0.0
C393 C 0.61663 0.93097 0.03539 0.0
C394 C 0.62397 0.9514 0.03107 0.0
C395 C 0.589 0.93983 0.02302 0.0
C396 C 0.68624 0.95391 0.05179 0.0
C397 C 0.67858 0.93389 0.05618 0.0
C398 C 0.71312 0.94523 0.0642 0.0
C399 C 0.57944 0.87797 0.9298 0.0
C400 C 0.5814 0.91873 0.02682 0.0
C401 C 0.87865 0.91408 0.08796 0.0
C402 C 0.89768 0.91093 0.05071 0.0
C403 C 0.72263 0.87219 0.98224 0.0
C404 C 0.61723 0.82688 0.97004 0.0
C405 C 0.64955 0.81851 0.98292 0.0
C406 C 0.62888 0.8056 0.96848 0.0
C407 C 0.57688 0.80126 0.94061 0.0
C408 C 0.56512 0.82218 0.94259 0.0
C409 C 0.54537 0.80949 0.92788 0.0
C410 C 0.58835 0.88006 0.0723 0.0
C411 C 0.6364 0.84052 0.98542 0.0
H412 H 0.54111 0.93769 0.00699 0.0
H413 H 0.71376 0.96275 0.05908 0.0
H414 H 0.70016 0.92747 0.06662 0.0
H415 H 0.76079 0.94734 0.08037 0.0
H416 H 0.68942 0.82206 0.00443 0.0
H417 H 0.56076 0.7914 0.92833 0.0
H418 H 0.53941 0.8283 0.93245 0.0
H419 H 0.50528 0.80602 0.90652 0.0
Eu420 Eu 0.47071 0.15129 0.03437 0.0
C421 C 0.28998 0.10825 0.9664 0.0
C422 C 0.22524 0.10793 0.01896 0.0
C423 C 0.1685 0.10174 0.95854 0.0
C424 C 0.28776 0.11013 0.00389 0.0
C425 C 0.23001 0.10396 0.94347 0.0
C426 C 0.16608 0.10374 0.99615 0.0
C427 C 0.29538 0.10395 0.89143 0.0
N428 N 0.34987 0.11063 0.95227 0.0
C429 C 0.35363 0.10796 0.91472 0.0
C430 C 0.23316 0.10204 0.90589 0.0
Eu431 Eu 0.44708 0.11637 0.99411 0.0
N432 N 0.3452 0.11453 0.026 0.0
C433 C 0.34322 0.11644 0.06298 0.0
C434 C 0.22327 0.11017 0.05682 0.0
C435 C 0.28252 0.11442 0.07884 0.0
H436 H 0.40151 0.1083 0.90134 0.0
H437 H 0.28172 0.11605 0.10813 0.0
H438 H 0.1179 0.1021 0.00745 0.0
H439 H 0.29904 0.10204 0.86198 0.0
H440 H 0.38769 0.11932 0.08106 0.0
H441 H 0.71614 0.15635 0.97304 0.0
H442 H 0.17626 0.10864 0.06931 0.0
H443 H 0.41651 0.16826 0.12298 0.0
H444 H 0.59436 0.15013 0.97262 0.0
H445 H 0.46622 0.18139 0.18596 0.0
H446 H 0.12223 0.09853 0.94133 0.0
H447 H 0.77935 0.16697 0.0334 0.0
H448 H 0.7769 0.17652 0.10414 0.0
H449 H 0.18822 0.09882 0.88761 0.0
H450 H 0.70904 0.1831 0.1624 0.0
N451 N 0.58814 0.15692 0.03222 0.0
C452 C 0.62083 0.15479 -0.00076 0.0
C453 C 0.72564 0.1643 0.03344 0.0
C454 C 0.69083 0.16706 0.06725 0.0
C455 C 0.69008 0.15833 -0.00067 0.0
C456 C 0.62095 0.16332 0.0657 0.0
H457 H 0.59266 0.1852 0.19321 0.0
N458 N 0.51426 0.1643 0.09545 0.0
C459 C 0.49974 0.17732 0.16163 0.0
C460 C 0.58299 0.167 0.09845 0.0
C461 C 0.47175 0.16992 0.126 0.0
C462 C 0.5712 0.17939 0.16563 0.0
C463 C 0.61355 0.17451 0.13368 0.0
O464 O 0.40208 0.16795 0.05142 0.0
O465 O 0.39096 0.13528 0.00946 0.0
O466 O 0.47886 0.12051 0.94521 0.0
O467 O 0.47626 0.14272 0.97014 0.0
O468 O 0.36507 0.15092 0.0589 0.0
O469 O 0.47171 0.16367 0.0051 0.0
O470 O 0.46721 0.09734 0.95002 0.0
O471 O 0.52317 0.13239 0.01202 0.0
O472 O 0.49527 0.14526 0.0813 0.0
O473 O 0.48397 0.12306 0.05453 0.0
O474 O 0.56543 0.11456 0.987 0.0
O475 O 0.46404 0.10029 0.00836 0.0
C476 C 0.34232 0.14033 0.03345 0.0
C477 C 0.447 0.18541 0.04234 0.0
C478 C 0.43521 0.2067 0.04401 0.0
C479 C 0.41307 0.1939 0.03044 0.0
C480 C 0.49024 0.21085 0.07007 0.0
C481 C 0.50196 0.18991 0.06809 0.0
C482 C 0.52314 0.20252 0.08198 0.0
C483 C 0.48241 0.1313 0.94169 0.0
C484 C 0.4271 0.17182 0.02737 0.0
C485 C 0.68436 0.17748 0.13558 0.0
C486 C 0.72295 0.17377 0.10239 0.0
C487 C 0.58113 0.12647 0.00304 0.0
C488 C 0.42786 0.0801 0.96248 0.0
C489 C 0.44945 0.07071 0.97418 0.0
C490 C 0.41064 0.05943 0.96427 0.0
C491 C 0.35003 0.05777 0.9426 0.0
C492 C 0.36777 0.078 0.94033 0.0
C493 C 0.329 0.06697 0.93075 0.0
C494 C 0.4978 0.13414 0.08308 0.0
C495 C 0.46836 0.09196 0.97326 0.0
H496 H 0.37092 0.19051 0.01027 0.0
H497 H 0.50765 0.22062 0.08155 0.0
H498 H 0.52894 0.18368 0.0774 0.0
H499 H 0.56552 0.20584 0.10198 0.0
H500 H 0.496 0.07222 0.99111 0.0
H501 H 0.31953 0.04918 0.93401 0.0
H502 H 0.35092 0.08479 0.93002 0.0
H503 H 0.28271 0.06548 0.91369 0.0
Eu504 Eu 0.62477 0.11498 0.48727 0.0
C505 C 0.52542 0.16733 0.60808 0.0
C506 C 0.41761 0.17254 0.5859 0.0
C507 C 0.44237 0.1815 0.65306 0.0
C508 C 0.48121 0.1659 0.57863 0.0
C509 C 0.50661 0.17521 0.64562 0.0
C510 C 0.39848 0.18031 0.62325 0.0
C511 C 0.61967 0.17136 0.66543 0.0
N512 N 0.58893 0.16175 0.59982 0.0
C513 C 0.63674 0.16392 0.62775 0.0
C514 C 0.55418 0.17698 0.67445 0.0
Eu515 Eu 0.61434 0.14959 0.53508 0.0
N516 N 0.50264 0.15879 0.54278 0.0
C517 C 0.46399 0.15826 0.51293 0.0
C518 C 0.37662 0.17164 0.55535 0.0
C519 C 0.39996 0.16447 0.51871 0.0
H520 H 0.6877 0.1597 0.6212 0.0
H521 H 0.36911 0.16386 0.4949 0.0
H522 H 0.35093 0.18577 0.62942 0.0
H523 H 0.65724 0.17284 0.68747 0.0
H524 H 0.48212 0.15296 0.48447 0.0
H525 H 0.87147 0.10213 0.52972 0.0
H526 H 0.32791 0.17671 0.55965 0.0
H527 H 0.55078 0.10393 0.40139 0.0
H528 H 0.75722 0.1127 0.53915 0.0
H529 H 0.58122 0.09004 0.33545 0.0
H530 H 0.42723 0.18767 0.68166 0.0
H531 H 0.91347 0.08897 0.46533 0.0
H532 H 0.8904 0.07919 0.39549 0.0
H533 H 0.54151 0.18291 0.70363 0.0
H534 H 0.81324 0.07637 0.34276 0.0
N535 N 0.73793 0.10655 0.48063 0.0
C536 C 0.77622 0.10732 0.51086 0.0
C537 C 0.86442 0.09392 0.46918 0.0
C538 C 0.82315 0.09258 0.43828 0.0
C539 C 0.84068 0.10128 0.50563 0.0
C540 C 0.75904 0.09906 0.44498 0.0
H541 H 0.69781 0.08033 0.32004 0.0
N542 N 0.65049 0.10258 0.42294 0.0
C543 C 0.61912 0.09198 0.35758 0.0
C544 C 0.71416 0.09706 0.41526 0.0
C545 C 0.60211 0.09984 0.39497 0.0
C546 C 0.68511 0.08655 0.349 0.0
C547 C 0.73311 0.08885 0.37803 0.0
O548 O 0.55886 0.09814 0.46805 0.0
O549 O 0.55188 0.13158 0.51442 0.0
O550 O 0.57696 0.14179 0.57559 0.0
O551 O 0.6351 0.12243 0.5515 0.0
O552 O 0.51431 0.11652 0.46803 0.0
O553 O 0.63106 0.10182 0.51384 0.0
O554 O 0.68854 0.16527 0.55119 0.0
O555 O 0.68796 0.13294 0.50712 0.0
O556 O 0.65423 0.12275 0.44521 0.0
O557 O 0.59488 0.14196 0.47174 0.0
O558 O 0.72178 0.14738 0.55619 0.0
O559 O 0.61434 0.16244 0.50722 0.0
C560 C 0.49886 0.12769 0.49323 0.0
C561 C 0.53371 0.08892 0.51012 0.0
C562 C 0.49597 0.07106 0.52342 0.0
C563 C 0.54457 0.07662 0.50806 0.0
C564 C 0.43639 0.07819 0.54087 0.0
C565 C 0.47465 0.09582 0.52821 0.0
C566 C 0.4263 0.09046 0.54344 0.0
C567 C 0.601 0.13166 0.57901 0.0
C568 C 0.58356 0.09422 0.49228 0.0
C569 C 0.79797 0.08278 0.37112 0.0
C570 C 0.84238 0.0845 0.4012 0.0
C571 C 0.73922 0.1366 0.52973 0.0
C572 C 0.64936 0.18369 0.54493 0.0
C573 C 0.67558 0.19142 0.52818 0.0
C574 C 0.6598 0.20459 0.54378 0.0
C575 C 0.61824 0.20983 0.57621 0.0
C576 C 0.60926 0.18935 0.57766 0.0
C577 C 0.59355 0.20227 0.59303 0.0
C578 C 0.62554 0.13273 0.44274 0.0
C579 C 0.663 0.16978 0.52851 0.0
H580 H 0.59115 0.07147 0.49463 0.0
H581 H 0.39662 0.07427 0.55213 0.0
H582 H 0.46564 0.10529 0.53017 0.0
H583 H 0.38029 0.09578 0.55701 0.0
H584 H 0.7072 0.18721 0.50306 0.0
H585 H 0.60588 0.21989 0.58906 0.0
H586 H 0.59035 0.18382 0.5916 0.0
H587 H 0.56234 0.20647 0.61827 0.0
Eu588 Eu 0.43261 0.86355 0.48077 0.0
C589 C 0.30262 0.91491 0.58454 0.0
C590 C 0.20173 0.91595 0.54902 0.0
C591 C 0.20088 0.92693 0.61731 0.0
C592 C 0.26918 0.91138 0.55034 0.0
C593 C 0.26933 0.92297 0.61838 0.0
C594 C 0.16746 0.92354 0.58264 0.0
C595 C 0.37791 0.92468 0.65099 0.0
N596 N 0.37004 0.91156 0.58444 0.0
C597 C 0.40899 0.91702 0.61659 0.0
C598 C 0.30733 0.92749 0.65202 0.0
Eu599 Eu 0.42012 0.89846 0.52531 0.0
N600 N 0.30491 0.90452 0.51826 0.0
C601 C 0.27792 0.90277 0.48409 0.0
C602 C 0.17225 0.91343 0.51396 0.0
C603 C 0.21113 0.90704 0.4814 0.0
H604 H 0.46417 0.91524 0.61553 0.0
H605 H 0.18961 0.90535 0.45416 0.0
H606 H 0.11622 0.92728 0.58197 0.0
H607 H 0.40865 0.9286 0.67654 0.0
H608 H 0.30677 0.89786 0.45849 0.0
H609 H 0.68074 0.84937 0.51822 0.0
H610 H 0.12059 0.91677 0.51181 0.0
H611 H 0.35641 0.85391 0.39513 0.0
H612 H 0.56804 0.86048 0.52991 0.0
H613 H 0.38339 0.84032 0.32875 0.0
H614 H 0.17459 0.93314 0.64299 0.0
H615 H 0.71767 0.83582 0.45298 0.0
H616 H 0.6894 0.82602 0.38368 0.0
H617 H 0.28358 0.93367 0.67857 0.0
H618 H 0.61059 0.82405 0.33238 0.0
N619 N 0.54387 0.85414 0.47183 0.0
C620 C 0.58455 0.85492 0.50126 0.0
C621 C 0.66898 0.84095 0.45787 0.0
C622 C 0.62578 0.83978 0.42782 0.0
C623 C 0.64821 0.84855 0.49475 0.0
C624 C 0.56274 0.84662 0.43577 0.0
H625 H 0.49672 0.82937 0.31156 0.0
N626 N 0.45484 0.85123 0.41567 0.0
C627 C 0.42146 0.84161 0.35042 0.0
C628 C 0.51714 0.84516 0.40681 0.0
C629 C 0.40635 0.84931 0.38819 0.0
C630 C 0.48558 0.83548 0.34082 0.0
C631 C 0.5339 0.83705 0.36915 0.0
O632 O 0.35538 0.84849 0.46741 0.0
O633 O 0.35897 0.88033 0.50893 0.0
O634 O 0.41131 0.89204 0.57233 0.0
O635 O 0.45226 0.87107 0.54381 0.0
O636 O 0.32465 0.86558 0.46028 0.0
O637 O 0.4373 0.8501 0.50665 0.0
O638 O 0.48028 0.91605 0.54923 0.0
O639 O 0.49289 0.88182 0.50129 0.0
O640 O 0.47418 0.87054 0.4393 0.0
O641 O 0.41922 0.89016 0.46072 0.0
O642 O 0.53044 0.89756 0.54589 0.0
O643 O 0.42808 0.91077 0.49596 0.0
C644 C 0.30713 0.87635 0.48679 0.0
C645 C 0.39464 0.82931 0.46888 0.0
C646 C 0.38618 0.80812 0.46837 0.0
C647 C 0.3752 0.82146 0.48666 0.0
C648 C 0.41644 0.80287 0.43239 0.0
C649 C 0.42296 0.82361 0.43257 0.0
C650 C 0.4343 0.81055 0.41466 0.0
C651 C 0.43368 0.88145 0.57373 0.0
C652 C 0.38484 0.84334 0.48755 0.0
C653 C 0.59712 0.83042 0.36108 0.0
C654 C 0.64246 0.83166 0.39035 0.0
C655 C 0.54586 0.8861 0.52238 0.0
C656 C 0.52338 0.92494 0.50917 0.0
C657 C 0.51493 0.93725 0.51099 0.0
C658 C 0.56934 0.94325 0.50067 0.0
C659 C 0.63223 0.93653 0.4884 0.0
C660 C 0.58614 0.91846 0.49641 0.0
C661 C 0.64021 0.92426 0.48614 0.0
C662 C 0.45185 0.88043 0.43416 0.0
C663 C 0.46674 0.9192 0.52178 0.0
H664 H 0.35216 0.82568 0.51446 0.0
H665 H 0.42477 0.7927 0.41746 0.0
H666 H 0.43552 0.8292 0.41767 0.0
H667 H 0.45641 0.80633 0.38666 0.0
H668 H 0.4657 0.94208 0.52028 0.0
H669 H 0.67597 0.94078 0.48097 0.0
H670 H 0.59346 0.90899 0.49475 0.0
H671 H 0.68887 0.91925 0.47659 0.0
H672 H 0.30335 0.37634 0.04146 0.0
H673 H 0.4299 0.37718 0.04449 0.0
H674 H 0.43367 0.38642 0.94919 0.0
H675 H 0.3075 0.38426 0.94409 0.0
H676 H 0.52648 0.37121 0.93688 0.0
H677 H 0.54647 0.4129 0.06566 0.0
H678 H 0.51631 0.42527 0.1327 0.0
H679 H 0.50572 0.3908 0.14745 0.0
H680 H 0.53785 0.37834 0.08076 0.0
H681 H 0.88973 0.38431 0.93673 0.0
H682 H 0.76379 0.38361 0.93721 0.0
H683 H 0.77124 0.38076 0.04337 0.0
H684 H 0.89652 0.38383 0.04545 0.0
H685 H 0.67142 0.39202 0.05098 0.0
H686 H 0.71001 0.3537 0.93038 0.0
H687 H 0.74885 0.34173 0.86429 0.0
H688 H 0.65288 0.36938 0.83403 0.0
H689 H 0.6119 0.3813 0.89929 0.0
C690 C 0.33117 0.37887 0.02176 0.0
C691 C 0.29438 0.38065 0.99325 0.0
C692 C 0.40458 0.37954 0.0238 0.0
C693 C 0.44419 0.3823 -0.00207 0.0
C694 C 0.40648 0.38429 0.96986 0.0
C695 C 0.33353 0.38318 0.96707 0.0
C696 C 0.52383 0.38194 -0.00287 0.0
C697 C 0.55776 0.37588 0.96208 0.0
C698 C 0.56747 0.38754 0.02943 0.0
C699 C 0.54039 0.39467 0.06788 0.0
C700 C 0.53596 0.40797 0.08308 0.0
C701 C 0.51983 0.41501 0.12113 0.0
C702 C 0.50813 0.40881 0.14422 0.0
C703 C 0.51374 0.39558 0.12943 0.0
C704 C 0.53114 0.38854 0.09157 0.0
C705 C 0.86439 0.38326 0.95982 0.0
C706 C 0.9045 0.3832 0.98983 0.0
C707 C 0.79119 0.38263 0.95986 0.0
C708 C 0.75458 0.38145 0.9894 0.0
C709 C 0.79548 0.38152 0.01963 0.0
C710 C 0.86841 0.38286 0.02041 0.0
C711 C 0.67482 0.38112 0.99065 0.0
C712 C 0.64073 0.38714 0.0257 0.0
C713 C 0.63111 0.37534 0.95832 0.0
C714 C 0.65866 0.36844 0.91971 0.0
C715 C 0.69778 0.35725 0.90964 0.0
C716 C 0.71992 0.35047 0.87239 0.0
C717 C 0.7039 0.35485 0.84522 0.0
C718 C 0.66539 0.366 0.85511 0.0
C719 C 0.64235 0.37273 0.89212 0.0
H720 H 0.72106 0.34956 0.81645 0.0
H721 H 0.49525 0.41426 0.17361 0.0
H722 H 0.14197 0.63503 0.06473 0.0
H723 H 0.26843 0.6368 0.07058 0.0
H724 H 0.28322 0.62884 0.95293 0.0
H725 H 0.15783 0.62597 0.94672 0.0
H726 H 0.37622 0.61667 0.96056 0.0
H727 H 0.36781 0.66444 0.04693 0.0
H728 H 0.33253 0.68349 0.10343 0.0
H729 H 0.34667 0.66242 0.17027 0.0
H730 H 0.38618 0.64348 0.1145 0.0
H731 H 0.7504 0.62779 0.96633 0.0
H732 H 0.62428 0.62669 0.95822 0.0
H733 H 0.59978 0.63622 0.0765 0.0
H734 H 0.72454 0.63877 0.08491 0.0
H735 H 0.51051 0.64802 0.06685 0.0
H736 H 0.50381 0.59887 0.97488 0.0
H737 H 0.53557 0.58033 0.91608 0.0
H738 H 0.54802 0.6043 0.85813 0.0
H739 H 0.51239 0.62281 0.91611 0.0
C740 C 0.17218 0.63397 0.04037 0.0
C741 C 0.13892 0.63054 0.00534 0.0
C742 C 0.24548 0.6351 0.04373 0.0
C743 C 0.28823 0.63318 0.01241 0.0
C744 C 0.25375 0.63029 0.97785 0.0
C745 C 0.18114 0.62877 0.97428 0.0
C746 C 0.3679 0.63302 0.01406 0.0
C747 C 0.40505 0.62368 0.98391 0.0
C748 C 0.40849 0.64175 0.04427 0.0
C749 C 0.3776 0.65251 0.07649 0.0
C750 C 0.36233 0.66385 0.07359 0.0
C751 C 0.34261 0.67466 0.10556 0.0
C752 C 0.33624 0.67411 0.1403 0.0
C753 C 0.35096 0.66281 0.14329 0.0
C754 C 0.37275 0.65208 0.11163 0.0
C755 C 0.71794 0.62946 0.99044 0.0
C756 C 0.74859 0.63319 0.02626 0.0
C757 C 0.64463 0.62865 0.98574 0.0
C758 C 0.5991 0.63113 0.01646 0.0
C759 C 0.63104 0.63439 0.05188 0.0
C760 C 0.70348 0.63572 0.05677 0.0
C761 C 0.51939 0.63149 0.01364 0.0
C762 C 0.482 0.64091 0.04359 0.0
C763 C 0.47864 0.62284 0.98313 0.0
C764 C 0.5088 0.61227 0.95011 0.0
C765 C 0.51467 0.6002 0.94973 0.0
C766 C 0.53203 0.58967 0.91641 0.0
C767 C 0.54504 0.59117 0.88356 0.0
C768 C 0.53896 0.60317 0.88371 0.0
C769 C 0.51951 0.61365 0.91667 0.0
H770 H 0.55921 0.58302 0.85791 0.0
H771 H 0.32039 0.68248 0.16494 0.0
H772 H 0.90181 0.62025 0.44756 0.0
H773 H 0.77652 0.62236 0.45375 0.0
H774 H 0.79848 0.64288 0.57428 0.0
H775 H 0.92481 0.63966 0.56795 0.0
H776 H 0.69607 0.63001 0.56672 0.0
H777 H 0.72964 0.65679 0.50088 0.0
H778 H 0.77107 0.66238 0.45034 0.0
H779 H 0.67323 0.62909 0.36723 0.0
H780 H 0.63048 0.62344 0.4173 0.0
H781 H 0.33712 0.64661 0.59519 0.0
H782 H 0.46264 0.64546 0.58975 0.0
H783 H 0.4439 0.6253 0.46898 0.0
H784 H 0.31696 0.62759 0.47456 0.0
H785 H 0.54531 0.63837 0.47727 0.0
H786 H 0.51425 0.61149 0.54398 0.0
H787 H 0.47483 0.60591 0.59488 0.0
H788 H 0.57099 0.63959 0.6772 0.0
H789 H 0.61095 0.64527 0.62673 0.0
C790 C 0.88023 0.62543 0.47546 0.0
C791 C 0.92473 0.63019 0.50707 0.0
C792 C 0.80752 0.62681 0.47902 0.0
C793 C 0.77534 0.63324 0.51444 0.0
C794 C 0.82006 0.63798 0.5463 0.0
C795 C 0.8932 0.63635 0.54273 0.0
C796 C 0.69592 0.63416 0.51831 0.0
C797 C 0.6637 0.63208 0.54737 0.0
C798 C 0.65089 0.63642 0.49283 0.0
C799 C 0.67793 0.63962 0.46273 0.0
C800 C 0.71766 0.65062 0.47179 0.0
C801 C 0.74105 0.65382 0.44327 0.0
C802 C 0.72538 0.64603 0.40561 0.0
C803 C 0.68562 0.63509 0.3964 0.0
C804 C 0.6615 0.63192 0.42483 0.0
C805 C 0.35945 0.64181 0.56734 0.0
C806 C 0.31555 0.63685 0.53544 0.0
C807 C 0.4324 0.64094 0.56422 0.0
C808 C 0.46565 0.63482 0.52899 0.0
C809 C 0.4216 0.62999 0.49684 0.0
C810 C 0.34814 0.63113 0.49996 0.0
C811 C 0.54528 0.63416 0.52562 0.0
C812 C 0.5776 0.6363 0.49665 0.0
C813 C 0.59046 0.63201 0.5513 0.0
C814 C 0.56401 0.62891 0.58169 0.0
C815 C 0.5258 0.61777 0.57299 0.0
C816 C 0.50382 0.61457 0.60172 0.0
C817 C 0.51973 0.62247 0.63927 0.0
C818 C 0.55823 0.63353 0.64814 0.0
C819 C 0.58071 0.63672 0.61948 0.0
H820 H 0.50263 0.61997 0.66146 0.0
H821 H 0.74372 0.6485 0.38359 0.0
H822 H 0.73467 0.36727 0.42472 0.0
H823 H 0.60927 0.36878 0.4305 0.0
H824 H 0.62897 0.38695 0.55155 0.0
H825 H 0.75568 0.38423 0.54544 0.0
H826 H 0.52686 0.37366 0.54069 0.0
H827 H 0.56078 0.40309 0.48282 0.0
H828 H 0.60435 0.40976 0.43486 0.0
H829 H 0.50951 0.37713 0.34737 0.0
H830 H 0.46462 0.37041 0.39483 0.0
H831 H 0.17021 0.39087 0.57249 0.0
H832 H 0.29549 0.38944 0.56638 0.0
H833 H 0.27485 0.37163 0.44536 0.0
H834 H 0.14807 0.37428 0.45187 0.0
H835 H 0.37754 0.38472 0.45599 0.0
H836 H 0.34611 0.355 0.51326 0.0
H837 H 0.30416 0.34799 0.56077 0.0
H838 H 0.39537 0.3809 0.64896 0.0
H839 H 0.43854 0.38797 0.60192 0.0
C840 C 0.71258 0.37175 0.45271 0.0
C841 C 0.75657 0.37601 0.48454 0.0
C842 C 0.63977 0.37281 0.45606 0.0
C843 C 0.60694 0.37847 0.49151 0.0
C844 C 0.65109 0.38265 0.52357 0.0
C845 C 0.72437 0.38128 0.52017 0.0
C846 C 0.52748 0.37925 0.49502 0.0
C847 C 0.49484 0.37632 0.52241 0.0
C848 C 0.48288 0.38223 0.47077 0.0
C849 C 0.51044 0.38617 0.44227 0.0
C850 C 0.54984 0.39731 0.45332 0.0
C851 C 0.57445 0.40111 0.42626 0.0
C852 C 0.56032 0.3938 0.38809 0.0
C853 C 0.52072 0.38276 0.37692 0.0
C854 C 0.49536 0.37899 0.40388 0.0
C855 C 0.19205 0.38646 0.54443 0.0
C856 C 0.14776 0.38228 0.51273 0.0
C857 C 0.26483 0.38545 0.54088 0.0
C858 C 0.29741 0.37991 0.50534 0.0
C859 C 0.25296 0.37582 0.4734 0.0
C860 C 0.17965 0.37714 0.47702 0.0
C861 C 0.37689 0.37915 0.50171 0.0
C862 C 0.40955 0.38207 0.47429 0.0
C863 C 0.42157 0.37614 0.52591 0.0
C864 C 0.39429 0.37209 0.55419 0.0
C865 C 0.35643 0.36078 0.54282 0.0
C866 C 0.33283 0.35677 0.56963 0.0
C867 C 0.34648 0.36406 0.60786 0.0
C868 C 0.3845 0.37529 0.61936 0.0
C869 C 0.40884 0.37927 0.59264 0.0
H870 H 0.32796 0.36096 0.62855 0.0
H871 H 0.57975 0.39673 0.36721 0.0
H872 H 0.82107 0.86821 0.92899 0.0
H873 H 0.94733 0.86989 0.93499 0.0
H874 H 0.92982 0.88182 0.05472 0.0
H875 H 0.80256 0.87992 0.04842 0.0
H876 H 0.03686 0.88786 0.96623 0.0
H877 H 0.08011 0.8747 0.09047 0.0
H878 H 1.02501 0.86199 0.11961 0.0
H879 H 0.93253 0.83778 0.01343 0.0
H880 H 0.9878 0.85023 0.98358 0.0
H881 H 0.38839 0.88909 0.07114 0.0
H882 H 0.26234 0.88659 0.06485 0.0
H883 H 0.28044 0.87286 0.94447 0.0
H884 H 0.40767 0.87528 0.95092 0.0
H885 H 0.17327 0.86775 0.0336 0.0
H886 H 0.12543 0.88194 0.91024 0.0
H887 H 0.17516 0.89565 0.88305 0.0
H888 H 0.27589 0.91826 0.98821 0.0
H889 H 0.22514 0.90493 0.01638 0.0
C890 C 0.84387 0.8713 0.95676 0.0
C891 C 0.80044 0.87434 0.98832 0.0
C892 C 0.91682 0.87228 0.96021 0.0
C893 C 0.95032 0.87598 0.99532 0.0
C894 C 0.90697 0.8788 0.02702 0.0
C895 C 0.83348 0.87788 0.02354 0.0
C896 C 0.02979 0.87677 -0.00193 0.0
C897 C 0.06638 0.88325 0.98051 0.0
C898 C 0.07022 0.87113 0.01742 0.0
C899 C 0.03747 0.86349 0.03494 0.0
C900 C 0.04819 0.86664 0.07334 0.0
C901 C 1.01691 0.85948 0.08997 0.0
C902 C 0.9751 0.84911 0.06842 0.0
C903 C 0.96471 0.84584 0.03013 0.0
C904 C 0.99595 0.85295 0.01335 0.0
C905 C 0.36583 0.88532 0.04316 0.0
C906 C 0.40935 0.88206 0.01153 0.0
C907 C 0.29305 0.88391 0.03955 0.0
C908 C 0.25983 0.87956 0.00419 0.0
C909 C 0.30327 0.87632 0.97232 0.0
C910 C 0.37668 0.87755 0.97592 0.0
C911 C 0.18043 0.87873 0.00137 0.0
C912 C 0.14384 0.87227 0.01905 0.0
C913 C 0.13999 0.8844 0.98213 0.0
C914 C 0.17229 0.89229 0.96523 0.0
C915 C 0.15812 0.88985 0.92759 0.0
C916 C 0.18616 0.8976 0.91207 0.0
C917 C 0.22876 0.90781 0.93387 0.0
C918 C 0.24312 0.91032 0.9713 0.0
C919 C 0.21468 0.90267 0.98707 0.0
H920 H 0.25069 0.91376 0.92173 0.0
H921 H 0.95087 0.8436 0.08136 0.0
H922 H 0.26019 0.13344 0.96872 0.0
H923 H 0.13353 0.13127 0.9633 0.0
H924 H 0.11984 0.14248 0.08295 0.0
H925 H 0.24627 0.14371 0.08754 0.0
H926 H 1.02638 0.12699 0.05761 0.0
H927 H 0.07565 0.16237 0.02916 0.0
H928 H 0.13106 0.17355 0.9954 0.0
H929 H 0.0412 0.14702 0.89131 0.0
H930 H 0.98583 0.13561 0.92441 0.0
H931 H 0.65774 0.13847 0.06902 0.0
H932 H 0.78407 0.14174 0.07518 0.0
H933 H 0.80227 0.12547 0.95423 0.0
H934 H 0.6763 0.12257 0.94838 0.0
H935 H 0.89186 0.1439 0.98105 0.0
H936 H 0.8423 0.10882 0.01341 0.0
H937 H 0.78263 0.09931 0.05063 0.0
H938 H 0.87042 0.12765 0.15241 0.0
H939 H 0.9302 0.13738 0.11579 0.0
C940 C 0.23025 0.13517 0.99372 0.0
C941 C 0.26452 0.13826 0.02833 0.0
C942 C 0.15687 0.1342 0.99084 0.0
C943 C 0.11446 0.13689 0.02281 0.0
C944 C 0.14929 0.1402 0.05745 0.0
C945 C 0.22239 0.14095 0.06015 0.0
C946 C 0.03479 0.13633 0.02069 0.0
C947 C 0.99762 0.1309 0.04116 0.0
C948 C 0.99457 0.14117 -0.00093 0.0
C949 C 1.02719 0.14807 0.97919 0.0
C950 C 0.06799 0.15889 -0.00096 0.0
C951 C 0.09936 0.16527 0.98003 0.0
C952 C 0.08981 0.16098 0.94122 0.0
C953 C 0.04863 0.15032 0.92136 0.0
C954 C 1.01719 0.1439 0.94023 0.0
C955 C 0.68846 0.13595 0.0438 0.0
C956 C 0.65578 0.13079 0.00821 0.0
C957 C 0.76148 0.13759 0.04724 0.0
C958 C 0.80481 0.13375 0.01516 0.0
C959 C 0.77161 0.12865 0.97969 0.0
C960 C 0.69894 0.12703 0.97631 0.0
C961 C 0.8841 0.13462 0.01796 0.0
C962 C 0.92102 0.14006 -0.00246 0.0
C963 C 0.924 0.13 0.04012 0.0
C964 C 0.89035 0.12386 0.06191 0.0
C965 C 0.84885 0.11301 0.04373 0.0
C966 C 0.81498 0.10759 0.06471 0.0
C967 C 0.82264 0.11289 0.10386 0.0
C968 C 0.86455 0.12356 0.12209 0.0
C969 C 0.89855 0.12902 0.10123 0.0
H970 H 0.79616 0.10871 0.12007 0.0
H971 H 0.11419 0.16592 0.92655 0.0
H972 H 0.40206 0.12823 0.4437 0.0
H973 H 0.27667 0.1308 0.45118 0.0
H974 H 0.29728 0.13656 0.56688 0.0
H975 H 0.42375 0.13503 0.55986 0.0
H976 H 0.1869 0.11772 0.45718 0.0
H977 H 0.17914 0.1424 0.61158 0.0
H978 H 0.2191 0.16074 0.66888 0.0
H979 H 0.22976 0.18346 0.60692 0.0
H980 H 0.19382 0.16503 0.54889 0.0
H981 H 0.83756 0.13711 0.57986 0.0
H982 H 0.96296 0.13487 0.57254 0.0
H983 H 0.94164 0.12837 0.45623 0.0
H984 H 0.81507 0.12953 0.4631 0.0
H985 H 0.05261 0.14768 0.56617 0.0
H986 H 0.05982 0.12266 0.41148 0.0
H987 H 1.02063 0.10412 0.3545 0.0
H988 H 1.01167 0.08174 0.41755 0.0
H989 H 0.04686 0.10037 0.47525 0.0
C990 C 0.38002 0.1305 0.47118 0.0
C991 C 0.42383 0.13171 0.50132 0.0
C992 C 0.30745 0.13183 0.47545 0.0
C993 C 0.27466 0.13399 0.50979 0.0
C994 C 0.31894 0.1354 0.5403 0.0
C995 C 0.39222 0.13443 0.53625 0.0
C996 C 0.19519 0.1336 0.51177 0.0
C997 C 0.15812 0.12447 0.48107 0.0
C998 C 0.15474 0.14189 0.54283 0.0
C999 C 0.18568 0.15232 0.57591 0.0
C1000 C 0.1918 0.15124 0.61011 0.0
C1001 C 0.21388 0.16163 0.64264 0.0
C1002 C 0.22773 0.17323 0.64146 0.0
C1003 C 0.22024 0.17441 0.60765 0.0
C1004 C 0.20015 0.16395 0.57481 0.0
C1005 C 0.85948 0.13483 0.55235 0.0
C1006 C 0.81536 0.1333 0.52201 0.0
C1007 C 0.93208 0.13366 0.54814 0.0
C1008 C 0.96472 0.13134 0.51365 0.0
C1009 C 0.9202 0.12967 0.48299 0.0
C1010 C 0.84685 0.13047 0.48697 0.0
C1011 C 0.04422 0.13178 0.51159 0.0
C1012 C 0.08132 0.14091 0.54228 0.0
C1013 C 0.08471 0.12346 0.48055 0.0
C1014 C 0.05399 0.11293 0.44767 0.0
C1015 C 0.04765 0.11385 0.41326 0.0
C1016 C 1.02602 0.10335 0.38092 0.0
C1017 C 1.01286 0.09179 0.38249 0.0
C1018 C 1.02062 0.09076 0.41651 0.0
C1019 C 0.04027 0.10133 0.44916 0.0
H1020 H 0.9971 0.08361 0.35732 0.0
H1021 H 0.24383 0.18132 0.66677 0.0
H1022 H 0.62457 0.88096 0.45872 0.0
H1023 H 0.75085 0.87967 0.45365 0.0
H1024 H 0.76432 0.88071 0.56476 0.0
H1025 H 0.63879 0.8835 0.57106 0.0
H1026 H 0.85991 0.89305 0.56547 0.0
H1027 H 0.84121 0.84914 0.45961 0.0
H1028 H 0.80127 0.8329 0.39829 0.0
H1029 H 0.82636 0.85921 0.34895 0.0
H1030 H 0.87192 0.87528 0.40945 0.0
H1031 H 0.2336 0.88212 0.55332 0.0
H1032 H 0.10807 0.88279 0.56124 0.0
H1033 H 0.08202 0.87894 0.44742 0.0
H1034 H 0.2064 0.87631 0.43838 0.0
H1035 H 0.9908 0.86721 0.44981 0.0
H1036 H 1.00607 0.91225 0.5663 0.0
H1037 H 0.04467 0.92623 0.63112 0.0
H1038 H 1.02427 0.89542 0.66294 0.0
H1039 H 0.98149 0.88153 0.59915 0.0
C1040 C 0.65446 0.88056 0.48162 0.0
C1041 C 0.6207 0.88198 0.51492 0.0
C1042 C 0.72777 0.87969 0.47865 0.0
C1043 C 0.7702 0.87976 0.50838 0.0
C1044 C 0.73527 0.88072 0.54112 0.0
C1045 C 0.66253 0.88212 0.54462 0.0
C1046 C 0.84995 0.8798 0.50707 0.0
C1047 C 0.88797 0.8873 0.53992 0.0
C1048 C 0.88975 0.8726 0.4744 0.0
C1049 C 0.85778 0.86347 0.43911 0.0
C1050 C 0.83727 0.85149 0.43576 0.0
C1051 C 0.81421 0.84229 0.40109 0.0
C1052 C 0.80924 0.84512 0.36994 0.0
C1053 C 0.82938 0.85707 0.37317 0.0
C1054 C 0.85481 0.86616 0.40747 0.0
C1055 C 0.2008 0.88158 0.53022 0.0
C1056 C 0.23096 0.87941 0.49537 0.0
C1057 C 0.12759 0.88216 0.53487 0.0
C1058 C 0.08153 0.88115 0.50532 0.0
C1059 C 0.11322 0.87948 0.47104 0.0
C1060 C 0.18557 0.87818 0.46585 0.0
C1061 C 1.00164 0.88088 0.50788 0.0
C1062 C 0.96324 0.87324 0.47524 0.0
C1063 C 0.96166 0.88781 0.54096 0.0
C1064 C 0.99305 0.89579 0.5778 0.0
C1065 C 1.01092 0.90844 0.58703 0.0
C1066 C 0.03283 0.91637 0.62362 0.0
C1067 C 0.03858 0.91164 0.6508 0.0
C1068 C 1.02069 0.89904 0.64176 0.0
C1069 C 0.99687 0.89119 0.60558 0.0
H1070 H 0.05604 0.91778 0.67898 0.0
H1071 H 0.7907 0.838 0.34322 0.0
H1072 H 0.1407 0.56014 0.06868 0.0
H1073 H 0.12233 0.53998 0.07248 0.0
H1074 H 0.97444 0.5289 0.98149 0.0
H1075 H 0.99414 0.54889 0.97648 0.0
H1076 H 0.92808 0.5239 0.04073 0.0
H1077 H 0.13195 0.51607 0.96455 0.0
H1078 H 0.2499 0.52027 0.94881 0.0
H1079 H 0.33068 0.51703 0.04648 0.0
H1080 H 0.21297 0.51299 0.06313 0.0
H1081 H 0.90057 0.45884 0.0022 0.0
H1082 H 0.92173 0.47873 -0.00287 0.0
H1083 H 0.08319 0.48813 0.08099 0.0
H1084 H 0.06222 0.46817 0.08622 0.0
H1085 H 0.12302 0.49413 0.02566 0.0
H1086 H 0.92081 0.50212 0.10253 0.0
H1087 H 0.80324 0.4982 0.11951 0.0
H1088 H 0.71962 0.50153 0.02254 0.0
H1089 H 0.83691 0.5053 0.00467 0.0
C1090 C 0.10489 0.55339 0.04903 0.0
C1091 C 0.06942 0.55623 0.02202 0.0
C1092 C 0.09419 0.54185 0.05142 0.0
C1093 C 0.04747 0.53283 0.02705 0.0
C1094 C 1.01074 0.5357 0.00064 0.0
C1095 C 1.02186 0.54721 -0.00203 0.0
C1096 C 0.03703 0.52043 0.02921 0.0
C1097 C 0.97052 0.51731 0.03691 0.0
C1098 C 0.09267 0.51195 0.02525 0.0
C1099 C 0.16352 0.51436 0.0153 0.0
C1100 C 0.17477 0.51637 0.98287 0.0
C1101 C 0.2416 0.5187 0.97374 0.0
C1102 C 0.29772 0.51895 -0.00331 0.0
C1103 C 0.28714 0.51685 0.02877 0.0
C1104 C 0.22038 0.51453 0.03804 0.0
C1105 C 0.94032 0.46516 0.01982 0.0
C1106 C 0.97912 0.46191 0.04496 0.0
C1107 C 0.95242 0.47656 0.01685 0.0
C1108 C 1.00326 0.48511 0.03916 0.0
C1109 C 0.0435 0.48175 0.06352 0.0
C1110 C 0.03156 0.4703 0.06642 0.0
C1111 C 1.01392 0.49755 0.03715 0.0
C1112 C 0.0805 0.5007 0.02951 0.0
C1113 C 0.95838 0.5061 0.04137 0.0
C1114 C 0.88775 0.50386 0.05206 0.0
C1115 C 0.87743 0.50192 0.08466 0.0
C1116 C 0.81082 0.49974 0.09447 0.0
C1117 C 0.75402 0.49958 0.07206 0.0
C1118 C 0.76369 0.50164 0.03984 0.0
C1119 C 0.83021 0.5038 0.02987 0.0
H1120 H 0.70249 0.4979 0.07971 0.0
H1121 H 0.34943 0.52075 0.98957 0.0
H1122 H 1.02176 0.46304 0.5581 0.0
H1123 H 1.01057 0.48495 0.56546 0.0
H1124 H 0.07361 0.47308 0.45007 0.0
H1125 H 0.08471 0.45119 0.44251 0.0
H1126 H 0.1397 0.49408 0.49319 0.0
H1127 H 0.90282 0.48086 0.47878 0.0
H1128 H 0.7966 0.47193 0.49255 0.0
H1129 H 0.79488 0.50156 0.60529 0.0
H1130 H 0.90172 0.51057 0.59236 0.0
H1131 H 0.04083 0.55111 0.47761 0.0
H1132 H 0.04981 0.5291 0.46958 0.0
H1133 H 1.0021 0.54116 0.58701 0.0
H1134 H 0.99489 0.5632 0.59563 0.0
H1135 H 0.92755 0.5201 0.54245 0.0
H1136 H 0.16571 0.53319 0.55586 0.0
H1137 H 0.27095 0.54205 0.54087 0.0
H1138 H 0.2685 0.51247 0.42806 0.0
H1139 H 0.16258 0.50353 0.44223 0.0
C1140 C 0.03233 0.46504 0.5341 0.0
C1141 C 0.05431 0.45527 0.49972 0.0
C1142 C 1.02602 0.47762 0.53837 0.0
C1143 C 0.04082 0.48075 0.50826 0.0
C1144 C 0.06221 0.47099 0.47385 0.0
C1145 C 0.06867 0.45844 0.46959 0.0
C1146 C 0.0354 0.49419 0.51272 0.0
C1147 C 0.09286 0.49969 0.50346 0.0
C1148 C 0.97495 0.50169 0.52684 0.0
C1149 C 0.91068 0.49631 0.53471 0.0
C1150 C 0.88012 0.48541 0.50661 0.0
C1151 C 0.81974 0.48035 0.51424 0.0
C1152 C 0.78912 0.48615 0.5498 0.0
C1153 C 0.81873 0.49706 0.57778 0.0
C1154 C 0.87916 0.50216 0.5703 0.0
C1155 C 0.03319 0.54916 0.50194 0.0
C1156 C 1.01698 0.55907 0.53731 0.0
C1157 C 0.03803 0.53651 0.49722 0.0
C1158 C 1.02682 0.53341 0.5277 0.0
C1159 C 1.01055 0.54325 0.56297 0.0
C1160 C 1.00615 0.55589 0.56778 0.0
C1161 C 0.03178 0.51996 0.52291 0.0
C1162 C 0.97428 0.51447 0.53213 0.0
C1163 C 0.09203 0.51244 0.50856 0.0
C1164 C 0.15579 0.51777 0.5 0.0
C1165 C 0.18727 0.52863 0.52776 0.0
C1166 C 0.24711 0.53366 0.51943 0.0
C1167 C 0.27628 0.52785 0.4835 0.0
C1168 C 0.24577 0.51698 0.45586 0.0
C1169 C 0.18586 0.51192 0.46403 0.0
H1170 H 0.32262 0.53175 0.47711 0.0
H1171 H 0.74237 0.48221 0.55566 0.0
H1172 H 0.49046 0.96049 0.03591 0.0
H1173 H 0.45094 0.97862 0.02435 0.0
H1174 H 0.65672 0.98263 0.98837 0.0
H1175 H 0.69617 0.9646 -0.00025 0.0
H1176 H 0.60953 1.00507 0.03843 0.0
H1177 H 0.52069 0.9711 0.92566 0.0
H1178 H 0.45317 0.95171 0.88939 0.0
H1179 H 0.26624 0.97088 0.94355 0.0
H1180 H 0.33282 0.99036 0.98052 0.0
H1181 H 0.5414 0.04955 0.96134 0.0
H1182 H 0.57502 0.03121 0.97303 0.0
H1183 H 0.36419 0.02759 0.00324 0.0
H1184 H 0.33034 0.04582 0.99127 0.0
H1185 H 0.41097 1.00509 0.95779 0.0
H1186 H 0.49714 0.03901 0.06996 0.0
H1187 H 0.56304 0.05848 0.10755 0.0
H1188 H 0.75266 0.0396 0.05661 0.0
H1189 H 0.68776 0.02005 0.01834 0.0
C1190 C 0.52683 0.96507 0.02479 0.0
C1191 C 0.59659 0.96114 0.01903 0.0
C1192 C 0.50428 0.97548 0.01831 0.0
C1193 C 0.5509 0.98208 0.00561 0.0
C1194 C 0.61984 0.97783 -0.00147 0.0
C1195 C 0.64231 0.96748 0.00501 0.0
C1196 C 0.52922 0.99371 0.00106 0.0
C1197 C 0.56662 1.00502 0.0204 0.0
C1198 C 0.47199 0.99382 0.97847 0.0
C1199 C 0.43185 0.98214 0.95613 0.0
C1200 C 0.46527 0.97115 0.93005 0.0
C1201 C 0.42715 0.96015 0.90932 0.0
C1202 C 0.35549 0.96005 0.91424 0.0
C1203 C 0.32176 0.97097 0.93981 0.0
C1204 C 0.35966 0.98199 0.96063 0.0
C1205 C 0.50248 0.04499 0.9711 0.0
C1206 C 0.43314 0.04916 0.97526 0.0
C1207 C 0.5217 0.03446 0.97773 0.0
C1208 C 0.47225 0.02797 0.98919 0.0
C1209 C 0.40334 0.03233 0.99418 0.0
C1210 C 0.38406 0.04278 0.98736 0.0
C1211 C 0.49167 0.01645 0.99493 0.0
C1212 C 0.45382 1.00516 0.97588 0.0
C1213 C 0.54826 0.01637 0.01798 0.0
C1214 C 0.58749 0.0281 0.04102 0.0
C1215 C 0.55283 0.03904 0.06656 0.0
C1216 C 0.59001 0.05009 0.08803 0.0
C1217 C 0.66197 0.05029 0.0844 0.0
C1218 C 0.69691 0.03944 0.05936 0.0
C1219 C 0.65996 0.02836 0.0378 0.0
H1220 H 0.69066 0.05885 0.10104 0.0
H1221 H 0.32607 0.95152 0.89817 0.0
H1222 H 0.45593 0.06181 0.57444 0.0
H1223 H 0.46663 0.04034 0.56942 0.0
H1224 H 0.57486 0.02884 0.46401 0.0
H1225 H 0.55921 0.05013 0.46721 0.0
H1226 H 0.49334 0.01073 0.45732 0.0
H1227 H 0.65769 0.03464 0.5526 0.0
H1228 H 0.69902 0.05217 0.61123 0.0
H1229 H 0.55581 0.04128 0.67552 0.0
H1230 H 0.51298 0.02377 0.6172 0.0
H1231 H 0.62673 0.95322 0.45466 0.0
H1232 H 0.61511 0.97459 0.45877 0.0
H1233 H 0.48243 0.98496 0.55548 0.0
H1234 H 0.49511 0.96359 0.55231 0.0
H1235 H 0.57755 1.00339 0.56603 0.0
H1236 H 0.41644 0.97883 0.46798 0.0
H1237 H 0.38328 0.96076 0.40854 0.0
H1238 H 0.53019 0.97262 0.34819 0.0
H1239 H 0.56509 0.99065 0.4074 0.0
C1240 C 0.48116 0.05474 0.54977 0.0
C1241 C 0.50639 0.0579 0.52118 0.0
C1242 C 0.48835 0.04241 0.54728 0.0
C1243 C 0.52287 0.03288 0.51669 0.0
C1244 C 0.54828 0.03596 0.48808 0.0
C1245 C 0.54005 0.04827 0.49023 0.0
C1246 C 0.5315 0.01972 0.51441 0.0
C1247 C 0.51274 0.00917 0.48099 0.0
C1248 C 0.5557 0.01751 0.54534 0.0
C1249 C 0.58171 0.02796 0.58049 0.0
C1250 C 0.63472 0.03603 0.57922 0.0
C1251 C 0.65845 0.04596 0.61239 0.0
C1252 C 0.62995 0.04786 0.64706 0.0
C1253 C 0.57779 0.0398 0.64864 0.0
C1254 C 0.55382 0.02987 0.61554 0.0
C1255 C 0.59501 0.95996 0.47695 0.0
C1256 C 0.56123 0.95644 0.50288 0.0
C1257 C 0.58808 0.97224 0.47907 0.0
C1258 C 0.54706 0.98142 0.5071 0.0
C1259 C 0.51402 0.97806 0.53339 0.0
C1260 C 0.52078 0.96573 0.53125 0.0
C1261 C 0.53922 0.99451 0.50912 0.0
C1262 C 0.55817 1.00501 0.54244 0.0
C1263 C 0.51613 0.99666 0.47797 0.0
C1264 C 0.49378 0.98603 0.44219 0.0
C1265 C 0.44192 0.97755 0.44207 0.0
C1266 C 0.42282 0.96732 0.40842 0.0
C1267 C 0.45472 0.96553 0.37463 0.0
C1268 C 0.50557 0.97401 0.3744 0.0
C1269 C 0.52499 0.98424 0.40799 0.0
H1270 H 0.43997 0.95758 0.34862 0.0
H1271 H 0.64836 0.05555 0.67272 0.0
H1272 H 0.28092 0.30531 0.98325 0.0
H1273 H 0.33217 0.28805 0.9956 0.0
H1274 H 0.12803 0.27686 0.01404 0.0
H1275 H 0.07719 0.29414 0.00252 0.0
H1276 H 0.21646 0.27452 0.06257 0.0
H1277 H 0.21144 0.26168 0.92874 0.0
H1278 H 0.23705 0.26356 0.86984 0.0
H1279 H 0.4554 0.26279 0.89066 0.0
H1280 H 0.43105 0.26108 0.94999 0.0
H1281 H 0.29643 0.21175 0.0399 0.0
H1282 H 0.24573 0.22925 0.02858 0.0
H1283 H 0.45022 0.24044 0.01067 0.0
H1284 H 0.50055 0.22292 0.02115 0.0
H1285 H 0.36183 0.24282 0.96205 0.0
H1286 H 0.36638 0.25553 0.09589 0.0
H1287 H 0.34023 0.25358 0.15464 0.0
H1288 H 0.12207 0.25451 0.13358 0.0
H1289 H 0.14696 0.25629 0.07441 0.0
C1290 C 0.24728 0.29934 0.99077 0.0
C1291 C 0.17499 0.30103 0.99158 0.0
C1292 C 0.27647 0.28938 -0.00257 0.0
C1293 C 0.23391 0.28094 0.00504 0.0
C1294 C 0.1621 0.28313 0.00801 0.0
C1295 C 0.13305 0.29301 0.00129 0.0
C1296 C 0.2631 0.2695 0.0083 0.0
C1297 C 0.24768 0.26754 0.04039 0.0
C1298 C 0.30466 0.2604 0.97969 0.0
C1299 C 0.31942 0.26139 0.94399 0.0
C1300 C 0.26492 0.26201 0.9209 0.0
C1301 C 0.2792 0.26303 0.88742 0.0
C1302 C 0.34781 0.26333 0.87657 0.0
C1303 C 0.40229 0.26258 0.89914 0.0
C1304 C 0.38828 0.26158 0.93268 0.0
C1305 C 0.3303 0.21779 0.0328 0.0
C1306 C 0.40256 0.216 0.03177 0.0
C1307 C 0.30141 0.22789 0.02672 0.0
C1308 C 0.34421 0.23637 0.01947 0.0
C1309 C 0.41598 0.23414 0.01644 0.0
C1310 C 0.44475 0.22412 0.02259 0.0
C1311 C 0.31523 0.24784 0.01633 0.0
C1312 C 0.33066 0.24981 0.98425 0.0
C1313 C 0.2736 0.25694 0.04493 0.0
C1314 C 0.25854 0.25591 0.08053 0.0
C1315 C 0.31284 0.25522 0.10365 0.0
C1316 C 0.29825 0.25416 0.13704 0.0
C1317 C 0.22954 0.25389 0.14778 0.0
C1318 C 0.17527 0.2547 0.12519 0.0
C1319 C 0.18958 0.25574 0.09173 0.0
H1320 H 0.21834 0.25307 0.17365 0.0
H1321 H 0.35877 0.26412 0.85064 0.0
H1322 H 0.56119 0.78835 0.98615 0.0
H1323 H 0.61059 0.77122 -0.00136 0.0
H1324 H 0.81649 0.78472 0.99366 0.0
H1325 H 0.76681 0.80177 0.97971 0.0
H1326 H 0.81109 0.75959 0.9539 0.0
H1327 H 0.74294 0.78808 0.07793 0.0
H1328 H 0.66471 0.80246 0.12745 0.0
H1329 H 0.52522 0.77151 0.10682 0.0
H1330 H 0.6021 0.75698 0.05674 0.0
H1331 H 0.97265 0.72088 0.03349 0.0
H1332 H 0.92914 0.73787 0.01795 0.0
H1333 H 0.72102 0.72369 0.01151 0.0
H1334 H 0.76477 0.70659 0.02702 0.0
H1335 H 0.73109 0.74945 0.05785 0.0
H1336 H 0.80173 0.72109 0.93281 0.0
H1337 H 0.88246 0.70706 0.88413 0.0
H1338 H 1.02162 0.73833 0.90886 0.0
H1339 H 0.94214 0.75252 0.95808 0.0
C1340 C 0.61706 0.78774 0.9879 0.0
C1341 C 0.66003 0.79641 0.98166 0.0
C1342 C 0.64532 0.77797 0.99536 0.0
C1343 C 0.71743 0.77665 -0.00261 0.0
C1344 C 0.76068 0.7855 0.99224 0.0
C1345 C 0.73226 0.79533 0.98467 0.0
C1346 C 0.7469 0.76572 0.00334 0.0
C1347 C 0.79446 0.75752 0.97704 0.0
C1348 C 0.72424 0.76277 0.03301 0.0
C1349 C 0.67806 0.77146 0.06333 0.0
C1350 C 0.69534 0.78436 0.08375 0.0
C1351 C 0.65127 0.79253 0.11196 0.0
C1352 C 0.58996 0.78791 0.12022 0.0
C1353 C 0.5727 0.77508 0.10036 0.0
C1354 C 0.61655 0.76687 0.07209 0.0
C1355 C 0.91781 0.7212 0.02784 0.0
C1356 C 0.87213 0.71236 0.03124 0.0
C1357 C 0.89296 0.73093 0.019 0.0
C1358 C 0.82172 0.7321 0.01356 0.0
C1359 C 0.7762 0.723 0.01559 0.0
C1360 C 0.80124 0.71315 0.02405 0.0
C1361 C 0.79467 0.74329 0.00824 0.0
C1362 C 0.74772 0.75155 0.03476 0.0
C1363 C 0.8184 0.74635 0.97901 0.0
C1364 C 0.86626 0.73784 0.9494 0.0
C1365 C 0.84982 0.72495 0.9281 0.0
C1366 C 0.89531 0.71697 0.90036 0.0
C1367 C 0.95722 0.72179 0.89348 0.0
C1368 C 0.97369 0.73461 0.91426 0.0
C1369 C 0.92841 0.74262 0.94206 0.0
H1370 H 0.99235 0.7156 0.87198 0.0
H1371 H 0.5559 0.79426 0.14205 0.0
H1372 H 0.27934 0.70852 0.53199 0.0
H1373 H 0.32255 0.72564 0.51682 0.0
H1374 H 0.11582 0.74117 0.52896 0.0
H1375 H 0.07251 0.72399 0.54297 0.0
H1376 H 0.17651 0.74353 0.4729 0.0
H1377 H 0.24021 0.75307 0.60075 0.0
H1378 H 0.29518 0.74903 0.65146 0.0
H1379 H 0.49445 0.74622 0.60012 0.0
H1380 H 0.44048 0.75007 0.54879 0.0
H1381 H 0.25897 0.80601 0.49642 0.0
H1382 H 0.21957 0.78874 0.51197 0.0
H1383 H 0.42549 0.77265 0.49157 0.0
H1384 H 0.46484 0.78987 0.47632 0.0
H1385 H 0.36715 0.7705 0.55141 0.0
H1386 H 0.30232 0.76129 0.42396 0.0
H1387 H 0.24654 0.76559 0.37392 0.0
H1388 H 0.04788 0.76805 0.42556 0.0
H1389 H 0.10268 0.76394 0.47625 0.0
C1390 C 0.24297 0.71543 0.53056 0.0
C1391 C 0.17257 0.71494 0.53905 0.0
C1392 C 0.26781 0.72532 0.52235 0.0
C1393 C 0.22281 0.73494 0.52254 0.0
C1394 C 0.15192 0.73399 0.52887 0.0
C1395 C 0.1272 0.72416 0.53703 0.0
C1396 C 0.2491 0.74624 0.51755 0.0
C1397 C 0.21771 0.74948 0.49041 0.0
C1398 C 0.30363 0.754 0.53986 0.0
C1399 C 0.33621 0.75172 0.57073 0.0
C1400 C 0.29568 0.7515 0.60013 0.0
C1401 C 0.32666 0.74926 0.629 0.0
C1402 C 0.39824 0.74733 0.62896 0.0
C1403 C 0.439 0.74768 0.60008 0.0
C1404 C 0.40825 0.7499 0.5711 0.0
C1405 C 0.29612 0.79896 0.49622 0.0
C1406 C 0.36496 0.79929 0.48505 0.0
C1407 C 0.27345 0.78901 0.5047 0.0
C1408 C 0.31924 0.77922 0.50233 0.0
C1409 C 0.38897 0.78001 0.49347 0.0
C1410 C 0.41143 0.78987 0.48473 0.0
C1411 C 0.29421 0.7678 0.50697 0.0
C1412 C 0.32592 0.76454 0.53397 0.0
C1413 C 0.2398 0.76004 0.48464 0.0
C1414 C 0.2067 0.76244 0.4541 0.0
C1415 C 0.24681 0.76285 0.4248 0.0
C1416 C 0.21537 0.76523 0.3963 0.0
C1417 C 0.14374 0.76713 0.39661 0.0
C1418 C 0.10338 0.7666 0.42539 0.0
C1419 C 0.1346 0.76424 0.454 0.0
H1420 H 0.11948 0.76897 0.37452 0.0
H1421 H 0.42213 0.7456 0.65134 0.0
H1422 H 0.99849 0.28948 0.48363 0.0
H1423 H 0.95065 0.27223 0.49591 0.0
H1424 H 0.74355 0.28472 0.48648 0.0
H1425 H 0.79159 0.30215 0.47423 0.0
H1426 H 0.75226 0.27702 0.54291 0.0
H1427 H 0.81834 0.25965 0.41287 0.0
H1428 H 0.89764 0.25534 0.35967 0.0
H1429 H 0.03682 0.23567 0.40243 0.0
H1430 H 0.95881 0.24002 0.45622 0.0
H1431 H 0.58548 0.22103 0.52497 0.0
H1432 H 0.62947 0.23795 0.50974 0.0
H1433 H 0.83889 0.22532 0.51334 0.0
H1434 H 0.79451 0.20811 0.52776 0.0
H1435 H 0.82732 0.23311 0.45896 0.0
H1436 H 0.76386 0.25075 0.58941 0.0
H1437 H 0.68615 0.25515 0.6433 0.0
H1438 H 0.54403 0.27445 0.60076 0.0
H1439 H 0.62044 0.26999 0.54629 0.0
C1440 C 0.94268 0.28863 0.48439 0.0
C1441 C 0.89889 0.29713 0.47745 0.0
C1442 C 0.91535 0.27871 0.49131 0.0
C1443 C 0.84338 0.27691 0.4912 0.0
C1444 C 0.79928 0.2858 0.4864 0.0
C1445 C 0.82675 0.29581 0.47957 0.0
C1446 C 0.81484 0.26557 0.49507 0.0
C1447 C 0.76788 0.26742 0.52418 0.0
C1448 C 0.83631 0.253 0.47126 0.0
C1449 C 0.883 0.25026 0.43875 0.0
C1450 C 0.86608 0.25448 0.41107 0.0
C1451 C 0.91077 0.25202 0.38079 0.0
C1452 C 0.9723 0.24526 0.37772 0.0
C1453 C 0.98917 0.24092 0.40487 0.0
C1454 C 0.94471 0.24337 0.43524 0.0
C1455 C 0.64089 0.22173 0.52188 0.0
C1456 C 0.68656 0.21327 0.52776 0.0
C1457 C 0.66608 0.23149 0.51347 0.0
C1458 C 0.73776 0.23321 0.5114 0.0
C1459 C 0.7834 0.2243 0.51506 0.0
C1460 C 0.75804 0.21442 0.52312 0.0
C1461 C 0.76476 0.24455 0.50687 0.0
C1462 C 0.8115 0.24271 0.47765 0.0
C1463 C 0.74329 0.25714 0.53068 0.0
C1464 C 0.69757 0.25993 0.56359 0.0
C1465 C 0.71582 0.25586 0.59142 0.0
C1466 C 0.67203 0.25837 0.62208 0.0
C1467 C 0.61011 0.26504 0.6254 0.0
C1468 C 0.59196 0.26926 0.59812 0.0
C1469 C 0.63551 0.26675 0.56736 0.0
H1470 H 0.57627 0.26698 0.64916 0.0
H1471 H 1.00684 0.24337 0.35426 0.0
H1472 H 0.99999 0.40295 0.13266 0.0
H1473 H 0.97666 0.40405 0.19541 0.0
H1474 H 0.08675 0.36874 0.16571 0.0
H1475 H 0.10937 0.36745 0.10296 0.0
H1476 H 0.90801 0.38556 0.21613 0.0
H1477 H 0.18695 0.37371 0.2451 0.0
H1478 H 0.30657 0.37605 0.22703 0.0
H1479 H 0.24534 0.40881 0.21024 0.0
H1480 H 0.12576 0.40681 0.2289 0.0
H1481 H 0.93113 0.3632 0.35897 0.0
H1482 H 0.94714 0.36579 0.30087 0.0
H1483 H 1.01988 0.40404 0.36567 0.0
H1484 H 1.00355 0.40143 0.42394 0.0
H1485 H 0.10521 0.38872 0.30143 0.0
H1486 H 0.86911 0.40174 0.33325 0.0
H1487 H 0.74944 0.39945 0.35127 0.0
H1488 H 0.72373 0.36577 0.24818 0.0
H1489 H 0.84372 0.36773 0.22983 0.0
C1490 C 1.01917 0.39542 0.13949 0.0
C1491 C 0.05672 0.38513 0.11283 0.0
C1492 C 1.00544 0.39603 0.17525 0.0
C1493 C 0.03019 0.3865 0.1852 0.0
C1494 C 0.06741 0.37621 0.15862 0.0
C1495 C 0.0802 0.37549 0.12274 0.0
C1496 C 1.01872 0.38736 0.2236 0.0
C1497 C 0.95101 0.3863 0.23486 0.0
C1498 C 0.07486 0.38849 0.24816 0.0
C1499 C 0.1472 0.39002 0.23806 0.0
C1500 C 0.19911 0.38146 0.23779 0.0
C1501 C 0.26692 0.38272 0.22742 0.0
C1502 C 0.2835 0.39254 0.21737 0.0
C1503 C 0.2324 0.40117 0.2179 0.0
C1504 C 0.16458 0.39997 0.22835 0.0
C1505 C 0.95155 0.37205 0.36081 0.0
C1506 C 0.96756 0.38198 0.39592 0.0
C1507 C 0.95992 0.37359 0.32763 0.0
C1508 C 0.98496 0.38509 0.32895 0.0
C1509 C 1.0008 0.39507 0.36402 0.0
C1510 C 0.99126 0.39358 0.39725 0.0
C1511 C 0.99464 0.38662 0.29362 0.0
C1512 C 0.0621 0.38808 0.28286 0.0
C1513 C 0.93822 0.38594 0.26964 0.0
C1514 C 0.86566 0.38483 0.28031 0.0
C1515 C 0.83814 0.39379 0.31455 0.0
C1516 C 0.77021 0.39256 0.32481 0.0
C1517 C 0.72905 0.38246 0.30092 0.0
C1518 C 0.75569 0.37358 0.26667 0.0
C1519 C 0.82365 0.37476 0.25631 0.0
H1520 H 0.67649 0.38152 0.30893 0.0
H1521 H 0.33596 0.39348 0.20924 0.0
H1522 H 0.95838 0.61348 0.11048 0.0
H1523 H 0.98599 0.61351 0.17125 0.0
H1524 H 0.07235 0.65112 0.20966 0.0
H1525 H 0.04782 0.65092 0.14838 0.0
H1526 H 0.15106 0.63741 0.23302 0.0
H1527 H 0.90788 0.6459 0.23609 0.0
H1528 H 0.78723 0.64218 0.213 0.0
H1529 H 0.78694 0.60635 0.22008 0.0
H1530 H 0.90804 0.60976 0.24267 0.0
H1531 H 0.1402 0.65148 0.43011 0.0
H1532 H 0.12139 0.65175 0.36854 0.0
H1533 H 0.05419 0.61271 0.32278 0.0
H1534 H 0.07149 0.61255 0.38414 0.0
H1535 H 0.96603 0.62776 0.3042 0.0
H1536 H 0.21149 0.61973 0.30135 0.0
H1537 H 0.33152 0.62405 0.32522 0.0
H1538 H 0.32555 0.6601 0.3195 0.0
H1539 H 0.20503 0.65607 0.29612 0.0
C1540 C 0.98346 0.62176 0.13174 0.0
C1541 C 0.99952 0.63232 0.12462 0.0
C1542 C 0.99888 0.62179 0.16666 0.0
C1543 C 0.02995 0.63243 0.19549 0.0
C1544 C 0.04784 0.64283 0.18809 0.0
C1545 C 0.033 0.64276 0.15306 0.0
C1546 C 0.04316 0.63275 0.23338 0.0
C1547 C 0.11031 0.63547 0.24877 0.0
C1548 C 0.99038 0.63006 0.25391 0.0
C1549 C 0.91727 0.62804 0.24075 0.0
C1550 C 0.88225 0.63719 0.23249 0.0
C1551 C 0.81377 0.63514 0.21951 0.0
C1552 C 0.7795 0.62402 0.21499 0.0
C1553 C 0.81359 0.61495 0.22355 0.0
C1554 C 0.88214 0.61694 0.23647 0.0
C1555 C 0.12205 0.64293 0.40678 0.0
C1556 C 0.10926 0.63185 0.41174 0.0
C1557 C 0.11148 0.64308 0.37161 0.0
C1558 C 0.08712 0.6322 0.34085 0.0
C1559 C 0.07364 0.62119 0.34594 0.0
C1560 C 0.08476 0.62101 0.38095 0.0
C1561 C 0.07391 0.63233 0.3036 0.0
C1562 C 1.00668 0.62972 0.28841 0.0
C1563 C 0.12642 0.63524 0.28348 0.0
C1564 C 0.19898 0.63765 0.29736 0.0
C1565 C 0.23556 0.62862 0.30549 0.0
C1566 C 0.30372 0.63101 0.31887 0.0
C1567 C 0.33608 0.64236 0.32397 0.0
C1568 C 0.30038 0.65132 0.31559 0.0
C1569 C 0.23216 0.64899 0.30225 0.0
H1570 H 0.38886 0.64419 0.33433 0.0
H1571 H 0.72649 0.62244 0.20492 0.0
H1572 H 0.99782 0.61079 0.88212 0.0
H1573 H 1.01776 0.61074 0.82059 0.0
H1574 H 0.94467 0.64945 0.86336 0.0
H1575 H 0.92447 0.64953 0.92522 0.0
H1576 H 0.89346 0.63242 0.78823 0.0
H1577 H 0.10614 0.6456 0.85929 0.0
H1578 H 0.20085 0.64313 0.89808 0.0
H1579 H 0.26072 0.60785 0.80688 0.0
H1580 H 0.16526 0.60996 0.76782 0.0
H1581 H 1.01642 0.64948 0.64795 0.0
H1582 H 0.99106 0.64853 0.70723 0.0
H1583 H 0.11055 0.61392 0.6721 0.0
H1584 H 0.14004 0.61529 0.61335 0.0
H1585 H 0.13625 0.62809 0.74293 0.0
H1586 H 0.92741 0.61458 0.67081 0.0
H1587 H 0.82932 0.61594 0.63209 0.0
H1588 H 0.75987 0.65038 0.72336 0.0
H1589 H 0.85801 0.64935 0.76252 0.0
C1590 C 0.98434 0.61917 0.87824 0.0
C1591 C 0.95855 0.63008 0.90837 0.0
C1592 C 0.99642 0.61918 0.84313 0.0
C1593 C 0.98264 0.63008 0.83738 0.0
C1594 C 0.95534 0.64091 0.86715 0.0
C1595 C 0.94416 0.64096 0.90247 0.0
C1596 C 1.00013 0.63037 0.80089 0.0
C1597 C 0.94654 0.63163 0.77843 0.0
C1598 C 0.06925 0.62896 0.78773 0.0
C1599 C 0.12807 0.62787 0.81075 0.0
C1600 C 0.13917 0.63727 0.84759 0.0
C1601 C 0.193 0.63593 0.86963 0.0
C1602 C 0.23668 0.62532 0.85499 0.0
C1603 C 0.22677 0.61605 0.81821 0.0
C1604 C 0.1728 0.61731 0.7961 0.0
C1605 C 0.03861 0.64179 0.65296 0.0
C1606 C 0.08149 0.63261 0.62597 0.0
C1607 C 1.02301 0.64114 0.68681 0.0
C1608 C 0.04788 0.63104 0.69414 0.0
C1609 C 0.09066 0.62182 0.66724 0.0
C1610 C 0.10735 0.6226 0.63354 0.0
C1611 C 0.0295 0.63021 0.72995 0.0
C1612 C 0.083 0.62884 0.75243 0.0
C1613 C 0.96007 0.63138 0.74292 0.0
C1614 C 0.90046 0.63194 0.71953 0.0
C1615 C 0.89148 0.62249 0.68257 0.0
C1616 C 0.83586 0.62319 0.66054 0.0
C1617 C 0.78854 0.63325 0.67521 0.0
C1618 C 0.79661 0.6426 0.71201 0.0
C1619 C 0.85217 0.64196 0.73416 0.0
H1620 H 0.74554 0.63378 0.6581 0.0
H1621 H 0.27826 0.6243 0.87211 0.0
H1622 H 0.87841 0.3928 0.63297 0.0
H1623 H 0.89638 0.39287 0.69485 0.0
H1624 H 0.03455 0.36077 0.64535 0.0
H1625 H 1.01975 0.361 0.58388 0.0
H1626 H 0.93376 0.35975 0.70057 0.0
H1627 H 0.1077 0.38687 0.68406 0.0
H1628 H 0.14592 0.4046 0.67012 0.0
H1629 H 1.02741 0.43083 0.76356 0.0
H1630 H 0.9873 0.41319 0.77757 0.0
H1631 H 0.11552 0.36117 0.85992 0.0
H1632 H 0.08546 0.36047 0.79842 0.0
H1633 H 0.9891 0.39741 0.8534 0.0
H1634 H 1.01874 0.39808 0.9148 0.0
H1635 H 0.06272 0.39625 0.7957 0.0
H1636 H 0.8963 0.37013 0.81701 0.0
H1637 H 0.8549 0.35284 0.832 0.0
H1638 H 0.9483 0.32522 0.73099 0.0
H1639 H 0.99326 0.34238 0.7162 0.0
C1640 C 0.91332 0.38586 0.63527 0.0
C1641 C 0.94954 0.37721 0.6036 0.0
C1642 C 0.92282 0.38581 0.67058 0.0
C1643 C 0.96729 0.37689 0.67467 0.0
C1644 C 1.00012 0.36774 0.64277 0.0
C1645 C 0.99173 0.36795 0.60764 0.0
C1646 C 0.98336 0.37759 0.7125 0.0
C1647 C 0.96249 0.36764 0.72134 0.0
C1648 C 1.01927 0.38807 0.73978 0.0
C1649 C 0.04394 0.3987 0.73163 0.0
C1650 C 0.08928 0.3964 0.70143 0.0
C1651 C 0.11139 0.40644 0.69355 0.0
C1652 C 0.08915 0.41884 0.71596 0.0
C1653 C 0.04467 0.42122 0.74626 0.0
C1654 C 1.02219 0.41121 0.75416 0.0
C1655 C 0.0871 0.36903 0.85886 0.0
C1656 C 0.06868 0.37957 0.89216 0.0
C1657 C 0.07028 0.36867 0.8237 0.0
C1658 C 0.0341 0.37882 0.82122 0.0
C1659 C 1.01701 0.38947 0.85452 0.0
C1660 C 0.03411 0.38985 0.88961 0.0
C1661 C 1.0137 0.37832 0.78399 0.0
C1662 C 0.03372 0.38833 0.77518 0.0
C1663 C 0.97619 0.36796 0.75697 0.0
C1664 C 0.94873 0.35758 0.76562 0.0
C1665 C 0.90869 0.36038 0.79813 0.0
C1666 C 0.88448 0.3506 0.8066 0.0
C1667 C 0.8984 0.33794 0.78229 0.0
C1668 C 0.93734 0.33504 0.74971 0.0
C1669 C 0.96248 0.34479 0.74135 0.0
H1670 H 0.87912 0.33037 0.78873 0.0
H1671 H 0.10628 0.42659 0.70981 0.0
H1672 H 0.62734 0.86251 0.0976 0.0
H1673 H 0.60496 0.86295 0.1594 0.0
H1674 H 0.49486 0.89852 0.19264 0.0
H1675 H 0.52133 0.89847 0.13168 0.0
H1676 H 0.5614 0.89996 0.24926 0.0
H1677 H 0.41353 0.86768 0.16324 0.0
H1678 H 0.3846 0.84834 0.10623 0.0
H1679 H 0.51498 0.82607 0.14415 0.0
H1680 H 0.54561 0.84532 0.20112 0.0
H1681 H 0.39515 0.89644 0.40652 0.0
H1682 H 0.41511 0.8964 0.34496 0.0
H1683 H 0.55655 0.86482 0.31627 0.0
H1684 H 0.53683 0.86476 0.37753 0.0
H1685 H 0.46936 0.86153 0.25782 0.0
H1686 H 0.61572 0.89536 0.34481 0.0
H1687 H 0.63318 0.91502 0.40279 0.0
H1688 H 0.48966 0.93484 0.36273 0.0
H1689 H 0.47081 0.91524 0.30461 0.0
C1690 C 0.59865 0.87044 0.11823 0.0
C1691 C 0.57602 0.88045 0.1099 0.0
C1692 C 0.58532 0.87065 0.15349 0.0
C1693 C 0.54656 0.88061 0.18065 0.0
C1694 C 0.52475 0.8907 0.17237 0.0
C1695 C 0.53983 0.89067 0.13749 0.0
C1696 C 0.52875 0.88053 0.21757 0.0
C1697 C 0.54037 0.89158 0.25091 0.0
C1698 C 0.50171 0.86961 0.2202 0.0
C1699 C 0.48232 0.85797 0.18631 0.0
C1700 C 0.43629 0.85867 0.15934 0.0
C1701 C 0.41959 0.84772 0.12703 0.0
C1702 C 0.44803 0.83599 0.12154 0.0
C1703 C 0.49304 0.83517 0.14843 0.0
C1704 C 0.51006 0.84609 0.18075 0.0
C1705 C 0.43054 0.88949 0.38715 0.0
C1706 C 0.46407 0.88056 0.397 0.0
C1707 C 0.44195 0.88948 0.35194 0.0
C1708 C 0.48775 0.88066 0.32602 0.0
C1709 C 0.52081 0.87168 0.33569 0.0
C1710 C 0.50939 0.87167 0.37081 0.0
C1711 C 0.50241 0.88089 0.2891 0.0
C1712 C 0.4902 0.86987 0.25588 0.0
C1713 C 0.52744 0.8919 0.28651 0.0
C1714 C 0.54144 0.90382 0.32054 0.0
C1715 C 0.58783 0.90391 0.3484 0.0
C1716 C 0.59789 0.91503 0.3813 0.0
C1717 C 0.56221 0.92614 0.38651 0.0
C1718 C 0.51708 0.92621 0.35866 0.0
C1719 C 0.50679 0.9151 0.32571 0.0
H1720 H 0.56942 0.93469 0.41211 0.0
H1721 H 0.43511 0.82753 0.09649 0.0
H1722 H 0.47398 0.15226 0.15446 0.0
H1723 H 0.50701 0.15181 0.21394 0.0
H1724 H 0.59865 0.11471 0.15317 0.0
H1725 H 0.56573 0.11519 0.09341 0.0
H1726 H 0.52365 0.11523 0.21051 0.0
H1727 H 0.6997 0.14111 0.19543 0.0
H1728 H 0.74584 0.15857 0.18249 0.0
H1729 H 0.64349 0.1859 0.28083 0.0
H1730 H 0.5955 0.16859 0.29398 0.0
H1731 H 0.68818 0.11663 0.37649 0.0
H1732 H 0.67516 0.11655 0.31434 0.0
H1733 H 0.54919 0.1504 0.3627 0.0
H1734 H 0.55937 0.15028 0.42459 0.0
H1735 H 0.65197 0.1507 0.30992 0.0
H1736 H 0.46985 0.12409 0.32088 0.0
H1737 H 0.4219 0.10627 0.33142 0.0
H1738 H 0.54064 0.07978 0.2386 0.0
H1739 H 0.59032 0.09748 0.22795 0.0
C1740 C 0.50263 0.14417 0.1537 0.0
C1741 C 0.51857 0.13392 0.11921 0.0
C1742 C 0.52109 0.14385 0.18778 0.0
C1743 C 0.5564 0.13331 0.18814 0.0
C1744 C 0.57166 0.12297 0.15368 0.0
C1745 C 0.55287 0.12327 0.11955 0.0
C1746 C 0.57594 0.13302 0.22455 0.0
C1747 C 0.55287 0.12287 0.23193 0.0
C1748 C 0.61337 0.14306 0.25278 0.0
C1749 C 0.64362 0.15353 0.24558 0.0
C1750 C 0.68672 0.15084 0.21422 0.0
C1751 C 0.7132 0.16071 0.20683 0.0
C1752 C 0.69763 0.17333 0.23085 0.0
C1753 C 0.65555 0.17611 0.26229 0.0
C1754 C 0.62872 0.16627 0.26974 0.0
C1755 C 0.65702 0.12398 0.37393 0.0
C1756 C 0.6233 0.13325 0.40552 0.0
C1757 C 0.65018 0.12398 0.33839 0.0
C1758 C 0.61074 0.13341 0.33384 0.0
C1759 C 0.5798 0.14303 0.36556 0.0
C1760 C 0.5856 0.14291 0.40096 0.0
C1761 C 0.59903 0.13299 0.29584 0.0
C1762 C 0.62355 0.143 0.28824 0.0
C1763 C 0.5636 0.12276 0.26722 0.0
C1764 C 0.53439 0.11212 0.27388 0.0
C1765 C 0.48633 0.11448 0.30297 0.0
C1766 C 0.45865 0.1044 0.30889 0.0
C1767 C 0.47807 0.0919 0.28563 0.0
C1768 C 0.52552 0.08946 0.25654 0.0
C1769 C 0.55349 0.09952 0.25057 0.0
H1770 H 0.45654 0.0841 0.29023 0.0
H1771 H 0.71821 0.18097 0.22513 0.0
H1772 H 0.46077 0.1499 0.91746 0.0
H1773 H 0.48089 0.14871 0.85456 0.0
H1774 H 0.55446 0.11017 0.81673 0.0
H1775 H 0.53399 0.11122 0.87956 0.0
H1776 H 0.6394 0.12584 0.79427 0.0
H1777 H 0.4004 0.11412 0.792 0.0
H1778 H 0.28088 0.11698 0.8163 0.0
H1779 H 0.26317 0.1519 0.80438 0.0
H1780 H 0.38315 0.14937 0.78067 0.0
H1781 H 0.6451 0.11299 0.59973 0.0
H1782 H 0.62385 0.11163 0.65932 0.0
H1783 H 0.5082 0.14679 0.69962 0.0
H1784 H 0.52593 0.14783 0.63974 0.0
H1785 H 0.44412 0.13143 0.71993 0.0
H1786 H 0.68142 0.14456 0.72698 0.0
H1787 H 0.80268 0.14307 0.70582 0.0
H1788 H 0.82549 0.10718 0.71145 0.0
H1789 H 0.70398 0.10837 0.73215 0.0
C1790 C 0.48134 0.14116 0.89584 0.0
C1791 C 0.49538 0.13063 0.90358 0.0
C1792 C 0.49265 0.14049 0.85984 0.0
C1793 C 0.51881 0.12932 0.83088 0.0
C1794 C 0.53418 0.11887 0.83865 0.0
C1795 C 0.52206 0.11948 0.87454 0.0
C1796 C 0.52927 0.12855 0.79243 0.0
C1797 C 0.59664 0.12686 0.7777 0.0
C1798 C 0.47366 0.13019 0.77125 0.0
C1799 C 0.40104 0.13161 0.78487 0.0
C1800 C 0.37123 0.12246 0.79482 0.0
C1801 C 0.30336 0.12402 0.80847 0.0
C1802 C 0.2645 0.13463 0.81196 0.0
C1803 C 0.29337 0.14369 0.8017 0.0
C1804 C 0.3613 0.1422 0.78814 0.0
C1805 C 0.61513 0.12044 0.62127 0.0
C1806 C 0.58857 0.13068 0.61507 0.0
C1807 C 0.60328 0.11968 0.65549 0.0
C1808 C 0.56549 0.12924 0.68448 0.0
C1809 C 0.53782 0.13931 0.67795 0.0
C1810 C 0.54881 0.13998 0.64368 0.0
C1811 C 0.55467 0.12886 0.72166 0.0
C1812 C 0.48706 0.13033 0.73625 0.0
C1813 C 0.61025 0.12719 0.74294 0.0
C1814 C 0.68341 0.12649 0.73072 0.0
C1815 C 0.71215 0.13631 0.72345 0.0
C1816 C 0.78094 0.13552 0.71157 0.0
C1817 C 0.8217 0.12502 0.70719 0.0
C1818 C 0.79381 0.11529 0.71479 0.0
C1819 C 0.725 0.11602 0.72661 0.0
H1820 H 0.87495 0.12443 0.69799 0.0
H1821 H 0.21197 0.13582 0.82254 0.0
H1822 H 0.47676 0.90074 0.63975 0.0
H1823 H 0.49751 0.90002 0.70013 0.0
H1824 H 0.43497 0.86072 0.65223 0.0
H1825 H 0.41313 0.86147 0.59151 0.0
H1826 H 0.38194 0.8758 0.7269 0.0
H1827 H 0.59672 0.86629 0.65862 0.0
H1828 H 0.68912 0.87034 0.62198 0.0
H1829 H 0.73775 0.90555 0.71645 0.0
H1830 H 0.64448 0.90184 0.7534 0.0
H1831 H 0.51598 0.8598 0.86776 0.0
H1832 H 0.49479 0.85998 0.8069 0.0
H1833 H 0.58495 0.89736 0.84744 0.0
H1834 H 0.61 0.89693 0.908 0.0
H1835 H 0.62329 0.88317 0.77593 0.0
H1836 H 0.41173 0.89262 0.84516 0.0
H1837 H 0.32241 0.88844 0.88289 0.0
H1838 H 0.26462 0.85415 0.78745 0.0
H1839 H 0.35646 0.85776 0.74958 0.0
C1840 C 0.46541 0.89207 0.64223 0.0
C1841 C 0.44214 0.88125 0.61099 0.0
C1842 C 0.47814 0.89162 0.6767 0.0
C1843 C 0.4679 0.88031 0.68065 0.0
C1844 C 0.44295 0.86955 0.64981 0.0
C1845 C 0.43086 0.86998 0.61514 0.0
C1846 C 0.48686 0.8796 0.71641 0.0
C1847 C 0.43478 0.87725 0.73744 0.0
C1848 C 0.55563 0.88177 0.73046 0.0
C1849 C 0.61311 0.88385 0.70868 0.0
C1850 C 0.62677 0.87494 0.67151 0.0
C1851 C 0.67931 0.87717 0.65068 0.0
C1852 C 0.71919 0.88821 0.66685 0.0
C1853 C 0.70675 0.89701 0.70394 0.0
C1854 C 0.65404 0.89485 0.72485 0.0
C1855 C 0.53301 0.86793 0.86361 0.0
C1856 C 0.56584 0.87822 0.89279 0.0
C1857 C 0.52 0.86809 0.82879 0.0
C1858 C 0.5376 0.87874 0.82259 0.0
C1859 C 0.57102 0.88902 0.85147 0.0
C1860 C 0.58489 0.88878 0.88623 0.0
C1861 C 0.51838 0.87935 0.7866 0.0
C1862 C 0.57038 0.88172 0.76549 0.0
C1863 C 0.44939 0.87726 0.77258 0.0
C1864 C 0.39151 0.87541 0.79459 0.0
C1865 C 0.38025 0.88415 0.83221 0.0
C1866 C 0.32918 0.88187 0.85367 0.0
C1867 C 0.28747 0.87108 0.83756 0.0
C1868 C 0.29695 0.86252 0.79991 0.0
C1869 C 0.34876 0.86464 0.77846 0.0
H1870 H 0.24791 0.86935 0.85426 0.0
H1871 H 0.7598 0.88993 0.65066 0.0
loop_
_geom_bond_atom_site_label_1
_geom_bond_atom_site_label_2
_geom_bond_distance
_geom_bond_site_symmetry_2
_ccdc_geom_bond_type
Eu0 N31 2.657 . S
Eu0 N38 2.609 . S
Eu0 O44 2.558 . S
Eu0 O45 2.612 1_455 S
Eu0 O47 2.339 1_554 S
Eu0 O48 2.563 1_455 S
Eu0 O49 2.419 . S
Eu0 O51 2.380 . S
Eu0 O52 2.432 . S
Eu0 C64 2.848 . S
C1 C4 1.429 . S
C1 C5 1.411 . S
C1 N8 1.377 . S
C2 C4 1.420 . S
C2 C6 1.423 . S
C2 C14 1.392 1_556 S
C3 C5 1.420 . S
C3 C6 1.351 . S
C3 H26 0.931 . S
C4 C1 1.429 . S
C4 C2 1.420 . S
C4 N12 1.362 1_556 S
C5 C1 1.411 . S
C5 C3 1.420 . S
C5 C10 1.395 . S
C6 C2 1.423 . S
C6 C3 1.351 . S
C6 H18 0.930 . S
C7 C9 1.400 . S
C7 C10 1.386 . S
C7 H19 0.930 . S
N8 C1 1.377 . S
N8 C9 1.321 . S
N8 Eu11 2.609 1_655 S
C9 C7 1.400 . S
C9 N8 1.321 . S
C9 H16 0.930 1_655 S
C10 C5 1.395 . S
C10 C7 1.386 . S
C10 H29 0.930 . S
Eu11 N8 2.609 1_455 S
Eu11 N12 2.657 1_456 S
Eu11 O45 2.380 1_456 S
Eu11 O46 2.432 . S
Eu11 O50 2.558 . S
Eu11 O51 2.612 1_556 S
Eu11 O53 2.339 1_556 S
Eu11 O54 2.563 . S
Eu11 O55 2.419 1_556 S
Eu11 C75 2.848 . S
N12 C4 1.362 1_554 S
N12 Eu11 2.657 1_654 S
N12 C13 1.334 . S
C13 N12 1.334 . S
C13 C15 1.413 . S
C13 H20 0.929 . S
C14 C2 1.392 1_554 S
C14 C15 1.367 . S
C14 H22 0.930 . S
C15 C13 1.413 . S
C15 C14 1.367 . S
C15 H17 0.930 . S
H16 C9 0.930 1_455 S
H17 C15 0.930 . S
H18 C6 0.930 . S
H19 C7 0.930 . S
H20 C13 0.929 . S
H21 C35 0.930 . S
H22 C14 0.930 . S
H23 C41 0.930 . S
H24 C32 0.929 . S
H25 C39 0.930 . S
H26 C3 0.931 . S
H27 C33 0.930 . S
H28 C66 0.930 . S
H29 C10 0.930 . S
H30 C65 0.931 . S
N31 Eu0 2.657 . S
N31 C32 1.334 1_554 S
N31 C36 1.362 . S
C32 H24 0.929 . S
C32 N31 1.334 1_556 S
C32 C35 1.413 . S
C33 H27 0.930 . S
C33 C34 1.392 1_556 S
C33 C35 1.367 . S
C34 C33 1.392 1_554 S
C34 C36 1.420 . S
C34 C66 1.423 . S
C35 H21 0.930 . S
C35 C32 1.413 . S
C35 C33 1.367 . S
C36 N31 1.362 . S
C36 C34 1.420 . S
C36 C40 1.429 . S
H37 C42 0.930 . S
N38 Eu0 2.609 . S
N38 C40 1.377 . S
N38 C41 1.321 . S
C39 H25 0.930 . S
C39 C41 1.400 . S
C39 C42 1.386 . S
C40 C36 1.429 . S
C40 N38 1.377 . S
C40 C43 1.411 . S
C41 H23 0.930 . S
C41 N38 1.321 . S
C41 C39 1.400 . S
C42 H37 0.930 . S
C42 C39 1.386 . S
C42 C43 1.395 . S
C43 C40 1.411 . S
C43 C42 1.395 . S
C43 C65 1.420 . S
O44 Eu0 2.558 . S
O44 C64 1.257 . S
O45 Eu0 2.612 1_655 S
O45 Eu11 2.380 1_654 S
O45 C56 1.276 . S
O46 Eu11 2.432 . S
O46 C63 1.264 . S
O47 Eu0 2.339 1_556 S
O47 C63 1.254 . S
O48 Eu0 2.563 1_655 S
O48 C56 1.235 . S
O49 Eu0 2.419 . S
O49 C64 1.249 . S
O50 Eu11 2.558 . S
O50 C75 1.257 . S
O51 Eu0 2.380 . S
O51 Eu11 2.612 1_554 S
O51 C67 1.276 . S
O52 Eu0 2.432 . S
O52 C74 1.264 . S
O53 Eu11 2.339 1_554 S
O53 C74 1.254 . S
O54 Eu11 2.563 . S
O54 C67 1.235 1_556 S
O55 Eu11 2.419 1_554 S
O55 C75 1.249 1_554 S
C56 O45 1.276 . S
C56 O48 1.235 . S
C57 C59 1.387 1_455 S
C57 C61 1.395 . S
C57 C64 1.497 . S
C58 C59 1.392 . S
C58 C60 1.386 . S
C59 C57 1.387 1_655 S
C59 C58 1.392 . S
C59 H76 0.940 . S
C60 C58 1.386 . S
C60 C62 1.395 . S
C60 H77 0.930 . S
C61 C57 1.395 . S
C61 C62 1.379 1_455 S
C61 H78 0.930 . S
C62 C60 1.395 . S
C62 C61 1.379 1_655 S
C62 H79 0.930 . S
C63 O46 1.264 . S
C63 O47 1.254 . S
C64 Eu0 2.848 . S
C64 O44 1.257 . S
C64 O49 1.249 . S
C64 C57 1.497 . S
C65 H30 0.931 . S
C65 C43 1.420 . S
C65 C66 1.351 . S
C66 H28 0.930 . S
C66 C34 1.423 . S
C66 C65 1.351 . S
C67 O51 1.276 . S
C67 O54 1.235 1_554 S
C68 C69 1.393 . S
C68 C72 1.395 . S
C68 C75 1.492 . S
C69 C68 1.393 . S
C69 C70 1.392 . S
C69 H80 0.930 1_556 S
C70 C69 1.392 . S
C70 C71 1.386 . S
C71 C70 1.386 . S
C71 C73 1.395 . S
C71 H81 0.930 . S
C72 C68 1.395 . S
C72 C73 1.379 . S
C72 H82 0.930 . S
C73 C71 1.395 . S
C73 C72 1.379 . S
C73 H83 0.930 . S
C74 O52 1.264 . S
C74 O53 1.254 . S
C75 Eu11 2.848 . S
C75 O50 1.257 . S
C75 O55 1.249 1_556 S
C75 C68 1.492 . S
H76 C59 0.940 . S
H77 C60 0.930 . S
H78 C61 0.930 . S
H79 C62 0.930 . S
H80 C69 0.930 1_554 S
H81 C71 0.930 . S
H82 C72 0.930 . S
H83 C73 0.930 . S
Eu84 N115 2.657 1_655 S
Eu84 N122 2.609 1_655 S
Eu84 O128 2.558 . S
Eu84 O129 2.612 . S
Eu84 O131 2.339 1_554 S
Eu84 O132 2.563 . S
Eu84 O133 2.419 . S
Eu84 O135 2.380 1_655 S
Eu84 O136 2.432 . S
Eu84 C148 2.848 . S
C85 C88 1.429 . S
C85 C89 1.411 . S
C85 N92 1.377 . S
C86 C88 1.420 . S
C86 C90 1.423 . S
C86 C98 1.392 1_556 S
C87 C89 1.420 . S
C87 C90 1.351 . S
C87 H110 0.931 . S
C88 C85 1.429 . S
C88 C86 1.420 . S
C88 N96 1.362 1_556 S
C89 C85 1.411 . S
C89 C87 1.420 . S
C89 C94 1.395 . S
C90 C86 1.423 . S
C90 C87 1.351 . S
C90 H102 0.930 . S
C91 C93 1.400 . S
C91 C94 1.386 . S
C91 H103 0.930 . S
N92 C85 1.377 . S
N92 C93 1.321 . S
N92 Eu95 2.609 . S
C93 C91 1.400 . S
C93 N92 1.321 . S
C93 H100 0.930 . S
C94 C89 1.395 . S
C94 C91 1.386 . S
C94 H113 0.930 . S
Eu95 N92 2.609 . S
Eu95 N96 2.657 1_556 S
Eu95 O129 2.380 1_556 S
Eu95 O130 2.432 . S
Eu95 O134 2.558 . S
Eu95 O135 2.612 1_656 S
Eu95 O137 2.339 1_556 S
Eu95 O138 2.563 1_655 S
Eu95 O139 2.419 1_556 S
Eu95 C159 2.848 . S
N96 C88 1.362 1_554 S
N96 Eu95 2.657 1_554 S
N96 C97 1.334 . S
C97 N96 1.334 . S
C97 C99 1.413 . S
C97 H104 0.929 . S
C98 C86 1.392 1_554 S
C98 C99 1.367 . S
C98 H106 0.930 . S
C99 C97 1.413 . S
C99 C98 1.367 . S
C99 H101 0.930 . S
H100 C93 0.930 . S
H101 C99 0.930 . S
H102 C90 0.930 . S
H103 C91 0.930 . S
H104 C97 0.929 . S
H105 C119 0.930 . S
H106 C98 0.930 . S
H107 C125 0.930 1_655 S
H108 C116 0.929 . S
H109 C123 0.930 . S
H110 C87 0.931 . S
H111 C117 0.930 1_556 S
H112 C150 0.930 . S
H113 C94 0.930 . S
H114 C149 0.931 . S
N115 Eu84 2.657 1_455 S
N115 C116 1.334 1_554 S
N115 C120 1.362 . S
C116 H108 0.929 . S
C116 N115 1.334 1_556 S
C116 C119 1.413 . S
C117 H111 0.930 1_554 S
C117 C118 1.392 . S
C117 C119 1.367 1_554 S
C118 C117 1.392 . S
C118 C120 1.420 . S
C118 C150 1.423 . S
C119 H105 0.930 . S
C119 C116 1.413 . S
C119 C117 1.367 1_556 S
C120 N115 1.362 . S
C120 C118 1.420 . S
C120 C124 1.429 . S
H121 C126 0.930 . S
N122 Eu84 2.609 1_455 S
N122 C124 1.377 . S
N122 C125 1.321 . S
C123 H109 0.930 . S
C123 C125 1.400 . S
C123 C126 1.386 . S
C124 C120 1.429 . S
C124 N122 1.377 . S
C124 C127 1.411 . S
C125 H107 0.930 1_455 S
C125 N122 1.321 . S
C125 C123 1.400 . S
C126 H121 0.930 . S
C126 C123 1.386 . S
C126 C127 1.395 . S
C127 C124 1.411 . S
C127 C126 1.395 . S
C127 C149 1.420 . S
O128 Eu84 2.558 . S
O128 C148 1.257 . S
O129 Eu84 2.612 . S
O129 Eu95 2.380 1_554 S
O129 C140 1.276 . S
O130 Eu95 2.432 . S
O130 C147 1.264 . S
O131 Eu84 2.339 1_556 S
O131 C147 1.254 . S
O132 Eu84 2.563 . S
O132 C140 1.235 . S
O133 Eu84 2.419 . S
O133 C148 1.249 . S
O134 Eu95 2.558 . S
O134 C159 1.257 . S
O135 Eu84 2.380 1_455 S
O135 Eu95 2.612 1_454 S
O135 C151 1.276 . S
O136 Eu84 2.432 . S
O136 C158 1.264 . S
O137 Eu95 2.339 1_554 S
O137 C158 1.254 . S
O138 Eu95 2.563 1_455 S
O138 C151 1.235 1_556 S
O139 Eu95 2.419 1_554 S
O139 C159 1.249 1_554 S
C140 O129 1.276 . S
C140 O132 1.235 . S
C141 C143 1.393 . S
C141 C145 1.395 . S
C141 C148 1.492 . S
C142 C143 1.392 . S
C142 C144 1.386 . S
C143 C141 1.393 . S
C143 C142 1.392 . S
C143 H160 0.930 . S
C144 C142 1.386 . S
C144 C146 1.395 . S
C144 H161 0.930 . S
C145 C141 1.395 . S
C145 C146 1.379 . S
C145 H162 0.930 . S
C146 C144 1.395 . S
C146 C145 1.379 . S
C146 H163 0.930 . S
C147 O130 1.264 . S
C147 O131 1.254 . S
C148 Eu84 2.848 . S
C148 O128 1.257 . S
C148 O133 1.249 . S
C148 C141 1.492 . S
C149 H114 0.931 . S
C149 C127 1.420 . S
C149 C150 1.351 . S
C150 H112 0.930 . S
C150 C118 1.423 . S
C150 C149 1.351 . S
C151 O135 1.276 . S
C151 O138 1.235 1_554 S
C152 C153 1.387 1_656 S
C152 C156 1.395 . S
C152 C159 1.497 . S
C153 C152 1.387 1_454 S
C153 C154 1.392 1_554 S
C153 H164 0.930 . S
C154 C153 1.392 1_556 S
C154 C155 1.386 . S
C155 C154 1.386 . S
C155 C157 1.395 . S
C155 H165 0.930 . S
C156 C152 1.395 . S
C156 C157 1.379 1_655 S
C156 H166 0.930 . S
C157 C155 1.395 . S
C157 C156 1.379 1_455 S
C157 H167 0.930 . S
C158 O136 1.264 . S
C158 O137 1.254 . S
C159 Eu95 2.848 . S
C159 O134 1.257 . S
C159 O139 1.249 1_556 S
C159 C152 1.497 . S
H160 C143 0.930 . S
H161 C144 0.930 . S
H162 C145 0.930 . S
H163 C146 0.930 . S
H164 C153 0.930 . S
H165 C155 0.930 . S
H166 C156 0.930 . S
H167 C157 0.930 . S
Eu168 N199 2.657 . S
Eu168 N206 2.609 . S
Eu168 O212 2.558 . S
Eu168 O213 2.612 1_455 S
Eu168 O215 2.339 . S
Eu168 O216 2.563 1_455 S
Eu168 O217 2.419 . S
Eu168 O219 2.380 . S
Eu168 O220 2.432 . S
Eu168 C232 2.848 . S
C169 C172 1.429 . S
C169 C173 1.411 . S
C169 N176 1.377 . S
C170 C172 1.420 . S
C170 C174 1.423 . S
C170 C182 1.392 . S
C171 C173 1.420 . S
C171 C174 1.351 . S
C171 H194 0.931 . S
C172 C169 1.429 . S
C172 C170 1.420 . S
C172 N180 1.362 . S
C173 C169 1.411 . S
C173 C171 1.420 . S
C173 C178 1.395 . S
C174 C170 1.423 . S
C174 C171 1.351 . S
C174 H186 0.930 . S
C175 C177 1.400 . S
C175 C178 1.386 . S
C175 H187 0.930 . S
N176 C169 1.377 . S
N176 C177 1.321 . S
N176 Eu179 2.609 1_655 S
C177 C175 1.400 . S
C177 N176 1.321 . S
C177 H184 0.930 1_655 S
C178 C173 1.395 . S
C178 C175 1.386 . S
C178 H197 0.930 . S
Eu179 N176 2.609 1_455 S
Eu179 N180 2.657 1_455 S
Eu179 O213 2.380 1_455 S
Eu179 O214 2.432 . S
Eu179 O218 2.558 . S
Eu179 O219 2.612 . S
Eu179 O221 2.339 . S
Eu179 O222 2.563 . S
Eu179 O223 2.419 . S
Eu179 C243 2.848 . S
N180 C172 1.362 . S
N180 Eu179 2.657 1_655 S
N180 C181 1.334 . S
C181 N180 1.334 . S
C181 C183 1.413 . S
C181 H188 0.929 . S
C182 C170 1.392 . S
C182 C183 1.367 . S
C182 H190 0.930 . S
C183 C181 1.413 . S
C183 C182 1.367 . S
C183 H185 0.930 . S
H184 C177 0.930 1_455 S
H185 C183 0.930 . S
H186 C174 0.930 . S
H187 C175 0.930 . S
H188 C181 0.929 . S
H189 C203 0.930 . S
H190 C182 0.930 . S
H191 C209 0.930 . S
H192 C200 0.929 . S
H193 C207 0.930 . S
H194 C171 0.931 . S
H195 C201 0.930 . S
H196 C234 0.930 . S
H197 C178 0.930 . S
H198 C233 0.931 . S
N199 Eu168 2.657 . S
N199 C200 1.334 . S
N199 C204 1.362 . S
C200 H192 0.929 . S
C200 N199 1.334 . S
C200 C203 1.413 . S
C201 H195 0.930 . S
C201 C202 1.392 . S
C201 C203 1.367 . S
C202 C201 1.392 . S
C202 C204 1.420 . S
C202 C234 1.423 . S
C203 H189 0.930 . S
C203 C200 1.413 . S
C203 C201 1.367 . S
C204 N199 1.362 . S
C204 C202 1.420 . S
C204 C208 1.429 . S
H205 C210 0.930 . S
N206 Eu168 2.609 . S
N206 C208 1.377 . S
N206 C209 1.321 . S
C207 H193 0.930 . S
C207 C209 1.400 . S
C207 C210 1.386 . S
C208 C204 1.429 . S
C208 N206 1.377 . S
C208 C211 1.411 . S
C209 H191 0.930 . S
C209 N206 1.321 . S
C209 C207 1.400 . S
C210 H205 0.930 . S
C210 C207 1.386 . S
C210 C211 1.395 . S
C211 C208 1.411 . S
C211 C210 1.395 . S
C211 C233 1.420 . S
O212 Eu168 2.558 . S
O212 C232 1.257 . S
O213 Eu168 2.612 1_655 S
O213 Eu179 2.380 1_655 S
O213 C224 1.276 . S
O214 Eu179 2.432 . S
O214 C231 1.264 . S
O215 Eu168 2.339 . S
O215 C231 1.254 . S
O216 Eu168 2.563 1_655 S
O216 C224 1.235 . S
O217 Eu168 2.419 . S
O217 C232 1.249 . S
O218 Eu179 2.558 . S
O218 C243 1.257 . S
O219 Eu168 2.380 . S
O219 Eu179 2.612 . S
O219 C235 1.276 . S
O220 Eu168 2.432 . S
O220 C242 1.264 . S
O221 Eu179 2.339 . S
O221 C242 1.254 . S
O222 Eu179 2.563 . S
O222 C235 1.235 . S
O223 Eu179 2.419 . S
O223 C243 1.249 . S
C224 O213 1.276 . S
C224 O216 1.235 . S
C225 C227 1.387 1_455 S
C225 C229 1.395 . S
C225 C232 1.497 . S
C226 C227 1.392 . S
C226 C228 1.386 . S
C227 C225 1.387 1_655 S
C227 C226 1.392 . S
C227 H244 0.930 . S
C228 C226 1.386 . S
C228 C230 1.395 . S
C228 H245 0.930 . S
C229 C225 1.395 . S
C229 C230 1.379 1_455 S
C229 H246 0.930 . S
C230 C228 1.395 . S
C230 C229 1.379 1_655 S
C230 H247 0.930 . S
C231 O214 1.264 . S
C231 O215 1.254 . S
C232 Eu168 2.848 . S
C232 O212 1.257 . S
C232 O217 1.249 . S
C232 C225 1.497 . S
C233 H198 0.931 . S
C233 C211 1.420 . S
C233 C234 1.351 . S
C234 H196 0.930 . S
C234 C202 1.423 . S
C234 C233 1.351 . S
C235 O219 1.276 . S
C235 O222 1.235 . S
C236 C237 1.393 . S
C236 C240 1.395 . S
C236 C243 1.492 . S
C237 C236 1.393 . S
C237 C238 1.392 . S
C237 H248 0.930 . S
C238 C237 1.392 . S
C238 C239 1.386 . S
C239 C238 1.386 . S
C239 C241 1.395 . S
C239 H249 0.930 . S
C240 C236 1.395 . S
C240 C241 1.379 . S
C240 H250 0.930 . S
C241 C239 1.395 . S
C241 C240 1.379 . S
C241 H251 0.930 . S
C242 O220 1.264 . S
C242 O221 1.254 . S
C243 Eu179 2.848 . S
C243 O218 1.257 . S
C243 O223 1.249 . S
C243 C236 1.492 . S
H244 C227 0.930 . S
H245 C228 0.930 . S
H246 C229 0.930 . S
H247 C230 0.930 . S
H248 C237 0.930 . S
H249 C239 0.930 . S
H250 C240 0.930 . S
H251 C241 0.930 . S
Eu252 N283 2.657 1_655 S
Eu252 N290 2.609 1_655 S
Eu252 O296 2.558 . S
Eu252 O297 2.612 . S
Eu252 O299 2.339 . S
Eu252 O300 2.563 . S
Eu252 O301 2.419 . S
Eu252 O303 2.380 1_655 S
Eu252 O304 2.432 . S
Eu252 C316 2.848 . S
C253 C256 1.429 . S
C253 C257 1.411 . S
C253 N260 1.377 . S
C254 C256 1.420 . S
C254 C258 1.423 . S
C254 C266 1.392 . S
C255 C257 1.420 . S
C255 C258 1.351 . S
C255 H278 0.931 . S
C256 C253 1.429 . S
C256 C254 1.420 . S
C256 N264 1.362 . S
C257 C253 1.411 . S
C257 C255 1.420 . S
C257 C262 1.395 . S
C258 C254 1.423 . S
C258 C255 1.351 . S
C258 H270 0.930 . S
C259 C261 1.400 . S
C259 C262 1.386 . S
C259 H271 0.930 . S
N260 C253 1.377 . S
N260 C261 1.321 . S
N260 Eu263 2.609 . S
C261 C259 1.400 . S
C261 N260 1.321 . S
C261 H268 0.930 . S
C262 C257 1.395 . S
C262 C259 1.386 . S
C262 H281 0.930 . S
Eu263 N260 2.609 . S
Eu263 N264 2.657 . S
Eu263 O297 2.380 . S
Eu263 O298 2.432 . S
Eu263 O302 2.558 . S
Eu263 O303 2.612 1_655 S
Eu263 O305 2.339 . S
Eu263 O306 2.563 1_655 S
Eu263 O307 2.419 . S
Eu263 C327 2.848 . S
N264 C256 1.362 . S
N264 Eu263 2.657 . S
N264 C265 1.334 . S
C265 N264 1.334 . S
C265 C267 1.413 . S
C265 H272 0.929 . S
C266 C254 1.392 . S
C266 C267 1.367 . S
C266 H274 0.930 . S
C267 C265 1.413 . S
C267 C266 1.367 . S
C267 H269 0.930 . S
H268 C261 0.930 . S
H269 C267 0.930 . S
H270 C258 0.930 . S
H271 C259 0.930 . S
H272 C265 0.929 . S
H273 C287 0.930 . S
H274 C266 0.930 . S
H275 C293 0.930 1_655 S
H276 C284 0.929 . S
H277 C291 0.930 . S
H278 C255 0.931 . S
H279 C285 0.930 . S
H280 C318 0.930 . S
H281 C262 0.930 . S
H282 C317 0.931 . S
N283 Eu252 2.657 1_455 S
N283 C284 1.334 . S
N283 C288 1.362 . S
C284 H276 0.929 . S
C284 N283 1.334 . S
C284 C287 1.413 . S
C285 H279 0.930 . S
C285 C286 1.392 . S
C285 C287 1.367 . S
C286 C285 1.392 . S
C286 C288 1.420 . S
C286 C318 1.423 . S
C287 H273 0.930 . S
C287 C284 1.413 . S
C287 C285 1.367 . S
C288 N283 1.362 . S
C288 C286 1.420 . S
C288 C292 1.429 . S
H289 C294 0.930 . S
N290 Eu252 2.609 1_455 S
N290 C292 1.377 . S
N290 C293 1.321 . S
C291 H277 0.930 . S
C291 C293 1.400 . S
C291 C294 1.386 . S
C292 C288 1.429 . S
C292 N290 1.377 . S
C292 C295 1.411 . S
C293 H275 0.930 1_455 S
C293 N290 1.321 . S
C293 C291 1.400 . S
C294 H289 0.930 . S
C294 C291 1.386 . S
C294 C295 1.395 . S
C295 C292 1.411 . S
C295 C294 1.395 . S
C295 C317 1.420 . S
O296 Eu252 2.558 . S
O296 C316 1.257 . S
O297 Eu252 2.612 . S
O297 Eu263 2.380 . S
O297 C308 1.276 . S
O298 Eu263 2.432 . S
O298 C315 1.264 . S
O299 Eu252 2.339 . S
O299 C315 1.254 . S
O300 Eu252 2.563 . S
O300 C308 1.235 . S
O301 Eu252 2.419 . S
O301 C316 1.249 . S
O302 Eu263 2.558 . S
O302 C327 1.257 . S
O303 Eu252 2.380 1_455 S
O303 Eu263 2.612 1_455 S
O303 C319 1.276 . S
O304 Eu252 2.432 . S
O304 C326 1.264 . S
O305 Eu263 2.339 . S
O305 C326 1.254 . S
O306 Eu263 2.563 1_455 S
O306 C319 1.235 . S
O307 Eu263 2.419 . S
O307 C327 1.249 . S
C308 O297 1.276 . S
C308 O300 1.235 . S
C309 C311 1.393 . S
C309 C313 1.395 . S
C309 C316 1.492 . S
C310 C311 1.392 . S
C310 C312 1.386 . S
C311 C309 1.393 . S
C311 C310 1.392 . S
C311 H328 0.930 . S
C312 C310 1.386 . S
C312 C314 1.395 . S
C312 H329 0.930 . S
C313 C309 1.395 . S
C313 C314 1.379 . S
C313 H330 0.930 . S
C314 C312 1.395 . S
C314 C313 1.379 . S
C314 H331 0.930 . S
C315 O298 1.264 . S
C315 O299 1.254 . S
C316 Eu252 2.848 . S
C316 O296 1.257 . S
C316 O301 1.249 . S
C316 C309 1.492 . S
C317 H282 0.931 . S
C317 C295 1.420 . S
C317 C318 1.351 . S
C318 H280 0.930 . S
C318 C286 1.423 . S
C318 C317 1.351 . S
C319 O303 1.276 . S
C319 O306 1.235 . S
C320 C321 1.387 1_655 S
C320 C324 1.395 . S
C320 C327 1.497 . S
C321 C320 1.387 1_455 S
C321 C322 1.392 . S
C321 H332 0.930 . S
C322 C321 1.392 . S
C322 C323 1.386 . S
C323 C322 1.386 . S
C323 C325 1.395 . S
C323 H333 0.930 . S
C324 C320 1.395 . S
C324 C325 1.379 1_655 S
C324 H334 0.930 . S
C325 C323 1.395 . S
C325 C324 1.379 1_455 S
C325 H335 0.930 . S
C326 O304 1.264 . S
C326 O305 1.254 . S
C327 Eu263 2.848 . S
C327 O302 1.257 . S
C327 O307 1.249 . S
C327 C320 1.497 . S
H328 C311 0.930 . S
H329 C312 0.930 . S
H330 C313 0.930 . S
H331 C314 0.930 . S
H332 C321 0.930 . S
H333 C323 0.930 . S
H334 C324 0.930 . S
H335 C325 0.930 . S
Eu336 N367 2.657 . S
Eu336 N374 2.609 . S
Eu336 O380 2.558 . S
Eu336 O381 2.612 . S
Eu336 O383 2.339 1_554 S
Eu336 O384 2.563 . S
Eu336 O385 2.419 . S
Eu336 O387 2.380 . S
Eu336 O388 2.432 . S
Eu336 C400 2.848 . S
C337 C340 1.429 . S
C337 C341 1.411 . S
C337 N344 1.377 . S
C338 C340 1.420 . S
C338 C342 1.423 . S
C338 C350 1.392 1_556 S
C339 C341 1.420 . S
C339 C342 1.351 . S
C339 H362 0.931 . S
C340 C337 1.429 . S
C340 C338 1.420 . S
C340 N348 1.362 1_556 S
C341 C337 1.411 . S
C341 C339 1.420 . S
C341 C346 1.395 . S
C342 C338 1.423 . S
C342 C339 1.351 . S
C342 H354 0.930 . S
C343 C345 1.400 . S
C343 C346 1.386 . S
C343 H355 0.930 . S
N344 C337 1.377 . S
N344 C345 1.321 . S
N344 Eu347 2.609 . S
C345 C343 1.400 . S
C345 N344 1.321 . S
C345 H352 0.930 . S
C346 C341 1.395 . S
C346 C343 1.386 . S
C346 H365 0.930 . S
Eu347 N344 2.609 . S
Eu347 N348 2.657 1_556 S
Eu347 O381 2.380 1_556 S
Eu347 O382 2.432 . S
Eu347 O386 2.558 . S
Eu347 O387 2.612 1_556 S
Eu347 O389 2.339 1_556 S
Eu347 O390 2.563 . S
Eu347 O391 2.419 1_556 S
Eu347 C411 2.848 . S
N348 C340 1.362 1_554 S
N348 Eu347 2.657 1_554 S
N348 C349 1.334 . S
C349 N348 1.334 . S
C349 C351 1.413 . S
C349 H356 0.929 . S
C350 C338 1.392 1_554 S
C350 C351 1.367 . S
C350 H358 0.930 . S
C351 C349 1.413 . S
C351 C350 1.367 . S
C351 H353 0.930 . S
H352 C345 0.930 . S
H353 C351 0.930 . S
H354 C342 0.930 . S
H355 C343 0.930 . S
H356 C349 0.929 . S
H357 C371 0.930 . S
H358 C350 0.930 . S
H359 C377 0.930 . S
H360 C368 0.929 . S
H361 C375 0.930 . S
H362 C339 0.931 . S
H363 C369 0.930 . S
H364 C402 0.930 . S
H365 C346 0.930 . S
H366 C401 0.931 . S
N367 Eu336 2.657 . S
N367 C368 1.334 1_554 S
N367 C372 1.362 . S
C368 H360 0.929 . S
C368 N367 1.334 1_556 S
C368 C371 1.413 . S
C369 H363 0.930 . S
C369 C370 1.392 1_556 S
C369 C371 1.367 . S
C370 C369 1.392 1_554 S
C370 C372 1.420 . S
C370 C402 1.423 . S
C371 H357 0.930 . S
C371 C368 1.413 . S
C371 C369 1.367 . S
C372 N367 1.362 . S
C372 C370 1.420 . S
C372 C376 1.429 . S
H373 C378 0.930 . S
N374 Eu336 2.609 . S
N374 C376 1.377 . S
N374 C377 1.321 . S
C375 H361 0.930 . S
C375 C377 1.400 . S
C375 C378 1.386 . S
C376 C372 1.429 . S
C376 N374 1.377 . S
C376 C379 1.411 . S
C377 H359 0.930 . S
C377 N374 1.321 . S
C377 C375 1.400 . S
C378 H373 0.930 . S
C378 C375 1.386 . S
C378 C379 1.395 . S
C379 C376 1.411 . S
C379 C378 1.395 . S
C379 C401 1.420 . S
O380 Eu336 2.558 . S
O380 C400 1.257 . S
O381 Eu336 2.612 . S
O381 Eu347 2.380 1_554 S
O381 C392 1.276 . S
O382 Eu347 2.432 . S
O382 C399 1.264 . S
O383 Eu336 2.339 1_556 S
O383 C399 1.254 . S
O384 Eu336 2.563 . S
O384 C392 1.235 . S
O385 Eu336 2.419 . S
O385 C400 1.249 . S
O386 Eu347 2.558 . S
O386 C411 1.257 . S
O387 Eu336 2.380 . S
O387 Eu347 2.612 1_554 S
O387 C403 1.276 . S
O388 Eu336 2.432 . S
O388 C410 1.264 . S
O389 Eu347 2.339 1_554 S
O389 C410 1.254 . S
O390 Eu347 2.563 . S
O390 C403 1.235 1_556 S
O391 Eu347 2.419 1_554 S
O391 C411 1.249 1_554 S
C392 O381 1.276 . S
C392 O384 1.235 . S
C393 C395 1.393 . S
C393 C397 1.395 . S
C393 C400 1.492 . S
C394 C395 1.392 . S
C394 C396 1.386 . S
C395 C393 1.393 . S
C395 C394 1.392 . S
C395 H412 0.940 . S
C396 C394 1.386 . S
C396 C398 1.395 . S
C396 H413 0.930 . S
C397 C393 1.395 . S
C397 C398 1.379 . S
C397 H414 0.930 . S
C398 C396 1.395 . S
C398 C397 1.379 . S
C398 H415 0.930 . S
C399 O382 1.264 . S
C399 O383 1.254 . S
C400 Eu336 2.848 . S
C400 O380 1.257 . S
C400 O385 1.249 . S
C400 C393 1.492 . S
C401 H366 0.931 . S
C401 C379 1.420 . S
C401 C402 1.351 . S
C402 H364 0.930 . S
C402 C370 1.423 . S
C402 C401 1.351 . S
C403 O387 1.276 . S
C403 O390 1.235 1_554 S
C404 C405 1.393 . S
C404 C408 1.395 . S
C404 C411 1.492 . S
C405 C404 1.393 . S
C405 C406 1.392 . S
C405 H416 0.930 1_556 S
C406 C405 1.392 . S
C406 C407 1.386 . S
C407 C406 1.386 . S
C407 C409 1.395 . S
C407 H417 0.930 . S
C408 C404 1.395 . S
C408 C409 1.379 . S
C408 H418 0.930 . S
C409 C407 1.395 . S
C409 C408 1.379 . S
C409 H419 0.930 . S
C410 O388 1.264 . S
C410 O389 1.254 . S
C411 Eu347 2.848 . S
C411 O386 1.257 . S
C411 O391 1.249 1_556 S
C411 C404 1.492 . S
H412 C395 0.940 . S
H413 C396 0.930 . S
H414 C397 0.930 . S
H415 C398 0.930 . S
H416 C405 0.930 1_554 S
H417 C407 0.930 . S
H418 C408 0.930 . S
H419 C409 0.930 . S
Eu420 N451 2.657 . S
Eu420 N458 2.609 . S
Eu420 O464 2.558 . S
Eu420 O465 2.612 . S
Eu420 O467 2.339 1_554 S
Eu420 O468 2.563 . S
Eu420 O469 2.419 . S
Eu420 O471 2.380 . S
Eu420 O472 2.432 . S
Eu420 C484 2.848 . S
C421 C424 1.429 . S
C421 C425 1.411 . S
C421 N428 1.377 . S
C422 C424 1.420 . S
C422 C426 1.423 . S
C422 C434 1.392 1_556 S
C423 C425 1.420 . S
C423 C426 1.351 . S
C423 H446 0.931 . S
C424 C421 1.429 . S
C424 C422 1.420 . S
C424 N432 1.362 1_556 S
C425 C421 1.411 . S
C425 C423 1.420 . S
C425 C430 1.395 . S
C426 C422 1.423 . S
C426 C423 1.351 . S
C426 H438 0.930 . S
C427 C429 1.400 . S
C427 C430 1.386 . S
C427 H439 0.930 . S
N428 C421 1.377 . S
N428 C429 1.321 . S
N428 Eu431 2.609 . S
C429 C427 1.400 . S
C429 N428 1.321 . S
C429 H436 0.930 . S
C430 C425 1.395 . S
C430 C427 1.386 . S
C430 H449 0.930 . S
Eu431 N428 2.609 . S
Eu431 N432 2.657 1_556 S
Eu431 O465 2.380 1_556 S
Eu431 O466 2.432 . S
Eu431 O470 2.558 . S
Eu431 O471 2.612 1_556 S
Eu431 O473 2.339 1_556 S
Eu431 O474 2.563 . S
Eu431 O475 2.419 1_556 S
Eu431 C495 2.848 . S
N432 C424 1.362 1_554 S
N432 Eu431 2.657 1_554 S
N432 C433 1.334 . S
C433 N432 1.334 . S
C433 C435 1.413 . S
C433 H440 0.929 . S
C434 C422 1.392 1_554 S
C434 C435 1.367 . S
C434 H442 0.930 . S
C435 C433 1.413 . S
C435 C434 1.367 . S
C435 H437 0.930 . S
H436 C429 0.930 . S
H437 C435 0.930 . S
H438 C426 0.930 . S
H439 C427 0.930 . S
H440 C433 0.929 . S
H441 C455 0.930 . S
H442 C434 0.930 . S
H443 C461 0.930 . S
H444 C452 0.929 . S
H445 C459 0.930 . S
H446 C423 0.931 . S
H447 C453 0.930 1_556 S
H448 C486 0.930 . S
H449 C430 0.930 . S
H450 C485 0.931 . S
N451 Eu420 2.657 . S
N451 C452 1.334 1_554 S
N451 C456 1.362 . S
C452 H444 0.929 . S
C452 N451 1.334 1_556 S
C452 C455 1.413 . S
C453 H447 0.930 1_554 S
C453 C454 1.392 . S
C453 C455 1.367 1_554 S
C454 C453 1.392 . S
C454 C456 1.420 . S
C454 C486 1.423 . S
C455 H441 0.930 . S
C455 C452 1.413 . S
C455 C453 1.367 1_556 S
C456 N451 1.362 . S
C456 C454 1.420 . S
C456 C460 1.429 . S
H457 C462 0.930 . S
N458 Eu420 2.609 . S
N458 C460 1.377 . S
N458 C461 1.321 . S
C459 H445 0.930 . S
C459 C461 1.400 . S
C459 C462 1.386 . S
C460 C456 1.429 . S
C460 N458 1.377 . S
C460 C463 1.411 . S
C461 H443 0.930 . S
C461 N458 1.321 . S
C461 C459 1.400 . S
C462 H457 0.930 . S
C462 C459 1.386 . S
C462 C463 1.395 . S
C463 C460 1.411 . S
C463 C462 1.395 . S
C463 C485 1.420 . S
O464 Eu420 2.558 . S
O464 C484 1.257 . S
O465 Eu420 2.612 . S
O465 Eu431 2.380 1_554 S
O465 C476 1.276 . S
O466 Eu431 2.432 . S
O466 C483 1.264 . S
O467 Eu420 2.339 1_556 S
O467 C483 1.254 . S
O468 Eu420 2.563 . S
O468 C476 1.235 . S
O469 Eu420 2.419 . S
O469 C484 1.249 . S
O470 Eu431 2.558 . S
O470 C495 1.257 . S
O471 Eu420 2.380 . S
O471 Eu431 2.612 1_554 S
O471 C487 1.276 . S
O472 Eu420 2.432 . S
O472 C494 1.264 . S
O473 Eu431 2.339 1_554 S
O473 C494 1.254 . S
O474 Eu431 2.563 . S
O474 C487 1.235 1_556 S
O475 Eu431 2.419 1_554 S
O475 C495 1.249 1_554 S
C476 O465 1.276 . S
C476 O468 1.235 . S
C477 C479 1.393 . S
C477 C481 1.395 . S
C477 C484 1.492 . S
C478 C479 1.392 . S
C478 C480 1.386 . S
C479 C477 1.393 . S
C479 C478 1.392 . S
C479 H496 0.930 . S
C480 C478 1.386 . S
C480 C482 1.395 . S
C480 H497 0.930 . S
C481 C477 1.395 . S
C481 C482 1.379 . S
C481 H498 0.930 . S
C482 C480 1.395 . S
C482 C481 1.379 . S
C482 H499 0.930 . S
C483 O466 1.264 . S
C483 O467 1.254 . S
C484 Eu420 2.848 . S
C484 O464 1.257 . S
C484 O469 1.249 . S
C484 C477 1.492 . S
C485 H450 0.931 . S
C485 C463 1.420 . S
C485 C486 1.351 . S
C486 H448 0.930 . S
C486 C454 1.423 . S
C486 C485 1.351 . S
C487 O471 1.276 . S
C487 O474 1.235 1_554 S
C488 C489 1.393 1_556 S
C488 C492 1.395 . S
C488 C495 1.492 . S
C489 C488 1.393 1_554 S
C489 C490 1.392 1_554 S
C489 H500 0.930 . S
C490 C489 1.392 1_556 S
C490 C491 1.386 . S
C491 C490 1.386 . S
C491 C493 1.395 . S
C491 H501 0.930 . S
C492 C488 1.395 . S
C492 C493 1.379 . S
C492 H502 0.930 . S
C493 C491 1.395 . S
C493 C492 1.379 . S
C493 H503 0.930 . S
C494 O472 1.264 . S
C494 O473 1.254 . S
C495 Eu431 2.848 . S
C495 O470 1.257 . S
C495 O475 1.249 1_556 S
C495 C488 1.492 . S
H496 C479 0.930 . S
H497 C480 0.930 . S
H498 C481 0.930 . S
H499 C482 0.930 . S
H500 C489 0.930 . S
H501 C491 0.930 . S
H502 C492 0.930 . S
H503 C493 0.930 . S
Eu504 N535 2.657 . S
Eu504 N542 2.609 . S
Eu504 O548 2.558 . S
Eu504 O549 2.612 . S
Eu504 O551 2.339 . S
Eu504 O552 2.563 . S
Eu504 O553 2.419 . S
Eu504 O555 2.380 . S
Eu504 O556 2.432 . S
Eu504 C568 2.848 . S
C505 C508 1.429 . S
C505 C509 1.411 . S
C505 N512 1.377 . S
C506 C508 1.420 . S
C506 C510 1.423 . S
C506 C518 1.392 . S
C507 C509 1.420 . S
C507 C510 1.351 . S
C507 H530 0.931 . S
C508 C505 1.429 . S
C508 C506 1.420 . S
C508 N516 1.362 . S
C509 C505 1.411 . S
C509 C507 1.420 . S
C509 C514 1.395 . S
C510 C506 1.423 . S
C510 C507 1.351 . S
C510 H522 0.930 . S
C511 C513 1.400 . S
C511 C514 1.386 . S
C511 H523 0.930 . S
N512 C505 1.377 . S
N512 C513 1.321 . S
N512 Eu515 2.609 . S
C513 C511 1.400 . S
C513 N512 1.321 . S
C513 H520 0.930 . S
C514 C509 1.395 . S
C514 C511 1.386 . S
C514 H533 0.930 . S
Eu515 N512 2.609 . S
Eu515 N516 2.657 . S
Eu515 O549 2.380 . S
Eu515 O550 2.432 . S
Eu515 O554 2.558 . S
Eu515 O555 2.612 . S
Eu515 O557 2.339 . S
Eu515 O558 2.563 . S
Eu515 O559 2.419 . S
Eu515 C579 2.848 . S
N516 C508 1.362 . S
N516 Eu515 2.657 . S
N516 C517 1.334 . S
C517 N516 1.334 . S
C517 C519 1.413 . S
C517 H524 0.929 . S
C518 C506 1.392 . S
C518 C519 1.367 . S
C518 H526 0.930 . S
C519 C517 1.413 . S
C519 C518 1.367 . S
C519 H521 0.930 . S
H520 C513 0.930 . S
H521 C519 0.930 . S
H522 C510 0.930 . S
H523 C511 0.930 . S
H524 C517 0.929 . S
H525 C539 0.930 . S
H526 C518 0.930 . S
H527 C545 0.930 . S
H528 C536 0.929 . S
H529 C543 0.930 . S
H530 C507 0.931 . S
H531 C537 0.930 . S
H532 C570 0.930 . S
H533 C514 0.930 . S
H534 C569 0.931 . S
N535 Eu504 2.657 . S
N535 C536 1.334 . S
N535 C540 1.362 . S
C536 H528 0.929 . S
C536 N535 1.334 . S
C536 C539 1.413 . S
C537 H531 0.930 . S
C537 C538 1.392 . S
C537 C539 1.367 . S
C538 C537 1.392 . S
C538 C540 1.420 . S
C538 C570 1.423 . S
C539 H525 0.930 . S
C539 C536 1.413 . S
C539 C537 1.367 . S
C540 N535 1.362 . S
C540 C538 1.420 . S
C540 C544 1.429 . S
H541 C546 0.930 . S
N542 Eu504 2.609 . S
N542 C544 1.377 . S
N542 C545 1.321 . S
C543 H529 0.930 . S
C543 C545 1.400 . S
C543 C546 1.386 . S
C544 C540 1.429 . S
C544 N542 1.377 . S
C544 C547 1.411 . S
C545 H527 0.930 . S
C545 N542 1.321 . S
C545 C543 1.400 . S
C546 H541 0.930 . S
C546 C543 1.386 . S
C546 C547 1.395 . S
C547 C544 1.411 . S
C547 C546 1.395 . S
C547 C569 1.420 . S
O548 Eu504 2.558 . S
O548 C568 1.257 . S
O549 Eu504 2.612 . S
O549 Eu515 2.380 . S
O549 C560 1.276 . S
O550 Eu515 2.432 . S
O550 C567 1.264 . S
O551 Eu504 2.339 . S
O551 C567 1.254 . S
O552 Eu504 2.563 . S
O552 C560 1.235 . S
O553 Eu504 2.419 . S
O553 C568 1.249 . S
O554 Eu515 2.558 . S
O554 C579 1.257 . S
O555 Eu504 2.380 . S
O555 Eu515 2.612 . S
O555 C571 1.276 . S
O556 Eu504 2.432 . S
O556 C578 1.264 . S
O557 Eu515 2.339 . S
O557 C578 1.254 . S
O558 Eu515 2.563 . S
O558 C571 1.235 . S
O559 Eu515 2.419 . S
O559 C579 1.249 . S
C560 O549 1.276 . S
C560 O552 1.235 . S
C561 C563 1.393 . S
C561 C565 1.395 . S
C561 C568 1.492 . S
C562 C563 1.392 . S
C562 C564 1.386 . S
C563 C561 1.393 . S
C563 C562 1.392 . S
C563 H580 0.930 . S
C564 C562 1.386 . S
C564 C566 1.395 . S
C564 H581 0.930 . S
C565 C561 1.395 . S
C565 C566 1.379 . S
C565 H582 0.930 . S
C566 C564 1.395 . S
C566 C565 1.379 . S
C566 H583 0.930 . S
C567 O550 1.264 . S
C567 O551 1.254 . S
C568 Eu504 2.848 . S
C568 O548 1.257 . S
C568 O553 1.249 . S
C568 C561 1.492 . S
C569 H534 0.931 . S
C569 C547 1.420 . S
C569 C570 1.351 . S
C570 H532 0.930 . S
C570 C538 1.423 . S
C570 C569 1.351 . S
C571 O555 1.276 . S
C571 O558 1.235 . S
C572 C573 1.393 . S
C572 C576 1.395 . S
C572 C579 1.492 . S
C573 C572 1.393 . S
C573 C574 1.392 . S
C573 H584 0.930 . S
C574 C573 1.392 . S
C574 C575 1.386 . S
C575 C574 1.386 . S
C575 C577 1.395 . S
C575 H585 0.930 . S
C576 C572 1.395 . S
C576 C577 1.379 . S
C576 H586 0.930 . S
C577 C575 1.395 . S
C577 C576 1.379 . S
C577 H587 0.930 . S
C578 O556 1.264 . S
C578 O557 1.254 . S
C579 Eu515 2.848 . S
C579 O554 1.257 . S
C579 O559 1.249 . S
C579 C572 1.492 . S
H580 C563 0.930 . S
H581 C564 0.930 . S
H582 C565 0.930 . S
H583 C566 0.930 . S
H584 C573 0.930 . S
H585 C575 0.930 . S
H586 C576 0.930 . S
H587 C577 0.930 . S
Eu588 N619 2.657 . S
Eu588 N626 2.609 . S
Eu588 O632 2.558 . S
Eu588 O633 2.612 . S
Eu588 O635 2.339 . S
Eu588 O636 2.563 . S
Eu588 O637 2.419 . S
Eu588 O639 2.380 . S
Eu588 O640 2.432 . S
Eu588 C652 2.848 . S
C589 C592 1.429 . S
C589 C593 1.411 . S
C589 N596 1.377 . S
C590 C592 1.420 . S
C590 C594 1.423 . S
C590 C602 1.392 . S
C591 C593 1.420 . S
C591 C594 1.351 . S
C591 H614 0.931 . S
C592 C589 1.429 . S
C592 C590 1.420 . S
C592 N600 1.362 . S
C593 C589 1.411 . S
C593 C591 1.420 . S
C593 C598 1.395 . S
C594 C590 1.423 . S
C594 C591 1.351 . S
C594 H606 0.930 . S
C595 C597 1.400 . S
C595 C598 1.386 . S
C595 H607 0.930 . S
N596 C589 1.377 . S
N596 C597 1.321 . S
N596 Eu599 2.609 . S
C597 C595 1.400 . S
C597 N596 1.321 . S
C597 H604 0.930 . S
C598 C593 1.395 . S
C598 C595 1.386 . S
C598 H617 0.930 . S
Eu599 N596 2.609 . S
Eu599 N600 2.657 . S
Eu599 O633 2.380 . S
Eu599 O634 2.432 . S
Eu599 O638 2.558 . S
Eu599 O639 2.612 . S
Eu599 O641 2.339 . S
Eu599 O642 2.563 . S
Eu599 O643 2.419 . S
Eu599 C663 2.848 . S
N600 C592 1.362 . S
N600 Eu599 2.657 . S
N600 C601 1.334 . S
C601 N600 1.334 . S
C601 C603 1.413 . S
C601 H608 0.929 . S
C602 C590 1.392 . S
C602 C603 1.367 . S
C602 H610 0.930 . S
C603 C601 1.413 . S
C603 C602 1.367 . S
C603 H605 0.930 . S
H604 C597 0.930 . S
H605 C603 0.930 . S
H606 C594 0.930 . S
H607 C595 0.930 . S
H608 C601 0.929 . S
H609 C623 0.930 . S
H610 C602 0.930 . S
H611 C629 0.930 . S
H612 C620 0.929 . S
H613 C627 0.930 . S
H614 C591 0.931 . S
H615 C621 0.930 . S
H616 C654 0.930 . S
H617 C598 0.930 . S
H618 C653 0.931 . S
N619 Eu588 2.657 . S
N619 C620 1.334 . S
N619 C624 1.362 . S
C620 H612 0.929 . S
C620 N619 1.334 . S
C620 C623 1.413 . S
C621 H615 0.930 . S
C621 C622 1.392 . S
C621 C623 1.367 . S
C622 C621 1.392 . S
C622 C624 1.420 . S
C622 C654 1.423 . S
C623 H609 0.930 . S
C623 C620 1.413 . S
C623 C621 1.367 . S
C624 N619 1.362 . S
C624 C622 1.420 . S
C624 C628 1.429 . S
H625 C630 0.930 . S
N626 Eu588 2.609 . S
N626 C628 1.377 . S
N626 C629 1.321 . S
C627 H613 0.930 . S
C627 C629 1.400 . S
C627 C630 1.386 . S
C628 C624 1.429 . S
C628 N626 1.377 . S
C628 C631 1.411 . S
C629 H611 0.930 . S
C629 N626 1.321 . S
C629 C627 1.400 . S
C630 H625 0.930 . S
C630 C627 1.386 . S
C630 C631 1.395 . S
C631 C628 1.411 . S
C631 C630 1.395 . S
C631 C653 1.420 . S
O632 Eu588 2.558 . S
O632 C652 1.257 . S
O633 Eu588 2.612 . S
O633 Eu599 2.380 . S
O633 C644 1.276 . S
O634 Eu599 2.432 . S
O634 C651 1.264 . S
O635 Eu588 2.339 . S
O635 C651 1.254 . S
O636 Eu588 2.563 . S
O636 C644 1.235 . S
O637 Eu588 2.419 . S
O637 C652 1.249 . S
O638 Eu599 2.558 . S
O638 C663 1.257 . S
O639 Eu588 2.380 . S
O639 Eu599 2.612 . S
O639 C655 1.276 . S
O640 Eu588 2.432 . S
O640 C662 1.264 . S
O641 Eu599 2.339 . S
O641 C662 1.254 . S
O642 Eu599 2.563 . S
O642 C655 1.235 . S
O643 Eu599 2.419 . S
O643 C663 1.249 . S
C644 O633 1.276 . S
C644 O636 1.235 . S
C645 C647 1.393 . S
C645 C649 1.395 . S
C645 C652 1.492 . S
C646 C647 1.392 . S
C646 C648 1.386 . S
C647 C645 1.393 . S
C647 C646 1.392 . S
C647 H664 0.930 . S
C648 C646 1.386 . S
C648 C650 1.395 . S
C648 H665 0.930 . S
C649 C645 1.395 . S
C649 C650 1.379 . S
C649 H666 0.930 . S
C650 C648 1.395 . S
C650 C649 1.379 . S
C650 H667 0.930 . S
C651 O634 1.264 . S
C651 O635 1.254 . S
C652 Eu588 2.848 . S
C652 O632 1.257 . S
C652 O637 1.249 . S
C652 C645 1.492 . S
C653 H618 0.931 . S
C653 C631 1.420 . S
C653 C654 1.351 . S
C654 H616 0.930 . S
C654 C622 1.423 . S
C654 C653 1.351 . S
C655 O639 1.276 . S
C655 O642 1.235 . S
C656 C657 1.393 . S
C656 C660 1.395 . S
C656 C663 1.492 . S
C657 C656 1.393 . S
C657 C658 1.392 . S
C657 H668 0.930 . S
C658 C657 1.392 . S
C658 C659 1.386 . S
C659 C658 1.386 . S
C659 C661 1.395 . S
C659 H669 0.930 . S
C660 C656 1.395 . S
C660 C661 1.379 . S
C660 H670 0.930 . S
C661 C659 1.395 . S
C661 C660 1.379 . S
C661 H671 0.930 . S
C662 O640 1.264 . S
C662 O641 1.254 . S
C663 Eu599 2.848 . S
C663 O638 1.257 . S
C663 O643 1.249 . S
C663 C656 1.492 . S
H664 C647 0.930 . S
H665 C648 0.930 . S
H666 C649 0.930 . S
H667 C650 0.930 . S
H668 C657 0.930 . S
H669 C659 0.930 . S
H670 C660 0.930 . S
H671 C661 0.930 . S
H672 C690 0.951 . S
H673 C692 0.951 . S
H674 C694 0.929 1_556 S
H675 C695 0.950 1_556 S
H676 C697 0.950 . S
H677 C700 0.950 . S
H678 C701 0.950 . S
H679 C703 0.950 . S
H680 C704 0.950 . S
H681 C705 0.951 . S
H682 C707 0.951 . S
H683 C709 0.950 . S
H684 C710 0.950 . S
H685 C712 0.950 . S
H686 C715 0.950 . S
H687 C716 0.950 . S
H688 C718 0.950 . S
H689 C719 0.950 . S
C690 H672 0.951 . S
C690 C691 1.366 . S
C690 C692 1.388 . S
C691 C690 1.366 . S
C691 C695 1.385 . S
C692 H673 0.951 . S
C692 C690 1.388 . S
C692 C693 1.366 . S
C693 C692 1.366 . S
C693 C694 1.433 . S
C693 C696 1.499 . S
C694 H674 0.929 1_554 S
C694 C693 1.433 . S
C694 C695 1.377 . S
C695 H675 0.950 1_554 S
C695 C691 1.385 . S
C695 C694 1.377 . S
C696 C693 1.499 . S
C696 C697 1.373 1_554 S
C696 C698 1.389 . S
C697 H676 0.950 . S
C697 C696 1.373 1_556 S
C697 C713 1.377 . S
C698 C696 1.389 . S
C698 C699 1.524 . S
C698 C712 1.377 . S
C699 C698 1.524 . S
C699 C700 1.397 . S
C699 C704 1.363 . S
C700 H677 0.950 . S
C700 C699 1.397 . S
C700 C701 1.334 . S
C701 H678 0.950 . S
C701 C700 1.334 . S
C701 C702 1.287 . S
C702 C701 1.287 . S
C702 C703 1.524 . S
C702 H721 0.913 . S
C703 H679 0.950 . S
C703 C702 1.524 . S
C703 C704 1.415 . S
C704 H680 0.950 . S
C704 C699 1.363 . S
C704 C703 1.415 . S
C705 H681 0.951 . S
C705 C706 1.366 1_556 S
C705 C707 1.388 . S
C706 C705 1.366 1_554 S
C706 C710 1.385 . S
C707 H682 0.951 . S
C707 C705 1.388 . S
C707 C708 1.366 1_556 S
C708 C707 1.366 1_554 S
C708 C709 1.414 . S
C708 C711 1.499 . S
C709 H683 0.950 . S
C709 C708 1.414 . S
C709 C710 1.374 . S
C710 H684 0.950 . S
C710 C706 1.385 . S
C710 C709 1.374 . S
C711 C708 1.499 . S
C711 C712 1.373 . S
C711 C713 1.389 1_554 S
C712 H685 0.950 . S
C712 C698 1.377 . S
C712 C711 1.373 . S
C713 C697 1.377 . S
C713 C711 1.389 1_556 S
C713 C714 1.524 . S
C714 C713 1.524 . S
C714 C715 1.397 . S
C714 C719 1.363 . S
C715 H686 0.950 . S
C715 C714 1.397 . S
C715 C716 1.334 . S
C716 H687 0.950 . S
C716 C715 1.334 . S
C716 C717 1.287 . S
C717 C716 1.287 . S
C717 C718 1.524 . S
C717 H720 0.999 . S
C718 H688 0.950 . S
C718 C717 1.524 . S
C718 C719 1.415 . S
C719 H689 0.950 . S
C719 C714 1.363 . S
C719 C718 1.415 . S
H720 C717 0.999 . S
H721 C702 0.913 . S
H722 C740 0.951 . S
H723 C742 0.951 . S
H724 C744 0.950 . S
H725 C745 0.950 . S
H726 C747 0.950 . S
H727 C750 0.950 . S
H728 C751 0.950 . S
H729 C753 0.950 . S
H730 C754 0.950 . S
H731 C755 0.951 . S
H732 C757 0.951 . S
H733 C759 0.950 . S
H734 C760 0.950 . S
H735 C762 0.950 . S
H736 C765 0.950 1_554 S
H737 C766 0.950 . S
H738 C768 0.950 . S
H739 C769 0.950 . S
C740 H722 0.951 . S
C740 C741 1.366 . S
C740 C742 1.388 . S
C741 C740 1.366 . S
C741 C745 1.385 1_554 S
C742 H723 0.951 . S
C742 C740 1.388 . S
C742 C743 1.366 . S
C743 C742 1.366 . S
C743 C744 1.414 1_554 S
C743 C746 1.499 . S
C744 H724 0.950 . S
C744 C743 1.414 1_556 S
C744 C745 1.374 . S
C745 H725 0.950 . S
C745 C741 1.385 1_556 S
C745 C744 1.374 . S
C746 C743 1.499 . S
C746 C747 1.373 1_554 S
C746 C748 1.389 . S
C747 H726 0.950 . S
C747 C746 1.373 1_556 S
C747 C763 1.377 . S
C748 C746 1.389 . S
C748 C749 1.524 . S
C748 C762 1.377 . S
C749 C748 1.524 . S
C749 C750 1.397 . S
C749 C754 1.363 . S
C750 H727 0.950 . S
C750 C749 1.397 . S
C750 C751 1.334 . S
C751 H728 0.950 . S
C751 C750 1.334 . S
C751 C752 1.287 . S
C752 C751 1.287 . S
C752 C753 1.524 . S
C752 H771 0.913 . S
C753 H729 0.950 . S
C753 C752 1.524 . S
C753 C754 1.415 . S
C754 H730 0.950 . S
C754 C749 1.363 . S
C754 C753 1.415 . S
C755 H731 0.951 . S
C755 C756 1.366 1_556 S
C755 C757 1.388 . S
C756 C755 1.366 1_554 S
C756 C760 1.385 . S
C757 H732 0.951 . S
C757 C755 1.388 . S
C757 C758 1.366 1_556 S
C758 C757 1.366 1_554 S
C758 C759 1.414 . S
C758 C761 1.499 . S
C759 H733 0.950 . S
C759 C758 1.414 . S
C759 C760 1.374 . S
C760 H734 0.950 . S
C760 C756 1.385 . S
C760 C759 1.374 . S
C761 C758 1.499 . S
C761 C762 1.373 . S
C761 C763 1.389 1_554 S
C762 H735 0.950 . S
C762 C748 1.377 . S
C762 C761 1.373 . S
C763 C747 1.377 . S
C763 C761 1.389 1_556 S
C763 C764 1.524 . S
C764 C763 1.524 . S
C764 C765 1.397 . S
C764 C769 1.363 . S
C765 H736 0.950 1_556 S
C765 C764 1.397 . S
C765 C766 1.334 . S
C766 H737 0.950 . S
C766 C765 1.334 . S
C766 C767 1.287 . S
C767 C766 1.287 . S
C767 C768 1.524 . S
C767 H770 0.999 . S
C768 H738 0.950 . S
C768 C767 1.524 . S
C768 C769 1.415 . S
C769 H739 0.950 . S
C769 C764 1.363 . S
C769 C768 1.415 . S
H770 C767 0.999 . S
H771 C752 0.913 . S
H772 C790 0.951 . S
H773 C792 0.951 . S
H774 C794 0.950 . S
H775 C795 0.950 . S
H776 C797 0.950 . S
H777 C800 0.950 . S
H778 C801 0.950 . S
H779 C803 0.950 . S
H780 C804 0.950 . S
H781 C805 0.951 . S
H782 C807 0.951 . S
H783 C809 0.950 . S
H784 C810 0.950 . S
H785 C812 0.950 . S
H786 C815 0.950 . S
H787 C816 0.950 . S
H788 C818 0.950 . S
H789 C819 0.950 . S
C790 H772 0.951 . S
C790 C791 1.366 . S
C790 C792 1.388 . S
C791 C790 1.366 . S
C791 C795 1.385 . S
C792 H773 0.951 . S
C792 C790 1.388 . S
C792 C793 1.366 . S
C793 C792 1.366 . S
C793 C794 1.414 . S
C793 C796 1.499 . S
C794 H774 0.950 . S
C794 C793 1.414 . S
C794 C795 1.374 . S
C795 H775 0.950 . S
C795 C791 1.385 . S
C795 C794 1.374 . S
C796 C793 1.499 . S
C796 C797 1.373 . S
C796 C798 1.389 . S
C797 H776 0.950 . S
C797 C796 1.373 . S
C797 C813 1.377 . S
C798 C796 1.389 . S
C798 C799 1.524 . S
C798 C812 1.377 . S
C799 C798 1.524 . S
C799 C800 1.397 . S
C799 C804 1.363 . S
C800 H777 0.950 . S
C800 C799 1.397 . S
C800 C801 1.334 . S
C801 H778 0.950 . S
C801 C800 1.334 . S
C801 C802 1.287 . S
C802 C801 1.287 . S
C802 C803 1.524 . S
C802 H821 0.913 . S
C803 H779 0.950 . S
C803 C802 1.524 . S
C803 C804 1.415 . S
C804 H780 0.950 . S
C804 C799 1.363 . S
C804 C803 1.415 . S
C805 H781 0.951 . S
C805 C806 1.366 . S
C805 C807 1.388 . S
C806 C805 1.366 . S
C806 C810 1.385 . S
C807 H782 0.951 . S
C807 C805 1.388 . S
C807 C808 1.366 . S
C808 C807 1.366 . S
C808 C809 1.414 . S
C808 C811 1.499 . S
C809 H783 0.950 . S
C809 C808 1.414 . S
C809 C810 1.374 . S
C810 H784 0.950 . S
C810 C806 1.385 . S
C810 C809 1.374 . S
C811 C808 1.499 . S
C811 C812 1.373 . S
C811 C813 1.389 . S
C812 H785 0.950 . S
C812 C798 1.377 . S
C812 C811 1.373 . S
C813 C797 1.377 . S
C813 C811 1.389 . S
C813 C814 1.524 . S
C814 C813 1.524 . S
C814 C815 1.397 . S
C814 C819 1.363 . S
C815 H786 0.950 . S
C815 C814 1.397 . S
C815 C816 1.334 . S
C816 H787 0.950 . S
C816 C815 1.334 . S
C816 C817 1.287 . S
C817 C816 1.287 . S
C817 C818 1.524 . S
C817 H820 0.999 . S
C818 H788 0.950 . S
C818 C817 1.524 . S
C818 C819 1.415 . S
C819 H789 0.950 . S
C819 C814 1.363 . S
C819 C818 1.415 . S
H820 C817 0.999 . S
H821 C802 0.913 . S
H822 C840 0.951 . S
H823 C842 0.951 . S
H824 C844 0.950 . S
H825 C845 0.950 . S
H826 C847 0.950 . S
H827 C850 0.950 . S
H828 C851 0.950 . S
H829 C853 0.950 . S
H830 C854 0.950 . S
H831 C855 0.951 . S
H832 C857 0.951 . S
H833 C859 0.950 . S
H834 C860 0.950 . S
H835 C862 0.950 . S
H836 C865 0.950 . S
H837 C866 0.950 . S
H838 C868 0.950 . S
H839 C869 0.950 . S
C840 H822 0.951 . S
C840 C841 1.366 . S
C840 C842 1.388 . S
C841 C840 1.366 . S
C841 C845 1.385 . S
C842 H823 0.951 . S
C842 C840 1.388 . S
C842 C843 1.366 . S
C843 C842 1.366 . S
C843 C844 1.414 . S
C843 C846 1.499 . S
C844 H824 0.950 . S
C844 C843 1.414 . S
C844 C845 1.374 . S
C845 H825 0.950 . S
C845 C841 1.385 . S
C845 C844 1.374 . S
C846 C843 1.499 . S
C846 C847 1.373 . S
C846 C848 1.389 . S
C847 H826 0.950 . S
C847 C846 1.373 . S
C847 C863 1.377 . S
C848 C846 1.389 . S
C848 C849 1.524 . S
C848 C862 1.377 . S
C849 C848 1.524 . S
C849 C850 1.397 . S
C849 C854 1.363 . S
C850 H827 0.950 . S
C850 C849 1.397 . S
C850 C851 1.334 . S
C851 H828 0.950 . S
C851 C850 1.334 . S
C851 C852 1.287 . S
C852 C851 1.287 . S
C852 C853 1.524 . S
C852 H871 0.913 . S
C853 H829 0.950 . S
C853 C852 1.524 . S
C853 C854 1.415 . S
C854 H830 0.950 . S
C854 C849 1.363 . S
C854 C853 1.415 . S
C855 H831 0.951 . S
C855 C856 1.366 . S
C855 C857 1.388 . S
C856 C855 1.366 . S
C856 C860 1.385 . S
C857 H832 0.951 . S
C857 C855 1.388 . S
C857 C858 1.366 . S
C858 C857 1.366 . S
C858 C859 1.414 . S
C858 C861 1.499 . S
C859 H833 0.950 . S
C859 C858 1.414 . S
C859 C860 1.374 . S
C860 H834 0.950 . S
C860 C856 1.385 . S
C860 C859 1.374 . S
C861 C858 1.499 . S
C861 C862 1.373 . S
C861 C863 1.389 . S
C862 H835 0.950 . S
C862 C848 1.377 . S
C862 C861 1.373 . S
C863 C847 1.377 . S
C863 C861 1.389 . S
C863 C864 1.524 . S
C864 C863 1.524 . S
C864 C865 1.397 . S
C864 C869 1.363 . S
C865 H836 0.950 . S
C865 C864 1.397 . S
C865 C866 1.334 . S
C866 H837 0.950 . S
C866 C865 1.334 . S
C866 C867 1.287 . S
C867 C866 1.287 . S
C867 C868 1.524 . S
C867 H870 0.999 . S
C868 H838 0.950 . S
C868 C867 1.524 . S
C868 C869 1.415 . S
C869 H839 0.950 . S
C869 C864 1.363 . S
C869 C868 1.415 . S
H870 C867 0.999 . S
H871 C852 0.913 . S
H872 C890 0.951 1_556 S
H873 C892 0.951 1_556 S
H874 C894 0.950 . S
H875 C895 0.950 . S
H876 C897 0.950 1_655 S
H877 C900 0.950 . S
H878 C901 0.950 . S
H879 C903 0.950 . S
H880 C904 0.950 . S
H881 C905 0.951 . S
H882 C907 0.951 . S
H883 C909 0.950 . S
H884 C910 0.950 . S
H885 C912 0.950 . S
H886 C915 0.950 . S
H887 C916 0.950 . S
H888 C918 0.950 . S
H889 C919 0.950 1_554 S
C890 H872 0.951 1_554 S
C890 C891 1.366 . S
C890 C892 1.388 . S
C891 C890 1.366 . S
C891 C895 1.385 . S
C892 H873 0.951 1_554 S
C892 C890 1.388 . S
C892 C893 1.366 . S
C893 C892 1.366 . S
C893 C894 1.414 . S
C893 C896 1.499 . S
C894 H874 0.950 . S
C894 C893 1.414 . S
C894 C895 1.374 . S
C895 H875 0.950 . S
C895 C891 1.385 . S
C895 C894 1.374 . S
C896 C893 1.499 . S
C896 C897 1.373 1_654 S
C896 C898 1.389 1_655 S
C897 H876 0.950 1_455 S
C897 C896 1.373 1_456 S
C897 C913 1.377 . S
C898 C896 1.389 1_455 S
C898 C899 1.524 . S
C898 C912 1.377 . S
C899 C898 1.524 . S
C899 C900 1.397 1_455 S
C899 C904 1.363 . S
C900 H877 0.950 . S
C900 C899 1.397 1_655 S
C900 C901 1.334 . S
C901 H878 0.950 . S
C901 C900 1.334 . S
C901 C902 1.287 . S
C902 C901 1.287 . S
C902 C903 1.524 1_655 S
C902 H921 0.913 . S
C903 H879 0.950 . S
C903 C902 1.524 1_455 S
C903 C904 1.415 . S
C904 H880 0.950 . S
C904 C899 1.363 . S
C904 C903 1.415 . S
C905 H881 0.951 . S
C905 C906 1.366 . S
C905 C907 1.388 . S
C906 C905 1.366 . S
C906 C910 1.385 1_554 S
C907 H882 0.951 . S
C907 C905 1.388 . S
C907 C908 1.366 . S
C908 C907 1.366 . S
C908 C909 1.414 1_554 S
C908 C911 1.499 . S
C909 H883 0.950 . S
C909 C908 1.414 1_556 S
C909 C910 1.374 . S
C910 H884 0.950 . S
C910 C906 1.385 1_556 S
C910 C909 1.374 . S
C911 C908 1.499 . S
C911 C912 1.373 . S
C911 C913 1.389 1_554 S
C912 H885 0.950 . S
C912 C898 1.377 . S
C912 C911 1.373 . S
C913 C897 1.377 . S
C913 C911 1.389 1_556 S
C913 C914 1.524 . S
C914 C913 1.524 . S
C914 C915 1.397 . S
C914 C919 1.363 . S
C915 H886 0.950 . S
C915 C914 1.397 . S
C915 C916 1.334 . S
C916 H887 0.950 . S
C916 C915 1.334 . S
C916 C917 1.287 . S
C917 C916 1.287 . S
C917 C918 1.524 . S
C917 H920 0.999 . S
C918 H888 0.950 . S
C918 C917 1.524 . S
C918 C919 1.415 . S
C919 H889 0.950 1_556 S
C919 C914 1.363 . S
C919 C918 1.415 . S
H920 C917 0.999 . S
H921 C902 0.913 . S
H922 C940 0.951 . S
H923 C942 0.951 . S
H924 C944 0.950 . S
H925 C945 0.950 . S
H926 C947 0.950 1_455 S
H927 C950 0.950 . S
H928 C951 0.950 . S
H929 C953 0.950 . S
H930 C954 0.950 . S
H931 C955 0.951 . S
H932 C957 0.951 . S
H933 C959 0.950 . S
H934 C960 0.950 . S
H935 C962 0.950 . S
H936 C965 0.950 . S
H937 C966 0.950 . S
H938 C968 0.950 . S
H939 C969 0.950 . S
C940 H922 0.951 . S
C940 C941 1.366 1_556 S
C940 C942 1.388 . S
C941 C940 1.366 1_554 S
C941 C945 1.385 . S
C942 H923 0.951 . S
C942 C940 1.388 . S
C942 C943 1.366 1_556 S
C943 C942 1.366 1_554 S
C943 C944 1.414 . S
C943 C946 1.499 . S
C944 H924 0.950 . S
C944 C943 1.414 . S
C944 C945 1.374 . S
C945 H925 0.950 . S
C945 C941 1.385 . S
C945 C944 1.374 . S
C946 C943 1.499 . S
C946 C947 1.373 1_455 S
C946 C948 1.389 1_455 S
C947 H926 0.950 1_655 S
C947 C946 1.373 1_655 S
C947 C963 1.377 . S
C948 C946 1.389 1_655 S
C948 C949 1.524 . S
C948 C962 1.377 . S
C949 C948 1.524 . S
C949 C950 1.397 1_655 S
C949 C954 1.363 1_554 S
C950 H927 0.950 . S
C950 C949 1.397 1_455 S
C950 C951 1.334 . S
C951 H928 0.950 . S
C951 C950 1.334 . S
C951 C952 1.287 . S
C952 C951 1.287 . S
C952 C953 1.524 1_454 S
C952 H971 0.913 . S
C953 H929 0.950 . S
C953 C952 1.524 1_656 S
C953 C954 1.415 . S
C954 H930 0.950 . S
C954 C949 1.363 1_556 S
C954 C953 1.415 . S
C955 H931 0.951 . S
C955 C956 1.366 . S
C955 C957 1.388 . S
C956 C955 1.366 . S
C956 C960 1.385 1_554 S
C957 H932 0.951 . S
C957 C955 1.388 . S
C957 C958 1.366 . S
C958 C957 1.366 . S
C958 C959 1.414 1_554 S
C958 C961 1.499 . S
C959 H933 0.950 . S
C959 C958 1.414 1_556 S
C959 C960 1.374 . S
C960 H934 0.950 . S
C960 C956 1.385 1_556 S
C960 C959 1.374 . S
C961 C958 1.499 . S
C961 C962 1.373 . S
C961 C963 1.389 . S
C962 H935 0.950 . S
C962 C948 1.377 . S
C962 C961 1.373 . S
C963 C947 1.377 . S
C963 C961 1.389 . S
C963 C964 1.524 . S
C964 C963 1.524 . S
C964 C965 1.397 1_554 S
C964 C969 1.363 . S
C965 H936 0.950 . S
C965 C964 1.397 1_556 S
C965 C966 1.334 . S
C966 H937 0.950 . S
C966 C965 1.334 . S
C966 C967 1.287 1_556 S
C967 C966 1.287 1_554 S
C967 C968 1.524 . S
C967 H970 0.999 . S
C968 H938 0.950 . S
C968 C967 1.524 . S
C968 C969 1.415 . S
C969 H939 0.950 . S
C969 C964 1.363 . S
C969 C968 1.415 . S
H970 C967 0.999 . S
H971 C952 0.913 . S
H972 C990 0.951 . S
H973 C992 0.951 . S
H974 C994 0.950 . S
H975 C995 0.950 . S
H976 C997 0.950 . S
H977 C1000 0.950 . S
H978 C1001 0.950 . S
H979 C1003 0.950 . S
H980 C1004 0.950 . S
H981 C1005 0.951 . S
H982 C1007 0.951 . S
H983 C1009 0.950 . S
H984 C1010 0.950 . S
H985 C1012 0.950 . S
H986 C1015 0.950 . S
H987 C1016 0.950 . S
H988 C1018 0.950 . S
H989 C1019 0.950 . S
C990 H972 0.951 . S
C990 C991 1.366 . S
C990 C992 1.388 . S
C991 C990 1.366 . S
C991 C995 1.385 . S
C992 H973 0.951 . S
C992 C990 1.388 . S
C992 C993 1.366 . S
C993 C992 1.366 . S
C993 C994 1.414 . S
C993 C996 1.499 . S
C994 H974 0.950 . S
C994 C993 1.414 . S
C994 C995 1.374 . S
C995 H975 0.950 . S
C995 C991 1.385 . S
C995 C994 1.374 . S
C996 C993 1.499 . S
C996 C997 1.373 . S
C996 C998 1.389 . S
C997 H976 0.950 . S
C997 C996 1.373 . S
C997 C1013 1.377 . S
C998 C996 1.389 . S
C998 C999 1.524 . S
C998 C1012 1.377 . S
C999 C998 1.524 . S
C999 C1000 1.397 . S
C999 C1004 1.363 . S
C1000 H977 0.950 . S
C1000 C999 1.397 . S
C1000 C1001 1.334 . S
C1001 H978 0.950 . S
C1001 C1000 1.334 . S
C1001 C1002 1.287 . S
C1002 C1001 1.287 . S
C1002 C1003 1.524 . S
C1002 H1021 0.913 . S
C1003 H979 0.950 . S
C1003 C1002 1.524 . S
C1003 C1004 1.415 . S
C1004 H980 0.950 . S
C1004 C999 1.363 . S
C1004 C1003 1.415 . S
C1005 H981 0.951 . S
C1005 C1006 1.366 . S
C1005 C1007 1.388 . S
C1006 C1005 1.366 . S
C1006 C1010 1.385 . S
C1007 H982 0.951 . S
C1007 C1005 1.388 . S
C1007 C1008 1.366 . S
C1008 C1007 1.366 . S
C1008 C1009 1.414 . S
C1008 C1011 1.499 . S
C1009 H983 0.950 . S
C1009 C1008 1.414 . S
C1009 C1010 1.374 . S
C1010 H984 0.950 . S
C1010 C1006 1.385 . S
C1010 C1009 1.374 . S
C1011 C1008 1.499 . S
C1011 C1012 1.373 1_655 S
C1011 C1013 1.389 1_655 S
C1012 H985 0.950 . S
C1012 C998 1.377 . S
C1012 C1011 1.373 1_455 S
C1013 C997 1.377 . S
C1013 C1011 1.389 1_455 S
C1013 C1014 1.524 1_455 S
C1014 C1013 1.524 1_655 S
C1014 C1015 1.397 . S
C1014 C1019 1.363 1_655 S
C1015 H986 0.950 . S
C1015 C1014 1.397 . S
C1015 C1016 1.334 . S
C1016 H987 0.950 . S
C1016 C1015 1.334 . S
C1016 C1017 1.287 . S
C1017 C1016 1.287 . S
C1017 C1018 1.524 . S
C1017 H1020 0.999 . S
C1018 H988 0.950 . S
C1018 C1017 1.524 . S
C1018 C1019 1.415 1_655 S
C1019 H989 0.950 . S
C1019 C1014 1.363 1_455 S
C1019 C1018 1.415 1_455 S
H1020 C1017 0.999 . S
H1021 C1002 0.913 . S
H1022 C1040 0.951 . S
H1023 C1042 0.951 . S
H1024 C1044 0.950 . S
H1025 C1045 0.950 . S
H1026 C1047 0.950 . S
H1027 C1050 0.950 . S
H1028 C1051 0.950 . S
H1029 C1053 0.950 . S
H1030 C1054 0.950 . S
H1031 C1055 0.951 . S
H1032 C1057 0.951 . S
H1033 C1059 0.950 . S
H1034 C1060 0.950 . S
H1035 C1062 0.946 1_455 S
H1036 C1065 0.950 . S
H1037 C1066 0.950 . S
H1038 C1068 0.950 1_655 S
H1039 C1069 0.950 . S
C1040 H1022 0.951 . S
C1040 C1041 1.366 . S
C1040 C1042 1.388 . S
C1041 C1040 1.366 . S
C1041 C1045 1.385 . S
C1042 H1023 0.951 . S
C1042 C1040 1.388 . S
C1042 C1043 1.366 . S
C1043 C1042 1.366 . S
C1043 C1044 1.414 . S
C1043 C1046 1.499 . S
C1044 H1024 0.950 . S
C1044 C1043 1.414 . S
C1044 C1045 1.374 . S
C1045 H1025 0.950 . S
C1045 C1041 1.385 . S
C1045 C1044 1.374 . S
C1046 C1043 1.499 . S
C1046 C1047 1.373 . S
C1046 C1048 1.389 . S
C1047 H1026 0.950 . S
C1047 C1046 1.373 . S
C1047 C1063 1.377 . S
C1048 C1046 1.389 . S
C1048 C1049 1.524 . S
C1048 C1062 1.377 . S
C1049 C1048 1.524 . S
C1049 C1050 1.397 . S
C1049 C1054 1.363 . S
C1050 H1027 0.950 . S
C1050 C1049 1.397 . S
C1050 C1051 1.334 . S
C1051 H1028 0.950 . S
C1051 C1050 1.334 . S
C1051 C1052 1.287 . S
C1052 C1051 1.287 . S
C1052 C1053 1.524 . S
C1052 H1071 0.913 . S
C1053 H1029 0.950 . S
C1053 C1052 1.524 . S
C1053 C1054 1.415 . S
C1054 H1030 0.950 . S
C1054 C1049 1.363 . S
C1054 C1053 1.415 . S
C1055 H1031 0.951 . S
C1055 C1056 1.366 . S
C1055 C1057 1.388 . S
C1056 C1055 1.366 . S
C1056 C1060 1.385 . S
C1057 H1032 0.951 . S
C1057 C1055 1.388 . S
C1057 C1058 1.366 . S
C1058 C1057 1.366 . S
C1058 C1059 1.414 . S
C1058 C1061 1.499 . S
C1059 H1033 0.950 . S
C1059 C1058 1.414 . S
C1059 C1060 1.374 . S
C1060 H1034 0.950 . S
C1060 C1056 1.385 . S
C1060 C1059 1.374 . S
C1061 C1058 1.499 . S
C1061 C1062 1.373 1_455 S
C1061 C1063 1.389 1_455 S
C1062 H1035 0.946 1_655 S
C1062 C1048 1.377 . S
C1062 C1061 1.373 1_655 S
C1063 C1047 1.377 . S
C1063 C1061 1.389 1_655 S
C1063 C1064 1.522 1_655 S
C1064 C1063 1.522 1_455 S
C1064 C1065 1.400 . S
C1064 C1069 1.361 1_455 S
C1065 H1036 0.950 . S
C1065 C1064 1.400 . S
C1065 C1066 1.334 . S
C1066 H1037 0.950 . S
C1066 C1065 1.334 . S
C1066 C1067 1.287 . S
C1067 C1066 1.287 . S
C1067 C1068 1.524 . S
C1067 H1070 0.999 . S
C1068 H1038 0.950 1_455 S
C1068 C1067 1.524 . S
C1068 C1069 1.415 1_455 S
C1069 H1039 0.950 . S
C1069 C1064 1.361 1_655 S
C1069 C1068 1.415 1_655 S
H1070 C1067 0.999 . S
H1071 C1052 0.913 . S
H1072 C1090 0.951 . S
H1073 C1092 0.951 . S
H1074 C1094 0.950 1_655 S
H1075 C1095 0.950 1_655 S
H1076 C1097 0.950 . S
H1077 C1100 0.950 . S
H1078 C1101 0.950 . S
H1079 C1103 0.950 . S
H1080 C1104 0.950 . S
H1081 C1105 0.951 . S
H1082 C1107 0.951 . S
H1083 C1109 0.950 1_455 S
H1084 C1110 0.950 1_455 S
H1085 C1112 0.950 . S
H1086 C1115 0.950 . S
H1087 C1116 0.950 . S
H1088 C1118 0.950 . S
H1089 C1119 0.950 . S
C1090 H1072 0.951 . S
C1090 C1091 1.366 . S
C1090 C1092 1.388 . S
C1091 C1090 1.366 . S
C1091 C1095 1.385 1_554 S
C1092 H1073 0.951 . S
C1092 C1090 1.388 . S
C1092 C1093 1.366 . S
C1093 C1092 1.366 . S
C1093 C1094 1.414 1_554 S
C1093 C1096 1.499 . S
C1094 H1074 0.950 1_455 S
C1094 C1093 1.414 1_556 S
C1094 C1095 1.374 . S
C1095 H1075 0.950 1_455 S
C1095 C1091 1.385 1_556 S
C1095 C1094 1.374 . S
C1096 C1093 1.499 . S
C1096 C1097 1.373 1_455 S
C1096 C1098 1.389 . S
C1097 H1076 0.950 . S
C1097 C1096 1.373 1_655 S
C1097 C1113 1.377 . S
C1098 C1096 1.389 . S
C1098 C1099 1.524 . S
C1098 C1112 1.377 . S
C1099 C1098 1.524 . S
C1099 C1100 1.397 1_554 S
C1099 C1104 1.363 . S
C1100 H1077 0.950 . S
C1100 C1099 1.397 1_556 S
C1100 C1101 1.334 . S
C1101 H1078 0.950 . S
C1101 C1100 1.334 . S
C1101 C1102 1.287 . S
C1102 C1101 1.287 . S
C1102 C1103 1.524 1_556 S
C1102 H1121 0.913 . S
C1103 H1079 0.950 . S
C1103 C1102 1.524 1_554 S
C1103 C1104 1.415 . S
C1104 H1080 0.950 . S
C1104 C1099 1.363 . S
C1104 C1103 1.415 . S
C1105 H1081 0.951 . S
C1105 C1106 1.366 1_556 S
C1105 C1107 1.388 . S
C1106 C1105 1.366 1_554 S
C1106 C1110 1.385 . S
C1107 H1082 0.951 . S
C1107 C1105 1.388 . S
C1107 C1108 1.366 1_556 S
C1108 C1107 1.366 1_554 S
C1108 C1109 1.414 . S
C1108 C1111 1.499 . S
C1109 H1083 0.950 1_655 S
C1109 C1108 1.414 . S
C1109 C1110 1.374 . S
C1110 H1084 0.950 1_655 S
C1110 C1106 1.385 . S
C1110 C1109 1.374 . S
C1111 C1108 1.499 . S
C1111 C1112 1.373 1_655 S
C1111 C1113 1.389 . S
C1112 H1085 0.950 . S
C1112 C1098 1.377 . S
C1112 C1111 1.373 1_455 S
C1113 C1097 1.377 . S
C1113 C1111 1.389 . S
C1113 C1114 1.524 . S
C1114 C1113 1.524 . S
C1114 C1115 1.397 . S
C1114 C1119 1.363 1_554 S
C1115 H1086 0.950 . S
C1115 C1114 1.397 . S
C1115 C1116 1.334 . S
C1116 H1087 0.950 . S
C1116 C1115 1.334 . S
C1116 C1117 1.287 . S
C1117 C1116 1.287 . S
C1117 C1118 1.524 1_554 S
C1117 H1120 0.999 . S
C1118 H1088 0.950 . S
C1118 C1117 1.524 1_556 S
C1118 C1119 1.415 . S
C1119 H1089 0.950 . S
C1119 C1114 1.363 1_556 S
C1119 C1118 1.415 . S
H1120 C1117 0.999 . S
H1121 C1102 0.913 . S
H1122 C1140 0.957 . S
H1123 C1142 0.951 1_655 S
H1124 C1144 0.950 . S
H1125 C1145 0.950 . S
H1126 C1147 0.950 . S
H1127 C1150 0.950 . S
H1128 C1151 0.950 . S
H1129 C1153 0.950 . S
H1130 C1154 0.950 . S
H1131 C1155 0.957 . S
H1132 C1157 0.951 1_455 S
H1133 C1159 0.950 . S
H1134 C1160 0.950 . S
H1135 C1162 0.950 . S
H1136 C1165 0.950 . S
H1137 C1166 0.950 . S
H1138 C1168 0.950 . S
H1139 C1169 0.950 . S
C1140 H1122 0.957 . S
C1140 C1141 1.366 . S
C1140 C1142 1.388 . S
C1141 C1140 1.366 . S
C1141 C1145 1.385 . S
C1142 H1123 0.951 1_455 S
C1142 C1140 1.388 . S
C1142 C1143 1.366 . S
C1143 C1142 1.366 . S
C1143 C1144 1.414 . S
C1143 C1146 1.499 . S
C1144 H1124 0.950 . S
C1144 C1143 1.414 . S
C1144 C1145 1.374 . S
C1145 H1125 0.950 . S
C1145 C1141 1.385 . S
C1145 C1144 1.374 . S
C1146 C1143 1.499 . S
C1146 C1147 1.373 . S
C1146 C1148 1.389 1_455 S
C1147 H1126 0.950 . S
C1147 C1146 1.373 . S
C1147 C1163 1.377 . S
C1148 C1146 1.389 1_655 S
C1148 C1149 1.524 . S
C1148 C1162 1.377 . S
C1149 C1148 1.524 . S
C1149 C1150 1.397 . S
C1149 C1154 1.363 . S
C1150 H1127 0.950 . S
C1150 C1149 1.397 . S
C1150 C1151 1.334 . S
C1151 H1128 0.950 . S
C1151 C1150 1.334 . S
C1151 C1152 1.287 . S
C1152 C1151 1.287 . S
C1152 C1153 1.524 . S
C1152 H1171 0.913 . S
C1153 H1129 0.950 . S
C1153 C1152 1.524 . S
C1153 C1154 1.415 . S
C1154 H1130 0.950 . S
C1154 C1149 1.363 . S
C1154 C1153 1.415 . S
C1155 H1131 0.957 . S
C1155 C1156 1.366 . S
C1155 C1157 1.388 . S
C1156 C1155 1.366 . S
C1156 C1160 1.385 . S
C1157 H1132 0.951 1_655 S
C1157 C1155 1.388 . S
C1157 C1158 1.366 . S
C1158 C1157 1.366 . S
C1158 C1159 1.414 . S
C1158 C1161 1.499 . S
C1159 H1133 0.950 . S
C1159 C1158 1.414 . S
C1159 C1160 1.374 . S
C1160 H1134 0.950 . S
C1160 C1156 1.385 . S
C1160 C1159 1.374 . S
C1161 C1158 1.499 . S
C1161 C1162 1.373 . S
C1161 C1163 1.389 1_655 S
C1162 H1135 0.950 . S
C1162 C1148 1.377 . S
C1162 C1161 1.373 . S
C1163 C1147 1.377 . S
C1163 C1161 1.389 1_455 S
C1163 C1164 1.524 . S
C1164 C1163 1.524 . S
C1164 C1165 1.397 . S
C1164 C1169 1.363 . S
C1165 H1136 0.950 . S
C1165 C1164 1.397 . S
C1165 C1166 1.334 . S
C1166 H1137 0.950 . S
C1166 C1165 1.334 . S
C1166 C1167 1.287 . S
C1167 C1166 1.287 . S
C1167 C1168 1.524 . S
C1167 H1170 0.999 . S
C1168 H1138 0.950 . S
C1168 C1167 1.524 . S
C1168 C1169 1.415 . S
C1169 H1139 0.950 . S
C1169 C1164 1.363 . S
C1169 C1168 1.415 . S
H1170 C1167 0.999 . S
H1171 C1152 0.913 . S
H1172 C1190 0.951 . S
H1173 C1192 0.951 . S
H1174 C1194 0.950 . S
H1175 C1195 0.950 . S
H1176 C1197 0.950 . S
H1177 C1200 0.950 . S
H1178 C1201 0.950 . S
H1179 C1203 0.950 1_554 S
H1180 C1204 0.950 1_545 S
H1181 C1205 0.951 . S
H1182 C1207 0.951 . S
H1183 C1209 0.950 . S
H1184 C1210 0.950 . S
H1185 C1212 0.950 . S
H1186 C1215 0.950 . S
H1187 C1216 0.950 . S
H1188 C1218 0.950 . S
H1189 C1219 0.950 1_566 S
C1190 H1172 0.951 . S
C1190 C1191 1.366 . S
C1190 C1192 1.388 . S
C1191 C1190 1.366 . S
C1191 C1195 1.385 1_554 S
C1192 H1173 0.951 . S
C1192 C1190 1.388 . S
C1192 C1193 1.366 . S
C1193 C1192 1.366 . S
C1193 C1194 1.414 1_554 S
C1193 C1196 1.499 . S
C1194 H1174 0.950 . S
C1194 C1193 1.414 1_556 S
C1194 C1195 1.374 . S
C1195 H1175 0.950 . S
C1195 C1191 1.385 1_556 S
C1195 C1194 1.374 . S
C1196 C1193 1.499 . S
C1196 C1197 1.373 . S
C1196 C1198 1.389 . S
C1197 H1176 0.950 . S
C1197 C1196 1.373 . S
C1197 C1213 1.377 1_565 S
C1198 C1196 1.389 . S
C1198 C1199 1.524 1_554 S
C1198 C1212 1.377 1_565 S
C1199 C1198 1.524 1_556 S
C1199 C1200 1.397 . S
C1199 C1204 1.363 1_556 S
C1200 H1177 0.950 . S
C1200 C1199 1.397 . S
C1200 C1201 1.334 . S
C1201 H1178 0.950 . S
C1201 C1200 1.334 . S
C1201 C1202 1.287 . S
C1202 C1201 1.287 . S
C1202 C1203 1.524 . S
C1202 H1221 0.913 . S
C1203 H1179 0.950 1_556 S
C1203 C1202 1.524 . S
C1203 C1204 1.415 1_556 S
C1204 H1180 0.950 1_565 S
C1204 C1199 1.363 1_554 S
C1204 C1203 1.415 1_554 S
C1205 H1181 0.951 . S
C1205 C1206 1.366 1_556 S
C1205 C1207 1.388 . S
C1206 C1205 1.366 1_554 S
C1206 C1210 1.385 . S
C1207 H1182 0.951 . S
C1207 C1205 1.388 . S
C1207 C1208 1.366 1_556 S
C1208 C1207 1.366 1_554 S
C1208 C1209 1.414 . S
C1208 C1211 1.499 . S
C1209 H1183 0.950 . S
C1209 C1208 1.414 . S
C1209 C1210 1.374 . S
C1210 H1184 0.950 . S
C1210 C1206 1.385 . S
C1210 C1209 1.374 . S
C1211 C1208 1.499 . S
C1211 C1212 1.373 . S
C1211 C1213 1.389 . S
C1212 H1185 0.950 . S
C1212 C1198 1.377 1_545 S
C1212 C1211 1.373 . S
C1213 C1197 1.377 1_545 S
C1213 C1211 1.389 . S
C1213 C1214 1.524 . S
C1214 C1213 1.524 . S
C1214 C1215 1.397 . S
C1214 C1219 1.363 . S
C1215 H1186 0.950 . S
C1215 C1214 1.397 . S
C1215 C1216 1.334 . S
C1216 H1187 0.950 . S
C1216 C1215 1.334 . S
C1216 C1217 1.287 . S
C1217 C1216 1.287 . S
C1217 C1218 1.524 . S
C1217 H1220 0.999 . S
C1218 H1188 0.950 . S
C1218 C1217 1.524 . S
C1218 C1219 1.415 . S
C1219 H1189 0.950 1_544 S
C1219 C1214 1.363 . S
C1219 C1218 1.415 . S
H1220 C1217 0.999 . S
H1221 C1202 0.913 . S
H1222 C1240 0.951 . S
H1223 C1242 0.951 . S
H1224 C1244 0.950 . S
H1225 C1245 0.950 . S
H1226 C1247 0.950 . S
H1227 C1250 0.950 . S
H1228 C1251 0.950 . S
H1229 C1253 0.950 . S
H1230 C1254 0.950 . S
H1231 C1255 0.951 . S
H1232 C1257 0.951 . S
H1233 C1259 0.950 . S
H1234 C1260 0.950 . S
H1235 C1262 0.950 . S
H1236 C1265 0.950 . S
H1237 C1266 0.950 . S
H1238 C1268 0.950 . S
H1239 C1269 0.950 . S
C1240 H1222 0.951 . S
C1240 C1241 1.366 . S
C1240 C1242 1.388 . S
C1241 C1240 1.366 . S
C1241 C1245 1.385 . S
C1242 H1223 0.951 . S
C1242 C1240 1.388 . S
C1242 C1243 1.366 . S
C1243 C1242 1.366 . S
C1243 C1244 1.414 . S
C1243 C1246 1.499 . S
C1244 H1224 0.950 . S
C1244 C1243 1.414 . S
C1244 C1245 1.374 . S
C1245 H1225 0.950 . S
C1245 C1241 1.385 . S
C1245 C1244 1.374 . S
C1246 C1243 1.499 . S
C1246 C1247 1.373 . S
C1246 C1248 1.389 . S
C1247 H1226 0.950 . S
C1247 C1246 1.373 . S
C1247 C1263 1.377 1_545 S
C1248 C1246 1.389 . S
C1248 C1249 1.524 . S
C1248 C1262 1.377 1_545 S
C1249 C1248 1.524 . S
C1249 C1250 1.397 . S
C1249 C1254 1.363 . S
C1250 H1227 0.950 . S
C1250 C1249 1.397 . S
C1250 C1251 1.334 . S
C1251 H1228 0.950 . S
C1251 C1250 1.334 . S
C1251 C1252 1.287 . S
C1252 C1251 1.287 . S
C1252 C1253 1.524 . S
C1252 H1271 0.913 . S
C1253 H1229 0.950 . S
C1253 C1252 1.524 . S
C1253 C1254 1.415 . S
C1254 H1230 0.950 . S
C1254 C1249 1.363 . S
C1254 C1253 1.415 . S
C1255 H1231 0.951 . S
C1255 C1256 1.366 . S
C1255 C1257 1.388 . S
C1256 C1255 1.366 . S
C1256 C1260 1.385 . S
C1257 H1232 0.951 . S
C1257 C1255 1.388 . S
C1257 C1258 1.366 . S
C1258 C1257 1.366 . S
C1258 C1259 1.414 . S
C1258 C1261 1.499 . S
C1259 H1233 0.950 . S
C1259 C1258 1.414 . S
C1259 C1260 1.374 . S
C1260 H1234 0.950 . S
C1260 C1256 1.385 . S
C1260 C1259 1.374 . S
C1261 C1258 1.499 . S
C1261 C1262 1.373 . S
C1261 C1263 1.389 . S
C1262 H1235 0.950 . S
C1262 C1248 1.377 1_565 S
C1262 C1261 1.373 . S
C1263 C1247 1.377 1_565 S
C1263 C1261 1.389 . S
C1263 C1264 1.524 . S
C1264 C1263 1.524 . S
C1264 C1265 1.397 . S
C1264 C1269 1.363 . S
C1265 H1236 0.950 . S
C1265 C1264 1.397 . S
C1265 C1266 1.334 . S
C1266 H1237 0.950 . S
C1266 C1265 1.334 . S
C1266 C1267 1.287 . S
C1267 C1266 1.287 . S
C1267 C1268 1.524 . S
C1267 H1270 0.999 . S
C1268 H1238 0.950 . S
C1268 C1267 1.524 . S
C1268 C1269 1.415 . S
C1269 H1239 0.950 . S
C1269 C1264 1.363 . S
C1269 C1268 1.415 . S
H1270 C1267 0.999 . S
H1271 C1252 0.913 . S
H1272 C1290 0.951 . S
H1273 C1292 0.951 . S
H1274 C1294 0.950 . S
H1275 C1295 0.950 . S
H1276 C1297 0.950 . S
H1277 C1300 0.950 . S
H1278 C1301 0.950 . S
H1279 C1303 0.950 . S
H1280 C1304 0.950 . S
H1281 C1305 0.951 . S
H1282 C1307 0.951 . S
H1283 C1309 0.950 1_556 S
H1284 C1310 0.950 1_556 S
H1285 C1312 0.950 . S
H1286 C1315 0.950 . S
H1287 C1316 0.950 . S
H1288 C1318 0.950 . S
H1289 C1319 0.950 . S
C1290 H1272 0.951 . S
C1290 C1291 1.366 1_556 S
C1290 C1292 1.388 . S
C1291 C1290 1.366 1_554 S
C1291 C1295 1.385 . S
C1292 H1273 0.951 . S
C1292 C1290 1.388 . S
C1292 C1293 1.366 1_556 S
C1293 C1292 1.366 1_554 S
C1293 C1294 1.414 . S
C1293 C1296 1.499 . S
C1294 H1274 0.950 . S
C1294 C1293 1.414 . S
C1294 C1295 1.374 . S
C1295 H1275 0.950 . S
C1295 C1291 1.385 . S
C1295 C1294 1.374 . S
C1296 C1293 1.499 . S
C1296 C1297 1.373 . S
C1296 C1298 1.389 1_554 S
C1297 H1276 0.950 . S
C1297 C1296 1.373 . S
C1297 C1313 1.377 . S
C1298 C1296 1.389 1_556 S
C1298 C1299 1.524 . S
C1298 C1312 1.377 . S
C1299 C1298 1.524 . S
C1299 C1300 1.397 . S
C1299 C1304 1.363 . S
C1300 H1277 0.950 . S
C1300 C1299 1.397 . S
C1300 C1301 1.334 . S
C1301 H1278 0.950 . S
C1301 C1300 1.334 . S
C1301 C1302 1.287 . S
C1302 C1301 1.287 . S
C1302 C1303 1.524 . S
C1302 H1321 0.913 . S
C1303 H1279 0.950 . S
C1303 C1302 1.524 . S
C1303 C1304 1.415 . S
C1304 H1280 0.950 . S
C1304 C1299 1.363 . S
C1304 C1303 1.415 . S
C1305 H1281 0.951 . S
C1305 C1306 1.366 . S
C1305 C1307 1.388 . S
C1306 C1305 1.366 . S
C1306 C1310 1.385 . S
C1307 H1282 0.951 . S
C1307 C1305 1.388 . S
C1307 C1308 1.366 . S
C1308 C1307 1.366 . S
C1308 C1309 1.414 . S
C1308 C1311 1.499 . S
C1309 H1283 0.950 1_554 S
C1309 C1308 1.414 . S
C1309 C1310 1.374 . S
C1310 H1284 0.950 1_554 S
C1310 C1306 1.385 . S
C1310 C1309 1.374 . S
C1311 C1308 1.499 . S
C1311 C1312 1.373 1_554 S
C1311 C1313 1.389 . S
C1312 H1285 0.950 . S
C1312 C1298 1.377 . S
C1312 C1311 1.373 1_556 S
C1313 C1297 1.377 . S
C1313 C1311 1.389 . S
C1313 C1314 1.524 . S
C1314 C1313 1.524 . S
C1314 C1315 1.397 . S
C1314 C1319 1.363 . S
C1315 H1286 0.950 . S
C1315 C1314 1.397 . S
C1315 C1316 1.334 . S
C1316 H1287 0.950 . S
C1316 C1315 1.334 . S
C1316 C1317 1.287 . S
C1317 C1316 1.287 . S
C1317 C1318 1.524 . S
C1317 H1320 0.999 . S
C1318 H1288 0.950 . S
C1318 C1317 1.524 . S
C1318 C1319 1.415 . S
C1319 H1289 0.950 . S
C1319 C1314 1.363 . S
C1319 C1318 1.415 . S
H1320 C1317 0.999 . S
H1321 C1302 0.913 . S
H1322 C1340 0.943 1_556 S
H1323 C1342 0.951 1_556 S
H1324 C1344 0.950 . S
H1325 C1345 0.950 . S
H1326 C1347 0.950 . S
H1327 C1350 0.950 . S
H1328 C1351 0.950 . S
H1329 C1353 0.950 . S
H1330 C1354 0.950 . S
H1331 C1355 0.951 . S
H1332 C1357 0.951 . S
H1333 C1359 0.960 . S
H1334 C1360 0.950 . S
H1335 C1362 0.950 . S
H1336 C1365 0.950 . S
H1337 C1366 0.950 . S
H1338 C1368 0.950 1_455 S
H1339 C1369 0.950 . S
C1340 H1322 0.943 1_554 S
C1340 C1341 1.363 . S
C1340 C1342 1.398 . S
C1341 C1340 1.363 . S
C1341 C1345 1.385 . S
C1342 H1323 0.951 1_554 S
C1342 C1340 1.398 . S
C1342 C1343 1.366 . S
C1343 C1342 1.366 . S
C1343 C1344 1.414 . S
C1343 C1346 1.499 . S
C1344 H1324 0.950 . S
C1344 C1343 1.414 . S
C1344 C1345 1.374 . S
C1345 H1325 0.950 . S
C1345 C1341 1.385 . S
C1345 C1344 1.374 . S
C1346 C1343 1.499 . S
C1346 C1347 1.373 1_554 S
C1346 C1348 1.389 . S
C1347 H1326 0.950 . S
C1347 C1346 1.373 1_556 S
C1347 C1363 1.377 . S
C1348 C1346 1.389 . S
C1348 C1349 1.524 . S
C1348 C1362 1.377 . S
C1349 C1348 1.524 . S
C1349 C1350 1.397 . S
C1349 C1354 1.363 . S
C1350 H1327 0.950 . S
C1350 C1349 1.397 . S
C1350 C1351 1.334 . S
C1351 H1328 0.950 . S
C1351 C1350 1.334 . S
C1351 C1352 1.287 . S
C1352 C1351 1.287 . S
C1352 C1353 1.524 . S
C1352 H1371 0.913 . S
C1353 H1329 0.950 . S
C1353 C1352 1.524 . S
C1353 C1354 1.415 . S
C1354 H1330 0.950 . S
C1354 C1349 1.363 . S
C1354 C1353 1.415 . S
C1355 H1331 0.951 . S
C1355 C1356 1.366 . S
C1355 C1357 1.388 . S
C1356 C1355 1.366 . S
C1356 C1360 1.385 . S
C1357 H1332 0.951 . S
C1357 C1355 1.388 . S
C1357 C1358 1.366 . S
C1358 C1357 1.366 . S
C1358 C1359 1.414 . S
C1358 C1361 1.499 . S
C1359 H1333 0.960 . S
C1359 C1358 1.414 . S
C1359 C1360 1.374 . S
C1360 H1334 0.950 . S
C1360 C1356 1.385 . S
C1360 C1359 1.374 . S
C1361 C1358 1.499 . S
C1361 C1362 1.373 . S
C1361 C1363 1.389 1_554 S
C1362 H1335 0.950 . S
C1362 C1348 1.377 . S
C1362 C1361 1.373 . S
C1363 C1347 1.377 . S
C1363 C1361 1.389 1_556 S
C1363 C1364 1.524 . S
C1364 C1363 1.524 . S
C1364 C1365 1.397 . S
C1364 C1369 1.363 . S
C1365 H1336 0.950 . S
C1365 C1364 1.397 . S
C1365 C1366 1.334 . S
C1366 H1337 0.950 . S
C1366 C1365 1.334 . S
C1366 C1367 1.287 . S
C1367 C1366 1.287 . S
C1367 C1368 1.524 . S
C1367 H1370 0.999 . S
C1368 H1338 0.950 1_655 S
C1368 C1367 1.524 . S
C1368 C1369 1.415 . S
C1369 H1339 0.950 . S
C1369 C1364 1.363 . S
C1369 C1368 1.415 . S
H1370 C1367 0.999 . S
H1371 C1352 0.913 . S
H1372 C1390 0.951 . S
H1373 C1392 0.951 . S
H1374 C1394 0.950 . S
H1375 C1395 0.950 . S
H1376 C1397 0.950 . S
H1377 C1400 0.950 . S
H1378 C1401 0.950 . S
H1379 C1403 0.950 . S
H1380 C1404 0.950 . S
H1381 C1405 0.951 . S
H1382 C1407 0.951 . S
H1383 C1409 0.950 . S
H1384 C1410 0.950 . S
H1385 C1412 0.950 . S
H1386 C1415 0.950 . S
H1387 C1416 0.950 . S
H1388 C1418 0.964 . S
H1389 C1419 0.950 . S
C1390 H1372 0.951 . S
C1390 C1391 1.366 . S
C1390 C1392 1.388 . S
C1391 C1390 1.366 . S
C1391 C1395 1.385 . S
C1392 H1373 0.951 . S
C1392 C1390 1.388 . S
C1392 C1393 1.366 . S
C1393 C1392 1.366 . S
C1393 C1394 1.414 . S
C1393 C1396 1.499 . S
C1394 H1374 0.950 . S
C1394 C1393 1.414 . S
C1394 C1395 1.374 . S
C1395 H1375 0.950 . S
C1395 C1391 1.385 . S
C1395 C1394 1.374 . S
C1396 C1393 1.499 . S
C1396 C1397 1.373 . S
C1396 C1398 1.389 . S
C1397 H1376 0.950 . S
C1397 C1396 1.373 . S
C1397 C1413 1.377 . S
C1398 C1396 1.389 . S
C1398 C1399 1.524 . S
C1398 C1412 1.377 . S
C1399 C1398 1.524 . S
C1399 C1400 1.397 . S
C1399 C1404 1.363 . S
C1400 H1377 0.950 . S
C1400 C1399 1.397 . S
C1400 C1401 1.334 . S
C1401 H1378 0.950 . S
C1401 C1400 1.334 . S
C1401 C1402 1.287 . S
C1402 C1401 1.287 . S
C1402 C1403 1.524 . S
C1402 H1421 0.913 . S
C1403 H1379 0.950 . S
C1403 C1402 1.524 . S
C1403 C1404 1.415 . S
C1404 H1380 0.950 . S
C1404 C1399 1.363 . S
C1404 C1403 1.415 . S
C1405 H1381 0.951 . S
C1405 C1406 1.366 . S
C1405 C1407 1.388 . S
C1406 C1405 1.366 . S
C1406 C1410 1.385 . S
C1407 H1382 0.951 . S
C1407 C1405 1.388 . S
C1407 C1408 1.366 . S
C1408 C1407 1.366 . S
C1408 C1409 1.414 . S
C1408 C1411 1.499 . S
C1409 H1383 0.950 . S
C1409 C1408 1.414 . S
C1409 C1410 1.374 . S
C1410 H1384 0.950 . S
C1410 C1406 1.385 . S
C1410 C1409 1.374 . S
C1411 C1408 1.499 . S
C1411 C1412 1.373 . S
C1411 C1413 1.389 . S
C1412 H1385 0.950 . S
C1412 C1398 1.377 . S
C1412 C1411 1.373 . S
C1413 C1397 1.377 . S
C1413 C1411 1.389 . S
C1413 C1414 1.524 . S
C1414 C1413 1.524 . S
C1414 C1415 1.397 . S
C1414 C1419 1.363 . S
C1415 H1386 0.950 . S
C1415 C1414 1.397 . S
C1415 C1416 1.334 . S
C1416 H1387 0.950 . S
C1416 C1415 1.334 . S
C1416 C1417 1.287 . S
C1417 C1416 1.287 . S
C1417 C1418 1.524 . S
C1417 H1420 0.999 . S
C1418 H1388 0.964 . S
C1418 C1417 1.524 . S
C1418 C1419 1.415 . S
C1419 H1389 0.950 . S
C1419 C1414 1.363 . S
C1419 C1418 1.415 . S
H1420 C1417 0.999 . S
H1421 C1402 0.913 . S
H1422 C1440 0.951 . S
H1423 C1442 0.951 . S
H1424 C1444 0.950 . S
H1425 C1445 0.950 . S
H1426 C1447 0.950 . S
H1427 C1450 0.950 . S
H1428 C1451 0.950 . S
H1429 C1453 0.950 1_455 S
H1430 C1454 0.950 . S
H1431 C1455 0.951 . S
H1432 C1457 0.951 . S
H1433 C1459 0.950 . S
H1434 C1460 0.950 . S
H1435 C1462 0.950 . S
H1436 C1465 0.950 . S
H1437 C1466 0.950 . S
H1438 C1468 0.950 . S
H1439 C1469 0.950 . S
C1440 H1422 0.951 . S
C1440 C1441 1.366 . S
C1440 C1442 1.388 . S
C1441 C1440 1.366 . S
C1441 C1445 1.385 . S
C1442 H1423 0.951 . S
C1442 C1440 1.388 . S
C1442 C1443 1.366 . S
C1443 C1442 1.366 . S
C1443 C1444 1.414 . S
C1443 C1446 1.499 . S
C1444 H1424 0.950 . S
C1444 C1443 1.414 . S
C1444 C1445 1.374 . S
C1445 H1425 0.950 . S
C1445 C1441 1.385 . S
C1445 C1444 1.374 . S
C1446 C1443 1.499 . S
C1446 C1447 1.373 . S
C1446 C1448 1.389 . S
C1447 H1426 0.950 . S
C1447 C1446 1.373 . S
C1447 C1463 1.377 . S
C1448 C1446 1.389 . S
C1448 C1449 1.524 . S
C1448 C1462 1.377 . S
C1449 C1448 1.524 . S
C1449 C1450 1.397 . S
C1449 C1454 1.363 . S
C1450 H1427 0.950 . S
C1450 C1449 1.397 . S
C1450 C1451 1.334 . S
C1451 H1428 0.950 . S
C1451 C1450 1.334 . S
C1451 C1452 1.287 . S
C1452 C1451 1.287 . S
C1452 C1453 1.524 . S
C1452 H1471 0.913 . S
C1453 H1429 0.950 1_655 S
C1453 C1452 1.524 . S
C1453 C1454 1.415 . S
C1454 H1430 0.950 . S
C1454 C1449 1.363 . S
C1454 C1453 1.415 . S
C1455 H1431 0.951 . S
C1455 C1456 1.366 . S
C1455 C1457 1.388 . S
C1456 C1455 1.366 . S
C1456 C1460 1.385 . S
C1457 H1432 0.951 . S
C1457 C1455 1.388 . S
C1457 C1458 1.366 . S
C1458 C1457 1.366 . S
C1458 C1459 1.414 . S
C1458 C1461 1.499 . S
C1459 H1433 0.950 . S
C1459 C1458 1.414 . S
C1459 C1460 1.374 . S
C1460 H1434 0.950 . S
C1460 C1456 1.385 . S
C1460 C1459 1.374 . S
C1461 C1458 1.499 . S
C1461 C1462 1.373 . S
C1461 C1463 1.389 . S
C1462 H1435 0.950 . S
C1462 C1448 1.377 . S
C1462 C1461 1.373 . S
C1463 C1447 1.377 . S
C1463 C1461 1.389 . S
C1463 C1464 1.524 . S
C1464 C1463 1.524 . S
C1464 C1465 1.397 . S
C1464 C1469 1.363 . S
C1465 H1436 0.950 . S
C1465 C1464 1.397 . S
C1465 C1466 1.334 . S
C1466 H1437 0.950 . S
C1466 C1465 1.334 . S
C1466 C1467 1.287 . S
C1467 C1466 1.287 . S
C1467 C1468 1.524 . S
C1467 H1470 0.999 . S
C1468 H1438 0.950 . S
C1468 C1467 1.524 . S
C1468 C1469 1.415 . S
C1469 H1439 0.950 . S
C1469 C1464 1.363 . S
C1469 C1468 1.415 . S
H1470 C1467 0.999 . S
H1471 C1452 0.913 . S
H1472 C1490 0.951 . S
H1473 C1492 0.951 . S
H1474 C1494 0.950 1_655 S
H1475 C1495 0.950 1_655 S
H1476 C1497 0.950 . S
H1477 C1500 0.950 . S
H1478 C1501 0.950 . S
H1479 C1503 0.950 . S
H1480 C1504 0.950 . S
H1481 C1505 0.951 . S
H1482 C1507 0.951 . S
H1483 C1509 0.950 . S
H1484 C1510 0.950 . S
H1485 C1512 0.950 . S
H1486 C1515 0.950 . S
H1487 C1516 0.950 . S
H1488 C1518 0.950 . S
H1489 C1519 0.950 . S
C1490 H1472 0.951 . S
C1490 C1491 1.366 . S
C1490 C1492 1.388 . S
C1491 C1490 1.366 . S
C1491 C1495 1.385 . S
C1492 H1473 0.951 . S
C1492 C1490 1.388 . S
C1492 C1493 1.366 . S
C1493 C1492 1.366 . S
C1493 C1494 1.414 . S
C1493 C1496 1.499 . S
C1494 H1474 0.950 1_455 S
C1494 C1493 1.414 . S
C1494 C1495 1.374 . S
C1495 H1475 0.950 1_455 S
C1495 C1491 1.385 . S
C1495 C1494 1.374 . S
C1496 C1493 1.499 . S
C1496 C1497 1.373 1_455 S
C1496 C1498 1.389 . S
C1497 H1476 0.950 . S
C1497 C1496 1.373 1_655 S
C1497 C1513 1.377 . S
C1498 C1496 1.389 . S
C1498 C1499 1.524 . S
C1498 C1512 1.377 . S
C1499 C1498 1.524 . S
C1499 C1500 1.397 . S
C1499 C1504 1.363 . S
C1500 H1477 0.950 . S
C1500 C1499 1.397 . S
C1500 C1501 1.334 . S
C1501 H1478 0.950 . S
C1501 C1500 1.334 . S
C1501 C1502 1.287 . S
C1502 C1501 1.287 . S
C1502 C1503 1.524 . S
C1502 H1521 0.913 . S
C1503 H1479 0.950 . S
C1503 C1502 1.524 . S
C1503 C1504 1.415 . S
C1504 H1480 0.950 . S
C1504 C1499 1.363 . S
C1504 C1503 1.415 . S
C1505 H1481 0.951 . S
C1505 C1506 1.366 . S
C1505 C1507 1.388 . S
C1506 C1505 1.366 . S
C1506 C1510 1.385 1_655 S
C1507 H1482 0.951 . S
C1507 C1505 1.388 . S
C1507 C1508 1.366 . S
C1508 C1507 1.366 . S
C1508 C1509 1.414 1_655 S
C1508 C1511 1.499 1_655 S
C1509 H1483 0.950 . S
C1509 C1508 1.414 1_455 S
C1509 C1510 1.374 . S
C1510 H1484 0.950 . S
C1510 C1506 1.385 1_455 S
C1510 C1509 1.374 . S
C1511 C1508 1.499 1_455 S
C1511 C1512 1.373 . S
C1511 C1513 1.389 1_455 S
C1512 H1485 0.950 . S
C1512 C1498 1.377 . S
C1512 C1511 1.373 . S
C1513 C1497 1.377 . S
C1513 C1511 1.389 1_655 S
C1513 C1514 1.524 . S
C1514 C1513 1.524 . S
C1514 C1515 1.397 . S
C1514 C1519 1.363 . S
C1515 H1486 0.950 . S
C1515 C1514 1.397 . S
C1515 C1516 1.334 . S
C1516 H1487 0.950 . S
C1516 C1515 1.334 . S
C1516 C1517 1.287 . S
C1517 C1516 1.287 . S
C1517 C1518 1.524 . S
C1517 H1520 0.999 . S
C1518 H1488 0.950 . S
C1518 C1517 1.524 . S
C1518 C1519 1.415 . S
C1519 H1489 0.950 . S
C1519 C1514 1.363 . S
C1519 C1518 1.415 . S
H1520 C1517 0.999 . S
H1521 C1502 0.913 . S
H1522 C1540 0.951 . S
H1523 C1542 0.951 . S
H1524 C1544 0.950 . S
H1525 C1545 0.950 1_455 S
H1526 C1547 0.950 . S
H1527 C1550 0.950 . S
H1528 C1551 0.950 . S
H1529 C1553 0.950 . S
H1530 C1554 0.950 . S
H1531 C1555 0.951 . S
H1532 C1557 0.951 . S
H1533 C1559 0.950 . S
H1534 C1560 0.950 . S
H1535 C1562 0.950 . S
H1536 C1565 0.950 . S
H1537 C1566 0.950 . S
H1538 C1568 0.950 . S
H1539 C1569 0.950 . S
C1540 H1522 0.951 . S
C1540 C1541 1.366 . S
C1540 C1542 1.388 . S
C1541 C1540 1.366 . S
C1541 C1545 1.385 . S
C1542 H1523 0.951 . S
C1542 C1540 1.388 . S
C1542 C1543 1.366 . S
C1543 C1542 1.366 . S
C1543 C1544 1.414 1_655 S
C1543 C1546 1.499 1_655 S
C1544 H1524 0.950 . S
C1544 C1543 1.414 1_455 S
C1544 C1545 1.374 1_455 S
C1545 H1525 0.950 1_655 S
C1545 C1541 1.385 . S
C1545 C1544 1.374 1_655 S
C1546 C1543 1.499 1_455 S
C1546 C1547 1.373 . S
C1546 C1548 1.389 1_455 S
C1547 H1526 0.950 . S
C1547 C1546 1.373 . S
C1547 C1563 1.377 . S
C1548 C1546 1.389 1_655 S
C1548 C1549 1.524 . S
C1548 C1562 1.377 . S
C1549 C1548 1.524 . S
C1549 C1550 1.397 . S
C1549 C1554 1.363 . S
C1550 H1527 0.950 . S
C1550 C1549 1.397 . S
C1550 C1551 1.334 . S
C1551 H1528 0.950 . S
C1551 C1550 1.334 . S
C1551 C1552 1.287 . S
C1552 C1551 1.287 . S
C1552 C1553 1.524 . S
C1552 H1571 0.913 . S
C1553 H1529 0.950 . S
C1553 C1552 1.524 . S
C1553 C1554 1.415 . S
C1554 H1530 0.950 . S
C1554 C1549 1.363 . S
C1554 C1553 1.415 . S
C1555 H1531 0.951 . S
C1555 C1556 1.366 . S
C1555 C1557 1.388 . S
C1556 C1555 1.366 . S
C1556 C1560 1.385 . S
C1557 H1532 0.951 . S
C1557 C1555 1.388 . S
C1557 C1558 1.366 . S
C1558 C1557 1.366 . S
C1558 C1559 1.414 . S
C1558 C1561 1.499 . S
C1559 H1533 0.950 . S
C1559 C1558 1.414 . S
C1559 C1560 1.374 . S
C1560 H1534 0.950 . S
C1560 C1556 1.385 . S
C1560 C1559 1.374 . S
C1561 C1558 1.499 . S
C1561 C1562 1.373 1_455 S
C1561 C1563 1.389 . S
C1562 H1535 0.950 . S
C1562 C1548 1.377 . S
C1562 C1561 1.373 1_655 S
C1563 C1547 1.377 . S
C1563 C1561 1.389 . S
C1563 C1564 1.524 . S
C1564 C1563 1.524 . S
C1564 C1565 1.397 . S
C1564 C1569 1.363 . S
C1565 H1536 0.950 . S
C1565 C1564 1.397 . S
C1565 C1566 1.334 . S
C1566 H1537 0.950 . S
C1566 C1565 1.334 . S
C1566 C1567 1.287 . S
C1567 C1566 1.287 . S
C1567 C1568 1.524 . S
C1567 H1570 0.999 . S
C1568 H1538 0.950 . S
C1568 C1567 1.524 . S
C1568 C1569 1.415 . S
C1569 H1539 0.950 . S
C1569 C1564 1.363 . S
C1569 C1568 1.415 . S
H1570 C1567 0.999 . S
H1571 C1552 0.913 . S
H1572 C1590 0.951 1_455 S
H1573 C1592 0.951 . S
H1574 C1594 0.950 . S
H1575 C1595 0.950 . S
H1576 C1597 0.950 . S
H1577 C1600 0.950 1_655 S
H1578 C1601 0.950 . S
H1579 C1603 0.950 . S
H1580 C1604 0.950 . S
H1581 C1605 0.951 . S
H1582 C1607 0.951 . S
H1583 C1609 0.950 . S
H1584 C1610 0.950 . S
H1585 C1612 0.950 . S
H1586 C1615 0.950 1_455 S
H1587 C1616 0.950 . S
H1588 C1618 0.950 . S
H1589 C1619 0.950 . S
C1590 H1572 0.951 1_655 S
C1590 C1591 1.366 . S
C1590 C1592 1.388 1_655 S
C1591 C1590 1.366 . S
C1591 C1595 1.385 . S
C1592 H1573 0.951 . S
C1592 C1590 1.388 1_455 S
C1592 C1593 1.366 1_455 S
C1593 C1592 1.366 1_655 S
C1593 C1594 1.414 . S
C1593 C1596 1.499 . S
C1594 H1574 0.950 . S
C1594 C1593 1.414 . S
C1594 C1595 1.374 . S
C1595 H1575 0.950 . S
C1595 C1591 1.385 . S
C1595 C1594 1.374 . S
C1596 C1593 1.499 . S
C1596 C1597 1.373 . S
C1596 C1598 1.389 1_655 S
C1597 H1576 0.950 . S
C1597 C1596 1.373 . S
C1597 C1613 1.377 . S
C1598 C1596 1.389 1_455 S
C1598 C1599 1.524 . S
C1598 C1612 1.377 . S
C1599 C1598 1.524 . S
C1599 C1600 1.397 . S
C1599 C1604 1.363 . S
C1600 H1577 0.950 1_455 S
C1600 C1599 1.397 . S
C1600 C1601 1.334 . S
C1601 H1578 0.950 . S
C1601 C1600 1.334 . S
C1601 C1602 1.287 . S
C1602 C1601 1.287 . S
C1602 C1603 1.524 . S
C1602 H1621 0.913 . S
C1603 H1579 0.950 . S
C1603 C1602 1.524 . S
C1603 C1604 1.415 . S
C1604 H1580 0.950 . S
C1604 C1599 1.363 . S
C1604 C1603 1.415 . S
C1605 H1581 0.951 . S
C1605 C1606 1.366 1_655 S
C1605 C1607 1.388 . S
C1606 C1605 1.366 1_455 S
C1606 C1610 1.385 . S
C1607 H1582 0.951 . S
C1607 C1605 1.388 . S
C1607 C1608 1.366 1_655 S
C1608 C1607 1.366 1_455 S
C1608 C1609 1.414 . S
C1608 C1611 1.499 1_455 S
C1609 H1583 0.950 . S
C1609 C1608 1.414 . S
C1609 C1610 1.374 . S
C1610 H1584 0.950 . S
C1610 C1606 1.385 . S
C1610 C1609 1.374 . S
C1611 C1608 1.499 1_655 S
C1611 C1612 1.373 1_655 S
C1611 C1613 1.389 . S
C1612 H1585 0.950 . S
C1612 C1598 1.377 . S
C1612 C1611 1.373 1_455 S
C1613 C1597 1.377 . S
C1613 C1611 1.389 . S
C1613 C1614 1.524 . S
C1614 C1613 1.524 . S
C1614 C1615 1.397 . S
C1614 C1619 1.363 . S
C1615 H1586 0.950 1_655 S
C1615 C1614 1.397 . S
C1615 C1616 1.334 . S
C1616 H1587 0.950 . S
C1616 C1615 1.334 . S
C1616 C1617 1.287 . S
C1617 C1616 1.287 . S
C1617 C1618 1.524 . S
C1617 H1620 0.999 . S
C1618 H1588 0.950 . S
C1618 C1617 1.524 . S
C1618 C1619 1.415 . S
C1619 H1589 0.950 . S
C1619 C1614 1.363 . S
C1619 C1618 1.415 . S
H1620 C1617 0.999 . S
H1621 C1602 0.913 . S
H1622 C1640 0.951 . S
H1623 C1642 0.951 . S
H1624 C1644 0.950 1_455 S
H1625 C1645 0.950 1_455 S
H1626 C1647 0.950 . S
H1627 C1650 0.950 . S
H1628 C1651 0.950 . S
H1629 C1653 0.950 . S
H1630 C1654 0.950 . S
H1631 C1655 0.951 . S
H1632 C1657 0.951 . S
H1633 C1659 0.950 . S
H1634 C1660 0.950 . S
H1635 C1662 0.950 . S
H1636 C1665 0.950 . S
H1637 C1666 0.950 . S
H1638 C1668 0.950 . S
H1639 C1669 0.950 . S
C1640 H1622 0.951 . S
C1640 C1641 1.366 . S
C1640 C1642 1.388 . S
C1641 C1640 1.366 . S
C1641 C1645 1.385 . S
C1642 H1623 0.951 . S
C1642 C1640 1.388 . S
C1642 C1643 1.366 . S
C1643 C1642 1.366 . S
C1643 C1644 1.414 . S
C1643 C1646 1.499 . S
C1644 H1624 0.950 1_655 S
C1644 C1643 1.414 . S
C1644 C1645 1.374 . S
C1645 H1625 0.950 1_655 S
C1645 C1641 1.385 . S
C1645 C1644 1.374 . S
C1646 C1643 1.499 . S
C1646 C1647 1.373 . S
C1646 C1648 1.389 . S
C1647 H1626 0.950 . S
C1647 C1646 1.373 . S
C1647 C1663 1.377 . S
C1648 C1646 1.389 . S
C1648 C1649 1.524 . S
C1648 C1662 1.377 . S
C1649 C1648 1.524 . S
C1649 C1650 1.397 1_655 S
C1649 C1654 1.363 . S
C1650 H1627 0.950 . S
C1650 C1649 1.397 1_455 S
C1650 C1651 1.334 . S
C1651 H1628 0.950 . S
C1651 C1650 1.334 . S
C1651 C1652 1.287 1_455 S
C1652 C1651 1.287 1_655 S
C1652 C1653 1.524 . S
C1652 H1671 0.913 . S
C1653 H1629 0.950 . S
C1653 C1652 1.524 . S
C1653 C1654 1.415 . S
C1654 H1630 0.950 . S
C1654 C1649 1.363 . S
C1654 C1653 1.415 . S
C1655 H1631 0.951 . S
C1655 C1656 1.366 . S
C1655 C1657 1.388 . S
C1656 C1655 1.366 . S
C1656 C1660 1.385 1_455 S
C1657 H1632 0.951 . S
C1657 C1655 1.388 . S
C1657 C1658 1.366 . S
C1658 C1657 1.366 . S
C1658 C1659 1.414 1_455 S
C1658 C1661 1.499 1_455 S
C1659 H1633 0.950 . S
C1659 C1658 1.414 1_655 S
C1659 C1660 1.374 . S
C1660 H1634 0.950 . S
C1660 C1656 1.385 1_655 S
C1660 C1659 1.374 . S
C1661 C1658 1.499 1_655 S
C1661 C1662 1.373 . S
C1661 C1663 1.389 . S
C1662 H1635 0.950 . S
C1662 C1648 1.377 . S
C1662 C1661 1.373 . S
C1663 C1647 1.377 . S
C1663 C1661 1.389 . S
C1663 C1664 1.524 . S
C1664 C1663 1.524 . S
C1664 C1665 1.397 . S
C1664 C1669 1.363 1_655 S
C1665 H1636 0.950 . S
C1665 C1664 1.397 . S
C1665 C1666 1.334 . S
C1666 H1637 0.950 . S
C1666 C1665 1.334 . S
C1666 C1667 1.287 . S
C1667 C1666 1.287 . S
C1667 C1668 1.524 1_655 S
C1667 H1670 0.999 . S
C1668 H1638 0.950 . S
C1668 C1667 1.524 1_455 S
C1668 C1669 1.415 . S
C1669 H1639 0.950 . S
C1669 C1664 1.363 1_455 S
C1669 C1668 1.415 . S
H1670 C1667 0.999 . S
H1671 C1652 0.913 . S
H1672 C1690 0.951 . S
H1673 C1692 0.951 . S
H1674 C1694 0.950 . S
H1675 C1695 0.950 . S
H1676 C1697 0.950 . S
H1677 C1700 0.950 . S
H1678 C1701 0.950 . S
H1679 C1703 0.950 . S
H1680 C1704 0.950 . S
H1681 C1705 0.951 . S
H1682 C1707 0.951 . S
H1683 C1709 0.950 . S
H1684 C1710 0.950 . S
H1685 C1712 0.950 . S
H1686 C1715 0.950 . S
H1687 C1716 0.950 . S
H1688 C1718 0.950 . S
H1689 C1719 0.950 . S
C1690 H1672 0.951 . S
C1690 C1691 1.366 . S
C1690 C1692 1.388 . S
C1691 C1690 1.366 . S
C1691 C1695 1.385 . S
C1692 H1673 0.951 . S
C1692 C1690 1.388 . S
C1692 C1693 1.366 . S
C1693 C1692 1.366 . S
C1693 C1694 1.414 . S
C1693 C1696 1.499 . S
C1694 H1674 0.950 . S
C1694 C1693 1.414 . S
C1694 C1695 1.374 . S
C1695 H1675 0.950 . S
C1695 C1691 1.385 . S
C1695 C1694 1.374 . S
C1696 C1693 1.499 . S
C1696 C1697 1.373 . S
C1696 C1698 1.389 . S
C1697 H1676 0.950 . S
C1697 C1696 1.373 . S
C1697 C1713 1.377 . S
C1698 C1696 1.389 . S
C1698 C1699 1.524 . S
C1698 C1712 1.377 . S
C1699 C1698 1.524 . S
C1699 C1700 1.397 . S
C1699 C1704 1.363 . S
C1700 H1677 0.950 . S
C1700 C1699 1.397 . S
C1700 C1701 1.334 . S
C1701 H1678 0.950 . S
C1701 C1700 1.334 . S
C1701 C1702 1.287 . S
C1702 C1701 1.287 . S
C1702 C1703 1.524 . S
C1702 H1721 0.913 . S
C1703 H1679 0.950 . S
C1703 C1702 1.524 . S
C1703 C1704 1.415 . S
C1704 H1680 0.950 . S
C1704 C1699 1.363 . S
C1704 C1703 1.415 . S
C1705 H1681 0.951 . S
C1705 C1706 1.366 . S
C1705 C1707 1.388 . S
C1706 C1705 1.366 . S
C1706 C1710 1.385 . S
C1707 H1682 0.951 . S
C1707 C1705 1.388 . S
C1707 C1708 1.366 . S
C1708 C1707 1.366 . S
C1708 C1709 1.414 . S
C1708 C1711 1.499 . S
C1709 H1683 0.950 . S
C1709 C1708 1.414 . S
C1709 C1710 1.374 . S
C1710 H1684 0.950 . S
C1710 C1706 1.385 . S
C1710 C1709 1.374 . S
C1711 C1708 1.499 . S
C1711 C1712 1.373 . S
C1711 C1713 1.389 . S
C1712 H1685 0.950 . S
C1712 C1698 1.377 . S
C1712 C1711 1.373 . S
C1713 C1697 1.377 . S
C1713 C1711 1.389 . S
C1713 C1714 1.524 . S
C1714 C1713 1.524 . S
C1714 C1715 1.397 . S
C1714 C1719 1.363 . S
C1715 H1686 0.950 . S
C1715 C1714 1.397 . S
C1715 C1716 1.334 . S
C1716 H1687 0.950 . S
C1716 C1715 1.334 . S
C1716 C1717 1.287 . S
C1717 C1716 1.287 . S
C1717 C1718 1.524 . S
C1717 H1720 0.999 . S
C1718 H1688 0.950 . S
C1718 C1717 1.524 . S
C1718 C1719 1.415 . S
C1719 H1689 0.950 . S
C1719 C1714 1.363 . S
C1719 C1718 1.415 . S
H1720 C1717 0.999 . S
H1721 C1702 0.913 . S
H1722 C1740 0.951 . S
H1723 C1742 0.951 . S
H1724 C1744 0.950 . S
H1725 C1745 0.950 . S
H1726 C1747 0.950 . S
H1727 C1750 0.950 . S
H1728 C1751 0.950 . S
H1729 C1753 0.950 . S
H1730 C1754 0.950 . S
H1731 C1755 0.951 . S
H1732 C1757 0.951 . S
H1733 C1759 0.950 . S
H1734 C1760 0.950 . S
H1735 C1762 0.950 . S
H1736 C1765 0.950 . S
H1737 C1766 0.950 . S
H1738 C1768 0.950 . S
H1739 C1769 0.950 . S
C1740 H1722 0.951 . S
C1740 C1741 1.366 . S
C1740 C1742 1.388 . S
C1741 C1740 1.366 . S
C1741 C1745 1.385 . S
C1742 H1723 0.951 . S
C1742 C1740 1.388 . S
C1742 C1743 1.366 . S
C1743 C1742 1.366 . S
C1743 C1744 1.414 . S
C1743 C1746 1.499 . S
C1744 H1724 0.950 . S
C1744 C1743 1.414 . S
C1744 C1745 1.374 . S
C1745 H1725 0.950 . S
C1745 C1741 1.385 . S
C1745 C1744 1.374 . S
C1746 C1743 1.499 . S
C1746 C1747 1.373 . S
C1746 C1748 1.389 . S
C1747 H1726 0.950 . S
C1747 C1746 1.373 . S
C1747 C1763 1.377 . S
C1748 C1746 1.389 . S
C1748 C1749 1.524 . S
C1748 C1762 1.377 . S
C1749 C1748 1.524 . S
C1749 C1750 1.397 . S
C1749 C1754 1.363 . S
C1750 H1727 0.950 . S
C1750 C1749 1.397 . S
C1750 C1751 1.334 . S
C1751 H1728 0.950 . S
C1751 C1750 1.334 . S
C1751 C1752 1.287 . S
C1752 C1751 1.287 . S
C1752 C1753 1.524 . S
C1752 H1771 0.913 . S
C1753 H1729 0.950 . S
C1753 C1752 1.524 . S
C1753 C1754 1.415 . S
C1754 H1730 0.950 . S
C1754 C1749 1.363 . S
C1754 C1753 1.415 . S
C1755 H1731 0.951 . S
C1755 C1756 1.366 . S
C1755 C1757 1.388 . S
C1756 C1755 1.366 . S
C1756 C1760 1.385 . S
C1757 H1732 0.951 . S
C1757 C1755 1.388 . S
C1757 C1758 1.366 . S
C1758 C1757 1.366 . S
C1758 C1759 1.414 . S
C1758 C1761 1.499 . S
C1759 H1733 0.950 . S
C1759 C1758 1.414 . S
C1759 C1760 1.374 . S
C1760 H1734 0.950 . S
C1760 C1756 1.385 . S
C1760 C1759 1.374 . S
C1761 C1758 1.499 . S
C1761 C1762 1.373 . S
C1761 C1763 1.389 . S
C1762 H1735 0.950 . S
C1762 C1748 1.377 . S
C1762 C1761 1.373 . S
C1763 C1747 1.377 . S
C1763 C1761 1.389 . S
C1763 C1764 1.524 . S
C1764 C1763 1.524 . S
C1764 C1765 1.397 . S
C1764 C1769 1.363 . S
C1765 H1736 0.950 . S
C1765 C1764 1.397 . S
C1765 C1766 1.334 . S
C1766 H1737 0.950 . S
C1766 C1765 1.334 . S
C1766 C1767 1.287 . S
C1767 C1766 1.287 . S
C1767 C1768 1.524 . S
C1767 H1770 0.999 . S
C1768 H1738 0.950 . S
C1768 C1767 1.524 . S
C1768 C1769 1.415 . S
C1769 H1739 0.950 . S
C1769 C1764 1.363 . S
C1769 C1768 1.415 . S
H1770 C1767 0.999 . S
H1771 C1752 0.913 . S
H1772 C1790 0.951 . S
H1773 C1792 0.951 . S
H1774 C1794 0.950 . S
H1775 C1795 0.950 . S
H1776 C1797 0.950 . S
H1777 C1800 0.950 . S
H1778 C1801 0.950 . S
H1779 C1803 0.950 . S
H1780 C1804 0.950 . S
H1781 C1805 0.951 . S
H1782 C1807 0.951 . S
H1783 C1809 0.950 . S
H1784 C1810 0.950 . S
H1785 C1812 0.950 . S
H1786 C1815 0.950 . S
H1787 C1816 0.950 . S
H1788 C1818 0.950 . S
H1789 C1819 0.950 . S
C1790 H1772 0.951 . S
C1790 C1791 1.366 . S
C1790 C1792 1.388 . S
C1791 C1790 1.366 . S
C1791 C1795 1.385 . S
C1792 H1773 0.951 . S
C1792 C1790 1.388 . S
C1792 C1793 1.366 . S
C1793 C1792 1.366 . S
C1793 C1794 1.414 . S
C1793 C1796 1.499 . S
C1794 H1774 0.950 . S
C1794 C1793 1.414 . S
C1794 C1795 1.374 . S
C1795 H1775 0.950 . S
C1795 C1791 1.385 . S
C1795 C1794 1.374 . S
C1796 C1793 1.499 . S
C1796 C1797 1.373 . S
C1796 C1798 1.389 . S
C1797 H1776 0.950 . S
C1797 C1796 1.373 . S
C1797 C1813 1.377 . S
C1798 C1796 1.389 . S
C1798 C1799 1.524 . S
C1798 C1812 1.377 . S
C1799 C1798 1.524 . S
C1799 C1800 1.397 . S
C1799 C1804 1.363 . S
C1800 H1777 0.950 . S
C1800 C1799 1.397 . S
C1800 C1801 1.334 . S
C1801 H1778 0.950 . S
C1801 C1800 1.334 . S
C1801 C1802 1.287 . S
C1802 C1801 1.287 . S
C1802 C1803 1.524 . S
C1802 H1821 0.913 . S
C1803 H1779 0.950 . S
C1803 C1802 1.524 . S
C1803 C1804 1.415 . S
C1804 H1780 0.950 . S
C1804 C1799 1.363 . S
C1804 C1803 1.415 . S
C1805 H1781 0.951 . S
C1805 C1806 1.366 . S
C1805 C1807 1.388 . S
C1806 C1805 1.366 . S
C1806 C1810 1.385 . S
C1807 H1782 0.951 . S
C1807 C1805 1.388 . S
C1807 C1808 1.366 . S
C1808 C1807 1.366 . S
C1808 C1809 1.414 . S
C1808 C1811 1.499 . S
C1809 H1783 0.950 . S
C1809 C1808 1.414 . S
C1809 C1810 1.374 . S
C1810 H1784 0.950 . S
C1810 C1806 1.385 . S
C1810 C1809 1.374 . S
C1811 C1808 1.499 . S
C1811 C1812 1.373 . S
C1811 C1813 1.389 . S
C1812 H1785 0.950 . S
C1812 C1798 1.377 . S
C1812 C1811 1.373 . S
C1813 C1797 1.377 . S
C1813 C1811 1.389 . S
C1813 C1814 1.524 . S
C1814 C1813 1.524 . S
C1814 C1815 1.397 . S
C1814 C1819 1.363 . S
C1815 H1786 0.950 . S
C1815 C1814 1.397 . S
C1815 C1816 1.334 . S
C1816 H1787 0.950 . S
C1816 C1815 1.334 . S
C1816 C1817 1.287 . S
C1817 C1816 1.287 . S
C1817 C1818 1.524 . S
C1817 H1820 0.999 . S
C1818 H1788 0.950 . S
C1818 C1817 1.524 . S
C1818 C1819 1.415 . S
C1819 H1789 0.950 . S
C1819 C1814 1.363 . S
C1819 C1818 1.415 . S
H1820 C1817 0.999 . S
H1821 C1802 0.913 . S
H1822 C1840 0.951 . S
H1823 C1842 0.951 . S
H1824 C1844 0.950 . S
H1825 C1845 0.950 . S
H1826 C1847 0.950 . S
H1827 C1850 0.950 . S
H1828 C1851 0.950 . S
H1829 C1853 0.950 . S
H1830 C1854 0.950 . S
H1831 C1855 0.951 . S
H1832 C1857 0.951 . S
H1833 C1859 0.950 . S
H1834 C1860 0.950 . S
H1835 C1862 0.950 . S
H1836 C1865 0.950 . S
H1837 C1866 0.950 . S
H1838 C1868 0.950 . S
H1839 C1869 0.950 . S
C1840 H1822 0.951 . S
C1840 C1841 1.366 . S
C1840 C1842 1.388 . S
C1841 C1840 1.366 . S
C1841 C1845 1.385 . S
C1842 H1823 0.951 . S
C1842 C1840 1.388 . S
C1842 C1843 1.366 . S
C1843 C1842 1.366 . S
C1843 C1844 1.414 . S
C1843 C1846 1.499 . S
C1844 H1824 0.950 . S
C1844 C1843 1.414 . S
C1844 C1845 1.374 . S
C1845 H1825 0.950 . S
C1845 C1841 1.385 . S
C1845 C1844 1.374 . S
C1846 C1843 1.499 . S
C1846 C1847 1.373 . S
C1846 C1848 1.389 . S
C1847 H1826 0.950 . S
C1847 C1846 1.373 . S
C1847 C1863 1.377 . S
C1848 C1846 1.389 . S
C1848 C1849 1.524 . S
C1848 C1862 1.377 . S
C1849 C1848 1.524 . S
C1849 C1850 1.397 . S
C1849 C1854 1.363 . S
C1850 H1827 0.950 . S
C1850 C1849 1.397 . S
C1850 C1851 1.334 . S
C1851 H1828 0.950 . S
C1851 C1850 1.334 . S
C1851 C1852 1.287 . S
C1852 C1851 1.287 . S
C1852 C1853 1.524 . S
C1852 H1871 0.913 . S
C1853 H1829 0.950 . S
C1853 C1852 1.524 . S
C1853 C1854 1.415 . S
C1854 H1830 0.950 . S
C1854 C1849 1.363 . S
C1854 C1853 1.415 . S
C1855 H1831 0.951 . S
C1855 C1856 1.366 . S
C1855 C1857 1.388 . S
C1856 C1855 1.366 . S
C1856 C1860 1.385 . S
C1857 H1832 0.951 . S
C1857 C1855 1.388 . S
C1857 C1858 1.366 . S
C1858 C1857 1.366 . S
C1858 C1859 1.414 . S
C1858 C1861 1.499 . S
C1859 H1833 0.950 . S
C1859 C1858 1.414 . S
C1859 C1860 1.374 . S
C1860 H1834 0.950 . S
C1860 C1856 1.385 . S
C1860 C1859 1.374 . S
C1861 C1858 1.499 . S
C1861 C1862 1.373 . S
C1861 C1863 1.389 . S
C1862 H1835 0.950 . S
C1862 C1848 1.377 . S
C1862 C1861 1.373 . S
C1863 C1847 1.377 . S
C1863 C1861 1.389 . S
C1863 C1864 1.524 . S
C1864 C1863 1.524 . S
C1864 C1865 1.397 . S
C1864 C1869 1.363 . S
C1865 H1836 0.950 . S
C1865 C1864 1.397 . S
C1865 C1866 1.334 . S
C1866 H1837 0.950 . S
C1866 C1865 1.334 . S
C1866 C1867 1.287 . S
C1867 C1866 1.287 . S
C1867 C1868 1.524 . S
C1867 H1870 0.999 . S
C1868 H1838 0.950 . S
C1868 C1867 1.524 . S
C1868 C1869 1.415 . S
C1869 H1839 0.950 . S
C1869 C1864 1.363 . S
C1869 C1868 1.415 . S
H1870 C1867 0.999 . S
H1871 C1852 0.913 . S
C691 C67 2.098 . S
C706 C56 2.098 . S
C741 C151 2.098 . S
C756 C140 2.098 . S
C791 C224 2.099 . S
C806 C235 2.099 . S
C841 C308 2.099 . S
C856 C319 2.099 . S
C891 C403 2.098 . S
C906 C392 2.098 . S
C941 C476 2.099 . S
C956 C487 2.099 . S
C991 C560 2.098 . S
C1006 C571 2.098 . S
C1041 C655 2.098 . S
C1056 C644 2.098 . S
C1091 C154 1.732 1_554 S
C1106 C58 1.732 . S
C1141 C322 1.732 . S
C1156 C226 1.732 . S
C1191 C394 1.731 . S
C1206 C490 1.731 1_554 S
C1241 C562 1.731 . S
C1256 C658 1.731 . S
C1291 C70 1.390 1_554 S
C1306 C478 1.390 . S
C1341 C406 1.389 1_554 S
C1356 C142 1.389 . S
C1391 C238 1.390 . S
C1406 C646 1.390 . S
C1441 C310 1.391 . S
C1456 C574 1.391 . S
C1491 C74 1.522 . S
C1506 C326 1.595 . S
C1541 C158 1.595 . S
C1556 C242 1.522 . S
C1591 C147 1.524 . S
C1606 C231 1.596 . S
C1641 C315 1.524 . S
C1656 C63 1.596 . S
C1691 C410 1.523 . S
C1706 C662 1.595 . S
C1741 C494 1.595 . S
C1756 C578 1.523 . S
C1791 C483 1.523 . S
C1806 C567 1.596 . S
C1841 C651 1.524 . S
C1856 C399 1.595 . S
