# Generated by pormake.
# Topology zfy, (5)-cn, num edge types: 1
# Building blocks:
#     Node 0, Type 0, BuildingBlock: XOMCOT_clean_sbu_0, # of connection points: 5
#     Node 1, Type 0, BuildingBlock: XOMCOT_clean_sbu_0, # of connection points: 5
#     Node 2, Type 0, BuildingBlock: XOMCOT_clean_sbu_0, # of connection points: 5
#     Node 3, Type 0, BuildingBlock: XOMCOT_clean_sbu_0, # of connection points: 5
#     Node 4, Type 0, BuildingBlock: XOMCOT_clean_sbu_0, # of connection points: 5
#     Node 5, Type 0, BuildingBlock: XOMCOT_clean_sbu_0, # of connection points: 5
#     Node 6, Type 0, BuildingBlock: XOMCOT_clean_sbu_0, # of connection points: 5
#     Node 7, Type 0, BuildingBlock: XOMCOT_clean_sbu_0, # of connection points: 5
#     Node 8, Type 0, BuildingBlock: XOMCOT_clean_sbu_0, # of connection points: 5
#     Node 9, Type 0, BuildingBlock: XOMCOT_clean_sbu_0, # of connection points: 5
#     Node 10, Type 0, BuildingBlock: XOMCOT_clean_sbu_0, # of connection points: 5
#     Node 11, Type 0, BuildingBlock: XOMCOT_clean_sbu_0, # of connection points: 5
#     Node 12, Type 0, BuildingBlock: XOMCOT_clean_sbu_0, # of connection points: 5
#     Node 13, Type 0, BuildingBlock: XOMCOT_clean_sbu_0, # of connection points: 5
#     Node 14, Type 0, BuildingBlock: XOMCOT_clean_sbu_0, # of connection points: 5
#     Node 15, Type 0, BuildingBlock: XOMCOT_clean_sbu_0, # of connection points: 5
#     Edge 16, Type (0, 0), BuildingBlock: ZUJKAS_clean_linker_0, # of connection points: 2
#     Edge 17, Type (0, 0), BuildingBlock: ZUJKAS_clean_linker_0, # of connection points: 2
#     Edge 18, Type (0, 0), BuildingBlock: ZUJKAS_clean_linker_0, # of connection points: 2
#     Edge 19, Type (0, 0), BuildingBlock: ZUJKAS_clean_linker_0, # of connection points: 2
#     Edge 20, Type (0, 0), BuildingBlock: ZUJKAS_clean_linker_0, # of connection points: 2
#     Edge 21, Type (0, 0), BuildingBlock: ZUJKAS_clean_linker_0, # of connection points: 2
#     Edge 22, Type (0, 0), BuildingBlock: ZUJKAS_clean_linker_0, # of connection points: 2
#     Edge 23, Type (0, 0), BuildingBlock: ZUJKAS_clean_linker_0, # of connection points: 2
#     Edge 24, Type (0, 0), BuildingBlock: ZUJKAS_clean_linker_0, # of connection points: 2
#     Edge 25, Type (0, 0), BuildingBlock: ZUJKAS_clean_linker_0, # of connection points: 2
#     Edge 26, Type (0, 0), BuildingBlock: ZUJKAS_clean_linker_0, # of connection points: 2
#     Edge 27, Type (0, 0), BuildingBlock: ZUJKAS_clean_linker_0, # of connection points: 2
#     Edge 28, Type (0, 0), BuildingBlock: ZUJKAS_clean_linker_0, # of connection points: 2
#     Edge 29, Type (0, 0), BuildingBlock: ZUJKAS_clean_linker_0, # of connection points: 2
#     Edge 30, Type (0, 0), BuildingBlock: ZUJKAS_clean_linker_0, # of connection points: 2
#     Edge 31, Type (0, 0), BuildingBlock: ZUJKAS_clean_linker_0, # of connection points: 2
#     Edge 32, Type (0, 0), BuildingBlock: ZUJKAS_clean_linker_0, # of connection points: 2
#     Edge 33, Type (0, 0), BuildingBlock: ZUJKAS_clean_linker_0, # of connection points: 2
#     Edge 34, Type (0, 0), BuildingBlock: ZUJKAS_clean_linker_0, # of connection points: 2
#     Edge 35, Type (0, 0), BuildingBlock: ZUJKAS_clean_linker_0, # of connection points: 2
#     Edge 36, Type (0, 0), BuildingBlock: ZUJKAS_clean_linker_0, # of connection points: 2
#     Edge 37, Type (0, 0), BuildingBlock: ZUJKAS_clean_linker_0, # of connection points: 2
#     Edge 38, Type (0, 0), BuildingBlock: ZUJKAS_clean_linker_0, # of connection points: 2
#     Edge 39, Type (0, 0), BuildingBlock: ZUJKAS_clean_linker_0, # of connection points: 2
#     Edge 40, Type (0, 0), BuildingBlock: ZUJKAS_clean_linker_0, # of connection points: 2
#     Edge 41, Type (0, 0), BuildingBlock: ZUJKAS_clean_linker_0, # of connection points: 2
#     Edge 42, Type (0, 0), BuildingBlock: ZUJKAS_clean_linker_0, # of connection points: 2
#     Edge 43, Type (0, 0), BuildingBlock: ZUJKAS_clean_linker_0, # of connection points: 2
#     Edge 44, Type (0, 0), BuildingBlock: ZUJKAS_clean_linker_0, # of connection points: 2
#     Edge 45, Type (0, 0), BuildingBlock: ZUJKAS_clean_linker_0, # of connection points: 2
#     Edge 46, Type (0, 0), BuildingBlock: ZUJKAS_clean_linker_0, # of connection points: 2
#     Edge 47, Type (0, 0), BuildingBlock: ZUJKAS_clean_linker_0, # of connection points: 2
#     Edge 48, Type (0, 0), BuildingBlock: ZUJKAS_clean_linker_0, # of connection points: 2
#     Edge 49, Type (0, 0), BuildingBlock: ZUJKAS_clean_linker_0, # of connection points: 2
#     Edge 50, Type (0, 0), BuildingBlock: ZUJKAS_clean_linker_0, # of connection points: 2
#     Edge 51, Type (0, 0), BuildingBlock: ZUJKAS_clean_linker_0, # of connection points: 2
#     Edge 52, Type (0, 0), BuildingBlock: ZUJKAS_clean_linker_0, # of connection points: 2
#     Edge 53, Type (0, 0), BuildingBlock: ZUJKAS_clean_linker_0, # of connection points: 2
#     Edge 54, Type (0, 0), BuildingBlock: ZUJKAS_clean_linker_0, # of connection points: 2
#     Edge 55, Type (0, 0), BuildingBlock: ZUJKAS_clean_linker_0, # of connection points: 2
# Relax obj value: 0.185
# Max RMSD: 0.232
# Mean RMSD: 0.228
data_MOF--net-zfy--node1-XOMCOT_clean_sbu_0--edge1-ZUJKAS_clean_linker_0
_symmetry_space_group_name_H-M    P1
_symmetry_Int_Tables_number       1
_symmetry_cell_setting            triclinic
loop_
_symmetry_equiv_pos_as_xyz
'x, y, z'
_cell_length_a     66.800142
_cell_length_b     66.775021
_cell_length_c     38.260384
_cell_angle_alpha  90.036665
_cell_angle_beta   89.887668
_cell_angle_gamma 90.006441
loop_
_atom_site_label
_atom_site_type_symbol
_atom_site_fract_x
_atom_site_fract_y
_atom_site_fract_z
_atom_type_partial_charge
Co0 Co 0.33407 0.19443 0.02624 0.0
C1 C 0.31128 0.21446 0.08636 0.0
C2 C 0.34235 0.20865 0.09597 0.0
C3 C 0.33432 0.21727 0.1253 0.0
N4 N 0.32803 0.20668 0.07142 0.0
N5 N 0.31478 0.22088 0.11944 0.0
H6 H 0.29676 0.21505 0.07423 0.0
H7 H 0.35771 0.20384 0.09284 0.0
C8 C 0.33523 0.1614 0.07757 0.0
O9 O 0.31804 0.16851 0.08882 0.0
N10 N 0.34151 0.18249 0.98206 0.0
C11 C 0.33206 0.18438 0.95119 0.0
C12 C 0.34395 0.17612 0.92544 0.0
C13 C 0.35897 0.17317 0.97479 0.0
N14 N 0.36089 0.16913 0.94031 0.0
C15 C 0.29175 0.19602 0.0143 0.0
C16 C 0.28645 0.15548 1.00316 0.0
C17 C 0.27042 0.16848 0.99655 0.0
C18 C 0.27319 0.18898 1.00286 0.0
C19 C 0.30479 0.16315 0.01459 0.0
N20 N 0.30726 0.1832 0.02062 0.0
H21 H 0.29392 0.21199 0.01624 0.0
H22 H 0.31736 0.15303 0.01627 0.0
H23 H 0.31788 0.1919 0.94749 0.0
H24 H 0.37048 0.17044 0.99407 0.0
O25 O 0.32947 0.21957 1.00317 0.0
O26 O 0.35872 0.21003 0.02459 0.0
O27 O 0.34403 0.16976 0.05163 0.0
C28 C 0.34826 0.22354 0.00814 0.0
H29 H 0.34233 0.22073 0.14912 0.0
H30 H 0.34055 0.17564 0.89781 0.0
H31 H 0.28527 0.13962 0.99754 0.0
H32 H 0.26131 0.19963 0.99791 0.0
Co33 Co 0.56448 0.58861 0.27636 0.0
C34 C 0.54372 0.56541 0.33497 0.0
C35 C 0.54674 0.59698 0.34372 0.0
C36 C 0.53771 0.58871 0.37243 0.0
N37 N 0.55066 0.58251 0.32008 0.0
N38 N 0.53587 0.56886 0.36711 0.0
H39 H 0.54495 0.55067 0.32369 0.0
H40 H 0.55062 0.6126 0.34056 0.0
C41 C 0.59537 0.5904 0.33148 0.0
O42 O 0.58797 0.5732 0.34201 0.0
N43 N 0.57789 0.59602 0.2335 0.0
C44 C 0.57717 0.58635 0.20263 0.0
C45 C 0.58599 0.59827 0.17753 0.0
C46 C 0.58707 0.61362 0.22689 0.0
N47 N 0.59214 0.61543 0.19282 0.0
C48 C 0.56377 0.54632 0.26421 0.0
C49 C 0.60466 0.54135 0.25777 0.0
C50 C 0.59207 0.52525 0.24927 0.0
C51 C 0.57136 0.52787 0.25323 0.0
C52 C 0.59643 0.55961 0.26851 0.0
N53 N 0.57618 0.56192 0.27214 0.0
H54 H 0.54774 0.54834 0.2645 0.0
H55 H 0.60638 0.57222 0.27171 0.0
H56 H 0.57002 0.57202 0.1984 0.0
H57 H 0.58892 0.62532 0.24621 0.0
O58 O 0.54032 0.58358 0.25065 0.0
O59 O 0.54861 0.61304 0.27286 0.0
O60 O 0.58805 0.59897 0.30441 0.0
C61 C 0.53582 0.60229 0.25523 0.0
H62 H 0.5329 0.59673 0.39556 0.0
H63 H 0.58735 0.59476 0.15001 0.0
H64 H 0.62075 0.54015 0.25497 0.0
H65 H 0.56095 0.51616 0.24596 0.0
Co66 Co 0.1766 0.8145 0.52166 0.0
C67 C 0.2001 0.79653 0.58066 0.0
C68 C 0.172 0.80946 0.59622 0.0
C69 C 0.18116 0.80186 0.62532 0.0
N70 N 0.18385 0.8063 0.5683 0.0
N71 N 0.19884 0.79377 0.61573 0.0
H72 H 0.21255 0.79173 0.56454 0.0
H73 H 0.1575 0.81666 0.59535 0.0
C74 C 0.16677 0.85841 0.52981 0.0
O75 O 0.17463 0.86201 0.49894 0.0
N76 N 0.16797 0.82282 0.47532 0.0
C77 C 0.17654 0.82019 0.44367 0.0
C78 C 0.16355 0.8269 0.41827 0.0
C79 C 0.14968 0.83048 0.46845 0.0
N80 N 0.14664 0.83338 0.43393 0.0
C81 C 0.21559 0.81455 0.49113 0.0
C82 C 0.22918 0.85029 0.51849 0.0
C83 C 0.24002 0.84113 0.49141 0.0
C84 C 0.23352 0.82256 0.47904 0.0
C85 C 0.21108 0.84169 0.52981 0.0
N86 N 0.20366 0.82492 0.51382 0.0
H87 H 0.2109 0.80036 0.48056 0.0
H88 H 0.20295 0.84884 0.55076 0.0
H89 H 0.19076 0.81319 0.43861 0.0
H90 H 0.13882 0.83383 0.48862 0.0
O91 O 0.18085 0.78773 0.50473 0.0
O92 O 0.15196 0.79895 0.52518 0.0
O93 O 0.16669 0.84062 0.54218 0.0
C94 C 0.1621 0.78432 0.51115 0.0
H95 H 0.17503 0.80192 0.65154 0.0
H96 H 0.16613 0.82633 0.39036 0.0
H97 H 0.23417 0.86432 0.52973 0.0
H98 H 0.24195 0.81452 0.45929 0.0
Co99 Co 0.94398 0.42472 0.77549 0.0
C100 C 0.96323 0.44929 0.83179 0.0
C101 C 0.94607 0.42447 0.85138 0.0
C102 C 0.95381 0.43473 0.8793 0.0
N103 N 0.9517 0.43367 0.82163 0.0
N104 N 0.96459 0.45029 0.86708 0.0
H105 H 0.97024 0.45974 0.81394 0.0
H106 H 0.93707 0.41104 0.85279 0.0
C107 C 0.90034 0.41421 0.78343 0.0
O108 O 0.89688 0.42238 0.75278 0.0
N109 N 0.9361 0.41449 0.72989 0.0
C110 C 0.93771 0.42242 0.69757 0.0
C111 C 0.93085 0.40862 0.67354 0.0
C112 C 0.92882 0.39584 0.72478 0.0
N113 N 0.92517 0.39193 0.69075 0.0
C114 C 0.9427 0.46304 0.74247 0.0
C115 C 0.90769 0.47703 0.77208 0.0
C116 C 0.91695 0.48838 0.74571 0.0
C117 C 0.93501 0.48139 0.73174 0.0
C118 C 0.91617 0.45873 0.78251 0.0
N119 N 0.93267 0.45122 0.76577 0.0
H120 H 0.95661 0.45816 0.73099 0.0
H121 H 0.90932 0.45067 0.80383 0.0
H122 H 0.94371 0.43692 0.69118 0.0
H123 H 0.9265 0.38526 0.7458 0.0
O124 O 0.97063 0.42961 0.75844 0.0
O125 O 0.96052 0.40083 0.78095 0.0
O126 O 0.91806 0.41422 0.79606 0.0
C127 C 0.97478 0.4112 0.76625 0.0
H128 H 0.95201 0.43084 0.90659 0.0
H129 H 0.93003 0.41084 0.64557 0.0
H130 H 0.89411 0.48227 0.78458 0.0
H131 H 0.94288 0.48969 0.71166 0.0
Co132 Co 0.67595 0.82645 0.98356 0.0
C133 C 0.6946 0.81018 0.91655 0.0
C134 C 0.66808 0.79491 0.93326 0.0
C135 C 0.67451 0.78637 0.90267 0.0
N136 N 0.68081 0.8096 0.94265 0.0
N137 N 0.69119 0.79595 0.89187 0.0
H138 H 0.70643 0.82103 0.91468 0.0
H139 H 0.65479 0.79075 0.94771 0.0
C140 C 0.67683 0.78492 0.01247 0.0
O141 O 0.6937 0.78231 0.99532 0.0
N142 N 0.66976 0.84272 0.02394 0.0
C143 C 0.68068 0.85742 0.03877 0.0
C144 C 0.67015 0.8649 0.06701 0.0
C145 C 0.6527 0.84172 0.04275 0.0
N146 N 0.65256 0.85505 0.06925 0.0
C147 C 0.71795 0.83477 0.97976 0.0
C148 C 0.72791 0.82134 0.04571 0.0
C149 C 0.7425 0.83143 0.02596 0.0
C150 C 0.73734 0.83772 0.99222 0.0
C151 C 0.70865 0.81849 0.03203 0.0
N152 N 0.70384 0.82497 0.99914 0.0
H153 H 0.71401 0.84177 0.95542 0.0
H154 H 0.69727 0.81235 0.049 0.0
H155 H 0.69517 0.86242 0.02964 0.0
H156 H 0.64063 0.8314 0.0371 0.0
O157 O 0.67812 0.85024 0.95533 0.0
O158 O 0.64997 0.8335 0.96408 0.0
O159 O 0.66787 0.80184 0.01117 0.0
C160 C 0.65901 0.84877 0.94984 0.0
H161 H 0.66734 0.77392 0.88966 0.0
H162 H 0.67481 0.877 0.084 0.0
H163 H 0.73094 0.81674 0.07231 0.0
H164 H 0.74796 0.84566 0.97591 0.0
Co165 Co 0.43302 0.4219 0.72687 0.0
C166 C 0.44985 0.44377 0.66537 0.0
C167 C 0.46758 0.41849 0.68109 0.0
C168 C 0.47681 0.42751 0.65316 0.0
N169 N 0.45083 0.42874 0.68897 0.0
N170 N 0.46571 0.44339 0.64327 0.0
H171 H 0.43802 0.45484 0.66471 0.0
H172 H 0.47271 0.40526 0.69468 0.0
C173 C 0.46022 0.41603 0.78879 0.0
O174 O 0.44672 0.42466 0.80878 0.0
N175 N 0.41543 0.41389 0.76492 0.0
C176 C 0.39872 0.42256 0.77779 0.0
C177 C 0.3907 0.4103 0.8032 0.0
C178 C 0.41697 0.3963 0.7821 0.0
N179 N 0.40227 0.39383 0.80595 0.0
C180 C 0.41666 0.46106 0.73731 0.0
C181 C 0.44914 0.47836 0.77 0.0
C182 C 0.43131 0.4894 0.76732 0.0
C183 C 0.41515 0.48061 0.74982 0.0
C184 C 0.45006 0.45877 0.7567 0.0
N185 N 0.43345 0.44983 0.74274 0.0
H186 H 0.40392 0.45484 0.72391 0.0
H187 H 0.46417 0.45095 0.75769 0.0
H188 H 0.39226 0.43647 0.76923 0.0
H189 H 0.42852 0.38536 0.7767 0.0
O190 O 0.4103 0.42347 0.69591 0.0
O191 O 0.42792 0.39598 0.70514 0.0
O192 O 0.45723 0.41434 0.75589 0.0
C193 C 0.41277 0.40452 0.68976 0.0
H194 H 0.49051 0.42256 0.64069 0.0
H195 H 0.37738 0.41333 0.81843 0.0
H196 H 0.46229 0.48484 0.78207 0.0
H197 H 0.40112 0.48851 0.74666 0.0
Co198 Co 0.83348 0.18576 0.48146 0.0
C199 C 0.81235 0.20305 0.41949 0.0
C200 C 0.83786 0.22022 0.43595 0.0
C201 C 0.82957 0.22942 0.40739 0.0
N202 N 0.82704 0.20383 0.44375 0.0
N203 N 0.81352 0.2187 0.397 0.0
H204 H 0.80111 0.1914 0.41841 0.0
H205 H 0.85114 0.225 0.44976 0.0
C206 C 0.84004 0.21285 0.54345 0.0
O207 O 0.83069 0.19986 0.56346 0.0
N208 N 0.84114 0.16791 0.51931 0.0
C209 C 0.83242 0.151 0.53122 0.0
C210 C 0.84468 0.14243 0.55599 0.0
C211 C 0.85875 0.16905 0.5365 0.0
N212 N 0.86122 0.15385 0.55932 0.0
C213 C 0.79411 0.17005 0.4917 0.0
C214 C 0.77729 0.20259 0.52514 0.0
C215 C 0.766 0.18492 0.52205 0.0
C216 C 0.77457 0.16874 0.50422 0.0
C217 C 0.7969 0.20331 0.5118 0.0
N218 N 0.80558 0.18666 0.49742 0.0
H219 H 0.80011 0.15728 0.47803 0.0
H220 H 0.80496 0.21729 0.51314 0.0
H221 H 0.81854 0.14469 0.52215 0.0
H222 H 0.86983 0.18054 0.53153 0.0
O223 O 0.83141 0.16317 0.45027 0.0
O224 O 0.85925 0.18023 0.45961 0.0
O225 O 0.84169 0.20967 0.51061 0.0
C226 C 0.85039 0.1653 0.44409 0.0
H227 H 0.83527 0.24273 0.39469 0.0
H228 H 0.84169 0.12874 0.5702 0.0
H229 H 0.771 0.21575 0.53755 0.0
H230 H 0.7665 0.15481 0.50079 0.0
Co231 Co 0.07623 0.58723 0.22752 0.0
C232 C 0.06114 0.56668 0.16336 0.0
C233 C 0.04133 0.58959 0.18236 0.0
C234 C 0.0334 0.58173 0.1523 0.0
N235 N 0.05863 0.58015 0.18945 0.0
N236 N 0.04586 0.56741 0.14007 0.0
H237 H 0.07409 0.55704 0.161 0.0
H238 H 0.03507 0.60171 0.1976 0.0
C239 C 0.04893 0.59345 0.28957 0.0
O240 O 0.06239 0.58496 0.3097 0.0
N241 N 0.09367 0.59538 0.2656 0.0
C242 C 0.11029 0.58663 0.27852 0.0
C243 C 0.11828 0.59883 0.30398 0.0
C244 C 0.09218 0.613 0.2828 0.0
N245 N 0.10681 0.61537 0.30673 0.0
C246 C 0.09286 0.5482 0.23776 0.0
C247 C 0.06137 0.5313 0.27403 0.0
C248 C 0.07958 0.52082 0.2721 0.0
C249 C 0.09507 0.52919 0.25219 0.0
C250 C 0.05977 0.55042 0.2589 0.0
N251 N 0.07601 0.55932 0.24352 0.0
H252 H 0.10525 0.55426 0.22313 0.0
H253 H 0.04556 0.55803 0.26017 0.0
H254 H 0.11672 0.57269 0.2699 0.0
H255 H 0.0807 0.624 0.27738 0.0
O256 O 0.0991 0.58587 0.19666 0.0
O257 O 0.08117 0.61318 0.20577 0.0
O258 O 0.05189 0.59475 0.25657 0.0
C259 C 0.09648 0.60479 0.1905 0.0
H260 H 0.01944 0.58629 0.14044 0.0
H261 H 0.13154 0.59571 0.31923 0.0
H262 H 0.0487 0.52512 0.28806 0.0
H263 H 0.10905 0.52127 0.24834 0.0
Co264 Co 0.8362 0.69518 0.52363 0.0
C265 C 0.81078 0.71383 0.57963 0.0
C266 C 0.8376 0.69994 0.59899 0.0
C267 C 0.82695 0.70722 0.62693 0.0
N268 N 0.82742 0.70381 0.56941 0.0
N269 N 0.81017 0.71594 0.61484 0.0
H270 H 0.79926 0.71902 0.56197 0.0
H271 H 0.85181 0.69224 0.60019 0.0
C272 C 0.84548 0.65156 0.53508 0.0
O273 O 0.837 0.64749 0.50492 0.0
N274 N 0.84635 0.68644 0.47821 0.0
C275 C 0.84018 0.6914 0.44574 0.0
C276 C 0.85398 0.68457 0.42171 0.0
C277 C 0.8642 0.67726 0.47322 0.0
N278 N 0.86906 0.67564 0.43905 0.0
C279 C 0.79851 0.69215 0.4891 0.0
C280 C 0.78346 0.65958 0.52489 0.0
C281 C 0.77305 0.6668 0.49564 0.0
C282 C 0.78045 0.68377 0.47862 0.0
C283 C 0.80173 0.66847 0.53443 0.0
N284 N 0.80977 0.68361 0.5148 0.0
H285 H 0.80336 0.70561 0.47623 0.0
H286 H 0.80944 0.66298 0.55728 0.0
H287 H 0.82734 0.70041 0.43941 0.0
H288 H 0.87395 0.67276 0.49436 0.0
O289 O 0.83106 0.7214 0.50523 0.0
O290 O 0.86005 0.71187 0.52768 0.0
O291 O 0.84651 0.66967 0.54585 0.0
C292 C 0.8495 0.72577 0.51239 0.0
H293 H 0.83124 0.7063 0.65417 0.0
H294 H 0.85317 0.68649 0.39366 0.0
H295 H 0.77783 0.64693 0.53962 0.0
H296 H 0.77232 0.69054 0.45718 0.0
Co297 Co 0.06455 0.0846 0.77128 0.0
C298 C 0.04564 0.05821 0.82766 0.0
C299 C 0.0477 0.08942 0.8404 0.0
C300 C 0.03951 0.0796 0.86841 0.0
N301 N 0.05173 0.07616 0.81475 0.0
N302 N 0.03825 0.05998 0.86055 0.0
H303 H 0.04709 0.04406 0.81436 0.0
H304 H 0.05094 0.10527 0.83909 0.0
C305 C 0.09627 0.08706 0.82538 0.0
O306 O 0.09025 0.06926 0.83557 0.0
N307 N 0.07702 0.09426 0.72896 0.0
C308 C 0.07753 0.08543 0.69733 0.0
C309 C 0.08626 0.0985 0.67391 0.0
C310 C 0.08528 0.1125 0.72444 0.0
N311 N 0.09108 0.11556 0.69098 0.0
C312 C 0.06609 0.04288 0.75444 0.0
C313 C 0.10715 0.04028 0.74712 0.0
C314 C 0.09537 0.02387 0.73696 0.0
C315 C 0.07457 0.02529 0.74138 0.0
C316 C 0.09803 0.05768 0.75993 0.0
N317 N 0.0777 0.0588 0.76394 0.0
H318 H 0.04997 0.04404 0.7551 0.0
H319 H 0.10733 0.07064 0.76439 0.0
H320 H 0.07158 0.07074 0.69154 0.0
H321 H 0.0862 0.12359 0.74501 0.0
O322 O 0.04029 0.07919 0.74584 0.0
O323 O 0.04738 0.10818 0.77097 0.0
O324 O 0.08784 0.09552 0.79925 0.0
C325 C 0.03497 0.09749 0.75249 0.0
H326 H 0.03488 0.08638 0.89282 0.0
H327 H 0.08868 0.09568 0.64638 0.0
H328 H 0.12326 0.04002 0.74404 0.0
H329 H 0.06472 0.01336 0.73291 0.0
Co330 Co 0.67181 0.31651 0.02533 0.0
C331 C 0.69621 0.29733 0.0843 0.0
C332 C 0.66519 0.30262 0.09555 0.0
C333 C 0.67382 0.29434 0.12452 0.0
N334 N 0.67908 0.30473 0.0702 0.0
N335 N 0.69332 0.29105 0.11766 0.0
H336 H 0.71052 0.29686 0.07133 0.0
H337 H 0.64969 0.30708 0.09317 0.0
C338 C 0.67013 0.34978 0.07631 0.0
O339 O 0.6879 0.34367 0.08638 0.0
N340 N 0.66303 0.32803 0.98169 0.0
C341 C 0.67158 0.32635 0.94997 0.0
C342 C 0.6588 0.33455 0.92555 0.0
C343 C 0.64526 0.33705 0.97626 0.0
N344 N 0.64216 0.34123 0.94208 0.0
C345 C 0.71399 0.31681 0.01113 0.0
C346 C 0.71686 0.35735 0.99752 0.0
C347 C 0.73336 0.34507 0.99016 0.0
C348 C 0.73189 0.32461 0.99788 0.0
C349 C 0.69928 0.34897 0.01101 0.0
N350 N 0.69798 0.32892 0.018 0.0
H351 H 0.71264 0.30078 0.01361 0.0
H352 H 0.68629 0.35849 0.01344 0.0
H353 H 0.68572 0.31904 0.94481 0.0
H354 H 0.63467 0.33993 0.99706 0.0
O355 O 0.67707 0.29154 1.002 0.0
O356 O 0.64786 0.29988 0.02522 0.0
O357 O 0.66122 0.34079 0.0512 0.0
C358 C 0.65854 0.28682 0.00801 0.0
H359 H 0.66624 0.29083 0.14879 0.0
H360 H 0.66133 0.33474 0.89763 0.0
H361 H 0.71722 0.37321 0.99162 0.0
H362 H 0.74401 0.31444 0.99159 0.0
Co363 Co 0.44763 0.9232 0.27206 0.0
C364 C 0.47107 0.94381 0.32921 0.0
C365 C 0.44072 0.93736 0.3437 0.0
C366 C 0.45003 0.94601 0.37167 0.0
N367 N 0.45378 0.93577 0.31687 0.0
N368 N 0.46913 0.94997 0.36285 0.0
H369 H 0.48484 0.94478 0.31438 0.0
H370 H 0.4253 0.93262 0.34352 0.0
C371 C 0.40552 0.90775 0.2823 0.0
O372 O 0.40104 0.91351 0.25042 0.0
N373 N 0.44131 0.90994 0.22796 0.0
C374 C 0.4432 0.91674 0.19491 0.0
C375 C 0.43743 0.90188 0.1721 0.0
C376 C 0.43509 0.89076 0.22451 0.0
N377 N 0.4322 0.88555 0.19072 0.0
C378 C 0.44229 0.95959 0.23392 0.0
C379 C 0.40591 0.97115 0.26151 0.0
C380 C 0.41434 0.9825 0.23439 0.0
C381 C 0.43299 0.97674 0.22124 0.0
C382 C 0.41572 0.95384 0.2733 0.0
N383 N 0.43323 0.94757 0.25815 0.0
H384 H 0.45686 0.95601 0.22365 0.0
H385 H 0.40908 0.94574 0.29467 0.0
H386 H 0.44863 0.93126 0.18725 0.0
H387 H 0.43274 0.88082 0.24646 0.0
O388 O 0.4735 0.93026 0.25375 0.0
O389 O 0.46698 0.90189 0.28115 0.0
O390 O 0.42318 0.9105 0.29425 0.0
C391 C 0.47981 0.91289 0.26402 0.0
H392 H 0.44314 0.94933 0.39665 0.0
H393 H 0.43688 0.90319 0.14393 0.0
H394 H 0.39174 0.97542 0.27313 0.0
H395 H 0.44049 0.98555 0.20137 0.0
Co396 Co 0.17204 0.32689 0.48215 0.0
C397 C 0.19319 0.30994 0.41966 0.0
C398 C 0.16677 0.29358 0.43434 0.0
C399 C 0.17524 0.28436 0.40587 0.0
N400 N 0.17804 0.30949 0.44317 0.0
N401 N 0.19186 0.29455 0.39662 0.0
H402 H 0.20499 0.32104 0.41971 0.0
H403 H 0.15322 0.28905 0.44767 0.0
C404 C 0.16684 0.29885 0.5431 0.0
O405 O 0.17637 0.31181 0.56289 0.0
N406 N 0.16484 0.34402 0.52139 0.0
C407 C 0.17396 0.36042 0.53451 0.0
C408 C 0.16216 0.36834 0.56069 0.0
C409 C 0.14744 0.34257 0.53932 0.0
N410 N 0.1455 0.35705 0.56374 0.0
C411 C 0.21158 0.34251 0.4915 0.0
C412 C 0.2289 0.30917 0.52141 0.0
C413 C 0.24015 0.3269 0.51913 0.0
C414 C 0.23133 0.34351 0.50302 0.0
C415 C 0.20909 0.30878 0.50913 0.0
N416 N 0.20018 0.32578 0.49663 0.0
H417 H 0.20535 0.35558 0.47909 0.0
H418 H 0.20108 0.29477 0.50972 0.0
H419 H 0.18784 0.36678 0.52557 0.0
H420 H 0.13621 0.33131 0.53391 0.0
O421 O 0.17356 0.35003 0.45208 0.0
O422 O 0.14594 0.3327 0.46183 0.0
O423 O 0.16444 0.3024 0.51051 0.0
C424 C 0.15451 0.34792 0.44663 0.0
H425 H 0.16939 0.27128 0.39263 0.0
H426 H 0.16559 0.38148 0.57612 0.0
H427 H 0.23537 0.2957 0.53237 0.0
H428 H 0.23939 0.35749 0.50019 0.0
Co429 Co 0.9371 0.92531 0.23163 0.0
C430 C 0.95441 0.94055 0.16374 0.0
C431 C 0.97477 0.94228 0.20696 0.0
C432 C 0.98378 0.95072 0.17838 0.0
N433 N 0.95637 0.93577 0.19804 0.0
N434 N 0.971 0.94982 0.1512 0.0
H435 H 0.94091 0.9382 0.14871 0.0
H436 H 0.98103 0.9418 0.23296 0.0
C437 C 0.96281 0.90846 0.29161 0.0
O438 O 0.94755 0.9076 0.31318 0.0
N439 N 0.91786 0.91484 0.26503 0.0
C440 C 0.90336 0.92488 0.2822 0.0
C441 C 0.89339 0.91167 0.30377 0.0
C442 C 0.91583 0.89555 0.275 0.0
N443 N 0.90146 0.89329 0.29957 0.0
C444 C 0.93036 0.96729 0.2337 0.0
C445 C 0.93868 0.97378 0.30346 0.0
C446 C 0.93167 0.98982 0.28326 0.0
C447 C 0.92785 0.98644 0.24775 0.0
C448 C 0.94118 0.95487 0.28826 0.0
N449 N 0.93664 0.95166 0.25391 0.0
H450 H 0.92684 0.96491 0.20647 0.0
H451 H 0.94606 0.94292 0.30472 0.0
H452 H 0.90043 0.94074 0.27979 0.0
H453 H 0.92541 0.88361 0.26569 0.0
O454 O 0.91515 0.92924 0.1996 0.0
O455 O 0.93308 0.90144 0.20349 0.0
O456 O 0.96077 0.9155 0.26064 0.0
C457 C 0.91797 0.91084 0.18957 0.0
H458 H 0.99856 0.95734 0.17787 0.0
H459 H 0.8817 0.9155 0.32223 0.0
H460 H 0.94201 0.97575 0.33094 0.0
H461 H 0.92224 0.99831 0.23116 0.0
Co462 Co 0.33583 0.68284 0.97782 0.0
C463 C 0.31506 0.70024 0.91563 0.0
C464 C 0.34148 0.7164 0.93079 0.0
C465 C 0.33343 0.72555 0.90199 0.0
N466 N 0.32996 0.70065 0.9395 0.0
N467 N 0.31679 0.71549 0.89241 0.0
H468 H 0.30324 0.68915 0.9154 0.0
H469 H 0.35503 0.72074 0.94424 0.0
C470 C 0.34165 0.7102 0.03956 0.0
O471 O 0.33149 0.69746 0.05884 0.0
N472 N 0.34298 0.6653 0.01633 0.0
C473 C 0.33404 0.6487 0.02907 0.0
C474 C 0.34591 0.64078 0.05511 0.0
C475 C 0.36031 0.66685 0.03419 0.0
N476 N 0.36237 0.65231 0.05836 0.0
C477 C 0.29625 0.66755 0.98799 0.0
C478 C 0.2794 0.70092 0.01882 0.0
C479 C 0.26801 0.68327 0.01669 0.0
C480 C 0.27658 0.66665 1.0001 0.0
C481 C 0.29911 0.70121 1.0059 0.0
N482 N 0.30779 0.68419 0.99293 0.0
H483 H 0.30228 0.65449 0.97521 0.0
H484 H 0.30728 0.71514 1.00651 0.0
H485 H 0.32024 0.64224 0.01999 0.0
H486 H 0.37141 0.67828 0.02899 0.0
O487 O 0.33386 0.66001 0.94704 0.0
O488 O 0.36176 0.67685 0.95689 0.0
O489 O 0.344 0.70692 0.00684 0.0
C490 C 0.35292 0.66191 0.94136 0.0
H491 H 0.33968 0.7384 0.88864 0.0
H492 H 0.34264 0.62754 0.07038 0.0
H493 H 0.27312 0.71439 0.03019 0.0
H494 H 0.26841 0.65274 0.99737 0.0
Co495 Co 0.57223 0.08721 0.7291 0.0
C496 C 0.55791 0.06503 0.66462 0.0
C497 C 0.54097 0.09138 0.67684 0.0
C498 C 0.53329 0.08309 0.6469 0.0
N499 N 0.55614 0.0799 0.68859 0.0
N500 N 0.54392 0.06652 0.63918 0.0
H501 H 0.56914 0.05348 0.66509 0.0
H502 H 0.536 0.10513 0.68904 0.0
C503 C 0.53035 0.08562 0.75714 0.0
O504 O 0.52837 0.06822 0.74143 0.0
N505 N 0.58788 0.0955 0.76883 0.0
C506 C 0.60462 0.08704 0.78155 0.0
C507 C 0.61177 0.09891 0.80828 0.0
C508 C 0.58509 0.11234 0.7876 0.0
N509 N 0.59949 0.11488 0.81198 0.0
C510 C 0.5831 0.04569 0.73096 0.0
C511 C 0.56798 0.03735 0.7966 0.0
C512 C 0.57915 0.02257 0.77927 0.0
C513 C 0.58651 0.02691 0.74582 0.0
C514 C 0.56496 0.05603 0.78078 0.0
N515 N 0.57206 0.05993 0.74788 0.0
H516 H 0.59057 0.04911 0.70673 0.0
H517 H 0.55798 0.06769 0.79606 0.0
H518 H 0.61145 0.07352 0.77149 0.0
H519 H 0.5729 0.12266 0.78297 0.0
O520 O 0.59636 0.08544 0.70139 0.0
O521 O 0.57798 0.11281 0.70701 0.0
O522 O 0.54702 0.09502 0.75537 0.0
C523 C 0.59386 0.10425 0.69397 0.0
H524 H 0.52116 0.08912 0.63143 0.0
H525 H 0.62539 0.09634 0.82285 0.0
H526 H 0.56262 0.03494 0.823 0.0
H527 H 0.59548 0.01611 0.73161 0.0
H528 H 0.49549 0.06702 0.77611 0.0
H529 H 0.46724 0.08116 0.80834 0.0
H530 H 0.49799 0.13782 0.81528 0.0
H531 H 0.52665 0.12354 0.784 0.0
H532 H 0.48049 0.12896 0.876 0.0
H533 H 0.42525 0.11786 0.77009 0.0
H534 H 0.43702 0.09489 0.7829 0.0
H535 H 0.45176 0.11451 0.76335 0.0
C536 C 0.49626 0.08251 0.78441 0.0
C537 C 0.5133 0.09419 0.77718 0.0
C538 C 0.48 0.09063 0.80268 0.0
C539 C 0.48021 0.11073 0.81358 0.0
C540 C 0.49737 0.12232 0.80697 0.0
H541 H 0.37392 0.17753 0.8748 0.0
H542 H 0.40327 0.1637 0.8452 0.0
C543 C 0.51376 0.11414 0.78902 0.0
C544 C 0.46264 0.11959 0.83213 0.0
H545 H 0.41214 0.12697 0.82575 0.0
C546 C 0.46555 0.1286 0.86493 0.0
C547 C 0.44316 0.11945 0.81753 0.0
C548 C 0.43911 0.11135 0.78138 0.0
C549 C 0.44956 0.13718 0.88369 0.0
C550 C 0.42994 0.13627 0.86974 0.0
C551 C 0.42709 0.12749 0.83673 0.0
C552 C 0.41221 0.14477 0.88835 0.0
C553 C 0.45399 0.14759 0.91783 0.0
C554 C 0.40721 0.13865 0.92244 0.0
C555 C 0.39047 0.1467 0.93955 0.0
C556 C 0.37812 0.16074 0.9227 0.0
C557 C 0.38296 0.16659 0.8884 0.0
C558 C 0.39981 0.15873 0.87148 0.0
H559 H 0.46993 0.15224 0.91948 0.0
H560 H 0.44443 0.16105 0.92133 0.0
H561 H 0.451 0.13713 0.93974 0.0
H562 H 0.41614 0.12748 0.93572 0.0
H563 H 0.38697 0.14167 0.96576 0.0
H564 H 0.61874 0.64187 0.21976 0.0
H565 H 0.63311 0.67119 0.19048 0.0
H566 H 0.59851 0.65787 0.09824 0.0
H567 H 0.58462 0.62833 0.12706 0.0
H568 H 0.63515 0.66707 0.08034 0.0
H569 H 0.60843 0.72476 0.17331 0.0
H570 H 0.62345 0.70601 0.19414 0.0
H571 H 0.59983 0.69918 0.17491 0.0
C572 C 0.61414 0.64531 0.19332 0.0
C573 C 0.60056 0.63277 0.17573 0.0
C574 C 0.62226 0.66214 0.17665 0.0
C575 C 0.61663 0.66705 0.1423 0.0
C576 C 0.6031 0.65449 0.12473 0.0
H577 H 0.63885 0.78161 0.0392 0.0
H578 H 0.62429 0.75304 0.07034 0.0
C579 C 0.5952 0.63753 0.1412 0.0
C580 C 0.62527 0.68483 0.1241 0.0
H581 H 0.63234 0.73541 0.13088 0.0
C582 C 0.63444 0.68202 0.09138 0.0
C583 C 0.6241 0.70445 0.1381 0.0
C584 C 0.61324 0.70885 0.17186 0.0
C585 C 0.64262 0.69812 0.07252 0.0
C586 C 0.64227 0.71759 0.08724 0.0
C587 C 0.63287 0.72048 0.11975 0.0
C588 C 0.65133 0.73517 0.06912 0.0
C589 C 0.65107 0.6941 0.03656 0.0
C590 C 0.6715 0.7349 0.05865 0.0
C591 C 0.67976 0.75108 0.04043 0.0
C592 C 0.66817 0.76812 0.0329 0.0
C593 C 0.64818 0.7687 0.0445 0.0
C594 C 0.63984 0.75237 0.06234 0.0
H595 H 0.64462 0.68028 0.02496 0.0
H596 H 0.64814 0.70679 0.01855 0.0
H597 H 0.6675 0.69194 0.03854 0.0
H598 H 0.68089 0.72212 0.06449 0.0
H599 H 0.69529 0.75024 0.03232 0.0
H600 H 0.1087 0.8338 0.45987 0.0
H601 H 0.07896 0.84786 0.43229 0.0
H602 H 0.11413 0.86495 0.34258 0.0
H603 H 0.14411 0.85119 0.37019 0.0
H604 H 0.07322 0.88821 0.40937 0.0
H605 H 0.06651 0.83346 0.30034 0.0
H606 H 0.08156 0.82866 0.33859 0.0
H607 H 0.09051 0.84532 0.30523 0.0
C608 C 0.11024 0.84065 0.4344 0.0
C609 C 0.12891 0.84133 0.41733 0.0
C610 C 0.09315 0.84859 0.41858 0.0
C611 C 0.09429 0.85725 0.38524 0.0
C612 C 0.11284 0.858 0.36806 0.0
H613 H 0.99875 0.909 0.25627 0.0
H614 H 0.03149 0.89791 0.27785 0.0
C615 C 0.12998 0.85009 0.3839 0.0
C616 C 0.07608 0.8659 0.36904 0.0
H617 H 0.04321 0.86002 0.30149 0.0
C618 C 0.06667 0.88208 0.38574 0.0
C619 C 0.06768 0.85798 0.33805 0.0
C620 C 0.07694 0.8403 0.31952 0.0
C621 C 0.04899 0.89049 0.37244 0.0
C622 C 0.04025 0.8822 0.34203 0.0
C623 C 0.04992 0.86633 0.32482 0.0
C624 C 0.02053 0.8891 0.32882 0.0
C625 C 0.0399 0.90825 0.39101 0.0
C626 C 1.00348 0.88754 0.3501 0.0
C627 C 0.98484 0.89388 0.33796 0.0
C628 C 0.98276 0.90181 0.30409 0.0
C629 C 0.99982 0.9031 0.28256 0.0
C630 C 0.01854 0.89674 0.29481 0.0
H631 H 0.05123 0.91642 0.40676 0.0
H632 H 0.03306 0.91886 0.37217 0.0
H633 H 0.02803 0.90294 0.40909 0.0
H634 H 1.00456 0.88124 0.37611 0.0
H635 H 0.97203 0.89246 0.35518 0.0
H636 H 0.90168 0.36461 0.72385 0.0
H637 H 0.88747 0.33403 0.69922 0.0
H638 H 0.91462 0.3475 0.59969 0.0
H639 H 0.9292 0.37802 0.62423 0.0
H640 H 0.87335 0.33654 0.59629 0.0
H641 H 0.91764 0.28203 0.67384 0.0
H642 H 0.90502 0.30092 0.69907 0.0
H643 H 0.92475 0.30801 0.66958 0.0
C644 C 0.90493 0.36098 0.69688 0.0
C645 C 0.91677 0.3738 0.67616 0.0
C646 C 0.89674 0.34347 0.68281 0.0
C647 C 0.90021 0.33834 0.64776 0.0
C648 C 0.91181 0.35115 0.62686 0.0
H649 H 0.86133 0.24223 0.51012 0.0
H650 H 0.87556 0.27264 0.53537 0.0
C651 C 0.92006 0.36866 0.64092 0.0
C652 C 0.89133 0.31987 0.63269 0.0
H653 H 0.89129 0.26885 0.63946 0.0
C654 C 0.87732 0.32173 0.60559 0.0
C655 C 0.89647 0.30057 0.64502 0.0
C656 C 0.91191 0.29765 0.67328 0.0
C657 C 0.86806 0.30482 0.59085 0.0
C658 C 0.87328 0.28549 0.60302 0.0
C659 C 0.88728 0.28365 0.63018 0.0
C660 C 0.86457 0.26698 0.58768 0.0
C661 C 0.85241 0.30787 0.56295 0.0
C662 C 0.8541 0.25334 0.60884 0.0
C663 C 0.84606 0.23579 0.59452 0.0
C664 C 0.8484 0.2315 0.55874 0.0
C665 C 0.85906 0.24512 0.5377 0.0
C666 C 0.86713 0.26261 0.55206 0.0
H667 H 0.84609 0.32325 0.56377 0.0
H668 H 0.85938 0.30566 0.53688 0.0
H669 H 0.83998 0.29695 0.56579 0.0
H670 H 0.85205 0.25633 0.63645 0.0
H671 H 0.83801 0.22562 0.61153 0.0
H672 H 0.61297 0.85496 0.05545 0.0
H673 H 0.5857 0.86263 0.09613 0.0
H674 H 0.62856 0.86989 0.17947 0.0
H675 H 0.6559 0.86324 0.13818 0.0
H676 H 0.57162 0.84604 0.15216 0.0
H677 H 0.59966 0.92121 0.18948 0.0
H678 H 0.61081 0.90686 0.15467 0.0
H679 H 0.61701 0.90158 0.19954 0.0
C680 C 0.61651 0.8582 0.08247 0.0
C681 C 0.63652 0.85872 0.09365 0.0
C682 C 0.60094 0.86257 0.10575 0.0
C683 C 0.605 0.86728 0.14086 0.0
C684 C 0.62499 0.867 0.15235 0.0
H685 H 0.49902 0.87755 0.28105 0.0
H686 H 0.53078 0.86509 0.25671 0.0
C687 C 0.64061 0.86309 0.12883 0.0
C688 C 0.58825 0.87267 0.16498 0.0
H689 H 0.57111 0.90951 0.21938 0.0
C690 C 0.57153 0.85992 0.16691 0.0
C691 C 0.58801 0.89084 0.18416 0.0
C692 C 0.60473 0.906 0.18165 0.0
C693 C 0.55439 0.86508 0.18639 0.0
C694 C 0.55423 0.88318 0.20574 0.0
C695 C 0.57125 0.89556 0.20484 0.0
C696 C 0.53585 0.89088 0.22348 0.0
C697 C 0.5363 0.85158 0.18443 0.0
C698 C 0.52863 0.90991 0.21446 0.0
C699 C 0.51093 0.91721 0.22898 0.0
C700 C 0.49977 0.90562 0.2527 0.0
C701 C 0.50723 0.88679 0.26273 0.0
C702 C 0.52527 0.87957 0.2485 0.0
H703 H 0.53724 0.84102 0.16202 0.0
H704 H 0.53529 0.84258 0.20872 0.0
H705 H 0.52233 0.86046 0.18183 0.0
H706 H 0.53642 0.91899 0.19532 0.0
H707 H 0.50567 0.93177 0.22056 0.0
H708 H 0.38804 0.233 0.99946 0.0
H709 H 0.40181 0.26299 0.97074 0.0
H710 H 0.34199 0.28557 0.9555 0.0
H711 H 0.32824 0.25598 0.98395 0.0
H712 H 0.39265 0.27541 0.90075 0.0
H713 H 0.37202 0.3338 0.99713 0.0
H714 H 0.37313 0.30751 0.00812 0.0
H715 H 0.35156 0.31755 0.98615 0.0
C716 C 0.3779 0.24455 0.99047 0.0
C717 C 0.35708 0.24217 0.994 0.0
C718 C 0.38576 0.2616 0.97401 0.0
C719 C 0.37291 0.27662 0.96142 0.0
C720 C 0.35218 0.27438 0.9656 0.0
H721 H 0.36726 0.38051 0.8334 0.0
H722 H 0.36251 0.35199 0.87253 0.0
C723 C 0.34435 0.25737 0.98171 0.0
C724 C 0.38075 0.29406 0.94171 0.0
H725 H 0.37895 0.34513 0.93882 0.0
C726 C 0.39003 0.29068 0.9093 0.0
C727 C 0.37723 0.31393 0.95291 0.0
C728 C 0.36811 0.31846 0.98814 0.0
C729 C 0.39488 0.30666 0.88691 0.0
C730 C 0.39063 0.32652 0.89756 0.0
C731 C 0.38209 0.32989 0.9306 0.0
C732 C 0.39386 0.34392 0.87412 0.0
C733 C 0.40356 0.30209 0.85133 0.0
C734 C 0.4131 0.34901 0.86231 0.0
C735 C 0.41586 0.36535 0.83992 0.0
C736 C 0.39944 0.37701 0.82912 0.0
C737 C 0.38024 0.372 0.84142 0.0
C738 C 0.37749 0.35565 0.8637 0.0
H739 H 0.40193 0.28602 0.84432 0.0
H740 H 0.3962 0.31128 0.83087 0.0
H741 H 0.41975 0.30578 0.85129 0.0
H742 H 0.426 0.34043 0.87061 0.0
H743 H 0.4309 0.36902 0.83151 0.0
H744 H 0.02283 0.13677 0.74902 0.0
H745 H 0.99231 0.14979 0.72118 0.0
H746 H 0.97433 0.08955 0.69551 0.0
H747 H 1.00456 0.07651 0.72298 0.0
H748 H 0.9809 0.14271 0.6486 0.0
H749 H 0.92402 0.11455 0.74218 0.0
H750 H 0.95013 0.11729 0.75351 0.0
H751 H 0.94191 0.09604 0.7285 0.0
C752 C 0.01222 0.12633 0.73782 0.0
C753 C 0.01607 0.10562 0.73825 0.0
C754 C 0.99485 0.13377 0.72187 0.0
C755 C 0.98097 0.1206 0.70667 0.0
C756 C 0.98468 0.09995 0.70758 0.0
H757 H 0.87483 0.11793 0.58227 0.0
H758 H 0.90395 0.11179 0.6193 0.0
C759 C 1.00203 0.09254 0.72316 0.0
C760 C 0.96307 0.12822 0.68804 0.0
H761 H 0.91209 0.12466 0.68612 0.0
C762 C 0.96582 0.13908 0.65701 0.0
C763 C 0.94345 0.12334 0.69904 0.0
C764 C 0.93962 0.11231 0.7328 0.0
C765 C 0.94949 0.14436 0.63578 0.0
C766 C 0.92987 0.13899 0.64632 0.0
C767 C 0.92712 0.1287 0.67797 0.0
C768 C 0.91207 0.14305 0.62416 0.0
C769 C 0.95349 0.15478 0.60147 0.0
C770 C 0.90677 0.16268 0.6149 0.0
C771 C 0.89011 0.16623 0.59362 0.0
C772 C 0.87829 0.15022 0.58151 0.0
C773 C 0.88346 0.13061 0.59137 0.0
C774 C 0.90016 0.12707 0.61246 0.0
H775 H 0.96943 0.15347 0.59342 0.0
H776 H 0.94396 0.14851 0.58038 0.0
H777 H 0.94993 0.17093 0.6042 0.0
H778 H 0.91543 0.17528 0.6243 0.0
H779 H 0.88632 0.18153 0.58706 0.0
H780 H 0.14194 0.62839 0.33385 0.0
H781 H 0.14703 0.65699 0.37263 0.0
H782 H 0.08378 0.66969 0.37027 0.0
H783 H 0.07845 0.64072 0.33207 0.0
H784 H 0.13722 0.69729 0.35701 0.0
H785 H 0.09739 0.67023 0.4759 0.0
H786 H 0.1052 0.65355 0.44128 0.0
H787 H 0.0837 0.66931 0.43549 0.0
C788 C 0.12905 0.63705 0.34193 0.0
C789 C 0.10978 0.63221 0.32984 0.0
C790 C 0.132 0.65347 0.36397 0.0
C791 C 0.11576 0.66533 0.37465 0.0
C792 C 0.09648 0.66056 0.36278 0.0
H793 H 0.12232 0.77678 0.49829 0.0
H794 H 0.10859 0.74774 0.46666 0.0
C795 C 0.0935 0.64414 0.3406 0.0
C796 C 0.11936 0.68318 0.39688 0.0
H797 H 0.11172 0.70256 0.47862 0.0
C798 C 0.13154 0.69848 0.38352 0.0
C799 C 0.11178 0.68478 0.43136 0.0
C800 C 0.09889 0.66857 0.44711 0.0
C801 C 0.1367 0.71515 0.40389 0.0
C802 C 0.12978 0.7164 0.43879 0.0
C803 C 0.11702 0.70148 0.45187 0.0
C804 C 0.13702 0.73241 0.46241 0.0
C805 C 0.14976 0.73122 0.38806 0.0
C806 C 0.1573 0.73291 0.47167 0.0
C807 C 0.16511 0.74933 0.48956 0.0
C808 C 0.15277 0.76555 0.49879 0.0
C809 C 0.13215 0.76444 0.49166 0.0
C810 C 0.12432 0.74793 0.47351 0.0
H811 H 0.14963 0.73063 0.35904 0.0
H812 H 0.14482 0.74634 0.39658 0.0
H813 H 0.16542 0.72904 0.39691 0.0
H814 H 0.16728 0.72095 0.46372 0.0
H815 H 0.18103 0.74968 0.49489 0.0
H816 H 0.88797 0.68686 0.37935 0.0
H817 H 0.91838 0.67221 0.35424 0.0
H818 H 0.92176 0.6307 0.44023 0.0
H819 H 0.89121 0.64519 0.46543 0.0
H820 H 0.95782 0.66822 0.38943 0.0
H821 H 0.92421 0.59574 0.34802 0.0
H822 H 0.90929 0.61782 0.35635 0.0
H823 H 0.91929 0.6037 0.39217 0.0
C824 C 0.89507 0.6745 0.39279 0.0
C825 C 0.8871 0.66714 0.42435 0.0
C826 C 0.91252 0.66623 0.3785 0.0
C827 C 0.92222 0.65027 0.39521 0.0
C828 C 0.91439 0.6429 0.42676 0.0
H829 H 0.04065 0.5999 0.35875 0.0
H830 H 0.00999 0.61373 0.38436 0.0
C831 C 0.89703 0.65129 0.44125 0.0
C832 C 0.94067 0.64151 0.37977 0.0
H833 H 0.95915 0.59942 0.34031 0.0
C834 C 0.95814 0.65317 0.37873 0.0
C835 C 0.94097 0.62194 0.36559 0.0
C836 C 0.92244 0.60903 0.36525 0.0
C837 C 0.976 0.64567 0.36425 0.0
C838 C 0.97636 0.62603 0.35044 0.0
C839 C 0.95883 0.61444 0.35109 0.0
C840 C 0.99481 0.61737 0.33491 0.0
C841 C 0.99435 0.65882 0.36341 0.0
C842 C 0.99634 0.61465 0.29864 0.0
C843 C 0.01389 0.60686 0.28386 0.0
C844 C 0.03016 0.6014 0.30516 0.0
C845 C 0.02842 0.60389 0.34158 0.0
C846 C 0.01093 0.61186 0.35628 0.0
H847 H 0.99086 0.6746 0.37036 0.0
H848 H 0.00552 0.65303 0.38231 0.0
H849 H 1.00132 0.65849 0.33703 0.0
H850 H 0.98402 0.61878 0.28173 0.0
H851 H 0.01468 0.60508 0.25576 0.0
H852 H 0.11203 0.1445 0.72504 0.0
H853 H 0.12531 0.17557 0.70044 0.0
H854 H 0.10279 0.15899 0.59896 0.0
H855 H 0.08932 0.12798 0.62333 0.0
H856 H 0.14225 0.17331 0.59747 0.0
H857 H 0.09263 0.2248 0.67173 0.0
H858 H 0.10645 0.2075 0.69831 0.0
H859 H 0.08785 0.19825 0.66849 0.0
C860 C 0.1097 0.14751 0.69757 0.0
C861 C 0.09945 0.1337 0.67629 0.0
C862 C 0.11732 0.16531 0.68353 0.0
C863 C 0.11477 0.16977 0.64796 0.0
C864 C 0.10489 0.1559 0.62651 0.0
H865 H 0.14756 0.26809 0.50965 0.0
H866 H 0.13533 0.23677 0.53496 0.0
C867 C 0.09727 0.13809 0.6405 0.0
C868 C 0.12258 0.18879 0.63298 0.0
H869 H 0.11852 0.23973 0.63831 0.0
C870 C 0.13702 0.18783 0.60631 0.0
C871 C 0.11577 0.20774 0.64457 0.0
C872 C 0.0997 0.20973 0.67213 0.0
C873 C 0.14506 0.2053 0.59129 0.0
C874 C 0.13819 0.22425 0.60279 0.0
C875 C 0.12379 0.22521 0.62954 0.0
C876 C 0.14567 0.24328 0.58732 0.0
C877 C 0.16114 0.2033 0.56377 0.0
C878 C 0.15511 0.25763 0.60847 0.0
C879 C 0.16202 0.27564 0.59412 0.0
C880 C 0.15952 0.27974 0.55831 0.0
C881 C 0.14986 0.2654 0.53727 0.0
C882 C 0.14296 0.2474 0.55166 0.0
H883 H 0.16848 0.18837 0.56471 0.0
H884 H 0.15432 0.20506 0.53754 0.0
H885 H 0.17278 0.21503 0.56693 0.0
H886 H 0.15725 0.25483 0.6361 0.0
H887 H 0.1693 0.28634 0.61115 0.0
H888 H 0.46903 0.41076 0.85796 0.0
H889 H 0.50033 0.39873 0.88338 0.0
H890 H 0.52603 0.39341 0.78029 0.0
H891 H 0.49455 0.40489 0.75459 0.0
H892 H 0.53441 0.36116 0.81888 0.0
H893 H 0.55165 0.42892 0.89674 0.0
H894 H 0.52755 0.41865 0.90703 0.0
H895 H 0.53225 0.42855 0.86401 0.0
C896 C 0.48137 0.40714 0.84068 0.0
C897 C 0.4793 0.40891 0.80423 0.0
C898 C 0.49934 0.40038 0.85529 0.0
C899 C 0.51575 0.39557 0.83385 0.0
C900 C 0.51365 0.39715 0.79742 0.0
H901 H 0.63804 0.35619 0.87605 0.0
H902 H 0.60761 0.36919 0.84912 0.0
C903 C 0.49562 0.40372 0.78276 0.0
C904 C 0.53488 0.38831 0.8493 0.0
H905 H 0.57116 0.39982 0.90905 0.0
C906 C 0.54251 0.36971 0.83836 0.0
C907 C 0.54555 0.39948 0.8747 0.0
C908 C 0.53895 0.42009 0.88606 0.0
C909 C 0.56019 0.3618 0.85267 0.0
C910 C 0.57057 0.37278 0.87851 0.0
C911 C 0.56308 0.39141 0.88933 0.0
C912 C 0.58911 0.36501 0.89492 0.0
C913 C 0.56751 0.34156 0.84064 0.0
C914 C 0.58885 0.35855 0.92975 0.0
C915 C 0.60618 0.35085 0.94523 0.0
C916 C 0.62429 0.34962 0.92631 0.0
C917 C 0.62447 0.3565 0.89146 0.0
C918 C 0.60706 0.36405 0.87595 0.0
H919 H 0.55625 0.33367 0.82432 0.0
H920 H 0.58136 0.34349 0.82493 0.0
H921 H 0.57125 0.33202 0.86347 0.0
H922 H 0.57512 0.35918 0.94484 0.0
H923 H 0.60514 0.3456 0.97187 0.0
H924 H 0.40825 0.85887 0.22461 0.0
H925 H 0.39372 0.82816 0.20071 0.0
H926 H 0.42248 0.8397 0.10179 0.0
H927 H 0.43766 0.86994 0.12578 0.0
H928 H 0.36791 0.82424 0.14548 0.0
H929 H 0.4375 0.78177 0.11844 0.0
H930 H 0.43713 0.80387 0.14562 0.0
H931 H 0.43736 0.80615 0.09876 0.0
C932 C 0.41184 0.8547 0.198 0.0
C933 C 0.42425 0.86693 0.17723 0.0
C934 C 0.40337 0.83719 0.18427 0.0
C935 C 0.40721 0.83143 0.14958 0.0
C936 C 0.41961 0.84357 0.12883 0.0
H937 H 0.3649 0.73898 0.00841 0.0
H938 H 0.38023 0.76835 0.03579 0.0
C939 C 0.4281 0.86104 0.14252 0.0
C940 C 0.39758 0.81325 0.13457 0.0
H941 H 0.40754 0.76902 0.09296 0.0
C942 C 0.37658 0.81208 0.13427 0.0
C943 C 0.40888 0.79739 0.11988 0.0
C944 C 0.43146 0.79722 0.12094 0.0
C945 C 0.36659 0.79576 0.11892 0.0
C946 C 0.3779 0.78005 0.10384 0.0
C947 C 0.39889 0.78113 0.10437 0.0
C948 C 0.36825 0.76237 0.0873 0.0
C949 C 0.34401 0.79571 0.11816 0.0
C950 C 0.35652 0.74915 0.1072 0.0
C951 C 0.34775 0.73232 0.09165 0.0
C952 C 0.35055 0.72833 0.05584 0.0
C953 C 0.36234 0.74161 0.03599 0.0
C954 C 0.37116 0.75839 0.05161 0.0
H955 H 0.33772 0.81084 0.12328 0.0
H956 H 0.33842 0.79034 0.0925 0.0
H957 H 0.33832 0.78542 0.13865 0.0
H958 H 0.35435 0.75172 0.13491 0.0
H959 H 0.33887 0.72238 0.1078 0.0
H960 H 0.13328 0.39228 0.59194 0.0
H961 H 0.10478 0.39773 0.63088 0.0
H962 H 0.09083 0.33473 0.62719 0.0
H963 H 0.11967 0.32904 0.58879 0.0
H964 H 0.06437 0.38883 0.6148 0.0
H965 H 0.08999 0.34777 0.73306 0.0
H966 H 0.10698 0.35544 0.6988 0.0
H967 H 0.0909 0.33422 0.69245 0.0
C968 C 0.12437 0.37951 0.59978 0.0
C969 C 0.12882 0.36021 0.58721 0.0
C970 C 0.10801 0.38267 0.62193 0.0
C971 C 0.09581 0.36661 0.63227 0.0
C972 C 0.10022 0.34729 0.61998 0.0
H973 H 0.98377 0.37159 0.75417 0.0
H974 H 0.01346 0.35867 0.72327 0.0
C975 C 0.11658 0.34412 0.59769 0.0
C976 C 0.07792 0.37044 0.6544 0.0
H977 H 0.05764 0.36213 0.7353 0.0
C978 C 0.06288 0.38293 0.64109 0.0
C979 C 0.07591 0.36256 0.68858 0.0
C980 C 0.09183 0.34935 0.70433 0.0
C981 C 0.04604 0.38801 0.66116 0.0
C982 C 0.04434 0.38073 0.69577 0.0
C983 C 0.05904 0.36773 0.70881 0.0
C984 C 0.02791 0.38757 0.71905 0.0
C985 C 0.0302 0.40125 0.64517 0.0
C986 C 0.02669 0.40786 0.72823 0.0
C987 C 0.00988 0.41521 0.74569 0.0
C988 C 0.99399 0.40239 0.75465 0.0
C989 C 0.99584 0.38178 0.74775 0.0
C990 C 0.01272 0.37442 0.72999 0.0
H991 H 0.031 0.40118 0.61616 0.0
H992 H 0.01498 0.39642 0.6533 0.0
H993 H 0.03246 0.41688 0.65421 0.0
H994 H 0.0384 0.4182 0.72055 0.0
H995 H 0.00896 0.43114 0.75088 0.0
H996 H 0.86651 0.8831 0.33094 0.0
H997 H 0.86059 0.85456 0.36982 0.0
H998 H 0.92156 0.83515 0.35488 0.0
H999 H 0.92771 0.86383 0.3166 0.0
H1000 H 0.86531 0.8129 0.35444 0.0
H1001 H 0.91512 0.83757 0.46258 0.0
H1002 H 0.9066 0.85443 0.42884 0.0
H1003 H 0.92621 0.83679 0.41974 0.0
C1004 C 0.87867 0.8728 0.33603 0.0
C1005 C 0.89757 0.87577 0.32064 0.0
C1006 C 0.87526 0.85648 0.35816 0.0
C1007 C 0.89072 0.84292 0.36566 0.0
C1008 C 0.90951 0.84561 0.3499 0.0
H1009 H 0.8885 0.73377 0.49422 0.0
H1010 H 0.90029 0.76259 0.45972 0.0
C1011 C 0.91291 0.86188 0.32763 0.0
C1012 C 0.88697 0.82575 0.38942 0.0
H1013 H 0.89933 0.80608 0.46906 0.0
C1014 C 0.87277 0.8114 0.37947 0.0
C1015 C 0.89687 0.82374 0.42193 0.0
C1016 C 0.91196 0.83899 0.43419 0.0
C1017 C 0.86807 0.79514 0.4012 0.0
C1018 C 0.87751 0.79342 0.43418 0.0
C1019 C 0.89208 0.80749 0.44384 0.0
C1020 C 0.87156 0.77758 0.45934 0.0
C1021 C 0.85307 0.77986 0.38858 0.0
C1022 C 0.85186 0.77701 0.47196 0.0
C1023 C 0.84516 0.76068 0.49146 0.0
C1024 C 0.85809 0.7447 0.49915 0.0
C1025 C 0.87827 0.74597 0.48889 0.0
C1026 C 0.88497 0.76234 0.46903 0.0
H1027 H 0.85149 0.78019 0.35968 0.0
H1028 H 0.85745 0.7645 0.39663 0.0
H1029 H 0.83821 0.78323 0.40018 0.0
H1030 H 0.84139 0.78881 0.46542 0.0
H1031 H 0.82956 0.76017 0.49921 0.0
H1032 H 0.50536 0.58139 0.22601 0.0
H1033 H 0.47535 0.59438 0.19799 0.0
H1034 H 0.49379 0.65474 0.22187 0.0
H1035 H 0.5242 0.64175 0.25018 0.0
H1036 H 0.44448 0.6201 0.22714 0.0
H1037 H 0.48458 0.6536 0.11344 0.0
H1038 H 0.49611 0.63511 0.14132 0.0
H1039 H 0.49296 0.66032 0.15657 0.0
C1040 C 0.50307 0.59745 0.22548 0.0
C1041 C 0.51721 0.61057 0.24017 0.0
C1042 C 0.48586 0.60483 0.2095 0.0
C1043 C 0.48244 0.62549 0.20759 0.0
C1044 C 0.49629 0.63872 0.22279 0.0
H1045 H 0.38683 0.68112 0.08431 0.0
H1046 H 0.4154 0.67644 0.12337 0.0
C1047 C 0.51357 0.6313 0.23906 0.0
C1048 C 0.46446 0.63283 0.18895 0.0
H1049 H 0.44945 0.65434 0.11243 0.0
C1050 C 0.44553 0.6278 0.20225 0.0
C1051 C 0.46591 0.6429 0.15655 0.0
C1052 C 0.48594 0.64826 0.14083 0.0
C1053 C 0.42798 0.63218 0.18363 0.0
C1054 C 0.42946 0.64142 0.15045 0.0
C1055 C 0.44836 0.64716 0.13778 0.0
C1056 C 0.41172 0.64435 0.1277 0.0
C1057 C 0.40804 0.62678 0.19963 0.0
C1058 C 0.40027 0.62784 0.11686 0.0
C1059 C 0.38396 0.63046 0.09446 0.0
C1060 C 0.37891 0.64962 0.08211 0.0
C1061 C 0.39045 0.66613 0.09296 0.0
C1062 C 0.40672 0.6635 0.11545 0.0
H1063 H 0.409 0.62583 0.22857 0.0
H1064 H 0.39635 0.63789 0.19263 0.0
H1065 H 0.40329 0.61189 0.18974 0.0
H1066 H 0.40416 0.61285 0.12522 0.0
H1067 H 0.37562 0.61741 0.08619 0.0
H1068 H 0.62057 0.11597 0.87269 0.0
H1069 H 0.62684 0.14517 0.90953 0.0
H1070 H 0.59031 0.18138 0.84163 0.0
H1071 H 0.58462 0.15254 0.8039 0.0
H1072 H 0.62592 0.19869 0.85473 0.0
H1073 H 0.59171 0.17433 0.97962 0.0
H1074 H 0.60953 0.15665 0.96281 0.0
H1075 H 0.58698 0.16168 0.93871 0.0
C1076 C 0.61384 0.13011 0.86554 0.0
C1077 C 0.60211 0.13179 0.83515 0.0
C1078 C 0.61721 0.14676 0.88697 0.0
C1079 C 0.60877 0.16541 0.8787 0.0
C1080 C 0.59683 0.1671 0.84872 0.0
H1081 H 0.61911 0.27498 1.00583 0.0
H1082 H 0.60541 0.24551 0.97554 0.0
C1083 C 0.59349 0.15049 0.82723 0.0
C1084 C 0.61372 0.1835 0.89962 0.0
H1085 H 0.61375 0.20268 0.98253 0.0
C1086 C 0.62305 0.19962 0.8826 0.0
C1087 C 0.60977 0.18485 0.93593 0.0
C1088 C 0.59876 0.16854 0.9553 0.0
C1089 C 0.62918 0.2167 0.90103 0.0
C1090 C 0.62621 0.21759 0.93762 0.0
C1091 C 0.6162 0.20185 0.95453 0.0
C1092 C 0.63428 0.23439 0.95865 0.0
C1093 C 0.63889 0.23365 0.88118 0.0
C1094 C 0.65501 0.2375 0.96007 0.0
C1095 C 0.66281 0.2542 0.9772 0.0
C1096 C 0.65005 0.26812 0.9935 0.0
C1097 C 0.6293 0.26453 0.99348 0.0
C1098 C 0.62147 0.24773 0.97619 0.0
H1099 H 0.6352 0.23309 0.85289 0.0
H1100 H 0.63415 0.2484 0.89178 0.0
H1101 H 0.6554 0.2325 0.88379 0.0
H1102 H 0.66517 0.22719 0.94724 0.0
H1103 H 0.67888 0.25641 0.97697 0.0
H1104 H 0.28238 0.24438 0.10597 0.0
H1105 H 0.26074 0.26095 0.14939 0.0
H1106 H 0.29422 0.23313 0.23247 0.0
H1107 H 0.3157 0.21676 0.18961 0.0
H1108 H 0.2364 0.24612 0.20108 0.0
H1109 H 0.29639 0.29155 0.26094 0.0
H1110 H 0.29958 0.2788 0.21967 0.0
H1111 H 0.30273 0.26546 0.26018 0.0
C1112 C 0.28499 0.24174 0.13349 0.0
C1113 C 0.30096 0.22951 0.14433 0.0
C1114 C 0.27272 0.2513 0.15828 0.0
C1115 C 0.27624 0.24878 0.19426 0.0
C1116 C 0.29164 0.23591 0.20495 0.0
H1117 H 0.20005 0.25753 0.37207 0.0
H1118 H 0.21995 0.24879 0.32087 0.0
C1119 C 0.30389 0.22649 0.18036 0.0
C1120 C 0.26363 0.25902 0.22097 0.0
H1121 H 0.26655 0.2871 0.29558 0.0
C1122 C 0.24295 0.25532 0.22144 0.0
C1123 C 0.27205 0.2714 0.24722 0.0
C1124 C 0.29387 0.27722 0.2468 0.0
C1125 C 0.23071 0.26268 0.24849 0.0
C1126 C 0.23943 0.27369 0.27625 0.0
C1127 C 0.25989 0.27839 0.27468 0.0
C1128 C 0.22782 0.27934 0.30803 0.0
C1129 C 0.20854 0.25841 0.24718 0.0
C1130 C 0.22638 0.2994 0.31905 0.0
C1131 C 0.21505 0.30446 0.34874 0.0
C1132 C 0.20499 0.28954 0.36787 0.0
C1133 C 0.20715 0.26944 0.35743 0.0
C1134 C 0.21849 0.26441 0.32804 0.0
H1135 H 0.2034 0.25601 0.21989 0.0
H1136 H 0.20533 0.24454 0.26211 0.0
H1137 H 0.19974 0.27086 0.25883 0.0
H1138 H 0.23368 0.31116 0.30428 0.0
H1139 H 0.21365 0.32006 0.3561 0.0
H1140 H 0.50244 0.45531 0.6229 0.0
H1141 H 0.51098 0.47583 0.57229 0.0
H1142 H 0.44828 0.48192 0.54762 0.0
H1143 H 0.43966 0.46153 0.59901 0.0
H1144 H 0.50397 0.46837 0.504 0.0
H1145 H 0.46697 0.53949 0.54328 0.0
H1146 H 0.47059 0.51904 0.57338 0.0
H1147 H 0.4508 0.51803 0.54167 0.0
C1148 C 0.49046 0.46108 0.60678 0.0
C1149 C 0.47038 0.45679 0.61486 0.0
C1150 C 0.49535 0.47281 0.57784 0.0
C1151 C 0.4803 0.48052 0.55614 0.0
C1152 C 0.46016 0.47645 0.56429 0.0
H1153 H 0.51589 0.53425 0.35325 0.0
H1154 H 0.50064 0.51149 0.39626 0.0
C1155 C 0.45523 0.46482 0.59362 0.0
C1156 C 0.48607 0.49242 0.52481 0.0
H1157 H 0.48316 0.53905 0.48855 0.0
C1158 C 0.4993 0.48379 0.50046 0.0
C1159 C 0.48004 0.51256 0.52028 0.0
C1160 C 0.46646 0.52294 0.54613 0.0
C1161 C 0.50716 0.49489 0.4724 0.0
C1162 C 0.50129 0.51509 0.46811 0.0
C1163 C 0.48757 0.52353 0.4918 0.0
C1164 C 0.51061 0.52833 0.44139 0.0
C1165 C 0.52239 0.4852 0.44863 0.0
C1166 C 0.52115 0.54536 0.45236 0.0
C1167 C 0.52972 0.55831 0.42798 0.0
C1168 C 0.52794 0.55462 0.39192 0.0
C1169 C 0.51767 0.53737 0.38083 0.0
C1170 C 0.50895 0.52439 0.40539 0.0
H1171 H 0.52834 0.47104 0.45978 0.0
H1172 H 0.51526 0.48165 0.42321 0.0
H1173 H 0.53513 0.49549 0.44359 0.0
H1174 H 0.52278 0.54864 0.47995 0.0
H1175 H 0.53782 0.57125 0.43745 0.0
H1176 H 0.20528 0.80299 0.68339 0.0
H1177 H 0.22596 0.7849 0.72511 0.0
H1178 H 0.24499 0.74451 0.6436 0.0
H1179 H 0.22396 0.76266 0.60133 0.0
H1180 H 0.22214 0.74341 0.74215 0.0
H1181 H 0.29786 0.76311 0.69144 0.0
H1182 H 0.27578 0.77716 0.67965 0.0
H1183 H 0.28007 0.7529 0.66096 0.0
C1184 C 0.21383 0.79026 0.67422 0.0
C1185 C 0.2128 0.78415 0.63908 0.0
C1186 C 0.22569 0.77995 0.69813 0.0
C1187 C 0.23696 0.76331 0.68756 0.0
C1188 C 0.23651 0.75741 0.65227 0.0
H1189 H 0.29372 0.69004 0.85389 0.0
H1190 H 0.27396 0.69858 0.80182 0.0
C1191 C 0.22456 0.76781 0.62814 0.0
C1192 C 0.24871 0.7522 0.71417 0.0
H1193 H 0.29635 0.74447 0.74344 0.0
C1194 C 0.23838 0.74333 0.74221 0.0
C1195 C 0.26987 0.75224 0.71423 0.0
C1196 C 0.28167 0.76193 0.68514 0.0
C1197 C 0.24863 0.73519 0.77095 0.0
C1198 C 0.26978 0.73578 0.7715 0.0
C1199 C 0.28013 0.74396 0.74284 0.0
C1200 C 0.28136 0.73013 0.80312 0.0
C1201 C 0.23676 0.72702 0.80135 0.0
C1202 C 0.29199 0.74498 0.82112 0.0
C1203 C 0.30314 0.74018 0.85074 0.0
C1204 C 0.3041 0.72035 0.86306 0.0
C1205 C 0.29317 0.70547 0.84531 0.0
C1206 C 0.28194 0.71032 0.8155 0.0
H1207 H 0.22052 0.73039 0.79906 0.0
H1208 H 0.23862 0.71053 0.80249 0.0
H1209 H 0.24234 0.73336 0.82634 0.0
H1210 H 0.29161 0.76039 0.81227 0.0
H1211 H 0.31101 0.75211 0.86405 0.0
H1212 H 1.00241 0.46416 0.85749 0.0
H1213 H 0.0222 0.48356 0.9001 0.0
H1214 H 0.97049 0.48747 0.96748 0.0
H1215 H 0.95112 0.46776 0.9257 0.0
H1216 H 0.0194 0.5203 0.93043 0.0
H1217 H 0.01072 0.46251 0.03236 0.0
H1218 H 1.0039 0.45811 0.9874 0.0
H1219 H 0.98677 0.47055 0.01669 0.0
C1220 C 0.99531 0.46946 0.88121 0.0
C1221 C 0.97535 0.46432 0.8886 0.0
C1222 C 0.0066 0.48041 0.90561 0.0
C1223 C 0.99802 0.48641 0.93758 0.0
C1224 C 0.97768 0.4824 0.94367 0.0
H1225 H 0.02406 0.57795 0.08322 0.0
H1226 H 0.01628 0.55748 0.03271 0.0
C1227 C 0.96656 0.4713 0.91967 0.0
C1228 C 0.01007 0.49663 0.96503 0.0
H1229 H 0.0198 0.49548 0.05264 0.0
C1230 C 0.01975 0.51473 0.95704 0.0
C1231 C 0.01115 0.48912 0.99962 0.0
C1232 C 1.00277 0.46889 0.00943 0.0
C1233 C 0.02924 0.52613 0.98315 0.0
C1234 C 0.02857 0.51954 0.01837 0.0
C1235 C 0.02008 0.50079 0.02585 0.0
C1236 C 0.0349 0.53249 0.04816 0.0
C1237 C 0.03978 0.54518 0.97264 0.0
C1238 C 0.04766 0.52522 0.0745 0.0
C1239 C 0.05178 0.53683 0.10426 0.0
C1240 C 0.0431 0.55589 0.10837 0.0
C1241 C 0.03078 0.56325 0.08145 0.0
C1242 C 0.02659 0.55165 0.05201 0.0
H1243 H 0.04573 0.54406 0.94557 0.0
H1244 H 0.02892 0.55776 0.97315 0.0
H1245 H 0.05233 0.54876 0.99056 0.0
H1246 H 0.05413 0.5104 0.07236 0.0
H1247 H 0.06122 0.53061 0.12449 0.0
H1248 H 0.79251 0.6995 0.67072 0.0
H1249 H 0.77099 0.71629 0.71341 0.0
H1250 H 0.77379 0.77055 0.65233 0.0
H1251 H 0.7947 0.75324 0.6087 0.0
H1252 H 0.78116 0.74612 0.75333 0.0
H1253 H 0.71543 0.76993 0.67541 0.0
H1254 H 0.73373 0.75244 0.65891 0.0
H1255 H 0.73883 0.7789 0.6585 0.0
C1256 C 0.78806 0.71486 0.66607 0.0
C1257 C 0.79506 0.72507 0.63643 0.0
C1258 C 0.77588 0.72451 0.69052 0.0
C1259 C 0.77063 0.74473 0.68622 0.0
C1260 C 0.77719 0.75485 0.65599 0.0
H1261 H 0.72931 0.80808 0.87599 0.0
H1262 H 0.74907 0.79874 0.82474 0.0
C1263 C 0.78914 0.745 0.63107 0.0
C1264 C 0.75955 0.75525 0.71479 0.0
H1265 H 0.71718 0.7819 0.73363 0.0
C1266 C 0.76716 0.75395 0.74896 0.0
C1267 C 0.74125 0.76546 0.70925 0.0
C1268 C 0.7317 0.76664 0.67361 0.0
C1269 C 0.7568 0.76197 0.77774 0.0
C1270 C 0.73859 0.77237 0.77222 0.0
C1271 C 0.73121 0.77411 0.73793 0.0
C1272 C 0.72614 0.77996 0.80186 0.0
C1273 C 0.76506 0.75834 0.81389 0.0
C1274 C 0.70626 0.7735 0.80531 0.0
C1275 C 0.69472 0.77924 0.83411 0.0
C1276 C 0.70277 0.79148 0.86065 0.0
C1277 C 0.72249 0.7986 0.85644 0.0
C1278 C 0.73396 0.79304 0.82722 0.0
H1279 H 0.77599 0.74579 0.81417 0.0
H1280 H 0.77295 0.77199 0.823 0.0
H1281 H 0.7529 0.75485 0.83275 0.0
H1282 H 0.69973 0.76357 0.78603 0.0
H1283 H 0.6795 0.77382 0.83549 0.0
H1284 H 0.72548 0.26735 0.1031 0.0
H1285 H 0.74732 0.25066 0.14599 0.0
H1286 H 0.7151 0.27943 0.22987 0.0
H1287 H 0.69352 0.29599 0.18759 0.0
H1288 H 0.77224 0.26586 0.19873 0.0
H1289 H 0.71155 0.22027 0.25653 0.0
H1290 H 0.70895 0.23293 0.21508 0.0
H1291 H 0.7053 0.24639 0.25538 0.0
C1292 C 0.72324 0.27021 0.13068 0.0
C1293 C 0.70756 0.28271 0.14198 0.0
C1294 C 0.73561 0.2606 0.15514 0.0
C1295 C 0.73244 0.26333 0.1912 0.0
C1296 C 0.71741 0.27654 0.20229 0.0
H1297 H 0.805 0.25545 0.37171 0.0
H1298 H 0.78622 0.26358 0.31911 0.0
C1299 C 0.7051 0.28605 0.17804 0.0
C1300 C 0.74484 0.2528 0.21768 0.0
H1301 H 0.74104 0.22456 0.29191 0.0
C1302 C 0.76549 0.25656 0.21877 0.0
C1303 C 0.73613 0.24031 0.2435 0.0
C1304 C 0.7143 0.23455 0.2424 0.0
C1305 C 0.77739 0.24923 0.24621 0.0
C1306 C 0.76833 0.23815 0.27359 0.0
C1307 C 0.74795 0.2333 0.27127 0.0
C1308 C 0.77942 0.23281 0.30597 0.0
C1309 C 0.79953 0.25369 0.24585 0.0
C1310 C 0.78109 0.21282 0.31715 0.0
C1311 C 0.79181 0.2081 0.3476 0.0
C1312 C 0.80098 0.22332 0.36735 0.0
C1313 C 0.79858 0.24333 0.35666 0.0
C1314 C 0.78789 0.24801 0.32647 0.0
H1315 H 0.80508 0.25618 0.2188 0.0
H1316 H 0.80237 0.26757 0.26102 0.0
H1317 H 0.80824 0.24131 0.25781 0.0
H1318 H 0.77443 0.20086 0.30198 0.0
H1319 H 0.79341 0.19256 0.3551 0.0
H1320 H 0.95661 0.93688 0.08841 0.0
H1321 H 0.96573 0.95005 0.03023 0.0
H1322 H 1.00242 0.99517 0.07898 0.0
H1323 H 0.99328 0.98247 0.13639 0.0
H1324 H 0.96313 0.99217 1.00174 0.0
H1325 H 0.04072 0.96349 0.01157 0.0
H1326 H 0.0204 0.95376 0.0378 0.0
H1327 H 0.03253 0.9768 0.04983 0.0
C1328 C 0.96642 0.94975 0.08659 0.0
C1329 C 0.97453 0.95837 0.11703 0.0
C1330 C 0.97167 0.95719 0.05341 0.0
C1331 C 0.98512 0.9733 0.05033 0.0
C1332 C 0.99241 0.98244 0.08071 0.0
H1333 H 0.04311 0.05869 0.93039 0.0
H1334 H 0.02917 0.03427 0.97108 0.0
C1335 C 0.9872 0.97509 0.11358 0.0
C1336 C 0.99211 0.98074 0.0158 0.0
H1337 H 0.0353 0.99036 0.9709 0.0
C1338 C 0.97879 0.99135 0.99437 0.0
C1339 C 0.01255 0.97959 1.00623 0.0
C1340 C 0.02737 0.96763 0.02738 0.0
C1341 C 0.9857 1.0021 0.96504 0.0
C1342 C 0.00639 1.00206 0.95697 0.0
C1343 C 0.01945 0.9904 0.97715 0.0
C1344 C 0.01517 0.01617 0.93112 0.0
C1345 C 0.97113 0.01452 0.94424 0.0
C1346 C 0.01225 0.01391 0.89495 0.0
C1347 C 0.02034 0.02793 0.87144 0.0
C1348 C 0.03126 0.04448 0.88386 0.0
C1349 C 0.03449 0.04632 0.92003 0.0
C1350 C 0.02661 0.03231 0.94332 0.0
H1351 H 0.95575 0.01401 0.95531 0.0
H1352 H 0.9762 0.03036 0.94342 0.0
H1353 H 0.97061 0.00894 0.91693 0.0
H1354 H 1.00363 1.00142 0.88498 0.0
H1355 H 0.01758 0.02618 0.84373 0.0
H1356 H 0.47209 0.94446 0.43231 0.0
H1357 H 0.49214 0.96379 0.47321 0.0
H1358 H 0.52003 0.9949 0.38715 0.0
H1359 H 0.49913 0.97589 0.34576 0.0
H1360 H 0.53126 0.96961 0.48563 0.0
H1361 H 0.49598 0.04084 0.44198 0.0
H1362 H 0.48708 0.01672 0.42764 0.0
H1363 H 0.50953 0.02715 0.40917 0.0
C1364 C 0.48253 0.95538 0.42199 0.0
C1365 C 0.48369 0.95898 0.38583 0.0
C1366 C 0.49413 0.96633 0.44544 0.0
C1367 C 0.5073 0.98116 0.43343 0.0
C1368 C 0.50961 0.98387 0.39713 0.0
H1369 H 0.57205 0.04586 0.60233 0.0
H1370 H 0.56645 0.02535 0.5499 0.0
C1371 C 0.49786 0.97286 0.37347 0.0
C1372 C 0.51722 0.99444 0.45952 0.0
H1373 H 0.51676 0.04234 0.49099 0.0
C1374 C 0.52837 0.98558 0.48656 0.0
C1375 C 0.51326 0.01526 0.46093 0.0
C1376 C 0.5007 0.02561 0.4336 0.0
C1377 C 0.53479 0.99672 0.5157 0.0
C1378 C 0.53038 0.01743 0.51749 0.0
C1379 C 0.52013 0.02647 0.48961 0.0
C1380 C 0.53431 0.02962 0.5494 0.0
C1381 C 0.54517 0.98595 0.54522 0.0
C1382 C 0.51824 0.03909 0.56635 0.0
C1383 C 0.52143 0.05091 0.59592 0.0
C1384 C 0.5408 0.05355 0.60946 0.0
C1385 C 0.55693 0.04389 0.59279 0.0
C1386 C 0.55374 0.03216 0.56284 0.0
H1387 H 0.54356 0.96943 0.54312 0.0
H1388 H 0.56138 0.98955 0.54457 0.0
H1389 H 0.53911 0.99081 0.5709 0.0
H1390 H 0.5031 0.0373 0.55669 0.0
H1391 H 0.50867 0.05792 0.60838 0.0
H1392 H 0.11723 0.07277 0.88119 0.0
H1393 H 0.14603 0.08789 0.91012 0.0
H1394 H 0.14365 0.13783 0.83887 0.0
H1395 H 0.11459 0.12285 0.80977 0.0
H1396 H 0.18311 0.09753 0.88031 0.0
H1397 H 0.14584 0.16496 0.93541 0.0
H1398 H 0.13197 0.14365 0.91935 0.0
H1399 H 0.14261 0.16133 0.88922 0.0
C1400 C 0.12272 0.08703 0.87168 0.0
C1401 C 0.11353 0.09662 0.84317 0.0
C1402 C 0.13922 0.09564 0.88829 0.0
C1403 C 0.14686 0.11409 0.87695 0.0
C1404 C 0.13778 0.12375 0.84848 0.0
H1405 H 0.2484 0.18579 0.94432 0.0
H1406 H 0.21845 0.17267 0.9158 0.0
C1407 C 0.12123 0.11512 0.83177 0.0
C1408 C 0.16473 0.12276 0.89439 0.0
H1409 H 0.18097 0.16275 0.94234 0.0
C1410 C 0.18264 0.11177 0.89394 0.0
C1411 C 0.16409 0.14136 0.91207 0.0
C1412 C 0.14508 0.15349 0.9144 0.0
C1413 C 0.2 0.11896 0.91039 0.0
C1414 C 0.19932 0.13746 0.92842 0.0
C1415 C 0.18145 0.14854 0.92863 0.0
C1416 C 0.21708 0.14566 0.94689 0.0
C1417 C 0.21902 0.10686 0.90767 0.0
C1418 C 0.22606 0.13505 0.9744 0.0
C1419 C 0.24318 0.14255 0.9909 0.0
C1420 C 0.25157 0.16093 0.98045 0.0
C1421 C 0.24222 0.17174 0.95342 0.0
C1422 C 0.22514 0.1642 0.93691 0.0
H1423 H 0.21846 0.09604 0.88561 0.0
H1424 H 0.23224 0.11674 0.90407 0.0
H1425 H 0.22112 0.09821 0.93214 0.0
H1426 H 0.21983 0.12092 0.98308 0.0
H1427 H 0.24983 0.13398 0.01191 0.0
H1428 H 0.57926 0.48653 0.2595 0.0
H1429 H 0.59109 0.45623 0.23014 0.0
H1430 H 0.6354 0.49091 0.17477 0.0
H1431 H 0.62304 0.52139 0.20256 0.0
H1432 H 0.61591 0.46556 0.13156 0.0
H1433 H 0.64128 0.42445 0.24935 0.0
H1434 H 0.61553 0.43203 0.25132 0.0
H1435 H 0.63493 0.4507 0.25035 0.0
C1436 C 0.59151 0.48775 0.24104 0.0
C1437 C 0.60024 0.50647 0.23362 0.0
C1438 C 0.5984 0.47034 0.22455 0.0
C1439 C 0.61434 0.47122 0.20061 0.0
C1440 C 0.62316 0.48983 0.1933 0.0
H1441 H 0.68745 0.37453 0.12412 0.0
H1442 H 0.6729 0.40368 0.15282 0.0
C1443 C 0.61621 0.50725 0.20958 0.0
C1444 C 0.62151 0.4529 0.18236 0.0
H1445 H 0.64119 0.40637 0.19601 0.0
C1446 C 0.62145 0.45261 0.14564 0.0
C1447 C 0.6289 0.43608 0.20074 0.0
C1448 C 0.63037 0.43583 0.2401 0.0
C1449 C 0.62863 0.43602 0.1268 0.0
C1450 C 0.63565 0.41904 0.14519 0.0
C1451 C 0.63563 0.4193 0.18191 0.0
C1452 C 0.6442 0.4013 0.12702 0.0
C1453 C 0.62923 0.43711 0.08741 0.0
C1454 C 0.63289 0.39012 0.10296 0.0
C1455 C 0.64127 0.37344 0.08615 0.0
C1456 C 0.66103 0.3675 0.09347 0.0
C1457 C 0.67219 0.37863 0.11783 0.0
C1458 C 0.66388 0.39532 0.13436 0.0
H1459 H 0.62818 0.4528 0.07791 0.0
H1460 H 0.64322 0.43036 0.077 0.0
H1461 H 0.61635 0.42867 0.07658 0.0
H1462 H 0.61753 0.39417 0.09742 0.0
H1463 H 0.63223 0.3651 0.06771 0.0
H1464 H 0.27394 0.85704 0.52146 0.0
H1465 H 0.30346 0.87066 0.49072 0.0
H1466 H 0.27424 0.86082 0.39181 0.0
H1467 H 0.24503 0.84722 0.42209 0.0
H1468 H 0.32587 0.84768 0.43418 0.0
H1469 H 0.29496 0.92061 0.39017 0.0
H1470 H 0.28506 0.90713 0.42735 0.0
H1471 H 0.27891 0.8993 0.38377 0.0
C1472 C 0.2738 0.85807 0.49321 0.0
C1473 C 0.25729 0.85101 0.4741 0.0
C1474 C 0.29063 0.86575 0.47572 0.0
C1475 C 0.29093 0.86684 0.43903 0.0
C1476 C 0.27424 0.86028 0.42012 0.0
H1477 H 0.36635 0.89984 0.26636 0.0
H1478 H 0.33961 0.88966 0.3063 0.0
C1479 C 0.25762 0.85243 0.43744 0.0
C1480 C 0.30893 0.87378 0.41983 0.0
H1481 H 0.32489 0.90956 0.36252 0.0
C1482 C 0.32585 0.86136 0.4189 0.0
C1483 C 0.30869 0.8915 0.39967 0.0
C1484 C 0.29101 0.90554 0.40036 0.0
C1485 C 0.34227 0.86577 0.39716 0.0
C1486 C 0.34191 0.88336 0.37646 0.0
C1487 C 0.32516 0.89604 0.37821 0.0
C1488 C 0.3585 0.88871 0.35217 0.0
C1489 C 0.35941 0.85108 0.3954 0.0
C1490 C 0.37806 0.89152 0.36457 0.0
C1491 C 0.39344 0.89712 0.34171 0.0
C1492 C 0.38952 0.90038 0.30602 0.0
C1493 C 0.36993 0.89747 0.29364 0.0
C1494 C 0.35459 0.8917 0.31649 0.0
H1495 H 0.35497 0.83604 0.40509 0.0
H1496 H 0.3651 0.84952 0.36825 0.0
H1497 H 0.37184 0.85656 0.41207 0.0
H1498 H 0.38139 0.88974 0.39208 0.0
H1499 H 0.40832 0.89928 0.35223 0.0
H1500 H 0.84492 0.61124 0.52162 0.0
H1501 H 0.85526 0.58402 0.56038 0.0
H1502 H 0.87225 0.62707 0.63894 0.0
H1503 H 0.86175 0.65436 0.60061 0.0
H1504 H 0.89245 0.5764 0.58886 0.0
H1505 H 0.8363 0.5886 0.69373 0.0
H1506 H 0.83418 0.59989 0.65103 0.0
H1507 H 0.85071 0.61048 0.68312 0.0
C1508 C 0.85082 0.61495 0.54716 0.0
C1509 C 0.85241 0.63502 0.55801 0.0
C1510 C 0.85671 0.59935 0.5693 0.0
C1511 C 0.86419 0.60347 0.60282 0.0
C1512 C 0.86609 0.62349 0.61353 0.0
H1513 H 0.93548 0.52388 0.73061 0.0
H1514 H 0.92185 0.55208 0.69759 0.0
C1515 C 0.86022 0.6391 0.59142 0.0
C1516 C 0.87063 0.58685 0.62609 0.0
H1517 H 0.86263 0.56563 0.70627 0.0
C1518 C 0.88588 0.57401 0.61447 0.0
C1519 C 0.86186 0.58357 0.65934 0.0
C1520 C 0.84472 0.59623 0.6725 0.0
C1521 C 0.8929 0.55827 0.63545 0.0
C1522 C 0.88468 0.55545 0.66923 0.0
C1523 C 0.86909 0.56797 0.68056 0.0
C1524 C 0.89215 0.53949 0.69289 0.0
C1525 C 0.90895 0.54462 0.62108 0.0
C1526 C 0.87968 0.52352 0.70281 0.0
C1527 C 0.88743 0.50736 0.72187 0.0
C1528 C 0.90777 0.50694 0.73131 0.0
C1529 C 0.91984 0.52358 0.72318 0.0
C1530 C 0.9121 0.53969 0.70425 0.0
H1531 H 0.91002 0.5456 0.59215 0.0
H1532 H 0.92365 0.54905 0.63212 0.0
H1533 H 0.90604 0.5288 0.62845 0.0
H1534 H 0.86419 0.52314 0.6945 0.0
H1535 H 0.87778 0.49473 0.72756 0.0
H1536 H 0.76308 0.86659 0.01778 0.0
H1537 H 0.79528 0.87602 0.04251 0.0
H1538 H 0.79898 0.81904 0.09496 0.0
H1539 H 0.76668 0.80921 0.06967 0.0
H1540 H 0.80771 0.8521 0.13817 0.0
H1541 H 0.85118 0.85617 0.01494 0.0
H1542 H 0.8283 0.87023 0.01342 0.0
H1543 H 0.82738 0.84343 0.018 0.0
C1544 C 0.77086 0.85581 0.03394 0.0
C1545 C 0.76233 0.83696 0.0412 0.0
C1546 C 0.78931 0.86128 0.04816 0.0
C1547 C 0.79978 0.8481 0.07 0.0
C1548 C 0.79125 0.82939 0.07788 0.0
H1549 H 0.91527 0.87075 0.17447 0.0
H1550 H 0.88774 0.85357 0.14426 0.0
C1551 C 0.77274 0.82384 0.06353 0.0
C1552 C 0.81915 0.8544 0.08567 0.0
H1553 H 0.86552 0.87265 0.06476 0.0
C1554 C 0.82046 0.85627 0.12216 0.0
C1555 C 0.83583 0.8598 0.06478 0.0
C1556 C 0.83573 0.85713 0.02563 0.0
C1557 C 0.83766 0.86425 0.13811 0.0
C1558 C 0.85392 0.87045 0.11709 0.0
C1559 C 0.85295 0.86795 0.08076 0.0
C1560 C 0.87149 0.88072 0.13248 0.0
C1561 C 0.83817 0.86672 0.17728 0.0
C1562 C 0.87162 0.90166 0.13508 0.0
C1563 C 0.88725 0.91149 0.15224 0.0
C1564 C 0.90312 0.90056 0.16705 0.0
C1565 C 0.90335 0.8796 0.16316 0.0
C1566 C 0.88762 0.86976 0.14606 0.0
H1567 H 0.8245 0.8607 0.19011 0.0
H1568 H 0.85146 0.85891 0.18808 0.0
H1569 H 0.83962 0.88284 0.18392 0.0
H1570 H 0.85929 0.91035 0.12473 0.0
H1571 H 0.88659 0.92763 0.15481 0.0
H1572 H 0.44448 0.50213 0.83153 0.0
H1573 H 0.43629 0.53363 0.86122 0.0
H1574 H 0.40402 0.55351 0.77015 0.0
H1575 H 0.41266 0.52242 0.73996 0.0
H1576 H 0.42574 0.58431 0.80217 0.0
H1577 H 0.3794 0.54238 0.89832 0.0
H1578 H 0.40519 0.5349 0.89592 0.0
H1579 H 0.38905 0.53093 0.85904 0.0
C1580 C 0.43604 0.51339 0.81753 0.0
C1581 C 0.42898 0.5096 0.78352 0.0
C1582 C 0.43118 0.53132 0.83468 0.0
C1583 C 0.41916 0.54576 0.8182 0.0
C1584 C 0.41316 0.54253 0.78352 0.0
H1585 H 0.33716 0.6312 0.90363 0.0
H1586 H 0.35496 0.60429 0.87365 0.0
C1587 C 0.418 0.52467 0.76638 0.0
C1588 C 0.41161 0.56359 0.83753 0.0
H1589 H 0.38081 0.57735 0.9048 0.0
C1590 C 0.41605 0.58283 0.8248 0.0
C1591 C 0.39874 0.56162 0.86678 0.0
C1592 C 0.39262 0.54137 0.88075 0.0
C1593 C 0.40781 0.60011 0.84029 0.0
C1594 C 0.39494 0.59809 0.8695 0.0
C1595 C 0.39076 0.57888 0.88251 0.0
C1596 C 0.38453 0.61549 0.88573 0.0
C1597 C 0.41232 0.6203 0.8245 0.0
C1598 C 0.39523 0.63096 0.90225 0.0
C1599 C 0.38503 0.64652 0.91939 0.0
C1600 C 0.36398 0.64678 0.92048 0.0
C1601 C 0.35338 0.63148 0.90331 0.0
C1602 C 0.36353 0.61603 0.8862 0.0
H1603 H 0.41903 0.61897 0.79801 0.0
H1604 H 0.39851 0.6295 0.82272 0.0
H1605 H 0.4231 0.62837 0.84146 0.0
H1606 H 0.41143 0.6307 0.90274 0.0
H1607 H 0.39362 0.65799 0.93262 0.0
H1608 H 0.75326 0.19791 0.58652 0.0
H1609 H 0.72179 0.18949 0.61617 0.0
H1610 H 0.70192 0.15771 0.52444 0.0
H1611 H 0.73287 0.1667 0.49426 0.0
H1612 H 0.6711 0.17811 0.55628 0.0
H1613 H 0.71351 0.13298 0.65317 0.0
H1614 H 0.72034 0.15897 0.65132 0.0
H1615 H 0.72502 0.14304 0.6143 0.0
C1616 C 0.74199 0.18955 0.57237 0.0
C1617 C 0.74576 0.1827 0.53819 0.0
C1618 C 0.72409 0.18453 0.58951 0.0
C1619 C 0.70969 0.17251 0.57286 0.0
C1620 C 0.71287 0.16682 0.53798 0.0
H1621 H 0.62601 0.08889 0.65936 0.0
H1622 H 0.65286 0.10707 0.62993 0.0
C1623 C 0.73067 0.17186 0.52084 0.0
C1624 C 0.69195 0.16466 0.59212 0.0
H1625 H 0.67851 0.13383 0.65945 0.0
C1626 C 0.67269 0.16855 0.57902 0.0
C1627 C 0.69404 0.15194 0.62149 0.0
C1628 C 0.71432 0.14629 0.6358 0.0
C1629 C 0.65553 0.15988 0.5942 0.0
C1630 C 0.65766 0.14721 0.6236 0.0
C1631 C 0.67688 0.14361 0.63702 0.0
C1632 C 0.6404 0.13647 0.6397 0.0
C1633 C 0.63538 0.16373 0.57779 0.0
C1634 C 0.62427 0.14689 0.65479 0.0
C1635 C 0.60872 0.13646 0.67151 0.0
C1636 C 0.60916 0.11543 0.67372 0.0
C1637 C 0.62519 0.10508 0.65815 0.0
C1638 C 0.6406 0.11547 0.64136 0.0
H1639 H 0.63681 0.16991 0.55094 0.0
H1640 H 0.62639 0.14976 0.57661 0.0
H1641 H 0.62706 0.17477 0.5939 0.0
H1642 H 0.62394 0.1631 0.65445 0.0
H1643 H 0.59668 0.14488 0.68353 0.0
H1644 H 0.05429 0.48835 0.28028 0.0
H1645 H 0.06126 0.45697 0.31177 0.0
H1646 H 0.11989 0.47904 0.33875 0.0
H1647 H 0.11294 0.51029 0.30843 0.0
H1648 H 0.09251 0.42897 0.2998 0.0
H1649 H 0.09783 0.46077 0.43293 0.0
H1650 H 0.08643 0.47418 0.39714 0.0
H1651 H 0.11322 0.47407 0.40228 0.0
C1652 C 0.06855 0.48656 0.2933 0.0
C1653 C 0.08308 0.50182 0.29166 0.0
C1654 C 0.07256 0.4686 0.31112 0.0
C1655 C 0.09101 0.46575 0.32803 0.0
C1656 C 0.10542 0.48099 0.32646 0.0
H1657 H 0.16941 0.38115 0.41481 0.0
H1658 H 0.15094 0.40793 0.38584 0.0
C1659 C 0.10149 0.4988 0.3087 0.0
C1660 C 0.09581 0.44672 0.34645 0.0
H1661 H 0.11415 0.42896 0.42379 0.0
C1662 C 0.0968 0.42884 0.32712 0.0
C1663 C 0.10134 0.44652 0.38216 0.0
C1664 C 0.09946 0.46488 0.40493 0.0
C1665 C 0.10439 0.41111 0.34203 0.0
C1666 C 0.11107 0.41132 0.37703 0.0
C1667 C 0.10912 0.42889 0.39685 0.0
C1668 C 0.12193 0.39414 0.39261 0.0
C1669 C 0.10623 0.39251 0.31993 0.0
C1670 C 0.11171 0.37738 0.40579 0.0
C1671 C 0.12226 0.36195 0.42259 0.0
C1672 C 0.14319 0.3631 0.42638 0.0
C1673 C 0.15333 0.37974 0.41235 0.0
C1674 C 0.1428 0.3951 0.39579 0.0
H1675 H 0.10049 0.39479 0.29299 0.0
H1676 H 0.12217 0.38786 0.31843 0.0
H1677 H 0.09776 0.38008 0.3323 0.0
H1678 H 0.09556 0.37644 0.40373 0.0
H1679 H 0.11402 0.34938 0.43322 0.0
H1680 H 0.61371 0.57531 0.38924 0.0
H1681 H 0.64292 0.58834 0.41971 0.0
H1682 H 0.64622 0.63757 0.34708 0.0
H1683 H 0.6167 0.62464 0.31624 0.0
H1684 H 0.68114 0.59425 0.39127 0.0
H1685 H 0.6492 0.66493 0.44411 0.0
H1686 H 0.63375 0.64473 0.42804 0.0
H1687 H 0.64606 0.66127 0.39788 0.0
C1688 C 0.62052 0.58898 0.37971 0.0
C1689 C 0.61282 0.59893 0.35022 0.0
C1690 C 0.63725 0.5964 0.39724 0.0
C1691 C 0.64663 0.61401 0.38591 0.0
C1692 C 0.63899 0.62412 0.35661 0.0
H1693 H 0.76529 0.65692 0.42824 0.0
H1694 H 0.73443 0.64319 0.40385 0.0
C1695 C 0.62219 0.61666 0.33892 0.0
C1696 C 0.66491 0.62115 0.40406 0.0
H1697 H 0.68419 0.66006 0.45131 0.0
C1698 C 0.68178 0.60861 0.40449 0.0
C1699 C 0.66562 0.63976 0.4217 0.0
C1700 C 0.64766 0.65343 0.42329 0.0
C1701 C 0.6995 0.61439 0.42139 0.0
C1702 C 0.70041 0.63324 0.43813 0.0
C1703 C 0.68342 0.64561 0.43841 0.0
C1704 C 0.71926 0.64083 0.45365 0.0
C1705 C 0.71714 0.60029 0.42127 0.0
C1706 C 0.72094 0.64406 0.48982 0.0
C1707 C 0.73868 0.65187 0.50394 0.0
C1708 C 0.75479 0.65687 0.48193 0.0
C1709 C 0.75306 0.65335 0.44581 0.0
C1710 C 0.73549 0.64542 0.43184 0.0
H1711 H 0.71262 0.58472 0.41473 0.0
H1712 H 0.72815 0.60534 0.40138 0.0
H1713 H 0.72471 0.60027 0.44709 0.0
H1714 H 0.70852 0.64065 0.50705 0.0
H1715 H 0.73957 0.65457 0.53181 0.0
H1716 H 0.08437 0.9843 0.74264 0.0
H1717 H 0.09711 0.95582 0.70901 0.0
H1718 H 0.13953 0.99446 0.65744 0.0
H1719 H 0.12652 0.02316 0.68996 0.0
H1720 H 0.09845 0.95441 0.63124 0.0
H1721 H 0.17271 0.94494 0.69473 0.0
H1722 H 0.15205 0.95753 0.71597 0.0
H1723 H 0.16592 0.97001 0.68221 0.0
C1724 C 0.0964 0.9868 0.72415 0.0
C1725 C 0.10438 0.00612 0.71912 0.0
C1726 C 0.10372 0.97046 0.70508 0.0
C1727 C 0.11933 0.97303 0.68094 0.0
C1728 C 0.12765 0.99213 0.67633 0.0
H1729 H 0.15982 0.89722 0.51 0.0
H1730 H 0.14796 0.92494 0.54664 0.0
C1731 C 0.12025 0.00851 0.69516 0.0
C1732 C 0.12629 0.95593 0.65935 0.0
H1733 H 0.16636 0.92528 0.64442 0.0
C1734 C 0.11327 0.948 0.63412 0.0
C1735 C 0.1456 0.94759 0.66334 0.0
C1736 C 0.15991 0.95529 0.69066 0.0
C1737 C 0.1192 0.93209 0.61239 0.0
C1738 C 0.13861 0.92395 0.61601 0.0
C1739 C 0.15152 0.93167 0.64159 0.0
C1740 C 0.14566 0.90719 0.59374 0.0
C1741 C 0.10464 0.92393 0.58586 0.0
C1742 C 0.14839 0.8881 0.60819 0.0
C1743 C 0.15502 0.87222 0.58732 0.0
C1744 C 0.1593 0.87519 0.55166 0.0
C1745 C 0.15666 0.89441 0.53733 0.0
C1746 C 0.14984 0.91025 0.55819 0.0
H1747 H 0.08922 0.92969 0.59008 0.0
H1748 H 0.10958 0.92835 0.55925 0.0
H1749 H 0.10433 0.90731 0.58689 0.0
H1750 H 0.14527 0.88547 0.63561 0.0
H1751 H 0.15699 0.85765 0.59928 0.0
H1752 H 0.77305 0.33702 1.00249 0.0
H1753 H 0.80209 0.34855 0.96867 0.0
H1754 H 0.76307 0.38241 0.90133 0.0
H1755 H 0.73401 0.37081 0.93464 0.0
H1756 H 0.79205 0.35594 0.86666 0.0
H1757 H 0.82668 0.40643 0.96523 0.0
H1758 H 0.81985 0.38174 0.97985 0.0
H1759 H 0.80067 0.39909 0.96725 0.0
C1760 C 0.77068 0.34701 0.9806 0.0
C1761 C 0.75121 0.3531 0.97143 0.0
C1762 C 0.78728 0.35367 0.96144 0.0
C1763 C 0.78473 0.36647 0.93269 0.0
C1764 C 0.76537 0.37264 0.92357 0.0
H1765 H 0.8602 0.41702 0.76986 0.0
H1766 H 0.83245 0.40496 0.80585 0.0
C1767 C 0.74879 0.36612 0.94282 0.0
C1768 C 0.80212 0.37282 0.91119 0.0
H1769 H 0.84443 0.40152 0.91254 0.0
C1770 C 0.80351 0.36592 0.87662 0.0
C1771 C 0.8171 0.38571 0.92438 0.0
C1772 C 0.81606 0.39384 0.96113 0.0
C1773 C 0.81958 0.37144 0.85491 0.0
C1774 C 0.8344 0.38467 0.86784 0.0
C1775 C 0.83307 0.39142 0.90258 0.0
C1776 C 0.85129 0.39185 0.84572 0.0
C1777 C 0.82074 0.36266 0.8186 0.0
C1778 C 0.87117 0.389 0.85652 0.0
C1779 C 0.88709 0.3961 0.83617 0.0
C1780 C 0.88348 0.40625 0.80458 0.0
C1781 C 0.86355 0.40911 0.79385 0.0
C1782 C 0.84764 0.40211 0.81433 0.0
H1783 H 0.81206 0.34851 0.8166 0.0
H1784 H 0.81427 0.37346 0.7997 0.0
H1785 H 0.83647 0.35961 0.81087 0.0
H1786 H 0.87438 0.38121 0.8807 0.0
H1787 H 0.90223 0.39363 0.84526 0.0
H1788 H 0.39639 0.01358 0.26953 0.0
H1789 H 0.38182 0.0441 0.24413 0.0
H1790 H 0.39514 0.02219 0.14065 0.0
H1791 H 0.40954 0.99176 0.16568 0.0
H1792 H 0.40326 0.07183 0.19653 0.0
H1793 H 0.33465 0.03872 0.13829 0.0
H1794 H 0.34839 0.0267 0.17308 0.0
H1795 H 0.3576 0.02566 0.12899 0.0
C1796 C 0.39592 0.01518 0.24137 0.0
C1797 C 0.40412 1.00032 0.21958 0.0
C1798 C 0.38774 0.03263 0.22693 0.0
C1799 C 0.38734 0.03531 0.19053 0.0
C1800 C 0.39516 0.02033 0.16878 0.0
H1801 H 0.37107 0.14262 0.06384 0.0
H1802 H 0.38426 0.11228 0.09182 0.0
C1803 C 0.40347 1.00302 0.18314 0.0
C1804 C 0.37941 0.05402 0.17505 0.0
H1805 H 0.34251 0.0721 0.12212 0.0
C1806 C 0.38993 0.07195 0.18039 0.0
C1807 C 0.362 0.05408 0.1541 0.0
C1808 C 0.34986 0.03532 0.14839 0.0
C1809 C 0.38365 0.08994 0.16481 0.0
C1810 C 0.36649 0.0899 0.14322 0.0
C1811 C 0.35579 0.07202 0.13839 0.0
C1812 C 0.3589 0.10841 0.12647 0.0
C1813 C 0.39524 0.1089 0.17184 0.0
C1814 C 0.34023 0.11609 0.13639 0.0
C1815 C 0.33269 0.13333 0.12058 0.0
C1816 C 0.34361 0.1432 0.09421 0.0
C1817 C 0.36232 0.13541 0.08412 0.0
C1818 C 0.36991 0.11815 0.10017 0.0
H1819 H 0.40569 0.1072 0.1942 0.0
H1820 H 0.40413 0.11285 0.14831 0.0
H1821 H 0.38489 0.12153 0.1774 0.0
H1822 H 0.33148 0.10875 0.15654 0.0
H1823 H 0.31822 0.13885 0.12899 0.0
H1824 H 0.27299 0.34566 0.4911 0.0
H1825 H 0.30465 0.35319 0.51996 0.0
H1826 H 0.28568 0.31962 0.61039 0.0
H1827 H 0.25359 0.31254 0.58201 0.0
H1828 H 0.29842 0.35661 0.62779 0.0
H1829 H 0.35485 0.32178 0.54113 0.0
H1830 H 0.33803 0.33768 0.51743 0.0
H1831 H 0.32856 0.3156 0.53879 0.0
C1832 C 0.27561 0.33967 0.51699 0.0
C1833 C 0.26064 0.32861 0.53433 0.0
C1834 C 0.29387 0.34379 0.53332 0.0
C1835 C 0.29772 0.3368 0.56724 0.0
C1836 C 0.28313 0.32507 0.58411 0.0
H1837 H 0.41023 0.36379 0.67936 0.0
H1838 H 0.38304 0.34543 0.65018 0.0
C1839 C 0.26483 0.32092 0.56776 0.0
C1840 C 0.31595 0.34357 0.5863 0.0
H1841 H 0.36686 0.34783 0.57956 0.0
C1842 C 0.31339 0.3544 0.61746 0.0
C1843 C 0.33556 0.34058 0.57313 0.0
C1844 C 0.33946 0.32809 0.54097 0.0
C1845 C 0.32973 0.36308 0.63486 0.0
C1846 C 0.34918 0.36116 0.6205 0.0
C1847 C 0.35192 0.34953 0.59029 0.0
C1848 C 0.36654 0.37203 0.63569 0.0
C1849 C 0.326 0.37445 0.66834 0.0
C1850 C 0.36659 0.39303 0.63623 0.0
C1851 C 0.38203 0.40349 0.65271 0.0
C1852 C 0.39785 0.39319 0.66893 0.0
C1853 C 0.39826 0.37215 0.6671 0.0
C1854 C 0.38273 0.36165 0.6505 0.0
H1855 H 0.31165 0.36996 0.68079 0.0
H1856 H 0.33834 0.37203 0.6873 0.0
H1857 H 0.32518 0.39071 0.66249 0.0
H1858 H 0.35445 0.40136 0.62441 0.0
H1859 H 0.38129 0.41969 0.65341 0.0
H1860 H 0.83473 0.13318 0.41016 0.0
H1861 H 0.85261 0.10628 0.38056 0.0
H1862 H 0.90871 0.13623 0.39999 0.0
H1863 H 0.89081 0.1632 0.43061 0.0
H1864 H 0.87692 0.10551 0.32355 0.0
H1865 H 0.91846 0.08106 0.44186 0.0
H1866 H 0.89798 0.09863 0.4439 0.0
H1867 H 0.92225 0.1067 0.42931 0.0
C1868 C 0.85087 0.13417 0.40801 0.0
C1869 C 0.86137 0.15028 0.42296 0.0
C1870 C 0.86108 0.11875 0.39101 0.0
C1871 C 0.88203 0.11903 0.38853 0.0
C1872 C 0.89257 0.13548 0.40223 0.0
H1873 H 0.94011 0.02719 0.25734 0.0
H1874 H 0.93046 0.05964 0.2821 0.0
C1875 C 0.88232 0.15096 0.41945 0.0
C1876 C 0.89254 0.10174 0.37224 0.0
H1877 H 0.9241 0.0628 0.39011 0.0
C1878 C 0.88739 0.09627 0.33797 0.0
C1879 C 0.906 0.08955 0.39127 0.0
C1880 C 0.91142 0.09411 0.42872 0.0
C1881 C 0.89492 0.07873 0.32249 0.0
C1882 C 0.90839 0.06653 0.3415 0.0
C1883 C 0.9139 0.07223 0.37549 0.0
C1884 C 0.91576 0.04708 0.32755 0.0
C1885 C 0.88761 0.07296 0.28655 0.0
C1886 C 0.91147 0.02926 0.34553 0.0
C1887 C 0.91714 0.01073 0.33163 0.0
C1888 C 0.92723 0.00962 0.29938 0.0
C1889 C 0.93208 0.02753 0.28195 0.0
C1890 C 0.92653 0.04608 0.29603 0.0
H1891 H 0.87382 0.08124 0.27921 0.0
H1892 H 0.89936 0.07657 0.26699 0.0
H1893 H 0.88446 0.05665 0.28505 0.0
H1894 H 0.9032 0.02964 0.36991 0.0
H1895 H 0.913 0.99724 0.34557 0.0
H1896 H 0.12824 0.5899 0.15426 0.0
H1897 H 0.15495 0.60846 0.1252 0.0
H1898 H 0.12576 0.66414 0.15093 0.0
H1899 H 0.09868 0.64554 0.18013 0.0
H1900 H 0.14181 0.66216 0.08077 0.0
H1901 H 0.19767 0.64008 0.18041 0.0
H1902 H 0.18439 0.6192 0.16208 0.0
H1903 H 0.17104 0.63759 0.18737 0.0
C1904 C 0.12734 0.60609 0.15356 0.0
C1905 C 0.11137 0.61625 0.16974 0.0
C1906 C 0.14271 0.61669 0.13706 0.0
C1907 C 0.14257 0.6377 0.13648 0.0
C1908 C 0.12623 0.64793 0.1513 0.0
H1909 H 0.25519 0.69742 0.08025 0.0
H1910 H 0.22333 0.69031 0.10963 0.0
C1911 C 0.11077 0.63729 0.1679 0.0
C1912 C 0.1598 0.64872 0.12104 0.0
H1913 H 0.21059 0.65343 0.12704 0.0
C1914 C 0.15682 0.66048 0.09109 0.0
C1915 C 0.17934 0.64685 0.13489 0.0
C1916 C 0.18334 0.63542 0.16816 0.0
C1917 C 0.17303 0.66955 0.07362 0.0
C1918 C 0.19275 0.66655 0.08618 0.0
C1919 C 0.19554 0.65563 0.11715 0.0
C1920 C 0.21083 0.67338 0.06662 0.0
C1921 C 0.16887 0.68218 0.04179 0.0
C1922 C 0.21435 0.66655 0.03244 0.0
C1923 C 0.23247 0.6707 0.01555 0.0
C1924 C 0.24764 0.68162 0.03255 0.0
C1925 C 0.24378 0.68915 0.06625 0.0
C1926 C 0.22561 0.68498 0.08317 0.0
H1927 H 0.1535 0.68853 0.0426 0.0
H1928 H 0.17978 0.69465 0.03938 0.0
H1929 H 0.17003 0.67267 0.01807 0.0
H1930 H 0.20342 0.65725 0.0193 0.0
H1931 H 0.23483 0.66483 0.98947 0.0
H1932 H 0.61573 1.00434 0.78021 0.0
H1933 H 0.62533 0.9735 0.81006 0.0
H1934 H 0.5652 0.96693 0.84944 0.0
H1935 H 0.55532 0.99788 0.8192 0.0
H1936 H 0.62017 0.96673 0.88676 0.0
H1937 H 0.5809 0.91107 0.8027 0.0
H1938 H 0.58742 0.93574 0.78697 0.0
H1939 H 0.56725 0.93276 0.81748 0.0
C1940 C 0.60442 0.99622 0.79475 0.0
C1941 C 0.58469 1.0035 0.79703 0.0
C1942 C 0.60998 0.97865 0.81197 0.0
C1943 C 0.59594 0.96784 0.83165 0.0
C1944 C 0.5762 0.97495 0.83404 0.0
H1945 H 0.61837 0.85493 0.94501 0.0
H1946 H 0.60131 0.88352 0.91756 0.0
C1947 C 0.57063 0.99268 0.81696 0.0
C1948 C 0.60242 0.94959 0.85068 0.0
H1949 H 0.60066 0.89843 0.84861 0.0
C1950 C 0.61579 0.9518 0.87861 0.0
C1951 C 0.59652 0.93016 0.84019 0.0
C1952 C 0.58229 0.92709 0.81011 0.0
C1953 C 0.62375 0.93509 0.89595 0.0
C1954 C 0.61863 0.91559 0.88442 0.0
C1955 C 0.60467 0.91337 0.85727 0.0
C1956 C 0.62856 0.8975 0.89903 0.0
C1957 C 0.63761 0.93851 0.92648 0.0
C1958 C 0.64943 0.89552 0.89671 0.0
C1959 C 0.65915 0.87935 0.91236 0.0
C1960 C 0.64821 0.8646 0.93037 0.0
C1961 C 0.6272 0.86605 0.93132 0.0
C1962 C 0.61745 0.88238 0.91573 0.0
H1963 H 0.63506 0.9534 0.93867 0.0
H1964 H 0.63565 0.92678 0.94677 0.0
H1965 H 0.65335 0.93803 0.91715 0.0
H1966 H 0.65828 0.9067 0.88319 0.0
H1967 H 0.67532 0.87859 0.91081 0.0
loop_
_geom_bond_atom_site_label_1
_geom_bond_atom_site_label_2
_geom_bond_distance
_geom_bond_site_symmetry_2
_ccdc_geom_bond_type
Co0 N4 2.148 . S
Co0 N10 2.128 1_554 S
Co0 N20 2.194 1_554 S
Co0 O25 2.351 1_554 S
Co0 O26 2.155 . S
Co0 O27 2.096 . S
C1 N4 1.301 . S
C1 N5 1.328 . S
C1 H6 0.930 . S
C2 C3 1.333 . S
C2 N4 1.317 . S
C2 H7 0.930 . S
C3 C2 1.333 . S
C3 N5 1.350 . S
C3 H29 0.931 . S
N4 Co0 2.148 . S
N4 C1 1.301 . S
N4 C2 1.317 . S
N5 C1 1.328 . S
N5 C3 1.350 . S
H6 C1 0.930 . S
H7 C2 0.930 . S
C8 O9 1.224 . S
C8 O27 1.247 . S
O9 C8 1.224 . S
N10 Co0 2.128 1_556 S
N10 C11 1.355 . S
N10 C13 1.311 . S
C11 N10 1.355 . S
C11 C12 1.363 . S
C11 H23 0.929 . S
C12 C11 1.363 . S
C12 N14 1.375 . S
C12 H30 0.931 . S
C13 N10 1.311 . S
C13 N14 1.347 . S
C13 H24 0.929 . S
N14 C12 1.375 . S
N14 C13 1.347 . S
C15 C18 1.365 . S
C15 N20 1.328 . S
C15 H21 0.929 . S
C16 C17 1.362 . S
C16 C19 1.378 . S
C16 H31 0.929 . S
C17 C16 1.362 . S
C17 C18 1.366 . S
C18 C15 1.365 . S
C18 C17 1.366 . S
C18 H32 0.930 . S
C19 C16 1.378 . S
C19 N20 1.315 . S
C19 H22 0.930 1_556 S
N20 Co0 2.194 1_556 S
N20 C15 1.328 . S
N20 C19 1.315 . S
H21 C15 0.929 . S
H22 C19 0.930 1_554 S
H23 C11 0.929 . S
H24 C13 0.929 . S
O25 Co0 2.351 1_556 S
O25 C28 1.244 . S
O26 Co0 2.155 . S
O26 C28 1.240 1_554 S
O27 Co0 2.096 . S
O27 C8 1.247 . S
C28 O25 1.244 . S
C28 O26 1.240 1_556 S
H29 C3 0.931 . S
H30 C12 0.931 . S
H31 C16 0.929 . S
H32 C18 0.930 . S
Co33 N37 2.148 . S
Co33 N43 2.128 . S
Co33 N53 2.194 . S
Co33 O58 2.351 . S
Co33 O59 2.155 . S
Co33 O60 2.096 . S
C34 N37 1.301 . S
C34 N38 1.328 . S
C34 H39 0.930 . S
C35 C36 1.333 . S
C35 N37 1.317 . S
C35 H40 0.930 . S
C36 C35 1.333 . S
C36 N38 1.350 . S
C36 H62 0.931 . S
N37 Co33 2.148 . S
N37 C34 1.301 . S
N37 C35 1.317 . S
N38 C34 1.328 . S
N38 C36 1.350 . S
H39 C34 0.930 . S
H40 C35 0.930 . S
C41 O42 1.224 . S
C41 O60 1.247 . S
O42 C41 1.224 . S
N43 Co33 2.128 . S
N43 C44 1.355 . S
N43 C46 1.311 . S
C44 N43 1.355 . S
C44 C45 1.363 . S
C44 H56 0.929 . S
C45 C44 1.363 . S
C45 N47 1.375 . S
C45 H63 0.931 . S
C46 N43 1.311 . S
C46 N47 1.347 . S
C46 H57 0.929 . S
N47 C45 1.375 . S
N47 C46 1.347 . S
C48 C51 1.365 . S
C48 N53 1.328 . S
C48 H54 0.929 . S
C49 C50 1.362 . S
C49 C52 1.378 . S
C49 H64 0.929 . S
C50 C49 1.362 . S
C50 C51 1.366 . S
C51 C48 1.365 . S
C51 C50 1.366 . S
C51 H65 0.930 . S
C52 C49 1.378 . S
C52 N53 1.315 . S
C52 H55 0.930 . S
N53 Co33 2.194 . S
N53 C48 1.328 . S
N53 C52 1.315 . S
H54 C48 0.929 . S
H55 C52 0.930 . S
H56 C44 0.929 . S
H57 C46 0.929 . S
O58 Co33 2.351 . S
O58 C61 1.244 . S
O59 Co33 2.155 . S
O59 C61 1.240 . S
O60 Co33 2.096 . S
O60 C41 1.247 . S
C61 O58 1.244 . S
C61 O59 1.240 . S
H62 C36 0.931 . S
H63 C45 0.931 . S
H64 C49 0.929 . S
H65 C51 0.930 . S
Co66 N70 2.148 . S
Co66 N76 2.128 . S
Co66 N86 2.194 . S
Co66 O91 2.351 . S
Co66 O92 2.155 . S
Co66 O93 2.096 . S
C67 N70 1.301 . S
C67 N71 1.328 . S
C67 H72 0.930 . S
C68 C69 1.333 . S
C68 N70 1.317 . S
C68 H73 0.930 . S
C69 C68 1.333 . S
C69 N71 1.350 . S
C69 H95 0.931 . S
N70 Co66 2.148 . S
N70 C67 1.301 . S
N70 C68 1.317 . S
N71 C67 1.328 . S
N71 C69 1.350 . S
H72 C67 0.930 . S
H73 C68 0.930 . S
C74 O75 1.224 . S
C74 O93 1.247 . S
O75 C74 1.224 . S
N76 Co66 2.128 . S
N76 C77 1.355 . S
N76 C79 1.311 . S
C77 N76 1.355 . S
C77 C78 1.363 . S
C77 H89 0.929 . S
C78 C77 1.363 . S
C78 N80 1.375 . S
C78 H96 0.931 . S
C79 N76 1.311 . S
C79 N80 1.347 . S
C79 H90 0.929 . S
N80 C78 1.375 . S
N80 C79 1.347 . S
C81 C84 1.365 . S
C81 N86 1.328 . S
C81 H87 0.929 . S
C82 C83 1.362 . S
C82 C85 1.378 . S
C82 H97 0.929 . S
C83 C82 1.362 . S
C83 C84 1.366 . S
C84 C81 1.365 . S
C84 C83 1.366 . S
C84 H98 0.930 . S
C85 C82 1.378 . S
C85 N86 1.315 . S
C85 H88 0.930 . S
N86 Co66 2.194 . S
N86 C81 1.328 . S
N86 C85 1.315 . S
H87 C81 0.929 . S
H88 C85 0.930 . S
H89 C77 0.929 . S
H90 C79 0.929 . S
O91 Co66 2.351 . S
O91 C94 1.244 . S
O92 Co66 2.155 . S
O92 C94 1.240 . S
O93 Co66 2.096 . S
O93 C74 1.247 . S
C94 O91 1.244 . S
C94 O92 1.240 . S
H95 C69 0.931 . S
H96 C78 0.931 . S
H97 C82 0.929 . S
H98 C84 0.930 . S
Co99 N103 2.148 . S
Co99 N109 2.128 . S
Co99 N119 2.194 . S
Co99 O124 2.351 . S
Co99 O125 2.155 . S
Co99 O126 2.096 . S
C100 N103 1.301 . S
C100 N104 1.328 . S
C100 H105 0.930 . S
C101 C102 1.333 . S
C101 N103 1.317 . S
C101 H106 0.930 . S
C102 C101 1.333 . S
C102 N104 1.350 . S
C102 H128 0.931 . S
N103 Co99 2.148 . S
N103 C100 1.301 . S
N103 C101 1.317 . S
N104 C100 1.328 . S
N104 C102 1.350 . S
H105 C100 0.930 . S
H106 C101 0.930 . S
C107 O108 1.224 . S
C107 O126 1.247 . S
O108 C107 1.224 . S
N109 Co99 2.128 . S
N109 C110 1.355 . S
N109 C112 1.311 . S
C110 N109 1.355 . S
C110 C111 1.363 . S
C110 H122 0.929 . S
C111 C110 1.363 . S
C111 N113 1.375 . S
C111 H129 0.931 . S
C112 N109 1.311 . S
C112 N113 1.347 . S
C112 H123 0.929 . S
N113 C111 1.375 . S
N113 C112 1.347 . S
C114 C117 1.365 . S
C114 N119 1.328 . S
C114 H120 0.929 . S
C115 C116 1.362 . S
C115 C118 1.378 . S
C115 H130 0.929 . S
C116 C115 1.362 . S
C116 C117 1.366 . S
C117 C114 1.365 . S
C117 C116 1.366 . S
C117 H131 0.930 . S
C118 C115 1.378 . S
C118 N119 1.315 . S
C118 H121 0.930 . S
N119 Co99 2.194 . S
N119 C114 1.328 . S
N119 C118 1.315 . S
H120 C114 0.929 . S
H121 C118 0.930 . S
H122 C110 0.929 . S
H123 C112 0.929 . S
O124 Co99 2.351 . S
O124 C127 1.244 . S
O125 Co99 2.155 . S
O125 C127 1.240 . S
O126 Co99 2.096 . S
O126 C107 1.247 . S
C127 O124 1.244 . S
C127 O125 1.240 . S
H128 C102 0.931 . S
H129 C111 0.931 . S
H130 C115 0.929 . S
H131 C117 0.930 . S
Co132 N136 2.148 . S
Co132 N142 2.128 1_556 S
Co132 N152 2.194 1_556 S
Co132 O157 2.351 . S
Co132 O158 2.155 . S
Co132 O159 2.096 . S
C133 N136 1.301 . S
C133 N137 1.328 . S
C133 H138 0.930 . S
C134 C135 1.333 . S
C134 N136 1.317 . S
C134 H139 0.930 . S
C135 C134 1.333 . S
C135 N137 1.350 . S
C135 H161 0.931 . S
N136 Co132 2.148 . S
N136 C133 1.301 . S
N136 C134 1.317 . S
N137 C133 1.328 . S
N137 C135 1.350 . S
H138 C133 0.930 . S
H139 C134 0.930 . S
C140 O141 1.224 . S
C140 O159 1.247 1_554 S
O141 C140 1.224 . S
N142 Co132 2.128 1_554 S
N142 C143 1.355 . S
N142 C145 1.311 . S
C143 N142 1.355 . S
C143 C144 1.363 . S
C143 H155 0.929 . S
C144 C143 1.363 . S
C144 N146 1.375 . S
C144 H162 0.931 . S
C145 N142 1.311 . S
C145 N146 1.347 . S
C145 H156 0.929 . S
N146 C144 1.375 . S
N146 C145 1.347 . S
C147 C150 1.365 . S
C147 N152 1.328 . S
C147 H153 0.929 1_554 S
C148 C149 1.362 . S
C148 C151 1.378 . S
C148 H163 0.929 . S
C149 C148 1.362 . S
C149 C150 1.366 . S
C150 C147 1.365 . S
C150 C149 1.366 . S
C150 H164 0.930 . S
C151 C148 1.378 . S
C151 N152 1.315 . S
C151 H154 0.930 . S
N152 Co132 2.194 1_554 S
N152 C147 1.328 . S
N152 C151 1.315 . S
H153 C147 0.929 1_556 S
H154 C151 0.930 . S
H155 C143 0.929 . S
H156 C145 0.929 . S
O157 Co132 2.351 . S
O157 C160 1.244 . S
O158 Co132 2.155 . S
O158 C160 1.240 . S
O159 Co132 2.096 . S
O159 C140 1.247 1_556 S
C160 O157 1.244 . S
C160 O158 1.240 . S
H161 C135 0.931 . S
H162 C144 0.931 . S
H163 C148 0.929 . S
H164 C150 0.930 . S
Co165 N169 2.148 . S
Co165 N175 2.128 . S
Co165 N185 2.194 . S
Co165 O190 2.351 . S
Co165 O191 2.155 . S
Co165 O192 2.096 . S
C166 N169 1.301 . S
C166 N170 1.328 . S
C166 H171 0.930 . S
C167 C168 1.333 . S
C167 N169 1.317 . S
C167 H172 0.930 . S
C168 C167 1.333 . S
C168 N170 1.350 . S
C168 H194 0.931 . S
N169 Co165 2.148 . S
N169 C166 1.301 . S
N169 C167 1.317 . S
N170 C166 1.328 . S
N170 C168 1.350 . S
H171 C166 0.930 . S
H172 C167 0.930 . S
C173 O174 1.224 . S
C173 O192 1.247 . S
O174 C173 1.224 . S
N175 Co165 2.128 . S
N175 C176 1.355 . S
N175 C178 1.311 . S
C176 N175 1.355 . S
C176 C177 1.363 . S
C176 H188 0.929 . S
C177 C176 1.363 . S
C177 N179 1.375 . S
C177 H195 0.931 . S
C178 N175 1.311 . S
C178 N179 1.347 . S
C178 H189 0.929 . S
N179 C177 1.375 . S
N179 C178 1.347 . S
C180 C183 1.365 . S
C180 N185 1.328 . S
C180 H186 0.929 . S
C181 C182 1.362 . S
C181 C184 1.378 . S
C181 H196 0.929 . S
C182 C181 1.362 . S
C182 C183 1.366 . S
C183 C180 1.365 . S
C183 C182 1.366 . S
C183 H197 0.930 . S
C184 C181 1.378 . S
C184 N185 1.315 . S
C184 H187 0.930 . S
N185 Co165 2.194 . S
N185 C180 1.328 . S
N185 C184 1.315 . S
H186 C180 0.929 . S
H187 C184 0.930 . S
H188 C176 0.929 . S
H189 C178 0.929 . S
O190 Co165 2.351 . S
O190 C193 1.244 . S
O191 Co165 2.155 . S
O191 C193 1.240 . S
O192 Co165 2.096 . S
O192 C173 1.247 . S
C193 O190 1.244 . S
C193 O191 1.240 . S
H194 C168 0.931 . S
H195 C177 0.931 . S
H196 C181 0.929 . S
H197 C183 0.930 . S
Co198 N202 2.148 . S
Co198 N208 2.128 . S
Co198 N218 2.194 . S
Co198 O223 2.351 . S
Co198 O224 2.155 . S
Co198 O225 2.096 . S
C199 N202 1.301 . S
C199 N203 1.328 . S
C199 H204 0.930 . S
C200 C201 1.333 . S
C200 N202 1.317 . S
C200 H205 0.930 . S
C201 C200 1.333 . S
C201 N203 1.350 . S
C201 H227 0.931 . S
N202 Co198 2.148 . S
N202 C199 1.301 . S
N202 C200 1.317 . S
N203 C199 1.328 . S
N203 C201 1.350 . S
H204 C199 0.930 . S
H205 C200 0.930 . S
C206 O207 1.224 . S
C206 O225 1.247 . S
O207 C206 1.224 . S
N208 Co198 2.128 . S
N208 C209 1.355 . S
N208 C211 1.311 . S
C209 N208 1.355 . S
C209 C210 1.363 . S
C209 H221 0.929 . S
C210 C209 1.363 . S
C210 N212 1.375 . S
C210 H228 0.931 . S
C211 N208 1.311 . S
C211 N212 1.347 . S
C211 H222 0.929 . S
N212 C210 1.375 . S
N212 C211 1.347 . S
C213 C216 1.365 . S
C213 N218 1.328 . S
C213 H219 0.929 . S
C214 C215 1.362 . S
C214 C217 1.378 . S
C214 H229 0.929 . S
C215 C214 1.362 . S
C215 C216 1.366 . S
C216 C213 1.365 . S
C216 C215 1.366 . S
C216 H230 0.930 . S
C217 C214 1.378 . S
C217 N218 1.315 . S
C217 H220 0.930 . S
N218 Co198 2.194 . S
N218 C213 1.328 . S
N218 C217 1.315 . S
H219 C213 0.929 . S
H220 C217 0.930 . S
H221 C209 0.929 . S
H222 C211 0.929 . S
O223 Co198 2.351 . S
O223 C226 1.244 . S
O224 Co198 2.155 . S
O224 C226 1.240 . S
O225 Co198 2.096 . S
O225 C206 1.247 . S
C226 O223 1.244 . S
C226 O224 1.240 . S
H227 C201 0.931 . S
H228 C210 0.931 . S
H229 C214 0.929 . S
H230 C216 0.930 . S
Co231 N235 2.148 . S
Co231 N241 2.128 . S
Co231 N251 2.194 . S
Co231 O256 2.351 . S
Co231 O257 2.155 . S
Co231 O258 2.096 . S
C232 N235 1.301 . S
C232 N236 1.328 . S
C232 H237 0.930 . S
C233 C234 1.333 . S
C233 N235 1.317 . S
C233 H238 0.930 . S
C234 C233 1.333 . S
C234 N236 1.350 . S
C234 H260 0.931 . S
N235 Co231 2.148 . S
N235 C232 1.301 . S
N235 C233 1.317 . S
N236 C232 1.328 . S
N236 C234 1.350 . S
H237 C232 0.930 . S
H238 C233 0.930 . S
C239 O240 1.224 . S
C239 O258 1.247 . S
O240 C239 1.224 . S
N241 Co231 2.128 . S
N241 C242 1.355 . S
N241 C244 1.311 . S
C242 N241 1.355 . S
C242 C243 1.363 . S
C242 H254 0.929 . S
C243 C242 1.363 . S
C243 N245 1.375 . S
C243 H261 0.931 . S
C244 N241 1.311 . S
C244 N245 1.347 . S
C244 H255 0.929 . S
N245 C243 1.375 . S
N245 C244 1.347 . S
C246 C249 1.365 . S
C246 N251 1.328 . S
C246 H252 0.929 . S
C247 C248 1.362 . S
C247 C250 1.378 . S
C247 H262 0.929 . S
C248 C247 1.362 . S
C248 C249 1.366 . S
C249 C246 1.365 . S
C249 C248 1.366 . S
C249 H263 0.930 . S
C250 C247 1.378 . S
C250 N251 1.315 . S
C250 H253 0.930 . S
N251 Co231 2.194 . S
N251 C246 1.328 . S
N251 C250 1.315 . S
H252 C246 0.929 . S
H253 C250 0.930 . S
H254 C242 0.929 . S
H255 C244 0.929 . S
O256 Co231 2.351 . S
O256 C259 1.244 . S
O257 Co231 2.155 . S
O257 C259 1.240 . S
O258 Co231 2.096 . S
O258 C239 1.247 . S
C259 O256 1.244 . S
C259 O257 1.240 . S
H260 C234 0.931 . S
H261 C243 0.931 . S
H262 C247 0.929 . S
H263 C249 0.930 . S
Co264 N268 2.148 . S
Co264 N274 2.128 . S
Co264 N284 2.194 . S
Co264 O289 2.351 . S
Co264 O290 2.155 . S
Co264 O291 2.096 . S
C265 N268 1.301 . S
C265 N269 1.328 . S
C265 H270 0.930 . S
C266 C267 1.333 . S
C266 N268 1.317 . S
C266 H271 0.930 . S
C267 C266 1.333 . S
C267 N269 1.350 . S
C267 H293 0.931 . S
N268 Co264 2.148 . S
N268 C265 1.301 . S
N268 C266 1.317 . S
N269 C265 1.328 . S
N269 C267 1.350 . S
H270 C265 0.930 . S
H271 C266 0.930 . S
C272 O273 1.224 . S
C272 O291 1.247 . S
O273 C272 1.224 . S
N274 Co264 2.128 . S
N274 C275 1.355 . S
N274 C277 1.311 . S
C275 N274 1.355 . S
C275 C276 1.363 . S
C275 H287 0.929 . S
C276 C275 1.363 . S
C276 N278 1.375 . S
C276 H294 0.931 . S
C277 N274 1.311 . S
C277 N278 1.347 . S
C277 H288 0.929 . S
N278 C276 1.375 . S
N278 C277 1.347 . S
C279 C282 1.365 . S
C279 N284 1.328 . S
C279 H285 0.929 . S
C280 C281 1.362 . S
C280 C283 1.378 . S
C280 H295 0.929 . S
C281 C280 1.362 . S
C281 C282 1.366 . S
C282 C279 1.365 . S
C282 C281 1.366 . S
C282 H296 0.930 . S
C283 C280 1.378 . S
C283 N284 1.315 . S
C283 H286 0.930 . S
N284 Co264 2.194 . S
N284 C279 1.328 . S
N284 C283 1.315 . S
H285 C279 0.929 . S
H286 C283 0.930 . S
H287 C275 0.929 . S
H288 C277 0.929 . S
O289 Co264 2.351 . S
O289 C292 1.244 . S
O290 Co264 2.155 . S
O290 C292 1.240 . S
O291 Co264 2.096 . S
O291 C272 1.247 . S
C292 O289 1.244 . S
C292 O290 1.240 . S
H293 C267 0.931 . S
H294 C276 0.931 . S
H295 C280 0.929 . S
H296 C282 0.930 . S
Co297 N301 2.148 . S
Co297 N307 2.128 . S
Co297 N317 2.194 . S
Co297 O322 2.351 . S
Co297 O323 2.155 . S
Co297 O324 2.096 . S
C298 N301 1.301 . S
C298 N302 1.328 . S
C298 H303 0.930 . S
C299 C300 1.333 . S
C299 N301 1.317 . S
C299 H304 0.930 . S
C300 C299 1.333 . S
C300 N302 1.350 . S
C300 H326 0.931 . S
N301 Co297 2.148 . S
N301 C298 1.301 . S
N301 C299 1.317 . S
N302 C298 1.328 . S
N302 C300 1.350 . S
H303 C298 0.930 . S
H304 C299 0.930 . S
C305 O306 1.224 . S
C305 O324 1.247 . S
O306 C305 1.224 . S
N307 Co297 2.128 . S
N307 C308 1.355 . S
N307 C310 1.311 . S
C308 N307 1.355 . S
C308 C309 1.363 . S
C308 H320 0.929 . S
C309 C308 1.363 . S
C309 N311 1.375 . S
C309 H327 0.931 . S
C310 N307 1.311 . S
C310 N311 1.347 . S
C310 H321 0.929 . S
N311 C309 1.375 . S
N311 C310 1.347 . S
C312 C315 1.365 . S
C312 N317 1.328 . S
C312 H318 0.929 . S
C313 C314 1.362 . S
C313 C316 1.378 . S
C313 H328 0.929 . S
C314 C313 1.362 . S
C314 C315 1.366 . S
C315 C312 1.365 . S
C315 C314 1.366 . S
C315 H329 0.930 . S
C316 C313 1.378 . S
C316 N317 1.315 . S
C316 H319 0.930 . S
N317 Co297 2.194 . S
N317 C312 1.328 . S
N317 C316 1.315 . S
H318 C312 0.929 . S
H319 C316 0.930 . S
H320 C308 0.929 . S
H321 C310 0.929 . S
O322 Co297 2.351 . S
O322 C325 1.244 . S
O323 Co297 2.155 . S
O323 C325 1.240 . S
O324 Co297 2.096 . S
O324 C305 1.247 . S
C325 O322 1.244 . S
C325 O323 1.240 . S
H326 C300 0.931 . S
H327 C309 0.931 . S
H328 C313 0.929 . S
H329 C315 0.930 . S
Co330 N334 2.148 . S
Co330 N340 2.128 1_554 S
Co330 N350 2.194 1_554 S
Co330 O355 2.351 1_554 S
Co330 O356 2.155 . S
Co330 O357 2.096 . S
C331 N334 1.301 . S
C331 N335 1.328 . S
C331 H336 0.930 . S
C332 C333 1.333 . S
C332 N334 1.317 . S
C332 H337 0.930 . S
C333 C332 1.333 . S
C333 N335 1.350 . S
C333 H359 0.931 . S
N334 Co330 2.148 . S
N334 C331 1.301 . S
N334 C332 1.317 . S
N335 C331 1.328 . S
N335 C333 1.350 . S
H336 C331 0.930 . S
H337 C332 0.930 . S
C338 O339 1.224 . S
C338 O357 1.247 . S
O339 C338 1.224 . S
N340 Co330 2.128 1_556 S
N340 C341 1.355 . S
N340 C343 1.311 . S
C341 N340 1.355 . S
C341 C342 1.363 . S
C341 H353 0.929 . S
C342 C341 1.363 . S
C342 N344 1.375 . S
C342 H360 0.931 . S
C343 N340 1.311 . S
C343 N344 1.347 . S
C343 H354 0.929 . S
N344 C342 1.375 . S
N344 C343 1.347 . S
C345 C348 1.365 . S
C345 N350 1.328 . S
C345 H351 0.929 . S
C346 C347 1.362 . S
C346 C349 1.378 . S
C346 H361 0.929 . S
C347 C346 1.362 . S
C347 C348 1.366 . S
C348 C345 1.365 . S
C348 C347 1.366 . S
C348 H362 0.930 . S
C349 C346 1.378 . S
C349 N350 1.315 . S
C349 H352 0.930 1_556 S
N350 Co330 2.194 1_556 S
N350 C345 1.328 . S
N350 C349 1.315 . S
H351 C345 0.929 . S
H352 C349 0.930 1_554 S
H353 C341 0.929 . S
H354 C343 0.929 . S
O355 Co330 2.351 1_556 S
O355 C358 1.244 . S
O356 Co330 2.155 . S
O356 C358 1.240 1_554 S
O357 Co330 2.096 . S
O357 C338 1.247 . S
C358 O355 1.244 . S
C358 O356 1.240 1_556 S
H359 C333 0.931 . S
H360 C342 0.931 . S
H361 C346 0.929 . S
H362 C348 0.930 . S
Co363 N367 2.148 . S
Co363 N373 2.128 . S
Co363 N383 2.194 . S
Co363 O388 2.351 . S
Co363 O389 2.155 . S
Co363 O390 2.096 . S
C364 N367 1.301 . S
C364 N368 1.328 . S
C364 H369 0.930 . S
C365 C366 1.333 . S
C365 N367 1.317 . S
C365 H370 0.930 . S
C366 C365 1.333 . S
C366 N368 1.350 . S
C366 H392 0.931 . S
N367 Co363 2.148 . S
N367 C364 1.301 . S
N367 C365 1.317 . S
N368 C364 1.328 . S
N368 C366 1.350 . S
H369 C364 0.930 . S
H370 C365 0.930 . S
C371 O372 1.224 . S
C371 O390 1.247 . S
O372 C371 1.224 . S
N373 Co363 2.128 . S
N373 C374 1.355 . S
N373 C376 1.311 . S
C374 N373 1.355 . S
C374 C375 1.363 . S
C374 H386 0.929 . S
C375 C374 1.363 . S
C375 N377 1.375 . S
C375 H393 0.931 . S
C376 N373 1.311 . S
C376 N377 1.347 . S
C376 H387 0.929 . S
N377 C375 1.375 . S
N377 C376 1.347 . S
C378 C381 1.365 . S
C378 N383 1.328 . S
C378 H384 0.929 . S
C379 C380 1.362 . S
C379 C382 1.378 . S
C379 H394 0.929 . S
C380 C379 1.362 . S
C380 C381 1.366 . S
C381 C378 1.365 . S
C381 C380 1.366 . S
C381 H395 0.930 . S
C382 C379 1.378 . S
C382 N383 1.315 . S
C382 H385 0.930 . S
N383 Co363 2.194 . S
N383 C378 1.328 . S
N383 C382 1.315 . S
H384 C378 0.929 . S
H385 C382 0.930 . S
H386 C374 0.929 . S
H387 C376 0.929 . S
O388 Co363 2.351 . S
O388 C391 1.244 . S
O389 Co363 2.155 . S
O389 C391 1.240 . S
O390 Co363 2.096 . S
O390 C371 1.247 . S
C391 O388 1.244 . S
C391 O389 1.240 . S
H392 C366 0.931 . S
H393 C375 0.931 . S
H394 C379 0.929 . S
H395 C381 0.930 . S
Co396 N400 2.148 . S
Co396 N406 2.128 . S
Co396 N416 2.194 . S
Co396 O421 2.351 . S
Co396 O422 2.155 . S
Co396 O423 2.096 . S
C397 N400 1.301 . S
C397 N401 1.328 . S
C397 H402 0.930 . S
C398 C399 1.333 . S
C398 N400 1.317 . S
C398 H403 0.930 . S
C399 C398 1.333 . S
C399 N401 1.350 . S
C399 H425 0.931 . S
N400 Co396 2.148 . S
N400 C397 1.301 . S
N400 C398 1.317 . S
N401 C397 1.328 . S
N401 C399 1.350 . S
H402 C397 0.930 . S
H403 C398 0.930 . S
C404 O405 1.224 . S
C404 O423 1.247 . S
O405 C404 1.224 . S
N406 Co396 2.128 . S
N406 C407 1.355 . S
N406 C409 1.311 . S
C407 N406 1.355 . S
C407 C408 1.363 . S
C407 H419 0.929 . S
C408 C407 1.363 . S
C408 N410 1.375 . S
C408 H426 0.931 . S
C409 N406 1.311 . S
C409 N410 1.347 . S
C409 H420 0.929 . S
N410 C408 1.375 . S
N410 C409 1.347 . S
C411 C414 1.365 . S
C411 N416 1.328 . S
C411 H417 0.929 . S
C412 C413 1.362 . S
C412 C415 1.378 . S
C412 H427 0.929 . S
C413 C412 1.362 . S
C413 C414 1.366 . S
C414 C411 1.365 . S
C414 C413 1.366 . S
C414 H428 0.930 . S
C415 C412 1.378 . S
C415 N416 1.315 . S
C415 H418 0.930 . S
N416 Co396 2.194 . S
N416 C411 1.328 . S
N416 C415 1.315 . S
H417 C411 0.929 . S
H418 C415 0.930 . S
H419 C407 0.929 . S
H420 C409 0.929 . S
O421 Co396 2.351 . S
O421 C424 1.244 . S
O422 Co396 2.155 . S
O422 C424 1.240 . S
O423 Co396 2.096 . S
O423 C404 1.247 . S
C424 O421 1.244 . S
C424 O422 1.240 . S
H425 C399 0.931 . S
H426 C408 0.931 . S
H427 C412 0.929 . S
H428 C414 0.930 . S
Co429 N433 2.148 . S
Co429 N439 2.128 . S
Co429 N449 2.194 . S
Co429 O454 2.351 . S
Co429 O455 2.155 . S
Co429 O456 2.096 . S
C430 N433 1.301 . S
C430 N434 1.328 . S
C430 H435 0.930 . S
C431 C432 1.333 . S
C431 N433 1.317 . S
C431 H436 0.930 . S
C432 C431 1.333 . S
C432 N434 1.350 . S
C432 H458 0.931 . S
N433 Co429 2.148 . S
N433 C430 1.301 . S
N433 C431 1.317 . S
N434 C430 1.328 . S
N434 C432 1.350 . S
H435 C430 0.930 . S
H436 C431 0.930 . S
C437 O438 1.224 . S
C437 O456 1.247 . S
O438 C437 1.224 . S
N439 Co429 2.128 . S
N439 C440 1.355 . S
N439 C442 1.311 . S
C440 N439 1.355 . S
C440 C441 1.363 . S
C440 H452 0.929 . S
C441 C440 1.363 . S
C441 N443 1.375 . S
C441 H459 0.931 . S
C442 N439 1.311 . S
C442 N443 1.347 . S
C442 H453 0.929 . S
N443 C441 1.375 . S
N443 C442 1.347 . S
C444 C447 1.365 . S
C444 N449 1.328 . S
C444 H450 0.929 . S
C445 C446 1.362 . S
C445 C448 1.378 . S
C445 H460 0.929 . S
C446 C445 1.362 . S
C446 C447 1.366 . S
C447 C444 1.365 . S
C447 C446 1.366 . S
C447 H461 0.930 . S
C448 C445 1.378 . S
C448 N449 1.315 . S
C448 H451 0.930 . S
N449 Co429 2.194 . S
N449 C444 1.328 . S
N449 C448 1.315 . S
H450 C444 0.929 . S
H451 C448 0.930 . S
H452 C440 0.929 . S
H453 C442 0.929 . S
O454 Co429 2.351 . S
O454 C457 1.244 . S
O455 Co429 2.155 . S
O455 C457 1.240 . S
O456 Co429 2.096 . S
O456 C437 1.247 . S
C457 O454 1.244 . S
C457 O455 1.240 . S
H458 C432 0.931 . S
H459 C441 0.931 . S
H460 C445 0.929 . S
H461 C447 0.930 . S
Co462 N466 2.148 . S
Co462 N472 2.128 1_556 S
Co462 N482 2.194 1_556 S
Co462 O487 2.351 . S
Co462 O488 2.155 . S
Co462 O489 2.096 . S
C463 N466 1.301 . S
C463 N467 1.328 . S
C463 H468 0.930 . S
C464 C465 1.333 . S
C464 N466 1.317 . S
C464 H469 0.930 . S
C465 C464 1.333 . S
C465 N467 1.350 . S
C465 H491 0.931 . S
N466 Co462 2.148 . S
N466 C463 1.301 . S
N466 C464 1.317 . S
N467 C463 1.328 . S
N467 C465 1.350 . S
H468 C463 0.930 . S
H469 C464 0.930 . S
C470 O471 1.224 . S
C470 O489 1.247 1_554 S
O471 C470 1.224 . S
N472 Co462 2.128 1_554 S
N472 C473 1.355 . S
N472 C475 1.311 . S
C473 N472 1.355 . S
C473 C474 1.363 . S
C473 H485 0.929 . S
C474 C473 1.363 . S
C474 N476 1.375 . S
C474 H492 0.931 . S
C475 N472 1.311 . S
C475 N476 1.347 . S
C475 H486 0.929 . S
N476 C474 1.375 . S
N476 C475 1.347 . S
C477 C480 1.365 . S
C477 N482 1.328 . S
C477 H483 0.929 1_554 S
C478 C479 1.362 . S
C478 C481 1.378 . S
C478 H493 0.929 . S
C479 C478 1.362 . S
C479 C480 1.366 . S
C480 C477 1.365 . S
C480 C479 1.366 . S
C480 H494 0.930 . S
C481 C478 1.378 . S
C481 N482 1.315 . S
C481 H484 0.930 . S
N482 Co462 2.194 1_554 S
N482 C477 1.328 . S
N482 C481 1.315 . S
H483 C477 0.929 1_556 S
H484 C481 0.930 . S
H485 C473 0.929 . S
H486 C475 0.929 . S
O487 Co462 2.351 . S
O487 C490 1.244 . S
O488 Co462 2.155 . S
O488 C490 1.240 . S
O489 Co462 2.096 . S
O489 C470 1.247 1_556 S
C490 O487 1.244 . S
C490 O488 1.240 . S
H491 C465 0.931 . S
H492 C474 0.931 . S
H493 C478 0.929 . S
H494 C480 0.930 . S
Co495 N499 2.148 . S
Co495 N505 2.128 . S
Co495 N515 2.194 . S
Co495 O520 2.351 . S
Co495 O521 2.155 . S
Co495 O522 2.096 . S
C496 N499 1.301 . S
C496 N500 1.328 . S
C496 H501 0.930 . S
C497 C498 1.333 . S
C497 N499 1.317 . S
C497 H502 0.930 . S
C498 C497 1.333 . S
C498 N500 1.350 . S
C498 H524 0.931 . S
N499 Co495 2.148 . S
N499 C496 1.301 . S
N499 C497 1.317 . S
N500 C496 1.328 . S
N500 C498 1.350 . S
H501 C496 0.930 . S
H502 C497 0.930 . S
C503 O504 1.224 . S
C503 O522 1.247 . S
O504 C503 1.224 . S
N505 Co495 2.128 . S
N505 C506 1.355 . S
N505 C508 1.311 . S
C506 N505 1.355 . S
C506 C507 1.363 . S
C506 H518 0.929 . S
C507 C506 1.363 . S
C507 N509 1.375 . S
C507 H525 0.931 . S
C508 N505 1.311 . S
C508 N509 1.347 . S
C508 H519 0.929 . S
N509 C507 1.375 . S
N509 C508 1.347 . S
C510 C513 1.365 . S
C510 N515 1.328 . S
C510 H516 0.929 . S
C511 C512 1.362 . S
C511 C514 1.378 . S
C511 H526 0.929 . S
C512 C511 1.362 . S
C512 C513 1.366 . S
C513 C510 1.365 . S
C513 C512 1.366 . S
C513 H527 0.930 . S
C514 C511 1.378 . S
C514 N515 1.315 . S
C514 H517 0.930 . S
N515 Co495 2.194 . S
N515 C510 1.328 . S
N515 C514 1.315 . S
H516 C510 0.929 . S
H517 C514 0.930 . S
H518 C506 0.929 . S
H519 C508 0.929 . S
O520 Co495 2.351 . S
O520 C523 1.244 . S
O521 Co495 2.155 . S
O521 C523 1.240 . S
O522 Co495 2.096 . S
O522 C503 1.247 . S
C523 O520 1.244 . S
C523 O521 1.240 . S
H524 C498 0.931 . S
H525 C507 0.931 . S
H526 C511 0.929 . S
H527 C513 0.930 . S
H528 C536 0.929 . S
H529 C538 0.930 . S
H530 C540 0.930 . S
H531 C543 0.929 . S
H532 C546 0.930 . S
H533 C548 0.960 . S
H534 C548 0.960 . S
H535 C548 0.960 . S
C536 H528 0.929 . S
C536 C537 1.377 . S
C536 C538 1.384 . S
C537 C536 1.377 . S
C537 C543 1.390 . S
C538 H529 0.930 . S
C538 C536 1.384 . S
C538 C539 1.372 . S
C539 C538 1.372 . S
C539 C540 1.400 . S
C539 C544 1.490 . S
C540 H530 0.930 . S
C540 C539 1.400 . S
C540 C543 1.386 . S
H541 C557 0.930 . S
H542 C558 0.931 . S
C543 H531 0.929 . S
C543 C537 1.390 . S
C543 C540 1.386 . S
C544 C539 1.490 . S
C544 C546 1.395 . S
C544 C547 1.403 . S
H545 C551 0.930 . S
C546 H532 0.930 . S
C546 C544 1.395 . S
C546 C549 1.403 . S
C547 C544 1.403 . S
C547 C548 1.524 . S
C547 C551 1.400 . S
C548 H533 0.960 . S
C548 H534 0.960 . S
C548 H535 0.960 . S
C548 C547 1.524 . S
C549 C546 1.403 . S
C549 C550 1.392 . S
C549 C553 1.495 . S
C550 C549 1.392 . S
C550 C551 1.385 . S
C550 C552 1.478 . S
C551 H545 0.930 . S
C551 C547 1.400 . S
C551 C550 1.385 . S
C552 C550 1.478 . S
C552 C554 1.381 . S
C552 C558 1.383 . S
C553 C549 1.495 . S
C553 H559 0.959 . S
C553 H560 0.961 . S
C553 H561 0.960 . S
C554 C552 1.381 . S
C554 C555 1.394 . S
C554 H562 0.930 . S
C555 C554 1.394 . S
C555 C556 1.383 . S
C555 H563 0.929 . S
C556 C555 1.383 . S
C556 C557 1.377 . S
C557 H541 0.930 . S
C557 C556 1.377 . S
C557 C558 1.379 . S
C558 H542 0.931 . S
C558 C552 1.383 . S
C558 C557 1.379 . S
H559 C553 0.959 . S
H560 C553 0.961 . S
H561 C553 0.960 . S
H562 C554 0.930 . S
H563 C555 0.929 . S
H564 C572 0.929 . S
H565 C574 0.930 . S
H566 C576 0.930 . S
H567 C579 0.929 . S
H568 C582 0.930 . S
H569 C584 0.960 . S
H570 C584 0.960 . S
H571 C584 0.960 . S
C572 H564 0.929 . S
C572 C573 1.377 . S
C572 C574 1.384 . S
C573 C572 1.377 . S
C573 C579 1.390 . S
C574 H565 0.930 . S
C574 C572 1.384 . S
C574 C575 1.372 . S
C575 C574 1.372 . S
C575 C576 1.400 . S
C575 C580 1.490 . S
C576 H566 0.930 . S
C576 C575 1.400 . S
C576 C579 1.386 . S
H577 C593 0.930 1_556 S
H578 C594 0.931 . S
C579 H567 0.929 . S
C579 C573 1.390 . S
C579 C576 1.386 . S
C580 C575 1.490 . S
C580 C582 1.395 . S
C580 C583 1.403 . S
H581 C587 0.930 . S
C582 H568 0.930 . S
C582 C580 1.395 . S
C582 C585 1.403 . S
C583 C580 1.403 . S
C583 C584 1.524 . S
C583 C587 1.400 . S
C584 H569 0.960 . S
C584 H570 0.960 . S
C584 H571 0.960 . S
C584 C583 1.524 . S
C585 C582 1.403 . S
C585 C586 1.392 . S
C585 C589 1.495 . S
C586 C585 1.392 . S
C586 C587 1.385 . S
C586 C588 1.478 . S
C587 H581 0.930 . S
C587 C583 1.400 . S
C587 C586 1.385 . S
C588 C586 1.478 . S
C588 C590 1.381 . S
C588 C594 1.383 . S
C589 C585 1.495 . S
C589 H595 0.959 . S
C589 H596 0.961 . S
C589 H597 0.960 . S
C590 C588 1.381 . S
C590 C591 1.394 . S
C590 H598 0.930 . S
C591 C590 1.394 . S
C591 C592 1.383 . S
C591 H599 0.929 . S
C592 C591 1.383 . S
C592 C593 1.377 . S
C593 H577 0.930 1_554 S
C593 C592 1.377 . S
C593 C594 1.379 . S
C594 H578 0.931 . S
C594 C588 1.383 . S
C594 C593 1.379 . S
H595 C589 0.959 . S
H596 C589 0.961 . S
H597 C589 0.960 . S
H598 C590 0.930 . S
H599 C591 0.929 . S
H600 C608 0.929 . S
H601 C610 0.930 . S
H602 C612 0.930 . S
H603 C615 0.929 . S
H604 C618 0.930 . S
H605 C620 0.960 . S
H606 C620 0.960 . S
H607 C620 0.960 . S
C608 H600 0.929 . S
C608 C609 1.377 . S
C608 C610 1.384 . S
C609 C608 1.377 . S
C609 C615 1.390 . S
C610 H601 0.930 . S
C610 C608 1.384 . S
C610 C611 1.372 . S
C611 C610 1.372 . S
C611 C612 1.400 . S
C611 C616 1.490 . S
C612 H602 0.930 . S
C612 C611 1.400 . S
C612 C615 1.386 . S
H613 C629 0.930 . S
H614 C630 0.931 . S
C615 H603 0.929 . S
C615 C609 1.390 . S
C615 C612 1.386 . S
C616 C611 1.490 . S
C616 C618 1.395 . S
C616 C619 1.403 . S
H617 C623 0.930 . S
C618 H604 0.930 . S
C618 C616 1.395 . S
C618 C621 1.403 . S
C619 C616 1.403 . S
C619 C620 1.524 . S
C619 C623 1.400 . S
C620 H605 0.960 . S
C620 H606 0.960 . S
C620 H607 0.960 . S
C620 C619 1.524 . S
C621 C618 1.403 . S
C621 C622 1.392 . S
C621 C625 1.495 . S
C622 C621 1.392 . S
C622 C623 1.385 . S
C622 C624 1.478 . S
C623 H617 0.930 . S
C623 C619 1.400 . S
C623 C622 1.385 . S
C624 C622 1.478 . S
C624 C626 1.381 1_455 S
C624 C630 1.383 . S
C625 C621 1.495 . S
C625 H631 0.959 . S
C625 H632 0.961 . S
C625 H633 0.924 1_455 S
C626 C624 1.381 1_655 S
C626 C627 1.394 . S
C626 H634 0.930 . S
C627 C626 1.394 . S
C627 C628 1.383 . S
C627 H635 0.929 . S
C628 C627 1.383 . S
C628 C629 1.377 . S
C629 H613 0.930 . S
C629 C628 1.377 . S
C629 C630 1.379 1_655 S
C630 H614 0.931 . S
C630 C624 1.383 . S
C630 C629 1.379 1_455 S
H631 C625 0.959 . S
H632 C625 0.961 . S
H633 C625 0.924 1_655 S
H634 C626 0.930 . S
H635 C627 0.929 . S
H636 C644 0.929 . S
H637 C646 0.930 . S
H638 C648 0.930 . S
H639 C651 0.929 . S
H640 C654 0.930 . S
H641 C656 0.960 . S
H642 C656 0.960 . S
H643 C656 0.960 . S
C644 H636 0.929 . S
C644 C645 1.377 . S
C644 C646 1.384 . S
C645 C644 1.377 . S
C645 C651 1.390 . S
C646 H637 0.930 . S
C646 C644 1.384 . S
C646 C647 1.372 . S
C647 C646 1.372 . S
C647 C648 1.400 . S
C647 C652 1.490 . S
C648 H638 0.930 . S
C648 C647 1.400 . S
C648 C651 1.386 . S
H649 C665 0.930 . S
H650 C666 0.931 . S
C651 H639 0.929 . S
C651 C645 1.390 . S
C651 C648 1.386 . S
C652 C647 1.490 . S
C652 C654 1.395 . S
C652 C655 1.403 . S
H653 C659 0.930 . S
C654 H640 0.930 . S
C654 C652 1.395 . S
C654 C657 1.403 . S
C655 C652 1.403 . S
C655 C656 1.524 . S
C655 C659 1.400 . S
C656 H641 0.960 . S
C656 H642 0.960 . S
C656 H643 0.960 . S
C656 C655 1.524 . S
C657 C654 1.403 . S
C657 C658 1.392 . S
C657 C661 1.495 . S
C658 C657 1.392 . S
C658 C659 1.385 . S
C658 C660 1.478 . S
C659 H653 0.930 . S
C659 C655 1.400 . S
C659 C658 1.385 . S
C660 C658 1.478 . S
C660 C662 1.381 . S
C660 C666 1.383 . S
C661 C657 1.495 . S
C661 H667 0.959 . S
C661 H668 0.961 . S
C661 H669 0.960 . S
C662 C660 1.381 . S
C662 C663 1.394 . S
C662 H670 0.930 . S
C663 C662 1.394 . S
C663 C664 1.383 . S
C663 H671 0.929 . S
C664 C663 1.383 . S
C664 C665 1.377 . S
C665 H649 0.930 . S
C665 C664 1.377 . S
C665 C666 1.379 . S
C666 H650 0.931 . S
C666 C660 1.383 . S
C666 C665 1.379 . S
H667 C661 0.959 . S
H668 C661 0.961 . S
H669 C661 0.960 . S
H670 C662 0.930 . S
H671 C663 0.929 . S
H672 C680 0.929 . S
H673 C682 0.930 . S
H674 C684 0.930 . S
H675 C687 0.929 . S
H676 C690 0.930 . S
H677 C692 0.960 . S
H678 C692 0.960 . S
H679 C692 0.960 . S
C680 H672 0.929 . S
C680 C681 1.377 . S
C680 C682 1.384 . S
C681 C680 1.377 . S
C681 C687 1.390 . S
C682 H673 0.930 . S
C682 C680 1.384 . S
C682 C683 1.372 . S
C683 C682 1.372 . S
C683 C684 1.400 . S
C683 C688 1.490 . S
C684 H674 0.930 . S
C684 C683 1.400 . S
C684 C687 1.386 . S
H685 C701 0.930 . S
H686 C702 0.931 . S
C687 H675 0.929 . S
C687 C681 1.390 . S
C687 C684 1.386 . S
C688 C683 1.490 . S
C688 C690 1.395 . S
C688 C691 1.403 . S
H689 C695 0.930 . S
C690 H676 0.930 . S
C690 C688 1.395 . S
C690 C693 1.403 . S
C691 C688 1.403 . S
C691 C692 1.524 . S
C691 C695 1.400 . S
C692 H677 0.960 . S
C692 H678 0.960 . S
C692 H679 0.960 . S
C692 C691 1.524 . S
C693 C690 1.403 . S
C693 C694 1.392 . S
C693 C697 1.495 . S
C694 C693 1.392 . S
C694 C695 1.385 . S
C694 C696 1.478 . S
C695 H689 0.930 . S
C695 C691 1.400 . S
C695 C694 1.385 . S
C696 C694 1.478 . S
C696 C698 1.381 . S
C696 C702 1.383 . S
C697 C693 1.495 . S
C697 H703 0.959 . S
C697 H704 0.961 . S
C697 H705 0.960 . S
C698 C696 1.381 . S
C698 C699 1.394 . S
C698 H706 0.930 . S
C699 C698 1.394 . S
C699 C700 1.383 . S
C699 H707 0.929 . S
C700 C699 1.383 . S
C700 C701 1.377 . S
C701 H685 0.930 . S
C701 C700 1.377 . S
C701 C702 1.379 . S
C702 H686 0.931 . S
C702 C696 1.383 . S
C702 C701 1.379 . S
H703 C697 0.959 . S
H704 C697 0.961 . S
H705 C697 0.960 . S
H706 C698 0.930 . S
H707 C699 0.929 . S
H708 C716 0.929 . S
H709 C718 0.930 . S
H710 C720 0.930 . S
H711 C723 0.929 . S
H712 C726 0.930 . S
H713 C728 0.960 . S
H714 C728 0.960 . S
H715 C728 0.960 . S
C716 H708 0.929 . S
C716 C717 1.377 . S
C716 C718 1.384 . S
C717 C716 1.377 . S
C717 C723 1.390 . S
C718 H709 0.930 . S
C718 C716 1.384 . S
C718 C719 1.372 . S
C719 C718 1.372 . S
C719 C720 1.400 . S
C719 C724 1.490 . S
C720 H710 0.930 . S
C720 C719 1.400 . S
C720 C723 1.386 . S
H721 C737 0.930 . S
H722 C738 0.931 . S
C723 H711 0.929 . S
C723 C717 1.390 . S
C723 C720 1.386 . S
C724 C719 1.490 . S
C724 C726 1.395 . S
C724 C727 1.403 . S
H725 C731 0.930 . S
C726 H712 0.930 . S
C726 C724 1.395 . S
C726 C729 1.403 . S
C727 C724 1.403 . S
C727 C728 1.524 . S
C727 C731 1.400 . S
C728 H713 0.960 . S
C728 H714 0.960 . S
C728 H715 0.960 . S
C728 C727 1.524 . S
C729 C726 1.403 . S
C729 C730 1.392 . S
C729 C733 1.495 . S
C730 C729 1.392 . S
C730 C731 1.385 . S
C730 C732 1.478 . S
C731 H725 0.930 . S
C731 C727 1.400 . S
C731 C730 1.385 . S
C732 C730 1.478 . S
C732 C734 1.381 . S
C732 C738 1.383 . S
C733 C729 1.495 . S
C733 H739 0.959 . S
C733 H740 0.961 . S
C733 H741 0.960 . S
C734 C732 1.381 . S
C734 C735 1.394 . S
C734 H742 0.930 . S
C735 C734 1.394 . S
C735 C736 1.383 . S
C735 H743 0.929 . S
C736 C735 1.383 . S
C736 C737 1.377 . S
C737 H721 0.930 . S
C737 C736 1.377 . S
C737 C738 1.379 . S
C738 H722 0.931 . S
C738 C732 1.383 . S
C738 C737 1.379 . S
H739 C733 0.959 . S
H740 C733 0.961 . S
H741 C733 0.960 . S
H742 C734 0.930 . S
H743 C735 0.929 . S
H744 C752 0.965 . S
H745 C754 0.930 . S
H746 C756 0.930 . S
H747 C759 0.929 . S
H748 C762 0.930 . S
H749 C764 0.960 . S
H750 C764 0.960 . S
H751 C764 0.960 . S
C752 H744 0.965 . S
C752 C753 1.385 . S
C752 C754 1.343 1_455 S
C753 C752 1.385 . S
C753 C759 1.390 1_455 S
C754 H745 0.930 . S
C754 C752 1.343 1_655 S
C754 C755 1.372 . S
C755 C754 1.372 . S
C755 C756 1.400 . S
C755 C760 1.490 . S
C756 H746 0.930 . S
C756 C755 1.400 . S
C756 C759 1.386 . S
H757 C773 0.930 . S
H758 C774 0.931 . S
C759 H747 0.929 . S
C759 C753 1.390 1_655 S
C759 C756 1.386 . S
C760 C755 1.490 . S
C760 C762 1.395 . S
C760 C763 1.403 . S
H761 C767 0.930 . S
C762 H748 0.930 . S
C762 C760 1.395 . S
C762 C765 1.403 . S
C763 C760 1.403 . S
C763 C764 1.524 . S
C763 C767 1.400 . S
C764 H749 0.960 . S
C764 H750 0.960 . S
C764 H751 0.960 . S
C764 C763 1.524 . S
C765 C762 1.403 . S
C765 C766 1.392 . S
C765 C769 1.495 . S
C766 C765 1.392 . S
C766 C767 1.385 . S
C766 C768 1.478 . S
C767 H761 0.930 . S
C767 C763 1.400 . S
C767 C766 1.385 . S
C768 C766 1.478 . S
C768 C770 1.381 . S
C768 C774 1.383 . S
C769 C765 1.495 . S
C769 H775 0.959 . S
C769 H776 0.961 . S
C769 H777 0.960 . S
C770 C768 1.381 . S
C770 C771 1.394 . S
C770 H778 0.930 . S
C771 C770 1.394 . S
C771 C772 1.383 . S
C771 H779 0.929 . S
C772 C771 1.383 . S
C772 C773 1.377 . S
C773 H757 0.930 . S
C773 C772 1.377 . S
C773 C774 1.379 . S
C774 H758 0.931 . S
C774 C768 1.383 . S
C774 C773 1.379 . S
H775 C769 0.959 . S
H776 C769 0.961 . S
H777 C769 0.960 . S
H778 C770 0.930 . S
H779 C771 0.929 . S
H780 C788 0.929 . S
H781 C790 0.930 . S
H782 C792 0.930 . S
H783 C795 0.929 . S
H784 C798 0.930 . S
H785 C800 0.960 . S
H786 C800 0.960 . S
H787 C800 0.960 . S
C788 H780 0.929 . S
C788 C789 1.377 . S
C788 C790 1.384 . S
C789 C788 1.377 . S
C789 C795 1.390 . S
C790 H781 0.930 . S
C790 C788 1.384 . S
C790 C791 1.372 . S
C791 C790 1.372 . S
C791 C792 1.400 . S
C791 C796 1.490 . S
C792 H782 0.930 . S
C792 C791 1.400 . S
C792 C795 1.386 . S
H793 C809 0.930 . S
H794 C810 0.931 . S
C795 H783 0.929 . S
C795 C789 1.390 . S
C795 C792 1.386 . S
C796 C791 1.490 . S
C796 C798 1.395 . S
C796 C799 1.403 . S
H797 C803 0.930 . S
C798 H784 0.930 . S
C798 C796 1.395 . S
C798 C801 1.403 . S
C799 C796 1.403 . S
C799 C800 1.524 . S
C799 C803 1.400 . S
C800 H785 0.960 . S
C800 H786 0.960 . S
C800 H787 0.960 . S
C800 C799 1.524 . S
C801 C798 1.403 . S
C801 C802 1.392 . S
C801 C805 1.495 . S
C802 C801 1.392 . S
C802 C803 1.385 . S
C802 C804 1.478 . S
C803 H797 0.930 . S
C803 C799 1.400 . S
C803 C802 1.385 . S
C804 C802 1.478 . S
C804 C806 1.381 . S
C804 C810 1.383 . S
C805 C801 1.495 . S
C805 H811 0.959 . S
C805 H812 0.961 . S
C805 H813 0.960 . S
C806 C804 1.381 . S
C806 C807 1.394 . S
C806 H814 0.930 . S
C807 C806 1.394 . S
C807 C808 1.383 . S
C807 H815 0.929 . S
C808 C807 1.383 . S
C808 C809 1.377 . S
C809 H793 0.930 . S
C809 C808 1.377 . S
C809 C810 1.379 . S
C810 H794 0.931 . S
C810 C804 1.383 . S
C810 C809 1.379 . S
H811 C805 0.959 . S
H812 C805 0.961 . S
H813 C805 0.960 . S
H814 C806 0.930 . S
H815 C807 0.929 . S
H816 C824 0.929 . S
H817 C826 0.930 . S
H818 C828 0.930 . S
H819 C831 0.929 . S
H820 C834 0.930 . S
H821 C836 0.960 . S
H822 C836 0.960 . S
H823 C836 0.960 . S
C824 H816 0.929 . S
C824 C825 1.377 . S
C824 C826 1.384 . S
C825 C824 1.377 . S
C825 C831 1.390 . S
C826 H817 0.930 . S
C826 C824 1.384 . S
C826 C827 1.372 . S
C827 C826 1.372 . S
C827 C828 1.400 . S
C827 C832 1.490 . S
C828 H818 0.930 . S
C828 C827 1.400 . S
C828 C831 1.386 . S
H829 C845 0.930 . S
H830 C846 0.931 . S
C831 H819 0.929 . S
C831 C825 1.390 . S
C831 C828 1.386 . S
C832 C827 1.490 . S
C832 C834 1.395 . S
C832 C835 1.403 . S
H833 C839 0.930 . S
C834 H820 0.930 . S
C834 C832 1.395 . S
C834 C837 1.403 . S
C835 C832 1.403 . S
C835 C836 1.524 . S
C835 C839 1.400 . S
C836 H821 0.960 . S
C836 H822 0.960 . S
C836 H823 0.960 . S
C836 C835 1.524 . S
C837 C834 1.403 . S
C837 C838 1.392 . S
C837 C841 1.495 . S
C838 C837 1.392 . S
C838 C839 1.385 . S
C838 C840 1.478 . S
C839 H833 0.930 . S
C839 C835 1.400 . S
C839 C838 1.385 . S
C840 C838 1.478 . S
C840 C842 1.381 1_655 S
C840 C846 1.383 . S
C841 C837 1.495 . S
C841 H847 0.959 . S
C841 H848 0.962 1_655 S
C841 H849 0.961 . S
C842 C840 1.381 1_455 S
C842 C843 1.394 . S
C842 H850 0.929 . S
C843 C842 1.394 . S
C843 C844 1.383 . S
C843 H851 0.929 . S
C844 C843 1.383 . S
C844 C845 1.377 . S
C845 H829 0.930 . S
C845 C844 1.377 . S
C845 C846 1.379 1_455 S
C846 H830 0.931 . S
C846 C840 1.383 . S
C846 C845 1.379 1_655 S
H847 C841 0.959 . S
H848 C841 0.962 1_455 S
H849 C841 0.961 . S
H850 C842 0.929 . S
H851 C843 0.929 . S
H852 C860 0.929 . S
H853 C862 0.930 . S
H854 C864 0.930 . S
H855 C867 0.929 . S
H856 C870 0.930 . S
H857 C872 0.960 . S
H858 C872 0.960 . S
H859 C872 0.960 . S
C860 H852 0.929 . S
C860 C861 1.377 . S
C860 C862 1.384 . S
C861 C860 1.377 . S
C861 C867 1.390 . S
C862 H853 0.930 . S
C862 C860 1.384 . S
C862 C863 1.372 . S
C863 C862 1.372 . S
C863 C864 1.400 . S
C863 C868 1.490 . S
C864 H854 0.930 . S
C864 C863 1.400 . S
C864 C867 1.386 . S
H865 C881 0.930 . S
H866 C882 0.931 . S
C867 H855 0.929 . S
C867 C861 1.390 . S
C867 C864 1.386 . S
C868 C863 1.490 . S
C868 C870 1.395 . S
C868 C871 1.403 . S
H869 C875 0.930 . S
C870 H856 0.930 . S
C870 C868 1.395 . S
C870 C873 1.403 . S
C871 C868 1.403 . S
C871 C872 1.524 . S
C871 C875 1.400 . S
C872 H857 0.960 . S
C872 H858 0.960 . S
C872 H859 0.960 . S
C872 C871 1.524 . S
C873 C870 1.403 . S
C873 C874 1.392 . S
C873 C877 1.495 . S
C874 C873 1.392 . S
C874 C875 1.385 . S
C874 C876 1.478 . S
C875 H869 0.930 . S
C875 C871 1.400 . S
C875 C874 1.385 . S
C876 C874 1.478 . S
C876 C878 1.381 . S
C876 C882 1.383 . S
C877 C873 1.495 . S
C877 H883 0.959 . S
C877 H884 0.961 . S
C877 H885 0.960 . S
C878 C876 1.381 . S
C878 C879 1.394 . S
C878 H886 0.930 . S
C879 C878 1.394 . S
C879 C880 1.383 . S
C879 H887 0.929 . S
C880 C879 1.383 . S
C880 C881 1.377 . S
C881 H865 0.930 . S
C881 C880 1.377 . S
C881 C882 1.379 . S
C882 H866 0.931 . S
C882 C876 1.383 . S
C882 C881 1.379 . S
H883 C877 0.959 . S
H884 C877 0.961 . S
H885 C877 0.960 . S
H886 C878 0.930 . S
H887 C879 0.929 . S
H888 C896 0.929 . S
H889 C898 0.930 . S
H890 C900 0.930 . S
H891 C903 0.929 . S
H892 C906 0.930 . S
H893 C908 0.960 . S
H894 C908 0.960 . S
H895 C908 0.960 . S
C896 H888 0.929 . S
C896 C897 1.377 . S
C896 C898 1.384 . S
C897 C896 1.377 . S
C897 C903 1.390 . S
C898 H889 0.930 . S
C898 C896 1.384 . S
C898 C899 1.372 . S
C899 C898 1.372 . S
C899 C900 1.400 . S
C899 C904 1.490 . S
C900 H890 0.930 . S
C900 C899 1.400 . S
C900 C903 1.386 . S
H901 C917 0.930 . S
H902 C918 0.931 . S
C903 H891 0.929 . S
C903 C897 1.390 . S
C903 C900 1.386 . S
C904 C899 1.490 . S
C904 C906 1.395 . S
C904 C907 1.403 . S
H905 C911 0.930 . S
C906 H892 0.930 . S
C906 C904 1.395 . S
C906 C909 1.403 . S
C907 C904 1.403 . S
C907 C908 1.524 . S
C907 C911 1.400 . S
C908 H893 0.960 . S
C908 H894 0.960 . S
C908 H895 0.960 . S
C908 C907 1.524 . S
C909 C906 1.403 . S
C909 C910 1.392 . S
C909 C913 1.495 . S
C910 C909 1.392 . S
C910 C911 1.385 . S
C910 C912 1.478 . S
C911 H905 0.930 . S
C911 C907 1.400 . S
C911 C910 1.385 . S
C912 C910 1.478 . S
C912 C914 1.381 . S
C912 C918 1.383 . S
C913 C909 1.495 . S
C913 H919 0.959 . S
C913 H920 0.961 . S
C913 H921 0.960 . S
C914 C912 1.381 . S
C914 C915 1.394 . S
C914 H922 0.930 . S
C915 C914 1.394 . S
C915 C916 1.383 . S
C915 H923 0.929 . S
C916 C915 1.383 . S
C916 C917 1.377 . S
C917 H901 0.930 . S
C917 C916 1.377 . S
C917 C918 1.379 . S
C918 H902 0.931 . S
C918 C912 1.383 . S
C918 C917 1.379 . S
H919 C913 0.959 . S
H920 C913 0.961 . S
H921 C913 0.960 . S
H922 C914 0.930 . S
H923 C915 0.929 . S
H924 C932 0.929 . S
H925 C934 0.930 . S
H926 C936 0.930 . S
H927 C939 0.929 . S
H928 C942 0.930 . S
H929 C944 0.960 . S
H930 C944 0.960 . S
H931 C944 0.960 . S
C932 H924 0.929 . S
C932 C933 1.377 . S
C932 C934 1.384 . S
C933 C932 1.377 . S
C933 C939 1.390 . S
C934 H925 0.930 . S
C934 C932 1.384 . S
C934 C935 1.372 . S
C935 C934 1.372 . S
C935 C936 1.400 . S
C935 C940 1.490 . S
C936 H926 0.930 . S
C936 C935 1.400 . S
C936 C939 1.386 . S
H937 C953 0.930 1_556 S
H938 C954 0.931 . S
C939 H927 0.929 . S
C939 C933 1.390 . S
C939 C936 1.386 . S
C940 C935 1.490 . S
C940 C942 1.395 . S
C940 C943 1.403 . S
H941 C947 0.930 . S
C942 H928 0.930 . S
C942 C940 1.395 . S
C942 C945 1.403 . S
C943 C940 1.403 . S
C943 C944 1.524 . S
C943 C947 1.400 . S
C944 H929 0.960 . S
C944 H930 0.960 . S
C944 H931 0.960 . S
C944 C943 1.524 . S
C945 C942 1.403 . S
C945 C946 1.392 . S
C945 C949 1.495 . S
C946 C945 1.392 . S
C946 C947 1.385 . S
C946 C948 1.478 . S
C947 H941 0.930 . S
C947 C943 1.400 . S
C947 C946 1.385 . S
C948 C946 1.478 . S
C948 C950 1.381 . S
C948 C954 1.383 . S
C949 C945 1.495 . S
C949 H955 0.959 . S
C949 H956 0.961 . S
C949 H957 0.960 . S
C950 C948 1.381 . S
C950 C951 1.394 . S
C950 H958 0.930 . S
C951 C950 1.394 . S
C951 C952 1.383 . S
C951 H959 0.929 . S
C952 C951 1.383 . S
C952 C953 1.377 . S
C953 H937 0.930 1_554 S
C953 C952 1.377 . S
C953 C954 1.379 . S
C954 H938 0.931 . S
C954 C948 1.383 . S
C954 C953 1.379 . S
H955 C949 0.959 . S
H956 C949 0.961 . S
H957 C949 0.960 . S
H958 C950 0.930 . S
H959 C951 0.929 . S
H960 C968 0.929 . S
H961 C970 0.930 . S
H962 C972 0.930 . S
H963 C975 0.929 . S
H964 C978 0.930 . S
H965 C980 0.960 . S
H966 C980 0.960 . S
H967 C980 0.960 . S
C968 H960 0.929 . S
C968 C969 1.377 . S
C968 C970 1.384 . S
C969 C968 1.377 . S
C969 C975 1.390 . S
C970 H961 0.930 . S
C970 C968 1.384 . S
C970 C971 1.372 . S
C971 C970 1.372 . S
C971 C972 1.400 . S
C971 C976 1.490 . S
C972 H962 0.930 . S
C972 C971 1.400 . S
C972 C975 1.386 . S
H973 C989 0.930 1_655 S
H974 C990 0.931 . S
C975 H963 0.929 . S
C975 C969 1.390 . S
C975 C972 1.386 . S
C976 C971 1.490 . S
C976 C978 1.395 . S
C976 C979 1.403 . S
H977 C983 0.930 . S
C978 H964 0.930 . S
C978 C976 1.395 . S
C978 C981 1.403 . S
C979 C976 1.403 . S
C979 C980 1.524 . S
C979 C983 1.400 . S
C980 H965 0.960 . S
C980 H966 0.960 . S
C980 H967 0.960 . S
C980 C979 1.524 . S
C981 C978 1.403 . S
C981 C982 1.392 . S
C981 C985 1.495 . S
C982 C981 1.392 . S
C982 C983 1.385 . S
C982 C984 1.478 . S
C983 H977 0.930 . S
C983 C979 1.400 . S
C983 C982 1.385 . S
C984 C982 1.478 . S
C984 C986 1.381 . S
C984 C990 1.383 . S
C985 C981 1.495 . S
C985 H991 0.959 . S
C985 H992 0.961 . S
C985 H993 0.960 . S
C986 C984 1.381 . S
C986 C987 1.394 . S
C986 H994 0.930 . S
C987 C986 1.394 . S
C987 C988 1.383 1_455 S
C987 H995 0.909 1_455 S
C988 C987 1.383 1_655 S
C988 C989 1.377 1_655 S
C989 H973 0.930 1_455 S
C989 C988 1.377 1_455 S
C989 C990 1.379 . S
C990 H974 0.931 . S
C990 C984 1.383 . S
C990 C989 1.379 . S
H991 C985 0.959 . S
H992 C985 0.961 . S
H993 C985 0.960 . S
H994 C986 0.930 . S
H995 C987 0.909 1_655 S
H996 C1004 0.929 . S
H997 C1006 0.930 . S
H998 C1008 0.930 . S
H999 C1011 0.929 . S
H1000 C1014 0.930 . S
H1001 C1016 0.960 . S
H1002 C1016 0.960 . S
H1003 C1016 0.960 . S
C1004 H996 0.929 . S
C1004 C1005 1.377 . S
C1004 C1006 1.384 . S
C1005 C1004 1.377 . S
C1005 C1011 1.390 . S
C1006 H997 0.930 . S
C1006 C1004 1.384 . S
C1006 C1007 1.372 . S
C1007 C1006 1.372 . S
C1007 C1008 1.400 . S
C1007 C1012 1.490 . S
C1008 H998 0.930 . S
C1008 C1007 1.400 . S
C1008 C1011 1.386 . S
H1009 C1025 0.930 . S
H1010 C1026 0.931 . S
C1011 H999 0.929 . S
C1011 C1005 1.390 . S
C1011 C1008 1.386 . S
C1012 C1007 1.490 . S
C1012 C1014 1.395 . S
C1012 C1015 1.403 . S
H1013 C1019 0.930 . S
C1014 H1000 0.930 . S
C1014 C1012 1.395 . S
C1014 C1017 1.403 . S
C1015 C1012 1.403 . S
C1015 C1016 1.524 . S
C1015 C1019 1.400 . S
C1016 H1001 0.960 . S
C1016 H1002 0.960 . S
C1016 H1003 0.960 . S
C1016 C1015 1.524 . S
C1017 C1014 1.403 . S
C1017 C1018 1.392 . S
C1017 C1021 1.495 . S
C1018 C1017 1.392 . S
C1018 C1019 1.385 . S
C1018 C1020 1.478 . S
C1019 H1013 0.930 . S
C1019 C1015 1.400 . S
C1019 C1018 1.385 . S
C1020 C1018 1.478 . S
C1020 C1022 1.381 . S
C1020 C1026 1.383 . S
C1021 C1017 1.495 . S
C1021 H1027 0.959 . S
C1021 H1028 0.961 . S
C1021 H1029 0.960 . S
C1022 C1020 1.381 . S
C1022 C1023 1.394 . S
C1022 H1030 0.930 . S
C1023 C1022 1.394 . S
C1023 C1024 1.383 . S
C1023 H1031 0.929 . S
C1024 C1023 1.383 . S
C1024 C1025 1.377 . S
C1025 H1009 0.930 . S
C1025 C1024 1.377 . S
C1025 C1026 1.379 . S
C1026 H1010 0.931 . S
C1026 C1020 1.383 . S
C1026 C1025 1.379 . S
H1027 C1021 0.959 . S
H1028 C1021 0.961 . S
H1029 C1021 0.960 . S
H1030 C1022 0.930 . S
H1031 C1023 0.929 . S
H1032 C1040 0.929 . S
H1033 C1042 0.930 . S
H1034 C1044 0.930 . S
H1035 C1047 0.929 . S
H1036 C1050 0.930 . S
H1037 C1052 0.960 . S
H1038 C1052 0.960 . S
H1039 C1052 0.960 . S
C1040 H1032 0.929 . S
C1040 C1041 1.377 . S
C1040 C1042 1.384 . S
C1041 C1040 1.377 . S
C1041 C1047 1.390 . S
C1042 H1033 0.930 . S
C1042 C1040 1.384 . S
C1042 C1043 1.372 . S
C1043 C1042 1.372 . S
C1043 C1044 1.400 . S
C1043 C1048 1.490 . S
C1044 H1034 0.930 . S
C1044 C1043 1.400 . S
C1044 C1047 1.386 . S
H1045 C1061 0.930 . S
H1046 C1062 0.931 . S
C1047 H1035 0.929 . S
C1047 C1041 1.390 . S
C1047 C1044 1.386 . S
C1048 C1043 1.490 . S
C1048 C1050 1.395 . S
C1048 C1051 1.403 . S
H1049 C1055 0.930 . S
C1050 H1036 0.930 . S
C1050 C1048 1.395 . S
C1050 C1053 1.403 . S
C1051 C1048 1.403 . S
C1051 C1052 1.524 . S
C1051 C1055 1.400 . S
C1052 H1037 0.960 . S
C1052 H1038 0.960 . S
C1052 H1039 0.960 . S
C1052 C1051 1.524 . S
C1053 C1050 1.403 . S
C1053 C1054 1.392 . S
C1053 C1057 1.495 . S
C1054 C1053 1.392 . S
C1054 C1055 1.385 . S
C1054 C1056 1.478 . S
C1055 H1049 0.930 . S
C1055 C1051 1.400 . S
C1055 C1054 1.385 . S
C1056 C1054 1.478 . S
C1056 C1058 1.381 . S
C1056 C1062 1.383 . S
C1057 C1053 1.495 . S
C1057 H1063 0.959 . S
C1057 H1064 0.961 . S
C1057 H1065 0.960 . S
C1058 C1056 1.381 . S
C1058 C1059 1.394 . S
C1058 H1066 0.930 . S
C1059 C1058 1.394 . S
C1059 C1060 1.383 . S
C1059 H1067 0.929 . S
C1060 C1059 1.383 . S
C1060 C1061 1.377 . S
C1061 H1045 0.930 . S
C1061 C1060 1.377 . S
C1061 C1062 1.379 . S
C1062 H1046 0.931 . S
C1062 C1056 1.383 . S
C1062 C1061 1.379 . S
H1063 C1057 0.959 . S
H1064 C1057 0.961 . S
H1065 C1057 0.960 . S
H1066 C1058 0.930 . S
H1067 C1059 0.929 . S
H1068 C1076 0.929 . S
H1069 C1078 0.930 . S
H1070 C1080 0.930 . S
H1071 C1083 0.929 . S
H1072 C1086 0.930 . S
H1073 C1088 0.960 . S
H1074 C1088 0.960 . S
H1075 C1088 0.960 . S
C1076 H1068 0.929 . S
C1076 C1077 1.377 . S
C1076 C1078 1.384 . S
C1077 C1076 1.377 . S
C1077 C1083 1.390 . S
C1078 H1069 0.930 . S
C1078 C1076 1.384 . S
C1078 C1079 1.372 . S
C1079 C1078 1.372 . S
C1079 C1080 1.400 . S
C1079 C1084 1.490 . S
C1080 H1070 0.930 . S
C1080 C1079 1.400 . S
C1080 C1083 1.386 . S
H1081 C1097 0.930 . S
H1082 C1098 0.931 . S
C1083 H1071 0.929 . S
C1083 C1077 1.390 . S
C1083 C1080 1.386 . S
C1084 C1079 1.490 . S
C1084 C1086 1.395 . S
C1084 C1087 1.403 . S
H1085 C1091 0.930 . S
C1086 H1072 0.930 . S
C1086 C1084 1.395 . S
C1086 C1089 1.403 . S
C1087 C1084 1.403 . S
C1087 C1088 1.524 . S
C1087 C1091 1.400 . S
C1088 H1073 0.960 . S
C1088 H1074 0.960 . S
C1088 H1075 0.960 . S
C1088 C1087 1.524 . S
C1089 C1086 1.403 . S
C1089 C1090 1.392 . S
C1089 C1093 1.495 . S
C1090 C1089 1.392 . S
C1090 C1091 1.385 . S
C1090 C1092 1.478 . S
C1091 H1085 0.930 . S
C1091 C1087 1.400 . S
C1091 C1090 1.385 . S
C1092 C1090 1.478 . S
C1092 C1094 1.381 . S
C1092 C1098 1.383 . S
C1093 C1089 1.495 . S
C1093 H1099 0.959 . S
C1093 H1100 0.961 . S
C1093 H1101 0.960 . S
C1094 C1092 1.381 . S
C1094 C1095 1.394 . S
C1094 H1102 0.930 . S
C1095 C1094 1.394 . S
C1095 C1096 1.383 . S
C1095 H1103 0.929 1_556 S
C1096 C1095 1.383 . S
C1096 C1097 1.377 . S
C1097 H1081 0.930 . S
C1097 C1096 1.377 . S
C1097 C1098 1.379 . S
C1098 H1082 0.931 . S
C1098 C1092 1.383 . S
C1098 C1097 1.379 . S
H1099 C1093 0.959 . S
H1100 C1093 0.961 . S
H1101 C1093 0.960 . S
H1102 C1094 0.930 . S
H1103 C1095 0.929 1_554 S
H1104 C1112 0.929 . S
H1105 C1114 0.930 . S
H1106 C1116 0.930 . S
H1107 C1119 0.929 . S
H1108 C1122 0.930 . S
H1109 C1124 0.960 . S
H1110 C1124 0.960 . S
H1111 C1124 0.960 . S
C1112 H1104 0.929 . S
C1112 C1113 1.377 . S
C1112 C1114 1.384 . S
C1113 C1112 1.377 . S
C1113 C1119 1.390 . S
C1114 H1105 0.930 . S
C1114 C1112 1.384 . S
C1114 C1115 1.372 . S
C1115 C1114 1.372 . S
C1115 C1116 1.400 . S
C1115 C1120 1.490 . S
C1116 H1106 0.930 . S
C1116 C1115 1.400 . S
C1116 C1119 1.386 . S
H1117 C1133 0.930 . S
H1118 C1134 0.931 . S
C1119 H1107 0.929 . S
C1119 C1113 1.390 . S
C1119 C1116 1.386 . S
C1120 C1115 1.490 . S
C1120 C1122 1.395 . S
C1120 C1123 1.403 . S
H1121 C1127 0.930 . S
C1122 H1108 0.930 . S
C1122 C1120 1.395 . S
C1122 C1125 1.403 . S
C1123 C1120 1.403 . S
C1123 C1124 1.524 . S
C1123 C1127 1.400 . S
C1124 H1109 0.960 . S
C1124 H1110 0.960 . S
C1124 H1111 0.960 . S
C1124 C1123 1.524 . S
C1125 C1122 1.403 . S
C1125 C1126 1.392 . S
C1125 C1129 1.495 . S
C1126 C1125 1.392 . S
C1126 C1127 1.385 . S
C1126 C1128 1.478 . S
C1127 H1121 0.930 . S
C1127 C1123 1.400 . S
C1127 C1126 1.385 . S
C1128 C1126 1.478 . S
C1128 C1130 1.381 . S
C1128 C1134 1.383 . S
C1129 C1125 1.495 . S
C1129 H1135 0.959 . S
C1129 H1136 0.961 . S
C1129 H1137 0.960 . S
C1130 C1128 1.381 . S
C1130 C1131 1.394 . S
C1130 H1138 0.930 . S
C1131 C1130 1.394 . S
C1131 C1132 1.383 . S
C1131 H1139 0.929 . S
C1132 C1131 1.383 . S
C1132 C1133 1.377 . S
C1133 H1117 0.930 . S
C1133 C1132 1.377 . S
C1133 C1134 1.379 . S
C1134 H1118 0.931 . S
C1134 C1128 1.383 . S
C1134 C1133 1.379 . S
H1135 C1129 0.959 . S
H1136 C1129 0.961 . S
H1137 C1129 0.960 . S
H1138 C1130 0.930 . S
H1139 C1131 0.929 . S
H1140 C1148 0.929 . S
H1141 C1150 0.930 . S
H1142 C1152 0.930 . S
H1143 C1155 0.929 . S
H1144 C1158 0.930 . S
H1145 C1160 0.960 . S
H1146 C1160 0.960 . S
H1147 C1160 0.960 . S
C1148 H1140 0.929 . S
C1148 C1149 1.377 . S
C1148 C1150 1.384 . S
C1149 C1148 1.377 . S
C1149 C1155 1.390 . S
C1150 H1141 0.930 . S
C1150 C1148 1.384 . S
C1150 C1151 1.372 . S
C1151 C1150 1.372 . S
C1151 C1152 1.400 . S
C1151 C1156 1.490 . S
C1152 H1142 0.930 . S
C1152 C1151 1.400 . S
C1152 C1155 1.386 . S
H1153 C1169 0.930 . S
H1154 C1170 0.931 . S
C1155 H1143 0.929 . S
C1155 C1149 1.390 . S
C1155 C1152 1.386 . S
C1156 C1151 1.490 . S
C1156 C1158 1.395 . S
C1156 C1159 1.403 . S
H1157 C1163 0.930 . S
C1158 H1144 0.930 . S
C1158 C1156 1.395 . S
C1158 C1161 1.403 . S
C1159 C1156 1.403 . S
C1159 C1160 1.524 . S
C1159 C1163 1.400 . S
C1160 H1145 0.960 . S
C1160 H1146 0.960 . S
C1160 H1147 0.960 . S
C1160 C1159 1.524 . S
C1161 C1158 1.403 . S
C1161 C1162 1.392 . S
C1161 C1165 1.495 . S
C1162 C1161 1.392 . S
C1162 C1163 1.385 . S
C1162 C1164 1.478 . S
C1163 H1157 0.930 . S
C1163 C1159 1.400 . S
C1163 C1162 1.385 . S
C1164 C1162 1.478 . S
C1164 C1166 1.381 . S
C1164 C1170 1.383 . S
C1165 C1161 1.495 . S
C1165 H1171 0.959 . S
C1165 H1172 0.961 . S
C1165 H1173 0.960 . S
C1166 C1164 1.381 . S
C1166 C1167 1.394 . S
C1166 H1174 0.930 . S
C1167 C1166 1.394 . S
C1167 C1168 1.383 . S
C1167 H1175 0.929 . S
C1168 C1167 1.383 . S
C1168 C1169 1.377 . S
C1169 H1153 0.930 . S
C1169 C1168 1.377 . S
C1169 C1170 1.379 . S
C1170 H1154 0.931 . S
C1170 C1164 1.383 . S
C1170 C1169 1.379 . S
H1171 C1165 0.959 . S
H1172 C1165 0.961 . S
H1173 C1165 0.960 . S
H1174 C1166 0.930 . S
H1175 C1167 0.929 . S
H1176 C1184 0.929 . S
H1177 C1186 0.930 . S
H1178 C1188 0.930 . S
H1179 C1191 0.929 . S
H1180 C1194 0.930 . S
H1181 C1196 0.960 . S
H1182 C1196 0.960 . S
H1183 C1196 0.960 . S
C1184 H1176 0.929 . S
C1184 C1185 1.377 . S
C1184 C1186 1.384 . S
C1185 C1184 1.377 . S
C1185 C1191 1.390 . S
C1186 H1177 0.930 . S
C1186 C1184 1.384 . S
C1186 C1187 1.372 . S
C1187 C1186 1.372 . S
C1187 C1188 1.400 . S
C1187 C1192 1.490 . S
C1188 H1178 0.930 . S
C1188 C1187 1.400 . S
C1188 C1191 1.386 . S
H1189 C1205 0.930 . S
H1190 C1206 0.931 . S
C1191 H1179 0.929 . S
C1191 C1185 1.390 . S
C1191 C1188 1.386 . S
C1192 C1187 1.490 . S
C1192 C1194 1.395 . S
C1192 C1195 1.403 . S
H1193 C1199 0.930 . S
C1194 H1180 0.930 . S
C1194 C1192 1.395 . S
C1194 C1197 1.403 . S
C1195 C1192 1.403 . S
C1195 C1196 1.524 . S
C1195 C1199 1.400 . S
C1196 H1181 0.960 . S
C1196 H1182 0.960 . S
C1196 H1183 0.960 . S
C1196 C1195 1.524 . S
C1197 C1194 1.403 . S
C1197 C1198 1.392 . S
C1197 C1201 1.495 . S
C1198 C1197 1.392 . S
C1198 C1199 1.385 . S
C1198 C1200 1.478 . S
C1199 H1193 0.930 . S
C1199 C1195 1.400 . S
C1199 C1198 1.385 . S
C1200 C1198 1.478 . S
C1200 C1202 1.381 . S
C1200 C1206 1.383 . S
C1201 C1197 1.495 . S
C1201 H1207 0.959 . S
C1201 H1208 0.961 . S
C1201 H1209 0.960 . S
C1202 C1200 1.381 . S
C1202 C1203 1.394 . S
C1202 H1210 0.930 . S
C1203 C1202 1.394 . S
C1203 C1204 1.383 . S
C1203 H1211 0.929 . S
C1204 C1203 1.383 . S
C1204 C1205 1.377 . S
C1205 H1189 0.930 . S
C1205 C1204 1.377 . S
C1205 C1206 1.379 . S
C1206 H1190 0.931 . S
C1206 C1200 1.383 . S
C1206 C1205 1.379 . S
H1207 C1201 0.959 . S
H1208 C1201 0.961 . S
H1209 C1201 0.960 . S
H1210 C1202 0.930 . S
H1211 C1203 0.929 . S
H1212 C1220 0.929 1_455 S
H1213 C1222 0.930 . S
H1214 C1224 0.930 . S
H1215 C1227 0.929 . S
H1216 C1230 0.930 . S
H1217 C1232 0.960 1_554 S
H1218 C1232 0.960 . S
H1219 C1232 0.960 . S
C1220 H1212 0.929 1_655 S
C1220 C1221 1.377 . S
C1220 C1222 1.384 1_655 S
C1221 C1220 1.377 . S
C1221 C1227 1.390 . S
C1222 H1213 0.930 . S
C1222 C1220 1.384 1_455 S
C1222 C1223 1.372 1_455 S
C1223 C1222 1.372 1_655 S
C1223 C1224 1.400 . S
C1223 C1228 1.490 1_655 S
C1224 H1214 0.930 . S
C1224 C1223 1.400 . S
C1224 C1227 1.386 . S
H1225 C1241 0.930 . S
H1226 C1242 0.931 . S
C1227 H1215 0.929 . S
C1227 C1221 1.390 . S
C1227 C1224 1.386 . S
C1228 C1223 1.490 1_455 S
C1228 C1230 1.395 . S
C1228 C1231 1.403 1_455 S
H1229 C1235 0.930 1_655 S
C1230 H1216 0.930 . S
C1230 C1228 1.395 . S
C1230 C1233 1.403 . S
C1231 C1228 1.403 1_655 S
C1231 C1232 1.524 . S
C1231 C1235 1.400 1_656 S
C1232 H1217 0.960 1_556 S
C1232 H1218 0.960 . S
C1232 H1219 0.960 . S
C1232 C1231 1.524 . S
C1233 C1230 1.403 . S
C1233 C1234 1.392 1_556 S
C1233 C1237 1.495 . S
C1234 C1233 1.392 1_554 S
C1234 C1235 1.385 . S
C1234 C1236 1.478 . S
C1235 H1229 0.930 1_455 S
C1235 C1231 1.400 1_454 S
C1235 C1234 1.385 . S
C1236 C1234 1.478 . S
C1236 C1238 1.381 . S
C1236 C1242 1.383 . S
C1237 C1233 1.495 . S
C1237 H1243 0.959 . S
C1237 H1244 0.961 . S
C1237 H1245 0.960 1_556 S
C1238 C1236 1.381 . S
C1238 C1239 1.394 . S
C1238 H1246 0.930 . S
C1239 C1238 1.394 . S
C1239 C1240 1.383 . S
C1239 H1247 0.929 . S
C1240 C1239 1.383 . S
C1240 C1241 1.377 . S
C1241 H1225 0.930 . S
C1241 C1240 1.377 . S
C1241 C1242 1.379 . S
C1242 H1226 0.931 . S
C1242 C1236 1.383 . S
C1242 C1241 1.379 . S
H1243 C1237 0.959 . S
H1244 C1237 0.961 . S
H1245 C1237 0.960 1_554 S
H1246 C1238 0.930 . S
H1247 C1239 0.929 . S
H1248 C1256 0.929 . S
H1249 C1258 0.930 . S
H1250 C1260 0.930 . S
H1251 C1263 0.929 . S
H1252 C1266 0.930 . S
H1253 C1268 0.960 . S
H1254 C1268 0.960 . S
H1255 C1268 0.960 . S
C1256 H1248 0.929 . S
C1256 C1257 1.377 . S
C1256 C1258 1.384 . S
C1257 C1256 1.377 . S
C1257 C1263 1.390 . S
C1258 H1249 0.930 . S
C1258 C1256 1.384 . S
C1258 C1259 1.372 . S
C1259 C1258 1.372 . S
C1259 C1260 1.400 . S
C1259 C1264 1.490 . S
C1260 H1250 0.930 . S
C1260 C1259 1.400 . S
C1260 C1263 1.386 . S
H1261 C1277 0.930 . S
H1262 C1278 0.931 . S
C1263 H1251 0.929 . S
C1263 C1257 1.390 . S
C1263 C1260 1.386 . S
C1264 C1259 1.490 . S
C1264 C1266 1.395 . S
C1264 C1267 1.403 . S
H1265 C1271 0.930 . S
C1266 H1252 0.930 . S
C1266 C1264 1.395 . S
C1266 C1269 1.403 . S
C1267 C1264 1.403 . S
C1267 C1268 1.524 . S
C1267 C1271 1.400 . S
C1268 H1253 0.960 . S
C1268 H1254 0.960 . S
C1268 H1255 0.960 . S
C1268 C1267 1.524 . S
C1269 C1266 1.403 . S
C1269 C1270 1.392 . S
C1269 C1273 1.495 . S
C1270 C1269 1.392 . S
C1270 C1271 1.385 . S
C1270 C1272 1.478 . S
C1271 H1265 0.930 . S
C1271 C1267 1.400 . S
C1271 C1270 1.385 . S
C1272 C1270 1.478 . S
C1272 C1274 1.381 . S
C1272 C1278 1.383 . S
C1273 C1269 1.495 . S
C1273 H1279 0.959 . S
C1273 H1280 0.961 . S
C1273 H1281 0.960 . S
C1274 C1272 1.381 . S
C1274 C1275 1.394 . S
C1274 H1282 0.930 . S
C1275 C1274 1.394 . S
C1275 C1276 1.383 . S
C1275 H1283 0.929 . S
C1276 C1275 1.383 . S
C1276 C1277 1.377 . S
C1277 H1261 0.930 . S
C1277 C1276 1.377 . S
C1277 C1278 1.379 . S
C1278 H1262 0.931 . S
C1278 C1272 1.383 . S
C1278 C1277 1.379 . S
H1279 C1273 0.959 . S
H1280 C1273 0.961 . S
H1281 C1273 0.960 . S
H1282 C1274 0.930 . S
H1283 C1275 0.929 . S
H1284 C1292 0.929 . S
H1285 C1294 0.930 . S
H1286 C1296 0.930 . S
H1287 C1299 0.929 . S
H1288 C1302 0.930 . S
H1289 C1304 0.960 . S
H1290 C1304 0.960 . S
H1291 C1304 0.960 . S
C1292 H1284 0.929 . S
C1292 C1293 1.377 . S
C1292 C1294 1.384 . S
C1293 C1292 1.377 . S
C1293 C1299 1.390 . S
C1294 H1285 0.930 . S
C1294 C1292 1.384 . S
C1294 C1295 1.372 . S
C1295 C1294 1.372 . S
C1295 C1296 1.400 . S
C1295 C1300 1.490 . S
C1296 H1286 0.930 . S
C1296 C1295 1.400 . S
C1296 C1299 1.386 . S
H1297 C1313 0.930 . S
H1298 C1314 0.931 . S
C1299 H1287 0.929 . S
C1299 C1293 1.390 . S
C1299 C1296 1.386 . S
C1300 C1295 1.490 . S
C1300 C1302 1.395 . S
C1300 C1303 1.403 . S
H1301 C1307 0.930 . S
C1302 H1288 0.930 . S
C1302 C1300 1.395 . S
C1302 C1305 1.403 . S
C1303 C1300 1.403 . S
C1303 C1304 1.524 . S
C1303 C1307 1.400 . S
C1304 H1289 0.960 . S
C1304 H1290 0.960 . S
C1304 H1291 0.960 . S
C1304 C1303 1.524 . S
C1305 C1302 1.403 . S
C1305 C1306 1.392 . S
C1305 C1309 1.495 . S
C1306 C1305 1.392 . S
C1306 C1307 1.385 . S
C1306 C1308 1.478 . S
C1307 H1301 0.930 . S
C1307 C1303 1.400 . S
C1307 C1306 1.385 . S
C1308 C1306 1.478 . S
C1308 C1310 1.381 . S
C1308 C1314 1.383 . S
C1309 C1305 1.495 . S
C1309 H1315 0.959 . S
C1309 H1316 0.961 . S
C1309 H1317 0.960 . S
C1310 C1308 1.381 . S
C1310 C1311 1.394 . S
C1310 H1318 0.930 . S
C1311 C1310 1.394 . S
C1311 C1312 1.383 . S
C1311 H1319 0.929 . S
C1312 C1311 1.383 . S
C1312 C1313 1.377 . S
C1313 H1297 0.930 . S
C1313 C1312 1.377 . S
C1313 C1314 1.379 . S
C1314 H1298 0.931 . S
C1314 C1308 1.383 . S
C1314 C1313 1.379 . S
H1315 C1309 0.959 . S
H1316 C1309 0.961 . S
H1317 C1309 0.960 . S
H1318 C1310 0.930 . S
H1319 C1311 0.929 . S
H1320 C1328 0.929 . S
H1321 C1330 0.930 . S
H1322 C1332 0.930 . S
H1323 C1335 0.929 . S
H1324 C1338 0.930 . S
H1325 C1340 0.960 . S
H1326 C1340 0.949 1_655 S
H1327 C1340 0.960 . S
C1328 H1320 0.929 . S
C1328 C1329 1.377 . S
C1328 C1330 1.384 . S
C1329 C1328 1.377 . S
C1329 C1335 1.390 . S
C1330 H1321 0.930 . S
C1330 C1328 1.384 . S
C1330 C1331 1.372 . S
C1331 C1330 1.372 . S
C1331 C1332 1.400 1_565 S
C1331 C1336 1.490 1_565 S
C1332 H1322 0.930 . S
C1332 C1331 1.400 1_545 S
C1332 C1335 1.386 1_545 S
H1333 C1349 0.930 . S
H1334 C1350 0.931 . S
C1335 H1323 0.929 . S
C1335 C1329 1.390 . S
C1335 C1332 1.386 1_565 S
C1336 C1331 1.490 1_545 S
C1336 C1338 1.395 . S
C1336 C1339 1.403 1_545 S
H1337 C1343 0.984 . S
C1338 H1324 0.930 . S
C1338 C1336 1.395 . S
C1338 C1341 1.403 1_554 S
C1339 C1336 1.403 1_565 S
C1339 C1340 1.524 1_655 S
C1339 C1343 1.383 1_664 S
C1340 H1325 0.960 . S
C1340 H1326 0.949 1_455 S
C1340 H1327 0.960 . S
C1340 C1339 1.524 1_455 S
C1341 C1338 1.403 1_556 S
C1341 C1342 1.392 . S
C1341 C1345 1.495 . S
C1342 C1341 1.392 . S
C1342 C1343 1.354 1_655 S
C1342 C1344 1.478 . S
C1343 H1337 0.984 . S
C1343 C1339 1.383 1_446 S
C1343 C1342 1.354 1_455 S
C1344 C1342 1.478 . S
C1344 C1346 1.381 . S
C1344 C1350 1.383 1_655 S
C1345 C1341 1.495 . S
C1345 H1351 0.959 . S
C1345 H1352 0.961 . S
C1345 H1353 0.960 . S
C1346 C1344 1.381 . S
C1346 C1347 1.394 . S
C1346 H1354 0.930 . S
C1347 C1346 1.394 . S
C1347 C1348 1.383 1_655 S
C1347 H1355 0.929 . S
C1348 C1347 1.383 1_455 S
C1348 C1349 1.377 . S
C1349 H1333 0.930 . S
C1349 C1348 1.377 . S
C1349 C1350 1.379 . S
C1350 H1334 0.931 . S
C1350 C1344 1.383 1_455 S
C1350 C1349 1.379 . S
H1351 C1345 0.959 . S
H1352 C1345 0.961 . S
H1353 C1345 0.960 . S
H1354 C1346 0.930 . S
H1355 C1347 0.929 . S
H1356 C1364 0.929 . S
H1357 C1366 0.930 . S
H1358 C1368 0.930 . S
H1359 C1371 0.929 . S
H1360 C1374 0.930 . S
H1361 C1376 0.960 . S
H1362 C1376 0.960 . S
H1363 C1376 0.960 . S
C1364 H1356 0.929 . S
C1364 C1365 1.377 . S
C1364 C1366 1.384 . S
C1365 C1364 1.377 . S
C1365 C1371 1.390 . S
C1366 H1357 0.930 . S
C1366 C1364 1.384 . S
C1366 C1367 1.372 . S
C1367 C1366 1.372 . S
C1367 C1368 1.400 . S
C1367 C1372 1.490 . S
C1368 H1358 0.930 . S
C1368 C1367 1.400 . S
C1368 C1371 1.386 . S
H1369 C1385 0.930 . S
H1370 C1386 0.931 . S
C1371 H1359 0.929 . S
C1371 C1365 1.390 . S
C1371 C1368 1.386 . S
C1372 C1367 1.490 . S
C1372 C1374 1.395 . S
C1372 C1375 1.403 . S
H1373 C1379 0.930 . S
C1374 H1360 0.930 . S
C1374 C1372 1.395 . S
C1374 C1377 1.403 . S
C1375 C1372 1.403 . S
C1375 C1376 1.524 1_565 S
C1375 C1379 1.400 1_565 S
C1376 H1361 0.960 . S
C1376 H1362 0.960 . S
C1376 H1363 0.960 . S
C1376 C1375 1.524 1_545 S
C1377 C1374 1.403 . S
C1377 C1378 1.392 . S
C1377 C1381 1.495 . S
C1378 C1377 1.392 . S
C1378 C1379 1.385 1_565 S
C1378 C1380 1.478 . S
C1379 H1373 0.930 . S
C1379 C1375 1.400 1_545 S
C1379 C1378 1.385 1_545 S
C1380 C1378 1.478 . S
C1380 C1382 1.381 . S
C1380 C1386 1.383 1_565 S
C1381 C1377 1.495 . S
C1381 H1387 0.959 . S
C1381 H1388 0.961 . S
C1381 H1389 0.960 . S
C1382 C1380 1.381 . S
C1382 C1383 1.394 . S
C1382 H1390 0.930 . S
C1383 C1382 1.394 . S
C1383 C1384 1.383 1_565 S
C1383 H1391 0.929 . S
C1384 C1383 1.383 1_545 S
C1384 C1385 1.377 . S
C1385 H1369 0.930 . S
C1385 C1384 1.377 . S
C1385 C1386 1.379 . S
C1386 H1370 0.931 . S
C1386 C1380 1.383 1_545 S
C1386 C1385 1.379 . S
H1387 C1381 0.959 . S
H1388 C1381 0.961 . S
H1389 C1381 0.960 . S
H1390 C1382 0.930 . S
H1391 C1383 0.929 . S
H1392 C1400 0.929 . S
H1393 C1402 0.930 . S
H1394 C1404 0.930 . S
H1395 C1407 0.929 . S
H1396 C1410 0.930 . S
H1397 C1412 0.960 . S
H1398 C1412 0.960 . S
H1399 C1412 0.960 . S
C1400 H1392 0.929 . S
C1400 C1401 1.377 . S
C1400 C1402 1.384 . S
C1401 C1400 1.377 . S
C1401 C1407 1.390 . S
C1402 H1393 0.930 . S
C1402 C1400 1.384 . S
C1402 C1403 1.372 . S
C1403 C1402 1.372 . S
C1403 C1404 1.400 . S
C1403 C1408 1.490 . S
C1404 H1394 0.930 . S
C1404 C1403 1.400 . S
C1404 C1407 1.386 . S
H1405 C1421 0.930 . S
H1406 C1422 0.931 . S
C1407 H1395 0.929 . S
C1407 C1401 1.390 . S
C1407 C1404 1.386 . S
C1408 C1403 1.490 . S
C1408 C1410 1.395 . S
C1408 C1411 1.403 . S
H1409 C1415 0.930 . S
C1410 H1396 0.930 . S
C1410 C1408 1.395 . S
C1410 C1413 1.403 . S
C1411 C1408 1.403 . S
C1411 C1412 1.524 . S
C1411 C1415 1.400 . S
C1412 H1397 0.960 . S
C1412 H1398 0.960 . S
C1412 H1399 0.960 . S
C1412 C1411 1.524 . S
C1413 C1410 1.403 . S
C1413 C1414 1.392 . S
C1413 C1417 1.495 . S
C1414 C1413 1.392 . S
C1414 C1415 1.385 . S
C1414 C1416 1.478 . S
C1415 H1409 0.930 . S
C1415 C1411 1.400 . S
C1415 C1414 1.385 . S
C1416 C1414 1.478 . S
C1416 C1418 1.381 . S
C1416 C1422 1.383 . S
C1417 C1413 1.495 . S
C1417 H1423 0.959 . S
C1417 H1424 0.961 . S
C1417 H1425 0.960 . S
C1418 C1416 1.381 . S
C1418 C1419 1.394 . S
C1418 H1426 0.930 . S
C1419 C1418 1.394 . S
C1419 C1420 1.383 . S
C1419 H1427 0.929 . S
C1420 C1419 1.383 . S
C1420 C1421 1.377 . S
C1421 H1405 0.930 . S
C1421 C1420 1.377 . S
C1421 C1422 1.379 . S
C1422 H1406 0.931 . S
C1422 C1416 1.383 . S
C1422 C1421 1.379 . S
H1423 C1417 0.959 . S
H1424 C1417 0.961 . S
H1425 C1417 0.960 . S
H1426 C1418 0.930 . S
H1427 C1419 0.929 . S
H1428 C1436 0.929 . S
H1429 C1438 0.930 . S
H1430 C1440 0.930 . S
H1431 C1443 0.929 . S
H1432 C1446 0.930 . S
H1433 C1448 0.960 . S
H1434 C1448 0.960 . S
H1435 C1448 0.960 . S
C1436 H1428 0.929 . S
C1436 C1437 1.377 . S
C1436 C1438 1.384 . S
C1437 C1436 1.377 . S
C1437 C1443 1.390 . S
C1438 H1429 0.930 . S
C1438 C1436 1.384 . S
C1438 C1439 1.372 . S
C1439 C1438 1.372 . S
C1439 C1440 1.400 . S
C1439 C1444 1.490 . S
C1440 H1430 0.930 . S
C1440 C1439 1.400 . S
C1440 C1443 1.386 . S
H1441 C1457 0.930 . S
H1442 C1458 0.931 . S
C1443 H1431 0.929 . S
C1443 C1437 1.390 . S
C1443 C1440 1.386 . S
C1444 C1439 1.490 . S
C1444 C1446 1.395 . S
C1444 C1447 1.403 . S
H1445 C1451 0.930 . S
C1446 H1432 0.930 . S
C1446 C1444 1.395 . S
C1446 C1449 1.403 . S
C1447 C1444 1.403 . S
C1447 C1448 1.524 . S
C1447 C1451 1.400 . S
C1448 H1433 0.960 . S
C1448 H1434 0.960 . S
C1448 H1435 0.960 . S
C1448 C1447 1.524 . S
C1449 C1446 1.403 . S
C1449 C1450 1.392 . S
C1449 C1453 1.495 . S
C1450 C1449 1.392 . S
C1450 C1451 1.385 . S
C1450 C1452 1.478 . S
C1451 H1445 0.930 . S
C1451 C1447 1.400 . S
C1451 C1450 1.385 . S
C1452 C1450 1.478 . S
C1452 C1454 1.381 . S
C1452 C1458 1.383 . S
C1453 C1449 1.495 . S
C1453 H1459 0.959 . S
C1453 H1460 0.961 . S
C1453 H1461 0.960 . S
C1454 C1452 1.381 . S
C1454 C1455 1.394 . S
C1454 H1462 0.930 . S
C1455 C1454 1.394 . S
C1455 C1456 1.383 . S
C1455 H1463 0.929 . S
C1456 C1455 1.383 . S
C1456 C1457 1.377 . S
C1457 H1441 0.930 . S
C1457 C1456 1.377 . S
C1457 C1458 1.379 . S
C1458 H1442 0.931 . S
C1458 C1452 1.383 . S
C1458 C1457 1.379 . S
H1459 C1453 0.959 . S
H1460 C1453 0.961 . S
H1461 C1453 0.960 . S
H1462 C1454 0.930 . S
H1463 C1455 0.929 . S
H1464 C1472 0.929 . S
H1465 C1474 0.930 . S
H1466 C1476 0.930 . S
H1467 C1479 0.929 . S
H1468 C1482 0.930 . S
H1469 C1484 0.960 . S
H1470 C1484 0.960 . S
H1471 C1484 0.960 . S
C1472 H1464 0.929 . S
C1472 C1473 1.377 . S
C1472 C1474 1.384 . S
C1473 C1472 1.377 . S
C1473 C1479 1.390 . S
C1474 H1465 0.930 . S
C1474 C1472 1.384 . S
C1474 C1475 1.372 . S
C1475 C1474 1.372 . S
C1475 C1476 1.400 . S
C1475 C1480 1.490 . S
C1476 H1466 0.930 . S
C1476 C1475 1.400 . S
C1476 C1479 1.386 . S
H1477 C1493 0.930 . S
H1478 C1494 0.931 . S
C1479 H1467 0.929 . S
C1479 C1473 1.390 . S
C1479 C1476 1.386 . S
C1480 C1475 1.490 . S
C1480 C1482 1.395 . S
C1480 C1483 1.403 . S
H1481 C1487 0.930 . S
C1482 H1468 0.930 . S
C1482 C1480 1.395 . S
C1482 C1485 1.403 . S
C1483 C1480 1.403 . S
C1483 C1484 1.524 . S
C1483 C1487 1.400 . S
C1484 H1469 0.960 . S
C1484 H1470 0.960 . S
C1484 H1471 0.960 . S
C1484 C1483 1.524 . S
C1485 C1482 1.403 . S
C1485 C1486 1.392 . S
C1485 C1489 1.495 . S
C1486 C1485 1.392 . S
C1486 C1487 1.385 . S
C1486 C1488 1.478 . S
C1487 H1481 0.930 . S
C1487 C1483 1.400 . S
C1487 C1486 1.385 . S
C1488 C1486 1.478 . S
C1488 C1490 1.381 . S
C1488 C1494 1.383 . S
C1489 C1485 1.495 . S
C1489 H1495 0.959 . S
C1489 H1496 0.961 . S
C1489 H1497 0.960 . S
C1490 C1488 1.381 . S
C1490 C1491 1.394 . S
C1490 H1498 0.930 . S
C1491 C1490 1.394 . S
C1491 C1492 1.383 . S
C1491 H1499 0.929 . S
C1492 C1491 1.383 . S
C1492 C1493 1.377 . S
C1493 H1477 0.930 . S
C1493 C1492 1.377 . S
C1493 C1494 1.379 . S
C1494 H1478 0.931 . S
C1494 C1488 1.383 . S
C1494 C1493 1.379 . S
H1495 C1489 0.959 . S
H1496 C1489 0.961 . S
H1497 C1489 0.960 . S
H1498 C1490 0.930 . S
H1499 C1491 0.929 . S
H1500 C1508 0.929 . S
H1501 C1510 0.930 . S
H1502 C1512 0.930 . S
H1503 C1515 0.929 . S
H1504 C1518 0.930 . S
H1505 C1520 0.960 . S
H1506 C1520 0.960 . S
H1507 C1520 0.960 . S
C1508 H1500 0.929 . S
C1508 C1509 1.377 . S
C1508 C1510 1.384 . S
C1509 C1508 1.377 . S
C1509 C1515 1.390 . S
C1510 H1501 0.930 . S
C1510 C1508 1.384 . S
C1510 C1511 1.372 . S
C1511 C1510 1.372 . S
C1511 C1512 1.400 . S
C1511 C1516 1.490 . S
C1512 H1502 0.930 . S
C1512 C1511 1.400 . S
C1512 C1515 1.386 . S
H1513 C1529 0.930 . S
H1514 C1530 0.931 . S
C1515 H1503 0.929 . S
C1515 C1509 1.390 . S
C1515 C1512 1.386 . S
C1516 C1511 1.490 . S
C1516 C1518 1.395 . S
C1516 C1519 1.403 . S
H1517 C1523 0.930 . S
C1518 H1504 0.930 . S
C1518 C1516 1.395 . S
C1518 C1521 1.403 . S
C1519 C1516 1.403 . S
C1519 C1520 1.524 . S
C1519 C1523 1.400 . S
C1520 H1505 0.960 . S
C1520 H1506 0.960 . S
C1520 H1507 0.960 . S
C1520 C1519 1.524 . S
C1521 C1518 1.403 . S
C1521 C1522 1.392 . S
C1521 C1525 1.495 . S
C1522 C1521 1.392 . S
C1522 C1523 1.385 . S
C1522 C1524 1.478 . S
C1523 H1517 0.930 . S
C1523 C1519 1.400 . S
C1523 C1522 1.385 . S
C1524 C1522 1.478 . S
C1524 C1526 1.381 . S
C1524 C1530 1.383 . S
C1525 C1521 1.495 . S
C1525 H1531 0.959 . S
C1525 H1532 0.961 . S
C1525 H1533 0.960 . S
C1526 C1524 1.381 . S
C1526 C1527 1.394 . S
C1526 H1534 0.930 . S
C1527 C1526 1.394 . S
C1527 C1528 1.383 . S
C1527 H1535 0.929 . S
C1528 C1527 1.383 . S
C1528 C1529 1.377 . S
C1529 H1513 0.930 . S
C1529 C1528 1.377 . S
C1529 C1530 1.379 . S
C1530 H1514 0.931 . S
C1530 C1524 1.383 . S
C1530 C1529 1.379 . S
H1531 C1525 0.959 . S
H1532 C1525 0.961 . S
H1533 C1525 0.960 . S
H1534 C1526 0.930 . S
H1535 C1527 0.929 . S
H1536 C1544 0.929 . S
H1537 C1546 0.930 . S
H1538 C1548 0.930 . S
H1539 C1551 0.929 . S
H1540 C1554 0.930 . S
H1541 C1556 0.960 . S
H1542 C1556 0.960 . S
H1543 C1556 0.960 . S
C1544 H1536 0.929 . S
C1544 C1545 1.377 . S
C1544 C1546 1.384 . S
C1545 C1544 1.377 . S
C1545 C1551 1.390 . S
C1546 H1537 0.930 . S
C1546 C1544 1.384 . S
C1546 C1547 1.372 . S
C1547 C1546 1.372 . S
C1547 C1548 1.400 . S
C1547 C1552 1.490 . S
C1548 H1538 0.930 . S
C1548 C1547 1.400 . S
C1548 C1551 1.386 . S
H1549 C1565 0.930 . S
H1550 C1566 0.931 . S
C1551 H1539 0.929 . S
C1551 C1545 1.390 . S
C1551 C1548 1.386 . S
C1552 C1547 1.490 . S
C1552 C1554 1.395 . S
C1552 C1555 1.403 . S
H1553 C1559 0.930 . S
C1554 H1540 0.930 . S
C1554 C1552 1.395 . S
C1554 C1557 1.403 . S
C1555 C1552 1.403 . S
C1555 C1556 1.524 . S
C1555 C1559 1.400 . S
C1556 H1541 0.960 . S
C1556 H1542 0.960 . S
C1556 H1543 0.960 . S
C1556 C1555 1.524 . S
C1557 C1554 1.403 . S
C1557 C1558 1.392 . S
C1557 C1561 1.495 . S
C1558 C1557 1.392 . S
C1558 C1559 1.385 . S
C1558 C1560 1.478 . S
C1559 H1553 0.930 . S
C1559 C1555 1.400 . S
C1559 C1558 1.385 . S
C1560 C1558 1.478 . S
C1560 C1562 1.381 . S
C1560 C1566 1.383 . S
C1561 C1557 1.495 . S
C1561 H1567 0.959 . S
C1561 H1568 0.961 . S
C1561 H1569 0.960 . S
C1562 C1560 1.381 . S
C1562 C1563 1.394 . S
C1562 H1570 0.930 . S
C1563 C1562 1.394 . S
C1563 C1564 1.383 . S
C1563 H1571 0.929 . S
C1564 C1563 1.383 . S
C1564 C1565 1.377 . S
C1565 H1549 0.930 . S
C1565 C1564 1.377 . S
C1565 C1566 1.379 . S
C1566 H1550 0.931 . S
C1566 C1560 1.383 . S
C1566 C1565 1.379 . S
H1567 C1561 0.959 . S
H1568 C1561 0.961 . S
H1569 C1561 0.960 . S
H1570 C1562 0.930 . S
H1571 C1563 0.929 . S
H1572 C1580 0.929 . S
H1573 C1582 0.930 . S
H1574 C1584 0.930 . S
H1575 C1587 0.929 . S
H1576 C1590 0.930 . S
H1577 C1592 0.960 . S
H1578 C1592 0.960 . S
H1579 C1592 0.960 . S
C1580 H1572 0.929 . S
C1580 C1581 1.377 . S
C1580 C1582 1.384 . S
C1581 C1580 1.377 . S
C1581 C1587 1.390 . S
C1582 H1573 0.930 . S
C1582 C1580 1.384 . S
C1582 C1583 1.372 . S
C1583 C1582 1.372 . S
C1583 C1584 1.400 . S
C1583 C1588 1.490 . S
C1584 H1574 0.930 . S
C1584 C1583 1.400 . S
C1584 C1587 1.386 . S
H1585 C1601 0.930 . S
H1586 C1602 0.931 . S
C1587 H1575 0.929 . S
C1587 C1581 1.390 . S
C1587 C1584 1.386 . S
C1588 C1583 1.490 . S
C1588 C1590 1.395 . S
C1588 C1591 1.403 . S
H1589 C1595 0.930 . S
C1590 H1576 0.930 . S
C1590 C1588 1.395 . S
C1590 C1593 1.403 . S
C1591 C1588 1.403 . S
C1591 C1592 1.524 . S
C1591 C1595 1.400 . S
C1592 H1577 0.960 . S
C1592 H1578 0.960 . S
C1592 H1579 0.960 . S
C1592 C1591 1.524 . S
C1593 C1590 1.403 . S
C1593 C1594 1.392 . S
C1593 C1597 1.495 . S
C1594 C1593 1.392 . S
C1594 C1595 1.385 . S
C1594 C1596 1.478 . S
C1595 H1589 0.930 . S
C1595 C1591 1.400 . S
C1595 C1594 1.385 . S
C1596 C1594 1.478 . S
C1596 C1598 1.381 . S
C1596 C1602 1.383 . S
C1597 C1593 1.495 . S
C1597 H1603 0.959 . S
C1597 H1604 0.961 . S
C1597 H1605 0.960 . S
C1598 C1596 1.381 . S
C1598 C1599 1.394 . S
C1598 H1606 0.930 . S
C1599 C1598 1.394 . S
C1599 C1600 1.383 . S
C1599 H1607 0.929 . S
C1600 C1599 1.383 . S
C1600 C1601 1.377 . S
C1601 H1585 0.930 . S
C1601 C1600 1.377 . S
C1601 C1602 1.379 . S
C1602 H1586 0.931 . S
C1602 C1596 1.383 . S
C1602 C1601 1.379 . S
H1603 C1597 0.959 . S
H1604 C1597 0.961 . S
H1605 C1597 0.960 . S
H1606 C1598 0.930 . S
H1607 C1599 0.929 . S
H1608 C1616 0.929 . S
H1609 C1618 0.930 . S
H1610 C1620 0.930 . S
H1611 C1623 0.929 . S
H1612 C1626 0.930 . S
H1613 C1628 0.960 . S
H1614 C1628 0.960 . S
H1615 C1628 0.960 . S
C1616 H1608 0.929 . S
C1616 C1617 1.377 . S
C1616 C1618 1.384 . S
C1617 C1616 1.377 . S
C1617 C1623 1.390 . S
C1618 H1609 0.930 . S
C1618 C1616 1.384 . S
C1618 C1619 1.372 . S
C1619 C1618 1.372 . S
C1619 C1620 1.400 . S
C1619 C1624 1.490 . S
C1620 H1610 0.930 . S
C1620 C1619 1.400 . S
C1620 C1623 1.386 . S
H1621 C1637 0.930 . S
H1622 C1638 0.931 . S
C1623 H1611 0.929 . S
C1623 C1617 1.390 . S
C1623 C1620 1.386 . S
C1624 C1619 1.490 . S
C1624 C1626 1.395 . S
C1624 C1627 1.403 . S
H1625 C1631 0.930 . S
C1626 H1612 0.930 . S
C1626 C1624 1.395 . S
C1626 C1629 1.403 . S
C1627 C1624 1.403 . S
C1627 C1628 1.524 . S
C1627 C1631 1.400 . S
C1628 H1613 0.960 . S
C1628 H1614 0.960 . S
C1628 H1615 0.960 . S
C1628 C1627 1.524 . S
C1629 C1626 1.403 . S
C1629 C1630 1.392 . S
C1629 C1633 1.495 . S
C1630 C1629 1.392 . S
C1630 C1631 1.385 . S
C1630 C1632 1.478 . S
C1631 H1625 0.930 . S
C1631 C1627 1.400 . S
C1631 C1630 1.385 . S
C1632 C1630 1.478 . S
C1632 C1634 1.381 . S
C1632 C1638 1.383 . S
C1633 C1629 1.495 . S
C1633 H1639 0.959 . S
C1633 H1640 0.961 . S
C1633 H1641 0.960 . S
C1634 C1632 1.381 . S
C1634 C1635 1.394 . S
C1634 H1642 0.930 . S
C1635 C1634 1.394 . S
C1635 C1636 1.383 . S
C1635 H1643 0.929 . S
C1636 C1635 1.383 . S
C1636 C1637 1.377 . S
C1637 H1621 0.930 . S
C1637 C1636 1.377 . S
C1637 C1638 1.379 . S
C1638 H1622 0.931 . S
C1638 C1632 1.383 . S
C1638 C1637 1.379 . S
H1639 C1633 0.959 . S
H1640 C1633 0.961 . S
H1641 C1633 0.960 . S
H1642 C1634 0.930 . S
H1643 C1635 0.929 . S
H1644 C1652 0.929 . S
H1645 C1654 0.930 . S
H1646 C1656 0.930 . S
H1647 C1659 0.929 . S
H1648 C1662 0.930 . S
H1649 C1664 0.960 . S
H1650 C1664 0.960 . S
H1651 C1664 0.960 . S
C1652 H1644 0.929 . S
C1652 C1653 1.377 . S
C1652 C1654 1.384 . S
C1653 C1652 1.377 . S
C1653 C1659 1.390 . S
C1654 H1645 0.930 . S
C1654 C1652 1.384 . S
C1654 C1655 1.372 . S
C1655 C1654 1.372 . S
C1655 C1656 1.400 . S
C1655 C1660 1.490 . S
C1656 H1646 0.930 . S
C1656 C1655 1.400 . S
C1656 C1659 1.386 . S
H1657 C1673 0.930 . S
H1658 C1674 0.931 . S
C1659 H1647 0.929 . S
C1659 C1653 1.390 . S
C1659 C1656 1.386 . S
C1660 C1655 1.490 . S
C1660 C1662 1.395 . S
C1660 C1663 1.403 . S
H1661 C1667 0.930 . S
C1662 H1648 0.930 . S
C1662 C1660 1.395 . S
C1662 C1665 1.403 . S
C1663 C1660 1.403 . S
C1663 C1664 1.524 . S
C1663 C1667 1.400 . S
C1664 H1649 0.960 . S
C1664 H1650 0.960 . S
C1664 H1651 0.960 . S
C1664 C1663 1.524 . S
C1665 C1662 1.403 . S
C1665 C1666 1.392 . S
C1665 C1669 1.495 . S
C1666 C1665 1.392 . S
C1666 C1667 1.385 . S
C1666 C1668 1.478 . S
C1667 H1661 0.930 . S
C1667 C1663 1.400 . S
C1667 C1666 1.385 . S
C1668 C1666 1.478 . S
C1668 C1670 1.381 . S
C1668 C1674 1.383 . S
C1669 C1665 1.495 . S
C1669 H1675 0.959 . S
C1669 H1676 0.961 . S
C1669 H1677 0.960 . S
C1670 C1668 1.381 . S
C1670 C1671 1.394 . S
C1670 H1678 0.930 . S
C1671 C1670 1.394 . S
C1671 C1672 1.383 . S
C1671 H1679 0.929 . S
C1672 C1671 1.383 . S
C1672 C1673 1.377 . S
C1673 H1657 0.930 . S
C1673 C1672 1.377 . S
C1673 C1674 1.379 . S
C1674 H1658 0.931 . S
C1674 C1668 1.383 . S
C1674 C1673 1.379 . S
H1675 C1669 0.959 . S
H1676 C1669 0.961 . S
H1677 C1669 0.960 . S
H1678 C1670 0.930 . S
H1679 C1671 0.929 . S
H1680 C1688 0.929 . S
H1681 C1690 0.930 . S
H1682 C1692 0.930 . S
H1683 C1695 0.929 . S
H1684 C1698 0.930 . S
H1685 C1700 0.960 . S
H1686 C1700 0.960 . S
H1687 C1700 0.960 . S
C1688 H1680 0.929 . S
C1688 C1689 1.377 . S
C1688 C1690 1.384 . S
C1689 C1688 1.377 . S
C1689 C1695 1.390 . S
C1690 H1681 0.930 . S
C1690 C1688 1.384 . S
C1690 C1691 1.372 . S
C1691 C1690 1.372 . S
C1691 C1692 1.400 . S
C1691 C1696 1.490 . S
C1692 H1682 0.930 . S
C1692 C1691 1.400 . S
C1692 C1695 1.386 . S
H1693 C1709 0.930 . S
H1694 C1710 0.931 . S
C1695 H1683 0.929 . S
C1695 C1689 1.390 . S
C1695 C1692 1.386 . S
C1696 C1691 1.490 . S
C1696 C1698 1.395 . S
C1696 C1699 1.403 . S
H1697 C1703 0.930 . S
C1698 H1684 0.930 . S
C1698 C1696 1.395 . S
C1698 C1701 1.403 . S
C1699 C1696 1.403 . S
C1699 C1700 1.524 . S
C1699 C1703 1.400 . S
C1700 H1685 0.960 . S
C1700 H1686 0.960 . S
C1700 H1687 0.960 . S
C1700 C1699 1.524 . S
C1701 C1698 1.403 . S
C1701 C1702 1.392 . S
C1701 C1705 1.495 . S
C1702 C1701 1.392 . S
C1702 C1703 1.385 . S
C1702 C1704 1.478 . S
C1703 H1697 0.930 . S
C1703 C1699 1.400 . S
C1703 C1702 1.385 . S
C1704 C1702 1.478 . S
C1704 C1706 1.381 . S
C1704 C1710 1.383 . S
C1705 C1701 1.495 . S
C1705 H1711 0.959 . S
C1705 H1712 0.961 . S
C1705 H1713 0.960 . S
C1706 C1704 1.381 . S
C1706 C1707 1.394 . S
C1706 H1714 0.930 . S
C1707 C1706 1.394 . S
C1707 C1708 1.383 . S
C1707 H1715 0.929 . S
C1708 C1707 1.383 . S
C1708 C1709 1.377 . S
C1709 H1693 0.930 . S
C1709 C1708 1.377 . S
C1709 C1710 1.379 . S
C1710 H1694 0.931 . S
C1710 C1704 1.383 . S
C1710 C1709 1.379 . S
H1711 C1705 0.959 . S
H1712 C1705 0.961 . S
H1713 C1705 0.960 . S
H1714 C1706 0.930 . S
H1715 C1707 0.929 . S
H1716 C1724 0.929 . S
H1717 C1726 0.930 . S
H1718 C1728 0.930 . S
H1719 C1731 0.917 1_545 S
H1720 C1734 0.930 . S
H1721 C1736 0.960 . S
H1722 C1736 0.960 . S
H1723 C1736 0.960 . S
C1724 H1716 0.929 . S
C1724 C1725 1.377 1_565 S
C1724 C1726 1.384 . S
C1725 C1724 1.377 1_545 S
C1725 C1731 1.387 1_545 S
C1726 H1717 0.930 . S
C1726 C1724 1.384 . S
C1726 C1727 1.372 . S
C1727 C1726 1.372 . S
C1727 C1728 1.400 . S
C1727 C1732 1.490 . S
C1728 H1718 0.930 . S
C1728 C1727 1.400 . S
C1728 C1731 1.401 . S
H1729 C1745 0.930 . S
H1730 C1746 0.931 . S
C1731 H1719 0.917 1_565 S
C1731 C1725 1.387 1_565 S
C1731 C1728 1.401 . S
C1732 C1727 1.490 . S
C1732 C1734 1.395 . S
C1732 C1735 1.403 . S
H1733 C1739 0.930 . S
C1734 H1720 0.930 . S
C1734 C1732 1.395 . S
C1734 C1737 1.403 . S
C1735 C1732 1.403 . S
C1735 C1736 1.524 . S
C1735 C1739 1.400 . S
C1736 H1721 0.960 . S
C1736 H1722 0.960 . S
C1736 H1723 0.960 . S
C1736 C1735 1.524 . S
C1737 C1734 1.403 . S
C1737 C1738 1.392 . S
C1737 C1741 1.495 . S
C1738 C1737 1.392 . S
C1738 C1739 1.385 . S
C1738 C1740 1.478 . S
C1739 H1733 0.930 . S
C1739 C1735 1.400 . S
C1739 C1738 1.385 . S
C1740 C1738 1.478 . S
C1740 C1742 1.381 . S
C1740 C1746 1.383 . S
C1741 C1737 1.495 . S
C1741 H1747 0.959 . S
C1741 H1748 0.961 . S
C1741 H1749 0.960 . S
C1742 C1740 1.381 . S
C1742 C1743 1.394 . S
C1742 H1750 0.930 . S
C1743 C1742 1.394 . S
C1743 C1744 1.383 . S
C1743 H1751 0.929 . S
C1744 C1743 1.383 . S
C1744 C1745 1.377 . S
C1745 H1729 0.930 . S
C1745 C1744 1.377 . S
C1745 C1746 1.379 . S
C1746 H1730 0.931 . S
C1746 C1740 1.383 . S
C1746 C1745 1.379 . S
H1747 C1741 0.959 . S
H1748 C1741 0.961 . S
H1749 C1741 0.960 . S
H1750 C1742 0.930 . S
H1751 C1743 0.929 . S
H1752 C1760 0.929 . S
H1753 C1762 0.930 . S
H1754 C1764 0.930 . S
H1755 C1767 0.929 . S
H1756 C1770 0.930 . S
H1757 C1772 0.960 . S
H1758 C1772 0.960 . S
H1759 C1772 0.960 . S
C1760 H1752 0.929 . S
C1760 C1761 1.377 . S
C1760 C1762 1.384 . S
C1761 C1760 1.377 . S
C1761 C1767 1.390 . S
C1762 H1753 0.930 . S
C1762 C1760 1.384 . S
C1762 C1763 1.372 . S
C1763 C1762 1.372 . S
C1763 C1764 1.400 . S
C1763 C1768 1.490 . S
C1764 H1754 0.930 . S
C1764 C1763 1.400 . S
C1764 C1767 1.386 . S
H1765 C1781 0.930 . S
H1766 C1782 0.931 . S
C1767 H1755 0.929 . S
C1767 C1761 1.390 . S
C1767 C1764 1.386 . S
C1768 C1763 1.490 . S
C1768 C1770 1.395 . S
C1768 C1771 1.403 . S
H1769 C1775 0.930 . S
C1770 H1756 0.930 . S
C1770 C1768 1.395 . S
C1770 C1773 1.403 . S
C1771 C1768 1.403 . S
C1771 C1772 1.524 . S
C1771 C1775 1.400 . S
C1772 H1757 0.960 . S
C1772 H1758 0.960 . S
C1772 H1759 0.960 . S
C1772 C1771 1.524 . S
C1773 C1770 1.403 . S
C1773 C1774 1.392 . S
C1773 C1777 1.495 . S
C1774 C1773 1.392 . S
C1774 C1775 1.385 . S
C1774 C1776 1.478 . S
C1775 H1769 0.930 . S
C1775 C1771 1.400 . S
C1775 C1774 1.385 . S
C1776 C1774 1.478 . S
C1776 C1778 1.381 . S
C1776 C1782 1.383 . S
C1777 C1773 1.495 . S
C1777 H1783 0.959 . S
C1777 H1784 0.961 . S
C1777 H1785 0.960 . S
C1778 C1776 1.381 . S
C1778 C1779 1.394 . S
C1778 H1786 0.930 . S
C1779 C1778 1.394 . S
C1779 C1780 1.383 . S
C1779 H1787 0.929 . S
C1780 C1779 1.383 . S
C1780 C1781 1.377 . S
C1781 H1765 0.930 . S
C1781 C1780 1.377 . S
C1781 C1782 1.379 . S
C1782 H1766 0.931 . S
C1782 C1776 1.383 . S
C1782 C1781 1.379 . S
H1783 C1777 0.959 . S
H1784 C1777 0.961 . S
H1785 C1777 0.960 . S
H1786 C1778 0.930 . S
H1787 C1779 0.929 . S
H1788 C1796 0.929 . S
H1789 C1798 0.930 . S
H1790 C1800 0.930 . S
H1791 C1803 0.929 . S
H1792 C1806 0.930 . S
H1793 C1808 0.960 . S
H1794 C1808 0.960 . S
H1795 C1808 0.960 . S
C1796 H1788 0.929 . S
C1796 C1797 1.377 1_545 S
C1796 C1798 1.384 . S
C1797 C1796 1.377 1_565 S
C1797 C1803 1.390 . S
C1798 H1789 0.930 . S
C1798 C1796 1.384 . S
C1798 C1799 1.372 . S
C1799 C1798 1.372 . S
C1799 C1800 1.400 . S
C1799 C1804 1.490 . S
C1800 H1790 0.930 . S
C1800 C1799 1.400 . S
C1800 C1803 1.386 1_545 S
H1801 C1817 0.930 . S
H1802 C1818 0.931 . S
C1803 H1791 0.929 . S
C1803 C1797 1.390 . S
C1803 C1800 1.386 1_565 S
C1804 C1799 1.490 . S
C1804 C1806 1.395 . S
C1804 C1807 1.403 . S
H1805 C1811 0.930 . S
C1806 H1792 0.930 . S
C1806 C1804 1.395 . S
C1806 C1809 1.403 . S
C1807 C1804 1.403 . S
C1807 C1808 1.524 . S
C1807 C1811 1.400 . S
C1808 H1793 0.960 . S
C1808 H1794 0.960 . S
C1808 H1795 0.960 . S
C1808 C1807 1.524 . S
C1809 C1806 1.403 . S
C1809 C1810 1.392 . S
C1809 C1813 1.495 . S
C1810 C1809 1.392 . S
C1810 C1811 1.385 . S
C1810 C1812 1.478 . S
C1811 H1805 0.930 . S
C1811 C1807 1.400 . S
C1811 C1810 1.385 . S
C1812 C1810 1.478 . S
C1812 C1814 1.381 . S
C1812 C1818 1.383 . S
C1813 C1809 1.495 . S
C1813 H1819 0.959 . S
C1813 H1820 0.961 . S
C1813 H1821 0.960 . S
C1814 C1812 1.381 . S
C1814 C1815 1.394 . S
C1814 H1822 0.930 . S
C1815 C1814 1.394 . S
C1815 C1816 1.383 . S
C1815 H1823 0.929 . S
C1816 C1815 1.383 . S
C1816 C1817 1.377 . S
C1817 H1801 0.930 . S
C1817 C1816 1.377 . S
C1817 C1818 1.379 . S
C1818 H1802 0.931 . S
C1818 C1812 1.383 . S
C1818 C1817 1.379 . S
H1819 C1813 0.959 . S
H1820 C1813 0.961 . S
H1821 C1813 0.960 . S
H1822 C1814 0.930 . S
H1823 C1815 0.929 . S
H1824 C1832 0.929 . S
H1825 C1834 0.930 . S
H1826 C1836 0.930 . S
H1827 C1839 0.929 . S
H1828 C1842 0.930 . S
H1829 C1844 0.960 . S
H1830 C1844 0.960 . S
H1831 C1844 0.960 . S
C1832 H1824 0.929 . S
C1832 C1833 1.377 . S
C1832 C1834 1.384 . S
C1833 C1832 1.377 . S
C1833 C1839 1.390 . S
C1834 H1825 0.930 . S
C1834 C1832 1.384 . S
C1834 C1835 1.372 . S
C1835 C1834 1.372 . S
C1835 C1836 1.400 . S
C1835 C1840 1.490 . S
C1836 H1826 0.930 . S
C1836 C1835 1.400 . S
C1836 C1839 1.386 . S
H1837 C1853 0.930 . S
H1838 C1854 0.931 . S
C1839 H1827 0.929 . S
C1839 C1833 1.390 . S
C1839 C1836 1.386 . S
C1840 C1835 1.490 . S
C1840 C1842 1.395 . S
C1840 C1843 1.403 . S
H1841 C1847 0.930 . S
C1842 H1828 0.930 . S
C1842 C1840 1.395 . S
C1842 C1845 1.403 . S
C1843 C1840 1.403 . S
C1843 C1844 1.524 . S
C1843 C1847 1.400 . S
C1844 H1829 0.960 . S
C1844 H1830 0.960 . S
C1844 H1831 0.960 . S
C1844 C1843 1.524 . S
C1845 C1842 1.403 . S
C1845 C1846 1.392 . S
C1845 C1849 1.495 . S
C1846 C1845 1.392 . S
C1846 C1847 1.385 . S
C1846 C1848 1.478 . S
C1847 H1841 0.930 . S
C1847 C1843 1.400 . S
C1847 C1846 1.385 . S
C1848 C1846 1.478 . S
C1848 C1850 1.381 . S
C1848 C1854 1.383 . S
C1849 C1845 1.495 . S
C1849 H1855 0.959 . S
C1849 H1856 0.961 . S
C1849 H1857 0.960 . S
C1850 C1848 1.381 . S
C1850 C1851 1.394 . S
C1850 H1858 0.930 . S
C1851 C1850 1.394 . S
C1851 C1852 1.383 . S
C1851 H1859 0.929 . S
C1852 C1851 1.383 . S
C1852 C1853 1.377 . S
C1853 H1837 0.930 . S
C1853 C1852 1.377 . S
C1853 C1854 1.379 . S
C1854 H1838 0.931 . S
C1854 C1848 1.383 . S
C1854 C1853 1.379 . S
H1855 C1849 0.959 . S
H1856 C1849 0.961 . S
H1857 C1849 0.960 . S
H1858 C1850 0.930 . S
H1859 C1851 0.929 . S
H1860 C1868 0.929 . S
H1861 C1870 0.930 . S
H1862 C1872 0.930 . S
H1863 C1875 0.929 . S
H1864 C1878 0.930 . S
H1865 C1880 0.960 . S
H1866 C1880 0.960 . S
H1867 C1880 0.960 . S
C1868 H1860 0.929 . S
C1868 C1869 1.377 . S
C1868 C1870 1.384 . S
C1869 C1868 1.377 . S
C1869 C1875 1.390 . S
C1870 H1861 0.930 . S
C1870 C1868 1.384 . S
C1870 C1871 1.372 . S
C1871 C1870 1.372 . S
C1871 C1872 1.400 . S
C1871 C1876 1.490 . S
C1872 H1862 0.930 . S
C1872 C1871 1.400 . S
C1872 C1875 1.386 . S
H1873 C1889 0.930 . S
H1874 C1890 0.931 . S
C1875 H1863 0.929 . S
C1875 C1869 1.390 . S
C1875 C1872 1.386 . S
C1876 C1871 1.490 . S
C1876 C1878 1.395 . S
C1876 C1879 1.403 . S
H1877 C1883 0.930 . S
C1878 H1864 0.930 . S
C1878 C1876 1.395 . S
C1878 C1881 1.403 . S
C1879 C1876 1.403 . S
C1879 C1880 1.524 . S
C1879 C1883 1.400 . S
C1880 H1865 0.960 . S
C1880 H1866 0.960 . S
C1880 H1867 0.960 . S
C1880 C1879 1.524 . S
C1881 C1878 1.403 . S
C1881 C1882 1.392 . S
C1881 C1885 1.495 . S
C1882 C1881 1.392 . S
C1882 C1883 1.385 . S
C1882 C1884 1.478 . S
C1883 H1877 0.930 . S
C1883 C1879 1.400 . S
C1883 C1882 1.385 . S
C1884 C1882 1.478 . S
C1884 C1886 1.381 . S
C1884 C1890 1.383 . S
C1885 C1881 1.495 . S
C1885 H1891 0.959 . S
C1885 H1892 0.961 . S
C1885 H1893 0.960 . S
C1886 C1884 1.381 . S
C1886 C1887 1.394 . S
C1886 H1894 0.930 . S
C1887 C1886 1.394 . S
C1887 C1888 1.383 . S
C1887 H1895 0.929 1_545 S
C1888 C1887 1.383 . S
C1888 C1889 1.377 . S
C1889 H1873 0.930 . S
C1889 C1888 1.377 . S
C1889 C1890 1.379 . S
C1890 H1874 0.931 . S
C1890 C1884 1.383 . S
C1890 C1889 1.379 . S
H1891 C1885 0.959 . S
H1892 C1885 0.961 . S
H1893 C1885 0.960 . S
H1894 C1886 0.930 . S
H1895 C1887 0.929 1_565 S
H1896 C1904 0.929 . S
H1897 C1906 0.930 . S
H1898 C1908 0.930 . S
H1899 C1911 0.929 . S
H1900 C1914 0.930 . S
H1901 C1916 0.960 . S
H1902 C1916 0.960 . S
H1903 C1916 0.960 . S
C1904 H1896 0.929 . S
C1904 C1905 1.377 . S
C1904 C1906 1.384 . S
C1905 C1904 1.377 . S
C1905 C1911 1.390 . S
C1906 H1897 0.930 . S
C1906 C1904 1.384 . S
C1906 C1907 1.372 . S
C1907 C1906 1.372 . S
C1907 C1908 1.400 . S
C1907 C1912 1.490 . S
C1908 H1898 0.930 . S
C1908 C1907 1.400 . S
C1908 C1911 1.386 . S
H1909 C1925 0.930 . S
H1910 C1926 0.931 . S
C1911 H1899 0.929 . S
C1911 C1905 1.390 . S
C1911 C1908 1.386 . S
C1912 C1907 1.490 . S
C1912 C1914 1.395 . S
C1912 C1915 1.403 . S
H1913 C1919 0.930 . S
C1914 H1900 0.930 . S
C1914 C1912 1.395 . S
C1914 C1917 1.403 . S
C1915 C1912 1.403 . S
C1915 C1916 1.524 . S
C1915 C1919 1.400 . S
C1916 H1901 0.960 . S
C1916 H1902 0.960 . S
C1916 H1903 0.960 . S
C1916 C1915 1.524 . S
C1917 C1914 1.403 . S
C1917 C1918 1.392 . S
C1917 C1921 1.495 . S
C1918 C1917 1.392 . S
C1918 C1919 1.385 . S
C1918 C1920 1.478 . S
C1919 H1913 0.930 . S
C1919 C1915 1.400 . S
C1919 C1918 1.385 . S
C1920 C1918 1.478 . S
C1920 C1922 1.381 . S
C1920 C1926 1.383 . S
C1921 C1917 1.495 . S
C1921 H1927 0.959 . S
C1921 H1928 0.961 . S
C1921 H1929 0.960 . S
C1922 C1920 1.381 . S
C1922 C1923 1.394 . S
C1922 H1930 0.930 . S
C1923 C1922 1.394 . S
C1923 C1924 1.383 . S
C1923 H1931 0.929 . S
C1924 C1923 1.383 . S
C1924 C1925 1.377 . S
C1925 H1909 0.930 . S
C1925 C1924 1.377 . S
C1925 C1926 1.379 . S
C1926 H1910 0.931 . S
C1926 C1920 1.383 . S
C1926 C1925 1.379 . S
H1927 C1921 0.959 . S
H1928 C1921 0.961 . S
H1929 C1921 0.960 . S
H1930 C1922 0.930 . S
H1931 C1923 0.929 . S
H1932 C1940 0.929 . S
H1933 C1942 0.930 . S
H1934 C1944 0.930 . S
H1935 C1947 0.929 . S
H1936 C1950 0.930 . S
H1937 C1952 0.960 . S
H1938 C1952 0.960 . S
H1939 C1952 0.960 . S
C1940 H1932 0.929 . S
C1940 C1941 1.377 . S
C1940 C1942 1.384 . S
C1941 C1940 1.377 . S
C1941 C1947 1.390 . S
C1942 H1933 0.930 . S
C1942 C1940 1.384 . S
C1942 C1943 1.372 . S
C1943 C1942 1.372 . S
C1943 C1944 1.400 . S
C1943 C1948 1.490 . S
C1944 H1934 0.930 . S
C1944 C1943 1.400 . S
C1944 C1947 1.386 . S
H1945 C1961 0.930 . S
H1946 C1962 0.931 . S
C1947 H1935 0.929 . S
C1947 C1941 1.390 . S
C1947 C1944 1.386 . S
C1948 C1943 1.490 . S
C1948 C1950 1.395 . S
C1948 C1951 1.403 . S
H1949 C1955 0.930 . S
C1950 H1936 0.930 . S
C1950 C1948 1.395 . S
C1950 C1953 1.403 . S
C1951 C1948 1.403 . S
C1951 C1952 1.524 . S
C1951 C1955 1.400 . S
C1952 H1937 0.960 . S
C1952 H1938 0.960 . S
C1952 H1939 0.960 . S
C1952 C1951 1.524 . S
C1953 C1950 1.403 . S
C1953 C1954 1.392 . S
C1953 C1957 1.495 . S
C1954 C1953 1.392 . S
C1954 C1955 1.385 . S
C1954 C1956 1.478 . S
C1955 H1949 0.930 . S
C1955 C1951 1.400 . S
C1955 C1954 1.385 . S
C1956 C1954 1.478 . S
C1956 C1958 1.381 . S
C1956 C1962 1.383 . S
C1957 C1953 1.495 . S
C1957 H1963 0.959 . S
C1957 H1964 0.961 . S
C1957 H1965 0.960 . S
C1958 C1956 1.381 . S
C1958 C1959 1.394 . S
C1958 H1966 0.930 . S
C1959 C1958 1.394 . S
C1959 C1960 1.383 . S
C1959 H1967 0.929 . S
C1960 C1959 1.383 . S
C1960 C1961 1.377 . S
C1961 H1945 0.930 . S
C1961 C1960 1.377 . S
C1961 C1962 1.379 . S
C1962 H1946 0.931 . S
C1962 C1956 1.383 . S
C1962 C1961 1.379 . S
H1963 C1957 0.959 . S
H1964 C1957 0.961 . S
H1965 C1957 0.960 . S
H1966 C1958 0.930 . S
H1967 C1959 0.929 . S
C537 C503 1.571 . S
C556 N14 1.542 . S
C573 N47 1.555 . S
C592 C140 1.563 . S
C609 N80 1.553 . S
C628 C437 1.560 . S
C645 N113 1.558 . S
C664 C206 1.571 . S
C681 N146 1.365 . S
C700 C391 1.386 . S
C717 C28 1.397 . S
C736 N179 1.367 . S
C753 C325 1.396 . S
C772 N212 1.356 . S
C789 N245 1.371 . S
C808 C94 1.375 . S
C825 N278 1.554 . S
C844 C239 1.565 . S
C861 N311 1.558 . S
C880 C404 1.573 . S
C897 C173 1.571 . S
C916 N344 1.540 . S
C933 N377 1.557 . S
C952 C470 1.569 . S
C969 N410 1.368 . S
C988 C127 1.373 . S
C1005 N443 1.376 . S
C1024 C292 1.392 . S
C1041 C61 1.391 . S
C1060 N476 1.379 . S
C1077 N509 1.375 . S
C1096 C358 1.390 . S
C1113 N5 1.708 . S
C1132 N401 1.721 . S
C1149 N170 1.749 . S
C1168 N38 1.695 . S
C1185 N71 1.705 . S
C1204 N467 1.750 . S
C1221 N104 1.699 . S
C1240 N236 1.755 . S
C1257 N269 1.708 . S
C1276 N137 1.743 . S
C1293 N335 1.706 . S
C1312 N203 1.724 . S
C1329 N434 1.744 . S
C1348 N302 1.704 . S
C1365 N368 1.699 . S
C1384 N500 1.766 . S
C1401 C305 1.560 . S
C1420 C17 1.581 . S
C1437 C50 1.581 . S
C1456 C338 1.560 . S
C1473 C83 1.583 . S
C1492 C371 1.570 . S
C1509 C272 1.556 . S
C1528 C116 1.585 . S
C1545 C149 0.725 . S
C1564 C457 0.697 . S
C1581 C182 0.733 . S
C1600 C490 0.728 . S
C1617 C215 0.733 . S
C1636 C523 0.729 . S
C1653 C248 0.734 . S
C1672 C424 0.751 . S
C1689 C41 1.559 . S
C1708 C281 1.578 . S
C1725 C314 1.581 . S
C1744 C74 1.548 . S
C1761 C347 1.581 . S
C1780 C107 1.547 . S
C1797 C380 1.581 . S
C1816 C8 1.566 . S
C1833 C413 0.728 . S
C1852 C193 0.745 . S
C1869 C226 0.723 . S
C1888 C446 0.722 1_545 S
C1905 C259 0.738 . S
C1924 C479 0.730 . S
C1941 C512 0.726 1_565 S
C1960 C160 0.721 . S
