# Generated by pormake.
# Topology smd, (6)-cn, num edge types: 1
# Building blocks:
#     Node 0, Type 0, BuildingBlock: BETDAH_clean_sbu_0, # of connection points: 6
#     Node 1, Type 0, BuildingBlock: BETDAH_clean_sbu_0, # of connection points: 6
#     Node 2, Type 0, BuildingBlock: BETDAH_clean_sbu_0, # of connection points: 6
#     Node 3, Type 0, BuildingBlock: BETDAH_clean_sbu_0, # of connection points: 6
#     Node 4, Type 0, BuildingBlock: BETDAH_clean_sbu_0, # of connection points: 6
#     Node 5, Type 0, BuildingBlock: BETDAH_clean_sbu_0, # of connection points: 6
#     Node 6, Type 0, BuildingBlock: BETDAH_clean_sbu_0, # of connection points: 6
#     Node 7, Type 0, BuildingBlock: BETDAH_clean_sbu_0, # of connection points: 6
#     Node 8, Type 0, BuildingBlock: BETDAH_clean_sbu_0, # of connection points: 6
#     Node 9, Type 0, BuildingBlock: BETDAH_clean_sbu_0, # of connection points: 6
#     Node 10, Type 0, BuildingBlock: BETDAH_clean_sbu_0, # of connection points: 6
#     Node 11, Type 0, BuildingBlock: BETDAH_clean_sbu_0, # of connection points: 6
#     Node 12, Type 0, BuildingBlock: BETDAH_clean_sbu_0, # of connection points: 6
#     Node 13, Type 0, BuildingBlock: BETDAH_clean_sbu_0, # of connection points: 6
#     Node 14, Type 0, BuildingBlock: BETDAH_clean_sbu_0, # of connection points: 6
#     Node 15, Type 0, BuildingBlock: BETDAH_clean_sbu_0, # of connection points: 6
#     Node 16, Type 0, BuildingBlock: BETDAH_clean_sbu_0, # of connection points: 6
#     Node 17, Type 0, BuildingBlock: BETDAH_clean_sbu_0, # of connection points: 6
#     Edge 18, Type (0, 0), None
#     Edge 19, Type (0, 0), None
#     Edge 20, Type (0, 0), None
#     Edge 21, Type (0, 0), None
#     Edge 22, Type (0, 0), None
#     Edge 23, Type (0, 0), None
#     Edge 24, Type (0, 0), None
#     Edge 25, Type (0, 0), None
#     Edge 26, Type (0, 0), None
#     Edge 27, Type (0, 0), None
#     Edge 28, Type (0, 0), None
#     Edge 29, Type (0, 0), None
#     Edge 30, Type (0, 0), None
#     Edge 31, Type (0, 0), None
#     Edge 32, Type (0, 0), None
#     Edge 33, Type (0, 0), None
#     Edge 34, Type (0, 0), None
#     Edge 35, Type (0, 0), None
#     Edge 36, Type (0, 0), None
#     Edge 37, Type (0, 0), None
#     Edge 38, Type (0, 0), None
#     Edge 39, Type (0, 0), None
#     Edge 40, Type (0, 0), None
#     Edge 41, Type (0, 0), None
#     Edge 42, Type (0, 0), None
#     Edge 43, Type (0, 0), None
#     Edge 44, Type (0, 0), None
#     Edge 45, Type (0, 0), None
#     Edge 46, Type (0, 0), None
#     Edge 47, Type (0, 0), None
#     Edge 48, Type (0, 0), None
#     Edge 49, Type (0, 0), None
#     Edge 50, Type (0, 0), None
#     Edge 51, Type (0, 0), None
#     Edge 52, Type (0, 0), None
#     Edge 53, Type (0, 0), None
#     Edge 54, Type (0, 0), None
#     Edge 55, Type (0, 0), None
#     Edge 56, Type (0, 0), None
#     Edge 57, Type (0, 0), None
#     Edge 58, Type (0, 0), None
#     Edge 59, Type (0, 0), None
#     Edge 60, Type (0, 0), None
#     Edge 61, Type (0, 0), None
#     Edge 62, Type (0, 0), None
#     Edge 63, Type (0, 0), None
#     Edge 64, Type (0, 0), None
#     Edge 65, Type (0, 0), None
#     Edge 66, Type (0, 0), None
#     Edge 67, Type (0, 0), None
#     Edge 68, Type (0, 0), None
#     Edge 69, Type (0, 0), None
#     Edge 70, Type (0, 0), None
#     Edge 71, Type (0, 0), None
# Relax obj value: 0.395
# Max RMSD: 0.458
# Mean RMSD: 0.428
data_MOF--net-smd--node1-BETDAH_clean_sbu_0--edge1-none
_symmetry_space_group_name_H-M    P1
_symmetry_Int_Tables_number       1
_symmetry_cell_setting            triclinic
loop_
_symmetry_equiv_pos_as_xyz
'x, y, z'
_cell_length_a     28.685371
_cell_length_b     29.188856
_cell_length_c     15.298685
_cell_angle_alpha  93.101223
_cell_angle_beta   92.879187
_cell_angle_gamma 119.93874
loop_
_atom_site_label
_atom_site_type_symbol
_atom_site_fract_x
_atom_site_fract_y
_atom_site_fract_z
_atom_type_partial_charge
Ho0 Ho 0.02082 0.24789 0.62296 0.0
Ho1 Ho 0.97165 0.22443 0.50655 0.0
C2 C 0.91746 0.13171 0.61464 0.0
C3 C 0.06936 0.2759 0.78266 0.0
C4 C 0.04558 0.25713 0.86693 0.0
C5 C -0.01055 0.22693 0.86786 0.0
C6 C 0.96559 0.20459 0.94327 0.0
C7 C -0.00302 0.21427 1.02328 0.0
C8 C 0.0538 0.24444 1.02233 0.0
C9 C 0.07768 0.26443 0.94466 0.0
C10 C 0.05711 0.19008 0.52817 0.0
C11 C 0.06379 0.31952 0.44514 0.0
C12 C 0.91152 0.19755 0.36104 0.0
C13 C 0.92758 0.18893 0.27345 0.0
C14 C 0.97641 0.1892 0.26557 0.0
C15 C -0.00186 0.19442 0.18394 0.0
C16 C 0.9704 0.19738 0.10757 0.0
C17 C 0.91776 0.18843 0.11494 0.0
C18 C 0.89765 0.18604 0.19664 0.0
C19 C 0.92702 0.25731 0.68078 0.0
O20 O 0.94371 0.17479 0.66843 0.0
O21 O 0.9309 0.13939 0.53509 0.0
O22 O 0.0676 0.23937 0.72922 0.0
O23 O 0.05385 0.30401 0.74033 0.0
O24 O 0.02988 0.17571 0.59594 0.0
O25 O 0.05356 0.22933 0.50569 0.0
O26 O 0.02699 0.27386 0.41103 0.0
O27 O 0.06888 0.32267 0.53452 0.0
O28 O 0.93862 0.24626 0.39704 0.0
O29 O 0.90651 0.16386 0.41765 0.0
O30 O 0.96 0.27431 0.61698 0.0
O31 O 0.95864 0.27173 0.61765 0.0
H32 H 0.96345 0.21997 0.80991 0.0
H33 H 0.92214 0.17988 0.93739 0.0
H34 H 0.08029 0.2538 0.0815 0.0
H35 H 0.12128 0.28596 0.94604 0.0
H36 H -0.00079 0.18807 0.32312 0.0
H37 H 0.03715 0.19735 0.18174 0.0
H38 H 0.89277 0.18729 1.059 0.0
H39 H 0.86033 0.18586 0.19905 0.0
Ho40 Ho 0.77382 0.74994 0.54081 0.0
Ho41 Ho 0.73882 0.76818 0.64804 0.0
C42 C 0.79148 0.87082 0.5717 0.0
C43 C 0.79878 0.74145 0.3814 0.0
C44 C 0.78925 0.75816 0.29565 0.0
C45 C 0.76586 0.79032 0.2892 0.0
C46 C 0.75675 0.80542 0.20755 0.0
C47 C 0.77117 0.78888 0.13038 0.0
C48 C 0.79673 0.75865 0.13789 0.0
C49 C 0.80593 0.74397 0.21946 0.0
C50 C 0.85844 0.77574 0.6557 0.0
C51 C 0.73984 0.67451 0.71229 0.0
C52 C 0.68772 0.776 0.77529 0.0
C53 C 0.71166 0.78891 0.86717 0.0
C54 C 0.76582 0.80222 0.88516 0.0
C55 C 0.78666 0.805 0.97114 0.0
C56 C 0.75474 0.79769 1.04155 0.0
C57 C 0.70366 0.79226 1.02401 0.0
C58 C 0.68089 0.78452 0.93747 0.0
C59 C 0.67605 0.74719 0.45236 0.0
O60 O 0.78593 0.83424 0.51042 0.0
O61 O 0.78126 0.85442 0.64833 0.0
O62 O 0.82963 0.77993 0.44076 0.0
O63 O 0.75702 0.7042 0.4147 0.0
O64 O 0.83847 0.73605 0.59641 0.0
O65 O 0.8301 0.79892 0.65785 0.0
O66 O 0.75063 0.72015 0.7455 0.0
O67 O 0.74019 0.67206 0.6234 0.0
O68 O 0.67949 0.73033 0.74106 0.0
O69 O 0.71065 0.81366 0.72252 0.0
O70 O 0.6868 0.72526 0.51836 0.0
O71 O 0.6878 0.72725 0.51842 0.0
H72 H 0.75456 0.80389 0.34699 0.0
H73 H 0.73806 0.82971 0.205 0.0
H74 H 0.80818 0.74469 1.08035 0.0
H75 H 0.82646 0.72168 0.22239 0.0
H76 H 0.7915 0.8084 0.83234 0.0
H77 H 0.82731 0.8118 0.98221 0.0
H78 H 0.6808 0.79189 1.07764 0.0
H79 H 0.63955 0.77518 0.92541 0.0
Ho80 Ho 0.21662 0.98885 0.6569 0.0
Ho81 Ho 0.25781 0.03376 0.56812 0.0
C82 C 0.1907 0.07849 0.62003 0.0
C83 C 0.18897 0.93842 0.7972 0.0
C84 C 0.20116 0.9554 0.89229 0.0
C85 C 0.25403 0.97933 0.93225 0.0
C86 C 0.26503 -0.00198 1.02099 0.0
C87 C 0.22313 -0.00881 1.07235 0.0
C88 C 0.17002 0.96594 1.03329 0.0
C89 C 0.1593 0.94903 0.94356 0.0
C90 C 0.12779 0.93902 0.54786 0.0
C91 C 0.25945 0.9451 0.47816 0.0
C92 C 0.29294 0.08258 0.43075 0.0
C93 C 0.27055 0.05952 0.33972 0.0
C94 C 0.22895 0.0063 0.32139 0.0
C95 C 0.21223 0.9834 0.23432 0.0
C96 C 0.23616 0.01407 0.16476 0.0
C97 C 0.27389 0.06792 0.18343 0.0
C98 C 0.29088 0.09025 0.27004 0.0
C99 C 0.31861 0.08087 0.73998 0.0
O100 O 0.20707 0.0637 0.68906 0.0
O101 O 0.1957 0.05706 0.54803 0.0
O102 O 0.16076 0.95519 0.75602 0.0
O103 O 0.2277 0.94212 0.75196 0.0
O104 O 0.13298 0.97066 0.61471 0.0
O105 O 0.17604 0.95064 0.53182 0.0
O106 O 0.29398 -0.00519 0.48895 0.0
O107 O 0.22298 0.93108 0.53943 0.0
O108 O 0.31687 0.06083 0.47204 0.0
O109 O 0.26111 0.09052 0.47941 0.0
O110 O 0.30448 0.10327 0.6816 0.0
O111 O 0.30203 0.0354 0.70196 0.0
H112 H 0.28687 0.98378 0.89491 0.0
H113 H 0.30632 0.01733 1.05001 0.0
H114 H 0.13721 0.96093 1.07137 0.0
H115 H 0.11825 0.93133 0.91399 0.0
H116 H 0.20977 0.98232 0.37408 0.0
H117 H 0.18171 0.94183 0.22151 0.0
H118 H 0.28914 0.09284 0.13015 0.0
H119 H 0.31829 0.13191 0.28288 0.0
Ho120 Ho 0.02365 0.7921 0.66825 0.0
Ho121 Ho 0.97119 0.77214 0.56002 0.0
C122 C 0.93043 0.68947 0.71683 0.0
C123 C 0.07585 0.81469 0.82193 0.0
C124 C 0.05453 0.81556 0.90882 0.0
C125 C 0.00048 0.80295 0.91274 0.0
C126 C 0.97762 0.79663 0.99328 0.0
C127 C 0.00852 0.80315 1.07188 0.0
C128 C 0.06342 0.81943 1.06891 0.0
C129 C 0.08627 0.82626 0.98851 0.0
C130 C 0.05709 0.76841 0.47448 0.0
C131 C 0.08672 0.883 0.56206 0.0
C132 C 0.91904 0.76026 0.40943 0.0
C133 C 0.93908 0.76878 0.32069 0.0
C134 C 0.93515 0.806 0.27072 0.0
C135 C 0.95649 0.81649 0.1888 0.0
C136 C 0.98346 0.79097 0.15648 0.0
C137 C -0.01291 0.75367 0.2061 0.0
C138 C 0.96552 0.74296 0.28745 0.0
C139 C 0.91267 0.79662 0.70607 0.0
O140 O 0.97584 0.72777 0.75025 0.0
O141 O 0.91734 0.69399 0.63317 0.0
O142 O 0.05436 0.76789 0.77822 0.0
O143 O 0.07954 0.85069 0.7709 0.0
O144 O 0.03582 0.74834 0.54865 0.0
O145 O 0.03634 0.75134 0.54761 0.0
O146 O 0.04135 0.85098 0.51265 0.0
O147 O 0.09021 0.86859 0.63905 0.0
O148 O 0.93955 0.80302 0.46247 0.0
O149 O 0.91644 0.72078 0.44932 0.0
O150 O 0.95797 0.81608 0.66914 0.0
O151 O 0.95749 0.81496 0.66803 0.0
H152 H 0.97537 0.79685 0.85337 0.0
H153 H 0.93535 0.78486 0.99382 0.0
H154 H 0.08861 0.82637 0.12897 0.0
H155 H 0.12866 0.83954 0.98984 0.0
H156 H 0.91578 0.82721 0.29535 0.0
H157 H 0.95303 0.8454 0.15172 0.0
H158 H 0.0062 0.73233 0.18131 0.0
H159 H 0.96843 0.71353 0.3236 0.0
Ho160 Ho 0.22321 0.20127 0.48436 0.0
Ho161 Ho 0.20522 0.24429 0.60996 0.0
C162 C 0.23131 0.3 0.41296 0.0
C163 C 0.23334 0.16016 0.3381 0.0
C164 C 0.21257 0.16058 0.24729 0.0
C165 C 0.16685 0.16612 0.23082 0.0
C166 C 0.15409 0.17663 0.14685 0.0
C167 C 0.18597 0.1801 1.0779 0.0
C168 C 0.22795 0.1692 0.09279 0.0
C169 C 0.24227 0.16178 0.17699 0.0
C170 C 0.30604 0.2434 0.63219 0.0
C171 C 0.17798 0.12211 0.61183 0.0
C172 C 0.20388 0.28548 0.76102 0.0
C173 C 0.19443 0.25918 0.84403 0.0
C174 C 0.23748 0.27912 0.90909 0.0
C175 C 0.2326 0.25407 0.98566 0.0
C176 C 0.18548 0.20707 0.99857 0.0
C177 C 0.14179 0.18612 0.93374 0.0
C178 C 0.14645 0.21175 0.85634 0.0
C179 C 0.10687 0.18511 0.52839 0.0
O180 O 0.22531 0.25483 0.38614 0.0
O181 O 0.22907 0.30808 0.50102 0.0
O182 O 0.2708 0.20626 0.37593 0.0
O183 O 0.19724 0.13249 0.39139 0.0
O184 O 0.28549 0.19736 0.58754 0.0
O185 O 0.2855 0.26561 0.58984 0.0
O186 O 0.20225 0.16804 0.66132 0.0
O187 O 0.16415 0.12555 0.53173 0.0
O188 O 0.16428 0.26855 0.70031 0.0
O189 O 0.24858 0.29586 0.7281 0.0
O190 O 0.12129 0.17679 0.60434 0.0
O191 O 0.1497 0.21474 0.49098 0.0
H192 H 0.14325 0.16595 0.28402 0.0
H193 H 0.12189 0.18557 0.13749 0.0
H194 H 0.2536 0.1723 1.04115 0.0
H195 H 0.27992 0.16256 0.18805 0.0
H196 H 0.27559 0.31415 0.90034 0.0
H197 H 0.26606 0.27158 1.0358 0.0
H198 H 0.10504 0.14943 0.94161 0.0
H199 H 0.11315 0.19371 0.80575 0.0
Ho200 Ho 0.74799 0.98206 0.63452 0.0
Ho201 Ho 0.78015 0.02171 0.54168 0.0
C202 C 0.73832 0.06587 0.72049 0.0
C203 C 0.73194 0.93843 0.7794 0.0
C204 C 0.76271 0.96235 0.86511 0.0
C205 C 0.78774 0.01729 0.88716 0.0
C206 C 0.80659 0.03821 0.97384 0.0
C207 C 0.8024 0.00438 1.03807 0.0
C208 C 0.78485 0.95095 1.01386 0.0
C209 C 0.76609 0.93045 0.9269 0.0
C210 C 0.67299 0.93202 0.47722 0.0
C211 C 0.80134 0.92641 0.56288 0.0
C212 C 0.80366 0.06902 0.39808 0.0
C213 C 0.80303 0.05185 0.30572 0.0
C214 C 0.75652 0.03265 0.2479 0.0
C215 C 0.75739 0.01792 0.16038 0.0
C216 C 0.80412 0.02149 0.12985 0.0
C217 C 0.85076 0.04063 0.18665 0.0
C218 C 0.8503 0.05598 0.27424 0.0
C219 C 0.87402 0.07707 0.63442 0.0
O220 O 0.70861 0.01539 0.71692 0.0
O221 O 0.77232 0.08052 0.65542 0.0
O222 O 0.70321 0.95853 0.74917 0.0
O223 O 0.75821 0.93023 0.71969 0.0
O224 O 0.68889 0.90947 0.53246 0.0
O225 O 0.69417 0.97879 0.51116 0.0
O226 O 0.78086 0.94222 0.50082 0.0
O227 O 0.80766 0.95383 0.63572 0.0
O228 O 0.83703 0.06426 0.45052 0.0
O229 O 0.75826 0.05437 0.43221 0.0
O230 O 0.86503 0.04061 0.57302 0.0
O231 O 0.82773 0.06751 0.65811 0.0
H232 H 0.79071 0.0437 0.83868 0.0
H233 H 0.82096 0.07987 0.99168 0.0
H234 H 0.78191 0.92444 1.06299 0.0
H235 H 0.75087 0.88915 0.90917 0.0
H236 H 0.71994 0.0299 0.26972 0.0
H237 H 0.72185 0.00439 0.11559 0.0
H238 H 0.88725 0.04391 0.1633 0.0
H239 H 0.88708 0.07124 0.31723 0.0
Ho240 Ho 0.62832 0.54652 0.84292 0.0
Ho241 Ho 0.67666 0.56343 0.95336 0.0
C242 C 0.7176 0.50984 0.8438 0.0
C243 C 0.57685 0.53378 0.68851 0.0
C244 C 0.59693 0.53374 0.6006 0.0
C245 C 0.64953 0.54301 0.59513 0.0
C246 C 0.67 0.54356 0.51422 0.0
C247 C 0.63814 0.53432 0.43542 0.0
C248 C 0.58407 0.52136 0.44008 0.0
C249 C 0.5637 0.52089 0.52202 0.0
C250 C 0.57389 0.45437 0.92803 0.0
C251 C 0.60118 0.59012 1.03063 0.0
C252 C 0.73259 0.59062 0.10318 0.0
C253 C 0.71065 0.57222 0.18881 0.0
C254 C 0.66194 0.52394 0.19307 0.0
C255 C 0.63762 0.51086 0.27262 0.0
C256 C 0.6635 0.54408 0.35047 0.0
C257 C 0.71404 0.58956 0.34667 0.0
C258 C 0.73557 0.60482 0.26656 0.0
C259 C 0.72517 0.62882 0.77391 0.0
O260 O 0.69923 0.53458 0.7973 0.0
O261 O 0.69452 0.49932 0.91569 0.0
O262 O 0.57138 0.49544 0.73326 0.0
O263 O 0.60082 0.57827 0.73824 0.0
O264 O 0.59636 0.45828 0.85563 0.0
O265 O 0.58931 0.50168 0.95484 0.0
O266 O 0.62217 0.56264 1.05294 0.0
O267 O 0.60224 0.5955 0.94351 0.0
O268 O 0.71761 0.62124 1.06688 0.0
O269 O 0.73011 0.55431 1.04607 0.0
O270 O 0.70419 0.62756 0.85106 0.0
O271 O 0.70418 0.62483 0.84877 0.0
H272 H 0.67519 0.54976 0.6534 0.0
H273 H 0.7113 0.55206 0.51349 0.0
H274 H 0.55802 0.51317 0.38062 0.0
H275 H 0.52187 0.50945 0.5236 0.0
H276 H 0.64149 0.49734 0.13429 0.0
H277 H 0.59897 0.47487 0.27333 0.0
H278 H 0.73613 0.61448 0.4059 0.0
H279 H 0.77141 0.6426 0.2658 0.0
Ho280 Ho 0.44158 0.08303 0.88758 0.0
Ho281 Ho 0.43073 0.12588 1.00727 0.0
C282 C 0.47574 0.20772 0.88026 0.0
C283 C 0.44064 0.03993 0.73363 0.0
C284 C 0.44453 0.06508 0.64963 0.0
C285 C 0.43185 0.10541 0.64446 0.0
C286 C 0.43839 0.13234 0.56928 0.0
C287 C 0.45599 0.11843 0.4933 0.0
C288 C 0.46939 0.07797 0.49875 0.0
C289 C 0.46421 0.05229 0.57616 0.0
C290 C 0.5415 0.13431 0.97772 0.0
C291 C 0.4118 0.0228 1.07856 0.0
C292 C 0.41768 0.16909 0.14823 0.0
C293 C 0.44053 0.17146 0.23899 0.0
C294 C 0.47653 0.15271 0.25436 0.0
C295 C 0.48452 0.1387 0.33781 0.0
C296 C 0.45671 0.14323 0.40839 0.0
C297 C 0.42713 0.1696 0.39441 0.0
C298 C 0.42065 0.18479 0.3114 0.0
C299 C 0.35255 0.10843 0.83073 0.0
O300 O 0.45653 0.16174 0.83419 0.0
O301 O 0.48325 0.20637 0.96383 0.0
O302 O 0.48315 0.06384 0.78919 0.0
O303 O 0.3972 0.02635 0.77352 0.0
O304 O 0.52989 0.14582 0.90242 0.0
O305 O 0.49669 0.10541 1.00808 0.0
O306 O 0.4259 0.07059 0.1066 0.0
O307 O 0.40969 0.01477 0.98966 0.0
O308 O 0.38245 0.12133 0.1134 0.0
O309 O 0.45231 0.19651 0.09278 0.0
O310 O 0.36393 0.08397 0.89181 0.0
O311 O 0.36537 0.08612 0.89189 0.0
H312 H 0.41658 0.11653 0.69863 0.0
H313 H 0.4292 0.16399 0.5723 0.0
H314 H 0.48271 0.06469 0.44309 0.0
H315 H 0.47474 0.02175 0.57818 0.0
H316 H 0.49682 0.14665 0.20105 0.0
H317 H 0.51128 0.12286 0.34531 0.0
H318 H 0.40582 0.17613 0.44522 0.0
H319 H 0.39646 0.20333 0.30252 0.0
Ho320 Ho 0.89704 0.35956 0.85973 0.0
Ho321 Ho 0.89575 0.32482 0.94822 0.0
C322 C 0.7809 0.27261 0.8899 0.0
C323 C 0.92448 0.40443 0.71509 0.0
C324 C 0.91438 0.38144 0.62353 0.0
C325 C 0.87414 0.32843 0.5982 0.0
C326 C 0.86368 0.30849 0.50955 0.0
C327 C 0.89234 0.34191 0.4455 0.0
C328 C 0.93008 0.39524 0.47094 0.0
C329 C 0.942 0.41416 0.55934 0.0
C330 C 0.86711 0.41977 0.9527 0.0
C331 C -0.00948 0.40514 1.03948 0.0
C332 C 0.87764 0.2699 1.081 0.0
C333 C 0.88006 0.28632 0.17522 0.0
C334 C 0.92937 0.30967 0.22737 0.0
C335 C 0.93287 0.32806 0.31455 0.0
C336 C 0.88682 0.32131 0.35313 0.0
C337 C 0.837 0.29663 0.30246 0.0
C338 C 0.83386 0.28025 0.21357 0.0
C339 C 0.9348 0.29556 0.76237 0.0
O340 O 0.8115 0.28383 0.82525 0.0
O341 O 0.80937 0.30139 0.96033 0.0
O342 O 0.88107 0.39503 0.75138 0.0
O343 O 0.9581 0.39857 0.76749 0.0
O344 O 0.8389 0.3888 0.883 0.0
O345 O 0.9023 0.40706 0.97693 0.0
O346 O 0.97295 0.35563 1.03053 0.0
O347 O 0.9678 0.41904 0.97482 0.0
O348 O 0.92353 0.29052 1.0454 0.0
O349 O 0.83938 0.26855 1.02977 0.0
O350 O 0.89677 0.28178 0.81759 0.0
O351 O 0.89923 0.28494 0.819 0.0
H352 H 0.8512 0.30249 0.64683 0.0
H353 H 0.83413 0.2671 0.49127 0.0
H354 H 0.95078 0.42217 0.4222 0.0
H355 H 0.97317 0.45445 0.57791 0.0
H356 H 0.96543 0.31374 0.20093 0.0
H357 H 0.9714 0.34575 0.35311 0.0
H358 H 0.80099 0.29139 0.33087 0.0
H359 H 0.79538 0.26323 0.17493 0.0
Ho360 Ho 0.69629 0.12282 0.9896 0.0
Ho361 Ho 0.64059 0.09229 0.87516 0.0
C362 C 0.60624 0.02899 1.05729 0.0
C363 C 0.75551 0.13959 0.1333 0.0
C364 C 0.74416 0.15312 0.22197 0.0
C365 C 0.69943 0.16004 0.23144 0.0
C366 C 0.67881 0.1573 0.31347 0.0
C367 C 0.70448 0.15073 0.38861 0.0
C368 C 0.75363 0.15203 0.38077 0.0
C369 C 0.77205 0.15127 0.29815 0.0
C370 C 0.7387 0.10132 0.8023 0.0
C371 C 0.73463 0.21907 0.90297 0.0
C372 C 0.60216 0.07536 0.71072 0.0
C373 C 0.62825 0.09625 0.62861 0.0
C374 C 0.68297 0.13581 0.63136 0.0
C375 C 0.7074 0.15514 0.55421 0.0
C376 C 0.67748 0.13594 0.47179 0.0
C377 C 0.62231 0.09773 0.46907 0.0
C378 C 0.59827 0.07803 0.54635 0.0
C379 C 0.58117 0.1161 0.97745 0.0
O380 O 0.63582 0.07804 0.08345 0.0
O381 O 0.60582 0.01986 0.96926 0.0
O382 O 0.71968 0.09216 0.09861 0.0
O383 O 0.76801 0.17484 1.07615 0.0
O384 O 0.71066 0.07983 0.87047 0.0
O385 O 0.71135 0.08187 0.86998 0.0
O386 O 0.70804 0.17788 0.84392 0.0
O387 O 0.72958 0.20747 0.98264 0.0
O388 O 0.60199 0.11012 0.76704 0.0
O389 O 0.61452 0.04382 0.75006 0.0
O390 O 0.56456 0.06995 0.93634 0.0
O391 O 0.63167 0.14621 0.97055 0.0
H392 H 0.67836 0.16431 0.17462 0.0
H393 H 0.64183 0.15847 0.31755 0.0
H394 H 0.77565 0.14914 0.43766 0.0
H395 H 0.80601 0.14563 0.29424 0.0
H396 H 0.70747 0.15171 0.69271 0.0
H397 H 0.74993 0.18485 0.55916 0.0
H398 H 0.59805 0.0812 0.40678 0.0
H399 H 0.55646 0.04768 0.54072 0.0
Ho400 Ho 0.8814 0.58701 0.95793 0.0
Ho401 Ho 0.90268 0.55602 0.85113 0.0
C402 C 0.97759 0.59053 1.04234 0.0
C403 C 0.87104 0.63173 0.0982 0.0
C404 C 0.8562 0.60546 0.18072 0.0
C405 C 0.84472 0.55281 0.18461 0.0
C406 C 0.84053 0.53142 0.26576 0.0
C407 C 0.84574 0.56164 0.34452 0.0
C408 C 0.85004 0.61136 0.33796 0.0
C409 C 0.85679 0.63344 0.25751 0.0
C410 C 0.89783 0.64567 0.7772 0.0
C411 C 0.77694 0.53191 0.85839 0.0
C412 C 0.91168 0.52947 0.68935 0.0
C413 C 0.88762 0.5314 0.60202 0.0
C414 C 0.85647 0.55598 0.59325 0.0
C415 C 0.83935 0.5627 0.5098 0.0
C416 C 0.85317 0.54501 0.43284 0.0
C417 C 0.8799 0.51597 0.44242 0.0
C418 C 0.89555 0.5083 0.52575 0.0
C419 C 0.88477 0.47742 0.95137 0.0
O420 O 0.93016 0.57675 1.06248 0.0
O421 O 0.98185 0.59207 0.95483 0.0
O422 O 0.91841 0.64232 1.07489 0.0
O423 O 0.83388 0.61072 1.0321 0.0
O424 O 0.92246 0.64089 0.84922 0.0
O425 O 0.91994 0.63924 0.84824 0.0
O426 O 0.81028 0.52557 0.80877 0.0
O427 O 0.7974 0.55769 0.93298 0.0
O428 O 0.87826 0.49678 0.74017 0.0
O429 O 0.94591 0.57466 0.73318 0.0
O430 O 0.92914 0.50563 0.91527 0.0
O431 O 0.85382 0.49746 0.94153 0.0
H432 H 0.84091 0.52875 0.12538 0.0
H433 H 0.83433 0.49172 0.2666 0.0
H434 H 0.84989 0.6341 0.3954 0.0
H435 H 0.86216 0.6724 0.25504 0.0
H436 H 0.84556 0.57033 0.65058 0.0
H437 H 0.81633 0.58281 0.5061 0.0
H438 H 0.89117 0.50101 0.38591 0.0
H439 H 0.91502 0.48523 0.52964 0.0
Ho440 Ho 0.40191 0.29549 0.89387 0.0
Ho441 Ho 0.43317 0.34024 0.83674 0.0
C442 C 0.38984 0.37627 1.00858 0.0
C443 C 0.37347 0.24765 1.0357 0.0
C444 C 0.39086 0.27113 0.12893 0.0
C445 C 0.44504 0.29311 0.1636 0.0
C446 C 0.46055 0.3122 0.25223 0.0
C447 C 0.42235 0.31011 0.30796 0.0
C448 C 0.36955 0.29249 0.27214 0.0
C449 C 0.35435 0.27419 0.18324 0.0
C450 C 0.3359 0.26018 0.7277 0.0
C451 C 0.45875 0.24546 0.85006 0.0
C452 C 0.47403 0.35729 0.68391 0.0
C453 C 0.46107 0.34445 0.58774 0.0
C454 C 0.42038 0.29412 0.5515 0.0
C455 C 0.40694 0.28367 0.4608 0.0
C456 C 0.43633 0.32238 0.40405 0.0
C457 C 0.48043 0.37113 0.43959 0.0
C458 C 0.49281 0.38181 0.5308 0.0
C459 C 0.51624 0.41403 0.92675 0.0
O460 O 0.36618 0.32541 0.9981 0.0
O461 O 0.41771 0.39591 0.93979 0.0
O462 O 0.34274 0.26036 0.98929 0.0
O463 O 0.41087 0.248 0.99096 0.0
O464 O 0.36071 0.23849 0.76501 0.0
O465 O 0.34835 0.30055 0.78116 0.0
O466 O 0.48125 0.29613 0.87747 0.0
O467 O 0.40829 0.22763 0.83236 0.0
O468 O 0.46663 0.31838 0.72921 0.0
O469 O 0.45917 0.38754 0.72441 0.0
O470 O 0.48344 0.42433 0.88155 0.0
O471 O 0.49624 0.3635 0.93146 0.0
H472 H 0.47553 0.29477 0.12288 0.0
H473 H 0.50181 0.32642 0.278 0.0
H474 H 0.34002 0.29287 0.31303 0.0
H475 H 0.31411 0.26282 0.15716 0.0
H476 H 0.40001 0.26242 0.59296 0.0
H477 H 0.37461 0.24475 0.4348 0.0
H478 H 0.50481 0.40102 0.39699 0.0
H479 H 0.52694 0.41935 0.55738 0.0
Ho480 Ho 0.35343 0.90968 0.31994 0.0
Ho481 Ho 0.29743 0.88211 0.20904 0.0
C482 C 0.24664 0.79146 0.31455 0.0
C483 C 0.40175 0.92322 0.4772 0.0
C484 C 0.37647 0.91001 0.56339 0.0
C485 C 0.32015 0.88045 0.56502 0.0
C486 C 0.29555 0.86331 0.64268 0.0
C487 C 0.32639 0.87646 0.72403 0.0
C488 C 0.3831 0.90629 0.72334 0.0
C489 C 0.40742 0.92229 0.64427 0.0
C490 C 0.40658 0.87946 0.16844 0.0
C491 C 0.39034 0.97937 0.14515 0.0
C492 C 0.23957 0.86355 1.0626 0.0
C493 C 0.2553 0.85481 0.9742 0.0
C494 C 0.30215 0.85127 0.96604 0.0
C495 C 0.32483 0.85674 0.88505 0.0
C496 C 0.29947 0.86281 0.80876 0.0
C497 C 0.24867 0.85852 0.81571 0.0
C498 C 0.2283 0.85698 0.89739 0.0
C499 C 0.2562 0.90978 0.39351 0.0
O500 O 0.27829 0.83526 0.36496 0.0
O501 O 0.25385 0.79687 0.23257 0.0
O502 O 0.38735 0.8826 0.42129 0.0
O503 O 0.40174 0.96156 0.43712 0.0
O504 O 0.36518 0.86107 0.21545 0.0
O505 O 0.36601 0.86275 0.21631 0.0
O506 O 0.35495 0.9322 0.11471 0.0
O507 O 0.39593 0.9855 0.23433 0.0
O508 O 0.2706 0.91113 0.10148 0.0
O509 O 0.22943 0.82747 0.1173 0.0
O510 O 0.28748 0.92948 0.32773 0.0
O511 O 0.28646 0.92725 0.3281 0.0
H512 H 0.29419 0.86996 0.50652 0.0
H513 H 0.25197 0.83939 0.6378 0.0
H514 H 0.40903 0.91876 0.78401 0.0
H515 H 0.45039 0.94532 0.64739 0.0
H516 H 0.3228 0.84679 1.02312 0.0
H517 H 0.36248 0.85675 0.88276 0.0
H518 H 0.22534 0.85905 0.7588 0.0
H519 H 0.19209 0.85913 0.90005 0.0
Ho520 Ho 0.11936 0.43502 0.20426 0.0
Ho521 Ho 0.10502 0.4606 0.30728 0.0
C522 C 0.14885 0.55773 0.2226 0.0
C523 C 0.12638 0.39904 1.04962 0.0
C524 C 0.11969 0.4169 0.96437 0.0
C525 C 0.11027 0.45954 0.95769 0.0
C526 C 0.10618 0.47687 0.87564 0.0
C527 C 0.11409 0.4533 0.8 0.0
C528 C 0.12808 0.414 0.80824 0.0
C529 C 0.12896 0.39504 0.88945 0.0
C530 C 0.21987 0.47826 0.28465 0.0
C531 C 0.08945 0.36477 0.38271 0.0
C532 C 0.06991 0.48497 0.44362 0.0
C533 C 0.07978 0.47907 0.53724 0.0
C534 C 0.11561 0.5228 0.59652 0.0
C535 C 0.12602 0.51538 0.68371 0.0
C536 C 0.10153 0.46398 0.71154 0.0
C537 C 0.06532 0.42077 0.65281 0.0
C538 C 0.05506 0.42804 0.56691 0.0
C539 C 0.027 0.44042 0.12229 0.0
O540 O 0.12182 0.51454 0.1693 0.0
O541 O 0.16371 0.54581 0.29403 0.0
O542 O 0.16689 0.43477 0.10028 0.0
O543 O 0.08402 0.37435 0.09231 0.0
O544 O 0.20682 0.49848 0.22174 0.0
O545 O 0.17605 0.44436 0.31353 0.0
O546 O 0.11191 0.41334 0.41278 0.0
O547 O 0.08239 0.36006 0.29395 0.0
O548 O 0.04278 0.44057 0.3939 0.0
O549 O 0.11061 0.52056 0.40533 0.0
O550 O 0.03619 0.4195 0.19212 0.0
O551 O 0.03779 0.42183 0.19088 0.0
H552 H 0.10577 0.47928 1.01517 0.0
H553 H 0.09558 0.50746 0.87106 0.0
H554 H 0.13637 0.39662 0.75101 0.0
H555 H 0.13661 0.36307 0.89487 0.0
H556 H 0.13618 0.5624 0.57517 0.0
H557 H 0.15419 0.54932 0.72835 0.0
H558 H 0.04503 0.38096 0.67331 0.0
H559 H 0.02742 0.3931 0.52379 0.0
Ho560 Ho 0.53957 0.65118 0.28219 0.0
Ho561 Ho 0.55361 0.68394 0.19179 0.0
C562 C 0.50858 0.74109 0.28615 0.0
C563 C 0.52075 0.60318 0.42598 0.0
C564 C 0.52737 0.62052 0.51973 0.0
C565 C 0.55589 0.67436 0.55084 0.0
C566 C 0.5539 0.69004 0.63789 0.0
C567 C 0.52122 0.65213 0.69392 0.0
C568 C 0.49117 0.5986 0.66102 0.0
C569 C 0.49432 0.58347 0.57498 0.0
C570 C 0.44355 0.58471 0.18736 0.0
C571 C 0.58781 0.61985 0.10255 0.0
C572 C 0.55194 0.72982 1.05356 0.0
C573 C 0.52961 0.70481 0.9636 0.0
C574 C 0.51765 0.65267 0.94051 0.0
C575 C 0.51369 0.6349 0.85271 0.0
C576 C 0.51854 0.66806 0.78621 0.0
C577 C 0.52176 0.71685 0.80934 0.0
C578 C 0.52656 0.7345 0.89761 0.0
C579 C 0.63919 0.71184 0.36995 0.0
O580 O 0.53841 0.72883 0.33535 0.0
O581 O 0.49416 0.7115 0.21363 0.0
O582 O 0.48729 0.61245 0.38205 0.0
O583 O 0.56294 0.61402 0.38416 0.0
O584 O 0.45053 0.62036 0.24847 0.0
O585 O 0.49044 0.59641 0.16926 0.0
O586 O 0.59424 0.66501 0.08993 0.0
O587 O 0.56986 0.60493 0.18212 0.0
O588 O 0.59301 0.72568 0.08305 0.0
O589 O 0.51706 0.71934 0.11173 0.0
O590 O 0.62102 0.73052 0.30711 0.0
O591 O 0.619 0.72657 0.30738 0.0
H592 H 0.57737 0.70442 0.50718 0.0
H593 H 0.57734 0.73182 0.66064 0.0
H594 H 0.46378 0.56844 0.70052 0.0
H595 H 0.46874 0.54304 0.54978 0.0
H596 H 0.51365 0.62629 0.98998 0.0
H597 H 0.5094 0.59623 0.8378 0.0
H598 H 0.52181 0.74192 0.75964 0.0
H599 H 0.52921 0.77165 0.91424 0.0
Ho600 Ho 0.3505 0.4314 0.28515 0.0
Ho601 Ho 0.29831 0.41314 0.17024 0.0
C602 C 0.25302 0.3431 0.34724 0.0
C603 C 0.40694 0.4407 0.42779 0.0
C604 C 0.39171 0.44897 0.51688 0.0
C605 C 0.35196 0.46347 0.52628 0.0
C606 C 0.33121 0.4631 0.60764 0.0
C607 C 0.35215 0.45155 0.6829 0.0
C608 C 0.39615 0.44353 0.67525 0.0
C609 C 0.41502 0.44126 0.59312 0.0
C610 C 0.38927 0.40939 0.09359 0.0
C611 C 0.4019 0.52981 0.19985 0.0
C612 C 0.25054 0.39093 1.01038 0.0
C613 C 0.27631 0.41077 0.92702 0.0
C614 C 0.33231 0.44533 0.92746 0.0
C615 C 0.35699 0.46083 0.84903 0.0
C616 C 0.32602 0.44331 0.76739 0.0
C617 C 0.26968 0.41217 0.76717 0.0
C618 C 0.24556 0.3956 0.84573 0.0
C619 C 0.26735 0.47135 0.27245 0.0
O620 O 0.2886 0.38974 0.37821 0.0
O621 O 0.25094 0.33777 0.2581 0.0
O622 O 0.37342 0.39459 0.38518 0.0
O623 O 0.42104 0.47973 0.37736 0.0
O624 O 0.35964 0.38745 0.16044 0.0
O625 O 0.36084 0.39025 0.15997 0.0
O626 O 0.37528 0.49053 0.13872 0.0
O627 O 0.39095 0.51758 0.27844 0.0
O628 O 0.25285 0.42663 1.06668 0.0
O629 O 0.26254 0.35972 1.05067 0.0
O630 O 0.2902 0.48517 0.20066 0.0
O631 O 0.27128 0.43206 0.29281 0.0
H632 H 0.33585 0.4739 0.47024 0.0
H633 H 0.29852 0.47141 0.61149 0.0
H634 H 0.41445 0.43715 0.73303 0.0
H635 H 0.44812 0.43411 0.58939 0.0
H636 H 0.35761 0.45955 0.9879 0.0
H637 H 0.40052 0.48578 0.8523 0.0
H638 H 0.24437 0.39718 0.70567 0.0
H639 H 0.20324 0.36767 0.84119 0.0
Ho640 Ho 0.57512 0.89489 0.19891 0.0
Ho641 Ho 0.55164 0.92256 0.3058 0.0
C642 C 0.5826 0.98821 0.1271 0.0
C643 C 0.61941 0.87953 1.0672 0.0
C644 C 0.5964 0.86843 0.9751 0.0
C645 C 0.54658 0.86551 0.95437 0.0
C646 C 0.53038 0.86758 0.86786 0.0
C647 C 0.56214 0.86938 0.79984 0.0
C648 C 0.60709 0.86346 0.81919 0.0
C649 C 0.62534 0.86539 0.90662 0.0
C650 C 0.63887 0.9063 0.38745 0.0
C651 C 0.51919 0.79634 0.27673 0.0
C652 C 0.53673 0.94197 0.46626 0.0
C653 C 0.5453 0.92342 0.55028 0.0
C654 C 0.55316 0.87963 0.55361 0.0
C655 C 0.55805 0.86113 0.63424 0.0
C656 C 0.55301 0.88489 0.71272 0.0
C657 C 0.54353 0.9275 0.7086 0.0
C658 C 0.541 0.94707 0.62843 0.0
C659 C 0.46285 0.89832 0.20562 0.0
O660 O 0.55658 0.93906 0.10193 0.0
O661 O 0.59465 -0.00401 0.21512 0.0
O662 O 0.6319 0.9266 0.10111 0.0
O663 O 0.59353 0.84277 0.1201 0.0
O664 O 0.63346 0.93358 0.3251 0.0
O665 O 0.63226 0.93168 0.32517 0.0
O666 O 0.53217 0.83578 0.3376 0.0
O667 O 0.52503 0.81003 0.19845 0.0
O668 O 0.49961 0.90506 0.41076 0.0
O669 O 0.57932 0.97429 0.42816 0.0
O670 O 0.49162 0.9432 0.25225 0.0
O671 O 0.48587 0.87018 0.204 0.0
H672 H 0.52023 0.86191 1.00474 0.0
H673 H 0.49375 0.86911 0.85443 0.0
H674 H 0.62992 0.86069 0.76719 0.0
H675 H 0.66221 0.86533 0.92109 0.0
H676 H 0.55549 0.8595 0.49448 0.0
H677 H 0.56514 0.828 0.63509 0.0
H678 H 0.53964 0.94688 0.7679 0.0
H679 H 0.53468 0.98035 0.62719 0.0
Ho680 Ho 0.07607 0.64506 0.32127 0.0
Ho681 Ho 0.10223 0.69441 0.22474 0.0
C682 C 0.06938 0.73619 0.40506 0.0
C683 C 0.03393 0.58902 0.44932 0.0
C684 C 0.06025 0.6014 0.54002 0.0
C685 C 0.11121 0.64704 0.56158 0.0
C686 C 0.13071 0.66525 0.64964 0.0
C687 C 0.10067 0.6367 0.71739 0.0
C688 C 0.05368 0.58756 0.69508 0.0
C689 C 0.03315 0.57107 0.60738 0.0
C690 C 0.02147 0.60523 0.1179 0.0
C691 C 0.12991 0.59664 0.23669 0.0
C692 C 0.12471 0.73038 1.07097 0.0
C693 C 0.11874 0.70524 0.98142 0.0
C694 C 0.11111 0.65386 0.96678 0.0
C695 C 0.10714 0.63177 0.8812 0.0
C696 C 0.11261 0.66139 0.80904 0.0
C697 C 0.12293 0.71353 0.82456 0.0
C698 C 0.12512 0.73459 0.90957 0.0
C699 C 0.1902 0.75491 0.3351 0.0
O700 O 0.08278 0.70297 0.42946 0.0
O701 O 0.06884 0.73874 0.31756 0.0
O702 O 0.02102 0.62361 0.42361 0.0
O703 O 0.05697 0.57564 0.38939 0.0
O704 O 0.01827 0.62498 0.19657 0.0
O705 O 0.02064 0.62485 0.19563 0.0
O706 O 0.12831 0.63065 0.18404 0.0
O707 O 0.11269 0.5971 0.31152 0.0
O708 O 0.15784 0.72625 0.12597 0.0
O709 O 0.08126 0.72217 0.10677 0.0
O710 O 0.15699 0.7697 0.30702 0.0
O711 O 0.1672 0.70442 0.31895 0.0
H712 H 0.13488 0.66999 0.51076 0.0
H713 H 0.16806 0.70266 0.66477 0.0
H714 H 0.03036 0.56386 0.74564 0.0
H715 H -0.00491 0.53588 0.59292 0.0
H716 H 0.10782 0.63052 1.02091 0.0
H717 H 0.09939 0.59151 0.87136 0.0
H718 H 0.12714 0.73744 0.77054 0.0
H719 H 0.13174 0.7739 0.919 0.0
loop_
_geom_bond_atom_site_label_1
_geom_bond_atom_site_label_2
_geom_bond_distance
_geom_bond_site_symmetry_2
_ccdc_geom_bond_type
Ho0 C3 2.811 . S
Ho0 O20 2.323 . S
Ho0 O22 2.378 . S
Ho0 O23 2.524 . S
Ho0 O24 2.381 . S
Ho0 O25 2.669 . S
Ho0 O27 2.346 . S
Ho0 O31 2.305 1_455 S
Ho1 C12 2.811 . S
Ho1 O21 2.346 . S
Ho1 O25 2.305 1_655 S
Ho1 O26 2.322 1_655 S
Ho1 O28 2.378 . S
Ho1 O29 2.524 1_655 S
Ho1 O30 2.381 . S
Ho1 O31 2.669 . S
C2 O20 1.254 1_655 S
C2 O21 1.268 . S
C3 Ho0 2.811 . S
C3 C4 1.488 . S
C3 O22 1.215 . S
C3 O23 1.289 . S
C4 C3 1.488 . S
C4 C5 1.348 1_455 S
C4 C9 1.413 . S
C5 C4 1.348 1_655 S
C5 C6 1.442 . S
C5 H32 0.930 . S
C6 C5 1.442 . S
C6 C7 1.381 1_655 S
C6 H33 0.931 . S
C7 C6 1.381 1_455 S
C7 C8 1.321 . S
C8 C7 1.321 . S
C8 C9 1.403 . S
C8 H34 0.934 . S
C9 C4 1.413 . S
C9 C8 1.403 . S
C9 H35 0.930 . S
C10 O24 1.275 . S
C10 O25 1.256 . S
C11 O26 1.259 . S
C11 O27 1.268 . S
C12 Ho1 2.811 . S
C12 C13 1.488 . S
C12 O28 1.215 . S
C12 O29 1.289 1_655 S
C13 C12 1.488 . S
C13 C14 1.348 1_655 S
C13 C18 1.413 . S
C14 C13 1.348 1_455 S
C14 C15 1.442 . S
C14 H36 0.930 . S
C15 C14 1.442 . S
C15 C16 1.381 1_455 S
C15 H37 0.931 . S
C16 C15 1.381 1_655 S
C16 C17 1.321 . S
C17 C16 1.321 . S
C17 C18 1.403 . S
C17 H38 0.934 . S
C18 C13 1.413 . S
C18 C17 1.403 . S
C18 H39 0.930 . S
C19 O30 1.275 . S
C19 O31 1.256 . S
O20 Ho0 2.323 . S
O20 C2 1.254 1_455 S
O21 Ho1 2.346 . S
O21 C2 1.268 . S
O22 Ho0 2.378 . S
O22 C3 1.215 . S
O23 Ho0 2.524 . S
O23 C3 1.289 . S
O24 Ho0 2.381 . S
O24 C10 1.275 . S
O25 Ho0 2.669 . S
O25 Ho1 2.305 1_455 S
O25 C10 1.256 . S
O26 Ho1 2.322 1_455 S
O26 C11 1.259 . S
O27 Ho0 2.346 . S
O27 C11 1.268 . S
O28 Ho1 2.378 . S
O28 C12 1.215 . S
O29 Ho1 2.524 1_455 S
O29 C12 1.289 1_455 S
O30 Ho1 2.381 . S
O30 C19 1.275 . S
O31 Ho0 2.305 1_655 S
O31 Ho1 2.669 . S
O31 C19 1.256 . S
H32 C5 0.930 . S
H33 C6 0.931 . S
H34 C8 0.934 . S
H35 C9 0.930 . S
H36 C14 0.930 . S
H37 C15 0.931 . S
H38 C17 0.934 . S
H39 C18 0.930 . S
Ho40 C43 2.811 . S
Ho40 O60 2.322 . S
Ho40 O62 2.378 . S
Ho40 O63 2.524 . S
Ho40 O64 2.381 . S
Ho40 O65 2.669 . S
Ho40 O67 2.346 . S
Ho40 O71 2.305 . S
Ho41 C52 2.811 . S
Ho41 O61 2.346 . S
Ho41 O65 2.305 . S
Ho41 O66 2.322 . S
Ho41 O68 2.378 . S
Ho41 O69 2.524 . S
Ho41 O70 2.381 . S
Ho41 O71 2.669 . S
C42 O60 1.259 . S
C42 O61 1.268 . S
C43 Ho40 2.811 . S
C43 C44 1.488 . S
C43 O62 1.215 . S
C43 O63 1.289 . S
C44 C43 1.488 . S
C44 C45 1.348 . S
C44 C49 1.413 . S
C45 C44 1.348 . S
C45 C46 1.442 . S
C45 H72 0.930 . S
C46 C45 1.442 . S
C46 C47 1.381 . S
C46 H73 0.931 . S
C47 C46 1.381 . S
C47 C48 1.321 . S
C48 C47 1.321 . S
C48 C49 1.403 . S
C48 H74 0.934 . S
C49 C44 1.413 . S
C49 C48 1.403 . S
C49 H75 0.930 . S
C50 O64 1.275 . S
C50 O65 1.256 . S
C51 O66 1.259 . S
C51 O67 1.268 . S
C52 Ho41 2.811 . S
C52 C53 1.488 . S
C52 O68 1.215 . S
C52 O69 1.289 . S
C53 C52 1.488 . S
C53 C54 1.348 . S
C53 C58 1.413 . S
C54 C53 1.348 . S
C54 C55 1.442 . S
C54 H76 0.930 . S
C55 C54 1.442 . S
C55 C56 1.381 . S
C55 H77 0.931 . S
C56 C55 1.381 . S
C56 C57 1.321 . S
C57 C56 1.321 . S
C57 C58 1.403 . S
C57 H78 0.934 . S
C58 C53 1.413 . S
C58 C57 1.403 . S
C58 H79 0.930 . S
C59 O70 1.275 . S
C59 O71 1.256 . S
O60 Ho40 2.322 . S
O60 C42 1.259 . S
O61 Ho41 2.346 . S
O61 C42 1.268 . S
O62 Ho40 2.378 . S
O62 C43 1.215 . S
O63 Ho40 2.524 . S
O63 C43 1.289 . S
O64 Ho40 2.381 . S
O64 C50 1.275 . S
O65 Ho40 2.669 . S
O65 Ho41 2.305 . S
O65 C50 1.256 . S
O66 Ho41 2.322 . S
O66 C51 1.259 . S
O67 Ho40 2.346 . S
O67 C51 1.268 . S
O68 Ho41 2.378 . S
O68 C52 1.215 . S
O69 Ho41 2.524 . S
O69 C52 1.289 . S
O70 Ho41 2.381 . S
O70 C59 1.275 . S
O71 Ho40 2.305 . S
O71 Ho41 2.669 . S
O71 C59 1.256 . S
H72 C45 0.930 . S
H73 C46 0.931 . S
H74 C48 0.934 . S
H75 C49 0.930 . S
H76 C54 0.930 . S
H77 C55 0.931 . S
H78 C57 0.934 . S
H79 C58 0.930 . S
Ho80 C83 2.811 . S
Ho80 O100 2.322 1_565 S
Ho80 O102 2.378 . S
Ho80 O103 2.524 1_565 S
Ho80 O104 2.381 . S
Ho80 O105 2.669 . S
Ho80 O107 2.346 . S
Ho80 O111 2.305 1_565 S
Ho81 C92 2.811 . S
Ho81 O101 2.346 . S
Ho81 O105 2.305 1_545 S
Ho81 O106 2.322 1_545 S
Ho81 O108 2.378 . S
Ho81 O109 2.524 1_545 S
Ho81 O110 2.381 . S
Ho81 O111 2.669 . S
C82 O100 1.259 . S
C82 O101 1.268 . S
C83 Ho80 2.811 . S
C83 C84 1.488 . S
C83 O102 1.215 . S
C83 O103 1.289 1_565 S
C84 C83 1.488 . S
C84 C85 1.348 1_565 S
C84 C89 1.413 . S
C85 C84 1.348 1_545 S
C85 C86 1.442 . S
C85 H112 0.930 . S
C86 C85 1.442 . S
C86 C87 1.381 . S
C86 H113 0.931 . S
C87 C86 1.381 . S
C87 C88 1.321 1_545 S
C88 C87 1.321 1_565 S
C88 C89 1.403 . S
C88 H114 0.934 . S
C89 C84 1.413 . S
C89 C88 1.403 . S
C89 H115 0.930 . S
C90 O104 1.275 . S
C90 O105 1.256 . S
C91 O106 1.259 . S
C91 O107 1.268 . S
C92 Ho81 2.811 . S
C92 C93 1.488 . S
C92 O108 1.215 . S
C92 O109 1.289 1_545 S
C93 C92 1.488 . S
C93 C94 1.348 1_545 S
C93 C98 1.413 . S
C94 C93 1.348 1_565 S
C94 C95 1.442 . S
C94 H116 0.930 . S
C95 C94 1.442 . S
C95 C96 1.381 1_565 S
C95 H117 0.931 . S
C96 C95 1.381 1_545 S
C96 C97 1.321 . S
C97 C96 1.321 . S
C97 C98 1.403 . S
C97 H118 0.934 . S
C98 C93 1.413 . S
C98 C97 1.403 . S
C98 H119 0.930 . S
C99 O110 1.275 . S
C99 O111 1.256 . S
O100 Ho80 2.322 1_545 S
O100 C82 1.259 . S
O101 Ho81 2.346 . S
O101 C82 1.268 . S
O102 Ho80 2.378 . S
O102 C83 1.215 . S
O103 Ho80 2.524 1_545 S
O103 C83 1.289 1_545 S
O104 Ho80 2.381 . S
O104 C90 1.275 . S
O105 Ho80 2.669 . S
O105 Ho81 2.305 1_565 S
O105 C90 1.256 . S
O106 Ho81 2.322 1_565 S
O106 C91 1.259 . S
O107 Ho80 2.346 . S
O107 C91 1.268 . S
O108 Ho81 2.378 . S
O108 C92 1.215 . S
O109 Ho81 2.524 1_565 S
O109 C92 1.289 1_565 S
O110 Ho81 2.381 . S
O110 C99 1.275 . S
O111 Ho80 2.305 1_545 S
O111 Ho81 2.669 . S
O111 C99 1.256 . S
H112 C85 0.930 . S
H113 C86 0.931 . S
H114 C88 0.934 . S
H115 C89 0.930 . S
H116 C94 0.930 . S
H117 C95 0.931 . S
H118 C97 0.934 . S
H119 C98 0.930 . S
Ho120 C123 2.811 . S
Ho120 O140 2.319 1_455 S
Ho120 O142 2.378 . S
Ho120 O143 2.524 . S
Ho120 O144 2.381 . S
Ho120 O145 2.669 . S
Ho120 O147 2.346 . S
Ho120 O151 2.305 1_455 S
Ho121 C132 2.811 . S
Ho121 O141 2.346 . S
Ho121 O145 2.305 1_655 S
Ho121 O146 2.322 1_655 S
Ho121 O148 2.378 . S
Ho121 O149 2.524 1_655 S
Ho121 O150 2.381 . S
Ho121 O151 2.669 . S
C122 O140 1.275 . S
C122 O141 1.268 . S
C123 Ho120 2.811 . S
C123 C124 1.488 . S
C123 O142 1.215 . S
C123 O143 1.289 . S
C124 C123 1.488 . S
C124 C125 1.348 1_455 S
C124 C129 1.413 . S
C125 C124 1.348 1_655 S
C125 C126 1.442 . S
C125 H152 0.930 . S
C126 C125 1.442 . S
C126 C127 1.381 1_656 S
C126 H153 0.931 . S
C127 C126 1.381 1_454 S
C127 C128 1.321 1_554 S
C128 C127 1.321 1_556 S
C128 C129 1.403 . S
C128 H154 0.934 . S
C129 C124 1.413 . S
C129 C128 1.403 . S
C129 H155 0.930 . S
C130 O144 1.275 . S
C130 O145 1.256 . S
C131 O146 1.259 . S
C131 O147 1.268 . S
C132 Ho121 2.811 . S
C132 C133 1.488 . S
C132 O148 1.215 . S
C132 O149 1.289 1_655 S
C133 C132 1.488 . S
C133 C134 1.348 1_655 S
C133 C138 1.413 . S
C134 C133 1.348 1_455 S
C134 C135 1.442 . S
C134 H156 0.930 . S
C135 C134 1.442 . S
C135 C136 1.381 1_455 S
C135 H157 0.931 . S
C136 C135 1.381 1_655 S
C136 C137 1.321 . S
C137 C136 1.321 . S
C137 C138 1.403 . S
C137 H158 0.934 . S
C138 C133 1.413 . S
C138 C137 1.403 . S
C138 H159 0.930 . S
C139 O150 1.275 . S
C139 O151 1.256 . S
O140 Ho120 2.319 1_655 S
O140 C122 1.275 . S
O141 Ho121 2.346 . S
O141 C122 1.268 . S
O142 Ho120 2.378 . S
O142 C123 1.215 . S
O143 Ho120 2.524 . S
O143 C123 1.289 . S
O144 Ho120 2.381 . S
O144 C130 1.275 . S
O145 Ho120 2.669 . S
O145 Ho121 2.305 1_455 S
O145 C130 1.256 . S
O146 Ho121 2.322 1_455 S
O146 C131 1.259 . S
O147 Ho120 2.346 . S
O147 C131 1.268 . S
O148 Ho121 2.378 . S
O148 C132 1.215 . S
O149 Ho121 2.524 1_455 S
O149 C132 1.289 1_455 S
O150 Ho121 2.381 . S
O150 C139 1.275 . S
O151 Ho120 2.305 1_655 S
O151 Ho121 2.669 . S
O151 C139 1.256 . S
H152 C125 0.930 . S
H153 C126 0.931 . S
H154 C128 0.934 . S
H155 C129 0.930 . S
H156 C134 0.930 . S
H157 C135 0.931 . S
H158 C137 0.934 . S
H159 C138 0.930 . S
Ho160 C163 2.811 . S
Ho160 O180 2.322 . S
Ho160 O182 2.378 . S
Ho160 O183 2.524 . S
Ho160 O184 2.381 . S
Ho160 O185 2.669 . S
Ho160 O187 2.346 . S
Ho160 O191 2.305 . S
Ho161 C172 2.811 . S
Ho161 O181 2.346 . S
Ho161 O185 2.305 . S
Ho161 O186 2.322 . S
Ho161 O188 2.378 . S
Ho161 O189 2.524 . S
Ho161 O190 2.381 . S
Ho161 O191 2.669 . S
C162 O180 1.259 . S
C162 O181 1.268 . S
C163 Ho160 2.811 . S
C163 C164 1.488 . S
C163 O182 1.215 . S
C163 O183 1.289 . S
C164 C163 1.488 . S
C164 C165 1.348 . S
C164 C169 1.413 . S
C165 C164 1.348 . S
C165 C166 1.442 . S
C165 H192 0.930 . S
C166 C165 1.442 . S
C166 C167 1.381 . S
C166 H193 0.931 . S
C167 C166 1.381 . S
C167 C168 1.321 . S
C168 C167 1.321 . S
C168 C169 1.403 . S
C168 H194 0.934 . S
C169 C164 1.413 . S
C169 C168 1.403 . S
C169 H195 0.930 . S
C170 O184 1.275 . S
C170 O185 1.256 . S
C171 O186 1.259 . S
C171 O187 1.268 . S
C172 Ho161 2.811 . S
C172 C173 1.488 . S
C172 O188 1.215 . S
C172 O189 1.289 . S
C173 C172 1.488 . S
C173 C174 1.348 . S
C173 C178 1.413 . S
C174 C173 1.348 . S
C174 C175 1.442 . S
C174 H196 0.930 . S
C175 C174 1.442 . S
C175 C176 1.381 1_556 S
C175 H197 0.931 1_556 S
C176 C175 1.381 1_554 S
C176 C177 1.321 1_554 S
C177 C176 1.321 1_556 S
C177 C178 1.403 . S
C177 H198 0.934 . S
C178 C173 1.413 . S
C178 C177 1.403 . S
C178 H199 0.930 . S
C179 O190 1.275 . S
C179 O191 1.256 . S
O180 Ho160 2.322 . S
O180 C162 1.259 . S
O181 Ho161 2.346 . S
O181 C162 1.268 . S
O182 Ho160 2.378 . S
O182 C163 1.215 . S
O183 Ho160 2.524 . S
O183 C163 1.289 . S
O184 Ho160 2.381 . S
O184 C170 1.275 . S
O185 Ho160 2.669 . S
O185 Ho161 2.305 . S
O185 C170 1.256 . S
O186 Ho161 2.322 . S
O186 C171 1.259 . S
O187 Ho160 2.346 . S
O187 C171 1.268 . S
O188 Ho161 2.378 . S
O188 C172 1.215 . S
O189 Ho161 2.524 . S
O189 C172 1.289 . S
O190 Ho161 2.381 . S
O190 C179 1.275 . S
O191 Ho160 2.305 . S
O191 Ho161 2.669 . S
O191 C179 1.256 . S
H192 C165 0.930 . S
H193 C166 0.931 . S
H194 C168 0.934 . S
H195 C169 0.930 . S
H196 C174 0.930 . S
H197 C175 0.931 1_554 S
H198 C177 0.934 . S
H199 C178 0.930 . S
Ho200 C203 2.811 . S
Ho200 O220 2.322 1_565 S
Ho200 O222 2.378 . S
Ho200 O223 2.524 1_565 S
Ho200 O224 2.381 . S
Ho200 O225 2.669 . S
Ho200 O227 2.346 . S
Ho200 O231 2.305 1_565 S
Ho201 C212 2.811 . S
Ho201 O221 2.346 . S
Ho201 O225 2.305 1_545 S
Ho201 O226 2.322 1_545 S
Ho201 O228 2.378 . S
Ho201 O229 2.519 1_545 S
Ho201 O230 2.381 . S
Ho201 O231 2.669 . S
C202 O220 1.259 . S
C202 O221 1.268 . S
C203 Ho200 2.811 . S
C203 C204 1.488 . S
C203 O222 1.215 . S
C203 O223 1.289 1_565 S
C204 C203 1.488 . S
C204 C205 1.348 1_565 S
C204 C209 1.413 . S
C205 C204 1.348 1_545 S
C205 C206 1.442 . S
C205 H232 0.930 . S
C206 C205 1.442 . S
C206 C207 1.381 . S
C206 H233 0.931 . S
C207 C206 1.381 . S
C207 C208 1.321 1_545 S
C208 C207 1.321 1_565 S
C208 C209 1.403 . S
C208 H234 0.934 . S
C209 C204 1.413 . S
C209 C208 1.403 . S
C209 H235 0.930 . S
C210 O224 1.275 . S
C210 O225 1.256 . S
C211 O226 1.259 . S
C211 O227 1.268 . S
C212 Ho201 2.811 . S
C212 C213 1.488 . S
C212 O228 1.215 . S
C212 O229 1.284 1_545 S
C213 C212 1.488 . S
C213 C214 1.348 1_545 S
C213 C218 1.413 . S
C214 C213 1.348 1_565 S
C214 C215 1.442 . S
C214 H236 0.930 . S
C215 C214 1.442 . S
C215 C216 1.381 1_565 S
C215 H237 0.931 . S
C216 C215 1.381 1_545 S
C216 C217 1.321 . S
C217 C216 1.321 . S
C217 C218 1.403 . S
C217 H238 0.934 . S
C218 C213 1.413 . S
C218 C217 1.403 . S
C218 H239 0.930 . S
C219 O230 1.275 . S
C219 O231 1.256 . S
O220 Ho200 2.322 1_545 S
O220 C202 1.259 . S
O221 Ho201 2.346 . S
O221 C202 1.268 . S
O222 Ho200 2.378 . S
O222 C203 1.215 . S
O223 Ho200 2.524 1_545 S
O223 C203 1.289 1_545 S
O224 Ho200 2.381 . S
O224 C210 1.275 . S
O225 Ho200 2.669 . S
O225 Ho201 2.305 1_565 S
O225 C210 1.256 . S
O226 Ho201 2.322 1_565 S
O226 C211 1.259 . S
O227 Ho200 2.346 . S
O227 C211 1.268 . S
O228 Ho201 2.378 . S
O228 C212 1.215 . S
O229 Ho201 2.519 1_565 S
O229 C212 1.284 1_565 S
O230 Ho201 2.381 . S
O230 C219 1.275 . S
O231 Ho200 2.305 1_545 S
O231 Ho201 2.669 . S
O231 C219 1.256 . S
H232 C205 0.930 . S
H233 C206 0.931 . S
H234 C208 0.934 . S
H235 C209 0.930 . S
H236 C214 0.930 . S
H237 C215 0.931 . S
H238 C217 0.934 . S
H239 C218 0.930 . S
Ho240 C243 2.811 . S
Ho240 O260 2.322 . S
Ho240 O262 2.378 . S
Ho240 O263 2.524 . S
Ho240 O264 2.381 . S
Ho240 O265 2.669 . S
Ho240 O267 2.346 . S
Ho240 O271 2.305 . S
Ho241 C252 2.811 1_556 S
Ho241 O261 2.346 . S
Ho241 O265 2.305 . S
Ho241 O266 2.322 . S
Ho241 O268 2.378 1_556 S
Ho241 O269 2.524 1_556 S
Ho241 O270 2.381 . S
Ho241 O271 2.669 . S
C242 O260 1.259 . S
C242 O261 1.268 . S
C243 Ho240 2.811 . S
C243 C244 1.488 . S
C243 O262 1.215 . S
C243 O263 1.289 . S
C244 C243 1.488 . S
C244 C245 1.348 . S
C244 C249 1.413 . S
C245 C244 1.348 . S
C245 C246 1.442 . S
C245 H272 0.930 . S
C246 C245 1.442 . S
C246 C247 1.381 . S
C246 H273 0.931 . S
C247 C246 1.381 . S
C247 C248 1.321 . S
C248 C247 1.321 . S
C248 C249 1.403 . S
C248 H274 0.934 . S
C249 C244 1.413 . S
C249 C248 1.403 . S
C249 H275 0.930 . S
C250 O264 1.275 . S
C250 O265 1.256 . S
C251 O266 1.259 . S
C251 O267 1.268 . S
C252 Ho241 2.811 1_554 S
C252 C253 1.488 . S
C252 O268 1.215 . S
C252 O269 1.289 . S
C253 C252 1.488 . S
C253 C254 1.348 . S
C253 C258 1.413 . S
C254 C253 1.348 . S
C254 C255 1.442 . S
C254 H276 0.930 . S
C255 C254 1.442 . S
C255 C256 1.381 . S
C255 H277 0.931 . S
C256 C255 1.381 . S
C256 C257 1.321 . S
C257 C256 1.321 . S
C257 C258 1.403 . S
C257 H278 0.934 . S
C258 C253 1.413 . S
C258 C257 1.403 . S
C258 H279 0.930 . S
C259 O270 1.275 . S
C259 O271 1.256 . S
O260 Ho240 2.322 . S
O260 C242 1.259 . S
O261 Ho241 2.346 . S
O261 C242 1.268 . S
O262 Ho240 2.378 . S
O262 C243 1.215 . S
O263 Ho240 2.524 . S
O263 C243 1.289 . S
O264 Ho240 2.381 . S
O264 C250 1.275 . S
O265 Ho240 2.669 . S
O265 Ho241 2.305 . S
O265 C250 1.256 . S
O266 Ho241 2.322 . S
O266 C251 1.259 . S
O267 Ho240 2.346 . S
O267 C251 1.268 . S
O268 Ho241 2.378 1_554 S
O268 C252 1.215 . S
O269 Ho241 2.524 1_554 S
O269 C252 1.289 . S
O270 Ho241 2.381 . S
O270 C259 1.275 . S
O271 Ho240 2.305 . S
O271 Ho241 2.669 . S
O271 C259 1.256 . S
H272 C245 0.930 . S
H273 C246 0.931 . S
H274 C248 0.934 . S
H275 C249 0.930 . S
H276 C254 0.930 . S
H277 C255 0.931 . S
H278 C257 0.934 . S
H279 C258 0.930 . S
Ho280 C283 2.811 . S
Ho280 O300 2.322 . S
Ho280 O302 2.378 . S
Ho280 O303 2.524 . S
Ho280 O304 2.381 . S
Ho280 O305 2.669 . S
Ho280 O307 2.346 . S
Ho280 O311 2.305 . S
Ho281 C292 2.811 1_556 S
Ho281 O301 2.346 . S
Ho281 O305 2.305 . S
Ho281 O306 2.322 . S
Ho281 O308 2.378 . S
Ho281 O309 2.524 . S
Ho281 O310 2.381 . S
Ho281 O311 2.669 . S
C282 O300 1.259 . S
C282 O301 1.268 . S
C283 Ho280 2.811 . S
C283 C284 1.488 . S
C283 O302 1.215 . S
C283 O303 1.289 . S
C284 C283 1.488 . S
C284 C285 1.348 . S
C284 C289 1.413 . S
C285 C284 1.348 . S
C285 C286 1.442 . S
C285 H312 0.930 . S
C286 C285 1.442 . S
C286 C287 1.381 . S
C286 H313 0.931 . S
C287 C286 1.381 . S
C287 C288 1.321 . S
C288 C287 1.321 . S
C288 C289 1.403 . S
C288 H314 0.934 . S
C289 C284 1.413 . S
C289 C288 1.403 . S
C289 H315 0.930 . S
C290 O304 1.275 . S
C290 O305 1.256 . S
C291 O306 1.259 . S
C291 O307 1.268 . S
C292 Ho281 2.811 1_554 S
C292 C293 1.488 . S
C292 O308 1.215 1_554 S
C292 O309 1.289 1_554 S
C293 C292 1.488 . S
C293 C294 1.348 . S
C293 C298 1.413 . S
C294 C293 1.348 . S
C294 C295 1.442 . S
C294 H316 0.930 . S
C295 C294 1.442 . S
C295 C296 1.381 . S
C295 H317 0.931 . S
C296 C295 1.381 . S
C296 C297 1.321 . S
C297 C296 1.321 . S
C297 C298 1.403 . S
C297 H318 0.934 . S
C298 C293 1.413 . S
C298 C297 1.403 . S
C298 H319 0.930 . S
C299 O310 1.275 . S
C299 O311 1.256 . S
O300 Ho280 2.322 . S
O300 C282 1.259 . S
O301 Ho281 2.346 . S
O301 C282 1.268 . S
O302 Ho280 2.378 . S
O302 C283 1.215 . S
O303 Ho280 2.524 . S
O303 C283 1.289 . S
O304 Ho280 2.381 . S
O304 C290 1.275 . S
O305 Ho280 2.669 . S
O305 Ho281 2.305 . S
O305 C290 1.256 . S
O306 Ho281 2.322 . S
O306 C291 1.259 . S
O307 Ho280 2.346 . S
O307 C291 1.268 . S
O308 Ho281 2.378 . S
O308 C292 1.215 1_556 S
O309 Ho281 2.524 . S
O309 C292 1.289 1_556 S
O310 Ho281 2.381 . S
O310 C299 1.275 . S
O311 Ho280 2.305 . S
O311 Ho281 2.669 . S
O311 C299 1.256 . S
H312 C285 0.930 . S
H313 C286 0.931 . S
H314 C288 0.934 . S
H315 C289 0.930 . S
H316 C294 0.930 . S
H317 C295 0.931 . S
H318 C297 0.934 . S
H319 C298 0.930 . S
Ho320 C323 2.811 . S
Ho320 O340 2.322 . S
Ho320 O342 2.378 . S
Ho320 O343 2.524 . S
Ho320 O344 2.381 . S
Ho320 O345 2.669 . S
Ho320 O347 2.335 1_655 S
Ho320 O351 2.305 . S
Ho321 C332 2.811 1_556 S
Ho321 O341 2.346 . S
Ho321 O345 2.305 . S
Ho321 O346 2.322 . S
Ho321 O348 2.378 1_556 S
Ho321 O349 2.524 1_556 S
Ho321 O350 2.381 . S
Ho321 O351 2.669 . S
C322 O340 1.259 . S
C322 O341 1.268 . S
C323 Ho320 2.811 . S
C323 C324 1.488 . S
C323 O342 1.215 . S
C323 O343 1.289 . S
C324 C323 1.488 . S
C324 C325 1.348 . S
C324 C329 1.413 . S
C325 C324 1.348 . S
C325 C326 1.442 . S
C325 H352 0.930 . S
C326 C325 1.442 . S
C326 C327 1.381 . S
C326 H353 0.931 . S
C327 C326 1.381 . S
C327 C328 1.321 . S
C328 C327 1.321 . S
C328 C329 1.403 . S
C328 H354 0.934 . S
C329 C324 1.413 . S
C329 C328 1.403 . S
C329 H355 0.930 . S
C330 O344 1.275 . S
C330 O345 1.256 . S
C331 O346 1.259 1_455 S
C331 O347 1.271 . S
C332 Ho321 2.811 1_554 S
C332 C333 1.488 . S
C332 O348 1.215 . S
C332 O349 1.289 . S
C333 C332 1.488 . S
C333 C334 1.348 . S
C333 C338 1.413 . S
C334 C333 1.348 . S
C334 C335 1.442 . S
C334 H356 0.930 . S
C335 C334 1.442 . S
C335 C336 1.381 . S
C335 H357 0.931 . S
C336 C335 1.381 . S
C336 C337 1.321 . S
C337 C336 1.321 . S
C337 C338 1.403 . S
C337 H358 0.934 . S
C338 C333 1.413 . S
C338 C337 1.403 . S
C338 H359 0.930 . S
C339 O350 1.275 . S
C339 O351 1.256 . S
O340 Ho320 2.322 . S
O340 C322 1.259 . S
O341 Ho321 2.346 . S
O341 C322 1.268 . S
O342 Ho320 2.378 . S
O342 C323 1.215 . S
O343 Ho320 2.524 . S
O343 C323 1.289 . S
O344 Ho320 2.381 . S
O344 C330 1.275 . S
O345 Ho320 2.669 . S
O345 Ho321 2.305 . S
O345 C330 1.256 . S
O346 Ho321 2.322 . S
O346 C331 1.259 1_655 S
O347 Ho320 2.335 1_455 S
O347 C331 1.271 . S
O348 Ho321 2.378 1_554 S
O348 C332 1.215 . S
O349 Ho321 2.524 1_554 S
O349 C332 1.289 . S
O350 Ho321 2.381 . S
O350 C339 1.275 . S
O351 Ho320 2.305 . S
O351 Ho321 2.669 . S
O351 C339 1.256 . S
H352 C325 0.930 . S
H353 C326 0.931 . S
H354 C328 0.934 . S
H355 C329 0.930 . S
H356 C334 0.930 . S
H357 C335 0.931 . S
H358 C337 0.934 . S
H359 C338 0.930 . S
Ho360 C363 2.811 1_556 S
Ho360 O380 2.322 . S
Ho360 O382 2.378 1_556 S
Ho360 O383 2.524 1_556 S
Ho360 O384 2.381 . S
Ho360 O385 2.669 . S
Ho360 O387 2.346 . S
Ho360 O391 2.305 . S
Ho361 C372 2.811 . S
Ho361 O381 2.346 . S
Ho361 O385 2.305 . S
Ho361 O386 2.322 . S
Ho361 O388 2.378 . S
Ho361 O389 2.524 . S
Ho361 O390 2.381 . S
Ho361 O391 2.669 . S
C362 O380 1.259 . S
C362 O381 1.268 . S
C363 Ho360 2.811 1_554 S
C363 C364 1.488 . S
C363 O382 1.215 . S
C363 O383 1.289 . S
C364 C363 1.488 . S
C364 C365 1.348 . S
C364 C369 1.413 . S
C365 C364 1.348 . S
C365 C366 1.442 . S
C365 H392 0.930 . S
C366 C365 1.442 . S
C366 C367 1.381 . S
C366 H393 0.931 . S
C367 C366 1.381 . S
C367 C368 1.321 . S
C368 C367 1.321 . S
C368 C369 1.403 . S
C368 H394 0.934 . S
C369 C364 1.413 . S
C369 C368 1.403 . S
C369 H395 0.930 . S
C370 O384 1.275 . S
C370 O385 1.256 . S
C371 O386 1.259 . S
C371 O387 1.268 . S
C372 Ho361 2.811 . S
C372 C373 1.488 . S
C372 O388 1.215 . S
C372 O389 1.289 . S
C373 C372 1.488 . S
C373 C374 1.348 . S
C373 C378 1.413 . S
C374 C373 1.348 . S
C374 C375 1.442 . S
C374 H396 0.930 . S
C375 C374 1.442 . S
C375 C376 1.381 . S
C375 H397 0.931 . S
C376 C375 1.381 . S
C376 C377 1.321 . S
C377 C376 1.321 . S
C377 C378 1.403 . S
C377 H398 0.934 . S
C378 C373 1.413 . S
C378 C377 1.403 . S
C378 H399 0.930 . S
C379 O390 1.275 . S
C379 O391 1.256 . S
O380 Ho360 2.322 . S
O380 C362 1.259 . S
O381 Ho361 2.346 . S
O381 C362 1.268 . S
O382 Ho360 2.378 1_554 S
O382 C363 1.215 . S
O383 Ho360 2.524 1_554 S
O383 C363 1.289 . S
O384 Ho360 2.381 . S
O384 C370 1.275 . S
O385 Ho360 2.669 . S
O385 Ho361 2.305 . S
O385 C370 1.256 . S
O386 Ho361 2.322 . S
O386 C371 1.259 . S
O387 Ho360 2.346 . S
O387 C371 1.268 . S
O388 Ho361 2.378 . S
O388 C372 1.215 . S
O389 Ho361 2.524 . S
O389 C372 1.289 . S
O390 Ho361 2.381 . S
O390 C379 1.275 . S
O391 Ho360 2.305 . S
O391 Ho361 2.669 . S
O391 C379 1.256 . S
H392 C365 0.930 . S
H393 C366 0.931 . S
H394 C368 0.934 . S
H395 C369 0.930 . S
H396 C374 0.930 . S
H397 C375 0.931 . S
H398 C377 0.934 . S
H399 C378 0.930 . S
Ho400 C403 2.811 1_556 S
Ho400 O420 2.322 . S
Ho400 O422 2.378 1_556 S
Ho400 O423 2.524 1_556 S
Ho400 O424 2.381 . S
Ho400 O425 2.669 . S
Ho400 O427 2.346 . S
Ho400 O431 2.305 . S
Ho401 C412 2.811 . S
Ho401 O421 2.346 1_655 S
Ho401 O425 2.305 . S
Ho401 O426 2.322 . S
Ho401 O428 2.378 . S
Ho401 O429 2.524 . S
Ho401 O430 2.381 . S
Ho401 O431 2.669 . S
C402 O420 1.259 1_455 S
C402 O421 1.268 . S
C403 Ho400 2.811 1_554 S
C403 C404 1.488 . S
C403 O422 1.215 . S
C403 O423 1.289 . S
C404 C403 1.488 . S
C404 C405 1.348 . S
C404 C409 1.413 . S
C405 C404 1.348 . S
C405 C406 1.442 . S
C405 H432 0.930 . S
C406 C405 1.442 . S
C406 C407 1.381 . S
C406 H433 0.931 . S
C407 C406 1.381 . S
C407 C408 1.321 . S
C408 C407 1.321 . S
C408 C409 1.403 . S
C408 H434 0.934 . S
C409 C404 1.413 . S
C409 C408 1.403 . S
C409 H435 0.930 . S
C410 O424 1.275 . S
C410 O425 1.256 . S
C411 O426 1.259 . S
C411 O427 1.268 . S
C412 Ho401 2.811 . S
C412 C413 1.488 . S
C412 O428 1.215 . S
C412 O429 1.289 . S
C413 C412 1.488 . S
C413 C414 1.348 . S
C413 C418 1.413 . S
C414 C413 1.348 . S
C414 C415 1.442 . S
C414 H436 0.930 . S
C415 C414 1.442 . S
C415 C416 1.381 . S
C415 H437 0.931 . S
C416 C415 1.381 . S
C416 C417 1.321 . S
C417 C416 1.321 . S
C417 C418 1.403 . S
C417 H438 0.934 . S
C418 C413 1.413 . S
C418 C417 1.403 . S
C418 H439 0.930 . S
C419 O430 1.275 . S
C419 O431 1.256 . S
O420 Ho400 2.322 . S
O420 C402 1.259 1_655 S
O421 Ho401 2.346 1_455 S
O421 C402 1.268 . S
O422 Ho400 2.378 1_554 S
O422 C403 1.215 . S
O423 Ho400 2.524 1_554 S
O423 C403 1.289 . S
O424 Ho400 2.381 . S
O424 C410 1.275 . S
O425 Ho400 2.669 . S
O425 Ho401 2.305 . S
O425 C410 1.256 . S
O426 Ho401 2.322 . S
O426 C411 1.259 . S
O427 Ho400 2.346 . S
O427 C411 1.268 . S
O428 Ho401 2.378 . S
O428 C412 1.215 . S
O429 Ho401 2.524 . S
O429 C412 1.289 . S
O430 Ho401 2.381 . S
O430 C419 1.275 . S
O431 Ho400 2.305 . S
O431 Ho401 2.669 . S
O431 C419 1.256 . S
H432 C405 0.930 . S
H433 C406 0.931 . S
H434 C408 0.934 . S
H435 C409 0.930 . S
H436 C414 0.930 . S
H437 C415 0.931 . S
H438 C417 0.934 . S
H439 C418 0.930 . S
Ho440 C443 2.811 1_556 S
Ho440 O460 2.322 . S
Ho440 O462 2.378 1_556 S
Ho440 O463 2.524 1_556 S
Ho440 O464 2.381 . S
Ho440 O465 2.669 . S
Ho440 O467 2.346 . S
Ho440 O471 2.305 . S
Ho441 C452 2.811 . S
Ho441 O461 2.346 . S
Ho441 O465 2.305 . S
Ho441 O466 2.322 . S
Ho441 O468 2.378 . S
Ho441 O469 2.524 . S
Ho441 O470 2.381 . S
Ho441 O471 2.669 . S
C442 O460 1.259 . S
C442 O461 1.268 . S
C443 Ho440 2.811 1_554 S
C443 C444 1.488 . S
C443 O462 1.215 . S
C443 O463 1.289 . S
C444 C443 1.488 . S
C444 C445 1.348 . S
C444 C449 1.413 . S
C445 C444 1.348 . S
C445 C446 1.442 . S
C445 H472 0.930 . S
C446 C445 1.442 . S
C446 C447 1.381 . S
C446 H473 0.931 . S
C447 C446 1.381 . S
C447 C448 1.321 . S
C448 C447 1.321 . S
C448 C449 1.403 . S
C448 H474 0.934 . S
C449 C444 1.413 . S
C449 C448 1.403 . S
C449 H475 0.930 . S
C450 O464 1.275 . S
C450 O465 1.256 . S
C451 O466 1.259 . S
C451 O467 1.268 . S
C452 Ho441 2.811 . S
C452 C453 1.488 . S
C452 O468 1.215 . S
C452 O469 1.289 . S
C453 C452 1.488 . S
C453 C454 1.348 . S
C453 C458 1.413 . S
C454 C453 1.348 . S
C454 C455 1.442 . S
C454 H476 0.930 . S
C455 C454 1.442 . S
C455 C456 1.381 . S
C455 H477 0.931 . S
C456 C455 1.381 . S
C456 C457 1.321 . S
C457 C456 1.321 . S
C457 C458 1.403 . S
C457 H478 0.934 . S
C458 C453 1.413 . S
C458 C457 1.403 . S
C458 H479 0.930 . S
C459 O470 1.275 . S
C459 O471 1.256 . S
O460 Ho440 2.322 . S
O460 C442 1.259 . S
O461 Ho441 2.346 . S
O461 C442 1.268 . S
O462 Ho440 2.378 1_554 S
O462 C443 1.215 . S
O463 Ho440 2.524 1_554 S
O463 C443 1.289 . S
O464 Ho440 2.381 . S
O464 C450 1.275 . S
O465 Ho440 2.669 . S
O465 Ho441 2.305 . S
O465 C450 1.256 . S
O466 Ho441 2.322 . S
O466 C451 1.259 . S
O467 Ho440 2.346 . S
O467 C451 1.268 . S
O468 Ho441 2.378 . S
O468 C452 1.215 . S
O469 Ho441 2.524 . S
O469 C452 1.289 . S
O470 Ho441 2.381 . S
O470 C459 1.275 . S
O471 Ho440 2.305 . S
O471 Ho441 2.669 . S
O471 C459 1.256 . S
H472 C445 0.930 . S
H473 C446 0.931 . S
H474 C448 0.934 . S
H475 C449 0.930 . S
H476 C454 0.930 . S
H477 C455 0.931 . S
H478 C457 0.934 . S
H479 C458 0.930 . S
Ho480 C483 2.811 . S
Ho480 O500 2.322 . S
Ho480 O502 2.378 . S
Ho480 O503 2.524 . S
Ho480 O504 2.381 . S
Ho480 O505 2.669 . S
Ho480 O507 2.346 1_565 S
Ho480 O511 2.305 . S
Ho481 C492 2.811 1_554 S
Ho481 O501 2.346 . S
Ho481 O505 2.305 . S
Ho481 O506 2.322 . S
Ho481 O508 2.378 1_554 S
Ho481 O509 2.524 1_554 S
Ho481 O510 2.381 . S
Ho481 O511 2.669 . S
C482 O500 1.259 . S
C482 O501 1.268 . S
C483 Ho480 2.811 . S
C483 C484 1.488 . S
C483 O502 1.215 . S
C483 O503 1.289 . S
C484 C483 1.488 . S
C484 C485 1.348 . S
C484 C489 1.413 . S
C485 C484 1.348 . S
C485 C486 1.442 . S
C485 H512 0.930 . S
C486 C485 1.442 . S
C486 C487 1.381 . S
C486 H513 0.931 . S
C487 C486 1.381 . S
C487 C488 1.321 . S
C488 C487 1.321 . S
C488 C489 1.403 . S
C488 H514 0.934 . S
C489 C484 1.413 . S
C489 C488 1.403 . S
C489 H515 0.930 . S
C490 O504 1.275 . S
C490 O505 1.256 . S
C491 O506 1.259 1_545 S
C491 O507 1.268 . S
C492 Ho481 2.811 1_556 S
C492 C493 1.488 . S
C492 O508 1.215 . S
C492 O509 1.289 . S
C493 C492 1.488 . S
C493 C494 1.348 . S
C493 C498 1.413 . S
C494 C493 1.348 . S
C494 C495 1.442 . S
C494 H516 0.930 . S
C495 C494 1.442 . S
C495 C496 1.381 . S
C495 H517 0.931 . S
C496 C495 1.381 . S
C496 C497 1.321 . S
C497 C496 1.321 . S
C497 C498 1.403 . S
C497 H518 0.934 . S
C498 C493 1.413 . S
C498 C497 1.403 . S
C498 H519 0.930 . S
C499 O510 1.275 . S
C499 O511 1.256 . S
O500 Ho480 2.322 . S
O500 C482 1.259 . S
O501 Ho481 2.346 . S
O501 C482 1.268 . S
O502 Ho480 2.378 . S
O502 C483 1.215 . S
O503 Ho480 2.524 . S
O503 C483 1.289 . S
O504 Ho480 2.381 . S
O504 C490 1.275 . S
O505 Ho480 2.669 . S
O505 Ho481 2.305 . S
O505 C490 1.256 . S
O506 Ho481 2.322 . S
O506 C491 1.259 1_565 S
O507 Ho480 2.346 1_545 S
O507 C491 1.268 . S
O508 Ho481 2.378 1_556 S
O508 C492 1.215 . S
O509 Ho481 2.524 1_556 S
O509 C492 1.289 . S
O510 Ho481 2.381 . S
O510 C499 1.275 . S
O511 Ho480 2.305 . S
O511 Ho481 2.669 . S
O511 C499 1.256 . S
H512 C485 0.930 . S
H513 C486 0.931 . S
H514 C488 0.934 . S
H515 C489 0.930 . S
H516 C494 0.930 . S
H517 C495 0.931 . S
H518 C497 0.934 . S
H519 C498 0.930 . S
Ho520 C523 2.811 1_554 S
Ho520 O540 2.322 . S
Ho520 O542 2.378 1_554 S
Ho520 O543 2.524 1_554 S
Ho520 O544 2.381 . S
Ho520 O545 2.669 . S
Ho520 O547 2.346 . S
Ho520 O551 2.305 . S
Ho521 C532 2.811 . S
Ho521 O541 2.346 . S
Ho521 O545 2.305 . S
Ho521 O546 2.322 . S
Ho521 O548 2.378 . S
Ho521 O549 2.524 . S
Ho521 O550 2.381 . S
Ho521 O551 2.669 . S
C522 O540 1.259 . S
C522 O541 1.268 . S
C523 Ho520 2.811 1_556 S
C523 C524 1.488 . S
C523 O542 1.215 . S
C523 O543 1.289 . S
C524 C523 1.488 . S
C524 C525 1.348 . S
C524 C529 1.413 . S
C525 C524 1.348 . S
C525 C526 1.442 . S
C525 H552 0.930 . S
C526 C525 1.442 . S
C526 C527 1.381 . S
C526 H553 0.931 . S
C527 C526 1.381 . S
C527 C528 1.321 . S
C528 C527 1.321 . S
C528 C529 1.403 . S
C528 H554 0.934 . S
C529 C524 1.413 . S
C529 C528 1.403 . S
C529 H555 0.930 . S
C530 O544 1.275 . S
C530 O545 1.256 . S
C531 O546 1.259 . S
C531 O547 1.268 . S
C532 Ho521 2.811 . S
C532 C533 1.488 . S
C532 O548 1.215 . S
C532 O549 1.289 . S
C533 C532 1.488 . S
C533 C534 1.348 . S
C533 C538 1.413 . S
C534 C533 1.348 . S
C534 C535 1.442 . S
C534 H556 0.930 . S
C535 C534 1.442 . S
C535 C536 1.381 . S
C535 H557 0.931 . S
C536 C535 1.381 . S
C536 C537 1.321 . S
C537 C536 1.321 . S
C537 C538 1.403 . S
C537 H558 0.934 1_455 S
C538 C533 1.413 . S
C538 C537 1.403 . S
C538 H559 0.930 . S
C539 O550 1.275 . S
C539 O551 1.256 . S
O540 Ho520 2.322 . S
O540 C522 1.259 . S
O541 Ho521 2.346 . S
O541 C522 1.268 . S
O542 Ho520 2.378 1_556 S
O542 C523 1.215 . S
O543 Ho520 2.524 1_556 S
O543 C523 1.289 . S
O544 Ho520 2.381 . S
O544 C530 1.275 . S
O545 Ho520 2.669 . S
O545 Ho521 2.305 . S
O545 C530 1.256 . S
O546 Ho521 2.322 . S
O546 C531 1.259 . S
O547 Ho520 2.346 . S
O547 C531 1.268 . S
O548 Ho521 2.378 . S
O548 C532 1.215 . S
O549 Ho521 2.524 . S
O549 C532 1.289 . S
O550 Ho521 2.381 . S
O550 C539 1.275 . S
O551 Ho520 2.305 . S
O551 Ho521 2.669 . S
O551 C539 1.256 . S
H552 C525 0.930 . S
H553 C526 0.931 . S
H554 C528 0.934 . S
H555 C529 0.930 . S
H556 C534 0.930 . S
H557 C535 0.931 . S
H558 C537 0.934 1_655 S
H559 C538 0.930 . S
Ho560 C563 2.811 . S
Ho560 O580 2.322 . S
Ho560 O582 2.378 . S
Ho560 O583 2.524 . S
Ho560 O584 2.381 . S
Ho560 O585 2.669 . S
Ho560 O587 2.346 . S
Ho560 O591 2.305 . S
Ho561 C572 2.811 1_554 S
Ho561 O581 2.346 . S
Ho561 O585 2.305 . S
Ho561 O586 2.322 . S
Ho561 O588 2.378 1_554 S
Ho561 O589 2.524 1_554 S
Ho561 O590 2.381 . S
Ho561 O591 2.669 . S
C562 O580 1.259 . S
C562 O581 1.268 . S
C563 Ho560 2.811 . S
C563 C564 1.488 . S
C563 O582 1.215 . S
C563 O583 1.289 . S
C564 C563 1.488 . S
C564 C565 1.348 . S
C564 C569 1.413 . S
C565 C564 1.348 . S
C565 C566 1.442 . S
C565 H592 0.930 . S
C566 C565 1.442 . S
C566 C567 1.381 . S
C566 H593 0.931 . S
C567 C566 1.381 . S
C567 C568 1.321 . S
C568 C567 1.321 . S
C568 C569 1.403 . S
C568 H594 0.934 . S
C569 C564 1.413 . S
C569 C568 1.403 . S
C569 H595 0.930 . S
C570 O584 1.275 . S
C570 O585 1.256 . S
C571 O586 1.259 . S
C571 O587 1.268 . S
C572 Ho561 2.811 1_556 S
C572 C573 1.488 . S
C572 O588 1.215 . S
C572 O589 1.289 . S
C573 C572 1.488 . S
C573 C574 1.348 . S
C573 C578 1.413 . S
C574 C573 1.348 . S
C574 C575 1.442 . S
C574 H596 0.930 . S
C575 C574 1.442 . S
C575 C576 1.381 . S
C575 H597 0.931 . S
C576 C575 1.381 . S
C576 C577 1.321 . S
C577 C576 1.321 . S
C577 C578 1.403 . S
C577 H598 0.934 . S
C578 C573 1.413 . S
C578 C577 1.403 . S
C578 H599 0.930 . S
C579 O590 1.275 . S
C579 O591 1.256 . S
O580 Ho560 2.322 . S
O580 C562 1.259 . S
O581 Ho561 2.346 . S
O581 C562 1.268 . S
O582 Ho560 2.378 . S
O582 C563 1.215 . S
O583 Ho560 2.524 . S
O583 C563 1.289 . S
O584 Ho560 2.381 . S
O584 C570 1.275 . S
O585 Ho560 2.669 . S
O585 Ho561 2.305 . S
O585 C570 1.256 . S
O586 Ho561 2.322 . S
O586 C571 1.259 . S
O587 Ho560 2.346 . S
O587 C571 1.268 . S
O588 Ho561 2.378 1_556 S
O588 C572 1.215 . S
O589 Ho561 2.524 1_556 S
O589 C572 1.289 . S
O590 Ho561 2.381 . S
O590 C579 1.275 . S
O591 Ho560 2.305 . S
O591 Ho561 2.669 . S
O591 C579 1.256 . S
H592 C565 0.930 . S
H593 C566 0.931 . S
H594 C568 0.934 . S
H595 C569 0.930 . S
H596 C574 0.930 . S
H597 C575 0.931 . S
H598 C577 0.934 . S
H599 C578 0.930 . S
Ho600 C603 2.811 . S
Ho600 O620 2.322 . S
Ho600 O622 2.378 . S
Ho600 O623 2.524 . S
Ho600 O624 2.381 . S
Ho600 O625 2.669 . S
Ho600 O627 2.346 . S
Ho600 O631 2.305 . S
Ho601 C612 2.811 1_554 S
Ho601 O621 2.346 . S
Ho601 O625 2.305 . S
Ho601 O626 2.322 . S
Ho601 O628 2.378 1_554 S
Ho601 O629 2.524 1_554 S
Ho601 O630 2.381 . S
Ho601 O631 2.669 . S
C602 O620 1.259 . S
C602 O621 1.268 . S
C603 Ho600 2.811 . S
C603 C604 1.488 . S
C603 O622 1.215 . S
C603 O623 1.289 . S
C604 C603 1.488 . S
C604 C605 1.348 . S
C604 C609 1.413 . S
C605 C604 1.348 . S
C605 C606 1.442 . S
C605 H632 0.930 . S
C606 C605 1.442 . S
C606 C607 1.381 . S
C606 H633 0.931 . S
C607 C606 1.381 . S
C607 C608 1.321 . S
C608 C607 1.321 . S
C608 C609 1.403 . S
C608 H634 0.934 . S
C609 C604 1.413 . S
C609 C608 1.403 . S
C609 H635 0.930 . S
C610 O624 1.275 . S
C610 O625 1.256 . S
C611 O626 1.259 . S
C611 O627 1.268 . S
C612 Ho601 2.811 1_556 S
C612 C613 1.488 . S
C612 O628 1.215 . S
C612 O629 1.289 . S
C613 C612 1.488 . S
C613 C614 1.348 . S
C613 C618 1.413 . S
C614 C613 1.348 . S
C614 C615 1.442 . S
C614 H636 0.930 . S
C615 C614 1.442 . S
C615 C616 1.381 . S
C615 H637 0.931 . S
C616 C615 1.381 . S
C616 C617 1.321 . S
C617 C616 1.321 . S
C617 C618 1.403 . S
C617 H638 0.934 . S
C618 C613 1.413 . S
C618 C617 1.403 . S
C618 H639 0.930 . S
C619 O630 1.275 . S
C619 O631 1.256 . S
O620 Ho600 2.322 . S
O620 C602 1.259 . S
O621 Ho601 2.346 . S
O621 C602 1.268 . S
O622 Ho600 2.378 . S
O622 C603 1.215 . S
O623 Ho600 2.524 . S
O623 C603 1.289 . S
O624 Ho600 2.381 . S
O624 C610 1.275 . S
O625 Ho600 2.669 . S
O625 Ho601 2.305 . S
O625 C610 1.256 . S
O626 Ho601 2.322 . S
O626 C611 1.259 . S
O627 Ho600 2.346 . S
O627 C611 1.268 . S
O628 Ho601 2.378 1_556 S
O628 C612 1.215 . S
O629 Ho601 2.524 1_556 S
O629 C612 1.289 . S
O630 Ho601 2.381 . S
O630 C619 1.275 . S
O631 Ho600 2.305 . S
O631 Ho601 2.669 . S
O631 C619 1.256 . S
H632 C605 0.930 . S
H633 C606 0.931 . S
H634 C608 0.934 . S
H635 C609 0.930 . S
H636 C614 0.930 . S
H637 C615 0.931 . S
H638 C617 0.934 . S
H639 C618 0.930 . S
Ho640 C643 2.811 1_554 S
Ho640 O660 2.322 . S
Ho640 O662 2.378 . S
Ho640 O663 2.524 1_554 S
Ho640 O664 2.381 . S
Ho640 O665 2.669 . S
Ho640 O667 2.346 . S
Ho640 O671 2.305 . S
Ho641 C652 2.811 . S
Ho641 O661 2.346 1_565 S
Ho641 O665 2.305 . S
Ho641 O666 2.322 . S
Ho641 O668 2.378 . S
Ho641 O669 2.524 . S
Ho641 O670 2.381 . S
Ho641 O671 2.669 . S
C642 O660 1.259 1_545 S
C642 O661 1.268 . S
C643 Ho640 2.811 1_556 S
C643 C644 1.488 . S
C643 O662 1.215 1_556 S
C643 O663 1.289 . S
C644 C643 1.488 . S
C644 C645 1.348 . S
C644 C649 1.413 . S
C645 C644 1.348 . S
C645 C646 1.442 . S
C645 H672 0.930 . S
C646 C645 1.442 . S
C646 C647 1.381 . S
C646 H673 0.931 . S
C647 C646 1.381 . S
C647 C648 1.321 . S
C648 C647 1.321 . S
C648 C649 1.403 . S
C648 H674 0.934 . S
C649 C644 1.413 . S
C649 C648 1.403 . S
C649 H675 0.930 . S
C650 O664 1.275 . S
C650 O665 1.256 . S
C651 O666 1.259 . S
C651 O667 1.268 . S
C652 Ho641 2.811 . S
C652 C653 1.488 . S
C652 O668 1.215 . S
C652 O669 1.289 . S
C653 C652 1.488 . S
C653 C654 1.348 . S
C653 C658 1.413 . S
C654 C653 1.348 . S
C654 C655 1.442 . S
C654 H676 0.930 . S
C655 C654 1.442 . S
C655 C656 1.381 . S
C655 H677 0.931 . S
C656 C655 1.381 . S
C656 C657 1.321 . S
C657 C656 1.321 . S
C657 C658 1.403 . S
C657 H678 0.934 . S
C658 C653 1.413 . S
C658 C657 1.403 . S
C658 H679 0.930 . S
C659 O670 1.275 . S
C659 O671 1.256 . S
O660 Ho640 2.322 . S
O660 C642 1.259 1_565 S
O661 Ho641 2.346 1_545 S
O661 C642 1.268 . S
O662 Ho640 2.378 . S
O662 C643 1.215 1_554 S
O663 Ho640 2.524 1_556 S
O663 C643 1.289 . S
O664 Ho640 2.381 . S
O664 C650 1.275 . S
O665 Ho640 2.669 . S
O665 Ho641 2.305 . S
O665 C650 1.256 . S
O666 Ho641 2.322 . S
O666 C651 1.259 . S
O667 Ho640 2.346 . S
O667 C651 1.268 . S
O668 Ho641 2.378 . S
O668 C652 1.215 . S
O669 Ho641 2.524 . S
O669 C652 1.289 . S
O670 Ho641 2.381 . S
O670 C659 1.275 . S
O671 Ho640 2.305 . S
O671 Ho641 2.669 . S
O671 C659 1.256 . S
H672 C645 0.930 . S
H673 C646 0.931 . S
H674 C648 0.934 . S
H675 C649 0.930 . S
H676 C654 0.930 . S
H677 C655 0.931 . S
H678 C657 0.934 . S
H679 C658 0.930 . S
Ho680 C683 2.811 . S
Ho680 O700 2.322 . S
Ho680 O702 2.378 . S
Ho680 O703 2.524 . S
Ho680 O704 2.381 . S
Ho680 O705 2.669 . S
Ho680 O707 2.346 . S
Ho680 O711 2.305 . S
Ho681 C692 2.811 1_554 S
Ho681 O701 2.346 . S
Ho681 O705 2.305 . S
Ho681 O706 2.322 . S
Ho681 O708 2.378 1_554 S
Ho681 O709 2.524 1_554 S
Ho681 O710 2.381 . S
Ho681 O711 2.669 . S
C682 O700 1.259 . S
C682 O701 1.268 . S
C683 Ho680 2.811 . S
C683 C684 1.488 . S
C683 O702 1.215 . S
C683 O703 1.289 . S
C684 C683 1.488 . S
C684 C685 1.348 . S
C684 C689 1.413 . S
C685 C684 1.348 . S
C685 C686 1.442 . S
C685 H712 0.930 . S
C686 C685 1.442 . S
C686 C687 1.381 . S
C686 H713 0.931 . S
C687 C686 1.381 . S
C687 C688 1.321 . S
C688 C687 1.321 . S
C688 C689 1.403 . S
C688 H714 0.934 . S
C689 C684 1.413 . S
C689 C688 1.403 . S
C689 H715 0.930 . S
C690 O704 1.275 . S
C690 O705 1.256 . S
C691 O706 1.259 . S
C691 O707 1.268 . S
C692 Ho681 2.811 1_556 S
C692 C693 1.488 . S
C692 O708 1.215 . S
C692 O709 1.289 . S
C693 C692 1.488 . S
C693 C694 1.348 . S
C693 C698 1.413 . S
C694 C693 1.348 . S
C694 C695 1.442 . S
C694 H716 0.930 . S
C695 C694 1.442 . S
C695 C696 1.381 . S
C695 H717 0.931 . S
C696 C695 1.381 . S
C696 C697 1.321 . S
C697 C696 1.321 . S
C697 C698 1.403 . S
C697 H718 0.934 . S
C698 C693 1.413 . S
C698 C697 1.403 . S
C698 H719 0.930 . S
C699 O710 1.275 . S
C699 O711 1.256 . S
O700 Ho680 2.322 . S
O700 C682 1.259 . S
O701 Ho681 2.346 . S
O701 C682 1.268 . S
O702 Ho680 2.378 . S
O702 C683 1.215 . S
O703 Ho680 2.524 . S
O703 C683 1.289 . S
O704 Ho680 2.381 . S
O704 C690 1.275 . S
O705 Ho680 2.669 . S
O705 Ho681 2.305 . S
O705 C690 1.256 . S
O706 Ho681 2.322 . S
O706 C691 1.259 . S
O707 Ho680 2.346 . S
O707 C691 1.268 . S
O708 Ho681 2.378 1_556 S
O708 C692 1.215 . S
O709 Ho681 2.524 1_556 S
O709 C692 1.289 . S
O710 Ho681 2.381 . S
O710 C699 1.275 . S
O711 Ho680 2.305 . S
O711 Ho681 2.669 . S
O711 C699 1.256 . S
H712 C685 0.930 . S
H713 C686 0.931 . S
H714 C688 0.934 . S
H715 C689 0.930 . S
H716 C694 0.930 . S
H717 C695 0.931 . S
H718 C697 0.934 . S
H719 C698 0.930 . S
C531 C11 4.317 . S
C59 C579 4.274 . S
C91 C499 4.272 . S
C99 C299 4.056 . S
C339 C19 4.466 . S
C51 C259 4.422 . S
C122 C410 4.236 . S
C170 C450 3.818 . S
C370 C202 3.778 . S
C650 C210 4.295 . S
C130 C682 4.290 . S
C602 C162 4.333 . S
C331 C539 4.124 1_556 S
C251 C571 4.124 1_556 S
C291 C491 4.556 1_556 S
C362 C642 4.773 1_556 S
C690 C402 4.385 1_554 S
C610 C442 4.773 1_554 S
C10 C179 1.369 . S
C211 C42 2.401 . S
C131 C90 1.785 . S
C171 C82 2.472 . S
C219 C2 2.036 . S
C139 C50 1.571 . S
C411 C242 2.503 . S
C451 C282 2.629 . S
C371 C322 2.616 . S
C419 C330 1.494 . S
C459 C250 1.570 . S
C379 C290 1.401 . S
C659 C490 1.548 . S
C691 C522 2.456 . S
C570 C611 2.022 . S
C562 C651 2.673 . S
C482 C699 2.020 . S
C619 C530 1.542 . S
C16 C7 2.465 1_654 S
C47 C56 2.757 1_554 S
C96 C87 1.967 1_554 S
C127 C136 2.807 1_455 S
C167 C176 2.163 . S
C216 C207 2.703 1_554 S
C256 C247 3.589 . S
C287 C296 2.164 . S
C336 C327 3.250 . S
C367 C376 2.367 . S
C407 C416 3.251 . S
C447 C456 1.906 . S
C487 C496 2.470 . S
C527 C536 2.633 . S
C576 C567 2.179 . S
C616 C607 2.963 . S
C647 C656 2.312 . S
C687 C696 2.407 . S
