# Generated by pormake.
# Topology xfh, (7)-cn, num edge types: 1
# Building blocks:
#     Node 0, Type 0, BuildingBlock: HICVOG_clean_sbu_0, # of connection points: 7
#     Node 1, Type 0, BuildingBlock: HICVOG_clean_sbu_0, # of connection points: 7
#     Node 2, Type 0, BuildingBlock: HICVOG_clean_sbu_0, # of connection points: 7
#     Node 3, Type 0, BuildingBlock: HICVOG_clean_sbu_0, # of connection points: 7
#     Node 4, Type 0, BuildingBlock: HICVOG_clean_sbu_0, # of connection points: 7
#     Node 5, Type 0, BuildingBlock: HICVOG_clean_sbu_0, # of connection points: 7
#     Node 6, Type 0, BuildingBlock: HICVOG_clean_sbu_0, # of connection points: 7
#     Node 7, Type 0, BuildingBlock: HICVOG_clean_sbu_0, # of connection points: 7
#     Node 8, Type 0, BuildingBlock: HICVOG_clean_sbu_0, # of connection points: 7
#     Node 9, Type 0, BuildingBlock: HICVOG_clean_sbu_0, # of connection points: 7
#     Node 10, Type 0, BuildingBlock: HICVOG_clean_sbu_0, # of connection points: 7
#     Node 11, Type 0, BuildingBlock: HICVOG_clean_sbu_0, # of connection points: 7
#     Node 12, Type 0, BuildingBlock: HICVOG_clean_sbu_0, # of connection points: 7
#     Node 13, Type 0, BuildingBlock: HICVOG_clean_sbu_0, # of connection points: 7
#     Node 14, Type 0, BuildingBlock: HICVOG_clean_sbu_0, # of connection points: 7
#     Node 15, Type 0, BuildingBlock: HICVOG_clean_sbu_0, # of connection points: 7
#     Edge 16, Type (0, 0), BuildingBlock: CIFDUS_clean_linker_0, # of connection points: 2
#     Edge 17, Type (0, 0), BuildingBlock: CIFDUS_clean_linker_0, # of connection points: 2
#     Edge 18, Type (0, 0), BuildingBlock: CIFDUS_clean_linker_0, # of connection points: 2
#     Edge 19, Type (0, 0), BuildingBlock: CIFDUS_clean_linker_0, # of connection points: 2
#     Edge 20, Type (0, 0), BuildingBlock: CIFDUS_clean_linker_0, # of connection points: 2
#     Edge 21, Type (0, 0), BuildingBlock: CIFDUS_clean_linker_0, # of connection points: 2
#     Edge 22, Type (0, 0), BuildingBlock: CIFDUS_clean_linker_0, # of connection points: 2
#     Edge 23, Type (0, 0), BuildingBlock: CIFDUS_clean_linker_0, # of connection points: 2
#     Edge 24, Type (0, 0), BuildingBlock: CIFDUS_clean_linker_0, # of connection points: 2
#     Edge 25, Type (0, 0), BuildingBlock: CIFDUS_clean_linker_0, # of connection points: 2
#     Edge 26, Type (0, 0), BuildingBlock: CIFDUS_clean_linker_0, # of connection points: 2
#     Edge 27, Type (0, 0), BuildingBlock: CIFDUS_clean_linker_0, # of connection points: 2
#     Edge 28, Type (0, 0), BuildingBlock: CIFDUS_clean_linker_0, # of connection points: 2
#     Edge 29, Type (0, 0), BuildingBlock: CIFDUS_clean_linker_0, # of connection points: 2
#     Edge 30, Type (0, 0), BuildingBlock: CIFDUS_clean_linker_0, # of connection points: 2
#     Edge 31, Type (0, 0), BuildingBlock: CIFDUS_clean_linker_0, # of connection points: 2
#     Edge 32, Type (0, 0), BuildingBlock: CIFDUS_clean_linker_0, # of connection points: 2
#     Edge 33, Type (0, 0), BuildingBlock: CIFDUS_clean_linker_0, # of connection points: 2
#     Edge 34, Type (0, 0), BuildingBlock: CIFDUS_clean_linker_0, # of connection points: 2
#     Edge 35, Type (0, 0), BuildingBlock: CIFDUS_clean_linker_0, # of connection points: 2
#     Edge 36, Type (0, 0), BuildingBlock: CIFDUS_clean_linker_0, # of connection points: 2
#     Edge 37, Type (0, 0), BuildingBlock: CIFDUS_clean_linker_0, # of connection points: 2
#     Edge 38, Type (0, 0), BuildingBlock: CIFDUS_clean_linker_0, # of connection points: 2
#     Edge 39, Type (0, 0), BuildingBlock: CIFDUS_clean_linker_0, # of connection points: 2
#     Edge 40, Type (0, 0), BuildingBlock: CIFDUS_clean_linker_0, # of connection points: 2
#     Edge 41, Type (0, 0), BuildingBlock: CIFDUS_clean_linker_0, # of connection points: 2
#     Edge 42, Type (0, 0), BuildingBlock: CIFDUS_clean_linker_0, # of connection points: 2
#     Edge 43, Type (0, 0), BuildingBlock: CIFDUS_clean_linker_0, # of connection points: 2
#     Edge 44, Type (0, 0), BuildingBlock: CIFDUS_clean_linker_0, # of connection points: 2
#     Edge 45, Type (0, 0), BuildingBlock: CIFDUS_clean_linker_0, # of connection points: 2
#     Edge 46, Type (0, 0), BuildingBlock: CIFDUS_clean_linker_0, # of connection points: 2
#     Edge 47, Type (0, 0), BuildingBlock: CIFDUS_clean_linker_0, # of connection points: 2
#     Edge 48, Type (0, 0), BuildingBlock: CIFDUS_clean_linker_0, # of connection points: 2
#     Edge 49, Type (0, 0), BuildingBlock: CIFDUS_clean_linker_0, # of connection points: 2
#     Edge 50, Type (0, 0), BuildingBlock: CIFDUS_clean_linker_0, # of connection points: 2
#     Edge 51, Type (0, 0), BuildingBlock: CIFDUS_clean_linker_0, # of connection points: 2
#     Edge 52, Type (0, 0), BuildingBlock: CIFDUS_clean_linker_0, # of connection points: 2
#     Edge 53, Type (0, 0), BuildingBlock: CIFDUS_clean_linker_0, # of connection points: 2
#     Edge 54, Type (0, 0), BuildingBlock: CIFDUS_clean_linker_0, # of connection points: 2
#     Edge 55, Type (0, 0), BuildingBlock: CIFDUS_clean_linker_0, # of connection points: 2
#     Edge 56, Type (0, 0), BuildingBlock: CIFDUS_clean_linker_0, # of connection points: 2
#     Edge 57, Type (0, 0), BuildingBlock: CIFDUS_clean_linker_0, # of connection points: 2
#     Edge 58, Type (0, 0), BuildingBlock: CIFDUS_clean_linker_0, # of connection points: 2
#     Edge 59, Type (0, 0), BuildingBlock: CIFDUS_clean_linker_0, # of connection points: 2
#     Edge 60, Type (0, 0), BuildingBlock: CIFDUS_clean_linker_0, # of connection points: 2
#     Edge 61, Type (0, 0), BuildingBlock: CIFDUS_clean_linker_0, # of connection points: 2
#     Edge 62, Type (0, 0), BuildingBlock: CIFDUS_clean_linker_0, # of connection points: 2
#     Edge 63, Type (0, 0), BuildingBlock: CIFDUS_clean_linker_0, # of connection points: 2
#     Edge 64, Type (0, 0), BuildingBlock: CIFDUS_clean_linker_0, # of connection points: 2
#     Edge 65, Type (0, 0), BuildingBlock: CIFDUS_clean_linker_0, # of connection points: 2
#     Edge 66, Type (0, 0), BuildingBlock: CIFDUS_clean_linker_0, # of connection points: 2
#     Edge 67, Type (0, 0), BuildingBlock: CIFDUS_clean_linker_0, # of connection points: 2
#     Edge 68, Type (0, 0), BuildingBlock: CIFDUS_clean_linker_0, # of connection points: 2
#     Edge 69, Type (0, 0), BuildingBlock: CIFDUS_clean_linker_0, # of connection points: 2
#     Edge 70, Type (0, 0), BuildingBlock: CIFDUS_clean_linker_0, # of connection points: 2
#     Edge 71, Type (0, 0), BuildingBlock: CIFDUS_clean_linker_0, # of connection points: 2
# Relax obj value: 0.247
# Max RMSD: 0.229
# Mean RMSD: 0.229
data_MOF--net-xfh--node1-HICVOG_clean_sbu_0--edge1-CIFDUS_clean_linker_0
_symmetry_space_group_name_H-M    P1
_symmetry_Int_Tables_number       1
_symmetry_cell_setting            triclinic
loop_
_symmetry_equiv_pos_as_xyz
'x, y, z'
_cell_length_a     26.493843
_cell_length_b     26.527436
_cell_length_c     59.21104
_cell_angle_alpha  90.166676
_cell_angle_beta   89.932775
_cell_angle_gamma 90.112382
loop_
_atom_site_label
_atom_site_type_symbol
_atom_site_fract_x
_atom_site_fract_y
_atom_site_fract_z
_atom_type_partial_charge
Zn0 Zn 0.40957 1.0606 0.08124 0.0
C1 C 0.48713 0.13176 0.03619 0.0
N2 N 0.52295 0.13157 0.05245 0.0
C3 C 0.4977 0.11887 0.07115 0.0
N4 N 0.44882 0.11148 0.06686 0.0
N5 N 0.44017 0.12452 0.04579 0.0
C6 C 0.31823 0.21441 0.01467 0.0
O7 O 0.2853 0.21726 0.03122 0.0
O8 O 0.43411 1.04651 0.11235 0.0
Zn9 Zn 0.38074 0.17298 0.04933 0.0
N10 N 0.41373 0.99928 0.06383 0.0
C11 C 0.45001 0.94454 0.0363 0.0
C12 C 0.44757 0.99167 0.04688 0.0
C13 C 0.38177 0.96221 0.07032 0.0
N14 N 0.41908 0.90676 0.04338 0.0
C15 C 0.38453 0.91479 0.06 0.0
O16 O 0.31482 0.14114 0.06343 0.0
C17 C 0.3035 0.1068 0.07777 0.0
O18 O 0.33679 0.07708 0.08533 0.0
H19 H 0.47326 1.02128 0.04202 0.0
H20 H 0.35609 0.96904 0.08424 0.0
C21 C 0.35963 0.26593 0.07682 0.0
C22 C 0.37296 0.30617 0.09167 0.0
C23 C 0.45844 0.27956 0.08953 0.0
C24 C 0.44524 0.24079 0.07473 0.0
N25 N 0.39617 0.23345 0.0689 0.0
N26 N 0.42232 0.31097 0.09762 0.0
H27 H 0.3207 0.26018 0.07195 0.0
C28 C 0.42235 0.07858 0.12736 0.0
O29 O 0.39843 0.11975 0.12133 0.0
O30 O 0.36216 0.19747 0.01861 0.0
H31 H 0.47421 0.21675 0.06795 0.0
H32 H 0.47715 0.93772 0.02298 0.0
H33 H 0.49741 0.28494 0.09443 0.0
Zn34 Zn 0.69578 0.63117 0.30286 0.0
C35 C 0.75273 0.74847 0.32706 0.0
N36 N 0.73743 0.774 0.30893 0.0
C37 C 0.73453 0.73878 0.29248 0.0
N38 N 0.74248 0.69171 0.30159 0.0
N39 N 0.75794 0.69941 0.32246 0.0
C40 C 0.79479 0.6884 0.38215 0.0
O41 O 0.74726 0.67752 0.37801 0.0
O42 O 0.68391 0.60912 0.27113 0.0
Zn43 Zn 0.80524 0.65561 0.33684 0.0
N44 N 0.63144 0.64755 0.31883 0.0
C45 C 0.58374 0.70977 0.33869 0.0
C46 C 0.62445 0.69645 0.32502 0.0
C47 C 0.59743 0.61129 0.32542 0.0
N48 N 0.55075 0.6738 0.34556 0.0
C49 C 0.5559 0.62473 0.33931 0.0
O50 O 0.78205 0.58632 0.34395 0.0
C51 C 0.75274 0.55395 0.33528 0.0
O52 O 0.72275 0.56571 0.31921 0.0
H53 H 0.65068 0.72507 0.31974 0.0
H54 H 0.60326 0.57245 0.32045 0.0
C55 C 0.90776 0.64105 0.3282 0.0
C56 C 0.95074 0.62907 0.31561 0.0
C57 C 0.90336 0.63533 0.28196 0.0
C58 C 0.86019 0.64614 0.29466 0.0
N59 N 0.86333 0.64857 0.31755 0.0
N60 N 0.94762 0.62596 0.29273 0.0
H61 H 0.90884 0.64138 0.34648 0.0
C62 C 0.72089 0.58345 0.26374 0.0
O63 O 0.75984 0.57589 0.27699 0.0
O64 O 0.82726 0.68276 0.36661 0.0
H65 H 0.82444 0.65084 0.28641 0.0
H66 H 0.57845 0.74854 0.34387 0.0
H67 H 0.90127 0.63277 0.26374 0.0
Zn68 Zn 0.2156 0.06688 0.58353 0.0
C69 C 0.13344 0.99259 0.5401 0.0
N70 N 0.09757 0.99635 0.55627 0.0
C71 C 0.12267 1.01393 0.57419 0.0
N72 N 0.17191 1.01913 0.56977 0.0
N73 N 0.18037 1.00127 0.54935 0.0
C74 C 0.29387 0.91309 0.51339 0.0
O75 O 0.33317 0.91574 0.52686 0.0
O76 O 0.19432 0.08062 0.61498 0.0
Zn77 Zn 0.23954 0.95277 0.55198 0.0
N78 N 0.2122 0.12824 0.5665 0.0
C79 C 0.1797 0.18199 0.53787 0.0
C80 C 0.18233 0.13464 0.54806 0.0
C81 C 0.24004 0.16667 0.57487 0.0
N82 N 0.2064 0.22109 0.54677 0.0
C83 C 0.23703 0.2143 0.56494 0.0
O84 O 0.30826 0.98398 0.56387 0.0
C85 C 0.32074 1.01818 0.5782 0.0
O86 O 0.288 1.04795 0.58628 0.0
H87 H 0.1596 0.10391 0.5418 0.0
H88 H 0.2623 0.16051 0.58994 0.0
C89 C 0.26083 0.85941 0.57861 0.0
C90 C 0.24996 0.82301 0.59553 0.0
C91 C 0.16873 0.85918 0.60005 0.0
C92 C 0.17932 0.89432 0.58326 0.0
N93 N 0.22537 0.89516 0.57311 0.0
N94 N 0.20409 0.82469 0.6058 0.0
H95 H 0.29723 0.85978 0.5703 0.0
C96 C 0.20014 1.04574 0.62929 0.0
O97 O 0.21892 1.00231 0.62269 0.0
O98 O 0.2507 0.92547 0.52087 0.0
H99 H 0.15077 0.92084 0.57853 0.0
H100 H 0.1556 0.18792 0.52338 0.0
H101 H 0.13236 0.8591 0.60838 0.0
Zn102 Zn 0.86327 0.4633 0.84511 0.0
C103 C 0.90474 0.37537 0.79391 0.0
N104 N 0.90563 0.33885 0.80972 0.0
C105 C 0.89864 0.36335 0.82926 0.0
N106 N 0.89504 0.41324 0.82604 0.0
N107 N 0.90134 0.42185 0.80427 0.0
C108 C 0.9748 0.53756 0.76223 0.0
O109 O 0.98083 0.57473 0.7767 0.0
O110 O 0.85652 0.4398 0.87715 0.0
Zn111 Zn 0.94107 0.48603 0.80186 0.0
N112 N 0.79702 0.47345 0.83182 0.0
C113 C 0.7342 0.44952 0.80502 0.0
C114 C 0.7815 0.4427 0.8147 0.0
C115 C 0.76668 0.51076 0.8397 0.0
N116 N 0.70343 0.48588 0.81328 0.0
C117 C 0.71835 0.51681 0.83039 0.0
O118 O 0.90034 0.5503 0.81205 0.0
C119 C 0.89264 0.56398 0.8325 0.0
O120 O 0.89685 0.53171 0.84813 0.0
H121 H 0.80486 0.41224 0.80879 0.0
H122 H 0.77934 0.53387 0.8537 0.0
C123 C 1.03336 0.51923 0.8291 0.0
C124 C 0.07527 0.50852 0.84341 0.0
C125 C 1.0572 0.42117 0.8397 0.0
C126 C 1.01691 0.43175 0.82544 0.0
N127 N 1.00431 0.48028 0.82073 0.0
N128 N 0.0851 0.45947 0.84831 0.0
H129 H 1.02378 0.55776 0.825 0.0
C130 C 0.89489 0.4292 0.88906 0.0
O131 O 0.94019 0.43387 0.88024 0.0
O132 O 0.95955 0.49508 0.76936 0.0
H133 H 0.9957 0.40102 0.81821 0.0
H134 H 0.7215 0.42525 0.79144 0.0
H135 H 0.0666 0.38256 0.84373 0.0
Zn136 Zn 0.7189 1.02871 0.88613 0.0
C137 C 0.62621 0.98223 0.93415 0.0
N138 N 0.5908 0.9889 0.91807 0.0
C139 C 0.61713 0.99706 0.89916 0.0
N140 N 0.66685 0.9949 0.903 0.0
N141 N 0.67365 0.98313 0.92443 0.0
C142 C 0.77537 0.97262 0.96796 0.0
O143 O 0.78197 1.01249 0.95517 0.0
O144 O 0.69335 1.05292 0.85636 0.0
Zn145 Zn 0.73824 0.94308 0.92683 0.0
N146 N 0.73918 0.08599 0.90444 0.0
C147 C 0.72741 0.13995 0.93628 0.0
C148 C 0.71275 0.09849 0.92338 0.0
C149 C 0.77925 0.11409 0.89769 0.0
N150 N 0.76631 0.16902 0.92909 0.0
C151 C 0.79271 0.15714 0.9101 0.0
O152 O 0.80358 0.9782 0.91347 0.0
C153 C 0.81552 0.98757 0.89298 0.0
O154 O 0.78102 0.98871 0.87822 0.0
H155 H 0.67969 0.0776 0.92824 0.0
H156 H 0.79828 0.10471 0.88204 0.0
C157 C 0.76762 0.84569 0.90299 0.0
C158 C 0.75569 0.80267 0.88949 0.0
C159 C 0.66885 0.82397 0.89233 0.0
C160 C 0.68065 0.8658 0.90557 0.0
N161 N 0.72957 0.87689 0.9105 0.0
N162 N 0.70632 0.7938 0.88459 0.0
H163 H 0.80648 0.85473 0.90691 0.0
C164 C 0.67855 1.02103 0.84176 0.0
O165 O 0.68026 0.97275 0.84662 0.0
O166 O 0.75403 0.93388 0.95958 0.0
H167 H 0.65066 0.88976 0.91161 0.0
H168 H 0.70669 0.15018 0.95137 0.0
H169 H 0.62998 0.81552 0.88818 0.0
Zn170 Zn 0.42931 0.49708 0.679 0.0
C171 C 0.37994 0.37608 0.65545 0.0
N172 N 0.39262 0.35306 0.67469 0.0
C173 C 0.38988 0.38991 0.69042 0.0
N174 N 0.38236 0.43573 0.67998 0.0
N175 N 0.37139 0.42543 0.65875 0.0
C176 C 0.35589 0.44007 0.59702 0.0
O177 O 0.40135 0.43294 0.60521 0.0
O178 O 0.44654 0.51325 0.71081 0.0
Zn179 Zn 0.32428 0.46738 0.64281 0.0
N180 N 0.49272 0.48415 0.66113 0.0
C181 C 0.54221 0.42239 0.64189 0.0
C182 C 0.5017 0.43513 0.65576 0.0
C183 C 0.52511 0.52125 0.65365 0.0
N184 N 0.5735 0.459 0.63417 0.0
C185 C 0.56698 0.50839 0.63966 0.0
O186 O 0.33815 0.54126 0.6424 0.0
C187 C 0.36503 0.57526 0.65143 0.0
O188 O 0.39843 0.56421 0.66618 0.0
H189 H 0.47744 0.40586 0.66212 0.0
H190 H 0.51797 0.56016 0.65814 0.0
C191 C 0.22037 0.48696 0.64969 0.0
C192 C 0.17193 0.48021 0.65882 0.0
C193 C 0.2038 0.41672 0.68291 0.0
C194 C 0.25176 0.42323 0.67359 0.0
N195 N 0.25904 0.45811 0.65709 0.0
N196 N 0.1648 0.44485 0.67512 0.0
H197 H 0.22715 0.51348 0.63615 0.0
C198 C 0.40752 0.52654 0.72171 0.0
O199 O 0.36401 0.5292 0.71117 0.0
O200 O 0.3197 0.45249 0.60992 0.0
H201 H 0.28246 0.3997 0.67908 0.0
H202 H 0.54892 0.38344 0.63735 0.0
H203 H 0.19744 0.38882 0.6959 0.0
Zn204 Zn 0.88495 0.17321 0.42912 0.0
C205 C 1.00493 0.11829 0.40268 0.0
N206 N 1.03037 0.13159 0.42124 0.0
C207 C 0.99452 0.13621 0.43733 0.0
N208 N 0.94748 0.13004 0.42778 0.0
N209 N 0.95528 0.11578 0.40669 0.0
C210 C 0.94483 0.08085 0.34601 0.0
O211 O 0.93911 0.12887 0.35086 0.0
O212 O 0.86703 0.18323 0.46167 0.0
Zn213 Zn 0.91015 0.07003 0.39172 0.0
N214 N 0.89708 0.23835 0.41317 0.0
C215 C 0.9567 0.28815 0.39276 0.0
C216 C 0.94541 0.24695 0.4064 0.0
C217 C 0.85936 0.27113 0.40712 0.0
N218 N 0.91936 0.32 0.38648 0.0
C219 C 0.87079 0.31318 0.39325 0.0
O220 O 0.84071 0.09487 0.3853 0.0
C221 C 0.80746 0.11842 0.39649 0.0
O222 O 0.81899 0.14358 0.41423 0.0
H223 H 0.97515 0.22154 0.4112 0.0
H224 H 0.82098 0.26405 0.41254 0.0
C225 C 0.87034 0.97559 0.40414 0.0
C226 C 0.86404 0.93203 0.41711 0.0
C227 C 0.92144 0.96383 0.44411 0.0
C228 C 0.92866 1.00669 0.43084 0.0
N229 N 0.90275 1.01185 0.41114 0.0
N230 N 0.88986 0.9269 0.43677 0.0
H231 H 0.85113 0.97986 0.38812 0.0
C232 C 0.84525 0.14447 0.46969 0.0
O233 O 0.8387 0.10506 0.45651 0.0
O234 O 0.93552 1.04822 0.36112 0.0
H235 H 0.95569 1.03467 0.43595 0.0
H236 H 0.99502 0.29474 0.38714 0.0
H237 H 0.94198 0.9593 0.45975 0.0
Zn238 Zn 0.293 0.63294 0.1414 0.0
C239 C 0.25419 0.73669 0.18726 0.0
N240 N 0.26848 0.76927 0.17096 0.0
C241 C 0.2795 0.7395 0.15342 0.0
N242 N 0.27197 0.69086 0.15819 0.0
N243 N 0.25351 0.68812 0.17884 0.0
C244 C 0.15607 0.58559 0.21749 0.0
O245 O 0.15391 0.54653 0.20383 0.0
O246 O 0.31995 0.65401 0.11164 0.0
Zn247 Zn 0.20181 0.63175 0.1789 0.0
N248 N 0.34629 0.6027 0.15878 0.0
C249 C 0.3816 0.57161 0.19303 0.0
C250 C 0.34157 0.59359 0.1813 0.0
C251 C 0.38974 0.5922 0.14774 0.0
N252 N 0.42513 0.56075 0.18188 0.0
C253 C 0.43009 0.57111 0.15952 0.0
O254 O 0.23235 0.56037 0.17013 0.0
C255 C 0.23931 0.54642 0.14965 0.0
O256 O 0.24042 0.58021 0.13464 0.0
H257 H 0.30717 0.60319 0.19011 0.0
H258 H 0.39289 0.60037 0.1299 0.0
C259 C 0.10828 0.61432 0.15059 0.0
C260 C 0.07403 0.62791 0.13312 0.0
C261 C 0.11727 0.70583 0.12919 0.0
C262 C 0.1501 0.69276 0.14653 0.0
N263 N 0.14644 0.64692 0.15666 0.0
N264 N 0.08038 0.67331 0.12291 0.0
H265 H 0.10506 0.57816 0.15889 0.0
C266 C 0.28953 0.67149 0.09713 0.0
O267 O 0.24128 0.67445 0.10213 0.0
O268 O 0.17348 0.62707 0.21015 0.0
H269 H 0.17851 0.71933 0.15171 0.0
H270 H 0.37822 0.56362 0.21087 0.0
H271 H 0.12085 0.74192 0.12087 0.0
Zn272 Zn 0.90444 0.60903 0.59285 0.0
C273 C 0.99472 0.63907 0.54051 0.0
N274 N 1.03142 0.64024 0.55629 0.0
C275 C 1.00658 0.63622 0.5759 0.0
N276 N 0.95664 0.63309 0.57269 0.0
N277 N 0.94817 0.63733 0.55083 0.0
C278 C 0.83375 0.72315 0.51303 0.0
O279 O 0.80193 0.73412 0.52935 0.0
O280 O 0.93067 0.59844 0.62412 0.0
Zn281 Zn 0.88717 0.68143 0.5496 0.0
N282 N 0.88419 0.54516 0.58025 0.0
C283 C 0.86155 0.49256 0.54922 0.0
C284 C 0.87579 0.5395 0.55772 0.0
C285 C 0.87835 0.50606 0.59463 0.0
N286 N 0.85561 0.45335 0.56364 0.0
C287 C 0.86384 0.45872 0.58621 0.0
O288 O 0.82069 0.64696 0.56125 0.0
C289 C 0.80713 0.6433 0.58189 0.0
O290 O 0.84024 0.64941 0.59708 0.0
H291 H 0.87941 0.57109 0.54642 0.0
H292 H 0.88352 0.51266 0.6125 0.0
C293 C 0.87004 0.77222 0.58044 0.0
C294 C 0.88857 0.81615 0.59164 0.0
C295 C 0.9691 0.80161 0.575 0.0
C296 C 0.95066 0.75924 0.56393 0.0
N297 N 0.902 0.74443 0.56696 0.0
N298 N 0.93791 0.82873 0.58844 0.0
H299 H 0.83131 0.76017 0.58253 0.0
C300 C 0.94505 0.63469 0.63661 0.0
O301 O 0.94336 0.68095 0.62877 0.0
O302 O 0.87466 0.70068 0.51775 0.0
H303 H 0.97521 0.73816 0.55285 0.0
H304 H 0.85468 0.48746 0.53135 0.0
H305 H 1.00796 0.81321 0.5728 0.0
Zn306 Zn 0.19437 0.14107 0.80087 0.0
C307 C 0.2441 0.26391 0.82358 0.0
N308 N 0.23056 0.28585 0.80422 0.0
C309 C 0.23139 0.24807 0.78892 0.0
N310 N 0.23927 0.20292 0.79979 0.0
N311 N 0.25113 0.21419 0.82084 0.0
C312 C 0.27998 0.20688 0.88255 0.0
O313 O 0.23236 0.19973 0.87723 0.0
O314 O 0.1814 0.12019 0.76916 0.0
Zn315 Zn 0.29645 0.17145 0.83737 0.0
N316 N 0.12942 0.1538 0.81744 0.0
C317 C 0.07935 0.21342 0.83775 0.0
C318 C 0.12054 0.20216 0.82397 0.0
C319 C 0.09662 0.11606 0.82374 0.0
N320 N 1.04766 0.17603 0.84435 0.0
C321 C 1.05443 0.12738 0.83773 0.0
O322 O 0.27487 0.10053 0.84394 0.0
C323 C 0.25108 0.06627 0.83346 0.0
O324 O 0.22439 0.07655 0.81613 0.0
H325 H 0.14561 0.23196 0.8188 0.0
H326 H 0.10385 0.07766 0.81846 0.0
C327 C 0.38959 0.12892 0.82493 0.0
C328 C 0.43525 0.12441 0.81324 0.0
C329 C 0.4126 0.1934 0.79017 0.0
C330 C 0.36746 0.19839 0.80216 0.0
N331 N 0.35708 0.16622 0.81942 0.0
N332 N 0.44605 0.15717 0.79627 0.0
H333 H 0.38094 0.10455 0.83907 0.0
C334 C 0.21578 0.09234 0.7609 0.0
O335 O 0.25565 0.08169 0.77313 0.0
O336 O 0.31384 0.19829 0.86788 0.0
H337 H 0.34161 0.22836 0.79805 0.0
H338 H 0.07262 0.25179 0.84321 0.0
H339 H 0.42157 0.21901 0.77655 0.0
Zn340 Zn 0.70761 0.55231 0.08461 0.0
C341 C 0.64379 0.48337 0.03378 0.0
N342 N 0.60733 0.46974 0.04858 0.0
C343 C 0.62613 0.48467 0.06848 0.0
N344 N 0.67219 0.50473 0.06611 0.0
N345 N 0.68686 0.49643 0.04529 0.0
C346 C 0.80613 0.40437 0.01583 0.0
O347 O 0.84387 0.41202 0.02981 0.0
O348 O 0.68543 0.55126 0.11707 0.0
Zn349 Zn 0.74795 0.45167 0.05126 0.0
N350 N 0.6913 0.61743 0.07256 0.0
C351 C 0.64395 0.6738 0.04964 0.0
C352 C 0.65538 0.6248 0.05649 0.0
C353 C 0.71668 0.65666 0.08171 0.0
N354 N 0.6686 0.71336 0.05927 0.0
C355 C 0.70517 0.7058 0.075 0.0
O356 O 0.81276 0.49224 0.05936 0.0
C357 C 0.82078 0.52527 0.07472 0.0
O358 O 0.78433 0.54677 0.08486 0.0
H359 H 0.63493 0.59324 0.04947 0.0
H360 H 0.74425 0.64946 0.0948 0.0
C361 C 0.76222 0.3556 0.07893 0.0
C362 C 0.76244 0.3292 0.09993 0.0
C363 C 0.71873 0.39745 0.1168 0.0
C364 C 0.72045 0.42382 0.09662 0.0
N365 N 0.74105 0.403 0.07769 0.0
N366 N 0.74003 0.35138 0.11803 0.0
H367 H 0.7808 0.33979 0.06425 0.0
C368 C 0.71471 0.53383 0.13207 0.0
O369 O 0.75824 0.51452 0.12598 0.0
O370 O 0.76161 0.41508 0.0222 0.0
H371 H 0.70761 0.46185 0.09674 0.0
H372 H 0.6151 0.68036 0.03707 0.0
H373 H 0.70213 0.41435 0.13171 0.0
Zn374 Zn 0.33446 0.95519 0.34028 0.0
C375 C 0.39364 0.87776 0.29068 0.0
N376 N 0.39785 0.84096 0.30625 0.0
C377 C 0.38769 0.86387 0.32586 0.0
N378 N 0.3789 0.91327 0.32283 0.0
N379 N 0.38592 0.9234 0.30124 0.0
C380 C 0.40356 1.03013 0.25915 0.0
O381 O 0.36418 1.04143 0.27165 0.0
O382 O 0.3278 0.93214 0.37235 0.0
Zn383 Zn 0.42799 0.98662 0.30004 0.0
N384 N 0.27093 0.95373 0.32418 0.0
C385 C 0.21565 0.92088 0.29595 0.0
C386 C 0.26142 0.91938 0.30755 0.0
C387 C 0.23689 0.99002 0.32928 0.0
N388 N 0.18082 0.95615 0.30166 0.0
C389 C 0.19075 0.99119 0.31786 0.0
O390 O 0.39711 1.05223 0.31468 0.0
C391 C 0.37194 1.0628 0.33251 0.0
O392 O 0.35151 1.0283 0.34411 0.0
H393 H 0.28862 0.89057 0.30347 0.0
H394 H 0.24502 1.01652 0.34275 0.0
C395 C 0.52399 1.0135 0.32377 0.0
C396 C 0.56746 1.00163 0.33667 0.0
C397 C 0.54877 0.91468 0.33225 0.0
C398 C 0.5065 0.92643 0.31936 0.0
N399 N 0.49378 0.97537 0.31569 0.0
N400 N 0.57803 0.95231 0.34059 0.0
H401 H 0.51405 1.05236 0.32054 0.0
C402 C 0.36744 0.92736 0.38419 0.0
O403 O 0.41159 0.93674 0.37496 0.0
O404 O 0.43882 1.00384 0.26758 0.0
H405 H 0.48384 0.89641 0.3125 0.0
H406 H 0.20744 0.89351 0.28287 0.0
H407 H 0.55849 0.87577 0.33549 0.0
Zn408 Zn 0.23756 0.44429 0.42826 0.0
C409 C 0.11579 0.48904 0.40414 0.0
N410 N 0.09211 0.47996 0.4237 0.0
C411 C 0.12927 0.48234 0.4393 0.0
N412 N 0.17527 0.48863 0.42872 0.0
N413 N 0.16518 0.49682 0.40727 0.0
C414 C 0.17742 0.51067 0.34591 0.0
O415 O 0.19122 0.46696 0.35425 0.0
O416 O 0.25662 0.43138 0.46016 0.0
Zn417 Zn 0.20458 0.54352 0.39006 0.0
N418 N 0.22514 0.37958 0.41147 0.0
C419 C 0.16402 0.32868 0.39246 0.0
C420 C 0.17617 0.36957 0.40624 0.0
C421 C 0.2627 0.34775 0.40411 0.0
N422 N 0.20114 0.29794 0.38481 0.0
C423 C 0.25039 0.30556 0.39029 0.0
O424 O 0.27807 0.52853 0.38667 0.0
C425 C 0.31259 0.50511 0.39704 0.0
O426 O 0.30244 0.47629 0.41373 0.0
H427 H 0.14647 0.39334 0.41256 0.0
H428 H 0.30156 0.35551 0.40856 0.0
C429 C 0.22974 0.64546 0.39716 0.0
C430 C 0.22714 0.69351 0.40694 0.0
C431 C 0.16654 0.66365 0.43308 0.0
C432 C 0.16888 0.61599 0.42314 0.0
N433 N 0.20009 0.60797 0.40521 0.0
N434 N 0.19515 0.70161 0.42456 0.0
H435 H 0.25365 0.63821 0.38267 0.0
C436 C 0.2723 0.47143 0.46961 0.0
O437 O 0.2747 0.51331 0.45786 0.0
O438 O 0.1792 0.54957 0.35843 0.0
H439 H 0.14496 0.58623 0.42931 0.0
H440 H 0.12513 0.32121 0.38797 0.0
H441 H 0.14142 0.67066 0.44716 0.0
Zn442 Zn 0.92167 0.98894 0.17838 0.0
C443 C 0.86579 0.86946 0.15886 0.0
N444 N 0.88661 0.84688 0.17666 0.0
C445 C 0.88615 0.88315 0.19274 0.0
N446 N 0.87425 0.92886 0.18314 0.0
N447 N 0.85577 0.91793 0.1631 0.0
C448 C 0.83146 0.95758 0.09949 0.0
O449 O 0.86613 0.99026 0.10565 0.0
O450 O 0.95466 1.00238 0.20841 0.0
Zn451 Zn 0.81076 0.96015 0.14666 0.0
N452 N 0.97323 0.97891 0.15347 0.0
C453 C 0.98617 0.94743 0.116 0.0
C454 C 0.95754 0.95044 0.13562 0.0
C455 C 1.01786 1.00544 0.15188 0.0
N456 N 1.02945 0.97421 0.11434 0.0
C457 C 1.04663 1.00355 0.13154 0.0
O458 O 0.82745 1.03342 0.14461 0.0
C459 C 0.85435 0.06753 0.15357 0.0
O460 O 0.88714 1.05664 0.16865 0.0
H461 H 0.92175 0.93194 0.1358 0.0
H462 H 1.02959 1.02956 0.16568 0.0
C463 C 0.70596 0.96482 0.14823 0.0
C464 C 0.65801 0.96699 0.15794 0.0
C465 C 0.69332 0.95009 0.19377 0.0
C466 C 0.7414 0.94855 0.18403 0.0
N467 N 0.74654 0.95639 0.16146 0.0
N468 N 0.65261 0.96016 0.18057 0.0
H469 H 0.71143 0.97201 0.1304 0.0
C470 C 0.97053 1.04606 0.21375 0.0
O471 O 0.97029 0.08179 0.19843 0.0
O472 O 0.80343 0.93782 0.11443 0.0
H473 H 0.77422 0.94218 0.19439 0.0
H474 H 0.97322 0.92504 0.10183 0.0
H475 H 0.68857 0.94445 0.21174 0.0
Zn476 Zn 0.40562 0.60794 0.89277 0.0
C477 C 0.49872 0.65383 0.94163 0.0
N478 N 0.53487 0.64998 0.92568 0.0
C479 C 0.50983 0.63801 0.90683 0.0
N480 N 0.45986 0.63656 0.91042 0.0
N481 N 0.45197 0.64935 0.93169 0.0
C482 C 0.33869 0.7376 0.96963 0.0
O483 O 0.30474 0.747 0.95406 0.0
O484 O 0.42541 0.58977 0.8615 0.0
Zn485 Zn 0.38941 0.6919 0.93254 0.0
N486 N 0.38517 0.54713 0.90838 0.0
C487 C 0.39434 0.48887 0.93868 0.0
C488 C 0.40812 0.53353 0.928 0.0
C489 C 0.3493 0.5173 0.89889 0.0
N490 N 0.35982 0.45825 0.92877 0.0
C491 C 0.33678 0.47148 0.90917 0.0
O492 O 0.32329 0.65259 0.92361 0.0
C493 C 0.30997 0.64663 0.90305 0.0
O494 O 0.34345 0.65065 0.8879 0.0
H495 H 0.4379 0.55606 0.93507 0.0
H496 H 0.33304 0.5278 0.8828 0.0
C497 C 0.35922 0.78314 0.90535 0.0
C498 C 0.36909 0.82188 0.88942 0.0
C499 C 0.45421 0.79478 0.88727 0.0
C500 C 0.44471 0.75769 0.9033 0.0
N501 N 0.39734 0.75108 0.91171 0.0
N502 N 0.41644 0.82581 0.88075 0.0
H503 H 0.32176 0.77844 0.91231 0.0
C504 C 0.44709 0.61904 0.84763 0.0
O505 O 0.46171 0.66418 0.85408 0.0
O506 O 0.37956 0.71605 0.96399 0.0
H507 H 0.47534 0.73442 0.90895 0.0
H508 H 0.41247 0.47762 0.95423 0.0
H509 H 0.49168 0.79941 0.88029 0.0
Zn510 Zn 0.81204 0.17011 0.64954 0.0
C511 C 0.7379 0.23094 0.69883 0.0
N512 N 0.7296 0.26872 0.68403 0.0
C513 C 0.74485 0.24963 0.66425 0.0
N514 N 0.76054 0.20224 0.66663 0.0
N515 N 0.74986 0.18748 0.68722 0.0
C516 C 0.64993 0.06526 0.71146 0.0
O517 O 0.65229 1.03125 0.69531 0.0
O518 O 0.8106 0.18955 0.61664 0.0
Zn519 Zn 0.70589 0.1258 0.67984 0.0
N520 N 0.87596 0.19116 0.66133 0.0
C521 C 0.93221 0.23884 0.68437 0.0
C522 C 0.88304 0.22564 0.67807 0.0
C523 C 0.9155 0.16831 0.65121 0.0
N524 N 0.97207 0.21655 0.67383 0.0
C525 C 0.96463 0.18096 0.65758 0.0
O526 O 0.74803 1.06207 0.67117 0.0
C527 C 0.78796 1.05646 0.65928 0.0
O528 O 0.81179 0.09423 0.6515 0.0
H529 H 0.85111 0.24293 0.6863 0.0
H530 H 0.90844 0.14113 0.63789 0.0
C531 C 0.61064 0.11277 0.65155 0.0
C532 C 0.58573 0.11086 0.63018 0.0
C533 C 0.65705 0.15029 0.61354 0.0
C534 C 0.6817 0.15064 0.63424 0.0
N535 N 0.65866 0.13264 0.65311 0.0
N536 N 0.61025 0.13017 0.61197 0.0
H537 H 0.59314 0.09636 0.66632 0.0
C538 C 0.79789 0.15655 0.60212 0.0
O539 O 0.78327 0.11187 0.60906 0.0
O540 O 0.66767 0.10901 0.70788 0.0
H541 H 0.72011 0.16307 0.63482 0.0
H542 H 0.93859 0.26668 0.69745 0.0
H543 H 0.67571 0.16455 0.59859 0.0
H544 H 0.22882 0.4937 0.11 0.0
H545 H 0.29891 0.48502 0.17553 0.0
H546 H 0.34445 0.40909 0.16376 0.0
H547 H 0.3694 0.34838 0.13385 0.0
H548 H 0.2956 0.3536 0.06906 0.0
H549 H 0.24616 0.42658 0.08157 0.0
C550 C 0.25335 0.47464 0.12186 0.0
C551 C 0.26023 0.49542 0.14372 0.0
C552 C 0.27897 0.43018 0.11504 0.0
C553 C 0.2923 0.46999 0.15877 0.0
C554 C 0.31871 0.42659 0.15195 0.0
C555 C 0.34186 0.36491 0.12255 0.0
C556 C 0.33641 0.34504 0.10045 0.0
C557 C 0.31304 0.40677 0.13 0.0
C558 C 0.30037 0.36725 0.08618 0.0
C559 C 0.27232 0.40945 0.09331 0.0
H560 H 0.35188 0.507 0.35456 0.0
H561 H 0.39173 0.53104 0.42428 0.0
H562 H 0.47313 0.56694 0.41267 0.0
H563 H 0.52878 0.60035 0.38232 0.0
H564 H 0.4914 0.57085 0.31275 0.0
H565 H 0.4138 0.52771 0.32453 0.0
C566 C 0.37897 0.51897 0.36722 0.0
C567 C 0.36569 0.51635 0.3903 0.0
C568 C 0.42607 0.5389 0.36038 0.0
C569 C 0.40114 0.5321 0.40648 0.0
C570 C 0.44756 0.55305 0.3998 0.0
C571 C 0.50429 0.58315 0.3698 0.0
C572 C 0.51604 0.58852 0.34666 0.0
C573 C 0.45991 0.55784 0.37677 0.0
C574 C 0.4837 0.56656 0.33062 0.0
C575 C 0.43904 0.54232 0.33738 0.0
H576 H 0.28257 0.79699 0.63763 0.0
H577 H 0.29203 0.7522 0.56777 0.0
H578 H 0.33126 0.67237 0.57885 0.0
H579 H 0.35444 0.61145 0.60878 0.0
H580 H 0.35085 0.65815 0.6785 0.0
H581 H 0.3185 0.74107 0.66722 0.0
C582 C 0.29455 0.7703 0.62481 0.0
C583 C 0.28459 0.78083 0.60183 0.0
C584 C 0.3177 0.72454 0.63135 0.0
C585 C 0.29994 0.7456 0.58546 0.0
C586 C 0.32192 0.69963 0.59185 0.0
C587 C 0.34759 0.64021 0.62147 0.0
C588 C 0.35495 0.62847 0.64451 0.0
C589 C 0.32979 0.68813 0.61478 0.0
C590 C 0.34596 0.66619 0.66071 0.0
C591 C 0.32707 0.71353 0.65423 0.0
H592 H 0.25903 0.65602 0.8629 0.0
H593 H 0.24761 0.58697 0.92854 0.0
H594 H 0.17172 0.54157 0.91649 0.0
H595 H 0.11312 0.515 0.88611 0.0
H596 H 0.12099 0.58726 0.82112 0.0
H597 H 0.193 0.63797 0.83407 0.0
C598 C 0.23949 0.63161 0.8747 0.0
C599 C 0.25947 0.62498 0.89668 0.0
C600 C 0.19519 0.60589 0.86768 0.0
C601 C 0.23325 0.59332 0.91167 0.0
C602 C 0.18985 0.56703 0.9047 0.0
C603 C 0.12981 0.54274 0.87492 0.0
C604 C 0.11121 0.54732 0.85262 0.0
C605 C 0.17108 0.57212 0.8826 0.0
C606 C 0.13369 0.58333 0.8384 0.0
C607 C 0.17536 0.612 0.84578 0.0
H608 H 0.90231 0.6174 0.8721 0.0
H609 H 0.83292 0.62447 0.80635 0.0
H610 H 0.78724 0.70064 0.81766 0.0
H611 H 0.76109 0.7612 0.84738 0.0
H612 H 0.83399 0.75777 0.91236 0.0
H613 H 0.88439 0.68502 0.90021 0.0
C614 C 0.8778 0.63606 0.8601 0.0
C615 C 0.87113 0.61477 0.83832 0.0
C616 C 0.85202 0.68059 0.86667 0.0
C617 C 0.83931 0.63988 0.82307 0.0
C618 C 0.81286 0.68343 0.82962 0.0
C619 C 0.78881 0.74522 0.85875 0.0
C620 C 0.7937 0.76534 0.88082 0.0
C621 C 0.81809 0.70357 0.85151 0.0
C622 C 0.82978 0.74384 0.89526 0.0
C623 C 0.8583 0.70178 0.88834 0.0
H624 H 0.60953 0.51192 0.59777 0.0
H625 H 0.61329 0.58679 0.66242 0.0
H626 H 0.68658 0.63649 0.65014 0.0
H627 H 0.75434 0.65381 0.62185 0.0
H628 H 0.74675 0.58161 0.55657 0.0
H629 H 0.6707 0.53623 0.56818 0.0
C630 C 0.6258 0.53977 0.60908 0.0
C631 C 0.6055 0.54547 0.63106 0.0
C632 C 0.66782 0.56853 0.60179 0.0
C633 C 0.62733 0.58187 0.64537 0.0
C634 C 0.66971 0.61002 0.63838 0.0
C635 C 0.73561 0.62871 0.61004 0.0
C636 C 0.75672 0.62132 0.58827 0.0
C637 C 0.69098 0.60301 0.61677 0.0
C638 C 0.73155 0.58861 0.57328 0.0
C639 C 0.68803 0.5623 0.57999 0.0
H640 H 0.83618 0.33462 0.35098 0.0
H641 H 0.82488 0.38189 0.42043 0.0
H642 H 0.78229 0.45952 0.40876 0.0
H643 H 0.75877 0.51893 0.37834 0.0
H644 H 0.76546 0.47012 0.30896 0.0
H645 H 0.79833 0.38802 0.32093 0.0
C646 C 0.82279 0.36118 0.36358 0.0
C647 C 0.83324 0.35222 0.38661 0.0
C648 C 0.79794 0.40576 0.35668 0.0
C649 C 0.81649 0.38739 0.4027 0.0
C650 C 0.7926 0.43208 0.39597 0.0
C651 C 0.76598 0.48972 0.36589 0.0
C652 C 0.75953 0.5007 0.34274 0.0
C653 C 0.78453 0.4424 0.37297 0.0
C654 C 0.76938 0.46255 0.32684 0.0
C655 C 0.78873 0.41572 0.3337 0.0
H656 H 0.85784 0.53204 0.11755 0.0
H657 H 0.90203 0.54823 0.0479 0.0
H658 H 0.98573 0.57804 0.05981 0.0
H659 H 1.04418 0.60554 0.09022 0.0
H660 H 1.00218 0.58314 0.15981 0.0
H661 H 0.92036 0.5489 0.14784 0.0
C662 C 0.88595 0.5417 0.10497 0.0
C663 C 0.87335 0.53854 0.0818 0.0
C664 C 0.93453 0.55748 0.11199 0.0
C665 C 0.91057 0.5504 0.06577 0.0
C666 C 0.95843 0.56756 0.07261 0.0
C667 C 1.01755 0.59206 0.10276 0.0
C668 C 1.0296 0.59676 0.12595 0.0
C669 C 0.97061 0.57198 0.09569 0.0
C670 C 0.99446 0.5793 0.14192 0.0
C671 C 0.94734 0.56023 0.13505 0.0
H672 H 0.74137 0.97911 0.63599 0.0
H673 H 0.88166 1.02214 0.66745 0.0
H674 H 0.92316 0.94836 0.65125 0.0
H675 H 0.92241 0.87706 0.62523 0.0
H676 H 0.78486 0.83536 0.59094 0.0
H677 H 0.73952 0.90193 0.61137 0.0
C678 C 0.78057 0.97127 0.63984 0.0
C679 C 0.80816 1.00567 0.65337 0.0
C680 C 0.80493 0.9292 0.62969 0.0
C681 C 0.8594 0.99593 0.65751 0.0
C682 C 0.88326 0.95388 0.64807 0.0
C683 C 0.88232 0.88193 0.62227 0.0
C684 C 0.85751 0.8508 0.60632 0.0
C685 C 0.85683 0.92107 0.63365 0.0
C686 C 0.80531 0.85794 0.60313 0.0
C687 C 0.77933 0.89653 0.61474 0.0
H688 H 1.02106 0.10803 0.88046 0.0
H689 H 0.9987 0.06349 0.81118 0.0
H690 H 0.92402 1.0144 0.82215 0.0
H691 H 0.86051 0.99026 0.85111 0.0
H692 H 0.88652 1.03026 0.92079 0.0
H693 H 0.96458 0.07355 0.91015 0.0
C694 C 1.00053 0.08655 0.86784 0.0
C695 C 1.01579 0.08934 0.84498 0.0
C696 C 0.95796 1.05765 0.87437 0.0
C697 C 0.98843 1.06153 0.82887 0.0
C698 C 0.94535 1.03378 0.83515 0.0
C699 C 0.8836 1.00782 0.86404 0.0
C700 C 0.86703 1.00707 0.8868 0.0
C701 C 0.92904 1.03246 0.85779 0.0
C702 C 0.89801 1.02978 0.90323 0.0
C703 C 0.94272 1.05488 0.89711 0.0
H704 H 0.81683 0.09857 0.11295 0.0
H705 H 0.87456 0.15628 0.17607 0.0
H706 H 0.85522 0.2424 0.16393 0.0
H707 H 0.81636 0.30065 0.13658 0.0
H708 H 0.76059 0.24376 0.07305 0.0
H709 H 0.78565 0.15809 0.08394 0.0
C710 C 0.82543 0.12998 0.12407 0.0
C711 C 0.84653 0.1206 0.14566 0.0
C712 C 0.81475 0.17957 0.11681 0.0
C713 C 0.8582 0.16205 0.15952 0.0
C714 C 0.84704 0.21137 0.15256 0.0
C715 C 0.81037 0.26963 0.12491 0.0
C716 C 0.78645 0.27888 0.10395 0.0
C717 C 0.82461 0.2205 0.1314 0.0
C718 C 0.77934 0.23813 0.08908 0.0
C719 C 0.7932 0.18899 0.09547 0.0
H720 H 0.76659 0.12418 0.35441 0.0
H721 H 0.72904 0.08959 0.42345 0.0
H722 H 0.64776 1.05446 0.41128 0.0
H723 H 0.5927 1.02311 0.38025 0.0
H724 H 0.62806 1.06231 0.3115 0.0
H725 H 0.70421 0.10672 0.32418 0.0
C726 C 0.7399 0.11032 0.36685 0.0
C727 C 0.75389 0.10959 0.38985 0.0
C728 C 0.69294 0.0906 0.35969 0.0
C729 C 0.71903 0.09123 0.40573 0.0
C730 C 0.67272 0.07064 0.39872 0.0
C731 C 0.61623 1.04291 0.36816 0.0
C732 C 0.60446 1.0398 0.34495 0.0
C733 C 0.65991 0.06871 0.37566 0.0
C734 C 0.63571 0.06491 0.32944 0.0
C735 C 0.67961 0.08983 0.3367 0.0
H736 H 0.37415 0.10543 0.37456 0.0
H737 H 0.33992 0.13899 0.30511 0.0
H738 H 0.30264 0.21968 0.31659 0.0
H739 H 0.27097 0.27628 0.34702 0.0
H740 H 0.31064 0.24566 0.41614 0.0
H741 H 0.35512 0.16901 0.40426 0.0
C742 C 0.35969 0.13104 0.36188 0.0
C743 C 0.35992 0.11604 0.33894 0.0
C744 C 0.33897 0.17791 0.36862 0.0
C745 C 0.34084 0.14966 0.32278 0.0
C746 C 0.31907 0.1957 0.3294 0.0
C747 C 0.29069 0.25358 0.35939 0.0
C748 C 0.28775 0.26703 0.38248 0.0
C749 C 0.31675 0.20969 0.35234 0.0
C750 C 0.31299 0.23683 0.39829 0.0
C751 C 0.338 0.19262 0.39149 0.0
H752 H 0.07227 1.05733 0.09432 0.0
H753 H 0.12999 1.01114 0.15903 0.0
H754 H 0.21428 1.04161 0.1484 0.0
H755 H 0.27316 0.07346 0.11914 0.0
H756 H 0.21462 0.12293 0.055 0.0
H757 H 0.12907 0.09946 0.06697 0.0
C758 C 0.1031 1.05492 0.1063 0.0
C759 C 0.09467 1.03191 0.12751 0.0
C760 C 0.15144 0.07256 0.10001 0.0
C761 C 0.13507 1.02915 0.14279 0.0
C762 C 0.18344 1.04611 0.13657 0.0
C763 C 0.24158 0.07968 0.10784 0.0
C764 C 0.25056 0.09943 0.086 0.0
C765 C 0.19235 0.06664 0.115 0.0
C766 C 0.20902 0.10787 0.0718 0.0
C767 C 0.16007 0.0942 0.07865 0.0
H768 H 0.33948 0.8477 0.84701 0.0
H769 H 0.31841 0.88704 0.91699 0.0
H770 H 0.27633 0.9654 0.9059 0.0
H771 H 0.25531 1.02769 0.87613 0.0
H772 H 0.27118 0.98578 0.80612 0.0
H773 H 0.30483 0.90352 0.81725 0.0
C774 C 0.32421 0.87272 0.85981 0.0
C775 C 0.33183 0.86131 0.88284 0.0
C776 C 0.29968 0.91765 0.85324 0.0
C777 C 0.31233 0.89439 0.89922 0.0
C778 C 0.28877 0.93955 0.89284 0.0
C779 C 0.26499 1.00002 0.86333 0.0
C780 C 0.26083 1.01303 0.84028 0.0
C781 C 0.28362 0.95233 0.8699 0.0
C782 C 0.27352 0.97672 0.82392 0.0
C783 C 0.29318 0.92975 0.83031 0.0
H784 H 0.35329 1.05864 0.6181 0.0
H785 H 0.40905 0.99393 0.556 0.0
H786 H 0.4958 1.01396 0.56747 0.0
H787 H 0.55532 1.05526 0.59394 0.0
H788 H 0.49994 0.11721 0.65663 0.0
H789 H 0.41374 0.09226 0.64629 0.0
C790 C 0.38441 1.04853 0.60708 0.0
C791 C 0.37426 1.0252 0.58597 0.0
C792 C 0.43434 1.05969 0.61395 0.0
C793 C 0.41538 1.01182 0.57222 0.0
C794 C 0.46508 1.02349 0.57878 0.0
C795 C 0.52449 1.06273 0.60553 0.0
C796 C 0.53445 0.08829 0.62612 0.0
C797 C 0.47496 1.04815 0.59944 0.0
C798 C 0.49386 0.09724 0.64089 0.0
C799 C 0.44438 0.08334 0.63483 0.0
H800 H 0.21837 0.22205 0.91871 0.0
H801 H 0.37524 0.22047 0.89877 0.0
H802 H 0.40087 0.22803 0.93812 0.0
H803 H 0.37901 0.22508 0.97822 0.0
H804 H 0.22245 0.22592 -0.00154 0.0
H805 H 0.19649 0.22933 0.95892 0.0
C806 C 0.25814 0.22403 0.92295 0.0
C807 C 0.29479 0.21954 0.9059 0.0
C808 C 0.27272 0.22788 0.94566 0.0
C809 C 0.34619 0.22301 0.91162 0.0
C810 C 0.36096 0.22729 0.93412 0.0
C811 C 0.33921 0.22662 0.974 0.0
C812 C 0.30271 0.22435 -0.00881 0.0
C813 C 0.32457 0.22808 0.95129 0.0
C814 C 0.25131 0.22725 0.9855 0.0
C815 C 0.23642 0.22901 0.9629 0.0
H816 H 0.65391 0.6026 0.22999 0.0
H817 H 0.79063 0.52103 0.24526 0.0
H818 H 0.79752 0.49422 0.20608 0.0
H819 H 0.76892 0.4993 0.1672 0.0
H820 H 0.63437 0.58315 0.15101 0.0
H821 H 0.62179 0.60279 0.19096 0.0
C822 C 0.68489 0.57856 0.22476 0.0
C823 C 0.72197 0.56429 0.24042 0.0
C824 C 0.68904 0.56368 0.20209 0.0
C825 C 0.76184 0.53299 0.23347 0.0
C826 C 0.76583 0.51754 0.21108 0.0
C827 C 0.73655 0.52149 0.17239 0.0
C828 C 0.70295 0.54022 0.15619 0.0
C829 C 0.73027 0.53352 0.1952 0.0
C830 C 0.66086 0.56842 0.1632 0.0
C831 C 0.65381 0.57989 0.18602 0.0
H832 H 0.38181 0.90971 0.48975 0.0
H833 H 0.22032 0.89567 0.48215 0.0
H834 H 0.22965 0.8931 0.44118 0.0
H835 H 0.28248 0.90457 0.40768 0.0
H836 H 0.4436 0.92262 0.41516 0.0
H837 H 0.43558 0.91331 0.45601 0.0
C838 C 0.34873 0.90525 0.47916 0.0
C839 C 0.30043 0.90353 0.48898 0.0
C840 C 0.35421 0.90507 0.45558 0.0
C841 C 0.25793 0.89762 0.475 0.0
C842 C 0.26318 0.89625 0.45157 0.0
C843 C 0.31594 0.906 0.41821 0.0
C844 C 0.36344 0.91522 0.40844 0.0
C845 C 0.31097 0.90157 0.44168 0.0
C846 C 0.40649 0.91615 0.42228 0.0
C847 C 0.40194 0.91091 0.44566 0.0
H848 H 0.98753 0.62746 0.74101 0.0
H849 H 0.9702 0.468 0.72824 0.0
H850 H 0.96463 0.48396 0.68776 0.0
H851 H 0.95573 0.54356 0.65662 0.0
H852 H 0.96976 0.70332 0.66935 0.0
H853 H 0.98602 0.68674 0.70924 0.0
C854 C 0.98325 0.59612 0.72936 0.0
C855 C 0.97866 0.5467 0.73767 0.0
C856 C 0.97897 0.60562 0.70614 0.0
C857 C 0.97334 0.50649 0.72232 0.0
C858 C 0.97005 0.51555 0.69917 0.0
C859 C 0.96277 0.5748 0.66806 0.0
C860 C 0.96067 0.62466 0.66011 0.0
C861 C 0.97132 0.56506 0.69098 0.0
C862 C 0.97063 0.66461 0.67509 0.0
C863 C 0.97986 0.65516 0.69791 0.0
H864 H 0.86456 1.0135 0.0645 0.0
H865 H 0.77317 0.88362 0.08047 0.0
H866 H 0.74948 0.87489 0.04078 0.0
H867 H 0.7512 0.90745 0.00181 0.0
H868 H 0.83935 1.04039 0.98688 0.0
H869 H 0.86763 1.04475 0.02592 0.0
C870 C 0.83993 0.9829 0.05928 0.0
C871 C 0.82071 0.9492 0.07537 0.0
C872 C 0.82547 0.979 0.03663 0.0
C873 C 0.78846 0.91004 0.06838 0.0
C874 C 0.77478 0.90514 0.0457 0.0
C875 C 0.77683 0.93712 0.00711 0.0
C876 C 0.79302 0.97359 -0.00848 0.0
C877 C 0.79246 0.93992 0.02973 0.0
C878 C 0.82603 1.01203 -0.0014 0.0
C879 C 0.84238 1.01453 0.02091 0.0
H880 H 0.48289 0.57389 0.74431 0.0
H881 H 0.33711 0.50374 0.75295 0.0
H882 H 0.33867 0.52339 0.79322 0.0
H883 H 0.37948 0.56327 0.82541 0.0
H884 H 0.52116 0.6412 0.81696 0.0
H885 H 0.52351 0.61594 0.77699 0.0
C886 C 0.4518 0.56273 0.75515 0.0
C887 C 0.41005 0.53734 0.74593 0.0
C888 C 0.45216 0.57578 0.77812 0.0
C889 C 0.36949 0.52349 0.75983 0.0
C890 C 0.37038 0.53464 0.78279 0.0
C891 C 0.41109 0.57437 0.81483 0.0
C892 C 0.45021 0.60371 0.82389 0.0
C893 C 0.41123 0.56116 0.79202 0.0
C894 C 0.49058 0.61872 0.81011 0.0
C895 C 0.49192 0.60421 0.78738 0.0
H896 H 0.77423 0.09312 0.56812 0.0
H897 H 0.83571 0.24107 0.5814 0.0
H898 H 0.85401 0.25165 0.54115 0.0
H899 H 0.8574 0.21609 0.50254 0.0
H900 H 0.79705 0.06703 0.49038 0.0
H901 H 0.77371 1.05973 0.52992 0.0
C902 C 0.79132 0.1279 0.56225 0.0
C903 C 0.80405 0.166 0.57774 0.0
C904 C 0.80236 0.13336 0.5393 0.0
C905 C 0.82575 0.21101 0.5698 0.0
C906 C 0.83638 0.21701 0.54681 0.0
C907 C 0.83889 0.18218 0.50855 0.0
C908 C 0.82933 0.14207 0.49355 0.0
C909 C 0.8257 0.17799 0.53146 0.0
C910 C 0.80516 0.0984 0.50155 0.0
C911 C 0.7917 0.09413 0.52418 0.0
H912 H 0.14979 0.49796 0.24081 0.0
H913 H 0.143 0.65954 0.24906 0.0
H914 H 0.14241 0.64989 0.29006 0.0
H915 H 0.1546 0.59635 0.32321 0.0
H916 H 0.16724 0.43513 0.31483 0.0
H917 H 0.15417 0.44384 0.27423 0.0
C918 C 0.14724 0.53103 0.25156 0.0
C919 C 0.14701 0.57939 0.24193 0.0
C920 C 0.14862 0.5253 0.27509 0.0
C921 C 0.14372 0.62189 0.25609 0.0
C922 C 0.14352 0.61642 0.27953 0.0
C923 C 0.15403 0.56304 0.31254 0.0
C924 C 0.16298 0.51527 0.32194 0.0
C925 C 0.14775 0.56842 0.28918 0.0
C926 C 0.16127 0.47243 0.30796 0.0
C927 C 0.1538 0.47737 0.28474 0.0
H928 H 0.735 0.71729 0.41706 0.0
H929 H 0.89095 0.69722 0.39785 0.0
H930 H 0.9174 0.7126 0.43667 0.0
H931 H 0.89538 0.72092 0.47664 0.0
H932 H 0.73961 0.74063 0.49612 0.0
H933 H 0.71399 0.73696 0.45652 0.0
C934 C 0.77478 0.71669 0.42136 0.0
C935 C 0.81083 0.70473 0.40481 0.0
C936 C 0.78973 0.72527 0.44373 0.0
C937 C 0.86236 0.70548 0.41041 0.0
C938 C 0.87755 0.71422 0.4326 0.0
C939 C 0.8559 0.72508 0.47219 0.0
C940 C 0.81933 0.72998 0.48923 0.0
C941 C 0.84143 0.72241 0.4495 0.0
C942 C 0.76844 0.73638 0.48327 0.0
C943 C 0.75372 0.73405 0.46066 0.0
H944 H 0.2377 0.99461 0.66484 0.0
H945 H 0.14388 0.12143 0.64748 0.0
H946 H 0.13569 0.14389 0.68724 0.0
H947 H 0.16176 0.13199 0.72658 0.0
H948 H 0.2625 1.01015 0.7434 0.0
H949 H 0.26174 0.98129 0.70421 0.0
C950 C 0.21486 1.0267 0.66981 0.0
C951 C 0.19112 1.05612 0.65333 0.0
C952 C 0.2122 1.04066 0.69258 0.0
C953 C 0.16217 0.09798 0.65992 0.0
C954 C 0.15774 0.11104 0.68263 0.0
C955 C 0.183 0.09878 0.72167 0.0
C956 C 0.21224 0.07327 0.73768 0.0
C957 C 0.18355 0.08331 0.69905 0.0
C958 C 0.24004 1.03058 0.7312 0.0
C959 C 0.23956 1.01402 0.70886 0.0
H960 H 0.80763 0.40368 0.91012 0.0
H961 H 0.96747 0.4219 0.92165 0.0
H962 H 0.95478 0.40841 0.96207 0.0
H963 H 0.89704 0.4017 -0.00559 0.0
H964 H 0.73692 0.38593 0.98269 0.0
H965 H 0.75122 0.38713 0.94201 0.0
C966 C 0.8398 0.4042 0.92143 0.0
C967 C 0.88828 0.41474 0.91296 0.0
C968 C 0.83218 0.39692 0.94462 0.0
C969 C 0.92967 0.41438 0.92778 0.0
C970 C 0.92244 0.40675 0.9509 0.0
C971 C 0.86534 0.39753 0.98298 0.0
C972 C 0.81592 0.39455 -0.00839 0.0
C973 C 0.87367 0.39946 0.95958 0.0
C974 C 0.77532 0.38883 0.97652 0.0
C975 C 0.78341 0.38974 0.95324 0.0
H976 H 0.38068 0.12636 0.16304 0.0
H977 H 0.48023 1.00373 0.14549 0.0
H978 H 0.48686 0.98036 0.18525 0.0
H979 H 0.45899 0.99105 0.22469 0.0
H980 H 0.35369 0.10953 0.24124 0.0
H981 H 0.35433 0.13802 0.20214 0.0
C982 C 0.40432 0.09489 0.16792 0.0
C983 C 0.43018 0.06706 0.15141 0.0
C984 C 0.40634 0.08051 0.19061 0.0
C985 C 0.46022 1.026 0.15795 0.0
C986 C 0.46379 1.01243 0.18066 0.0
C987 C 0.4366 1.02336 0.21971 0.0
C988 C 0.40624 1.04809 0.23571 0.0
C989 C 0.43622 1.03884 0.19708 0.0
C990 C 0.37703 0.08964 0.22912 0.0
C991 C 0.37747 0.10605 0.20681 0.0
H992 H 0.31909 0.39843 0.49367 0.0
H993 H 0.25391 0.54691 0.49905 0.0
H994 H 0.27356 0.54954 0.53927 0.0
H995 H 0.30903 0.50982 0.57277 0.0
H996 H 0.38168 0.36515 0.56754 0.0
H997 H 0.35978 0.36051 0.52723 0.0
C998 C 0.30921 0.43115 0.50377 0.0
C999 C 0.28478 0.47223 0.49368 0.0
C1000 C 0.3222 0.43309 0.52672 0.0
C1001 C 0.27272 0.51492 0.50661 0.0
C1002 C 0.2839 0.51644 0.52955 0.0
C1003 C 0.32016 0.47743 0.56269 0.0
C1004 C 0.34657 0.4378 0.57276 0.0
C1005 C 0.30864 0.47583 0.53972 0.0
C1006 C 0.36151 0.39611 0.55982 0.0
C1007 C 0.3488 0.39343 0.53692 0.0
H1008 H 0.9741 0.14041 0.31108 0.0
H1009 H 0.94769 0.98499 0.32907 0.0
H1010 H 0.95964 0.95955 0.28979 0.0
H1011 H 0.96765 0.98268 0.24984 0.0
H1012 H 0.99281 0.13834 0.2318 0.0
H1013 H 0.99204 0.16219 0.27162 0.0
C1014 C 0.97141 0.10091 0.30645 0.0
C1015 C 0.95884 0.06484 0.32289 0.0
C1016 C 0.9779 0.08655 0.2838 0.0
C1017 C 0.95658 1.01367 0.3167 0.0
C1018 C 0.96337 0.99905 0.29422 0.0
C1019 C 0.9738 1.02172 0.25461 0.0
C1020 C 0.97945 1.05875 0.2378 0.0
C1021 C 0.97251 1.03536 0.27753 0.0
C1022 C 0.9879 0.10907 0.24434 0.0
C1023 C 0.98726 0.12283 0.26712 0.0
H1024 H 0.23732 0.72109 0.06467 0.0
H1025 H 0.38556 0.66456 0.08105 0.0
H1026 H 0.41621 0.6885 0.0438 0.0
H1027 H 0.3982 0.71532 0.00532 0.0
H1028 H 0.24925 0.76862 0.98812 0.0
H1029 H 0.22201 0.75735 0.0272 0.0
C1030 C 0.27636 0.71417 0.0601 0.0
C1031 C 0.30873 0.68984 0.07532 0.0
C1032 C 0.29366 0.72756 0.03857 0.0
C1033 C 0.35958 0.68234 0.06944 0.0
C1034 C 0.37722 0.69615 0.04817 0.0
C1035 C 0.35998 0.72528 0.01016 0.0
C1036 C 0.32547 0.74166 -0.00624 0.0
C1037 C 0.34417 0.71728 0.0324 0.0
C1038 C 0.27639 0.75528 0.00038 0.0
C1039 C 0.26067 0.74856 0.02269 0.0
H1040 H 0.64567 0.1257 0.7484 0.0
H1041 H 0.62857 0.97069 0.72726 0.0
H1042 H 0.62947 0.94363 0.76663 0.0
H1043 H 0.6485 0.96294 0.80633 0.0
H1044 H 0.66966 0.11782 0.82695 0.0
H1045 H 0.65337 0.14592 0.7885 0.0
C1046 C 0.6412 0.08605 0.75238 0.0
C1047 C 0.63824 1.05017 0.7349 0.0
C1048 C 0.64329 0.07063 0.77495 0.0
C1049 C 0.63154 0.99907 0.74038 0.0
C1050 C 0.63237 0.98351 0.7629 0.0
C1051 C 0.64898 1.00287 0.80247 0.0
C1052 C 0.66164 1.03811 0.81932 0.0
C1053 C 0.64048 1.01877 0.78022 0.0
C1054 C 0.66107 0.0898 0.81417 0.0
C1055 C 0.65169 0.10595 0.79219 0.0
H1056 H 0.53207 0.98524 0.95287 0.0
H1057 H 0.68494 1.03251 0.96635 0.0
H1058 H 0.65434 0.08635 -0.00281 0.0
H1059 H 0.58359 0.124 0.01897 0.0
H1060 H 0.43036 0.07859 0.00454 0.0
H1061 H 0.46154 1.02267 0.97457 0.0
C1062 C 0.55919 1.00653 0.96276 0.0
C1063 C 0.61151 1.00363 0.95708 0.0
C1064 C 0.5408 1.0396 0.97977 0.0
C1065 C 0.64512 1.03228 0.97029 0.0
C1066 C 0.62723 0.06414 0.98772 0.0
C1067 C 0.55654 0.10246 0.00916 0.0
C1068 C 0.50397 0.10639 0.01433 0.0
C1069 C 0.57504 0.06903 -0.00773 0.0
C1070 C 0.47049 0.07761 0.00109 0.0
C1071 C 0.48859 1.04479 0.98411 0.0
H1072 H 0.74443 0.83603 0.27713 0.0
H1073 H 0.77728 0.68281 0.25724 0.0
H1074 H 0.83282 0.7146 0.22732 0.0
H1075 H 0.8748 0.78539 0.2079 0.0
H1076 H 0.83932 0.93879 0.22675 0.0
H1077 H 0.78442 0.90695 0.25694 0.0
C1078 C 0.76326 0.80907 0.26623 0.0
C1079 C 0.75711 0.75632 0.27022 0.0
C1080 C 0.79607 0.82781 0.24928 0.0
C1081 C 0.78153 0.7231 0.25527 0.0
C1082 C 0.81374 0.74149 0.23815 0.0
C1083 C 0.85553 0.81243 0.2186 0.0
C1084 C 0.86175 0.86521 0.21459 0.0
C1085 C 0.82221 0.79372 0.23536 0.0
C1086 C 0.83613 0.89846 0.22915 0.0
C1087 C 0.804 0.88006 0.24628 0.0
H1088 H 0.09006 0.13087 0.45478 0.0
H1089 H 0.93638 0.09026 0.4708 0.0
H1090 H 0.96681 1.03748 0.50178 0.0
H1091 H 1.03716 0.99924 0.52309 0.0
H1092 H 0.19105 1.03913 0.5068 0.0
H1093 H 0.16034 0.09277 0.47609 0.0
C1094 C 1.06274 0.11114 0.46517 0.0
C1095 C 1.01026 0.11531 0.46011 0.0
C1096 C 0.08088 0.07881 0.48236 0.0
C1097 C 0.97641 0.08918 0.47417 0.0
C1098 C 0.99412 1.05791 0.49168 0.0
C1099 C 0.06445 1.01906 0.51272 0.0
C1100 C 0.11699 1.01455 0.51763 0.0
C1101 C 1.0463 1.05154 0.49559 0.0
C1102 C 0.15085 1.0408 0.5036 0.0
C1103 C 0.13307 0.07237 0.48622 0.0
H1104 H 0.74218 0.32618 0.71792 0.0
H1105 H 0.80525 0.17717 0.72546 0.0
H1106 H 0.86654 0.21079 0.75262 0.0
H1107 H 0.90362 0.28248 0.77377 0.0
H1108 H 0.84059 0.43136 0.76642 0.0
H1109 H 0.7802 0.39819 0.73865 0.0
C1110 C 0.76884 0.30049 0.7256 0.0
C1111 C 0.76807 0.24838 0.71937 0.0
C1112 C 0.80542 0.3206 0.74071 0.0
C1113 C 0.80362 0.21679 0.72985 0.0
C1114 C 0.83945 0.23637 0.74519 0.0
C1115 C 0.87736 0.30822 0.76583 0.0
C1116 C 0.87759 0.36004 0.77237 0.0
C1117 C 0.84123 0.2883 0.75049 0.0
C1118 C 0.84259 0.39193 0.76174 0.0
C1119 C 0.80724 0.37255 0.74608 0.0
H1120 H 0.23132 0.34075 0.76856 0.0
H1121 H 0.29309 0.19143 0.76023 0.0
H1122 H 0.35146 0.22395 0.73148 0.0
H1123 H 0.38794 0.29566 0.70989 0.0
H1124 H 0.32444 0.4442 0.71801 0.0
H1125 H 0.26654 0.41172 0.74664 0.0
C1126 C 0.25694 0.31475 0.76028 0.0
C1127 C 0.25711 0.26307 0.76693 0.0
C1128 C 0.29189 0.33424 0.74433 0.0
C1129 C 0.29097 0.23084 0.75563 0.0
C1130 C 0.32519 0.24983 0.73938 0.0
C1131 C 0.36207 0.32146 0.71812 0.0
C1132 C 0.36223 0.37341 0.71177 0.0
C1133 C 0.32681 0.30169 0.73395 0.0
C1134 C 0.32742 0.40509 0.72277 0.0
C1135 C 0.29314 0.38598 0.73886 0.0
H1136 H 0.25172 0.83094 0.20583 0.0
H1137 H 0.2997 0.6792 0.22045 0.0
H1138 H 0.35099 0.71113 0.25184 0.0
H1139 H 0.38736 0.78219 0.2732 0.0
H1140 H 0.33822 0.93424 0.2597 0.0
H1141 H 0.28468 0.90232 0.22893 0.0
C1142 C 0.27228 0.80448 0.21626 0.0
C1143 C 0.27092 0.75216 0.21066 0.0
C1144 C 0.30338 0.82353 0.23385 0.0
C1145 C 0.29863 0.71909 0.22437 0.0
C1146 C 0.32896 0.73767 0.2421 0.0
C1147 C 0.36531 0.8089 0.26355 0.0
C1148 C 0.36793 0.8613 0.26895 0.0
C1149 C 0.33275 0.78988 0.24656 0.0
C1150 C 0.3384 0.89428 0.25594 0.0
C1151 C 0.30695 0.87573 0.23853 0.0
H1152 H 0.08781 0.63469 0.52074 0.0
H1153 H 0.93552 0.58055 0.51158 0.0
H1154 H 0.96525 0.5235 0.48164 0.0
H1155 H 1.03509 0.48665 0.45894 0.0
H1156 H 0.18671 0.54241 0.46797 0.0
H1157 H 0.15715 0.59856 0.49795 0.0
C1158 C 1.06063 0.61097 0.51205 0.0
C1159 C 1.00889 0.61275 0.51863 0.0
C1160 C 0.07843 0.57689 0.49535 0.0
C1161 C 0.97506 0.58115 0.50696 0.0
C1162 C 0.99239 0.54778 0.49 0.0
C1163 C 1.06216 0.51044 0.46763 0.0
C1164 C 0.11406 0.50876 0.46112 0.0
C1165 C 1.04416 0.54462 0.48433 0.0
C1166 C 0.14748 0.54079 0.47277 0.0
C1167 C 0.1301 0.57402 0.48969 0.0
H1168 H 0.54568 0.49451 0.01819 0.0
H1169 H 0.69726 0.54888 0.00638 0.0
H1170 H 0.66393 0.61215 0.98034 0.0
H1171 H 0.59237 0.65193 0.96071 0.0
H1172 H 0.44091 0.59731 0.97192 0.0
H1173 H 0.47351 0.5366 -0.00052 0.0
C1174 C 0.57194 0.5197 0.00984 0.0
C1175 C 0.62472 0.51585 0.01444 0.0
C1176 C 0.55222 0.55724 -0.00473 0.0
C1177 C 0.65702 0.54973 0.00322 0.0
C1178 C 0.63772 0.58661 0.98851 0.0
C1179 C 0.56598 0.62747 0.96945 0.0
C1180 C 0.51376 0.62947 0.96376 0.0
C1181 C 0.58541 0.59103 0.98455 0.0
C1182 C 0.48091 0.59729 0.97563 0.0
C1183 C 0.49985 0.56182 -0.00879 0.0
H1184 H 0.23728 0.79535 0.12108 0.0
H1185 H 0.37722 0.72712 0.14151 0.0
H1186 H 0.42148 0.76838 0.11015 0.0
H1187 H 0.4217 0.83311 0.08051 0.0
H1188 H 0.28268 0.90619 0.06222 0.0
H1189 H 0.2358 0.85225 0.08839 0.0
C1190 C 0.27728 0.78907 0.11829 0.0
C1191 C 0.30432 0.75848 0.13317 0.0
C1192 C 0.30225 0.81339 0.10054 0.0
C1193 C 0.35609 0.75053 0.12992 0.0
C1194 C 0.3812 0.77404 0.11209 0.0
C1195 C 0.38092 0.83572 0.08174 0.0
C1196 C 0.35534 0.87308 0.06963 0.0
C1197 C 0.3549 0.80663 0.09768 0.0
C1198 C 0.30272 0.87723 0.07144 0.0
C1199 C 0.27615 0.84695 0.08656 0.0
H1200 H 0.09821 0.58491 0.3934 0.0
H1201 H 0.07222 0.43253 0.37119 0.0
H1202 H 1.02563 0.46377 0.33817 0.0
H1203 H 0.98645 0.53497 0.31797 0.0
H1204 H 1.01177 0.68677 0.34145 0.0
H1205 H 0.06781 0.65571 0.37111 0.0
C1206 C 0.08307 0.55875 0.38113 0.0
C1207 C 0.08864 0.50688 0.38434 0.0
C1208 C 1.05744 0.57702 0.3623 0.0
C1209 C 0.06804 0.47278 0.36877 0.0
C1210 C 1.04191 0.49062 0.34993 0.0
C1211 C 1.00593 0.5611 0.3291 0.0
C1212 C 0.99588 0.61285 0.32765 0.0
C1213 C 1.03591 0.54271 0.3467 0.0
C1214 C 1.01993 0.6468 0.3423 0.0
C1215 C 1.05112 0.62901 0.35939 0.0
H1216 H 0.33469 0.22227 0.57743 0.0
H1217 H 0.1923 0.30062 0.57846 0.0
H1218 H 0.22502 0.35952 0.60678 0.0
H1219 H 0.28932 0.37918 0.63502 0.0
H1220 H 0.43364 0.30545 0.6329 0.0
H1221 H 0.40429 0.25171 0.60173 0.0
C1222 C 0.3115 0.25319 0.58346 0.0
C1223 C 0.2612 0.25719 0.57624 0.0
C1224 C 0.33027 0.28617 0.59991 0.0
C1225 C 0.23123 0.29727 0.58384 0.0
C1226 C 0.24962 0.33032 0.60023 0.0
C1227 C 0.31486 0.35273 0.62723 0.0
C1228 C 0.36384 0.34718 0.63563 0.0
C1229 C 0.29831 0.32371 0.60898 0.0
C1230 C 0.39594 0.31077 0.62625 0.0
C1231 C 0.37929 0.28036 0.60846 0.0
H1232 H 0.62274 0.49432 0.84049 0.0
H1233 H 0.73196 0.61474 0.84389 0.0
H1234 H 0.67195 0.66694 0.86503 0.0
H1235 H 0.59202 0.67389 0.88606 0.0
H1236 H 0.49025 0.54718 0.88789 0.0
H1237 H 0.54275 0.50193 0.86064 0.0
C1238 C 0.63292 0.5324 0.8455 0.0
C1239 C 0.68136 0.55093 0.84076 0.0
C1240 C 0.59927 0.5609 0.85843 0.0
C1241 C 0.69478 0.59987 0.84756 0.0
C1242 C 0.66055 0.62955 0.8596 0.0
C1243 C 0.58096 0.63688 0.87994 0.0
C1244 C 0.53625 0.61467 0.88785 0.0
C1245 C 0.61321 0.60987 0.86563 0.0
C1246 C 0.52307 0.56589 0.88089 0.0
C1247 C 0.55352 0.53977 0.86567 0.0
H1248 H 0.76886 0.25198 0.90148 0.0
H1249 H 0.88981 0.14487 0.89533 0.0
H1250 H 0.93819 0.20446 0.87211 0.0
H1251 H 0.94001 0.28297 0.84967 0.0
H1252 H 0.8098 0.37975 0.85028 0.0
H1253 H 0.77094 0.32933 0.87976 0.0
C1254 C 0.80645 0.24242 0.89555 0.0
C1255 C 0.82636 0.19476 0.90009 0.0
C1256 C 0.83201 0.2753 0.88117 0.0
C1257 C 0.87433 0.18173 0.89195 0.0
C1258 C 0.90163 0.21562 0.87865 0.0
C1259 C 0.90374 0.29343 0.85679 0.0
C1260 C 0.87895 0.33663 0.84895 0.0
C1261 C 0.88003 0.26191 0.87255 0.0
C1262 C 0.83077 0.34848 0.85712 0.0
C1263 C 0.80824 0.3192 0.87373 0.0
H1264 H 0.16606 0.57942 0.6485 0.0
H1265 H 0.08099 0.44069 0.64744 0.0
H1266 H 1.01724 0.47967 0.6233 0.0
H1267 H 0.99487 0.54809 0.59725 0.0
H1268 H 0.07931 0.68693 0.5984 0.0
H1269 H 0.13531 0.65279 0.62749 0.0
C1270 C 0.13307 0.55812 0.64326 0.0
C1271 C 0.1286 0.50707 0.64912 0.0
C1272 C 0.09723 0.58048 0.62917 0.0
C1273 C 0.08523 0.47999 0.64288 0.0
C1274 C 1.04912 0.50206 0.62894 0.0
C1275 C 1.02437 0.57138 0.60458 0.0
C1276 C 1.03264 0.62014 0.59633 0.0
C1277 C 1.05602 0.55151 0.6212 0.0
C1278 C 0.07204 0.64958 0.60504 0.0
C1279 C 0.10398 0.63005 0.62153 0.0
H1280 H 0.9031 0.86485 0.38916 0.0
H1281 H 0.7648 0.90762 0.42215 0.0
H1282 H 0.71699 0.84951 0.39779 0.0
H1283 H 0.71438 0.79534 0.36367 0.0
H1284 H 0.85299 0.75947 0.32909 0.0
H1285 H 0.90146 0.80662 0.35726 0.0
C1286 C 0.86266 0.8601 0.39134 0.0
C1287 C 0.83708 0.88942 0.40728 0.0
C1288 C 0.83573 0.82893 0.37667 0.0
C1289 C 0.7848 0.88444 0.41001 0.0
C1290 C 0.75763 0.85187 0.39595 0.0
C1291 C 0.75521 0.79765 0.36264 0.0
C1292 C 0.78068 0.77389 0.34485 0.0
C1293 C 0.78254 0.82544 0.37866 0.0
C1294 C 0.83329 0.77733 0.34303 0.0
C1295 C 0.86081 0.80406 0.35906 0.0
H1296 H 0.60671 0.57044 0.09067 0.0
H1297 H 0.57279 0.41181 0.08989 0.0
H1298 H 0.51282 0.4233 0.12114 0.0
H1299 H 0.46471 0.48074 0.14604 0.0
H1300 H 0.49732 0.63987 0.14509 0.0
H1301 H 0.56496 0.62618 0.11759 0.0
C1302 C 0.58727 0.53831 0.09781 0.0
C1303 C 0.59455 0.49036 0.08856 0.0
C1304 C 0.55304 0.54546 0.11546 0.0
C1305 C 0.56783 0.449 0.09717 0.0
C1306 C 0.53377 0.45558 0.11496 0.0
C1307 C 0.48792 0.51191 0.14026 0.0
C1308 C 0.47712 0.56102 0.14752 0.0
C1309 C 0.52546 0.50386 0.12397 0.0
C1310 C 0.50596 0.60175 0.13973 0.0
C1311 C 0.54405 0.59399 0.12391 0.0
H1312 H 0.79503 0.38437 0.58039 0.0
H1313 H 0.91022 0.43709 0.62646 0.0
H1314 H 0.88242 0.37653 0.6546 0.0
H1315 H 0.82073 0.31458 0.66734 0.0
H1316 H 0.70921 0.2566 0.62122 0.0
H1317 H 0.73997 0.31381 0.59164 0.0
C1318 C 0.81458 0.38204 0.59644 0.0
C1319 C 0.85327 0.41648 0.60165 0.0
C1320 C 0.79867 0.34684 0.61253 0.0
C1321 C 0.87883 0.41253 0.62238 0.0
C1322 C 0.86322 0.37772 0.63845 0.0
C1323 C 0.80382 0.31402 0.65068 0.0
C1324 C 0.76308 0.28203 0.64619 0.0
C1325 C 0.82227 0.34591 0.63393 0.0
C1326 C 0.7407 0.28142 0.62479 0.0
C1327 C 0.7583 0.31392 0.60799 0.0
H1328 H 0.55323 0.96165 0.86749 0.0
H1329 H 0.62832 0.09598 0.89102 0.0
H1330 H 0.58526 0.14621 0.86243 0.0
H1331 H 0.51945 0.15324 0.83381 0.0
H1332 H 0.43478 1.02179 0.81396 0.0
H1333 H 0.48923 0.96832 0.8373 0.0
C1334 C 0.56057 1.00175 0.86592 0.0
C1335 C 0.59471 1.02523 0.88062 0.0
C1336 C 0.53424 1.03054 0.85001 0.0
C1337 C 0.60298 0.07734 0.87933 0.0
C1338 C 0.57836 0.10595 0.86307 0.0
C1339 C 0.51419 0.11264 0.83412 0.0
C1340 C 0.47417 0.09095 0.82215 0.0
C1341 C 0.54326 0.08311 0.84863 0.0
C1342 C 0.46616 1.03872 0.82295 0.0
C1343 C 0.49681 1.00844 0.83644 0.0
H1344 H 0.76931 0.86724 0.14561 0.0
H1345 H 0.91603 0.80587 0.13103 0.0
H1346 H 0.87964 0.7529 0.10112 0.0
H1347 H 0.80476 0.72047 0.08135 0.0
H1348 H 0.65856 0.78466 0.09519 0.0
H1349 H 0.69642 0.84312 0.12247 0.0
C1350 C 0.79337 0.84348 0.13536 0.0
C1351 C 0.84514 0.8411 0.13985 0.0
C1352 C 0.77236 0.81433 0.1181 0.0
C1353 C 0.87605 0.80851 0.12739 0.0
C1354 C 0.85534 0.77853 0.11035 0.0
C1355 C 0.78156 0.7481 0.09003 0.0
C1356 C 0.72914 0.74832 0.08666 0.0
C1357 C 0.80343 0.78076 0.10579 0.0
C1358 C 0.69908 0.78425 0.09764 0.0
C1359 C 0.72055 0.81702 0.11339 0.0
H1360 H 0.11141 0.95986 0.34092 0.0
H1361 H 0.18379 0.09358 0.31555 0.0
H1362 H 0.12698 0.14662 0.33822 0.0
H1363 H 0.0643 0.15341 0.36915 0.0
H1364 H 1.00385 1.01766 0.39841 0.0
H1365 H 1.04841 0.96642 0.37066 0.0
C1366 C 0.11345 1.00068 0.33992 0.0
C1367 C 0.15051 1.02328 0.32655 0.0
C1368 C 0.08343 1.03022 0.35405 0.0
C1369 C 0.15456 0.07595 0.32563 0.0
C1370 C 0.12262 0.10601 0.33874 0.0
C1371 C 1.0606 0.11267 0.36906 0.0
C1372 C 1.02973 0.089 0.38505 0.0
C1373 C 0.08817 0.08343 0.35364 0.0
C1374 C 1.02626 1.03632 0.38566 0.0
C1375 C 1.05179 1.00711 0.36987 0.0
H1376 H 0.29509 0.86712 0.34403 0.0
H1377 H 0.4376 0.79061 0.34854 0.0
H1378 H 0.40159 0.73186 0.37626 0.0
H1379 H 0.32662 0.69907 0.39647 0.0
H1380 H 0.18671 0.78163 0.39372 0.0
H1381 H 0.22558 0.84414 0.36889 0.0
C1382 C 0.31889 0.83913 0.35178 0.0
C1383 C 0.36924 0.83434 0.34504 0.0
C1384 C 0.29843 0.80713 0.36804 0.0
C1385 C 0.39899 0.79575 0.35414 0.0
C1386 C 0.37843 0.76228 0.36988 0.0
C1387 C 0.3052 0.73143 0.39076 0.0
C1388 C 0.25391 0.73579 0.39647 0.0
C1389 C 0.32785 0.7672 0.37664 0.0
C1390 C 0.22628 0.77785 0.38939 0.0
C1391 C 0.24828 0.81317 0.37508 0.0
H1392 H 0.52798 1.02372 0.07511 0.0
H1393 H 0.52288 0.16586 0.11026 0.0
H1394 H 0.56571 0.12805 0.1429 0.0
H1395 H 0.61013 1.05564 0.15974 0.0
H1396 H 0.61593 0.91444 0.12372 0.0
H1397 H 0.56463 0.94977 0.0933 0.0
C1398 C 0.53591 1.04605 0.09004 0.0
C1399 C 0.52291 0.09707 0.0906 0.0
C1400 C 0.55959 1.02395 0.10856 0.0
C1401 C 0.53329 0.12639 0.10973 0.0
C1402 C 0.55733 0.10476 0.12831 0.0
C1403 C 0.59851 1.0324 0.14555 0.0
C1404 C 0.61576 0.98264 0.14384 0.0
C1405 C 0.57113 1.05369 0.12778 0.0
C1406 C 0.602 0.95268 0.1253 0.0
C1407 C 0.5735 0.97306 0.10785 0.0
H1408 H 0.37583 0.3895 0.8909 0.0
H1409 H 0.23627 0.4704 0.89865 0.0
H1410 H 0.19303 0.40904 0.87413 0.0
H1411 H 0.19754 0.33501 0.84852 0.0
H1412 H 0.34132 0.26421 0.83683 0.0
H1413 H 0.38086 0.31836 0.86496 0.0
C1414 C 0.33574 0.39298 0.88744 0.0
C1415 C 0.3087 0.43338 0.89653 0.0
C1416 C 0.31228 0.35925 0.87271 0.0
C1417 C 0.25724 0.43897 0.89175 0.0
C1418 C 0.2328 0.4041 0.87776 0.0
C1419 C 0.23728 0.33115 0.85257 0.0
C1420 C 0.26617 0.29397 0.84176 0.0
C1421 C 0.26022 0.36445 0.86788 0.0
C1422 C 0.31809 0.29085 0.8459 0.0
C1423 C 0.34075 0.32211 0.8618 0.0
H1424 H 0.11841 0.11252 0.58433 0.0
H1425 H 0.06673 0.96634 0.60574 0.0
H1426 H 1.01697 1.00544 0.63606 0.0
H1427 H 0.98384 0.08191 0.65425 0.0
H1428 H 1.03747 0.22797 0.63336 0.0
H1429 H 0.09323 0.18828 0.60543 0.0
C1430 C 0.09717 0.08937 0.59599 0.0
C1431 C 0.09672 1.0369 0.59336 0.0
C1432 C 0.06961 0.11206 0.61339 0.0
C1433 C 0.0679 1.00691 0.60792 0.0
C1434 C 1.03971 1.02918 0.62517 0.0
C1435 C 1.00886 0.10475 0.64395 0.0
C1436 C 1.00692 0.15749 0.6456 0.0
C1437 C 1.0399 0.08175 0.62786 0.0
C1438 C 1.03903 0.18722 0.63233 0.0
C1439 C 0.07016 0.16461 0.61621 0.0
loop_
_geom_bond_atom_site_label_1
_geom_bond_atom_site_label_2
_geom_bond_distance
_geom_bond_site_symmetry_2
_ccdc_geom_bond_type
Zn0 N4 2.020 1_565 S
Zn0 O8 2.019 . S
Zn0 N10 2.119 . S
Zn0 O18 1.975 1_565 S
C1 N2 1.334 . S
C1 N5 1.336 . S
N2 C1 1.334 . S
N2 C3 1.334 . S
C3 N2 1.334 . S
C3 N4 1.336 . S
N4 Zn0 2.020 1_545 S
N4 C3 1.336 . S
N4 N5 1.354 . S
N5 C1 1.336 . S
N5 N4 1.354 . S
N5 Zn9 2.020 . S
C6 O7 1.244 . S
C6 O30 1.257 . S
O7 C6 1.244 . S
O8 Zn0 2.019 . S
O8 C28 1.247 1_565 S
Zn9 N5 2.020 . S
Zn9 O16 1.975 . S
Zn9 N25 2.119 . S
Zn9 O30 2.019 . S
N10 Zn0 2.119 . S
N10 C12 1.334 . S
N10 C13 1.328 . S
C11 C12 1.391 . S
C11 N14 1.329 . S
C11 H32 0.930 . S
C12 N10 1.334 . S
C12 C11 1.391 . S
C12 H19 0.930 . S
C13 N10 1.328 . S
C13 C15 1.392 . S
C13 H20 0.930 . S
N14 C11 1.329 . S
N14 C15 1.331 . S
C15 C13 1.392 . S
C15 N14 1.331 . S
O16 Zn9 1.975 . S
O16 C17 1.252 . S
C17 O16 1.252 . S
C17 O18 1.252 . S
O18 Zn0 1.975 1_545 S
O18 C17 1.252 . S
H19 C12 0.930 . S
H20 C13 0.930 . S
C21 C22 1.392 . S
C21 N25 1.328 . S
C21 H27 0.930 . S
C22 C21 1.392 . S
C22 N26 1.331 . S
C23 C24 1.391 . S
C23 N26 1.329 . S
C23 H33 0.930 . S
C24 C23 1.391 . S
C24 N25 1.334 . S
C24 H31 0.930 . S
N25 Zn9 2.119 . S
N25 C21 1.328 . S
N25 C24 1.334 . S
N26 C22 1.331 . S
N26 C23 1.329 . S
H27 C21 0.930 . S
C28 O8 1.247 1_545 S
C28 O29 1.254 . S
O29 C28 1.254 . S
O30 C6 1.257 . S
O30 Zn9 2.019 . S
H31 C24 0.930 . S
H32 C11 0.930 . S
H33 C23 0.930 . S
Zn34 N38 2.020 . S
Zn34 O42 2.019 . S
Zn34 N44 2.119 . S
Zn34 O52 1.975 . S
C35 N36 1.334 . S
C35 N39 1.336 . S
N36 C35 1.334 . S
N36 C37 1.334 . S
C37 N36 1.334 . S
C37 N38 1.336 . S
N38 Zn34 2.020 . S
N38 C37 1.336 . S
N38 N39 1.354 . S
N39 C35 1.336 . S
N39 N38 1.354 . S
N39 Zn43 2.020 . S
C40 O41 1.244 . S
C40 O64 1.257 . S
O41 C40 1.244 . S
O42 Zn34 2.019 . S
O42 C62 1.257 . S
Zn43 N39 2.020 . S
Zn43 O50 1.975 . S
Zn43 N59 2.119 . S
Zn43 O64 2.019 . S
N44 Zn34 2.119 . S
N44 C46 1.334 . S
N44 C47 1.328 . S
C45 C46 1.391 . S
C45 N48 1.329 . S
C45 H66 0.930 . S
C46 N44 1.334 . S
C46 C45 1.391 . S
C46 H53 0.930 . S
C47 N44 1.328 . S
C47 C49 1.392 . S
C47 H54 0.930 . S
N48 C45 1.329 . S
N48 C49 1.331 . S
C49 C47 1.392 . S
C49 N48 1.331 . S
O50 Zn43 1.975 . S
O50 C51 1.252 . S
C51 O50 1.252 . S
C51 O52 1.252 . S
O52 Zn34 1.975 . S
O52 C51 1.252 . S
H53 C46 0.930 . S
H54 C47 0.930 . S
C55 C56 1.392 . S
C55 N59 1.328 . S
C55 H61 0.930 . S
C56 C55 1.392 . S
C56 N60 1.331 . S
C57 C58 1.391 . S
C57 N60 1.329 . S
C57 H67 0.930 . S
C58 C57 1.391 . S
C58 N59 1.334 . S
C58 H65 0.930 . S
N59 Zn43 2.119 . S
N59 C55 1.328 . S
N59 C58 1.334 . S
N60 C56 1.331 . S
N60 C57 1.329 . S
H61 C55 0.930 . S
C62 O42 1.257 . S
C62 O63 1.244 . S
O63 C62 1.244 . S
O64 C40 1.257 . S
O64 Zn43 2.019 . S
H65 C58 0.930 . S
H66 C45 0.930 . S
H67 C57 0.930 . S
Zn68 N72 2.020 1_545 S
Zn68 O76 2.019 . S
Zn68 N78 2.119 . S
Zn68 O86 1.975 1_545 S
C69 N70 1.334 . S
C69 N73 1.336 . S
N70 C69 1.334 . S
N70 C71 1.334 . S
C71 N70 1.334 . S
C71 N72 1.336 . S
N72 Zn68 2.020 1_565 S
N72 C71 1.336 . S
N72 N73 1.354 . S
N73 C69 1.336 . S
N73 N72 1.354 . S
N73 Zn77 2.020 . S
C74 O75 1.244 . S
C74 O98 1.257 . S
O75 C74 1.244 . S
O76 Zn68 2.019 . S
O76 C96 1.247 1_545 S
Zn77 N73 2.020 . S
Zn77 O84 1.975 . S
Zn77 N93 2.119 . S
Zn77 O98 2.019 . S
N78 Zn68 2.119 . S
N78 C80 1.334 . S
N78 C81 1.328 . S
C79 C80 1.391 . S
C79 N82 1.329 . S
C79 H100 0.930 . S
C80 N78 1.334 . S
C80 C79 1.391 . S
C80 H87 0.930 . S
C81 N78 1.328 . S
C81 C83 1.392 . S
C81 H88 0.930 . S
N82 C79 1.329 . S
N82 C83 1.331 . S
C83 C81 1.392 . S
C83 N82 1.331 . S
O84 Zn77 1.975 . S
O84 C85 1.252 . S
C85 O84 1.252 . S
C85 O86 1.252 . S
O86 Zn68 1.975 1_565 S
O86 C85 1.252 . S
H87 C80 0.930 . S
H88 C81 0.930 . S
C89 C90 1.392 . S
C89 N93 1.328 . S
C89 H95 0.930 . S
C90 C89 1.392 . S
C90 N94 1.331 . S
C91 C92 1.391 . S
C91 N94 1.329 . S
C91 H101 0.930 . S
C92 C91 1.391 . S
C92 N93 1.334 . S
C92 H99 0.930 . S
N93 Zn77 2.119 . S
N93 C89 1.328 . S
N93 C92 1.334 . S
N94 C90 1.331 . S
N94 C91 1.329 . S
H95 C89 0.930 . S
C96 O76 1.247 1_565 S
C96 O97 1.254 . S
O97 C96 1.254 . S
O98 C74 1.257 . S
O98 Zn77 2.019 . S
H99 C92 0.930 . S
H100 C79 0.930 . S
H101 C91 0.930 . S
Zn102 N106 2.020 . S
Zn102 O110 2.019 . S
Zn102 N112 2.119 . S
Zn102 O120 1.975 . S
C103 N104 1.334 . S
C103 N107 1.336 . S
N104 C103 1.334 . S
N104 C105 1.334 . S
C105 N104 1.334 . S
C105 N106 1.336 . S
N106 Zn102 2.020 . S
N106 C105 1.336 . S
N106 N107 1.354 . S
N107 C103 1.336 . S
N107 N106 1.354 . S
N107 Zn111 2.020 . S
C108 O109 1.244 . S
C108 O132 1.257 . S
O109 C108 1.244 . S
O110 Zn102 2.019 . S
O110 C130 1.257 . S
Zn111 N107 2.020 . S
Zn111 O118 1.975 . S
Zn111 N127 2.119 . S
Zn111 O132 2.019 . S
N112 Zn102 2.119 . S
N112 C114 1.334 . S
N112 C115 1.328 . S
C113 C114 1.391 . S
C113 N116 1.329 . S
C113 H134 0.930 . S
C114 N112 1.334 . S
C114 C113 1.391 . S
C114 H121 0.930 . S
C115 N112 1.328 . S
C115 C117 1.392 . S
C115 H122 0.930 . S
N116 C113 1.329 . S
N116 C117 1.331 . S
C117 C115 1.392 . S
C117 N116 1.331 . S
O118 Zn111 1.975 . S
O118 C119 1.252 . S
C119 O118 1.252 . S
C119 O120 1.252 . S
O120 Zn102 1.975 . S
O120 C119 1.252 . S
H121 C114 0.930 . S
H122 C115 0.930 . S
C123 C124 1.392 . S
C123 N127 1.328 . S
C123 H129 0.930 . S
C124 C123 1.392 . S
C124 N128 1.331 . S
C125 C126 1.391 . S
C125 N128 1.329 . S
C125 H135 0.930 . S
C126 C125 1.391 . S
C126 N127 1.334 . S
C126 H133 0.930 . S
N127 Zn111 2.119 . S
N127 C123 1.328 . S
N127 C126 1.334 . S
N128 C124 1.331 . S
N128 C125 1.329 . S
H129 C123 0.930 . S
C130 O110 1.257 . S
C130 O131 1.244 . S
O131 C130 1.244 . S
O132 C108 1.257 . S
O132 Zn111 2.019 . S
H133 C126 0.930 . S
H134 C113 0.930 . S
H135 C125 0.930 . S
Zn136 N140 2.020 1_545 S
Zn136 O144 2.019 . S
Zn136 N146 2.119 . S
Zn136 O154 1.975 1_545 S
C137 N138 1.334 . S
C137 N141 1.336 . S
N138 C137 1.334 . S
N138 C139 1.334 . S
C139 N138 1.334 . S
C139 N140 1.336 . S
N140 Zn136 2.020 1_565 S
N140 C139 1.336 . S
N140 N141 1.354 . S
N141 C137 1.336 . S
N141 N140 1.354 . S
N141 Zn145 2.020 . S
C142 O143 1.244 . S
C142 O166 1.257 . S
O143 C142 1.244 . S
O144 Zn136 2.019 . S
O144 C164 1.247 1_545 S
Zn145 N141 2.020 . S
Zn145 O152 1.975 . S
Zn145 N161 2.119 . S
Zn145 O166 2.019 . S
N146 Zn136 2.119 . S
N146 C148 1.334 . S
N146 C149 1.328 . S
C147 C148 1.391 . S
C147 N150 1.329 . S
C147 H168 0.930 . S
C148 N146 1.334 . S
C148 C147 1.391 . S
C148 H155 0.930 . S
C149 N146 1.328 . S
C149 C151 1.392 . S
C149 H156 0.930 . S
N150 C147 1.329 . S
N150 C151 1.331 . S
C151 C149 1.392 . S
C151 N150 1.331 . S
O152 Zn145 1.975 . S
O152 C153 1.252 . S
C153 O152 1.252 . S
C153 O154 1.252 . S
O154 Zn136 1.975 1_565 S
O154 C153 1.252 . S
H155 C148 0.930 . S
H156 C149 0.930 . S
C157 C158 1.392 . S
C157 N161 1.328 . S
C157 H163 0.930 . S
C158 C157 1.392 . S
C158 N162 1.331 . S
C159 C160 1.391 . S
C159 N162 1.329 . S
C159 H169 0.930 . S
C160 C159 1.391 . S
C160 N161 1.334 . S
C160 H167 0.930 . S
N161 Zn145 2.119 . S
N161 C157 1.328 . S
N161 C160 1.334 . S
N162 C158 1.331 . S
N162 C159 1.329 . S
H163 C157 0.930 . S
C164 O144 1.247 1_565 S
C164 O165 1.254 . S
O165 C164 1.254 . S
O166 C142 1.257 . S
O166 Zn145 2.019 . S
H167 C160 0.930 . S
H168 C147 0.930 . S
H169 C159 0.930 . S
Zn170 N174 2.020 . S
Zn170 O178 2.019 . S
Zn170 N180 2.119 . S
Zn170 O188 1.975 . S
C171 N172 1.334 . S
C171 N175 1.336 . S
N172 C171 1.334 . S
N172 C173 1.334 . S
C173 N172 1.334 . S
C173 N174 1.336 . S
N174 Zn170 2.020 . S
N174 C173 1.336 . S
N174 N175 1.354 . S
N175 C171 1.336 . S
N175 N174 1.354 . S
N175 Zn179 2.020 . S
C176 O177 1.244 . S
C176 O200 1.257 . S
O177 C176 1.244 . S
O178 Zn170 2.019 . S
O178 C198 1.257 . S
Zn179 N175 2.020 . S
Zn179 O186 1.975 . S
Zn179 N195 2.119 . S
Zn179 O200 2.019 . S
N180 Zn170 2.119 . S
N180 C182 1.334 . S
N180 C183 1.328 . S
C181 C182 1.391 . S
C181 N184 1.329 . S
C181 H202 0.930 . S
C182 N180 1.334 . S
C182 C181 1.391 . S
C182 H189 0.930 . S
C183 N180 1.328 . S
C183 C185 1.392 . S
C183 H190 0.930 . S
N184 C181 1.329 . S
N184 C185 1.331 . S
C185 C183 1.392 . S
C185 N184 1.331 . S
O186 Zn179 1.975 . S
O186 C187 1.252 . S
C187 O186 1.252 . S
C187 O188 1.252 . S
O188 Zn170 1.975 . S
O188 C187 1.252 . S
H189 C182 0.930 . S
H190 C183 0.930 . S
C191 C192 1.392 . S
C191 N195 1.328 . S
C191 H197 0.930 . S
C192 C191 1.392 . S
C192 N196 1.331 . S
C193 C194 1.391 . S
C193 N196 1.329 . S
C193 H203 0.930 . S
C194 C193 1.391 . S
C194 N195 1.334 . S
C194 H201 0.930 . S
N195 Zn179 2.119 . S
N195 C191 1.328 . S
N195 C194 1.334 . S
N196 C192 1.331 . S
N196 C193 1.329 . S
H197 C191 0.930 . S
C198 O178 1.257 . S
C198 O199 1.244 . S
O199 C198 1.244 . S
O200 C176 1.257 . S
O200 Zn179 2.019 . S
H201 C194 0.930 . S
H202 C181 0.930 . S
H203 C193 0.930 . S
Zn204 N208 2.020 . S
Zn204 O212 2.019 . S
Zn204 N214 2.119 . S
Zn204 O222 1.975 . S
C205 N206 1.334 . S
C205 N209 1.336 . S
N206 C205 1.334 . S
N206 C207 1.334 . S
C207 N206 1.334 . S
C207 N208 1.336 . S
N208 Zn204 2.020 . S
N208 C207 1.336 . S
N208 N209 1.354 . S
N209 C205 1.336 . S
N209 N208 1.354 . S
N209 Zn213 2.020 1_545 S
C210 O211 1.254 . S
C210 O234 1.247 1_545 S
O211 C210 1.254 . S
O212 Zn204 2.019 . S
O212 C232 1.257 . S
Zn213 N209 2.020 1_565 S
Zn213 O220 1.975 1_565 S
Zn213 N229 2.119 . S
Zn213 O234 2.019 . S
N214 Zn204 2.119 . S
N214 C216 1.334 . S
N214 C217 1.328 . S
C215 C216 1.391 . S
C215 N218 1.329 . S
C215 H236 0.930 . S
C216 N214 1.334 . S
C216 C215 1.391 . S
C216 H223 0.930 . S
C217 N214 1.328 . S
C217 C219 1.392 . S
C217 H224 0.930 . S
N218 C215 1.329 . S
N218 C219 1.331 . S
C219 C217 1.392 . S
C219 N218 1.331 . S
O220 Zn213 1.975 1_545 S
O220 C221 1.252 . S
C221 O220 1.252 . S
C221 O222 1.252 . S
O222 Zn204 1.975 . S
O222 C221 1.252 . S
H223 C216 0.930 . S
H224 C217 0.930 . S
C225 C226 1.392 . S
C225 N229 1.328 . S
C225 H231 0.930 . S
C226 C225 1.392 . S
C226 N230 1.331 . S
C227 C228 1.391 . S
C227 N230 1.329 . S
C227 H237 0.930 . S
C228 C227 1.391 . S
C228 N229 1.334 . S
C228 H235 0.930 . S
N229 Zn213 2.119 . S
N229 C225 1.328 . S
N229 C228 1.334 . S
N230 C226 1.331 . S
N230 C227 1.329 . S
H231 C225 0.930 . S
C232 O212 1.257 . S
C232 O233 1.244 . S
O233 C232 1.244 . S
O234 C210 1.247 1_565 S
O234 Zn213 2.019 . S
H235 C228 0.930 . S
H236 C215 0.930 . S
H237 C227 0.930 . S
Zn238 N242 2.020 . S
Zn238 O246 2.019 . S
Zn238 N248 2.119 . S
Zn238 O256 1.975 . S
C239 N240 1.334 . S
C239 N243 1.336 . S
N240 C239 1.334 . S
N240 C241 1.334 . S
C241 N240 1.334 . S
C241 N242 1.336 . S
N242 Zn238 2.020 . S
N242 C241 1.336 . S
N242 N243 1.354 . S
N243 C239 1.336 . S
N243 N242 1.354 . S
N243 Zn247 2.020 . S
C244 O245 1.244 . S
C244 O268 1.257 . S
O245 C244 1.244 . S
O246 Zn238 2.019 . S
O246 C266 1.257 . S
Zn247 N243 2.020 . S
Zn247 O254 1.975 . S
Zn247 N263 2.119 . S
Zn247 O268 2.019 . S
N248 Zn238 2.119 . S
N248 C250 1.334 . S
N248 C251 1.328 . S
C249 C250 1.391 . S
C249 N252 1.329 . S
C249 H270 0.930 . S
C250 N248 1.334 . S
C250 C249 1.391 . S
C250 H257 0.930 . S
C251 N248 1.328 . S
C251 C253 1.392 . S
C251 H258 0.930 . S
N252 C249 1.329 . S
N252 C253 1.331 . S
C253 C251 1.392 . S
C253 N252 1.331 . S
O254 Zn247 1.975 . S
O254 C255 1.252 . S
C255 O254 1.252 . S
C255 O256 1.252 . S
O256 Zn238 1.975 . S
O256 C255 1.252 . S
H257 C250 0.930 . S
H258 C251 0.930 . S
C259 C260 1.392 . S
C259 N263 1.328 . S
C259 H265 0.930 . S
C260 C259 1.392 . S
C260 N264 1.331 . S
C261 C262 1.391 . S
C261 N264 1.329 . S
C261 H271 0.930 . S
C262 C261 1.391 . S
C262 N263 1.334 . S
C262 H269 0.930 . S
N263 Zn247 2.119 . S
N263 C259 1.328 . S
N263 C262 1.334 . S
N264 C260 1.331 . S
N264 C261 1.329 . S
H265 C259 0.930 . S
C266 O246 1.257 . S
C266 O267 1.244 . S
O267 C266 1.244 . S
O268 C244 1.257 . S
O268 Zn247 2.019 . S
H269 C262 0.930 . S
H270 C249 0.930 . S
H271 C261 0.930 . S
Zn272 N276 2.020 . S
Zn272 O280 2.019 . S
Zn272 N282 2.119 . S
Zn272 O290 1.975 . S
C273 N274 1.334 . S
C273 N277 1.336 . S
N274 C273 1.334 . S
N274 C275 1.334 . S
C275 N274 1.334 . S
C275 N276 1.336 . S
N276 Zn272 2.020 . S
N276 C275 1.336 . S
N276 N277 1.354 . S
N277 C273 1.336 . S
N277 N276 1.354 . S
N277 Zn281 2.020 . S
C278 O279 1.244 . S
C278 O302 1.257 . S
O279 C278 1.244 . S
O280 Zn272 2.019 . S
O280 C300 1.257 . S
Zn281 N277 2.020 . S
Zn281 O288 1.975 . S
Zn281 N297 2.119 . S
Zn281 O302 2.019 . S
N282 Zn272 2.119 . S
N282 C284 1.334 . S
N282 C285 1.328 . S
C283 C284 1.391 . S
C283 N286 1.329 . S
C283 H304 0.930 . S
C284 N282 1.334 . S
C284 C283 1.391 . S
C284 H291 0.930 . S
C285 N282 1.328 . S
C285 C287 1.392 . S
C285 H292 0.930 . S
N286 C283 1.329 . S
N286 C287 1.331 . S
C287 C285 1.392 . S
C287 N286 1.331 . S
O288 Zn281 1.975 . S
O288 C289 1.252 . S
C289 O288 1.252 . S
C289 O290 1.252 . S
O290 Zn272 1.975 . S
O290 C289 1.252 . S
H291 C284 0.930 . S
H292 C285 0.930 . S
C293 C294 1.392 . S
C293 N297 1.328 . S
C293 H299 0.930 . S
C294 C293 1.392 . S
C294 N298 1.331 . S
C295 C296 1.391 . S
C295 N298 1.329 . S
C295 H305 0.930 . S
C296 C295 1.391 . S
C296 N297 1.334 . S
C296 H303 0.930 . S
N297 Zn281 2.119 . S
N297 C293 1.328 . S
N297 C296 1.334 . S
N298 C294 1.331 . S
N298 C295 1.329 . S
H299 C293 0.930 . S
C300 O280 1.257 . S
C300 O301 1.244 . S
O301 C300 1.244 . S
O302 C278 1.257 . S
O302 Zn281 2.019 . S
H303 C296 0.930 . S
H304 C283 0.930 . S
H305 C295 0.930 . S
Zn306 N310 2.020 . S
Zn306 O314 2.019 . S
Zn306 N316 2.119 . S
Zn306 O324 1.975 . S
C307 N308 1.334 . S
C307 N311 1.336 . S
N308 C307 1.334 . S
N308 C309 1.334 . S
C309 N308 1.334 . S
C309 N310 1.336 . S
N310 Zn306 2.020 . S
N310 C309 1.336 . S
N310 N311 1.354 . S
N311 C307 1.336 . S
N311 N310 1.354 . S
N311 Zn315 2.020 . S
C312 O313 1.244 . S
C312 O336 1.257 . S
O313 C312 1.244 . S
O314 Zn306 2.019 . S
O314 C334 1.257 . S
Zn315 N311 2.020 . S
Zn315 O322 1.975 . S
Zn315 N331 2.119 . S
Zn315 O336 2.019 . S
N316 Zn306 2.119 . S
N316 C318 1.334 . S
N316 C319 1.328 . S
C317 C318 1.391 . S
C317 N320 1.329 . S
C317 H338 0.930 . S
C318 N316 1.334 . S
C318 C317 1.391 . S
C318 H325 0.930 . S
C319 N316 1.328 . S
C319 C321 1.392 . S
C319 H326 0.930 . S
N320 C317 1.329 . S
N320 C321 1.331 . S
C321 C319 1.392 . S
C321 N320 1.331 . S
O322 Zn315 1.975 . S
O322 C323 1.252 . S
C323 O322 1.252 . S
C323 O324 1.252 . S
O324 Zn306 1.975 . S
O324 C323 1.252 . S
H325 C318 0.930 . S
H326 C319 0.930 . S
C327 C328 1.392 . S
C327 N331 1.328 . S
C327 H333 0.930 . S
C328 C327 1.392 . S
C328 N332 1.331 . S
C329 C330 1.391 . S
C329 N332 1.329 . S
C329 H339 0.930 . S
C330 C329 1.391 . S
C330 N331 1.334 . S
C330 H337 0.930 . S
N331 Zn315 2.119 . S
N331 C327 1.328 . S
N331 C330 1.334 . S
N332 C328 1.331 . S
N332 C329 1.329 . S
H333 C327 0.930 . S
C334 O314 1.257 . S
C334 O335 1.244 . S
O335 C334 1.244 . S
O336 C312 1.257 . S
O336 Zn315 2.019 . S
H337 C330 0.930 . S
H338 C317 0.930 . S
H339 C329 0.930 . S
Zn340 N344 2.020 . S
Zn340 O348 2.019 . S
Zn340 N350 2.119 . S
Zn340 O358 1.975 . S
C341 N342 1.334 . S
C341 N345 1.336 . S
N342 C341 1.334 . S
N342 C343 1.334 . S
C343 N342 1.334 . S
C343 N344 1.336 . S
N344 Zn340 2.020 . S
N344 C343 1.336 . S
N344 N345 1.354 . S
N345 C341 1.336 . S
N345 N344 1.354 . S
N345 Zn349 2.020 . S
C346 O347 1.244 . S
C346 O370 1.257 . S
O347 C346 1.244 . S
O348 Zn340 2.019 . S
O348 C368 1.257 . S
Zn349 N345 2.020 . S
Zn349 O356 1.975 . S
Zn349 N365 2.119 . S
Zn349 O370 2.019 . S
N350 Zn340 2.119 . S
N350 C352 1.334 . S
N350 C353 1.328 . S
C351 C352 1.391 . S
C351 N354 1.329 . S
C351 H372 0.930 . S
C352 N350 1.334 . S
C352 C351 1.391 . S
C352 H359 0.930 . S
C353 N350 1.328 . S
C353 C355 1.392 . S
C353 H360 0.930 . S
N354 C351 1.329 . S
N354 C355 1.331 . S
C355 C353 1.392 . S
C355 N354 1.331 . S
O356 Zn349 1.975 . S
O356 C357 1.252 . S
C357 O356 1.252 . S
C357 O358 1.252 . S
O358 Zn340 1.975 . S
O358 C357 1.252 . S
H359 C352 0.930 . S
H360 C353 0.930 . S
C361 C362 1.392 . S
C361 N365 1.328 . S
C361 H367 0.930 . S
C362 C361 1.392 . S
C362 N366 1.331 . S
C363 C364 1.391 . S
C363 N366 1.329 . S
C363 H373 0.930 . S
C364 C363 1.391 . S
C364 N365 1.334 . S
C364 H371 0.930 . S
N365 Zn349 2.119 . S
N365 C361 1.328 . S
N365 C364 1.334 . S
N366 C362 1.331 . S
N366 C363 1.329 . S
H367 C361 0.930 . S
C368 O348 1.257 . S
C368 O369 1.244 . S
O369 C368 1.244 . S
O370 C346 1.257 . S
O370 Zn349 2.019 . S
H371 C364 0.930 . S
H372 C351 0.930 . S
H373 C363 0.930 . S
Zn374 N378 2.020 . S
Zn374 O382 2.019 . S
Zn374 N384 2.119 . S
Zn374 O392 1.975 . S
C375 N376 1.334 . S
C375 N379 1.336 . S
N376 C375 1.334 . S
N376 C377 1.334 . S
C377 N376 1.334 . S
C377 N378 1.336 . S
N378 Zn374 2.020 . S
N378 C377 1.336 . S
N378 N379 1.354 . S
N379 C375 1.336 . S
N379 N378 1.354 . S
N379 Zn383 2.020 . S
C380 O381 1.244 . S
C380 O404 1.257 . S
O381 C380 1.244 . S
O382 Zn374 2.019 . S
O382 C402 1.257 . S
Zn383 N379 2.020 . S
Zn383 O390 1.975 . S
Zn383 N399 2.119 . S
Zn383 O404 2.019 . S
N384 Zn374 2.119 . S
N384 C386 1.334 . S
N384 C387 1.328 . S
C385 C386 1.391 . S
C385 N388 1.329 . S
C385 H406 0.930 . S
C386 N384 1.334 . S
C386 C385 1.391 . S
C386 H393 0.930 . S
C387 N384 1.328 . S
C387 C389 1.392 . S
C387 H394 0.930 . S
N388 C385 1.329 . S
N388 C389 1.331 . S
C389 C387 1.392 . S
C389 N388 1.331 . S
O390 Zn383 1.975 . S
O390 C391 1.252 . S
C391 O390 1.252 . S
C391 O392 1.252 . S
O392 Zn374 1.975 . S
O392 C391 1.252 . S
H393 C386 0.930 . S
H394 C387 0.930 . S
C395 C396 1.392 . S
C395 N399 1.328 . S
C395 H401 0.930 . S
C396 C395 1.392 . S
C396 N400 1.331 . S
C397 C398 1.391 . S
C397 N400 1.329 . S
C397 H407 0.930 . S
C398 C397 1.391 . S
C398 N399 1.334 . S
C398 H405 0.930 . S
N399 Zn383 2.119 . S
N399 C395 1.328 . S
N399 C398 1.334 . S
N400 C396 1.331 . S
N400 C397 1.329 . S
H401 C395 0.930 . S
C402 O382 1.257 . S
C402 O403 1.244 . S
O403 C402 1.244 . S
O404 C380 1.257 . S
O404 Zn383 2.019 . S
H405 C398 0.930 . S
H406 C385 0.930 . S
H407 C397 0.930 . S
Zn408 N412 2.020 . S
Zn408 O416 2.019 . S
Zn408 N418 2.119 . S
Zn408 O426 1.975 . S
C409 N410 1.334 . S
C409 N413 1.336 . S
N410 C409 1.334 . S
N410 C411 1.334 . S
C411 N410 1.334 . S
C411 N412 1.336 . S
N412 Zn408 2.020 . S
N412 C411 1.336 . S
N412 N413 1.354 . S
N413 C409 1.336 . S
N413 N412 1.354 . S
N413 Zn417 2.020 . S
C414 O415 1.244 . S
C414 O438 1.257 . S
O415 C414 1.244 . S
O416 Zn408 2.019 . S
O416 C436 1.257 . S
Zn417 N413 2.020 . S
Zn417 O424 1.975 . S
Zn417 N433 2.119 . S
Zn417 O438 2.019 . S
N418 Zn408 2.119 . S
N418 C420 1.334 . S
N418 C421 1.328 . S
C419 C420 1.391 . S
C419 N422 1.329 . S
C419 H440 0.930 . S
C420 N418 1.334 . S
C420 C419 1.391 . S
C420 H427 0.930 . S
C421 N418 1.328 . S
C421 C423 1.392 . S
C421 H428 0.930 . S
N422 C419 1.329 . S
N422 C423 1.331 . S
C423 C421 1.392 . S
C423 N422 1.331 . S
O424 Zn417 1.975 . S
O424 C425 1.252 . S
C425 O424 1.252 . S
C425 O426 1.252 . S
O426 Zn408 1.975 . S
O426 C425 1.252 . S
H427 C420 0.930 . S
H428 C421 0.930 . S
C429 C430 1.392 . S
C429 N433 1.328 . S
C429 H435 0.930 . S
C430 C429 1.392 . S
C430 N434 1.331 . S
C431 C432 1.391 . S
C431 N434 1.329 . S
C431 H441 0.930 . S
C432 C431 1.391 . S
C432 N433 1.334 . S
C432 H439 0.930 . S
N433 Zn417 2.119 . S
N433 C429 1.328 . S
N433 C432 1.334 . S
N434 C430 1.331 . S
N434 C431 1.329 . S
H435 C429 0.930 . S
C436 O416 1.257 . S
C436 O437 1.244 . S
O437 C436 1.244 . S
O438 C414 1.257 . S
O438 Zn417 2.019 . S
H439 C432 0.930 . S
H440 C419 0.930 . S
H441 C431 0.930 . S
Zn442 N446 2.020 . S
Zn442 O450 2.019 . S
Zn442 N452 2.119 . S
Zn442 O460 1.975 . S
C443 N444 1.334 . S
C443 N447 1.336 . S
N444 C443 1.334 . S
N444 C445 1.334 . S
C445 N444 1.334 . S
C445 N446 1.336 . S
N446 Zn442 2.020 . S
N446 C445 1.336 . S
N446 N447 1.354 . S
N447 C443 1.336 . S
N447 N446 1.354 . S
N447 Zn451 2.020 . S
C448 O449 1.244 . S
C448 O472 1.257 . S
O449 C448 1.244 . S
O450 Zn442 2.019 . S
O450 C470 1.257 . S
Zn451 N447 2.020 . S
Zn451 O458 1.975 . S
Zn451 N467 2.119 . S
Zn451 O472 2.019 . S
N452 Zn442 2.119 . S
N452 C454 1.334 . S
N452 C455 1.328 . S
C453 C454 1.391 . S
C453 N456 1.329 . S
C453 H474 0.930 . S
C454 N452 1.334 . S
C454 C453 1.391 . S
C454 H461 0.930 . S
C455 N452 1.328 . S
C455 C457 1.392 . S
C455 H462 0.930 . S
N456 C453 1.329 . S
N456 C457 1.331 . S
C457 C455 1.392 . S
C457 N456 1.331 . S
O458 Zn451 1.975 . S
O458 C459 1.252 . S
C459 O458 1.252 . S
C459 O460 1.252 . S
O460 Zn442 1.975 . S
O460 C459 1.252 . S
H461 C454 0.930 . S
H462 C455 0.930 . S
C463 C464 1.392 . S
C463 N467 1.328 . S
C463 H469 0.930 . S
C464 C463 1.392 . S
C464 N468 1.331 . S
C465 C466 1.391 . S
C465 N468 1.329 . S
C465 H475 0.930 . S
C466 C465 1.391 . S
C466 N467 1.334 . S
C466 H473 0.930 . S
N467 Zn451 2.119 . S
N467 C463 1.328 . S
N467 C466 1.334 . S
N468 C464 1.331 . S
N468 C465 1.329 . S
H469 C463 0.930 . S
C470 O450 1.257 . S
C470 O471 1.244 . S
O471 C470 1.244 . S
O472 C448 1.257 . S
O472 Zn451 2.019 . S
H473 C466 0.930 . S
H474 C453 0.930 . S
H475 C465 0.930 . S
Zn476 N480 2.020 . S
Zn476 O484 2.019 . S
Zn476 N486 2.119 . S
Zn476 O494 1.975 . S
C477 N478 1.334 . S
C477 N481 1.336 . S
N478 C477 1.334 . S
N478 C479 1.334 . S
C479 N478 1.334 . S
C479 N480 1.336 . S
N480 Zn476 2.020 . S
N480 C479 1.336 . S
N480 N481 1.354 . S
N481 C477 1.336 . S
N481 N480 1.354 . S
N481 Zn485 2.020 . S
C482 O483 1.244 . S
C482 O506 1.257 . S
O483 C482 1.244 . S
O484 Zn476 2.019 . S
O484 C504 1.257 . S
Zn485 N481 2.020 . S
Zn485 O492 1.975 . S
Zn485 N501 2.119 . S
Zn485 O506 2.019 . S
N486 Zn476 2.119 . S
N486 C488 1.334 . S
N486 C489 1.328 . S
C487 C488 1.391 . S
C487 N490 1.329 . S
C487 H508 0.930 . S
C488 N486 1.334 . S
C488 C487 1.391 . S
C488 H495 0.930 . S
C489 N486 1.328 . S
C489 C491 1.392 . S
C489 H496 0.930 . S
N490 C487 1.329 . S
N490 C491 1.331 . S
C491 C489 1.392 . S
C491 N490 1.331 . S
O492 Zn485 1.975 . S
O492 C493 1.252 . S
C493 O492 1.252 . S
C493 O494 1.252 . S
O494 Zn476 1.975 . S
O494 C493 1.252 . S
H495 C488 0.930 . S
H496 C489 0.930 . S
C497 C498 1.392 . S
C497 N501 1.328 . S
C497 H503 0.930 . S
C498 C497 1.392 . S
C498 N502 1.331 . S
C499 C500 1.391 . S
C499 N502 1.329 . S
C499 H509 0.930 . S
C500 C499 1.391 . S
C500 N501 1.334 . S
C500 H507 0.930 . S
N501 Zn485 2.119 . S
N501 C497 1.328 . S
N501 C500 1.334 . S
N502 C498 1.331 . S
N502 C499 1.329 . S
H503 C497 0.930 . S
C504 O484 1.257 . S
C504 O505 1.244 . S
O505 C504 1.244 . S
O506 C482 1.257 . S
O506 Zn485 2.019 . S
H507 C500 0.930 . S
H508 C487 0.930 . S
H509 C499 0.930 . S
Zn510 N514 2.020 . S
Zn510 O518 2.019 . S
Zn510 N520 2.119 . S
Zn510 O528 1.975 . S
C511 N512 1.334 . S
C511 N515 1.336 . S
N512 C511 1.334 . S
N512 C513 1.334 . S
C513 N512 1.334 . S
C513 N514 1.336 . S
N514 Zn510 2.020 . S
N514 C513 1.336 . S
N514 N515 1.354 . S
N515 C511 1.336 . S
N515 N514 1.354 . S
N515 Zn519 2.020 . S
C516 O517 1.244 . S
C516 O540 1.257 . S
O517 C516 1.244 . S
O518 Zn510 2.019 . S
O518 C538 1.257 . S
Zn519 N515 2.020 . S
Zn519 O526 1.975 . S
Zn519 N535 2.119 . S
Zn519 O540 2.019 . S
N520 Zn510 2.119 . S
N520 C522 1.334 . S
N520 C523 1.328 . S
C521 C522 1.391 . S
C521 N524 1.329 . S
C521 H542 0.930 . S
C522 N520 1.334 . S
C522 C521 1.391 . S
C522 H529 0.930 . S
C523 N520 1.328 . S
C523 C525 1.392 . S
C523 H530 0.930 . S
N524 C521 1.329 . S
N524 C525 1.331 . S
C525 C523 1.392 . S
C525 N524 1.331 . S
O526 Zn519 1.975 . S
O526 C527 1.252 . S
C527 O526 1.252 . S
C527 O528 1.252 . S
O528 Zn510 1.975 . S
O528 C527 1.252 . S
H529 C522 0.930 . S
H530 C523 0.930 . S
C531 C532 1.392 . S
C531 N535 1.328 . S
C531 H537 0.930 . S
C532 C531 1.392 . S
C532 N536 1.331 . S
C533 C534 1.391 . S
C533 N536 1.329 . S
C533 H543 0.930 . S
C534 C533 1.391 . S
C534 N535 1.334 . S
C534 H541 0.930 . S
N535 Zn519 2.119 . S
N535 C531 1.328 . S
N535 C534 1.334 . S
N536 C532 1.331 . S
N536 C533 1.329 . S
H537 C531 0.930 . S
C538 O518 1.257 . S
C538 O539 1.244 . S
O539 C538 1.244 . S
O540 C516 1.257 . S
O540 Zn519 2.019 . S
H541 C534 0.930 . S
H542 C521 0.930 . S
H543 C533 0.930 . S
H544 C550 0.930 . S
H545 C553 0.930 . S
H546 C554 0.930 . S
H547 C555 0.930 . S
H548 C558 0.930 . S
H549 C559 0.930 . S
C550 H544 0.930 . S
C550 C551 1.355 . S
C550 C552 1.415 . S
C551 C550 1.355 . S
C551 C553 1.419 . S
C552 C550 1.415 . S
C552 C557 1.425 . S
C552 C559 1.409 . S
C553 H545 0.930 . S
C553 C551 1.419 . S
C553 C554 1.362 . S
C554 H546 0.930 . S
C554 C553 1.362 . S
C554 C557 1.409 . S
C555 H547 0.930 . S
C555 C556 1.355 . S
C555 C557 1.415 . S
C556 C555 1.355 . S
C556 C558 1.419 . S
C557 C552 1.425 . S
C557 C554 1.409 . S
C557 C555 1.415 . S
C558 H548 0.930 . S
C558 C556 1.419 . S
C558 C559 1.362 . S
C559 H549 0.930 . S
C559 C552 1.409 . S
C559 C558 1.362 . S
H560 C566 0.930 . S
H561 C569 0.930 . S
H562 C570 0.930 . S
H563 C571 0.930 . S
H564 C574 0.930 . S
H565 C575 0.930 . S
C566 H560 0.930 . S
C566 C567 1.355 . S
C566 C568 1.415 . S
C567 C566 1.355 . S
C567 C569 1.419 . S
C568 C566 1.415 . S
C568 C573 1.425 . S
C568 C575 1.409 . S
C569 H561 0.930 . S
C569 C567 1.419 . S
C569 C570 1.362 . S
C570 H562 0.930 . S
C570 C569 1.362 . S
C570 C573 1.409 . S
C571 H563 0.930 . S
C571 C572 1.355 . S
C571 C573 1.415 . S
C572 C571 1.355 . S
C572 C574 1.419 . S
C573 C568 1.425 . S
C573 C570 1.409 . S
C573 C571 1.415 . S
C574 H564 0.930 . S
C574 C572 1.419 . S
C574 C575 1.362 . S
C575 H565 0.930 . S
C575 C568 1.409 . S
C575 C574 1.362 . S
H576 C582 0.930 . S
H577 C585 0.930 . S
H578 C586 0.930 . S
H579 C587 0.930 . S
H580 C590 0.930 . S
H581 C591 0.930 . S
C582 H576 0.930 . S
C582 C583 1.355 . S
C582 C584 1.415 . S
C583 C582 1.355 . S
C583 C585 1.419 . S
C584 C582 1.415 . S
C584 C589 1.425 . S
C584 C591 1.409 . S
C585 H577 0.930 . S
C585 C583 1.419 . S
C585 C586 1.362 . S
C586 H578 0.930 . S
C586 C585 1.362 . S
C586 C589 1.409 . S
C587 H579 0.930 . S
C587 C588 1.355 . S
C587 C589 1.415 . S
C588 C587 1.355 . S
C588 C590 1.419 . S
C589 C584 1.425 . S
C589 C586 1.409 . S
C589 C587 1.415 . S
C590 H580 0.930 . S
C590 C588 1.419 . S
C590 C591 1.362 . S
C591 H581 0.930 . S
C591 C584 1.409 . S
C591 C590 1.362 . S
H592 C598 0.930 . S
H593 C601 0.930 . S
H594 C602 0.930 . S
H595 C603 0.930 . S
H596 C606 0.930 1_655 S
H597 C607 0.930 . S
C598 H592 0.930 . S
C598 C599 1.355 . S
C598 C600 1.415 . S
C599 C598 1.355 . S
C599 C601 1.419 . S
C600 C598 1.415 . S
C600 C605 1.425 . S
C600 C607 1.409 . S
C601 H593 0.930 . S
C601 C599 1.419 . S
C601 C602 1.362 . S
C602 H594 0.930 . S
C602 C601 1.362 . S
C602 C605 1.409 . S
C603 H595 0.930 . S
C603 C604 1.355 . S
C603 C605 1.415 . S
C604 C603 1.355 . S
C604 C606 1.419 . S
C605 C600 1.425 . S
C605 C602 1.409 . S
C605 C603 1.415 . S
C606 H596 0.930 1_455 S
C606 C604 1.419 . S
C606 C607 1.362 . S
C607 H597 0.930 . S
C607 C600 1.409 . S
C607 C606 1.362 . S
H608 C614 0.930 . S
H609 C617 0.930 . S
H610 C618 0.930 . S
H611 C619 0.930 . S
H612 C622 0.930 . S
H613 C623 0.930 . S
C614 H608 0.930 . S
C614 C615 1.355 . S
C614 C616 1.415 . S
C615 C614 1.355 . S
C615 C617 1.419 . S
C616 C614 1.415 . S
C616 C621 1.425 . S
C616 C623 1.409 . S
C617 H609 0.930 . S
C617 C615 1.419 . S
C617 C618 1.362 . S
C618 H610 0.930 . S
C618 C617 1.362 . S
C618 C621 1.409 . S
C619 H611 0.930 . S
C619 C620 1.355 . S
C619 C621 1.415 . S
C620 C619 1.355 . S
C620 C622 1.419 . S
C621 C616 1.425 . S
C621 C618 1.409 . S
C621 C619 1.415 . S
C622 H612 0.930 . S
C622 C620 1.419 . S
C622 C623 1.362 . S
C623 H613 0.930 . S
C623 C616 1.409 . S
C623 C622 1.362 . S
H624 C630 0.930 . S
H625 C633 0.930 . S
H626 C634 0.930 . S
H627 C635 0.930 . S
H628 C638 0.930 . S
H629 C639 0.930 . S
C630 H624 0.930 . S
C630 C631 1.355 . S
C630 C632 1.415 . S
C631 C630 1.355 . S
C631 C633 1.419 . S
C632 C630 1.415 . S
C632 C637 1.425 . S
C632 C639 1.409 . S
C633 H625 0.930 . S
C633 C631 1.419 . S
C633 C634 1.362 . S
C634 H626 0.930 . S
C634 C633 1.362 . S
C634 C637 1.409 . S
C635 H627 0.930 . S
C635 C636 1.355 . S
C635 C637 1.415 . S
C636 C635 1.355 . S
C636 C638 1.419 . S
C637 C632 1.425 . S
C637 C634 1.409 . S
C637 C635 1.415 . S
C638 H628 0.930 . S
C638 C636 1.419 . S
C638 C639 1.362 . S
C639 H629 0.930 . S
C639 C632 1.409 . S
C639 C638 1.362 . S
H640 C646 0.930 . S
H641 C649 0.930 . S
H642 C650 0.930 . S
H643 C651 0.930 . S
H644 C654 0.930 . S
H645 C655 0.930 . S
C646 H640 0.930 . S
C646 C647 1.355 . S
C646 C648 1.415 . S
C647 C646 1.355 . S
C647 C649 1.419 . S
C648 C646 1.415 . S
C648 C653 1.425 . S
C648 C655 1.409 . S
C649 H641 0.930 . S
C649 C647 1.419 . S
C649 C650 1.362 . S
C650 H642 0.930 . S
C650 C649 1.362 . S
C650 C653 1.409 . S
C651 H643 0.930 . S
C651 C652 1.355 . S
C651 C653 1.415 . S
C652 C651 1.355 . S
C652 C654 1.419 . S
C653 C648 1.425 . S
C653 C650 1.409 . S
C653 C651 1.415 . S
C654 H644 0.930 . S
C654 C652 1.419 . S
C654 C655 1.362 . S
C655 H645 0.930 . S
C655 C648 1.409 . S
C655 C654 1.362 . S
H656 C662 0.930 . S
H657 C665 0.930 . S
H658 C666 0.930 . S
H659 C667 0.930 . S
H660 C670 0.930 . S
H661 C671 0.930 . S
C662 H656 0.930 . S
C662 C663 1.355 . S
C662 C664 1.415 . S
C663 C662 1.355 . S
C663 C665 1.419 . S
C664 C662 1.415 . S
C664 C669 1.425 . S
C664 C671 1.409 . S
C665 H657 0.930 . S
C665 C663 1.419 . S
C665 C666 1.362 . S
C666 H658 0.930 . S
C666 C665 1.362 . S
C666 C669 1.409 . S
C667 H659 0.930 . S
C667 C668 1.355 . S
C667 C669 1.415 . S
C668 C667 1.355 . S
C668 C670 1.419 . S
C669 C664 1.425 . S
C669 C666 1.409 . S
C669 C667 1.415 . S
C670 H660 0.930 . S
C670 C668 1.419 . S
C670 C671 1.362 . S
C671 H661 0.930 . S
C671 C664 1.409 . S
C671 C670 1.362 . S
H672 C678 0.930 . S
H673 C681 0.930 . S
H674 C682 0.930 . S
H675 C683 0.930 . S
H676 C686 0.930 . S
H677 C687 0.930 . S
C678 H672 0.930 . S
C678 C679 1.355 . S
C678 C680 1.415 . S
C679 C678 1.355 . S
C679 C681 1.419 . S
C680 C678 1.415 . S
C680 C685 1.425 . S
C680 C687 1.409 . S
C681 H673 0.930 . S
C681 C679 1.419 . S
C681 C682 1.362 . S
C682 H674 0.930 . S
C682 C681 1.362 . S
C682 C685 1.409 . S
C683 H675 0.930 . S
C683 C684 1.355 . S
C683 C685 1.415 . S
C684 C683 1.355 . S
C684 C686 1.419 . S
C685 C680 1.425 . S
C685 C682 1.409 . S
C685 C683 1.415 . S
C686 H676 0.930 . S
C686 C684 1.419 . S
C686 C687 1.362 . S
C687 H677 0.930 . S
C687 C680 1.409 . S
C687 C686 1.362 . S
H688 C694 0.930 . S
H689 C697 0.930 . S
H690 C698 0.930 . S
H691 C699 0.930 . S
H692 C702 0.930 . S
H693 C703 0.930 . S
C694 H688 0.930 . S
C694 C695 1.355 . S
C694 C696 1.415 . S
C695 C694 1.355 . S
C695 C697 1.419 1_545 S
C696 C694 1.415 . S
C696 C701 1.425 1_545 S
C696 C703 1.409 . S
C697 H689 0.930 . S
C697 C695 1.419 1_565 S
C697 C698 1.362 . S
C698 H690 0.930 . S
C698 C697 1.362 . S
C698 C701 1.409 . S
C699 H691 0.930 . S
C699 C700 1.355 . S
C699 C701 1.415 . S
C700 C699 1.355 . S
C700 C702 1.419 1_565 S
C701 C696 1.425 1_565 S
C701 C698 1.409 . S
C701 C699 1.415 . S
C702 H692 0.930 . S
C702 C700 1.419 1_545 S
C702 C703 1.362 . S
C703 H693 0.930 . S
C703 C696 1.409 . S
C703 C702 1.362 . S
H704 C710 0.930 . S
H705 C713 0.930 . S
H706 C714 0.930 . S
H707 C715 0.930 . S
H708 C718 0.930 . S
H709 C719 0.930 . S
C710 H704 0.930 . S
C710 C711 1.355 . S
C710 C712 1.415 . S
C711 C710 1.355 . S
C711 C713 1.419 . S
C712 C710 1.415 . S
C712 C717 1.425 . S
C712 C719 1.409 . S
C713 H705 0.930 . S
C713 C711 1.419 . S
C713 C714 1.362 . S
C714 H706 0.930 . S
C714 C713 1.362 . S
C714 C717 1.409 . S
C715 H707 0.930 . S
C715 C716 1.355 . S
C715 C717 1.415 . S
C716 C715 1.355 . S
C716 C718 1.419 . S
C717 C712 1.425 . S
C717 C714 1.409 . S
C717 C715 1.415 . S
C718 H708 0.930 . S
C718 C716 1.419 . S
C718 C719 1.362 . S
C719 H709 0.930 . S
C719 C712 1.409 . S
C719 C718 1.362 . S
H720 C726 0.930 . S
H721 C729 0.930 . S
H722 C730 0.930 . S
H723 C731 0.921 1_545 S
H724 C734 0.930 . S
H725 C735 0.930 . S
C726 H720 0.930 . S
C726 C727 1.355 1_565 S
C726 C728 1.415 . S
C727 C726 1.355 1_545 S
C727 C729 1.419 . S
C728 C726 1.415 . S
C728 C733 1.425 1_565 S
C728 C735 1.409 . S
C729 H721 0.930 . S
C729 C727 1.419 . S
C729 C730 1.362 . S
C730 H722 0.930 . S
C730 C729 1.362 . S
C730 C733 1.409 . S
C731 H723 0.921 1_565 S
C731 C732 1.365 . S
C731 C733 1.413 1_565 S
C732 C731 1.365 . S
C732 C734 1.419 . S
C733 C728 1.425 1_545 S
C733 C730 1.409 . S
C733 C731 1.413 1_545 S
C734 H724 0.930 . S
C734 C732 1.419 . S
C734 C735 1.362 . S
C735 H725 0.930 . S
C735 C728 1.409 . S
C735 C734 1.362 . S
H736 C742 0.930 . S
H737 C745 0.930 . S
H738 C746 0.930 . S
H739 C747 0.930 . S
H740 C750 0.930 . S
H741 C751 0.930 . S
C742 H736 0.930 . S
C742 C743 1.355 . S
C742 C744 1.415 . S
C743 C742 1.355 . S
C743 C745 1.419 . S
C744 C742 1.415 . S
C744 C749 1.425 . S
C744 C751 1.409 . S
C745 H737 0.930 . S
C745 C743 1.419 . S
C745 C746 1.362 . S
C746 H738 0.930 . S
C746 C745 1.362 . S
C746 C749 1.409 . S
C747 H739 0.930 . S
C747 C748 1.355 . S
C747 C749 1.415 . S
C748 C747 1.355 . S
C748 C750 1.419 . S
C749 C744 1.425 . S
C749 C746 1.409 . S
C749 C747 1.415 . S
C750 H740 0.930 . S
C750 C748 1.419 . S
C750 C751 1.362 . S
C751 H741 0.930 . S
C751 C744 1.409 . S
C751 C750 1.362 . S
H752 C758 0.930 1_545 S
H753 C761 0.930 . S
H754 C762 0.930 . S
H755 C763 0.930 . S
H756 C766 0.930 . S
H757 C767 0.930 . S
C758 H752 0.930 1_565 S
C758 C759 1.355 . S
C758 C760 1.415 1_565 S
C759 C758 1.355 . S
C759 C761 1.419 . S
C760 C758 1.415 1_545 S
C760 C765 1.425 1_545 S
C760 C767 1.409 . S
C761 H753 0.930 . S
C761 C759 1.419 . S
C761 C762 1.362 . S
C762 H754 0.930 . S
C762 C761 1.362 . S
C762 C765 1.409 . S
C763 H755 0.930 . S
C763 C764 1.355 1_565 S
C763 C765 1.415 . S
C764 C763 1.355 1_545 S
C764 C766 1.419 . S
C765 C760 1.425 1_565 S
C765 C762 1.409 . S
C765 C763 1.415 . S
C766 H756 0.930 . S
C766 C764 1.419 . S
C766 C767 1.362 . S
C767 H757 0.930 . S
C767 C760 1.409 . S
C767 C766 1.362 . S
H768 C774 0.930 . S
H769 C777 0.930 . S
H770 C778 0.930 . S
H771 C779 0.930 . S
H772 C782 0.930 . S
H773 C783 0.930 . S
C774 H768 0.930 . S
C774 C775 1.355 . S
C774 C776 1.415 . S
C775 C774 1.355 . S
C775 C777 1.419 . S
C776 C774 1.415 . S
C776 C781 1.425 . S
C776 C783 1.409 . S
C777 H769 0.930 . S
C777 C775 1.419 . S
C777 C778 1.362 . S
C778 H770 0.930 . S
C778 C777 1.362 . S
C778 C781 1.409 . S
C779 H771 0.930 . S
C779 C780 1.355 . S
C779 C781 1.415 . S
C780 C779 1.355 . S
C780 C782 1.419 . S
C781 C776 1.425 . S
C781 C778 1.409 . S
C781 C779 1.415 . S
C782 H772 0.930 . S
C782 C780 1.419 . S
C782 C783 1.362 . S
C783 H773 0.930 . S
C783 C776 1.409 . S
C783 C782 1.362 . S
H784 C790 0.930 . S
H785 C793 0.930 . S
H786 C794 0.930 . S
H787 C795 0.930 . S
H788 C798 0.935 . S
H789 C799 0.930 . S
C790 H784 0.930 . S
C790 C791 1.355 . S
C790 C792 1.415 . S
C791 C790 1.355 . S
C791 C793 1.419 1_565 S
C792 C790 1.415 . S
C792 C797 1.425 1_565 S
C792 C799 1.409 . S
C793 H785 0.930 . S
C793 C791 1.419 1_545 S
C793 C794 1.362 . S
C794 H786 0.930 . S
C794 C793 1.362 . S
C794 C797 1.409 . S
C795 H787 0.930 . S
C795 C796 1.355 . S
C795 C797 1.415 . S
C796 C795 1.355 . S
C796 C798 1.407 1_545 S
C797 C792 1.425 1_545 S
C797 C794 1.409 . S
C797 C795 1.415 . S
C798 H788 0.935 . S
C798 C796 1.407 1_565 S
C798 C799 1.370 . S
C799 H789 0.930 . S
C799 C792 1.409 . S
C799 C798 1.370 . S
H800 C806 0.930 . S
H801 C809 0.930 . S
H802 C810 0.930 . S
H803 C811 0.926 1_554 S
H804 C814 0.930 . S
H805 C815 0.930 . S
C806 H800 0.930 . S
C806 C807 1.355 . S
C806 C808 1.415 . S
C807 C806 1.355 . S
C807 C809 1.419 . S
C808 C806 1.415 . S
C808 C813 1.425 . S
C808 C815 1.409 . S
C809 H801 0.930 . S
C809 C807 1.419 . S
C809 C810 1.362 . S
C810 H802 0.930 . S
C810 C809 1.362 . S
C810 C813 1.409 . S
C811 H803 0.926 1_556 S
C811 C812 1.332 1_556 S
C811 C813 1.441 . S
C812 C811 1.332 1_554 S
C812 C814 1.419 . S
C813 C808 1.425 . S
C813 C810 1.409 . S
C813 C811 1.441 . S
C814 H804 0.930 . S
C814 C812 1.419 . S
C814 C815 1.362 1_554 S
C815 H805 0.930 . S
C815 C808 1.409 . S
C815 C814 1.362 1_556 S
H816 C822 0.930 . S
H817 C825 0.930 . S
H818 C826 0.930 . S
H819 C827 0.930 . S
H820 C830 0.930 . S
H821 C831 0.930 . S
C822 H816 0.930 . S
C822 C823 1.355 . S
C822 C824 1.415 . S
C823 C822 1.355 . S
C823 C825 1.419 . S
C824 C822 1.415 . S
C824 C829 1.425 . S
C824 C831 1.409 . S
C825 H817 0.930 . S
C825 C823 1.419 . S
C825 C826 1.362 . S
C826 H818 0.930 . S
C826 C825 1.362 . S
C826 C829 1.409 . S
C827 H819 0.930 . S
C827 C828 1.355 . S
C827 C829 1.415 . S
C828 C827 1.355 . S
C828 C830 1.419 . S
C829 C824 1.425 . S
C829 C826 1.409 . S
C829 C827 1.415 . S
C830 H820 0.930 . S
C830 C828 1.419 . S
C830 C831 1.362 . S
C831 H821 0.930 . S
C831 C824 1.409 . S
C831 C830 1.362 . S
H832 C838 0.930 . S
H833 C841 0.930 . S
H834 C842 0.930 . S
H835 C843 0.930 . S
H836 C846 0.930 . S
H837 C847 0.930 . S
C838 H832 0.930 . S
C838 C839 1.355 . S
C838 C840 1.415 . S
C839 C838 1.355 . S
C839 C841 1.419 . S
C840 C838 1.415 . S
C840 C845 1.425 . S
C840 C847 1.409 . S
C841 H833 0.930 . S
C841 C839 1.419 . S
C841 C842 1.362 . S
C842 H834 0.930 . S
C842 C841 1.362 . S
C842 C845 1.409 . S
C843 H835 0.930 . S
C843 C844 1.355 . S
C843 C845 1.415 . S
C844 C843 1.355 . S
C844 C846 1.419 . S
C845 C840 1.425 . S
C845 C842 1.409 . S
C845 C843 1.415 . S
C846 H836 0.930 . S
C846 C844 1.419 . S
C846 C847 1.362 . S
C847 H837 0.930 . S
C847 C840 1.409 . S
C847 C846 1.362 . S
H848 C854 0.930 . S
H849 C857 0.930 . S
H850 C858 0.930 . S
H851 C859 0.930 . S
H852 C862 0.930 . S
H853 C863 0.930 . S
C854 H848 0.930 . S
C854 C855 1.355 . S
C854 C856 1.415 . S
C855 C854 1.355 . S
C855 C857 1.419 . S
C856 C854 1.415 . S
C856 C861 1.425 . S
C856 C863 1.409 . S
C857 H849 0.930 . S
C857 C855 1.419 . S
C857 C858 1.362 . S
C858 H850 0.930 . S
C858 C857 1.362 . S
C858 C861 1.409 . S
C859 H851 0.930 . S
C859 C860 1.355 . S
C859 C861 1.415 . S
C860 C859 1.355 . S
C860 C862 1.419 . S
C861 C856 1.425 . S
C861 C858 1.409 . S
C861 C859 1.415 . S
C862 H852 0.930 . S
C862 C860 1.419 . S
C862 C863 1.362 . S
C863 H853 0.930 . S
C863 C856 1.409 . S
C863 C862 1.362 . S
H864 C870 0.930 . S
H865 C873 0.930 . S
H866 C874 0.930 . S
H867 C875 0.941 . S
H868 C878 0.930 . S
H869 C879 0.930 . S
C870 H864 0.930 . S
C870 C871 1.355 . S
C870 C872 1.415 . S
C871 C870 1.355 . S
C871 C873 1.419 . S
C872 C870 1.415 . S
C872 C877 1.425 . S
C872 C879 1.409 . S
C873 H865 0.930 . S
C873 C871 1.419 . S
C873 C874 1.362 . S
C874 H866 0.930 . S
C874 C873 1.362 . S
C874 C877 1.409 . S
C875 H867 0.941 . S
C875 C876 1.391 . S
C875 C877 1.368 1_556 S
C876 C875 1.391 . S
C876 C878 1.419 . S
C877 C872 1.425 . S
C877 C874 1.409 . S
C877 C875 1.368 1_554 S
C878 H868 0.930 . S
C878 C876 1.419 . S
C878 C879 1.362 1_556 S
C879 H869 0.930 . S
C879 C872 1.409 . S
C879 C878 1.362 1_554 S
H880 C886 0.930 . S
H881 C889 0.930 . S
H882 C890 0.930 . S
H883 C891 0.930 . S
H884 C894 0.930 . S
H885 C895 0.930 . S
C886 H880 0.930 . S
C886 C887 1.355 . S
C886 C888 1.415 . S
C887 C886 1.355 . S
C887 C889 1.419 . S
C888 C886 1.415 . S
C888 C893 1.425 . S
C888 C895 1.409 . S
C889 H881 0.930 . S
C889 C887 1.419 . S
C889 C890 1.362 . S
C890 H882 0.930 . S
C890 C889 1.362 . S
C890 C893 1.409 . S
C891 H883 0.930 . S
C891 C892 1.355 . S
C891 C893 1.415 . S
C892 C891 1.355 . S
C892 C894 1.419 . S
C893 C888 1.425 . S
C893 C890 1.409 . S
C893 C891 1.415 . S
C894 H884 0.930 . S
C894 C892 1.419 . S
C894 C895 1.362 . S
C895 H885 0.930 . S
C895 C888 1.409 . S
C895 C894 1.362 . S
H896 C902 0.930 . S
H897 C905 0.930 . S
H898 C906 0.930 . S
H899 C907 0.930 . S
H900 C910 0.930 . S
H901 C911 0.930 . S
C902 H896 0.930 . S
C902 C903 1.355 . S
C902 C904 1.415 . S
C903 C902 1.355 . S
C903 C905 1.419 . S
C904 C902 1.415 . S
C904 C909 1.425 . S
C904 C911 1.409 . S
C905 H897 0.930 . S
C905 C903 1.419 . S
C905 C906 1.362 . S
C906 H898 0.930 . S
C906 C905 1.362 . S
C906 C909 1.409 . S
C907 H899 0.930 . S
C907 C908 1.355 . S
C907 C909 1.415 . S
C908 C907 1.355 . S
C908 C910 1.419 . S
C909 C904 1.425 . S
C909 C906 1.409 . S
C909 C907 1.415 . S
C910 H900 0.930 . S
C910 C908 1.419 . S
C910 C911 1.362 . S
C911 H901 0.930 . S
C911 C904 1.409 . S
C911 C910 1.362 . S
H912 C918 0.930 . S
H913 C921 0.930 . S
H914 C922 0.930 . S
H915 C923 0.930 . S
H916 C926 0.930 . S
H917 C927 0.930 . S
C918 H912 0.930 . S
C918 C919 1.355 . S
C918 C920 1.415 . S
C919 C918 1.355 . S
C919 C921 1.419 . S
C920 C918 1.415 . S
C920 C925 1.425 . S
C920 C927 1.409 . S
C921 H913 0.930 . S
C921 C919 1.419 . S
C921 C922 1.362 . S
C922 H914 0.930 . S
C922 C921 1.362 . S
C922 C925 1.409 . S
C923 H915 0.930 . S
C923 C924 1.355 . S
C923 C925 1.415 . S
C924 C923 1.355 . S
C924 C926 1.419 . S
C925 C920 1.425 . S
C925 C922 1.409 . S
C925 C923 1.415 . S
C926 H916 0.930 . S
C926 C924 1.419 . S
C926 C927 1.362 . S
C927 H917 0.930 . S
C927 C920 1.409 . S
C927 C926 1.362 . S
H928 C934 0.930 . S
H929 C937 0.930 . S
H930 C938 0.930 . S
H931 C939 0.930 . S
H932 C942 0.930 . S
H933 C943 0.930 . S
C934 H928 0.930 . S
C934 C935 1.355 . S
C934 C936 1.415 . S
C935 C934 1.355 . S
C935 C937 1.419 . S
C936 C934 1.415 . S
C936 C941 1.425 . S
C936 C943 1.409 . S
C937 H929 0.930 . S
C937 C935 1.419 . S
C937 C938 1.362 . S
C938 H930 0.930 . S
C938 C937 1.362 . S
C938 C941 1.409 . S
C939 H931 0.930 . S
C939 C940 1.355 . S
C939 C941 1.415 . S
C940 C939 1.355 . S
C940 C942 1.419 . S
C941 C936 1.425 . S
C941 C938 1.409 . S
C941 C939 1.415 . S
C942 H932 0.930 . S
C942 C940 1.419 . S
C942 C943 1.362 . S
C943 H933 0.930 . S
C943 C936 1.409 . S
C943 C942 1.362 . S
H944 C950 0.930 1_565 S
H945 C953 0.930 . S
H946 C954 0.930 . S
H947 C955 0.930 . S
H948 C958 0.930 . S
H949 C959 0.930 . S
C950 H944 0.930 1_545 S
C950 C951 1.355 . S
C950 C952 1.415 . S
C951 C950 1.355 . S
C951 C953 1.419 . S
C952 C950 1.415 . S
C952 C957 1.425 . S
C952 C959 1.409 . S
C953 H945 0.930 . S
C953 C951 1.419 . S
C953 C954 1.362 . S
C954 H946 0.930 . S
C954 C953 1.362 . S
C954 C957 1.409 . S
C955 H947 0.930 . S
C955 C956 1.355 . S
C955 C957 1.415 . S
C956 C955 1.355 . S
C956 C958 1.419 . S
C957 C952 1.425 . S
C957 C954 1.409 . S
C957 C955 1.415 . S
C958 H948 0.930 . S
C958 C956 1.419 . S
C958 C959 1.362 . S
C959 H949 0.930 . S
C959 C952 1.409 . S
C959 C958 1.362 . S
H960 C966 0.930 . S
H961 C969 0.930 . S
H962 C970 0.930 . S
H963 C971 0.930 . S
H964 C974 0.930 . S
H965 C975 0.930 . S
C966 H960 0.930 . S
C966 C967 1.355 . S
C966 C968 1.415 . S
C967 C966 1.355 . S
C967 C969 1.419 . S
C968 C966 1.415 . S
C968 C973 1.425 . S
C968 C975 1.409 . S
C969 H961 0.930 . S
C969 C967 1.419 . S
C969 C970 1.362 . S
C970 H962 0.930 . S
C970 C969 1.362 . S
C970 C973 1.409 . S
C971 H963 0.930 . S
C971 C972 1.355 . S
C971 C973 1.415 1_554 S
C972 C971 1.355 . S
C972 C974 1.419 . S
C973 C968 1.425 . S
C973 C970 1.409 . S
C973 C971 1.415 1_556 S
C974 H964 0.930 . S
C974 C972 1.419 . S
C974 C975 1.362 1_554 S
C975 H965 0.930 . S
C975 C968 1.409 . S
C975 C974 1.362 1_556 S
H976 C982 0.930 . S
H977 C985 0.930 . S
H978 C986 0.930 . S
H979 C987 0.930 . S
H980 C990 0.930 . S
H981 C991 0.930 . S
C982 H976 0.930 . S
C982 C983 1.355 1_545 S
C982 C984 1.422 . S
C983 C982 1.355 1_565 S
C983 C985 1.419 . S
C984 C982 1.422 . S
C984 C989 1.408 1_545 S
C984 C991 1.419 . S
C985 H977 0.930 . S
C985 C983 1.419 . S
C985 C986 1.362 . S
C986 H978 0.930 . S
C986 C985 1.362 . S
C986 C989 1.409 . S
C987 H979 0.930 . S
C987 C988 1.355 . S
C987 C989 1.415 . S
C988 C987 1.355 . S
C988 C990 1.419 1_565 S
C989 C984 1.408 1_565 S
C989 C986 1.409 . S
C989 C987 1.415 . S
C990 H980 0.930 . S
C990 C988 1.419 1_545 S
C990 C991 1.362 . S
C991 H981 0.930 . S
C991 C984 1.419 . S
C991 C990 1.362 . S
H992 C998 0.930 . S
H993 C1001 0.930 . S
H994 C1002 0.930 . S
H995 C1003 0.930 . S
H996 C1006 0.930 . S
H997 C1007 0.930 . S
C998 H992 0.930 . S
C998 C999 1.355 . S
C998 C1000 1.415 . S
C999 C998 1.355 . S
C999 C1001 1.419 . S
C1000 C998 1.415 . S
C1000 C1005 1.425 . S
C1000 C1007 1.409 . S
C1001 H993 0.930 . S
C1001 C999 1.419 . S
C1001 C1002 1.362 . S
C1002 H994 0.930 . S
C1002 C1001 1.362 . S
C1002 C1005 1.409 . S
C1003 H995 0.930 . S
C1003 C1004 1.355 . S
C1003 C1005 1.415 . S
C1004 C1003 1.355 . S
C1004 C1006 1.419 . S
C1005 C1000 1.425 . S
C1005 C1002 1.409 . S
C1005 C1003 1.415 . S
C1006 H996 0.930 . S
C1006 C1004 1.419 . S
C1006 C1007 1.362 . S
C1007 H997 0.930 . S
C1007 C1000 1.409 . S
C1007 C1006 1.362 . S
H1008 C1014 0.924 1_545 S
H1009 C1017 0.930 . S
H1010 C1018 0.930 . S
H1011 C1019 0.930 . S
H1012 C1022 0.930 . S
H1013 C1023 0.930 1_545 S
C1014 H1008 0.924 1_565 S
C1014 C1015 1.357 . S
C1014 C1016 1.418 . S
C1015 C1014 1.357 . S
C1015 C1017 1.419 . S
C1016 C1014 1.418 . S
C1016 C1021 1.425 . S
C1016 C1023 1.409 . S
C1017 H1009 0.930 . S
C1017 C1015 1.419 . S
C1017 C1018 1.362 . S
C1018 H1010 0.930 . S
C1018 C1017 1.362 . S
C1018 C1021 1.409 . S
C1019 H1011 0.930 . S
C1019 C1020 1.355 . S
C1019 C1021 1.415 . S
C1020 C1019 1.355 . S
C1020 C1022 1.419 . S
C1021 C1016 1.425 . S
C1021 C1018 1.409 . S
C1021 C1019 1.415 . S
C1022 H1012 0.930 . S
C1022 C1020 1.419 . S
C1022 C1023 1.362 . S
C1023 H1013 0.930 1_565 S
C1023 C1016 1.409 . S
C1023 C1022 1.362 . S
H1024 C1030 0.930 . S
H1025 C1033 0.930 . S
H1026 C1034 0.930 . S
H1027 C1035 0.924 1_556 S
H1028 C1038 0.930 . S
H1029 C1039 0.930 . S
C1030 H1024 0.930 . S
C1030 C1031 1.355 . S
C1030 C1032 1.415 . S
C1031 C1030 1.355 . S
C1031 C1033 1.419 . S
C1032 C1030 1.415 . S
C1032 C1037 1.425 . S
C1032 C1039 1.409 . S
C1033 H1025 0.930 . S
C1033 C1031 1.419 . S
C1033 C1034 1.362 . S
C1034 H1026 0.930 . S
C1034 C1033 1.362 . S
C1034 C1037 1.409 . S
C1035 H1027 0.924 1_554 S
C1035 C1036 1.320 1_554 S
C1035 C1037 1.455 . S
C1036 C1035 1.320 1_556 S
C1036 C1038 1.419 . S
C1037 C1032 1.425 . S
C1037 C1034 1.409 . S
C1037 C1035 1.455 . S
C1038 H1028 0.930 . S
C1038 C1036 1.419 . S
C1038 C1039 1.362 1_556 S
C1039 H1029 0.930 . S
C1039 C1032 1.409 . S
C1039 C1038 1.362 1_554 S
H1040 C1046 0.930 . S
H1041 C1049 0.930 . S
H1042 C1050 0.930 . S
H1043 C1051 0.927 1_565 S
H1044 C1054 0.930 . S
H1045 C1055 0.930 . S
C1046 H1040 0.930 . S
C1046 C1047 1.355 . S
C1046 C1048 1.415 . S
C1047 C1046 1.355 . S
C1047 C1049 1.419 . S
C1048 C1046 1.415 . S
C1048 C1053 1.425 . S
C1048 C1055 1.409 . S
C1049 H1041 0.930 . S
C1049 C1047 1.419 . S
C1049 C1050 1.362 . S
C1050 H1042 0.930 . S
C1050 C1049 1.362 . S
C1050 C1053 1.409 . S
C1051 H1043 0.927 1_545 S
C1051 C1052 1.355 . S
C1051 C1053 1.417 . S
C1052 C1051 1.355 . S
C1052 C1054 1.419 . S
C1053 C1048 1.425 . S
C1053 C1050 1.409 . S
C1053 C1051 1.417 . S
C1054 H1044 0.930 . S
C1054 C1052 1.419 . S
C1054 C1055 1.362 . S
C1055 H1045 0.930 . S
C1055 C1048 1.409 . S
C1055 C1054 1.362 . S
H1056 C1062 0.930 . S
H1057 C1065 0.930 . S
H1058 C1066 0.930 . S
H1059 C1067 0.930 . S
H1060 C1070 0.930 . S
H1061 C1071 0.930 . S
C1062 H1056 0.930 . S
C1062 C1063 1.355 1_545 S
C1062 C1064 1.415 . S
C1063 C1062 1.355 1_565 S
C1063 C1065 1.419 . S
C1064 C1062 1.415 . S
C1064 C1069 1.425 1_546 S
C1064 C1071 1.409 . S
C1065 H1057 0.930 . S
C1065 C1063 1.419 . S
C1065 C1066 1.362 1_556 S
C1066 H1058 0.930 . S
C1066 C1065 1.362 1_554 S
C1066 C1069 1.409 . S
C1067 H1059 0.930 . S
C1067 C1068 1.355 1_565 S
C1067 C1069 1.415 . S
C1068 C1067 1.355 1_545 S
C1068 C1070 1.419 . S
C1069 C1064 1.425 1_564 S
C1069 C1066 1.409 . S
C1069 C1067 1.415 . S
C1070 H1060 0.930 . S
C1070 C1068 1.419 . S
C1070 C1071 1.362 1_554 S
C1071 H1061 0.930 . S
C1071 C1064 1.409 . S
C1071 C1070 1.362 1_556 S
H1072 C1078 0.930 . S
H1073 C1081 0.930 . S
H1074 C1082 0.930 . S
H1075 C1083 0.930 . S
H1076 C1086 0.930 . S
H1077 C1087 0.930 . S
C1078 H1072 0.930 . S
C1078 C1079 1.355 . S
C1078 C1080 1.415 . S
C1079 C1078 1.355 . S
C1079 C1081 1.419 . S
C1080 C1078 1.415 . S
C1080 C1085 1.425 . S
C1080 C1087 1.409 . S
C1081 H1073 0.930 . S
C1081 C1079 1.419 . S
C1081 C1082 1.362 . S
C1082 H1074 0.930 . S
C1082 C1081 1.362 . S
C1082 C1085 1.409 . S
C1083 H1075 0.930 . S
C1083 C1084 1.355 . S
C1083 C1085 1.415 . S
C1084 C1083 1.355 . S
C1084 C1086 1.419 . S
C1085 C1080 1.425 . S
C1085 C1082 1.409 . S
C1085 C1083 1.415 . S
C1086 H1076 0.930 . S
C1086 C1084 1.419 . S
C1086 C1087 1.362 . S
C1087 H1077 0.930 . S
C1087 C1080 1.409 . S
C1087 C1086 1.362 . S
H1088 C1094 0.930 . S
H1089 C1097 0.930 . S
H1090 C1098 0.930 . S
H1091 C1099 0.930 . S
H1092 C1102 0.930 . S
H1093 C1103 0.930 . S
C1094 H1088 0.930 . S
C1094 C1095 1.355 1_565 S
C1094 C1096 1.415 . S
C1095 C1094 1.355 1_545 S
C1095 C1097 1.419 . S
C1096 C1094 1.415 . S
C1096 C1101 1.425 1_665 S
C1096 C1103 1.409 . S
C1097 H1089 0.930 . S
C1097 C1095 1.419 . S
C1097 C1098 1.362 1_655 S
C1098 H1090 0.930 . S
C1098 C1097 1.362 1_455 S
C1098 C1101 1.409 . S
C1099 H1091 0.930 . S
C1099 C1100 1.355 1_545 S
C1099 C1101 1.415 . S
C1100 C1099 1.355 1_565 S
C1100 C1102 1.419 . S
C1101 C1096 1.425 1_445 S
C1101 C1098 1.409 . S
C1101 C1099 1.415 . S
C1102 H1092 0.930 . S
C1102 C1100 1.419 . S
C1102 C1103 1.362 1_455 S
C1103 H1093 0.930 . S
C1103 C1096 1.409 . S
C1103 C1102 1.362 1_655 S
H1104 C1110 0.930 . S
H1105 C1113 0.930 . S
H1106 C1114 0.930 . S
H1107 C1115 0.930 . S
H1108 C1118 0.930 . S
H1109 C1119 0.930 . S
C1110 H1104 0.930 . S
C1110 C1111 1.355 . S
C1110 C1112 1.415 . S
C1111 C1110 1.355 . S
C1111 C1113 1.419 . S
C1112 C1110 1.415 . S
C1112 C1117 1.425 . S
C1112 C1119 1.409 . S
C1113 H1105 0.930 . S
C1113 C1111 1.419 . S
C1113 C1114 1.362 . S
C1114 H1106 0.930 . S
C1114 C1113 1.362 . S
C1114 C1117 1.409 . S
C1115 H1107 0.930 . S
C1115 C1116 1.355 . S
C1115 C1117 1.415 . S
C1116 C1115 1.355 . S
C1116 C1118 1.419 . S
C1117 C1112 1.425 . S
C1117 C1114 1.409 . S
C1117 C1115 1.415 . S
C1118 H1108 0.930 . S
C1118 C1116 1.419 . S
C1118 C1119 1.362 . S
C1119 H1109 0.930 . S
C1119 C1112 1.409 . S
C1119 C1118 1.362 . S
H1120 C1126 0.930 . S
H1121 C1129 0.930 . S
H1122 C1130 0.930 . S
H1123 C1131 0.930 . S
H1124 C1134 0.930 . S
H1125 C1135 0.930 . S
C1126 H1120 0.930 . S
C1126 C1127 1.355 . S
C1126 C1128 1.415 . S
C1127 C1126 1.355 . S
C1127 C1129 1.419 . S
C1128 C1126 1.415 . S
C1128 C1133 1.425 . S
C1128 C1135 1.409 . S
C1129 H1121 0.930 . S
C1129 C1127 1.419 . S
C1129 C1130 1.362 . S
C1130 H1122 0.930 . S
C1130 C1129 1.362 . S
C1130 C1133 1.409 . S
C1131 H1123 0.930 . S
C1131 C1132 1.355 . S
C1131 C1133 1.415 . S
C1132 C1131 1.355 . S
C1132 C1134 1.419 . S
C1133 C1128 1.425 . S
C1133 C1130 1.409 . S
C1133 C1131 1.415 . S
C1134 H1124 0.930 . S
C1134 C1132 1.419 . S
C1134 C1135 1.362 . S
C1135 H1125 0.930 . S
C1135 C1128 1.409 . S
C1135 C1134 1.362 . S
H1136 C1142 0.930 . S
H1137 C1145 0.930 . S
H1138 C1146 0.930 . S
H1139 C1147 0.930 . S
H1140 C1150 0.930 . S
H1141 C1151 0.930 . S
C1142 H1136 0.930 . S
C1142 C1143 1.355 . S
C1142 C1144 1.415 . S
C1143 C1142 1.355 . S
C1143 C1145 1.419 . S
C1144 C1142 1.415 . S
C1144 C1149 1.425 . S
C1144 C1151 1.409 . S
C1145 H1137 0.930 . S
C1145 C1143 1.419 . S
C1145 C1146 1.362 . S
C1146 H1138 0.930 . S
C1146 C1145 1.362 . S
C1146 C1149 1.409 . S
C1147 H1139 0.930 . S
C1147 C1148 1.355 . S
C1147 C1149 1.415 . S
C1148 C1147 1.355 . S
C1148 C1150 1.419 . S
C1149 C1144 1.425 . S
C1149 C1146 1.409 . S
C1149 C1147 1.415 . S
C1150 H1140 0.930 . S
C1150 C1148 1.419 . S
C1150 C1151 1.362 . S
C1151 H1141 0.930 . S
C1151 C1144 1.409 . S
C1151 C1150 1.362 . S
H1152 C1158 0.930 . S
H1153 C1161 0.930 . S
H1154 C1162 0.930 . S
H1155 C1163 0.930 . S
H1156 C1166 0.930 . S
H1157 C1167 0.930 . S
C1158 H1152 0.930 . S
C1158 C1159 1.355 . S
C1158 C1160 1.415 . S
C1159 C1158 1.355 . S
C1159 C1161 1.419 1_655 S
C1160 C1158 1.415 . S
C1160 C1165 1.425 1_655 S
C1160 C1167 1.409 . S
C1161 H1153 0.930 . S
C1161 C1159 1.419 1_455 S
C1161 C1162 1.362 . S
C1162 H1154 0.930 . S
C1162 C1161 1.362 . S
C1162 C1165 1.409 . S
C1163 H1155 0.930 . S
C1163 C1164 1.355 . S
C1163 C1165 1.415 . S
C1164 C1163 1.355 . S
C1164 C1166 1.419 1_455 S
C1165 C1160 1.425 1_455 S
C1165 C1162 1.409 . S
C1165 C1163 1.415 . S
C1166 H1156 0.930 . S
C1166 C1164 1.419 1_655 S
C1166 C1167 1.362 . S
C1167 H1157 0.930 . S
C1167 C1160 1.409 . S
C1167 C1166 1.362 . S
H1168 C1174 0.930 . S
H1169 C1177 0.930 . S
H1170 C1178 0.930 . S
H1171 C1179 0.930 . S
H1172 C1182 0.930 . S
H1173 C1183 0.930 . S
C1174 H1168 0.930 . S
C1174 C1175 1.355 . S
C1174 C1176 1.415 1_554 S
C1175 C1174 1.355 . S
C1175 C1177 1.419 . S
C1176 C1174 1.415 1_556 S
C1176 C1181 1.425 1_556 S
C1176 C1183 1.409 . S
C1177 H1169 0.930 . S
C1177 C1175 1.419 . S
C1177 C1178 1.362 . S
C1178 H1170 0.930 . S
C1178 C1177 1.362 . S
C1178 C1181 1.409 . S
C1179 H1171 0.930 . S
C1179 C1180 1.355 . S
C1179 C1181 1.415 1_556 S
C1180 C1179 1.355 . S
C1180 C1182 1.419 . S
C1181 C1176 1.425 1_554 S
C1181 C1178 1.409 . S
C1181 C1179 1.415 1_554 S
C1182 H1172 0.930 . S
C1182 C1180 1.419 . S
C1182 C1183 1.362 . S
C1183 H1173 0.930 . S
C1183 C1176 1.409 . S
C1183 C1182 1.362 . S
H1184 C1190 0.930 . S
H1185 C1193 0.930 . S
H1186 C1194 0.930 . S
H1187 C1195 0.930 . S
H1188 C1198 0.930 . S
H1189 C1199 0.930 . S
C1190 H1184 0.930 . S
C1190 C1191 1.355 . S
C1190 C1192 1.415 . S
C1191 C1190 1.355 . S
C1191 C1193 1.419 . S
C1192 C1190 1.415 . S
C1192 C1197 1.425 . S
C1192 C1199 1.409 . S
C1193 H1185 0.930 . S
C1193 C1191 1.419 . S
C1193 C1194 1.362 . S
C1194 H1186 0.930 . S
C1194 C1193 1.362 . S
C1194 C1197 1.409 . S
C1195 H1187 0.930 . S
C1195 C1196 1.355 . S
C1195 C1197 1.415 . S
C1196 C1195 1.355 . S
C1196 C1198 1.419 . S
C1197 C1192 1.425 . S
C1197 C1194 1.409 . S
C1197 C1195 1.415 . S
C1198 H1188 0.930 . S
C1198 C1196 1.419 . S
C1198 C1199 1.362 . S
C1199 H1189 0.930 . S
C1199 C1192 1.409 . S
C1199 C1198 1.362 . S
H1200 C1206 0.930 . S
H1201 C1209 0.930 . S
H1202 C1210 0.930 . S
H1203 C1211 0.930 . S
H1204 C1214 0.930 . S
H1205 C1215 0.930 . S
C1206 H1200 0.930 . S
C1206 C1207 1.355 . S
C1206 C1208 1.415 1_455 S
C1207 C1206 1.355 . S
C1207 C1209 1.419 . S
C1208 C1206 1.415 1_655 S
C1208 C1213 1.425 . S
C1208 C1215 1.409 . S
C1209 H1201 0.930 . S
C1209 C1207 1.419 . S
C1209 C1210 1.362 . S
C1210 H1202 0.930 . S
C1210 C1209 1.362 . S
C1210 C1213 1.409 1_455 S
C1211 H1203 0.930 . S
C1211 C1212 1.355 . S
C1211 C1213 1.415 . S
C1212 C1211 1.355 . S
C1212 C1214 1.419 . S
C1213 C1208 1.425 . S
C1213 C1210 1.409 1_655 S
C1213 C1211 1.415 . S
C1214 H1204 0.930 . S
C1214 C1212 1.419 . S
C1214 C1215 1.362 . S
C1215 H1205 0.930 . S
C1215 C1208 1.409 . S
C1215 C1214 1.362 . S
H1216 C1222 0.930 . S
H1217 C1225 0.930 . S
H1218 C1226 0.930 . S
H1219 C1227 0.930 . S
H1220 C1230 0.930 . S
H1221 C1231 0.930 . S
C1222 H1216 0.930 . S
C1222 C1223 1.355 . S
C1222 C1224 1.415 . S
C1223 C1222 1.355 . S
C1223 C1225 1.419 . S
C1224 C1222 1.415 . S
C1224 C1229 1.425 . S
C1224 C1231 1.409 . S
C1225 H1217 0.930 . S
C1225 C1223 1.419 . S
C1225 C1226 1.362 . S
C1226 H1218 0.930 . S
C1226 C1225 1.362 . S
C1226 C1229 1.409 . S
C1227 H1219 0.930 . S
C1227 C1228 1.355 . S
C1227 C1229 1.415 . S
C1228 C1227 1.355 . S
C1228 C1230 1.419 . S
C1229 C1224 1.425 . S
C1229 C1226 1.409 . S
C1229 C1227 1.415 . S
C1230 H1220 0.930 . S
C1230 C1228 1.419 . S
C1230 C1231 1.362 . S
C1231 H1221 0.930 . S
C1231 C1224 1.409 . S
C1231 C1230 1.362 . S
H1232 C1238 0.930 . S
H1233 C1241 0.930 . S
H1234 C1242 0.930 . S
H1235 C1243 0.930 . S
H1236 C1246 0.930 . S
H1237 C1247 0.930 . S
C1238 H1232 0.930 . S
C1238 C1239 1.355 . S
C1238 C1240 1.415 . S
C1239 C1238 1.355 . S
C1239 C1241 1.419 . S
C1240 C1238 1.415 . S
C1240 C1245 1.425 . S
C1240 C1247 1.409 . S
C1241 H1233 0.930 . S
C1241 C1239 1.419 . S
C1241 C1242 1.362 . S
C1242 H1234 0.930 . S
C1242 C1241 1.362 . S
C1242 C1245 1.409 . S
C1243 H1235 0.930 . S
C1243 C1244 1.355 . S
C1243 C1245 1.415 . S
C1244 C1243 1.355 . S
C1244 C1246 1.419 . S
C1245 C1240 1.425 . S
C1245 C1242 1.409 . S
C1245 C1243 1.415 . S
C1246 H1236 0.930 . S
C1246 C1244 1.419 . S
C1246 C1247 1.362 . S
C1247 H1237 0.930 . S
C1247 C1240 1.409 . S
C1247 C1246 1.362 . S
H1248 C1254 0.930 . S
H1249 C1257 0.930 . S
H1250 C1258 0.930 . S
H1251 C1259 0.930 . S
H1252 C1262 0.930 . S
H1253 C1263 0.930 . S
C1254 H1248 0.930 . S
C1254 C1255 1.355 . S
C1254 C1256 1.415 . S
C1255 C1254 1.355 . S
C1255 C1257 1.419 . S
C1256 C1254 1.415 . S
C1256 C1261 1.425 . S
C1256 C1263 1.409 . S
C1257 H1249 0.930 . S
C1257 C1255 1.419 . S
C1257 C1258 1.362 . S
C1258 H1250 0.930 . S
C1258 C1257 1.362 . S
C1258 C1261 1.409 . S
C1259 H1251 0.930 . S
C1259 C1260 1.355 . S
C1259 C1261 1.415 . S
C1260 C1259 1.355 . S
C1260 C1262 1.419 . S
C1261 C1256 1.425 . S
C1261 C1258 1.409 . S
C1261 C1259 1.415 . S
C1262 H1252 0.930 . S
C1262 C1260 1.419 . S
C1262 C1263 1.362 . S
C1263 H1253 0.930 . S
C1263 C1256 1.409 . S
C1263 C1262 1.362 . S
H1264 C1270 0.930 . S
H1265 C1273 0.930 . S
H1266 C1274 0.930 1_655 S
H1267 C1275 0.930 . S
H1268 C1278 0.930 . S
H1269 C1279 0.930 . S
C1270 H1264 0.930 . S
C1270 C1271 1.355 . S
C1270 C1272 1.415 . S
C1271 C1270 1.355 . S
C1271 C1273 1.419 . S
C1272 C1270 1.415 . S
C1272 C1277 1.425 1_455 S
C1272 C1279 1.409 . S
C1273 H1265 0.930 . S
C1273 C1271 1.419 . S
C1273 C1274 1.362 . S
C1274 H1266 0.930 1_455 S
C1274 C1273 1.362 . S
C1274 C1277 1.409 1_455 S
C1275 H1267 0.930 . S
C1275 C1276 1.355 . S
C1275 C1277 1.415 . S
C1276 C1275 1.355 . S
C1276 C1278 1.419 . S
C1277 C1272 1.425 1_655 S
C1277 C1274 1.409 1_655 S
C1277 C1275 1.415 . S
C1278 H1268 0.930 . S
C1278 C1276 1.419 . S
C1278 C1279 1.362 1_655 S
C1279 H1269 0.930 . S
C1279 C1272 1.409 . S
C1279 C1278 1.362 1_455 S
H1280 C1286 0.930 . S
H1281 C1289 0.930 . S
H1282 C1290 0.930 . S
H1283 C1291 0.930 . S
H1284 C1294 0.930 . S
H1285 C1295 0.930 . S
C1286 H1280 0.930 . S
C1286 C1287 1.355 . S
C1286 C1288 1.415 . S
C1287 C1286 1.355 . S
C1287 C1289 1.419 . S
C1288 C1286 1.415 . S
C1288 C1293 1.425 . S
C1288 C1295 1.409 . S
C1289 H1281 0.930 . S
C1289 C1287 1.419 . S
C1289 C1290 1.362 . S
C1290 H1282 0.930 . S
C1290 C1289 1.362 . S
C1290 C1293 1.409 . S
C1291 H1283 0.930 . S
C1291 C1292 1.355 . S
C1291 C1293 1.415 . S
C1292 C1291 1.355 . S
C1292 C1294 1.419 . S
C1293 C1288 1.425 . S
C1293 C1290 1.409 . S
C1293 C1291 1.415 . S
C1294 H1284 0.930 . S
C1294 C1292 1.419 . S
C1294 C1295 1.362 . S
C1295 H1285 0.930 . S
C1295 C1288 1.409 . S
C1295 C1294 1.362 . S
H1296 C1302 0.930 . S
H1297 C1305 0.930 . S
H1298 C1306 0.930 . S
H1299 C1307 0.930 . S
H1300 C1310 0.930 . S
H1301 C1311 0.930 . S
C1302 H1296 0.930 . S
C1302 C1303 1.355 . S
C1302 C1304 1.415 . S
C1303 C1302 1.355 . S
C1303 C1305 1.419 . S
C1304 C1302 1.415 . S
C1304 C1309 1.425 . S
C1304 C1311 1.409 . S
C1305 H1297 0.930 . S
C1305 C1303 1.419 . S
C1305 C1306 1.362 . S
C1306 H1298 0.930 . S
C1306 C1305 1.362 . S
C1306 C1309 1.409 . S
C1307 H1299 0.930 . S
C1307 C1308 1.355 . S
C1307 C1309 1.415 . S
C1308 C1307 1.355 . S
C1308 C1310 1.419 . S
C1309 C1304 1.425 . S
C1309 C1306 1.409 . S
C1309 C1307 1.415 . S
C1310 H1300 0.930 . S
C1310 C1308 1.419 . S
C1310 C1311 1.362 . S
C1311 H1301 0.930 . S
C1311 C1304 1.409 . S
C1311 C1310 1.362 . S
H1312 C1318 0.930 . S
H1313 C1321 0.930 . S
H1314 C1322 0.930 . S
H1315 C1323 0.930 . S
H1316 C1326 0.930 . S
H1317 C1327 0.930 . S
C1318 H1312 0.930 . S
C1318 C1319 1.355 . S
C1318 C1320 1.415 . S
C1319 C1318 1.355 . S
C1319 C1321 1.419 . S
C1320 C1318 1.415 . S
C1320 C1325 1.425 . S
C1320 C1327 1.409 . S
C1321 H1313 0.930 . S
C1321 C1319 1.419 . S
C1321 C1322 1.362 . S
C1322 H1314 0.930 . S
C1322 C1321 1.362 . S
C1322 C1325 1.409 . S
C1323 H1315 0.930 . S
C1323 C1324 1.355 . S
C1323 C1325 1.415 . S
C1324 C1323 1.355 . S
C1324 C1326 1.419 . S
C1325 C1320 1.425 . S
C1325 C1322 1.409 . S
C1325 C1323 1.415 . S
C1326 H1316 0.930 . S
C1326 C1324 1.419 . S
C1326 C1327 1.362 . S
C1327 H1317 0.930 . S
C1327 C1320 1.409 . S
C1327 C1326 1.362 . S
H1328 C1334 0.930 . S
H1329 C1337 0.930 . S
H1330 C1338 0.930 . S
H1331 C1339 0.930 . S
H1332 C1342 0.930 . S
H1333 C1343 0.930 1_565 S
C1334 H1328 0.930 . S
C1334 C1335 1.355 1_565 S
C1334 C1336 1.415 1_565 S
C1335 C1334 1.355 1_545 S
C1335 C1337 1.419 . S
C1336 C1334 1.415 1_545 S
C1336 C1341 1.425 . S
C1336 C1343 1.409 . S
C1337 H1329 0.930 . S
C1337 C1335 1.419 . S
C1337 C1338 1.362 . S
C1338 H1330 0.930 . S
C1338 C1337 1.362 . S
C1338 C1341 1.409 . S
C1339 H1331 0.930 . S
C1339 C1340 1.355 . S
C1339 C1341 1.415 . S
C1340 C1339 1.355 . S
C1340 C1342 1.419 . S
C1341 C1336 1.425 . S
C1341 C1338 1.409 . S
C1341 C1339 1.415 . S
C1342 H1332 0.930 . S
C1342 C1340 1.419 . S
C1342 C1343 1.362 . S
C1343 H1333 0.930 1_545 S
C1343 C1336 1.409 . S
C1343 C1342 1.362 . S
H1344 C1350 0.930 . S
H1345 C1353 0.930 . S
H1346 C1354 0.930 . S
H1347 C1355 0.930 . S
H1348 C1358 0.930 . S
H1349 C1359 0.930 . S
C1350 H1344 0.930 . S
C1350 C1351 1.355 . S
C1350 C1352 1.415 . S
C1351 C1350 1.355 . S
C1351 C1353 1.419 . S
C1352 C1350 1.415 . S
C1352 C1357 1.425 . S
C1352 C1359 1.409 . S
C1353 H1345 0.930 . S
C1353 C1351 1.419 . S
C1353 C1354 1.362 . S
C1354 H1346 0.930 . S
C1354 C1353 1.362 . S
C1354 C1357 1.409 . S
C1355 H1347 0.930 . S
C1355 C1356 1.355 . S
C1355 C1357 1.415 . S
C1356 C1355 1.355 . S
C1356 C1358 1.419 . S
C1357 C1352 1.425 . S
C1357 C1354 1.409 . S
C1357 C1355 1.415 . S
C1358 H1348 0.930 . S
C1358 C1356 1.419 . S
C1358 C1359 1.362 . S
C1359 H1349 0.930 . S
C1359 C1352 1.409 . S
C1359 C1358 1.362 . S
H1360 C1366 0.930 . S
H1361 C1369 0.930 . S
H1362 C1370 0.930 . S
H1363 C1371 0.930 . S
H1364 C1374 0.930 . S
H1365 C1375 0.930 . S
C1366 H1360 0.930 . S
C1366 C1367 1.355 . S
C1366 C1368 1.415 . S
C1367 C1366 1.355 . S
C1367 C1369 1.419 . S
C1368 C1366 1.415 . S
C1368 C1373 1.425 . S
C1368 C1375 1.409 1_455 S
C1369 H1361 0.930 . S
C1369 C1367 1.419 . S
C1369 C1370 1.362 1_565 S
C1370 H1362 0.930 . S
C1370 C1369 1.362 1_545 S
C1370 C1373 1.409 1_545 S
C1371 H1363 0.930 . S
C1371 C1372 1.355 1_545 S
C1371 C1373 1.415 1_645 S
C1372 C1371 1.355 1_565 S
C1372 C1374 1.419 . S
C1373 C1368 1.425 . S
C1373 C1370 1.409 1_565 S
C1373 C1371 1.415 1_465 S
C1374 H1364 0.930 . S
C1374 C1372 1.419 . S
C1374 C1375 1.362 . S
C1375 H1365 0.930 . S
C1375 C1368 1.409 1_655 S
C1375 C1374 1.362 . S
H1376 C1382 0.930 . S
H1377 C1385 0.930 . S
H1378 C1386 0.930 . S
H1379 C1387 0.930 . S
H1380 C1390 0.930 . S
H1381 C1391 0.930 . S
C1382 H1376 0.930 . S
C1382 C1383 1.355 . S
C1382 C1384 1.415 . S
C1383 C1382 1.355 . S
C1383 C1385 1.419 . S
C1384 C1382 1.415 . S
C1384 C1389 1.425 . S
C1384 C1391 1.409 . S
C1385 H1377 0.930 . S
C1385 C1383 1.419 . S
C1385 C1386 1.362 . S
C1386 H1378 0.930 . S
C1386 C1385 1.362 . S
C1386 C1389 1.409 . S
C1387 H1379 0.930 . S
C1387 C1388 1.355 . S
C1387 C1389 1.415 . S
C1388 C1387 1.355 . S
C1388 C1390 1.419 . S
C1389 C1384 1.425 . S
C1389 C1386 1.409 . S
C1389 C1387 1.415 . S
C1390 H1380 0.930 . S
C1390 C1388 1.419 . S
C1390 C1391 1.362 . S
C1391 H1381 0.930 . S
C1391 C1384 1.409 . S
C1391 C1390 1.362 . S
H1392 C1398 0.930 . S
H1393 C1401 0.930 . S
H1394 C1402 0.930 . S
H1395 C1403 0.930 . S
H1396 C1406 0.930 . S
H1397 C1407 0.930 . S
C1398 H1392 0.930 . S
C1398 C1399 1.341 1_565 S
C1398 C1400 1.415 . S
C1399 C1398 1.341 1_545 S
C1399 C1401 1.430 . S
C1400 C1398 1.415 . S
C1400 C1405 1.425 . S
C1400 C1407 1.409 . S
C1401 H1393 0.930 . S
C1401 C1399 1.430 . S
C1401 C1402 1.362 . S
C1402 H1394 0.930 . S
C1402 C1401 1.362 . S
C1402 C1405 1.409 1_545 S
C1403 H1395 0.930 . S
C1403 C1404 1.355 . S
C1403 C1405 1.415 . S
C1404 C1403 1.355 . S
C1404 C1406 1.419 . S
C1405 C1400 1.425 . S
C1405 C1402 1.409 1_565 S
C1405 C1403 1.415 . S
C1406 H1396 0.930 . S
C1406 C1404 1.419 . S
C1406 C1407 1.362 . S
C1407 H1397 0.930 . S
C1407 C1400 1.409 . S
C1407 C1406 1.362 . S
H1408 C1414 0.930 . S
H1409 C1417 0.930 . S
H1410 C1418 0.930 . S
H1411 C1419 0.930 . S
H1412 C1422 0.930 . S
H1413 C1423 0.930 . S
C1414 H1408 0.930 . S
C1414 C1415 1.355 . S
C1414 C1416 1.415 . S
C1415 C1414 1.355 . S
C1415 C1417 1.419 . S
C1416 C1414 1.415 . S
C1416 C1421 1.425 . S
C1416 C1423 1.409 . S
C1417 H1409 0.930 . S
C1417 C1415 1.419 . S
C1417 C1418 1.362 . S
C1418 H1410 0.930 . S
C1418 C1417 1.362 . S
C1418 C1421 1.409 . S
C1419 H1411 0.930 . S
C1419 C1420 1.355 . S
C1419 C1421 1.415 . S
C1420 C1419 1.355 . S
C1420 C1422 1.419 . S
C1421 C1416 1.425 . S
C1421 C1418 1.409 . S
C1421 C1419 1.415 . S
C1422 H1412 0.930 . S
C1422 C1420 1.419 . S
C1422 C1423 1.362 . S
C1423 H1413 0.930 . S
C1423 C1416 1.409 . S
C1423 C1422 1.362 . S
H1424 C1430 0.930 . S
H1425 C1433 0.930 . S
H1426 C1434 0.930 1_655 S
H1427 C1435 0.930 . S
H1428 C1438 0.930 . S
H1429 C1439 0.930 . S
C1430 H1424 0.930 . S
C1430 C1431 1.351 1_545 S
C1430 C1432 1.415 . S
C1431 C1430 1.351 1_565 S
C1431 C1433 1.422 . S
C1432 C1430 1.415 . S
C1432 C1437 1.425 1_455 S
C1432 C1439 1.409 1_455 S
C1433 H1425 0.930 . S
C1433 C1431 1.422 . S
C1433 C1434 1.362 . S
C1434 H1426 0.930 1_455 S
C1434 C1433 1.362 . S
C1434 C1437 1.409 1_465 S
C1435 H1427 0.930 . S
C1435 C1436 1.355 . S
C1435 C1437 1.415 . S
C1436 C1435 1.355 . S
C1436 C1438 1.419 . S
C1437 C1432 1.425 1_655 S
C1437 C1434 1.409 1_645 S
C1437 C1435 1.415 . S
C1438 H1428 0.930 . S
C1438 C1436 1.419 . S
C1438 C1439 1.362 . S
C1439 H1429 0.930 . S
C1439 C1432 1.409 1_655 S
C1439 C1438 1.362 . S
C551 C255 2.515 . S
C556 C22 2.275 . S
C567 C425 2.496 . S
C572 C49 2.292 . S
C583 C90 2.278 . S
C588 C187 2.516 . S
C599 C493 2.484 . S
C604 C124 2.256 1_455 S
C615 C119 2.486 . S
C620 C158 2.266 . S
C631 C185 2.288 . S
C636 C289 2.494 . S
C647 C219 2.232 . S
C652 C51 2.495 . S
C663 C357 2.515 . S
C668 C260 2.305 1_655 S
C679 C527 2.492 1_565 S
C684 C294 2.229 . S
C695 C321 2.260 1_655 S
C700 C153 2.485 . S
C711 C459 2.484 1_545 S
C716 C362 2.254 . S
C727 C221 2.505 . S
C732 C396 2.246 . S
C743 C391 2.515 1_545 S
C748 C423 2.305 . S
C759 C457 2.283 1_455 S
C764 C17 2.517 . S
C775 C498 2.305 . S
C780 C323 2.515 1_565 S
C791 C85 2.492 . S
C796 C532 2.284 . S
C807 C312 0.796 . S
C812 C6 0.816 . S
C823 C62 0.816 . S
C828 C368 0.804 . S
C839 C74 0.801 . S
C844 C402 0.770 . S
C855 C108 0.792 . S
C860 C300 0.825 . S
C871 C448 0.792 . S
C876 C142 0.816 . S
C887 C198 0.790 . S
C892 C504 0.819 . S
C903 C538 0.772 . S
C908 C232 0.808 . S
C919 C244 0.788 . S
C924 C414 0.801 . S
C935 C40 0.802 . S
C940 C278 0.816 . S
C951 C96 0.831 1_545 S
C956 C334 0.801 . S
C967 C130 0.770 . S
C972 C346 0.802 . S
C983 C28 0.819 1_565 S
C988 C380 0.812 . S
C999 C436 0.789 . S
C1004 C176 0.816 . S
C1015 C210 0.818 1_565 S
C1020 C470 0.812 . S
C1031 C266 0.772 . S
C1036 C482 0.808 . S
C1047 C516 0.803 . S
C1052 C164 0.830 1_545 S
C1063 C137 2.828 . S
C1068 C1 2.828 . S
C1079 C37 2.818 . S
C1084 C445 2.818 . S
C1095 C207 2.828 . S
C1100 C69 2.828 . S
C1111 C511 2.778 . S
C1116 C103 2.778 . S
C1127 C309 2.805 . S
C1132 C173 2.805 . S
C1143 C239 2.770 . S
C1148 C375 2.770 . S
C1159 C273 2.782 . S
C1164 C411 2.782 . S
C1175 C341 2.769 . S
C1180 C477 2.769 . S
C1191 C241 0.780 . S
C1196 C15 0.674 . S
C1207 C409 0.750 . S
C1212 C56 0.752 . S
C1223 C83 0.701 . S
C1228 C171 0.786 . S
C1239 C117 0.629 . S
C1244 C479 0.752 . S
C1255 C151 0.599 . S
C1260 C105 0.713 . S
C1271 C192 0.719 . S
C1276 C275 0.621 . S
C1287 C226 0.609 . S
C1292 C35 0.729 . S
C1303 C343 0.656 . S
C1308 C253 0.740 . S
C1319 C287 0.734 . S
C1324 C513 0.777 . S
C1335 C139 0.692 1_545 S
C1340 C328 0.589 . S
C1351 C443 0.730 . S
C1356 C355 0.756 . S
C1367 C389 0.639 . S
C1372 C205 0.761 1_565 S
C1383 C377 0.748 . S
C1388 C430 0.753 . S
C1399 C3 0.729 . S
C1404 C464 0.756 . S
C1415 C491 0.606 . S
C1420 C307 0.590 . S
C1431 C71 0.735 . S
C1436 C525 0.756 . S
