# Generated by pormake.
# Topology qtz-x, (6)-cn, num edge types: 1
# Building blocks:
#     Node 0, Type 0, BuildingBlock: GEDQOX_clean_sbu_0, # of connection points: 6
#     Node 1, Type 0, BuildingBlock: GEDQOX_clean_sbu_0, # of connection points: 6
#     Node 2, Type 0, BuildingBlock: GEDQOX_clean_sbu_0, # of connection points: 6
#     Edge 3, Type (0, 0), BuildingBlock: UVAHIK_clean_linker_0, # of connection points: 2
#     Edge 4, Type (0, 0), BuildingBlock: UVAHIK_clean_linker_0, # of connection points: 2
#     Edge 5, Type (0, 0), BuildingBlock: UVAHIK_clean_linker_0, # of connection points: 2
#     Edge 6, Type (0, 0), BuildingBlock: UVAHIK_clean_linker_0, # of connection points: 2
#     Edge 7, Type (0, 0), BuildingBlock: UVAHIK_clean_linker_0, # of connection points: 2
#     Edge 8, Type (0, 0), BuildingBlock: UVAHIK_clean_linker_0, # of connection points: 2
#     Edge 9, Type (0, 0), BuildingBlock: UVAHIK_clean_linker_0, # of connection points: 2
#     Edge 10, Type (0, 0), BuildingBlock: UVAHIK_clean_linker_0, # of connection points: 2
#     Edge 11, Type (0, 0), BuildingBlock: UVAHIK_clean_linker_0, # of connection points: 2
# Relax obj value: 0.166
# Max RMSD: 0.239
# Mean RMSD: 0.217
data_MOF--net-qtz-x--node1-GEDQOX_clean_sbu_0--edge1-UVAHIK_clean_linker_0
_symmetry_space_group_name_H-M    P1
_symmetry_Int_Tables_number       1
_symmetry_cell_setting            triclinic
loop_
_symmetry_equiv_pos_as_xyz
'x, y, z'
_cell_length_a     19.093756
_cell_length_b     19.087612
_cell_length_c     66.092734
_cell_angle_alpha  73.600531
_cell_angle_beta   110.36052
_cell_angle_gamma 121.29127
loop_
_atom_site_label
_atom_site_type_symbol
_atom_site_fract_x
_atom_site_fract_y
_atom_site_fract_z
_atom_type_partial_charge
Nd0 Nd 0.1467 0.70049 0.17861 0.0
Nd1 Nd 0.97672 0.57977 0.1875 0.0
C2 C 0.27115 0.81742 0.1609 0.0
C3 C 0.29321 0.82041 0.14132 0.0
C4 C 0.32878 0.89552 0.12822 0.0
C5 C 0.34381 0.89708 0.10876 0.0
C6 C 0.32345 0.82338 0.10209 0.0
C7 C 0.28841 0.74839 0.11547 0.0
C8 C 0.27291 0.74688 0.13476 0.0
C9 C 0.11451 0.53849 0.18648 0.0
C10 C 0.98117 0.62538 0.13736 0.0
C11 C 0.85415 0.45645 0.20524 0.0
C12 C 0.83785 0.42768 0.22732 0.0
C13 C 0.8607 0.3684 0.24151 0.0
C14 C 0.84639 0.34191 0.26239 0.0
C15 C 0.80842 0.37366 0.26961 0.0
C16 C 0.78473 0.43227 0.25532 0.0
C17 C 0.79904 0.45877 0.23443 0.0
C18 C 1.00721 0.74124 0.17882 0.0
C19 C 0.1436 0.66229 0.22799 0.0
O20 O 0.19994 0.81869 0.15731 0.0
O21 O 0.28071 0.76292 0.17731 0.0
O22 O 0.18761 0.59907 0.19359 0.0
O23 O 0.06261 0.56465 0.17501 0.0
O24 O 0.05753 0.68481 0.14445 0.0
O25 O 0.93595 0.56846 0.15095 0.0
O26 O 0.91477 0.44955 0.20242 0.0
O27 O 0.8527 0.52552 0.19515 0.0
O28 O 0.93428 0.67981 0.1719 0.0
O29 O 0.05973 0.71608 0.19062 0.0
O30 O 0.07089 0.59672 0.22171 0.0
O31 O 0.18107 0.72196 0.21357 0.0
H32 H 0.34356 0.95273 0.13284 0.0
H33 H 0.36969 0.9558 0.09874 0.0
H34 H 0.27313 0.69058 0.11111 0.0
H35 H 0.24415 0.68791 0.14445 0.0
H36 H 0.89017 0.34266 0.23654 0.0
H37 H 0.86625 0.29734 0.273 0.0
H38 H 0.75407 0.45706 0.26016 0.0
H39 H 0.77963 0.50373 0.22387 0.0
Nd40 Nd 0.68414 0.96635 0.53303 0.0
Nd41 Nd 0.7488 0.14164 0.5378 0.0
C42 C 0.6471 0.82974 0.51997 0.0
C43 C 0.61502 0.80363 0.49806 0.0
C44 C 0.66442 0.84418 0.48274 0.0
C45 C 0.62955 0.82617 0.46128 0.0
C46 C 0.54438 0.76758 0.45459 0.0
C47 C 0.49613 0.7248 0.47017 0.0
C48 C 0.5312 0.74237 0.49167 0.0
C49 C 0.56302 -0.00118 0.53518 0.0
C50 C 0.69968 0.10696 0.48917 0.0
C51 C 0.7838 0.28082 0.54913 0.0
C52 C 0.79988 0.30917 0.56956 0.0
C53 C 0.75694 0.25541 0.58564 0.0
C54 C 0.77627 0.28205 0.60544 0.0
C55 C 0.83918 0.36285 0.60958 0.0
C56 C 0.8817 0.4165 0.59334 0.0
C57 C 0.86214 0.38983 0.57353 0.0
C58 C 0.86915 0.10871 0.53527 0.0
C59 C 0.73461 0.00185 0.58158 0.0
O60 O 0.72429 0.88998 0.5247 0.0
O61 O 0.59441 0.83683 0.52663 0.0
O62 O 0.56943 0.93231 0.54474 0.0
O63 O 0.61786 0.04493 0.52428 0.0
O64 O 0.69525 0.03409 0.49832 0.0
O65 O 0.70981 0.15896 0.50075 0.0
O66 O 0.70682 0.22502 0.54144 0.0
O67 O 0.8415 0.26611 0.54777 0.0
O68 O 0.86213 0.17487 0.52555 0.0
O69 O 0.8152 0.06316 0.54645 0.0
O70 O 0.73456 0.07286 0.57221 0.0
O71 O 0.72771 0.95112 0.57012 0.0
H72 H 0.72937 0.89162 0.4871 0.0
H73 H 0.66914 0.85918 0.44985 0.0
H74 H 0.43014 0.67994 0.46562 0.0
H75 H 0.49167 0.71015 0.50313 0.0
H76 H 0.70889 0.19262 0.58298 0.0
H77 H 0.74154 0.23944 0.61745 0.0
H78 H 0.93133 0.47865 0.5961 0.0
H79 H 0.89654 0.43188 0.56139 0.0
Nd80 Nd 0.85192 0.74987 0.86109 0.0
Nd81 Nd 0.71003 0.78977 0.85381 0.0
C82 C 0.98185 0.74164 0.85836 0.0
C83 C 0.98842 0.70469 0.84269 0.0
C84 C 0.04822 0.75345 0.83019 0.0
C85 C 0.04629 0.72265 0.81302 0.0
C86 C 0.9844 0.64249 0.80806 0.0
C87 C 0.92729 0.59257 0.82129 0.0
C88 C 0.92893 0.62338 0.83832 0.0
C89 C 0.69546 0.61462 0.85888 0.0
C90 C 0.75464 0.7969 0.81069 0.0
C91 C 0.5769 0.79353 0.85633 0.0
C92 C 0.54687 0.79179 0.87437 0.0
C93 C 0.53412 0.72722 0.89173 0.0
C94 C 0.51075 0.72936 0.9093 0.0
C95 C 0.50056 0.79643 0.90997 0.0
C96 C 0.51247 0.86047 0.89251 0.0
C97 C 0.53497 0.85791 0.87483 0.0
C98 C 0.86627 0.92441 0.85489 0.0
C99 C 0.81043 0.74724 0.9038 0.0
O100 O 0.97025 0.80686 0.85028 0.0
O101 O 0.9343 0.69025 0.87176 0.0
O102 O 0.76418 0.61447 0.87185 0.0
O103 O 0.71119 0.6824 0.8468 0.0
O104 O 0.82305 0.79359 0.82419 0.0
O105 O 0.69296 0.78609 0.81798 0.0
O106 O 0.57548 0.72581 0.85484 0.0
O107 O 0.64557 0.86013 0.85268 0.0
O108 O 0.79725 0.92309 0.84154 0.0
O109 O 0.85114 0.85802 0.86766 0.0
O110 O 0.73771 0.74133 0.89061 0.0
O111 O 0.87398 0.76664 0.89596 0.0
H112 H 0.09423 0.81651 0.83316 0.0
H113 H 0.09085 0.76288 0.80305 0.0
H114 H 0.87987 0.53003 0.81818 0.0
H115 H 0.88157 0.58422 0.84755 0.0
H116 H 0.54356 0.6757 0.89197 0.0
H117 H 0.50282 0.67959 0.92265 0.0
H118 H 0.50431 0.91253 0.89252 0.0
H119 H 0.54447 0.90839 0.86166 0.0
C120 C 0.95301 0.84432 0.16761 0.0
C121 C 1.01976 0.82494 0.17808 0.0
C122 C 0.96305 0.92172 0.16823 0.0
C123 C 0.09268 0.09722 0.20046 0.0
H124 H 0.99775 0.21261 0.15007 0.0
C125 C 0.16669 0.43405 0.19731 0.0
C126 C 0.1007 0.45453 0.18693 0.0
C127 C 0.15542 0.35627 0.19658 0.0
C128 C 0.02371 0.1807 0.16438 0.0
H129 H 0.15017 0.87195 0.19678 0.0
H130 H 0.16815 0.00749 0.19765 0.0
H131 H 0.98245 0.08025 0.14741 0.0
H132 H 0.97044 0.40927 0.16817 0.0
H133 H 0.95028 0.27294 0.16709 0.0
H134 H 0.13397 0.19762 0.21743 0.0
C135 C 0.10752 0.96246 0.18931 0.0
C136 C 1.01506 0.10488 0.16283 0.0
C137 C 0.09745 0.88507 0.18868 0.0
C138 C 0.02256 0.39521 0.17622 0.0
C139 C 1.01124 0.31739 0.17548 0.0
C140 C 0.10132 0.173 0.202 0.0
C141 C 0.04012 0.98138 0.17931 0.0
C142 C 0.04962 0.06231 0.18085 0.0
C143 C 0.07782 0.29726 0.18547 0.0
C144 C 0.06708 0.21576 0.18397 0.0
H145 H 0.89239 0.79908 0.15932 0.0
H146 H 0.90964 0.93397 0.16052 0.0
H147 H 0.11871 0.06536 0.21477 0.0
H148 H 0.22765 0.47867 0.20567 0.0
H149 H 0.20828 0.34317 0.20426 0.0
C150 C 0.43484 0.95481 0.54749 0.0
C151 C 0.49361 0.01261 0.53524 0.0
C152 C 0.3677 0.96545 0.54746 0.0
C153 C 0.29553 0.12249 0.53559 0.0
H154 H 0.07478 0.93075 0.53388 0.0
C155 C 0.99682 0.15241 0.52275 0.0
C156 C 0.93838 0.09484 0.53511 0.0
C157 C 0.06387 0.14171 0.52274 0.0
C158 C 0.13617 -0.01521 0.53462 0.0
H159 H 0.52882 0.12757 0.51352 0.0
H160 H 0.41082 0.14618 0.51328 0.0
H161 H 0.19318 0.91478 0.53366 0.0
H162 H 0.90353 0.98012 0.55693 0.0
H163 H 0.02133 0.96139 0.55707 0.0
H164 H 0.2385 0.1925 0.53655 0.0
C165 C 0.41706 0.09277 0.52308 0.0
C166 C 0.20418 0.97569 0.53448 0.0
C167 C 0.48444 0.08202 0.52311 0.0
C168 C 0.94771 0.02553 0.54727 0.0
C169 C 1.01495 0.0147 0.54724 0.0
C170 C 0.22751 0.1316 0.53573 0.0
C171 C 0.35749 0.03426 0.53516 0.0
C172 C 0.28482 0.0444 0.53499 0.0
C173 C 0.07426 0.07304 0.53508 0.0
C174 C 0.14688 0.06289 0.53523 0.0
H175 H 0.44056 0.90095 0.55715 0.0
H176 H 0.32416 0.91995 0.55727 0.0
H177 H 0.35692 0.17653 0.53635 0.0
H178 H 0.99096 0.20617 0.51307 0.0
H179 H 0.10722 0.18706 0.51286 0.0
C180 C 0.02263 -0.00892 0.87024 0.0
C181 C 0.95122 -0.00499 0.85527 0.0
C182 C 0.10317 0.05807 0.87046 0.0
C183 C 0.21233 0.28278 0.85345 0.0
H184 H 0.40054 0.24428 0.86063 0.0
C185 C 0.53957 0.5479 0.84273 0.0
C186 C 0.6104 0.54377 0.858 0.0
C187 C 0.45884 0.48087 0.84219 0.0
C188 C 0.34879 0.25599 0.85883 0.0
H189 H 0.90751 0.07119 0.82868 0.0
H190 H 0.04818 0.18801 0.82892 0.0
H191 H 0.26009 0.12715 0.8602 0.0
H192 H 0.65297 0.46698 0.88465 0.0
H193 H 0.51205 0.35004 0.8838 0.0
H194 H 0.30108 0.41163 0.85209 0.0
C195 C 0.04204 0.1338 0.8407 0.0
C196 C 0.26836 0.1889 0.8586 0.0
C197 C 0.96158 0.0668 0.84048 0.0
C198 C 0.59936 0.47156 0.87265 0.0
C199 C 0.51875 0.40451 0.87209 0.0
C200 C 0.29277 0.34988 0.85367 0.0
C201 C 0.11376 0.13022 0.8557 0.0
C202 C 0.19924 0.20153 0.85593 0.0
C203 C 0.44757 0.40842 0.85687 0.0
C204 C 0.36191 0.33722 0.85639 0.0
H205 H 1.01629 0.93632 0.88181 0.0
H206 H 0.15705 0.05374 0.88237 0.0
H207 H 0.16062 0.2945 0.85168 0.0
H208 H 0.5465 0.60285 0.83119 0.0
H209 H 0.40538 0.48542 0.83011 0.0
C210 C 0.52478 0.87333 0.93888 0.0
C211 C 0.47946 0.80048 0.92906 0.0
C212 C 0.50635 0.87678 0.95717 0.0
C213 C 0.39813 0.74155 1.00135 0.0
H214 H 0.41656 0.9446 1.0094 0.0
C215 C 0.28107 0.75944 0.06847 0.0
C216 C 0.33829 0.82411 0.08131 0.0
C217 C 0.29677 0.75777 0.04953 0.0
C218 C 0.41165 0.88767 1.0074 0.0
H219 H 0.37817 0.67467 0.93037 0.0
H220 H 0.34406 0.68111 0.96188 0.0
H221 H 0.44525 0.93865 0.97688 0.0
H222 H 0.45645 0.93851 0.08391 0.0
H223 H 0.48249 0.93647 0.05048 0.0
H224 H 0.36276 0.69035 0.03172 0.0
C225 C 0.39554 0.73507 0.9559 0.0
C226 C 0.42841 0.88422 0.98882 0.0
C227 C 0.41473 0.73136 0.93777 0.0
C228 C 0.41046 0.88827 0.07434 0.0
C229 C 0.4256 0.88704 0.05523 0.0
C230 C 0.38036 0.74476 1.01978 0.0
C231 C 0.44141 0.80771 0.96594 0.0
C232 C 0.42222 0.81117 0.98557 0.0
C233 C 0.36942 0.82126 0.04278 0.0
C234 C 0.38723 0.8179 1.02303 0.0
H235 H 0.57581 0.92721 0.93269 0.0
H236 H 0.5442 0.93326 0.96465 0.0
H237 H 0.3943 0.68473 0.9997 0.0
H238 H 0.22376 0.71001 0.07299 0.0
H239 H 0.2517 0.70697 0.04006 0.0
C240 C 0.68459 0.07618 0.45291 0.0
C241 C 0.69934 0.13239 0.46572 0.0
C242 C 0.69131 0.10166 0.43132 0.0
C243 C 0.79349 0.28907 0.39458 0.0
H244 H 0.63893 0.14942 0.3491 0.0
C245 C 0.80679 0.40237 0.30437 0.0
C246 C 0.79361 0.3458 0.29193 0.0
C247 C 0.793 0.37634 0.3253 0.0
C248 C 0.68328 0.18884 0.36165 0.0
H249 H 0.73061 0.25919 0.46558 0.0
H250 H 0.74177 0.30345 0.42791 0.0
H251 H 0.61698 0.10381 0.3858 0.0
H252 H 0.7546 0.21695 0.29186 0.0
H253 H 0.73242 0.17195 0.32849 0.0
H254 H 0.8604 0.37366 0.37056 0.0
C255 C 0.72598 0.23981 0.43466 0.0
C256 C 0.67055 0.1627 0.3827 0.0
C257 C 0.71887 0.21422 0.45622 0.0
C258 C 0.76626 0.26245 0.30102 0.0
C259 C 0.75248 0.23641 0.32196 0.0
C260 C 0.80635 0.31509 0.37356 0.0
C261 C 0.71332 0.18413 0.42201 0.0
C262 C 0.72553 0.21248 0.39945 0.0
C263 C 0.76568 0.29299 0.3344 0.0
C264 C 0.75149 0.26533 0.35679 0.0
H265 H 0.66934 0.01263 0.45964 0.0
H266 H 0.68174 0.05722 0.42215 0.0
H267 H 0.83799 0.32834 0.40715 0.0
H268 H 0.82875 0.46719 0.29803 0.0
H269 H 0.80302 0.42157 0.33427 0.0
C270 C 0.81962 0.83588 0.77958 0.0
C271 C 0.74907 0.8139 0.78695 0.0
C272 C 0.81654 0.85395 0.75738 0.0
C273 C 0.67265 0.8217 0.70287 0.0
H274 H 0.86254 0.01648 0.68399 0.0
C275 C 0.71674 0.89656 0.61504 0.0
C276 C 0.73924 0.9786 0.60526 0.0
C277 C 0.71686 0.8747 0.63718 0.0
C278 C 0.80892 0.962 0.68898 0.0
H279 H 0.61925 0.79239 0.77654 0.0
H280 H 0.61375 0.82348 0.73756 0.0
H281 H 0.86262 0.98176 0.72247 0.0
H282 H 0.781 0.10222 0.61123 0.0
H283 H 0.78204 0.0643 0.64969 0.0
H284 H 0.61908 0.80212 0.66927 0.0
C285 C 0.67146 0.82666 0.74913 0.0
C286 C 0.80923 0.94178 0.71105 0.0
C287 C 0.67477 0.80927 0.77145 0.0
C288 C 0.76314 0.0384 0.61819 0.0
C289 C 0.76416 0.01678 0.6403 0.0
C290 C 0.67279 0.84145 0.68077 0.0
C291 C 0.74267 0.84996 0.74187 0.0
C292 C 0.74111 0.87147 0.71828 0.0
C293 C 0.74055 0.93461 0.65005 0.0
C294 C 0.74085 0.91204 0.67357 0.0
H295 H 0.87796 0.83992 0.79097 0.0
H296 H 0.8721 0.87063 0.75233 0.0
H297 H 0.61953 0.76684 0.70795 0.0
H298 H 0.69767 0.84892 0.60554 0.0
H299 H 0.69905 0.811 0.64427 0.0
C300 C 0.89923 0.74375 0.94194 0.0
C301 C 0.82058 0.73173 0.9277 0.0
C302 C 0.90912 0.72884 0.96446 0.0
C303 C 0.79417 0.61577 1.00761 0.0
H304 H 0.99616 0.77551 0.04234 0.0
C305 C 0.86614 0.59658 0.1024 0.0
C306 C 0.95138 0.62259 0.11359 0.0
C307 C 0.84285 0.6054 0.07951 0.0
C308 C 0.93979 0.72965 0.03295 0.0
H309 H 0.69022 0.69373 0.92606 0.0
H310 H 0.70777 0.6676 0.96549 0.0
H311 H 0.97008 0.80067 1.00295 0.0
H312 H 0.07787 0.6719 0.10981 0.0
H313 H 0.03748 0.68458 0.07047 0.0
H314 H 0.76485 0.54407 0.03783 0.0
C315 C 0.76161 0.68832 0.95914 0.0
C316 C 0.92481 0.74428 1.01033 0.0
C317 C 0.75179 0.70381 0.93655 0.0
C318 C 1.01182 0.65288 0.10164 0.0
C319 C 0.9887 0.6607 0.07902 0.0
C320 C 0.80948 0.60076 0.03038 0.0
C321 C 0.84058 0.70115 0.97334 0.0
C322 C 0.85263 0.68701 0.99737 0.0
C323 C 0.90449 0.63967 0.06757 0.0
C324 C 0.88342 0.65689 0.04334 0.0
H325 H 0.9535 0.76484 0.93574 0.0
H326 H 0.97053 0.73828 0.97495 0.0
H327 H 0.73801 0.57036 0.99804 0.0
H328 H 0.81836 0.57307 0.11125 0.0
H329 H 0.77736 0.58841 0.07119 0.0
C330 C 0.25212 0.74524 0.25807 0.0
C331 C 0.1824 0.67041 0.25143 0.0
C332 C 0.28913 0.7537 0.28012 0.0
C333 C 0.31711 0.63579 0.33392 0.0
H334 H 0.37366 0.83361 0.35494 0.0
C335 C 0.44365 0.67479 0.42546 0.0
C336 C 0.50488 0.75396 0.4313 0.0
C337 C 0.40354 0.66305 0.40362 0.0
C338 C 0.35949 0.77849 0.34932 0.0
H339 H 0.09691 0.54561 0.26282 0.0
H340 H 0.16239 0.56037 0.30148 0.0
H341 H 0.30438 0.81574 0.31675 0.0
H342 H 0.57188 0.88291 0.41851 0.0
H343 H 0.50493 0.86186 0.38054 0.0
H344 H 0.37375 0.59915 0.36634 0.0
C345 C 0.18827 0.61233 0.28951 0.0
C346 C 0.3194 0.76816 0.32744 0.0
C347 C 0.15061 0.60406 0.26739 0.0
C348 C 0.52597 0.82082 0.41468 0.0
C349 C 0.48642 0.80895 0.39285 0.0
C350 C 0.35797 0.64644 0.3558 0.0
C351 C 0.25777 0.68736 0.29608 0.0
C352 C 0.29803 0.69685 0.31948 0.0
C353 C 0.42405 0.73006 0.38703 0.0
C354 C 0.37997 0.7181 0.36377 0.0
H355 H 0.27819 0.79766 0.24622 0.0
H356 H 0.34316 0.81197 0.2847 0.0
H357 H 0.30224 0.58062 0.32818 0.0
H358 H 0.42645 0.62168 0.43778 0.0
H359 H 0.35528 0.60155 0.39981 0.0
C360 C 0.04706 0.62856 0.78247 0.0
C361 C 0.97567 0.61232 0.78846 0.0
C362 C 0.03766 0.60031 0.76384 0.0
C363 C 0.88243 0.44545 0.72621 0.0
H364 H 0.02169 0.59211 0.68578 0.0
C365 C 0.86349 0.33748 0.65031 0.0
C366 C 0.86063 0.39097 0.63076 0.0
C367 C 0.88277 0.36369 0.67017 0.0
C368 C 0.98225 0.55054 0.69691 0.0
H369 H 0.83862 0.5559 0.77915 0.0
H370 H 0.82243 0.50629 0.74692 0.0
H371 H 0.04524 0.63921 0.71945 0.0
H372 H 0.87542 0.51396 0.61684 0.0
H373 H 0.90969 0.55976 0.65151 0.0
H374 H 0.81816 0.35747 0.70351 0.0
C375 C 0.88555 0.53937 0.75682 0.0
C376 C 0.9963 0.57719 0.71627 0.0
C377 C 0.8949 0.56774 0.77534 0.0
C378 C 0.87833 0.47156 0.6316 0.0
C379 C 0.89799 0.49786 0.65147 0.0
C380 C 0.8687 0.41867 0.70693 0.0
C381 C 0.95671 0.55514 0.75087 0.0
C382 C 0.9458 0.52527 0.731 0.0
C383 C 0.90004 0.44411 0.67096 0.0
C384 C 0.91781 0.47123 0.69195 0.0
H385 H 0.11009 0.6622 0.79232 0.0
H386 H 0.09366 0.61288 0.75974 0.0
H387 H 0.84307 0.40371 0.73735 0.0
H388 H 0.85169 0.27551 0.65031 0.0
H389 H 0.88489 0.32119 0.68496 0.0
loop_
_geom_bond_atom_site_label_1
_geom_bond_atom_site_label_2
_geom_bond_distance
_geom_bond_site_symmetry_2
_ccdc_geom_bond_type
Nd0 C2 2.836 . S
Nd0 O20 2.500 . S
Nd0 O21 2.492 . S
Nd0 O22 2.487 . S
Nd0 O23 2.682 1_455 S
Nd0 O24 2.410 1_455 S
Nd0 O29 2.414 . S
Nd0 O31 2.424 . S
Nd1 C11 2.836 . S
Nd1 O23 2.414 . S
Nd1 O25 2.424 . S
Nd1 O26 2.500 . S
Nd1 O27 2.492 . S
Nd1 O28 2.487 . S
Nd1 O29 2.682 1_655 S
Nd1 O30 2.410 1_655 S
C2 Nd0 2.836 . S
C2 C3 1.498 . S
C2 O20 1.258 . S
C2 O21 1.239 . S
C3 C2 1.498 . S
C3 C4 1.366 . S
C3 C8 1.407 . S
C4 C3 1.366 . S
C4 C5 1.392 . S
C4 H32 0.930 . S
C5 C4 1.392 . S
C5 C6 1.398 . S
C5 H33 0.929 . S
C6 C5 1.398 . S
C6 C7 1.352 . S
C7 C6 1.352 . S
C7 C8 1.384 . S
C7 H34 0.930 . S
C8 C3 1.407 . S
C8 C7 1.384 . S
C8 H35 0.929 . S
C9 O22 1.241 . S
C9 O23 1.273 1_455 S
C10 O24 1.251 . S
C10 O25 1.268 . S
C11 Nd1 2.836 . S
C11 C12 1.498 . S
C11 O26 1.258 . S
C11 O27 1.239 . S
C12 C11 1.498 . S
C12 C13 1.366 . S
C12 C17 1.407 . S
C13 C12 1.366 . S
C13 C14 1.392 . S
C13 H36 0.930 . S
C14 C13 1.392 . S
C14 C15 1.398 . S
C14 H37 0.929 . S
C15 C14 1.398 . S
C15 C16 1.352 . S
C16 C15 1.352 . S
C16 C17 1.384 . S
C16 H38 0.930 . S
C17 C12 1.407 . S
C17 C16 1.384 . S
C17 H39 0.929 . S
C18 O28 1.241 . S
C18 O29 1.273 1_655 S
C19 O30 1.251 . S
C19 O31 1.268 . S
O20 Nd0 2.500 . S
O20 C2 1.258 . S
O21 Nd0 2.492 . S
O21 C2 1.239 . S
O22 Nd0 2.487 . S
O22 C9 1.241 . S
O23 Nd0 2.682 1_655 S
O23 Nd1 2.414 . S
O23 C9 1.273 1_655 S
O24 Nd0 2.410 1_655 S
O24 C10 1.251 . S
O25 Nd1 2.424 . S
O25 C10 1.268 . S
O26 Nd1 2.500 . S
O26 C11 1.258 . S
O27 Nd1 2.492 . S
O27 C11 1.239 . S
O28 Nd1 2.487 . S
O28 C18 1.241 . S
O29 Nd0 2.414 . S
O29 Nd1 2.682 1_455 S
O29 C18 1.273 1_455 S
O30 Nd1 2.410 1_455 S
O30 C19 1.251 . S
O31 Nd0 2.424 . S
O31 C19 1.268 . S
H32 C4 0.930 . S
H33 C5 0.929 . S
H34 C7 0.930 . S
H35 C8 0.929 . S
H36 C13 0.930 . S
H37 C14 0.929 . S
H38 C16 0.930 . S
H39 C17 0.929 . S
Nd40 C42 2.836 . S
Nd40 O60 2.500 . S
Nd40 O61 2.492 . S
Nd40 O62 2.487 . S
Nd40 O63 2.682 1_565 S
Nd40 O64 2.410 1_565 S
Nd40 O69 2.414 . S
Nd40 O71 2.424 . S
Nd41 C51 2.836 . S
Nd41 O63 2.414 . S
Nd41 O65 2.424 . S
Nd41 O66 2.500 . S
Nd41 O67 2.492 . S
Nd41 O68 2.487 . S
Nd41 O69 2.682 1_545 S
Nd41 O70 2.410 . S
C42 Nd40 2.836 . S
C42 C43 1.498 . S
C42 O60 1.258 . S
C42 O61 1.239 . S
C43 C42 1.498 . S
C43 C44 1.366 . S
C43 C48 1.407 . S
C44 C43 1.366 . S
C44 C45 1.392 . S
C44 H72 0.930 . S
C45 C44 1.392 . S
C45 C46 1.398 . S
C45 H73 0.929 . S
C46 C45 1.398 . S
C46 C47 1.352 . S
C47 C46 1.352 . S
C47 C48 1.384 . S
C47 H74 0.930 . S
C48 C43 1.407 . S
C48 C47 1.384 . S
C48 H75 0.929 . S
C49 O62 1.241 . S
C49 O63 1.273 1_565 S
C50 O64 1.251 . S
C50 O65 1.268 . S
C51 Nd41 2.836 . S
C51 C52 1.498 . S
C51 O66 1.258 . S
C51 O67 1.239 . S
C52 C51 1.498 . S
C52 C53 1.366 . S
C52 C57 1.407 . S
C53 C52 1.366 . S
C53 C54 1.392 . S
C53 H76 0.930 . S
C54 C53 1.392 . S
C54 C55 1.398 . S
C54 H77 0.929 . S
C55 C54 1.398 . S
C55 C56 1.352 . S
C56 C55 1.352 . S
C56 C57 1.384 . S
C56 H78 0.930 . S
C57 C52 1.407 . S
C57 C56 1.384 . S
C57 H79 0.929 . S
C58 O68 1.241 . S
C58 O69 1.273 1_545 S
C59 O70 1.251 1_565 S
C59 O71 1.268 . S
O60 Nd40 2.500 . S
O60 C42 1.258 . S
O61 Nd40 2.492 . S
O61 C42 1.239 . S
O62 Nd40 2.487 . S
O62 C49 1.241 . S
O63 Nd40 2.682 1_545 S
O63 Nd41 2.414 . S
O63 C49 1.273 1_545 S
O64 Nd40 2.410 1_545 S
O64 C50 1.251 . S
O65 Nd41 2.424 . S
O65 C50 1.268 . S
O66 Nd41 2.500 . S
O66 C51 1.258 . S
O67 Nd41 2.492 . S
O67 C51 1.239 . S
O68 Nd41 2.487 . S
O68 C58 1.241 . S
O69 Nd40 2.414 . S
O69 Nd41 2.682 1_565 S
O69 C58 1.273 1_565 S
O70 Nd41 2.410 . S
O70 C59 1.251 1_545 S
O71 Nd40 2.424 . S
O71 C59 1.268 . S
H72 C44 0.930 . S
H73 C45 0.929 . S
H74 C47 0.930 . S
H75 C48 0.929 . S
H76 C53 0.930 . S
H77 C54 0.929 . S
H78 C56 0.930 . S
H79 C57 0.929 . S
Nd80 C82 2.836 . S
Nd80 O100 2.500 . S
Nd80 O101 2.492 . S
Nd80 O102 2.487 . S
Nd80 O103 2.682 . S
Nd80 O104 2.410 . S
Nd80 O109 2.414 . S
Nd80 O111 2.424 . S
Nd81 C91 2.836 . S
Nd81 O103 2.414 . S
Nd81 O105 2.424 . S
Nd81 O106 2.500 . S
Nd81 O107 2.492 . S
Nd81 O108 2.487 1_565 S
Nd81 O109 2.682 . S
Nd81 O110 2.410 . S
C82 Nd80 2.836 . S
C82 C83 1.498 . S
C82 O100 1.258 . S
C82 O101 1.239 . S
C83 C82 1.498 . S
C83 C84 1.366 . S
C83 C88 1.407 . S
C84 C83 1.366 . S
C84 C85 1.392 . S
C84 H112 0.930 . S
C85 C84 1.392 . S
C85 C86 1.398 . S
C85 H113 0.929 . S
C86 C85 1.398 . S
C86 C87 1.352 . S
C87 C86 1.352 . S
C87 C88 1.384 . S
C87 H114 0.930 . S
C88 C83 1.407 . S
C88 C87 1.384 . S
C88 H115 0.929 . S
C89 O102 1.241 . S
C89 O103 1.273 . S
C90 O104 1.251 . S
C90 O105 1.268 . S
C91 Nd81 2.836 . S
C91 C92 1.498 . S
C91 O106 1.258 . S
C91 O107 1.239 . S
C92 C91 1.498 . S
C92 C93 1.366 . S
C92 C97 1.407 1_565 S
C93 C92 1.366 . S
C93 C94 1.392 . S
C93 H116 0.930 . S
C94 C93 1.392 . S
C94 C95 1.398 . S
C94 H117 0.929 . S
C95 C94 1.398 . S
C95 C96 1.352 1_565 S
C96 C95 1.352 1_545 S
C96 C97 1.384 . S
C96 H118 0.930 . S
C97 C92 1.407 1_545 S
C97 C96 1.384 . S
C97 H119 0.929 . S
C98 O108 1.241 1_565 S
C98 O109 1.273 . S
C99 O110 1.251 . S
C99 O111 1.268 . S
O100 Nd80 2.500 . S
O100 C82 1.258 . S
O101 Nd80 2.492 . S
O101 C82 1.239 . S
O102 Nd80 2.487 . S
O102 C89 1.241 . S
O103 Nd80 2.682 . S
O103 Nd81 2.414 . S
O103 C89 1.273 . S
O104 Nd80 2.410 . S
O104 C90 1.251 . S
O105 Nd81 2.424 . S
O105 C90 1.268 . S
O106 Nd81 2.500 . S
O106 C91 1.258 . S
O107 Nd81 2.492 . S
O107 C91 1.239 . S
O108 Nd81 2.487 1_545 S
O108 C98 1.241 1_545 S
O109 Nd80 2.414 . S
O109 Nd81 2.682 . S
O109 C98 1.273 . S
O110 Nd81 2.410 . S
O110 C99 1.251 . S
O111 Nd80 2.424 . S
O111 C99 1.268 . S
H112 C84 0.930 . S
H113 C85 0.929 . S
H114 C87 0.930 . S
H115 C88 0.929 . S
H116 C93 0.930 . S
H117 C94 0.929 . S
H118 C96 0.930 . S
H119 C97 0.929 . S
C120 C121 1.349 1_455 S
C120 C122 1.327 . S
C120 H145 0.950 . S
C121 C120 1.349 1_655 S
C121 C137 1.351 . S
C122 C120 1.327 . S
C122 C141 1.428 1_455 S
C122 H146 0.950 1_565 S
C123 C140 1.574 . S
C123 C142 1.367 . S
C123 H147 0.949 . S
H124 C128 0.949 . S
C125 C126 1.349 1_655 S
C125 C127 1.327 . S
C125 H148 0.950 . S
C126 C125 1.349 1_455 S
C126 C138 1.353 . S
C127 C125 1.327 . S
C127 C143 1.426 1_655 S
C127 H149 0.950 . S
C128 H124 0.949 . S
C128 C136 1.574 . S
C128 C144 1.369 . S
H129 C137 0.950 . S
H130 C135 0.950 . S
H131 C136 0.949 . S
H132 C138 0.950 . S
H133 C139 0.950 . S
H134 C140 0.949 . S
C135 H130 0.950 . S
C135 C137 1.327 . S
C135 C141 1.429 . S
C136 C128 1.574 . S
C136 H131 0.949 . S
C136 C142 1.368 1_455 S
C137 C121 1.351 . S
C137 H129 0.950 . S
C137 C135 1.327 . S
C138 C126 1.353 . S
C138 H132 0.950 . S
C138 C139 1.327 . S
C139 H133 0.950 . S
C139 C138 1.327 . S
C139 C143 1.428 . S
C140 C123 1.574 . S
C140 H134 0.949 . S
C140 C144 1.368 1_655 S
C141 C122 1.428 1_655 S
C141 C135 1.429 . S
C141 C142 1.524 1_565 S
C142 C123 1.367 . S
C142 C136 1.368 1_655 S
C142 C141 1.524 1_545 S
C143 C127 1.426 1_455 S
C143 C139 1.428 . S
C143 C144 1.524 . S
C144 C128 1.369 . S
C144 C140 1.368 1_455 S
C144 C143 1.524 . S
H145 C120 0.950 . S
H146 C122 0.950 1_545 S
H147 C123 0.949 . S
H148 C125 0.950 . S
H149 C127 0.950 . S
C150 C151 1.349 1_565 S
C150 C152 1.327 . S
C150 H175 0.950 . S
C151 C150 1.349 1_545 S
C151 C167 1.349 . S
C152 C150 1.327 . S
C152 C171 1.429 1_565 S
C152 H176 0.950 . S
C153 C170 1.574 . S
C153 C172 1.368 . S
C153 H177 0.949 . S
H154 C158 0.949 . S
C155 C156 1.349 . S
C155 C157 1.327 1_655 S
C155 H178 0.950 . S
C156 C155 1.349 . S
C156 C168 1.349 1_545 S
C157 C155 1.327 1_455 S
C157 C173 1.429 . S
C157 H179 0.950 . S
C158 H154 0.949 . S
C158 C166 1.574 . S
C158 C174 1.368 1_565 S
H159 C167 0.950 . S
H160 C165 0.950 . S
H161 C166 0.949 . S
H162 C168 0.950 . S
H163 C169 0.950 . S
H164 C170 0.949 . S
C165 H160 0.950 . S
C165 C167 1.327 . S
C165 C171 1.429 . S
C166 C158 1.574 . S
C166 H161 0.949 . S
C166 C172 1.368 1_565 S
C167 C151 1.349 . S
C167 H159 0.950 . S
C167 C165 1.327 . S
C168 C156 1.349 1_565 S
C168 H162 0.950 . S
C168 C169 1.327 . S
C169 H163 0.950 . S
C169 C168 1.327 . S
C169 C173 1.429 1_665 S
C170 C153 1.574 . S
C170 H164 0.949 . S
C170 C174 1.368 . S
C171 C152 1.429 1_545 S
C171 C165 1.429 . S
C171 C172 1.523 . S
C172 C153 1.368 . S
C172 C166 1.368 1_545 S
C172 C171 1.523 . S
C173 C157 1.429 . S
C173 C169 1.429 1_445 S
C173 C174 1.523 . S
C174 C158 1.368 1_545 S
C174 C170 1.368 . S
C174 C173 1.523 . S
H175 C150 0.950 . S
H176 C152 0.950 . S
H177 C153 0.949 . S
H178 C155 0.950 . S
H179 C157 0.950 . S
C180 C181 1.349 1_455 S
C180 C182 1.327 . S
C180 H205 0.950 . S
C181 C180 1.349 1_655 S
C181 C197 1.349 . S
C182 C180 1.327 . S
C182 C201 1.429 . S
C182 H206 0.950 . S
C183 C200 1.574 . S
C183 C202 1.368 . S
C183 H207 0.949 . S
H184 C188 0.949 . S
C185 C186 1.349 . S
C185 C187 1.327 . S
C185 H208 0.950 . S
C186 C185 1.349 . S
C186 C198 1.349 . S
C187 C185 1.327 . S
C187 C203 1.429 . S
C187 H209 0.950 . S
C188 H184 0.949 . S
C188 C196 1.574 . S
C188 C204 1.368 . S
H189 C197 0.950 . S
H190 C195 0.950 . S
H191 C196 0.949 . S
H192 C198 0.950 . S
H193 C199 0.950 . S
H194 C200 0.949 . S
C195 H190 0.950 . S
C195 C197 1.327 1_455 S
C195 C201 1.429 . S
C196 C188 1.574 . S
C196 H191 0.949 . S
C196 C202 1.368 . S
C197 C181 1.349 . S
C197 H189 0.950 . S
C197 C195 1.327 1_655 S
C198 C186 1.349 . S
C198 H192 0.950 . S
C198 C199 1.327 . S
C199 H193 0.950 . S
C199 C198 1.327 . S
C199 C203 1.429 . S
C200 C183 1.574 . S
C200 H194 0.949 . S
C200 C204 1.368 . S
C201 C182 1.429 . S
C201 C195 1.429 . S
C201 C202 1.523 . S
C202 C183 1.368 . S
C202 C196 1.368 . S
C202 C201 1.523 . S
C203 C187 1.429 . S
C203 C199 1.429 . S
C203 C204 1.523 . S
C204 C188 1.368 . S
C204 C200 1.368 . S
C204 C203 1.523 . S
H205 C180 0.950 . S
H206 C182 0.950 . S
H207 C183 0.949 . S
H208 C185 0.950 . S
H209 C187 0.950 . S
C210 C211 1.349 1_545 S
C210 C212 1.327 . S
C210 H235 0.950 . S
C211 C210 1.349 1_565 S
C211 C227 1.349 . S
C212 C210 1.327 . S
C212 C231 1.429 1_545 S
C212 H236 0.950 . S
C213 C230 1.574 . S
C213 C232 1.368 . S
C213 H237 0.949 . S
H214 C218 0.949 1_544 S
C215 C216 1.349 . S
C215 C217 1.327 . S
C215 H238 0.950 . S
C216 C215 1.349 . S
C216 C228 1.349 . S
C217 C215 1.327 . S
C217 C233 1.429 . S
C217 H239 0.950 . S
C218 H214 0.949 1_566 S
C218 C226 1.574 1_565 S
C218 C234 1.374 . S
H219 C227 0.950 . S
H220 C225 0.950 . S
H221 C226 0.949 . S
H222 C228 0.950 . S
H223 C229 0.950 1_545 S
H224 C230 0.949 . S
C225 H220 0.950 . S
C225 C227 1.327 . S
C225 C231 1.429 . S
C226 C218 1.574 1_545 S
C226 H221 0.949 . S
C226 C232 1.368 1_545 S
C227 C211 1.349 . S
C227 H219 0.950 . S
C227 C225 1.327 . S
C228 C216 1.349 . S
C228 H222 0.950 . S
C228 C229 1.327 . S
C229 H223 0.950 1_565 S
C229 C228 1.327 . S
C229 C233 1.429 . S
C230 C213 1.574 . S
C230 H224 0.949 . S
C230 C234 1.384 . S
C231 C212 1.429 1_565 S
C231 C225 1.429 . S
C231 C232 1.523 . S
C232 C213 1.368 . S
C232 C226 1.368 1_565 S
C232 C231 1.523 . S
C233 C217 1.429 . S
C233 C229 1.429 . S
C233 C234 1.497 1_554 S
C234 C218 1.374 . S
C234 C230 1.384 . S
C234 C233 1.497 1_556 S
H235 C210 0.950 . S
H236 C212 0.950 . S
H237 C213 0.949 . S
H238 C215 0.950 . S
H239 C217 0.950 . S
C240 C241 1.349 . S
C240 C242 1.327 . S
C240 H265 0.950 . S
C241 C240 1.349 . S
C241 C257 1.349 . S
C242 C240 1.327 . S
C242 C261 1.429 . S
C242 H266 0.950 . S
C243 C260 1.574 . S
C243 C262 1.368 . S
C243 H267 0.949 . S
H244 C248 0.949 . S
C245 C246 1.349 . S
C245 C247 1.327 . S
C245 H268 0.950 . S
C246 C245 1.349 . S
C246 C258 1.349 . S
C247 C245 1.327 . S
C247 C263 1.429 . S
C247 H269 0.950 . S
C248 H244 0.949 . S
C248 C256 1.574 . S
C248 C264 1.368 . S
H249 C257 0.950 . S
H250 C255 0.950 . S
H251 C256 0.949 . S
H252 C258 0.950 . S
H253 C259 0.950 . S
H254 C260 0.949 . S
C255 H250 0.950 . S
C255 C257 1.327 . S
C255 C261 1.429 . S
C256 C248 1.574 . S
C256 H251 0.949 . S
C256 C262 1.368 . S
C257 C241 1.349 . S
C257 H249 0.950 . S
C257 C255 1.327 . S
C258 C246 1.349 . S
C258 H252 0.950 . S
C258 C259 1.327 . S
C259 H253 0.950 . S
C259 C258 1.327 . S
C259 C263 1.429 . S
C260 C243 1.574 . S
C260 H254 0.949 . S
C260 C264 1.368 . S
C261 C242 1.429 . S
C261 C255 1.429 . S
C261 C262 1.523 . S
C262 C243 1.368 . S
C262 C256 1.368 . S
C262 C261 1.523 . S
C263 C247 1.429 . S
C263 C259 1.429 . S
C263 C264 1.523 . S
C264 C248 1.368 . S
C264 C260 1.368 . S
C264 C263 1.523 . S
H265 C240 0.950 . S
H266 C242 0.950 . S
H267 C243 0.949 . S
H268 C245 0.950 . S
H269 C247 0.950 . S
C270 C271 1.349 . S
C270 C272 1.327 . S
C270 H295 0.950 . S
C271 C270 1.349 . S
C271 C287 1.349 . S
C272 C270 1.327 . S
C272 C291 1.429 . S
C272 H296 0.950 . S
C273 C290 1.574 . S
C273 C292 1.368 . S
C273 H297 0.949 . S
H274 C278 0.949 1_545 S
C275 C276 1.349 . S
C275 C277 1.327 . S
C275 H298 0.950 . S
C276 C275 1.349 . S
C276 C288 1.349 . S
C277 C275 1.327 . S
C277 C293 1.429 . S
C277 H299 0.950 . S
C278 H274 0.949 1_565 S
C278 C286 1.574 . S
C278 C294 1.368 . S
H279 C287 0.950 . S
H280 C285 0.950 . S
H281 C286 0.949 1_545 S
H282 C288 0.950 1_545 S
H283 C289 0.950 1_545 S
H284 C290 0.949 . S
C285 H280 0.950 . S
C285 C287 1.327 . S
C285 C291 1.429 . S
C286 C278 1.574 . S
C286 H281 0.949 1_565 S
C286 C292 1.368 . S
C287 C271 1.349 . S
C287 H279 0.950 . S
C287 C285 1.327 . S
C288 C276 1.349 . S
C288 H282 0.950 1_565 S
C288 C289 1.327 . S
C289 H283 0.950 1_565 S
C289 C288 1.327 . S
C289 C293 1.429 . S
C290 C273 1.574 . S
C290 H284 0.949 . S
C290 C294 1.368 . S
C291 C272 1.429 . S
C291 C285 1.429 . S
C291 C292 1.523 . S
C292 C273 1.368 . S
C292 C286 1.368 . S
C292 C291 1.523 . S
C293 C277 1.429 . S
C293 C289 1.429 . S
C293 C294 1.523 . S
C294 C278 1.368 . S
C294 C290 1.368 . S
C294 C293 1.523 . S
H295 C270 0.950 . S
H296 C272 0.950 . S
H297 C273 0.949 . S
H298 C275 0.950 . S
H299 C277 0.950 . S
C300 C301 1.349 . S
C300 C302 1.327 . S
C300 H325 0.950 . S
C301 C300 1.349 . S
C301 C317 1.349 . S
C302 C300 1.327 . S
C302 C321 1.429 . S
C302 H326 0.950 . S
C303 C320 1.574 1_556 S
C303 C322 1.368 . S
C303 H327 0.949 . S
H304 C308 0.949 . S
C305 C306 1.349 . S
C305 C307 1.327 . S
C305 H328 0.950 . S
C306 C305 1.349 . S
C306 C318 1.349 . S
C307 C305 1.327 . S
C307 C323 1.429 . S
C307 H329 0.950 . S
C308 H304 0.949 . S
C308 C316 1.574 1_554 S
C308 C324 1.368 . S
H309 C317 0.950 . S
H310 C315 0.950 . S
H311 C316 0.949 . S
H312 C318 0.950 1_455 S
H313 C319 0.950 1_455 S
H314 C320 0.949 . S
C315 H310 0.950 . S
C315 C317 1.327 . S
C315 C321 1.429 . S
C316 C308 1.574 1_556 S
C316 H311 0.949 . S
C316 C322 1.368 . S
C317 C301 1.349 . S
C317 H309 0.950 . S
C317 C315 1.327 . S
C318 C306 1.349 . S
C318 H312 0.950 1_655 S
C318 C319 1.327 . S
C319 H313 0.950 1_655 S
C319 C318 1.327 . S
C319 C323 1.429 . S
C320 C303 1.574 1_554 S
C320 H314 0.949 . S
C320 C324 1.368 . S
C321 C302 1.429 . S
C321 C315 1.429 . S
C321 C322 1.523 . S
C322 C303 1.368 . S
C322 C316 1.368 . S
C322 C321 1.523 . S
C323 C307 1.429 . S
C323 C319 1.429 . S
C323 C324 1.523 . S
C324 C308 1.368 . S
C324 C320 1.368 . S
C324 C323 1.523 . S
H325 C300 0.950 . S
H326 C302 0.950 . S
H327 C303 0.949 . S
H328 C305 0.950 . S
H329 C307 0.950 . S
C330 C331 1.349 . S
C330 C332 1.327 . S
C330 H355 0.950 . S
C331 C330 1.349 . S
C331 C347 1.349 . S
C332 C330 1.327 . S
C332 C351 1.429 . S
C332 H356 0.950 . S
C333 C350 1.574 . S
C333 C352 1.368 . S
C333 H357 0.949 . S
H334 C338 0.949 . S
C335 C336 1.349 . S
C335 C337 1.327 . S
C335 H358 0.950 . S
C336 C335 1.349 . S
C336 C348 1.349 . S
C337 C335 1.327 . S
C337 C353 1.429 . S
C337 H359 0.950 . S
C338 H334 0.949 . S
C338 C346 1.574 . S
C338 C354 1.368 . S
H339 C347 0.950 . S
H340 C345 0.950 . S
H341 C346 0.949 . S
H342 C348 0.950 . S
H343 C349 0.950 . S
H344 C350 0.949 . S
C345 H340 0.950 . S
C345 C347 1.327 . S
C345 C351 1.429 . S
C346 C338 1.574 . S
C346 H341 0.949 . S
C346 C352 1.368 . S
C347 C331 1.349 . S
C347 H339 0.950 . S
C347 C345 1.327 . S
C348 C336 1.349 . S
C348 H342 0.950 . S
C348 C349 1.327 . S
C349 H343 0.950 . S
C349 C348 1.327 . S
C349 C353 1.429 . S
C350 C333 1.574 . S
C350 H344 0.949 . S
C350 C354 1.368 . S
C351 C332 1.429 . S
C351 C345 1.429 . S
C351 C352 1.523 . S
C352 C333 1.368 . S
C352 C346 1.368 . S
C352 C351 1.523 . S
C353 C337 1.429 . S
C353 C349 1.429 . S
C353 C354 1.523 . S
C354 C338 1.368 . S
C354 C350 1.368 . S
C354 C353 1.523 . S
H355 C330 0.950 . S
H356 C332 0.950 . S
H357 C333 0.949 . S
H358 C335 0.950 . S
H359 C337 0.950 . S
C360 C361 1.349 . S
C360 C362 1.327 . S
C360 H385 0.950 1_655 S
C361 C360 1.349 . S
C361 C377 1.349 . S
C362 C360 1.327 . S
C362 C381 1.429 . S
C362 H386 0.950 1_655 S
C363 C380 1.574 . S
C363 C382 1.368 . S
C363 H387 0.949 . S
H364 C368 0.949 1_455 S
C365 C366 1.349 . S
C365 C367 1.327 . S
C365 H388 0.950 . S
C366 C365 1.349 . S
C366 C378 1.349 . S
C367 C365 1.327 . S
C367 C383 1.429 . S
C367 H389 0.950 . S
C368 H364 0.949 1_655 S
C368 C376 1.574 . S
C368 C384 1.368 . S
H369 C377 0.950 . S
H370 C375 0.950 . S
H371 C376 0.949 1_455 S
H372 C378 0.950 . S
H373 C379 0.950 1_455 S
H374 C380 0.949 . S
C375 H370 0.950 . S
C375 C377 1.327 . S
C375 C381 1.429 . S
C376 C368 1.574 . S
C376 H371 0.949 1_655 S
C376 C382 1.368 . S
C377 C361 1.349 . S
C377 H369 0.950 . S
C377 C375 1.327 . S
C378 C366 1.349 . S
C378 H372 0.950 . S
C378 C379 1.327 . S
C379 H373 0.950 1_655 S
C379 C378 1.327 . S
C379 C383 1.429 . S
C380 C363 1.574 . S
C380 H374 0.949 . S
C380 C384 1.368 . S
C381 C362 1.429 . S
C381 C375 1.429 . S
C381 C382 1.523 . S
C382 C363 1.368 . S
C382 C376 1.368 . S
C382 C381 1.523 . S
C383 C367 1.429 . S
C383 C379 1.429 . S
C383 C384 1.523 . S
C384 C368 1.368 . S
C384 C380 1.368 . S
C384 C383 1.523 . S
H385 C360 0.950 1_455 S
H386 C362 0.950 1_455 S
H387 C363 0.949 . S
H388 C365 0.950 . S
H389 C367 0.950 . S
C121 C18 1.288 . S
C126 C9 1.287 . S
C151 C49 1.390 1_545 S
C156 C58 1.390 . S
C181 C98 1.155 1_545 S
C186 C89 1.155 . S
C211 C95 0.932 . S
C216 C6 0.933 . S
C241 C50 1.911 . S
C246 C15 1.891 . S
C271 C90 2.313 . S
C276 C59 2.310 . S
C301 C99 2.202 . S
C306 C10 2.185 . S
C331 C19 1.401 . S
C336 C46 1.365 . S
C361 C86 0.905 . S
C366 C55 0.908 . S
