# Generated by pormake.
# Topology vbm, (6)-cn, num edge types: 1
# Building blocks:
#     Node 0, Type 0, BuildingBlock: BETDEL_clean_sbu_0, # of connection points: 6
#     Node 1, Type 0, BuildingBlock: BETDEL_clean_sbu_0, # of connection points: 6
#     Node 2, Type 0, BuildingBlock: BETDEL_clean_sbu_0, # of connection points: 6
#     Node 3, Type 0, BuildingBlock: BETDEL_clean_sbu_0, # of connection points: 6
#     Node 4, Type 0, BuildingBlock: BETDEL_clean_sbu_0, # of connection points: 6
#     Node 5, Type 0, BuildingBlock: BETDEL_clean_sbu_0, # of connection points: 6
#     Node 6, Type 0, BuildingBlock: BETDEL_clean_sbu_0, # of connection points: 6
#     Node 7, Type 0, BuildingBlock: BETDEL_clean_sbu_0, # of connection points: 6
#     Node 8, Type 0, BuildingBlock: BETDEL_clean_sbu_0, # of connection points: 6
#     Node 9, Type 0, BuildingBlock: BETDEL_clean_sbu_0, # of connection points: 6
#     Node 10, Type 0, BuildingBlock: BETDEL_clean_sbu_0, # of connection points: 6
#     Node 11, Type 0, BuildingBlock: BETDEL_clean_sbu_0, # of connection points: 6
#     Node 12, Type 0, BuildingBlock: BETDEL_clean_sbu_0, # of connection points: 6
#     Node 13, Type 0, BuildingBlock: BETDEL_clean_sbu_0, # of connection points: 6
#     Node 14, Type 0, BuildingBlock: BETDEL_clean_sbu_0, # of connection points: 6
#     Node 15, Type 0, BuildingBlock: BETDEL_clean_sbu_0, # of connection points: 6
#     Edge 16, Type (0, 0), BuildingBlock: XIVTED_clean_linker_0, # of connection points: 2
#     Edge 17, Type (0, 0), BuildingBlock: XIVTED_clean_linker_0, # of connection points: 2
#     Edge 18, Type (0, 0), BuildingBlock: XIVTED_clean_linker_0, # of connection points: 2
#     Edge 19, Type (0, 0), BuildingBlock: XIVTED_clean_linker_0, # of connection points: 2
#     Edge 20, Type (0, 0), BuildingBlock: XIVTED_clean_linker_0, # of connection points: 2
#     Edge 21, Type (0, 0), BuildingBlock: XIVTED_clean_linker_0, # of connection points: 2
#     Edge 22, Type (0, 0), BuildingBlock: XIVTED_clean_linker_0, # of connection points: 2
#     Edge 23, Type (0, 0), BuildingBlock: XIVTED_clean_linker_0, # of connection points: 2
#     Edge 24, Type (0, 0), BuildingBlock: XIVTED_clean_linker_0, # of connection points: 2
#     Edge 25, Type (0, 0), BuildingBlock: XIVTED_clean_linker_0, # of connection points: 2
#     Edge 26, Type (0, 0), BuildingBlock: XIVTED_clean_linker_0, # of connection points: 2
#     Edge 27, Type (0, 0), BuildingBlock: XIVTED_clean_linker_0, # of connection points: 2
#     Edge 28, Type (0, 0), BuildingBlock: XIVTED_clean_linker_0, # of connection points: 2
#     Edge 29, Type (0, 0), BuildingBlock: XIVTED_clean_linker_0, # of connection points: 2
#     Edge 30, Type (0, 0), BuildingBlock: XIVTED_clean_linker_0, # of connection points: 2
#     Edge 31, Type (0, 0), BuildingBlock: XIVTED_clean_linker_0, # of connection points: 2
#     Edge 32, Type (0, 0), BuildingBlock: XIVTED_clean_linker_0, # of connection points: 2
#     Edge 33, Type (0, 0), BuildingBlock: XIVTED_clean_linker_0, # of connection points: 2
#     Edge 34, Type (0, 0), BuildingBlock: XIVTED_clean_linker_0, # of connection points: 2
#     Edge 35, Type (0, 0), BuildingBlock: XIVTED_clean_linker_0, # of connection points: 2
#     Edge 36, Type (0, 0), BuildingBlock: XIVTED_clean_linker_0, # of connection points: 2
#     Edge 37, Type (0, 0), BuildingBlock: XIVTED_clean_linker_0, # of connection points: 2
#     Edge 38, Type (0, 0), BuildingBlock: XIVTED_clean_linker_0, # of connection points: 2
#     Edge 39, Type (0, 0), BuildingBlock: XIVTED_clean_linker_0, # of connection points: 2
#     Edge 40, Type (0, 0), BuildingBlock: XIVTED_clean_linker_0, # of connection points: 2
#     Edge 41, Type (0, 0), BuildingBlock: XIVTED_clean_linker_0, # of connection points: 2
#     Edge 42, Type (0, 0), BuildingBlock: XIVTED_clean_linker_0, # of connection points: 2
#     Edge 43, Type (0, 0), BuildingBlock: XIVTED_clean_linker_0, # of connection points: 2
#     Edge 44, Type (0, 0), BuildingBlock: XIVTED_clean_linker_0, # of connection points: 2
#     Edge 45, Type (0, 0), BuildingBlock: XIVTED_clean_linker_0, # of connection points: 2
#     Edge 46, Type (0, 0), BuildingBlock: XIVTED_clean_linker_0, # of connection points: 2
#     Edge 47, Type (0, 0), BuildingBlock: XIVTED_clean_linker_0, # of connection points: 2
#     Edge 48, Type (0, 0), BuildingBlock: XIVTED_clean_linker_0, # of connection points: 2
#     Edge 49, Type (0, 0), BuildingBlock: XIVTED_clean_linker_0, # of connection points: 2
#     Edge 50, Type (0, 0), BuildingBlock: XIVTED_clean_linker_0, # of connection points: 2
#     Edge 51, Type (0, 0), BuildingBlock: XIVTED_clean_linker_0, # of connection points: 2
#     Edge 52, Type (0, 0), BuildingBlock: XIVTED_clean_linker_0, # of connection points: 2
#     Edge 53, Type (0, 0), BuildingBlock: XIVTED_clean_linker_0, # of connection points: 2
#     Edge 54, Type (0, 0), BuildingBlock: XIVTED_clean_linker_0, # of connection points: 2
#     Edge 55, Type (0, 0), BuildingBlock: XIVTED_clean_linker_0, # of connection points: 2
#     Edge 56, Type (0, 0), BuildingBlock: XIVTED_clean_linker_0, # of connection points: 2
#     Edge 57, Type (0, 0), BuildingBlock: XIVTED_clean_linker_0, # of connection points: 2
#     Edge 58, Type (0, 0), BuildingBlock: XIVTED_clean_linker_0, # of connection points: 2
#     Edge 59, Type (0, 0), BuildingBlock: XIVTED_clean_linker_0, # of connection points: 2
#     Edge 60, Type (0, 0), BuildingBlock: XIVTED_clean_linker_0, # of connection points: 2
#     Edge 61, Type (0, 0), BuildingBlock: XIVTED_clean_linker_0, # of connection points: 2
#     Edge 62, Type (0, 0), BuildingBlock: XIVTED_clean_linker_0, # of connection points: 2
#     Edge 63, Type (0, 0), BuildingBlock: XIVTED_clean_linker_0, # of connection points: 2
# Relax obj value: 0.064
# Max RMSD: 0.120
# Mean RMSD: 0.120
data_MOF--net-vbm--node1-BETDEL_clean_sbu_0--edge1-XIVTED_clean_linker_0
_symmetry_space_group_name_H-M    P1
_symmetry_Int_Tables_number       1
_symmetry_cell_setting            triclinic
loop_
_symmetry_equiv_pos_as_xyz
'x, y, z'
_cell_length_a     58.856994
_cell_length_b     18.283024
_cell_length_c     56.799913
_cell_angle_alpha  89.97579
_cell_angle_beta   90.162036
_cell_angle_gamma 89.968963
loop_
_atom_site_label
_atom_site_type_symbol
_atom_site_fract_x
_atom_site_fract_y
_atom_site_fract_z
_atom_type_partial_charge
Dy0 Dy 0.12378 0.05356 0.15773 0.0
C1 C 0.10621 0.35984 0.15779 0.0
C2 C 0.12634 0.90457 0.16216 0.0
Dy3 Dy 0.10869 0.21076 0.16187 0.0
O4 O 0.13492 0.94235 0.145 0.0
O5 O 0.11691 0.94837 0.17721 0.0
O6 O 0.14189 0.07882 0.12439 0.0
O7 O 0.1116 0.13502 0.13201 0.0
C8 C 0.12798 0.12996 0.11769 0.0
C9 C 0.10589 0.13316 0.20204 0.0
O10 O 0.07633 0.16693 0.1474 0.0
O11 O 0.08569 0.04588 0.1547 0.0
O12 O 0.09718 0.32165 0.17461 0.0
O13 O 0.11599 0.31638 0.14287 0.0
O14 O 0.09195 0.18559 0.19657 0.0
O15 O 0.12145 0.12935 0.18692 0.0
O16 O 0.15672 0.0994 0.17076 0.0
O17 O 0.14656 0.21977 0.16326 0.0
C18 C 0.07072 0.09699 0.14882 0.0
C19 C 0.16196 0.16964 0.1686 0.0
Dy20 Dy 0.85743 0.9717 0.13033 0.0
C21 C 0.87673 0.66624 0.13239 0.0
C22 C 0.85401 0.1213 0.13285 0.0
Dy23 Dy 0.8734 0.81587 0.13491 0.0
O24 O 0.85921 0.07855 0.15033 0.0
O25 O 0.84998 0.08206 0.11428 0.0
O26 O 0.8385 0.94212 0.09783 0.0
O27 O 0.8698 0.89025 0.10467 0.0
C28 C 0.85296 0.89331 0.0907 0.0
C29 C 0.87672 0.89618 0.17447 0.0
O30 O 0.90615 0.86089 0.12238 0.0
O31 O 0.89557 0.9808 0.12982 0.0
O32 O 0.87127 0.70897 0.115 0.0
O33 O 0.88107 0.70552 0.15088 0.0
O34 O 0.89141 0.84642 0.16859 0.0
O35 O 0.86059 0.89714 0.15984 0.0
O36 O 0.82497 0.925 0.14399 0.0
O37 O 0.8355 0.80543 0.13599 0.0
C38 C 0.91117 0.93099 0.1247 0.0
C39 C 0.82002 0.85451 0.142 0.0
Dy40 Dy 0.12151 0.97927 0.40605 0.0
C41 C 0.10469 0.67017 0.41213 0.0
C42 C 0.1215 0.12766 0.40814 0.0
Dy43 Dy 0.10654 0.81481 0.40163 0.0
O44 O 0.11007 0.08469 0.42183 0.0
O45 O 0.1335 0.08968 0.39327 0.0
O46 O 0.14125 0.94915 0.4382 0.0
O47 O 0.11108 0.89267 0.43084 0.0
C48 C 0.12792 0.89635 0.44467 0.0
C49 C 0.10709 0.88005 0.35886 0.0
O50 O 0.07333 0.86471 0.41129 0.0
O51 O 0.0838 0.98307 0.40076 0.0
O52 O 0.12124 0.71381 0.41771 0.0
O53 O 0.0886 0.70605 0.40135 0.0
O54 O 0.10173 0.81158 0.36171 0.0
O55 O 0.11167 0.90585 0.37872 0.0
O56 O 0.15264 0.93393 0.38896 0.0
O57 O 0.14436 0.8127 0.39817 0.0
C58 C 0.06825 0.93391 0.40665 0.0
C59 C 0.15839 0.86382 0.39033 0.0
Dy60 Dy 0.85541 0.06958 0.37572 0.0
C61 C 0.8749 0.37496 0.37494 0.0
C62 C 0.85228 0.92019 0.37173 0.0
Dy63 Dy 0.8717 0.22536 0.3718 0.0
O64 O 0.84487 0.95866 0.38932 0.0
O65 O 0.86071 0.96365 0.35592 0.0
O66 O 0.83685 0.09702 0.40868 0.0
O67 O 0.86776 0.15012 0.40165 0.0
C68 C 0.85114 0.14654 0.41573 0.0
C69 C 0.87562 0.14578 0.33221 0.0
O70 O 0.90361 0.17945 0.38678 0.0
O71 O 0.89345 0.05936 0.37902 0.0
O72 O 0.88246 0.33555 0.35764 0.0
O73 O 0.8663 0.33234 0.39088 0.0
O74 O 0.89019 0.19535 0.33856 0.0
O75 O 0.85915 0.14467 0.34635 0.0
O76 O 0.82291 0.11738 0.36224 0.0
O77 O 0.83385 0.23695 0.36971 0.0
C78 C 0.90874 0.10912 0.38518 0.0
C79 C 0.81815 0.18804 0.36418 0.0
Dy80 Dy 0.87165 0.82164 0.87118 0.0
C81 C 0.85612 0.12967 0.86413 0.0
C82 C 0.87068 0.67309 0.86865 0.0
Dy83 Dy 0.85698 0.98529 0.87536 0.0
O84 O 0.88459 0.70998 0.88202 0.0
O85 O 0.85785 0.7172 0.85675 0.0
O86 O 0.8902 0.84917 0.83769 0.0
O87 O 0.86106 0.90794 0.84662 0.0
C88 C 0.87722 0.90397 0.83219 0.0
C89 C 0.8568 0.92567 0.91862 0.0
O90 O 0.82376 0.93414 0.86533 0.0
O91 O 0.83431 0.81763 0.87751 0.0
O92 O 0.8394 0.09474 0.87405 0.0
O93 O 0.87278 0.08521 0.85977 0.0
O94 O 0.85048 0.99249 0.9143 0.0
O95 O 0.86208 0.89499 0.8995 0.0
O96 O 0.90273 0.86422 0.88865 0.0
O97 O 0.89491 0.98599 0.87986 0.0
C98 C 0.81873 0.86522 0.87055 0.0
C99 C 0.90876 0.93391 0.88759 0.0
Dy100 Dy 0.10624 0.21174 0.90073 0.0
C101 C 0.12511 0.90596 0.90073 0.0
C102 C 0.10326 0.36105 0.90462 0.0
Dy103 Dy 0.12198 0.05536 0.90411 0.0
O104 O 0.09691 0.323 0.88648 0.0
O105 O 0.11057 0.31726 0.92098 0.0
O106 O 0.08755 0.18465 0.86727 0.0
O107 O 0.11829 0.13151 0.87502 0.0
C108 C 0.10186 0.13449 0.86078 0.0
C109 C 0.12709 0.13225 0.944 0.0
O110 O 0.15413 0.10167 0.88955 0.0
O111 O 0.14419 0.22145 0.89803 0.0
O112 O 0.13082 0.94446 0.91899 0.0
O113 O 0.11837 0.94934 0.88399 0.0
O114 O 0.14142 0.08351 0.93655 0.0
O115 O 0.11011 0.13549 0.93031 0.0
O116 O 0.07372 0.1661 0.91396 0.0
O117 O 0.08389 0.04637 0.90568 0.0
C118 C 0.15936 0.17194 0.8915 0.0
C119 C 0.06849 0.09616 0.91143 0.0
Dy120 Dy 0.87332 0.22361 0.63381 0.0
C121 C 0.8542 0.91727 0.6295 0.0
C122 C 0.87648 0.37299 0.63144 0.0
Dy123 Dy 0.85779 0.0667 0.6288 0.0
O124 O 0.87556 0.33474 0.65062 0.0
O125 O 0.87635 0.32944 0.61335 0.0
O126 O 0.89127 0.19786 0.66777 0.0
O127 O 0.86183 0.13962 0.65859 0.0
C128 C 0.87812 0.14321 0.67304 0.0
C129 C 0.85246 0.1474 0.58971 0.0
O130 O 0.82507 0.11319 0.64195 0.0
O131 O 0.83545 0.23281 0.63381 0.0
O132 O 0.85725 0.95694 0.61087 0.0
O133 O 0.85243 0.95942 0.64782 0.0
O134 O 0.8382 0.09783 0.59676 0.0
O135 O 0.86944 0.14981 0.60349 0.0
O136 O 0.90658 0.17806 0.62283 0.0
O137 O 0.89584 0.05834 0.6305 0.0
C138 C 0.82008 0.18368 0.63996 0.0
C139 C 0.91153 0.10798 0.62555 0.0
Dy140 Dy 0.1085 0.82101 0.66152 0.0
C141 C 0.1275 0.12666 0.65976 0.0
C142 C 0.10523 0.67144 0.65947 0.0
Dy143 Dy 0.12422 0.97731 0.65686 0.0
O144 O 0.10111 0.71115 0.67789 0.0
O145 O 0.11047 0.71366 0.64192 0.0
O146 O 0.08969 0.85216 0.69437 0.0
O147 O 0.12075 0.90331 0.68654 0.0
C148 C 0.10423 0.90195 0.70065 0.0
C149 C 0.12934 0.89764 0.61762 0.0
O150 O 0.15726 0.93134 0.66921 0.0
O151 O 0.14643 0.8111 0.66251 0.0
O152 O 0.13122 0.08798 0.64103 0.0
O153 O 0.12264 0.0835 0.67722 0.0
O154 O 0.14344 0.94799 0.62449 0.0
O155 O 0.11246 0.89495 0.63138 0.0
O156 O 0.07623 0.86531 0.64701 0.0
O157 O 0.08613 0.98596 0.65428 0.0
C158 C 0.16212 0.86081 0.66733 0.0
C159 C 0.07096 0.93556 0.64834 0.0
Dy160 Dy 0.62314 0.55785 0.14684 0.0
C161 C 0.6052 0.86398 0.14723 0.0
C162 C 0.62579 0.40876 0.15108 0.0
Dy163 Dy 0.60782 0.71485 0.15132 0.0
O164 O 0.63394 0.44667 0.13372 0.0
O165 O 0.61678 0.45249 0.16642 0.0
O166 O 0.64104 0.58402 0.11344 0.0
O167 O 0.61068 0.63959 0.12134 0.0
C168 C 0.62703 0.63511 0.10694 0.0
C169 C 0.60538 0.63673 0.19144 0.0
O170 O 0.57526 0.67055 0.13742 0.0
O171 O 0.58508 0.5496 0.14429 0.0
O172 O 0.5967 0.82585 0.16436 0.0
O173 O 0.61452 0.82042 0.13203 0.0
O174 O 0.59136 0.68913 0.18612 0.0
O175 O 0.62084 0.63322 0.17619 0.0
O176 O 0.65607 0.60395 0.15976 0.0
O177 O 0.64569 0.72433 0.15255 0.0
C178 C 0.56989 0.60041 0.1388 0.0
C179 C 0.66119 0.67431 0.15771 0.0
Dy180 Dy 0.35516 0.48081 0.13457 0.0
C181 C 0.3748 0.17512 0.13493 0.0
C182 C 0.35197 0.63023 0.13815 0.0
Dy183 Dy 0.37166 0.32458 0.13842 0.0
O184 O 0.34445 0.59134 0.12067 0.0
O185 O 0.36054 0.58718 0.15405 0.0
O186 O 0.33598 0.45215 0.10204 0.0
O187 O 0.36724 0.39998 0.10865 0.0
C188 C 0.3503 0.40294 0.09487 0.0
C189 C 0.37563 0.40425 0.17804 0.0
O190 O 0.40366 0.37084 0.1242 0.0
O191 O 0.39319 0.49076 0.13192 0.0
O192 O 0.38237 0.21408 0.15237 0.0
O193 O 0.36621 0.21811 0.11902 0.0
O194 O 0.39012 0.35414 0.17195 0.0
O195 O 0.35928 0.40532 0.16371 0.0
O196 O 0.32346 0.43303 0.14975 0.0
O197 O 0.33383 0.31356 0.14132 0.0
C198 C 0.40864 0.44114 0.12615 0.0
C199 C 0.31851 0.36247 0.14792 0.0
Dy200 Dy 0.62242 0.48309 0.39587 0.0
C201 C 0.60547 0.17418 0.40153 0.0
C202 C 0.62261 0.63158 0.39778 0.0
Dy203 Dy 0.60722 0.31912 0.39138 0.0
O204 O 0.61151 0.58886 0.41184 0.0
O205 O 0.6342 0.59328 0.38265 0.0
O206 O 0.64218 0.45263 0.42798 0.0
O207 O 0.6119 0.39668 0.42071 0.0
C208 C 0.62876 0.40016 0.43453 0.0
C209 C 0.60764 0.38465 0.3486 0.0
O210 O 0.57427 0.36903 0.40182 0.0
O211 O 0.58461 0.48739 0.39122 0.0
O212 O 0.62207 0.21769 0.40701 0.0
O213 O 0.58924 0.21036 0.39107 0.0
O214 O 0.60214 0.31632 0.35148 0.0
O215 O 0.61238 0.41028 0.36844 0.0
O216 O 0.65365 0.43722 0.37905 0.0
O217 O 0.64502 0.31623 0.38817 0.0
C218 C 0.56914 0.43834 0.39743 0.0
C219 C 0.65923 0.36697 0.38045 0.0
Dy220 Dy 0.35515 0.57388 0.37939 0.0
C221 C 0.37436 0.87952 0.37846 0.0
C222 C 0.35191 0.42451 0.3758 0.0
Dy223 Dy 0.37106 0.72994 0.3757 0.0
O224 O 0.34777 0.4625 0.39459 0.0
O225 O 0.35712 0.46842 0.35865 0.0
O226 O 0.33598 0.60137 0.41184 0.0
O227 O 0.36711 0.65445 0.40554 0.0
C228 C 0.35022 0.65048 0.4193 0.0
C229 C 0.37526 0.65076 0.33612 0.0
O230 O 0.40349 0.6845 0.38943 0.0
O231 O 0.39324 0.56453 0.38155 0.0
O232 O 0.37848 0.8406 0.35986 0.0
O233 O 0.36915 0.83646 0.39582 0.0
O234 O 0.38988 0.70002 0.34265 0.0
O235 O 0.35873 0.64941 0.35018 0.0
O236 O 0.32233 0.621 0.36669 0.0
O237 O 0.33312 0.7405 0.37455 0.0
C238 C 0.40861 0.61427 0.38749 0.0
C239 C 0.31746 0.69143 0.369 0.0
Dy240 Dy 0.37068 0.31856 0.87726 0.0
C241 C 0.35182 0.62396 0.87774 0.0
C242 C 0.37383 0.16897 0.88005 0.0
Dy243 Dy 0.35504 0.47454 0.88113 0.0
O244 O 0.3801 0.20839 0.86222 0.0
O245 O 0.36652 0.21151 0.89669 0.0
O246 O 0.38913 0.34738 0.84398 0.0
O247 O 0.35819 0.39931 0.85172 0.0
C248 C 0.3746 0.39694 0.8375 0.0
C249 C 0.35054 0.39748 0.92109 0.0
O250 O 0.32216 0.4285 0.86832 0.0
O251 O 0.33273 0.30861 0.87591 0.0
O252 O 0.34609 0.58526 0.89592 0.0
O253 O 0.35866 0.58077 0.86105 0.0
O254 O 0.33625 0.4469 0.91392 0.0
O255 O 0.36724 0.39392 0.90711 0.0
O256 O 0.40304 0.36327 0.89144 0.0
O257 O 0.39313 0.4834 0.8834 0.0
C258 C 0.31714 0.3582 0.87056 0.0
C259 C 0.40837 0.4333 0.88945 0.0
Dy260 Dy 0.6064 0.72853 0.89095 0.0
C261 C 0.62592 0.41467 0.89496 0.0
C262 C 0.60206 0.8738 0.90028 0.0
Dy263 Dy 0.62271 0.56342 0.89542 0.0
O264 O 0.58958 0.8376 0.88534 0.0
O265 O 0.61629 0.82995 0.91069 0.0
O266 O 0.60228 0.73 0.85091 0.0
O267 O 0.61242 0.63715 0.86842 0.0
C268 C 0.60801 0.6618 0.84836 0.0
C269 C 0.62818 0.64772 0.93376 0.0
O270 O 0.654 0.61306 0.87984 0.0
O271 O 0.64423 0.73407 0.88833 0.0
O272 O 0.62498 0.45496 0.91372 0.0
O273 O 0.62573 0.45579 0.87626 0.0
O274 O 0.64231 0.59695 0.92724 0.0
O275 O 0.61131 0.64942 0.91985 0.0
O276 O 0.57347 0.67778 0.90104 0.0
O277 O 0.58462 0.5559 0.89615 0.0
C278 C 0.65902 0.68383 0.88136 0.0
C279 C 0.56889 0.60678 0.89986 0.0
Dy280 Dy 0.37122 0.71102 0.63824 0.0
C281 C 0.35509 0.40253 0.64507 0.0
C282 C 0.37118 0.85963 0.63992 0.0
Dy283 Dy 0.35642 0.54725 0.63447 0.0
O284 O 0.38273 0.82129 0.62477 0.0
O285 O 0.36021 0.81692 0.65407 0.0
O286 O 0.39041 0.6821 0.6714 0.0
O287 O 0.36061 0.62572 0.66294 0.0
C288 C 0.37695 0.62889 0.67722 0.0
C289 C 0.35573 0.60706 0.59112 0.0
O290 O 0.32409 0.59813 0.64687 0.0
O291 O 0.33347 0.71466 0.63387 0.0
O292 O 0.33829 0.43883 0.63569 0.0
O293 O 0.37208 0.44583 0.64927 0.0
O294 O 0.34937 0.54044 0.59552 0.0
O295 O 0.3613 0.6373 0.61021 0.0
O296 O 0.40299 0.66686 0.6229 0.0
O297 O 0.39448 0.54581 0.63197 0.0
C298 C 0.31854 0.6669 0.64208 0.0
C299 C 0.40888 0.5973 0.62507 0.0
Dy300 Dy 0.60822 0.32535 0.65217 0.0
C301 C 0.62595 0.6312 0.65203 0.0
C302 C 0.6057 0.17619 0.64811 0.0
Dy303 Dy 0.62326 0.48211 0.64787 0.0
O304 O 0.59695 0.21435 0.66508 0.0
O305 O 0.61524 0.21973 0.63304 0.0
O306 O 0.59153 0.35036 0.68686 0.0
O307 O 0.62105 0.40681 0.67727 0.0
C308 C 0.6055 0.40258 0.69241 0.0
C309 C 0.62756 0.40507 0.60795 0.0
O310 O 0.65636 0.4362 0.66054 0.0
O311 O 0.64606 0.31578 0.65345 0.0
O312 O 0.63366 0.5933 0.63446 0.0
O313 O 0.61734 0.58745 0.66762 0.0
O314 O 0.64153 0.45595 0.61467 0.0
O315 O 0.61107 0.40072 0.62218 0.0
O316 O 0.57575 0.36911 0.6379 0.0
O317 O 0.58513 0.49007 0.64514 0.0
C318 C 0.66153 0.36584 0.65852 0.0
C319 C 0.57012 0.43901 0.63937 0.0
H320 H 0.20106 0.08744 0.1678 0.0
H321 H 0.28093 0.44157 0.16133 0.0
H322 H 0.17675 0.30922 0.17493 0.0
H323 H 0.3043 0.22062 0.14937 0.0
H324 H 0.24331 0.39313 0.17094 0.0
H325 H 0.24003 0.13421 0.1663 0.0
C326 C 0.20394 0.14574 0.16941 0.0
C327 C 0.18566 0.19453 0.17116 0.0
C328 C 0.25674 0.35534 0.16631 0.0
C329 C 0.22998 0.24843 0.16922 0.0
C330 C 0.27819 0.38302 0.16077 0.0
C331 C 0.29573 0.33527 0.15431 0.0
C332 C 0.25288 0.27945 0.16537 0.0
C333 C 0.29125 0.25974 0.15404 0.0
C334 C 0.22614 0.1725 0.16842 0.0
C335 C 0.19033 0.26963 0.17318 0.0
N336 N 0.27027 0.23427 0.15938 0.0
N337 N 0.212 0.2943 0.17195 0.0
H338 H 0.80583 0.71271 0.14369 0.0
H339 H 0.67583 0.81416 0.16409 0.0
H340 H 0.78168 0.93419 0.15255 0.0
H341 H 0.70038 0.59258 0.1572 0.0
H342 H 0.71479 0.85818 0.16334 0.0
H343 H 0.7678 0.66764 0.15147 0.0
C344 C 0.79253 0.75209 0.14729 0.0
C345 C 0.79694 0.82762 0.14726 0.0
C346 C 0.71172 0.79989 0.1622 0.0
C347 C 0.75319 0.77578 0.15627 0.0
C348 C 0.68945 0.77456 0.16262 0.0
C349 C 0.68484 0.69949 0.16042 0.0
C350 C 0.72957 0.74993 0.15939 0.0
C351 C 0.70317 0.65087 0.15887 0.0
C352 C 0.77078 0.72607 0.15183 0.0
C353 C 0.77902 0.87562 0.15227 0.0
N354 N 0.72477 0.67705 0.15813 0.0
N355 N 0.75787 0.84885 0.15644 0.0
H356 H 0.30261 0.83258 0.36601 0.0
H357 H 0.17276 0.72386 0.38343 0.0
H358 H 0.27828 0.60979 0.3672 0.0
H359 H 0.19622 0.94753 0.38066 0.0
H360 H 0.21079 0.68213 0.37396 0.0
H361 H 0.26352 0.87592 0.36747 0.0
C362 C 0.28903 0.79261 0.36637 0.0
C363 C 0.29376 0.71726 0.36677 0.0
C364 C 0.20767 0.74036 0.37528 0.0
C365 C 0.24887 0.76692 0.36857 0.0
C366 C 0.18591 0.76445 0.38079 0.0
C367 C 0.18131 0.83952 0.38316 0.0
C368 C 0.22513 0.7915 0.37221 0.0
C369 C 0.19902 0.8892 0.37916 0.0
C370 C 0.26669 0.81757 0.36719 0.0
C371 C 0.27545 0.66829 0.36696 0.0
N372 N 0.22024 0.86424 0.37408 0.0
N373 N 0.2538 0.69402 0.36811 0.0
H374 H 0.80391 0.32961 0.36031 0.0
H375 H 0.67306 0.22677 0.37306 0.0
H376 H 0.77868 0.10788 0.3615 0.0
H377 H 0.69771 0.44924 0.37218 0.0
H378 H 0.71117 0.1834 0.36477 0.0
H379 H 0.76499 0.3746 0.36034 0.0
C380 C 0.79018 0.29019 0.36037 0.0
C381 C 0.7946 0.21466 0.36119 0.0
C382 C 0.7083 0.24173 0.36624 0.0
C383 C 0.74987 0.26628 0.36133 0.0
C384 C 0.68649 0.26676 0.37106 0.0
C385 C 0.68219 0.34196 0.37366 0.0
C386 C 0.72613 0.29202 0.36408 0.0
C387 C 0.70027 0.39085 0.37047 0.0
C388 C 0.76793 0.31612 0.36038 0.0
C389 C 0.77609 0.16648 0.36097 0.0
N390 N 0.72153 0.36495 0.36607 0.0
N391 N 0.75452 0.19316 0.3613 0.0
H392 H 0.67281 0.8245 0.8744 0.0
H393 H 0.80442 0.72365 0.87154 0.0
H394 H 0.69815 0.60279 0.87599 0.0
H395 H 0.77916 0.94481 0.86567 0.0
H396 H 0.76563 0.67852 0.87098 0.0
H397 H 0.71135 0.86882 0.86885 0.0
C398 C 0.68648 0.78491 0.87348 0.0
C399 C 0.68223 0.70963 0.87594 0.0
C400 C 0.76851 0.73689 0.8697 0.0
C401 C 0.72658 0.76057 0.86958 0.0
C402 C 0.7907 0.76296 0.87012 0.0
C403 C 0.79508 0.83845 0.86893 0.0
C404 C 0.75041 0.78649 0.86822 0.0
C405 C 0.77658 0.88629 0.86674 0.0
C406 C 0.70852 0.81046 0.87025 0.0
C407 C 0.70062 0.66121 0.87427 0.0
N408 N 0.755 0.85949 0.86665 0.0
N409 N 0.72205 0.6876 0.87141 0.0
H410 H 0.27814 0.44097 0.87017 0.0
H411 H 0.19685 0.09052 0.87931 0.0
H412 H 0.302 0.21781 0.8667 0.0
H413 H 0.17432 0.3131 0.88965 0.0
H414 H 0.23487 0.13658 0.87016 0.0
H415 H 0.23909 0.39548 0.87218 0.0
C416 C 0.27517 0.38255 0.8695 0.0
C417 C 0.29336 0.33316 0.86854 0.0
C418 C 0.22154 0.17526 0.87435 0.0
C419 C 0.24884 0.28072 0.87106 0.0
C420 C 0.19985 0.14895 0.87961 0.0
C421 C 0.18241 0.19786 0.88546 0.0
C422 C 0.22575 0.25097 0.8749 0.0
C423 C 0.18726 0.27314 0.88544 0.0
C424 C 0.25289 0.35655 0.87078 0.0
C425 C 0.28851 0.25795 0.86774 0.0
N426 N 0.20846 0.29729 0.88033 0.0
N427 N 0.26674 0.23405 0.86919 0.0
H428 H 0.67626 0.2263 0.66543 0.0
H429 H 0.80575 0.32545 0.64085 0.0
H430 H 0.70075 0.44719 0.65662 0.0
H431 H 0.7818 0.10449 0.65135 0.0
H432 H 0.76791 0.37104 0.64921 0.0
H433 H 0.71516 0.18171 0.66366 0.0
C434 C 0.68987 0.26564 0.66335 0.0
C435 C 0.68524 0.34066 0.66089 0.0
C436 C 0.77089 0.3126 0.64978 0.0
C437 C 0.72989 0.28954 0.65867 0.0
C438 C 0.79253 0.28625 0.6449 0.0
C439 C 0.79698 0.2107 0.6452 0.0
C440 C 0.7534 0.26325 0.65493 0.0
C441 C 0.77914 0.16304 0.65079 0.0
C442 C 0.71209 0.23998 0.66233 0.0
C443 C 0.70355 0.38896 0.65853 0.0
N444 N 0.75807 0.19015 0.65532 0.0
N445 N 0.7251 0.36244 0.65721 0.0
H446 H 0.20109 0.94237 0.66347 0.0
H447 H 0.28162 0.58908 0.65788 0.0
H448 H 0.17723 0.72126 0.6735 0.0
H449 H 0.30294 0.80711 0.63861 0.0
H450 H 0.24407 0.63779 0.66771 0.0
H451 H 0.23982 0.89522 0.6594 0.0
C452 C 0.20404 0.88413 0.66521 0.0
C453 C 0.18591 0.83564 0.66859 0.0
C454 C 0.25702 0.67485 0.66133 0.0
C455 C 0.22998 0.78128 0.66366 0.0
C456 C 0.27841 0.647 0.65563 0.0
C457 C 0.29541 0.69386 0.64724 0.0
C458 C 0.25268 0.75006 0.65871 0.0
C459 C 0.29033 0.76864 0.64484 0.0
C460 C 0.2261 0.85715 0.6627 0.0
C461 C 0.19068 0.7606 0.67062 0.0
N462 N 0.26945 0.79434 0.65054 0.0
N463 N 0.21222 0.73568 0.66795 0.0
H464 H 0.10355 0.02749 0.3512 0.0
H465 H 0.13197 1.01608 0.21515 0.0
H466 H 0.112 0.82198 0.31508 0.0
H467 H 0.08174 0.16638 0.24175 0.0
H468 H 0.13249 0.95418 0.25352 0.0
H469 H 0.10324 0.09061 0.31285 0.0
C470 C 0.1055 0.99586 0.33521 0.0
C471 C 0.10773 0.91954 0.33619 0.0
C472 C 0.12134 1.00065 0.25087 0.0
C473 C 0.10784 0.99107 0.29263 0.0
C474 C 0.12097 0.03579 0.22901 0.0
C475 C 0.10651 0.09565 0.22515 0.0
C476 C 0.10772 0.02707 0.26924 0.0
C477 C 0.09297 0.11995 0.24392 0.0
C478 C 0.10521 0.03173 0.31342 0.0
C479 C 0.11013 0.8809 0.31501 0.0
N480 N 0.09405 0.08599 0.26525 0.0
N481 N 0.11034 0.91712 0.29408 0.0
H482 H 0.9119 0.12766 0.30297 0.0
H483 H 0.84065 0.96157 0.19627 0.0
H484 H 0.84071 0.07606 0.30936 0.0
H485 H 0.91218 0.91777 0.20488 0.0
H486 H 0.84033 0.02069 0.23508 0.0
H487 H 0.91242 0.06672 0.26446 0.0
C488 C 0.89639 0.10342 0.29626 0.0
C489 C 0.87623 0.10689 0.30934 0.0
C490 C 0.85608 0.99811 0.22846 0.0
C491 C 0.87662 0.03827 0.2652 0.0
C492 C 0.85631 0.96475 0.20629 0.0
C493 C 0.87647 0.93453 0.19743 0.0
C494 C 0.87626 1.00272 0.24164 0.0
C495 C 0.89626 0.94008 0.21115 0.0
C496 C 0.89672 0.06857 0.27434 0.0
C497 C 0.85662 0.07448 0.29985 0.0
N498 N 0.89571 0.97392 0.2325 0.0
N499 N 0.85724 0.04213 0.27825 0.0
H500 H 0.88083 0.99752 0.68279 0.0
H501 H 0.85469 0.02892 0.81914 0.0
H502 H 0.87539 0.20846 0.71602 0.0
H503 H 0.90047 0.86441 0.79264 0.0
H504 H 0.85526 0.08893 0.78038 0.0
H505 H 0.88099 0.93951 0.72194 0.0
C506 C 0.87946 0.03138 0.69836 0.0
C507 C 0.87801 0.10757 0.69633 0.0
C508 C 0.86523 0.03985 0.78315 0.0
C509 C 0.87791 0.04213 0.74088 0.0
C510 C 0.86494 1.00571 0.80522 0.0
C511 C 0.87774 0.94206 0.80916 0.0
C512 C 0.87783 1.00878 0.76472 0.0
C513 C 0.89049 0.91369 0.7904 0.0
C514 C 0.87972 0.99847 0.72061 0.0
C515 C 0.87659 0.14943 0.71697 0.0
N516 N 0.89002 0.94674 0.76892 0.0
N517 N 0.87633 0.11614 0.73843 0.0
H518 H 0.06591 0.11878 0.83071 0.0
H519 H 0.13948 0.96949 0.72343 0.0
H520 H 0.1373 0.07 0.83765 0.0
H521 H 0.0682 0.91958 0.73029 0.0
H522 H 0.13884 0.02558 0.7627 0.0
H523 H 0.06617 0.06324 0.79133 0.0
C524 C 0.08161 0.09632 0.82393 0.0
C525 C 0.1016 0.09887 0.83741 0.0
C526 C 0.12335 1.00239 0.75557 0.0
C527 C 0.10212 0.0367 0.79235 0.0
C528 C 0.12367 0.97078 0.73315 0.0
C529 C 0.10388 0.93959 0.7237 0.0
C530 C 0.10299 1.00415 0.7684 0.0
C531 C 0.08385 0.9427 0.73702 0.0
C532 C 0.08175 0.0646 0.80152 0.0
C533 C 0.1215 0.06891 0.82784 0.0
N534 N 0.08388 0.97473 0.75866 0.0
N535 N 0.12132 0.03967 0.8058 0.0
H536 H 0.60415 0.53218 0.34083 0.0
H537 H 0.63162 0.51977 0.20447 0.0
H538 H 0.61232 0.32642 0.3048 0.0
H539 H 0.58159 0.67022 0.23138 0.0
H540 H 0.63246 0.45822 0.24292 0.0
H541 H 0.60364 0.59505 0.30242 0.0
C542 C 0.606 0.50044 0.32485 0.0
C543 C 0.6082 0.4241 0.32588 0.0
C544 C 0.6213 0.50466 0.24032 0.0
C545 C 0.60811 0.49537 0.28223 0.0
C546 C 0.62074 0.5396 0.21841 0.0
C547 C 0.60623 0.5994 0.21461 0.0
C548 C 0.60782 0.53122 0.25879 0.0
C549 C 0.59286 0.62384 0.23349 0.0
C550 C 0.6056 0.53617 0.30302 0.0
C551 C 0.61048 0.38535 0.3047 0.0
N552 N 0.59411 0.59009 0.25484 0.0
N553 N 0.61059 0.42143 0.28374 0.0
H554 H 0.41175 0.63075 0.30726 0.0
H555 H 0.34007 0.47245 0.19973 0.0
H556 H 0.34019 0.58379 0.31286 0.0
H557 H 0.41117 0.42226 0.20864 0.0
H558 H 0.34004 0.5309 0.2386 0.0
H559 H 0.41221 0.57043 0.26862 0.0
C560 C 0.39615 0.60768 0.30034 0.0
C561 C 0.3759 0.61224 0.31322 0.0
C562 C 0.35563 0.50706 0.23204 0.0
C563 C 0.37623 0.54449 0.26898 0.0
C564 C 0.3557 0.47407 0.20983 0.0
C565 C 0.37565 0.44225 0.20104 0.0
C566 C 0.37577 0.50961 0.24534 0.0
C567 C 0.39542 0.44587 0.21486 0.0
C568 C 0.39644 0.57319 0.27836 0.0
C569 C 0.35617 0.58131 0.3035 0.0
N570 N 0.39503 0.47934 0.23628 0.0
N571 N 0.35677 0.54937 0.28186 0.0
H572 H 0.33919 0.46177 0.81408 0.0
H573 H 0.41275 0.61543 0.70766 0.0
H574 H 0.41074 0.4148 0.80807 0.0
H575 H 0.34207 0.55866 0.69946 0.0
H576 H 0.4125 0.55908 0.74696 0.0
H577 H 0.33992 0.51647 0.77458 0.0
C578 C 0.35507 0.46341 0.80449 0.0
C579 C 0.37493 0.4335 0.81426 0.0
C580 C 0.39709 0.55879 0.73649 0.0
C581 C 0.37592 0.4965 0.76931 0.0
C582 C 0.39722 0.59091 0.71412 0.0
C583 C 0.37742 0.59159 0.70034 0.0
C584 C 0.37687 0.52871 0.74531 0.0
C585 C 0.35773 0.55908 0.70951 0.0
C586 C 0.35545 0.49419 0.78194 0.0
C587 C 0.39505 0.43696 0.80109 0.0
N588 N 0.35788 0.52964 0.73153 0.0
N589 N 0.39508 0.46828 0.77934 0.0
H590 H 0.6164 0.71898 0.80512 0.0
H591 H 0.58084 0.36949 0.73181 0.0
H592 H 0.60155 0.51539 0.84006 0.0
H593 H 0.63194 0.51825 0.70616 0.0
H594 H 0.58261 0.43009 0.77039 0.0
H595 H 0.61668 0.65456 0.76721 0.0
C596 C 0.6133 0.66059 0.80478 0.0
C597 C 0.60916 0.62217 0.82571 0.0
C598 C 0.5934 0.44935 0.75627 0.0
C599 C 0.60887 0.54869 0.78244 0.0
C600 C 0.59233 0.41515 0.73424 0.0
C601 C 0.60614 0.4393 0.71569 0.0
C602 C 0.60798 0.50924 0.75959 0.0
C603 C 0.62081 0.49842 0.71988 0.0
C604 C 0.61351 0.62394 0.78319 0.0
C605 C 0.60514 0.54666 0.82433 0.0
N606 N 0.62117 0.5319 0.7413 0.0
N607 N 0.60481 0.51241 0.803 0.0
H608 H 0.16369 0.14531 0.97247 0.0
H609 H 0.09129 0.17631 0.0911 0.0
H610 H 0.09094 0.17227 0.97216 0.0
H611 H 0.16349 0.13801 0.08779 0.0
H612 H 0.09086 0.19566 0.04815 0.0
H613 H 0.16407 0.16436 1.0149 0.0
C614 C 0.14779 0.15629 0.98137 0.0
C615 C 0.12725 0.15652 0.96885 0.0
C616 C 0.10683 0.18416 0.05692 0.0
C617 C 0.12741 0.17697 0.01775 0.0
C618 C 0.1071 0.17353 0.08141 0.0
C619 C 0.12744 0.15486 0.09291 0.0
C620 C 0.12708 0.17645 0.04401 0.0
C621 C 0.1474 0.15157 0.07956 0.0
C622 C 0.14798 0.16698 1.00565 0.0
C623 C 0.10714 0.17152 0.98122 0.0
N624 N 0.14668 0.16162 0.0559 0.0
N625 N 0.10766 0.18005 1.0051 0.0
H626 H 0.88916 0.84641 0.94293 0.0
H627 H 0.81672 0.88087 0.06179 0.0
H628 H 0.82145 0.93416 0.94828 0.0
H629 H 0.88949 0.85408 0.0627 0.0
H630 H 0.81685 0.86637 0.01915 0.0
H631 H 0.88821 0.81756 0.98549 0.0
C632 C 0.87388 0.85739 0.95292 0.0
C633 C 0.8553 0.89234 0.94222 0.0
C634 C 0.83282 0.86272 0.02861 0.0
C635 C 0.8541 0.86021 0.99047 0.0
C636 C 0.83273 0.87072 0.05299 0.0
C637 C 0.85314 0.86965 0.06575 0.0
C638 C 0.85351 0.85427 0.01665 0.0
C639 C 0.87338 0.85558 0.05346 0.0
C640 C 0.87342 0.84167 0.97716 0.0
C641 C 0.8361 0.90707 0.95591 0.0
N642 N 0.87312 0.84958 0.02948 0.0
N643 N 0.83602 0.89116 0.97924 0.0
H644 H 0.0921 0.84597 0.47141 0.0
H645 H 0.1658 0.88281 0.58926 0.0
H646 H 0.16413 0.88795 0.47396 0.0
H647 H 0.09312 0.85418 0.58996 0.0
H648 H 0.16588 0.86087 0.54695 0.0
H649 H 0.09245 0.82585 0.51428 0.0
C650 C 0.10806 0.84925 0.48091 0.0
C651 C 0.1281 0.86939 0.46923 0.0
C652 C 0.14988 0.85844 0.55627 0.0
C653 C 0.12861 0.84704 0.51807 0.0
C654 C 0.14986 0.87078 0.58048 0.0
C655 C 0.12941 0.87107 0.59304 0.0
C656 C 0.12923 0.84732 0.54432 0.0
C657 C 0.10925 0.85462 0.58086 0.0
C658 C 0.10823 0.83821 0.50537 0.0
C659 C 0.14827 0.87325 0.48233 0.0
N660 N 0.1096 0.84457 0.55705 0.0
N661 N 0.14797 0.8629 0.506 0.0
H662 H 0.81587 0.16325 0.5614 0.0
H663 H 0.88795 0.19135 0.44237 0.0
H664 H 0.88876 0.18565 0.5614 0.0
H665 H 0.81576 0.15354 0.44596 0.0
H666 H 0.88859 0.21 0.48533 0.0
H667 H 0.81545 0.1817 0.51893 0.0
C668 C 0.8318 0.17321 0.55243 0.0
C669 C 0.85237 0.17232 0.5649 0.0
C670 C 0.87258 0.19869 0.47664 0.0
C671 C 0.85216 0.19198 0.51592 0.0
C672 C 0.87219 0.18843 0.45212 0.0
C673 C 0.85178 0.17024 0.44066 0.0
C674 C 0.85238 0.19114 0.48963 0.0
C675 C 0.83189 0.16679 0.45412 0.0
C676 C 0.83158 0.18349 0.52812 0.0
C677 C 0.87251 0.1859 0.55242 0.0
N678 N 0.83273 0.17656 0.47781 0.0
N679 N 0.87195 0.19409 0.52851 0.0
H680 H 0.59048 0.68287 0.08036 0.0
H681 H 0.66442 0.66634 0.9624 0.0
H682 H 0.66278 0.64657 0.07748 0.0
H683 H 0.59143 0.68505 0.96144 0.0
H684 H 0.66418 0.68366 1.00494 0.0
H685 H 0.59046 0.70644 0.03761 0.0
C686 C 0.60639 0.68138 0.07082 0.0
C687 C 0.62665 0.66205 0.08236 0.0
C688 C 0.64817 0.685 0.99552 0.0
C689 C 0.62677 0.68862 0.0337 0.0
C690 C 0.64834 0.67546 0.97117 0.0
C691 C 0.62793 0.67368 0.95844 0.0
C692 C 0.62738 0.69171 1.00745 0.0
C693 C 0.60756 0.68605 0.97065 0.0
C694 C 0.60636 0.69445 0.04644 0.0
C695 C 0.64676 0.66054 0.06921 0.0
N696 N 0.60775 0.69334 0.99458 0.0
N697 N 0.64627 0.67302 0.04566 0.0
H698 H 0.38717 0.35414 0.94826 0.0
H699 H 0.31388 0.38967 0.06613 0.0
H700 H 0.31479 0.3892 0.95071 0.0
H701 H 0.38658 0.36136 0.06714 0.0
H702 H 0.31379 0.36898 0.02377 0.0
H703 H 0.38732 0.33695 0.9913 0.0
C704 C 0.37127 0.35668 0.95779 0.0
C705 C 0.35095 0.37382 0.946 0.0
C706 C 0.32981 0.36641 0.03316 0.0
C707 C 0.35098 0.35473 0.99502 0.0
C708 C 0.32983 0.37805 0.05741 0.0
C709 C 0.35027 0.37788 0.0701 0.0
C710 C 0.35045 0.35551 0.02128 0.0
C711 C 0.37044 0.36206 0.05795 0.0
C712 C 0.37137 0.34726 0.98233 0.0
C713 C 0.33086 0.37681 0.95915 0.0
N714 N 0.37009 0.3526 0.03411 0.0
N715 N 0.33142 0.36803 0.98287 0.0
H716 H 0.66514 0.38679 0.46334 0.0
H717 H 0.59117 0.35826 0.58096 0.0
H718 H 0.5925 0.35741 0.46208 0.0
H719 H 0.66346 0.39518 0.57863 0.0
H720 H 0.59136 0.33716 0.53809 0.0
H721 H 0.66504 0.36788 0.50581 0.0
C722 C 0.64918 0.37508 0.47203 0.0
C723 C 0.62881 0.37423 0.45923 0.0
C724 C 0.60722 0.34872 0.54706 0.0
C725 C 0.62838 0.35424 0.50817 0.0
C726 C 0.60712 0.36038 0.57151 0.0
C727 C 0.62731 0.3792 0.58326 0.0
C728 C 0.62767 0.3556 0.53444 0.0
C729 C 0.64748 0.38158 0.57021 0.0
C730 C 0.64908 0.36457 0.49634 0.0
C731 C 0.6086 0.35854 0.47134 0.0
N732 N 0.6471 0.37059 0.54658 0.0
N733 N 0.60883 0.35034 0.49523 0.0
H734 H 0.38667 0.69335 0.56744 0.0
H735 H 0.31406 0.65841 0.44829 0.0
H736 H 0.32071 0.59323 0.56106 0.0
H737 H 0.3866 0.69079 0.44748 0.0
H738 H 0.3144 0.66984 0.49104 0.0
H739 H 0.38509 0.72502 0.52509 0.0
C740 C 0.37163 0.68005 0.55728 0.0
C741 C 0.35375 0.64082 0.5676 0.0
C742 C 0.33026 0.67543 0.48158 0.0
C743 C 0.35182 0.67644 0.51964 0.0
C744 C 0.33005 0.66918 0.45714 0.0
C745 C 0.35036 0.67262 0.44438 0.0
C746 C 0.35097 0.68458 0.49355 0.0
C747 C 0.37057 0.68743 0.45673 0.0
C748 C 0.37082 0.69746 0.53316 0.0
C749 C 0.33483 0.62348 0.55371 0.0
N750 N 0.37045 0.69173 0.48074 0.0
N751 N 0.33439 0.64122 0.53052 0.0
H752 H 0.94933 0.84517 0.12243 0.0
H753 H 0.03416 0.18377 0.13789 0.0
H754 H 0.92755 0.07076 0.12447 0.0
H755 H 0.05427 0.95763 0.14539 0.0
H756 H -0.00433 0.1436 0.12819 0.0
H757 H 0.98874 0.88598 0.12544 0.0
C758 C 0.95282 0.90327 0.12321 0.0
C759 C 0.9351 0.95457 0.12345 0.0
C760 C 0.00855 0.10283 0.13189 0.0
C761 C 0.9801 1.00154 0.12709 0.0
C762 C 0.03051 0.12573 0.13746 0.0
C763 C 0.04742 0.07404 0.14264 0.0
C764 C 0.0035 0.02775 0.13143 0.0
C765 C 0.04175 0.99951 0.1417 0.0
C766 C 0.97532 0.92652 0.12505 0.0
C767 C 0.94066 0.02919 0.12447 0.0
N768 N 0.02025 0.97864 0.13627 0.0
N769 N 0.96266 0.0504 0.12642 0.0
H770 H 0.94608 0.19285 0.39564 0.0
H771 H 0.02972 0.84908 0.40812 0.0
H772 H 0.92439 0.96846 0.38778 0.0
H773 H 0.05222 0.0738 0.40561 0.0
H774 H -0.00965 0.89164 0.40534 0.0
H775 H 0.98459 0.14975 0.40377 0.0
C776 C 0.94937 0.13456 0.3957 0.0
C777 C 0.932 0.08428 0.39086 0.0
C778 C 0.00394 0.93153 0.40551 0.0
C779 C 0.97602 0.03456 0.40019 0.0
C780 C 0.02639 0.90728 0.40718 0.0
C781 C 0.04429 0.95787 0.40686 0.0
C782 C -0.00059 1.00683 0.40365 0.0
C783 C 0.03899 0.0327 0.40563 0.0
C784 C 0.97137 0.10997 0.40033 0.0
C785 C 0.93727 1.00932 0.39125 0.0
N786 N 0.01706 0.05484 0.40398 0.0
N787 N 0.95882 0.98676 0.39577 0.0
H788 H 0.03045 0.18204 0.91542 0.0
H789 H 0.94489 0.84537 0.89915 0.0
H790 H 0.05196 0.95645 0.91156 0.0
H791 H 0.92532 0.07238 0.89301 0.0
H792 H 0.98344 0.88424 0.90943 0.0
H793 H -0.00907 0.14161 0.91341 0.0
C794 C 0.02688 0.124 0.91446 0.0
C795 C 0.04456 0.07265 0.91337 0.0
C796 C 0.97064 0.92544 0.90594 0.0
C797 C -0.00059 0.02607 0.91089 0.0
C798 C 0.94864 0.90329 0.90008 0.0
C799 C 0.9319 0.95561 0.89494 0.0
C800 C 0.97588 1.0004 0.90677 0.0
C801 C 0.93771 0.02997 0.89654 0.0
C802 C 0.00432 0.10096 0.9132 0.0
C803 C 0.0389 0.9981 0.91217 0.0
N804 N 0.95922 0.05007 0.90221 0.0
N805 N 0.01682 0.9771 0.91078 0.0
H806 H 0.94995 0.19296 0.62429 0.0
H807 H 0.03387 0.85061 0.6379 0.0
H808 H 0.92762 0.96794 0.62547 0.0
H809 H 0.055 0.07569 0.6454 0.0
H810 H -0.00463 0.89269 0.62906 0.0
H811 H 0.98928 0.15081 0.62731 0.0
C812 C 0.95331 0.13474 0.62493 0.0
C813 C 0.93546 0.08396 0.62485 0.0
C814 C 0.00847 0.93282 0.63258 0.0
C815 C 0.98034 0.03544 0.62844 0.0
C816 C 0.03045 0.90882 0.63764 0.0
C817 C 0.04766 0.95963 0.64256 0.0
C818 C 0.0037 1.00813 0.63239 0.0
C819 C 0.04225 0.03444 0.64189 0.0
C820 C 0.97575 0.11071 0.62675 0.0
C821 C 0.94082 1.00914 0.62571 0.0
N822 N 0.02074 0.0564 0.63696 0.0
N823 N 0.96277 0.98719 0.6276 0.0
H824 H 0.42443 0.58147 0.12389 0.0
H825 H 0.55406 0.46062 0.13463 0.0
H826 H 0.44688 0.35659 0.12175 0.0
H827 H 0.53234 0.68608 0.1308 0.0
H828 H 0.5151 0.42189 0.12751 0.0
H829 H 0.46394 0.62104 0.12358 0.0
C830 C 0.43766 0.54033 0.12314 0.0
C831 C 0.43234 0.46549 0.12311 0.0
C832 C 0.51885 0.47984 0.12808 0.0
C833 C 0.47764 0.51061 0.12292 0.0
C834 C 0.54111 0.50211 0.13224 0.0
C835 C 0.54645 0.57683 0.13353 0.0
C836 C 0.50172 0.53258 0.12535 0.0
C837 C 0.52898 0.62793 0.13006 0.0
C838 C 0.46024 0.56306 0.12296 0.0
C839 C 0.45019 0.41482 0.12191 0.0
N840 N 0.50734 0.60482 0.1263 0.0
N841 N 0.47207 0.43832 0.12212 0.0
H842 H 0.44657 0.6983 0.39493 0.0
H843 H 0.5307 0.35427 0.40187 0.0
H844 H 0.42431 0.47374 0.3898 0.0
H845 H 0.55318 0.57845 0.3961 0.0
H846 H 0.49131 0.39723 0.402 0.0
H847 H 0.48561 0.65526 0.39993 0.0
C848 C 0.44985 0.64 0.39498 0.0
C849 C 0.43216 0.58962 0.39177 0.0
C850 C 0.5049 0.43693 0.40078 0.0
C851 C 0.47675 0.54002 0.39746 0.0
C852 C 0.52738 0.41245 0.40076 0.0
C853 C 0.54526 0.46273 0.39876 0.0
C854 C 0.50033 0.51218 0.39892 0.0
C855 C 0.53995 0.53755 0.39742 0.0
C856 C 0.47215 0.61545 0.39779 0.0
C857 C 0.43742 0.51466 0.39203 0.0
N858 N 0.51798 0.55994 0.39746 0.0
N859 N 0.45925 0.49216 0.39475 0.0
H860 H 0.44597 0.34854 0.89826 0.0
H861 H 0.53045 0.69141 0.90265 0.0
H862 H 0.42438 0.57338 0.89123 0.0
H863 H 0.55291 0.46637 0.90179 0.0
H864 H 0.49113 0.64902 0.90302 0.0
H865 H 0.48502 0.39082 0.90395 0.0
C866 C 0.4494 0.40673 0.89804 0.0
C867 C 0.4319 0.45742 0.89408 0.0
C868 C 0.50468 0.60896 0.90287 0.0
C869 C 0.47647 0.50611 0.90058 0.0
C870 C 0.52716 0.63313 0.90272 0.0
C871 C 0.54504 0.58245 0.90197 0.0
C872 C 0.50006 0.53358 0.90231 0.0
C873 C 0.5397 0.50755 0.90215 0.0
C874 C 0.47169 0.43083 0.90126 0.0
C875 C 0.43733 0.53221 0.89403 0.0
N876 N 0.51769 0.48543 0.90218 0.0
N877 N 0.45914 0.55423 0.89713 0.0
H878 H 0.44622 0.68655 0.62132 0.0
H879 H 0.53366 0.35186 0.62859 0.0
H880 H 0.42623 0.45925 0.62179 0.0
H881 H 0.55305 0.57813 0.6373 0.0
H882 H 0.49471 0.39104 0.62075 0.0
H883 H 0.48606 0.64838 0.62133 0.0
C884 C 0.45018 0.62869 0.6211 0.0
C885 C 0.43287 0.57605 0.62185 0.0
C886 C 0.50752 0.43211 0.62428 0.0
C887 C 0.47833 0.5321 0.62203 0.0
C888 C 0.52977 0.40976 0.62878 0.0
C889 C 0.54662 0.4617 0.63383 0.0
C890 C 0.50209 0.50693 0.6248 0.0
C891 C 0.54059 0.53605 0.63369 0.0
C892 C 0.47292 0.60694 0.62123 0.0
C893 C 0.43901 0.50182 0.62152 0.0
N894 N 0.5188 0.5564 0.62936 0.0
N895 N 0.46122 0.48209 0.62181 0.0
H896 H 0.10602 0.81928 0.19551 0.0
H897 H 0.127 0.44533 0.1249 0.0
H898 H 0.14231 0.80703 0.12979 0.0
H899 H 0.08999 0.45718 0.19019 0.0
H900 H 0.13262 0.57788 0.12629 0.0
H901 H 0.1005 0.68654 0.19431 0.0
C902 C 0.113 0.78846 0.18093 0.0
C903 C 0.12466 0.824 0.16273 0.0
C904 C 0.12319 0.55165 0.14028 0.0
C905 C 0.11821 0.67234 0.16107 0.0
C906 C 0.11989 0.47603 0.13942 0.0
C907 C 0.10797 0.44042 0.15743 0.0
C908 C 0.11455 0.59199 0.15933 0.0
C909 C 0.09922 0.48265 0.17592 0.0
C910 C 0.10975 0.71276 0.18019 0.0
C911 C 0.13326 0.78165 0.1442 0.0
N912 N 0.10274 0.55619 0.17643 0.0
N913 N 0.12981 0.70811 0.14381 0.0
H914 H 0.84658 0.21543 0.09631 0.0
H915 H 0.88434 0.57206 0.1689 0.0
H916 H 0.86602 0.21061 0.16953 0.0
H917 H 0.86447 0.57697 0.0958 0.0
H918 H 0.87818 0.43964 0.16939 0.0
H919 H 0.85272 0.34784 0.09584 0.0
C920 C 0.85194 0.24243 0.11236 0.0
C921 C 0.85574 0.20207 0.13301 0.0
C922 C 0.87525 0.4695 0.1532 0.0
C923 C 0.86307 0.35366 0.13257 0.0
C924 C 0.87888 0.54508 0.15288 0.0
C925 C 0.87497 0.58547 0.13226 0.0
C926 C 0.86762 0.43389 0.13272 0.0
C927 C 0.86776 0.54784 0.11206 0.0
C928 C 0.85555 0.31801 0.11206 0.0
C929 C 0.86282 0.23973 0.15326 0.0
N930 N 0.86426 0.47425 0.11281 0.0
N931 N 0.86631 0.31333 0.15252 0.0
H932 H 0.15145 0.22976 0.39141 0.0
H933 H 0.0703 0.56993 0.40892 0.0
H934 H 0.08676 0.20646 0.42612 0.0
H935 H 0.14284 0.58925 0.4181 0.0
H936 H 0.07443 0.43597 0.40822 0.0
H937 H 0.14718 0.36363 0.39352 0.0
C938 C 0.13637 0.25293 0.39938 0.0
C939 C 0.11949 0.20766 0.40873 0.0
C940 C 0.08936 0.46986 0.41053 0.0
C941 C 0.11433 0.35893 0.41078 0.0
C942 C 0.08702 0.54586 0.41096 0.0
C943 C 0.10624 0.59014 0.41373 0.0
C944 C 0.11113 0.43869 0.4122 0.0
C945 C 0.12758 0.55673 0.41614 0.0
C946 C 0.13399 0.32886 0.40067 0.0
C947 C 0.10023 0.23987 0.41889 0.0
N948 N 0.12952 0.48285 0.41503 0.0
N949 N 0.09805 0.31372 0.41947 0.0
H950 H 0.88964 0.4704 0.34115 0.0
H951 H 0.83739 0.82404 0.4051 0.0
H952 H 0.85556 0.46313 0.4082 0.0
H953 H 0.87172 0.83271 0.33821 0.0
H954 H 0.84343 0.69161 0.40623 0.0
H955 H 0.88357 0.603 0.33978 0.0
C956 C 0.88106 0.49687 0.35569 0.0
C957 C 0.87315 0.45579 0.37485 0.0
C958 C 0.84957 0.72229 0.39124 0.0
C959 C 0.86587 0.60744 0.3733 0.0
C960 C 0.84602 0.7979 0.39054 0.0
C961 C 0.85402 0.83936 0.37151 0.0
C962 C 0.86127 0.68769 0.37279 0.0
C963 C 0.86521 0.80273 0.35318 0.0
C964 C 0.8775 0.57253 0.35485 0.0
C965 C 0.86202 0.49278 0.39314 0.0
N966 N 0.86857 0.72907 0.3543 0.0
N967 N 0.85866 0.56636 0.39188 0.0
H968 H 0.89444 0.20886 0.85696 0.0
H969 H 0.83437 0.59625 0.85314 0.0
H970 H 0.82221 0.23168 0.86744 0.0
H971 H 0.90185 0.56887 0.88165 0.0
H972 H 0.83043 0.46321 0.85082 0.0
H973 H 0.89826 0.34216 0.85796 0.0
C974 C 0.87934 0.24206 0.85915 0.0
C975 C 0.85795 0.2096 0.86212 0.0
C976 C 0.84607 0.48639 0.85759 0.0
C977 C 0.86226 0.36135 0.86322 0.0
C978 C 0.84839 0.56206 0.85885 0.0
C979 C 0.86848 0.59313 0.86761 0.0
C980 C 0.86417 0.44166 0.86464 0.0
C981 C 0.88608 0.54671 0.87488 0.0
C982 C 0.88159 0.31787 0.85992 0.0
C983 C 0.83897 0.25486 0.86508 0.0
N984 N 0.88361 0.47294 0.87304 0.0
N985 N 0.84155 0.32876 0.86546 0.0
H986 H 0.11947 0.4477 0.94016 0.0
H987 H 0.10959 0.81876 0.86503 0.0
H988 H 0.09185 0.45764 0.86984 0.0
H989 H 0.13586 0.80994 0.93591 0.0
H990 H 0.10358 0.6862 0.86619 0.0
H991 H 0.12547 0.58031 0.93909 0.0
C992 C 0.11448 0.47796 0.92458 0.0
C993 C 0.1051 0.44175 0.90509 0.0
C994 C 0.11075 0.71312 0.88147 0.0
C995 C 0.11217 0.59336 0.90357 0.0
C996 C 0.11429 0.78874 0.88076 0.0
C997 C 0.12329 0.82525 0.90038 0.0
C998 C 0.11622 0.67367 0.90198 0.0
C999 C 0.12894 0.78383 0.92036 0.0
C1000 C 0.118 0.55361 0.92392 0.0
C1001 C 0.09907 0.48349 0.88529 0.0
N1002 N 0.12527 0.71035 0.92068 0.0
N1003 N 0.10277 0.55695 0.88501 0.0
H1004 H 0.85332 0.82683 0.66789 0.0
H1005 H 0.87504 0.46175 0.59255 0.0
H1006 H 0.85933 0.82478 0.59224 0.0
H1007 H 0.87315 0.46705 0.66842 0.0
H1008 H 0.86884 0.59445 0.59188 0.0
H1009 H 0.85929 0.69415 0.66833 0.0
C1010 C 0.85568 0.79826 0.65136 0.0
C1011 C 0.85578 0.83663 0.63 0.0
C1012 C 0.86988 0.56665 0.60868 0.0
C1013 C 0.86288 0.68512 0.63033 0.0
C1014 C 0.87352 0.49101 0.60905 0.0
C1015 C 0.87466 0.45357 0.63057 0.0
C1016 C 0.86728 0.60496 0.62999 0.0
C1017 C 0.87244 0.49391 0.65144 0.0
C1018 C 0.85921 0.72262 0.65161 0.0
C1019 C 0.85908 0.79715 0.6091 0.0
N1020 N 0.86878 0.5673 0.65064 0.0
N1021 N 0.86254 0.72362 0.60979 0.0
H1022 H 0.13478 0.22103 0.6234 0.0
H1023 H 0.09813 0.57788 0.69624 0.0
H1024 H 0.11582 0.21555 0.69665 0.0
H1025 H 0.11688 0.58176 0.62293 0.0
H1026 H 0.10421 0.44533 0.6968 0.0
H1027 H 0.12877 0.35339 0.6231 0.0
C1028 C 0.12954 0.24789 0.6395 0.0
C1029 C 0.12583 0.20737 0.6601 0.0
C1030 C 0.1069 0.47503 0.68055 0.0
C1031 C 0.11867 0.35896 0.65985 0.0
C1032 C 0.10333 0.55065 0.6802 0.0
C1033 C 0.10695 0.59073 0.65948 0.0
C1034 C 0.11419 0.43917 0.66003 0.0
C1035 C 0.11382 0.55285 0.63925 0.0
C1036 C 0.12601 0.32345 0.63929 0.0
C1037 C 0.11894 0.24485 0.68041 0.0
N1038 N 0.11727 0.47928 0.64004 0.0
N1039 N 0.11552 0.31851 0.67977 0.0
H1040 H 0.62505 0.9494 0.11368 0.0
H1041 H 0.60634 0.32343 0.18496 0.0
H1042 H 0.58997 0.96148 0.1801 0.0
H1043 H 0.64076 0.31118 0.11816 0.0
H1044 H 0.60066 0.19077 0.18386 0.0
H1045 H 0.63077 0.08195 0.11488 0.0
C1046 C 0.61838 0.98014 0.12842 0.0
C1047 C 0.60698 0.94458 0.14679 0.0
C1048 C 0.60954 0.21696 0.16948 0.0
C1049 C 0.61367 0.09618 0.14847 0.0
C1050 C 0.61287 0.29263 0.17016 0.0
C1051 C 0.62406 0.32816 0.15163 0.0
C1052 C 0.61743 0.17653 0.1501 0.0
C1053 C 0.63209 0.28581 0.13283 0.0
C1054 C 0.62173 0.05577 0.12916 0.0
C1055 C 0.59878 0.98689 0.16554 0.0
N1056 N 0.62857 0.21228 0.13251 0.0
N1057 N 0.60235 0.06042 0.16593 0.0
H1058 H 0.33742 0.72591 0.10432 0.0
H1059 H 0.38939 0.07944 0.16875 0.0
H1060 H 0.37112 0.71804 0.17177 0.0
H1061 H 0.35559 0.08728 0.10135 0.0
H1062 H 0.38327 0.94698 0.17 0.0
H1063 H 0.34355 0.85835 0.10308 0.0
C1064 C 0.34593 0.75223 0.11898 0.0
C1065 C 0.35372 0.71102 0.13821 0.0
C1066 C 0.37727 0.97752 0.15487 0.0
C1067 C 0.36107 0.86258 0.1368 0.0
C1068 C 0.38086 0.05311 0.1541 0.0
C1069 C 0.37304 0.09432 0.13488 0.0
C1070 C 0.36571 0.94276 0.1363 0.0
C1071 C 0.36197 0.0575 0.11646 0.0
C1072 C 0.34952 0.82782 0.11821 0.0
C1073 C 0.36477 0.74783 0.15665 0.0
N1074 N 0.35858 0.98393 0.11765 0.0
N1075 N 0.36816 0.82141 0.15546 0.0
H1076 H 0.57107 0.07373 0.39873 0.0
H1077 H 0.65209 0.73357 0.38009 0.0
H1078 H 0.64374 0.09336 0.4066 0.0
H1079 H 0.58817 0.71052 0.41631 0.0
H1080 H 0.64771 0.86746 0.38191 0.0
H1081 H 0.57526 0.93976 0.39793 0.0
C1082 C 0.58783 0.04974 0.40045 0.0
C1083 C 0.60707 0.09411 0.40291 0.0
C1084 C 0.63471 0.83274 0.38944 0.0
C1085 C 0.61201 0.94266 0.40125 0.0
C1086 C 0.63716 0.7568 0.38833 0.0
C1087 C 0.62053 0.71159 0.3982 0.0
C1088 C 0.61523 0.86288 0.39991 0.0
C1089 C 0.60144 0.74388 0.40868 0.0
C1090 C 0.59021 0.97373 0.39996 0.0
C1091 C 0.62847 0.06078 0.4049 0.0
N1092 N 0.59919 0.81772 0.40909 0.0
N1093 N 0.63042 0.98691 0.40375 0.0
H1094 H 0.36217 0.96751 0.41525 0.0
H1095 H 0.36444 0.33735 0.3388 0.0
H1096 H 0.3817 0.97485 0.34218 0.0
H1097 H 0.34421 0.32838 0.41165 0.0
H1098 H 0.3706 0.20466 0.33945 0.0
H1099 H 0.35601 0.10001 0.41438 0.0
C1100 C 0.36536 0.99719 0.39908 0.0
C1101 C 0.37251 0.96026 0.37878 0.0
C1102 C 0.36471 0.23162 0.35527 0.0
C1103 C 0.36524 0.11185 0.37752 0.0
C1104 C 0.36109 0.30729 0.35486 0.0
C1105 C 0.35375 0.34379 0.37518 0.0
C1106 C 0.36102 0.19217 0.37619 0.0
C1107 C 0.34982 0.30233 0.39556 0.0
C1108 C 0.36173 0.07279 0.39855 0.0
C1109 C 0.37625 1.00129 0.35826 0.0
N1110 N 0.35356 0.22888 0.39557 0.0
N1111 N 0.37252 0.07478 0.35813 0.0
H1112 H 0.33993 0.71887 0.91264 0.0
H1113 H 0.38578 0.07456 0.84491 0.0
H1114 H 0.36801 0.71247 0.84265 0.0
H1115 H 0.3574 0.07999 0.91478 0.0
H1116 H 0.37981 0.94201 0.84379 0.0
H1117 H 0.34581 0.8513 0.91353 0.0
C1118 C 0.34715 0.74553 0.89736 0.0
C1119 C 0.35345 0.70472 0.87752 0.0
C1120 C 0.37497 0.97205 0.85942 0.0
C1121 C 0.36051 0.85637 0.87848 0.0
C1122 C 0.37848 0.04768 0.8601 0.0
C1123 C 0.37213 0.08821 0.88 0.0
C1124 C 0.36498 0.93661 0.87877 0.0
C1125 C 0.36261 0.05074 0.89913 0.0
C1126 C 0.35061 0.82113 0.89791 0.0
C1127 C 0.36285 0.74197 0.85827 0.0
N1128 N 0.35927 0.97715 0.89802 0.0
N1129 N 0.36616 0.81563 0.85925 0.0
H1130 H 0.61504 0.3243 0.85831 0.0
H1131 H 0.62433 0.95621 0.93297 0.0
H1132 H 0.63159 0.32332 0.93232 0.0
H1133 H 0.58365 0.97335 0.86994 0.0
H1134 H 0.63069 0.08863 0.93175 0.0
H1135 H 0.6079 0.19217 0.86035 0.0
C1136 C 0.61744 0.29602 0.87489 0.0
C1137 C 0.62394 0.33438 0.89517 0.0
C1138 C 0.62019 0.06348 0.91832 0.0
C1139 C 0.61572 0.18412 0.89768 0.0
C1140 C 0.6165 0.9881 0.91906 0.0
C1141 C 0.60337 0.95414 0.90159 0.0
C1142 C 0.61105 0.10477 0.89971 0.0
C1143 C 0.59374 0.99767 0.88384 0.0
C1144 C 0.61316 0.22094 0.87611 0.0
C1145 C 0.62661 0.29552 0.91629 0.0
N1146 N 0.59798 0.07074 0.88319 0.0
N1147 N 0.62256 0.22241 0.917 0.0
H1148 H 0.40049 0.9615 0.62183 0.0
H1149 H 0.32046 0.30266 0.64387 0.0
H1150 H 0.33716 0.93882 0.65917 0.0
H1151 H 0.39341 0.32104 0.64854 0.0
H1152 H 0.32438 0.16869 0.64269 0.0
H1153 H 0.39642 0.09541 0.6241 0.0
C1154 C 0.38575 0.98482 0.6304 0.0
C1155 C 0.36921 0.93968 0.64046 0.0
C1156 C 0.33946 0.20236 0.64412 0.0
C1157 C 0.36427 0.09106 0.64272 0.0
C1158 C 0.33723 0.27839 0.64483 0.0
C1159 C 0.35662 0.32243 0.64646 0.0
C1160 C 0.36124 0.1709 0.64438 0.0
C1161 C 0.37803 0.28872 0.64748 0.0
C1162 C 0.38348 0.06078 0.63178 0.0
C1163 C 0.35037 0.97209 0.65137 0.0
N1164 N 0.3798 0.21484 0.64614 0.0
N1165 N 0.34829 0.04597 0.65206 0.0
H1166 H 0.60688 0.7168 0.6861 0.0
H1167 H 0.62576 0.0907 0.61471 0.0
H1168 H 0.64064 0.72855 0.61893 0.0
H1169 H 0.59024 0.07876 0.68089 0.0
H1170 H 0.63139 0.9581 0.61595 0.0
H1171 H 0.60132 0.84958 0.68501 0.0
C1172 C 0.6133 0.74751 0.67122 0.0
C1173 C 0.62426 0.71181 0.65259 0.0
C1174 C 0.62227 0.98432 0.63017 0.0
C1175 C 0.61776 0.86353 0.65106 0.0
C1176 C 0.61897 0.05997 0.62941 0.0
C1177 C 0.60747 0.09558 0.6477 0.0
C1178 C 0.61407 0.94393 0.64942 0.0
C1179 C 0.59913 0.05331 0.66639 0.0
C1180 C 0.61002 0.82323 0.67054 0.0
C1181 C 0.63214 0.75404 0.63368 0.0
N1182 N 0.60266 0.97974 0.66681 0.0
N1183 N 0.62869 0.82761 0.63337 0.0
loop_
_geom_bond_atom_site_label_1
_geom_bond_atom_site_label_2
_geom_bond_distance
_geom_bond_site_symmetry_2
_ccdc_geom_bond_type
Dy0 O4 2.398 . S
Dy0 O5 2.491 . S
Dy0 O6 2.403 1_565 S
Dy0 O7 2.664 1_565 S
Dy0 O11 2.326 1_565 S
Dy0 O15 2.310 1_565 S
Dy0 O16 2.351 1_565 S
C1 O12 1.185 . S
C1 O13 1.355 . S
C2 O4 1.185 . S
C2 O5 1.355 . S
Dy3 O7 2.310 . S
Dy3 O10 2.351 . S
Dy3 O12 2.398 . S
Dy3 O13 2.491 . S
Dy3 O14 2.403 . S
Dy3 O15 2.664 . S
Dy3 O17 2.326 . S
O4 Dy0 2.398 . S
O4 C2 1.185 . S
O5 Dy0 2.491 . S
O5 C2 1.355 . S
O6 Dy0 2.403 1_545 S
O6 C8 1.254 . S
O7 Dy0 2.664 1_545 S
O7 Dy3 2.310 . S
O7 C8 1.268 . S
C8 O6 1.254 . S
C8 O7 1.268 . S
C9 O14 1.254 . S
C9 O15 1.268 . S
O10 Dy3 2.351 . S
O10 C18 1.249 . S
O11 Dy0 2.326 1_545 S
O11 C18 1.267 . S
O12 C1 1.185 . S
O12 Dy3 2.398 . S
O13 C1 1.355 . S
O13 Dy3 2.491 . S
O14 Dy3 2.403 . S
O14 C9 1.254 . S
O15 Dy0 2.310 1_545 S
O15 Dy3 2.664 . S
O15 C9 1.268 . S
O16 Dy0 2.351 1_545 S
O16 C19 1.249 . S
O17 Dy3 2.326 . S
O17 C19 1.267 . S
C18 O10 1.249 . S
C18 O11 1.267 . S
C19 O16 1.249 . S
C19 O17 1.267 . S
Dy20 O24 2.398 . S
Dy20 O25 2.491 . S
Dy20 O26 2.403 1_545 S
Dy20 O27 2.664 1_545 S
Dy20 O31 2.326 1_545 S
Dy20 O35 2.310 1_545 S
Dy20 O36 2.351 1_545 S
C21 O32 1.185 . S
C21 O33 1.355 . S
C22 O24 1.185 . S
C22 O25 1.355 . S
Dy23 O27 2.310 . S
Dy23 O30 2.351 . S
Dy23 O32 2.398 . S
Dy23 O33 2.491 . S
Dy23 O34 2.403 . S
Dy23 O35 2.664 . S
Dy23 O37 2.326 . S
O24 Dy20 2.398 . S
O24 C22 1.185 . S
O25 Dy20 2.491 . S
O25 C22 1.355 . S
O26 Dy20 2.403 1_565 S
O26 C28 1.254 . S
O27 Dy20 2.664 1_565 S
O27 Dy23 2.310 . S
O27 C28 1.268 . S
C28 O26 1.254 . S
C28 O27 1.268 . S
C29 O34 1.254 . S
C29 O35 1.268 . S
O30 Dy23 2.351 . S
O30 C38 1.249 . S
O31 Dy20 2.326 1_565 S
O31 C38 1.267 . S
O32 C21 1.185 . S
O32 Dy23 2.398 . S
O33 C21 1.355 . S
O33 Dy23 2.491 . S
O34 Dy23 2.403 . S
O34 C29 1.254 . S
O35 Dy20 2.310 1_565 S
O35 Dy23 2.664 . S
O35 C29 1.268 . S
O36 Dy20 2.351 1_565 S
O36 C39 1.249 . S
O37 Dy23 2.326 . S
O37 C39 1.267 . S
C38 O30 1.249 . S
C38 O31 1.267 . S
C39 O36 1.249 . S
C39 O37 1.267 . S
Dy40 O44 2.398 . S
Dy40 O45 2.491 . S
Dy40 O46 2.403 1_545 S
Dy40 O47 2.664 1_545 S
Dy40 O51 2.326 1_545 S
Dy40 O55 2.310 1_545 S
Dy40 O56 2.351 1_545 S
C41 O52 1.185 . S
C41 O53 1.355 . S
C42 O44 1.185 . S
C42 O45 1.355 . S
Dy43 O47 2.310 . S
Dy43 O50 2.351 . S
Dy43 O52 2.398 . S
Dy43 O53 2.491 . S
Dy43 O54 2.403 . S
Dy43 O55 2.664 . S
Dy43 O57 2.326 . S
O44 Dy40 2.398 . S
O44 C42 1.185 . S
O45 Dy40 2.491 . S
O45 C42 1.355 . S
O46 Dy40 2.403 1_565 S
O46 C48 1.254 . S
O47 Dy40 2.664 1_565 S
O47 Dy43 2.310 . S
O47 C48 1.268 . S
C48 O46 1.254 . S
C48 O47 1.268 . S
C49 O54 1.254 . S
C49 O55 1.268 . S
O50 Dy43 2.351 . S
O50 C58 1.249 . S
O51 Dy40 2.326 1_565 S
O51 C58 1.267 . S
O52 C41 1.185 . S
O52 Dy43 2.398 . S
O53 C41 1.355 . S
O53 Dy43 2.491 . S
O54 Dy43 2.403 . S
O54 C49 1.254 . S
O55 Dy40 2.310 1_565 S
O55 Dy43 2.664 . S
O55 C49 1.268 . S
O56 Dy40 2.351 1_565 S
O56 C59 1.249 . S
O57 Dy43 2.326 . S
O57 C59 1.267 . S
C58 O50 1.249 . S
C58 O51 1.267 . S
C59 O56 1.249 . S
C59 O57 1.267 . S
Dy60 O64 2.398 . S
Dy60 O65 2.491 . S
Dy60 O66 2.403 1_565 S
Dy60 O67 2.664 1_565 S
Dy60 O71 2.326 1_565 S
Dy60 O75 2.310 1_565 S
Dy60 O76 2.351 1_565 S
C61 O72 1.185 . S
C61 O73 1.355 . S
C62 O64 1.185 . S
C62 O65 1.355 . S
Dy63 O67 2.310 . S
Dy63 O70 2.351 . S
Dy63 O72 2.398 . S
Dy63 O73 2.491 . S
Dy63 O74 2.403 . S
Dy63 O75 2.664 . S
Dy63 O77 2.326 . S
O64 Dy60 2.398 . S
O64 C62 1.185 . S
O65 Dy60 2.491 . S
O65 C62 1.355 . S
O66 Dy60 2.403 1_545 S
O66 C68 1.254 . S
O67 Dy60 2.664 1_545 S
O67 Dy63 2.310 . S
O67 C68 1.268 . S
C68 O66 1.254 . S
C68 O67 1.268 . S
C69 O74 1.254 . S
C69 O75 1.268 . S
O70 Dy63 2.351 . S
O70 C78 1.249 . S
O71 Dy60 2.326 1_545 S
O71 C78 1.267 . S
O72 C61 1.185 . S
O72 Dy63 2.398 . S
O73 C61 1.355 . S
O73 Dy63 2.491 . S
O74 Dy63 2.403 . S
O74 C69 1.254 . S
O75 Dy60 2.310 1_545 S
O75 Dy63 2.664 . S
O75 C69 1.268 . S
O76 Dy60 2.351 1_545 S
O76 C79 1.249 . S
O77 Dy63 2.326 . S
O77 C79 1.267 . S
C78 O70 1.249 . S
C78 O71 1.267 . S
C79 O76 1.249 . S
C79 O77 1.267 . S
Dy80 O84 2.398 . S
Dy80 O85 2.491 . S
Dy80 O86 2.403 . S
Dy80 O87 2.664 . S
Dy80 O91 2.326 . S
Dy80 O95 2.310 . S
Dy80 O96 2.351 . S
C81 O92 1.185 . S
C81 O93 1.355 . S
C82 O84 1.185 . S
C82 O85 1.355 . S
Dy83 O87 2.310 1_545 S
Dy83 O90 2.351 1_545 S
Dy83 O92 2.398 . S
Dy83 O93 2.491 . S
Dy83 O94 2.403 1_545 S
Dy83 O95 2.664 1_545 S
Dy83 O97 2.326 1_545 S
O84 Dy80 2.398 . S
O84 C82 1.185 . S
O85 Dy80 2.491 . S
O85 C82 1.355 . S
O86 Dy80 2.403 . S
O86 C88 1.254 . S
O87 Dy80 2.664 . S
O87 Dy83 2.310 1_565 S
O87 C88 1.268 . S
C88 O86 1.254 . S
C88 O87 1.268 . S
C89 O94 1.254 . S
C89 O95 1.268 . S
O90 Dy83 2.351 1_565 S
O90 C98 1.249 . S
O91 Dy80 2.326 . S
O91 C98 1.267 . S
O92 C81 1.185 . S
O92 Dy83 2.398 . S
O93 C81 1.355 . S
O93 Dy83 2.491 . S
O94 Dy83 2.403 1_565 S
O94 C89 1.254 . S
O95 Dy80 2.310 . S
O95 Dy83 2.664 1_565 S
O95 C89 1.268 . S
O96 Dy80 2.351 . S
O96 C99 1.249 . S
O97 Dy83 2.326 1_565 S
O97 C99 1.267 . S
C98 O90 1.249 . S
C98 O91 1.267 . S
C99 O96 1.249 . S
C99 O97 1.267 . S
Dy100 O104 2.398 . S
Dy100 O105 2.491 . S
Dy100 O106 2.403 . S
Dy100 O107 2.664 . S
Dy100 O111 2.326 . S
Dy100 O115 2.310 . S
Dy100 O116 2.351 . S
C101 O112 1.185 . S
C101 O113 1.355 . S
C102 O104 1.185 . S
C102 O105 1.355 . S
Dy103 O107 2.310 1_565 S
Dy103 O110 2.351 1_565 S
Dy103 O112 2.398 . S
Dy103 O113 2.491 . S
Dy103 O114 2.403 1_565 S
Dy103 O115 2.664 1_565 S
Dy103 O117 2.326 1_565 S
O104 Dy100 2.398 . S
O104 C102 1.185 . S
O105 Dy100 2.491 . S
O105 C102 1.355 . S
O106 Dy100 2.403 . S
O106 C108 1.254 . S
O107 Dy100 2.664 . S
O107 Dy103 2.310 1_545 S
O107 C108 1.268 . S
C108 O106 1.254 . S
C108 O107 1.268 . S
C109 O114 1.254 . S
C109 O115 1.268 . S
O110 Dy103 2.351 1_545 S
O110 C118 1.249 . S
O111 Dy100 2.326 . S
O111 C118 1.267 . S
O112 C101 1.185 . S
O112 Dy103 2.398 . S
O113 C101 1.355 . S
O113 Dy103 2.491 . S
O114 Dy103 2.403 1_545 S
O114 C109 1.254 . S
O115 Dy100 2.310 . S
O115 Dy103 2.664 1_545 S
O115 C109 1.268 . S
O116 Dy100 2.351 . S
O116 C119 1.249 . S
O117 Dy103 2.326 1_545 S
O117 C119 1.267 . S
C118 O110 1.249 . S
C118 O111 1.267 . S
C119 O116 1.249 . S
C119 O117 1.267 . S
Dy120 O124 2.398 . S
Dy120 O125 2.491 . S
Dy120 O126 2.403 . S
Dy120 O127 2.664 . S
Dy120 O131 2.326 . S
Dy120 O135 2.310 . S
Dy120 O136 2.351 . S
C121 O132 1.185 . S
C121 O133 1.355 . S
C122 O124 1.185 . S
C122 O125 1.355 . S
Dy123 O127 2.310 1_565 S
Dy123 O130 2.351 1_565 S
Dy123 O132 2.398 . S
Dy123 O133 2.491 . S
Dy123 O134 2.403 1_565 S
Dy123 O135 2.664 1_565 S
Dy123 O137 2.326 1_565 S
O124 Dy120 2.398 . S
O124 C122 1.185 . S
O125 Dy120 2.491 . S
O125 C122 1.355 . S
O126 Dy120 2.403 . S
O126 C128 1.254 . S
O127 Dy120 2.664 . S
O127 Dy123 2.310 1_545 S
O127 C128 1.268 . S
C128 O126 1.254 . S
C128 O127 1.268 . S
C129 O134 1.254 . S
C129 O135 1.268 . S
O130 Dy123 2.351 1_545 S
O130 C138 1.249 . S
O131 Dy120 2.326 . S
O131 C138 1.267 . S
O132 C121 1.185 . S
O132 Dy123 2.398 . S
O133 C121 1.355 . S
O133 Dy123 2.491 . S
O134 Dy123 2.403 1_545 S
O134 C129 1.254 . S
O135 Dy120 2.310 . S
O135 Dy123 2.664 1_545 S
O135 C129 1.268 . S
O136 Dy120 2.351 . S
O136 C139 1.249 . S
O137 Dy123 2.326 1_545 S
O137 C139 1.267 . S
C138 O130 1.249 . S
C138 O131 1.267 . S
C139 O136 1.249 . S
C139 O137 1.267 . S
Dy140 O144 2.398 . S
Dy140 O145 2.491 . S
Dy140 O146 2.403 . S
Dy140 O147 2.664 . S
Dy140 O151 2.326 . S
Dy140 O155 2.310 . S
Dy140 O156 2.351 . S
C141 O152 1.185 . S
C141 O153 1.355 . S
C142 O144 1.185 . S
C142 O145 1.355 . S
Dy143 O147 2.310 1_545 S
Dy143 O150 2.351 1_545 S
Dy143 O152 2.398 . S
Dy143 O153 2.491 . S
Dy143 O154 2.403 1_545 S
Dy143 O155 2.664 1_545 S
Dy143 O157 2.326 1_545 S
O144 Dy140 2.398 . S
O144 C142 1.185 . S
O145 Dy140 2.491 . S
O145 C142 1.355 . S
O146 Dy140 2.403 . S
O146 C148 1.254 . S
O147 Dy140 2.664 . S
O147 Dy143 2.310 1_565 S
O147 C148 1.268 . S
C148 O146 1.254 . S
C148 O147 1.268 . S
C149 O154 1.254 . S
C149 O155 1.268 . S
O150 Dy143 2.351 1_565 S
O150 C158 1.249 . S
O151 Dy140 2.326 . S
O151 C158 1.267 . S
O152 C141 1.185 . S
O152 Dy143 2.398 . S
O153 C141 1.355 . S
O153 Dy143 2.491 . S
O154 Dy143 2.403 1_565 S
O154 C149 1.254 . S
O155 Dy140 2.310 . S
O155 Dy143 2.664 1_565 S
O155 C149 1.268 . S
O156 Dy140 2.351 . S
O156 C159 1.249 . S
O157 Dy143 2.326 1_565 S
O157 C159 1.267 . S
C158 O150 1.249 . S
C158 O151 1.267 . S
C159 O156 1.249 . S
C159 O157 1.267 . S
Dy160 O164 2.398 . S
Dy160 O165 2.491 . S
Dy160 O166 2.403 . S
Dy160 O167 2.664 . S
Dy160 O171 2.326 . S
Dy160 O175 2.310 . S
Dy160 O176 2.351 . S
C161 O172 1.185 . S
C161 O173 1.355 . S
C162 O164 1.185 . S
C162 O165 1.355 . S
Dy163 O167 2.310 . S
Dy163 O170 2.351 . S
Dy163 O172 2.398 . S
Dy163 O173 2.491 . S
Dy163 O174 2.403 . S
Dy163 O175 2.664 . S
Dy163 O177 2.326 . S
O164 Dy160 2.398 . S
O164 C162 1.185 . S
O165 Dy160 2.491 . S
O165 C162 1.355 . S
O166 Dy160 2.403 . S
O166 C168 1.254 . S
O167 Dy160 2.664 . S
O167 Dy163 2.310 . S
O167 C168 1.268 . S
C168 O166 1.254 . S
C168 O167 1.268 . S
C169 O174 1.254 . S
C169 O175 1.268 . S
O170 Dy163 2.351 . S
O170 C178 1.249 . S
O171 Dy160 2.326 . S
O171 C178 1.267 . S
O172 C161 1.185 . S
O172 Dy163 2.398 . S
O173 C161 1.355 . S
O173 Dy163 2.491 . S
O174 Dy163 2.403 . S
O174 C169 1.254 . S
O175 Dy160 2.310 . S
O175 Dy163 2.664 . S
O175 C169 1.268 . S
O176 Dy160 2.351 . S
O176 C179 1.249 . S
O177 Dy163 2.326 . S
O177 C179 1.267 . S
C178 O170 1.249 . S
C178 O171 1.267 . S
C179 O176 1.249 . S
C179 O177 1.267 . S
Dy180 O184 2.398 . S
Dy180 O185 2.491 . S
Dy180 O186 2.403 . S
Dy180 O187 2.664 . S
Dy180 O191 2.326 . S
Dy180 O195 2.310 . S
Dy180 O196 2.351 . S
C181 O192 1.185 . S
C181 O193 1.355 . S
C182 O184 1.185 . S
C182 O185 1.355 . S
Dy183 O187 2.310 . S
Dy183 O190 2.351 . S
Dy183 O192 2.398 . S
Dy183 O193 2.491 . S
Dy183 O194 2.403 . S
Dy183 O195 2.664 . S
Dy183 O197 2.326 . S
O184 Dy180 2.398 . S
O184 C182 1.185 . S
O185 Dy180 2.491 . S
O185 C182 1.355 . S
O186 Dy180 2.403 . S
O186 C188 1.254 . S
O187 Dy180 2.664 . S
O187 Dy183 2.310 . S
O187 C188 1.268 . S
C188 O186 1.254 . S
C188 O187 1.268 . S
C189 O194 1.254 . S
C189 O195 1.268 . S
O190 Dy183 2.351 . S
O190 C198 1.249 . S
O191 Dy180 2.326 . S
O191 C198 1.267 . S
O192 C181 1.185 . S
O192 Dy183 2.398 . S
O193 C181 1.355 . S
O193 Dy183 2.491 . S
O194 Dy183 2.403 . S
O194 C189 1.254 . S
O195 Dy180 2.310 . S
O195 Dy183 2.664 . S
O195 C189 1.268 . S
O196 Dy180 2.351 . S
O196 C199 1.249 . S
O197 Dy183 2.326 . S
O197 C199 1.267 . S
C198 O190 1.249 . S
C198 O191 1.267 . S
C199 O196 1.249 . S
C199 O197 1.267 . S
Dy200 O204 2.398 . S
Dy200 O205 2.491 . S
Dy200 O206 2.403 . S
Dy200 O207 2.664 . S
Dy200 O211 2.326 . S
Dy200 O215 2.310 . S
Dy200 O216 2.351 . S
C201 O212 1.185 . S
C201 O213 1.355 . S
C202 O204 1.185 . S
C202 O205 1.355 . S
Dy203 O207 2.310 . S
Dy203 O210 2.351 . S
Dy203 O212 2.398 . S
Dy203 O213 2.491 . S
Dy203 O214 2.403 . S
Dy203 O215 2.664 . S
Dy203 O217 2.326 . S
O204 Dy200 2.398 . S
O204 C202 1.185 . S
O205 Dy200 2.491 . S
O205 C202 1.355 . S
O206 Dy200 2.403 . S
O206 C208 1.254 . S
O207 Dy200 2.664 . S
O207 Dy203 2.310 . S
O207 C208 1.268 . S
C208 O206 1.254 . S
C208 O207 1.268 . S
C209 O214 1.254 . S
C209 O215 1.268 . S
O210 Dy203 2.351 . S
O210 C218 1.249 . S
O211 Dy200 2.326 . S
O211 C218 1.267 . S
O212 C201 1.185 . S
O212 Dy203 2.398 . S
O213 C201 1.355 . S
O213 Dy203 2.491 . S
O214 Dy203 2.403 . S
O214 C209 1.254 . S
O215 Dy200 2.310 . S
O215 Dy203 2.664 . S
O215 C209 1.268 . S
O216 Dy200 2.351 . S
O216 C219 1.249 . S
O217 Dy203 2.326 . S
O217 C219 1.267 . S
C218 O210 1.249 . S
C218 O211 1.267 . S
C219 O216 1.249 . S
C219 O217 1.267 . S
Dy220 O224 2.398 . S
Dy220 O225 2.491 . S
Dy220 O226 2.403 . S
Dy220 O227 2.664 . S
Dy220 O231 2.326 . S
Dy220 O235 2.310 . S
Dy220 O236 2.351 . S
C221 O232 1.185 . S
C221 O233 1.355 . S
C222 O224 1.185 . S
C222 O225 1.355 . S
Dy223 O227 2.310 . S
Dy223 O230 2.351 . S
Dy223 O232 2.398 . S
Dy223 O233 2.491 . S
Dy223 O234 2.403 . S
Dy223 O235 2.664 . S
Dy223 O237 2.326 . S
O224 Dy220 2.398 . S
O224 C222 1.185 . S
O225 Dy220 2.491 . S
O225 C222 1.355 . S
O226 Dy220 2.403 . S
O226 C228 1.254 . S
O227 Dy220 2.664 . S
O227 Dy223 2.310 . S
O227 C228 1.268 . S
C228 O226 1.254 . S
C228 O227 1.268 . S
C229 O234 1.254 . S
C229 O235 1.268 . S
O230 Dy223 2.351 . S
O230 C238 1.249 . S
O231 Dy220 2.326 . S
O231 C238 1.267 . S
O232 C221 1.185 . S
O232 Dy223 2.398 . S
O233 C221 1.355 . S
O233 Dy223 2.491 . S
O234 Dy223 2.403 . S
O234 C229 1.254 . S
O235 Dy220 2.310 . S
O235 Dy223 2.664 . S
O235 C229 1.268 . S
O236 Dy220 2.351 . S
O236 C239 1.249 . S
O237 Dy223 2.326 . S
O237 C239 1.267 . S
C238 O230 1.249 . S
C238 O231 1.267 . S
C239 O236 1.249 . S
C239 O237 1.267 . S
Dy240 O244 2.398 . S
Dy240 O245 2.491 . S
Dy240 O246 2.403 . S
Dy240 O247 2.664 . S
Dy240 O251 2.326 . S
Dy240 O255 2.310 . S
Dy240 O256 2.351 . S
C241 O252 1.185 . S
C241 O253 1.355 . S
C242 O244 1.185 . S
C242 O245 1.355 . S
Dy243 O247 2.310 . S
Dy243 O250 2.351 . S
Dy243 O252 2.398 . S
Dy243 O253 2.491 . S
Dy243 O254 2.403 . S
Dy243 O255 2.664 . S
Dy243 O257 2.326 . S
O244 Dy240 2.398 . S
O244 C242 1.185 . S
O245 Dy240 2.491 . S
O245 C242 1.355 . S
O246 Dy240 2.403 . S
O246 C248 1.254 . S
O247 Dy240 2.664 . S
O247 Dy243 2.310 . S
O247 C248 1.268 . S
C248 O246 1.254 . S
C248 O247 1.268 . S
C249 O254 1.254 . S
C249 O255 1.268 . S
O250 Dy243 2.351 . S
O250 C258 1.249 . S
O251 Dy240 2.326 . S
O251 C258 1.267 . S
O252 C241 1.185 . S
O252 Dy243 2.398 . S
O253 C241 1.355 . S
O253 Dy243 2.491 . S
O254 Dy243 2.403 . S
O254 C249 1.254 . S
O255 Dy240 2.310 . S
O255 Dy243 2.664 . S
O255 C249 1.268 . S
O256 Dy240 2.351 . S
O256 C259 1.249 . S
O257 Dy243 2.326 . S
O257 C259 1.267 . S
C258 O250 1.249 . S
C258 O251 1.267 . S
C259 O256 1.249 . S
C259 O257 1.267 . S
Dy260 O264 2.398 . S
Dy260 O265 2.491 . S
Dy260 O266 2.403 . S
Dy260 O267 2.664 . S
Dy260 O271 2.326 . S
Dy260 O275 2.310 . S
Dy260 O276 2.351 . S
C261 O272 1.185 . S
C261 O273 1.355 . S
C262 O264 1.185 . S
C262 O265 1.355 . S
Dy263 O267 2.310 . S
Dy263 O270 2.351 . S
Dy263 O272 2.398 . S
Dy263 O273 2.491 . S
Dy263 O274 2.403 . S
Dy263 O275 2.664 . S
Dy263 O277 2.326 . S
O264 Dy260 2.398 . S
O264 C262 1.185 . S
O265 Dy260 2.491 . S
O265 C262 1.355 . S
O266 Dy260 2.403 . S
O266 C268 1.254 . S
O267 Dy260 2.664 . S
O267 Dy263 2.310 . S
O267 C268 1.268 . S
C268 O266 1.254 . S
C268 O267 1.268 . S
C269 O274 1.254 . S
C269 O275 1.268 . S
O270 Dy263 2.351 . S
O270 C278 1.249 . S
O271 Dy260 2.326 . S
O271 C278 1.267 . S
O272 C261 1.185 . S
O272 Dy263 2.398 . S
O273 C261 1.355 . S
O273 Dy263 2.491 . S
O274 Dy263 2.403 . S
O274 C269 1.254 . S
O275 Dy260 2.310 . S
O275 Dy263 2.664 . S
O275 C269 1.268 . S
O276 Dy260 2.351 . S
O276 C279 1.249 . S
O277 Dy263 2.326 . S
O277 C279 1.267 . S
C278 O270 1.249 . S
C278 O271 1.267 . S
C279 O276 1.249 . S
C279 O277 1.267 . S
Dy280 O284 2.398 . S
Dy280 O285 2.491 . S
Dy280 O286 2.403 . S
Dy280 O287 2.664 . S
Dy280 O291 2.326 . S
Dy280 O295 2.310 . S
Dy280 O296 2.351 . S
C281 O292 1.185 . S
C281 O293 1.355 . S
C282 O284 1.185 . S
C282 O285 1.355 . S
Dy283 O287 2.310 . S
Dy283 O290 2.351 . S
Dy283 O292 2.398 . S
Dy283 O293 2.491 . S
Dy283 O294 2.403 . S
Dy283 O295 2.664 . S
Dy283 O297 2.326 . S
O284 Dy280 2.398 . S
O284 C282 1.185 . S
O285 Dy280 2.491 . S
O285 C282 1.355 . S
O286 Dy280 2.403 . S
O286 C288 1.254 . S
O287 Dy280 2.664 . S
O287 Dy283 2.310 . S
O287 C288 1.268 . S
C288 O286 1.254 . S
C288 O287 1.268 . S
C289 O294 1.254 . S
C289 O295 1.268 . S
O290 Dy283 2.351 . S
O290 C298 1.249 . S
O291 Dy280 2.326 . S
O291 C298 1.267 . S
O292 C281 1.185 . S
O292 Dy283 2.398 . S
O293 C281 1.355 . S
O293 Dy283 2.491 . S
O294 Dy283 2.403 . S
O294 C289 1.254 . S
O295 Dy280 2.310 . S
O295 Dy283 2.664 . S
O295 C289 1.268 . S
O296 Dy280 2.351 . S
O296 C299 1.249 . S
O297 Dy283 2.326 . S
O297 C299 1.267 . S
C298 O290 1.249 . S
C298 O291 1.267 . S
C299 O296 1.249 . S
C299 O297 1.267 . S
Dy300 O304 2.398 . S
Dy300 O305 2.491 . S
Dy300 O306 2.403 . S
Dy300 O307 2.664 . S
Dy300 O311 2.326 . S
Dy300 O315 2.310 . S
Dy300 O316 2.351 . S
C301 O312 1.185 . S
C301 O313 1.355 . S
C302 O304 1.185 . S
C302 O305 1.355 . S
Dy303 O307 2.310 . S
Dy303 O310 2.351 . S
Dy303 O312 2.398 . S
Dy303 O313 2.491 . S
Dy303 O314 2.403 . S
Dy303 O315 2.664 . S
Dy303 O317 2.326 . S
O304 Dy300 2.398 . S
O304 C302 1.185 . S
O305 Dy300 2.491 . S
O305 C302 1.355 . S
O306 Dy300 2.403 . S
O306 C308 1.254 . S
O307 Dy300 2.664 . S
O307 Dy303 2.310 . S
O307 C308 1.268 . S
C308 O306 1.254 . S
C308 O307 1.268 . S
C309 O314 1.254 . S
C309 O315 1.268 . S
O310 Dy303 2.351 . S
O310 C318 1.249 . S
O311 Dy300 2.326 . S
O311 C318 1.267 . S
O312 C301 1.185 . S
O312 Dy303 2.398 . S
O313 C301 1.355 . S
O313 Dy303 2.491 . S
O314 Dy303 2.403 . S
O314 C309 1.254 . S
O315 Dy300 2.310 . S
O315 Dy303 2.664 . S
O315 C309 1.268 . S
O316 Dy300 2.351 . S
O316 C319 1.249 . S
O317 Dy303 2.326 . S
O317 C319 1.267 . S
C318 O310 1.249 . S
C318 O311 1.267 . S
C319 O316 1.249 . S
C319 O317 1.267 . S
H320 C326 0.930 . S
H321 C330 0.930 . S
H322 C335 0.929 . S
H323 C333 0.929 . S
H324 C328 0.929 . S
H325 C334 0.929 . S
C326 H320 0.930 . S
C326 C327 1.367 . S
C326 C334 1.378 . S
C327 C326 1.367 . S
C327 C335 1.433 . S
C328 H324 0.929 . S
C328 C330 1.378 . S
C328 C332 1.350 . S
C329 C332 1.463 . S
C329 C334 1.350 . S
C329 N337 1.427 . S
C330 H321 0.930 . S
C330 C328 1.378 . S
C330 C331 1.367 . S
C331 C330 1.367 . S
C331 C333 1.433 . S
C332 C328 1.350 . S
C332 C329 1.463 . S
C332 N336 1.427 . S
C333 H323 0.929 . S
C333 C331 1.433 . S
C333 N336 1.384 . S
C334 H325 0.929 . S
C334 C326 1.378 . S
C334 C329 1.350 . S
C335 H322 0.929 . S
C335 C327 1.433 . S
C335 N337 1.384 . S
N336 C332 1.427 . S
N336 C333 1.384 . S
N337 C329 1.427 . S
N337 C335 1.384 . S
H338 C344 0.930 . S
H339 C348 0.930 . S
H340 C353 0.929 . S
H341 C351 0.929 . S
H342 C346 0.929 . S
H343 C352 0.929 . S
C344 H338 0.930 . S
C344 C345 1.367 . S
C344 C352 1.378 . S
C345 C344 1.367 . S
C345 C353 1.433 . S
C346 H342 0.929 . S
C346 C348 1.378 . S
C346 C350 1.350 . S
C347 C350 1.463 . S
C347 C352 1.350 . S
C347 N355 1.427 . S
C348 H339 0.930 . S
C348 C346 1.378 . S
C348 C349 1.367 . S
C349 C348 1.367 . S
C349 C351 1.433 . S
C350 C346 1.350 . S
C350 C347 1.463 . S
C350 N354 1.427 . S
C351 H341 0.929 . S
C351 C349 1.433 . S
C351 N354 1.384 . S
C352 H343 0.929 . S
C352 C344 1.378 . S
C352 C347 1.350 . S
C353 H340 0.929 . S
C353 C345 1.433 . S
C353 N355 1.384 . S
N354 C350 1.427 . S
N354 C351 1.384 . S
N355 C347 1.427 . S
N355 C353 1.384 . S
H356 C362 0.930 . S
H357 C366 0.930 . S
H358 C371 0.929 . S
H359 C369 0.929 . S
H360 C364 0.929 . S
H361 C370 0.929 . S
C362 H356 0.930 . S
C362 C363 1.367 . S
C362 C370 1.378 . S
C363 C362 1.367 . S
C363 C371 1.433 . S
C364 H360 0.929 . S
C364 C366 1.378 . S
C364 C368 1.350 . S
C365 C368 1.463 . S
C365 C370 1.350 . S
C365 N373 1.427 . S
C366 H357 0.930 . S
C366 C364 1.378 . S
C366 C367 1.367 . S
C367 C366 1.367 . S
C367 C369 1.433 . S
C368 C364 1.350 . S
C368 C365 1.463 . S
C368 N372 1.427 . S
C369 H359 0.929 . S
C369 C367 1.433 . S
C369 N372 1.384 . S
C370 H361 0.929 . S
C370 C362 1.378 . S
C370 C365 1.350 . S
C371 H358 0.929 . S
C371 C363 1.433 . S
C371 N373 1.384 . S
N372 C368 1.427 . S
N372 C369 1.384 . S
N373 C365 1.427 . S
N373 C371 1.384 . S
H374 C380 0.930 . S
H375 C384 0.930 . S
H376 C389 0.929 . S
H377 C387 0.929 . S
H378 C382 0.929 . S
H379 C388 0.929 . S
C380 H374 0.930 . S
C380 C381 1.367 . S
C380 C388 1.378 . S
C381 C380 1.367 . S
C381 C389 1.433 . S
C382 H378 0.929 . S
C382 C384 1.378 . S
C382 C386 1.350 . S
C383 C386 1.463 . S
C383 C388 1.350 . S
C383 N391 1.427 . S
C384 H375 0.930 . S
C384 C382 1.378 . S
C384 C385 1.367 . S
C385 C384 1.367 . S
C385 C387 1.433 . S
C386 C382 1.350 . S
C386 C383 1.463 . S
C386 N390 1.427 . S
C387 H377 0.929 . S
C387 C385 1.433 . S
C387 N390 1.384 . S
C388 H379 0.929 . S
C388 C380 1.378 . S
C388 C383 1.350 . S
C389 H376 0.929 . S
C389 C381 1.433 . S
C389 N391 1.384 . S
N390 C386 1.427 . S
N390 C387 1.384 . S
N391 C383 1.427 . S
N391 C389 1.384 . S
H392 C398 0.930 . S
H393 C402 0.930 . S
H394 C407 0.929 . S
H395 C405 0.929 . S
H396 C400 0.929 . S
H397 C406 0.929 . S
C398 H392 0.930 . S
C398 C399 1.367 . S
C398 C406 1.378 . S
C399 C398 1.367 . S
C399 C407 1.433 . S
C400 H396 0.929 . S
C400 C402 1.378 . S
C400 C404 1.350 . S
C401 C404 1.463 . S
C401 C406 1.350 . S
C401 N409 1.427 . S
C402 H393 0.930 . S
C402 C400 1.378 . S
C402 C403 1.367 . S
C403 C402 1.367 . S
C403 C405 1.433 . S
C404 C400 1.350 . S
C404 C401 1.463 . S
C404 N408 1.427 . S
C405 H395 0.929 . S
C405 C403 1.433 . S
C405 N408 1.384 . S
C406 H397 0.929 . S
C406 C398 1.378 . S
C406 C401 1.350 . S
C407 H394 0.929 . S
C407 C399 1.433 . S
C407 N409 1.384 . S
N408 C404 1.427 . S
N408 C405 1.384 . S
N409 C401 1.427 . S
N409 C407 1.384 . S
H410 C416 0.930 . S
H411 C420 0.930 . S
H412 C425 0.929 . S
H413 C423 0.929 . S
H414 C418 0.929 . S
H415 C424 0.929 . S
C416 H410 0.930 . S
C416 C417 1.367 . S
C416 C424 1.378 . S
C417 C416 1.367 . S
C417 C425 1.433 . S
C418 H414 0.929 . S
C418 C420 1.378 . S
C418 C422 1.350 . S
C419 C422 1.463 . S
C419 C424 1.350 . S
C419 N427 1.427 . S
C420 H411 0.930 . S
C420 C418 1.378 . S
C420 C421 1.367 . S
C421 C420 1.367 . S
C421 C423 1.433 . S
C422 C418 1.350 . S
C422 C419 1.463 . S
C422 N426 1.427 . S
C423 H413 0.929 . S
C423 C421 1.433 . S
C423 N426 1.384 . S
C424 H415 0.929 . S
C424 C416 1.378 . S
C424 C419 1.350 . S
C425 H412 0.929 . S
C425 C417 1.433 . S
C425 N427 1.384 . S
N426 C422 1.427 . S
N426 C423 1.384 . S
N427 C419 1.427 . S
N427 C425 1.384 . S
H428 C434 0.930 . S
H429 C438 0.930 . S
H430 C443 0.929 . S
H431 C441 0.929 . S
H432 C436 0.929 . S
H433 C442 0.929 . S
C434 H428 0.930 . S
C434 C435 1.367 . S
C434 C442 1.378 . S
C435 C434 1.367 . S
C435 C443 1.433 . S
C436 H432 0.929 . S
C436 C438 1.378 . S
C436 C440 1.350 . S
C437 C440 1.463 . S
C437 C442 1.350 . S
C437 N445 1.427 . S
C438 H429 0.930 . S
C438 C436 1.378 . S
C438 C439 1.367 . S
C439 C438 1.367 . S
C439 C441 1.433 . S
C440 C436 1.350 . S
C440 C437 1.463 . S
C440 N444 1.427 . S
C441 H431 0.929 . S
C441 C439 1.433 . S
C441 N444 1.384 . S
C442 H433 0.929 . S
C442 C434 1.378 . S
C442 C437 1.350 . S
C443 H430 0.929 . S
C443 C435 1.433 . S
C443 N445 1.384 . S
N444 C440 1.427 . S
N444 C441 1.384 . S
N445 C437 1.427 . S
N445 C443 1.384 . S
H446 C452 0.930 . S
H447 C456 0.930 . S
H448 C461 0.929 . S
H449 C459 0.929 . S
H450 C454 0.929 . S
H451 C460 0.929 . S
C452 H446 0.930 . S
C452 C453 1.367 . S
C452 C460 1.378 . S
C453 C452 1.367 . S
C453 C461 1.433 . S
C454 H450 0.929 . S
C454 C456 1.378 . S
C454 C458 1.350 . S
C455 C458 1.463 . S
C455 C460 1.350 . S
C455 N463 1.427 . S
C456 H447 0.930 . S
C456 C454 1.378 . S
C456 C457 1.367 . S
C457 C456 1.367 . S
C457 C459 1.433 . S
C458 C454 1.350 . S
C458 C455 1.463 . S
C458 N462 1.427 . S
C459 H449 0.929 . S
C459 C457 1.433 . S
C459 N462 1.384 . S
C460 H451 0.929 . S
C460 C452 1.378 . S
C460 C455 1.350 . S
C461 H448 0.929 . S
C461 C453 1.433 . S
C461 N463 1.384 . S
N462 C458 1.427 . S
N462 C459 1.384 . S
N463 C455 1.427 . S
N463 C461 1.384 . S
H464 C470 0.930 . S
H465 C474 0.930 . S
H466 C479 0.929 . S
H467 C477 0.929 . S
H468 C472 0.929 . S
H469 C478 0.929 . S
C470 H464 0.930 . S
C470 C471 1.367 1_545 S
C470 C478 1.378 . S
C471 C470 1.367 1_565 S
C471 C479 1.433 . S
C472 H468 0.929 . S
C472 C474 1.378 . S
C472 C476 1.350 1_565 S
C473 C476 1.463 1_565 S
C473 C478 1.350 1_565 S
C473 N481 1.427 . S
C474 H465 0.930 . S
C474 C472 1.378 . S
C474 C475 1.367 1_565 S
C475 C474 1.367 1_545 S
C475 C477 1.433 . S
C476 C472 1.350 1_545 S
C476 C473 1.463 1_545 S
C476 N480 1.427 . S
C477 H467 0.929 . S
C477 C475 1.433 . S
C477 N480 1.384 . S
C478 H469 0.929 . S
C478 C470 1.378 . S
C478 C473 1.350 1_545 S
C479 H466 0.929 . S
C479 C471 1.433 . S
C479 N481 1.384 . S
N480 C476 1.427 . S
N480 C477 1.384 . S
N481 C473 1.427 . S
N481 C479 1.384 . S
H482 C488 0.930 . S
H483 C492 0.930 . S
H484 C497 0.929 . S
H485 C495 0.929 . S
H486 C490 0.929 . S
H487 C496 0.929 . S
C488 H482 0.930 . S
C488 C489 1.367 . S
C488 C496 1.378 . S
C489 C488 1.367 . S
C489 C497 1.433 1_545 S
C490 H486 0.929 . S
C490 C492 1.378 . S
C490 C494 1.350 . S
C491 C494 1.463 1_545 S
C491 C496 1.350 . S
C491 N499 1.427 1_545 S
C492 H483 0.930 . S
C492 C490 1.378 . S
C492 C493 1.367 . S
C493 C492 1.367 . S
C493 C495 1.433 1_565 S
C494 C490 1.350 . S
C494 C491 1.463 1_565 S
C494 N498 1.427 1_565 S
C495 H485 0.929 . S
C495 C493 1.433 1_545 S
C495 N498 1.384 . S
C496 H487 0.929 . S
C496 C488 1.378 . S
C496 C491 1.350 . S
C497 H484 0.929 . S
C497 C489 1.433 1_565 S
C497 N499 1.384 . S
N498 C494 1.427 1_545 S
N498 C495 1.384 . S
N499 C491 1.427 1_565 S
N499 C497 1.384 . S
H500 C506 0.930 . S
H501 C510 0.930 . S
H502 C515 0.929 . S
H503 C513 0.929 . S
H504 C508 0.929 . S
H505 C514 0.929 . S
C506 H500 0.930 . S
C506 C507 1.367 1_565 S
C506 C514 1.378 . S
C507 C506 1.367 1_545 S
C507 C515 1.433 . S
C508 H504 0.929 . S
C508 C510 1.378 . S
C508 C512 1.350 1_545 S
C509 C512 1.463 1_545 S
C509 C514 1.350 1_545 S
C509 N517 1.427 . S
C510 H501 0.930 . S
C510 C508 1.378 . S
C510 C511 1.367 1_545 S
C511 C510 1.367 1_565 S
C511 C513 1.433 . S
C512 C508 1.350 1_565 S
C512 C509 1.463 1_565 S
C512 N516 1.427 . S
C513 H503 0.929 . S
C513 C511 1.433 . S
C513 N516 1.384 . S
C514 H505 0.929 . S
C514 C506 1.378 . S
C514 C509 1.350 1_565 S
C515 H502 0.929 . S
C515 C507 1.433 . S
C515 N517 1.384 . S
N516 C512 1.427 . S
N516 C513 1.384 . S
N517 C509 1.427 . S
N517 C515 1.384 . S
H518 C524 0.930 1_565 S
H519 C528 0.930 1_545 S
H520 C533 0.929 . S
H521 C531 0.929 . S
H522 C526 0.929 . S
H523 C532 0.929 . S
C524 H518 0.930 1_545 S
C524 C525 1.367 . S
C524 C532 1.378 1_545 S
C525 C524 1.367 . S
C525 C533 1.433 . S
C526 H522 0.929 . S
C526 C528 1.378 1_545 S
C526 C530 1.350 1_545 S
C527 C530 1.463 1_545 S
C527 C532 1.350 1_545 S
C527 N535 1.427 . S
C528 H519 0.930 1_565 S
C528 C526 1.378 1_565 S
C528 C529 1.367 . S
C529 C528 1.367 . S
C529 C531 1.433 . S
C530 C526 1.350 1_565 S
C530 C527 1.463 1_565 S
C530 N534 1.427 . S
C531 H521 0.929 . S
C531 C529 1.433 . S
C531 N534 1.384 . S
C532 H523 0.929 . S
C532 C524 1.378 1_565 S
C532 C527 1.350 1_565 S
C533 H520 0.929 . S
C533 C525 1.433 . S
C533 N535 1.384 . S
N534 C530 1.427 . S
N534 C531 1.384 . S
N535 C527 1.427 . S
N535 C533 1.384 . S
H536 C542 0.930 . S
H537 C546 0.930 . S
H538 C551 0.929 . S
H539 C549 0.929 . S
H540 C544 0.929 . S
H541 C550 0.929 . S
C542 H536 0.930 . S
C542 C543 1.367 . S
C542 C550 1.378 . S
C543 C542 1.367 . S
C543 C551 1.433 . S
C544 H540 0.929 . S
C544 C546 1.378 . S
C544 C548 1.350 . S
C545 C548 1.463 . S
C545 C550 1.350 . S
C545 N553 1.427 . S
C546 H537 0.930 . S
C546 C544 1.378 . S
C546 C547 1.367 . S
C547 C546 1.367 . S
C547 C549 1.433 . S
C548 C544 1.350 . S
C548 C545 1.463 . S
C548 N552 1.427 . S
C549 H539 0.929 . S
C549 C547 1.433 . S
C549 N552 1.384 . S
C550 H541 0.929 . S
C550 C542 1.378 . S
C550 C545 1.350 . S
C551 H538 0.929 . S
C551 C543 1.433 . S
C551 N553 1.384 . S
N552 C548 1.427 . S
N552 C549 1.384 . S
N553 C545 1.427 . S
N553 C551 1.384 . S
H554 C560 0.930 . S
H555 C564 0.930 . S
H556 C569 0.929 . S
H557 C567 0.929 . S
H558 C562 0.929 . S
H559 C568 0.929 . S
C560 H554 0.930 . S
C560 C561 1.367 . S
C560 C568 1.378 . S
C561 C560 1.367 . S
C561 C569 1.433 . S
C562 H558 0.929 . S
C562 C564 1.378 . S
C562 C566 1.350 . S
C563 C566 1.463 . S
C563 C568 1.350 . S
C563 N571 1.427 . S
C564 H555 0.930 . S
C564 C562 1.378 . S
C564 C565 1.367 . S
C565 C564 1.367 . S
C565 C567 1.433 . S
C566 C562 1.350 . S
C566 C563 1.463 . S
C566 N570 1.427 . S
C567 H557 0.929 . S
C567 C565 1.433 . S
C567 N570 1.384 . S
C568 H559 0.929 . S
C568 C560 1.378 . S
C568 C563 1.350 . S
C569 H556 0.929 . S
C569 C561 1.433 . S
C569 N571 1.384 . S
N570 C566 1.427 . S
N570 C567 1.384 . S
N571 C563 1.427 . S
N571 C569 1.384 . S
H572 C578 0.930 . S
H573 C582 0.930 . S
H574 C587 0.929 . S
H575 C585 0.929 . S
H576 C580 0.929 . S
H577 C586 0.929 . S
C578 H572 0.930 . S
C578 C579 1.367 . S
C578 C586 1.378 . S
C579 C578 1.367 . S
C579 C587 1.433 . S
C580 H576 0.929 . S
C580 C582 1.378 . S
C580 C584 1.350 . S
C581 C584 1.463 . S
C581 C586 1.350 . S
C581 N589 1.427 . S
C582 H573 0.930 . S
C582 C580 1.378 . S
C582 C583 1.367 . S
C583 C582 1.367 . S
C583 C585 1.433 . S
C584 C580 1.350 . S
C584 C581 1.463 . S
C584 N588 1.427 . S
C585 H575 0.929 . S
C585 C583 1.433 . S
C585 N588 1.384 . S
C586 H577 0.929 . S
C586 C578 1.378 . S
C586 C581 1.350 . S
C587 H574 0.929 . S
C587 C579 1.433 . S
C587 N589 1.384 . S
N588 C584 1.427 . S
N588 C585 1.384 . S
N589 C581 1.427 . S
N589 C587 1.384 . S
H590 C596 0.930 . S
H591 C600 0.930 . S
H592 C605 0.929 . S
H593 C603 0.929 . S
H594 C598 0.929 . S
H595 C604 0.929 . S
C596 H590 0.930 . S
C596 C597 1.367 . S
C596 C604 1.378 . S
C597 C596 1.367 . S
C597 C605 1.433 . S
C598 H594 0.929 . S
C598 C600 1.378 . S
C598 C602 1.350 . S
C599 C602 1.463 . S
C599 C604 1.350 . S
C599 N607 1.427 . S
C600 H591 0.930 . S
C600 C598 1.378 . S
C600 C601 1.367 . S
C601 C600 1.367 . S
C601 C603 1.433 . S
C602 C598 1.350 . S
C602 C599 1.463 . S
C602 N606 1.427 . S
C603 H593 0.929 . S
C603 C601 1.433 . S
C603 N606 1.384 . S
C604 H595 0.929 . S
C604 C596 1.378 . S
C604 C599 1.350 . S
C605 H592 0.929 . S
C605 C597 1.433 . S
C605 N607 1.384 . S
N606 C602 1.427 . S
N606 C603 1.384 . S
N607 C599 1.427 . S
N607 C605 1.384 . S
H608 C614 0.930 . S
H609 C618 0.930 . S
H610 C623 0.929 . S
H611 C621 0.929 . S
H612 C616 0.929 . S
H613 C622 0.929 . S
C614 H608 0.930 . S
C614 C615 1.367 . S
C614 C622 1.378 . S
C615 C614 1.367 . S
C615 C623 1.433 . S
C616 H612 0.929 . S
C616 C618 1.378 . S
C616 C620 1.350 . S
C617 C620 1.463 1_556 S
C617 C622 1.350 . S
C617 N625 1.427 . S
C618 H609 0.930 . S
C618 C616 1.378 . S
C618 C619 1.367 . S
C619 C618 1.367 . S
C619 C621 1.433 . S
C620 C616 1.350 . S
C620 C617 1.463 1_554 S
C620 N624 1.427 . S
C621 H611 0.929 . S
C621 C619 1.433 . S
C621 N624 1.384 . S
C622 H613 0.929 . S
C622 C614 1.378 . S
C622 C617 1.350 . S
C623 H610 0.929 . S
C623 C615 1.433 . S
C623 N625 1.384 . S
N624 C620 1.427 . S
N624 C621 1.384 . S
N625 C617 1.427 . S
N625 C623 1.384 . S
H626 C632 0.930 . S
H627 C636 0.930 . S
H628 C641 0.929 . S
H629 C639 0.929 . S
H630 C634 0.929 . S
H631 C640 0.929 . S
C632 H626 0.930 . S
C632 C633 1.367 . S
C632 C640 1.378 . S
C633 C632 1.367 . S
C633 C641 1.433 . S
C634 H630 0.929 . S
C634 C636 1.378 . S
C634 C638 1.350 . S
C635 C638 1.463 1_556 S
C635 C640 1.350 . S
C635 N643 1.427 . S
C636 H627 0.930 . S
C636 C634 1.378 . S
C636 C637 1.367 . S
C637 C636 1.367 . S
C637 C639 1.433 . S
C638 C634 1.350 . S
C638 C635 1.463 1_554 S
C638 N642 1.427 . S
C639 H629 0.929 . S
C639 C637 1.433 . S
C639 N642 1.384 . S
C640 H631 0.929 . S
C640 C632 1.378 . S
C640 C635 1.350 . S
C641 H628 0.929 . S
C641 C633 1.433 . S
C641 N643 1.384 . S
N642 C638 1.427 . S
N642 C639 1.384 . S
N643 C635 1.427 . S
N643 C641 1.384 . S
H644 C650 0.930 . S
H645 C654 0.930 . S
H646 C659 0.929 . S
H647 C657 0.929 . S
H648 C652 0.929 . S
H649 C658 0.929 . S
C650 H644 0.930 . S
C650 C651 1.367 . S
C650 C658 1.378 . S
C651 C650 1.367 . S
C651 C659 1.433 . S
C652 H648 0.929 . S
C652 C654 1.378 . S
C652 C656 1.350 . S
C653 C656 1.463 . S
C653 C658 1.350 . S
C653 N661 1.427 . S
C654 H645 0.930 . S
C654 C652 1.378 . S
C654 C655 1.367 . S
C655 C654 1.367 . S
C655 C657 1.433 . S
C656 C652 1.350 . S
C656 C653 1.463 . S
C656 N660 1.427 . S
C657 H647 0.929 . S
C657 C655 1.433 . S
C657 N660 1.384 . S
C658 H649 0.929 . S
C658 C650 1.378 . S
C658 C653 1.350 . S
C659 H646 0.929 . S
C659 C651 1.433 . S
C659 N661 1.384 . S
N660 C656 1.427 . S
N660 C657 1.384 . S
N661 C653 1.427 . S
N661 C659 1.384 . S
H662 C668 0.930 . S
H663 C672 0.930 . S
H664 C677 0.929 . S
H665 C675 0.929 . S
H666 C670 0.929 . S
H667 C676 0.929 . S
C668 H662 0.930 . S
C668 C669 1.367 . S
C668 C676 1.378 . S
C669 C668 1.367 . S
C669 C677 1.433 . S
C670 H666 0.929 . S
C670 C672 1.378 . S
C670 C674 1.350 . S
C671 C674 1.463 . S
C671 C676 1.350 . S
C671 N679 1.427 . S
C672 H663 0.930 . S
C672 C670 1.378 . S
C672 C673 1.367 . S
C673 C672 1.367 . S
C673 C675 1.433 . S
C674 C670 1.350 . S
C674 C671 1.463 . S
C674 N678 1.427 . S
C675 H665 0.929 . S
C675 C673 1.433 . S
C675 N678 1.384 . S
C676 H667 0.929 . S
C676 C668 1.378 . S
C676 C671 1.350 . S
C677 H664 0.929 . S
C677 C669 1.433 . S
C677 N679 1.384 . S
N678 C674 1.427 . S
N678 C675 1.384 . S
N679 C671 1.427 . S
N679 C677 1.384 . S
H680 C686 0.930 . S
H681 C690 0.930 . S
H682 C695 0.929 . S
H683 C693 0.929 . S
H684 C688 0.929 . S
H685 C694 0.929 . S
C686 H680 0.930 . S
C686 C687 1.367 . S
C686 C694 1.378 . S
C687 C686 1.367 . S
C687 C695 1.433 . S
C688 H684 0.929 . S
C688 C690 1.378 . S
C688 C692 1.350 . S
C689 C692 1.463 1_554 S
C689 C694 1.350 . S
C689 N697 1.427 . S
C690 H681 0.930 . S
C690 C688 1.378 . S
C690 C691 1.367 . S
C691 C690 1.367 . S
C691 C693 1.433 . S
C692 C688 1.350 . S
C692 C689 1.463 1_556 S
C692 N696 1.427 . S
C693 H683 0.929 . S
C693 C691 1.433 . S
C693 N696 1.384 . S
C694 H685 0.929 . S
C694 C686 1.378 . S
C694 C689 1.350 . S
C695 H682 0.929 . S
C695 C687 1.433 . S
C695 N697 1.384 . S
N696 C692 1.427 . S
N696 C693 1.384 . S
N697 C689 1.427 . S
N697 C695 1.384 . S
H698 C704 0.930 . S
H699 C708 0.930 . S
H700 C713 0.929 . S
H701 C711 0.929 . S
H702 C706 0.929 . S
H703 C712 0.929 . S
C704 H698 0.930 . S
C704 C705 1.367 . S
C704 C712 1.378 . S
C705 C704 1.367 . S
C705 C713 1.433 . S
C706 H702 0.929 . S
C706 C708 1.378 . S
C706 C710 1.350 . S
C707 C710 1.463 1_556 S
C707 C712 1.350 . S
C707 N715 1.427 . S
C708 H699 0.930 . S
C708 C706 1.378 . S
C708 C709 1.367 . S
C709 C708 1.367 . S
C709 C711 1.433 . S
C710 C706 1.350 . S
C710 C707 1.463 1_554 S
C710 N714 1.427 . S
C711 H701 0.929 . S
C711 C709 1.433 . S
C711 N714 1.384 . S
C712 H703 0.929 . S
C712 C704 1.378 . S
C712 C707 1.350 . S
C713 H700 0.929 . S
C713 C705 1.433 . S
C713 N715 1.384 . S
N714 C710 1.427 . S
N714 C711 1.384 . S
N715 C707 1.427 . S
N715 C713 1.384 . S
H716 C722 0.930 . S
H717 C726 0.930 . S
H718 C731 0.929 . S
H719 C729 0.929 . S
H720 C724 0.929 . S
H721 C730 0.929 . S
C722 H716 0.930 . S
C722 C723 1.367 . S
C722 C730 1.378 . S
C723 C722 1.367 . S
C723 C731 1.433 . S
C724 H720 0.929 . S
C724 C726 1.378 . S
C724 C728 1.350 . S
C725 C728 1.463 . S
C725 C730 1.350 . S
C725 N733 1.427 . S
C726 H717 0.930 . S
C726 C724 1.378 . S
C726 C727 1.367 . S
C727 C726 1.367 . S
C727 C729 1.433 . S
C728 C724 1.350 . S
C728 C725 1.463 . S
C728 N732 1.427 . S
C729 H719 0.929 . S
C729 C727 1.433 . S
C729 N732 1.384 . S
C730 H721 0.929 . S
C730 C722 1.378 . S
C730 C725 1.350 . S
C731 H718 0.929 . S
C731 C723 1.433 . S
C731 N733 1.384 . S
N732 C728 1.427 . S
N732 C729 1.384 . S
N733 C725 1.427 . S
N733 C731 1.384 . S
H734 C740 0.930 . S
H735 C744 0.930 . S
H736 C749 0.929 . S
H737 C747 0.929 . S
H738 C742 0.929 . S
H739 C748 0.929 . S
C740 H734 0.930 . S
C740 C741 1.367 . S
C740 C748 1.378 . S
C741 C740 1.367 . S
C741 C749 1.433 . S
C742 H738 0.929 . S
C742 C744 1.378 . S
C742 C746 1.350 . S
C743 C746 1.463 . S
C743 C748 1.350 . S
C743 N751 1.427 . S
C744 H735 0.930 . S
C744 C742 1.378 . S
C744 C745 1.367 . S
C745 C744 1.367 . S
C745 C747 1.433 . S
C746 C742 1.350 . S
C746 C743 1.463 . S
C746 N750 1.427 . S
C747 H737 0.929 . S
C747 C745 1.433 . S
C747 N750 1.384 . S
C748 H739 0.929 . S
C748 C740 1.378 . S
C748 C743 1.350 . S
C749 H736 0.929 . S
C749 C741 1.433 . S
C749 N751 1.384 . S
N750 C746 1.427 . S
N750 C747 1.384 . S
N751 C743 1.427 . S
N751 C749 1.384 . S
H752 C758 0.930 . S
H753 C762 0.930 . S
H754 C767 0.929 . S
H755 C765 0.929 . S
H756 C760 0.929 . S
H757 C766 0.929 . S
C758 H752 0.930 . S
C758 C759 1.367 . S
C758 C766 1.378 . S
C759 C758 1.367 . S
C759 C767 1.433 . S
C760 H756 0.929 . S
C760 C762 1.378 . S
C760 C764 1.350 . S
C761 C764 1.463 1_665 S
C761 C766 1.350 . S
C761 N769 1.427 . S
C762 H753 0.930 . S
C762 C760 1.378 . S
C762 C763 1.367 . S
C763 C762 1.367 . S
C763 C765 1.433 . S
C764 C760 1.350 . S
C764 C761 1.463 1_445 S
C764 N768 1.427 . S
C765 H755 0.929 . S
C765 C763 1.433 . S
C765 N768 1.384 . S
C766 H757 0.929 . S
C766 C758 1.378 . S
C766 C761 1.350 . S
C767 H754 0.929 . S
C767 C759 1.433 . S
C767 N769 1.384 . S
N768 C764 1.427 . S
N768 C765 1.384 . S
N769 C761 1.427 . S
N769 C767 1.384 . S
H770 C776 0.930 . S
H771 C780 0.930 . S
H772 C785 0.929 . S
H773 C783 0.929 . S
H774 C778 0.929 . S
H775 C784 0.929 . S
C776 H770 0.930 . S
C776 C777 1.367 . S
C776 C784 1.378 . S
C777 C776 1.367 . S
C777 C785 1.433 1_545 S
C778 H774 0.929 . S
C778 C780 1.378 . S
C778 C782 1.350 . S
C779 C782 1.463 1_645 S
C779 C784 1.350 . S
C779 N787 1.427 1_545 S
C780 H771 0.930 . S
C780 C778 1.378 . S
C780 C781 1.367 . S
C781 C780 1.367 . S
C781 C783 1.433 1_565 S
C782 C778 1.350 . S
C782 C779 1.463 1_465 S
C782 N786 1.427 1_565 S
C783 H773 0.929 . S
C783 C781 1.433 1_545 S
C783 N786 1.384 . S
C784 H775 0.929 . S
C784 C776 1.378 . S
C784 C779 1.350 . S
C785 H772 0.929 . S
C785 C777 1.433 1_565 S
C785 N787 1.384 . S
N786 C782 1.427 1_545 S
N786 C783 1.384 . S
N787 C779 1.427 1_565 S
N787 C785 1.384 . S
H788 C794 0.930 . S
H789 C798 0.930 . S
H790 C803 0.929 . S
H791 C801 0.929 . S
H792 C796 0.929 1_545 S
H793 C802 0.929 1_565 S
C794 H788 0.930 . S
C794 C795 1.367 . S
C794 C802 1.378 . S
C795 C794 1.367 . S
C795 C803 1.433 . S
C796 H792 0.929 1_565 S
C796 C798 1.378 . S
C796 C800 1.350 . S
C797 C800 1.463 1_445 S
C797 C802 1.350 . S
C797 N805 1.427 . S
C798 H789 0.930 . S
C798 C796 1.378 . S
C798 C799 1.367 . S
C799 C798 1.367 . S
C799 C801 1.433 . S
C800 C796 1.350 . S
C800 C797 1.463 1_665 S
C800 N804 1.427 . S
C801 H791 0.929 . S
C801 C799 1.433 . S
C801 N804 1.384 . S
C802 H793 0.929 1_545 S
C802 C794 1.378 . S
C802 C797 1.350 . S
C803 H790 0.929 . S
C803 C795 1.433 . S
C803 N805 1.384 . S
N804 C800 1.427 . S
N804 C801 1.384 . S
N805 C797 1.427 . S
N805 C803 1.384 . S
H806 C812 0.930 . S
H807 C816 0.930 . S
H808 C821 0.929 . S
H809 C819 0.929 . S
H810 C814 0.929 . S
H811 C820 0.929 . S
C812 H806 0.930 . S
C812 C813 1.367 . S
C812 C820 1.378 . S
C813 C812 1.367 . S
C813 C821 1.433 . S
C814 H810 0.929 . S
C814 C816 1.378 . S
C814 C818 1.350 . S
C815 C818 1.463 1_645 S
C815 C820 1.350 . S
C815 N823 1.427 1_545 S
C816 H807 0.930 . S
C816 C814 1.378 . S
C816 C817 1.367 . S
C817 C816 1.367 . S
C817 C819 1.433 . S
C818 C814 1.350 . S
C818 C815 1.463 1_465 S
C818 N822 1.427 1_565 S
C819 H809 0.929 . S
C819 C817 1.433 . S
C819 N822 1.384 1_565 S
C820 H811 0.929 . S
C820 C812 1.378 . S
C820 C815 1.350 . S
C821 H808 0.929 . S
C821 C813 1.433 . S
C821 N823 1.384 1_545 S
N822 C818 1.427 1_545 S
N822 C819 1.384 1_545 S
N823 C815 1.427 1_565 S
N823 C821 1.384 1_565 S
H824 C830 0.930 . S
H825 C834 0.930 . S
H826 C839 0.929 . S
H827 C837 0.929 . S
H828 C832 0.929 . S
H829 C838 0.929 . S
C830 H824 0.930 . S
C830 C831 1.367 . S
C830 C838 1.378 . S
C831 C830 1.367 . S
C831 C839 1.433 . S
C832 H828 0.929 . S
C832 C834 1.378 . S
C832 C836 1.350 . S
C833 C836 1.463 . S
C833 C838 1.350 . S
C833 N841 1.427 . S
C834 H825 0.930 . S
C834 C832 1.378 . S
C834 C835 1.367 . S
C835 C834 1.367 . S
C835 C837 1.433 . S
C836 C832 1.350 . S
C836 C833 1.463 . S
C836 N840 1.427 . S
C837 H827 0.929 . S
C837 C835 1.433 . S
C837 N840 1.384 . S
C838 H829 0.929 . S
C838 C830 1.378 . S
C838 C833 1.350 . S
C839 H826 0.929 . S
C839 C831 1.433 . S
C839 N841 1.384 . S
N840 C836 1.427 . S
N840 C837 1.384 . S
N841 C833 1.427 . S
N841 C839 1.384 . S
H842 C848 0.930 . S
H843 C852 0.930 . S
H844 C857 0.929 . S
H845 C855 0.929 . S
H846 C850 0.929 . S
H847 C856 0.929 . S
C848 H842 0.930 . S
C848 C849 1.367 . S
C848 C856 1.378 . S
C849 C848 1.367 . S
C849 C857 1.433 . S
C850 H846 0.929 . S
C850 C852 1.378 . S
C850 C854 1.350 . S
C851 C854 1.463 . S
C851 C856 1.350 . S
C851 N859 1.427 . S
C852 H843 0.930 . S
C852 C850 1.378 . S
C852 C853 1.367 . S
C853 C852 1.367 . S
C853 C855 1.433 . S
C854 C850 1.350 . S
C854 C851 1.463 . S
C854 N858 1.427 . S
C855 H845 0.929 . S
C855 C853 1.433 . S
C855 N858 1.384 . S
C856 H847 0.929 . S
C856 C848 1.378 . S
C856 C851 1.350 . S
C857 H844 0.929 . S
C857 C849 1.433 . S
C857 N859 1.384 . S
N858 C854 1.427 . S
N858 C855 1.384 . S
N859 C851 1.427 . S
N859 C857 1.384 . S
H860 C866 0.930 . S
H861 C870 0.930 . S
H862 C875 0.929 . S
H863 C873 0.929 . S
H864 C868 0.929 . S
H865 C874 0.929 . S
C866 H860 0.930 . S
C866 C867 1.367 . S
C866 C874 1.378 . S
C867 C866 1.367 . S
C867 C875 1.433 . S
C868 H864 0.929 . S
C868 C870 1.378 . S
C868 C872 1.350 . S
C869 C872 1.463 . S
C869 C874 1.350 . S
C869 N877 1.427 . S
C870 H861 0.930 . S
C870 C868 1.378 . S
C870 C871 1.367 . S
C871 C870 1.367 . S
C871 C873 1.433 . S
C872 C868 1.350 . S
C872 C869 1.463 . S
C872 N876 1.427 . S
C873 H863 0.929 . S
C873 C871 1.433 . S
C873 N876 1.384 . S
C874 H865 0.929 . S
C874 C866 1.378 . S
C874 C869 1.350 . S
C875 H862 0.929 . S
C875 C867 1.433 . S
C875 N877 1.384 . S
N876 C872 1.427 . S
N876 C873 1.384 . S
N877 C869 1.427 . S
N877 C875 1.384 . S
H878 C884 0.930 . S
H879 C888 0.930 . S
H880 C893 0.929 . S
H881 C891 0.929 . S
H882 C886 0.929 . S
H883 C892 0.929 . S
C884 H878 0.930 . S
C884 C885 1.367 . S
C884 C892 1.378 . S
C885 C884 1.367 . S
C885 C893 1.433 . S
C886 H882 0.929 . S
C886 C888 1.378 . S
C886 C890 1.350 . S
C887 C890 1.463 . S
C887 C892 1.350 . S
C887 N895 1.427 . S
C888 H879 0.930 . S
C888 C886 1.378 . S
C888 C889 1.367 . S
C889 C888 1.367 . S
C889 C891 1.433 . S
C890 C886 1.350 . S
C890 C887 1.463 . S
C890 N894 1.427 . S
C891 H881 0.929 . S
C891 C889 1.433 . S
C891 N894 1.384 . S
C892 H883 0.929 . S
C892 C884 1.378 . S
C892 C887 1.350 . S
C893 H880 0.929 . S
C893 C885 1.433 . S
C893 N895 1.384 . S
N894 C890 1.427 . S
N894 C891 1.384 . S
N895 C887 1.427 . S
N895 C893 1.384 . S
H896 C902 0.930 . S
H897 C906 0.930 . S
H898 C911 0.929 . S
H899 C909 0.929 . S
H900 C904 0.929 . S
H901 C910 0.929 . S
C902 H896 0.930 . S
C902 C903 1.367 . S
C902 C910 1.378 . S
C903 C902 1.367 . S
C903 C911 1.433 . S
C904 H900 0.929 . S
C904 C906 1.378 . S
C904 C908 1.350 . S
C905 C908 1.463 . S
C905 C910 1.350 . S
C905 N913 1.427 . S
C906 H897 0.930 . S
C906 C904 1.378 . S
C906 C907 1.367 . S
C907 C906 1.367 . S
C907 C909 1.433 . S
C908 C904 1.350 . S
C908 C905 1.463 . S
C908 N912 1.427 . S
C909 H899 0.929 . S
C909 C907 1.433 . S
C909 N912 1.384 . S
C910 H901 0.929 . S
C910 C902 1.378 . S
C910 C905 1.350 . S
C911 H898 0.929 . S
C911 C903 1.433 . S
C911 N913 1.384 . S
N912 C908 1.427 . S
N912 C909 1.384 . S
N913 C905 1.427 . S
N913 C911 1.384 . S
H914 C920 0.930 . S
H915 C924 0.930 . S
H916 C929 0.929 . S
H917 C927 0.929 . S
H918 C922 0.929 . S
H919 C928 0.929 . S
C920 H914 0.930 . S
C920 C921 1.367 . S
C920 C928 1.378 . S
C921 C920 1.367 . S
C921 C929 1.433 . S
C922 H918 0.929 . S
C922 C924 1.378 . S
C922 C926 1.350 . S
C923 C926 1.463 . S
C923 C928 1.350 . S
C923 N931 1.427 . S
C924 H915 0.930 . S
C924 C922 1.378 . S
C924 C925 1.367 . S
C925 C924 1.367 . S
C925 C927 1.433 . S
C926 C922 1.350 . S
C926 C923 1.463 . S
C926 N930 1.427 . S
C927 H917 0.929 . S
C927 C925 1.433 . S
C927 N930 1.384 . S
C928 H919 0.929 . S
C928 C920 1.378 . S
C928 C923 1.350 . S
C929 H916 0.929 . S
C929 C921 1.433 . S
C929 N931 1.384 . S
N930 C926 1.427 . S
N930 C927 1.384 . S
N931 C923 1.427 . S
N931 C929 1.384 . S
H932 C938 0.930 . S
H933 C942 0.930 . S
H934 C947 0.929 . S
H935 C945 0.929 . S
H936 C940 0.929 . S
H937 C946 0.929 . S
C938 H932 0.930 . S
C938 C939 1.367 . S
C938 C946 1.378 . S
C939 C938 1.367 . S
C939 C947 1.433 . S
C940 H936 0.929 . S
C940 C942 1.378 . S
C940 C944 1.350 . S
C941 C944 1.463 . S
C941 C946 1.350 . S
C941 N949 1.427 . S
C942 H933 0.930 . S
C942 C940 1.378 . S
C942 C943 1.367 . S
C943 C942 1.367 . S
C943 C945 1.433 . S
C944 C940 1.350 . S
C944 C941 1.463 . S
C944 N948 1.427 . S
C945 H935 0.929 . S
C945 C943 1.433 . S
C945 N948 1.384 . S
C946 H937 0.929 . S
C946 C938 1.378 . S
C946 C941 1.350 . S
C947 H934 0.929 . S
C947 C939 1.433 . S
C947 N949 1.384 . S
N948 C944 1.427 . S
N948 C945 1.384 . S
N949 C941 1.427 . S
N949 C947 1.384 . S
H950 C956 0.930 . S
H951 C960 0.930 . S
H952 C965 0.929 . S
H953 C963 0.929 . S
H954 C958 0.929 . S
H955 C964 0.929 . S
C956 H950 0.930 . S
C956 C957 1.367 . S
C956 C964 1.378 . S
C957 C956 1.367 . S
C957 C965 1.433 . S
C958 H954 0.929 . S
C958 C960 1.378 . S
C958 C962 1.350 . S
C959 C962 1.463 . S
C959 C964 1.350 . S
C959 N967 1.427 . S
C960 H951 0.930 . S
C960 C958 1.378 . S
C960 C961 1.367 . S
C961 C960 1.367 . S
C961 C963 1.433 . S
C962 C958 1.350 . S
C962 C959 1.463 . S
C962 N966 1.427 . S
C963 H953 0.929 . S
C963 C961 1.433 . S
C963 N966 1.384 . S
C964 H955 0.929 . S
C964 C956 1.378 . S
C964 C959 1.350 . S
C965 H952 0.929 . S
C965 C957 1.433 . S
C965 N967 1.384 . S
N966 C962 1.427 . S
N966 C963 1.384 . S
N967 C959 1.427 . S
N967 C965 1.384 . S
H968 C974 0.930 . S
H969 C978 0.930 . S
H970 C983 0.929 . S
H971 C981 0.929 . S
H972 C976 0.929 . S
H973 C982 0.929 . S
C974 H968 0.930 . S
C974 C975 1.367 . S
C974 C982 1.378 . S
C975 C974 1.367 . S
C975 C983 1.433 . S
C976 H972 0.929 . S
C976 C978 1.378 . S
C976 C980 1.350 . S
C977 C980 1.463 . S
C977 C982 1.350 . S
C977 N985 1.427 . S
C978 H969 0.930 . S
C978 C976 1.378 . S
C978 C979 1.367 . S
C979 C978 1.367 . S
C979 C981 1.433 . S
C980 C976 1.350 . S
C980 C977 1.463 . S
C980 N984 1.427 . S
C981 H971 0.929 . S
C981 C979 1.433 . S
C981 N984 1.384 . S
C982 H973 0.929 . S
C982 C974 1.378 . S
C982 C977 1.350 . S
C983 H970 0.929 . S
C983 C975 1.433 . S
C983 N985 1.384 . S
N984 C980 1.427 . S
N984 C981 1.384 . S
N985 C977 1.427 . S
N985 C983 1.384 . S
H986 C992 0.930 . S
H987 C996 0.930 . S
H988 C1001 0.929 . S
H989 C999 0.929 . S
H990 C994 0.929 . S
H991 C1000 0.929 . S
C992 H986 0.930 . S
C992 C993 1.367 . S
C992 C1000 1.378 . S
C993 C992 1.367 . S
C993 C1001 1.433 . S
C994 H990 0.929 . S
C994 C996 1.378 . S
C994 C998 1.350 . S
C995 C998 1.463 . S
C995 C1000 1.350 . S
C995 N1003 1.427 . S
C996 H987 0.930 . S
C996 C994 1.378 . S
C996 C997 1.367 . S
C997 C996 1.367 . S
C997 C999 1.433 . S
C998 C994 1.350 . S
C998 C995 1.463 . S
C998 N1002 1.427 . S
C999 H989 0.929 . S
C999 C997 1.433 . S
C999 N1002 1.384 . S
C1000 H991 0.929 . S
C1000 C992 1.378 . S
C1000 C995 1.350 . S
C1001 H988 0.929 . S
C1001 C993 1.433 . S
C1001 N1003 1.384 . S
N1002 C998 1.427 . S
N1002 C999 1.384 . S
N1003 C995 1.427 . S
N1003 C1001 1.384 . S
H1004 C1010 0.930 . S
H1005 C1014 0.930 . S
H1006 C1019 0.929 . S
H1007 C1017 0.929 . S
H1008 C1012 0.929 . S
H1009 C1018 0.929 . S
C1010 H1004 0.930 . S
C1010 C1011 1.367 . S
C1010 C1018 1.378 . S
C1011 C1010 1.367 . S
C1011 C1019 1.433 . S
C1012 H1008 0.929 . S
C1012 C1014 1.378 . S
C1012 C1016 1.350 . S
C1013 C1016 1.463 . S
C1013 C1018 1.350 . S
C1013 N1021 1.427 . S
C1014 H1005 0.930 . S
C1014 C1012 1.378 . S
C1014 C1015 1.367 . S
C1015 C1014 1.367 . S
C1015 C1017 1.433 . S
C1016 C1012 1.350 . S
C1016 C1013 1.463 . S
C1016 N1020 1.427 . S
C1017 H1007 0.929 . S
C1017 C1015 1.433 . S
C1017 N1020 1.384 . S
C1018 H1009 0.929 . S
C1018 C1010 1.378 . S
C1018 C1013 1.350 . S
C1019 H1006 0.929 . S
C1019 C1011 1.433 . S
C1019 N1021 1.384 . S
N1020 C1016 1.427 . S
N1020 C1017 1.384 . S
N1021 C1013 1.427 . S
N1021 C1019 1.384 . S
H1022 C1028 0.930 . S
H1023 C1032 0.930 . S
H1024 C1037 0.929 . S
H1025 C1035 0.929 . S
H1026 C1030 0.929 . S
H1027 C1036 0.929 . S
C1028 H1022 0.930 . S
C1028 C1029 1.367 . S
C1028 C1036 1.378 . S
C1029 C1028 1.367 . S
C1029 C1037 1.433 . S
C1030 H1026 0.929 . S
C1030 C1032 1.378 . S
C1030 C1034 1.350 . S
C1031 C1034 1.463 . S
C1031 C1036 1.350 . S
C1031 N1039 1.427 . S
C1032 H1023 0.930 . S
C1032 C1030 1.378 . S
C1032 C1033 1.367 . S
C1033 C1032 1.367 . S
C1033 C1035 1.433 . S
C1034 C1030 1.350 . S
C1034 C1031 1.463 . S
C1034 N1038 1.427 . S
C1035 H1025 0.929 . S
C1035 C1033 1.433 . S
C1035 N1038 1.384 . S
C1036 H1027 0.929 . S
C1036 C1028 1.378 . S
C1036 C1031 1.350 . S
C1037 H1024 0.929 . S
C1037 C1029 1.433 . S
C1037 N1039 1.384 . S
N1038 C1034 1.427 . S
N1038 C1035 1.384 . S
N1039 C1031 1.427 . S
N1039 C1037 1.384 . S
H1040 C1046 0.930 . S
H1041 C1050 0.930 . S
H1042 C1055 0.929 . S
H1043 C1053 0.929 . S
H1044 C1048 0.929 . S
H1045 C1054 0.929 . S
C1046 H1040 0.930 . S
C1046 C1047 1.367 . S
C1046 C1054 1.378 1_565 S
C1047 C1046 1.367 . S
C1047 C1055 1.433 . S
C1048 H1044 0.929 . S
C1048 C1050 1.378 . S
C1048 C1052 1.350 . S
C1049 C1052 1.463 . S
C1049 C1054 1.350 . S
C1049 N1057 1.427 . S
C1050 H1041 0.930 . S
C1050 C1048 1.378 . S
C1050 C1051 1.367 . S
C1051 C1050 1.367 . S
C1051 C1053 1.433 . S
C1052 C1048 1.350 . S
C1052 C1049 1.463 . S
C1052 N1056 1.427 . S
C1053 H1043 0.929 . S
C1053 C1051 1.433 . S
C1053 N1056 1.384 . S
C1054 H1045 0.929 . S
C1054 C1046 1.378 1_545 S
C1054 C1049 1.350 . S
C1055 H1042 0.929 . S
C1055 C1047 1.433 . S
C1055 N1057 1.384 1_565 S
N1056 C1052 1.427 . S
N1056 C1053 1.384 . S
N1057 C1049 1.427 . S
N1057 C1055 1.384 1_545 S
H1058 C1064 0.930 . S
H1059 C1068 0.930 . S
H1060 C1073 0.929 . S
H1061 C1071 0.929 . S
H1062 C1066 0.929 . S
H1063 C1072 0.929 . S
C1064 H1058 0.930 . S
C1064 C1065 1.367 . S
C1064 C1072 1.378 . S
C1065 C1064 1.367 . S
C1065 C1073 1.433 . S
C1066 H1062 0.929 . S
C1066 C1068 1.378 1_565 S
C1066 C1070 1.350 . S
C1067 C1070 1.463 . S
C1067 C1072 1.350 . S
C1067 N1075 1.427 . S
C1068 H1059 0.930 . S
C1068 C1066 1.378 1_545 S
C1068 C1069 1.367 . S
C1069 C1068 1.367 . S
C1069 C1071 1.433 . S
C1070 C1066 1.350 . S
C1070 C1067 1.463 . S
C1070 N1074 1.427 . S
C1071 H1061 0.929 . S
C1071 C1069 1.433 . S
C1071 N1074 1.384 1_545 S
C1072 H1063 0.929 . S
C1072 C1064 1.378 . S
C1072 C1067 1.350 . S
C1073 H1060 0.929 . S
C1073 C1065 1.433 . S
C1073 N1075 1.384 . S
N1074 C1070 1.427 . S
N1074 C1071 1.384 1_565 S
N1075 C1067 1.427 . S
N1075 C1073 1.384 . S
H1076 C1082 0.930 . S
H1077 C1086 0.930 . S
H1078 C1091 0.929 . S
H1079 C1089 0.929 . S
H1080 C1084 0.929 . S
H1081 C1090 0.929 . S
C1082 H1076 0.930 . S
C1082 C1083 1.367 . S
C1082 C1090 1.378 1_545 S
C1083 C1082 1.367 . S
C1083 C1091 1.433 . S
C1084 H1080 0.929 . S
C1084 C1086 1.378 . S
C1084 C1088 1.350 . S
C1085 C1088 1.463 . S
C1085 C1090 1.350 . S
C1085 N1093 1.427 . S
C1086 H1077 0.930 . S
C1086 C1084 1.378 . S
C1086 C1087 1.367 . S
C1087 C1086 1.367 . S
C1087 C1089 1.433 . S
C1088 C1084 1.350 . S
C1088 C1085 1.463 . S
C1088 N1092 1.427 . S
C1089 H1079 0.929 . S
C1089 C1087 1.433 . S
C1089 N1092 1.384 . S
C1090 H1081 0.929 . S
C1090 C1082 1.378 1_565 S
C1090 C1085 1.350 . S
C1091 H1078 0.929 . S
C1091 C1083 1.433 . S
C1091 N1093 1.384 1_545 S
N1092 C1088 1.427 . S
N1092 C1089 1.384 . S
N1093 C1085 1.427 . S
N1093 C1091 1.384 1_565 S
H1094 C1100 0.930 . S
H1095 C1104 0.930 . S
H1096 C1109 0.929 . S
H1097 C1107 0.929 . S
H1098 C1102 0.929 . S
H1099 C1108 0.929 . S
C1100 H1094 0.930 . S
C1100 C1101 1.367 . S
C1100 C1108 1.378 1_565 S
C1101 C1100 1.367 . S
C1101 C1109 1.433 . S
C1102 H1098 0.929 . S
C1102 C1104 1.378 . S
C1102 C1106 1.350 . S
C1103 C1106 1.463 . S
C1103 C1108 1.350 . S
C1103 N1111 1.427 . S
C1104 H1095 0.930 . S
C1104 C1102 1.378 . S
C1104 C1105 1.367 . S
C1105 C1104 1.367 . S
C1105 C1107 1.433 . S
C1106 C1102 1.350 . S
C1106 C1103 1.463 . S
C1106 N1110 1.427 . S
C1107 H1097 0.929 . S
C1107 C1105 1.433 . S
C1107 N1110 1.384 . S
C1108 H1099 0.929 . S
C1108 C1100 1.378 1_545 S
C1108 C1103 1.350 . S
C1109 H1096 0.929 . S
C1109 C1101 1.433 . S
C1109 N1111 1.384 1_565 S
N1110 C1106 1.427 . S
N1110 C1107 1.384 . S
N1111 C1103 1.427 . S
N1111 C1109 1.384 1_545 S
H1112 C1118 0.930 . S
H1113 C1122 0.930 . S
H1114 C1127 0.929 . S
H1115 C1125 0.929 . S
H1116 C1120 0.929 . S
H1117 C1126 0.929 . S
C1118 H1112 0.930 . S
C1118 C1119 1.367 . S
C1118 C1126 1.378 . S
C1119 C1118 1.367 . S
C1119 C1127 1.433 . S
C1120 H1116 0.929 . S
C1120 C1122 1.378 1_565 S
C1120 C1124 1.350 . S
C1121 C1124 1.463 . S
C1121 C1126 1.350 . S
C1121 N1129 1.427 . S
C1122 H1113 0.930 . S
C1122 C1120 1.378 1_545 S
C1122 C1123 1.367 . S
C1123 C1122 1.367 . S
C1123 C1125 1.433 . S
C1124 C1120 1.350 . S
C1124 C1121 1.463 . S
C1124 N1128 1.427 . S
C1125 H1115 0.929 . S
C1125 C1123 1.433 . S
C1125 N1128 1.384 1_545 S
C1126 H1117 0.929 . S
C1126 C1118 1.378 . S
C1126 C1121 1.350 . S
C1127 H1114 0.929 . S
C1127 C1119 1.433 . S
C1127 N1129 1.384 . S
N1128 C1124 1.427 . S
N1128 C1125 1.384 1_565 S
N1129 C1121 1.427 . S
N1129 C1127 1.384 . S
H1130 C1136 0.930 . S
H1131 C1140 0.930 . S
H1132 C1145 0.929 . S
H1133 C1143 0.929 . S
H1134 C1138 0.929 . S
H1135 C1144 0.929 . S
C1136 H1130 0.930 . S
C1136 C1137 1.367 . S
C1136 C1144 1.378 . S
C1137 C1136 1.367 . S
C1137 C1145 1.433 . S
C1138 H1134 0.929 . S
C1138 C1140 1.378 1_545 S
C1138 C1142 1.350 . S
C1139 C1142 1.463 . S
C1139 C1144 1.350 . S
C1139 N1147 1.427 . S
C1140 H1131 0.930 . S
C1140 C1138 1.378 1_565 S
C1140 C1141 1.367 . S
C1141 C1140 1.367 . S
C1141 C1143 1.433 . S
C1142 C1138 1.350 . S
C1142 C1139 1.463 . S
C1142 N1146 1.427 . S
C1143 H1133 0.929 . S
C1143 C1141 1.433 . S
C1143 N1146 1.384 1_565 S
C1144 H1135 0.929 . S
C1144 C1136 1.378 . S
C1144 C1139 1.350 . S
C1145 H1132 0.929 . S
C1145 C1137 1.433 . S
C1145 N1147 1.384 . S
N1146 C1142 1.427 . S
N1146 C1143 1.384 1_545 S
N1147 C1139 1.427 . S
N1147 C1145 1.384 . S
H1148 C1154 0.930 . S
H1149 C1158 0.930 . S
H1150 C1163 0.929 . S
H1151 C1161 0.929 . S
H1152 C1156 0.929 . S
H1153 C1162 0.929 . S
C1154 H1148 0.930 . S
C1154 C1155 1.367 . S
C1154 C1162 1.378 1_565 S
C1155 C1154 1.367 . S
C1155 C1163 1.433 . S
C1156 H1152 0.929 . S
C1156 C1158 1.378 . S
C1156 C1160 1.350 . S
C1157 C1160 1.463 . S
C1157 C1162 1.350 . S
C1157 N1165 1.427 . S
C1158 H1149 0.930 . S
C1158 C1156 1.378 . S
C1158 C1159 1.367 . S
C1159 C1158 1.367 . S
C1159 C1161 1.433 . S
C1160 C1156 1.350 . S
C1160 C1157 1.463 . S
C1160 N1164 1.427 . S
C1161 H1151 0.929 . S
C1161 C1159 1.433 . S
C1161 N1164 1.384 . S
C1162 H1153 0.929 . S
C1162 C1154 1.378 1_545 S
C1162 C1157 1.350 . S
C1163 H1150 0.929 . S
C1163 C1155 1.433 . S
C1163 N1165 1.384 1_565 S
N1164 C1160 1.427 . S
N1164 C1161 1.384 . S
N1165 C1157 1.427 . S
N1165 C1163 1.384 1_545 S
H1166 C1172 0.930 . S
H1167 C1176 0.930 . S
H1168 C1181 0.929 . S
H1169 C1179 0.929 . S
H1170 C1174 0.929 . S
H1171 C1180 0.929 . S
C1172 H1166 0.930 . S
C1172 C1173 1.367 . S
C1172 C1180 1.378 . S
C1173 C1172 1.367 . S
C1173 C1181 1.433 . S
C1174 H1170 0.929 . S
C1174 C1176 1.378 1_565 S
C1174 C1178 1.350 . S
C1175 C1178 1.463 . S
C1175 C1180 1.350 . S
C1175 N1183 1.427 . S
C1176 H1167 0.930 . S
C1176 C1174 1.378 1_545 S
C1176 C1177 1.367 . S
C1177 C1176 1.367 . S
C1177 C1179 1.433 . S
C1178 C1174 1.350 . S
C1178 C1175 1.463 . S
C1178 N1182 1.427 . S
C1179 H1169 0.929 . S
C1179 C1177 1.433 . S
C1179 N1182 1.384 1_545 S
C1180 H1171 0.929 . S
C1180 C1172 1.378 . S
C1180 C1175 1.350 . S
C1181 H1168 0.929 . S
C1181 C1173 1.433 . S
C1181 N1183 1.384 . S
N1182 C1178 1.427 . S
N1182 C1179 1.384 1_565 S
N1183 C1175 1.427 . S
N1183 C1181 1.384 . S
C327 C19 1.512 . S
C331 C199 1.506 . S
C345 C39 1.512 . S
C349 C179 1.507 . S
C363 C239 1.513 . S
C367 C59 1.508 . S
C381 C79 1.507 . S
C385 C219 1.513 . S
C399 C278 1.508 . S
C403 C98 1.513 . S
C417 C258 1.509 . S
C421 C118 1.507 . S
C435 C318 1.508 . S
C439 C138 1.513 . S
C453 C158 1.509 . S
C457 C298 1.507 . S
C471 C49 1.579 . S
C475 C9 1.579 . S
C489 C69 1.574 . S
C493 C29 1.574 . S
C507 C128 1.577 . S
C511 C88 1.580 . S
C525 C108 1.576 . S
C529 C148 1.580 . S
C543 C209 1.579 . S
C547 C169 1.579 . S
C561 C229 1.574 . S
C565 C189 1.574 . S
C579 C248 1.577 . S
C583 C288 1.573 . S
C597 C268 1.577 . S
C601 C308 1.573 . S
C615 C109 1.484 . S
C619 C8 1.493 . S
C633 C89 1.496 . S
C637 C28 1.481 . S
C651 C48 1.496 . S
C655 C149 1.481 . S
C669 C129 1.495 . S
C673 C68 1.482 . S
C687 C168 1.485 . S
C691 C269 1.492 . S
C705 C249 1.496 . S
C709 C188 1.481 . S
C723 C208 1.481 . S
C727 C309 1.496 . S
C741 C289 1.496 . S
C745 C228 1.481 . S
C759 C38 1.583 . S
C763 C18 1.577 . S
C777 C78 1.574 . S
C781 C58 1.579 . S
C795 C119 1.583 . S
C799 C99 1.578 . S
C813 C139 1.577 . S
C817 C159 1.582 . S
C831 C198 1.586 . S
C835 C178 1.582 . S
C849 C238 1.575 . S
C853 C218 1.580 . S
C867 C259 1.574 . S
C871 C279 1.578 . S
C885 C299 1.582 . S
C889 C319 1.576 . S
C903 C2 1.634 . S
C907 C1 1.634 . S
C921 C22 1.638 . S
C925 C21 1.638 . S
C939 C42 1.630 . S
C943 C41 1.630 . S
C957 C61 1.625 . S
C961 C62 1.625 . S
C975 C81 1.638 . S
C979 C82 1.638 . S
C993 C102 1.633 . S
C997 C101 1.633 . S
C1011 C121 1.631 . S
C1015 C122 1.631 . S
C1029 C141 1.635 . S
C1033 C142 1.635 . S
C1047 C161 1.626 . S
C1051 C162 1.626 . S
C1065 C182 1.629 . S
C1069 C181 1.629 . S
C1083 C201 1.627 . S
C1087 C202 1.627 . S
C1101 C221 1.638 . S
C1105 C222 1.638 . S
C1119 C241 1.636 . S
C1123 C242 1.636 . S
C1137 C261 1.632 . S
C1141 C262 1.632 . S
C1155 C282 1.625 . S
C1159 C281 1.625 . S
C1173 C301 1.629 . S
C1177 C302 1.629 . S
