# Generated by pormake.
# Topology unl, (4)-cn, num edge types: 1
# Building blocks:
#     Node 0, Type 0, BuildingBlock: QUQFOY_clean_sbu_1, # of connection points: 4
#     Node 1, Type 0, BuildingBlock: QUQFOY_clean_sbu_1, # of connection points: 4
#     Node 2, Type 0, BuildingBlock: QUQFOY_clean_sbu_1, # of connection points: 4
#     Node 3, Type 0, BuildingBlock: QUQFOY_clean_sbu_1, # of connection points: 4
#     Node 4, Type 0, BuildingBlock: QUQFOY_clean_sbu_1, # of connection points: 4
#     Node 5, Type 0, BuildingBlock: QUQFOY_clean_sbu_1, # of connection points: 4
#     Node 6, Type 0, BuildingBlock: QUQFOY_clean_sbu_1, # of connection points: 4
#     Node 7, Type 0, BuildingBlock: QUQFOY_clean_sbu_1, # of connection points: 4
#     Node 8, Type 0, BuildingBlock: QUQFOY_clean_sbu_1, # of connection points: 4
#     Node 9, Type 0, BuildingBlock: QUQFOY_clean_sbu_1, # of connection points: 4
#     Node 10, Type 0, BuildingBlock: QUQFOY_clean_sbu_1, # of connection points: 4
#     Node 11, Type 0, BuildingBlock: QUQFOY_clean_sbu_1, # of connection points: 4
#     Node 12, Type 0, BuildingBlock: QUQFOY_clean_sbu_1, # of connection points: 4
#     Node 13, Type 0, BuildingBlock: QUQFOY_clean_sbu_1, # of connection points: 4
#     Node 14, Type 0, BuildingBlock: QUQFOY_clean_sbu_1, # of connection points: 4
#     Node 15, Type 0, BuildingBlock: QUQFOY_clean_sbu_1, # of connection points: 4
#     Node 16, Type 0, BuildingBlock: QUQFOY_clean_sbu_1, # of connection points: 4
#     Node 17, Type 0, BuildingBlock: QUQFOY_clean_sbu_1, # of connection points: 4
#     Node 18, Type 0, BuildingBlock: QUQFOY_clean_sbu_1, # of connection points: 4
#     Node 19, Type 0, BuildingBlock: QUQFOY_clean_sbu_1, # of connection points: 4
#     Node 20, Type 0, BuildingBlock: QUQFOY_clean_sbu_1, # of connection points: 4
#     Node 21, Type 0, BuildingBlock: QUQFOY_clean_sbu_1, # of connection points: 4
#     Node 22, Type 0, BuildingBlock: QUQFOY_clean_sbu_1, # of connection points: 4
#     Node 23, Type 0, BuildingBlock: QUQFOY_clean_sbu_1, # of connection points: 4
#     Node 24, Type 0, BuildingBlock: QUQFOY_clean_sbu_1, # of connection points: 4
#     Node 25, Type 0, BuildingBlock: QUQFOY_clean_sbu_1, # of connection points: 4
#     Node 26, Type 0, BuildingBlock: QUQFOY_clean_sbu_1, # of connection points: 4
#     Node 27, Type 0, BuildingBlock: QUQFOY_clean_sbu_1, # of connection points: 4
#     Node 28, Type 0, BuildingBlock: QUQFOY_clean_sbu_1, # of connection points: 4
#     Node 29, Type 0, BuildingBlock: QUQFOY_clean_sbu_1, # of connection points: 4
#     Node 30, Type 0, BuildingBlock: QUQFOY_clean_sbu_1, # of connection points: 4
#     Node 31, Type 0, BuildingBlock: QUQFOY_clean_sbu_1, # of connection points: 4
#     Node 32, Type 0, BuildingBlock: QUQFOY_clean_sbu_1, # of connection points: 4
#     Node 33, Type 0, BuildingBlock: QUQFOY_clean_sbu_1, # of connection points: 4
#     Node 34, Type 0, BuildingBlock: QUQFOY_clean_sbu_1, # of connection points: 4
#     Node 35, Type 0, BuildingBlock: QUQFOY_clean_sbu_1, # of connection points: 4
#     Edge 36, Type (0, 0), BuildingBlock: ZUJKAS_clean_linker_0, # of connection points: 2
#     Edge 37, Type (0, 0), BuildingBlock: ZUJKAS_clean_linker_0, # of connection points: 2
#     Edge 38, Type (0, 0), BuildingBlock: ZUJKAS_clean_linker_0, # of connection points: 2
#     Edge 39, Type (0, 0), BuildingBlock: ZUJKAS_clean_linker_0, # of connection points: 2
#     Edge 40, Type (0, 0), BuildingBlock: ZUJKAS_clean_linker_0, # of connection points: 2
#     Edge 41, Type (0, 0), BuildingBlock: ZUJKAS_clean_linker_0, # of connection points: 2
#     Edge 42, Type (0, 0), BuildingBlock: ZUJKAS_clean_linker_0, # of connection points: 2
#     Edge 43, Type (0, 0), BuildingBlock: ZUJKAS_clean_linker_0, # of connection points: 2
#     Edge 44, Type (0, 0), BuildingBlock: ZUJKAS_clean_linker_0, # of connection points: 2
#     Edge 45, Type (0, 0), BuildingBlock: ZUJKAS_clean_linker_0, # of connection points: 2
#     Edge 46, Type (0, 0), BuildingBlock: ZUJKAS_clean_linker_0, # of connection points: 2
#     Edge 47, Type (0, 0), BuildingBlock: ZUJKAS_clean_linker_0, # of connection points: 2
#     Edge 48, Type (0, 0), BuildingBlock: ZUJKAS_clean_linker_0, # of connection points: 2
#     Edge 49, Type (0, 0), BuildingBlock: ZUJKAS_clean_linker_0, # of connection points: 2
#     Edge 50, Type (0, 0), BuildingBlock: ZUJKAS_clean_linker_0, # of connection points: 2
#     Edge 51, Type (0, 0), BuildingBlock: ZUJKAS_clean_linker_0, # of connection points: 2
#     Edge 52, Type (0, 0), BuildingBlock: ZUJKAS_clean_linker_0, # of connection points: 2
#     Edge 53, Type (0, 0), BuildingBlock: ZUJKAS_clean_linker_0, # of connection points: 2
#     Edge 54, Type (0, 0), BuildingBlock: ZUJKAS_clean_linker_0, # of connection points: 2
#     Edge 55, Type (0, 0), BuildingBlock: ZUJKAS_clean_linker_0, # of connection points: 2
#     Edge 56, Type (0, 0), BuildingBlock: ZUJKAS_clean_linker_0, # of connection points: 2
#     Edge 57, Type (0, 0), BuildingBlock: ZUJKAS_clean_linker_0, # of connection points: 2
#     Edge 58, Type (0, 0), BuildingBlock: ZUJKAS_clean_linker_0, # of connection points: 2
#     Edge 59, Type (0, 0), BuildingBlock: ZUJKAS_clean_linker_0, # of connection points: 2
#     Edge 60, Type (0, 0), BuildingBlock: ZUJKAS_clean_linker_0, # of connection points: 2
#     Edge 61, Type (0, 0), BuildingBlock: ZUJKAS_clean_linker_0, # of connection points: 2
#     Edge 62, Type (0, 0), BuildingBlock: ZUJKAS_clean_linker_0, # of connection points: 2
#     Edge 63, Type (0, 0), BuildingBlock: ZUJKAS_clean_linker_0, # of connection points: 2
#     Edge 64, Type (0, 0), BuildingBlock: ZUJKAS_clean_linker_0, # of connection points: 2
#     Edge 65, Type (0, 0), BuildingBlock: ZUJKAS_clean_linker_0, # of connection points: 2
#     Edge 66, Type (0, 0), BuildingBlock: ZUJKAS_clean_linker_0, # of connection points: 2
#     Edge 67, Type (0, 0), BuildingBlock: ZUJKAS_clean_linker_0, # of connection points: 2
#     Edge 68, Type (0, 0), BuildingBlock: ZUJKAS_clean_linker_0, # of connection points: 2
#     Edge 69, Type (0, 0), BuildingBlock: ZUJKAS_clean_linker_0, # of connection points: 2
#     Edge 70, Type (0, 0), BuildingBlock: ZUJKAS_clean_linker_0, # of connection points: 2
#     Edge 71, Type (0, 0), BuildingBlock: ZUJKAS_clean_linker_0, # of connection points: 2
#     Edge 72, Type (0, 0), BuildingBlock: ZUJKAS_clean_linker_0, # of connection points: 2
#     Edge 73, Type (0, 0), BuildingBlock: ZUJKAS_clean_linker_0, # of connection points: 2
#     Edge 74, Type (0, 0), BuildingBlock: ZUJKAS_clean_linker_0, # of connection points: 2
#     Edge 75, Type (0, 0), BuildingBlock: ZUJKAS_clean_linker_0, # of connection points: 2
#     Edge 76, Type (0, 0), BuildingBlock: ZUJKAS_clean_linker_0, # of connection points: 2
#     Edge 77, Type (0, 0), BuildingBlock: ZUJKAS_clean_linker_0, # of connection points: 2
#     Edge 78, Type (0, 0), BuildingBlock: ZUJKAS_clean_linker_0, # of connection points: 2
#     Edge 79, Type (0, 0), BuildingBlock: ZUJKAS_clean_linker_0, # of connection points: 2
#     Edge 80, Type (0, 0), BuildingBlock: ZUJKAS_clean_linker_0, # of connection points: 2
#     Edge 81, Type (0, 0), BuildingBlock: ZUJKAS_clean_linker_0, # of connection points: 2
#     Edge 82, Type (0, 0), BuildingBlock: ZUJKAS_clean_linker_0, # of connection points: 2
#     Edge 83, Type (0, 0), BuildingBlock: ZUJKAS_clean_linker_0, # of connection points: 2
#     Edge 84, Type (0, 0), BuildingBlock: ZUJKAS_clean_linker_0, # of connection points: 2
#     Edge 85, Type (0, 0), BuildingBlock: ZUJKAS_clean_linker_0, # of connection points: 2
#     Edge 86, Type (0, 0), BuildingBlock: ZUJKAS_clean_linker_0, # of connection points: 2
#     Edge 87, Type (0, 0), BuildingBlock: ZUJKAS_clean_linker_0, # of connection points: 2
#     Edge 88, Type (0, 0), BuildingBlock: ZUJKAS_clean_linker_0, # of connection points: 2
#     Edge 89, Type (0, 0), BuildingBlock: ZUJKAS_clean_linker_0, # of connection points: 2
#     Edge 90, Type (0, 0), BuildingBlock: ZUJKAS_clean_linker_0, # of connection points: 2
#     Edge 91, Type (0, 0), BuildingBlock: ZUJKAS_clean_linker_0, # of connection points: 2
#     Edge 92, Type (0, 0), BuildingBlock: ZUJKAS_clean_linker_0, # of connection points: 2
#     Edge 93, Type (0, 0), BuildingBlock: ZUJKAS_clean_linker_0, # of connection points: 2
#     Edge 94, Type (0, 0), BuildingBlock: ZUJKAS_clean_linker_0, # of connection points: 2
#     Edge 95, Type (0, 0), BuildingBlock: ZUJKAS_clean_linker_0, # of connection points: 2
#     Edge 96, Type (0, 0), BuildingBlock: ZUJKAS_clean_linker_0, # of connection points: 2
#     Edge 97, Type (0, 0), BuildingBlock: ZUJKAS_clean_linker_0, # of connection points: 2
#     Edge 98, Type (0, 0), BuildingBlock: ZUJKAS_clean_linker_0, # of connection points: 2
#     Edge 99, Type (0, 0), BuildingBlock: ZUJKAS_clean_linker_0, # of connection points: 2
#     Edge 100, Type (0, 0), BuildingBlock: ZUJKAS_clean_linker_0, # of connection points: 2
#     Edge 101, Type (0, 0), BuildingBlock: ZUJKAS_clean_linker_0, # of connection points: 2
#     Edge 102, Type (0, 0), BuildingBlock: ZUJKAS_clean_linker_0, # of connection points: 2
#     Edge 103, Type (0, 0), BuildingBlock: ZUJKAS_clean_linker_0, # of connection points: 2
#     Edge 104, Type (0, 0), BuildingBlock: ZUJKAS_clean_linker_0, # of connection points: 2
#     Edge 105, Type (0, 0), BuildingBlock: ZUJKAS_clean_linker_0, # of connection points: 2
#     Edge 106, Type (0, 0), BuildingBlock: ZUJKAS_clean_linker_0, # of connection points: 2
#     Edge 107, Type (0, 0), BuildingBlock: ZUJKAS_clean_linker_0, # of connection points: 2
# Relax obj value: 0.012
# Max RMSD: 0.071
# Mean RMSD: 0.071
data_MOF--net-unl--node1-QUQFOY_clean_sbu_1--edge1-ZUJKAS_clean_linker_0
_symmetry_space_group_name_H-M    P1
_symmetry_Int_Tables_number       1
_symmetry_cell_setting            triclinic
loop_
_symmetry_equiv_pos_as_xyz
'x, y, z'
_cell_length_a     88.762704
_cell_length_b     88.736649
_cell_length_c     52.847653
_cell_angle_alpha  90.0135
_cell_angle_beta   89.971558
_cell_angle_gamma 119.98705
loop_
_atom_site_label
_atom_site_type_symbol
_atom_site_fract_x
_atom_site_fract_y
_atom_site_fract_z
_atom_type_partial_charge
O0 O 0.22446 0.1591 0.14075 0.0
Cd1 Cd 0.23773 0.1585 0.10909 0.0
Cd2 Cd 0.20883 0.12723 0.10312 0.0
O3 O 0.2025 0.13219 0.13871 0.0
O4 O 0.2628 0.17533 0.11591 0.0
O5 O 0.25223 0.14696 0.11223 0.0
C6 C 0.26531 0.16222 0.11694 0.0
C7 C 0.20499 0.09984 0.09285 0.0
C8 C 0.2105 0.14678 0.15001 0.0
C9 C 0.21594 0.15523 0.06438 0.0
O10 O 0.20548 0.14023 0.07323 0.0
O11 O 0.23057 0.16477 0.07501 0.0
O12 O 0.19196 0.10226 0.09604 0.0
O13 O 0.22039 0.11294 0.09651 0.0
O14 O 0.86243 0.07014 0.13735 0.0
Cd15 Cd 0.86275 0.0838 0.10569 0.0
Cd16 Cd 0.89447 0.08706 0.09995 0.0
O17 O 0.88947 0.07547 0.13537 0.0
O18 O 0.84559 0.09163 0.11258 0.0
O19 O 0.87387 0.10981 0.10873 0.0
C20 C 0.85852 0.10735 0.1136 0.0
C21 C 0.92168 0.1111 0.09033 0.0
C22 C 0.87485 0.06868 0.14661 0.0
C23 C 0.86669 0.0657 0.06104 0.0
O24 O 0.88185 0.07084 0.06976 0.0
O25 O 0.85671 0.0702 0.07179 0.0
O26 O 0.9196 0.09574 0.09311 0.0
O27 O 0.90833 0.113 0.09396 0.0
O28 O 0.95235 0.79766 0.14017 0.0
Cd29 Cd 0.93805 0.78423 0.10897 0.0
Cd30 Cd 0.93527 0.81297 0.10349 0.0
O31 O 0.94748 0.81969 0.13845 0.0
O32 O 0.93001 0.75922 0.11587 0.0
O33 O 0.91207 0.76965 0.1127 0.0
C34 C 0.91438 0.75663 0.11727 0.0
C35 C 0.91143 0.81663 0.09467 0.0
C36 C 0.95425 0.81173 0.14939 0.0
C37 C 0.95565 0.80578 0.06378 0.0
O38 O 0.95089 0.81605 0.07271 0.0
O39 O 0.95112 0.79133 0.07465 0.0
O40 O 0.92695 0.82973 0.09689 0.0
O41 O 0.90927 0.80129 0.09846 0.0
O42 O 0.16245 0.21991 0.36669 0.0
Cd43 Cd 0.16189 0.23354 0.39789 0.0
Cd44 Cd 0.13085 0.20444 0.40451 0.0
O45 O 0.13577 0.19758 0.36926 0.0
O46 O 0.17899 0.25843 0.39034 0.0
O47 O 0.15074 0.24839 0.39427 0.0
C48 C 0.16608 0.26123 0.38921 0.0
C49 C 0.10372 0.20131 0.41453 0.0
C50 C 0.15031 0.20568 0.35782 0.0
C51 C 0.15911 0.21234 0.44313 0.0
O52 O 0.14407 0.20166 0.43463 0.0
O53 O 0.16845 0.22687 0.43209 0.0
O54 O 0.10584 0.18803 0.41217 0.0
O55 O 0.11697 0.21652 0.41021 0.0
O56 O 0.8005 0.9478 0.36367 0.0
Cd57 Cd 0.78695 0.93346 0.39483 0.0
Cd58 Cd 0.81614 0.93139 0.40113 0.0
O59 O 0.82277 0.94334 0.366 0.0
O60 O 0.76198 0.92549 0.3876 0.0
O61 O 0.77226 0.90744 0.39117 0.0
C62 C 0.7593 0.90981 0.38641 0.0
C63 C 0.82089 0.90831 0.41072 0.0
C64 C 0.81472 0.94988 0.35473 0.0
C65 C 0.80818 0.95154 0.4402 0.0
O66 O 0.81879 0.94713 0.43155 0.0
O67 O 0.79371 0.94658 0.42914 0.0
O68 O 0.83358 0.924 0.40808 0.0
O69 O 0.80531 0.90549 0.4069 0.0
O70 O 0.07474 0.85706 0.3654 0.0
Cd71 Cd 0.08804 0.85694 0.39724 0.0
Cd72 Cd 0.09137 0.88874 0.40366 0.0
O73 O 0.08025 0.88416 0.36797 0.0
O74 O 0.09581 0.83977 0.3902 0.0
O75 O 0.11406 0.86799 0.39462 0.0
C76 C 0.11157 0.85265 0.38953 0.0
C77 C 0.11473 0.91616 0.41435 0.0
C78 C 0.0735 0.86967 0.35635 0.0
C79 C 0.06957 0.86046 0.44178 0.0
O80 O 0.07481 0.87571 0.43335 0.0
O81 O 0.07414 0.85057 0.43092 0.0
O82 O 0.09928 0.91365 0.41093 0.0
O83 O 0.11718 0.90314 0.4107 0.0
O84 O 0.79957 0.8536 0.87036 0.0
Cd85 Cd 0.78627 0.85632 0.90029 0.0
Cd86 Cd 0.81477 0.88756 0.90272 0.0
O87 O 0.8197 0.88126 0.86696 0.0
O88 O 0.76107 0.83977 0.89396 0.0
O89 O 0.77253 0.86839 0.89421 0.0
C90 C 0.75912 0.85313 0.89078 0.0
C91 C 0.81886 0.91522 0.91182 0.0
C92 C 0.81247 0.86572 0.85873 0.0
C93 C 0.80856 0.86142 0.94434 0.0
O94 O 0.81911 0.87554 0.93322 0.0
O95 O 0.79333 0.85187 0.93553 0.0
O96 O 0.83181 0.91276 0.90787 0.0
O97 O 0.80338 0.902 0.90945 0.0
O98 O 0.16419 0.94765 0.86486 0.0
Cd99 Cd 0.16345 0.93347 0.89614 0.0
Cd100 Cd 0.13177 0.93018 0.90145 0.0
O101 O 0.13705 0.94205 0.86624 0.0
O102 O 0.18048 0.9255 0.88932 0.0
O103 O 0.15212 0.90749 0.89253 0.0
C104 C 0.16747 0.90984 0.88796 0.0
C105 C 0.10421 0.90664 0.91101 0.0
C106 C 0.15183 0.94914 0.85543 0.0
C107 C 0.15925 0.95112 0.94098 0.0
O108 O 0.14423 0.94619 0.93189 0.0
O109 O 0.16927 0.94662 0.93038 0.0
O110 O 0.10675 0.92214 0.90799 0.0
O111 O 0.11727 0.90425 0.9075 0.0
O112 O 0.07406 0.21882 0.86366 0.0
Cd113 Cd 0.08827 0.23251 0.89481 0.0
Cd114 Cd 0.09029 0.20346 0.90152 0.0
O115 O 0.07851 0.19655 0.86628 0.0
O116 O 0.09611 0.25742 0.88725 0.0
O117 O 0.11428 0.24733 0.89124 0.0
C118 C 0.11182 0.2602 0.8862 0.0
C119 C 0.1143 0.20034 0.91155 0.0
C120 C 0.072 0.20458 0.85485 0.0
C121 C 0.06991 0.21136 0.94013 0.0
O122 O 0.07428 0.20067 0.93164 0.0
O123 O 0.07506 0.22586 0.92905 0.0
O124 O 0.09892 0.18705 0.90913 0.0
O125 O 0.11624 0.21555 0.90727 0.0
O126 O 0.85807 0.7955 0.63265 0.0
Cd127 Cd 0.86051 0.78157 0.6034 0.0
Cd128 Cd 0.89234 0.80904 0.60174 0.0
O129 O 0.88605 0.81422 0.63739 0.0
O130 O 0.84367 0.75648 0.61002 0.0
O131 O 0.87225 0.76763 0.61026 0.0
C132 C 0.85689 0.75436 0.61365 0.0
C133 C 0.91989 0.81275 0.59282 0.0
C134 C 0.87039 0.80789 0.64477 0.0
C135 C 0.86688 0.80406 0.5595 0.0
O136 O 0.88098 0.8141 0.57108 0.0
O137 O 0.85676 0.78883 0.56791 0.0
O138 O 0.91766 0.82581 0.59697 0.0
O139 O 0.90651 0.79734 0.595 0.0
O140 O 0.22539 0.0713 0.64065 0.0
Cd141 Cd 0.23863 0.08483 0.60882 0.0
Cd142 Cd 0.21005 0.08787 0.6031 0.0
O143 O 0.20355 0.07643 0.63859 0.0
O144 O 0.26361 0.09261 0.61553 0.0
O145 O 0.25357 0.11085 0.6116 0.0
C146 C 0.26645 0.10836 0.6164 0.0
C147 C 0.20693 0.11191 0.59328 0.0
C148 C 0.21148 0.06978 0.64991 0.0
C149 C 0.21651 0.06645 0.56436 0.0
O150 O 0.20642 0.07151 0.5731 0.0
O151 O 0.23105 0.07113 0.575 0.0
O152 O 0.19364 0.09659 0.59619 0.0
O153 O 0.22217 0.11378 0.59689 0.0
O154 O 0.95022 0.15761 0.63987 0.0
Cd155 Cd 0.93649 0.15759 0.60843 0.0
Cd156 Cd 0.93407 0.12627 0.60132 0.0
O157 O 0.94562 0.13085 0.63671 0.0
O158 O 0.92877 0.17475 0.61604 0.0
O159 O 0.91048 0.14655 0.6116 0.0
C160 C 0.91302 0.16188 0.61685 0.0
C161 C 0.91006 0.09923 0.59093 0.0
C162 C 0.95205 0.14525 0.64851 0.0
C163 C 0.9549 0.15473 0.56314 0.0
O164 O 0.95021 0.13954 0.57135 0.0
O165 O 0.95 0.16423 0.57441 0.0
O166 O 0.92542 0.10127 0.59339 0.0
O167 O 0.90814 0.11249 0.59537 0.0
O168 O 0.89229 0.49278 0.47251 0.0
Cd169 Cd 0.90547 0.49223 0.44077 0.0
Cd170 Cd 0.87692 0.46057 0.43541 0.0
O171 O 0.87066 0.46568 0.47098 0.0
O172 O 0.93051 0.50919 0.44741 0.0
O173 O 0.9201 0.48084 0.44376 0.0
C174 C 0.93312 0.49614 0.44846 0.0
C175 C 0.87292 0.43309 0.42523 0.0
C176 C 0.87851 0.48037 0.48202 0.0
C177 C 0.8833 0.48832 0.39643 0.0
O178 O 0.8732 0.47327 0.40546 0.0
O179 O 0.89792 0.49822 0.40683 0.0
O180 O 0.85995 0.43556 0.42875 0.0
O181 O 0.88837 0.44618 0.42855 0.0
O182 O 0.52902 0.40351 0.47236 0.0
Cd183 Cd 0.52894 0.41701 0.44073 0.0
Cd184 Cd 0.56065 0.42037 0.43422 0.0
O185 O 0.55604 0.40883 0.46962 0.0
O186 O 0.51181 0.42482 0.44797 0.0
O187 O 0.54004 0.44303 0.44353 0.0
C188 C 0.52472 0.44056 0.44868 0.0
C189 C 0.58772 0.44449 0.42424 0.0
C190 C 0.54155 0.40208 0.48125 0.0
C191 C 0.53254 0.39889 0.3958 0.0
O192 O 0.5478 0.40413 0.40414 0.0
O193 O 0.5226 0.4033 0.40689 0.0
O194 O 0.58571 0.42914 0.42676 0.0
O195 O 0.57437 0.44633 0.42833 0.0
O196 O 0.61882 0.13025 0.47409 0.0
Cd197 Cd 0.60437 0.11692 0.44289 0.0
Cd198 Cd 0.60256 0.1462 0.43713 0.0
O199 O 0.6144 0.15257 0.47233 0.0
O200 O 0.59617 0.09188 0.44989 0.0
O201 O 0.57837 0.10247 0.44673 0.0
C202 C 0.58058 0.08939 0.45131 0.0
C203 C 0.57934 0.15073 0.42765 0.0
C204 C 0.62092 0.1444 0.48334 0.0
C205 C 0.62258 0.13833 0.39776 0.0
O206 O 0.61839 0.14903 0.40673 0.0
O207 O 0.61737 0.1237 0.4085 0.0
O208 O 0.59499 0.16351 0.43034 0.0
O209 O 0.57666 0.13519 0.43137 0.0
O210 O 0.82859 0.55336 0.69742 0.0
Cd211 Cd 0.82689 0.56608 0.72894 0.0
Cd212 Cd 0.79572 0.53725 0.73299 0.0
O213 O 0.80146 0.5318 0.69729 0.0
O214 O 0.84393 0.59128 0.72323 0.0
O215 O 0.81548 0.58064 0.72496 0.0
C216 C 0.83086 0.59379 0.72122 0.0
C217 C 0.76904 0.53522 0.74229 0.0
C218 C 0.81645 0.53976 0.68712 0.0
C219 C 0.82246 0.54318 0.77288 0.0
O220 O 0.80783 0.5327 0.76297 0.0
O221 O 0.83199 0.55821 0.7633 0.0
O222 O 0.77016 0.52154 0.73775 0.0
O223 O 0.78302 0.55023 0.74071 0.0
O224 O 0.46915 0.2816 0.69867 0.0
Cd225 Cd 0.45545 0.26708 0.72959 0.0
Cd226 Cd 0.48466 0.2652 0.7362 0.0
O227 O 0.49165 0.27753 0.70135 0.0
O228 O 0.43053 0.25911 0.72198 0.0
O229 O 0.44084 0.24109 0.72559 0.0
C230 C 0.42791 0.24345 0.72064 0.0
C231 C 0.48857 0.24152 0.74515 0.0
C232 C 0.48352 0.28395 0.68998 0.0
C233 C 0.47626 0.28491 0.77541 0.0
O234 O 0.48698 0.28058 0.76695 0.0
O235 O 0.46192 0.28002 0.76403 0.0
O236 O 0.50156 0.25713 0.74335 0.0
O237 O 0.47321 0.23918 0.74093 0.0
O238 O 0.74086 0.19111 0.70158 0.0
Cd239 Cd 0.75482 0.19164 0.73303 0.0
Cd240 Cd 0.75724 0.22298 0.73923 0.0
O241 O 0.74556 0.21793 0.70391 0.0
O242 O 0.76269 0.17454 0.72591 0.0
O243 O 0.78083 0.20283 0.72958 0.0
C244 C 0.77839 0.18749 0.72472 0.0
C245 C 0.78133 0.25016 0.7487 0.0
C246 C 0.73903 0.20337 0.69253 0.0
C247 C 0.73659 0.19503 0.77814 0.0
O248 O 0.74121 0.21011 0.76951 0.0
O249 O 0.74148 0.18542 0.76719 0.0
O250 O 0.76596 0.2481 0.74622 0.0
O251 O 0.78319 0.2368 0.74489 0.0
O252 O 0.46591 0.18704 0.20464 0.0
Cd253 Cd 0.45215 0.18945 0.23416 0.0
Cd254 Cd 0.47978 0.22132 0.23596 0.0
O255 O 0.485 0.21498 0.20038 0.0
O256 O 0.427 0.17275 0.22771 0.0
O257 O 0.43832 0.20135 0.22775 0.0
C258 C 0.42497 0.18604 0.22435 0.0
C259 C 0.4838 0.249 0.24477 0.0
C260 C 0.47847 0.19935 0.19273 0.0
C261 C 0.47466 0.19568 0.27807 0.0
O262 O 0.48467 0.20989 0.2667 0.0
O263 O 0.4595 0.18551 0.26948 0.0
O264 O 0.49675 0.24659 0.24071 0.0
O265 O 0.46833 0.23574 0.24258 0.0
O266 O 0.82864 0.27972 0.19786 0.0
Cd267 Cd 0.8282 0.26556 0.22901 0.0
Cd268 Cd 0.79663 0.26251 0.23511 0.0
O269 O 0.80161 0.27442 0.19995 0.0
O270 O 0.84527 0.25771 0.2216 0.0
O271 O 0.81698 0.23957 0.22534 0.0
C272 C 0.83231 0.24202 0.22035 0.0
C273 C 0.7694 0.23852 0.24479 0.0
C274 C 0.81628 0.28136 0.1888 0.0
C275 C 0.8245 0.28337 0.27416 0.0
O276 O 0.8094 0.2785 0.26544 0.0
O277 O 0.83434 0.27875 0.26326 0.0
O278 O 0.77155 0.25392 0.24227 0.0
O279 O 0.78267 0.23654 0.2408 0.0
O280 O 0.74095 0.55563 0.19969 0.0
Cd281 Cd 0.75493 0.56879 0.23125 0.0
Cd282 Cd 0.75693 0.53965 0.23723 0.0
O283 O 0.74535 0.53331 0.20183 0.0
O284 O 0.76313 0.59384 0.2244 0.0
O285 O 0.78096 0.5833 0.22799 0.0
C286 C 0.77875 0.59637 0.22328 0.0
C287 C 0.78037 0.53558 0.24714 0.0
C288 C 0.73898 0.54151 0.19052 0.0
C289 C 0.73645 0.54718 0.27614 0.0
O290 O 0.74086 0.5366 0.26739 0.0
O291 O 0.74155 0.56177 0.26534 0.0
O292 O 0.76486 0.52262 0.2441 0.0
O293 O 0.7828 0.55104 0.24351 0.0
O294 O 0.5261 0.12983 0.9677 0.0
Cd295 Cd 0.52876 0.11626 0.93811 0.0
Cd296 Cd 0.56004 0.14474 0.93562 0.0
O297 O 0.55377 0.14992 0.97125 0.0
O298 O 0.51188 0.09115 0.94466 0.0
O299 O 0.54041 0.10216 0.94465 0.0
C300 C 0.52504 0.08893 0.94807 0.0
C301 C 0.5874 0.14805 0.92667 0.0
C302 C 0.53819 0.14277 0.97931 0.0
C303 C 0.53399 0.13844 0.89385 0.0
O304 O 0.54809 0.14901 0.90498 0.0
O305 O 0.52443 0.12322 0.90272 0.0
O306 O 0.58535 0.1613 0.93015 0.0
O307 O 0.57396 0.13275 0.92944 0.0
O308 O 0.88977 0.40372 0.97411 0.0
Cd309 Cd 0.90333 0.41754 0.94261 0.0
Cd310 Cd 0.874 0.41933 0.93561 0.0
O311 O 0.86732 0.40786 0.97105 0.0
O312 O 0.92821 0.4253 0.95015 0.0
O313 O 0.91827 0.44358 0.94573 0.0
C314 C 0.93108 0.44106 0.95095 0.0
C315 C 0.87001 0.44277 0.9252 0.0
C316 C 0.87551 0.40166 0.98282 0.0
C317 C 0.88211 0.3988 0.89748 0.0
O318 O 0.87142 0.40321 0.90577 0.0
O319 O 0.89659 0.404 0.90862 0.0
O320 O 0.85704 0.42721 0.92782 0.0
O321 O 0.88541 0.44521 0.92945 0.0
O322 O 0.61753 0.49182 0.97269 0.0
Cd323 Cd 0.60309 0.48991 0.94089 0.0
Cd324 Cd 0.60091 0.45894 0.93889 0.0
O325 O 0.61086 0.46438 0.97512 0.0
O326 O 0.59508 0.50711 0.94619 0.0
O327 O 0.57714 0.47866 0.94501 0.0
C328 C 0.57947 0.49411 0.94845 0.0
C329 C 0.57686 0.43214 0.92784 0.0
C330 C 0.61834 0.47968 0.98426 0.0
C331 C 0.62251 0.48542 0.89904 0.0
O332 O 0.61885 0.47142 0.91053 0.0
O333 O 0.61588 0.49453 0.90631 0.0
O334 O 0.59179 0.43365 0.93267 0.0
O335 O 0.57535 0.44582 0.93029 0.0
O336 O 0.55885 0.82657 0.80714 0.0
Cd337 Cd 0.57209 0.82591 0.77553 0.0
Cd338 Cd 0.54359 0.79426 0.77025 0.0
O339 O 0.53722 0.79946 0.8057 0.0
O340 O 0.59716 0.8428 0.7821 0.0
O341 O 0.5866 0.81441 0.77873 0.0
C342 C 0.59969 0.8297 0.78328 0.0
C343 C 0.53968 0.7668 0.7602 0.0
C344 C 0.54503 0.81419 0.81664 0.0
C345 C 0.55 0.8219 0.73105 0.0
O346 O 0.53991 0.80687 0.74014 0.0
O347 O 0.5646 0.83183 0.74148 0.0
O348 O 0.52667 0.76924 0.76355 0.0
O349 O 0.5551 0.7799 0.76369 0.0
O350 O 0.19601 0.73612 0.80695 0.0
Cd351 Cd 0.19676 0.75034 0.77571 0.0
Cd352 Cd 0.22836 0.7535 0.7704 0.0
O353 O 0.22308 0.74148 0.80551 0.0
O354 O 0.17962 0.75817 0.78255 0.0
O355 O 0.20796 0.7763 0.7794 0.0
C356 C 0.19258 0.77386 0.78397 0.0
C357 C 0.25549 0.77777 0.76119 0.0
C358 C 0.2083 0.73448 0.81634 0.0
C359 C 0.20095 0.73267 0.73081 0.0
O360 O 0.21598 0.73756 0.73986 0.0
O361 O 0.19097 0.73721 0.74145 0.0
O362 O 0.25357 0.76246 0.76376 0.0
O363 O 0.24204 0.77949 0.76489 0.0
O364 O 0.28451 0.46371 0.80681 0.0
Cd365 Cd 0.2707 0.45004 0.77539 0.0
Cd366 Cd 0.26825 0.47888 0.76849 0.0
O367 O 0.27988 0.48586 0.80381 0.0
O368 O 0.26293 0.42514 0.78288 0.0
O369 O 0.24469 0.43511 0.77851 0.0
C370 C 0.24719 0.42229 0.78366 0.0
C371 C 0.2441 0.48173 0.75838 0.0
C372 C 0.28635 0.47789 0.81552 0.0
C373 C 0.28899 0.47131 0.73008 0.0
O374 O 0.28432 0.4818 0.73838 0.0
O375 O 0.28413 0.45691 0.74132 0.0
O376 O 0.25943 0.49511 0.76075 0.0
O377 O 0.2423 0.46659 0.76274 0.0
O378 O 0.49613 0.88792 0.03258 0.0
Cd379 Cd 0.49445 0.9007 0.06405 0.0
Cd380 Cd 0.46313 0.87198 0.06799 0.0
O381 O 0.46895 0.86645 0.03239 0.0
O382 O 0.51167 0.92586 0.05844 0.0
O383 O 0.48326 0.91545 0.05998 0.0
C384 C 0.4987 0.92852 0.05636 0.0
C385 C 0.43646 0.87006 0.07703 0.0
C386 C 0.48396 0.87433 0.02228 0.0
C387 C 0.4897 0.87772 0.10808 0.0
O388 O 0.47504 0.86734 0.09816 0.0
O389 O 0.49938 0.8927 0.09844 0.0
O390 O 0.43753 0.85635 0.07253 0.0
O391 O 0.45048 0.88504 0.07555 0.0
O392 O 0.13434 0.61293 0.0321 0.0
Cd393 Cd 0.12071 0.59905 0.06351 0.0
Cd394 Cd 0.14961 0.59662 0.07026 0.0
O395 O 0.15648 0.60829 0.03496 0.0
O396 O 0.09583 0.59138 0.05608 0.0
O397 O 0.10571 0.57304 0.06024 0.0
C398 C 0.09293 0.57561 0.05514 0.0
C399 C 0.15288 0.57267 0.08009 0.0
C400 C 0.14851 0.61478 0.02333 0.0
C401 C 0.14208 0.61737 0.10873 0.0
O402 O 0.15256 0.6127 0.10036 0.0
O403 O 0.12764 0.61247 0.0976 0.0
O404 O 0.16611 0.58809 0.07767 0.0
O405 O 0.13763 0.57066 0.07604 0.0
O406 O 0.4074 0.52507 0.03214 0.0
Cd407 Cd 0.42182 0.52571 0.06308 0.0
Cd408 Cd 0.42401 0.55686 0.06959 0.0
O409 O 0.41208 0.55188 0.03446 0.0
O410 O 0.42965 0.50864 0.05545 0.0
O411 O 0.4478 0.53693 0.05905 0.0
C412 C 0.44533 0.52159 0.05407 0.0
C413 C 0.44799 0.58404 0.07946 0.0
C414 C 0.4054 0.53726 0.02322 0.0
C415 C 0.40374 0.52876 0.1085 0.0
O416 O 0.40809 0.54377 0.09984 0.0
O417 O 0.40882 0.51932 0.0975 0.0
O418 O 0.43258 0.58189 0.07713 0.0
O419 O 0.44998 0.5708 0.07514 0.0
O420 O 0.13471 0.52415 0.53152 0.0
Cd421 Cd 0.12099 0.52444 0.56279 0.0
Cd422 Cd 0.14986 0.55571 0.5698 0.0
O423 O 0.15674 0.55097 0.53446 0.0
O424 O 0.09608 0.5076 0.5551 0.0
O425 O 0.10643 0.5359 0.55941 0.0
C426 C 0.09349 0.52066 0.55416 0.0
C427 C 0.15398 0.58321 0.58007 0.0
C428 C 0.14886 0.53651 0.5228 0.0
C429 C 0.142 0.52728 0.60823 0.0
O430 O 0.15256 0.54241 0.5999 0.0
O431 O 0.12762 0.51779 0.59696 0.0
O432 O 0.16689 0.58055 0.57738 0.0
O433 O 0.13854 0.57029 0.57594 0.0
O434 O 0.49574 0.6132 0.53088 0.0
Cd435 Cd 0.49572 0.59971 0.56261 0.0
Cd436 Cd 0.46406 0.59657 0.56893 0.0
O437 O 0.46875 0.60802 0.53343 0.0
O438 O 0.51283 0.59187 0.55551 0.0
O439 O 0.4846 0.57368 0.55989 0.0
C440 C 0.49992 0.57613 0.55482 0.0
C441 C 0.43697 0.57258 0.57924 0.0
C442 C 0.48326 0.61468 0.52188 0.0
C443 C 0.49217 0.61799 0.60738 0.0
O444 O 0.47697 0.61287 0.59889 0.0
O445 O 0.50205 0.61343 0.59643 0.0
O446 O 0.43902 0.58792 0.57644 0.0
O447 O 0.45026 0.57065 0.57515 0.0
O448 O 0.40721 0.88806 0.53317 0.0
Cd449 Cd 0.42113 0.90126 0.56479 0.0
Cd450 Cd 0.42325 0.87219 0.57074 0.0
O451 O 0.41185 0.86588 0.53523 0.0
O452 O 0.42921 0.92629 0.55794 0.0
O453 O 0.44715 0.91589 0.56155 0.0
C454 C 0.44486 0.92891 0.55683 0.0
C455 C 0.44677 0.8683 0.5809 0.0
C456 C 0.4054 0.87401 0.52395 0.0
C457 C 0.40255 0.87952 0.60954 0.0
O458 O 0.40699 0.86897 0.60071 0.0
O459 O 0.40772 0.89416 0.59888 0.0
O460 O 0.43131 0.85528 0.57771 0.0
O461 O 0.4491 0.88372 0.57729 0.0
O462 O 0.19668 0.46381 0.30531 0.0
Cd463 Cd 0.1974 0.4502 0.27421 0.0
Cd464 Cd 0.22851 0.4792 0.26792 0.0
O465 O 0.22345 0.486 0.30311 0.0
O466 O 0.18026 0.4253 0.28163 0.0
O467 O 0.20854 0.43535 0.27805 0.0
C468 C 0.19318 0.42251 0.28297 0.0
C469 C 0.25568 0.48229 0.25833 0.0
C470 C 0.20883 0.47798 0.31433 0.0
C471 C 0.20049 0.47151 0.22899 0.0
O472 O 0.21549 0.48215 0.23767 0.0
O473 O 0.19107 0.45696 0.2399 0.0
O474 O 0.2536 0.49559 0.26069 0.0
O475 O 0.24236 0.46708 0.26235 0.0
O476 O 0.55643 0.73628 0.30598 0.0
Cd477 Cd 0.57012 0.75048 0.27481 0.0
Cd478 Cd 0.54085 0.75238 0.26801 0.0
O479 O 0.53398 0.74044 0.30316 0.0
O480 O 0.59503 0.75832 0.28232 0.0
O481 O 0.58496 0.77651 0.27834 0.0
C482 C 0.59783 0.77404 0.28334 0.0
C483 C 0.53681 0.77585 0.25803 0.0
C484 C 0.54211 0.73407 0.31469 0.0
C485 C 0.5491 0.73224 0.22932 0.0
O486 O 0.53842 0.73663 0.23772 0.0
O487 O 0.56352 0.73725 0.24058 0.0
O488 O 0.52387 0.76026 0.26033 0.0
O489 O 0.5522 0.77833 0.26246 0.0
O490 O 0.2841 0.82428 0.30605 0.0
Cd491 Cd 0.26962 0.82243 0.27435 0.0
Cd492 Cd 0.26752 0.79148 0.2719 0.0
O493 O 0.27767 0.79689 0.30804 0.0
O494 O 0.26159 0.8396 0.27988 0.0
O495 O 0.24366 0.81116 0.27852 0.0
C496 C 0.24599 0.82659 0.2821 0.0
C497 C 0.2434 0.76465 0.2611 0.0
C498 C 0.28505 0.81214 0.31738 0.0
C499 C 0.28896 0.81813 0.23213 0.0
O500 O 0.28528 0.80402 0.24334 0.0
O501 O 0.28242 0.82723 0.23976 0.0
O502 O 0.25836 0.76618 0.26569 0.0
O503 O 0.24191 0.77834 0.26359 0.0
H504 H 0.17404 0.07004 0.08583 0.0
H505 H 0.16894 0.04345 0.06471 0.0
H506 H 0.22422 0.06462 0.0564 0.0
H507 H 0.22951 0.09141 0.07775 0.0
H508 H 0.18118 0.04489 0.01397 0.0
H509 H 0.20553 0.01327 0.08058 0.0
H510 H 0.19936 0.02884 0.091 0.0
H511 H 0.21947 0.03613 0.07444 0.0
C512 C 0.18517 0.06897 0.07996 0.0
C513 C 0.20219 0.08291 0.08336 0.0
C514 C 0.18221 0.05374 0.0679 0.0
C515 C 0.19618 0.05203 0.05909 0.0
C516 C 0.21325 0.06558 0.06338 0.0
H517 H 0.19286 0.97219 0.95733 0.0
H518 H 0.20305 0.99639 0.98753 0.0
C519 C 0.21625 0.0809 0.0755 0.0
C520 C 0.19264 0.03687 0.04308 0.0
H521 H 0.19501 0.9996 0.04094 0.0
C522 C 0.18424 0.03501 0.01986 0.0
C523 C 0.19684 0.02414 0.05068 0.0
C524 C 0.20571 0.02552 0.07559 0.0
C525 C 0.17968 0.02063 0.00417 0.0
C526 C 0.18328 1.00753 0.01213 0.0
C527 C 0.19216 0.0096 0.03501 0.0
C528 C 0.17726 0.99142 0.99708 0.0
C529 C 0.17103 0.01959 0.97912 0.0
C530 C 0.1594 0.98021 0.99332 0.0
C531 C 0.15356 0.9665 0.97609 0.0
C532 C 0.16547 0.96361 0.96238 0.0
C533 C 0.18335 0.97408 0.96755 0.0
C534 C 0.1892 0.98792 0.98477 0.0
H535 H 0.17334 0.03254 0.97292 0.0
H536 H 0.17582 0.01424 0.96415 0.0
H537 H 0.15678 0.01083 0.98106 0.0
H538 H 0.14997 0.98252 0.00297 0.0
H539 H 0.1397 0.95857 0.97281 0.0
H540 H 0.95198 0.11085 0.08335 0.0
H541 H 0.97881 0.13338 0.06419 0.0
H542 H 0.95674 0.16686 0.05778 0.0
H543 H 0.92957 0.14414 0.07676 0.0
H544 H 0.97049 0.16358 0.01321 0.0
H545 H 0.0185 0.17906 0.08962 0.0
H546 H 1.00597 0.1561 0.08391 0.0
H547 H 0.99534 0.16754 0.09539 0.0
C548 C 0.95288 0.1231 0.0783 0.0
C549 C 0.9386 0.12568 0.08158 0.0
C550 C 0.96832 0.13605 0.0675 0.0
C551 C 0.96992 0.15194 0.0599 0.0
C552 C 0.95585 0.15475 0.06371 0.0
H553 H 0.0523 0.22734 0.95807 0.0
H554 H 0.02889 0.21595 0.98964 0.0
C555 C 0.94035 0.14177 0.07459 0.0
C556 C 0.98563 0.16472 0.04572 0.0
H557 H 0.03005 0.18591 0.04707 0.0
C558 C 0.98352 0.1688 0.02078 0.0
C559 C 1.00262 0.17152 0.05562 0.0
C560 C 1.00575 0.16847 0.0827 0.0
C561 C 0.99792 0.17855 0.00497 0.0
C562 C 0.01489 0.1846 0.01449 0.0
C563 C 0.01703 0.18122 0.03979 0.0
C564 C 0.03038 0.19282 0.99772 0.0
C565 C 0.99482 0.18142 0.97776 0.0
C566 C 0.03944 0.18398 0.99262 0.0
C567 C 0.05281 0.19045 0.97472 0.0
C568 C 0.05748 0.20598 0.9616 0.0
C569 C 0.04901 0.21533 0.96776 0.0
C570 C 0.03556 0.20878 0.98567 0.0
H571 H 0.98091 0.17346 0.97232 0.0
H572 H 0.99886 0.19532 0.97493 0.0
H573 H 1.00269 0.17821 0.96484 0.0
H574 H 0.03571 0.17168 1.00177 0.0
H575 H 0.05911 0.18296 0.97061 0.0
H576 H 0.83885 0.88001 0.97069 0.0
H577 H 0.85107 0.86922 1.00247 0.0
H578 H 0.80493 0.81862 0.99921 0.0
H579 H 0.79255 0.82928 0.96716 0.0
H580 H 0.83814 0.85214 0.05119 0.0
H581 H 0.84573 0.81032 0.97953 0.0
H582 H 0.84171 0.82764 0.97069 0.0
H583 H 0.8244 0.80767 0.98327 0.0
C584 C 0.83116 0.86663 0.97691 0.0
C585 C 0.81477 0.85547 0.96616 0.0
C586 C 0.83817 0.8605 0.99515 0.0
C587 C 0.82902 0.84307 0.00292 0.0
C588 C 0.8123 0.83207 0.99321 0.0
H589 H 0.87774 0.7918 0.08373 0.0
H590 H 0.85505 0.79649 0.06527 0.0
C591 C 0.80521 0.83822 0.975 0.0
C592 C 0.8376 0.83634 0.01991 0.0
H593 H 0.8572 0.8116 0.01989 0.0
C594 C 0.84213 0.8431 0.0445 0.0
C595 C 0.84272 0.82449 0.01115 0.0
C596 C 0.83853 0.81713 0.98469 0.0
C597 C 0.85202 0.83867 0.06036 0.0
C598 C 0.85789 0.8275 0.05115 0.0
C599 C 0.8527 0.82015 0.02696 0.0
C600 C 0.87074 0.82458 0.06514 0.0
C601 C 0.85622 0.84612 0.08675 0.0
C602 C 0.88705 0.83879 0.07135 0.0
C603 C 0.89998 0.83617 0.08191 0.0
C604 C 0.89696 0.81924 0.08629 0.0
C605 C 0.88046 0.805 0.08069 0.0
C606 C 0.86749 0.80766 0.0701 0.0
H607 H 0.84613 0.84899 0.09385 0.0
H608 H 0.85733 0.8371 0.10017 0.0
H609 H 0.8688 0.85854 0.08646 0.0
H610 H 0.89006 0.85195 0.06711 0.0
H611 H 0.91254 0.84743 0.08586 0.0
H612 H 0.97413 0.18861 0.54687 0.0
H613 H 0.9975 0.2002 0.51524 0.0
H614 H 0.98758 0.14828 0.50005 0.0
H615 H 0.96426 0.13663 0.53127 0.0
H616 H 0.02693 0.19688 0.5187 0.0
H617 H 0.99254 0.16799 0.42898 0.0
H618 H 0.98145 0.16918 0.45692 0.0
H619 H 0.98658 0.15206 0.45355 0.0
C620 C 0.97667 0.17963 0.53637 0.0
C621 C 0.96733 0.16168 0.54166 0.0
C622 C 0.99006 0.18628 0.51835 0.0
C623 C 0.99416 0.17509 0.50504 0.0
C624 C 0.98443 0.15714 0.50965 0.0
H625 H 0.07385 0.17086 0.42426 0.0
H626 H 0.04724 0.16697 0.44382 0.0
C627 C 0.97115 0.1505 0.5277 0.0
C628 C 1.00969 0.18211 0.48834 0.0
H629 H 0.02311 0.17716 0.4299 0.0
C630 C 0.02611 0.1929 0.49911 0.0
C631 C 1.00859 0.17687 0.46281 0.0
C632 C 0.99132 0.16603 0.4498 0.0
C633 C 0.04148 0.19767 0.48556 0.0
C634 C 0.04038 0.19176 0.46037 0.0
C635 C 0.02395 0.18165 0.44922 0.0
C636 C 0.05603 0.19448 0.44626 0.0
C637 C 0.05874 0.20813 0.49882 0.0
C638 C 0.06968 0.21125 0.44044 0.0
C639 C 0.08501 0.21354 0.42926 0.0
C640 C 0.08691 0.19908 0.42363 0.0
C641 C 0.07288 0.18229 0.42845 0.0
C642 C 0.05762 0.18003 0.4396 0.0
H643 H 0.05718 0.20881 0.51958 0.0
H644 H 0.06721 0.20244 0.49535 0.0
H645 H 0.06547 0.2216 0.4913 0.0
H646 H 0.0686 0.22258 0.445 0.0
H647 H 0.09553 0.22663 0.42569 0.0
H648 H 0.79711 0.87498 0.4254 0.0
H649 H 0.8033 0.85389 0.44616 0.0
H650 H 0.8583 0.88928 0.43754 0.0
H651 H 0.85232 0.91037 0.41699 0.0
H652 H 0.82595 0.83849 0.43112 0.0
H653 H 0.84822 0.88125 0.5159 0.0
H654 H 0.83488 0.88303 0.49163 0.0
H655 H 0.85779 0.89191 0.48647 0.0
C656 C 0.81051 0.87814 0.42753 0.0
C657 C 0.82423 0.89444 0.4198 0.0
C658 C 0.81401 0.86607 0.43937 0.0
C659 C 0.83125 0.87015 0.44363 0.0
C660 C 0.84491 0.88598 0.43464 0.0
H661 H 0.88712 0.8338 0.53286 0.0
H662 H 0.87761 0.84794 0.50235 0.0
C663 C 0.84145 0.89801 0.42289 0.0
C664 C 0.83519 0.85869 0.45928 0.0
H665 H 0.85362 0.85773 0.51544 0.0
C666 C 0.83189 0.84258 0.44963 0.0
C667 C 0.84284 0.86406 0.48346 0.0
C668 C 0.84603 0.88093 0.49516 0.0
C669 C 0.83667 0.83196 0.46325 0.0
C670 C 0.84472 0.83758 0.48719 0.0
C671 C 0.8476 0.85351 0.49699 0.0
C672 C 0.85065 0.82748 0.50249 0.0
C673 C 0.83359 0.81514 0.45163 0.0
C674 C 0.83873 0.81102 0.51224 0.0
C675 C 0.84417 0.80281 0.52969 0.0
C676 C 0.86158 0.81104 0.53788 0.0
C677 C 0.8736 0.82713 0.5271 0.0
C678 C 0.86819 0.83525 0.50963 0.0
H679 H 0.83105 0.81464 0.43098 0.0
H680 H 0.84495 0.81331 0.45477 0.0
H681 H 0.82209 0.80411 0.46071 0.0
H682 H 0.82508 0.80491 0.50735 0.0
H683 H 0.83456 0.79048 0.53773 0.0
H684 H 0.14731 0.92453 0.43123 0.0
H685 H 0.16837 0.95138 0.45298 0.0
H686 H 0.13468 0.97273 0.44138 0.0
H687 H 0.11363 0.94611 0.41988 0.0
H688 H 0.18548 0.98939 0.43856 0.0
H689 H 0.14005 0.97022 0.52008 0.0
H690 H 0.13831 0.95496 0.49606 0.0
H691 H 0.13046 0.96975 0.48993 0.0
C692 C 0.14454 0.93507 0.43294 0.0
C693 C 0.1287 0.9331 0.42408 0.0
C694 C 0.15658 0.95039 0.44535 0.0
C695 C 0.15294 0.96391 0.44906 0.0
C696 C 0.13763 0.96235 0.43895 0.0
H697 H 0.18852 0.05738 0.53383 0.0
H698 H 0.17527 0.03323 0.50401 0.0
C699 C 0.12561 0.94711 0.42665 0.0
C700 C 0.16429 0.97908 0.46518 0.0
H701 H 0.16398 0.99901 0.52024 0.0
C702 C 0.18091 0.99147 0.45654 0.0
C703 C 0.15829 0.98165 0.48868 0.0
C704 C 0.14087 0.96839 0.49943 0.0
C705 C 0.1914 1.00679 0.47039 0.0
C706 C 0.18511 0.00959 0.4935 0.0
C707 C 0.16871 0.99691 0.5024 0.0
C708 C 0.19487 0.02577 0.50858 0.0
C709 C 0.20883 0.02013 0.45986 0.0
C710 C 0.21058 0.02989 0.52062 0.0
C711 C 0.21827 0.04381 0.53775 0.0
C712 C 0.21027 0.0537 0.54326 0.0
C713 C 0.19499 0.05 0.53019 0.0
C714 C 0.18739 0.03618 0.51309 0.0
H715 H 0.21034 0.01758 0.4397 0.0
H716 H 0.21062 0.03341 0.46151 0.0
H717 H 0.21929 0.01983 0.47093 0.0
H718 H 0.21644 0.02186 0.51771 0.0
H719 H 0.22998 0.04624 0.54758 0.0
H720 H 0.83292 0.04407 0.04586 0.0
H721 H 0.82256 0.01961 0.01612 0.0
H722 H 0.87559 0.0341 0.99889 0.0
H723 H 0.88602 0.0583 0.02864 0.0
H724 H 0.82933 0.01585 0.96297 0.0
H725 H 0.85392 0.98454 0.02915 0.0
H726 H 0.8514 1.00278 0.03819 0.0
H727 H 0.87001 1.00622 0.02007 0.0
C728 C 0.84237 0.04225 0.03535 0.0
C729 C 0.86029 0.05299 0.0399 0.0
C730 C 0.83642 0.02826 0.0184 0.0
C731 C 0.84831 0.02485 0.00573 0.0
C732 C 0.86619 0.03631 0.00886 0.0
H733 H 0.84995 0.94523 0.91665 0.0
H734 H 0.85558 0.97215 0.93728 0.0
C735 C 0.87213 0.05017 0.02585 0.0
C736 C 0.84225 0.00864 0.99086 0.0
H737 H 0.8451 0.9717 0.98853 0.0
C738 C 0.83263 1.0061 0.96859 0.0
C739 C 0.84643 0.99586 0.99842 0.0
C740 C 0.85586 0.99735 0.02288 0.0
C741 C 0.82772 0.99142 0.95314 0.0
C742 C 0.83245 0.97899 0.96033 0.0
C743 C 0.84165 0.98134 0.98293 0.0
C744 C 0.82851 0.9636 0.94459 0.0
C745 C 0.818 0.98954 0.92889 0.0
C746 C 0.81135 0.94994 0.9414 0.0
C747 C 0.80805 0.93443 0.92956 0.0
C748 C 0.82189 0.93233 0.92089 0.0
C749 C 0.83898 0.94636 0.92316 0.0
C750 C 0.84224 0.96179 0.93495 0.0
H751 H 0.81801 1.0017 0.92381 0.0
H752 H 0.8238 0.98592 0.91306 0.0
H753 H 0.8043 0.97898 0.93109 0.0
H754 H 0.80057 0.95096 0.94904 0.0
H755 H 0.79475 0.92386 0.9282 0.0
H756 H 0.97633 0.79274 0.04754 0.0
H757 H 1.00041 0.80628 0.01709 0.0
H758 H 0.98708 0.84581 1.00109 0.0
H759 H 0.96324 0.8326 0.03151 0.0
H760 H 1.00359 0.81715 0.96354 0.0
H761 H 0.03719 0.8722 0.03074 0.0
H762 H 0.01877 0.85158 0.03981 0.0
H763 H 0.01554 0.86724 0.02266 0.0
C764 C 0.97831 0.80411 0.03714 0.0
C765 C 0.96802 0.81174 0.04223 0.0
C766 C 0.99208 0.81182 0.01978 0.0
C767 C 0.9957 0.82722 0.00724 0.0
C768 C 0.98467 0.8341 0.01092 0.0
H769 H 0.07441 0.90789 0.91729 0.0
H770 H 0.04775 0.88664 0.93847 0.0
C771 C 0.97103 0.8265 0.0283 0.0
C772 C 1.01179 0.83706 0.99204 0.0
H773 H 0.04938 0.87627 0.98962 0.0
C774 C 0.0137 0.83001 0.96928 0.0
C775 C 0.02503 0.85376 0.99976 0.0
C776 C 0.02417 0.86161 0.02469 0.0
C777 C 0.02822 0.83961 0.95348 0.0
C778 C 0.0411 0.85656 0.96082 0.0
C779 C 0.03939 0.86333 0.98393 0.0
C780 C 0.05623 0.86793 0.94464 0.0
C781 C 0.02946 0.83188 0.9287 0.0
C782 C 0.06974 0.86431 0.9406 0.0
C783 C 0.0851 0.8765 0.92845 0.0
C784 C 0.08719 0.89254 0.92031 0.0
C785 C 0.07328 0.89572 0.92339 0.0
C786 C 0.05801 0.88357 0.93548 0.0
H787 H 0.01717 0.81978 0.92397 0.0
H788 H 0.0327 0.84141 0.91312 0.0
H789 H 0.04006 0.82873 0.92987 0.0
H790 H 0.06872 0.85242 0.94785 0.0
H791 H 0.09559 0.87369 0.92645 0.0
H792 H 0.14742 0.22567 0.92434 0.0
H793 H 0.17017 0.22153 0.94386 0.0
H794 H 0.13656 0.1659 0.93977 0.0
H795 H 0.11398 0.16989 0.92007 0.0
H796 H 0.16711 0.20539 0.98923 0.0
H797 H 0.18206 0.17126 0.91454 0.0
H798 H 0.17054 0.18282 0.90811 0.0
H799 H 0.15914 0.16101 0.92054 0.0
C800 C 0.14502 0.21257 0.92713 0.0
C801 C 0.12888 0.19811 0.92063 0.0
C802 C 0.15803 0.21022 0.93833 0.0
C803 C 0.15519 0.1934 0.94295 0.0
C804 C 0.13925 0.179 0.93584 0.0
H805 H 0.18721 0.13709 0.03476 0.0
H806 H 0.17552 0.14857 0.00327 0.0
C807 C 0.12627 0.18131 0.92473 0.0
C808 C 0.16803 0.19073 0.95741 0.0
H809 H 0.18927 0.16752 0.95731 0.0
C810 C 0.17229 0.19744 0.98208 0.0
C811 C 0.17478 0.18035 0.94805 0.0
C812 C 0.17154 0.1736 0.92126 0.0
C813 C 0.18217 0.19313 0.99818 0.0
C814 C 0.18818 0.18204 0.98922 0.0
C815 C 0.18462 0.17599 0.96417 0.0
C816 C 0.19658 0.17515 0.00636 0.0
C817 C 0.18523 0.19966 0.02512 0.0
C818 C 0.21261 0.18621 0.01803 0.0
C819 C 0.21939 0.17966 0.03615 0.0
C820 C 0.21022 0.16195 0.04289 0.0
C821 C 0.19458 0.15082 0.03021 0.0
C822 C 0.18788 0.15735 0.01212 0.0
H823 H 0.17725 0.20567 0.03023 0.0
H824 H 0.18218 0.18887 0.03852 0.0
H825 H 0.19913 0.20963 0.02755 0.0
H826 H 0.21968 0.19996 0.01356 0.0
H827 H 0.23149 0.18858 0.04548 0.0
H828 H 0.92806 0.7884 0.57588 0.0
H829 H 0.95494 0.794 0.55455 0.0
H830 H 0.97681 0.84904 0.56703 0.0
H831 H 0.95013 0.84363 0.58818 0.0
H832 H 0.97559 0.83842 0.51528 0.0
H833 H 1.00596 0.81111 0.57894 0.0
H834 H 0.9831 0.79768 0.57232 0.0
H835 H 0.99059 0.81729 0.59028 0.0
C836 C 0.93874 0.80166 0.57459 0.0
C837 C 0.9369 0.81558 0.58361 0.0
C838 C 0.95412 0.80482 0.56246 0.0
C839 C 0.96789 0.82193 0.55931 0.0
C840 C 0.96636 0.83574 0.56933 0.0
H841 H 0.06199 0.87957 0.47433 0.0
H842 H 0.03782 0.86895 0.50413 0.0
C843 C 0.95107 0.83261 0.58142 0.0
C844 C 0.9831 0.82578 0.54321 0.0
H845 H 0.01992 0.82265 0.53977 0.0
C846 C 0.98527 0.83495 0.52063 0.0
C847 C 0.99557 0.82103 0.55008 0.0
C848 C 0.99386 0.81131 0.57429 0.0
C849 C 0.99966 0.83972 0.50487 0.0
C850 C 0.0125 0.83556 0.51213 0.0
C851 C 1.01013 0.82594 0.53436 0.0
C852 C 0.02865 0.84171 0.49707 0.0
C853 C 1.00097 0.84914 0.48046 0.0
C854 C 0.03208 0.8299 0.48421 0.0
C855 C 0.04606 0.83596 0.46721 0.0
C856 C 0.05677 0.85391 0.46281 0.0
C857 C 0.05389 0.86566 0.477 0.0
C858 C 0.04004 0.85962 0.49402 0.0
H859 H 0.98811 0.84715 0.47441 0.0
H860 H 1.00981 0.86331 0.48325 0.0
H861 H 1.00633 0.84472 0.46502 0.0
H862 H 0.02348 0.81602 0.48642 0.0
H863 H 0.04793 0.82657 0.4566 0.0
H864 H 0.19273 0.22821 0.46086 0.0
H865 H 0.20472 0.21675 0.49233 0.0
H866 H 0.15359 0.17267 0.5048 0.0
H867 H 0.14149 0.18402 0.47373 0.0
H868 H 0.17369 0.18698 0.55 0.0
H869 H 0.20982 0.17396 0.47491 0.0
H870 H 0.21384 0.19588 0.47743 0.0
H871 H 0.19283 0.17881 0.4676 0.0
C872 C 0.18399 0.21623 0.4706 0.0
C873 C 0.16616 0.20695 0.46456 0.0
C874 C 0.19089 0.20964 0.48846 0.0
C875 C 0.18008 0.19372 0.50058 0.0
C876 C 0.16217 0.18495 0.49559 0.0
H877 H 0.17642 0.11177 0.58649 0.0
H878 H 0.17216 0.13431 0.56724 0.0
C879 C 0.15529 0.19146 0.47775 0.0
C880 C 0.18733 0.18545 0.51729 0.0
H881 H 0.21047 0.16417 0.51583 0.0
C882 C 0.18193 0.18219 0.54265 0.0
C883 C 0.19812 0.17926 0.50767 0.0
C884 C 0.20395 0.182 0.48039 0.0
C885 C 0.18663 0.17248 0.55845 0.0
C886 C 0.19669 0.16554 0.54847 0.0
C887 C 0.20276 0.1695 0.52346 0.0
C888 C 0.1996 0.15276 0.56267 0.0
C889 C 0.18058 0.16956 0.5856 0.0
C890 C 0.21647 0.15551 0.56635 0.0
C891 C 0.21897 0.14253 0.57728 0.0
C892 C 0.20462 0.12649 0.58445 0.0
C893 C 0.18778 0.12398 0.58129 0.0
C894 C 0.18531 0.13693 0.57044 0.0
H895 H 0.1785 0.18021 0.59251 0.0
H896 H 0.16797 0.15721 0.58697 0.0
H897 H 0.19009 0.16862 0.5982 0.0
H898 H 0.22769 0.16757 0.56029 0.0
H899 H 0.2321 0.14485 0.57935 0.0
H900 H 0.91062 0.06939 0.58078 0.0
H901 H 0.88795 0.04293 0.56087 0.0
H902 H 0.85378 0.06439 0.56003 0.0
H903 H 0.87661 0.09118 0.57969 0.0
H904 H 0.85368 0.01873 0.57444 0.0
H905 H 0.85625 0.05344 0.48534 0.0
H906 H 0.87257 0.06332 0.50968 0.0
H907 H 0.85164 0.06151 0.51375 0.0
C908 C 0.89824 0.06847 0.5766 0.0
C909 C 0.8955 0.08249 0.58161 0.0
C910 C 0.88527 0.05329 0.56524 0.0
C911 C 0.86927 0.05178 0.55857 0.0
C912 C 0.86616 0.06541 0.56458 0.0
H913 H 0.79338 0.97049 0.45717 0.0
H914 H 0.8051 0.99362 0.48918 0.0
C915 C 0.87918 0.08066 0.57596 0.0
C916 C 0.85638 0.03622 0.54426 0.0
H917 H 0.83791 0.02317 0.48582 0.0
C918 C 0.85005 0.01971 0.55516 0.0
C919 C 0.85161 0.0375 0.51913 0.0
C920 C 0.85843 0.05485 0.50611 0.0
C921 C 0.83952 1.00444 0.54137 0.0
C922 C 0.83541 1.00572 0.51589 0.0
C923 C 0.84105 0.02222 0.50537 0.0
C924 C 0.82694 0.99031 0.49897 0.0
C925 C 0.8331 0.98707 0.55409 0.0
C926 C 0.83522 0.98067 0.49402 0.0
C927 C 0.82862 0.96754 0.47576 0.0
C928 C 0.81359 0.96376 0.46193 0.0
C929 C 0.80492 0.97299 0.46757 0.0
C930 C 0.81162 0.98624 0.4858 0.0
H931 H 0.83237 0.98813 0.57495 0.0
H932 H 0.82007 0.97725 0.54693 0.0
H933 H 0.84232 0.98235 0.55009 0.0
H934 H 0.84725 0.98379 0.50353 0.0
H935 H 0.83565 0.96072 0.47192 0.0
H936 H 0.85823 0.30374 0.29053 0.0
H937 H 0.86902 0.32792 0.32076 0.0
H938 H 0.81637 0.31572 0.3359 0.0
H939 H 0.80553 0.29178 0.3057 0.0
H940 H 0.83857 0.34999 0.31985 0.0
H941 H 0.86808 0.33207 0.39876 0.0
H942 H 0.87463 0.33014 0.36726 0.0
H943 H 0.85254 0.31614 0.37707 0.0
C944 C 0.84893 0.30594 0.30077 0.0
C945 C 0.83102 0.2959 0.29554 0.0
C946 C 0.85512 0.31974 0.3181 0.0
C947 C 0.84349 0.32359 0.33064 0.0
C948 C 0.82558 0.31299 0.32643 0.0
H949 H 0.84196 0.40292 0.42072 0.0
H950 H 0.83634 0.37626 0.39924 0.0
C951 C 0.81941 0.2993 0.30912 0.0
C952 C 0.84982 0.3397 0.34587 0.0
H953 H 0.87104 0.36012 0.40032 0.0
C954 C 0.84568 0.35219 0.33743 0.0
C955 C 0.85929 0.34265 0.36863 0.0
C956 C 0.86384 0.32952 0.37867 0.0
C957 C 0.85048 0.3674 0.35127 0.0
C958 C 0.85944 0.37012 0.37444 0.0
C959 C 0.86408 0.35792 0.38261 0.0
C960 C 0.86335 0.38528 0.39065 0.0
C961 C 0.84589 0.38047 0.34098 0.0
C962 C 0.88051 0.39892 0.3939 0.0
C963 C 0.88381 0.41425 0.40632 0.0
C964 C 0.86997 0.41612 0.41564 0.0
C965 C 0.85291 0.40199 0.41359 0.0
C966 C 0.84966 0.38673 0.40128 0.0
H967 H 0.84295 0.3786 0.32041 0.0
H968 H 0.83418 0.3789 0.35093 0.0
H969 H 0.85666 0.39397 0.34417 0.0
H970 H 0.89126 0.39801 0.38587 0.0
H971 H 0.89709 0.42487 0.40763 0.0
H972 H 0.59585 0.47802 0.41343 0.0
H973 H 0.62282 0.50102 0.39438 0.0
H974 H 0.64425 0.46683 0.39515 0.0
H975 H 0.61762 0.444 0.41448 0.0
H976 H 0.66833 0.5009 0.4093 0.0
H977 H 0.63437 0.49921 0.31986 0.0
H978 H 0.62612 0.50366 0.34825 0.0
H979 H 0.62425 0.48271 0.34393 0.0
C980 C 0.6064 0.47549 0.40981 0.0
C981 C 0.60452 0.45912 0.41527 0.0
C982 C 0.62175 0.48861 0.39879 0.0
C983 C 0.63543 0.48553 0.39293 0.0
C984 C 0.63385 0.46948 0.39941 0.0
H985 H 0.72686 0.51936 0.30735 0.0
H986 H 0.7036 0.50764 0.33868 0.0
C987 C 0.61857 0.45641 0.41043 0.0
C988 C 0.6511 0.49853 0.37894 0.0
H989 H 0.66463 0.51746 0.32085 0.0
C990 C 0.66752 0.5047 0.39007 0.0
C991 C 0.65003 0.50352 0.35386 0.0
C992 C 0.63279 0.49688 0.3406 0.0
C993 C 0.68289 0.51529 0.37653 0.0
C994 C 0.68182 0.51962 0.3511 0.0
C995 C 0.66542 0.51415 0.34038 0.0
C996 C 0.69734 0.52815 0.33441 0.0
C997 C 0.70015 0.52151 0.38946 0.0
C998 C 0.7016 0.54361 0.32151 0.0
C999 C 0.71495 0.55039 0.30344 0.0
C1000 C 0.72409 0.54164 0.2977 0.0
C1001 C 0.72011 0.52645 0.31127 0.0
C1002 C 0.70688 0.51978 0.32938 0.0
H1003 H 0.69896 0.52205 0.41032 0.0
H1004 H 0.70483 0.51227 0.38534 0.0
H1005 H 0.71006 0.53459 0.38256 0.0
H1006 H 0.69429 0.5502 0.32496 0.0
H1007 H 0.71761 0.56205 0.29325 0.0
H1008 H 0.58144 0.18208 0.41992 0.0
H1009 H 0.56007 0.1877 0.39959 0.0
H1010 H 0.5244 0.13255 0.39382 0.0
H1011 H 0.54579 0.12673 0.41434 0.0
H1012 H 0.54763 0.17438 0.34939 0.0
H1013 H 0.49385 0.15358 0.41926 0.0
H1014 H 0.5157 0.15937 0.42852 0.0
H1015 H 0.50196 0.13893 0.41329 0.0
C1016 C 0.56895 0.1711 0.41478 0.0
C1017 C 0.56537 0.15394 0.41864 0.0
C1018 C 0.55674 0.17436 0.40317 0.0
C1019 C 0.54064 0.16056 0.39531 0.0
C1020 C 0.53666 0.14339 0.40007 0.0
H1021 H 0.46182 0.16303 0.29844 0.0
H1022 H 0.47659 0.15371 0.32855 0.0
C1023 C 0.54893 0.14009 0.41171 0.0
C1024 C 0.52899 0.1643 0.37974 0.0
H1025 H 0.49001 0.16335 0.37941 0.0
C1026 C 0.53503 0.17196 0.35595 0.0
C1027 C 0.51248 0.16091 0.38824 0.0
C1028 C 0.50555 0.15283 0.41378 0.0
C1029 C 0.52511 0.17652 0.34049 0.0
C1030 C 0.50884 0.17372 0.3493 0.0
C1031 C 0.50255 0.16562 0.37283 0.0
C1032 C 0.49855 0.17954 0.33428 0.0
C1033 C 0.5321 0.18416 0.31471 0.0
C1034 C 0.50562 0.19722 0.32843 0.0
C1035 C 0.49731 0.20256 0.31119 0.0
C1036 C 0.48163 0.19034 0.29963 0.0
C1037 C 0.4739 0.17277 0.30697 0.0
C1038 C 0.48232 0.16741 0.32415 0.0
H1039 H 0.54211 0.18104 0.30813 0.0
H1040 H 0.5215 0.17931 0.30045 0.0
H1041 H 0.53825 0.19854 0.31571 0.0
H1042 H 0.51796 0.20684 0.33646 0.0
H1043 H 0.50353 0.21622 0.30621 0.0
H1044 H 0.62628 0.50658 0.85846 0.0
H1045 H 0.64826 0.51605 0.82466 0.0
H1046 H 0.67111 0.48881 0.86134 0.0
H1047 H 0.64881 0.47859 0.89388 0.0
H1048 H 0.6817 0.53534 0.82284 0.0
H1049 H 0.66713 0.47017 0.79266 0.0
H1050 H 0.65311 0.47326 0.8141 0.0
H1051 H 0.67171 0.47226 0.82584 0.0
C1052 C 0.6359 0.50248 0.85902 0.0
C1053 C 0.63562 0.49156 0.87852 0.0
C1054 C 0.64846 0.50791 0.83976 0.0
C1055 C 0.66107 0.5027 0.83993 0.0
C1056 C 0.66112 0.49239 0.86003 0.0
H1057 H 0.76439 0.55309 0.7803 0.0
H1058 H 0.73695 0.54635 0.80039 0.0
C1059 C 0.6484 0.48664 0.87879 0.0
C1060 C 0.67461 0.50836 0.81982 0.0
H1061 H 0.69654 0.49347 0.78434 0.0
C1062 C 0.68475 0.52615 0.81402 0.0
C1063 C 0.67833 0.49642 0.80749 0.0
C1064 C 0.66682 0.47696 0.81015 0.0
C1065 C 0.69911 0.53237 0.79757 0.0
C1066 C 0.704 0.52059 0.78757 0.0
C1067 C 0.69319 0.5027 0.79222 0.0
C1068 C 0.72061 0.52633 0.77347 0.0
C1069 C 0.70872 0.55148 0.79105 0.0
C1070 C 0.72086 0.5172 0.75182 0.0
C1071 C 0.73663 0.52053 0.74106 0.0
C1072 C 0.75248 0.53345 0.75118 0.0
C1073 C 0.75231 0.54328 0.77186 0.0
C1074 C 0.73655 0.53951 0.78322 0.0
H1075 H 0.69972 0.55677 0.79089 0.0
H1076 H 0.71871 0.55871 0.80573 0.0
H1077 H 0.71516 0.55395 0.77229 0.0
H1078 H 0.70884 0.507 0.74377 0.0
H1079 H 0.73646 0.51276 0.72513 0.0
H1080 H 0.51945 0.24292 0.75435 0.0
H1081 H 0.52412 0.22042 0.77274 0.0
H1082 H 0.46875 0.18495 0.7736 0.0
H1083 H 0.46391 0.20763 0.75547 0.0
H1084 H 0.48372 0.18685 0.81917 0.0
H1085 H 0.52172 0.17692 0.74491 0.0
H1086 H 0.53099 0.1995 0.75274 0.0
H1087 H 0.50963 0.18795 0.73884 0.0
C1088 C 0.50824 0.23026 0.75802 0.0
C1089 C 0.4913 0.22709 0.75344 0.0
C1090 C 0.51095 0.21733 0.76837 0.0
C1091 C 0.49681 0.20088 0.77418 0.0
C1092 C 0.47987 0.1975 0.76906 0.0
H1093 H 0.5019 0.12234 0.87094 0.0
H1094 H 0.49116 0.13477 0.83907 0.0
C1095 C 0.47713 0.21047 0.75867 0.0
C1096 C 0.4998 0.18797 0.78789 0.0
H1097 H 0.52473 0.16854 0.78737 0.0
C1098 C 0.49238 0.18252 0.812 0.0
C1099 C 0.51111 0.18233 0.77853 0.0
C1100 C 0.51867 0.18684 0.75222 0.0
C1101 C 0.49677 0.17247 0.82758 0.0
C1102 C 0.50875 0.16757 0.81869 0.0
C1103 C 0.51559 0.17236 0.79417 0.0
C1104 C 0.51554 0.15894 0.83549 0.0
C1105 C 0.48934 0.16801 0.85399 0.0
C1106 C 0.53298 0.16812 0.84323 0.0
C1107 C 0.53915 0.16108 0.86135 0.0
C1108 C 0.52804 0.14464 0.87202 0.0
C1109 C 0.5108 0.13504 0.86318 0.0
C1110 C 0.50461 0.14216 0.84507 0.0
H1111 H 0.48247 0.17513 0.85934 0.0
H1112 H 0.4799 0.15386 0.85514 0.0
H1113 H 0.4998 0.17109 0.86802 0.0
H1114 H 0.54165 0.18106 0.83599 0.0
H1115 H 0.55252 0.16879 0.86758 0.0
H1116 H 0.85381 0.38796 0.86683 0.0
H1117 H 0.84255 0.36447 0.83586 0.0
H1118 H 0.88669 0.35754 0.84852 0.0
H1119 H 0.89806 0.38105 0.87994 0.0
H1120 H 0.85668 0.35859 0.79083 0.0
H1121 H 0.84424 0.30966 0.86595 0.0
H1122 H 0.84908 0.33149 0.87327 0.0
H1123 H 0.86612 0.32755 0.86317 0.0
C1124 C 0.86128 0.38161 0.86289 0.0
C1125 C 0.87676 0.38628 0.87612 0.0
C1126 C 0.85482 0.36819 0.84509 0.0
C1127 C 0.86363 0.35907 0.84018 0.0
C1128 C 0.87955 0.36424 0.85233 0.0
H1129 H 0.81439 0.25797 0.76186 0.0
H1130 H 0.83728 0.28516 0.78051 0.0
C1131 C 0.88608 0.37775 0.87016 0.0
C1132 C 0.85539 0.34353 0.82352 0.0
H1133 H 0.83424 0.29912 0.82516 0.0
C1134 C 0.85198 0.34559 0.79821 0.0
C1135 C 0.84932 0.32657 0.83317 0.0
C1136 C 0.85222 0.32355 0.8604 0.0
C1137 C 0.84219 0.33113 0.78252 0.0
C1138 C 0.83534 0.31417 0.79255 0.0
C1139 C 0.83949 0.31212 0.81748 0.0
C1140 C 0.82245 0.29844 0.77855 0.0
C1141 C 0.83906 0.33418 0.75543 0.0
C1142 C 0.80655 0.29688 0.77115 0.0
C1143 C 0.7935 0.28142 0.76055 0.0
C1144 C 0.79598 0.26708 0.75726 0.0
C1145 C 0.81209 0.26879 0.76404 0.0
C1146 C 0.82517 0.28431 0.77473 0.0
H1147 H 0.84965 0.3469 0.74838 0.0
H1148 H 0.83805 0.32371 0.74281 0.0
H1149 H 0.8267 0.33444 0.75428 0.0
H1150 H 0.80396 0.30742 0.77446 0.0
H1151 H 0.78124 0.28055 0.75564 0.0
H1152 H 0.49866 0.3773 0.38099 0.0
H1153 H 0.4881 0.35295 0.35103 0.0
H1154 H 0.541 0.36739 0.33299 0.0
H1155 H 0.55164 0.39149 0.36295 0.0
H1156 H 0.49457 0.34946 0.29767 0.0
H1157 H 0.51938 0.31766 0.36254 0.0
H1158 H 0.51697 0.33587 0.37207 0.0
H1159 H 0.53547 0.33936 0.3536 0.0
C1160 C 0.50804 0.37549 0.37028 0.0
C1161 C 0.52599 0.38619 0.37464 0.0
C1162 C 0.50198 0.36156 0.35319 0.0
C1163 C 0.51378 0.35817 0.3402 0.0
C1164 C 0.53168 0.36958 0.34319 0.0
H1165 H 0.51485 0.2791 0.24913 0.0
H1166 H 0.52058 0.30593 0.27014 0.0
C1167 C 0.53773 0.38339 0.36031 0.0
C1168 C 0.5076 0.34204 0.32509 0.0
H1169 H 0.51036 0.30507 0.3218 0.0
C1170 C 0.49787 0.33966 0.30299 0.0
C1171 C 0.51178 0.3292 0.33225 0.0
C1172 C 0.52132 0.33051 0.35653 0.0
C1173 C 0.49285 0.32506 0.28729 0.0
C1174 C 0.49759 0.31257 0.29407 0.0
C1175 C 0.50689 0.31476 0.31651 0.0
C1176 C 0.49355 0.29728 0.27804 0.0
C1177 C 0.48301 0.32334 0.26322 0.0
C1178 C 0.47638 0.2836 0.27502 0.0
C1179 C 0.47303 0.26814 0.26297 0.0
C1180 C 0.48683 0.26611 0.25389 0.0
C1181 C 0.50392 0.28017 0.25595 0.0
C1182 C 0.50723 0.29555 0.26795 0.0
H1183 H 0.48295 0.33551 0.2585 0.0
H1184 H 0.48878 0.31988 0.24716 0.0
H1185 H 0.46934 0.31272 0.26543 0.0
H1186 H 0.46565 0.28456 0.28299 0.0
H1187 H 0.45973 0.25753 0.26178 0.0
H1188 H 0.7614 0.20536 0.2578 0.0
H1189 H 0.73437 0.18272 0.2772 0.0
H1190 H 0.71261 0.21653 0.27235 0.0
H1191 H 0.73929 0.23898 0.25276 0.0
H1192 H 0.72124 0.18597 0.3223 0.0
H1193 H 0.67239 0.17109 0.24738 0.0
H1194 H 0.69547 0.18251 0.24101 0.0
H1195 H 0.68511 0.19403 0.25323 0.0
C1196 C 0.75071 0.20781 0.26039 0.0
C1197 C 0.75251 0.22398 0.25372 0.0
C1198 C 0.73529 0.19488 0.27152 0.0
C1199 C 0.72135 0.19781 0.2759 0.0
C1200 C 0.72298 0.21377 0.26861 0.0
H1201 H 0.63329 0.16696 0.36782 0.0
H1202 H 0.65637 0.17829 0.33614 0.0
C1203 C 0.73835 0.22667 0.25756 0.0
C1204 C 0.70577 0.18507 0.29036 0.0
H1205 H 0.66135 0.16416 0.29018 0.0
C1206 C 0.70813 0.18086 0.3151 0.0
C1207 C 0.68867 0.17841 0.28095 0.0
C1208 C 0.68525 0.1816 0.25408 0.0
C1209 C 0.69391 0.17113 0.33121 0.0
C1210 C 0.67684 0.16522 0.32219 0.0
C1211 C 0.67444 0.16873 0.29708 0.0
C1212 C 0.66155 0.157 0.33933 0.0
C1213 C 0.69729 0.16811 0.35821 0.0
C1214 C 0.6564 0.14095 0.35108 0.0
C1215 C 0.64314 0.13438 0.36929 0.0
C1216 C 0.63483 0.14378 0.37605 0.0
C1217 C 0.63947 0.15942 0.36325 0.0
C1218 C 0.65265 0.16592 0.34506 0.0
H1219 H 0.71127 0.17597 0.36332 0.0
H1220 H 0.68963 0.17134 0.37152 0.0
H1221 H 0.69318 0.15417 0.3608 0.0
H1222 H 0.66294 0.13374 0.34664 0.0
H1223 H 0.63986 0.12228 0.37872 0.0
H1224 H 0.85543 0.46911 0.36585 0.0
H1225 H 0.842 0.47971 0.33588 0.0
H1226 H 0.88274 0.53246 0.34947 0.0
H1227 H 0.89647 0.52192 0.37949 0.0
H1228 H 0.83029 0.50225 0.35201 0.0
H1229 H 0.8766 0.53058 0.27153 0.0
H1230 H 0.87717 0.51521 0.29338 0.0
H1231 H 0.88552 0.53742 0.30274 0.0
C1232 C 0.86178 0.48295 0.36215 0.0
C1233 C 0.87698 0.49468 0.37524 0.0
C1234 C 0.85407 0.48899 0.34497 0.0
C1235 C 0.86137 0.50686 0.34038 0.0
C1236 C 0.87702 0.51859 0.35243 0.0
H1237 H 0.81304 0.55985 0.26356 0.0
H1238 H 0.83428 0.55416 0.28492 0.0
C1239 C 0.88482 0.51254 0.36964 0.0
C1240 C 0.85144 0.51308 0.32529 0.0
H1241 H 0.85155 0.53359 0.27045 0.0
C1242 C 0.83497 0.50912 0.33419 0.0
C1243 C 0.85765 0.52222 0.30222 0.0
C1244 C 0.87515 0.52655 0.2917 0.0
C1245 C 0.82441 0.5138 0.3205 0.0
C1246 C 0.83034 0.52243 0.29703 0.0
C1247 C 0.84702 0.52688 0.28839 0.0
C1248 C 0.8189 0.5262 0.28102 0.0
C1249 C 0.80693 0.50942 0.33128 0.0
C1250 C 0.80356 0.51241 0.27102 0.0
C1251 C 0.79144 0.51558 0.25894 0.0
C1252 C 0.79445 0.53265 0.25649 0.0
C1253 C 0.81033 0.54656 0.26518 0.0
C1254 C 0.82247 0.54334 0.27737 0.0
H1255 H 0.80615 0.50677 0.35193 0.0
H1256 H 0.8042 0.52019 0.32796 0.0
H1257 H 0.79661 0.49759 0.32179 0.0
H1258 H 0.80067 0.49909 0.27338 0.0
H1259 H 0.77943 0.50458 0.25229 0.0
H1260 H 0.61737 0.17871 0.91825 0.0
H1261 H 0.64412 0.18297 0.89866 0.0
H1262 H 0.62287 0.12741 0.89553 0.0
H1263 H 0.59579 0.12299 0.91476 0.0
H1264 H 0.66835 0.17311 0.91141 0.0
H1265 H 0.63437 0.14183 0.82157 0.0
H1266 H 0.62416 0.14767 0.84621 0.0
H1267 H 0.62621 0.12862 0.84948 0.0
C1268 C 0.6184 0.16736 0.91365 0.0
C1269 C 0.60435 0.15049 0.91784 0.0
C1270 C 0.63374 0.16983 0.90247 0.0
C1271 C 0.63539 0.15552 0.89519 0.0
C1272 C 0.62174 0.13865 0.9005 0.0
H1273 H 0.71742 0.16131 0.79507 0.0
H1274 H 0.69405 0.14998 0.82668 0.0
C1275 C 0.60632 0.13615 0.91165 0.0
C1276 C 0.65109 0.15848 0.88095 0.0
H1277 H 0.6646 0.15348 0.82257 0.0
C1278 C 0.66753 0.16866 0.89208 0.0
C1279 C 0.65002 0.15264 0.85571 0.0
C1280 C 0.63278 0.1422 0.84238 0.0
C1281 C 0.6829 0.17352 0.87846 0.0
C1282 C 0.68181 0.16825 0.85295 0.0
C1283 C 0.6654 0.15746 0.84217 0.0
C1284 C 0.69736 0.17516 0.83629 0.0
C1285 C 0.70017 0.18444 0.89143 0.0
C1286 C 0.70708 0.19308 0.83137 0.0
C1287 C 0.72035 0.19957 0.81332 0.0
C1288 C 0.72419 0.18828 0.79968 0.0
C1289 C 0.71488 0.17038 0.80531 0.0
C1290 C 0.70148 0.16388 0.82332 0.0
H1291 H 0.69896 0.18266 0.91229 0.0
H1292 H 0.71001 0.18118 0.8845 0.0
H1293 H 0.70495 0.19838 0.88737 0.0
H1294 H 0.70392 0.20201 0.84074 0.0
H1295 H 0.72723 0.21341 0.80948 0.0
H1296 H 0.89455 0.4763 0.91279 0.0
H1297 H 0.88949 0.4985 0.89333 0.0
H1298 H 0.83414 0.46317 0.8964 0.0
H1299 H 0.83902 0.44117 0.91609 0.0
H1300 H 0.87371 0.49537 0.84788 0.0
H1301 H 0.8372 0.50751 0.92208 0.0
H1302 H 0.84938 0.49662 0.92856 0.0
H1303 H 0.82777 0.48473 0.91552 0.0
C1304 C 0.88129 0.47341 0.90977 0.0
C1305 C 0.86719 0.45696 0.91602 0.0
C1306 C 0.87843 0.48609 0.89862 0.0
C1307 C 0.86142 0.48262 0.89375 0.0
C1308 C 0.84735 0.46635 0.90054 0.0
H1309 H 0.80436 0.51331 0.80038 0.0
H1310 H 0.81573 0.50143 0.83181 0.0
C1311 C 0.85019 0.45371 0.91164 0.0
C1312 C 0.85825 0.49518 0.8794 0.0
H1313 H 0.8336 0.5149 0.87934 0.0
C1314 C 0.86525 0.49996 0.85495 0.0
C1315 C 0.8472 0.50118 0.88863 0.0
C1316 C 0.84011 0.49739 0.91525 0.0
C1317 C 0.86066 0.50967 0.83894 0.0
C1318 C 0.84894 0.51493 0.84776 0.0
C1319 C 0.84253 0.5108 0.87259 0.0
C1320 C 0.84198 0.52328 0.8307 0.0
C1321 C 0.86763 0.51339 0.81224 0.0
C1322 C 0.85286 0.53978 0.82019 0.0
C1323 C 0.84639 0.54667 0.80216 0.0
C1324 C 0.82891 0.53714 0.79432 0.0
C1325 C 0.8179 0.52097 0.80582 0.0
C1326 C 0.82436 0.51416 0.82386 0.0
H1327 H 0.87423 0.50599 0.80711 0.0
H1328 H 0.85695 0.51013 0.79852 0.0
H1329 H 0.87718 0.52747 0.81032 0.0
H1330 H 0.86645 0.54714 0.8255 0.0
H1331 H 0.85521 0.55917 0.79376 0.0
H1332 H 0.57692 0.40183 0.91966 0.0
H1333 H 0.55453 0.37551 0.89907 0.0
H1334 H 0.52151 0.39814 0.89344 0.0
H1335 H 0.54409 0.42479 0.91367 0.0
H1336 H 0.52001 0.35193 0.91033 0.0
H1337 H 0.52572 0.38663 0.81997 0.0
H1338 H 0.54124 0.39644 0.84531 0.0
H1339 H 0.52033 0.39494 0.8474 0.0
C1340 C 0.56485 0.4012 0.91426 0.0
C1341 C 0.56238 0.41551 0.91808 0.0
C1342 C 0.55204 0.3861 0.90252 0.0
C1343 C 0.53647 0.38495 0.8943 0.0
C1344 C 0.53358 0.39888 0.89915 0.0
H1345 H 0.46159 0.30413 0.7915 0.0
H1346 H 0.47313 0.32726 0.8235 0.0
C1347 C 0.54645 0.41406 0.91086 0.0
C1348 C 0.5238 0.36946 0.87966 0.0
H1349 H 0.50659 0.35648 0.82051 0.0
C1350 C 0.51692 0.35293 0.89077 0.0
C1351 C 0.51973 0.37077 0.85413 0.0
C1352 C 0.52721 0.38811 0.84084 0.0
C1353 C 0.50648 0.33769 0.87687 0.0
C1354 C 0.50301 0.339 0.8511 0.0
C1355 C 0.50923 0.35552 0.8403 0.0
C1356 C 0.49457 0.32356 0.83426 0.0
C1357 C 0.49947 0.3203 0.88979 0.0
C1358 C 0.50268 0.31369 0.82989 0.0
C1359 C 0.4962 0.30057 0.81161 0.0
C1360 C 0.48145 0.29703 0.79722 0.0
C1361 C 0.47291 0.30645 0.80234 0.0
C1362 C 0.47951 0.3197 0.82056 0.0
H1363 H 0.49851 0.32146 0.91059 0.0
H1364 H 0.48644 0.31072 0.88233 0.0
H1365 H 0.50844 0.31521 0.88627 0.0
H1366 H 0.51451 0.31664 0.83985 0.0
H1367 H 0.50312 0.29359 0.80817 0.0
H1368 H 0.47312 0.62587 0.63958 0.0
H1369 H 0.48384 0.64993 0.6696 0.0
H1370 H 0.53665 0.66335 0.653 0.0
H1371 H 0.526 0.63905 0.62291 0.0
H1372 H 0.52906 0.66656 0.70674 0.0
H1373 H 0.50739 0.70003 0.6397 0.0
H1374 H 0.49077 0.67835 0.64781 0.0
H1375 H 0.50966 0.68166 0.63059 0.0
C1376 C 0.48702 0.63373 0.64254 0.0
C1377 C 0.49871 0.63066 0.62856 0.0
C1378 C 0.49312 0.6475 0.65971 0.0
C1379 C 0.51103 0.6586 0.66314 0.0
C1380 C 0.52277 0.65496 0.6505 0.0
H1381 H 0.5641 0.75836 0.74453 0.0
H1382 H 0.55865 0.73164 0.72279 0.0
C1383 C 0.51666 0.64107 0.63334 0.0
C1384 C 0.5173 0.67472 0.67829 0.0
H1385 H 0.51548 0.71221 0.68084 0.0
C1386 C 0.52627 0.67665 0.70103 0.0
C1387 C 0.51377 0.68792 0.67063 0.0
C1388 C 0.50502 0.68703 0.64574 0.0
C1389 C 0.53112 0.69114 0.71687 0.0
C1390 C 0.52698 0.70398 0.70959 0.0
C1391 C 0.51849 0.70226 0.68648 0.0
C1392 C 0.53063 0.71906 0.72585 0.0
C1393 C 0.54008 0.69238 0.74164 0.0
C1394 C 0.51672 0.72075 0.73501 0.0
C1395 C 0.51977 0.73594 0.74731 0.0
C1396 C 0.53682 0.74986 0.75059 0.0
C1397 C 0.55081 0.74786 0.74239 0.0
C1398 C 0.54773 0.73258 0.73004 0.0
H1399 H 0.53992 0.6801 0.74635 0.0
H1400 H 0.55383 0.703 0.74048 0.0
H1401 H 0.53377 0.69559 0.75725 0.0
H1402 H 0.50343 0.71049 0.73191 0.0
H1403 H 0.50868 0.737 0.75343 0.0
H1404 H 0.39198 0.85091 0.63947 0.0
H1405 H 0.36875 0.83932 0.6709 0.0
H1406 H 0.36148 0.88341 0.65994 0.0
H1407 H 0.38474 0.89513 0.62811 0.0
H1408 H 0.36337 0.8534 0.7167 0.0
H1409 H 0.31349 0.84065 0.64303 0.0
H1410 H 0.33525 0.84555 0.63506 0.0
H1411 H 0.33139 0.86257 0.64552 0.0
C1412 C 0.38561 0.85829 0.64388 0.0
C1413 C 0.39012 0.87388 0.63104 0.0
C1414 C 0.37235 0.85164 0.66193 0.0
C1415 C 0.36322 0.86036 0.66747 0.0
C1416 C 0.36821 0.87635 0.65565 0.0
H1417 H 0.26303 0.81077 0.74806 0.0
H1418 H 0.28998 0.83368 0.72888 0.0
C1419 C 0.38157 0.88308 0.63758 0.0
C1420 C 0.34788 0.85199 0.68449 0.0
H1421 H 0.30347 0.83061 0.68401 0.0
C1422 C 0.35027 0.84861 0.70968 0.0
C1423 C 0.3308 0.8458 0.67531 0.0
C1424 C 0.32744 0.84868 0.64823 0.0
C1425 C 0.33603 0.83879 0.72572 0.0
C1426 C 0.31893 0.83186 0.71615 0.0
C1427 C 0.31657 0.83593 0.69133 0.0
C1428 C 0.3034 0.81898 0.73053 0.0
C1429 C 0.33944 0.83576 0.75267 0.0
C1430 C 0.30201 0.80315 0.73798 0.0
C1431 C 0.28669 0.79009 0.74891 0.0
C1432 C 0.27233 0.79249 0.75247 0.0
C1433 C 0.27387 0.80853 0.74568 0.0
C1434 C 0.28925 0.82163 0.73468 0.0
H1435 H 0.35219 0.84642 0.75944 0.0
H1436 H 0.32908 0.83469 0.76561 0.0
H1437 H 0.33981 0.82345 0.75368 0.0
H1438 H 0.31255 0.8006 0.73442 0.0
H1439 H 0.28594 0.77787 0.7538 0.0
H1440 H 0.12729 0.49344 0.62469 0.0
H1441 H 0.13891 0.48193 0.65668 0.0
H1442 H 0.18078 0.53389 0.6719 0.0
H1443 H 0.16928 0.54547 0.64031 0.0
H1444 H 0.17176 0.48535 0.65362 0.0
H1445 H 0.16561 0.51423 0.74299 0.0
H1446 H 0.15343 0.51293 0.71488 0.0
H1447 H 0.17563 0.53014 0.71838 0.0
C1448 C 0.13874 0.50245 0.63527 0.0
C1449 C 0.14737 0.52038 0.62988 0.0
C1450 C 0.14538 0.49584 0.65349 0.0
C1451 C 0.16059 0.50706 0.66691 0.0
C1452 C 0.16883 0.52501 0.6622 0.0
H1453 H 0.24437 0.51202 0.74854 0.0
H1454 H 0.22154 0.51563 0.72881 0.0
C1455 C 0.16228 0.5316 0.64395 0.0
C1456 C 0.16904 0.50009 0.68381 0.0
H1457 H 0.18714 0.5052 0.74245 0.0
C1458 C 0.1748 0.48935 0.67322 0.0
C1459 C 0.17302 0.50536 0.70935 0.0
C1460 C 0.16645 0.51616 0.72215 0.0
C1461 C 0.18539 0.48467 0.68696 0.0
C1462 C 0.19006 0.49063 0.71215 0.0
C1463 C 0.18359 0.50067 0.72313 0.0
C1464 C 0.20303 0.48807 0.72642 0.0
C1465 C 0.19236 0.47428 0.67387 0.0
C1466 C 0.20005 0.47136 0.73232 0.0
C1467 C 0.21316 0.46923 0.74359 0.0
C1468 C 0.22944 0.48379 0.74923 0.0
C1469 C 0.23204 0.50051 0.74435 0.0
C1470 C 0.21897 0.50261 0.7331 0.0
H1471 H 0.19019 0.47354 0.6531 0.0
H1472 H 0.20651 0.48007 0.67745 0.0
H1473 H 0.18567 0.46082 0.68145 0.0
H1474 H 0.18772 0.45996 0.72775 0.0
H1475 H 0.21071 0.45618 0.74722 0.0
H1476 H 0.40404 0.84863 0.0584 0.0
H1477 H 0.37631 0.84277 0.07674 0.0
H1478 H 0.40407 0.87997 0.13606 0.0
H1479 H 0.43165 0.88691 0.11628 0.0
H1480 H 0.36316 0.828 0.11616 0.0
H1481 H 0.36763 0.8916 0.12787 0.0
H1482 H 0.38314 0.8891 0.10894 0.0
H1483 H 0.38623 0.89263 0.14269 0.0
C1484 C 0.40412 0.85595 0.07487 0.0
C1485 C 0.41991 0.86833 0.08582 0.0
C1486 C 0.38828 0.85255 0.08546 0.0
C1487 C 0.38789 0.86103 0.10777 0.0
C1488 C 0.40379 0.87368 0.11839 0.0
H1489 H 0.31454 0.81035 0.22536 0.0
H1490 H 0.33696 0.82106 0.19301 0.0
C1491 C 0.41962 0.87755 0.10721 0.0
C1492 C 0.37113 0.8551 0.12156 0.0
H1493 H 0.34897 0.86925 0.15838 0.0
C1494 C 0.35996 0.83712 0.12485 0.0
C1495 C 0.36643 0.86675 0.13259 0.0
C1496 C 0.37643 0.88606 0.12753 0.0
C1497 C 0.34493 0.83057 0.1398 0.0
C1498 C 0.34138 0.84227 0.15319 0.0
C1499 C 0.35188 0.86021 0.14873 0.0
C1500 C 0.32764 0.83615 0.17309 0.0
C1501 C 0.33306 0.81109 0.14097 0.0
C1502 C 0.31538 0.84179 0.17372 0.0
C1503 C 0.30273 0.83605 0.19289 0.0
C1504 C 0.30203 0.82441 0.21152 0.0
C1505 C 0.31444 0.81899 0.21095 0.0
C1506 C 0.32724 0.82502 0.19228 0.0
H1507 H 0.33339 0.80487 0.12289 0.0
H1508 H 0.3376 0.80563 0.1561 0.0
H1509 H 0.31938 0.80753 0.14491 0.0
H1510 H 0.31552 0.85055 0.15933 0.0
H1511 H 0.29342 0.84055 0.19298 0.0
H1512 H 0.18347 0.57308 0.08753 0.0
H1513 H 0.18777 0.55048 0.10644 0.0
H1514 H 0.13223 0.51671 0.11185 0.0
H1515 H 0.12777 0.53949 0.0931 0.0
H1516 H 0.14905 0.51972 0.15668 0.0
H1517 H 0.18214 0.50507 0.08003 0.0
H1518 H 0.19239 0.52798 0.08616 0.0
H1519 H 0.1704 0.51652 0.07445 0.0
C1520 C 0.17212 0.56076 0.09232 0.0
C1521 C 0.15526 0.55811 0.08881 0.0
C1522 C 0.17462 0.54777 0.10298 0.0
C1523 C 0.16033 0.53178 0.11021 0.0
C1524 C 0.14345 0.5289 0.1062 0.0
H1525 H 0.167 0.45563 0.21072 0.0
H1526 H 0.15512 0.46726 0.17934 0.0
C1527 C 0.14092 0.54192 0.09546 0.0
C1528 C 0.16324 0.51891 0.12417 0.0
H1529 H 0.18658 0.49782 0.12244 0.0
C1530 C 0.15693 0.5146 0.14902 0.0
C1531 C 0.17352 0.51223 0.11415 0.0
C1532 C 0.17985 0.51555 0.08714 0.0
C1533 C 0.16154 0.50474 0.16466 0.0
C1534 C 0.17254 0.49881 0.15503 0.0
C1535 C 0.17818 0.50242 0.1298 0.0
C1536 C 0.17975 0.49045 0.17164 0.0
C1537 C 0.15544 0.50163 0.19182 0.0
C1538 C 0.19762 0.49925 0.17689 0.0
C1539 C 0.20445 0.49265 0.19467 0.0
C1540 C 0.19354 0.47702 0.20755 0.0
C1541 C 0.17576 0.46771 0.20123 0.0
C1542 C 0.16892 0.47439 0.18342 0.0
H1543 H 0.14946 0.50954 0.19741 0.0
H1544 H 0.14557 0.4877 0.19437 0.0
H1545 H 0.16645 0.50472 0.20479 0.0
H1546 H 0.20622 0.51163 0.16794 0.0
H1547 H 0.21821 0.50011 0.19891 0.0
H1548 H 0.5641 0.71338 0.21279 0.0
H1549 H 0.5526 0.6902 0.18087 0.0
H1550 H 0.51038 0.69977 0.16577 0.0
H1551 H 0.52176 0.7229 0.19728 0.0
H1552 H 0.51991 0.66058 0.18407 0.0
H1553 H 0.52552 0.69533 0.09464 0.0
H1554 H 0.53769 0.70633 0.1227 0.0
H1555 H 0.51541 0.7011 0.11927 0.0
C1556 C 0.5526 0.71082 0.20224 0.0
C1557 C 0.54383 0.71999 0.20765 0.0
C1558 C 0.54602 0.69753 0.18406 0.0
C1559 C 0.53075 0.69338 0.17071 0.0
C1560 C 0.52238 0.70296 0.17542 0.0
H1561 H 0.44734 0.61387 0.08922 0.0
H1562 H 0.46997 0.64045 0.10892 0.0
C1563 C 0.52885 0.71613 0.19363 0.0
C1564 C 0.52239 0.67792 0.15385 0.0
H1565 H 0.50425 0.6647 0.09527 0.0
C1566 C 0.51681 0.66146 0.16448 0.0
C1567 C 0.51832 0.67912 0.12832 0.0
C1568 C 0.5247 0.69644 0.11548 0.0
C1569 C 0.50632 0.64614 0.15078 0.0
C1570 C 0.50157 0.64732 0.1256 0.0
C1571 C 0.50786 0.6638 0.11459 0.0
C1572 C 0.48872 0.63171 0.11135 0.0
C1573 C 0.49954 0.62882 0.16391 0.0
C1574 C 0.4919 0.6181 0.10548 0.0
C1575 C 0.4789 0.60278 0.09422 0.0
C1576 C 0.46254 0.60086 0.08856 0.0
C1577 C 0.45974 0.61486 0.09342 0.0
C1578 C 0.47269 0.63011 0.10465 0.0
H1579 H 0.50172 0.6303 0.18468 0.0
H1580 H 0.48541 0.62032 0.16034 0.0
H1581 H 0.50636 0.62217 0.15634 0.0
H1582 H 0.50429 0.61919 0.11006 0.0
H1583 H 0.4815 0.59228 0.09061 0.0
H1584 H 0.12963 0.59207 0.59446 0.0
H1585 H 0.1351 0.61897 0.61566 0.0
H1586 H 0.19035 0.63943 0.6086 0.0
H1587 H 0.18507 0.61273 0.58765 0.0
H1588 H 0.17773 0.63821 0.65899 0.0
H1589 H 0.15469 0.67041 0.59126 0.0
H1590 H 0.14044 0.6476 0.59741 0.0
H1591 H 0.16063 0.65459 0.58123 0.0
C1592 C 0.14293 0.60245 0.59696 0.0
C1593 C 0.15692 0.60021 0.5895 0.0
C1594 C 0.14603 0.61783 0.60899 0.0
C1595 C 0.16313 0.63121 0.61358 0.0
C1596 C 0.17705 0.62927 0.60518 0.0
H1597 H 0.2203 0.72475 0.69925 0.0
H1598 H 0.20978 0.70066 0.66931 0.0
C1599 C 0.17399 0.61397 0.59321 0.0
C1600 C 0.16675 0.64644 0.62946 0.0
H1601 H 0.16511 0.68412 0.63089 0.0
C1602 C 0.17492 0.64822 0.65285 0.0
C1603 C 0.16288 0.65936 0.62154 0.0
C1604 C 0.15426 0.65806 0.59643 0.0
C1605 C 0.17961 0.66269 0.6684 0.0
C1606 C 0.17636 0.67596 0.66011 0.0
C1607 C 0.16769 0.67398 0.63706 0.0
C1608 C 0.18256 0.69217 0.675 0.0
C1609 C 0.18803 0.66366 0.69362 0.0
C1610 C 0.17075 0.69594 0.68713 0.0
C1611 C 0.17674 0.70984 0.70424 0.0
C1612 C 0.19464 0.72013 0.70946 0.0
C1613 C 0.20643 0.71698 0.69592 0.0
C1614 C 0.20045 0.70319 0.67881 0.0
H1615 H 0.1855 0.65066 0.69998 0.0
H1616 H 0.20232 0.67227 0.69187 0.0
H1617 H 0.18327 0.66917 0.70839 0.0
H1618 H 0.15689 0.68761 0.68433 0.0
H1619 H 0.16732 0.71193 0.71433 0.0
H1620 H 0.29833 0.49881 0.69828 0.0
H1621 H 0.32147 0.51035 0.66678 0.0
H1622 H 0.33126 0.46823 0.68161 0.0
H1623 H 0.30806 0.45656 0.7135 0.0
H1624 H 0.36081 0.50107 0.68482 0.0
H1625 H 0.32582 0.49522 0.59554 0.0
H1626 H 0.32006 0.50526 0.62027 0.0
H1627 H 0.31493 0.48301 0.62363 0.0
C1628 C 0.30515 0.49177 0.69458 0.0
C1629 C 0.30134 0.47676 0.7085 0.0
C1630 C 0.31833 0.49835 0.67638 0.0
C1631 C 0.32797 0.49005 0.67159 0.0
C1632 C 0.32388 0.47476 0.68487 0.0
H1633 H 0.42885 0.53918 0.591 0.0
H1634 H 0.40203 0.51649 0.61078 0.0
C1635 C 0.31059 0.46809 0.70304 0.0
C1636 C 0.34339 0.49846 0.65467 0.0
H1637 H 0.35643 0.51643 0.59595 0.0
C1638 C 0.35987 0.50412 0.66522 0.0
C1639 C 0.34212 0.50246 0.62913 0.0
C1640 C 0.32476 0.49602 0.61639 0.0
C1641 C 0.37516 0.51459 0.65142 0.0
C1642 C 0.3739 0.51924 0.6262 0.0
C1643 C 0.35739 0.5129 0.61528 0.0
C1644 C 0.38946 0.53202 0.61179 0.0
C1645 C 0.3925 0.52144 0.66446 0.0
C1646 C 0.391 0.54798 0.60481 0.0
C1647 C 0.4062 0.56088 0.59337 0.0
C1648 C 0.4202 0.55808 0.58859 0.0
C1649 C 0.41835 0.54178 0.59454 0.0
C1650 C 0.40308 0.52884 0.606 0.0
H1651 H 0.39107 0.51941 0.68526 0.0
H1652 H 0.39911 0.51456 0.65702 0.0
H1653 H 0.401 0.53556 0.66069 0.0
H1654 H 0.38065 0.55071 0.60901 0.0
H1655 H 0.40714 0.57323 0.58895 0.0
H1656 H 0.52229 0.80255 0.70029 0.0
H1657 H 0.50881 0.81301 0.67019 0.0
H1658 H 0.54924 0.86588 0.68394 0.0
H1659 H 0.56303 0.85547 0.71409 0.0
H1660 H 0.4968 0.83532 0.68616 0.0
H1661 H 0.54332 0.86405 0.60599 0.0
H1662 H 0.54398 0.84874 0.62788 0.0
H1663 H 0.55212 0.87092 0.63726 0.0
C1664 C 0.52856 0.81639 0.69659 0.0
C1665 C 0.54369 0.82818 0.70976 0.0
C1666 C 0.52082 0.82235 0.67933 0.0
C1667 C 0.52802 0.84021 0.67476 0.0
C1668 C 0.5436 0.85201 0.68689 0.0
H1669 H 0.47932 0.8927 0.59756 0.0
H1670 H 0.5006 0.88715 0.61909 0.0
C1671 C 0.55144 0.84604 0.70417 0.0
C1672 C 0.51804 0.84633 0.6596 0.0
H1673 H 0.51814 0.86685 0.60476 0.0
C1674 C 0.5015 0.84223 0.66838 0.0
C1675 C 0.52427 0.85552 0.63656 0.0
C1676 C 0.54184 0.86001 0.62616 0.0
C1677 C 0.49089 0.84681 0.65462 0.0
C1678 C 0.49685 0.8555 0.63119 0.0
C1679 C 0.5136 0.86009 0.62267 0.0
C1680 C 0.48539 0.85919 0.61511 0.0
C1681 C 0.47334 0.84228 0.66528 0.0
C1682 C 0.47012 0.84535 0.60501 0.0
C1683 C 0.45797 0.84844 0.59284 0.0
C1684 C 0.46088 0.86547 0.59039 0.0
C1685 C 0.47668 0.87943 0.59918 0.0
C1686 C 0.48885 0.8763 0.61147 0.0
H1687 H 0.47252 0.8396 0.68592 0.0
H1688 H 0.47051 0.85298 0.66194 0.0
H1689 H 0.46312 0.83043 0.65572 0.0
H1690 H 0.46732 0.83206 0.60736 0.0
H1691 H 0.44602 0.83739 0.5861 0.0
H1692 H 0.26351 0.45698 0.24542 0.0
H1693 H 0.29062 0.4612 0.22659 0.0
H1694 H 0.31279 0.51681 0.23185 0.0
H1695 H 0.28599 0.51275 0.25084 0.0
H1696 H 0.30438 0.47789 0.18168 0.0
H1697 H 0.35241 0.51084 0.25795 0.0
H1698 H 0.32925 0.49927 0.26371 0.0
H1699 H 0.33989 0.52125 0.25189 0.0
C1700 C 0.27429 0.4701 0.24303 0.0
C1701 C 0.27258 0.48453 0.24964 0.0
C1702 C 0.28976 0.47248 0.23223 0.0
C1703 C 0.30385 0.48932 0.22814 0.0
C1704 C 0.30229 0.50369 0.23537 0.0
H1705 H 0.39319 0.54662 0.13889 0.0
H1706 H 0.36981 0.53475 0.17007 0.0
C1707 C 0.28687 0.50134 0.24607 0.0
C1708 C 0.31954 0.49207 0.21407 0.0
H1709 H 0.36396 0.51512 0.21546 0.0
C1710 C 0.31741 0.4857 0.18923 0.0
C1711 C 0.33653 0.50226 0.22395 0.0
C1712 C 0.33967 0.50865 0.25094 0.0
C1713 C 0.3318 0.49017 0.17348 0.0
C1714 C 0.34879 0.50109 0.18297 0.0
C1715 C 0.35093 0.50678 0.20819 0.0
C1716 C 0.36429 0.5082 0.16623 0.0
C1717 C 0.32869 0.48403 0.14635 0.0
C1718 C 0.36936 0.49729 0.1543 0.0
C1719 C 0.3828 0.50406 0.13635 0.0
C1720 C 0.39137 0.52185 0.13006 0.0
C1721 C 0.38681 0.53284 0.14309 0.0
C1722 C 0.37346 0.52609 0.16101 0.0
H1723 H 0.31479 0.47815 0.14087 0.0
H1724 H 0.33663 0.495 0.13331 0.0
H1725 H 0.33263 0.47407 0.14376 0.0
H1726 H 0.36262 0.48348 0.15836 0.0
H1727 H 0.386 0.49524 0.12674 0.0
H1728 H 0.50591 0.77392 0.2469 0.0
H1729 H 0.50123 0.79606 0.22709 0.0
H1730 H 0.55644 0.83219 0.22856 0.0
H1731 H 0.56131 0.80988 0.24804 0.0
H1732 H 0.50911 0.82936 0.24108 0.0
H1733 H 0.54469 0.83061 0.15362 0.0
H1734 H 0.5386 0.81406 0.17753 0.0
H1735 H 0.55687 0.83546 0.18255 0.0
C1736 C 0.51709 0.78661 0.24324 0.0
C1737 C 0.53401 0.79006 0.24883 0.0
C1738 C 0.51437 0.79928 0.23194 0.0
C1739 C 0.5285 0.81568 0.22592 0.0
C1740 C 0.54537 0.81949 0.23256 0.0
H1741 H 0.52272 0.89276 0.12779 0.0
H1742 H 0.53359 0.88041 0.15958 0.0
C1743 C 0.54812 0.80677 0.24384 0.0
C1744 C 0.52538 0.82832 0.21169 0.0
H1745 H 0.53177 0.8481 0.15408 0.0
C1746 C 0.51422 0.83361 0.22216 0.0
C1747 C 0.53207 0.83389 0.18699 0.0
C1748 C 0.54362 0.82815 0.17434 0.0
C1749 C 0.50922 0.84394 0.20839 0.0
C1750 C 0.51537 0.84894 0.18337 0.0
C1751 C 0.52711 0.84428 0.17329 0.0
C1752 C 0.50856 0.85753 0.16645 0.0
C1753 C 0.49721 0.84924 0.22062 0.0
C1754 C 0.49088 0.84884 0.15992 0.0
C1755 C 0.48465 0.8558 0.14174 0.0
C1756 C 0.49599 0.87161 0.12962 0.0
C1757 C 0.51361 0.88061 0.13683 0.0
C1758 C 0.51986 0.87356 0.15495 0.0
H1759 H 0.49806 0.84918 0.24159 0.0
H1760 H 0.50025 0.86241 0.21432 0.0
H1761 H 0.4836 0.83984 0.21517 0.0
H1762 H 0.48198 0.8363 0.16815 0.0
H1763 H 0.47102 0.8485 0.13665 0.0
H1764 H 0.21106 0.7577 0.24537 0.0
H1765 H 0.18838 0.73089 0.22559 0.0
H1766 H 0.22047 0.70746 0.23471 0.0
H1767 H 0.24296 0.73394 0.25473 0.0
H1768 H 0.192 0.71689 0.18174 0.0
H1769 H 0.17385 0.66851 0.25838 0.0
H1770 H 0.18585 0.69166 0.26422 0.0
H1771 H 0.19692 0.68048 0.25349 0.0
C1772 C 0.21313 0.74671 0.24361 0.0
C1773 C 0.22882 0.74796 0.25166 0.0
C1774 C 0.20016 0.73141 0.23227 0.0
C1775 C 0.20259 0.71705 0.229 0.0
C1776 C 0.21808 0.71817 0.23758 0.0
H1777 H 0.17009 0.62737 0.13972 0.0
H1778 H 0.18176 0.6508 0.17084 0.0
C1779 C 0.23101 0.73341 0.24887 0.0
C1780 C 0.18983 0.70151 0.21449 0.0
H1781 H 0.16739 0.65705 0.2158 0.0
C1782 C 0.1863 0.70381 0.18934 0.0
C1783 C 0.18238 0.68444 0.22442 0.0
C1784 C 0.1848 0.68112 0.2517 0.0
C1785 C 0.17644 0.68952 0.1734 0.0
C1786 C 0.16972 0.67246 0.183 0.0
C1787 C 0.17259 0.67014 0.20846 0.0
C1788 C 0.16125 0.65699 0.16622 0.0
C1789 C 0.17413 0.69278 0.14603 0.0
C1790 C 0.1455 0.6523 0.15386 0.0
C1791 C 0.13873 0.63882 0.13598 0.0
C1792 C 0.14763 0.62985 0.13015 0.0
C1793 C 0.16294 0.63406 0.14357 0.0
C1794 C 0.16963 0.64744 0.16144 0.0
H1795 H 0.18251 0.70666 0.14065 0.0
H1796 H 0.17718 0.68466 0.13339 0.0
H1797 H 0.16038 0.68916 0.14274 0.0
H1798 H 0.1387 0.65936 0.15755 0.0
H1799 H 0.1269 0.6359 0.12605 0.0
H1800 H 0.17935 0.22034 0.32816 0.0
H1801 H 0.1865 0.2069 0.29347 0.0
H1802 H 0.1367 0.16018 0.30147 0.0
H1803 H 0.1293 0.1736 0.3363 0.0
H1804 H 0.1879 0.17559 0.29837 0.0
H1805 H 0.14094 0.17049 0.22432 0.0
H1806 H 0.14645 0.18496 0.2511 0.0
H1807 H 0.13221 0.16201 0.25515 0.0
C1808 C 0.16978 0.20728 0.32242 0.0
C1809 C 0.15375 0.19804 0.33509 0.0
C1810 C 0.17393 0.19961 0.30258 0.0
C1811 C 0.16212 0.18258 0.29486 0.0
C1812 C 0.14591 0.17342 0.30695 0.0
H1813 H 0.17879 0.12536 0.17214 0.0
H1814 H 0.16607 0.13182 0.2089 0.0
C1815 C 0.14172 0.18111 0.32687 0.0
C1816 C 0.16739 0.17429 0.27507 0.0
H1817 H 0.15989 0.16005 0.21386 0.0
C1818 C 0.1817 0.17207 0.27994 0.0
C1819 C 0.15915 0.16955 0.25117 0.0
C1820 C 0.14389 0.17193 0.2449 0.0
C1821 C 0.1883 0.16566 0.26134 0.0
C1822 C 0.18057 0.16165 0.23707 0.0
C1823 C 0.16581 0.16318 0.23249 0.0
C1824 C 0.18846 0.1572 0.21569 0.0
C1825 C 0.20359 0.16336 0.26778 0.0
C1826 C 0.20523 0.16934 0.20736 0.0
C1827 C 0.21252 0.16573 0.18646 0.0
C1828 C 0.20315 0.1499 0.17332 0.0
C1829 C 0.1864 0.13763 0.1819 0.0
C1830 C 0.17908 0.14131 0.20283 0.0
H1831 H 0.20451 0.1618 0.28849 0.0
H1832 H 0.20269 0.15187 0.25796 0.0
H1833 H 0.21577 0.17508 0.26165 0.0
H1834 H 0.21257 0.18182 0.21671 0.0
H1835 H 0.22541 0.1755 0.18036 0.0
H1836 H 0.84643 0.96015 0.33251 0.0
H1837 H 0.86014 0.9812 0.29801 0.0
H1838 H 0.81436 0.98609 0.29164 0.0
H1839 H 0.80061 0.96526 0.32598 0.0
H1840 H 0.84854 0.98127 0.24682 0.0
H1841 H 0.85451 0.03645 0.30383 0.0
H1842 H 0.85045 0.01619 0.31785 0.0
H1843 H 0.83295 0.01789 0.30363 0.0
C1844 C 0.83922 0.96559 0.32362 0.0
C1845 C 0.82247 0.96112 0.3322 0.0
C1846 C 0.84709 0.97763 0.30395 0.0
C1847 C 0.83839 0.98544 0.29268 0.0
C1848 C 0.82143 0.98047 0.30048 0.0
H1849 H 0.84613 0.05471 0.17692 0.0
H1850 H 0.83976 0.03532 0.21299 0.0
C1851 C 0.81356 0.96848 0.32004 0.0
C1852 C 0.84694 0.999 0.27298 0.0
H1853 H 0.85831 0.04095 0.25917 0.0
C1854 C 0.85095 0.99441 0.24957 0.0
C1855 C 0.85016 0.01614 0.27676 0.0
C1856 C 0.84696 0.02205 0.30196 0.0
C1857 C 0.85718 1.00627 0.22931 0.0
C1858 C 0.85967 0.02318 0.2328 0.0
C1859 C 0.85633 0.02796 0.25654 0.0
C1860 C 0.86425 0.0356 0.21153 0.0
C1861 C 0.86024 1.00037 0.20401 0.0
C1862 C 0.88033 0.04251 0.19906 0.0
C1863 C 0.88406 0.05368 0.17835 0.0
C1864 C 0.87175 0.05812 0.16981 0.0
C1865 C 0.85588 0.05153 0.18288 0.0
C1866 C 0.85221 0.04044 0.20354 0.0
H1867 H 0.85491 0.98607 0.20334 0.0
H1868 H 0.85421 1.00407 0.1886 0.0
H1869 H 0.87443 1.00687 0.2003 0.0
H1870 H 0.88992 0.03915 0.20523 0.0
H1871 H 0.89642 0.05855 0.16875 0.0
H1872 H 0.96962 0.79751 0.17784 0.0
H1873 H 0.99037 0.81104 0.2123 0.0
H1874 H 0.98563 0.85695 0.20635 0.0
H1875 H 0.96465 0.84344 0.17176 0.0
H1876 H 0.02255 0.84304 0.20762 0.0
H1877 H 0.98015 0.84561 0.28324 0.0
H1878 H 0.97141 0.83138 0.25617 0.0
H1879 H 0.97944 0.85427 0.25277 0.0
C1880 C 0.97278 0.8104 0.18399 0.0
C1881 C 0.96547 0.81939 0.17196 0.0
C1882 C 0.98469 0.81813 0.20368 0.0
C1883 C 0.98948 0.83496 0.21191 0.0
C1884 C 0.98193 0.84386 0.20046 0.0
H1885 H 0.063 0.89127 0.33542 0.0
H1886 H 0.04393 0.8853 0.29868 0.0
C1887 C 0.96997 0.83612 0.18068 0.0
C1888 C 1.00307 0.84332 0.23161 0.0
H1889 H 1.00967 0.85655 0.29329 0.0
C1890 C 0.01978 0.84613 0.22629 0.0
C1891 C 0.99945 0.8475 0.25584 0.0
C1892 C 0.98164 0.84448 0.26257 0.0
C1893 C 0.03285 0.85256 0.24479 0.0
C1894 C 0.02902 0.85598 0.26937 0.0
C1895 C 0.01254 0.85388 0.27441 0.0
C1896 C 0.0414 0.86023 0.29061 0.0
C1897 C 0.05061 0.85546 0.23793 0.0
C1898 C 0.04626 0.84812 0.2982 0.0
C1899 C 0.05709 0.85145 0.31909 0.0
C1900 C 0.06324 0.86697 0.33296 0.0
C1901 C 0.05858 0.87924 0.32508 0.0
C1902 C 0.04764 0.87584 0.30416 0.0
H1903 H 0.05302 0.85741 0.21723 0.0
H1904 H 0.06102 0.86692 0.24801 0.0
H1905 H 0.05145 0.84383 0.24344 0.0
H1906 H 0.04134 0.83586 0.28829 0.0
H1907 H 0.06036 0.84169 0.32464 0.0
H1908 H 0.84279 0.81276 0.64846 0.0
H1909 H 0.83501 0.82544 0.68344 0.0
H1910 H 0.87975 0.8322 0.72531 0.0
H1911 H 0.88826 0.82063 0.68926 0.0
H1912 H 0.82502 0.81426 0.72698 0.0
H1913 H 0.88475 0.87804 0.73908 0.0
H1914 H 0.88163 0.86419 0.71232 0.0
H1915 H 0.88923 0.86056 0.74208 0.0
C1916 C 0.85107 0.81713 0.66505 0.0
C1917 C 0.86611 0.81571 0.66623 0.0
C1918 C 0.84662 0.82439 0.68506 0.0
C1919 C 0.85687 0.83003 0.70706 0.0
C1920 C 0.8719 0.8285 0.70834 0.0
H1921 H 0.81097 0.835 0.84905 0.0
H1922 H 0.8225 0.82724 0.81262 0.0
C1923 C 0.87667 0.82171 0.68787 0.0
C1924 C 0.85099 0.83635 0.72901 0.0
H1925 H 0.86408 0.86877 0.773 0.0
C1926 C 0.83358 0.8263 0.73681 0.0
C1927 C 0.86198 0.85219 0.74175 0.0
C1928 C 0.88037 0.86445 0.73319 0.0
C1929 C 0.82689 0.83149 0.75689 0.0
C1930 C 0.83815 0.84671 0.77068 0.0
C1931 C 0.8555 0.85696 0.76272 0.0
C1932 C 0.83215 0.852 0.79357 0.0
C1933 C 0.80768 0.82074 0.76258 0.0
C1934 C 0.8346 0.86888 0.79583 0.0
C1935 C 0.82844 0.87354 0.81716 0.0
C1936 C 0.81952 0.86131 0.83636 0.0
C1937 C 0.81744 0.84459 0.83428 0.0
C1938 C 0.82395 0.8401 0.81336 0.0
H1939 H 0.80018 0.81376 0.74545 0.0
H1940 H 0.80552 0.81078 0.77701 0.0
H1941 H 0.8024 0.82891 0.76985 0.0
H1942 H 0.84104 0.87836 0.78094 0.0
H1943 H 0.83032 0.88656 0.81838 0.0
H1944 H 0.17934 0.05865 0.67117 0.0
H1945 H 0.16654 0.0392 0.70763 0.0
H1946 H 0.21384 0.03736 0.71709 0.0
H1947 H 0.22674 0.05676 0.68103 0.0
H1948 H 0.16159 1.00508 0.71219 0.0
H1949 H 0.20382 0.04815 0.78863 0.0
H1950 H 0.20211 0.05633 0.7581 0.0
H1951 H 0.2159 0.04702 0.76216 0.0
C1952 C 0.18711 0.05431 0.68125 0.0
C1953 C 0.20409 0.0593 0.67319 0.0
C1954 C 0.17974 0.04315 0.70201 0.0
C1955 C 0.18931 0.03701 0.71521 0.0
C1956 C 0.20633 0.0422 0.70745 0.0
H1957 H 0.18144 0.96495 0.827 0.0
H1958 H 0.1884 0.98578 0.7927 0.0
C1959 C 0.21366 0.05324 0.68672 0.0
C1960 C 0.18138 0.02441 0.73626 0.0
H1961 H 0.18809 0.0176 0.79775 0.0
C1962 C 0.16715 1.00787 0.73105 0.0
C1963 C 0.18867 0.02813 0.76081 0.0
C1964 C 0.20336 0.04593 0.76788 0.0
C1965 C 0.16065 0.99462 0.7494 0.0
C1966 C 0.16847 0.99814 0.77359 0.0
C1967 C 0.18221 0.0149 0.77909 0.0
C1968 C 0.16339 0.98444 0.79309 0.0
C1969 C 0.14602 0.97676 0.74245 0.0
C1970 C 0.1469 0.97658 0.80448 0.0
C1971 C 0.14283 0.96457 0.82416 0.0
C1972 C 0.15524 0.96032 0.83285 0.0
C1973 C 0.17157 0.96792 0.82087 0.0
C1974 C 0.1756 0.97987 0.80127 0.0
H1975 H 0.14349 0.97538 0.72176 0.0
H1976 H 0.14902 0.9666 0.74872 0.0
H1977 H 0.13395 0.97437 0.7522 0.0
H1978 H 0.13737 0.98011 0.79865 0.0
H1979 H 0.13016 0.95904 0.83304 0.0
H1980 H 0.96314 0.12404 0.66923 0.0
H1981 H 0.98246 0.13032 0.70575 0.0
H1982 H 0.98451 0.17952 0.71606 0.0
H1983 H 0.96522 0.17336 0.67999 0.0
H1984 H 0.0165 0.15899 0.71114 0.0
H1985 H 0.97329 0.15842 0.78715 0.0
H1986 H 0.96523 0.14889 0.75641 0.0
H1987 H 0.97482 0.17198 0.76096 0.0
C1988 C 0.96751 0.13608 0.67951 0.0
C1989 C 0.96258 0.14817 0.6717 0.0
C1990 C 0.97859 0.13967 0.7003 0.0
C1991 C 0.98474 0.15528 0.71379 0.0
C1992 C 0.97965 0.16724 0.70623 0.0
H1993 H 0.05692 0.21879 0.82571 0.0
H1994 H 0.03619 0.20509 0.79128 0.0
C1995 C 0.96867 0.16372 0.68548 0.0
C1996 C 0.99719 0.1597 0.735 0.0
H1997 H 1.00381 0.17302 0.79659 0.0
C1998 C 0.01366 0.16177 0.72997 0.0
C1999 C 0.99341 0.16326 0.75954 0.0
C2000 C 0.97566 0.16036 0.76645 0.0
C2001 C 0.02679 0.16827 0.74849 0.0
C2002 C 0.02323 0.1726 0.77265 0.0
C2003 C 1.00654 0.16982 0.77797 0.0
C2004 C 0.03686 0.18107 0.79227 0.0
C2005 C 0.04459 0.17123 0.74179 0.0
C2006 C 0.0443 0.17217 0.80405 0.0
C2007 C 0.05624 0.18 0.82384 0.0
C2008 C 0.06085 0.19683 0.83222 0.0
C2009 C 0.05368 0.20582 0.81983 0.0
C2010 C 0.04178 0.198 0.80015 0.0
H2011 H 0.046 0.16986 0.72116 0.0
H2012 H 0.05481 0.18441 0.74788 0.0
H2013 H 0.04685 0.16157 0.75189 0.0
H2014 H 0.04051 0.15901 0.79844 0.0
H2015 H 0.06146 0.17267 0.83303 0.0
H2016 H 0.84654 0.55431 0.6597 0.0
H2017 H 0.85425 0.54117 0.62521 0.0
H2018 H 0.80333 0.49546 0.62885 0.0
H2019 H 0.79537 0.50859 0.66336 0.0
H2020 H 0.85451 0.50958 0.62925 0.0
H2021 H 0.8103 0.507 0.55259 0.0
H2022 H 0.81505 0.52075 0.58008 0.0
H2023 H 0.80029 0.49776 0.58252 0.0
C2024 C 0.83685 0.54155 0.653 0.0
C2025 C 0.82032 0.5325 0.66436 0.0
C2026 C 0.84131 0.53405 0.63329 0.0
C2027 C 0.82935 0.51738 0.62441 0.0
C2028 C 0.81268 0.50844 0.63519 0.0
H2029 H 0.84647 0.45934 0.50352 0.0
H2030 H 0.83358 0.46616 0.5397 0.0
C2031 C 0.80817 0.51596 0.65495 0.0
C2032 C 0.83486 0.50913 0.60487 0.0
H2033 H 0.8284 0.49529 0.54346 0.0
C2034 C 0.84874 0.50637 0.61053 0.0
C2035 C 0.82718 0.50479 0.58057 0.0
C2036 C 0.81246 0.5078 0.57337 0.0
C2037 C 0.85543 0.49973 0.59237 0.0
C2038 C 0.84821 0.49603 0.56777 0.0
C2039 C 0.8339 0.49817 0.56235 0.0
C2040 C 0.85623 0.49129 0.54691 0.0
C2041 C 0.87024 0.49686 0.59963 0.0
C2042 C 0.87321 0.50315 0.53905 0.0
C2043 C 0.88058 0.49934 0.51846 0.0
C2044 C 0.8711 0.48357 0.5052 0.0
C2045 C 0.85417 0.47155 0.5134 0.0
C2046 C 0.84675 0.47544 0.53399 0.0
H2047 H 0.87075 0.49529 0.62041 0.0
H2048 H 0.86908 0.48517 0.59009 0.0
H2049 H 0.88271 0.50832 0.59374 0.0
H2050 H 0.88064 0.51559 0.54848 0.0
H2051 H 0.89363 0.50892 0.51266 0.0
H2052 H 0.5154 0.29463 0.66799 0.0
H2053 H 0.52897 0.31568 0.63344 0.0
H2054 H 0.48284 0.31993 0.6268 0.0
H2055 H 0.46922 0.2991 0.66115 0.0
H2056 H 0.51707 0.31538 0.58206 0.0
H2057 H 0.52277 0.37054 0.63881 0.0
H2058 H 0.51902 0.35042 0.65294 0.0
H2059 H 0.50131 0.35182 0.63891 0.0
C2060 C 0.50809 0.29994 0.65903 0.0
C2061 C 0.49127 0.29528 0.66752 0.0
C2062 C 0.51588 0.31198 0.63934 0.0
C2063 C 0.50702 0.3196 0.62797 0.0
C2064 C 0.49002 0.31446 0.63571 0.0
H2065 H 0.5131 0.38797 0.5121 0.0
H2066 H 0.50727 0.36881 0.54831 0.0
C2067 C 0.48223 0.30246 0.65529 0.0
C2068 C 0.51544 0.33311 0.60818 0.0
H2069 H 0.52625 0.37486 0.59408 0.0
C2070 C 0.51937 0.32848 0.58473 0.0
C2071 C 0.5185 0.3502 0.61186 0.0
C2072 C 0.51535 0.35614 0.63707 0.0
C2073 C 0.52533 0.34024 0.56435 0.0
C2074 C 0.52764 0.35709 0.56774 0.0
C2075 C 0.52441 0.36192 0.59152 0.0
C2076 C 0.53189 0.36937 0.54636 0.0
C2077 C 0.52828 0.33429 0.53902 0.0
C2078 C 0.54786 0.37636 0.53357 0.0
C2079 C 0.55127 0.3874 0.51277 0.0
C2080 C 0.53876 0.39162 0.50447 0.0
C2081 C 0.523 0.38496 0.51786 0.0
C2082 C 0.51964 0.37399 0.5386 0.0
H2083 H 0.5231 0.32001 0.53848 0.0
H2084 H 0.52205 0.33781 0.52369 0.0
H2085 H 0.54245 0.3409 0.53508 0.0
H2086 H 0.5576 0.37317 0.53954 0.0
H2087 H 0.56356 0.39234 0.50293 0.0
H2088 H 0.63137 0.176 0.50606 0.0
H2089 H 0.65224 0.18926 0.54085 0.0
H2090 H 0.65658 0.14312 0.54652 0.0
H2091 H 0.63594 0.12982 0.51187 0.0
H2092 H 0.65188 0.17733 0.59171 0.0
H2093 H 0.70713 0.18284 0.53542 0.0
H2094 H 0.68704 0.17903 0.52113 0.0
H2095 H 0.68844 0.16137 0.53539 0.0
C2096 C 0.63666 0.16862 0.51485 0.0
C2097 C 0.63209 0.1519 0.50599 0.0
C2098 C 0.6486 0.17623 0.53468 0.0
C2099 C 0.65621 0.1673 0.54585 0.0
C2100 C 0.65113 0.15037 0.53776 0.0
H2101 H 0.72503 0.17454 0.6624 0.0
H2102 H 0.70567 0.1681 0.62629 0.0
C2103 C 0.63924 0.14276 0.51802 0.0
C2104 C 0.66964 0.17559 0.56577 0.0
H2105 H 0.71137 0.18649 0.58012 0.0
C2106 C 0.66497 0.1796 0.58913 0.0
C2107 C 0.68672 0.17861 0.56222 0.0
C2108 C 0.69273 0.17541 0.53711 0.0
C2109 C 0.67671 0.18567 0.60953 0.0
C2110 C 0.69357 0.188 0.60626 0.0
C2111 C 0.69841 0.18463 0.58259 0.0
C2112 C 0.70591 0.19258 0.62763 0.0
C2113 C 0.67072 0.18875 0.63475 0.0
C2114 C 0.71278 0.20867 0.64005 0.0
C2115 C 0.72393 0.21244 0.66078 0.0
C2116 C 0.7284 0.20017 0.66939 0.0
C2117 C 0.72184 0.18428 0.65639 0.0
C2118 C 0.71076 0.18056 0.63571 0.0
H2119 H 0.65643 0.1834 0.63531 0.0
H2120 H 0.67438 0.18276 0.65026 0.0
H2121 H 0.67718 0.20295 0.63839 0.0
H2122 H 0.70942 0.21825 0.63381 0.0
H2123 H 0.72878 0.22482 0.67032 0.0
H2124 H 0.55812 0.15914 0.02107 0.0
H2125 H 0.54946 0.16967 0.05828 0.0
H2126 H 0.50003 0.15446 0.02305 0.0
H2127 H 0.50816 0.14302 0.98689 0.0
H2128 H 0.54113 0.19353 0.06676 0.0
H2129 H 0.48316 0.13018 0.08833 0.0
H2130 H 0.49888 0.13239 0.0649 0.0
H2131 H 0.48177 0.13691 0.0569 0.0
C2132 C 0.54538 0.15797 0.02146 0.0
C2133 C 0.53367 0.14995 1.00138 0.0
C2134 C 0.54045 0.16402 0.04265 0.0
C2135 C 0.52386 0.16239 0.04386 0.0
C2136 C 0.51259 0.15522 0.02313 0.0
H2137 H 0.49298 0.21832 0.14951 0.0
H2138 H 0.50477 0.21009 0.11343 0.0
C2139 C 0.5173 0.14877 1.00236 0.0
C2140 C 0.5182 0.16811 0.06666 0.0
H2141 H 0.48439 0.15503 0.10797 0.0
C2142 C 0.52881 0.18505 0.07598 0.0
C2143 C 0.50229 0.15697 0.07909 0.0
C2144 C 0.491 0.13806 0.07195 0.0
C2145 C 0.52378 0.19126 0.097 0.0
C2146 C 0.50734 0.18047 0.10836 0.0
C2147 C 0.49689 0.16345 0.09919 0.0
C2148 C 0.50078 0.18609 0.13032 0.0
C2149 C 0.53639 0.20913 0.10709 0.0
C2150 C 0.49403 0.17514 0.15151 0.0
C2151 C 0.48667 0.17948 0.17152 0.0
C2152 C 0.48623 0.19508 0.17115 0.0
C2153 C 0.49328 0.20627 0.15029 0.0
C2154 C 0.5002 0.20165 0.12981 0.0
H2155 H 0.55002 0.21306 0.10204 0.0
H2156 H 0.53341 0.21876 0.09855 0.0
H2157 H 0.53547 0.20968 0.12799 0.0
H2158 H 0.49433 0.1631 0.15253 0.0
H2159 H 0.4815 0.17069 0.1875 0.0
H2160 H 0.84319 0.39019 0.00372 0.0
H2161 H 0.8304 0.37079 0.04022 0.0
H2162 H 0.87792 0.36944 0.05025 0.0
H2163 H 0.89081 0.38882 0.01418 0.0
H2164 H 0.82552 0.33692 0.04538 0.0
H2165 H 0.86783 0.38027 0.12147 0.0
H2166 H 0.86622 0.38832 0.09079 0.0
H2167 H 0.87996 0.37899 0.0952 0.0
C2168 C 0.851 0.38596 0.01393 0.0
C2169 C 0.86806 0.39111 0.00604 0.0
C2170 C 0.84365 0.37483 0.03471 0.0
C2171 C 0.85329 0.36885 0.04812 0.0
C2172 C 0.87036 0.37416 0.04048 0.0
H2173 H 0.84566 0.29697 0.15987 0.0
H2174 H 0.85246 0.31772 0.12552 0.0
C2175 C 0.87768 0.38519 0.01974 0.0
C2176 C 0.84539 0.35633 0.06927 0.0
H2177 H 0.85223 0.34972 0.1308 0.0
C2178 C 0.83113 0.33977 0.0642 0.0
C2179 C 0.85272 0.36013 0.0938 0.0
C2180 C 0.86742 0.37795 0.10075 0.0
C2181 C 0.82465 0.3266 0.08267 0.0
C2182 C 0.83254 0.3302 0.10681 0.0
C2183 C 0.8463 0.34696 0.11217 0.0
C2184 C 0.82754 0.31655 0.12638 0.0
C2185 C 0.80998 0.30872 0.0759 0.0
C2186 C 0.81114 0.30882 0.13805 0.0
C2187 C 0.80716 0.29685 0.15778 0.0
C2188 C 0.81957 0.29252 0.16622 0.0
C2189 C 0.8358 0.29999 0.15395 0.0
C2190 C 0.83974 0.3119 0.13431 0.0
H2191 H 0.80727 0.30731 0.05525 0.0
H2192 H 0.81304 0.29859 0.08203 0.0
H2193 H 0.79798 0.30633 0.0859 0.0
H2194 H 0.80162 0.3124 0.1324 0.0
H2195 H 0.79457 0.29141 0.16689 0.0
H2196 H 0.62722 0.45847 0.01032 0.0
H2197 H 0.64797 0.46666 0.04526 0.0
H2198 H 0.65508 0.51842 0.04501 0.0
H2199 H 0.63459 0.51047 0.00999 0.0
H2200 H 0.6862 0.51766 0.04302 0.0
H2201 H 0.64334 0.47551 0.12039 0.0
H2202 H 0.64256 0.46458 0.09137 0.0
H2203 H 0.63484 0.47981 0.09196 0.0
C2204 C 0.63298 0.47152 0.01796 0.0
C2205 C 0.62925 0.48382 0.00729 0.0
C2206 C 0.64481 0.47616 0.03798 0.0
C2207 C 0.65298 0.49312 0.04782 0.0
C2208 C 0.64891 0.50526 0.03768 0.0
H2209 H 0.72642 0.55721 0.15941 0.0
H2210 H 0.70668 0.54447 0.12364 0.0
C2211 C 0.63716 0.50067 0.01768 0.0
C2212 C 0.66654 0.49867 0.06766 0.0
H2213 H 0.6733 0.49262 0.12953 0.0
C2214 C 0.68339 0.51214 0.06192 0.0
C2215 C 0.66288 0.49132 0.09219 0.0
C2216 C 0.64491 0.47709 0.09953 0.0
C2217 C 0.69662 0.5187 0.08018 0.0
C2218 C 0.69283 0.51176 0.10494 0.0
C2219 C 0.67614 0.4979 0.1105 0.0
C2220 C 0.70561 0.5196 0.12579 0.0
C2221 C 0.71454 0.53304 0.07284 0.0
C2222 C 0.71147 0.50979 0.139 0.0
C2223 C 0.72282 0.51706 0.15956 0.0
C2224 C 0.72829 0.53419 0.16742 0.0
C2225 C 0.72252 0.54401 0.15387 0.0
C2226 C 0.71128 0.53677 0.13332 0.0
H2227 H 0.71665 0.53334 0.05207 0.0
H2228 H 0.71602 0.54576 0.07847 0.0
H2229 H 0.72479 0.53151 0.08256 0.0
H2230 H 0.70714 0.49647 0.13354 0.0
H2231 H 0.72693 0.50911 0.16966 0.0
H2232 H 0.46274 0.84328 0.9983 0.0
H2233 H 0.47073 0.82995 0.96402 0.0
H2234 H 0.52188 0.87533 0.96092 0.0
H2235 H 0.51416 0.88867 0.99511 0.0
H2236 H 0.48364 0.8418 0.91391 0.0
H2237 H 0.53133 0.83487 0.97317 0.0
H2238 H 0.5151 0.83918 0.98641 0.0
H2239 H 0.53469 0.85657 0.97285 0.0
C2240 C 0.47563 0.85049 0.99016 0.0
C2241 C 0.48786 0.86698 0.99965 0.0
C2242 C 0.48018 0.84284 0.97062 0.0
C2243 C 0.49701 0.85151 0.96036 0.0
C2244 C 0.50895 0.86826 0.96899 0.0
H2245 H 0.55983 0.84305 0.84671 0.0
H2246 H 0.54664 0.84981 0.8822 0.0
C2247 C 0.50445 0.8759 0.98846 0.0
C2248 C 0.50238 0.84309 0.94091 0.0
H2249 H 0.53288 0.83134 0.9286 0.0
C2250 C 0.49423 0.83926 0.91716 0.0
C2251 C 0.51612 0.83968 0.94534 0.0
C2252 C 0.52472 0.84262 0.9709 0.0
C2253 C 0.5001 0.83299 0.89727 0.0
C2254 C 0.51432 0.83028 0.90143 0.0
C2255 C 0.52202 0.83349 0.92546 0.0
C2256 C 0.5223 0.82545 0.88063 0.0
C2257 C 0.49161 0.83007 0.87163 0.0
C2258 C 0.51313 0.80931 0.86835 0.0
C2259 C 0.52067 0.80534 0.84801 0.0
C2260 C 0.53752 0.81749 0.83963 0.0
C2261 C 0.54682 0.83342 0.85255 0.0
C2262 C 0.5393 0.83732 0.87287 0.0
H2263 H 0.48279 0.83556 0.87046 0.0
H2264 H 0.50161 0.83602 0.85655 0.0
H2265 H 0.48384 0.81589 0.86786 0.0
H2266 H 0.50009 0.79986 0.87435 0.0
H2267 H 0.51316 0.79295 0.83851 0.0
H2268 H 0.22986 0.72453 0.83903 0.0
H2269 H 0.22244 0.70338 0.87344 0.0
H2270 H 0.17145 0.69782 0.8788 0.0
H2271 H 0.17861 0.71874 0.84459 0.0
H2272 H 0.21008 0.70289 0.92446 0.0
H2273 H 0.16204 0.64773 0.86632 0.0
H2274 H 0.17823 0.66813 0.85267 0.0
H2275 H 0.15876 0.66612 0.86638 0.0
C2276 C 0.21713 0.71893 0.8477 0.0
C2277 C 0.20477 0.72322 0.83886 0.0
C2278 C 0.21291 0.70683 0.8673 0.0
C2279 C 0.19628 0.69879 0.87824 0.0
C2280 C 0.18423 0.70361 0.87021 0.0
H2281 H 0.13381 0.62855 0.99251 0.0
H2282 H 0.1471 0.64816 0.95673 0.0
C2283 C 0.1884 0.71566 0.85072 0.0
C2284 C 0.19122 0.68516 0.89784 0.0
H2285 H 0.1608 0.64304 0.91098 0.0
C2286 C 0.1995 0.68972 0.92147 0.0
C2287 C 0.17747 0.66797 0.89375 0.0
C2288 C 0.1687 0.66211 0.86833 0.0
C2289 C 0.19372 0.67777 0.94162 0.0
C2290 C 0.17947 0.66081 0.93781 0.0
C2291 C 0.17168 0.65607 0.91386 0.0
C2292 C 0.17148 0.64826 0.95891 0.0
C2293 C 0.20232 0.68363 0.96715 0.0
C2294 C 0.18066 0.64149 0.97167 0.0
C2295 C 0.17307 0.63019 0.99222 0.0
C2296 C 0.15616 0.62548 1.0003 0.0
C2297 C 0.14687 0.63193 0.98692 0.0
C2298 C 0.15444 0.64315 0.96642 0.0
H2299 H 0.21111 0.69795 0.96802 0.0
H2300 H 0.19238 0.67973 0.9823 0.0
H2301 H 0.21013 0.67729 0.97109 0.0
H2302 H 0.19373 0.64505 0.96587 0.0
H2303 H 0.18057 0.62543 1.00206 0.0
H2304 H 0.39509 0.55872 1.00111 0.0
H2305 H 0.374 0.55138 0.96667 0.0
H2306 H 0.3691 0.5007 0.96023 0.0
H2307 H 0.38997 0.50778 0.99447 0.0
H2308 H 0.3739 0.53954 0.91533 0.0
H2309 H 0.31875 0.49064 0.97267 0.0
H2310 H 0.33901 0.50688 0.98659 0.0
H2311 H 0.33731 0.48763 0.97256 0.0
C2312 C 0.38964 0.54607 0.99221 0.0
C2313 C 0.39412 0.53379 1.00074 0.0
C2314 C 0.37758 0.5419 0.97258 0.0
C2315 C 0.36975 0.52538 0.96131 0.0
C2316 C 0.37473 0.51339 0.96906 0.0
H2317 H 0.30017 0.46323 0.84632 0.0
H2318 H 0.31961 0.47646 0.88226 0.0
C2319 C 0.38675 0.51752 0.98858 0.0
C2320 C 0.35617 0.52036 0.94164 0.0
H2321 H 0.31423 0.48975 0.928 0.0
C2322 C 0.36076 0.52884 0.91814 0.0
C2323 C 0.33904 0.50647 0.9455 0.0
C2324 C 0.33314 0.49747 0.97077 0.0
C2325 C 0.3489 0.52312 0.89789 0.0
C2326 C 0.33199 0.50872 0.90146 0.0
C2327 C 0.32722 0.50074 0.9253 0.0
C2328 C 0.31955 0.50078 0.88023 0.0
C2329 C 0.35481 0.53193 0.87251 0.0
C2330 C 0.31276 0.50994 0.86747 0.0
C2331 C 0.30156 0.50238 0.84681 0.0
C2332 C 0.29698 0.48552 0.83862 0.0
C2333 C 0.30346 0.47625 0.85199 0.0
C2334 C 0.31458 0.48379 0.87258 0.0
H2335 H 0.36911 0.54081 0.87177 0.0
H2336 H 0.35103 0.52213 0.85719 0.0
H2337 H 0.3484 0.5397 0.86871 0.0
H2338 H 0.31621 0.52297 0.87336 0.0
H2339 H 0.29677 0.50987 0.83699 0.0
H2340 H 0.13438 0.50803 0.49199 0.0
H2341 H 0.14771 0.50197 0.45598 0.0
H2342 H 0.194 0.55201 0.465 0.0
H2343 H 0.1808 0.55819 0.50141 0.0
H2344 H 0.161 0.52097 0.41027 0.0
H2345 H 0.21204 0.517 0.46632 0.0
H2346 H 0.19325 0.51618 0.48094 0.0
H2347 H 0.21077 0.53651 0.4697 0.0
C2348 C 0.14737 0.51782 0.48633 0.0
C2349 C 0.15655 0.53356 0.49972 0.0
C2350 C 0.15497 0.51432 0.4657 0.0
C2351 C 0.17193 0.52643 0.45807 0.0
C2352 C 0.181 0.54237 0.47088 0.0
H2353 H 0.23019 0.50967 0.33671 0.0
H2354 H 0.22276 0.52321 0.37139 0.0
C2355 C 0.17338 0.54592 0.49156 0.0
C2356 C 0.17993 0.52207 0.43677 0.0
H2357 H 0.21085 0.51113 0.4227 0.0
C2358 C 0.172 0.51898 0.41292 0.0
C2359 C 0.19434 0.51957 0.44028 0.0
C2360 C 0.20309 0.52236 0.46569 0.0
C2361 C 0.17781 0.51304 0.39262 0.0
C2362 C 0.19172 0.5098 0.39641 0.0
C2363 C 0.20014 0.51357 0.41994 0.0
C2364 C 0.1968 0.50137 0.37662 0.0
C2365 C 0.16888 0.51006 0.36732 0.0
C2366 C 0.18487 0.48443 0.36872 0.0
C2367 C 0.18905 0.47666 0.34907 0.0
C2368 C 0.20531 0.48566 0.33693 0.0
C2369 C 0.21754 0.5024 0.3456 0.0
C2370 C 0.21333 0.51017 0.36536 0.0
H2371 H 0.16201 0.5176 0.36555 0.0
H2372 H 0.17834 0.51373 0.35154 0.0
H2373 H 0.15909 0.49606 0.36535 0.0
H2374 H 0.17218 0.47729 0.37754 0.0
H2375 H 0.17935 0.46371 0.34307 0.0
H2376 H 0.46184 0.6253 0.50061 0.0
H2377 H 0.46807 0.64449 0.46392 0.0
H2378 H 0.51762 0.64722 0.45442 0.0
H2379 H 0.51153 0.62808 0.49068 0.0
H2380 H 0.49658 0.67874 0.45857 0.0
H2381 H 0.49677 0.63554 0.38312 0.0
H2382 H 0.48712 0.6275 0.41382 0.0
H2383 H 0.51025 0.63727 0.40954 0.0
C2384 C 0.47395 0.62979 0.49048 0.0
C2385 C 0.48616 0.6251 0.49857 0.0
C2386 C 0.4775 0.6408 0.46959 0.0
C2387 C 0.49321 0.6471 0.45628 0.0
C2388 C 0.50528 0.64225 0.46411 0.0
H2389 H 0.55648 0.71923 0.34401 0.0
H2390 H 0.54289 0.69855 0.37855 0.0
C2391 C 0.50179 0.63135 0.48497 0.0
C2392 C 0.49758 0.65947 0.43497 0.0
H2393 H 0.51107 0.66602 0.37345 0.0
C2394 C 0.49947 0.6759 0.43981 0.0
C2395 C 0.50128 0.65569 0.41053 0.0
C2396 C 0.49859 0.63798 0.40383 0.0
C2397 C 0.5059 0.68897 0.42119 0.0
C2398 C 0.51036 0.6854 0.39713 0.0
C2399 C 0.50777 0.66875 0.392 0.0
C2400 C 0.51876 0.69899 0.37741 0.0
C2401 C 0.50867 0.70673 0.42771 0.0
C2402 C 0.50975 0.70628 0.3655 0.0
C2403 C 0.51753 0.71819 0.34565 0.0
C2404 C 0.5344 0.72292 0.33734 0.0
C2405 C 0.54348 0.71589 0.34984 0.0
C2406 C 0.53572 0.70403 0.36958 0.0
H2407 H 0.50727 0.7082 0.44832 0.0
H2408 H 0.5218 0.71703 0.42157 0.0
H2409 H 0.49893 0.70882 0.41754 0.0
H2410 H 0.49656 0.7024 0.37108 0.0
H2411 H 0.51013 0.72329 0.33638 0.0
H2412 H 0.39367 0.84172 0.50291 0.0
H2413 H 0.37402 0.82903 0.46667 0.0
H2414 H 0.37306 0.87679 0.45696 0.0
H2415 H 0.39267 0.88958 0.49285 0.0
H2416 H 0.34005 0.82483 0.46251 0.0
H2417 H 0.38337 0.86604 0.38538 0.0
H2418 H 0.3915 0.86422 0.41588 0.0
H2419 H 0.38255 0.87831 0.41182 0.0
C2420 C 0.38948 0.84961 0.49283 0.0
C2421 C 0.39478 0.86669 0.50078 0.0
C2422 C 0.37821 0.84231 0.4722 0.0
C2423 C 0.37224 0.85204 0.459 0.0
C2424 C 0.37775 0.86916 0.46662 0.0
H2425 H 0.30112 0.8428 0.34345 0.0
H2426 H 0.32164 0.85069 0.37842 0.0
C2427 C 0.38891 0.87642 0.48724 0.0
C2428 C 0.35954 0.84417 0.43808 0.0
H2429 H 0.35294 0.85019 0.3762 0.0
C2430 C 0.3429 0.83018 0.44352 0.0
C2431 C 0.36333 0.85119 0.41336 0.0
C2432 C 0.38121 0.86566 0.40614 0.0
C2433 C 0.32968 0.82357 0.42516 0.0
C2434 C 0.33332 0.83101 0.40068 0.0
C2435 C 0.35013 0.8446 0.39505 0.0
C2436 C 0.31977 0.82548 0.38083 0.0
C2437 C 0.31174 0.80919 0.43237 0.0
C2438 C 0.31172 0.80858 0.37079 0.0
C2439 C 0.29987 0.80396 0.35078 0.0
C2440 C 0.296 0.81624 0.34036 0.0
C2441 C 0.3038 0.83302 0.35095 0.0
C2442 C 0.31557 0.83758 0.37093 0.0
H2443 H 0.31016 0.80747 0.45321 0.0
H2444 H 0.30162 0.81187 0.42491 0.0
H2445 H 0.3095 0.79677 0.42401 0.0
H2446 H 0.31498 0.79912 0.37789 0.0
H2447 H 0.2942 0.79097 0.34298 0.0
H2448 H 0.29514 0.19277 0.127 0.0
H2449 H 0.3224 0.19666 0.14426 0.0
H2450 H 0.30126 0.14108 0.14374 0.0
H2451 H 0.27399 0.13708 0.12609 0.0
H2452 H 0.32669 0.18425 0.18977 0.0
H2453 H 0.34861 0.15851 0.11095 0.0
H2454 H 0.33173 0.16403 0.10714 0.0
H2455 H 0.32691 0.14378 0.12166 0.0
C2456 C 0.29635 0.18136 0.13019 0.0
C2457 C 0.28238 0.1646 0.12507 0.0
C2458 C 0.31195 0.18362 0.14014 0.0
C2459 C 0.31397 0.1692 0.14509 0.0
C2460 C 0.30015 0.15245 0.13962 0.0
H2461 H 0.39504 0.15552 0.21445 0.0
H2462 H 0.368 0.15169 0.19636 0.0
C2463 C 0.28453 0.15017 0.12959 0.0
C2464 C 0.33018 0.17168 0.15724 0.0
H2465 H 0.36409 0.16415 0.14969 0.0
C2466 C 0.33492 0.17994 0.18094 0.0
C2467 C 0.34089 0.16601 0.14576 0.0
C2468 C 0.3369 0.15773 0.11987 0.0
C2469 C 0.34991 0.18243 0.19365 0.0
C2470 C 0.3606 0.17674 0.18218 0.0
C2471 C 0.35586 0.16847 0.15849 0.0
C2472 C 0.37677 0.17921 0.1944 0.0
C2473 C 0.35395 0.19077 0.21949 0.0
C2474 C 0.39071 0.19597 0.19943 0.0
C2475 C 0.40621 0.19821 0.20986 0.0
C2476 C 0.4081 0.18373 0.21533 0.0
C2477 C 0.39402 0.16696 0.21056 0.0
C2478 C 0.37856 0.16474 0.20014 0.0
H2479 H 0.34234 0.19028 0.2283 0.0
H2480 H 0.35888 0.1843 0.23233 0.0
H2481 H 0.36418 0.20464 0.21768 0.0
H2482 H 0.38975 0.20734 0.19475 0.0
H2483 H 0.41683 0.21131 0.2131 0.0
H2484 H 0.86294 0.24353 0.20799 0.0
H2485 H 0.86703 0.22053 0.1897 0.0
H2486 H 0.81186 0.18478 0.19465 0.0
H2487 H 0.80758 0.20782 0.21268 0.0
H2488 H 0.859 0.1879 0.20792 0.0
H2489 H 0.8223 0.18196 0.11988 0.0
H2490 H 0.82915 0.19997 0.14152 0.0
H2491 H 0.81035 0.17928 0.14857 0.0
C2492 C 0.85166 0.23075 0.20536 0.0
C2493 C 0.83491 0.22756 0.21167 0.0
C2494 C 0.85404 0.21762 0.19487 0.0
C2495 C 0.83973 0.20103 0.19033 0.0
C2496 C 0.82305 0.19759 0.19745 0.0
H2497 H 0.82785 0.10583 0.12572 0.0
H2498 H 0.82371 0.12884 0.14384 0.0
C2499 C 0.82065 0.21074 0.20795 0.0
C2500 C 0.84233 0.18743 0.178 0.0
H2501 H 0.83172 0.16149 0.1256 0.0
C2502 C 0.85308 0.18216 0.18988 0.0
C2503 C 0.83463 0.17998 0.15443 0.0
C2504 C 0.82359 0.18566 0.14018 0.0
C2505 C 0.85608 0.16941 0.17909 0.0
C2506 C 0.84839 0.16196 0.15552 0.0
C2507 C 0.83763 0.16723 0.14363 0.0
C2508 C 0.851 0.14837 0.14318 0.0
C2509 C 0.86712 0.16372 0.19334 0.0
C2510 C 0.86769 0.15182 0.13608 0.0
C2511 C 0.87012 0.13867 0.12566 0.0
C2512 C 0.85588 0.12183 0.12203 0.0
C2513 C 0.83912 0.11862 0.12829 0.0
C2514 C 0.83671 0.13177 0.13869 0.0
H2515 H 0.86841 0.16742 0.21365 0.0
H2516 H 0.86155 0.14942 0.19201 0.0
H2517 H 0.88035 0.17011 0.18496 0.0
H2518 H 0.87887 0.16465 0.13885 0.0
H2519 H 0.88319 0.1416 0.12098 0.0
H2520 H 0.81269 0.60525 0.21476 0.0
H2521 H 0.83592 0.63253 0.19701 0.0
H2522 H 0.80111 0.65321 0.19498 0.0
H2523 H 0.7778 0.62597 0.21239 0.0
H2524 H 0.81838 0.65716 0.14953 0.0
H2525 H 0.86494 0.6803 0.22978 0.0
H2526 H 0.85818 0.65851 0.21966 0.0
H2527 H 0.84253 0.66338 0.23325 0.0
C2528 C 0.81005 0.6157 0.21089 0.0
C2529 C 0.79339 0.61343 0.21506 0.0
C2530 C 0.82336 0.63131 0.2008 0.0
C2531 C 0.82031 0.64499 0.19487 0.0
C2532 C 0.80378 0.64286 0.19945 0.0
H2533 H 0.88041 0.74759 0.12597 0.0
H2534 H 0.8573 0.72026 0.14372 0.0
C2535 C 0.79048 0.62728 0.20949 0.0
C2536 C 0.83401 0.66119 0.18272 0.0
H2537 H 0.875 0.69569 0.19106 0.0
C2538 C 0.83073 0.66564 0.15866 0.0
C2539 C 0.85014 0.6722 0.19461 0.0
C2540 C 0.85416 0.66849 0.22084 0.0
C2541 C 0.84323 0.68065 0.14599 0.0
C2542 C 0.85935 0.69167 0.15788 0.0
C2543 C 0.86264 0.68721 0.18194 0.0
C2544 C 0.87302 0.70792 0.14578 0.0
C2545 C 0.83921 0.68436 0.11974 0.0
C2546 C 0.88958 0.71014 0.14117 0.0
C2547 C 0.90282 0.72576 0.13113 0.0
C2548 C 0.89982 0.73955 0.12559 0.0
C2549 C 0.88313 0.73719 0.12982 0.0
C2550 C 0.86988 0.72155 0.1399 0.0
H2551 H 0.82848 0.67252 0.11078 0.0
H2552 H 0.83513 0.69428 0.12093 0.0
H2553 H 0.85086 0.68952 0.10736 0.0
H2554 H 0.89231 0.69982 0.14561 0.0
H2555 H 0.91553 0.72713 0.12819 0.0
H2556 H 0.16244 0.39345 0.29503 0.0
H2557 H 0.15815 0.36626 0.31321 0.0
H2558 H 0.21331 0.38548 0.30878 0.0
H2559 H 0.21778 0.41289 0.29086 0.0
H2560 H 0.16615 0.34164 0.29492 0.0
H2561 H 0.20244 0.37198 0.38342 0.0
H2562 H 0.19575 0.38325 0.36177 0.0
H2563 H 0.21454 0.38132 0.35488 0.0
C2564 C 0.17368 0.39189 0.29776 0.0
C2565 C 0.19048 0.40542 0.29162 0.0
C2566 C 0.17119 0.37632 0.30818 0.0
C2567 C 0.18543 0.37396 0.31282 0.0
C2568 C 0.20217 0.38717 0.30589 0.0
H2569 H 0.19678 0.2903 0.37707 0.0
H2570 H 0.20101 0.3175 0.35899 0.0
C2571 C 0.20468 0.40278 0.29545 0.0
C2572 C 0.1827 0.35769 0.32506 0.0
H2573 H 0.19297 0.34209 0.37746 0.0
C2574 C 0.17196 0.34172 0.313 0.0
C2575 C 0.19026 0.35781 0.3487 0.0
C2576 C 0.20127 0.37448 0.36311 0.0
C2577 C 0.16885 0.32592 0.32369 0.0
C2578 C 0.17643 0.32604 0.34733 0.0
C2579 C 0.18715 0.34201 0.35938 0.0
C2580 C 0.17373 0.30978 0.35953 0.0
C2581 C 0.15784 0.30925 0.30929 0.0
C2582 C 0.15701 0.29655 0.36651 0.0
C2583 C 0.15453 0.28095 0.3769 0.0
C2584 C 0.16874 0.27832 0.38062 0.0
C2585 C 0.18553 0.29186 0.37443 0.0
C2586 C 0.18799 0.30743 0.36406 0.0
H2587 H 0.15662 0.31175 0.289 0.0
H2588 H 0.16338 0.3005 0.31057 0.0
H2589 H 0.14458 0.30239 0.31758 0.0
H2590 H 0.14585 0.29823 0.3637 0.0
H2591 H 0.14144 0.27082 0.38154 0.0
H2592 H 0.60735 0.80825 0.29121 0.0
H2593 H 0.63501 0.83142 0.30815 0.0
H2594 H 0.65447 0.79563 0.31197 0.0
H2595 H 0.62705 0.77253 0.29482 0.0
H2596 H 0.64976 0.83149 0.35494 0.0
H2597 H 0.69411 0.83763 0.2766 0.0
H2598 H 0.67077 0.82656 0.27292 0.0
H2599 H 0.68095 0.81581 0.28811 0.0
C2600 C 0.61761 0.80538 0.2953 0.0
C2601 C 0.61499 0.78854 0.29154 0.0
C2602 C 0.63339 0.81862 0.30507 0.0
C2603 C 0.6469 0.81533 0.31107 0.0
C2604 C 0.64438 0.79859 0.30703 0.0
H2605 H 0.74992 0.87565 0.37843 0.0
H2606 H 0.72228 0.85241 0.36156 0.0
C2607 C 0.62864 0.78536 0.2973 0.0
C2608 C 0.66328 0.8291 0.32273 0.0
H2609 H 0.7074 0.85218 0.31497 0.0
C2610 C 0.66236 0.8361 0.34613 0.0
C2611 C 0.67972 0.83502 0.31131 0.0
C2612 C 0.68151 0.8285 0.28574 0.0
C2613 C 0.67744 0.84864 0.35862 0.0
C2614 C 0.69389 0.85457 0.34719 0.0
C2615 C 0.6948 0.84756 0.32379 0.0
C2616 C 0.71026 0.86839 0.35881 0.0
C2617 C 0.67565 0.85514 0.3842 0.0
C2618 C 0.7127 0.88509 0.36292 0.0
C2619 C 0.72844 0.89836 0.3726 0.0
C2620 C 0.74215 0.89527 0.37825 0.0
C2621 C 0.73961 0.87846 0.37442 0.0
C2622 C 0.72384 0.86518 0.3647 0.0
H2623 H 0.66308 0.84596 0.39337 0.0
H2624 H 0.68643 0.85715 0.39699 0.0
H2625 H 0.67611 0.86779 0.38184 0.0
H2626 H 0.70257 0.88799 0.35805 0.0
H2627 H 0.72996 0.91117 0.37514 0.0
H2628 H 0.21202 0.80191 0.29135 0.0
H2629 H 0.18906 0.80647 0.30897 0.0
H2630 H 0.22451 0.86184 0.31035 0.0
H2631 H 0.24738 0.85744 0.29245 0.0
H2632 H 0.18969 0.82149 0.35521 0.0
H2633 H 0.18173 0.85889 0.27746 0.0
H2634 H 0.19303 0.84688 0.27326 0.0
H2635 H 0.20379 0.86795 0.28808 0.0
C2636 C 0.21484 0.81508 0.29501 0.0
C2637 C 0.23153 0.82931 0.29037 0.0
C2638 C 0.20172 0.81766 0.30518 0.0
C2639 C 0.20499 0.83451 0.31074 0.0
C2640 C 0.22155 0.84875 0.30575 0.0
H2641 H 0.1457 0.87735 0.38137 0.0
H2642 H 0.16874 0.8729 0.36374 0.0
C2643 C 0.23466 0.84619 0.29559 0.0
C2644 C 0.19141 0.83717 0.32305 0.0
H2645 H 0.16805 0.85803 0.31657 0.0
C2646 C 0.18487 0.82939 0.34669 0.0
C2647 C 0.1852 0.84756 0.312 0.0
C2648 C 0.19116 0.85568 0.2862 0.0
C2649 C 0.17252 0.83194 0.35975 0.0
C2650 C 0.16633 0.84234 0.34871 0.0
C2651 C 0.17287 0.85014 0.32509 0.0
C2652 C 0.1527 0.84492 0.36098 0.0
C2653 C 0.16648 0.82376 0.3855 0.0
C2654 C 0.13605 0.83067 0.3654 0.0
C2655 C 0.12289 0.83315 0.37551 0.0
C2656 C 0.12606 0.84997 0.3813 0.0
C2657 C 0.14284 0.86422 0.37727 0.0
C2658 C 0.15601 0.86171 0.3671 0.0
H2659 H 0.17578 0.82035 0.39418 0.0
H2660 H 0.16475 0.83261 0.39851 0.0
H2661 H 0.15376 0.81161 0.38356 0.0
H2662 H 0.13308 0.81763 0.36039 0.0
H2663 H 0.11009 0.8219 0.37819 0.0
H2664 H 0.75113 0.87855 0.8798 0.0
H2665 H 0.72411 0.87475 0.86147 0.0
H2666 H 0.70213 0.81907 0.86279 0.0
H2667 H 0.7291 0.82272 0.88086 0.0
H2668 H 0.69849 0.83178 0.81611 0.0
H2669 H 0.67659 0.8577 0.89481 0.0
H2670 H 0.69848 0.87202 0.88436 0.0
H2671 H 0.69303 0.8516 0.89889 0.0
C2672 C 0.74047 0.86548 0.87651 0.0
C2673 C 0.74228 0.85094 0.88187 0.0
C2674 C 0.725 0.86334 0.86609 0.0
C2675 C 0.71103 0.84662 0.86097 0.0
C2676 C 0.71272 0.83209 0.86663 0.0
H2677 H 0.60844 0.80461 0.79239 0.0
H2678 H 0.63571 0.80866 0.81009 0.0
C2679 C 0.72815 0.83421 0.87705 0.0
C2680 C 0.69492 0.84424 0.84868 0.0
H2681 H 0.66099 0.85173 0.85625 0.0
C2682 C 0.69024 0.83607 0.82492 0.0
C2683 C 0.68421 0.8499 0.86016 0.0
C2684 C 0.68819 0.85816 0.88606 0.0
C2685 C 0.6753 0.83366 0.81215 0.0
C2686 C 0.66456 0.83927 0.82365 0.0
C2687 C 0.66925 0.84746 0.84741 0.0
C2688 C 0.64835 0.83677 0.81149 0.0
C2689 C 0.67138 0.82547 0.7862 0.0
C2690 C 0.6463 0.85118 0.80655 0.0
C2691 C 0.63071 0.84889 0.79656 0.0
C2692 C 0.61676 0.83212 0.79141 0.0
C2693 C 0.61895 0.81771 0.79593 0.0
C2694 C 0.63457 0.82001 0.80598 0.0
H2695 H 0.68312 0.8263 0.77729 0.0
H2696 H 0.6614 0.8115 0.78789 0.0
H2697 H 0.66622 0.8318 0.77351 0.0
H2698 H 0.65673 0.86422 0.8107 0.0
H2699 H 0.62947 0.86028 0.79339 0.0
H2700 H 0.21728 0.80795 0.79245 0.0
H2701 H 0.21283 0.83092 0.81035 0.0
H2702 H 0.15749 0.79549 0.81243 0.0
H2703 H 0.1618 0.77245 0.79485 0.0
H2704 H 0.19291 0.8456 0.79324 0.0
H2705 H 0.16879 0.81256 0.88579 0.0
H2706 H 0.17968 0.80598 0.86323 0.0
H2707 H 0.15718 0.79957 0.85889 0.0
C2708 C 0.20415 0.80508 0.79654 0.0
C2709 C 0.18991 0.78832 0.79236 0.0
C2710 C 0.20163 0.81821 0.80682 0.0
C2711 C 0.18486 0.81481 0.81323 0.0
C2712 C 0.17058 0.79829 0.80819 0.0
H2713 H 0.14264 0.87579 0.87949 0.0
H2714 H 0.14697 0.85273 0.86159 0.0
C2715 C 0.17307 0.78517 0.79795 0.0
C2716 C 0.18228 0.82849 0.82528 0.0
H2717 H 0.16683 0.83791 0.87869 0.0
C2718 C 0.18729 0.84397 0.81197 0.0
C2719 C 0.17491 0.82631 0.84971 0.0
C2720 C 0.16996 0.81028 0.86538 0.0
C2721 C 0.18482 0.8572 0.82222 0.0
C2722 C 0.17746 0.85503 0.84666 0.0
C2723 C 0.17244 0.83954 0.85997 0.0
C2724 C 0.17495 0.86874 0.85874 0.0
C2725 C 0.18978 0.87323 0.80656 0.0
C2726 C 0.18927 0.88522 0.8638 0.0
C2727 C 0.18686 0.89839 0.87404 0.0
C2728 C 0.17005 0.89532 0.87959 0.0
C2729 C 0.15575 0.8786 0.87541 0.0
C2730 C 0.1582 0.86541 0.86514 0.0
H2731 H 0.19093 0.87095 0.78615 0.0
H2732 H 0.18007 0.87755 0.80873 0.0
H2733 H 0.20257 0.88393 0.81304 0.0
H2734 H 0.20235 0.88796 0.85956 0.0
H2735 H 0.19817 0.91108 0.87714 0.0
H2736 H 0.21285 0.41256 0.79051 0.0
H2737 H 0.18969 0.38501 0.80771 0.0
H2738 H 0.22565 0.36585 0.81334 0.0
H2739 H 0.24878 0.39319 0.79589 0.0
H2740 H 0.1933 0.34133 0.79391 0.0
H2741 H 0.18594 0.37092 0.88229 0.0
H2742 H 0.18363 0.3805 0.85367 0.0
H2743 H 0.20424 0.38237 0.86124 0.0
C2744 C 0.2158 0.40244 0.79521 0.0
C2745 C 0.2327 0.40513 0.79193 0.0
C2746 C 0.20258 0.38674 0.80524 0.0
C2747 C 0.20603 0.37349 0.81229 0.0
C2748 C 0.22272 0.37593 0.80821 0.0
H2749 H 0.1461 0.26982 0.87906 0.0
H2750 H 0.16926 0.29734 0.86176 0.0
C2751 C 0.23593 0.39159 0.7982 0.0
C2752 C 0.19233 0.35712 0.82408 0.0
H2753 H 0.16569 0.34107 0.87569 0.0
C2754 C 0.1873 0.34126 0.81183 0.0
C2755 C 0.18453 0.35705 0.8475 0.0
C2756 C 0.18993 0.37359 0.86211 0.0
C2757 C 0.17446 0.32536 0.8221 0.0
C2758 C 0.16666 0.32528 0.84552 0.0
C2759 C 0.1717 0.34115 0.85777 0.0
C2760 C 0.15296 0.30891 0.85732 0.0
C2761 C 0.16905 0.30882 0.80747 0.0
C2762 C 0.1363 0.30652 0.86151 0.0
C2763 C 0.12309 0.29088 0.87157 0.0
C2764 C 0.1263 0.27731 0.8778 0.0
C2765 C 0.14317 0.27996 0.87439 0.0
C2766 C 0.15639 0.29564 0.8643 0.0
H2767 H 0.17301 0.31149 0.78728 0.0
H2768 H 0.17537 0.30192 0.81587 0.0
H2769 H 0.15474 0.30003 0.80838 0.0
H2770 H 0.13338 0.31662 0.85643 0.0
H2771 H 0.11027 0.28931 0.87398 0.0
H2772 H 0.82624 0.72462 0.62375 0.0
H2773 H 0.82217 0.69769 0.64263 0.0
H2774 H 0.87772 0.71881 0.64363 0.0
H2775 H 0.88194 0.74594 0.62506 0.0
H2776 H 0.83195 0.67415 0.62615 0.0
H2777 H 0.86416 0.70416 0.71722 0.0
H2778 H 0.85792 0.71528 0.6946 0.0
H2779 H 0.87734 0.71409 0.68973 0.0
C2780 C 0.83761 0.72354 0.62786 0.0
C2781 C 0.85443 0.7375 0.62301 0.0
C2782 C 0.83525 0.70812 0.63869 0.0
C2783 C 0.84964 0.70634 0.64502 0.0
C2784 C 0.86644 0.72003 0.63945 0.0
H2785 H 0.86159 0.62355 0.71154 0.0
H2786 H 0.86575 0.65077 0.69362 0.0
C2787 C 0.86882 0.73549 0.62863 0.0
C2788 C 0.84698 0.69014 0.65741 0.0
H2789 H 0.85603 0.67458 0.71102 0.0
C2790 C 0.83715 0.67423 0.64474 0.0
C2791 C 0.85376 0.69026 0.68171 0.0
C2792 C 0.86375 0.70683 0.69676 0.0
C2793 C 0.83419 0.65849 0.65548 0.0
C2794 C 0.84097 0.65861 0.67977 0.0
C2795 C 0.85081 0.67451 0.69244 0.0
C2796 C 0.83832 0.64239 0.69208 0.0
C2797 C 0.82417 0.64191 0.64046 0.0
C2798 C 0.82153 0.62879 0.69787 0.0
C2799 C 0.81909 0.61318 0.70817 0.0
C2800 C 0.83342 0.61091 0.71297 0.0
C2801 C 0.85026 0.62482 0.70804 0.0
C2802 C 0.85267 0.64041 0.69777 0.0
H2803 H 0.82359 0.64456 0.62004 0.0
H2804 H 0.83012 0.63354 0.64243 0.0
H2805 H 0.81064 0.63456 0.64771 0.0
H2806 H 0.81028 0.63016 0.69414 0.0
H2807 H 0.80596 0.60276 0.71181 0.0
H2808 H 0.29564 0.10681 0.62806 0.0
H2809 H 0.32294 0.12988 0.64568 0.0
H2810 H 0.30363 0.16575 0.64095 0.0
H2811 H 0.27612 0.14266 0.62357 0.0
H2812 H 0.34746 0.1625 0.6269 0.0
H2813 H 0.31741 0.16873 0.71557 0.0
H2814 H 0.30612 0.15063 0.69413 0.0
H2815 H 0.3079 0.17128 0.68706 0.0
C2816 C 0.29721 0.11964 0.63058 0.0
C2817 C 0.28363 0.12285 0.62454 0.0
C2818 C 0.31284 0.13281 0.64069 0.0
C2819 C 0.31521 0.14945 0.6451 0.0
C2820 C 0.30194 0.1529 0.63822 0.0
H2821 H 0.39869 0.24484 0.70858 0.0
H2822 H 0.37155 0.22174 0.69064 0.0
C2823 C 0.28628 0.13972 0.62809 0.0
C2824 C 0.33151 0.16307 0.65715 0.0
H2825 H 0.34723 0.18919 0.7093 0.0
C2826 C 0.34743 0.1683 0.64495 0.0
C2827 C 0.33144 0.17059 0.68075 0.0
C2828 C 0.31484 0.16495 0.69531 0.0
C2829 C 0.36325 0.1811 0.65546 0.0
C2830 C 0.36319 0.18864 0.67905 0.0
C2831 C 0.34727 0.18339 0.69125 0.0
C2832 C 0.37947 0.20231 0.69107 0.0
C2833 C 0.37986 0.18675 0.64089 0.0
C2834 C 0.3928 0.19895 0.69793 0.0
C2835 C 0.40839 0.21216 0.70824 0.0
C2836 C 0.41088 0.22895 0.712 0.0
C2837 C 0.39725 0.23208 0.7059 0.0
C2838 C 0.3817 0.21888 0.69561 0.0
H2839 H 0.37729 0.18296 0.62063 0.0
H2840 H 0.38857 0.20106 0.64206 0.0
H2841 H 0.3868 0.18042 0.64914 0.0
H2842 H 0.39122 0.18615 0.69512 0.0
H2843 H 0.41859 0.20929 0.71281 0.0
H2844 H 0.87884 0.13725 0.62485 0.0
H2845 H 0.85584 0.14171 0.64257 0.0
H2846 H 0.89169 0.19692 0.64669 0.0
H2847 H 0.91464 0.19263 0.62878 0.0
H2848 H 0.85633 0.15621 0.68983 0.0
H2849 H 0.84932 0.19476 0.61286 0.0
H2850 H 0.8603 0.18247 0.60837 0.0
H2851 H 0.87126 0.20334 0.62374 0.0
C2852 C 0.88176 0.15037 0.62915 0.0
C2853 C 0.89858 0.16458 0.62529 0.0
C2854 C 0.86861 0.15289 0.63937 0.0
C2855 C 0.87198 0.16967 0.64571 0.0
C2856 C 0.88868 0.18389 0.6415 0.0
H2857 H 0.8125 0.21222 0.71643 0.0
H2858 H 0.83555 0.20783 0.69872 0.0
C2859 C 0.90182 0.18139 0.63134 0.0
C2860 C 0.85834 0.17224 0.65798 0.0
H2861 H 0.8352 0.19334 0.65175 0.0
C2862 C 0.85162 0.16423 0.68143 0.0
C2863 C 0.8523 0.18282 0.6471 0.0
C2864 C 0.85853 0.19123 0.62153 0.0
C2865 C 0.83924 0.16674 0.69448 0.0
C2866 C 0.83318 0.1773 0.6836 0.0
C2867 C 0.83991 0.18532 0.66015 0.0
C2868 C 0.81952 0.17985 0.69585 0.0
C2869 C 0.83304 0.15835 0.72008 0.0
C2870 C 0.80286 0.16559 0.70021 0.0
C2871 C 0.7897 0.16804 0.71039 0.0
C2872 C 0.79286 0.18485 0.71628 0.0
C2873 C 0.80964 0.19911 0.71225 0.0
C2874 C 0.82281 0.19662 0.70203 0.0
H2875 H 0.84232 0.15492 0.72879 0.0
H2876 H 0.83118 0.16707 0.7332 0.0
H2877 H 0.82036 0.14618 0.71788 0.0
H2878 H 0.7999 0.15256 0.69513 0.0
H2879 H 0.77692 0.15678 0.71306 0.0
H2880 H 0.0642 0.49022 0.54175 0.0
H2881 H 0.03721 0.48645 0.52363 0.0
H2882 H 0.05715 0.54172 0.52884 0.0
H2883 H 0.08436 0.54567 0.54672 0.0
H2884 H 0.01291 0.49488 0.54223 0.0
H2885 H 0.04373 0.53139 0.45402 0.0
H2886 H 0.05474 0.52429 0.47552 0.0
H2887 H 0.05315 0.54325 0.48271 0.0
C2888 C 0.06284 0.50159 0.53921 0.0
C2889 C 0.07651 0.51827 0.54556 0.0
C2890 C 0.04738 0.4994 0.52882 0.0
C2891 C 0.04528 0.51383 0.52442 0.0
C2892 C 0.05864 0.53044 0.53155 0.0
H2893 H 0.96248 0.52669 0.46028 0.0
H2894 H 0.98957 0.53057 0.47821 0.0
C2895 C 0.07413 0.53266 0.54197 0.0
C2896 C 0.02913 0.51141 0.5122 0.0
H2897 H 0.01392 0.5222 0.45988 0.0
C2898 C 0.01311 0.50081 0.52419 0.0
C2899 C 0.02942 0.51913 0.48862 0.0
C2900 C 0.04615 0.53003 0.4743 0.0
C2901 C 0.99741 0.49797 0.51349 0.0
C2902 C 0.99769 0.50566 0.4899 0.0
C2903 C 0.01371 0.51628 0.47792 0.0
C2904 C 0.98153 0.5032 0.47766 0.0
C2905 C 0.98069 0.48708 0.52785 0.0
C2906 C 0.96816 0.48655 0.47068 0.0
C2907 C 0.95262 0.48427 0.46038 0.0
C2908 C 0.95019 0.49862 0.45674 0.0
C2909 C 0.96388 0.51534 0.46286 0.0
C2910 C 0.97939 0.5176 0.47315 0.0
H2911 H 0.98312 0.48581 0.54815 0.0
H2912 H 0.97207 0.49279 0.52654 0.0
H2913 H 0.97371 0.47383 0.51955 0.0
H2914 H 0.96968 0.47529 0.47346 0.0
H2915 H 0.94237 0.47122 0.4558 0.0
H2916 H 0.4752 0.54189 0.54754 0.0
H2917 H 0.4795 0.5187 0.53019 0.0
H2918 H 0.53469 0.55444 0.52525 0.0
H2919 H 0.53056 0.57757 0.54282 0.0
H2920 H 0.49357 0.51869 0.48296 0.0
H2921 H 0.53276 0.51235 0.55953 0.0
H2922 H 0.5206 0.52347 0.56399 0.0
H2923 H 0.54133 0.5342 0.54822 0.0
C2924 C 0.48828 0.54474 0.54314 0.0
C2925 C 0.50254 0.56159 0.54667 0.0
C2926 C 0.49071 0.53149 0.53314 0.0
C2927 C 0.50744 0.53476 0.52666 0.0
C2928 C 0.52171 0.55149 0.53056 0.0
H2929 H 0.54944 0.47479 0.45604 0.0
H2930 H 0.54513 0.49796 0.47351 0.0
C2931 C 0.5193 0.56474 0.54053 0.0
C2932 C 0.5099 0.52101 0.51456 0.0
H2933 H 0.53108 0.49794 0.5208 0.0
C2934 C 0.50167 0.51406 0.49131 0.0
C2935 C 0.52058 0.51507 0.52538 0.0
C2936 C 0.52921 0.52152 0.55076 0.0
C2937 C 0.50406 0.50156 0.47839 0.0
C2938 C 0.51474 0.49562 0.48921 0.0
C2939 C 0.52297 0.50257 0.51246 0.0
C2940 C 0.5172 0.48187 0.47709 0.0
C2941 C 0.49544 0.49511 0.45301 0.0
C2942 C 0.50294 0.46515 0.4732 0.0
C2943 C 0.50535 0.45192 0.46316 0.0
C2944 C 0.5221 0.45508 0.45693 0.0
C2945 C 0.53635 0.47193 0.46048 0.0
C2946 C 0.53393 0.48517 0.47056 0.0
H2947 H 0.49186 0.50427 0.44425 0.0
H2948 H 0.50405 0.49318 0.43978 0.0
H2949 H 0.48333 0.48242 0.45555 0.0
H2950 H 0.48996 0.46219 0.47854 0.0
H2951 H 0.49409 0.43908 0.46086 0.0
H2952 H 0.58156 0.05979 0.46213 0.0
H2953 H 0.55827 0.03252 0.4795 0.0
H2954 H 0.52345 0.05318 0.47779 0.0
H2955 H 0.54665 0.0805 0.4601 0.0
H2956 H 0.54098 0.02841 0.52499 0.0
H2957 H 0.49447 1.00549 0.4447 0.0
H2958 H 0.51688 0.02243 0.44129 0.0
H2959 H 0.50122 0.02726 0.45495 0.0
C2960 C 0.56889 0.05848 0.4651 0.0
C2961 C 0.56596 0.07234 0.45963 0.0
C2962 C 0.5556 0.04288 0.47512 0.0
C2963 C 0.53907 0.04073 0.47975 0.0
C2964 C 0.536 0.05442 0.47395 0.0
H2965 H 0.44377 0.95845 0.54597 0.0
H2966 H 0.46703 0.98576 0.52866 0.0
C2967 C 0.5493 0.07005 0.4639 0.0
C2968 C 0.52536 0.02448 0.49182 0.0
H2969 H 0.48439 0.98999 0.48333 0.0
C2970 C 0.52863 0.01996 0.51584 0.0
C2971 C 0.50924 0.01349 0.47989 0.0
C2972 C 0.50524 0.01728 0.45369 0.0
C2973 C 0.51613 1.00491 0.52844 0.0
C2974 C 0.50001 0.99392 0.51651 0.0
C2975 C 0.49674 0.99844 0.49248 0.0
C2976 C 0.48631 0.97766 0.52855 0.0
C2977 C 0.52013 1.00114 0.55464 0.0
C2978 C 0.48943 0.96401 0.53443 0.0
C2979 C 0.47615 0.94836 0.54447 0.0
C2980 C 0.45946 0.94601 0.54863 0.0
C2981 C 0.45648 0.95981 0.54309 0.0
C2982 C 0.46975 0.97544 0.5331 0.0
H2983 H 0.53086 0.01295 0.56366 0.0
H2984 H 0.50848 0.99593 0.56702 0.0
H2985 H 0.52423 0.99122 0.55338 0.0
H2986 H 0.50201 0.96529 0.53065 0.0
H2987 H 0.47885 0.93795 0.54831 0.0
H2988 H 0.54999 0.08038 0.95961 0.0
H2989 H 0.54558 0.05304 0.97774 0.0
H2990 H 0.49007 0.03213 0.97624 0.0
H2991 H 0.49431 0.05922 0.95785 0.0
H2992 H 0.52945 0.03795 0.02336 0.0
H2993 H 0.49496 0.99325 0.94358 0.0
H2994 H 0.50673 0.0166 0.93998 0.0
H2995 H 0.48525 1.00582 0.95349 0.0
C2996 C 0.53683 0.06987 0.9628 0.0
C2997 C 0.5225 0.07198 0.95714 0.0
C2998 C 0.53434 0.05428 0.97325 0.0
C2999 C 0.51749 0.04044 0.97808 0.0
C3000 C 0.50318 0.04246 0.97221 0.0
H3001 H 0.47404 0.93771 0.04626 0.0
H3002 H 0.47872 0.96531 0.02882 0.0
C3003 C 0.50564 0.05802 0.96177 0.0
C3004 C 0.51486 0.02421 0.99032 0.0
H3005 H 0.49495 0.98011 0.9828 0.0
C3006 C 0.52201 0.02531 0.01443 0.0
C3007 C 0.50507 1.00771 0.97872 0.0
C3008 C 0.49769 1.00572 0.95242 0.0
C3009 C 0.51936 0.01035 0.02742 0.0
C3010 C 0.50952 0.99385 0.01584 0.0
C3011 C 0.5024 0.99275 0.99173 0.0
C3012 C 0.50678 0.97759 0.0281 0.0
C3013 C 0.5268 0.01231 0.05367 0.0
C3014 C 0.521 0.97534 0.03363 0.0
C3015 C 0.51838 0.95961 0.04364 0.0
C3016 C 0.50146 0.94574 0.04822 0.0
C3017 C 0.48724 0.94814 0.0431 0.0
C3018 C 0.48989 0.96388 0.03304 0.0
H3019 H 0.52977 0.02488 0.06245 0.0
H3020 H 0.51768 1.00153 0.06618 0.0
H3021 H 0.53911 0.01197 0.05254 0.0
H3022 H 0.53414 0.98558 0.02953 0.0
H3023 H 0.52962 0.95819 0.04719 0.0
H3024 H 0.9601 0.43938 0.96325 0.0
H3025 H 0.98737 0.4624 0.981 0.0
H3026 H 0.96832 0.49845 0.97554 0.0
H3027 H 0.94083 0.47539 0.95804 0.0
H3028 H 1.01201 0.49478 0.96203 0.0
H3029 H 0.98204 0.50186 0.0502 0.0
H3030 H 0.97065 0.48366 0.02895 0.0
H3031 H 0.97266 0.50436 0.02152 0.0
C3032 C 0.96171 0.45222 0.96566 0.0
C3033 C 0.94821 0.4555 0.95935 0.0
C3034 C 0.97733 0.46537 0.97584 0.0
C3035 C 0.97977 0.48206 0.98007 0.0
C3036 C 0.96657 0.48557 0.97297 0.0
H3037 H 0.06395 0.57739 0.04288 0.0
H3038 H 0.03665 0.55443 0.02509 0.0
C3039 C 0.95092 0.47241 0.96277 0.0
C3040 C 0.9961 0.49568 0.99206 0.0
H3041 H 1.01194 0.52204 0.04397 0.0
C3042 C 1.01201 0.50071 0.97998 0.0
C3043 C 0.99608 0.50338 0.01552 0.0
C3044 C 0.97948 0.49796 0.02997 0.0
C3045 C 0.02787 0.51344 0.99047 0.0
C3046 C 0.02786 0.52113 0.01394 0.0
C3047 C 1.01194 0.51611 0.02601 0.0
C3048 C 0.04419 0.53472 0.02596 0.0
C3049 C 0.04447 0.51885 0.97601 0.0
C3050 C 0.05736 0.53117 0.03304 0.0
C3051 C 0.07303 0.54429 0.04326 0.0
C3052 C 0.07578 0.5612 0.04672 0.0
C3053 C 0.0623 0.56453 0.04044 0.0
C3054 C 0.04667 0.55142 0.03023 0.0
H3055 H 0.04191 0.51499 0.95578 0.0
H3056 H 0.05332 0.53315 0.97708 0.0
H3057 H 0.05127 0.51243 0.98444 0.0
H3058 H 0.05558 0.51827 0.03043 0.0
H3059 H 0.08309 0.54127 0.04797 0.0
H3060 H 0.58088 0.525 0.9586 0.0
H3061 H 0.55799 0.52943 0.97651 0.0
H3062 H 0.5225 0.47408 0.97497 0.0
H3063 H 0.54543 0.46948 0.95738 0.0
H3064 H 0.52516 0.52084 0.95911 0.0
H3065 H 0.52059 0.48639 0.04896 0.0
H3066 H 0.53825 0.49269 0.02685 0.0
H3067 H 0.51749 0.47367 0.02099 0.0
C3068 C 0.56817 0.51375 0.96188 0.0
C3069 C 0.56503 0.49686 0.95669 0.0
C3070 C 0.5551 0.51632 0.97216 0.0
C3071 C 0.53863 0.50208 0.97758 0.0
C3072 C 0.53523 0.48524 0.9715 0.0
H3073 H 0.44386 0.49086 0.04255 0.0
H3074 H 0.4668 0.48661 0.02439 0.0
C3075 C 0.54831 0.48265 0.96124 0.0
C3076 C 0.52515 0.5049 0.98981 0.0
H3077 H 0.49976 0.49531 0.04269 0.0
C3078 C 0.51964 0.51531 0.97742 0.0
C3079 C 0.518 0.49773 0.01376 0.0
C3080 C 0.52397 0.48713 0.02858 0.0
C3081 C 0.50695 0.51845 0.98807 0.0
C3082 C 0.49977 0.51123 0.01198 0.0
C3083 C 0.50528 0.50084 0.02438 0.0
C3084 C 0.48621 0.51396 0.02415 0.0
C3085 C 0.50102 0.52911 0.97334 0.0
C3086 C 0.48962 0.53072 0.0307 0.0
C3087 C 0.47651 0.53321 0.04115 0.0
C3088 C 0.45976 0.51896 0.04534 0.0
C3089 C 0.45659 0.50214 0.03954 0.0
C3090 C 0.46969 0.49967 0.02913 0.0
H3091 H 0.5046 0.53009 0.95301 0.0
H3092 H 0.48671 0.52342 0.9748 0.0
H3093 H 0.50731 0.54248 0.98124 0.0
H3094 H 0.50238 0.54191 0.02752 0.0
H3095 H 0.47941 0.54632 0.04546 0.0
loop_
_geom_bond_atom_site_label_1
_geom_bond_atom_site_label_2
_geom_bond_distance
_geom_bond_site_symmetry_2
_ccdc_geom_bond_type
O0 Cd1 2.223 . S
O0 C8 1.315 . S
Cd1 O0 2.223 . S
Cd1 O4 2.297 . S
Cd1 O5 2.439 . S
Cd1 O11 2.240 . S
Cd2 O3 2.240 . S
Cd2 O10 2.223 . S
Cd2 O12 2.297 . S
Cd2 O13 2.439 . S
O3 Cd2 2.240 . S
O3 C8 1.279 . S
O4 Cd1 2.297 . S
O4 C6 1.247 . S
O5 Cd1 2.439 . S
O5 C6 1.208 . S
C6 O4 1.247 . S
C6 O5 1.208 . S
C7 O12 1.247 . S
C7 O13 1.208 . S
C8 O0 1.315 . S
C8 O3 1.279 . S
C9 O10 1.315 . S
C9 O11 1.279 . S
O10 Cd2 2.223 . S
O10 C9 1.315 . S
O11 Cd1 2.240 . S
O11 C9 1.279 . S
O12 Cd2 2.297 . S
O12 C7 1.247 . S
O13 Cd2 2.439 . S
O13 C7 1.208 . S
O14 Cd15 2.223 . S
O14 C22 1.315 . S
Cd15 O14 2.223 . S
Cd15 O18 2.297 . S
Cd15 O19 2.439 . S
Cd15 O25 2.240 . S
Cd16 O17 2.240 . S
Cd16 O24 2.223 . S
Cd16 O26 2.297 . S
Cd16 O27 2.439 . S
O17 Cd16 2.240 . S
O17 C22 1.279 . S
O18 Cd15 2.297 . S
O18 C20 1.247 . S
O19 Cd15 2.439 . S
O19 C20 1.208 . S
C20 O18 1.247 . S
C20 O19 1.208 . S
C21 O26 1.247 . S
C21 O27 1.208 . S
C22 O14 1.315 . S
C22 O17 1.279 . S
C23 O24 1.315 . S
C23 O25 1.279 . S
O24 Cd16 2.223 . S
O24 C23 1.315 . S
O25 Cd15 2.240 . S
O25 C23 1.279 . S
O26 Cd16 2.297 . S
O26 C21 1.247 . S
O27 Cd16 2.439 . S
O27 C21 1.208 . S
O28 Cd29 2.223 . S
O28 C36 1.315 . S
Cd29 O28 2.223 . S
Cd29 O32 2.297 . S
Cd29 O33 2.439 . S
Cd29 O39 2.240 . S
Cd30 O31 2.240 . S
Cd30 O38 2.223 . S
Cd30 O40 2.297 . S
Cd30 O41 2.439 . S
O31 Cd30 2.240 . S
O31 C36 1.279 . S
O32 Cd29 2.297 . S
O32 C34 1.247 . S
O33 Cd29 2.439 . S
O33 C34 1.208 . S
C34 O32 1.247 . S
C34 O33 1.208 . S
C35 O40 1.247 . S
C35 O41 1.208 . S
C36 O28 1.315 . S
C36 O31 1.279 . S
C37 O38 1.315 . S
C37 O39 1.279 . S
O38 Cd30 2.223 . S
O38 C37 1.315 . S
O39 Cd29 2.240 . S
O39 C37 1.279 . S
O40 Cd30 2.297 . S
O40 C35 1.247 . S
O41 Cd30 2.439 . S
O41 C35 1.208 . S
O42 Cd43 2.223 . S
O42 C50 1.315 . S
Cd43 O42 2.223 . S
Cd43 O46 2.297 . S
Cd43 O47 2.439 . S
Cd43 O53 2.240 . S
Cd44 O45 2.240 . S
Cd44 O52 2.223 . S
Cd44 O54 2.297 . S
Cd44 O55 2.439 . S
O45 Cd44 2.240 . S
O45 C50 1.279 . S
O46 Cd43 2.297 . S
O46 C48 1.247 . S
O47 Cd43 2.439 . S
O47 C48 1.208 . S
C48 O46 1.247 . S
C48 O47 1.208 . S
C49 O54 1.247 . S
C49 O55 1.208 . S
C50 O42 1.315 . S
C50 O45 1.279 . S
C51 O52 1.315 . S
C51 O53 1.279 . S
O52 Cd44 2.223 . S
O52 C51 1.315 . S
O53 Cd43 2.240 . S
O53 C51 1.279 . S
O54 Cd44 2.297 . S
O54 C49 1.247 . S
O55 Cd44 2.439 . S
O55 C49 1.208 . S
O56 Cd57 2.223 . S
O56 C64 1.315 . S
Cd57 O56 2.223 . S
Cd57 O60 2.297 . S
Cd57 O61 2.439 . S
Cd57 O67 2.240 . S
Cd58 O59 2.240 . S
Cd58 O66 2.223 . S
Cd58 O68 2.297 . S
Cd58 O69 2.439 . S
O59 Cd58 2.240 . S
O59 C64 1.279 . S
O60 Cd57 2.297 . S
O60 C62 1.247 . S
O61 Cd57 2.439 . S
O61 C62 1.208 . S
C62 O60 1.247 . S
C62 O61 1.208 . S
C63 O68 1.247 . S
C63 O69 1.208 . S
C64 O56 1.315 . S
C64 O59 1.279 . S
C65 O66 1.315 . S
C65 O67 1.279 . S
O66 Cd58 2.223 . S
O66 C65 1.315 . S
O67 Cd57 2.240 . S
O67 C65 1.279 . S
O68 Cd58 2.297 . S
O68 C63 1.247 . S
O69 Cd58 2.439 . S
O69 C63 1.208 . S
O70 Cd71 2.223 . S
O70 C78 1.315 . S
Cd71 O70 2.223 . S
Cd71 O74 2.297 . S
Cd71 O75 2.439 . S
Cd71 O81 2.240 . S
Cd72 O73 2.240 . S
Cd72 O80 2.223 . S
Cd72 O82 2.297 . S
Cd72 O83 2.439 . S
O73 Cd72 2.240 . S
O73 C78 1.279 . S
O74 Cd71 2.297 . S
O74 C76 1.247 . S
O75 Cd71 2.439 . S
O75 C76 1.208 . S
C76 O74 1.247 . S
C76 O75 1.208 . S
C77 O82 1.247 . S
C77 O83 1.208 . S
C78 O70 1.315 . S
C78 O73 1.279 . S
C79 O80 1.315 . S
C79 O81 1.279 . S
O80 Cd72 2.223 . S
O80 C79 1.315 . S
O81 Cd71 2.240 . S
O81 C79 1.279 . S
O82 Cd72 2.297 . S
O82 C77 1.247 . S
O83 Cd72 2.439 . S
O83 C77 1.208 . S
O84 Cd85 2.223 . S
O84 C92 1.315 . S
Cd85 O84 2.223 . S
Cd85 O88 2.297 . S
Cd85 O89 2.439 . S
Cd85 O95 2.240 . S
Cd86 O87 2.240 . S
Cd86 O94 2.223 . S
Cd86 O96 2.297 . S
Cd86 O97 2.439 . S
O87 Cd86 2.240 . S
O87 C92 1.279 . S
O88 Cd85 2.297 . S
O88 C90 1.247 . S
O89 Cd85 2.439 . S
O89 C90 1.208 . S
C90 O88 1.247 . S
C90 O89 1.208 . S
C91 O96 1.247 . S
C91 O97 1.208 . S
C92 O84 1.315 . S
C92 O87 1.279 . S
C93 O94 1.315 . S
C93 O95 1.279 . S
O94 Cd86 2.223 . S
O94 C93 1.315 . S
O95 Cd85 2.240 . S
O95 C93 1.279 . S
O96 Cd86 2.297 . S
O96 C91 1.247 . S
O97 Cd86 2.439 . S
O97 C91 1.208 . S
O98 Cd99 2.223 . S
O98 C106 1.315 . S
Cd99 O98 2.223 . S
Cd99 O102 2.297 . S
Cd99 O103 2.439 . S
Cd99 O109 2.240 . S
Cd100 O101 2.240 . S
Cd100 O108 2.223 . S
Cd100 O110 2.297 . S
Cd100 O111 2.439 . S
O101 Cd100 2.240 . S
O101 C106 1.279 . S
O102 Cd99 2.297 . S
O102 C104 1.247 . S
O103 Cd99 2.439 . S
O103 C104 1.208 . S
C104 O102 1.247 . S
C104 O103 1.208 . S
C105 O110 1.247 . S
C105 O111 1.208 . S
C106 O98 1.315 . S
C106 O101 1.279 . S
C107 O108 1.315 . S
C107 O109 1.279 . S
O108 Cd100 2.223 . S
O108 C107 1.315 . S
O109 Cd99 2.240 . S
O109 C107 1.279 . S
O110 Cd100 2.297 . S
O110 C105 1.247 . S
O111 Cd100 2.439 . S
O111 C105 1.208 . S
O112 Cd113 2.223 . S
O112 C120 1.315 . S
Cd113 O112 2.223 . S
Cd113 O116 2.297 . S
Cd113 O117 2.439 . S
Cd113 O123 2.240 . S
Cd114 O115 2.240 . S
Cd114 O122 2.223 . S
Cd114 O124 2.297 . S
Cd114 O125 2.439 . S
O115 Cd114 2.240 . S
O115 C120 1.279 . S
O116 Cd113 2.297 . S
O116 C118 1.247 . S
O117 Cd113 2.439 . S
O117 C118 1.208 . S
C118 O116 1.247 . S
C118 O117 1.208 . S
C119 O124 1.247 . S
C119 O125 1.208 . S
C120 O112 1.315 . S
C120 O115 1.279 . S
C121 O122 1.315 . S
C121 O123 1.279 . S
O122 Cd114 2.223 . S
O122 C121 1.315 . S
O123 Cd113 2.240 . S
O123 C121 1.279 . S
O124 Cd114 2.297 . S
O124 C119 1.247 . S
O125 Cd114 2.439 . S
O125 C119 1.208 . S
O126 Cd127 2.223 . S
O126 C134 1.315 . S
Cd127 O126 2.223 . S
Cd127 O130 2.297 . S
Cd127 O131 2.439 . S
Cd127 O137 2.240 . S
Cd128 O129 2.240 . S
Cd128 O136 2.223 . S
Cd128 O138 2.297 . S
Cd128 O139 2.439 . S
O129 Cd128 2.240 . S
O129 C134 1.279 . S
O130 Cd127 2.297 . S
O130 C132 1.247 . S
O131 Cd127 2.439 . S
O131 C132 1.208 . S
C132 O130 1.247 . S
C132 O131 1.208 . S
C133 O138 1.247 . S
C133 O139 1.208 . S
C134 O126 1.315 . S
C134 O129 1.279 . S
C135 O136 1.315 . S
C135 O137 1.279 . S
O136 Cd128 2.223 . S
O136 C135 1.315 . S
O137 Cd127 2.240 . S
O137 C135 1.279 . S
O138 Cd128 2.297 . S
O138 C133 1.247 . S
O139 Cd128 2.439 . S
O139 C133 1.208 . S
O140 Cd141 2.223 . S
O140 C148 1.315 . S
Cd141 O140 2.223 . S
Cd141 O144 2.297 . S
Cd141 O145 2.439 . S
Cd141 O151 2.240 . S
Cd142 O143 2.240 . S
Cd142 O150 2.223 . S
Cd142 O152 2.297 . S
Cd142 O153 2.439 . S
O143 Cd142 2.240 . S
O143 C148 1.279 . S
O144 Cd141 2.297 . S
O144 C146 1.247 . S
O145 Cd141 2.439 . S
O145 C146 1.208 . S
C146 O144 1.247 . S
C146 O145 1.208 . S
C147 O152 1.247 . S
C147 O153 1.208 . S
C148 O140 1.315 . S
C148 O143 1.279 . S
C149 O150 1.315 . S
C149 O151 1.279 . S
O150 Cd142 2.223 . S
O150 C149 1.315 . S
O151 Cd141 2.240 . S
O151 C149 1.279 . S
O152 Cd142 2.297 . S
O152 C147 1.247 . S
O153 Cd142 2.439 . S
O153 C147 1.208 . S
O154 Cd155 2.223 . S
O154 C162 1.315 . S
Cd155 O154 2.223 . S
Cd155 O158 2.297 . S
Cd155 O159 2.439 . S
Cd155 O165 2.240 . S
Cd156 O157 2.240 . S
Cd156 O164 2.223 . S
Cd156 O166 2.297 . S
Cd156 O167 2.439 . S
O157 Cd156 2.240 . S
O157 C162 1.279 . S
O158 Cd155 2.297 . S
O158 C160 1.247 . S
O159 Cd155 2.439 . S
O159 C160 1.208 . S
C160 O158 1.247 . S
C160 O159 1.208 . S
C161 O166 1.247 . S
C161 O167 1.208 . S
C162 O154 1.315 . S
C162 O157 1.279 . S
C163 O164 1.315 . S
C163 O165 1.279 . S
O164 Cd156 2.223 . S
O164 C163 1.315 . S
O165 Cd155 2.240 . S
O165 C163 1.279 . S
O166 Cd156 2.297 . S
O166 C161 1.247 . S
O167 Cd156 2.439 . S
O167 C161 1.208 . S
O168 Cd169 2.223 . S
O168 C176 1.315 . S
Cd169 O168 2.223 . S
Cd169 O172 2.297 . S
Cd169 O173 2.439 . S
Cd169 O179 2.240 . S
Cd170 O171 2.240 . S
Cd170 O178 2.223 . S
Cd170 O180 2.297 . S
Cd170 O181 2.439 . S
O171 Cd170 2.240 . S
O171 C176 1.279 . S
O172 Cd169 2.297 . S
O172 C174 1.247 . S
O173 Cd169 2.439 . S
O173 C174 1.208 . S
C174 O172 1.247 . S
C174 O173 1.208 . S
C175 O180 1.247 . S
C175 O181 1.208 . S
C176 O168 1.315 . S
C176 O171 1.279 . S
C177 O178 1.315 . S
C177 O179 1.279 . S
O178 Cd170 2.223 . S
O178 C177 1.315 . S
O179 Cd169 2.240 . S
O179 C177 1.279 . S
O180 Cd170 2.297 . S
O180 C175 1.247 . S
O181 Cd170 2.439 . S
O181 C175 1.208 . S
O182 Cd183 2.223 . S
O182 C190 1.315 . S
Cd183 O182 2.223 . S
Cd183 O186 2.297 . S
Cd183 O187 2.439 . S
Cd183 O193 2.240 . S
Cd184 O185 2.240 . S
Cd184 O192 2.223 . S
Cd184 O194 2.297 . S
Cd184 O195 2.439 . S
O185 Cd184 2.240 . S
O185 C190 1.279 . S
O186 Cd183 2.297 . S
O186 C188 1.247 . S
O187 Cd183 2.439 . S
O187 C188 1.208 . S
C188 O186 1.247 . S
C188 O187 1.208 . S
C189 O194 1.247 . S
C189 O195 1.208 . S
C190 O182 1.315 . S
C190 O185 1.279 . S
C191 O192 1.315 . S
C191 O193 1.279 . S
O192 Cd184 2.223 . S
O192 C191 1.315 . S
O193 Cd183 2.240 . S
O193 C191 1.279 . S
O194 Cd184 2.297 . S
O194 C189 1.247 . S
O195 Cd184 2.439 . S
O195 C189 1.208 . S
O196 Cd197 2.223 . S
O196 C204 1.315 . S
Cd197 O196 2.223 . S
Cd197 O200 2.297 . S
Cd197 O201 2.439 . S
Cd197 O207 2.240 . S
Cd198 O199 2.240 . S
Cd198 O206 2.223 . S
Cd198 O208 2.297 . S
Cd198 O209 2.439 . S
O199 Cd198 2.240 . S
O199 C204 1.279 . S
O200 Cd197 2.297 . S
O200 C202 1.247 . S
O201 Cd197 2.439 . S
O201 C202 1.208 . S
C202 O200 1.247 . S
C202 O201 1.208 . S
C203 O208 1.247 . S
C203 O209 1.208 . S
C204 O196 1.315 . S
C204 O199 1.279 . S
C205 O206 1.315 . S
C205 O207 1.279 . S
O206 Cd198 2.223 . S
O206 C205 1.315 . S
O207 Cd197 2.240 . S
O207 C205 1.279 . S
O208 Cd198 2.297 . S
O208 C203 1.247 . S
O209 Cd198 2.439 . S
O209 C203 1.208 . S
O210 Cd211 2.223 . S
O210 C218 1.315 . S
Cd211 O210 2.223 . S
Cd211 O214 2.297 . S
Cd211 O215 2.439 . S
Cd211 O221 2.240 . S
Cd212 O213 2.240 . S
Cd212 O220 2.223 . S
Cd212 O222 2.297 . S
Cd212 O223 2.439 . S
O213 Cd212 2.240 . S
O213 C218 1.279 . S
O214 Cd211 2.297 . S
O214 C216 1.247 . S
O215 Cd211 2.439 . S
O215 C216 1.208 . S
C216 O214 1.247 . S
C216 O215 1.208 . S
C217 O222 1.247 . S
C217 O223 1.208 . S
C218 O210 1.315 . S
C218 O213 1.279 . S
C219 O220 1.315 . S
C219 O221 1.279 . S
O220 Cd212 2.223 . S
O220 C219 1.315 . S
O221 Cd211 2.240 . S
O221 C219 1.279 . S
O222 Cd212 2.297 . S
O222 C217 1.247 . S
O223 Cd212 2.439 . S
O223 C217 1.208 . S
O224 Cd225 2.223 . S
O224 C232 1.315 . S
Cd225 O224 2.223 . S
Cd225 O228 2.297 . S
Cd225 O229 2.439 . S
Cd225 O235 2.240 . S
Cd226 O227 2.240 . S
Cd226 O234 2.223 . S
Cd226 O236 2.297 . S
Cd226 O237 2.439 . S
O227 Cd226 2.240 . S
O227 C232 1.279 . S
O228 Cd225 2.297 . S
O228 C230 1.247 . S
O229 Cd225 2.439 . S
O229 C230 1.208 . S
C230 O228 1.247 . S
C230 O229 1.208 . S
C231 O236 1.247 . S
C231 O237 1.208 . S
C232 O224 1.315 . S
C232 O227 1.279 . S
C233 O234 1.315 . S
C233 O235 1.279 . S
O234 Cd226 2.223 . S
O234 C233 1.315 . S
O235 Cd225 2.240 . S
O235 C233 1.279 . S
O236 Cd226 2.297 . S
O236 C231 1.247 . S
O237 Cd226 2.439 . S
O237 C231 1.208 . S
O238 Cd239 2.223 . S
O238 C246 1.315 . S
Cd239 O238 2.223 . S
Cd239 O242 2.297 . S
Cd239 O243 2.439 . S
Cd239 O249 2.240 . S
Cd240 O241 2.240 . S
Cd240 O248 2.223 . S
Cd240 O250 2.297 . S
Cd240 O251 2.439 . S
O241 Cd240 2.240 . S
O241 C246 1.279 . S
O242 Cd239 2.297 . S
O242 C244 1.247 . S
O243 Cd239 2.439 . S
O243 C244 1.208 . S
C244 O242 1.247 . S
C244 O243 1.208 . S
C245 O250 1.247 . S
C245 O251 1.208 . S
C246 O238 1.315 . S
C246 O241 1.279 . S
C247 O248 1.315 . S
C247 O249 1.279 . S
O248 Cd240 2.223 . S
O248 C247 1.315 . S
O249 Cd239 2.240 . S
O249 C247 1.279 . S
O250 Cd240 2.297 . S
O250 C245 1.247 . S
O251 Cd240 2.439 . S
O251 C245 1.208 . S
O252 Cd253 2.223 . S
O252 C260 1.315 . S
Cd253 O252 2.223 . S
Cd253 O256 2.297 . S
Cd253 O257 2.439 . S
Cd253 O263 2.240 . S
Cd254 O255 2.240 . S
Cd254 O262 2.223 . S
Cd254 O264 2.297 . S
Cd254 O265 2.439 . S
O255 Cd254 2.240 . S
O255 C260 1.279 . S
O256 Cd253 2.297 . S
O256 C258 1.247 . S
O257 Cd253 2.439 . S
O257 C258 1.208 . S
C258 O256 1.247 . S
C258 O257 1.208 . S
C259 O264 1.247 . S
C259 O265 1.208 . S
C260 O252 1.315 . S
C260 O255 1.279 . S
C261 O262 1.315 . S
C261 O263 1.279 . S
O262 Cd254 2.223 . S
O262 C261 1.315 . S
O263 Cd253 2.240 . S
O263 C261 1.279 . S
O264 Cd254 2.297 . S
O264 C259 1.247 . S
O265 Cd254 2.439 . S
O265 C259 1.208 . S
O266 Cd267 2.223 . S
O266 C274 1.315 . S
Cd267 O266 2.223 . S
Cd267 O270 2.297 . S
Cd267 O271 2.439 . S
Cd267 O277 2.240 . S
Cd268 O269 2.240 . S
Cd268 O276 2.223 . S
Cd268 O278 2.297 . S
Cd268 O279 2.439 . S
O269 Cd268 2.240 . S
O269 C274 1.279 . S
O270 Cd267 2.297 . S
O270 C272 1.247 . S
O271 Cd267 2.439 . S
O271 C272 1.208 . S
C272 O270 1.247 . S
C272 O271 1.208 . S
C273 O278 1.247 . S
C273 O279 1.208 . S
C274 O266 1.315 . S
C274 O269 1.279 . S
C275 O276 1.315 . S
C275 O277 1.279 . S
O276 Cd268 2.223 . S
O276 C275 1.315 . S
O277 Cd267 2.240 . S
O277 C275 1.279 . S
O278 Cd268 2.297 . S
O278 C273 1.247 . S
O279 Cd268 2.439 . S
O279 C273 1.208 . S
O280 Cd281 2.223 . S
O280 C288 1.315 . S
Cd281 O280 2.223 . S
Cd281 O284 2.297 . S
Cd281 O285 2.439 . S
Cd281 O291 2.240 . S
Cd282 O283 2.240 . S
Cd282 O290 2.223 . S
Cd282 O292 2.297 . S
Cd282 O293 2.439 . S
O283 Cd282 2.240 . S
O283 C288 1.279 . S
O284 Cd281 2.297 . S
O284 C286 1.247 . S
O285 Cd281 2.439 . S
O285 C286 1.208 . S
C286 O284 1.247 . S
C286 O285 1.208 . S
C287 O292 1.247 . S
C287 O293 1.208 . S
C288 O280 1.315 . S
C288 O283 1.279 . S
C289 O290 1.315 . S
C289 O291 1.279 . S
O290 Cd282 2.223 . S
O290 C289 1.315 . S
O291 Cd281 2.240 . S
O291 C289 1.279 . S
O292 Cd282 2.297 . S
O292 C287 1.247 . S
O293 Cd282 2.439 . S
O293 C287 1.208 . S
O294 Cd295 2.223 . S
O294 C302 1.315 . S
Cd295 O294 2.223 . S
Cd295 O298 2.297 . S
Cd295 O299 2.439 . S
Cd295 O305 2.240 . S
Cd296 O297 2.240 . S
Cd296 O304 2.223 . S
Cd296 O306 2.297 . S
Cd296 O307 2.439 . S
O297 Cd296 2.240 . S
O297 C302 1.279 . S
O298 Cd295 2.297 . S
O298 C300 1.247 . S
O299 Cd295 2.439 . S
O299 C300 1.208 . S
C300 O298 1.247 . S
C300 O299 1.208 . S
C301 O306 1.247 . S
C301 O307 1.208 . S
C302 O294 1.315 . S
C302 O297 1.279 . S
C303 O304 1.315 . S
C303 O305 1.279 . S
O304 Cd296 2.223 . S
O304 C303 1.315 . S
O305 Cd295 2.240 . S
O305 C303 1.279 . S
O306 Cd296 2.297 . S
O306 C301 1.247 . S
O307 Cd296 2.439 . S
O307 C301 1.208 . S
O308 Cd309 2.223 . S
O308 C316 1.315 . S
Cd309 O308 2.223 . S
Cd309 O312 2.297 . S
Cd309 O313 2.439 . S
Cd309 O319 2.240 . S
Cd310 O311 2.240 . S
Cd310 O318 2.223 . S
Cd310 O320 2.297 . S
Cd310 O321 2.439 . S
O311 Cd310 2.240 . S
O311 C316 1.279 . S
O312 Cd309 2.297 . S
O312 C314 1.247 . S
O313 Cd309 2.439 . S
O313 C314 1.208 . S
C314 O312 1.247 . S
C314 O313 1.208 . S
C315 O320 1.247 . S
C315 O321 1.208 . S
C316 O308 1.315 . S
C316 O311 1.279 . S
C317 O318 1.315 . S
C317 O319 1.279 . S
O318 Cd310 2.223 . S
O318 C317 1.315 . S
O319 Cd309 2.240 . S
O319 C317 1.279 . S
O320 Cd310 2.297 . S
O320 C315 1.247 . S
O321 Cd310 2.439 . S
O321 C315 1.208 . S
O322 Cd323 2.223 . S
O322 C330 1.315 . S
Cd323 O322 2.223 . S
Cd323 O326 2.297 . S
Cd323 O327 2.439 . S
Cd323 O333 2.240 . S
Cd324 O325 2.240 . S
Cd324 O332 2.223 . S
Cd324 O334 2.297 . S
Cd324 O335 2.439 . S
O325 Cd324 2.240 . S
O325 C330 1.279 . S
O326 Cd323 2.297 . S
O326 C328 1.247 . S
O327 Cd323 2.439 . S
O327 C328 1.208 . S
C328 O326 1.247 . S
C328 O327 1.208 . S
C329 O334 1.247 . S
C329 O335 1.208 . S
C330 O322 1.315 . S
C330 O325 1.279 . S
C331 O332 1.315 . S
C331 O333 1.279 . S
O332 Cd324 2.223 . S
O332 C331 1.315 . S
O333 Cd323 2.240 . S
O333 C331 1.279 . S
O334 Cd324 2.297 . S
O334 C329 1.247 . S
O335 Cd324 2.439 . S
O335 C329 1.208 . S
O336 Cd337 2.223 . S
O336 C344 1.315 . S
Cd337 O336 2.223 . S
Cd337 O340 2.297 . S
Cd337 O341 2.439 . S
Cd337 O347 2.240 . S
Cd338 O339 2.240 . S
Cd338 O346 2.223 . S
Cd338 O348 2.297 . S
Cd338 O349 2.439 . S
O339 Cd338 2.240 . S
O339 C344 1.279 . S
O340 Cd337 2.297 . S
O340 C342 1.247 . S
O341 Cd337 2.439 . S
O341 C342 1.208 . S
C342 O340 1.247 . S
C342 O341 1.208 . S
C343 O348 1.247 . S
C343 O349 1.208 . S
C344 O336 1.315 . S
C344 O339 1.279 . S
C345 O346 1.315 . S
C345 O347 1.279 . S
O346 Cd338 2.223 . S
O346 C345 1.315 . S
O347 Cd337 2.240 . S
O347 C345 1.279 . S
O348 Cd338 2.297 . S
O348 C343 1.247 . S
O349 Cd338 2.439 . S
O349 C343 1.208 . S
O350 Cd351 2.223 . S
O350 C358 1.315 . S
Cd351 O350 2.223 . S
Cd351 O354 2.297 . S
Cd351 O355 2.439 . S
Cd351 O361 2.240 . S
Cd352 O353 2.240 . S
Cd352 O360 2.223 . S
Cd352 O362 2.297 . S
Cd352 O363 2.439 . S
O353 Cd352 2.240 . S
O353 C358 1.279 . S
O354 Cd351 2.297 . S
O354 C356 1.247 . S
O355 Cd351 2.439 . S
O355 C356 1.208 . S
C356 O354 1.247 . S
C356 O355 1.208 . S
C357 O362 1.247 . S
C357 O363 1.208 . S
C358 O350 1.315 . S
C358 O353 1.279 . S
C359 O360 1.315 . S
C359 O361 1.279 . S
O360 Cd352 2.223 . S
O360 C359 1.315 . S
O361 Cd351 2.240 . S
O361 C359 1.279 . S
O362 Cd352 2.297 . S
O362 C357 1.247 . S
O363 Cd352 2.439 . S
O363 C357 1.208 . S
O364 Cd365 2.223 . S
O364 C372 1.315 . S
Cd365 O364 2.223 . S
Cd365 O368 2.297 . S
Cd365 O369 2.439 . S
Cd365 O375 2.240 . S
Cd366 O367 2.240 . S
Cd366 O374 2.223 . S
Cd366 O376 2.297 . S
Cd366 O377 2.439 . S
O367 Cd366 2.240 . S
O367 C372 1.279 . S
O368 Cd365 2.297 . S
O368 C370 1.247 . S
O369 Cd365 2.439 . S
O369 C370 1.208 . S
C370 O368 1.247 . S
C370 O369 1.208 . S
C371 O376 1.247 . S
C371 O377 1.208 . S
C372 O364 1.315 . S
C372 O367 1.279 . S
C373 O374 1.315 . S
C373 O375 1.279 . S
O374 Cd366 2.223 . S
O374 C373 1.315 . S
O375 Cd365 2.240 . S
O375 C373 1.279 . S
O376 Cd366 2.297 . S
O376 C371 1.247 . S
O377 Cd366 2.439 . S
O377 C371 1.208 . S
O378 Cd379 2.223 . S
O378 C386 1.315 . S
Cd379 O378 2.223 . S
Cd379 O382 2.297 . S
Cd379 O383 2.439 . S
Cd379 O389 2.240 . S
Cd380 O381 2.240 . S
Cd380 O388 2.223 . S
Cd380 O390 2.297 . S
Cd380 O391 2.439 . S
O381 Cd380 2.240 . S
O381 C386 1.279 . S
O382 Cd379 2.297 . S
O382 C384 1.247 . S
O383 Cd379 2.439 . S
O383 C384 1.208 . S
C384 O382 1.247 . S
C384 O383 1.208 . S
C385 O390 1.247 . S
C385 O391 1.208 . S
C386 O378 1.315 . S
C386 O381 1.279 . S
C387 O388 1.315 . S
C387 O389 1.279 . S
O388 Cd380 2.223 . S
O388 C387 1.315 . S
O389 Cd379 2.240 . S
O389 C387 1.279 . S
O390 Cd380 2.297 . S
O390 C385 1.247 . S
O391 Cd380 2.439 . S
O391 C385 1.208 . S
O392 Cd393 2.223 . S
O392 C400 1.315 . S
Cd393 O392 2.223 . S
Cd393 O396 2.297 . S
Cd393 O397 2.439 . S
Cd393 O403 2.240 . S
Cd394 O395 2.240 . S
Cd394 O402 2.223 . S
Cd394 O404 2.297 . S
Cd394 O405 2.439 . S
O395 Cd394 2.240 . S
O395 C400 1.279 . S
O396 Cd393 2.297 . S
O396 C398 1.247 . S
O397 Cd393 2.439 . S
O397 C398 1.208 . S
C398 O396 1.247 . S
C398 O397 1.208 . S
C399 O404 1.247 . S
C399 O405 1.208 . S
C400 O392 1.315 . S
C400 O395 1.279 . S
C401 O402 1.315 . S
C401 O403 1.279 . S
O402 Cd394 2.223 . S
O402 C401 1.315 . S
O403 Cd393 2.240 . S
O403 C401 1.279 . S
O404 Cd394 2.297 . S
O404 C399 1.247 . S
O405 Cd394 2.439 . S
O405 C399 1.208 . S
O406 Cd407 2.223 . S
O406 C414 1.315 . S
Cd407 O406 2.223 . S
Cd407 O410 2.297 . S
Cd407 O411 2.439 . S
Cd407 O417 2.240 . S
Cd408 O409 2.240 . S
Cd408 O416 2.223 . S
Cd408 O418 2.297 . S
Cd408 O419 2.439 . S
O409 Cd408 2.240 . S
O409 C414 1.279 . S
O410 Cd407 2.297 . S
O410 C412 1.247 . S
O411 Cd407 2.439 . S
O411 C412 1.208 . S
C412 O410 1.247 . S
C412 O411 1.208 . S
C413 O418 1.247 . S
C413 O419 1.208 . S
C414 O406 1.315 . S
C414 O409 1.279 . S
C415 O416 1.315 . S
C415 O417 1.279 . S
O416 Cd408 2.223 . S
O416 C415 1.315 . S
O417 Cd407 2.240 . S
O417 C415 1.279 . S
O418 Cd408 2.297 . S
O418 C413 1.247 . S
O419 Cd408 2.439 . S
O419 C413 1.208 . S
O420 Cd421 2.223 . S
O420 C428 1.315 . S
Cd421 O420 2.223 . S
Cd421 O424 2.297 . S
Cd421 O425 2.439 . S
Cd421 O431 2.240 . S
Cd422 O423 2.240 . S
Cd422 O430 2.223 . S
Cd422 O432 2.297 . S
Cd422 O433 2.439 . S
O423 Cd422 2.240 . S
O423 C428 1.279 . S
O424 Cd421 2.297 . S
O424 C426 1.247 . S
O425 Cd421 2.439 . S
O425 C426 1.208 . S
C426 O424 1.247 . S
C426 O425 1.208 . S
C427 O432 1.247 . S
C427 O433 1.208 . S
C428 O420 1.315 . S
C428 O423 1.279 . S
C429 O430 1.315 . S
C429 O431 1.279 . S
O430 Cd422 2.223 . S
O430 C429 1.315 . S
O431 Cd421 2.240 . S
O431 C429 1.279 . S
O432 Cd422 2.297 . S
O432 C427 1.247 . S
O433 Cd422 2.439 . S
O433 C427 1.208 . S
O434 Cd435 2.223 . S
O434 C442 1.315 . S
Cd435 O434 2.223 . S
Cd435 O438 2.297 . S
Cd435 O439 2.439 . S
Cd435 O445 2.240 . S
Cd436 O437 2.240 . S
Cd436 O444 2.223 . S
Cd436 O446 2.297 . S
Cd436 O447 2.439 . S
O437 Cd436 2.240 . S
O437 C442 1.279 . S
O438 Cd435 2.297 . S
O438 C440 1.247 . S
O439 Cd435 2.439 . S
O439 C440 1.208 . S
C440 O438 1.247 . S
C440 O439 1.208 . S
C441 O446 1.247 . S
C441 O447 1.208 . S
C442 O434 1.315 . S
C442 O437 1.279 . S
C443 O444 1.315 . S
C443 O445 1.279 . S
O444 Cd436 2.223 . S
O444 C443 1.315 . S
O445 Cd435 2.240 . S
O445 C443 1.279 . S
O446 Cd436 2.297 . S
O446 C441 1.247 . S
O447 Cd436 2.439 . S
O447 C441 1.208 . S
O448 Cd449 2.223 . S
O448 C456 1.315 . S
Cd449 O448 2.223 . S
Cd449 O452 2.297 . S
Cd449 O453 2.439 . S
Cd449 O459 2.240 . S
Cd450 O451 2.240 . S
Cd450 O458 2.223 . S
Cd450 O460 2.297 . S
Cd450 O461 2.439 . S
O451 Cd450 2.240 . S
O451 C456 1.279 . S
O452 Cd449 2.297 . S
O452 C454 1.247 . S
O453 Cd449 2.439 . S
O453 C454 1.208 . S
C454 O452 1.247 . S
C454 O453 1.208 . S
C455 O460 1.247 . S
C455 O461 1.208 . S
C456 O448 1.315 . S
C456 O451 1.279 . S
C457 O458 1.315 . S
C457 O459 1.279 . S
O458 Cd450 2.223 . S
O458 C457 1.315 . S
O459 Cd449 2.240 . S
O459 C457 1.279 . S
O460 Cd450 2.297 . S
O460 C455 1.247 . S
O461 Cd450 2.439 . S
O461 C455 1.208 . S
O462 Cd463 2.223 . S
O462 C470 1.315 . S
Cd463 O462 2.223 . S
Cd463 O466 2.297 . S
Cd463 O467 2.439 . S
Cd463 O473 2.240 . S
Cd464 O465 2.240 . S
Cd464 O472 2.223 . S
Cd464 O474 2.297 . S
Cd464 O475 2.439 . S
O465 Cd464 2.240 . S
O465 C470 1.279 . S
O466 Cd463 2.297 . S
O466 C468 1.247 . S
O467 Cd463 2.439 . S
O467 C468 1.208 . S
C468 O466 1.247 . S
C468 O467 1.208 . S
C469 O474 1.247 . S
C469 O475 1.208 . S
C470 O462 1.315 . S
C470 O465 1.279 . S
C471 O472 1.315 . S
C471 O473 1.279 . S
O472 Cd464 2.223 . S
O472 C471 1.315 . S
O473 Cd463 2.240 . S
O473 C471 1.279 . S
O474 Cd464 2.297 . S
O474 C469 1.247 . S
O475 Cd464 2.439 . S
O475 C469 1.208 . S
O476 Cd477 2.223 . S
O476 C484 1.315 . S
Cd477 O476 2.223 . S
Cd477 O480 2.297 . S
Cd477 O481 2.439 . S
Cd477 O487 2.240 . S
Cd478 O479 2.240 . S
Cd478 O486 2.223 . S
Cd478 O488 2.297 . S
Cd478 O489 2.439 . S
O479 Cd478 2.240 . S
O479 C484 1.279 . S
O480 Cd477 2.297 . S
O480 C482 1.247 . S
O481 Cd477 2.439 . S
O481 C482 1.208 . S
C482 O480 1.247 . S
C482 O481 1.208 . S
C483 O488 1.247 . S
C483 O489 1.208 . S
C484 O476 1.315 . S
C484 O479 1.279 . S
C485 O486 1.315 . S
C485 O487 1.279 . S
O486 Cd478 2.223 . S
O486 C485 1.315 . S
O487 Cd477 2.240 . S
O487 C485 1.279 . S
O488 Cd478 2.297 . S
O488 C483 1.247 . S
O489 Cd478 2.439 . S
O489 C483 1.208 . S
O490 Cd491 2.223 . S
O490 C498 1.315 . S
Cd491 O490 2.223 . S
Cd491 O494 2.297 . S
Cd491 O495 2.439 . S
Cd491 O501 2.240 . S
Cd492 O493 2.240 . S
Cd492 O500 2.223 . S
Cd492 O502 2.297 . S
Cd492 O503 2.439 . S
O493 Cd492 2.240 . S
O493 C498 1.279 . S
O494 Cd491 2.297 . S
O494 C496 1.247 . S
O495 Cd491 2.439 . S
O495 C496 1.208 . S
C496 O494 1.247 . S
C496 O495 1.208 . S
C497 O502 1.247 . S
C497 O503 1.208 . S
C498 O490 1.315 . S
C498 O493 1.279 . S
C499 O500 1.315 . S
C499 O501 1.279 . S
O500 Cd492 2.223 . S
O500 C499 1.315 . S
O501 Cd491 2.240 . S
O501 C499 1.279 . S
O502 Cd492 2.297 . S
O502 C497 1.247 . S
O503 Cd492 2.439 . S
O503 C497 1.208 . S
H504 C512 0.929 . S
H505 C514 0.930 . S
H506 C516 0.930 . S
H507 C519 0.929 . S
H508 C522 0.930 . S
H509 C524 0.960 . S
H510 C524 0.960 . S
H511 C524 0.960 . S
C512 H504 0.929 . S
C512 C513 1.377 . S
C512 C514 1.384 . S
C513 C512 1.377 . S
C513 C519 1.390 . S
C514 H505 0.930 . S
C514 C512 1.384 . S
C514 C515 1.372 . S
C515 C514 1.372 . S
C515 C516 1.400 . S
C515 C520 1.490 . S
C516 H506 0.930 . S
C516 C515 1.400 . S
C516 C519 1.386 . S
H517 C533 0.930 . S
H518 C534 0.931 . S
C519 H507 0.929 . S
C519 C513 1.390 . S
C519 C516 1.386 . S
C520 C515 1.490 . S
C520 C522 1.395 1_554 S
C520 C523 1.403 . S
H521 C527 0.930 1_565 S
C522 H508 0.930 . S
C522 C520 1.395 1_556 S
C522 C525 1.403 . S
C523 C520 1.403 . S
C523 C524 1.524 . S
C523 C527 1.400 . S
C524 H509 0.960 . S
C524 H510 0.960 . S
C524 H511 0.960 . S
C524 C523 1.524 . S
C525 C522 1.403 . S
C525 C526 1.392 . S
C525 C529 1.495 . S
C526 C525 1.392 . S
C526 C527 1.385 1_556 S
C526 C528 1.478 1_545 S
C527 H521 0.930 1_545 S
C527 C523 1.400 . S
C527 C526 1.385 1_554 S
C528 C526 1.478 1_565 S
C528 C530 1.381 . S
C528 C534 1.383 . S
C529 C525 1.495 . S
C529 H535 0.959 . S
C529 H536 0.961 . S
C529 H537 0.960 . S
C530 C528 1.381 . S
C530 C531 1.394 . S
C530 H538 0.930 . S
C531 C530 1.394 . S
C531 C532 1.383 . S
C531 H539 0.929 . S
C532 C531 1.383 . S
C532 C533 1.377 . S
C533 H517 0.930 . S
C533 C532 1.377 . S
C533 C534 1.379 . S
C534 H518 0.931 . S
C534 C528 1.383 . S
C534 C533 1.379 . S
H535 C529 0.959 . S
H536 C529 0.961 . S
H537 C529 0.960 . S
H538 C530 0.930 . S
H539 C531 0.929 . S
H540 C548 0.929 . S
H541 C550 0.930 . S
H542 C552 0.930 . S
H543 C555 0.929 . S
H544 C558 0.930 . S
H545 C560 0.975 . S
H546 C560 0.960 . S
H547 C560 0.960 . S
C548 H540 0.929 . S
C548 C549 1.377 . S
C548 C550 1.384 . S
C549 C548 1.377 . S
C549 C555 1.390 . S
C550 H541 0.930 . S
C550 C548 1.384 . S
C550 C551 1.372 . S
C551 C550 1.372 . S
C551 C552 1.400 . S
C551 C556 1.490 . S
C552 H542 0.930 . S
C552 C551 1.400 . S
C552 C555 1.386 . S
H553 C569 0.930 . S
H554 C570 0.931 . S
C555 H543 0.929 . S
C555 C549 1.390 . S
C555 C552 1.386 . S
C556 C551 1.490 . S
C556 C558 1.395 1_554 S
C556 C559 1.403 . S
H557 C563 0.923 1_454 S
C558 H544 0.930 . S
C558 C556 1.395 1_556 S
C558 C561 1.403 . S
C559 C556 1.403 . S
C559 C560 1.524 . S
C559 C563 1.380 1_554 S
C560 H545 0.975 . S
C560 H546 0.960 . S
C560 H547 0.960 . S
C560 C559 1.524 . S
C561 C558 1.403 . S
C561 C562 1.392 . S
C561 C565 1.495 . S
C562 C561 1.392 . S
C562 C563 1.413 . S
C562 C564 1.478 1_655 S
C563 H557 0.923 1_656 S
C563 C559 1.380 1_556 S
C563 C562 1.413 . S
C564 C562 1.478 1_455 S
C564 C566 1.381 . S
C564 C570 1.383 . S
C565 C561 1.495 . S
C565 H571 0.959 . S
C565 H572 0.961 . S
C565 H573 0.960 . S
C566 C564 1.381 . S
C566 C567 1.394 . S
C566 H574 0.930 . S
C567 C566 1.394 . S
C567 C568 1.383 . S
C567 H575 0.929 . S
C568 C567 1.383 . S
C568 C569 1.377 . S
C569 H553 0.930 . S
C569 C568 1.377 . S
C569 C570 1.379 . S
C570 H554 0.931 . S
C570 C564 1.383 . S
C570 C569 1.379 . S
H571 C565 0.959 . S
H572 C565 0.961 . S
H573 C565 0.960 . S
H574 C566 0.930 . S
H575 C567 0.929 . S
H576 C584 0.929 . S
H577 C586 0.930 . S
H578 C588 0.930 . S
H579 C591 0.929 . S
H580 C594 0.930 . S
H581 C596 0.960 . S
H582 C596 0.960 . S
H583 C596 0.960 . S
C584 H576 0.929 . S
C584 C585 1.377 . S
C584 C586 1.384 . S
C585 C584 1.377 . S
C585 C591 1.390 . S
C586 H577 0.930 . S
C586 C584 1.384 . S
C586 C587 1.372 . S
C587 C586 1.372 . S
C587 C588 1.400 . S
C587 C592 1.490 . S
C588 H578 0.930 . S
C588 C587 1.400 . S
C588 C591 1.386 . S
H589 C605 0.930 . S
H590 C606 0.931 . S
C591 H579 0.929 . S
C591 C585 1.390 . S
C591 C588 1.386 . S
C592 C587 1.490 . S
C592 C594 1.395 . S
C592 C595 1.403 . S
H593 C599 0.930 . S
C594 H580 0.930 . S
C594 C592 1.395 . S
C594 C597 1.403 1_556 S
C595 C592 1.403 . S
C595 C596 1.524 . S
C595 C599 1.400 . S
C596 H581 0.960 . S
C596 H582 0.960 . S
C596 H583 0.960 . S
C596 C595 1.524 . S
C597 C594 1.403 1_554 S
C597 C598 1.392 . S
C597 C601 1.495 . S
C598 C597 1.392 . S
C598 C599 1.385 1_554 S
C598 C600 1.478 . S
C599 H593 0.930 . S
C599 C595 1.400 . S
C599 C598 1.385 1_556 S
C600 C598 1.478 . S
C600 C602 1.381 . S
C600 C606 1.383 . S
C601 C597 1.495 . S
C601 H607 0.959 . S
C601 H608 0.961 . S
C601 H609 0.960 . S
C602 C600 1.381 . S
C602 C603 1.394 . S
C602 H610 0.930 . S
C603 C602 1.394 . S
C603 C604 1.383 . S
C603 H611 0.929 . S
C604 C603 1.383 . S
C604 C605 1.377 . S
C605 H589 0.930 . S
C605 C604 1.377 . S
C605 C606 1.379 . S
C606 H590 0.931 . S
C606 C600 1.383 . S
C606 C605 1.379 . S
H607 C601 0.959 . S
H608 C601 0.961 . S
H609 C601 0.960 . S
H610 C602 0.930 . S
H611 C603 0.929 . S
H612 C620 0.929 . S
H613 C622 0.930 . S
H614 C624 0.930 . S
H615 C627 0.929 . S
H616 C630 0.930 . S
H617 C632 0.960 . S
H618 C632 0.960 . S
H619 C632 0.960 . S
C620 H612 0.929 . S
C620 C621 1.377 . S
C620 C622 1.384 . S
C621 C620 1.377 . S
C621 C627 1.390 . S
C622 H613 0.930 . S
C622 C620 1.384 . S
C622 C623 1.372 . S
C623 C622 1.372 . S
C623 C624 1.400 . S
C623 C628 1.490 1_655 S
C624 H614 0.930 . S
C624 C623 1.400 . S
C624 C627 1.386 . S
H625 C641 0.930 . S
H626 C642 0.931 . S
C627 H615 0.929 . S
C627 C621 1.390 . S
C627 C624 1.386 . S
C628 C623 1.490 1_455 S
C628 C630 1.395 . S
C628 C631 1.403 . S
H629 C635 0.930 . S
C630 H616 0.930 . S
C630 C628 1.395 . S
C630 C633 1.403 . S
C631 C628 1.403 . S
C631 C632 1.524 1_455 S
C631 C635 1.400 . S
C632 H617 0.960 . S
C632 H618 0.960 . S
C632 H619 0.960 . S
C632 C631 1.524 1_655 S
C633 C630 1.403 . S
C633 C634 1.392 . S
C633 C637 1.495 . S
C634 C633 1.392 . S
C634 C635 1.385 . S
C634 C636 1.478 . S
C635 H629 0.930 . S
C635 C631 1.400 . S
C635 C634 1.385 . S
C636 C634 1.478 . S
C636 C638 1.381 . S
C636 C642 1.383 . S
C637 C633 1.495 . S
C637 H643 0.959 . S
C637 H644 0.961 . S
C637 H645 0.960 . S
C638 C636 1.381 . S
C638 C639 1.394 . S
C638 H646 0.930 . S
C639 C638 1.394 . S
C639 C640 1.383 . S
C639 H647 0.929 . S
C640 C639 1.383 . S
C640 C641 1.377 . S
C641 H625 0.930 . S
C641 C640 1.377 . S
C641 C642 1.379 . S
C642 H626 0.931 . S
C642 C636 1.383 . S
C642 C641 1.379 . S
H643 C637 0.959 . S
H644 C637 0.961 . S
H645 C637 0.960 . S
H646 C638 0.930 . S
H647 C639 0.929 . S
H648 C656 0.929 . S
H649 C658 0.930 . S
H650 C660 0.930 . S
H651 C663 0.929 . S
H652 C666 0.930 . S
H653 C668 0.960 . S
H654 C668 0.960 . S
H655 C668 0.960 . S
C656 H648 0.929 . S
C656 C657 1.377 . S
C656 C658 1.384 . S
C657 C656 1.377 . S
C657 C663 1.390 . S
C658 H649 0.930 . S
C658 C656 1.384 . S
C658 C659 1.372 . S
C659 C658 1.372 . S
C659 C660 1.400 . S
C659 C664 1.490 . S
C660 H650 0.930 . S
C660 C659 1.400 . S
C660 C663 1.386 . S
H661 C677 0.930 . S
H662 C678 0.931 . S
C663 H651 0.929 . S
C663 C657 1.390 . S
C663 C660 1.386 . S
C664 C659 1.490 . S
C664 C666 1.395 . S
C664 C667 1.403 . S
H665 C671 0.930 . S
C666 H652 0.930 . S
C666 C664 1.395 . S
C666 C669 1.403 . S
C667 C664 1.403 . S
C667 C668 1.524 . S
C667 C671 1.400 . S
C668 H653 0.960 . S
C668 H654 0.960 . S
C668 H655 0.960 . S
C668 C667 1.524 . S
C669 C666 1.403 . S
C669 C670 1.392 . S
C669 C673 1.495 . S
C670 C669 1.392 . S
C670 C671 1.385 . S
C670 C672 1.478 . S
C671 H665 0.930 . S
C671 C667 1.400 . S
C671 C670 1.385 . S
C672 C670 1.478 . S
C672 C674 1.381 . S
C672 C678 1.383 . S
C673 C669 1.495 . S
C673 H679 0.959 . S
C673 H680 0.961 . S
C673 H681 0.960 . S
C674 C672 1.381 . S
C674 C675 1.394 . S
C674 H682 0.930 . S
C675 C674 1.394 . S
C675 C676 1.383 . S
C675 H683 0.929 . S
C676 C675 1.383 . S
C676 C677 1.377 . S
C677 H661 0.930 . S
C677 C676 1.377 . S
C677 C678 1.379 . S
C678 H662 0.931 . S
C678 C672 1.383 . S
C678 C677 1.379 . S
H679 C673 0.959 . S
H680 C673 0.961 . S
H681 C673 0.960 . S
H682 C674 0.930 . S
H683 C675 0.929 . S
H684 C692 0.929 . S
H685 C694 0.930 . S
H686 C696 0.930 . S
H687 C699 0.929 . S
H688 C702 0.930 . S
H689 C704 0.960 . S
H690 C704 0.960 . S
H691 C704 0.960 . S
C692 H684 0.929 . S
C692 C693 1.377 . S
C692 C694 1.384 . S
C693 C692 1.377 . S
C693 C699 1.390 . S
C694 H685 0.930 . S
C694 C692 1.384 . S
C694 C695 1.372 . S
C695 C694 1.372 . S
C695 C696 1.400 . S
C695 C700 1.490 . S
C696 H686 0.930 . S
C696 C695 1.400 . S
C696 C699 1.386 . S
H697 C713 0.930 . S
H698 C714 0.931 . S
C699 H687 0.929 . S
C699 C693 1.390 . S
C699 C696 1.386 . S
C700 C695 1.490 . S
C700 C702 1.395 . S
C700 C703 1.403 . S
H701 C707 0.930 . S
C702 H688 0.930 . S
C702 C700 1.395 . S
C702 C705 1.445 . S
C703 C700 1.403 . S
C703 C704 1.524 . S
C703 C707 1.400 . S
C704 H689 0.960 . S
C704 H690 0.960 . S
C704 H691 0.960 . S
C704 C703 1.524 . S
C705 C702 1.445 . S
C705 C706 1.394 . S
C705 C709 1.460 1_565 S
C706 C705 1.394 . S
C706 C707 1.435 . S
C706 C708 1.426 1_565 S
C707 H701 0.930 . S
C707 C703 1.400 . S
C707 C706 1.435 . S
C708 C706 1.426 1_545 S
C708 C710 1.381 . S
C708 C714 1.383 . S
C709 C705 1.460 1_545 S
C709 H715 0.959 . S
C709 H716 0.961 . S
C709 H717 0.960 . S
C710 C708 1.381 . S
C710 C711 1.394 . S
C710 H718 0.930 . S
C711 C710 1.394 . S
C711 C712 1.383 . S
C711 H719 0.929 . S
C712 C711 1.383 . S
C712 C713 1.377 . S
C713 H697 0.930 . S
C713 C712 1.377 . S
C713 C714 1.379 . S
C714 H698 0.931 . S
C714 C708 1.383 . S
C714 C713 1.379 . S
H715 C709 0.959 . S
H716 C709 0.961 . S
H717 C709 0.960 . S
H718 C710 0.930 . S
H719 C711 0.929 . S
H720 C728 0.929 . S
H721 C730 0.933 1_565 S
H722 C732 0.930 . S
H723 C735 0.929 . S
H724 C738 0.930 . S
H725 C740 0.933 1_565 S
H726 C740 0.956 . S
H727 C740 0.991 . S
C728 H720 0.929 . S
C728 C729 1.377 . S
C728 C730 1.384 . S
C729 C728 1.377 . S
C729 C735 1.390 . S
C730 H721 0.933 1_545 S
C730 C728 1.384 . S
C730 C731 1.372 . S
C731 C730 1.372 . S
C731 C732 1.400 . S
C731 C736 1.490 1_545 S
C732 H722 0.930 . S
C732 C731 1.400 . S
C732 C735 1.386 . S
H733 C749 0.930 . S
H734 C750 0.931 . S
C735 H723 0.929 . S
C735 C729 1.390 . S
C735 C732 1.386 . S
C736 C731 1.490 1_565 S
C736 C738 1.395 . S
C736 C739 1.403 . S
H737 C743 0.930 . S
C738 H724 0.930 . S
C738 C736 1.395 . S
C738 C741 1.404 . S
C739 C736 1.403 . S
C739 C740 1.525 1_565 S
C739 C743 1.400 1_554 S
C740 H725 0.933 1_545 S
C740 H726 0.956 . S
C740 H727 0.991 . S
C740 C739 1.525 1_545 S
C741 C738 1.404 . S
C741 C742 1.392 1_554 S
C741 C745 1.495 1_554 S
C742 C741 1.392 1_556 S
C742 C743 1.385 . S
C742 C744 1.478 . S
C743 H737 0.930 . S
C743 C739 1.400 1_556 S
C743 C742 1.385 . S
C744 C742 1.478 . S
C744 C746 1.381 . S
C744 C750 1.383 . S
C745 C741 1.495 1_556 S
C745 H751 0.959 1_556 S
C745 H752 0.961 . S
C745 H753 0.950 1_556 S
C746 C744 1.381 . S
C746 C747 1.394 . S
C746 H754 0.930 . S
C747 C746 1.394 . S
C747 C748 1.383 . S
C747 H755 0.929 . S
C748 C747 1.383 . S
C748 C749 1.377 . S
C749 H733 0.930 . S
C749 C748 1.377 . S
C749 C750 1.379 . S
C750 H734 0.931 . S
C750 C744 1.383 . S
C750 C749 1.379 . S
H751 C745 0.959 1_554 S
H752 C745 0.961 . S
H753 C745 0.950 1_554 S
H754 C746 0.930 . S
H755 C747 0.929 . S
H756 C764 0.929 . S
H757 C766 0.930 . S
H758 C768 0.930 . S
H759 C771 0.929 . S
H760 C774 0.930 1_655 S
H761 C776 0.960 . S
H762 C776 0.960 . S
H763 C776 0.960 . S
C764 H756 0.929 . S
C764 C765 1.377 . S
C764 C766 1.384 . S
C765 C764 1.377 . S
C765 C771 1.390 . S
C766 H757 0.930 . S
C766 C764 1.384 . S
C766 C767 1.372 . S
C767 C766 1.372 . S
C767 C768 1.400 . S
C767 C772 1.490 1_655 S
C768 H758 0.930 . S
C768 C767 1.400 . S
C768 C771 1.386 . S
H769 C785 0.930 . S
H770 C786 0.931 . S
C771 H759 0.929 . S
C771 C765 1.390 . S
C771 C768 1.386 . S
C772 C767 1.490 1_455 S
C772 C774 1.395 1_554 S
C772 C775 1.403 . S
H773 C779 0.930 . S
C774 H760 0.930 1_455 S
C774 C772 1.395 1_556 S
C774 C777 1.403 . S
C775 C772 1.403 . S
C775 C776 1.524 . S
C775 C779 1.400 . S
C776 H761 0.960 . S
C776 H762 0.960 . S
C776 H763 0.960 . S
C776 C775 1.524 . S
C777 C774 1.403 . S
C777 C778 1.392 . S
C777 C781 1.495 . S
C778 C777 1.392 . S
C778 C779 1.385 1_556 S
C778 C780 1.478 . S
C779 H773 0.930 . S
C779 C775 1.400 . S
C779 C778 1.385 1_554 S
C780 C778 1.478 . S
C780 C782 1.381 . S
C780 C786 1.383 . S
C781 C777 1.495 . S
C781 H787 0.966 . S
C781 H788 0.961 . S
C781 H789 0.960 . S
C782 C780 1.381 . S
C782 C783 1.394 . S
C782 H790 0.930 . S
C783 C782 1.394 . S
C783 C784 1.383 . S
C783 H791 0.929 . S
C784 C783 1.383 . S
C784 C785 1.377 . S
C785 H769 0.930 . S
C785 C784 1.377 . S
C785 C786 1.379 . S
C786 H770 0.931 . S
C786 C780 1.383 . S
C786 C785 1.379 . S
H787 C781 0.966 . S
H788 C781 0.961 . S
H789 C781 0.960 . S
H790 C782 0.930 . S
H791 C783 0.929 . S
H792 C800 0.929 . S
H793 C802 0.930 . S
H794 C804 0.930 . S
H795 C807 0.929 . S
H796 C810 0.925 1_556 S
H797 C812 0.960 . S
H798 C812 0.960 . S
H799 C812 0.960 . S
C800 H792 0.929 . S
C800 C801 1.377 . S
C800 C802 1.384 . S
C801 C800 1.377 . S
C801 C807 1.390 . S
C802 H793 0.930 . S
C802 C800 1.384 . S
C802 C803 1.372 . S
C803 C802 1.372 . S
C803 C804 1.400 . S
C803 C808 1.490 . S
C804 H794 0.930 . S
C804 C803 1.400 . S
C804 C807 1.386 . S
H805 C821 0.930 . S
H806 C822 0.931 . S
C807 H795 0.929 . S
C807 C801 1.390 . S
C807 C804 1.386 . S
C808 C803 1.490 . S
C808 C810 1.374 1_556 S
C808 C811 1.403 . S
H809 C815 0.930 . S
C810 H796 0.925 1_554 S
C810 C808 1.374 1_554 S
C810 C813 1.432 . S
C811 C808 1.403 . S
C811 C812 1.524 . S
C811 C815 1.400 1_556 S
C812 H797 0.960 . S
C812 H798 0.960 . S
C812 H799 0.960 . S
C812 C811 1.524 . S
C813 C810 1.432 . S
C813 C814 1.392 . S
C813 C817 1.495 . S
C814 C813 1.392 . S
C814 C815 1.385 . S
C814 C816 1.478 . S
C815 H809 0.930 . S
C815 C811 1.400 1_554 S
C815 C814 1.385 . S
C816 C814 1.478 . S
C816 C818 1.381 . S
C816 C822 1.383 . S
C817 C813 1.495 . S
C817 H823 0.959 . S
C817 H824 0.961 . S
C817 H825 0.960 . S
C818 C816 1.381 . S
C818 C819 1.394 . S
C818 H826 0.930 . S
C819 C818 1.394 . S
C819 C820 1.383 . S
C819 H827 0.929 . S
C820 C819 1.383 . S
C820 C821 1.377 . S
C821 H805 0.930 . S
C821 C820 1.377 . S
C821 C822 1.379 . S
C822 H806 0.931 . S
C822 C816 1.383 . S
C822 C821 1.379 . S
H823 C817 0.959 . S
H824 C817 0.961 . S
H825 C817 0.960 . S
H826 C818 0.930 . S
H827 C819 0.929 . S
H828 C836 0.929 . S
H829 C838 0.930 . S
H830 C840 0.930 . S
H831 C843 0.929 . S
H832 C846 0.930 . S
H833 C848 0.960 . S
H834 C848 0.960 . S
H835 C848 0.960 . S
C836 H828 0.929 . S
C836 C837 1.377 . S
C836 C838 1.384 . S
C837 C836 1.377 . S
C837 C843 1.390 . S
C838 H829 0.930 . S
C838 C836 1.384 . S
C838 C839 1.372 . S
C839 C838 1.372 . S
C839 C840 1.400 . S
C839 C844 1.490 . S
C840 H830 0.930 . S
C840 C839 1.400 . S
C840 C843 1.386 . S
H841 C857 0.930 . S
H842 C858 0.931 . S
C843 H831 0.929 . S
C843 C837 1.390 . S
C843 C840 1.386 . S
C844 C839 1.490 . S
C844 C846 1.395 . S
C844 C847 1.403 . S
H845 C851 0.930 1_455 S
C846 H832 0.930 . S
C846 C844 1.395 . S
C846 C849 1.403 . S
C847 C844 1.403 . S
C847 C848 1.524 . S
C847 C851 1.400 . S
C848 H833 0.960 . S
C848 H834 0.960 . S
C848 H835 0.960 . S
C848 C847 1.524 . S
C849 C846 1.403 . S
C849 C850 1.392 . S
C849 C853 1.495 . S
C850 C849 1.392 . S
C850 C851 1.385 . S
C850 C852 1.478 1_655 S
C851 H845 0.930 1_655 S
C851 C847 1.400 . S
C851 C850 1.385 . S
C852 C850 1.478 1_455 S
C852 C854 1.381 . S
C852 C858 1.383 . S
C853 C849 1.495 . S
C853 H859 0.959 . S
C853 H860 0.961 . S
C853 H861 0.960 . S
C854 C852 1.381 . S
C854 C855 1.394 . S
C854 H862 0.933 . S
C855 C854 1.394 . S
C855 C856 1.383 . S
C855 H863 0.929 . S
C856 C855 1.383 . S
C856 C857 1.377 . S
C857 H841 0.930 . S
C857 C856 1.377 . S
C857 C858 1.379 . S
C858 H842 0.931 . S
C858 C852 1.383 . S
C858 C857 1.379 . S
H859 C853 0.959 . S
H860 C853 0.961 . S
H861 C853 0.960 . S
H862 C854 0.933 . S
H863 C855 0.929 . S
H864 C872 0.929 . S
H865 C874 0.930 . S
H866 C876 0.930 . S
H867 C879 0.929 . S
H868 C882 0.930 . S
H869 C884 0.960 . S
H870 C884 0.960 . S
H871 C884 0.960 . S
C872 H864 0.929 . S
C872 C873 1.377 . S
C872 C874 1.384 . S
C873 C872 1.377 . S
C873 C879 1.390 . S
C874 H865 0.930 . S
C874 C872 1.384 . S
C874 C875 1.372 . S
C875 C874 1.372 . S
C875 C876 1.400 . S
C875 C880 1.490 . S
C876 H866 0.930 . S
C876 C875 1.400 . S
C876 C879 1.386 . S
H877 C893 0.930 . S
H878 C894 0.931 . S
C879 H867 0.929 . S
C879 C873 1.390 . S
C879 C876 1.386 . S
C880 C875 1.490 . S
C880 C882 1.395 . S
C880 C883 1.403 . S
H881 C887 0.930 . S
C882 H868 0.930 . S
C882 C880 1.395 . S
C882 C885 1.403 . S
C883 C880 1.403 . S
C883 C884 1.524 . S
C883 C887 1.400 . S
C884 H869 0.960 . S
C884 H870 0.960 . S
C884 H871 0.960 . S
C884 C883 1.524 . S
C885 C882 1.403 . S
C885 C886 1.392 . S
C885 C889 1.495 . S
C886 C885 1.392 . S
C886 C887 1.385 . S
C886 C888 1.478 . S
C887 H881 0.930 . S
C887 C883 1.400 . S
C887 C886 1.385 . S
C888 C886 1.478 . S
C888 C890 1.381 . S
C888 C894 1.383 . S
C889 C885 1.495 . S
C889 H895 0.959 . S
C889 H896 0.961 . S
C889 H897 0.960 . S
C890 C888 1.381 . S
C890 C891 1.394 . S
C890 H898 0.930 . S
C891 C890 1.394 . S
C891 C892 1.383 . S
C891 H899 0.929 . S
C892 C891 1.383 . S
C892 C893 1.377 . S
C893 H877 0.930 . S
C893 C892 1.377 . S
C893 C894 1.379 . S
C894 H878 0.931 . S
C894 C888 1.383 . S
C894 C893 1.379 . S
H895 C889 0.959 . S
H896 C889 0.961 . S
H897 C889 0.960 . S
H898 C890 0.930 . S
H899 C891 0.929 . S
H900 C908 0.929 . S
H901 C910 0.930 . S
H902 C912 0.930 . S
H903 C915 0.929 . S
H904 C918 0.930 . S
H905 C920 0.960 . S
H906 C920 0.960 . S
H907 C920 0.960 . S
C908 H900 0.929 . S
C908 C909 1.377 . S
C908 C910 1.384 . S
C909 C908 1.377 . S
C909 C915 1.390 . S
C910 H901 0.930 . S
C910 C908 1.384 . S
C910 C911 1.372 . S
C911 C910 1.372 . S
C911 C912 1.400 . S
C911 C916 1.490 . S
C912 H902 0.930 . S
C912 C911 1.400 . S
C912 C915 1.386 . S
H913 C929 0.930 . S
H914 C930 0.931 . S
C915 H903 0.929 . S
C915 C909 1.390 . S
C915 C912 1.386 . S
C916 C911 1.490 . S
C916 C918 1.395 . S
C916 C919 1.403 . S
H917 C923 0.930 . S
C918 H904 0.930 . S
C918 C916 1.395 . S
C918 C921 1.403 . S
C919 C916 1.403 . S
C919 C920 1.524 . S
C919 C923 1.400 . S
C920 H905 0.960 . S
C920 H906 0.960 . S
C920 H907 0.960 . S
C920 C919 1.524 . S
C921 C918 1.403 . S
C921 C922 1.410 . S
C921 C925 1.495 1_545 S
C922 C921 1.410 . S
C922 C923 1.420 . S
C922 C924 1.432 1_545 S
C923 H917 0.930 . S
C923 C919 1.400 . S
C923 C922 1.420 . S
C924 C922 1.432 1_565 S
C924 C926 1.381 . S
C924 C930 1.383 . S
C925 C921 1.495 1_565 S
C925 H931 0.959 . S
C925 H932 0.961 . S
C925 H933 0.960 . S
C926 C924 1.381 . S
C926 C927 1.394 . S
C926 H934 0.930 . S
C927 C926 1.394 . S
C927 C928 1.383 . S
C927 H935 0.929 . S
C928 C927 1.383 . S
C928 C929 1.377 . S
C929 H913 0.930 . S
C929 C928 1.377 . S
C929 C930 1.379 . S
C930 H914 0.931 . S
C930 C924 1.383 . S
C930 C929 1.379 . S
H931 C925 0.959 . S
H932 C925 0.961 . S
H933 C925 0.960 . S
H934 C926 0.930 . S
H935 C927 0.929 . S
H936 C944 0.929 . S
H937 C946 0.930 . S
H938 C948 0.930 . S
H939 C951 0.929 . S
H940 C954 0.930 . S
H941 C956 0.960 . S
H942 C956 0.960 . S
H943 C956 0.960 . S
C944 H936 0.929 . S
C944 C945 1.377 . S
C944 C946 1.384 . S
C945 C944 1.377 . S
C945 C951 1.390 . S
C946 H937 0.930 . S
C946 C944 1.384 . S
C946 C947 1.372 . S
C947 C946 1.372 . S
C947 C948 1.400 . S
C947 C952 1.490 . S
C948 H938 0.930 . S
C948 C947 1.400 . S
C948 C951 1.386 . S
H949 C965 0.930 . S
H950 C966 0.931 . S
C951 H939 0.929 . S
C951 C945 1.390 . S
C951 C948 1.386 . S
C952 C947 1.490 . S
C952 C954 1.395 . S
C952 C955 1.403 . S
H953 C959 0.930 . S
C954 H940 0.930 . S
C954 C952 1.395 . S
C954 C957 1.403 . S
C955 C952 1.403 . S
C955 C956 1.524 . S
C955 C959 1.400 . S
C956 H941 0.960 . S
C956 H942 0.960 . S
C956 H943 0.960 . S
C956 C955 1.524 . S
C957 C954 1.403 . S
C957 C958 1.392 . S
C957 C961 1.495 . S
C958 C957 1.392 . S
C958 C959 1.385 . S
C958 C960 1.478 . S
C959 H953 0.930 . S
C959 C955 1.400 . S
C959 C958 1.385 . S
C960 C958 1.478 . S
C960 C962 1.381 . S
C960 C966 1.383 . S
C961 C957 1.495 . S
C961 H967 0.959 . S
C961 H968 0.961 . S
C961 H969 0.960 . S
C962 C960 1.381 . S
C962 C963 1.394 . S
C962 H970 0.930 . S
C963 C962 1.394 . S
C963 C964 1.383 . S
C963 H971 0.929 . S
C964 C963 1.383 . S
C964 C965 1.377 . S
C965 H949 0.930 . S
C965 C964 1.377 . S
C965 C966 1.379 . S
C966 H950 0.931 . S
C966 C960 1.383 . S
C966 C965 1.379 . S
H967 C961 0.959 . S
H968 C961 0.961 . S
H969 C961 0.960 . S
H970 C962 0.930 . S
H971 C963 0.929 . S
H972 C980 0.929 . S
H973 C982 0.930 . S
H974 C984 0.930 . S
H975 C987 0.929 . S
H976 C990 0.930 . S
H977 C992 0.960 . S
H978 C992 0.960 . S
H979 C992 0.960 . S
C980 H972 0.929 . S
C980 C981 1.377 . S
C980 C982 1.384 . S
C981 C980 1.377 . S
C981 C987 1.390 . S
C982 H973 0.930 . S
C982 C980 1.384 . S
C982 C983 1.372 . S
C983 C982 1.372 . S
C983 C984 1.400 . S
C983 C988 1.490 . S
C984 H974 0.930 . S
C984 C983 1.400 . S
C984 C987 1.386 . S
H985 C1001 0.930 . S
H986 C1002 0.931 . S
C987 H975 0.929 . S
C987 C981 1.390 . S
C987 C984 1.386 . S
C988 C983 1.490 . S
C988 C990 1.395 . S
C988 C991 1.403 . S
H989 C995 0.930 . S
C990 H976 0.930 . S
C990 C988 1.395 . S
C990 C993 1.403 . S
C991 C988 1.403 . S
C991 C992 1.524 . S
C991 C995 1.400 . S
C992 H977 0.960 . S
C992 H978 0.960 . S
C992 H979 0.960 . S
C992 C991 1.524 . S
C993 C990 1.403 . S
C993 C994 1.392 . S
C993 C997 1.495 . S
C994 C993 1.392 . S
C994 C995 1.385 . S
C994 C996 1.478 . S
C995 H989 0.930 . S
C995 C991 1.400 . S
C995 C994 1.385 . S
C996 C994 1.478 . S
C996 C998 1.381 . S
C996 C1002 1.383 . S
C997 C993 1.495 . S
C997 H1003 0.959 . S
C997 H1004 0.961 . S
C997 H1005 0.960 . S
C998 C996 1.381 . S
C998 C999 1.394 . S
C998 H1006 0.930 . S
C999 C998 1.394 . S
C999 C1000 1.383 . S
C999 H1007 0.929 . S
C1000 C999 1.383 . S
C1000 C1001 1.377 . S
C1001 H985 0.930 . S
C1001 C1000 1.377 . S
C1001 C1002 1.379 . S
C1002 H986 0.931 . S
C1002 C996 1.383 . S
C1002 C1001 1.379 . S
H1003 C997 0.959 . S
H1004 C997 0.961 . S
H1005 C997 0.960 . S
H1006 C998 0.930 . S
H1007 C999 0.929 . S
H1008 C1016 0.929 . S
H1009 C1018 0.930 . S
H1010 C1020 0.930 . S
H1011 C1023 0.929 . S
H1012 C1026 0.930 . S
H1013 C1028 0.960 . S
H1014 C1028 0.960 . S
H1015 C1028 0.960 . S
C1016 H1008 0.929 . S
C1016 C1017 1.377 . S
C1016 C1018 1.384 . S
C1017 C1016 1.377 . S
C1017 C1023 1.390 . S
C1018 H1009 0.930 . S
C1018 C1016 1.384 . S
C1018 C1019 1.372 . S
C1019 C1018 1.372 . S
C1019 C1020 1.400 . S
C1019 C1024 1.490 . S
C1020 H1010 0.930 . S
C1020 C1019 1.400 . S
C1020 C1023 1.386 . S
H1021 C1037 0.930 . S
H1022 C1038 0.931 . S
C1023 H1011 0.929 . S
C1023 C1017 1.390 . S
C1023 C1020 1.386 . S
C1024 C1019 1.490 . S
C1024 C1026 1.395 . S
C1024 C1027 1.403 . S
H1025 C1031 0.930 . S
C1026 H1012 0.930 . S
C1026 C1024 1.395 . S
C1026 C1029 1.403 . S
C1027 C1024 1.403 . S
C1027 C1028 1.524 . S
C1027 C1031 1.400 . S
C1028 H1013 0.960 . S
C1028 H1014 0.960 . S
C1028 H1015 0.960 . S
C1028 C1027 1.524 . S
C1029 C1026 1.403 . S
C1029 C1030 1.392 . S
C1029 C1033 1.495 . S
C1030 C1029 1.392 . S
C1030 C1031 1.385 . S
C1030 C1032 1.478 . S
C1031 H1025 0.930 . S
C1031 C1027 1.400 . S
C1031 C1030 1.385 . S
C1032 C1030 1.478 . S
C1032 C1034 1.381 . S
C1032 C1038 1.383 . S
C1033 C1029 1.495 . S
C1033 H1039 0.959 . S
C1033 H1040 0.961 . S
C1033 H1041 0.960 . S
C1034 C1032 1.381 . S
C1034 C1035 1.394 . S
C1034 H1042 0.930 . S
C1035 C1034 1.394 . S
C1035 C1036 1.383 . S
C1035 H1043 0.929 . S
C1036 C1035 1.383 . S
C1036 C1037 1.377 . S
C1037 H1021 0.930 . S
C1037 C1036 1.377 . S
C1037 C1038 1.379 . S
C1038 H1022 0.931 . S
C1038 C1032 1.383 . S
C1038 C1037 1.379 . S
H1039 C1033 0.959 . S
H1040 C1033 0.961 . S
H1041 C1033 0.960 . S
H1042 C1034 0.930 . S
H1043 C1035 0.929 . S
H1044 C1052 0.929 . S
H1045 C1054 0.930 . S
H1046 C1056 0.930 . S
H1047 C1059 0.929 . S
H1048 C1062 0.930 . S
H1049 C1064 0.960 . S
H1050 C1064 0.960 . S
H1051 C1064 0.960 . S
C1052 H1044 0.929 . S
C1052 C1053 1.377 . S
C1052 C1054 1.384 . S
C1053 C1052 1.377 . S
C1053 C1059 1.390 . S
C1054 H1045 0.930 . S
C1054 C1052 1.384 . S
C1054 C1055 1.372 . S
C1055 C1054 1.372 . S
C1055 C1056 1.400 . S
C1055 C1060 1.490 . S
C1056 H1046 0.930 . S
C1056 C1055 1.400 . S
C1056 C1059 1.386 . S
H1057 C1073 0.930 . S
H1058 C1074 0.931 . S
C1059 H1047 0.929 . S
C1059 C1053 1.390 . S
C1059 C1056 1.386 . S
C1060 C1055 1.490 . S
C1060 C1062 1.395 . S
C1060 C1063 1.403 . S
H1061 C1067 0.930 . S
C1062 H1048 0.930 . S
C1062 C1060 1.395 . S
C1062 C1065 1.403 . S
C1063 C1060 1.403 . S
C1063 C1064 1.524 . S
C1063 C1067 1.400 . S
C1064 H1049 0.960 . S
C1064 H1050 0.960 . S
C1064 H1051 0.960 . S
C1064 C1063 1.524 . S
C1065 C1062 1.403 . S
C1065 C1066 1.392 . S
C1065 C1069 1.495 . S
C1066 C1065 1.392 . S
C1066 C1067 1.385 . S
C1066 C1068 1.478 . S
C1067 H1061 0.930 . S
C1067 C1063 1.400 . S
C1067 C1066 1.385 . S
C1068 C1066 1.478 . S
C1068 C1070 1.381 . S
C1068 C1074 1.383 . S
C1069 C1065 1.495 . S
C1069 H1075 0.959 . S
C1069 H1076 0.961 . S
C1069 H1077 0.960 . S
C1070 C1068 1.381 . S
C1070 C1071 1.394 . S
C1070 H1078 0.930 . S
C1071 C1070 1.394 . S
C1071 C1072 1.383 . S
C1071 H1079 0.929 . S
C1072 C1071 1.383 . S
C1072 C1073 1.377 . S
C1073 H1057 0.930 . S
C1073 C1072 1.377 . S
C1073 C1074 1.379 . S
C1074 H1058 0.931 . S
C1074 C1068 1.383 . S
C1074 C1073 1.379 . S
H1075 C1069 0.959 . S
H1076 C1069 0.961 . S
H1077 C1069 0.960 . S
H1078 C1070 0.930 . S
H1079 C1071 0.929 . S
H1080 C1088 0.929 . S
H1081 C1090 0.930 . S
H1082 C1092 0.930 . S
H1083 C1095 0.929 . S
H1084 C1098 0.930 . S
H1085 C1100 0.960 . S
H1086 C1100 0.960 . S
H1087 C1100 0.960 . S
C1088 H1080 0.929 . S
C1088 C1089 1.377 . S
C1088 C1090 1.384 . S
C1089 C1088 1.377 . S
C1089 C1095 1.390 . S
C1090 H1081 0.930 . S
C1090 C1088 1.384 . S
C1090 C1091 1.372 . S
C1091 C1090 1.372 . S
C1091 C1092 1.400 . S
C1091 C1096 1.490 . S
C1092 H1082 0.930 . S
C1092 C1091 1.400 . S
C1092 C1095 1.386 . S
H1093 C1109 0.930 . S
H1094 C1110 0.931 . S
C1095 H1083 0.929 . S
C1095 C1089 1.390 . S
C1095 C1092 1.386 . S
C1096 C1091 1.490 . S
C1096 C1098 1.395 . S
C1096 C1099 1.403 . S
H1097 C1103 0.930 . S
C1098 H1084 0.930 . S
C1098 C1096 1.395 . S
C1098 C1101 1.403 . S
C1099 C1096 1.403 . S
C1099 C1100 1.524 . S
C1099 C1103 1.400 . S
C1100 H1085 0.960 . S
C1100 H1086 0.960 . S
C1100 H1087 0.960 . S
C1100 C1099 1.524 . S
C1101 C1098 1.403 . S
C1101 C1102 1.392 . S
C1101 C1105 1.495 . S
C1102 C1101 1.392 . S
C1102 C1103 1.385 . S
C1102 C1104 1.478 . S
C1103 H1097 0.930 . S
C1103 C1099 1.400 . S
C1103 C1102 1.385 . S
C1104 C1102 1.478 . S
C1104 C1106 1.381 . S
C1104 C1110 1.383 . S
C1105 C1101 1.495 . S
C1105 H1111 0.959 . S
C1105 H1112 0.961 . S
C1105 H1113 0.960 . S
C1106 C1104 1.381 . S
C1106 C1107 1.394 . S
C1106 H1114 0.930 . S
C1107 C1106 1.394 . S
C1107 C1108 1.383 . S
C1107 H1115 0.929 . S
C1108 C1107 1.383 . S
C1108 C1109 1.377 . S
C1109 H1093 0.930 . S
C1109 C1108 1.377 . S
C1109 C1110 1.379 . S
C1110 H1094 0.931 . S
C1110 C1104 1.383 . S
C1110 C1109 1.379 . S
H1111 C1105 0.959 . S
H1112 C1105 0.961 . S
H1113 C1105 0.960 . S
H1114 C1106 0.930 . S
H1115 C1107 0.929 . S
H1116 C1124 0.929 . S
H1117 C1126 0.930 . S
H1118 C1128 0.930 . S
H1119 C1131 0.929 . S
H1120 C1134 0.930 . S
H1121 C1136 0.960 . S
H1122 C1136 0.960 . S
H1123 C1136 0.960 . S
C1124 H1116 0.929 . S
C1124 C1125 1.377 . S
C1124 C1126 1.384 . S
C1125 C1124 1.377 . S
C1125 C1131 1.390 . S
C1126 H1117 0.930 . S
C1126 C1124 1.384 . S
C1126 C1127 1.372 . S
C1127 C1126 1.372 . S
C1127 C1128 1.400 . S
C1127 C1132 1.490 . S
C1128 H1118 0.930 . S
C1128 C1127 1.400 . S
C1128 C1131 1.386 . S
H1129 C1145 0.930 . S
H1130 C1146 0.931 . S
C1131 H1119 0.929 . S
C1131 C1125 1.390 . S
C1131 C1128 1.386 . S
C1132 C1127 1.490 . S
C1132 C1134 1.395 . S
C1132 C1135 1.403 . S
H1133 C1139 0.930 . S
C1134 H1120 0.930 . S
C1134 C1132 1.395 . S
C1134 C1137 1.403 . S
C1135 C1132 1.403 . S
C1135 C1136 1.524 . S
C1135 C1139 1.400 . S
C1136 H1121 0.960 . S
C1136 H1122 0.960 . S
C1136 H1123 0.960 . S
C1136 C1135 1.524 . S
C1137 C1134 1.403 . S
C1137 C1138 1.392 . S
C1137 C1141 1.495 . S
C1138 C1137 1.392 . S
C1138 C1139 1.385 . S
C1138 C1140 1.478 . S
C1139 H1133 0.930 . S
C1139 C1135 1.400 . S
C1139 C1138 1.385 . S
C1140 C1138 1.478 . S
C1140 C1142 1.381 . S
C1140 C1146 1.383 . S
C1141 C1137 1.495 . S
C1141 H1147 0.959 . S
C1141 H1148 0.961 . S
C1141 H1149 0.960 . S
C1142 C1140 1.381 . S
C1142 C1143 1.394 . S
C1142 H1150 0.930 . S
C1143 C1142 1.394 . S
C1143 C1144 1.383 . S
C1143 H1151 0.929 . S
C1144 C1143 1.383 . S
C1144 C1145 1.377 . S
C1145 H1129 0.930 . S
C1145 C1144 1.377 . S
C1145 C1146 1.379 . S
C1146 H1130 0.931 . S
C1146 C1140 1.383 . S
C1146 C1145 1.379 . S
H1147 C1141 0.959 . S
H1148 C1141 0.961 . S
H1149 C1141 0.960 . S
H1150 C1142 0.930 . S
H1151 C1143 0.929 . S
H1152 C1160 0.929 . S
H1153 C1162 0.930 . S
H1154 C1164 0.930 . S
H1155 C1167 0.929 . S
H1156 C1170 0.930 . S
H1157 C1172 0.960 . S
H1158 C1172 0.960 . S
H1159 C1172 0.960 . S
C1160 H1152 0.929 . S
C1160 C1161 1.377 . S
C1160 C1162 1.384 . S
C1161 C1160 1.377 . S
C1161 C1167 1.390 . S
C1162 H1153 0.930 . S
C1162 C1160 1.384 . S
C1162 C1163 1.372 . S
C1163 C1162 1.372 . S
C1163 C1164 1.400 . S
C1163 C1168 1.490 . S
C1164 H1154 0.930 . S
C1164 C1163 1.400 . S
C1164 C1167 1.386 . S
H1165 C1181 0.930 . S
H1166 C1182 0.931 . S
C1167 H1155 0.929 . S
C1167 C1161 1.390 . S
C1167 C1164 1.386 . S
C1168 C1163 1.490 . S
C1168 C1170 1.395 . S
C1168 C1171 1.403 . S
H1169 C1175 0.930 . S
C1170 H1156 0.930 . S
C1170 C1168 1.395 . S
C1170 C1173 1.403 . S
C1171 C1168 1.403 . S
C1171 C1172 1.524 . S
C1171 C1175 1.400 . S
C1172 H1157 0.960 . S
C1172 H1158 0.960 . S
C1172 H1159 0.960 . S
C1172 C1171 1.524 . S
C1173 C1170 1.403 . S
C1173 C1174 1.392 . S
C1173 C1177 1.495 . S
C1174 C1173 1.392 . S
C1174 C1175 1.385 . S
C1174 C1176 1.478 . S
C1175 H1169 0.930 . S
C1175 C1171 1.400 . S
C1175 C1174 1.385 . S
C1176 C1174 1.478 . S
C1176 C1178 1.381 . S
C1176 C1182 1.383 . S
C1177 C1173 1.495 . S
C1177 H1183 0.959 . S
C1177 H1184 0.961 . S
C1177 H1185 0.960 . S
C1178 C1176 1.381 . S
C1178 C1179 1.394 . S
C1178 H1186 0.930 . S
C1179 C1178 1.394 . S
C1179 C1180 1.383 . S
C1179 H1187 0.929 . S
C1180 C1179 1.383 . S
C1180 C1181 1.377 . S
C1181 H1165 0.930 . S
C1181 C1180 1.377 . S
C1181 C1182 1.379 . S
C1182 H1166 0.931 . S
C1182 C1176 1.383 . S
C1182 C1181 1.379 . S
H1183 C1177 0.959 . S
H1184 C1177 0.961 . S
H1185 C1177 0.960 . S
H1186 C1178 0.930 . S
H1187 C1179 0.929 . S
H1188 C1196 0.929 . S
H1189 C1198 0.930 . S
H1190 C1200 0.930 . S
H1191 C1203 0.929 . S
H1192 C1206 0.930 . S
H1193 C1208 0.960 . S
H1194 C1208 0.960 . S
H1195 C1208 0.960 . S
C1196 H1188 0.929 . S
C1196 C1197 1.377 . S
C1196 C1198 1.384 . S
C1197 C1196 1.377 . S
C1197 C1203 1.390 . S
C1198 H1189 0.930 . S
C1198 C1196 1.384 . S
C1198 C1199 1.372 . S
C1199 C1198 1.372 . S
C1199 C1200 1.400 . S
C1199 C1204 1.490 . S
C1200 H1190 0.930 . S
C1200 C1199 1.400 . S
C1200 C1203 1.386 . S
H1201 C1217 0.930 . S
H1202 C1218 0.931 . S
C1203 H1191 0.929 . S
C1203 C1197 1.390 . S
C1203 C1200 1.386 . S
C1204 C1199 1.490 . S
C1204 C1206 1.395 . S
C1204 C1207 1.403 . S
H1205 C1211 0.930 . S
C1206 H1192 0.930 . S
C1206 C1204 1.395 . S
C1206 C1209 1.403 . S
C1207 C1204 1.403 . S
C1207 C1208 1.524 . S
C1207 C1211 1.400 . S
C1208 H1193 0.960 . S
C1208 H1194 0.960 . S
C1208 H1195 0.960 . S
C1208 C1207 1.524 . S
C1209 C1206 1.403 . S
C1209 C1210 1.392 . S
C1209 C1213 1.495 . S
C1210 C1209 1.392 . S
C1210 C1211 1.385 . S
C1210 C1212 1.478 . S
C1211 H1205 0.930 . S
C1211 C1207 1.400 . S
C1211 C1210 1.385 . S
C1212 C1210 1.478 . S
C1212 C1214 1.381 . S
C1212 C1218 1.383 . S
C1213 C1209 1.495 . S
C1213 H1219 0.959 . S
C1213 H1220 0.961 . S
C1213 H1221 0.960 . S
C1214 C1212 1.381 . S
C1214 C1215 1.394 . S
C1214 H1222 0.930 . S
C1215 C1214 1.394 . S
C1215 C1216 1.383 . S
C1215 H1223 0.929 . S
C1216 C1215 1.383 . S
C1216 C1217 1.377 . S
C1217 H1201 0.930 . S
C1217 C1216 1.377 . S
C1217 C1218 1.379 . S
C1218 H1202 0.931 . S
C1218 C1212 1.383 . S
C1218 C1217 1.379 . S
H1219 C1213 0.959 . S
H1220 C1213 0.961 . S
H1221 C1213 0.960 . S
H1222 C1214 0.930 . S
H1223 C1215 0.929 . S
H1224 C1232 0.929 . S
H1225 C1234 0.930 . S
H1226 C1236 0.930 . S
H1227 C1239 0.929 . S
H1228 C1242 0.930 . S
H1229 C1244 0.960 . S
H1230 C1244 0.960 . S
H1231 C1244 0.960 . S
C1232 H1224 0.929 . S
C1232 C1233 1.377 . S
C1232 C1234 1.384 . S
C1233 C1232 1.377 . S
C1233 C1239 1.390 . S
C1234 H1225 0.930 . S
C1234 C1232 1.384 . S
C1234 C1235 1.372 . S
C1235 C1234 1.372 . S
C1235 C1236 1.400 . S
C1235 C1240 1.490 . S
C1236 H1226 0.930 . S
C1236 C1235 1.400 . S
C1236 C1239 1.386 . S
H1237 C1253 0.930 . S
H1238 C1254 0.931 . S
C1239 H1227 0.929 . S
C1239 C1233 1.390 . S
C1239 C1236 1.386 . S
C1240 C1235 1.490 . S
C1240 C1242 1.395 . S
C1240 C1243 1.403 . S
H1241 C1247 0.930 . S
C1242 H1228 0.930 . S
C1242 C1240 1.395 . S
C1242 C1245 1.403 . S
C1243 C1240 1.403 . S
C1243 C1244 1.524 . S
C1243 C1247 1.400 . S
C1244 H1229 0.960 . S
C1244 H1230 0.960 . S
C1244 H1231 0.960 . S
C1244 C1243 1.524 . S
C1245 C1242 1.403 . S
C1245 C1246 1.392 . S
C1245 C1249 1.495 . S
C1246 C1245 1.392 . S
C1246 C1247 1.385 . S
C1246 C1248 1.478 . S
C1247 H1241 0.930 . S
C1247 C1243 1.400 . S
C1247 C1246 1.385 . S
C1248 C1246 1.478 . S
C1248 C1250 1.381 . S
C1248 C1254 1.383 . S
C1249 C1245 1.495 . S
C1249 H1255 0.959 . S
C1249 H1256 0.961 . S
C1249 H1257 0.960 . S
C1250 C1248 1.381 . S
C1250 C1251 1.394 . S
C1250 H1258 0.930 . S
C1251 C1250 1.394 . S
C1251 C1252 1.383 . S
C1251 H1259 0.929 . S
C1252 C1251 1.383 . S
C1252 C1253 1.377 . S
C1253 H1237 0.930 . S
C1253 C1252 1.377 . S
C1253 C1254 1.379 . S
C1254 H1238 0.931 . S
C1254 C1248 1.383 . S
C1254 C1253 1.379 . S
H1255 C1249 0.959 . S
H1256 C1249 0.961 . S
H1257 C1249 0.960 . S
H1258 C1250 0.930 . S
H1259 C1251 0.929 . S
H1260 C1268 0.929 . S
H1261 C1270 0.930 . S
H1262 C1272 0.930 . S
H1263 C1275 0.929 . S
H1264 C1278 0.930 . S
H1265 C1280 0.960 . S
H1266 C1280 0.960 . S
H1267 C1280 0.960 . S
C1268 H1260 0.929 . S
C1268 C1269 1.377 . S
C1268 C1270 1.384 . S
C1269 C1268 1.377 . S
C1269 C1275 1.390 . S
C1270 H1261 0.930 . S
C1270 C1268 1.384 . S
C1270 C1271 1.372 . S
C1271 C1270 1.372 . S
C1271 C1272 1.400 . S
C1271 C1276 1.490 . S
C1272 H1262 0.930 . S
C1272 C1271 1.400 . S
C1272 C1275 1.386 . S
H1273 C1289 0.930 . S
H1274 C1290 0.931 . S
C1275 H1263 0.929 . S
C1275 C1269 1.390 . S
C1275 C1272 1.386 . S
C1276 C1271 1.490 . S
C1276 C1278 1.395 . S
C1276 C1279 1.403 . S
H1277 C1283 0.930 . S
C1278 H1264 0.930 . S
C1278 C1276 1.395 . S
C1278 C1281 1.403 . S
C1279 C1276 1.403 . S
C1279 C1280 1.524 . S
C1279 C1283 1.400 . S
C1280 H1265 0.960 . S
C1280 H1266 0.960 . S
C1280 H1267 0.960 . S
C1280 C1279 1.524 . S
C1281 C1278 1.403 . S
C1281 C1282 1.392 . S
C1281 C1285 1.495 . S
C1282 C1281 1.392 . S
C1282 C1283 1.385 . S
C1282 C1284 1.478 . S
C1283 H1277 0.930 . S
C1283 C1279 1.400 . S
C1283 C1282 1.385 . S
C1284 C1282 1.478 . S
C1284 C1286 1.381 . S
C1284 C1290 1.383 . S
C1285 C1281 1.495 . S
C1285 H1291 0.959 . S
C1285 H1292 0.961 . S
C1285 H1293 0.960 . S
C1286 C1284 1.381 . S
C1286 C1287 1.394 . S
C1286 H1294 0.930 . S
C1287 C1286 1.394 . S
C1287 C1288 1.383 . S
C1287 H1295 0.929 . S
C1288 C1287 1.383 . S
C1288 C1289 1.377 . S
C1289 H1273 0.930 . S
C1289 C1288 1.377 . S
C1289 C1290 1.379 . S
C1290 H1274 0.931 . S
C1290 C1284 1.383 . S
C1290 C1289 1.379 . S
H1291 C1285 0.959 . S
H1292 C1285 0.961 . S
H1293 C1285 0.960 . S
H1294 C1286 0.930 . S
H1295 C1287 0.929 . S
H1296 C1304 0.929 . S
H1297 C1306 0.930 . S
H1298 C1308 0.930 . S
H1299 C1311 0.929 . S
H1300 C1314 0.930 . S
H1301 C1316 0.960 . S
H1302 C1316 0.960 . S
H1303 C1316 0.960 . S
C1304 H1296 0.929 . S
C1304 C1305 1.377 . S
C1304 C1306 1.384 . S
C1305 C1304 1.377 . S
C1305 C1311 1.390 . S
C1306 H1297 0.930 . S
C1306 C1304 1.384 . S
C1306 C1307 1.372 . S
C1307 C1306 1.372 . S
C1307 C1308 1.400 . S
C1307 C1312 1.490 . S
C1308 H1298 0.930 . S
C1308 C1307 1.400 . S
C1308 C1311 1.386 . S
H1309 C1325 0.930 . S
H1310 C1326 0.931 . S
C1311 H1299 0.929 . S
C1311 C1305 1.390 . S
C1311 C1308 1.386 . S
C1312 C1307 1.490 . S
C1312 C1314 1.395 . S
C1312 C1315 1.403 . S
H1313 C1319 0.930 . S
C1314 H1300 0.930 . S
C1314 C1312 1.395 . S
C1314 C1317 1.403 . S
C1315 C1312 1.403 . S
C1315 C1316 1.524 . S
C1315 C1319 1.400 . S
C1316 H1301 0.960 . S
C1316 H1302 0.960 . S
C1316 H1303 0.960 . S
C1316 C1315 1.524 . S
C1317 C1314 1.403 . S
C1317 C1318 1.392 . S
C1317 C1321 1.495 . S
C1318 C1317 1.392 . S
C1318 C1319 1.385 . S
C1318 C1320 1.478 . S
C1319 H1313 0.930 . S
C1319 C1315 1.400 . S
C1319 C1318 1.385 . S
C1320 C1318 1.478 . S
C1320 C1322 1.381 . S
C1320 C1326 1.383 . S
C1321 C1317 1.495 . S
C1321 H1327 0.959 . S
C1321 H1328 0.961 . S
C1321 H1329 0.960 . S
C1322 C1320 1.381 . S
C1322 C1323 1.394 . S
C1322 H1330 0.930 . S
C1323 C1322 1.394 . S
C1323 C1324 1.383 . S
C1323 H1331 0.929 . S
C1324 C1323 1.383 . S
C1324 C1325 1.377 . S
C1325 H1309 0.930 . S
C1325 C1324 1.377 . S
C1325 C1326 1.379 . S
C1326 H1310 0.931 . S
C1326 C1320 1.383 . S
C1326 C1325 1.379 . S
H1327 C1321 0.959 . S
H1328 C1321 0.961 . S
H1329 C1321 0.960 . S
H1330 C1322 0.930 . S
H1331 C1323 0.929 . S
H1332 C1340 0.929 . S
H1333 C1342 0.930 . S
H1334 C1344 0.930 . S
H1335 C1347 0.929 . S
H1336 C1350 0.930 . S
H1337 C1352 0.960 . S
H1338 C1352 0.960 . S
H1339 C1352 0.960 . S
C1340 H1332 0.929 . S
C1340 C1341 1.377 . S
C1340 C1342 1.384 . S
C1341 C1340 1.377 . S
C1341 C1347 1.390 . S
C1342 H1333 0.930 . S
C1342 C1340 1.384 . S
C1342 C1343 1.372 . S
C1343 C1342 1.372 . S
C1343 C1344 1.400 . S
C1343 C1348 1.490 . S
C1344 H1334 0.930 . S
C1344 C1343 1.400 . S
C1344 C1347 1.386 . S
H1345 C1361 0.930 . S
H1346 C1362 0.931 . S
C1347 H1335 0.929 . S
C1347 C1341 1.390 . S
C1347 C1344 1.386 . S
C1348 C1343 1.490 . S
C1348 C1350 1.395 . S
C1348 C1351 1.403 . S
H1349 C1355 0.930 . S
C1350 H1336 0.930 . S
C1350 C1348 1.395 . S
C1350 C1353 1.403 . S
C1351 C1348 1.403 . S
C1351 C1352 1.524 . S
C1351 C1355 1.400 . S
C1352 H1337 0.960 . S
C1352 H1338 0.960 . S
C1352 H1339 0.960 . S
C1352 C1351 1.524 . S
C1353 C1350 1.403 . S
C1353 C1354 1.392 . S
C1353 C1357 1.495 . S
C1354 C1353 1.392 . S
C1354 C1355 1.385 . S
C1354 C1356 1.478 . S
C1355 H1349 0.930 . S
C1355 C1351 1.400 . S
C1355 C1354 1.385 . S
C1356 C1354 1.478 . S
C1356 C1358 1.381 . S
C1356 C1362 1.383 . S
C1357 C1353 1.495 . S
C1357 H1363 0.959 . S
C1357 H1364 0.961 . S
C1357 H1365 0.960 . S
C1358 C1356 1.381 . S
C1358 C1359 1.394 . S
C1358 H1366 0.930 . S
C1359 C1358 1.394 . S
C1359 C1360 1.383 . S
C1359 H1367 0.929 . S
C1360 C1359 1.383 . S
C1360 C1361 1.377 . S
C1361 H1345 0.930 . S
C1361 C1360 1.377 . S
C1361 C1362 1.379 . S
C1362 H1346 0.931 . S
C1362 C1356 1.383 . S
C1362 C1361 1.379 . S
H1363 C1357 0.959 . S
H1364 C1357 0.961 . S
H1365 C1357 0.960 . S
H1366 C1358 0.930 . S
H1367 C1359 0.929 . S
H1368 C1376 0.929 . S
H1369 C1378 0.930 . S
H1370 C1380 0.930 . S
H1371 C1383 0.929 . S
H1372 C1386 0.930 . S
H1373 C1388 0.960 . S
H1374 C1388 0.960 . S
H1375 C1388 0.960 . S
C1376 H1368 0.929 . S
C1376 C1377 1.377 . S
C1376 C1378 1.384 . S
C1377 C1376 1.377 . S
C1377 C1383 1.390 . S
C1378 H1369 0.930 . S
C1378 C1376 1.384 . S
C1378 C1379 1.372 . S
C1379 C1378 1.372 . S
C1379 C1380 1.400 . S
C1379 C1384 1.490 . S
C1380 H1370 0.930 . S
C1380 C1379 1.400 . S
C1380 C1383 1.386 . S
H1381 C1397 0.930 . S
H1382 C1398 0.931 . S
C1383 H1371 0.929 . S
C1383 C1377 1.390 . S
C1383 C1380 1.386 . S
C1384 C1379 1.490 . S
C1384 C1386 1.395 . S
C1384 C1387 1.403 . S
H1385 C1391 0.930 . S
C1386 H1372 0.930 . S
C1386 C1384 1.395 . S
C1386 C1389 1.403 . S
C1387 C1384 1.403 . S
C1387 C1388 1.524 . S
C1387 C1391 1.400 . S
C1388 H1373 0.960 . S
C1388 H1374 0.960 . S
C1388 H1375 0.960 . S
C1388 C1387 1.524 . S
C1389 C1386 1.403 . S
C1389 C1390 1.392 . S
C1389 C1393 1.495 . S
C1390 C1389 1.392 . S
C1390 C1391 1.385 . S
C1390 C1392 1.478 . S
C1391 H1385 0.930 . S
C1391 C1387 1.400 . S
C1391 C1390 1.385 . S
C1392 C1390 1.478 . S
C1392 C1394 1.381 . S
C1392 C1398 1.383 . S
C1393 C1389 1.495 . S
C1393 H1399 0.959 . S
C1393 H1400 0.961 . S
C1393 H1401 0.960 . S
C1394 C1392 1.381 . S
C1394 C1395 1.394 . S
C1394 H1402 0.930 . S
C1395 C1394 1.394 . S
C1395 C1396 1.383 . S
C1395 H1403 0.929 . S
C1396 C1395 1.383 . S
C1396 C1397 1.377 . S
C1397 H1381 0.930 . S
C1397 C1396 1.377 . S
C1397 C1398 1.379 . S
C1398 H1382 0.931 . S
C1398 C1392 1.383 . S
C1398 C1397 1.379 . S
H1399 C1393 0.959 . S
H1400 C1393 0.961 . S
H1401 C1393 0.960 . S
H1402 C1394 0.930 . S
H1403 C1395 0.929 . S
H1404 C1412 0.929 . S
H1405 C1414 0.930 . S
H1406 C1416 0.930 . S
H1407 C1419 0.929 . S
H1408 C1422 0.930 . S
H1409 C1424 0.960 . S
H1410 C1424 0.960 . S
H1411 C1424 0.960 . S
C1412 H1404 0.929 . S
C1412 C1413 1.377 . S
C1412 C1414 1.384 . S
C1413 C1412 1.377 . S
C1413 C1419 1.390 . S
C1414 H1405 0.930 . S
C1414 C1412 1.384 . S
C1414 C1415 1.372 . S
C1415 C1414 1.372 . S
C1415 C1416 1.400 . S
C1415 C1420 1.490 . S
C1416 H1406 0.930 . S
C1416 C1415 1.400 . S
C1416 C1419 1.386 . S
H1417 C1433 0.930 . S
H1418 C1434 0.931 . S
C1419 H1407 0.929 . S
C1419 C1413 1.390 . S
C1419 C1416 1.386 . S
C1420 C1415 1.490 . S
C1420 C1422 1.395 . S
C1420 C1423 1.403 . S
H1421 C1427 0.930 . S
C1422 H1408 0.930 . S
C1422 C1420 1.395 . S
C1422 C1425 1.403 . S
C1423 C1420 1.403 . S
C1423 C1424 1.524 . S
C1423 C1427 1.400 . S
C1424 H1409 0.960 . S
C1424 H1410 0.960 . S
C1424 H1411 0.960 . S
C1424 C1423 1.524 . S
C1425 C1422 1.403 . S
C1425 C1426 1.392 . S
C1425 C1429 1.495 . S
C1426 C1425 1.392 . S
C1426 C1427 1.385 . S
C1426 C1428 1.478 . S
C1427 H1421 0.930 . S
C1427 C1423 1.400 . S
C1427 C1426 1.385 . S
C1428 C1426 1.478 . S
C1428 C1430 1.381 . S
C1428 C1434 1.383 . S
C1429 C1425 1.495 . S
C1429 H1435 0.959 . S
C1429 H1436 0.961 . S
C1429 H1437 0.960 . S
C1430 C1428 1.381 . S
C1430 C1431 1.394 . S
C1430 H1438 0.930 . S
C1431 C1430 1.394 . S
C1431 C1432 1.383 . S
C1431 H1439 0.929 . S
C1432 C1431 1.383 . S
C1432 C1433 1.377 . S
C1433 H1417 0.930 . S
C1433 C1432 1.377 . S
C1433 C1434 1.379 . S
C1434 H1418 0.931 . S
C1434 C1428 1.383 . S
C1434 C1433 1.379 . S
H1435 C1429 0.959 . S
H1436 C1429 0.961 . S
H1437 C1429 0.960 . S
H1438 C1430 0.930 . S
H1439 C1431 0.929 . S
H1440 C1448 0.929 . S
H1441 C1450 0.930 . S
H1442 C1452 0.930 . S
H1443 C1455 0.929 . S
H1444 C1458 0.930 . S
H1445 C1460 0.960 . S
H1446 C1460 0.960 . S
H1447 C1460 0.960 . S
C1448 H1440 0.929 . S
C1448 C1449 1.377 . S
C1448 C1450 1.384 . S
C1449 C1448 1.377 . S
C1449 C1455 1.390 . S
C1450 H1441 0.930 . S
C1450 C1448 1.384 . S
C1450 C1451 1.372 . S
C1451 C1450 1.372 . S
C1451 C1452 1.400 . S
C1451 C1456 1.490 . S
C1452 H1442 0.930 . S
C1452 C1451 1.400 . S
C1452 C1455 1.386 . S
H1453 C1469 0.930 . S
H1454 C1470 0.931 . S
C1455 H1443 0.929 . S
C1455 C1449 1.390 . S
C1455 C1452 1.386 . S
C1456 C1451 1.490 . S
C1456 C1458 1.395 . S
C1456 C1459 1.403 . S
H1457 C1463 0.930 . S
C1458 H1444 0.930 . S
C1458 C1456 1.395 . S
C1458 C1461 1.403 . S
C1459 C1456 1.403 . S
C1459 C1460 1.524 . S
C1459 C1463 1.400 . S
C1460 H1445 0.960 . S
C1460 H1446 0.960 . S
C1460 H1447 0.960 . S
C1460 C1459 1.524 . S
C1461 C1458 1.403 . S
C1461 C1462 1.392 . S
C1461 C1465 1.495 . S
C1462 C1461 1.392 . S
C1462 C1463 1.385 . S
C1462 C1464 1.478 . S
C1463 H1457 0.930 . S
C1463 C1459 1.400 . S
C1463 C1462 1.385 . S
C1464 C1462 1.478 . S
C1464 C1466 1.381 . S
C1464 C1470 1.383 . S
C1465 C1461 1.495 . S
C1465 H1471 0.959 . S
C1465 H1472 0.961 . S
C1465 H1473 0.960 . S
C1466 C1464 1.381 . S
C1466 C1467 1.394 . S
C1466 H1474 0.930 . S
C1467 C1466 1.394 . S
C1467 C1468 1.383 . S
C1467 H1475 0.929 . S
C1468 C1467 1.383 . S
C1468 C1469 1.377 . S
C1469 H1453 0.930 . S
C1469 C1468 1.377 . S
C1469 C1470 1.379 . S
C1470 H1454 0.931 . S
C1470 C1464 1.383 . S
C1470 C1469 1.379 . S
H1471 C1465 0.959 . S
H1472 C1465 0.961 . S
H1473 C1465 0.960 . S
H1474 C1466 0.930 . S
H1475 C1467 0.929 . S
H1476 C1484 0.929 . S
H1477 C1486 0.930 . S
H1478 C1488 0.930 . S
H1479 C1491 0.929 . S
H1480 C1494 0.930 . S
H1481 C1496 0.960 . S
H1482 C1496 0.960 . S
H1483 C1496 0.960 . S
C1484 H1476 0.929 . S
C1484 C1485 1.377 . S
C1484 C1486 1.384 . S
C1485 C1484 1.377 . S
C1485 C1491 1.390 . S
C1486 H1477 0.930 . S
C1486 C1484 1.384 . S
C1486 C1487 1.372 . S
C1487 C1486 1.372 . S
C1487 C1488 1.400 . S
C1487 C1492 1.490 . S
C1488 H1478 0.930 . S
C1488 C1487 1.400 . S
C1488 C1491 1.386 . S
H1489 C1505 0.930 . S
H1490 C1506 0.931 . S
C1491 H1479 0.929 . S
C1491 C1485 1.390 . S
C1491 C1488 1.386 . S
C1492 C1487 1.490 . S
C1492 C1494 1.395 . S
C1492 C1495 1.403 . S
H1493 C1499 0.930 . S
C1494 H1480 0.930 . S
C1494 C1492 1.395 . S
C1494 C1497 1.403 . S
C1495 C1492 1.403 . S
C1495 C1496 1.524 . S
C1495 C1499 1.400 . S
C1496 H1481 0.960 . S
C1496 H1482 0.960 . S
C1496 H1483 0.960 . S
C1496 C1495 1.524 . S
C1497 C1494 1.403 . S
C1497 C1498 1.392 . S
C1497 C1501 1.495 . S
C1498 C1497 1.392 . S
C1498 C1499 1.385 . S
C1498 C1500 1.478 . S
C1499 H1493 0.930 . S
C1499 C1495 1.400 . S
C1499 C1498 1.385 . S
C1500 C1498 1.478 . S
C1500 C1502 1.381 . S
C1500 C1506 1.383 . S
C1501 C1497 1.495 . S
C1501 H1507 0.959 . S
C1501 H1508 0.961 . S
C1501 H1509 0.960 . S
C1502 C1500 1.381 . S
C1502 C1503 1.394 . S
C1502 H1510 0.930 . S
C1503 C1502 1.394 . S
C1503 C1504 1.383 . S
C1503 H1511 0.929 . S
C1504 C1503 1.383 . S
C1504 C1505 1.377 . S
C1505 H1489 0.930 . S
C1505 C1504 1.377 . S
C1505 C1506 1.379 . S
C1506 H1490 0.931 . S
C1506 C1500 1.383 . S
C1506 C1505 1.379 . S
H1507 C1501 0.959 . S
H1508 C1501 0.961 . S
H1509 C1501 0.960 . S
H1510 C1502 0.930 . S
H1511 C1503 0.929 . S
H1512 C1520 0.929 . S
H1513 C1522 0.930 . S
H1514 C1524 0.930 . S
H1515 C1527 0.929 . S
H1516 C1530 0.930 . S
H1517 C1532 0.960 . S
H1518 C1532 0.960 . S
H1519 C1532 0.960 . S
C1520 H1512 0.929 . S
C1520 C1521 1.377 . S
C1520 C1522 1.384 . S
C1521 C1520 1.377 . S
C1521 C1527 1.390 . S
C1522 H1513 0.930 . S
C1522 C1520 1.384 . S
C1522 C1523 1.372 . S
C1523 C1522 1.372 . S
C1523 C1524 1.400 . S
C1523 C1528 1.490 . S
C1524 H1514 0.930 . S
C1524 C1523 1.400 . S
C1524 C1527 1.386 . S
H1525 C1541 0.930 . S
H1526 C1542 0.931 . S
C1527 H1515 0.929 . S
C1527 C1521 1.390 . S
C1527 C1524 1.386 . S
C1528 C1523 1.490 . S
C1528 C1530 1.395 . S
C1528 C1531 1.403 . S
H1529 C1535 0.930 . S
C1530 H1516 0.930 . S
C1530 C1528 1.395 . S
C1530 C1533 1.403 . S
C1531 C1528 1.403 . S
C1531 C1532 1.524 . S
C1531 C1535 1.400 . S
C1532 H1517 0.960 . S
C1532 H1518 0.960 . S
C1532 H1519 0.960 . S
C1532 C1531 1.524 . S
C1533 C1530 1.403 . S
C1533 C1534 1.392 . S
C1533 C1537 1.495 . S
C1534 C1533 1.392 . S
C1534 C1535 1.385 . S
C1534 C1536 1.478 . S
C1535 H1529 0.930 . S
C1535 C1531 1.400 . S
C1535 C1534 1.385 . S
C1536 C1534 1.478 . S
C1536 C1538 1.381 . S
C1536 C1542 1.383 . S
C1537 C1533 1.495 . S
C1537 H1543 0.959 . S
C1537 H1544 0.961 . S
C1537 H1545 0.960 . S
C1538 C1536 1.381 . S
C1538 C1539 1.394 . S
C1538 H1546 0.930 . S
C1539 C1538 1.394 . S
C1539 C1540 1.383 . S
C1539 H1547 0.929 . S
C1540 C1539 1.383 . S
C1540 C1541 1.377 . S
C1541 H1525 0.930 . S
C1541 C1540 1.377 . S
C1541 C1542 1.379 . S
C1542 H1526 0.931 . S
C1542 C1536 1.383 . S
C1542 C1541 1.379 . S
H1543 C1537 0.959 . S
H1544 C1537 0.961 . S
H1545 C1537 0.960 . S
H1546 C1538 0.930 . S
H1547 C1539 0.929 . S
H1548 C1556 0.929 . S
H1549 C1558 0.930 . S
H1550 C1560 0.930 . S
H1551 C1563 0.929 . S
H1552 C1566 0.930 . S
H1553 C1568 0.960 . S
H1554 C1568 0.960 . S
H1555 C1568 0.960 . S
C1556 H1548 0.929 . S
C1556 C1557 1.377 . S
C1556 C1558 1.384 . S
C1557 C1556 1.377 . S
C1557 C1563 1.390 . S
C1558 H1549 0.930 . S
C1558 C1556 1.384 . S
C1558 C1559 1.372 . S
C1559 C1558 1.372 . S
C1559 C1560 1.400 . S
C1559 C1564 1.490 . S
C1560 H1550 0.930 . S
C1560 C1559 1.400 . S
C1560 C1563 1.386 . S
H1561 C1577 0.930 . S
H1562 C1578 0.931 . S
C1563 H1551 0.929 . S
C1563 C1557 1.390 . S
C1563 C1560 1.386 . S
C1564 C1559 1.490 . S
C1564 C1566 1.395 . S
C1564 C1567 1.403 . S
H1565 C1571 0.930 . S
C1566 H1552 0.930 . S
C1566 C1564 1.395 . S
C1566 C1569 1.403 . S
C1567 C1564 1.403 . S
C1567 C1568 1.524 . S
C1567 C1571 1.400 . S
C1568 H1553 0.960 . S
C1568 H1554 0.960 . S
C1568 H1555 0.960 . S
C1568 C1567 1.524 . S
C1569 C1566 1.403 . S
C1569 C1570 1.392 . S
C1569 C1573 1.495 . S
C1570 C1569 1.392 . S
C1570 C1571 1.385 . S
C1570 C1572 1.478 . S
C1571 H1565 0.930 . S
C1571 C1567 1.400 . S
C1571 C1570 1.385 . S
C1572 C1570 1.478 . S
C1572 C1574 1.381 . S
C1572 C1578 1.383 . S
C1573 C1569 1.495 . S
C1573 H1579 0.959 . S
C1573 H1580 0.961 . S
C1573 H1581 0.960 . S
C1574 C1572 1.381 . S
C1574 C1575 1.394 . S
C1574 H1582 0.930 . S
C1575 C1574 1.394 . S
C1575 C1576 1.383 . S
C1575 H1583 0.929 . S
C1576 C1575 1.383 . S
C1576 C1577 1.377 . S
C1577 H1561 0.930 . S
C1577 C1576 1.377 . S
C1577 C1578 1.379 . S
C1578 H1562 0.931 . S
C1578 C1572 1.383 . S
C1578 C1577 1.379 . S
H1579 C1573 0.959 . S
H1580 C1573 0.961 . S
H1581 C1573 0.960 . S
H1582 C1574 0.930 . S
H1583 C1575 0.929 . S
H1584 C1592 0.929 . S
H1585 C1594 0.930 . S
H1586 C1596 0.930 . S
H1587 C1599 0.929 . S
H1588 C1602 0.930 . S
H1589 C1604 0.960 . S
H1590 C1604 0.960 . S
H1591 C1604 0.960 . S
C1592 H1584 0.929 . S
C1592 C1593 1.377 . S
C1592 C1594 1.384 . S
C1593 C1592 1.377 . S
C1593 C1599 1.390 . S
C1594 H1585 0.930 . S
C1594 C1592 1.384 . S
C1594 C1595 1.372 . S
C1595 C1594 1.372 . S
C1595 C1596 1.400 . S
C1595 C1600 1.490 . S
C1596 H1586 0.930 . S
C1596 C1595 1.400 . S
C1596 C1599 1.386 . S
H1597 C1613 0.930 . S
H1598 C1614 0.931 . S
C1599 H1587 0.929 . S
C1599 C1593 1.390 . S
C1599 C1596 1.386 . S
C1600 C1595 1.490 . S
C1600 C1602 1.395 . S
C1600 C1603 1.403 . S
H1601 C1607 0.930 . S
C1602 H1588 0.930 . S
C1602 C1600 1.395 . S
C1602 C1605 1.403 . S
C1603 C1600 1.403 . S
C1603 C1604 1.524 . S
C1603 C1607 1.400 . S
C1604 H1589 0.960 . S
C1604 H1590 0.960 . S
C1604 H1591 0.960 . S
C1604 C1603 1.524 . S
C1605 C1602 1.403 . S
C1605 C1606 1.392 . S
C1605 C1609 1.495 . S
C1606 C1605 1.392 . S
C1606 C1607 1.385 . S
C1606 C1608 1.478 . S
C1607 H1601 0.930 . S
C1607 C1603 1.400 . S
C1607 C1606 1.385 . S
C1608 C1606 1.478 . S
C1608 C1610 1.381 . S
C1608 C1614 1.383 . S
C1609 C1605 1.495 . S
C1609 H1615 0.959 . S
C1609 H1616 0.961 . S
C1609 H1617 0.960 . S
C1610 C1608 1.381 . S
C1610 C1611 1.394 . S
C1610 H1618 0.930 . S
C1611 C1610 1.394 . S
C1611 C1612 1.383 . S
C1611 H1619 0.929 . S
C1612 C1611 1.383 . S
C1612 C1613 1.377 . S
C1613 H1597 0.930 . S
C1613 C1612 1.377 . S
C1613 C1614 1.379 . S
C1614 H1598 0.931 . S
C1614 C1608 1.383 . S
C1614 C1613 1.379 . S
H1615 C1609 0.959 . S
H1616 C1609 0.961 . S
H1617 C1609 0.960 . S
H1618 C1610 0.930 . S
H1619 C1611 0.929 . S
H1620 C1628 0.929 . S
H1621 C1630 0.930 . S
H1622 C1632 0.930 . S
H1623 C1635 0.929 . S
H1624 C1638 0.930 . S
H1625 C1640 0.960 . S
H1626 C1640 0.960 . S
H1627 C1640 0.960 . S
C1628 H1620 0.929 . S
C1628 C1629 1.377 . S
C1628 C1630 1.384 . S
C1629 C1628 1.377 . S
C1629 C1635 1.390 . S
C1630 H1621 0.930 . S
C1630 C1628 1.384 . S
C1630 C1631 1.372 . S
C1631 C1630 1.372 . S
C1631 C1632 1.400 . S
C1631 C1636 1.490 . S
C1632 H1622 0.930 . S
C1632 C1631 1.400 . S
C1632 C1635 1.386 . S
H1633 C1649 0.930 . S
H1634 C1650 0.931 . S
C1635 H1623 0.929 . S
C1635 C1629 1.390 . S
C1635 C1632 1.386 . S
C1636 C1631 1.490 . S
C1636 C1638 1.395 . S
C1636 C1639 1.403 . S
H1637 C1643 0.930 . S
C1638 H1624 0.930 . S
C1638 C1636 1.395 . S
C1638 C1641 1.403 . S
C1639 C1636 1.403 . S
C1639 C1640 1.524 . S
C1639 C1643 1.400 . S
C1640 H1625 0.960 . S
C1640 H1626 0.960 . S
C1640 H1627 0.960 . S
C1640 C1639 1.524 . S
C1641 C1638 1.403 . S
C1641 C1642 1.392 . S
C1641 C1645 1.495 . S
C1642 C1641 1.392 . S
C1642 C1643 1.385 . S
C1642 C1644 1.478 . S
C1643 H1637 0.930 . S
C1643 C1639 1.400 . S
C1643 C1642 1.385 . S
C1644 C1642 1.478 . S
C1644 C1646 1.381 . S
C1644 C1650 1.383 . S
C1645 C1641 1.495 . S
C1645 H1651 0.959 . S
C1645 H1652 0.961 . S
C1645 H1653 0.960 . S
C1646 C1644 1.381 . S
C1646 C1647 1.394 . S
C1646 H1654 0.930 . S
C1647 C1646 1.394 . S
C1647 C1648 1.383 . S
C1647 H1655 0.929 . S
C1648 C1647 1.383 . S
C1648 C1649 1.377 . S
C1649 H1633 0.930 . S
C1649 C1648 1.377 . S
C1649 C1650 1.379 . S
C1650 H1634 0.931 . S
C1650 C1644 1.383 . S
C1650 C1649 1.379 . S
H1651 C1645 0.959 . S
H1652 C1645 0.961 . S
H1653 C1645 0.960 . S
H1654 C1646 0.930 . S
H1655 C1647 0.929 . S
H1656 C1664 0.929 . S
H1657 C1666 0.930 . S
H1658 C1668 0.930 . S
H1659 C1671 0.929 . S
H1660 C1674 0.930 . S
H1661 C1676 0.960 . S
H1662 C1676 0.960 . S
H1663 C1676 0.960 . S
C1664 H1656 0.929 . S
C1664 C1665 1.377 . S
C1664 C1666 1.384 . S
C1665 C1664 1.377 . S
C1665 C1671 1.390 . S
C1666 H1657 0.930 . S
C1666 C1664 1.384 . S
C1666 C1667 1.372 . S
C1667 C1666 1.372 . S
C1667 C1668 1.400 . S
C1667 C1672 1.490 . S
C1668 H1658 0.930 . S
C1668 C1667 1.400 . S
C1668 C1671 1.386 . S
H1669 C1685 0.930 . S
H1670 C1686 0.931 . S
C1671 H1659 0.929 . S
C1671 C1665 1.390 . S
C1671 C1668 1.386 . S
C1672 C1667 1.490 . S
C1672 C1674 1.395 . S
C1672 C1675 1.403 . S
H1673 C1679 0.930 . S
C1674 H1660 0.930 . S
C1674 C1672 1.395 . S
C1674 C1677 1.403 . S
C1675 C1672 1.403 . S
C1675 C1676 1.524 . S
C1675 C1679 1.400 . S
C1676 H1661 0.960 . S
C1676 H1662 0.960 . S
C1676 H1663 0.960 . S
C1676 C1675 1.524 . S
C1677 C1674 1.403 . S
C1677 C1678 1.392 . S
C1677 C1681 1.495 . S
C1678 C1677 1.392 . S
C1678 C1679 1.385 . S
C1678 C1680 1.478 . S
C1679 H1673 0.930 . S
C1679 C1675 1.400 . S
C1679 C1678 1.385 . S
C1680 C1678 1.478 . S
C1680 C1682 1.381 . S
C1680 C1686 1.383 . S
C1681 C1677 1.495 . S
C1681 H1687 0.959 . S
C1681 H1688 0.961 . S
C1681 H1689 0.960 . S
C1682 C1680 1.381 . S
C1682 C1683 1.394 . S
C1682 H1690 0.930 . S
C1683 C1682 1.394 . S
C1683 C1684 1.383 . S
C1683 H1691 0.929 . S
C1684 C1683 1.383 . S
C1684 C1685 1.377 . S
C1685 H1669 0.930 . S
C1685 C1684 1.377 . S
C1685 C1686 1.379 . S
C1686 H1670 0.931 . S
C1686 C1680 1.383 . S
C1686 C1685 1.379 . S
H1687 C1681 0.959 . S
H1688 C1681 0.961 . S
H1689 C1681 0.960 . S
H1690 C1682 0.930 . S
H1691 C1683 0.929 . S
H1692 C1700 0.929 . S
H1693 C1702 0.930 . S
H1694 C1704 0.930 . S
H1695 C1707 0.929 . S
H1696 C1710 0.930 . S
H1697 C1712 0.960 . S
H1698 C1712 0.960 . S
H1699 C1712 0.960 . S
C1700 H1692 0.929 . S
C1700 C1701 1.377 . S
C1700 C1702 1.384 . S
C1701 C1700 1.377 . S
C1701 C1707 1.390 . S
C1702 H1693 0.930 . S
C1702 C1700 1.384 . S
C1702 C1703 1.372 . S
C1703 C1702 1.372 . S
C1703 C1704 1.400 . S
C1703 C1708 1.490 . S
C1704 H1694 0.930 . S
C1704 C1703 1.400 . S
C1704 C1707 1.386 . S
H1705 C1721 0.930 . S
H1706 C1722 0.931 . S
C1707 H1695 0.929 . S
C1707 C1701 1.390 . S
C1707 C1704 1.386 . S
C1708 C1703 1.490 . S
C1708 C1710 1.395 . S
C1708 C1711 1.403 . S
H1709 C1715 0.930 . S
C1710 H1696 0.930 . S
C1710 C1708 1.395 . S
C1710 C1713 1.403 . S
C1711 C1708 1.403 . S
C1711 C1712 1.524 . S
C1711 C1715 1.400 . S
C1712 H1697 0.960 . S
C1712 H1698 0.960 . S
C1712 H1699 0.960 . S
C1712 C1711 1.524 . S
C1713 C1710 1.403 . S
C1713 C1714 1.392 . S
C1713 C1717 1.495 . S
C1714 C1713 1.392 . S
C1714 C1715 1.385 . S
C1714 C1716 1.478 . S
C1715 H1709 0.930 . S
C1715 C1711 1.400 . S
C1715 C1714 1.385 . S
C1716 C1714 1.478 . S
C1716 C1718 1.381 . S
C1716 C1722 1.383 . S
C1717 C1713 1.495 . S
C1717 H1723 0.959 . S
C1717 H1724 0.961 . S
C1717 H1725 0.960 . S
C1718 C1716 1.381 . S
C1718 C1719 1.394 . S
C1718 H1726 0.930 . S
C1719 C1718 1.394 . S
C1719 C1720 1.383 . S
C1719 H1727 0.929 . S
C1720 C1719 1.383 . S
C1720 C1721 1.377 . S
C1721 H1705 0.930 . S
C1721 C1720 1.377 . S
C1721 C1722 1.379 . S
C1722 H1706 0.931 . S
C1722 C1716 1.383 . S
C1722 C1721 1.379 . S
H1723 C1717 0.959 . S
H1724 C1717 0.961 . S
H1725 C1717 0.960 . S
H1726 C1718 0.930 . S
H1727 C1719 0.929 . S
H1728 C1736 0.929 . S
H1729 C1738 0.930 . S
H1730 C1740 0.930 . S
H1731 C1743 0.929 . S
H1732 C1746 0.930 . S
H1733 C1748 0.960 . S
H1734 C1748 0.960 . S
H1735 C1748 0.960 . S
C1736 H1728 0.929 . S
C1736 C1737 1.377 . S
C1736 C1738 1.384 . S
C1737 C1736 1.377 . S
C1737 C1743 1.390 . S
C1738 H1729 0.930 . S
C1738 C1736 1.384 . S
C1738 C1739 1.372 . S
C1739 C1738 1.372 . S
C1739 C1740 1.400 . S
C1739 C1744 1.490 . S
C1740 H1730 0.930 . S
C1740 C1739 1.400 . S
C1740 C1743 1.386 . S
H1741 C1757 0.930 . S
H1742 C1758 0.931 . S
C1743 H1731 0.929 . S
C1743 C1737 1.390 . S
C1743 C1740 1.386 . S
C1744 C1739 1.490 . S
C1744 C1746 1.395 . S
C1744 C1747 1.403 . S
H1745 C1751 0.930 . S
C1746 H1732 0.930 . S
C1746 C1744 1.395 . S
C1746 C1749 1.403 . S
C1747 C1744 1.403 . S
C1747 C1748 1.524 . S
C1747 C1751 1.400 . S
C1748 H1733 0.960 . S
C1748 H1734 0.960 . S
C1748 H1735 0.960 . S
C1748 C1747 1.524 . S
C1749 C1746 1.403 . S
C1749 C1750 1.392 . S
C1749 C1753 1.495 . S
C1750 C1749 1.392 . S
C1750 C1751 1.385 . S
C1750 C1752 1.478 . S
C1751 H1745 0.930 . S
C1751 C1747 1.400 . S
C1751 C1750 1.385 . S
C1752 C1750 1.478 . S
C1752 C1754 1.381 . S
C1752 C1758 1.383 . S
C1753 C1749 1.495 . S
C1753 H1759 0.959 . S
C1753 H1760 0.961 . S
C1753 H1761 0.960 . S
C1754 C1752 1.381 . S
C1754 C1755 1.394 . S
C1754 H1762 0.930 . S
C1755 C1754 1.394 . S
C1755 C1756 1.383 . S
C1755 H1763 0.929 . S
C1756 C1755 1.383 . S
C1756 C1757 1.377 . S
C1757 H1741 0.930 . S
C1757 C1756 1.377 . S
C1757 C1758 1.379 . S
C1758 H1742 0.931 . S
C1758 C1752 1.383 . S
C1758 C1757 1.379 . S
H1759 C1753 0.959 . S
H1760 C1753 0.961 . S
H1761 C1753 0.960 . S
H1762 C1754 0.930 . S
H1763 C1755 0.929 . S
H1764 C1772 0.929 . S
H1765 C1774 0.930 . S
H1766 C1776 0.930 . S
H1767 C1779 0.929 . S
H1768 C1782 0.930 . S
H1769 C1784 0.960 . S
H1770 C1784 0.960 . S
H1771 C1784 0.960 . S
C1772 H1764 0.929 . S
C1772 C1773 1.377 . S
C1772 C1774 1.384 . S
C1773 C1772 1.377 . S
C1773 C1779 1.390 . S
C1774 H1765 0.930 . S
C1774 C1772 1.384 . S
C1774 C1775 1.372 . S
C1775 C1774 1.372 . S
C1775 C1776 1.400 . S
C1775 C1780 1.490 . S
C1776 H1766 0.930 . S
C1776 C1775 1.400 . S
C1776 C1779 1.386 . S
H1777 C1793 0.930 . S
H1778 C1794 0.931 . S
C1779 H1767 0.929 . S
C1779 C1773 1.390 . S
C1779 C1776 1.386 . S
C1780 C1775 1.490 . S
C1780 C1782 1.395 . S
C1780 C1783 1.403 . S
H1781 C1787 0.930 . S
C1782 H1768 0.930 . S
C1782 C1780 1.395 . S
C1782 C1785 1.403 . S
C1783 C1780 1.403 . S
C1783 C1784 1.524 . S
C1783 C1787 1.400 . S
C1784 H1769 0.960 . S
C1784 H1770 0.960 . S
C1784 H1771 0.960 . S
C1784 C1783 1.524 . S
C1785 C1782 1.403 . S
C1785 C1786 1.392 . S
C1785 C1789 1.495 . S
C1786 C1785 1.392 . S
C1786 C1787 1.385 . S
C1786 C1788 1.478 . S
C1787 H1781 0.930 . S
C1787 C1783 1.400 . S
C1787 C1786 1.385 . S
C1788 C1786 1.478 . S
C1788 C1790 1.381 . S
C1788 C1794 1.383 . S
C1789 C1785 1.495 . S
C1789 H1795 0.959 . S
C1789 H1796 0.961 . S
C1789 H1797 0.960 . S
C1790 C1788 1.381 . S
C1790 C1791 1.394 . S
C1790 H1798 0.930 . S
C1791 C1790 1.394 . S
C1791 C1792 1.383 . S
C1791 H1799 0.929 . S
C1792 C1791 1.383 . S
C1792 C1793 1.377 . S
C1793 H1777 0.930 . S
C1793 C1792 1.377 . S
C1793 C1794 1.379 . S
C1794 H1778 0.931 . S
C1794 C1788 1.383 . S
C1794 C1793 1.379 . S
H1795 C1789 0.959 . S
H1796 C1789 0.961 . S
H1797 C1789 0.960 . S
H1798 C1790 0.930 . S
H1799 C1791 0.929 . S
H1800 C1808 0.929 . S
H1801 C1810 0.930 . S
H1802 C1812 0.930 . S
H1803 C1815 0.929 . S
H1804 C1818 0.930 . S
H1805 C1820 0.960 . S
H1806 C1820 0.960 . S
H1807 C1820 0.960 . S
C1808 H1800 0.929 . S
C1808 C1809 1.377 . S
C1808 C1810 1.384 . S
C1809 C1808 1.377 . S
C1809 C1815 1.390 . S
C1810 H1801 0.930 . S
C1810 C1808 1.384 . S
C1810 C1811 1.372 . S
C1811 C1810 1.372 . S
C1811 C1812 1.400 . S
C1811 C1816 1.490 . S
C1812 H1802 0.930 . S
C1812 C1811 1.400 . S
C1812 C1815 1.386 . S
H1813 C1829 0.930 . S
H1814 C1830 0.931 . S
C1815 H1803 0.929 . S
C1815 C1809 1.390 . S
C1815 C1812 1.386 . S
C1816 C1811 1.490 . S
C1816 C1818 1.395 . S
C1816 C1819 1.403 . S
H1817 C1823 0.930 . S
C1818 H1804 0.930 . S
C1818 C1816 1.395 . S
C1818 C1821 1.403 . S
C1819 C1816 1.403 . S
C1819 C1820 1.524 . S
C1819 C1823 1.400 . S
C1820 H1805 0.960 . S
C1820 H1806 0.960 . S
C1820 H1807 0.960 . S
C1820 C1819 1.524 . S
C1821 C1818 1.403 . S
C1821 C1822 1.392 . S
C1821 C1825 1.495 . S
C1822 C1821 1.392 . S
C1822 C1823 1.385 . S
C1822 C1824 1.478 . S
C1823 H1817 0.930 . S
C1823 C1819 1.400 . S
C1823 C1822 1.385 . S
C1824 C1822 1.478 . S
C1824 C1826 1.381 . S
C1824 C1830 1.383 . S
C1825 C1821 1.495 . S
C1825 H1831 0.959 . S
C1825 H1832 0.961 . S
C1825 H1833 0.960 . S
C1826 C1824 1.381 . S
C1826 C1827 1.394 . S
C1826 H1834 0.930 . S
C1827 C1826 1.394 . S
C1827 C1828 1.383 . S
C1827 H1835 0.929 . S
C1828 C1827 1.383 . S
C1828 C1829 1.377 . S
C1829 H1813 0.930 . S
C1829 C1828 1.377 . S
C1829 C1830 1.379 . S
C1830 H1814 0.931 . S
C1830 C1824 1.383 . S
C1830 C1829 1.379 . S
H1831 C1825 0.959 . S
H1832 C1825 0.961 . S
H1833 C1825 0.960 . S
H1834 C1826 0.930 . S
H1835 C1827 0.929 . S
H1836 C1844 0.929 . S
H1837 C1846 0.930 . S
H1838 C1848 0.930 . S
H1839 C1851 0.929 . S
H1840 C1854 0.930 . S
H1841 C1856 0.960 1_545 S
H1842 C1856 0.963 . S
H1843 C1856 0.960 . S
C1844 H1836 0.929 . S
C1844 C1845 1.377 . S
C1844 C1846 1.384 . S
C1845 C1844 1.377 . S
C1845 C1851 1.390 . S
C1846 H1837 0.930 . S
C1846 C1844 1.384 . S
C1846 C1847 1.372 . S
C1847 C1846 1.372 . S
C1847 C1848 1.400 . S
C1847 C1852 1.490 . S
C1848 H1838 0.930 . S
C1848 C1847 1.400 . S
C1848 C1851 1.386 . S
H1849 C1865 0.930 . S
H1850 C1866 0.931 . S
C1851 H1839 0.929 . S
C1851 C1845 1.390 . S
C1851 C1848 1.386 . S
C1852 C1847 1.490 . S
C1852 C1854 1.395 . S
C1852 C1855 1.403 . S
H1853 C1859 0.930 . S
C1854 H1840 0.930 . S
C1854 C1852 1.395 . S
C1854 C1857 1.403 1_565 S
C1855 C1852 1.403 . S
C1855 C1856 1.524 . S
C1855 C1859 1.400 1_565 S
C1856 H1841 0.960 1_565 S
C1856 H1842 0.963 . S
C1856 H1843 0.960 . S
C1856 C1855 1.524 . S
C1857 C1854 1.403 1_545 S
C1857 C1858 1.392 . S
C1857 C1861 1.495 . S
C1858 C1857 1.392 . S
C1858 C1859 1.385 . S
C1858 C1860 1.478 . S
C1859 H1853 0.930 . S
C1859 C1855 1.400 1_545 S
C1859 C1858 1.385 . S
C1860 C1858 1.478 . S
C1860 C1862 1.381 . S
C1860 C1866 1.383 . S
C1861 C1857 1.495 . S
C1861 H1867 0.959 1_545 S
C1861 H1868 0.961 . S
C1861 H1869 0.960 . S
C1862 C1860 1.381 . S
C1862 C1863 1.394 . S
C1862 H1870 0.930 . S
C1863 C1862 1.394 . S
C1863 C1864 1.383 . S
C1863 H1871 0.929 . S
C1864 C1863 1.383 . S
C1864 C1865 1.377 . S
C1865 H1849 0.930 . S
C1865 C1864 1.377 . S
C1865 C1866 1.379 . S
C1866 H1850 0.931 . S
C1866 C1860 1.383 . S
C1866 C1865 1.379 . S
H1867 C1861 0.959 1_565 S
H1868 C1861 0.961 . S
H1869 C1861 0.960 . S
H1870 C1862 0.930 . S
H1871 C1863 0.929 . S
H1872 C1880 0.929 . S
H1873 C1882 0.930 . S
H1874 C1884 0.930 . S
H1875 C1887 0.929 . S
H1876 C1890 0.930 . S
H1877 C1892 0.960 . S
H1878 C1892 0.960 . S
H1879 C1892 0.960 . S
C1880 H1872 0.929 . S
C1880 C1881 1.377 . S
C1880 C1882 1.384 . S
C1881 C1880 1.377 . S
C1881 C1887 1.390 . S
C1882 H1873 0.930 . S
C1882 C1880 1.384 . S
C1882 C1883 1.372 . S
C1883 C1882 1.372 . S
C1883 C1884 1.400 . S
C1883 C1888 1.490 . S
C1884 H1874 0.930 . S
C1884 C1883 1.400 . S
C1884 C1887 1.386 . S
H1885 C1901 0.930 . S
H1886 C1902 0.931 . S
C1887 H1875 0.929 . S
C1887 C1881 1.390 . S
C1887 C1884 1.386 . S
C1888 C1883 1.490 . S
C1888 C1890 1.395 1_655 S
C1888 C1891 1.403 . S
H1889 C1895 0.930 . S
C1890 H1876 0.930 . S
C1890 C1888 1.395 1_455 S
C1890 C1893 1.403 . S
C1891 C1888 1.403 . S
C1891 C1892 1.524 . S
C1891 C1895 1.400 . S
C1892 H1877 0.960 . S
C1892 H1878 0.960 . S
C1892 H1879 0.960 . S
C1892 C1891 1.524 . S
C1893 C1890 1.403 . S
C1893 C1894 1.392 . S
C1893 C1897 1.495 . S
C1894 C1893 1.392 . S
C1894 C1895 1.385 1_455 S
C1894 C1896 1.478 . S
C1895 H1889 0.930 . S
C1895 C1891 1.400 . S
C1895 C1894 1.385 1_655 S
C1896 C1894 1.478 . S
C1896 C1898 1.381 . S
C1896 C1902 1.383 . S
C1897 C1893 1.495 . S
C1897 H1903 0.959 . S
C1897 H1904 0.961 . S
C1897 H1905 0.960 . S
C1898 C1896 1.381 . S
C1898 C1899 1.394 . S
C1898 H1906 0.930 . S
C1899 C1898 1.394 . S
C1899 C1900 1.383 . S
C1899 H1907 0.929 . S
C1900 C1899 1.383 . S
C1900 C1901 1.377 . S
C1901 H1885 0.930 . S
C1901 C1900 1.377 . S
C1901 C1902 1.379 . S
C1902 H1886 0.931 . S
C1902 C1896 1.383 . S
C1902 C1901 1.379 . S
H1903 C1897 0.959 . S
H1904 C1897 0.961 . S
H1905 C1897 0.960 . S
H1906 C1898 0.930 . S
H1907 C1899 0.929 . S
H1908 C1916 0.929 . S
H1909 C1918 0.930 . S
H1910 C1920 0.930 . S
H1911 C1923 0.929 . S
H1912 C1926 0.930 . S
H1913 C1928 0.960 . S
H1914 C1928 0.960 . S
H1915 C1928 0.960 . S
C1916 H1908 0.929 . S
C1916 C1917 1.377 . S
C1916 C1918 1.384 . S
C1917 C1916 1.377 . S
C1917 C1923 1.390 . S
C1918 H1909 0.930 . S
C1918 C1916 1.384 . S
C1918 C1919 1.372 . S
C1919 C1918 1.372 . S
C1919 C1920 1.400 . S
C1919 C1924 1.490 . S
C1920 H1910 0.930 . S
C1920 C1919 1.400 . S
C1920 C1923 1.386 . S
H1921 C1937 0.930 . S
H1922 C1938 0.931 . S
C1923 H1911 0.929 . S
C1923 C1917 1.390 . S
C1923 C1920 1.386 . S
C1924 C1919 1.490 . S
C1924 C1926 1.395 . S
C1924 C1927 1.403 . S
H1925 C1931 0.930 . S
C1926 H1912 0.930 . S
C1926 C1924 1.395 . S
C1926 C1929 1.403 . S
C1927 C1924 1.403 . S
C1927 C1928 1.524 . S
C1927 C1931 1.400 . S
C1928 H1913 0.960 . S
C1928 H1914 0.960 . S
C1928 H1915 0.960 . S
C1928 C1927 1.524 . S
C1929 C1926 1.403 . S
C1929 C1930 1.392 . S
C1929 C1933 1.495 . S
C1930 C1929 1.392 . S
C1930 C1931 1.385 . S
C1930 C1932 1.478 . S
C1931 H1925 0.930 . S
C1931 C1927 1.400 . S
C1931 C1930 1.385 . S
C1932 C1930 1.478 . S
C1932 C1934 1.381 . S
C1932 C1938 1.383 . S
C1933 C1929 1.495 . S
C1933 H1939 0.959 . S
C1933 H1940 0.961 . S
C1933 H1941 0.960 . S
C1934 C1932 1.381 . S
C1934 C1935 1.394 . S
C1934 H1942 0.930 . S
C1935 C1934 1.394 . S
C1935 C1936 1.383 . S
C1935 H1943 0.929 . S
C1936 C1935 1.383 . S
C1936 C1937 1.377 . S
C1937 H1921 0.930 . S
C1937 C1936 1.377 . S
C1937 C1938 1.379 . S
C1938 H1922 0.931 . S
C1938 C1932 1.383 . S
C1938 C1937 1.379 . S
H1939 C1933 0.959 . S
H1940 C1933 0.961 . S
H1941 C1933 0.960 . S
H1942 C1934 0.930 . S
H1943 C1935 0.929 . S
H1944 C1952 0.929 . S
H1945 C1954 0.930 . S
H1946 C1956 0.930 . S
H1947 C1959 0.929 . S
H1948 C1962 0.930 . S
H1949 C1964 0.960 . S
H1950 C1964 0.960 . S
H1951 C1964 0.960 . S
C1952 H1944 0.929 . S
C1952 C1953 1.377 . S
C1952 C1954 1.384 . S
C1953 C1952 1.377 . S
C1953 C1959 1.390 . S
C1954 H1945 0.930 . S
C1954 C1952 1.384 . S
C1954 C1955 1.372 . S
C1955 C1954 1.372 . S
C1955 C1956 1.400 . S
C1955 C1960 1.490 . S
C1956 H1946 0.930 . S
C1956 C1955 1.400 . S
C1956 C1959 1.386 . S
H1957 C1973 0.930 . S
H1958 C1974 0.931 . S
C1959 H1947 0.929 . S
C1959 C1953 1.390 . S
C1959 C1956 1.386 . S
C1960 C1955 1.490 . S
C1960 C1962 1.395 1_545 S
C1960 C1963 1.403 . S
H1961 C1967 0.930 . S
C1962 H1948 0.930 . S
C1962 C1960 1.395 1_565 S
C1962 C1965 1.403 . S
C1963 C1960 1.403 . S
C1963 C1964 1.524 . S
C1963 C1967 1.400 . S
C1964 H1949 0.960 . S
C1964 H1950 0.960 . S
C1964 H1951 0.960 . S
C1964 C1963 1.524 . S
C1965 C1962 1.403 . S
C1965 C1966 1.392 . S
C1965 C1969 1.495 . S
C1966 C1965 1.392 . S
C1966 C1967 1.385 1_565 S
C1966 C1968 1.478 . S
C1967 H1961 0.930 . S
C1967 C1963 1.400 . S
C1967 C1966 1.385 1_545 S
C1968 C1966 1.478 . S
C1968 C1970 1.381 . S
C1968 C1974 1.383 . S
C1969 C1965 1.495 . S
C1969 H1975 0.959 . S
C1969 H1976 0.961 . S
C1969 H1977 0.960 . S
C1970 C1968 1.381 . S
C1970 C1971 1.394 . S
C1970 H1978 0.930 . S
C1971 C1970 1.394 . S
C1971 C1972 1.383 . S
C1971 H1979 0.929 . S
C1972 C1971 1.383 . S
C1972 C1973 1.377 . S
C1973 H1957 0.930 . S
C1973 C1972 1.377 . S
C1973 C1974 1.379 . S
C1974 H1958 0.931 . S
C1974 C1968 1.383 . S
C1974 C1973 1.379 . S
H1975 C1969 0.959 . S
H1976 C1969 0.961 . S
H1977 C1969 0.960 . S
H1978 C1970 0.930 . S
H1979 C1971 0.929 . S
H1980 C1988 0.929 . S
H1981 C1990 0.930 . S
H1982 C1992 0.930 . S
H1983 C1995 0.929 . S
H1984 C1998 0.930 . S
H1985 C2000 0.960 . S
H1986 C2000 0.960 . S
H1987 C2000 0.960 . S
C1988 H1980 0.929 . S
C1988 C1989 1.377 . S
C1988 C1990 1.384 . S
C1989 C1988 1.377 . S
C1989 C1995 1.390 . S
C1990 H1981 0.930 . S
C1990 C1988 1.384 . S
C1990 C1991 1.372 . S
C1991 C1990 1.372 . S
C1991 C1992 1.400 . S
C1991 C1996 1.490 . S
C1992 H1982 0.930 . S
C1992 C1991 1.400 . S
C1992 C1995 1.386 . S
H1993 C2009 0.930 . S
H1994 C2010 0.931 . S
C1995 H1983 0.929 . S
C1995 C1989 1.390 . S
C1995 C1992 1.386 . S
C1996 C1991 1.490 . S
C1996 C1998 1.395 1_655 S
C1996 C1999 1.403 . S
H1997 C2003 0.930 . S
C1998 H1984 0.930 . S
C1998 C1996 1.395 1_455 S
C1998 C2001 1.403 . S
C1999 C1996 1.403 . S
C1999 C2000 1.524 . S
C1999 C2003 1.400 . S
C2000 H1985 0.960 . S
C2000 H1986 0.960 . S
C2000 H1987 0.960 . S
C2000 C1999 1.524 . S
C2001 C1998 1.403 . S
C2001 C2002 1.392 . S
C2001 C2005 1.495 . S
C2002 C2001 1.392 . S
C2002 C2003 1.385 1_455 S
C2002 C2004 1.478 . S
C2003 H1997 0.930 . S
C2003 C1999 1.400 . S
C2003 C2002 1.385 1_655 S
C2004 C2002 1.478 . S
C2004 C2006 1.381 . S
C2004 C2010 1.383 . S
C2005 C2001 1.495 . S
C2005 H2011 0.959 . S
C2005 H2012 0.961 . S
C2005 H2013 0.960 . S
C2006 C2004 1.381 . S
C2006 C2007 1.394 . S
C2006 H2014 0.930 . S
C2007 C2006 1.394 . S
C2007 C2008 1.383 . S
C2007 H2015 0.929 . S
C2008 C2007 1.383 . S
C2008 C2009 1.377 . S
C2009 H1993 0.930 . S
C2009 C2008 1.377 . S
C2009 C2010 1.379 . S
C2010 H1994 0.931 . S
C2010 C2004 1.383 . S
C2010 C2009 1.379 . S
H2011 C2005 0.959 . S
H2012 C2005 0.961 . S
H2013 C2005 0.960 . S
H2014 C2006 0.930 . S
H2015 C2007 0.929 . S
H2016 C2024 0.929 . S
H2017 C2026 0.930 . S
H2018 C2028 0.930 . S
H2019 C2031 0.929 . S
H2020 C2034 0.930 . S
H2021 C2036 0.960 . S
H2022 C2036 0.960 . S
H2023 C2036 0.960 . S
C2024 H2016 0.929 . S
C2024 C2025 1.377 . S
C2024 C2026 1.384 . S
C2025 C2024 1.377 . S
C2025 C2031 1.390 . S
C2026 H2017 0.930 . S
C2026 C2024 1.384 . S
C2026 C2027 1.372 . S
C2027 C2026 1.372 . S
C2027 C2028 1.400 . S
C2027 C2032 1.490 . S
C2028 H2018 0.930 . S
C2028 C2027 1.400 . S
C2028 C2031 1.386 . S
H2029 C2045 0.930 . S
H2030 C2046 0.931 . S
C2031 H2019 0.929 . S
C2031 C2025 1.390 . S
C2031 C2028 1.386 . S
C2032 C2027 1.490 . S
C2032 C2034 1.395 . S
C2032 C2035 1.403 . S
H2033 C2039 0.930 . S
C2034 H2020 0.930 . S
C2034 C2032 1.395 . S
C2034 C2037 1.403 . S
C2035 C2032 1.403 . S
C2035 C2036 1.524 . S
C2035 C2039 1.400 . S
C2036 H2021 0.960 . S
C2036 H2022 0.960 . S
C2036 H2023 0.960 . S
C2036 C2035 1.524 . S
C2037 C2034 1.403 . S
C2037 C2038 1.392 . S
C2037 C2041 1.495 . S
C2038 C2037 1.392 . S
C2038 C2039 1.385 . S
C2038 C2040 1.478 . S
C2039 H2033 0.930 . S
C2039 C2035 1.400 . S
C2039 C2038 1.385 . S
C2040 C2038 1.478 . S
C2040 C2042 1.381 . S
C2040 C2046 1.383 . S
C2041 C2037 1.495 . S
C2041 H2047 0.959 . S
C2041 H2048 0.961 . S
C2041 H2049 0.960 . S
C2042 C2040 1.381 . S
C2042 C2043 1.394 . S
C2042 H2050 0.930 . S
C2043 C2042 1.394 . S
C2043 C2044 1.383 . S
C2043 H2051 0.929 . S
C2044 C2043 1.383 . S
C2044 C2045 1.377 . S
C2045 H2029 0.930 . S
C2045 C2044 1.377 . S
C2045 C2046 1.379 . S
C2046 H2030 0.931 . S
C2046 C2040 1.383 . S
C2046 C2045 1.379 . S
H2047 C2041 0.959 . S
H2048 C2041 0.961 . S
H2049 C2041 0.960 . S
H2050 C2042 0.930 . S
H2051 C2043 0.929 . S
H2052 C2060 0.929 . S
H2053 C2062 0.930 . S
H2054 C2064 0.930 . S
H2055 C2067 0.929 . S
H2056 C2070 0.930 . S
H2057 C2072 0.960 . S
H2058 C2072 0.960 . S
H2059 C2072 0.960 . S
C2060 H2052 0.929 . S
C2060 C2061 1.377 . S
C2060 C2062 1.384 . S
C2061 C2060 1.377 . S
C2061 C2067 1.390 . S
C2062 H2053 0.930 . S
C2062 C2060 1.384 . S
C2062 C2063 1.372 . S
C2063 C2062 1.372 . S
C2063 C2064 1.400 . S
C2063 C2068 1.490 . S
C2064 H2054 0.930 . S
C2064 C2063 1.400 . S
C2064 C2067 1.386 . S
H2065 C2081 0.930 . S
H2066 C2082 0.931 . S
C2067 H2055 0.929 . S
C2067 C2061 1.390 . S
C2067 C2064 1.386 . S
C2068 C2063 1.490 . S
C2068 C2070 1.395 . S
C2068 C2071 1.403 . S
H2069 C2075 0.930 . S
C2070 H2056 0.930 . S
C2070 C2068 1.395 . S
C2070 C2073 1.403 . S
C2071 C2068 1.403 . S
C2071 C2072 1.524 . S
C2071 C2075 1.400 . S
C2072 H2057 0.960 . S
C2072 H2058 0.960 . S
C2072 H2059 0.960 . S
C2072 C2071 1.524 . S
C2073 C2070 1.403 . S
C2073 C2074 1.392 . S
C2073 C2077 1.495 . S
C2074 C2073 1.392 . S
C2074 C2075 1.385 . S
C2074 C2076 1.478 . S
C2075 H2069 0.930 . S
C2075 C2071 1.400 . S
C2075 C2074 1.385 . S
C2076 C2074 1.478 . S
C2076 C2078 1.381 . S
C2076 C2082 1.383 . S
C2077 C2073 1.495 . S
C2077 H2083 0.959 . S
C2077 H2084 0.961 . S
C2077 H2085 0.960 . S
C2078 C2076 1.381 . S
C2078 C2079 1.394 . S
C2078 H2086 0.930 . S
C2079 C2078 1.394 . S
C2079 C2080 1.383 . S
C2079 H2087 0.929 . S
C2080 C2079 1.383 . S
C2080 C2081 1.377 . S
C2081 H2065 0.930 . S
C2081 C2080 1.377 . S
C2081 C2082 1.379 . S
C2082 H2066 0.931 . S
C2082 C2076 1.383 . S
C2082 C2081 1.379 . S
H2083 C2077 0.959 . S
H2084 C2077 0.961 . S
H2085 C2077 0.960 . S
H2086 C2078 0.930 . S
H2087 C2079 0.929 . S
H2088 C2096 0.929 . S
H2089 C2098 0.930 . S
H2090 C2100 0.930 . S
H2091 C2103 0.929 . S
H2092 C2106 0.930 . S
H2093 C2108 0.960 . S
H2094 C2108 0.960 . S
H2095 C2108 0.960 . S
C2096 H2088 0.929 . S
C2096 C2097 1.377 . S
C2096 C2098 1.384 . S
C2097 C2096 1.377 . S
C2097 C2103 1.390 . S
C2098 H2089 0.930 . S
C2098 C2096 1.384 . S
C2098 C2099 1.372 . S
C2099 C2098 1.372 . S
C2099 C2100 1.400 . S
C2099 C2104 1.490 . S
C2100 H2090 0.930 . S
C2100 C2099 1.400 . S
C2100 C2103 1.386 . S
H2101 C2117 0.930 . S
H2102 C2118 0.931 . S
C2103 H2091 0.929 . S
C2103 C2097 1.390 . S
C2103 C2100 1.386 . S
C2104 C2099 1.490 . S
C2104 C2106 1.395 . S
C2104 C2107 1.403 . S
H2105 C2111 0.930 . S
C2106 H2092 0.930 . S
C2106 C2104 1.395 . S
C2106 C2109 1.403 . S
C2107 C2104 1.403 . S
C2107 C2108 1.524 . S
C2107 C2111 1.400 . S
C2108 H2093 0.960 . S
C2108 H2094 0.960 . S
C2108 H2095 0.960 . S
C2108 C2107 1.524 . S
C2109 C2106 1.403 . S
C2109 C2110 1.392 . S
C2109 C2113 1.495 . S
C2110 C2109 1.392 . S
C2110 C2111 1.385 . S
C2110 C2112 1.478 . S
C2111 H2105 0.930 . S
C2111 C2107 1.400 . S
C2111 C2110 1.385 . S
C2112 C2110 1.478 . S
C2112 C2114 1.381 . S
C2112 C2118 1.383 . S
C2113 C2109 1.495 . S
C2113 H2119 0.959 . S
C2113 H2120 0.961 . S
C2113 H2121 0.960 . S
C2114 C2112 1.381 . S
C2114 C2115 1.394 . S
C2114 H2122 0.930 . S
C2115 C2114 1.394 . S
C2115 C2116 1.383 . S
C2115 H2123 0.929 . S
C2116 C2115 1.383 . S
C2116 C2117 1.377 . S
C2117 H2101 0.930 . S
C2117 C2116 1.377 . S
C2117 C2118 1.379 . S
C2118 H2102 0.931 . S
C2118 C2112 1.383 . S
C2118 C2117 1.379 . S
H2119 C2113 0.959 . S
H2120 C2113 0.961 . S
H2121 C2113 0.960 . S
H2122 C2114 0.930 . S
H2123 C2115 0.929 . S
H2124 C2132 0.929 . S
H2125 C2134 0.930 . S
H2126 C2136 0.930 . S
H2127 C2139 0.929 . S
H2128 C2142 0.930 . S
H2129 C2144 0.960 . S
H2130 C2144 0.960 . S
H2131 C2144 0.960 . S
C2132 H2124 0.929 . S
C2132 C2133 1.377 . S
C2132 C2134 1.384 . S
C2133 C2132 1.377 . S
C2133 C2139 1.390 1_554 S
C2134 H2125 0.930 . S
C2134 C2132 1.384 . S
C2134 C2135 1.372 . S
C2135 C2134 1.372 . S
C2135 C2136 1.400 . S
C2135 C2140 1.490 . S
C2136 H2126 0.930 . S
C2136 C2135 1.400 . S
C2136 C2139 1.386 1_554 S
H2137 C2153 0.930 . S
H2138 C2154 0.931 . S
C2139 H2127 0.929 . S
C2139 C2133 1.390 1_556 S
C2139 C2136 1.386 1_556 S
C2140 C2135 1.490 . S
C2140 C2142 1.395 . S
C2140 C2143 1.403 . S
H2141 C2147 0.930 . S
C2142 H2128 0.930 . S
C2142 C2140 1.395 . S
C2142 C2145 1.403 . S
C2143 C2140 1.403 . S
C2143 C2144 1.524 . S
C2143 C2147 1.400 . S
C2144 H2129 0.960 . S
C2144 H2130 0.960 . S
C2144 H2131 0.960 . S
C2144 C2143 1.524 . S
C2145 C2142 1.403 . S
C2145 C2146 1.392 . S
C2145 C2149 1.495 . S
C2146 C2145 1.392 . S
C2146 C2147 1.385 . S
C2146 C2148 1.478 . S
C2147 H2141 0.930 . S
C2147 C2143 1.400 . S
C2147 C2146 1.385 . S
C2148 C2146 1.478 . S
C2148 C2150 1.381 . S
C2148 C2154 1.383 . S
C2149 C2145 1.495 . S
C2149 H2155 0.959 . S
C2149 H2156 0.961 . S
C2149 H2157 0.960 . S
C2150 C2148 1.381 . S
C2150 C2151 1.394 . S
C2150 H2158 0.930 . S
C2151 C2150 1.394 . S
C2151 C2152 1.383 . S
C2151 H2159 0.929 . S
C2152 C2151 1.383 . S
C2152 C2153 1.377 . S
C2153 H2137 0.930 . S
C2153 C2152 1.377 . S
C2153 C2154 1.379 . S
C2154 H2138 0.931 . S
C2154 C2148 1.383 . S
C2154 C2153 1.379 . S
H2155 C2149 0.959 . S
H2156 C2149 0.961 . S
H2157 C2149 0.960 . S
H2158 C2150 0.930 . S
H2159 C2151 0.929 . S
H2160 C2168 0.929 . S
H2161 C2170 0.930 . S
H2162 C2172 0.930 . S
H2163 C2175 0.893 1_556 S
H2164 C2178 0.930 . S
H2165 C2180 0.960 . S
H2166 C2180 0.960 . S
H2167 C2180 0.960 . S
C2168 H2160 0.929 . S
C2168 C2169 1.377 . S
C2168 C2170 1.384 . S
C2169 C2168 1.377 . S
C2169 C2175 1.393 . S
C2170 H2161 0.930 . S
C2170 C2168 1.384 . S
C2170 C2171 1.372 . S
C2171 C2170 1.372 . S
C2171 C2172 1.400 . S
C2171 C2176 1.490 . S
C2172 H2162 0.930 . S
C2172 C2171 1.400 . S
C2172 C2175 1.420 . S
H2173 C2189 0.930 . S
H2174 C2190 0.931 . S
C2175 H2163 0.893 1_554 S
C2175 C2169 1.393 . S
C2175 C2172 1.420 . S
C2176 C2171 1.490 . S
C2176 C2178 1.395 . S
C2176 C2179 1.403 . S
H2177 C2183 0.930 . S
C2178 H2164 0.930 . S
C2178 C2176 1.395 . S
C2178 C2181 1.403 . S
C2179 C2176 1.403 . S
C2179 C2180 1.524 . S
C2179 C2183 1.400 . S
C2180 H2165 0.960 . S
C2180 H2166 0.960 . S
C2180 H2167 0.960 . S
C2180 C2179 1.524 . S
C2181 C2178 1.403 . S
C2181 C2182 1.392 . S
C2181 C2185 1.495 . S
C2182 C2181 1.392 . S
C2182 C2183 1.385 . S
C2182 C2184 1.478 . S
C2183 H2177 0.930 . S
C2183 C2179 1.400 . S
C2183 C2182 1.385 . S
C2184 C2182 1.478 . S
C2184 C2186 1.381 . S
C2184 C2190 1.383 . S
C2185 C2181 1.495 . S
C2185 H2191 0.959 . S
C2185 H2192 0.961 . S
C2185 H2193 0.960 . S
C2186 C2184 1.381 . S
C2186 C2187 1.394 . S
C2186 H2194 0.930 . S
C2187 C2186 1.394 . S
C2187 C2188 1.383 . S
C2187 H2195 0.929 . S
C2188 C2187 1.383 . S
C2188 C2189 1.377 . S
C2189 H2173 0.930 . S
C2189 C2188 1.377 . S
C2189 C2190 1.379 . S
C2190 H2174 0.931 . S
C2190 C2184 1.383 . S
C2190 C2189 1.379 . S
H2191 C2185 0.959 . S
H2192 C2185 0.961 . S
H2193 C2185 0.960 . S
H2194 C2186 0.930 . S
H2195 C2187 0.929 . S
H2196 C2204 0.929 . S
H2197 C2206 0.930 . S
H2198 C2208 0.930 . S
H2199 C2211 0.929 . S
H2200 C2214 0.930 . S
H2201 C2216 0.960 . S
H2202 C2216 0.960 . S
H2203 C2216 0.960 . S
C2204 H2196 0.929 . S
C2204 C2205 1.377 1_556 S
C2204 C2206 1.384 1_556 S
C2205 C2204 1.377 1_554 S
C2205 C2211 1.390 . S
C2206 H2197 0.930 . S
C2206 C2204 1.384 1_554 S
C2206 C2207 1.372 . S
C2207 C2206 1.372 . S
C2207 C2208 1.400 . S
C2207 C2212 1.490 . S
C2208 H2198 0.930 . S
C2208 C2207 1.400 . S
C2208 C2211 1.386 . S
H2209 C2225 0.930 . S
H2210 C2226 0.931 . S
C2211 H2199 0.929 . S
C2211 C2205 1.390 . S
C2211 C2208 1.386 . S
C2212 C2207 1.490 . S
C2212 C2214 1.395 . S
C2212 C2215 1.403 . S
H2213 C2219 0.930 . S
C2214 H2200 0.930 . S
C2214 C2212 1.395 . S
C2214 C2217 1.403 . S
C2215 C2212 1.403 . S
C2215 C2216 1.524 . S
C2215 C2219 1.400 . S
C2216 H2201 0.960 . S
C2216 H2202 0.960 . S
C2216 H2203 0.960 . S
C2216 C2215 1.524 . S
C2217 C2214 1.403 . S
C2217 C2218 1.392 . S
C2217 C2221 1.495 . S
C2218 C2217 1.392 . S
C2218 C2219 1.385 . S
C2218 C2220 1.478 . S
C2219 H2213 0.930 . S
C2219 C2215 1.400 . S
C2219 C2218 1.385 . S
C2220 C2218 1.478 . S
C2220 C2222 1.381 . S
C2220 C2226 1.383 . S
C2221 C2217 1.495 . S
C2221 H2227 0.959 . S
C2221 H2228 0.961 . S
C2221 H2229 0.960 . S
C2222 C2220 1.381 . S
C2222 C2223 1.394 . S
C2222 H2230 0.930 . S
C2223 C2222 1.394 . S
C2223 C2224 1.383 . S
C2223 H2231 0.929 . S
C2224 C2223 1.383 . S
C2224 C2225 1.377 . S
C2225 H2209 0.930 . S
C2225 C2224 1.377 . S
C2225 C2226 1.379 . S
C2226 H2210 0.931 . S
C2226 C2220 1.383 . S
C2226 C2225 1.379 . S
H2227 C2221 0.959 . S
H2228 C2221 0.961 . S
H2229 C2221 0.960 . S
H2230 C2222 0.930 . S
H2231 C2223 0.929 . S
H2232 C2240 0.929 . S
H2233 C2242 0.930 . S
H2234 C2244 0.930 . S
H2235 C2247 0.908 1_554 S
H2236 C2250 0.930 . S
H2237 C2252 0.960 . S
H2238 C2252 0.960 . S
H2239 C2252 0.960 . S
C2240 H2232 0.929 . S
C2240 C2241 1.377 . S
C2240 C2242 1.384 . S
C2241 C2240 1.377 . S
C2241 C2247 1.390 . S
C2242 H2233 0.930 . S
C2242 C2240 1.384 . S
C2242 C2243 1.372 . S
C2243 C2242 1.372 . S
C2243 C2244 1.400 . S
C2243 C2248 1.490 . S
C2244 H2234 0.930 . S
C2244 C2243 1.400 . S
C2244 C2247 1.386 . S
H2245 C2261 0.930 . S
H2246 C2262 0.931 . S
C2247 H2235 0.908 1_556 S
C2247 C2241 1.390 . S
C2247 C2244 1.386 . S
C2248 C2243 1.490 . S
C2248 C2250 1.395 . S
C2248 C2251 1.403 . S
H2249 C2255 0.930 . S
C2250 H2236 0.930 . S
C2250 C2248 1.395 . S
C2250 C2253 1.403 . S
C2251 C2248 1.403 . S
C2251 C2252 1.524 . S
C2251 C2255 1.400 . S
C2252 H2237 0.960 . S
C2252 H2238 0.960 . S
C2252 H2239 0.960 . S
C2252 C2251 1.524 . S
C2253 C2250 1.403 . S
C2253 C2254 1.392 . S
C2253 C2257 1.495 . S
C2254 C2253 1.392 . S
C2254 C2255 1.385 . S
C2254 C2256 1.478 . S
C2255 H2249 0.930 . S
C2255 C2251 1.400 . S
C2255 C2254 1.385 . S
C2256 C2254 1.478 . S
C2256 C2258 1.381 . S
C2256 C2262 1.383 . S
C2257 C2253 1.495 . S
C2257 H2263 0.959 . S
C2257 H2264 0.961 . S
C2257 H2265 0.960 . S
C2258 C2256 1.381 . S
C2258 C2259 1.394 . S
C2258 H2266 0.930 . S
C2259 C2258 1.394 . S
C2259 C2260 1.383 . S
C2259 H2267 0.929 . S
C2260 C2259 1.383 . S
C2260 C2261 1.377 . S
C2261 H2245 0.930 . S
C2261 C2260 1.377 . S
C2261 C2262 1.379 . S
C2262 H2246 0.931 . S
C2262 C2256 1.383 . S
C2262 C2261 1.379 . S
H2263 C2257 0.959 . S
H2264 C2257 0.961 . S
H2265 C2257 0.960 . S
H2266 C2258 0.930 . S
H2267 C2259 0.929 . S
H2268 C2276 0.929 . S
H2269 C2278 0.930 . S
H2270 C2280 0.930 . S
H2271 C2283 0.929 . S
H2272 C2286 0.930 . S
H2273 C2288 0.960 . S
H2274 C2288 0.960 . S
H2275 C2288 0.960 . S
C2276 H2268 0.929 . S
C2276 C2277 1.377 . S
C2276 C2278 1.384 . S
C2277 C2276 1.377 . S
C2277 C2283 1.390 . S
C2278 H2269 0.930 . S
C2278 C2276 1.384 . S
C2278 C2279 1.372 . S
C2279 C2278 1.372 . S
C2279 C2280 1.400 . S
C2279 C2284 1.490 . S
C2280 H2270 0.930 . S
C2280 C2279 1.400 . S
C2280 C2283 1.386 . S
H2281 C2297 0.928 1_554 S
H2282 C2298 0.931 . S
C2283 H2271 0.929 . S
C2283 C2277 1.390 . S
C2283 C2280 1.386 . S
C2284 C2279 1.490 . S
C2284 C2286 1.395 . S
C2284 C2287 1.403 . S
H2285 C2291 0.930 . S
C2286 H2272 0.930 . S
C2286 C2284 1.395 . S
C2286 C2289 1.403 . S
C2287 C2284 1.403 . S
C2287 C2288 1.524 . S
C2287 C2291 1.400 . S
C2288 H2273 0.960 . S
C2288 H2274 0.960 . S
C2288 H2275 0.960 . S
C2288 C2287 1.524 . S
C2289 C2286 1.403 . S
C2289 C2290 1.392 . S
C2289 C2293 1.495 . S
C2290 C2289 1.392 . S
C2290 C2291 1.385 . S
C2290 C2292 1.478 . S
C2291 H2285 0.930 . S
C2291 C2287 1.400 . S
C2291 C2290 1.385 . S
C2292 C2290 1.478 . S
C2292 C2294 1.381 . S
C2292 C2298 1.383 . S
C2293 C2289 1.495 . S
C2293 H2299 0.959 . S
C2293 H2300 0.961 . S
C2293 H2301 0.960 . S
C2294 C2292 1.381 . S
C2294 C2295 1.394 . S
C2294 H2302 0.930 . S
C2295 C2294 1.394 . S
C2295 C2296 1.383 . S
C2295 H2303 0.929 . S
C2296 C2295 1.383 . S
C2296 C2297 1.377 . S
C2297 H2281 0.928 1_556 S
C2297 C2296 1.377 . S
C2297 C2298 1.380 . S
C2298 H2282 0.931 . S
C2298 C2292 1.383 . S
C2298 C2297 1.380 . S
H2299 C2293 0.959 . S
H2300 C2293 0.961 . S
H2301 C2293 0.960 . S
H2302 C2294 0.930 . S
H2303 C2295 0.929 . S
H2304 C2312 0.914 1_554 S
H2305 C2314 0.930 . S
H2306 C2316 0.930 . S
H2307 C2319 0.929 . S
H2308 C2322 0.930 . S
H2309 C2324 0.960 . S
H2310 C2324 0.960 . S
H2311 C2324 0.960 . S
C2312 H2304 0.914 1_556 S
C2312 C2313 1.379 . S
C2312 C2314 1.398 . S
C2313 C2312 1.379 . S
C2313 C2319 1.390 . S
C2314 H2305 0.930 . S
C2314 C2312 1.398 . S
C2314 C2315 1.372 . S
C2315 C2314 1.372 . S
C2315 C2316 1.400 . S
C2315 C2320 1.490 . S
C2316 H2306 0.930 . S
C2316 C2315 1.400 . S
C2316 C2319 1.386 . S
H2317 C2333 0.930 . S
H2318 C2334 0.931 . S
C2319 H2307 0.929 . S
C2319 C2313 1.390 . S
C2319 C2316 1.386 . S
C2320 C2315 1.490 . S
C2320 C2322 1.395 . S
C2320 C2323 1.403 . S
H2321 C2327 0.930 . S
C2322 H2308 0.930 . S
C2322 C2320 1.395 . S
C2322 C2325 1.403 . S
C2323 C2320 1.403 . S
C2323 C2324 1.524 . S
C2323 C2327 1.400 . S
C2324 H2309 0.960 . S
C2324 H2310 0.960 . S
C2324 H2311 0.960 . S
C2324 C2323 1.524 . S
C2325 C2322 1.403 . S
C2325 C2326 1.392 . S
C2325 C2329 1.495 . S
C2326 C2325 1.392 . S
C2326 C2327 1.385 . S
C2326 C2328 1.478 . S
C2327 H2321 0.930 . S
C2327 C2323 1.400 . S
C2327 C2326 1.385 . S
C2328 C2326 1.478 . S
C2328 C2330 1.381 . S
C2328 C2334 1.383 . S
C2329 C2325 1.495 . S
C2329 H2335 0.959 . S
C2329 H2336 0.961 . S
C2329 H2337 0.960 . S
C2330 C2328 1.381 . S
C2330 C2331 1.394 . S
C2330 H2338 0.930 . S
C2331 C2330 1.394 . S
C2331 C2332 1.383 . S
C2331 H2339 0.929 . S
C2332 C2331 1.383 . S
C2332 C2333 1.377 . S
C2333 H2317 0.930 . S
C2333 C2332 1.377 . S
C2333 C2334 1.379 . S
C2334 H2318 0.931 . S
C2334 C2328 1.383 . S
C2334 C2333 1.379 . S
H2335 C2329 0.959 . S
H2336 C2329 0.961 . S
H2337 C2329 0.960 . S
H2338 C2330 0.930 . S
H2339 C2331 0.929 . S
H2340 C2348 0.929 . S
H2341 C2350 0.930 . S
H2342 C2352 0.930 . S
H2343 C2355 0.929 . S
H2344 C2358 0.930 . S
H2345 C2360 0.960 . S
H2346 C2360 0.960 . S
H2347 C2360 0.960 . S
C2348 H2340 0.929 . S
C2348 C2349 1.377 . S
C2348 C2350 1.384 . S
C2349 C2348 1.377 . S
C2349 C2355 1.390 . S
C2350 H2341 0.930 . S
C2350 C2348 1.384 . S
C2350 C2351 1.372 . S
C2351 C2350 1.372 . S
C2351 C2352 1.400 . S
C2351 C2356 1.490 . S
C2352 H2342 0.930 . S
C2352 C2351 1.400 . S
C2352 C2355 1.386 . S
H2353 C2369 0.930 . S
H2354 C2370 0.931 . S
C2355 H2343 0.929 . S
C2355 C2349 1.390 . S
C2355 C2352 1.386 . S
C2356 C2351 1.490 . S
C2356 C2358 1.395 . S
C2356 C2359 1.403 . S
H2357 C2363 0.930 . S
C2358 H2344 0.930 . S
C2358 C2356 1.395 . S
C2358 C2361 1.403 . S
C2359 C2356 1.403 . S
C2359 C2360 1.524 . S
C2359 C2363 1.400 . S
C2360 H2345 0.960 . S
C2360 H2346 0.960 . S
C2360 H2347 0.960 . S
C2360 C2359 1.524 . S
C2361 C2358 1.403 . S
C2361 C2362 1.392 . S
C2361 C2365 1.495 . S
C2362 C2361 1.392 . S
C2362 C2363 1.385 . S
C2362 C2364 1.478 . S
C2363 H2357 0.930 . S
C2363 C2359 1.400 . S
C2363 C2362 1.385 . S
C2364 C2362 1.478 . S
C2364 C2366 1.381 . S
C2364 C2370 1.383 . S
C2365 C2361 1.495 . S
C2365 H2371 0.959 . S
C2365 H2372 0.961 . S
C2365 H2373 0.960 . S
C2366 C2364 1.381 . S
C2366 C2367 1.394 . S
C2366 H2374 0.930 . S
C2367 C2366 1.394 . S
C2367 C2368 1.383 . S
C2367 H2375 0.929 . S
C2368 C2367 1.383 . S
C2368 C2369 1.377 . S
C2369 H2353 0.930 . S
C2369 C2368 1.377 . S
C2369 C2370 1.379 . S
C2370 H2354 0.931 . S
C2370 C2364 1.383 . S
C2370 C2369 1.379 . S
H2371 C2365 0.959 . S
H2372 C2365 0.961 . S
H2373 C2365 0.960 . S
H2374 C2366 0.930 . S
H2375 C2367 0.929 . S
H2376 C2384 0.929 . S
H2377 C2386 0.930 . S
H2378 C2388 0.930 . S
H2379 C2391 0.929 . S
H2380 C2394 0.930 . S
H2381 C2396 0.960 . S
H2382 C2396 0.960 . S
H2383 C2396 0.960 . S
C2384 H2376 0.929 . S
C2384 C2385 1.377 . S
C2384 C2386 1.384 . S
C2385 C2384 1.377 . S
C2385 C2391 1.390 . S
C2386 H2377 0.930 . S
C2386 C2384 1.384 . S
C2386 C2387 1.372 . S
C2387 C2386 1.372 . S
C2387 C2388 1.400 . S
C2387 C2392 1.490 . S
C2388 H2378 0.930 . S
C2388 C2387 1.400 . S
C2388 C2391 1.386 . S
H2389 C2405 0.930 . S
H2390 C2406 0.931 . S
C2391 H2379 0.929 . S
C2391 C2385 1.390 . S
C2391 C2388 1.386 . S
C2392 C2387 1.490 . S
C2392 C2394 1.395 . S
C2392 C2395 1.403 . S
H2393 C2399 0.930 . S
C2394 H2380 0.930 . S
C2394 C2392 1.395 . S
C2394 C2397 1.403 . S
C2395 C2392 1.403 . S
C2395 C2396 1.524 . S
C2395 C2399 1.400 . S
C2396 H2381 0.960 . S
C2396 H2382 0.960 . S
C2396 H2383 0.960 . S
C2396 C2395 1.524 . S
C2397 C2394 1.403 . S
C2397 C2398 1.392 . S
C2397 C2401 1.495 . S
C2398 C2397 1.392 . S
C2398 C2399 1.385 . S
C2398 C2400 1.478 . S
C2399 H2393 0.930 . S
C2399 C2395 1.400 . S
C2399 C2398 1.385 . S
C2400 C2398 1.478 . S
C2400 C2402 1.381 . S
C2400 C2406 1.383 . S
C2401 C2397 1.495 . S
C2401 H2407 0.959 . S
C2401 H2408 0.961 . S
C2401 H2409 0.960 . S
C2402 C2400 1.381 . S
C2402 C2403 1.394 . S
C2402 H2410 0.930 . S
C2403 C2402 1.394 . S
C2403 C2404 1.383 . S
C2403 H2411 0.929 . S
C2404 C2403 1.383 . S
C2404 C2405 1.377 . S
C2405 H2389 0.930 . S
C2405 C2404 1.377 . S
C2405 C2406 1.379 . S
C2406 H2390 0.931 . S
C2406 C2400 1.383 . S
C2406 C2405 1.379 . S
H2407 C2401 0.959 . S
H2408 C2401 0.961 . S
H2409 C2401 0.960 . S
H2410 C2402 0.930 . S
H2411 C2403 0.929 . S
H2412 C2420 0.929 . S
H2413 C2422 0.930 . S
H2414 C2424 0.930 . S
H2415 C2427 0.929 . S
H2416 C2430 0.930 . S
H2417 C2432 0.960 . S
H2418 C2432 0.960 . S
H2419 C2432 0.960 . S
C2420 H2412 0.929 . S
C2420 C2421 1.377 . S
C2420 C2422 1.384 . S
C2421 C2420 1.377 . S
C2421 C2427 1.390 . S
C2422 H2413 0.930 . S
C2422 C2420 1.384 . S
C2422 C2423 1.372 . S
C2423 C2422 1.372 . S
C2423 C2424 1.400 . S
C2423 C2428 1.490 . S
C2424 H2414 0.930 . S
C2424 C2423 1.400 . S
C2424 C2427 1.386 . S
H2425 C2441 0.930 . S
H2426 C2442 0.931 . S
C2427 H2415 0.929 . S
C2427 C2421 1.390 . S
C2427 C2424 1.386 . S
C2428 C2423 1.490 . S
C2428 C2430 1.395 . S
C2428 C2431 1.403 . S
H2429 C2435 0.930 . S
C2430 H2416 0.930 . S
C2430 C2428 1.395 . S
C2430 C2433 1.403 . S
C2431 C2428 1.403 . S
C2431 C2432 1.524 . S
C2431 C2435 1.400 . S
C2432 H2417 0.960 . S
C2432 H2418 0.960 . S
C2432 H2419 0.960 . S
C2432 C2431 1.524 . S
C2433 C2430 1.403 . S
C2433 C2434 1.392 . S
C2433 C2437 1.495 . S
C2434 C2433 1.392 . S
C2434 C2435 1.385 . S
C2434 C2436 1.478 . S
C2435 H2429 0.930 . S
C2435 C2431 1.400 . S
C2435 C2434 1.385 . S
C2436 C2434 1.478 . S
C2436 C2438 1.381 . S
C2436 C2442 1.383 . S
C2437 C2433 1.495 . S
C2437 H2443 0.959 . S
C2437 H2444 0.961 . S
C2437 H2445 0.960 . S
C2438 C2436 1.381 . S
C2438 C2439 1.394 . S
C2438 H2446 0.930 . S
C2439 C2438 1.394 . S
C2439 C2440 1.383 . S
C2439 H2447 0.929 . S
C2440 C2439 1.383 . S
C2440 C2441 1.377 . S
C2441 H2425 0.930 . S
C2441 C2440 1.377 . S
C2441 C2442 1.379 . S
C2442 H2426 0.931 . S
C2442 C2436 1.383 . S
C2442 C2441 1.379 . S
H2443 C2437 0.959 . S
H2444 C2437 0.961 . S
H2445 C2437 0.960 . S
H2446 C2438 0.930 . S
H2447 C2439 0.929 . S
H2448 C2456 0.929 . S
H2449 C2458 0.930 . S
H2450 C2460 0.930 . S
H2451 C2463 0.929 . S
H2452 C2466 0.930 . S
H2453 C2468 0.960 . S
H2454 C2468 0.960 . S
H2455 C2468 0.960 . S
C2456 H2448 0.929 . S
C2456 C2457 1.377 . S
C2456 C2458 1.384 . S
C2457 C2456 1.377 . S
C2457 C2463 1.390 . S
C2458 H2449 0.930 . S
C2458 C2456 1.384 . S
C2458 C2459 1.372 . S
C2459 C2458 1.372 . S
C2459 C2460 1.400 . S
C2459 C2464 1.490 . S
C2460 H2450 0.930 . S
C2460 C2459 1.400 . S
C2460 C2463 1.386 . S
H2461 C2477 0.930 . S
H2462 C2478 0.931 . S
C2463 H2451 0.929 . S
C2463 C2457 1.390 . S
C2463 C2460 1.386 . S
C2464 C2459 1.490 . S
C2464 C2466 1.395 . S
C2464 C2467 1.403 . S
H2465 C2471 0.930 . S
C2466 H2452 0.930 . S
C2466 C2464 1.395 . S
C2466 C2469 1.403 . S
C2467 C2464 1.403 . S
C2467 C2468 1.524 . S
C2467 C2471 1.400 . S
C2468 H2453 0.960 . S
C2468 H2454 0.960 . S
C2468 H2455 0.960 . S
C2468 C2467 1.524 . S
C2469 C2466 1.403 . S
C2469 C2470 1.392 . S
C2469 C2473 1.495 . S
C2470 C2469 1.392 . S
C2470 C2471 1.385 . S
C2470 C2472 1.478 . S
C2471 H2465 0.930 . S
C2471 C2467 1.400 . S
C2471 C2470 1.385 . S
C2472 C2470 1.478 . S
C2472 C2474 1.381 . S
C2472 C2478 1.383 . S
C2473 C2469 1.495 . S
C2473 H2479 0.959 . S
C2473 H2480 0.961 . S
C2473 H2481 0.960 . S
C2474 C2472 1.381 . S
C2474 C2475 1.394 . S
C2474 H2482 0.930 . S
C2475 C2474 1.394 . S
C2475 C2476 1.383 . S
C2475 H2483 0.929 . S
C2476 C2475 1.383 . S
C2476 C2477 1.377 . S
C2477 H2461 0.930 . S
C2477 C2476 1.377 . S
C2477 C2478 1.379 . S
C2478 H2462 0.931 . S
C2478 C2472 1.383 . S
C2478 C2477 1.379 . S
H2479 C2473 0.959 . S
H2480 C2473 0.961 . S
H2481 C2473 0.960 . S
H2482 C2474 0.930 . S
H2483 C2475 0.929 . S
H2484 C2492 0.929 . S
H2485 C2494 0.930 . S
H2486 C2496 0.930 . S
H2487 C2499 0.929 . S
H2488 C2502 0.930 . S
H2489 C2504 0.960 . S
H2490 C2504 0.960 . S
H2491 C2504 0.960 . S
C2492 H2484 0.929 . S
C2492 C2493 1.377 . S
C2492 C2494 1.384 . S
C2493 C2492 1.377 . S
C2493 C2499 1.390 . S
C2494 H2485 0.930 . S
C2494 C2492 1.384 . S
C2494 C2495 1.372 . S
C2495 C2494 1.372 . S
C2495 C2496 1.400 . S
C2495 C2500 1.490 . S
C2496 H2486 0.930 . S
C2496 C2495 1.400 . S
C2496 C2499 1.386 . S
H2497 C2513 0.930 . S
H2498 C2514 0.931 . S
C2499 H2487 0.929 . S
C2499 C2493 1.390 . S
C2499 C2496 1.386 . S
C2500 C2495 1.490 . S
C2500 C2502 1.395 . S
C2500 C2503 1.403 . S
H2501 C2507 0.930 . S
C2502 H2488 0.930 . S
C2502 C2500 1.395 . S
C2502 C2505 1.403 . S
C2503 C2500 1.403 . S
C2503 C2504 1.524 . S
C2503 C2507 1.400 . S
C2504 H2489 0.960 . S
C2504 H2490 0.960 . S
C2504 H2491 0.960 . S
C2504 C2503 1.524 . S
C2505 C2502 1.403 . S
C2505 C2506 1.392 . S
C2505 C2509 1.495 . S
C2506 C2505 1.392 . S
C2506 C2507 1.385 . S
C2506 C2508 1.478 . S
C2507 H2501 0.930 . S
C2507 C2503 1.400 . S
C2507 C2506 1.385 . S
C2508 C2506 1.478 . S
C2508 C2510 1.381 . S
C2508 C2514 1.383 . S
C2509 C2505 1.495 . S
C2509 H2515 0.959 . S
C2509 H2516 0.961 . S
C2509 H2517 0.960 . S
C2510 C2508 1.381 . S
C2510 C2511 1.394 . S
C2510 H2518 0.930 . S
C2511 C2510 1.394 . S
C2511 C2512 1.383 . S
C2511 H2519 0.929 . S
C2512 C2511 1.383 . S
C2512 C2513 1.377 . S
C2513 H2497 0.930 . S
C2513 C2512 1.377 . S
C2513 C2514 1.379 . S
C2514 H2498 0.931 . S
C2514 C2508 1.383 . S
C2514 C2513 1.379 . S
H2515 C2509 0.959 . S
H2516 C2509 0.961 . S
H2517 C2509 0.960 . S
H2518 C2510 0.930 . S
H2519 C2511 0.929 . S
H2520 C2528 0.929 . S
H2521 C2530 0.930 . S
H2522 C2532 0.930 . S
H2523 C2535 0.929 . S
H2524 C2538 0.930 . S
H2525 C2540 0.960 . S
H2526 C2540 0.960 . S
H2527 C2540 0.960 . S
C2528 H2520 0.929 . S
C2528 C2529 1.377 . S
C2528 C2530 1.384 . S
C2529 C2528 1.377 . S
C2529 C2535 1.390 . S
C2530 H2521 0.930 . S
C2530 C2528 1.384 . S
C2530 C2531 1.372 . S
C2531 C2530 1.372 . S
C2531 C2532 1.400 . S
C2531 C2536 1.490 . S
C2532 H2522 0.930 . S
C2532 C2531 1.400 . S
C2532 C2535 1.386 . S
H2533 C2549 0.930 . S
H2534 C2550 0.931 . S
C2535 H2523 0.929 . S
C2535 C2529 1.390 . S
C2535 C2532 1.386 . S
C2536 C2531 1.490 . S
C2536 C2538 1.395 . S
C2536 C2539 1.403 . S
H2537 C2543 0.930 . S
C2538 H2524 0.930 . S
C2538 C2536 1.395 . S
C2538 C2541 1.403 . S
C2539 C2536 1.403 . S
C2539 C2540 1.524 . S
C2539 C2543 1.400 . S
C2540 H2525 0.960 . S
C2540 H2526 0.960 . S
C2540 H2527 0.960 . S
C2540 C2539 1.524 . S
C2541 C2538 1.403 . S
C2541 C2542 1.392 . S
C2541 C2545 1.495 . S
C2542 C2541 1.392 . S
C2542 C2543 1.385 . S
C2542 C2544 1.478 . S
C2543 H2537 0.930 . S
C2543 C2539 1.400 . S
C2543 C2542 1.385 . S
C2544 C2542 1.478 . S
C2544 C2546 1.381 . S
C2544 C2550 1.383 . S
C2545 C2541 1.495 . S
C2545 H2551 0.959 . S
C2545 H2552 0.961 . S
C2545 H2553 0.960 . S
C2546 C2544 1.381 . S
C2546 C2547 1.394 . S
C2546 H2554 0.930 . S
C2547 C2546 1.394 . S
C2547 C2548 1.383 . S
C2547 H2555 0.929 . S
C2548 C2547 1.383 . S
C2548 C2549 1.377 . S
C2549 H2533 0.930 . S
C2549 C2548 1.377 . S
C2549 C2550 1.379 . S
C2550 H2534 0.931 . S
C2550 C2544 1.383 . S
C2550 C2549 1.379 . S
H2551 C2545 0.959 . S
H2552 C2545 0.961 . S
H2553 C2545 0.960 . S
H2554 C2546 0.930 . S
H2555 C2547 0.929 . S
H2556 C2564 0.929 . S
H2557 C2566 0.930 . S
H2558 C2568 0.930 . S
H2559 C2571 0.929 . S
H2560 C2574 0.930 . S
H2561 C2576 0.960 . S
H2562 C2576 0.960 . S
H2563 C2576 0.960 . S
C2564 H2556 0.929 . S
C2564 C2565 1.377 . S
C2564 C2566 1.384 . S
C2565 C2564 1.377 . S
C2565 C2571 1.390 . S
C2566 H2557 0.930 . S
C2566 C2564 1.384 . S
C2566 C2567 1.372 . S
C2567 C2566 1.372 . S
C2567 C2568 1.400 . S
C2567 C2572 1.490 . S
C2568 H2558 0.930 . S
C2568 C2567 1.400 . S
C2568 C2571 1.386 . S
H2569 C2585 0.930 . S
H2570 C2586 0.931 . S
C2571 H2559 0.929 . S
C2571 C2565 1.390 . S
C2571 C2568 1.386 . S
C2572 C2567 1.490 . S
C2572 C2574 1.395 . S
C2572 C2575 1.403 . S
H2573 C2579 0.930 . S
C2574 H2560 0.930 . S
C2574 C2572 1.395 . S
C2574 C2577 1.403 . S
C2575 C2572 1.403 . S
C2575 C2576 1.524 . S
C2575 C2579 1.400 . S
C2576 H2561 0.960 . S
C2576 H2562 0.960 . S
C2576 H2563 0.960 . S
C2576 C2575 1.524 . S
C2577 C2574 1.403 . S
C2577 C2578 1.392 . S
C2577 C2581 1.495 . S
C2578 C2577 1.392 . S
C2578 C2579 1.385 . S
C2578 C2580 1.478 . S
C2579 H2573 0.930 . S
C2579 C2575 1.400 . S
C2579 C2578 1.385 . S
C2580 C2578 1.478 . S
C2580 C2582 1.381 . S
C2580 C2586 1.383 . S
C2581 C2577 1.495 . S
C2581 H2587 0.959 . S
C2581 H2588 0.961 . S
C2581 H2589 0.960 . S
C2582 C2580 1.381 . S
C2582 C2583 1.394 . S
C2582 H2590 0.930 . S
C2583 C2582 1.394 . S
C2583 C2584 1.383 . S
C2583 H2591 0.929 . S
C2584 C2583 1.383 . S
C2584 C2585 1.377 . S
C2585 H2569 0.930 . S
C2585 C2584 1.377 . S
C2585 C2586 1.379 . S
C2586 H2570 0.931 . S
C2586 C2580 1.383 . S
C2586 C2585 1.379 . S
H2587 C2581 0.959 . S
H2588 C2581 0.961 . S
H2589 C2581 0.960 . S
H2590 C2582 0.930 . S
H2591 C2583 0.929 . S
H2592 C2600 0.929 . S
H2593 C2602 0.930 . S
H2594 C2604 0.930 . S
H2595 C2607 0.929 . S
H2596 C2610 0.930 . S
H2597 C2612 0.960 . S
H2598 C2612 0.960 . S
H2599 C2612 0.960 . S
C2600 H2592 0.929 . S
C2600 C2601 1.377 . S
C2600 C2602 1.384 . S
C2601 C2600 1.377 . S
C2601 C2607 1.390 . S
C2602 H2593 0.930 . S
C2602 C2600 1.384 . S
C2602 C2603 1.372 . S
C2603 C2602 1.372 . S
C2603 C2604 1.400 . S
C2603 C2608 1.490 . S
C2604 H2594 0.930 . S
C2604 C2603 1.400 . S
C2604 C2607 1.386 . S
H2605 C2621 0.930 . S
H2606 C2622 0.931 . S
C2607 H2595 0.929 . S
C2607 C2601 1.390 . S
C2607 C2604 1.386 . S
C2608 C2603 1.490 . S
C2608 C2610 1.395 . S
C2608 C2611 1.403 . S
H2609 C2615 0.930 . S
C2610 H2596 0.930 . S
C2610 C2608 1.395 . S
C2610 C2613 1.403 . S
C2611 C2608 1.403 . S
C2611 C2612 1.524 . S
C2611 C2615 1.400 . S
C2612 H2597 0.960 . S
C2612 H2598 0.960 . S
C2612 H2599 0.960 . S
C2612 C2611 1.524 . S
C2613 C2610 1.403 . S
C2613 C2614 1.392 . S
C2613 C2617 1.495 . S
C2614 C2613 1.392 . S
C2614 C2615 1.385 . S
C2614 C2616 1.478 . S
C2615 H2609 0.930 . S
C2615 C2611 1.400 . S
C2615 C2614 1.385 . S
C2616 C2614 1.478 . S
C2616 C2618 1.381 . S
C2616 C2622 1.383 . S
C2617 C2613 1.495 . S
C2617 H2623 0.959 . S
C2617 H2624 0.961 . S
C2617 H2625 0.960 . S
C2618 C2616 1.381 . S
C2618 C2619 1.394 . S
C2618 H2626 0.930 . S
C2619 C2618 1.394 . S
C2619 C2620 1.383 . S
C2619 H2627 0.929 . S
C2620 C2619 1.383 . S
C2620 C2621 1.377 . S
C2621 H2605 0.930 . S
C2621 C2620 1.377 . S
C2621 C2622 1.379 . S
C2622 H2606 0.931 . S
C2622 C2616 1.383 . S
C2622 C2621 1.379 . S
H2623 C2617 0.959 . S
H2624 C2617 0.961 . S
H2625 C2617 0.960 . S
H2626 C2618 0.930 . S
H2627 C2619 0.929 . S
H2628 C2636 0.929 . S
H2629 C2638 0.930 . S
H2630 C2640 0.930 . S
H2631 C2643 0.929 . S
H2632 C2646 0.930 . S
H2633 C2648 0.960 . S
H2634 C2648 0.960 . S
H2635 C2648 0.960 . S
C2636 H2628 0.929 . S
C2636 C2637 1.377 . S
C2636 C2638 1.384 . S
C2637 C2636 1.377 . S
C2637 C2643 1.390 . S
C2638 H2629 0.930 . S
C2638 C2636 1.384 . S
C2638 C2639 1.372 . S
C2639 C2638 1.372 . S
C2639 C2640 1.400 . S
C2639 C2644 1.490 . S
C2640 H2630 0.930 . S
C2640 C2639 1.400 . S
C2640 C2643 1.386 . S
H2641 C2657 0.930 . S
H2642 C2658 0.931 . S
C2643 H2631 0.929 . S
C2643 C2637 1.390 . S
C2643 C2640 1.386 . S
C2644 C2639 1.490 . S
C2644 C2646 1.395 . S
C2644 C2647 1.403 . S
H2645 C2651 0.930 . S
C2646 H2632 0.930 . S
C2646 C2644 1.395 . S
C2646 C2649 1.403 . S
C2647 C2644 1.403 . S
C2647 C2648 1.524 . S
C2647 C2651 1.400 . S
C2648 H2633 0.960 . S
C2648 H2634 0.960 . S
C2648 H2635 0.960 . S
C2648 C2647 1.524 . S
C2649 C2646 1.403 . S
C2649 C2650 1.392 . S
C2649 C2653 1.495 . S
C2650 C2649 1.392 . S
C2650 C2651 1.385 . S
C2650 C2652 1.478 . S
C2651 H2645 0.930 . S
C2651 C2647 1.400 . S
C2651 C2650 1.385 . S
C2652 C2650 1.478 . S
C2652 C2654 1.381 . S
C2652 C2658 1.383 . S
C2653 C2649 1.495 . S
C2653 H2659 0.959 . S
C2653 H2660 0.961 . S
C2653 H2661 0.960 . S
C2654 C2652 1.381 . S
C2654 C2655 1.394 . S
C2654 H2662 0.930 . S
C2655 C2654 1.394 . S
C2655 C2656 1.383 . S
C2655 H2663 0.929 . S
C2656 C2655 1.383 . S
C2656 C2657 1.377 . S
C2657 H2641 0.930 . S
C2657 C2656 1.377 . S
C2657 C2658 1.379 . S
C2658 H2642 0.931 . S
C2658 C2652 1.383 . S
C2658 C2657 1.379 . S
H2659 C2653 0.959 . S
H2660 C2653 0.961 . S
H2661 C2653 0.960 . S
H2662 C2654 0.930 . S
H2663 C2655 0.929 . S
H2664 C2672 0.929 . S
H2665 C2674 0.930 . S
H2666 C2676 0.930 . S
H2667 C2679 0.929 . S
H2668 C2682 0.930 . S
H2669 C2684 0.960 . S
H2670 C2684 0.960 . S
H2671 C2684 0.960 . S
C2672 H2664 0.929 . S
C2672 C2673 1.377 . S
C2672 C2674 1.384 . S
C2673 C2672 1.377 . S
C2673 C2679 1.390 . S
C2674 H2665 0.930 . S
C2674 C2672 1.384 . S
C2674 C2675 1.372 . S
C2675 C2674 1.372 . S
C2675 C2676 1.400 . S
C2675 C2680 1.490 . S
C2676 H2666 0.930 . S
C2676 C2675 1.400 . S
C2676 C2679 1.386 . S
H2677 C2693 0.930 . S
H2678 C2694 0.931 . S
C2679 H2667 0.929 . S
C2679 C2673 1.390 . S
C2679 C2676 1.386 . S
C2680 C2675 1.490 . S
C2680 C2682 1.395 . S
C2680 C2683 1.403 . S
H2681 C2687 0.930 . S
C2682 H2668 0.930 . S
C2682 C2680 1.395 . S
C2682 C2685 1.403 . S
C2683 C2680 1.403 . S
C2683 C2684 1.524 . S
C2683 C2687 1.400 . S
C2684 H2669 0.960 . S
C2684 H2670 0.960 . S
C2684 H2671 0.960 . S
C2684 C2683 1.524 . S
C2685 C2682 1.403 . S
C2685 C2686 1.392 . S
C2685 C2689 1.495 . S
C2686 C2685 1.392 . S
C2686 C2687 1.385 . S
C2686 C2688 1.478 . S
C2687 H2681 0.930 . S
C2687 C2683 1.400 . S
C2687 C2686 1.385 . S
C2688 C2686 1.478 . S
C2688 C2690 1.381 . S
C2688 C2694 1.383 . S
C2689 C2685 1.495 . S
C2689 H2695 0.959 . S
C2689 H2696 0.961 . S
C2689 H2697 0.960 . S
C2690 C2688 1.381 . S
C2690 C2691 1.394 . S
C2690 H2698 0.930 . S
C2691 C2690 1.394 . S
C2691 C2692 1.383 . S
C2691 H2699 0.929 . S
C2692 C2691 1.383 . S
C2692 C2693 1.377 . S
C2693 H2677 0.930 . S
C2693 C2692 1.377 . S
C2693 C2694 1.379 . S
C2694 H2678 0.931 . S
C2694 C2688 1.383 . S
C2694 C2693 1.379 . S
H2695 C2689 0.959 . S
H2696 C2689 0.961 . S
H2697 C2689 0.960 . S
H2698 C2690 0.930 . S
H2699 C2691 0.929 . S
H2700 C2708 0.929 . S
H2701 C2710 0.930 . S
H2702 C2712 0.930 . S
H2703 C2715 0.929 . S
H2704 C2718 0.930 . S
H2705 C2720 0.960 . S
H2706 C2720 0.960 . S
H2707 C2720 0.960 . S
C2708 H2700 0.929 . S
C2708 C2709 1.377 . S
C2708 C2710 1.384 . S
C2709 C2708 1.377 . S
C2709 C2715 1.390 . S
C2710 H2701 0.930 . S
C2710 C2708 1.384 . S
C2710 C2711 1.372 . S
C2711 C2710 1.372 . S
C2711 C2712 1.400 . S
C2711 C2716 1.490 . S
C2712 H2702 0.930 . S
C2712 C2711 1.400 . S
C2712 C2715 1.386 . S
H2713 C2729 0.930 . S
H2714 C2730 0.931 . S
C2715 H2703 0.929 . S
C2715 C2709 1.390 . S
C2715 C2712 1.386 . S
C2716 C2711 1.490 . S
C2716 C2718 1.395 . S
C2716 C2719 1.403 . S
H2717 C2723 0.930 . S
C2718 H2704 0.930 . S
C2718 C2716 1.395 . S
C2718 C2721 1.403 . S
C2719 C2716 1.403 . S
C2719 C2720 1.524 . S
C2719 C2723 1.400 . S
C2720 H2705 0.960 . S
C2720 H2706 0.960 . S
C2720 H2707 0.960 . S
C2720 C2719 1.524 . S
C2721 C2718 1.403 . S
C2721 C2722 1.392 . S
C2721 C2725 1.495 . S
C2722 C2721 1.392 . S
C2722 C2723 1.385 . S
C2722 C2724 1.478 . S
C2723 H2717 0.930 . S
C2723 C2719 1.400 . S
C2723 C2722 1.385 . S
C2724 C2722 1.478 . S
C2724 C2726 1.381 . S
C2724 C2730 1.383 . S
C2725 C2721 1.495 . S
C2725 H2731 0.959 . S
C2725 H2732 0.961 . S
C2725 H2733 0.960 . S
C2726 C2724 1.381 . S
C2726 C2727 1.394 . S
C2726 H2734 0.930 . S
C2727 C2726 1.394 . S
C2727 C2728 1.383 . S
C2727 H2735 0.929 . S
C2728 C2727 1.383 . S
C2728 C2729 1.377 . S
C2729 H2713 0.930 . S
C2729 C2728 1.377 . S
C2729 C2730 1.379 . S
C2730 H2714 0.931 . S
C2730 C2724 1.383 . S
C2730 C2729 1.379 . S
H2731 C2725 0.959 . S
H2732 C2725 0.961 . S
H2733 C2725 0.960 . S
H2734 C2726 0.930 . S
H2735 C2727 0.929 . S
H2736 C2744 0.929 . S
H2737 C2746 0.930 . S
H2738 C2748 0.930 . S
H2739 C2751 0.929 . S
H2740 C2754 0.930 . S
H2741 C2756 0.960 . S
H2742 C2756 0.960 . S
H2743 C2756 0.960 . S
C2744 H2736 0.929 . S
C2744 C2745 1.377 . S
C2744 C2746 1.384 . S
C2745 C2744 1.377 . S
C2745 C2751 1.390 . S
C2746 H2737 0.930 . S
C2746 C2744 1.384 . S
C2746 C2747 1.372 . S
C2747 C2746 1.372 . S
C2747 C2748 1.400 . S
C2747 C2752 1.490 . S
C2748 H2738 0.930 . S
C2748 C2747 1.400 . S
C2748 C2751 1.386 . S
H2749 C2765 0.930 . S
H2750 C2766 0.931 . S
C2751 H2739 0.929 . S
C2751 C2745 1.390 . S
C2751 C2748 1.386 . S
C2752 C2747 1.490 . S
C2752 C2754 1.395 . S
C2752 C2755 1.403 . S
H2753 C2759 0.930 . S
C2754 H2740 0.930 . S
C2754 C2752 1.395 . S
C2754 C2757 1.403 . S
C2755 C2752 1.403 . S
C2755 C2756 1.524 . S
C2755 C2759 1.400 . S
C2756 H2741 0.960 . S
C2756 H2742 0.960 . S
C2756 H2743 0.960 . S
C2756 C2755 1.524 . S
C2757 C2754 1.403 . S
C2757 C2758 1.392 . S
C2757 C2761 1.495 . S
C2758 C2757 1.392 . S
C2758 C2759 1.385 . S
C2758 C2760 1.478 . S
C2759 H2753 0.930 . S
C2759 C2755 1.400 . S
C2759 C2758 1.385 . S
C2760 C2758 1.478 . S
C2760 C2762 1.381 . S
C2760 C2766 1.383 . S
C2761 C2757 1.495 . S
C2761 H2767 0.959 . S
C2761 H2768 0.961 . S
C2761 H2769 0.960 . S
C2762 C2760 1.381 . S
C2762 C2763 1.394 . S
C2762 H2770 0.930 . S
C2763 C2762 1.394 . S
C2763 C2764 1.383 . S
C2763 H2771 0.929 . S
C2764 C2763 1.383 . S
C2764 C2765 1.377 . S
C2765 H2749 0.930 . S
C2765 C2764 1.377 . S
C2765 C2766 1.379 . S
C2766 H2750 0.931 . S
C2766 C2760 1.383 . S
C2766 C2765 1.379 . S
H2767 C2761 0.959 . S
H2768 C2761 0.961 . S
H2769 C2761 0.960 . S
H2770 C2762 0.930 . S
H2771 C2763 0.929 . S
H2772 C2780 0.929 . S
H2773 C2782 0.930 . S
H2774 C2784 0.930 . S
H2775 C2787 0.929 . S
H2776 C2790 0.930 . S
H2777 C2792 0.960 . S
H2778 C2792 0.960 . S
H2779 C2792 0.960 . S
C2780 H2772 0.929 . S
C2780 C2781 1.377 . S
C2780 C2782 1.384 . S
C2781 C2780 1.377 . S
C2781 C2787 1.390 . S
C2782 H2773 0.930 . S
C2782 C2780 1.384 . S
C2782 C2783 1.372 . S
C2783 C2782 1.372 . S
C2783 C2784 1.400 . S
C2783 C2788 1.490 . S
C2784 H2774 0.930 . S
C2784 C2783 1.400 . S
C2784 C2787 1.386 . S
H2785 C2801 0.930 . S
H2786 C2802 0.931 . S
C2787 H2775 0.929 . S
C2787 C2781 1.390 . S
C2787 C2784 1.386 . S
C2788 C2783 1.490 . S
C2788 C2790 1.395 . S
C2788 C2791 1.403 . S
H2789 C2795 0.930 . S
C2790 H2776 0.930 . S
C2790 C2788 1.395 . S
C2790 C2793 1.403 . S
C2791 C2788 1.403 . S
C2791 C2792 1.524 . S
C2791 C2795 1.400 . S
C2792 H2777 0.960 . S
C2792 H2778 0.960 . S
C2792 H2779 0.960 . S
C2792 C2791 1.524 . S
C2793 C2790 1.403 . S
C2793 C2794 1.392 . S
C2793 C2797 1.495 . S
C2794 C2793 1.392 . S
C2794 C2795 1.385 . S
C2794 C2796 1.478 . S
C2795 H2789 0.930 . S
C2795 C2791 1.400 . S
C2795 C2794 1.385 . S
C2796 C2794 1.478 . S
C2796 C2798 1.381 . S
C2796 C2802 1.383 . S
C2797 C2793 1.495 . S
C2797 H2803 0.959 . S
C2797 H2804 0.961 . S
C2797 H2805 0.960 . S
C2798 C2796 1.381 . S
C2798 C2799 1.394 . S
C2798 H2806 0.930 . S
C2799 C2798 1.394 . S
C2799 C2800 1.383 . S
C2799 H2807 0.929 . S
C2800 C2799 1.383 . S
C2800 C2801 1.377 . S
C2801 H2785 0.930 . S
C2801 C2800 1.377 . S
C2801 C2802 1.379 . S
C2802 H2786 0.931 . S
C2802 C2796 1.383 . S
C2802 C2801 1.379 . S
H2803 C2797 0.959 . S
H2804 C2797 0.961 . S
H2805 C2797 0.960 . S
H2806 C2798 0.930 . S
H2807 C2799 0.929 . S
H2808 C2816 0.929 . S
H2809 C2818 0.930 . S
H2810 C2820 0.930 . S
H2811 C2823 0.929 . S
H2812 C2826 0.930 . S
H2813 C2828 0.960 . S
H2814 C2828 0.960 . S
H2815 C2828 0.960 . S
C2816 H2808 0.929 . S
C2816 C2817 1.377 . S
C2816 C2818 1.384 . S
C2817 C2816 1.377 . S
C2817 C2823 1.390 . S
C2818 H2809 0.930 . S
C2818 C2816 1.384 . S
C2818 C2819 1.372 . S
C2819 C2818 1.372 . S
C2819 C2820 1.400 . S
C2819 C2824 1.490 . S
C2820 H2810 0.930 . S
C2820 C2819 1.400 . S
C2820 C2823 1.386 . S
H2821 C2837 0.930 . S
H2822 C2838 0.931 . S
C2823 H2811 0.929 . S
C2823 C2817 1.390 . S
C2823 C2820 1.386 . S
C2824 C2819 1.490 . S
C2824 C2826 1.395 . S
C2824 C2827 1.403 . S
H2825 C2831 0.930 . S
C2826 H2812 0.930 . S
C2826 C2824 1.395 . S
C2826 C2829 1.403 . S
C2827 C2824 1.403 . S
C2827 C2828 1.524 . S
C2827 C2831 1.400 . S
C2828 H2813 0.960 . S
C2828 H2814 0.960 . S
C2828 H2815 0.960 . S
C2828 C2827 1.524 . S
C2829 C2826 1.403 . S
C2829 C2830 1.392 . S
C2829 C2833 1.495 . S
C2830 C2829 1.392 . S
C2830 C2831 1.385 . S
C2830 C2832 1.478 . S
C2831 H2825 0.930 . S
C2831 C2827 1.400 . S
C2831 C2830 1.385 . S
C2832 C2830 1.478 . S
C2832 C2834 1.381 . S
C2832 C2838 1.383 . S
C2833 C2829 1.495 . S
C2833 H2839 0.959 . S
C2833 H2840 0.961 . S
C2833 H2841 0.960 . S
C2834 C2832 1.381 . S
C2834 C2835 1.394 . S
C2834 H2842 0.930 . S
C2835 C2834 1.394 . S
C2835 C2836 1.383 . S
C2835 H2843 0.929 . S
C2836 C2835 1.383 . S
C2836 C2837 1.377 . S
C2837 H2821 0.930 . S
C2837 C2836 1.377 . S
C2837 C2838 1.379 . S
C2838 H2822 0.931 . S
C2838 C2832 1.383 . S
C2838 C2837 1.379 . S
H2839 C2833 0.959 . S
H2840 C2833 0.961 . S
H2841 C2833 0.960 . S
H2842 C2834 0.930 . S
H2843 C2835 0.929 . S
H2844 C2852 0.929 . S
H2845 C2854 0.930 . S
H2846 C2856 0.930 . S
H2847 C2859 0.929 . S
H2848 C2862 0.930 . S
H2849 C2864 0.960 . S
H2850 C2864 0.960 . S
H2851 C2864 0.960 . S
C2852 H2844 0.929 . S
C2852 C2853 1.377 . S
C2852 C2854 1.384 . S
C2853 C2852 1.377 . S
C2853 C2859 1.390 . S
C2854 H2845 0.930 . S
C2854 C2852 1.384 . S
C2854 C2855 1.372 . S
C2855 C2854 1.372 . S
C2855 C2856 1.400 . S
C2855 C2860 1.490 . S
C2856 H2846 0.930 . S
C2856 C2855 1.400 . S
C2856 C2859 1.386 . S
H2857 C2873 0.930 . S
H2858 C2874 0.931 . S
C2859 H2847 0.929 . S
C2859 C2853 1.390 . S
C2859 C2856 1.386 . S
C2860 C2855 1.490 . S
C2860 C2862 1.395 . S
C2860 C2863 1.403 . S
H2861 C2867 0.930 . S
C2862 H2848 0.930 . S
C2862 C2860 1.395 . S
C2862 C2865 1.403 . S
C2863 C2860 1.403 . S
C2863 C2864 1.524 . S
C2863 C2867 1.400 . S
C2864 H2849 0.960 . S
C2864 H2850 0.960 . S
C2864 H2851 0.960 . S
C2864 C2863 1.524 . S
C2865 C2862 1.403 . S
C2865 C2866 1.392 . S
C2865 C2869 1.495 . S
C2866 C2865 1.392 . S
C2866 C2867 1.385 . S
C2866 C2868 1.478 . S
C2867 H2861 0.930 . S
C2867 C2863 1.400 . S
C2867 C2866 1.385 . S
C2868 C2866 1.478 . S
C2868 C2870 1.381 . S
C2868 C2874 1.383 . S
C2869 C2865 1.495 . S
C2869 H2875 0.959 . S
C2869 H2876 0.961 . S
C2869 H2877 0.960 . S
C2870 C2868 1.381 . S
C2870 C2871 1.394 . S
C2870 H2878 0.930 . S
C2871 C2870 1.394 . S
C2871 C2872 1.383 . S
C2871 H2879 0.929 . S
C2872 C2871 1.383 . S
C2872 C2873 1.377 . S
C2873 H2857 0.930 . S
C2873 C2872 1.377 . S
C2873 C2874 1.379 . S
C2874 H2858 0.931 . S
C2874 C2868 1.383 . S
C2874 C2873 1.379 . S
H2875 C2869 0.959 . S
H2876 C2869 0.961 . S
H2877 C2869 0.960 . S
H2878 C2870 0.930 . S
H2879 C2871 0.929 . S
H2880 C2888 0.929 . S
H2881 C2890 0.930 . S
H2882 C2892 0.930 . S
H2883 C2895 0.929 . S
H2884 C2898 0.930 . S
H2885 C2900 0.960 . S
H2886 C2900 0.960 . S
H2887 C2900 0.960 . S
C2888 H2880 0.929 . S
C2888 C2889 1.377 . S
C2888 C2890 1.384 . S
C2889 C2888 1.377 . S
C2889 C2895 1.390 . S
C2890 H2881 0.930 . S
C2890 C2888 1.384 . S
C2890 C2891 1.372 . S
C2891 C2890 1.372 . S
C2891 C2892 1.400 . S
C2891 C2896 1.490 . S
C2892 H2882 0.930 . S
C2892 C2891 1.400 . S
C2892 C2895 1.386 . S
H2893 C2909 0.930 . S
H2894 C2910 0.931 . S
C2895 H2883 0.929 . S
C2895 C2889 1.390 . S
C2895 C2892 1.386 . S
C2896 C2891 1.490 . S
C2896 C2898 1.395 . S
C2896 C2899 1.403 . S
H2897 C2903 0.930 . S
C2898 H2884 0.930 . S
C2898 C2896 1.395 . S
C2898 C2901 1.403 1_455 S
C2899 C2896 1.403 . S
C2899 C2900 1.524 . S
C2899 C2903 1.400 1_455 S
C2900 H2885 0.960 . S
C2900 H2886 0.960 . S
C2900 H2887 0.960 . S
C2900 C2899 1.524 . S
C2901 C2898 1.403 1_655 S
C2901 C2902 1.392 . S
C2901 C2905 1.495 . S
C2902 C2901 1.392 . S
C2902 C2903 1.385 . S
C2902 C2904 1.478 . S
C2903 H2897 0.930 . S
C2903 C2899 1.400 1_655 S
C2903 C2902 1.385 . S
C2904 C2902 1.478 . S
C2904 C2906 1.381 . S
C2904 C2910 1.383 . S
C2905 C2901 1.495 . S
C2905 H2911 0.959 . S
C2905 H2912 0.961 . S
C2905 H2913 0.960 . S
C2906 C2904 1.381 . S
C2906 C2907 1.394 . S
C2906 H2914 0.930 . S
C2907 C2906 1.394 . S
C2907 C2908 1.383 . S
C2907 H2915 0.929 . S
C2908 C2907 1.383 . S
C2908 C2909 1.377 . S
C2909 H2893 0.930 . S
C2909 C2908 1.377 . S
C2909 C2910 1.379 . S
C2910 H2894 0.931 . S
C2910 C2904 1.383 . S
C2910 C2909 1.379 . S
H2911 C2905 0.959 . S
H2912 C2905 0.961 . S
H2913 C2905 0.960 . S
H2914 C2906 0.930 . S
H2915 C2907 0.929 . S
H2916 C2924 0.929 . S
H2917 C2926 0.930 . S
H2918 C2928 0.930 . S
H2919 C2931 0.929 . S
H2920 C2934 0.930 . S
H2921 C2936 0.960 . S
H2922 C2936 0.960 . S
H2923 C2936 0.960 . S
C2924 H2916 0.929 . S
C2924 C2925 1.377 . S
C2924 C2926 1.384 . S
C2925 C2924 1.377 . S
C2925 C2931 1.390 . S
C2926 H2917 0.930 . S
C2926 C2924 1.384 . S
C2926 C2927 1.372 . S
C2927 C2926 1.372 . S
C2927 C2928 1.400 . S
C2927 C2932 1.490 . S
C2928 H2918 0.930 . S
C2928 C2927 1.400 . S
C2928 C2931 1.386 . S
H2929 C2945 0.930 . S
H2930 C2946 0.931 . S
C2931 H2919 0.929 . S
C2931 C2925 1.390 . S
C2931 C2928 1.386 . S
C2932 C2927 1.490 . S
C2932 C2934 1.395 . S
C2932 C2935 1.403 . S
H2933 C2939 0.930 . S
C2934 H2920 0.930 . S
C2934 C2932 1.395 . S
C2934 C2937 1.403 . S
C2935 C2932 1.403 . S
C2935 C2936 1.524 . S
C2935 C2939 1.400 . S
C2936 H2921 0.960 . S
C2936 H2922 0.960 . S
C2936 H2923 0.960 . S
C2936 C2935 1.524 . S
C2937 C2934 1.403 . S
C2937 C2938 1.392 . S
C2937 C2941 1.495 . S
C2938 C2937 1.392 . S
C2938 C2939 1.385 . S
C2938 C2940 1.478 . S
C2939 H2933 0.930 . S
C2939 C2935 1.400 . S
C2939 C2938 1.385 . S
C2940 C2938 1.478 . S
C2940 C2942 1.381 . S
C2940 C2946 1.383 . S
C2941 C2937 1.495 . S
C2941 H2947 0.959 . S
C2941 H2948 0.961 . S
C2941 H2949 0.960 . S
C2942 C2940 1.381 . S
C2942 C2943 1.394 . S
C2942 H2950 0.930 . S
C2943 C2942 1.394 . S
C2943 C2944 1.383 . S
C2943 H2951 0.929 . S
C2944 C2943 1.383 . S
C2944 C2945 1.377 . S
C2945 H2929 0.930 . S
C2945 C2944 1.377 . S
C2945 C2946 1.379 . S
C2946 H2930 0.931 . S
C2946 C2940 1.383 . S
C2946 C2945 1.379 . S
H2947 C2941 0.959 . S
H2948 C2941 0.961 . S
H2949 C2941 0.960 . S
H2950 C2942 0.930 . S
H2951 C2943 0.929 . S
H2952 C2960 0.929 . S
H2953 C2962 0.930 . S
H2954 C2964 0.930 . S
H2955 C2967 0.929 . S
H2956 C2970 0.930 . S
H2957 C2972 0.960 . S
H2958 C2972 0.960 . S
H2959 C2972 0.960 . S
C2960 H2952 0.929 . S
C2960 C2961 1.377 . S
C2960 C2962 1.384 . S
C2961 C2960 1.377 . S
C2961 C2967 1.390 . S
C2962 H2953 0.930 . S
C2962 C2960 1.384 . S
C2962 C2963 1.372 . S
C2963 C2962 1.372 . S
C2963 C2964 1.400 . S
C2963 C2968 1.490 . S
C2964 H2954 0.930 . S
C2964 C2963 1.400 . S
C2964 C2967 1.386 . S
H2965 C2981 0.930 . S
H2966 C2982 0.931 . S
C2967 H2955 0.929 . S
C2967 C2961 1.390 . S
C2967 C2964 1.386 . S
C2968 C2963 1.490 . S
C2968 C2970 1.395 . S
C2968 C2971 1.403 . S
H2969 C2975 0.930 . S
C2970 H2956 0.930 . S
C2970 C2968 1.395 . S
C2970 C2973 1.403 1_545 S
C2971 C2968 1.403 . S
C2971 C2972 1.524 . S
C2971 C2975 1.400 1_545 S
C2972 H2957 0.960 . S
C2972 H2958 0.960 . S
C2972 H2959 0.960 . S
C2972 C2971 1.524 . S
C2973 C2970 1.403 1_565 S
C2973 C2974 1.392 . S
C2973 C2977 1.495 . S
C2974 C2973 1.392 . S
C2974 C2975 1.385 . S
C2974 C2976 1.478 . S
C2975 H2969 0.930 . S
C2975 C2971 1.400 1_565 S
C2975 C2974 1.385 . S
C2976 C2974 1.478 . S
C2976 C2978 1.381 . S
C2976 C2982 1.383 . S
C2977 C2973 1.495 . S
C2977 H2983 0.959 . S
C2977 H2984 0.961 . S
C2977 H2985 0.960 . S
C2978 C2976 1.381 . S
C2978 C2979 1.394 . S
C2978 H2986 0.930 . S
C2979 C2978 1.394 . S
C2979 C2980 1.383 . S
C2979 H2987 0.929 . S
C2980 C2979 1.383 . S
C2980 C2981 1.377 . S
C2981 H2965 0.930 . S
C2981 C2980 1.377 . S
C2981 C2982 1.379 . S
C2982 H2966 0.931 . S
C2982 C2976 1.383 . S
C2982 C2981 1.379 . S
H2983 C2977 0.959 . S
H2984 C2977 0.961 . S
H2985 C2977 0.960 . S
H2986 C2978 0.930 . S
H2987 C2979 0.929 . S
H2988 C2996 0.929 . S
H2989 C2998 0.930 . S
H2990 C3000 0.930 1_554 S
H2991 C3003 0.929 . S
H2992 C3006 0.932 . S
H2993 C3008 0.960 1_565 S
H2994 C3008 0.960 . S
H2995 C3008 0.960 . S
C2996 H2988 0.929 . S
C2996 C2997 1.377 . S
C2996 C2998 1.384 . S
C2997 C2996 1.377 . S
C2997 C3003 1.390 . S
C2998 H2989 0.930 . S
C2998 C2996 1.384 . S
C2998 C2999 1.372 . S
C2999 C2998 1.372 . S
C2999 C3000 1.400 . S
C2999 C3004 1.490 . S
C3000 H2990 0.930 1_556 S
C3000 C2999 1.400 . S
C3000 C3003 1.386 . S
H3001 C3017 0.930 . S
H3002 C3018 0.931 . S
C3003 H2991 0.929 . S
C3003 C2997 1.390 . S
C3003 C3000 1.386 . S
C3004 C2999 1.490 . S
C3004 C3006 1.406 . S
C3004 C3007 1.403 . S
H3005 C3011 0.930 . S
C3006 H2992 0.932 . S
C3006 C3004 1.406 . S
C3006 C3009 1.392 1_546 S
C3007 C3004 1.403 . S
C3007 C3008 1.524 . S
C3007 C3011 1.400 1_546 S
C3008 H2993 0.960 1_545 S
C3008 H2994 0.960 . S
C3008 H2995 0.960 . S
C3008 C3007 1.524 . S
C3009 C3006 1.392 1_564 S
C3009 C3010 1.392 . S
C3009 C3013 1.495 . S
C3010 C3009 1.392 . S
C3010 C3011 1.385 . S
C3010 C3012 1.478 . S
C3011 H3005 0.930 . S
C3011 C3007 1.400 1_564 S
C3011 C3010 1.385 . S
C3012 C3010 1.478 . S
C3012 C3014 1.381 . S
C3012 C3018 1.383 . S
C3013 C3009 1.495 . S
C3013 H3019 0.959 1_565 S
C3013 H3020 0.961 . S
C3013 H3021 0.960 . S
C3014 C3012 1.381 . S
C3014 C3015 1.394 . S
C3014 H3022 0.930 1_554 S
C3015 C3014 1.394 . S
C3015 C3016 1.383 . S
C3015 H3023 0.923 1_554 S
C3016 C3015 1.383 . S
C3016 C3017 1.377 . S
C3017 H3001 0.930 . S
C3017 C3016 1.377 . S
C3017 C3018 1.379 . S
C3018 H3002 0.931 . S
C3018 C3012 1.383 . S
C3018 C3017 1.379 . S
H3019 C3013 0.959 1_545 S
H3020 C3013 0.961 . S
H3021 C3013 0.960 . S
H3022 C3014 0.930 1_556 S
H3023 C3015 0.923 1_556 S
H3024 C3032 0.929 1_554 S
H3025 C3034 0.921 1_554 S
H3026 C3036 0.930 . S
H3027 C3039 0.929 . S
H3028 C3042 0.930 . S
H3029 C3044 0.960 1_554 S
H3030 C3044 0.960 1_554 S
H3031 C3044 0.960 . S
C3032 H3024 0.929 1_556 S
C3032 C3033 1.377 . S
C3032 C3034 1.387 . S
C3033 C3032 1.377 . S
C3033 C3039 1.390 . S
C3034 H3025 0.921 1_556 S
C3034 C3032 1.387 . S
C3034 C3035 1.378 . S
C3035 C3034 1.378 . S
C3035 C3036 1.400 . S
C3035 C3040 1.490 . S
C3036 H3026 0.930 . S
C3036 C3035 1.400 . S
C3036 C3039 1.386 . S
H3037 C3053 0.930 1_556 S
H3038 C3054 0.947 . S
C3039 H3027 0.929 . S
C3039 C3033 1.390 . S
C3039 C3036 1.386 . S
C3040 C3035 1.490 . S
C3040 C3042 1.395 . S
C3040 C3043 1.410 . S
H3041 C3047 0.930 . S
C3042 H3028 0.930 . S
C3042 C3040 1.395 . S
C3042 C3045 1.403 1_656 S
C3043 C3040 1.410 . S
C3043 C3044 1.524 . S
C3043 C3047 1.392 1_656 S
C3044 H3029 0.960 1_556 S
C3044 H3030 0.960 1_556 S
C3044 H3031 0.960 . S
C3044 C3043 1.524 . S
C3045 C3042 1.403 1_454 S
C3045 C3046 1.392 . S
C3045 C3049 1.495 . S
C3046 C3045 1.392 . S
C3046 C3047 1.385 . S
C3046 C3048 1.478 . S
C3047 H3041 0.930 . S
C3047 C3043 1.392 1_454 S
C3047 C3046 1.385 . S
C3048 C3046 1.478 . S
C3048 C3050 1.381 . S
C3048 C3054 1.372 1_554 S
C3049 C3045 1.495 . S
C3049 H3055 0.962 . S
C3049 H3056 0.961 1_554 S
C3049 H3057 0.960 . S
C3050 C3048 1.381 . S
C3050 C3051 1.394 . S
C3050 H3058 0.930 . S
C3051 C3050 1.394 . S
C3051 C3052 1.383 . S
C3051 H3059 0.929 . S
C3052 C3051 1.383 . S
C3052 C3053 1.377 . S
C3053 H3037 0.930 1_554 S
C3053 C3052 1.377 . S
C3053 C3054 1.375 1_554 S
C3054 H3038 0.947 . S
C3054 C3048 1.372 1_556 S
C3054 C3053 1.375 1_556 S
H3055 C3049 0.962 . S
H3056 C3049 0.961 1_556 S
H3057 C3049 0.960 . S
H3058 C3050 0.930 . S
H3059 C3051 0.929 . S
H3060 C3068 0.929 . S
H3061 C3070 0.930 . S
H3062 C3072 0.930 . S
H3063 C3075 0.929 . S
H3064 C3078 0.930 . S
H3065 C3080 0.960 . S
H3066 C3080 0.960 . S
H3067 C3080 0.960 . S
C3068 H3060 0.929 . S
C3068 C3069 1.377 . S
C3068 C3070 1.384 . S
C3069 C3068 1.377 . S
C3069 C3075 1.390 . S
C3070 H3061 0.930 . S
C3070 C3068 1.384 . S
C3070 C3071 1.372 . S
C3071 C3070 1.372 . S
C3071 C3072 1.400 . S
C3071 C3076 1.490 . S
C3072 H3062 0.930 . S
C3072 C3071 1.400 . S
C3072 C3075 1.386 . S
H3073 C3089 0.930 . S
H3074 C3090 0.931 . S
C3075 H3063 0.929 . S
C3075 C3069 1.390 . S
C3075 C3072 1.386 . S
C3076 C3071 1.490 . S
C3076 C3078 1.395 . S
C3076 C3079 1.403 1_556 S
H3077 C3083 0.930 . S
C3078 H3064 0.930 . S
C3078 C3076 1.395 . S
C3078 C3081 1.403 . S
C3079 C3076 1.403 1_554 S
C3079 C3080 1.524 . S
C3079 C3083 1.400 . S
C3080 H3065 0.960 . S
C3080 H3066 0.960 . S
C3080 H3067 0.960 . S
C3080 C3079 1.524 . S
C3081 C3078 1.403 . S
C3081 C3082 1.392 1_556 S
C3081 C3085 1.495 . S
C3082 C3081 1.392 1_554 S
C3082 C3083 1.385 . S
C3082 C3084 1.478 . S
C3083 H3077 0.930 . S
C3083 C3079 1.400 . S
C3083 C3082 1.385 . S
C3084 C3082 1.478 . S
C3084 C3086 1.381 . S
C3084 C3090 1.383 . S
C3085 C3081 1.495 . S
C3085 H3091 0.959 . S
C3085 H3092 0.961 . S
C3085 H3093 0.960 . S
C3086 C3084 1.381 . S
C3086 C3087 1.394 . S
C3086 H3094 0.930 . S
C3087 C3086 1.394 . S
C3087 C3088 1.383 . S
C3087 H3095 0.929 . S
C3088 C3087 1.383 . S
C3088 C3089 1.377 . S
C3089 H3073 0.930 . S
C3089 C3088 1.377 . S
C3089 C3090 1.379 . S
C3090 H3074 0.931 . S
C3090 C3084 1.383 . S
C3090 C3089 1.379 . S
H3091 C3085 0.959 . S
H3092 C3085 0.961 . S
H3093 C3085 0.960 . S
H3094 C3086 0.930 . S
H3095 C3087 0.929 . S
C513 C7 1.270 . S
C532 C107 1.259 . S
C549 C21 1.271 . S
C568 C121 1.278 . S
C585 C93 1.265 . S
C604 C35 1.252 . S
C621 C163 1.270 . S
C640 C49 1.276 . S
C657 C63 1.277 . S
C676 C135 1.278 . S
C693 C77 1.278 . S
C712 C149 1.264 . S
C729 C23 1.263 . S
C748 C91 1.290 . S
C765 C37 1.270 . S
C784 C105 1.268 . S
C801 C119 1.272 . S
C820 C9 1.285 . S
C837 C133 1.278 . S
C856 C79 1.249 . S
C873 C51 1.270 . S
C892 C147 1.265 . S
C909 C161 1.271 . S
C928 C65 1.275 . S
C945 C275 1.270 . S
C964 C175 1.260 . S
C981 C189 1.278 . S
C1000 C289 1.252 . S
C1017 C203 1.273 . S
C1036 C261 1.240 . S
C1053 C331 1.262 . S
C1072 C217 1.289 . S
C1089 C231 1.271 . S
C1108 C303 1.282 . S
C1125 C317 1.265 . S
C1144 C245 1.254 . S
C1161 C191 1.265 . S
C1180 C259 1.286 . S
C1197 C273 1.273 . S
C1216 C205 1.285 . S
C1233 C177 1.263 . S
C1252 C287 1.265 . S
C1269 C301 1.277 . S
C1288 C247 1.239 . S
C1305 C315 1.272 . S
C1324 C219 1.285 . S
C1341 C329 1.271 . S
C1360 C233 1.267 . S
C1377 C443 1.260 . S
C1396 C343 1.276 . S
C1413 C457 1.261 . S
C1432 C357 1.274 . S
C1449 C429 1.270 . S
C1468 C371 1.273 . S
C1485 C385 1.277 . S
C1504 C499 1.244 . S
C1521 C399 1.270 . S
C1540 C471 1.274 . S
C1557 C485 1.269 . S
C1576 C413 1.284 . S
C1593 C427 1.278 . S
C1612 C359 1.251 . S
C1629 C373 1.261 . S
C1648 C441 1.290 . S
C1665 C345 1.264 . S
C1684 C455 1.261 . S
C1701 C469 1.274 . S
C1720 C415 1.278 . S
C1737 C483 1.276 . S
C1756 C387 1.240 . S
C1773 C497 1.278 . S
C1792 C401 1.262 . S
C1809 C50 1.794 . S
C1828 C8 1.780 . S
C1845 C64 1.792 . S
C1864 C22 1.803 . S
C1881 C36 1.791 . S
C1900 C78 1.795 . S
C1917 C134 1.796 . S
C1936 C92 1.777 . S
C1953 C148 1.797 . S
C1972 C106 1.788 . S
C1989 C162 1.796 . S
C2008 C120 1.798 . S
C2025 C218 1.793 . S
C2044 C176 1.784 . S
C2061 C232 1.793 . S
C2080 C190 1.801 . S
C2097 C204 1.791 . S
C2116 C246 1.805 . S
C2133 C302 1.792 1_554 S
C2152 C260 1.803 . S
C2169 C316 1.793 1_554 S
C2188 C274 1.805 . S
C2205 C330 1.796 1_554 S
C2224 C288 1.782 . S
C2241 C386 1.796 1_556 S
C2260 C344 1.789 . S
C2277 C358 1.792 . S
C2296 C400 1.804 1_556 S
C2313 C414 1.792 1_556 S
C2332 C372 1.803 . S
C2349 C428 1.792 . S
C2368 C470 1.779 . S
C2385 C442 1.796 . S
C2404 C484 1.798 . S
C2421 C456 1.795 . S
C2440 C498 1.801 . S
C2457 C6 1.458 . S
C2476 C258 1.469 . S
C2493 C272 1.458 . S
C2512 C20 1.468 . S
C2529 C286 1.460 . S
C2548 C34 1.463 . S
C2565 C468 1.456 . S
C2584 C48 1.466 . S
C2601 C482 1.459 . S
C2620 C62 1.451 . S
C2637 C496 1.454 . S
C2656 C76 1.437 . S
C2673 C90 1.459 . S
C2692 C342 1.457 . S
C2709 C356 1.455 . S
C2728 C104 1.437 . S
C2745 C370 1.458 . S
C2764 C118 1.470 . S
C2781 C132 1.453 . S
C2800 C216 1.452 . S
C2817 C146 1.454 . S
C2836 C230 1.455 . S
C2853 C160 1.459 . S
C2872 C244 1.450 . S
C2889 C426 1.458 . S
C2908 C174 1.469 . S
C2925 C440 1.455 . S
C2944 C188 1.437 . S
C2961 C202 1.457 . S
C2980 C454 1.469 . S
C2997 C300 1.454 . S
C3016 C384 1.437 . S
C3033 C314 1.459 . S
C3052 C398 1.469 . S
C3069 C328 1.455 . S
C3088 C412 1.466 . S
