# Generated by pormake.
# Topology wkf, (6)-cn, num edge types: 1
# Building blocks:
#     Node 0, Type 0, BuildingBlock: KUMJIN_clean_sbu_0, # of connection points: 6
#     Node 1, Type 0, BuildingBlock: KUMJIN_clean_sbu_0, # of connection points: 6
#     Node 2, Type 0, BuildingBlock: KUMJIN_clean_sbu_0, # of connection points: 6
#     Node 3, Type 0, BuildingBlock: KUMJIN_clean_sbu_0, # of connection points: 6
#     Node 4, Type 0, BuildingBlock: KUMJIN_clean_sbu_0, # of connection points: 6
#     Node 5, Type 0, BuildingBlock: KUMJIN_clean_sbu_0, # of connection points: 6
#     Node 6, Type 0, BuildingBlock: KUMJIN_clean_sbu_0, # of connection points: 6
#     Node 7, Type 0, BuildingBlock: KUMJIN_clean_sbu_0, # of connection points: 6
#     Node 8, Type 0, BuildingBlock: KUMJIN_clean_sbu_0, # of connection points: 6
#     Node 9, Type 0, BuildingBlock: KUMJIN_clean_sbu_0, # of connection points: 6
#     Node 10, Type 0, BuildingBlock: KUMJIN_clean_sbu_0, # of connection points: 6
#     Node 11, Type 0, BuildingBlock: KUMJIN_clean_sbu_0, # of connection points: 6
#     Edge 12, Type (0, 0), BuildingBlock: TEMPAE_clean_linker_10, # of connection points: 2
#     Edge 13, Type (0, 0), BuildingBlock: TEMPAE_clean_linker_10, # of connection points: 2
#     Edge 14, Type (0, 0), BuildingBlock: TEMPAE_clean_linker_10, # of connection points: 2
#     Edge 15, Type (0, 0), BuildingBlock: TEMPAE_clean_linker_10, # of connection points: 2
#     Edge 16, Type (0, 0), BuildingBlock: TEMPAE_clean_linker_10, # of connection points: 2
#     Edge 17, Type (0, 0), BuildingBlock: TEMPAE_clean_linker_10, # of connection points: 2
#     Edge 18, Type (0, 0), BuildingBlock: TEMPAE_clean_linker_10, # of connection points: 2
#     Edge 19, Type (0, 0), BuildingBlock: TEMPAE_clean_linker_10, # of connection points: 2
#     Edge 20, Type (0, 0), BuildingBlock: TEMPAE_clean_linker_10, # of connection points: 2
#     Edge 21, Type (0, 0), BuildingBlock: TEMPAE_clean_linker_10, # of connection points: 2
#     Edge 22, Type (0, 0), BuildingBlock: TEMPAE_clean_linker_10, # of connection points: 2
#     Edge 23, Type (0, 0), BuildingBlock: TEMPAE_clean_linker_10, # of connection points: 2
#     Edge 24, Type (0, 0), BuildingBlock: TEMPAE_clean_linker_10, # of connection points: 2
#     Edge 25, Type (0, 0), BuildingBlock: TEMPAE_clean_linker_10, # of connection points: 2
#     Edge 26, Type (0, 0), BuildingBlock: TEMPAE_clean_linker_10, # of connection points: 2
#     Edge 27, Type (0, 0), BuildingBlock: TEMPAE_clean_linker_10, # of connection points: 2
#     Edge 28, Type (0, 0), BuildingBlock: TEMPAE_clean_linker_10, # of connection points: 2
#     Edge 29, Type (0, 0), BuildingBlock: TEMPAE_clean_linker_10, # of connection points: 2
#     Edge 30, Type (0, 0), BuildingBlock: TEMPAE_clean_linker_10, # of connection points: 2
#     Edge 31, Type (0, 0), BuildingBlock: TEMPAE_clean_linker_10, # of connection points: 2
#     Edge 32, Type (0, 0), BuildingBlock: TEMPAE_clean_linker_10, # of connection points: 2
#     Edge 33, Type (0, 0), BuildingBlock: TEMPAE_clean_linker_10, # of connection points: 2
#     Edge 34, Type (0, 0), BuildingBlock: TEMPAE_clean_linker_10, # of connection points: 2
#     Edge 35, Type (0, 0), BuildingBlock: TEMPAE_clean_linker_10, # of connection points: 2
#     Edge 36, Type (0, 0), BuildingBlock: TEMPAE_clean_linker_10, # of connection points: 2
#     Edge 37, Type (0, 0), BuildingBlock: TEMPAE_clean_linker_10, # of connection points: 2
#     Edge 38, Type (0, 0), BuildingBlock: TEMPAE_clean_linker_10, # of connection points: 2
#     Edge 39, Type (0, 0), BuildingBlock: TEMPAE_clean_linker_10, # of connection points: 2
#     Edge 40, Type (0, 0), BuildingBlock: TEMPAE_clean_linker_10, # of connection points: 2
#     Edge 41, Type (0, 0), BuildingBlock: TEMPAE_clean_linker_10, # of connection points: 2
#     Edge 42, Type (0, 0), BuildingBlock: TEMPAE_clean_linker_10, # of connection points: 2
#     Edge 43, Type (0, 0), BuildingBlock: TEMPAE_clean_linker_10, # of connection points: 2
#     Edge 44, Type (0, 0), BuildingBlock: TEMPAE_clean_linker_10, # of connection points: 2
#     Edge 45, Type (0, 0), BuildingBlock: TEMPAE_clean_linker_10, # of connection points: 2
#     Edge 46, Type (0, 0), BuildingBlock: TEMPAE_clean_linker_10, # of connection points: 2
#     Edge 47, Type (0, 0), BuildingBlock: TEMPAE_clean_linker_10, # of connection points: 2
# Relax obj value: 0.168
# Max RMSD: 0.269
# Mean RMSD: 0.261
data_MOF--net-wkf--node1-KUMJIN_clean_sbu_0--edge1-TEMPAE_clean_linker_10
_symmetry_space_group_name_H-M    P1
_symmetry_Int_Tables_number       1
_symmetry_cell_setting            triclinic
loop_
_symmetry_equiv_pos_as_xyz
'x, y, z'
_cell_length_a     31.010103
_cell_length_b     31.062402
_cell_length_c     82.934697
_cell_angle_alpha  90.023219
_cell_angle_beta   89.996307
_cell_angle_gamma 119.66281
loop_
_atom_site_label
_atom_site_type_symbol
_atom_site_fract_x
_atom_site_fract_y
_atom_site_fract_z
_atom_type_partial_charge
Eu0 Eu 0.53671 0.99333 0.36557 0.0
C1 C 0.43587 1.03528 0.31198 0.0
C2 C 0.36927 0.04826 0.3218 0.0
C3 C 0.41122 0.08617 0.29662 0.0
C4 C 0.39943 1.02639 0.32348 0.0
C5 C 0.44239 0.0657 0.29856 0.0
C6 C 0.3749 0.0776 0.30821 0.0
C7 C 0.51151 0.05509 0.29034 0.0
N8 N 0.46727 1.01685 0.3146 0.0
C9 C 0.50398 1.02532 0.30387 0.0
C10 C 0.48068 0.07536 0.28767 0.0
Eu11 Eu 0.44556 0.96165 0.33659 0.0
N12 N 0.39519 0.99841 0.33666 0.0
C13 C 0.36223 0.99117 0.34864 0.0
C14 C 0.33502 0.04078 0.33402 0.0
C15 C 0.3317 1.01236 0.34753 0.0
H16 H 0.52696 1.00862 0.30563 0.0
H17 H 0.30543 1.00652 0.35703 0.0
H18 H 0.35187 0.09452 0.30668 0.0
H19 H 0.54085 0.06205 0.28188 0.0
H20 H 0.35899 0.96829 0.35889 0.0
H21 H 0.64071 0.06668 0.30885 0.0
H22 H 0.31129 0.05713 0.3332 0.0
H23 H 0.52701 0.89885 0.38804 0.0
H24 H 0.57804 0.05272 0.32893 0.0
H25 H 0.56815 0.84895 0.39085 0.0
H26 H 0.41556 0.10954 0.28635 0.0
H27 H 0.69093 1.02538 0.31145 0.0
H28 H 0.70891 0.96618 0.32637 0.0
H29 H 0.48683 0.09853 0.2772 0.0
H30 H 0.68924 0.90708 0.34859 0.0
N31 N 0.59307 1.00616 0.34393 0.0
C32 C 0.6001 1.03562 0.33084 0.0
C33 C 0.66373 1.01974 0.32062 0.0
C34 C 0.65533 0.98803 0.33363 0.0
C35 C 0.63554 0.04313 0.31913 0.0
C36 C 0.61924 0.98174 0.34523 0.0
H37 H 0.6364 0.86262 0.37244 0.0
N38 N 0.57007 0.93949 0.36776 0.0
C39 C 0.57949 0.87643 0.3814 0.0
C40 C 0.60747 0.94757 0.35753 0.0
C41 C 0.55591 0.90456 0.37963 0.0
C42 C 0.61802 0.88429 0.37099 0.0
C43 C 0.63216 0.91978 0.35878 0.0
O44 O 0.55824 0.9922 0.39048 0.0
O45 O 0.47682 1.00905 0.35901 0.0
O46 O 0.49353 0.05095 0.33641 0.0
O47 O 0.55642 0.07308 0.35491 0.0
O48 O 0.48188 0.99588 0.38288 0.0
O49 O 0.60293 0.05629 0.37575 0.0
O50 O 0.42019 0.90965 0.31636 0.0
O51 O 0.49168 0.93046 0.34837 0.0
O52 O 0.46956 0.92148 0.37506 0.0
O53 O 0.40417 0.91381 0.35903 0.0
O54 O 0.49534 0.9339 0.32405 0.0
O55 O 0.36514 0.91268 0.33112 0.0
C56 C 0.4591 1.0097 0.37294 0.0
C57 C 0.59643 0.06984 0.4037 0.0
C58 C 0.63385 0.15235 0.41584 0.0
C59 C 0.62645 0.12142 0.40248 0.0
C60 C 0.60823 0.13089 0.43025 0.0
C61 C 0.57133 0.04928 0.41824 0.0
C62 C 0.57693 0.07976 0.43135 0.0
C63 C 0.53301 0.08713 0.34417 0.0
C64 C 0.59439 0.03764 0.39025 0.0
C65 C 0.66952 0.92763 0.3477 0.0
C66 C 0.68088 0.96146 0.33509 0.0
C67 C 0.50696 0.91579 0.33632 0.0
C68 C 0.34677 0.89458 0.30245 0.0
C69 C 0.29894 0.85525 0.29766 0.0
C70 C 0.27788 0.85716 0.28245 0.0
C71 C 0.30468 0.89875 0.27256 0.0
C72 C 0.37298 0.93277 0.29127 0.0
C73 C 0.35182 0.93576 0.27686 0.0
C74 C 0.42108 0.9003 0.37182 0.0
C75 C 0.37299 0.89464 0.31788 0.0
H76 H 0.64523 0.13735 0.39121 0.0
H77 H 0.61356 0.15322 0.44088 0.0
H78 H 0.54799 1.00959 0.4196 0.0
H79 H 0.55775 0.06358 0.44254 0.0
H80 H 0.27893 0.82343 0.30544 0.0
H81 H 0.2901 0.90142 0.26096 0.0
H82 H 0.41108 0.95964 0.29323 0.0
H83 H 0.37294 0.96623 0.26868 0.0
Eu84 Eu 0.57791 0.51626 0.53159 0.0
C85 C 0.44667 0.41515 0.47544 0.0
C86 C 0.36239 0.35712 0.48408 0.0
C87 C 0.37718 0.39399 0.45736 0.0
C88 C 0.41387 0.38304 0.48704 0.0
C89 C 0.42831 0.4214 0.4606 0.0
C90 C 0.34434 0.36203 0.46906 0.0
C91 C 0.51187 0.48415 0.45366 0.0
N92 N 0.49585 0.44313 0.47925 0.0
C93 C 0.52844 0.47712 0.46859 0.0
C94 C 0.46171 0.45606 0.44961 0.0
Eu95 Eu 0.51883 0.42144 0.5039 0.0
N96 N 0.43213 0.38031 0.5017 0.0
C97 C 0.40152 0.35228 0.51382 0.0
C98 C 0.3305 0.32826 0.49649 0.0
C99 C 0.35014 0.32606 0.51145 0.0
H100 H 0.56733 0.49893 0.4714 0.0
H101 H 0.32579 0.30369 0.52107 0.0
H102 H 0.30489 0.34217 0.46652 0.0
H103 H 0.53786 0.51122 0.44526 0.0
H104 H 0.41699 0.34902 0.52511 0.0
H105 H 0.60268 0.60918 0.47292 0.0
H106 H 0.29068 0.30792 0.49469 0.0
H107 H 0.66501 0.51001 0.55409 0.0
H108 H 0.55652 0.54941 0.49397 0.0
H109 H 0.75595 0.5526 0.55642 0.0
H110 H 0.36249 0.39817 0.44598 0.0
H111 H 0.69373 0.6613 0.47496 0.0
H112 H 0.77203 0.68289 0.48979 0.0
H113 H 0.44905 0.46193 0.43807 0.0
H114 H 0.8137 0.66743 0.51239 0.0
N115 N 0.61906 0.56868 0.50901 0.0
C116 C 0.59548 0.5727 0.49567 0.0
C117 C 0.67328 0.63558 0.48457 0.0
C118 C 0.69782 0.62993 0.49782 0.0
C119 C 0.62195 0.60634 0.4834 0.0
C120 C 0.66944 0.5957 0.50999 0.0
H121 H 0.80807 0.61863 0.53712 0.0
N122 N 0.66511 0.55055 0.53335 0.0
C123 C 0.73879 0.56247 0.54683 0.0
C124 C 0.69309 0.58645 0.52257 0.0
C125 C 0.68715 0.53812 0.54536 0.0
C126 C 0.76807 0.59972 0.53592 0.0
C127 C 0.74544 0.61172 0.52348 0.0
O128 O 0.60353 0.54228 0.55595 0.0
O129 O 0.50257 0.45525 0.52576 0.0
O130 O 0.4747 0.46725 0.50312 0.0
O131 O 0.51673 0.53378 0.52027 0.0
O132 O 0.52207 0.46404 0.54962 0.0
O133 O 0.57818 0.58217 0.54106 0.0
O134 O 0.53006 0.3812 0.48393 0.0
O135 O 0.596 0.46937 0.51529 0.0
O136 O 0.58371 0.45051 0.54226 0.0
O137 O 0.52565 0.38349 0.52709 0.0
O138 O 0.59672 0.46442 0.49119 0.0
O139 O 0.48986 0.34089 0.50499 0.0
C140 C 0.48535 0.43952 0.53994 0.0
C141 C 0.5609 0.57714 0.56925 0.0
C142 C 0.50761 0.60594 0.58121 0.0
C143 C 0.53174 0.59993 0.56772 0.0
C144 C 0.51085 0.58615 0.59612 0.0
C145 C 0.56332 0.55745 0.58427 0.0
C146 C 0.53789 0.56142 0.59754 0.0
C147 C 0.47848 0.50833 0.51 0.0
C148 C 0.59095 0.57633 0.55554 0.0
C149 C 0.77354 0.64734 0.5118 0.0
C150 C 0.7498 0.65626 0.49896 0.0
C151 C 0.62631 0.4813 0.50343 0.0
C152 C 0.46691 0.29683 0.4795 0.0
C153 C 0.48192 0.27915 0.46587 0.0
C154 C 0.44592 0.24131 0.45569 0.0
C155 C 0.3955 0.22219 0.45929 0.0
C156 C 0.41594 0.27471 0.48285 0.0
C157 C 0.38078 0.2385 0.47275 0.0
C158 C 0.55654 0.40177 0.53965 0.0
C159 C 0.50367 0.33747 0.49033 0.0
H160 H 0.5291 0.61438 0.55611 0.0
H161 H 0.49383 0.59101 0.60685 0.0
H162 H 0.58548 0.53961 0.58586 0.0
H163 H 0.54029 0.54651 0.60908 0.0
H164 H 0.52102 0.29457 0.46322 0.0
H165 H 0.36723 0.19344 0.45181 0.0
H166 H 0.40287 0.28503 0.49339 0.0
H167 H 0.34169 0.2225 0.4755 0.0
Eu168 Eu 0.09032 0.55838 0.69671 0.0
C169 C 0.06076 0.41806 0.64374 0.0
C170 C 1.03758 0.3365 0.65438 0.0
C171 C 1.01202 0.34473 0.62735 0.0
C172 C 0.0619 0.38839 0.65614 0.0
C173 C 1.03517 0.39637 0.62933 0.0
C174 C 1.0132 0.3149 0.63984 0.0
C175 C 0.05498 0.47811 0.62023 0.0
N176 N 0.08125 0.46776 0.64643 0.0
C177 C 0.07961 0.49797 0.6348 0.0
C178 C 1.03268 0.42715 0.61748 0.0
Eu179 Eu 0.12875 0.49732 0.67039 0.0
N180 N 0.0847 0.41027 0.67024 0.0
C181 C 0.08605 0.38288 0.68284 0.0
C182 C 1.03783 0.30791 0.6674 0.0
C183 C 0.06215 0.33121 0.68169 0.0
H184 H 0.0975 0.53746 0.63661 0.0
H185 H 0.06294 0.30944 0.69175 0.0
H186 H 0.99443 0.27508 0.63823 0.0
H187 H 1.05345 0.50218 0.61109 0.0
H188 H 0.10643 0.40111 0.69364 0.0
H189 H 1.02516 0.5799 0.63661 0.0
H190 H 1.0194 0.26789 0.66655 0.0
H191 H 0.18385 0.64765 0.71774 0.0
H192 H 1.04204 0.5364 0.65775 0.0
H193 H 0.22916 0.73842 0.71988 0.0
H194 H 0.99231 0.32741 0.61632 0.0
H195 H 0.05689 0.66986 0.63889 0.0
H196 H 0.10971 0.74887 0.65373 0.0
H197 H 1.0134 0.41192 0.60621 0.0
H198 H 0.16658 0.79236 0.67618 0.0
N199 N 0.07716 0.59806 0.67367 0.0
C200 C 1.05328 0.57433 0.65981 0.0
C201 C 0.06285 0.65027 0.64868 0.0
C202 C 0.09116 0.67557 0.66211 0.0
C203 C 1.04476 0.59955 0.64738 0.0
C204 C 0.098 0.64823 0.67451 0.0
H205 H 0.21156 0.7888 0.70077 0.0
N206 N 0.14006 0.64586 0.69767 0.0
C207 C 0.20137 0.7205 0.71058 0.0
C208 C 0.13051 0.67286 0.68693 0.0
C209 C 0.1754 0.66887 0.70931 0.0
C210 C 0.19137 0.7488 0.69978 0.0
C211 C 0.15625 0.72517 0.68759 0.0
O212 O 0.10376 0.57233 0.72236 0.0
O213 O 0.0955 0.4892 0.69535 0.0
O214 O 1.03928 0.45631 0.66871 0.0
O215 O 1.01272 0.50114 0.68413 0.0
O216 O 1.03104 0.48348 0.70482 0.0
O217 O 1.04494 0.57985 0.71133 0.0
O218 O 0.18183 0.51166 0.65055 0.0
O219 O 0.15579 0.57487 0.68109 0.0
O220 O 0.15912 0.56029 0.70873 0.0
O221 O 0.17218 0.50406 0.69398 0.0
O222 O 0.16193 0.57434 0.65709 0.0
O223 O 0.18181 0.46967 0.67098 0.0
C224 C 1.05365 0.45892 0.70181 0.0
C225 C 1.03336 0.54875 0.73836 0.0
C226 C 0.952 0.504 0.7511 0.0
C227 C 0.982 0.53057 0.73795 0.0
C228 C 0.97356 0.49494 0.76461 0.0
C229 C 1.05438 0.53955 0.75206 0.0
C230 C 1.02456 0.51267 0.76504 0.0
C231 C 1.00151 0.46157 0.67454 0.0
C232 C 0.06561 0.57801 0.72483 0.0
C233 C 0.14736 0.75223 0.67582 0.0
C234 C 0.11489 0.72746 0.66308 0.0
C235 C 0.17376 0.60462 0.66912 0.0
C236 C 0.20287 0.44818 0.64532 0.0
C237 C 0.23607 0.46318 0.63185 0.0
C238 C 0.23719 0.42718 0.62137 0.0
C239 C 0.20475 0.37685 0.62455 0.0
C240 C 0.17299 0.39719 0.64825 0.0
C241 C 0.17338 0.36212 0.63788 0.0
C242 C 0.18254 0.53434 0.70664 0.0
C243 C 0.19931 0.48466 0.6565 0.0
H244 H 0.96551 0.53865 0.7277 0.0
H245 H 0.95106 0.47487 0.7749 0.0
H246 H 0.09398 0.55334 0.75277 0.0
H247 H 1.04113 0.50598 0.77554 0.0
H248 H 0.26056 0.50222 0.62954 0.0
H249 H 0.20464 0.34855 0.61688 0.0
H250 H 0.14931 0.38396 0.6587 0.0
H251 H 0.14948 0.32306 0.64032 0.0
Eu252 Eu 0.5741 0.07897 0.86263 0.0
C253 C 0.68081 0.0458 0.80918 0.0
C254 C 0.73489 1.01595 0.81931 0.0
C255 C 0.70244 0.99586 0.79199 0.0
C256 C 0.70991 0.04304 0.82148 0.0
C257 C 0.67613 1.0214 0.79442 0.0
C258 C 0.73175 0.99318 0.80439 0.0
C259 C 0.61742 0.04663 0.78591 0.0
N260 N 0.65391 0.06889 0.81225 0.0
C261 C 0.62298 0.07011 0.80077 0.0
C262 C 0.6442 1.02234 0.78268 0.0
Eu263 Eu 0.67409 0.1146 0.83675 0.0
N264 N 0.71112 0.06435 0.83595 0.0
C265 C 0.73774 0.06147 0.84855 0.0
C266 C 0.76136 1.01174 0.83232 0.0
C267 C 0.76271 1.03453 0.84701 0.0
H268 H 0.6025 0.08921 0.80288 0.0
H269 H 0.78364 1.03204 0.85706 0.0
H270 H 0.75094 0.97246 0.80244 0.0
H271 H 0.59262 0.0475 0.77689 0.0
H272 H 0.74095 0.08136 0.85958 0.0
H273 H 0.48968 1.01449 0.80229 0.0
H274 H 0.78087 0.99104 0.83116 0.0
H275 H 0.57738 0.17187 0.88383 0.0
H276 H 0.54852 1.02968 0.8238 0.0
H277 H 0.53233 0.21824 0.88571 0.0
H278 H 0.69951 0.97714 0.78067 0.0
H279 H 0.43294 0.04866 0.80404 0.0
H280 H 0.40708 0.10267 0.81858 0.0
H281 H 0.63955 1.00403 0.77117 0.0
H282 H 0.41946 0.15916 0.84108 0.0
N283 N 0.5228 0.06686 0.83929 0.0
C284 C 0.52256 0.04225 0.82558 0.0
C285 C 0.45789 0.05406 0.81395 0.0
C286 C 0.46078 0.08273 0.8273 0.0
C287 C 0.48968 1.0346 0.81295 0.0
C288 C 0.49419 0.08882 0.83987 0.0
H289 H 0.46608 0.20248 0.86611 0.0
N290 N 0.53739 0.13001 0.86327 0.0
C291 C 0.52327 0.19107 0.87625 0.0
C292 C 0.5017 0.12134 0.85229 0.0
C293 C 0.5488 0.16464 0.8751 0.0
C294 C 0.48596 0.18211 0.86516 0.0
C295 C 0.47533 0.14759 0.85282 0.0
O296 O 0.57343 0.09082 0.88844 0.0
O297 O 0.64786 0.08236 0.86186 0.0
O298 O 0.62475 1.02531 0.83536 0.0
O299 O 0.55324 1.00057 0.85042 0.0
O300 O 0.58817 1.01881 0.87123 0.0
O301 O 0.50572 0.03775 0.87661 0.0
O302 O 0.71774 0.16809 0.81756 0.0
O303 O 0.62369 0.14308 0.84686 0.0
O304 O 0.64059 0.14848 0.87431 0.0
O305 O 0.70972 0.15781 0.86034 0.0
O306 O 0.63406 0.15173 0.82308 0.0
O307 O 0.75507 0.16342 0.83851 0.0
C308 C 0.6353 0.04045 0.86854 0.0
C309 C 0.51841 1.02214 0.90399 0.0
C310 C 0.47057 0.94039 0.9164 0.0
C311 C 0.48347 0.97155 0.9028 0.0
C312 C 0.49561 0.96042 0.93105 0.0
C313 C 0.54308 0.04107 0.91869 0.0
C314 C 0.53213 1.01018 0.93206 0.0
C315 C 0.58144 0.9883 0.84106 0.0
C316 C 0.5277 0.05618 0.89035 0.0
C317 C 0.44022 0.13954 0.84083 0.0
C318 C 0.43307 0.10727 0.82806 0.0
C319 C 0.61354 0.16236 0.83482 0.0
C320 C 0.80062 0.18275 0.81349 0.0
C321 C 0.82541 0.21806 0.80084 0.0
C322 C 0.86068 0.21427 0.79052 0.0
C323 C 0.86614 0.17203 0.79249 0.0
C324 C 0.81412 0.14644 0.81606 0.0
C325 C 0.84462 0.13982 0.80535 0.0
C326 C 0.68983 0.17037 0.8725 0.0
C327 C 0.76085 0.18246 0.82411 0.0
H328 H 0.46575 0.95675 0.89131 0.0
H329 H 0.48627 0.93825 0.94189 0.0
H330 H 0.57037 0.07996 0.91992 0.0
H331 H 0.55106 1.02518 0.94337 0.0
H332 H 0.81787 0.24829 0.79933 0.0
H333 H 0.88792 0.16359 0.78425 0.0
H334 H 0.80079 0.12242 0.82634 0.0
H335 H 0.85189 0.10944 0.8071 0.0
Eu336 Eu 0.53041 0.55561 0.03359 0.0
C337 C 0.66882 0.65568 0.97922 0.0
C338 C 0.7486 0.72206 0.9885 0.0
C339 C 0.74305 0.67926 0.96333 0.0
C340 C 0.69693 0.69234 0.99053 0.0
C341 C 0.69178 0.64854 0.96563 0.0
C342 C 0.77137 0.71581 0.97473 0.0
C343 C 0.61197 0.57965 0.95795 0.0
N344 N 0.61943 0.62464 0.98221 0.0
C345 C 0.59069 0.58773 0.97167 0.0
C346 C 0.66264 0.61008 0.95492 0.0
Eu347 Eu 0.58743 0.64698 0.00456 0.0
N348 N 0.67414 0.69702 0.00392 0.0
C349 C 0.70049 0.73004 0.01577 0.0
C350 C 0.77601 0.75645 1.00055 0.0
C351 C 0.75189 0.76024 0.01428 0.0
H352 H 0.55135 0.56499 0.97371 0.0
H353 H 0.77283 0.78657 0.02367 0.0
H354 H 0.81103 0.73848 0.97293 0.0
H355 H 0.58919 0.55017 0.94964 0.0
H356 H 0.68161 0.73357 0.02621 0.0
H357 H 0.49935 0.45154 0.97681 0.0
H358 H 0.81585 0.77987 0.99946 0.0
H359 H 0.44593 0.56562 0.05632 0.0
H360 H 0.54795 0.51414 0.99681 0.0
H361 H 0.3553 0.52485 0.05932 0.0
H362 H 0.76136 0.67442 0.95292 0.0
H363 H 0.40833 0.40152 0.97964 0.0
H364 H 0.33165 0.38381 0.99477 0.0
H365 H 0.67893 0.60347 0.94431 0.0
H366 H 0.29251 0.40373 0.01711 0.0
N367 N 0.48685 0.49929 0.01201 0.0
C368 C 0.50903 0.49218 0.99883 0.0
C369 C 0.42986 0.42868 0.98878 0.0
C370 C 0.40677 0.43717 0.00189 0.0
C371 C 0.48116 0.45676 0.98716 0.0
C372 C 0.43652 0.47319 0.01344 0.0
H373 H 0.30092 0.45678 0.04095 0.0
N374 N 0.44349 0.52231 0.03604 0.0
C375 C 0.37135 0.51332 0.04983 0.0
C376 C 0.41427 0.48499 0.02585 0.0
C377 C 0.42284 0.53667 0.04797 0.0
C378 C 0.3408 0.47488 0.03946 0.0
C379 C 0.36203 0.46053 0.0272 0.0
O380 O 0.50803 0.53376 0.05848 0.0
O381 O 0.60487 0.6158 0.02672 0.0
O382 O 0.63004 0.5996 0.0041 0.0
O383 O 0.59057 0.53635 0.02249 0.0
O384 O 0.58822 0.61 0.05074 0.0
O385 O 0.52953 0.49026 0.04378 0.0
O386 O 0.5589 0.67241 0.98482 0.0
O387 O 0.51117 0.60077 0.01675 0.0
O388 O 0.52577 0.62265 0.04348 0.0
O389 O 0.582 0.68813 0.02734 0.0
O390 O 0.50972 0.59721 0.99242 0.0
O391 O 0.61787 0.72729 0.99916 0.0
C392 C 0.62378 0.63343 0.04058 0.0
C393 C 0.55033 0.49827 0.07172 0.0
C394 C 0.60285 0.46804 0.08338 0.0
C395 C 0.57797 0.47387 0.07008 0.0
C396 C 0.60207 0.48976 0.09819 0.0
C397 C 0.55024 0.51973 0.08664 0.0
C398 C 0.57649 0.51597 0.0997 0.0
C399 C 0.62757 0.5601 0.01169 0.0
C400 C 0.51914 0.49862 0.05828 0.0
C401 C 0.33261 0.42327 0.01614 0.0
C402 C 0.35491 0.41178 0.00347 0.0
C403 C 0.4807 0.58552 0.00486 0.0
C404 C 0.61544 0.74533 0.97058 0.0
C405 C 0.62289 0.79296 0.96586 0.0
C406 C 0.64395 0.81345 0.95042 0.0
C407 C 0.65795 0.7864 0.94025 0.0
C408 C 0.62676 0.7189 0.95919 0.0
C409 C 0.64901 0.73955 0.94453 0.0
C410 C 0.55263 0.67109 0.04034 0.0
C411 C 0.59089 0.71947 0.9862 0.0
H412 H 0.57882 0.45809 0.05852 0.0
H413 H 0.61979 0.48527 0.1088 0.0
H414 H 0.52926 0.53877 0.08831 0.0
H415 H 0.57591 0.53229 0.11118 0.0
H416 H 0.61172 0.81321 0.97386 0.0
H417 H 0.67391 0.80073 0.92849 0.0
H418 H 0.61647 0.68101 0.96121 0.0
H419 H 0.65786 0.71826 0.93617 0.0
Eu420 Eu 1.01568 0.51466 0.19683 0.0
C421 C 1.04731 0.65347 0.14331 0.0
C422 C 0.07182 0.736 0.15337 0.0
C423 C 0.09638 0.72553 0.12644 0.0
C424 C 1.04684 0.68422 0.15547 0.0
C425 C 0.07278 0.67401 0.12878 0.0
C426 C 0.09591 0.75642 0.1387 0.0
C427 C 1.05207 0.59149 0.12031 0.0
N428 N 1.02627 0.60389 0.14633 0.0
C429 C 1.02751 0.57276 0.13496 0.0
C430 C 0.07473 0.64226 0.11719 0.0
Eu431 Eu 0.97878 0.5765 0.17037 0.0
N432 N 1.02439 0.66348 0.16971 0.0
C433 C 1.02413 0.69195 0.18216 0.0
C434 C 0.07265 0.76569 0.16622 0.0
C435 C 1.04877 0.74356 0.18068 0.0
H436 H 1.00942 0.53339 0.13702 0.0
H437 H 1.04878 0.76619 0.19061 0.0
H438 H 0.11513 0.79614 0.13682 0.0
H439 H 1.05325 0.56667 0.11138 0.0
H440 H 1.00379 0.6746 0.19305 0.0
H441 H 0.08405 0.49476 0.13708 0.0
H442 H 0.09162 0.80567 0.16511 0.0
H443 H 0.92212 0.42549 0.21776 0.0
H444 H 0.06744 0.53823 0.15829 0.0
H445 H 0.87609 0.33461 0.21957 0.0
H446 H 0.11596 0.74196 0.11532 0.0
H447 H 1.05001 0.40434 0.13885 0.0
H448 H 0.9954 0.32499 0.15323 0.0
H449 H 0.09392 0.65659 0.10586 0.0
H450 H 0.93775 0.28117 0.17545 0.0
N451 N 1.02941 0.47571 0.17372 0.0
C452 C 0.05483 0.49991 0.16012 0.0
C453 C 1.04395 0.42381 0.14866 0.0
C454 C 1.01458 0.39822 0.16187 0.0
C455 C 0.06333 0.47478 0.14765 0.0
C456 C 1.00765 0.4254 0.17431 0.0
H457 H 0.89308 0.28445 0.20017 0.0
N458 N 0.96519 0.42739 0.19747 0.0
C459 C 0.90374 0.35264 0.21025 0.0
C460 C 0.97458 0.40055 0.18661 0.0
C461 C 0.93002 0.40429 0.20915 0.0
C462 C 0.91339 0.32446 0.19927 0.0
C463 C 0.94851 0.34823 0.1871 0.0
O464 O 1.0033 0.50105 0.22256 0.0
O465 O 1.01067 0.584 0.19554 0.0
O466 O 0.0683 0.61782 0.16929 0.0
O467 O 0.0941 0.57266 0.18483 0.0
O468 O 0.07417 0.58904 0.20571 0.0
O469 O 0.05862 0.48915 0.21086 0.0
O470 O 0.92573 0.56321 0.15064 0.0
O471 O 0.95092 0.49871 0.18095 0.0
O472 O 0.94579 0.51191 0.20839 0.0
O473 O 0.93439 0.56926 0.19367 0.0
O474 O 0.9445 0.49943 0.15699 0.0
O475 O 0.92722 0.60592 0.17111 0.0
C476 C 1.05199 0.61381 0.2024 0.0
C477 C 0.0743 0.51969 0.23785 0.0
C478 C 0.15567 0.55338 0.25029 0.0
C479 C 0.1225 0.52651 0.2379 0.0
C480 C 0.14047 0.57274 0.26292 0.0
C481 C 0.05937 0.53923 0.25065 0.0
C482 C 0.09232 0.56548 0.2631 0.0
C483 C 0.1058 0.61257 0.17536 0.0
C484 C 1.03972 0.49225 0.22459 0.0
C485 C 0.95727 0.32131 0.17523 0.0
C486 C 0.99018 0.34627 0.16261 0.0
C487 C 0.93264 0.469 0.16897 0.0
C488 C 0.90663 0.62794 0.1455 0.0
C489 C 0.87373 0.61326 0.13199 0.0
C490 C 0.87334 0.64945 0.12149 0.0
C491 C 0.90622 0.6997 0.12464 0.0
C492 C 0.937 0.67887 0.14845 0.0
C493 C 0.93736 0.71416 0.13802 0.0
C494 C 0.92265 0.53808 0.20611 0.0
C495 C 0.90934 0.59106 0.15665 0.0
H496 H 0.13457 0.51134 0.22825 0.0
H497 H 0.16571 0.59312 0.27265 0.0
H498 H 1.02226 0.53428 0.25106 0.0
H499 H 0.08053 0.58024 0.27291 0.0
H500 H 0.84886 0.57429 0.12968 0.0
H501 H 0.90681 0.72811 0.1169 0.0
H502 H 0.96049 0.69186 0.15895 0.0
H503 H 0.96161 0.75316 0.14046 0.0
Eu504 Eu 0.09554 0.55182 0.47032 0.0
C505 C 0.06351 0.66399 0.52244 0.0
C506 C 1.04025 0.7218 0.51113 0.0
C507 C 1.01424 0.68974 0.53828 0.0
C508 C 0.06467 0.69394 0.50976 0.0
C509 C 1.03766 0.66109 0.53672 0.0
C510 C 1.01553 0.71998 0.52552 0.0
C511 C 0.05782 0.59983 0.54652 0.0
N512 N 0.08427 0.6346 0.52016 0.0
C513 C 0.08273 0.6036 0.53207 0.0
C514 C 1.03519 0.62865 0.54886 0.0
Eu515 Eu 0.13229 0.65085 0.49638 0.0
N516 N 0.08805 0.69417 0.49584 0.0
C517 C 0.08997 0.72255 0.48306 0.0
C518 C 1.04104 0.75026 0.49791 0.0
C519 C 0.06605 0.75066 0.48382 0.0
H520 H 0.10095 0.58197 0.53057 0.0
H521 H 0.06725 0.77291 0.47361 0.0
H522 H 0.99668 0.74128 0.52683 0.0
H523 H 0.05635 0.5749 0.55589 0.0
H524 H 0.11066 0.72403 0.47238 0.0
H525 H 1.0337 0.46676 0.5307 0.0
H526 H 1.02261 0.77211 0.49846 0.0
H527 H 0.1882 0.55588 0.4487 0.0
H528 H 1.04858 0.52623 0.50947 0.0
H529 H 0.23476 0.51108 0.44635 0.0
H530 H 0.99431 0.68812 0.5492 0.0
H531 H 0.06688 0.40937 0.52827 0.0
H532 H 0.11998 0.38343 0.51317 0.0
H533 H 1.0157 0.62537 0.56004 0.0
H534 H 0.17593 0.3964 0.49043 0.0
N535 N 0.08408 0.49998 0.49344 0.0
C536 C 0.06046 0.49988 0.50738 0.0
C537 C 0.072 0.43453 0.51847 0.0
C538 C 0.09999 0.43747 0.50492 0.0
C539 C 1.05309 0.46669 0.51985 0.0
C540 C 0.10576 0.47117 0.49251 0.0
H541 H 0.2193 0.44422 0.46559 0.0
N542 N 0.14658 0.51512 0.46918 0.0
C543 C 0.20761 0.5016 0.45585 0.0
C544 C 0.13801 0.47903 0.47995 0.0
C545 C 0.1811 0.52699 0.45727 0.0
C546 C 0.19879 0.46391 0.46673 0.0
C547 C 0.16428 0.45272 0.47913 0.0
O548 O 0.10616 0.55088 0.44441 0.0
O549 O 0.09915 0.62546 0.47136 0.0
O550 O 1.04315 0.60188 0.49837 0.0
O551 O 1.01786 0.53091 0.48302 0.0
O552 O 1.0347 0.5661 0.46253 0.0
O553 O 1.05273 0.48374 0.45638 0.0
O554 O 0.18473 0.68913 0.51637 0.0
O555 O 0.16059 0.60088 0.48591 0.0
O556 O 0.16395 0.61834 0.45818 0.0
O557 O 0.17585 0.68719 0.47287 0.0
O558 O 0.16557 0.60724 0.50997 0.0
O559 O 0.18506 0.73097 0.49585 0.0
C560 C 0.05678 0.61327 0.46506 0.0
C561 C 1.0355 0.49794 0.42944 0.0
C562 C 0.95086 0.46283 0.41909 0.0
C563 C 0.98405 0.47377 0.43208 0.0
C564 C 0.97056 0.47995 0.40358 0.0
C565 C 1.05408 0.51458 0.4139 0.0
C566 C 1.02174 0.50618 0.40111 0.0
C567 C 1.00598 0.5588 0.49264 0.0
C568 C 0.07054 0.50563 0.44259 0.0
C569 C 0.15636 0.41718 0.49092 0.0
C570 C 0.12437 0.40967 0.50382 0.0
C571 C 0.17833 0.58924 0.498 0.0
C572 C 0.20494 0.77319 0.52151 0.0
C573 C 0.23737 0.79091 0.53517 0.0
C574 C 0.23778 0.82782 0.54557 0.0
C575 C 0.20541 0.84601 0.54212 0.0
C576 C 0.17511 0.79456 0.51831 0.0
C577 C 0.1748 0.82983 0.5286 0.0
C578 C 0.18679 0.66746 0.46026 0.0
C579 C 0.20212 0.73337 0.51041 0.0
H580 H 0.96998 0.46256 0.44419 0.0
H581 H 0.94672 0.47158 0.39316 0.0
H582 H 0.09369 0.53381 0.41165 0.0
H583 H 1.03638 0.51887 0.38913 0.0
H584 H 0.2618 0.77613 0.53769 0.0
H585 H 0.20478 0.87407 0.54973 0.0
H586 H 0.152 0.78443 0.50772 0.0
H587 H 0.15096 0.84521 0.52596 0.0
Eu588 Eu 0.57499 0.07378 0.6366 0.0
C589 C 0.44444 0.04628 0.69267 0.0
C590 C 0.35985 1.02041 0.68421 0.0
C591 C 0.37548 0.99906 0.71096 0.0
C592 C 0.41125 0.04551 0.68112 0.0
C593 C 0.42654 1.02229 0.70759 0.0
C594 C 0.34225 0.99806 0.6993 0.0
C595 C 0.51039 0.04279 0.71438 0.0
N596 N 0.49356 0.067 0.68874 0.0
C597 C 0.52652 0.06581 0.69938 0.0
C598 C 0.4603 1.02116 0.71854 0.0
Eu599 Eu 0.51568 0.11067 0.66395 0.0
N600 N 0.42906 0.06584 0.66638 0.0
C601 C 0.39806 0.0629 0.65428 0.0
C602 C 0.32756 1.01715 0.67184 0.0
C603 C 0.34674 0.03822 0.65679 0.0
H604 H 0.56536 0.08262 0.6965 0.0
H605 H 0.32207 1.03597 0.64719 0.0
H606 H 0.30287 0.97884 0.70194 0.0
H607 H 0.53667 0.04186 0.72276 0.0
H608 H 0.41317 0.08093 0.64289 0.0
H609 H 0.59866 1.0063 0.69559 0.0
H610 H 0.28779 0.998 0.67374 0.0
H611 H 0.66219 0.16436 0.61371 0.0
H612 H 0.5527 1.01906 0.67413 0.0
H613 H 0.75319 0.21247 0.61169 0.0
H614 H 0.36114 0.98068 0.7224 0.0
H615 H 0.68996 0.04599 0.6941 0.0
H616 H 0.76858 0.10269 0.6796 0.0
H617 H 0.448 1.0031 0.73014 0.0
H618 H 0.81057 0.15885 0.65692 0.0
N619 N 0.61575 0.06283 0.65944 0.0
C620 C 0.59185 1.03516 0.67269 0.0
C621 C 0.66965 0.05092 0.68432 0.0
C622 C 0.69443 0.08088 0.67111 0.0
C623 C 0.61817 1.02841 0.68518 0.0
C624 C 0.66621 0.08624 0.65869 0.0
H625 H 0.80519 0.20029 0.63171 0.0
N626 N 0.66215 0.12569 0.63493 0.0
C627 C 0.73595 0.18621 0.62142 0.0
C628 C 0.69003 0.11847 0.64604 0.0
C629 C 0.68427 0.15903 0.6227 0.0
C630 C 0.76516 0.17921 0.63273 0.0
C631 C 0.7424 0.14546 0.64532 0.0
O632 O 0.59949 0.07197 0.61215 0.0
O633 O 0.49954 0.06041 0.64221 0.0
O634 O 0.47106 1.02101 0.66478 0.0
O635 O 0.51324 0.99578 0.64782 0.0
O636 O 0.51957 0.07059 0.61837 0.0
O637 O 0.57743 1.00878 0.62766 0.0
O638 O 0.52649 0.1624 0.68376 0.0
O639 O 0.59299 0.13917 0.65263 0.0
O640 O 0.58135 0.14533 0.62577 0.0
O641 O 0.5228 0.155 0.64064 0.0
O642 O 0.59376 0.14587 0.67666 0.0
O643 O 0.48617 0.16212 0.6626 0.0
C644 C 0.48271 0.05911 0.62795 0.0
C645 C 0.55836 0.99362 0.59965 0.0
C646 C 0.50395 0.91066 0.58888 0.0
C647 C 0.52817 0.9424 0.60198 0.0
C648 C 0.5079 0.93156 0.57351 0.0
C649 C 0.56155 1.01353 0.5842 0.0
C650 C 0.53587 0.98268 0.57129 0.0
C651 C 0.47476 0.98347 0.65799 0.0
C652 C 0.58867 1.026 0.613 0.0
C653 C 0.77038 0.13873 0.65733 0.0
C654 C 0.74646 0.10664 0.67022 0.0
C655 C 0.6234 0.15806 0.66444 0.0
C656 C 0.46331 0.18449 0.68795 0.0
C657 C 0.47844 0.21741 0.70148 0.0
C658 C 0.44259 0.22066 0.71145 0.0
C659 C 0.39216 0.19044 0.70778 0.0
C660 C 0.41234 0.15651 0.68456 0.0
C661 C 0.3773 0.15895 0.69447 0.0
C662 C 0.55407 0.16721 0.62818 0.0
C663 C 0.49998 0.17971 0.67721 0.0
H664 H 0.52485 0.92708 0.61394 0.0
H665 H 0.49088 0.90849 0.56304 0.0
H666 H 0.5845 0.0529 0.58201 0.0
H667 H 0.53885 0.9983 0.5594 0.0
H668 H 0.51755 0.24034 0.70417 0.0
H669 H 0.36401 0.192 0.7151 0.0
H670 H 0.39918 0.13277 0.67413 0.0
H671 H 0.33821 0.13659 0.69168 0.0
Eu672 Eu 0.53144 0.55731 0.80053 0.0
C673 C 0.43917 0.42355 0.8565 0.0
C674 C 0.37242 0.34271 0.84821 0.0
C675 C 0.41811 0.35109 0.87297 0.0
C676 C 0.40143 0.39414 0.84566 0.0
C677 C 0.44811 0.40212 0.87014 0.0
C678 C 0.38047 0.32149 0.86204 0.0
C679 C 0.51711 0.48286 0.87682 0.0
N680 N 0.4693 0.47267 0.85301 0.0
C681 C 0.50721 0.50258 0.86307 0.0
C682 C 0.48751 0.4325 0.88037 0.0
Eu683 Eu 0.44402 0.50204 0.83066 0.0
N684 N 0.39505 0.41545 0.83219 0.0
C685 C 0.36098 0.38779 0.82076 0.0
C686 C 0.33694 0.31398 0.83659 0.0
C687 C 0.33141 0.33658 0.82277 0.0
H688 H 0.5295 0.54167 0.86062 0.0
H689 H 0.30423 0.31461 0.81371 0.0
H690 H 0.35837 0.28204 0.86424 0.0
H691 H 0.54739 0.50659 0.88474 0.0
H692 H 0.35611 0.40552 0.81025 0.0
H693 H 0.64186 0.59159 0.85607 0.0
H694 H 0.31401 0.27428 0.83809 0.0
H695 H 0.52201 0.6402 0.77708 0.0
H696 H 0.57726 0.54201 0.83674 0.0
H697 H 0.5625 0.73047 0.77352 0.0
H698 H 0.42432 0.33397 0.88343 0.0
H699 H 0.6915 0.68231 0.85271 0.0
H700 H 0.70748 0.75804 0.83741 0.0
H701 H 0.49552 0.41743 0.891 0.0
H702 H 0.68559 0.79583 0.81516 0.0
N703 N 0.59092 0.60209 0.82127 0.0
C704 C 0.59921 0.5807 0.83442 0.0
C705 C 0.66355 0.6603 0.84382 0.0
C706 C 0.65381 0.68262 0.83078 0.0
C707 C 0.63571 0.60917 0.84574 0.0
C708 C 0.61682 0.65226 0.81957 0.0
H709 H 0.63109 0.78598 0.79157 0.0
N710 N 0.566 0.64396 0.79732 0.0
C711 C 0.57448 0.71507 0.78308 0.0
C712 C 0.60398 0.67374 0.80722 0.0
C713 C 0.55132 0.6638 0.78525 0.0
C714 C 0.61324 0.74625 0.79326 0.0
C715 C 0.62832 0.72581 0.80556 0.0
O716 O 0.5428 0.57136 0.77473 0.0
O717 O 0.4727 0.48305 0.80812 0.0
O718 O 0.49147 0.45943 0.83057 0.0
O719 O 0.55247 0.49791 0.81138 0.0
O720 O 0.47371 0.49904 0.78427 0.0
O721 O 0.59642 0.56032 0.78873 0.0
O722 O 0.41925 0.53067 0.85056 0.0
O723 O 0.48875 0.57773 0.81803 0.0
O724 O 0.46422 0.56484 0.79258 0.0
O725 O 0.40013 0.5059 0.80843 0.0
O726 O 0.49486 0.58037 0.84227 0.0
O727 O 0.3638 0.47139 0.83646 0.0
C728 C 0.45319 0.46336 0.79451 0.0
C729 C 0.61152 0.57536 0.75981 0.0
C730 C 0.66697 0.55762 0.744 0.0
C731 C 0.64248 0.55468 0.75854 0.0
C732 C 0.66063 0.58214 0.73075 0.0
C733 C 0.60522 0.59949 0.74646 0.0
C734 C 0.62988 0.60297 0.73201 0.0
C735 C 0.53011 0.46149 0.82247 0.0
C736 C 0.58302 0.56839 0.77465 0.0
C737 C 0.66627 0.75585 0.81633 0.0
C738 C 0.67887 0.73432 0.82895 0.0
C739 C 0.5054 0.60881 0.82973 0.0
C740 C 0.34675 0.47442 0.86507 0.0
C741 C 0.29902 0.46673 0.86986 0.0
C742 C 0.27888 0.44603 0.88535 0.0
C743 C 0.30643 0.43264 0.89553 0.0
C744 C 0.37369 0.46363 0.87643 0.0
C745 C 0.3534 0.44177 0.89117 0.0
C746 C 0.41594 0.53676 0.7958 0.0
C747 C 0.37209 0.4986 0.84937 0.0
H748 H 0.6474 0.53613 0.76886 0.0
H749 H 0.67916 0.58488 0.71941 0.0
H750 H 0.58109 0.61541 0.74715 0.0
H751 H 0.62493 0.62161 0.72175 0.0
H752 H 0.27839 0.47743 0.86185 0.0
H753 H 0.29236 0.41695 0.90733 0.0
H754 H 0.41167 0.47402 0.8743 0.0
H755 H 0.37503 0.43333 0.89952 0.0
Eu756 Eu 1.01096 0.5171 0.97147 0.0
C757 C 1.04438 0.40762 0.02413 0.0
C758 C 0.06859 0.35004 0.01321 0.0
C759 C 0.09398 0.38305 0.0403 0.0
C760 C 1.04364 0.37732 0.01162 0.0
C761 C 0.07025 0.41132 0.03849 0.0
C762 C 0.09316 0.35251 0.0277 0.0
C763 C 1.04962 0.47269 0.04783 0.0
N764 N 1.02326 0.43658 0.02161 0.0
C765 C 1.02468 0.4681 0.03332 0.0
C766 C 0.07245 0.44419 0.05043 0.0
Eu767 Eu 0.97513 0.41873 0.99778 0.0
N768 N 1.0205 0.37655 0.99759 0.0
C769 C 1.01944 0.34825 0.98489 0.0
C770 C 0.06867 0.32167 1.00008 0.0
C771 C 1.04402 0.32082 0.98586 0.0
H772 H 1.00638 0.48957 0.03163 0.0
H773 H 1.04344 0.29858 0.97573 0.0
H774 H 0.11237 0.33163 0.02919 0.0
H775 H 1.05096 0.49801 0.05704 0.0
H776 H 0.99869 0.3461 0.97416 0.0
H777 H 0.07592 0.60391 0.0315 0.0
H778 H 0.08757 0.30028 1.00081 0.0
H779 H 0.91775 0.51298 0.95016 0.0
H780 H 0.0602 0.54402 0.01033 0.0
H781 H 0.87103 0.55765 0.94806 0.0
H782 H 0.11389 0.38526 0.05129 0.0
H783 H 1.04222 0.6609 0.02931 0.0
H784 H 0.98816 0.68622 0.01451 0.0
H785 H 0.09195 0.44809 0.06166 0.0
H786 H 0.93117 0.67271 0.99204 0.0
N787 N 1.02351 0.56951 0.99453 0.0
C788 C 1.04799 0.57013 0.00833 0.0
C789 C 1.03667 0.63552 0.01953 0.0
C790 C 1.00793 0.63213 0.00613 0.0
C791 C 0.05588 0.60359 0.02077 0.0
C792 C 1.00165 0.59818 0.99374 0.0
H793 H 0.88699 0.6246 0.96734 0.0
N794 N 0.95996 0.55387 0.97055 0.0
C795 C 0.89848 0.56723 0.95747 0.0
C796 C 0.96887 0.59007 0.98132 0.0
C797 C 0.92508 0.5419 0.95875 0.0
C798 C 0.90758 0.60497 0.96837 0.0
C799 C 0.94252 0.61632 0.98064 0.0
O800 O 0.99922 0.51704 0.94562 0.0
O801 O 1.00721 0.44339 0.97263 0.0
O802 O 0.06436 0.46748 0.99931 0.0
O803 O 0.08929 0.53807 0.98379 0.0
O804 O 0.07107 0.50238 0.96314 0.0
O805 O 1.05258 0.58486 0.95728 0.0
O806 O 0.92282 0.37993 0.01772 0.0
O807 O 0.9465 0.46849 0.98734 0.0
O808 O 0.9415 0.45042 0.95986 0.0
O809 O 0.93091 0.38191 0.97443 0.0
O810 O 0.94143 0.46203 0.01137 0.0
O811 O 0.92321 0.33845 0.99717 0.0
C812 C 1.0492 0.45545 0.96607 0.0
C813 C 0.06841 0.57114 0.93005 0.0
C814 C 0.15026 0.61887 0.91759 0.0
C815 C 0.11891 0.60667 0.93114 0.0
C816 C 0.13058 0.59259 0.90312 0.0
C817 C 1.04981 0.54526 0.91551 0.0
C818 C 0.08093 0.55556 0.90222 0.0
C819 C 0.10142 0.51027 0.99338 0.0
C820 C 1.03416 0.56252 0.94359 0.0
C821 C 0.95083 0.652 0.99242 0.0
C822 C 0.98339 0.65981 0.00518 0.0
C823 C 0.92874 0.48017 0.99943 0.0
C824 C 0.9038 0.29626 0.0228 0.0
C825 C 0.8716 0.27848 0.03649 0.0
C826 C 0.8717 0.24187 0.04689 0.0
C827 C 0.90433 0.22403 0.04342 0.0
C828 C 0.93395 0.27526 0.01956 0.0
C829 C 0.93476 0.24028 0.02986 0.0
C830 C 0.91898 0.40136 0.962 0.0
C831 C 0.90603 0.33579 0.01173 0.0
H832 H 0.13349 0.62539 0.94251 0.0
H833 H 0.15294 0.60134 0.89232 0.0
H834 H 1.011 0.51752 0.91434 0.0
H835 H 0.06619 0.53568 0.89103 0.0
H836 H 0.84694 0.29297 0.03905 0.0
H837 H 0.90532 0.1962 0.05104 0.0
H838 H 0.95692 0.28547 0.00894 0.0
H839 H 0.95883 0.22519 0.0272 0.0
Eu840 Eu 0.53311 0.99804 0.1363 0.0
C841 C 0.67024 1.03566 0.19098 0.0
C842 C 0.75067 0.0488 0.18211 0.0
C843 C 0.7437 0.08569 0.20718 0.0
C844 C 0.69906 1.0271 0.17984 0.0
C845 C 0.69251 0.06558 0.20461 0.0
C846 C 0.77267 0.07743 0.19596 0.0
C847 C 0.61236 0.05581 0.21169 0.0
N848 N 0.62103 1.01799 0.18767 0.0
C849 C 0.59179 1.02668 0.19793 0.0
C850 C 0.66285 0.07533 0.21505 0.0
Eu851 Eu 0.59035 0.96373 0.16537 0.0
N852 N 0.67704 1.00011 0.16633 0.0
C853 C 0.70413 0.99391 0.15456 0.0
C854 C 0.77882 0.04211 0.17018 0.0
C855 C 0.75549 1.01485 0.1563 0.0
H856 H 0.55255 1.01045 0.19568 0.0
H857 H 0.77703 1.00977 0.14699 0.0
H858 H 0.81228 0.0942 0.19795 0.0
H859 H 0.58919 0.06287 0.21979 0.0
H860 H 0.68584 0.97205 0.14401 0.0
H861 H 0.50149 0.07221 0.19281 0.0
H862 H 0.81864 0.05835 0.17146 0.0
H863 H 0.44931 0.90547 0.11322 0.0
H864 H 0.55056 0.05892 0.17267 0.0
H865 H 0.3587 0.85525 0.1104 0.0
H866 H 0.76146 0.10865 0.21763 0.0
H867 H 0.41022 1.02964 0.1904 0.0
H868 H 0.33365 0.96978 0.17558 0.0
H869 H 0.67859 0.09808 0.22568 0.0
H870 H 0.29488 0.9109 0.15329 0.0
N871 N 0.48933 1.01094 0.15788 0.0
C872 C 0.51145 0.04099 0.17086 0.0
C873 C 0.4319 1.02418 0.18121 0.0
C874 C 0.40896 0.99227 0.16823 0.0
C875 C 0.48334 0.04827 0.1826 0.0
C876 C 0.43892 0.98628 0.15659 0.0
H877 H 0.30382 0.86744 0.12918 0.0
N878 N 0.44636 0.9449 0.13382 0.0
C879 C 0.37453 0.88233 0.11998 0.0
C880 C 0.41688 0.95243 0.14418 0.0
C881 C 0.426 0.91065 0.12174 0.0
C882 C 0.34369 0.88938 0.13059 0.0
C883 C 0.36465 0.92446 0.14293 0.0
O884 O 0.51282 0.99832 0.11117 0.0
O885 O 0.60789 1.01203 0.1431 0.0
O886 O 0.6328 0.05336 0.16573 0.0
O887 O 0.59349 0.07715 0.14715 0.0
O888 O 0.59073 1.00085 0.11909 0.0
O889 O 0.52857 0.06077 0.12637 0.0
O890 O 0.56081 0.90915 0.18482 0.0
O891 O 0.51408 0.93373 0.15308 0.0
O892 O 0.52816 0.92608 0.12666 0.0
O893 O 0.58527 0.91706 0.14263 0.0
O894 O 0.51221 0.93579 0.17738 0.0
O895 O 0.62275 0.91553 0.17155 0.0
C896 C 0.62648 1.0128 0.1292 0.0
C897 C 0.55209 0.07691 0.09871 0.0
C898 C 0.60644 0.16084 0.08863 0.0
C899 C 0.58193 0.12799 0.10147 0.0
C900 C 0.60343 0.14105 0.07312 0.0
C901 C 0.54982 0.05818 0.08313 0.0
C902 C 0.57598 0.09006 0.07049 0.0
C903 C 0.63043 0.09031 0.15801 0.0
C904 C 0.5208 0.04344 0.1117 0.0
C905 C 0.33498 0.9317 0.15415 0.0
C906 C 0.35707 0.96537 0.1668 0.0
C907 C 0.48336 0.91837 0.1649 0.0
C908 C 0.61749 0.89536 0.20032 0.0
C909 C 0.62786 0.85731 0.20553 0.0
C910 C 0.64695 0.85869 0.22143 0.0
C911 C 0.65573 0.89833 0.23161 0.0
C912 C 0.62408 0.93176 0.21165 0.0
C913 C 0.64408 0.93409 0.22681 0.0
C914 C 0.55542 0.90456 0.12971 0.0
C915 C 0.59446 0.89571 0.18418 0.0
H916 H 0.5847 0.14233 0.11356 0.0
H917 H 0.62068 0.16485 0.06282 0.0
H918 H 0.52716 1.01894 0.08065 0.0
H919 H 0.5737 0.07535 0.0585 0.0
H920 H 0.62062 0.82698 0.1975 0.0
H921 H 0.66988 0.9006 0.24372 0.0
H922 H 0.61178 0.95774 0.20916 0.0
H923 H 0.64914 0.96312 0.23512 0.0
Eu924 Eu 0.57174 0.50991 0.30374 0.0
C925 C 0.66623 0.6357 0.36085 0.0
C926 C 0.72062 0.72319 0.35507 0.0
C927 C 0.67901 0.69793 0.38101 0.0
C928 C 0.69889 0.67301 0.35053 0.0
C929 C 0.65525 0.64811 0.37607 0.0
C930 C 0.71156 0.73536 0.37053 0.0
C931 C 0.59489 0.56173 0.3799 0.0
N932 N 0.64229 0.58792 0.35542 0.0
C933 C 0.60677 0.55112 0.3647 0.0
C934 C 0.61953 0.61028 0.38569 0.0
Eu935 Eu 0.67321 0.57523 0.33066 0.0
N936 N 0.70481 0.66023 0.33534 0.0
C937 C 0.7314 0.69533 0.32405 0.0
C938 C 0.74851 0.75963 0.34361 0.0
C939 C 0.75333 0.74564 0.32797 0.0
H940 H 0.58707 0.51334 0.36056 0.0
H941 H 0.7747 0.77353 0.31903 0.0
H942 H 0.72816 0.77371 0.37429 0.0
H943 H 0.56669 0.53236 0.38718 0.0
H944 H 0.73743 0.6843 0.3123 0.0
H945 H 0.47509 0.49773 0.36114 0.0
H946 H 0.76551 0.79862 0.3466 0.0
H947 H 0.58186 0.41873 0.2853 0.0
H948 H 0.53633 0.53961 0.34024 0.0
H949 H 0.53659 0.32773 0.28432 0.0
H950 H 0.67126 0.70804 0.39272 0.0
H951 H 0.42333 0.40664 0.36094 0.0
H952 H 0.40274 0.32578 0.3483 0.0
H953 H 0.60997 0.61831 0.39745 0.0
H954 H 0.41909 0.27962 0.32741 0.0
N955 N 0.51874 0.47438 0.32676 0.0
C956 C 0.5134 0.50045 0.33915 0.0
C957 C 0.44989 0.4251 0.35134 0.0
C958 C 0.45675 0.39806 0.33915 0.0
C959 C 0.47886 0.47646 0.35145 0.0
C960 C 0.49212 0.42392 0.32695 0.0
H961 H 0.46721 0.2802 0.30312 0.0
N962 N 0.53898 0.42316 0.30468 0.0
C963 C 0.52656 0.34691 0.29315 0.0
C964 C 0.5021 0.39768 0.31545 0.0
C965 C 0.55217 0.39862 0.2938 0.0
C966 C 0.48771 0.3202 0.30386 0.0
C967 C 0.47597 0.34535 0.31549 0.0
O968 O 0.55668 0.48153 0.27928 0.0
O969 O 0.64042 0.5818 0.30744 0.0
O970 O 0.62703 0.6188 0.32963 0.0
O971 O 0.55629 0.57317 0.31399 0.0
O972 O 0.60053 0.57467 0.28674 0.0
O973 O 0.50235 0.49372 0.29172 0.0
O974 O 0.72031 0.5674 0.34907 0.0
O975 O 0.62238 0.49715 0.32016 0.0
O976 O 0.63901 0.50744 0.29262 0.0
O977 O 0.70727 0.56917 0.30655 0.0
O978 O 0.63798 0.49779 0.34359 0.0
O979 O 0.75452 0.61082 0.32804 0.0
C980 C 0.64003 0.60438 0.29447 0.0
C981 C 0.51449 0.5121 0.2636 0.0
C982 C 0.47637 0.5536 0.24941 0.0
C983 C 0.47752 0.52535 0.26248 0.0
C984 C 0.5121 0.56751 0.23716 0.0
C985 C 0.55015 0.52661 0.25122 0.0
C986 C 0.54884 0.55413 0.23812 0.0
C987 C 0.58488 0.61373 0.32305 0.0
C988 C 0.51657 0.48462 0.27788 0.0
C989 C 0.4395 0.31976 0.32721 0.0
C990 C 0.43015 0.34605 0.33908 0.0
C991 C 0.61445 0.46734 0.33199 0.0
C992 C 0.80229 0.63619 0.35279 0.0
C993 C 0.82747 0.62494 0.36519 0.0
C994 C 0.86356 0.66329 0.37537 0.0
C995 C 0.8701 0.71132 0.3735 0.0
C996 C 0.81557 0.6859 0.35051 0.0
C997 C 0.84749 0.72256 0.36103 0.0
C998 C 0.68794 0.53701 0.29434 0.0
C999 C 0.76234 0.59733 0.34218 0.0
H1000 H 0.44935 0.51332 0.27179 0.0
H1001 H 0.51209 0.58935 0.22699 0.0
H1002 H 0.57935 0.51711 0.25167 0.0
H1003 H 0.57659 0.56539 0.22873 0.0
H1004 H 0.81973 0.58714 0.36662 0.0
H1005 H 0.89359 0.74121 0.38156 0.0
H1006 H 0.80125 0.69691 0.34058 0.0
H1007 H 0.85511 0.76028 0.35942 0.0
C1008 C 0.11014 0.70065 0.20993 0.0
C1009 C 0.06515 0.65718 0.21306 0.0
C1010 C 0.13877 0.73342 0.22241 0.0
C1011 C 0.12269 0.72253 0.23869 0.0
C1012 C 0.07556 0.6804 0.2418 0.0
C1013 C 1.04745 0.6485 0.22901 0.0
C1014 C 0.18838 0.77747 0.21822 0.0
C1015 C 0.05664 0.66679 0.25883 0.0
C1016 C 0.22881 0.77235 0.26993 0.0
C1017 C 0.2307 0.81607 0.2753 0.0
C1018 C 0.1927 0.74068 0.25863 0.0
C1019 C 0.15711 0.75258 0.25238 0.0
C1020 C 0.15714 0.79524 0.2585 0.0
C1021 C 0.19374 0.8263 0.26975 0.0
C1022 C 0.19553 0.69653 0.25249 0.0
C1023 C 0.12072 0.81018 0.2523 0.0
H1024 H 0.12527 0.70684 0.19782 0.0
H1025 H 1.01395 0.61402 0.23174 0.0
H1026 H 0.19353 0.81115 0.22456 0.0
H1027 H 0.21845 0.77039 0.22223 0.0
H1028 H 0.19245 0.78486 0.20504 0.0
H1029 H 1.01996 0.6324 0.25939 0.0
H1030 H 0.08358 0.66149 0.26617 0.0
H1031 H 1.05329 0.69745 0.26442 0.0
H1032 H 0.25789 0.76471 0.27364 0.0
H1033 H 0.19544 0.86058 0.27347 0.0
H1034 H 0.21837 0.70718 0.24136 0.0
H1035 H 0.15833 0.66528 0.24945 0.0
H1036 H 0.21327 0.68382 0.26151 0.0
H1037 H 0.12954 0.82221 0.23955 0.0
H1038 H 0.1218 0.84102 0.25941 0.0
H1039 H 0.08241 0.77822 0.25258 0.0
C1040 C 0.47067 0.18148 0.44422 0.0
C1041 C 0.4582 0.21863 0.44163 0.0
C1042 C 0.47032 0.15091 0.43148 0.0
C1043 C 0.4572 0.15726 0.41557 0.0
C1044 C 0.4465 0.19612 0.41279 0.0
C1045 C 0.44648 0.22569 0.42581 0.0
C1046 C 0.4814 0.10996 0.43535 0.0
C1047 C 0.43311 0.20524 0.39614 0.0
C1048 C 0.49675 0.09821 0.38219 0.0
C1049 C 0.45377 0.05205 0.37949 0.0
C1050 C 0.49751 0.13371 0.39301 0.0
C1051 C 0.4545 0.12302 0.402 0.0
C1052 C 0.41037 0.07736 0.399 0.0
C1053 C 0.41067 0.04252 0.38796 0.0
C1054 C 0.54568 0.1813 0.39572 0.0
C1055 C 0.36351 0.06376 0.40825 0.0
H1056 H 0.47814 0.17449 0.45643 0.0
H1057 H 0.4355 0.25338 0.42373 0.0
H1058 H 0.44592 0.07462 0.43661 0.0
H1059 H 0.50281 0.10509 0.42552 0.0
H1060 H 0.50245 0.11709 0.4468 0.0
H1061 H 0.42955 0.23909 0.39564 0.0
H1062 H 0.4616 0.20905 0.38728 0.0
H1063 H 0.39734 0.17302 0.39236 0.0
H1064 H 0.53149 0.10529 0.37702 0.0
H1065 H 0.37788 1.00636 0.38677 0.0
H1066 H 0.55769 0.18327 0.40843 0.0
H1067 H 0.54024 0.21356 0.39361 0.0
H1068 H 0.57588 0.18464 0.38769 0.0
H1069 H 0.36858 0.05675 0.42104 0.0
H1070 H 0.331 1.03008 0.40331 0.0
H1071 H 0.35547 0.09481 0.40805 0.0
C1072 C 0.25345 0.4237 0.59169 0.0
C1073 C 0.27228 0.43916 0.60736 0.0
C1074 C 0.28366 0.42337 0.57893 0.0
C1075 C 0.33414 0.43775 0.58182 0.0
C1076 C 0.35368 0.45488 0.59753 0.0
C1077 C 0.32274 0.45547 0.61001 0.0
C1078 C 0.26088 0.40546 0.5625 0.0
C1079 C 0.40672 0.46997 0.60153 0.0
C1080 C 0.40679 0.39156 0.55599 0.0
C1081 C 0.43723 0.4331 0.54647 0.0
C1082 C 0.37139 0.3915 0.56686 0.0
C1083 C 0.36638 0.43439 0.56861 0.0
C1084 C 0.39562 0.4757 0.55858 0.0
C1085 C 0.43074 0.47475 0.54794 0.0
C1086 C 0.34147 0.34647 0.57722 0.0
C1087 C 0.3921 0.52234 0.55981 0.0
H1088 H 0.21429 0.40999 0.58956 0.0
H1089 H 0.33746 0.46601 0.62212 0.0
H1090 H 0.28345 0.43292 0.55313 0.0
H1091 H 0.26056 0.37044 0.55957 0.0
H1092 H 0.22227 0.39878 0.56184 0.0
H1093 H 0.41998 0.49431 0.61232 0.0
H1094 H 0.40929 0.43626 0.6041 0.0
H1095 H 0.43175 0.48937 0.59127 0.0
H1096 H 0.41283 0.36004 0.5557 0.0
H1097 H 0.45606 0.50861 0.54188 0.0
H1098 H 0.30164 0.33581 0.57694 0.0
H1099 H 0.35417 0.35529 0.58992 0.0
H1100 H 0.34526 0.31432 0.57328 0.0
H1101 H 0.35463 0.51451 0.55599 0.0
H1102 H 0.42009 0.55285 0.55222 0.0
H1103 H 0.39713 0.53509 0.57251 0.0
C1104 C 0.99921 0.37145 0.70986 0.0
C1105 C 1.04139 0.41736 0.71315 0.0
C1106 C 0.97135 0.33813 0.72231 0.0
C1107 C 0.98436 0.35164 0.73871 0.0
C1108 C 1.02817 0.39716 0.74207 0.0
C1109 C 0.05627 0.42897 0.72931 0.0
C1110 C 0.92664 0.28933 0.71786 0.0
C1111 C 1.04374 0.41387 0.75921 0.0
C1112 C 0.87976 0.28517 0.77033 0.0
C1113 C 0.89289 0.2525 0.7778 0.0
C1114 C 0.9097 0.31857 0.75802 0.0
C1115 C 0.95279 0.31803 0.75229 0.0
C1116 C 0.96616 0.28542 0.75975 0.0
C1117 C 0.9379 0.25546 0.77271 0.0
C1118 C 0.89488 0.35427 0.75108 0.0
C1119 C 1.01033 0.28139 0.75403 0.0
H1120 H 0.98598 0.36292 0.69752 0.0
H1121 H 0.08731 0.46528 0.73208 0.0
H1122 H 0.92593 0.25871 0.72497 0.0
H1123 H 0.89232 0.29055 0.72069 0.0
H1124 H 0.92614 0.28088 0.70482 0.0
H1125 H 0.07563 0.45221 0.75988 0.0
H1126 H 1.01212 0.41192 0.7661 0.0
H1127 H 0.05463 0.3889 0.76524 0.0
H1128 H 0.84597 0.28463 0.77396 0.0
H1129 H 0.95181 0.23399 0.77878 0.0
H1130 H 0.87744 0.3408 0.73911 0.0
H1131 H 0.92788 0.39146 0.74935 0.0
H1132 H 0.8679 0.35802 0.75893 0.0
H1133 H 1.01374 0.28398 0.7407 0.0
H1134 H 1.00775 0.24591 0.75786 0.0
H1135 H 1.04483 0.31199 0.75925 0.0
C1136 C 0.6639 0.98282 0.87747 0.0
C1137 C 0.66334 1.02716 0.8802 0.0
C1138 C 0.66638 0.95416 0.8903 0.0
C1139 C 0.66704 0.96919 0.90653 0.0
C1140 C 0.66953 1.01552 0.90934 0.0
C1141 C 0.66792 0.04389 0.8962 0.0
C1142 C 0.66403 0.90555 0.88643 0.0
C1143 C 0.66973 1.03328 0.92627 0.0
C1144 C 0.608 0.86146 0.93699 0.0
C1145 C 0.64948 0.86066 0.94343 0.0
C1146 C 0.61326 0.89769 0.92555 0.0
C1147 C 0.66121 0.9346 0.92035 0.0
C1148 C 0.70321 0.93562 0.92756 0.0
C1149 C 0.69687 0.89875 0.93885 0.0
C1150 C 0.56726 0.8947 0.9183 0.0
C1151 C 0.75504 0.97364 0.9225 0.0
H1152 H 0.65804 0.96822 0.86529 0.0
H1153 H 0.66506 0.07673 0.89858 0.0
H1154 H 0.6923 0.90157 0.89345 0.0
H1155 H 0.62707 0.87447 0.88986 0.0
H1156 H 0.66998 0.90207 0.87339 0.0
H1157 H 0.6768 0.07201 0.92653 0.0
H1158 H 0.63322 1.00897 0.932 0.0
H1159 H 0.69834 1.03098 0.93366 0.0
H1160 H 0.57129 0.83152 0.94 0.0
H1161 H 0.7292 0.89778 0.94334 0.0
H1162 H 0.56672 0.88904 0.90508 0.0
H1163 H 0.56746 0.9301 0.9203 0.0
H1164 H 0.53282 0.86392 0.9235 0.0
H1165 H 0.76162 0.96608 0.90993 0.0
H1166 H 0.78375 0.97315 0.93039 0.0
H1167 H 0.75951 1.01134 0.92272 0.0
C1168 C 0.85701 0.65146 0.09178 0.0
C1169 C 0.83831 0.6376 0.10753 0.0
C1170 C 0.82691 0.65153 0.07896 0.0
C1171 C 0.77687 0.63866 0.08189 0.0
C1172 C 0.75749 0.62332 0.09771 0.0
C1173 C 0.78824 0.62285 0.11025 0.0
C1174 C 0.84933 0.66732 0.06238 0.0
C1175 C 0.70487 0.60991 0.1017 0.0
C1176 C 0.70444 0.68325 0.05537 0.0
C1177 C 0.67249 0.64037 0.04664 0.0
C1178 C 0.74046 0.68426 0.06616 0.0
C1179 C 0.74461 0.64112 0.06857 0.0
C1180 C 0.7141 0.59853 0.05923 0.0
C1181 C 0.6783 0.59849 0.04873 0.0
C1182 C 0.77176 0.73061 0.07582 0.0
C1183 C 0.7167 0.55154 0.06122 0.0
H1184 H 0.89592 0.66398 0.08962 0.0
H1185 H 0.77378 0.61357 0.12242 0.0
H1186 H 0.82574 0.63943 0.05326 0.0
H1187 H 0.85103 0.70276 0.0591 0.0
H1188 H 0.88737 0.67244 0.06171 0.0
H1189 H 0.69184 0.58807 0.11302 0.0
H1190 H 0.70297 0.6444 0.10328 0.0
H1191 H 0.6792 0.58849 0.09179 0.0
H1192 H 0.69899 0.71507 0.05463 0.0
H1193 H 0.65185 0.56375 0.0434 0.0
H1194 H 0.81131 0.74024 0.07551 0.0
H1195 H 0.75962 0.724 0.0886 0.0
H1196 H 0.76873 0.76265 0.07128 0.0
H1197 H 0.68945 0.52088 0.0535 0.0
H1198 H 0.70969 0.53936 0.07398 0.0
H1199 H 0.75447 0.55864 0.05815 0.0
C1200 C 0.40508 1.03029 0.6115 0.0
C1201 C 0.43455 1.01832 0.62133 0.0
C1202 C 0.3701 0.99561 0.60048 0.0
C1203 C 0.36444 0.94747 0.59893 0.0
C1204 C 0.39254 0.9345 0.60929 0.0
C1205 C 0.42738 0.96996 0.62005 0.0
C1206 C 0.34142 1.01168 0.58974 0.0
C1207 C 0.38814 0.88395 0.60831 0.0
C1208 C 0.25224 0.84769 0.57528 0.0
C1209 C 0.27202 0.85035 0.55979 0.0
C1210 C 0.28187 0.87768 0.58817 0.0
C1211 C 0.33274 0.91243 0.5856 0.0
C1212 C 0.35324 0.91406 0.57009 0.0
C1213 C 0.32284 0.88313 0.55747 0.0
C1214 C 0.25812 0.87359 0.60439 0.0
C1215 C 0.40682 0.95054 0.56646 0.0
H1216 H 0.41167 0.06797 0.61167 0.0
H1217 H 0.45202 0.96068 0.62634 0.0
H1218 H 0.35481 1.01499 0.57715 0.0
H1219 H 0.3014 0.9835 0.58982 0.0
H1220 H 0.34566 0.04791 0.5935 0.0
H1221 H 0.41522 0.88058 0.61623 0.0
H1222 H 0.35019 0.85524 0.61189 0.0
H1223 H 0.39392 0.87594 0.59572 0.0
H1224 H 0.21284 0.82324 0.57716 0.0
H1225 H 0.33833 0.88669 0.54551 0.0
H1226 H 0.25874 0.90881 0.60722 0.0
H1227 H 0.27947 0.8675 0.61398 0.0
H1228 H 0.21908 0.84287 0.6048 0.0
H1229 H 0.41052 0.98727 0.56389 0.0
H1230 H 0.42034 0.93908 0.55578 0.0
H1231 H 0.43096 0.95499 0.5769 0.0
C1232 C 0.44772 0.23847 0.74135 0.0
C1233 C 0.45505 0.25598 0.72538 0.0
C1234 C 0.4478 0.26781 0.75447 0.0
C1235 C 0.45397 0.31567 0.75166 0.0
C1236 C 0.46259 0.33388 0.73557 0.0
C1237 C 0.46298 0.30399 0.72272 0.0
C1238 C 0.43945 0.24677 0.7713 0.0
C1239 C 0.46972 0.38453 0.73181 0.0
C1240 C 0.40611 0.38024 0.78065 0.0
C1241 C 0.44998 0.41653 0.78801 0.0
C1242 C 0.40625 0.34538 0.76957 0.0
C1243 C 0.45153 0.34691 0.76538 0.0
C1244 C 0.49543 0.3818 0.77336 0.0
C1245 C 0.4942 0.41623 0.78421 0.0
C1246 C 0.35826 0.30893 0.76154 0.0
C1247 C 0.54476 0.3854 0.76956 0.0
H1248 H 0.44015 0.20095 0.74351 0.0
H1249 H 0.46717 0.31734 0.71043 0.0
H1250 H 0.46767 0.27392 0.7797 0.0
H1251 H 0.40256 0.23925 0.77569 0.0
H1252 H 0.44093 0.21179 0.77179 0.0
H1253 H 0.47697 0.39389 0.7188 0.0
H1254 H 0.43608 0.3862 0.73537 0.0
H1255 H 0.50125 0.41319 0.73889 0.0
H1256 H 0.37205 0.38113 0.78272 0.0
H1257 H 0.52915 0.44581 0.78847 0.0
H1258 H 0.35338 0.27107 0.76197 0.0
H1259 H 0.35936 0.31901 0.74866 0.0
H1260 H 0.32561 0.30831 0.7673 0.0
H1261 H 0.57463 0.41099 0.77787 0.0
H1262 H 0.55583 0.39898 0.75704 0.0
H1263 H 0.54175 0.34836 0.77032 0.0
C1264 C 0.10664 0.42592 0.95777 0.0
C1265 C 0.06249 0.42671 0.95473 0.0
C1266 C 0.13591 0.42335 0.94514 0.0
C1267 C 0.12152 0.4225 0.92881 0.0
C1268 C 0.07521 0.4199 0.92571 0.0
C1269 C 1.04632 0.4218 0.93865 0.0
C1270 C 0.18449 0.42587 0.9493 0.0
C1271 C 0.05803 0.41931 0.90866 0.0
C1272 C 0.23024 0.48158 0.89864 0.0
C1273 C 0.23149 0.44023 0.89235 0.0
C1274 C 0.19362 0.47624 0.90996 0.0
C1275 C 0.15676 0.42834 0.91518 0.0
C1276 C 0.15625 0.38646 0.90813 0.0
C1277 C 0.19354 0.39288 0.89698 0.0
C1278 C 0.19612 0.52213 0.91706 0.0
C1279 C 0.11826 0.3347 0.9132 0.0
H1280 H 0.12068 0.43182 0.97003 0.0
H1281 H 1.01357 0.42469 0.93604 0.0
H1282 H 0.18888 0.39765 0.94242 0.0
H1283 H 0.21569 0.46278 0.94592 0.0
H1284 H 0.18746 0.42009 0.96238 0.0
H1285 H 1.01933 0.41247 0.9082 0.0
H1286 H 0.08274 0.45551 0.90286 0.0
H1287 H 0.06037 0.39039 0.90148 0.0
H1288 H 0.26007 0.51828 0.8956 0.0
H1289 H 0.19486 0.36067 0.89259 0.0
H1290 H 0.20201 0.5231 0.93028 0.0
H1291 H 0.16041 0.52143 0.91508 0.0
H1292 H 0.22662 0.55653 0.91176 0.0
H1293 H 0.12548 0.32839 0.92584 0.0
H1294 H 0.11922 0.30602 0.90544 0.0
H1295 H 0.0804 0.32997 0.91279 0.0
C1296 C 0.68176 0.10167 0.12109 0.0
C1297 C 0.67515 0.05365 0.12293 0.0
C1298 C 0.71701 0.13673 0.11038 0.0
C1299 C 0.74596 0.12357 0.10051 0.0
C1300 C 0.74101 0.07588 0.10263 0.0
C1301 C 0.70575 0.04168 0.11369 0.0
C1302 C 0.72075 0.1869 0.1088 0.0
C1303 C 0.7706 0.05966 0.09241 0.0
C1304 C 0.78703 0.18561 0.05878 0.0
C1305 C 0.83762 0.21931 0.06111 0.0
C1306 C 0.75694 0.15492 0.07147 0.0
C1307 C 0.77753 0.15779 0.08704 0.0
C1308 C 0.82814 0.19342 0.0896 0.0
C1309 C 0.85751 0.2231 0.07664 0.0
C1310 C 0.70356 0.11751 0.0679 0.0
C1311 C 0.85185 0.19894 0.10592 0.0
H1312 H 0.65629 0.11091 0.12679 0.0
H1313 H 0.69967 1.00421 0.11425 0.0
H1314 H 0.7588 0.21633 0.11198 0.0
H1315 H 0.71399 0.19328 0.09613 0.0
H1316 H 0.69397 0.19088 0.11669 0.0
H1317 H 0.76696 1.02408 0.09663 0.0
H1318 H 0.75745 0.05496 0.07974 0.0
H1319 H 0.81043 0.08838 0.09246 0.0
H1320 H 0.77155 0.18124 0.04678 0.0
H1321 H 0.89676 0.2483 0.07851 0.0
H1322 H 0.67907 0.11488 0.07804 0.0
H1323 H 0.70013 0.08046 0.06636 0.0
H1324 H 0.6902 0.12675 0.05671 0.0
H1325 H 0.82994 0.20494 0.11534 0.0
H1326 H 0.89058 0.23029 0.10628 0.0
H1327 H 0.85208 0.16433 0.10904 0.0
C1328 C 0.68794 0.6555 0.27158 0.0
C1329 C 0.67174 0.65472 0.2875 0.0
C1330 C 0.68943 0.68955 0.25995 0.0
C1331 C 0.67556 0.72524 0.26426 0.0
C1332 C 0.66457 0.72827 0.28074 0.0
C1333 C 0.66267 0.6931 0.29204 0.0
C1334 C 0.70095 0.68377 0.24268 0.0
C1335 C 0.65062 0.76601 0.28627 0.0
C1336 C 0.70299 0.83384 0.23573 0.0
C1337 C 0.65633 0.81957 0.22878 0.0
C1338 C 0.71001 0.80343 0.2469 0.0
C1339 C 0.66948 0.75692 0.25144 0.0
C1340 C 0.62275 0.74121 0.2439 0.0
C1341 C 0.61672 0.7726 0.23277 0.0
C1342 C 0.76036 0.82244 0.25455 0.0
C1343 C 0.57822 0.69221 0.24824 0.0
H1344 H 0.69356 0.6253 0.26765 0.0
H1345 H 0.64954 0.69308 0.30408 0.0
H1346 H 0.66618 0.66763 0.23551 0.0
H1347 H 0.72703 0.72028 0.23732 0.0
H1348 H 0.71725 0.65909 0.24157 0.0
H1349 H 0.651 0.76899 0.29963 0.0
H1350 H 0.67629 0.80302 0.28113 0.0
H1351 H 0.61269 0.755 0.28194 0.0
H1352 H 0.73367 0.87045 0.23308 0.0
H1353 H 0.58019 0.76161 0.22797 0.0
H1354 H 0.77288 0.79478 0.25326 0.0
H1355 H 0.75787 0.82813 0.26766 0.0
H1356 H 0.78882 0.858 0.24917 0.0
H1357 H 0.58828 0.66257 0.24851 0.0
H1358 H 0.54705 0.68153 0.23965 0.0
H1359 H 0.5652 0.69465 0.26048 0.0
C1360 C 1.00564 0.65012 0.45594 0.0
C1361 C 1.0447 0.6407 0.4528 0.0
C1362 C 0.9779 0.65551 0.44333 0.0
C1363 C 0.98693 0.64802 0.42704 0.0
C1364 C 1.02695 0.63931 0.42379 0.0
C1365 C 0.05582 0.63693 0.4366 0.0
C1366 C 0.93724 0.66678 0.44762 0.0
C1367 C 1.03699 0.62866 0.40686 0.0
C1368 C 0.87972 0.6119 0.39652 0.0
C1369 C 0.89572 0.65622 0.38784 0.0
C1370 C 0.90923 0.6082 0.40901 0.0
C1371 C 0.95536 0.65011 0.41341 0.0
C1372 C 0.97183 0.69446 0.40459 0.0
C1373 C 0.94311 0.69632 0.39173 0.0
C1374 C 0.89094 0.55937 0.41755 0.0
C1375 C 1.01949 0.7408 0.409 0.0
H1376 H 0.99464 0.65025 0.46835 0.0
H1377 H 0.08405 0.62696 0.43401 0.0
H1378 H 0.93705 0.69438 0.43917 0.0
H1379 H 0.90072 0.63247 0.4467 0.0
H1380 H 0.94138 0.6812 0.46013 0.0
H1381 H 0.06915 0.62222 0.40629 0.0
H1382 H 1.00368 0.59534 0.40216 0.0
H1383 H 1.04431 0.65984 0.39873 0.0
H1384 H 0.84382 0.58029 0.39379 0.0
H1385 H 0.95815 0.73022 0.3848 0.0
H1386 H 0.88378 0.56318 0.43042 0.0
H1387 H 0.91987 0.54824 0.41716 0.0
H1388 H 0.85624 0.52947 0.41212 0.0
H1389 H 1.01906 0.74933 0.42198 0.0
H1390 H 1.02534 0.77345 0.40182 0.0
H1391 H 1.05165 0.73506 0.40706 0.0
C1392 C 0.60288 0.70131 0.33391 0.0
C1393 C 0.57118 0.65659 0.32554 0.0
C1394 C 0.59324 0.74219 0.3358 0.0
C1395 C 0.54955 0.74089 0.32948 0.0
C1396 C 0.517 0.69571 0.32106 0.0
C1397 C 0.52805 0.65553 0.31912 0.0
C1398 C 0.63071 0.78742 0.34479 0.0
C1399 C 0.46986 0.68967 0.31378 0.0
C1400 C 0.50374 0.83294 0.34673 0.0
C1401 C 0.5188 0.87148 0.33513 0.0
C1402 C 0.51317 0.79166 0.34512 0.0
C1403 C 0.53868 0.78613 0.33147 0.0
C1404 C 0.55412 0.82515 0.31979 0.0
C1405 C 0.54395 0.86577 0.32165 0.0
C1406 C 0.49529 0.75328 0.35827 0.0
C1407 C 0.5825 0.82452 0.30515 0.0
H1408 H 0.63655 0.70508 0.33895 0.0
H1409 H 0.50234 0.62288 0.31241 0.0
H1410 H 0.6387 0.82151 0.33812 0.0
H1411 H 0.61514 0.78869 0.3567 0.0
H1412 H 0.66608 0.78734 0.34679 0.0
H1413 H 0.44431 0.6508 0.3101 0.0
H1414 H 0.45037 0.70134 0.32247 0.0
H1415 H 0.47904 0.71376 0.30299 0.0
H1416 H 0.48359 0.8345 0.35717 0.0
H1417 H 0.55647 0.89392 0.31235 0.0
H1418 H 0.52752 0.75302 0.36397 0.0
H1419 H 0.47128 0.71591 0.35306 0.0
H1420 H 0.4742 0.7603 0.36775 0.0
H1421 H 0.61831 0.82785 0.309 0.0
H1422 H 0.59029 0.85518 0.29667 0.0
H1423 H 0.56139 0.78873 0.29869 0.0
C1424 C 0.70573 0.47935 0.51494 0.0
C1425 C 0.68264 0.49377 0.50293 0.0
C1426 C 0.75654 0.48886 0.51379 0.0
C1427 C 0.78803 0.51382 0.50023 0.0
C1428 C 0.76497 0.52892 0.48819 0.0
C1429 C 0.71401 0.51845 0.48955 0.0
C1430 C 0.77671 0.47179 0.52734 0.0
C1431 C 0.7947 0.55717 0.47368 0.0
C1432 C 0.93648 0.57751 0.50339 0.0
C1433 C 0.94976 0.5454 0.49524 0.0
C1434 C 0.88598 0.56811 0.50504 0.0
C1435 C 0.8441 0.52444 0.49866 0.0
C1436 C 0.85711 0.49161 0.49046 0.0
C1437 C 0.9082 0.50229 0.48882 0.0
C1438 C 0.87786 0.6058 0.51388 0.0
C1439 C 0.81648 0.44443 0.48322 0.0
H1440 H 0.68363 0.45959 0.52533 0.0
H1441 H 0.69864 0.53039 0.47996 0.0
H1442 H 0.79082 0.44773 0.52254 0.0
H1443 H 0.80847 0.50436 0.53305 0.0
H1444 H 0.74834 0.45111 0.53673 0.0
H1445 H 0.77329 0.56789 0.46547 0.0
H1446 H 0.82866 0.59122 0.47764 0.0
H1447 H 0.8069 0.53436 0.46684 0.0
H1448 H 0.96607 0.61124 0.50847 0.0
H1449 H 0.91551 0.47639 0.48228 0.0
H1450 H 0.86593 0.59265 0.52639 0.0
H1451 H 0.84834 0.61061 0.50806 0.0
H1452 H 0.91228 0.64241 0.51449 0.0
H1453 H 0.78877 0.42246 0.49263 0.0
H1454 H 0.83087 0.42132 0.47779 0.0
H1455 H 0.79684 0.45333 0.47376 0.0
C1456 C 0.38759 0.91437 0.66929 0.0
C1457 C 0.43166 0.92742 0.66038 0.0
C1458 C 0.34648 0.8641 0.67091 0.0
C1459 C 0.34698 0.82217 0.66377 0.0
C1460 C 0.39148 0.83501 0.65478 0.0
C1461 C 0.43182 0.88586 0.65316 0.0
C1462 C 0.30173 0.85617 0.68038 0.0
C1463 C 0.3967 0.79456 0.64659 0.0
C1464 C 0.25518 0.68397 0.68024 0.0
C1465 C 0.21697 0.66104 0.66849 0.0
C1466 C 0.29633 0.73451 0.6789 0.0
C1467 C 0.30168 0.76628 0.6655 0.0
C1468 C 0.26259 0.74349 0.65378 0.0
C1469 C 0.22259 0.69257 0.65524 0.0
C1470 C 0.33489 0.75392 0.69202 0.0
C1471 C 0.26271 0.77325 0.63943 0.0
H1472 H 0.38459 0.94403 0.67502 0.0
H1473 H 0.46389 0.89298 0.646 0.0
H1474 H 0.26705 0.8305 0.67391 0.0
H1475 H 0.30137 0.83905 0.69215 0.0
H1476 H 0.30187 0.89146 0.68272 0.0
H1477 H 0.43468 0.80813 0.64175 0.0
H1478 H 0.38772 0.76377 0.65515 0.0
H1479 H 0.37 0.7793 0.63644 0.0
H1480 H 0.25366 0.66184 0.69054 0.0
H1481 H 0.19478 0.67738 0.64582 0.0
H1482 H 0.3331 0.78408 0.69861 0.0
H1483 H 0.37257 0.76987 0.6867 0.0
H1484 H 0.32949 0.72466 0.7008 0.0
H1485 H 0.26848 0.80989 0.64337 0.0
H1486 H 0.22757 0.75401 0.63246 0.0
H1487 H 0.29389 0.78007 0.63132 0.0
C1488 C 0.58486 0.41812 0.8171 0.0
C1489 C 0.54414 0.41881 0.8248 0.0
C1490 C 0.59633 0.3782 0.81895 0.0
C1491 C 0.56645 0.33476 0.82857 0.0
C1492 C 0.52484 0.33501 0.8361 0.0
C1493 C 0.51488 0.37579 0.8343 0.0
C1494 C 0.64103 0.38285 0.81022 0.0
C1495 C 0.48957 0.2913 0.84614 0.0
C1496 C 0.57375 0.2106 0.82063 0.0
C1497 C 0.59948 0.20527 0.83402 0.0
C1498 C 0.56218 0.25038 0.81897 0.0
C1499 C 0.57782 0.28972 0.83056 0.0
C1500 C 0.60416 0.28471 0.8441 0.0
C1501 C 0.61393 0.2436 0.84569 0.0
C1502 C 0.53221 0.24978 0.80459 0.0
C1503 C 0.62266 0.32332 0.85719 0.0
H1504 H 0.6084 0.44926 0.80944 0.0
H1505 H 0.48274 0.37314 0.84029 0.0
H1506 H 0.66043 0.36774 0.81756 0.0
H1507 H 0.62883 0.36144 0.79882 0.0
H1508 H 0.66774 0.422 0.80713 0.0
H1509 H 0.45433 0.29126 0.84855 0.0
H1510 H 0.48085 0.25609 0.84005 0.0
H1511 H 0.50732 0.29255 0.85786 0.0
H1512 H 0.56169 0.18266 0.81127 0.0
H1513 H 0.63427 0.24226 0.85612 0.0
H1514 H 0.55582 0.28093 0.79644 0.0
H1515 H 0.50086 0.25498 0.80854 0.0
H1516 H 0.5171 0.21462 0.79768 0.0
H1517 H 0.65183 0.32216 0.86465 0.0
H1518 H 0.59129 0.31645 0.86522 0.0
H1519 H 0.6378 0.36104 0.85202 0.0
C1520 C 0.17093 0.49168 0.00427 0.0
C1521 C 0.15771 0.52354 0.99593 0.0
C1522 C 0.22137 0.50087 0.00594 0.0
C1523 C 0.26334 0.54409 0.9994 0.0
C1524 C 0.25042 0.57668 0.991 0.0
C1525 C 0.19936 0.56621 0.98933 0.0
C1526 C 0.22942 0.46346 0.015 0.0
C1527 C 0.29114 0.62338 0.98356 0.0
C1528 C 0.40175 0.58953 0.01578 0.0
C1529 C 0.42459 0.57392 0.00403 0.0
C1530 C 0.35105 0.58031 0.01451 0.0
C1531 C 0.31937 0.55452 1.00106 0.0
C1532 C 0.3422 0.53834 0.98926 0.0
C1533 C 0.39302 0.54837 0.99077 0.0
C1534 C 0.33117 0.5985 0.02783 0.0
C1535 C 0.31232 0.50935 0.97487 0.0
H1536 H 0.14133 0.45832 0.00951 0.0
H1537 H 0.19217 0.59194 0.98265 0.0
H1538 H 0.25799 0.45749 0.009 0.0
H1539 H 0.24274 0.47769 0.02732 0.0
H1540 H 0.1947 0.42727 0.01606 0.0
H1541 H 0.27686 0.64634 0.97796 0.0
H1542 H 0.31896 0.64574 0.9929 0.0
H1543 H 0.3106 0.61383 0.97421 0.0
H1544 H 0.42394 0.60991 0.02608 0.0
H1545 H 0.40811 0.5354 0.98138 0.0
H1546 H 0.29922 0.56646 0.03367 0.0
H1547 H 0.31742 0.62256 0.02276 0.0
H1548 H 0.35961 0.61955 0.03717 0.0
H1549 H 0.27874 0.47521 0.97897 0.0
H1550 H 0.33383 0.49871 0.96668 0.0
H1551 H 0.29949 0.53153 0.96797 0.0
C1552 C 0.85068 0.39001 0.18002 0.0
C1553 C 0.88903 0.4127 0.16831 0.0
C1554 C 0.80928 0.33958 0.17866 0.0
C1555 C 0.80379 0.30766 0.16528 0.0
C1556 C 0.843 0.33022 0.1536 0.0
C1557 C 0.88324 0.38104 0.15507 0.0
C1558 C 0.77066 0.32045 0.19176 0.0
C1559 C 0.84281 0.30028 0.13928 0.0
C1560 C 0.71753 0.15966 0.16925 0.0
C1561 C 0.6735 0.14647 0.16029 0.0
C1562 C 0.75867 0.20992 0.17083 0.0
C1563 C 0.75835 0.25178 0.16358 0.0
C1564 C 0.71395 0.2388 0.15449 0.0
C1565 C 0.67355 0.18793 0.15291 0.0
C1566 C 0.80331 0.21789 0.18037 0.0
C1567 C 0.70892 0.27911 0.14613 0.0
H1568 H 0.85231 0.41223 0.19032 0.0
H1569 H 0.91113 0.39603 0.14567 0.0
H1570 H 0.73296 0.30408 0.18641 0.0
H1571 H 0.77266 0.29069 0.19852 0.0
H1572 H 0.77584 0.34998 0.2004 0.0
H1573 H 0.87813 0.31919 0.13239 0.0
H1574 H 0.83651 0.26347 0.14323 0.0
H1575 H 0.81193 0.29386 0.13108 0.0
H1576 H 0.72065 0.13008 0.17496 0.0
H1577 H 0.64159 0.18071 0.14567 0.0
H1578 H 0.80336 0.23477 0.19216 0.0
H1579 H 0.83808 0.24371 0.17397 0.0
H1580 H 0.80328 0.18265 0.18267 0.0
H1581 H 0.71889 0.31062 0.15448 0.0
H1582 H 0.67072 0.26571 0.14152 0.0
H1583 H 0.73495 0.29328 0.13579 0.0
C1584 C 0.25971 0.59036 0.48711 0.0
C1585 C 0.22152 0.57574 0.49884 0.0
C1586 C 0.30085 0.58061 0.48859 0.0
C1587 C 0.30603 0.5544 0.50209 0.0
C1588 C 0.26687 0.53866 0.51376 0.0
C1589 C 0.22694 0.55001 0.51218 0.0
C1590 C 0.33951 0.59908 0.4755 0.0
C1591 C 0.26676 0.509 0.52814 0.0
C1592 C 0.39185 0.49143 0.49851 0.0
C1593 C 0.43562 0.52186 0.50754 0.0
C1594 C 0.35079 0.50099 0.4968 0.0
C1595 C 0.35118 0.54333 0.50394 0.0
C1596 C 0.39542 0.57445 0.51303 0.0
C1597 C 0.43568 0.56348 0.51477 0.0
C1598 C 0.30631 0.46474 0.48722 0.0
C1599 C 0.40045 0.62003 0.52119 0.0
H1600 H 0.25818 0.61071 0.47673 0.0
H1601 H 0.19901 0.53784 0.52156 0.0
H1602 H 0.37719 0.62003 0.48085 0.0
H1603 H 0.3374 0.56705 0.46889 0.0
H1604 H 0.33446 0.62324 0.46673 0.0
H1605 H 0.2316 0.4937 0.53509 0.0
H1606 H 0.27232 0.4779 0.52423 0.0
H1607 H 0.29796 0.53288 0.53626 0.0
H1608 H 0.38902 0.45892 0.49276 0.0
H1609 H 0.46759 0.58796 0.52201 0.0
H1610 H 0.30723 0.4809 0.47522 0.0
H1611 H 0.2714 0.45722 0.49331 0.0
H1612 H 0.30578 0.42906 0.48537 0.0
H1613 H 0.3912 0.64174 0.51263 0.0
H1614 H 0.43846 0.6442 0.52598 0.0
H1615 H 0.37387 0.60887 0.53137 0.0
C1616 C 0.70255 0.23817 0.65247 0.0
C1617 C 0.67954 0.20208 0.66483 0.0
C1618 C 0.75317 0.27945 0.65345 0.0
C1619 C 0.78457 0.28762 0.66723 0.0
C1620 C 0.76154 0.25099 0.67965 0.0
C1621 C 0.71085 0.21037 0.67841 0.0
C1622 C 0.77326 0.31485 0.63948 0.0
C1623 C 0.79105 0.25439 0.6945 0.0
C1624 C 0.93318 0.37241 0.6645 0.0
C1625 C 0.94552 0.41838 0.67199 0.0
C1626 C 0.88299 0.3311 0.66295 0.0
C1627 C 0.84037 0.33326 0.66868 0.0
C1628 C 0.85242 0.37977 0.67611 0.0
C1629 C 0.90323 0.42028 0.67778 0.0
C1630 C 0.87598 0.28465 0.65489 0.0
C1631 C 0.81098 0.38695 0.68249 0.0
H1632 H 0.68054 0.2347 0.6419 0.0
H1633 H 0.69561 0.18427 0.68829 0.0
H1634 H 0.78644 0.35326 0.64373 0.0
H1635 H 0.80565 0.31379 0.63424 0.0
H1636 H 0.74513 0.3058 0.62986 0.0
H1637 H 0.7697 0.22352 0.70305 0.0
H1638 H 0.82535 0.25387 0.69098 0.0
H1639 H 0.80269 0.29003 0.70078 0.0
H1640 H 0.96331 0.36795 0.65992 0.0
H1641 H 0.90969 0.45395 0.68377 0.0
H1642 H 0.864 0.28408 0.64225 0.0
H1643 H 0.84683 0.25113 0.66104 0.0
H1644 H 0.91087 0.28286 0.65469 0.0
H1645 H 0.78282 0.3784 0.67293 0.0
H1646 H 0.82446 0.42534 0.68684 0.0
H1647 H 0.79218 0.3608 0.69257 0.0
C1648 C 0.59976 0.91842 0.83023 0.0
C1649 C 0.56793 0.93191 0.83852 0.0
C1650 C 0.59044 0.86797 0.8286 0.0
C1651 C 0.54695 0.82614 0.83507 0.0
C1652 C 0.51428 0.83925 0.84337 0.0
C1653 C 0.52497 0.89033 0.84504 0.0
C1654 C 0.62807 0.85967 0.81973 0.0
C1655 C 0.46725 0.7987 0.85071 0.0
C1656 C 0.50179 0.68784 0.81867 0.0
C1657 C 0.5171 0.66493 0.83049 0.0
C1658 C 0.51097 0.73848 0.81992 0.0
C1659 C 0.53644 0.7701 0.83342 0.0
C1660 C 0.55233 0.7472 0.84529 0.0
C1661 C 0.54237 0.69647 0.84379 0.0
C1662 C 0.49296 0.75831 0.80654 0.0
C1663 C 0.58079 0.77687 0.85979 0.0
H1664 H 0.63316 0.94782 0.82498 0.0
H1665 H 0.49915 0.89761 0.85167 0.0
H1666 H 0.63539 0.83286 0.82631 0.0
H1667 H 0.61314 0.84382 0.80769 0.0
H1668 H 0.66374 0.89459 0.81806 0.0
H1669 H 0.44413 0.81304 0.85617 0.0
H1670 H 0.4451 0.77086 0.84135 0.0
H1671 H 0.47648 0.7793 0.86016 0.0
H1672 H 0.48165 0.66574 0.80833 0.0
H1673 H 0.5551 0.68137 0.85324 0.0
H1674 H 0.52515 0.79015 0.80072 0.0
H1675 H 0.46885 0.77212 0.81154 0.0
H1676 H 0.47197 0.72988 0.7972 0.0
H1677 H 0.61495 0.81067 0.85582 0.0
H1678 H 0.59146 0.75542 0.86799 0.0
H1679 H 0.55813 0.78923 0.86664 0.0
C1680 C 0.71451 0.57729 1.00035 0.0
C1681 C 0.67055 0.5466 0.00926 0.0
C1682 C 0.75558 0.56775 0.99858 0.0
C1683 C 0.75518 0.52528 0.00559 0.0
C1684 C 0.71086 0.49401 0.01464 0.0
C1685 C 0.67053 0.50492 0.01642 0.0
C1686 C 0.80009 0.60417 0.98904 0.0
C1687 C 0.70584 0.44834 0.02271 0.0
C1688 C 0.84703 0.47873 0.98861 0.0
C1689 C 0.88535 0.49346 1.00031 0.0
C1690 C 0.80576 0.4883 0.99014 0.0
C1691 C 0.80045 0.51432 0.00369 0.0
C1692 C 0.8397 0.53013 0.01533 0.0
C1693 C 0.87982 0.51905 0.01369 0.0
C1694 C 0.76711 0.46991 0.97705 0.0
C1695 C 0.83973 0.55966 0.02975 0.0
H1696 H 0.71765 0.61017 0.99481 0.0
H1697 H 0.63857 0.48029 0.02361 0.0
H1698 H 0.83502 0.61129 0.99503 0.0
H1699 H 0.79892 0.58839 0.97695 0.0
H1700 H 0.80083 0.64001 0.9874 0.0
H1701 H 0.66778 0.42401 0.02742 0.0
H1702 H 0.71532 0.42684 0.01412 0.0
H1703 H 0.73227 0.45939 0.03293 0.0
H1704 H 0.84858 0.45846 0.9782 0.0
H1705 H 0.90782 0.53131 0.02305 0.0
H1706 H 0.76904 0.50199 0.97053 0.0
H1707 H 0.72944 0.44869 0.98238 0.0
H1708 H 0.77234 0.44602 0.9682 0.0
H1709 H 0.83514 0.59132 0.02581 0.0
H1710 H 0.87446 0.57417 0.03689 0.0
H1711 H 0.80789 0.53603 0.03768 0.0
C1712 C 0.40549 0.83544 0.15381 0.0
C1713 C 0.42756 0.87355 0.16563 0.0
C1714 C 0.35512 0.79376 0.15497 0.0
C1715 C 0.32286 0.7873 0.16835 0.0
C1716 C 0.34488 0.82603 0.1802 0.0
C1717 C 0.39542 0.86697 0.17882 0.0
C1718 C 0.33624 0.75607 0.1416 0.0
C1719 C 0.3143 0.8248 0.19448 0.0
C1720 C 0.17461 0.70059 0.16458 0.0
C1721 C 0.16194 0.65589 0.173 0.0
C1722 C 0.22475 0.74207 0.16308 0.0
C1723 C 0.26708 0.74148 0.16987 0.0
C1724 C 0.25473 0.69635 0.17834 0.0
C1725 C 0.20394 0.65556 0.17985 0.0
C1726 C 0.23201 0.78705 0.15396 0.0
C1727 C 0.29579 0.69095 0.18602 0.0
H1728 H 0.42804 0.8377 0.14353 0.0
H1729 H 0.4098 0.89476 0.18824 0.0
H1730 H 0.32266 0.71843 0.14664 0.0
H1731 H 0.30435 0.7562 0.13558 0.0
H1732 H 0.36518 0.76358 0.13241 0.0
H1733 H 0.33543 0.85623 0.20287 0.0
H1734 H 0.28107 0.82619 0.19021 0.0
H1735 H 0.3009 0.78956 0.20118 0.0
H1736 H 0.14478 0.70385 0.15912 0.0
H1737 H 0.19724 0.623 0.1866 0.0
H1738 H 0.24516 0.78595 0.14162 0.0
H1739 H 0.26038 0.82157 0.15986 0.0
H1740 H 0.19696 0.78835 0.15295 0.0
H1741 H 0.32436 0.69704 0.17685 0.0
H1742 H 0.28208 0.65388 0.19156 0.0
H1743 H 0.31418 0.71962 0.19548 0.0
C1744 C 0.61818 0.38794 0.32146 0.0
C1745 C 0.60037 0.41059 0.33252 0.0
C1746 C 0.60852 0.33722 0.32305 0.0
C1747 C 0.57995 0.30535 0.33613 0.0
C1748 C 0.56167 0.32807 0.34723 0.0
C1749 C 0.57247 0.37897 0.34548 0.0
C1750 C 0.62967 0.31769 0.31057 0.0
C1751 C 0.5299 0.29815 0.36119 0.0
C1752 C 0.51705 0.15733 0.33263 0.0
C1753 C 0.54697 0.14353 0.34185 0.0
C1754 C 0.52695 0.20781 0.33078 0.0
C1755 C 0.56887 0.24927 0.3381 0.0
C1756 C 0.5993 0.23573 0.34754 0.0
C1757 C 0.5882 0.18458 0.34932 0.0
C1758 C 0.49154 0.21652 0.3208 0.0
C1759 C 0.64423 0.27577 0.35601 0.0
H1760 H 0.64081 0.41034 0.31152 0.0
H1761 H 0.55831 0.39417 0.35445 0.0
H1762 H 0.65269 0.30403 0.31651 0.0
H1763 H 0.59902 0.28579 0.30421 0.0
H1764 H 0.65269 0.34625 0.30151 0.0
H1765 H 0.51689 0.31925 0.36862 0.0
H1766 H 0.49704 0.26409 0.35665 0.0
H1767 H 0.55111 0.28622 0.369 0.0
H1768 H 0.48449 0.12809 0.32688 0.0
H1769 H 0.61226 0.17683 0.35677 0.0
H1770 H 0.51009 0.23492 0.30938 0.0
H1771 H 0.48121 0.24135 0.32728 0.0
H1772 H 0.45714 0.18154 0.31781 0.0
H1773 H 0.66846 0.3046 0.34722 0.0
H1774 H 0.66615 0.26114 0.36216 0.0
H1775 H 0.63245 0.29402 0.36513 0.0
C1776 C 0.24265 0.75294 0.44805 0.0
C1777 C 0.22123 0.70104 0.44716 0.0
C1778 C 0.27368 0.7846 0.43563 0.0
C1779 C 0.28423 0.76455 0.42174 0.0
C1780 C 0.26269 0.7122 0.42077 0.0
C1781 C 0.23174 0.68139 0.43335 0.0
C1782 C 0.29533 0.83983 0.43741 0.0
C1783 C 0.27247 0.68853 0.40639 0.0
C1784 C 0.33354 0.84495 0.38308 0.0
C1785 C 0.38514 0.86355 0.38402 0.0
C1786 C 0.30048 0.8128 0.39508 0.0
C1787 C 0.31884 0.79827 0.40854 0.0
C1788 C 0.37076 0.81648 0.40942 0.0
C1789 C 0.40286 0.84855 0.39732 0.0
C1790 C 0.24573 0.79477 0.39345 0.0
C1791 C 0.39274 0.80246 0.42333 0.0
H1792 H 0.23501 0.76907 0.45849 0.0
H1793 H 0.21561 0.6416 0.43229 0.0
H1794 H 0.33645 0.85833 0.4374 0.0
H1795 H 0.28426 0.85465 0.42701 0.0
H1796 H 0.28312 0.84988 0.4487 0.0
H1797 H 0.25264 0.64745 0.40721 0.0
H1798 H 0.26071 0.69928 0.39517 0.0
H1799 H 0.31284 0.70208 0.40532 0.0
H1800 H 0.31887 0.85608 0.37306 0.0
H1801 H 0.44232 0.86224 0.39843 0.0
H1802 H 0.2327 0.8074 0.40394 0.0
H1803 H 0.22463 0.75368 0.39345 0.0
H1804 H 0.23684 0.80836 0.38223 0.0
H1805 H 0.38462 0.81525 0.43483 0.0
H1806 H 0.43358 0.81872 0.4222 0.0
H1807 H 0.37552 0.76157 0.42405 0.0
C1808 C 0.58847 0.38543 0.5659 0.0
C1809 C 0.55734 0.36693 0.55229 0.0
C1810 C 0.58826 0.35385 0.57827 0.0
C1811 C 0.55609 0.30183 0.57728 0.0
C1812 C 0.52474 0.28281 0.56354 0.0
C1813 C 0.52573 0.31529 0.55132 0.0
C1814 C 0.62251 0.37639 0.59251 0.0
C1815 C 0.48978 0.2279 0.56178 0.0
C1816 C 0.58737 0.21561 0.60209 0.0
C1817 C 0.55547 0.20303 0.6155 0.0
C1818 C 0.58788 0.24731 0.58971 0.0
C1819 C 0.55568 0.26755 0.59049 0.0
C1820 C 0.52354 0.25523 0.60403 0.0
C1821 C 0.52381 0.22341 0.61627 0.0
C1822 C 0.62297 0.259 0.57569 0.0
C1823 C 0.4885 0.27557 0.60556 0.0
H1824 H 0.61306 0.425 0.56702 0.0
H1825 H 0.50121 0.30007 0.54102 0.0
H1826 H 0.60054 0.36716 0.60381 0.0
H1827 H 0.64758 0.36057 0.59353 0.0
H1828 H 0.64547 0.41733 0.59156 0.0
H1829 H 0.46784 0.21863 0.55045 0.0
H1830 H 0.51103 0.2078 0.56191 0.0
H1831 H 0.46378 0.21413 0.57214 0.0
H1832 H 0.61203 0.20038 0.60114 0.0
H1833 H 0.49873 0.21416 0.62641 0.0
H1834 H 0.64815 0.2996 0.57484 0.0
H1835 H 0.60167 0.2469 0.56425 0.0
H1836 H 0.64581 0.24065 0.57678 0.0
H1837 H 0.50977 0.31666 0.60558 0.0
H1838 H 0.46585 0.26281 0.61674 0.0
H1839 H 0.46315 0.264 0.59503 0.0
C1840 C 0.3965 0.57137 0.77083 0.0
C1841 C 0.37947 0.53723 0.78369 0.0
C1842 C 0.36433 0.57082 0.75862 0.0
C1843 C 0.31302 0.5352 0.75897 0.0
C1844 C 0.29525 0.50098 0.77203 0.0
C1845 C 0.32841 0.50236 0.78414 0.0
C1846 C 0.38563 0.60829 0.74515 0.0
C1847 C 0.24109 0.46233 0.7731 0.0
C1848 C 0.22416 0.56289 0.73405 0.0
C1849 C 0.21652 0.5349 0.71988 0.0
C1850 C 0.25452 0.56273 0.74681 0.0
C1851 C 0.2785 0.53395 0.74565 0.0
C1852 C 0.27082 0.50549 0.73141 0.0
C1853 C 0.24016 0.50624 0.71882 0.0
C1854 C 0.26108 0.59373 0.76159 0.0
C1855 C 0.29529 0.47423 0.72942 0.0
H1856 H 0.43551 0.59867 0.77014 0.0
H1857 H 0.31435 0.47547 0.79383 0.0
H1858 H 0.37942 0.58893 0.73341 0.0
H1859 H 0.3664 0.63033 0.74461 0.0
H1860 H 0.42606 0.63406 0.74663 0.0
H1861 H 0.23253 0.43917 0.78412 0.0
H1862 H 0.21791 0.4804 0.77309 0.0
H1863 H 0.2303 0.4378 0.76237 0.0
H1864 H 0.20617 0.58503 0.73525 0.0
H1865 H 0.23468 0.48415 0.70811 0.0
H1866 H 0.30081 0.62186 0.76308 0.0
H1867 H 0.24972 0.57001 0.77252 0.0
H1868 H 0.23907 0.61305 0.76094 0.0
H1869 H 0.33623 0.49816 0.72982 0.0
H1870 H 0.28499 0.4533 0.71789 0.0
H1871 H 0.28468 0.44751 0.73954 0.0
C1872 C 0.70342 0.21821 0.89874 0.0
C1873 C 0.72324 0.20569 0.88542 0.0
C1874 C 0.73406 0.24989 0.9112 0.0
C1875 C 0.78637 0.27004 0.91061 0.0
C1876 C 0.80663 0.2577 0.89717 0.0
C1877 C 0.77513 0.22602 0.88485 0.0
C1878 C 0.71024 0.26162 0.92511 0.0
C1879 C 0.86186 0.27778 0.89584 0.0
C1880 C 0.87174 0.38696 0.93558 0.0
C1881 C 0.88369 0.36757 0.94914 0.0
C1882 C 0.84026 0.35598 0.92314 0.0
C1883 C 0.81974 0.30374 0.924 0.0
C1884 C 0.83146 0.28391 0.93768 0.0
C1885 C 0.86296 0.31575 0.94998 0.0
C1886 C 0.82919 0.37935 0.90896 0.0
C1887 C 0.81097 0.22879 0.93929 0.0
H1888 H 0.66361 0.203 0.89952 0.0
H1889 H 0.79137 0.21686 0.87477 0.0
H1890 H 0.71875 0.24898 0.93658 0.0
H1891 H 0.72578 0.30228 0.92607 0.0
H1892 H 0.6693 0.24376 0.92381 0.0
H1893 H 0.87214 0.26525 0.88467 0.0
H1894 H 0.88157 0.31888 0.89597 0.0
H1895 H 0.87519 0.26573 0.9064 0.0
H1896 H 0.88727 0.42669 0.9346 0.0
H1897 H 0.8717 0.29985 0.96024 0.0
H1898 H 0.78853 0.36397 0.9078 0.0
H1899 H 0.84222 0.37036 0.89766 0.0
H1900 H 0.84719 0.42028 0.91009 0.0
H1901 H 0.76982 0.20931 0.93899 0.0
H1902 H 0.82295 0.21884 0.95065 0.0
H1903 H 0.82335 0.21494 0.92895 0.0
C1904 C 0.52429 0.85692 0.10342 0.0
C1905 C 0.55534 0.86911 0.11707 0.0
C1906 C 0.5248 0.82612 0.09091 0.0
C1907 C 0.55722 0.8062 0.09174 0.0
C1908 C 0.58866 0.81811 0.10548 0.0
C1909 C 0.5874 0.8492 0.11788 0.0
C1910 C 0.49039 0.81493 0.07672 0.0
C1911 C 0.62386 0.79801 0.10708 0.0
C1912 C 0.52257 0.68843 0.0668 0.0
C1913 C 0.55321 0.70661 0.05305 0.0
C1914 C 0.52393 0.72001 0.07936 0.0
C1915 C 0.55683 0.77188 0.07848 0.0
C1916 C 0.58787 0.79067 0.06465 0.0
C1917 C 0.58574 0.75811 0.0522 0.0
C1918 C 0.48987 0.6976 0.09365 0.0
C1919 C 0.62356 0.84543 0.06299 0.0
H1920 H 0.49939 0.8718 0.10236 0.0
H1921 H 0.61198 0.85824 0.12816 0.0
H1922 H 0.51216 0.82702 0.06538 0.0
H1923 H 0.46496 0.77438 0.07578 0.0
H1924 H 0.46776 0.83354 0.07767 0.0
H1925 H 0.64628 0.81079 0.11831 0.0
H1926 H 0.60271 0.75692 0.10707 0.0
H1927 H 0.64937 0.80972 0.09659 0.0
H1928 H 0.49734 0.649 0.06788 0.0
H1929 H 0.61004 0.7731 0.04185 0.0
H1930 H 0.46476 0.71336 0.09467 0.0
H1931 H 0.51195 0.70698 0.10493 0.0
H1932 H 0.46692 0.65664 0.09275 0.0
H1933 H 0.60284 0.86606 0.06306 0.0
H1934 H 0.64574 0.85449 0.05172 0.0
H1935 H 0.64929 0.85876 0.07343 0.0
C1936 C 0.70351 0.50354 0.26826 0.0
C1937 C 0.72224 0.53599 0.28153 0.0
C1938 C 0.73501 0.50299 0.25597 0.0
C1939 C 0.78707 0.53572 0.25672 0.0
C1940 C 0.80624 0.5685 0.27009 0.0
C1941 C 0.77389 0.56824 0.28223 0.0
C1942 C 0.7124 0.46729 0.24209 0.0
C1943 C 0.86118 0.60421 0.27156 0.0
C1944 C 0.8752 0.50558 0.23244 0.0
C1945 C 0.88677 0.53641 0.21881 0.0
C1946 C 0.84299 0.50485 0.2447 0.0
C1947 C 0.82132 0.53575 0.24356 0.0
C1948 C 0.83269 0.5668 0.2298 0.0
C1949 C 0.86496 0.56673 0.21769 0.0
C1950 C 0.83234 0.47102 0.259 0.0
C1951 C 0.81093 0.60052 0.22791 0.0
H1952 H 0.6639 0.47843 0.26739 0.0
H1953 H 0.78929 0.59372 0.29228 0.0
H1954 H 0.72089 0.48806 0.23057 0.0
H1955 H 0.72887 0.44275 0.24137 0.0
H1956 H 0.67148 0.4439 0.24323 0.0
H1957 H 0.87056 0.62713 0.28266 0.0
H1958 H 0.88187 0.58356 0.27167 0.0
H1959 H 0.87427 0.62922 0.26095 0.0
H1960 H 0.89158 0.48198 0.23362 0.0
H1961 H 0.8734 0.59094 0.20736 0.0
H1962 H 0.79181 0.44535 0.26003 0.0
H1963 H 0.84447 0.49318 0.27026 0.0
H1964 H 0.85139 0.44881 0.2581 0.0
H1965 H 0.76981 0.57843 0.22805 0.0
H1966 H 0.82286 0.62219 0.21653 0.0
H1967 H 0.82229 0.62671 0.2382 0.0
C1968 C 0.86166 0.431 0.41098 0.0
C1969 C 0.89649 0.42877 0.4213 0.0
C1970 C 0.81214 0.39256 0.41059 0.0
C1971 C 0.797 0.35146 0.42097 0.0
C1972 C 0.83025 0.3519 0.43272 0.0
C1973 C 0.87966 0.39003 0.43258 0.0
C1974 C 0.77765 0.39379 0.398 0.0
C1975 C 0.81519 0.30935 0.44433 0.0
C1976 C 0.66687 0.2414 0.42415 0.0
C1977 C 0.67214 0.20577 0.41523 0.0
C1978 C 0.70626 0.29032 0.42545 0.0
C1979 C 0.75145 0.30391 0.41741 0.0
C1980 C 0.75557 0.2692 0.40742 0.0
C1981 C 0.7163 0.22055 0.40666 0.0
C1982 C 0.70051 0.32631 0.43622 0.0
C1983 C 0.80288 0.28237 0.39838 0.0
H1984 H 0.87349 0.46138 0.40255 0.0
H1985 H 0.90559 0.38698 0.44058 0.0
H1986 H 0.77672 0.37132 0.38746 0.0
H1987 H 0.73922 0.37764 0.40267 0.0
H1988 H 0.79027 0.43216 0.39378 0.0
H1989 H 0.84193 0.31934 0.45446 0.0
H1990 H 0.7778 0.29726 0.44938 0.0
H1991 H 0.81362 0.27735 0.43783 0.0
H1992 H 0.63255 0.23075 0.43053 0.0
H1993 H 0.72158 0.19355 0.39998 0.0
H1994 H 0.71788 0.36376 0.43074 0.0
H1995 H 0.71963 0.3296 0.44784 0.0
H1996 H 0.66088 0.31382 0.4388 0.0
H1997 H 0.8161 0.31762 0.39169 0.0
H1998 H 0.79793 0.25308 0.38967 0.0
H1999 H 0.83232 0.28769 0.40707 0.0
C2000 C 0.50257 0.8364 0.60104 0.0
C2001 C 0.48071 0.85597 0.59073 0.0
C2002 C 0.48952 0.7865 0.60025 0.0
C2003 C 0.45454 0.75556 0.5886 0.0
C2004 C 0.42778 0.77325 0.57962 0.0
C2005 C 0.44113 0.82343 0.5808 0.0
C2006 C 0.51799 0.76875 0.61048 0.0
C2007 C 0.38871 0.7408 0.56756 0.0
C2008 C 0.5076 0.68131 0.57081 0.0
C2009 C 0.48481 0.63821 0.58023 0.0
C2010 C 0.49355 0.71748 0.57207 0.0
C2011 C 0.45637 0.71096 0.58328 0.0
C2012 C 0.42956 0.66546 0.59157 0.0
C2013 C 0.44413 0.62947 0.58995 0.0
C2014 C 0.52252 0.76508 0.56267 0.0
C2015 C 0.38849 0.65629 0.60321 0.0
H2016 H 0.53316 0.86065 0.60878 0.0
H2017 H 0.42249 0.83763 0.57324 0.0
H2018 H 0.49268 0.73175 0.61565 0.0
H2019 H 0.54558 0.76534 0.60285 0.0
H2020 H 0.53811 0.79472 0.62051 0.0
H2021 H 0.36191 0.75409 0.56535 0.0
H2022 H 0.40685 0.74176 0.55593 0.0
H2023 H 0.36813 0.70172 0.57168 0.0
H2024 H 0.53925 0.689 0.56334 0.0
H2025 H 0.42512 0.59554 0.59689 0.0
H2026 H 0.54739 0.79525 0.57098 0.0
H2027 H 0.49711 0.77617 0.55701 0.0
H2028 H 0.54565 0.76173 0.55306 0.0
H2029 H 0.40464 0.67016 0.61532 0.0
H2030 H 0.36154 0.61606 0.6043 0.0
H2031 H 0.3684 0.6759 0.59946 0.0
C2032 C 0.74835 0.56548 0.73666 0.0
C2033 C 0.70069 0.53687 0.74307 0.0
C2034 C 0.78318 0.54941 0.73763 0.0
C2035 C 0.76982 0.50354 0.74516 0.0
C2036 C 0.72079 0.47303 0.75074 0.0
C2037 C 0.68674 0.49021 0.74969 0.0
C2038 C 0.83511 0.58284 0.7314 0.0
C2039 C 0.70492 0.42333 0.75841 0.0
C2040 C 0.86898 0.46925 0.73798 0.0
C2041 C 0.89959 0.49167 0.75136 0.0
C2042 C 0.82335 0.46799 0.73651 0.0
C2043 C 0.809 0.49072 0.74854 0.0
C2044 C 0.83769 0.50921 0.76275 0.0
C2045 C 0.88266 0.50919 0.76402 0.0
C2046 C 0.79308 0.44622 0.72143 0.0
C2047 C 0.8236 0.53366 0.77588 0.0
H2048 H 0.75923 0.60163 0.73161 0.0
H2049 H 0.64952 0.46767 0.75439 0.0
H2050 H 0.86184 0.59516 0.74158 0.0
H2051 H 0.8458 0.56233 0.72283 0.0
H2052 H 0.83872 0.61618 0.72521 0.0
H2053 H 0.66406 0.40144 0.76012 0.0
H2054 H 0.71694 0.40159 0.75089 0.0
H2055 H 0.72295 0.4288 0.77036 0.0
H2056 H 0.8819 0.45502 0.72828 0.0
H2057 H 0.90646 0.52663 0.77435 0.0
H2058 H 0.80616 0.47518 0.71195 0.0
H2059 H 0.75299 0.43236 0.7235 0.0
H2060 H 0.79785 0.41525 0.71684 0.0
H2061 H 0.82925 0.56983 0.77147 0.0
H2062 H 0.84624 0.54033 0.78695 0.0
H2063 H 0.78385 0.51061 0.77909 0.0
C2064 C 0.38809 0.87628 0.90539 0.0
C2065 C 0.42876 0.88834 0.91557 0.0
C2066 C 0.34682 0.82863 0.90521 0.0
C2067 C 0.3451 0.79237 0.91589 0.0
C2068 C 0.38624 0.80345 0.92588 0.0
C2069 C 0.42777 0.85119 0.9255 0.0
C2070 C 0.30387 0.81796 0.89417 0.0
C2071 C 0.38533 0.76583 0.9376 0.0
C2072 C 0.21349 0.70242 0.92805 0.0
C2073 C 0.20212 0.66115 0.91829 0.0
C2074 C 0.26102 0.74392 0.92817 0.0
C2075 C 0.29786 0.74523 0.91783 0.0
C2076 C 0.28743 0.70359 0.90822 0.0
C2077 C 0.2398 0.66185 0.90867 0.0
C2078 C 0.27098 0.78742 0.93881 0.0
C2079 C 0.32569 0.70407 0.89685 0.0
H2080 H 0.3872 0.9045 0.89798 0.0
H2081 H 0.45887 0.85952 0.93331 0.0
H2082 H 0.29139 0.78254 0.88764 0.0
H2083 H 0.27206 0.81408 0.90141 0.0
H2084 H 0.31365 0.84788 0.88517 0.0
H2085 H 0.42239 0.77798 0.943 0.0
H2086 H 0.3588 0.75995 0.94747 0.0
H2087 H 0.37231 0.72958 0.93158 0.0
H2088 H 0.18484 0.7035 0.9352 0.0
H2089 H 0.23197 0.63029 0.90118 0.0
H2090 H 0.27522 0.81871 0.93123 0.0
H2091 H 0.30609 0.80036 0.9456 0.0
H2092 H 0.2405 0.77814 0.94757 0.0
H2093 H 0.33205 0.73015 0.8868 0.0
H2094 H 0.31383 0.66686 0.89167 0.0
H2095 H 0.3617 0.71737 0.9031 0.0
C2096 C 0.60706 0.23389 0.10166 0.0
C2097 C 0.62901 0.21541 0.09092 0.0
C2098 C 0.61948 0.28368 0.10135 0.0
C2099 C 0.65361 0.3156 0.0897 0.0
C2100 C 0.68041 0.29899 0.08021 0.0
C2101 C 0.66803 0.24901 0.08102 0.0
C2102 C 0.59123 0.30033 0.11214 0.0
C2103 C 0.71836 0.33242 0.06803 0.0
C2104 C 0.59968 0.39087 0.07315 0.0
C2105 C 0.62408 0.43436 0.08236 0.0
C2106 C 0.61303 0.35412 0.07415 0.0
C2107 C 0.65101 0.36027 0.08496 0.0
C2108 C 0.67888 0.40574 0.0932 0.0
C2109 C 0.66519 0.44246 0.09175 0.0
C2110 C 0.58292 0.30658 0.06482 0.0
C2111 C 0.7204 0.41429 0.10454 0.0
H2112 H 0.57692 0.20896 0.10942 0.0
H2113 H 0.68694 0.23579 0.07317 0.0
H2114 H 0.61637 0.3375 0.11725 0.0
H2115 H 0.5624 0.30294 0.10496 0.0
H2116 H 0.57262 0.27407 0.12224 0.0
H2117 H 0.74488 0.31932 0.06504 0.0
H2118 H 0.69911 0.33255 0.05677 0.0
H2119 H 0.73939 0.37111 0.0725 0.0
H2120 H 0.56758 0.38353 0.06598 0.0
H2121 H 0.6854 0.47657 0.09854 0.0
H2122 H 0.55847 0.27655 0.07323 0.0
H2123 H 0.6076 0.29511 0.05883 0.0
H2124 H 0.55925 0.31022 0.05547 0.0
H2125 H 0.70469 0.3998 0.11665 0.0
H2126 H 0.74751 0.45443 0.1058 0.0
H2127 H 0.74023 0.39477 0.10043 0.0
C2128 C 0.42153 0.581 0.26249 0.0
C2129 C 0.43666 0.56677 0.24851 0.0
C2130 C 0.3787 0.5853 0.26251 0.0
C2131 C 0.35114 0.57621 0.2481 0.0
C2132 C 0.36855 0.56598 0.23363 0.0
C2133 C 0.41107 0.56104 0.23402 0.0
C2134 C 0.36123 0.59641 0.27816 0.0
C2135 C 0.34042 0.55684 0.21799 0.0
C2136 C 0.21219 0.51892 0.2524 0.0
C2137 C 0.20585 0.55996 0.2501 0.0
C2138 C 0.25952 0.52391 0.25182 0.0
C2139 C 0.30113 0.57104 0.24866 0.0
C2140 C 0.29473 0.61261 0.24621 0.0
C2141 C 0.24687 0.60651 0.24699 0.0
C2142 C 0.26498 0.47878 0.25462 0.0
C2143 C 0.33817 0.66316 0.24255 0.0
H2144 H 0.44213 0.58687 0.27361 0.0
H2145 H 0.42261 0.55004 0.22318 0.0
H2146 H 0.35583 0.62892 0.27667 0.0
H2147 H 0.32483 0.56446 0.2816 0.0
H2148 H 0.38778 0.60395 0.28817 0.0
H2149 H 0.36253 0.55665 0.20747 0.0
H2150 H 0.30583 0.52043 0.21855 0.0
H2151 H 0.32955 0.58551 0.21602 0.0
H2152 H 0.18002 0.48296 0.25471 0.0
H2153 H 0.24135 0.63779 0.24484 0.0
H2154 H 0.29013 0.48532 0.26498 0.0
H2155 H 0.28196 0.47175 0.24388 0.0
H2156 H 0.22885 0.44502 0.25709 0.0
H2157 H 0.36639 0.67464 0.25224 0.0
H2158 H 0.32687 0.69182 0.24132 0.0
H2159 H 0.35624 0.66173 0.23117 0.0
loop_
_geom_bond_atom_site_label_1
_geom_bond_atom_site_label_2
_geom_bond_distance
_geom_bond_site_symmetry_2
_ccdc_geom_bond_type
Eu0 N31 2.657 . S
Eu0 N38 2.609 1_545 S
Eu0 O44 2.558 . S
Eu0 O45 2.612 . S
Eu0 O47 2.339 . S
Eu0 O48 2.563 . S
Eu0 O49 2.419 . S
Eu0 O51 2.380 1_545 S
Eu0 O52 2.432 1_545 S
Eu0 C64 2.848 . S
C1 C4 1.429 . S
C1 C5 1.411 . S
C1 N8 1.377 . S
C2 C4 1.420 . S
C2 C6 1.423 . S
C2 C14 1.392 . S
C3 C5 1.420 . S
C3 C6 1.351 . S
C3 H26 0.931 . S
C4 C1 1.429 . S
C4 C2 1.420 . S
C4 N12 1.362 1_545 S
C5 C1 1.411 . S
C5 C3 1.420 . S
C5 C10 1.395 . S
C6 C2 1.423 . S
C6 C3 1.351 . S
C6 H18 0.930 . S
C7 C9 1.400 . S
C7 C10 1.386 . S
C7 H19 0.930 . S
N8 C1 1.377 . S
N8 C9 1.321 . S
N8 Eu11 2.609 1_545 S
C9 C7 1.400 . S
C9 N8 1.321 . S
C9 H16 0.930 . S
C10 C5 1.395 . S
C10 C7 1.386 . S
C10 H29 0.930 . S
Eu11 N8 2.609 1_565 S
Eu11 N12 2.657 . S
Eu11 O45 2.380 1_565 S
Eu11 O46 2.432 1_565 S
Eu11 O50 2.558 . S
Eu11 O51 2.612 . S
Eu11 O53 2.339 . S
Eu11 O54 2.563 . S
Eu11 O55 2.419 . S
Eu11 C75 2.848 . S
N12 C4 1.362 1_565 S
N12 Eu11 2.657 . S
N12 C13 1.334 . S
C13 N12 1.334 . S
C13 C15 1.413 . S
C13 H20 0.929 . S
C14 C2 1.392 . S
C14 C15 1.367 1_545 S
C14 H22 0.930 . S
C15 C13 1.413 . S
C15 C14 1.367 1_565 S
C15 H17 0.930 . S
H16 C9 0.930 . S
H17 C15 0.930 . S
H18 C6 0.930 . S
H19 C7 0.930 . S
H20 C13 0.929 . S
H21 C35 0.930 . S
H22 C14 0.930 . S
H23 C41 0.930 . S
H24 C32 0.929 . S
H25 C39 0.930 . S
H26 C3 0.931 . S
H27 C33 0.930 . S
H28 C66 0.930 . S
H29 C10 0.930 . S
H30 C65 0.931 . S
N31 Eu0 2.657 . S
N31 C32 1.334 . S
N31 C36 1.362 1_545 S
C32 H24 0.929 . S
C32 N31 1.334 . S
C32 C35 1.413 . S
C33 H27 0.930 . S
C33 C34 1.392 . S
C33 C35 1.367 1_565 S
C34 C33 1.392 . S
C34 C36 1.420 . S
C34 C66 1.423 . S
C35 H21 0.930 . S
C35 C32 1.413 . S
C35 C33 1.367 1_545 S
C36 N31 1.362 1_565 S
C36 C34 1.420 . S
C36 C40 1.429 . S
H37 C42 0.930 . S
N38 Eu0 2.609 1_565 S
N38 C40 1.377 . S
N38 C41 1.321 . S
C39 H25 0.930 . S
C39 C41 1.400 . S
C39 C42 1.386 . S
C40 C36 1.429 . S
C40 N38 1.377 . S
C40 C43 1.411 . S
C41 H23 0.930 . S
C41 N38 1.321 . S
C41 C39 1.400 . S
C42 H37 0.930 . S
C42 C39 1.386 . S
C42 C43 1.395 . S
C43 C40 1.411 . S
C43 C42 1.395 . S
C43 C65 1.420 . S
O44 Eu0 2.558 . S
O44 C64 1.257 . S
O45 Eu0 2.612 . S
O45 Eu11 2.380 1_545 S
O45 C56 1.276 . S
O46 Eu11 2.432 1_545 S
O46 C63 1.264 . S
O47 Eu0 2.339 . S
O47 C63 1.254 . S
O48 Eu0 2.563 . S
O48 C56 1.235 . S
O49 Eu0 2.419 . S
O49 C64 1.249 . S
O50 Eu11 2.558 . S
O50 C75 1.257 . S
O51 Eu0 2.380 1_565 S
O51 Eu11 2.612 . S
O51 C67 1.276 . S
O52 Eu0 2.432 1_565 S
O52 C74 1.264 . S
O53 Eu11 2.339 . S
O53 C74 1.254 . S
O54 Eu11 2.563 . S
O54 C67 1.235 . S
O55 Eu11 2.419 . S
O55 C75 1.249 . S
C56 O45 1.276 . S
C56 O48 1.235 . S
C57 C59 1.393 . S
C57 C61 1.395 . S
C57 C64 1.492 . S
C58 C59 1.392 . S
C58 C60 1.386 . S
C59 C57 1.393 . S
C59 C58 1.392 . S
C59 H76 0.930 . S
C60 C58 1.386 . S
C60 C62 1.395 . S
C60 H77 0.930 . S
C61 C57 1.395 . S
C61 C62 1.379 . S
C61 H78 0.930 . S
C62 C60 1.395 . S
C62 C61 1.379 . S
C62 H79 0.930 . S
C63 O46 1.264 . S
C63 O47 1.254 . S
C64 Eu0 2.848 . S
C64 O44 1.257 . S
C64 O49 1.249 . S
C64 C57 1.492 . S
C65 H30 0.931 . S
C65 C43 1.420 . S
C65 C66 1.351 . S
C66 H28 0.930 . S
C66 C34 1.423 . S
C66 C65 1.351 . S
C67 O51 1.276 . S
C67 O54 1.235 . S
C68 C69 1.393 . S
C68 C72 1.395 . S
C68 C75 1.492 . S
C69 C68 1.393 . S
C69 C70 1.392 . S
C69 H80 0.930 . S
C70 C69 1.392 . S
C70 C71 1.386 . S
C71 C70 1.386 . S
C71 C73 1.395 . S
C71 H81 0.930 . S
C72 C68 1.395 . S
C72 C73 1.379 . S
C72 H82 0.930 . S
C73 C71 1.395 . S
C73 C72 1.379 . S
C73 H83 0.930 . S
C74 O52 1.264 . S
C74 O53 1.254 . S
C75 Eu11 2.848 . S
C75 O50 1.257 . S
C75 O55 1.249 . S
C75 C68 1.492 . S
H76 C59 0.930 . S
H77 C60 0.930 . S
H78 C61 0.930 . S
H79 C62 0.930 . S
H80 C69 0.930 . S
H81 C71 0.930 . S
H82 C72 0.930 . S
H83 C73 0.930 . S
Eu84 N115 2.657 . S
Eu84 N122 2.609 . S
Eu84 O128 2.558 . S
Eu84 O129 2.612 . S
Eu84 O131 2.339 . S
Eu84 O132 2.563 . S
Eu84 O133 2.419 . S
Eu84 O135 2.380 . S
Eu84 O136 2.432 . S
Eu84 C148 2.848 . S
C85 C88 1.429 . S
C85 C89 1.411 . S
C85 N92 1.377 . S
C86 C88 1.420 . S
C86 C90 1.423 . S
C86 C98 1.392 . S
C87 C89 1.420 . S
C87 C90 1.351 . S
C87 H110 0.931 . S
C88 C85 1.429 . S
C88 C86 1.420 . S
C88 N96 1.362 . S
C89 C85 1.411 . S
C89 C87 1.420 . S
C89 C94 1.395 . S
C90 C86 1.423 . S
C90 C87 1.351 . S
C90 H102 0.930 . S
C91 C93 1.400 . S
C91 C94 1.386 . S
C91 H103 0.930 . S
N92 C85 1.377 . S
N92 C93 1.321 . S
N92 Eu95 2.609 . S
C93 C91 1.400 . S
C93 N92 1.321 . S
C93 H100 0.930 . S
C94 C89 1.395 . S
C94 C91 1.386 . S
C94 H113 0.930 . S
Eu95 N92 2.609 . S
Eu95 N96 2.657 . S
Eu95 O129 2.380 . S
Eu95 O130 2.432 . S
Eu95 O134 2.558 . S
Eu95 O135 2.612 . S
Eu95 O137 2.339 . S
Eu95 O138 2.563 . S
Eu95 O139 2.419 . S
Eu95 C159 2.848 . S
N96 C88 1.362 . S
N96 Eu95 2.657 . S
N96 C97 1.334 . S
C97 N96 1.334 . S
C97 C99 1.413 . S
C97 H104 0.929 . S
C98 C86 1.392 . S
C98 C99 1.367 . S
C98 H106 0.930 . S
C99 C97 1.413 . S
C99 C98 1.367 . S
C99 H101 0.930 . S
H100 C93 0.930 . S
H101 C99 0.930 . S
H102 C90 0.930 . S
H103 C91 0.930 . S
H104 C97 0.929 . S
H105 C119 0.930 . S
H106 C98 0.930 . S
H107 C125 0.930 . S
H108 C116 0.929 . S
H109 C123 0.930 . S
H110 C87 0.931 . S
H111 C117 0.930 . S
H112 C150 0.930 . S
H113 C94 0.930 . S
H114 C149 0.931 . S
N115 Eu84 2.657 . S
N115 C116 1.334 . S
N115 C120 1.362 . S
C116 H108 0.929 . S
C116 N115 1.334 . S
C116 C119 1.413 . S
C117 H111 0.930 . S
C117 C118 1.392 . S
C117 C119 1.367 . S
C118 C117 1.392 . S
C118 C120 1.420 . S
C118 C150 1.423 . S
C119 H105 0.930 . S
C119 C116 1.413 . S
C119 C117 1.367 . S
C120 N115 1.362 . S
C120 C118 1.420 . S
C120 C124 1.429 . S
H121 C126 0.930 . S
N122 Eu84 2.609 . S
N122 C124 1.377 . S
N122 C125 1.321 . S
C123 H109 0.930 . S
C123 C125 1.400 . S
C123 C126 1.386 . S
C124 C120 1.429 . S
C124 N122 1.377 . S
C124 C127 1.411 . S
C125 H107 0.930 . S
C125 N122 1.321 . S
C125 C123 1.400 . S
C126 H121 0.930 . S
C126 C123 1.386 . S
C126 C127 1.395 . S
C127 C124 1.411 . S
C127 C126 1.395 . S
C127 C149 1.420 . S
O128 Eu84 2.558 . S
O128 C148 1.257 . S
O129 Eu84 2.612 . S
O129 Eu95 2.380 . S
O129 C140 1.276 . S
O130 Eu95 2.432 . S
O130 C147 1.264 . S
O131 Eu84 2.339 . S
O131 C147 1.254 . S
O132 Eu84 2.563 . S
O132 C140 1.235 . S
O133 Eu84 2.419 . S
O133 C148 1.249 . S
O134 Eu95 2.558 . S
O134 C159 1.257 . S
O135 Eu84 2.380 . S
O135 Eu95 2.612 . S
O135 C151 1.276 . S
O136 Eu84 2.432 . S
O136 C158 1.264 . S
O137 Eu95 2.339 . S
O137 C158 1.254 . S
O138 Eu95 2.563 . S
O138 C151 1.235 . S
O139 Eu95 2.419 . S
O139 C159 1.249 . S
C140 O129 1.276 . S
C140 O132 1.235 . S
C141 C143 1.393 . S
C141 C145 1.395 . S
C141 C148 1.492 . S
C142 C143 1.392 . S
C142 C144 1.386 . S
C143 C141 1.393 . S
C143 C142 1.392 . S
C143 H160 0.930 . S
C144 C142 1.386 . S
C144 C146 1.395 . S
C144 H161 0.930 . S
C145 C141 1.395 . S
C145 C146 1.379 . S
C145 H162 0.930 . S
C146 C144 1.395 . S
C146 C145 1.379 . S
C146 H163 0.930 . S
C147 O130 1.264 . S
C147 O131 1.254 . S
C148 Eu84 2.848 . S
C148 O128 1.257 . S
C148 O133 1.249 . S
C148 C141 1.492 . S
C149 H114 0.931 . S
C149 C127 1.420 . S
C149 C150 1.351 . S
C150 H112 0.930 . S
C150 C118 1.423 . S
C150 C149 1.351 . S
C151 O135 1.276 . S
C151 O138 1.235 . S
C152 C153 1.393 . S
C152 C156 1.395 . S
C152 C159 1.492 . S
C153 C152 1.393 . S
C153 C154 1.392 . S
C153 H164 0.930 . S
C154 C153 1.392 . S
C154 C155 1.386 . S
C155 C154 1.386 . S
C155 C157 1.395 . S
C155 H165 0.930 . S
C156 C152 1.395 . S
C156 C157 1.379 . S
C156 H166 0.930 . S
C157 C155 1.395 . S
C157 C156 1.379 . S
C157 H167 0.930 . S
C158 O136 1.264 . S
C158 O137 1.254 . S
C159 Eu95 2.848 . S
C159 O134 1.257 . S
C159 O139 1.249 . S
C159 C152 1.492 . S
H160 C143 0.930 . S
H161 C144 0.930 . S
H162 C145 0.930 . S
H163 C146 0.930 . S
H164 C153 0.930 . S
H165 C155 0.930 . S
H166 C156 0.930 . S
H167 C157 0.930 . S
Eu168 N199 2.657 . S
Eu168 N206 2.609 1_655 S
Eu168 O212 2.558 . S
Eu168 O213 2.612 . S
Eu168 O215 2.339 . S
Eu168 O216 2.563 . S
Eu168 O217 2.419 . S
Eu168 O219 2.380 1_655 S
Eu168 O220 2.432 1_655 S
Eu168 C232 2.848 . S
C169 C172 1.429 . S
C169 C173 1.411 . S
C169 N176 1.377 . S
C170 C172 1.420 . S
C170 C174 1.423 . S
C170 C182 1.392 1_655 S
C171 C173 1.420 . S
C171 C174 1.351 . S
C171 H194 0.931 . S
C172 C169 1.429 . S
C172 C170 1.420 . S
C172 N180 1.362 1_655 S
C173 C169 1.411 . S
C173 C171 1.420 . S
C173 C178 1.395 . S
C174 C170 1.423 . S
C174 C171 1.351 . S
C174 H186 0.930 . S
C175 C177 1.400 . S
C175 C178 1.386 . S
C175 H187 0.930 . S
N176 C169 1.377 . S
N176 C177 1.321 . S
N176 Eu179 2.609 1_655 S
C177 C175 1.400 . S
C177 N176 1.321 . S
C177 H184 0.930 . S
C178 C173 1.395 . S
C178 C175 1.386 . S
C178 H197 0.930 . S
Eu179 N176 2.609 1_455 S
Eu179 N180 2.657 . S
Eu179 O213 2.380 1_455 S
Eu179 O214 2.432 1_455 S
Eu179 O218 2.558 . S
Eu179 O219 2.612 . S
Eu179 O221 2.339 . S
Eu179 O222 2.563 . S
Eu179 O223 2.419 . S
Eu179 C243 2.848 . S
N180 C172 1.362 1_455 S
N180 Eu179 2.657 . S
N180 C181 1.334 . S
C181 N180 1.334 . S
C181 C183 1.413 . S
C181 H188 0.929 . S
C182 C170 1.392 1_455 S
C182 C183 1.367 . S
C182 H190 0.934 1_455 S
C183 C181 1.413 . S
C183 C182 1.367 . S
C183 H185 0.930 . S
H184 C177 0.930 . S
H185 C183 0.930 . S
H186 C174 0.930 . S
H187 C175 0.930 . S
H188 C181 0.929 . S
H189 C203 0.930 . S
H190 C182 0.934 1_655 S
H191 C209 0.930 . S
H192 C200 0.929 . S
H193 C207 0.930 . S
H194 C171 0.931 . S
H195 C201 0.932 1_455 S
H196 C234 0.930 . S
H197 C178 0.930 . S
H198 C233 0.931 . S
N199 Eu168 2.657 . S
N199 C200 1.334 . S
N199 C204 1.362 1_655 S
C200 H192 0.929 . S
C200 N199 1.334 . S
C200 C203 1.413 . S
C201 H195 0.932 1_655 S
C201 C202 1.392 1_655 S
C201 C203 1.367 . S
C202 C201 1.392 1_455 S
C202 C204 1.420 . S
C202 C234 1.423 . S
C203 H189 0.930 . S
C203 C200 1.413 . S
C203 C201 1.367 . S
C204 N199 1.362 1_455 S
C204 C202 1.420 . S
C204 C208 1.429 . S
H205 C210 0.930 . S
N206 Eu168 2.609 1_455 S
N206 C208 1.377 . S
N206 C209 1.321 . S
C207 H193 0.930 . S
C207 C209 1.400 . S
C207 C210 1.386 . S
C208 C204 1.429 . S
C208 N206 1.377 . S
C208 C211 1.411 . S
C209 H191 0.930 . S
C209 N206 1.321 . S
C209 C207 1.400 . S
C210 H205 0.930 . S
C210 C207 1.386 . S
C210 C211 1.395 . S
C211 C208 1.411 . S
C211 C210 1.395 . S
C211 C233 1.420 . S
O212 Eu168 2.558 . S
O212 C232 1.257 . S
O213 Eu168 2.612 . S
O213 Eu179 2.380 1_655 S
O213 C224 1.276 . S
O214 Eu179 2.432 1_655 S
O214 C231 1.264 . S
O215 Eu168 2.339 . S
O215 C231 1.254 . S
O216 Eu168 2.563 . S
O216 C224 1.235 . S
O217 Eu168 2.419 . S
O217 C232 1.249 . S
O218 Eu179 2.558 . S
O218 C243 1.257 . S
O219 Eu168 2.380 1_455 S
O219 Eu179 2.612 . S
O219 C235 1.276 . S
O220 Eu168 2.432 1_455 S
O220 C242 1.264 . S
O221 Eu179 2.339 . S
O221 C242 1.254 . S
O222 Eu179 2.563 . S
O222 C235 1.235 . S
O223 Eu179 2.419 . S
O223 C243 1.249 . S
C224 O213 1.276 . S
C224 O216 1.235 . S
C225 C227 1.393 . S
C225 C229 1.395 . S
C225 C232 1.492 . S
C226 C227 1.392 . S
C226 C228 1.386 . S
C227 C225 1.393 . S
C227 C226 1.392 . S
C227 H244 0.930 . S
C228 C226 1.386 . S
C228 C230 1.395 . S
C228 H245 0.930 . S
C229 C225 1.395 . S
C229 C230 1.379 . S
C229 H246 0.930 . S
C230 C228 1.395 . S
C230 C229 1.379 . S
C230 H247 0.930 . S
C231 O214 1.264 . S
C231 O215 1.254 . S
C232 Eu168 2.848 . S
C232 O212 1.257 . S
C232 O217 1.249 . S
C232 C225 1.492 . S
C233 H198 0.931 . S
C233 C211 1.420 . S
C233 C234 1.351 . S
C234 H196 0.930 . S
C234 C202 1.423 . S
C234 C233 1.351 . S
C235 O219 1.276 . S
C235 O222 1.235 . S
C236 C237 1.393 . S
C236 C240 1.395 . S
C236 C243 1.492 . S
C237 C236 1.393 . S
C237 C238 1.392 . S
C237 H248 0.930 . S
C238 C237 1.392 . S
C238 C239 1.386 . S
C239 C238 1.386 . S
C239 C241 1.395 . S
C239 H249 0.930 . S
C240 C236 1.395 . S
C240 C241 1.379 . S
C240 H250 0.930 . S
C241 C239 1.395 . S
C241 C240 1.379 . S
C241 H251 0.930 . S
C242 O220 1.264 . S
C242 O221 1.254 . S
C243 Eu179 2.848 . S
C243 O218 1.257 . S
C243 O223 1.249 . S
C243 C236 1.492 . S
H244 C227 0.930 . S
H245 C228 0.930 . S
H246 C229 0.930 . S
H247 C230 0.930 . S
H248 C237 0.930 . S
H249 C239 0.930 . S
H250 C240 0.930 . S
H251 C241 0.930 . S
Eu252 N283 2.657 . S
Eu252 N290 2.609 1_565 S
Eu252 O296 2.558 . S
Eu252 O297 2.612 . S
Eu252 O299 2.339 . S
Eu252 O300 2.563 . S
Eu252 O301 2.419 . S
Eu252 O303 2.380 1_565 S
Eu252 O304 2.432 1_565 S
Eu252 C316 2.848 . S
C253 C256 1.429 . S
C253 C257 1.411 . S
C253 N260 1.377 . S
C254 C256 1.420 . S
C254 C258 1.423 . S
C254 C266 1.392 . S
C255 C257 1.420 . S
C255 C258 1.351 . S
C255 H278 0.931 . S
C256 C253 1.429 . S
C256 C254 1.420 . S
C256 N264 1.362 1_565 S
C257 C253 1.411 . S
C257 C255 1.420 . S
C257 C262 1.395 . S
C258 C254 1.423 . S
C258 C255 1.351 . S
C258 H270 0.930 . S
C259 C261 1.400 . S
C259 C262 1.386 . S
C259 H271 0.930 . S
N260 C253 1.377 . S
N260 C261 1.321 . S
N260 Eu263 2.609 1_565 S
C261 C259 1.400 . S
C261 N260 1.321 . S
C261 H268 0.930 . S
C262 C257 1.395 . S
C262 C259 1.386 . S
C262 H281 0.930 . S
Eu263 N260 2.609 1_545 S
Eu263 N264 2.657 . S
Eu263 O297 2.380 1_545 S
Eu263 O298 2.432 1_545 S
Eu263 O302 2.558 . S
Eu263 O303 2.612 . S
Eu263 O305 2.339 . S
Eu263 O306 2.563 . S
Eu263 O307 2.419 . S
Eu263 C327 2.848 . S
N264 C256 1.362 1_545 S
N264 Eu263 2.657 . S
N264 C265 1.334 . S
C265 N264 1.334 . S
C265 C267 1.413 . S
C265 H272 0.929 . S
C266 C254 1.392 . S
C266 C267 1.367 1_565 S
C266 H274 0.930 . S
C267 C265 1.413 . S
C267 C266 1.367 1_545 S
C267 H269 0.930 . S
H268 C261 0.930 . S
H269 C267 0.930 . S
H270 C258 0.930 . S
H271 C259 0.930 . S
H272 C265 0.929 . S
H273 C287 0.930 . S
H274 C266 0.930 . S
H275 C293 0.930 . S
H276 C284 0.929 . S
H277 C291 0.930 . S
H278 C255 0.931 . S
H279 C285 0.930 . S
H280 C318 0.930 . S
H281 C262 0.930 . S
H282 C317 0.931 . S
N283 Eu252 2.657 . S
N283 C284 1.334 . S
N283 C288 1.362 1_565 S
C284 H276 0.929 . S
C284 N283 1.334 . S
C284 C287 1.413 . S
C285 H279 0.930 . S
C285 C286 1.392 . S
C285 C287 1.367 1_545 S
C286 C285 1.392 . S
C286 C288 1.420 . S
C286 C318 1.423 . S
C287 H273 0.930 . S
C287 C284 1.413 . S
C287 C285 1.367 1_565 S
C288 N283 1.362 1_545 S
C288 C286 1.420 . S
C288 C292 1.429 . S
H289 C294 0.930 . S
N290 Eu252 2.609 1_545 S
N290 C292 1.377 . S
N290 C293 1.321 . S
C291 H277 0.930 . S
C291 C293 1.400 . S
C291 C294 1.386 . S
C292 C288 1.429 . S
C292 N290 1.377 . S
C292 C295 1.411 . S
C293 H275 0.930 . S
C293 N290 1.321 . S
C293 C291 1.400 . S
C294 H289 0.930 . S
C294 C291 1.386 . S
C294 C295 1.395 . S
C295 C292 1.411 . S
C295 C294 1.395 . S
C295 C317 1.420 . S
O296 Eu252 2.558 . S
O296 C316 1.257 . S
O297 Eu252 2.612 . S
O297 Eu263 2.380 1_565 S
O297 C308 1.276 . S
O298 Eu263 2.432 1_565 S
O298 C315 1.264 . S
O299 Eu252 2.339 . S
O299 C315 1.254 . S
O300 Eu252 2.563 . S
O300 C308 1.235 . S
O301 Eu252 2.419 . S
O301 C316 1.249 . S
O302 Eu263 2.558 . S
O302 C327 1.257 . S
O303 Eu252 2.380 1_545 S
O303 Eu263 2.612 . S
O303 C319 1.276 . S
O304 Eu252 2.432 1_545 S
O304 C326 1.264 . S
O305 Eu263 2.339 . S
O305 C326 1.254 . S
O306 Eu263 2.563 . S
O306 C319 1.235 . S
O307 Eu263 2.419 . S
O307 C327 1.249 . S
C308 O297 1.276 . S
C308 O300 1.235 . S
C309 C311 1.393 . S
C309 C313 1.395 . S
C309 C316 1.492 . S
C310 C311 1.392 . S
C310 C312 1.386 . S
C311 C309 1.393 . S
C311 C310 1.392 . S
C311 H328 0.930 . S
C312 C310 1.386 . S
C312 C314 1.395 . S
C312 H329 0.930 . S
C313 C309 1.395 . S
C313 C314 1.379 . S
C313 H330 0.930 . S
C314 C312 1.395 . S
C314 C313 1.379 . S
C314 H331 0.930 . S
C315 O298 1.264 . S
C315 O299 1.254 . S
C316 Eu252 2.848 . S
C316 O296 1.257 . S
C316 O301 1.249 . S
C316 C309 1.492 . S
C317 H282 0.931 . S
C317 C295 1.420 . S
C317 C318 1.351 . S
C318 H280 0.930 . S
C318 C286 1.423 . S
C318 C317 1.351 . S
C319 O303 1.276 . S
C319 O306 1.235 . S
C320 C321 1.393 . S
C320 C324 1.395 . S
C320 C327 1.492 . S
C321 C320 1.393 . S
C321 C322 1.392 . S
C321 H332 0.930 . S
C322 C321 1.392 . S
C322 C323 1.386 . S
C323 C322 1.386 . S
C323 C325 1.395 . S
C323 H333 0.930 . S
C324 C320 1.395 . S
C324 C325 1.379 . S
C324 H334 0.930 . S
C325 C323 1.395 . S
C325 C324 1.379 . S
C325 H335 0.930 . S
C326 O304 1.264 . S
C326 O305 1.254 . S
C327 Eu263 2.848 . S
C327 O302 1.257 . S
C327 O307 1.249 . S
C327 C320 1.492 . S
H328 C311 0.930 . S
H329 C312 0.930 . S
H330 C313 0.930 . S
H331 C314 0.930 . S
H332 C321 0.930 . S
H333 C323 0.930 . S
H334 C324 0.930 . S
H335 C325 0.930 . S
Eu336 N367 2.657 . S
Eu336 N374 2.609 . S
Eu336 O380 2.558 . S
Eu336 O381 2.612 . S
Eu336 O383 2.339 . S
Eu336 O384 2.563 . S
Eu336 O385 2.419 . S
Eu336 O387 2.380 . S
Eu336 O388 2.432 . S
Eu336 C400 2.848 . S
C337 C340 1.429 . S
C337 C341 1.411 . S
C337 N344 1.377 . S
C338 C340 1.420 . S
C338 C342 1.423 . S
C338 C350 1.392 . S
C339 C341 1.420 . S
C339 C342 1.351 . S
C339 H362 0.931 . S
C340 C337 1.429 . S
C340 C338 1.420 . S
C340 N348 1.362 . S
C341 C337 1.411 . S
C341 C339 1.420 . S
C341 C346 1.395 1_554 S
C342 C338 1.423 . S
C342 C339 1.351 . S
C342 H354 0.930 . S
C343 C345 1.400 . S
C343 C346 1.386 . S
C343 H355 0.930 . S
N344 C337 1.377 . S
N344 C345 1.321 1_554 S
N344 Eu347 2.609 . S
C345 C343 1.400 . S
C345 N344 1.321 1_556 S
C345 H352 0.930 . S
C346 C341 1.395 1_556 S
C346 C343 1.386 . S
C346 H365 0.930 . S
Eu347 N344 2.609 . S
Eu347 N348 2.657 . S
Eu347 O381 2.380 . S
Eu347 O382 2.432 . S
Eu347 O386 2.558 1_554 S
Eu347 O387 2.612 . S
Eu347 O389 2.339 . S
Eu347 O390 2.563 . S
Eu347 O391 2.419 . S
Eu347 C411 2.848 1_554 S
N348 C340 1.362 . S
N348 Eu347 2.657 . S
N348 C349 1.334 . S
C349 N348 1.334 . S
C349 C351 1.413 . S
C349 H356 0.929 . S
C350 C338 1.392 . S
C350 C351 1.367 . S
C350 H358 0.930 . S
C351 C349 1.413 . S
C351 C350 1.367 . S
C351 H353 0.930 . S
H352 C345 0.930 . S
H353 C351 0.930 . S
H354 C342 0.930 . S
H355 C343 0.930 . S
H356 C349 0.929 . S
H357 C371 0.930 1_556 S
H358 C350 0.930 . S
H359 C377 0.930 . S
H360 C368 0.929 . S
H361 C375 0.930 . S
H362 C339 0.931 . S
H363 C369 0.930 . S
H364 C402 0.930 . S
H365 C346 0.930 . S
H366 C401 0.931 . S
N367 Eu336 2.657 . S
N367 C368 1.334 . S
N367 C372 1.362 . S
C368 H360 0.929 . S
C368 N367 1.334 . S
C368 C371 1.413 . S
C369 H363 0.930 . S
C369 C370 1.392 . S
C369 C371 1.367 . S
C370 C369 1.392 . S
C370 C372 1.420 . S
C370 C402 1.423 . S
C371 H357 0.930 1_554 S
C371 C368 1.413 . S
C371 C369 1.367 . S
C372 N367 1.362 . S
C372 C370 1.420 . S
C372 C376 1.429 . S
H373 C378 0.930 . S
N374 Eu336 2.609 . S
N374 C376 1.377 . S
N374 C377 1.321 . S
C375 H361 0.930 . S
C375 C377 1.400 . S
C375 C378 1.386 . S
C376 C372 1.429 . S
C376 N374 1.377 . S
C376 C379 1.411 . S
C377 H359 0.930 . S
C377 N374 1.321 . S
C377 C375 1.400 . S
C378 H373 0.930 . S
C378 C375 1.386 . S
C378 C379 1.395 . S
C379 C376 1.411 . S
C379 C378 1.395 . S
C379 C401 1.420 . S
O380 Eu336 2.558 . S
O380 C400 1.257 . S
O381 Eu336 2.612 . S
O381 Eu347 2.380 . S
O381 C392 1.276 . S
O382 Eu347 2.432 . S
O382 C399 1.264 . S
O383 Eu336 2.339 . S
O383 C399 1.254 . S
O384 Eu336 2.563 . S
O384 C392 1.235 . S
O385 Eu336 2.419 . S
O385 C400 1.249 . S
O386 Eu347 2.558 1_556 S
O386 C411 1.257 . S
O387 Eu336 2.380 . S
O387 Eu347 2.612 . S
O387 C403 1.276 . S
O388 Eu336 2.432 . S
O388 C410 1.264 . S
O389 Eu347 2.339 . S
O389 C410 1.254 . S
O390 Eu347 2.563 . S
O390 C403 1.235 . S
O391 Eu347 2.419 . S
O391 C411 1.249 1_554 S
C392 O381 1.276 . S
C392 O384 1.235 . S
C393 C395 1.393 . S
C393 C397 1.395 . S
C393 C400 1.492 . S
C394 C395 1.392 . S
C394 C396 1.386 . S
C395 C393 1.393 . S
C395 C394 1.392 . S
C395 H412 0.930 . S
C396 C394 1.386 . S
C396 C398 1.395 . S
C396 H413 0.930 . S
C397 C393 1.395 . S
C397 C398 1.379 . S
C397 H414 0.930 . S
C398 C396 1.395 . S
C398 C397 1.379 . S
C398 H415 0.930 . S
C399 O382 1.264 . S
C399 O383 1.254 . S
C400 Eu336 2.848 . S
C400 O380 1.257 . S
C400 O385 1.249 . S
C400 C393 1.492 . S
C401 H366 0.931 . S
C401 C379 1.420 . S
C401 C402 1.351 . S
C402 H364 0.930 . S
C402 C370 1.423 . S
C402 C401 1.351 . S
C403 O387 1.276 . S
C403 O390 1.235 . S
C404 C405 1.393 . S
C404 C408 1.395 . S
C404 C411 1.492 . S
C405 C404 1.393 . S
C405 C406 1.392 . S
C405 H416 0.930 . S
C406 C405 1.392 . S
C406 C407 1.386 . S
C407 C406 1.386 . S
C407 C409 1.395 . S
C407 H417 0.930 . S
C408 C404 1.395 . S
C408 C409 1.379 . S
C408 H418 0.930 . S
C409 C407 1.395 . S
C409 C408 1.379 . S
C409 H419 0.930 . S
C410 O388 1.264 . S
C410 O389 1.254 . S
C411 Eu347 2.848 1_556 S
C411 O386 1.257 . S
C411 O391 1.249 1_556 S
C411 C404 1.492 . S
H412 C395 0.930 . S
H413 C396 0.930 . S
H414 C397 0.930 . S
H415 C398 0.930 . S
H416 C405 0.930 . S
H417 C407 0.930 . S
H418 C408 0.930 . S
H419 C409 0.930 . S
Eu420 N451 2.657 . S
Eu420 N458 2.609 1_455 S
Eu420 O464 2.558 . S
Eu420 O465 2.612 . S
Eu420 O467 2.339 . S
Eu420 O468 2.563 . S
Eu420 O469 2.419 . S
Eu420 O471 2.380 1_455 S
Eu420 O472 2.432 1_455 S
Eu420 C484 2.848 . S
C421 C424 1.429 . S
C421 C425 1.411 . S
C421 N428 1.377 . S
C422 C424 1.420 . S
C422 C426 1.423 . S
C422 C434 1.392 1_455 S
C423 C425 1.420 . S
C423 C426 1.351 . S
C423 H446 0.931 . S
C424 C421 1.429 . S
C424 C422 1.420 . S
C424 N432 1.362 1_455 S
C425 C421 1.411 . S
C425 C423 1.420 . S
C425 C430 1.395 . S
C426 C422 1.423 . S
C426 C423 1.351 . S
C426 H438 0.930 . S
C427 C429 1.400 . S
C427 C430 1.386 . S
C427 H439 0.930 . S
N428 C421 1.377 . S
N428 C429 1.321 . S
N428 Eu431 2.609 1_455 S
C429 C427 1.400 . S
C429 N428 1.321 . S
C429 H436 0.930 . S
C430 C425 1.395 . S
C430 C427 1.386 . S
C430 H449 0.930 . S
Eu431 N428 2.609 1_655 S
Eu431 N432 2.657 . S
Eu431 O465 2.380 1_655 S
Eu431 O466 2.432 1_655 S
Eu431 O470 2.558 . S
Eu431 O471 2.612 . S
Eu431 O473 2.339 . S
Eu431 O474 2.563 . S
Eu431 O475 2.419 . S
Eu431 C495 2.848 . S
N432 C424 1.362 1_655 S
N432 Eu431 2.657 . S
N432 C433 1.334 . S
C433 N432 1.334 . S
C433 C435 1.413 . S
C433 H440 0.929 . S
C434 C422 1.392 1_655 S
C434 C435 1.367 . S
C434 H442 0.934 1_655 S
C435 C433 1.413 . S
C435 C434 1.367 . S
C435 H437 0.930 . S
H436 C429 0.930 . S
H437 C435 0.930 . S
H438 C426 0.930 . S
H439 C427 0.930 . S
H440 C433 0.929 . S
H441 C455 0.930 . S
H442 C434 0.934 1_455 S
H443 C461 0.930 . S
H444 C452 0.929 . S
H445 C459 0.930 . S
H446 C423 0.931 . S
H447 C453 0.932 1_655 S
H448 C486 0.930 . S
H449 C430 0.930 . S
H450 C485 0.931 . S
N451 Eu420 2.657 . S
N451 C452 1.334 . S
N451 C456 1.362 1_455 S
C452 H444 0.929 . S
C452 N451 1.334 . S
C452 C455 1.413 . S
C453 H447 0.932 1_455 S
C453 C454 1.392 1_455 S
C453 C455 1.367 . S
C454 C453 1.392 1_655 S
C454 C456 1.420 . S
C454 C486 1.423 . S
C455 H441 0.930 . S
C455 C452 1.413 . S
C455 C453 1.367 . S
C456 N451 1.362 1_655 S
C456 C454 1.420 . S
C456 C460 1.429 . S
H457 C462 0.930 . S
N458 Eu420 2.609 1_655 S
N458 C460 1.377 . S
N458 C461 1.321 . S
C459 H445 0.930 . S
C459 C461 1.400 . S
C459 C462 1.386 . S
C460 C456 1.429 . S
C460 N458 1.377 . S
C460 C463 1.411 . S
C461 H443 0.930 . S
C461 N458 1.321 . S
C461 C459 1.400 . S
C462 H457 0.930 . S
C462 C459 1.386 . S
C462 C463 1.395 . S
C463 C460 1.411 . S
C463 C462 1.395 . S
C463 C485 1.420 . S
O464 Eu420 2.558 . S
O464 C484 1.257 . S
O465 Eu420 2.612 . S
O465 Eu431 2.380 1_455 S
O465 C476 1.276 . S
O466 Eu431 2.432 1_455 S
O466 C483 1.264 . S
O467 Eu420 2.339 . S
O467 C483 1.254 . S
O468 Eu420 2.563 . S
O468 C476 1.235 . S
O469 Eu420 2.419 . S
O469 C484 1.249 . S
O470 Eu431 2.558 . S
O470 C495 1.257 . S
O471 Eu420 2.380 1_655 S
O471 Eu431 2.612 . S
O471 C487 1.276 . S
O472 Eu420 2.432 1_655 S
O472 C494 1.264 . S
O473 Eu431 2.339 . S
O473 C494 1.254 . S
O474 Eu431 2.563 . S
O474 C487 1.235 . S
O475 Eu431 2.419 . S
O475 C495 1.249 . S
C476 O465 1.276 . S
C476 O468 1.235 . S
C477 C479 1.393 . S
C477 C481 1.395 . S
C477 C484 1.492 . S
C478 C479 1.392 . S
C478 C480 1.386 . S
C479 C477 1.393 . S
C479 C478 1.392 . S
C479 H496 0.930 . S
C480 C478 1.386 . S
C480 C482 1.395 . S
C480 H497 0.930 . S
C481 C477 1.395 . S
C481 C482 1.379 . S
C481 H498 0.930 . S
C482 C480 1.395 . S
C482 C481 1.379 . S
C482 H499 0.930 . S
C483 O466 1.264 . S
C483 O467 1.254 . S
C484 Eu420 2.848 . S
C484 O464 1.257 . S
C484 O469 1.249 . S
C484 C477 1.492 . S
C485 H450 0.931 . S
C485 C463 1.420 . S
C485 C486 1.351 . S
C486 H448 0.930 . S
C486 C454 1.423 . S
C486 C485 1.351 . S
C487 O471 1.276 . S
C487 O474 1.235 . S
C488 C489 1.393 . S
C488 C492 1.395 . S
C488 C495 1.492 . S
C489 C488 1.393 . S
C489 C490 1.392 . S
C489 H500 0.930 . S
C490 C489 1.392 . S
C490 C491 1.386 . S
C491 C490 1.386 . S
C491 C493 1.395 . S
C491 H501 0.930 . S
C492 C488 1.395 . S
C492 C493 1.379 . S
C492 H502 0.930 . S
C493 C491 1.395 . S
C493 C492 1.379 . S
C493 H503 0.930 . S
C494 O472 1.264 . S
C494 O473 1.254 . S
C495 Eu431 2.848 . S
C495 O470 1.257 . S
C495 O475 1.249 . S
C495 C488 1.492 . S
H496 C479 0.930 . S
H497 C480 0.930 . S
H498 C481 0.930 . S
H499 C482 0.930 . S
H500 C489 0.930 . S
H501 C491 0.930 . S
H502 C492 0.930 . S
H503 C493 0.930 . S
Eu504 N535 2.657 . S
Eu504 N542 2.609 1_655 S
Eu504 O548 2.558 . S
Eu504 O549 2.612 . S
Eu504 O551 2.339 . S
Eu504 O552 2.563 . S
Eu504 O553 2.419 . S
Eu504 O555 2.380 1_655 S
Eu504 O556 2.432 1_655 S
Eu504 C568 2.848 . S
C505 C508 1.429 . S
C505 C509 1.411 . S
C505 N512 1.377 . S
C506 C508 1.420 . S
C506 C510 1.423 . S
C506 C518 1.392 . S
C507 C509 1.420 . S
C507 C510 1.351 . S
C507 H530 0.931 . S
C508 C505 1.429 . S
C508 C506 1.420 . S
C508 N516 1.362 1_655 S
C509 C505 1.411 . S
C509 C507 1.420 . S
C509 C514 1.395 . S
C510 C506 1.423 . S
C510 C507 1.351 . S
C510 H522 0.930 . S
C511 C513 1.400 . S
C511 C514 1.386 . S
C511 H523 0.930 . S
N512 C505 1.377 . S
N512 C513 1.321 . S
N512 Eu515 2.609 1_655 S
C513 C511 1.400 . S
C513 N512 1.321 . S
C513 H520 0.930 . S
C514 C509 1.395 . S
C514 C511 1.386 . S
C514 H533 0.930 . S
Eu515 N512 2.609 1_455 S
Eu515 N516 2.657 . S
Eu515 O549 2.380 1_455 S
Eu515 O550 2.432 1_455 S
Eu515 O554 2.558 . S
Eu515 O555 2.612 . S
Eu515 O557 2.339 . S
Eu515 O558 2.563 . S
Eu515 O559 2.419 . S
Eu515 C579 2.848 . S
N516 C508 1.362 1_455 S
N516 Eu515 2.657 . S
N516 C517 1.334 . S
C517 N516 1.334 . S
C517 C519 1.413 . S
C517 H524 0.929 . S
C518 C506 1.392 . S
C518 C519 1.367 1_655 S
C518 H526 0.930 . S
C519 C517 1.413 . S
C519 C518 1.367 1_455 S
C519 H521 0.930 . S
H520 C513 0.930 . S
H521 C519 0.930 . S
H522 C510 0.930 . S
H523 C511 0.930 . S
H524 C517 0.929 . S
H525 C539 0.930 . S
H526 C518 0.930 . S
H527 C545 0.930 . S
H528 C536 0.929 . S
H529 C543 0.930 . S
H530 C507 0.931 . S
H531 C537 0.930 . S
H532 C570 0.930 . S
H533 C514 0.930 . S
H534 C569 0.931 . S
N535 Eu504 2.657 . S
N535 C536 1.334 . S
N535 C540 1.362 1_655 S
C536 H528 0.929 . S
C536 N535 1.334 . S
C536 C539 1.413 . S
C537 H531 0.930 . S
C537 C538 1.392 . S
C537 C539 1.367 1_455 S
C538 C537 1.392 . S
C538 C540 1.420 . S
C538 C570 1.423 . S
C539 H525 0.930 . S
C539 C536 1.413 . S
C539 C537 1.367 1_655 S
C540 N535 1.362 1_455 S
C540 C538 1.420 . S
C540 C544 1.429 . S
H541 C546 0.930 . S
N542 Eu504 2.609 1_455 S
N542 C544 1.377 . S
N542 C545 1.321 . S
C543 H529 0.930 . S
C543 C545 1.400 . S
C543 C546 1.386 . S
C544 C540 1.429 . S
C544 N542 1.377 . S
C544 C547 1.411 . S
C545 H527 0.930 . S
C545 N542 1.321 . S
C545 C543 1.400 . S
C546 H541 0.930 . S
C546 C543 1.386 . S
C546 C547 1.395 . S
C547 C544 1.411 . S
C547 C546 1.395 . S
C547 C569 1.420 . S
O548 Eu504 2.558 . S
O548 C568 1.257 . S
O549 Eu504 2.612 . S
O549 Eu515 2.380 1_655 S
O549 C560 1.276 . S
O550 Eu515 2.432 1_655 S
O550 C567 1.264 . S
O551 Eu504 2.339 . S
O551 C567 1.254 . S
O552 Eu504 2.563 . S
O552 C560 1.235 . S
O553 Eu504 2.419 . S
O553 C568 1.249 . S
O554 Eu515 2.558 . S
O554 C579 1.257 . S
O555 Eu504 2.380 1_455 S
O555 Eu515 2.612 . S
O555 C571 1.276 . S
O556 Eu504 2.432 1_455 S
O556 C578 1.264 . S
O557 Eu515 2.339 . S
O557 C578 1.254 . S
O558 Eu515 2.563 . S
O558 C571 1.235 . S
O559 Eu515 2.419 . S
O559 C579 1.249 . S
C560 O549 1.276 . S
C560 O552 1.235 . S
C561 C563 1.393 . S
C561 C565 1.395 . S
C561 C568 1.492 . S
C562 C563 1.392 . S
C562 C564 1.386 . S
C563 C561 1.393 . S
C563 C562 1.392 . S
C563 H580 0.930 . S
C564 C562 1.386 . S
C564 C566 1.395 . S
C564 H581 0.930 . S
C565 C561 1.395 . S
C565 C566 1.379 . S
C565 H582 0.930 . S
C566 C564 1.395 . S
C566 C565 1.379 . S
C566 H583 0.930 . S
C567 O550 1.264 . S
C567 O551 1.254 . S
C568 Eu504 2.848 . S
C568 O548 1.257 . S
C568 O553 1.249 . S
C568 C561 1.492 . S
C569 H534 0.931 . S
C569 C547 1.420 . S
C569 C570 1.351 . S
C570 H532 0.930 . S
C570 C538 1.423 . S
C570 C569 1.351 . S
C571 O555 1.276 . S
C571 O558 1.235 . S
C572 C573 1.393 . S
C572 C576 1.395 . S
C572 C579 1.492 . S
C573 C572 1.393 . S
C573 C574 1.392 . S
C573 H584 0.930 . S
C574 C573 1.392 . S
C574 C575 1.386 . S
C575 C574 1.386 . S
C575 C577 1.395 . S
C575 H585 0.930 . S
C576 C572 1.395 . S
C576 C577 1.379 . S
C576 H586 0.930 . S
C577 C575 1.395 . S
C577 C576 1.379 . S
C577 H587 0.930 . S
C578 O556 1.264 . S
C578 O557 1.254 . S
C579 Eu515 2.848 . S
C579 O554 1.257 . S
C579 O559 1.249 . S
C579 C572 1.492 . S
H580 C563 0.930 . S
H581 C564 0.930 . S
H582 C565 0.930 . S
H583 C566 0.930 . S
H584 C573 0.930 . S
H585 C575 0.930 . S
H586 C576 0.930 . S
H587 C577 0.930 . S
Eu588 N619 2.657 . S
Eu588 N626 2.609 1_565 S
Eu588 O632 2.558 . S
Eu588 O633 2.612 . S
Eu588 O635 2.339 . S
Eu588 O636 2.563 . S
Eu588 O637 2.419 . S
Eu588 O639 2.380 1_565 S
Eu588 O640 2.432 1_565 S
Eu588 C652 2.848 . S
C589 C592 1.429 . S
C589 C593 1.411 . S
C589 N596 1.377 . S
C590 C592 1.420 . S
C590 C594 1.423 . S
C590 C602 1.392 1_565 S
C591 C593 1.420 . S
C591 C594 1.351 . S
C591 H614 0.931 . S
C592 C589 1.429 . S
C592 C590 1.420 . S
C592 N600 1.362 1_565 S
C593 C589 1.411 . S
C593 C591 1.420 . S
C593 C598 1.395 . S
C594 C590 1.423 . S
C594 C591 1.351 . S
C594 H606 0.930 . S
C595 C597 1.400 . S
C595 C598 1.386 . S
C595 H607 0.930 . S
N596 C589 1.377 . S
N596 C597 1.321 . S
N596 Eu599 2.609 1_565 S
C597 C595 1.400 . S
C597 N596 1.321 . S
C597 H604 0.930 . S
C598 C593 1.395 . S
C598 C595 1.386 . S
C598 H617 0.930 . S
Eu599 N596 2.609 1_545 S
Eu599 N600 2.657 . S
Eu599 O633 2.380 1_545 S
Eu599 O634 2.432 1_545 S
Eu599 O638 2.558 . S
Eu599 O639 2.612 . S
Eu599 O641 2.339 . S
Eu599 O642 2.563 . S
Eu599 O643 2.419 . S
Eu599 C663 2.848 . S
N600 C592 1.362 1_545 S
N600 Eu599 2.657 . S
N600 C601 1.334 . S
C601 N600 1.334 . S
C601 C603 1.413 . S
C601 H608 0.929 . S
C602 C590 1.392 1_545 S
C602 C603 1.367 . S
C602 H610 0.934 1_545 S
C603 C601 1.413 . S
C603 C602 1.367 . S
C603 H605 0.930 . S
H604 C597 0.930 . S
H605 C603 0.930 . S
H606 C594 0.930 . S
H607 C595 0.930 . S
H608 C601 0.929 . S
H609 C623 0.930 . S
H610 C602 0.934 1_565 S
H611 C629 0.930 . S
H612 C620 0.929 . S
H613 C627 0.930 . S
H614 C591 0.931 . S
H615 C621 0.932 1_545 S
H616 C654 0.930 . S
H617 C598 0.930 . S
H618 C653 0.931 . S
N619 Eu588 2.657 . S
N619 C620 1.334 . S
N619 C624 1.362 1_565 S
C620 H612 0.929 . S
C620 N619 1.334 . S
C620 C623 1.413 . S
C621 H615 0.932 1_565 S
C621 C622 1.392 1_565 S
C621 C623 1.367 . S
C622 C621 1.392 1_545 S
C622 C624 1.420 . S
C622 C654 1.423 . S
C623 H609 0.930 . S
C623 C620 1.413 . S
C623 C621 1.367 . S
C624 N619 1.362 1_545 S
C624 C622 1.420 . S
C624 C628 1.429 . S
H625 C630 0.930 . S
N626 Eu588 2.609 1_545 S
N626 C628 1.377 . S
N626 C629 1.321 . S
C627 H613 0.930 . S
C627 C629 1.400 . S
C627 C630 1.386 . S
C628 C624 1.429 . S
C628 N626 1.377 . S
C628 C631 1.411 . S
C629 H611 0.930 . S
C629 N626 1.321 . S
C629 C627 1.400 . S
C630 H625 0.930 . S
C630 C627 1.386 . S
C630 C631 1.395 . S
C631 C628 1.411 . S
C631 C630 1.395 . S
C631 C653 1.420 . S
O632 Eu588 2.558 . S
O632 C652 1.257 . S
O633 Eu588 2.612 . S
O633 Eu599 2.380 1_565 S
O633 C644 1.276 . S
O634 Eu599 2.432 1_565 S
O634 C651 1.264 . S
O635 Eu588 2.339 . S
O635 C651 1.254 . S
O636 Eu588 2.563 . S
O636 C644 1.235 . S
O637 Eu588 2.419 . S
O637 C652 1.249 . S
O638 Eu599 2.558 . S
O638 C663 1.257 . S
O639 Eu588 2.380 1_545 S
O639 Eu599 2.612 . S
O639 C655 1.276 . S
O640 Eu588 2.432 1_545 S
O640 C662 1.264 . S
O641 Eu599 2.339 . S
O641 C662 1.254 . S
O642 Eu599 2.563 . S
O642 C655 1.235 . S
O643 Eu599 2.419 . S
O643 C663 1.249 . S
C644 O633 1.276 . S
C644 O636 1.235 . S
C645 C647 1.393 . S
C645 C649 1.395 . S
C645 C652 1.492 . S
C646 C647 1.392 . S
C646 C648 1.386 . S
C647 C645 1.393 . S
C647 C646 1.392 . S
C647 H664 0.930 . S
C648 C646 1.386 . S
C648 C650 1.395 . S
C648 H665 0.930 . S
C649 C645 1.395 . S
C649 C650 1.379 . S
C649 H666 0.930 . S
C650 C648 1.395 . S
C650 C649 1.379 . S
C650 H667 0.930 . S
C651 O634 1.264 . S
C651 O635 1.254 . S
C652 Eu588 2.848 . S
C652 O632 1.257 . S
C652 O637 1.249 . S
C652 C645 1.492 . S
C653 H618 0.931 . S
C653 C631 1.420 . S
C653 C654 1.351 . S
C654 H616 0.930 . S
C654 C622 1.423 . S
C654 C653 1.351 . S
C655 O639 1.276 . S
C655 O642 1.235 . S
C656 C657 1.393 . S
C656 C660 1.395 . S
C656 C663 1.492 . S
C657 C656 1.393 . S
C657 C658 1.392 . S
C657 H668 0.930 . S
C658 C657 1.392 . S
C658 C659 1.386 . S
C659 C658 1.386 . S
C659 C661 1.395 . S
C659 H669 0.930 . S
C660 C656 1.395 . S
C660 C661 1.379 . S
C660 H670 0.930 . S
C661 C659 1.395 . S
C661 C660 1.379 . S
C661 H671 0.930 . S
C662 O640 1.264 . S
C662 O641 1.254 . S
C663 Eu599 2.848 . S
C663 O638 1.257 . S
C663 O643 1.249 . S
C663 C656 1.492 . S
H664 C647 0.930 . S
H665 C648 0.930 . S
H666 C649 0.930 . S
H667 C650 0.930 . S
H668 C657 0.930 . S
H669 C659 0.930 . S
H670 C660 0.930 . S
H671 C661 0.930 . S
Eu672 N703 2.657 . S
Eu672 N710 2.609 . S
Eu672 O716 2.558 . S
Eu672 O717 2.612 . S
Eu672 O719 2.339 . S
Eu672 O720 2.563 . S
Eu672 O721 2.419 . S
Eu672 O723 2.380 . S
Eu672 O724 2.432 . S
Eu672 C736 2.848 . S
C673 C676 1.429 . S
C673 C677 1.411 . S
C673 N680 1.377 . S
C674 C676 1.420 . S
C674 C678 1.423 . S
C674 C686 1.392 . S
C675 C677 1.420 . S
C675 C678 1.351 . S
C675 H698 0.931 . S
C676 C673 1.429 . S
C676 C674 1.420 . S
C676 N684 1.362 . S
C677 C673 1.411 . S
C677 C675 1.420 . S
C677 C682 1.395 . S
C678 C674 1.423 . S
C678 C675 1.351 . S
C678 H690 0.930 . S
C679 C681 1.400 . S
C679 C682 1.386 . S
C679 H691 0.930 . S
N680 C673 1.377 . S
N680 C681 1.321 . S
N680 Eu683 2.609 . S
C681 C679 1.400 . S
C681 N680 1.321 . S
C681 H688 0.930 . S
C682 C677 1.395 . S
C682 C679 1.386 . S
C682 H701 0.930 . S
Eu683 N680 2.609 . S
Eu683 N684 2.657 . S
Eu683 O717 2.380 . S
Eu683 O718 2.432 . S
Eu683 O722 2.558 . S
Eu683 O723 2.612 . S
Eu683 O725 2.339 . S
Eu683 O726 2.563 . S
Eu683 O727 2.419 . S
Eu683 C747 2.848 . S
N684 C676 1.362 . S
N684 Eu683 2.657 . S
N684 C685 1.334 . S
C685 N684 1.334 . S
C685 C687 1.413 . S
C685 H692 0.929 . S
C686 C674 1.392 . S
C686 C687 1.367 . S
C686 H694 0.930 . S
C687 C685 1.413 . S
C687 C686 1.367 . S
C687 H689 0.930 . S
H688 C681 0.930 . S
H689 C687 0.930 . S
H690 C678 0.930 . S
H691 C679 0.930 . S
H692 C685 0.929 . S
H693 C707 0.930 . S
H694 C686 0.930 . S
H695 C713 0.930 . S
H696 C704 0.929 . S
H697 C711 0.930 . S
H698 C675 0.931 . S
H699 C705 0.930 . S
H700 C738 0.930 . S
H701 C682 0.930 . S
H702 C737 0.931 . S
N703 Eu672 2.657 . S
N703 C704 1.334 . S
N703 C708 1.362 . S
C704 H696 0.929 . S
C704 N703 1.334 . S
C704 C707 1.413 . S
C705 H699 0.930 . S
C705 C706 1.392 . S
C705 C707 1.367 . S
C706 C705 1.392 . S
C706 C708 1.420 . S
C706 C738 1.423 . S
C707 H693 0.930 . S
C707 C704 1.413 . S
C707 C705 1.367 . S
C708 N703 1.362 . S
C708 C706 1.420 . S
C708 C712 1.429 . S
H709 C714 0.930 . S
N710 Eu672 2.609 . S
N710 C712 1.377 . S
N710 C713 1.321 . S
C711 H697 0.930 . S
C711 C713 1.400 . S
C711 C714 1.386 . S
C712 C708 1.429 . S
C712 N710 1.377 . S
C712 C715 1.411 . S
C713 H695 0.930 . S
C713 N710 1.321 . S
C713 C711 1.400 . S
C714 H709 0.930 . S
C714 C711 1.386 . S
C714 C715 1.395 . S
C715 C712 1.411 . S
C715 C714 1.395 . S
C715 C737 1.420 . S
O716 Eu672 2.558 . S
O716 C736 1.257 . S
O717 Eu672 2.612 . S
O717 Eu683 2.380 . S
O717 C728 1.276 . S
O718 Eu683 2.432 . S
O718 C735 1.264 . S
O719 Eu672 2.339 . S
O719 C735 1.254 . S
O720 Eu672 2.563 . S
O720 C728 1.235 . S
O721 Eu672 2.419 . S
O721 C736 1.249 . S
O722 Eu683 2.558 . S
O722 C747 1.257 . S
O723 Eu672 2.380 . S
O723 Eu683 2.612 . S
O723 C739 1.276 . S
O724 Eu672 2.432 . S
O724 C746 1.264 . S
O725 Eu683 2.339 . S
O725 C746 1.254 . S
O726 Eu683 2.563 . S
O726 C739 1.235 . S
O727 Eu683 2.419 . S
O727 C747 1.249 . S
C728 O717 1.276 . S
C728 O720 1.235 . S
C729 C731 1.393 . S
C729 C733 1.395 . S
C729 C736 1.492 . S
C730 C731 1.392 . S
C730 C732 1.386 . S
C731 C729 1.393 . S
C731 C730 1.392 . S
C731 H748 0.930 . S
C732 C730 1.386 . S
C732 C734 1.395 . S
C732 H749 0.930 . S
C733 C729 1.395 . S
C733 C734 1.379 . S
C733 H750 0.930 . S
C734 C732 1.395 . S
C734 C733 1.379 . S
C734 H751 0.930 . S
C735 O718 1.264 . S
C735 O719 1.254 . S
C736 Eu672 2.848 . S
C736 O716 1.257 . S
C736 O721 1.249 . S
C736 C729 1.492 . S
C737 H702 0.931 . S
C737 C715 1.420 . S
C737 C738 1.351 . S
C738 H700 0.930 . S
C738 C706 1.423 . S
C738 C737 1.351 . S
C739 O723 1.276 . S
C739 O726 1.235 . S
C740 C741 1.393 . S
C740 C744 1.395 . S
C740 C747 1.492 . S
C741 C740 1.393 . S
C741 C742 1.392 . S
C741 H752 0.930 . S
C742 C741 1.392 . S
C742 C743 1.386 . S
C743 C742 1.386 . S
C743 C745 1.395 . S
C743 H753 0.930 . S
C744 C740 1.395 . S
C744 C745 1.379 . S
C744 H754 0.930 . S
C745 C743 1.395 . S
C745 C744 1.379 . S
C745 H755 0.930 . S
C746 O724 1.264 . S
C746 O725 1.254 . S
C747 Eu683 2.848 . S
C747 O722 1.257 . S
C747 O727 1.249 . S
C747 C740 1.492 . S
H748 C731 0.930 . S
H749 C732 0.930 . S
H750 C733 0.930 . S
H751 C734 0.930 . S
H752 C741 0.930 . S
H753 C743 0.930 . S
H754 C744 0.930 . S
H755 C745 0.930 . S
Eu756 N787 2.657 . S
Eu756 N794 2.609 1_455 S
Eu756 O800 2.558 . S
Eu756 O801 2.612 . S
Eu756 O803 2.339 . S
Eu756 O804 2.563 . S
Eu756 O805 2.419 . S
Eu756 O807 2.380 1_455 S
Eu756 O808 2.432 1_455 S
Eu756 C820 2.848 . S
C757 C760 1.429 . S
C757 C761 1.411 . S
C757 N764 1.377 . S
C758 C760 1.420 . S
C758 C762 1.423 . S
C758 C770 1.392 . S
C759 C761 1.420 . S
C759 C762 1.351 . S
C759 H782 0.931 . S
C760 C757 1.429 . S
C760 C758 1.420 . S
C760 N768 1.362 1_455 S
C761 C757 1.411 . S
C761 C759 1.420 . S
C761 C766 1.395 1_556 S
C762 C758 1.423 . S
C762 C759 1.351 . S
C762 H774 0.930 . S
C763 C765 1.400 . S
C763 C766 1.386 . S
C763 H775 0.930 . S
N764 C757 1.377 . S
N764 C765 1.321 1_556 S
N764 Eu767 2.609 1_455 S
C765 C763 1.400 . S
C765 N764 1.321 1_554 S
C765 H772 0.930 . S
C766 C761 1.395 1_554 S
C766 C763 1.386 . S
C766 H785 0.930 . S
Eu767 N764 2.609 1_655 S
Eu767 N768 2.657 . S
Eu767 O801 2.380 1_655 S
Eu767 O802 2.432 1_655 S
Eu767 O806 2.558 1_556 S
Eu767 O807 2.612 . S
Eu767 O809 2.339 . S
Eu767 O810 2.563 1_556 S
Eu767 O811 2.419 . S
Eu767 C831 2.848 1_556 S
N768 C760 1.362 1_655 S
N768 Eu767 2.657 . S
N768 C769 1.334 . S
C769 N768 1.334 . S
C769 C771 1.413 . S
C769 H776 0.929 . S
C770 C758 1.392 . S
C770 C771 1.367 1_455 S
C770 H778 0.930 . S
C771 C769 1.413 . S
C771 C770 1.367 1_655 S
C771 H773 0.930 . S
H772 C765 0.930 . S
H773 C771 0.930 . S
H774 C762 0.930 . S
H775 C763 0.930 . S
H776 C769 0.929 . S
H777 C791 0.925 1_554 S
H778 C770 0.930 . S
H779 C797 0.930 . S
H780 C788 0.929 . S
H781 C795 0.930 . S
H782 C759 0.931 . S
H783 C789 0.905 1_554 S
H784 C822 0.930 . S
H785 C766 0.930 . S
H786 C821 0.931 . S
N787 Eu756 2.657 . S
N787 C788 1.334 . S
N787 C792 1.362 1_455 S
C788 H780 0.929 . S
C788 N787 1.334 . S
C788 C791 1.417 . S
C789 H783 0.905 1_556 S
C789 C790 1.392 . S
C789 C791 1.369 1_655 S
C790 C789 1.392 . S
C790 C792 1.420 . S
C790 C822 1.423 . S
C791 H777 0.925 1_556 S
C791 C788 1.417 . S
C791 C789 1.369 1_455 S
C792 N787 1.362 1_655 S
C792 C790 1.420 . S
C792 C796 1.429 . S
H793 C798 0.930 . S
N794 Eu756 2.609 1_655 S
N794 C796 1.377 . S
N794 C797 1.321 . S
C795 H781 0.930 . S
C795 C797 1.400 . S
C795 C798 1.386 . S
C796 C792 1.429 . S
C796 N794 1.377 . S
C796 C799 1.411 . S
C797 H779 0.930 . S
C797 N794 1.321 . S
C797 C795 1.400 . S
C798 H793 0.930 . S
C798 C795 1.386 . S
C798 C799 1.395 . S
C799 C796 1.411 . S
C799 C798 1.395 . S
C799 C821 1.420 . S
O800 Eu756 2.558 . S
O800 C820 1.257 . S
O801 Eu756 2.612 . S
O801 Eu767 2.380 1_455 S
O801 C812 1.276 . S
O802 Eu767 2.432 1_455 S
O802 C819 1.264 . S
O803 Eu756 2.339 . S
O803 C819 1.254 . S
O804 Eu756 2.563 . S
O804 C812 1.235 . S
O805 Eu756 2.419 . S
O805 C820 1.249 . S
O806 Eu767 2.558 1_554 S
O806 C831 1.257 . S
O807 Eu756 2.380 1_655 S
O807 Eu767 2.612 . S
O807 C823 1.276 . S
O808 Eu756 2.432 1_655 S
O808 C830 1.264 . S
O809 Eu767 2.339 . S
O809 C830 1.254 . S
O810 Eu767 2.563 1_554 S
O810 C823 1.235 1_554 S
O811 Eu767 2.419 . S
O811 C831 1.249 1_556 S
C812 O801 1.276 . S
C812 O804 1.235 . S
C813 C815 1.393 . S
C813 C817 1.395 . S
C813 C820 1.492 . S
C814 C815 1.392 . S
C814 C816 1.386 . S
C815 C813 1.393 . S
C815 C814 1.392 . S
C815 H832 0.930 . S
C816 C814 1.386 . S
C816 C818 1.395 . S
C816 H833 0.930 . S
C817 C813 1.395 . S
C817 C818 1.379 . S
C817 H834 0.930 . S
C818 C816 1.395 . S
C818 C817 1.379 . S
C818 H835 0.930 . S
C819 O802 1.264 . S
C819 O803 1.254 . S
C820 Eu756 2.848 . S
C820 O800 1.257 . S
C820 O805 1.249 . S
C820 C813 1.492 . S
C821 H786 0.931 . S
C821 C799 1.420 . S
C821 C822 1.351 . S
C822 H784 0.930 . S
C822 C790 1.423 . S
C822 C821 1.351 . S
C823 O807 1.276 . S
C823 O810 1.235 1_556 S
C824 C825 1.393 . S
C824 C828 1.395 . S
C824 C831 1.492 . S
C825 C824 1.393 . S
C825 C826 1.392 . S
C825 H836 0.930 . S
C826 C825 1.392 . S
C826 C827 1.386 . S
C827 C826 1.386 . S
C827 C829 1.395 . S
C827 H837 0.930 . S
C828 C824 1.395 . S
C828 C829 1.379 . S
C828 H838 0.930 . S
C829 C827 1.395 . S
C829 C828 1.379 . S
C829 H839 0.930 . S
C830 O808 1.264 . S
C830 O809 1.254 . S
C831 Eu767 2.848 1_554 S
C831 O806 1.257 . S
C831 O811 1.249 1_554 S
C831 C824 1.492 . S
H832 C815 0.930 . S
H833 C816 0.930 . S
H834 C817 0.930 . S
H835 C818 0.930 . S
H836 C825 0.930 . S
H837 C827 0.930 . S
H838 C828 0.930 . S
H839 C829 0.930 . S
Eu840 N871 2.657 . S
Eu840 N878 2.609 1_545 S
Eu840 O884 2.558 . S
Eu840 O885 2.612 . S
Eu840 O887 2.339 . S
Eu840 O888 2.563 . S
Eu840 O889 2.419 . S
Eu840 O891 2.380 1_545 S
Eu840 O892 2.432 1_545 S
Eu840 C904 2.848 . S
C841 C844 1.429 . S
C841 C845 1.411 . S
C841 N848 1.377 . S
C842 C844 1.420 . S
C842 C846 1.423 . S
C842 C854 1.392 1_545 S
C843 C845 1.420 . S
C843 C846 1.351 . S
C843 H866 0.931 . S
C844 C841 1.429 . S
C844 C842 1.420 . S
C844 N852 1.362 1_545 S
C845 C841 1.411 . S
C845 C843 1.420 . S
C845 C850 1.395 . S
C846 C842 1.423 . S
C846 C843 1.351 . S
C846 H858 0.930 . S
C847 C849 1.400 . S
C847 C850 1.386 . S
C847 H859 0.930 . S
N848 C841 1.377 . S
N848 C849 1.321 . S
N848 Eu851 2.609 1_545 S
C849 C847 1.400 . S
C849 N848 1.321 . S
C849 H856 0.930 . S
C850 C845 1.395 . S
C850 C847 1.386 . S
C850 H869 0.930 . S
Eu851 N848 2.609 1_565 S
Eu851 N852 2.657 . S
Eu851 O885 2.380 1_565 S
Eu851 O886 2.432 1_565 S
Eu851 O890 2.558 . S
Eu851 O891 2.612 . S
Eu851 O893 2.339 . S
Eu851 O894 2.563 . S
Eu851 O895 2.419 . S
Eu851 C915 2.848 . S
N852 C844 1.362 1_565 S
N852 Eu851 2.657 . S
N852 C853 1.334 . S
C853 N852 1.334 . S
C853 C855 1.413 . S
C853 H860 0.929 . S
C854 C842 1.392 1_565 S
C854 C855 1.367 . S
C854 H862 0.934 1_565 S
C855 C853 1.413 . S
C855 C854 1.367 . S
C855 H857 0.930 . S
H856 C849 0.930 . S
H857 C855 0.930 . S
H858 C846 0.930 . S
H859 C847 0.930 . S
H860 C853 0.929 . S
H861 C875 0.930 . S
H862 C854 0.934 1_545 S
H863 C881 0.930 . S
H864 C872 0.929 . S
H865 C879 0.930 . S
H866 C843 0.931 . S
H867 C873 0.932 1_565 S
H868 C906 0.930 . S
H869 C850 0.930 . S
H870 C905 0.931 . S
N871 Eu840 2.657 . S
N871 C872 1.334 . S
N871 C876 1.362 1_545 S
C872 H864 0.929 . S
C872 N871 1.334 . S
C872 C875 1.413 . S
C873 H867 0.932 1_545 S
C873 C874 1.392 1_545 S
C873 C875 1.367 . S
C874 C873 1.392 1_565 S
C874 C876 1.420 . S
C874 C906 1.423 . S
C875 H861 0.930 . S
C875 C872 1.413 . S
C875 C873 1.367 . S
C876 N871 1.362 1_565 S
C876 C874 1.420 . S
C876 C880 1.429 . S
H877 C882 0.930 . S
N878 Eu840 2.609 1_565 S
N878 C880 1.377 . S
N878 C881 1.321 . S
C879 H865 0.930 . S
C879 C881 1.400 . S
C879 C882 1.386 . S
C880 C876 1.429 . S
C880 N878 1.377 . S
C880 C883 1.411 . S
C881 H863 0.930 . S
C881 N878 1.321 . S
C881 C879 1.400 . S
C882 H877 0.930 . S
C882 C879 1.386 . S
C882 C883 1.395 . S
C883 C880 1.411 . S
C883 C882 1.395 . S
C883 C905 1.420 . S
O884 Eu840 2.558 . S
O884 C904 1.257 . S
O885 Eu840 2.612 . S
O885 Eu851 2.380 1_545 S
O885 C896 1.276 . S
O886 Eu851 2.432 1_545 S
O886 C903 1.264 . S
O887 Eu840 2.339 . S
O887 C903 1.254 . S
O888 Eu840 2.563 . S
O888 C896 1.235 . S
O889 Eu840 2.419 . S
O889 C904 1.249 . S
O890 Eu851 2.558 . S
O890 C915 1.257 . S
O891 Eu840 2.380 1_565 S
O891 Eu851 2.612 . S
O891 C907 1.276 . S
O892 Eu840 2.432 1_565 S
O892 C914 1.264 . S
O893 Eu851 2.339 . S
O893 C914 1.254 . S
O894 Eu851 2.563 . S
O894 C907 1.235 . S
O895 Eu851 2.419 . S
O895 C915 1.249 . S
C896 O885 1.276 . S
C896 O888 1.235 . S
C897 C899 1.393 . S
C897 C901 1.395 . S
C897 C904 1.492 . S
C898 C899 1.392 . S
C898 C900 1.386 . S
C899 C897 1.393 . S
C899 C898 1.392 . S
C899 H916 0.930 . S
C900 C898 1.386 . S
C900 C902 1.395 . S
C900 H917 0.930 . S
C901 C897 1.395 . S
C901 C902 1.379 . S
C901 H918 0.930 . S
C902 C900 1.395 . S
C902 C901 1.379 . S
C902 H919 0.930 . S
C903 O886 1.264 . S
C903 O887 1.254 . S
C904 Eu840 2.848 . S
C904 O884 1.257 . S
C904 O889 1.249 . S
C904 C897 1.492 . S
C905 H870 0.931 . S
C905 C883 1.420 . S
C905 C906 1.351 . S
C906 H868 0.930 . S
C906 C874 1.423 . S
C906 C905 1.351 . S
C907 O891 1.276 . S
C907 O894 1.235 . S
C908 C909 1.393 . S
C908 C912 1.395 . S
C908 C915 1.492 . S
C909 C908 1.393 . S
C909 C910 1.392 . S
C909 H920 0.930 . S
C910 C909 1.392 . S
C910 C911 1.386 . S
C911 C910 1.386 . S
C911 C913 1.395 . S
C911 H921 0.930 . S
C912 C908 1.395 . S
C912 C913 1.379 . S
C912 H922 0.930 . S
C913 C911 1.395 . S
C913 C912 1.379 . S
C913 H923 0.930 . S
C914 O892 1.264 . S
C914 O893 1.254 . S
C915 Eu851 2.848 . S
C915 O890 1.257 . S
C915 O895 1.249 . S
C915 C908 1.492 . S
H916 C899 0.930 . S
H917 C900 0.930 . S
H918 C901 0.930 . S
H919 C902 0.930 . S
H920 C909 0.930 . S
H921 C911 0.930 . S
H922 C912 0.930 . S
H923 C913 0.930 . S
Eu924 N955 2.657 . S
Eu924 N962 2.609 . S
Eu924 O968 2.558 . S
Eu924 O969 2.612 . S
Eu924 O971 2.339 . S
Eu924 O972 2.563 . S
Eu924 O973 2.419 . S
Eu924 O975 2.380 . S
Eu924 O976 2.432 . S
Eu924 C988 2.848 . S
C925 C928 1.429 . S
C925 C929 1.411 . S
C925 N932 1.377 . S
C926 C928 1.420 . S
C926 C930 1.423 . S
C926 C938 1.392 . S
C927 C929 1.420 . S
C927 C930 1.351 . S
C927 H950 0.931 . S
C928 C925 1.429 . S
C928 C926 1.420 . S
C928 N936 1.362 . S
C929 C925 1.411 . S
C929 C927 1.420 . S
C929 C934 1.395 . S
C930 C926 1.423 . S
C930 C927 1.351 . S
C930 H942 0.930 . S
C931 C933 1.400 . S
C931 C934 1.386 . S
C931 H943 0.930 . S
N932 C925 1.377 . S
N932 C933 1.321 . S
N932 Eu935 2.609 . S
C933 C931 1.400 . S
C933 N932 1.321 . S
C933 H940 0.930 . S
C934 C929 1.395 . S
C934 C931 1.386 . S
C934 H953 0.930 . S
Eu935 N932 2.609 . S
Eu935 N936 2.657 . S
Eu935 O969 2.380 . S
Eu935 O970 2.432 . S
Eu935 O974 2.558 . S
Eu935 O975 2.612 . S
Eu935 O977 2.339 . S
Eu935 O978 2.563 . S
Eu935 O979 2.419 . S
Eu935 C999 2.848 . S
N936 C928 1.362 . S
N936 Eu935 2.657 . S
N936 C937 1.334 . S
C937 N936 1.334 . S
C937 C939 1.413 . S
C937 H944 0.929 . S
C938 C926 1.392 . S
C938 C939 1.367 . S
C938 H946 0.930 . S
C939 C937 1.413 . S
C939 C938 1.367 . S
C939 H941 0.930 . S
H940 C933 0.930 . S
H941 C939 0.930 . S
H942 C930 0.930 . S
H943 C931 0.930 . S
H944 C937 0.929 . S
H945 C959 0.930 . S
H946 C938 0.930 . S
H947 C965 0.930 . S
H948 C956 0.929 . S
H949 C963 0.930 . S
H950 C927 0.931 . S
H951 C957 0.930 . S
H952 C990 0.930 . S
H953 C934 0.930 . S
H954 C989 0.931 . S
N955 Eu924 2.657 . S
N955 C956 1.334 . S
N955 C960 1.362 . S
C956 H948 0.929 . S
C956 N955 1.334 . S
C956 C959 1.413 . S
C957 H951 0.930 . S
C957 C958 1.392 . S
C957 C959 1.367 . S
C958 C957 1.392 . S
C958 C960 1.420 . S
C958 C990 1.423 . S
C959 H945 0.930 . S
C959 C956 1.413 . S
C959 C957 1.367 . S
C960 N955 1.362 . S
C960 C958 1.420 . S
C960 C964 1.429 . S
H961 C966 0.930 . S
N962 Eu924 2.609 . S
N962 C964 1.377 . S
N962 C965 1.321 . S
C963 H949 0.930 . S
C963 C965 1.400 . S
C963 C966 1.386 . S
C964 C960 1.429 . S
C964 N962 1.377 . S
C964 C967 1.411 . S
C965 H947 0.930 . S
C965 N962 1.321 . S
C965 C963 1.400 . S
C966 H961 0.930 . S
C966 C963 1.386 . S
C966 C967 1.395 . S
C967 C964 1.411 . S
C967 C966 1.395 . S
C967 C989 1.420 . S
O968 Eu924 2.558 . S
O968 C988 1.257 . S
O969 Eu924 2.612 . S
O969 Eu935 2.380 . S
O969 C980 1.276 . S
O970 Eu935 2.432 . S
O970 C987 1.264 . S
O971 Eu924 2.339 . S
O971 C987 1.254 . S
O972 Eu924 2.563 . S
O972 C980 1.235 . S
O973 Eu924 2.419 . S
O973 C988 1.249 . S
O974 Eu935 2.558 . S
O974 C999 1.257 . S
O975 Eu924 2.380 . S
O975 Eu935 2.612 . S
O975 C991 1.276 . S
O976 Eu924 2.432 . S
O976 C998 1.264 . S
O977 Eu935 2.339 . S
O977 C998 1.254 . S
O978 Eu935 2.563 . S
O978 C991 1.235 . S
O979 Eu935 2.419 . S
O979 C999 1.249 . S
C980 O969 1.276 . S
C980 O972 1.235 . S
C981 C983 1.393 . S
C981 C985 1.395 . S
C981 C988 1.492 . S
C982 C983 1.392 . S
C982 C984 1.386 . S
C983 C981 1.393 . S
C983 C982 1.392 . S
C983 H1000 0.930 . S
C984 C982 1.386 . S
C984 C986 1.395 . S
C984 H1001 0.930 . S
C985 C981 1.395 . S
C985 C986 1.379 . S
C985 H1002 0.930 . S
C986 C984 1.395 . S
C986 C985 1.379 . S
C986 H1003 0.930 . S
C987 O970 1.264 . S
C987 O971 1.254 . S
C988 Eu924 2.848 . S
C988 O968 1.257 . S
C988 O973 1.249 . S
C988 C981 1.492 . S
C989 H954 0.931 . S
C989 C967 1.420 . S
C989 C990 1.351 . S
C990 H952 0.930 . S
C990 C958 1.423 . S
C990 C989 1.351 . S
C991 O975 1.276 . S
C991 O978 1.235 . S
C992 C993 1.393 . S
C992 C996 1.395 . S
C992 C999 1.492 . S
C993 C992 1.393 . S
C993 C994 1.392 . S
C993 H1004 0.930 . S
C994 C993 1.392 . S
C994 C995 1.386 . S
C995 C994 1.386 . S
C995 C997 1.395 . S
C995 H1005 0.930 . S
C996 C992 1.395 . S
C996 C997 1.379 . S
C996 H1006 0.930 . S
C997 C995 1.395 . S
C997 C996 1.379 . S
C997 H1007 0.930 . S
C998 O976 1.264 . S
C998 O977 1.254 . S
C999 Eu935 2.848 . S
C999 O974 1.257 . S
C999 O979 1.249 . S
C999 C992 1.492 . S
H1000 C983 0.930 . S
H1001 C984 0.930 . S
H1002 C985 0.930 . S
H1003 C986 0.930 . S
H1004 C993 0.930 . S
H1005 C995 0.930 . S
H1006 C996 0.930 . S
H1007 C997 0.930 . S
C1008 C1009 1.391 . S
C1008 C1010 1.394 . S
C1008 H1024 0.931 . S
C1009 C1008 1.391 . S
C1009 C1013 1.376 . S
C1010 C1008 1.394 . S
C1010 C1011 1.369 . S
C1010 C1014 1.531 . S
C1011 C1010 1.369 . S
C1011 C1012 1.410 . S
C1011 C1019 1.503 . S
C1012 C1011 1.410 . S
C1012 C1013 1.392 . S
C1012 C1015 1.511 . S
C1013 C1009 1.376 . S
C1013 C1012 1.392 . S
C1013 H1025 0.929 . S
C1014 C1010 1.531 . S
C1014 H1026 0.960 . S
C1014 H1027 0.962 . S
C1014 H1028 0.960 . S
C1015 C1012 1.511 . S
C1015 H1029 0.961 . S
C1015 H1030 0.961 . S
C1015 H1031 0.961 . S
C1016 C1017 1.370 . S
C1016 C1018 1.363 . S
C1016 H1032 0.931 . S
C1017 C1016 1.370 . S
C1017 C1021 1.408 . S
C1018 C1016 1.363 . S
C1018 C1019 1.370 . S
C1018 C1022 1.524 . S
C1019 C1011 1.503 . S
C1019 C1018 1.370 . S
C1019 C1020 1.403 . S
C1020 C1019 1.403 . S
C1020 C1021 1.404 . S
C1020 C1023 1.539 . S
C1021 C1017 1.408 . S
C1021 C1020 1.404 . S
C1021 H1033 0.930 . S
C1022 C1018 1.524 . S
C1022 H1034 0.956 . S
C1022 H1035 0.961 . S
C1022 H1036 0.961 . S
C1023 C1020 1.539 . S
C1023 H1037 0.958 . S
C1023 H1038 0.961 . S
C1023 H1039 0.960 . S
H1024 C1008 0.931 . S
H1025 C1013 0.929 . S
H1026 C1014 0.960 . S
H1027 C1014 0.962 . S
H1028 C1014 0.960 . S
H1029 C1015 0.961 . S
H1030 C1015 0.961 . S
H1031 C1015 0.961 . S
H1032 C1016 0.931 . S
H1033 C1021 0.930 . S
H1034 C1022 0.956 . S
H1035 C1022 0.961 . S
H1036 C1022 0.961 . S
H1037 C1023 0.958 . S
H1038 C1023 0.961 . S
H1039 C1023 0.960 . S
C1040 C1041 1.391 . S
C1040 C1042 1.394 . S
C1040 H1056 0.931 . S
C1041 C1040 1.391 . S
C1041 C1045 1.376 . S
C1042 C1040 1.394 . S
C1042 C1043 1.369 . S
C1042 C1046 1.531 . S
C1043 C1042 1.369 . S
C1043 C1044 1.410 . S
C1043 C1051 1.503 . S
C1044 C1043 1.410 . S
C1044 C1045 1.392 . S
C1044 C1047 1.511 . S
C1045 C1041 1.376 . S
C1045 C1044 1.392 . S
C1045 H1057 0.929 . S
C1046 C1042 1.531 . S
C1046 H1058 0.960 . S
C1046 H1059 0.962 . S
C1046 H1060 0.960 . S
C1047 C1044 1.511 . S
C1047 H1061 0.961 . S
C1047 H1062 0.961 . S
C1047 H1063 0.961 . S
C1048 C1049 1.370 . S
C1048 C1050 1.363 . S
C1048 H1064 0.931 . S
C1049 C1048 1.370 . S
C1049 C1053 1.408 . S
C1050 C1048 1.363 . S
C1050 C1051 1.370 . S
C1050 C1054 1.524 . S
C1051 C1043 1.503 . S
C1051 C1050 1.370 . S
C1051 C1052 1.403 . S
C1052 C1051 1.403 . S
C1052 C1053 1.404 . S
C1052 C1055 1.539 . S
C1053 C1049 1.408 . S
C1053 C1052 1.404 . S
C1053 H1065 0.930 . S
C1054 C1050 1.524 . S
C1054 H1066 0.956 . S
C1054 H1067 0.961 . S
C1054 H1068 0.961 . S
C1055 C1052 1.539 . S
C1055 H1069 0.958 . S
C1055 H1070 0.961 . S
C1055 H1071 0.960 . S
H1056 C1040 0.931 . S
H1057 C1045 0.929 . S
H1058 C1046 0.960 . S
H1059 C1046 0.962 . S
H1060 C1046 0.960 . S
H1061 C1047 0.961 . S
H1062 C1047 0.961 . S
H1063 C1047 0.961 . S
H1064 C1048 0.931 . S
H1065 C1053 0.930 . S
H1066 C1054 0.956 . S
H1067 C1054 0.961 . S
H1068 C1054 0.961 . S
H1069 C1055 0.958 . S
H1070 C1055 0.961 . S
H1071 C1055 0.960 . S
C1072 C1073 1.391 . S
C1072 C1074 1.394 . S
C1072 H1088 0.931 . S
C1073 C1072 1.391 . S
C1073 C1077 1.376 . S
C1074 C1072 1.394 . S
C1074 C1075 1.369 . S
C1074 C1078 1.531 . S
C1075 C1074 1.369 . S
C1075 C1076 1.410 . S
C1075 C1083 1.503 . S
C1076 C1075 1.410 . S
C1076 C1077 1.392 . S
C1076 C1079 1.511 . S
C1077 C1073 1.376 . S
C1077 C1076 1.392 . S
C1077 H1089 0.929 . S
C1078 C1074 1.531 . S
C1078 H1090 0.960 . S
C1078 H1091 0.962 . S
C1078 H1092 0.960 . S
C1079 C1076 1.511 . S
C1079 H1093 0.961 . S
C1079 H1094 0.961 . S
C1079 H1095 0.961 . S
C1080 C1081 1.370 . S
C1080 C1082 1.363 . S
C1080 H1096 0.931 . S
C1081 C1080 1.370 . S
C1081 C1085 1.408 . S
C1082 C1080 1.363 . S
C1082 C1083 1.370 . S
C1082 C1086 1.524 . S
C1083 C1075 1.503 . S
C1083 C1082 1.370 . S
C1083 C1084 1.403 . S
C1084 C1083 1.403 . S
C1084 C1085 1.404 . S
C1084 C1087 1.539 . S
C1085 C1081 1.408 . S
C1085 C1084 1.404 . S
C1085 H1097 0.930 . S
C1086 C1082 1.524 . S
C1086 H1098 0.956 . S
C1086 H1099 0.961 . S
C1086 H1100 0.961 . S
C1087 C1084 1.539 . S
C1087 H1101 0.958 . S
C1087 H1102 0.961 . S
C1087 H1103 0.960 . S
H1088 C1072 0.931 . S
H1089 C1077 0.929 . S
H1090 C1078 0.960 . S
H1091 C1078 0.962 . S
H1092 C1078 0.960 . S
H1093 C1079 0.961 . S
H1094 C1079 0.961 . S
H1095 C1079 0.961 . S
H1096 C1080 0.931 . S
H1097 C1085 0.930 . S
H1098 C1086 0.956 . S
H1099 C1086 0.961 . S
H1100 C1086 0.961 . S
H1101 C1087 0.958 . S
H1102 C1087 0.961 . S
H1103 C1087 0.960 . S
C1104 C1105 1.391 . S
C1104 C1106 1.394 . S
C1104 H1120 0.931 . S
C1105 C1104 1.391 . S
C1105 C1109 1.376 . S
C1106 C1104 1.394 . S
C1106 C1107 1.369 . S
C1106 C1110 1.531 . S
C1107 C1106 1.369 . S
C1107 C1108 1.410 . S
C1107 C1115 1.503 . S
C1108 C1107 1.410 . S
C1108 C1109 1.392 . S
C1108 C1111 1.511 . S
C1109 C1105 1.376 . S
C1109 C1108 1.392 . S
C1109 H1121 0.929 . S
C1110 C1106 1.531 . S
C1110 H1122 0.960 . S
C1110 H1123 0.962 . S
C1110 H1124 0.960 . S
C1111 C1108 1.511 . S
C1111 H1125 0.961 . S
C1111 H1126 0.961 . S
C1111 H1127 0.961 . S
C1112 C1113 1.370 . S
C1112 C1114 1.363 . S
C1112 H1128 0.931 . S
C1113 C1112 1.370 . S
C1113 C1117 1.408 . S
C1114 C1112 1.363 . S
C1114 C1115 1.370 . S
C1114 C1118 1.524 . S
C1115 C1107 1.503 . S
C1115 C1114 1.370 . S
C1115 C1116 1.403 . S
C1116 C1115 1.403 . S
C1116 C1117 1.404 . S
C1116 C1119 1.539 . S
C1117 C1113 1.408 . S
C1117 C1116 1.404 . S
C1117 H1129 0.930 . S
C1118 C1114 1.524 . S
C1118 H1130 0.956 . S
C1118 H1131 0.961 . S
C1118 H1132 0.961 . S
C1119 C1116 1.539 . S
C1119 H1133 0.958 . S
C1119 H1134 0.961 . S
C1119 H1135 0.960 . S
H1120 C1104 0.931 . S
H1121 C1109 0.929 . S
H1122 C1110 0.960 . S
H1123 C1110 0.962 . S
H1124 C1110 0.960 . S
H1125 C1111 0.961 . S
H1126 C1111 0.961 . S
H1127 C1111 0.961 . S
H1128 C1112 0.931 . S
H1129 C1117 0.930 . S
H1130 C1118 0.956 . S
H1131 C1118 0.961 . S
H1132 C1118 0.961 . S
H1133 C1119 0.958 . S
H1134 C1119 0.961 . S
H1135 C1119 0.960 . S
C1136 C1137 1.391 . S
C1136 C1138 1.394 . S
C1136 H1152 0.931 . S
C1137 C1136 1.391 . S
C1137 C1141 1.376 . S
C1138 C1136 1.394 . S
C1138 C1139 1.369 . S
C1138 C1142 1.531 . S
C1139 C1138 1.369 . S
C1139 C1140 1.410 . S
C1139 C1147 1.503 . S
C1140 C1139 1.410 . S
C1140 C1141 1.392 . S
C1140 C1143 1.511 . S
C1141 C1137 1.376 . S
C1141 C1140 1.392 . S
C1141 H1153 0.929 . S
C1142 C1138 1.531 . S
C1142 H1154 0.960 . S
C1142 H1155 0.962 . S
C1142 H1156 0.960 . S
C1143 C1140 1.511 . S
C1143 H1157 0.961 . S
C1143 H1158 0.961 . S
C1143 H1159 0.961 . S
C1144 C1145 1.370 . S
C1144 C1146 1.363 . S
C1144 H1160 0.931 . S
C1145 C1144 1.370 . S
C1145 C1149 1.408 . S
C1146 C1144 1.363 . S
C1146 C1147 1.370 . S
C1146 C1150 1.524 . S
C1147 C1139 1.503 . S
C1147 C1146 1.370 . S
C1147 C1148 1.403 . S
C1148 C1147 1.403 . S
C1148 C1149 1.404 . S
C1148 C1151 1.539 . S
C1149 C1145 1.408 . S
C1149 C1148 1.404 . S
C1149 H1161 0.930 . S
C1150 C1146 1.524 . S
C1150 H1162 0.956 . S
C1150 H1163 0.961 . S
C1150 H1164 0.961 . S
C1151 C1148 1.539 . S
C1151 H1165 0.958 . S
C1151 H1166 0.961 . S
C1151 H1167 0.960 . S
H1152 C1136 0.931 . S
H1153 C1141 0.929 . S
H1154 C1142 0.960 . S
H1155 C1142 0.962 . S
H1156 C1142 0.960 . S
H1157 C1143 0.961 . S
H1158 C1143 0.961 . S
H1159 C1143 0.961 . S
H1160 C1144 0.931 . S
H1161 C1149 0.930 . S
H1162 C1150 0.956 . S
H1163 C1150 0.961 . S
H1164 C1150 0.961 . S
H1165 C1151 0.958 . S
H1166 C1151 0.961 . S
H1167 C1151 0.960 . S
C1168 C1169 1.391 . S
C1168 C1170 1.394 . S
C1168 H1184 0.931 . S
C1169 C1168 1.391 . S
C1169 C1173 1.376 . S
C1170 C1168 1.394 . S
C1170 C1171 1.369 . S
C1170 C1174 1.531 . S
C1171 C1170 1.369 . S
C1171 C1172 1.410 . S
C1171 C1179 1.503 . S
C1172 C1171 1.410 . S
C1172 C1173 1.392 . S
C1172 C1175 1.511 . S
C1173 C1169 1.376 . S
C1173 C1172 1.392 . S
C1173 H1185 0.929 . S
C1174 C1170 1.531 . S
C1174 H1186 0.960 . S
C1174 H1187 0.962 . S
C1174 H1188 0.960 . S
C1175 C1172 1.511 . S
C1175 H1189 0.961 . S
C1175 H1190 0.961 . S
C1175 H1191 0.961 . S
C1176 C1177 1.370 . S
C1176 C1178 1.363 . S
C1176 H1192 0.931 . S
C1177 C1176 1.370 . S
C1177 C1181 1.408 . S
C1178 C1176 1.363 . S
C1178 C1179 1.370 . S
C1178 C1182 1.524 . S
C1179 C1171 1.503 . S
C1179 C1178 1.370 . S
C1179 C1180 1.403 . S
C1180 C1179 1.403 . S
C1180 C1181 1.404 . S
C1180 C1183 1.539 . S
C1181 C1177 1.408 . S
C1181 C1180 1.404 . S
C1181 H1193 0.930 . S
C1182 C1178 1.524 . S
C1182 H1194 0.956 . S
C1182 H1195 0.961 . S
C1182 H1196 0.961 . S
C1183 C1180 1.539 . S
C1183 H1197 0.958 . S
C1183 H1198 0.961 . S
C1183 H1199 0.960 . S
H1184 C1168 0.931 . S
H1185 C1173 0.929 . S
H1186 C1174 0.960 . S
H1187 C1174 0.962 . S
H1188 C1174 0.960 . S
H1189 C1175 0.961 . S
H1190 C1175 0.961 . S
H1191 C1175 0.961 . S
H1192 C1176 0.931 . S
H1193 C1181 0.930 . S
H1194 C1182 0.956 . S
H1195 C1182 0.961 . S
H1196 C1182 0.961 . S
H1197 C1183 0.958 . S
H1198 C1183 0.961 . S
H1199 C1183 0.960 . S
C1200 C1201 1.391 . S
C1200 C1202 1.394 . S
C1200 H1216 0.931 . S
C1201 C1200 1.391 . S
C1201 C1205 1.376 . S
C1202 C1200 1.394 . S
C1202 C1203 1.369 . S
C1202 C1206 1.531 . S
C1203 C1202 1.369 . S
C1203 C1204 1.410 . S
C1203 C1211 1.503 . S
C1204 C1203 1.410 . S
C1204 C1205 1.392 . S
C1204 C1207 1.511 . S
C1205 C1201 1.376 . S
C1205 C1204 1.392 . S
C1205 H1217 0.929 . S
C1206 C1202 1.531 . S
C1206 H1218 0.960 . S
C1206 H1219 0.962 . S
C1206 H1220 0.960 . S
C1207 C1204 1.511 . S
C1207 H1221 0.961 . S
C1207 H1222 0.961 . S
C1207 H1223 0.961 . S
C1208 C1209 1.370 . S
C1208 C1210 1.363 . S
C1208 H1224 0.931 . S
C1209 C1208 1.370 . S
C1209 C1213 1.408 . S
C1210 C1208 1.363 . S
C1210 C1211 1.370 . S
C1210 C1214 1.524 . S
C1211 C1203 1.503 . S
C1211 C1210 1.370 . S
C1211 C1212 1.403 . S
C1212 C1211 1.403 . S
C1212 C1213 1.404 . S
C1212 C1215 1.539 . S
C1213 C1209 1.408 . S
C1213 C1212 1.404 . S
C1213 H1225 0.930 . S
C1214 C1210 1.524 . S
C1214 H1226 0.956 . S
C1214 H1227 0.961 . S
C1214 H1228 0.961 . S
C1215 C1212 1.539 . S
C1215 H1229 0.958 . S
C1215 H1230 0.961 . S
C1215 H1231 0.960 . S
H1216 C1200 0.931 . S
H1217 C1205 0.929 . S
H1218 C1206 0.960 . S
H1219 C1206 0.962 . S
H1220 C1206 0.960 . S
H1221 C1207 0.961 . S
H1222 C1207 0.961 . S
H1223 C1207 0.961 . S
H1224 C1208 0.931 . S
H1225 C1213 0.930 . S
H1226 C1214 0.956 . S
H1227 C1214 0.961 . S
H1228 C1214 0.961 . S
H1229 C1215 0.958 . S
H1230 C1215 0.961 . S
H1231 C1215 0.960 . S
C1232 C1233 1.391 . S
C1232 C1234 1.394 . S
C1232 H1248 0.931 . S
C1233 C1232 1.391 . S
C1233 C1237 1.376 . S
C1234 C1232 1.394 . S
C1234 C1235 1.369 . S
C1234 C1238 1.531 . S
C1235 C1234 1.369 . S
C1235 C1236 1.410 . S
C1235 C1243 1.503 . S
C1236 C1235 1.410 . S
C1236 C1237 1.392 . S
C1236 C1239 1.511 . S
C1237 C1233 1.376 . S
C1237 C1236 1.392 . S
C1237 H1249 0.929 . S
C1238 C1234 1.531 . S
C1238 H1250 0.960 . S
C1238 H1251 0.962 . S
C1238 H1252 0.960 . S
C1239 C1236 1.511 . S
C1239 H1253 0.961 . S
C1239 H1254 0.961 . S
C1239 H1255 0.961 . S
C1240 C1241 1.370 . S
C1240 C1242 1.363 . S
C1240 H1256 0.931 . S
C1241 C1240 1.370 . S
C1241 C1245 1.408 . S
C1242 C1240 1.363 . S
C1242 C1243 1.370 . S
C1242 C1246 1.524 . S
C1243 C1235 1.503 . S
C1243 C1242 1.370 . S
C1243 C1244 1.403 . S
C1244 C1243 1.403 . S
C1244 C1245 1.404 . S
C1244 C1247 1.539 . S
C1245 C1241 1.408 . S
C1245 C1244 1.404 . S
C1245 H1257 0.930 . S
C1246 C1242 1.524 . S
C1246 H1258 0.956 . S
C1246 H1259 0.961 . S
C1246 H1260 0.961 . S
C1247 C1244 1.539 . S
C1247 H1261 0.958 . S
C1247 H1262 0.961 . S
C1247 H1263 0.960 . S
H1248 C1232 0.931 . S
H1249 C1237 0.929 . S
H1250 C1238 0.960 . S
H1251 C1238 0.962 . S
H1252 C1238 0.960 . S
H1253 C1239 0.961 . S
H1254 C1239 0.961 . S
H1255 C1239 0.961 . S
H1256 C1240 0.931 . S
H1257 C1245 0.930 . S
H1258 C1246 0.956 . S
H1259 C1246 0.961 . S
H1260 C1246 0.961 . S
H1261 C1247 0.958 . S
H1262 C1247 0.961 . S
H1263 C1247 0.960 . S
C1264 C1265 1.391 . S
C1264 C1266 1.394 . S
C1264 H1280 0.931 . S
C1265 C1264 1.391 . S
C1265 C1269 1.376 . S
C1266 C1264 1.394 . S
C1266 C1267 1.369 . S
C1266 C1270 1.531 . S
C1267 C1266 1.369 . S
C1267 C1268 1.410 . S
C1267 C1275 1.503 . S
C1268 C1267 1.410 . S
C1268 C1269 1.392 . S
C1268 C1271 1.511 . S
C1269 C1265 1.376 . S
C1269 C1268 1.392 . S
C1269 H1281 0.929 . S
C1270 C1266 1.531 . S
C1270 H1282 0.960 . S
C1270 H1283 0.962 . S
C1270 H1284 0.960 . S
C1271 C1268 1.511 . S
C1271 H1285 0.961 . S
C1271 H1286 0.961 . S
C1271 H1287 0.961 . S
C1272 C1273 1.370 . S
C1272 C1274 1.363 . S
C1272 H1288 0.931 . S
C1273 C1272 1.370 . S
C1273 C1277 1.408 . S
C1274 C1272 1.363 . S
C1274 C1275 1.370 . S
C1274 C1278 1.524 . S
C1275 C1267 1.503 . S
C1275 C1274 1.370 . S
C1275 C1276 1.403 . S
C1276 C1275 1.403 . S
C1276 C1277 1.404 . S
C1276 C1279 1.539 . S
C1277 C1273 1.408 . S
C1277 C1276 1.404 . S
C1277 H1289 0.930 . S
C1278 C1274 1.524 . S
C1278 H1290 0.956 . S
C1278 H1291 0.961 . S
C1278 H1292 0.961 . S
C1279 C1276 1.539 . S
C1279 H1293 0.958 . S
C1279 H1294 0.961 . S
C1279 H1295 0.960 . S
H1280 C1264 0.931 . S
H1281 C1269 0.929 . S
H1282 C1270 0.960 . S
H1283 C1270 0.962 . S
H1284 C1270 0.960 . S
H1285 C1271 0.961 . S
H1286 C1271 0.961 . S
H1287 C1271 0.961 . S
H1288 C1272 0.931 . S
H1289 C1277 0.930 . S
H1290 C1278 0.956 . S
H1291 C1278 0.961 . S
H1292 C1278 0.961 . S
H1293 C1279 0.958 . S
H1294 C1279 0.961 . S
H1295 C1279 0.960 . S
C1296 C1297 1.391 . S
C1296 C1298 1.394 . S
C1296 H1312 0.931 . S
C1297 C1296 1.391 . S
C1297 C1301 1.376 . S
C1298 C1296 1.394 . S
C1298 C1299 1.369 . S
C1298 C1302 1.531 . S
C1299 C1298 1.369 . S
C1299 C1300 1.410 . S
C1299 C1307 1.503 . S
C1300 C1299 1.410 . S
C1300 C1301 1.392 . S
C1300 C1303 1.511 . S
C1301 C1297 1.376 . S
C1301 C1300 1.392 . S
C1301 H1313 0.929 . S
C1302 C1298 1.531 . S
C1302 H1314 0.960 . S
C1302 H1315 0.962 . S
C1302 H1316 0.960 . S
C1303 C1300 1.511 . S
C1303 H1317 0.961 . S
C1303 H1318 0.961 . S
C1303 H1319 0.961 . S
C1304 C1305 1.370 . S
C1304 C1306 1.363 . S
C1304 H1320 0.931 . S
C1305 C1304 1.370 . S
C1305 C1309 1.408 . S
C1306 C1304 1.363 . S
C1306 C1307 1.370 . S
C1306 C1310 1.524 . S
C1307 C1299 1.503 . S
C1307 C1306 1.370 . S
C1307 C1308 1.403 . S
C1308 C1307 1.403 . S
C1308 C1309 1.404 . S
C1308 C1311 1.539 . S
C1309 C1305 1.408 . S
C1309 C1308 1.404 . S
C1309 H1321 0.930 . S
C1310 C1306 1.524 . S
C1310 H1322 0.956 . S
C1310 H1323 0.961 . S
C1310 H1324 0.961 . S
C1311 C1308 1.539 . S
C1311 H1325 0.958 . S
C1311 H1326 0.961 . S
C1311 H1327 0.960 . S
H1312 C1296 0.931 . S
H1313 C1301 0.929 . S
H1314 C1302 0.960 . S
H1315 C1302 0.962 . S
H1316 C1302 0.960 . S
H1317 C1303 0.961 . S
H1318 C1303 0.961 . S
H1319 C1303 0.961 . S
H1320 C1304 0.931 . S
H1321 C1309 0.930 . S
H1322 C1310 0.956 . S
H1323 C1310 0.961 . S
H1324 C1310 0.961 . S
H1325 C1311 0.958 . S
H1326 C1311 0.961 . S
H1327 C1311 0.960 . S
C1328 C1329 1.391 . S
C1328 C1330 1.394 . S
C1328 H1344 0.931 . S
C1329 C1328 1.391 . S
C1329 C1333 1.376 . S
C1330 C1328 1.394 . S
C1330 C1331 1.369 . S
C1330 C1334 1.531 . S
C1331 C1330 1.369 . S
C1331 C1332 1.410 . S
C1331 C1339 1.503 . S
C1332 C1331 1.410 . S
C1332 C1333 1.392 . S
C1332 C1335 1.511 . S
C1333 C1329 1.376 . S
C1333 C1332 1.392 . S
C1333 H1345 0.929 . S
C1334 C1330 1.531 . S
C1334 H1346 0.960 . S
C1334 H1347 0.962 . S
C1334 H1348 0.960 . S
C1335 C1332 1.511 . S
C1335 H1349 0.961 . S
C1335 H1350 0.961 . S
C1335 H1351 0.961 . S
C1336 C1337 1.370 . S
C1336 C1338 1.363 . S
C1336 H1352 0.931 . S
C1337 C1336 1.370 . S
C1337 C1341 1.408 . S
C1338 C1336 1.363 . S
C1338 C1339 1.370 . S
C1338 C1342 1.524 . S
C1339 C1331 1.503 . S
C1339 C1338 1.370 . S
C1339 C1340 1.403 . S
C1340 C1339 1.403 . S
C1340 C1341 1.404 . S
C1340 C1343 1.539 . S
C1341 C1337 1.408 . S
C1341 C1340 1.404 . S
C1341 H1353 0.930 . S
C1342 C1338 1.524 . S
C1342 H1354 0.956 . S
C1342 H1355 0.961 . S
C1342 H1356 0.961 . S
C1343 C1340 1.539 . S
C1343 H1357 0.958 . S
C1343 H1358 0.961 . S
C1343 H1359 0.960 . S
H1344 C1328 0.931 . S
H1345 C1333 0.929 . S
H1346 C1334 0.960 . S
H1347 C1334 0.962 . S
H1348 C1334 0.960 . S
H1349 C1335 0.961 . S
H1350 C1335 0.961 . S
H1351 C1335 0.961 . S
H1352 C1336 0.931 . S
H1353 C1341 0.930 . S
H1354 C1342 0.956 . S
H1355 C1342 0.961 . S
H1356 C1342 0.961 . S
H1357 C1343 0.958 . S
H1358 C1343 0.961 . S
H1359 C1343 0.960 . S
C1360 C1361 1.391 . S
C1360 C1362 1.394 . S
C1360 H1376 0.931 . S
C1361 C1360 1.391 . S
C1361 C1365 1.376 . S
C1362 C1360 1.394 . S
C1362 C1363 1.369 . S
C1362 C1366 1.531 . S
C1363 C1362 1.369 . S
C1363 C1364 1.410 . S
C1363 C1371 1.503 . S
C1364 C1363 1.410 . S
C1364 C1365 1.392 . S
C1364 C1367 1.511 . S
C1365 C1361 1.376 . S
C1365 C1364 1.392 . S
C1365 H1377 0.929 . S
C1366 C1362 1.531 . S
C1366 H1378 0.960 . S
C1366 H1379 0.962 . S
C1366 H1380 0.960 . S
C1367 C1364 1.511 . S
C1367 H1381 0.961 . S
C1367 H1382 0.961 . S
C1367 H1383 0.961 . S
C1368 C1369 1.370 . S
C1368 C1370 1.363 . S
C1368 H1384 0.931 . S
C1369 C1368 1.370 . S
C1369 C1373 1.408 . S
C1370 C1368 1.363 . S
C1370 C1371 1.370 . S
C1370 C1374 1.524 . S
C1371 C1363 1.503 . S
C1371 C1370 1.370 . S
C1371 C1372 1.403 . S
C1372 C1371 1.403 . S
C1372 C1373 1.404 . S
C1372 C1375 1.539 . S
C1373 C1369 1.408 . S
C1373 C1372 1.404 . S
C1373 H1385 0.930 . S
C1374 C1370 1.524 . S
C1374 H1386 0.956 . S
C1374 H1387 0.961 . S
C1374 H1388 0.961 . S
C1375 C1372 1.539 . S
C1375 H1389 0.958 . S
C1375 H1390 0.961 . S
C1375 H1391 0.960 . S
H1376 C1360 0.931 . S
H1377 C1365 0.929 . S
H1378 C1366 0.960 . S
H1379 C1366 0.962 . S
H1380 C1366 0.960 . S
H1381 C1367 0.961 . S
H1382 C1367 0.961 . S
H1383 C1367 0.961 . S
H1384 C1368 0.931 . S
H1385 C1373 0.930 . S
H1386 C1374 0.956 . S
H1387 C1374 0.961 . S
H1388 C1374 0.961 . S
H1389 C1375 0.958 . S
H1390 C1375 0.961 . S
H1391 C1375 0.960 . S
C1392 C1393 1.391 . S
C1392 C1394 1.394 . S
C1392 H1408 0.931 . S
C1393 C1392 1.391 . S
C1393 C1397 1.376 . S
C1394 C1392 1.394 . S
C1394 C1395 1.369 . S
C1394 C1398 1.531 . S
C1395 C1394 1.369 . S
C1395 C1396 1.410 . S
C1395 C1403 1.503 . S
C1396 C1395 1.410 . S
C1396 C1397 1.392 . S
C1396 C1399 1.511 . S
C1397 C1393 1.376 . S
C1397 C1396 1.392 . S
C1397 H1409 0.929 . S
C1398 C1394 1.531 . S
C1398 H1410 0.960 . S
C1398 H1411 0.962 . S
C1398 H1412 0.960 . S
C1399 C1396 1.511 . S
C1399 H1413 0.961 . S
C1399 H1414 0.961 . S
C1399 H1415 0.961 . S
C1400 C1401 1.370 . S
C1400 C1402 1.363 . S
C1400 H1416 0.931 . S
C1401 C1400 1.370 . S
C1401 C1405 1.408 . S
C1402 C1400 1.363 . S
C1402 C1403 1.370 . S
C1402 C1406 1.524 . S
C1403 C1395 1.503 . S
C1403 C1402 1.370 . S
C1403 C1404 1.403 . S
C1404 C1403 1.403 . S
C1404 C1405 1.404 . S
C1404 C1407 1.539 . S
C1405 C1401 1.408 . S
C1405 C1404 1.404 . S
C1405 H1417 0.930 . S
C1406 C1402 1.524 . S
C1406 H1418 0.956 . S
C1406 H1419 0.961 . S
C1406 H1420 0.961 . S
C1407 C1404 1.539 . S
C1407 H1421 0.958 . S
C1407 H1422 0.961 . S
C1407 H1423 0.960 . S
H1408 C1392 0.931 . S
H1409 C1397 0.929 . S
H1410 C1398 0.960 . S
H1411 C1398 0.962 . S
H1412 C1398 0.960 . S
H1413 C1399 0.961 . S
H1414 C1399 0.961 . S
H1415 C1399 0.961 . S
H1416 C1400 0.931 . S
H1417 C1405 0.930 . S
H1418 C1406 0.956 . S
H1419 C1406 0.961 . S
H1420 C1406 0.961 . S
H1421 C1407 0.958 . S
H1422 C1407 0.961 . S
H1423 C1407 0.960 . S
C1424 C1425 1.391 . S
C1424 C1426 1.394 . S
C1424 H1440 0.931 . S
C1425 C1424 1.391 . S
C1425 C1429 1.376 . S
C1426 C1424 1.394 . S
C1426 C1427 1.369 . S
C1426 C1430 1.531 . S
C1427 C1426 1.369 . S
C1427 C1428 1.410 . S
C1427 C1435 1.503 . S
C1428 C1427 1.410 . S
C1428 C1429 1.392 . S
C1428 C1431 1.511 . S
C1429 C1425 1.376 . S
C1429 C1428 1.392 . S
C1429 H1441 0.929 . S
C1430 C1426 1.531 . S
C1430 H1442 0.960 . S
C1430 H1443 0.962 . S
C1430 H1444 0.960 . S
C1431 C1428 1.511 . S
C1431 H1445 0.961 . S
C1431 H1446 0.961 . S
C1431 H1447 0.961 . S
C1432 C1433 1.370 . S
C1432 C1434 1.363 . S
C1432 H1448 0.931 . S
C1433 C1432 1.370 . S
C1433 C1437 1.408 . S
C1434 C1432 1.363 . S
C1434 C1435 1.370 . S
C1434 C1438 1.524 . S
C1435 C1427 1.503 . S
C1435 C1434 1.370 . S
C1435 C1436 1.403 . S
C1436 C1435 1.403 . S
C1436 C1437 1.404 . S
C1436 C1439 1.539 . S
C1437 C1433 1.408 . S
C1437 C1436 1.404 . S
C1437 H1449 0.930 . S
C1438 C1434 1.524 . S
C1438 H1450 0.956 . S
C1438 H1451 0.961 . S
C1438 H1452 0.961 . S
C1439 C1436 1.539 . S
C1439 H1453 0.958 . S
C1439 H1454 0.961 . S
C1439 H1455 0.960 . S
H1440 C1424 0.931 . S
H1441 C1429 0.929 . S
H1442 C1430 0.960 . S
H1443 C1430 0.962 . S
H1444 C1430 0.960 . S
H1445 C1431 0.961 . S
H1446 C1431 0.961 . S
H1447 C1431 0.961 . S
H1448 C1432 0.931 . S
H1449 C1437 0.930 . S
H1450 C1438 0.956 . S
H1451 C1438 0.961 . S
H1452 C1438 0.961 . S
H1453 C1439 0.958 . S
H1454 C1439 0.961 . S
H1455 C1439 0.960 . S
C1456 C1457 1.391 . S
C1456 C1458 1.394 . S
C1456 H1472 0.931 . S
C1457 C1456 1.391 . S
C1457 C1461 1.376 . S
C1458 C1456 1.394 . S
C1458 C1459 1.369 . S
C1458 C1462 1.531 . S
C1459 C1458 1.369 . S
C1459 C1460 1.410 . S
C1459 C1467 1.503 . S
C1460 C1459 1.410 . S
C1460 C1461 1.392 . S
C1460 C1463 1.511 . S
C1461 C1457 1.376 . S
C1461 C1460 1.392 . S
C1461 H1473 0.929 . S
C1462 C1458 1.531 . S
C1462 H1474 0.960 . S
C1462 H1475 0.962 . S
C1462 H1476 0.960 . S
C1463 C1460 1.511 . S
C1463 H1477 0.961 . S
C1463 H1478 0.961 . S
C1463 H1479 0.961 . S
C1464 C1465 1.370 . S
C1464 C1466 1.363 . S
C1464 H1480 0.931 . S
C1465 C1464 1.370 . S
C1465 C1469 1.408 . S
C1466 C1464 1.363 . S
C1466 C1467 1.370 . S
C1466 C1470 1.524 . S
C1467 C1459 1.503 . S
C1467 C1466 1.370 . S
C1467 C1468 1.403 . S
C1468 C1467 1.403 . S
C1468 C1469 1.404 . S
C1468 C1471 1.539 . S
C1469 C1465 1.408 . S
C1469 C1468 1.404 . S
C1469 H1481 0.930 . S
C1470 C1466 1.524 . S
C1470 H1482 0.956 . S
C1470 H1483 0.961 . S
C1470 H1484 0.961 . S
C1471 C1468 1.539 . S
C1471 H1485 0.958 . S
C1471 H1486 0.961 . S
C1471 H1487 0.960 . S
H1472 C1456 0.931 . S
H1473 C1461 0.929 . S
H1474 C1462 0.960 . S
H1475 C1462 0.962 . S
H1476 C1462 0.960 . S
H1477 C1463 0.961 . S
H1478 C1463 0.961 . S
H1479 C1463 0.961 . S
H1480 C1464 0.931 . S
H1481 C1469 0.930 . S
H1482 C1470 0.956 . S
H1483 C1470 0.961 . S
H1484 C1470 0.961 . S
H1485 C1471 0.958 . S
H1486 C1471 0.961 . S
H1487 C1471 0.960 . S
C1488 C1489 1.391 . S
C1488 C1490 1.394 . S
C1488 H1504 0.931 . S
C1489 C1488 1.391 . S
C1489 C1493 1.376 . S
C1490 C1488 1.394 . S
C1490 C1491 1.369 . S
C1490 C1494 1.531 . S
C1491 C1490 1.369 . S
C1491 C1492 1.410 . S
C1491 C1499 1.503 . S
C1492 C1491 1.410 . S
C1492 C1493 1.392 . S
C1492 C1495 1.511 . S
C1493 C1489 1.376 . S
C1493 C1492 1.392 . S
C1493 H1505 0.929 . S
C1494 C1490 1.531 . S
C1494 H1506 0.960 . S
C1494 H1507 0.962 . S
C1494 H1508 0.960 . S
C1495 C1492 1.511 . S
C1495 H1509 0.961 . S
C1495 H1510 0.961 . S
C1495 H1511 0.961 . S
C1496 C1497 1.370 . S
C1496 C1498 1.363 . S
C1496 H1512 0.931 . S
C1497 C1496 1.370 . S
C1497 C1501 1.408 . S
C1498 C1496 1.363 . S
C1498 C1499 1.370 . S
C1498 C1502 1.524 . S
C1499 C1491 1.503 . S
C1499 C1498 1.370 . S
C1499 C1500 1.403 . S
C1500 C1499 1.403 . S
C1500 C1501 1.404 . S
C1500 C1503 1.539 . S
C1501 C1497 1.408 . S
C1501 C1500 1.404 . S
C1501 H1513 0.930 . S
C1502 C1498 1.524 . S
C1502 H1514 0.956 . S
C1502 H1515 0.961 . S
C1502 H1516 0.961 . S
C1503 C1500 1.539 . S
C1503 H1517 0.958 . S
C1503 H1518 0.961 . S
C1503 H1519 0.960 . S
H1504 C1488 0.931 . S
H1505 C1493 0.929 . S
H1506 C1494 0.960 . S
H1507 C1494 0.962 . S
H1508 C1494 0.960 . S
H1509 C1495 0.961 . S
H1510 C1495 0.961 . S
H1511 C1495 0.961 . S
H1512 C1496 0.931 . S
H1513 C1501 0.930 . S
H1514 C1502 0.956 . S
H1515 C1502 0.961 . S
H1516 C1502 0.961 . S
H1517 C1503 0.958 . S
H1518 C1503 0.961 . S
H1519 C1503 0.960 . S
C1520 C1521 1.391 1_554 S
C1520 C1522 1.394 . S
C1520 H1536 0.931 . S
C1521 C1520 1.391 1_556 S
C1521 C1525 1.376 . S
C1522 C1520 1.394 . S
C1522 C1523 1.369 . S
C1522 C1526 1.531 . S
C1523 C1522 1.369 . S
C1523 C1524 1.410 1_554 S
C1523 C1531 1.503 . S
C1524 C1523 1.410 1_556 S
C1524 C1525 1.392 . S
C1524 C1527 1.511 . S
C1525 C1521 1.376 . S
C1525 C1524 1.392 . S
C1525 H1537 0.929 . S
C1526 C1522 1.531 . S
C1526 H1538 0.960 . S
C1526 H1539 0.962 . S
C1526 H1540 0.960 . S
C1527 C1524 1.511 . S
C1527 H1541 0.961 . S
C1527 H1542 0.961 . S
C1527 H1543 0.961 . S
C1528 C1529 1.370 . S
C1528 C1530 1.363 . S
C1528 H1544 0.931 . S
C1529 C1528 1.370 . S
C1529 C1533 1.408 . S
C1530 C1528 1.363 . S
C1530 C1531 1.370 . S
C1530 C1534 1.524 1_554 S
C1531 C1523 1.503 . S
C1531 C1530 1.370 . S
C1531 C1532 1.403 . S
C1532 C1531 1.403 . S
C1532 C1533 1.404 . S
C1532 C1535 1.539 . S
C1533 C1529 1.408 . S
C1533 C1532 1.404 . S
C1533 H1545 0.930 . S
C1534 C1530 1.524 1_556 S
C1534 H1546 0.956 1_556 S
C1534 H1547 0.961 . S
C1534 H1548 0.961 . S
C1535 C1532 1.539 . S
C1535 H1549 0.958 . S
C1535 H1550 0.961 . S
C1535 H1551 0.960 . S
H1536 C1520 0.931 . S
H1537 C1525 0.929 . S
H1538 C1526 0.960 . S
H1539 C1526 0.962 . S
H1540 C1526 0.960 . S
H1541 C1527 0.961 . S
H1542 C1527 0.961 . S
H1543 C1527 0.961 . S
H1544 C1528 0.931 . S
H1545 C1533 0.930 . S
H1546 C1534 0.956 1_554 S
H1547 C1534 0.961 . S
H1548 C1534 0.961 . S
H1549 C1535 0.958 . S
H1550 C1535 0.961 . S
H1551 C1535 0.960 . S
C1552 C1553 1.391 . S
C1552 C1554 1.394 . S
C1552 H1568 0.931 . S
C1553 C1552 1.391 . S
C1553 C1557 1.376 . S
C1554 C1552 1.394 . S
C1554 C1555 1.369 . S
C1554 C1558 1.531 . S
C1555 C1554 1.369 . S
C1555 C1556 1.410 . S
C1555 C1563 1.503 . S
C1556 C1555 1.410 . S
C1556 C1557 1.392 . S
C1556 C1559 1.511 . S
C1557 C1553 1.376 . S
C1557 C1556 1.392 . S
C1557 H1569 0.929 . S
C1558 C1554 1.531 . S
C1558 H1570 0.960 . S
C1558 H1571 0.962 . S
C1558 H1572 0.960 . S
C1559 C1556 1.511 . S
C1559 H1573 0.961 . S
C1559 H1574 0.961 . S
C1559 H1575 0.961 . S
C1560 C1561 1.370 . S
C1560 C1562 1.363 . S
C1560 H1576 0.931 . S
C1561 C1560 1.370 . S
C1561 C1565 1.408 . S
C1562 C1560 1.363 . S
C1562 C1563 1.370 . S
C1562 C1566 1.524 . S
C1563 C1555 1.503 . S
C1563 C1562 1.370 . S
C1563 C1564 1.403 . S
C1564 C1563 1.403 . S
C1564 C1565 1.404 . S
C1564 C1567 1.539 . S
C1565 C1561 1.408 . S
C1565 C1564 1.404 . S
C1565 H1577 0.930 . S
C1566 C1562 1.524 . S
C1566 H1578 0.956 . S
C1566 H1579 0.961 . S
C1566 H1580 0.961 . S
C1567 C1564 1.539 . S
C1567 H1581 0.958 . S
C1567 H1582 0.961 . S
C1567 H1583 0.960 . S
H1568 C1552 0.931 . S
H1569 C1557 0.929 . S
H1570 C1558 0.960 . S
H1571 C1558 0.962 . S
H1572 C1558 0.960 . S
H1573 C1559 0.961 . S
H1574 C1559 0.961 . S
H1575 C1559 0.961 . S
H1576 C1560 0.931 . S
H1577 C1565 0.930 . S
H1578 C1566 0.956 . S
H1579 C1566 0.961 . S
H1580 C1566 0.961 . S
H1581 C1567 0.958 . S
H1582 C1567 0.961 . S
H1583 C1567 0.960 . S
C1584 C1585 1.391 . S
C1584 C1586 1.394 . S
C1584 H1600 0.931 . S
C1585 C1584 1.391 . S
C1585 C1589 1.376 . S
C1586 C1584 1.394 . S
C1586 C1587 1.369 . S
C1586 C1590 1.531 . S
C1587 C1586 1.369 . S
C1587 C1588 1.410 . S
C1587 C1595 1.503 . S
C1588 C1587 1.410 . S
C1588 C1589 1.392 . S
C1588 C1591 1.511 . S
C1589 C1585 1.376 . S
C1589 C1588 1.392 . S
C1589 H1601 0.929 . S
C1590 C1586 1.531 . S
C1590 H1602 0.960 . S
C1590 H1603 0.962 . S
C1590 H1604 0.960 . S
C1591 C1588 1.511 . S
C1591 H1605 0.961 . S
C1591 H1606 0.961 . S
C1591 H1607 0.961 . S
C1592 C1593 1.370 . S
C1592 C1594 1.363 . S
C1592 H1608 0.931 . S
C1593 C1592 1.370 . S
C1593 C1597 1.408 . S
C1594 C1592 1.363 . S
C1594 C1595 1.370 . S
C1594 C1598 1.524 . S
C1595 C1587 1.503 . S
C1595 C1594 1.370 . S
C1595 C1596 1.403 . S
C1596 C1595 1.403 . S
C1596 C1597 1.404 . S
C1596 C1599 1.539 . S
C1597 C1593 1.408 . S
C1597 C1596 1.404 . S
C1597 H1609 0.930 . S
C1598 C1594 1.524 . S
C1598 H1610 0.956 . S
C1598 H1611 0.961 . S
C1598 H1612 0.961 . S
C1599 C1596 1.539 . S
C1599 H1613 0.958 . S
C1599 H1614 0.961 . S
C1599 H1615 0.960 . S
H1600 C1584 0.931 . S
H1601 C1589 0.929 . S
H1602 C1590 0.960 . S
H1603 C1590 0.962 . S
H1604 C1590 0.960 . S
H1605 C1591 0.961 . S
H1606 C1591 0.961 . S
H1607 C1591 0.961 . S
H1608 C1592 0.931 . S
H1609 C1597 0.930 . S
H1610 C1598 0.956 . S
H1611 C1598 0.961 . S
H1612 C1598 0.961 . S
H1613 C1599 0.958 . S
H1614 C1599 0.961 . S
H1615 C1599 0.960 . S
C1616 C1617 1.391 . S
C1616 C1618 1.394 . S
C1616 H1632 0.931 . S
C1617 C1616 1.391 . S
C1617 C1621 1.376 . S
C1618 C1616 1.394 . S
C1618 C1619 1.369 . S
C1618 C1622 1.531 . S
C1619 C1618 1.369 . S
C1619 C1620 1.410 . S
C1619 C1627 1.503 . S
C1620 C1619 1.410 . S
C1620 C1621 1.392 . S
C1620 C1623 1.511 . S
C1621 C1617 1.376 . S
C1621 C1620 1.392 . S
C1621 H1633 0.929 . S
C1622 C1618 1.531 . S
C1622 H1634 0.960 . S
C1622 H1635 0.962 . S
C1622 H1636 0.960 . S
C1623 C1620 1.511 . S
C1623 H1637 0.961 . S
C1623 H1638 0.961 . S
C1623 H1639 0.961 . S
C1624 C1625 1.370 . S
C1624 C1626 1.363 . S
C1624 H1640 0.931 . S
C1625 C1624 1.370 . S
C1625 C1629 1.408 . S
C1626 C1624 1.363 . S
C1626 C1627 1.370 . S
C1626 C1630 1.524 . S
C1627 C1619 1.503 . S
C1627 C1626 1.370 . S
C1627 C1628 1.403 . S
C1628 C1627 1.403 . S
C1628 C1629 1.404 . S
C1628 C1631 1.539 . S
C1629 C1625 1.408 . S
C1629 C1628 1.404 . S
C1629 H1641 0.930 . S
C1630 C1626 1.524 . S
C1630 H1642 0.956 . S
C1630 H1643 0.961 . S
C1630 H1644 0.961 . S
C1631 C1628 1.539 . S
C1631 H1645 0.958 . S
C1631 H1646 0.961 . S
C1631 H1647 0.960 . S
H1632 C1616 0.931 . S
H1633 C1621 0.929 . S
H1634 C1622 0.960 . S
H1635 C1622 0.962 . S
H1636 C1622 0.960 . S
H1637 C1623 0.961 . S
H1638 C1623 0.961 . S
H1639 C1623 0.961 . S
H1640 C1624 0.931 . S
H1641 C1629 0.930 . S
H1642 C1630 0.956 . S
H1643 C1630 0.961 . S
H1644 C1630 0.961 . S
H1645 C1631 0.958 . S
H1646 C1631 0.961 . S
H1647 C1631 0.960 . S
C1648 C1649 1.391 . S
C1648 C1650 1.394 . S
C1648 H1664 0.931 . S
C1649 C1648 1.391 . S
C1649 C1653 1.376 . S
C1650 C1648 1.394 . S
C1650 C1651 1.369 . S
C1650 C1654 1.531 . S
C1651 C1650 1.369 . S
C1651 C1652 1.410 . S
C1651 C1659 1.503 . S
C1652 C1651 1.410 . S
C1652 C1653 1.392 . S
C1652 C1655 1.511 . S
C1653 C1649 1.376 . S
C1653 C1652 1.392 . S
C1653 H1665 0.929 . S
C1654 C1650 1.531 . S
C1654 H1666 0.960 . S
C1654 H1667 0.962 . S
C1654 H1668 0.960 . S
C1655 C1652 1.511 . S
C1655 H1669 0.961 . S
C1655 H1670 0.961 . S
C1655 H1671 0.961 . S
C1656 C1657 1.370 . S
C1656 C1658 1.363 . S
C1656 H1672 0.931 . S
C1657 C1656 1.370 . S
C1657 C1661 1.408 . S
C1658 C1656 1.363 . S
C1658 C1659 1.370 . S
C1658 C1662 1.524 . S
C1659 C1651 1.503 . S
C1659 C1658 1.370 . S
C1659 C1660 1.403 . S
C1660 C1659 1.403 . S
C1660 C1661 1.404 . S
C1660 C1663 1.539 . S
C1661 C1657 1.408 . S
C1661 C1660 1.404 . S
C1661 H1673 0.930 . S
C1662 C1658 1.524 . S
C1662 H1674 0.956 . S
C1662 H1675 0.961 . S
C1662 H1676 0.961 . S
C1663 C1660 1.539 . S
C1663 H1677 0.958 . S
C1663 H1678 0.961 . S
C1663 H1679 0.960 . S
H1664 C1648 0.931 . S
H1665 C1653 0.929 . S
H1666 C1654 0.960 . S
H1667 C1654 0.962 . S
H1668 C1654 0.960 . S
H1669 C1655 0.961 . S
H1670 C1655 0.961 . S
H1671 C1655 0.961 . S
H1672 C1656 0.931 . S
H1673 C1661 0.930 . S
H1674 C1662 0.956 . S
H1675 C1662 0.961 . S
H1676 C1662 0.961 . S
H1677 C1663 0.958 . S
H1678 C1663 0.961 . S
H1679 C1663 0.960 . S
C1680 C1681 1.391 . S
C1680 C1682 1.394 . S
C1680 H1696 0.931 . S
C1681 C1680 1.391 . S
C1681 C1685 1.376 . S
C1682 C1680 1.394 . S
C1682 C1683 1.369 . S
C1682 C1686 1.531 . S
C1683 C1682 1.369 . S
C1683 C1684 1.410 . S
C1683 C1691 1.503 . S
C1684 C1683 1.410 . S
C1684 C1685 1.392 . S
C1684 C1687 1.511 . S
C1685 C1681 1.376 . S
C1685 C1684 1.392 . S
C1685 H1697 0.929 . S
C1686 C1682 1.531 . S
C1686 H1698 0.960 . S
C1686 H1699 0.962 . S
C1686 H1700 0.960 . S
C1687 C1684 1.511 . S
C1687 H1701 0.961 1_554 S
C1687 H1702 0.961 1_554 S
C1687 H1703 0.961 . S
C1688 C1689 1.420 . S
C1688 C1690 1.363 . S
C1688 H1704 0.931 . S
C1689 C1688 1.420 . S
C1689 C1693 1.345 1_556 S
C1690 C1688 1.363 . S
C1690 C1691 1.370 1_556 S
C1690 C1694 1.524 . S
C1691 C1683 1.503 . S
C1691 C1690 1.370 1_554 S
C1691 C1692 1.403 . S
C1692 C1691 1.403 . S
C1692 C1693 1.404 . S
C1692 C1695 1.539 . S
C1693 C1689 1.345 1_554 S
C1693 C1692 1.404 . S
C1693 H1705 0.930 . S
C1694 C1690 1.524 . S
C1694 H1706 0.956 . S
C1694 H1707 0.961 . S
C1694 H1708 0.961 . S
C1695 C1692 1.539 . S
C1695 H1709 0.958 . S
C1695 H1710 0.961 . S
C1695 H1711 0.960 . S
H1696 C1680 0.931 . S
H1697 C1685 0.929 . S
H1698 C1686 0.960 . S
H1699 C1686 0.962 . S
H1700 C1686 0.960 . S
H1701 C1687 0.961 1_556 S
H1702 C1687 0.961 1_556 S
H1703 C1687 0.961 . S
H1704 C1688 0.931 . S
H1705 C1693 0.930 . S
H1706 C1694 0.956 . S
H1707 C1694 0.961 . S
H1708 C1694 0.961 . S
H1709 C1695 0.958 . S
H1710 C1695 0.961 . S
H1711 C1695 0.960 . S
C1712 C1713 1.391 . S
C1712 C1714 1.394 . S
C1712 H1728 0.931 . S
C1713 C1712 1.391 . S
C1713 C1717 1.376 . S
C1714 C1712 1.394 . S
C1714 C1715 1.369 . S
C1714 C1718 1.531 . S
C1715 C1714 1.369 . S
C1715 C1716 1.410 . S
C1715 C1723 1.503 . S
C1716 C1715 1.410 . S
C1716 C1717 1.392 . S
C1716 C1719 1.511 . S
C1717 C1713 1.376 . S
C1717 C1716 1.392 . S
C1717 H1729 0.929 . S
C1718 C1714 1.531 . S
C1718 H1730 0.960 . S
C1718 H1731 0.962 . S
C1718 H1732 0.960 . S
C1719 C1716 1.511 . S
C1719 H1733 0.961 . S
C1719 H1734 0.961 . S
C1719 H1735 0.961 . S
C1720 C1721 1.370 . S
C1720 C1722 1.363 . S
C1720 H1736 0.931 . S
C1721 C1720 1.370 . S
C1721 C1725 1.408 . S
C1722 C1720 1.363 . S
C1722 C1723 1.370 . S
C1722 C1726 1.524 . S
C1723 C1715 1.503 . S
C1723 C1722 1.370 . S
C1723 C1724 1.403 . S
C1724 C1723 1.403 . S
C1724 C1725 1.404 . S
C1724 C1727 1.539 . S
C1725 C1721 1.408 . S
C1725 C1724 1.404 . S
C1725 H1737 0.930 . S
C1726 C1722 1.524 . S
C1726 H1738 0.956 . S
C1726 H1739 0.961 . S
C1726 H1740 0.961 . S
C1727 C1724 1.539 . S
C1727 H1741 0.958 . S
C1727 H1742 0.961 . S
C1727 H1743 0.960 . S
H1728 C1712 0.931 . S
H1729 C1717 0.929 . S
H1730 C1718 0.960 . S
H1731 C1718 0.962 . S
H1732 C1718 0.960 . S
H1733 C1719 0.961 . S
H1734 C1719 0.961 . S
H1735 C1719 0.961 . S
H1736 C1720 0.931 . S
H1737 C1725 0.930 . S
H1738 C1726 0.956 . S
H1739 C1726 0.961 . S
H1740 C1726 0.961 . S
H1741 C1727 0.958 . S
H1742 C1727 0.961 . S
H1743 C1727 0.960 . S
C1744 C1745 1.391 . S
C1744 C1746 1.394 . S
C1744 H1760 0.931 . S
C1745 C1744 1.391 . S
C1745 C1749 1.376 . S
C1746 C1744 1.394 . S
C1746 C1747 1.369 . S
C1746 C1750 1.531 . S
C1747 C1746 1.369 . S
C1747 C1748 1.410 . S
C1747 C1755 1.503 . S
C1748 C1747 1.410 . S
C1748 C1749 1.392 . S
C1748 C1751 1.511 . S
C1749 C1745 1.376 . S
C1749 C1748 1.392 . S
C1749 H1761 0.929 . S
C1750 C1746 1.531 . S
C1750 H1762 0.960 . S
C1750 H1763 0.962 . S
C1750 H1764 0.960 . S
C1751 C1748 1.511 . S
C1751 H1765 0.961 . S
C1751 H1766 0.961 . S
C1751 H1767 0.961 . S
C1752 C1753 1.370 . S
C1752 C1754 1.363 . S
C1752 H1768 0.931 . S
C1753 C1752 1.370 . S
C1753 C1757 1.408 . S
C1754 C1752 1.363 . S
C1754 C1755 1.370 . S
C1754 C1758 1.524 . S
C1755 C1747 1.503 . S
C1755 C1754 1.370 . S
C1755 C1756 1.403 . S
C1756 C1755 1.403 . S
C1756 C1757 1.404 . S
C1756 C1759 1.539 . S
C1757 C1753 1.408 . S
C1757 C1756 1.404 . S
C1757 H1769 0.930 . S
C1758 C1754 1.524 . S
C1758 H1770 0.956 . S
C1758 H1771 0.961 . S
C1758 H1772 0.961 . S
C1759 C1756 1.539 . S
C1759 H1773 0.958 . S
C1759 H1774 0.961 . S
C1759 H1775 0.960 . S
H1760 C1744 0.931 . S
H1761 C1749 0.929 . S
H1762 C1750 0.960 . S
H1763 C1750 0.962 . S
H1764 C1750 0.960 . S
H1765 C1751 0.961 . S
H1766 C1751 0.961 . S
H1767 C1751 0.961 . S
H1768 C1752 0.931 . S
H1769 C1757 0.930 . S
H1770 C1758 0.956 . S
H1771 C1758 0.961 . S
H1772 C1758 0.961 . S
H1773 C1759 0.958 . S
H1774 C1759 0.961 . S
H1775 C1759 0.960 . S
C1776 C1777 1.391 . S
C1776 C1778 1.394 . S
C1776 H1792 0.931 . S
C1777 C1776 1.391 . S
C1777 C1781 1.376 . S
C1778 C1776 1.394 . S
C1778 C1779 1.369 . S
C1778 C1782 1.531 . S
C1779 C1778 1.369 . S
C1779 C1780 1.410 . S
C1779 C1787 1.503 . S
C1780 C1779 1.410 . S
C1780 C1781 1.392 . S
C1780 C1783 1.511 . S
C1781 C1777 1.376 . S
C1781 C1780 1.392 . S
C1781 H1793 0.929 . S
C1782 C1778 1.531 . S
C1782 H1794 0.960 . S
C1782 H1795 0.962 . S
C1782 H1796 0.960 . S
C1783 C1780 1.511 . S
C1783 H1797 0.961 . S
C1783 H1798 0.961 . S
C1783 H1799 0.961 . S
C1784 C1785 1.370 . S
C1784 C1786 1.363 . S
C1784 H1800 0.931 . S
C1785 C1784 1.370 . S
C1785 C1789 1.408 . S
C1786 C1784 1.363 . S
C1786 C1787 1.370 . S
C1786 C1790 1.524 . S
C1787 C1779 1.503 . S
C1787 C1786 1.370 . S
C1787 C1788 1.403 . S
C1788 C1787 1.403 . S
C1788 C1789 1.404 . S
C1788 C1791 1.539 . S
C1789 C1785 1.408 . S
C1789 C1788 1.404 . S
C1789 H1801 0.930 . S
C1790 C1786 1.524 . S
C1790 H1802 0.956 . S
C1790 H1803 0.961 . S
C1790 H1804 0.961 . S
C1791 C1788 1.539 . S
C1791 H1805 0.958 . S
C1791 H1806 0.961 . S
C1791 H1807 0.960 . S
H1792 C1776 0.931 . S
H1793 C1781 0.929 . S
H1794 C1782 0.960 . S
H1795 C1782 0.962 . S
H1796 C1782 0.960 . S
H1797 C1783 0.961 . S
H1798 C1783 0.961 . S
H1799 C1783 0.961 . S
H1800 C1784 0.931 . S
H1801 C1789 0.930 . S
H1802 C1790 0.956 . S
H1803 C1790 0.961 . S
H1804 C1790 0.961 . S
H1805 C1791 0.958 . S
H1806 C1791 0.961 . S
H1807 C1791 0.960 . S
C1808 C1809 1.391 . S
C1808 C1810 1.394 . S
C1808 H1824 0.931 . S
C1809 C1808 1.391 . S
C1809 C1813 1.376 . S
C1810 C1808 1.394 . S
C1810 C1811 1.369 . S
C1810 C1814 1.531 . S
C1811 C1810 1.369 . S
C1811 C1812 1.410 . S
C1811 C1819 1.503 . S
C1812 C1811 1.410 . S
C1812 C1813 1.392 . S
C1812 C1815 1.511 . S
C1813 C1809 1.376 . S
C1813 C1812 1.392 . S
C1813 H1825 0.929 . S
C1814 C1810 1.531 . S
C1814 H1826 0.960 . S
C1814 H1827 0.962 . S
C1814 H1828 0.960 . S
C1815 C1812 1.511 . S
C1815 H1829 0.961 . S
C1815 H1830 0.961 . S
C1815 H1831 0.961 . S
C1816 C1817 1.370 . S
C1816 C1818 1.363 . S
C1816 H1832 0.931 . S
C1817 C1816 1.370 . S
C1817 C1821 1.408 . S
C1818 C1816 1.363 . S
C1818 C1819 1.370 . S
C1818 C1822 1.524 . S
C1819 C1811 1.503 . S
C1819 C1818 1.370 . S
C1819 C1820 1.403 . S
C1820 C1819 1.403 . S
C1820 C1821 1.404 . S
C1820 C1823 1.539 . S
C1821 C1817 1.408 . S
C1821 C1820 1.404 . S
C1821 H1833 0.930 . S
C1822 C1818 1.524 . S
C1822 H1834 0.956 . S
C1822 H1835 0.961 . S
C1822 H1836 0.961 . S
C1823 C1820 1.539 . S
C1823 H1837 0.958 . S
C1823 H1838 0.961 . S
C1823 H1839 0.960 . S
H1824 C1808 0.931 . S
H1825 C1813 0.929 . S
H1826 C1814 0.960 . S
H1827 C1814 0.962 . S
H1828 C1814 0.960 . S
H1829 C1815 0.961 . S
H1830 C1815 0.961 . S
H1831 C1815 0.961 . S
H1832 C1816 0.931 . S
H1833 C1821 0.930 . S
H1834 C1822 0.956 . S
H1835 C1822 0.961 . S
H1836 C1822 0.961 . S
H1837 C1823 0.958 . S
H1838 C1823 0.961 . S
H1839 C1823 0.960 . S
C1840 C1841 1.391 . S
C1840 C1842 1.394 . S
C1840 H1856 0.931 . S
C1841 C1840 1.391 . S
C1841 C1845 1.376 . S
C1842 C1840 1.394 . S
C1842 C1843 1.369 . S
C1842 C1846 1.531 . S
C1843 C1842 1.369 . S
C1843 C1844 1.410 . S
C1843 C1851 1.503 . S
C1844 C1843 1.410 . S
C1844 C1845 1.392 . S
C1844 C1847 1.511 . S
C1845 C1841 1.376 . S
C1845 C1844 1.392 . S
C1845 H1857 0.929 . S
C1846 C1842 1.531 . S
C1846 H1858 0.960 . S
C1846 H1859 0.962 . S
C1846 H1860 0.960 . S
C1847 C1844 1.511 . S
C1847 H1861 0.961 . S
C1847 H1862 0.961 . S
C1847 H1863 0.961 . S
C1848 C1849 1.370 . S
C1848 C1850 1.363 . S
C1848 H1864 0.931 . S
C1849 C1848 1.370 . S
C1849 C1853 1.408 . S
C1850 C1848 1.363 . S
C1850 C1851 1.370 . S
C1850 C1854 1.524 . S
C1851 C1843 1.503 . S
C1851 C1850 1.370 . S
C1851 C1852 1.403 . S
C1852 C1851 1.403 . S
C1852 C1853 1.404 . S
C1852 C1855 1.539 . S
C1853 C1849 1.408 . S
C1853 C1852 1.404 . S
C1853 H1865 0.930 . S
C1854 C1850 1.524 . S
C1854 H1866 0.956 . S
C1854 H1867 0.961 . S
C1854 H1868 0.961 . S
C1855 C1852 1.539 . S
C1855 H1869 0.958 . S
C1855 H1870 0.961 . S
C1855 H1871 0.960 . S
H1856 C1840 0.931 . S
H1857 C1845 0.929 . S
H1858 C1846 0.960 . S
H1859 C1846 0.962 . S
H1860 C1846 0.960 . S
H1861 C1847 0.961 . S
H1862 C1847 0.961 . S
H1863 C1847 0.961 . S
H1864 C1848 0.931 . S
H1865 C1853 0.930 . S
H1866 C1854 0.956 . S
H1867 C1854 0.961 . S
H1868 C1854 0.961 . S
H1869 C1855 0.958 . S
H1870 C1855 0.961 . S
H1871 C1855 0.960 . S
C1872 C1873 1.391 . S
C1872 C1874 1.394 . S
C1872 H1888 0.931 . S
C1873 C1872 1.391 . S
C1873 C1877 1.376 . S
C1874 C1872 1.394 . S
C1874 C1875 1.369 . S
C1874 C1878 1.531 . S
C1875 C1874 1.369 . S
C1875 C1876 1.410 . S
C1875 C1883 1.503 . S
C1876 C1875 1.410 . S
C1876 C1877 1.392 . S
C1876 C1879 1.511 . S
C1877 C1873 1.376 . S
C1877 C1876 1.392 . S
C1877 H1889 0.929 . S
C1878 C1874 1.531 . S
C1878 H1890 0.960 . S
C1878 H1891 0.962 . S
C1878 H1892 0.960 . S
C1879 C1876 1.511 . S
C1879 H1893 0.961 . S
C1879 H1894 0.961 . S
C1879 H1895 0.961 . S
C1880 C1881 1.370 . S
C1880 C1882 1.363 . S
C1880 H1896 0.931 . S
C1881 C1880 1.370 . S
C1881 C1885 1.408 . S
C1882 C1880 1.363 . S
C1882 C1883 1.370 . S
C1882 C1886 1.524 . S
C1883 C1875 1.503 . S
C1883 C1882 1.370 . S
C1883 C1884 1.403 . S
C1884 C1883 1.403 . S
C1884 C1885 1.404 . S
C1884 C1887 1.539 . S
C1885 C1881 1.408 . S
C1885 C1884 1.404 . S
C1885 H1897 0.930 . S
C1886 C1882 1.524 . S
C1886 H1898 0.956 . S
C1886 H1899 0.961 . S
C1886 H1900 0.961 . S
C1887 C1884 1.539 . S
C1887 H1901 0.958 . S
C1887 H1902 0.961 . S
C1887 H1903 0.960 . S
H1888 C1872 0.931 . S
H1889 C1877 0.929 . S
H1890 C1878 0.960 . S
H1891 C1878 0.962 . S
H1892 C1878 0.960 . S
H1893 C1879 0.961 . S
H1894 C1879 0.961 . S
H1895 C1879 0.961 . S
H1896 C1880 0.931 . S
H1897 C1885 0.930 . S
H1898 C1886 0.956 . S
H1899 C1886 0.961 . S
H1900 C1886 0.961 . S
H1901 C1887 0.958 . S
H1902 C1887 0.961 . S
H1903 C1887 0.960 . S
C1904 C1905 1.391 . S
C1904 C1906 1.394 . S
C1904 H1920 0.931 . S
C1905 C1904 1.391 . S
C1905 C1909 1.376 . S
C1906 C1904 1.394 . S
C1906 C1907 1.369 . S
C1906 C1910 1.531 . S
C1907 C1906 1.369 . S
C1907 C1908 1.410 . S
C1907 C1915 1.503 . S
C1908 C1907 1.410 . S
C1908 C1909 1.392 . S
C1908 C1911 1.511 . S
C1909 C1905 1.376 . S
C1909 C1908 1.392 . S
C1909 H1921 0.929 . S
C1910 C1906 1.531 . S
C1910 H1922 0.960 . S
C1910 H1923 0.962 . S
C1910 H1924 0.960 . S
C1911 C1908 1.511 . S
C1911 H1925 0.961 . S
C1911 H1926 0.961 . S
C1911 H1927 0.961 . S
C1912 C1913 1.370 . S
C1912 C1914 1.363 . S
C1912 H1928 0.931 . S
C1913 C1912 1.370 . S
C1913 C1917 1.408 . S
C1914 C1912 1.363 . S
C1914 C1915 1.370 . S
C1914 C1918 1.524 . S
C1915 C1907 1.503 . S
C1915 C1914 1.370 . S
C1915 C1916 1.403 . S
C1916 C1915 1.403 . S
C1916 C1917 1.404 . S
C1916 C1919 1.539 . S
C1917 C1913 1.408 . S
C1917 C1916 1.404 . S
C1917 H1929 0.930 . S
C1918 C1914 1.524 . S
C1918 H1930 0.956 . S
C1918 H1931 0.961 . S
C1918 H1932 0.961 . S
C1919 C1916 1.539 . S
C1919 H1933 0.958 . S
C1919 H1934 0.961 . S
C1919 H1935 0.960 . S
H1920 C1904 0.931 . S
H1921 C1909 0.929 . S
H1922 C1910 0.960 . S
H1923 C1910 0.962 . S
H1924 C1910 0.960 . S
H1925 C1911 0.961 . S
H1926 C1911 0.961 . S
H1927 C1911 0.961 . S
H1928 C1912 0.931 . S
H1929 C1917 0.930 . S
H1930 C1918 0.956 . S
H1931 C1918 0.961 . S
H1932 C1918 0.961 . S
H1933 C1919 0.958 . S
H1934 C1919 0.961 . S
H1935 C1919 0.960 . S
C1936 C1937 1.391 . S
C1936 C1938 1.394 . S
C1936 H1952 0.931 . S
C1937 C1936 1.391 . S
C1937 C1941 1.376 . S
C1938 C1936 1.394 . S
C1938 C1939 1.369 . S
C1938 C1942 1.531 . S
C1939 C1938 1.369 . S
C1939 C1940 1.410 . S
C1939 C1947 1.503 . S
C1940 C1939 1.410 . S
C1940 C1941 1.392 . S
C1940 C1943 1.511 . S
C1941 C1937 1.376 . S
C1941 C1940 1.392 . S
C1941 H1953 0.929 . S
C1942 C1938 1.531 . S
C1942 H1954 0.960 . S
C1942 H1955 0.962 . S
C1942 H1956 0.960 . S
C1943 C1940 1.511 . S
C1943 H1957 0.961 . S
C1943 H1958 0.961 . S
C1943 H1959 0.961 . S
C1944 C1945 1.370 . S
C1944 C1946 1.363 . S
C1944 H1960 0.931 . S
C1945 C1944 1.370 . S
C1945 C1949 1.408 . S
C1946 C1944 1.363 . S
C1946 C1947 1.370 . S
C1946 C1950 1.524 . S
C1947 C1939 1.503 . S
C1947 C1946 1.370 . S
C1947 C1948 1.403 . S
C1948 C1947 1.403 . S
C1948 C1949 1.404 . S
C1948 C1951 1.539 . S
C1949 C1945 1.408 . S
C1949 C1948 1.404 . S
C1949 H1961 0.930 . S
C1950 C1946 1.524 . S
C1950 H1962 0.956 . S
C1950 H1963 0.961 . S
C1950 H1964 0.961 . S
C1951 C1948 1.539 . S
C1951 H1965 0.958 . S
C1951 H1966 0.961 . S
C1951 H1967 0.960 . S
H1952 C1936 0.931 . S
H1953 C1941 0.929 . S
H1954 C1942 0.960 . S
H1955 C1942 0.962 . S
H1956 C1942 0.960 . S
H1957 C1943 0.961 . S
H1958 C1943 0.961 . S
H1959 C1943 0.961 . S
H1960 C1944 0.931 . S
H1961 C1949 0.930 . S
H1962 C1950 0.956 . S
H1963 C1950 0.961 . S
H1964 C1950 0.961 . S
H1965 C1951 0.958 . S
H1966 C1951 0.961 . S
H1967 C1951 0.960 . S
C1968 C1969 1.391 . S
C1968 C1970 1.394 . S
C1968 H1984 0.931 . S
C1969 C1968 1.391 . S
C1969 C1973 1.376 . S
C1970 C1968 1.394 . S
C1970 C1971 1.369 . S
C1970 C1974 1.531 . S
C1971 C1970 1.369 . S
C1971 C1972 1.410 . S
C1971 C1979 1.503 . S
C1972 C1971 1.410 . S
C1972 C1973 1.392 . S
C1972 C1975 1.511 . S
C1973 C1969 1.376 . S
C1973 C1972 1.392 . S
C1973 H1985 0.929 . S
C1974 C1970 1.531 . S
C1974 H1986 0.960 . S
C1974 H1987 0.962 . S
C1974 H1988 0.960 . S
C1975 C1972 1.511 . S
C1975 H1989 0.961 . S
C1975 H1990 0.961 . S
C1975 H1991 0.961 . S
C1976 C1977 1.370 . S
C1976 C1978 1.363 . S
C1976 H1992 0.931 . S
C1977 C1976 1.370 . S
C1977 C1981 1.408 . S
C1978 C1976 1.363 . S
C1978 C1979 1.370 . S
C1978 C1982 1.524 . S
C1979 C1971 1.503 . S
C1979 C1978 1.370 . S
C1979 C1980 1.403 . S
C1980 C1979 1.403 . S
C1980 C1981 1.404 . S
C1980 C1983 1.539 . S
C1981 C1977 1.408 . S
C1981 C1980 1.404 . S
C1981 H1993 0.930 . S
C1982 C1978 1.524 . S
C1982 H1994 0.956 . S
C1982 H1995 0.961 . S
C1982 H1996 0.961 . S
C1983 C1980 1.539 . S
C1983 H1997 0.958 . S
C1983 H1998 0.961 . S
C1983 H1999 0.960 . S
H1984 C1968 0.931 . S
H1985 C1973 0.929 . S
H1986 C1974 0.960 . S
H1987 C1974 0.962 . S
H1988 C1974 0.960 . S
H1989 C1975 0.961 . S
H1990 C1975 0.961 . S
H1991 C1975 0.961 . S
H1992 C1976 0.931 . S
H1993 C1981 0.930 . S
H1994 C1982 0.956 . S
H1995 C1982 0.961 . S
H1996 C1982 0.961 . S
H1997 C1983 0.958 . S
H1998 C1983 0.961 . S
H1999 C1983 0.960 . S
C2000 C2001 1.391 . S
C2000 C2002 1.394 . S
C2000 H2016 0.931 . S
C2001 C2000 1.391 . S
C2001 C2005 1.376 . S
C2002 C2000 1.394 . S
C2002 C2003 1.369 . S
C2002 C2006 1.531 . S
C2003 C2002 1.369 . S
C2003 C2004 1.410 . S
C2003 C2011 1.503 . S
C2004 C2003 1.410 . S
C2004 C2005 1.392 . S
C2004 C2007 1.511 . S
C2005 C2001 1.376 . S
C2005 C2004 1.392 . S
C2005 H2017 0.929 . S
C2006 C2002 1.531 . S
C2006 H2018 0.960 . S
C2006 H2019 0.962 . S
C2006 H2020 0.960 . S
C2007 C2004 1.511 . S
C2007 H2021 0.961 . S
C2007 H2022 0.961 . S
C2007 H2023 0.961 . S
C2008 C2009 1.370 . S
C2008 C2010 1.363 . S
C2008 H2024 0.931 . S
C2009 C2008 1.370 . S
C2009 C2013 1.408 . S
C2010 C2008 1.363 . S
C2010 C2011 1.370 . S
C2010 C2014 1.524 . S
C2011 C2003 1.503 . S
C2011 C2010 1.370 . S
C2011 C2012 1.403 . S
C2012 C2011 1.403 . S
C2012 C2013 1.404 . S
C2012 C2015 1.539 . S
C2013 C2009 1.408 . S
C2013 C2012 1.404 . S
C2013 H2025 0.930 . S
C2014 C2010 1.524 . S
C2014 H2026 0.956 . S
C2014 H2027 0.961 . S
C2014 H2028 0.961 . S
C2015 C2012 1.539 . S
C2015 H2029 0.958 . S
C2015 H2030 0.961 . S
C2015 H2031 0.960 . S
H2016 C2000 0.931 . S
H2017 C2005 0.929 . S
H2018 C2006 0.960 . S
H2019 C2006 0.962 . S
H2020 C2006 0.960 . S
H2021 C2007 0.961 . S
H2022 C2007 0.961 . S
H2023 C2007 0.961 . S
H2024 C2008 0.931 . S
H2025 C2013 0.930 . S
H2026 C2014 0.956 . S
H2027 C2014 0.961 . S
H2028 C2014 0.961 . S
H2029 C2015 0.958 . S
H2030 C2015 0.961 . S
H2031 C2015 0.960 . S
C2032 C2033 1.391 . S
C2032 C2034 1.394 . S
C2032 H2048 0.931 . S
C2033 C2032 1.391 . S
C2033 C2037 1.376 . S
C2034 C2032 1.394 . S
C2034 C2035 1.369 . S
C2034 C2038 1.531 . S
C2035 C2034 1.369 . S
C2035 C2036 1.410 . S
C2035 C2043 1.503 . S
C2036 C2035 1.410 . S
C2036 C2037 1.392 . S
C2036 C2039 1.511 . S
C2037 C2033 1.376 . S
C2037 C2036 1.392 . S
C2037 H2049 0.929 . S
C2038 C2034 1.531 . S
C2038 H2050 0.960 . S
C2038 H2051 0.962 . S
C2038 H2052 0.960 . S
C2039 C2036 1.511 . S
C2039 H2053 0.961 . S
C2039 H2054 0.961 . S
C2039 H2055 0.961 . S
C2040 C2041 1.370 . S
C2040 C2042 1.363 . S
C2040 H2056 0.931 . S
C2041 C2040 1.370 . S
C2041 C2045 1.408 . S
C2042 C2040 1.363 . S
C2042 C2043 1.370 . S
C2042 C2046 1.524 . S
C2043 C2035 1.503 . S
C2043 C2042 1.370 . S
C2043 C2044 1.403 . S
C2044 C2043 1.403 . S
C2044 C2045 1.404 . S
C2044 C2047 1.539 . S
C2045 C2041 1.408 . S
C2045 C2044 1.404 . S
C2045 H2057 0.930 . S
C2046 C2042 1.524 . S
C2046 H2058 0.956 . S
C2046 H2059 0.961 . S
C2046 H2060 0.961 . S
C2047 C2044 1.539 . S
C2047 H2061 0.958 . S
C2047 H2062 0.961 . S
C2047 H2063 0.960 . S
H2048 C2032 0.931 . S
H2049 C2037 0.929 . S
H2050 C2038 0.960 . S
H2051 C2038 0.962 . S
H2052 C2038 0.960 . S
H2053 C2039 0.961 . S
H2054 C2039 0.961 . S
H2055 C2039 0.961 . S
H2056 C2040 0.931 . S
H2057 C2045 0.930 . S
H2058 C2046 0.956 . S
H2059 C2046 0.961 . S
H2060 C2046 0.961 . S
H2061 C2047 0.958 . S
H2062 C2047 0.961 . S
H2063 C2047 0.960 . S
C2064 C2065 1.391 . S
C2064 C2066 1.394 . S
C2064 H2080 0.931 . S
C2065 C2064 1.391 . S
C2065 C2069 1.376 . S
C2066 C2064 1.394 . S
C2066 C2067 1.369 . S
C2066 C2070 1.531 . S
C2067 C2066 1.369 . S
C2067 C2068 1.410 . S
C2067 C2075 1.503 . S
C2068 C2067 1.410 . S
C2068 C2069 1.392 . S
C2068 C2071 1.511 . S
C2069 C2065 1.376 . S
C2069 C2068 1.392 . S
C2069 H2081 0.929 . S
C2070 C2066 1.531 . S
C2070 H2082 0.960 . S
C2070 H2083 0.962 . S
C2070 H2084 0.960 . S
C2071 C2068 1.511 . S
C2071 H2085 0.961 . S
C2071 H2086 0.961 . S
C2071 H2087 0.961 . S
C2072 C2073 1.370 . S
C2072 C2074 1.363 . S
C2072 H2088 0.931 . S
C2073 C2072 1.370 . S
C2073 C2077 1.408 . S
C2074 C2072 1.363 . S
C2074 C2075 1.370 . S
C2074 C2078 1.524 . S
C2075 C2067 1.503 . S
C2075 C2074 1.370 . S
C2075 C2076 1.403 . S
C2076 C2075 1.403 . S
C2076 C2077 1.404 . S
C2076 C2079 1.539 . S
C2077 C2073 1.408 . S
C2077 C2076 1.404 . S
C2077 H2089 0.930 . S
C2078 C2074 1.524 . S
C2078 H2090 0.956 . S
C2078 H2091 0.961 . S
C2078 H2092 0.961 . S
C2079 C2076 1.539 . S
C2079 H2093 0.958 . S
C2079 H2094 0.961 . S
C2079 H2095 0.960 . S
H2080 C2064 0.931 . S
H2081 C2069 0.929 . S
H2082 C2070 0.960 . S
H2083 C2070 0.962 . S
H2084 C2070 0.960 . S
H2085 C2071 0.961 . S
H2086 C2071 0.961 . S
H2087 C2071 0.961 . S
H2088 C2072 0.931 . S
H2089 C2077 0.930 . S
H2090 C2078 0.956 . S
H2091 C2078 0.961 . S
H2092 C2078 0.961 . S
H2093 C2079 0.958 . S
H2094 C2079 0.961 . S
H2095 C2079 0.960 . S
C2096 C2097 1.391 . S
C2096 C2098 1.394 . S
C2096 H2112 0.931 . S
C2097 C2096 1.391 . S
C2097 C2101 1.376 . S
C2098 C2096 1.394 . S
C2098 C2099 1.369 . S
C2098 C2102 1.531 . S
C2099 C2098 1.369 . S
C2099 C2100 1.410 . S
C2099 C2107 1.503 . S
C2100 C2099 1.410 . S
C2100 C2101 1.392 . S
C2100 C2103 1.511 . S
C2101 C2097 1.376 . S
C2101 C2100 1.392 . S
C2101 H2113 0.929 . S
C2102 C2098 1.531 . S
C2102 H2114 0.960 . S
C2102 H2115 0.962 . S
C2102 H2116 0.960 . S
C2103 C2100 1.511 . S
C2103 H2117 0.961 . S
C2103 H2118 0.961 . S
C2103 H2119 0.961 . S
C2104 C2105 1.370 . S
C2104 C2106 1.363 . S
C2104 H2120 0.931 . S
C2105 C2104 1.370 . S
C2105 C2109 1.408 . S
C2106 C2104 1.363 . S
C2106 C2107 1.370 . S
C2106 C2110 1.524 . S
C2107 C2099 1.503 . S
C2107 C2106 1.370 . S
C2107 C2108 1.403 . S
C2108 C2107 1.403 . S
C2108 C2109 1.404 . S
C2108 C2111 1.539 . S
C2109 C2105 1.408 . S
C2109 C2108 1.404 . S
C2109 H2121 0.930 . S
C2110 C2106 1.524 . S
C2110 H2122 0.956 . S
C2110 H2123 0.961 . S
C2110 H2124 0.961 . S
C2111 C2108 1.539 . S
C2111 H2125 0.958 . S
C2111 H2126 0.961 . S
C2111 H2127 0.960 . S
H2112 C2096 0.931 . S
H2113 C2101 0.929 . S
H2114 C2102 0.960 . S
H2115 C2102 0.962 . S
H2116 C2102 0.960 . S
H2117 C2103 0.961 . S
H2118 C2103 0.961 . S
H2119 C2103 0.961 . S
H2120 C2104 0.931 . S
H2121 C2109 0.930 . S
H2122 C2110 0.956 . S
H2123 C2110 0.961 . S
H2124 C2110 0.961 . S
H2125 C2111 0.958 . S
H2126 C2111 0.961 . S
H2127 C2111 0.960 . S
C2128 C2129 1.391 . S
C2128 C2130 1.394 . S
C2128 H2144 0.931 . S
C2129 C2128 1.391 . S
C2129 C2133 1.376 . S
C2130 C2128 1.394 . S
C2130 C2131 1.369 . S
C2130 C2134 1.531 . S
C2131 C2130 1.369 . S
C2131 C2132 1.410 . S
C2131 C2139 1.503 . S
C2132 C2131 1.410 . S
C2132 C2133 1.392 . S
C2132 C2135 1.511 . S
C2133 C2129 1.376 . S
C2133 C2132 1.392 . S
C2133 H2145 0.929 . S
C2134 C2130 1.531 . S
C2134 H2146 0.960 . S
C2134 H2147 0.962 . S
C2134 H2148 0.960 . S
C2135 C2132 1.511 . S
C2135 H2149 0.961 . S
C2135 H2150 0.961 . S
C2135 H2151 0.961 . S
C2136 C2137 1.370 . S
C2136 C2138 1.363 . S
C2136 H2152 0.931 . S
C2137 C2136 1.370 . S
C2137 C2141 1.408 . S
C2138 C2136 1.363 . S
C2138 C2139 1.370 . S
C2138 C2142 1.524 . S
C2139 C2131 1.503 . S
C2139 C2138 1.370 . S
C2139 C2140 1.403 . S
C2140 C2139 1.403 . S
C2140 C2141 1.404 . S
C2140 C2143 1.539 . S
C2141 C2137 1.408 . S
C2141 C2140 1.404 . S
C2141 H2153 0.930 . S
C2142 C2138 1.524 . S
C2142 H2154 0.956 . S
C2142 H2155 0.961 . S
C2142 H2156 0.961 . S
C2143 C2140 1.539 . S
C2143 H2157 0.958 . S
C2143 H2158 0.961 . S
C2143 H2159 0.960 . S
H2144 C2128 0.931 . S
H2145 C2133 0.929 . S
H2146 C2134 0.960 . S
H2147 C2134 0.962 . S
H2148 C2134 0.960 . S
H2149 C2135 0.961 . S
H2150 C2135 0.961 . S
H2151 C2135 0.961 . S
H2152 C2136 0.931 . S
H2153 C2141 0.930 . S
H2154 C2142 0.956 . S
H2155 C2142 0.961 . S
H2156 C2142 0.961 . S
H2157 C2143 0.958 . S
H2158 C2143 0.961 . S
H2159 C2143 0.960 . S
C1009 C476 1.401 . S
C1017 C70 1.218 . S
C1041 C154 1.161 . S
C1049 C56 1.363 . S
C1073 C238 1.351 . S
C1081 C140 1.414 . S
C1105 C224 1.364 . S
C1113 C322 1.240 . S
C1137 C308 1.394 . S
C1145 C406 1.196 . S
C1169 C490 1.361 . S
C1177 C392 1.412 . S
C1201 C644 1.297 . S
C1209 C574 1.272 . S
C1233 C658 1.362 . S
C1241 C728 1.411 . S
C1265 C812 1.361 . S
C1273 C742 1.214 . S
C1297 C896 1.403 . S
C1305 C826 1.217 . S
C1329 C980 1.373 . S
C1337 C910 1.339 . S
C1361 C560 1.348 . S
C1369 C994 1.220 . S
C1393 C987 3.464 . S
C1401 C67 3.458 . S
C1425 C151 2.841 . S
C1433 C567 2.864 . S
C1457 C651 3.161 . S
C1465 C235 3.155 . S
C1489 C735 3.465 . S
C1497 C319 3.459 . S
C1521 C819 2.853 . S
C1529 C403 2.855 . S
C1553 C487 3.145 . S
C1561 C903 3.170 . S
C1585 C571 3.444 . S
C1593 C147 3.472 . S
C1617 C655 3.149 . S
C1625 C231 3.167 . S
C1649 C315 2.864 . S
C1657 C739 2.848 . S
C1681 C399 3.463 . S
C1689 C823 3.468 . S
C1713 C907 3.142 . S
C1721 C483 3.170 . S
C1745 C991 2.843 . S
C1753 C63 2.863 . S
C1777 C578 2.700 . S
C1785 C74 2.694 . S
C1809 C158 1.796 . S
C1817 C662 1.855 . S
C1841 C746 1.833 . S
C1849 C242 1.873 . S
C1873 C326 2.669 . S
C1881 C830 2.697 . S
C1905 C914 1.841 . S
C1913 C410 1.823 . S
C1937 C998 1.817 . S
C1945 C494 1.847 . S
C1969 C562 0.670 . S
C1977 C58 0.702 . S
C2001 C646 0.584 . S
C2009 C142 0.487 . S
C2033 C730 0.368 . S
C2041 C226 0.432 . S
C2065 C310 0.779 . S
C2073 C814 0.726 . S
C2097 C898 0.592 . S
C2105 C394 0.493 . S
C2129 C982 0.543 . S
C2137 C478 0.520 . S
