# Generated by pormake.
# Topology ilc, (8)-cn, num edge types: 1
# Building blocks:
#     Node 0, Type 0, BuildingBlock: LIZSOE_clean_sbu_0, # of connection points: 8
#     Node 1, Type 0, BuildingBlock: LIZSOE_clean_sbu_0, # of connection points: 8
#     Node 2, Type 0, BuildingBlock: LIZSOE_clean_sbu_0, # of connection points: 8
#     Edge 3, Type (0, 0), BuildingBlock: ZUJKAS_clean_linker_0, # of connection points: 2
#     Edge 4, Type (0, 0), BuildingBlock: ZUJKAS_clean_linker_0, # of connection points: 2
#     Edge 5, Type (0, 0), BuildingBlock: ZUJKAS_clean_linker_0, # of connection points: 2
#     Edge 6, Type (0, 0), BuildingBlock: ZUJKAS_clean_linker_0, # of connection points: 2
#     Edge 7, Type (0, 0), BuildingBlock: ZUJKAS_clean_linker_0, # of connection points: 2
#     Edge 8, Type (0, 0), BuildingBlock: ZUJKAS_clean_linker_0, # of connection points: 2
#     Edge 9, Type (0, 0), BuildingBlock: ZUJKAS_clean_linker_0, # of connection points: 2
#     Edge 10, Type (0, 0), BuildingBlock: ZUJKAS_clean_linker_0, # of connection points: 2
#     Edge 11, Type (0, 0), BuildingBlock: ZUJKAS_clean_linker_0, # of connection points: 2
#     Edge 12, Type (0, 0), BuildingBlock: ZUJKAS_clean_linker_0, # of connection points: 2
#     Edge 13, Type (0, 0), BuildingBlock: ZUJKAS_clean_linker_0, # of connection points: 2
#     Edge 14, Type (0, 0), BuildingBlock: ZUJKAS_clean_linker_0, # of connection points: 2
# Relax obj value: 0.292
# Max RMSD: 0.156
# Mean RMSD: 0.156
data_MOF--net-ilc--node1-LIZSOE_clean_sbu_0--edge1-ZUJKAS_clean_linker_0
_symmetry_space_group_name_H-M    P1
_symmetry_Int_Tables_number       1
_symmetry_cell_setting            triclinic
loop_
_symmetry_equiv_pos_as_xyz
'x, y, z'
_cell_length_a     25.975142
_cell_length_b     26.194104
_cell_length_c     20.005862
_cell_angle_alpha  89.901436
_cell_angle_beta   91.228919
_cell_angle_gamma 120.17352
loop_
_atom_site_label
_atom_site_type_symbol
_atom_site_fract_x
_atom_site_fract_y
_atom_site_fract_z
_atom_type_partial_charge
Co0 Co 0.08352 0.09424 0.93724 0.0
N1 N 1.03385 0.07198 0.85933 0.0
C2 C 0.9851 0.07749 0.85131 0.0
N3 N 1.02005 0.08408 0.75042 0.0
C4 C 1.05102 0.07146 0.796 0.0
C5 C 0.97802 0.08736 0.78491 0.0
Co6 Co 0.98754 0.999 0.19402 0.0
N7 N 0.98079 0.97031 0.28178 0.0
N8 N 1.01306 0.94791 0.37676 0.0
C9 C 0.99328 0.98529 0.39126 0.0
C10 C 0.974 0.99902 0.33344 0.0
C11 C 0.99939 0.93564 0.3108 0.0
Co12 Co 0.06053 0.06997 1.06099 0.0
C13 C 0.94368 0.97817 0.14712 0.0
H14 H 0.96382 1.03403 0.32855 0.0
O15 O 0.13942 0.12086 1.00704 0.0
O16 O 0.10297 1.02717 0.09253 0.0
O17 O 1.01643 1.00449 0.98924 0.0
O18 O 1.01932 0.11573 1.02913 0.0
O19 O 0.07616 0.16099 0.94528 0.0
O20 O 1.05407 0.98805 0.18431 0.0
O21 O 0.98595 1.02389 0.11443 0.0
O22 O 1.04018 0.0766 0.22509 0.0
O23 O 0.09208 1.02752 0.92824 0.0
O24 O 0.14474 0.13488 0.89418 0.0
O25 O 0.09847 0.12906 0.13977 0.0
O26 O 0.94257 0.92822 0.15516 0.0
C27 C 1.04188 0.98855 0.94689 0.0
C28 C 0.9977 0.88423 0.27654 0.0
H29 H 1.04098 0.89848 0.25455 0.0
H30 H 0.98891 0.84907 0.31322 0.0
H31 H 0.963 0.86624 0.23628 0.0
C32 C 0.09561 0.99787 0.1455 0.0
C33 C 1.03746 0.15636 0.98521 0.0
H34 H 0.96018 0.08077 0.89168 0.0
H35 H 0.14352 0.10954 0.7741 0.0
H36 H 0.09526 0.0435 0.7277 0.0
H37 H 0.11254 1.03866 0.81353 0.0
C38 C 0.10347 0.06517 0.77747 0.0
C39 C 0.17039 0.14346 0.95166 0.0
C40 C 0.08291 0.12428 0.20183 0.0
H41 H 0.94862 0.10201 0.76487 0.0
H42 H 1.0025 1.00979 0.43782 0.0
Co43 Co 0.80336 0.39973 0.26062 0.0
N44 N 0.80512 0.3694 0.17603 0.0
C45 C 0.8096 0.39835 0.11898 0.0
N46 N 0.79036 0.309 0.0886 0.0
C47 C 0.796 0.31586 0.15593 0.0
C48 C 0.80033 0.36165 0.06569 0.0
Co49 Co 0.71338 0.40559 0.51636 0.0
N50 N 0.76338 0.42911 0.59318 0.0
N51 N 0.78688 0.44989 0.702 0.0
C52 C 0.83165 0.49176 0.66694 0.0
C53 C 0.8176 0.47826 0.59992 0.0
C54 C 0.74755 0.41114 0.65664 0.0
Co55 Co 0.7362 0.40555 0.39363 0.0
C56 C 0.62711 0.37296 0.50268 0.0
H57 H 0.84337 0.50506 0.55893 0.0
O58 O 0.80963 0.43109 0.33866 0.0
O59 O 0.77822 0.38119 0.465 0.0
O60 O 0.68943 0.31983 0.36398 0.0
O61 O 0.70156 0.43024 0.31449 0.0
O62 O 0.75824 0.4343 0.22713 0.0
O63 O 0.70063 0.3282 0.52271 0.0
O64 O 0.65771 0.38116 0.4471 0.0
O65 O 0.72512 0.48135 0.51139 0.0
O66 O 0.73138 0.32945 0.26837 0.0
O67 O 0.83943 0.36563 0.30406 0.0
O68 O 0.78067 0.49249 0.42613 0.0
O69 O 0.65281 0.38674 0.56042 0.0
C70 C 0.6907 0.29885 0.30764 0.0
C71 C 0.69171 0.35558 0.67621 0.0
H72 H 0.67471 0.3211 0.63691 0.0
H73 H 0.70085 0.33708 0.72183 0.0
H74 H 0.65639 0.366 0.68774 0.0
C75 C 0.75112 0.33877 0.50578 0.0
C76 C 0.71767 0.44243 0.25253 0.0
H77 H 0.81573 0.44226 0.11633 0.0
H78 H 0.84188 0.29114 0.22743 0.0
H79 H 0.79068 0.23158 0.174 0.0
H80 H 0.76353 0.25743 0.24059 0.0
C81 C 0.79757 0.27118 0.20192 0.0
C82 C 0.84609 0.41828 0.30609 0.0
C83 C 0.76415 0.5152 0.47167 0.0
H84 H 0.79469 0.371 1.01419 0.0
H85 H 0.86961 0.53086 0.68804 0.0
Co86 Co 0.4076 0.74215 0.59955 0.0
N87 N 0.34835 0.69923 0.53434 0.0
C88 C 0.2908 0.67979 0.54732 0.0
N89 N 0.29014 0.63944 0.45082 0.0
C90 C 0.34688 0.6737 0.47497 0.0
C91 C 0.25528 0.64413 0.49624 0.0
Co92 Co 0.33761 0.66489 0.85767 0.0
N93 N 0.34265 0.63114 0.9382 0.0
N94 N 0.35258 0.57441 1.01552 0.0
C95 C 0.35064 0.6189 1.04681 0.0
C96 C 0.34425 0.6534 0.99931 0.0
C97 C 0.34733 0.58233 0.94965 0.0
Co98 Co 0.39656 0.73629 0.72308 0.0
C99 C 0.29144 0.64156 0.8158 0.0
H100 H 0.3405 0.692 1.00871 0.0
O101 O 0.4686 0.78828 0.65936 0.0
O102 O 0.45284 0.70789 0.7534 0.0
O103 O 0.35377 0.66078 0.66473 0.0
O104 O 0.34478 0.77086 0.68765 0.0
O105 O 0.3888 0.80116 0.59226 0.0
O106 O 0.4068 0.666 0.84289 0.0
O107 O 0.32742 0.69139 0.78422 0.0
O108 O 0.38565 0.74452 0.88997 0.0
O109 O 0.42792 0.68152 0.60344 0.0
O110 O 0.46153 0.77866 0.54518 0.0
O111 O 0.43147 0.80025 0.7981 0.0
O112 O 0.29704 0.59502 0.8135 0.0
C113 C 0.38127 0.64212 0.62929 0.0
C114 C 0.34663 0.54116 0.89641 0.0
H115 H 0.36652 0.56316 0.84926 0.0
H116 H 0.37119 0.51893 0.91386 0.0
H117 H 0.29977 0.50698 0.88474 0.0
C118 C 0.44951 0.68034 0.80606 0.0
C119 C 0.35454 0.80194 0.63472 0.0
H120 H 0.27526 0.68631 0.59428 0.0
H121 H 0.39121 0.63332 0.42574 0.0
H122 H 0.43918 0.69343 0.4797 0.0
H123 H 0.41458 0.70783 0.40133 0.0
C124 C 0.40099 0.67722 0.44423 0.0
C125 C 0.49217 0.80329 0.59904 0.0
C126 C 0.42068 0.7947 0.86235 0.0
H127 H 0.20706 0.61926 0.49552 0.0
H128 H 0.352 0.625 0.10048 0.0
H129 H 1.00463 1.03778 0.62737 0.0
H130 H 0.08593 0.07488 0.54863 0.0
H131 H 0.18321 0.23561 0.66444 0.0
H132 H 0.10041 0.19908 0.74192 0.0
H133 H 0.18274 0.2016 0.4806 0.0
H134 H 0.2778 0.14108 0.68679 0.0
H135 H 0.20045 0.0872 0.68992 0.0
H136 H 0.22469 0.16458 0.70212 0.0
C137 C 1.04138 0.08264 0.63311 0.0
C138 C 1.04689 0.11538 0.6906 0.0
C139 C 0.0885 0.10347 0.58913 0.0
C140 C 0.14169 0.1568 0.60288 0.0
C141 C 0.14324 0.19384 0.65404 0.0
H142 H 0.11699 0.98347 0.31498 0.0
H143 H 0.21389 0.04559 0.3676 0.0
C144 C 0.09544 0.17341 0.69735 0.0
C145 C 0.19645 0.16564 0.5714 0.0
H146 H 0.25136 0.07247 0.58025 0.0
C147 C 0.20053 0.17568 0.50262 0.0
C148 C 0.22598 0.13738 0.59981 0.0
C149 C 0.23239 0.13282 0.67404 0.0
C150 C 0.21715 0.14354 0.46123 0.0
C151 C 0.22312 0.09714 0.49015 0.0
C152 C 0.24018 0.10353 0.55791 0.0
C153 C 0.17998 1.03587 0.46653 0.0
C154 C 0.21797 0.15283 0.38694 0.0
C155 C 0.13058 1.00021 0.50664 0.0
C156 C 0.07507 0.96164 0.47694 0.0
C157 C 0.06844 0.95841 0.40713 0.0
C158 C 0.12026 0.98473 0.36882 0.0
C159 C 0.17594 1.02141 0.3988 0.0
H160 H 0.23072 0.19912 0.37586 0.0
H161 H 0.25065 0.14364 0.36309 0.0
H162 H 0.17293 0.12356 0.36464 0.0
H163 H 0.13213 1.00841 0.55989 0.0
H164 H 1.03609 0.94155 0.50781 0.0
H165 H 0.71071 0.48295 0.743 0.0
H166 H 0.63825 0.42414 0.82746 0.0
H167 H 0.75545 0.36282 0.89833 0.0
H168 H 0.8252 0.41793 0.81075 0.0
H169 H 0.62139 0.2896 0.79782 0.0
H170 H 0.62882 0.36333 1.05756 0.0
H171 H 0.64353 0.41099 0.98602 0.0
H172 H 0.70097 0.3987 1.02034 0.0
C173 C 0.72281 0.46041 0.7801 0.0
C174 C 0.77219 0.45307 0.76972 0.0
C175 C 0.68104 0.42635 0.82776 0.0
C176 C 0.69119 0.38848 0.86794 0.0
C177 C 0.74707 0.39205 0.8675 0.0
H178 H 0.80249 0.28374 0.96069 0.0
H179 H 0.71502 0.236 0.88849 0.0
C180 C 0.78748 0.42412 0.81803 0.0
C181 C 0.64109 0.33385 0.89369 0.0
H182 H 0.62065 0.26706 1.04286 0.0
C183 C 0.61886 0.28396 0.85152 0.0
C184 C 0.63369 0.32588 0.96288 0.0
C185 C 0.65238 0.3776 1.00945 0.0
C186 C 0.60579 0.22922 0.87781 0.0
C187 C 0.61554 0.22599 0.94682 0.0
C188 C 0.61799 0.27048 0.98902 0.0
C189 C 0.65268 0.20053 0.96971 0.0
C190 C 0.59338 0.17926 0.8309 0.0
C191 C 0.6481 0.1838 1.0367 0.0
C192 C 0.69846 0.21268 0.0788 0.0
C193 C 0.75345 0.25468 1.05209 0.0
C194 C 0.7601 0.2538 0.98275 0.0
C195 C 0.70939 0.22555 0.94117 0.0
H196 H 0.55832 0.17279 0.79355 0.0
H197 H 0.63415 0.19057 0.80289 0.0
H198 H 0.57887 0.13737 0.85816 0.0
H199 H 0.6047 0.16196 1.05877 0.0
H200 H 0.69161 0.2105 0.13202 0.0
H201 H 0.4248 0.58281 0.11758 0.0
H202 H 0.40458 0.50577 0.19582 0.0
H203 H 0.26828 0.37758 1.06125 0.0
H204 H 0.28407 0.45683 0.98694 0.0
H205 H 0.20838 0.37407 0.14603 0.0
H206 H 0.36741 0.38016 0.31558 0.0
H207 H 0.41364 0.45539 0.29243 0.0
H208 H 0.39043 0.39712 0.22994 0.0
C209 C 0.39146 0.53787 0.10427 0.0
C210 C 0.3544 0.52638 1.04798 0.0
C211 C 0.38035 0.49269 0.14856 0.0
C212 C 0.33096 0.43542 0.13749 0.0
C213 C 0.30415 0.42179 0.07324 0.0
H214 H 0.19718 0.52799 0.46163 0.0
H215 H 0.17666 0.44439 0.38993 0.0
C216 C 0.31345 0.46744 1.03016 0.0
C217 C 0.29397 0.4036 0.19613 0.0
H218 H 0.32811 0.45975 0.35358 0.0
C219 C 0.23423 0.39088 0.19211 0.0
C220 C 0.32154 0.41593 0.26029 0.0
C221 C 0.37657 0.412 0.27455 0.0
C222 C 0.21309 0.41396 0.24047 0.0
C223 C 0.25103 0.44514 0.29492 0.0
C224 C 0.30125 0.43971 0.30869 0.0
C225 C 0.24965 0.49538 0.32515 0.0
C226 C 0.15523 0.41306 0.22812 0.0
C227 C 0.29133 0.55258 0.30493 0.0
C228 C 0.29993 0.6013 0.34201 0.0
C229 C 0.2695 0.59284 0.40175 0.0
C230 C 0.22278 0.53595 0.41693 0.0
C231 C 0.21203 0.48771 0.37751 0.0
H232 H 0.12671 0.37937 0.18986 0.0
H233 H 0.13034 0.40377 0.27522 0.0
H234 H 0.16476 0.4571 0.21038 0.0
H235 H 0.31921 0.55928 0.26246 0.0
H236 H 0.33353 0.64502 0.32692 0.0
H237 H 0.23626 0.74547 0.59707 0.0
H238 H 0.19982 0.77745 0.50245 0.0
H239 H 0.35215 0.95306 0.52345 0.0
H240 H 0.39326 0.91776 0.61106 0.0
H241 H 0.1631 0.83764 0.46374 0.0
H242 H 0.37859 0.94139 0.33784 0.0
H243 H 0.36758 0.90233 0.41501 0.0
H244 H 0.38653 0.9789 0.41526 0.0
C245 C 0.26191 0.79105 0.58208 0.0
C246 C 0.3186 0.8284 0.61088 0.0
C247 C 0.24095 0.80966 0.52726 0.0
C248 C 0.27469 0.86731 0.50177 0.0
C249 C 0.32677 0.90728 0.53794 0.0
H250 H 0.20618 0.06473 0.20285 0.0
H251 H 0.25671 1.02801 0.27667 0.0
C252 C 0.34926 0.88768 0.59036 0.0
C253 C 0.2555 0.88457 0.43758 0.0
H254 H 0.30541 0.96154 0.29131 0.0
C255 C 0.19458 0.86405 0.42595 0.0
C256 C 0.29553 0.91823 0.38624 0.0
C257 C 0.36049 0.93578 0.38887 0.0
C258 C 0.17282 0.87654 0.36672 0.0
C259 C 0.2132 0.91377 0.31763 0.0
C260 C 0.27415 0.93408 0.3288 0.0
C261 C 0.19373 0.93547 0.25747 0.0
C262 C 0.10627 0.8487 0.35841 0.0
C263 C 0.14696 0.89652 0.21396 0.0
C264 C 0.11963 0.91783 0.16924 0.0
C265 C 0.13818 0.97836 0.16751 0.0
C266 C 0.1904 1.01778 0.20341 0.0
C267 C 0.21864 0.99654 0.24679 0.0
H268 H 0.08393 0.83879 0.40736 0.0
H269 H 0.09406 0.87722 0.33036 0.0
H270 H 0.0886 0.80646 0.33029 0.0
H271 H 0.12855 0.84931 0.21802 0.0
H272 H 0.07988 0.88636 0.14157 0.0
H273 H 0.27338 0.54377 0.66139 0.0
H274 H 0.22448 0.44584 0.6075 0.0
H275 H 0.37173 0.50572 0.47392 0.0
H276 H 0.42299 0.59969 0.5324 0.0
H277 H 0.17784 0.40654 0.50104 0.0
H278 H 0.35551 0.35318 0.49771 0.0
H279 H 0.36389 0.4152 0.54549 0.0
H280 H 0.38496 0.42351 0.4587 0.0
C281 C 0.29598 0.53533 0.62177 0.0
C282 C 0.35223 0.58025 0.60136 0.0
C283 C 0.26775 0.47916 0.59035 0.0
C284 C 0.29437 0.46654 0.53671 0.0
C285 C 0.35053 0.51184 0.51664 0.0
H286 H 0.19255 0.22844 0.19346 0.0
H287 H 0.24263 0.30461 0.28074 0.0
C288 C 0.37958 0.56678 0.54959 0.0
C289 C 0.26177 0.40891 0.49756 0.0
H290 H 0.28316 0.31131 0.40454 0.0
C291 C 0.20111 0.38563 0.48076 0.0
C292 C 0.29039 0.37902 0.47208 0.0
C293 C 0.35202 0.39374 0.49534 0.0
C294 C 0.17074 0.33899 0.43394 0.0
C295 C 0.20105 0.31273 0.40395 0.0
C296 C 0.26023 0.33257 0.42489 0.0
C297 C 0.17188 0.26447 0.35165 0.0
C298 C 0.10722 0.32082 0.41443 0.0
C299 C 0.11695 0.21372 0.36341 0.0
C300 C 0.08852 0.16989 0.31417 0.0
C301 C 0.11434 0.17418 0.25141 0.0
C302 C 0.17035 0.224 0.24012 0.0
C303 C 0.19897 0.26804 0.29006 0.0
H304 H 0.09589 0.35505 0.42794 0.0
H305 H 0.09897 0.31176 0.35989 0.0
H306 H 0.07636 0.28027 0.44169 0.0
H307 H 0.09605 0.20726 0.41128 0.0
H308 H 1.0459 0.1322 0.32599 0.0
H309 H 0.60056 0.81466 0.63671 0.0
H310 H 0.69184 0.86994 0.57265 0.0
H311 H 0.60609 0.94588 0.4551 0.0
H312 H 0.51976 0.89731 0.52392 0.0
H313 H 0.70845 0.85253 0.46194 0.0
H314 H 0.75924 0.08034 0.4369 0.0
H315 H 0.70838 1.03331 0.49909 0.0
H316 H 0.68186 1.03665 0.41555 0.0
C317 C 0.6033 0.84675 0.60059 0.0
C318 C 0.55325 0.85241 0.58637 0.0
C319 C 0.65507 0.87741 0.56239 0.0
C320 C 0.65716 0.91291 0.50781 0.0
C321 C 0.60829 0.92144 0.49757 0.0
H322 H 0.82769 0.88812 0.15319 0.0
H323 H 0.75721 0.87861 0.23755 0.0
C324 C 0.55811 0.89308 0.53732 0.0
C325 C 0.70467 0.93288 0.45565 0.0
H326 H 0.77544 1.03723 0.33522 0.0
C327 C 0.72386 0.89375 0.4357 0.0
C328 C 0.72756 0.98737 0.42113 0.0
C329 C 0.71863 1.03689 0.44513 0.0
C330 C 0.76193 0.90584 0.38149 0.0
C331 C 0.77761 0.95617 0.34123 0.0
C332 C 0.76149 0.9971 0.36329 0.0
C333 C 0.81189 0.96723 0.27776 0.0
C334 C 0.78621 0.86497 0.3699 0.0
C335 C 0.86138 1.02299 0.2639 0.0
C336 C 0.89997 1.02963 0.2119 0.0
C337 C 0.89108 0.98015 0.17473 0.0
C338 C 0.83702 0.92686 0.18218 0.0
C339 C 0.79732 0.92094 0.23195 0.0
H340 H 0.78939 0.84456 0.41741 0.0
H341 H 0.75549 0.8285 0.33568 0.0
H342 H 0.8312 0.88857 0.34809 0.0
H343 H 0.87315 0.06044 0.29646 0.0
H344 H 0.94028 0.0718 0.20657 0.0
H345 H 0.87108 0.39251 0.53932 0.0
H346 H 0.91721 0.36435 0.63004 0.0
H347 H 0.74698 0.21115 0.66932 0.0
H348 H 0.70117 0.23849 0.57897 0.0
H349 H 0.88685 0.35036 0.76776 0.0
H350 H 0.85624 0.14123 0.66116 0.0
H351 H 0.84999 0.19518 0.61078 0.0
H352 H 0.78927 0.14525 0.66184 0.0
C353 C 0.84394 0.3519 0.56596 0.0
C354 C 0.78254 0.31732 0.55106 0.0
C355 C 0.87017 0.33621 0.61845 0.0
C356 C 0.83577 0.28524 0.65646 0.0
C357 C 0.77487 0.25002 0.64031 0.0
H358 H 0.91684 0.11551 0.98963 0.0
H359 H 0.86278 0.15014 0.91778 0.0
C360 C 0.7487 0.26575 0.58837 0.0
C361 C 0.86252 0.26967 0.71451 0.0
H362 H 0.88657 0.16092 0.77529 0.0
C363 C 0.88705 0.30906 0.76919 0.0
C364 C 0.8622 0.21543 0.71716 0.0
C365 C 0.83852 0.17199 0.65942 0.0
C366 C 0.91102 0.29565 0.82608 0.0
C367 C 0.91115 0.24167 0.82834 0.0
C368 C 0.88598 0.20203 0.77407 0.0
C369 C 0.94196 0.22752 0.88319 0.0
C370 C 0.93557 0.33908 0.8837 0.0
C371 C 1.00422 0.2607 0.89018 0.0
C372 C 1.03504 0.24084 0.9308 0.0
C373 C 1.00447 0.18732 0.96577 0.0
C374 C 0.94178 0.15725 0.96426 0.0
C375 C 0.91084 0.17664 0.92238 0.0
H376 H 0.91828 0.37021 0.8824 0.0
H377 H 0.92426 0.31574 0.93228 0.0
H378 H 0.98483 0.36525 0.88088 0.0
H379 H 1.02944 0.2997 0.86024 0.0
H380 H 0.08329 0.26494 0.93047 0.0
H381 H 0.88565 0.59161 0.47712 0.0
H382 H 0.93704 0.6796 0.55009 0.0
H383 H 0.76925 0.66823 0.58967 0.0
H384 H 0.71793 0.58031 0.51813 0.0
H385 H 0.87599 0.79143 0.57899 0.0
H386 H 0.90379 0.64322 0.75744 0.0
H387 H 0.92709 0.64496 0.67292 0.0
H388 H 0.84955 0.61532 0.68939 0.0
C389 C 0.8601 0.60943 0.49893 0.0
C390 C 0.79762 0.5788 0.49171 0.0
C391 C 0.88942 0.65932 0.54146 0.0
C392 C 0.8569 0.68007 0.57645 0.0
C393 C 0.79539 0.65315 0.56364 0.0
H394 H 0.92351 0.93035 0.90598 0.0
H395 H 0.87743 0.85581 0.81577 0.0
C396 C 0.76612 0.60303 0.52215 0.0
C397 C 0.88494 0.72467 0.63201 0.0
H398 H 0.93915 0.74086 0.7929 0.0
C399 C 0.89003 0.7805 0.62565 0.0
C400 C 0.90262 0.71035 0.69339 0.0
C401 C 0.89536 0.65017 0.70444 0.0
C402 C 0.91327 0.82247 0.67848 0.0
C403 C 0.93063 0.80784 0.73997 0.0
C404 C 0.92565 0.75211 0.74608 0.0
C405 C 0.95648 0.85047 0.7976 0.0
C406 C 0.9203 0.88265 0.6677 0.0
C407 C 1.01533 0.87056 0.81952 0.0
C408 C 1.04142 0.91264 0.87108 0.0
C409 C 1.00917 0.93525 0.90301 0.0
C410 C 0.94926 0.91313 0.88333 0.0
C411 C 0.92323 0.87125 0.83096 0.0
H412 H 0.91677 0.89132 0.61389 0.0
H413 H 0.88478 0.88545 0.69441 0.0
H414 H 0.96396 0.91785 0.68816 0.0
H415 H 1.04189 0.8551 0.79514 0.0
H416 H 0.08782 0.92917 0.88452 0.0
H417 H 0.5652 0.42831 0.52654 0.0
H418 H 0.48642 0.38931 0.60837 0.0
H419 H 0.46277 0.21566 0.58065 0.0
H420 H 0.54417 0.25569 0.50133 0.0
H421 H 0.37701 0.31377 0.63331 0.0
H422 H 0.51109 0.23628 0.7718 0.0
H423 H 0.53782 0.2805 0.69776 0.0
H424 H 0.48636 0.20214 0.69118 0.0
C425 C 0.54086 0.38107 0.53468 0.0
C426 C 0.56149 0.34539 0.50679 0.0
C427 C 0.49644 0.35887 0.58317 0.0
C428 C 0.47037 0.29989 0.60426 0.0
C429 C 0.48399 0.26202 0.56839 0.0
H430 H 0.23747 0.09472 0.92522 0.0
H431 H 0.31429 0.13763 0.84158 0.0
C432 C 0.52922 0.28456 0.52064 0.0
C433 C 0.43332 0.28 0.66655 0.0
H434 H 0.42072 0.21466 0.81894 0.0
C435 C 0.3867 0.29209 0.67385 0.0
C436 C 0.44609 0.25268 0.72085 0.0
C437 C 0.49845 0.24271 0.72048 0.0
C438 C 0.35192 0.27644 0.73198 0.0
C439 C 0.36362 0.2475 0.78559 0.0
C440 C 0.41071 0.23607 0.77841 0.0
C441 C 0.32569 0.2253 0.84725 0.0
C442 C 0.30242 0.29064 0.73401 0.0
C443 C 0.30967 0.26079 0.88432 0.0
C444 C 0.26499 0.23575 0.93266 0.0
C445 C 0.23616 0.17489 0.94663 0.0
C446 C 0.2593 0.14195 0.91734 0.0
C447 C 0.30257 0.1664 0.86772 0.0
H448 H 0.28856 0.29635 0.68294 0.0
H449 H 0.26284 0.25582 0.75961 0.0
H450 H 0.31862 0.33294 0.7615 0.0
H451 H 0.32863 0.3071 0.87288 0.0
H452 H 0.24799 0.26256 0.95299 0.0
H453 H 0.62702 0.46701 0.27755 0.0
H454 H 0.58419 0.50983 0.20035 0.0
H455 H 0.70089 0.51664 1.04626 0.0
H456 H 0.7443 0.4759 0.12237 0.0
H457 H 0.7013 0.61585 1.04796 0.0
H458 H 0.46484 0.43658 1.04954 0.0
H459 H 0.49494 0.46812 0.13047 0.0
H460 H 0.52389 0.42812 0.08708 0.0
C461 C 0.64334 0.47736 0.22713 0.0
C462 C 0.68917 0.46733 0.20672 0.0
C463 C 0.61839 0.5015 0.18262 0.0
C464 C 0.63831 0.51581 0.11644 0.0
C465 C 0.68418 0.50605 0.09655 0.0
H466 H 0.4594 0.58344 0.77946 0.0
H467 H 0.50832 0.5446 0.85334 0.0
C468 C 0.70904 0.4823 0.14064 0.0
C469 C 0.61388 0.54286 0.06784 0.0
H470 H 0.4863 0.52255 0.98879 0.0
C471 C 0.65421 0.59516 1.03514 0.0
C472 C 0.55244 0.51616 1.05007 0.0
C473 C 0.5065 0.45888 0.08059 0.0
C474 C 0.6353 0.6211 0.98578 0.0
C475 C 0.57392 0.59494 0.96875 0.0
C476 C 0.5334 0.54274 1.00139 0.0
C477 C 0.55075 0.62158 0.91833 0.0
C478 C 0.68163 0.67578 0.95123 0.0
C479 C 0.55955 0.67858 0.92843 0.0
C480 C 0.53234 0.70104 0.88555 0.0
C481 C 0.49584 0.66738 0.83116 0.0
C482 C 0.48928 0.6115 0.8191 0.0
C483 C 0.5163 0.5888 0.86226 0.0
H484 H 0.7265 0.6804 0.95556 0.0
H485 H 0.66993 0.67521 0.89742 0.0
H486 H 0.68422 0.71529 0.97496 0.0
H487 H 0.58461 0.70447 0.97185 0.0
H488 H 0.53602 0.74301 0.89805 0.0
H489 H 0.51144 0.91146 0.84148 0.0
H490 H 0.55282 0.99423 0.92287 0.0
H491 H 0.43148 0.87934 0.07062 0.0
H492 H 0.3898 0.79834 0.99102 0.0
H493 H 0.4338 0.98289 0.06981 0.0
H494 H 0.66536 1.02419 0.08299 0.0
H495 H 0.6391 1.02917 1.00077 0.0
H496 H 0.6052 0.95935 1.04269 0.0
C497 C 0.49365 0.9039 0.89128 0.0
C498 C 0.44744 0.84741 0.90911 0.0
C499 C 0.51769 0.95124 0.93814 0.0
C500 C 0.49602 0.9432 1.00382 0.0
C501 C 0.44947 0.88719 1.02086 0.0
H502 H 0.60377 0.27131 0.21453 0.0
H503 H 0.55023 0.17994 0.14922 0.0
C504 C 0.42576 0.84039 0.97469 0.0
C505 C 0.52004 0.99223 1.05534 0.0
H506 H 0.64548 0.08859 0.14564 0.0
C507 C 0.48023 1.00612 0.08603 0.0
C508 C 0.58021 1.02177 0.07852 0.0
C509 C 0.625 1.00769 1.05011 0.0
C510 C 0.4989 0.04916 0.13739 0.0
C511 C 0.55956 0.08041 0.15878 0.0
C512 C 0.59899 0.06507 0.12974 0.0
C513 C 0.58415 0.13237 0.20647 0.0
C514 C 0.45284 0.05972 0.16911 0.0
C515 C 0.62077 0.13693 0.26188 0.0
C516 C 0.65071 0.18937 0.30037 0.0
C517 C 0.64525 0.23869 0.28389 0.0
C518 C 0.60707 0.23339 0.23013 0.0
C519 C 0.57655 0.18092 0.19241 0.0
H520 H 0.40802 1.01941 0.16637 0.0
H521 H 0.46438 0.0735 0.22234 0.0
H522 H 0.45002 0.09508 0.1416 0.0
H523 H 0.62815 0.10072 0.27378 0.0
H524 H 0.68152 0.19282 0.33986 0.0
H525 H 0.27472 0.72572 0.88053 0.0
H526 H 0.20118 0.70697 0.96663 0.0
H527 H 0.11398 0.5205 0.92295 0.0
H528 H 0.1869 0.53869 0.83793 0.0
H529 H 1.03312 0.5591 0.94835 0.0
H530 H 0.20907 0.63379 0.148 0.0
H531 H 0.22165 0.68536 0.08211 0.0
H532 H 0.22058 0.61781 1.06374 0.0
C533 C 0.2389 0.68094 0.88783 0.0
C534 C 0.23728 0.63382 0.85208 0.0
C535 C 0.19724 0.67011 0.93793 0.0
C536 C 0.15255 0.61203 0.95276 0.0
C537 C 0.14808 0.56565 0.91328 0.0
H538 H 0.95089 0.41894 0.28767 0.0
H539 H 1.02643 0.47538 0.20573 0.0
C540 C 0.18987 0.57629 0.86408 0.0
C541 C 0.11216 0.59825 1.01111 0.0
H542 H 0.11059 0.59594 0.18256 0.0
C543 C 1.05014 0.56824 0.99952 0.0
C544 C 0.13402 0.60865 0.07824 0.0
C545 C 0.19988 0.63774 0.09431 0.0
C546 C 1.00975 0.54784 1.05261 0.0
C547 C 1.03153 0.55815 0.11979 0.0
C548 C 0.0936 0.58886 0.1314 0.0
C549 C 0.99068 0.53138 0.17782 0.0
C550 C 0.94395 0.51177 1.03637 0.0
C551 C 0.94692 0.54607 0.19319 0.0
C552 C 0.90373 0.51421 0.24158 0.0
C553 C 0.90279 0.46633 0.27496 0.0
C554 C 0.94976 0.45531 0.26324 0.0
C555 C 0.99306 0.48744 0.21573 0.0
H556 H 0.93452 0.50183 0.98204 0.0
H557 H 0.92432 0.46947 1.06375 0.0
H558 H 0.92154 0.53606 1.05261 0.0
H559 H 0.94462 0.58058 0.1658 0.0
H560 H 0.86842 0.52404 0.24876 0.0
loop_
_geom_bond_atom_site_label_1
_geom_bond_atom_site_label_2
_geom_bond_distance
_geom_bond_site_symmetry_2
_ccdc_geom_bond_type
Co0 N1 2.034 1_455 S
Co0 O15 2.262 . S
Co0 O19 1.958 1_455 S
Co0 O23 1.950 1_445 S
Co0 O24 2.057 . S
N1 Co0 2.034 1_655 S
N1 C2 1.366 . S
N1 C4 1.332 1_645 S
C2 N1 1.366 . S
C2 C5 1.377 . S
C2 H34 0.931 . S
N3 C4 1.346 1_655 S
N3 C5 1.337 1_565 S
C4 N1 1.332 1_465 S
C4 N3 1.346 1_455 S
C4 C38 1.361 . S
C5 C2 1.377 . S
C5 N3 1.337 1_545 S
C5 H41 0.930 . S
Co6 N7 2.034 1_655 S
Co6 O20 1.950 1_645 S
Co6 O21 2.262 1_545 S
Co6 O22 1.958 1_655 S
Co6 O26 2.057 1_545 S
N7 Co6 2.034 1_455 S
N7 C10 1.366 . S
N7 C11 1.332 1_445 S
N8 C9 1.337 1_565 S
N8 C11 1.346 1_455 S
C9 N8 1.337 1_545 S
C9 C10 1.377 . S
C9 H42 0.930 . S
C10 N7 1.366 . S
C10 C9 1.377 . S
C10 H14 0.931 . S
C11 N7 1.332 1_665 S
C11 N8 1.346 1_655 S
C11 C28 1.361 . S
Co12 O15 2.097 1_554 S
Co12 O16 2.065 1_545 S
Co12 O17 2.065 1_444 S
Co12 O18 2.042 1_454 S
Co12 O21 2.097 1_445 S
Co12 O25 2.042 . S
C13 O21 1.253 . S
C13 O26 1.263 . S
H14 C10 0.931 . S
O15 Co0 2.262 . S
O15 Co12 2.097 1_556 S
O15 C39 1.253 . S
O16 Co12 2.065 1_565 S
O16 C32 1.221 . S
O17 Co12 2.065 1_666 S
O17 C27 1.221 . S
O18 Co12 2.042 1_656 S
O18 C33 1.237 . S
O19 Co0 1.958 1_655 S
O19 C33 1.278 . S
O20 Co6 1.950 1_465 S
O20 C32 1.277 . S
O21 Co6 2.262 1_565 S
O21 Co12 2.097 1_665 S
O21 C13 1.253 . S
O22 Co6 1.958 1_455 S
O22 C40 1.278 . S
O23 Co0 1.950 1_665 S
O23 C27 1.277 . S
O24 Co0 2.057 . S
O24 C39 1.263 . S
O25 Co12 2.042 . S
O25 C40 1.237 . S
O26 Co6 2.057 1_565 S
O26 C13 1.263 . S
C27 O17 1.221 . S
C27 O23 1.277 . S
C28 C11 1.361 . S
C28 H29 0.960 . S
C28 H30 0.961 . S
C28 H31 0.961 . S
H29 C28 0.960 . S
H30 C28 0.961 . S
H31 C28 0.961 . S
C32 O16 1.221 . S
C32 O20 1.277 . S
C33 O18 1.237 . S
C33 O19 1.278 . S
H34 C2 0.931 . S
H35 C38 0.961 . S
H36 C38 0.961 . S
H37 C38 0.960 . S
C38 C4 1.361 . S
C38 H35 0.961 . S
C38 H36 0.961 . S
C38 H37 0.960 . S
C39 O15 1.253 . S
C39 O24 1.263 . S
C40 O22 1.278 . S
C40 O25 1.237 . S
H41 C5 0.930 . S
H42 C9 0.930 . S
Co43 N44 2.034 . S
Co43 O58 2.262 . S
Co43 O62 1.958 . S
Co43 O66 1.950 . S
Co43 O67 2.057 . S
N44 Co43 2.034 . S
N44 C45 1.366 . S
N44 C47 1.332 . S
C45 N44 1.366 . S
C45 C48 1.377 1_554 S
C45 H77 0.931 . S
N46 C47 1.346 1_556 S
N46 C48 1.337 . S
C47 N44 1.332 . S
C47 N46 1.346 1_554 S
C47 C81 1.361 . S
C48 C45 1.377 1_556 S
C48 N46 1.337 . S
C48 H84 0.930 . S
Co49 N50 2.034 . S
Co49 O63 1.950 . S
Co49 O64 2.262 . S
Co49 O65 1.958 . S
Co49 O69 2.057 . S
N50 Co49 2.034 . S
N50 C53 1.366 . S
N50 C54 1.332 . S
N51 C52 1.337 . S
N51 C54 1.346 . S
C52 N51 1.337 . S
C52 C53 1.377 . S
C52 H85 0.930 . S
C53 N50 1.366 . S
C53 C52 1.377 . S
C53 H57 0.931 . S
C54 N50 1.332 . S
C54 N51 1.346 . S
C54 C71 1.361 . S
Co55 O58 2.097 . S
Co55 O59 2.065 . S
Co55 O60 2.065 . S
Co55 O61 2.042 . S
Co55 O64 2.097 . S
Co55 O68 2.042 . S
C56 O64 1.253 . S
C56 O69 1.263 . S
H57 C53 0.931 . S
O58 Co43 2.262 . S
O58 Co55 2.097 . S
O58 C82 1.253 . S
O59 Co55 2.065 . S
O59 C75 1.221 . S
O60 Co55 2.065 . S
O60 C70 1.221 . S
O61 Co55 2.042 . S
O61 C76 1.237 . S
O62 Co43 1.958 . S
O62 C76 1.278 . S
O63 Co49 1.950 . S
O63 C75 1.277 . S
O64 Co49 2.262 . S
O64 Co55 2.097 . S
O64 C56 1.253 . S
O65 Co49 1.958 . S
O65 C83 1.278 . S
O66 Co43 1.950 . S
O66 C70 1.277 . S
O67 Co43 2.057 . S
O67 C82 1.263 . S
O68 Co55 2.042 . S
O68 C83 1.237 . S
O69 Co49 2.057 . S
O69 C56 1.263 . S
C70 O60 1.221 . S
C70 O66 1.277 . S
C71 C54 1.361 . S
C71 H72 0.960 . S
C71 H73 0.961 . S
C71 H74 0.961 . S
H72 C71 0.960 . S
H73 C71 0.961 . S
H74 C71 0.961 . S
C75 O59 1.221 . S
C75 O63 1.277 . S
C76 O61 1.237 . S
C76 O62 1.278 . S
H77 C45 0.931 . S
H78 C81 0.961 . S
H79 C81 0.961 . S
H80 C81 0.960 . S
C81 C47 1.361 . S
C81 H78 0.961 . S
C81 H79 0.961 . S
C81 H80 0.960 . S
C82 O58 1.253 . S
C82 O67 1.263 . S
C83 O65 1.278 . S
C83 O68 1.237 . S
H84 C48 0.930 . S
H85 C52 0.930 . S
Co86 N87 2.034 . S
Co86 O101 2.262 . S
Co86 O105 1.958 . S
Co86 O109 1.950 . S
Co86 O110 2.057 . S
N87 Co86 2.034 . S
N87 C88 1.366 . S
N87 C90 1.332 . S
C88 N87 1.366 . S
C88 C91 1.377 . S
C88 H120 0.931 . S
N89 C90 1.346 . S
N89 C91 1.337 . S
C90 N87 1.332 . S
C90 N89 1.346 . S
C90 C124 1.361 . S
C91 C88 1.377 . S
C91 N89 1.337 . S
C91 H127 0.930 . S
Co92 N93 2.034 . S
Co92 O106 1.950 . S
Co92 O107 2.262 . S
Co92 O108 1.958 . S
Co92 O112 2.057 . S
N93 Co92 2.034 . S
N93 C96 1.366 . S
N93 C97 1.332 . S
N94 C95 1.337 . S
N94 C97 1.346 1_554 S
C95 N94 1.337 . S
C95 C96 1.377 1_554 S
C95 H128 0.930 . S
C96 N93 1.366 . S
C96 C95 1.377 1_556 S
C96 H100 0.931 . S
C97 N93 1.332 . S
C97 N94 1.346 1_556 S
C97 C114 1.361 . S
Co98 O101 2.097 . S
Co98 O102 2.065 . S
Co98 O103 2.065 . S
Co98 O104 2.042 . S
Co98 O107 2.097 . S
Co98 O111 2.042 . S
C99 O107 1.253 . S
C99 O112 1.263 . S
H100 C96 0.931 . S
O101 Co86 2.262 . S
O101 Co98 2.097 . S
O101 C125 1.253 . S
O102 Co98 2.065 . S
O102 C118 1.221 . S
O103 Co98 2.065 . S
O103 C113 1.221 . S
O104 Co98 2.042 . S
O104 C119 1.237 . S
O105 Co86 1.958 . S
O105 C119 1.278 . S
O106 Co92 1.950 . S
O106 C118 1.277 . S
O107 Co92 2.262 . S
O107 Co98 2.097 . S
O107 C99 1.253 . S
O108 Co92 1.958 . S
O108 C126 1.278 . S
O109 Co86 1.950 . S
O109 C113 1.277 . S
O110 Co86 2.057 . S
O110 C125 1.263 . S
O111 Co98 2.042 . S
O111 C126 1.237 . S
O112 Co92 2.057 . S
O112 C99 1.263 . S
C113 O103 1.221 . S
C113 O109 1.277 . S
C114 C97 1.361 . S
C114 H115 0.960 . S
C114 H116 0.961 . S
C114 H117 0.961 . S
H115 C114 0.960 . S
H116 C114 0.961 . S
H117 C114 0.961 . S
C118 O102 1.221 . S
C118 O106 1.277 . S
C119 O104 1.237 . S
C119 O105 1.278 . S
H120 C88 0.931 . S
H121 C124 0.961 . S
H122 C124 0.961 . S
H123 C124 0.960 . S
C124 C90 1.361 . S
C124 H121 0.961 . S
C124 H122 0.961 . S
C124 H123 0.960 . S
C125 O101 1.253 . S
C125 O110 1.263 . S
C126 O108 1.278 . S
C126 O111 1.237 . S
H127 C91 0.930 . S
H128 C95 0.930 . S
H129 C137 0.929 . S
H130 C139 0.930 . S
H131 C141 0.930 . S
H132 C144 0.929 . S
H133 C147 0.930 . S
H134 C149 0.960 . S
H135 C149 0.960 . S
H136 C149 0.960 . S
C137 H129 0.929 . S
C137 C138 1.377 1_655 S
C137 C139 1.384 . S
C138 C137 1.377 1_455 S
C138 C144 1.390 1_565 S
C139 H130 0.930 . S
C139 C137 1.384 . S
C139 C140 1.372 1_655 S
C140 C139 1.372 1_455 S
C140 C141 1.400 1_565 S
C140 C145 1.490 . S
C141 H131 0.930 . S
C141 C140 1.400 1_545 S
C141 C144 1.386 . S
H142 C158 0.930 . S
H143 C159 0.931 . S
C144 H132 0.929 . S
C144 C138 1.390 1_545 S
C144 C141 1.386 . S
C145 C140 1.490 . S
C145 C147 1.396 1_465 S
C145 C148 1.401 . S
H146 C152 0.930 . S
C147 H133 0.930 . S
C147 C145 1.396 1_645 S
C147 C150 1.403 . S
C148 C145 1.401 . S
C148 C149 1.524 . S
C148 C152 1.400 . S
C149 H134 0.960 . S
C149 H135 0.960 . S
C149 H136 0.960 . S
C149 C148 1.524 . S
C150 C147 1.403 . S
C150 C151 1.392 1_545 S
C150 C154 1.495 . S
C151 C150 1.392 1_565 S
C151 C152 1.385 1_655 S
C151 C153 1.478 . S
C152 H146 0.930 . S
C152 C148 1.400 . S
C152 C151 1.385 1_455 S
C153 C151 1.478 . S
C153 C155 1.381 . S
C153 C159 1.383 1_665 S
C154 C150 1.495 . S
C154 H160 0.959 . S
C154 H161 0.961 . S
C154 H162 0.960 . S
C155 C153 1.381 . S
C155 C156 1.394 . S
C155 H163 0.930 . S
C156 C155 1.394 . S
C156 C157 1.383 . S
C156 H164 0.929 . S
C157 C156 1.383 . S
C157 C158 1.377 1_665 S
C158 H142 0.930 . S
C158 C157 1.377 1_445 S
C158 C159 1.379 . S
C159 H143 0.931 . S
C159 C153 1.383 1_445 S
C159 C158 1.379 . S
H160 C154 0.959 . S
H161 C154 0.961 . S
H162 C154 0.960 . S
H163 C155 0.930 . S
H164 C156 0.929 . S
H165 C173 0.929 . S
H166 C175 0.930 . S
H167 C177 0.930 . S
H168 C180 0.929 . S
H169 C183 0.930 . S
H170 C185 0.960 . S
H171 C185 0.960 . S
H172 C185 0.960 . S
C173 H165 0.929 . S
C173 C174 1.377 . S
C173 C175 1.384 . S
C174 C173 1.377 . S
C174 C180 1.390 . S
C175 H166 0.930 . S
C175 C173 1.384 . S
C175 C176 1.372 . S
C176 C175 1.372 . S
C176 C177 1.400 . S
C176 C181 1.490 . S
C177 H167 0.930 . S
C177 C176 1.400 . S
C177 C180 1.386 . S
H178 C194 0.930 . S
H179 C195 0.931 . S
C180 H168 0.929 . S
C180 C174 1.390 . S
C180 C177 1.386 . S
C181 C176 1.490 . S
C181 C183 1.395 . S
C181 C184 1.403 . S
H182 C188 0.930 . S
C183 H169 0.930 . S
C183 C181 1.395 . S
C183 C186 1.403 . S
C184 C181 1.403 . S
C184 C185 1.524 . S
C184 C188 1.400 . S
C185 H170 0.960 . S
C185 H171 0.960 . S
C185 H172 0.960 . S
C185 C184 1.524 . S
C186 C183 1.403 . S
C186 C187 1.392 . S
C186 C190 1.495 . S
C187 C186 1.392 . S
C187 C188 1.385 . S
C187 C189 1.478 . S
C188 H182 0.930 . S
C188 C184 1.400 . S
C188 C187 1.385 . S
C189 C187 1.478 . S
C189 C191 1.381 . S
C189 C195 1.383 . S
C190 C186 1.495 . S
C190 H196 0.959 . S
C190 H197 0.961 . S
C190 H198 0.960 . S
C191 C189 1.381 . S
C191 C192 1.394 1_556 S
C191 H199 0.930 . S
C192 C191 1.394 1_554 S
C192 C193 1.383 . S
C192 H200 0.929 . S
C193 C192 1.383 . S
C193 C194 1.377 . S
C194 H178 0.930 . S
C194 C193 1.377 . S
C194 C195 1.379 1_554 S
C195 H179 0.931 . S
C195 C189 1.383 . S
C195 C194 1.379 1_556 S
H196 C190 0.959 . S
H197 C190 0.961 . S
H198 C190 0.960 . S
H199 C191 0.930 . S
H200 C192 0.929 . S
H201 C209 0.929 . S
H202 C211 0.930 . S
H203 C213 0.930 . S
H204 C216 0.929 . S
H205 C219 0.930 . S
H206 C221 0.960 . S
H207 C221 0.960 . S
H208 C221 0.960 . S
C209 H201 0.929 . S
C209 C210 1.377 . S
C209 C211 1.384 1_556 S
C210 C209 1.377 . S
C210 C216 1.390 . S
C211 H202 0.930 . S
C211 C209 1.384 1_554 S
C211 C212 1.372 . S
C212 C211 1.372 . S
C212 C213 1.400 . S
C212 C217 1.490 . S
C213 H203 0.930 . S
C213 C212 1.400 . S
C213 C216 1.386 1_554 S
H214 C230 0.930 . S
H215 C231 0.931 . S
C216 H204 0.929 . S
C216 C210 1.390 . S
C216 C213 1.386 1_556 S
C217 C212 1.490 . S
C217 C219 1.395 . S
C217 C220 1.403 . S
H218 C224 0.930 . S
C219 H205 0.930 . S
C219 C217 1.395 . S
C219 C222 1.403 . S
C220 C217 1.403 . S
C220 C221 1.524 . S
C220 C224 1.400 . S
C221 H206 0.960 . S
C221 H207 0.960 . S
C221 H208 0.960 . S
C221 C220 1.524 . S
C222 C219 1.403 . S
C222 C223 1.392 . S
C222 C226 1.495 . S
C223 C222 1.392 . S
C223 C224 1.385 . S
C223 C225 1.478 . S
C224 H218 0.930 . S
C224 C220 1.400 . S
C224 C223 1.385 . S
C225 C223 1.478 . S
C225 C227 1.381 . S
C225 C231 1.383 . S
C226 C222 1.495 . S
C226 H232 0.959 . S
C226 H233 0.961 . S
C226 H234 0.960 . S
C227 C225 1.381 . S
C227 C228 1.394 . S
C227 H235 0.930 . S
C228 C227 1.394 . S
C228 C229 1.383 . S
C228 H236 0.929 . S
C229 C228 1.383 . S
C229 C230 1.377 . S
C230 H214 0.930 . S
C230 C229 1.377 . S
C230 C231 1.379 . S
C231 H215 0.931 . S
C231 C225 1.383 . S
C231 C230 1.379 . S
H232 C226 0.959 . S
H233 C226 0.961 . S
H234 C226 0.960 . S
H235 C227 0.930 . S
H236 C228 0.929 . S
H237 C245 0.929 . S
H238 C247 0.930 . S
H239 C249 0.930 . S
H240 C252 0.929 . S
H241 C255 0.930 . S
H242 C257 0.960 . S
H243 C257 0.960 . S
H244 C257 0.960 . S
C245 H237 0.929 . S
C245 C246 1.377 . S
C245 C247 1.384 . S
C246 C245 1.377 . S
C246 C252 1.390 . S
C247 H238 0.930 . S
C247 C245 1.384 . S
C247 C248 1.372 . S
C248 C247 1.372 . S
C248 C249 1.400 . S
C248 C253 1.490 . S
C249 H239 0.930 . S
C249 C248 1.400 . S
C249 C252 1.386 . S
H250 C266 0.930 . S
H251 C267 0.931 . S
C252 H240 0.929 . S
C252 C246 1.390 . S
C252 C249 1.386 . S
C253 C248 1.490 . S
C253 C255 1.395 . S
C253 C256 1.403 . S
H254 C260 0.930 . S
C255 H241 0.930 . S
C255 C253 1.395 . S
C255 C258 1.403 . S
C256 C253 1.403 . S
C256 C257 1.524 . S
C256 C260 1.400 . S
C257 H242 0.960 . S
C257 H243 0.960 . S
C257 H244 0.960 . S
C257 C256 1.524 . S
C258 C255 1.403 . S
C258 C259 1.392 . S
C258 C262 1.495 . S
C259 C258 1.392 . S
C259 C260 1.385 . S
C259 C261 1.478 . S
C260 H254 0.930 . S
C260 C256 1.400 . S
C260 C259 1.385 . S
C261 C259 1.478 . S
C261 C263 1.381 . S
C261 C267 1.383 . S
C262 C258 1.495 . S
C262 H268 0.959 . S
C262 H269 0.961 . S
C262 H270 0.960 . S
C263 C261 1.381 . S
C263 C264 1.394 . S
C263 H271 0.930 . S
C264 C263 1.394 . S
C264 C265 1.383 . S
C264 H272 0.929 . S
C265 C264 1.383 . S
C265 C266 1.377 . S
C266 H250 0.930 . S
C266 C265 1.377 . S
C266 C267 1.379 . S
C267 H251 0.931 . S
C267 C261 1.383 . S
C267 C266 1.379 . S
H268 C262 0.959 . S
H269 C262 0.961 . S
H270 C262 0.960 . S
H271 C263 0.930 . S
H272 C264 0.929 . S
H273 C281 0.929 . S
H274 C283 0.930 . S
H275 C285 0.930 . S
H276 C288 0.929 . S
H277 C291 0.930 . S
H278 C293 0.960 . S
H279 C293 0.960 . S
H280 C293 0.960 . S
C281 H273 0.929 . S
C281 C282 1.377 . S
C281 C283 1.384 . S
C282 C281 1.377 . S
C282 C288 1.390 . S
C283 H274 0.930 . S
C283 C281 1.384 . S
C283 C284 1.372 . S
C284 C283 1.372 . S
C284 C285 1.400 . S
C284 C289 1.490 . S
C285 H275 0.930 . S
C285 C284 1.400 . S
C285 C288 1.386 . S
H286 C302 0.930 . S
H287 C303 0.931 . S
C288 H276 0.929 . S
C288 C282 1.390 . S
C288 C285 1.386 . S
C289 C284 1.490 . S
C289 C291 1.395 . S
C289 C292 1.403 . S
H290 C296 0.930 . S
C291 H277 0.930 . S
C291 C289 1.395 . S
C291 C294 1.403 . S
C292 C289 1.403 . S
C292 C293 1.524 . S
C292 C296 1.400 . S
C293 H278 0.960 . S
C293 H279 0.960 . S
C293 H280 0.960 . S
C293 C292 1.524 . S
C294 C291 1.403 . S
C294 C295 1.392 . S
C294 C298 1.495 . S
C295 C294 1.392 . S
C295 C296 1.385 . S
C295 C297 1.478 . S
C296 H290 0.930 . S
C296 C292 1.400 . S
C296 C295 1.385 . S
C297 C295 1.478 . S
C297 C299 1.381 . S
C297 C303 1.383 . S
C298 C294 1.495 . S
C298 H304 0.959 . S
C298 H305 0.961 . S
C298 H306 0.960 . S
C299 C297 1.381 . S
C299 C300 1.394 . S
C299 H307 0.930 . S
C300 C299 1.394 . S
C300 C301 1.383 . S
C300 H308 0.929 . S
C301 C300 1.383 . S
C301 C302 1.377 . S
C302 H286 0.930 . S
C302 C301 1.377 . S
C302 C303 1.379 . S
C303 H287 0.931 . S
C303 C297 1.383 . S
C303 C302 1.379 . S
H304 C298 0.959 . S
H305 C298 0.961 . S
H306 C298 0.960 . S
H307 C299 0.930 . S
H308 C300 0.929 . S
H309 C317 0.929 . S
H310 C319 0.930 . S
H311 C321 0.930 . S
H312 C324 0.929 . S
H313 C327 0.930 . S
H314 C329 0.960 . S
H315 C329 0.960 . S
H316 C329 0.960 . S
C317 H309 0.929 . S
C317 C318 1.377 . S
C317 C319 1.384 . S
C318 C317 1.377 . S
C318 C324 1.390 . S
C319 H310 0.930 . S
C319 C317 1.384 . S
C319 C320 1.372 . S
C320 C319 1.372 . S
C320 C321 1.400 . S
C320 C325 1.490 . S
C321 H311 0.930 . S
C321 C320 1.400 . S
C321 C324 1.386 . S
H322 C338 0.930 . S
H323 C339 0.931 . S
C324 H312 0.929 . S
C324 C318 1.390 . S
C324 C321 1.386 . S
C325 C320 1.490 . S
C325 C327 1.395 . S
C325 C328 1.403 . S
H326 C332 0.930 . S
C327 H313 0.930 . S
C327 C325 1.395 . S
C327 C330 1.403 . S
C328 C325 1.403 . S
C328 C329 1.524 . S
C328 C332 1.400 . S
C329 H314 0.960 . S
C329 H315 0.960 . S
C329 H316 0.960 . S
C329 C328 1.524 . S
C330 C327 1.403 . S
C330 C331 1.392 . S
C330 C334 1.495 . S
C331 C330 1.392 . S
C331 C332 1.385 . S
C331 C333 1.478 . S
C332 H326 0.930 . S
C332 C328 1.400 . S
C332 C331 1.385 . S
C333 C331 1.478 . S
C333 C335 1.381 . S
C333 C339 1.383 . S
C334 C330 1.495 . S
C334 H340 0.959 . S
C334 H341 0.961 . S
C334 H342 0.960 . S
C335 C333 1.381 . S
C335 C336 1.394 . S
C335 H343 0.930 . S
C336 C335 1.394 . S
C336 C337 1.383 . S
C336 H344 0.929 . S
C337 C336 1.383 . S
C337 C338 1.377 . S
C338 H322 0.930 . S
C338 C337 1.377 . S
C338 C339 1.379 . S
C339 H323 0.931 . S
C339 C333 1.383 . S
C339 C338 1.379 . S
H340 C334 0.959 . S
H341 C334 0.961 . S
H342 C334 0.960 . S
H343 C335 0.930 . S
H344 C336 0.929 . S
H345 C353 0.929 . S
H346 C355 0.930 . S
H347 C357 0.930 . S
H348 C360 0.929 . S
H349 C363 0.930 . S
H350 C365 0.960 . S
H351 C365 0.960 . S
H352 C365 0.960 . S
C353 H345 0.929 . S
C353 C354 1.377 . S
C353 C355 1.384 . S
C354 C353 1.377 . S
C354 C360 1.390 . S
C355 H346 0.930 . S
C355 C353 1.384 . S
C355 C356 1.372 . S
C356 C355 1.372 . S
C356 C357 1.400 . S
C356 C361 1.490 . S
C357 H347 0.930 . S
C357 C356 1.400 . S
C357 C360 1.386 . S
H358 C374 0.930 . S
H359 C375 0.931 . S
C360 H348 0.929 . S
C360 C354 1.390 . S
C360 C357 1.386 . S
C361 C356 1.490 . S
C361 C363 1.395 . S
C361 C364 1.403 . S
H362 C368 0.930 . S
C363 H349 0.930 . S
C363 C361 1.395 . S
C363 C366 1.403 . S
C364 C361 1.403 . S
C364 C365 1.524 . S
C364 C368 1.400 . S
C365 H350 0.960 . S
C365 H351 0.960 . S
C365 H352 0.960 . S
C365 C364 1.524 . S
C366 C363 1.403 . S
C366 C367 1.392 . S
C366 C370 1.495 . S
C367 C366 1.392 . S
C367 C368 1.385 . S
C367 C369 1.478 . S
C368 H362 0.930 . S
C368 C364 1.400 . S
C368 C367 1.385 . S
C369 C367 1.478 . S
C369 C371 1.381 . S
C369 C375 1.383 . S
C370 C366 1.495 . S
C370 H376 0.959 . S
C370 H377 0.961 . S
C370 H378 0.960 . S
C371 C369 1.381 . S
C371 C372 1.394 . S
C371 H379 0.930 . S
C372 C371 1.394 . S
C372 C373 1.383 . S
C372 H380 0.929 . S
C373 C372 1.383 . S
C373 C374 1.377 . S
C374 H358 0.930 . S
C374 C373 1.377 . S
C374 C375 1.379 . S
C375 H359 0.931 . S
C375 C369 1.383 . S
C375 C374 1.379 . S
H376 C370 0.959 . S
H377 C370 0.961 . S
H378 C370 0.960 . S
H379 C371 0.930 . S
H380 C372 0.929 . S
H381 C389 0.929 . S
H382 C391 0.930 . S
H383 C393 0.930 . S
H384 C396 0.929 . S
H385 C399 0.930 . S
H386 C401 0.960 . S
H387 C401 0.960 . S
H388 C401 0.960 . S
C389 H381 0.929 . S
C389 C390 1.377 . S
C389 C391 1.384 . S
C390 C389 1.377 . S
C390 C396 1.390 . S
C391 H382 0.930 . S
C391 C389 1.384 . S
C391 C392 1.372 . S
C392 C391 1.372 . S
C392 C393 1.400 . S
C392 C397 1.490 . S
C393 H383 0.930 . S
C393 C392 1.400 . S
C393 C396 1.386 . S
H394 C410 0.930 . S
H395 C411 0.931 . S
C396 H384 0.929 . S
C396 C390 1.390 . S
C396 C393 1.386 . S
C397 C392 1.490 . S
C397 C399 1.395 . S
C397 C400 1.403 . S
H398 C404 0.930 . S
C399 H385 0.930 . S
C399 C397 1.395 . S
C399 C402 1.403 . S
C400 C397 1.403 . S
C400 C401 1.524 . S
C400 C404 1.400 . S
C401 H386 0.960 . S
C401 H387 0.960 . S
C401 H388 0.960 . S
C401 C400 1.524 . S
C402 C399 1.403 . S
C402 C403 1.392 . S
C402 C406 1.495 . S
C403 C402 1.392 . S
C403 C404 1.385 . S
C403 C405 1.478 . S
C404 H398 0.930 . S
C404 C400 1.400 . S
C404 C403 1.385 . S
C405 C403 1.478 . S
C405 C407 1.381 . S
C405 C411 1.383 . S
C406 C402 1.495 . S
C406 H412 0.959 . S
C406 H413 0.961 . S
C406 H414 0.960 . S
C407 C405 1.381 . S
C407 C408 1.394 . S
C407 H415 0.930 . S
C408 C407 1.394 . S
C408 C409 1.383 . S
C408 H416 0.929 . S
C409 C408 1.383 . S
C409 C410 1.377 . S
C410 H394 0.930 . S
C410 C409 1.377 . S
C410 C411 1.379 . S
C411 H395 0.931 . S
C411 C405 1.383 . S
C411 C410 1.379 . S
H412 C406 0.959 . S
H413 C406 0.961 . S
H414 C406 0.960 . S
H415 C407 0.930 . S
H416 C408 0.929 . S
H417 C425 0.929 . S
H418 C427 0.930 . S
H419 C429 0.930 . S
H420 C432 0.929 . S
H421 C435 0.930 . S
H422 C437 0.960 . S
H423 C437 0.960 . S
H424 C437 0.960 . S
C425 H417 0.929 . S
C425 C426 1.377 . S
C425 C427 1.384 . S
C426 C425 1.377 . S
C426 C432 1.390 . S
C427 H418 0.930 . S
C427 C425 1.384 . S
C427 C428 1.372 . S
C428 C427 1.372 . S
C428 C429 1.400 . S
C428 C433 1.490 . S
C429 H419 0.930 . S
C429 C428 1.400 . S
C429 C432 1.386 . S
H430 C446 0.930 . S
H431 C447 0.931 . S
C432 H420 0.929 . S
C432 C426 1.390 . S
C432 C429 1.386 . S
C433 C428 1.490 . S
C433 C435 1.395 . S
C433 C436 1.403 . S
H434 C440 0.930 . S
C435 H421 0.930 . S
C435 C433 1.395 . S
C435 C438 1.403 . S
C436 C433 1.403 . S
C436 C437 1.524 . S
C436 C440 1.400 . S
C437 H422 0.960 . S
C437 H423 0.960 . S
C437 H424 0.960 . S
C437 C436 1.524 . S
C438 C435 1.403 . S
C438 C439 1.392 . S
C438 C442 1.495 . S
C439 C438 1.392 . S
C439 C440 1.385 . S
C439 C441 1.478 . S
C440 H434 0.930 . S
C440 C436 1.400 . S
C440 C439 1.385 . S
C441 C439 1.478 . S
C441 C443 1.381 . S
C441 C447 1.383 . S
C442 C438 1.495 . S
C442 H448 0.959 . S
C442 H449 0.961 . S
C442 H450 0.960 . S
C443 C441 1.381 . S
C443 C444 1.394 . S
C443 H451 0.930 . S
C444 C443 1.394 . S
C444 C445 1.383 . S
C444 H452 0.929 . S
C445 C444 1.383 . S
C445 C446 1.377 . S
C446 H430 0.930 . S
C446 C445 1.377 . S
C446 C447 1.379 . S
C447 H431 0.931 . S
C447 C441 1.383 . S
C447 C446 1.379 . S
H448 C442 0.959 . S
H449 C442 0.961 . S
H450 C442 0.960 . S
H451 C443 0.930 . S
H452 C444 0.929 . S
H453 C461 0.929 . S
H454 C463 0.930 . S
H455 C465 0.930 . S
H456 C468 0.929 . S
H457 C471 0.930 . S
H458 C473 0.960 . S
H459 C473 0.960 . S
H460 C473 0.960 . S
C461 H453 0.929 . S
C461 C462 1.377 . S
C461 C463 1.384 . S
C462 C461 1.377 . S
C462 C468 1.390 . S
C463 H454 0.930 . S
C463 C461 1.384 . S
C463 C464 1.372 . S
C464 C463 1.372 . S
C464 C465 1.400 . S
C464 C469 1.490 . S
C465 H455 0.930 . S
C465 C464 1.400 . S
C465 C468 1.386 . S
H466 C482 0.930 . S
H467 C483 0.931 . S
C468 H456 0.929 . S
C468 C462 1.390 . S
C468 C465 1.386 . S
C469 C464 1.490 . S
C469 C471 1.395 1_554 S
C469 C472 1.403 . S
H470 C476 0.930 . S
C471 H457 0.930 . S
C471 C469 1.395 1_556 S
C471 C474 1.403 . S
C472 C469 1.403 . S
C472 C473 1.524 . S
C472 C476 1.400 1_554 S
C473 H458 0.960 . S
C473 H459 0.960 . S
C473 H460 0.960 . S
C473 C472 1.524 . S
C474 C471 1.403 . S
C474 C475 1.392 . S
C474 C478 1.495 . S
C475 C474 1.392 . S
C475 C476 1.385 . S
C475 C477 1.478 . S
C476 H470 0.930 . S
C476 C472 1.400 1_556 S
C476 C475 1.385 . S
C477 C475 1.478 . S
C477 C479 1.381 . S
C477 C483 1.383 . S
C478 C474 1.495 . S
C478 H484 0.959 . S
C478 H485 0.961 . S
C478 H486 0.960 . S
C479 C477 1.381 . S
C479 C480 1.394 . S
C479 H487 0.930 . S
C480 C479 1.394 . S
C480 C481 1.383 . S
C480 H488 0.929 . S
C481 C480 1.383 . S
C481 C482 1.377 . S
C482 H466 0.930 . S
C482 C481 1.377 . S
C482 C483 1.379 . S
C483 H467 0.931 . S
C483 C477 1.383 . S
C483 C482 1.379 . S
H484 C478 0.959 . S
H485 C478 0.961 . S
H486 C478 0.960 . S
H487 C479 0.930 . S
H488 C480 0.929 . S
H489 C497 0.929 . S
H490 C499 0.930 . S
H491 C501 0.930 . S
H492 C504 0.929 . S
H493 C507 0.930 . S
H494 C509 0.960 . S
H495 C509 0.960 1_556 S
H496 C509 0.960 . S
C497 H489 0.929 . S
C497 C498 1.377 . S
C497 C499 1.384 . S
C498 C497 1.377 . S
C498 C504 1.390 . S
C499 H490 0.930 . S
C499 C497 1.384 . S
C499 C500 1.372 . S
C500 C499 1.372 . S
C500 C501 1.400 . S
C500 C505 1.490 . S
C501 H491 0.930 . S
C501 C500 1.400 . S
C501 C504 1.386 . S
H502 C518 0.930 . S
H503 C519 0.931 . S
C504 H492 0.929 . S
C504 C498 1.390 . S
C504 C501 1.386 . S
C505 C500 1.490 . S
C505 C507 1.395 1_565 S
C505 C508 1.403 1_556 S
H506 C512 0.938 . S
C507 H493 0.930 . S
C507 C505 1.395 1_545 S
C507 C510 1.403 . S
C508 C505 1.403 1_554 S
C508 C509 1.524 . S
C508 C512 1.400 1_565 S
C509 H494 0.960 . S
C509 H495 0.960 1_554 S
C509 H496 0.960 . S
C509 C508 1.524 . S
C510 C507 1.403 . S
C510 C511 1.392 1_556 S
C510 C514 1.495 . S
C511 C510 1.392 1_554 S
C511 C512 1.385 . S
C511 C513 1.478 . S
C512 H506 0.938 . S
C512 C508 1.400 1_545 S
C512 C511 1.385 . S
C513 C511 1.478 . S
C513 C515 1.381 . S
C513 C519 1.383 . S
C514 C510 1.495 . S
C514 H520 0.959 . S
C514 H521 0.961 . S
C514 H522 0.960 . S
C515 C513 1.381 . S
C515 C516 1.394 . S
C515 H523 0.930 . S
C516 C515 1.394 . S
C516 C517 1.383 . S
C516 H524 0.929 . S
C517 C516 1.383 . S
C517 C518 1.377 . S
C518 H502 0.930 . S
C518 C517 1.377 . S
C518 C519 1.379 . S
C519 H503 0.931 . S
C519 C513 1.383 . S
C519 C518 1.379 . S
H520 C514 0.959 . S
H521 C514 0.961 . S
H522 C514 0.960 . S
H523 C515 0.930 . S
H524 C516 0.929 . S
H525 C533 0.929 . S
H526 C535 0.930 . S
H527 C537 0.930 . S
H528 C540 0.929 . S
H529 C543 0.930 . S
H530 C545 0.960 1_655 S
H531 C545 0.960 . S
H532 C545 0.960 . S
C533 H525 0.929 . S
C533 C534 1.377 . S
C533 C535 1.384 . S
C534 C533 1.377 . S
C534 C540 1.390 . S
C535 H526 0.930 . S
C535 C533 1.384 . S
C535 C536 1.372 . S
C536 C535 1.372 . S
C536 C537 1.400 . S
C536 C541 1.490 . S
C537 H527 0.930 . S
C537 C536 1.400 . S
C537 C540 1.386 . S
H538 C554 0.930 . S
H539 C555 0.931 . S
C540 H528 0.929 . S
C540 C534 1.390 . S
C540 C537 1.386 . S
C541 C536 1.490 . S
C541 C543 1.395 . S
C541 C544 1.403 . S
H542 C548 0.930 . S
C543 H529 0.930 . S
C543 C541 1.395 . S
C543 C546 1.403 1_456 S
C544 C541 1.403 . S
C544 C545 1.524 . S
C544 C548 1.400 1_456 S
C545 H530 0.960 1_455 S
C545 H531 0.960 . S
C545 H532 0.960 . S
C545 C544 1.524 . S
C546 C543 1.403 1_654 S
C546 C547 1.392 . S
C546 C550 1.495 . S
C547 C546 1.392 . S
C547 C548 1.385 . S
C547 C549 1.478 . S
C548 H542 0.930 . S
C548 C544 1.400 1_654 S
C548 C547 1.385 . S
C549 C547 1.478 . S
C549 C551 1.381 . S
C549 C555 1.383 . S
C550 C546 1.495 . S
C550 H556 0.959 1_655 S
C550 H557 0.961 . S
C550 H558 0.960 . S
C551 C549 1.381 . S
C551 C552 1.394 . S
C551 H559 0.930 . S
C552 C551 1.394 . S
C552 C553 1.383 . S
C552 H560 0.929 . S
C553 C552 1.383 . S
C553 C554 1.377 . S
C554 H538 0.930 . S
C554 C553 1.377 . S
C554 C555 1.379 . S
C555 H539 0.931 . S
C555 C549 1.383 . S
C555 C554 1.379 . S
H556 C550 0.959 1_455 S
H557 C550 0.961 . S
H558 C550 0.960 . S
H559 C551 0.930 . S
H560 C552 0.929 . S
C138 N3 2.141 1_455 S
C157 N8 2.151 1_655 S
C174 N51 2.142 . S
C193 N46 2.150 1_554 S
C210 N94 2.144 1_556 S
C229 N89 2.166 . S
C246 C119 2.288 . S
C265 C32 2.270 . S
C282 C113 2.297 . S
C301 C40 2.309 . S
C318 C125 2.245 . S
C337 C13 2.224 . S
C354 C75 2.301 . S
C373 C33 2.294 . S
C390 C83 2.291 . S
C409 C27 2.271 . S
C426 C56 2.239 . S
C445 C39 2.205 . S
C462 C76 2.296 . S
C481 C118 2.311 . S
C498 C126 2.293 . S
C517 C70 2.270 . S
C534 C99 2.237 . S
C553 C82 2.240 . S
