# Generated by pormake.
# Topology wme, (6)-cn, num edge types: 1
# Building blocks:
#     Node 0, Type 0, BuildingBlock: MAKGUD_clean_sbu_1, # of connection points: 6
#     Node 1, Type 0, BuildingBlock: MAKGUD_clean_sbu_1, # of connection points: 6
#     Node 2, Type 0, BuildingBlock: MAKGUD_clean_sbu_1, # of connection points: 6
#     Node 3, Type 0, BuildingBlock: MAKGUD_clean_sbu_1, # of connection points: 6
#     Node 4, Type 0, BuildingBlock: MAKGUD_clean_sbu_1, # of connection points: 6
#     Node 5, Type 0, BuildingBlock: MAKGUD_clean_sbu_1, # of connection points: 6
#     Node 6, Type 0, BuildingBlock: MAKGUD_clean_sbu_1, # of connection points: 6
#     Node 7, Type 0, BuildingBlock: MAKGUD_clean_sbu_1, # of connection points: 6
#     Node 8, Type 0, BuildingBlock: MAKGUD_clean_sbu_1, # of connection points: 6
#     Node 9, Type 0, BuildingBlock: MAKGUD_clean_sbu_1, # of connection points: 6
#     Node 10, Type 0, BuildingBlock: MAKGUD_clean_sbu_1, # of connection points: 6
#     Node 11, Type 0, BuildingBlock: MAKGUD_clean_sbu_1, # of connection points: 6
#     Edge 12, Type (0, 0), BuildingBlock: OJICUG_clean_linker_0, # of connection points: 2
#     Edge 13, Type (0, 0), BuildingBlock: OJICUG_clean_linker_0, # of connection points: 2
#     Edge 14, Type (0, 0), BuildingBlock: OJICUG_clean_linker_0, # of connection points: 2
#     Edge 15, Type (0, 0), BuildingBlock: OJICUG_clean_linker_0, # of connection points: 2
#     Edge 16, Type (0, 0), BuildingBlock: OJICUG_clean_linker_0, # of connection points: 2
#     Edge 17, Type (0, 0), BuildingBlock: OJICUG_clean_linker_0, # of connection points: 2
#     Edge 18, Type (0, 0), BuildingBlock: OJICUG_clean_linker_0, # of connection points: 2
#     Edge 19, Type (0, 0), BuildingBlock: OJICUG_clean_linker_0, # of connection points: 2
#     Edge 20, Type (0, 0), BuildingBlock: OJICUG_clean_linker_0, # of connection points: 2
#     Edge 21, Type (0, 0), BuildingBlock: OJICUG_clean_linker_0, # of connection points: 2
#     Edge 22, Type (0, 0), BuildingBlock: OJICUG_clean_linker_0, # of connection points: 2
#     Edge 23, Type (0, 0), BuildingBlock: OJICUG_clean_linker_0, # of connection points: 2
#     Edge 24, Type (0, 0), BuildingBlock: OJICUG_clean_linker_0, # of connection points: 2
#     Edge 25, Type (0, 0), BuildingBlock: OJICUG_clean_linker_0, # of connection points: 2
#     Edge 26, Type (0, 0), BuildingBlock: OJICUG_clean_linker_0, # of connection points: 2
#     Edge 27, Type (0, 0), BuildingBlock: OJICUG_clean_linker_0, # of connection points: 2
#     Edge 28, Type (0, 0), BuildingBlock: OJICUG_clean_linker_0, # of connection points: 2
#     Edge 29, Type (0, 0), BuildingBlock: OJICUG_clean_linker_0, # of connection points: 2
#     Edge 30, Type (0, 0), BuildingBlock: OJICUG_clean_linker_0, # of connection points: 2
#     Edge 31, Type (0, 0), BuildingBlock: OJICUG_clean_linker_0, # of connection points: 2
#     Edge 32, Type (0, 0), BuildingBlock: OJICUG_clean_linker_0, # of connection points: 2
#     Edge 33, Type (0, 0), BuildingBlock: OJICUG_clean_linker_0, # of connection points: 2
#     Edge 34, Type (0, 0), BuildingBlock: OJICUG_clean_linker_0, # of connection points: 2
#     Edge 35, Type (0, 0), BuildingBlock: OJICUG_clean_linker_0, # of connection points: 2
#     Edge 36, Type (0, 0), BuildingBlock: OJICUG_clean_linker_0, # of connection points: 2
#     Edge 37, Type (0, 0), BuildingBlock: OJICUG_clean_linker_0, # of connection points: 2
#     Edge 38, Type (0, 0), BuildingBlock: OJICUG_clean_linker_0, # of connection points: 2
#     Edge 39, Type (0, 0), BuildingBlock: OJICUG_clean_linker_0, # of connection points: 2
#     Edge 40, Type (0, 0), BuildingBlock: OJICUG_clean_linker_0, # of connection points: 2
#     Edge 41, Type (0, 0), BuildingBlock: OJICUG_clean_linker_0, # of connection points: 2
#     Edge 42, Type (0, 0), BuildingBlock: OJICUG_clean_linker_0, # of connection points: 2
#     Edge 43, Type (0, 0), BuildingBlock: OJICUG_clean_linker_0, # of connection points: 2
#     Edge 44, Type (0, 0), BuildingBlock: OJICUG_clean_linker_0, # of connection points: 2
#     Edge 45, Type (0, 0), BuildingBlock: OJICUG_clean_linker_0, # of connection points: 2
#     Edge 46, Type (0, 0), BuildingBlock: OJICUG_clean_linker_0, # of connection points: 2
#     Edge 47, Type (0, 0), BuildingBlock: OJICUG_clean_linker_0, # of connection points: 2
# Relax obj value: 0.152
# Max RMSD: 0.293
# Mean RMSD: 0.293
data_MOF--net-wme--node1-MAKGUD_clean_sbu_1--edge1-OJICUG_clean_linker_0
_symmetry_space_group_name_H-M    P1
_symmetry_Int_Tables_number       1
_symmetry_cell_setting            triclinic
loop_
_symmetry_equiv_pos_as_xyz
'x, y, z'
_cell_length_a     28.11801
_cell_length_b     28.529544
_cell_length_c     35.630024
_cell_angle_alpha  90.191108
_cell_angle_beta   89.280246
_cell_angle_gamma 119.94242
loop_
_atom_site_label
_atom_site_type_symbol
_atom_site_fract_x
_atom_site_fract_y
_atom_site_fract_z
_atom_type_partial_charge
O0 O 0.39943 0.57882 0.06084 0.0
Tb1 Tb 0.33952 0.49757 0.07957 0.0
C2 C 0.29097 0.40578 0.14514 0.0
O3 O 0.27097 0.37838 0.04816 0.0
Tb4 Tb 0.24512 0.31364 0.08819 0.0
C5 C 0.25837 0.23006 0.07189 0.0
O6 O 0.35203 0.45202 0.0349 0.0
O7 O 0.16077 0.28208 0.1067 0.0
C8 C 0.12304 0.26603 0.08073 0.0
O9 O 0.13918 0.27644 0.04546 0.0
O10 O 0.30182 0.45366 0.13219 0.0
O11 O 0.30409 0.37428 0.12592 0.0
O12 O 0.28112 0.52647 0.07492 0.0
C13 C 0.31829 0.40027 0.03021 0.0
C14 C 0.43351 0.58984 0.08816 0.0
O15 O 0.23895 0.25185 0.04901 0.0
O16 O 0.27214 0.25676 0.10341 0.0
C17 C 0.27316 0.54782 0.10564 0.0
O18 O 0.29723 0.54622 0.13658 0.0
O19 O 0.4149 0.54837 0.11081 0.0
O20 O 0.89377 0.3444 0.56974 0.0
Tb21 Tb 0.90107 0.278 0.59389 0.0
C22 C 0.92062 0.21463 0.65826 0.0
O23 O 0.93287 0.20853 0.53387 0.0
Tb24 Tb 0.94236 0.16801 0.58198 0.0
C25 C 1.04135 0.17632 0.57846 0.0
O26 O 0.96499 0.29532 0.5524 0.0
O27 O 0.88514 0.08145 0.58171 0.0
C28 C 0.88013 0.05119 0.55243 0.0
O29 O 0.90242 0.07473 0.52022 0.0
O30 O 0.93443 0.26238 0.644 0.0
O31 O 0.91094 0.17229 0.63758 0.0
O32 O 0.81312 0.21917 0.59108 0.0
C33 C 0.96683 0.26046 0.52924 0.0
C34 C 0.90229 0.37153 0.60066 0.0
O35 O 0.99802 0.14166 0.5606 0.0
O36 O 1.02915 0.20691 0.59912 0.0
C37 C 0.7833 0.21188 0.62181 0.0
O38 O 0.80924 0.23244 0.65334 0.0
O39 O 0.91033 0.34603 0.62781 0.0
O40 O 0.56102 0.91903 0.08994 0.0
Tb41 Tb 0.63794 0.93293 0.11436 0.0
C42 C 0.71936 0.93801 0.17483 0.0
O43 O 0.76206 0.96232 0.08485 0.0
Tb44 Tb 0.82608 0.98822 0.12666 0.0
C45 C 0.90872 0.08699 0.1132 0.0
O46 O 0.70224 0.99432 0.07841 0.0
O47 O 0.85884 0.93629 0.1431 0.0
C48 C 0.87486 0.91322 0.1177 0.0
O49 O 0.8612 0.91295 0.08254 0.0
O50 O 0.66733 0.92071 0.16781 0.0
O51 O 0.75716 0.98249 0.15829 0.0
O52 O 0.61072 0.85004 0.09783 0.0
C53 C 0.75029 0.99828 0.0711 0.0
C54 C 0.54565 0.93823 0.11776 0.0
O55 O 0.88608 0.04848 0.08847 0.0
O56 O 0.88438 0.06995 0.14584 0.0
C57 C 0.58082 0.81173 0.12234 0.0
O58 O 0.57029 0.82564 0.15524 0.0
O59 O 0.58314 0.95569 0.14363 0.0
O60 O 0.71297 0.50986 0.58515 0.0
Tb61 Tb 0.77673 0.58876 0.60508 0.0
C62 C 0.8396 0.67812 0.66517 0.0
O63 O 0.86662 0.71239 0.56777 0.0
Tb64 Tb 0.88881 0.77479 0.61024 0.0
C65 C 0.86306 0.84793 0.58773 0.0
O66 O 0.77717 0.64379 0.56255 0.0
O67 O 0.97167 0.81656 0.63334 0.0
C68 C 1.01546 0.83085 0.61195 0.0
O69 O 1.00875 0.81253 0.57741 0.0
O70 O 0.8166 0.62626 0.65756 0.0
O71 O 0.82774 0.70901 0.64455 0.0
O72 O 0.83204 0.55791 0.59408 0.0
C73 C 0.81806 0.69143 0.5518 0.0
C74 C 0.67792 0.49999 0.61232 0.0
O75 O 0.88987 0.83011 0.56792 0.0
O76 O 0.85049 0.82432 0.62058 0.0
C77 C 0.84124 0.5335 0.62198 0.0
O78 O 0.8197 0.53248 0.65511 0.0
O79 O 0.69831 0.54077 0.63551 0.0
O80 O 0.21465 0.74194 0.08652 0.0
Tb81 Tb 0.19758 0.79662 0.11984 0.0
C82 C 0.20047 0.86233 0.19002 0.0
O83 O 0.1675 0.87171 0.06431 0.0
Tb84 Tb 0.16726 0.90643 0.11886 0.0
C85 C 1.06739 0.89315 0.13323 0.0
O86 O 0.13 0.78478 0.08472 0.0
O87 O 0.21732 0.98963 0.10027 0.0
C88 C 0.20237 1.00802 0.07161 0.0
O89 O 0.15987 0.97388 0.05184 0.0
O90 O 0.17953 0.8131 0.17624 0.0
O91 O 0.21081 0.90417 0.1687 0.0
O92 O 0.28229 0.86149 0.11162 0.0
C93 C 0.13548 0.81959 0.05872 0.0
C94 C 0.20415 0.7066 0.11283 0.0
O95 O 0.07719 0.85514 0.12215 0.0
O96 O 0.11377 0.93781 0.13696 0.0
C97 C 0.31734 0.87049 0.13878 0.0
O98 O 0.29819 0.84496 0.17085 0.0
O99 O 0.18966 0.72188 0.14332 0.0
O100 O 0.5331 0.17258 0.59482 0.0
Tb101 Tb 0.45972 0.16167 0.62539 0.0
C102 C 0.38993 0.16386 0.69399 0.0
O103 O 0.34471 0.12412 0.57055 0.0
Tb104 Tb 0.30751 0.12285 0.62477 0.0
C105 C 0.22401 1.02252 0.63894 0.0
O106 O 0.40454 0.09577 0.58916 0.0
O107 O 0.26565 0.16611 0.60767 0.0
C108 C 0.22974 0.14675 0.58043 0.0
O109 O 0.22581 0.10596 0.56074 0.0
O110 O 0.42118 0.14482 0.68101 0.0
O111 O 0.35549 0.17023 0.67268 0.0
O112 O 0.48194 0.24539 0.61444 0.0
C113 C 0.37062 0.09695 0.56454 0.0
C114 C 0.5567 0.16374 0.62286 0.0
O115 O 0.27262 1.03431 0.62661 0.0
O116 O 0.2237 0.06732 0.64469 0.0
C117 C 0.50611 0.28152 0.64116 0.0
O118 O 0.50778 0.2644 0.67503 0.0
O119 O 0.52529 0.15328 0.6525 0.0
O120 O 0.59299 0.69217 0.39156 0.0
Tb121 Tb 0.67234 0.75287 0.36751 0.0
C122 C 0.7457 0.8226 0.29606 0.0
O123 O 0.79641 0.83306 0.41254 0.0
Tb124 Tb 0.83595 0.8572 0.35748 0.0
C125 C 0.9242 0.84527 0.35496 0.0
O126 O 0.73158 0.74422 0.40133 0.0
O127 O 0.87131 0.94489 0.36082 0.0
C128 C 0.90579 0.97011 0.38827 0.0
O129 O 0.91013 0.94039 0.41464 0.0
O130 O 0.69912 0.79875 0.31524 0.0
O131 O 0.79025 0.82239 0.3064 0.0
O132 O 0.64638 0.80851 0.38826 0.0
C133 C 0.76886 0.78191 0.42294 0.0
C134 C 0.57753 0.65809 0.36384 0.0
O135 O 0.87916 0.81409 0.37355 0.0
O136 O 0.91908 0.88247 0.33778 0.0
C137 C 0.61868 0.8212 0.36474 0.0
O138 O 0.60958 0.80071 0.33079 0.0
O139 O 0.61606 0.6773 0.33795 0.0
O140 O 0.96971 0.60012 0.88247 0.0
Tb141 Tb 0.93411 0.65061 0.86673 0.0
C142 C 0.94579 0.73954 0.80923 0.0
O143 O 1.02536 0.76603 0.89162 0.0
Tb144 Tb 0.98826 0.8145 0.87901 0.0
C145 C 1.06676 0.9167 0.8853 0.0
O146 O 0.97015 0.68661 0.92045 0.0
O147 O 0.91467 0.79438 0.91166 0.0
C148 C 0.89566 0.82689 0.92095 0.0
O149 O 0.85185 0.80746 0.94274 0.0
O150 O 0.97054 0.71446 0.82349 0.0
O151 O 0.94901 0.78254 0.82579 0.0
O152 O 0.84805 0.62041 0.87953 0.0
C153 C 1.01045 0.73683 0.92229 0.0
C154 C 0.94519 0.56283 0.85728 0.0
O155 O 1.04011 0.88444 0.91309 0.0
O156 O 1.0475 0.89205 0.8535 0.0
C157 C 0.811 0.598 0.85318 0.0
O158 O 0.8274 0.60229 0.81804 0.0
O159 O 0.91621 0.57633 0.83639 0.0
O160 O 0.42053 0.85421 0.42005 0.0
Tb161 Tb 0.36018 0.87268 0.39741 0.0
C162 C 0.31097 0.90828 0.33257 0.0
O163 O 0.27479 0.91666 0.42777 0.0
Tb164 Tb 0.26204 0.9602 0.38288 0.0
C165 C 0.28716 0.06109 0.39789 0.0
O166 O 0.35839 0.9261 0.44083 0.0
O167 O 0.18056 0.91474 0.35971 0.0
C168 C 0.1396 0.87908 0.38057 0.0
O169 O 0.15007 0.86714 0.41392 0.0
O170 O 0.3274 0.87447 0.34255 0.0
O171 O 0.32423 0.95094 0.35341 0.0
O172 O 0.30534 0.7858 0.40111 0.0
C173 C 0.32064 0.93992 0.44684 0.0
C174 C 0.4593 0.88265 0.39586 0.0
O175 O 0.26229 1.02024 0.42085 0.0
O176 O 0.29847 0.04507 0.36637 0.0
C177 C 0.30558 0.75805 0.37151 0.0
O178 O 0.33648 0.78474 0.34249 0.0
O179 O 0.44227 0.90591 0.37232 0.0
O180 O 0.60148 0.38504 0.92152 0.0
Tb181 Tb 0.52304 0.31402 0.9088 0.0
C182 C 0.43404 0.26203 0.84194 0.0
O183 O 0.39898 0.25314 0.93174 0.0
Tb184 Tb 0.33617 0.23889 0.89219 0.0
C185 C 0.2619 0.26819 0.90752 0.0
O186 O 0.47521 0.3224 0.95468 0.0
O187 O 0.28928 0.15429 0.87798 0.0
C188 C 0.26458 0.12083 0.90606 0.0
O189 O 0.27674 0.13972 0.94041 0.0
O190 O 0.47712 0.26614 0.85983 0.0
O191 O 0.40618 0.28492 0.85472 0.0
O192 O 0.56579 0.26884 0.91962 0.0
C193 C 0.42155 0.29432 0.95465 0.0
C194 C 0.6041 0.41328 0.8923 0.0
O195 O 0.28125 0.24775 0.9316 0.0
O196 O 0.28707 0.27505 0.87516 0.0
C197 C 0.5848 0.25282 0.89115 0.0
O198 O 0.57261 0.25957 0.85687 0.0
O199 O 0.56074 0.38549 0.87185 0.0
O200 O 0.23697 0.50546 0.3994 0.0
Tb201 Tb 0.23205 0.43637 0.36933 0.0
C202 C 0.21609 0.36009 0.30044 0.0
O203 O 0.18584 0.32775 0.42307 0.0
Tb204 Tb 0.18367 0.28271 0.37344 0.0
C205 C 0.08872 0.18852 0.37532 0.0
O206 O 0.16075 0.38833 0.40488 0.0
O207 O 0.24562 0.25906 0.37875 0.0
C208 C 0.25311 0.24134 0.41091 0.0
O209 O 0.22891 0.24621 0.44128 0.0
O210 O 0.20239 0.39355 0.31648 0.0
O211 O 0.21775 0.32051 0.31865 0.0
O212 O 0.31827 0.45956 0.37734 0.0
C213 C 0.15287 0.34763 0.42608 0.0
C214 C 0.23687 0.53202 0.36992 0.0
O215 O 0.13336 0.19953 0.39263 0.0
O216 O 0.09737 0.23082 0.35573 0.0
C217 C 0.35283 0.48303 0.34887 0.0
O218 O 0.33222 0.48113 0.31563 0.0
O219 O 0.23388 0.50455 0.33989 0.0
O220 O 0.81267 0.25335 0.92014 0.0
Tb221 Tb 0.87224 0.23311 0.89688 0.0
C222 C 0.89805 0.18615 0.8201 0.0
O223 O 0.85875 0.11672 0.9206 0.0
Tb224 Tb 0.92563 0.12879 0.88439 0.0
C225 C 0.93441 1.03943 0.88965 0.0
O226 O 0.88414 0.19754 0.94815 0.0
O227 O 1.00802 0.19831 0.88871 0.0
C228 C 1.03555 0.20692 0.92003 0.0
O229 O 1.00905 0.17938 0.95017 0.0
O230 O 0.90545 0.22753 0.84145 0.0
O231 O 0.89228 0.14031 0.8332 0.0
O232 O 0.91764 0.32169 0.89241 0.0
C233 C 0.8679 0.14558 0.95091 0.0
C234 C 0.77084 0.21953 0.90059 0.0
O235 O 0.94099 0.0727 0.91671 0.0
O236 O 0.92239 0.05633 0.85914 0.0
C237 C 0.90461 0.34243 0.86381 0.0
O238 O 0.86962 0.30857 0.83936 0.0
O239 O 0.78581 0.19213 0.87862 0.0
C240 C 0.26353 0.10341 0.09264 0.0
C241 C 0.22583 0.0671 0.06662 0.0
H242 H 0.30365 0.18403 0.11454 0.0
C243 C 0.20584 0.0873 0.0387 0.0
H244 H 0.28 0.08933 0.1144 0.0
C245 C 0.22028 0.14187 0.03842 0.0
C246 C 0.25412 0.17687 0.06648 0.0
H247 H 0.17656 0.06044 0.01837 0.0
H248 H 0.20191 0.15567 0.01784 0.0
C249 C 0.27722 0.15771 0.09272 0.0
C250 C 0.181 0.19564 0.60382 0.0
C251 C 0.1871 0.16276 0.57676 0.0
H252 H 0.12993 0.22618 0.62563 0.0
C253 C 0.14799 0.13997 0.54825 0.0
H254 H 0.2104 0.21387 0.62617 0.0
C255 C 0.10211 0.14675 0.54818 0.0
C256 C 0.09422 0.17676 0.57644 0.0
H257 H 0.15153 0.11491 0.52675 0.0
H258 H 1.07176 0.12685 0.52654 0.0
C259 C 0.13493 0.20268 0.6036 0.0
C260 C 0.99454 0.16842 0.1352 0.0
C261 C 0.95931 0.13887 0.10585 0.0
H262 H 1.07457 0.23229 0.15033 0.0
C263 C 0.97565 0.15601 0.0687 0.0
H264 H 0.98281 0.15592 0.16411 0.0
C265 C 1.0276 0.19997 0.06081 0.0
C266 C 1.06473 0.22714 0.0899 0.0
H267 H 0.94903 0.13414 0.04557 0.0
H268 H 1.03958 0.21071 0.03171 0.0
C269 C 1.04705 0.21203 0.12728 0.0
C270 C 0.84017 0.92007 0.60292 0.0
C271 C 0.8562 0.89392 0.57648 0.0
H272 H 0.8343 0.99035 0.61581 0.0
C273 C 0.87149 0.91563 0.54011 0.0
H274 H 0.82789 0.90397 0.63109 0.0
C275 C 0.87487 0.96492 0.5312 0.0
C276 C 0.86343 0.99359 0.55863 0.0
H277 H 0.88351 0.89591 0.51905 0.0
H278 H 0.88983 0.98206 0.50355 0.0
C279 C 0.84385 0.96955 0.59411 0.0
C280 C 1.0048 0.92531 0.15744 0.0
C281 C 1.01318 0.89009 0.13427 0.0
H282 H 0.95332 0.9586 0.1714 0.0
C283 C 0.97222 0.85747 0.10868 0.0
H284 H 1.03587 0.95109 0.17726 0.0
C285 C 0.92558 0.8629 0.10449 0.0
C286 C 0.91821 0.89978 0.12666 0.0
H287 H 0.97792 0.8304 0.09019 0.0
H288 H 0.89626 0.83968 0.08298 0.0
C289 C 0.95739 0.92944 0.15413 0.0
C290 C 0.11861 0.88277 0.6052 0.0
C291 C 1.07062 0.87459 0.62394 0.0
H292 H 0.20525 0.93526 0.59614 0.0
C293 C 0.07535 0.91251 0.65113 0.0
H294 H 0.11645 0.8544 0.58408 0.0
C295 C 0.12603 0.95929 0.65747 0.0
C296 C 0.17344 0.96859 0.63753 0.0
H297 H 1.03932 0.90778 0.66593 0.0
H298 H 0.12769 0.98928 0.67698 0.0
C299 C 0.16958 0.92896 0.61224 0.0
C300 C 1.07215 0.88516 0.3388 0.0
C301 C 0.08239 0.86159 0.36997 0.0
H302 H 1.01363 0.89826 0.30973 0.0
C303 C 1.03807 0.82643 0.3933 0.0
H304 H 0.10521 0.91219 0.32013 0.0
C305 C 0.98531 0.81801 0.38702 0.0
C306 C 0.97629 0.84503 0.35754 0.0
H307 H 1.04456 0.80742 0.41745 0.0
H308 H 0.95241 0.79297 0.40647 0.0
C309 C 1.01969 0.87726 0.33282 0.0
C310 C 0.14478 1.00214 0.85879 0.0
C311 C 0.11713 0.96918 0.88985 0.0
H312 H 0.21394 0.07621 0.8394 0.0
C313 C 0.13997 0.98484 0.92564 0.0
H314 H 0.12823 0.99047 0.83084 0.0
C315 C 0.18925 1.03297 0.93044 0.0
C316 C 0.21643 0.06687 0.89966 0.0
H317 H 0.12002 0.95967 0.95001 0.0
H318 H 0.20569 1.04392 0.95842 0.0
C319 C 0.19404 0.0508 0.86366 0.0
C320 C 0.29673 0.19494 0.37727 0.0
C321 C 0.27495 0.20362 0.41062 0.0
H322 H 0.3184 0.14294 0.34725 0.0
C323 C 0.26626 0.16991 0.44172 0.0
H324 H 0.30437 0.22046 0.35291 0.0
C325 C 0.27409 0.12537 0.43835 0.0
C326 C 0.29111 0.11406 0.40395 0.0
H327 H 0.2498 0.17558 0.4679 0.0
H328 H 0.26374 0.09807 0.46202 0.0
C329 C 0.30483 0.15056 0.374 0.0
C330 C 0.18139 0.25093 0.94772 0.0
C331 C 0.20905 0.26708 0.91296 0.0
H332 H 0.10486 0.21977 0.97733 0.0
C333 C 0.18146 0.27239 0.8821 0.0
H334 H 0.20164 0.24661 0.97205 0.0
C335 C 0.12573 0.25692 0.88507 0.0
C336 C 0.09661 0.23587 0.919 0.0
H337 H 0.20175 0.28478 0.85495 0.0
H338 H 0.10473 0.25814 0.86014 0.0
C339 C 0.12578 0.23551 0.95072 0.0
C340 C 1.02973 0.10488 0.41182 0.0
C341 C 1.037 0.13598 0.37955 0.0
H342 H 0.98217 1.02959 0.44034 0.0
C343 C 0.99699 0.11439 0.35148 0.0
H344 H 1.05944 0.12064 0.43419 0.0
C345 C 0.95235 0.06112 0.35477 0.0
C346 C 0.94677 1.02909 0.38643 0.0
H347 H 1.00159 0.13755 0.32632 0.0
H348 H 0.92358 0.04439 0.33194 0.0
C349 C 0.98515 0.05251 0.41537 0.0
C350 C 0.91327 0.89809 0.87305 0.0
C351 C 0.92124 0.88425 0.90934 0.0
H352 H 0.91101 0.95842 0.8381 0.0
C353 C 0.93976 0.92389 0.93743 0.0
H354 H 0.89757 0.8678 0.85115 0.0
C355 C 0.94711 0.97527 0.93014 0.0
C356 C 0.93531 0.98809 0.89467 0.0
H357 H 0.94514 0.91395 0.96582 0.0
H358 H 0.95911 1.00396 0.953 0.0
C359 C 0.92029 0.9497 0.86574 0.0
C360 C 0.21137 0.63067 0.14163 0.0
C361 C 0.21358 0.6601 0.10958 0.0
H362 H 0.22782 0.57143 0.16522 0.0
C363 C 0.22895 0.64731 0.07496 0.0
H364 H 0.1995 0.63945 0.16863 0.0
C365 C 0.24463 0.60773 0.07284 0.0
C366 C 0.24582 0.58081 0.10543 0.0
H367 H 0.23078 0.66928 0.04974 0.0
H368 H 0.25882 0.60055 0.04619 0.0
C369 C 0.22757 0.59166 0.1396 0.0
C370 C 0.69213 0.17821 0.65444 0.0
C371 C 0.72287 0.1911 0.62069 0.0
H372 H 0.61587 0.1591 0.68156 0.0
C373 C 0.69673 0.19062 0.58715 0.0
H374 H 0.71079 0.17819 0.68085 0.0
C375 C 0.64222 0.1802 0.58771 0.0
C376 C 0.61242 0.16951 0.62172 0.0
H377 H 0.71914 0.20081 0.56072 0.0
H378 H 0.62391 0.18201 0.56158 0.0
C379 C 0.63763 0.16735 0.65493 0.0
C380 C 0.53654 0.7379 0.07493 0.0
C381 C 0.5525 0.75395 0.11207 0.0
H382 H 0.48557 0.67258 0.03829 0.0
C383 C 0.53499 0.71426 0.14035 0.0
H384 H 0.54928 0.76766 0.05264 0.0
C385 C 0.49938 0.65981 0.13205 0.0
C386 C 0.47987 0.64442 0.09548 0.0
H387 H 0.54703 0.7256 0.16922 0.0
H388 H 0.4844 0.63041 0.15467 0.0
C389 C 0.49999 0.68357 0.06677 0.0
C390 C 0.87025 0.48225 0.57921 0.0
C391 C 0.86662 0.49965 0.61551 0.0
H392 H 0.88442 0.42745 0.54605 0.0
C393 C 0.88132 0.47911 0.64633 0.0
H394 H 0.85914 0.49733 0.55495 0.0
C395 C 0.89596 0.43942 0.64121 0.0
C396 C 0.89582 0.41934 0.60523 0.0
H397 H 0.87934 0.49209 0.67463 0.0
H398 H 0.90483 0.42269 0.66563 0.0
C399 C 0.88451 0.44215 0.57413 0.0
C400 C 0.45456 0.91544 0.09094 0.0
C401 C 0.48996 0.93141 0.12182 0.0
H402 H 0.37218 0.88503 0.07182 0.0
C403 C 0.46947 0.93453 0.1573 0.0
H404 H 0.46927 0.91272 0.06322 0.0
C405 C 0.41376 0.91803 0.16229 0.0
C406 C 0.37756 0.89898 0.13181 0.0
H407 H 0.4957 0.9466 0.18161 0.0
H408 H 0.3985 0.91789 0.19039 0.0
C409 C 0.39899 0.89985 0.09581 0.0
C410 C 0.60638 0.40928 0.58899 0.0
C411 C 0.6272 0.44719 0.61829 0.0
H412 H 0.5505 0.32744 0.57292 0.0
C413 C 0.60256 0.43195 0.65401 0.0
H414 H 0.6245 0.41998 0.56111 0.0
C415 C 0.5606 0.37869 0.66092 0.0
C416 C 0.54177 0.33986 0.63208 0.0
H417 H 0.61778 0.46028 0.67712 0.0
H418 H 0.54448 0.36731 0.68926 0.0
C419 C 0.56374 0.35631 0.59571 0.0
C420 C 0.53882 0.89381 0.35741 0.0
C421 C 0.50968 0.8793 0.39156 0.0
H422 H 0.59725 0.88677 0.32232 0.0
C423 C 0.52438 0.85439 0.41955 0.0
H424 H 0.52838 0.91314 0.33543 0.0
C425 C 0.56454 0.84011 0.41231 0.0
C426 C 0.58966 0.84978 0.37675 0.0
H427 H 0.50257 0.84305 0.44623 0.0
H428 H 0.57243 0.81755 0.43331 0.0
C429 C 0.57818 0.87872 0.34995 0.0
C430 C 0.74041 0.54107 0.90135 0.0
C431 C 0.75371 0.55777 0.86375 0.0
H432 H 0.68251 0.4819 0.93961 0.0
C433 C 0.71391 0.5304 0.83609 0.0
H434 H 0.76987 0.56123 0.92342 0.0
C435 C 0.6633 0.48505 0.84557 0.0
C436 C 0.65216 0.4661 0.88274 0.0
H437 H 0.72281 0.54239 0.80688 0.0
H438 H 0.63436 0.46309 0.82356 0.0
C439 C 0.69038 0.49545 0.91066 0.0
C440 C 0.27093 0.67097 0.33735 0.0
C441 C 0.27857 0.6984 0.3716 0.0
H442 H 0.25113 0.59656 0.31002 0.0
C443 C 0.26638 0.66908 0.4053 0.0
H444 H 0.27959 0.69245 0.31087 0.0
C445 C 0.25042 0.61405 0.40474 0.0
C446 C 0.24592 0.58756 0.37048 0.0
H447 H 0.27206 0.68919 0.43207 0.0
H448 H 0.24367 0.59279 0.43115 0.0
C449 C 0.25459 0.61606 0.33679 0.0
C450 C 0.70461 0.24326 0.93045 0.0
C451 C 0.71777 0.2191 0.9006 0.0
H452 H 0.65159 0.27163 0.95143 0.0
C453 C 0.68298 0.20048 0.86953 0.0
H454 H 0.73067 0.25801 0.95482 0.0
C455 C 0.63803 0.20907 0.86735 0.0
C456 C 0.62633 0.23555 0.89648 0.0
H457 H 0.69217 0.18197 0.84606 0.0
H458 H 0.61351 0.1966 0.8422 0.0
C459 C 0.65913 0.25092 0.9286 0.0
C460 C 0.44933 0.53849 0.32355 0.0
C461 C 0.41274 0.52102 0.35455 0.0
H462 H 0.52997 0.59465 0.30221 0.0
C463 C 0.43267 0.54613 0.38939 0.0
H464 H 0.43545 0.52024 0.29625 0.0
C465 C 0.48673 0.5895 0.39259 0.0
C466 C 0.52249 0.60832 0.3612 0.0
H467 H 0.40567 0.53428 0.41374 0.0
H468 H 0.50005 0.60937 0.41948 0.0
C469 C 0.50358 0.58127 0.3269 0.0
C470 C 0.91414 0.47232 0.82807 0.0
C471 C 0.94207 0.50915 0.85691 0.0
H472 H 0.88158 0.39189 0.80734 0.0
C473 C 0.96213 0.49217 0.88692 0.0
H474 H 0.89819 0.48403 0.80458 0.0
C475 C 0.95213 0.43864 0.88883 0.0
C476 C 0.92212 0.40114 0.86063 0.0
H477 H 0.98367 0.51961 0.9097 0.0
H478 H 0.96627 0.42624 0.91295 0.0
C479 C 0.90455 0.41927 0.8298 0.0
C480 C 0.24737 0.33525 0.24044 0.0
C481 C 0.23081 0.36806 0.2597 0.0
H482 H 0.27903 0.32095 0.18913 0.0
C483 C 0.23144 0.41109 0.24012 0.0
H484 H 0.24741 0.3017 0.25454 0.0
C485 C 0.24969 0.42214 0.20286 0.0
C486 C 0.26788 0.39055 0.18389 0.0
H487 H 0.21896 0.43729 0.25375 0.0
H488 H 0.25024 0.45623 0.18914 0.0
C489 C 0.26555 0.34628 0.2029 0.0
C490 C 0.91982 0.24975 0.72309 0.0
C491 C 0.91486 0.20772 0.69968 0.0
H492 H 0.91816 0.27606 0.77922 0.0
C493 C 0.90339 0.15847 0.71624 0.0
H494 H 0.92826 0.28816 0.71134 0.0
C495 C 0.89741 0.15147 0.75513 0.0
C496 C 0.90271 0.19353 0.77865 0.0
H497 H 0.89915 0.1251 0.69921 0.0
H498 H 0.88886 0.11293 0.76667 0.0
C499 C 0.91379 0.24274 0.7621 0.0
C500 C 0.69051 0.85264 0.20985 0.0
C501 C 0.7323 0.90536 0.20065 0.0
H502 H 0.66236 0.78499 0.24687 0.0
C503 C 0.78273 0.92696 0.21923 0.0
H504 H 0.65157 0.83406 0.19564 0.0
C505 C 0.78923 0.89786 0.2486 0.0
C506 C 0.74523 0.8472 0.25977 0.0
H507 H 0.81575 0.96734 0.21264 0.0
H508 H 0.82704 0.91661 0.26427 0.0
C509 C 0.69671 0.82416 0.23916 0.0
C510 C 0.89107 0.66588 0.71729 0.0
C511 C 0.87291 0.69812 0.69959 0.0
H512 H 0.92832 0.65357 0.76548 0.0
C513 C 0.88249 0.74616 0.71701 0.0
H514 H 0.88468 0.62871 0.70449 0.0
C515 C 0.90721 0.76017 0.75229 0.0
C516 C 0.92344 0.72673 0.77066 0.0
H517 H 0.86897 0.77179 0.70415 0.0
H518 H 0.91254 0.79673 0.76545 0.0
C519 C 0.91617 0.68008 0.75232 0.0
C520 C 0.2245 0.83175 0.24922 0.0
C521 C 0.22187 0.87257 0.229 0.0
H522 H 0.25438 0.81106 0.29759 0.0
C523 C 0.24401 0.92434 0.24525 0.0
H524 H 0.20779 0.79139 0.23784 0.0
C525 C 0.27056 0.93561 0.27997 0.0
C526 C 0.27602 0.8955 0.29891 0.0
H527 H 0.24237 0.95671 0.23061 0.0
H528 H 0.28889 0.97627 0.2911 0.0
C529 C 0.25147 0.84315 0.28356 0.0
C530 C 0.44911 0.20883 0.79147 0.0
C531 C 0.41923 0.23286 0.80543 0.0
H532 H 0.46342 0.16824 0.74585 0.0
C533 C 0.37726 0.23088 0.78329 0.0
H534 H 0.48155 0.20916 0.80772 0.0
C535 C 0.36679 0.20718 0.7476 0.0
C536 C 0.39798 0.18479 0.73314 0.0
H537 H 0.35322 0.24869 0.79311 0.0
H538 H 0.33487 0.20744 0.73107 0.0
C539 C 0.43865 0.18515 0.75585 0.0
C540 C 0.37524 0.34981 0.95329 0.0
C541 C 0.39036 0.3171 0.97331 0.0
H542 H 0.33822 0.39996 0.95573 0.0
C543 C 0.38115 0.31145 0.0123 0.0
H544 H 0.38379 0.35637 0.92344 0.0
C545 C 0.3564 0.33742 0.03085 0.0
C546 C 0.33909 0.36819 0.01062 0.0
H547 H 0.39444 0.28813 0.02855 0.0
H548 H 0.35229 0.33485 0.06112 0.0
C549 C 0.34928 0.37466 0.97173 0.0
C550 C 0.0807 0.2701 0.46481 0.0
C551 C 0.10568 0.32436 0.45287 0.0
H552 H 1.01577 0.20647 0.49736 0.0
C553 C 0.08332 0.35619 0.4652 0.0
H554 H 0.09662 0.24438 0.45544 0.0
C555 C 1.03778 0.33483 0.48937 0.0
C556 C 1.01253 0.28068 0.50132 0.0
H557 H 0.10141 0.39805 0.45647 0.0
H558 H 1.02228 0.36092 0.49874 0.0
C559 C 1.03409 0.24826 0.48849 0.0
C560 C 0.82174 1.03152 0.02042 0.0
C561 C 0.78903 1.04167 0.04536 0.0
H562 H 0.87315 0.05734 0.97152 0.0
C563 C 0.78865 0.09071 0.04209 0.0
H564 H 0.82252 0.99399 0.02197 0.0
C565 C 0.81843 0.12766 0.01323 0.0
C566 C 0.84808 0.11549 0.98679 0.0
H567 H 0.76358 0.09947 0.06093 0.0
H568 H 0.81507 0.16364 0.01007 0.0
C569 C 0.85077 0.06792 0.99148 0.0
C570 C 0.84939 0.76252 0.50041 0.0
C571 C 0.80695 0.72014 0.52129 0.0
H572 H 0.87064 0.81702 0.45346 0.0
C573 C 0.7523 0.70145 0.51071 0.0
H574 H 0.89193 0.77706 0.50719 0.0
C575 C 0.74037 0.72287 0.47944 0.0
C576 C 0.78258 0.76447 0.45829 0.0
H577 H 0.71836 0.66898 0.52599 0.0
H578 H 0.6979 0.70625 0.47145 0.0
C579 C 0.83724 0.78522 0.46956 0.0
C580 C 1.02809 0.72611 0.98966 0.0
C581 C 1.04115 0.75897 0.95759 0.0
H582 H 1.04769 0.71932 0.04643 0.0
C583 C 0.08515 0.81255 0.95924 0.0
H584 H 0.99463 0.68466 0.98939 0.0
C585 C 0.11527 0.83278 0.99221 0.0
C586 C 0.10276 0.79949 0.02402 0.0
H587 H 0.09693 0.83876 0.9349 0.0
H588 H 0.14903 0.87409 0.99252 0.0
C589 C 1.0587 0.74601 0.02237 0.0
C590 C 0.38708 1.01743 0.48586 0.0
C591 C 0.33267 0.9836 0.47438 0.0
H592 H 0.44138 0.07973 0.52313 0.0
C593 C 0.29075 0.98996 0.49134 0.0
H594 H 0.42049 1.01378 0.47352 0.0
C595 C 0.30317 1.02924 0.51922 0.0
C596 C 0.35748 0.06151 0.53139 0.0
H597 H 0.2483 0.9637 0.48377 0.0
H598 H 0.27008 1.03245 0.53256 0.0
C599 C 0.39922 0.05548 0.51419 0.0
loop_
_geom_bond_atom_site_label_1
_geom_bond_atom_site_label_2
_geom_bond_distance
_geom_bond_site_symmetry_2
_ccdc_geom_bond_type
O0 Tb1 2.506 . S
O0 C14 1.265 . S
Tb1 O0 2.506 . S
Tb1 O6 2.312 . S
Tb1 O10 2.271 . S
Tb1 O12 2.338 . S
Tb1 O19 2.441 . S
C2 O10 1.252 . S
C2 O11 1.253 . S
O3 Tb4 2.271 . S
O3 C13 1.252 . S
Tb4 O3 2.271 . S
Tb4 O7 2.338 . S
Tb4 O11 2.312 . S
Tb4 O15 2.441 . S
Tb4 O16 2.506 . S
C5 O15 1.244 . S
C5 O16 1.265 . S
O6 Tb1 2.312 . S
O6 C13 1.253 . S
O7 Tb4 2.338 . S
O7 C8 1.258 . S
C8 O7 1.258 . S
C8 O9 1.251 . S
O9 C8 1.251 . S
O10 Tb1 2.271 . S
O10 C2 1.252 . S
O11 C2 1.253 . S
O11 Tb4 2.312 . S
O12 Tb1 2.338 . S
O12 C17 1.258 . S
C13 O3 1.252 . S
C13 O6 1.253 . S
C14 O0 1.265 . S
C14 O19 1.244 . S
O15 Tb4 2.441 . S
O15 C5 1.244 . S
O16 Tb4 2.506 . S
O16 C5 1.265 . S
C17 O12 1.258 . S
C17 O18 1.251 . S
O18 C17 1.251 . S
O19 Tb1 2.441 . S
O19 C14 1.244 . S
O20 Tb21 2.506 . S
O20 C34 1.265 . S
Tb21 O20 2.506 . S
Tb21 O26 2.312 . S
Tb21 O30 2.271 . S
Tb21 O32 2.338 . S
Tb21 O39 2.441 . S
C22 O30 1.252 . S
C22 O31 1.253 . S
O23 Tb24 2.271 . S
O23 C33 1.252 . S
Tb24 O23 2.271 . S
Tb24 O27 2.338 . S
Tb24 O31 2.312 . S
Tb24 O35 2.441 . S
Tb24 O36 2.506 . S
C25 O35 1.244 . S
C25 O36 1.265 . S
O26 Tb21 2.312 . S
O26 C33 1.253 . S
O27 Tb24 2.338 . S
O27 C28 1.258 . S
C28 O27 1.258 . S
C28 O29 1.251 . S
O29 C28 1.251 . S
O30 Tb21 2.271 . S
O30 C22 1.252 . S
O31 C22 1.253 . S
O31 Tb24 2.312 . S
O32 Tb21 2.338 . S
O32 C37 1.258 . S
C33 O23 1.252 . S
C33 O26 1.253 . S
C34 O20 1.265 . S
C34 O39 1.244 . S
O35 Tb24 2.441 . S
O35 C25 1.244 . S
O36 Tb24 2.506 . S
O36 C25 1.265 . S
C37 O32 1.258 . S
C37 O38 1.251 . S
O38 C37 1.251 . S
O39 Tb21 2.441 . S
O39 C34 1.244 . S
O40 Tb41 2.506 . S
O40 C54 1.265 . S
Tb41 O40 2.506 . S
Tb41 O46 2.312 . S
Tb41 O50 2.271 . S
Tb41 O52 2.338 . S
Tb41 O59 2.441 . S
C42 O50 1.252 . S
C42 O51 1.253 . S
O43 Tb44 2.271 . S
O43 C53 1.252 . S
Tb44 O43 2.271 . S
Tb44 O47 2.338 . S
Tb44 O51 2.312 . S
Tb44 O55 2.441 . S
Tb44 O56 2.506 . S
C45 O55 1.244 . S
C45 O56 1.265 . S
O46 Tb41 2.312 . S
O46 C53 1.253 . S
O47 Tb44 2.338 . S
O47 C48 1.258 . S
C48 O47 1.258 . S
C48 O49 1.251 . S
O49 C48 1.251 . S
O50 Tb41 2.271 . S
O50 C42 1.252 . S
O51 C42 1.253 . S
O51 Tb44 2.312 . S
O52 Tb41 2.338 . S
O52 C57 1.258 . S
C53 O43 1.252 . S
C53 O46 1.253 . S
C54 O40 1.265 . S
C54 O59 1.244 . S
O55 Tb44 2.441 . S
O55 C45 1.244 . S
O56 Tb44 2.506 . S
O56 C45 1.265 . S
C57 O52 1.258 . S
C57 O58 1.251 . S
O58 C57 1.251 . S
O59 Tb41 2.441 . S
O59 C54 1.244 . S
O60 Tb61 2.506 . S
O60 C74 1.265 . S
Tb61 O60 2.506 . S
Tb61 O66 2.312 . S
Tb61 O70 2.271 . S
Tb61 O72 2.338 . S
Tb61 O79 2.441 . S
C62 O70 1.252 . S
C62 O71 1.253 . S
O63 Tb64 2.271 . S
O63 C73 1.252 . S
Tb64 O63 2.271 . S
Tb64 O67 2.338 . S
Tb64 O71 2.312 . S
Tb64 O75 2.441 . S
Tb64 O76 2.506 . S
C65 O75 1.244 . S
C65 O76 1.265 . S
O66 Tb61 2.312 . S
O66 C73 1.253 . S
O67 Tb64 2.338 . S
O67 C68 1.258 . S
C68 O67 1.258 . S
C68 O69 1.251 . S
O69 C68 1.251 . S
O70 Tb61 2.271 . S
O70 C62 1.252 . S
O71 C62 1.253 . S
O71 Tb64 2.312 . S
O72 Tb61 2.338 . S
O72 C77 1.258 . S
C73 O63 1.252 . S
C73 O66 1.253 . S
C74 O60 1.265 . S
C74 O79 1.244 . S
O75 Tb64 2.441 . S
O75 C65 1.244 . S
O76 Tb64 2.506 . S
O76 C65 1.265 . S
C77 O72 1.258 . S
C77 O78 1.251 . S
O78 C77 1.251 . S
O79 Tb61 2.441 . S
O79 C74 1.244 . S
O80 Tb81 2.506 . S
O80 C94 1.265 . S
Tb81 O80 2.506 . S
Tb81 O86 2.312 . S
Tb81 O90 2.271 . S
Tb81 O92 2.338 . S
Tb81 O99 2.441 . S
C82 O90 1.252 . S
C82 O91 1.253 . S
O83 Tb84 2.271 . S
O83 C93 1.252 . S
Tb84 O83 2.271 . S
Tb84 O87 2.338 . S
Tb84 O91 2.312 . S
Tb84 O95 2.441 . S
Tb84 O96 2.506 . S
C85 O95 1.244 . S
C85 O96 1.265 . S
O86 Tb81 2.312 . S
O86 C93 1.253 . S
O87 Tb84 2.338 . S
O87 C88 1.258 . S
C88 O87 1.258 . S
C88 O89 1.251 . S
O89 C88 1.251 . S
O90 Tb81 2.271 . S
O90 C82 1.252 . S
O91 C82 1.253 . S
O91 Tb84 2.312 . S
O92 Tb81 2.338 . S
O92 C97 1.258 . S
C93 O83 1.252 . S
C93 O86 1.253 . S
C94 O80 1.265 . S
C94 O99 1.244 . S
O95 Tb84 2.441 . S
O95 C85 1.244 . S
O96 Tb84 2.506 . S
O96 C85 1.265 . S
C97 O92 1.258 . S
C97 O98 1.251 . S
O98 C97 1.251 . S
O99 Tb81 2.441 . S
O99 C94 1.244 . S
O100 Tb101 2.506 . S
O100 C114 1.265 . S
Tb101 O100 2.506 . S
Tb101 O106 2.312 . S
Tb101 O110 2.271 . S
Tb101 O112 2.338 . S
Tb101 O119 2.441 . S
C102 O110 1.252 . S
C102 O111 1.253 . S
O103 Tb104 2.271 . S
O103 C113 1.252 . S
Tb104 O103 2.271 . S
Tb104 O107 2.338 . S
Tb104 O111 2.312 . S
Tb104 O115 2.441 . S
Tb104 O116 2.506 . S
C105 O115 1.244 . S
C105 O116 1.265 . S
O106 Tb101 2.312 . S
O106 C113 1.253 . S
O107 Tb104 2.338 . S
O107 C108 1.258 . S
C108 O107 1.258 . S
C108 O109 1.251 . S
O109 C108 1.251 . S
O110 Tb101 2.271 . S
O110 C102 1.252 . S
O111 C102 1.253 . S
O111 Tb104 2.312 . S
O112 Tb101 2.338 . S
O112 C117 1.258 . S
C113 O103 1.252 . S
C113 O106 1.253 . S
C114 O100 1.265 . S
C114 O119 1.244 . S
O115 Tb104 2.441 . S
O115 C105 1.244 . S
O116 Tb104 2.506 . S
O116 C105 1.265 . S
C117 O112 1.258 . S
C117 O118 1.251 . S
O118 C117 1.251 . S
O119 Tb101 2.441 . S
O119 C114 1.244 . S
O120 Tb121 2.506 . S
O120 C134 1.265 . S
Tb121 O120 2.506 . S
Tb121 O126 2.312 . S
Tb121 O130 2.271 . S
Tb121 O132 2.338 . S
Tb121 O139 2.441 . S
C122 O130 1.252 . S
C122 O131 1.253 . S
O123 Tb124 2.271 . S
O123 C133 1.252 . S
Tb124 O123 2.271 . S
Tb124 O127 2.338 . S
Tb124 O131 2.312 . S
Tb124 O135 2.441 . S
Tb124 O136 2.506 . S
C125 O135 1.244 . S
C125 O136 1.265 . S
O126 Tb121 2.312 . S
O126 C133 1.253 . S
O127 Tb124 2.338 . S
O127 C128 1.258 . S
C128 O127 1.258 . S
C128 O129 1.251 . S
O129 C128 1.251 . S
O130 Tb121 2.271 . S
O130 C122 1.252 . S
O131 C122 1.253 . S
O131 Tb124 2.312 . S
O132 Tb121 2.338 . S
O132 C137 1.258 . S
C133 O123 1.252 . S
C133 O126 1.253 . S
C134 O120 1.265 . S
C134 O139 1.244 . S
O135 Tb124 2.441 . S
O135 C125 1.244 . S
O136 Tb124 2.506 . S
O136 C125 1.265 . S
C137 O132 1.258 . S
C137 O138 1.251 . S
O138 C137 1.251 . S
O139 Tb121 2.441 . S
O139 C134 1.244 . S
O140 Tb141 2.506 . S
O140 C154 1.265 . S
Tb141 O140 2.506 . S
Tb141 O146 2.312 . S
Tb141 O150 2.271 . S
Tb141 O152 2.338 . S
Tb141 O159 2.441 . S
C142 O150 1.252 . S
C142 O151 1.253 . S
O143 Tb144 2.271 . S
O143 C153 1.252 . S
Tb144 O143 2.271 . S
Tb144 O147 2.338 . S
Tb144 O151 2.312 . S
Tb144 O155 2.441 . S
Tb144 O156 2.506 . S
C145 O155 1.244 . S
C145 O156 1.265 . S
O146 Tb141 2.312 . S
O146 C153 1.253 . S
O147 Tb144 2.338 . S
O147 C148 1.258 . S
C148 O147 1.258 . S
C148 O149 1.251 . S
O149 C148 1.251 . S
O150 Tb141 2.271 . S
O150 C142 1.252 . S
O151 C142 1.253 . S
O151 Tb144 2.312 . S
O152 Tb141 2.338 . S
O152 C157 1.258 . S
C153 O143 1.252 . S
C153 O146 1.253 . S
C154 O140 1.265 . S
C154 O159 1.244 . S
O155 Tb144 2.441 . S
O155 C145 1.244 . S
O156 Tb144 2.506 . S
O156 C145 1.265 . S
C157 O152 1.258 . S
C157 O158 1.251 . S
O158 C157 1.251 . S
O159 Tb141 2.441 . S
O159 C154 1.244 . S
O160 Tb161 2.506 . S
O160 C174 1.265 . S
Tb161 O160 2.506 . S
Tb161 O166 2.312 . S
Tb161 O170 2.271 . S
Tb161 O172 2.338 . S
Tb161 O179 2.441 . S
C162 O170 1.252 . S
C162 O171 1.253 . S
O163 Tb164 2.271 . S
O163 C173 1.252 . S
Tb164 O163 2.271 . S
Tb164 O167 2.338 . S
Tb164 O171 2.312 . S
Tb164 O175 2.441 . S
Tb164 O176 2.506 . S
C165 O175 1.244 . S
C165 O176 1.265 . S
O166 Tb161 2.312 . S
O166 C173 1.253 . S
O167 Tb164 2.338 . S
O167 C168 1.258 . S
C168 O167 1.258 . S
C168 O169 1.251 . S
O169 C168 1.251 . S
O170 Tb161 2.271 . S
O170 C162 1.252 . S
O171 C162 1.253 . S
O171 Tb164 2.312 . S
O172 Tb161 2.338 . S
O172 C177 1.258 . S
C173 O163 1.252 . S
C173 O166 1.253 . S
C174 O160 1.265 . S
C174 O179 1.244 . S
O175 Tb164 2.441 . S
O175 C165 1.244 . S
O176 Tb164 2.506 . S
O176 C165 1.265 . S
C177 O172 1.258 . S
C177 O178 1.251 . S
O178 C177 1.251 . S
O179 Tb161 2.441 . S
O179 C174 1.244 . S
O180 Tb181 2.506 . S
O180 C194 1.265 . S
Tb181 O180 2.506 . S
Tb181 O186 2.312 . S
Tb181 O190 2.271 . S
Tb181 O192 2.338 . S
Tb181 O199 2.441 . S
C182 O190 1.252 . S
C182 O191 1.253 . S
O183 Tb184 2.271 . S
O183 C193 1.252 . S
Tb184 O183 2.271 . S
Tb184 O187 2.338 . S
Tb184 O191 2.312 . S
Tb184 O195 2.441 . S
Tb184 O196 2.506 . S
C185 O195 1.244 . S
C185 O196 1.265 . S
O186 Tb181 2.312 . S
O186 C193 1.253 . S
O187 Tb184 2.338 . S
O187 C188 1.258 . S
C188 O187 1.258 . S
C188 O189 1.251 . S
O189 C188 1.251 . S
O190 Tb181 2.271 . S
O190 C182 1.252 . S
O191 C182 1.253 . S
O191 Tb184 2.312 . S
O192 Tb181 2.338 . S
O192 C197 1.258 . S
C193 O183 1.252 . S
C193 O186 1.253 . S
C194 O180 1.265 . S
C194 O199 1.244 . S
O195 Tb184 2.441 . S
O195 C185 1.244 . S
O196 Tb184 2.506 . S
O196 C185 1.265 . S
C197 O192 1.258 . S
C197 O198 1.251 . S
O198 C197 1.251 . S
O199 Tb181 2.441 . S
O199 C194 1.244 . S
O200 Tb201 2.506 . S
O200 C214 1.265 . S
Tb201 O200 2.506 . S
Tb201 O206 2.312 . S
Tb201 O210 2.271 . S
Tb201 O212 2.338 . S
Tb201 O219 2.441 . S
C202 O210 1.252 . S
C202 O211 1.253 . S
O203 Tb204 2.271 . S
O203 C213 1.252 . S
Tb204 O203 2.271 . S
Tb204 O207 2.338 . S
Tb204 O211 2.312 . S
Tb204 O215 2.441 . S
Tb204 O216 2.506 . S
C205 O215 1.244 . S
C205 O216 1.265 . S
O206 Tb201 2.312 . S
O206 C213 1.253 . S
O207 Tb204 2.338 . S
O207 C208 1.258 . S
C208 O207 1.258 . S
C208 O209 1.251 . S
O209 C208 1.251 . S
O210 Tb201 2.271 . S
O210 C202 1.252 . S
O211 C202 1.253 . S
O211 Tb204 2.312 . S
O212 Tb201 2.338 . S
O212 C217 1.258 . S
C213 O203 1.252 . S
C213 O206 1.253 . S
C214 O200 1.265 . S
C214 O219 1.244 . S
O215 Tb204 2.441 . S
O215 C205 1.244 . S
O216 Tb204 2.506 . S
O216 C205 1.265 . S
C217 O212 1.258 . S
C217 O218 1.251 . S
O218 C217 1.251 . S
O219 Tb201 2.441 . S
O219 C214 1.244 . S
O220 Tb221 2.506 . S
O220 C234 1.265 . S
Tb221 O220 2.506 . S
Tb221 O226 2.312 . S
Tb221 O230 2.271 . S
Tb221 O232 2.338 . S
Tb221 O239 2.441 . S
C222 O230 1.252 . S
C222 O231 1.253 . S
O223 Tb224 2.271 . S
O223 C233 1.252 . S
Tb224 O223 2.271 . S
Tb224 O227 2.338 . S
Tb224 O231 2.312 . S
Tb224 O235 2.441 . S
Tb224 O236 2.506 . S
C225 O235 1.244 . S
C225 O236 1.265 . S
O226 Tb221 2.312 . S
O226 C233 1.253 . S
O227 Tb224 2.338 . S
O227 C228 1.258 . S
C228 O227 1.258 . S
C228 O229 1.251 . S
O229 C228 1.251 . S
O230 Tb221 2.271 . S
O230 C222 1.252 . S
O231 C222 1.253 . S
O231 Tb224 2.312 . S
O232 Tb221 2.338 . S
O232 C237 1.258 . S
C233 O223 1.252 . S
C233 O226 1.253 . S
C234 O220 1.265 . S
C234 O239 1.244 . S
O235 Tb224 2.441 . S
O235 C225 1.244 . S
O236 Tb224 2.506 . S
O236 C225 1.265 . S
C237 O232 1.258 . S
C237 O238 1.251 . S
O238 C237 1.251 . S
O239 Tb221 2.441 . S
O239 C234 1.244 . S
C240 C241 1.387 . S
C240 H244 0.950 . S
C240 C249 1.390 1_565 S
C241 C240 1.387 . S
C241 C243 1.387 1_565 S
H242 C249 0.950 . S
C243 C241 1.387 1_545 S
C243 C245 1.390 . S
C243 H247 0.950 . S
H244 C240 0.950 . S
C245 C243 1.390 . S
C245 C246 1.387 . S
C245 H248 0.950 . S
C246 C245 1.387 . S
C246 C249 1.387 . S
H247 C243 0.950 . S
H248 C245 0.950 . S
C249 C240 1.390 1_545 S
C249 H242 0.950 . S
C249 C246 1.387 . S
C250 C251 1.387 . S
C250 H254 0.950 . S
C250 C259 1.390 . S
C251 C250 1.387 . S
C251 C253 1.387 . S
H252 C259 0.950 . S
C253 C251 1.387 . S
C253 C255 1.390 . S
C253 H257 0.950 . S
H254 C250 0.950 . S
C255 C253 1.390 . S
C255 C256 1.387 . S
C255 H258 0.950 . S
C256 C255 1.387 . S
C256 C259 1.387 . S
H257 C253 0.950 . S
H258 C255 0.950 . S
C259 C250 1.390 . S
C259 H252 0.950 . S
C259 C256 1.387 . S
C260 C261 1.387 . S
C260 H264 0.950 . S
C260 C269 1.390 . S
C261 C260 1.387 . S
C261 C263 1.387 . S
H262 C269 0.950 1_455 S
C263 C261 1.387 . S
C263 C265 1.390 . S
C263 H267 0.950 . S
H264 C260 0.950 . S
C265 C263 1.390 . S
C265 C266 1.387 1_655 S
C265 H268 0.950 . S
C266 C265 1.387 1_455 S
C266 C269 1.387 1_455 S
H267 C263 0.950 . S
H268 C265 0.950 . S
C269 C260 1.390 . S
C269 H262 0.950 1_655 S
C269 C266 1.387 1_655 S
C270 C271 1.387 . S
C270 H274 0.950 . S
C270 C279 1.372 1_565 S
C271 C270 1.387 . S
C271 C273 1.387 . S
H272 C279 0.967 . S
C273 C271 1.387 . S
C273 C275 1.390 . S
C273 H277 0.950 . S
H274 C270 0.950 . S
C275 C273 1.390 . S
C275 C276 1.387 1_565 S
C275 H278 0.950 . S
C276 C275 1.387 1_545 S
C276 C279 1.388 . S
H277 C273 0.950 . S
H278 C275 0.950 . S
C279 C270 1.372 1_545 S
C279 H272 0.967 . S
C279 C276 1.388 . S
C280 C281 1.387 . S
C280 H284 0.950 . S
C280 C289 1.390 . S
C281 C280 1.387 . S
C281 C283 1.387 . S
H282 C289 0.950 . S
C283 C281 1.387 . S
C283 C285 1.390 . S
C283 H287 0.950 . S
H284 C280 0.950 . S
C285 C283 1.390 . S
C285 C286 1.387 . S
C285 H288 0.950 . S
C286 C285 1.387 . S
C286 C289 1.387 . S
H287 C283 0.950 . S
H288 C285 0.950 . S
C289 C280 1.390 . S
C289 H282 0.950 . S
C289 C286 1.387 . S
C290 C291 1.387 1_455 S
C290 H294 0.950 . S
C290 C299 1.390 . S
C291 C290 1.387 1_655 S
C291 C293 1.387 . S
H292 C299 0.950 . S
C293 C291 1.387 . S
C293 C295 1.390 1_655 S
C293 H297 0.950 . S
H294 C290 0.950 . S
C295 C293 1.390 1_455 S
C295 C296 1.387 . S
C295 H298 0.950 . S
C296 C295 1.387 . S
C296 C299 1.387 . S
H297 C293 0.950 . S
H298 C295 0.950 . S
C299 C290 1.390 . S
C299 H292 0.950 . S
C299 C296 1.387 . S
C300 C301 1.387 . S
C300 H304 0.950 . S
C300 C309 1.390 1_455 S
C301 C300 1.387 . S
C301 C303 1.387 1_455 S
H302 C309 0.950 . S
C303 C301 1.387 1_655 S
C303 C305 1.390 . S
C303 H307 0.950 . S
H304 C300 0.950 . S
C305 C303 1.390 . S
C305 C306 1.387 . S
C305 H308 0.950 . S
C306 C305 1.387 . S
C306 C309 1.387 . S
H307 C303 0.950 . S
H308 C305 0.950 . S
C309 C300 1.390 1_655 S
C309 H302 0.950 . S
C309 C306 1.387 . S
C310 C311 1.387 . S
C310 H314 0.950 . S
C310 C319 1.390 1_565 S
C311 C310 1.387 . S
C311 C313 1.387 . S
H312 C319 0.950 . S
C313 C311 1.387 . S
C313 C315 1.390 . S
C313 H317 0.950 . S
H314 C310 0.950 . S
C315 C313 1.390 . S
C315 C316 1.387 1_565 S
C315 H318 0.950 . S
C316 C315 1.387 1_545 S
C316 C319 1.387 . S
H317 C313 0.950 . S
H318 C315 0.950 . S
C319 C310 1.390 1_545 S
C319 H312 0.950 . S
C319 C316 1.387 . S
C320 C321 1.387 . S
C320 H324 0.950 . S
C320 C329 1.390 . S
C321 C320 1.387 . S
C321 C323 1.387 . S
H322 C329 0.950 . S
C323 C321 1.387 . S
C323 C325 1.390 . S
C323 H327 0.950 . S
H324 C320 0.950 . S
C325 C323 1.390 . S
C325 C326 1.387 . S
C325 H328 0.950 . S
C326 C325 1.387 . S
C326 C329 1.387 . S
H327 C323 0.950 . S
H328 C325 0.950 . S
C329 C320 1.390 . S
C329 H322 0.950 . S
C329 C326 1.387 . S
C330 C331 1.387 . S
C330 H334 0.950 . S
C330 C339 1.390 . S
C331 C330 1.387 . S
C331 C333 1.387 . S
H332 C339 0.950 . S
C333 C331 1.387 . S
C333 C335 1.390 1_455 S
C333 H337 0.950 . S
H334 C330 0.950 . S
C335 C333 1.390 1_655 S
C335 C336 1.387 . S
C335 H338 0.950 . S
C336 C335 1.387 . S
C336 C339 1.387 1_655 S
H337 C333 0.950 . S
H338 C335 0.950 . S
C339 C330 1.390 . S
C339 H332 0.950 . S
C339 C336 1.387 1_455 S
C340 C341 1.387 . S
C340 H344 0.950 . S
C340 C349 1.390 . S
C341 C340 1.387 . S
C341 C343 1.387 . S
H342 C349 0.950 . S
C343 C341 1.387 . S
C343 C345 1.390 1_545 S
C343 H347 0.950 . S
H344 C340 0.950 . S
C345 C343 1.390 1_565 S
C345 C346 1.387 . S
C345 H348 0.950 . S
C346 C345 1.387 . S
C346 C349 1.387 1_565 S
H347 C343 0.950 . S
H348 C345 0.950 . S
C349 C340 1.390 . S
C349 H342 0.950 . S
C349 C346 1.387 1_545 S
C350 C351 1.387 . S
C350 H354 0.950 . S
C350 C359 1.390 . S
C351 C350 1.387 . S
C351 C353 1.387 . S
H352 C359 0.950 . S
C353 C351 1.387 . S
C353 C355 1.390 . S
C353 H357 0.950 . S
H354 C350 0.950 . S
C355 C353 1.390 . S
C355 C356 1.387 . S
C355 H358 0.950 . S
C356 C355 1.387 . S
C356 C359 1.387 . S
H357 C353 0.950 . S
H358 C355 0.950 . S
C359 C350 1.390 . S
C359 H352 0.950 . S
C359 C356 1.387 . S
C360 C361 1.387 . S
C360 H364 0.950 . S
C360 C369 1.390 . S
C361 C360 1.387 . S
C361 C363 1.387 . S
H362 C369 0.950 . S
C363 C361 1.387 . S
C363 C365 1.390 . S
C363 H367 0.950 . S
H364 C360 0.950 . S
C365 C363 1.390 . S
C365 C366 1.387 . S
C365 H368 0.950 . S
C366 C365 1.387 . S
C366 C369 1.387 . S
H367 C363 0.950 . S
H368 C365 0.950 . S
C369 C360 1.390 . S
C369 H362 0.950 . S
C369 C366 1.387 . S
C370 C371 1.387 . S
C370 H374 0.950 . S
C370 C379 1.390 . S
C371 C370 1.387 . S
C371 C373 1.387 . S
H372 C379 0.950 . S
C373 C371 1.387 . S
C373 C375 1.390 . S
C373 H377 0.950 . S
H374 C370 0.950 . S
C375 C373 1.390 . S
C375 C376 1.387 . S
C375 H378 0.950 . S
C376 C375 1.387 . S
C376 C379 1.387 . S
H377 C373 0.950 . S
H378 C375 0.950 . S
C379 C370 1.390 . S
C379 H372 0.950 . S
C379 C376 1.387 . S
C380 C381 1.387 . S
C380 H384 0.950 . S
C380 C389 1.390 . S
C381 C380 1.387 . S
C381 C383 1.387 . S
H382 C389 0.950 . S
C383 C381 1.387 . S
C383 C385 1.390 . S
C383 H387 0.950 . S
H384 C380 0.950 . S
C385 C383 1.390 . S
C385 C386 1.387 . S
C385 H388 0.950 . S
C386 C385 1.387 . S
C386 C389 1.387 . S
H387 C383 0.950 . S
H388 C385 0.950 . S
C389 C380 1.390 . S
C389 H382 0.950 . S
C389 C386 1.387 . S
C390 C391 1.387 . S
C390 H394 0.950 . S
C390 C399 1.390 . S
C391 C390 1.387 . S
C391 C393 1.387 . S
H392 C399 0.950 . S
C393 C391 1.387 . S
C393 C395 1.390 . S
C393 H397 0.950 . S
H394 C390 0.950 . S
C395 C393 1.390 . S
C395 C396 1.387 . S
C395 H398 0.950 . S
C396 C395 1.387 . S
C396 C399 1.387 . S
H397 C393 0.950 . S
H398 C395 0.950 . S
C399 C390 1.390 . S
C399 H392 0.950 . S
C399 C396 1.387 . S
C400 C401 1.387 . S
C400 H404 0.950 . S
C400 C409 1.390 . S
C401 C400 1.387 . S
C401 C403 1.387 . S
H402 C409 0.950 . S
C403 C401 1.387 . S
C403 C405 1.390 . S
C403 H407 0.950 . S
H404 C400 0.950 . S
C405 C403 1.390 . S
C405 C406 1.387 . S
C405 H408 0.950 . S
C406 C405 1.387 . S
C406 C409 1.387 . S
H407 C403 0.950 . S
H408 C405 0.950 . S
C409 C400 1.390 . S
C409 H402 0.950 . S
C409 C406 1.387 . S
C410 C411 1.387 . S
C410 H414 0.950 . S
C410 C419 1.390 . S
C411 C410 1.387 . S
C411 C413 1.387 . S
H412 C419 0.950 . S
C413 C411 1.387 . S
C413 C415 1.390 . S
C413 H417 0.950 . S
H414 C410 0.950 . S
C415 C413 1.390 . S
C415 C416 1.387 . S
C415 H418 0.950 . S
C416 C415 1.387 . S
C416 C419 1.387 . S
H417 C413 0.950 . S
H418 C415 0.950 . S
C419 C410 1.390 . S
C419 H412 0.950 . S
C419 C416 1.387 . S
C420 C421 1.387 . S
C420 H424 0.950 . S
C420 C429 1.390 . S
C421 C420 1.387 . S
C421 C423 1.387 . S
H422 C429 0.950 . S
C423 C421 1.387 . S
C423 C425 1.390 . S
C423 H427 0.950 . S
H424 C420 0.950 . S
C425 C423 1.390 . S
C425 C426 1.387 . S
C425 H428 0.950 . S
C426 C425 1.387 . S
C426 C429 1.387 . S
H427 C423 0.950 . S
H428 C425 0.950 . S
C429 C420 1.390 . S
C429 H422 0.950 . S
C429 C426 1.387 . S
C430 C431 1.387 . S
C430 H434 0.950 . S
C430 C439 1.390 . S
C431 C430 1.387 . S
C431 C433 1.387 . S
H432 C439 0.950 . S
C433 C431 1.387 . S
C433 C435 1.390 . S
C433 H437 0.950 . S
H434 C430 0.950 . S
C435 C433 1.390 . S
C435 C436 1.387 . S
C435 H438 0.950 . S
C436 C435 1.387 . S
C436 C439 1.387 . S
H437 C433 0.950 . S
H438 C435 0.950 . S
C439 C430 1.390 . S
C439 H432 0.950 . S
C439 C436 1.387 . S
C440 C441 1.387 . S
C440 H444 0.950 . S
C440 C449 1.390 . S
C441 C440 1.387 . S
C441 C443 1.387 . S
H442 C449 0.950 . S
C443 C441 1.387 . S
C443 C445 1.390 . S
C443 H447 0.950 . S
H444 C440 0.950 . S
C445 C443 1.390 . S
C445 C446 1.387 . S
C445 H448 0.950 . S
C446 C445 1.387 . S
C446 C449 1.387 . S
H447 C443 0.950 . S
H448 C445 0.950 . S
C449 C440 1.390 . S
C449 H442 0.950 . S
C449 C446 1.387 . S
C450 C451 1.387 . S
C450 H454 0.950 . S
C450 C459 1.390 . S
C451 C450 1.387 . S
C451 C453 1.387 . S
H452 C459 0.950 . S
C453 C451 1.387 . S
C453 C455 1.390 . S
C453 H457 0.950 . S
H454 C450 0.950 . S
C455 C453 1.390 . S
C455 C456 1.387 . S
C455 H458 0.950 . S
C456 C455 1.387 . S
C456 C459 1.387 . S
H457 C453 0.950 . S
H458 C455 0.950 . S
C459 C450 1.390 . S
C459 H452 0.950 . S
C459 C456 1.387 . S
C460 C461 1.387 . S
C460 H464 0.950 . S
C460 C469 1.390 . S
C461 C460 1.387 . S
C461 C463 1.387 . S
H462 C469 0.950 . S
C463 C461 1.387 . S
C463 C465 1.390 . S
C463 H467 0.950 . S
H464 C460 0.950 . S
C465 C463 1.390 . S
C465 C466 1.387 . S
C465 H468 0.950 . S
C466 C465 1.387 . S
C466 C469 1.387 . S
H467 C463 0.950 . S
H468 C465 0.950 . S
C469 C460 1.390 . S
C469 H462 0.950 . S
C469 C466 1.387 . S
C470 C471 1.387 . S
C470 H474 0.950 . S
C470 C479 1.390 . S
C471 C470 1.387 . S
C471 C473 1.387 . S
H472 C479 0.950 . S
C473 C471 1.387 . S
C473 C475 1.390 . S
C473 H477 0.950 . S
H474 C470 0.950 . S
C475 C473 1.390 . S
C475 C476 1.387 . S
C475 H478 0.950 . S
C476 C475 1.387 . S
C476 C479 1.387 . S
H477 C473 0.950 . S
H478 C475 0.950 . S
C479 C470 1.390 . S
C479 H472 0.950 . S
C479 C476 1.387 . S
C480 C481 1.387 . S
C480 H484 0.950 . S
C480 C489 1.390 . S
C481 C480 1.387 . S
C481 C483 1.387 . S
H482 C489 0.950 . S
C483 C481 1.387 . S
C483 C485 1.390 . S
C483 H487 0.950 . S
H484 C480 0.950 . S
C485 C483 1.390 . S
C485 C486 1.387 . S
C485 H488 0.950 . S
C486 C485 1.387 . S
C486 C489 1.387 . S
H487 C483 0.950 . S
H488 C485 0.950 . S
C489 C480 1.390 . S
C489 H482 0.950 . S
C489 C486 1.387 . S
C490 C491 1.387 . S
C490 H494 0.950 . S
C490 C499 1.390 . S
C491 C490 1.387 . S
C491 C493 1.387 . S
H492 C499 0.950 . S
C493 C491 1.387 . S
C493 C495 1.390 . S
C493 H497 0.950 . S
H494 C490 0.950 . S
C495 C493 1.390 . S
C495 C496 1.387 . S
C495 H498 0.950 . S
C496 C495 1.387 . S
C496 C499 1.387 . S
H497 C493 0.950 . S
H498 C495 0.950 . S
C499 C490 1.390 . S
C499 H492 0.950 . S
C499 C496 1.387 . S
C500 C501 1.387 . S
C500 H504 0.950 . S
C500 C509 1.390 . S
C501 C500 1.387 . S
C501 C503 1.387 . S
H502 C509 0.950 . S
C503 C501 1.387 . S
C503 C505 1.390 . S
C503 H507 0.950 . S
H504 C500 0.950 . S
C505 C503 1.390 . S
C505 C506 1.387 . S
C505 H508 0.950 . S
C506 C505 1.387 . S
C506 C509 1.387 . S
H507 C503 0.950 . S
H508 C505 0.950 . S
C509 C500 1.390 . S
C509 H502 0.950 . S
C509 C506 1.387 . S
C510 C511 1.387 . S
C510 H514 0.950 . S
C510 C519 1.390 . S
C511 C510 1.387 . S
C511 C513 1.387 . S
H512 C519 0.950 . S
C513 C511 1.387 . S
C513 C515 1.390 . S
C513 H517 0.950 . S
H514 C510 0.950 . S
C515 C513 1.390 . S
C515 C516 1.387 . S
C515 H518 0.950 . S
C516 C515 1.387 . S
C516 C519 1.387 . S
H517 C513 0.950 . S
H518 C515 0.950 . S
C519 C510 1.390 . S
C519 H512 0.950 . S
C519 C516 1.387 . S
C520 C521 1.387 . S
C520 H524 0.950 . S
C520 C529 1.390 . S
C521 C520 1.387 . S
C521 C523 1.387 . S
H522 C529 0.950 . S
C523 C521 1.387 . S
C523 C525 1.390 . S
C523 H527 0.950 . S
H524 C520 0.950 . S
C525 C523 1.390 . S
C525 C526 1.387 . S
C525 H528 0.950 . S
C526 C525 1.387 . S
C526 C529 1.387 . S
H527 C523 0.950 . S
H528 C525 0.950 . S
C529 C520 1.390 . S
C529 H522 0.950 . S
C529 C526 1.387 . S
C530 C531 1.387 . S
C530 H534 0.950 . S
C530 C539 1.390 . S
C531 C530 1.387 . S
C531 C533 1.387 . S
H532 C539 0.950 . S
C533 C531 1.387 . S
C533 C535 1.390 . S
C533 H537 0.950 . S
H534 C530 0.950 . S
C535 C533 1.390 . S
C535 C536 1.387 . S
C535 H538 0.950 . S
C536 C535 1.387 . S
C536 C539 1.387 . S
H537 C533 0.950 . S
H538 C535 0.950 . S
C539 C530 1.390 . S
C539 H532 0.950 . S
C539 C536 1.387 . S
C540 C541 1.387 . S
C540 H544 0.950 . S
C540 C549 1.390 . S
C541 C540 1.387 . S
C541 C543 1.387 1_556 S
H542 C549 0.950 . S
C543 C541 1.387 1_554 S
C543 C545 1.390 . S
C543 H547 0.950 . S
H544 C540 0.950 . S
C545 C543 1.390 . S
C545 C546 1.387 . S
C545 H548 0.950 . S
C546 C545 1.387 . S
C546 C549 1.387 1_554 S
H547 C543 0.950 . S
H548 C545 0.950 . S
C549 C540 1.390 . S
C549 H542 0.950 . S
C549 C546 1.387 1_556 S
C550 C551 1.387 . S
C550 H554 0.950 . S
C550 C559 1.390 1_455 S
C551 C550 1.387 . S
C551 C553 1.387 . S
H552 C559 0.950 . S
C553 C551 1.387 . S
C553 C555 1.390 1_455 S
C553 H557 0.950 . S
H554 C550 0.950 . S
C555 C553 1.390 1_655 S
C555 C556 1.387 . S
C555 H558 0.950 . S
C556 C555 1.387 . S
C556 C559 1.387 . S
H557 C553 0.950 . S
H558 C555 0.950 . S
C559 C550 1.390 1_655 S
C559 H552 0.950 . S
C559 C556 1.387 . S
C560 C561 1.387 . S
C560 H564 0.950 . S
C560 C569 1.390 1_564 S
C561 C560 1.387 . S
C561 C563 1.387 . S
H562 C569 0.950 . S
C563 C561 1.387 . S
C563 C565 1.390 1_564 S
C563 H567 0.950 . S
H564 C560 0.950 . S
C565 C563 1.390 1_546 S
C565 C566 1.387 . S
C565 H568 0.950 . S
C566 C565 1.387 . S
C566 C569 1.387 . S
H567 C563 0.950 . S
H568 C565 0.950 . S
C569 C560 1.390 1_546 S
C569 H562 0.950 . S
C569 C566 1.387 . S
C570 C571 1.387 . S
C570 H574 0.950 . S
C570 C579 1.390 . S
C571 C570 1.387 . S
C571 C573 1.387 . S
H572 C579 0.950 . S
C573 C571 1.387 . S
C573 C575 1.390 . S
C573 H577 0.950 . S
H574 C570 0.950 . S
C575 C573 1.390 . S
C575 C576 1.387 . S
C575 H578 0.950 . S
C576 C575 1.387 . S
C576 C579 1.387 . S
H577 C573 0.950 . S
H578 C575 0.950 . S
C579 C570 1.390 . S
C579 H572 0.950 . S
C579 C576 1.387 . S
C580 C581 1.387 1_554 S
C580 H584 0.950 . S
C580 C589 1.390 1_655 S
C581 C580 1.387 1_556 S
C581 C583 1.387 . S
H582 C589 0.950 . S
C583 C581 1.387 . S
C583 C585 1.390 1_655 S
C583 H587 0.950 . S
H584 C580 0.950 . S
C585 C583 1.390 1_455 S
C585 C586 1.387 1_556 S
C585 H588 0.950 . S
C586 C585 1.387 1_554 S
C586 C589 1.387 . S
H587 C583 0.950 . S
H588 C585 0.950 . S
C589 C580 1.390 1_455 S
C589 H582 0.950 . S
C589 C586 1.387 . S
C590 C591 1.387 . S
C590 H594 0.950 . S
C590 C599 1.390 1_565 S
C591 C590 1.387 . S
C591 C593 1.387 . S
H592 C599 0.950 . S
C593 C591 1.387 . S
C593 C595 1.390 1_565 S
C593 H597 0.950 . S
H594 C590 0.950 . S
C595 C593 1.390 1_545 S
C595 C596 1.387 . S
C595 H598 0.950 . S
C596 C595 1.387 . S
C596 C599 1.387 . S
H597 C593 0.950 . S
H598 C595 0.950 . S
C599 C590 1.390 1_545 S
C599 H592 0.950 . S
C599 C596 1.387 . S
C241 C88 1.788 . S
C246 C5 2.196 . S
C251 C108 1.789 . S
C256 C25 2.197 1_455 S
C261 C45 2.196 1_545 S
C266 C8 1.787 . S
C271 C65 2.196 . S
C276 C28 1.788 . S
C281 C85 2.197 1_655 S
C286 C48 1.789 . S
C291 C68 1.786 . S
C296 C105 2.197 1_565 S
C301 C168 1.789 . S
C306 C125 2.197 . S
C311 C145 2.197 1_455 S
C316 C188 1.790 . S
C321 C208 1.787 . S
C326 C165 2.196 1_545 S
C331 C185 2.196 . S
C336 C228 1.785 . S
C341 C205 2.196 1_655 S
C346 C128 1.785 . S
C351 C148 1.788 . S
C356 C225 2.196 1_565 S
C361 C94 1.811 . S
C366 C17 1.720 . S
C371 C37 1.722 . S
C376 C114 1.810 . S
C381 C57 1.722 . S
C386 C14 1.809 . S
C391 C77 1.721 . S
C396 C34 1.809 . S
C401 C54 1.810 . S
C406 C97 1.719 . S
C411 C74 1.809 . S
C416 C117 1.721 . S
C421 C174 1.810 . S
C426 C137 1.719 . S
C431 C157 1.722 . S
C436 C194 1.809 . S
C441 C177 1.720 . S
C446 C214 1.811 . S
C451 C234 1.810 . S
C456 C197 1.719 . S
C461 C217 1.721 . S
C466 C134 1.811 . S
C471 C154 1.811 . S
C476 C237 1.720 . S
C481 C202 1.784 . S
C486 C2 1.784 . S
C491 C22 1.782 . S
C496 C222 1.782 . S
C501 C42 1.783 . S
C506 C122 1.782 . S
C511 C62 1.782 . S
C516 C142 1.782 . S
C521 C82 1.782 . S
C526 C162 1.783 . S
C531 C182 1.782 . S
C536 C102 1.784 . S
C541 C193 1.872 . S
C546 C13 1.874 . S
C551 C213 1.871 . S
C556 C33 1.873 . S
C561 C53 1.871 . S
C566 C233 1.871 . S
C571 C73 1.872 . S
C576 C133 1.871 . S
C581 C153 1.874 . S
C586 C93 1.873 . S
C591 C173 1.874 . S
C596 C113 1.874 . S
