# Generated by pormake.
# Topology sol, (6)-cn, num edge types: 1
# Building blocks:
#     Node 0, Type 0, BuildingBlock: IZENUY_clean_sbu_0, # of connection points: 6
#     Node 1, Type 0, BuildingBlock: IZENUY_clean_sbu_0, # of connection points: 6
#     Node 2, Type 0, BuildingBlock: IZENUY_clean_sbu_0, # of connection points: 6
#     Node 3, Type 0, BuildingBlock: IZENUY_clean_sbu_0, # of connection points: 6
#     Node 4, Type 0, BuildingBlock: IZENUY_clean_sbu_0, # of connection points: 6
#     Node 5, Type 0, BuildingBlock: IZENUY_clean_sbu_0, # of connection points: 6
#     Node 6, Type 0, BuildingBlock: IZENUY_clean_sbu_0, # of connection points: 6
#     Node 7, Type 0, BuildingBlock: IZENUY_clean_sbu_0, # of connection points: 6
#     Edge 8, Type (0, 0), BuildingBlock: KIFKEQ_clean_linker_1, # of connection points: 2
#     Edge 9, Type (0, 0), BuildingBlock: KIFKEQ_clean_linker_1, # of connection points: 2
#     Edge 10, Type (0, 0), BuildingBlock: KIFKEQ_clean_linker_1, # of connection points: 2
#     Edge 11, Type (0, 0), BuildingBlock: KIFKEQ_clean_linker_1, # of connection points: 2
#     Edge 12, Type (0, 0), BuildingBlock: KIFKEQ_clean_linker_1, # of connection points: 2
#     Edge 13, Type (0, 0), BuildingBlock: KIFKEQ_clean_linker_1, # of connection points: 2
#     Edge 14, Type (0, 0), BuildingBlock: KIFKEQ_clean_linker_1, # of connection points: 2
#     Edge 15, Type (0, 0), BuildingBlock: KIFKEQ_clean_linker_1, # of connection points: 2
#     Edge 16, Type (0, 0), BuildingBlock: KIFKEQ_clean_linker_1, # of connection points: 2
#     Edge 17, Type (0, 0), BuildingBlock: KIFKEQ_clean_linker_1, # of connection points: 2
#     Edge 18, Type (0, 0), BuildingBlock: KIFKEQ_clean_linker_1, # of connection points: 2
#     Edge 19, Type (0, 0), BuildingBlock: KIFKEQ_clean_linker_1, # of connection points: 2
#     Edge 20, Type (0, 0), BuildingBlock: KIFKEQ_clean_linker_1, # of connection points: 2
#     Edge 21, Type (0, 0), BuildingBlock: KIFKEQ_clean_linker_1, # of connection points: 2
#     Edge 22, Type (0, 0), BuildingBlock: KIFKEQ_clean_linker_1, # of connection points: 2
#     Edge 23, Type (0, 0), BuildingBlock: KIFKEQ_clean_linker_1, # of connection points: 2
#     Edge 24, Type (0, 0), BuildingBlock: KIFKEQ_clean_linker_1, # of connection points: 2
#     Edge 25, Type (0, 0), BuildingBlock: KIFKEQ_clean_linker_1, # of connection points: 2
#     Edge 26, Type (0, 0), BuildingBlock: KIFKEQ_clean_linker_1, # of connection points: 2
#     Edge 27, Type (0, 0), BuildingBlock: KIFKEQ_clean_linker_1, # of connection points: 2
#     Edge 28, Type (0, 0), BuildingBlock: KIFKEQ_clean_linker_1, # of connection points: 2
#     Edge 29, Type (0, 0), BuildingBlock: KIFKEQ_clean_linker_1, # of connection points: 2
#     Edge 30, Type (0, 0), BuildingBlock: KIFKEQ_clean_linker_1, # of connection points: 2
#     Edge 31, Type (0, 0), BuildingBlock: KIFKEQ_clean_linker_1, # of connection points: 2
# Relax obj value: 0.163
# Max RMSD: 0.160
# Mean RMSD: 0.159
data_MOF--net-sol--node1-IZENUY_clean_sbu_0--edge1-KIFKEQ_clean_linker_1
_symmetry_space_group_name_H-M    P1
_symmetry_Int_Tables_number       1
_symmetry_cell_setting            triclinic
loop_
_symmetry_equiv_pos_as_xyz
'x, y, z'
_cell_length_a     35.630725
_cell_length_b     27.977381
_cell_length_c     28.470132
_cell_angle_alpha  89.924018
_cell_angle_beta   89.983992
_cell_angle_gamma 89.815909
loop_
_atom_site_label
_atom_site_type_symbol
_atom_site_fract_x
_atom_site_fract_y
_atom_site_fract_z
_atom_type_partial_charge
Fe0 Fe 0.18169 0.1375 0.14267 0.0
Fe1 Fe 0.23521 0.19595 0.08176 0.0
O2 O 0.18898 0.17857 0.0965 0.0
Fe3 Fe 0.15001 0.20273 0.06566 0.0
O4 O 0.11803 0.2021 0.117 0.0
O5 O 0.15503 0.181 0.17513 0.0
O6 O 0.22253 0.15644 0.17738 0.0
C7 C 0.24055 0.19541 0.17751 0.0
C8 C 0.12644 0.11067 0.07511 0.0
O9 O 0.24386 0.21953 0.14029 0.0
C10 C 0.20588 0.19005 0.99406 0.0
O11 O 0.2085 0.09183 0.11306 0.0
O12 O 0.25656 0.13813 0.09639 0.0
O13 O 0.1347 0.14386 0.04685 0.0
O14 O 0.13913 0.11097 0.11676 0.0
C15 C 0.19362 0.2817 0.07408 0.0
O16 O 0.22972 0.17381 1.02265 0.0
O17 O 0.17541 0.20848 1.00892 0.0
C18 C 0.24216 0.09705 0.10047 0.0
O19 O 0.22211 0.25669 0.06403 0.0
O20 O 0.16237 0.2629 0.08284 0.0
C21 C 0.12581 0.20151 0.16054 0.0
Fe22 Fe 0.37402 0.34192 0.63738 0.0
Fe23 Fe 0.31679 0.27967 0.58691 0.0
O24 O 0.3638 0.29764 0.59506 0.0
Fe25 Fe 0.40017 0.26996 0.56178 0.0
O26 O 0.42321 0.24832 0.61476 0.0
O27 O 0.41883 0.3156 0.65459 0.0
O28 O 0.35306 0.30692 0.68464 0.0
C29 C 0.31971 0.29204 0.68489 0.0
C30 C 0.42364 0.36754 0.56818 0.0
O31 O 0.3011 0.29118 0.64722 0.0
C32 C 0.34585 0.27892 0.49451 0.0
O33 O 0.33043 0.37562 0.62722 0.0
O34 O 0.30314 0.33874 0.56809 0.0
O35 O 0.42998 0.32369 0.55965 0.0
O36 O 0.39636 0.37997 0.59385 0.0
C37 C 0.35269 0.19386 0.58673 0.0
O38 O 0.32277 0.2644 0.52505 0.0
O39 O 0.37918 0.28909 0.50607 0.0
C40 C 0.30727 0.37525 0.59337 0.0
O41 O 0.32833 0.2201 0.60582 0.0
O42 O 0.37688 0.21124 0.55891 0.0
C43 C 0.43096 0.27335 0.65023 0.0
Fe44 Fe 0.66986 0.34445 0.91508 0.0
Fe45 Fe 0.73135 0.28322 0.95876 0.0
O46 O 0.6834 0.29909 0.95494 0.0
Fe47 Fe 0.6497 0.26862 0.98962 0.0
O48 O 0.62376 0.2495 0.93789 0.0
O49 O 0.62439 0.3186 0.90107 0.0
O50 O 0.68907 0.31114 0.86512 0.0
C51 C 0.72287 0.29766 0.86256 0.0
C52 C 0.62393 0.36613 0.98935 0.0
O53 O 0.74335 0.29917 0.89853 0.0
C54 C 0.70711 0.27213 0.05276 0.0
O55 O 0.71299 0.37883 0.92299 0.0
O56 O 0.74356 0.3421 0.97978 0.0
O57 O 0.61927 0.3218 0.99758 0.0
O58 O 0.64934 0.38018 0.96162 0.0
C59 C 0.69851 0.19562 0.95724 0.0
O60 O 0.72925 0.26341 1.01935 0.0
O61 O 0.67349 0.28427 0.04464 0.0
C62 C 0.73646 0.37944 0.95648 0.0
O63 O 0.72116 0.22401 0.9378 0.0
O64 O 0.67419 0.21056 0.98641 0.0
C65 C 0.612 0.27672 0.90583 0.0
Fe66 Fe 0.87086 0.12704 0.41695 0.0
Fe67 Fe 0.81285 0.19296 0.46174 0.0
O68 O 0.85985 0.17334 0.45688 0.0
Fe69 Fe 0.89534 0.20132 0.49066 0.0
O70 O 0.92069 0.21932 0.43807 0.0
O71 O 0.91726 0.15005 0.40183 0.0
O72 O 0.85252 0.16157 0.36743 0.0
C73 C 0.81931 0.17724 0.36517 0.0
C74 C 0.91715 0.10249 0.48985 0.0
O75 O 0.79927 0.17857 0.40158 0.0
C76 C 0.83849 0.1977 0.55504 0.0
O77 O 0.82613 0.09562 0.42567 0.0
O78 O 0.7981 0.13517 0.48273 0.0
O79 O 0.92389 0.14647 0.49713 0.0
O80 O 0.89053 0.08992 0.46324 0.0
C81 C 0.85014 0.27756 0.45937 0.0
O82 O 0.81674 0.21139 0.52276 0.0
O83 O 0.87206 0.18607 0.54598 0.0
C84 C 0.80249 0.09759 0.459 0.0
O85 O 0.82572 0.25131 0.44059 0.0
O86 O 0.87312 0.26082 0.48918 0.0
C87 C 0.9308 0.19151 0.40565 0.0
Fe88 Fe 0.82085 0.7797 0.96781 0.0
Fe89 Fe 0.88088 0.83746 0.91685 0.0
O90 O 0.86833 0.79652 0.96165 0.0
Fe91 Fe 0.90287 0.77101 0.99924 0.0
O92 O 0.87944 0.7128 1.00427 0.0
O93 O 0.83264 0.71867 0.95413 0.0
O94 O 0.8083 0.78693 0.9058 0.0
C95 C 0.82847 0.78443 0.86942 0.0
C96 C 0.84574 0.78382 0.06229 0.0
O97 O 0.86204 0.79875 0.87072 0.0
C98 C 0.92683 0.86793 0.98804 0.0
O99 O 0.80693 0.84037 0.98123 0.0
O100 O 0.83695 0.87158 0.92087 0.0
O101 O 0.87951 0.79335 0.05224 0.0
O102 O 0.82364 0.76875 0.03095 0.0
C103 C 0.93903 0.76926 0.91392 0.0
O104 O 0.90112 0.87873 0.9592 0.0
O105 O 0.93246 0.82477 1.00006 0.0
C106 C 0.81244 0.87442 0.95306 0.0
O107 O 0.92669 0.81065 0.90527 0.0
O108 O 0.92842 0.74605 0.94948 0.0
C109 C 0.85642 0.69387 0.97609 0.0
Fe110 Fe 0.73216 0.69555 0.47259 0.0
Fe111 Fe 0.67452 0.6428 0.4126 0.0
O112 O 0.68494 0.6803 0.46053 0.0
Fe113 Fe 0.64792 0.70277 0.49593 0.0
O114 O 0.66002 0.76371 0.48118 0.0
O115 O 0.72075 0.75556 0.49402 0.0
O116 O 0.73873 0.72216 0.41481 0.0
C117 C 0.73337 0.70047 0.37662 0.0
C118 C 0.70738 0.68621 0.56223 0.0
O119 O 0.71397 0.66263 0.37576 0.0
C120 C 0.62293 0.61189 0.48293 0.0
O121 O 0.7516 0.63788 0.45342 0.0
O122 O 0.70166 0.59478 0.43753 0.0
O123 O 0.67623 0.70519 0.55061 0.0
O124 O 0.72931 0.6705 0.5311 0.0
C125 C 0.61857 0.70806 0.40346 0.0
O126 O 0.63291 0.6155 0.44026 0.0
O127 O 0.63317 0.64285 0.51256 0.0
C128 C 0.73594 0.59768 0.44792 0.0
O129 O 0.64706 0.68921 0.38501 0.0
O130 O 0.61322 0.70533 0.44749 0.0
C131 C 0.69195 0.78152 0.48818 0.0
Fe132 Fe 0.36585 0.63769 0.1395 0.0
Fe133 Fe 0.39929 0.70038 0.06184 0.0
O134 O 0.3596 0.67819 0.09238 0.0
Fe135 Fe 0.31385 0.69721 0.07667 0.0
O136 O 0.30514 0.72158 0.13525 0.0
O137 O 0.32485 0.65819 0.17342 0.0
O138 O 0.39306 0.68089 0.17183 0.0
C139 C 0.42282 0.69964 0.15691 0.0
C140 C 0.30521 0.59871 0.09681 0.0
O141 O 0.43077 0.69883 0.11345 0.0
C142 C 0.34415 0.68939 0.98907 0.0
O143 O 0.40818 0.60918 0.11447 0.0
O144 O 0.4135 0.64058 0.04397 0.0
O145 O 0.29147 0.64014 0.0913 0.0
O146 O 0.33858 0.5926 0.11023 0.0
C147 C 0.35709 0.78118 0.0694 0.0
O148 O 0.37468 0.7067 1.00466 0.0
O149 O 0.31927 0.6748 1.01717 0.0
C150 C 0.42099 0.60753 0.07286 0.0
O151 O 0.38798 0.76124 0.07835 0.0
O152 O 0.32825 0.7573 0.05892 0.0
C153 C 0.30732 0.69762 0.17278 0.0
Fe154 Fe 0.14386 0.76741 0.5625 0.0
Fe155 Fe 0.2292 0.77731 0.5757 0.0
O156 O 0.1828 0.79256 0.59212 0.0
Fe157 Fe 0.17542 0.83268 0.63903 0.0
O158 O 0.15126 0.78752 0.67232 0.0
O159 O 0.11342 0.76565 0.61533 0.0
O160 O 0.15849 0.70737 0.57787 0.0
C161 C 0.19005 0.69006 0.5675 0.0
C162 C 0.11782 0.85841 0.57433 0.0
O163 O 0.21764 0.71649 0.55756 0.0
C164 C 0.23311 0.87638 0.59444 0.0
O165 O 0.16792 0.76405 0.50472 0.0
O166 O 0.22211 0.79972 0.51644 0.0
O167 O 0.13122 0.8575 0.61558 0.0
O168 O 0.12625 0.82599 0.54532 0.0
C169 C 0.23649 0.77693 0.67156 0.0
O170 O 0.249 0.836 0.59047 0.0
O171 O 0.19952 0.87956 0.60801 0.0
C172 C 0.19751 0.78366 0.48873 0.0
O173 O 0.2393 0.7531 0.63407 0.0
O174 O 0.21807 0.81573 0.67187 0.0
C175 C 0.12245 0.76572 0.65853 0.0
H176 H 0.05049 0.22046 0.14883 0.0
H177 H 0.13869 0.21754 0.25311 0.0
H178 H 1.00384 0.2301 0.21159 0.0
H179 H 0.09222 0.22657 0.31508 0.0
H180 H 0.99423 0.14161 0.39053 0.0
H181 H 0.04254 0.15735 0.33175 0.0
H182 H 0.98369 0.28522 0.2886 0.0
H183 H 0.93553 0.27001 0.34906 0.0
C184 C 0.05999 0.22312 0.18486 0.0
C185 C 0.09814 0.21713 0.19611 0.0
C186 C 0.03335 0.2288 0.22067 0.0
C187 C 0.0446 0.22848 0.26798 0.0
C188 C 0.08292 0.22646 0.27883 0.0
C189 C 0.10943 0.22109 0.24329 0.0
C190 C 0.99209 0.17357 0.36912 0.0
C191 C 0.96163 0.20487 0.37426 0.0
C192 C 1.01964 0.18262 0.33563 0.0
C193 C 1.01674 0.22255 0.3059 0.0
C194 C 0.98645 0.25432 0.31132 0.0
C195 C 0.95923 0.24585 0.34588 0.0
H196 H 0.41093 0.27019 0.74056 0.0
H197 H 0.50159 0.23391 0.64675 0.0
H198 H 0.45126 0.25547 0.80803 0.0
H199 H 0.54294 0.22044 0.7148 0.0
H200 H 0.60444 0.19339 0.85644 0.0
H201 H 0.55707 0.177 0.79539 0.0
H202 H 0.50372 0.31235 0.82603 0.0
H203 H 0.5507 0.32857 0.88561 0.0
C204 C 0.43935 0.25792 0.73459 0.0
C205 C 0.45349 0.25381 0.68885 0.0
C206 C 0.4624 0.24946 0.7731 0.0
C207 C 0.50033 0.23766 0.76655 0.0
C208 C 0.51371 0.2293 0.72073 0.0
C209 C 0.49024 0.23719 0.6819 0.0
C210 C 0.58191 0.21881 0.8506 0.0
C211 C 0.58088 0.26212 0.87546 0.0
C212 C 0.55515 0.20967 0.81564 0.0
C213 C 0.5267 0.24329 0.80625 0.0
C214 C 0.52495 0.28543 0.83295 0.0
C215 C 0.55188 0.29486 0.86691 0.0
H216 H 1.01121 0.79693 0.91293 0.0
H217 H 0.93236 0.70358 0.84455 0.0
H218 H 0.05698 0.78175 0.85103 0.0
H219 H 0.97827 0.6879 0.78195 0.0
H220 H 0.04616 0.75347 0.65258 0.0
H221 H 1.00307 0.73989 0.71813 0.0
H222 H 0.09744 0.72333 0.81205 0.0
H223 H 0.14028 0.73777 0.747 0.0
C224 C 1.00436 0.77173 0.88536 0.0
C225 C 0.96883 0.7507 0.88358 0.0
C226 C 0.03046 0.76298 0.84988 0.0
C227 C 1.02125 0.73356 0.81152 0.0
C228 C 0.9861 0.71081 0.81095 0.0
C229 C 0.96006 0.71928 0.84688 0.0
C230 C 0.05763 0.74573 0.687 0.0
C231 C 0.0965 0.74767 0.6949 0.0
C232 C 0.03299 0.73777 0.72455 0.0
C233 C 0.0469 0.73134 0.77043 0.0
C234 C 0.08588 0.72917 0.77732 0.0
C235 C 0.11038 0.73739 0.74003 0.0
H236 H 0.6259 0.75215 0.31912 0.0
H237 H 0.54319 0.69684 0.41541 0.0
H238 H 0.57754 0.76338 0.2596 0.0
H239 H 0.49504 0.70519 0.35531 0.0
H240 H 0.40994 0.73343 0.24501 0.0
H241 H 0.45604 0.74945 0.30614 0.0
H242 H 0.54516 0.7132 0.2091 0.0
H243 H 0.49905 0.6999 0.14764 0.0
C244 C 0.59716 0.74303 0.32765 0.0
C245 C 0.58821 0.72344 0.37166 0.0
C246 C 0.56948 0.74893 0.29341 0.0
C247 C 0.53237 0.73427 0.30204 0.0
C248 C 0.52312 0.7174 0.34728 0.0
C249 C 0.55073 0.71246 0.38188 0.0
C250 C 0.43949 0.72975 0.23668 0.0
C251 C 0.45096 0.71507 0.19173 0.0
C252 C 0.46593 0.7386 0.2718 0.0
C253 C 0.50447 0.73207 0.26303 0.0
C254 C 0.51588 0.71939 0.21726 0.0
C255 C 0.48943 0.71143 0.18191 0.0
H256 H 0.0901 0.09995 0.99044 0.0
H257 H 0.09689 0.03986 0.13008 0.0
H258 H 0.04117 0.0425 0.97049 0.0
H259 H 0.04755 0.98353 0.11058 0.0
H260 H 0.98801 0.85604 0.04491 0.0
H261 H 0.03596 0.91404 0.06476 0.0
H262 H 0.97631 0.02229 0.986 0.0
H263 H 0.92852 0.96363 0.965 0.0
C264 C 0.08121 0.07455 1.01691 0.0
C265 C 0.09765 0.07459 0.06186 0.0
C266 C 0.05287 0.04182 1.00559 0.0
C267 C 0.04021 0.00828 0.0389 0.0
C268 C 0.05683 0.00827 0.08374 0.0
C269 C 0.08515 0.04084 0.095 0.0
C270 C 0.98483 0.89225 0.03198 0.0
C271 C 0.95423 0.90497 1.00325 0.0
C272 C 1.0124 0.9257 0.04358 0.0
C273 C 1.01021 0.97301 0.02698 0.0
C274 C 0.97928 0.98604 0.99887 0.0
C275 C 0.95164 0.95246 0.98717 0.0
H276 H 0.58635 0.60008 0.56741 0.0
H277 H 0.59516 0.53997 0.42812 0.0
H278 H 0.53797 0.54159 0.58692 0.0
H279 H 0.54655 0.48229 0.44735 0.0
H280 H 0.48662 0.35424 0.5143 0.0
H281 H 0.53501 0.41227 0.49484 0.0
H282 H 0.47289 0.52189 0.56828 0.0
H283 H 0.42465 0.46363 0.58847 0.0
C284 C 0.5781 0.57438 0.54097 0.0
C285 C 0.59478 0.5749 0.49616 0.0
C286 C 0.55008 0.54105 0.55203 0.0
C287 C 0.53814 0.50721 0.51867 0.0
C288 C 0.55522 0.50739 0.47413 0.0
C289 C 0.58308 0.54072 0.46303 0.0
C290 C 0.48305 0.39077 0.5261 0.0
C291 C 0.45158 0.40406 0.55304 0.0
C292 C 0.51085 0.42417 0.51478 0.0
C293 C 0.50806 0.47185 0.53013 0.0
C294 C 0.47632 0.48536 0.55647 0.0
C295 C 0.44842 0.45197 0.56768 0.0
H296 H 0.44557 0.53264 0.1271 0.0
H297 H 0.46111 0.59781 0.99084 0.0
H298 H 0.49495 0.47492 0.10945 0.0
H299 H 0.5101 0.53949 0.97293 0.0
H300 H 0.62313 0.46316 0.97536 0.0
H301 H 0.5739 0.51997 0.99579 0.0
H302 H 0.51034 0.40654 0.06073 0.0
H303 H 0.55991 0.34963 0.04088 0.0
C304 C 0.45926 0.53449 0.09317 0.0
C305 C 0.4493 0.57018 0.06049 0.0
C306 C 0.48756 0.50115 0.08299 0.0
C307 C 0.50682 0.50258 0.03987 0.0
C308 C 0.49639 0.53774 1.00684 0.0
C309 C 0.46801 0.57102 1.01697 0.0
C310 C 0.59886 0.45025 0.9944 0.0
C311 C 0.59563 0.40157 1.00635 0.0
C312 C 0.57038 0.48288 1.00574 0.0
C313 C 0.53781 0.46791 0.02946 0.0
C314 C 0.53506 0.41951 0.04269 0.0
C315 C 0.56355 0.38679 0.03125 0.0
H316 H 0.98059 0.11607 0.5427 0.0
H317 H 0.91645 0.00559 0.47393 0.0
H318 H 0.02878 0.05764 0.56284 0.0
H319 H 0.96445 0.94697 0.49486 0.0
H320 H 0.07765 0.86761 0.49224 0.0
H321 H 0.02851 0.92576 0.47399 0.0
H322 H 0.04195 -0.01113 0.61129 0.0
H323 H 0.09142 0.93148 0.62921 0.0
C324 C 0.97645 0.07921 0.53238 0.0
C325 C 0.94451 0.06576 0.50655 0.0
C326 C 1.00415 0.04558 0.54407 0.0
C327 C 1.00075 -0.0025 0.53025 0.0
C328 C 0.96838 0.98379 0.50541 0.0
C329 C 0.94062 0.01742 0.49379 0.0
C330 C 0.07024 0.89398 0.51849 0.0
C331 C 0.08862 0.8947 0.56223 0.0
C332 C 0.0418 0.92715 0.50816 0.0
C333 C 0.03104 0.96203 0.54122 0.0
C334 C 0.04968 0.96295 0.58476 0.0
C335 C 0.07803 0.92979 0.59511 0.0
H336 H 0.32846 0.83691 1.00085 0.0
H337 H 0.37691 0.841 0.13973 0.0
H338 H 0.30959 0.92076 1.00838 0.0
H339 H 0.35671 0.92466 0.14795 0.0
H340 H 0.23691 0.01404 0.14929 0.0
H341 H 0.27663 0.94312 0.14132 0.0
H342 H 0.34105 0.01352 0.03328 0.0
H343 H 0.30199 0.08551 0.0422 0.0
C344 C 0.33598 0.85639 0.03235 0.0
C345 C 0.35398 0.83316 0.06977 0.0
C346 C 0.32538 0.90412 0.03655 0.0
C347 C 0.33185 0.92857 0.07867 0.0
C348 C 0.35185 0.90622 0.11508 0.0
C349 C 0.36338 0.85874 0.11036 0.0
C350 C 0.25974 0.0145 0.12415 0.0
C351 C 0.26637 0.05484 0.09608 0.0
C352 C 0.28263 0.97433 0.12004 0.0
C353 C 0.31192 0.97361 0.08717 0.0
C354 C 0.31881 0.01391 0.05923 0.0
C355 C 0.29646 0.05468 0.06419 0.0
H356 H 0.16015 0.62177 0.62432 0.0
H357 H 0.23174 0.64255 0.50361 0.0
H358 H 0.17924 0.53745 0.62762 0.0
H359 H 0.25026 0.55871 0.50643 0.0
H360 H 0.26772 0.39968 0.51484 0.0
H361 H 0.22759 0.47012 0.50415 0.0
H362 H 0.24809 0.5114 0.64795 0.0
H363 H 0.28829 0.44174 0.65863 0.0
C364 C 0.179 0.60785 0.59774 0.0
C365 C 0.19505 0.6383 0.5642 0.0
C366 C 0.18989 0.55991 0.59963 0.0
C367 C 0.21623 0.54201 0.56736 0.0
C368 C 0.22967 0.57166 0.53141 0.0
C369 C 0.21939 0.6196 0.53009 0.0
C370 C 0.26324 0.42358 0.54424 0.0
C371 C 0.2815 0.41583 0.58731 0.0
C372 C 0.24022 0.46354 0.53817 0.0
C373 C 0.23465 0.49565 0.57537 0.0
C374 C 0.25151 0.48665 0.61901 0.0
C375 C 0.27495 0.44724 0.62485 0.0
H376 H 0.72344 0.4665 0.91873 0.0
H377 H 0.80094 0.38993 1.00869 0.0
H378 H 0.76231 0.53687 0.92356 0.0
H379 H 0.84049 0.4615 1.01318 0.0
H380 H 0.85789 0.63 0.04841 0.0
H381 H 0.83531 0.54735 0.04481 0.0
H382 H 0.82541 0.55934 0.89395 0.0
H383 H 0.84639 0.64201 0.89791 0.0
C384 C 0.74893 0.46461 0.9394 0.0
C385 C 0.75939 0.42252 0.96285 0.0
C386 C 0.77137 0.50486 0.94184 0.0
C387 C 0.80487 0.50406 0.9677 0.0
C388 C 0.81493 0.46264 0.99262 0.0
C389 C 0.79231 0.42194 0.99013 0.0
C390 C 0.85193 0.6142 1.01451 0.0
C391 C 0.85293 0.64202 0.9735 0.0
C392 C 0.83917 0.56708 1.01242 0.0
C393 C 0.82783 0.54768 0.96923 0.0
C394 C 0.83315 0.57403 0.92778 0.0
C395 C 0.84517 0.62111 0.92997 0.0
H396 H 0.78085 0.03221 0.39432 0.0
H397 H 0.76564 0.07334 0.53942 0.0
H398 H 0.74176 0.96214 0.40711 0.0
H399 H 0.72684 0.00227 0.55233 0.0
H400 H 0.73696 0.82875 0.54847 0.0
H401 H 0.75299 0.91338 0.54604 0.0
H402 H 0.67336 0.93516 0.43362 0.0
H403 H 0.65664 0.85015 0.43674 0.0
C404 C 0.76883 0.02644 0.42882 0.0
C405 C 0.77662 0.05759 0.46611 0.0
C406 C 0.74605 0.98681 0.43591 0.0
C407 C 0.73124 0.97731 0.48058 0.0
C408 C 0.73785 0.00931 0.51754 0.0
C409 C 0.7601 0.0496 0.51021 0.0
C410 C 0.72221 0.85195 0.52412 0.0
C411 C 0.69605 0.8333 0.4923 0.0
C412 C 0.73106 0.9003 0.52308 0.0
C413 C 0.71439 0.93037 0.48958 0.0
C414 C 0.6864 0.91238 0.45978 0.0
C415 C 0.67692 0.86404 0.46153 0.0
H416 H 0.74337 0.1529 0.89276 0.0
H417 H 0.66896 0.12183 1.00884 0.0
H418 H 0.76271 0.07022 0.89037 0.0
H419 H 0.68752 0.03768 1.00528 0.0
H420 H 0.78102 0.92015 0.02793 0.0
H421 H 0.74406 -0.00601 1.02569 0.0
H422 H 0.74603 -0.00953 0.87379 0.0
H423 H 0.78455 0.91862 0.87637 0.0
C424 C 0.73056 0.12814 0.91724 0.0
C425 C 0.70513 0.14401 0.95152 0.0
C426 C 0.74136 0.08046 0.91554 0.0
C427 C 0.72672 0.04732 0.94776 0.0
C428 C 0.69962 0.06257 0.98041 0.0
C429 C 0.68884 0.11061 0.98222 0.0
C430 C 0.7731 0.93516 0.99424 0.0
C431 C 0.78629 0.91486 0.95238 0.0
C432 C 0.75167 0.97705 0.99285 0.0
C433 C 0.74267 -0.00152 0.94951 0.0
C434 C 0.7534 0.97559 0.90771 0.0
C435 C 0.77544 0.93454 0.90915 0.0
H436 H 0.80958 0.58708 0.47423 0.0
H437 H 0.71375 0.50888 0.42181 0.0
H438 H 0.84707 0.51343 0.47225 0.0
H439 H 0.75089 0.43636 0.42008 0.0
H440 H 0.86577 0.34878 0.52194 0.0
H441 H 0.84487 0.43203 0.5157 0.0
H442 H 0.80625 0.40539 0.37434 0.0
H443 H 0.82627 0.32236 0.3809 0.0
C444 C 0.79659 0.55435 0.46221 0.0
C445 C 0.75877 0.55376 0.44802 0.0
C446 C 0.81802 0.51242 0.46111 0.0
C447 C 0.80197 0.46967 0.44523 0.0
C448 C 0.76419 0.46917 0.43139 0.0
C449 C 0.7428 0.51067 0.43285 0.0
C450 C 0.85383 0.36125 0.48913 0.0
C451 C 0.84667 0.32925 0.45229 0.0
C452 C 0.84201 0.40878 0.48552 0.0
C453 C 0.82327 0.42451 0.44493 0.0
C454 C 0.81993 0.39367 0.40635 0.0
C455 C 0.83135 0.34631 0.4101 0.0
H456 H 0.16883 0.34527 0.13898 0.0
H457 H 0.22725 0.33394 1.00655 0.0
H458 H 0.18703 0.42977 0.14432 0.0
H459 H 0.24414 0.41849 1.01108 0.0
H460 H 0.24835 0.58441 0.03463 0.0
H461 H 0.2097 0.51213 0.02682 0.0
H462 H 0.26711 0.44906 0.14521 0.0
H463 H 0.30646 0.52004 0.15206 0.0
C464 C 0.1843 0.36145 0.11033 0.0
C465 C 0.19708 0.33364 0.07262 0.0
C466 C 0.19458 0.40945 0.11334 0.0
C467 C 0.21668 0.43007 0.07794 0.0
C468 C 0.22668 0.40319 0.03837 0.0
C469 C 0.21732 0.35502 0.03599 0.0
C470 C 0.25231 0.55517 0.05915 0.0
C471 C 0.28049 0.55716 0.09354 0.0
C472 C 0.2302 0.51427 0.05483 0.0
C473 C 0.23535 0.47589 0.0859 0.0
C474 C 0.26243 0.47879 0.12145 0.0
C475 C 0.28514 0.51895 0.12495 0.0
H476 H 0.20984 0.96723 0.6119 0.0
H477 H 0.30684 0.88518 0.56788 0.0
H478 H 0.24734 0.03933 0.61169 0.0
H479 H 0.34452 0.95843 0.56767 0.0
H480 H 0.32609 0.14662 0.66205 0.0
H481 H 0.30309 0.06483 0.66384 0.0
H482 H 0.34382 0.04262 0.52265 0.0
H483 H 0.36746 0.12495 0.52096 0.0
C484 C 0.23914 0.96453 0.60201 0.0
C485 C 0.25548 0.92038 0.59045 0.0
C486 C 0.26064 0.00581 0.60221 0.0
C487 C 0.29887 0.00398 0.59059 0.0
C488 C 0.3151 0.9604 0.5771 0.0
C489 C 0.29356 0.91871 0.57728 0.0
C490 C 0.33098 0.12389 0.63183 0.0
C491 C 0.34776 0.14207 0.59102 0.0
C492 C 0.31782 0.07726 0.63286 0.0
C493 C 0.32101 0.04818 0.59298 0.0
C494 C 0.34104 0.06466 0.55372 0.0
C495 C 0.3545 0.11157 0.55278 0.0
H496 H 0.17054 0.24152 0.92428 0.0
H497 H 0.27009 0.15747 0.95227 0.0
H498 H 0.19695 0.26554 0.84853 0.0
H499 H 0.29622 0.18159 0.87701 0.0
H500 H 0.35045 0.28696 0.77332 0.0
H501 H 0.32074 0.25861 0.84533 0.0
H502 H 0.21747 0.23482 0.76977 0.0
H503 H 0.24714 0.26284 0.69764 0.0
C504 C 0.19766 0.22739 0.914 0.0
C505 C 0.21823 0.19782 0.9447 0.0
C506 C 0.21284 0.24129 0.87062 0.0
C507 C 0.24899 0.22614 0.85715 0.0
C508 C 0.26868 0.19471 0.88679 0.0
C509 C 0.25346 0.18057 0.92984 0.0
C510 C 0.32148 0.2756 0.77192 0.0
C511 C 0.30138 0.27697 0.72947 0.0
C512 C 0.30445 0.25917 0.81321 0.0
C513 C 0.26678 0.24412 0.8132 0.0
C514 C 0.24645 0.24636 0.77102 0.0
C515 C 0.26357 0.26234 0.72963 0.0
H516 H 0.29367 0.26606 0.18973 0.0
H517 H 0.22955 0.16006 0.26543 0.0
H518 H 0.32241 0.29194 0.26398 0.0
H519 H 0.2579 0.18598 0.33864 0.0
H520 H 0.27452 0.28141 0.46261 0.0
H521 H 0.25188 0.265 0.38397 0.0
H522 H 0.36588 0.25544 0.33364 0.0
H523 H 0.38908 0.2718 0.4136 0.0
C524 C 0.28579 0.24822 0.22203 0.0
C525 C 0.2592 0.21103 0.22159 0.0
C526 C 0.3024 0.26288 0.26439 0.0
C527 C 0.2922 0.24117 0.30705 0.0
C528 C 0.26604 0.20371 0.30636 0.0
C529 C 0.24989 0.18874 0.26428 0.0
C530 C 0.29498 0.27628 0.43487 0.0
C531 C 0.33368 0.27702 0.44464 0.0
C532 C 0.2819 0.26683 0.38977 0.0
C533 C 0.30708 0.25804 0.3529 0.0
C534 C 0.34587 0.26197 0.36156 0.0
C535 C 0.35912 0.27135 0.40723 0.0
H536 H 0.74544 0.19548 0.34708 0.0
H537 H 0.85475 0.194 0.28129 0.0
H538 H 0.71698 0.22066 0.27342 0.0
H539 H 0.82637 0.22068 0.20779 0.0
H540 H 0.76126 0.20806 0.07342 0.0
H541 H 0.78735 0.18735 0.14879 0.0
H542 H 0.71045 0.28513 0.21658 0.0
H543 H 0.68313 0.30539 0.13961 0.0
C544 C 0.76348 0.20072 0.31689 0.0
C545 C 0.80239 0.19208 0.31989 0.0
C546 C 0.74711 0.21565 0.27475 0.0
C547 C 0.76925 0.22255 0.23457 0.0
C548 C 0.80831 0.21483 0.23785 0.0
C549 C 0.82467 0.19954 0.27995 0.0
C550 C 0.74979 0.22552 0.10422 0.0
C551 C 0.72034 0.25898 0.10039 0.0
C552 C 0.76506 0.21374 0.1476 0.0
C553 C 0.75167 0.23525 0.18876 0.0
C554 C 0.72145 0.26789 0.18543 0.0
C555 C 0.70578 0.27955 0.14151 0.0
H556 H 0.87663 0.22817 0.63341 0.0
H557 H 0.76823 0.18044 0.58531 0.0
H558 H 0.84861 0.25179 0.7085 0.0
H559 H 0.74043 0.20241 0.66027 0.0
H560 H 0.69363 0.3019 0.77295 0.0
H561 H 0.72321 0.27387 0.70047 0.0
H562 H 0.81975 0.226 0.77968 0.0
H563 H 0.79095 0.25515 0.85128 0.0
C564 C 0.84709 0.22147 0.63946 0.0
C565 C 0.82457 0.2027 0.60362 0.0
C566 C 0.8309 0.23516 0.68235 0.0
C567 C 0.792 0.22986 0.69018 0.0
C568 C 0.77016 0.20837 0.65508 0.0
C569 C 0.7862 0.1952 0.61233 0.0
C570 C 0.7212 0.28557 0.77474 0.0
C571 C 0.73997 0.28122 0.81786 0.0
C572 C 0.73811 0.26913 0.73329 0.0
C573 C 0.77398 0.24757 0.73415 0.0
C574 C 0.7925 0.24308 0.77742 0.0
C575 C 0.77579 0.25973 0.81861 0.0
H576 H 0.88629 0.776 0.14521 0.0
H577 H 0.7735 0.7886 0.09096 0.0
H578 H 0.86055 0.76007 0.22399 0.0
H579 H 0.74824 0.77288 0.16859 0.0
H580 H 0.71947 0.67038 0.28741 0.0
H581 H 0.74876 0.69657 0.21478 0.0
H582 H 0.81876 0.7943 0.29224 0.0
H583 H 0.78917 0.76798 0.36582 0.0
C584 C 0.85616 0.77641 0.15021 0.0
C585 C 0.83197 0.78283 0.11162 0.0
C586 C 0.84142 0.76722 0.19525 0.0
C587 C 0.80234 0.76424 0.20226 0.0
C588 C 0.77844 0.77382 0.1642 0.0
C589 C 0.79301 0.78301 0.11966 0.0
C590 C 0.7411 0.69743 0.28924 0.0
C591 C 0.75182 0.7171 0.3326 0.0
C592 C 0.7578 0.71264 0.24746 0.0
C593 C 0.78593 0.74778 0.24767 0.0
C594 C 0.79725 0.76707 0.29098 0.0
C595 C 0.78014 0.75217 0.33303 0.0
H596 H 0.75602 0.7563 0.85599 0.0
H597 H 0.86092 0.77389 0.78186 0.0
H598 H 0.72635 0.72845 0.78441 0.0
H599 H 0.83074 0.74661 0.70946 0.0
H600 H 0.77439 0.65423 0.59802 0.0
H601 H 0.80368 0.67615 0.67222 0.0
H602 H 0.7052 0.7581 0.70949 0.0
H603 H 0.67564 0.73569 0.63557 0.0
C604 C 0.77283 0.75448 0.82434 0.0
C605 C 0.81096 0.7677 0.82483 0.0
C606 C 0.75563 0.73864 0.78309 0.0
C607 C 0.77597 0.73538 0.74094 0.0
C608 C 0.81424 0.74818 0.74137 0.0
C609 C 0.83152 0.76418 0.78281 0.0
C610 C 0.75866 0.67634 0.6223 0.0
C611 C 0.72253 0.69315 0.61057 0.0
C612 C 0.77571 0.68936 0.66471 0.0
C613 C 0.75709 0.7194 0.69675 0.0
C614 C 0.72036 0.73465 0.68589 0.0
C615 C 0.70332 0.7217 0.64341 0.0
H616 H 0.25869 0.68623 0.69708 0.0
H617 H 0.25907 0.83254 0.74503 0.0
H618 H 0.28806 0.66101 0.77121 0.0
H619 H 0.28891 0.80751 0.81825 0.0
H620 H 0.37429 0.75196 0.92532 0.0
H621 H 0.35136 0.77065 0.84644 0.0
H622 H 0.26745 0.66064 0.85938 0.0
H623 H 0.28992 0.64233 0.93873 0.0
C624 C 0.26544 0.71306 0.72312 0.0
C625 C 0.25651 0.76143 0.71503 0.0
C626 C 0.28207 0.69858 0.76565 0.0
C627 C 0.29096 0.73227 0.80059 0.0
C628 C 0.2828 0.7807 0.79195 0.0
C629 C 0.2655 0.79501 0.75 0.0
C630 C 0.3514 0.73109 0.91112 0.0
C631 C 0.33398 0.6956 0.93855 0.0
C632 C 0.33807 0.7421 0.86599 0.0
C633 C 0.30744 0.71732 0.84667 0.0
C634 C 0.2912 0.68023 0.8731 0.0
C635 C 0.30406 0.66982 0.91863 0.0
H636 H 0.16779 0.72139 0.42457 0.0
H637 H 0.25079 0.83263 0.43841 0.0
H638 H 0.19104 0.70362 0.34573 0.0
H639 H 0.27371 0.81507 0.35919 0.0
H640 H 0.28536 0.78866 0.19765 0.0
H641 H 0.25497 0.81403 0.27106 0.0
H642 H 0.25324 0.66754 0.31856 0.0
H643 H 0.28391 0.64237 0.2461 0.0
C644 C 0.19042 0.74282 0.41048 0.0
C645 C 0.20744 0.77841 0.43806 0.0
C646 C 0.20394 0.73234 0.36537 0.0
C647 C 0.23442 0.75768 0.34627 0.0
C648 C 0.2501 0.79503 0.37274 0.0
C649 C 0.23699 0.805 0.41822 0.0
C650 C 0.27822 0.7619 0.22366 0.0
C651 C 0.28712 0.71348 0.21594 0.0
C652 C 0.26099 0.77645 0.26577 0.0
C653 C 0.25151 0.74278 0.30059 0.0
C654 C 0.25974 0.69434 0.29231 0.0
C655 C 0.27757 0.67996 0.25082 0.0
loop_
_geom_bond_atom_site_label_1
_geom_bond_atom_site_label_2
_geom_bond_distance
_geom_bond_site_symmetry_2
_ccdc_geom_bond_type
Fe0 O2 1.918 . S
Fe0 O5 1.997 . S
Fe0 O6 2.002 . S
Fe0 O11 1.976 . S
Fe0 O14 1.996 . S
Fe1 O2 1.918 . S
Fe1 O9 1.997 . S
Fe1 O12 1.996 . S
Fe1 O16 1.976 . S
Fe1 O19 2.002 . S
O2 Fe0 1.918 . S
O2 Fe1 1.918 . S
O2 Fe3 1.918 . S
Fe3 O2 1.918 . S
Fe3 O4 2.002 . S
Fe3 O13 1.976 . S
Fe3 O17 1.996 . S
Fe3 O20 1.997 . S
O4 Fe3 2.002 . S
O4 C21 1.295 . S
O5 Fe0 1.997 . S
O5 C21 1.235 . S
O6 Fe0 2.002 . S
O6 C7 1.295 . S
C7 O6 1.295 . S
C7 O9 1.235 . S
C8 O13 1.287 . S
C8 O14 1.255 . S
O9 Fe1 1.997 . S
O9 C7 1.235 . S
C10 O16 1.300 . S
C10 O17 1.258 . S
O11 Fe0 1.976 . S
O11 C18 1.287 . S
O12 Fe1 1.996 . S
O12 C18 1.255 . S
O13 Fe3 1.976 . S
O13 C8 1.287 . S
O14 Fe0 1.996 . S
O14 C8 1.255 . S
C15 O19 1.295 . S
C15 O20 1.235 . S
O16 Fe1 1.976 . S
O16 C10 1.300 . S
O17 Fe3 1.996 . S
O17 C10 1.258 . S
C18 O11 1.287 . S
C18 O12 1.255 . S
O19 Fe1 2.002 . S
O19 C15 1.295 . S
O20 Fe3 1.997 . S
O20 C15 1.235 . S
C21 O4 1.295 . S
C21 O5 1.235 . S
Fe22 O24 1.918 . S
Fe22 O27 1.997 . S
Fe22 O28 2.002 . S
Fe22 O33 1.976 . S
Fe22 O36 1.996 . S
Fe23 O24 1.918 . S
Fe23 O31 1.997 . S
Fe23 O34 1.996 . S
Fe23 O38 1.976 . S
Fe23 O41 2.002 . S
O24 Fe22 1.918 . S
O24 Fe23 1.918 . S
O24 Fe25 1.918 . S
Fe25 O24 1.918 . S
Fe25 O26 2.002 . S
Fe25 O35 1.976 . S
Fe25 O39 1.996 . S
Fe25 O42 1.997 . S
O26 Fe25 2.002 . S
O26 C43 1.295 . S
O27 Fe22 1.997 . S
O27 C43 1.235 . S
O28 Fe22 2.002 . S
O28 C29 1.295 . S
C29 O28 1.295 . S
C29 O31 1.235 . S
C30 O35 1.287 . S
C30 O36 1.255 . S
O31 Fe23 1.997 . S
O31 C29 1.235 . S
C32 O38 1.287 . S
C32 O39 1.255 . S
O33 Fe22 1.976 . S
O33 C40 1.287 . S
O34 Fe23 1.996 . S
O34 C40 1.255 . S
O35 Fe25 1.976 . S
O35 C30 1.287 . S
O36 Fe22 1.996 . S
O36 C30 1.255 . S
C37 O41 1.295 . S
C37 O42 1.235 . S
O38 Fe23 1.976 . S
O38 C32 1.287 . S
O39 Fe25 1.996 . S
O39 C32 1.255 . S
C40 O33 1.287 . S
C40 O34 1.255 . S
O41 Fe23 2.002 . S
O41 C37 1.295 . S
O42 Fe25 1.997 . S
O42 C37 1.235 . S
C43 O26 1.295 . S
C43 O27 1.235 . S
Fe44 O46 1.918 . S
Fe44 O49 1.997 . S
Fe44 O50 2.002 . S
Fe44 O55 1.976 . S
Fe44 O58 1.996 . S
Fe45 O46 1.918 . S
Fe45 O53 1.997 . S
Fe45 O56 1.996 . S
Fe45 O60 1.976 . S
Fe45 O63 2.002 . S
O46 Fe44 1.918 . S
O46 Fe45 1.918 . S
O46 Fe47 1.918 . S
Fe47 O46 1.918 . S
Fe47 O48 2.002 . S
Fe47 O57 1.976 . S
Fe47 O61 1.996 . S
Fe47 O64 1.997 . S
O48 Fe47 2.002 . S
O48 C65 1.295 . S
O49 Fe44 1.997 . S
O49 C65 1.235 . S
O50 Fe44 2.002 . S
O50 C51 1.295 . S
C51 O50 1.295 . S
C51 O53 1.235 . S
C52 O57 1.287 . S
C52 O58 1.255 . S
O53 Fe45 1.997 . S
O53 C51 1.235 . S
C54 O60 1.300 . S
C54 O61 1.258 . S
O55 Fe44 1.976 . S
O55 C62 1.287 . S
O56 Fe45 1.996 . S
O56 C62 1.255 . S
O57 Fe47 1.976 . S
O57 C52 1.287 . S
O58 Fe44 1.996 . S
O58 C52 1.255 . S
C59 O63 1.295 . S
C59 O64 1.235 . S
O60 Fe45 1.976 . S
O60 C54 1.300 . S
O61 Fe47 1.996 . S
O61 C54 1.258 . S
C62 O55 1.287 . S
C62 O56 1.255 . S
O63 Fe45 2.002 . S
O63 C59 1.295 . S
O64 Fe47 1.997 . S
O64 C59 1.235 . S
C65 O48 1.295 . S
C65 O49 1.235 . S
Fe66 O68 1.918 . S
Fe66 O71 1.997 . S
Fe66 O72 2.002 . S
Fe66 O77 1.976 . S
Fe66 O80 1.996 . S
Fe67 O68 1.918 . S
Fe67 O75 1.997 . S
Fe67 O78 1.996 . S
Fe67 O82 1.976 . S
Fe67 O85 2.002 . S
O68 Fe66 1.918 . S
O68 Fe67 1.918 . S
O68 Fe69 1.918 . S
Fe69 O68 1.918 . S
Fe69 O70 2.002 . S
Fe69 O79 1.976 . S
Fe69 O83 1.996 . S
Fe69 O86 1.997 . S
O70 Fe69 2.002 . S
O70 C87 1.295 . S
O71 Fe66 1.997 . S
O71 C87 1.235 . S
O72 Fe66 2.002 . S
O72 C73 1.295 . S
C73 O72 1.295 . S
C73 O75 1.235 . S
C74 O79 1.287 . S
C74 O80 1.255 . S
O75 Fe67 1.997 . S
O75 C73 1.235 . S
C76 O82 1.287 . S
C76 O83 1.255 . S
O77 Fe66 1.976 . S
O77 C84 1.287 . S
O78 Fe67 1.996 . S
O78 C84 1.255 . S
O79 Fe69 1.976 . S
O79 C74 1.287 . S
O80 Fe66 1.996 . S
O80 C74 1.255 . S
C81 O85 1.295 . S
C81 O86 1.235 . S
O82 Fe67 1.976 . S
O82 C76 1.287 . S
O83 Fe69 1.996 . S
O83 C76 1.255 . S
C84 O77 1.287 . S
C84 O78 1.255 . S
O85 Fe67 2.002 . S
O85 C81 1.295 . S
O86 Fe69 1.997 . S
O86 C81 1.235 . S
C87 O70 1.295 . S
C87 O71 1.235 . S
Fe88 O90 1.918 . S
Fe88 O93 1.997 . S
Fe88 O94 2.002 . S
Fe88 O99 1.976 . S
Fe88 O102 1.996 . S
Fe89 O90 1.918 . S
Fe89 O97 1.997 . S
Fe89 O100 1.996 . S
Fe89 O104 1.976 . S
Fe89 O107 2.002 . S
O90 Fe88 1.918 . S
O90 Fe89 1.918 . S
O90 Fe91 1.918 . S
Fe91 O90 1.918 . S
Fe91 O92 2.002 . S
Fe91 O101 1.976 . S
Fe91 O105 1.996 . S
Fe91 O108 1.997 . S
O92 Fe91 2.002 . S
O92 C109 1.295 . S
O93 Fe88 1.997 . S
O93 C109 1.235 . S
O94 Fe88 2.002 . S
O94 C95 1.295 . S
C95 O94 1.295 . S
C95 O97 1.235 . S
C96 O101 1.291 . S
C96 O102 1.272 . S
O97 Fe89 1.997 . S
O97 C95 1.235 . S
C98 O104 1.287 . S
C98 O105 1.255 . S
O99 Fe88 1.976 . S
O99 C106 1.287 . S
O100 Fe89 1.996 . S
O100 C106 1.255 . S
O101 Fe91 1.976 . S
O101 C96 1.291 . S
O102 Fe88 1.996 . S
O102 C96 1.272 . S
C103 O107 1.295 . S
C103 O108 1.235 . S
O104 Fe89 1.976 . S
O104 C98 1.287 . S
O105 Fe91 1.996 . S
O105 C98 1.255 . S
C106 O99 1.287 . S
C106 O100 1.255 . S
O107 Fe89 2.002 . S
O107 C103 1.295 . S
O108 Fe91 1.997 . S
O108 C103 1.235 . S
C109 O92 1.295 . S
C109 O93 1.235 . S
Fe110 O112 1.918 . S
Fe110 O115 1.997 . S
Fe110 O116 2.002 . S
Fe110 O121 1.976 . S
Fe110 O124 1.996 . S
Fe111 O112 1.918 . S
Fe111 O119 1.997 . S
Fe111 O122 1.996 . S
Fe111 O126 1.976 . S
Fe111 O129 2.002 . S
O112 Fe110 1.918 . S
O112 Fe111 1.918 . S
O112 Fe113 1.918 . S
Fe113 O112 1.918 . S
Fe113 O114 2.002 . S
Fe113 O123 1.976 . S
Fe113 O127 1.996 . S
Fe113 O130 1.997 . S
O114 Fe113 2.002 . S
O114 C131 1.295 . S
O115 Fe110 1.997 . S
O115 C131 1.235 . S
O116 Fe110 2.002 . S
O116 C117 1.295 . S
C117 O116 1.295 . S
C117 O119 1.235 . S
C118 O123 1.287 . S
C118 O124 1.255 . S
O119 Fe111 1.997 . S
O119 C117 1.235 . S
C120 O126 1.287 . S
C120 O127 1.255 . S
O121 Fe110 1.976 . S
O121 C128 1.287 . S
O122 Fe111 1.996 . S
O122 C128 1.255 . S
O123 Fe113 1.976 . S
O123 C118 1.287 . S
O124 Fe110 1.996 . S
O124 C118 1.255 . S
C125 O129 1.295 . S
C125 O130 1.235 . S
O126 Fe111 1.976 . S
O126 C120 1.287 . S
O127 Fe113 1.996 . S
O127 C120 1.255 . S
C128 O121 1.287 . S
C128 O122 1.255 . S
O129 Fe111 2.002 . S
O129 C125 1.295 . S
O130 Fe113 1.997 . S
O130 C125 1.235 . S
C131 O114 1.295 . S
C131 O115 1.235 . S
Fe132 O134 1.918 . S
Fe132 O137 1.997 . S
Fe132 O138 2.002 . S
Fe132 O143 1.976 . S
Fe132 O146 1.996 . S
Fe133 O134 1.918 . S
Fe133 O141 1.997 . S
Fe133 O144 1.996 . S
Fe133 O148 1.976 . S
Fe133 O151 2.002 . S
O134 Fe132 1.918 . S
O134 Fe133 1.918 . S
O134 Fe135 1.918 . S
Fe135 O134 1.918 . S
Fe135 O136 2.002 . S
Fe135 O145 1.976 . S
Fe135 O149 1.996 . S
Fe135 O152 1.997 . S
O136 Fe135 2.002 . S
O136 C153 1.295 . S
O137 Fe132 1.997 . S
O137 C153 1.235 . S
O138 Fe132 2.002 . S
O138 C139 1.295 . S
C139 O138 1.295 . S
C139 O141 1.235 . S
C140 O145 1.287 . S
C140 O146 1.255 . S
O141 Fe133 1.997 . S
O141 C139 1.235 . S
C142 O148 1.291 . S
C142 O149 1.272 . S
O143 Fe132 1.976 . S
O143 C150 1.287 . S
O144 Fe133 1.996 . S
O144 C150 1.255 . S
O145 Fe135 1.976 . S
O145 C140 1.287 . S
O146 Fe132 1.996 . S
O146 C140 1.255 . S
C147 O151 1.295 . S
C147 O152 1.235 . S
O148 Fe133 1.976 . S
O148 C142 1.291 . S
O149 Fe135 1.996 . S
O149 C142 1.272 . S
C150 O143 1.287 . S
C150 O144 1.255 . S
O151 Fe133 2.002 . S
O151 C147 1.295 . S
O152 Fe135 1.997 . S
O152 C147 1.235 . S
C153 O136 1.295 . S
C153 O137 1.235 . S
Fe154 O156 1.918 . S
Fe154 O159 1.997 . S
Fe154 O160 2.002 . S
Fe154 O165 1.976 . S
Fe154 O168 1.996 . S
Fe155 O156 1.918 . S
Fe155 O163 1.997 . S
Fe155 O166 1.996 . S
Fe155 O170 1.976 . S
Fe155 O173 2.002 . S
O156 Fe154 1.918 . S
O156 Fe155 1.918 . S
O156 Fe157 1.918 . S
Fe157 O156 1.918 . S
Fe157 O158 2.002 . S
Fe157 O167 1.976 . S
Fe157 O171 1.996 . S
Fe157 O174 1.997 . S
O158 Fe157 2.002 . S
O158 C175 1.295 . S
O159 Fe154 1.997 . S
O159 C175 1.235 . S
O160 Fe154 2.002 . S
O160 C161 1.295 . S
C161 O160 1.295 . S
C161 O163 1.235 . S
C162 O167 1.287 . S
C162 O168 1.255 . S
O163 Fe155 1.997 . S
O163 C161 1.235 . S
C164 O170 1.287 . S
C164 O171 1.255 . S
O165 Fe154 1.976 . S
O165 C172 1.287 . S
O166 Fe155 1.996 . S
O166 C172 1.255 . S
O167 Fe157 1.976 . S
O167 C162 1.287 . S
O168 Fe154 1.996 . S
O168 C162 1.255 . S
C169 O173 1.295 . S
C169 O174 1.235 . S
O170 Fe155 1.976 . S
O170 C164 1.287 . S
O171 Fe157 1.996 . S
O171 C164 1.255 . S
C172 O165 1.287 . S
C172 O166 1.255 . S
O173 Fe155 2.002 . S
O173 C169 1.295 . S
O174 Fe157 1.997 . S
O174 C169 1.235 . S
C175 O158 1.295 . S
C175 O159 1.235 . S
H176 C184 0.950 . S
H177 C189 0.950 . S
H178 C186 0.950 1_655 S
H179 C188 0.950 . S
H180 C190 0.950 . S
H181 C192 0.950 1_455 S
H182 C194 0.950 . S
H183 C195 0.950 . S
C184 H176 0.950 . S
C184 C185 1.386 . S
C184 C186 1.391 . S
C185 C184 1.386 . S
C185 C189 1.393 . S
C186 H178 0.950 1_455 S
C186 C184 1.391 . S
C186 C187 1.400 . S
C187 C186 1.400 . S
C187 C188 1.398 . S
C187 C193 1.491 1_455 S
C188 H179 0.950 . S
C188 C187 1.398 . S
C188 C189 1.391 . S
C189 H177 0.950 . S
C189 C185 1.393 . S
C189 C188 1.391 . S
C190 H180 0.950 . S
C190 C191 1.386 . S
C190 C192 1.391 . S
C191 C190 1.386 . S
C191 C195 1.393 . S
C192 H181 0.950 1_655 S
C192 C190 1.391 . S
C192 C193 1.400 . S
C193 C187 1.491 1_655 S
C193 C192 1.400 . S
C193 C194 1.398 . S
C194 H182 0.950 . S
C194 C193 1.398 . S
C194 C195 1.391 . S
C195 H183 0.950 . S
C195 C191 1.393 . S
C195 C194 1.391 . S
H196 C204 0.950 . S
H197 C209 0.950 . S
H198 C206 0.950 . S
H199 C208 0.950 . S
H200 C210 0.950 . S
H201 C212 0.950 . S
H202 C214 0.950 . S
H203 C215 0.950 . S
C204 H196 0.950 . S
C204 C205 1.386 . S
C204 C206 1.391 . S
C205 C204 1.386 . S
C205 C209 1.393 . S
C206 H198 0.950 . S
C206 C204 1.391 . S
C206 C207 1.400 . S
C207 C206 1.400 . S
C207 C208 1.398 . S
C207 C213 1.491 . S
C208 H199 0.950 . S
C208 C207 1.398 . S
C208 C209 1.391 . S
C209 H197 0.950 . S
C209 C205 1.393 . S
C209 C208 1.391 . S
C210 H200 0.950 . S
C210 C211 1.386 . S
C210 C212 1.391 . S
C211 C210 1.386 . S
C211 C215 1.393 . S
C212 H201 0.950 . S
C212 C210 1.391 . S
C212 C213 1.400 . S
C213 C207 1.491 . S
C213 C212 1.400 . S
C213 C214 1.398 . S
C214 H202 0.950 . S
C214 C213 1.398 . S
C214 C215 1.391 . S
C215 H203 0.950 . S
C215 C211 1.393 . S
C215 C214 1.391 . S
H216 C224 0.950 . S
H217 C229 0.950 . S
H218 C226 0.950 . S
H219 C228 0.950 . S
H220 C230 0.950 . S
H221 C232 0.950 . S
H222 C234 0.950 . S
H223 C235 0.950 . S
C224 H216 0.950 . S
C224 C225 1.386 . S
C224 C226 1.391 . S
C225 C224 1.386 . S
C225 C229 1.393 . S
C226 H218 0.950 . S
C226 C224 1.391 . S
C226 C227 1.400 . S
C227 C226 1.400 . S
C227 C228 1.398 . S
C227 C233 1.491 1_655 S
C228 H219 0.950 . S
C228 C227 1.398 . S
C228 C229 1.391 . S
C229 H217 0.950 . S
C229 C225 1.393 . S
C229 C228 1.391 . S
C230 H220 0.950 . S
C230 C231 1.386 . S
C230 C232 1.391 . S
C231 C230 1.386 . S
C231 C235 1.393 . S
C232 H221 0.950 . S
C232 C230 1.391 . S
C232 C233 1.400 . S
C233 C227 1.491 1_455 S
C233 C232 1.400 . S
C233 C234 1.398 . S
C234 H222 0.950 . S
C234 C233 1.398 . S
C234 C235 1.391 . S
C235 H223 0.950 . S
C235 C231 1.393 . S
C235 C234 1.391 . S
H236 C244 0.950 . S
H237 C249 0.950 . S
H238 C246 0.950 . S
H239 C248 0.950 . S
H240 C250 0.950 . S
H241 C252 0.950 . S
H242 C254 0.950 . S
H243 C255 0.950 . S
C244 H236 0.950 . S
C244 C245 1.386 . S
C244 C246 1.391 . S
C245 C244 1.386 . S
C245 C249 1.393 . S
C246 H238 0.950 . S
C246 C244 1.391 . S
C246 C247 1.400 . S
C247 C246 1.400 . S
C247 C248 1.398 . S
C247 C253 1.491 . S
C248 H239 0.950 . S
C248 C247 1.398 . S
C248 C249 1.391 . S
C249 H237 0.950 . S
C249 C245 1.393 . S
C249 C248 1.391 . S
C250 H240 0.950 . S
C250 C251 1.386 . S
C250 C252 1.391 . S
C251 C250 1.386 . S
C251 C255 1.393 . S
C252 H241 0.950 . S
C252 C250 1.391 . S
C252 C253 1.400 . S
C253 C247 1.491 . S
C253 C252 1.400 . S
C253 C254 1.398 . S
C254 H242 0.950 . S
C254 C253 1.398 . S
C254 C255 1.391 . S
C255 H243 0.950 . S
C255 C251 1.393 . S
C255 C254 1.391 . S
H256 C264 0.950 . S
H257 C269 0.950 . S
H258 C266 0.950 1_655 S
H259 C268 0.950 1_565 S
H260 C270 0.950 . S
H261 C272 0.950 1_455 S
H262 C274 0.950 1_545 S
H263 C275 0.950 . S
C264 H256 0.950 . S
C264 C265 1.386 . S
C264 C266 1.391 1_554 S
C265 C264 1.386 . S
C265 C269 1.393 . S
C266 H258 0.950 1_455 S
C266 C264 1.391 1_556 S
C266 C267 1.400 1_556 S
C267 C266 1.400 1_554 S
C267 C268 1.398 . S
C267 C273 1.491 1_444 S
C268 H259 0.950 1_545 S
C268 C267 1.398 . S
C268 C269 1.391 . S
C269 H257 0.950 . S
C269 C265 1.393 . S
C269 C268 1.391 . S
C270 H260 0.950 . S
C270 C271 1.386 . S
C270 C272 1.391 1_556 S
C271 C270 1.386 . S
C271 C275 1.393 . S
C272 H261 0.950 1_655 S
C272 C270 1.391 1_554 S
C272 C273 1.400 1_554 S
C273 C267 1.491 1_666 S
C273 C272 1.400 1_556 S
C273 C274 1.398 . S
C274 H262 0.950 1_565 S
C274 C273 1.398 . S
C274 C275 1.391 . S
C275 H263 0.950 . S
C275 C271 1.393 . S
C275 C274 1.391 . S
H276 C284 0.950 . S
H277 C289 0.950 . S
H278 C286 0.950 . S
H279 C288 0.950 . S
H280 C290 0.950 . S
H281 C292 0.950 . S
H282 C294 0.950 . S
H283 C295 0.950 . S
C284 H276 0.950 . S
C284 C285 1.386 . S
C284 C286 1.391 . S
C285 C284 1.386 . S
C285 C289 1.393 . S
C286 H278 0.950 . S
C286 C284 1.391 . S
C286 C287 1.400 . S
C287 C286 1.400 . S
C287 C288 1.398 . S
C287 C293 1.491 . S
C288 H279 0.950 . S
C288 C287 1.398 . S
C288 C289 1.391 . S
C289 H277 0.950 . S
C289 C285 1.393 . S
C289 C288 1.391 . S
C290 H280 0.950 . S
C290 C291 1.386 . S
C290 C292 1.391 . S
C291 C290 1.386 . S
C291 C295 1.393 . S
C292 H281 0.950 . S
C292 C290 1.391 . S
C292 C293 1.400 . S
C293 C287 1.491 . S
C293 C292 1.400 . S
C293 C294 1.398 . S
C294 H282 0.950 . S
C294 C293 1.398 . S
C294 C295 1.391 . S
C295 H283 0.950 . S
C295 C291 1.393 . S
C295 C294 1.391 . S
H296 C304 0.950 . S
H297 C309 0.950 . S
H298 C306 0.950 . S
H299 C308 0.950 . S
H300 C310 0.950 . S
H301 C312 0.950 . S
H302 C314 0.950 . S
H303 C315 0.950 . S
C304 H296 0.950 . S
C304 C305 1.386 . S
C304 C306 1.391 . S
C305 C304 1.386 . S
C305 C309 1.393 1_554 S
C306 H298 0.950 . S
C306 C304 1.391 . S
C306 C307 1.400 . S
C307 C306 1.400 . S
C307 C308 1.398 1_554 S
C307 C313 1.491 1_554 S
C308 H299 0.950 . S
C308 C307 1.398 1_556 S
C308 C309 1.391 . S
C309 H297 0.950 . S
C309 C305 1.393 1_556 S
C309 C308 1.391 . S
C310 H300 0.950 . S
C310 C311 1.386 . S
C310 C312 1.391 . S
C311 C310 1.386 . S
C311 C315 1.393 1_556 S
C312 H301 0.950 . S
C312 C310 1.391 . S
C312 C313 1.400 . S
C313 C307 1.491 1_556 S
C313 C312 1.400 . S
C313 C314 1.398 1_556 S
C314 H302 0.950 . S
C314 C313 1.398 1_554 S
C314 C315 1.391 . S
C315 H303 0.950 . S
C315 C311 1.393 1_554 S
C315 C314 1.391 . S
H316 C324 0.950 . S
H317 C329 0.950 . S
H318 C326 0.950 1_455 S
H319 C328 0.950 1_565 S
H320 C330 0.950 . S
H321 C332 0.950 1_655 S
H322 C334 0.950 1_545 S
H323 C335 0.950 . S
C324 H316 0.950 . S
C324 C325 1.386 . S
C324 C326 1.391 . S
C325 C324 1.386 . S
C325 C329 1.393 . S
C326 H318 0.950 1_655 S
C326 C324 1.391 . S
C326 C327 1.400 . S
C327 C326 1.400 . S
C327 C328 1.398 . S
C327 C333 1.491 1_645 S
C328 H319 0.950 1_545 S
C328 C327 1.398 . S
C328 C329 1.391 . S
C329 H317 0.950 . S
C329 C325 1.393 . S
C329 C328 1.391 . S
C330 H320 0.950 . S
C330 C331 1.386 . S
C330 C332 1.391 . S
C331 C330 1.386 . S
C331 C335 1.393 . S
C332 H321 0.950 1_455 S
C332 C330 1.391 . S
C332 C333 1.400 . S
C333 C327 1.491 1_465 S
C333 C332 1.400 . S
C333 C334 1.398 . S
C334 H322 0.950 1_565 S
C334 C333 1.398 . S
C334 C335 1.391 . S
C335 H323 0.950 . S
C335 C331 1.393 . S
C335 C334 1.391 . S
H336 C344 0.950 . S
H337 C349 0.950 . S
H338 C346 0.950 . S
H339 C348 0.950 . S
H340 C350 0.950 . S
H341 C352 0.950 1_565 S
H342 C354 0.950 . S
H343 C355 0.950 . S
C344 H336 0.950 . S
C344 C345 1.386 . S
C344 C346 1.391 . S
C345 C344 1.386 . S
C345 C349 1.393 . S
C346 H338 0.950 . S
C346 C344 1.391 . S
C346 C347 1.400 . S
C347 C346 1.400 . S
C347 C348 1.398 . S
C347 C353 1.491 . S
C348 H339 0.950 . S
C348 C347 1.398 . S
C348 C349 1.391 . S
C349 H337 0.950 . S
C349 C345 1.393 . S
C349 C348 1.391 . S
C350 H340 0.950 . S
C350 C351 1.386 . S
C350 C352 1.391 . S
C351 C350 1.386 . S
C351 C355 1.393 . S
C352 H341 0.950 1_545 S
C352 C350 1.391 . S
C352 C353 1.400 1_545 S
C353 C347 1.491 . S
C353 C352 1.400 1_565 S
C353 C354 1.398 1_565 S
C354 H342 0.950 . S
C354 C353 1.398 1_545 S
C354 C355 1.391 . S
C355 H343 0.950 . S
C355 C351 1.393 . S
C355 C354 1.391 . S
H356 C364 0.950 . S
H357 C369 0.950 . S
H358 C366 0.950 . S
H359 C368 0.950 . S
H360 C370 0.950 . S
H361 C372 0.950 . S
H362 C374 0.950 . S
H363 C375 0.950 . S
C364 H356 0.950 . S
C364 C365 1.386 . S
C364 C366 1.391 . S
C365 C364 1.386 . S
C365 C369 1.393 . S
C366 H358 0.950 . S
C366 C364 1.391 . S
C366 C367 1.400 . S
C367 C366 1.400 . S
C367 C368 1.398 . S
C367 C373 1.491 . S
C368 H359 0.950 . S
C368 C367 1.398 . S
C368 C369 1.391 . S
C369 H357 0.950 . S
C369 C365 1.393 . S
C369 C368 1.391 . S
C370 H360 0.950 . S
C370 C371 1.386 . S
C370 C372 1.391 . S
C371 C370 1.386 . S
C371 C375 1.393 . S
C372 H361 0.950 . S
C372 C370 1.391 . S
C372 C373 1.400 . S
C373 C367 1.491 . S
C373 C372 1.400 . S
C373 C374 1.398 . S
C374 H362 0.950 . S
C374 C373 1.398 . S
C374 C375 1.391 . S
C375 H363 0.950 . S
C375 C371 1.393 . S
C375 C374 1.391 . S
H376 C384 0.950 . S
H377 C389 0.950 . S
H378 C386 0.950 . S
H379 C388 0.950 . S
H380 C390 0.950 . S
H381 C392 0.950 . S
H382 C394 0.950 . S
H383 C395 0.950 . S
C384 H376 0.950 . S
C384 C385 1.386 . S
C384 C386 1.391 . S
C385 C384 1.386 . S
C385 C389 1.393 . S
C386 H378 0.950 . S
C386 C384 1.391 . S
C386 C387 1.400 . S
C387 C386 1.400 . S
C387 C388 1.398 . S
C387 C393 1.491 . S
C388 H379 0.950 . S
C388 C387 1.398 . S
C388 C389 1.391 . S
C389 H377 0.950 . S
C389 C385 1.393 . S
C389 C388 1.391 . S
C390 H380 0.950 . S
C390 C391 1.386 . S
C390 C392 1.391 . S
C391 C390 1.386 . S
C391 C395 1.393 . S
C392 H381 0.950 . S
C392 C390 1.391 . S
C392 C393 1.400 . S
C393 C387 1.491 . S
C393 C392 1.400 . S
C393 C394 1.398 . S
C394 H382 0.950 . S
C394 C393 1.398 . S
C394 C395 1.391 . S
C395 H383 0.950 . S
C395 C391 1.393 . S
C395 C394 1.391 . S
H396 C404 0.950 . S
H397 C409 0.950 . S
H398 C406 0.950 . S
H399 C408 0.950 . S
H400 C410 0.950 . S
H401 C412 0.950 . S
H402 C414 0.950 . S
H403 C415 0.950 . S
C404 H396 0.950 . S
C404 C405 1.386 . S
C404 C406 1.391 1_545 S
C405 C404 1.386 . S
C405 C409 1.393 . S
C406 H398 0.950 . S
C406 C404 1.391 1_565 S
C406 C407 1.400 . S
C407 C406 1.400 . S
C407 C408 1.398 1_565 S
C407 C413 1.491 . S
C408 H399 0.950 . S
C408 C407 1.398 1_545 S
C408 C409 1.391 . S
C409 H397 0.950 . S
C409 C405 1.393 . S
C409 C408 1.391 . S
C410 H400 0.950 . S
C410 C411 1.386 . S
C410 C412 1.391 . S
C411 C410 1.386 . S
C411 C415 1.393 . S
C412 H401 0.950 . S
C412 C410 1.391 . S
C412 C413 1.400 . S
C413 C407 1.491 . S
C413 C412 1.400 . S
C413 C414 1.398 . S
C414 H402 0.950 . S
C414 C413 1.398 . S
C414 C415 1.391 . S
C415 H403 0.950 . S
C415 C411 1.393 . S
C415 C414 1.391 . S
H416 C424 0.950 . S
H417 C429 0.950 . S
H418 C426 0.950 . S
H419 C428 0.950 . S
H420 C430 0.950 . S
H421 C432 0.950 1_545 S
H422 C434 0.950 . S
H423 C435 0.950 . S
C424 H416 0.950 . S
C424 C425 1.386 . S
C424 C426 1.391 . S
C425 C424 1.386 . S
C425 C429 1.393 . S
C426 H418 0.950 . S
C426 C424 1.391 . S
C426 C427 1.400 . S
C427 C426 1.400 . S
C427 C428 1.398 . S
C427 C433 1.491 . S
C428 H419 0.950 . S
C428 C427 1.398 . S
C428 C429 1.391 . S
C429 H417 0.950 . S
C429 C425 1.393 . S
C429 C428 1.391 . S
C430 H420 0.950 . S
C430 C431 1.386 . S
C430 C432 1.391 . S
C431 C430 1.386 . S
C431 C435 1.393 . S
C432 H421 0.950 1_565 S
C432 C430 1.391 . S
C432 C433 1.400 1_565 S
C433 C427 1.491 . S
C433 C432 1.400 1_545 S
C433 C434 1.398 1_545 S
C434 H422 0.950 . S
C434 C433 1.398 1_565 S
C434 C435 1.391 . S
C435 H423 0.950 . S
C435 C431 1.393 . S
C435 C434 1.391 . S
H436 C444 0.950 . S
H437 C449 0.950 . S
H438 C446 0.950 . S
H439 C448 0.950 . S
H440 C450 0.950 . S
H441 C452 0.950 . S
H442 C454 0.950 . S
H443 C455 0.950 . S
C444 H436 0.950 . S
C444 C445 1.386 . S
C444 C446 1.391 . S
C445 C444 1.386 . S
C445 C449 1.393 . S
C446 H438 0.950 . S
C446 C444 1.391 . S
C446 C447 1.400 . S
C447 C446 1.400 . S
C447 C448 1.398 . S
C447 C453 1.491 . S
C448 H439 0.950 . S
C448 C447 1.398 . S
C448 C449 1.391 . S
C449 H437 0.950 . S
C449 C445 1.393 . S
C449 C448 1.391 . S
C450 H440 0.950 . S
C450 C451 1.386 . S
C450 C452 1.391 . S
C451 C450 1.386 . S
C451 C455 1.393 . S
C452 H441 0.950 . S
C452 C450 1.391 . S
C452 C453 1.400 . S
C453 C447 1.491 . S
C453 C452 1.400 . S
C453 C454 1.398 . S
C454 H442 0.950 . S
C454 C453 1.398 . S
C454 C455 1.391 . S
C455 H443 0.950 . S
C455 C451 1.393 . S
C455 C454 1.391 . S
H456 C464 0.950 . S
H457 C469 0.950 . S
H458 C466 0.950 . S
H459 C468 0.950 . S
H460 C470 0.950 . S
H461 C472 0.950 . S
H462 C474 0.950 . S
H463 C475 0.950 . S
C464 H456 0.950 . S
C464 C465 1.386 . S
C464 C466 1.391 . S
C465 C464 1.386 . S
C465 C469 1.393 . S
C466 H458 0.950 . S
C466 C464 1.391 . S
C466 C467 1.400 . S
C467 C466 1.400 . S
C467 C468 1.398 . S
C467 C473 1.491 . S
C468 H459 0.950 . S
C468 C467 1.398 . S
C468 C469 1.391 . S
C469 H457 0.950 . S
C469 C465 1.393 . S
C469 C468 1.391 . S
C470 H460 0.950 . S
C470 C471 1.386 . S
C470 C472 1.391 . S
C471 C470 1.386 . S
C471 C475 1.393 . S
C472 H461 0.950 . S
C472 C470 1.391 . S
C472 C473 1.400 . S
C473 C467 1.491 . S
C473 C472 1.400 . S
C473 C474 1.398 . S
C474 H462 0.950 . S
C474 C473 1.398 . S
C474 C475 1.391 . S
C475 H463 0.950 . S
C475 C471 1.393 . S
C475 C474 1.391 . S
H476 C484 0.950 . S
H477 C489 0.950 . S
H478 C486 0.950 . S
H479 C488 0.950 . S
H480 C490 0.950 . S
H481 C492 0.950 . S
H482 C494 0.950 . S
H483 C495 0.950 . S
C484 H476 0.950 . S
C484 C485 1.386 . S
C484 C486 1.391 1_565 S
C485 C484 1.386 . S
C485 C489 1.393 . S
C486 H478 0.950 . S
C486 C484 1.391 1_545 S
C486 C487 1.400 . S
C487 C486 1.400 . S
C487 C488 1.398 1_545 S
C487 C493 1.491 . S
C488 H479 0.950 . S
C488 C487 1.398 1_565 S
C488 C489 1.391 . S
C489 H477 0.950 . S
C489 C485 1.393 . S
C489 C488 1.391 . S
C490 H480 0.950 . S
C490 C491 1.386 . S
C490 C492 1.391 . S
C491 C490 1.386 . S
C491 C495 1.393 . S
C492 H481 0.950 . S
C492 C490 1.391 . S
C492 C493 1.400 . S
C493 C487 1.491 . S
C493 C492 1.400 . S
C493 C494 1.398 . S
C494 H482 0.950 . S
C494 C493 1.398 . S
C494 C495 1.391 . S
C495 H483 0.950 . S
C495 C491 1.393 . S
C495 C494 1.391 . S
H496 C504 0.950 . S
H497 C509 0.950 . S
H498 C506 0.950 . S
H499 C508 0.950 . S
H500 C510 0.950 . S
H501 C512 0.950 . S
H502 C514 0.950 . S
H503 C515 0.950 . S
C504 H496 0.950 . S
C504 C505 1.386 . S
C504 C506 1.391 . S
C505 C504 1.386 . S
C505 C509 1.393 . S
C506 H498 0.950 . S
C506 C504 1.391 . S
C506 C507 1.400 . S
C507 C506 1.400 . S
C507 C508 1.398 . S
C507 C513 1.491 . S
C508 H499 0.950 . S
C508 C507 1.398 . S
C508 C509 1.391 . S
C509 H497 0.950 . S
C509 C505 1.393 . S
C509 C508 1.391 . S
C510 H500 0.950 . S
C510 C511 1.386 . S
C510 C512 1.391 . S
C511 C510 1.386 . S
C511 C515 1.393 . S
C512 H501 0.950 . S
C512 C510 1.391 . S
C512 C513 1.400 . S
C513 C507 1.491 . S
C513 C512 1.400 . S
C513 C514 1.398 . S
C514 H502 0.950 . S
C514 C513 1.398 . S
C514 C515 1.391 . S
C515 H503 0.950 . S
C515 C511 1.393 . S
C515 C514 1.391 . S
H516 C524 0.950 . S
H517 C529 0.950 . S
H518 C526 0.950 . S
H519 C528 0.950 . S
H520 C530 0.950 . S
H521 C532 0.950 . S
H522 C534 0.950 . S
H523 C535 0.950 . S
C524 H516 0.950 . S
C524 C525 1.386 . S
C524 C526 1.391 . S
C525 C524 1.386 . S
C525 C529 1.393 . S
C526 H518 0.950 . S
C526 C524 1.391 . S
C526 C527 1.400 . S
C527 C526 1.400 . S
C527 C528 1.398 . S
C527 C533 1.491 . S
C528 H519 0.950 . S
C528 C527 1.398 . S
C528 C529 1.391 . S
C529 H517 0.950 . S
C529 C525 1.393 . S
C529 C528 1.391 . S
C530 H520 0.950 . S
C530 C531 1.386 . S
C530 C532 1.391 . S
C531 C530 1.386 . S
C531 C535 1.393 . S
C532 H521 0.950 . S
C532 C530 1.391 . S
C532 C533 1.400 . S
C533 C527 1.491 . S
C533 C532 1.400 . S
C533 C534 1.398 . S
C534 H522 0.950 . S
C534 C533 1.398 . S
C534 C535 1.391 . S
C535 H523 0.950 . S
C535 C531 1.393 . S
C535 C534 1.391 . S
H536 C544 0.950 . S
H537 C549 0.950 . S
H538 C546 0.950 . S
H539 C548 0.950 . S
H540 C550 0.950 . S
H541 C552 0.950 . S
H542 C554 0.950 . S
H543 C555 0.950 . S
C544 H536 0.950 . S
C544 C545 1.386 . S
C544 C546 1.391 . S
C545 C544 1.386 . S
C545 C549 1.393 . S
C546 H538 0.950 . S
C546 C544 1.391 . S
C546 C547 1.400 . S
C547 C546 1.400 . S
C547 C548 1.398 . S
C547 C553 1.491 . S
C548 H539 0.950 . S
C548 C547 1.398 . S
C548 C549 1.391 . S
C549 H537 0.950 . S
C549 C545 1.393 . S
C549 C548 1.391 . S
C550 H540 0.950 . S
C550 C551 1.386 . S
C550 C552 1.391 . S
C551 C550 1.386 . S
C551 C555 1.393 . S
C552 H541 0.950 . S
C552 C550 1.391 . S
C552 C553 1.400 . S
C553 C547 1.491 . S
C553 C552 1.400 . S
C553 C554 1.398 . S
C554 H542 0.950 . S
C554 C553 1.398 . S
C554 C555 1.391 . S
C555 H543 0.950 . S
C555 C551 1.393 . S
C555 C554 1.391 . S
H556 C564 0.950 . S
H557 C569 0.950 . S
H558 C566 0.950 . S
H559 C568 0.950 . S
H560 C570 0.950 . S
H561 C572 0.950 . S
H562 C574 0.950 . S
H563 C575 0.950 . S
C564 H556 0.950 . S
C564 C565 1.386 . S
C564 C566 1.391 . S
C565 C564 1.386 . S
C565 C569 1.393 . S
C566 H558 0.950 . S
C566 C564 1.391 . S
C566 C567 1.400 . S
C567 C566 1.400 . S
C567 C568 1.398 . S
C567 C573 1.491 . S
C568 H559 0.950 . S
C568 C567 1.398 . S
C568 C569 1.391 . S
C569 H557 0.950 . S
C569 C565 1.393 . S
C569 C568 1.391 . S
C570 H560 0.950 . S
C570 C571 1.386 . S
C570 C572 1.391 . S
C571 C570 1.386 . S
C571 C575 1.393 . S
C572 H561 0.950 . S
C572 C570 1.391 . S
C572 C573 1.400 . S
C573 C567 1.491 . S
C573 C572 1.400 . S
C573 C574 1.398 . S
C574 H562 0.950 . S
C574 C573 1.398 . S
C574 C575 1.391 . S
C575 H563 0.950 . S
C575 C571 1.393 . S
C575 C574 1.391 . S
H576 C584 0.950 . S
H577 C589 0.950 . S
H578 C586 0.950 . S
H579 C588 0.950 . S
H580 C590 0.950 . S
H581 C592 0.950 . S
H582 C594 0.950 . S
H583 C595 0.950 . S
C584 H576 0.950 . S
C584 C585 1.386 . S
C584 C586 1.391 . S
C585 C584 1.386 . S
C585 C589 1.393 . S
C586 H578 0.950 . S
C586 C584 1.391 . S
C586 C587 1.400 . S
C587 C586 1.400 . S
C587 C588 1.398 . S
C587 C593 1.491 . S
C588 H579 0.950 . S
C588 C587 1.398 . S
C588 C589 1.391 . S
C589 H577 0.950 . S
C589 C585 1.393 . S
C589 C588 1.391 . S
C590 H580 0.950 . S
C590 C591 1.386 . S
C590 C592 1.391 . S
C591 C590 1.386 . S
C591 C595 1.393 . S
C592 H581 0.950 . S
C592 C590 1.391 . S
C592 C593 1.400 . S
C593 C587 1.491 . S
C593 C592 1.400 . S
C593 C594 1.398 . S
C594 H582 0.950 . S
C594 C593 1.398 . S
C594 C595 1.391 . S
C595 H583 0.950 . S
C595 C591 1.393 . S
C595 C594 1.391 . S
H596 C604 0.950 . S
H597 C609 0.950 . S
H598 C606 0.950 . S
H599 C608 0.950 . S
H600 C610 0.950 . S
H601 C612 0.950 . S
H602 C614 0.950 . S
H603 C615 0.950 . S
C604 H596 0.950 . S
C604 C605 1.386 . S
C604 C606 1.391 . S
C605 C604 1.386 . S
C605 C609 1.393 . S
C606 H598 0.950 . S
C606 C604 1.391 . S
C606 C607 1.400 . S
C607 C606 1.400 . S
C607 C608 1.398 . S
C607 C613 1.491 . S
C608 H599 0.950 . S
C608 C607 1.398 . S
C608 C609 1.391 . S
C609 H597 0.950 . S
C609 C605 1.393 . S
C609 C608 1.391 . S
C610 H600 0.950 . S
C610 C611 1.386 . S
C610 C612 1.391 . S
C611 C610 1.386 . S
C611 C615 1.393 . S
C612 H601 0.950 . S
C612 C610 1.391 . S
C612 C613 1.400 . S
C613 C607 1.491 . S
C613 C612 1.400 . S
C613 C614 1.398 . S
C614 H602 0.950 . S
C614 C613 1.398 . S
C614 C615 1.391 . S
C615 H603 0.950 . S
C615 C611 1.393 . S
C615 C614 1.391 . S
H616 C624 0.950 . S
H617 C629 0.950 . S
H618 C626 0.950 . S
H619 C628 0.950 . S
H620 C630 0.950 . S
H621 C632 0.950 . S
H622 C634 0.950 . S
H623 C635 0.950 . S
C624 H616 0.950 . S
C624 C625 1.386 . S
C624 C626 1.391 . S
C625 C624 1.386 . S
C625 C629 1.393 . S
C626 H618 0.950 . S
C626 C624 1.391 . S
C626 C627 1.400 . S
C627 C626 1.400 . S
C627 C628 1.398 . S
C627 C633 1.491 . S
C628 H619 0.950 . S
C628 C627 1.398 . S
C628 C629 1.391 . S
C629 H617 0.950 . S
C629 C625 1.393 . S
C629 C628 1.391 . S
C630 H620 0.950 . S
C630 C631 1.386 . S
C630 C632 1.391 . S
C631 C630 1.386 . S
C631 C635 1.393 . S
C632 H621 0.950 . S
C632 C630 1.391 . S
C632 C633 1.400 . S
C633 C627 1.491 . S
C633 C632 1.400 . S
C633 C634 1.398 . S
C634 H622 0.950 . S
C634 C633 1.398 . S
C634 C635 1.391 . S
C635 H623 0.950 . S
C635 C631 1.393 . S
C635 C634 1.391 . S
H636 C644 0.950 . S
H637 C649 0.950 . S
H638 C646 0.950 . S
H639 C648 0.950 . S
H640 C650 0.950 . S
H641 C652 0.950 . S
H642 C654 0.950 . S
H643 C655 0.950 . S
C644 H636 0.950 . S
C644 C645 1.386 . S
C644 C646 1.391 . S
C645 C644 1.386 . S
C645 C649 1.393 . S
C646 H638 0.950 . S
C646 C644 1.391 . S
C646 C647 1.400 . S
C647 C646 1.400 . S
C647 C648 1.398 . S
C647 C653 1.491 . S
C648 H639 0.950 . S
C648 C647 1.398 . S
C648 C649 1.391 . S
C649 H637 0.950 . S
C649 C645 1.393 . S
C649 C648 1.391 . S
C650 H640 0.950 . S
C650 C651 1.386 . S
C650 C652 1.391 . S
C651 C650 1.386 . S
C651 C655 1.393 . S
C652 H641 0.950 . S
C652 C650 1.391 . S
C652 C653 1.400 . S
C653 C647 1.491 . S
C653 C652 1.400 . S
C653 C654 1.398 . S
C654 H642 0.950 . S
C654 C653 1.398 . S
C654 C655 1.391 . S
C655 H643 0.950 . S
C655 C651 1.393 . S
C655 C654 1.391 . S
C185 C21 0.902 . S
C191 C87 0.925 . S
C205 C43 0.929 . S
C211 C65 0.897 . S
C225 C103 0.897 . S
C231 C175 0.883 . S
C245 C125 0.877 . S
C251 C139 0.904 . S
C265 C8 1.948 . S
C271 C98 1.954 . S
C285 C120 1.951 . S
C291 C30 1.944 . S
C305 C150 1.950 . S
C311 C52 1.943 . S
C325 C74 1.947 . S
C331 C162 1.953 . S
C345 C147 0.885 . S
C351 C18 0.909 . S
C365 C161 0.915 . S
C371 C40 0.909 . S
C385 C62 0.910 . S
C391 C109 0.913 . S
C405 C84 0.910 . S
C411 C131 0.914 . S
C425 C59 0.884 . S
C431 C106 0.911 . S
C445 C128 0.911 . S
C451 C81 0.887 . S
C465 C15 0.880 . S
C471 C140 0.907 . S
C485 C164 0.903 . S
C491 C37 0.895 . S
C505 C10 1.530 1_556 S
C511 C29 1.555 . S
C525 C7 1.557 . S
C531 C32 1.553 . S
C545 C73 1.557 . S
C551 C54 1.532 1_554 S
C565 C76 1.550 . S
C571 C51 1.558 . S
C585 C96 1.536 1_554 S
C591 C117 1.561 . S
C605 C95 1.565 . S
C611 C118 1.563 . S
C625 C169 1.560 . S
C631 C142 1.531 1_556 S
C645 C172 1.562 . S
C651 C153 1.566 . S
