# Generated by pormake.
# Topology uol, (4)-cn, num edge types: 1
# Building blocks:
#     Node 0, Type 0, BuildingBlock: NAWXER_clean_sbu_0, # of connection points: 4
#     Node 1, Type 0, BuildingBlock: NAWXER_clean_sbu_0, # of connection points: 4
#     Node 2, Type 0, BuildingBlock: NAWXER_clean_sbu_0, # of connection points: 4
#     Node 3, Type 0, BuildingBlock: NAWXER_clean_sbu_0, # of connection points: 4
#     Node 4, Type 0, BuildingBlock: NAWXER_clean_sbu_0, # of connection points: 4
#     Node 5, Type 0, BuildingBlock: NAWXER_clean_sbu_0, # of connection points: 4
#     Node 6, Type 0, BuildingBlock: NAWXER_clean_sbu_0, # of connection points: 4
#     Node 7, Type 0, BuildingBlock: NAWXER_clean_sbu_0, # of connection points: 4
#     Node 8, Type 0, BuildingBlock: NAWXER_clean_sbu_0, # of connection points: 4
#     Node 9, Type 0, BuildingBlock: NAWXER_clean_sbu_0, # of connection points: 4
#     Node 10, Type 0, BuildingBlock: NAWXER_clean_sbu_0, # of connection points: 4
#     Node 11, Type 0, BuildingBlock: NAWXER_clean_sbu_0, # of connection points: 4
#     Edge 12, Type (0, 0), BuildingBlock: XIVTED_clean_linker_0, # of connection points: 2
#     Edge 13, Type (0, 0), BuildingBlock: XIVTED_clean_linker_0, # of connection points: 2
#     Edge 14, Type (0, 0), BuildingBlock: XIVTED_clean_linker_0, # of connection points: 2
#     Edge 15, Type (0, 0), BuildingBlock: XIVTED_clean_linker_0, # of connection points: 2
#     Edge 16, Type (0, 0), BuildingBlock: XIVTED_clean_linker_0, # of connection points: 2
#     Edge 17, Type (0, 0), BuildingBlock: XIVTED_clean_linker_0, # of connection points: 2
#     Edge 18, Type (0, 0), BuildingBlock: XIVTED_clean_linker_0, # of connection points: 2
#     Edge 19, Type (0, 0), BuildingBlock: XIVTED_clean_linker_0, # of connection points: 2
#     Edge 20, Type (0, 0), BuildingBlock: XIVTED_clean_linker_0, # of connection points: 2
#     Edge 21, Type (0, 0), BuildingBlock: XIVTED_clean_linker_0, # of connection points: 2
#     Edge 22, Type (0, 0), BuildingBlock: XIVTED_clean_linker_0, # of connection points: 2
#     Edge 23, Type (0, 0), BuildingBlock: XIVTED_clean_linker_0, # of connection points: 2
#     Edge 24, Type (0, 0), BuildingBlock: XIVTED_clean_linker_0, # of connection points: 2
#     Edge 25, Type (0, 0), BuildingBlock: XIVTED_clean_linker_0, # of connection points: 2
#     Edge 26, Type (0, 0), BuildingBlock: XIVTED_clean_linker_0, # of connection points: 2
#     Edge 27, Type (0, 0), BuildingBlock: XIVTED_clean_linker_0, # of connection points: 2
#     Edge 28, Type (0, 0), BuildingBlock: XIVTED_clean_linker_0, # of connection points: 2
#     Edge 29, Type (0, 0), BuildingBlock: XIVTED_clean_linker_0, # of connection points: 2
#     Edge 30, Type (0, 0), BuildingBlock: XIVTED_clean_linker_0, # of connection points: 2
#     Edge 31, Type (0, 0), BuildingBlock: XIVTED_clean_linker_0, # of connection points: 2
#     Edge 32, Type (0, 0), BuildingBlock: XIVTED_clean_linker_0, # of connection points: 2
#     Edge 33, Type (0, 0), BuildingBlock: XIVTED_clean_linker_0, # of connection points: 2
#     Edge 34, Type (0, 0), BuildingBlock: XIVTED_clean_linker_0, # of connection points: 2
#     Edge 35, Type (0, 0), BuildingBlock: XIVTED_clean_linker_0, # of connection points: 2
# Relax obj value: 0.141
# Max RMSD: 0.284
# Mean RMSD: 0.284
data_MOF--net-uol--node1-NAWXER_clean_sbu_0--edge1-XIVTED_clean_linker_0
_symmetry_space_group_name_H-M    P1
_symmetry_Int_Tables_number       1
_symmetry_cell_setting            triclinic
loop_
_symmetry_equiv_pos_as_xyz
'x, y, z'
_cell_length_a     33.996987
_cell_length_b     34.013465
_cell_length_c     66.29607
_cell_angle_alpha  90.052189
_cell_angle_beta   90.011143
_cell_angle_gamma 120.02099
loop_
_atom_site_label
_atom_site_type_symbol
_atom_site_fract_x
_atom_site_fract_y
_atom_site_fract_z
_atom_type_partial_charge
C0 C 0.13402 0.32637 0.08028 0.0
C1 C 0.03311 0.29867 0.13707 0.0
O2 O 0.15511 0.35329 0.09501 0.0
Zn3 Zn 0.13704 0.36716 0.12448 0.0
O4 O 0.09148 0.29959 0.08155 0.0
Zn5 Zn 0.08366 0.3158 0.10839 0.0
O6 O 0.09092 0.38253 0.10441 0.0
O7 O 0.15033 0.42847 0.1228 0.0
O8 O 0.02433 0.28023 0.11977 0.0
O9 O 0.07331 0.33152 0.14085 0.0
O10 O 0.17689 0.35787 0.14124 0.0
O11 O 0.12445 0.29521 0.12645 0.0
C12 C 0.11872 0.42265 0.11091 0.0
C13 C 0.15924 0.31555 0.13811 0.0
C14 C 0.84559 0.15748 0.30681 0.0
C15 C 0.69948 0.11986 0.27864 0.0
O16 O 0.83184 0.12402 0.29442 0.0
Zn17 Zn 0.77144 0.08512 0.27552 0.0
O18 O 0.82061 0.1746 0.31034 0.0
Zn19 Zn 0.77234 0.13649 0.29276 0.0
O20 O 0.74364 0.07113 0.30775 0.0
O21 O 0.74714 0.02469 0.28557 0.0
O22 O 0.72438 0.14989 0.29135 0.0
O23 O 0.71225 0.0929 0.27153 0.0
O24 O 0.79718 0.09588 0.24895 0.0
O25 O 0.80572 0.15778 0.26367 0.0
C26 C 0.7366 0.03147 0.30306 0.0
C27 C 0.81263 0.13843 0.24855 0.0
C28 C 0.69617 0.84627 0.47082 0.0
C29 C 0.58328 0.69882 0.44521 0.0
O30 O 0.7139 0.83104 0.45809 0.0
Zn31 Zn 0.68973 0.76828 0.44046 0.0
O32 O 0.6544 0.82257 0.47537 0.0
Zn33 Zn 0.6415 0.77287 0.45814 0.0
O34 O 0.67939 0.74646 0.47353 0.0
O35 O 0.72481 0.74257 0.45085 0.0
O36 O 0.57939 0.72486 0.4577 0.0
O37 O 0.62238 0.71055 0.43772 0.0
O38 O 0.70295 0.79108 0.41344 0.0
O39 O 0.65288 0.80428 0.42855 0.0
C40 C 0.71018 0.73678 0.46882 0.0
C41 C 0.67746 0.80843 0.4131 0.0
C42 C 0.87771 0.68328 0.57886 0.0
C43 C 0.96936 0.69919 0.63772 0.0
O44 O 0.85414 0.6538 0.59236 0.0
Zn45 Zn 0.86676 0.63591 0.62207 0.0
O46 O 0.91985 0.70994 0.58172 0.0
Zn47 Zn 0.92337 0.68786 0.6079 0.0
O48 O 0.91274 0.62041 0.602 0.0
O49 O 0.85154 0.57416 0.61931 0.0
O50 O 0.98176 0.71832 0.62067 0.0
O51 O 0.92779 0.66826 0.64046 0.0
O52 O 0.82559 0.64521 0.63789 0.0
O53 O 0.88259 0.70872 0.62584 0.0
C54 C 0.88331 0.58 0.60752 0.0
C55 C 0.84579 0.68811 0.63623 0.0
C56 C 0.1601 0.84165 0.80618 0.0
C57 C 0.30595 0.88343 0.77642 0.0
O58 O 0.17289 0.87558 0.79418 0.0
Zn59 Zn 0.232 0.91581 0.77493 0.0
O60 O 0.18594 0.82528 0.80914 0.0
Zn61 Zn 0.23344 0.8651 0.7915 0.0
O62 O 0.26132 0.93035 0.807 0.0
O63 O 0.25603 0.97587 0.78495 0.0
O64 O 0.28243 0.85335 0.78934 0.0
O65 O 0.29175 0.90952 0.76967 0.0
O66 O 0.20375 0.9054 0.74909 0.0
O67 O 0.19924 0.84382 0.76237 0.0
C68 C 0.26756 0.96975 0.80231 0.0
C69 C 0.19007 0.86328 0.74801 0.0
C70 C 0.29045 0.26439 0.96742 0.0
C71 C 0.32392 0.19231 0.91211 0.0
O72 O 0.3237 0.25825 0.97197 0.0
Zn73 Zn 0.36238 0.23241 0.95654 0.0
O74 O 0.2735 0.25427 0.94986 0.0
Zn75 Zn 0.31077 0.23145 0.93946 0.0
O76 O 0.29141 0.17116 0.9579 0.0
O77 O 0.35392 0.18395 0.9737 0.0
O78 O 0.29564 0.20626 0.91303 0.0
O79 O 0.35103 0.19974 0.92699 0.0
O80 O 0.42292 0.28319 0.95568 0.0
O81 O 0.37683 0.29097 0.93483 0.0
C82 C 0.31196 0.15801 0.97008 0.0
C83 C 0.41664 0.30614 0.94235 0.0
C84 C 0.69012 0.84493 0.69625 0.0
C85 C 0.58293 0.8839 0.72466 0.0
O86 O 0.71044 0.8785 0.70856 0.0
Zn87 Zn 0.68967 0.9181 0.72746 0.0
O88 O 0.64801 0.82831 0.69287 0.0
Zn89 Zn 0.63874 0.8669 0.71043 0.0
O90 O 0.67554 0.9321 0.69526 0.0
O91 O 0.72597 0.97838 0.71733 0.0
O92 O 0.57753 0.85379 0.71195 0.0
O93 O 0.62282 0.9108 0.73167 0.0
O94 O 0.70505 0.90774 0.75401 0.0
O95 O 0.65097 0.84581 0.73958 0.0
C96 C 0.70844 0.97169 0.69989 0.0
C97 C 0.67759 0.86528 0.7546 0.0
C98 C 0.81094 0.67139 0.92099 0.0
C99 C 0.738 0.70388 0.86548 0.0
O100 O 0.80284 0.64413 0.90611 0.0
Zn101 Zn 0.77032 0.63245 0.87673 0.0
O102 O 0.79735 0.69999 0.92019 0.0
Zn103 Zn 0.77144 0.68477 0.8937 0.0
O104 O 0.71173 0.61901 0.89829 0.0
O105 O 0.71924 0.572 0.87789 0.0
O106 O 0.74849 0.72182 0.88287 0.0
O107 O 0.74419 0.67051 0.8613 0.0
O108 O 0.81923 0.64125 0.85956 0.0
O109 O 0.8313 0.7037 0.8752 0.0
C110 C 0.69629 0.57897 0.89101 0.0
C111 C 0.84479 0.68333 0.86309 0.0
C112 C 0.16019 0.8451 0.02921 0.0
C113 C 0.12072 0.70053 0.0595 0.0
O114 O 0.12543 0.83148 0.04077 0.0
Zn115 Zn 0.08525 0.77228 0.05987 0.0
O116 O 0.17801 0.82037 0.02684 0.0
Zn117 Zn 0.13808 0.77236 0.04423 0.0
O118 O 0.07389 0.74265 0.02799 0.0
O119 O 0.02566 0.74713 0.04873 0.0
O120 O 0.15145 0.72475 0.04695 0.0
O121 O 0.09315 0.71348 0.06566 0.0
O122 O 0.0937 0.80053 0.08573 0.0
O123 O 0.15653 0.80604 0.0734 0.0
C124 C 0.03381 0.73568 0.03172 0.0
C125 C 0.13586 0.81464 0.08741 0.0
C126 C 0.30142 0.03631 0.19743 0.0
C127 C 0.32275 0.13158 0.25559 0.0
O128 O 0.33344 0.07723 0.19433 0.0
Zn129 Zn 0.36847 0.13884 0.21225 0.0
O130 O 0.28281 0.02517 0.21464 0.0
Zn131 Zn 0.31568 0.08393 0.22693 0.0
O132 O 0.2966 0.12573 0.20872 0.0
O133 O 0.36085 0.18064 0.19614 0.0
O134 O 0.29493 0.08959 0.25309 0.0
O135 O 0.35228 0.15383 0.24189 0.0
O136 O 0.42952 0.1516 0.2147 0.0
O137 O 0.38222 0.0919 0.23255 0.0
C138 C 0.31806 0.16194 0.19802 0.0
C139 C 0.42282 0.11988 0.22668 0.0
C140 C 0.30737 0.42217 0.39278 0.0
C141 C 0.15938 0.31594 0.36544 0.0
O142 O 0.29435 0.38205 0.39937 0.0
Zn143 Zn 0.23549 0.31556 0.39493 0.0
O144 O 0.28266 0.42819 0.38032 0.0
Zn145 Zn 0.23365 0.36703 0.37871 0.0
O146 O 0.20261 0.35393 0.40821 0.0
O147 O 0.2107 0.29922 0.42174 0.0
O148 O 0.1841 0.35832 0.36245 0.0
O149 O 0.1739 0.29532 0.37687 0.0
O150 O 0.26038 0.28075 0.38345 0.0
O151 O 0.25861 0.32934 0.36197 0.0
C152 C 0.19606 0.32695 0.42297 0.0
C153 C 0.26712 0.29736 0.36583 0.0
C154 C 0.88553 0.30337 0.55715 0.0
C155 C 0.85115 0.15704 0.53016 0.0
O156 O 0.91279 0.29123 0.56445 0.0
Zn157 Zn 0.92137 0.23258 0.56148 0.0
O158 O 0.85524 0.27761 0.54469 0.0
Zn159 Zn 0.86956 0.23001 0.54371 0.0
O160 O 0.84812 0.1971 0.57297 0.0
O161 O 0.91065 0.20869 0.58829 0.0
O162 O 0.83389 0.1814 0.52556 0.0
O163 O 0.88321 0.17128 0.5433 0.0
O164 O 0.98211 0.25692 0.5514 0.0
O165 O 0.93525 0.25971 0.52924 0.0
C166 C 0.86787 0.19192 0.58843 0.0
C167 C 0.97508 0.26721 0.53391 0.0
H168 H 0.18946 0.68192 0.06129 0.0
H169 H 0.04529 0.42476 0.09451 0.0
H170 H 0.04732 0.62447 0.07561 0.0
H171 H 0.18564 0.51115 0.11151 0.0
H172 H 0.04334 0.49236 0.08253 0.0
H173 H 0.18688 0.61365 0.07429 0.0
C174 C 0.15759 0.65481 0.06711 0.0
C175 C 0.11853 0.65887 0.06741 0.0
C176 C 0.07434 0.49625 0.08901 0.0
C177 C 0.11534 0.58037 0.08212 0.0
C178 C 0.07558 0.45784 0.09573 0.0
C179 C 0.1157 0.4624 0.10401 0.0
C180 C 0.11381 0.53907 0.09014 0.0
C181 C 0.15394 0.50603 0.10531 0.0
C182 C 0.15625 0.61597 0.07461 0.0
C183 C 0.07823 0.6227 0.07523 0.0
N184 N 0.15218 0.54253 0.09827 0.0
N185 N 0.07752 0.58461 0.08216 0.0
H186 H 0.67896 0.18743 0.27989 0.0
H187 H 0.42431 0.04538 0.24197 0.0
H188 H 0.62424 0.04809 0.26115 0.0
H189 H 0.51066 0.18786 0.2289 0.0
H190 H 0.49121 0.04302 0.25476 0.0
H191 H 0.61054 0.18549 0.26736 0.0
C192 C 0.65239 0.15629 0.27325 0.0
C193 C 0.65733 0.11788 0.2715 0.0
C194 C 0.49524 0.07462 0.24901 0.0
C195 C 0.57874 0.11542 0.25731 0.0
C196 C 0.45723 0.07607 0.24183 0.0
C197 C 0.46204 0.11687 0.23435 0.0
C198 C 0.53783 0.11451 0.24916 0.0
C199 C 0.50543 0.15564 0.23442 0.0
C200 C 0.61349 0.15532 0.26602 0.0
C201 C 0.62182 0.07851 0.26267 0.0
N202 N 0.54151 0.1536 0.24188 0.0
N203 N 0.58372 0.07814 0.25598 0.0
H204 H 0.49507 0.67882 0.44662 0.0
H205 H 0.38269 0.42394 0.40892 0.0
H206 H 0.57898 0.62278 0.42865 0.0
H207 H 0.32718 0.51011 0.39435 0.0
H208 H 0.45113 0.49073 0.42228 0.0
H209 H 0.42827 0.61037 0.43401 0.0
C210 C 0.49939 0.65193 0.44018 0.0
C211 C 0.54262 0.6565 0.4386 0.0
C212 C 0.42389 0.49477 0.41608 0.0
C213 C 0.46635 0.57811 0.42435 0.0
C214 C 0.38493 0.45683 0.40854 0.0
C215 C 0.34939 0.46163 0.40045 0.0
C216 C 0.42655 0.53731 0.416 0.0
C217 C 0.35393 0.50497 0.40029 0.0
C218 C 0.46133 0.61308 0.4329 0.0
C219 C 0.54624 0.62066 0.43002 0.0
N220 N 0.39159 0.54104 0.40813 0.0
N221 N 0.50848 0.58272 0.4233 0.0
H222 H 0.81307 0.49341 0.6043 0.0
H223 H 0.95756 0.37844 0.57434 0.0
H224 H 0.95696 0.57577 0.59306 0.0
H225 H 0.81872 0.3252 0.55508 0.0
H226 H 0.9589 0.44779 0.58602 0.0
H227 H 0.81514 0.42727 0.59133 0.0
C228 C 0.84518 0.49753 0.59917 0.0
C229 C 0.88493 0.54012 0.59974 0.0
C230 C 0.92835 0.42091 0.57912 0.0
C231 C 0.88751 0.46442 0.58508 0.0
C232 C 0.92745 0.38136 0.57255 0.0
C233 C 0.88795 0.34605 0.56374 0.0
C234 C 0.88913 0.4245 0.57728 0.0
C235 C 0.84994 0.35162 0.56171 0.0
C236 C 0.84624 0.45983 0.59168 0.0
C237 C 0.92553 0.54353 0.59278 0.0
N238 N 0.85131 0.38986 0.56863 0.0
N239 N 0.92592 0.50598 0.58588 0.0
H240 H 0.49512 0.81569 0.7244 0.0
H241 H 0.38027 0.95705 0.7595 0.0
H242 H 0.57938 0.95632 0.74136 0.0
H243 H 0.32766 0.81673 0.77588 0.0
H244 H 0.44981 0.9597 0.74687 0.0
H245 H 0.42866 0.81764 0.73692 0.0
C246 C 0.49961 0.84711 0.73065 0.0
C247 C 0.54285 0.8859 0.73189 0.0
C248 C 0.42295 0.92853 0.75331 0.0
C249 C 0.46673 0.88837 0.74605 0.0
C250 C 0.38333 0.92689 0.76039 0.0
C251 C 0.34826 0.88662 0.76875 0.0
C252 C 0.42668 0.88928 0.75414 0.0
C253 C 0.35393 0.84854 0.76965 0.0
C254 C 0.4617 0.84809 0.73787 0.0
C255 C 0.54662 0.92563 0.74024 0.0
N256 N 0.39214 0.85067 0.76225 0.0
N257 N 0.50887 0.926 0.74691 0.0
H258 H 0.49177 0.36568 0.96363 0.0
H259 H 0.63691 0.50292 0.87012 0.0
H260 H 0.42981 0.34421 0.90485 0.0
H261 H 0.65649 0.56846 0.92795 0.0
H262 H 0.56582 0.4386 0.88257 0.0
H263 H 0.55797 0.43502 0.95104 0.0
C264 C 0.49208 0.3757 0.9481 0.0
C265 C 0.45537 0.34931 0.93523 0.0
C266 C 0.5856 0.46726 0.89245 0.0
C267 C 0.53109 0.42773 0.92072 0.0
C268 C 0.62617 0.50376 0.88542 0.0
C269 C 0.65253 0.54095 0.89806 0.0
C270 C 0.57202 0.46744 0.91241 0.0
C271 C 0.63701 0.54048 0.91772 0.0
C272 C 0.52968 0.41526 0.94098 0.0
C273 C 0.45737 0.36381 0.91526 0.0
N274 N 0.59804 0.50394 0.92441 0.0
N275 N 0.49498 0.40176 0.9085 0.0
H276 H 0.35491 0.24691 0.18212 0.0
H277 H 0.12353 0.22318 0.14147 0.0
H278 H 0.22603 0.12526 0.19235 0.0
H279 H 0.24304 0.35152 0.15525 0.0
H280 H 0.16107 0.18383 0.15592 0.0
H281 H 0.31504 0.28286 0.1675 0.0
C282 C 0.31818 0.22762 0.18121 0.0
C283 C 0.29375 0.18302 0.18853 0.0
C284 C 0.17882 0.22059 0.1558 0.0
C285 C 0.24786 0.22412 0.17173 0.0
C286 C 0.15755 0.24304 0.14754 0.0
C287 C 0.18018 0.2907 0.14718 0.0
C288 C 0.22323 0.24608 0.16338 0.0
C289 C 0.22419 0.31477 0.15527 0.0
C290 C 0.29543 0.24829 0.17294 0.0
C291 C 0.24615 0.1598 0.18697 0.0
N292 N 0.24433 0.29222 0.1629 0.0
N293 N 0.22466 0.18059 0.17865 0.0
H294 H 0.90257 0.12197 0.30937 0.0
H295 H 0.11065 0.35233 0.34985 0.0
H296 H 0.89255 0.23976 0.3253 0.0
H297 H 0.10347 0.22374 0.36064 0.0
H298 H 0.0341 0.31213 0.33591 0.0
H299 H 0.97952 0.15909 0.32387 0.0
C300 C 0.91645 0.15549 0.31595 0.0
C301 C 0.89113 0.17783 0.31613 0.0
C302 C 0.04923 0.29267 0.34134 0.0
C303 C 0.97884 0.2204 0.33235 0.0
C304 C 0.09305 0.31558 0.34919 0.0
C305 C 0.11346 0.29133 0.35646 0.0
C306 C 0.02568 0.24509 0.34043 0.0
C307 C 0.08886 0.2437 0.35529 0.0
C308 C 0.96019 0.17651 0.32424 0.0
C309 C 0.9107 0.22118 0.32487 0.0
N310 N 0.0462 0.22202 0.34731 0.0
N311 N 0.95346 0.24115 0.33246 0.0
H312 H 0.82056 0.13209 0.49168 0.0
H313 H 0.69242 0.87121 0.50941 0.0
H314 H 0.84108 0.07992 0.54755 0.0
H315 H 0.76173 0.92365 0.45287 0.0
H316 H 0.73552 0.94774 0.52398 0.0
H317 H 0.78759 0.05575 0.47689 0.0
C318 C 0.81821 0.10455 0.50077 0.0
C319 C 0.83348 0.11205 0.52081 0.0
C320 C 0.74146 0.94227 0.50844 0.0
C321 C 0.79518 0.02522 0.50424 0.0
C322 C 0.71686 0.89888 0.50013 0.0
C323 C 0.72376 0.89141 0.47997 0.0
C324 C 0.77192 0.97849 0.49629 0.0
C325 C 0.75579 0.9282 0.46852 0.0
C326 C 0.79972 0.06128 0.49232 0.0
C327 C 0.82988 0.07541 0.53199 0.0
N328 N 0.77825 0.9705 0.47675 0.0
N329 N 0.81033 0.03325 0.52366 0.0
H330 H 0.88543 0.7802 0.64279 0.0
H331 H 0.65314 0.76359 0.67683 0.0
H332 H 0.75982 0.6537 0.65065 0.0
H333 H 0.78244 0.87796 0.69409 0.0
H334 H 0.69251 0.72709 0.66234 0.0
H335 H 0.84905 0.82063 0.6574 0.0
C336 C 0.85032 0.76097 0.6476 0.0
C337 C 0.82561 0.7135 0.64551 0.0
C338 C 0.71234 0.76018 0.66929 0.0
C339 C 0.78396 0.7594 0.66187 0.0
C340 C 0.6899 0.78121 0.67749 0.0
C341 C 0.71452 0.8239 0.68676 0.0
C342 C 0.7599 0.78207 0.67009 0.0
C343 C 0.76215 0.84494 0.68717 0.0
C344 C 0.82972 0.78401 0.65596 0.0
C345 C 0.78027 0.69024 0.65202 0.0
N346 N 0.78341 0.82385 0.67887 0.0
N347 N 0.76088 0.71343 0.65975 0.0
H348 H 0.90047 0.77541 0.85943 0.0
H349 H 0.11402 0.75763 0.82329 0.0
H350 H 0.89383 0.64778 0.8466 0.0
H351 H 0.10205 0.87545 0.81002 0.0
H352 H 0.037 0.7198 0.83689 0.0
H353 H 0.97793 0.81551 0.84576 0.0
C354 C 0.91524 0.75585 0.8537 0.0
C355 C 0.89068 0.70819 0.85411 0.0
C356 C 0.05127 0.75395 0.83102 0.0
C357 C 0.97916 0.75375 0.83883 0.0
C358 C 0.09533 0.77572 0.82338 0.0
C359 C 0.11448 0.81978 0.81548 0.0
C360 C 0.02629 0.77658 0.83108 0.0
C361 C 0.0885 0.84142 0.8159 0.0
C362 C 0.95931 0.77874 0.84588 0.0
C363 C 0.91142 0.68453 0.84647 0.0
N364 N 0.04571 0.81965 0.82366 0.0
N365 N 0.95459 0.70756 0.83931 0.0
H366 H 0.2445 0.89275 0.01248 0.0
H367 H 0.21987 0.1004 0.97324 0.0
H368 H 0.12365 0.90054 0.02417 0.0
H369 H 0.34889 0.11109 0.98727 0.0
H370 H 0.18114 0.02332 0.98739 0.0
H371 H 0.28037 0.96892 0.9981 0.0
C372 C 0.22535 0.91035 0.01189 0.0
C373 C 0.18102 0.89029 0.01958 0.0
C374 C 0.21791 0.04276 0.9874 0.0
C375 C 0.22196 0.97752 0.00308 0.0
C376 C 0.24001 0.08659 0.97931 0.0
C377 C 0.28766 0.11219 0.97912 0.0
C378 C 0.24373 0.02424 0.99494 0.0
C379 C 0.31211 0.0927 0.9872 0.0
C380 C 0.24598 0.95394 0.0038 0.0
C381 C 0.15796 0.91486 0.01849 0.0
N382 N 0.28988 0.0498 0.99463 0.0
N383 N 0.17866 0.95723 0.01031 0.0
H384 H 0.22585 0.36134 0.07667 0.0
H385 H 0.21078 0.26567 0.96497 0.0
H386 H 0.10016 0.2862 0.04368 0.0
H387 H 0.32327 0.29895 0.00509 0.0
H388 H 0.17446 0.2862 0.99149 0.0
H389 H 0.2664 0.35166 0.0483 0.0
C390 C 0.20684 0.34327 0.06338 0.0
C391 C 0.15948 0.32434 0.06258 0.0
C392 C 0.20721 0.28924 0.99444 0.0
C393 C 0.20571 0.31328 0.03011 0.0
C394 C 0.22809 0.27771 0.97928 0.0
C395 C 0.27006 0.28031 0.98284 0.0
C396 C 0.22856 0.30394 0.01326 0.0
C397 C 0.2908 0.29614 0.00172 0.0
C398 C 0.23 0.33758 0.04725 0.0
C399 C 0.13662 0.3011 0.045 0.0
N400 N 0.26981 0.3073 0.01625 0.0
N401 N 0.15994 0.29621 0.02948 0.0
H402 H 0.86263 0.23118 0.24548 0.0
H403 H 0.03728 0.33347 0.17487 0.0
H404 H 0.82761 0.10832 0.21259 0.0
H405 H 0.94954 0.22164 0.13598 0.0
H406 H 0.9818 0.299 0.202 0.0
H407 H 0.91418 0.2755 0.21824 0.0
C408 C 0.86568 0.2135 0.23251 0.0
C409 C 0.84109 0.16588 0.23143 0.0
C410 C 0.9741 0.2825 0.18741 0.0
C411 C 0.9009 0.2164 0.20037 0.0
C412 C 0.00603 0.30202 0.17194 0.0
C413 C 0.99809 0.28047 0.1531 0.0
C414 C 0.93399 0.24095 0.18405 0.0
C415 C 0.95709 0.23957 0.15023 0.0
C416 C 0.89558 0.23886 0.21705 0.0
C417 C 0.8462 0.1449 0.21417 0.0
N418 N 0.92686 0.22091 0.1656 0.0
N419 N 0.87555 0.1703 0.19935 0.0
H420 H 0.70387 0.03089 0.34099 0.0
H421 H 0.71134 0.81088 0.37542 0.0
H422 H 0.73122 0.94871 0.30003 0.0
H423 H 0.64686 0.86911 0.411 0.0
H424 H 0.71926 0.86155 0.34768 0.0
H425 H 0.68293 0.97262 0.36697 0.0
C426 C 0.70509 1.00045 0.33739 0.0
C427 C 0.7196 0.99484 0.31833 0.0
C428 C 0.70296 0.86296 0.36148 0.0
C429 C 0.69614 0.9283 0.34804 0.0
C430 C 0.69852 0.83409 0.37734 0.0
C431 C 0.67857 0.83588 0.39558 0.0
C432 C 0.68801 0.8944 0.36395 0.0
C433 C 0.66241 0.86654 0.39719 0.0
C434 C 0.69306 0.96718 0.35222 0.0
C435 C 0.72037 0.9546 0.31451 0.0
N436 N 0.66795 0.89497 0.38166 0.0
N437 N 0.70931 0.92315 0.32929 0.0
H438 H 0.89847 0.76205 0.55981 0.0
H439 H 0.74264 0.67764 0.46602 0.0
H440 H 0.80474 0.61772 0.55796 0.0
H441 H 0.72803 0.76748 0.50739 0.0
H442 H 0.78364 0.66132 0.49246 0.0
H443 H 0.85556 0.77229 0.53251 0.0
C444 C 0.86938 0.73248 0.5534 0.0
C445 C 0.855 0.68897 0.56108 0.0
C446 C 0.77105 0.68431 0.49563 0.0
C447 C 0.80676 0.7005 0.52987 0.0
C448 C 0.74786 0.69365 0.48067 0.0
C449 C 0.73178 0.72366 0.48467 0.0
C450 C 0.77947 0.70651 0.51429 0.0
C451 C 0.73949 0.74376 0.50383 0.0
C452 C 0.84491 0.73842 0.538 0.0
C453 C 0.81673 0.6518 0.55243 0.0
N454 N 0.76352 0.73542 0.51785 0.0
N455 N 0.79396 0.65832 0.5371 0.0
H456 H 0.18339 0.78779 0.72954 0.0
H457 H 0.95072 0.70376 0.6773 0.0
H458 H 0.1271 0.87676 0.72911 0.0
H459 H 0.06129 0.73329 0.63669 0.0
H460 H 0.00607 0.74106 0.70466 0.0
H461 H 0.12955 0.74224 0.70253 0.0
C462 C 0.1598 0.79767 0.72376 0.0
C463 C 0.15981 0.83621 0.73136 0.0
C464 C 0.01785 0.73846 0.6898 0.0
C465 C 0.09795 0.78391 0.70142 0.0
C466 C 0.9865 0.71712 0.67427 0.0
C467 C 1.00162 0.71566 0.65476 0.0
C468 C 0.0643 0.75713 0.68586 0.0
C469 C 0.04842 0.734 0.65155 0.0
C470 C 0.12934 0.77183 0.70846 0.0
C471 C 0.12852 0.84761 0.72347 0.0
N472 N 0.07831 0.75403 0.667 0.0
N473 N 0.09838 0.82121 0.70908 0.0
H474 H 0.28687 0.18764 0.87513 0.0
H475 H 0.28878 0.05747 0.79604 0.0
H476 H 0.35824 0.13453 0.90914 0.0
H477 H 0.28645 0.96768 0.84262 0.0
H478 H 0.30975 0.11686 0.82119 0.0
H479 H 0.27913 0.1377 0.84724 0.0
C480 C 0.30158 0.16594 0.8766 0.0
C481 C 0.32339 0.16539 0.89446 0.0
C482 C 0.30428 0.08409 0.82598 0.0
C483 C 0.31514 0.10825 0.86238 0.0
C484 C 0.29268 0.05018 0.81158 0.0
C485 C 0.28501 0.00715 0.81727 0.0
C486 C 0.30795 0.07497 0.84632 0.0
C487 C 0.29152 1.00016 0.8376 0.0
C488 C 0.29752 0.13766 0.86056 0.0
C489 C 0.34151 0.13629 0.89556 0.0
N490 N 0.30235 0.03368 0.85144 0.0
N491 N 0.33644 0.10837 0.87981 0.0
H492 H 0.63228 0.77261 0.7585 0.0
H493 H 0.70415 0.66876 0.82814 0.0
H494 H 0.7251 0.89584 0.79001 0.0
H495 H 0.73489 0.78285 0.86677 0.0
H496 H 0.68304 0.70378 0.80137 0.0
H497 H 0.63939 0.72845 0.78581 0.0
C498 C 0.6541 0.79041 0.77118 0.0
C499 C 0.67855 0.83806 0.77183 0.0
C500 C 0.6933 0.72072 0.81583 0.0
C501 C 0.68776 0.78767 0.80297 0.0
C502 C 0.7058 0.70088 0.8311 0.0
C503 C 0.7213 0.72285 0.84976 0.0
C504 C 0.69649 0.76303 0.81919 0.0
C505 C 0.72299 0.76458 0.85266 0.0
C506 C 0.65856 0.76513 0.78669 0.0
C507 C 0.70598 0.8592 0.78875 0.0
N508 N 0.71125 0.78354 0.83746 0.0
N509 N 0.70989 0.83387 0.80362 0.0
H510 H 0.85995 0.62761 0.92431 0.0
H511 H 0.03674 0.70265 0.99426 0.0
H512 H 0.82634 0.7169 0.95682 0.0
H513 H 0.94999 0.72834 0.03302 0.0
H514 H 0.98015 0.67982 0.96743 0.0
H515 H 0.91193 0.63525 0.95149 0.0
C516 C 0.86333 0.64866 0.93721 0.0
C517 C 0.83909 0.67206 0.93818 0.0
C518 C 0.97294 0.68937 0.98194 0.0
C519 C 0.89935 0.68179 0.96914 0.0
C520 C 0.00548 0.7028 0.99724 0.0
C521 C 0.99818 0.71748 0.01593 0.0
C522 C 0.93289 0.69089 0.98534 0.0
C523 C 0.95713 0.71723 0.01888 0.0
C524 C 0.89348 0.65344 0.95262 0.0
C525 C 0.84466 0.69862 0.95532 0.0
N526 N 0.92635 0.70471 0.00367 0.0
N527 N 0.87422 0.70278 0.97009 0.0
H528 H 0.2111 0.82194 0.10621 0.0
H529 H 0.2959 0.05384 0.15779 0.0
H530 H 0.12009 0.87586 0.10674 0.0
H531 H 0.2646 0.94412 0.19914 0.0
H532 H 0.25683 0.99779 0.13085 0.0
H533 H 0.2557 0.87559 0.13339 0.0
C534 C 0.20051 0.84492 0.11209 0.0
C535 C 0.16176 0.84437 0.10441 0.0
C536 C 0.25932 0.98633 0.14579 0.0
C537 C 0.213 0.90603 0.13459 0.0
C538 C 0.28169 0.01806 0.16107 0.0
C539 C 0.28331 0.00342 0.18067 0.0
C540 C 0.23977 0.93995 0.15004 0.0
C541 C 0.26384 0.95663 0.18421 0.0
C542 C 0.22583 0.87527 0.12748 0.0
C543 C 0.14945 0.87489 0.11243 0.0
N544 N 0.24289 0.92635 0.16898 0.0
N545 N 0.1754 0.90501 0.12693 0.0
H546 H 0.39015 0.20399 0.27611 0.0
H547 H 0.24061 0.28692 0.32659 0.0
H548 H 0.24491 0.1147 0.27445 0.0
H549 H 0.32274 0.26069 0.36798 0.0
H550 H 0.25651 0.2461 0.30016 0.0
H551 H 0.38014 0.24671 0.30384 0.0
C552 C 0.35631 0.1933 0.28166 0.0
C553 C 0.31827 0.15567 0.27316 0.0
C554 C 0.27137 0.2499 0.315 0.0
C555 C 0.30681 0.20485 0.30399 0.0
C556 C 0.26263 0.2733 0.32999 0.0
C557 C 0.28043 0.27706 0.34944 0.0
C558 C 0.29913 0.23145 0.31936 0.0
C559 C 0.30832 0.2583 0.35315 0.0
C560 C 0.35073 0.21753 0.29739 0.0
C561 C 0.27509 0.14321 0.28077 0.0
N562 N 0.31717 0.23645 0.33816 0.0
N563 N 0.27042 0.16824 0.29556 0.0
H564 H 0.15258 0.37551 0.42836 0.0
H565 H 0.9756 0.30314 0.49695 0.0
H566 H 0.17724 0.27654 0.45766 0.0
H567 H 0.05671 0.26939 0.53553 0.0
H568 H 0.03226 0.32418 0.47041 0.0
H569 H 0.10228 0.36891 0.45598 0.0
C570 C 0.1475 0.35242 0.44062 0.0
C571 C 0.16875 0.32608 0.44054 0.0
C572 C 0.03834 0.31329 0.48483 0.0
C573 C 0.11021 0.31756 0.47203 0.0
C574 C 0.00573 0.30088 0.49996 0.0
C575 C 0.01143 0.28455 0.51851 0.0
C576 C 0.0769 0.30911 0.48822 0.0
C577 C 0.05102 0.28203 0.5215 0.0
C578 C 0.11833 0.34832 0.4563 0.0
C579 C 0.16122 0.29714 0.45698 0.0
N580 N 0.08196 0.29361 0.50641 0.0
N581 N 0.13246 0.29358 0.47204 0.0
H582 H 0.78486 0.05512 0.70331 0.0
H583 H 0.77629 0.13163 0.59005 0.0
H584 H 0.67712 0.97201 0.66168 0.0
H585 H 0.89817 0.18865 0.62624 0.0
H586 H 0.73398 0.08105 0.61809 0.0
H587 H 0.82088 0.11255 0.67709 0.0
C588 C 0.76849 0.04908 0.68872 0.0
C589 C 0.72804 0.00843 0.68466 0.0
C590 C 0.76991 0.1049 0.6199 0.0
C591 C 0.7693 0.07424 0.65453 0.0
C592 C 0.79404 0.13391 0.60397 0.0
C593 C 0.84091 0.16421 0.60578 0.0
C594 C 0.79273 0.10663 0.63783 0.0
C595 C 0.86217 0.16559 0.62412 0.0
C596 C 0.78921 0.08187 0.67373 0.0
C597 C 0.70844 0.00267 0.66544 0.0
N598 N 0.83795 0.13717 0.6394 0.0
N599 N 0.72935 0.03515 0.65105 0.0
loop_
_geom_bond_atom_site_label_1
_geom_bond_atom_site_label_2
_geom_bond_distance
_geom_bond_site_symmetry_2
_ccdc_geom_bond_type
C0 O2 1.247 . S
C0 O4 1.258 . S
C1 O8 1.247 . S
C1 O9 1.258 . S
O2 C0 1.247 . S
O2 Zn3 2.028 . S
Zn3 O2 2.028 . S
Zn3 O7 2.035 . S
Zn3 O9 2.035 . S
Zn3 O10 2.028 . S
O4 C0 1.258 . S
O4 Zn5 2.035 . S
Zn5 O4 2.035 . S
Zn5 O6 2.028 . S
Zn5 O8 2.028 . S
Zn5 O11 2.035 . S
O6 Zn5 2.028 . S
O6 C12 1.247 . S
O7 Zn3 2.035 . S
O7 C12 1.258 . S
O8 C1 1.247 . S
O8 Zn5 2.028 . S
O9 C1 1.258 . S
O9 Zn3 2.035 . S
O10 Zn3 2.028 . S
O10 C13 1.247 . S
O11 Zn5 2.035 . S
O11 C13 1.258 . S
C12 O6 1.247 . S
C12 O7 1.258 . S
C13 O10 1.247 . S
C13 O11 1.258 . S
C14 O16 1.247 . S
C14 O18 1.258 . S
C15 O22 1.247 . S
C15 O23 1.258 . S
O16 C14 1.247 . S
O16 Zn17 2.028 . S
Zn17 O16 2.028 . S
Zn17 O21 2.035 . S
Zn17 O23 2.035 . S
Zn17 O24 2.028 . S
O18 C14 1.258 . S
O18 Zn19 2.035 . S
Zn19 O18 2.035 . S
Zn19 O20 2.028 . S
Zn19 O22 2.028 . S
Zn19 O25 2.035 . S
O20 Zn19 2.028 . S
O20 C26 1.247 . S
O21 Zn17 2.035 . S
O21 C26 1.258 . S
O22 C15 1.247 . S
O22 Zn19 2.028 . S
O23 C15 1.258 . S
O23 Zn17 2.035 . S
O24 Zn17 2.028 . S
O24 C27 1.247 . S
O25 Zn19 2.035 . S
O25 C27 1.258 . S
C26 O20 1.247 . S
C26 O21 1.258 . S
C27 O24 1.247 . S
C27 O25 1.258 . S
C28 O30 1.247 . S
C28 O32 1.258 . S
C29 O36 1.247 . S
C29 O37 1.258 . S
O30 C28 1.247 . S
O30 Zn31 2.028 . S
Zn31 O30 2.028 . S
Zn31 O35 2.035 . S
Zn31 O37 2.035 . S
Zn31 O38 2.028 . S
O32 C28 1.258 . S
O32 Zn33 2.035 . S
Zn33 O32 2.035 . S
Zn33 O34 2.028 . S
Zn33 O36 2.028 . S
Zn33 O39 2.035 . S
O34 Zn33 2.028 . S
O34 C40 1.247 . S
O35 Zn31 2.035 . S
O35 C40 1.258 . S
O36 C29 1.247 . S
O36 Zn33 2.028 . S
O37 C29 1.258 . S
O37 Zn31 2.035 . S
O38 Zn31 2.028 . S
O38 C41 1.247 . S
O39 Zn33 2.035 . S
O39 C41 1.258 . S
C40 O34 1.247 . S
C40 O35 1.258 . S
C41 O38 1.247 . S
C41 O39 1.258 . S
C42 O44 1.247 . S
C42 O46 1.258 . S
C43 O50 1.247 . S
C43 O51 1.258 . S
O44 C42 1.247 . S
O44 Zn45 2.028 . S
Zn45 O44 2.028 . S
Zn45 O49 2.035 . S
Zn45 O51 2.035 . S
Zn45 O52 2.028 . S
O46 C42 1.258 . S
O46 Zn47 2.035 . S
Zn47 O46 2.035 . S
Zn47 O48 2.028 . S
Zn47 O50 2.028 . S
Zn47 O53 2.035 . S
O48 Zn47 2.028 . S
O48 C54 1.247 . S
O49 Zn45 2.035 . S
O49 C54 1.258 . S
O50 C43 1.247 . S
O50 Zn47 2.028 . S
O51 C43 1.258 . S
O51 Zn45 2.035 . S
O52 Zn45 2.028 . S
O52 C55 1.247 . S
O53 Zn47 2.035 . S
O53 C55 1.258 . S
C54 O48 1.247 . S
C54 O49 1.258 . S
C55 O52 1.247 . S
C55 O53 1.258 . S
C56 O58 1.247 . S
C56 O60 1.258 . S
C57 O64 1.247 . S
C57 O65 1.258 . S
O58 C56 1.247 . S
O58 Zn59 2.028 . S
Zn59 O58 2.028 . S
Zn59 O63 2.035 . S
Zn59 O65 2.035 . S
Zn59 O66 2.028 . S
O60 C56 1.258 . S
O60 Zn61 2.035 . S
Zn61 O60 2.035 . S
Zn61 O62 2.028 . S
Zn61 O64 2.028 . S
Zn61 O67 2.035 . S
O62 Zn61 2.028 . S
O62 C68 1.247 . S
O63 Zn59 2.035 . S
O63 C68 1.258 . S
O64 C57 1.247 . S
O64 Zn61 2.028 . S
O65 C57 1.258 . S
O65 Zn59 2.035 . S
O66 Zn59 2.028 . S
O66 C69 1.247 . S
O67 Zn61 2.035 . S
O67 C69 1.258 . S
C68 O62 1.247 . S
C68 O63 1.258 . S
C69 O66 1.247 . S
C69 O67 1.258 . S
C70 O72 1.247 . S
C70 O74 1.258 . S
C71 O78 1.247 . S
C71 O79 1.258 . S
O72 C70 1.247 . S
O72 Zn73 2.028 . S
Zn73 O72 2.028 . S
Zn73 O77 2.035 . S
Zn73 O79 2.035 . S
Zn73 O80 2.028 . S
O74 C70 1.258 . S
O74 Zn75 2.035 . S
Zn75 O74 2.035 . S
Zn75 O76 2.028 . S
Zn75 O78 2.028 . S
Zn75 O81 2.035 . S
O76 Zn75 2.028 . S
O76 C82 1.247 . S
O77 Zn73 2.035 . S
O77 C82 1.258 . S
O78 C71 1.247 . S
O78 Zn75 2.028 . S
O79 C71 1.258 . S
O79 Zn73 2.035 . S
O80 Zn73 2.028 . S
O80 C83 1.247 . S
O81 Zn75 2.035 . S
O81 C83 1.258 . S
C82 O76 1.247 . S
C82 O77 1.258 . S
C83 O80 1.247 . S
C83 O81 1.258 . S
C84 O86 1.247 . S
C84 O88 1.258 . S
C85 O92 1.247 . S
C85 O93 1.258 . S
O86 C84 1.247 . S
O86 Zn87 2.028 . S
Zn87 O86 2.028 . S
Zn87 O91 2.035 . S
Zn87 O93 2.035 . S
Zn87 O94 2.028 . S
O88 C84 1.258 . S
O88 Zn89 2.035 . S
Zn89 O88 2.035 . S
Zn89 O90 2.028 . S
Zn89 O92 2.028 . S
Zn89 O95 2.035 . S
O90 Zn89 2.028 . S
O90 C96 1.247 . S
O91 Zn87 2.035 . S
O91 C96 1.258 . S
O92 C85 1.247 . S
O92 Zn89 2.028 . S
O93 C85 1.258 . S
O93 Zn87 2.035 . S
O94 Zn87 2.028 . S
O94 C97 1.247 . S
O95 Zn89 2.035 . S
O95 C97 1.258 . S
C96 O90 1.247 . S
C96 O91 1.258 . S
C97 O94 1.247 . S
C97 O95 1.258 . S
C98 O100 1.247 . S
C98 O102 1.258 . S
C99 O106 1.247 . S
C99 O107 1.258 . S
O100 C98 1.247 . S
O100 Zn101 2.028 . S
Zn101 O100 2.028 . S
Zn101 O105 2.035 . S
Zn101 O107 2.035 . S
Zn101 O108 2.028 . S
O102 C98 1.258 . S
O102 Zn103 2.035 . S
Zn103 O102 2.035 . S
Zn103 O104 2.028 . S
Zn103 O106 2.028 . S
Zn103 O109 2.035 . S
O104 Zn103 2.028 . S
O104 C110 1.247 . S
O105 Zn101 2.035 . S
O105 C110 1.258 . S
O106 C99 1.247 . S
O106 Zn103 2.028 . S
O107 C99 1.258 . S
O107 Zn101 2.035 . S
O108 Zn101 2.028 . S
O108 C111 1.247 . S
O109 Zn103 2.035 . S
O109 C111 1.258 . S
C110 O104 1.247 . S
C110 O105 1.258 . S
C111 O108 1.247 . S
C111 O109 1.258 . S
C112 O114 1.247 . S
C112 O116 1.258 . S
C113 O120 1.247 . S
C113 O121 1.258 . S
O114 C112 1.247 . S
O114 Zn115 2.028 . S
Zn115 O114 2.028 . S
Zn115 O119 2.035 . S
Zn115 O121 2.035 . S
Zn115 O122 2.028 . S
O116 C112 1.258 . S
O116 Zn117 2.035 . S
Zn117 O116 2.035 . S
Zn117 O118 2.028 . S
Zn117 O120 2.028 . S
Zn117 O123 2.035 . S
O118 Zn117 2.028 . S
O118 C124 1.247 . S
O119 Zn115 2.035 . S
O119 C124 1.258 . S
O120 C113 1.247 . S
O120 Zn117 2.028 . S
O121 C113 1.258 . S
O121 Zn115 2.035 . S
O122 Zn115 2.028 . S
O122 C125 1.247 . S
O123 Zn117 2.035 . S
O123 C125 1.258 . S
C124 O118 1.247 . S
C124 O119 1.258 . S
C125 O122 1.247 . S
C125 O123 1.258 . S
C126 O128 1.247 . S
C126 O130 1.258 . S
C127 O134 1.247 . S
C127 O135 1.258 . S
O128 C126 1.247 . S
O128 Zn129 2.028 . S
Zn129 O128 2.028 . S
Zn129 O133 2.035 . S
Zn129 O135 2.035 . S
Zn129 O136 2.028 . S
O130 C126 1.258 . S
O130 Zn131 2.035 . S
Zn131 O130 2.035 . S
Zn131 O132 2.028 . S
Zn131 O134 2.028 . S
Zn131 O137 2.035 . S
O132 Zn131 2.028 . S
O132 C138 1.247 . S
O133 Zn129 2.035 . S
O133 C138 1.258 . S
O134 C127 1.247 . S
O134 Zn131 2.028 . S
O135 C127 1.258 . S
O135 Zn129 2.035 . S
O136 Zn129 2.028 . S
O136 C139 1.247 . S
O137 Zn131 2.035 . S
O137 C139 1.258 . S
C138 O132 1.247 . S
C138 O133 1.258 . S
C139 O136 1.247 . S
C139 O137 1.258 . S
C140 O142 1.247 . S
C140 O144 1.258 . S
C141 O148 1.247 . S
C141 O149 1.258 . S
O142 C140 1.247 . S
O142 Zn143 2.028 . S
Zn143 O142 2.028 . S
Zn143 O147 2.035 . S
Zn143 O149 2.035 . S
Zn143 O150 2.028 . S
O144 C140 1.258 . S
O144 Zn145 2.035 . S
Zn145 O144 2.035 . S
Zn145 O146 2.028 . S
Zn145 O148 2.028 . S
Zn145 O151 2.035 . S
O146 Zn145 2.028 . S
O146 C152 1.247 . S
O147 Zn143 2.035 . S
O147 C152 1.258 . S
O148 C141 1.247 . S
O148 Zn145 2.028 . S
O149 C141 1.258 . S
O149 Zn143 2.035 . S
O150 Zn143 2.028 . S
O150 C153 1.247 . S
O151 Zn145 2.035 . S
O151 C153 1.258 . S
C152 O146 1.247 . S
C152 O147 1.258 . S
C153 O150 1.247 . S
C153 O151 1.258 . S
C154 O156 1.247 . S
C154 O158 1.258 . S
C155 O162 1.247 . S
C155 O163 1.258 . S
O156 C154 1.247 . S
O156 Zn157 2.028 . S
Zn157 O156 2.028 . S
Zn157 O161 2.035 . S
Zn157 O163 2.035 . S
Zn157 O164 2.028 . S
O158 C154 1.258 . S
O158 Zn159 2.035 . S
Zn159 O158 2.035 . S
Zn159 O160 2.028 . S
Zn159 O162 2.028 . S
Zn159 O165 2.035 . S
O160 Zn159 2.028 . S
O160 C166 1.247 . S
O161 Zn157 2.035 . S
O161 C166 1.258 . S
O162 C155 1.247 . S
O162 Zn159 2.028 . S
O163 C155 1.258 . S
O163 Zn157 2.035 . S
O164 Zn157 2.028 . S
O164 C167 1.247 . S
O165 Zn159 2.035 . S
O165 C167 1.258 . S
C166 O160 1.247 . S
C166 O161 1.258 . S
C167 O164 1.247 . S
C167 O165 1.258 . S
H168 C174 0.930 . S
H169 C178 0.930 . S
H170 C183 0.929 . S
H171 C181 0.929 . S
H172 C176 0.929 . S
H173 C182 0.929 . S
C174 H168 0.930 . S
C174 C175 1.367 . S
C174 C182 1.378 . S
C175 C174 1.367 . S
C175 C183 1.433 . S
C176 H172 0.929 . S
C176 C178 1.378 . S
C176 C180 1.350 . S
C177 C180 1.463 . S
C177 C182 1.350 . S
C177 N185 1.427 . S
C178 H169 0.930 . S
C178 C176 1.378 . S
C178 C179 1.367 . S
C179 C178 1.367 . S
C179 C181 1.433 . S
C180 C176 1.350 . S
C180 C177 1.463 . S
C180 N184 1.427 . S
C181 H171 0.929 . S
C181 C179 1.433 . S
C181 N184 1.384 . S
C182 H173 0.929 . S
C182 C174 1.378 . S
C182 C177 1.350 . S
C183 H170 0.929 . S
C183 C175 1.433 . S
C183 N185 1.384 . S
N184 C180 1.427 . S
N184 C181 1.384 . S
N185 C177 1.427 . S
N185 C183 1.384 . S
H186 C192 0.930 . S
H187 C196 0.930 . S
H188 C201 0.929 . S
H189 C199 0.929 . S
H190 C194 0.929 . S
H191 C200 0.929 . S
C192 H186 0.930 . S
C192 C193 1.367 . S
C192 C200 1.378 . S
C193 C192 1.367 . S
C193 C201 1.433 . S
C194 H190 0.929 . S
C194 C196 1.378 . S
C194 C198 1.350 . S
C195 C198 1.463 . S
C195 C200 1.350 . S
C195 N203 1.427 . S
C196 H187 0.930 . S
C196 C194 1.378 . S
C196 C197 1.367 . S
C197 C196 1.367 . S
C197 C199 1.433 . S
C198 C194 1.350 . S
C198 C195 1.463 . S
C198 N202 1.427 . S
C199 H189 0.929 . S
C199 C197 1.433 . S
C199 N202 1.384 . S
C200 H191 0.929 . S
C200 C192 1.378 . S
C200 C195 1.350 . S
C201 H188 0.929 . S
C201 C193 1.433 . S
C201 N203 1.384 . S
N202 C198 1.427 . S
N202 C199 1.384 . S
N203 C195 1.427 . S
N203 C201 1.384 . S
H204 C210 0.930 . S
H205 C214 0.930 . S
H206 C219 0.929 . S
H207 C217 0.929 . S
H208 C212 0.929 . S
H209 C218 0.929 . S
C210 H204 0.930 . S
C210 C211 1.367 . S
C210 C218 1.378 . S
C211 C210 1.367 . S
C211 C219 1.433 . S
C212 H208 0.929 . S
C212 C214 1.378 . S
C212 C216 1.350 . S
C213 C216 1.463 . S
C213 C218 1.350 . S
C213 N221 1.427 . S
C214 H205 0.930 . S
C214 C212 1.378 . S
C214 C215 1.367 . S
C215 C214 1.367 . S
C215 C217 1.433 . S
C216 C212 1.350 . S
C216 C213 1.463 . S
C216 N220 1.427 . S
C217 H207 0.929 . S
C217 C215 1.433 . S
C217 N220 1.384 . S
C218 H209 0.929 . S
C218 C210 1.378 . S
C218 C213 1.350 . S
C219 H206 0.929 . S
C219 C211 1.433 . S
C219 N221 1.384 . S
N220 C216 1.427 . S
N220 C217 1.384 . S
N221 C213 1.427 . S
N221 C219 1.384 . S
H222 C228 0.930 . S
H223 C232 0.930 . S
H224 C237 0.929 . S
H225 C235 0.929 . S
H226 C230 0.929 . S
H227 C236 0.929 . S
C228 H222 0.930 . S
C228 C229 1.367 . S
C228 C236 1.378 . S
C229 C228 1.367 . S
C229 C237 1.433 . S
C230 H226 0.929 . S
C230 C232 1.378 . S
C230 C234 1.350 . S
C231 C234 1.463 . S
C231 C236 1.350 . S
C231 N239 1.427 . S
C232 H223 0.930 . S
C232 C230 1.378 . S
C232 C233 1.367 . S
C233 C232 1.367 . S
C233 C235 1.433 . S
C234 C230 1.350 . S
C234 C231 1.463 . S
C234 N238 1.427 . S
C235 H225 0.929 . S
C235 C233 1.433 . S
C235 N238 1.384 . S
C236 H227 0.929 . S
C236 C228 1.378 . S
C236 C231 1.350 . S
C237 H224 0.929 . S
C237 C229 1.433 . S
C237 N239 1.384 . S
N238 C234 1.427 . S
N238 C235 1.384 . S
N239 C231 1.427 . S
N239 C237 1.384 . S
H240 C246 0.930 . S
H241 C250 0.930 . S
H242 C255 0.929 . S
H243 C253 0.929 . S
H244 C248 0.929 . S
H245 C254 0.929 . S
C246 H240 0.930 . S
C246 C247 1.367 . S
C246 C254 1.378 . S
C247 C246 1.367 . S
C247 C255 1.433 . S
C248 H244 0.929 . S
C248 C250 1.378 . S
C248 C252 1.350 . S
C249 C252 1.463 . S
C249 C254 1.350 . S
C249 N257 1.427 . S
C250 H241 0.930 . S
C250 C248 1.378 . S
C250 C251 1.367 . S
C251 C250 1.367 . S
C251 C253 1.433 . S
C252 C248 1.350 . S
C252 C249 1.463 . S
C252 N256 1.427 . S
C253 H243 0.929 . S
C253 C251 1.433 . S
C253 N256 1.384 . S
C254 H245 0.929 . S
C254 C246 1.378 . S
C254 C249 1.350 . S
C255 H242 0.929 . S
C255 C247 1.433 . S
C255 N257 1.384 . S
N256 C252 1.427 . S
N256 C253 1.384 . S
N257 C249 1.427 . S
N257 C255 1.384 . S
H258 C264 0.930 . S
H259 C268 0.930 . S
H260 C273 0.929 . S
H261 C271 0.929 . S
H262 C266 0.929 . S
H263 C272 0.929 . S
C264 H258 0.930 . S
C264 C265 1.367 . S
C264 C272 1.378 . S
C265 C264 1.367 . S
C265 C273 1.433 . S
C266 H262 0.929 . S
C266 C268 1.378 . S
C266 C270 1.350 . S
C267 C270 1.463 . S
C267 C272 1.350 . S
C267 N275 1.427 . S
C268 H259 0.930 . S
C268 C266 1.378 . S
C268 C269 1.367 . S
C269 C268 1.367 . S
C269 C271 1.433 . S
C270 C266 1.350 . S
C270 C267 1.463 . S
C270 N274 1.427 . S
C271 H261 0.929 . S
C271 C269 1.433 . S
C271 N274 1.384 . S
C272 H263 0.929 . S
C272 C264 1.378 . S
C272 C267 1.350 . S
C273 H260 0.929 . S
C273 C265 1.433 . S
C273 N275 1.384 . S
N274 C270 1.427 . S
N274 C271 1.384 . S
N275 C267 1.427 . S
N275 C273 1.384 . S
H276 C282 0.930 . S
H277 C286 0.930 . S
H278 C291 0.929 . S
H279 C289 0.929 . S
H280 C284 0.929 . S
H281 C290 0.929 . S
C282 H276 0.930 . S
C282 C283 1.367 . S
C282 C290 1.378 . S
C283 C282 1.367 . S
C283 C291 1.433 . S
C284 H280 0.929 . S
C284 C286 1.378 . S
C284 C288 1.350 . S
C285 C288 1.463 . S
C285 C290 1.350 . S
C285 N293 1.427 . S
C286 H277 0.930 . S
C286 C284 1.378 . S
C286 C287 1.367 . S
C287 C286 1.367 . S
C287 C289 1.433 . S
C288 C284 1.350 . S
C288 C285 1.463 . S
C288 N292 1.427 . S
C289 H279 0.929 . S
C289 C287 1.433 . S
C289 N292 1.384 . S
C290 H281 0.929 . S
C290 C282 1.378 . S
C290 C285 1.350 . S
C291 H278 0.929 . S
C291 C283 1.433 . S
C291 N293 1.384 . S
N292 C288 1.427 . S
N292 C289 1.384 . S
N293 C285 1.427 . S
N293 C291 1.384 . S
H294 C300 0.930 . S
H295 C304 0.930 . S
H296 C309 0.929 . S
H297 C307 0.929 . S
H298 C302 0.929 . S
H299 C308 0.929 . S
C300 H294 0.930 . S
C300 C301 1.367 . S
C300 C308 1.378 . S
C301 C300 1.367 . S
C301 C309 1.433 . S
C302 H298 0.929 . S
C302 C304 1.378 . S
C302 C306 1.350 . S
C303 C306 1.463 1_655 S
C303 C308 1.350 . S
C303 N311 1.427 . S
C304 H295 0.930 . S
C304 C302 1.378 . S
C304 C305 1.367 . S
C305 C304 1.367 . S
C305 C307 1.433 . S
C306 C302 1.350 . S
C306 C303 1.463 1_455 S
C306 N310 1.427 . S
C307 H297 0.929 . S
C307 C305 1.433 . S
C307 N310 1.384 . S
C308 H299 0.929 . S
C308 C300 1.378 . S
C308 C303 1.350 . S
C309 H296 0.929 . S
C309 C301 1.433 . S
C309 N311 1.384 . S
N310 C306 1.427 . S
N310 C307 1.384 . S
N311 C303 1.427 . S
N311 C309 1.384 . S
H312 C318 0.930 . S
H313 C322 0.930 . S
H314 C327 0.929 . S
H315 C325 0.929 . S
H316 C320 0.929 . S
H317 C326 0.929 . S
C318 H312 0.930 . S
C318 C319 1.367 . S
C318 C326 1.378 . S
C319 C318 1.367 . S
C319 C327 1.433 . S
C320 H316 0.929 . S
C320 C322 1.378 . S
C320 C324 1.350 . S
C321 C324 1.463 1_545 S
C321 C326 1.350 . S
C321 N329 1.427 . S
C322 H313 0.930 . S
C322 C320 1.378 . S
C322 C323 1.367 . S
C323 C322 1.367 . S
C323 C325 1.433 . S
C324 C320 1.350 . S
C324 C321 1.463 1_565 S
C324 N328 1.427 . S
C325 H315 0.929 . S
C325 C323 1.433 . S
C325 N328 1.384 . S
C326 H317 0.929 . S
C326 C318 1.378 . S
C326 C321 1.350 . S
C327 H314 0.929 . S
C327 C319 1.433 . S
C327 N329 1.384 . S
N328 C324 1.427 . S
N328 C325 1.384 . S
N329 C321 1.427 . S
N329 C327 1.384 . S
H330 C336 0.930 . S
H331 C340 0.930 . S
H332 C345 0.929 . S
H333 C343 0.929 . S
H334 C338 0.929 . S
H335 C344 0.929 . S
C336 H330 0.930 . S
C336 C337 1.367 . S
C336 C344 1.378 . S
C337 C336 1.367 . S
C337 C345 1.433 . S
C338 H334 0.929 . S
C338 C340 1.378 . S
C338 C342 1.350 . S
C339 C342 1.463 . S
C339 C344 1.350 . S
C339 N347 1.427 . S
C340 H331 0.930 . S
C340 C338 1.378 . S
C340 C341 1.367 . S
C341 C340 1.367 . S
C341 C343 1.433 . S
C342 C338 1.350 . S
C342 C339 1.463 . S
C342 N346 1.427 . S
C343 H333 0.929 . S
C343 C341 1.433 . S
C343 N346 1.384 . S
C344 H335 0.929 . S
C344 C336 1.378 . S
C344 C339 1.350 . S
C345 H332 0.929 . S
C345 C337 1.433 . S
C345 N347 1.384 . S
N346 C342 1.427 . S
N346 C343 1.384 . S
N347 C339 1.427 . S
N347 C345 1.384 . S
H348 C354 0.930 . S
H349 C358 0.930 . S
H350 C363 0.929 . S
H351 C361 0.929 . S
H352 C356 0.929 . S
H353 C362 0.929 . S
C354 H348 0.930 . S
C354 C355 1.367 . S
C354 C362 1.378 . S
C355 C354 1.367 . S
C355 C363 1.433 . S
C356 H352 0.929 . S
C356 C358 1.378 . S
C356 C360 1.350 . S
C357 C360 1.463 1_655 S
C357 C362 1.350 . S
C357 N365 1.427 . S
C358 H349 0.930 . S
C358 C356 1.378 . S
C358 C359 1.367 . S
C359 C358 1.367 . S
C359 C361 1.433 . S
C360 C356 1.350 . S
C360 C357 1.463 1_455 S
C360 N364 1.427 . S
C361 H351 0.929 . S
C361 C359 1.433 . S
C361 N364 1.384 . S
C362 H353 0.929 . S
C362 C354 1.378 . S
C362 C357 1.350 . S
C363 H350 0.929 . S
C363 C355 1.433 . S
C363 N365 1.384 . S
N364 C360 1.427 . S
N364 C361 1.384 . S
N365 C357 1.427 . S
N365 C363 1.384 . S
H366 C372 0.930 . S
H367 C376 0.930 . S
H368 C381 0.929 . S
H369 C379 0.929 . S
H370 C374 0.912 1_554 S
H371 C380 0.912 1_556 S
C372 H366 0.930 . S
C372 C373 1.367 . S
C372 C380 1.389 . S
C373 C372 1.367 . S
C373 C381 1.433 . S
C374 H370 0.912 1_556 S
C374 C376 1.389 . S
C374 C378 1.355 . S
C375 C378 1.463 1_564 S
C375 C380 1.355 . S
C375 N383 1.427 . S
C376 H367 0.930 . S
C376 C374 1.389 . S
C376 C377 1.367 . S
C377 C376 1.367 . S
C377 C379 1.433 . S
C378 C374 1.355 . S
C378 C375 1.463 1_546 S
C378 N382 1.427 . S
C379 H369 0.929 . S
C379 C377 1.433 . S
C379 N382 1.384 . S
C380 H371 0.912 1_554 S
C380 C372 1.389 . S
C380 C375 1.355 . S
C381 H368 0.929 . S
C381 C373 1.433 . S
C381 N383 1.384 . S
N382 C378 1.427 . S
N382 C379 1.384 . S
N383 C375 1.427 . S
N383 C381 1.384 . S
H384 C390 0.930 . S
H385 C394 0.937 . S
H386 C399 0.929 . S
H387 C397 0.929 1_556 S
H388 C392 0.929 . S
H389 C398 0.929 . S
C390 H384 0.930 . S
C390 C391 1.367 . S
C390 C398 1.378 . S
C391 C390 1.367 . S
C391 C399 1.433 . S
C392 H388 0.929 . S
C392 C394 1.367 1_554 S
C392 C396 1.350 . S
C393 C396 1.463 . S
C393 C398 1.350 . S
C393 N401 1.427 . S
C394 H385 0.937 . S
C394 C392 1.367 1_556 S
C394 C395 1.371 . S
C395 C394 1.371 . S
C395 C397 1.433 1_556 S
C396 C392 1.350 . S
C396 C393 1.463 . S
C396 N400 1.427 . S
C397 H387 0.929 1_554 S
C397 C395 1.433 1_554 S
C397 N400 1.384 . S
C398 H389 0.929 . S
C398 C390 1.378 . S
C398 C393 1.350 . S
C399 H386 0.929 . S
C399 C391 1.433 . S
C399 N401 1.384 . S
N400 C396 1.427 . S
N400 C397 1.384 . S
N401 C393 1.427 . S
N401 C399 1.384 . S
H402 C408 0.930 . S
H403 C412 0.930 . S
H404 C417 0.929 . S
H405 C415 0.929 . S
H406 C410 0.929 . S
H407 C416 0.929 . S
C408 H402 0.930 . S
C408 C409 1.367 . S
C408 C416 1.378 . S
C409 C408 1.367 . S
C409 C417 1.433 . S
C410 H406 0.929 . S
C410 C412 1.378 . S
C410 C414 1.350 1_455 S
C411 C414 1.463 . S
C411 C416 1.350 . S
C411 N419 1.427 . S
C412 H403 0.930 . S
C412 C410 1.378 . S
C412 C413 1.367 . S
C413 C412 1.367 . S
C413 C415 1.433 . S
C414 C410 1.350 1_655 S
C414 C411 1.463 . S
C414 N418 1.427 . S
C415 H405 0.929 . S
C415 C413 1.433 . S
C415 N418 1.384 1_455 S
C416 H407 0.929 . S
C416 C408 1.378 . S
C416 C411 1.350 . S
C417 H404 0.929 . S
C417 C409 1.433 . S
C417 N419 1.384 . S
N418 C414 1.427 . S
N418 C415 1.384 1_655 S
N419 C411 1.427 . S
N419 C417 1.384 . S
H420 C426 0.930 . S
H421 C430 0.930 . S
H422 C435 0.929 . S
H423 C433 0.929 . S
H424 C428 0.929 . S
H425 C434 0.929 . S
C426 H420 0.930 . S
C426 C427 1.367 . S
C426 C434 1.378 . S
C427 C426 1.367 . S
C427 C435 1.433 . S
C428 H424 0.929 . S
C428 C430 1.378 . S
C428 C432 1.350 . S
C429 C432 1.463 . S
C429 C434 1.350 1_565 S
C429 N437 1.427 . S
C430 H421 0.930 . S
C430 C428 1.378 . S
C430 C431 1.367 . S
C431 C430 1.367 . S
C431 C433 1.433 . S
C432 C428 1.350 . S
C432 C429 1.463 . S
C432 N436 1.427 . S
C433 H423 0.929 . S
C433 C431 1.433 . S
C433 N436 1.384 . S
C434 H425 0.929 . S
C434 C426 1.378 . S
C434 C429 1.350 1_545 S
C435 H422 0.929 . S
C435 C427 1.433 . S
C435 N437 1.384 1_545 S
N436 C432 1.427 . S
N436 C433 1.384 . S
N437 C429 1.427 . S
N437 C435 1.384 1_565 S
H438 C444 0.930 . S
H439 C448 0.930 . S
H440 C453 0.929 . S
H441 C451 0.929 . S
H442 C446 0.929 . S
H443 C452 0.929 . S
C444 H438 0.930 . S
C444 C445 1.367 . S
C444 C452 1.378 . S
C445 C444 1.367 . S
C445 C453 1.433 . S
C446 H442 0.929 . S
C446 C448 1.378 . S
C446 C450 1.350 . S
C447 C450 1.463 . S
C447 C452 1.350 . S
C447 N455 1.427 . S
C448 H439 0.930 . S
C448 C446 1.378 . S
C448 C449 1.367 . S
C449 C448 1.367 . S
C449 C451 1.433 . S
C450 C446 1.350 . S
C450 C447 1.463 . S
C450 N454 1.427 . S
C451 H441 0.929 . S
C451 C449 1.433 . S
C451 N454 1.384 . S
C452 H443 0.929 . S
C452 C444 1.378 . S
C452 C447 1.350 . S
C453 H440 0.929 . S
C453 C445 1.433 . S
C453 N455 1.384 . S
N454 C450 1.427 . S
N454 C451 1.384 . S
N455 C447 1.427 . S
N455 C453 1.384 . S
H456 C462 0.930 . S
H457 C466 0.930 . S
H458 C471 0.929 . S
H459 C469 0.929 . S
H460 C464 0.929 . S
H461 C470 0.929 . S
C462 H456 0.930 . S
C462 C463 1.367 . S
C462 C470 1.378 . S
C463 C462 1.367 . S
C463 C471 1.433 . S
C464 H460 0.929 . S
C464 C466 1.378 . S
C464 C468 1.350 1_655 S
C465 C468 1.463 . S
C465 C470 1.350 . S
C465 N473 1.427 . S
C466 H457 0.930 . S
C466 C464 1.378 . S
C466 C467 1.367 . S
C467 C466 1.367 . S
C467 C469 1.433 . S
C468 C464 1.350 1_455 S
C468 C465 1.463 . S
C468 N472 1.427 . S
C469 H459 0.929 . S
C469 C467 1.433 . S
C469 N472 1.384 1_655 S
C470 H461 0.929 . S
C470 C462 1.378 . S
C470 C465 1.350 . S
C471 H458 0.929 . S
C471 C463 1.433 . S
C471 N473 1.384 . S
N472 C468 1.427 . S
N472 C469 1.384 1_455 S
N473 C465 1.427 . S
N473 C471 1.384 . S
H474 C480 0.930 . S
H475 C484 0.930 . S
H476 C489 0.929 . S
H477 C487 0.929 . S
H478 C482 0.929 . S
H479 C488 0.929 . S
C480 H474 0.930 . S
C480 C481 1.367 . S
C480 C488 1.378 . S
C481 C480 1.367 . S
C481 C489 1.433 . S
C482 H478 0.929 . S
C482 C484 1.378 1_545 S
C482 C486 1.350 . S
C483 C486 1.463 . S
C483 C488 1.350 . S
C483 N491 1.427 . S
C484 H475 0.930 . S
C484 C482 1.378 1_565 S
C484 C485 1.367 . S
C485 C484 1.367 . S
C485 C487 1.433 . S
C486 C482 1.350 . S
C486 C483 1.463 . S
C486 N490 1.427 1_545 S
C487 H477 0.929 . S
C487 C485 1.433 . S
C487 N490 1.384 . S
C488 H479 0.929 . S
C488 C480 1.378 . S
C488 C483 1.350 . S
C489 H476 0.929 . S
C489 C481 1.433 . S
C489 N491 1.384 . S
N490 C486 1.427 1_565 S
N490 C487 1.384 . S
N491 C483 1.427 . S
N491 C489 1.384 . S
H492 C498 0.930 . S
H493 C502 0.930 . S
H494 C507 0.929 . S
H495 C505 0.929 . S
H496 C500 0.929 . S
H497 C506 0.929 . S
C498 H492 0.930 . S
C498 C499 1.367 . S
C498 C506 1.378 . S
C499 C498 1.367 . S
C499 C507 1.433 . S
C500 H496 0.929 . S
C500 C502 1.378 . S
C500 C504 1.350 . S
C501 C504 1.463 . S
C501 C506 1.350 . S
C501 N509 1.427 . S
C502 H493 0.930 . S
C502 C500 1.378 . S
C502 C503 1.367 . S
C503 C502 1.367 . S
C503 C505 1.433 . S
C504 C500 1.350 . S
C504 C501 1.463 . S
C504 N508 1.427 . S
C505 H495 0.929 . S
C505 C503 1.433 . S
C505 N508 1.384 . S
C506 H497 0.929 . S
C506 C498 1.378 . S
C506 C501 1.350 . S
C507 H494 0.929 . S
C507 C499 1.433 . S
C507 N509 1.384 . S
N508 C504 1.427 . S
N508 C505 1.384 . S
N509 C501 1.427 . S
N509 C507 1.384 . S
H510 C516 0.930 . S
H511 C520 0.930 . S
H512 C525 0.929 . S
H513 C523 0.929 . S
H514 C518 0.929 . S
H515 C524 0.929 . S
C516 H510 0.930 . S
C516 C517 1.367 . S
C516 C524 1.378 . S
C517 C516 1.367 . S
C517 C525 1.433 . S
C518 H514 0.929 . S
C518 C520 1.378 . S
C518 C522 1.350 1_455 S
C519 C522 1.463 . S
C519 C524 1.350 . S
C519 N527 1.427 . S
C520 H511 0.930 . S
C520 C518 1.378 . S
C520 C521 1.367 1_556 S
C521 C520 1.367 1_554 S
C521 C523 1.433 . S
C522 C518 1.350 1_655 S
C522 C519 1.463 . S
C522 N526 1.427 . S
C523 H513 0.929 . S
C523 C521 1.433 . S
C523 N526 1.384 1_454 S
C524 H515 0.929 . S
C524 C516 1.378 . S
C524 C519 1.350 . S
C525 H512 0.929 . S
C525 C517 1.433 . S
C525 N527 1.384 . S
N526 C522 1.427 . S
N526 C523 1.384 1_656 S
N527 C519 1.427 . S
N527 C525 1.384 . S
H528 C534 0.930 . S
H529 C538 0.930 . S
H530 C543 0.929 . S
H531 C541 0.929 . S
H532 C536 0.929 . S
H533 C542 0.929 . S
C534 H528 0.930 . S
C534 C535 1.367 . S
C534 C542 1.378 . S
C535 C534 1.367 . S
C535 C543 1.433 . S
C536 H532 0.929 . S
C536 C538 1.378 . S
C536 C540 1.350 1_545 S
C537 C540 1.463 . S
C537 C542 1.350 . S
C537 N545 1.427 . S
C538 H529 0.930 . S
C538 C536 1.378 . S
C538 C539 1.367 . S
C539 C538 1.367 . S
C539 C541 1.433 . S
C540 C536 1.350 1_565 S
C540 C537 1.463 . S
C540 N544 1.427 . S
C541 H531 0.929 . S
C541 C539 1.433 . S
C541 N544 1.384 1_545 S
C542 H533 0.929 . S
C542 C534 1.378 . S
C542 C537 1.350 . S
C543 H530 0.929 . S
C543 C535 1.433 . S
C543 N545 1.384 . S
N544 C540 1.427 . S
N544 C541 1.384 1_565 S
N545 C537 1.427 . S
N545 C543 1.384 . S
H546 C552 0.930 . S
H547 C556 0.930 . S
H548 C561 0.929 . S
H549 C559 0.929 . S
H550 C554 0.929 . S
H551 C560 0.929 . S
C552 H546 0.930 . S
C552 C553 1.367 . S
C552 C560 1.378 . S
C553 C552 1.367 . S
C553 C561 1.433 . S
C554 H550 0.929 . S
C554 C556 1.378 . S
C554 C558 1.350 . S
C555 C558 1.463 . S
C555 C560 1.350 . S
C555 N563 1.427 . S
C556 H547 0.930 . S
C556 C554 1.378 . S
C556 C557 1.367 . S
C557 C556 1.367 . S
C557 C559 1.433 . S
C558 C554 1.350 . S
C558 C555 1.463 . S
C558 N562 1.427 . S
C559 H549 0.929 . S
C559 C557 1.433 . S
C559 N562 1.384 . S
C560 H551 0.929 . S
C560 C552 1.378 . S
C560 C555 1.350 . S
C561 H548 0.929 . S
C561 C553 1.433 . S
C561 N563 1.384 . S
N562 C558 1.427 . S
N562 C559 1.384 . S
N563 C555 1.427 . S
N563 C561 1.384 . S
H564 C570 0.930 . S
H565 C574 0.930 . S
H566 C579 0.929 . S
H567 C577 0.929 . S
H568 C572 0.929 . S
H569 C578 0.929 . S
C570 H564 0.930 . S
C570 C571 1.367 . S
C570 C578 1.378 . S
C571 C570 1.367 . S
C571 C579 1.433 . S
C572 H568 0.929 . S
C572 C574 1.378 . S
C572 C576 1.350 1_655 S
C573 C576 1.463 . S
C573 C578 1.350 . S
C573 N581 1.427 . S
C574 H565 0.930 . S
C574 C572 1.378 . S
C574 C575 1.367 . S
C575 C574 1.367 . S
C575 C577 1.433 . S
C576 C572 1.350 1_455 S
C576 C573 1.463 . S
C576 N580 1.427 . S
C577 H567 0.929 . S
C577 C575 1.433 . S
C577 N580 1.384 1_655 S
C578 H569 0.929 . S
C578 C570 1.378 . S
C578 C573 1.350 . S
C579 H566 0.929 . S
C579 C571 1.433 . S
C579 N581 1.384 . S
N580 C576 1.427 . S
N580 C577 1.384 1_455 S
N581 C573 1.427 . S
N581 C579 1.384 . S
H582 C588 0.930 . S
H583 C592 0.930 . S
H584 C597 0.929 . S
H585 C595 0.929 . S
H586 C590 0.929 . S
H587 C596 0.929 . S
C588 H582 0.930 . S
C588 C589 1.367 . S
C588 C596 1.378 1_565 S
C589 C588 1.367 . S
C589 C597 1.433 . S
C590 H586 0.929 . S
C590 C592 1.378 . S
C590 C594 1.350 . S
C591 C594 1.463 . S
C591 C596 1.350 . S
C591 N599 1.427 1_545 S
C592 H583 0.930 . S
C592 C590 1.378 . S
C592 C593 1.367 . S
C593 C592 1.367 . S
C593 C595 1.433 . S
C594 C590 1.350 . S
C594 C591 1.463 . S
C594 N598 1.427 . S
C595 H585 0.929 . S
C595 C593 1.433 . S
C595 N598 1.384 . S
C596 H587 0.929 . S
C596 C588 1.378 1_545 S
C596 C591 1.350 . S
C597 H584 0.929 . S
C597 C589 1.433 . S
C597 N599 1.384 . S
N598 C594 1.427 . S
N598 C595 1.384 . S
N599 C591 1.427 1_565 S
N599 C597 1.384 . S
C175 C113 1.578 . S
C179 C12 1.586 . S
C193 C15 1.580 . S
C197 C139 1.588 . S
C211 C29 1.578 . S
C215 C140 1.588 . S
C229 C54 1.581 . S
C233 C154 1.589 . S
C247 C85 1.581 . S
C251 C57 1.588 . S
C265 C83 1.581 . S
C269 C110 1.582 . S
C283 C138 1.378 . S
C287 C13 1.379 . S
C301 C14 1.380 . S
C305 C141 1.374 . S
C319 C155 1.371 . S
C323 C28 1.370 . S
C337 C55 1.375 . S
C341 C84 1.371 . S
C355 C111 1.371 . S
C359 C56 1.370 . S
C373 C112 1.370 . S
C377 C82 1.373 . S
C391 C0 1.953 . S
C395 C70 1.912 . S
C409 C27 1.952 . S
C413 C1 1.912 . S
C427 C26 1.920 . S
C431 C41 1.949 . S
C445 C42 1.947 . S
C449 C40 1.920 . S
C463 C69 1.952 . S
C467 C43 1.913 . S
C481 C71 1.946 . S
C485 C68 1.920 . S
C499 C97 1.952 . S
C503 C99 1.913 . S
C517 C98 1.953 . S
C521 C124 1.913 . S
C535 C125 1.952 . S
C539 C126 1.913 . S
C553 C127 1.952 . S
C557 C153 1.912 . S
C571 C152 1.953 . S
C575 C167 1.914 . S
C589 C96 1.914 . S
C593 C166 1.950 . S
