# Generated by pormake.
# Topology zfg, (5)-cn, num edge types: 1
# Building blocks:
#     Node 0, Type 0, BuildingBlock: XOMCOT_clean_sbu_1, # of connection points: 5
#     Node 1, Type 0, BuildingBlock: XOMCOT_clean_sbu_1, # of connection points: 5
#     Node 2, Type 0, BuildingBlock: XOMCOT_clean_sbu_1, # of connection points: 5
#     Node 3, Type 0, BuildingBlock: XOMCOT_clean_sbu_1, # of connection points: 5
#     Node 4, Type 0, BuildingBlock: XOMCOT_clean_sbu_1, # of connection points: 5
#     Node 5, Type 0, BuildingBlock: XOMCOT_clean_sbu_1, # of connection points: 5
#     Node 6, Type 0, BuildingBlock: XOMCOT_clean_sbu_1, # of connection points: 5
#     Node 7, Type 0, BuildingBlock: XOMCOT_clean_sbu_1, # of connection points: 5
#     Node 8, Type 0, BuildingBlock: XOMCOT_clean_sbu_1, # of connection points: 5
#     Node 9, Type 0, BuildingBlock: XOMCOT_clean_sbu_1, # of connection points: 5
#     Node 10, Type 0, BuildingBlock: XOMCOT_clean_sbu_1, # of connection points: 5
#     Node 11, Type 0, BuildingBlock: XOMCOT_clean_sbu_1, # of connection points: 5
#     Node 12, Type 0, BuildingBlock: XOMCOT_clean_sbu_1, # of connection points: 5
#     Node 13, Type 0, BuildingBlock: XOMCOT_clean_sbu_1, # of connection points: 5
#     Node 14, Type 0, BuildingBlock: XOMCOT_clean_sbu_1, # of connection points: 5
#     Node 15, Type 0, BuildingBlock: XOMCOT_clean_sbu_1, # of connection points: 5
#     Edge 16, Type (0, 0), BuildingBlock: AJUNOK_clean_linker_0, # of connection points: 2
#     Edge 17, Type (0, 0), BuildingBlock: AJUNOK_clean_linker_0, # of connection points: 2
#     Edge 18, Type (0, 0), BuildingBlock: AJUNOK_clean_linker_0, # of connection points: 2
#     Edge 19, Type (0, 0), BuildingBlock: AJUNOK_clean_linker_0, # of connection points: 2
#     Edge 20, Type (0, 0), BuildingBlock: AJUNOK_clean_linker_0, # of connection points: 2
#     Edge 21, Type (0, 0), BuildingBlock: AJUNOK_clean_linker_0, # of connection points: 2
#     Edge 22, Type (0, 0), BuildingBlock: AJUNOK_clean_linker_0, # of connection points: 2
#     Edge 23, Type (0, 0), BuildingBlock: AJUNOK_clean_linker_0, # of connection points: 2
#     Edge 24, Type (0, 0), BuildingBlock: AJUNOK_clean_linker_0, # of connection points: 2
#     Edge 25, Type (0, 0), BuildingBlock: AJUNOK_clean_linker_0, # of connection points: 2
#     Edge 26, Type (0, 0), BuildingBlock: AJUNOK_clean_linker_0, # of connection points: 2
#     Edge 27, Type (0, 0), BuildingBlock: AJUNOK_clean_linker_0, # of connection points: 2
#     Edge 28, Type (0, 0), BuildingBlock: AJUNOK_clean_linker_0, # of connection points: 2
#     Edge 29, Type (0, 0), BuildingBlock: AJUNOK_clean_linker_0, # of connection points: 2
#     Edge 30, Type (0, 0), BuildingBlock: AJUNOK_clean_linker_0, # of connection points: 2
#     Edge 31, Type (0, 0), BuildingBlock: AJUNOK_clean_linker_0, # of connection points: 2
#     Edge 32, Type (0, 0), BuildingBlock: AJUNOK_clean_linker_0, # of connection points: 2
#     Edge 33, Type (0, 0), BuildingBlock: AJUNOK_clean_linker_0, # of connection points: 2
#     Edge 34, Type (0, 0), BuildingBlock: AJUNOK_clean_linker_0, # of connection points: 2
#     Edge 35, Type (0, 0), BuildingBlock: AJUNOK_clean_linker_0, # of connection points: 2
#     Edge 36, Type (0, 0), BuildingBlock: AJUNOK_clean_linker_0, # of connection points: 2
#     Edge 37, Type (0, 0), BuildingBlock: AJUNOK_clean_linker_0, # of connection points: 2
#     Edge 38, Type (0, 0), BuildingBlock: AJUNOK_clean_linker_0, # of connection points: 2
#     Edge 39, Type (0, 0), BuildingBlock: AJUNOK_clean_linker_0, # of connection points: 2
#     Edge 40, Type (0, 0), BuildingBlock: AJUNOK_clean_linker_0, # of connection points: 2
#     Edge 41, Type (0, 0), BuildingBlock: AJUNOK_clean_linker_0, # of connection points: 2
#     Edge 42, Type (0, 0), BuildingBlock: AJUNOK_clean_linker_0, # of connection points: 2
#     Edge 43, Type (0, 0), BuildingBlock: AJUNOK_clean_linker_0, # of connection points: 2
#     Edge 44, Type (0, 0), BuildingBlock: AJUNOK_clean_linker_0, # of connection points: 2
#     Edge 45, Type (0, 0), BuildingBlock: AJUNOK_clean_linker_0, # of connection points: 2
#     Edge 46, Type (0, 0), BuildingBlock: AJUNOK_clean_linker_0, # of connection points: 2
#     Edge 47, Type (0, 0), BuildingBlock: AJUNOK_clean_linker_0, # of connection points: 2
#     Edge 48, Type (0, 0), BuildingBlock: AJUNOK_clean_linker_0, # of connection points: 2
#     Edge 49, Type (0, 0), BuildingBlock: AJUNOK_clean_linker_0, # of connection points: 2
#     Edge 50, Type (0, 0), BuildingBlock: AJUNOK_clean_linker_0, # of connection points: 2
#     Edge 51, Type (0, 0), BuildingBlock: AJUNOK_clean_linker_0, # of connection points: 2
#     Edge 52, Type (0, 0), BuildingBlock: AJUNOK_clean_linker_0, # of connection points: 2
#     Edge 53, Type (0, 0), BuildingBlock: AJUNOK_clean_linker_0, # of connection points: 2
#     Edge 54, Type (0, 0), BuildingBlock: AJUNOK_clean_linker_0, # of connection points: 2
#     Edge 55, Type (0, 0), BuildingBlock: AJUNOK_clean_linker_0, # of connection points: 2
# Relax obj value: 0.095
# Max RMSD: 0.132
# Mean RMSD: 0.132
data_MOF--net-zfg--node1-XOMCOT_clean_sbu_1--edge1-AJUNOK_clean_linker_0
_symmetry_space_group_name_H-M    P1
_symmetry_Int_Tables_number       1
_symmetry_cell_setting            triclinic
loop_
_symmetry_equiv_pos_as_xyz
'x, y, z'
_cell_length_a     33.27017
_cell_length_b     33.414334
_cell_length_c     36.944405
_cell_angle_alpha  90.080185
_cell_angle_beta   90.469362
_cell_angle_gamma 90.060557
loop_
_atom_site_label
_atom_site_type_symbol
_atom_site_fract_x
_atom_site_fract_y
_atom_site_fract_z
_atom_type_partial_charge
C0 C 0.04346 0.21925 0.23895 0.0
C1 C 0.0702 0.18815 0.23899 0.0
N2 N 0.10004 0.19705 0.21595 0.0
N3 N 0.05581 0.24744 0.21547 0.0
C4 C 0.09048 0.23309 0.2017 0.0
H5 H 0.01695 0.22148 0.25554 0.0
Co6 Co 0.02903 0.29566 0.20964 0.0
C7 C 0.02927 0.31377 0.13132 0.0
O8 O 0.99145 0.32396 0.13473 0.0
N9 N 1.00156 0.34577 0.20518 0.0
C10 C 0.95649 0.39493 0.19988 0.0
C11 C 0.96191 0.3543 0.2013 0.0
C12 C 0.01928 0.38234 0.20589 0.0
N13 N 0.99263 0.41261 0.20279 0.0
O14 O 0.07528 0.32308 0.2292 0.0
H15 H 0.93787 0.33294 0.1982 0.0
H16 H 0.0512 0.38689 0.20919 0.0
O17 O 0.04909 0.30081 0.15888 0.0
C18 C 0.07471 0.32415 0.2638 0.0
O19 O 0.04529 0.30556 0.28036 0.0
N20 N 0.98329 0.26664 0.19517 0.0
C21 C 0.91974 0.21244 0.19055 0.0
C22 C 0.949 0.2137 0.16345 0.0
C23 C 0.98092 0.2409 0.16642 0.0
C24 C 0.95569 0.26468 0.22217 0.0
C25 C 0.92317 0.23861 0.21999 0.0
H26 H 0.00493 0.23923 0.14701 0.0
H27 H 0.9598 0.28279 0.24623 0.0
H28 H 0.10901 0.24925 0.18269 0.0
H29 H 0.068 0.16112 0.25497 0.0
H30 H 0.92811 0.41027 0.19618 0.0
H31 H 0.94808 0.19275 0.14106 0.0
H32 H 0.90222 0.23723 0.24226 0.0
C33 C 0.78189 0.03212 0.24232 0.0
C34 C 0.81506 0.05653 0.23999 0.0
N35 N 0.80621 0.08673 0.2172 0.0
N36 N 0.75254 0.04662 0.22064 0.0
C37 C 0.76805 0.08022 0.20607 0.0
H38 H 0.77961 0.00498 0.25808 0.0
Co39 Co 0.70331 0.02242 0.21103 0.0
C40 C 0.67951 0.05455 0.13787 0.0
O41 O 0.6416 0.05799 0.14701 0.0
N42 N 0.65359 0.99768 0.20118 0.0
C43 C 0.60595 0.95959 0.1761 0.0
C44 C 0.64629 0.96834 0.1767 0.0
C45 C 0.61701 0.00642 0.21482 0.0
N46 N 0.58772 0.98363 0.20006 0.0
O47 O 0.67645 0.06954 0.22886 0.0
H48 H 0.66855 0.95515 0.1592 0.0
H49 H 0.61141 0.02987 0.23431 0.0
O50 O 0.70528 0.04209 0.16108 0.0
C51 C 0.67716 0.06827 0.26353 0.0
O52 O 0.69477 0.03746 0.27899 0.0
N53 N 0.7304 0.97575 0.19818 0.0
C54 C 0.7805 0.90921 0.19595 0.0
C55 C 0.78332 0.93926 0.16953 0.0
C56 C 0.75794 0.97255 0.17115 0.0
C57 C 0.72604 0.94603 0.22303 0.0
C58 C 0.75066 0.91237 0.22233 0.0
H59 H 0.76239 0.99677 0.15227 0.0
H60 H 0.70492 0.94975 0.2449 0.0
H61 H 0.7521 0.09889 0.18687 0.0
H62 H 0.84354 0.05241 0.25387 0.0
H63 H 0.59083 0.9389 0.15797 0.0
H64 H 0.80632 0.93803 0.14898 0.0
H65 H 0.74823 0.89052 0.24383 0.0
C66 C 0.96645 0.77453 0.24416 0.0
C67 C 0.9402 0.80612 0.24556 0.0
N68 N 0.90675 0.79609 0.22694 0.0
N69 N 0.95009 0.74487 0.22401 0.0
C70 C 0.91301 0.75839 0.21509 0.0
H71 H 0.99587 0.77388 0.25664 0.0
Co72 Co 0.97425 0.6962 0.21119 0.0
C73 C 0.94386 0.72655 0.13711 0.0
O74 O 0.94572 0.76439 0.14665 0.0
N75 N 0.99812 0.6478 0.19835 0.0
C76 C 0.02726 0.60129 0.16456 0.0
C77 C 0.01801 0.64115 0.16723 0.0
C78 C 0.99609 0.61156 0.21438 0.0
N79 N 0.01356 0.5826 0.1943 0.0
O80 O 0.92687 0.66815 0.22794 0.0
H81 H 0.02351 0.66347 0.14669 0.0
H82 H 0.98073 0.60614 0.23958 0.0
O83 O 0.95345 0.69947 0.16026 0.0
C84 C 0.92928 0.66642 0.2626 0.0
O85 O 0.9607 0.68307 0.27832 0.0
N86 N 0.02258 0.72285 0.20077 0.0
C87 C 0.09118 0.77023 0.20619 0.0
C88 C 0.06875 0.769 0.17386 0.0
C89 C 0.03447 0.74475 0.17156 0.0
C90 C 0.04652 0.72063 0.23082 0.0
C91 C 0.08062 0.74455 0.23437 0.0
H92 H 0.01761 0.74467 0.14669 0.0
H93 H 0.03723 0.70237 0.25341 0.0
H94 H 0.89212 0.74185 0.19816 0.0
H95 H 0.94566 0.83469 0.25855 0.0
H96 H 0.04041 0.58691 0.14124 0.0
H97 H 0.0764 0.78813 0.15129 0.0
H98 H 0.09758 0.74425 0.25953 0.0
C99 C 0.21952 0.96503 0.22971 0.0
C100 C 0.18904 0.93783 0.23448 0.0
N101 N 0.20226 0.90147 0.22428 0.0
N102 N 0.25176 0.94625 0.2157 0.0
C103 C 0.24083 0.90722 0.21432 0.0
H104 H 0.21798 0.99663 0.23585 0.0
Co105 Co 0.30179 0.96933 0.20419 0.0
C106 C 0.27672 0.93043 0.13196 0.0
O107 O 0.2402 0.92176 0.14245 0.0
N108 N 0.35181 0.99182 0.19346 0.0
C109 C 0.40138 0.02238 0.16438 0.0
C110 C 0.36077 0.01477 0.16454 0.0
C111 C 0.38741 0.98601 0.21048 0.0
N112 N 0.41803 0.00387 0.1931 0.0
O113 O 0.32831 0.92247 0.22353 0.0
H114 H 0.33933 0.02423 0.14412 0.0
H115 H 0.39124 0.96815 0.23461 0.0
O116 O 0.30115 0.94813 0.1537 0.0
C117 C 0.32781 0.92482 0.25816 0.0
O118 O 0.31019 0.95603 0.27277 0.0
N119 N 0.27616 0.01705 0.18985 0.0
C120 C 0.22954 0.08628 0.18989 0.0
C121 C 0.22169 0.0555 0.1649 0.0
C122 C 0.24566 0.02105 0.16512 0.0
C123 C 0.28612 0.04812 0.21213 0.0
C124 C 0.26391 0.08338 0.21189 0.0
H125 H 0.23713 0.99658 0.1478 0.0
H126 H 0.31001 0.04456 0.23189 0.0
H127 H 0.26067 0.88367 0.20529 0.0
H128 H 0.159 0.94458 0.24371 0.0
H129 H 0.41774 0.03836 0.1437 0.0
H130 H 0.19547 0.05659 0.14737 0.0
H131 H 0.2719 0.10701 0.23072 0.0
C132 C 0.55586 0.2763 0.37151 0.0
C133 C 0.57949 0.30932 0.37738 0.0
N134 N 0.59977 0.30396 0.40862 0.0
N135 N 0.56106 0.25029 0.39902 0.0
C136 C 0.58855 0.26773 0.42112 0.0
H137 H 0.53566 0.27171 0.34881 0.0
Co138 Co 0.53166 0.20338 0.40238 0.0
C139 C 0.52333 0.18706 0.48157 0.0
O140 O 0.48564 0.17792 0.47511 0.0
N141 N 0.50111 0.15492 0.40452 0.0
C142 C 0.45209 0.10972 0.40945 0.0
C143 C 0.46095 0.14971 0.4081 0.0
C144 C 0.51556 0.11704 0.4031 0.0
N145 N 0.48641 0.08897 0.40571 0.0
O146 O 0.57827 0.17365 0.38764 0.0
H147 H 0.43906 0.1731 0.4119 0.0
H148 H 0.54702 0.10995 0.40045 0.0
O149 O 0.54583 0.19857 0.45543 0.0
C150 C 0.57753 0.17215 0.35298 0.0
O151 O 0.54797 0.1905 0.33604 0.0
N152 N 0.48618 0.23435 0.41064 0.0
C153 C 0.42304 0.28836 0.40447 0.0
C154 C 0.44594 0.2863 0.43656 0.0
C155 C 0.4782 0.25945 0.43886 0.0
C156 C 0.46448 0.23664 0.37925 0.0
C157 C 0.43253 0.26303 0.37572 0.0
H158 H 0.4977 0.26038 0.46234 0.0
H159 H 0.47275 0.21817 0.35644 0.0
H160 H 0.5995 0.25472 0.44613 0.0
H161 H 0.58186 0.33524 0.35996 0.0
H162 H 0.42267 0.09741 0.4148 0.0
H163 H 0.44017 0.30656 0.45883 0.0
H164 H 0.41588 0.26423 0.35042 0.0
C165 C 0.72489 0.53795 0.37976 0.0
C166 C 0.69202 0.56272 0.37895 0.0
N167 N 0.69834 0.59257 0.40286 0.0
N168 N 0.75184 0.55226 0.40394 0.0
C169 C 0.73493 0.58566 0.4176 0.0
H170 H 0.72903 0.51117 0.36375 0.0
Co171 Co 0.80072 0.52834 0.41388 0.0
C172 C 0.82978 0.56784 0.48128 0.0
O173 O 0.86403 0.5762 0.46552 0.0
N174 N 0.85013 0.50361 0.42376 0.0
C175 C 0.89921 0.47027 0.45168 0.0
C176 C 0.85882 0.47883 0.45165 0.0
C177 C 0.8857 0.50944 0.40719 0.0
N178 N 0.91599 0.48991 0.4239 0.0
O179 O 0.82801 0.5736 0.39198 0.0
H180 H 0.83756 0.46921 0.47186 0.0
H181 H 0.88993 0.52888 0.38419 0.0
O182 O 0.80164 0.55151 0.46277 0.0
C183 C 0.82672 0.57092 0.35735 0.0
O184 O 0.80811 0.53994 0.34305 0.0
N185 N 0.77322 0.48356 0.43111 0.0
C186 C 0.72164 0.41908 0.44112 0.0
C187 C 0.72027 0.45224 0.46441 0.0
C188 C 0.74626 0.48447 0.45879 0.0
C189 C 0.77651 0.45062 0.40961 0.0
C190 C 0.75121 0.41781 0.41436 0.0
H191 H 0.74262 0.51107 0.47504 0.0
H192 H 0.79729 0.45087 0.38723 0.0
H193 H 0.74948 0.60495 0.43728 0.0
H194 H 0.66543 0.55907 0.36218 0.0
H195 H 0.91545 0.45315 0.47189 0.0
H196 H 0.69778 0.45421 0.48536 0.0
H197 H 0.75279 0.393 0.39552 0.0
C198 C 0.46293 0.72494 0.37479 0.0
C199 C 0.4366 0.69335 0.37303 0.0
N200 N 0.40553 0.70122 0.39509 0.0
N201 N 0.44886 0.75235 0.39827 0.0
C202 C 0.41381 0.73709 0.4103 0.0
H203 H 0.49067 0.72784 0.35996 0.0
Co204 Co 0.47387 0.80088 0.40801 0.0
C205 C 0.4666 0.80522 0.48878 0.0
O206 O 0.50581 0.80546 0.4919 0.0
N207 N 0.49927 0.85129 0.41727 0.0
C208 C 0.53681 0.90108 0.43938 0.0
C209 C 0.53165 0.8604 0.43808 0.0
C210 C 0.48668 0.88739 0.40504 0.0
N211 N 0.50824 0.91836 0.41867 0.0
O212 O 0.42789 0.82768 0.38721 0.0
H213 H 0.5509 0.83916 0.45171 0.0
H214 H 0.46268 0.89075 0.38569 0.0
O215 O 0.4497 0.80271 0.45747 0.0
C216 C 0.42962 0.82745 0.35258 0.0
O217 O 0.46049 0.80975 0.33744 0.0
N218 N 0.51973 0.77262 0.42326 0.0
C219 C 0.58478 0.72019 0.42502 0.0
C220 C 0.55161 0.71389 0.4475 0.0
C221 C 0.51899 0.74019 0.4458 0.0
C222 C 0.55205 0.77927 0.40163 0.0
C223 C 0.58517 0.75391 0.40259 0.0
H224 H 0.49203 0.73291 0.46058 0.0
H225 H 0.55113 0.80317 0.38193 0.0
H226 H 0.39432 0.75234 0.42914 0.0
H227 H 0.44028 0.66648 0.35702 0.0
H228 H 0.55964 0.91652 0.45503 0.0
H229 H 0.54956 0.68731 0.46413 0.0
H230 H 0.60993 0.75933 0.38436 0.0
C231 C 0.28214 0.4738 0.37886 0.0
C232 C 0.31421 0.44869 0.37406 0.0
N233 N 0.30374 0.41183 0.38529 0.0
N234 N 0.25161 0.45334 0.39402 0.0
C235 C 0.26505 0.41518 0.39585 0.0
H236 H 0.28161 0.50529 0.37224 0.0
Co237 Co 0.20153 0.47491 0.40715 0.0
C238 C 0.22837 0.43506 0.47853 0.0
O239 O 0.26517 0.42758 0.46813 0.0
N240 N 0.15155 0.49643 0.41952 0.0
C241 C 0.10382 0.52937 0.44901 0.0
C242 C 0.14421 0.52124 0.44764 0.0
C243 C 0.115 0.48948 0.40454 0.0
N244 N 0.08565 0.50934 0.42189 0.0
O245 O 0.1754 0.42761 0.38798 0.0
H246 H 0.16666 0.5319 0.46668 0.0
H247 H 0.10956 0.46959 0.38192 0.0
O248 O 0.20374 0.45283 0.45713 0.0
C249 C 0.17419 0.42995 0.35338 0.0
O250 O 0.19002 0.4618 0.33826 0.0
N251 N 0.22692 0.52281 0.42151 0.0
C252 C 0.27503 0.591 0.4205 0.0
C253 C 0.28181 0.56091 0.44629 0.0
C254 C 0.25719 0.52691 0.44646 0.0
C255 C 0.21773 0.55347 0.39861 0.0
C256 C 0.24096 0.58815 0.3981 0.0
H257 H 0.26502 0.50281 0.46436 0.0
H258 H 0.19395 0.54974 0.37874 0.0
H259 H 0.24698 0.39066 0.40574 0.0
H260 H 0.34356 0.45736 0.36434 0.0
H261 H 0.08865 0.54694 0.46941 0.0
H262 H 0.30777 0.56207 0.46415 0.0
H263 H 0.234 0.61126 0.3785 0.0
C264 C 0.96489 0.77711 0.8735 0.0
C265 C 0.93866 0.80865 0.87064 0.0
N266 N 0.90756 0.80193 0.893 0.0
N267 N 0.95078 0.75084 0.89795 0.0
C268 C 0.9158 0.76676 0.90944 0.0
H269 H 0.99271 0.77365 0.85888 0.0
Co270 Co 0.97583 0.70325 0.91115 0.0
C271 C 0.94059 0.68414 0.98308 0.0
O272 O 0.9338 0.6471 0.97272 0.0
N273 N 1.00132 0.65542 0.92459 0.0
C274 C 0.0361 0.61038 0.95616 0.0
C275 C 0.02639 0.65022 0.95316 0.0
C276 C 0.99671 0.6184 0.91037 0.0
N277 N 0.0171 0.59045 0.92936 0.0
O278 O 0.92907 0.67399 0.89417 0.0
H279 H 0.03591 0.6737 0.97151 0.0
H280 H 0.97732 0.61155 0.88757 0.0
O281 O 0.95563 0.70909 0.96071 0.0
C282 C 0.93147 0.6724 0.85957 0.0
O283 O 0.96324 0.68845 0.84442 0.0
N284 N 0.02234 0.73203 0.92266 0.0
C285 C 0.08791 0.78395 0.92034 0.0
C286 C 0.05814 0.78842 0.94688 0.0
C287 C 0.02529 0.76219 0.94748 0.0
C288 C 0.05198 0.72588 0.89808 0.0
C289 C 0.08498 0.75149 0.89638 0.0
H290 H 1.00111 0.76784 0.96614 0.0
H291 H 0.04842 0.70263 0.87789 0.0
H292 H 0.89651 0.75262 0.92912 0.0
H293 H 0.94269 0.8349 0.85394 0.0
H294 H 0.05503 0.59704 0.97681 0.0
H295 H 0.05918 0.81321 0.96579 0.0
H296 H 0.10636 0.7475 0.87474 0.0
C297 C 0.22115 0.97246 0.87554 0.0
C298 C 0.18915 0.9467 0.87221 0.0
N299 N 0.20004 0.91081 0.88567 0.0
N300 N 0.25203 0.95333 0.89184 0.0
C301 C 0.23893 0.91527 0.89583 0.0
H302 H 0.22133 0.00359 0.8676 0.0
Co303 Co 0.30174 0.976 0.90512 0.0
C304 C 0.27529 0.93689 0.97666 0.0
O305 O 0.23779 0.93157 0.96656 0.0
N306 N 0.3516 0.99841 0.91759 0.0
C307 C 0.40015 0.02991 0.94809 0.0
C308 C 0.35961 0.02207 0.94646 0.0
C309 C 0.3878 0.9922 0.9022 0.0
N310 N 0.41777 0.01077 0.92041 0.0
O311 O 0.32849 0.92915 0.88615 0.0
H312 H 0.33757 0.03189 0.96591 0.0
H313 H 0.39251 0.97363 0.87865 0.0
O314 O 0.3004 0.95358 0.95524 0.0
C315 C 0.32982 0.93062 0.85153 0.0
O316 O 0.31249 0.96114 0.83532 0.0
N317 N 0.27576 0.02367 0.91936 0.0
C318 C 0.23003 0.09371 0.9216 0.0
C319 C 0.2237 0.06293 0.94673 0.0
C320 C 0.2471 0.02819 0.94532 0.0
C321 C 0.28393 0.05429 0.89622 0.0
C322 C 0.26178 0.08969 0.89713 0.0
H323 H 0.23995 0.00439 0.96354 0.0
H324 H 0.30632 0.05026 0.87547 0.0
H325 H 0.25665 0.89231 0.909 0.0
H326 H 0.1596 0.95429 0.86186 0.0
H327 H 0.4158 0.04657 0.96906 0.0
H328 H 0.19902 0.06425 0.96561 0.0
H329 H 0.26795 0.11277 0.87737 0.0
C330 C 0.04545 0.22866 0.87207 0.0
C331 C 0.07205 0.19746 0.87308 0.0
N332 N 0.10039 0.20556 0.89826 0.0
N333 N 0.05651 0.25638 0.89675 0.0
C334 C 0.09033 0.24158 0.91231 0.0
H335 H 0.02043 0.23159 0.85344 0.0
Co336 Co 0.03073 0.30545 0.90074 0.0
C337 C 0.03179 0.32733 0.9793 0.0
O338 O 0.99651 0.34417 0.97457 0.0
N339 N 0.00493 0.35589 0.90253 0.0
C340 C 0.96544 0.40801 0.88965 0.0
C341 C 0.96951 0.36722 0.88736 0.0
C342 C 0.02193 0.39082 0.91348 0.0
N343 N 0.99832 0.42259 0.90616 0.0
O344 O 0.078 0.3318 0.8831 0.0
H345 H 0.94825 0.34805 0.87377 0.0
H346 H 0.05166 0.39307 0.92545 0.0
O347 O 0.04914 0.31024 0.95246 0.0
C348 C 0.07682 0.33319 0.84853 0.0
O349 O 0.04639 0.31585 0.83185 0.0
N350 N 0.98336 0.27813 0.91367 0.0
C351 C 0.91754 0.22638 0.91764 0.0
C352 C 0.94369 0.23115 0.94734 0.0
C353 C 0.97678 0.25694 0.9447 0.0
C354 C 0.95863 0.27286 0.88445 0.0
C355 C 0.92517 0.24795 0.88605 0.0
H356 H 0.99824 0.25741 0.96663 0.0
H357 H 0.96649 0.28613 0.85878 0.0
H358 H 0.10825 0.25776 0.93206 0.0
H359 H 0.07119 0.17116 0.85593 0.0
H360 H 0.94071 0.42577 0.87928 0.0
H361 H 0.93962 0.21372 0.97174 0.0
H362 H 0.90705 0.24347 0.86187 0.0
C363 C 0.78502 0.03593 0.88379 0.0
C364 C 0.81702 0.06181 0.88244 0.0
N365 N 0.80555 0.09697 0.89676 0.0
N366 N 0.75377 0.0542 0.90002 0.0
C367 C 0.76672 0.09202 0.90613 0.0
H368 H 0.78499 0.00536 0.87419 0.0
Co369 Co 0.7039 0.03059 0.91018 0.0
C370 C 0.72783 0.06361 0.98583 0.0
O371 O 0.7652 0.07177 0.97753 0.0
N372 N 0.65384 0.00711 0.91984 0.0
C373 C 0.60584 0.9716 0.9465 0.0
C374 C 0.64619 0.98031 0.9463 0.0
C375 C 0.61746 0.01466 0.90473 0.0
N376 N 0.58794 0.99327 0.92036 0.0
O377 O 0.67722 0.07847 0.89288 0.0
H378 H 0.66833 0.96879 0.96517 0.0
H379 H 0.61222 0.03612 0.88335 0.0
O380 O 0.70406 0.04912 0.96159 0.0
C381 C 0.67674 0.07825 0.85816 0.0
O382 O 0.6947 0.04842 0.84163 0.0
N383 N 0.72998 0.98212 0.92215 0.0
C384 C 0.77854 0.91422 0.91843 0.0
C385 C 0.78451 0.94276 0.94585 0.0
C386 C 0.75973 0.97656 0.94736 0.0
C387 C 0.72176 0.95301 0.89727 0.0
C388 C 0.74516 0.91851 0.89536 0.0
H389 H 0.76696 0.99932 0.96683 0.0
H390 H 0.69845 0.95783 0.87716 0.0
H391 H 0.74877 0.11471 0.91928 0.0
H392 H 0.84671 0.05513 0.8723 0.0
H393 H 0.59048 0.95252 0.96561 0.0
H394 H 0.80988 0.94055 0.9643 0.0
H395 H 0.7386 0.89656 0.87454 0.0
C396 C 0.46412 0.72662 0.74249 0.0
C397 C 0.43921 0.69375 0.74218 0.0
N398 N 0.40979 0.70021 0.71761 0.0
N399 N 0.45038 0.75348 0.7182 0.0
C400 C 0.41692 0.7368 0.70382 0.0
H401 H 0.49101 0.73046 0.75879 0.0
Co402 Co 0.47541 0.80104 0.70624 0.0
C403 C 0.43144 0.82409 0.63861 0.0
O404 O 0.42037 0.85825 0.65305 0.0
N405 N 0.50077 0.84889 0.69398 0.0
C406 C 0.52996 0.89671 0.66183 0.0
C407 C 0.5198 0.85688 0.66269 0.0
C408 C 0.5006 0.88401 0.71202 0.0
N409 N 0.51787 0.91384 0.69295 0.0
O410 O 0.43069 0.83023 0.72671 0.0
H411 H 0.52388 0.8356 0.64093 0.0
H412 H 0.48654 0.88809 0.73804 0.0
O413 O 0.45144 0.79919 0.65776 0.0
C414 C 0.43281 0.83046 0.76135 0.0
O415 O 0.46363 0.81259 0.77679 0.0
N416 N 0.51989 0.77197 0.69005 0.0
C417 C 0.58453 0.72 0.68114 0.0
C418 C 0.54978 0.7161 0.65963 0.0
C419 C 0.51764 0.7424 0.66456 0.0
C420 C 0.55401 0.77725 0.71013 0.0
C421 C 0.58683 0.75172 0.70596 0.0
H422 H 0.49006 0.73711 0.64974 0.0
H423 H 0.55483 0.79996 0.73102 0.0
H424 H 0.39877 0.75058 0.68284 0.0
H425 H 0.4425 0.66719 0.75867 0.0
H426 H 0.54244 0.91225 0.63884 0.0
H427 H 0.54669 0.69165 0.64052 0.0
H428 H 0.61258 0.7551 0.72384 0.0
C429 C 0.28703 0.47786 0.72899 0.0
C430 C 0.3184 0.45188 0.73433 0.0
N431 N 0.30558 0.41473 0.7262 0.0
N432 N 0.25466 0.45749 0.71646 0.0
C433 C 0.26661 0.41877 0.71645 0.0
H434 H 0.28836 0.50978 0.73336 0.0
Co435 Co 0.20415 0.47923 0.70404 0.0
C436 C 0.22808 0.43618 0.63392 0.0
O437 O 0.26514 0.42933 0.64448 0.0
N438 N 0.15413 0.50087 0.69265 0.0
C439 C 0.10267 0.5258 0.66152 0.0
C440 C 0.14332 0.51868 0.66133 0.0
C441 C 0.11987 0.49848 0.71181 0.0
N442 N 0.08779 0.51259 0.69315 0.0
O443 O 0.17829 0.43295 0.72483 0.0
H444 H 0.16345 0.52472 0.63919 0.0
H445 H 0.1185 0.48598 0.73869 0.0
O446 O 0.2039 0.45496 0.65473 0.0
C447 C 0.179 0.43468 0.75944 0.0
O448 O 0.19693 0.4655 0.77472 0.0
N449 N 0.22901 0.52607 0.68759 0.0
C450 C 0.2803 0.59148 0.68469 0.0
C451 C 0.28112 0.56224 0.65749 0.0
C452 C 0.25506 0.52956 0.65939 0.0
C453 C 0.22477 0.55653 0.71183 0.0
C454 C 0.25019 0.5897 0.71087 0.0
H455 H 0.25847 0.50611 0.63982 0.0
H456 H 0.20413 0.55319 0.73411 0.0
H457 H 0.24764 0.39417 0.70772 0.0
H458 H 0.34881 0.46001 0.74197 0.0
H459 H 0.08512 0.53776 0.63924 0.0
H460 H 0.30362 0.56317 0.63647 0.0
H461 H 0.24866 0.61179 0.7323 0.0
C462 C 0.5344 0.28006 0.74179 0.0
C463 C 0.55751 0.31376 0.73964 0.0
N464 N 0.58713 0.30719 0.71571 0.0
N465 N 0.54854 0.25219 0.71879 0.0
C466 C 0.58103 0.26941 0.70337 0.0
H467 H 0.50913 0.27598 0.75958 0.0
Co468 Co 0.525 0.20178 0.71435 0.0
C469 C 0.52224 0.18288 0.6358 0.0
O470 O 0.486 0.16897 0.64154 0.0
N471 N 0.5008 0.14984 0.7113 0.0
C472 C 0.458 0.09848 0.70792 0.0
C473 C 0.46148 0.13925 0.70916 0.0
C474 C 0.52037 0.11423 0.71127 0.0
N475 N 0.49505 0.08264 0.70928 0.0
O476 O 0.57404 0.17772 0.73252 0.0
H477 H 0.43624 0.15926 0.70687 0.0
H478 H 0.55266 0.11139 0.71308 0.0
O479 O 0.54245 0.19804 0.66231 0.0
C480 C 0.57284 0.17805 0.76718 0.0
O481 O 0.54156 0.19482 0.78248 0.0
N482 N 0.4765 0.22726 0.70235 0.0
C483 C 0.41326 0.28161 0.70602 0.0
C484 C 0.43793 0.28031 0.67538 0.0
C485 C 0.47 0.25311 0.67426 0.0
C486 C 0.45186 0.22762 0.73167 0.0
C487 C 0.41953 0.25374 0.73364 0.0
H488 H 0.49139 0.25547 0.65255 0.0
H489 H 0.45893 0.20897 0.75477 0.0
H490 H 0.60054 0.25399 0.6847 0.0
H491 H 0.55313 0.34092 0.7551 0.0
H492 H 0.43025 0.08178 0.70517 0.0
H493 H 0.43443 0.30213 0.65394 0.0
H494 H 0.40119 0.25394 0.75774 0.0
C495 C 0.72494 0.54563 0.74098 0.0
C496 C 0.69199 0.56984 0.73663 0.0
N497 N 0.69913 0.59514 0.7091 0.0
N498 N 0.75264 0.55525 0.71605 0.0
C499 C 0.73623 0.5858 0.69707 0.0
H500 H 0.7285 0.52233 0.76102 0.0
Co501 Co 0.80127 0.52858 0.71215 0.0
C502 C 0.82353 0.53091 0.63414 0.0
O503 O 0.83791 0.49458 0.63743 0.0
N504 N 0.85158 0.50116 0.70957 0.0
C505 C 0.90033 0.45546 0.70638 0.0
C506 C 0.85963 0.46157 0.706 0.0
C507 C 0.88853 0.51823 0.7117 0.0
N508 N 0.91849 0.49109 0.71042 0.0
O509 O 0.82825 0.57472 0.73221 0.0
H510 H 0.83796 0.43807 0.70152 0.0
H511 H 0.89373 0.55008 0.71395 0.0
O512 O 0.80751 0.54831 0.66145 0.0
C513 C 0.82919 0.57276 0.76682 0.0
O514 O 0.81133 0.54223 0.78231 0.0
N515 N 0.77272 0.48291 0.69764 0.0
C516 C 0.71769 0.41975 0.69549 0.0
C517 C 0.72047 0.44667 0.66635 0.0
C518 C 0.74826 0.47837 0.66802 0.0
C519 C 0.7701 0.4571 0.72599 0.0
C520 C 0.74416 0.4246 0.72487 0.0
H521 H 0.7478 0.5007 0.64696 0.0
H522 H 0.78785 0.4625 0.75018 0.0
H523 H 0.75083 0.60049 0.67464 0.0
H524 H 0.665 0.56932 0.75281 0.0
H525 H 0.91534 0.4271 0.70238 0.0
H526 H 0.69963 0.44499 0.64375 0.0
H527 H 0.74327 0.40468 0.74796 0.0
C528 C 0.0474 0.28539 1.03405 0.0
C529 C 0.04667 0.32321 1.01717 0.0
C530 C 0.04692 0.28191 0.07216 0.0
C531 C 0.04638 0.31611 0.09449 0.0
H532 H 0.04447 0.25848 1.01788 0.0
H533 H 0.04324 0.25251 0.08402 0.0
S534 S 0.0521 0.42131 0.06389 0.0
N535 N 0.05093 0.39506 1.02594 0.0
N536 N 0.05069 0.38838 0.09712 0.0
C537 C 0.04986 0.35367 0.07793 0.0
C538 C 0.04989 0.35726 1.03938 0.0
C539 C 0.67521 0.0573 1.03448 0.0
C540 C 0.71535 0.06505 1.0247 0.0
C541 C 0.66359 0.05542 0.07104 0.0
C542 C 0.69169 0.06057 0.09945 0.0
H543 H 0.6526 0.05197 1.01377 0.0
H544 H 0.63253 0.04852 0.07703 0.0
S545 S 0.80003 0.0841 0.08905 0.0
N546 N 0.78285 0.08017 1.04716 0.0
N547 N 0.76101 0.07579 0.11525 0.0
C548 C 0.73164 0.06931 0.09013 0.0
C549 C 0.74343 0.0718 1.053 0.0
C550 C 0.94026 0.66574 1.0492 0.0
C551 C 0.93679 0.69524 1.02209 0.0
C552 C 0.94117 0.67589 0.08623 0.0
C553 C 0.93821 0.71598 0.09789 0.0
H554 H 0.94385 0.63459 1.04179 0.0
H555 H 0.94529 0.6521 0.10579 0.0
S556 S 0.92398 0.80417 1.03761 0.0
N557 N 0.92734 0.76588 1.00954 0.0
N558 N 0.92835 0.78511 0.07865 0.0
C559 C 0.93277 0.74557 0.07095 0.0
C560 C 0.93229 0.7352 1.03327 0.0
C561 C 0.3066 0.95825 1.03597 0.0
C562 C 0.28529 0.92966 1.0153 0.0
C563 C 0.30682 0.95667 0.07416 0.0
C564 C 0.28571 0.92649 0.09274 0.0
H565 H 0.32054 0.98357 1.02276 0.0
H566 H 0.32101 0.98082 0.0891 0.0
S567 S 0.2324 0.84043 1.05067 0.0
N568 N 0.24786 0.86733 1.01602 0.0
N569 N 0.24833 0.86431 0.08723 0.0
C570 C 0.2676 0.89592 0.07212 0.0
C571 C 0.26737 0.89752 1.03355 0.0
C572 C 0.52825 0.14894 0.53884 0.0
C573 C 0.53734 0.1842 0.51986 0.0
C574 C 0.52791 0.14797 0.57679 0.0
C575 C 0.5365 0.18226 0.59765 0.0
H576 H 0.51834 0.12254 0.52419 0.0
H577 H 0.51787 0.12078 0.58991 0.0
S578 S 0.56622 0.28127 0.56136 0.0
N579 N 0.55863 0.25356 0.52481 0.0
N580 N 0.55798 0.25175 0.59642 0.0
C581 C 0.549 0.21691 0.5792 0.0
C582 C 0.54936 0.2179 0.54021 0.0
C583 C 0.86297 0.5586 0.54176 0.0
C584 C 0.82779 0.56678 0.52162 0.0
C585 C 0.86141 0.54959 0.57886 0.0
C586 C 0.82485 0.54957 0.59771 0.0
H587 H 0.89173 0.55651 0.52836 0.0
H588 H 0.88894 0.54091 0.59263 0.0
S589 S 0.72465 0.57308 0.55878 0.0
N590 N 0.75549 0.57688 0.5241 0.0
N591 N 0.75296 0.5613 0.59414 0.0
C592 C 0.7898 0.56033 0.57862 0.0
C593 C 0.79118 0.56856 0.54051 0.0
C594 C 0.43901 0.77994 0.58405 0.0
C595 C 0.429 0.81766 0.59857 0.0
C596 C 0.44662 0.77494 0.54699 0.0
C597 C 0.44369 0.80719 0.52277 0.0
H598 H 0.44351 0.7545 0.60172 0.0
H599 H 0.45774 0.74628 0.53765 0.0
S600 S 0.41353 0.91078 0.54533 0.0
N601 N 0.41253 0.88701 0.5845 0.0
N602 N 0.42671 0.87711 0.5149 0.0
C603 C 0.43034 0.84412 0.53613 0.0
C604 C 0.42284 0.84944 0.57399 0.0
C605 C 0.19806 0.45992 0.57493 0.0
C606 C 0.21857 0.43031 0.59496 0.0
C607 C 0.19827 0.45968 0.53676 0.0
C608 C 0.21905 0.42985 0.5175 0.0
H609 H 0.18442 0.48501 0.58866 0.0
H610 H 0.18469 0.48455 0.52243 0.0
S611 S 0.27001 0.34141 0.55733 0.0
N612 N 0.25474 0.36737 0.59267 0.0
N613 N 0.25508 0.36686 0.52138 0.0
C614 C 0.23635 0.39829 0.53731 0.0
C615 C 0.23611 0.39853 0.57591 0.0
C616 C 0.18024 0.1385 0.16802 0.0
C617 C 0.19912 0.11797 0.19679 0.0
C618 C 0.14898 0.1659 0.17444 0.0
C619 C 0.13532 0.1732 0.20976 0.0
H620 H 0.18926 0.13288 0.14038 0.0
H621 H 0.13433 0.18024 0.15163 0.0
S622 S 0.17552 0.12874 0.29449 0.0
N623 N 0.20188 0.10762 0.26204 0.0
N624 N 0.14458 0.15995 0.27386 0.0
C625 C 0.15484 0.15398 0.23872 0.0
C626 C 0.18634 0.12614 0.23231 0.0
C627 C 0.87346 0.10964 0.1991 0.0
C628 C 0.83291 0.11823 0.20621 0.0
C629 C 0.90094 0.14025 0.19155 0.0
C630 C 0.88887 0.18055 0.19135 0.0
H631 H 0.88411 0.07905 0.20009 0.0
H632 H 0.93223 0.1325 0.18769 0.0
S633 S 0.78572 0.21864 0.2062 0.0
N634 N 0.78163 0.16963 0.21078 0.0
N635 N 0.8334 0.22733 0.19685 0.0
C636 C 0.84812 0.18941 0.19702 0.0
C637 C 0.82007 0.15819 0.20432 0.0
C638 C 0.85272 0.89015 0.20028 0.0
C639 C 0.81219 0.87824 0.19966 0.0
C640 C 0.8833 0.86299 0.20879 0.0
C641 C 0.87464 0.82279 0.21686 0.0
H642 H 0.86084 0.92111 0.19553 0.0
H643 H 0.91404 0.87364 0.2093 0.0
S644 S 0.77366 0.77583 0.21677 0.0
N645 N 0.76507 0.82304 0.20599 0.0
N646 N 0.82282 0.77194 0.22234 0.0
C647 C 0.83442 0.81006 0.21513 0.0
C648 C 0.80313 0.83783 0.20656 0.0
C649 C 0.14664 0.85923 0.24598 0.0
C650 C 0.17814 0.8656 0.22144 0.0
C651 C 0.11955 0.82748 0.24146 0.0
C652 C 0.12268 0.80097 0.21204 0.0
H653 H 0.14246 0.87944 0.26856 0.0
H654 H 0.0951 0.82447 0.26047 0.0
S655 S 0.20129 0.80177 0.14183 0.0
N656 N 0.21206 0.84077 0.16767 0.0
N657 N 0.16095 0.78103 0.15952 0.0
C658 C 0.15472 0.80587 0.18806 0.0
C659 C 0.1826 0.83809 0.19274 0.0
C660 C 0.69787 0.3478 0.43913 0.0
C661 C 0.68891 0.38897 0.44049 0.0
C662 C 0.66782 0.31944 0.43136 0.0
C663 C 0.62817 0.33155 0.42409 0.0
H664 H 0.7286 0.33769 0.44255 0.0
H665 H 0.67604 0.28824 0.42868 0.0
S666 S 0.58843 0.43493 0.42701 0.0
N667 N 0.63683 0.43987 0.43621 0.0
N668 N 0.5807 0.38647 0.42154 0.0
C669 C 0.61843 0.37219 0.42734 0.0
C670 C 0.64873 0.40097 0.43559 0.0
C671 C 0.62412 0.67458 0.38558 0.0
C672 C 0.61581 0.68886 0.42056 0.0
C673 C 0.6515 0.64353 0.38012 0.0
C674 C 0.67188 0.62573 0.40936 0.0
H675 H 0.60862 0.68689 0.36222 0.0
H676 H 0.65675 0.63326 0.35275 0.0
S677 S 0.66129 0.65235 0.50626 0.0
N678 N 0.63045 0.68323 0.48491 0.0
N679 N 0.68213 0.6245 0.47455 0.0
C680 C 0.66438 0.63999 0.44447 0.0
C681 C 0.63616 0.67154 0.4501 0.0
C682 C 0.32387 0.64369 0.44213 0.0
C683 C 0.3062 0.62187 0.4135 0.0
C684 C 0.35549 0.6707 0.43584 0.0
C685 C 0.37084 0.67628 0.40082 0.0
H686 H 0.31347 0.63953 0.46958 0.0
H687 H 0.36891 0.68631 0.45862 0.0
S688 S 0.33443 0.6274 0.31655 0.0
N689 N 0.30636 0.60812 0.34876 0.0
N690 N 0.36471 0.65951 0.33705 0.0
C691 C 0.3528 0.6554 0.37195 0.0
C692 C 0.32077 0.62805 0.37826 0.0
C693 C 0.36316 0.3743 0.36493 0.0
C694 C 0.33072 0.37818 0.38892 0.0
C695 C 0.3927 0.34506 0.37009 0.0
C696 C 0.39111 0.3186 0.39956 0.0
H697 H 0.36599 0.39436 0.34212 0.0
H698 H 0.41742 0.34359 0.35121 0.0
S699 S 0.3114 0.3131 0.46845 0.0
N700 N 0.29797 0.35096 0.44235 0.0
N701 N 0.35371 0.29584 0.45155 0.0
C702 C 0.35848 0.32109 0.42313 0.0
C703 C 0.32812 0.35078 0.41785 0.0
C704 C 0.85763 0.83318 0.93353 0.0
C705 C 0.87337 0.82764 0.89862 0.0
C706 C 0.82639 0.86059 0.93977 0.0
C707 C 0.80948 0.88308 0.91126 0.0
H708 H 0.87039 0.81714 0.95631 0.0
H709 H 0.81565 0.86447 0.96715 0.0
S710 S 0.83895 0.87812 0.81456 0.0
N711 N 0.86828 0.84522 0.83498 0.0
N712 N 0.81091 0.89759 0.84671 0.0
C713 C 0.82449 0.87708 0.87612 0.0
C714 C 0.85608 0.84918 0.86981 0.0
C715 C 0.13304 0.8866 0.90395 0.0
C716 C 0.1732 0.87834 0.89476 0.0
C717 C 0.1063 0.85606 0.91339 0.0
C718 C 0.1185 0.81579 0.91424 0.0
H719 H 0.12204 0.91707 0.90409 0.0
H720 H 0.07546 0.86407 0.91912 0.0
S721 S 0.22079 0.77794 0.8941 0.0
N722 N 0.22401 0.82673 0.88768 0.0
N723 N 0.17405 0.76933 0.90666 0.0
C724 C 0.15881 0.80704 0.90595 0.0
C725 C 0.18607 0.83825 0.89605 0.0
C726 C 0.18576 0.13505 0.88176 0.0
C727 C 0.20005 0.12643 0.91685 0.0
C728 C 0.15436 0.16207 0.87603 0.0
C729 C 0.13569 0.18169 0.90505 0.0
H730 H 0.19777 0.11956 0.85846 0.0
H731 H 0.14399 0.16704 0.84855 0.0
S732 S 0.16336 0.17216 1.00204 0.0
N733 N 0.19473 0.14182 0.98105 0.0
N734 N 0.13484 0.19228 0.97009 0.0
C735 C 0.15053 0.17473 0.9402 0.0
C736 C 0.18274 0.14705 0.94614 0.0
C737 C 0.87052 0.12335 0.91846 0.0
C738 C 0.83147 0.1303 0.90499 0.0
C739 C 0.89738 0.15497 0.92457 0.0
C740 C 0.88632 0.1947 0.91706 0.0
H741 H 0.88052 0.0931 0.92386 0.0
H742 H 0.92763 0.14806 0.93367 0.0
S743 S 0.78684 0.22901 0.88342 0.0
N744 N 0.78238 0.17985 0.88599 0.0
N745 N 0.83303 0.23953 0.89724 0.0
C746 C 0.84691 0.2022 0.90475 0.0
C747 C 0.8194 0.16995 0.89886 0.0
C748 C 0.33866 0.68732 0.70228 0.0
C749 C 0.37814 0.67317 0.70718 0.0
C750 C 0.30705 0.66095 0.69394 0.0
C751 C 0.31415 0.61978 0.68944 0.0
H752 H 0.33207 0.71877 0.70604 0.0
H753 H 0.27681 0.67269 0.69147 0.0
S754 S 0.41256 0.56827 0.69752 0.0
N755 N 0.4229 0.61586 0.70538 0.0
N756 N 0.36364 0.56624 0.68989 0.0
C757 C 0.35371 0.60552 0.69327 0.0
C758 C 0.38569 0.63224 0.70211 0.0
C759 C 0.327 0.35478 0.69217 0.0
C760 C 0.33043 0.37973 0.72282 0.0
C761 C 0.35396 0.32306 0.68659 0.0
C762 C 0.38475 0.31498 0.7118 0.0
H763 H 0.30413 0.36058 0.67184 0.0
H764 H 0.35073 0.30478 0.6625 0.0
S765 S 0.4058 0.37088 0.79675 0.0
N766 N 0.36629 0.39356 0.77892 0.0
N767 N 0.41712 0.3344 0.76843 0.0
C768 C 0.38805 0.33938 0.74275 0.0
C769 C 0.36084 0.37162 0.74827 0.0
C770 C 0.63333 0.35972 0.73711 0.0
C771 C 0.62031 0.33408 0.70916 0.0
C772 C 0.6641 0.38735 0.73187 0.0
C773 C 0.6842 0.39032 0.69862 0.0
H774 H 0.61977 0.35841 0.7636 0.0
H775 H 0.67204 0.40679 0.75432 0.0
S776 S 0.66168 0.33042 0.61623 0.0
N777 N 0.62919 0.31404 0.64641 0.0
N778 N 0.68876 0.3652 0.63695 0.0
C779 C 0.67168 0.36493 0.67021 0.0
C780 C 0.63963 0.33682 0.67547 0.0
C781 C 0.60273 0.64795 0.68722 0.0
C782 C 0.61522 0.68775 0.68205 0.0
C783 C 0.63058 0.61757 0.6944 0.0
C784 C 0.67202 0.62566 0.69635 0.0
H785 H 0.57102 0.64053 0.68765 0.0
H786 H 0.61956 0.58763 0.69957 0.0
S787 S 0.72058 0.72407 0.68143 0.0
N788 N 0.67202 0.73313 0.67666 0.0
N789 N 0.72447 0.67576 0.69027 0.0
C790 C 0.68516 0.66482 0.68925 0.0
C791 C 0.65671 0.69594 0.68219 0.0
C792 C 0.12615 0.37224 0.34565 0.0
C793 C 0.15239 0.40028 0.33021 0.0
C794 C 0.10226 0.34701 0.32387 0.0
C795 C 0.10362 0.34855 0.28568 0.0
H796 H 0.12303 0.37057 0.37477 0.0
H797 H 0.08185 0.32669 0.33728 0.0
S798 S 0.16976 0.41446 0.2316 0.0
N799 N 0.18019 0.42627 0.27404 0.0
N800 N 0.13526 0.37903 0.2335 0.0
C801 C 0.13091 0.37531 0.26989 0.0
C802 C 0.15522 0.40109 0.29203 0.0
C803 C 0.62685 0.12363 0.27119 0.0
C804 C 0.65532 0.09762 0.28656 0.0
C805 C 0.6029 0.14827 0.29299 0.0
C806 C 0.60631 0.14809 0.33117 0.0
H807 H 0.62206 0.12411 0.24215 0.0
H808 H 0.58081 0.16701 0.27959 0.0
S809 S 0.67896 0.08814 0.38488 0.0
N810 N 0.68767 0.07533 0.34249 0.0
N811 N 0.64235 0.12139 0.38314 0.0
C812 C 0.63577 0.12344 0.34684 0.0
C813 C 0.66027 0.09831 0.32465 0.0
C814 C 0.88067 0.6224 0.34695 0.0
C815 C 0.84947 0.59843 0.33309 0.0
C816 C 0.90536 0.64483 0.32386 0.0
C817 C 0.89999 0.64448 0.28581 0.0
H818 H 0.88702 0.62287 0.37575 0.0
H819 H 0.92951 0.66199 0.33616 0.0
S820 S 0.8202 0.58938 0.23592 0.0
N821 N 0.81274 0.57782 0.27879 0.0
N822 N 0.85932 0.61981 0.23573 0.0
C823 C 0.86794 0.62185 0.2717 0.0
C824 C 0.84272 0.59892 0.29521 0.0
C825 C 0.40573 0.84968 0.29118 0.0
C826 C 0.40054 0.84963 0.32913 0.0
C827 C 0.38108 0.87259 0.26816 0.0
C828 C 0.35023 0.89659 0.28207 0.0
H829 H 0.42972 0.83257 0.27899 0.0
H830 H 0.38723 0.87255 0.23941 0.0
S831 S 0.3213 0.90428 0.37894 0.0
N832 N 0.36023 0.87371 0.37913 0.0
N833 N 0.31381 0.91656 0.33615 0.0
C834 C 0.34361 0.89559 0.31981 0.0
C835 C 0.36873 0.87221 0.34324 0.0
C836 C 0.87708 0.62072 0.8506 0.0
C837 C 0.90203 0.6505 0.83618 0.0
C838 C 0.85289 0.59668 0.82795 0.0
C839 C 0.85246 0.60145 0.7899 0.0
H840 H 0.87729 0.61491 0.87944 0.0
H841 H 0.83508 0.57346 0.8405 0.0
S842 S 0.90919 0.67814 0.73885 0.0
N843 N 0.92236 0.68564 0.7815 0.0
N844 N 0.8772 0.64038 0.7393 0.0
C845 C 0.87593 0.63231 0.77532 0.0
C846 C 0.90059 0.65679 0.79833 0.0
C847 C 0.37895 0.88248 0.7693 0.0
C848 C 0.40381 0.85285 0.78438 0.0
C849 C 0.35444 0.90647 0.79124 0.0
C850 C 0.35355 0.90189 0.82927 0.0
H851 H 0.37929 0.88809 0.74042 0.0
H852 H 0.33665 0.92947 0.77812 0.0
S853 S 0.41001 0.82581 0.88199 0.0
N854 N 0.42379 0.81821 0.83971 0.0
N855 N 0.37791 0.86342 0.88064 0.0
C856 C 0.37706 0.87131 0.84457 0.0
C857 C 0.40211 0.84685 0.82224 0.0
C858 C 0.10352 0.35559 0.78858 0.0
C859 C 0.10639 0.35626 0.82675 0.0
C860 C 0.1281 0.37974 0.76691 0.0
C861 C 0.15663 0.40573 0.78244 0.0
H862 H 0.08132 0.33695 0.77511 0.0
H863 H 0.12367 0.37899 0.73784 0.0
S864 S 0.1791 0.41612 0.88087 0.0
N865 N 0.14212 0.38321 0.87894 0.0
N866 N 0.18852 0.42836 0.8385 0.0
C867 C 0.1611 0.40542 0.82053 0.0
C868 C 0.13601 0.38077 0.84258 0.0
C869 C 0.62883 0.1281 0.77549 0.0
C870 C 0.60274 0.15655 0.79047 0.0
C871 C 0.65349 0.10412 0.79766 0.0
C872 C 0.65325 0.10745 0.83584 0.0
H873 H 0.62925 0.12324 0.7465 0.0
H874 H 0.67215 0.08196 0.78457 0.0
S875 S 0.59337 0.18025 0.88857 0.0
N876 N 0.58058 0.18893 0.84604 0.0
N877 N 0.62658 0.14363 0.88732 0.0
C878 C 0.62866 0.13701 0.85108 0.0
C879 C 0.60354 0.16153 0.82853 0.0
C880 C 0.97697 0.52303 0.21583 0.0
C881 C 0.01114 0.53991 0.19967 0.0
C882 C 0.97171 0.48151 0.21743 0.0
C883 C 1.00033 0.45511 0.2029 0.0
H884 H 0.95331 0.54199 0.22614 0.0
H885 H 0.9447 0.46998 0.22981 0.0
S886 S 0.09654 0.48408 0.15993 0.0
N887 N 0.07558 0.52698 0.17135 0.0
N888 N 0.06482 0.44897 0.17281 0.0
C889 C 0.03529 0.47153 0.18769 0.0
C890 C 0.04084 0.51389 0.18639 0.0
C891 C 0.48636 0.032 0.19647 0.0
C892 C 0.46034 0.99907 0.19984 0.0
C893 C 0.52815 0.02712 0.19866 0.0
C894 C 0.54516 0.98901 0.20348 0.0
H895 H 0.47423 0.06152 0.1913 0.0
H896 H 0.54735 0.05292 0.19476 0.0
S897 S 0.49031 0.89358 0.21553 0.0
N898 N 0.45461 0.92737 0.20991 0.0
N899 N 0.53327 0.91829 0.21342 0.0
C900 C 0.51955 0.9561 0.20802 0.0
C901 C 0.47705 0.9611 0.20641 0.0
C902 C 0.52837 0.02942 0.41829 0.0
C903 C 0.49158 0.04597 0.40682 0.0
C904 C 0.53366 0.98801 0.42109 0.0
C905 C 0.50217 0.96098 0.41337 0.0
H906 H 0.55332 0.04848 0.42592 0.0
H907 H 0.56288 0.97736 0.42964 0.0
S908 S 0.40001 0.98898 0.38005 0.0
N909 N 0.42403 0.0319 0.38443 0.0
N910 N 0.43237 0.95454 0.39319 0.0
C911 C 0.46514 0.97715 0.40143 0.0
C912 C 0.46023 0.01945 0.39742 0.0
C913 C 0.98393 0.46164 0.41878 0.0
C914 C 0.95829 0.49503 0.41823 0.0
C915 C 0.02577 0.46639 0.41775 0.0
C916 C 0.04313 0.50473 0.41704 0.0
H917 H 0.97145 0.43179 0.42089 0.0
H918 H 0.04475 0.44013 0.41939 0.0
S919 S 0.98926 0.60152 0.41377 0.0
N920 N 0.95321 0.56754 0.41528 0.0
N921 N 0.03198 0.57635 0.41413 0.0
C922 C 0.01788 0.53821 0.41539 0.0
C923 C 0.97535 0.53341 0.41575 0.0
C924 C 0.01573 0.53159 0.88899 0.0
C925 C 0.01518 0.54781 0.92414 0.0
C926 C 0.01148 0.49028 0.8833 0.0
C927 C 0.00677 0.464 0.91258 0.0
H928 H 0.0191 0.55106 0.8658 0.0
H929 H 0.01129 0.47873 0.85589 0.0
S930 S 0.999 0.49149 1.00917 0.0
N931 N 0.00675 0.53444 0.9883 0.0
N932 N 0.99935 0.45672 0.97733 0.0
C933 C 0.0061 0.47966 0.9477 0.0
C934 C 0.01019 0.52164 0.95356 0.0
C935 C 0.52762 0.03572 0.91725 0.0
C936 C 0.5454 0.99767 0.91511 0.0
C937 C 0.48569 0.03994 0.9178 0.0
C938 C 0.46031 0.00635 0.91531 0.0
H939 H 0.5463 0.06209 0.92036 0.0
H940 H 0.47291 0.06952 0.92099 0.0
S941 S 0.49244 0.90061 0.90651 0.0
N942 N 0.53492 0.92618 0.90876 0.0
N943 N 0.45602 0.93405 0.90893 0.0
C944 C 0.47782 0.96836 0.91137 0.0
C945 C 0.52044 0.96404 0.91153 0.0
C946 C 0.48271 0.97166 0.71954 0.0
C947 C 0.51575 0.95614 0.70059 0.0
C948 C 0.47721 0.0129 0.7234 0.0
C949 C 0.5043 0.04049 0.70835 0.0
H950 H 0.45989 0.95195 0.73021 0.0
H951 H 0.45092 0.02329 0.7377 0.0
S952 S 0.59785 0.01537 0.65924 0.0
N953 N 0.5781 0.97156 0.66964 0.0
N954 N 0.5667 0.04929 0.67541 0.0
C955 C 0.53845 0.02548 0.6907 0.0
C956 C 0.54431 0.9833 0.68709 0.0
C957 C 0.97655 0.53198 0.6919 0.0
C958 C 0.9611 0.49863 0.71026 0.0
C959 C 0.01806 0.53719 0.68784 0.0
C960 C 0.04572 0.50929 0.70199 0.0
H961 H 0.9564 0.55332 0.67928 0.0
H962 H 0.02858 0.56282 0.67272 0.0
S963 S 0.02016 0.41908 0.75601 0.0
N964 N 0.97636 0.43956 0.74602 0.0
N965 N 0.05421 0.44812 0.73715 0.0
C966 C 0.03056 0.47676 0.72197 0.0
C967 C 0.98829 0.47171 0.72632 0.0
loop_
_geom_bond_atom_site_label_1
_geom_bond_atom_site_label_2
_geom_bond_distance
_geom_bond_site_symmetry_2
_ccdc_geom_bond_type
C0 C1 1.351 . S
C0 N3 1.368 . S
C0 H5 0.931 . S
C1 C0 1.351 . S
C1 N2 1.373 . S
C1 H29 0.930 . S
N2 C1 1.373 . S
N2 C4 1.340 . S
N3 C0 1.368 . S
N3 C4 1.321 . S
N3 Co6 2.135 . S
C4 N2 1.340 . S
C4 N3 1.321 . S
C4 H28 0.930 . S
H5 C0 0.931 . S
Co6 N3 2.135 . S
Co6 N9 2.121 . S
Co6 O14 2.055 . S
Co6 O17 2.039 . S
Co6 N20 2.140 . S
C7 O8 1.227 . S
C7 O17 1.265 . S
O8 C7 1.227 . S
N9 Co6 2.121 . S
N9 C11 1.375 . S
N9 C12 1.313 . S
C10 C11 1.338 . S
C10 N13 1.377 . S
C10 H30 0.930 1_455 S
C11 N9 1.375 . S
C11 C10 1.338 . S
C11 H15 0.931 . S
C12 N9 1.313 . S
C12 N13 1.344 . S
C12 H16 0.930 . S
N13 C10 1.377 . S
N13 C12 1.344 . S
O14 Co6 2.055 . S
O14 C18 1.253 . S
H15 C11 0.931 . S
H16 C12 0.930 . S
O17 Co6 2.039 . S
O17 C7 1.265 . S
C18 O14 1.253 . S
C18 O19 1.227 . S
O19 C18 1.227 . S
N20 Co6 2.140 . S
N20 C23 1.346 . S
N20 C24 1.345 . S
C21 C22 1.387 . S
C21 C25 1.391 . S
C22 C21 1.387 . S
C22 C23 1.369 1_655 S
C22 H31 0.929 . S
C23 N20 1.346 . S
C23 C22 1.369 1_455 S
C23 H26 0.928 . S
C24 N20 1.345 . S
C24 C25 1.371 1_455 S
C24 H27 0.931 . S
C25 C21 1.391 . S
C25 C24 1.371 1_655 S
C25 H32 0.930 . S
H26 C23 0.928 . S
H27 C24 0.931 . S
H28 C4 0.930 . S
H29 C1 0.930 . S
H30 C10 0.930 1_655 S
H31 C22 0.929 . S
H32 C25 0.930 . S
C33 C34 1.351 . S
C33 N36 1.368 . S
C33 H38 0.931 . S
C34 C33 1.351 . S
C34 N35 1.373 . S
C34 H62 0.930 . S
N35 C34 1.373 . S
N35 C37 1.340 . S
N36 C33 1.368 . S
N36 C37 1.321 . S
N36 Co39 2.135 . S
C37 N35 1.340 . S
C37 N36 1.321 . S
C37 H61 0.930 . S
H38 C33 0.931 . S
Co39 N36 2.135 . S
Co39 N42 2.121 . S
Co39 O47 2.055 . S
Co39 O50 2.039 . S
Co39 N53 2.140 . S
C40 O41 1.227 . S
C40 O50 1.265 . S
O41 C40 1.227 . S
N42 Co39 2.121 . S
N42 C44 1.375 . S
N42 C45 1.313 . S
C43 C44 1.338 . S
C43 N46 1.377 . S
C43 H63 0.930 1_545 S
C44 N42 1.375 . S
C44 C43 1.338 . S
C44 H48 0.931 . S
C45 N42 1.313 . S
C45 N46 1.344 . S
C45 H49 0.930 . S
N46 C43 1.377 . S
N46 C45 1.344 . S
O47 Co39 2.055 . S
O47 C51 1.253 . S
H48 C44 0.931 . S
H49 C45 0.930 . S
O50 Co39 2.039 . S
O50 C40 1.265 . S
C51 O47 1.253 . S
C51 O52 1.227 . S
O52 C51 1.227 . S
N53 Co39 2.140 . S
N53 C56 1.346 . S
N53 C57 1.345 . S
C54 C55 1.387 . S
C54 C58 1.391 . S
C55 C54 1.387 . S
C55 C56 1.369 1_565 S
C55 H64 0.929 . S
C56 N53 1.346 . S
C56 C55 1.369 1_545 S
C56 H59 0.928 . S
C57 N53 1.345 . S
C57 C58 1.371 1_545 S
C57 H60 0.931 . S
C58 C54 1.391 . S
C58 C57 1.371 1_565 S
C58 H65 0.930 . S
H59 C56 0.928 . S
H60 C57 0.931 . S
H61 C37 0.930 . S
H62 C34 0.930 . S
H63 C43 0.930 1_565 S
H64 C55 0.929 . S
H65 C58 0.930 . S
C66 C67 1.351 . S
C66 N69 1.368 . S
C66 H71 0.931 . S
C67 C66 1.351 . S
C67 N68 1.373 . S
C67 H95 0.930 . S
N68 C67 1.373 . S
N68 C70 1.340 . S
N69 C66 1.368 . S
N69 C70 1.321 . S
N69 Co72 2.135 . S
C70 N68 1.340 . S
C70 N69 1.321 . S
C70 H94 0.930 . S
H71 C66 0.931 . S
Co72 N69 2.135 . S
Co72 N75 2.121 . S
Co72 O80 2.055 . S
Co72 O83 2.039 . S
Co72 N86 2.140 . S
C73 O74 1.227 . S
C73 O83 1.265 . S
O74 C73 1.227 . S
N75 Co72 2.121 . S
N75 C77 1.375 . S
N75 C78 1.313 . S
C76 C77 1.338 . S
C76 N79 1.377 . S
C76 H96 0.930 1_655 S
C77 N75 1.375 . S
C77 C76 1.338 . S
C77 H81 0.931 . S
C78 N75 1.313 . S
C78 N79 1.344 . S
C78 H82 0.930 . S
N79 C76 1.377 . S
N79 C78 1.344 . S
O80 Co72 2.055 . S
O80 C84 1.253 . S
H81 C77 0.931 . S
H82 C78 0.930 . S
O83 Co72 2.039 . S
O83 C73 1.265 . S
C84 O80 1.253 . S
C84 O85 1.227 . S
O85 C84 1.227 . S
N86 Co72 2.140 . S
N86 C89 1.346 . S
N86 C90 1.345 . S
C87 C88 1.387 . S
C87 C91 1.391 . S
C88 C87 1.387 . S
C88 C89 1.369 1_455 S
C88 H97 0.929 . S
C89 N86 1.346 . S
C89 C88 1.369 1_655 S
C89 H92 0.928 . S
C90 N86 1.345 . S
C90 C91 1.371 1_655 S
C90 H93 0.931 . S
C91 C87 1.391 . S
C91 C90 1.371 1_455 S
C91 H98 0.930 . S
H92 C89 0.928 . S
H93 C90 0.931 . S
H94 C70 0.930 . S
H95 C67 0.930 . S
H96 C76 0.930 1_455 S
H97 C88 0.929 . S
H98 C91 0.930 . S
C99 C100 1.351 . S
C99 N102 1.368 . S
C99 H104 0.931 . S
C100 C99 1.351 . S
C100 N101 1.373 . S
C100 H128 0.930 . S
N101 C100 1.373 . S
N101 C103 1.340 . S
N102 C99 1.368 . S
N102 C103 1.321 . S
N102 Co105 2.135 . S
C103 N101 1.340 . S
C103 N102 1.321 . S
C103 H127 0.930 . S
H104 C99 0.931 . S
Co105 N102 2.135 . S
Co105 N108 2.121 . S
Co105 O113 2.055 . S
Co105 O116 2.039 . S
Co105 N119 2.140 . S
C106 O107 1.227 . S
C106 O116 1.265 . S
O107 C106 1.227 . S
N108 Co105 2.121 . S
N108 C110 1.375 . S
N108 C111 1.313 . S
C109 C110 1.338 . S
C109 N112 1.377 . S
C109 H129 0.930 1_565 S
C110 N108 1.375 . S
C110 C109 1.338 . S
C110 H114 0.931 . S
C111 N108 1.313 . S
C111 N112 1.344 . S
C111 H115 0.930 . S
N112 C109 1.377 . S
N112 C111 1.344 . S
O113 Co105 2.055 . S
O113 C117 1.253 . S
H114 C110 0.931 . S
H115 C111 0.930 . S
O116 Co105 2.039 . S
O116 C106 1.265 . S
C117 O113 1.253 . S
C117 O118 1.227 . S
O118 C117 1.227 . S
N119 Co105 2.140 . S
N119 C122 1.346 . S
N119 C123 1.345 . S
C120 C121 1.387 . S
C120 C124 1.391 . S
C121 C120 1.387 . S
C121 C122 1.369 1_545 S
C121 H130 0.929 . S
C122 N119 1.346 . S
C122 C121 1.369 1_565 S
C122 H125 0.928 . S
C123 N119 1.345 . S
C123 C124 1.371 1_565 S
C123 H126 0.931 . S
C124 C120 1.391 . S
C124 C123 1.371 1_545 S
C124 H131 0.930 . S
H125 C122 0.928 . S
H126 C123 0.931 . S
H127 C103 0.930 . S
H128 C100 0.930 . S
H129 C109 0.930 1_545 S
H130 C121 0.929 . S
H131 C124 0.930 . S
C132 C133 1.351 . S
C132 N135 1.368 . S
C132 H137 0.931 . S
C133 C132 1.351 . S
C133 N134 1.373 . S
C133 H161 0.930 . S
N134 C133 1.373 . S
N134 C136 1.340 . S
N135 C132 1.368 . S
N135 C136 1.321 . S
N135 Co138 2.135 . S
C136 N134 1.340 . S
C136 N135 1.321 . S
C136 H160 0.930 . S
H137 C132 0.931 . S
Co138 N135 2.135 . S
Co138 N141 2.121 . S
Co138 O146 2.055 . S
Co138 O149 2.039 . S
Co138 N152 2.140 . S
C139 O140 1.227 . S
C139 O149 1.265 . S
O140 C139 1.227 . S
N141 Co138 2.121 . S
N141 C143 1.375 . S
N141 C144 1.313 . S
C142 C143 1.338 . S
C142 N145 1.377 . S
C142 H162 0.930 . S
C143 N141 1.375 . S
C143 C142 1.338 . S
C143 H147 0.931 . S
C144 N141 1.313 . S
C144 N145 1.344 . S
C144 H148 0.930 . S
N145 C142 1.377 . S
N145 C144 1.344 . S
O146 Co138 2.055 . S
O146 C150 1.253 . S
H147 C143 0.931 . S
H148 C144 0.930 . S
O149 Co138 2.039 . S
O149 C139 1.265 . S
C150 O146 1.253 . S
C150 O151 1.227 . S
O151 C150 1.227 . S
N152 Co138 2.140 . S
N152 C155 1.346 . S
N152 C156 1.345 . S
C153 C154 1.387 . S
C153 C157 1.391 . S
C154 C153 1.387 . S
C154 C155 1.369 . S
C154 H163 0.929 . S
C155 N152 1.346 . S
C155 C154 1.369 . S
C155 H158 0.928 . S
C156 N152 1.345 . S
C156 C157 1.371 . S
C156 H159 0.931 . S
C157 C153 1.391 . S
C157 C156 1.371 . S
C157 H164 0.930 . S
H158 C155 0.928 . S
H159 C156 0.931 . S
H160 C136 0.930 . S
H161 C133 0.930 . S
H162 C142 0.930 . S
H163 C154 0.929 . S
H164 C157 0.930 . S
C165 C166 1.351 . S
C165 N168 1.368 . S
C165 H170 0.931 . S
C166 C165 1.351 . S
C166 N167 1.373 . S
C166 H194 0.930 . S
N167 C166 1.373 . S
N167 C169 1.340 . S
N168 C165 1.368 . S
N168 C169 1.321 . S
N168 Co171 2.135 . S
C169 N167 1.340 . S
C169 N168 1.321 . S
C169 H193 0.930 . S
H170 C165 0.931 . S
Co171 N168 2.135 . S
Co171 N174 2.121 . S
Co171 O179 2.055 . S
Co171 O182 2.039 . S
Co171 N185 2.140 . S
C172 O173 1.227 . S
C172 O182 1.265 . S
O173 C172 1.227 . S
N174 Co171 2.121 . S
N174 C176 1.375 . S
N174 C177 1.313 . S
C175 C176 1.338 . S
C175 N178 1.377 . S
C175 H195 0.930 . S
C176 N174 1.375 . S
C176 C175 1.338 . S
C176 H180 0.931 . S
C177 N174 1.313 . S
C177 N178 1.344 . S
C177 H181 0.930 . S
N178 C175 1.377 . S
N178 C177 1.344 . S
O179 Co171 2.055 . S
O179 C183 1.253 . S
H180 C176 0.931 . S
H181 C177 0.930 . S
O182 Co171 2.039 . S
O182 C172 1.265 . S
C183 O179 1.253 . S
C183 O184 1.227 . S
O184 C183 1.227 . S
N185 Co171 2.140 . S
N185 C188 1.346 . S
N185 C189 1.345 . S
C186 C187 1.387 . S
C186 C190 1.391 . S
C187 C186 1.387 . S
C187 C188 1.369 . S
C187 H196 0.929 . S
C188 N185 1.346 . S
C188 C187 1.369 . S
C188 H191 0.928 . S
C189 N185 1.345 . S
C189 C190 1.371 . S
C189 H192 0.931 . S
C190 C186 1.391 . S
C190 C189 1.371 . S
C190 H197 0.930 . S
H191 C188 0.928 . S
H192 C189 0.931 . S
H193 C169 0.930 . S
H194 C166 0.930 . S
H195 C175 0.930 . S
H196 C187 0.929 . S
H197 C190 0.930 . S
C198 C199 1.351 . S
C198 N201 1.368 . S
C198 H203 0.931 . S
C199 C198 1.351 . S
C199 N200 1.373 . S
C199 H227 0.930 . S
N200 C199 1.373 . S
N200 C202 1.340 . S
N201 C198 1.368 . S
N201 C202 1.321 . S
N201 Co204 2.135 . S
C202 N200 1.340 . S
C202 N201 1.321 . S
C202 H226 0.930 . S
H203 C198 0.931 . S
Co204 N201 2.135 . S
Co204 N207 2.121 . S
Co204 O212 2.055 . S
Co204 O215 2.039 . S
Co204 N218 2.140 . S
C205 O206 1.227 . S
C205 O215 1.265 . S
O206 C205 1.227 . S
N207 Co204 2.121 . S
N207 C209 1.375 . S
N207 C210 1.313 . S
C208 C209 1.338 . S
C208 N211 1.377 . S
C208 H228 0.930 . S
C209 N207 1.375 . S
C209 C208 1.338 . S
C209 H213 0.931 . S
C210 N207 1.313 . S
C210 N211 1.344 . S
C210 H214 0.930 . S
N211 C208 1.377 . S
N211 C210 1.344 . S
O212 Co204 2.055 . S
O212 C216 1.253 . S
H213 C209 0.931 . S
H214 C210 0.930 . S
O215 Co204 2.039 . S
O215 C205 1.265 . S
C216 O212 1.253 . S
C216 O217 1.227 . S
O217 C216 1.227 . S
N218 Co204 2.140 . S
N218 C221 1.346 . S
N218 C222 1.345 . S
C219 C220 1.387 . S
C219 C223 1.391 . S
C220 C219 1.387 . S
C220 C221 1.369 . S
C220 H229 0.929 . S
C221 N218 1.346 . S
C221 C220 1.369 . S
C221 H224 0.928 . S
C222 N218 1.345 . S
C222 C223 1.371 . S
C222 H225 0.931 . S
C223 C219 1.391 . S
C223 C222 1.371 . S
C223 H230 0.930 . S
H224 C221 0.928 . S
H225 C222 0.931 . S
H226 C202 0.930 . S
H227 C199 0.930 . S
H228 C208 0.930 . S
H229 C220 0.929 . S
H230 C223 0.930 . S
C231 C232 1.351 . S
C231 N234 1.368 . S
C231 H236 0.931 . S
C232 C231 1.351 . S
C232 N233 1.373 . S
C232 H260 0.930 . S
N233 C232 1.373 . S
N233 C235 1.340 . S
N234 C231 1.368 . S
N234 C235 1.321 . S
N234 Co237 2.135 . S
C235 N233 1.340 . S
C235 N234 1.321 . S
C235 H259 0.930 . S
H236 C231 0.931 . S
Co237 N234 2.135 . S
Co237 N240 2.121 . S
Co237 O245 2.055 . S
Co237 O248 2.039 . S
Co237 N251 2.140 . S
C238 O239 1.227 . S
C238 O248 1.265 . S
O239 C238 1.227 . S
N240 Co237 2.121 . S
N240 C242 1.375 . S
N240 C243 1.313 . S
C241 C242 1.338 . S
C241 N244 1.377 . S
C241 H261 0.930 . S
C242 N240 1.375 . S
C242 C241 1.338 . S
C242 H246 0.931 . S
C243 N240 1.313 . S
C243 N244 1.344 . S
C243 H247 0.930 . S
N244 C241 1.377 . S
N244 C243 1.344 . S
O245 Co237 2.055 . S
O245 C249 1.253 . S
H246 C242 0.931 . S
H247 C243 0.930 . S
O248 Co237 2.039 . S
O248 C238 1.265 . S
C249 O245 1.253 . S
C249 O250 1.227 . S
O250 C249 1.227 . S
N251 Co237 2.140 . S
N251 C254 1.346 . S
N251 C255 1.345 . S
C252 C253 1.387 . S
C252 C256 1.391 . S
C253 C252 1.387 . S
C253 C254 1.369 . S
C253 H262 0.929 . S
C254 N251 1.346 . S
C254 C253 1.369 . S
C254 H257 0.928 . S
C255 N251 1.345 . S
C255 C256 1.371 . S
C255 H258 0.931 . S
C256 C252 1.391 . S
C256 C255 1.371 . S
C256 H263 0.930 . S
H257 C254 0.928 . S
H258 C255 0.931 . S
H259 C235 0.930 . S
H260 C232 0.930 . S
H261 C241 0.930 . S
H262 C253 0.929 . S
H263 C256 0.930 . S
C264 C265 1.351 . S
C264 N267 1.368 . S
C264 H269 0.931 . S
C265 C264 1.351 . S
C265 N266 1.373 . S
C265 H293 0.930 . S
N266 C265 1.373 . S
N266 C268 1.340 . S
N267 C264 1.368 . S
N267 C268 1.321 . S
N267 Co270 2.135 . S
C268 N266 1.340 . S
C268 N267 1.321 . S
C268 H292 0.930 . S
H269 C264 0.931 . S
Co270 N267 2.135 . S
Co270 N273 2.121 . S
Co270 O278 2.055 . S
Co270 O281 2.039 . S
Co270 N284 2.140 . S
C271 O272 1.227 . S
C271 O281 1.265 . S
O272 C271 1.227 . S
N273 Co270 2.121 . S
N273 C275 1.375 . S
N273 C276 1.313 . S
C274 C275 1.338 . S
C274 N277 1.377 . S
C274 H294 0.930 1_655 S
C275 N273 1.375 . S
C275 C274 1.338 . S
C275 H279 0.931 . S
C276 N273 1.313 . S
C276 N277 1.344 . S
C276 H280 0.930 . S
N277 C274 1.377 . S
N277 C276 1.344 . S
O278 Co270 2.055 . S
O278 C282 1.253 . S
H279 C275 0.931 . S
H280 C276 0.930 . S
O281 Co270 2.039 . S
O281 C271 1.265 . S
C282 O278 1.253 . S
C282 O283 1.227 . S
O283 C282 1.227 . S
N284 Co270 2.140 . S
N284 C287 1.346 . S
N284 C288 1.345 . S
C285 C286 1.387 . S
C285 C289 1.391 . S
C286 C285 1.387 . S
C286 C287 1.369 1_455 S
C286 H295 0.929 . S
C287 N284 1.346 . S
C287 C286 1.369 1_655 S
C287 H290 0.928 . S
C288 N284 1.345 . S
C288 C289 1.371 1_655 S
C288 H291 0.931 . S
C289 C285 1.391 . S
C289 C288 1.371 1_455 S
C289 H296 0.930 . S
H290 C287 0.928 . S
H291 C288 0.931 . S
H292 C268 0.930 . S
H293 C265 0.930 . S
H294 C274 0.930 1_455 S
H295 C286 0.929 . S
H296 C289 0.930 . S
C297 C298 1.351 . S
C297 N300 1.368 . S
C297 H302 0.931 . S
C298 C297 1.351 . S
C298 N299 1.373 . S
C298 H326 0.930 . S
N299 C298 1.373 . S
N299 C301 1.340 . S
N300 C297 1.368 . S
N300 C301 1.321 . S
N300 Co303 2.135 . S
C301 N299 1.340 . S
C301 N300 1.321 . S
C301 H325 0.930 . S
H302 C297 0.931 . S
Co303 N300 2.135 . S
Co303 N306 2.121 . S
Co303 O311 2.055 . S
Co303 O314 2.039 . S
Co303 N317 2.140 . S
C304 O305 1.227 . S
C304 O314 1.265 . S
O305 C304 1.227 . S
N306 Co303 2.121 . S
N306 C308 1.375 . S
N306 C309 1.313 . S
C307 C308 1.338 . S
C307 N310 1.377 . S
C307 H327 0.930 1_565 S
C308 N306 1.375 . S
C308 C307 1.338 . S
C308 H312 0.931 . S
C309 N306 1.313 . S
C309 N310 1.344 . S
C309 H313 0.930 . S
N310 C307 1.377 . S
N310 C309 1.344 . S
O311 Co303 2.055 . S
O311 C315 1.253 . S
H312 C308 0.931 . S
H313 C309 0.930 . S
O314 Co303 2.039 . S
O314 C304 1.265 . S
C315 O311 1.253 . S
C315 O316 1.227 . S
O316 C315 1.227 . S
N317 Co303 2.140 . S
N317 C320 1.346 . S
N317 C321 1.345 . S
C318 C319 1.387 . S
C318 C322 1.391 . S
C319 C318 1.387 . S
C319 C320 1.369 1_545 S
C319 H328 0.929 . S
C320 N317 1.346 . S
C320 C319 1.369 1_565 S
C320 H323 0.928 . S
C321 N317 1.345 . S
C321 C322 1.371 1_565 S
C321 H324 0.931 . S
C322 C318 1.391 . S
C322 C321 1.371 1_545 S
C322 H329 0.930 . S
H323 C320 0.928 . S
H324 C321 0.931 . S
H325 C301 0.930 . S
H326 C298 0.930 . S
H327 C307 0.930 1_545 S
H328 C319 0.929 . S
H329 C322 0.930 . S
C330 C331 1.351 . S
C330 N333 1.368 . S
C330 H335 0.931 . S
C331 C330 1.351 . S
C331 N332 1.373 . S
C331 H359 0.930 . S
N332 C331 1.373 . S
N332 C334 1.340 . S
N333 C330 1.368 . S
N333 C334 1.321 . S
N333 Co336 2.135 . S
C334 N332 1.340 . S
C334 N333 1.321 . S
C334 H358 0.930 . S
H335 C330 0.931 . S
Co336 N333 2.135 . S
Co336 N339 2.121 . S
Co336 O344 2.055 . S
Co336 O347 2.039 . S
Co336 N350 2.140 . S
C337 O338 1.227 . S
C337 O347 1.265 . S
O338 C337 1.227 . S
N339 Co336 2.121 . S
N339 C341 1.375 . S
N339 C342 1.313 . S
C340 C341 1.338 . S
C340 N343 1.377 . S
C340 H360 0.930 1_455 S
C341 N339 1.375 . S
C341 C340 1.338 . S
C341 H345 0.931 . S
C342 N339 1.313 . S
C342 N343 1.344 . S
C342 H346 0.930 . S
N343 C340 1.377 . S
N343 C342 1.344 . S
O344 Co336 2.055 . S
O344 C348 1.253 . S
H345 C341 0.931 . S
H346 C342 0.930 . S
O347 Co336 2.039 . S
O347 C337 1.265 . S
C348 O344 1.253 . S
C348 O349 1.227 . S
O349 C348 1.227 . S
N350 Co336 2.140 . S
N350 C353 1.346 . S
N350 C354 1.345 . S
C351 C352 1.387 . S
C351 C355 1.391 . S
C352 C351 1.387 . S
C352 C353 1.369 1_655 S
C352 H361 0.929 . S
C353 N350 1.346 . S
C353 C352 1.369 1_455 S
C353 H356 0.928 . S
C354 N350 1.345 . S
C354 C355 1.371 1_455 S
C354 H357 0.931 . S
C355 C351 1.391 . S
C355 C354 1.371 1_655 S
C355 H362 0.930 . S
H356 C353 0.928 . S
H357 C354 0.931 . S
H358 C334 0.930 . S
H359 C331 0.930 . S
H360 C340 0.930 1_655 S
H361 C352 0.929 . S
H362 C355 0.930 . S
C363 C364 1.351 . S
C363 N366 1.368 . S
C363 H368 0.931 . S
C364 C363 1.351 . S
C364 N365 1.373 . S
C364 H392 0.930 . S
N365 C364 1.373 . S
N365 C367 1.340 . S
N366 C363 1.368 . S
N366 C367 1.321 . S
N366 Co369 2.135 . S
C367 N365 1.340 . S
C367 N366 1.321 . S
C367 H391 0.930 . S
H368 C363 0.931 . S
Co369 N366 2.135 . S
Co369 N372 2.121 . S
Co369 O377 2.055 . S
Co369 O380 2.039 . S
Co369 N383 2.140 . S
C370 O371 1.227 . S
C370 O380 1.265 . S
O371 C370 1.227 . S
N372 Co369 2.121 . S
N372 C374 1.375 . S
N372 C375 1.313 . S
C373 C374 1.338 . S
C373 N376 1.377 . S
C373 H393 0.930 1_545 S
C374 N372 1.375 . S
C374 C373 1.338 . S
C374 H378 0.931 . S
C375 N372 1.313 . S
C375 N376 1.344 . S
C375 H379 0.930 . S
N376 C373 1.377 . S
N376 C375 1.344 . S
O377 Co369 2.055 . S
O377 C381 1.253 . S
H378 C374 0.931 . S
H379 C375 0.930 . S
O380 Co369 2.039 . S
O380 C370 1.265 . S
C381 O377 1.253 . S
C381 O382 1.227 . S
O382 C381 1.227 . S
N383 Co369 2.140 . S
N383 C386 1.346 . S
N383 C387 1.345 . S
C384 C385 1.387 . S
C384 C388 1.391 . S
C385 C384 1.387 . S
C385 C386 1.369 1_565 S
C385 H394 0.929 . S
C386 N383 1.346 . S
C386 C385 1.369 1_545 S
C386 H389 0.928 . S
C387 N383 1.345 . S
C387 C388 1.371 1_545 S
C387 H390 0.931 . S
C388 C384 1.391 . S
C388 C387 1.371 1_565 S
C388 H395 0.930 . S
H389 C386 0.928 . S
H390 C387 0.931 . S
H391 C367 0.930 . S
H392 C364 0.930 . S
H393 C373 0.930 1_565 S
H394 C385 0.929 . S
H395 C388 0.930 . S
C396 C397 1.351 . S
C396 N399 1.368 . S
C396 H401 0.931 . S
C397 C396 1.351 . S
C397 N398 1.373 . S
C397 H425 0.930 . S
N398 C397 1.373 . S
N398 C400 1.340 . S
N399 C396 1.368 . S
N399 C400 1.321 . S
N399 Co402 2.135 . S
C400 N398 1.340 . S
C400 N399 1.321 . S
C400 H424 0.930 . S
H401 C396 0.931 . S
Co402 N399 2.135 . S
Co402 N405 2.121 . S
Co402 O410 2.055 . S
Co402 O413 2.039 . S
Co402 N416 2.140 . S
C403 O404 1.227 . S
C403 O413 1.265 . S
O404 C403 1.227 . S
N405 Co402 2.121 . S
N405 C407 1.375 . S
N405 C408 1.313 . S
C406 C407 1.338 . S
C406 N409 1.377 . S
C406 H426 0.930 . S
C407 N405 1.375 . S
C407 C406 1.338 . S
C407 H411 0.931 . S
C408 N405 1.313 . S
C408 N409 1.344 . S
C408 H412 0.930 . S
N409 C406 1.377 . S
N409 C408 1.344 . S
O410 Co402 2.055 . S
O410 C414 1.253 . S
H411 C407 0.931 . S
H412 C408 0.930 . S
O413 Co402 2.039 . S
O413 C403 1.265 . S
C414 O410 1.253 . S
C414 O415 1.227 . S
O415 C414 1.227 . S
N416 Co402 2.140 . S
N416 C419 1.346 . S
N416 C420 1.345 . S
C417 C418 1.387 . S
C417 C421 1.391 . S
C418 C417 1.387 . S
C418 C419 1.369 . S
C418 H427 0.929 . S
C419 N416 1.346 . S
C419 C418 1.369 . S
C419 H422 0.928 . S
C420 N416 1.345 . S
C420 C421 1.371 . S
C420 H423 0.931 . S
C421 C417 1.391 . S
C421 C420 1.371 . S
C421 H428 0.930 . S
H422 C419 0.928 . S
H423 C420 0.931 . S
H424 C400 0.930 . S
H425 C397 0.930 . S
H426 C406 0.930 . S
H427 C418 0.929 . S
H428 C421 0.930 . S
C429 C430 1.351 . S
C429 N432 1.368 . S
C429 H434 0.931 . S
C430 C429 1.351 . S
C430 N431 1.373 . S
C430 H458 0.930 . S
N431 C430 1.373 . S
N431 C433 1.340 . S
N432 C429 1.368 . S
N432 C433 1.321 . S
N432 Co435 2.135 . S
C433 N431 1.340 . S
C433 N432 1.321 . S
C433 H457 0.930 . S
H434 C429 0.931 . S
Co435 N432 2.135 . S
Co435 N438 2.121 . S
Co435 O443 2.055 . S
Co435 O446 2.039 . S
Co435 N449 2.140 . S
C436 O437 1.227 . S
C436 O446 1.265 . S
O437 C436 1.227 . S
N438 Co435 2.121 . S
N438 C440 1.375 . S
N438 C441 1.313 . S
C439 C440 1.338 . S
C439 N442 1.377 . S
C439 H459 0.930 . S
C440 N438 1.375 . S
C440 C439 1.338 . S
C440 H444 0.931 . S
C441 N438 1.313 . S
C441 N442 1.344 . S
C441 H445 0.930 . S
N442 C439 1.377 . S
N442 C441 1.344 . S
O443 Co435 2.055 . S
O443 C447 1.253 . S
H444 C440 0.931 . S
H445 C441 0.930 . S
O446 Co435 2.039 . S
O446 C436 1.265 . S
C447 O443 1.253 . S
C447 O448 1.227 . S
O448 C447 1.227 . S
N449 Co435 2.140 . S
N449 C452 1.346 . S
N449 C453 1.345 . S
C450 C451 1.387 . S
C450 C454 1.391 . S
C451 C450 1.387 . S
C451 C452 1.369 . S
C451 H460 0.929 . S
C452 N449 1.346 . S
C452 C451 1.369 . S
C452 H455 0.928 . S
C453 N449 1.345 . S
C453 C454 1.371 . S
C453 H456 0.931 . S
C454 C450 1.391 . S
C454 C453 1.371 . S
C454 H461 0.930 . S
H455 C452 0.928 . S
H456 C453 0.931 . S
H457 C433 0.930 . S
H458 C430 0.930 . S
H459 C439 0.930 . S
H460 C451 0.929 . S
H461 C454 0.930 . S
C462 C463 1.351 . S
C462 N465 1.368 . S
C462 H467 0.931 . S
C463 C462 1.351 . S
C463 N464 1.373 . S
C463 H491 0.930 . S
N464 C463 1.373 . S
N464 C466 1.340 . S
N465 C462 1.368 . S
N465 C466 1.321 . S
N465 Co468 2.135 . S
C466 N464 1.340 . S
C466 N465 1.321 . S
C466 H490 0.930 . S
H467 C462 0.931 . S
Co468 N465 2.135 . S
Co468 N471 2.121 . S
Co468 O476 2.055 . S
Co468 O479 2.039 . S
Co468 N482 2.140 . S
C469 O470 1.227 . S
C469 O479 1.265 . S
O470 C469 1.227 . S
N471 Co468 2.121 . S
N471 C473 1.375 . S
N471 C474 1.313 . S
C472 C473 1.338 . S
C472 N475 1.377 . S
C472 H492 0.930 . S
C473 N471 1.375 . S
C473 C472 1.338 . S
C473 H477 0.931 . S
C474 N471 1.313 . S
C474 N475 1.344 . S
C474 H478 0.930 . S
N475 C472 1.377 . S
N475 C474 1.344 . S
O476 Co468 2.055 . S
O476 C480 1.253 . S
H477 C473 0.931 . S
H478 C474 0.930 . S
O479 Co468 2.039 . S
O479 C469 1.265 . S
C480 O476 1.253 . S
C480 O481 1.227 . S
O481 C480 1.227 . S
N482 Co468 2.140 . S
N482 C485 1.346 . S
N482 C486 1.345 . S
C483 C484 1.387 . S
C483 C487 1.391 . S
C484 C483 1.387 . S
C484 C485 1.369 . S
C484 H493 0.929 . S
C485 N482 1.346 . S
C485 C484 1.369 . S
C485 H488 0.928 . S
C486 N482 1.345 . S
C486 C487 1.371 . S
C486 H489 0.931 . S
C487 C483 1.391 . S
C487 C486 1.371 . S
C487 H494 0.930 . S
H488 C485 0.928 . S
H489 C486 0.931 . S
H490 C466 0.930 . S
H491 C463 0.930 . S
H492 C472 0.930 . S
H493 C484 0.929 . S
H494 C487 0.930 . S
C495 C496 1.351 . S
C495 N498 1.368 . S
C495 H500 0.931 . S
C496 C495 1.351 . S
C496 N497 1.373 . S
C496 H524 0.930 . S
N497 C496 1.373 . S
N497 C499 1.340 . S
N498 C495 1.368 . S
N498 C499 1.321 . S
N498 Co501 2.135 . S
C499 N497 1.340 . S
C499 N498 1.321 . S
C499 H523 0.930 . S
H500 C495 0.931 . S
Co501 N498 2.135 . S
Co501 N504 2.121 . S
Co501 O509 2.055 . S
Co501 O512 2.039 . S
Co501 N515 2.140 . S
C502 O503 1.227 . S
C502 O512 1.265 . S
O503 C502 1.227 . S
N504 Co501 2.121 . S
N504 C506 1.375 . S
N504 C507 1.313 . S
C505 C506 1.338 . S
C505 N508 1.377 . S
C505 H525 0.930 . S
C506 N504 1.375 . S
C506 C505 1.338 . S
C506 H510 0.931 . S
C507 N504 1.313 . S
C507 N508 1.344 . S
C507 H511 0.930 . S
N508 C505 1.377 . S
N508 C507 1.344 . S
O509 Co501 2.055 . S
O509 C513 1.253 . S
H510 C506 0.931 . S
H511 C507 0.930 . S
O512 Co501 2.039 . S
O512 C502 1.265 . S
C513 O509 1.253 . S
C513 O514 1.227 . S
O514 C513 1.227 . S
N515 Co501 2.140 . S
N515 C518 1.346 . S
N515 C519 1.345 . S
C516 C517 1.387 . S
C516 C520 1.391 . S
C517 C516 1.387 . S
C517 C518 1.369 . S
C517 H526 0.929 . S
C518 N515 1.346 . S
C518 C517 1.369 . S
C518 H521 0.928 . S
C519 N515 1.345 . S
C519 C520 1.371 . S
C519 H522 0.931 . S
C520 C516 1.391 . S
C520 C519 1.371 . S
C520 H527 0.930 . S
H521 C518 0.928 . S
H522 C519 0.931 . S
H523 C499 0.930 . S
H524 C496 0.930 . S
H525 C505 0.930 . S
H526 C517 0.929 . S
H527 C520 0.930 . S
C528 C529 1.369 . S
C528 C530 1.419 1_556 S
C528 H532 0.930 . S
C529 C528 1.369 . S
C529 C538 1.429 . S
C530 C528 1.419 1_554 S
C530 C531 1.363 . S
C530 H533 0.929 . S
C531 C530 1.363 . S
C531 C537 1.428 . S
H532 C528 0.930 . S
H533 C530 0.929 . S
S534 N535 1.616 1_554 S
S534 N536 1.608 . S
N535 S534 1.616 1_556 S
N535 C538 1.350 . S
N536 S534 1.608 . S
N536 C537 1.351 . S
C537 C531 1.428 . S
C537 N536 1.351 . S
C537 C538 1.434 1_554 S
C538 C529 1.429 . S
C538 N535 1.350 . S
C538 C537 1.434 1_556 S
C539 C540 1.369 . S
C539 C541 1.419 1_556 S
C539 H543 0.930 . S
C540 C539 1.369 . S
C540 C549 1.429 . S
C541 C539 1.419 1_554 S
C541 C542 1.363 . S
C541 H544 0.929 . S
C542 C541 1.363 . S
C542 C548 1.428 . S
H543 C539 0.930 . S
H544 C541 0.929 . S
S545 N546 1.616 1_554 S
S545 N547 1.608 . S
N546 S545 1.616 1_556 S
N546 C549 1.350 . S
N547 S545 1.608 . S
N547 C548 1.351 . S
C548 C542 1.428 . S
C548 N547 1.351 . S
C548 C549 1.434 1_554 S
C549 C540 1.429 . S
C549 N546 1.350 . S
C549 C548 1.434 1_556 S
C550 C551 1.369 . S
C550 C552 1.419 1_556 S
C550 H554 0.930 . S
C551 C550 1.369 . S
C551 C560 1.429 . S
C552 C550 1.419 1_554 S
C552 C553 1.363 . S
C552 H555 0.929 . S
C553 C552 1.363 . S
C553 C559 1.428 . S
H554 C550 0.930 . S
H555 C552 0.929 . S
S556 N557 1.616 1_554 S
S556 N558 1.608 . S
N557 S556 1.616 1_556 S
N557 C560 1.350 . S
N558 S556 1.608 . S
N558 C559 1.351 . S
C559 C553 1.428 . S
C559 N558 1.351 . S
C559 C560 1.434 1_554 S
C560 C551 1.429 . S
C560 N557 1.350 . S
C560 C559 1.434 1_556 S
C561 C562 1.369 . S
C561 C563 1.419 1_556 S
C561 H565 0.930 . S
C562 C561 1.369 . S
C562 C571 1.429 . S
C563 C561 1.419 1_554 S
C563 C564 1.363 . S
C563 H566 0.929 . S
C564 C563 1.363 . S
C564 C570 1.428 . S
H565 C561 0.930 . S
H566 C563 0.929 . S
S567 N568 1.616 1_554 S
S567 N569 1.608 . S
N568 S567 1.616 1_556 S
N568 C571 1.350 . S
N569 S567 1.608 . S
N569 C570 1.351 . S
C570 C564 1.428 . S
C570 N569 1.351 . S
C570 C571 1.434 1_554 S
C571 C562 1.429 . S
C571 N568 1.350 . S
C571 C570 1.434 1_556 S
C572 C573 1.369 . S
C572 C574 1.419 . S
C572 H576 0.930 . S
C573 C572 1.369 . S
C573 C582 1.429 . S
C574 C572 1.419 . S
C574 C575 1.363 . S
C574 H577 0.929 . S
C575 C574 1.363 . S
C575 C581 1.428 . S
H576 C572 0.930 . S
H577 C574 0.929 . S
S578 N579 1.613 . S
S578 N580 1.610 . S
N579 S578 1.613 . S
N579 C582 1.350 . S
N580 S578 1.610 . S
N580 C581 1.351 . S
C581 C575 1.428 . S
C581 N580 1.351 . S
C581 C582 1.434 . S
C582 C573 1.429 . S
C582 N579 1.350 . S
C582 C581 1.434 . S
C583 C584 1.369 . S
C583 C585 1.419 . S
C583 H587 0.930 . S
C584 C583 1.369 . S
C584 C593 1.429 . S
C585 C583 1.419 . S
C585 C586 1.363 . S
C585 H588 0.929 . S
C586 C585 1.363 . S
C586 C592 1.428 . S
H587 C583 0.930 . S
H588 C585 0.929 . S
S589 N590 1.613 . S
S589 N591 1.610 . S
N590 S589 1.613 . S
N590 C593 1.350 . S
N591 S589 1.610 . S
N591 C592 1.351 . S
C592 C586 1.428 . S
C592 N591 1.351 . S
C592 C593 1.434 . S
C593 C584 1.429 . S
C593 N590 1.350 . S
C593 C592 1.434 . S
C594 C595 1.369 . S
C594 C596 1.419 . S
C594 H598 0.930 . S
C595 C594 1.369 . S
C595 C604 1.429 . S
C596 C594 1.419 . S
C596 C597 1.363 . S
C596 H599 0.929 . S
C597 C596 1.363 . S
C597 C603 1.428 . S
H598 C594 0.930 . S
H599 C596 0.929 . S
S600 N601 1.613 . S
S600 N602 1.610 . S
N601 S600 1.613 . S
N601 C604 1.350 . S
N602 S600 1.610 . S
N602 C603 1.351 . S
C603 C597 1.428 . S
C603 N602 1.351 . S
C603 C604 1.434 . S
C604 C595 1.429 . S
C604 N601 1.350 . S
C604 C603 1.434 . S
C605 C606 1.369 . S
C605 C607 1.419 . S
C605 H609 0.930 . S
C606 C605 1.369 . S
C606 C615 1.429 . S
C607 C605 1.419 . S
C607 C608 1.363 . S
C607 H610 0.929 . S
C608 C607 1.363 . S
C608 C614 1.428 . S
H609 C605 0.930 . S
H610 C607 0.929 . S
S611 N612 1.613 . S
S611 N613 1.610 . S
N612 S611 1.613 . S
N612 C615 1.350 . S
N613 S611 1.610 . S
N613 C614 1.351 . S
C614 C608 1.428 . S
C614 N613 1.351 . S
C614 C615 1.434 . S
C615 C606 1.429 . S
C615 N612 1.350 . S
C615 C614 1.434 . S
C616 C617 1.369 . S
C616 C618 1.419 . S
C616 H620 0.930 . S
C617 C616 1.369 . S
C617 C626 1.429 . S
C618 C616 1.419 . S
C618 C619 1.363 . S
C618 H621 0.929 . S
C619 C618 1.363 . S
C619 C625 1.428 . S
H620 C616 0.930 . S
H621 C618 0.929 . S
S622 N623 1.613 . S
S622 N624 1.610 . S
N623 S622 1.613 . S
N623 C626 1.350 . S
N624 S622 1.610 . S
N624 C625 1.351 . S
C625 C619 1.428 . S
C625 N624 1.351 . S
C625 C626 1.434 . S
C626 C617 1.429 . S
C626 N623 1.350 . S
C626 C625 1.434 . S
C627 C628 1.369 . S
C627 C629 1.419 . S
C627 H631 0.930 . S
C628 C627 1.369 . S
C628 C637 1.429 . S
C629 C627 1.419 . S
C629 C630 1.363 . S
C629 H632 0.929 . S
C630 C629 1.363 . S
C630 C636 1.428 . S
H631 C627 0.930 . S
H632 C629 0.929 . S
S633 N634 1.613 . S
S633 N635 1.610 . S
N634 S633 1.613 . S
N634 C637 1.350 . S
N635 S633 1.610 . S
N635 C636 1.351 . S
C636 C630 1.428 . S
C636 N635 1.351 . S
C636 C637 1.434 . S
C637 C628 1.429 . S
C637 N634 1.350 . S
C637 C636 1.434 . S
C638 C639 1.369 . S
C638 C640 1.419 . S
C638 H642 0.930 . S
C639 C638 1.369 . S
C639 C648 1.429 . S
C640 C638 1.419 . S
C640 C641 1.363 . S
C640 H643 0.929 . S
C641 C640 1.363 . S
C641 C647 1.428 . S
H642 C638 0.930 . S
H643 C640 0.929 . S
S644 N645 1.613 . S
S644 N646 1.610 . S
N645 S644 1.613 . S
N645 C648 1.350 . S
N646 S644 1.610 . S
N646 C647 1.351 . S
C647 C641 1.428 . S
C647 N646 1.351 . S
C647 C648 1.434 . S
C648 C639 1.429 . S
C648 N645 1.350 . S
C648 C647 1.434 . S
C649 C650 1.369 . S
C649 C651 1.419 . S
C649 H653 0.930 . S
C650 C649 1.369 . S
C650 C659 1.429 . S
C651 C649 1.419 . S
C651 C652 1.363 . S
C651 H654 0.929 . S
C652 C651 1.363 . S
C652 C658 1.428 . S
H653 C649 0.930 . S
H654 C651 0.929 . S
S655 N656 1.613 . S
S655 N657 1.610 . S
N656 S655 1.613 . S
N656 C659 1.350 . S
N657 S655 1.610 . S
N657 C658 1.351 . S
C658 C652 1.428 . S
C658 N657 1.351 . S
C658 C659 1.434 . S
C659 C650 1.429 . S
C659 N656 1.350 . S
C659 C658 1.434 . S
C660 C661 1.369 . S
C660 C662 1.419 . S
C660 H664 0.930 . S
C661 C660 1.369 . S
C661 C670 1.429 . S
C662 C660 1.419 . S
C662 C663 1.363 . S
C662 H665 0.929 . S
C663 C662 1.363 . S
C663 C669 1.428 . S
H664 C660 0.930 . S
H665 C662 0.929 . S
S666 N667 1.613 . S
S666 N668 1.610 . S
N667 S666 1.613 . S
N667 C670 1.350 . S
N668 S666 1.610 . S
N668 C669 1.351 . S
C669 C663 1.428 . S
C669 N668 1.351 . S
C669 C670 1.434 . S
C670 C661 1.429 . S
C670 N667 1.350 . S
C670 C669 1.434 . S
C671 C672 1.369 . S
C671 C673 1.419 . S
C671 H675 0.930 . S
C672 C671 1.369 . S
C672 C681 1.429 . S
C673 C671 1.419 . S
C673 C674 1.363 . S
C673 H676 0.929 . S
C674 C673 1.363 . S
C674 C680 1.428 . S
H675 C671 0.930 . S
H676 C673 0.929 . S
S677 N678 1.613 . S
S677 N679 1.610 . S
N678 S677 1.613 . S
N678 C681 1.350 . S
N679 S677 1.610 . S
N679 C680 1.351 . S
C680 C674 1.428 . S
C680 N679 1.351 . S
C680 C681 1.434 . S
C681 C672 1.429 . S
C681 N678 1.350 . S
C681 C680 1.434 . S
C682 C683 1.369 . S
C682 C684 1.419 . S
C682 H686 0.930 . S
C683 C682 1.369 . S
C683 C692 1.429 . S
C684 C682 1.419 . S
C684 C685 1.363 . S
C684 H687 0.929 . S
C685 C684 1.363 . S
C685 C691 1.428 . S
H686 C682 0.930 . S
H687 C684 0.929 . S
S688 N689 1.613 . S
S688 N690 1.610 . S
N689 S688 1.613 . S
N689 C692 1.350 . S
N690 S688 1.610 . S
N690 C691 1.351 . S
C691 C685 1.428 . S
C691 N690 1.351 . S
C691 C692 1.434 . S
C692 C683 1.429 . S
C692 N689 1.350 . S
C692 C691 1.434 . S
C693 C694 1.369 . S
C693 C695 1.419 . S
C693 H697 0.930 . S
C694 C693 1.369 . S
C694 C703 1.429 . S
C695 C693 1.419 . S
C695 C696 1.363 . S
C695 H698 0.929 . S
C696 C695 1.363 . S
C696 C702 1.428 . S
H697 C693 0.930 . S
H698 C695 0.929 . S
S699 N700 1.613 . S
S699 N701 1.610 . S
N700 S699 1.613 . S
N700 C703 1.350 . S
N701 S699 1.610 . S
N701 C702 1.351 . S
C702 C696 1.428 . S
C702 N701 1.351 . S
C702 C703 1.434 . S
C703 C694 1.429 . S
C703 N700 1.350 . S
C703 C702 1.434 . S
C704 C705 1.369 . S
C704 C706 1.419 . S
C704 H708 0.930 . S
C705 C704 1.369 . S
C705 C714 1.429 . S
C706 C704 1.419 . S
C706 C707 1.363 . S
C706 H709 0.929 . S
C707 C706 1.363 . S
C707 C713 1.428 . S
H708 C704 0.930 . S
H709 C706 0.929 . S
S710 N711 1.613 . S
S710 N712 1.610 . S
N711 S710 1.613 . S
N711 C714 1.350 . S
N712 S710 1.610 . S
N712 C713 1.351 . S
C713 C707 1.428 . S
C713 N712 1.351 . S
C713 C714 1.434 . S
C714 C705 1.429 . S
C714 N711 1.350 . S
C714 C713 1.434 . S
C715 C716 1.369 . S
C715 C717 1.419 . S
C715 H719 0.930 . S
C716 C715 1.369 . S
C716 C725 1.429 . S
C717 C715 1.419 . S
C717 C718 1.363 . S
C717 H720 0.929 . S
C718 C717 1.363 . S
C718 C724 1.428 . S
H719 C715 0.930 . S
H720 C717 0.929 . S
S721 N722 1.613 . S
S721 N723 1.610 . S
N722 S721 1.613 . S
N722 C725 1.350 . S
N723 S721 1.610 . S
N723 C724 1.351 . S
C724 C718 1.428 . S
C724 N723 1.351 . S
C724 C725 1.434 . S
C725 C716 1.429 . S
C725 N722 1.350 . S
C725 C724 1.434 . S
C726 C727 1.369 . S
C726 C728 1.419 . S
C726 H730 0.930 . S
C727 C726 1.369 . S
C727 C736 1.429 . S
C728 C726 1.419 . S
C728 C729 1.363 . S
C728 H731 0.929 . S
C729 C728 1.363 . S
C729 C735 1.428 . S
H730 C726 0.930 . S
H731 C728 0.929 . S
S732 N733 1.613 . S
S732 N734 1.610 . S
N733 S732 1.613 . S
N733 C736 1.350 . S
N734 S732 1.610 . S
N734 C735 1.351 . S
C735 C729 1.428 . S
C735 N734 1.351 . S
C735 C736 1.434 . S
C736 C727 1.429 . S
C736 N733 1.350 . S
C736 C735 1.434 . S
C737 C738 1.369 . S
C737 C739 1.419 . S
C737 H741 0.930 . S
C738 C737 1.369 . S
C738 C747 1.429 . S
C739 C737 1.419 . S
C739 C740 1.363 . S
C739 H742 0.929 . S
C740 C739 1.363 . S
C740 C746 1.428 . S
H741 C737 0.930 . S
H742 C739 0.929 . S
S743 N744 1.613 . S
S743 N745 1.610 . S
N744 S743 1.613 . S
N744 C747 1.350 . S
N745 S743 1.610 . S
N745 C746 1.351 . S
C746 C740 1.428 . S
C746 N745 1.351 . S
C746 C747 1.434 . S
C747 C738 1.429 . S
C747 N744 1.350 . S
C747 C746 1.434 . S
C748 C749 1.369 . S
C748 C750 1.419 . S
C748 H752 0.930 . S
C749 C748 1.369 . S
C749 C758 1.429 . S
C750 C748 1.419 . S
C750 C751 1.363 . S
C750 H753 0.929 . S
C751 C750 1.363 . S
C751 C757 1.428 . S
H752 C748 0.930 . S
H753 C750 0.929 . S
S754 N755 1.613 . S
S754 N756 1.610 . S
N755 S754 1.613 . S
N755 C758 1.350 . S
N756 S754 1.610 . S
N756 C757 1.351 . S
C757 C751 1.428 . S
C757 N756 1.351 . S
C757 C758 1.434 . S
C758 C749 1.429 . S
C758 N755 1.350 . S
C758 C757 1.434 . S
C759 C760 1.369 . S
C759 C761 1.419 . S
C759 H763 0.930 . S
C760 C759 1.369 . S
C760 C769 1.429 . S
C761 C759 1.419 . S
C761 C762 1.363 . S
C761 H764 0.929 . S
C762 C761 1.363 . S
C762 C768 1.428 . S
H763 C759 0.930 . S
H764 C761 0.929 . S
S765 N766 1.613 . S
S765 N767 1.610 . S
N766 S765 1.613 . S
N766 C769 1.350 . S
N767 S765 1.610 . S
N767 C768 1.351 . S
C768 C762 1.428 . S
C768 N767 1.351 . S
C768 C769 1.434 . S
C769 C760 1.429 . S
C769 N766 1.350 . S
C769 C768 1.434 . S
C770 C771 1.369 . S
C770 C772 1.419 . S
C770 H774 0.930 . S
C771 C770 1.369 . S
C771 C780 1.429 . S
C772 C770 1.419 . S
C772 C773 1.363 . S
C772 H775 0.929 . S
C773 C772 1.363 . S
C773 C779 1.428 . S
H774 C770 0.930 . S
H775 C772 0.929 . S
S776 N777 1.613 . S
S776 N778 1.610 . S
N777 S776 1.613 . S
N777 C780 1.350 . S
N778 S776 1.610 . S
N778 C779 1.351 . S
C779 C773 1.428 . S
C779 N778 1.351 . S
C779 C780 1.434 . S
C780 C771 1.429 . S
C780 N777 1.350 . S
C780 C779 1.434 . S
C781 C782 1.369 . S
C781 C783 1.419 . S
C781 H785 0.930 . S
C782 C781 1.369 . S
C782 C791 1.429 . S
C783 C781 1.419 . S
C783 C784 1.363 . S
C783 H786 0.929 . S
C784 C783 1.363 . S
C784 C790 1.428 . S
H785 C781 0.930 . S
H786 C783 0.929 . S
S787 N788 1.613 . S
S787 N789 1.610 . S
N788 S787 1.613 . S
N788 C791 1.350 . S
N789 S787 1.610 . S
N789 C790 1.351 . S
C790 C784 1.428 . S
C790 N789 1.351 . S
C790 C791 1.434 . S
C791 C782 1.429 . S
C791 N788 1.350 . S
C791 C790 1.434 . S
C792 C793 1.369 . S
C792 C794 1.419 . S
C792 H796 0.930 . S
C793 C792 1.369 . S
C793 C802 1.429 . S
C794 C792 1.419 . S
C794 C795 1.363 . S
C794 H797 0.929 . S
C795 C794 1.363 . S
C795 C801 1.428 . S
H796 C792 0.930 . S
H797 C794 0.929 . S
S798 N799 1.613 . S
S798 N800 1.610 . S
N799 S798 1.613 . S
N799 C802 1.350 . S
N800 S798 1.610 . S
N800 C801 1.351 . S
C801 C795 1.428 . S
C801 N800 1.351 . S
C801 C802 1.434 . S
C802 C793 1.429 . S
C802 N799 1.350 . S
C802 C801 1.434 . S
C803 C804 1.369 . S
C803 C805 1.419 . S
C803 H807 0.930 . S
C804 C803 1.369 . S
C804 C813 1.429 . S
C805 C803 1.419 . S
C805 C806 1.363 . S
C805 H808 0.929 . S
C806 C805 1.363 . S
C806 C812 1.428 . S
H807 C803 0.930 . S
H808 C805 0.929 . S
S809 N810 1.613 . S
S809 N811 1.610 . S
N810 S809 1.613 . S
N810 C813 1.350 . S
N811 S809 1.610 . S
N811 C812 1.351 . S
C812 C806 1.428 . S
C812 N811 1.351 . S
C812 C813 1.434 . S
C813 C804 1.429 . S
C813 N810 1.350 . S
C813 C812 1.434 . S
C814 C815 1.369 . S
C814 C816 1.419 . S
C814 H818 0.930 . S
C815 C814 1.369 . S
C815 C824 1.429 . S
C816 C814 1.419 . S
C816 C817 1.363 . S
C816 H819 0.929 . S
C817 C816 1.363 . S
C817 C823 1.428 . S
H818 C814 0.930 . S
H819 C816 0.929 . S
S820 N821 1.613 . S
S820 N822 1.610 . S
N821 S820 1.613 . S
N821 C824 1.350 . S
N822 S820 1.610 . S
N822 C823 1.351 . S
C823 C817 1.428 . S
C823 N822 1.351 . S
C823 C824 1.434 . S
C824 C815 1.429 . S
C824 N821 1.350 . S
C824 C823 1.434 . S
C825 C826 1.369 . S
C825 C827 1.419 . S
C825 H829 0.930 . S
C826 C825 1.369 . S
C826 C835 1.429 . S
C827 C825 1.419 . S
C827 C828 1.363 . S
C827 H830 0.929 . S
C828 C827 1.363 . S
C828 C834 1.428 . S
H829 C825 0.930 . S
H830 C827 0.929 . S
S831 N832 1.613 . S
S831 N833 1.610 . S
N832 S831 1.613 . S
N832 C835 1.350 . S
N833 S831 1.610 . S
N833 C834 1.351 . S
C834 C828 1.428 . S
C834 N833 1.351 . S
C834 C835 1.434 . S
C835 C826 1.429 . S
C835 N832 1.350 . S
C835 C834 1.434 . S
C836 C837 1.369 . S
C836 C838 1.419 . S
C836 H840 0.930 . S
C837 C836 1.369 . S
C837 C846 1.429 . S
C838 C836 1.419 . S
C838 C839 1.363 . S
C838 H841 0.929 . S
C839 C838 1.363 . S
C839 C845 1.428 . S
H840 C836 0.930 . S
H841 C838 0.929 . S
S842 N843 1.613 . S
S842 N844 1.610 . S
N843 S842 1.613 . S
N843 C846 1.350 . S
N844 S842 1.610 . S
N844 C845 1.351 . S
C845 C839 1.428 . S
C845 N844 1.351 . S
C845 C846 1.434 . S
C846 C837 1.429 . S
C846 N843 1.350 . S
C846 C845 1.434 . S
C847 C848 1.369 . S
C847 C849 1.419 . S
C847 H851 0.930 . S
C848 C847 1.369 . S
C848 C857 1.429 . S
C849 C847 1.419 . S
C849 C850 1.363 . S
C849 H852 0.929 . S
C850 C849 1.363 . S
C850 C856 1.428 . S
H851 C847 0.930 . S
H852 C849 0.929 . S
S853 N854 1.613 . S
S853 N855 1.610 . S
N854 S853 1.613 . S
N854 C857 1.350 . S
N855 S853 1.610 . S
N855 C856 1.351 . S
C856 C850 1.428 . S
C856 N855 1.351 . S
C856 C857 1.434 . S
C857 C848 1.429 . S
C857 N854 1.350 . S
C857 C856 1.434 . S
C858 C859 1.369 . S
C858 C860 1.419 . S
C858 H862 0.930 . S
C859 C858 1.369 . S
C859 C868 1.429 . S
C860 C858 1.419 . S
C860 C861 1.363 . S
C860 H863 0.929 . S
C861 C860 1.363 . S
C861 C867 1.428 . S
H862 C858 0.930 . S
H863 C860 0.929 . S
S864 N865 1.613 . S
S864 N866 1.610 . S
N865 S864 1.613 . S
N865 C868 1.350 . S
N866 S864 1.610 . S
N866 C867 1.351 . S
C867 C861 1.428 . S
C867 N866 1.351 . S
C867 C868 1.434 . S
C868 C859 1.429 . S
C868 N865 1.350 . S
C868 C867 1.434 . S
C869 C870 1.369 . S
C869 C871 1.419 . S
C869 H873 0.930 . S
C870 C869 1.369 . S
C870 C879 1.429 . S
C871 C869 1.419 . S
C871 C872 1.363 . S
C871 H874 0.929 . S
C872 C871 1.363 . S
C872 C878 1.428 . S
H873 C869 0.930 . S
H874 C871 0.929 . S
S875 N876 1.613 . S
S875 N877 1.610 . S
N876 S875 1.613 . S
N876 C879 1.350 . S
N877 S875 1.610 . S
N877 C878 1.351 . S
C878 C872 1.428 . S
C878 N877 1.351 . S
C878 C879 1.434 . S
C879 C870 1.429 . S
C879 N876 1.350 . S
C879 C878 1.434 . S
C880 C881 1.369 . S
C880 C882 1.419 . S
C880 H884 0.930 . S
C881 C880 1.369 . S
C881 C890 1.429 1_655 S
C882 C880 1.419 . S
C882 C883 1.363 1_655 S
C882 H885 0.929 . S
C883 C882 1.363 1_455 S
C883 C889 1.428 . S
H884 C880 0.930 . S
H885 C882 0.929 . S
S886 N887 1.613 . S
S886 N888 1.610 . S
N887 S886 1.613 . S
N887 C890 1.350 . S
N888 S886 1.610 . S
N888 C889 1.351 . S
C889 C883 1.428 . S
C889 N888 1.351 . S
C889 C890 1.434 . S
C890 C881 1.429 1_455 S
C890 N887 1.350 . S
C890 C889 1.434 . S
C891 C892 1.369 1_545 S
C891 C893 1.419 . S
C891 H895 0.930 . S
C892 C891 1.369 1_565 S
C892 C901 1.429 . S
C893 C891 1.419 . S
C893 C894 1.363 . S
C893 H896 0.929 . S
C894 C893 1.363 . S
C894 C900 1.428 1_545 S
H895 C891 0.930 . S
H896 C893 0.929 . S
S897 N898 1.613 . S
S897 N899 1.610 . S
N898 S897 1.613 . S
N898 C901 1.350 . S
N899 S897 1.610 . S
N899 C900 1.351 . S
C900 C894 1.428 1_565 S
C900 N899 1.351 . S
C900 C901 1.434 . S
C901 C892 1.429 . S
C901 N898 1.350 . S
C901 C900 1.434 . S
C902 C903 1.369 . S
C902 C904 1.419 1_545 S
C902 H906 0.930 . S
C903 C902 1.369 . S
C903 C912 1.429 . S
C904 C902 1.419 1_565 S
C904 C905 1.363 . S
C904 H907 0.929 . S
C905 C904 1.363 . S
C905 C911 1.428 . S
H906 C902 0.930 . S
H907 C904 0.929 . S
S908 N909 1.613 . S
S908 N910 1.610 1_545 S
N909 S908 1.613 . S
N909 C912 1.350 . S
N910 S908 1.610 1_565 S
N910 C911 1.351 . S
C911 C905 1.428 . S
C911 N910 1.351 . S
C911 C912 1.434 1_565 S
C912 C903 1.429 . S
C912 N909 1.350 . S
C912 C911 1.434 1_545 S
C913 C914 1.369 . S
C913 C915 1.419 1_655 S
C913 H917 0.930 . S
C914 C913 1.369 . S
C914 C923 1.429 . S
C915 C913 1.419 1_455 S
C915 C916 1.363 . S
C915 H918 0.929 . S
C916 C915 1.363 . S
C916 C922 1.428 . S
H917 C913 0.930 . S
H918 C915 0.929 . S
S919 N920 1.613 1_455 S
S919 N921 1.610 . S
N920 S919 1.613 1_655 S
N920 C923 1.350 . S
N921 S919 1.610 . S
N921 C922 1.351 . S
C922 C916 1.428 . S
C922 N921 1.351 . S
C922 C923 1.434 1_455 S
C923 C914 1.429 . S
C923 N920 1.350 . S
C923 C922 1.434 1_655 S
C924 C925 1.369 1_455 S
C924 C926 1.419 . S
C924 H928 0.930 . S
C925 C924 1.369 1_655 S
C925 C934 1.429 . S
C926 C924 1.419 . S
C926 C927 1.363 . S
C926 H929 0.929 . S
C927 C926 1.363 . S
C927 C933 1.428 1_455 S
H928 C924 0.930 . S
H929 C926 0.929 . S
S930 N931 1.613 . S
S930 N932 1.610 . S
N931 S930 1.613 . S
N931 C934 1.350 . S
N932 S930 1.610 . S
N932 C933 1.351 . S
C933 C927 1.428 1_655 S
C933 N932 1.351 . S
C933 C934 1.434 . S
C934 C925 1.429 . S
C934 N931 1.350 . S
C934 C933 1.434 . S
C935 C936 1.369 . S
C935 C937 1.419 . S
C935 H939 0.930 . S
C936 C935 1.369 . S
C936 C945 1.429 1_545 S
C937 C935 1.419 . S
C937 C938 1.363 1_545 S
C937 H940 0.929 . S
C938 C937 1.363 1_565 S
C938 C944 1.428 . S
H939 C935 0.930 . S
H940 C937 0.929 . S
S941 N942 1.613 . S
S941 N943 1.610 . S
N942 S941 1.613 . S
N942 C945 1.350 . S
N943 S941 1.610 . S
N943 C944 1.351 . S
C944 C938 1.428 . S
C944 N943 1.351 . S
C944 C945 1.434 . S
C945 C936 1.429 1_565 S
C945 N942 1.350 . S
C945 C944 1.434 . S
C946 C947 1.369 . S
C946 C948 1.419 1_565 S
C946 H950 0.930 . S
C947 C946 1.369 . S
C947 C956 1.429 . S
C948 C946 1.419 1_545 S
C948 C949 1.363 . S
C948 H951 0.929 . S
C949 C948 1.363 . S
C949 C955 1.428 . S
H950 C946 0.930 . S
H951 C948 0.929 . S
S952 N953 1.613 . S
S952 N954 1.610 1_565 S
N953 S952 1.613 . S
N953 C956 1.350 . S
N954 S952 1.610 1_545 S
N954 C955 1.351 . S
C955 C949 1.428 . S
C955 N954 1.351 . S
C955 C956 1.434 1_545 S
C956 C947 1.429 . S
C956 N953 1.350 . S
C956 C955 1.434 1_565 S
C957 C958 1.369 . S
C957 C959 1.419 1_655 S
C957 H961 0.930 . S
C958 C957 1.369 . S
C958 C967 1.429 . S
C959 C957 1.419 1_455 S
C959 C960 1.363 . S
C959 H962 0.929 . S
C960 C959 1.363 . S
C960 C966 1.428 . S
H961 C957 0.930 . S
H962 C959 0.929 . S
S963 N964 1.613 . S
S963 N965 1.610 1_655 S
N964 S963 1.613 . S
N964 C967 1.350 . S
N965 S963 1.610 1_455 S
N965 C966 1.351 . S
C966 C960 1.428 . S
C966 N965 1.351 . S
C966 C967 1.434 1_455 S
C967 C958 1.429 . S
C967 N964 1.350 . S
C967 C966 1.434 1_655 S
C529 C337 1.405 . S
C531 C7 1.405 . S
C540 C370 1.403 . S
C542 C40 1.404 . S
C551 C271 1.401 . S
C553 C73 1.402 . S
C562 C304 1.406 . S
C564 C106 1.405 . S
C573 C139 1.402 . S
C575 C469 1.402 . S
C584 C172 1.402 . S
C586 C502 1.402 . S
C595 C403 1.405 . S
C597 C205 1.404 . S
C606 C436 1.406 . S
C608 C238 1.405 . S
C617 C120 1.542 . S
C619 N2 1.467 . S
C628 N35 1.473 . S
C630 C21 1.538 . S
C639 C54 1.541 . S
C641 N68 1.468 . S
C650 N101 1.475 . S
C652 C87 1.538 . S
C661 C186 1.538 . S
C663 N134 1.474 . S
C672 C219 1.537 . S
C674 N167 1.474 . S
C683 C252 1.543 . S
C685 N200 1.467 . S
C694 N233 1.477 . S
C696 C153 1.537 . S
C705 N266 1.466 . S
C707 C384 1.542 . S
C716 N299 1.468 . S
C718 C285 1.540 . S
C727 C318 1.537 . S
C729 N332 1.476 . S
C738 N365 1.469 . S
C740 C351 1.540 . S
C749 N398 1.468 . S
C751 C450 1.541 . S
C760 N431 1.465 . S
C762 C483 1.542 . S
C771 N464 1.477 . S
C773 C516 1.537 . S
C782 C417 1.538 . S
C784 N497 1.473 . S
C793 C249 1.189 . S
C795 C18 1.189 . S
C804 C51 1.186 . S
C806 C150 1.191 . S
C815 C183 1.187 . S
C817 C84 1.193 . S
C826 C216 1.193 . S
C828 C117 1.187 . S
C837 C282 1.188 . S
C839 C513 1.192 . S
C848 C414 1.187 . S
C850 C315 1.193 . S
C859 C348 1.191 . S
C861 C447 1.187 . S
C870 C480 1.188 . S
C872 C381 1.193 . S
C881 N79 1.506 . S
C883 N13 1.507 . S
C892 N112 1.511 . S
C894 N46 1.510 . S
C903 N145 1.505 . S
C905 N211 1.506 . S
C914 N178 1.509 . S
C916 N244 1.509 . S
C925 N277 1.505 . S
C927 N343 1.506 . S
C936 N376 1.507 . S
C938 N310 1.507 . S
C947 N409 1.511 . S
C949 N475 1.510 . S
C958 N508 1.512 . S
C960 N442 1.511 . S
