# Generated by pormake.
# Topology mer, (4)-cn, num edge types: 1
# Building blocks:
#     Node 0, Type 0, BuildingBlock: AZAVOO_clean_sbu_0, # of connection points: 4
#     Node 1, Type 0, BuildingBlock: AZAVOO_clean_sbu_0, # of connection points: 4
#     Node 2, Type 0, BuildingBlock: AZAVOO_clean_sbu_0, # of connection points: 4
#     Node 3, Type 0, BuildingBlock: AZAVOO_clean_sbu_0, # of connection points: 4
#     Node 4, Type 0, BuildingBlock: AZAVOO_clean_sbu_0, # of connection points: 4
#     Node 5, Type 0, BuildingBlock: AZAVOO_clean_sbu_0, # of connection points: 4
#     Node 6, Type 0, BuildingBlock: AZAVOO_clean_sbu_0, # of connection points: 4
#     Node 7, Type 0, BuildingBlock: AZAVOO_clean_sbu_0, # of connection points: 4
#     Node 8, Type 0, BuildingBlock: AZAVOO_clean_sbu_0, # of connection points: 4
#     Node 9, Type 0, BuildingBlock: AZAVOO_clean_sbu_0, # of connection points: 4
#     Node 10, Type 0, BuildingBlock: AZAVOO_clean_sbu_0, # of connection points: 4
#     Node 11, Type 0, BuildingBlock: AZAVOO_clean_sbu_0, # of connection points: 4
#     Node 12, Type 0, BuildingBlock: AZAVOO_clean_sbu_0, # of connection points: 4
#     Node 13, Type 0, BuildingBlock: AZAVOO_clean_sbu_0, # of connection points: 4
#     Node 14, Type 0, BuildingBlock: AZAVOO_clean_sbu_0, # of connection points: 4
#     Node 15, Type 0, BuildingBlock: AZAVOO_clean_sbu_0, # of connection points: 4
#     Node 16, Type 0, BuildingBlock: AZAVOO_clean_sbu_0, # of connection points: 4
#     Node 17, Type 0, BuildingBlock: AZAVOO_clean_sbu_0, # of connection points: 4
#     Node 18, Type 0, BuildingBlock: AZAVOO_clean_sbu_0, # of connection points: 4
#     Node 19, Type 0, BuildingBlock: AZAVOO_clean_sbu_0, # of connection points: 4
#     Node 20, Type 0, BuildingBlock: AZAVOO_clean_sbu_0, # of connection points: 4
#     Node 21, Type 0, BuildingBlock: AZAVOO_clean_sbu_0, # of connection points: 4
#     Node 22, Type 0, BuildingBlock: AZAVOO_clean_sbu_0, # of connection points: 4
#     Node 23, Type 0, BuildingBlock: AZAVOO_clean_sbu_0, # of connection points: 4
#     Node 24, Type 0, BuildingBlock: AZAVOO_clean_sbu_0, # of connection points: 4
#     Node 25, Type 0, BuildingBlock: AZAVOO_clean_sbu_0, # of connection points: 4
#     Node 26, Type 0, BuildingBlock: AZAVOO_clean_sbu_0, # of connection points: 4
#     Node 27, Type 0, BuildingBlock: AZAVOO_clean_sbu_0, # of connection points: 4
#     Node 28, Type 0, BuildingBlock: AZAVOO_clean_sbu_0, # of connection points: 4
#     Node 29, Type 0, BuildingBlock: AZAVOO_clean_sbu_0, # of connection points: 4
#     Node 30, Type 0, BuildingBlock: AZAVOO_clean_sbu_0, # of connection points: 4
#     Node 31, Type 0, BuildingBlock: AZAVOO_clean_sbu_0, # of connection points: 4
#     Edge 32, Type (0, 0), BuildingBlock: OJICUG_clean_linker_0, # of connection points: 2
#     Edge 33, Type (0, 0), BuildingBlock: OJICUG_clean_linker_0, # of connection points: 2
#     Edge 34, Type (0, 0), BuildingBlock: OJICUG_clean_linker_0, # of connection points: 2
#     Edge 35, Type (0, 0), BuildingBlock: OJICUG_clean_linker_0, # of connection points: 2
#     Edge 36, Type (0, 0), BuildingBlock: OJICUG_clean_linker_0, # of connection points: 2
#     Edge 37, Type (0, 0), BuildingBlock: OJICUG_clean_linker_0, # of connection points: 2
#     Edge 38, Type (0, 0), BuildingBlock: OJICUG_clean_linker_0, # of connection points: 2
#     Edge 39, Type (0, 0), BuildingBlock: OJICUG_clean_linker_0, # of connection points: 2
#     Edge 40, Type (0, 0), BuildingBlock: OJICUG_clean_linker_0, # of connection points: 2
#     Edge 41, Type (0, 0), BuildingBlock: OJICUG_clean_linker_0, # of connection points: 2
#     Edge 42, Type (0, 0), BuildingBlock: OJICUG_clean_linker_0, # of connection points: 2
#     Edge 43, Type (0, 0), BuildingBlock: OJICUG_clean_linker_0, # of connection points: 2
#     Edge 44, Type (0, 0), BuildingBlock: OJICUG_clean_linker_0, # of connection points: 2
#     Edge 45, Type (0, 0), BuildingBlock: OJICUG_clean_linker_0, # of connection points: 2
#     Edge 46, Type (0, 0), BuildingBlock: OJICUG_clean_linker_0, # of connection points: 2
#     Edge 47, Type (0, 0), BuildingBlock: OJICUG_clean_linker_0, # of connection points: 2
#     Edge 48, Type (0, 0), BuildingBlock: OJICUG_clean_linker_0, # of connection points: 2
#     Edge 49, Type (0, 0), BuildingBlock: OJICUG_clean_linker_0, # of connection points: 2
#     Edge 50, Type (0, 0), BuildingBlock: OJICUG_clean_linker_0, # of connection points: 2
#     Edge 51, Type (0, 0), BuildingBlock: OJICUG_clean_linker_0, # of connection points: 2
#     Edge 52, Type (0, 0), BuildingBlock: OJICUG_clean_linker_0, # of connection points: 2
#     Edge 53, Type (0, 0), BuildingBlock: OJICUG_clean_linker_0, # of connection points: 2
#     Edge 54, Type (0, 0), BuildingBlock: OJICUG_clean_linker_0, # of connection points: 2
#     Edge 55, Type (0, 0), BuildingBlock: OJICUG_clean_linker_0, # of connection points: 2
#     Edge 56, Type (0, 0), BuildingBlock: OJICUG_clean_linker_0, # of connection points: 2
#     Edge 57, Type (0, 0), BuildingBlock: OJICUG_clean_linker_0, # of connection points: 2
#     Edge 58, Type (0, 0), BuildingBlock: OJICUG_clean_linker_0, # of connection points: 2
#     Edge 59, Type (0, 0), BuildingBlock: OJICUG_clean_linker_0, # of connection points: 2
#     Edge 60, Type (0, 0), BuildingBlock: OJICUG_clean_linker_0, # of connection points: 2
#     Edge 61, Type (0, 0), BuildingBlock: OJICUG_clean_linker_0, # of connection points: 2
#     Edge 62, Type (0, 0), BuildingBlock: OJICUG_clean_linker_0, # of connection points: 2
#     Edge 63, Type (0, 0), BuildingBlock: OJICUG_clean_linker_0, # of connection points: 2
#     Edge 64, Type (0, 0), BuildingBlock: OJICUG_clean_linker_0, # of connection points: 2
#     Edge 65, Type (0, 0), BuildingBlock: OJICUG_clean_linker_0, # of connection points: 2
#     Edge 66, Type (0, 0), BuildingBlock: OJICUG_clean_linker_0, # of connection points: 2
#     Edge 67, Type (0, 0), BuildingBlock: OJICUG_clean_linker_0, # of connection points: 2
#     Edge 68, Type (0, 0), BuildingBlock: OJICUG_clean_linker_0, # of connection points: 2
#     Edge 69, Type (0, 0), BuildingBlock: OJICUG_clean_linker_0, # of connection points: 2
#     Edge 70, Type (0, 0), BuildingBlock: OJICUG_clean_linker_0, # of connection points: 2
#     Edge 71, Type (0, 0), BuildingBlock: OJICUG_clean_linker_0, # of connection points: 2
#     Edge 72, Type (0, 0), BuildingBlock: OJICUG_clean_linker_0, # of connection points: 2
#     Edge 73, Type (0, 0), BuildingBlock: OJICUG_clean_linker_0, # of connection points: 2
#     Edge 74, Type (0, 0), BuildingBlock: OJICUG_clean_linker_0, # of connection points: 2
#     Edge 75, Type (0, 0), BuildingBlock: OJICUG_clean_linker_0, # of connection points: 2
#     Edge 76, Type (0, 0), BuildingBlock: OJICUG_clean_linker_0, # of connection points: 2
#     Edge 77, Type (0, 0), BuildingBlock: OJICUG_clean_linker_0, # of connection points: 2
#     Edge 78, Type (0, 0), BuildingBlock: OJICUG_clean_linker_0, # of connection points: 2
#     Edge 79, Type (0, 0), BuildingBlock: OJICUG_clean_linker_0, # of connection points: 2
#     Edge 80, Type (0, 0), BuildingBlock: OJICUG_clean_linker_0, # of connection points: 2
#     Edge 81, Type (0, 0), BuildingBlock: OJICUG_clean_linker_0, # of connection points: 2
#     Edge 82, Type (0, 0), BuildingBlock: OJICUG_clean_linker_0, # of connection points: 2
#     Edge 83, Type (0, 0), BuildingBlock: OJICUG_clean_linker_0, # of connection points: 2
#     Edge 84, Type (0, 0), BuildingBlock: OJICUG_clean_linker_0, # of connection points: 2
#     Edge 85, Type (0, 0), BuildingBlock: OJICUG_clean_linker_0, # of connection points: 2
#     Edge 86, Type (0, 0), BuildingBlock: OJICUG_clean_linker_0, # of connection points: 2
#     Edge 87, Type (0, 0), BuildingBlock: OJICUG_clean_linker_0, # of connection points: 2
#     Edge 88, Type (0, 0), BuildingBlock: OJICUG_clean_linker_0, # of connection points: 2
#     Edge 89, Type (0, 0), BuildingBlock: OJICUG_clean_linker_0, # of connection points: 2
#     Edge 90, Type (0, 0), BuildingBlock: OJICUG_clean_linker_0, # of connection points: 2
#     Edge 91, Type (0, 0), BuildingBlock: OJICUG_clean_linker_0, # of connection points: 2
#     Edge 92, Type (0, 0), BuildingBlock: OJICUG_clean_linker_0, # of connection points: 2
#     Edge 93, Type (0, 0), BuildingBlock: OJICUG_clean_linker_0, # of connection points: 2
#     Edge 94, Type (0, 0), BuildingBlock: OJICUG_clean_linker_0, # of connection points: 2
#     Edge 95, Type (0, 0), BuildingBlock: OJICUG_clean_linker_0, # of connection points: 2
# Relax obj value: 0.176
# Max RMSD: 0.169
# Mean RMSD: 0.165
data_MOF--net-mer--node1-AZAVOO_clean_sbu_0--edge1-OJICUG_clean_linker_0
_symmetry_space_group_name_H-M    P1
_symmetry_Int_Tables_number       1
_symmetry_cell_setting            triclinic
loop_
_symmetry_equiv_pos_as_xyz
'x, y, z'
_cell_length_a     50.829082
_cell_length_b     51.378236
_cell_length_c     29.951283
_cell_angle_alpha  90.008184
_cell_angle_beta   90.025796
_cell_angle_gamma 89.979146
loop_
_atom_site_label
_atom_site_type_symbol
_atom_site_fract_x
_atom_site_fract_y
_atom_site_fract_z
_atom_type_partial_charge
Mg0 Mg 0.09227 0.22476 0.2642 0.0
O1 O 0.11009 0.22959 0.33452 0.0
O2 O 0.15368 0.22566 0.327 0.0
Mg3 Mg 0.16403 0.21728 0.25457 0.0
C4 C 0.13329 0.22947 0.351 0.0
C5 C 0.0358 0.24925 0.26436 0.0
O6 O 0.04225 0.25339 0.22249 0.0
O7 O 0.10665 0.26597 0.24439 0.0
O8 O 0.14982 0.25812 0.23811 0.0
O9 O 0.09042 0.18117 0.27423 0.0
O10 O 0.12426 0.20223 0.24542 0.0
C11 C 0.13015 0.27349 0.23581 0.0
C12 C 0.11436 0.18081 0.25968 0.0
O13 O 0.05265 0.23907 0.29037 0.0
Mg14 Mg 0.70698 0.09403 0.4067 0.0
O15 O 0.74597 0.11625 0.39595 0.0
O16 O 0.77814 0.09617 0.4335 0.0
Mg17 Mg 0.76035 0.05989 0.4651 0.0
C18 C 0.77 0.11455 0.40836 0.0
C19 C 0.663 0.12435 0.35387 0.0
O20 O 0.64823 0.11423 0.38539 0.0
O21 O 0.72019 0.06351 0.35604 0.0
O22 O 0.75311 0.04481 0.39413 0.0
O23 O 0.70067 0.11653 0.46933 0.0
O24 O 0.72165 0.07887 0.46635 0.0
C25 C 0.73898 0.0471 0.35907 0.0
C26 C 0.71455 0.09887 0.48925 0.0
O27 O 0.68743 0.1189 0.35292 0.0
Mg28 Mg 0.91118 0.76313 0.2646 0.0
O29 O 0.89374 0.7577 0.33505 0.0
O30 O 0.8501 0.76149 0.32817 0.0
Mg31 Mg 0.83931 0.77033 0.25605 0.0
C32 C 0.87063 0.75762 0.35182 0.0
C33 C 0.96833 0.7404 0.26304 0.0
O34 O 0.9621 0.73771 0.2207 0.0
O35 O 0.89691 0.72199 0.24372 0.0
O36 O 0.85369 0.72978 0.23815 0.0
O37 O 0.91286 0.80666 0.27562 0.0
O38 O 0.87896 0.78565 0.24682 0.0
C39 C 0.8734 0.71449 0.23511 0.0
C40 C 0.88883 0.80701 0.26145 0.0
O41 O 0.95106 0.74894 0.28997 0.0
Mg42 Mg 0.29816 0.89556 0.40668 0.0
O43 O 0.2589 0.87377 0.39608 0.0
O44 O 0.22699 0.8941 0.43385 0.0
Mg45 Mg 0.24524 0.9302 0.46532 0.0
C46 C 0.2349 0.87568 0.4086 0.0
C47 C 0.34187 0.86536 0.35301 0.0
O48 O 0.3569 0.87586 0.38384 0.0
O49 O 0.28512 0.92613 0.35605 0.0
O50 O 0.2524 0.94509 0.39422 0.0
O51 O 0.30439 0.873 0.46926 0.0
O52 O 0.28375 0.91085 0.46639 0.0
C53 C 0.26644 0.94265 0.3591 0.0
C54 C 0.29072 0.89079 0.48925 0.0
O55 O 0.31737 0.87052 0.3528 0.0
Mg56 Mg 0.0928 0.76493 0.73254 0.0
O57 O 0.11038 0.7599 0.66212 0.0
O58 O 0.15399 0.7638 0.66931 0.0
Mg59 Mg 0.16455 0.77236 0.74162 0.0
C60 C 0.13353 0.75996 0.64548 0.0
C61 C 0.0362 0.74111 0.73342 0.0
O62 O 0.04268 0.73766 0.77548 0.0
O63 O 0.10721 0.72378 0.75264 0.0
O64 O 0.15039 0.73157 0.75868 0.0
O65 O 0.09084 0.80846 0.72217 0.0
O66 O 0.12481 0.78749 0.75089 0.0
C67 C 0.1307 0.71624 0.76124 0.0
C68 C 0.11482 0.80887 0.73654 0.0
O69 O 0.05313 0.75059 0.70684 0.0
Mg70 Mg 0.29879 0.09379 0.5894 0.0
O71 O 0.25952 0.11556 0.59997 0.0
O72 O 0.2276 0.09524 0.56219 0.0
Mg73 Mg 0.24586 0.05911 0.53081 0.0
C74 C 0.23552 0.11366 0.58743 0.0
C75 C 0.34238 0.12427 0.64299 0.0
O76 O 0.35745 0.11401 0.61199 0.0
O77 O 0.2858 0.06326 0.64008 0.0
O78 O 0.25304 0.04433 0.60197 0.0
O79 O 0.30491 0.11635 0.5268 0.0
O80 O 0.28435 0.07847 0.52972 0.0
C81 C 0.26709 0.04678 0.63708 0.0
C82 C 0.29122 0.09856 0.50686 0.0
O83 O 0.31794 0.11887 0.64329 0.0
Mg84 Mg 0.91218 0.2261 0.73321 0.0
O85 O 0.8944 0.23094 0.66285 0.0
O86 O 0.85082 0.22691 0.67032 0.0
Mg87 Mg 0.84044 0.21847 0.7427 0.0
C88 C 0.87121 0.23077 0.64635 0.0
C89 C 0.96912 0.24898 0.73401 0.0
O90 O 0.963 0.25167 0.77638 0.0
O91 O 0.89769 0.26728 0.75316 0.0
O92 O 0.85454 0.2593 0.75936 0.0
O93 O 0.91419 0.18253 0.72304 0.0
O94 O 0.88024 0.20349 0.75184 0.0
C95 C 0.87416 0.27472 0.76175 0.0
C96 C 0.89023 0.1821 0.73752 0.0
O97 O 0.95182 0.24038 0.7072 0.0
Mg98 Mg 0.70633 0.89616 0.59052 0.0
O99 O 0.74503 0.87319 0.60112 0.0
O100 O 0.77715 0.89286 0.56288 0.0
Mg101 Mg 0.75981 0.92923 0.53088 0.0
C102 C 0.769 0.87462 0.58829 0.0
C103 C 0.66165 0.86885 0.6463 0.0
O104 O 0.64686 0.88003 0.61585 0.0
O105 O 0.72034 0.92668 0.64044 0.0
O106 O 0.75325 0.94484 0.6017 0.0
O107 O 0.69923 0.8735 0.52816 0.0
O108 O 0.72089 0.91077 0.53052 0.0
C109 C 0.73928 0.94285 0.63698 0.0
C110 C 0.71326 0.89089 0.50785 0.0
O111 O 0.68644 0.87236 0.64527 0.0
Mg112 Mg 0.87365 0.75622 0.64767 0.0
O113 O 0.87165 0.75286 0.57043 0.0
O114 O 0.82874 0.75069 0.55399 0.0
Mg115 Mg 0.80406 0.75038 0.61669 0.0
C116 C 0.85283 0.75131 0.54208 0.0
C117 C 0.92622 0.73883 0.68528 0.0
O118 O 0.9089 0.73233 0.71586 0.0
O119 O 0.86576 0.7126 0.65431 0.0
O120 O 0.82344 0.71143 0.63396 0.0
O121 O 0.86883 0.79942 0.64161 0.0
O122 O 0.83576 0.77199 0.64892 0.0
C123 C 0.84465 0.70011 0.646 0.0
C124 C 0.84368 0.79539 0.64193 0.0
O125 O 0.91801 0.74915 0.64924 0.0
Mg126 Mg 0.2389 0.90544 0.76698 0.0
O127 O 0.24966 0.8962 0.69421 0.0
O128 O 0.24544 0.85353 0.68161 0.0
Mg129 Mg 0.23125 0.83523 0.74665 0.0
C130 C 0.25128 0.87643 0.66848 0.0
C131 C 0.24054 0.96484 0.75707 0.0
O132 O 0.21594 0.96087 0.7687 0.0
O133 O 0.27862 0.88876 0.78964 0.0
O134 O 0.27081 0.84654 0.77634 0.0
O135 O 0.19601 0.90952 0.74815 0.0
O136 O 0.21503 0.87269 0.76837 0.0
C137 C 0.28579 0.86494 0.78941 0.0
C138 C 0.19457 0.88462 0.75373 0.0
O139 O 0.25629 0.94567 0.75677 0.0
Mg140 Mg 0.13118 0.23197 0.64688 0.0
O141 O 0.13305 0.23491 0.5696 0.0
O142 O 0.17595 0.23612 0.55287 0.0
Mg143 Mg 0.20085 0.23627 0.61534 0.0
C144 C 0.15181 0.23592 0.54111 0.0
C145 C 0.07897 0.25001 0.68485 0.0
O146 O 0.09648 0.25609 0.71541 0.0
O147 O 0.14005 0.27547 0.65298 0.0
O148 O 0.18236 0.27557 0.63241 0.0
O149 O 0.1354 0.18859 0.64129 0.0
O150 O 0.16877 0.21571 0.64827 0.0
C151 C 0.16146 0.28743 0.64446 0.0
C152 C 0.16058 0.19237 0.64163 0.0
O153 O 0.08692 0.23976 0.64861 0.0
Mg154 Mg 0.76654 0.08469 0.76703 0.0
O155 O 0.75586 0.09382 0.69415 0.0
O156 O 0.75963 0.13654 0.68162 0.0
Mg157 Mg 0.77341 0.15499 0.74681 0.0
C158 C 0.75407 0.11357 0.66843 0.0
C159 C 0.7658 0.02533 0.75625 0.0
O160 O 0.79042 0.02967 0.76733 0.0
O161 O 0.72654 0.10091 0.78925 0.0
O162 O 0.73386 0.14322 0.77599 0.0
O163 O 0.80953 0.0811 0.74867 0.0
O164 O 0.79003 0.11772 0.76865 0.0
C165 C 0.71906 0.12464 0.78889 0.0
C166 C 0.81068 0.10602 0.75426 0.0
O167 O 0.74971 0.04423 0.75662 0.0
Mg168 Mg 0.87347 0.23381 0.35043 0.0
O169 O 0.87152 0.23639 0.42774 0.0
O170 O 0.8286 0.23742 0.44439 0.0
Mg171 Mg 0.80378 0.23783 0.38184 0.0
C172 C 0.85273 0.23722 0.4562 0.0
C173 C 0.92595 0.25211 0.31325 0.0
O174 O 0.90862 0.25878 0.28275 0.0
O175 O 0.86455 0.27736 0.34505 0.0
O176 O 0.82224 0.27726 0.36557 0.0
O177 O 0.86942 0.19043 0.35533 0.0
O178 O 0.83592 0.21744 0.34871 0.0
C179 C 0.84311 0.28923 0.35378 0.0
C180 C 0.84421 0.1941 0.35504 0.0
O181 O 0.91775 0.24152 0.34904 0.0
Mg182 Mg 0.76543 0.9048 0.23011 0.0
O183 O 0.75384 0.89556 0.3025 0.0
O184 O 0.75717 0.85281 0.31496 0.0
Mg185 Mg 0.77167 0.83441 0.25012 0.0
C186 C 0.75165 0.87579 0.32808 0.0
C187 C 0.76473 0.96423 0.24023 0.0
O188 O 0.78932 0.9598 0.22907 0.0
O189 O 0.72573 0.88881 0.20584 0.0
O190 O 0.73271 0.84641 0.21885 0.0
O191 O 0.8082 0.90812 0.25018 0.0
O192 O 0.7888 0.87164 0.22921 0.0
C193 C 0.71821 0.8651 0.20537 0.0
C194 C 0.80932 0.88321 0.24446 0.0
O195 O 0.74864 0.94534 0.24017 0.0
Mg196 Mg 0.13065 0.75724 0.34956 0.0
O197 O 0.13269 0.75431 0.42686 0.0
O198 O 0.17564 0.75325 0.44337 0.0
Mg199 Mg 0.20042 0.75318 0.3808 0.0
C200 C 0.15153 0.75337 0.45525 0.0
C201 C 0.07832 0.73922 0.3117 0.0
O202 O 0.09576 0.73321 0.281 0.0
O203 O 0.1397 0.71374 0.34341 0.0
O204 O 0.18205 0.71386 0.36381 0.0
O205 O 0.13476 0.80065 0.35511 0.0
O206 O 0.16819 0.7736 0.34798 0.0
C207 C 0.1612 0.70189 0.35185 0.0
C208 C 0.15996 0.79692 0.35464 0.0
O209 O 0.08637 0.74937 0.34798 0.0
Mg210 Mg 0.23875 0.08429 0.22946 0.0
O211 O 0.24936 0.09343 0.30234 0.0
O212 O 0.24517 0.1361 0.31508 0.0
Mg213 Mg 0.23116 0.1545 0.24999 0.0
C214 C 0.25097 0.11316 0.32815 0.0
C215 C 0.24018 0.02487 0.23936 0.0
O216 O 0.21561 0.02895 0.22766 0.0
O217 O 0.2786 0.1009 0.20739 0.0
O218 O 0.27086 0.14312 0.22086 0.0
O219 O 0.19578 0.0803 0.24782 0.0
O220 O 0.21493 0.11711 0.22799 0.0
C221 C 0.28585 0.12469 0.2079 0.0
C222 C 0.19439 0.10521 0.24234 0.0
O223 O 0.256 0.04398 0.23972 0.0
Mg224 Mg 0.59128 0.72718 0.75978 0.0
O225 O 0.61035 0.72867 0.82925 0.0
O226 O 0.65373 0.72441 0.82005 0.0
Mg227 Mg 0.66285 0.7213 0.74578 0.0
C228 C 0.63362 0.72724 0.84511 0.0
C229 C 0.53536 0.75164 0.76753 0.0
O230 O 0.542 0.7594 0.72728 0.0
O231 O 0.6045 0.76958 0.74559 0.0
O232 O 0.64775 0.76261 0.73724 0.0
O233 O 0.59163 0.68288 0.76234 0.0
O234 O 0.62302 0.70729 0.73375 0.0
C235 C 0.62788 0.7778 0.73781 0.0
C236 C 0.61453 0.68455 0.74367 0.0
O237 O 0.552 0.73897 0.79055 0.0
Mg238 Mg 0.20589 0.59347 0.90844 0.0
O239 O 0.24513 0.61516 0.89767 0.0
O240 O 0.27714 0.59488 0.93529 0.0
Mg241 Mg 0.25894 0.55874 0.96668 0.0
C242 C 0.26915 0.61328 0.91007 0.0
C243 C 0.16234 0.62412 0.85476 0.0
O244 O 0.14717 0.61394 0.88567 0.0
O245 O 0.21878 0.56294 0.85765 0.0
O246 O 0.25166 0.54401 0.89552 0.0
O247 O 0.19994 0.61604 0.97108 0.0
O248 O 0.22045 0.57812 0.96804 0.0
C249 C 0.23753 0.54647 0.8605 0.0
C250 C 0.21367 0.59823 0.99093 0.0
O251 O 0.18677 0.61861 0.85461 0.0
Mg252 Mg 0.41225 0.26515 0.76451 0.0
O253 O 0.39446 0.26025 0.83481 0.0
O254 O 0.35087 0.26415 0.82728 0.0
Mg255 Mg 0.34049 0.27259 0.75486 0.0
C256 C 0.37127 0.26033 0.85127 0.0
C257 C 0.46887 0.24112 0.76443 0.0
O258 O 0.46251 0.23739 0.72239 0.0
O259 O 0.3979 0.22394 0.74454 0.0
O260 O 0.35472 0.23177 0.73824 0.0
O261 O 0.41409 0.30873 0.77468 0.0
O262 O 0.38025 0.28767 0.74577 0.0
C263 C 0.37441 0.21642 0.7359 0.0
C264 C 0.39015 0.30909 0.7601 0.0
O265 O 0.45188 0.25086 0.79066 0.0
Mg266 Mg 0.79767 0.39615 0.90954 0.0
O267 O 0.75867 0.37393 0.89921 0.0
O268 O 0.72668 0.3937 0.93765 0.0
Mg269 Mg 0.7446 0.42986 0.96951 0.0
C270 C 0.73471 0.3755 0.91203 0.0
C271 C 0.84143 0.36631 0.85544 0.0
O272 O 0.85636 0.3765 0.8867 0.0
O273 O 0.78387 0.42677 0.8595 0.0
O274 O 0.7512 0.44514 0.89863 0.0
O275 O 0.80444 0.37347 0.97197 0.0
O276 O 0.78338 0.41111 0.96944 0.0
C277 C 0.765 0.44306 0.86319 0.0
C278 C 0.79066 0.39111 0.99215 0.0
O279 O 0.81693 0.37154 0.85513 0.0
Mg280 Mg 0.59257 0.2655 0.23393 0.0
O281 O 0.61031 0.26061 0.16358 0.0
O282 O 0.65391 0.26444 0.17102 0.0
Mg283 Mg 0.66437 0.27275 0.24344 0.0
C284 C 0.63349 0.26066 0.14706 0.0
C285 C 0.53584 0.24171 0.234 0.0
O286 O 0.54219 0.23793 0.27604 0.0
O287 O 0.60687 0.22421 0.25359 0.0
O288 O 0.65007 0.23194 0.25975 0.0
O289 O 0.59082 0.30912 0.22405 0.0
O290 O 0.62466 0.28791 0.25268 0.0
C291 C 0.63037 0.21661 0.26204 0.0
C292 C 0.61479 0.30939 0.23855 0.0
O293 O 0.55286 0.25138 0.20779 0.0
Mg294 Mg 0.79631 0.59446 0.084 0.0
O295 O 0.75714 0.61596 0.09649 0.0
O296 O 0.72486 0.59586 0.05923 0.0
Mg297 Mg 0.74281 0.55999 0.02654 0.0
C298 C 0.73303 0.61409 0.08465 0.0
C299 C 0.84057 0.62418 0.13789 0.0
O300 O 0.85551 0.61412 0.10654 0.0
O301 O 0.78402 0.56344 0.13446 0.0
O302 O 0.7508 0.54476 0.09717 0.0
O303 O 0.80145 0.61768 0.0217 0.0
O304 O 0.7811 0.57969 0.02444 0.0
C305 C 0.76528 0.54697 0.13183 0.0
C306 C 0.7875 0.60004 0.00185 0.0
O307 O 0.81606 0.61903 0.13807 0.0
Mg308 Mg 0.41255 0.72449 0.23255 0.0
O309 O 0.39406 0.72899 0.16276 0.0
O310 O 0.35056 0.72477 0.17107 0.0
Mg311 Mg 0.34092 0.71656 0.24384 0.0
C312 C 0.37077 0.72865 0.14669 0.0
C313 C 0.46864 0.75032 0.22926 0.0
O314 O 0.46248 0.75581 0.27082 0.0
O315 O 0.39804 0.76569 0.2523 0.0
O316 O 0.35498 0.75755 0.25949 0.0
O317 O 0.41458 0.68089 0.22276 0.0
O318 O 0.38088 0.70181 0.25239 0.0
C319 C 0.37454 0.77308 0.26122 0.0
C320 C 0.39079 0.68041 0.23799 0.0
O321 O 0.4518 0.73888 0.20484 0.0
Mg322 Mg 0.20605 0.39601 0.08984 0.0
O323 O 0.24526 0.37412 0.10038 0.0
O324 O 0.2772 0.39437 0.0626 0.0
Mg325 Mg 0.25903 0.43055 0.03126 0.0
C326 C 0.26925 0.37597 0.08783 0.0
C327 C 0.16238 0.36565 0.1433 0.0
O328 O 0.14737 0.37593 0.11224 0.0
O329 O 0.21918 0.4265 0.14056 0.0
O330 O 0.25196 0.44535 0.10243 0.0
O331 O 0.1998 0.37349 0.02724 0.0
O332 O 0.22049 0.4113 0.03017 0.0
C333 C 0.23793 0.44293 0.13756 0.0
C334 C 0.21353 0.39124 0.0073 0.0
O335 O 0.18684 0.37099 0.1437 0.0
Mg336 Mg 0.37355 0.25758 0.14715 0.0
O337 O 0.37163 0.2547 0.06986 0.0
O338 O 0.32872 0.2535 0.05314 0.0
Mg339 Mg 0.30386 0.25329 0.11562 0.0
C340 C 0.35284 0.25372 0.04138 0.0
C341 C 0.42598 0.23949 0.18479 0.0
O342 O 0.40859 0.23303 0.21529 0.0
O343 O 0.3647 0.21405 0.15315 0.0
O344 O 0.32238 0.214 0.13258 0.0
O345 O 0.36932 0.30095 0.14168 0.0
O346 O 0.33595 0.27383 0.14861 0.0
C347 C 0.34327 0.20211 0.1446 0.0
C348 C 0.34413 0.29717 0.14201 0.0
O349 O 0.41785 0.24992 0.14879 0.0
Mg350 Mg 0.73858 0.40689 0.26883 0.0
O351 O 0.7493 0.39682 0.19655 0.0
O352 O 0.74541 0.35404 0.18482 0.0
Mg353 Mg 0.73138 0.33639 0.25055 0.0
C354 C 0.75108 0.3769 0.17124 0.0
C355 C 0.73962 0.46605 0.25507 0.0
O356 O 0.71499 0.46198 0.2664 0.0
O357 O 0.77853 0.39073 0.29167 0.0
O358 O 0.77091 0.34835 0.27952 0.0
O359 O 0.69562 0.41039 0.24999 0.0
O360 O 0.71491 0.37394 0.27138 0.0
C361 C 0.78583 0.36694 0.29198 0.0
C362 C 0.69435 0.38555 0.25638 0.0
O363 O 0.75567 0.44714 0.25661 0.0
Mg364 Mg 0.63021 0.73348 0.14131 0.0
O365 O 0.63276 0.73462 0.0638 0.0
O366 O 0.67581 0.73467 0.04808 0.0
Mg367 Mg 0.70015 0.73632 0.11115 0.0
C368 C 0.65179 0.7344 0.03573 0.0
C369 C 0.57795 0.75301 0.17711 0.0
O370 O 0.59542 0.76022 0.20701 0.0
O371 O 0.63963 0.77694 0.14537 0.0
O372 O 0.6821 0.7762 0.12595 0.0
O373 O 0.63381 0.69004 0.13835 0.0
O374 O 0.66755 0.71681 0.14457 0.0
C375 C 0.66128 0.78851 0.13701 0.0
C376 C 0.65904 0.69349 0.13892 0.0
O377 O 0.58598 0.74163 0.1419 0.0
Mg378 Mg 0.26635 0.58408 0.26818 0.0
O379 O 0.25591 0.59319 0.19521 0.0
O380 O 0.2602 0.63582 0.1824 0.0
Mg381 Mg 0.27413 0.65424 0.24754 0.0
C382 C 0.25437 0.6129 0.16935 0.0
C383 C 0.26475 0.52466 0.25791 0.0
O384 O 0.28937 0.52862 0.26943 0.0
O385 O 0.22648 0.60081 0.2899 0.0
O386 O 0.23431 0.64301 0.27638 0.0
O387 O 0.30935 0.57995 0.25015 0.0
O388 O 0.29023 0.61683 0.2698 0.0
C389 C 0.21926 0.62461 0.28926 0.0
C390 C 0.31078 0.60486 0.25565 0.0
O391 O 0.24899 0.54383 0.25784 0.0
Mg392 Mg 0.37298 0.73182 0.85113 0.0
O393 O 0.37068 0.73444 0.92831 0.0
O394 O 0.32774 0.73539 0.94475 0.0
Mg395 Mg 0.30318 0.7358 0.88187 0.0
C396 C 0.35185 0.73521 0.95666 0.0
C397 C 0.42554 0.75188 0.81643 0.0
O398 O 0.40832 0.7599 0.7867 0.0
O399 O 0.36395 0.77531 0.84548 0.0
O400 O 0.32156 0.77525 0.86554 0.0
O401 O 0.36897 0.68845 0.85622 0.0
O402 O 0.33547 0.71545 0.84899 0.0
C403 C 0.34248 0.7872 0.85386 0.0
C404 C 0.34376 0.69214 0.85563 0.0
O405 O 0.41723 0.73968 0.85059 0.0
Mg406 Mg 0.26568 0.40542 0.7298 0.0
O407 O 0.2551 0.39629 0.80267 0.0
O408 O 0.25937 0.35364 0.81547 0.0
Mg409 Mg 0.2734 0.33524 0.7504 0.0
C410 C 0.25353 0.37657 0.8285 0.0
C411 C 0.26403 0.46483 0.73982 0.0
O412 O 0.28863 0.46086 0.72817 0.0
O413 O 0.22588 0.38873 0.70766 0.0
O414 O 0.23369 0.34653 0.72118 0.0
O415 O 0.30863 0.40952 0.74823 0.0
O416 O 0.28956 0.37266 0.72837 0.0
C417 C 0.21867 0.36493 0.70818 0.0
C418 C 0.31007 0.38461 0.74276 0.0
O419 O 0.24829 0.44566 0.74004 0.0
Mg420 Mg 0.63106 0.25698 0.85125 0.0
O421 O 0.63299 0.25413 0.92854 0.0
O422 O 0.67591 0.25303 0.94522 0.0
Mg423 Mg 0.70076 0.25282 0.88273 0.0
C424 C 0.65179 0.25323 0.95701 0.0
C425 C 0.5787 0.23878 0.81363 0.0
O426 O 0.5961 0.23238 0.7831 0.0
O427 O 0.64005 0.21349 0.84512 0.0
O428 O 0.68237 0.21349 0.86564 0.0
O429 O 0.63511 0.30034 0.85687 0.0
O430 O 0.6686 0.27334 0.84982 0.0
C431 C 0.6615 0.20157 0.85358 0.0
C432 C 0.66031 0.29664 0.85658 0.0
O433 O 0.58681 0.24921 0.84964 0.0
Mg434 Mg 0.7393 0.58399 0.72447 0.0
O435 O 0.74717 0.59468 0.79732 0.0
O436 O 0.74351 0.63752 0.80768 0.0
Mg437 Mg 0.73311 0.65466 0.73944 0.0
C438 C 0.74823 0.6147 0.82243 0.0
C439 C 0.73804 0.52519 0.74329 0.0
O440 O 0.71335 0.52985 0.73304 0.0
O441 O 0.78057 0.59875 0.70585 0.0
O442 O 0.77348 0.64142 0.71611 0.0
O443 O 0.69521 0.58308 0.73777 0.0
O444 O 0.71746 0.61747 0.71528 0.0
C445 C 0.78845 0.62238 0.70596 0.0
C446 C 0.69542 0.60744 0.72682 0.0
O447 O 0.75462 0.54356 0.74031 0.0
C448 C 0.17468 0.1418 0.28384 0.0
C449 C 0.17119 0.12036 0.2556 0.0
H450 H 0.1587 0.17741 0.3083 0.0
C451 C 0.14671 0.11644 0.23487 0.0
H452 H 0.19318 0.1449 0.30088 0.0
C453 C 0.1268 0.13523 0.23916 0.0
C454 C 0.13138 0.15787 0.26425 0.0
H455 H 0.14373 0.10003 0.21275 0.0
H456 H 0.10875 0.13305 0.22028 0.0
C457 C 0.15494 0.16038 0.28812 0.0
C458 C 0.81629 0.13107 0.40047 0.0
C459 C 0.78912 0.1345 0.39326 0.0
H460 H 0.85504 0.14703 0.39361 0.0
C461 C 0.78046 0.15727 0.37179 0.0
H462 H 0.82369 0.11369 0.41666 0.0
C463 C 0.79846 0.17637 0.35875 0.0
C464 C 0.82553 0.17309 0.36658 0.0
H465 H 0.75973 0.16054 0.36554 0.0
H466 H 0.79109 0.19378 0.34264 0.0
C467 C 0.83431 0.1501 0.38707 0.0
C468 C 0.84786 0.82708 0.28909 0.0
C469 C 0.87178 0.82991 0.26642 0.0
H470 H 0.80951 0.84251 0.30102 0.0
C471 C 0.87684 0.85299 0.24283 0.0
H472 H 0.84375 0.80973 0.30825 0.0
C473 C 0.85706 0.87193 0.23865 0.0
C474 C 0.83225 0.86773 0.25799 0.0
H475 H 0.89519 0.85545 0.22494 0.0
H476 H 0.86045 0.88873 0.21757 0.0
C477 C 0.82827 0.84582 0.28492 0.0
C478 C 0.20578 0.81444 0.35801 0.0
C479 C 0.17877 0.8178 0.36631 0.0
H480 H 0.24463 0.82997 0.36461 0.0
C481 C 0.17024 0.84067 0.38746 0.0
H482 H 0.21296 0.79712 0.34137 0.0
C483 C 0.18845 0.8595 0.40106 0.0
C484 C 0.21556 0.85596 0.39339 0.0
H485 H 0.14956 0.84379 0.39437 0.0
H486 H 0.18124 0.87679 0.41776 0.0
C487 C 0.22396 0.83332 0.37125 0.0
C488 C 0.15532 0.82933 0.70801 0.0
C489 C 0.13175 0.83184 0.7318 0.0
H490 H 0.19351 0.8449 0.69524 0.0
C491 C 0.12706 0.85453 0.7567 0.0
H492 H 0.15916 0.81225 0.68799 0.0
C493 C 0.1469 0.87338 0.76092 0.0
C494 C 0.17141 0.86948 0.7403 0.0
H495 H 0.109 0.85671 0.77551 0.0
H496 H 0.14386 0.88983 0.78296 0.0
C497 C 0.17498 0.84799 0.71219 0.0
C498 C 0.18907 0.12981 0.59513 0.0
C499 C 0.21619 0.13339 0.60265 0.0
H500 H 0.15017 0.14548 0.60201 0.0
C501 C 0.22461 0.15605 0.62468 0.0
H502 H 0.18185 0.1125 0.57852 0.0
C503 C 0.20644 0.17493 0.63797 0.0
C504 C 0.17941 0.17153 0.62984 0.0
H505 H 0.24529 0.15943 0.63119 0.0
H506 H 0.21362 0.19227 0.65452 0.0
C507 C 0.17086 0.14863 0.60879 0.0
C508 C 0.85829 0.11748 0.76165 0.0
C509 C 0.83375 0.12138 0.74113 0.0
H510 H 0.89618 0.1342 0.77625 0.0
C511 C 0.83007 0.14293 0.71322 0.0
H512 H 0.86142 0.10097 0.78351 0.0
C513 C 0.84968 0.16163 0.7091 0.0
C514 C 0.8733 0.15913 0.7328 0.0
H515 H 0.81152 0.146 0.69629 0.0
H516 H 0.84579 0.17873 0.68916 0.0
C517 C 0.87808 0.13639 0.75752 0.0
C518 C 0.83339 0.83926 0.60979 0.0
C519 C 0.82474 0.81614 0.62998 0.0
H520 H 0.82265 0.8757 0.58053 0.0
C521 C 0.79765 0.81263 0.63736 0.0
H522 H 0.85412 0.84253 0.60359 0.0
C523 C 0.77955 0.83169 0.62435 0.0
C524 C 0.78813 0.85461 0.60329 0.0
H525 H 0.79038 0.79511 0.65319 0.0
H526 H 0.75882 0.82829 0.63029 0.0
C527 C 0.81529 0.85821 0.59638 0.0
C528 C 0.65188 0.66464 0.70405 0.0
C529 C 0.63206 0.66207 0.7363 0.0
H530 H 0.68698 0.64928 0.67586 0.0
C531 C 0.63126 0.63944 0.76275 0.0
H532 H 0.65276 0.68158 0.68254 0.0
C533 C 0.65119 0.62053 0.7587 0.0
C534 C 0.67196 0.6243 0.72832 0.0
H535 H 0.61613 0.63702 0.78784 0.0
H536 H 0.65108 0.60378 0.78064 0.0
C537 C 0.67155 0.6461 0.70022 0.0
C538 C 0.2799 0.6556 0.87253 0.0
C539 C 0.28841 0.63302 0.89473 0.0
H540 H 0.29075 0.69179 0.84249 0.0
C541 C 0.31554 0.62955 0.90228 0.0
H542 H 0.25921 0.65889 0.86598 0.0
C543 C 0.33367 0.6484 0.88854 0.0
C544 C 0.32503 0.67122 0.86735 0.0
H545 H 0.32282 0.6123 0.91901 0.0
H546 H 0.35436 0.64534 0.89539 0.0
C547 C 0.298 0.67451 0.85915 0.0
C548 C 0.37768 0.35465 0.73961 0.0
C549 C 0.37313 0.33202 0.76471 0.0
H550 H 0.36071 0.38983 0.71317 0.0
C551 C 0.34959 0.3295 0.7886 0.0
H552 H 0.39571 0.35683 0.7207 0.0
C553 C 0.32984 0.34807 0.78433 0.0
C554 C 0.3333 0.3695 0.75607 0.0
H555 H 0.34585 0.31247 0.80878 0.0
H556 H 0.31135 0.34496 0.80138 0.0
C557 C 0.35775 0.37343 0.73533 0.0
C558 C 0.70607 0.31427 0.86067 0.0
C559 C 0.67902 0.31751 0.86871 0.0
H560 H 0.74482 0.32995 0.86783 0.0
C561 C 0.67031 0.34026 0.89004 0.0
H562 H 0.71337 0.29704 0.84393 0.0
C563 C 0.68839 0.3591 0.90405 0.0
C564 C 0.71553 0.3557 0.89659 0.0
H565 H 0.6496 0.34327 0.89678 0.0
H566 H 0.68105 0.3763 0.92085 0.0
C567 C 0.72411 0.33318 0.8743 0.0
C568 C 0.65559 0.32976 0.211 0.0
C569 C 0.63182 0.33233 0.23419 0.0
H570 H 0.69382 0.34536 0.19879 0.0
C571 C 0.62691 0.35512 0.2587 0.0
H572 H 0.6596 0.31263 0.1912 0.0
C573 C 0.64669 0.37403 0.26312 0.0
C574 C 0.67135 0.3701 0.24307 0.0
H575 H 0.60868 0.35737 0.27703 0.0
H576 H 0.64343 0.3906 0.28479 0.0
C577 C 0.67518 0.34847 0.21538 0.0
C578 C 0.68673 0.63045 0.09326 0.0
C579 C 0.71389 0.6338 0.10054 0.0
H580 H 0.64802 0.64652 0.10017 0.0
C581 C 0.72257 0.65635 0.12263 0.0
H582 H 0.67931 0.61322 0.07663 0.0
C583 C 0.70462 0.6754 0.13598 0.0
C584 C 0.67757 0.67229 0.12783 0.0
H585 H 0.74331 0.65954 0.12899 0.0
H586 H 0.71201 0.6927 0.15241 0.0
C587 C 0.66874 0.64944 0.10696 0.0
C588 C 0.35838 0.61624 0.26376 0.0
C589 C 0.33403 0.61995 0.24247 0.0
H590 H 0.39621 0.63301 0.27868 0.0
C591 C 0.33068 0.64116 0.21371 0.0
H592 H 0.36124 0.6 0.28632 0.0
C593 C 0.35041 0.65972 0.20933 0.0
C594 C 0.37383 0.65742 0.23365 0.0
H595 H 0.31225 0.64412 0.19632 0.0
H596 H 0.34675 0.67658 0.18869 0.0
C597 C 0.37828 0.63501 0.2594 0.0
C598 C 0.31568 0.35976 0.09557 0.0
C599 C 0.28856 0.3562 0.10303 0.0
H600 H 0.35456 0.34406 0.10249 0.0
C601 C 0.28012 0.33353 0.12499 0.0
H602 H 0.32292 0.37707 0.07901 0.0
C603 C 0.29828 0.31463 0.13828 0.0
C604 C 0.32531 0.31802 0.13022 0.0
H605 H 0.25943 0.33017 0.13146 0.0
H606 H 0.29108 0.29729 0.15479 0.0
C607 C 0.33387 0.34092 0.10923 0.0
C608 C 0.97341 0.24483 0.33355 0.0
C609 C 0.95446 0.25427 0.30344 0.0
H610 H 0.01405 0.23606 0.34506 0.0
C611 C 0.96289 0.26426 0.26213 0.0
H612 H 0.96759 0.23711 0.36572 0.0
C613 C 0.98945 0.26361 0.25024 0.0
C614 C 0.00827 0.25303 0.27941 0.0
H615 H 0.94886 0.27186 0.23822 0.0
H616 H 0.9951 0.2707 0.21756 0.0
C617 C 1.00005 0.24426 0.32169 0.0
C618 C 0.72473 0.01539 0.3006 0.0
C619 C 0.74481 0.02955 0.32163 0.0
H620 H 0.71534 0.98313 0.25799 0.0
C621 C 0.77112 0.02449 0.31055 0.0
H622 H 0.70429 0.01897 0.30884 0.0
C623 C 0.77743 0.00454 0.28093 0.0
C624 C 0.75754 0.98879 0.26277 0.0
H625 H 0.78691 0.03533 0.32624 0.0
H626 H 0.798 0.00039 0.27473 0.0
C627 C 0.73107 0.99491 0.27168 0.0
C628 C 0.03069 0.74495 0.33246 0.0
C629 C 0.04985 0.73669 0.30173 0.0
H630 H 0.98982 0.75235 0.34458 0.0
C631 C 0.04162 0.72744 0.25978 0.0
H632 H 0.03634 0.75207 0.36512 0.0
C633 C 0.01503 0.72766 0.24795 0.0
C634 C 0.99597 0.73702 0.27785 0.0
H635 H 0.05581 0.72075 0.23536 0.0
H636 H 0.00953 0.72117 0.21483 0.0
C637 C 0.00401 0.74506 0.32067 0.0
C638 C 0.28053 0.9743 0.3005 0.0
C639 C 0.26053 0.96004 0.3215 0.0
H640 H 0.28971 0.00649 0.25764 0.0
C641 C 0.2342 0.9648 0.31017 0.0
H642 H 0.30098 0.97094 0.30895 0.0
C643 C 0.22777 0.98458 0.28028 0.0
C644 C 0.24755 0.00045 0.26213 0.0
H645 H 0.21848 0.95387 0.32585 0.0
H646 H 0.20717 0.98852 0.27387 0.0
C647 C 0.27406 0.99462 0.27133 0.0
C648 C 1.00036 0.74585 0.67617 0.0
C649 C 0.0086 0.73747 0.71869 0.0
H650 H 0.96786 0.75285 0.63211 0.0
C651 C 0.98975 0.72749 0.74838 0.0
H652 H 0.01438 0.75359 0.65242 0.0
C653 C 0.96315 0.72702 0.73668 0.0
C654 C 0.95472 0.7366 0.69507 0.0
H655 H 0.99542 0.72073 0.78126 0.0
H656 H 0.94911 0.71987 0.76094 0.0
C657 C 0.97368 0.74546 0.66451 0.0
C658 C 0.27453 0.9949 0.72506 0.0
C659 C 0.248 0.98922 0.73428 0.0
H660 H 0.30154 0.01838 0.68734 0.0
C661 C 0.22828 0.00517 0.71609 0.0
H662 H 0.29013 0.98295 0.73878 0.0
C663 C 0.23479 0.02488 0.68613 0.0
C664 C 0.26114 0.02948 0.67476 0.0
H665 H 0.20767 0.00135 0.72252 0.0
H666 H 0.21912 0.03588 0.67041 0.0
C667 C 0.28108 0.01514 0.69581 0.0
C668 C 0.0424 0.26192 0.7369 0.0
C669 C 0.05053 0.2526 0.69494 0.0
H670 H 0.01041 0.26827 0.78197 0.0
C671 C 0.03131 0.24433 0.66432 0.0
H672 H 0.05664 0.26861 0.76123 0.0
C673 C 0.00466 0.24427 0.67622 0.0
C674 C 0.99672 0.25236 0.71905 0.0
H675 H 0.03689 0.23717 0.63165 0.0
H676 H 0.99042 0.23697 0.6524 0.0
C677 C 0.01584 0.26174 0.74884 0.0
C678 C 0.77835 0.98545 0.71426 0.0
C679 C 0.75855 0.00091 0.73339 0.0
H680 H 0.78754 0.95499 0.66813 0.0
C681 C 0.73203 0.99469 0.72519 0.0
H682 H 0.79896 0.98971 0.71989 0.0
C683 C 0.72551 0.97434 0.69612 0.0
C684 C 0.74545 0.96045 0.6742 0.0
H685 H 0.71637 0.00625 0.73964 0.0
H686 H 0.70501 0.97063 0.68854 0.0
C687 C 0.77185 0.96564 0.68448 0.0
C688 C 0.49954 0.74286 0.82336 0.0
C689 C 0.50788 0.75456 0.7833 0.0
H690 H 0.46697 0.73289 0.86548 0.0
C691 C 0.4892 0.76737 0.75661 0.0
H692 H 0.51344 0.7329 0.84481 0.0
C693 C 0.46263 0.76738 0.76847 0.0
C694 C 0.45407 0.75454 0.8073 0.0
H695 H 0.49495 0.77674 0.72572 0.0
H696 H 0.4487 0.77678 0.74635 0.0
C697 C 0.47289 0.74284 0.83523 0.0
C698 C 0.2763 0.50505 0.78108 0.0
C699 C 0.25657 0.48915 0.7628 0.0
H700 H 0.28548 0.53563 0.82699 0.0
C701 C 0.23004 0.49481 0.77214 0.0
H702 H 0.2969 0.50125 0.77457 0.0
C703 C 0.22351 0.51497 0.80158 0.0
C704 C 0.24346 0.52924 0.8227 0.0
H705 H 0.21444 0.4829 0.75835 0.0
H706 H 0.20305 0.51819 0.81012 0.0
C707 C 0.2698 0.52467 0.81123 0.0
C708 C 0.51533 0.22726 0.75014 0.0
C709 C 0.49642 0.23745 0.7795 0.0
H710 H 0.556 0.21944 0.73807 0.0
C711 C 0.50453 0.24598 0.822 0.0
H712 H 0.50976 0.22037 0.71729 0.0
C713 C 0.53117 0.24555 0.83393 0.0
C714 C 0.55022 0.23649 0.80367 0.0
H715 H 0.49045 0.25388 0.8455 0.0
H716 H 0.5369 0.25307 0.86629 0.0
C717 C 0.5419 0.22674 0.76211 0.0
C718 C 0.73213 0.46621 0.81685 0.0
C719 C 0.7586 0.46061 0.82603 0.0
H720 H 0.70488 0.49055 0.78226 0.0
C721 C 0.77842 0.47408 0.80309 0.0
H722 H 0.71652 0.45589 0.83397 0.0
C723 C 0.77178 0.49438 0.77401 0.0
C724 C 0.74524 0.501 0.76685 0.0
H725 H 0.79897 0.47006 0.80982 0.0
H726 H 0.7874 0.50556 0.75862 0.0
C727 C 0.72549 0.486 0.78711 0.0
C728 C 0.47351 0.24632 0.16455 0.0
C729 C 0.45447 0.23722 0.19475 0.0
H730 H 0.51424 0.25465 0.15301 0.0
C731 C 0.4628 0.22741 0.23627 0.0
H732 H 0.46778 0.25389 0.13223 0.0
C733 C 0.48936 0.22789 0.24823 0.0
C734 C 0.50828 0.23811 0.21893 0.0
H735 H 0.4487 0.22007 0.26027 0.0
H736 H 0.49493 0.22094 0.28105 0.0
C737 C 0.50016 0.24672 0.17648 0.0
C738 C 0.77966 0.51571 0.19108 0.0
C739 C 0.75956 0.52965 0.16965 0.0
H740 H 0.78907 0.48418 0.23528 0.0
C741 C 0.73327 0.52491 0.18126 0.0
H742 H 0.80008 0.51908 0.18248 0.0
C743 C 0.72699 0.50553 0.21198 0.0
C744 C 0.74687 0.49003 0.2308 0.0
H745 H 0.71747 0.53562 0.16533 0.0
H746 H 0.70643 0.50166 0.2187 0.0
C747 C 0.77334 0.49578 0.22114 0.0
C748 C 0.50388 0.74417 0.17133 0.0
C749 C 0.49594 0.7541 0.21302 0.0
H750 H 0.53601 0.73609 0.12706 0.0
C751 C 0.51487 0.76585 0.24062 0.0
H752 H 0.48978 0.73508 0.14914 0.0
C753 C 0.5413 0.76647 0.2279 0.0
C754 C 0.54949 0.75531 0.18732 0.0
H755 H 0.50943 0.77385 0.27278 0.0
H756 H 0.55545 0.77497 0.25069 0.0
C757 C 0.53039 0.74474 0.15863 0.0
C758 C 0.27035 0.46478 0.18652 0.0
C759 C 0.24397 0.4602 0.17527 0.0
H760 H 0.29754 0.48824 0.22291 0.0
C761 C 0.22407 0.47449 0.19652 0.0
H762 H 0.28598 0.45382 0.17066 0.0
C763 C 0.23068 0.49467 0.22586 0.0
C764 C 0.25724 0.50034 0.23498 0.0
H765 H 0.20359 0.47125 0.18815 0.0
H766 H 0.21512 0.50658 0.23974 0.0
C767 C 0.27692 0.48443 0.21657 0.0
C768 C 0.1159 0.23144 0.42981 0.0
C769 C 0.13706 0.23305 0.39962 0.0
H770 H 0.10384 0.231 0.49854 0.0
C771 C 0.16252 0.23707 0.41641 0.0
H772 H 0.09602 0.22837 0.41789 0.0
C773 C 0.16695 0.23862 0.46213 0.0
C774 C 0.14606 0.23612 0.4926 0.0
H775 H 0.17927 0.23869 0.39423 0.0
H776 H 0.18699 0.24137 0.47349 0.0
C777 C 0.12037 0.23292 0.47597 0.0
C778 C 0.73448 0.13109 0.59775 0.0
C779 C 0.74428 0.10986 0.62233 0.0
H780 H 0.71701 0.1442 0.53666 0.0
C781 C 0.74397 0.08498 0.60284 0.0
H782 H 0.73427 0.15049 0.61192 0.0
C783 C 0.73427 0.08145 0.5596 0.0
C784 C 0.72433 0.10265 0.53522 0.0
H785 H 0.75135 0.06822 0.62087 0.0
H786 H 0.73438 0.06206 0.54542 0.0
C787 C 0.72442 0.12748 0.55476 0.0
C788 C 0.84182 0.74929 0.41746 0.0
C789 C 0.86712 0.75388 0.40046 0.0
H790 H 0.81763 0.74463 0.47477 0.0
C791 C 0.88833 0.75605 0.43048 0.0
H792 H 0.82505 0.74721 0.3954 0.0
C793 C 0.88402 0.75465 0.47669 0.0
C794 C 0.85847 0.75094 0.49353 0.0
H795 H 0.90808 0.75957 0.41838 0.0
H796 H 0.90057 0.75705 0.49911 0.0
C797 C 0.83756 0.7478 0.46323 0.0
C798 C 0.27068 0.85874 0.5978 0.0
C799 C 0.26112 0.88006 0.62241 0.0
H800 H 0.28792 0.84548 0.53663 0.0
C801 C 0.26166 0.90495 0.60296 0.0
H802 H 0.27071 0.83934 0.61194 0.0
C803 C 0.27132 0.90839 0.5597 0.0
C804 C 0.281 0.8871 0.53526 0.0
H805 H 0.25446 0.92177 0.62102 0.0
H806 H 0.27137 0.92778 0.54553 0.0
C807 C 0.28071 0.86226 0.55478 0.0
C808 C 0.12026 0.75641 0.52059 0.0
C809 C 0.1459 0.75315 0.5038 0.0
H810 H 0.09608 0.76105 0.57883 0.0
C811 C 0.16686 0.75061 0.53414 0.0
H812 H 0.10367 0.75836 0.49813 0.0
C813 C 0.16257 0.7522 0.57989 0.0
C814 C 0.13716 0.75629 0.59684 0.0
H815 H 0.18687 0.74781 0.52266 0.0
H816 H 0.17937 0.75055 0.60197 0.0
C817 C 0.11592 0.75792 0.56678 0.0
C818 C 0.26163 0.08456 0.39346 0.0
C819 C 0.26093 0.10948 0.37415 0.0
H820 H 0.27171 0.06163 0.45062 0.0
C821 C 0.27054 0.13077 0.39877 0.0
H822 H 0.2544 0.06776 0.37538 0.0
C823 C 0.28081 0.12719 0.44163 0.0
C824 C 0.28128 0.10231 0.46099 0.0
H825 H 0.27046 0.1502 0.38474 0.0
H826 H 0.28806 0.14395 0.45978 0.0
C827 C 0.27153 0.08105 0.43656 0.0
C828 C 0.88415 0.23431 0.52138 0.0
C829 C 0.85845 0.23734 0.50472 0.0
H830 H 0.90851 0.22992 0.5795 0.0
C831 C 0.83753 0.23966 0.53517 0.0
H832 H 0.90071 0.23253 0.49884 0.0
C833 C 0.84195 0.23814 0.58089 0.0
C834 C 0.86743 0.23432 0.59771 0.0
H835 H 0.81747 0.24228 0.52379 0.0
H836 H 0.82517 0.23964 0.60305 0.0
C837 C 0.88862 0.23285 0.56755 0.0
C838 C 0.72214 0.86217 0.44199 0.0
C839 C 0.72253 0.88698 0.46162 0.0
H840 H 0.73139 0.83909 0.3846 0.0
C841 C 0.73252 0.90808 0.43706 0.0
H842 H 0.71466 0.84554 0.46021 0.0
C843 C 0.74188 0.90447 0.39367 0.0
C844 C 0.74181 0.8796 0.37413 0.0
H845 H 0.73298 0.92746 0.45129 0.0
H846 H 0.7494 0.92115 0.37559 0.0
C847 C 0.73188 0.85847 0.3988 0.0
C848 C 0.62069 0.73291 0.96997 0.0
C849 C 0.64645 0.73306 0.98709 0.0
H850 H 0.5963 0.73096 0.91158 0.0
C851 C 0.66768 0.73138 0.95707 0.0
H852 H 0.60391 0.73414 0.99214 0.0
C853 C 0.66337 0.72946 0.91131 0.0
C854 C 0.6377 0.72924 0.89401 0.0
H855 H 0.68783 0.73139 0.96882 0.0
H856 H 0.68032 0.72817 0.88951 0.0
C857 C 0.61635 0.73106 0.92382 0.0
C858 C 0.23356 0.58075 0.0611 0.0
C859 C 0.22377 0.60201 0.0367 0.0
H860 H 0.25082 0.56746 0.12219 0.0
C861 C 0.22436 0.6269 0.05599 0.0
H862 H 0.23329 0.56131 0.0471 0.0
C863 C 0.23476 0.6305 0.09876 0.0
C864 C 0.24438 0.60921 0.12337 0.0
H865 H 0.21709 0.64367 0.03786 0.0
H866 H 0.23491 0.64995 0.11275 0.0
C867 C 0.24358 0.58427 0.10412 0.0
C868 C 0.38425 0.25677 0.97624 0.0
C869 C 0.35857 0.25356 0.99286 0.0
H870 H 0.40857 0.26136 0.91817 0.0
C871 C 0.33766 0.25111 0.96239 0.0
H872 H 0.40079 0.25865 -0.00119 0.0
C873 C 0.34206 0.2527 0.91667 0.0
C874 C 0.36752 0.25672 0.89989 0.0
H875 H 0.31763 0.24836 0.97374 0.0
H876 H 0.3253 0.25111 0.89448 0.0
C877 C 0.38869 0.25829 0.93008 0.0
C878 C 0.77059 0.35903 0.10069 0.0
C879 C 0.76097 0.38037 0.12518 0.0
H880 H 0.78797 0.34574 0.0396 0.0
C881 C 0.76156 0.40524 0.10568 0.0
H882 H 0.77058 0.33964 0.1149 0.0
C883 C 0.77134 0.40865 0.06254 0.0
C884 C 0.78106 0.38736 0.03818 0.0
H885 H 0.75433 0.42209 0.12363 0.0
H886 H 0.77142 0.42805 0.04837 0.0
C887 C 0.78073 0.36252 0.05772 0.0
C888 C 0.61601 0.25836 0.0683 0.0
C889 C 0.63721 0.2569 0.09847 0.0
H890 H 0.60387 0.25841 -0.0004 0.0
C891 C 0.66265 0.25274 0.0817 0.0
H892 H 0.59615 0.26151 0.08022 0.0
C893 C 0.66701 0.2509 0.036 0.0
C894 C 0.64609 0.25325 0.00553 0.0
H895 H 0.67942 0.25122 0.10387 0.0
H896 H 0.68704 0.24806 0.02464 0.0
C897 C 0.62042 0.25659 0.02216 0.0
C898 C 0.77683 0.62893 0.93686 0.0
C899 C 0.77708 0.60405 0.95631 0.0
H900 H 0.76704 0.65194 0.87959 0.0
C901 C 0.76688 0.58293 0.93206 0.0
H902 H 0.78439 0.64561 0.9549 0.0
C903 C 0.75708 0.5865 0.88893 0.0
C904 C 0.75695 0.61134 0.86926 0.0
H905 H 0.76684 0.56351 0.94613 0.0
H906 H 0.74975 0.56972 0.8709 0.0
C907 C 0.76669 0.63258 0.89388 0.0
C908 C 0.38334 0.73282 0.02172 0.0
C909 C 0.35755 0.73517 0.00518 0.0
H910 H 0.40791 0.72899 0.07965 0.0
C911 C 0.33659 0.73668 0.0357 0.0
H912 H 0.39993 0.73167 -0.00088 0.0
C913 C 0.34111 0.73511 0.08141 0.0
C914 C 0.36674 0.73205 0.09809 0.0
H915 H 0.31644 0.7387 0.0244 0.0
H916 H 0.32433 0.73599 0.10364 0.0
C917 C 0.38791 0.73131 0.06783 0.0
C918 C 0.24298 0.40519 0.89383 0.0
C919 C 0.24362 0.38027 0.87451 0.0
H920 H 0.23302 0.42814 0.95103 0.0
C921 C 0.234 0.35899 0.89914 0.0
H922 H 0.25022 0.42199 0.87574 0.0
C923 C 0.2238 0.3626 0.94203 0.0
C924 C 0.22339 0.38747 0.9614 0.0
H925 H 0.23404 0.33956 0.8851 0.0
H926 H 0.21654 0.34584 0.96019 0.0
C927 C 0.23315 0.40872 0.93696 0.0
C928 C 0.16868 0.33318 0.20441 0.0
C929 C 0.15193 0.34517 0.17333 0.0
H930 H 0.17457 0.30137 0.24916 0.0
C931 C 0.12607 0.33566 0.16848 0.0
H932 H 0.18857 0.34016 0.20952 0.0
C933 C 0.11792 0.31334 0.19168 0.0
C934 C 0.13557 0.30018 0.21979 0.0
H935 H 0.11259 0.34461 0.14505 0.0
H936 H 0.09852 0.30544 0.18527 0.0
C937 C 0.16063 0.31093 0.22722 0.0
C938 C 0.66074 0.17901 0.26987 0.0
C939 C 0.63579 0.18988 0.27785 0.0
H940 H 0.68872 0.14968 0.28699 0.0
C941 C 0.61831 0.17679 0.30634 0.0
H942 H 0.67454 0.18852 0.24764 0.0
C943 C 0.62658 0.15444 0.32937 0.0
C944 C 0.65236 0.14483 0.32398 0.0
H945 H 0.59901 0.18479 0.31318 0.0
H946 H 0.61325 0.14557 0.35311 0.0
C947 C 0.6689 0.15673 0.29251 0.0
C948 C 0.87707 0.65366 0.1642 0.0
C949 C 0.85123 0.64407 0.1689 0.0
H950 H 0.90474 0.68353 0.1823 0.0
C951 C 0.83471 0.65541 0.20103 0.0
H952 H 0.89038 0.64521 0.13998 0.0
C953 C 0.84295 0.67714 0.2251 0.0
C954 C 0.86796 0.68806 0.21787 0.0
H955 H 0.81486 0.64833 0.20607 0.0
H956 H 0.82916 0.68625 0.24785 0.0
C957 C 0.8854 0.67548 0.18863 0.0
C958 C 0.38661 0.8132 0.30476 0.0
C959 C 0.36897 0.7998 0.27696 0.0
H960 H 0.39183 0.84467 0.35101 0.0
C961 C 0.34381 0.81035 0.26963 0.0
H962 H 0.40609 0.80545 0.31109 0.0
C963 C 0.33565 0.83263 0.29228 0.0
C964 C 0.3524 0.84485 0.32308 0.0
H965 H 0.32988 0.80061 0.24793 0.0
H966 H 0.3157 0.83945 0.28727 0.0
C967 C 0.37835 0.83555 0.32779 0.0
C968 C 0.12625 0.65421 0.82893 0.0
C969 C 0.15211 0.64464 0.82457 0.0
H970 H 0.09882 0.68444 0.81151 0.0
C971 C 0.16907 0.65659 0.7938 0.0
H972 H 0.11261 0.64531 0.85212 0.0
C973 C 0.16117 0.67883 0.77076 0.0
C974 C 0.13608 0.68962 0.77766 0.0
H975 H 0.18897 0.64957 0.78907 0.0
H976 H 0.17525 0.68833 0.74904 0.0
C977 C 0.11825 0.67652 0.80551 0.0
C978 C 0.37862 0.1543 0.66841 0.0
C979 C 0.35277 0.14476 0.67309 0.0
H980 H 0.40612 0.18452 0.68543 0.0
C981 C 0.33595 0.15673 0.70408 0.0
H982 H 0.39215 0.14537 0.64506 0.0
C983 C 0.34395 0.17897 0.72699 0.0
C984 C 0.36901 0.18975 0.71974 0.0
H985 H 0.31607 0.14973 0.70906 0.0
H986 H 0.32997 0.18851 0.74886 0.0
C987 C 0.38672 0.17661 0.69171 0.0
C988 C 0.84355 0.31206 0.77062 0.0
C989 C 0.86864 0.30135 0.77801 0.0
H990 H 0.81545 0.34109 0.78868 0.0
C991 C 0.8862 0.31444 0.80638 0.0
H992 H 0.82968 0.30255 0.7485 0.0
C993 C 0.87791 0.33662 0.82988 0.0
C994 C 0.85201 0.34605 0.82509 0.0
H995 H 0.90561 0.30657 0.81277 0.0
H996 H 0.89132 0.34548 0.85351 0.0
C997 C 0.83536 0.33416 0.79375 0.0
C998 C 0.66631 0.83779 0.7099 0.0
C999 C 0.6503 0.84932 0.67722 0.0
H1000 H 0.67121 0.80638 0.75582 0.0
C1001 C 0.62445 0.84 0.67146 0.0
H1002 H 0.68613 0.84474 0.7158 0.0
C1003 C 0.61577 0.81795 0.69484 0.0
C1004 C 0.63288 0.80497 0.72414 0.0
H1005 H 0.61152 0.84864 0.64682 0.0
H1006 H 0.5966 0.80988 0.68721 0.0
C1007 C 0.65769 0.81587 0.73304 0.0
C1008 C 0.82945 0.65591 0.6265 0.0
C1009 C 0.84266 0.67229 0.65658 0.0
H1010 H 0.80244 0.6243 0.6196 0.0
C1011 C 0.84567 0.66441 0.7011 0.0
H1012 H 0.82696 0.66169 0.59196 0.0
C1013 C 0.83129 0.64316 0.71703 0.0
C1014 C 0.81425 0.62962 0.68832 0.0
H1015 H 0.8557 0.67684 0.72487 0.0
H1016 H 0.83033 0.63998 0.75277 0.0
C1017 C 0.8156 0.63433 0.64228 0.0
C1018 C 0.34351 0.82298 0.79893 0.0
C1019 C 0.3396 0.81493 0.84316 0.0
H1020 H 0.32888 0.84711 0.74619 0.0
C1021 C 0.3249 0.83073 0.87215 0.0
H1022 H 0.35465 0.81096 0.77596 0.0
C1023 C 0.31074 0.85185 0.85535 0.0
C1024 C 0.31074 0.85681 0.80935 0.0
H1025 H 0.32166 0.82479 0.90643 0.0
H1026 H 0.29667 0.86147 0.87696 0.0
C1027 C 0.32886 0.84376 0.78192 0.0
C1028 C 0.17874 0.33103 0.62611 0.0
C1029 C 0.16432 0.31513 0.65534 0.0
H1030 H 0.20696 0.36173 0.62085 0.0
C1031 C 0.16087 0.32301 0.69977 0.0
H1032 H 0.18163 0.32521 0.59168 0.0
C1033 C 0.17572 0.3437 0.7166 0.0
C1034 C 0.19357 0.35683 0.6888 0.0
H1035 H 0.14997 0.31092 0.72293 0.0
H1036 H 0.17605 0.34692 0.75236 0.0
C1037 C 0.1931 0.35205 0.64275 0.0
C1038 C 0.6759 0.14557 0.78092 0.0
C1039 C 0.69392 0.13247 0.80848 0.0
H1040 H 0.64992 0.17821 0.77502 0.0
C1041 C 0.69354 0.13711 0.85458 0.0
H1042 H 0.67617 0.14245 0.74513 0.0
C1043 C 0.67907 0.158 0.87149 0.0
C1044 C 0.66448 0.17391 0.84249 0.0
H1045 H 0.70752 0.12744 0.8763 0.0
H1046 H 0.68203 0.16373 0.90596 0.0
C1047 C 0.66095 0.16612 0.79802 0.0
C1048 C 0.82905 0.34633 0.28333 0.0
C1049 C 0.81104 0.3591 0.31134 0.0
H1050 H 0.85484 0.31361 0.27615 0.0
C1051 C 0.81137 0.35383 0.35723 0.0
H1052 H 0.82882 0.34993 0.24767 0.0
C1053 C 0.82571 0.33263 0.37332 0.0
C1054 C 0.84023 0.31705 0.34371 0.0
H1055 H 0.7974 0.36324 0.37928 0.0
H1056 H 0.82269 0.32645 0.40753 0.0
C1057 C 0.84385 0.32544 0.29961 0.0
C1058 C 0.68026 0.83167 0.12003 0.0
C1059 C 0.66455 0.81619 0.14796 0.0
H1060 H 0.70924 0.86179 0.11717 0.0
C1061 C 0.65985 0.82431 0.19195 0.0
H1062 H 0.68413 0.82569 0.08596 0.0
C1063 C 0.6746 0.84473 0.21001 0.0
C1064 C 0.69357 0.85742 0.18381 0.0
H1065 H 0.64794 0.81255 0.21416 0.0
H1066 H 0.67385 0.84806 0.24572 0.0
C1067 C 0.6945 0.85246 0.13783 0.0
C1068 C 0.17857 0.65838 0.37056 0.0
C1069 C 0.16423 0.6742 0.34105 0.0
H1070 H 0.20701 0.62787 0.37638 0.0
C1071 C 0.16116 0.66632 0.29654 0.0
H1072 H 0.1812 0.66421 0.40506 0.0
C1073 C 0.17628 0.64574 0.28 0.0
C1074 C 0.19403 0.63271 0.30816 0.0
H1075 H 0.15034 0.67836 0.27317 0.0
H1076 H 0.17689 0.64254 0.24425 0.0
C1077 C 0.19323 0.63747 0.3542 0.0
C1078 C 0.31151 0.13755 0.14262 0.0
C1079 C 0.311 0.13275 0.18866 0.0
H1080 H 0.32309 0.16437 0.09164 0.0
C1081 C 0.32886 0.14582 0.21655 0.0
H1082 H 0.29764 0.1279 0.12066 0.0
C1083 C 0.34377 0.16649 0.19981 0.0
C1084 C 0.34038 0.1744 0.15539 0.0
H1085 H 0.32847 0.14259 0.2523 0.0
H1086 H 0.35467 0.17855 0.22305 0.0
C1087 C 0.32595 0.15854 0.12607 0.0
loop_
_geom_bond_atom_site_label_1
_geom_bond_atom_site_label_2
_geom_bond_distance
_geom_bond_site_symmetry_2
_ccdc_geom_bond_type
Mg0 O1 2.028 . S
Mg0 O7 1.986 . S
Mg0 O9 2.114 . S
Mg0 O10 2.251 . S
Mg0 O13 2.010 . S
O1 Mg0 2.028 . S
O1 C4 1.250 . S
O2 Mg3 2.028 . S
O2 C4 1.248 . S
Mg3 O2 2.028 . S
Mg3 O8 2.032 . S
Mg3 O10 2.079 . S
C4 O1 1.250 . S
C4 O2 1.248 . S
C5 O6 1.264 . S
C5 O13 1.249 . S
O6 C5 1.264 . S
O7 Mg0 1.986 . S
O7 C11 1.246 . S
O8 Mg3 2.032 . S
O8 C11 1.259 . S
O9 Mg0 2.114 . S
O9 C12 1.252 . S
O10 Mg0 2.251 . S
O10 Mg3 2.079 . S
O10 C12 1.273 . S
C11 O7 1.246 . S
C11 O8 1.259 . S
C12 O9 1.252 . S
C12 O10 1.273 . S
O13 Mg0 2.010 . S
O13 C5 1.249 . S
Mg14 O15 2.028 . S
Mg14 O21 1.986 . S
Mg14 O23 2.114 . S
Mg14 O24 2.251 . S
Mg14 O27 2.010 . S
O15 Mg14 2.028 . S
O15 C18 1.250 . S
O16 Mg17 2.028 . S
O16 C18 1.248 . S
Mg17 O16 2.028 . S
Mg17 O22 2.032 . S
Mg17 O24 2.079 . S
C18 O15 1.250 . S
C18 O16 1.248 . S
C19 O20 1.264 . S
C19 O27 1.249 . S
O20 C19 1.264 . S
O21 Mg14 1.986 . S
O21 C25 1.246 . S
O22 Mg17 2.032 . S
O22 C25 1.259 . S
O23 Mg14 2.114 . S
O23 C26 1.252 . S
O24 Mg14 2.251 . S
O24 Mg17 2.079 . S
O24 C26 1.273 . S
C25 O21 1.246 . S
C25 O22 1.259 . S
C26 O23 1.252 . S
C26 O24 1.273 . S
O27 Mg14 2.010 . S
O27 C19 1.249 . S
Mg28 O29 2.028 . S
Mg28 O35 1.986 . S
Mg28 O37 2.114 . S
Mg28 O38 2.251 . S
Mg28 O41 2.010 . S
O29 Mg28 2.028 . S
O29 C32 1.250 . S
O30 Mg31 2.028 . S
O30 C32 1.248 . S
Mg31 O30 2.028 . S
Mg31 O36 2.032 . S
Mg31 O38 2.079 . S
C32 O29 1.250 . S
C32 O30 1.248 . S
C33 O34 1.264 . S
C33 O41 1.249 . S
O34 C33 1.264 . S
O35 Mg28 1.986 . S
O35 C39 1.246 . S
O36 Mg31 2.032 . S
O36 C39 1.259 . S
O37 Mg28 2.114 . S
O37 C40 1.252 . S
O38 Mg28 2.251 . S
O38 Mg31 2.079 . S
O38 C40 1.273 . S
C39 O35 1.246 . S
C39 O36 1.259 . S
C40 O37 1.252 . S
C40 O38 1.273 . S
O41 Mg28 2.010 . S
O41 C33 1.249 . S
Mg42 O43 2.028 . S
Mg42 O49 1.986 . S
Mg42 O51 2.114 . S
Mg42 O52 2.251 . S
Mg42 O55 2.010 . S
O43 Mg42 2.028 . S
O43 C46 1.250 . S
O44 Mg45 2.028 . S
O44 C46 1.248 . S
Mg45 O44 2.028 . S
Mg45 O50 2.032 . S
Mg45 O52 2.079 . S
C46 O43 1.250 . S
C46 O44 1.248 . S
C47 O48 1.264 . S
C47 O55 1.249 . S
O48 C47 1.264 . S
O49 Mg42 1.986 . S
O49 C53 1.246 . S
O50 Mg45 2.032 . S
O50 C53 1.259 . S
O51 Mg42 2.114 . S
O51 C54 1.252 . S
O52 Mg42 2.251 . S
O52 Mg45 2.079 . S
O52 C54 1.273 . S
C53 O49 1.246 . S
C53 O50 1.259 . S
C54 O51 1.252 . S
C54 O52 1.273 . S
O55 Mg42 2.010 . S
O55 C47 1.249 . S
Mg56 O57 2.028 . S
Mg56 O63 1.986 . S
Mg56 O65 2.114 . S
Mg56 O66 2.251 . S
Mg56 O69 2.010 . S
O57 Mg56 2.028 . S
O57 C60 1.250 . S
O58 Mg59 2.028 . S
O58 C60 1.248 . S
Mg59 O58 2.028 . S
Mg59 O64 2.032 . S
Mg59 O66 2.079 . S
C60 O57 1.250 . S
C60 O58 1.248 . S
C61 O62 1.264 . S
C61 O69 1.249 . S
O62 C61 1.264 . S
O63 Mg56 1.986 . S
O63 C67 1.246 . S
O64 Mg59 2.032 . S
O64 C67 1.259 . S
O65 Mg56 2.114 . S
O65 C68 1.252 . S
O66 Mg56 2.251 . S
O66 Mg59 2.079 . S
O66 C68 1.273 . S
C67 O63 1.246 . S
C67 O64 1.259 . S
C68 O65 1.252 . S
C68 O66 1.273 . S
O69 Mg56 2.010 . S
O69 C61 1.249 . S
Mg70 O71 2.028 . S
Mg70 O77 1.986 . S
Mg70 O79 2.114 . S
Mg70 O80 2.251 . S
Mg70 O83 2.010 . S
O71 Mg70 2.028 . S
O71 C74 1.250 . S
O72 Mg73 2.028 . S
O72 C74 1.248 . S
Mg73 O72 2.028 . S
Mg73 O78 2.032 . S
Mg73 O80 2.079 . S
C74 O71 1.250 . S
C74 O72 1.248 . S
C75 O76 1.264 . S
C75 O83 1.249 . S
O76 C75 1.264 . S
O77 Mg70 1.986 . S
O77 C81 1.246 . S
O78 Mg73 2.032 . S
O78 C81 1.259 . S
O79 Mg70 2.114 . S
O79 C82 1.252 . S
O80 Mg70 2.251 . S
O80 Mg73 2.079 . S
O80 C82 1.273 . S
C81 O77 1.246 . S
C81 O78 1.259 . S
C82 O79 1.252 . S
C82 O80 1.273 . S
O83 Mg70 2.010 . S
O83 C75 1.249 . S
Mg84 O85 2.028 . S
Mg84 O91 1.986 . S
Mg84 O93 2.114 . S
Mg84 O94 2.251 . S
Mg84 O97 2.010 . S
O85 Mg84 2.028 . S
O85 C88 1.250 . S
O86 Mg87 2.028 . S
O86 C88 1.248 . S
Mg87 O86 2.028 . S
Mg87 O92 2.032 . S
Mg87 O94 2.079 . S
C88 O85 1.250 . S
C88 O86 1.248 . S
C89 O90 1.264 . S
C89 O97 1.249 . S
O90 C89 1.264 . S
O91 Mg84 1.986 . S
O91 C95 1.246 . S
O92 Mg87 2.032 . S
O92 C95 1.259 . S
O93 Mg84 2.114 . S
O93 C96 1.252 . S
O94 Mg84 2.251 . S
O94 Mg87 2.079 . S
O94 C96 1.273 . S
C95 O91 1.246 . S
C95 O92 1.259 . S
C96 O93 1.252 . S
C96 O94 1.273 . S
O97 Mg84 2.010 . S
O97 C89 1.249 . S
Mg98 O99 2.028 . S
Mg98 O105 1.986 . S
Mg98 O107 2.114 . S
Mg98 O108 2.251 . S
Mg98 O111 2.010 . S
O99 Mg98 2.028 . S
O99 C102 1.250 . S
O100 Mg101 2.028 . S
O100 C102 1.248 . S
Mg101 O100 2.028 . S
Mg101 O106 2.032 . S
Mg101 O108 2.079 . S
C102 O99 1.250 . S
C102 O100 1.248 . S
C103 O104 1.264 . S
C103 O111 1.249 . S
O104 C103 1.264 . S
O105 Mg98 1.986 . S
O105 C109 1.246 . S
O106 Mg101 2.032 . S
O106 C109 1.259 . S
O107 Mg98 2.114 . S
O107 C110 1.252 . S
O108 Mg98 2.251 . S
O108 Mg101 2.079 . S
O108 C110 1.273 . S
C109 O105 1.246 . S
C109 O106 1.259 . S
C110 O107 1.252 . S
C110 O108 1.273 . S
O111 Mg98 2.010 . S
O111 C103 1.249 . S
Mg112 O113 2.028 . S
Mg112 O119 1.986 . S
Mg112 O121 2.114 . S
Mg112 O122 2.251 . S
Mg112 O125 2.010 . S
O113 Mg112 2.028 . S
O113 C116 1.250 . S
O114 Mg115 2.028 . S
O114 C116 1.248 . S
Mg115 O114 2.028 . S
Mg115 O120 2.032 . S
Mg115 O122 2.079 . S
C116 O113 1.250 . S
C116 O114 1.248 . S
C117 O118 1.264 . S
C117 O125 1.249 . S
O118 C117 1.264 . S
O119 Mg112 1.986 . S
O119 C123 1.246 . S
O120 Mg115 2.032 . S
O120 C123 1.259 . S
O121 Mg112 2.114 . S
O121 C124 1.252 . S
O122 Mg112 2.251 . S
O122 Mg115 2.079 . S
O122 C124 1.273 . S
C123 O119 1.246 . S
C123 O120 1.259 . S
C124 O121 1.252 . S
C124 O122 1.273 . S
O125 Mg112 2.010 . S
O125 C117 1.249 . S
Mg126 O127 2.028 . S
Mg126 O133 1.986 . S
Mg126 O135 2.114 . S
Mg126 O136 2.251 . S
Mg126 O139 2.010 . S
O127 Mg126 2.028 . S
O127 C130 1.250 . S
O128 Mg129 2.028 . S
O128 C130 1.248 . S
Mg129 O128 2.028 . S
Mg129 O134 2.032 . S
Mg129 O136 2.079 . S
C130 O127 1.250 . S
C130 O128 1.248 . S
C131 O132 1.264 . S
C131 O139 1.249 . S
O132 C131 1.264 . S
O133 Mg126 1.986 . S
O133 C137 1.246 . S
O134 Mg129 2.032 . S
O134 C137 1.259 . S
O135 Mg126 2.114 . S
O135 C138 1.252 . S
O136 Mg126 2.251 . S
O136 Mg129 2.079 . S
O136 C138 1.273 . S
C137 O133 1.246 . S
C137 O134 1.259 . S
C138 O135 1.252 . S
C138 O136 1.273 . S
O139 Mg126 2.010 . S
O139 C131 1.249 . S
Mg140 O141 2.028 . S
Mg140 O147 1.986 . S
Mg140 O149 2.114 . S
Mg140 O150 2.251 . S
Mg140 O153 2.010 . S
O141 Mg140 2.028 . S
O141 C144 1.250 . S
O142 Mg143 2.028 . S
O142 C144 1.248 . S
Mg143 O142 2.028 . S
Mg143 O148 2.032 . S
Mg143 O150 2.079 . S
C144 O141 1.250 . S
C144 O142 1.248 . S
C145 O146 1.264 . S
C145 O153 1.249 . S
O146 C145 1.264 . S
O147 Mg140 1.986 . S
O147 C151 1.246 . S
O148 Mg143 2.032 . S
O148 C151 1.259 . S
O149 Mg140 2.114 . S
O149 C152 1.252 . S
O150 Mg140 2.251 . S
O150 Mg143 2.079 . S
O150 C152 1.273 . S
C151 O147 1.246 . S
C151 O148 1.259 . S
C152 O149 1.252 . S
C152 O150 1.273 . S
O153 Mg140 2.010 . S
O153 C145 1.249 . S
Mg154 O155 2.028 . S
Mg154 O161 1.986 . S
Mg154 O163 2.114 . S
Mg154 O164 2.251 . S
Mg154 O167 2.010 . S
O155 Mg154 2.028 . S
O155 C158 1.250 . S
O156 Mg157 2.028 . S
O156 C158 1.248 . S
Mg157 O156 2.028 . S
Mg157 O162 2.032 . S
Mg157 O164 2.079 . S
C158 O155 1.250 . S
C158 O156 1.248 . S
C159 O160 1.264 . S
C159 O167 1.249 . S
O160 C159 1.264 . S
O161 Mg154 1.986 . S
O161 C165 1.246 . S
O162 Mg157 2.032 . S
O162 C165 1.259 . S
O163 Mg154 2.114 . S
O163 C166 1.252 . S
O164 Mg154 2.251 . S
O164 Mg157 2.079 . S
O164 C166 1.273 . S
C165 O161 1.246 . S
C165 O162 1.259 . S
C166 O163 1.252 . S
C166 O164 1.273 . S
O167 Mg154 2.010 . S
O167 C159 1.249 . S
Mg168 O169 2.028 . S
Mg168 O175 1.986 . S
Mg168 O177 2.114 . S
Mg168 O178 2.251 . S
Mg168 O181 2.010 . S
O169 Mg168 2.028 . S
O169 C172 1.250 . S
O170 Mg171 2.028 . S
O170 C172 1.248 . S
Mg171 O170 2.028 . S
Mg171 O176 2.032 . S
Mg171 O178 2.079 . S
C172 O169 1.250 . S
C172 O170 1.248 . S
C173 O174 1.264 . S
C173 O181 1.249 . S
O174 C173 1.264 . S
O175 Mg168 1.986 . S
O175 C179 1.246 . S
O176 Mg171 2.032 . S
O176 C179 1.259 . S
O177 Mg168 2.114 . S
O177 C180 1.252 . S
O178 Mg168 2.251 . S
O178 Mg171 2.079 . S
O178 C180 1.273 . S
C179 O175 1.246 . S
C179 O176 1.259 . S
C180 O177 1.252 . S
C180 O178 1.273 . S
O181 Mg168 2.010 . S
O181 C173 1.249 . S
Mg182 O183 2.028 . S
Mg182 O189 1.986 . S
Mg182 O191 2.114 . S
Mg182 O192 2.251 . S
Mg182 O195 2.010 . S
O183 Mg182 2.028 . S
O183 C186 1.250 . S
O184 Mg185 2.028 . S
O184 C186 1.248 . S
Mg185 O184 2.028 . S
Mg185 O190 2.032 . S
Mg185 O192 2.079 . S
C186 O183 1.250 . S
C186 O184 1.248 . S
C187 O188 1.264 . S
C187 O195 1.249 . S
O188 C187 1.264 . S
O189 Mg182 1.986 . S
O189 C193 1.246 . S
O190 Mg185 2.032 . S
O190 C193 1.259 . S
O191 Mg182 2.114 . S
O191 C194 1.252 . S
O192 Mg182 2.251 . S
O192 Mg185 2.079 . S
O192 C194 1.273 . S
C193 O189 1.246 . S
C193 O190 1.259 . S
C194 O191 1.252 . S
C194 O192 1.273 . S
O195 Mg182 2.010 . S
O195 C187 1.249 . S
Mg196 O197 2.028 . S
Mg196 O203 1.986 . S
Mg196 O205 2.114 . S
Mg196 O206 2.251 . S
Mg196 O209 2.010 . S
O197 Mg196 2.028 . S
O197 C200 1.250 . S
O198 Mg199 2.028 . S
O198 C200 1.248 . S
Mg199 O198 2.028 . S
Mg199 O204 2.032 . S
Mg199 O206 2.079 . S
C200 O197 1.250 . S
C200 O198 1.248 . S
C201 O202 1.264 . S
C201 O209 1.249 . S
O202 C201 1.264 . S
O203 Mg196 1.986 . S
O203 C207 1.246 . S
O204 Mg199 2.032 . S
O204 C207 1.259 . S
O205 Mg196 2.114 . S
O205 C208 1.252 . S
O206 Mg196 2.251 . S
O206 Mg199 2.079 . S
O206 C208 1.273 . S
C207 O203 1.246 . S
C207 O204 1.259 . S
C208 O205 1.252 . S
C208 O206 1.273 . S
O209 Mg196 2.010 . S
O209 C201 1.249 . S
Mg210 O211 2.028 . S
Mg210 O217 1.986 . S
Mg210 O219 2.114 . S
Mg210 O220 2.251 . S
Mg210 O223 2.010 . S
O211 Mg210 2.028 . S
O211 C214 1.250 . S
O212 Mg213 2.028 . S
O212 C214 1.248 . S
Mg213 O212 2.028 . S
Mg213 O218 2.032 . S
Mg213 O220 2.079 . S
C214 O211 1.250 . S
C214 O212 1.248 . S
C215 O216 1.264 . S
C215 O223 1.249 . S
O216 C215 1.264 . S
O217 Mg210 1.986 . S
O217 C221 1.246 . S
O218 Mg213 2.032 . S
O218 C221 1.259 . S
O219 Mg210 2.114 . S
O219 C222 1.252 . S
O220 Mg210 2.251 . S
O220 Mg213 2.079 . S
O220 C222 1.273 . S
C221 O217 1.246 . S
C221 O218 1.259 . S
C222 O219 1.252 . S
C222 O220 1.273 . S
O223 Mg210 2.010 . S
O223 C215 1.249 . S
Mg224 O225 2.028 . S
Mg224 O231 1.986 . S
Mg224 O233 2.114 . S
Mg224 O234 2.251 . S
Mg224 O237 2.010 . S
O225 Mg224 2.028 . S
O225 C228 1.250 . S
O226 Mg227 2.028 . S
O226 C228 1.248 . S
Mg227 O226 2.028 . S
Mg227 O232 2.032 . S
Mg227 O234 2.079 . S
C228 O225 1.250 . S
C228 O226 1.248 . S
C229 O230 1.264 . S
C229 O237 1.249 . S
O230 C229 1.264 . S
O231 Mg224 1.986 . S
O231 C235 1.246 . S
O232 Mg227 2.032 . S
O232 C235 1.259 . S
O233 Mg224 2.114 . S
O233 C236 1.252 . S
O234 Mg224 2.251 . S
O234 Mg227 2.079 . S
O234 C236 1.273 . S
C235 O231 1.246 . S
C235 O232 1.259 . S
C236 O233 1.252 . S
C236 O234 1.273 . S
O237 Mg224 2.010 . S
O237 C229 1.249 . S
Mg238 O239 2.028 . S
Mg238 O245 1.986 . S
Mg238 O247 2.114 . S
Mg238 O248 2.251 . S
Mg238 O251 2.010 . S
O239 Mg238 2.028 . S
O239 C242 1.250 . S
O240 Mg241 2.028 . S
O240 C242 1.248 . S
Mg241 O240 2.028 . S
Mg241 O246 2.032 . S
Mg241 O248 2.079 . S
C242 O239 1.250 . S
C242 O240 1.248 . S
C243 O244 1.264 . S
C243 O251 1.249 . S
O244 C243 1.264 . S
O245 Mg238 1.986 . S
O245 C249 1.246 . S
O246 Mg241 2.032 . S
O246 C249 1.259 . S
O247 Mg238 2.114 . S
O247 C250 1.252 . S
O248 Mg238 2.251 . S
O248 Mg241 2.079 . S
O248 C250 1.273 . S
C249 O245 1.246 . S
C249 O246 1.259 . S
C250 O247 1.252 . S
C250 O248 1.273 . S
O251 Mg238 2.010 . S
O251 C243 1.249 . S
Mg252 O253 2.028 . S
Mg252 O259 1.986 . S
Mg252 O261 2.114 . S
Mg252 O262 2.251 . S
Mg252 O265 2.010 . S
O253 Mg252 2.028 . S
O253 C256 1.250 . S
O254 Mg255 2.028 . S
O254 C256 1.248 . S
Mg255 O254 2.028 . S
Mg255 O260 2.032 . S
Mg255 O262 2.079 . S
C256 O253 1.250 . S
C256 O254 1.248 . S
C257 O258 1.264 . S
C257 O265 1.249 . S
O258 C257 1.264 . S
O259 Mg252 1.986 . S
O259 C263 1.246 . S
O260 Mg255 2.032 . S
O260 C263 1.259 . S
O261 Mg252 2.114 . S
O261 C264 1.252 . S
O262 Mg252 2.251 . S
O262 Mg255 2.079 . S
O262 C264 1.273 . S
C263 O259 1.246 . S
C263 O260 1.259 . S
C264 O261 1.252 . S
C264 O262 1.273 . S
O265 Mg252 2.010 . S
O265 C257 1.249 . S
Mg266 O267 2.028 . S
Mg266 O273 1.986 . S
Mg266 O275 2.114 . S
Mg266 O276 2.251 . S
Mg266 O279 2.010 . S
O267 Mg266 2.028 . S
O267 C270 1.250 . S
O268 Mg269 2.028 . S
O268 C270 1.248 . S
Mg269 O268 2.028 . S
Mg269 O274 2.032 . S
Mg269 O276 2.079 . S
C270 O267 1.250 . S
C270 O268 1.248 . S
C271 O272 1.264 . S
C271 O279 1.249 . S
O272 C271 1.264 . S
O273 Mg266 1.986 . S
O273 C277 1.246 . S
O274 Mg269 2.032 . S
O274 C277 1.259 . S
O275 Mg266 2.114 . S
O275 C278 1.252 . S
O276 Mg266 2.251 . S
O276 Mg269 2.079 . S
O276 C278 1.273 . S
C277 O273 1.246 . S
C277 O274 1.259 . S
C278 O275 1.252 . S
C278 O276 1.273 . S
O279 Mg266 2.010 . S
O279 C271 1.249 . S
Mg280 O281 2.028 . S
Mg280 O287 1.986 . S
Mg280 O289 2.114 . S
Mg280 O290 2.251 . S
Mg280 O293 2.010 . S
O281 Mg280 2.028 . S
O281 C284 1.250 . S
O282 Mg283 2.028 . S
O282 C284 1.248 . S
Mg283 O282 2.028 . S
Mg283 O288 2.032 . S
Mg283 O290 2.079 . S
C284 O281 1.250 . S
C284 O282 1.248 . S
C285 O286 1.264 . S
C285 O293 1.249 . S
O286 C285 1.264 . S
O287 Mg280 1.986 . S
O287 C291 1.246 . S
O288 Mg283 2.032 . S
O288 C291 1.259 . S
O289 Mg280 2.114 . S
O289 C292 1.252 . S
O290 Mg280 2.251 . S
O290 Mg283 2.079 . S
O290 C292 1.273 . S
C291 O287 1.246 . S
C291 O288 1.259 . S
C292 O289 1.252 . S
C292 O290 1.273 . S
O293 Mg280 2.010 . S
O293 C285 1.249 . S
Mg294 O295 2.028 . S
Mg294 O301 1.986 . S
Mg294 O303 2.114 . S
Mg294 O304 2.251 . S
Mg294 O307 2.010 . S
O295 Mg294 2.028 . S
O295 C298 1.250 . S
O296 Mg297 2.028 . S
O296 C298 1.248 . S
Mg297 O296 2.028 . S
Mg297 O302 2.032 . S
Mg297 O304 2.079 . S
C298 O295 1.250 . S
C298 O296 1.248 . S
C299 O300 1.264 . S
C299 O307 1.249 . S
O300 C299 1.264 . S
O301 Mg294 1.986 . S
O301 C305 1.246 . S
O302 Mg297 2.032 . S
O302 C305 1.259 . S
O303 Mg294 2.114 . S
O303 C306 1.252 . S
O304 Mg294 2.251 . S
O304 Mg297 2.079 . S
O304 C306 1.273 . S
C305 O301 1.246 . S
C305 O302 1.259 . S
C306 O303 1.252 . S
C306 O304 1.273 . S
O307 Mg294 2.010 . S
O307 C299 1.249 . S
Mg308 O309 2.028 . S
Mg308 O315 1.986 . S
Mg308 O317 2.114 . S
Mg308 O318 2.251 . S
Mg308 O321 2.010 . S
O309 Mg308 2.028 . S
O309 C312 1.250 . S
O310 Mg311 2.028 . S
O310 C312 1.248 . S
Mg311 O310 2.028 . S
Mg311 O316 2.032 . S
Mg311 O318 2.079 . S
C312 O309 1.250 . S
C312 O310 1.248 . S
C313 O314 1.264 . S
C313 O321 1.249 . S
O314 C313 1.264 . S
O315 Mg308 1.986 . S
O315 C319 1.246 . S
O316 Mg311 2.032 . S
O316 C319 1.259 . S
O317 Mg308 2.114 . S
O317 C320 1.252 . S
O318 Mg308 2.251 . S
O318 Mg311 2.079 . S
O318 C320 1.273 . S
C319 O315 1.246 . S
C319 O316 1.259 . S
C320 O317 1.252 . S
C320 O318 1.273 . S
O321 Mg308 2.010 . S
O321 C313 1.249 . S
Mg322 O323 2.028 . S
Mg322 O329 1.986 . S
Mg322 O331 2.114 . S
Mg322 O332 2.251 . S
Mg322 O335 2.010 . S
O323 Mg322 2.028 . S
O323 C326 1.250 . S
O324 Mg325 2.028 . S
O324 C326 1.248 . S
Mg325 O324 2.028 . S
Mg325 O330 2.032 . S
Mg325 O332 2.079 . S
C326 O323 1.250 . S
C326 O324 1.248 . S
C327 O328 1.264 . S
C327 O335 1.249 . S
O328 C327 1.264 . S
O329 Mg322 1.986 . S
O329 C333 1.246 . S
O330 Mg325 2.032 . S
O330 C333 1.259 . S
O331 Mg322 2.114 . S
O331 C334 1.252 . S
O332 Mg322 2.251 . S
O332 Mg325 2.079 . S
O332 C334 1.273 . S
C333 O329 1.246 . S
C333 O330 1.259 . S
C334 O331 1.252 . S
C334 O332 1.273 . S
O335 Mg322 2.010 . S
O335 C327 1.249 . S
Mg336 O337 2.028 . S
Mg336 O343 1.986 . S
Mg336 O345 2.114 . S
Mg336 O346 2.251 . S
Mg336 O349 2.010 . S
O337 Mg336 2.028 . S
O337 C340 1.250 . S
O338 Mg339 2.028 . S
O338 C340 1.248 . S
Mg339 O338 2.028 . S
Mg339 O344 2.032 . S
Mg339 O346 2.079 . S
C340 O337 1.250 . S
C340 O338 1.248 . S
C341 O342 1.264 . S
C341 O349 1.249 . S
O342 C341 1.264 . S
O343 Mg336 1.986 . S
O343 C347 1.246 . S
O344 Mg339 2.032 . S
O344 C347 1.259 . S
O345 Mg336 2.114 . S
O345 C348 1.252 . S
O346 Mg336 2.251 . S
O346 Mg339 2.079 . S
O346 C348 1.273 . S
C347 O343 1.246 . S
C347 O344 1.259 . S
C348 O345 1.252 . S
C348 O346 1.273 . S
O349 Mg336 2.010 . S
O349 C341 1.249 . S
Mg350 O351 2.028 . S
Mg350 O357 1.986 . S
Mg350 O359 2.114 . S
Mg350 O360 2.251 . S
Mg350 O363 2.010 . S
O351 Mg350 2.028 . S
O351 C354 1.250 . S
O352 Mg353 2.028 . S
O352 C354 1.248 . S
Mg353 O352 2.028 . S
Mg353 O358 2.032 . S
Mg353 O360 2.079 . S
C354 O351 1.250 . S
C354 O352 1.248 . S
C355 O356 1.264 . S
C355 O363 1.249 . S
O356 C355 1.264 . S
O357 Mg350 1.986 . S
O357 C361 1.246 . S
O358 Mg353 2.032 . S
O358 C361 1.259 . S
O359 Mg350 2.114 . S
O359 C362 1.252 . S
O360 Mg350 2.251 . S
O360 Mg353 2.079 . S
O360 C362 1.273 . S
C361 O357 1.246 . S
C361 O358 1.259 . S
C362 O359 1.252 . S
C362 O360 1.273 . S
O363 Mg350 2.010 . S
O363 C355 1.249 . S
Mg364 O365 2.028 . S
Mg364 O371 1.986 . S
Mg364 O373 2.114 . S
Mg364 O374 2.251 . S
Mg364 O377 2.010 . S
O365 Mg364 2.028 . S
O365 C368 1.250 . S
O366 Mg367 2.028 . S
O366 C368 1.248 . S
Mg367 O366 2.028 . S
Mg367 O372 2.032 . S
Mg367 O374 2.079 . S
C368 O365 1.250 . S
C368 O366 1.248 . S
C369 O370 1.264 . S
C369 O377 1.249 . S
O370 C369 1.264 . S
O371 Mg364 1.986 . S
O371 C375 1.246 . S
O372 Mg367 2.032 . S
O372 C375 1.259 . S
O373 Mg364 2.114 . S
O373 C376 1.252 . S
O374 Mg364 2.251 . S
O374 Mg367 2.079 . S
O374 C376 1.273 . S
C375 O371 1.246 . S
C375 O372 1.259 . S
C376 O373 1.252 . S
C376 O374 1.273 . S
O377 Mg364 2.010 . S
O377 C369 1.249 . S
Mg378 O379 2.028 . S
Mg378 O385 1.986 . S
Mg378 O387 2.114 . S
Mg378 O388 2.251 . S
Mg378 O391 2.010 . S
O379 Mg378 2.028 . S
O379 C382 1.250 . S
O380 Mg381 2.028 . S
O380 C382 1.248 . S
Mg381 O380 2.028 . S
Mg381 O386 2.032 . S
Mg381 O388 2.079 . S
C382 O379 1.250 . S
C382 O380 1.248 . S
C383 O384 1.264 . S
C383 O391 1.249 . S
O384 C383 1.264 . S
O385 Mg378 1.986 . S
O385 C389 1.246 . S
O386 Mg381 2.032 . S
O386 C389 1.259 . S
O387 Mg378 2.114 . S
O387 C390 1.252 . S
O388 Mg378 2.251 . S
O388 Mg381 2.079 . S
O388 C390 1.273 . S
C389 O385 1.246 . S
C389 O386 1.259 . S
C390 O387 1.252 . S
C390 O388 1.273 . S
O391 Mg378 2.010 . S
O391 C383 1.249 . S
Mg392 O393 2.028 . S
Mg392 O399 1.986 . S
Mg392 O401 2.114 . S
Mg392 O402 2.251 . S
Mg392 O405 2.010 . S
O393 Mg392 2.028 . S
O393 C396 1.250 . S
O394 Mg395 2.028 . S
O394 C396 1.248 . S
Mg395 O394 2.028 . S
Mg395 O400 2.032 . S
Mg395 O402 2.079 . S
C396 O393 1.250 . S
C396 O394 1.248 . S
C397 O398 1.264 . S
C397 O405 1.249 . S
O398 C397 1.264 . S
O399 Mg392 1.986 . S
O399 C403 1.246 . S
O400 Mg395 2.032 . S
O400 C403 1.259 . S
O401 Mg392 2.114 . S
O401 C404 1.252 . S
O402 Mg392 2.251 . S
O402 Mg395 2.079 . S
O402 C404 1.273 . S
C403 O399 1.246 . S
C403 O400 1.259 . S
C404 O401 1.252 . S
C404 O402 1.273 . S
O405 Mg392 2.010 . S
O405 C397 1.249 . S
Mg406 O407 2.028 . S
Mg406 O413 1.986 . S
Mg406 O415 2.114 . S
Mg406 O416 2.251 . S
Mg406 O419 2.010 . S
O407 Mg406 2.028 . S
O407 C410 1.250 . S
O408 Mg409 2.028 . S
O408 C410 1.248 . S
Mg409 O408 2.028 . S
Mg409 O414 2.032 . S
Mg409 O416 2.079 . S
C410 O407 1.250 . S
C410 O408 1.248 . S
C411 O412 1.264 . S
C411 O419 1.249 . S
O412 C411 1.264 . S
O413 Mg406 1.986 . S
O413 C417 1.246 . S
O414 Mg409 2.032 . S
O414 C417 1.259 . S
O415 Mg406 2.114 . S
O415 C418 1.252 . S
O416 Mg406 2.251 . S
O416 Mg409 2.079 . S
O416 C418 1.273 . S
C417 O413 1.246 . S
C417 O414 1.259 . S
C418 O415 1.252 . S
C418 O416 1.273 . S
O419 Mg406 2.010 . S
O419 C411 1.249 . S
Mg420 O421 2.028 . S
Mg420 O427 1.986 . S
Mg420 O429 2.114 . S
Mg420 O430 2.251 . S
Mg420 O433 2.010 . S
O421 Mg420 2.028 . S
O421 C424 1.250 . S
O422 Mg423 2.028 . S
O422 C424 1.248 . S
Mg423 O422 2.028 . S
Mg423 O428 2.032 . S
Mg423 O430 2.079 . S
C424 O421 1.250 . S
C424 O422 1.248 . S
C425 O426 1.264 . S
C425 O433 1.249 . S
O426 C425 1.264 . S
O427 Mg420 1.986 . S
O427 C431 1.246 . S
O428 Mg423 2.032 . S
O428 C431 1.259 . S
O429 Mg420 2.114 . S
O429 C432 1.252 . S
O430 Mg420 2.251 . S
O430 Mg423 2.079 . S
O430 C432 1.273 . S
C431 O427 1.246 . S
C431 O428 1.259 . S
C432 O429 1.252 . S
C432 O430 1.273 . S
O433 Mg420 2.010 . S
O433 C425 1.249 . S
Mg434 O435 2.028 . S
Mg434 O441 1.986 . S
Mg434 O443 2.114 . S
Mg434 O444 2.251 . S
Mg434 O447 2.010 . S
O435 Mg434 2.028 . S
O435 C438 1.250 . S
O436 Mg437 2.028 . S
O436 C438 1.248 . S
Mg437 O436 2.028 . S
Mg437 O442 2.032 . S
Mg437 O444 2.079 . S
C438 O435 1.250 . S
C438 O436 1.248 . S
C439 O440 1.264 . S
C439 O447 1.249 . S
O440 C439 1.264 . S
O441 Mg434 1.986 . S
O441 C445 1.246 . S
O442 Mg437 2.032 . S
O442 C445 1.259 . S
O443 Mg434 2.114 . S
O443 C446 1.252 . S
O444 Mg434 2.251 . S
O444 Mg437 2.079 . S
O444 C446 1.273 . S
C445 O441 1.246 . S
C445 O442 1.259 . S
C446 O443 1.252 . S
C446 O444 1.273 . S
O447 Mg434 2.010 . S
O447 C439 1.249 . S
C448 C449 1.387 . S
C448 H452 0.950 . S
C448 C457 1.390 . S
C449 C448 1.387 . S
C449 C451 1.387 . S
H450 C457 0.950 . S
C451 C449 1.387 . S
C451 C453 1.390 . S
C451 H455 0.950 . S
H452 C448 0.950 . S
C453 C451 1.390 . S
C453 C454 1.387 . S
C453 H456 0.950 . S
C454 C453 1.387 . S
C454 C457 1.387 . S
H455 C451 0.950 . S
H456 C453 0.950 . S
C457 C448 1.390 . S
C457 H450 0.950 . S
C457 C454 1.387 . S
C458 C459 1.387 . S
C458 H462 0.950 . S
C458 C467 1.390 . S
C459 C458 1.387 . S
C459 C461 1.387 . S
H460 C467 0.950 . S
C461 C459 1.387 . S
C461 C463 1.390 . S
C461 H465 0.950 . S
H462 C458 0.950 . S
C463 C461 1.390 . S
C463 C464 1.387 . S
C463 H466 0.950 . S
C464 C463 1.387 . S
C464 C467 1.387 . S
H465 C461 0.950 . S
H466 C463 0.950 . S
C467 C458 1.390 . S
C467 H460 0.950 . S
C467 C464 1.387 . S
C468 C469 1.387 . S
C468 H472 0.950 . S
C468 C477 1.390 . S
C469 C468 1.387 . S
C469 C471 1.387 . S
H470 C477 0.950 . S
C471 C469 1.387 . S
C471 C473 1.390 . S
C471 H475 0.950 . S
H472 C468 0.950 . S
C473 C471 1.390 . S
C473 C474 1.387 . S
C473 H476 0.950 . S
C474 C473 1.387 . S
C474 C477 1.387 . S
H475 C471 0.950 . S
H476 C473 0.950 . S
C477 C468 1.390 . S
C477 H470 0.950 . S
C477 C474 1.387 . S
C478 C479 1.387 . S
C478 H482 0.950 . S
C478 C487 1.390 . S
C479 C478 1.387 . S
C479 C481 1.387 . S
H480 C487 0.950 . S
C481 C479 1.387 . S
C481 C483 1.390 . S
C481 H485 0.950 . S
H482 C478 0.950 . S
C483 C481 1.390 . S
C483 C484 1.387 . S
C483 H486 0.950 . S
C484 C483 1.387 . S
C484 C487 1.387 . S
H485 C481 0.950 . S
H486 C483 0.950 . S
C487 C478 1.390 . S
C487 H480 0.950 . S
C487 C484 1.387 . S
C488 C489 1.387 . S
C488 H492 0.950 . S
C488 C497 1.390 . S
C489 C488 1.387 . S
C489 C491 1.387 . S
H490 C497 0.950 . S
C491 C489 1.387 . S
C491 C493 1.390 . S
C491 H495 0.950 . S
H492 C488 0.950 . S
C493 C491 1.390 . S
C493 C494 1.387 . S
C493 H496 0.950 . S
C494 C493 1.387 . S
C494 C497 1.387 . S
H495 C491 0.950 . S
H496 C493 0.950 . S
C497 C488 1.390 . S
C497 H490 0.950 . S
C497 C494 1.387 . S
C498 C499 1.387 . S
C498 H502 0.950 . S
C498 C507 1.390 . S
C499 C498 1.387 . S
C499 C501 1.387 . S
H500 C507 0.950 . S
C501 C499 1.387 . S
C501 C503 1.390 . S
C501 H505 0.950 . S
H502 C498 0.950 . S
C503 C501 1.390 . S
C503 C504 1.387 . S
C503 H506 0.950 . S
C504 C503 1.387 . S
C504 C507 1.387 . S
H505 C501 0.950 . S
H506 C503 0.950 . S
C507 C498 1.390 . S
C507 H500 0.950 . S
C507 C504 1.387 . S
C508 C509 1.387 . S
C508 H512 0.950 . S
C508 C517 1.390 . S
C509 C508 1.387 . S
C509 C511 1.387 . S
H510 C517 0.950 . S
C511 C509 1.387 . S
C511 C513 1.390 . S
C511 H515 0.950 . S
H512 C508 0.950 . S
C513 C511 1.390 . S
C513 C514 1.387 . S
C513 H516 0.950 . S
C514 C513 1.387 . S
C514 C517 1.387 . S
H515 C511 0.950 . S
H516 C513 0.950 . S
C517 C508 1.390 . S
C517 H510 0.950 . S
C517 C514 1.387 . S
C518 C519 1.387 . S
C518 H522 0.950 . S
C518 C527 1.390 . S
C519 C518 1.387 . S
C519 C521 1.387 . S
H520 C527 0.950 . S
C521 C519 1.387 . S
C521 C523 1.390 . S
C521 H525 0.950 . S
H522 C518 0.950 . S
C523 C521 1.390 . S
C523 C524 1.387 . S
C523 H526 0.950 . S
C524 C523 1.387 . S
C524 C527 1.387 . S
H525 C521 0.950 . S
H526 C523 0.950 . S
C527 C518 1.390 . S
C527 H520 0.950 . S
C527 C524 1.387 . S
C528 C529 1.387 . S
C528 H532 0.950 . S
C528 C537 1.390 . S
C529 C528 1.387 . S
C529 C531 1.387 . S
H530 C537 0.950 . S
C531 C529 1.387 . S
C531 C533 1.390 . S
C531 H535 0.950 . S
H532 C528 0.950 . S
C533 C531 1.390 . S
C533 C534 1.387 . S
C533 H536 0.950 . S
C534 C533 1.387 . S
C534 C537 1.387 . S
H535 C531 0.950 . S
H536 C533 0.950 . S
C537 C528 1.390 . S
C537 H530 0.950 . S
C537 C534 1.387 . S
C538 C539 1.387 . S
C538 H542 0.950 . S
C538 C547 1.390 . S
C539 C538 1.387 . S
C539 C541 1.387 . S
H540 C547 0.950 . S
C541 C539 1.387 . S
C541 C543 1.390 . S
C541 H545 0.950 . S
H542 C538 0.950 . S
C543 C541 1.390 . S
C543 C544 1.387 . S
C543 H546 0.950 . S
C544 C543 1.387 . S
C544 C547 1.387 . S
H545 C541 0.950 . S
H546 C543 0.950 . S
C547 C538 1.390 . S
C547 H540 0.950 . S
C547 C544 1.387 . S
C548 C549 1.387 . S
C548 H552 0.950 . S
C548 C557 1.390 . S
C549 C548 1.387 . S
C549 C551 1.387 . S
H550 C557 0.950 . S
C551 C549 1.387 . S
C551 C553 1.390 . S
C551 H555 0.950 . S
H552 C548 0.950 . S
C553 C551 1.390 . S
C553 C554 1.387 . S
C553 H556 0.950 . S
C554 C553 1.387 . S
C554 C557 1.387 . S
H555 C551 0.950 . S
H556 C553 0.950 . S
C557 C548 1.390 . S
C557 H550 0.950 . S
C557 C554 1.387 . S
C558 C559 1.387 . S
C558 H562 0.950 . S
C558 C567 1.390 . S
C559 C558 1.387 . S
C559 C561 1.387 . S
H560 C567 0.950 . S
C561 C559 1.387 . S
C561 C563 1.390 . S
C561 H565 0.950 . S
H562 C558 0.950 . S
C563 C561 1.390 . S
C563 C564 1.387 . S
C563 H566 0.950 . S
C564 C563 1.387 . S
C564 C567 1.387 . S
H565 C561 0.950 . S
H566 C563 0.950 . S
C567 C558 1.390 . S
C567 H560 0.950 . S
C567 C564 1.387 . S
C568 C569 1.387 . S
C568 H572 0.950 . S
C568 C577 1.390 . S
C569 C568 1.387 . S
C569 C571 1.387 . S
H570 C577 0.950 . S
C571 C569 1.387 . S
C571 C573 1.390 . S
C571 H575 0.950 . S
H572 C568 0.950 . S
C573 C571 1.390 . S
C573 C574 1.387 . S
C573 H576 0.950 . S
C574 C573 1.387 . S
C574 C577 1.387 . S
H575 C571 0.950 . S
H576 C573 0.950 . S
C577 C568 1.390 . S
C577 H570 0.950 . S
C577 C574 1.387 . S
C578 C579 1.387 . S
C578 H582 0.950 . S
C578 C587 1.390 . S
C579 C578 1.387 . S
C579 C581 1.387 . S
H580 C587 0.950 . S
C581 C579 1.387 . S
C581 C583 1.390 . S
C581 H585 0.950 . S
H582 C578 0.950 . S
C583 C581 1.390 . S
C583 C584 1.387 . S
C583 H586 0.950 . S
C584 C583 1.387 . S
C584 C587 1.387 . S
H585 C581 0.950 . S
H586 C583 0.950 . S
C587 C578 1.390 . S
C587 H580 0.950 . S
C587 C584 1.387 . S
C588 C589 1.387 . S
C588 H592 0.950 . S
C588 C597 1.390 . S
C589 C588 1.387 . S
C589 C591 1.387 . S
H590 C597 0.950 . S
C591 C589 1.387 . S
C591 C593 1.390 . S
C591 H595 0.950 . S
H592 C588 0.950 . S
C593 C591 1.390 . S
C593 C594 1.387 . S
C593 H596 0.950 . S
C594 C593 1.387 . S
C594 C597 1.387 . S
H595 C591 0.950 . S
H596 C593 0.950 . S
C597 C588 1.390 . S
C597 H590 0.950 . S
C597 C594 1.387 . S
C598 C599 1.387 . S
C598 H602 0.950 . S
C598 C607 1.390 . S
C599 C598 1.387 . S
C599 C601 1.387 . S
H600 C607 0.950 . S
C601 C599 1.387 . S
C601 C603 1.390 . S
C601 H605 0.950 . S
H602 C598 0.950 . S
C603 C601 1.390 . S
C603 C604 1.387 . S
C603 H606 0.950 . S
C604 C603 1.387 . S
C604 C607 1.387 . S
H605 C601 0.950 . S
H606 C603 0.950 . S
C607 C598 1.390 . S
C607 H600 0.950 . S
C607 C604 1.387 . S
C608 C609 1.387 . S
C608 H612 0.950 . S
C608 C617 1.390 1_655 S
C609 C608 1.387 . S
C609 C611 1.387 . S
H610 C617 0.950 . S
C611 C609 1.387 . S
C611 C613 1.390 1_655 S
C611 H615 0.950 . S
H612 C608 0.950 . S
C613 C611 1.390 1_455 S
C613 C614 1.387 . S
C613 H616 0.950 . S
C614 C613 1.387 . S
C614 C617 1.387 . S
H615 C611 0.950 . S
H616 C613 0.950 . S
C617 C608 1.390 1_455 S
C617 H610 0.950 . S
C617 C614 1.387 . S
C618 C619 1.387 . S
C618 H622 0.950 . S
C618 C627 1.390 1_545 S
C619 C618 1.387 . S
C619 C621 1.387 . S
H620 C627 0.950 . S
C621 C619 1.387 . S
C621 C623 1.390 1_545 S
C621 H625 0.950 . S
H622 C618 0.950 . S
C623 C621 1.390 1_565 S
C623 C624 1.387 . S
C623 H626 0.950 . S
C624 C623 1.387 . S
C624 C627 1.387 . S
H625 C621 0.950 . S
H626 C623 0.950 . S
C627 C618 1.390 1_565 S
C627 H620 0.950 . S
C627 C624 1.387 . S
C628 C629 1.387 . S
C628 H632 0.950 . S
C628 C637 1.390 1_455 S
C629 C628 1.387 . S
C629 C631 1.387 . S
H630 C637 0.950 . S
C631 C629 1.387 . S
C631 C633 1.390 1_455 S
C631 H635 0.950 . S
H632 C628 0.950 . S
C633 C631 1.390 1_655 S
C633 C634 1.387 . S
C633 H636 0.950 . S
C634 C633 1.387 . S
C634 C637 1.387 . S
H635 C631 0.950 . S
H636 C633 0.950 . S
C637 C628 1.390 1_655 S
C637 H630 0.950 . S
C637 C634 1.387 . S
C638 C639 1.387 . S
C638 H642 0.950 . S
C638 C647 1.390 1_565 S
C639 C638 1.387 . S
C639 C641 1.387 . S
H640 C647 0.950 . S
C641 C639 1.387 . S
C641 C643 1.390 1_565 S
C641 H645 0.950 . S
H642 C638 0.950 . S
C643 C641 1.390 1_545 S
C643 C644 1.387 . S
C643 H646 0.950 . S
C644 C643 1.387 . S
C644 C647 1.387 . S
H645 C641 0.950 . S
H646 C643 0.950 . S
C647 C638 1.390 1_545 S
C647 H640 0.950 . S
C647 C644 1.387 . S
C648 C649 1.387 . S
C648 H652 0.950 . S
C648 C657 1.390 1_455 S
C649 C648 1.387 . S
C649 C651 1.387 . S
H650 C657 0.950 . S
C651 C649 1.387 . S
C651 C653 1.390 1_455 S
C651 H655 0.950 . S
H652 C648 0.950 . S
C653 C651 1.390 1_655 S
C653 C654 1.387 . S
C653 H656 0.950 . S
C654 C653 1.387 . S
C654 C657 1.387 . S
H655 C651 0.950 . S
H656 C653 0.950 . S
C657 C648 1.390 1_655 S
C657 H650 0.950 . S
C657 C654 1.387 . S
C658 C659 1.387 . S
C658 H662 0.950 . S
C658 C667 1.390 1_565 S
C659 C658 1.387 . S
C659 C661 1.387 . S
H660 C667 0.950 . S
C661 C659 1.387 . S
C661 C663 1.390 1_565 S
C661 H665 0.950 . S
H662 C658 0.950 . S
C663 C661 1.390 1_545 S
C663 C664 1.387 . S
C663 H666 0.950 . S
C664 C663 1.387 . S
C664 C667 1.387 . S
H665 C661 0.950 . S
H666 C663 0.950 . S
C667 C658 1.390 1_545 S
C667 H660 0.950 . S
C667 C664 1.387 . S
C668 C669 1.387 . S
C668 H672 0.950 . S
C668 C677 1.390 1_455 S
C669 C668 1.387 . S
C669 C671 1.387 . S
H670 C677 0.950 . S
C671 C669 1.387 . S
C671 C673 1.390 1_455 S
C671 H675 0.950 . S
H672 C668 0.950 . S
C673 C671 1.390 1_655 S
C673 C674 1.387 . S
C673 H676 0.950 . S
C674 C673 1.387 . S
C674 C677 1.387 . S
H675 C671 0.950 . S
H676 C673 0.950 . S
C677 C668 1.390 1_655 S
C677 H670 0.950 . S
C677 C674 1.387 . S
C678 C679 1.387 . S
C678 H682 0.950 . S
C678 C687 1.390 1_545 S
C679 C678 1.387 . S
C679 C681 1.387 . S
H680 C687 0.950 . S
C681 C679 1.387 . S
C681 C683 1.390 1_545 S
C681 H685 0.950 . S
H682 C678 0.950 . S
C683 C681 1.390 1_565 S
C683 C684 1.387 . S
C683 H686 0.950 . S
C684 C683 1.387 . S
C684 C687 1.387 . S
H685 C681 0.950 . S
H686 C683 0.950 . S
C687 C678 1.390 1_565 S
C687 H680 0.950 . S
C687 C684 1.387 . S
C688 C689 1.387 . S
C688 H692 0.950 . S
C688 C697 1.390 . S
C689 C688 1.387 . S
C689 C691 1.387 . S
H690 C697 0.950 . S
C691 C689 1.387 . S
C691 C693 1.390 . S
C691 H695 0.950 . S
H692 C688 0.950 . S
C693 C691 1.390 . S
C693 C694 1.387 . S
C693 H696 0.950 . S
C694 C693 1.387 . S
C694 C697 1.387 . S
H695 C691 0.950 . S
H696 C693 0.950 . S
C697 C688 1.390 . S
C697 H690 0.950 . S
C697 C694 1.387 . S
C698 C699 1.387 . S
C698 H702 0.950 . S
C698 C707 1.390 . S
C699 C698 1.387 . S
C699 C701 1.387 . S
H700 C707 0.950 . S
C701 C699 1.387 . S
C701 C703 1.390 . S
C701 H705 0.950 . S
H702 C698 0.950 . S
C703 C701 1.390 . S
C703 C704 1.387 . S
C703 H706 0.950 . S
C704 C703 1.387 . S
C704 C707 1.387 . S
H705 C701 0.950 . S
H706 C703 0.950 . S
C707 C698 1.390 . S
C707 H700 0.950 . S
C707 C704 1.387 . S
C708 C709 1.387 . S
C708 H712 0.950 . S
C708 C717 1.390 . S
C709 C708 1.387 . S
C709 C711 1.387 . S
H710 C717 0.950 . S
C711 C709 1.387 . S
C711 C713 1.390 . S
C711 H715 0.950 . S
H712 C708 0.950 . S
C713 C711 1.390 . S
C713 C714 1.387 . S
C713 H716 0.950 . S
C714 C713 1.387 . S
C714 C717 1.387 . S
H715 C711 0.950 . S
H716 C713 0.950 . S
C717 C708 1.390 . S
C717 H710 0.950 . S
C717 C714 1.387 . S
C718 C719 1.387 . S
C718 H722 0.950 . S
C718 C727 1.390 . S
C719 C718 1.387 . S
C719 C721 1.387 . S
H720 C727 0.950 . S
C721 C719 1.387 . S
C721 C723 1.390 . S
C721 H725 0.950 . S
H722 C718 0.950 . S
C723 C721 1.390 . S
C723 C724 1.387 . S
C723 H726 0.950 . S
C724 C723 1.387 . S
C724 C727 1.387 . S
H725 C721 0.950 . S
H726 C723 0.950 . S
C727 C718 1.390 . S
C727 H720 0.950 . S
C727 C724 1.387 . S
C728 C729 1.387 . S
C728 H732 0.950 . S
C728 C737 1.390 . S
C729 C728 1.387 . S
C729 C731 1.387 . S
H730 C737 0.950 . S
C731 C729 1.387 . S
C731 C733 1.390 . S
C731 H735 0.950 . S
H732 C728 0.950 . S
C733 C731 1.390 . S
C733 C734 1.387 . S
C733 H736 0.950 . S
C734 C733 1.387 . S
C734 C737 1.387 . S
H735 C731 0.950 . S
H736 C733 0.950 . S
C737 C728 1.390 . S
C737 H730 0.950 . S
C737 C734 1.387 . S
C738 C739 1.387 . S
C738 H742 0.950 . S
C738 C747 1.390 . S
C739 C738 1.387 . S
C739 C741 1.387 . S
H740 C747 0.950 . S
C741 C739 1.387 . S
C741 C743 1.390 . S
C741 H745 0.950 . S
H742 C738 0.950 . S
C743 C741 1.390 . S
C743 C744 1.387 . S
C743 H746 0.950 . S
C744 C743 1.387 . S
C744 C747 1.387 . S
H745 C741 0.950 . S
H746 C743 0.950 . S
C747 C738 1.390 . S
C747 H740 0.950 . S
C747 C744 1.387 . S
C748 C749 1.387 . S
C748 H752 0.950 . S
C748 C757 1.390 . S
C749 C748 1.387 . S
C749 C751 1.387 . S
H750 C757 0.950 . S
C751 C749 1.387 . S
C751 C753 1.390 . S
C751 H755 0.950 . S
H752 C748 0.950 . S
C753 C751 1.390 . S
C753 C754 1.387 . S
C753 H756 0.950 . S
C754 C753 1.387 . S
C754 C757 1.387 . S
H755 C751 0.950 . S
H756 C753 0.950 . S
C757 C748 1.390 . S
C757 H750 0.950 . S
C757 C754 1.387 . S
C758 C759 1.387 . S
C758 H762 0.950 . S
C758 C767 1.390 . S
C759 C758 1.387 . S
C759 C761 1.387 . S
H760 C767 0.950 . S
C761 C759 1.387 . S
C761 C763 1.390 . S
C761 H765 0.950 . S
H762 C758 0.950 . S
C763 C761 1.390 . S
C763 C764 1.387 . S
C763 H766 0.950 . S
C764 C763 1.387 . S
C764 C767 1.387 . S
H765 C761 0.950 . S
H766 C763 0.950 . S
C767 C758 1.390 . S
C767 H760 0.950 . S
C767 C764 1.387 . S
C768 C769 1.387 . S
C768 H772 0.950 . S
C768 C777 1.390 . S
C769 C768 1.387 . S
C769 C771 1.387 . S
H770 C777 0.950 . S
C771 C769 1.387 . S
C771 C773 1.390 . S
C771 H775 0.950 . S
H772 C768 0.950 . S
C773 C771 1.390 . S
C773 C774 1.387 . S
C773 H776 0.950 . S
C774 C773 1.387 . S
C774 C777 1.387 . S
H775 C771 0.950 . S
H776 C773 0.950 . S
C777 C768 1.390 . S
C777 H770 0.950 . S
C777 C774 1.387 . S
C778 C779 1.387 . S
C778 H782 0.950 . S
C778 C787 1.390 . S
C779 C778 1.387 . S
C779 C781 1.387 . S
H780 C787 0.950 . S
C781 C779 1.387 . S
C781 C783 1.390 . S
C781 H785 0.950 . S
H782 C778 0.950 . S
C783 C781 1.390 . S
C783 C784 1.387 . S
C783 H786 0.950 . S
C784 C783 1.387 . S
C784 C787 1.387 . S
H785 C781 0.950 . S
H786 C783 0.950 . S
C787 C778 1.390 . S
C787 H780 0.950 . S
C787 C784 1.387 . S
C788 C789 1.387 . S
C788 H792 0.950 . S
C788 C797 1.390 . S
C789 C788 1.387 . S
C789 C791 1.387 . S
H790 C797 0.950 . S
C791 C789 1.387 . S
C791 C793 1.390 . S
C791 H795 0.950 . S
H792 C788 0.950 . S
C793 C791 1.390 . S
C793 C794 1.387 . S
C793 H796 0.950 . S
C794 C793 1.387 . S
C794 C797 1.387 . S
H795 C791 0.950 . S
H796 C793 0.950 . S
C797 C788 1.390 . S
C797 H790 0.950 . S
C797 C794 1.387 . S
C798 C799 1.387 . S
C798 H802 0.950 . S
C798 C807 1.390 . S
C799 C798 1.387 . S
C799 C801 1.387 . S
H800 C807 0.950 . S
C801 C799 1.387 . S
C801 C803 1.390 . S
C801 H805 0.950 . S
H802 C798 0.950 . S
C803 C801 1.390 . S
C803 C804 1.387 . S
C803 H806 0.950 . S
C804 C803 1.387 . S
C804 C807 1.387 . S
H805 C801 0.950 . S
H806 C803 0.950 . S
C807 C798 1.390 . S
C807 H800 0.950 . S
C807 C804 1.387 . S
C808 C809 1.387 . S
C808 H812 0.950 . S
C808 C817 1.390 . S
C809 C808 1.387 . S
C809 C811 1.387 . S
H810 C817 0.950 . S
C811 C809 1.387 . S
C811 C813 1.390 . S
C811 H815 0.950 . S
H812 C808 0.950 . S
C813 C811 1.390 . S
C813 C814 1.387 . S
C813 H816 0.950 . S
C814 C813 1.387 . S
C814 C817 1.387 . S
H815 C811 0.950 . S
H816 C813 0.950 . S
C817 C808 1.390 . S
C817 H810 0.950 . S
C817 C814 1.387 . S
C818 C819 1.387 . S
C818 H822 0.950 . S
C818 C827 1.390 . S
C819 C818 1.387 . S
C819 C821 1.387 . S
H820 C827 0.950 . S
C821 C819 1.387 . S
C821 C823 1.390 . S
C821 H825 0.950 . S
H822 C818 0.950 . S
C823 C821 1.390 . S
C823 C824 1.387 . S
C823 H826 0.950 . S
C824 C823 1.387 . S
C824 C827 1.387 . S
H825 C821 0.950 . S
H826 C823 0.950 . S
C827 C818 1.390 . S
C827 H820 0.950 . S
C827 C824 1.387 . S
C828 C829 1.387 . S
C828 H832 0.950 . S
C828 C837 1.390 . S
C829 C828 1.387 . S
C829 C831 1.387 . S
H830 C837 0.950 . S
C831 C829 1.387 . S
C831 C833 1.390 . S
C831 H835 0.950 . S
H832 C828 0.950 . S
C833 C831 1.390 . S
C833 C834 1.387 . S
C833 H836 0.950 . S
C834 C833 1.387 . S
C834 C837 1.387 . S
H835 C831 0.950 . S
H836 C833 0.950 . S
C837 C828 1.390 . S
C837 H830 0.950 . S
C837 C834 1.387 . S
C838 C839 1.387 . S
C838 H842 0.950 . S
C838 C847 1.390 . S
C839 C838 1.387 . S
C839 C841 1.387 . S
H840 C847 0.950 . S
C841 C839 1.387 . S
C841 C843 1.390 . S
C841 H845 0.950 . S
H842 C838 0.950 . S
C843 C841 1.390 . S
C843 C844 1.387 . S
C843 H846 0.950 . S
C844 C843 1.387 . S
C844 C847 1.387 . S
H845 C841 0.950 . S
H846 C843 0.950 . S
C847 C838 1.390 . S
C847 H840 0.950 . S
C847 C844 1.387 . S
C848 C849 1.387 . S
C848 H852 0.950 . S
C848 C857 1.390 1_554 S
C849 C848 1.387 . S
C849 C851 1.387 . S
H850 C857 0.950 . S
C851 C849 1.387 . S
C851 C853 1.390 1_554 S
C851 H855 0.950 . S
H852 C848 0.950 . S
C853 C851 1.390 1_556 S
C853 C854 1.387 . S
C853 H856 0.950 . S
C854 C853 1.387 . S
C854 C857 1.387 . S
H855 C851 0.950 . S
H856 C853 0.950 . S
C857 C848 1.390 1_556 S
C857 H850 0.950 . S
C857 C854 1.387 . S
C858 C859 1.387 1_554 S
C858 H862 0.950 1_554 S
C858 C867 1.390 . S
C859 C858 1.387 1_556 S
C859 C861 1.387 1_556 S
H860 C867 0.950 . S
C861 C859 1.387 1_554 S
C861 C863 1.390 . S
C861 H865 0.950 1_554 S
H862 C858 0.950 1_556 S
C863 C861 1.390 . S
C863 C864 1.387 . S
C863 H866 0.950 . S
C864 C863 1.387 . S
C864 C867 1.387 . S
H865 C861 0.950 1_556 S
H866 C863 0.950 . S
C867 C858 1.390 . S
C867 H860 0.950 . S
C867 C864 1.387 . S
C868 C869 1.387 . S
C868 H872 0.950 . S
C868 C877 1.390 1_554 S
C869 C868 1.387 . S
C869 C871 1.387 . S
H870 C877 0.950 . S
C871 C869 1.387 . S
C871 C873 1.390 1_554 S
C871 H875 0.950 . S
H872 C868 0.950 . S
C873 C871 1.390 1_556 S
C873 C874 1.387 . S
C873 H876 0.950 . S
C874 C873 1.387 . S
C874 C877 1.387 . S
H875 C871 0.950 . S
H876 C873 0.950 . S
C877 C868 1.390 1_556 S
C877 H870 0.950 . S
C877 C874 1.387 . S
C878 C879 1.387 . S
C878 H882 0.950 . S
C878 C887 1.390 . S
C879 C878 1.387 . S
C879 C881 1.387 . S
H880 C887 0.950 1_556 S
C881 C879 1.387 . S
C881 C883 1.390 . S
C881 H885 0.950 . S
H882 C878 0.950 . S
C883 C881 1.390 . S
C883 C884 1.387 1_554 S
C883 H886 0.950 1_554 S
C884 C883 1.387 1_556 S
C884 C887 1.387 1_556 S
H885 C881 0.950 . S
H886 C883 0.950 1_556 S
C887 C878 1.390 . S
C887 H880 0.950 1_554 S
C887 C884 1.387 1_554 S
C888 C889 1.387 . S
C888 H892 0.950 . S
C888 C897 1.390 1_554 S
C889 C888 1.387 . S
C889 C891 1.387 . S
H890 C897 0.950 . S
C891 C889 1.387 . S
C891 C893 1.390 1_554 S
C891 H895 0.950 . S
H892 C888 0.950 . S
C893 C891 1.390 1_556 S
C893 C894 1.387 . S
C893 H896 0.950 . S
C894 C893 1.387 . S
C894 C897 1.387 . S
H895 C891 0.950 . S
H896 C893 0.950 . S
C897 C888 1.390 1_556 S
C897 H890 0.950 . S
C897 C894 1.387 . S
C898 C899 1.387 1_556 S
C898 H902 0.950 1_556 S
C898 C907 1.390 . S
C899 C898 1.387 1_554 S
C899 C901 1.387 1_554 S
H900 C907 0.950 . S
C901 C899 1.387 1_556 S
C901 C903 1.390 . S
C901 H905 0.950 1_556 S
H902 C898 0.950 1_554 S
C903 C901 1.390 . S
C903 C904 1.387 . S
C903 H906 0.950 . S
C904 C903 1.387 . S
C904 C907 1.387 . S
H905 C901 0.950 1_554 S
H906 C903 0.950 . S
C907 C898 1.390 . S
C907 H900 0.950 . S
C907 C904 1.387 . S
C908 C909 1.387 . S
C908 H912 0.950 . S
C908 C917 1.390 1_556 S
C909 C908 1.387 . S
C909 C911 1.387 . S
H910 C917 0.950 . S
C911 C909 1.387 . S
C911 C913 1.390 1_556 S
C911 H915 0.950 . S
H912 C908 0.950 . S
C913 C911 1.390 1_554 S
C913 C914 1.387 . S
C913 H916 0.950 . S
C914 C913 1.387 . S
C914 C917 1.387 . S
H915 C911 0.950 . S
H916 C913 0.950 . S
C917 C908 1.390 1_554 S
C917 H910 0.950 . S
C917 C914 1.387 . S
C918 C919 1.387 . S
C918 H922 0.950 . S
C918 C927 1.390 . S
C919 C918 1.387 . S
C919 C921 1.387 . S
H920 C927 0.950 1_554 S
C921 C919 1.387 . S
C921 C923 1.390 . S
C921 H925 0.950 . S
H922 C918 0.950 . S
C923 C921 1.390 . S
C923 C924 1.387 1_556 S
C923 H926 0.950 1_556 S
C924 C923 1.387 1_554 S
C924 C927 1.387 1_554 S
H925 C921 0.950 . S
H926 C923 0.950 1_554 S
C927 C918 1.390 . S
C927 H920 0.950 1_556 S
C927 C924 1.387 1_556 S
C928 C929 1.387 . S
C928 H932 0.950 . S
C928 C937 1.390 . S
C929 C928 1.387 . S
C929 C931 1.387 . S
H930 C937 0.950 . S
C931 C929 1.387 . S
C931 C933 1.390 . S
C931 H935 0.950 . S
H932 C928 0.950 . S
C933 C931 1.390 . S
C933 C934 1.387 . S
C933 H936 0.950 . S
C934 C933 1.387 . S
C934 C937 1.387 . S
H935 C931 0.950 . S
H936 C933 0.950 . S
C937 C928 1.390 . S
C937 H930 0.950 . S
C937 C934 1.387 . S
C938 C939 1.387 . S
C938 H942 0.950 . S
C938 C947 1.390 . S
C939 C938 1.387 . S
C939 C941 1.387 . S
H940 C947 0.950 . S
C941 C939 1.387 . S
C941 C943 1.390 . S
C941 H945 0.950 . S
H942 C938 0.950 . S
C943 C941 1.390 . S
C943 C944 1.387 . S
C943 H946 0.950 . S
C944 C943 1.387 . S
C944 C947 1.387 . S
H945 C941 0.950 . S
H946 C943 0.950 . S
C947 C938 1.390 . S
C947 H940 0.950 . S
C947 C944 1.387 . S
C948 C949 1.387 . S
C948 H952 0.950 . S
C948 C957 1.390 . S
C949 C948 1.387 . S
C949 C951 1.387 . S
H950 C957 0.950 . S
C951 C949 1.387 . S
C951 C953 1.390 . S
C951 H955 0.950 . S
H952 C948 0.950 . S
C953 C951 1.390 . S
C953 C954 1.387 . S
C953 H956 0.950 . S
C954 C953 1.387 . S
C954 C957 1.387 . S
H955 C951 0.950 . S
H956 C953 0.950 . S
C957 C948 1.390 . S
C957 H950 0.950 . S
C957 C954 1.387 . S
C958 C959 1.387 . S
C958 H962 0.950 . S
C958 C967 1.390 . S
C959 C958 1.387 . S
C959 C961 1.387 . S
H960 C967 0.950 . S
C961 C959 1.387 . S
C961 C963 1.390 . S
C961 H965 0.950 . S
H962 C958 0.950 . S
C963 C961 1.390 . S
C963 C964 1.387 . S
C963 H966 0.950 . S
C964 C963 1.387 . S
C964 C967 1.387 . S
H965 C961 0.950 . S
H966 C963 0.950 . S
C967 C958 1.390 . S
C967 H960 0.950 . S
C967 C964 1.387 . S
C968 C969 1.387 . S
C968 H972 0.950 . S
C968 C977 1.390 . S
C969 C968 1.387 . S
C969 C971 1.387 . S
H970 C977 0.950 . S
C971 C969 1.387 . S
C971 C973 1.390 . S
C971 H975 0.950 . S
H972 C968 0.950 . S
C973 C971 1.390 . S
C973 C974 1.387 . S
C973 H976 0.950 . S
C974 C973 1.387 . S
C974 C977 1.387 . S
H975 C971 0.950 . S
H976 C973 0.950 . S
C977 C968 1.390 . S
C977 H970 0.950 . S
C977 C974 1.387 . S
C978 C979 1.387 . S
C978 H982 0.950 . S
C978 C987 1.390 . S
C979 C978 1.387 . S
C979 C981 1.387 . S
H980 C987 0.950 . S
C981 C979 1.387 . S
C981 C983 1.390 . S
C981 H985 0.950 . S
H982 C978 0.950 . S
C983 C981 1.390 . S
C983 C984 1.387 . S
C983 H986 0.950 . S
C984 C983 1.387 . S
C984 C987 1.387 . S
H985 C981 0.950 . S
H986 C983 0.950 . S
C987 C978 1.390 . S
C987 H980 0.950 . S
C987 C984 1.387 . S
C988 C989 1.387 . S
C988 H992 0.950 . S
C988 C997 1.390 . S
C989 C988 1.387 . S
C989 C991 1.387 . S
H990 C997 0.950 . S
C991 C989 1.387 . S
C991 C993 1.390 . S
C991 H995 0.950 . S
H992 C988 0.950 . S
C993 C991 1.390 . S
C993 C994 1.387 . S
C993 H996 0.950 . S
C994 C993 1.387 . S
C994 C997 1.387 . S
H995 C991 0.950 . S
H996 C993 0.950 . S
C997 C988 1.390 . S
C997 H990 0.950 . S
C997 C994 1.387 . S
C998 C999 1.387 . S
C998 H1002 0.950 . S
C998 C1007 1.390 . S
C999 C998 1.387 . S
C999 C1001 1.387 . S
H1000 C1007 0.950 . S
C1001 C999 1.387 . S
C1001 C1003 1.390 . S
C1001 H1005 0.950 . S
H1002 C998 0.950 . S
C1003 C1001 1.390 . S
C1003 C1004 1.387 . S
C1003 H1006 0.950 . S
C1004 C1003 1.387 . S
C1004 C1007 1.387 . S
H1005 C1001 0.950 . S
H1006 C1003 0.950 . S
C1007 C998 1.390 . S
C1007 H1000 0.950 . S
C1007 C1004 1.387 . S
C1008 C1009 1.387 . S
C1008 H1012 0.950 . S
C1008 C1017 1.390 . S
C1009 C1008 1.387 . S
C1009 C1011 1.387 . S
H1010 C1017 0.950 . S
C1011 C1009 1.387 . S
C1011 C1013 1.390 . S
C1011 H1015 0.950 . S
H1012 C1008 0.950 . S
C1013 C1011 1.390 . S
C1013 C1014 1.387 . S
C1013 H1016 0.950 . S
C1014 C1013 1.387 . S
C1014 C1017 1.387 . S
H1015 C1011 0.950 . S
H1016 C1013 0.950 . S
C1017 C1008 1.390 . S
C1017 H1010 0.950 . S
C1017 C1014 1.387 . S
C1018 C1019 1.387 . S
C1018 H1022 0.950 . S
C1018 C1027 1.390 . S
C1019 C1018 1.387 . S
C1019 C1021 1.387 . S
H1020 C1027 0.950 . S
C1021 C1019 1.387 . S
C1021 C1023 1.390 . S
C1021 H1025 0.950 . S
H1022 C1018 0.950 . S
C1023 C1021 1.390 . S
C1023 C1024 1.387 . S
C1023 H1026 0.950 . S
C1024 C1023 1.387 . S
C1024 C1027 1.387 . S
H1025 C1021 0.950 . S
H1026 C1023 0.950 . S
C1027 C1018 1.390 . S
C1027 H1020 0.950 . S
C1027 C1024 1.387 . S
C1028 C1029 1.387 . S
C1028 H1032 0.950 . S
C1028 C1037 1.390 . S
C1029 C1028 1.387 . S
C1029 C1031 1.387 . S
H1030 C1037 0.950 . S
C1031 C1029 1.387 . S
C1031 C1033 1.390 . S
C1031 H1035 0.950 . S
H1032 C1028 0.950 . S
C1033 C1031 1.390 . S
C1033 C1034 1.387 . S
C1033 H1036 0.950 . S
C1034 C1033 1.387 . S
C1034 C1037 1.387 . S
H1035 C1031 0.950 . S
H1036 C1033 0.950 . S
C1037 C1028 1.390 . S
C1037 H1030 0.950 . S
C1037 C1034 1.387 . S
C1038 C1039 1.387 . S
C1038 H1042 0.950 . S
C1038 C1047 1.390 . S
C1039 C1038 1.387 . S
C1039 C1041 1.387 . S
H1040 C1047 0.950 . S
C1041 C1039 1.387 . S
C1041 C1043 1.390 . S
C1041 H1045 0.950 . S
H1042 C1038 0.950 . S
C1043 C1041 1.390 . S
C1043 C1044 1.387 . S
C1043 H1046 0.950 . S
C1044 C1043 1.387 . S
C1044 C1047 1.387 . S
H1045 C1041 0.950 . S
H1046 C1043 0.950 . S
C1047 C1038 1.390 . S
C1047 H1040 0.950 . S
C1047 C1044 1.387 . S
C1048 C1049 1.387 . S
C1048 H1052 0.950 . S
C1048 C1057 1.390 . S
C1049 C1048 1.387 . S
C1049 C1051 1.387 . S
H1050 C1057 0.950 . S
C1051 C1049 1.387 . S
C1051 C1053 1.390 . S
C1051 H1055 0.950 . S
H1052 C1048 0.950 . S
C1053 C1051 1.390 . S
C1053 C1054 1.387 . S
C1053 H1056 0.950 . S
C1054 C1053 1.387 . S
C1054 C1057 1.387 . S
H1055 C1051 0.950 . S
H1056 C1053 0.950 . S
C1057 C1048 1.390 . S
C1057 H1050 0.950 . S
C1057 C1054 1.387 . S
C1058 C1059 1.387 . S
C1058 H1062 0.950 . S
C1058 C1067 1.390 . S
C1059 C1058 1.387 . S
C1059 C1061 1.387 . S
H1060 C1067 0.950 . S
C1061 C1059 1.387 . S
C1061 C1063 1.390 . S
C1061 H1065 0.950 . S
H1062 C1058 0.950 . S
C1063 C1061 1.390 . S
C1063 C1064 1.387 . S
C1063 H1066 0.950 . S
C1064 C1063 1.387 . S
C1064 C1067 1.387 . S
H1065 C1061 0.950 . S
H1066 C1063 0.950 . S
C1067 C1058 1.390 . S
C1067 H1060 0.950 . S
C1067 C1064 1.387 . S
C1068 C1069 1.387 . S
C1068 H1072 0.950 . S
C1068 C1077 1.390 . S
C1069 C1068 1.387 . S
C1069 C1071 1.387 . S
H1070 C1077 0.950 . S
C1071 C1069 1.387 . S
C1071 C1073 1.390 . S
C1071 H1075 0.950 . S
H1072 C1068 0.950 . S
C1073 C1071 1.390 . S
C1073 C1074 1.387 . S
C1073 H1076 0.950 . S
C1074 C1073 1.387 . S
C1074 C1077 1.387 . S
H1075 C1071 0.950 . S
H1076 C1073 0.950 . S
C1077 C1068 1.390 . S
C1077 H1070 0.950 . S
C1077 C1074 1.387 . S
C1078 C1079 1.387 . S
C1078 H1082 0.950 . S
C1078 C1087 1.390 . S
C1079 C1078 1.387 . S
C1079 C1081 1.387 . S
H1080 C1087 0.950 . S
C1081 C1079 1.387 . S
C1081 C1083 1.390 . S
C1081 H1085 0.950 . S
H1082 C1078 0.950 . S
C1083 C1081 1.390 . S
C1083 C1084 1.387 . S
C1083 H1086 0.950 . S
C1084 C1083 1.387 . S
C1084 C1087 1.387 . S
H1085 C1081 0.950 . S
H1086 C1083 0.950 . S
C1087 C1078 1.390 . S
C1087 H1080 0.950 . S
C1087 C1084 1.387 . S
C449 C222 1.304 . S
C454 C12 1.312 . S
C459 C18 1.402 . S
C464 C180 1.424 . S
C469 C40 1.312 . S
C474 C194 1.304 . S
C479 C208 1.423 . S
C484 C46 1.401 . S
C489 C68 1.312 . S
C494 C138 1.304 . S
C499 C74 1.402 . S
C504 C152 1.424 . S
C509 C166 1.302 . S
C514 C96 1.313 . S
C519 C124 1.424 . S
C524 C102 1.402 . S
C529 C236 1.314 . S
C534 C446 1.302 . S
C539 C242 1.401 . S
C544 C404 1.423 . S
C549 C264 1.313 . S
C554 C418 1.302 . S
C559 C432 1.423 . S
C564 C270 1.401 . S
C569 C292 1.312 . S
C574 C362 1.304 . S
C579 C298 1.402 . S
C584 C376 1.424 . S
C589 C390 1.302 . S
C594 C320 1.314 . S
C599 C326 1.402 . S
C604 C348 1.424 . S
C609 C173 1.141 . S
C614 C5 1.149 . S
C619 C25 1.226 . S
C624 C187 1.174 . S
C629 C201 1.141 . S
C634 C33 1.149 . S
C639 C53 1.225 . S
C644 C215 1.176 . S
C649 C61 1.149 . S
C654 C117 1.141 . S
C659 C131 1.174 . S
C664 C81 1.225 . S
C669 C145 1.147 . S
C674 C89 1.143 . S
C679 C159 1.178 . S
C684 C109 1.226 . S
C689 C229 1.149 . S
C694 C397 1.141 . S
C699 C411 1.179 . S
C704 C249 1.227 . S
C709 C257 1.143 . S
C714 C425 1.147 . S
C719 C277 1.227 . S
C724 C439 1.177 . S
C729 C341 1.141 . S
C734 C285 1.149 . S
C739 C305 1.224 . S
C744 C355 1.174 . S
C749 C313 1.149 . S
C754 C369 1.141 . S
C759 C333 1.226 . S
C764 C383 1.178 . S
C769 C4 1.470 . S
C774 C144 1.473 . S
C779 C158 1.417 . S
C784 C26 1.450 . S
C789 C32 1.468 . S
C794 C116 1.475 . S
C799 C130 1.418 . S
C804 C54 1.450 . S
C809 C200 1.473 . S
C814 C60 1.470 . S
C819 C214 1.417 . S
C824 C82 1.451 . S
C829 C172 1.473 . S
C834 C88 1.470 . S
C839 C110 1.450 . S
C844 C186 1.418 . S
C849 C368 1.473 . S
C854 C228 1.470 . S
C859 C250 1.451 . S
C864 C382 1.418 . S
C869 C340 1.473 . S
C874 C256 1.470 . S
C879 C354 1.417 . S
C884 C278 1.450 . S
C889 C284 1.470 . S
C894 C424 1.473 . S
C899 C306 1.450 . S
C904 C438 1.418 . S
C909 C396 1.473 . S
C914 C312 1.470 . S
C919 C410 1.417 . S
C924 C334 1.451 . S
C929 C327 1.195 . S
C934 C11 1.312 . S
C939 C291 1.311 . S
C944 C19 1.192 . S
C949 C299 1.191 . S
C954 C39 1.311 . S
C959 C319 1.314 . S
C964 C47 1.197 . S
C969 C243 1.197 . S
C974 C67 1.314 . S
C979 C75 1.192 . S
C984 C263 1.311 . S
C989 C95 1.314 . S
C994 C271 1.198 . S
C999 C103 1.198 . S
C1004 C235 1.314 . S
C1009 C123 1.368 . S
C1014 C445 1.347 . S
C1019 C403 1.370 . S
C1024 C137 1.346 . S
C1029 C151 1.367 . S
C1034 C417 1.346 . S
C1039 C165 1.344 . S
C1044 C431 1.370 . S
C1049 C361 1.344 . S
C1054 C179 1.370 . S
C1059 C375 1.369 . S
C1064 C193 1.347 . S
C1069 C207 1.367 . S
C1074 C389 1.346 . S
C1079 C221 1.346 . S
C1084 C347 1.367 . S
