# Generated by pormake.
# Topology ukn, (4)-cn, num edge types: 1
# Building blocks:
#     Node 0, Type 0, BuildingBlock: TATPOV_clean_sbu_0, # of connection points: 4
#     Node 1, Type 0, BuildingBlock: TATPOV_clean_sbu_0, # of connection points: 4
#     Node 2, Type 0, BuildingBlock: TATPOV_clean_sbu_0, # of connection points: 4
#     Node 3, Type 0, BuildingBlock: TATPOV_clean_sbu_0, # of connection points: 4
#     Node 4, Type 0, BuildingBlock: TATPOV_clean_sbu_0, # of connection points: 4
#     Node 5, Type 0, BuildingBlock: TATPOV_clean_sbu_0, # of connection points: 4
#     Node 6, Type 0, BuildingBlock: TATPOV_clean_sbu_0, # of connection points: 4
#     Node 7, Type 0, BuildingBlock: TATPOV_clean_sbu_0, # of connection points: 4
#     Node 8, Type 0, BuildingBlock: TATPOV_clean_sbu_0, # of connection points: 4
#     Node 9, Type 0, BuildingBlock: TATPOV_clean_sbu_0, # of connection points: 4
#     Node 10, Type 0, BuildingBlock: TATPOV_clean_sbu_0, # of connection points: 4
#     Node 11, Type 0, BuildingBlock: TATPOV_clean_sbu_0, # of connection points: 4
#     Node 12, Type 0, BuildingBlock: TATPOV_clean_sbu_0, # of connection points: 4
#     Node 13, Type 0, BuildingBlock: TATPOV_clean_sbu_0, # of connection points: 4
#     Node 14, Type 0, BuildingBlock: TATPOV_clean_sbu_0, # of connection points: 4
#     Node 15, Type 0, BuildingBlock: TATPOV_clean_sbu_0, # of connection points: 4
#     Node 16, Type 0, BuildingBlock: TATPOV_clean_sbu_0, # of connection points: 4
#     Node 17, Type 0, BuildingBlock: TATPOV_clean_sbu_0, # of connection points: 4
#     Node 18, Type 0, BuildingBlock: TATPOV_clean_sbu_0, # of connection points: 4
#     Node 19, Type 0, BuildingBlock: TATPOV_clean_sbu_0, # of connection points: 4
#     Node 20, Type 0, BuildingBlock: TATPOV_clean_sbu_0, # of connection points: 4
#     Node 21, Type 0, BuildingBlock: TATPOV_clean_sbu_0, # of connection points: 4
#     Node 22, Type 0, BuildingBlock: TATPOV_clean_sbu_0, # of connection points: 4
#     Node 23, Type 0, BuildingBlock: TATPOV_clean_sbu_0, # of connection points: 4
#     Node 24, Type 0, BuildingBlock: TATPOV_clean_sbu_0, # of connection points: 4
#     Node 25, Type 0, BuildingBlock: TATPOV_clean_sbu_0, # of connection points: 4
#     Node 26, Type 0, BuildingBlock: TATPOV_clean_sbu_0, # of connection points: 4
#     Node 27, Type 0, BuildingBlock: TATPOV_clean_sbu_0, # of connection points: 4
#     Node 28, Type 0, BuildingBlock: TATPOV_clean_sbu_0, # of connection points: 4
#     Node 29, Type 0, BuildingBlock: TATPOV_clean_sbu_0, # of connection points: 4
#     Node 30, Type 0, BuildingBlock: TATPOV_clean_sbu_0, # of connection points: 4
#     Node 31, Type 0, BuildingBlock: TATPOV_clean_sbu_0, # of connection points: 4
#     Node 32, Type 0, BuildingBlock: TATPOV_clean_sbu_0, # of connection points: 4
#     Node 33, Type 0, BuildingBlock: TATPOV_clean_sbu_0, # of connection points: 4
#     Node 34, Type 0, BuildingBlock: TATPOV_clean_sbu_0, # of connection points: 4
#     Node 35, Type 0, BuildingBlock: TATPOV_clean_sbu_0, # of connection points: 4
#     Edge 36, Type (0, 0), BuildingBlock: XUDNAN_clean_linker_2, # of connection points: 2
#     Edge 37, Type (0, 0), BuildingBlock: XUDNAN_clean_linker_2, # of connection points: 2
#     Edge 38, Type (0, 0), BuildingBlock: XUDNAN_clean_linker_2, # of connection points: 2
#     Edge 39, Type (0, 0), BuildingBlock: XUDNAN_clean_linker_2, # of connection points: 2
#     Edge 40, Type (0, 0), BuildingBlock: XUDNAN_clean_linker_2, # of connection points: 2
#     Edge 41, Type (0, 0), BuildingBlock: XUDNAN_clean_linker_2, # of connection points: 2
#     Edge 42, Type (0, 0), BuildingBlock: XUDNAN_clean_linker_2, # of connection points: 2
#     Edge 43, Type (0, 0), BuildingBlock: XUDNAN_clean_linker_2, # of connection points: 2
#     Edge 44, Type (0, 0), BuildingBlock: XUDNAN_clean_linker_2, # of connection points: 2
#     Edge 45, Type (0, 0), BuildingBlock: XUDNAN_clean_linker_2, # of connection points: 2
#     Edge 46, Type (0, 0), BuildingBlock: XUDNAN_clean_linker_2, # of connection points: 2
#     Edge 47, Type (0, 0), BuildingBlock: XUDNAN_clean_linker_2, # of connection points: 2
#     Edge 48, Type (0, 0), BuildingBlock: XUDNAN_clean_linker_2, # of connection points: 2
#     Edge 49, Type (0, 0), BuildingBlock: XUDNAN_clean_linker_2, # of connection points: 2
#     Edge 50, Type (0, 0), BuildingBlock: XUDNAN_clean_linker_2, # of connection points: 2
#     Edge 51, Type (0, 0), BuildingBlock: XUDNAN_clean_linker_2, # of connection points: 2
#     Edge 52, Type (0, 0), BuildingBlock: XUDNAN_clean_linker_2, # of connection points: 2
#     Edge 53, Type (0, 0), BuildingBlock: XUDNAN_clean_linker_2, # of connection points: 2
#     Edge 54, Type (0, 0), BuildingBlock: XUDNAN_clean_linker_2, # of connection points: 2
#     Edge 55, Type (0, 0), BuildingBlock: XUDNAN_clean_linker_2, # of connection points: 2
#     Edge 56, Type (0, 0), BuildingBlock: XUDNAN_clean_linker_2, # of connection points: 2
#     Edge 57, Type (0, 0), BuildingBlock: XUDNAN_clean_linker_2, # of connection points: 2
#     Edge 58, Type (0, 0), BuildingBlock: XUDNAN_clean_linker_2, # of connection points: 2
#     Edge 59, Type (0, 0), BuildingBlock: XUDNAN_clean_linker_2, # of connection points: 2
#     Edge 60, Type (0, 0), BuildingBlock: XUDNAN_clean_linker_2, # of connection points: 2
#     Edge 61, Type (0, 0), BuildingBlock: XUDNAN_clean_linker_2, # of connection points: 2
#     Edge 62, Type (0, 0), BuildingBlock: XUDNAN_clean_linker_2, # of connection points: 2
#     Edge 63, Type (0, 0), BuildingBlock: XUDNAN_clean_linker_2, # of connection points: 2
#     Edge 64, Type (0, 0), BuildingBlock: XUDNAN_clean_linker_2, # of connection points: 2
#     Edge 65, Type (0, 0), BuildingBlock: XUDNAN_clean_linker_2, # of connection points: 2
#     Edge 66, Type (0, 0), BuildingBlock: XUDNAN_clean_linker_2, # of connection points: 2
#     Edge 67, Type (0, 0), BuildingBlock: XUDNAN_clean_linker_2, # of connection points: 2
#     Edge 68, Type (0, 0), BuildingBlock: XUDNAN_clean_linker_2, # of connection points: 2
#     Edge 69, Type (0, 0), BuildingBlock: XUDNAN_clean_linker_2, # of connection points: 2
#     Edge 70, Type (0, 0), BuildingBlock: XUDNAN_clean_linker_2, # of connection points: 2
#     Edge 71, Type (0, 0), BuildingBlock: XUDNAN_clean_linker_2, # of connection points: 2
#     Edge 72, Type (0, 0), BuildingBlock: XUDNAN_clean_linker_2, # of connection points: 2
#     Edge 73, Type (0, 0), BuildingBlock: XUDNAN_clean_linker_2, # of connection points: 2
#     Edge 74, Type (0, 0), BuildingBlock: XUDNAN_clean_linker_2, # of connection points: 2
#     Edge 75, Type (0, 0), BuildingBlock: XUDNAN_clean_linker_2, # of connection points: 2
#     Edge 76, Type (0, 0), BuildingBlock: XUDNAN_clean_linker_2, # of connection points: 2
#     Edge 77, Type (0, 0), BuildingBlock: XUDNAN_clean_linker_2, # of connection points: 2
#     Edge 78, Type (0, 0), BuildingBlock: XUDNAN_clean_linker_2, # of connection points: 2
#     Edge 79, Type (0, 0), BuildingBlock: XUDNAN_clean_linker_2, # of connection points: 2
#     Edge 80, Type (0, 0), BuildingBlock: XUDNAN_clean_linker_2, # of connection points: 2
#     Edge 81, Type (0, 0), BuildingBlock: XUDNAN_clean_linker_2, # of connection points: 2
#     Edge 82, Type (0, 0), BuildingBlock: XUDNAN_clean_linker_2, # of connection points: 2
#     Edge 83, Type (0, 0), BuildingBlock: XUDNAN_clean_linker_2, # of connection points: 2
#     Edge 84, Type (0, 0), BuildingBlock: XUDNAN_clean_linker_2, # of connection points: 2
#     Edge 85, Type (0, 0), BuildingBlock: XUDNAN_clean_linker_2, # of connection points: 2
#     Edge 86, Type (0, 0), BuildingBlock: XUDNAN_clean_linker_2, # of connection points: 2
#     Edge 87, Type (0, 0), BuildingBlock: XUDNAN_clean_linker_2, # of connection points: 2
#     Edge 88, Type (0, 0), BuildingBlock: XUDNAN_clean_linker_2, # of connection points: 2
#     Edge 89, Type (0, 0), BuildingBlock: XUDNAN_clean_linker_2, # of connection points: 2
#     Edge 90, Type (0, 0), BuildingBlock: XUDNAN_clean_linker_2, # of connection points: 2
#     Edge 91, Type (0, 0), BuildingBlock: XUDNAN_clean_linker_2, # of connection points: 2
#     Edge 92, Type (0, 0), BuildingBlock: XUDNAN_clean_linker_2, # of connection points: 2
#     Edge 93, Type (0, 0), BuildingBlock: XUDNAN_clean_linker_2, # of connection points: 2
#     Edge 94, Type (0, 0), BuildingBlock: XUDNAN_clean_linker_2, # of connection points: 2
#     Edge 95, Type (0, 0), BuildingBlock: XUDNAN_clean_linker_2, # of connection points: 2
#     Edge 96, Type (0, 0), BuildingBlock: XUDNAN_clean_linker_2, # of connection points: 2
#     Edge 97, Type (0, 0), BuildingBlock: XUDNAN_clean_linker_2, # of connection points: 2
#     Edge 98, Type (0, 0), BuildingBlock: XUDNAN_clean_linker_2, # of connection points: 2
#     Edge 99, Type (0, 0), BuildingBlock: XUDNAN_clean_linker_2, # of connection points: 2
#     Edge 100, Type (0, 0), BuildingBlock: XUDNAN_clean_linker_2, # of connection points: 2
#     Edge 101, Type (0, 0), BuildingBlock: XUDNAN_clean_linker_2, # of connection points: 2
#     Edge 102, Type (0, 0), BuildingBlock: XUDNAN_clean_linker_2, # of connection points: 2
#     Edge 103, Type (0, 0), BuildingBlock: XUDNAN_clean_linker_2, # of connection points: 2
#     Edge 104, Type (0, 0), BuildingBlock: XUDNAN_clean_linker_2, # of connection points: 2
#     Edge 105, Type (0, 0), BuildingBlock: XUDNAN_clean_linker_2, # of connection points: 2
#     Edge 106, Type (0, 0), BuildingBlock: XUDNAN_clean_linker_2, # of connection points: 2
#     Edge 107, Type (0, 0), BuildingBlock: XUDNAN_clean_linker_2, # of connection points: 2
# Relax obj value: 0.153
# Max RMSD: 0.150
# Mean RMSD: 0.150
data_MOF--net-ukn--node1-TATPOV_clean_sbu_0--edge1-XUDNAN_clean_linker_2
_symmetry_space_group_name_H-M    P1
_symmetry_Int_Tables_number       1
_symmetry_cell_setting            triclinic
loop_
_symmetry_equiv_pos_as_xyz
'x, y, z'
_cell_length_a     105.3532
_cell_length_b     105.35255
_cell_length_c     25.336608
_cell_angle_alpha  90.02395
_cell_angle_beta   90.004678
_cell_angle_gamma 120.00175
loop_
_atom_site_label
_atom_site_type_symbol
_atom_site_fract_x
_atom_site_fract_y
_atom_site_fract_z
_atom_type_partial_charge
Zn0 Zn 0.07518 0.26525 0.05089 0.0
Zn1 Zn 0.08054 0.28945 0.10285 0.0
O2 O 0.05812 0.27883 0.09058 0.0
O3 O 0.0538 0.2583 0.05205 0.0
O4 O 0.08473 0.30615 0.1528 0.0
O5 O 0.08404 0.25862 0.10647 0.0
O6 O 0.08936 0.27917 0.14649 0.0
C7 C 0.0492 0.26647 0.06992 0.0
C8 C 0.09308 0.29224 0.99243 0.0
O9 O 0.09168 0.29847 0.03351 0.0
O10 O 0.08732 0.27842 0.99091 0.0
C11 C 0.08041 0.30223 0.20004 0.0
O12 O 0.0728 0.28815 0.21078 0.0
C13 C 0.08986 0.26735 0.14475 0.0
Zn14 Zn 0.71673 0.8012 0.07334 0.0
Zn15 Zn 0.69943 0.7816 0.14639 0.0
O16 O 0.71265 0.77345 0.12087 0.0
O17 O 0.72748 0.7903 0.06439 0.0
O18 O 0.68769 0.76873 0.20719 0.0
O19 O 0.72402 0.81746 0.12634 0.0
O20 O 0.70903 0.80149 0.18434 0.0
C21 C 0.72335 0.77836 0.0885 0.0
C22 C 0.68589 0.7858 0.04608 0.0
O23 O 0.68447 0.77955 0.09049 0.0
O24 O 0.69846 0.79537 0.02973 0.0
C25 C 0.67624 0.76899 0.22117 0.0
O26 O 0.67171 0.77631 0.19227 0.0
C27 C 0.7186 0.81455 0.17226 0.0
Zn28 Zn 0.18035 0.91797 0.05654 0.0
Zn29 Zn 0.19885 0.91264 0.11041 0.0
O30 O 0.20947 0.93512 0.10455 0.0
O31 O 0.19334 0.93953 0.06604 0.0
O32 O 0.2114 0.90917 0.16198 0.0
O33 O 0.16363 0.90647 0.10558 0.0
O34 O 0.17883 0.90157 0.1481 0.0
C35 C 0.20586 0.94414 0.08634 0.0
C36 C 0.19281 0.90312 0.99609 0.0
O37 O 0.19944 0.90367 0.03895 0.0
O38 O 0.18416 0.90821 0.99442 0.0
C39 C 0.22532 0.91569 0.16137 0.0
O40 O 0.23247 0.92475 0.12258 0.0
C41 C 0.16611 0.90005 0.14292 0.0
Zn42 Zn 0.25794 0.07358 0.9953 0.0
Zn43 Zn 0.28156 0.07715 0.94279 0.0
O44 O 0.27018 0.05497 0.95849 0.0
O45 O 0.25049 0.05212 0.99959 0.0
O46 O 0.29772 0.07982 0.89299 0.0
O47 O 0.25124 0.08142 0.93619 0.0
O48 O 0.27178 0.08612 0.89731 0.0
C49 C 0.25803 0.04678 0.98171 0.0
C50 C 0.28566 0.0913 0.05053 0.0
O51 O 0.2913 0.08872 0.01028 0.0
O52 O 0.27198 0.08656 0.05231 0.0
C53 C 0.29339 0.07514 0.84636 0.0
O54 O 0.27926 0.06819 0.83639 0.0
C55 C 0.25998 0.08665 0.8977 0.0
Zn56 Zn 0.91992 0.19091 0.97902 0.0
Zn57 Zn 0.91559 0.21115 0.933 0.0
O58 O 0.93802 0.22119 0.94395 0.0
O59 O 0.9416 0.20387 0.9765 0.0
O60 O 0.91246 0.22466 0.88479 0.0
O61 O 0.90936 0.17588 0.92299 0.0
O62 O 0.90471 0.19225 0.8888 0.0
C63 C 0.94665 0.21696 0.96128 0.0
C64 C 0.90391 0.20152 0.04317 0.0
O65 O 0.90534 0.2096 0.00353 0.0
O66 O 0.90894 0.19281 0.04149 0.0
C67 C 0.9226 0.23667 0.866 0.0
O68 O 0.93605 0.24204 0.88357 0.0
C69 C 0.90319 0.17948 0.88803 0.0
Zn70 Zn 0.81329 0.74367 0.97461 0.0
Zn71 Zn 0.79573 0.72011 0.9185 0.0
O72 O 0.7844 0.73084 0.93514 0.0
O73 O 0.79953 0.75159 0.97455 0.0
O74 O 0.7829 0.70609 0.86195 0.0
O75 O 0.82991 0.75085 0.92305 0.0
O76 O 0.81589 0.73014 0.88151 0.0
C77 C 0.78692 0.74282 0.95653 0.0
C78 C 0.80256 0.7148 0.02728 0.0
O79 O 0.79578 0.709 0.98437 0.0
O80 O 0.81042 0.72864 0.03117 0.0
C81 C 0.78112 0.69365 0.84908 0.0
O82 O 0.78751 0.6879 0.8769 0.0
C83 C 0.8281 0.74202 0.88615 0.0
Zn84 Zn 0.91653 0.72228 0.98976 0.0
Zn85 Zn 0.91302 0.70305 0.91274 0.0
O86 O 0.93475 0.71231 0.93559 0.0
O87 O 0.93786 0.729 0.99464 0.0
O88 O 0.91171 0.69029 0.85087 0.0
O89 O 0.90986 0.73285 0.94129 0.0
O90 O 0.90597 0.71643 0.88016 0.0
C91 C 0.94295 0.72247 0.96767 0.0
C92 C 0.89606 0.69166 0.01528 0.0
O93 O 0.89894 0.68915 0.96884 0.0
O94 O 0.90211 0.70466 0.03294 0.0
C95 C 0.90145 0.68588 0.81699 0.0
O96 O 0.89096 0.68902 0.82387 0.0
C97 C 0.9056 0.72776 0.89541 0.0
Zn98 Zn 0.25602 0.18209 0.94531 0.0
Zn99 Zn 0.28002 0.20046 0.89394 0.0
O100 O 0.26885 0.21184 0.90335 0.0
O101 O 0.24839 0.19589 0.94269 0.0
O102 O 0.2962 0.21295 0.8428 0.0
O103 O 0.24939 0.16621 0.89162 0.0
O104 O 0.27051 0.18075 0.85347 0.0
C105 C 0.25648 0.2085 0.92351 0.0
C106 C 0.28309 0.19235 0.00568 0.0
O107 O 0.28936 0.19979 0.96436 0.0
O108 O 0.26931 0.18385 0.00623 0.0
C109 C 0.30318 0.22686 0.84094 0.0
O110 O 0.30084 0.23433 0.87738 0.0
C111 C 0.25854 0.16856 0.85537 0.0
Zn112 Zn 0.80838 0.07145 0.96976 0.0
Zn113 Zn 0.78661 0.07186 0.9184 0.0
O114 O 0.78109 0.05 0.9177 0.0
O115 O 0.8004 0.05041 0.95321 0.0
O116 O 0.77184 0.07258 0.86923 0.0
O117 O 0.82371 0.08633 0.9229 0.0
O118 O 0.80577 0.08691 0.88077 0.0
C119 C 0.78791 0.04342 0.93189 0.0
C120 C 0.7908 0.07948 0.03516 0.0
O121 O 0.78384 0.07831 0.99246 0.0
O122 O 0.80147 0.07711 0.03516 0.0
C123 C 0.75908 0.06199 0.85908 0.0
O124 O 0.75409 0.04967 0.88545 0.0
C125 C 0.81939 0.09136 0.88614 0.0
Zn126 Zn 0.73087 0.91026 0.02989 0.0
Zn127 Zn 0.71182 0.91499 0.07802 0.0
O128 O 0.72764 0.93609 0.05517 0.0
O129 O 0.74349 0.93142 0.01583 0.0
O130 O 0.69768 0.91696 0.12725 0.0
O131 O 0.73529 0.90137 0.09097 0.0
O132 O 0.71804 0.90385 0.12985 0.0
C133 C 0.73959 0.94048 0.02976 0.0
C134 C 0.70349 0.89754 0.97474 0.0
O135 O 0.7 0.90334 0.01219 0.0
O136 O 0.71586 0.89827 0.97511 0.0
C137 C 0.70298 0.92701 0.16207 0.0
O138 O 0.71698 0.93687 0.16005 0.0
C139 C 0.72743 0.8996 0.13101 0.0
Zn140 Zn 0.07407 0.79374 0.03747 0.0
Zn141 Zn 0.07613 0.7765 0.11162 0.0
O142 O 0.05414 0.76524 0.09104 0.0
O143 O 0.05237 0.78048 0.03589 0.0
O144 O 0.07799 0.76573 0.17454 0.0
O145 O 0.08272 0.81115 0.08586 0.0
O146 O 0.08447 0.79689 0.14513 0.0
C147 C 0.04647 0.76855 0.06127 0.0
C148 C 0.09232 0.78137 0.00731 0.0
O149 O 0.08935 0.77579 0.05347 0.0
O150 O 0.08705 0.78919 0.99141 0.0
C151 C 0.06888 0.7626 0.21207 0.0
O152 O 0.05794 0.76511 0.20593 0.0
C153 C 0.08642 0.80937 0.13154 0.0
Zn154 Zn 0.18094 0.26063 0.04075 0.0
Zn155 Zn 0.20154 0.2842 0.09151 0.0
O156 O 0.2122 0.27285 0.07306 0.0
O157 O 0.19471 0.25287 0.03544 0.0
O158 O 0.21543 0.30046 0.14009 0.0
O159 O 0.16656 0.25459 0.1002 0.0
O160 O 0.18333 0.27452 0.13948 0.0
C161 C 0.20787 0.26052 0.05061 0.0
C162 C 0.1905 0.28815 0.98537 0.0
O163 O 0.19891 0.29383 0.02517 0.0
O164 O 0.18175 0.27444 0.98346 0.0
C165 C 0.21072 0.30815 0.16218 0.0
O166 O 0.19798 0.30638 0.14743 0.0
C167 C 0.17061 0.2632 0.13928 0.0
Zn168 Zn 0.74353 0.61163 0.33609 0.0
Zn169 Zn 0.74443 0.63003 0.41265 0.0
O170 O 0.72245 0.6187 0.39183 0.0
O171 O 0.72209 0.60371 0.33019 0.0
O172 O 0.74579 0.64305 0.47395 0.0
O173 O 0.75059 0.6018 0.38633 0.0
O174 O 0.75282 0.61796 0.44611 0.0
C175 C 0.71547 0.60852 0.35817 0.0
C176 C 0.76167 0.64222 0.30974 0.0
O177 O 0.75769 0.64422 0.35505 0.0
O178 O 0.7573 0.62936 0.29286 0.0
C179 C 0.74376 0.63795 0.52068 0.0
O180 O 0.73983 0.62411 0.52769 0.0
C181 C 0.75409 0.60704 0.43239 0.0
Zn182 Zn 0.38937 0.13964 0.35912 0.0
Zn183 Zn 0.3719 0.12303 0.43757 0.0
O184 O 0.38389 0.11317 0.41625 0.0
O185 O 0.39949 0.12797 0.35661 0.0
O186 O 0.3613 0.11202 0.50349 0.0
O187 O 0.39748 0.15784 0.40312 0.0
O188 O 0.38261 0.14417 0.46616 0.0
C189 C 0.39447 0.11649 0.3844 0.0
C190 C 0.35814 0.12466 0.33451 0.0
O191 O 0.35645 0.11993 0.3818 0.0
O192 O 0.37088 0.13292 0.31612 0.0
C193 C 0.34772 0.10648 0.51332 0.0
O194 O 0.33904 0.10698 0.47717 0.0
C195 C 0.39229 0.15669 0.44902 0.0
Zn196 Zn 0.84865 0.24467 0.37445 0.0
Zn197 Zn 0.86609 0.24352 0.44994 0.0
O198 O 0.87479 0.26535 0.43114 0.0
O199 O 0.85938 0.26659 0.37553 0.0
O200 O 0.87811 0.24374 0.51262 0.0
O201 O 0.83081 0.23301 0.41942 0.0
O202 O 0.84516 0.23181 0.47979 0.0
C203 C 0.87108 0.27286 0.40225 0.0
C204 C 0.86515 0.23027 0.34316 0.0
O205 O 0.86976 0.23258 0.39067 0.0
O206 O 0.85641 0.23445 0.32727 0.0
C207 C 0.8911 0.25398 0.52211 0.0
O208 O 0.89769 0.26477 0.48816 0.0
C209 C 0.8324 0.22853 0.46392 0.0
Zn210 Zn 0.9234 0.40241 0.31161 0.0
Zn211 Zn 0.9474 0.40607 0.26047 0.0
O212 O 0.93499 0.38391 0.27412 0.0
O213 O 0.91438 0.38057 0.30899 0.0
O214 O 0.96357 0.40765 0.21301 0.0
O215 O 0.91898 0.41306 0.25541 0.0
O216 O 0.93889 0.41635 0.21539 0.0
C217 C 0.92226 0.37543 0.29284 0.0
C218 C 0.95098 0.41841 0.37073 0.0
O219 O 0.95691 0.41682 0.32927 0.0
O220 O 0.93724 0.41342 0.3723 0.0
C221 C 0.97118 0.41917 0.18581 0.0
O222 O 0.9694 0.43054 0.19307 0.0
C223 C 0.9279 0.41828 0.21732 0.0
Zn224 Zn 0.5886 0.5161 0.31887 0.0
Zn225 Zn 0.57891 0.53125 0.26217 0.0
O226 O 0.60108 0.5456 0.26846 0.0
O227 O 0.60916 0.5326 0.30968 0.0
O228 O 0.57209 0.54132 0.2108 0.0
O229 O 0.58033 0.4993 0.26783 0.0
O230 O 0.57177 0.51148 0.22445 0.0
C231 C 0.61157 0.54441 0.28794 0.0
C232 C 0.56895 0.52337 0.37607 0.0
O233 O 0.56859 0.52939 0.3328 0.0
O234 O 0.57642 0.51698 0.37954 0.0
C235 C 0.5765 0.54213 0.16347 0.0
O236 O 0.58532 0.53703 0.15254 0.0
C237 C 0.57311 0.50017 0.22956 0.0
Zn238 Zn 0.47948 0.07309 0.31543 0.0
Zn239 Zn 0.46162 0.04822 0.26211 0.0
O240 O 0.44867 0.05752 0.27369 0.0
O241 O 0.46382 0.07852 0.31228 0.0
O242 O 0.44992 0.03127 0.21222 0.0
O243 O 0.49496 0.08046 0.25919 0.0
O244 O 0.48055 0.05968 0.21869 0.0
C245 C 0.45129 0.06969 0.29373 0.0
C246 C 0.4716 0.046 0.37273 0.0
O247 O 0.46432 0.03964 0.3312 0.0
O248 O 0.47897 0.05988 0.37501 0.0
C249 C 0.44877 0.03497 0.16538 0.0
O250 O 0.45416 0.04895 0.15483 0.0
C251 C 0.49244 0.07193 0.22051 0.0
Zn252 Zn 0.58097 0.05949 0.27398 0.0
Zn253 Zn 0.57605 0.03866 0.20329 0.0
O254 O 0.59774 0.04671 0.22647 0.0
O255 O 0.60184 0.065 0.27937 0.0
O256 O 0.57254 0.02465 0.14289 0.0
O257 O 0.57519 0.07028 0.22359 0.0
O258 O 0.57004 0.05245 0.16733 0.0
C259 C 0.60632 0.05733 0.25633 0.0
C260 C 0.55939 0.0301 0.3072 0.0
O261 O 0.56171 0.02638 0.26188 0.0
O262 O 0.56623 0.0434 0.32159 0.0
C263 C 0.58214 0.02839 0.10673 0.0
O264 O 0.59461 0.04074 0.11172 0.0
C265 C 0.57048 0.06442 0.17899 0.0
Zn266 Zn 0.92379 0.51643 0.28939 0.0
Zn267 Zn 0.94674 0.53601 0.2349 0.0
O268 O 0.93386 0.54538 0.24745 0.0
O269 O 0.91398 0.52841 0.2869 0.0
O270 O 0.96165 0.55 0.18284 0.0
O271 O 0.91885 0.50052 0.23676 0.0
O272 O 0.93865 0.51644 0.19435 0.0
C273 C 0.92134 0.54118 0.268 0.0
C274 C 0.95185 0.52925 0.34575 0.0
O275 O 0.95737 0.53643 0.30327 0.0
O276 O 0.93821 0.52023 0.34863 0.0
C277 C 0.97244 0.54882 0.16675 0.0
O278 O 0.97493 0.53893 0.18832 0.0
C279 C 0.92769 0.50353 0.19878 0.0
Zn280 Zn 0.46911 0.40713 0.30906 0.0
Zn281 Zn 0.45494 0.41394 0.23433 0.0
O282 O 0.44062 0.39193 0.24743 0.0
O283 O 0.45298 0.38632 0.30412 0.0
O284 O 0.44568 0.41981 0.17683 0.0
O285 O 0.48651 0.41405 0.2608 0.0
O286 O 0.47495 0.41984 0.20162 0.0
C287 C 0.44173 0.38257 0.27596 0.0
C288 C 0.46141 0.42855 0.3433 0.0
O289 O 0.45647 0.42699 0.29642 0.0
O290 O 0.46713 0.42114 0.35922 0.0
C291 C 0.44373 0.41438 0.1307 0.0
O292 O 0.447 0.40408 0.12135 0.0
C293 C 0.4862 0.41921 0.21602 0.0
Zn294 Zn 0.38191 0.25063 0.33175 0.0
Zn295 Zn 0.363 0.24893 0.40624 0.0
O296 O 0.37377 0.27079 0.38396 0.0
O297 O 0.39046 0.27227 0.32796 0.0
O298 O 0.35061 0.24782 0.4692 0.0
O299 O 0.39082 0.24214 0.3798 0.0
O300 O 0.37513 0.24064 0.44005 0.0
C301 C 0.38456 0.27831 0.35324 0.0
C302 C 0.35129 0.23254 0.30239 0.0
O303 O 0.34876 0.23557 0.34863 0.0
O304 O 0.36435 0.23768 0.28635 0.0
C305 C 0.35609 0.258 0.50354 0.0
O306 O 0.36911 0.26943 0.49499 0.0
C307 C 0.38559 0.23862 0.42587 0.0
Zn308 Zn 0.73431 0.12188 0.36359 0.0
Zn309 Zn 0.735 0.10468 0.43936 0.0
O310 O 0.71293 0.0949 0.41965 0.0
O311 O 0.71256 0.11055 0.36279 0.0
O312 O 0.73613 0.09358 0.50298 0.0
O313 O 0.74471 0.13992 0.40762 0.0
O314 O 0.74547 0.12577 0.46976 0.0
C315 C 0.70588 0.09882 0.38912 0.0
C316 C 0.74957 0.10654 0.33346 0.0
O317 O 0.74672 0.10165 0.38062 0.0
O318 O 0.74542 0.11522 0.31694 0.0
C319 C 0.72562 0.08209 0.52339 0.0
O320 O 0.71267 0.07584 0.50074 0.0
C321 C 0.74849 0.13843 0.45352 0.0
Zn322 Zn 0.84231 0.59145 0.35223 0.0
Zn323 Zn 0.86136 0.61498 0.40817 0.0
O324 O 0.87222 0.6035 0.39507 0.0
O325 O 0.85607 0.58366 0.35278 0.0
O326 O 0.87374 0.63096 0.46076 0.0
O327 O 0.82663 0.58476 0.40705 0.0
O328 O 0.84182 0.60501 0.44895 0.0
C329 C 0.86867 0.59132 0.37277 0.0
C330 C 0.85313 0.61955 0.29804 0.0
O331 O 0.86058 0.62508 0.34001 0.0
O332 O 0.84449 0.60583 0.29469 0.0
C333 C 0.88526 0.63249 0.48291 0.0
O334 O 0.89069 0.62426 0.46762 0.0
C335 C 0.8294 0.59335 0.44567 0.0
Zn336 Zn 0.41475 0.94185 0.66415 0.0
Zn337 Zn 0.41842 0.95779 0.74972 0.0
O338 O 0.39659 0.94968 0.73035 0.0
O339 O 0.39452 0.93847 0.65457 0.0
O340 O 0.4206 0.96764 0.82043 0.0
O341 O 0.41868 0.92755 0.70343 0.0
O342 O 0.42508 0.94305 0.76958 0.0
C343 C 0.38911 0.94283 0.68984 0.0
C344 C 0.43625 0.97241 0.65062 0.0
O345 O 0.43237 0.97369 0.69718 0.0
O346 O 0.43099 0.95987 0.62954 0.0
C347 C 0.42511 0.9811 0.8296 0.0
O348 O 0.42881 0.9903 0.78992 0.0
C349 C 0.42403 0.93151 0.74918 0.0
Zn350 Zn 0.05446 0.46544 0.67811 0.0
Zn351 Zn 0.03687 0.45158 0.76216 0.0
O352 O 0.04855 0.44094 0.7506 0.0
O353 O 0.0622 0.45156 0.68059 0.0
O354 O 0.02489 0.44263 0.82834 0.0
O355 O 0.06417 0.48437 0.71932 0.0
O356 O 0.04886 0.47305 0.78451 0.0
C357 C 0.05787 0.44192 0.71639 0.0
C358 C 0.0235 0.45205 0.65522 0.0
O359 O 0.02192 0.448 0.70339 0.0
O360 O 0.03619 0.45968 0.63571 0.0
C361 C 0.02313 0.43113 0.85132 0.0
O362 O 0.0287 0.42361 0.8301 0.0
C363 C 0.05929 0.4847 0.76468 0.0
Zn364 Zn 0.52382 0.58324 0.66133 0.0
Zn365 Zn 0.53404 0.57859 0.75021 0.0
O366 O 0.54762 0.60076 0.73676 0.0
O367 O 0.54091 0.60349 0.65698 0.0
O368 O 0.54048 0.57515 0.82157 0.0
O369 O 0.50514 0.57949 0.69648 0.0
O370 O 0.51257 0.57243 0.76578 0.0
C371 C 0.54933 0.60866 0.69634 0.0
C372 C 0.53227 0.56154 0.64938 0.0
O373 O 0.5367 0.56514 0.69687 0.0
O374 O 0.52553 0.56711 0.62648 0.0
C375 C 0.54907 0.57018 0.83046 0.0
O376 O 0.55491 0.56697 0.79049 0.0
C377 C 0.50277 0.57405 0.74237 0.0
Zn378 Zn 0.5844 0.73706 0.70986 0.0
Zn379 Zn 0.60901 0.74547 0.6513 0.0
O380 O 0.59855 0.72315 0.65261 0.0
O381 O 0.57874 0.71583 0.70096 0.0
O382 O 0.62525 0.7501 0.59908 0.0
O383 O 0.57754 0.74729 0.6591 0.0
O384 O 0.59857 0.75545 0.61801 0.0
C385 C 0.5871 0.71291 0.67416 0.0
C386 C 0.61232 0.75432 0.76628 0.0
O387 O 0.61835 0.75423 0.72273 0.0
O388 O 0.59848 0.74829 0.76956 0.0
C389 C 0.62101 0.74733 0.5513 0.0
O390 O 0.60706 0.74207 0.54058 0.0
C391 C 0.58639 0.7551 0.62327 0.0
Zn392 Zn 0.25808 0.86901 0.67734 0.0
Zn393 Zn 0.25344 0.88343 0.59782 0.0
O394 O 0.27561 0.89566 0.61417 0.0
O395 O 0.27923 0.8844 0.68076 0.0
O396 O 0.25074 0.89302 0.53266 0.0
O397 O 0.25142 0.85124 0.63061 0.0
O398 O 0.24562 0.86255 0.57049 0.0
C399 C 0.28412 0.8949 0.64824 0.0
C400 C 0.23778 0.87929 0.70298 0.0
O401 O 0.24049 0.88456 0.65632 0.0
O402 O 0.24363 0.8721 0.72003 0.0
C403 C 0.26024 0.89682 0.49609 0.0
O404 O 0.27169 0.89519 0.50347 0.0
C405 C 0.24592 0.85124 0.5862 0.0
Zn406 Zn 0.1443 0.39613 0.69652 0.0
Zn407 Zn 0.12991 0.38005 0.61298 0.0
O408 O 0.1177 0.38955 0.63606 0.0
O409 O 0.12872 0.40117 0.70935 0.0
O410 O 0.12061 0.37005 0.54366 0.0
O411 O 0.16231 0.40912 0.65395 0.0
O412 O 0.15121 0.39363 0.589 0.0
C413 C 0.11836 0.39705 0.67657 0.0
C414 C 0.13316 0.36521 0.7115 0.0
O415 O 0.1276 0.36406 0.66573 0.0
O416 O 0.14141 0.37774 0.73146 0.0
C417 C 0.11294 0.35637 0.53458 0.0
O418 O 0.10994 0.34705 0.57348 0.0
C419 C 0.16253 0.40477 0.60762 0.0
Zn420 Zn 0.25336 0.39043 0.68717 0.0
Zn421 Zn 0.24842 0.37311 0.60369 0.0
O422 O 0.27019 0.3809 0.62178 0.0
O423 O 0.27332 0.39303 0.69615 0.0
O424 O 0.24563 0.36122 0.53745 0.0
O425 O 0.24984 0.40441 0.64372 0.0
O426 O 0.24286 0.3883 0.57934 0.0
C427 C 0.27813 0.388 0.66107 0.0
C428 C 0.23077 0.36066 0.70531 0.0
O429 O 0.23417 0.35857 0.65903 0.0
O430 O 0.23689 0.37343 0.72487 0.0
C431 C 0.23533 0.35832 0.50492 0.0
O432 O 0.22576 0.36247 0.51595 0.0
C433 C 0.24447 0.40023 0.59809 0.0
Zn434 Zn 0.60796 0.86928 0.64513 0.0
Zn435 Zn 0.6264 0.87933 0.56411 0.0
O436 O 0.61685 0.89248 0.56832 0.0
O437 O 0.6034 0.88532 0.64047 0.0
O438 O 0.63964 0.88757 0.49973 0.0
O439 O 0.5957 0.85022 0.60691 0.0
O440 O 0.6126 0.85759 0.54503 0.0
C441 C 0.60856 0.89392 0.60157 0.0
C442 C 0.63731 0.87797 0.67546 0.0
O443 O 0.64006 0.88154 0.62686 0.0
O444 O 0.62433 0.87219 0.69271 0.0
C445 C 0.64793 0.90137 0.49536 0.0
O446 O 0.64817 0.90985 0.53387 0.0
C447 C 0.60063 0.84767 0.56514 0.0
Zn448 Zn 0.14862 0.74173 0.65316 0.0
Zn449 Zn 0.1326 0.75017 0.5979 0.0
O450 O 0.12056 0.72765 0.60023 0.0
O451 O 0.13449 0.72055 0.64032 0.0
O452 O 0.12103 0.75479 0.54545 0.0
O453 O 0.16609 0.75248 0.60655 0.0
O454 O 0.15331 0.7606 0.56443 0.0
C455 C 0.12262 0.71748 0.61757 0.0
C456 C 0.13747 0.75798 0.71349 0.0
O457 O 0.13173 0.75862 0.66994 0.0
O458 O 0.14512 0.75175 0.71544 0.0
C459 C 0.10717 0.74891 0.54808 0.0
O460 O 0.10024 0.74056 0.58874 0.0
C461 C 0.1652 0.76036 0.57078 0.0
Zn462 Zn 0.05641 0.58472 0.65216 0.0
Zn463 Zn 0.03875 0.58364 0.73266 0.0
O464 O 0.05068 0.60563 0.71443 0.0
O465 O 0.06603 0.6065 0.65331 0.0
O466 O 0.02639 0.58251 0.79615 0.0
O467 O 0.06468 0.57478 0.69611 0.0
O468 O 0.05017 0.57385 0.76014 0.0
C469 C 0.06124 0.61291 0.68257 0.0
C470 C 0.02542 0.56866 0.62729 0.0
O471 O 0.02388 0.57165 0.67482 0.0
O472 O 0.03809 0.57307 0.60843 0.0
C473 C 0.03078 0.58228 0.8428 0.0
O474 O 0.04365 0.58339 0.84965 0.0
C475 C 0.05991 0.57115 0.7427 0.0
Zn476 Zn 0.40427 0.47477 0.64617 0.0
Zn477 Zn 0.41351 0.46346 0.7213 0.0
O478 O 0.39187 0.44787 0.71297 0.0
O479 O 0.38465 0.45635 0.64695 0.0
O480 O 0.41983 0.45723 0.78671 0.0
O481 O 0.40816 0.4924 0.68957 0.0
O482 O 0.41819 0.48395 0.7449 0.0
C483 C 0.38202 0.4464 0.68039 0.0
C484 C 0.4278 0.46948 0.61371 0.0
O485 O 0.42618 0.46364 0.65915 0.0
O486 O 0.42034 0.47543 0.60084 0.0
C487 C 0.41971 0.44537 0.79699 0.0
O488 O 0.41557 0.43519 0.76052 0.0
C489 C 0.41536 0.49391 0.73134 0.0
Zn490 Zn 0.51796 0.93107 0.62261 0.0
Zn491 Zn 0.53412 0.95249 0.68863 0.0
O492 O 0.54784 0.94472 0.66571 0.0
O493 O 0.53517 0.92893 0.60285 0.0
O494 O 0.54608 0.9676 0.74495 0.0
O495 O 0.50343 0.91861 0.67814 0.0
O496 O 0.51498 0.93825 0.72767 0.0
C497 C 0.54689 0.93601 0.62899 0.0
C498 C 0.52234 0.95895 0.58825 0.0
O499 O 0.53096 0.96375 0.62794 0.0
O500 O 0.51471 0.94529 0.58005 0.0
C501 C 0.54017 0.97041 0.78369 0.0
O502 O 0.52582 0.96402 0.78605 0.0
C503 C 0.50424 0.92533 0.72051 0.0
H504 H 0.0924 0.24305 0.15347 0.0
H505 H 0.10919 0.28668 0.21734 0.0
H506 H 0.13024 0.28577 0.25472 0.0
H507 H 0.11182 0.23012 0.25968 0.0
H508 H 0.11489 0.22027 0.2077 0.0
H509 H 0.09824 0.22119 0.20877 0.0
H510 H 0.10355 0.23145 0.11361 0.0
H511 H 0.12006 0.23067 0.11239 0.0
H512 H 0.12072 0.24784 0.09953 0.0
H513 H 0.15267 0.2845 0.25391 0.0
H514 H 0.17323 0.28319 0.21416 0.0
H515 H 0.14296 0.24028 0.1509 0.0
C516 C 0.10014 0.25207 0.17776 0.0
C517 C 0.09931 0.26498 0.18189 0.0
C518 C 0.10961 0.27665 0.21358 0.0
C519 C 0.1216 0.27618 0.23529 0.0
C520 C 0.12298 0.26386 0.22578 0.0
C521 C 0.11225 0.25178 0.1989 0.0
C522 C 0.11765 0.24142 0.18322 0.0
C523 C 0.11021 0.22742 0.21687 0.0
C524 C 0.11538 0.23768 0.12371 0.0
C525 C 0.13368 0.25065 0.19762 0.0
C526 C 0.13638 0.26313 0.22513 0.0
C527 C 0.15064 0.27457 0.23404 0.0
C528 C 0.16232 0.27375 0.21108 0.0
C529 C 0.1596 0.26169 0.17878 0.0
C530 C 0.14527 0.24958 0.1756 0.0
H531 H 0.7438 0.84035 0.17957 0.0
H532 H 0.69969 0.81644 0.24097 0.0
H533 H 0.70148 0.83956 0.2699 0.0
H534 H 0.75709 0.87524 0.27785 0.0
H535 H 0.76793 0.88682 0.22421 0.0
H536 H 0.76626 0.86906 0.23353 0.0
H537 H 0.75735 0.86235 0.13715 0.0
H538 H 0.75881 0.87977 0.12775 0.0
H539 H 0.74152 0.86333 0.11561 0.0
H540 H 0.70354 0.86336 0.25599 0.0
H541 H 0.70609 0.88436 0.20485 0.0
H542 H 0.7493 0.89422 0.15442 0.0
C543 C 0.73494 0.84006 0.20216 0.0
C544 C 0.72163 0.8268 0.20777 0.0
C545 C 0.71006 0.82654 0.23675 0.0
C546 C 0.71101 0.83968 0.25341 0.0
C547 C 0.72374 0.85288 0.24192 0.0
C548 C 0.7358 0.85313 0.21871 0.0
C549 C 0.74681 0.86837 0.19979 0.0
C550 C 0.76032 0.87528 0.23603 0.0
C551 C 0.75133 0.86843 0.14167 0.0
C552 C 0.7379 0.8759 0.20684 0.0
C553 C 0.72503 0.86714 0.23425 0.0
C554 C 0.7138 0.87055 0.23637 0.0
C555 C 0.7153 0.8825 0.20697 0.0
C556 C 0.72784 0.89072 0.17529 0.0
C557 C 0.73964 0.88804 0.17857 0.0
H558 H 0.08872 0.83612 0.12253 0.0
H559 H 0.10413 0.8119 0.21475 0.0
H560 H 0.12381 0.83503 0.25163 0.0
H561 H 0.11926 0.86024 0.0769 0.0
H562 H 0.1171 0.87617 0.07915 0.0
H563 H 0.10125 0.85832 0.07678 0.0
H564 H 0.09137 0.86364 0.16256 0.0
H565 H 0.10729 0.88175 0.16502 0.0
H566 H 0.10267 0.86964 0.22091 0.0
H567 H 0.14571 0.85951 0.25334 0.0
H568 H 0.16677 0.88257 0.22209 0.0
H569 H 0.13734 0.89173 0.1317 0.0
C570 C 0.09581 0.83569 0.15252 0.0
C571 C 0.095 0.8223 0.16548 0.0
C572 C 0.1045 0.82206 0.20441 0.0
C573 C 0.11571 0.83518 0.22577 0.0
C574 C 0.11702 0.84838 0.20877 0.0
C575 C 0.10703 0.84871 0.17407 0.0
C576 C 0.11226 0.86408 0.15414 0.0
C577 C 0.1125 0.86472 0.09321 0.0
C578 C 0.10284 0.87014 0.17705 0.0
C579 C 0.12753 0.87195 0.17739 0.0
C580 C 0.12988 0.8629 0.21065 0.0
C581 C 0.14388 0.86688 0.22903 0.0
C582 C 0.15582 0.88 0.21084 0.0
C583 C 0.15368 0.8889 0.17422 0.0
C584 C 0.13928 0.88523 0.16017 0.0
H585 H 0.28029 0.11137 0.84896 0.0
H586 H 0.23363 0.08133 0.85949 0.0
H587 H 0.22888 0.099 0.81296 0.0
H588 H 0.27998 0.13902 0.89193 0.0
H589 H 0.29383 0.15333 0.85143 0.0
H590 H 0.29405 0.13665 0.86061 0.0
H591 H 0.29316 0.13282 0.7595 0.0
H592 H 0.29297 0.1497 0.74996 0.0
H593 H 0.2788 0.13291 0.72112 0.0
H594 H 0.22858 0.12133 0.79825 0.0
H595 H 0.23266 0.14573 0.82147 0.0
H596 H 0.27951 0.16292 0.82066 0.0
C597 C 0.26915 0.10828 0.83841 0.0
C598 C 0.25732 0.09505 0.8572 0.0
C599 C 0.24282 0.09141 0.84496 0.0
C600 C 0.24005 0.10137 0.8181 0.0
C601 C 0.2519 0.11496 0.804 0.0
C602 C 0.26626 0.11837 0.813 0.0
C603 C 0.27676 0.13468 0.80665 0.0
C604 C 0.28669 0.14128 0.85559 0.0
C605 C 0.28596 0.1377 0.7563 0.0
C606 C 0.26594 0.1401 0.80067 0.0
C607 C 0.25172 0.12849 0.79588 0.0
C608 C 0.23965 0.13052 0.80006 0.0
C609 C 0.24205 0.14442 0.81345 0.0
C610 C 0.2564 0.15611 0.82256 0.0
C611 C 0.26848 0.15418 0.81235 0.0
H612 H 0.84764 0.09848 0.87179 0.0
H613 H 0.81623 0.11192 0.83008 0.0
H614 H 0.83638 0.13552 0.79762 0.0
H615 H 0.87049 0.1277 0.93116 0.0
H616 H 0.88743 0.12885 0.91061 0.0
H617 H 0.87089 0.11151 0.91052 0.0
H618 H 0.87452 0.10805 0.81151 0.0
H619 H 0.89127 0.12552 0.81135 0.0
H620 H 0.87698 0.12194 0.7645 0.0
H621 H 0.85932 0.15943 0.79657 0.0
H622 H 0.88201 0.18072 0.82898 0.0
H623 H 0.89896 0.15216 0.87134 0.0
C624 C 0.84498 0.10616 0.85355 0.0
C625 C 0.83046 0.10347 0.85363 0.0
C626 C 0.8273 0.11373 0.83002 0.0
C627 C 0.8387 0.12716 0.81127 0.0
C628 C 0.8531 0.12997 0.81544 0.0
C629 C 0.85623 0.11957 0.83504 0.0
C630 C 0.87245 0.12605 0.84535 0.0
C631 C 0.87547 0.12338 0.90278 0.0
C632 C 0.8792 0.12003 0.8058 0.0
C633 C 0.87772 0.14204 0.8348 0.0
C634 C 0.86658 0.14404 0.8151 0.0
C635 C 0.86824 0.15799 0.81034 0.0
C636 C 0.8812 0.17006 0.82899 0.0
C637 C 0.89218 0.16803 0.85307 0.0
C638 C 0.89077 0.154 0.85276 0.0
H639 H 0.83192 0.7211 0.83782 0.0
H640 H 0.85369 0.76768 0.87017 0.0
H641 H 0.87736 0.76995 0.84639 0.0
H642 H 0.85371 0.71434 0.90173 0.0
H643 H 0.85437 0.70092 0.85939 0.0
H644 H 0.83892 0.7036 0.8565 0.0
H645 H 0.84298 0.70897 0.7564 0.0
H646 H 0.85849 0.70611 0.75877 0.0
H647 H 0.8606 0.72297 0.73257 0.0
H648 H 0.89814 0.76607 0.85179 0.0
H649 H 0.91398 0.75646 0.88154 0.0
H650 H 0.87991 0.71241 0.8432 0.0
C651 C 0.84157 0.7319 0.83673 0.0
C652 C 0.841 0.74421 0.85568 0.0
C653 C 0.85388 0.75812 0.85556 0.0
C654 C 0.86739 0.75951 0.84182 0.0
C655 C 0.86783 0.74693 0.82779 0.0
C656 C 0.85518 0.73339 0.82388 0.0
C657 C 0.85879 0.72118 0.81884 0.0
C658 C 0.851 0.70935 0.86169 0.0
C659 C 0.85499 0.71441 0.76333 0.0
C660 C 0.87524 0.72976 0.82699 0.0
C661 C 0.88031 0.74467 0.82996 0.0
C662 C 0.89447 0.75453 0.84729 0.0
C663 C 0.9034 0.74899 0.86432 0.0
C664 C 0.89819 0.73377 0.86347 0.0
C665 C 0.88427 0.72415 0.84207 0.0
H666 H 0.82656 0.61433 0.49734 0.0
H667 H 0.80456 0.56763 0.46819 0.0
H668 H 0.78124 0.56536 0.49646 0.0
H669 H 0.7976 0.61263 0.60536 0.0
H670 H 0.79983 0.62943 0.57821 0.0
H671 H 0.81534 0.62662 0.58243 0.0
H672 H 0.81996 0.63197 0.48261 0.0
H673 H 0.8045 0.63455 0.4778 0.0
H674 H 0.80548 0.62113 0.43639 0.0
H675 H 0.76075 0.56916 0.48834 0.0
H676 H 0.74544 0.57852 0.45127 0.0
H677 H 0.77907 0.62286 0.48777 0.0
C678 C 0.81697 0.60353 0.50035 0.0
C679 C 0.81727 0.59118 0.48049 0.0
C680 C 0.80452 0.57723 0.4833 0.0
C681 C 0.79122 0.57585 0.49965 0.0
C682 C 0.79086 0.5885 0.51335 0.0
C683 C 0.80352 0.6021 0.5155 0.0
C684 C 0.7999 0.61432 0.51915 0.0
C685 C 0.80337 0.62115 0.5746 0.0
C686 C 0.80791 0.62614 0.4764 0.0
C687 C 0.7835 0.60568 0.51002 0.0
C688 C 0.77839 0.59073 0.50959 0.0
C689 C 0.76442 0.58074 0.49094 0.0
C690 C 0.7558 0.58613 0.46958 0.0
C691 C 0.76111 0.60135 0.46766 0.0
C692 C 0.7747 0.61115 0.49081 0.0
H693 H 0.4133 0.18458 0.42596 0.0
H694 H 0.37786 0.15917 0.53507 0.0
H695 H 0.37789 0.1816 0.56241 0.0
H696 H 0.4301 0.22198 0.50437 0.0
H697 H 0.43386 0.23155 0.4423 0.0
H698 H 0.43542 0.21531 0.44789 0.0
H699 H 0.41753 0.20378 0.3693 0.0
H700 H 0.41577 0.21972 0.36387 0.0
H701 H 0.39962 0.20202 0.37284 0.0
H702 H 0.37584 0.20378 0.55535 0.0
H703 H 0.37224 0.22308 0.51567 0.0
H704 H 0.40886 0.23459 0.41056 0.0
C705 C 0.40608 0.18389 0.4576 0.0
C706 C 0.39552 0.17016 0.47804 0.0
C707 C 0.38611 0.16959 0.51895 0.0
C708 C 0.38609 0.18233 0.53488 0.0
C709 C 0.39573 0.19556 0.51026 0.0
C710 C 0.40585 0.19649 0.47332 0.0
C711 C 0.41287 0.21104 0.44467 0.0
C712 C 0.42902 0.22053 0.4608 0.0
C713 C 0.41132 0.20899 0.38418 0.0
C714 C 0.40379 0.21734 0.46626 0.0
C715 C 0.39446 0.20862 0.50589 0.0
C716 C 0.38343 0.21096 0.52571 0.0
C717 C 0.38142 0.22194 0.50276 0.0
C718 C 0.39023 0.23025 0.45978 0.0
C719 C 0.40204 0.22845 0.44363 0.0
H720 H 0.80404 0.22057 0.44369 0.0
H721 H 0.83109 0.21109 0.5467 0.0
H722 H 0.8092 0.18833 0.57534 0.0
H723 H 0.76812 0.20031 0.527 0.0
H724 H 0.75762 0.1942 0.46683 0.0
H725 H 0.77402 0.21194 0.46952 0.0
H726 H 0.78429 0.20494 0.38865 0.0
H727 H 0.76814 0.18727 0.386 0.0
H728 H 0.78586 0.18867 0.39148 0.0
H729 H 0.78661 0.16395 0.57223 0.0
H730 H 0.76596 0.14094 0.53798 0.0
H731 H 0.75337 0.16597 0.4368 0.0
C732 C 0.80524 0.21406 0.47418 0.0
C733 C 0.81925 0.21756 0.49276 0.0
C734 C 0.82045 0.20868 0.5321 0.0
C735 C 0.80803 0.19572 0.54875 0.0
C736 C 0.79448 0.19195 0.52646 0.0
C737 C 0.79298 0.20107 0.49077 0.0
C738 C 0.77801 0.19348 0.46504 0.0
C739 C 0.7689 0.20039 0.48321 0.0
C740 C 0.77916 0.19359 0.40427 0.0
C741 C 0.77192 0.17823 0.48744 0.0
C742 C 0.78129 0.17766 0.52445 0.0
C743 C 0.77897 0.16434 0.54465 0.0
C744 C 0.76721 0.15129 0.52488 0.0
C745 C 0.75811 0.1517 0.48461 0.0
C746 C 0.76009 0.16535 0.46789 0.0
H747 H 0.90489 0.47564 0.19429 0.0
H748 H 0.94849 0.50395 0.13239 0.0
H749 H 0.94967 0.48229 0.10303 0.0
H750 H 0.912 0.45408 0.25683 0.0
H751 H 0.89538 0.43688 0.2458 0.0
H752 H 0.89508 0.45364 0.24102 0.0
H753 H 0.88482 0.44708 0.14593 0.0
H754 H 0.88492 0.43005 0.15059 0.0
H755 H 0.89431 0.44251 0.097 0.0
H756 H 0.94969 0.45898 0.10804 0.0
H757 H 0.9486 0.43707 0.14698 0.0
H758 H 0.90514 0.42337 0.20715 0.0
C759 C 0.91437 0.47726 0.1721 0.0
C760 C 0.92661 0.49142 0.16595 0.0
C761 C 0.93892 0.49319 0.13731 0.0
C762 C 0.93966 0.4809 0.12031 0.0
C763 C 0.92791 0.46697 0.13142 0.0
C764 C 0.9153 0.46509 0.15565 0.0
C765 C 0.90557 0.4494 0.17339 0.0
C766 C 0.90183 0.44847 0.23272 0.0
C767 C 0.89158 0.44181 0.13969 0.0
C768 C 0.91548 0.44321 0.16158 0.0
C769 C 0.92799 0.45325 0.13496 0.0
C770 C 0.93975 0.45086 0.12731 0.0
C771 C 0.93906 0.43837 0.1498 0.0
C772 C 0.92681 0.42859 0.18051 0.0
C773 C 0.91458 0.43063 0.18356 0.0
H774 H 0.54958 0.49449 0.16867 0.0
H775 H 0.57626 0.47608 0.21912 0.0
H776 H 0.55732 0.4518 0.18823 0.0
H777 H 0.52013 0.47115 0.2207 0.0
H778 H 0.507 0.46926 0.17116 0.0
H779 H 0.52445 0.48562 0.17372 0.0
H780 H 0.52937 0.48199 0.07639 0.0
H781 H 0.5117 0.4655 0.07335 0.0
H782 H 0.52802 0.46497 0.05595 0.0
H783 H 0.53365 0.42977 0.18584 0.0
H784 H 0.50805 0.41256 0.21011 0.0
H785 H 0.49553 0.44391 0.15854 0.0
C786 C 0.55175 0.48548 0.17032 0.0
C787 C 0.5643 0.48711 0.19645 0.0
C788 C 0.56669 0.47506 0.19926 0.0
C789 C 0.556 0.46122 0.18138 0.0
C790 C 0.54304 0.45961 0.16028 0.0
C791 C 0.541 0.47153 0.15338 0.0
C792 C 0.52512 0.4666 0.14098 0.0
C793 C 0.51883 0.47355 0.17896 0.0
C794 C 0.52346 0.46996 0.08322 0.0
C795 C 0.51826 0.45023 0.14952 0.0
C796 C 0.52887 0.44634 0.15799 0.0
C797 C 0.52525 0.43251 0.17716 0.0
C798 C 0.51068 0.4228 0.19111 0.0
C799 C 0.4999 0.42694 0.1856 0.0
C800 C 0.50356 0.44038 0.16141 0.0
H801 H 0.54486 0.0481 0.12837 0.0
H802 H 0.5779 0.09281 0.16262 0.0
H803 H 0.56038 0.10103 0.14187 0.0
H804 H 0.52034 0.05787 0.03232 0.0
H805 H 0.50422 0.04276 0.06106 0.0
H806 H 0.52037 0.04132 0.04997 0.0
H807 H 0.52015 0.03462 0.14822 0.0
H808 H 0.50432 0.03625 0.15982 0.0
H809 H 0.52065 0.04701 0.19851 0.0
H810 H 0.53889 0.10302 0.1553 0.0
H811 H 0.5162 0.09867 0.19861 0.0
H812 H 0.49554 0.05262 0.15844 0.0
C813 C 0.54858 0.05971 0.12761 0.0
C814 C 0.56265 0.06986 0.1465 0.0
C815 C 0.56717 0.08493 0.14756 0.0
C816 C 0.55725 0.08967 0.13567 0.0
C817 C 0.54283 0.0792 0.12307 0.0
C818 C 0.53855 0.06448 0.11759 0.0
C819 C 0.52197 0.05502 0.11739 0.0
C820 C 0.5164 0.04889 0.06187 0.0
C821 C 0.51648 0.04253 0.15848 0.0
C822 C 0.51775 0.06637 0.13192 0.0
C823 C 0.52986 0.08036 0.13191 0.0
C824 C 0.52925 0.09223 0.15357 0.0
C825 C 0.51633 0.08965 0.17855 0.0
C826 C 0.50419 0.07529 0.18187 0.0
C827 C 0.50462 0.06373 0.1554 0.0
H828 H 0.44812 0.94417 0.81145 0.0
H829 H 0.41723 0.90302 0.73827 0.0
H830 H 0.43384 0.89342 0.75572 0.0
H831 H 0.4759 0.94891 0.7493 0.0
H832 H 0.4898 0.95689 0.7998 0.0
H833 H 0.47355 0.95811 0.80535 0.0
H834 H 0.46827 0.9457 0.89712 0.0
H835 H 0.48471 0.94449 0.89176 0.0
H836 H 0.46735 0.92825 0.90459 0.0
H837 H 0.45572 0.89142 0.75135 0.0
H838 H 0.4803 0.8977 0.72086 0.0
H839 H 0.49832 0.94034 0.79473 0.0
C840 C 0.44453 0.93284 0.80221 0.0
C841 C 0.4314 0.92427 0.77402 0.0
C842 C 0.42721 0.9097 0.76035 0.0
C843 C 0.43657 0.90413 0.77049 0.0
C844 C 0.45011 0.91329 0.79423 0.0
C845 C 0.45402 0.92733 0.81075 0.0
C846 C 0.47027 0.9362 0.82298 0.0
C847 C 0.4778 0.95086 0.79246 0.0
C848 C 0.47279 0.93881 0.88267 0.0
C849 C 0.47518 0.92571 0.8038 0.0
C850 C 0.4633 0.91224 0.7904 0.0
C851 C 0.46509 0.90172 0.7632 0.0
C852 C 0.47913 0.90541 0.74579 0.0
C853 C 0.49119 0.91959 0.75503 0.0
C854 C 0.48933 0.92937 0.78776 0.0
H855 H 0.08072 0.56413 0.71748 0.0
H856 H 0.04835 0.55714 0.83666 0.0
H857 H 0.05099 0.53705 0.87429 0.0
H858 H 0.06751 0.53085 0.68338 0.0
H859 H 0.08419 0.53039 0.67238 0.0
H860 H 0.0844 0.54742 0.66815 0.0
H861 H 0.10487 0.55871 0.73883 0.0
H862 H 0.10481 0.54159 0.74306 0.0
H863 H 0.10229 0.54975 0.80173 0.0
H864 H 0.05103 0.51383 0.88072 0.0
H865 H 0.04821 0.49007 0.85453 0.0
H866 H 0.08053 0.51156 0.73114 0.0
C867 C 0.0747 0.55881 0.75301 0.0
C868 C 0.06427 0.5621 0.77389 0.0
C869 C 0.05644 0.55483 0.82001 0.0
C870 C 0.05795 0.54343 0.8419 0.0
C871 C 0.0675 0.53964 0.81777 0.0
C872 C 0.076 0.54735 0.77484 0.0
C873 C 0.08313 0.53947 0.74941 0.0
C874 C 0.07956 0.53687 0.68991 0.0
C875 C 0.09976 0.54788 0.75885 0.0
C876 C 0.07588 0.52532 0.78044 0.0
C877 C 0.06746 0.52589 0.82137 0.0
C878 C 0.05793 0.51339 0.84998 0.0
C879 C 0.05635 0.49989 0.83464 0.0
C880 C 0.06409 0.49898 0.79046 0.0
C881 C 0.07458 0.51197 0.76532 0.0
H882 H 0.43576 0.50242 0.80918 0.0
H883 H 0.41268 0.51805 0.71144 0.0
H884 H 0.43114 0.54344 0.7327 0.0
H885 H 0.45466 0.53745 0.90389 0.0
H886 H 0.47088 0.53578 0.90476 0.0
H887 H 0.45297 0.51956 0.90355 0.0
H888 H 0.46051 0.51056 0.82067 0.0
H889 H 0.47817 0.52666 0.8211 0.0
H890 H 0.46685 0.52212 0.76292 0.0
H891 H 0.45516 0.56516 0.73369 0.0
H892 H 0.48157 0.58072 0.71718 0.0
H893 H 0.49027 0.55218 0.81465 0.0
C894 C 0.43417 0.5112 0.79474 0.0
C895 C 0.42292 0.50829 0.75823 0.0
C896 C 0.42125 0.52 0.73942 0.0
C897 C 0.43168 0.53452 0.75161 0.0
C898 C 0.4436 0.53712 0.7832 0.0
C899 C 0.4447 0.52574 0.80587 0.0
C900 C 0.45992 0.5311 0.82804 0.0
C901 C 0.45958 0.53097 0.88866 0.0
C902 C 0.46674 0.52209 0.8068 0.0
C903 C 0.46773 0.54666 0.80733 0.0
C904 C 0.45798 0.55017 0.78405 0.0
C905 C 0.46284 0.56278 0.7535 0.0
C906 C 0.47788 0.57152 0.74395 0.0
C907 C 0.48789 0.56759 0.76473 0.0
C908 C 0.48283 0.55556 0.79938 0.0
H909 H 0.61417 0.83383 0.52328 0.0
H910 H 0.57168 0.82707 0.56947 0.0
H911 H 0.56142 0.80035 0.56486 0.0
H912 H 0.59984 0.79735 0.44226 0.0
H913 H 0.61478 0.79543 0.46761 0.0
H914 H 0.61742 0.81341 0.45423 0.0
H915 H 0.62643 0.82118 0.55018 0.0
H916 H 0.62365 0.80331 0.56408 0.0
H917 H 0.61474 0.81068 0.60422 0.0
H918 H 0.5577 0.77587 0.58199 0.0
H919 H 0.56076 0.75579 0.61736 0.0
H920 H 0.60567 0.77778 0.56142 0.0
C921 C 0.60252 0.82668 0.52913 0.0
C922 C 0.59365 0.83243 0.54604 0.0
C923 C 0.57859 0.82283 0.55586 0.0
C924 C 0.57266 0.80762 0.55314 0.0
C925 C 0.58193 0.8022 0.54038 0.0
C926 C 0.59653 0.81144 0.52755 0.0
C927 C 0.60484 0.80315 0.52586 0.0
C928 C 0.60949 0.80228 0.46911 0.0
C929 C 0.61818 0.80998 0.56334 0.0
C930 C 0.59306 0.78823 0.5449 0.0
C931 C 0.57978 0.78774 0.55111 0.0
C932 C 0.56789 0.77593 0.57565 0.0
C933 C 0.56975 0.76459 0.59598 0.0
C934 C 0.58345 0.76522 0.59207 0.0
C935 C 0.59499 0.77687 0.56413 0.0
H936 H 0.17082 0.78588 0.52338 0.0
H937 H 0.19029 0.75913 0.55944 0.0
H938 H 0.21471 0.77994 0.53979 0.0
H939 H 0.20133 0.81201 0.42192 0.0
H940 H 0.19978 0.82721 0.44676 0.0
H941 H 0.18376 0.80921 0.44277 0.0
H942 H 0.17878 0.81067 0.54198 0.0
H943 H 0.19475 0.82843 0.54653 0.0
H944 H 0.19284 0.81395 0.58957 0.0
H945 H 0.23614 0.80415 0.5487 0.0
H946 H 0.25271 0.8295 0.5783 0.0
H947 H 0.22051 0.84149 0.53258 0.0
C948 C 0.18016 0.78421 0.52404 0.0
C949 C 0.17871 0.77095 0.54299 0.0
C950 C 0.19117 0.76922 0.54499 0.0
C951 C 0.20511 0.78098 0.53357 0.0
C952 C 0.20638 0.79436 0.51946 0.0
C953 C 0.19419 0.79596 0.51318 0.0
C954 C 0.1986 0.81197 0.50778 0.0
C955 C 0.1957 0.8153 0.45144 0.0
C956 C 0.19079 0.8165 0.54894 0.0
C957 C 0.2149 0.81913 0.5184 0.0
C958 C 0.21926 0.80878 0.52316 0.0
C959 C 0.23306 0.81243 0.54281 0.0
C960 C 0.24238 0.82683 0.55987 0.0
C961 C 0.23791 0.8374 0.55675 0.0
C962 C 0.22433 0.83367 0.53346 0.0
H963 H 0.2217 0.38829 0.52932 0.0
H964 H 0.25084 0.42854 0.61165 0.0
H965 H 0.23415 0.43793 0.59286 0.0
H966 H 0.20372 0.40524 0.43486 0.0
H967 H 0.18633 0.38864 0.44256 0.0
H968 H 0.20303 0.38784 0.43998 0.0
H969 H 0.19624 0.37393 0.52887 0.0
H970 H 0.17977 0.3748 0.5321 0.0
H971 H 0.19276 0.38209 0.58566 0.0
H972 H 0.21182 0.43908 0.59614 0.0
H973 H 0.1865 0.43197 0.62015 0.0
H974 H 0.17065 0.39102 0.53593 0.0
C975 C 0.22495 0.39943 0.5404 0.0
C976 C 0.23751 0.4077 0.57179 0.0
C977 C 0.24127 0.42205 0.58734 0.0
C978 C 0.23186 0.4275 0.57651 0.0
C979 C 0.21877 0.41851 0.5499 0.0
C980 C 0.21543 0.40484 0.5309 0.0
C981 C 0.19945 0.39597 0.51475 0.0
C982 C 0.19806 0.39434 0.45444 0.0
C983 C 0.19162 0.38084 0.54206 0.0
C984 C 0.19393 0.40593 0.53436 0.0
C985 C 0.20537 0.41919 0.55198 0.0
C986 C 0.20283 0.42901 0.58072 0.0
C987 C 0.18839 0.42485 0.59449 0.0
C988 C 0.17668 0.41097 0.57964 0.0
C989 C 0.17941 0.40184 0.5465 0.0
H990 H 0.02683 0.23892 0.05212 0.0
H991 H 0.03673 0.28402 0.06548 0.0
H992 H 0.01156 0.27657 0.03514 0.0
H993 H 0.00636 0.23038 0.93535 0.0
H994 H 0.99328 0.21188 0.95458 0.0
H995 H 0.01163 0.22062 0.98058 0.0
H996 H 0.00157 0.21588 0.07632 0.0
H997 H 0.98317 0.2068 0.05062 0.0
H998 H 0.98898 0.22191 0.09587 0.0
H999 H 0.98553 0.26399 0.99696 0.0
H1000 H 0.96019 0.24704 0.96645 0.0
H1001 H 0.96833 0.21063 0.97875 0.0
C1002 C 0.02367 0.24723 0.04947 0.0
C1003 C 0.03369 0.26204 0.06106 0.0
C1004 C 0.02913 0.27257 0.05721 0.0
C1005 C 0.01493 0.26846 0.03955 0.0
C1006 C 0.0055 0.2538 0.02644 0.0
C1007 C 0.00964 0.24333 0.03219 0.0
C1008 C -0.00235 0.22833 0.01553 0.0
C1009 C 0.00253 0.22247 0.96873 0.0
C1010 C 0.99254 0.2176 0.06238 0.0
C1011 C 0.98605 0.23193 0.9991 0.0
C1012 C 0.99074 0.24666 0.0052 0.0
C1013 C 0.98175 0.25242 0.99231 0.0
C1014 C 0.96743 0.24275 0.97455 0.0
C1015 C 0.96231 0.22753 0.97031 0.0
C1016 C 0.97191 0.2222 0.98163 0.0
H1017 H 0.78854 0.76901 0.9775 0.0
H1018 H 0.75785 0.72235 0.96442 0.0
H1019 H 0.73817 0.72612 1.00039 0.0
H1020 H 0.77584 0.775 0.09725 0.0
H1021 H 0.77807 0.79255 0.07924 0.0
H1022 H 0.78957 0.78638 0.04967 0.0
H1023 H 0.78152 0.7895 0.95612 0.0
H1024 H 0.77028 0.79604 0.98537 0.0
H1025 H 0.76227 0.78072 0.94046 0.0
H1026 H 0.72249 0.73484 0.04629 0.0
H1027 H 0.71099 0.74849 0.08331 0.0
H1028 H 0.75184 0.78931 0.06184 0.0
C1029 C 0.77761 0.75962 0.98126 0.0
C1030 C 0.7747 0.7454 0.96826 0.0
C1031 C 0.76027 0.73338 0.97371 0.0
C1032 C 0.74906 0.73538 0.99458 0.0
C1033 C 0.75245 0.7495 0.00892 0.0
C1034 C 0.76628 0.76145 1.00121 0.0
C1035 C 0.76708 0.7755 0.01919 0.0
C1036 C 0.77831 0.78277 0.064 0.0
C1037 C 0.77048 0.78606 0.9725 0.0
C1038 C 0.7516 0.76957 0.03894 0.0
C1039 C 0.74334 0.75454 0.03339 0.0
C1040 C 0.72881 0.74664 0.05032 0.0
C1041 C 0.72241 0.75443 0.07178 0.0
C1042 C 0.73056 0.7699 0.07522 0.0
C1043 C 0.74537 0.77747 0.05942 0.0
H1044 H 0.20043 0.96661 0.07532 0.0
H1045 H 0.2358 0.95685 0.08347 0.0
H1046 H 0.25342 0.98229 0.05615 0.0
H1047 H 0.2118 0.98766 0.96189 0.0
H1048 H 0.20658 0.00075 0.98297 0.0
H1049 H 0.19706 0.98235 0.00846 0.0
H1050 H 0.20301 0.99217 0.10445 0.0
H1051 H 0.21221 0.01063 0.07934 0.0
H1052 H 0.22175 0.00468 0.12284 0.0
H1053 H 0.26657 0.00819 0.01808 0.0
H1054 H 0.27467 0.03335 0.98601 0.0
H1055 H 0.23033 0.02539 0.00444 0.0
C1056 C 0.21194 0.96991 0.07258 0.0
C1057 C 0.21678 0.95982 0.08146 0.0
C1058 C 0.23191 0.9645 0.07735 0.0
C1059 C 0.24195 0.97887 0.0614 0.0
C1060 C 0.23667 0.98836 0.05053 0.0
C1061 C 0.22205 0.98414 0.05716 0.0
C1062 C 0.21898 0.99619 0.04201 0.0
C1063 C 0.20795 0.99144 0.99611 0.0
C1064 C 0.21368 0.00122 0.09002 0.0
C1065 C 0.23409 0.0078 0.02481 0.0
C1066 C 0.24418 0.00314 0.02964 0.0
C1067 C 0.25879 0.01201 0.0147 0.0
C1068 C 0.26325 0.0262 0.99602 0.0
C1069 C 0.25312 0.03129 0.99293 0.0
C1070 C 0.23834 0.02183 0.00665 0.0
H1071 H 0.9657 0.74942 0.98999 0.0
H1072 H 0.95463 0.7043 0.96579 0.0
H1073 H 0.97988 0.71076 0.99209 0.0
H1074 H 0.00259 0.76565 0.9378 0.0
H1075 H 0.00969 0.78063 0.98417 0.0
H1076 H 0.99087 0.77214 0.96319 0.0
H1077 H 0.98258 0.76721 0.06107 0.0
H1078 H 0.00137 0.77542 0.08229 0.0
H1079 H 0.98829 0.75698 0.10207 0.0
H1080 H 0.00616 0.72229 0.02764 0.0
H1081 H 0.03209 0.73853 0.05442 0.0
H1082 H 0.02553 0.77597 0.0493 0.0
C1083 C 0.96864 0.74093 0.98977 0.0
C1084 C 0.95831 0.72638 0.97616 0.0
C1085 C 0.9625 0.71555 0.97582 0.0
C1086 C 0.97674 0.71909 0.99114 0.0
C1087 C 0.98659 0.73353 0.00572 0.0
C1088 C 0.98277 0.74431 0.00391 0.0
C1089 C -0.00462 0.7591 0.01952 0.0
C1090 C -0.0001 0.77002 0.97342 0.0
C1091 C 0.99168 0.76502 0.06919 0.0
C1092 C 0.00692 0.75499 0.03093 0.0
C1093 C 0.00166 0.74018 0.02363 0.0
C1094 C 0.01041 0.73392 0.03303 0.0
C1095 C 0.02504 0.74316 0.04865 0.0
C1096 C 0.0307 0.75843 0.05369 0.0
C1097 C 0.02144 0.76431 0.04549 0.0
H1098 H 0.22891 0.20355 0.93748 0.0
H1099 H 0.27428 0.23839 0.93071 0.0
H1100 H 0.267 0.25598 0.96398 0.0
H1101 H 0.21243 0.22584 0.89963 0.0
H1102 H 0.19716 0.21587 0.9437 0.0
H1103 H 0.20607 0.20684 0.91406 0.0
H1104 H 0.21035 0.19953 0.00734 0.0
H1105 H 0.20185 0.20889 0.03736 0.0
H1106 H 0.22021 0.21361 0.05588 0.0
H1107 H 0.25465 0.26901 0.00741 0.0
H1108 H 0.23798 0.27697 0.04471 0.0
H1109 H 0.20118 0.23301 0.02258 0.0
C1110 C 0.23729 0.21495 0.94175 0.0
C1111 C 0.25213 0.21965 0.93154 0.0
C1112 C 0.2628 0.23463 0.93777 0.0
C1113 C 0.25879 0.24464 0.95711 0.0
C1114 C 0.24408 0.23945 0.96931 0.0
C1115 C 0.23348 0.225 0.96074 0.0
C1116 C 0.21852 0.22191 0.97826 0.0
C1117 C 0.20793 0.21735 0.9311 0.0
C1118 C 0.21238 0.2103 0.02232 0.0
C1119 C 0.22232 0.23682 0.99889 0.0
C1120 C 0.23709 0.24684 0.99371 0.0
C1121 C 0.24305 0.26127 0.01117 0.0
C1122 C 0.23354 0.26565 0.03279 0.0
C1123 C 0.2183 0.2556 0.03642 0.0
C1124 C 0.21277 0.24097 0.02016 0.0
H1125 H 0.76018 0.0229 0.96186 0.0
H1126 H 0.8009 0.02836 0.89915 0.0
H1127 H 0.7921 0.00213 0.91394 0.0
H1128 H 0.75752 0.0006 0.06512 0.0
H1129 H 0.73792 0.98862 0.0636 0.0
H1130 H 0.74584 0.00709 0.03926 0.0
H1131 H 0.7332 -0.00244 0.94873 0.0
H1132 H 0.7249 0.97904 0.97319 0.0
H1133 H 0.7357 0.98407 0.91365 0.0
H1134 H 0.78103 0.97709 0.94673 0.0
H1135 H 0.76678 0.95281 0.98687 0.0
H1136 H 0.73279 0.96275 0.03074 0.0
C1137 C 0.76689 0.01835 0.94913 0.0
C1138 C 0.78108 0.02745 0.9285 0.0
C1139 C 0.78992 0.02141 0.91429 0.0
C1140 C 0.78504 0.00658 0.92273 0.0
C1141 C 0.77133 -0.00199 0.94563 0.0
C1142 C 0.76223 0.00352 0.95797 0.0
C1143 C 0.74857 0.99212 0.98648 0.0
C1144 C 0.7474 -0.00257 0.0419 0.0
C1145 C 0.73477 0.98795 0.95354 0.0
C1146 C 0.75168 0.97955 0.98948 0.0
C1147 C 0.76485 0.98327 0.96538 0.0
C1148 C 0.77056 0.97391 0.96484 0.0
C1149 C 0.76238 0.96015 0.98814 0.0
C1150 C 0.74859 0.9558 0.01171 0.0
C1151 C 0.74327 0.96575 0.01302 0.0
H1152 H 0.6368 0.54365 0.28297 0.0
H1153 H 0.61988 0.57342 0.2998 0.0
H1154 H 0.64496 0.59373 0.31987 0.0
H1155 H 0.66157 0.55685 0.38636 0.0
H1156 H 0.6756 0.55477 0.3535 0.0
H1157 H 0.65666 0.54306 0.33605 0.0
H1158 H 0.66248 0.55098 0.23804 0.0
H1159 H 0.68152 0.56249 0.25496 0.0
H1160 H 0.67183 0.5702 0.22157 0.0
H1161 H 0.6718 0.60998 0.34867 0.0
H1162 H 0.69835 0.62137 0.36987 0.0
H1163 H 0.69679 0.58059 0.32977 0.0
C1164 C 0.63843 0.55452 0.28977 0.0
C1165 C 0.62652 0.55705 0.2899 0.0
C1166 C 0.62898 0.57137 0.29901 0.0
C1167 C 0.64313 0.5829 0.31084 0.0
C1168 C 0.65461 0.5799 0.31235 0.0
C1169 C 0.65241 0.5661 0.30077 0.0
C1170 C 0.66635 0.5655 0.30552 0.0
C1171 C 0.66495 0.55439 0.34788 0.0
C1172 C 0.67081 0.5621 0.25183 0.0
C1173 C 0.67675 0.58101 0.32271 0.0
C1174 C 0.66986 0.58921 0.32693 0.0
C1175 C 0.67734 0.60371 0.34469 0.0
C1176 C 0.69233 0.61005 0.35708 0.0
C1177 C 0.69955 0.60186 0.35095 0.0
C1178 C 0.69157 0.58717 0.33411 0.0
H1179 H 0.45431 0.09674 0.2918 0.0
H1180 H 0.42212 0.05079 0.31239 0.0
H1181 H 0.40369 0.05762 0.33942 0.0
H1182 H 0.44472 0.11028 0.40034 0.0
H1183 H 0.44747 0.12676 0.36849 0.0
H1184 H 0.45767 0.11819 0.34695 0.0
H1185 H 0.44812 0.1164 0.25133 0.0
H1186 H 0.43815 0.12529 0.27229 0.0
H1187 H 0.42866 0.10775 0.23964 0.0
H1188 H 0.38978 0.07005 0.37372 0.0
H1189 H 0.38041 0.08666 0.39839 0.0
H1190 H 0.42181 0.12408 0.35104 0.0
C1191 C 0.44329 0.08811 0.30099 0.0
C1192 C 0.43957 0.07327 0.30013 0.0
C1193 C 0.42508 0.06223 0.31235 0.0
C1194 C 0.41462 0.06602 0.32815 0.0
C1195 C 0.41883 0.08084 0.33048 0.0
C1196 C 0.43273 0.09167 0.31595 0.0
C1197 C 0.43465 0.10678 0.32191 0.0
C1198 C 0.44685 0.11604 0.3618 0.0
C1199 C 0.43756 0.11451 0.26809 0.0
C1200 C 0.41975 0.10284 0.34314 0.0
C1201 C 0.41077 0.08786 0.34833 0.0
C1202 C 0.39666 0.08178 0.36915 0.0
C1203 C 0.39148 0.09128 0.38352 0.0
C1204 C 0.40039 0.1066 0.37636 0.0
C1205 C 0.41473 0.11239 0.35655 0.0
H1206 H 0.86425 0.29355 0.37161 0.0
H1207 H 0.9009 0.28746 0.41175 0.0
H1208 H 0.91816 0.31282 0.38303 0.0
H1209 H 0.87931 0.31478 0.25686 0.0
H1210 H 0.87215 0.32688 0.26896 0.0
H1211 H 0.86264 0.30843 0.29412 0.0
H1212 H 0.8639 0.31815 0.38913 0.0
H1213 H 0.87311 0.33662 0.36409 0.0
H1214 H 0.88139 0.33154 0.41609 0.0
H1215 H 0.93126 0.33814 0.34289 0.0
H1216 H 0.93941 0.36316 0.30995 0.0
H1217 H 0.89412 0.35286 0.3008 0.0
C1218 C 0.87591 0.29763 0.37508 0.0
C1219 C 0.88128 0.2886 0.3938 0.0
C1220 C 0.89659 0.29429 0.39796 0.0
C1221 C 0.90646 0.30861 0.38124 0.0
C1222 C 0.90079 0.31708 0.36129 0.0
C1223 C 0.88589 0.31193 0.35942 0.0
C1224 C 0.8826 0.32334 0.33771 0.0
C1225 C 0.87365 0.31803 0.28637 0.0
C1226 C 0.87479 0.32767 0.37924 0.0
C1227 C 0.89799 0.3357 0.32722 0.0
C1228 C 0.90833 0.3318 0.34024 0.0
C1229 C 0.92327 0.34136 0.33299 0.0
C1230 C 0.92779 0.35548 0.31377 0.0
C1231 C 0.91738 0.35989 0.30294 0.0
C1232 C 0.9023 0.34976 0.30885 0.0
H1233 H 0.68646 0.10757 0.36529 0.0
H1234 H 0.69007 0.06871 0.3876 0.0
H1235 H 0.66493 0.05339 0.35167 0.0
H1236 H 0.6476 0.09067 0.39968 0.0
H1237 H 0.6446 0.10148 0.35149 0.0
H1238 H 0.66226 0.10869 0.38243 0.0
H1239 H 0.67424 0.11306 0.28983 0.0
H1240 H 0.65658 0.10544 0.25864 0.0
H1241 H 0.66824 0.09786 0.24477 0.0
H1242 H 0.63996 0.04284 0.30474 0.0
H1243 H 0.61615 0.03767 0.26607 0.0
H1244 H 0.62978 0.08381 0.27718 0.0
C1245 C 0.68184 0.09579 0.36368 0.0
C1246 C 0.69011 0.08927 0.37916 0.0
C1247 C 0.68378 0.07385 0.37647 0.0
C1248 C 0.6696 0.06512 0.35559 0.0
C1249 C 0.66198 0.07203 0.3384 0.0
C1250 C 0.6678 0.087 0.34355 0.0
C1251 C 0.65758 0.09193 0.3224 0.0
C1252 C 0.65272 0.09858 0.36664 0.0
C1253 C 0.66458 0.1027 0.27617 0.0
C1254 C 0.64511 0.07744 0.30382 0.0
C1255 C 0.6478 0.06605 0.31274 0.0
C1256 C 0.63772 0.05168 0.29797 0.0
C1257 C 0.62433 0.04886 0.27548 0.0
C1258 C 0.62122 0.06036 0.26871 0.0
C1259 C 0.6319 0.07481 0.28197 0.0
H1260 H 0.86313 0.56354 0.35679 0.0
H1261 H 0.8986 0.60857 0.36812 0.0
H1262 H 0.91615 0.60085 0.33852 0.0
H1263 H 0.88411 0.5467 0.40295 0.0
H1264 H 0.8747 0.53129 0.35898 0.0
H1265 H 0.86544 0.54054 0.38367 0.0
H1266 H 0.85988 0.54463 0.28745 0.0
H1267 H 0.86944 0.53573 0.26242 0.0
H1268 H 0.8748 0.55409 0.24156 0.0
H1269 H 0.9293 0.5882 0.30027 0.0
H1270 H 0.93765 0.57119 0.27055 0.0
H1271 H 0.8933 0.53466 0.28686 0.0
C1272 C 0.87463 0.57176 0.35387 0.0
C1273 C 0.87955 0.58664 0.36456 0.0
C1274 C 0.89466 0.59708 0.36048 0.0
C1275 C 0.90466 0.59282 0.34324 0.0
C1276 C 0.89932 0.57809 0.33103 0.0
C1277 C 0.8847 0.56769 0.33732 0.0
C1278 C 0.88166 0.55257 0.322 0.0
C1279 C 0.87616 0.54216 0.36975 0.0
C1280 C 0.8708 0.54641 0.2756 0.0
C1281 C 0.89682 0.55607 0.30548 0.0
C1282 C 0.90686 0.57084 0.31038 0.0
C1283 C 0.92155 0.5766 0.29668 0.0
C1284 C 0.92616 0.56689 0.27934 0.0
C1285 C 0.91611 0.55163 0.2765 0.0
C1286 C 0.90123 0.54627 0.28873 0.0
H1287 H 0.44501 0.35885 0.27459 0.0
H1288 H 0.41218 0.37201 0.28541 0.0
H1289 H 0.39331 0.34634 0.30687 0.0
H1290 H 0.42089 0.32264 0.215 0.0
H1291 H 0.42983 0.31446 0.25042 0.0
H1292 H 0.44001 0.33352 0.23207 0.0
H1293 H 0.44744 0.34042 0.33001 0.0
H1294 H 0.43702 0.32144 0.34888 0.0
H1295 H 0.43335 0.33472 0.37961 0.0
H1296 H 0.37893 0.31951 0.33781 0.0
H1297 H 0.36957 0.29342 0.3614 0.0
H1298 H 0.41215 0.29862 0.32544 0.0
C1299 C 0.43377 0.35624 0.2803 0.0
C1300 C 0.42993 0.36724 0.27835 0.0
C1301 C 0.41519 0.36357 0.28617 0.0
C1302 C 0.40448 0.3491 0.29877 0.0
C1303 C 0.40877 0.33854 0.30227 0.0
C1304 C 0.42301 0.34193 0.29191 0.0
C1305 C 0.42503 0.32882 0.29862 0.0
C1306 C 0.42918 0.32461 0.24589 0.0
C1307 C 0.43638 0.33152 0.34185 0.0
C1308 C 0.40978 0.31753 0.31566 0.0
C1309 C 0.40051 0.32327 0.31803 0.0
C1310 C 0.38604 0.31487 0.33528 0.0
C1311 C 0.38086 0.30015 0.34905 0.0
C1312 C 0.39013 0.29406 0.34482 0.0
C1313 C 0.40477 0.30295 0.32846 0.0
H1314 H 0.30351 0.89976 0.7277 0.0
H1315 H 0.30026 0.91499 0.5718 0.0
H1316 H 0.32706 0.93184 0.57146 0.0
H1317 H 0.33387 0.93567 0.7767 0.0
H1318 H 0.3421 0.92688 0.81279 0.0
H1319 H 0.32251 0.91761 0.80382 0.0
H1320 H 0.32315 0.89545 0.76231 0.0
H1321 H 0.34268 0.90463 0.771 0.0
H1322 H 0.33488 0.89836 0.70637 0.0
H1323 H 0.35411 0.94369 0.58181 0.0
H1324 H 0.37963 0.95065 0.60377 0.0
H1325 H 0.3654 0.9289 0.75503 0.0
C1326 C 0.30839 0.90684 0.69386 0.0
C1327 C 0.29984 0.90605 0.64966 0.0
C1328 C 0.30661 0.91547 0.60614 0.0
C1329 C 0.3218 0.92509 0.60568 0.0
C1330 C 0.32995 0.92534 0.64945 0.0
C1331 C 0.32346 0.9166 0.69305 0.0
C1332 C 0.33477 0.91812 0.73332 0.0
C1333 C 0.33322 0.92498 0.7847 0.0
C1334 C 0.33381 0.90326 0.74382 0.0
C1335 C 0.34871 0.92854 0.70444 0.0
C1336 C 0.34567 0.93268 0.65633 0.0
C1337 C 0.35665 0.94088 0.61993 0.0
C1338 C 0.37107 0.94474 0.63261 0.0
C1339 C 0.37435 0.94052 0.6814 0.0
C1340 C 0.36312 0.93263 0.71827 0.0
H1341 H 0.07137 0.43587 0.63652 0.0
H1342 H 0.05807 0.42564 0.80034 0.0
H1343 H 0.07009 0.41065 0.80469 0.0
H1344 H 0.06712 0.39966 0.60225 0.0
H1345 H 0.08285 0.40779 0.55923 0.0
H1346 H 0.07187 0.41639 0.56751 0.0
H1347 H 0.09502 0.44056 0.59527 0.0
H1348 H 0.10604 0.43206 0.58729 0.0
H1349 H 0.10603 0.44038 0.64945 0.0
H1350 H 0.08641 0.40003 0.79492 0.0
H1351 H 0.10467 0.39292 0.77013 0.0
H1352 H 0.10609 0.40861 0.61093 0.0
C1353 C 0.0708 0.4303 0.67312 0.0
C1354 C 0.06387 0.43194 0.71822 0.0
C1355 C 0.0633 0.42447 0.76532 0.0
C1356 C 0.07007 0.41593 0.76811 0.0
C1357 C 0.07707 0.41479 0.72316 0.0
C1358 C 0.07729 0.42159 0.67631 0.0
C1359 C 0.08619 0.41923 0.63452 0.0
C1360 C 0.07642 0.41023 0.58813 0.0
C1361 C 0.09908 0.43393 0.61556 0.0
C1362 C 0.09145 0.41054 0.66583 0.0
C1363 C 0.086 0.40806 0.71683 0.0
C1364 C 0.09046 0.40157 0.75483 0.0
C1365 C 0.10086 0.39765 0.7405 0.0
C1366 C 0.10653 0.40008 0.68856 0.0
C1367 C 0.10158 0.40633 0.65047 0.0
H1368 H 0.55029 0.62947 0.76124 0.0
H1369 H 0.57135 0.62272 0.6261 0.0
H1370 H 0.58542 0.64947 0.61056 0.0
H1371 H 0.54371 0.65435 0.70148 0.0
H1372 H 0.5466 0.66588 0.75801 0.0
H1373 H 0.54093 0.64686 0.76721 0.0
H1374 H 0.56344 0.65378 0.82692 0.0
H1375 H 0.56901 0.67288 0.81912 0.0
H1376 H 0.58156 0.66651 0.80305 0.0
H1377 H 0.59448 0.67627 0.6026 0.0
H1378 H 0.59837 0.70143 0.60375 0.0
H1379 H 0.56981 0.69028 0.74017 0.0
C1380 C 0.55844 0.63377 0.73016 0.0
C1381 C 0.5602 0.62428 0.69579 0.0
C1382 C 0.57026 0.63001 0.65351 0.0
C1383 C 0.57822 0.64514 0.64436 0.0
C1384 C 0.57578 0.65426 0.67752 0.0
C1385 C 0.56621 0.64882 0.71983 0.0
C1386 C 0.56404 0.66063 0.74495 0.0
C1387 C 0.54786 0.65668 0.74274 0.0
C1388 C 0.56987 0.66363 0.80189 0.0
C1389 C 0.57347 0.6734 0.70911 0.0
C1390 C 0.58037 0.66958 0.67112 0.0
C1391 C 0.58928 0.67945 0.63254 0.0
C1392 C 0.59135 0.69366 0.6333 0.0
C1393 C 0.5843 0.69775 0.67178 0.0
C1394 C 0.57523 0.68743 0.70997 0.0
H1395 H 0.36147 0.43656 0.60257 0.0
H1396 H 0.36933 0.42691 0.76172 0.0
H1397 H 0.34358 0.40689 0.76732 0.0
H1398 H 0.32852 0.43331 0.62435 0.0
H1399 H 0.32021 0.42485 0.56232 0.0
H1400 H 0.33975 0.43623 0.56686 0.0
H1401 H 0.34302 0.41492 0.5318 0.0
H1402 H 0.32339 0.40342 0.52704 0.0
H1403 H 0.33393 0.39741 0.56475 0.0
H1404 H 0.31649 0.39215 0.76276 0.0
H1405 H 0.29015 0.38286 0.74679 0.0
H1406 H 0.29989 0.40072 0.58859 0.0
C1407 C 0.35787 0.42999 0.63813 0.0
C1408 C 0.36732 0.43329 0.68183 0.0
C1409 C 0.36225 0.4245 0.72773 0.0
C1410 C 0.34767 0.41309 0.73114 0.0
C1411 C 0.33849 0.41042 0.68786 0.0
C1412 C 0.34345 0.41847 0.64185 0.0
C1413 C 0.33109 0.4145 0.60311 0.0
C1414 C 0.32982 0.42802 0.58836 0.0
C1415 C 0.33297 0.40712 0.55375 0.0
C1416 C 0.31821 0.40369 0.63591 0.0
C1417 C 0.32274 0.4013 0.68438 0.0
C1418 C 0.31281 0.39348 0.72437 0.0
C1419 C 0.29792 0.3883 0.71509 0.0
C1420 C 0.29316 0.39085 0.66611 0.0
C1421 C 0.30333 0.3982 0.62552 0.0
H1422 H 0.60135 0.90699 0.67868 0.0
H1423 H 0.60527 0.90534 0.50883 0.0
H1424 H 0.59303 0.92003 0.49791 0.0
H1425 H 0.56716 0.90105 0.68251 0.0
H1426 H 0.5695 0.91332 0.73604 0.0
H1427 H 0.58131 0.90565 0.73114 0.0
H1428 H 0.60415 0.93168 0.73113 0.0
H1429 H 0.59239 0.93949 0.73679 0.0
H1430 H 0.60548 0.94503 0.68366 0.0
H1431 H 0.5756 0.92941 0.50537 0.0
H1432 H 0.55637 0.93516 0.53051 0.0
H1433 H 0.56504 0.93224 0.69585 0.0
C1434 C 0.60007 0.91015 0.63925 0.0
C1435 C 0.60417 0.90505 0.59452 0.0
C1436 C 0.60228 0.90928 0.54352 0.0
C1437 C 0.59535 0.9176 0.53704 0.0
C1438 C 0.59079 0.92189 0.58204 0.0
C1439 C 0.5934 0.9186 0.63226 0.0
C1440 C 0.58618 0.92318 0.67396 0.0
C1441 C 0.5754 0.91002 0.70784 0.0
C1442 C 0.59774 0.93558 0.70841 0.0
C1443 C 0.57824 0.92863 0.63926 0.0
C1444 C 0.58118 0.92795 0.58636 0.0
C1445 C 0.57359 0.93048 0.54658 0.0
C1446 C 0.56264 0.93361 0.56118 0.0
C1447 C 0.55949 0.93432 0.61503 0.0
C1448 C 0.56762 0.93217 0.6545 0.0
H1449 H 0.08947 0.63238 0.65907 0.0
H1450 H 0.04761 0.62918 0.69251 0.0
H1451 H 0.05832 0.65562 0.67174 0.0
H1452 H 0.11158 0.66791 0.71778 0.0
H1453 H 0.12601 0.67342 0.66972 0.0
H1454 H 0.1147 0.65436 0.68638 0.0
H1455 H 0.10818 0.6483 0.58737 0.0
H1456 H 0.11921 0.6674 0.57058 0.0
H1457 H 0.10018 0.65737 0.55164 0.0
H1458 H 0.07367 0.68225 0.64288 0.0
H1459 H 0.09326 0.70768 0.62406 0.0
H1460 H 0.125 0.69301 0.61454 0.0
C1461 C 0.08258 0.63727 0.66228 0.0
C1462 C 0.06774 0.62884 0.67704 0.0
C1463 C 0.05905 0.63557 0.6815 0.0
C1464 C 0.065 0.65049 0.66927 0.0
C1465 C 0.07963 0.65842 0.65344 0.0
C1466 C 0.08836 0.65208 0.65112 0.0
C1467 C 0.10391 0.66302 0.63575 0.0
C1468 C 0.11468 0.66479 0.68006 0.0
C1469 C 0.10811 0.65876 0.58321 0.0
C1470 C 0.10264 0.67658 0.62975 0.0
C1471 C 0.08851 0.6737 0.63907 0.0
C1472 C 0.08477 0.68464 0.63571 0.0
C1473 C 0.09592 0.69899 0.62454 0.0
C1474 C 0.11058 0.70221 0.61792 0.0
C1475 C 0.11386 0.6908 0.6194 0.0
H1476 H 0.13451 0.36442 0.8185 0.0
H1477 H 0.12111 0.33644 0.67997 0.0
H1478 H 0.11162 0.31461 0.73789 0.0
H1479 H 0.1443 0.34225 0.90366 0.0
H1480 H 0.13682 0.34605 0.96156 0.0
H1481 H 0.14442 0.35937 0.90922 0.0
H1482 H 0.11998 0.35957 0.90225 0.0
H1483 H 0.11227 0.34622 0.95425 0.0
H1484 H 0.10315 0.34258 0.89125 0.0
H1485 H 0.10223 0.29595 0.81125 0.0
H1486 H 0.09211 0.28175 0.89297 0.0
H1487 H 0.11038 0.32219 0.98308 0.0
C1488 C 0.12994 0.35374 0.80014 0.0
C1489 C 0.12875 0.35212 0.74466 0.0
C1490 C 0.12225 0.33791 0.72235 0.0
C1491 C 0.11688 0.32549 0.75494 0.0
C1492 C 0.118 0.3275 0.80959 0.0
C1493 C 0.12432 0.34128 0.83196 0.0
C1494 C 0.12286 0.3405 0.8915 0.0
C1495 C 0.138 0.34745 0.91804 0.0
C1496 C 0.11404 0.34763 0.91092 0.0
C1497 C 0.11446 0.32408 0.89929 0.0
C1498 C 0.11202 0.31678 0.85168 0.0
C1499 C 0.10416 0.30155 0.84873 0.0
C1500 C 0.09847 0.29359 0.89549 0.0
C1501 C 0.10044 0.30086 0.94455 0.0
C1502 C 0.1087 0.31631 0.94631 0.0
H1503 H 0.68523 0.78834 0.93899 0.0
H1504 H 0.65731 0.77357 0.07757 0.0
H1505 H 0.63557 0.76602 0.02086 0.0
H1506 H 0.6645 0.80148 0.86305 0.0
H1507 H 0.66742 0.79482 0.80132 0.0
H1508 H 0.6809 0.80043 0.85315 0.0
H1509 H 0.67915 0.77501 0.85016 0.0
H1510 H 0.66572 0.76934 0.79833 0.0
H1511 H 0.66154 0.75868 0.85801 0.0
H1512 H 0.61696 0.75935 0.9492 0.0
H1513 H 0.60238 0.75193 0.86745 0.0
H1514 H 0.6424 0.76992 0.77494 0.0
C1515 C 0.67457 0.78373 0.95747 0.0
C1516 C 0.67293 0.78166 0.01267 0.0
C1517 C 0.65877 0.77527 0.03534 0.0
C1518 C 0.6464 0.77104 0.00351 0.0
C1519 C 0.64839 0.77316 0.94916 0.0
C1520 C 0.6621 0.77924 0.92625 0.0
C1521 C 0.66113 0.7792 0.86659 0.0
C1522 C 0.66895 0.79492 0.84476 0.0
C1523 C 0.66724 0.77001 0.84184 0.0
C1524 C 0.6447 0.77194 0.85946 0.0
C1525 C 0.6376 0.76879 0.90761 0.0
C1526 C 0.6224 0.76181 0.91127 0.0
C1527 C 0.61422 0.75766 0.86449 0.0
C1528 C 0.62124 0.76032 0.81466 0.0
C1529 C 0.63671 0.76776 0.81232 0.0
H1530 H 0.21079 0.89135 0.9822 0.0
H1531 H 0.18233 0.90314 0.8974 0.0
H1532 H 0.18969 0.89703 0.81331 0.0
H1533 H 0.23973 0.90615 0.89215 0.0
H1534 H 0.24418 0.89177 0.89828 0.0
H1535 H 0.23573 0.89579 0.95253 0.0
H1536 H 0.21465 0.86876 0.95404 0.0
H1537 H 0.22311 0.86462 0.89997 0.0
H1538 H 0.20439 0.86057 0.89457 0.0
H1539 H 0.20215 0.89231 0.73765 0.0
H1540 H 0.21749 0.88732 0.67657 0.0
H1541 H 0.23692 0.87762 0.8105 0.0
C1542 C 0.2059 0.89238 0.94607 0.0
C1543 C 0.196 0.89774 0.94659 0.0
C1544 C 0.18993 0.89903 0.89824 0.0
C1545 C 0.19403 0.8956 0.85011 0.0
C1546 C 0.20408 0.8907 0.85088 0.0
C1547 C 0.20978 0.88888 0.8976 0.0
C1548 C 0.22077 0.8839 0.88728 0.0
C1549 C 0.236 0.89507 0.90883 0.0
C1550 C 0.2154 0.86855 0.91033 0.0
C1551 C 0.22063 0.8836 0.82752 0.0
C1552 C 0.21094 0.88756 0.80721 0.0
C1553 C 0.2096 0.88895 0.75303 0.0
C1554 C 0.21839 0.88617 0.71866 0.0
C1555 C 0.22827 0.88195 0.73873 0.0
C1556 C 0.22928 0.88058 0.79387 0.0
H1557 H 0.31564 0.10481 0.06046 0.0
H1558 H 0.27597 0.09329 0.14861 0.0
H1559 H 0.29036 0.10172 0.23068 0.0
H1560 H 0.33183 0.09311 0.15332 0.0
H1561 H 0.35032 0.10788 0.14329 0.0
H1562 H 0.33721 0.10229 0.09041 0.0
H1563 H 0.34188 0.12881 0.08206 0.0
H1564 H 0.35516 0.13454 0.13459 0.0
H1565 H 0.34 0.13787 0.13944 0.0
H1566 H 0.30852 0.10839 0.30471 0.0
H1567 H 0.32977 0.11552 0.3638 0.0
H1568 H 0.35765 0.12386 0.227 0.0
C1569 C 0.31002 0.10434 0.09681 0.0
C1570 C 0.29467 0.09836 0.09798 0.0
C1571 C 0.28773 0.09788 0.14653 0.0
C1572 C 0.2958 0.1026 0.1935 0.0
C1573 C 0.31084 0.10802 0.19122 0.0
C1574 C 0.31794 0.10918 0.14402 0.0
C1575 C 0.33414 0.11499 0.15264 0.0
C1576 C 0.33863 0.1039 0.13381 0.0
C1577 C 0.34334 0.12994 0.12559 0.0
C1578 C 0.33493 0.11649 0.21213 0.0
C1579 C 0.32139 0.11239 0.23375 0.0
C1580 C 0.31925 0.11191 0.28822 0.0
C1581 C 0.33133 0.11588 0.32146 0.0
C1582 C 0.34535 0.12038 0.29994 0.0
C1583 C 0.34711 0.12072 0.24458 0.0
H1584 H 0.86591 0.23254 0.23577 0.0
H1585 H 0.87665 0.21257 0.36516 0.0
H1586 H 0.88616 0.20159 0.30123 0.0
H1587 H 0.85534 0.20313 0.13969 0.0
H1588 H 0.86367 0.21562 0.08526 0.0
H1589 H 0.85656 0.22082 0.14073 0.0
H1590 H 0.88187 0.24421 0.15378 0.0
H1591 H 0.88905 0.23908 0.09842 0.0
H1592 H 0.89795 0.24249 0.16179 0.0
H1593 H 0.89496 0.19336 0.22371 0.0
H1594 H 0.90421 0.18983 0.139 0.0
H1595 H 0.88884 0.21628 0.06031 0.0
C1596 C 0.87005 0.22567 0.25064 0.0
C1597 C 0.87041 0.22326 0.30536 0.0
C1598 C 0.87624 0.2145 0.32337 0.0
C1599 C 0.8816 0.20819 0.28738 0.0
C1600 C 0.88116 0.21086 0.2337 0.0
C1601 C 0.87564 0.21949 0.21541 0.0
C1602 C 0.87736 0.22152 0.15613 0.0
C1603 C 0.86234 0.21487 0.12886 0.0
C1604 C 0.88714 0.23779 0.14171 0.0
C1605 C 0.88486 0.2128 0.14393 0.0
C1606 C 0.88674 0.20657 0.18913 0.0
C1607 C 0.89353 0.19815 0.18805 0.0
C1608 C 0.89872 0.19621 0.13961 0.0
C1609 C 0.89727 0.2028 0.0929 0.0
C1610 C 0.89012 0.2111 0.09523 0.0
H1611 H 0.76284 0.64244 0.20217 0.0
H1612 H 0.78083 0.67049 0.33956 0.0
H1613 H 0.79541 0.69172 0.28108 0.0
H1614 H 0.79543 0.66072 0.11723 0.0
H1615 H 0.78476 0.65853 0.0588 0.0
H1616 H 0.77714 0.64526 0.11132 0.0
H1617 H 0.75488 0.64935 0.11716 0.0
H1618 H 0.7624 0.66258 0.06469 0.0
H1619 H 0.75797 0.66763 0.1271 0.0
H1620 H 0.80701 0.70992 0.20811 0.0
H1621 H 0.81318 0.72443 0.12649 0.0
H1622 H 0.78654 0.68469 0.03619 0.0
C1623 C 0.77008 0.653 0.21997 0.0
C1624 C 0.77088 0.65483 0.27537 0.0
C1625 C 0.78013 0.66887 0.2972 0.0
C1626 C 0.78849 0.68095 0.26433 0.0
C1627 C 0.78735 0.67878 0.20983 0.0
C1628 C 0.77828 0.66519 0.18777 0.0
C1629 C 0.77797 0.66606 0.12812 0.0
C1630 C 0.7842 0.65711 0.10236 0.0
C1631 C 0.76238 0.66112 0.10812 0.0
C1632 C 0.78809 0.68233 0.12006 0.0
C1633 C 0.79359 0.6894 0.16765 0.0
C1634 C 0.80283 0.7045 0.1706 0.0
C1635 C 0.80627 0.71264 0.12386 0.0
C1636 C 0.80032 0.70572 0.07477 0.0
C1637 C 0.79132 0.69031 0.07294 0.0
H1638 H 0.89563 0.69147 0.12296 0.0
H1639 H 0.87476 0.66404 0.98619 0.0
H1640 H 0.85937 0.64321 0.04518 0.0
H1641 H 0.89854 0.6648 0.19501 0.0
H1642 H 0.89532 0.67038 0.25852 0.0
H1643 H 0.9032 0.68355 0.20602 0.0
H1644 H 0.88241 0.68977 0.21573 0.0
H1645 H 0.87444 0.67657 0.26834 0.0
H1646 H 0.86357 0.67529 0.2115 0.0
H1647 H 0.8474 0.62514 0.11856 0.0
H1648 H 0.84113 0.61048 0.19993 0.0
H1649 H 0.87074 0.64948 0.28891 0.0
C1650 C 0.8876 0.68117 0.10541 0.0
C1651 C 0.88624 0.67939 0.05003 0.0
C1652 C 0.87591 0.66564 0.02854 0.0
C1653 C 0.86708 0.65379 0.06171 0.0
C1654 C 0.86881 0.65588 0.11618 0.0
C1655 C 0.87889 0.6692 0.13788 0.0
C1656 C 0.87963 0.66821 0.19735 0.0
C1657 C 0.89508 0.67195 0.21525 0.0
C1658 C 0.87471 0.67804 0.22484 0.0
C1659 C 0.86862 0.65215 0.20568 0.0
C1660 C 0.8623 0.64531 0.15847 0.0
C1661 C 0.8522 0.63039 0.15579 0.0
C1662 C 0.84871 0.62216 0.20237 0.0
C1663 C 0.85546 0.62881 0.25096 0.0
C1664 C 0.86533 0.64407 0.25256 0.0
H1665 H 0.31292 0.20914 0.02099 0.0
H1666 H 0.2721 0.18086 0.10288 0.0
H1667 H 0.28531 0.1869 0.18751 0.0
H1668 H 0.33627 0.20067 0.1069 0.0
H1669 H 0.3514 0.21921 0.10364 0.0
H1670 H 0.33891 0.2116 0.04881 0.0
H1671 H 0.33393 0.23331 0.05339 0.0
H1672 H 0.34628 0.2409 0.10845 0.0
H1673 H 0.32764 0.23706 0.11446 0.0
H1674 H 0.30237 0.19837 0.26442 0.0
H1675 H 0.32266 0.21276 0.32697 0.0
H1676 H 0.35243 0.23248 0.19493 0.0
C1677 C 0.3068 0.20398 0.05655 0.0
C1678 C 0.29146 0.19454 0.05512 0.0
C1679 C 0.28386 0.18811 0.10274 0.0
C1680 C 0.29126 0.19147 0.15117 0.0
C1681 C 0.30631 0.20113 0.15138 0.0
C1682 C 0.31405 0.2071 0.10527 0.0
C1683 C 0.33008 0.21757 0.11664 0.0
C1684 C 0.33974 0.21192 0.09258 0.0
C1685 C 0.33475 0.23313 0.09708 0.0
C1686 C 0.33004 0.21686 0.17634 0.0
C1687 C 0.31623 0.20733 0.1957 0.0
C1688 C 0.3133 0.20566 0.24976 0.0
C1689 C 0.32485 0.21391 0.28496 0.0
C1690 C 0.33912 0.22358 0.26583 0.0
C1691 C 0.34169 0.22496 0.2108 0.0
H1692 H 0.7731 0.09151 0.0512 0.0
H1693 H 0.79819 0.07523 0.13393 0.0
H1694 H 0.79045 0.08038 0.21912 0.0
H1695 H 0.78155 0.12124 0.14193 0.0
H1696 H 0.76365 0.11943 0.13696 0.0
H1697 H 0.77102 0.11431 0.0821 0.0
H1698 H 0.748 0.08838 0.08175 0.0
H1699 H 0.74057 0.09342 0.13661 0.0
H1700 H 0.74281 0.07758 0.14133 0.0
H1701 H 0.77929 0.08639 0.29563 0.0
H1702 H 0.76654 0.09434 0.358 0.0
H1703 H 0.74977 0.10778 0.22579 0.0
C1704 C 0.77695 0.08903 0.08723 0.0
C1705 C 0.78623 0.08295 0.08583 0.0
C1706 C 0.79112 0.07995 0.13392 0.0
C1707 C 0.78676 0.08279 0.1826 0.0
C1708 C 0.77761 0.08877 0.18267 0.0
C1709 C 0.77286 0.09199 0.13633 0.0
C1710 C 0.7633 0.09863 0.14758 0.0
C1711 C 0.7703 0.11434 0.12586 0.0
C1712 C 0.74775 0.08892 0.12552 0.0
C1713 C 0.76335 0.09853 0.20737 0.0
C1714 C 0.77159 0.0927 0.22686 0.0
C1715 C 0.77289 0.09108 0.2809 0.0
C1716 C 0.7656 0.09559 0.31599 0.0
C1717 C 0.75729 0.10178 0.29679 0.0
C1718 C 0.75621 0.10326 0.24174 0.0
H1719 H 0.63798 0.88308 0.78091 0.0
H1720 H 0.66306 0.87834 0.65439 0.0
H1721 H 0.68178 0.88082 0.71931 0.0
H1722 H 0.66898 0.91078 0.85132 0.0
H1723 H 0.66094 0.90417 0.91539 0.0
H1724 H 0.64935 0.9013 0.8592 0.0
H1725 H 0.63542 0.87337 0.87785 0.0
H1726 H 0.64711 0.87613 0.93374 0.0
H1727 H 0.64549 0.86371 0.8818 0.0
H1728 H 0.69725 0.88318 0.79835 0.0
H1729 H 0.71046 0.88891 0.88283 0.0
H1730 H 0.67587 0.8936 0.95725 0.0
C1731 C 0.6474 0.88252 0.76687 0.0
C1732 C 0.64906 0.88039 0.71278 0.0
C1733 C 0.66163 0.87998 0.69569 0.0
C1734 C 0.67222 0.88126 0.7323 0.0
C1735 C 0.67012 0.88313 0.78552 0.0
C1736 C 0.65815 0.88403 0.8026 0.0
C1737 C 0.65889 0.88699 0.86138 0.0
C1738 C 0.65959 0.90168 0.87245 0.0
C1739 C 0.64596 0.87429 0.89039 0.0
C1740 C 0.67321 0.88767 0.87486 0.0
C1741 C 0.67936 0.88515 0.83068 0.0
C1742 C 0.69258 0.88523 0.83311 0.0
C1743 C 0.69996 0.88844 0.88152 0.0
C1744 C 0.69424 0.89177 0.92687 0.0
C1745 C 0.68053 0.89108 0.9235 0.0
H1746 H 0.12029 0.77065 0.72763 0.0
H1747 H 0.14714 0.75683 0.81249 0.0
H1748 H 0.13957 0.7626 0.89676 0.0
H1749 H 0.127 0.80096 0.81873 0.0
H1750 H 0.10851 0.79754 0.81209 0.0
H1751 H 0.11709 0.79356 0.75799 0.0
H1752 H 0.09546 0.76682 0.75575 0.0
H1753 H 0.08689 0.77065 0.81007 0.0
H1754 H 0.09073 0.75583 0.81481 0.0
H1755 H 0.12699 0.76714 0.97215 0.0
H1756 H 0.11171 0.77217 0.03317 0.0
H1757 H 0.09384 0.78396 0.89981 0.0
C1758 C 0.12481 0.76912 0.76384 0.0
C1759 C 0.1343 0.76326 0.76325 0.0
C1760 C 0.13987 0.76131 0.8117 0.0
C1761 C 0.13564 0.76455 0.85993 0.0
C1762 C 0.12596 0.76992 0.8592 0.0
C1763 C 0.12078 0.77241 0.81246 0.0
C1764 C 0.11007 0.77774 0.82285 0.0
C1765 C 0.11603 0.79338 0.80166 0.0
C1766 C 0.09489 0.76712 0.79949 0.0
C1767 C 0.10976 0.77746 0.88263 0.0
C1768 C 0.11901 0.77293 0.90285 0.0
C1769 C 0.11989 0.77094 0.95688 0.0
C1770 C 0.11112 0.77375 0.9912 0.0
C1771 C 0.10169 0.77857 0.97131 0.0
C1772 C 0.10111 0.78051 0.91631 0.0
H1773 H 0.2062 0.31814 0.97683 0.0
H1774 H 0.17847 0.27855 0.88758 0.0
H1775 H 0.18376 0.29319 0.80635 0.0
H1776 H 0.19681 0.34255 0.8994 0.0
H1777 H 0.21526 0.35778 0.90452 0.0
H1778 H 0.20775 0.34438 0.95669 0.0
H1779 H 0.2297 0.33988 0.94795 0.0
H1780 H 0.2372 0.35314 0.89565 0.0
H1781 H 0.23361 0.33472 0.88475 0.0
H1782 H 0.19517 0.31156 0.73285 0.0
H1783 H 0.21025 0.33273 0.67447 0.0
H1784 H 0.22927 0.36029 0.81241 0.0
C1785 C 0.20096 0.31259 0.94047 0.0
C1786 C 0.19194 0.29721 0.93866 0.0
C1787 C 0.18537 0.29034 0.89012 0.0
C1788 C 0.18831 0.29856 0.84365 0.0
C1789 C 0.19761 0.31366 0.84649 0.0
C1790 C 0.20362 0.32064 0.89383 0.0
C1791 C 0.21393 0.33686 0.88576 0.0
C1792 C 0.20808 0.34593 0.91322 0.0
C1793 C 0.22953 0.3414 0.90463 0.0
C1794 C 0.21323 0.33778 0.82634 0.0
C1795 C 0.20373 0.32432 0.80428 0.0
C1796 C 0.20237 0.32225 0.74969 0.0
C1797 C 0.21101 0.33429 0.71685 0.0
C1798 C 0.22076 0.34817 0.73888 0.0
C1799 C 0.22166 0.3499 0.7943 0.0
H1800 H 0.02295 0.45172 0.54762 0.0
H1801 H 0.99495 0.44205 0.68495 0.0
H1802 H 0.97353 0.43431 0.62621 0.0
H1803 H 0.00434 0.46506 0.46209 0.0
H1804 H 0.00674 0.45659 0.40404 0.0
H1805 H 0.01997 0.46249 0.45678 0.0
H1806 H 0.01627 0.4363 0.46353 0.0
H1807 H 0.00309 0.43033 0.41077 0.0
H1808 H -0.00192 0.42095 0.47336 0.0
H1809 H 0.95519 0.42705 0.5523 0.0
H1810 H 0.94089 0.41881 0.46989 0.0
H1811 H 0.98095 0.43235 0.3813 0.0
C1812 C 0.01235 0.44816 0.56546 0.0
C1813 C 0.01061 0.4476 0.62087 0.0
C1814 C -0.00349 0.44259 0.6426 0.0
C1815 C 0.98432 0.43825 0.60956 0.0
C1816 C 0.98644 0.43892 0.55504 0.0
C1817 C 9e-05 0.44364 0.53319 0.0
C1818 C -0.00069 0.44237 0.47362 0.0
C1819 C 0.00811 0.45753 0.44761 0.0
C1820 C 0.00449 0.43186 0.45421 0.0
C1821 C 0.98303 0.43598 0.46525 0.0
C1822 C 0.97583 0.4343 0.51262 0.0
C1823 C 0.96071 0.42835 0.515 0.0
C1824 C 0.9527 0.42374 0.46786 0.0
C1825 C 0.9598 0.42491 0.41902 0.0
C1826 C 0.9752 0.43133 0.41787 0.0
H1827 H 0.55061 0.53479 0.38333 0.0
H1828 H 0.57126 0.51568 0.47743 0.0
H1829 H 0.56181 0.52098 0.55849 0.0
H1830 H 0.5588 0.56397 0.4651 0.0
H1831 H 0.54176 0.56382 0.45587 0.0
H1832 H 0.54845 0.55677 0.40505 0.0
H1833 H 0.52408 0.53193 0.40745 0.0
H1834 H 0.51727 0.53894 0.45825 0.0
H1835 H 0.51769 0.52225 0.46912 0.0
H1836 H 0.55306 0.53153 0.6299 0.0
H1837 H 0.54461 0.54537 0.68468 0.0
H1838 H 0.52896 0.55652 0.54343 0.0
C1839 C 0.55287 0.53142 0.42085 0.0
C1840 C 0.56168 0.52483 0.42389 0.0
C1841 C 0.56448 0.5207 0.47394 0.0
C1842 C 0.55915 0.52365 0.52032 0.0
C1843 C 0.55084 0.53052 0.51602 0.0
C1844 C 0.54753 0.53416 0.46747 0.0
C1845 C 0.53918 0.54228 0.47366 0.0
C1846 C 0.54755 0.55761 0.44845 0.0
C1847 C 0.52363 0.53331 0.45077 0.0
C1848 C 0.53883 0.54317 0.53319 0.0
C1849 C 0.54549 0.53625 0.5571 0.0
C1850 C 0.54753 0.53673 0.61168 0.0
C1851 C 0.54275 0.54464 0.6425 0.0
C1852 C 0.53601 0.55192 0.61851 0.0
C1853 C 0.53383 0.55088 0.56325 0.0
H1854 H 0.4395 0.97343 0.54385 0.0
H1855 H 0.45349 0.00102 0.68346 0.0
H1856 H 0.4668 0.02294 0.62661 0.0
H1857 H 0.47251 0.99548 0.46195 0.0
H1858 H 0.46172 0.99201 0.40289 0.0
H1859 H 0.45542 0.97851 0.45479 0.0
H1860 H 0.43093 0.97868 0.45903 0.0
H1861 H 0.43714 0.9922 0.40748 0.0
H1862 H 0.43127 0.99577 0.46978 0.0
H1863 H 0.47671 0.04184 0.55394 0.0
H1864 H 0.4811 0.05629 0.47262 0.0
H1865 H 0.45932 0.01611 0.38099 0.0
C1866 C 0.44569 0.98403 0.56275 0.0
C1867 C 0.44562 0.98551 0.61822 0.0
C1868 C 0.45351 -0.00037 0.64111 0.0
C1869 C 0.46112 0.01212 0.60912 0.0
C1870 C 0.46067 0.01026 0.55444 0.0
C1871 C 0.45311 0.99655 0.53151 0.0
C1872 C 0.45293 -0.00247 0.47191 0.0
C1873 C 0.46114 0.99046 0.44639 0.0
C1874 C 0.43713 0.99064 0.45085 0.0
C1875 C 0.46121 0.01398 0.46475 0.0
C1876 C 0.46586 0.02112 0.5127 0.0
C1877 C 0.47323 0.03635 0.5162 0.0
C1878 C 0.47567 0.04446 0.46967 0.0
C1879 C 0.47054 0.03733 0.4203 0.0
C1880 C 0.46343 0.02189 0.41797 0.0
H1881 H 0.5408 0.98878 0.58078 0.0
H1882 H 0.5047 0.9518 0.5015 0.0
H1883 H 0.50833 0.96718 0.42374 0.0
H1884 H 0.53406 0.01787 0.5194 0.0
H1885 H 0.55347 0.03059 0.51514 0.0
H1886 H 0.54629 0.01749 0.56833 0.0
H1887 H 0.56402 0.00817 0.54255 0.0
H1888 H 0.57109 0.02104 0.48895 0.0
H1889 H 0.5636 0.00176 0.47622 0.0
H1890 H 0.51909 0.98458 0.34874 0.0
H1891 H 0.53453 0.00414 0.28526 0.0
H1892 H 0.56254 0.03044 0.41375 0.0
C1893 C 0.53331 0.98407 0.54788 0.0
C1894 C 0.52252 0.96906 0.54729 0.0
C1895 C 0.51309 0.96326 0.50299 0.0
C1896 C 0.51503 0.97192 0.45852 0.0
C1897 C 0.52626 0.98646 0.45923 0.0
C1898 C 0.53502 0.99262 0.50319 0.0
C1899 C 0.54708 0.00816 0.49201 0.0
C1900 C 0.5451 0.01918 0.52572 0.0
C1901 C 0.56234 0.00987 0.50042 0.0
C1902 C 0.5442 0.00942 0.43422 0.0
C1903 C 0.53208 0.99681 0.4161 0.0
C1904 C 0.52832 0.9947 0.36271 0.0
C1905 C 0.53718 0.00579 0.32692 0.0
C1906 C 0.54951 0.01884 0.34489 0.0
C1907 C 0.5529 0.02073 0.39927 0.0
H1908 H 0.9819 0.54595 0.35464 0.0
H1909 H 0.94234 0.51919 0.44548 0.0
H1910 H 0.95696 0.52556 0.52698 0.0
H1911 H 0.00574 0.53696 0.43325 0.0
H1912 H 0.02129 0.5552 0.42744 0.0
H1913 H 0.00779 0.54785 0.37557 0.0
H1914 H 0.00402 0.57027 0.38356 0.0
H1915 H 0.01742 0.57763 0.43563 0.0
H1916 H -0.00079 0.57461 0.44664 0.0
H1917 H 0.97543 0.53664 0.59966 0.0
H1918 H -0.00297 0.55019 0.65767 0.0
H1919 H 0.02464 0.56871 0.51959 0.0
C1920 C 0.97634 0.54128 0.39155 0.0
C1921 C 0.96097 0.53209 0.39354 0.0
C1922 C 0.95411 0.52622 0.44277 0.0
C1923 C 0.96231 0.52979 0.48942 0.0
C1924 C 0.97739 0.53908 0.48622 0.0
C1925 C 0.98439 0.54459 0.43854 0.0
C1926 C 0.0007 0.55457 0.44629 0.0
C1927 C 0.00939 0.54826 0.41903 0.0
C1928 C 0.00562 0.57019 0.42689 0.0
C1929 C 0.0017 0.55404 0.5058 0.0
C1930 C 0.98813 0.54508 0.52812 0.0
C1931 C 0.98617 0.54352 0.58266 0.0
C1932 C -0.00154 0.55129 0.61527 0.0
C1933 C 0.0125 0.56036 0.5931 0.0
C1934 C 0.01408 0.56166 0.53765 0.0
H1935 H 0.45808 0.42617 0.4505 0.0
H1936 H 0.46104 0.45347 0.31764 0.0
H1937 H 0.45682 0.4695 0.37743 0.0
H1938 H 0.42849 0.42613 0.50859 0.0
H1939 H 0.43407 0.42632 0.57598 0.0
H1940 H 0.44009 0.41866 0.52506 0.0
H1941 H 0.46713 0.43628 0.55143 0.0
H1942 H 0.46117 0.44404 0.6025 0.0
H1943 H 0.47401 0.45575 0.55314 0.0
H1944 H 0.44965 0.4808 0.4482 0.0
H1945 H 0.43792 0.48553 0.52364 0.0
H1946 H 0.4385 0.45041 0.61117 0.0
C1947 C 0.45825 0.43577 0.43437 0.0
C1948 C 0.46006 0.43873 0.37966 0.0
C1949 C 0.45974 0.45108 0.35952 0.0
C1950 C 0.45747 0.4603 0.39321 0.0
C1951 C 0.45545 0.45695 0.44686 0.0
C1952 C 0.45573 0.44494 0.46738 0.0
C1953 C 0.45135 0.4427 0.52511 0.0
C1954 C 0.43769 0.42756 0.53418 0.0
C1955 C 0.46418 0.44482 0.56011 0.0
C1956 C 0.448 0.45497 0.53323 0.0
C1957 C 0.45081 0.46327 0.48789 0.0
C1958 C 0.44759 0.47453 0.48416 0.0
C1959 C 0.44088 0.47709 0.52723 0.0
C1960 C 0.4373 0.46834 0.57331 0.0
C1961 C 0.44133 0.45743 0.57685 0.0
H1962 H 0.0772 0.29661 0.30597 0.0
H1963 H 0.0945 0.33233 0.19288 0.0
H1964 H 0.10361 0.35017 0.26656 0.0
H1965 H 0.06607 0.31384 0.40656 0.0
H1966 H 0.07151 0.30635 0.46015 0.0
H1967 H 0.06545 0.29654 0.39862 0.0
H1968 H 0.08972 0.29601 0.39166 0.0
H1969 H 0.09589 0.30586 0.45301 0.0
H1970 H 0.10695 0.31299 0.39446 0.0
H1971 H 0.11177 0.36405 0.35311 0.0
H1972 H 0.11871 0.37285 0.44464 0.0
H1973 H 0.09643 0.32786 0.50042 0.0
C1974 C 0.08271 0.30818 0.29652 0.0
C1975 C 0.08505 0.31307 0.24355 0.0
C1976 C 0.09252 0.32832 0.2331 0.0
C1977 C 0.09772 0.33853 0.27471 0.0
C1978 C 0.09538 0.3333 0.32647 0.0
C1979 C 0.08804 0.31848 0.33742 0.0
C1980 C 0.08758 0.31565 0.3962 0.0
C1981 C 0.07171 0.30762 0.41657 0.0
C1982 C 0.09551 0.30713 0.4096 0.0
C1983 C 0.09594 0.33121 0.41678 0.0
C1984 C 0.10025 0.34124 0.37601 0.0
C1985 C 0.10838 0.35628 0.3853 0.0
C1986 C 0.11227 0.36117 0.43752 0.0
C1987 C 0.10812 0.35106 0.4799 0.0
C1988 C 0.09975 0.33589 0.46909 0.0
H1989 H 0.61744 0.75114 0.44726 0.0
H1990 H 0.64794 0.74921 0.55747 0.0
H1991 H 0.66471 0.75259 0.48335 0.0
H1992 H 0.62317 0.73249 0.33821 0.0
H1993 H 0.62199 0.74425 0.28913 0.0
H1994 H 0.61212 0.74086 0.35037 0.0
H1995 H 0.62482 0.76881 0.36819 0.0
H1996 H 0.6346 0.77228 0.30682 0.0
H1997 H 0.64455 0.77957 0.36754 0.0
H1998 H 0.67801 0.7561 0.39625 0.0
H1999 H 0.68809 0.76234 0.30578 0.0
H2000 H 0.64918 0.7631 0.25449 0.0
C2001 C 0.6276 0.75132 0.45582 0.0
C2002 C 0.63136 0.7498 0.50796 0.0
C2003 C 0.64487 0.75037 0.51772 0.0
C2004 C 0.6544 0.75218 0.47587 0.0
C2005 C 0.65028 0.75355 0.42477 0.0
C2006 C 0.63728 0.75334 0.4148 0.0
C2007 C 0.63577 0.75595 0.35702 0.0
C2008 C 0.62247 0.74259 0.33224 0.0
C2009 C 0.63489 0.76999 0.34947 0.0
C2010 C 0.65 0.75776 0.33589 0.0
C2011 C 0.65813 0.7561 0.37532 0.0
C2012 C 0.67174 0.75742 0.36511 0.0
C2013 C 0.67734 0.76089 0.31355 0.0
C2014 C 0.66942 0.76321 0.27316 0.0
C2015 C 0.65548 0.76138 0.28453 0.0
H2016 H 0.21408 0.90274 0.25704 0.0
H2017 H 0.25469 0.92507 0.16817 0.0
H2018 H 0.26813 0.92315 0.24494 0.0
H2019 H 0.22926 0.91997 0.38122 0.0
H2020 H 0.21788 0.90379 0.41966 0.0
H2021 H 0.21138 0.90654 0.35734 0.0
H2022 H 0.20702 0.88139 0.32432 0.0
H2023 H 0.21339 0.8785 0.38667 0.0
H2024 H 0.22188 0.87755 0.32618 0.0
H2025 H 0.27705 0.91849 0.33108 0.0
H2026 H 0.28085 0.91154 0.42026 0.0
H2027 H 0.23454 0.89314 0.45403 0.0
C2028 C 0.22579 0.90714 0.25348 0.0
C2029 C 0.23333 0.914 0.20641 0.0
C2030 C 0.24868 0.91975 0.20373 0.0
C2031 C 0.2564 0.91872 0.24715 0.0
C2032 C 0.24864 0.91202 0.29308 0.0
C2033 C 0.23368 0.90635 0.29655 0.0
C2034 C 0.22796 0.89986 0.35064 0.0
C2035 C 0.22122 0.90803 0.37887 0.0
C2036 C 0.21691 0.88335 0.3467 0.0
C2037 C 0.24204 0.90272 0.37708 0.0
C2038 C 0.25383 0.9097 0.34313 0.0
C2039 C 0.26791 0.91309 0.35807 0.0
C2040 C 0.26995 0.9091 0.40882 0.0
C2041 C 0.25802 0.90189 0.44423 0.0
C2042 C 0.24392 0.89882 0.42815 0.0
H2043 H 0.3191 0.09237 0.547 0.0
H2044 H 0.36358 0.10787 0.60108 0.0
H2045 H 0.35444 0.10019 0.6918 0.0
H2046 H 0.30736 0.10411 0.65685 0.0
H2047 H 0.28911 0.08843 0.65815 0.0
H2048 H 0.29903 0.09419 0.59688 0.0
H2049 H 0.29557 0.06824 0.58369 0.0
H2050 H 0.28559 0.06239 0.64494 0.0
H2051 H 0.30143 0.06038 0.63473 0.0
H2052 H 0.34063 0.09285 0.77833 0.0
H2053 H 0.32301 0.08529 0.85253 0.0
H2054 H 0.28764 0.07378 0.7409 0.0
C2055 C 0.32691 0.09398 0.57774 0.0
C2056 C 0.34206 0.10073 0.56682 0.0
C2057 C 0.35191 0.10268 0.60834 0.0
C2058 C 0.34683 0.09836 0.66008 0.0
C2059 C 0.33185 0.09195 0.66964 0.0
C2060 C 0.32202 0.08963 0.62951 0.0
C2061 C 0.30653 0.08293 0.65045 0.0
C2062 C 0.30014 0.09302 0.63996 0.0
C2063 C 0.2967 0.06757 0.62706 0.0
C2064 C 0.30922 0.08214 0.70873 0.0
C2065 C 0.32388 0.08738 0.71912 0.0
C2066 C 0.32908 0.08851 0.77057 0.0
C2067 C 0.31902 0.08423 0.81246 0.0
C2068 C 0.30394 0.0788 0.80251 0.0
C2069 C 0.29905 0.07763 0.74984 0.0
H2070 H 0.89776 0.2246 0.80502 0.0
H2071 H 0.94123 0.26282 0.81794 0.0
H2072 H 0.93767 0.27179 0.73224 0.0
H2073 H 0.89958 0.21875 0.66974 0.0
H2074 H 0.88066 0.21296 0.65618 0.0
H2075 H 0.88597 0.21022 0.7208 0.0
H2076 H 0.87451 0.22459 0.76295 0.0
H2077 H 0.86898 0.22722 0.69847 0.0
H2078 H 0.88005 0.24283 0.73995 0.0
H2079 H 0.93 0.2757 0.64213 0.0
H2080 H 0.91837 0.27482 0.55651 0.0
H2081 H 0.88011 0.2338 0.60242 0.0
C2082 C 0.90643 0.23502 0.79049 0.0
C2083 C 0.91976 0.24305 0.81843 0.0
C2084 C 0.9309 0.25651 0.79741 0.0
C2085 C 0.92899 0.26168 0.7487 0.0
C2086 C 0.91588 0.25327 0.72151 0.0
C2087 C 0.90475 0.24029 0.74186 0.0
C2088 C 0.892 0.23297 0.70374 0.0
C2089 C 0.88941 0.21783 0.68661 0.0
C2090 C 0.87806 0.23184 0.72771 0.0
C2091 C 0.89776 0.24379 0.65851 0.0
C2092 C 0.91153 0.25545 0.66954 0.0
C2093 C 0.91917 0.26667 0.63323 0.0
C2094 C 0.91249 0.26604 0.5846 0.0
C2095 C 0.89832 0.25425 0.57265 0.0
C2096 C 0.89094 0.24297 0.61024 0.0
H2097 H 0.773 0.66605 0.81165 0.0
H2098 H 0.77167 0.70555 0.7736 0.0
H2099 H 0.76062 0.69504 0.68737 0.0
H2100 H 0.7827 0.65993 0.6856 0.0
H2101 H 0.77137 0.64026 0.68749 0.0
H2102 H 0.77824 0.65041 0.74794 0.0
H2103 H 0.75174 0.63891 0.7841 0.0
H2104 H 0.74479 0.62866 0.72375 0.0
H2105 H 0.73807 0.64045 0.74632 0.0
H2106 H 0.7521 0.68136 0.6016 0.0
H2107 H 0.74506 0.66458 0.52499 0.0
H2108 H 0.75065 0.63351 0.6203 0.0
C2109 C 0.7702 0.6724 0.7855 0.0
C2110 C 0.77324 0.68664 0.7995 0.0
C2111 C 0.76942 0.6946 0.76399 0.0
C2112 C 0.76314 0.68874 0.71479 0.0
C2113 C 0.76053 0.6748 0.70183 0.0
C2114 C 0.76375 0.66664 0.73639 0.0
C2115 C 0.76015 0.65206 0.7122 0.0
C2116 C 0.77394 0.65059 0.70806 0.0
C2117 C 0.74796 0.63926 0.74346 0.0
C2118 C 0.75479 0.65349 0.65823 0.0
C2119 C 0.7551 0.66669 0.65299 0.0
C2120 C 0.75156 0.67088 0.6055 0.0
C2121 C 0.74763 0.66132 0.56219 0.0
C2122 C 0.74714 0.64769 0.5669 0.0
C2123 C 0.75064 0.64373 0.61577 0.0
H2124 H 0.87315 0.64628 0.53807 0.0
H2125 H 0.91055 0.6395 0.5363 0.0
H2126 H 0.91908 0.65288 0.62072 0.0
H2127 H 0.89191 0.68292 0.59708 0.0
H2128 H 0.87618 0.67952 0.63592 0.0
H2129 H 0.8737 0.67037 0.57348 0.0
H2130 H 0.8583 0.64527 0.61972 0.0
H2131 H 0.86087 0.65431 0.68236 0.0
H2132 H 0.86609 0.64053 0.67438 0.0
H2133 H 0.92278 0.66582 0.70791 0.0
H2134 H 0.92185 0.6781 0.78966 0.0
H2135 H 0.88183 0.67609 0.73476 0.0
C2136 C 0.88329 0.64783 0.55487 0.0
C2137 C 0.89123 0.64189 0.53036 0.0
C2138 C 0.90431 0.64398 0.5542 0.0
C2139 C 0.90923 0.65156 0.6022 0.0
C2140 C 0.90096 0.65697 0.62589 0.0
C2141 C 0.88831 0.65529 0.60286 0.0
C2142 C 0.88112 0.66165 0.63739 0.0
C2143 C 0.88071 0.67437 0.60929 0.0
C2144 C 0.86568 0.64972 0.65447 0.0
C2145 C 0.89162 0.66706 0.68368 0.0
C2146 C 0.90301 0.6643 0.67624 0.0
C2147 C 0.91395 0.66811 0.71402 0.0
C2148 C 0.9133 0.67505 0.76043 0.0
C2149 C 0.90177 0.67807 0.76874 0.0
C2150 C 0.89079 0.67395 0.72973 0.0
H2151 H 0.30532 0.21453 0.74849 0.0
H2152 H 0.32238 0.25631 0.829 0.0
H2153 H 0.33734 0.26893 0.75046 0.0
H2154 H 0.33852 0.22253 0.68042 0.0
H2155 H 0.32909 0.21288 0.62134 0.0
H2156 H 0.32007 0.20723 0.68438 0.0
H2157 H 0.29857 0.21005 0.64863 0.0
H2158 H 0.30757 0.21584 0.58561 0.0
H2159 H 0.30228 0.22733 0.62086 0.0
H2160 H 0.35067 0.2769 0.6633 0.0
H2161 H 0.36134 0.27965 0.57432 0.0
H2162 H 0.33468 0.23272 0.5497 0.0
C2163 C 0.31228 0.22633 0.74989 0.0
C2164 C 0.31274 0.23443 0.79509 0.0
C2165 C 0.32188 0.24987 0.79491 0.0
C2166 C 0.3304 0.25713 0.75046 0.0
C2167 C 0.32955 0.24881 0.70637 0.0
C2168 C 0.32072 0.23375 0.70575 0.0
C2169 C 0.32161 0.22736 0.65322 0.0
C2170 C 0.32769 0.21688 0.66028 0.0
C2171 C 0.30661 0.21969 0.62545 0.0
C2172 C 0.33239 0.24118 0.62435 0.0
C2173 C 0.33688 0.25343 0.65575 0.0
C2174 C 0.34717 0.2674 0.63828 0.0
C2175 C 0.35316 0.26885 0.58767 0.0
C2176 C 0.34875 0.25643 0.55491 0.0
C2177 C 0.33809 0.24245 0.57346 0.0
H2178 H 0.76862 0.08387 0.78513 0.0
H2179 H 0.73097 0.04213 0.82866 0.0
H2180 H 0.71807 0.04284 0.74816 0.0
H2181 H 0.74832 0.10015 0.72793 0.0
H2182 H 0.76155 0.10916 0.67607 0.0
H2183 H 0.76732 0.10573 0.73878 0.0
H2184 H 0.77858 0.09189 0.69123 0.0
H2185 H 0.77273 0.09515 0.62844 0.0
H2186 H 0.76722 0.07669 0.64848 0.0
H2187 H 0.70964 0.04778 0.66071 0.0
H2188 H 0.70628 0.05669 0.5745 0.0
H2189 H 0.74978 0.09484 0.58791 0.0
C2190 C 0.75757 0.07497 0.77827 0.0
C2191 C 0.75078 0.06297 0.81346 0.0
C2192 C 0.73639 0.05146 0.80245 0.0
C2193 C 0.72897 0.05176 0.75678 0.0
C2194 C 0.73611 0.06363 0.72245 0.0
C2195 C 0.75008 0.07504 0.7328 0.0
C2196 C 0.75554 0.08627 0.68879 0.0
C2197 C 0.75834 0.10121 0.70912 0.0
C2198 C 0.76933 0.08757 0.6627 0.0
C2199 C 0.74253 0.07934 0.65178 0.0
C2200 C 0.73139 0.06633 0.67195 0.0
C2201 C 0.71829 0.05797 0.64462 0.0
C2202 C 0.71649 0.06312 0.59561 0.0
C2203 C 0.72777 0.07644 0.57425 0.0
C2204 C 0.74096 0.08458 0.60288 0.0
H2205 H 0.6795 0.90273 0.20594 0.0
H2206 H 0.70758 0.94964 0.22638 0.0
H2207 H 0.69568 0.94824 0.31185 0.0
H2208 H 0.64645 0.89945 0.27053 0.0
H2209 H 0.64183 0.88222 0.30115 0.0
H2210 H 0.65134 0.88716 0.23882 0.0
H2211 H 0.67188 0.88348 0.279 0.0
H2212 H 0.66254 0.8787 0.34158 0.0
H2213 H 0.68125 0.89347 0.33766 0.0
H2214 H 0.6821 0.94162 0.3975 0.0
H2215 H 0.66744 0.93031 0.47744 0.0
H2216 H 0.64856 0.88743 0.40366 0.0
C2217 C 0.68284 0.91276 0.22773 0.0
C2218 C 0.69434 0.92634 0.20919 0.0
C2219 C 0.69872 0.93915 0.23964 0.0
C2220 C 0.69203 0.93846 0.28824 0.0
C2221 C 0.68103 0.92486 0.30612 0.0
C2222 C 0.6764 0.91223 0.27679 0.0
C2223 C 0.66506 0.89888 0.30684 0.0
C2224 C 0.65029 0.89149 0.27759 0.0
C2225 C 0.67051 0.88799 0.31685 0.0
C2226 C 0.66417 0.90596 0.35783 0.0
C2227 C 0.67341 0.92097 0.35632 0.0
C2228 C 0.67475 0.92989 0.39901 0.0
C2229 C 0.66639 0.92334 0.44437 0.0
C2230 C 0.65683 0.90797 0.44704 0.0
C2231 C 0.65576 0.8992 0.40299 0.0
H2232 H 0.11738 0.75978 0.44895 0.0
H2233 H 0.07803 0.74055 0.54528 0.0
H2234 H 0.0638 0.74124 0.46893 0.0
H2235 H 0.10942 0.78403 0.37339 0.0
H2236 H 0.11689 0.78142 0.31304 0.0
H2237 H 0.12397 0.77973 0.37571 0.0
H2238 H 0.11849 0.75366 0.3498 0.0
H2239 H 0.11124 0.75522 0.28726 0.0
H2240 H 0.10015 0.74009 0.33055 0.0
H2241 H 0.0539 0.74423 0.38226 0.0
H2242 H 0.04911 0.74959 0.29187 0.0
H2243 H 0.09471 0.76593 0.25113 0.0
C2244 C 0.10579 0.75584 0.4542 0.0
C2245 C 0.09883 0.75018 0.50325 0.0
C2246 C 0.08361 0.74497 0.50817 0.0
C2247 C 0.07543 0.74528 0.46499 0.0
C2248 C 0.0826 0.75074 0.41705 0.0
C2249 C 0.09744 0.75594 0.4114 0.0
C2250 C 0.10246 0.76108 0.35544 0.0
C2251 C 0.11386 0.77754 0.35435 0.0
C2252 C 0.10844 0.75196 0.32923 0.0
C2253 C 0.08813 0.75803 0.33051 0.0
C2254 C 0.07682 0.75209 0.36676 0.0
C2255 C 0.06266 0.74879 0.35347 0.0
C2256 C 0.06004 0.75186 0.30202 0.0
C2257 C 0.07149 0.75805 0.26433 0.0
C2258 C 0.08567 0.76097 0.27877 0.0
H2259 H 0.2017 0.32343 0.22426 0.0
H2260 H 0.23632 0.31273 0.20811 0.0
H2261 H 0.24692 0.32513 0.29293 0.0
H2262 H 0.22412 0.35943 0.2869 0.0
H2263 H 0.20937 0.35702 0.32948 0.0
H2264 H 0.20537 0.34845 0.26541 0.0
H2265 H 0.1887 0.3232 0.30912 0.0
H2266 H 0.19277 0.33165 0.37332 0.0
H2267 H 0.19615 0.31679 0.35982 0.0
H2268 H 0.25266 0.33716 0.38291 0.0
H2269 H 0.25373 0.34881 0.46872 0.0
H2270 H 0.21519 0.35139 0.42557 0.0
C2271 C 0.21167 0.32392 0.23794 0.0
C2272 C 0.2182 0.31713 0.20936 0.0
C2273 C 0.23115 0.3179 0.22913 0.0
C2274 C 0.23724 0.3249 0.27734 0.0
C2275 C 0.23029 0.33113 0.30517 0.0
C2276 C 0.21786 0.33082 0.28591 0.0
C2277 C 0.21214 0.33779 0.32433 0.0
C2278 C 0.21279 0.35148 0.30008 0.0
C2279 C 0.19652 0.32669 0.34273 0.0
C2280 C 0.22311 0.34183 0.36871 0.0
C2281 C 0.23354 0.33797 0.35686 0.0
C2282 C 0.24461 0.34033 0.39241 0.0
C2283 C 0.2451 0.34691 0.44115 0.0
C2284 C 0.23455 0.35103 0.45398 0.0
C2285 C 0.22343 0.3484 0.41707 0.0
H2286 H 0.01287 0.44589 0.91077 0.0
H2287 H 0.01661 0.40667 0.90965 0.0
H2288 H 0.00477 0.39987 0.99729 0.0
H2289 H 0.02038 0.45393 0.04936 0.0
H2290 H 0.00745 0.46026 0.0568 0.0
H2291 H 0.0163 0.46209 0.99418 0.0
H2292 H 0.99097 0.44778 0.94832 0.0
H2293 H 0.98205 0.44601 0.01069 0.0
H2294 H 0.97768 0.42989 0.97251 0.0
H2295 H 0.99196 0.39709 0.08448 0.0
H2296 H 0.97871 0.3983 0.16314 0.0
H2297 H 0.98396 0.43963 0.10745 0.0
C2298 C 0.01119 0.43584 0.92881 0.0
C2299 C 0.01565 0.42679 0.9032 0.0
C2300 C 0.01328 0.41378 0.92841 0.0
C2301 C 0.0066 0.40984 0.97828 0.0
C2302 C 0.00242 0.41906 1.00252 0.0
C2303 C 0.00461 0.43179 0.97859 0.0
C2304 C -0.00102 0.43973 0.01266 0.0
C2305 C 0.01153 0.4549 0.02923 0.0
C2306 C 0.98669 0.44091 0.98436 0.0
C2307 C 0.99313 0.4294 0.05932 0.0
C2308 C 0.99525 0.41757 0.05286 0.0
C2309 C 0.99032 0.40635 0.0901 0.0
C2310 C 0.98282 0.40715 0.13468 0.0
C2311 C 0.98036 0.41909 0.14167 0.0
C2312 C 0.9858 0.43043 0.10369 0.0
H2313 H 0.58244 0.5431 0.05792 0.0
H2314 H 0.55877 0.5543 0.17158 0.0
H2315 H 0.54967 0.56331 0.0989 0.0
H2316 H 0.5931 0.57397 0.97058 0.0
H2317 H 0.59069 0.56337 0.91173 0.0
H2318 H 0.59568 0.55831 0.97289 0.0
H2319 H 0.57314 0.53218 0.96513 0.0
H2320 H 0.56806 0.53717 0.90402 0.0
H2321 H 0.55513 0.52998 0.9577 0.0
H2322 H 0.54272 0.57056 0.01315 0.0
H2323 H 0.53832 0.57535 0.92154 0.0
H2324 H 0.56647 0.55916 0.86429 0.0
C2325 C 0.57543 0.54754 0.06774 0.0
C2326 C 0.57136 0.54803 0.12057 0.0
C2327 C 0.56206 0.55384 0.13147 0.0
C2328 C 0.55685 0.55899 0.09044 0.0
C2329 C 0.56102 0.55825 0.03878 0.0
C2330 C 0.57011 0.55267 0.02737 0.0
C2331 C 0.5727 0.55275 0.96852 0.0
C2332 C 0.58901 0.56269 0.95516 0.0
C2333 C 0.56691 0.53709 0.94763 0.0
C2334 C 0.56359 0.55919 0.94843 0.0
C2335 C 0.55697 0.56233 0.98957 0.0
C2336 C 0.54788 0.56819 0.98068 0.0
C2337 C 0.54545 0.57086 0.92842 0.0
C2338 C 0.55206 0.56765 0.88557 0.0
C2339 C 0.56128 0.56178 0.89604 0.0
H2340 H 0.44837 0.04034 0.05995 0.0
H2341 H 0.436 0.00498 0.17241 0.0
H2342 H 0.4276 0.98716 0.09876 0.0
H2343 H 0.41842 0.02036 0.96715 0.0
H2344 H 0.42984 0.02891 0.91032 0.0
H2345 H 0.43394 0.03864 0.97212 0.0
H2346 H 0.46022 0.04245 0.96958 0.0
H2347 H 0.45619 0.03268 0.90795 0.0
H2348 H 0.46265 0.02675 0.96332 0.0
H2349 H 0.42159 0.9734 0.01216 0.0
H2350 H 0.41848 0.96473 0.92005 0.0
H2351 H 0.43513 0.00928 0.86456 0.0
C2352 C 0.44372 0.02883 0.06932 0.0
C2353 C 0.44278 0.02405 0.12208 0.0
C2354 C 0.43678 0.0089 0.13237 0.0
C2355 C 0.43198 -0.0013 0.09078 0.0
C2356 C 0.43325 0.00384 0.0392 0.0
C2357 C 0.43895 0.01855 0.0284 0.0
C2358 C 0.43971 0.02135 0.96952 0.0
C2359 C 0.42989 0.02769 0.95387 0.0
C2360 C 0.45564 0.0314 0.95156 0.0
C2361 C 0.43367 0.00592 0.94869 0.0
C2362 C 0.42993 0.99596 0.98949 0.0
C2363 C 0.42441 0.98109 0.97995 0.0
C2364 C 0.4227 0.97628 0.92741 0.0
C2365 C 0.42654 0.98631 0.8849 0.0
C2366 C 0.43203 0.00131 0.89601 0.0
H2367 H 0.53076 0.97485 0.87925 0.0
H2368 H 0.57014 0.98762 0.78748 0.0
H2369 H 0.58521 0.00315 0.86147 0.0
H2370 H 0.54273 0.00965 0.94107 0.0
H2371 H 0.53414 0.00182 0.00341 0.0
H2372 H 0.52654 0.99175 0.94321 0.0
H2373 H 0.52829 0.96986 0.98129 0.0
H2374 H 0.536 0.9799 0.04151 0.0
H2375 H 0.5457 0.97274 0.00475 0.0
H2376 H 0.59595 0.01777 0.94479 0.0
H2377 H 0.60154 0.03041 0.03097 0.0
H2378 H 0.55518 0.00742 0.0694 0.0
C2379 C 0.54255 0.98095 0.87454 0.0
C2380 C 0.54926 0.98005 0.82739 0.0
C2381 C 0.56474 0.98813 0.82313 0.0
C2382 C 0.5734 -0.00303 0.86499 0.0
C2383 C 0.56643 -0.00248 0.91099 0.0
C2384 C 0.55135 0.98971 0.91603 0.0
C2385 C 0.54657 0.99219 0.96963 0.0
C2386 C 0.53693 -0.00072 0.96397 0.0
C2387 C 0.53867 0.97782 1.00115 0.0
C2388 C 0.5613 0.00274 0.99384 0.0
C2389 C 0.57262 0.00567 0.95937 0.0
C2390 C 0.58718 0.01548 0.97222 0.0
C2391 C 0.59025 0.0226 0.02129 0.0
C2392 C 0.57882 0.01984 0.05712 0.0
C2393 C 0.56418 0.00962 0.04325 0.0
H2394 H 0.03188 0.57105 0.9386 0.0
H2395 H 0.00788 0.5876 0.85058 0.0
H2396 H 0.99157 0.5828 0.92749 0.0
H2397 H 0.00076 0.54152 0.99743 0.0
H2398 H 0.0097 0.54253 0.05923 0.0
H2399 H 0.02028 0.54864 0.9994 0.0
H2400 H 0.03711 0.57404 0.04192 0.0
H2401 H 0.02654 0.56801 0.10191 0.0
H2402 H 0.02913 0.58429 0.06891 0.0
H2403 H 0.97757 0.57557 0.01342 0.0
H2404 H 0.96547 0.56443 0.09788 0.0
H2405 H -0.00209 0.55136 0.12751 0.0
C2406 C 0.02334 0.57388 0.93577 0.0
C2407 C 0.02123 0.57986 0.88889 0.0
C2408 C 0.0097 0.58307 0.88624 0.0
C2409 C 0.00045 0.58045 0.92978 0.0
C2410 C 0.0028 0.57447 0.97536 0.0
C2411 C 0.01388 0.57111 0.97842 0.0
C2412 C 0.01339 0.56371 0.03025 0.0
C2413 C 0.01088 0.54818 0.021 0.0
C2414 C 0.02738 0.57308 0.06266 0.0
C2415 C 0.00019 0.56328 0.05576 0.0
C2416 C 0.99439 0.56977 0.02387 0.0
C2417 C 0.98204 0.5705 0.03873 0.0
C2418 C 0.97527 0.56417 0.08691 0.0
C2419 C 0.98073 0.557 0.11935 0.0
C2420 C 0.99348 0.55677 0.10369 0.0
H2421 H 0.43709 0.40448 0.02831 0.0
H2422 H 0.44017 0.43837 0.13409 0.0
H2423 H 0.43424 0.44975 0.06026 0.0
H2424 H 0.45329 0.42729 0.91638 0.0
H2425 H 0.44129 0.4139 0.86893 0.0
H2426 H 0.44527 0.408 0.93034 0.0
H2427 H 0.41751 0.39262 0.95092 0.0
H2428 H 0.41343 0.39838 0.88936 0.0
H2429 H 0.40651 0.40134 0.95042 0.0
H2430 H 0.42933 0.45821 0.97479 0.0
H2431 H 0.42408 0.46241 0.88387 0.0
H2432 H 0.42346 0.42272 0.83299 0.0
C2433 C 0.4364 0.41422 0.03607 0.0
C2434 C 0.43912 0.42054 0.08707 0.0
C2435 C 0.4381 0.4333 0.09549 0.0
C2436 C 0.43478 0.43987 0.05375 0.0
C2437 C 0.43238 0.4335 0.0039 0.0
C2438 C 0.43299 0.42088 0.9949 0.0
C2439 C 0.42998 0.41632 0.93739 0.0
C2440 C 0.44325 0.41639 0.91176 0.0
C2441 C 0.41603 0.40127 0.93171 0.0
C2442 C 0.42776 0.42845 0.91539 0.0
C2443 C 0.42924 0.43825 0.9545 0.0
C2444 C 0.42804 0.45056 0.94387 0.0
C2445 C 0.4251 0.45286 0.89196 0.0
C2446 C 0.42331 0.44287 0.85117 0.0
C2447 C 0.42469 0.43051 0.86325 0.0
loop_
_geom_bond_atom_site_label_1
_geom_bond_atom_site_label_2
_geom_bond_distance
_geom_bond_site_symmetry_2
_ccdc_geom_bond_type
Zn0 O3 2.031 . S
Zn0 O5 2.049 1_556 S
Zn0 O10 2.067 . S
Zn1 O2 1.962 . S
Zn1 O4 1.986 . S
Zn1 O6 1.996 . S
Zn1 O9 1.943 . S
O2 Zn1 1.962 . S
O2 C7 1.254 . S
O3 Zn0 2.031 . S
O3 C7 1.269 1_556 S
O4 Zn1 1.986 . S
O4 C11 1.262 . S
O5 Zn0 2.049 1_554 S
O5 C13 1.260 . S
O6 Zn1 1.996 . S
O6 C13 1.257 . S
C7 O2 1.254 . S
C7 O3 1.269 1_554 S
C8 O9 1.249 1_556 S
C8 O10 1.270 . S
O9 Zn1 1.943 . S
O9 C8 1.249 1_554 S
O10 Zn0 2.067 . S
O10 C8 1.270 . S
C11 O4 1.262 . S
C11 O12 1.232 . S
O12 C11 1.232 . S
C13 O5 1.260 . S
C13 O6 1.257 . S
Zn14 O17 2.031 . S
Zn14 O19 2.049 1_556 S
Zn14 O24 2.067 . S
Zn15 O16 1.962 . S
Zn15 O18 1.986 . S
Zn15 O20 1.996 . S
Zn15 O23 1.943 . S
O16 Zn15 1.962 . S
O16 C21 1.254 . S
O17 Zn14 2.031 . S
O17 C21 1.269 1_556 S
O18 Zn15 1.986 . S
O18 C25 1.262 . S
O19 Zn14 2.049 1_554 S
O19 C27 1.260 . S
O20 Zn15 1.996 . S
O20 C27 1.257 . S
C21 O16 1.254 . S
C21 O17 1.269 1_554 S
C22 O23 1.249 1_556 S
C22 O24 1.270 . S
O23 Zn15 1.943 . S
O23 C22 1.249 1_554 S
O24 Zn14 2.067 . S
O24 C22 1.270 . S
C25 O18 1.262 . S
C25 O26 1.232 . S
O26 C25 1.232 . S
C27 O19 1.260 . S
C27 O20 1.257 . S
Zn28 O31 2.032 . S
Zn28 O33 2.049 1_556 S
Zn28 O38 2.067 . S
Zn29 O30 1.962 . S
Zn29 O32 1.986 . S
Zn29 O34 1.996 . S
Zn29 O37 1.943 . S
O30 Zn29 1.962 . S
O30 C35 1.254 . S
O31 Zn28 2.032 . S
O31 C35 1.268 1_556 S
O32 Zn29 1.986 . S
O32 C39 1.262 . S
O33 Zn28 2.049 1_554 S
O33 C41 1.260 . S
O34 Zn29 1.996 . S
O34 C41 1.257 . S
C35 O30 1.254 . S
C35 O31 1.268 1_554 S
C36 O37 1.249 1_556 S
C36 O38 1.270 . S
O37 Zn29 1.943 . S
O37 C36 1.249 1_554 S
O38 Zn28 2.067 . S
O38 C36 1.270 . S
C39 O32 1.262 . S
C39 O40 1.232 . S
O40 C39 1.232 . S
C41 O33 1.260 . S
C41 O34 1.257 . S
Zn42 O45 2.031 . S
Zn42 O47 2.049 1_554 S
Zn42 O52 2.067 . S
Zn43 O44 1.962 . S
Zn43 O46 1.986 . S
Zn43 O48 1.996 . S
Zn43 O51 1.943 . S
O44 Zn43 1.962 . S
O44 C49 1.254 . S
O45 Zn42 2.031 . S
O45 C49 1.269 1_554 S
O46 Zn43 1.986 . S
O46 C53 1.262 . S
O47 Zn42 2.049 1_556 S
O47 C55 1.260 . S
O48 Zn43 1.996 . S
O48 C55 1.257 . S
C49 O44 1.254 . S
C49 O45 1.269 1_556 S
C50 O51 1.249 1_554 S
C50 O52 1.270 . S
O51 Zn43 1.943 . S
O51 C50 1.249 1_556 S
O52 Zn42 2.067 . S
O52 C50 1.270 . S
C53 O46 1.262 . S
C53 O54 1.232 . S
O54 C53 1.232 . S
C55 O47 1.260 . S
C55 O48 1.257 . S
Zn56 O59 2.032 . S
Zn56 O61 2.049 1_554 S
Zn56 O66 2.067 . S
Zn57 O58 1.962 . S
Zn57 O60 1.986 . S
Zn57 O62 1.996 . S
Zn57 O65 1.943 . S
O58 Zn57 1.962 . S
O58 C63 1.254 . S
O59 Zn56 2.032 . S
O59 C63 1.268 1_554 S
O60 Zn57 1.986 . S
O60 C67 1.262 . S
O61 Zn56 2.049 1_556 S
O61 C69 1.260 . S
O62 Zn57 1.996 . S
O62 C69 1.257 . S
C63 O58 1.254 . S
C63 O59 1.268 1_556 S
C64 O65 1.249 1_554 S
C64 O66 1.270 . S
O65 Zn57 1.943 . S
O65 C64 1.249 1_556 S
O66 Zn56 2.067 . S
O66 C64 1.270 . S
C67 O60 1.262 . S
C67 O68 1.232 . S
O68 C67 1.232 . S
C69 O61 1.260 . S
C69 O62 1.257 . S
Zn70 O73 2.031 . S
Zn70 O75 2.049 1_554 S
Zn70 O80 2.067 . S
Zn71 O72 1.962 . S
Zn71 O74 1.986 . S
Zn71 O76 1.996 . S
Zn71 O79 1.943 . S
O72 Zn71 1.962 . S
O72 C77 1.254 . S
O73 Zn70 2.031 . S
O73 C77 1.269 1_554 S
O74 Zn71 1.986 . S
O74 C81 1.262 . S
O75 Zn70 2.049 1_556 S
O75 C83 1.260 . S
O76 Zn71 1.996 . S
O76 C83 1.257 . S
C77 O72 1.254 . S
C77 O73 1.269 1_556 S
C78 O79 1.249 1_554 S
C78 O80 1.270 . S
O79 Zn71 1.943 . S
O79 C78 1.249 1_556 S
O80 Zn70 2.067 . S
O80 C78 1.270 . S
C81 O74 1.262 . S
C81 O82 1.232 . S
O82 C81 1.232 . S
C83 O75 1.260 . S
C83 O76 1.257 . S
Zn84 O87 2.031 . S
Zn84 O89 2.049 1_554 S
Zn84 O94 2.067 . S
Zn85 O86 1.962 . S
Zn85 O88 1.986 . S
Zn85 O90 1.996 . S
Zn85 O93 1.943 . S
O86 Zn85 1.962 . S
O86 C91 1.254 . S
O87 Zn84 2.031 . S
O87 C91 1.269 1_554 S
O88 Zn85 1.986 . S
O88 C95 1.262 . S
O89 Zn84 2.049 1_556 S
O89 C97 1.260 . S
O90 Zn85 1.996 . S
O90 C97 1.257 . S
C91 O86 1.254 . S
C91 O87 1.269 1_556 S
C92 O93 1.249 1_554 S
C92 O94 1.270 . S
O93 Zn85 1.943 . S
O93 C92 1.249 1_556 S
O94 Zn84 2.067 . S
O94 C92 1.270 . S
C95 O88 1.262 . S
C95 O96 1.232 . S
O96 C95 1.232 . S
C97 O89 1.260 . S
C97 O90 1.257 . S
Zn98 O101 2.031 . S
Zn98 O103 2.049 1_554 S
Zn98 O108 2.067 . S
Zn99 O100 1.962 . S
Zn99 O102 1.986 . S
Zn99 O104 1.996 . S
Zn99 O107 1.943 . S
O100 Zn99 1.962 . S
O100 C105 1.254 . S
O101 Zn98 2.031 . S
O101 C105 1.269 1_554 S
O102 Zn99 1.986 . S
O102 C109 1.262 . S
O103 Zn98 2.049 1_556 S
O103 C111 1.260 . S
O104 Zn99 1.996 . S
O104 C111 1.257 . S
C105 O100 1.254 . S
C105 O101 1.269 1_556 S
C106 O107 1.249 1_554 S
C106 O108 1.270 . S
O107 Zn99 1.943 . S
O107 C106 1.249 1_556 S
O108 Zn98 2.067 . S
O108 C106 1.270 . S
C109 O102 1.262 . S
C109 O110 1.232 . S
O110 C109 1.232 . S
C111 O103 1.260 . S
C111 O104 1.257 . S
Zn112 O115 2.032 . S
Zn112 O117 2.049 1_554 S
Zn112 O122 2.067 . S
Zn113 O114 1.962 . S
Zn113 O116 1.986 . S
Zn113 O118 1.996 . S
Zn113 O121 1.943 . S
O114 Zn113 1.962 . S
O114 C119 1.254 . S
O115 Zn112 2.032 . S
O115 C119 1.268 1_554 S
O116 Zn113 1.986 . S
O116 C123 1.262 . S
O117 Zn112 2.049 1_556 S
O117 C125 1.260 . S
O118 Zn113 1.996 . S
O118 C125 1.257 . S
C119 O114 1.254 . S
C119 O115 1.268 1_556 S
C120 O121 1.249 1_554 S
C120 O122 1.270 . S
O121 Zn113 1.943 . S
O121 C120 1.249 1_556 S
O122 Zn112 2.067 . S
O122 C120 1.270 . S
C123 O116 1.262 . S
C123 O124 1.232 . S
O124 C123 1.232 . S
C125 O117 1.260 . S
C125 O118 1.257 . S
Zn126 O129 2.031 . S
Zn126 O131 2.049 1_556 S
Zn126 O136 2.067 . S
Zn127 O128 1.962 . S
Zn127 O130 1.986 . S
Zn127 O132 1.996 . S
Zn127 O135 1.943 . S
O128 Zn127 1.962 . S
O128 C133 1.254 . S
O129 Zn126 2.031 . S
O129 C133 1.269 1_556 S
O130 Zn127 1.986 . S
O130 C137 1.262 . S
O131 Zn126 2.049 1_554 S
O131 C139 1.260 . S
O132 Zn127 1.996 . S
O132 C139 1.257 . S
C133 O128 1.254 . S
C133 O129 1.269 1_554 S
C134 O135 1.249 1_556 S
C134 O136 1.270 . S
O135 Zn127 1.943 . S
O135 C134 1.249 1_554 S
O136 Zn126 2.067 . S
O136 C134 1.270 . S
C137 O130 1.262 . S
C137 O138 1.232 . S
O138 C137 1.232 . S
C139 O131 1.260 . S
C139 O132 1.257 . S
Zn140 O143 2.032 . S
Zn140 O145 2.049 1_556 S
Zn140 O150 2.067 . S
Zn141 O142 1.962 . S
Zn141 O144 1.986 . S
Zn141 O146 1.996 . S
Zn141 O149 1.943 . S
O142 Zn141 1.962 . S
O142 C147 1.254 . S
O143 Zn140 2.032 . S
O143 C147 1.268 1_556 S
O144 Zn141 1.986 . S
O144 C151 1.262 . S
O145 Zn140 2.049 1_554 S
O145 C153 1.260 . S
O146 Zn141 1.996 . S
O146 C153 1.257 . S
C147 O142 1.254 . S
C147 O143 1.268 1_554 S
C148 O149 1.249 1_556 S
C148 O150 1.270 . S
O149 Zn141 1.943 . S
O149 C148 1.249 1_554 S
O150 Zn140 2.067 . S
O150 C148 1.270 . S
C151 O144 1.262 . S
C151 O152 1.232 . S
O152 C151 1.232 . S
C153 O145 1.260 . S
C153 O146 1.257 . S
Zn154 O157 2.031 . S
Zn154 O159 2.049 1_556 S
Zn154 O164 2.067 . S
Zn155 O156 1.962 . S
Zn155 O158 1.986 . S
Zn155 O160 1.996 . S
Zn155 O163 1.943 . S
O156 Zn155 1.962 . S
O156 C161 1.254 . S
O157 Zn154 2.031 . S
O157 C161 1.269 1_556 S
O158 Zn155 1.986 . S
O158 C165 1.262 . S
O159 Zn154 2.049 1_554 S
O159 C167 1.260 . S
O160 Zn155 1.996 . S
O160 C167 1.257 . S
C161 O156 1.254 . S
C161 O157 1.269 1_554 S
C162 O163 1.249 1_556 S
C162 O164 1.270 . S
O163 Zn155 1.943 . S
O163 C162 1.249 1_554 S
O164 Zn154 2.067 . S
O164 C162 1.270 . S
C165 O158 1.262 . S
C165 O166 1.232 . S
O166 C165 1.232 . S
C167 O159 1.260 . S
C167 O160 1.257 . S
Zn168 O171 2.031 . S
Zn168 O173 2.049 . S
Zn168 O178 2.067 . S
Zn169 O170 1.962 . S
Zn169 O172 1.986 . S
Zn169 O174 1.996 . S
Zn169 O177 1.943 . S
O170 Zn169 1.962 . S
O170 C175 1.254 . S
O171 Zn168 2.031 . S
O171 C175 1.269 . S
O172 Zn169 1.986 . S
O172 C179 1.262 . S
O173 Zn168 2.049 . S
O173 C181 1.260 . S
O174 Zn169 1.996 . S
O174 C181 1.257 . S
C175 O170 1.254 . S
C175 O171 1.269 . S
C176 O177 1.249 . S
C176 O178 1.270 . S
O177 Zn169 1.943 . S
O177 C176 1.249 . S
O178 Zn168 2.067 . S
O178 C176 1.270 . S
C179 O172 1.262 . S
C179 O180 1.232 . S
O180 C179 1.232 . S
C181 O173 1.260 . S
C181 O174 1.257 . S
Zn182 O185 2.031 . S
Zn182 O187 2.049 . S
Zn182 O192 2.067 . S
Zn183 O184 1.962 . S
Zn183 O186 1.986 . S
Zn183 O188 1.996 . S
Zn183 O191 1.943 . S
O184 Zn183 1.962 . S
O184 C189 1.254 . S
O185 Zn182 2.031 . S
O185 C189 1.269 . S
O186 Zn183 1.986 . S
O186 C193 1.262 . S
O187 Zn182 2.049 . S
O187 C195 1.260 . S
O188 Zn183 1.996 . S
O188 C195 1.257 . S
C189 O184 1.254 . S
C189 O185 1.269 . S
C190 O191 1.249 . S
C190 O192 1.270 . S
O191 Zn183 1.943 . S
O191 C190 1.249 . S
O192 Zn182 2.067 . S
O192 C190 1.270 . S
C193 O186 1.262 . S
C193 O194 1.232 . S
O194 C193 1.232 . S
C195 O187 1.260 . S
C195 O188 1.257 . S
Zn196 O199 2.031 . S
Zn196 O201 2.049 . S
Zn196 O206 2.067 . S
Zn197 O198 1.962 . S
Zn197 O200 1.986 . S
Zn197 O202 1.996 . S
Zn197 O205 1.943 . S
O198 Zn197 1.962 . S
O198 C203 1.254 . S
O199 Zn196 2.031 . S
O199 C203 1.269 . S
O200 Zn197 1.986 . S
O200 C207 1.262 . S
O201 Zn196 2.049 . S
O201 C209 1.260 . S
O202 Zn197 1.996 . S
O202 C209 1.257 . S
C203 O198 1.254 . S
C203 O199 1.269 . S
C204 O205 1.249 . S
C204 O206 1.270 . S
O205 Zn197 1.943 . S
O205 C204 1.249 . S
O206 Zn196 2.067 . S
O206 C204 1.270 . S
C207 O200 1.262 . S
C207 O208 1.232 . S
O208 C207 1.232 . S
C209 O201 1.260 . S
C209 O202 1.257 . S
Zn210 O213 2.031 . S
Zn210 O215 2.049 . S
Zn210 O220 2.067 . S
Zn211 O212 1.962 . S
Zn211 O214 1.986 . S
Zn211 O216 1.996 . S
Zn211 O219 1.943 . S
O212 Zn211 1.962 . S
O212 C217 1.254 . S
O213 Zn210 2.031 . S
O213 C217 1.269 . S
O214 Zn211 1.986 . S
O214 C221 1.262 . S
O215 Zn210 2.049 . S
O215 C223 1.260 . S
O216 Zn211 1.996 . S
O216 C223 1.257 . S
C217 O212 1.254 . S
C217 O213 1.269 . S
C218 O219 1.249 . S
C218 O220 1.270 . S
O219 Zn211 1.943 . S
O219 C218 1.249 . S
O220 Zn210 2.067 . S
O220 C218 1.270 . S
C221 O214 1.262 . S
C221 O222 1.232 . S
O222 C221 1.232 . S
C223 O215 1.260 . S
C223 O216 1.257 . S
Zn224 O227 2.031 . S
Zn224 O229 2.049 . S
Zn224 O234 2.067 . S
Zn225 O226 1.962 . S
Zn225 O228 1.986 . S
Zn225 O230 1.996 . S
Zn225 O233 1.943 . S
O226 Zn225 1.962 . S
O226 C231 1.254 . S
O227 Zn224 2.031 . S
O227 C231 1.269 . S
O228 Zn225 1.986 . S
O228 C235 1.262 . S
O229 Zn224 2.049 . S
O229 C237 1.260 . S
O230 Zn225 1.996 . S
O230 C237 1.257 . S
C231 O226 1.254 . S
C231 O227 1.269 . S
C232 O233 1.249 . S
C232 O234 1.270 . S
O233 Zn225 1.943 . S
O233 C232 1.249 . S
O234 Zn224 2.067 . S
O234 C232 1.270 . S
C235 O228 1.262 . S
C235 O236 1.232 . S
O236 C235 1.232 . S
C237 O229 1.260 . S
C237 O230 1.257 . S
Zn238 O241 2.031 . S
Zn238 O243 2.049 . S
Zn238 O248 2.067 . S
Zn239 O240 1.962 . S
Zn239 O242 1.986 . S
Zn239 O244 1.996 . S
Zn239 O247 1.943 . S
O240 Zn239 1.962 . S
O240 C245 1.254 . S
O241 Zn238 2.031 . S
O241 C245 1.269 . S
O242 Zn239 1.986 . S
O242 C249 1.262 . S
O243 Zn238 2.049 . S
O243 C251 1.260 . S
O244 Zn239 1.996 . S
O244 C251 1.257 . S
C245 O240 1.254 . S
C245 O241 1.269 . S
C246 O247 1.249 . S
C246 O248 1.270 . S
O247 Zn239 1.943 . S
O247 C246 1.249 . S
O248 Zn238 2.067 . S
O248 C246 1.270 . S
C249 O242 1.262 . S
C249 O250 1.232 . S
O250 C249 1.232 . S
C251 O243 1.260 . S
C251 O244 1.257 . S
Zn252 O255 2.031 . S
Zn252 O257 2.049 . S
Zn252 O262 2.067 . S
Zn253 O254 1.962 . S
Zn253 O256 1.986 . S
Zn253 O258 1.996 . S
Zn253 O261 1.943 . S
O254 Zn253 1.962 . S
O254 C259 1.254 . S
O255 Zn252 2.031 . S
O255 C259 1.269 . S
O256 Zn253 1.986 . S
O256 C263 1.262 . S
O257 Zn252 2.049 . S
O257 C265 1.260 . S
O258 Zn253 1.996 . S
O258 C265 1.257 . S
C259 O254 1.254 . S
C259 O255 1.269 . S
C260 O261 1.249 . S
C260 O262 1.270 . S
O261 Zn253 1.943 . S
O261 C260 1.249 . S
O262 Zn252 2.067 . S
O262 C260 1.270 . S
C263 O256 1.262 . S
C263 O264 1.232 . S
O264 C263 1.232 . S
C265 O257 1.260 . S
C265 O258 1.257 . S
Zn266 O269 2.031 . S
Zn266 O271 2.049 . S
Zn266 O276 2.067 . S
Zn267 O268 1.962 . S
Zn267 O270 1.986 . S
Zn267 O272 1.996 . S
Zn267 O275 1.943 . S
O268 Zn267 1.962 . S
O268 C273 1.254 . S
O269 Zn266 2.031 . S
O269 C273 1.269 . S
O270 Zn267 1.986 . S
O270 C277 1.262 . S
O271 Zn266 2.049 . S
O271 C279 1.260 . S
O272 Zn267 1.996 . S
O272 C279 1.257 . S
C273 O268 1.254 . S
C273 O269 1.269 . S
C274 O275 1.249 . S
C274 O276 1.270 . S
O275 Zn267 1.943 . S
O275 C274 1.249 . S
O276 Zn266 2.067 . S
O276 C274 1.270 . S
C277 O270 1.262 . S
C277 O278 1.232 . S
O278 C277 1.232 . S
C279 O271 1.260 . S
C279 O272 1.257 . S
Zn280 O283 2.031 . S
Zn280 O285 2.049 . S
Zn280 O290 2.067 . S
Zn281 O282 1.962 . S
Zn281 O284 1.986 . S
Zn281 O286 1.996 . S
Zn281 O289 1.943 . S
O282 Zn281 1.962 . S
O282 C287 1.254 . S
O283 Zn280 2.031 . S
O283 C287 1.269 . S
O284 Zn281 1.986 . S
O284 C291 1.262 . S
O285 Zn280 2.049 . S
O285 C293 1.260 . S
O286 Zn281 1.996 . S
O286 C293 1.257 . S
C287 O282 1.254 . S
C287 O283 1.269 . S
C288 O289 1.249 . S
C288 O290 1.270 . S
O289 Zn281 1.943 . S
O289 C288 1.249 . S
O290 Zn280 2.067 . S
O290 C288 1.270 . S
C291 O284 1.262 . S
C291 O292 1.232 . S
O292 C291 1.232 . S
C293 O285 1.260 . S
C293 O286 1.257 . S
Zn294 O297 2.031 . S
Zn294 O299 2.049 . S
Zn294 O304 2.067 . S
Zn295 O296 1.962 . S
Zn295 O298 1.986 . S
Zn295 O300 1.996 . S
Zn295 O303 1.943 . S
O296 Zn295 1.962 . S
O296 C301 1.254 . S
O297 Zn294 2.031 . S
O297 C301 1.269 . S
O298 Zn295 1.986 . S
O298 C305 1.262 . S
O299 Zn294 2.049 . S
O299 C307 1.260 . S
O300 Zn295 1.996 . S
O300 C307 1.257 . S
C301 O296 1.254 . S
C301 O297 1.269 . S
C302 O303 1.249 . S
C302 O304 1.270 . S
O303 Zn295 1.943 . S
O303 C302 1.249 . S
O304 Zn294 2.067 . S
O304 C302 1.270 . S
C305 O298 1.262 . S
C305 O306 1.232 . S
O306 C305 1.232 . S
C307 O299 1.260 . S
C307 O300 1.257 . S
Zn308 O311 2.031 . S
Zn308 O313 2.049 . S
Zn308 O318 2.067 . S
Zn309 O310 1.962 . S
Zn309 O312 1.986 . S
Zn309 O314 1.996 . S
Zn309 O317 1.943 . S
O310 Zn309 1.962 . S
O310 C315 1.254 . S
O311 Zn308 2.031 . S
O311 C315 1.269 . S
O312 Zn309 1.986 . S
O312 C319 1.262 . S
O313 Zn308 2.049 . S
O313 C321 1.260 . S
O314 Zn309 1.996 . S
O314 C321 1.257 . S
C315 O310 1.254 . S
C315 O311 1.269 . S
C316 O317 1.249 . S
C316 O318 1.270 . S
O317 Zn309 1.943 . S
O317 C316 1.249 . S
O318 Zn308 2.067 . S
O318 C316 1.270 . S
C319 O312 1.262 . S
C319 O320 1.232 . S
O320 C319 1.232 . S
C321 O313 1.260 . S
C321 O314 1.257 . S
Zn322 O325 2.031 . S
Zn322 O327 2.049 . S
Zn322 O332 2.067 . S
Zn323 O324 1.962 . S
Zn323 O326 1.986 . S
Zn323 O328 1.996 . S
Zn323 O331 1.943 . S
O324 Zn323 1.962 . S
O324 C329 1.254 . S
O325 Zn322 2.031 . S
O325 C329 1.269 . S
O326 Zn323 1.986 . S
O326 C333 1.262 . S
O327 Zn322 2.049 . S
O327 C335 1.260 . S
O328 Zn323 1.996 . S
O328 C335 1.257 . S
C329 O324 1.254 . S
C329 O325 1.269 . S
C330 O331 1.249 . S
C330 O332 1.270 . S
O331 Zn323 1.943 . S
O331 C330 1.249 . S
O332 Zn322 2.067 . S
O332 C330 1.270 . S
C333 O326 1.262 . S
C333 O334 1.232 . S
O334 C333 1.232 . S
C335 O327 1.260 . S
C335 O328 1.257 . S
Zn336 O339 2.031 . S
Zn336 O341 2.049 . S
Zn336 O346 2.067 . S
Zn337 O338 1.962 . S
Zn337 O340 1.986 . S
Zn337 O342 1.996 . S
Zn337 O345 1.943 . S
O338 Zn337 1.962 . S
O338 C343 1.254 . S
O339 Zn336 2.031 . S
O339 C343 1.269 . S
O340 Zn337 1.986 . S
O340 C347 1.262 . S
O341 Zn336 2.049 . S
O341 C349 1.260 . S
O342 Zn337 1.996 . S
O342 C349 1.257 . S
C343 O338 1.254 . S
C343 O339 1.269 . S
C344 O345 1.249 . S
C344 O346 1.270 . S
O345 Zn337 1.943 . S
O345 C344 1.249 . S
O346 Zn336 2.067 . S
O346 C344 1.270 . S
C347 O340 1.262 . S
C347 O348 1.232 . S
O348 C347 1.232 . S
C349 O341 1.260 . S
C349 O342 1.257 . S
Zn350 O353 2.031 . S
Zn350 O355 2.049 . S
Zn350 O360 2.067 . S
Zn351 O352 1.962 . S
Zn351 O354 1.986 . S
Zn351 O356 1.996 . S
Zn351 O359 1.943 . S
O352 Zn351 1.962 . S
O352 C357 1.254 . S
O353 Zn350 2.031 . S
O353 C357 1.269 . S
O354 Zn351 1.986 . S
O354 C361 1.262 . S
O355 Zn350 2.049 . S
O355 C363 1.260 . S
O356 Zn351 1.996 . S
O356 C363 1.257 . S
C357 O352 1.254 . S
C357 O353 1.269 . S
C358 O359 1.249 . S
C358 O360 1.270 . S
O359 Zn351 1.943 . S
O359 C358 1.249 . S
O360 Zn350 2.067 . S
O360 C358 1.270 . S
C361 O354 1.262 . S
C361 O362 1.232 . S
O362 C361 1.232 . S
C363 O355 1.260 . S
C363 O356 1.257 . S
Zn364 O367 2.031 . S
Zn364 O369 2.049 . S
Zn364 O374 2.067 . S
Zn365 O366 1.962 . S
Zn365 O368 1.986 . S
Zn365 O370 1.996 . S
Zn365 O373 1.943 . S
O366 Zn365 1.962 . S
O366 C371 1.254 . S
O367 Zn364 2.031 . S
O367 C371 1.269 . S
O368 Zn365 1.986 . S
O368 C375 1.262 . S
O369 Zn364 2.049 . S
O369 C377 1.260 . S
O370 Zn365 1.996 . S
O370 C377 1.257 . S
C371 O366 1.254 . S
C371 O367 1.269 . S
C372 O373 1.249 . S
C372 O374 1.270 . S
O373 Zn365 1.943 . S
O373 C372 1.249 . S
O374 Zn364 2.067 . S
O374 C372 1.270 . S
C375 O368 1.262 . S
C375 O376 1.232 . S
O376 C375 1.232 . S
C377 O369 1.260 . S
C377 O370 1.257 . S
Zn378 O381 2.031 . S
Zn378 O383 2.049 . S
Zn378 O388 2.067 . S
Zn379 O380 1.962 . S
Zn379 O382 1.986 . S
Zn379 O384 1.996 . S
Zn379 O387 1.943 . S
O380 Zn379 1.962 . S
O380 C385 1.254 . S
O381 Zn378 2.031 . S
O381 C385 1.269 . S
O382 Zn379 1.986 . S
O382 C389 1.262 . S
O383 Zn378 2.049 . S
O383 C391 1.260 . S
O384 Zn379 1.996 . S
O384 C391 1.257 . S
C385 O380 1.254 . S
C385 O381 1.269 . S
C386 O387 1.249 . S
C386 O388 1.270 . S
O387 Zn379 1.943 . S
O387 C386 1.249 . S
O388 Zn378 2.067 . S
O388 C386 1.270 . S
C389 O382 1.262 . S
C389 O390 1.232 . S
O390 C389 1.232 . S
C391 O383 1.260 . S
C391 O384 1.257 . S
Zn392 O395 2.031 . S
Zn392 O397 2.049 . S
Zn392 O402 2.067 . S
Zn393 O394 1.962 . S
Zn393 O396 1.986 . S
Zn393 O398 1.996 . S
Zn393 O401 1.943 . S
O394 Zn393 1.962 . S
O394 C399 1.254 . S
O395 Zn392 2.031 . S
O395 C399 1.269 . S
O396 Zn393 1.986 . S
O396 C403 1.262 . S
O397 Zn392 2.049 . S
O397 C405 1.260 . S
O398 Zn393 1.996 . S
O398 C405 1.257 . S
C399 O394 1.254 . S
C399 O395 1.269 . S
C400 O401 1.249 . S
C400 O402 1.270 . S
O401 Zn393 1.943 . S
O401 C400 1.249 . S
O402 Zn392 2.067 . S
O402 C400 1.270 . S
C403 O396 1.262 . S
C403 O404 1.232 . S
O404 C403 1.232 . S
C405 O397 1.260 . S
C405 O398 1.257 . S
Zn406 O409 2.031 . S
Zn406 O411 2.049 . S
Zn406 O416 2.067 . S
Zn407 O408 1.962 . S
Zn407 O410 1.986 . S
Zn407 O412 1.996 . S
Zn407 O415 1.943 . S
O408 Zn407 1.962 . S
O408 C413 1.254 . S
O409 Zn406 2.031 . S
O409 C413 1.269 . S
O410 Zn407 1.986 . S
O410 C417 1.262 . S
O411 Zn406 2.049 . S
O411 C419 1.260 . S
O412 Zn407 1.996 . S
O412 C419 1.257 . S
C413 O408 1.254 . S
C413 O409 1.269 . S
C414 O415 1.249 . S
C414 O416 1.270 . S
O415 Zn407 1.943 . S
O415 C414 1.249 . S
O416 Zn406 2.067 . S
O416 C414 1.270 . S
C417 O410 1.262 . S
C417 O418 1.232 . S
O418 C417 1.232 . S
C419 O411 1.260 . S
C419 O412 1.257 . S
Zn420 O423 2.031 . S
Zn420 O425 2.049 . S
Zn420 O430 2.067 . S
Zn421 O422 1.962 . S
Zn421 O424 1.986 . S
Zn421 O426 1.996 . S
Zn421 O429 1.943 . S
O422 Zn421 1.962 . S
O422 C427 1.254 . S
O423 Zn420 2.031 . S
O423 C427 1.269 . S
O424 Zn421 1.986 . S
O424 C431 1.262 . S
O425 Zn420 2.049 . S
O425 C433 1.260 . S
O426 Zn421 1.996 . S
O426 C433 1.257 . S
C427 O422 1.254 . S
C427 O423 1.269 . S
C428 O429 1.249 . S
C428 O430 1.270 . S
O429 Zn421 1.943 . S
O429 C428 1.249 . S
O430 Zn420 2.067 . S
O430 C428 1.270 . S
C431 O424 1.262 . S
C431 O432 1.232 . S
O432 C431 1.232 . S
C433 O425 1.260 . S
C433 O426 1.257 . S
Zn434 O437 2.031 . S
Zn434 O439 2.049 . S
Zn434 O444 2.067 . S
Zn435 O436 1.962 . S
Zn435 O438 1.986 . S
Zn435 O440 1.996 . S
Zn435 O443 1.943 . S
O436 Zn435 1.962 . S
O436 C441 1.254 . S
O437 Zn434 2.031 . S
O437 C441 1.269 . S
O438 Zn435 1.986 . S
O438 C445 1.262 . S
O439 Zn434 2.049 . S
O439 C447 1.260 . S
O440 Zn435 1.996 . S
O440 C447 1.257 . S
C441 O436 1.254 . S
C441 O437 1.269 . S
C442 O443 1.249 . S
C442 O444 1.270 . S
O443 Zn435 1.943 . S
O443 C442 1.249 . S
O444 Zn434 2.067 . S
O444 C442 1.270 . S
C445 O438 1.262 . S
C445 O446 1.232 . S
O446 C445 1.232 . S
C447 O439 1.260 . S
C447 O440 1.257 . S
Zn448 O451 2.031 . S
Zn448 O453 2.049 . S
Zn448 O458 2.067 . S
Zn449 O450 1.962 . S
Zn449 O452 1.986 . S
Zn449 O454 1.996 . S
Zn449 O457 1.943 . S
O450 Zn449 1.962 . S
O450 C455 1.254 . S
O451 Zn448 2.031 . S
O451 C455 1.269 . S
O452 Zn449 1.986 . S
O452 C459 1.262 . S
O453 Zn448 2.049 . S
O453 C461 1.260 . S
O454 Zn449 1.996 . S
O454 C461 1.257 . S
C455 O450 1.254 . S
C455 O451 1.269 . S
C456 O457 1.249 . S
C456 O458 1.270 . S
O457 Zn449 1.943 . S
O457 C456 1.249 . S
O458 Zn448 2.067 . S
O458 C456 1.270 . S
C459 O452 1.262 . S
C459 O460 1.232 . S
O460 C459 1.232 . S
C461 O453 1.260 . S
C461 O454 1.257 . S
Zn462 O465 2.031 . S
Zn462 O467 2.049 . S
Zn462 O472 2.067 . S
Zn463 O464 1.962 . S
Zn463 O466 1.986 . S
Zn463 O468 1.996 . S
Zn463 O471 1.943 . S
O464 Zn463 1.962 . S
O464 C469 1.254 . S
O465 Zn462 2.031 . S
O465 C469 1.269 . S
O466 Zn463 1.986 . S
O466 C473 1.262 . S
O467 Zn462 2.049 . S
O467 C475 1.260 . S
O468 Zn463 1.996 . S
O468 C475 1.257 . S
C469 O464 1.254 . S
C469 O465 1.269 . S
C470 O471 1.249 . S
C470 O472 1.270 . S
O471 Zn463 1.943 . S
O471 C470 1.249 . S
O472 Zn462 2.067 . S
O472 C470 1.270 . S
C473 O466 1.262 . S
C473 O474 1.232 . S
O474 C473 1.232 . S
C475 O467 1.260 . S
C475 O468 1.257 . S
Zn476 O479 2.031 . S
Zn476 O481 2.049 . S
Zn476 O486 2.067 . S
Zn477 O478 1.962 . S
Zn477 O480 1.986 . S
Zn477 O482 1.996 . S
Zn477 O485 1.943 . S
O478 Zn477 1.962 . S
O478 C483 1.254 . S
O479 Zn476 2.031 . S
O479 C483 1.269 . S
O480 Zn477 1.986 . S
O480 C487 1.262 . S
O481 Zn476 2.049 . S
O481 C489 1.260 . S
O482 Zn477 1.996 . S
O482 C489 1.257 . S
C483 O478 1.254 . S
C483 O479 1.269 . S
C484 O485 1.249 . S
C484 O486 1.270 . S
O485 Zn477 1.943 . S
O485 C484 1.249 . S
O486 Zn476 2.067 . S
O486 C484 1.270 . S
C487 O480 1.262 . S
C487 O488 1.232 . S
O488 C487 1.232 . S
C489 O481 1.260 . S
C489 O482 1.257 . S
Zn490 O493 2.031 . S
Zn490 O495 2.049 . S
Zn490 O500 2.067 . S
Zn491 O492 1.962 . S
Zn491 O494 1.986 . S
Zn491 O496 1.996 . S
Zn491 O499 1.943 . S
O492 Zn491 1.962 . S
O492 C497 1.254 . S
O493 Zn490 2.031 . S
O493 C497 1.269 . S
O494 Zn491 1.986 . S
O494 C501 1.262 . S
O495 Zn490 2.049 . S
O495 C503 1.260 . S
O496 Zn491 1.996 . S
O496 C503 1.257 . S
C497 O492 1.254 . S
C497 O493 1.269 . S
C498 O499 1.249 . S
C498 O500 1.270 . S
O499 Zn491 1.943 . S
O499 C498 1.249 . S
O500 Zn490 2.067 . S
O500 C498 1.270 . S
C501 O494 1.262 . S
C501 O502 1.232 . S
O502 C501 1.232 . S
C503 O495 1.260 . S
C503 O496 1.257 . S
H504 C516 0.930 . S
H505 C518 0.930 . S
H506 C519 0.930 . S
H507 C523 0.959 . S
H508 C523 0.959 . S
H509 C523 0.961 . S
H510 C524 0.960 . S
H511 C524 0.961 . S
H512 C524 0.959 . S
H513 C527 0.929 . S
H514 C528 0.931 . S
H515 C530 0.930 . S
C516 H504 0.930 . S
C516 C517 1.399 . S
C516 C521 1.399 . S
C517 C516 1.399 . S
C517 C518 1.376 . S
C518 H505 0.930 . S
C518 C517 1.376 . S
C518 C519 1.388 . S
C519 H506 0.930 . S
C519 C518 1.388 . S
C519 C520 1.390 . S
C520 C519 1.390 . S
C520 C521 1.394 . S
C520 C526 1.465 . S
C521 C516 1.399 . S
C521 C520 1.394 . S
C521 C522 1.516 . S
C522 C521 1.516 . S
C522 C523 1.502 . S
C522 C524 1.561 1_554 S
C522 C525 1.526 . S
C523 H507 0.959 . S
C523 H508 0.959 . S
C523 H509 0.961 . S
C523 C522 1.502 . S
C524 H510 0.960 . S
C524 H511 0.961 . S
C524 H512 0.959 . S
C524 C522 1.561 1_556 S
C525 C522 1.526 . S
C525 C526 1.396 . S
C525 C530 1.390 . S
C526 C520 1.465 . S
C526 C525 1.396 . S
C526 C527 1.399 . S
C527 H513 0.929 . S
C527 C526 1.399 . S
C527 C528 1.385 . S
C528 H514 0.931 . S
C528 C527 1.385 . S
C528 C529 1.389 . S
C529 C528 1.389 . S
C529 C530 1.387 . S
C530 H515 0.930 . S
C530 C525 1.390 . S
C530 C529 1.387 . S
H531 C543 0.914 1_556 S
H532 C545 0.930 . S
H533 C546 0.930 . S
H534 C550 0.959 1_554 S
H535 C550 0.959 . S
H536 C550 0.961 . S
H537 C551 0.960 . S
H538 C551 0.961 . S
H539 C551 0.959 . S
H540 C554 0.929 . S
H541 C555 0.931 . S
H542 C557 0.913 1_556 S
C543 H531 0.914 1_554 S
C543 C544 1.399 . S
C543 C548 1.399 . S
C544 C543 1.399 . S
C544 C545 1.376 . S
C545 H532 0.930 . S
C545 C544 1.376 . S
C545 C546 1.388 . S
C546 H533 0.930 . S
C546 C545 1.388 . S
C546 C547 1.390 . S
C547 C546 1.390 . S
C547 C548 1.394 . S
C547 C553 1.465 . S
C548 C543 1.399 . S
C548 C547 1.394 . S
C548 C549 1.516 . S
C549 C548 1.516 . S
C549 C550 1.502 1_554 S
C549 C551 1.561 1_554 S
C549 C552 1.526 . S
C550 H534 0.959 1_556 S
C550 H535 0.959 . S
C550 H536 0.961 . S
C550 C549 1.502 1_556 S
C551 H537 0.960 . S
C551 H538 0.961 . S
C551 H539 0.959 . S
C551 C549 1.561 1_556 S
C552 C549 1.526 . S
C552 C553 1.396 . S
C552 C557 1.390 . S
C553 C547 1.465 . S
C553 C552 1.396 . S
C553 C554 1.399 . S
C554 H540 0.929 . S
C554 C553 1.399 . S
C554 C555 1.385 . S
C555 H541 0.931 . S
C555 C554 1.385 . S
C555 C556 1.389 . S
C556 C555 1.389 . S
C556 C557 1.387 . S
C557 H542 0.913 1_554 S
C557 C552 1.390 . S
C557 C556 1.387 . S
H558 C570 0.930 1_556 S
H559 C572 0.930 . S
H560 C573 0.930 . S
H561 C577 0.959 1_554 S
H562 C577 0.959 . S
H563 C577 0.961 . S
H564 C578 0.960 . S
H565 C578 0.961 . S
H566 C578 0.959 . S
H567 C581 0.929 . S
H568 C582 0.931 . S
H569 C584 0.930 1_556 S
C570 H558 0.930 1_554 S
C570 C571 1.399 . S
C570 C575 1.399 . S
C571 C570 1.399 . S
C571 C572 1.376 . S
C572 H559 0.930 . S
C572 C571 1.376 . S
C572 C573 1.388 . S
C573 H560 0.930 . S
C573 C572 1.388 . S
C573 C574 1.390 . S
C574 C573 1.390 . S
C574 C575 1.394 . S
C574 C580 1.465 . S
C575 C570 1.399 . S
C575 C574 1.394 . S
C575 C576 1.516 . S
C576 C575 1.516 . S
C576 C577 1.502 1_554 S
C576 C578 1.561 1_554 S
C576 C579 1.526 . S
C577 H561 0.959 1_556 S
C577 H562 0.959 . S
C577 H563 0.961 . S
C577 C576 1.502 1_556 S
C578 H564 0.960 . S
C578 H565 0.961 . S
C578 H566 0.959 . S
C578 C576 1.561 1_556 S
C579 C576 1.526 . S
C579 C580 1.396 . S
C579 C584 1.390 . S
C580 C574 1.465 . S
C580 C579 1.396 . S
C580 C581 1.399 . S
C581 H567 0.929 . S
C581 C580 1.399 . S
C581 C582 1.385 . S
C582 H568 0.931 . S
C582 C581 1.385 . S
C582 C583 1.389 . S
C583 C582 1.389 . S
C583 C584 1.387 . S
C584 H569 0.930 1_554 S
C584 C579 1.390 . S
C584 C583 1.387 . S
H585 C597 0.930 . S
H586 C599 0.930 1_554 S
H587 C600 0.911 1_554 S
H588 C604 0.959 . S
H589 C604 0.959 . S
H590 C604 0.961 . S
H591 C605 0.960 . S
H592 C605 0.961 . S
H593 C605 0.959 . S
H594 C608 0.936 . S
H595 C609 0.931 1_554 S
H596 C611 0.930 . S
C597 H585 0.930 . S
C597 C598 1.399 . S
C597 C602 1.399 . S
C598 C597 1.399 . S
C598 C599 1.376 . S
C599 H586 0.930 1_556 S
C599 C598 1.376 . S
C599 C600 1.393 . S
C600 H587 0.911 1_556 S
C600 C599 1.393 . S
C600 C601 1.405 . S
C601 C600 1.405 . S
C601 C602 1.394 . S
C601 C607 1.465 . S
C602 C597 1.399 . S
C602 C601 1.394 . S
C602 C603 1.516 . S
C603 C602 1.516 . S
C603 C604 1.502 . S
C603 C605 1.561 . S
C603 C606 1.526 . S
C604 H588 0.959 . S
C604 H589 0.959 . S
C604 H590 0.961 . S
C604 C603 1.502 . S
C605 H591 0.960 . S
C605 H592 0.961 . S
C605 H593 0.959 . S
C605 C603 1.561 . S
C606 C603 1.526 . S
C606 C607 1.396 . S
C606 C611 1.390 . S
C607 C601 1.465 . S
C607 C606 1.396 . S
C607 C608 1.393 1_556 S
C608 H594 0.936 . S
C608 C607 1.393 1_554 S
C608 C609 1.384 1_554 S
C609 H595 0.931 1_556 S
C609 C608 1.384 1_556 S
C609 C610 1.389 . S
C610 C609 1.389 . S
C610 C611 1.387 . S
C611 H596 0.930 . S
C611 C606 1.390 . S
C611 C610 1.387 . S
H612 C624 0.930 1_554 S
H613 C626 0.930 . S
H614 C627 0.930 . S
H615 C631 0.959 1_556 S
H616 C631 0.959 . S
H617 C631 0.961 . S
H618 C632 0.960 . S
H619 C632 0.961 . S
H620 C632 0.959 . S
H621 C635 0.929 . S
H622 C636 0.931 . S
H623 C638 0.930 1_554 S
C624 H612 0.930 1_556 S
C624 C625 1.399 . S
C624 C629 1.399 . S
C625 C624 1.399 . S
C625 C626 1.376 . S
C626 H613 0.930 . S
C626 C625 1.376 . S
C626 C627 1.388 . S
C627 H614 0.930 . S
C627 C626 1.388 . S
C627 C628 1.390 . S
C628 C627 1.390 . S
C628 C629 1.394 . S
C628 C634 1.465 . S
C629 C624 1.399 . S
C629 C628 1.394 . S
C629 C630 1.516 . S
C630 C629 1.516 . S
C630 C631 1.502 1_556 S
C630 C632 1.561 1_556 S
C630 C633 1.526 . S
C631 H615 0.959 1_554 S
C631 H616 0.959 . S
C631 H617 0.961 . S
C631 C630 1.502 1_554 S
C632 H618 0.960 . S
C632 H619 0.961 . S
C632 H620 0.959 . S
C632 C630 1.561 1_554 S
C633 C630 1.526 . S
C633 C634 1.396 . S
C633 C638 1.390 . S
C634 C628 1.465 . S
C634 C633 1.396 . S
C634 C635 1.399 . S
C635 H621 0.929 . S
C635 C634 1.399 . S
C635 C636 1.385 . S
C636 H622 0.931 . S
C636 C635 1.385 . S
C636 C637 1.389 . S
C637 C636 1.389 . S
C637 C638 1.387 . S
C638 H623 0.930 1_556 S
C638 C633 1.390 . S
C638 C637 1.387 . S
H639 C651 0.930 . S
H640 C653 0.930 1_554 S
H641 C654 0.930 . S
H642 C658 0.959 . S
H643 C658 0.959 . S
H644 C658 0.961 . S
H645 C659 0.960 . S
H646 C659 0.961 . S
H647 C659 0.959 . S
H648 C662 0.929 . S
H649 C663 0.931 1_554 S
H650 C665 0.930 . S
C651 H639 0.930 . S
C651 C652 1.399 . S
C651 C656 1.399 . S
C652 C651 1.399 . S
C652 C653 1.376 . S
C653 H640 0.930 1_556 S
C653 C652 1.376 . S
C653 C654 1.388 1_556 S
C654 H641 0.930 . S
C654 C653 1.388 1_554 S
C654 C655 1.390 1_554 S
C655 C654 1.390 1_556 S
C655 C656 1.394 . S
C655 C661 1.465 . S
C656 C651 1.399 . S
C656 C655 1.394 . S
C656 C657 1.516 . S
C657 C656 1.516 . S
C657 C658 1.502 . S
C657 C659 1.561 . S
C657 C660 1.526 . S
C658 H642 0.959 . S
C658 H643 0.959 . S
C658 H644 0.961 . S
C658 C657 1.502 . S
C659 H645 0.960 . S
C659 H646 0.961 . S
C659 H647 0.959 . S
C659 C657 1.561 . S
C660 C657 1.526 . S
C660 C661 1.396 . S
C660 C665 1.390 . S
C661 C655 1.465 . S
C661 C660 1.396 . S
C661 C662 1.399 1_556 S
C662 H648 0.929 . S
C662 C661 1.399 1_554 S
C662 C663 1.385 1_554 S
C663 H649 0.931 1_556 S
C663 C662 1.385 1_556 S
C663 C664 1.389 . S
C664 C663 1.389 . S
C664 C665 1.387 . S
C665 H650 0.930 . S
C665 C660 1.390 . S
C665 C664 1.387 . S
H666 C678 0.930 . S
H667 C680 0.930 . S
H668 C681 0.930 . S
H669 C685 0.959 . S
H670 C685 0.959 . S
H671 C685 0.961 . S
H672 C686 0.960 . S
H673 C686 0.961 . S
H674 C686 0.959 . S
H675 C689 0.929 . S
H676 C690 0.931 . S
H677 C692 0.930 . S
C678 H666 0.930 . S
C678 C679 1.399 . S
C678 C683 1.399 . S
C679 C678 1.399 . S
C679 C680 1.376 . S
C680 H667 0.930 . S
C680 C679 1.376 . S
C680 C681 1.388 . S
C681 H668 0.930 . S
C681 C680 1.388 . S
C681 C682 1.390 . S
C682 C681 1.390 . S
C682 C683 1.394 . S
C682 C688 1.465 . S
C683 C678 1.399 . S
C683 C682 1.394 . S
C683 C684 1.516 . S
C684 C683 1.516 . S
C684 C685 1.502 . S
C684 C686 1.561 . S
C684 C687 1.526 . S
C685 H669 0.959 . S
C685 H670 0.959 . S
C685 H671 0.961 . S
C685 C684 1.502 . S
C686 H672 0.960 . S
C686 H673 0.961 . S
C686 H674 0.959 . S
C686 C684 1.561 . S
C687 C684 1.526 . S
C687 C688 1.396 . S
C687 C692 1.390 . S
C688 C682 1.465 . S
C688 C687 1.396 . S
C688 C689 1.399 . S
C689 H675 0.929 . S
C689 C688 1.399 . S
C689 C690 1.385 . S
C690 H676 0.931 . S
C690 C689 1.385 . S
C690 C691 1.389 . S
C691 C690 1.389 . S
C691 C692 1.387 . S
C692 H677 0.930 . S
C692 C687 1.390 . S
C692 C691 1.387 . S
H693 C705 0.930 . S
H694 C707 0.930 . S
H695 C708 0.930 . S
H696 C712 0.959 . S
H697 C712 0.959 . S
H698 C712 0.961 . S
H699 C713 0.960 . S
H700 C713 0.961 . S
H701 C713 0.959 . S
H702 C716 0.929 . S
H703 C717 0.931 . S
H704 C719 0.930 . S
C705 H693 0.930 . S
C705 C706 1.399 . S
C705 C710 1.399 . S
C706 C705 1.399 . S
C706 C707 1.376 . S
C707 H694 0.930 . S
C707 C706 1.376 . S
C707 C708 1.388 . S
C708 H695 0.930 . S
C708 C707 1.388 . S
C708 C709 1.390 . S
C709 C708 1.390 . S
C709 C710 1.394 . S
C709 C715 1.465 . S
C710 C705 1.399 . S
C710 C709 1.394 . S
C710 C711 1.516 . S
C711 C710 1.516 . S
C711 C712 1.502 . S
C711 C713 1.561 . S
C711 C714 1.526 . S
C712 H696 0.959 . S
C712 H697 0.959 . S
C712 H698 0.961 . S
C712 C711 1.502 . S
C713 H699 0.960 . S
C713 H700 0.961 . S
C713 H701 0.959 . S
C713 C711 1.561 . S
C714 C711 1.526 . S
C714 C715 1.396 . S
C714 C719 1.390 . S
C715 C709 1.465 . S
C715 C714 1.396 . S
C715 C716 1.399 . S
C716 H702 0.929 . S
C716 C715 1.399 . S
C716 C717 1.385 . S
C717 H703 0.931 . S
C717 C716 1.385 . S
C717 C718 1.389 . S
C718 C717 1.389 . S
C718 C719 1.387 . S
C719 H704 0.930 . S
C719 C714 1.390 . S
C719 C718 1.387 . S
H720 C732 0.930 . S
H721 C734 0.930 . S
H722 C735 0.930 . S
H723 C739 0.959 . S
H724 C739 0.959 . S
H725 C739 0.961 . S
H726 C740 0.960 . S
H727 C740 0.961 . S
H728 C740 0.959 . S
H729 C743 0.929 . S
H730 C744 0.931 . S
H731 C746 0.930 . S
C732 H720 0.930 . S
C732 C733 1.399 . S
C732 C737 1.399 . S
C733 C732 1.399 . S
C733 C734 1.376 . S
C734 H721 0.930 . S
C734 C733 1.376 . S
C734 C735 1.388 . S
C735 H722 0.930 . S
C735 C734 1.388 . S
C735 C736 1.390 . S
C736 C735 1.390 . S
C736 C737 1.394 . S
C736 C742 1.465 . S
C737 C732 1.399 . S
C737 C736 1.394 . S
C737 C738 1.516 . S
C738 C737 1.516 . S
C738 C739 1.502 . S
C738 C740 1.561 . S
C738 C741 1.526 . S
C739 H723 0.959 . S
C739 H724 0.959 . S
C739 H725 0.961 . S
C739 C738 1.502 . S
C740 H726 0.960 . S
C740 H727 0.961 . S
C740 H728 0.959 . S
C740 C738 1.561 . S
C741 C738 1.526 . S
C741 C742 1.396 . S
C741 C746 1.390 . S
C742 C736 1.465 . S
C742 C741 1.396 . S
C742 C743 1.399 . S
C743 H729 0.929 . S
C743 C742 1.399 . S
C743 C744 1.385 . S
C744 H730 0.931 . S
C744 C743 1.385 . S
C744 C745 1.389 . S
C745 C744 1.389 . S
C745 C746 1.387 . S
C746 H731 0.930 . S
C746 C741 1.390 . S
C746 C745 1.387 . S
H747 C759 0.930 . S
H748 C761 0.930 . S
H749 C762 0.930 . S
H750 C766 0.959 . S
H751 C766 0.959 . S
H752 C766 0.961 . S
H753 C767 0.960 . S
H754 C767 0.961 . S
H755 C767 0.959 . S
H756 C770 0.929 . S
H757 C771 0.931 . S
H758 C773 0.930 . S
C759 H747 0.930 . S
C759 C760 1.399 . S
C759 C764 1.399 . S
C760 C759 1.399 . S
C760 C761 1.376 . S
C761 H748 0.930 . S
C761 C760 1.376 . S
C761 C762 1.388 . S
C762 H749 0.930 . S
C762 C761 1.388 . S
C762 C763 1.390 . S
C763 C762 1.390 . S
C763 C764 1.394 . S
C763 C769 1.465 . S
C764 C759 1.399 . S
C764 C763 1.394 . S
C764 C765 1.516 . S
C765 C764 1.516 . S
C765 C766 1.502 . S
C765 C767 1.561 . S
C765 C768 1.526 . S
C766 H750 0.959 . S
C766 H751 0.959 . S
C766 H752 0.961 . S
C766 C765 1.502 . S
C767 H753 0.960 . S
C767 H754 0.961 . S
C767 H755 0.959 . S
C767 C765 1.561 . S
C768 C765 1.526 . S
C768 C769 1.396 . S
C768 C773 1.390 . S
C769 C763 1.465 . S
C769 C768 1.396 . S
C769 C770 1.399 . S
C770 H756 0.929 . S
C770 C769 1.399 . S
C770 C771 1.385 . S
C771 H757 0.931 . S
C771 C770 1.385 . S
C771 C772 1.389 . S
C772 C771 1.389 . S
C772 C773 1.387 . S
C773 H758 0.930 . S
C773 C768 1.390 . S
C773 C772 1.387 . S
H774 C786 0.930 . S
H775 C788 0.930 . S
H776 C789 0.930 . S
H777 C793 0.959 . S
H778 C793 0.959 . S
H779 C793 0.961 . S
H780 C794 0.960 . S
H781 C794 0.961 . S
H782 C794 0.959 . S
H783 C797 0.929 . S
H784 C798 0.931 . S
H785 C800 0.930 . S
C786 H774 0.930 . S
C786 C787 1.399 . S
C786 C791 1.399 . S
C787 C786 1.399 . S
C787 C788 1.376 . S
C788 H775 0.930 . S
C788 C787 1.376 . S
C788 C789 1.388 . S
C789 H776 0.930 . S
C789 C788 1.388 . S
C789 C790 1.390 . S
C790 C789 1.390 . S
C790 C791 1.394 . S
C790 C796 1.465 . S
C791 C786 1.399 . S
C791 C790 1.394 . S
C791 C792 1.516 . S
C792 C791 1.516 . S
C792 C793 1.502 . S
C792 C794 1.561 . S
C792 C795 1.526 . S
C793 H777 0.959 . S
C793 H778 0.959 . S
C793 H779 0.961 . S
C793 C792 1.502 . S
C794 H780 0.960 . S
C794 H781 0.961 . S
C794 H782 0.959 . S
C794 C792 1.561 . S
C795 C792 1.526 . S
C795 C796 1.396 . S
C795 C800 1.390 . S
C796 C790 1.465 . S
C796 C795 1.396 . S
C796 C797 1.399 . S
C797 H783 0.929 . S
C797 C796 1.399 . S
C797 C798 1.385 . S
C798 H784 0.931 . S
C798 C797 1.385 . S
C798 C799 1.389 . S
C799 C798 1.389 . S
C799 C800 1.387 . S
C800 H785 0.930 . S
C800 C795 1.390 . S
C800 C799 1.387 . S
H801 C813 0.930 . S
H802 C815 0.930 . S
H803 C816 0.930 . S
H804 C820 0.959 . S
H805 C820 0.959 . S
H806 C820 0.961 . S
H807 C821 0.960 . S
H808 C821 0.961 . S
H809 C821 0.959 . S
H810 C824 0.929 . S
H811 C825 0.931 . S
H812 C827 0.930 . S
C813 H801 0.930 . S
C813 C814 1.399 . S
C813 C818 1.399 . S
C814 C813 1.399 . S
C814 C815 1.376 . S
C815 H802 0.930 . S
C815 C814 1.376 . S
C815 C816 1.388 . S
C816 H803 0.930 . S
C816 C815 1.388 . S
C816 C817 1.390 . S
C817 C816 1.390 . S
C817 C818 1.394 . S
C817 C823 1.465 . S
C818 C813 1.399 . S
C818 C817 1.394 . S
C818 C819 1.516 . S
C819 C818 1.516 . S
C819 C820 1.502 . S
C819 C821 1.561 . S
C819 C822 1.526 . S
C820 H804 0.959 . S
C820 H805 0.959 . S
C820 H806 0.961 . S
C820 C819 1.502 . S
C821 H807 0.960 . S
C821 H808 0.961 . S
C821 H809 0.959 . S
C821 C819 1.561 . S
C822 C819 1.526 . S
C822 C823 1.396 . S
C822 C827 1.390 . S
C823 C817 1.465 . S
C823 C822 1.396 . S
C823 C824 1.399 . S
C824 H810 0.929 . S
C824 C823 1.399 . S
C824 C825 1.385 . S
C825 H811 0.931 . S
C825 C824 1.385 . S
C825 C826 1.389 . S
C826 C825 1.389 . S
C826 C827 1.387 . S
C827 H812 0.930 . S
C827 C822 1.390 . S
C827 C826 1.387 . S
H828 C840 0.930 . S
H829 C842 0.930 . S
H830 C843 0.930 . S
H831 C847 0.959 . S
H832 C847 0.959 . S
H833 C847 0.961 . S
H834 C848 0.960 . S
H835 C848 0.961 . S
H836 C848 0.959 . S
H837 C851 0.929 . S
H838 C852 0.931 . S
H839 C854 0.930 . S
C840 H828 0.930 . S
C840 C841 1.399 . S
C840 C845 1.399 . S
C841 C840 1.399 . S
C841 C842 1.376 . S
C842 H829 0.930 . S
C842 C841 1.376 . S
C842 C843 1.388 . S
C843 H830 0.930 . S
C843 C842 1.388 . S
C843 C844 1.390 . S
C844 C843 1.390 . S
C844 C845 1.394 . S
C844 C850 1.465 . S
C845 C840 1.399 . S
C845 C844 1.394 . S
C845 C846 1.516 . S
C846 C845 1.516 . S
C846 C847 1.502 . S
C846 C848 1.561 . S
C846 C849 1.526 . S
C847 H831 0.959 . S
C847 H832 0.959 . S
C847 H833 0.961 . S
C847 C846 1.502 . S
C848 H834 0.960 . S
C848 H835 0.961 . S
C848 H836 0.959 . S
C848 C846 1.561 . S
C849 C846 1.526 . S
C849 C850 1.396 . S
C849 C854 1.390 . S
C850 C844 1.465 . S
C850 C849 1.396 . S
C850 C851 1.399 . S
C851 H837 0.929 . S
C851 C850 1.399 . S
C851 C852 1.385 . S
C852 H838 0.931 . S
C852 C851 1.385 . S
C852 C853 1.389 . S
C853 C852 1.389 . S
C853 C854 1.387 . S
C854 H839 0.930 . S
C854 C849 1.390 . S
C854 C853 1.387 . S
H855 C867 0.930 . S
H856 C869 0.930 . S
H857 C870 0.930 . S
H858 C874 0.959 . S
H859 C874 0.959 . S
H860 C874 0.961 . S
H861 C875 0.960 . S
H862 C875 0.961 . S
H863 C875 0.959 . S
H864 C878 0.929 . S
H865 C879 0.931 . S
H866 C881 0.930 . S
C867 H855 0.930 . S
C867 C868 1.399 . S
C867 C872 1.399 . S
C868 C867 1.399 . S
C868 C869 1.376 . S
C869 H856 0.930 . S
C869 C868 1.376 . S
C869 C870 1.388 . S
C870 H857 0.930 . S
C870 C869 1.388 . S
C870 C871 1.390 . S
C871 C870 1.390 . S
C871 C872 1.394 . S
C871 C877 1.465 . S
C872 C867 1.399 . S
C872 C871 1.394 . S
C872 C873 1.516 . S
C873 C872 1.516 . S
C873 C874 1.502 . S
C873 C875 1.561 . S
C873 C876 1.526 . S
C874 H858 0.959 . S
C874 H859 0.959 . S
C874 H860 0.961 . S
C874 C873 1.502 . S
C875 H861 0.960 . S
C875 H862 0.961 . S
C875 H863 0.959 . S
C875 C873 1.561 . S
C876 C873 1.526 . S
C876 C877 1.396 . S
C876 C881 1.390 . S
C877 C871 1.465 . S
C877 C876 1.396 . S
C877 C878 1.399 . S
C878 H864 0.929 . S
C878 C877 1.399 . S
C878 C879 1.385 . S
C879 H865 0.931 . S
C879 C878 1.385 . S
C879 C880 1.389 . S
C880 C879 1.389 . S
C880 C881 1.387 . S
C881 H866 0.930 . S
C881 C876 1.390 . S
C881 C880 1.387 . S
H882 C894 0.930 . S
H883 C896 0.930 . S
H884 C897 0.930 . S
H885 C901 0.959 . S
H886 C901 0.959 . S
H887 C901 0.961 . S
H888 C902 0.960 . S
H889 C902 0.961 . S
H890 C902 0.959 . S
H891 C905 0.929 . S
H892 C906 0.931 . S
H893 C908 0.930 . S
C894 H882 0.930 . S
C894 C895 1.399 . S
C894 C899 1.399 . S
C895 C894 1.399 . S
C895 C896 1.376 . S
C896 H883 0.930 . S
C896 C895 1.376 . S
C896 C897 1.388 . S
C897 H884 0.930 . S
C897 C896 1.388 . S
C897 C898 1.390 . S
C898 C897 1.390 . S
C898 C899 1.394 . S
C898 C904 1.465 . S
C899 C894 1.399 . S
C899 C898 1.394 . S
C899 C900 1.516 . S
C900 C899 1.516 . S
C900 C901 1.502 . S
C900 C902 1.561 . S
C900 C903 1.526 . S
C901 H885 0.959 . S
C901 H886 0.959 . S
C901 H887 0.961 . S
C901 C900 1.502 . S
C902 H888 0.960 . S
C902 H889 0.961 . S
C902 H890 0.959 . S
C902 C900 1.561 . S
C903 C900 1.526 . S
C903 C904 1.396 . S
C903 C908 1.390 . S
C904 C898 1.465 . S
C904 C903 1.396 . S
C904 C905 1.399 . S
C905 H891 0.929 . S
C905 C904 1.399 . S
C905 C906 1.385 . S
C906 H892 0.931 . S
C906 C905 1.385 . S
C906 C907 1.389 . S
C907 C906 1.389 . S
C907 C908 1.387 . S
C908 H893 0.930 . S
C908 C903 1.390 . S
C908 C907 1.387 . S
H909 C921 0.930 . S
H910 C923 0.930 . S
H911 C924 0.930 . S
H912 C928 0.959 . S
H913 C928 0.959 . S
H914 C928 0.961 . S
H915 C929 0.960 . S
H916 C929 0.961 . S
H917 C929 0.959 . S
H918 C932 0.929 . S
H919 C933 0.931 . S
H920 C935 0.930 . S
C921 H909 0.930 . S
C921 C922 1.399 . S
C921 C926 1.399 . S
C922 C921 1.399 . S
C922 C923 1.376 . S
C923 H910 0.930 . S
C923 C922 1.376 . S
C923 C924 1.388 . S
C924 H911 0.930 . S
C924 C923 1.388 . S
C924 C925 1.390 . S
C925 C924 1.390 . S
C925 C926 1.394 . S
C925 C931 1.465 . S
C926 C921 1.399 . S
C926 C925 1.394 . S
C926 C927 1.516 . S
C927 C926 1.516 . S
C927 C928 1.502 . S
C927 C929 1.561 . S
C927 C930 1.526 . S
C928 H912 0.959 . S
C928 H913 0.959 . S
C928 H914 0.961 . S
C928 C927 1.502 . S
C929 H915 0.960 . S
C929 H916 0.961 . S
C929 H917 0.959 . S
C929 C927 1.561 . S
C930 C927 1.526 . S
C930 C931 1.396 . S
C930 C935 1.390 . S
C931 C925 1.465 . S
C931 C930 1.396 . S
C931 C932 1.399 . S
C932 H918 0.929 . S
C932 C931 1.399 . S
C932 C933 1.385 . S
C933 H919 0.931 . S
C933 C932 1.385 . S
C933 C934 1.389 . S
C934 C933 1.389 . S
C934 C935 1.387 . S
C935 H920 0.930 . S
C935 C930 1.390 . S
C935 C934 1.387 . S
H936 C948 0.930 . S
H937 C950 0.930 . S
H938 C951 0.930 . S
H939 C955 0.959 . S
H940 C955 0.959 . S
H941 C955 0.961 . S
H942 C956 0.960 . S
H943 C956 0.961 . S
H944 C956 0.959 . S
H945 C959 0.929 . S
H946 C960 0.931 . S
H947 C962 0.930 . S
C948 H936 0.930 . S
C948 C949 1.399 . S
C948 C953 1.399 . S
C949 C948 1.399 . S
C949 C950 1.376 . S
C950 H937 0.930 . S
C950 C949 1.376 . S
C950 C951 1.388 . S
C951 H938 0.930 . S
C951 C950 1.388 . S
C951 C952 1.390 . S
C952 C951 1.390 . S
C952 C953 1.394 . S
C952 C958 1.465 . S
C953 C948 1.399 . S
C953 C952 1.394 . S
C953 C954 1.516 . S
C954 C953 1.516 . S
C954 C955 1.502 . S
C954 C956 1.561 . S
C954 C957 1.526 . S
C955 H939 0.959 . S
C955 H940 0.959 . S
C955 H941 0.961 . S
C955 C954 1.502 . S
C956 H942 0.960 . S
C956 H943 0.961 . S
C956 H944 0.959 . S
C956 C954 1.561 . S
C957 C954 1.526 . S
C957 C958 1.396 . S
C957 C962 1.390 . S
C958 C952 1.465 . S
C958 C957 1.396 . S
C958 C959 1.399 . S
C959 H945 0.929 . S
C959 C958 1.399 . S
C959 C960 1.385 . S
C960 H946 0.931 . S
C960 C959 1.385 . S
C960 C961 1.389 . S
C961 C960 1.389 . S
C961 C962 1.387 . S
C962 H947 0.930 . S
C962 C957 1.390 . S
C962 C961 1.387 . S
H963 C975 0.930 . S
H964 C977 0.930 . S
H965 C978 0.930 . S
H966 C982 0.959 . S
H967 C982 0.959 . S
H968 C982 0.961 . S
H969 C983 0.960 . S
H970 C983 0.961 . S
H971 C983 0.959 . S
H972 C986 0.929 . S
H973 C987 0.931 . S
H974 C989 0.930 . S
C975 H963 0.930 . S
C975 C976 1.399 . S
C975 C980 1.399 . S
C976 C975 1.399 . S
C976 C977 1.376 . S
C977 H964 0.930 . S
C977 C976 1.376 . S
C977 C978 1.388 . S
C978 H965 0.930 . S
C978 C977 1.388 . S
C978 C979 1.390 . S
C979 C978 1.390 . S
C979 C980 1.394 . S
C979 C985 1.465 . S
C980 C975 1.399 . S
C980 C979 1.394 . S
C980 C981 1.516 . S
C981 C980 1.516 . S
C981 C982 1.502 . S
C981 C983 1.561 . S
C981 C984 1.526 . S
C982 H966 0.959 . S
C982 H967 0.959 . S
C982 H968 0.961 . S
C982 C981 1.502 . S
C983 H969 0.960 . S
C983 H970 0.961 . S
C983 H971 0.959 . S
C983 C981 1.561 . S
C984 C981 1.526 . S
C984 C985 1.396 . S
C984 C989 1.390 . S
C985 C979 1.465 . S
C985 C984 1.396 . S
C985 C986 1.399 . S
C986 H972 0.929 . S
C986 C985 1.399 . S
C986 C987 1.385 . S
C987 H973 0.931 . S
C987 C986 1.385 . S
C987 C988 1.389 . S
C988 C987 1.389 . S
C988 C989 1.387 . S
C989 H974 0.930 . S
C989 C984 1.390 . S
C989 C988 1.387 . S
H990 C1002 0.930 . S
H991 C1004 0.930 . S
H992 C1005 0.930 . S
H993 C1009 0.959 . S
H994 C1009 0.959 1_655 S
H995 C1009 0.961 . S
H996 C1010 0.960 1_455 S
H997 C1010 0.961 . S
H998 C1010 0.959 . S
H999 C1013 0.929 . S
H1000 C1014 0.931 . S
H1001 C1016 0.930 . S
C1002 H990 0.930 . S
C1002 C1003 1.399 . S
C1002 C1007 1.399 . S
C1003 C1002 1.399 . S
C1003 C1004 1.376 . S
C1004 H991 0.930 . S
C1004 C1003 1.376 . S
C1004 C1005 1.388 . S
C1005 H992 0.930 . S
C1005 C1004 1.388 . S
C1005 C1006 1.390 . S
C1006 C1005 1.390 . S
C1006 C1007 1.394 . S
C1006 C1012 1.465 1_454 S
C1007 C1002 1.399 . S
C1007 C1006 1.394 . S
C1007 C1008 1.516 1_455 S
C1008 C1007 1.516 1_655 S
C1008 C1009 1.502 1_654 S
C1008 C1010 1.561 . S
C1008 C1011 1.526 1_554 S
C1009 H993 0.959 . S
C1009 H994 0.959 1_455 S
C1009 H995 0.961 . S
C1009 C1008 1.502 1_456 S
C1010 H996 0.960 1_655 S
C1010 H997 0.961 . S
C1010 H998 0.959 . S
C1010 C1008 1.561 . S
C1011 C1008 1.526 1_556 S
C1011 C1012 1.396 . S
C1011 C1016 1.390 . S
C1012 C1006 1.465 1_656 S
C1012 C1011 1.396 . S
C1012 C1013 1.399 . S
C1013 H999 0.929 . S
C1013 C1012 1.399 . S
C1013 C1014 1.385 . S
C1014 H1000 0.931 . S
C1014 C1013 1.385 . S
C1014 C1015 1.389 . S
C1015 C1014 1.389 . S
C1015 C1016 1.387 . S
C1016 H1001 0.930 . S
C1016 C1011 1.390 . S
C1016 C1015 1.387 . S
H1017 C1029 0.930 . S
H1018 C1031 0.930 . S
H1019 C1032 0.930 . S
H1020 C1036 0.959 . S
H1021 C1036 0.959 . S
H1022 C1036 0.961 . S
H1023 C1037 0.960 . S
H1024 C1037 0.961 . S
H1025 C1037 0.959 . S
H1026 C1040 0.929 . S
H1027 C1041 0.931 . S
H1028 C1043 0.945 . S
C1029 H1017 0.930 . S
C1029 C1030 1.399 . S
C1029 C1034 1.399 . S
C1030 C1029 1.399 . S
C1030 C1031 1.376 1_556 S
C1031 H1018 0.930 . S
C1031 C1030 1.376 1_554 S
C1031 C1032 1.388 . S
C1032 H1019 0.930 . S
C1032 C1031 1.388 . S
C1032 C1033 1.390 . S
C1033 C1032 1.390 . S
C1033 C1034 1.394 1_554 S
C1033 C1039 1.465 . S
C1034 C1029 1.399 . S
C1034 C1033 1.394 1_556 S
C1034 C1035 1.516 . S
C1035 C1034 1.516 . S
C1035 C1036 1.502 . S
C1035 C1037 1.561 . S
C1035 C1038 1.526 . S
C1036 H1020 0.959 . S
C1036 H1021 0.959 . S
C1036 H1022 0.961 . S
C1036 C1035 1.502 . S
C1037 H1023 0.960 . S
C1037 H1024 0.961 . S
C1037 H1025 0.959 . S
C1037 C1035 1.561 . S
C1038 C1035 1.526 . S
C1038 C1039 1.396 1_556 S
C1038 C1043 1.393 . S
C1039 C1033 1.465 . S
C1039 C1038 1.396 1_554 S
C1039 C1040 1.399 . S
C1040 H1026 0.929 . S
C1040 C1039 1.399 . S
C1040 C1041 1.385 . S
C1041 H1027 0.931 . S
C1041 C1040 1.385 . S
C1041 C1042 1.389 . S
C1042 C1041 1.389 . S
C1042 C1043 1.368 1_554 S
C1043 H1028 0.945 . S
C1043 C1038 1.393 . S
C1043 C1042 1.368 1_556 S
H1044 C1056 0.930 . S
H1045 C1058 0.930 . S
H1046 C1059 0.930 . S
H1047 C1063 0.959 . S
H1048 C1063 0.959 . S
H1049 C1063 0.961 1_565 S
H1050 C1064 0.960 . S
H1051 C1064 0.961 . S
H1052 C1064 0.959 . S
H1053 C1067 0.929 . S
H1054 C1068 0.931 . S
H1055 C1070 0.935 . S
C1056 H1044 0.930 . S
C1056 C1057 1.399 . S
C1056 C1061 1.399 . S
C1057 C1056 1.399 . S
C1057 C1058 1.376 1_554 S
C1058 H1045 0.930 . S
C1058 C1057 1.376 1_556 S
C1058 C1059 1.388 . S
C1059 H1046 0.930 . S
C1059 C1058 1.388 . S
C1059 C1060 1.390 . S
C1060 C1059 1.390 . S
C1060 C1061 1.394 1_556 S
C1060 C1066 1.465 1_565 S
C1061 C1056 1.399 . S
C1061 C1060 1.394 1_554 S
C1061 C1062 1.516 1_565 S
C1062 C1061 1.516 1_545 S
C1062 C1063 1.502 . S
C1062 C1064 1.561 . S
C1062 C1065 1.526 . S
C1063 H1047 0.959 . S
C1063 H1048 0.959 . S
C1063 H1049 0.961 1_545 S
C1063 C1062 1.502 . S
C1064 H1050 0.960 . S
C1064 H1051 0.961 . S
C1064 H1052 0.959 . S
C1064 C1062 1.561 . S
C1065 C1062 1.526 . S
C1065 C1066 1.396 1_554 S
C1065 C1070 1.391 . S
C1066 C1060 1.465 1_545 S
C1066 C1065 1.396 1_556 S
C1066 C1067 1.399 . S
C1067 H1053 0.929 . S
C1067 C1066 1.399 . S
C1067 C1068 1.385 . S
C1068 H1054 0.931 . S
C1068 C1067 1.385 . S
C1068 C1069 1.389 . S
C1069 C1068 1.389 . S
C1069 C1070 1.381 1_556 S
C1070 H1055 0.935 . S
C1070 C1065 1.391 . S
C1070 C1069 1.381 1_554 S
H1071 C1083 0.930 . S
H1072 C1085 0.930 . S
H1073 C1086 0.930 . S
H1074 C1090 0.959 . S
H1075 C1090 0.959 . S
H1076 C1090 0.961 . S
H1077 C1091 0.913 1_655 S
H1078 C1091 0.961 . S
H1079 C1091 0.959 . S
H1080 C1094 0.929 . S
H1081 C1095 0.931 . S
H1082 C1097 0.930 . S
C1083 H1071 0.930 . S
C1083 C1084 1.399 . S
C1083 C1088 1.399 . S
C1084 C1083 1.399 . S
C1084 C1085 1.376 1_556 S
C1085 H1072 0.930 . S
C1085 C1084 1.376 1_554 S
C1085 C1086 1.388 . S
C1086 H1073 0.930 . S
C1086 C1085 1.388 . S
C1086 C1087 1.390 . S
C1087 C1086 1.390 . S
C1087 C1088 1.394 1_554 S
C1087 C1093 1.465 1_655 S
C1088 C1083 1.399 . S
C1088 C1087 1.394 1_556 S
C1088 C1089 1.516 1_655 S
C1089 C1088 1.516 1_455 S
C1089 C1090 1.502 . S
C1089 C1091 1.561 . S
C1089 C1092 1.526 . S
C1090 H1074 0.959 . S
C1090 H1075 0.959 . S
C1090 H1076 0.961 . S
C1090 C1089 1.502 . S
C1091 H1077 0.913 1_455 S
C1091 H1078 0.961 . S
C1091 H1079 0.959 . S
C1091 C1089 1.561 . S
C1092 C1089 1.526 . S
C1092 C1093 1.396 1_556 S
C1092 C1097 1.390 . S
C1093 C1087 1.465 1_455 S
C1093 C1092 1.396 1_554 S
C1093 C1094 1.399 . S
C1094 H1080 0.929 . S
C1094 C1093 1.399 . S
C1094 C1095 1.385 . S
C1095 H1081 0.931 . S
C1095 C1094 1.385 . S
C1095 C1096 1.389 . S
C1096 C1095 1.389 . S
C1096 C1097 1.387 1_554 S
C1097 H1082 0.930 . S
C1097 C1092 1.390 . S
C1097 C1096 1.387 1_556 S
H1098 C1110 0.930 . S
H1099 C1112 0.930 . S
H1100 C1113 0.930 . S
H1101 C1117 0.959 . S
H1102 C1117 0.959 . S
H1103 C1117 0.961 . S
H1104 C1118 0.960 . S
H1105 C1118 0.961 . S
H1106 C1118 0.959 . S
H1107 C1121 0.929 . S
H1108 C1122 0.931 . S
H1109 C1124 0.930 . S
C1110 H1098 0.930 . S
C1110 C1111 1.399 1_554 S
C1110 C1115 1.399 . S
C1111 C1110 1.399 1_556 S
C1111 C1112 1.376 . S
C1112 H1099 0.930 . S
C1112 C1111 1.376 . S
C1112 C1113 1.388 . S
C1113 H1100 0.930 . S
C1113 C1112 1.388 . S
C1113 C1114 1.390 . S
C1114 C1113 1.390 . S
C1114 C1115 1.394 1_556 S
C1114 C1120 1.465 . S
C1115 C1110 1.399 . S
C1115 C1114 1.394 1_554 S
C1115 C1116 1.516 . S
C1116 C1115 1.516 . S
C1116 C1117 1.502 . S
C1116 C1118 1.561 . S
C1116 C1119 1.526 . S
C1117 H1101 0.959 . S
C1117 H1102 0.959 . S
C1117 H1103 0.961 . S
C1117 C1116 1.502 . S
C1118 H1104 0.960 . S
C1118 H1105 0.961 . S
C1118 H1106 0.959 . S
C1118 C1116 1.561 . S
C1119 C1116 1.526 . S
C1119 C1120 1.396 1_554 S
C1119 C1124 1.390 . S
C1120 C1114 1.465 . S
C1120 C1119 1.396 1_556 S
C1120 C1121 1.399 . S
C1121 H1107 0.929 . S
C1121 C1120 1.399 . S
C1121 C1122 1.385 . S
C1122 H1108 0.931 . S
C1122 C1121 1.385 . S
C1122 C1123 1.389 1_556 S
C1123 C1122 1.389 1_554 S
C1123 C1124 1.387 . S
C1124 H1109 0.930 . S
C1124 C1119 1.390 . S
C1124 C1123 1.387 . S
H1125 C1137 0.930 . S
H1126 C1139 0.930 . S
H1127 C1140 0.930 . S
H1128 C1144 0.959 . S
H1129 C1144 0.959 . S
H1130 C1144 0.961 . S
H1131 C1145 0.960 . S
H1132 C1145 0.961 . S
H1133 C1145 0.959 . S
H1134 C1148 0.929 . S
H1135 C1149 0.931 . S
H1136 C1151 0.930 . S
C1137 H1125 0.930 . S
C1137 C1138 1.399 1_554 S
C1137 C1142 1.399 . S
C1138 C1137 1.399 1_556 S
C1138 C1139 1.376 . S
C1139 H1126 0.930 . S
C1139 C1138 1.376 . S
C1139 C1140 1.388 . S
C1140 H1127 0.930 . S
C1140 C1139 1.388 . S
C1140 C1141 1.390 . S
C1141 C1140 1.390 . S
C1141 C1142 1.394 1_556 S
C1141 C1147 1.465 1_545 S
C1142 C1137 1.399 . S
C1142 C1141 1.394 1_554 S
C1142 C1143 1.516 . S
C1143 C1142 1.516 . S
C1143 C1144 1.502 . S
C1143 C1145 1.561 . S
C1143 C1146 1.526 1_545 S
C1144 H1128 0.959 . S
C1144 H1129 0.959 . S
C1144 H1130 0.961 . S
C1144 C1143 1.502 . S
C1145 H1131 0.960 . S
C1145 H1132 0.961 . S
C1145 H1133 0.959 . S
C1145 C1143 1.561 . S
C1146 C1143 1.526 1_565 S
C1146 C1147 1.396 1_554 S
C1146 C1151 1.390 . S
C1147 C1141 1.465 1_565 S
C1147 C1146 1.396 1_556 S
C1147 C1148 1.399 . S
C1148 H1134 0.929 . S
C1148 C1147 1.399 . S
C1148 C1149 1.385 . S
C1149 H1135 0.931 . S
C1149 C1148 1.385 . S
C1149 C1150 1.389 1_556 S
C1150 C1149 1.389 1_554 S
C1150 C1151 1.387 . S
C1151 H1136 0.930 . S
C1151 C1146 1.390 . S
C1151 C1150 1.387 . S
H1152 C1164 0.930 . S
H1153 C1166 0.930 . S
H1154 C1167 0.930 . S
H1155 C1171 0.959 . S
H1156 C1171 0.959 . S
H1157 C1171 0.961 . S
H1158 C1172 0.960 . S
H1159 C1172 0.961 . S
H1160 C1172 0.959 . S
H1161 C1175 0.929 . S
H1162 C1176 0.931 . S
H1163 C1178 0.930 . S
C1164 H1152 0.930 . S
C1164 C1165 1.399 . S
C1164 C1169 1.399 . S
C1165 C1164 1.399 . S
C1165 C1166 1.376 . S
C1166 H1153 0.930 . S
C1166 C1165 1.376 . S
C1166 C1167 1.388 . S
C1167 H1154 0.930 . S
C1167 C1166 1.388 . S
C1167 C1168 1.390 . S
C1168 C1167 1.390 . S
C1168 C1169 1.394 . S
C1168 C1174 1.465 . S
C1169 C1164 1.399 . S
C1169 C1168 1.394 . S
C1169 C1170 1.516 . S
C1170 C1169 1.516 . S
C1170 C1171 1.502 . S
C1170 C1172 1.561 . S
C1170 C1173 1.526 . S
C1171 H1155 0.959 . S
C1171 H1156 0.959 . S
C1171 H1157 0.961 . S
C1171 C1170 1.502 . S
C1172 H1158 0.960 . S
C1172 H1159 0.961 . S
C1172 H1160 0.959 . S
C1172 C1170 1.561 . S
C1173 C1170 1.526 . S
C1173 C1174 1.396 . S
C1173 C1178 1.390 . S
C1174 C1168 1.465 . S
C1174 C1173 1.396 . S
C1174 C1175 1.399 . S
C1175 H1161 0.929 . S
C1175 C1174 1.399 . S
C1175 C1176 1.385 . S
C1176 H1162 0.931 . S
C1176 C1175 1.385 . S
C1176 C1177 1.389 . S
C1177 C1176 1.389 . S
C1177 C1178 1.387 . S
C1178 H1163 0.930 . S
C1178 C1173 1.390 . S
C1178 C1177 1.387 . S
H1179 C1191 0.930 . S
H1180 C1193 0.930 . S
H1181 C1194 0.930 . S
H1182 C1198 0.959 . S
H1183 C1198 0.959 . S
H1184 C1198 0.961 . S
H1185 C1199 0.960 . S
H1186 C1199 0.961 . S
H1187 C1199 0.959 . S
H1188 C1202 0.929 . S
H1189 C1203 0.931 . S
H1190 C1205 0.930 . S
C1191 H1179 0.930 . S
C1191 C1192 1.399 . S
C1191 C1196 1.399 . S
C1192 C1191 1.399 . S
C1192 C1193 1.376 . S
C1193 H1180 0.930 . S
C1193 C1192 1.376 . S
C1193 C1194 1.388 . S
C1194 H1181 0.930 . S
C1194 C1193 1.388 . S
C1194 C1195 1.390 . S
C1195 C1194 1.390 . S
C1195 C1196 1.394 . S
C1195 C1201 1.465 . S
C1196 C1191 1.399 . S
C1196 C1195 1.394 . S
C1196 C1197 1.516 . S
C1197 C1196 1.516 . S
C1197 C1198 1.502 . S
C1197 C1199 1.561 . S
C1197 C1200 1.526 . S
C1198 H1182 0.959 . S
C1198 H1183 0.959 . S
C1198 H1184 0.961 . S
C1198 C1197 1.502 . S
C1199 H1185 0.960 . S
C1199 H1186 0.961 . S
C1199 H1187 0.959 . S
C1199 C1197 1.561 . S
C1200 C1197 1.526 . S
C1200 C1201 1.396 . S
C1200 C1205 1.390 . S
C1201 C1195 1.465 . S
C1201 C1200 1.396 . S
C1201 C1202 1.399 . S
C1202 H1188 0.929 . S
C1202 C1201 1.399 . S
C1202 C1203 1.385 . S
C1203 H1189 0.931 . S
C1203 C1202 1.385 . S
C1203 C1204 1.389 . S
C1204 C1203 1.389 . S
C1204 C1205 1.387 . S
C1205 H1190 0.930 . S
C1205 C1200 1.390 . S
C1205 C1204 1.387 . S
H1206 C1218 0.930 . S
H1207 C1220 0.930 . S
H1208 C1221 0.930 . S
H1209 C1225 0.959 . S
H1210 C1225 0.959 . S
H1211 C1225 0.961 . S
H1212 C1226 0.960 . S
H1213 C1226 0.961 . S
H1214 C1226 0.959 . S
H1215 C1229 0.929 . S
H1216 C1230 0.931 . S
H1217 C1232 0.930 . S
C1218 H1206 0.930 . S
C1218 C1219 1.399 . S
C1218 C1223 1.399 . S
C1219 C1218 1.399 . S
C1219 C1220 1.376 . S
C1220 H1207 0.930 . S
C1220 C1219 1.376 . S
C1220 C1221 1.388 . S
C1221 H1208 0.930 . S
C1221 C1220 1.388 . S
C1221 C1222 1.390 . S
C1222 C1221 1.390 . S
C1222 C1223 1.394 . S
C1222 C1228 1.465 . S
C1223 C1218 1.399 . S
C1223 C1222 1.394 . S
C1223 C1224 1.516 . S
C1224 C1223 1.516 . S
C1224 C1225 1.502 . S
C1224 C1226 1.561 . S
C1224 C1227 1.526 . S
C1225 H1209 0.959 . S
C1225 H1210 0.959 . S
C1225 H1211 0.961 . S
C1225 C1224 1.502 . S
C1226 H1212 0.960 . S
C1226 H1213 0.961 . S
C1226 H1214 0.959 . S
C1226 C1224 1.561 . S
C1227 C1224 1.526 . S
C1227 C1228 1.396 . S
C1227 C1232 1.390 . S
C1228 C1222 1.465 . S
C1228 C1227 1.396 . S
C1228 C1229 1.399 . S
C1229 H1215 0.929 . S
C1229 C1228 1.399 . S
C1229 C1230 1.385 . S
C1230 H1216 0.931 . S
C1230 C1229 1.385 . S
C1230 C1231 1.389 . S
C1231 C1230 1.389 . S
C1231 C1232 1.387 . S
C1232 H1217 0.930 . S
C1232 C1227 1.390 . S
C1232 C1231 1.387 . S
H1233 C1245 0.930 . S
H1234 C1247 0.930 . S
H1235 C1248 0.930 . S
H1236 C1252 0.959 . S
H1237 C1252 0.959 . S
H1238 C1252 0.961 . S
H1239 C1253 0.960 . S
H1240 C1253 0.961 . S
H1241 C1253 0.959 . S
H1242 C1256 0.929 . S
H1243 C1257 0.931 . S
H1244 C1259 0.930 . S
C1245 H1233 0.930 . S
C1245 C1246 1.399 . S
C1245 C1250 1.399 . S
C1246 C1245 1.399 . S
C1246 C1247 1.376 . S
C1247 H1234 0.930 . S
C1247 C1246 1.376 . S
C1247 C1248 1.388 . S
C1248 H1235 0.930 . S
C1248 C1247 1.388 . S
C1248 C1249 1.390 . S
C1249 C1248 1.390 . S
C1249 C1250 1.394 . S
C1249 C1255 1.465 . S
C1250 C1245 1.399 . S
C1250 C1249 1.394 . S
C1250 C1251 1.516 . S
C1251 C1250 1.516 . S
C1251 C1252 1.502 . S
C1251 C1253 1.561 . S
C1251 C1254 1.526 . S
C1252 H1236 0.959 . S
C1252 H1237 0.959 . S
C1252 H1238 0.961 . S
C1252 C1251 1.502 . S
C1253 H1239 0.960 . S
C1253 H1240 0.961 . S
C1253 H1241 0.959 . S
C1253 C1251 1.561 . S
C1254 C1251 1.526 . S
C1254 C1255 1.396 . S
C1254 C1259 1.390 . S
C1255 C1249 1.465 . S
C1255 C1254 1.396 . S
C1255 C1256 1.399 . S
C1256 H1242 0.929 . S
C1256 C1255 1.399 . S
C1256 C1257 1.385 . S
C1257 H1243 0.931 . S
C1257 C1256 1.385 . S
C1257 C1258 1.389 . S
C1258 C1257 1.389 . S
C1258 C1259 1.387 . S
C1259 H1244 0.930 . S
C1259 C1254 1.390 . S
C1259 C1258 1.387 . S
H1260 C1272 0.930 . S
H1261 C1274 0.930 . S
H1262 C1275 0.930 . S
H1263 C1279 0.959 . S
H1264 C1279 0.959 . S
H1265 C1279 0.961 . S
H1266 C1280 0.960 . S
H1267 C1280 0.961 . S
H1268 C1280 0.959 . S
H1269 C1283 0.929 . S
H1270 C1284 0.931 . S
H1271 C1286 0.930 . S
C1272 H1260 0.930 . S
C1272 C1273 1.399 . S
C1272 C1277 1.399 . S
C1273 C1272 1.399 . S
C1273 C1274 1.376 . S
C1274 H1261 0.930 . S
C1274 C1273 1.376 . S
C1274 C1275 1.388 . S
C1275 H1262 0.930 . S
C1275 C1274 1.388 . S
C1275 C1276 1.390 . S
C1276 C1275 1.390 . S
C1276 C1277 1.394 . S
C1276 C1282 1.465 . S
C1277 C1272 1.399 . S
C1277 C1276 1.394 . S
C1277 C1278 1.516 . S
C1278 C1277 1.516 . S
C1278 C1279 1.502 . S
C1278 C1280 1.561 . S
C1278 C1281 1.526 . S
C1279 H1263 0.959 . S
C1279 H1264 0.959 . S
C1279 H1265 0.961 . S
C1279 C1278 1.502 . S
C1280 H1266 0.960 . S
C1280 H1267 0.961 . S
C1280 H1268 0.959 . S
C1280 C1278 1.561 . S
C1281 C1278 1.526 . S
C1281 C1282 1.396 . S
C1281 C1286 1.390 . S
C1282 C1276 1.465 . S
C1282 C1281 1.396 . S
C1282 C1283 1.399 . S
C1283 H1269 0.929 . S
C1283 C1282 1.399 . S
C1283 C1284 1.385 . S
C1284 H1270 0.931 . S
C1284 C1283 1.385 . S
C1284 C1285 1.389 . S
C1285 C1284 1.389 . S
C1285 C1286 1.387 . S
C1286 H1271 0.930 . S
C1286 C1281 1.390 . S
C1286 C1285 1.387 . S
H1287 C1299 0.930 . S
H1288 C1301 0.930 . S
H1289 C1302 0.930 . S
H1290 C1306 0.959 . S
H1291 C1306 0.959 . S
H1292 C1306 0.961 . S
H1293 C1307 0.960 . S
H1294 C1307 0.961 . S
H1295 C1307 0.959 . S
H1296 C1310 0.929 . S
H1297 C1311 0.931 . S
H1298 C1313 0.930 . S
C1299 H1287 0.930 . S
C1299 C1300 1.399 . S
C1299 C1304 1.399 . S
C1300 C1299 1.399 . S
C1300 C1301 1.376 . S
C1301 H1288 0.930 . S
C1301 C1300 1.376 . S
C1301 C1302 1.388 . S
C1302 H1289 0.930 . S
C1302 C1301 1.388 . S
C1302 C1303 1.390 . S
C1303 C1302 1.390 . S
C1303 C1304 1.394 . S
C1303 C1309 1.465 . S
C1304 C1299 1.399 . S
C1304 C1303 1.394 . S
C1304 C1305 1.516 . S
C1305 C1304 1.516 . S
C1305 C1306 1.502 . S
C1305 C1307 1.561 . S
C1305 C1308 1.526 . S
C1306 H1290 0.959 . S
C1306 H1291 0.959 . S
C1306 H1292 0.961 . S
C1306 C1305 1.502 . S
C1307 H1293 0.960 . S
C1307 H1294 0.961 . S
C1307 H1295 0.959 . S
C1307 C1305 1.561 . S
C1308 C1305 1.526 . S
C1308 C1309 1.396 . S
C1308 C1313 1.390 . S
C1309 C1303 1.465 . S
C1309 C1308 1.396 . S
C1309 C1310 1.399 . S
C1310 H1296 0.929 . S
C1310 C1309 1.399 . S
C1310 C1311 1.385 . S
C1311 H1297 0.931 . S
C1311 C1310 1.385 . S
C1311 C1312 1.389 . S
C1312 C1311 1.389 . S
C1312 C1313 1.387 . S
C1313 H1298 0.930 . S
C1313 C1308 1.390 . S
C1313 C1312 1.387 . S
H1314 C1326 0.930 . S
H1315 C1328 0.930 . S
H1316 C1329 0.930 . S
H1317 C1333 0.959 . S
H1318 C1333 0.959 . S
H1319 C1333 0.961 . S
H1320 C1334 0.960 . S
H1321 C1334 0.961 . S
H1322 C1334 0.959 . S
H1323 C1337 0.929 . S
H1324 C1338 0.931 . S
H1325 C1340 0.930 . S
C1326 H1314 0.930 . S
C1326 C1327 1.399 . S
C1326 C1331 1.399 . S
C1327 C1326 1.399 . S
C1327 C1328 1.376 . S
C1328 H1315 0.930 . S
C1328 C1327 1.376 . S
C1328 C1329 1.388 . S
C1329 H1316 0.930 . S
C1329 C1328 1.388 . S
C1329 C1330 1.390 . S
C1330 C1329 1.390 . S
C1330 C1331 1.394 . S
C1330 C1336 1.465 . S
C1331 C1326 1.399 . S
C1331 C1330 1.394 . S
C1331 C1332 1.516 . S
C1332 C1331 1.516 . S
C1332 C1333 1.502 . S
C1332 C1334 1.561 . S
C1332 C1335 1.526 . S
C1333 H1317 0.959 . S
C1333 H1318 0.959 . S
C1333 H1319 0.961 . S
C1333 C1332 1.502 . S
C1334 H1320 0.960 . S
C1334 H1321 0.961 . S
C1334 H1322 0.959 . S
C1334 C1332 1.561 . S
C1335 C1332 1.526 . S
C1335 C1336 1.396 . S
C1335 C1340 1.390 . S
C1336 C1330 1.465 . S
C1336 C1335 1.396 . S
C1336 C1337 1.399 . S
C1337 H1323 0.929 . S
C1337 C1336 1.399 . S
C1337 C1338 1.385 . S
C1338 H1324 0.931 . S
C1338 C1337 1.385 . S
C1338 C1339 1.389 . S
C1339 C1338 1.389 . S
C1339 C1340 1.387 . S
C1340 H1325 0.930 . S
C1340 C1335 1.390 . S
C1340 C1339 1.387 . S
H1341 C1353 0.930 . S
H1342 C1355 0.930 . S
H1343 C1356 0.930 . S
H1344 C1360 0.959 . S
H1345 C1360 0.959 . S
H1346 C1360 0.961 . S
H1347 C1361 0.960 . S
H1348 C1361 0.961 . S
H1349 C1361 0.959 . S
H1350 C1364 0.929 . S
H1351 C1365 0.931 . S
H1352 C1367 0.930 . S
C1353 H1341 0.930 . S
C1353 C1354 1.399 . S
C1353 C1358 1.399 . S
C1354 C1353 1.399 . S
C1354 C1355 1.376 . S
C1355 H1342 0.930 . S
C1355 C1354 1.376 . S
C1355 C1356 1.388 . S
C1356 H1343 0.930 . S
C1356 C1355 1.388 . S
C1356 C1357 1.390 . S
C1357 C1356 1.390 . S
C1357 C1358 1.394 . S
C1357 C1363 1.465 . S
C1358 C1353 1.399 . S
C1358 C1357 1.394 . S
C1358 C1359 1.516 . S
C1359 C1358 1.516 . S
C1359 C1360 1.502 . S
C1359 C1361 1.561 . S
C1359 C1362 1.526 . S
C1360 H1344 0.959 . S
C1360 H1345 0.959 . S
C1360 H1346 0.961 . S
C1360 C1359 1.502 . S
C1361 H1347 0.960 . S
C1361 H1348 0.961 . S
C1361 H1349 0.959 . S
C1361 C1359 1.561 . S
C1362 C1359 1.526 . S
C1362 C1363 1.396 . S
C1362 C1367 1.390 . S
C1363 C1357 1.465 . S
C1363 C1362 1.396 . S
C1363 C1364 1.399 . S
C1364 H1350 0.929 . S
C1364 C1363 1.399 . S
C1364 C1365 1.385 . S
C1365 H1351 0.931 . S
C1365 C1364 1.385 . S
C1365 C1366 1.389 . S
C1366 C1365 1.389 . S
C1366 C1367 1.387 . S
C1367 H1352 0.930 . S
C1367 C1362 1.390 . S
C1367 C1366 1.387 . S
H1368 C1380 0.930 . S
H1369 C1382 0.930 . S
H1370 C1383 0.930 . S
H1371 C1387 0.959 . S
H1372 C1387 0.959 . S
H1373 C1387 0.961 . S
H1374 C1388 0.960 . S
H1375 C1388 0.961 . S
H1376 C1388 0.959 . S
H1377 C1391 0.929 . S
H1378 C1392 0.931 . S
H1379 C1394 0.930 . S
C1380 H1368 0.930 . S
C1380 C1381 1.399 . S
C1380 C1385 1.399 . S
C1381 C1380 1.399 . S
C1381 C1382 1.376 . S
C1382 H1369 0.930 . S
C1382 C1381 1.376 . S
C1382 C1383 1.388 . S
C1383 H1370 0.930 . S
C1383 C1382 1.388 . S
C1383 C1384 1.390 . S
C1384 C1383 1.390 . S
C1384 C1385 1.394 . S
C1384 C1390 1.465 . S
C1385 C1380 1.399 . S
C1385 C1384 1.394 . S
C1385 C1386 1.516 . S
C1386 C1385 1.516 . S
C1386 C1387 1.502 . S
C1386 C1388 1.561 . S
C1386 C1389 1.526 . S
C1387 H1371 0.959 . S
C1387 H1372 0.959 . S
C1387 H1373 0.961 . S
C1387 C1386 1.502 . S
C1388 H1374 0.960 . S
C1388 H1375 0.961 . S
C1388 H1376 0.959 . S
C1388 C1386 1.561 . S
C1389 C1386 1.526 . S
C1389 C1390 1.396 . S
C1389 C1394 1.390 . S
C1390 C1384 1.465 . S
C1390 C1389 1.396 . S
C1390 C1391 1.399 . S
C1391 H1377 0.929 . S
C1391 C1390 1.399 . S
C1391 C1392 1.385 . S
C1392 H1378 0.931 . S
C1392 C1391 1.385 . S
C1392 C1393 1.389 . S
C1393 C1392 1.389 . S
C1393 C1394 1.387 . S
C1394 H1379 0.930 . S
C1394 C1389 1.390 . S
C1394 C1393 1.387 . S
H1395 C1407 0.930 . S
H1396 C1409 0.930 . S
H1397 C1410 0.930 . S
H1398 C1414 0.959 . S
H1399 C1414 0.959 . S
H1400 C1414 0.961 . S
H1401 C1415 0.960 . S
H1402 C1415 0.961 . S
H1403 C1415 0.959 . S
H1404 C1418 0.929 . S
H1405 C1419 0.931 . S
H1406 C1421 0.930 . S
C1407 H1395 0.930 . S
C1407 C1408 1.399 . S
C1407 C1412 1.399 . S
C1408 C1407 1.399 . S
C1408 C1409 1.376 . S
C1409 H1396 0.930 . S
C1409 C1408 1.376 . S
C1409 C1410 1.388 . S
C1410 H1397 0.930 . S
C1410 C1409 1.388 . S
C1410 C1411 1.390 . S
C1411 C1410 1.390 . S
C1411 C1412 1.394 . S
C1411 C1417 1.465 . S
C1412 C1407 1.399 . S
C1412 C1411 1.394 . S
C1412 C1413 1.516 . S
C1413 C1412 1.516 . S
C1413 C1414 1.502 . S
C1413 C1415 1.561 . S
C1413 C1416 1.526 . S
C1414 H1398 0.959 . S
C1414 H1399 0.959 . S
C1414 H1400 0.961 . S
C1414 C1413 1.502 . S
C1415 H1401 0.960 . S
C1415 H1402 0.961 . S
C1415 H1403 0.959 . S
C1415 C1413 1.561 . S
C1416 C1413 1.526 . S
C1416 C1417 1.396 . S
C1416 C1421 1.390 . S
C1417 C1411 1.465 . S
C1417 C1416 1.396 . S
C1417 C1418 1.399 . S
C1418 H1404 0.929 . S
C1418 C1417 1.399 . S
C1418 C1419 1.385 . S
C1419 H1405 0.931 . S
C1419 C1418 1.385 . S
C1419 C1420 1.389 . S
C1420 C1419 1.389 . S
C1420 C1421 1.387 . S
C1421 H1406 0.930 . S
C1421 C1416 1.390 . S
C1421 C1420 1.387 . S
H1422 C1434 0.930 . S
H1423 C1436 0.930 . S
H1424 C1437 0.930 . S
H1425 C1441 0.959 . S
H1426 C1441 0.959 . S
H1427 C1441 0.961 . S
H1428 C1442 0.960 . S
H1429 C1442 0.961 . S
H1430 C1442 0.959 . S
H1431 C1445 0.929 . S
H1432 C1446 0.931 . S
H1433 C1448 0.930 . S
C1434 H1422 0.930 . S
C1434 C1435 1.399 . S
C1434 C1439 1.399 . S
C1435 C1434 1.399 . S
C1435 C1436 1.376 . S
C1436 H1423 0.930 . S
C1436 C1435 1.376 . S
C1436 C1437 1.388 . S
C1437 H1424 0.930 . S
C1437 C1436 1.388 . S
C1437 C1438 1.390 . S
C1438 C1437 1.390 . S
C1438 C1439 1.394 . S
C1438 C1444 1.465 . S
C1439 C1434 1.399 . S
C1439 C1438 1.394 . S
C1439 C1440 1.516 . S
C1440 C1439 1.516 . S
C1440 C1441 1.502 . S
C1440 C1442 1.561 . S
C1440 C1443 1.526 . S
C1441 H1425 0.959 . S
C1441 H1426 0.959 . S
C1441 H1427 0.961 . S
C1441 C1440 1.502 . S
C1442 H1428 0.960 . S
C1442 H1429 0.961 . S
C1442 H1430 0.959 . S
C1442 C1440 1.561 . S
C1443 C1440 1.526 . S
C1443 C1444 1.396 . S
C1443 C1448 1.390 . S
C1444 C1438 1.465 . S
C1444 C1443 1.396 . S
C1444 C1445 1.399 . S
C1445 H1431 0.929 . S
C1445 C1444 1.399 . S
C1445 C1446 1.385 . S
C1446 H1432 0.931 . S
C1446 C1445 1.385 . S
C1446 C1447 1.389 . S
C1447 C1446 1.389 . S
C1447 C1448 1.387 . S
C1448 H1433 0.930 . S
C1448 C1443 1.390 . S
C1448 C1447 1.387 . S
H1449 C1461 0.930 . S
H1450 C1463 0.930 . S
H1451 C1464 0.930 . S
H1452 C1468 0.959 . S
H1453 C1468 0.959 . S
H1454 C1468 0.961 . S
H1455 C1469 0.960 . S
H1456 C1469 0.961 . S
H1457 C1469 0.959 . S
H1458 C1472 0.929 . S
H1459 C1473 0.931 . S
H1460 C1475 0.930 . S
C1461 H1449 0.930 . S
C1461 C1462 1.399 . S
C1461 C1466 1.399 . S
C1462 C1461 1.399 . S
C1462 C1463 1.376 . S
C1463 H1450 0.930 . S
C1463 C1462 1.376 . S
C1463 C1464 1.388 . S
C1464 H1451 0.930 . S
C1464 C1463 1.388 . S
C1464 C1465 1.390 . S
C1465 C1464 1.390 . S
C1465 C1466 1.394 . S
C1465 C1471 1.465 . S
C1466 C1461 1.399 . S
C1466 C1465 1.394 . S
C1466 C1467 1.516 . S
C1467 C1466 1.516 . S
C1467 C1468 1.502 . S
C1467 C1469 1.561 . S
C1467 C1470 1.526 . S
C1468 H1452 0.959 . S
C1468 H1453 0.959 . S
C1468 H1454 0.961 . S
C1468 C1467 1.502 . S
C1469 H1455 0.960 . S
C1469 H1456 0.961 . S
C1469 H1457 0.959 . S
C1469 C1467 1.561 . S
C1470 C1467 1.526 . S
C1470 C1471 1.396 . S
C1470 C1475 1.390 . S
C1471 C1465 1.465 . S
C1471 C1470 1.396 . S
C1471 C1472 1.399 . S
C1472 H1458 0.929 . S
C1472 C1471 1.399 . S
C1472 C1473 1.385 . S
C1473 H1459 0.931 . S
C1473 C1472 1.385 . S
C1473 C1474 1.389 . S
C1474 C1473 1.389 . S
C1474 C1475 1.387 . S
C1475 H1460 0.930 . S
C1475 C1470 1.390 . S
C1475 C1474 1.387 . S
H1476 C1488 0.930 . S
H1477 C1490 0.930 . S
H1478 C1491 0.930 . S
H1479 C1495 0.959 . S
H1480 C1495 0.959 . S
H1481 C1495 0.961 . S
H1482 C1496 0.960 . S
H1483 C1496 0.961 . S
H1484 C1496 0.959 . S
H1485 C1499 0.929 . S
H1486 C1500 0.931 . S
H1487 C1502 0.930 . S
C1488 H1476 0.930 . S
C1488 C1489 1.399 . S
C1488 C1493 1.399 . S
C1489 C1488 1.399 . S
C1489 C1490 1.376 . S
C1490 H1477 0.930 . S
C1490 C1489 1.376 . S
C1490 C1491 1.388 . S
C1491 H1478 0.930 . S
C1491 C1490 1.388 . S
C1491 C1492 1.390 . S
C1492 C1491 1.390 . S
C1492 C1493 1.394 . S
C1492 C1498 1.465 . S
C1493 C1488 1.399 . S
C1493 C1492 1.394 . S
C1493 C1494 1.516 . S
C1494 C1493 1.516 . S
C1494 C1495 1.502 . S
C1494 C1496 1.561 . S
C1494 C1497 1.526 . S
C1495 H1479 0.959 . S
C1495 H1480 0.959 . S
C1495 H1481 0.961 . S
C1495 C1494 1.502 . S
C1496 H1482 0.960 . S
C1496 H1483 0.961 . S
C1496 H1484 0.959 . S
C1496 C1494 1.561 . S
C1497 C1494 1.526 . S
C1497 C1498 1.396 . S
C1497 C1502 1.390 . S
C1498 C1492 1.465 . S
C1498 C1497 1.396 . S
C1498 C1499 1.399 . S
C1499 H1485 0.929 . S
C1499 C1498 1.399 . S
C1499 C1500 1.385 . S
C1500 H1486 0.931 . S
C1500 C1499 1.385 . S
C1500 C1501 1.389 . S
C1501 C1500 1.389 . S
C1501 C1502 1.387 . S
C1502 H1487 0.930 . S
C1502 C1497 1.390 . S
C1502 C1501 1.387 . S
H1503 C1515 0.930 . S
H1504 C1517 0.930 . S
H1505 C1518 0.930 . S
H1506 C1522 0.959 . S
H1507 C1522 0.959 . S
H1508 C1522 0.961 . S
H1509 C1523 0.960 . S
H1510 C1523 0.961 . S
H1511 C1523 0.959 . S
H1512 C1526 0.929 . S
H1513 C1527 0.931 . S
H1514 C1529 0.930 . S
C1515 H1503 0.930 . S
C1515 C1516 1.399 . S
C1515 C1520 1.399 . S
C1516 C1515 1.399 . S
C1516 C1517 1.376 . S
C1517 H1504 0.930 . S
C1517 C1516 1.376 . S
C1517 C1518 1.388 . S
C1518 H1505 0.930 . S
C1518 C1517 1.388 . S
C1518 C1519 1.390 . S
C1519 C1518 1.390 . S
C1519 C1520 1.394 . S
C1519 C1525 1.465 . S
C1520 C1515 1.399 . S
C1520 C1519 1.394 . S
C1520 C1521 1.516 . S
C1521 C1520 1.516 . S
C1521 C1522 1.502 . S
C1521 C1523 1.561 . S
C1521 C1524 1.526 . S
C1522 H1506 0.959 . S
C1522 H1507 0.959 . S
C1522 H1508 0.961 . S
C1522 C1521 1.502 . S
C1523 H1509 0.960 . S
C1523 H1510 0.961 . S
C1523 H1511 0.959 . S
C1523 C1521 1.561 . S
C1524 C1521 1.526 . S
C1524 C1525 1.396 . S
C1524 C1529 1.390 . S
C1525 C1519 1.465 . S
C1525 C1524 1.396 . S
C1525 C1526 1.399 . S
C1526 H1512 0.929 . S
C1526 C1525 1.399 . S
C1526 C1527 1.385 . S
C1527 H1513 0.931 . S
C1527 C1526 1.385 . S
C1527 C1528 1.389 . S
C1528 C1527 1.389 . S
C1528 C1529 1.387 . S
C1529 H1514 0.930 . S
C1529 C1524 1.390 . S
C1529 C1528 1.387 . S
H1530 C1542 0.930 . S
H1531 C1544 0.930 . S
H1532 C1545 0.930 . S
H1533 C1549 0.959 . S
H1534 C1549 0.959 . S
H1535 C1549 0.961 . S
H1536 C1550 0.960 . S
H1537 C1550 0.961 . S
H1538 C1550 0.959 . S
H1539 C1553 0.929 . S
H1540 C1554 0.931 . S
H1541 C1556 0.930 . S
C1542 H1530 0.930 . S
C1542 C1543 1.399 . S
C1542 C1547 1.399 . S
C1543 C1542 1.399 . S
C1543 C1544 1.376 . S
C1544 H1531 0.930 . S
C1544 C1543 1.376 . S
C1544 C1545 1.388 . S
C1545 H1532 0.930 . S
C1545 C1544 1.388 . S
C1545 C1546 1.390 . S
C1546 C1545 1.390 . S
C1546 C1547 1.394 . S
C1546 C1552 1.465 . S
C1547 C1542 1.399 . S
C1547 C1546 1.394 . S
C1547 C1548 1.516 . S
C1548 C1547 1.516 . S
C1548 C1549 1.502 . S
C1548 C1550 1.561 . S
C1548 C1551 1.526 . S
C1549 H1533 0.959 . S
C1549 H1534 0.959 . S
C1549 H1535 0.961 . S
C1549 C1548 1.502 . S
C1550 H1536 0.960 . S
C1550 H1537 0.961 . S
C1550 H1538 0.959 . S
C1550 C1548 1.561 . S
C1551 C1548 1.526 . S
C1551 C1552 1.396 . S
C1551 C1556 1.390 . S
C1552 C1546 1.465 . S
C1552 C1551 1.396 . S
C1552 C1553 1.399 . S
C1553 H1539 0.929 . S
C1553 C1552 1.399 . S
C1553 C1554 1.385 . S
C1554 H1540 0.931 . S
C1554 C1553 1.385 . S
C1554 C1555 1.389 . S
C1555 C1554 1.389 . S
C1555 C1556 1.387 . S
C1556 H1541 0.930 . S
C1556 C1551 1.390 . S
C1556 C1555 1.387 . S
H1557 C1569 0.930 . S
H1558 C1571 0.930 . S
H1559 C1572 0.930 . S
H1560 C1576 0.959 . S
H1561 C1576 0.959 . S
H1562 C1576 0.961 . S
H1563 C1577 0.960 . S
H1564 C1577 0.961 . S
H1565 C1577 0.959 . S
H1566 C1580 0.929 . S
H1567 C1581 0.931 . S
H1568 C1583 0.930 . S
C1569 H1557 0.930 . S
C1569 C1570 1.399 . S
C1569 C1574 1.399 . S
C1570 C1569 1.399 . S
C1570 C1571 1.376 . S
C1571 H1558 0.930 . S
C1571 C1570 1.376 . S
C1571 C1572 1.388 . S
C1572 H1559 0.930 . S
C1572 C1571 1.388 . S
C1572 C1573 1.390 . S
C1573 C1572 1.390 . S
C1573 C1574 1.394 . S
C1573 C1579 1.465 . S
C1574 C1569 1.399 . S
C1574 C1573 1.394 . S
C1574 C1575 1.516 . S
C1575 C1574 1.516 . S
C1575 C1576 1.502 . S
C1575 C1577 1.561 . S
C1575 C1578 1.526 . S
C1576 H1560 0.959 . S
C1576 H1561 0.959 . S
C1576 H1562 0.961 . S
C1576 C1575 1.502 . S
C1577 H1563 0.960 . S
C1577 H1564 0.961 . S
C1577 H1565 0.959 . S
C1577 C1575 1.561 . S
C1578 C1575 1.526 . S
C1578 C1579 1.396 . S
C1578 C1583 1.390 . S
C1579 C1573 1.465 . S
C1579 C1578 1.396 . S
C1579 C1580 1.399 . S
C1580 H1566 0.929 . S
C1580 C1579 1.399 . S
C1580 C1581 1.385 . S
C1581 H1567 0.931 . S
C1581 C1580 1.385 . S
C1581 C1582 1.389 . S
C1582 C1581 1.389 . S
C1582 C1583 1.387 . S
C1583 H1568 0.930 . S
C1583 C1578 1.390 . S
C1583 C1582 1.387 . S
H1584 C1596 0.930 . S
H1585 C1598 0.930 . S
H1586 C1599 0.930 . S
H1587 C1603 0.959 . S
H1588 C1603 0.959 . S
H1589 C1603 0.961 . S
H1590 C1604 0.960 . S
H1591 C1604 0.961 . S
H1592 C1604 0.959 . S
H1593 C1607 0.929 . S
H1594 C1608 0.931 . S
H1595 C1610 0.930 . S
C1596 H1584 0.930 . S
C1596 C1597 1.399 . S
C1596 C1601 1.399 . S
C1597 C1596 1.399 . S
C1597 C1598 1.376 . S
C1598 H1585 0.930 . S
C1598 C1597 1.376 . S
C1598 C1599 1.388 . S
C1599 H1586 0.930 . S
C1599 C1598 1.388 . S
C1599 C1600 1.390 . S
C1600 C1599 1.390 . S
C1600 C1601 1.394 . S
C1600 C1606 1.465 . S
C1601 C1596 1.399 . S
C1601 C1600 1.394 . S
C1601 C1602 1.516 . S
C1602 C1601 1.516 . S
C1602 C1603 1.502 . S
C1602 C1604 1.561 . S
C1602 C1605 1.526 . S
C1603 H1587 0.959 . S
C1603 H1588 0.959 . S
C1603 H1589 0.961 . S
C1603 C1602 1.502 . S
C1604 H1590 0.960 . S
C1604 H1591 0.961 . S
C1604 H1592 0.959 . S
C1604 C1602 1.561 . S
C1605 C1602 1.526 . S
C1605 C1606 1.396 . S
C1605 C1610 1.390 . S
C1606 C1600 1.465 . S
C1606 C1605 1.396 . S
C1606 C1607 1.399 . S
C1607 H1593 0.929 . S
C1607 C1606 1.399 . S
C1607 C1608 1.385 . S
C1608 H1594 0.931 . S
C1608 C1607 1.385 . S
C1608 C1609 1.389 . S
C1609 C1608 1.389 . S
C1609 C1610 1.387 . S
C1610 H1595 0.930 . S
C1610 C1605 1.390 . S
C1610 C1609 1.387 . S
H1611 C1623 0.930 . S
H1612 C1625 0.930 . S
H1613 C1626 0.930 . S
H1614 C1630 0.959 . S
H1615 C1630 0.959 . S
H1616 C1630 0.961 . S
H1617 C1631 0.960 . S
H1618 C1631 0.961 . S
H1619 C1631 0.959 . S
H1620 C1634 0.929 . S
H1621 C1635 0.931 . S
H1622 C1637 0.930 . S
C1623 H1611 0.930 . S
C1623 C1624 1.399 . S
C1623 C1628 1.399 . S
C1624 C1623 1.399 . S
C1624 C1625 1.376 . S
C1625 H1612 0.930 . S
C1625 C1624 1.376 . S
C1625 C1626 1.388 . S
C1626 H1613 0.930 . S
C1626 C1625 1.388 . S
C1626 C1627 1.390 . S
C1627 C1626 1.390 . S
C1627 C1628 1.394 . S
C1627 C1633 1.465 . S
C1628 C1623 1.399 . S
C1628 C1627 1.394 . S
C1628 C1629 1.516 . S
C1629 C1628 1.516 . S
C1629 C1630 1.502 . S
C1629 C1631 1.561 . S
C1629 C1632 1.526 . S
C1630 H1614 0.959 . S
C1630 H1615 0.959 . S
C1630 H1616 0.961 . S
C1630 C1629 1.502 . S
C1631 H1617 0.960 . S
C1631 H1618 0.961 . S
C1631 H1619 0.959 . S
C1631 C1629 1.561 . S
C1632 C1629 1.526 . S
C1632 C1633 1.396 . S
C1632 C1637 1.390 . S
C1633 C1627 1.465 . S
C1633 C1632 1.396 . S
C1633 C1634 1.399 . S
C1634 H1620 0.929 . S
C1634 C1633 1.399 . S
C1634 C1635 1.385 . S
C1635 H1621 0.931 . S
C1635 C1634 1.385 . S
C1635 C1636 1.389 . S
C1636 C1635 1.389 . S
C1636 C1637 1.387 . S
C1637 H1622 0.930 . S
C1637 C1632 1.390 . S
C1637 C1636 1.387 . S
H1638 C1650 0.930 . S
H1639 C1652 0.930 . S
H1640 C1653 0.930 . S
H1641 C1657 0.959 . S
H1642 C1657 0.959 . S
H1643 C1657 0.961 . S
H1644 C1658 0.960 . S
H1645 C1658 0.961 . S
H1646 C1658 0.959 . S
H1647 C1661 0.929 . S
H1648 C1662 0.931 . S
H1649 C1664 0.930 . S
C1650 H1638 0.930 . S
C1650 C1651 1.399 . S
C1650 C1655 1.399 . S
C1651 C1650 1.399 . S
C1651 C1652 1.376 . S
C1652 H1639 0.930 . S
C1652 C1651 1.376 . S
C1652 C1653 1.388 . S
C1653 H1640 0.930 . S
C1653 C1652 1.388 . S
C1653 C1654 1.390 . S
C1654 C1653 1.390 . S
C1654 C1655 1.394 . S
C1654 C1660 1.465 . S
C1655 C1650 1.399 . S
C1655 C1654 1.394 . S
C1655 C1656 1.516 . S
C1656 C1655 1.516 . S
C1656 C1657 1.502 . S
C1656 C1658 1.561 . S
C1656 C1659 1.526 . S
C1657 H1641 0.959 . S
C1657 H1642 0.959 . S
C1657 H1643 0.961 . S
C1657 C1656 1.502 . S
C1658 H1644 0.960 . S
C1658 H1645 0.961 . S
C1658 H1646 0.959 . S
C1658 C1656 1.561 . S
C1659 C1656 1.526 . S
C1659 C1660 1.396 . S
C1659 C1664 1.390 . S
C1660 C1654 1.465 . S
C1660 C1659 1.396 . S
C1660 C1661 1.399 . S
C1661 H1647 0.929 . S
C1661 C1660 1.399 . S
C1661 C1662 1.385 . S
C1662 H1648 0.931 . S
C1662 C1661 1.385 . S
C1662 C1663 1.389 . S
C1663 C1662 1.389 . S
C1663 C1664 1.387 . S
C1664 H1649 0.930 . S
C1664 C1659 1.390 . S
C1664 C1663 1.387 . S
H1665 C1677 0.930 . S
H1666 C1679 0.930 . S
H1667 C1680 0.930 . S
H1668 C1684 0.959 . S
H1669 C1684 0.959 . S
H1670 C1684 0.961 . S
H1671 C1685 0.960 . S
H1672 C1685 0.961 . S
H1673 C1685 0.959 . S
H1674 C1688 0.929 . S
H1675 C1689 0.931 . S
H1676 C1691 0.930 . S
C1677 H1665 0.930 . S
C1677 C1678 1.399 . S
C1677 C1682 1.399 . S
C1678 C1677 1.399 . S
C1678 C1679 1.376 . S
C1679 H1666 0.930 . S
C1679 C1678 1.376 . S
C1679 C1680 1.388 . S
C1680 H1667 0.930 . S
C1680 C1679 1.388 . S
C1680 C1681 1.390 . S
C1681 C1680 1.390 . S
C1681 C1682 1.394 . S
C1681 C1687 1.465 . S
C1682 C1677 1.399 . S
C1682 C1681 1.394 . S
C1682 C1683 1.516 . S
C1683 C1682 1.516 . S
C1683 C1684 1.502 . S
C1683 C1685 1.561 . S
C1683 C1686 1.526 . S
C1684 H1668 0.959 . S
C1684 H1669 0.959 . S
C1684 H1670 0.961 . S
C1684 C1683 1.502 . S
C1685 H1671 0.960 . S
C1685 H1672 0.961 . S
C1685 H1673 0.959 . S
C1685 C1683 1.561 . S
C1686 C1683 1.526 . S
C1686 C1687 1.396 . S
C1686 C1691 1.390 . S
C1687 C1681 1.465 . S
C1687 C1686 1.396 . S
C1687 C1688 1.399 . S
C1688 H1674 0.929 . S
C1688 C1687 1.399 . S
C1688 C1689 1.385 . S
C1689 H1675 0.931 . S
C1689 C1688 1.385 . S
C1689 C1690 1.389 . S
C1690 C1689 1.389 . S
C1690 C1691 1.387 . S
C1691 H1676 0.930 . S
C1691 C1686 1.390 . S
C1691 C1690 1.387 . S
H1692 C1704 0.930 . S
H1693 C1706 0.930 . S
H1694 C1707 0.930 . S
H1695 C1711 0.959 . S
H1696 C1711 0.959 . S
H1697 C1711 0.961 . S
H1698 C1712 0.960 . S
H1699 C1712 0.961 . S
H1700 C1712 0.959 . S
H1701 C1715 0.929 . S
H1702 C1716 0.931 . S
H1703 C1718 0.930 . S
C1704 H1692 0.930 . S
C1704 C1705 1.399 . S
C1704 C1709 1.399 . S
C1705 C1704 1.399 . S
C1705 C1706 1.376 . S
C1706 H1693 0.930 . S
C1706 C1705 1.376 . S
C1706 C1707 1.388 . S
C1707 H1694 0.930 . S
C1707 C1706 1.388 . S
C1707 C1708 1.390 . S
C1708 C1707 1.390 . S
C1708 C1709 1.394 . S
C1708 C1714 1.465 . S
C1709 C1704 1.399 . S
C1709 C1708 1.394 . S
C1709 C1710 1.516 . S
C1710 C1709 1.516 . S
C1710 C1711 1.502 . S
C1710 C1712 1.561 . S
C1710 C1713 1.526 . S
C1711 H1695 0.959 . S
C1711 H1696 0.959 . S
C1711 H1697 0.961 . S
C1711 C1710 1.502 . S
C1712 H1698 0.960 . S
C1712 H1699 0.961 . S
C1712 H1700 0.959 . S
C1712 C1710 1.561 . S
C1713 C1710 1.526 . S
C1713 C1714 1.396 . S
C1713 C1718 1.390 . S
C1714 C1708 1.465 . S
C1714 C1713 1.396 . S
C1714 C1715 1.399 . S
C1715 H1701 0.929 . S
C1715 C1714 1.399 . S
C1715 C1716 1.385 . S
C1716 H1702 0.931 . S
C1716 C1715 1.385 . S
C1716 C1717 1.389 . S
C1717 C1716 1.389 . S
C1717 C1718 1.387 . S
C1718 H1703 0.930 . S
C1718 C1713 1.390 . S
C1718 C1717 1.387 . S
H1719 C1731 0.930 . S
H1720 C1733 0.930 . S
H1721 C1734 0.930 . S
H1722 C1738 0.959 . S
H1723 C1738 0.959 . S
H1724 C1738 0.961 . S
H1725 C1739 0.960 . S
H1726 C1739 0.961 . S
H1727 C1739 0.959 . S
H1728 C1742 0.929 . S
H1729 C1743 0.931 . S
H1730 C1745 0.930 . S
C1731 H1719 0.930 . S
C1731 C1732 1.399 . S
C1731 C1736 1.399 . S
C1732 C1731 1.399 . S
C1732 C1733 1.376 . S
C1733 H1720 0.930 . S
C1733 C1732 1.376 . S
C1733 C1734 1.388 . S
C1734 H1721 0.930 . S
C1734 C1733 1.388 . S
C1734 C1735 1.390 . S
C1735 C1734 1.390 . S
C1735 C1736 1.394 . S
C1735 C1741 1.465 . S
C1736 C1731 1.399 . S
C1736 C1735 1.394 . S
C1736 C1737 1.516 . S
C1737 C1736 1.516 . S
C1737 C1738 1.502 . S
C1737 C1739 1.561 . S
C1737 C1740 1.526 . S
C1738 H1722 0.959 . S
C1738 H1723 0.959 . S
C1738 H1724 0.961 . S
C1738 C1737 1.502 . S
C1739 H1725 0.960 . S
C1739 H1726 0.961 . S
C1739 H1727 0.959 . S
C1739 C1737 1.561 . S
C1740 C1737 1.526 . S
C1740 C1741 1.396 . S
C1740 C1745 1.390 . S
C1741 C1735 1.465 . S
C1741 C1740 1.396 . S
C1741 C1742 1.399 . S
C1742 H1728 0.929 . S
C1742 C1741 1.399 . S
C1742 C1743 1.385 . S
C1743 H1729 0.931 . S
C1743 C1742 1.385 . S
C1743 C1744 1.389 . S
C1744 C1743 1.389 . S
C1744 C1745 1.387 . S
C1745 H1730 0.930 . S
C1745 C1740 1.390 . S
C1745 C1744 1.387 . S
H1746 C1758 0.930 . S
H1747 C1760 0.930 . S
H1748 C1761 0.930 . S
H1749 C1765 0.959 . S
H1750 C1765 0.959 . S
H1751 C1765 0.961 . S
H1752 C1766 0.960 . S
H1753 C1766 0.961 . S
H1754 C1766 0.959 . S
H1755 C1769 0.929 . S
H1756 C1770 0.931 . S
H1757 C1772 0.930 . S
C1758 H1746 0.930 . S
C1758 C1759 1.399 . S
C1758 C1763 1.399 . S
C1759 C1758 1.399 . S
C1759 C1760 1.376 . S
C1760 H1747 0.930 . S
C1760 C1759 1.376 . S
C1760 C1761 1.388 . S
C1761 H1748 0.930 . S
C1761 C1760 1.388 . S
C1761 C1762 1.390 . S
C1762 C1761 1.390 . S
C1762 C1763 1.394 . S
C1762 C1768 1.465 . S
C1763 C1758 1.399 . S
C1763 C1762 1.394 . S
C1763 C1764 1.516 . S
C1764 C1763 1.516 . S
C1764 C1765 1.502 . S
C1764 C1766 1.561 . S
C1764 C1767 1.526 . S
C1765 H1749 0.959 . S
C1765 H1750 0.959 . S
C1765 H1751 0.961 . S
C1765 C1764 1.502 . S
C1766 H1752 0.960 . S
C1766 H1753 0.961 . S
C1766 H1754 0.959 . S
C1766 C1764 1.561 . S
C1767 C1764 1.526 . S
C1767 C1768 1.396 . S
C1767 C1772 1.390 . S
C1768 C1762 1.465 . S
C1768 C1767 1.396 . S
C1768 C1769 1.399 . S
C1769 H1755 0.929 . S
C1769 C1768 1.399 . S
C1769 C1770 1.385 . S
C1770 H1756 0.931 . S
C1770 C1769 1.385 . S
C1770 C1771 1.389 . S
C1771 C1770 1.389 . S
C1771 C1772 1.387 . S
C1772 H1757 0.930 . S
C1772 C1767 1.390 . S
C1772 C1771 1.387 . S
H1773 C1785 0.930 . S
H1774 C1787 0.930 . S
H1775 C1788 0.930 . S
H1776 C1792 0.959 . S
H1777 C1792 0.959 . S
H1778 C1792 0.961 . S
H1779 C1793 0.960 . S
H1780 C1793 0.961 . S
H1781 C1793 0.959 . S
H1782 C1796 0.929 . S
H1783 C1797 0.931 . S
H1784 C1799 0.930 . S
C1785 H1773 0.930 . S
C1785 C1786 1.399 . S
C1785 C1790 1.399 . S
C1786 C1785 1.399 . S
C1786 C1787 1.376 . S
C1787 H1774 0.930 . S
C1787 C1786 1.376 . S
C1787 C1788 1.388 . S
C1788 H1775 0.930 . S
C1788 C1787 1.388 . S
C1788 C1789 1.390 . S
C1789 C1788 1.390 . S
C1789 C1790 1.394 . S
C1789 C1795 1.465 . S
C1790 C1785 1.399 . S
C1790 C1789 1.394 . S
C1790 C1791 1.516 . S
C1791 C1790 1.516 . S
C1791 C1792 1.502 . S
C1791 C1793 1.561 . S
C1791 C1794 1.526 . S
C1792 H1776 0.959 . S
C1792 H1777 0.959 . S
C1792 H1778 0.961 . S
C1792 C1791 1.502 . S
C1793 H1779 0.960 . S
C1793 H1780 0.961 . S
C1793 H1781 0.959 . S
C1793 C1791 1.561 . S
C1794 C1791 1.526 . S
C1794 C1795 1.396 . S
C1794 C1799 1.390 . S
C1795 C1789 1.465 . S
C1795 C1794 1.396 . S
C1795 C1796 1.399 . S
C1796 H1782 0.929 . S
C1796 C1795 1.399 . S
C1796 C1797 1.385 . S
C1797 H1783 0.931 . S
C1797 C1796 1.385 . S
C1797 C1798 1.389 . S
C1798 C1797 1.389 . S
C1798 C1799 1.387 . S
C1799 H1784 0.930 . S
C1799 C1794 1.390 . S
C1799 C1798 1.387 . S
H1800 C1812 0.930 . S
H1801 C1814 0.930 . S
H1802 C1815 0.930 . S
H1803 C1819 0.959 . S
H1804 C1819 0.959 . S
H1805 C1819 0.961 . S
H1806 C1820 0.960 . S
H1807 C1820 0.961 . S
H1808 C1820 0.959 . S
H1809 C1823 0.929 . S
H1810 C1824 0.931 . S
H1811 C1826 0.930 . S
C1812 H1800 0.930 . S
C1812 C1813 1.399 . S
C1812 C1817 1.399 . S
C1813 C1812 1.399 . S
C1813 C1814 1.376 . S
C1814 H1801 0.930 . S
C1814 C1813 1.376 . S
C1814 C1815 1.388 . S
C1815 H1802 0.930 . S
C1815 C1814 1.388 . S
C1815 C1816 1.390 . S
C1816 C1815 1.390 . S
C1816 C1817 1.394 . S
C1816 C1822 1.465 1_455 S
C1817 C1812 1.399 . S
C1817 C1816 1.394 . S
C1817 C1818 1.516 . S
C1818 C1817 1.516 . S
C1818 C1819 1.504 . S
C1818 C1820 1.561 1_455 S
C1818 C1821 1.524 1_455 S
C1819 H1803 0.959 . S
C1819 H1804 0.959 . S
C1819 H1805 0.961 . S
C1819 C1818 1.504 . S
C1820 H1806 0.960 . S
C1820 H1807 0.961 . S
C1820 H1808 0.959 . S
C1820 C1818 1.561 1_655 S
C1821 C1818 1.524 1_655 S
C1821 C1822 1.396 . S
C1821 C1826 1.390 . S
C1822 C1816 1.465 1_655 S
C1822 C1821 1.396 . S
C1822 C1823 1.399 . S
C1823 H1809 0.929 . S
C1823 C1822 1.399 . S
C1823 C1824 1.385 . S
C1824 H1810 0.931 . S
C1824 C1823 1.385 . S
C1824 C1825 1.389 . S
C1825 C1824 1.389 . S
C1825 C1826 1.387 . S
C1826 H1811 0.930 . S
C1826 C1821 1.390 . S
C1826 C1825 1.387 . S
H1827 C1839 0.930 . S
H1828 C1841 0.930 . S
H1829 C1842 0.930 . S
H1830 C1846 0.959 . S
H1831 C1846 0.959 . S
H1832 C1846 0.961 . S
H1833 C1847 0.960 . S
H1834 C1847 0.961 . S
H1835 C1847 0.959 . S
H1836 C1850 0.929 . S
H1837 C1851 0.931 . S
H1838 C1853 0.930 . S
C1839 H1827 0.930 . S
C1839 C1840 1.399 . S
C1839 C1844 1.399 . S
C1840 C1839 1.399 . S
C1840 C1841 1.376 . S
C1841 H1828 0.930 . S
C1841 C1840 1.376 . S
C1841 C1842 1.388 . S
C1842 H1829 0.930 . S
C1842 C1841 1.388 . S
C1842 C1843 1.390 . S
C1843 C1842 1.390 . S
C1843 C1844 1.394 . S
C1843 C1849 1.465 . S
C1844 C1839 1.399 . S
C1844 C1843 1.394 . S
C1844 C1845 1.516 . S
C1845 C1844 1.516 . S
C1845 C1846 1.502 . S
C1845 C1847 1.561 . S
C1845 C1848 1.526 . S
C1846 H1830 0.959 . S
C1846 H1831 0.959 . S
C1846 H1832 0.961 . S
C1846 C1845 1.502 . S
C1847 H1833 0.960 . S
C1847 H1834 0.961 . S
C1847 H1835 0.959 . S
C1847 C1845 1.561 . S
C1848 C1845 1.526 . S
C1848 C1849 1.396 . S
C1848 C1853 1.390 . S
C1849 C1843 1.465 . S
C1849 C1848 1.396 . S
C1849 C1850 1.399 . S
C1850 H1836 0.929 . S
C1850 C1849 1.399 . S
C1850 C1851 1.385 . S
C1851 H1837 0.931 . S
C1851 C1850 1.385 . S
C1851 C1852 1.389 . S
C1852 C1851 1.389 . S
C1852 C1853 1.387 . S
C1853 H1838 0.930 . S
C1853 C1848 1.390 . S
C1853 C1852 1.387 . S
H1854 C1866 0.930 . S
H1855 C1868 0.930 . S
H1856 C1869 0.930 . S
H1857 C1873 0.959 . S
H1858 C1873 0.959 . S
H1859 C1873 0.961 . S
H1860 C1874 0.960 . S
H1861 C1874 0.961 . S
H1862 C1874 0.959 . S
H1863 C1877 0.929 . S
H1864 C1878 0.931 . S
H1865 C1880 0.930 . S
C1866 H1854 0.930 . S
C1866 C1867 1.399 . S
C1866 C1871 1.399 . S
C1867 C1866 1.399 . S
C1867 C1868 1.376 . S
C1868 H1855 0.930 . S
C1868 C1867 1.376 . S
C1868 C1869 1.388 1_565 S
C1869 H1856 0.930 . S
C1869 C1868 1.388 1_545 S
C1869 C1870 1.407 . S
C1870 C1869 1.407 . S
C1870 C1871 1.344 1_545 S
C1870 C1876 1.491 . S
C1871 C1866 1.399 . S
C1871 C1870 1.344 1_565 S
C1871 C1872 1.516 . S
C1872 C1871 1.516 . S
C1872 C1873 1.502 . S
C1872 C1874 1.561 . S
C1872 C1875 1.526 1_565 S
C1873 H1857 0.959 . S
C1873 H1858 0.959 . S
C1873 H1859 0.961 . S
C1873 C1872 1.502 . S
C1874 H1860 0.960 . S
C1874 H1861 0.961 . S
C1874 H1862 0.959 . S
C1874 C1872 1.561 . S
C1875 C1872 1.526 1_545 S
C1875 C1876 1.396 . S
C1875 C1880 1.390 . S
C1876 C1870 1.491 . S
C1876 C1875 1.396 . S
C1876 C1877 1.399 . S
C1877 H1863 0.929 . S
C1877 C1876 1.399 . S
C1877 C1878 1.385 . S
C1878 H1864 0.931 . S
C1878 C1877 1.385 . S
C1878 C1879 1.389 . S
C1879 C1878 1.389 . S
C1879 C1880 1.387 . S
C1880 H1865 0.930 . S
C1880 C1875 1.390 . S
C1880 C1879 1.387 . S
H1881 C1893 0.930 . S
H1882 C1895 0.930 . S
H1883 C1896 0.930 . S
H1884 C1900 0.959 . S
H1885 C1900 0.959 . S
H1886 C1900 0.961 . S
H1887 C1901 0.960 . S
H1888 C1901 0.961 . S
H1889 C1901 0.959 . S
H1890 C1904 0.929 . S
H1891 C1905 0.931 . S
H1892 C1907 0.930 . S
C1893 H1881 0.930 . S
C1893 C1894 1.399 . S
C1893 C1898 1.399 . S
C1894 C1893 1.399 . S
C1894 C1895 1.376 . S
C1895 H1882 0.930 . S
C1895 C1894 1.376 . S
C1895 C1896 1.388 . S
C1896 H1883 0.930 . S
C1896 C1895 1.388 . S
C1896 C1897 1.390 . S
C1897 C1896 1.390 . S
C1897 C1898 1.394 . S
C1897 C1903 1.465 . S
C1898 C1893 1.399 . S
C1898 C1897 1.394 . S
C1898 C1899 1.516 1_565 S
C1899 C1898 1.516 1_545 S
C1899 C1900 1.502 . S
C1899 C1901 1.561 . S
C1899 C1902 1.526 . S
C1900 H1884 0.959 . S
C1900 H1885 0.959 . S
C1900 H1886 0.961 . S
C1900 C1899 1.502 . S
C1901 H1887 0.960 . S
C1901 H1888 0.961 . S
C1901 H1889 0.959 . S
C1901 C1899 1.561 . S
C1902 C1899 1.526 . S
C1902 C1903 1.396 1_545 S
C1902 C1907 1.390 . S
C1903 C1897 1.465 . S
C1903 C1902 1.396 1_565 S
C1903 C1904 1.399 . S
C1904 H1890 0.929 . S
C1904 C1903 1.399 . S
C1904 C1905 1.385 1_565 S
C1905 H1891 0.931 . S
C1905 C1904 1.385 1_545 S
C1905 C1906 1.389 . S
C1906 C1905 1.389 . S
C1906 C1907 1.387 . S
C1907 H1892 0.930 . S
C1907 C1902 1.390 . S
C1907 C1906 1.387 . S
H1908 C1920 0.930 . S
H1909 C1922 0.930 . S
H1910 C1923 0.930 . S
H1911 C1927 0.959 . S
H1912 C1927 0.959 . S
H1913 C1927 0.961 . S
H1914 C1928 0.960 . S
H1915 C1928 0.958 1_455 S
H1916 C1928 0.959 . S
H1917 C1931 0.936 1_655 S
H1918 C1932 0.931 . S
H1919 C1934 0.930 . S
C1920 H1908 0.930 . S
C1920 C1921 1.399 . S
C1920 C1925 1.399 . S
C1921 C1920 1.399 . S
C1921 C1922 1.376 . S
C1922 H1909 0.930 . S
C1922 C1921 1.376 . S
C1922 C1923 1.388 . S
C1923 H1910 0.930 . S
C1923 C1922 1.388 . S
C1923 C1924 1.390 . S
C1924 C1923 1.390 . S
C1924 C1925 1.394 . S
C1924 C1930 1.465 1_655 S
C1925 C1920 1.399 . S
C1925 C1924 1.394 . S
C1925 C1926 1.516 1_655 S
C1926 C1925 1.516 1_455 S
C1926 C1927 1.502 . S
C1926 C1928 1.561 1_455 S
C1926 C1929 1.526 . S
C1927 H1911 0.959 . S
C1927 H1912 0.959 . S
C1927 H1913 0.961 . S
C1927 C1926 1.502 . S
C1928 H1914 0.960 . S
C1928 H1915 0.958 1_655 S
C1928 H1916 0.959 . S
C1928 C1926 1.561 1_655 S
C1929 C1926 1.526 . S
C1929 C1930 1.396 . S
C1929 C1934 1.390 . S
C1930 C1924 1.465 1_455 S
C1930 C1929 1.396 . S
C1930 C1931 1.399 . S
C1931 H1917 0.936 1_455 S
C1931 C1930 1.399 . S
C1931 C1932 1.385 . S
C1932 H1918 0.931 . S
C1932 C1931 1.385 . S
C1932 C1933 1.389 . S
C1933 C1932 1.389 . S
C1933 C1934 1.387 . S
C1934 H1919 0.930 . S
C1934 C1929 1.390 . S
C1934 C1933 1.387 . S
H1935 C1947 0.930 . S
H1936 C1949 0.930 . S
H1937 C1950 0.930 . S
H1938 C1954 0.959 . S
H1939 C1954 0.959 . S
H1940 C1954 0.961 . S
H1941 C1955 0.960 . S
H1942 C1955 0.961 . S
H1943 C1955 0.959 . S
H1944 C1958 0.929 . S
H1945 C1959 0.931 . S
H1946 C1961 0.930 . S
C1947 H1935 0.930 . S
C1947 C1948 1.399 . S
C1947 C1952 1.399 . S
C1948 C1947 1.399 . S
C1948 C1949 1.376 . S
C1949 H1936 0.930 . S
C1949 C1948 1.376 . S
C1949 C1950 1.388 . S
C1950 H1937 0.930 . S
C1950 C1949 1.388 . S
C1950 C1951 1.390 . S
C1951 C1950 1.390 . S
C1951 C1952 1.394 . S
C1951 C1957 1.465 . S
C1952 C1947 1.399 . S
C1952 C1951 1.394 . S
C1952 C1953 1.516 . S
C1953 C1952 1.516 . S
C1953 C1954 1.502 . S
C1953 C1955 1.561 . S
C1953 C1956 1.526 . S
C1954 H1938 0.959 . S
C1954 H1939 0.959 . S
C1954 H1940 0.961 . S
C1954 C1953 1.502 . S
C1955 H1941 0.960 . S
C1955 H1942 0.961 . S
C1955 H1943 0.959 . S
C1955 C1953 1.561 . S
C1956 C1953 1.526 . S
C1956 C1957 1.396 . S
C1956 C1961 1.390 . S
C1957 C1951 1.465 . S
C1957 C1956 1.396 . S
C1957 C1958 1.399 . S
C1958 H1944 0.929 . S
C1958 C1957 1.399 . S
C1958 C1959 1.385 . S
C1959 H1945 0.931 . S
C1959 C1958 1.385 . S
C1959 C1960 1.389 . S
C1960 C1959 1.389 . S
C1960 C1961 1.387 . S
C1961 H1946 0.930 . S
C1961 C1956 1.390 . S
C1961 C1960 1.387 . S
H1962 C1974 0.930 . S
H1963 C1976 0.930 . S
H1964 C1977 0.930 . S
H1965 C1981 0.959 . S
H1966 C1981 0.959 . S
H1967 C1981 0.961 . S
H1968 C1982 0.960 . S
H1969 C1982 0.961 . S
H1970 C1982 0.959 . S
H1971 C1985 0.929 . S
H1972 C1986 0.931 . S
H1973 C1988 0.930 . S
C1974 H1962 0.930 . S
C1974 C1975 1.399 . S
C1974 C1979 1.399 . S
C1975 C1974 1.399 . S
C1975 C1976 1.376 . S
C1976 H1963 0.930 . S
C1976 C1975 1.376 . S
C1976 C1977 1.388 . S
C1977 H1964 0.930 . S
C1977 C1976 1.388 . S
C1977 C1978 1.390 . S
C1978 C1977 1.390 . S
C1978 C1979 1.394 . S
C1978 C1984 1.465 . S
C1979 C1974 1.399 . S
C1979 C1978 1.394 . S
C1979 C1980 1.516 . S
C1980 C1979 1.516 . S
C1980 C1981 1.502 . S
C1980 C1982 1.561 . S
C1980 C1983 1.526 . S
C1981 H1965 0.959 . S
C1981 H1966 0.959 . S
C1981 H1967 0.961 . S
C1981 C1980 1.502 . S
C1982 H1968 0.960 . S
C1982 H1969 0.961 . S
C1982 H1970 0.959 . S
C1982 C1980 1.561 . S
C1983 C1980 1.526 . S
C1983 C1984 1.396 . S
C1983 C1988 1.390 . S
C1984 C1978 1.465 . S
C1984 C1983 1.396 . S
C1984 C1985 1.399 . S
C1985 H1971 0.929 . S
C1985 C1984 1.399 . S
C1985 C1986 1.385 . S
C1986 H1972 0.931 . S
C1986 C1985 1.385 . S
C1986 C1987 1.389 . S
C1987 C1986 1.389 . S
C1987 C1988 1.387 . S
C1988 H1973 0.930 . S
C1988 C1983 1.390 . S
C1988 C1987 1.387 . S
H1989 C2001 0.930 . S
H1990 C2003 0.930 . S
H1991 C2004 0.930 . S
H1992 C2008 0.959 . S
H1993 C2008 0.959 . S
H1994 C2008 0.961 . S
H1995 C2009 0.960 . S
H1996 C2009 0.961 . S
H1997 C2009 0.959 . S
H1998 C2012 0.929 . S
H1999 C2013 0.931 . S
H2000 C2015 0.930 . S
C2001 H1989 0.930 . S
C2001 C2002 1.399 . S
C2001 C2006 1.399 . S
C2002 C2001 1.399 . S
C2002 C2003 1.376 . S
C2003 H1990 0.930 . S
C2003 C2002 1.376 . S
C2003 C2004 1.388 . S
C2004 H1991 0.930 . S
C2004 C2003 1.388 . S
C2004 C2005 1.390 . S
C2005 C2004 1.390 . S
C2005 C2006 1.394 . S
C2005 C2011 1.465 . S
C2006 C2001 1.399 . S
C2006 C2005 1.394 . S
C2006 C2007 1.516 . S
C2007 C2006 1.516 . S
C2007 C2008 1.502 . S
C2007 C2009 1.561 . S
C2007 C2010 1.526 . S
C2008 H1992 0.959 . S
C2008 H1993 0.959 . S
C2008 H1994 0.961 . S
C2008 C2007 1.502 . S
C2009 H1995 0.960 . S
C2009 H1996 0.961 . S
C2009 H1997 0.959 . S
C2009 C2007 1.561 . S
C2010 C2007 1.526 . S
C2010 C2011 1.396 . S
C2010 C2015 1.390 . S
C2011 C2005 1.465 . S
C2011 C2010 1.396 . S
C2011 C2012 1.399 . S
C2012 H1998 0.929 . S
C2012 C2011 1.399 . S
C2012 C2013 1.385 . S
C2013 H1999 0.931 . S
C2013 C2012 1.385 . S
C2013 C2014 1.389 . S
C2014 C2013 1.389 . S
C2014 C2015 1.387 . S
C2015 H2000 0.930 . S
C2015 C2010 1.390 . S
C2015 C2014 1.387 . S
H2016 C2028 0.930 . S
H2017 C2030 0.930 . S
H2018 C2031 0.930 . S
H2019 C2035 0.959 . S
H2020 C2035 0.959 . S
H2021 C2035 0.961 . S
H2022 C2036 0.960 . S
H2023 C2036 0.961 . S
H2024 C2036 0.959 . S
H2025 C2039 0.929 . S
H2026 C2040 0.931 . S
H2027 C2042 0.930 . S
C2028 H2016 0.930 . S
C2028 C2029 1.399 . S
C2028 C2033 1.399 . S
C2029 C2028 1.399 . S
C2029 C2030 1.376 . S
C2030 H2017 0.930 . S
C2030 C2029 1.376 . S
C2030 C2031 1.388 . S
C2031 H2018 0.930 . S
C2031 C2030 1.388 . S
C2031 C2032 1.390 . S
C2032 C2031 1.390 . S
C2032 C2033 1.394 . S
C2032 C2038 1.465 . S
C2033 C2028 1.399 . S
C2033 C2032 1.394 . S
C2033 C2034 1.516 . S
C2034 C2033 1.516 . S
C2034 C2035 1.502 . S
C2034 C2036 1.561 . S
C2034 C2037 1.526 . S
C2035 H2019 0.959 . S
C2035 H2020 0.959 . S
C2035 H2021 0.961 . S
C2035 C2034 1.502 . S
C2036 H2022 0.960 . S
C2036 H2023 0.961 . S
C2036 H2024 0.959 . S
C2036 C2034 1.561 . S
C2037 C2034 1.526 . S
C2037 C2038 1.396 . S
C2037 C2042 1.390 . S
C2038 C2032 1.465 . S
C2038 C2037 1.396 . S
C2038 C2039 1.399 . S
C2039 H2025 0.929 . S
C2039 C2038 1.399 . S
C2039 C2040 1.385 . S
C2040 H2026 0.931 . S
C2040 C2039 1.385 . S
C2040 C2041 1.389 . S
C2041 C2040 1.389 . S
C2041 C2042 1.387 . S
C2042 H2027 0.930 . S
C2042 C2037 1.390 . S
C2042 C2041 1.387 . S
H2043 C2055 0.930 . S
H2044 C2057 0.930 . S
H2045 C2058 0.930 . S
H2046 C2062 0.959 . S
H2047 C2062 0.959 . S
H2048 C2062 0.961 . S
H2049 C2063 0.960 . S
H2050 C2063 0.961 . S
H2051 C2063 0.959 . S
H2052 C2066 0.929 . S
H2053 C2067 0.931 . S
H2054 C2069 0.930 . S
C2055 H2043 0.930 . S
C2055 C2056 1.399 . S
C2055 C2060 1.399 . S
C2056 C2055 1.399 . S
C2056 C2057 1.376 . S
C2057 H2044 0.930 . S
C2057 C2056 1.376 . S
C2057 C2058 1.388 . S
C2058 H2045 0.930 . S
C2058 C2057 1.388 . S
C2058 C2059 1.390 . S
C2059 C2058 1.390 . S
C2059 C2060 1.394 . S
C2059 C2065 1.465 . S
C2060 C2055 1.399 . S
C2060 C2059 1.394 . S
C2060 C2061 1.516 . S
C2061 C2060 1.516 . S
C2061 C2062 1.502 . S
C2061 C2063 1.561 . S
C2061 C2064 1.526 . S
C2062 H2046 0.959 . S
C2062 H2047 0.959 . S
C2062 H2048 0.961 . S
C2062 C2061 1.502 . S
C2063 H2049 0.960 . S
C2063 H2050 0.961 . S
C2063 H2051 0.959 . S
C2063 C2061 1.561 . S
C2064 C2061 1.526 . S
C2064 C2065 1.396 . S
C2064 C2069 1.390 . S
C2065 C2059 1.465 . S
C2065 C2064 1.396 . S
C2065 C2066 1.399 . S
C2066 H2052 0.929 . S
C2066 C2065 1.399 . S
C2066 C2067 1.385 . S
C2067 H2053 0.931 . S
C2067 C2066 1.385 . S
C2067 C2068 1.389 . S
C2068 C2067 1.389 . S
C2068 C2069 1.387 . S
C2069 H2054 0.930 . S
C2069 C2064 1.390 . S
C2069 C2068 1.387 . S
H2070 C2082 0.930 . S
H2071 C2084 0.930 . S
H2072 C2085 0.930 . S
H2073 C2089 0.959 . S
H2074 C2089 0.959 . S
H2075 C2089 0.961 . S
H2076 C2090 0.960 . S
H2077 C2090 0.961 . S
H2078 C2090 0.959 . S
H2079 C2093 0.929 . S
H2080 C2094 0.931 . S
H2081 C2096 0.930 . S
C2082 H2070 0.930 . S
C2082 C2083 1.399 . S
C2082 C2087 1.399 . S
C2083 C2082 1.399 . S
C2083 C2084 1.376 . S
C2084 H2071 0.930 . S
C2084 C2083 1.376 . S
C2084 C2085 1.388 . S
C2085 H2072 0.930 . S
C2085 C2084 1.388 . S
C2085 C2086 1.390 . S
C2086 C2085 1.390 . S
C2086 C2087 1.394 . S
C2086 C2092 1.465 . S
C2087 C2082 1.399 . S
C2087 C2086 1.394 . S
C2087 C2088 1.516 . S
C2088 C2087 1.516 . S
C2088 C2089 1.502 . S
C2088 C2090 1.561 . S
C2088 C2091 1.526 . S
C2089 H2073 0.959 . S
C2089 H2074 0.959 . S
C2089 H2075 0.961 . S
C2089 C2088 1.502 . S
C2090 H2076 0.960 . S
C2090 H2077 0.961 . S
C2090 H2078 0.959 . S
C2090 C2088 1.561 . S
C2091 C2088 1.526 . S
C2091 C2092 1.396 . S
C2091 C2096 1.390 . S
C2092 C2086 1.465 . S
C2092 C2091 1.396 . S
C2092 C2093 1.399 . S
C2093 H2079 0.929 . S
C2093 C2092 1.399 . S
C2093 C2094 1.385 . S
C2094 H2080 0.931 . S
C2094 C2093 1.385 . S
C2094 C2095 1.389 . S
C2095 C2094 1.389 . S
C2095 C2096 1.387 . S
C2096 H2081 0.930 . S
C2096 C2091 1.390 . S
C2096 C2095 1.387 . S
H2097 C2109 0.930 . S
H2098 C2111 0.930 . S
H2099 C2112 0.930 . S
H2100 C2116 0.959 . S
H2101 C2116 0.959 . S
H2102 C2116 0.961 . S
H2103 C2117 0.960 . S
H2104 C2117 0.961 . S
H2105 C2117 0.959 . S
H2106 C2120 0.929 . S
H2107 C2121 0.931 . S
H2108 C2123 0.930 . S
C2109 H2097 0.930 . S
C2109 C2110 1.399 . S
C2109 C2114 1.399 . S
C2110 C2109 1.399 . S
C2110 C2111 1.376 . S
C2111 H2098 0.930 . S
C2111 C2110 1.376 . S
C2111 C2112 1.388 . S
C2112 H2099 0.930 . S
C2112 C2111 1.388 . S
C2112 C2113 1.390 . S
C2113 C2112 1.390 . S
C2113 C2114 1.394 . S
C2113 C2119 1.465 . S
C2114 C2109 1.399 . S
C2114 C2113 1.394 . S
C2114 C2115 1.516 . S
C2115 C2114 1.516 . S
C2115 C2116 1.502 . S
C2115 C2117 1.561 . S
C2115 C2118 1.526 . S
C2116 H2100 0.959 . S
C2116 H2101 0.959 . S
C2116 H2102 0.961 . S
C2116 C2115 1.502 . S
C2117 H2103 0.960 . S
C2117 H2104 0.961 . S
C2117 H2105 0.959 . S
C2117 C2115 1.561 . S
C2118 C2115 1.526 . S
C2118 C2119 1.396 . S
C2118 C2123 1.390 . S
C2119 C2113 1.465 . S
C2119 C2118 1.396 . S
C2119 C2120 1.399 . S
C2120 H2106 0.929 . S
C2120 C2119 1.399 . S
C2120 C2121 1.385 . S
C2121 H2107 0.931 . S
C2121 C2120 1.385 . S
C2121 C2122 1.389 . S
C2122 C2121 1.389 . S
C2122 C2123 1.387 . S
C2123 H2108 0.930 . S
C2123 C2118 1.390 . S
C2123 C2122 1.387 . S
H2124 C2136 0.930 . S
H2125 C2138 0.930 . S
H2126 C2139 0.930 . S
H2127 C2143 0.959 . S
H2128 C2143 0.959 . S
H2129 C2143 0.961 . S
H2130 C2144 0.960 . S
H2131 C2144 0.961 . S
H2132 C2144 0.959 . S
H2133 C2147 0.929 . S
H2134 C2148 0.931 . S
H2135 C2150 0.930 . S
C2136 H2124 0.930 . S
C2136 C2137 1.399 . S
C2136 C2141 1.399 . S
C2137 C2136 1.399 . S
C2137 C2138 1.376 . S
C2138 H2125 0.930 . S
C2138 C2137 1.376 . S
C2138 C2139 1.388 . S
C2139 H2126 0.930 . S
C2139 C2138 1.388 . S
C2139 C2140 1.390 . S
C2140 C2139 1.390 . S
C2140 C2141 1.394 . S
C2140 C2146 1.465 . S
C2141 C2136 1.399 . S
C2141 C2140 1.394 . S
C2141 C2142 1.516 . S
C2142 C2141 1.516 . S
C2142 C2143 1.502 . S
C2142 C2144 1.561 . S
C2142 C2145 1.526 . S
C2143 H2127 0.959 . S
C2143 H2128 0.959 . S
C2143 H2129 0.961 . S
C2143 C2142 1.502 . S
C2144 H2130 0.960 . S
C2144 H2131 0.961 . S
C2144 H2132 0.959 . S
C2144 C2142 1.561 . S
C2145 C2142 1.526 . S
C2145 C2146 1.396 . S
C2145 C2150 1.390 . S
C2146 C2140 1.465 . S
C2146 C2145 1.396 . S
C2146 C2147 1.399 . S
C2147 H2133 0.929 . S
C2147 C2146 1.399 . S
C2147 C2148 1.385 . S
C2148 H2134 0.931 . S
C2148 C2147 1.385 . S
C2148 C2149 1.389 . S
C2149 C2148 1.389 . S
C2149 C2150 1.387 . S
C2150 H2135 0.930 . S
C2150 C2145 1.390 . S
C2150 C2149 1.387 . S
H2151 C2163 0.930 . S
H2152 C2165 0.930 . S
H2153 C2166 0.930 . S
H2154 C2170 0.959 . S
H2155 C2170 0.959 . S
H2156 C2170 0.961 . S
H2157 C2171 0.960 . S
H2158 C2171 0.961 . S
H2159 C2171 0.959 . S
H2160 C2174 0.929 . S
H2161 C2175 0.931 . S
H2162 C2177 0.930 . S
C2163 H2151 0.930 . S
C2163 C2164 1.399 . S
C2163 C2168 1.399 . S
C2164 C2163 1.399 . S
C2164 C2165 1.376 . S
C2165 H2152 0.930 . S
C2165 C2164 1.376 . S
C2165 C2166 1.388 . S
C2166 H2153 0.930 . S
C2166 C2165 1.388 . S
C2166 C2167 1.390 . S
C2167 C2166 1.390 . S
C2167 C2168 1.394 . S
C2167 C2173 1.465 . S
C2168 C2163 1.399 . S
C2168 C2167 1.394 . S
C2168 C2169 1.516 . S
C2169 C2168 1.516 . S
C2169 C2170 1.502 . S
C2169 C2171 1.561 . S
C2169 C2172 1.526 . S
C2170 H2154 0.959 . S
C2170 H2155 0.959 . S
C2170 H2156 0.961 . S
C2170 C2169 1.502 . S
C2171 H2157 0.960 . S
C2171 H2158 0.961 . S
C2171 H2159 0.959 . S
C2171 C2169 1.561 . S
C2172 C2169 1.526 . S
C2172 C2173 1.396 . S
C2172 C2177 1.390 . S
C2173 C2167 1.465 . S
C2173 C2172 1.396 . S
C2173 C2174 1.399 . S
C2174 H2160 0.929 . S
C2174 C2173 1.399 . S
C2174 C2175 1.385 . S
C2175 H2161 0.931 . S
C2175 C2174 1.385 . S
C2175 C2176 1.389 . S
C2176 C2175 1.389 . S
C2176 C2177 1.387 . S
C2177 H2162 0.930 . S
C2177 C2172 1.390 . S
C2177 C2176 1.387 . S
H2178 C2190 0.930 . S
H2179 C2192 0.930 . S
H2180 C2193 0.930 . S
H2181 C2197 0.959 . S
H2182 C2197 0.959 . S
H2183 C2197 0.961 . S
H2184 C2198 0.960 . S
H2185 C2198 0.961 . S
H2186 C2198 0.959 . S
H2187 C2201 0.929 . S
H2188 C2202 0.931 . S
H2189 C2204 0.930 . S
C2190 H2178 0.930 . S
C2190 C2191 1.399 . S
C2190 C2195 1.399 . S
C2191 C2190 1.399 . S
C2191 C2192 1.376 . S
C2192 H2179 0.930 . S
C2192 C2191 1.376 . S
C2192 C2193 1.388 . S
C2193 H2180 0.930 . S
C2193 C2192 1.388 . S
C2193 C2194 1.390 . S
C2194 C2193 1.390 . S
C2194 C2195 1.394 . S
C2194 C2200 1.465 . S
C2195 C2190 1.399 . S
C2195 C2194 1.394 . S
C2195 C2196 1.516 . S
C2196 C2195 1.516 . S
C2196 C2197 1.502 . S
C2196 C2198 1.561 . S
C2196 C2199 1.526 . S
C2197 H2181 0.959 . S
C2197 H2182 0.959 . S
C2197 H2183 0.961 . S
C2197 C2196 1.502 . S
C2198 H2184 0.960 . S
C2198 H2185 0.961 . S
C2198 H2186 0.959 . S
C2198 C2196 1.561 . S
C2199 C2196 1.526 . S
C2199 C2200 1.396 . S
C2199 C2204 1.390 . S
C2200 C2194 1.465 . S
C2200 C2199 1.396 . S
C2200 C2201 1.399 . S
C2201 H2187 0.929 . S
C2201 C2200 1.399 . S
C2201 C2202 1.385 . S
C2202 H2188 0.931 . S
C2202 C2201 1.385 . S
C2202 C2203 1.389 . S
C2203 C2202 1.389 . S
C2203 C2204 1.387 . S
C2204 H2189 0.930 . S
C2204 C2199 1.390 . S
C2204 C2203 1.387 . S
H2205 C2217 0.930 . S
H2206 C2219 0.930 . S
H2207 C2220 0.930 . S
H2208 C2224 0.959 . S
H2209 C2224 0.959 . S
H2210 C2224 0.961 . S
H2211 C2225 0.960 . S
H2212 C2225 0.961 . S
H2213 C2225 0.959 . S
H2214 C2228 0.929 . S
H2215 C2229 0.931 . S
H2216 C2231 0.930 . S
C2217 H2205 0.930 . S
C2217 C2218 1.399 . S
C2217 C2222 1.399 . S
C2218 C2217 1.399 . S
C2218 C2219 1.376 . S
C2219 H2206 0.930 . S
C2219 C2218 1.376 . S
C2219 C2220 1.388 . S
C2220 H2207 0.930 . S
C2220 C2219 1.388 . S
C2220 C2221 1.390 . S
C2221 C2220 1.390 . S
C2221 C2222 1.394 . S
C2221 C2227 1.465 . S
C2222 C2217 1.399 . S
C2222 C2221 1.394 . S
C2222 C2223 1.516 . S
C2223 C2222 1.516 . S
C2223 C2224 1.502 . S
C2223 C2225 1.561 . S
C2223 C2226 1.526 . S
C2224 H2208 0.959 . S
C2224 H2209 0.959 . S
C2224 H2210 0.961 . S
C2224 C2223 1.502 . S
C2225 H2211 0.960 . S
C2225 H2212 0.961 . S
C2225 H2213 0.959 . S
C2225 C2223 1.561 . S
C2226 C2223 1.526 . S
C2226 C2227 1.396 . S
C2226 C2231 1.390 . S
C2227 C2221 1.465 . S
C2227 C2226 1.396 . S
C2227 C2228 1.399 . S
C2228 H2214 0.929 . S
C2228 C2227 1.399 . S
C2228 C2229 1.385 . S
C2229 H2215 0.931 . S
C2229 C2228 1.385 . S
C2229 C2230 1.389 . S
C2230 C2229 1.389 . S
C2230 C2231 1.387 . S
C2231 H2216 0.930 . S
C2231 C2226 1.390 . S
C2231 C2230 1.387 . S
H2232 C2244 0.930 . S
H2233 C2246 0.930 . S
H2234 C2247 0.930 . S
H2235 C2251 0.959 . S
H2236 C2251 0.959 . S
H2237 C2251 0.961 . S
H2238 C2252 0.960 . S
H2239 C2252 0.961 . S
H2240 C2252 0.959 . S
H2241 C2255 0.929 . S
H2242 C2256 0.931 . S
H2243 C2258 0.930 . S
C2244 H2232 0.930 . S
C2244 C2245 1.399 . S
C2244 C2249 1.399 . S
C2245 C2244 1.399 . S
C2245 C2246 1.376 . S
C2246 H2233 0.930 . S
C2246 C2245 1.376 . S
C2246 C2247 1.388 . S
C2247 H2234 0.930 . S
C2247 C2246 1.388 . S
C2247 C2248 1.390 . S
C2248 C2247 1.390 . S
C2248 C2249 1.394 . S
C2248 C2254 1.465 . S
C2249 C2244 1.399 . S
C2249 C2248 1.394 . S
C2249 C2250 1.516 . S
C2250 C2249 1.516 . S
C2250 C2251 1.502 . S
C2250 C2252 1.561 . S
C2250 C2253 1.526 . S
C2251 H2235 0.959 . S
C2251 H2236 0.959 . S
C2251 H2237 0.961 . S
C2251 C2250 1.502 . S
C2252 H2238 0.960 . S
C2252 H2239 0.961 . S
C2252 H2240 0.959 . S
C2252 C2250 1.561 . S
C2253 C2250 1.526 . S
C2253 C2254 1.396 . S
C2253 C2258 1.390 . S
C2254 C2248 1.465 . S
C2254 C2253 1.396 . S
C2254 C2255 1.399 . S
C2255 H2241 0.929 . S
C2255 C2254 1.399 . S
C2255 C2256 1.385 . S
C2256 H2242 0.931 . S
C2256 C2255 1.385 . S
C2256 C2257 1.389 . S
C2257 C2256 1.389 . S
C2257 C2258 1.387 . S
C2258 H2243 0.930 . S
C2258 C2253 1.390 . S
C2258 C2257 1.387 . S
H2259 C2271 0.930 . S
H2260 C2273 0.930 . S
H2261 C2274 0.930 . S
H2262 C2278 0.959 . S
H2263 C2278 0.959 . S
H2264 C2278 0.961 . S
H2265 C2279 0.960 . S
H2266 C2279 0.961 . S
H2267 C2279 0.959 . S
H2268 C2282 0.929 . S
H2269 C2283 0.931 . S
H2270 C2285 0.930 . S
C2271 H2259 0.930 . S
C2271 C2272 1.399 . S
C2271 C2276 1.399 . S
C2272 C2271 1.399 . S
C2272 C2273 1.376 . S
C2273 H2260 0.930 . S
C2273 C2272 1.376 . S
C2273 C2274 1.388 . S
C2274 H2261 0.930 . S
C2274 C2273 1.388 . S
C2274 C2275 1.390 . S
C2275 C2274 1.390 . S
C2275 C2276 1.394 . S
C2275 C2281 1.465 . S
C2276 C2271 1.399 . S
C2276 C2275 1.394 . S
C2276 C2277 1.516 . S
C2277 C2276 1.516 . S
C2277 C2278 1.502 . S
C2277 C2279 1.561 . S
C2277 C2280 1.526 . S
C2278 H2262 0.959 . S
C2278 H2263 0.959 . S
C2278 H2264 0.961 . S
C2278 C2277 1.502 . S
C2279 H2265 0.960 . S
C2279 H2266 0.961 . S
C2279 H2267 0.959 . S
C2279 C2277 1.561 . S
C2280 C2277 1.526 . S
C2280 C2281 1.396 . S
C2280 C2285 1.390 . S
C2281 C2275 1.465 . S
C2281 C2280 1.396 . S
C2281 C2282 1.399 . S
C2282 H2268 0.929 . S
C2282 C2281 1.399 . S
C2282 C2283 1.385 . S
C2283 H2269 0.931 . S
C2283 C2282 1.385 . S
C2283 C2284 1.389 . S
C2284 C2283 1.389 . S
C2284 C2285 1.387 . S
C2285 H2270 0.930 . S
C2285 C2280 1.390 . S
C2285 C2284 1.387 . S
H2286 C2298 0.930 . S
H2287 C2300 0.930 . S
H2288 C2301 0.930 . S
H2289 C2305 0.959 . S
H2290 C2305 0.959 . S
H2291 C2305 0.961 . S
H2292 C2306 0.960 . S
H2293 C2306 0.961 . S
H2294 C2306 0.959 . S
H2295 C2309 0.929 1_556 S
H2296 C2310 0.931 . S
H2297 C2312 0.948 . S
C2298 H2286 0.930 . S
C2298 C2299 1.399 . S
C2298 C2303 1.399 . S
C2299 C2298 1.399 . S
C2299 C2300 1.376 . S
C2300 H2287 0.930 . S
C2300 C2299 1.376 . S
C2300 C2301 1.388 1_455 S
C2301 H2288 0.930 . S
C2301 C2300 1.388 1_655 S
C2301 C2302 1.390 . S
C2302 C2301 1.390 . S
C2302 C2303 1.394 1_655 S
C2302 C2308 1.465 1_556 S
C2303 C2298 1.399 . S
C2303 C2302 1.394 1_455 S
C2303 C2304 1.516 1_556 S
C2304 C2303 1.516 1_554 S
C2304 C2305 1.502 . S
C2304 C2306 1.561 . S
C2304 C2307 1.526 1_455 S
C2305 H2289 0.959 . S
C2305 H2290 0.959 . S
C2305 H2291 0.961 . S
C2305 C2304 1.502 . S
C2306 H2292 0.960 . S
C2306 H2293 0.961 . S
C2306 H2294 0.959 . S
C2306 C2304 1.561 . S
C2307 C2304 1.526 1_655 S
C2307 C2308 1.396 . S
C2307 C2312 1.390 . S
C2308 C2302 1.465 1_554 S
C2308 C2307 1.396 . S
C2308 C2309 1.399 . S
C2309 H2295 0.929 1_554 S
C2309 C2308 1.399 . S
C2309 C2310 1.385 . S
C2310 H2296 0.931 . S
C2310 C2309 1.385 . S
C2310 C2311 1.389 . S
C2311 C2310 1.389 . S
C2311 C2312 1.387 . S
C2312 H2297 0.948 . S
C2312 C2307 1.390 . S
C2312 C2311 1.387 . S
H2313 C2325 0.930 . S
H2314 C2327 0.930 . S
H2315 C2328 0.930 . S
H2316 C2332 0.959 1_554 S
H2317 C2332 0.959 . S
H2318 C2332 0.961 1_554 S
H2319 C2333 0.960 . S
H2320 C2333 0.961 . S
H2321 C2333 0.959 . S
H2322 C2336 0.929 . S
H2323 C2337 0.931 . S
H2324 C2339 0.930 . S
C2325 H2313 0.930 . S
C2325 C2326 1.399 . S
C2325 C2330 1.399 . S
C2326 C2325 1.399 . S
C2326 C2327 1.376 . S
C2327 H2314 0.930 . S
C2327 C2326 1.376 . S
C2327 C2328 1.388 . S
C2328 H2315 0.930 . S
C2328 C2327 1.388 . S
C2328 C2329 1.390 . S
C2329 C2328 1.390 . S
C2329 C2330 1.394 . S
C2329 C2335 1.465 1_554 S
C2330 C2325 1.399 . S
C2330 C2329 1.394 . S
C2330 C2331 1.516 1_554 S
C2331 C2330 1.516 1_556 S
C2331 C2332 1.502 . S
C2331 C2333 1.561 . S
C2331 C2334 1.526 . S
C2332 H2316 0.959 1_556 S
C2332 H2317 0.959 . S
C2332 H2318 0.961 1_556 S
C2332 C2331 1.502 . S
C2333 H2319 0.960 . S
C2333 H2320 0.961 . S
C2333 H2321 0.959 . S
C2333 C2331 1.561 . S
C2334 C2331 1.526 . S
C2334 C2335 1.396 . S
C2334 C2339 1.390 . S
C2335 C2329 1.465 1_556 S
C2335 C2334 1.396 . S
C2335 C2336 1.399 . S
C2336 H2322 0.929 . S
C2336 C2335 1.399 . S
C2336 C2337 1.385 . S
C2337 H2323 0.931 . S
C2337 C2336 1.385 . S
C2337 C2338 1.389 . S
C2338 C2337 1.389 . S
C2338 C2339 1.387 . S
C2339 H2324 0.930 . S
C2339 C2334 1.390 . S
C2339 C2338 1.387 . S
H2340 C2352 0.930 . S
H2341 C2354 0.930 . S
H2342 C2355 0.930 . S
H2343 C2359 0.959 . S
H2344 C2359 0.959 . S
H2345 C2359 0.961 . S
H2346 C2360 0.960 . S
H2347 C2360 0.961 . S
H2348 C2360 0.959 . S
H2349 C2363 0.929 . S
H2350 C2364 0.931 . S
H2351 C2366 0.930 . S
C2352 H2340 0.930 . S
C2352 C2353 1.399 . S
C2352 C2357 1.399 . S
C2353 C2352 1.399 . S
C2353 C2354 1.376 . S
C2354 H2341 0.930 . S
C2354 C2353 1.376 . S
C2354 C2355 1.388 1_545 S
C2355 H2342 0.930 . S
C2355 C2354 1.388 1_565 S
C2355 C2356 1.390 . S
C2356 C2355 1.390 . S
C2356 C2357 1.394 1_565 S
C2356 C2362 1.465 1_554 S
C2357 C2352 1.399 . S
C2357 C2356 1.394 1_545 S
C2357 C2358 1.516 1_554 S
C2358 C2357 1.516 1_556 S
C2358 C2359 1.502 . S
C2358 C2360 1.561 . S
C2358 C2361 1.526 1_545 S
C2359 H2343 0.959 . S
C2359 H2344 0.959 . S
C2359 H2345 0.961 . S
C2359 C2358 1.502 . S
C2360 H2346 0.960 . S
C2360 H2347 0.961 . S
C2360 H2348 0.959 . S
C2360 C2358 1.561 . S
C2361 C2358 1.526 1_565 S
C2361 C2362 1.396 . S
C2361 C2366 1.390 . S
C2362 C2356 1.465 1_556 S
C2362 C2361 1.396 . S
C2362 C2363 1.399 . S
C2363 H2349 0.929 . S
C2363 C2362 1.399 . S
C2363 C2364 1.385 . S
C2364 H2350 0.931 . S
C2364 C2363 1.385 . S
C2364 C2365 1.389 . S
C2365 C2364 1.389 . S
C2365 C2366 1.387 . S
C2366 H2351 0.930 . S
C2366 C2361 1.390 . S
C2366 C2365 1.387 . S
H2367 C2379 0.930 . S
H2368 C2381 0.930 . S
H2369 C2382 0.930 1_554 S
H2370 C2386 0.959 . S
H2371 C2386 0.959 . S
H2372 C2386 0.961 . S
H2373 C2387 0.960 . S
H2374 C2387 0.961 . S
H2375 C2387 0.959 . S
H2376 C2390 0.929 . S
H2377 C2391 0.931 . S
H2378 C2393 0.930 . S
C2379 H2367 0.930 . S
C2379 C2380 1.399 . S
C2379 C2384 1.425 . S
C2380 C2379 1.399 . S
C2380 C2381 1.376 . S
C2381 H2368 0.930 . S
C2381 C2380 1.376 . S
C2381 C2382 1.388 . S
C2382 H2369 0.930 1_556 S
C2382 C2381 1.388 . S
C2382 C2383 1.390 . S
C2383 C2382 1.390 . S
C2383 C2384 1.425 . S
C2383 C2389 1.465 1_556 S
C2384 C2379 1.425 . S
C2384 C2383 1.425 . S
C2384 C2385 1.463 1_565 S
C2385 C2384 1.463 1_545 S
C2385 C2386 1.502 . S
C2385 C2387 1.561 . S
C2385 C2388 1.526 1_556 S
C2386 H2370 0.959 . S
C2386 H2371 0.959 . S
C2386 H2372 0.961 . S
C2386 C2385 1.502 . S
C2387 H2373 0.960 . S
C2387 H2374 0.961 . S
C2387 H2375 0.959 . S
C2387 C2385 1.561 . S
C2388 C2385 1.526 1_554 S
C2388 C2389 1.396 1_545 S
C2388 C2393 1.390 . S
C2389 C2383 1.465 1_554 S
C2389 C2388 1.396 1_565 S
C2389 C2390 1.399 . S
C2390 H2376 0.929 . S
C2390 C2389 1.399 . S
C2390 C2391 1.385 1_565 S
C2391 H2377 0.931 . S
C2391 C2390 1.385 1_545 S
C2391 C2392 1.389 . S
C2392 C2391 1.389 . S
C2392 C2393 1.387 . S
C2393 H2378 0.930 . S
C2393 C2388 1.390 . S
C2393 C2392 1.387 . S
H2394 C2406 0.930 . S
H2395 C2408 0.930 . S
H2396 C2409 0.930 . S
H2397 C2413 0.959 . S
H2398 C2413 0.959 . S
H2399 C2413 0.961 . S
H2400 C2414 0.960 1_556 S
H2401 C2414 0.961 . S
H2402 C2414 0.959 1_656 S
H2403 C2417 0.929 . S
H2404 C2418 0.931 . S
H2405 C2420 0.930 . S
C2406 H2394 0.930 . S
C2406 C2407 1.399 . S
C2406 C2411 1.399 . S
C2407 C2406 1.399 . S
C2407 C2408 1.376 . S
C2408 H2395 0.930 . S
C2408 C2407 1.376 . S
C2408 C2409 1.388 1_455 S
C2409 H2396 0.930 . S
C2409 C2408 1.388 1_655 S
C2409 C2410 1.375 . S
C2410 C2409 1.375 . S
C2410 C2411 1.372 1_655 S
C2410 C2416 1.506 1_556 S
C2411 C2406 1.399 . S
C2411 C2410 1.372 1_455 S
C2411 C2412 1.516 1_556 S
C2412 C2411 1.516 1_554 S
C2412 C2413 1.502 . S
C2412 C2414 1.561 . S
C2412 C2415 1.526 1_455 S
C2413 H2397 0.959 . S
C2413 H2398 0.959 . S
C2413 H2399 0.961 . S
C2413 C2412 1.502 . S
C2414 H2400 0.960 1_554 S
C2414 H2401 0.961 . S
C2414 H2402 0.959 1_454 S
C2414 C2412 1.561 . S
C2415 C2412 1.526 1_655 S
C2415 C2416 1.396 . S
C2415 C2420 1.390 . S
C2416 C2410 1.506 1_554 S
C2416 C2415 1.396 . S
C2416 C2417 1.399 . S
C2417 H2403 0.929 . S
C2417 C2416 1.399 . S
C2417 C2418 1.385 . S
C2418 H2404 0.931 . S
C2418 C2417 1.385 . S
C2418 C2419 1.389 . S
C2419 C2418 1.389 . S
C2419 C2420 1.387 . S
C2420 H2405 0.930 . S
C2420 C2415 1.390 . S
C2420 C2419 1.387 . S
H2421 C2433 0.930 . S
H2422 C2435 0.930 . S
H2423 C2436 0.930 . S
H2424 C2440 0.959 . S
H2425 C2440 0.959 . S
H2426 C2440 0.961 . S
H2427 C2441 0.960 1_554 S
H2428 C2441 0.961 . S
H2429 C2441 0.959 1_554 S
H2430 C2444 0.929 . S
H2431 C2445 0.931 . S
H2432 C2447 0.930 . S
C2433 H2421 0.930 . S
C2433 C2434 1.399 . S
C2433 C2438 1.399 . S
C2434 C2433 1.399 . S
C2434 C2435 1.376 . S
C2435 H2422 0.930 . S
C2435 C2434 1.376 . S
C2435 C2436 1.388 . S
C2436 H2423 0.930 . S
C2436 C2435 1.388 . S
C2436 C2437 1.390 . S
C2437 C2436 1.390 . S
C2437 C2438 1.394 . S
C2437 C2443 1.465 1_554 S
C2438 C2433 1.399 . S
C2438 C2437 1.394 . S
C2438 C2439 1.516 1_554 S
C2439 C2438 1.516 1_556 S
C2439 C2440 1.502 . S
C2439 C2441 1.561 . S
C2439 C2442 1.526 . S
C2440 H2424 0.959 . S
C2440 H2425 0.959 . S
C2440 H2426 0.961 . S
C2440 C2439 1.502 . S
C2441 H2427 0.960 1_556 S
C2441 H2428 0.961 . S
C2441 H2429 0.959 1_556 S
C2441 C2439 1.561 . S
C2442 C2439 1.526 . S
C2442 C2443 1.396 . S
C2442 C2447 1.390 . S
C2443 C2437 1.465 1_556 S
C2443 C2442 1.396 . S
C2443 C2444 1.399 . S
C2444 H2430 0.929 . S
C2444 C2443 1.399 . S
C2444 C2445 1.385 . S
C2445 H2431 0.931 . S
C2445 C2444 1.385 . S
C2445 C2446 1.389 . S
C2446 C2445 1.389 . S
C2446 C2447 1.387 . S
C2447 H2432 0.930 . S
C2447 C2442 1.390 . S
C2447 C2446 1.387 . S
C517 C13 1.197 . S
C529 C167 1.210 . S
C544 C27 1.221 . S
C556 C139 1.227 . S
C571 C153 1.208 . S
C583 C41 1.219 . S
C598 C55 1.138 . S
C610 C111 1.134 . S
C625 C125 1.208 . S
C637 C69 1.219 . S
C652 C83 1.136 . S
C664 C97 1.133 . S
C679 C335 1.140 . S
C691 C181 1.135 . S
C706 C195 1.230 . S
C718 C307 1.229 . S
C733 C209 1.227 . S
C745 C321 1.230 . S
C760 C279 1.208 . S
C772 C223 1.218 . S
C787 C237 1.147 . S
C799 C293 1.139 . S
C814 C265 1.155 . S
C826 C251 1.145 . S
C841 C349 1.155 . S
C853 C503 1.144 . S
C868 C475 1.213 . S
C880 C363 1.222 . S
C895 C489 1.149 . S
C907 C377 1.141 . S
C922 C447 1.178 . S
C934 C391 1.194 . S
C949 C461 1.166 . S
C961 C405 1.181 . S
C976 C433 1.139 . S
C988 C419 1.150 . S
C1003 C7 1.068 . S
C1015 C63 1.059 . S
C1030 C77 1.046 . S
C1042 C21 1.078 . S
C1057 C35 1.048 . S
C1069 C49 1.079 . S
C1084 C91 1.043 . S
C1096 C147 1.089 . S
C1111 C105 1.080 . S
C1123 C161 1.039 . S
C1138 C119 1.085 . S
C1150 C133 1.041 . S
C1165 C231 1.091 . S
C1177 C175 1.041 . S
C1192 C245 1.043 . S
C1204 C189 1.081 . S
C1219 C203 1.042 . S
C1231 C217 1.086 . S
C1246 C315 1.071 . S
C1258 C259 1.044 . S
C1273 C329 1.049 . S
C1285 C273 1.058 . S
C1300 C287 1.045 . S
C1312 C301 1.090 . S
C1327 C399 1.091 . S
C1339 C343 1.041 . S
C1354 C357 1.050 . S
C1366 C413 1.081 . S
C1381 C371 1.046 . S
C1393 C385 1.081 . S
C1408 C483 1.079 . S
C1420 C427 1.072 . S
C1435 C441 1.074 . S
C1447 C497 1.040 . S
C1462 C469 1.080 . S
C1474 C455 1.041 . S
C1489 C414 1.407 . S
C1501 C8 1.371 . S
C1516 C22 1.430 . S
C1528 C386 1.443 . S
C1543 C36 1.407 . S
C1555 C400 1.446 . S
C1570 C50 1.387 . S
C1582 C190 1.436 . S
C1597 C204 1.425 . S
C1609 C64 1.378 . S
C1624 C176 1.446 . S
C1636 C78 1.422 . S
C1651 C92 1.407 . S
C1663 C330 1.382 . S
C1678 C106 1.370 . S
C1690 C302 1.388 . S
C1705 C120 1.446 . S
C1717 C316 1.442 . S
C1732 C442 1.432 . S
C1744 C134 1.405 . S
C1759 C456 1.438 . S
C1771 C148 1.447 . S
C1786 C162 1.416 . S
C1798 C428 1.439 . S
C1813 C358 1.390 . S
C1825 C218 1.371 . S
C1840 C232 1.427 . S
C1852 C372 1.445 . S
C1867 C344 1.446 . S
C1879 C246 1.407 . S
C1894 C498 1.391 . S
C1906 C260 1.420 . S
C1921 C274 1.370 . S
C1933 C470 1.388 . S
C1948 C288 1.374 . S
C1960 C484 1.372 . S
C1975 C11 1.562 . S
C1987 C417 1.560 . S
C2002 C389 1.560 . S
C2014 C25 1.562 . S
C2029 C39 1.561 . S
C2041 C403 1.559 . S
C2056 C193 1.559 . S
C2068 C53 1.562 . S
C2083 C67 1.562 . S
C2095 C207 1.559 . S
C2110 C81 1.558 . S
C2122 C179 1.562 . S
C2137 C333 1.561 . S
C2149 C95 1.559 . S
C2164 C109 1.559 . S
C2176 C305 1.560 . S
C2191 C123 1.559 . S
C2203 C319 1.562 . S
C2218 C137 1.558 . S
C2230 C445 1.561 . S
C2245 C459 1.559 . S
C2257 C151 1.562 . S
C2272 C165 1.560 . S
C2284 C431 1.562 . S
C2299 C361 1.562 . S
C2311 C221 1.559 . S
C2326 C235 1.561 . S
C2338 C375 1.561 . S
C2353 C249 1.562 . S
C2365 C347 1.560 . S
C2380 C501 1.559 . S
C2392 C263 1.562 . S
C2407 C473 1.562 . S
C2419 C277 1.560 . S
C2434 C291 1.562 . S
C2446 C487 1.560 . S
