# Generated by pormake.
# Topology zni, (4)-cn, num edge types: 1
# Building blocks:
#     Node 0, Type 0, BuildingBlock: CEKHIL_clean_sbu_0, # of connection points: 4
#     Node 1, Type 0, BuildingBlock: CEKHIL_clean_sbu_0, # of connection points: 4
#     Node 2, Type 0, BuildingBlock: CEKHIL_clean_sbu_0, # of connection points: 4
#     Node 3, Type 0, BuildingBlock: CEKHIL_clean_sbu_0, # of connection points: 4
#     Node 4, Type 0, BuildingBlock: CEKHIL_clean_sbu_0, # of connection points: 4
#     Node 5, Type 0, BuildingBlock: CEKHIL_clean_sbu_0, # of connection points: 4
#     Node 6, Type 0, BuildingBlock: CEKHIL_clean_sbu_0, # of connection points: 4
#     Node 7, Type 0, BuildingBlock: CEKHIL_clean_sbu_0, # of connection points: 4
#     Node 8, Type 0, BuildingBlock: CEKHIL_clean_sbu_0, # of connection points: 4
#     Node 9, Type 0, BuildingBlock: CEKHIL_clean_sbu_0, # of connection points: 4
#     Node 10, Type 0, BuildingBlock: CEKHIL_clean_sbu_0, # of connection points: 4
#     Node 11, Type 0, BuildingBlock: CEKHIL_clean_sbu_0, # of connection points: 4
#     Node 12, Type 0, BuildingBlock: CEKHIL_clean_sbu_0, # of connection points: 4
#     Node 13, Type 0, BuildingBlock: CEKHIL_clean_sbu_0, # of connection points: 4
#     Node 14, Type 0, BuildingBlock: CEKHIL_clean_sbu_0, # of connection points: 4
#     Node 15, Type 0, BuildingBlock: CEKHIL_clean_sbu_0, # of connection points: 4
#     Node 16, Type 0, BuildingBlock: CEKHIL_clean_sbu_0, # of connection points: 4
#     Node 17, Type 0, BuildingBlock: CEKHIL_clean_sbu_0, # of connection points: 4
#     Node 18, Type 0, BuildingBlock: CEKHIL_clean_sbu_0, # of connection points: 4
#     Node 19, Type 0, BuildingBlock: CEKHIL_clean_sbu_0, # of connection points: 4
#     Node 20, Type 0, BuildingBlock: CEKHIL_clean_sbu_0, # of connection points: 4
#     Node 21, Type 0, BuildingBlock: CEKHIL_clean_sbu_0, # of connection points: 4
#     Node 22, Type 0, BuildingBlock: CEKHIL_clean_sbu_0, # of connection points: 4
#     Node 23, Type 0, BuildingBlock: CEKHIL_clean_sbu_0, # of connection points: 4
#     Node 24, Type 0, BuildingBlock: CEKHIL_clean_sbu_0, # of connection points: 4
#     Node 25, Type 0, BuildingBlock: CEKHIL_clean_sbu_0, # of connection points: 4
#     Node 26, Type 0, BuildingBlock: CEKHIL_clean_sbu_0, # of connection points: 4
#     Node 27, Type 0, BuildingBlock: CEKHIL_clean_sbu_0, # of connection points: 4
#     Node 28, Type 0, BuildingBlock: CEKHIL_clean_sbu_0, # of connection points: 4
#     Node 29, Type 0, BuildingBlock: CEKHIL_clean_sbu_0, # of connection points: 4
#     Node 30, Type 0, BuildingBlock: CEKHIL_clean_sbu_0, # of connection points: 4
#     Node 31, Type 0, BuildingBlock: CEKHIL_clean_sbu_0, # of connection points: 4
#     Edge 32, Type (0, 0), BuildingBlock: AJUNOK_clean_linker_0, # of connection points: 2
#     Edge 33, Type (0, 0), BuildingBlock: AJUNOK_clean_linker_0, # of connection points: 2
#     Edge 34, Type (0, 0), BuildingBlock: AJUNOK_clean_linker_0, # of connection points: 2
#     Edge 35, Type (0, 0), BuildingBlock: AJUNOK_clean_linker_0, # of connection points: 2
#     Edge 36, Type (0, 0), BuildingBlock: AJUNOK_clean_linker_0, # of connection points: 2
#     Edge 37, Type (0, 0), BuildingBlock: AJUNOK_clean_linker_0, # of connection points: 2
#     Edge 38, Type (0, 0), BuildingBlock: AJUNOK_clean_linker_0, # of connection points: 2
#     Edge 39, Type (0, 0), BuildingBlock: AJUNOK_clean_linker_0, # of connection points: 2
#     Edge 40, Type (0, 0), BuildingBlock: AJUNOK_clean_linker_0, # of connection points: 2
#     Edge 41, Type (0, 0), BuildingBlock: AJUNOK_clean_linker_0, # of connection points: 2
#     Edge 42, Type (0, 0), BuildingBlock: AJUNOK_clean_linker_0, # of connection points: 2
#     Edge 43, Type (0, 0), BuildingBlock: AJUNOK_clean_linker_0, # of connection points: 2
#     Edge 44, Type (0, 0), BuildingBlock: AJUNOK_clean_linker_0, # of connection points: 2
#     Edge 45, Type (0, 0), BuildingBlock: AJUNOK_clean_linker_0, # of connection points: 2
#     Edge 46, Type (0, 0), BuildingBlock: AJUNOK_clean_linker_0, # of connection points: 2
#     Edge 47, Type (0, 0), BuildingBlock: AJUNOK_clean_linker_0, # of connection points: 2
#     Edge 48, Type (0, 0), BuildingBlock: AJUNOK_clean_linker_0, # of connection points: 2
#     Edge 49, Type (0, 0), BuildingBlock: AJUNOK_clean_linker_0, # of connection points: 2
#     Edge 50, Type (0, 0), BuildingBlock: AJUNOK_clean_linker_0, # of connection points: 2
#     Edge 51, Type (0, 0), BuildingBlock: AJUNOK_clean_linker_0, # of connection points: 2
#     Edge 52, Type (0, 0), BuildingBlock: AJUNOK_clean_linker_0, # of connection points: 2
#     Edge 53, Type (0, 0), BuildingBlock: AJUNOK_clean_linker_0, # of connection points: 2
#     Edge 54, Type (0, 0), BuildingBlock: AJUNOK_clean_linker_0, # of connection points: 2
#     Edge 55, Type (0, 0), BuildingBlock: AJUNOK_clean_linker_0, # of connection points: 2
#     Edge 56, Type (0, 0), BuildingBlock: AJUNOK_clean_linker_0, # of connection points: 2
#     Edge 57, Type (0, 0), BuildingBlock: AJUNOK_clean_linker_0, # of connection points: 2
#     Edge 58, Type (0, 0), BuildingBlock: AJUNOK_clean_linker_0, # of connection points: 2
#     Edge 59, Type (0, 0), BuildingBlock: AJUNOK_clean_linker_0, # of connection points: 2
#     Edge 60, Type (0, 0), BuildingBlock: AJUNOK_clean_linker_0, # of connection points: 2
#     Edge 61, Type (0, 0), BuildingBlock: AJUNOK_clean_linker_0, # of connection points: 2
#     Edge 62, Type (0, 0), BuildingBlock: AJUNOK_clean_linker_0, # of connection points: 2
#     Edge 63, Type (0, 0), BuildingBlock: AJUNOK_clean_linker_0, # of connection points: 2
#     Edge 64, Type (0, 0), BuildingBlock: AJUNOK_clean_linker_0, # of connection points: 2
#     Edge 65, Type (0, 0), BuildingBlock: AJUNOK_clean_linker_0, # of connection points: 2
#     Edge 66, Type (0, 0), BuildingBlock: AJUNOK_clean_linker_0, # of connection points: 2
#     Edge 67, Type (0, 0), BuildingBlock: AJUNOK_clean_linker_0, # of connection points: 2
#     Edge 68, Type (0, 0), BuildingBlock: AJUNOK_clean_linker_0, # of connection points: 2
#     Edge 69, Type (0, 0), BuildingBlock: AJUNOK_clean_linker_0, # of connection points: 2
#     Edge 70, Type (0, 0), BuildingBlock: AJUNOK_clean_linker_0, # of connection points: 2
#     Edge 71, Type (0, 0), BuildingBlock: AJUNOK_clean_linker_0, # of connection points: 2
#     Edge 72, Type (0, 0), BuildingBlock: AJUNOK_clean_linker_0, # of connection points: 2
#     Edge 73, Type (0, 0), BuildingBlock: AJUNOK_clean_linker_0, # of connection points: 2
#     Edge 74, Type (0, 0), BuildingBlock: AJUNOK_clean_linker_0, # of connection points: 2
#     Edge 75, Type (0, 0), BuildingBlock: AJUNOK_clean_linker_0, # of connection points: 2
#     Edge 76, Type (0, 0), BuildingBlock: AJUNOK_clean_linker_0, # of connection points: 2
#     Edge 77, Type (0, 0), BuildingBlock: AJUNOK_clean_linker_0, # of connection points: 2
#     Edge 78, Type (0, 0), BuildingBlock: AJUNOK_clean_linker_0, # of connection points: 2
#     Edge 79, Type (0, 0), BuildingBlock: AJUNOK_clean_linker_0, # of connection points: 2
#     Edge 80, Type (0, 0), BuildingBlock: AJUNOK_clean_linker_0, # of connection points: 2
#     Edge 81, Type (0, 0), BuildingBlock: AJUNOK_clean_linker_0, # of connection points: 2
#     Edge 82, Type (0, 0), BuildingBlock: AJUNOK_clean_linker_0, # of connection points: 2
#     Edge 83, Type (0, 0), BuildingBlock: AJUNOK_clean_linker_0, # of connection points: 2
#     Edge 84, Type (0, 0), BuildingBlock: AJUNOK_clean_linker_0, # of connection points: 2
#     Edge 85, Type (0, 0), BuildingBlock: AJUNOK_clean_linker_0, # of connection points: 2
#     Edge 86, Type (0, 0), BuildingBlock: AJUNOK_clean_linker_0, # of connection points: 2
#     Edge 87, Type (0, 0), BuildingBlock: AJUNOK_clean_linker_0, # of connection points: 2
#     Edge 88, Type (0, 0), BuildingBlock: AJUNOK_clean_linker_0, # of connection points: 2
#     Edge 89, Type (0, 0), BuildingBlock: AJUNOK_clean_linker_0, # of connection points: 2
#     Edge 90, Type (0, 0), BuildingBlock: AJUNOK_clean_linker_0, # of connection points: 2
#     Edge 91, Type (0, 0), BuildingBlock: AJUNOK_clean_linker_0, # of connection points: 2
#     Edge 92, Type (0, 0), BuildingBlock: AJUNOK_clean_linker_0, # of connection points: 2
#     Edge 93, Type (0, 0), BuildingBlock: AJUNOK_clean_linker_0, # of connection points: 2
#     Edge 94, Type (0, 0), BuildingBlock: AJUNOK_clean_linker_0, # of connection points: 2
#     Edge 95, Type (0, 0), BuildingBlock: AJUNOK_clean_linker_0, # of connection points: 2
# Relax obj value: 0.222
# Max RMSD: 0.113
# Mean RMSD: 0.113
data_MOF--net-zni--node1-CEKHIL_clean_sbu_0--edge1-AJUNOK_clean_linker_0
_symmetry_space_group_name_H-M    P1
_symmetry_Int_Tables_number       1
_symmetry_cell_setting            triclinic
loop_
_symmetry_equiv_pos_as_xyz
'x, y, z'
_cell_length_a     42.706635
_cell_length_b     42.715277
_cell_length_c     21.476536
_cell_angle_alpha  89.982864
_cell_angle_beta   89.959458
_cell_angle_gamma 89.999969
loop_
_atom_site_label
_atom_site_type_symbol
_atom_site_fract_x
_atom_site_fract_y
_atom_site_fract_z
_atom_type_partial_charge
Co0 Co 0.09768 0.0899 0.41764 0.0
O1 O 0.09013 0.04588 0.40159 0.0
O2 O 0.10715 0.08014 0.33215 0.0
C3 C 0.12329 0.08413 0.50901 0.0
O4 O 0.10985 0.13583 0.41425 0.0
Co5 Co 0.07215 0.1265 0.5312 0.0
O6 O 0.09959 0.16138 0.50283 0.0
C7 C 0.02969 0.11027 0.42698 0.0
C8 C 0.09884 0.05159 0.34461 0.0
C9 C 0.11145 0.16047 0.4484 0.0
O10 O 0.05303 0.10041 0.39441 0.0
O11 O 0.03236 0.11922 0.48365 0.0
O12 O 0.13811 0.08046 0.45656 0.0
O13 O 0.09355 0.08876 0.50463 0.0
Co14 Co 0.16308 0.84795 0.66594 0.0
O15 O 0.20729 0.84039 0.65377 0.0
O16 O 0.17477 0.85773 0.58141 0.0
C17 C 0.16671 0.87342 0.75788 0.0
O18 O 0.11726 0.86009 0.65933 0.0
Co19 Co 0.12486 0.82126 0.77651 0.0
O20 O 0.09068 0.84912 0.74651 0.0
C21 C 0.14282 0.77979 0.67211 0.0
C22 C 0.20302 0.84947 0.59658 0.0
C23 C 0.09223 0.86134 0.69245 0.0
O24 O 0.15297 0.80346 0.64092 0.0
O25 O 0.1332 0.78178 0.72848 0.0
O26 O 0.17166 0.88828 0.70591 0.0
O27 O 0.16251 0.84364 0.75296 0.0
Co28 Co 0.40693 0.91358 0.91706 0.0
O29 O 0.41389 0.95774 0.90158 0.0
O30 O 0.39657 0.9236 0.83219 0.0
C31 C 0.38214 0.9184 0.00961 0.0
O32 O 0.39529 0.86758 0.91318 0.0
Co33 Co 0.43429 0.87669 0.02842 0.0
O34 O 0.40719 0.8415 1.0003 0.0
C35 C 0.4751 0.89298 0.92159 0.0
C36 C 0.40482 0.95215 0.8448 0.0
C37 C 0.39468 0.84262 0.94649 0.0
O38 O 0.45133 0.90356 0.89134 0.0
O39 O 0.47338 0.88374 0.97826 0.0
O40 O 0.36681 0.92233 0.95784 0.0
O41 O 0.41191 0.91425 0.00397 0.0
Co42 Co 0.33969 0.15713 0.16827 0.0
O43 O 0.29552 0.16375 0.15425 0.0
O44 O 0.32928 0.14761 0.08292 0.0
C45 C 0.3353 0.13103 0.25933 0.0
O46 O 0.38595 0.14607 0.16388 0.0
Co47 Co 0.37559 0.18421 0.28123 0.0
O48 O 0.41059 0.1568 0.25345 0.0
C49 C 0.35938 0.22563 0.17547 0.0
C50 C 0.30066 0.15506 0.09712 0.0
C51 C 0.41031 0.14496 0.19901 0.0
O52 O 0.34909 0.20193 0.14461 0.0
O53 O 0.36854 0.22365 0.23215 0.0
O54 O 0.33144 0.11641 0.20678 0.0
O55 O 0.33888 0.16095 0.25538 0.0
Co56 Co 0.09569 0.91345 0.08612 0.0
O57 O 0.0886 0.95761 0.09967 0.0
O58 O 0.10597 0.9245 0.17092 0.0
C59 C 0.12063 0.91787 0.99361 0.0
O60 O 0.10732 0.86733 0.09087 0.0
Co61 Co 0.06787 0.87675 0.97472 0.0
O62 O 0.09584 0.84216 1.0022 0.0
C63 C 0.0274 0.89294 0.08203 0.0
C64 C 0.09787 0.95293 0.15656 0.0
C65 C 0.10823 0.84281 0.05614 0.0
O66 O 0.05126 0.90356 0.11193 0.0
O67 O 0.0289 0.88367 0.02536 0.0
O68 O 0.13589 0.92199 0.04536 0.0
O69 O 0.09085 0.91382 0.99922 0.0
Co70 Co 0.34047 0.84818 0.33698 0.0
O71 O 0.29635 0.84143 0.35259 0.0
O72 O 0.33072 0.85804 0.42225 0.0
C73 C 0.33593 0.87381 0.24537 0.0
O74 O 0.38659 0.85941 0.34029 0.0
Co75 Co 0.37619 0.82049 0.22432 0.0
O76 O 0.41136 0.84792 0.25121 0.0
C77 C 0.3608 0.77978 0.33158 0.0
C78 C 0.30209 0.85005 0.40956 0.0
C79 C 0.41099 0.8602 0.30525 0.0
O80 O 0.35025 0.80359 0.36171 0.0
O81 O 0.36982 0.78135 0.27474 0.0
O82 O 0.33199 0.88866 0.29767 0.0
O83 O 0.33945 0.8439 0.24989 0.0
Co84 Co 0.40494 0.09055 0.58673 0.0
O85 O 0.41301 0.04655 0.60003 0.0
O86 O 0.39534 0.07924 0.67174 0.0
C87 C 0.37967 0.08551 0.49486 0.0
O88 O 0.39238 0.13641 0.59175 0.0
Co89 Co 0.43094 0.12794 0.47415 0.0
O90 O 0.40226 0.16175 0.50245 0.0
C91 C 0.47279 0.11155 0.57928 0.0
C92 C 0.40393 0.05098 0.65714 0.0
C93 C 0.39044 0.16085 0.5569 0.0
O94 O 0.44937 0.10124 0.61106 0.0
O95 O 0.47044 0.12082 0.52274 0.0
O96 O 0.36467 0.08118 0.54691 0.0
O97 O 0.40933 0.09028 0.49988 0.0
Co98 Co 0.16488 0.1549 0.83422 0.0
O99 O 0.20897 0.16151 0.85063 0.0
O100 O 0.17406 0.14569 0.91997 0.0
C101 C 0.16995 0.12841 0.74373 0.0
O102 O 0.11865 0.14398 0.837 0.0
Co103 Co 0.1299 0.18145 0.7196 0.0
O104 O 0.0942 0.15487 0.74735 0.0
C105 C 0.146 0.22344 0.82436 0.0
C106 C 0.20285 0.15329 0.90772 0.0
C107 C 0.09431 0.14311 0.80187 0.0
O108 O 0.15527 0.19983 0.85675 0.0
O109 O 0.13745 0.2212 0.76737 0.0
O110 O 0.17339 0.11401 0.79666 0.0
O111 O 0.16648 0.15836 0.74706 0.0
Co112 Co 0.90613 0.91485 0.58532 0.0
O113 O 0.91276 0.95908 0.59822 0.0
O114 O 0.89704 0.92575 0.67064 0.0
C115 C 0.87954 0.91853 0.49483 0.0
O116 O 0.8953 0.86859 0.59074 0.0
Co117 Co 0.93299 0.87869 0.4721 0.0
O118 O 0.90595 0.84367 0.50131 0.0
C119 C 0.97478 0.89635 0.57604 0.0
C120 C 0.90447 0.95428 0.65569 0.0
C121 C 0.89426 0.84411 0.55591 0.0
O122 O 0.95108 0.90571 0.60809 0.0
O123 O 0.97266 0.88721 0.5194 0.0
O124 O 0.86514 0.92269 0.54757 0.0
O125 O 0.90949 0.91519 0.49823 0.0
Co126 Co 0.83946 0.15375 0.3376 0.0
O127 O 0.79504 0.15996 0.34987 0.0
O128 O 0.82817 0.14406 0.42245 0.0
C129 C 0.83652 0.12783 0.24613 0.0
O130 O 0.88567 0.14323 0.34417 0.0
Co131 Co 0.87675 0.18117 0.22642 0.0
O132 O 0.91221 0.15524 0.25745 0.0
C133 C 0.85758 0.22245 0.33022 0.0
C134 C 0.79966 0.1514 0.40727 0.0
C135 C 0.91094 0.14313 0.31164 0.0
O136 O 0.84818 0.19861 0.36177 0.0
O137 O 0.86717 0.22058 0.27382 0.0
O138 O 0.83214 0.113 0.29834 0.0
O139 O 0.83981 0.15774 0.25054 0.0
Co140 Co 0.59697 0.09063 0.08839 0.0
O141 O 0.59007 0.04662 0.10496 0.0
O142 O 0.60692 0.08126 0.17383 0.0
C143 C 0.62246 0.08538 0.99674 0.0
O144 O 0.60846 0.13675 0.0907 0.0
Co145 Co 0.56951 0.12598 0.97518 0.0
O146 O 0.59718 0.16114 1.00117 0.0
C147 C 0.52858 0.11091 0.0824 0.0
C148 C 0.59889 0.05259 0.16173 0.0
C149 C 0.60947 0.16096 0.05519 0.0
O150 O 0.55239 0.10066 0.11298 0.0
O151 O 0.53029 0.11964 0.02541 0.0
O152 O 0.63736 0.08173 0.04906 0.0
O153 O 0.59258 0.08915 1.00135 0.0
Co154 Co 0.66371 0.8466 0.83753 0.0
O155 O 0.70786 0.84009 0.85331 0.0
O156 O 0.6732 0.85627 0.92291 0.0
C157 C 0.66831 0.87256 0.7464 0.0
O158 O 0.61747 0.85755 0.8407 0.0
Co159 Co 0.62837 0.81911 0.72443 0.0
O160 O 0.59298 0.8463 0.75127 0.0
C161 C 0.64401 0.77806 0.83104 0.0
C162 C 0.70191 0.84852 0.91033 0.0
C163 C 0.59316 0.85839 0.80548 0.0
O164 O 0.65425 0.80186 0.86157 0.0
O165 O 0.63502 0.77982 0.77423 0.0
O166 O 0.67202 0.88726 0.79893 0.0
O167 O 0.66496 0.84261 0.75043 0.0
Co168 Co 0.90771 0.09083 0.91674 0.0
O169 O 0.91444 0.04679 0.90032 0.0
O170 O 0.8969 0.08132 0.83184 0.0
C171 C 0.88329 0.08541 0.00952 0.0
O172 O 0.89625 0.13697 0.91441 0.0
Co173 Co 0.93614 0.12638 0.02869 0.0
O174 O 0.90859 0.16167 0.00301 0.0
C175 C 0.97615 0.11064 0.9204 0.0
C176 C 0.90512 0.05268 0.84385 0.0
C177 C 0.89579 0.16137 0.94946 0.0
O178 O 0.95205 0.10071 0.89037 0.0
O179 O 0.9749 0.11936 0.97743 0.0
O180 O 0.86773 0.08196 0.95791 0.0
O181 O 0.91307 0.08942 0.00348 0.0
Co182 Co 0.66238 0.1552 0.66761 0.0
O183 O 0.70667 0.16129 0.65188 0.0
O184 O 0.6721 0.14479 0.58262 0.0
C185 C 0.66687 0.13012 0.7599 0.0
O186 O 0.61623 0.14452 0.66365 0.0
Co187 Co 0.62589 0.18268 0.77951 0.0
O188 O 0.58991 0.15692 0.75022 0.0
C189 C 0.64406 0.22378 0.67445 0.0
C190 C 0.70084 0.15237 0.59508 0.0
C191 C 0.59105 0.14454 0.69629 0.0
O192 O 0.65324 0.19991 0.64271 0.0
O193 O 0.63496 0.22192 0.73117 0.0
O194 O 0.67039 0.11481 0.70798 0.0
O195 O 0.66318 0.15995 0.75453 0.0
Co196 Co 0.59708 0.91402 0.41887 0.0
O197 O 0.58987 0.95829 0.40666 0.0
O198 O 0.60747 0.9257 0.33463 0.0
C199 C 0.62178 0.91761 0.51157 0.0
O200 O 0.60889 0.86811 0.41226 0.0
Co201 Co 0.56959 0.87559 0.52822 0.0
O202 O 0.59695 0.841 0.49824 0.0
C203 C 0.52892 0.89348 0.42235 0.0
C204 C 0.59919 0.95397 0.34963 0.0
C205 C 0.6095 0.84277 0.44451 0.0
O206 O 0.55276 0.90428 0.39258 0.0
O207 O 0.53054 0.88357 0.47858 0.0
O208 O 0.63715 0.92233 0.46009 0.0
O209 O 0.59204 0.91339 0.50569 0.0
Co210 Co 0.83933 0.84535 0.16961 0.0
O211 O 0.79523 0.83832 0.15587 0.0
O212 O 0.82859 0.85528 0.08457 0.0
C213 C 0.83473 0.87074 0.26135 0.0
O214 O 0.88544 0.85685 0.16514 0.0
Co215 Co 0.87565 0.81798 0.28206 0.0
O216 O 0.91047 0.84561 0.25407 0.0
C217 C 0.85825 0.77688 0.17679 0.0
C218 C 0.8001 0.84736 0.09886 0.0
C219 C 0.90992 0.85784 0.19996 0.0
O220 O 0.84907 0.80076 0.14511 0.0
O221 O 0.86713 0.77865 0.23364 0.0
O222 O 0.83077 0.88577 0.20925 0.0
O223 O 0.83873 0.84094 0.25645 0.0
Co224 Co 0.59878 0.58929 0.91787 0.0
O225 O 0.59211 0.54512 0.90237 0.0
O226 O 0.60748 0.57967 0.83196 0.0
C227 C 0.62569 0.58464 0.00804 0.0
O228 O 0.60967 0.63553 0.91402 0.0
Co229 Co 0.57286 0.62476 0.03265 0.0
O230 O 0.59954 0.66017 0.00389 0.0
C231 C 0.53031 0.6083 0.92898 0.0
C232 C 0.5999 0.55096 0.84493 0.0
C233 C 0.6109 0.65991 0.94902 0.0
O234 O 0.55371 0.59875 0.89625 0.0
O235 O 0.53291 0.61719 0.98569 0.0
O236 O 0.6399 0.581 0.95491 0.0
O237 O 0.59574 0.58809 0.00509 0.0
Co238 Co 0.66339 0.34742 0.16739 0.0
O239 O 0.70761 0.34103 0.15165 0.0
O240 O 0.67327 0.35823 0.08259 0.0
C241 C 0.66797 0.37197 0.2602 0.0
O242 O 0.61715 0.35848 0.1642 0.0
Co243 Co 0.62756 0.31883 0.2792 0.0
O244 O 0.59228 0.34623 0.25277 0.0
C245 C 0.644 0.27886 0.17134 0.0
C246 C 0.70193 0.35023 0.095 0.0
C247 C 0.59267 0.3589 0.19906 0.0
O248 O 0.65392 0.30297 0.1412 0.0
O249 O 0.63509 0.28013 0.22827 0.0
O250 O 0.67165 0.38753 0.20861 0.0
O251 O 0.66438 0.34217 0.25417 0.0
Co252 Co 0.90558 0.41086 0.41444 0.0
O253 O 0.91318 0.45487 0.39891 0.0
O254 O 0.89488 0.42108 0.32985 0.0
C255 C 0.88133 0.41609 0.5074 0.0
O256 O 0.89317 0.36505 0.41089 0.0
Co257 Co 0.93314 0.37377 0.52531 0.0
O258 O 0.905 0.33919 0.49832 0.0
C259 C 0.97357 0.38962 0.41777 0.0
C260 C 0.90366 0.44949 0.34235 0.0
C261 C 0.89218 0.34031 0.4448 0.0
O262 O 0.94971 0.40021 0.3878 0.0
O263 O 0.9721 0.38056 0.47457 0.0
O264 O 0.8658 0.42022 0.45595 0.0
O265 O 0.91101 0.41152 0.5012 0.0
Co266 Co 0.83957 0.65781 0.66794 0.0
O267 O 0.79539 0.66516 0.65458 0.0
O268 O 0.82846 0.64778 0.58319 0.0
C269 C 0.83525 0.63266 0.76024 0.0
O270 O 0.88552 0.6458 0.66251 0.0
Co271 Co 0.87712 0.68482 0.77879 0.0
O272 O 0.91156 0.65691 0.75016 0.0
C273 C 0.86049 0.72595 0.67278 0.0
C274 C 0.80007 0.65598 0.59758 0.0
C275 C 0.91036 0.6446 0.69617 0.0
O276 O 0.84965 0.70227 0.64257 0.0
O277 O 0.87004 0.72407 0.7292 0.0
O278 O 0.83086 0.61758 0.70835 0.0
O279 O 0.83952 0.66242 0.75495 0.0
Co280 Co 0.59565 0.41234 0.58759 0.0
O281 O 0.58826 0.45653 0.60046 0.0
O282 O 0.60542 0.42366 0.67236 0.0
C283 C 0.62128 0.41626 0.49582 0.0
O284 O 0.60767 0.36643 0.59338 0.0
Co285 Co 0.56879 0.37468 0.47677 0.0
O286 O 0.59686 0.34041 0.50553 0.0
C287 C 0.52751 0.39113 0.58258 0.0
C288 C 0.59736 0.45203 0.65755 0.0
C289 C 0.60905 0.34162 0.55963 0.0
O290 O 0.55112 0.40224 0.61259 0.0
O291 O 0.52941 0.38145 0.52624 0.0
O292 O 0.63603 0.42098 0.54794 0.0
O293 O 0.59144 0.41217 0.50045 0.0
Co294 Co 0.84024 0.34739 0.83671 0.0
O295 O 0.79608 0.34034 0.85034 0.0
O296 O 0.82924 0.35762 0.92156 0.0
C297 C 0.8361 0.37253 0.74448 0.0
O298 O 0.88633 0.35904 0.84121 0.0
Co299 Co 0.87694 0.31947 0.72537 0.0
O300 O 0.91166 0.34727 0.7529 0.0
C301 C 0.86073 0.27906 0.83259 0.0
C302 C 0.80079 0.34961 0.90723 0.0
C303 C 0.91094 0.35986 0.80668 0.0
O304 O 0.85013 0.30295 0.86245 0.0
O305 O 0.86995 0.28049 0.77588 0.0
O306 O 0.83173 0.38762 0.79636 0.0
O307 O 0.83994 0.3427 0.74972 0.0
Co308 Co 0.90585 0.58858 0.08635 0.0
O309 O 0.91304 0.54432 0.0985 0.0
O310 O 0.89618 0.57705 0.17103 0.0
C311 C 0.88012 0.58521 0.99463 0.0
O312 O 0.89408 0.63449 0.09301 0.0
Co313 Co 0.93272 0.62656 0.9758 0.0
O314 O 0.90496 0.66087 0.00557 0.0
C315 C 0.97405 0.60944 0.08106 0.0
C316 C 0.90415 0.54872 0.15578 0.0
C317 C 0.89284 0.65947 0.05975 0.0
O318 O 0.95044 0.59836 0.11117 0.0
O319 O 0.97209 0.61933 0.02486 0.0
O320 O 0.86536 0.58034 0.04674 0.0
O321 O 0.90997 0.5891 0.99922 0.0
Co322 Co 0.66419 0.65712 0.3344 0.0
O323 O 0.7082 0.66407 0.35137 0.0
O324 O 0.67341 0.64727 0.42001 0.0
C325 C 0.67001 0.63169 0.24271 0.0
O326 O 0.61805 0.64565 0.33657 0.0
Co327 Co 0.62894 0.68397 0.22028 0.0
O328 O 0.59347 0.65693 0.24726 0.0
C329 C 0.64459 0.72543 0.32632 0.0
C330 C 0.70211 0.65533 0.40817 0.0
C331 C 0.59369 0.6448 0.30146 0.0
O332 O 0.65407 0.70176 0.35831 0.0
O333 O 0.63608 0.72337 0.26929 0.0
O334 O 0.67328 0.61669 0.29507 0.0
O335 O 0.66592 0.66149 0.24744 0.0
Co336 Co 0.40642 0.41431 0.08836 0.0
O337 O 0.41351 0.45851 0.10113 0.0
O338 O 0.3968 0.42552 0.17332 0.0
C339 C 0.38057 0.41811 0.99686 0.0
O340 O 0.3949 0.36823 0.09399 0.0
Co341 Co 0.43364 0.37743 0.97653 0.0
O342 O 0.40562 0.34305 0.00491 0.0
C343 C 0.47473 0.39366 0.08267 0.0
C344 C 0.40467 0.45393 0.15837 0.0
C345 C 0.39363 0.34374 0.05923 0.0
O346 O 0.45105 0.40454 0.11286 0.0
O347 O 0.47293 0.38418 0.02618 0.0
O348 O 0.36586 0.42262 0.04914 0.0
O349 O 0.41045 0.41437 1.00122 0.0
Co350 Co 0.34122 0.65607 0.83889 0.0
O351 O 0.29691 0.66328 0.85051 0.0
O352 O 0.32939 0.64669 0.9236 0.0
C353 C 0.33785 0.6301 0.74747 0.0
O354 O 0.38719 0.6444 0.84611 0.0
Co355 Co 0.37948 0.68231 0.72791 0.0
O356 O 0.41393 0.65509 0.75895 0.0
C357 C 0.36109 0.72431 0.83128 0.0
C358 C 0.30109 0.65456 0.90794 0.0
C359 C 0.41236 0.64325 0.81334 0.0
O360 O 0.35088 0.7008 0.8629 0.0
O361 O 0.37095 0.72197 0.77513 0.0
O362 O 0.33306 0.61543 0.79971 0.0
O363 O 0.34189 0.65991 0.7518 0.0
Co364 Co 0.09657 0.59086 0.58608 0.0
O365 O 0.08986 0.54666 0.60154 0.0
O366 O 0.10708 0.5808 0.67095 0.0
C367 C 0.12133 0.58611 0.49346 0.0
O368 O 0.10803 0.63691 0.58987 0.0
Co369 Co 0.06895 0.62752 0.47455 0.0
O370 O 0.09589 0.66286 0.5027 0.0
C371 C 0.0281 0.60984 0.58019 0.0
C372 C 0.09904 0.5522 0.65826 0.0
C373 C 0.10853 0.66183 0.5564 0.0
O374 O 0.05206 0.60063 0.61162 0.0
O375 O 0.02976 0.61876 0.52334 0.0
O376 O 0.13673 0.58229 0.54518 0.0
O377 O 0.09156 0.59015 0.49924 0.0
Co378 Co 0.16308 0.34686 0.3355 0.0
O379 O 0.20727 0.34124 0.35262 0.0
O380 O 0.17215 0.35791 0.4206 0.0
C381 C 0.16808 0.37151 0.24275 0.0
O382 O 0.11665 0.3571 0.33718 0.0
Co383 Co 0.12872 0.31759 0.22268 0.0
O384 O 0.09248 0.34393 0.24843 0.0
C385 C 0.14566 0.27788 0.33047 0.0
C386 C 0.20105 0.35046 0.40904 0.0
C387 C 0.09231 0.35678 0.30196 0.0
O388 O 0.15413 0.30224 0.3615 0.0
O389 O 0.13736 0.27894 0.27321 0.0
O390 O 0.17102 0.38709 0.29446 0.0
O391 O 0.1649 0.34164 0.24869 0.0
Co392 Co 0.40751 0.59146 0.41769 0.0
O393 O 0.41428 0.54735 0.40183 0.0
O394 O 0.39652 0.58156 0.33302 0.0
C395 C 0.38331 0.58639 0.5108 0.0
O396 O 0.39603 0.6376 0.4147 0.0
Co397 Co 0.43616 0.62747 0.52892 0.0
O398 O 0.40863 0.6627 0.50273 0.0
C399 C 0.47592 0.61148 0.42046 0.0
C400 C 0.40482 0.55298 0.34534 0.0
C401 C 0.39571 0.66216 0.44929 0.0
O402 O 0.45177 0.60135 0.39081 0.0
O403 O 0.47481 0.62036 0.4774 0.0
O404 O 0.36764 0.58271 0.45938 0.0
O405 O 0.41306 0.5904 0.50442 0.0
Co406 Co 0.16262 0.65623 0.1659 0.0
O407 O 0.20681 0.66295 0.15061 0.0
O408 O 0.17257 0.64657 0.08056 0.0
C409 C 0.16713 0.63034 0.25725 0.0
O410 O 0.11643 0.64503 0.16216 0.0
Co411 Co 0.12676 0.68348 0.27879 0.0
O412 O 0.09165 0.65609 0.25145 0.0
C413 C 0.14259 0.72469 0.17251 0.0
C414 C 0.20121 0.6544 0.09354 0.0
C415 C 0.09203 0.64404 0.1972 0.0
O416 O 0.15299 0.70096 0.14186 0.0
O417 O 0.13351 0.72284 0.22927 0.0
O418 O 0.17102 0.61561 0.2048 0.0
O419 O 0.16356 0.66025 0.25302 0.0
Co420 Co 0.09806 0.41239 0.91329 0.0
O421 O 0.09102 0.45671 0.90144 0.0
O422 O 0.10799 0.42417 0.82876 0.0
C423 C 0.12345 0.41562 0.00542 0.0
O424 O 0.10966 0.36638 0.90654 0.0
Co425 Co 0.0706 0.37446 0.02351 0.0
O426 O 0.098 0.33988 0.99348 0.0
C427 C 0.02951 0.39352 0.91949 0.0
C428 C 0.10002 0.45248 0.84419 0.0
C429 C 0.11044 0.3413 0.93958 0.0
O430 O 0.05345 0.40288 0.88813 0.0
O431 O 0.03123 0.38404 0.97597 0.0
O432 O 0.13846 0.42044 0.95355 0.0
O433 O 0.09363 0.41177 1.0003 0.0
Co434 Co 0.33809 0.34732 0.66965 0.0
O435 O 0.29371 0.34161 0.65584 0.0
O436 O 0.32756 0.3577 0.58467 0.0
C437 C 0.3344 0.37254 0.76194 0.0
O438 O 0.38453 0.35756 0.66489 0.0
Co439 Co 0.37396 0.31874 0.78142 0.0
O440 O 0.40938 0.34563 0.75366 0.0
C441 C 0.35642 0.27843 0.67484 0.0
C442 C 0.29886 0.35053 0.59884 0.0
C443 C 0.40908 0.35789 0.69957 0.0
O444 O 0.34662 0.30253 0.64451 0.0
O445 O 0.3657 0.27986 0.73149 0.0
O446 O 0.33075 0.38784 0.71005 0.0
O447 O 0.33753 0.34265 0.75655 0.0
C448 C 0.0984 0.99506 0.31273 0.0
C449 C 0.09883 0.0269 0.29585 0.0
C450 C 0.09851 0.97135 0.26742 0.0
C451 C 0.09849 0.97851 0.2034 0.0
H452 H 0.09823 0.98835 0.36138 0.0
H453 H 0.09819 0.94719 0.28278 0.0
S454 S 0.09924 0.05821 0.13443 0.0
N455 N 0.09925 0.0643 0.21033 0.0
N456 N 0.09891 0.01983 0.1255 0.0
C457 C 0.09873 0.01025 0.18586 0.0
C458 C 0.09907 0.03439 0.23196 0.0
C459 C 0.22184 0.85174 0.48618 0.0
C460 C 0.22882 0.84982 0.55017 0.0
C461 C 0.24563 0.85161 0.44104 0.0
C462 C 0.27737 0.85011 0.45812 0.0
H463 H 0.19775 0.85302 0.47062 0.0
H464 H 0.23907 0.85298 0.3924 0.0
S465 S 0.30829 0.84463 0.61927 0.0
N466 N 0.26992 0.84609 0.62816 0.0
N467 N 0.31457 0.84634 0.54351 0.0
C468 C 0.28473 0.84833 0.52191 0.0
C469 C 0.26049 0.84803 0.56785 0.0
C470 C 0.40222 0.03237 0.76789 0.0
C471 C 0.40397 0.02531 0.7039 0.0
C472 C 0.40279 0.00864 0.81319 0.0
C473 C 0.40453 0.97689 0.79625 0.0
H474 H 0.40075 0.05647 0.7833 0.0
H475 H 0.40151 0.01524 0.86182 0.0
S476 S 0.40986 0.94577 0.63513 0.0
N477 N 0.40792 0.98411 0.62611 0.0
N478 N 0.40845 0.93962 0.71096 0.0
C479 C 0.40618 0.96947 0.73245 0.0
C480 C 0.40606 0.99363 0.68639 0.0
C481 C 0.25919 0.15495 0.94046 0.0
C482 C 0.22733 0.15327 0.95685 0.0
C483 C 0.28273 0.15515 0.9861 0.0
C484 C 0.27531 0.15419 0.04995 0.0
H485 H 0.26609 0.15597 0.89196 0.0
H486 H 0.30692 0.1565 0.97113 0.0
S487 S 0.1955 0.14943 0.1177 0.0
N488 N 0.18966 0.15028 0.04177 0.0
N489 N 0.2338 0.15114 0.12723 0.0
C490 C 0.24356 0.15256 0.06703 0.0
C491 C 0.21961 0.15194 0.02059 0.0
C492 C 0.90326 0.97265 0.76648 0.0
C493 C 0.90419 0.97986 0.70251 0.0
C494 C 0.90372 0.99629 0.81186 0.0
C495 C 0.90458 0.02811 0.79506 0.0
H496 H 0.90256 0.94849 0.78181 0.0
H497 H 0.90315 0.98956 0.86049 0.0
S498 S 0.90731 0.05961 0.63402 0.0
N499 N 0.90622 0.02126 0.62481 0.0
N500 N 0.90661 0.06562 0.70991 0.0
C501 C 0.90532 0.03569 0.73129 0.0
C502 C 0.90528 0.01161 0.68509 0.0
C503 C 0.78111 0.15141 0.51798 0.0
C504 C 0.77399 0.15095 0.45396 0.0
C505 C 0.75737 0.15197 0.56326 0.0
C506 C 0.72555 0.15155 0.54635 0.0
H507 H 0.80525 0.15181 0.5334 0.0
H508 H 0.76405 0.15257 0.61189 0.0
S509 S 0.69435 0.14965 0.3849 0.0
N510 N 0.73275 0.14984 0.37601 0.0
N511 N 0.6882 0.15036 0.46078 0.0
C512 C 0.7181 0.15069 0.48245 0.0
C513 C 0.74228 0.15056 0.43637 0.0
C514 C 0.60013 0.9725 0.23904 0.0
C515 C 0.5995 0.97966 0.30304 0.0
C516 C 0.59974 0.99619 0.19373 0.0
C517 C 0.59925 0.028 0.2106 0.0
H518 H 0.60052 0.94836 0.22364 0.0
H519 H 0.60007 0.98948 0.1451 0.0
S520 S 0.59764 0.05932 0.37186 0.0
N521 N 0.59827 0.02094 0.38092 0.0
N522 N 0.59805 0.06543 0.29597 0.0
C523 C 0.59884 0.03552 0.27445 0.0
C524 C 0.5988 0.01137 0.32058 0.0
C525 C 0.75832 0.8495 0.94249 0.0
C526 C 0.72648 0.84854 0.95915 0.0
C527 C 0.78192 0.84952 0.98799 0.0
C528 C 0.77461 0.84802 0.05188 0.0
H529 H 0.76511 0.85051 0.89392 0.0
H530 H 0.8061 0.85033 0.97281 0.0
S531 S 0.69479 0.8445 0.11994 0.0
N532 N 0.68887 0.84584 0.04407 0.0
N533 N 0.73313 0.84542 0.12933 0.0
C534 C 0.74285 0.84683 0.06913 0.0
C535 C 0.71883 0.84723 0.02286 0.0
C536 C 0.59934 0.47068 0.76812 0.0
C537 C 0.59814 0.47775 0.7041 0.0
C538 C 0.59974 0.49445 0.81328 0.0
C539 C 0.59949 0.52625 0.79624 0.0
H540 H 0.59963 0.44655 0.78366 0.0
H541 H 0.60049 0.4878 0.86194 0.0
S542 S 0.5966 0.55736 0.63477 0.0
N543 N 0.59664 0.51896 0.62602 0.0
N544 N 0.59788 0.56355 0.7106 0.0
C545 C 0.5985 0.53367 0.73234 0.0
C546 C 0.59766 0.50946 0.68639 0.0
C547 C 0.78229 0.35028 0.01807 0.0
C548 C 0.77518 0.35037 0.95404 0.0
C549 C 0.75851 0.35015 0.06332 0.0
C550 C 0.72669 0.35069 0.04636 0.0
H551 H 0.80643 0.34983 0.03347 0.0
H552 H 0.76517 0.3498 0.11198 0.0
S553 S 0.69557 0.35166 0.88493 0.0
N554 N 0.73395 0.3512 0.87605 0.0
N555 N 0.68938 0.35147 0.96079 0.0
C556 C 0.71927 0.35113 0.98247 0.0
C557 C 0.74347 0.35082 0.93643 0.0
C558 C 0.90472 0.50607 0.31125 0.0
C559 C 0.90348 0.47432 0.29397 0.0
C560 C 0.90456 0.52993 0.26625 0.0
C561 C 0.90374 0.52297 0.20218 0.0
H562 H 0.90557 0.5126 0.35995 0.0
H563 H 0.9055 0.55402 0.28189 0.0
S564 S 0.90051 0.44361 0.13234 0.0
N565 N 0.90132 0.43723 0.2081 0.0
N566 N 0.90156 0.482 0.12378 0.0
C567 C 0.90268 0.49134 0.18423 0.0
C568 C 0.90238 0.46705 0.23004 0.0
C569 C 0.75846 0.6554 0.44097 0.0
C570 C 0.72656 0.65518 0.45738 0.0
C571 C 0.782 0.65528 0.48661 0.0
C572 C 0.77459 0.65552 0.55053 0.0
H573 H 0.76538 0.65542 0.39242 0.0
H574 H 0.80621 0.65542 0.47155 0.0
S575 S 0.69463 0.65545 0.61834 0.0
N576 N 0.68882 0.65524 0.54235 0.0
N577 N 0.73298 0.65557 0.62785 0.0
C578 C 0.74279 0.65551 0.56763 0.0
C579 C 0.71882 0.65517 0.52117 0.0
C580 C 0.40452 0.4726 0.26898 0.0
C581 C 0.40423 0.47962 0.20491 0.0
C582 C 0.40482 0.49642 0.31405 0.0
C583 C 0.40429 0.5282 0.29685 0.0
H584 H 0.40495 0.44848 0.28457 0.0
H585 H 0.40528 0.48983 0.36275 0.0
S586 S 0.403 0.55913 0.13525 0.0
N587 N 0.40332 0.52074 0.12663 0.0
N588 N 0.4034 0.56542 0.21107 0.0
C589 C 0.40371 0.53555 0.23293 0.0
C590 C 0.40383 0.51131 0.18706 0.0
C591 C 0.25787 0.65405 0.06293 0.0
C592 C 0.22615 0.65415 0.0453 0.0
C593 C 0.28187 0.65381 0.0182 0.0
C594 C 0.27512 0.65421 0.95401 0.0
H595 H 0.26428 0.65391 0.11172 0.0
H596 H 0.30592 0.65369 0.03418 0.0
S597 S 0.19587 0.65488 0.88326 0.0
N598 N 0.18928 0.65465 0.95899 0.0
N599 N 0.2343 0.6547 0.87515 0.0
C600 C 0.2435 0.65449 0.93572 0.0
C601 C 0.21906 0.6543 0.98126 0.0
C602 C 0.10031 0.47158 0.7338 0.0
C603 C 0.10034 0.47838 0.79798 0.0
C604 C 0.09974 0.49554 0.689 0.0
C605 C 0.09975 0.52727 0.70654 0.0
H606 H 0.10028 0.44751 0.71791 0.0
H607 H 0.0995 0.48909 0.64022 0.0
S608 S 0.10027 0.55769 0.86858 0.0
N609 N 0.10047 0.51926 0.87674 0.0
N610 N 0.09997 0.5642 0.79281 0.0
C611 C 0.10013 0.53441 0.77058 0.0
C612 C 0.10024 0.51001 0.81618 0.0
C613 C 0.2574 0.3491 0.44211 0.0
C614 C 0.22554 0.3515 0.45826 0.0
C615 C 0.28093 0.34936 0.48779 0.0
C616 C 0.27353 0.35152 0.55154 0.0
H617 H 0.26431 0.347 0.39375 0.0
H618 H 0.3051 0.34727 0.47299 0.0
S619 S 0.19384 0.35911 0.6187 0.0
N620 N 0.18796 0.3569 0.54287 0.0
N621 N 0.23211 0.35684 0.62841 0.0
C622 C 0.24182 0.35409 0.56839 0.0
C623 C 0.21787 0.35426 0.52186 0.0
C624 C 0.12366 0.21812 0.4538 0.0
C625 C 0.12506 0.18955 0.42097 0.0
C626 C 0.13229 0.24652 0.42553 0.0
C627 C 0.14241 0.24748 0.3632 0.0
H628 H 0.11465 0.21884 0.50093 0.0
H629 H 0.12937 0.26802 0.45165 0.0
S630 S 0.15527 0.17917 0.25977 0.0
N631 N 0.14131 0.16395 0.32471 0.0
N632 N 0.15693 0.21726 0.27191 0.0
C633 C 0.14589 0.21901 0.33121 0.0
C634 C 0.13741 0.19009 0.35999 0.0
C635 C 0.00688 0.88473 0.67076 0.0
C636 C 0.0055 0.89287 0.60735 0.0
C637 C 0.03525 0.87591 0.6987 0.0
C638 C 0.06342 0.87513 0.66445 0.0
H639 H 0.98565 0.88352 0.69829 0.0
H640 H 0.03478 0.86855 0.74695 0.0
S641 S 0.07294 0.89967 0.49921 0.0
N642 N 0.0351 0.90327 0.51296 0.0
N643 N 0.08842 0.88718 0.56507 0.0
C644 C 0.06261 0.88553 0.60205 0.0
C645 C 0.03368 0.89422 0.57361 0.0
C646 C 0.38027 0.78553 0.95359 0.0
C647 C 0.38146 0.81348 0.91869 0.0
C648 C 0.37173 0.75696 0.92596 0.0
C649 C 0.36437 0.75517 0.86221 0.0
H650 H 0.387 0.78542 1.0022 0.0
H651 H 0.37252 0.73591 0.95405 0.0
S652 S 0.35974 0.82178 0.7517 0.0
N653 N 0.37119 0.8377 0.81783 0.0
N654 N 0.35561 0.78411 0.76641 0.0
C655 C 0.36365 0.78311 0.82765 0.0
C656 C 0.37203 0.81221 0.85572 0.0
C657 C 0.44235 0.12823 0.1074 0.0
C658 C 0.43983 0.13212 0.17231 0.0
C659 C 0.47077 0.12003 0.07936 0.0
C660 C 0.49802 0.11507 0.11484 0.0
H661 H 0.4225 0.13275 0.07733 0.0
H662 H 0.47147 0.11843 0.02904 0.0
S663 S 0.5032 0.11817 0.28748 0.0
N664 N 0.46646 0.12738 0.27206 0.0
N665 N 0.51996 0.11188 0.21932 0.0
C666 C 0.49548 0.11696 0.1802 0.0
C667 C 0.46643 0.12556 0.20888 0.0
C668 C 0.13327 0.78248 0.17585 0.0
C669 C 0.13854 0.7553 0.14027 0.0
C670 C 0.125 0.81088 0.14785 0.0
C671 C 0.12132 0.81343 0.0829 0.0
H672 H 0.13465 0.78171 0.22619 0.0
H673 H 0.12019 0.83065 0.17794 0.0
S674 S 0.1361 0.75031 0.96758 0.0
N675 N 0.14228 0.73351 0.03573 0.0
N676 N 0.12658 0.78696 0.98308 0.0
C677 C 0.12819 0.78692 0.04629 0.0
C678 C 0.13689 0.75791 0.07491 0.0
C679 C 0.47108 0.88519 0.42505 0.0
C680 C 0.49843 0.88996 0.38971 0.0
C681 C 0.44272 0.87712 0.39684 0.0
C682 C 0.44039 0.87316 0.33192 0.0
H683 H 0.4717 0.88676 0.47538 0.0
H684 H 0.42281 0.87266 0.42682 0.0
S685 S 0.50398 0.88701 0.21715 0.0
N686 N 0.52064 0.8932 0.28541 0.0
N687 N 0.46718 0.8779 0.23231 0.0
C688 C 0.46704 0.8797 0.29548 0.0
C689 C 0.49604 0.88818 0.32434 0.0
C690 C 0.37358 0.1923 0.64914 0.0
C691 C 0.37695 0.18992 0.5841 0.0
C692 C 0.36532 0.2206 0.67752 0.0
C693 C 0.35982 0.24785 0.64226 0.0
H694 H 0.37871 0.17251 0.67899 0.0
H695 H 0.3643 0.22126 0.72791 0.0
S696 S 0.36075 0.25305 0.46955 0.0
N697 N 0.37065 0.21646 0.48457 0.0
N698 N 0.35503 0.26973 0.53797 0.0
C699 C 0.36091 0.24532 0.57685 0.0
C700 C 0.36955 0.2164 0.54782 0.0
C701 C 0.06237 0.1271 0.89394 0.0
C702 C 0.06474 0.13064 0.82892 0.0
C703 C 0.03399 0.11927 0.92244 0.0
C704 C 0.0066 0.11434 0.88738 0.0
H705 H 0.08231 0.13163 0.92375 0.0
H706 H 0.03345 0.11794 0.97281 0.0
S707 S 1.00107 0.11627 0.71471 0.0
N708 N 0.03789 0.12542 0.72953 0.0
N709 N 0.9844 0.11055 0.78318 0.0
C710 C 0.00899 0.1158 0.82193 0.0
C711 C 0.03803 0.12403 0.79275 0.0
C712 C 0.87045 0.78358 0.67613 0.0
C713 C 0.86443 0.75657 0.64053 0.0
C714 C 0.87865 0.81197 0.64805 0.0
C715 C 0.88148 0.81469 0.58297 0.0
H716 H 0.86972 0.7827 0.72652 0.0
H717 H 0.88404 0.83161 0.6781 0.0
S718 S 0.86431 0.7522 0.46771 0.0
N719 N 0.85894 0.7352 0.53596 0.0
N720 N 0.87449 0.78868 0.48314 0.0
C721 C 0.87382 0.7884 0.54641 0.0
C722 C 0.86521 0.75938 0.57513 0.0
C723 C 0.96772 0.12761 0.3047 0.0
C724 C 0.94014 0.1306 0.34034 0.0
C725 C 0.99635 0.11931 0.33237 0.0
C726 C 0.99859 0.11395 0.39689 0.0
H727 H 0.96746 0.13255 0.25523 0.0
H728 H 0.0171 0.11851 0.30338 0.0
S729 S 0.93288 0.11503 0.51019 0.0
N730 N 0.91667 0.12467 0.44321 0.0
N731 N 0.97027 0.10925 0.4947 0.0
C732 C 0.97094 0.11516 0.43248 0.0
C733 C 0.9418 0.1234 0.40438 0.0
C734 C 0.63623 0.22095 0.17382 0.0
C735 C 0.64024 0.24842 0.13851 0.0
C736 C 0.62784 0.19261 0.14587 0.0
C737 C 0.62278 0.19039 0.08124 0.0
H738 H 0.63864 0.22143 0.22402 0.0
H739 H 0.62401 0.17262 0.17596 0.0
S740 S 0.63445 0.25436 0.9663 0.0
N741 N 0.64167 0.27087 0.0343 0.0
N742 N 0.62577 0.21747 0.98165 0.0
C743 C 0.62861 0.21718 0.04467 0.0
C744 C 0.63741 0.24616 0.07327 0.0
C745 C 0.56117 0.87534 0.8968 0.0
C746 C 0.56369 0.8714 0.83191 0.0
C747 C 0.53282 0.88376 0.92473 0.0
C748 C 0.50563 0.88892 0.88915 0.0
H749 H 0.58094 0.87066 0.92697 0.0
H750 H 0.53209 0.88535 0.97506 0.0
S751 S 0.50062 0.88606 0.71652 0.0
N752 N 0.53725 0.87646 0.73204 0.0
N753 N 0.48382 0.89244 0.78462 0.0
C754 C 0.50822 0.88707 0.8238 0.0
C755 C 0.53721 0.87823 0.79522 0.0
C756 C 0.86823 0.22108 0.83071 0.0
C757 C 0.86485 0.24874 0.86565 0.0
C758 C 0.87672 0.1928 0.85886 0.0
C759 C 0.88256 0.19084 0.9233 0.0
H760 H 0.86516 0.22138 0.78064 0.0
H761 H 0.87995 0.1726 0.82906 0.0
S762 S 0.87352 0.25568 0.03719 0.0
N763 N 0.86535 0.27183 0.96926 0.0
N764 N 0.8815 0.2186 0.02228 0.0
C765 C 0.87761 0.21792 0.95949 0.0
C766 C 0.86866 0.24682 0.93071 0.0
C767 C 0.53396 0.1299 0.70248 0.0
C768 C 0.56184 0.13203 0.66753 0.0
C769 C 0.50545 0.12153 0.6744 0.0
C770 C 0.50365 0.11529 0.61015 0.0
H771 H 0.53391 0.13559 0.75162 0.0
H772 H 0.48446 0.12139 0.70273 0.0
S773 S 0.57011 0.11409 0.49869 0.0
N774 N 0.58596 0.12442 0.56559 0.0
N775 N 0.53255 0.10899 0.51344 0.0
C776 C 0.53153 0.11574 0.57531 0.0
C777 C 0.56055 0.124 0.6038 0.0
C778 C 0.63364 0.75759 0.42168 0.0
C779 C 0.64061 0.75616 0.35769 0.0
C780 C 0.62479 0.78588 0.45003 0.0
C781 C 0.62287 0.81395 0.41565 0.0
H782 H 0.6335 0.73644 0.44955 0.0
H783 H 0.61848 0.78546 0.49888 0.0
S784 S 0.64296 0.82332 0.24811 0.0
N785 N 0.64803 0.78569 0.26207 0.0
N786 N 0.63173 0.83874 0.31486 0.0
C787 C 0.63176 0.81308 0.35237 0.0
C788 C 0.64052 0.78426 0.32355 0.0
C789 C 0.94133 0.87573 0.10836 0.0
C790 C 0.93924 0.87105 0.17314 0.0
C791 C 0.96956 0.88425 0.07998 0.0
C792 C 0.99703 0.88879 0.11501 0.0
H793 H 0.9213 0.87156 0.07857 0.0
H794 H 0.96997 0.88641 0.02973 0.0
S795 S 0.00338 0.88357 0.28723 0.0
N796 N 0.96653 0.87456 0.27238 0.0
N797 N 0.01968 0.89072 0.21895 0.0
C798 C 0.99492 0.88615 0.1803 0.0
C799 C 0.96607 0.8772 0.20932 0.0
C800 C 0.63394 0.72042 0.82813 0.0
C801 C 0.64009 0.74748 0.86348 0.0
C802 C 0.62592 0.69205 0.85652 0.0
C803 C 0.62341 0.68939 0.92168 0.0
H804 H 0.63445 0.72123 0.77773 0.0
H805 H 0.62044 0.67238 0.82662 0.0
S806 S 0.64104 0.75201 0.03635 0.0
N807 N 0.64605 0.76894 0.96793 0.0
N808 N 0.6308 0.71551 0.02126 0.0
C809 C 0.63117 0.71573 0.95798 0.0
C810 C 0.6396 0.74473 0.92895 0.0
C811 C 0.53258 0.38501 0.07981 0.0
C812 C 0.5052 0.38949 0.1152 0.0
C813 C 0.56092 0.37659 0.10784 0.0
C814 C 0.5632 0.37192 0.1726 0.0
H815 H 0.53202 0.38718 0.02956 0.0
H816 H 0.58089 0.37248 0.0778 0.0
S817 S 0.49928 0.38406 0.28748 0.0
N818 N 0.48279 0.39123 0.21943 0.0
N819 N 0.53613 0.37522 0.27216 0.0
C820 C 0.53643 0.37791 0.20911 0.0
C821 C 0.50748 0.38679 0.18046 0.0
C822 C 0.8699 0.25456 0.42454 0.0
C823 C 0.86064 0.25313 0.36177 0.0
C824 C 0.87867 0.28306 0.45202 0.0
C825 C 0.87824 0.31129 0.41794 0.0
H826 H 0.87211 0.23329 0.45168 0.0
H827 H 0.88702 0.28267 0.49962 0.0
S828 S 0.85047 0.32049 0.25469 0.0
N829 N 0.84793 0.28257 0.26843 0.0
N830 N 0.86379 0.33615 0.31972 0.0
C831 C 0.86667 0.31035 0.35637 0.0
C832 C 0.85808 0.28129 0.32839 0.0
C833 C 0.96775 0.63148 0.70247 0.0
C834 C 0.9394 0.63088 0.66879 0.0
C835 C 0.99621 0.62269 0.67472 0.0
C836 C 0.99749 0.61323 0.61206 0.0
H837 H 0.96826 0.63993 0.75 0.0
H838 H 0.01755 0.62498 0.70159 0.0
S839 S 0.92978 0.60261 0.50603 0.0
N840 N 0.91428 0.61614 0.57109 0.0
N841 N 0.96775 0.60019 0.51928 0.0
C842 C 0.96921 0.61055 0.57907 0.0
C843 C 0.9402 0.61919 0.60733 0.0
C844 C 0.63225 0.25607 0.57989 0.0
C845 C 0.64081 0.25453 0.64305 0.0
C846 C 0.62337 0.28456 0.5524 0.0
C847 C 0.62293 0.31266 0.58689 0.0
H848 H 0.63071 0.23488 0.55233 0.0
H849 H 0.61565 0.28423 0.50438 0.0
S850 S 0.64857 0.32169 0.75142 0.0
N851 N 0.65198 0.28388 0.73729 0.0
N852 N 0.63574 0.33737 0.68603 0.0
C853 C 0.63377 0.31166 0.64892 0.0
C854 C 0.64255 0.28264 0.67688 0.0
C855 C 0.9973 0.38008 0.82592 0.0
C856 C 0.99885 0.39059 0.88787 0.0
C857 C 0.96859 0.37157 0.79891 0.0
C858 C 0.9403 0.37351 0.83269 0.0
H859 H 0.01857 0.3767 0.79923 0.0
H860 H 0.96884 0.36221 0.75205 0.0
S861 S 0.93157 0.40518 0.99303 0.0
N862 N 0.9696 0.40622 0.97965 0.0
N863 N 0.91563 0.39091 0.9291 0.0
C864 C 0.94145 0.38637 0.89315 0.0
C865 C 0.9707 0.39469 0.92069 0.0
C866 C 0.87043 0.74504 0.08194 0.0
C867 C 0.86168 0.74627 0.14504 0.0
C868 C 0.87913 0.71667 0.05386 0.0
C869 C 0.87918 0.68836 0.08767 0.0
H870 H 0.8722 0.76637 0.05485 0.0
H871 H 0.88699 0.71723 0.00592 0.0
S872 S 0.85279 0.67851 0.2517 0.0
N873 N 0.84989 0.71646 0.23848 0.0
N874 N 0.86574 0.66313 0.18608 0.0
C875 C 0.86817 0.68906 0.14965 0.0
C876 C 0.8596 0.71799 0.17823 0.0
C877 C 0.56221 0.62697 0.39299 0.0
C878 C 0.56415 0.63203 0.32828 0.0
C879 C 0.53391 0.61894 0.42164 0.0
C880 C 0.5062 0.6153 0.387 0.0
H881 H 0.58245 0.63044 0.42257 0.0
H882 H 0.53368 0.61644 0.47185 0.0
S883 S 0.49922 0.6218 0.21504 0.0
N884 N 0.53633 0.62985 0.22945 0.0
N885 N 0.48305 0.61458 0.28343 0.0
C886 C 0.50809 0.61832 0.32174 0.0
C887 C 0.53702 0.62677 0.29243 0.0
C888 C 0.37771 0.31169 0.15132 0.0
C889 C 0.38048 0.31448 0.08624 0.0
C890 C 0.36943 0.28328 0.17928 0.0
C891 C 0.36328 0.25634 0.14353 0.0
H892 H 0.38327 0.33125 0.18144 0.0
H893 H 0.3688 0.28231 0.22967 0.0
S894 S 0.36279 0.25232 0.97066 0.0
N895 N 0.37316 0.28871 0.98629 0.0
N896 N 0.35748 0.23521 0.03881 0.0
C897 C 0.36393 0.25929 0.07814 0.0
C898 C 0.3726 0.28831 0.04956 0.0
C899 C 0.46898 0.62723 0.80664 0.0
C900 C 0.44123 0.62985 0.84188 0.0
C901 C 0.49741 0.61841 0.83437 0.0
C902 C 0.49931 0.61209 0.89858 0.0
H903 H 0.46905 0.63301 0.75753 0.0
H904 H 0.51831 0.61807 0.80577 0.0
S905 S 0.43299 0.61124 0.01033 0.0
N906 N 0.41713 0.62206 0.9437 0.0
N907 N 0.47047 0.60575 0.99537 0.0
C908 C 0.47148 0.61274 0.93362 0.0
C909 C 0.4425 0.6215 0.90542 0.0
C910 C 0.12171 0.71925 0.54982 0.0
C911 C 0.12192 0.69099 0.58385 0.0
C912 C 0.13041 0.74775 0.57753 0.0
C913 C 0.13935 0.74915 0.6405 0.0
H914 H 0.11372 0.71963 0.50197 0.0
H915 H 0.12851 0.76902 0.55032 0.0
S916 S 0.14832 0.68177 0.74795 0.0
N917 N 0.13543 0.66615 0.68258 0.0
N918 N 0.15119 0.71966 0.73422 0.0
C919 C 0.14149 0.72098 0.67398 0.0
C920 C 0.13297 0.69194 0.64578 0.0
C921 C 0.06011 0.37467 0.3924 0.0
C922 C 0.06242 0.36917 0.3279 0.0
C923 C 0.03158 0.38256 0.42028 0.0
C924 C 0.00401 0.38567 0.385 0.0
H925 H 0.08025 0.37168 0.42245 0.0
H926 H 0.03107 0.38548 0.47038 0.0
S927 S 0.99784 0.37755 0.21325 0.0
N928 N 0.035 0.37011 0.22854 0.0
N929 N 0.98129 0.38517 0.28108 0.0
C930 C 0.00621 0.38209 0.31992 0.0
C931 C 0.03538 0.37374 0.2914 0.0
C932 C 0.37773 0.69364 0.35791 0.0
C933 C 0.38262 0.69157 0.42264 0.0
C934 C 0.36932 0.7219 0.32955 0.0
C935 C 0.36507 0.74942 0.36454 0.0
H936 H 0.38166 0.67355 0.32813 0.0
H937 H 0.36697 0.72228 0.27933 0.0
S938 S 0.37111 0.75595 0.53666 0.0
N939 N 0.37979 0.71902 0.5218 0.0
N940 N 0.36376 0.77221 0.46846 0.0
C941 C 0.36799 0.74737 0.42981 0.0
C942 C 0.37687 0.7185 0.45879 0.0
C943 C 0.03176 0.61893 0.07766 0.0
C944 C 0.00464 0.6134 0.11331 0.0
C945 C 0.0601 0.62736 0.10561 0.0
C946 C 0.06266 0.63094 0.17057 0.0
H947 H 0.03097 0.61765 0.02731 0.0
H948 H 0.07982 0.63236 0.07544 0.0
S949 S 0.99979 0.61528 0.28603 0.0
N950 N 0.98296 0.60917 0.2179 0.0
N951 N 0.03635 0.62517 0.27048 0.0
C952 C 0.03626 0.62374 0.20726 0.0
C953 C 0.00729 0.61488 0.17868 0.0
C954 C 0.13368 0.25576 0.91866 0.0
C955 C 0.14209 0.25424 0.85538 0.0
C956 C 0.12472 0.2842 0.94625 0.0
C957 C 0.12406 0.31231 0.9118 0.0
H958 H 0.13246 0.2346 0.94637 0.0
H959 H 0.11723 0.28384 0.99444 0.0
S960 S 0.14888 0.32141 0.7467 0.0
N961 N 0.15261 0.28364 0.76084 0.0
N962 N 0.13621 0.33703 0.81228 0.0
C963 C 0.13457 0.31133 0.8495 0.0
C964 C 0.14342 0.28234 0.82141 0.0
C965 C 0.44118 0.37441 0.60781 0.0
C966 C 0.43872 0.37037 0.67271 0.0
C967 C 0.46963 0.38244 0.57966 0.0
C968 C 0.49697 0.38711 0.61506 0.0
H969 H 0.42123 0.37017 0.57783 0.0
H970 H 0.47031 0.38419 0.52935 0.0
S971 S 0.5025 0.38307 0.78751 0.0
N972 N 0.46563 0.37432 0.77228 0.0
N973 N 0.51917 0.38956 0.71933 0.0
C974 C 0.49454 0.38494 0.68037 0.0
C975 C 0.46547 0.37648 0.70914 0.0
C976 C 0.16459 0.11104 0.57139 0.0
C977 C 0.1394 0.08991 0.56868 0.0
C978 C 0.17559 0.12223 0.62887 0.0
C979 C 0.16251 0.11182 0.68535 0.0
H980 H 0.17435 0.12064 0.5289 0.0
H981 H 0.19367 0.14003 0.6291 0.0
S982 S 0.09753 0.05506 0.7032 0.0
N983 N 0.10241 0.05821 0.62712 0.0
N984 N 0.1242 0.07803 0.73504 0.0
C985 C 0.13865 0.08925 0.68326 0.0
C986 C 0.1268 0.07862 0.62485 0.0
C987 C 0.17137 0.87798 0.87316 0.0
C988 C 0.1592 0.88953 0.81678 0.0
C989 C 0.1605 0.88913 0.93078 0.0
C990 C 0.13632 0.9114 0.93374 0.0
H991 H 0.18869 0.85944 0.87267 0.0
H992 H 0.16961 0.87879 0.97313 0.0
S993 S 0.09696 0.94932 0.79966 0.0
N994 N 0.12275 0.92543 0.76752 0.0
N995 N 0.10115 0.94522 0.87572 0.0
C996 C 0.12453 0.92367 0.87775 0.0
C997 C 0.13629 0.91305 0.8192 0.0
C998 C 0.34166 0.89048 0.0726 0.0
C999 C 0.36653 0.91199 0.06964 0.0
C1000 C 0.33078 0.87924 0.1302 0.0
C1001 C 0.34365 0.88998 0.18658 0.0
H1002 H 0.33196 0.88076 0.03021 0.0
H1003 H 0.31287 0.86127 0.13062 0.0
S1004 S 0.40795 0.94755 0.2038 0.0
N1005 N 0.40316 0.94418 0.12775 0.0
N1006 N 0.38156 0.92431 0.23588 0.0
C1007 C 0.3673 0.91277 0.18422 0.0
C1008 C 0.37905 0.92344 0.12569 0.0
C1009 C 0.34013 0.11462 0.43217 0.0
C1010 C 0.3638 0.09184 0.43525 0.0
C1011 C 0.32985 0.12621 0.37448 0.0
C1012 C 0.34216 0.11463 0.31821 0.0
H1013 H 0.3311 0.1251 0.47447 0.0
H1014 H 0.31294 0.14512 0.37389 0.0
S1015 S 0.40326 0.05365 0.30156 0.0
N1016 N 0.39862 0.0575 0.37757 0.0
N1017 N 0.37817 0.07817 0.26921 0.0
C1018 C 0.36449 0.09058 0.32075 0.0
C1019 C 0.37563 0.07948 0.37937 0.0
C1020 C 0.86174 0.91221 0.32297 0.0
C1021 C 0.84101 0.88668 0.32094 0.0
C1022 C 0.87298 0.92356 0.3801 0.0
C1023 C 0.86296 0.91051 0.43686 0.0
H1024 H 0.87094 0.92206 0.28022 0.0
H1025 H 0.89046 0.94195 0.37984 0.0
S1026 S 0.8074 0.84465 0.45647 0.0
N1027 N 0.81019 0.84931 0.38028 0.0
N1028 N 0.83004 0.87181 0.48761 0.0
C1029 C 0.84084 0.88624 0.43546 0.0
C1030 C 0.8302 0.87401 0.37739 0.0
C1031 C 0.84183 0.11116 0.07358 0.0
C1032 C 0.86789 0.09115 0.07004 0.0
C1033 C 0.83067 0.12176 0.13141 0.0
C1034 C 0.84449 0.11178 0.18746 0.0
H1035 H 0.83129 0.12029 0.03144 0.0
H1036 H 0.8118 0.13871 0.13225 0.0
S1037 S 0.912 0.05796 0.2033 0.0
N1038 N 0.90659 0.06103 0.12736 0.0
N1039 N 0.88454 0.0797 0.23596 0.0
C1040 C 0.86936 0.09039 0.1846 0.0
C1041 C 0.88136 0.0804 0.12581 0.0
C1042 C 0.63869 0.09012 0.82365 0.0
C1043 C 0.66058 0.11462 0.82007 0.0
C1044 C 0.62747 0.07963 0.88157 0.0
C1045 C 0.6386 0.09254 0.93763 0.0
H1046 H 0.62863 0.08046 0.78153 0.0
H1047 H 0.60921 0.06203 0.88249 0.0
S1048 S 0.69723 0.15598 0.95314 0.0
N1049 N 0.69356 0.15092 0.87723 0.0
N1050 N 0.67368 0.13009 0.98592 0.0
C1051 C 0.66177 0.11579 0.93462 0.0
C1052 C 0.67244 0.12713 0.87579 0.0
C1053 C 0.66267 0.89012 0.57407 0.0
C1054 C 0.63732 0.91105 0.5715 0.0
C1055 C 0.67368 0.87878 0.63146 0.0
C1056 C 0.66044 0.88891 0.68798 0.0
H1057 H 0.6727 0.88089 0.5315 0.0
H1058 H 0.69199 0.86122 0.63159 0.0
S1059 S 0.59481 0.9449 0.70617 0.0
N1060 N 0.59984 0.94206 0.63009 0.0
N1061 N 0.62168 0.9221 0.73787 0.0
C1062 C 0.63629 0.91117 0.68602 0.0
C1063 C 0.62442 0.92189 0.6277 0.0
C1064 C 0.63223 0.57907 0.12278 0.0
C1065 C 0.64241 0.59225 0.06622 0.0
C1066 C 0.64333 0.59025 0.1802 0.0
C1067 C 0.6641 0.61573 0.18284 0.0
H1068 H 0.61468 0.56075 0.12266 0.0
H1069 H 0.63393 0.58032 0.22272 0.0
S1070 S 0.69823 0.65801 0.04807 0.0
N1071 N 0.6756 0.63102 0.01636 0.0
N1072 N 0.69521 0.65314 0.12417 0.0
C1073 C 0.67513 0.62849 0.12659 0.0
C1074 C 0.66461 0.61645 0.06821 0.0
C1075 C 0.62661 0.42158 0.38064 0.0
C1076 C 0.63765 0.40897 0.43705 0.0
C1077 C 0.63845 0.41127 0.32311 0.0
C1078 C 0.66088 0.38724 0.32024 0.0
H1079 H 0.60804 0.43886 0.38098 0.0
H1080 H 0.6285 0.42071 0.28067 0.0
S1081 S 0.69738 0.34671 0.45451 0.0
N1082 N 0.67309 0.37216 0.48651 0.0
N1083 N 0.69413 0.3516 0.37846 0.0
C1084 C 0.67255 0.37496 0.37632 0.0
C1085 C 0.66125 0.38615 0.43481 0.0
C1086 C 0.83056 0.37732 0.62932 0.0
C1087 C 0.84354 0.38844 0.68531 0.0
C1088 C 0.84119 0.38833 0.57138 0.0
C1089 C 0.86591 0.40996 0.5677 0.0
H1090 H 0.81276 0.35925 0.63033 0.0
H1091 H 0.83143 0.37832 0.5293 0.0
S1092 S 0.90747 0.44652 0.70059 0.0
N1093 N 0.88134 0.42328 0.73348 0.0
N1094 N 0.90249 0.44271 0.62467 0.0
C1095 C 0.87852 0.4218 0.62334 0.0
C1096 C 0.86701 0.41137 0.68222 0.0
C1097 C 0.87482 0.58087 0.87937 0.0
C1098 C 0.86386 0.59317 0.93611 0.0
C1099 C 0.86354 0.59208 0.82209 0.0
C1100 C 0.84179 0.61674 0.81985 0.0
H1101 H 0.89297 0.56315 0.87927 0.0
H1102 H 0.87342 0.5828 0.77942 0.0
S1103 S 0.80549 0.65661 0.95517 0.0
N1104 N 0.82901 0.63026 0.98651 0.0
N1105 N 0.80906 0.6525 0.87898 0.0
C1106 C 0.83011 0.62868 0.87623 0.0
C1107 C 0.84081 0.61657 0.93443 0.0
C1108 C 0.36359 0.4123 0.82426 0.0
C1109 C 0.3414 0.38804 0.82175 0.0
C1110 C 0.37523 0.42298 0.88164 0.0
C1111 C 0.36423 0.41052 0.93825 0.0
H1112 H 0.37349 0.42166 0.78168 0.0
H1113 H 0.39365 0.44043 0.88172 0.0
S1114 S 0.305 0.34783 0.95664 0.0
N1115 N 0.30834 0.3524 0.88052 0.0
N1116 N 0.32903 0.37362 0.98826 0.0
C1117 C 0.34084 0.38747 0.93634 0.0
C1118 C 0.32973 0.37592 0.87803 0.0
C1119 C 0.33179 0.62418 0.63276 0.0
C1120 C 0.34533 0.61381 0.68879 0.0
C1121 C 0.34259 0.61325 0.57491 0.0
C1122 C 0.36805 0.59248 0.57133 0.0
H1123 H 0.31343 0.64168 0.63363 0.0
H1124 H 0.33232 0.62269 0.53278 0.0
S1125 S 0.41125 0.55804 0.70449 0.0
N1126 N 0.38445 0.58057 0.73722 0.0
N1127 N 0.4059 0.56127 0.62856 0.0
C1128 C 0.38123 0.58135 0.62706 0.0
C1129 C 0.36956 0.5917 0.68588 0.0
C1130 C 0.16217 0.6132 0.42988 0.0
C1131 C 0.1368 0.5923 0.43319 0.0
C1132 C 0.17298 0.62434 0.37215 0.0
C1133 C 0.15953 0.61407 0.31596 0.0
H1134 H 0.17234 0.62258 0.47215 0.0
H1135 H 0.19129 0.6419 0.3715 0.0
S1136 S 0.09378 0.55811 0.29958 0.0
N1137 N 0.09909 0.56115 0.37554 0.0
N1138 N 0.12056 0.58078 0.26715 0.0
C1139 C 0.13538 0.59183 0.31862 0.0
C1140 C 0.12371 0.58129 0.37729 0.0
C1141 C 0.13845 0.41023 0.17877 0.0
C1142 C 0.16141 0.38674 0.18248 0.0
C1143 C 0.12722 0.42054 0.12081 0.0
C1144 C 0.13935 0.40849 0.06477 0.0
H1145 H 0.12767 0.41923 0.22081 0.0
H1146 H 0.10824 0.43736 0.11979 0.0
S1147 S 0.20098 0.34795 0.04956 0.0
N1148 N 0.19647 0.35233 0.1255 0.0
N1149 N 0.17646 0.37286 0.01665 0.0
C1150 C 0.16349 0.38626 0.06792 0.0
C1151 C 0.17422 0.37506 0.12684 0.0
loop_
_geom_bond_atom_site_label_1
_geom_bond_atom_site_label_2
_geom_bond_distance
_geom_bond_site_symmetry_2
_ccdc_geom_bond_type
Co0 O1 2.216 . S
Co0 O2 2.091 . S
Co0 O4 2.004 . S
Co0 O10 2.021 . S
Co0 O12 2.137 . S
Co0 O13 2.244 . S
O1 Co0 2.216 . S
O1 C8 1.247 . S
O2 Co0 2.091 . S
O2 C8 1.261 . S
C3 O12 1.247 . S
C3 O13 1.272 . S
O4 Co0 2.004 . S
O4 C9 1.259 . S
Co5 O6 2.061 . S
Co5 O11 2.052 . S
Co5 O13 2.135 . S
O6 Co5 2.061 . S
O6 C9 1.235 . S
C7 O10 1.238 . S
C7 O11 1.241 . S
C8 O1 1.247 . S
C8 O2 1.261 . S
C9 O4 1.259 . S
C9 O6 1.235 . S
O10 Co0 2.021 . S
O10 C7 1.238 . S
O11 Co5 2.052 . S
O11 C7 1.241 . S
O12 Co0 2.137 . S
O12 C3 1.247 . S
O13 Co0 2.244 . S
O13 C3 1.272 . S
O13 Co5 2.135 . S
Co14 O15 2.216 . S
Co14 O16 2.091 . S
Co14 O18 2.004 . S
Co14 O24 2.021 . S
Co14 O26 2.137 . S
Co14 O27 2.244 . S
O15 Co14 2.216 . S
O15 C22 1.247 . S
O16 Co14 2.091 . S
O16 C22 1.261 . S
C17 O26 1.247 . S
C17 O27 1.272 . S
O18 Co14 2.004 . S
O18 C23 1.259 . S
Co19 O20 2.061 . S
Co19 O25 2.052 . S
Co19 O27 2.135 . S
O20 Co19 2.061 . S
O20 C23 1.235 . S
C21 O24 1.238 . S
C21 O25 1.241 . S
C22 O15 1.247 . S
C22 O16 1.261 . S
C23 O18 1.259 . S
C23 O20 1.235 . S
O24 Co14 2.021 . S
O24 C21 1.238 . S
O25 Co19 2.052 . S
O25 C21 1.241 . S
O26 Co14 2.137 . S
O26 C17 1.247 . S
O27 Co14 2.244 . S
O27 C17 1.272 . S
O27 Co19 2.135 . S
Co28 O29 2.216 . S
Co28 O30 2.091 . S
Co28 O32 2.004 . S
Co28 O38 2.021 . S
Co28 O40 2.137 . S
Co28 O41 2.244 . S
O29 Co28 2.216 . S
O29 C36 1.247 . S
O30 Co28 2.091 . S
O30 C36 1.261 . S
C31 O40 1.247 1_554 S
C31 O41 1.272 1_554 S
O32 Co28 2.004 . S
O32 C37 1.259 . S
Co33 O34 2.061 . S
Co33 O39 2.052 . S
Co33 O41 2.135 . S
O34 Co33 2.061 . S
O34 C37 1.235 . S
C35 O38 1.238 . S
C35 O39 1.241 . S
C36 O29 1.247 . S
C36 O30 1.261 . S
C37 O32 1.259 . S
C37 O34 1.235 . S
O38 Co28 2.021 . S
O38 C35 1.238 . S
O39 Co33 2.052 . S
O39 C35 1.241 . S
O40 Co28 2.137 . S
O40 C31 1.247 1_556 S
O41 Co28 2.244 . S
O41 C31 1.272 1_556 S
O41 Co33 2.135 . S
Co42 O43 2.216 . S
Co42 O44 2.091 . S
Co42 O46 2.004 . S
Co42 O52 2.021 . S
Co42 O54 2.137 . S
Co42 O55 2.244 . S
O43 Co42 2.216 . S
O43 C50 1.247 . S
O44 Co42 2.091 . S
O44 C50 1.261 . S
C45 O54 1.247 . S
C45 O55 1.272 . S
O46 Co42 2.004 . S
O46 C51 1.259 . S
Co47 O48 2.061 . S
Co47 O53 2.052 . S
Co47 O55 2.135 . S
O48 Co47 2.061 . S
O48 C51 1.235 . S
C49 O52 1.238 . S
C49 O53 1.241 . S
C50 O43 1.247 . S
C50 O44 1.261 . S
C51 O46 1.259 . S
C51 O48 1.235 . S
O52 Co42 2.021 . S
O52 C49 1.238 . S
O53 Co47 2.052 . S
O53 C49 1.241 . S
O54 Co42 2.137 . S
O54 C45 1.247 . S
O55 Co42 2.244 . S
O55 C45 1.272 . S
O55 Co47 2.135 . S
Co56 O57 2.216 . S
Co56 O58 2.091 . S
Co56 O60 2.004 . S
Co56 O66 2.021 . S
Co56 O68 2.137 . S
Co56 O69 2.244 . S
O57 Co56 2.216 . S
O57 C64 1.247 . S
O58 Co56 2.091 . S
O58 C64 1.261 . S
C59 O68 1.247 1_556 S
C59 O69 1.272 1_556 S
O60 Co56 2.004 . S
O60 C65 1.259 . S
Co61 O62 2.061 . S
Co61 O67 2.052 . S
Co61 O69 2.135 . S
O62 Co61 2.061 . S
O62 C65 1.235 . S
C63 O66 1.238 . S
C63 O67 1.241 . S
C64 O57 1.247 . S
C64 O58 1.261 . S
C65 O60 1.259 . S
C65 O62 1.235 . S
O66 Co56 2.021 . S
O66 C63 1.238 . S
O67 Co61 2.052 . S
O67 C63 1.241 . S
O68 Co56 2.137 . S
O68 C59 1.247 1_554 S
O69 Co56 2.244 . S
O69 C59 1.272 1_554 S
O69 Co61 2.135 . S
Co70 O71 2.216 . S
Co70 O72 2.091 . S
Co70 O74 2.004 . S
Co70 O80 2.021 . S
Co70 O82 2.137 . S
Co70 O83 2.244 . S
O71 Co70 2.216 . S
O71 C78 1.247 . S
O72 Co70 2.091 . S
O72 C78 1.261 . S
C73 O82 1.247 . S
C73 O83 1.272 . S
O74 Co70 2.004 . S
O74 C79 1.259 . S
Co75 O76 2.061 . S
Co75 O81 2.052 . S
Co75 O83 2.135 . S
O76 Co75 2.061 . S
O76 C79 1.235 . S
C77 O80 1.238 . S
C77 O81 1.241 . S
C78 O71 1.247 . S
C78 O72 1.261 . S
C79 O74 1.259 . S
C79 O76 1.235 . S
O80 Co70 2.021 . S
O80 C77 1.238 . S
O81 Co75 2.052 . S
O81 C77 1.241 . S
O82 Co70 2.137 . S
O82 C73 1.247 . S
O83 Co70 2.244 . S
O83 C73 1.272 . S
O83 Co75 2.135 . S
Co84 O85 2.216 . S
Co84 O86 2.091 . S
Co84 O88 2.004 . S
Co84 O94 2.021 . S
Co84 O96 2.137 . S
Co84 O97 2.244 . S
O85 Co84 2.216 . S
O85 C92 1.247 . S
O86 Co84 2.091 . S
O86 C92 1.261 . S
C87 O96 1.247 . S
C87 O97 1.272 . S
O88 Co84 2.004 . S
O88 C93 1.259 . S
Co89 O90 2.061 . S
Co89 O95 2.052 . S
Co89 O97 2.135 . S
O90 Co89 2.061 . S
O90 C93 1.235 . S
C91 O94 1.238 . S
C91 O95 1.241 . S
C92 O85 1.247 . S
C92 O86 1.261 . S
C93 O88 1.259 . S
C93 O90 1.235 . S
O94 Co84 2.021 . S
O94 C91 1.238 . S
O95 Co89 2.052 . S
O95 C91 1.241 . S
O96 Co84 2.137 . S
O96 C87 1.247 . S
O97 Co84 2.244 . S
O97 C87 1.272 . S
O97 Co89 2.135 . S
Co98 O99 2.216 . S
Co98 O100 2.091 . S
Co98 O102 2.004 . S
Co98 O108 2.021 . S
Co98 O110 2.137 . S
Co98 O111 2.244 . S
O99 Co98 2.216 . S
O99 C106 1.247 . S
O100 Co98 2.091 . S
O100 C106 1.261 . S
C101 O110 1.247 . S
C101 O111 1.272 . S
O102 Co98 2.004 . S
O102 C107 1.259 . S
Co103 O104 2.061 . S
Co103 O109 2.052 . S
Co103 O111 2.135 . S
O104 Co103 2.061 . S
O104 C107 1.235 . S
C105 O108 1.238 . S
C105 O109 1.241 . S
C106 O99 1.247 . S
C106 O100 1.261 . S
C107 O102 1.259 . S
C107 O104 1.235 . S
O108 Co98 2.021 . S
O108 C105 1.238 . S
O109 Co103 2.052 . S
O109 C105 1.241 . S
O110 Co98 2.137 . S
O110 C101 1.247 . S
O111 Co98 2.244 . S
O111 C101 1.272 . S
O111 Co103 2.135 . S
Co112 O113 2.216 . S
Co112 O114 2.091 . S
Co112 O116 2.004 . S
Co112 O122 2.021 . S
Co112 O124 2.137 . S
Co112 O125 2.244 . S
O113 Co112 2.216 . S
O113 C120 1.247 . S
O114 Co112 2.091 . S
O114 C120 1.261 . S
C115 O124 1.247 . S
C115 O125 1.272 . S
O116 Co112 2.004 . S
O116 C121 1.259 . S
Co117 O118 2.061 . S
Co117 O123 2.052 . S
Co117 O125 2.135 . S
O118 Co117 2.061 . S
O118 C121 1.235 . S
C119 O122 1.238 . S
C119 O123 1.241 . S
C120 O113 1.247 . S
C120 O114 1.261 . S
C121 O116 1.259 . S
C121 O118 1.235 . S
O122 Co112 2.021 . S
O122 C119 1.238 . S
O123 Co117 2.052 . S
O123 C119 1.241 . S
O124 Co112 2.137 . S
O124 C115 1.247 . S
O125 Co112 2.244 . S
O125 C115 1.272 . S
O125 Co117 2.135 . S
Co126 O127 2.216 . S
Co126 O128 2.091 . S
Co126 O130 2.004 . S
Co126 O136 2.021 . S
Co126 O138 2.137 . S
Co126 O139 2.244 . S
O127 Co126 2.216 . S
O127 C134 1.247 . S
O128 Co126 2.091 . S
O128 C134 1.261 . S
C129 O138 1.247 . S
C129 O139 1.272 . S
O130 Co126 2.004 . S
O130 C135 1.259 . S
Co131 O132 2.061 . S
Co131 O137 2.052 . S
Co131 O139 2.135 . S
O132 Co131 2.061 . S
O132 C135 1.235 . S
C133 O136 1.238 . S
C133 O137 1.241 . S
C134 O127 1.247 . S
C134 O128 1.261 . S
C135 O130 1.259 . S
C135 O132 1.235 . S
O136 Co126 2.021 . S
O136 C133 1.238 . S
O137 Co131 2.052 . S
O137 C133 1.241 . S
O138 Co126 2.137 . S
O138 C129 1.247 . S
O139 Co126 2.244 . S
O139 C129 1.272 . S
O139 Co131 2.135 . S
Co140 O141 2.216 . S
Co140 O142 2.091 . S
Co140 O144 2.004 . S
Co140 O150 2.021 . S
Co140 O152 2.137 . S
Co140 O153 2.244 . S
O141 Co140 2.216 . S
O141 C148 1.247 . S
O142 Co140 2.091 . S
O142 C148 1.261 . S
C143 O152 1.247 1_556 S
C143 O153 1.272 1_556 S
O144 Co140 2.004 . S
O144 C149 1.259 . S
Co145 O146 2.061 . S
Co145 O151 2.052 . S
Co145 O153 2.135 . S
O146 Co145 2.061 . S
O146 C149 1.235 . S
C147 O150 1.238 . S
C147 O151 1.241 . S
C148 O141 1.247 . S
C148 O142 1.261 . S
C149 O144 1.259 . S
C149 O146 1.235 . S
O150 Co140 2.021 . S
O150 C147 1.238 . S
O151 Co145 2.052 . S
O151 C147 1.241 . S
O152 Co140 2.137 . S
O152 C143 1.247 1_554 S
O153 Co140 2.244 . S
O153 C143 1.272 1_554 S
O153 Co145 2.135 . S
Co154 O155 2.216 . S
Co154 O156 2.091 . S
Co154 O158 2.004 . S
Co154 O164 2.021 . S
Co154 O166 2.137 . S
Co154 O167 2.244 . S
O155 Co154 2.216 . S
O155 C162 1.247 . S
O156 Co154 2.091 . S
O156 C162 1.261 . S
C157 O166 1.247 . S
C157 O167 1.272 . S
O158 Co154 2.004 . S
O158 C163 1.259 . S
Co159 O160 2.061 . S
Co159 O165 2.052 . S
Co159 O167 2.135 . S
O160 Co159 2.061 . S
O160 C163 1.235 . S
C161 O164 1.238 . S
C161 O165 1.241 . S
C162 O155 1.247 . S
C162 O156 1.261 . S
C163 O158 1.259 . S
C163 O160 1.235 . S
O164 Co154 2.021 . S
O164 C161 1.238 . S
O165 Co159 2.052 . S
O165 C161 1.241 . S
O166 Co154 2.137 . S
O166 C157 1.247 . S
O167 Co154 2.244 . S
O167 C157 1.272 . S
O167 Co159 2.135 . S
Co168 O169 2.216 . S
Co168 O170 2.091 . S
Co168 O172 2.004 . S
Co168 O178 2.021 . S
Co168 O180 2.137 . S
Co168 O181 2.244 . S
O169 Co168 2.216 . S
O169 C176 1.247 . S
O170 Co168 2.091 . S
O170 C176 1.261 . S
C171 O180 1.247 1_554 S
C171 O181 1.272 1_554 S
O172 Co168 2.004 . S
O172 C177 1.259 . S
Co173 O174 2.061 . S
Co173 O179 2.052 . S
Co173 O181 2.135 . S
O174 Co173 2.061 . S
O174 C177 1.235 . S
C175 O178 1.238 . S
C175 O179 1.241 . S
C176 O169 1.247 . S
C176 O170 1.261 . S
C177 O172 1.259 . S
C177 O174 1.235 . S
O178 Co168 2.021 . S
O178 C175 1.238 . S
O179 Co173 2.052 . S
O179 C175 1.241 . S
O180 Co168 2.137 . S
O180 C171 1.247 1_556 S
O181 Co168 2.244 . S
O181 C171 1.272 1_556 S
O181 Co173 2.135 . S
Co182 O183 2.216 . S
Co182 O184 2.091 . S
Co182 O186 2.004 . S
Co182 O192 2.021 . S
Co182 O194 2.137 . S
Co182 O195 2.244 . S
O183 Co182 2.216 . S
O183 C190 1.247 . S
O184 Co182 2.091 . S
O184 C190 1.261 . S
C185 O194 1.247 . S
C185 O195 1.272 . S
O186 Co182 2.004 . S
O186 C191 1.259 . S
Co187 O188 2.061 . S
Co187 O193 2.052 . S
Co187 O195 2.135 . S
O188 Co187 2.061 . S
O188 C191 1.235 . S
C189 O192 1.238 . S
C189 O193 1.241 . S
C190 O183 1.247 . S
C190 O184 1.261 . S
C191 O186 1.259 . S
C191 O188 1.235 . S
O192 Co182 2.021 . S
O192 C189 1.238 . S
O193 Co187 2.052 . S
O193 C189 1.241 . S
O194 Co182 2.137 . S
O194 C185 1.247 . S
O195 Co182 2.244 . S
O195 C185 1.272 . S
O195 Co187 2.135 . S
Co196 O197 2.216 . S
Co196 O198 2.091 . S
Co196 O200 2.004 . S
Co196 O206 2.021 . S
Co196 O208 2.137 . S
Co196 O209 2.244 . S
O197 Co196 2.216 . S
O197 C204 1.247 . S
O198 Co196 2.091 . S
O198 C204 1.261 . S
C199 O208 1.247 . S
C199 O209 1.272 . S
O200 Co196 2.004 . S
O200 C205 1.259 . S
Co201 O202 2.061 . S
Co201 O207 2.052 . S
Co201 O209 2.135 . S
O202 Co201 2.061 . S
O202 C205 1.235 . S
C203 O206 1.238 . S
C203 O207 1.241 . S
C204 O197 1.247 . S
C204 O198 1.261 . S
C205 O200 1.259 . S
C205 O202 1.235 . S
O206 Co196 2.021 . S
O206 C203 1.238 . S
O207 Co201 2.052 . S
O207 C203 1.241 . S
O208 Co196 2.137 . S
O208 C199 1.247 . S
O209 Co196 2.244 . S
O209 C199 1.272 . S
O209 Co201 2.135 . S
Co210 O211 2.216 . S
Co210 O212 2.091 . S
Co210 O214 2.004 . S
Co210 O220 2.021 . S
Co210 O222 2.137 . S
Co210 O223 2.244 . S
O211 Co210 2.216 . S
O211 C218 1.247 . S
O212 Co210 2.091 . S
O212 C218 1.261 . S
C213 O222 1.247 . S
C213 O223 1.272 . S
O214 Co210 2.004 . S
O214 C219 1.259 . S
Co215 O216 2.061 . S
Co215 O221 2.052 . S
Co215 O223 2.135 . S
O216 Co215 2.061 . S
O216 C219 1.235 . S
C217 O220 1.238 . S
C217 O221 1.241 . S
C218 O211 1.247 . S
C218 O212 1.261 . S
C219 O214 1.259 . S
C219 O216 1.235 . S
O220 Co210 2.021 . S
O220 C217 1.238 . S
O221 Co215 2.052 . S
O221 C217 1.241 . S
O222 Co210 2.137 . S
O222 C213 1.247 . S
O223 Co210 2.244 . S
O223 C213 1.272 . S
O223 Co215 2.135 . S
Co224 O225 2.216 . S
Co224 O226 2.091 . S
Co224 O228 2.004 . S
Co224 O234 2.021 . S
Co224 O236 2.137 . S
Co224 O237 2.244 . S
O225 Co224 2.216 . S
O225 C232 1.247 . S
O226 Co224 2.091 . S
O226 C232 1.261 . S
C227 O236 1.247 1_554 S
C227 O237 1.272 1_554 S
O228 Co224 2.004 . S
O228 C233 1.259 . S
Co229 O230 2.061 . S
Co229 O235 2.052 . S
Co229 O237 2.135 . S
O230 Co229 2.061 . S
O230 C233 1.235 . S
C231 O234 1.238 . S
C231 O235 1.241 . S
C232 O225 1.247 . S
C232 O226 1.261 . S
C233 O228 1.259 . S
C233 O230 1.235 . S
O234 Co224 2.021 . S
O234 C231 1.238 . S
O235 Co229 2.052 . S
O235 C231 1.241 . S
O236 Co224 2.137 . S
O236 C227 1.247 1_556 S
O237 Co224 2.244 . S
O237 C227 1.272 1_556 S
O237 Co229 2.135 . S
Co238 O239 2.216 . S
Co238 O240 2.091 . S
Co238 O242 2.004 . S
Co238 O248 2.021 . S
Co238 O250 2.137 . S
Co238 O251 2.244 . S
O239 Co238 2.216 . S
O239 C246 1.247 . S
O240 Co238 2.091 . S
O240 C246 1.261 . S
C241 O250 1.247 . S
C241 O251 1.272 . S
O242 Co238 2.004 . S
O242 C247 1.259 . S
Co243 O244 2.061 . S
Co243 O249 2.052 . S
Co243 O251 2.135 . S
O244 Co243 2.061 . S
O244 C247 1.235 . S
C245 O248 1.238 . S
C245 O249 1.241 . S
C246 O239 1.247 . S
C246 O240 1.261 . S
C247 O242 1.259 . S
C247 O244 1.235 . S
O248 Co238 2.021 . S
O248 C245 1.238 . S
O249 Co243 2.052 . S
O249 C245 1.241 . S
O250 Co238 2.137 . S
O250 C241 1.247 . S
O251 Co238 2.244 . S
O251 C241 1.272 . S
O251 Co243 2.135 . S
Co252 O253 2.216 . S
Co252 O254 2.091 . S
Co252 O256 2.004 . S
Co252 O262 2.021 . S
Co252 O264 2.137 . S
Co252 O265 2.244 . S
O253 Co252 2.216 . S
O253 C260 1.247 . S
O254 Co252 2.091 . S
O254 C260 1.261 . S
C255 O264 1.247 . S
C255 O265 1.272 . S
O256 Co252 2.004 . S
O256 C261 1.259 . S
Co257 O258 2.061 . S
Co257 O263 2.052 . S
Co257 O265 2.135 . S
O258 Co257 2.061 . S
O258 C261 1.235 . S
C259 O262 1.238 . S
C259 O263 1.241 . S
C260 O253 1.247 . S
C260 O254 1.261 . S
C261 O256 1.259 . S
C261 O258 1.235 . S
O262 Co252 2.021 . S
O262 C259 1.238 . S
O263 Co257 2.052 . S
O263 C259 1.241 . S
O264 Co252 2.137 . S
O264 C255 1.247 . S
O265 Co252 2.244 . S
O265 C255 1.272 . S
O265 Co257 2.135 . S
Co266 O267 2.216 . S
Co266 O268 2.091 . S
Co266 O270 2.004 . S
Co266 O276 2.021 . S
Co266 O278 2.137 . S
Co266 O279 2.244 . S
O267 Co266 2.216 . S
O267 C274 1.247 . S
O268 Co266 2.091 . S
O268 C274 1.261 . S
C269 O278 1.247 . S
C269 O279 1.272 . S
O270 Co266 2.004 . S
O270 C275 1.259 . S
Co271 O272 2.061 . S
Co271 O277 2.052 . S
Co271 O279 2.135 . S
O272 Co271 2.061 . S
O272 C275 1.235 . S
C273 O276 1.238 . S
C273 O277 1.241 . S
C274 O267 1.247 . S
C274 O268 1.261 . S
C275 O270 1.259 . S
C275 O272 1.235 . S
O276 Co266 2.021 . S
O276 C273 1.238 . S
O277 Co271 2.052 . S
O277 C273 1.241 . S
O278 Co266 2.137 . S
O278 C269 1.247 . S
O279 Co266 2.244 . S
O279 C269 1.272 . S
O279 Co271 2.135 . S
Co280 O281 2.216 . S
Co280 O282 2.091 . S
Co280 O284 2.004 . S
Co280 O290 2.021 . S
Co280 O292 2.137 . S
Co280 O293 2.244 . S
O281 Co280 2.216 . S
O281 C288 1.247 . S
O282 Co280 2.091 . S
O282 C288 1.261 . S
C283 O292 1.247 . S
C283 O293 1.272 . S
O284 Co280 2.004 . S
O284 C289 1.259 . S
Co285 O286 2.061 . S
Co285 O291 2.052 . S
Co285 O293 2.135 . S
O286 Co285 2.061 . S
O286 C289 1.235 . S
C287 O290 1.238 . S
C287 O291 1.241 . S
C288 O281 1.247 . S
C288 O282 1.261 . S
C289 O284 1.259 . S
C289 O286 1.235 . S
O290 Co280 2.021 . S
O290 C287 1.238 . S
O291 Co285 2.052 . S
O291 C287 1.241 . S
O292 Co280 2.137 . S
O292 C283 1.247 . S
O293 Co280 2.244 . S
O293 C283 1.272 . S
O293 Co285 2.135 . S
Co294 O295 2.216 . S
Co294 O296 2.091 . S
Co294 O298 2.004 . S
Co294 O304 2.021 . S
Co294 O306 2.137 . S
Co294 O307 2.244 . S
O295 Co294 2.216 . S
O295 C302 1.247 . S
O296 Co294 2.091 . S
O296 C302 1.261 . S
C297 O306 1.247 . S
C297 O307 1.272 . S
O298 Co294 2.004 . S
O298 C303 1.259 . S
Co299 O300 2.061 . S
Co299 O305 2.052 . S
Co299 O307 2.135 . S
O300 Co299 2.061 . S
O300 C303 1.235 . S
C301 O304 1.238 . S
C301 O305 1.241 . S
C302 O295 1.247 . S
C302 O296 1.261 . S
C303 O298 1.259 . S
C303 O300 1.235 . S
O304 Co294 2.021 . S
O304 C301 1.238 . S
O305 Co299 2.052 . S
O305 C301 1.241 . S
O306 Co294 2.137 . S
O306 C297 1.247 . S
O307 Co294 2.244 . S
O307 C297 1.272 . S
O307 Co299 2.135 . S
Co308 O309 2.216 . S
Co308 O310 2.091 . S
Co308 O312 2.004 . S
Co308 O318 2.021 . S
Co308 O320 2.137 . S
Co308 O321 2.244 . S
O309 Co308 2.216 . S
O309 C316 1.247 . S
O310 Co308 2.091 . S
O310 C316 1.261 . S
C311 O320 1.247 1_556 S
C311 O321 1.272 1_556 S
O312 Co308 2.004 . S
O312 C317 1.259 . S
Co313 O314 2.061 . S
Co313 O319 2.052 . S
Co313 O321 2.135 . S
O314 Co313 2.061 . S
O314 C317 1.235 . S
C315 O318 1.238 . S
C315 O319 1.241 . S
C316 O309 1.247 . S
C316 O310 1.261 . S
C317 O312 1.259 . S
C317 O314 1.235 . S
O318 Co308 2.021 . S
O318 C315 1.238 . S
O319 Co313 2.052 . S
O319 C315 1.241 . S
O320 Co308 2.137 . S
O320 C311 1.247 1_554 S
O321 Co308 2.244 . S
O321 C311 1.272 1_554 S
O321 Co313 2.135 . S
Co322 O323 2.216 . S
Co322 O324 2.091 . S
Co322 O326 2.004 . S
Co322 O332 2.021 . S
Co322 O334 2.137 . S
Co322 O335 2.244 . S
O323 Co322 2.216 . S
O323 C330 1.247 . S
O324 Co322 2.091 . S
O324 C330 1.261 . S
C325 O334 1.247 . S
C325 O335 1.272 . S
O326 Co322 2.004 . S
O326 C331 1.259 . S
Co327 O328 2.061 . S
Co327 O333 2.052 . S
Co327 O335 2.135 . S
O328 Co327 2.061 . S
O328 C331 1.235 . S
C329 O332 1.238 . S
C329 O333 1.241 . S
C330 O323 1.247 . S
C330 O324 1.261 . S
C331 O326 1.259 . S
C331 O328 1.235 . S
O332 Co322 2.021 . S
O332 C329 1.238 . S
O333 Co327 2.052 . S
O333 C329 1.241 . S
O334 Co322 2.137 . S
O334 C325 1.247 . S
O335 Co322 2.244 . S
O335 C325 1.272 . S
O335 Co327 2.135 . S
Co336 O337 2.216 . S
Co336 O338 2.091 . S
Co336 O340 2.004 . S
Co336 O346 2.021 . S
Co336 O348 2.137 . S
Co336 O349 2.244 . S
O337 Co336 2.216 . S
O337 C344 1.247 . S
O338 Co336 2.091 . S
O338 C344 1.261 . S
C339 O348 1.247 1_556 S
C339 O349 1.272 1_556 S
O340 Co336 2.004 . S
O340 C345 1.259 . S
Co341 O342 2.061 . S
Co341 O347 2.052 . S
Co341 O349 2.135 . S
O342 Co341 2.061 . S
O342 C345 1.235 . S
C343 O346 1.238 . S
C343 O347 1.241 . S
C344 O337 1.247 . S
C344 O338 1.261 . S
C345 O340 1.259 . S
C345 O342 1.235 . S
O346 Co336 2.021 . S
O346 C343 1.238 . S
O347 Co341 2.052 . S
O347 C343 1.241 . S
O348 Co336 2.137 . S
O348 C339 1.247 1_554 S
O349 Co336 2.244 . S
O349 C339 1.272 1_554 S
O349 Co341 2.135 . S
Co350 O351 2.216 . S
Co350 O352 2.091 . S
Co350 O354 2.004 . S
Co350 O360 2.021 . S
Co350 O362 2.137 . S
Co350 O363 2.244 . S
O351 Co350 2.216 . S
O351 C358 1.247 . S
O352 Co350 2.091 . S
O352 C358 1.261 . S
C353 O362 1.247 . S
C353 O363 1.272 . S
O354 Co350 2.004 . S
O354 C359 1.259 . S
Co355 O356 2.061 . S
Co355 O361 2.052 . S
Co355 O363 2.135 . S
O356 Co355 2.061 . S
O356 C359 1.235 . S
C357 O360 1.238 . S
C357 O361 1.241 . S
C358 O351 1.247 . S
C358 O352 1.261 . S
C359 O354 1.259 . S
C359 O356 1.235 . S
O360 Co350 2.021 . S
O360 C357 1.238 . S
O361 Co355 2.052 . S
O361 C357 1.241 . S
O362 Co350 2.137 . S
O362 C353 1.247 . S
O363 Co350 2.244 . S
O363 C353 1.272 . S
O363 Co355 2.135 . S
Co364 O365 2.216 . S
Co364 O366 2.091 . S
Co364 O368 2.004 . S
Co364 O374 2.021 . S
Co364 O376 2.137 . S
Co364 O377 2.244 . S
O365 Co364 2.216 . S
O365 C372 1.247 . S
O366 Co364 2.091 . S
O366 C372 1.261 . S
C367 O376 1.247 . S
C367 O377 1.272 . S
O368 Co364 2.004 . S
O368 C373 1.259 . S
Co369 O370 2.061 . S
Co369 O375 2.052 . S
Co369 O377 2.135 . S
O370 Co369 2.061 . S
O370 C373 1.235 . S
C371 O374 1.238 . S
C371 O375 1.241 . S
C372 O365 1.247 . S
C372 O366 1.261 . S
C373 O368 1.259 . S
C373 O370 1.235 . S
O374 Co364 2.021 . S
O374 C371 1.238 . S
O375 Co369 2.052 . S
O375 C371 1.241 . S
O376 Co364 2.137 . S
O376 C367 1.247 . S
O377 Co364 2.244 . S
O377 C367 1.272 . S
O377 Co369 2.135 . S
Co378 O379 2.216 . S
Co378 O380 2.091 . S
Co378 O382 2.004 . S
Co378 O388 2.021 . S
Co378 O390 2.137 . S
Co378 O391 2.244 . S
O379 Co378 2.216 . S
O379 C386 1.247 . S
O380 Co378 2.091 . S
O380 C386 1.261 . S
C381 O390 1.247 . S
C381 O391 1.272 . S
O382 Co378 2.004 . S
O382 C387 1.259 . S
Co383 O384 2.061 . S
Co383 O389 2.052 . S
Co383 O391 2.135 . S
O384 Co383 2.061 . S
O384 C387 1.235 . S
C385 O388 1.238 . S
C385 O389 1.241 . S
C386 O379 1.247 . S
C386 O380 1.261 . S
C387 O382 1.259 . S
C387 O384 1.235 . S
O388 Co378 2.021 . S
O388 C385 1.238 . S
O389 Co383 2.052 . S
O389 C385 1.241 . S
O390 Co378 2.137 . S
O390 C381 1.247 . S
O391 Co378 2.244 . S
O391 C381 1.272 . S
O391 Co383 2.135 . S
Co392 O393 2.216 . S
Co392 O394 2.091 . S
Co392 O396 2.004 . S
Co392 O402 2.021 . S
Co392 O404 2.137 . S
Co392 O405 2.244 . S
O393 Co392 2.216 . S
O393 C400 1.247 . S
O394 Co392 2.091 . S
O394 C400 1.261 . S
C395 O404 1.247 . S
C395 O405 1.272 . S
O396 Co392 2.004 . S
O396 C401 1.259 . S
Co397 O398 2.061 . S
Co397 O403 2.052 . S
Co397 O405 2.135 . S
O398 Co397 2.061 . S
O398 C401 1.235 . S
C399 O402 1.238 . S
C399 O403 1.241 . S
C400 O393 1.247 . S
C400 O394 1.261 . S
C401 O396 1.259 . S
C401 O398 1.235 . S
O402 Co392 2.021 . S
O402 C399 1.238 . S
O403 Co397 2.052 . S
O403 C399 1.241 . S
O404 Co392 2.137 . S
O404 C395 1.247 . S
O405 Co392 2.244 . S
O405 C395 1.272 . S
O405 Co397 2.135 . S
Co406 O407 2.216 . S
Co406 O408 2.091 . S
Co406 O410 2.004 . S
Co406 O416 2.021 . S
Co406 O418 2.137 . S
Co406 O419 2.244 . S
O407 Co406 2.216 . S
O407 C414 1.247 . S
O408 Co406 2.091 . S
O408 C414 1.261 . S
C409 O418 1.247 . S
C409 O419 1.272 . S
O410 Co406 2.004 . S
O410 C415 1.259 . S
Co411 O412 2.061 . S
Co411 O417 2.052 . S
Co411 O419 2.135 . S
O412 Co411 2.061 . S
O412 C415 1.235 . S
C413 O416 1.238 . S
C413 O417 1.241 . S
C414 O407 1.247 . S
C414 O408 1.261 . S
C415 O410 1.259 . S
C415 O412 1.235 . S
O416 Co406 2.021 . S
O416 C413 1.238 . S
O417 Co411 2.052 . S
O417 C413 1.241 . S
O418 Co406 2.137 . S
O418 C409 1.247 . S
O419 Co406 2.244 . S
O419 C409 1.272 . S
O419 Co411 2.135 . S
Co420 O421 2.216 . S
Co420 O422 2.091 . S
Co420 O424 2.004 . S
Co420 O430 2.021 . S
Co420 O432 2.137 . S
Co420 O433 2.244 . S
O421 Co420 2.216 . S
O421 C428 1.247 . S
O422 Co420 2.091 . S
O422 C428 1.261 . S
C423 O432 1.247 1_554 S
C423 O433 1.272 1_554 S
O424 Co420 2.004 . S
O424 C429 1.259 . S
Co425 O426 2.061 . S
Co425 O431 2.052 . S
Co425 O433 2.135 . S
O426 Co425 2.061 . S
O426 C429 1.235 . S
C427 O430 1.238 . S
C427 O431 1.241 . S
C428 O421 1.247 . S
C428 O422 1.261 . S
C429 O424 1.259 . S
C429 O426 1.235 . S
O430 Co420 2.021 . S
O430 C427 1.238 . S
O431 Co425 2.052 . S
O431 C427 1.241 . S
O432 Co420 2.137 . S
O432 C423 1.247 1_556 S
O433 Co420 2.244 . S
O433 C423 1.272 1_556 S
O433 Co425 2.135 . S
Co434 O435 2.216 . S
Co434 O436 2.091 . S
Co434 O438 2.004 . S
Co434 O444 2.021 . S
Co434 O446 2.137 . S
Co434 O447 2.244 . S
O435 Co434 2.216 . S
O435 C442 1.247 . S
O436 Co434 2.091 . S
O436 C442 1.261 . S
C437 O446 1.247 . S
C437 O447 1.272 . S
O438 Co434 2.004 . S
O438 C443 1.259 . S
Co439 O440 2.061 . S
Co439 O445 2.052 . S
Co439 O447 2.135 . S
O440 Co439 2.061 . S
O440 C443 1.235 . S
C441 O444 1.238 . S
C441 O445 1.241 . S
C442 O435 1.247 . S
C442 O436 1.261 . S
C443 O438 1.259 . S
C443 O440 1.235 . S
O444 Co434 2.021 . S
O444 C441 1.238 . S
O445 Co439 2.052 . S
O445 C441 1.241 . S
O446 Co434 2.137 . S
O446 C437 1.247 . S
O447 Co434 2.244 . S
O447 C437 1.272 . S
O447 Co439 2.135 . S
C448 C449 1.369 1_565 S
C448 C450 1.419 . S
C448 H452 0.930 . S
C449 C448 1.369 1_545 S
C449 C458 1.429 . S
C450 C448 1.419 . S
C450 C451 1.363 . S
C450 H453 0.929 . S
C451 C450 1.363 . S
C451 C457 1.428 1_565 S
H452 C448 0.930 . S
H453 C450 0.929 . S
S454 N455 1.613 . S
S454 N456 1.610 . S
N455 S454 1.613 . S
N455 C458 1.350 . S
N456 S454 1.610 . S
N456 C457 1.351 . S
C457 C451 1.428 1_545 S
C457 N456 1.351 . S
C457 C458 1.434 . S
C458 C449 1.429 . S
C458 N455 1.350 . S
C458 C457 1.434 . S
C459 C460 1.369 . S
C459 C461 1.419 . S
C459 H463 0.930 . S
C460 C459 1.369 . S
C460 C469 1.429 . S
C461 C459 1.419 . S
C461 C462 1.363 . S
C461 H464 0.929 . S
C462 C461 1.363 . S
C462 C468 1.428 . S
H463 C459 0.930 . S
H464 C461 0.929 . S
S465 N466 1.613 . S
S465 N467 1.610 . S
N466 S465 1.613 . S
N466 C469 1.350 . S
N467 S465 1.610 . S
N467 C468 1.351 . S
C468 C462 1.428 . S
C468 N467 1.351 . S
C468 C469 1.434 . S
C469 C460 1.429 . S
C469 N466 1.350 . S
C469 C468 1.434 . S
C470 C471 1.369 . S
C470 C472 1.419 1_545 S
C470 H474 0.930 . S
C471 C470 1.369 . S
C471 C480 1.429 . S
C472 C470 1.419 1_565 S
C472 C473 1.363 . S
C472 H475 0.929 . S
C473 C472 1.363 . S
C473 C479 1.428 . S
H474 C470 0.930 . S
H475 C472 0.929 . S
S476 N477 1.613 1_565 S
S476 N478 1.610 . S
N477 S476 1.613 1_545 S
N477 C480 1.350 . S
N478 S476 1.610 . S
N478 C479 1.351 . S
C479 C473 1.428 . S
C479 N478 1.351 . S
C479 C480 1.434 1_565 S
C480 C471 1.429 . S
C480 N477 1.350 . S
C480 C479 1.434 1_545 S
C481 C482 1.369 . S
C481 C483 1.419 . S
C481 H485 0.930 . S
C482 C481 1.369 . S
C482 C491 1.429 1_556 S
C483 C481 1.419 . S
C483 C484 1.363 1_556 S
C483 H486 0.929 . S
C484 C483 1.363 1_554 S
C484 C490 1.428 . S
H485 C481 0.930 . S
H486 C483 0.929 . S
S487 N488 1.613 . S
S487 N489 1.610 . S
N488 S487 1.613 . S
N488 C491 1.350 . S
N489 S487 1.610 . S
N489 C490 1.351 . S
C490 C484 1.428 . S
C490 N489 1.351 . S
C490 C491 1.434 . S
C491 C482 1.429 1_554 S
C491 N488 1.350 . S
C491 C490 1.434 . S
C492 C493 1.369 . S
C492 C494 1.419 . S
C492 H496 0.930 . S
C493 C492 1.369 . S
C493 C502 1.429 1_565 S
C494 C492 1.419 . S
C494 C495 1.363 1_565 S
C494 H497 0.929 . S
C495 C494 1.363 1_545 S
C495 C501 1.428 . S
H496 C492 0.930 . S
H497 C494 0.929 . S
S498 N499 1.613 . S
S498 N500 1.610 . S
N499 S498 1.613 . S
N499 C502 1.350 . S
N500 S498 1.610 . S
N500 C501 1.351 . S
C501 C495 1.428 . S
C501 N500 1.351 . S
C501 C502 1.434 . S
C502 C493 1.429 1_545 S
C502 N499 1.350 . S
C502 C501 1.434 . S
C503 C504 1.369 . S
C503 C505 1.419 . S
C503 H507 0.930 . S
C504 C503 1.369 . S
C504 C513 1.429 . S
C505 C503 1.419 . S
C505 C506 1.363 . S
C505 H508 0.929 . S
C506 C505 1.363 . S
C506 C512 1.428 . S
H507 C503 0.930 . S
H508 C505 0.929 . S
S509 N510 1.613 . S
S509 N511 1.610 . S
N510 S509 1.613 . S
N510 C513 1.350 . S
N511 S509 1.610 . S
N511 C512 1.351 . S
C512 C506 1.428 . S
C512 N511 1.351 . S
C512 C513 1.434 . S
C513 C504 1.429 . S
C513 N510 1.350 . S
C513 C512 1.434 . S
C514 C515 1.369 . S
C514 C516 1.419 1_565 S
C514 H518 0.930 . S
C515 C514 1.369 . S
C515 C524 1.429 . S
C516 C514 1.419 1_545 S
C516 C517 1.363 . S
C516 H519 0.929 . S
C517 C516 1.363 . S
C517 C523 1.428 . S
H518 C514 0.930 . S
H519 C516 0.929 . S
S520 N521 1.613 1_545 S
S520 N522 1.610 . S
N521 S520 1.613 1_565 S
N521 C524 1.350 . S
N522 S520 1.610 . S
N522 C523 1.351 . S
C523 C517 1.428 . S
C523 N522 1.351 . S
C523 C524 1.434 1_545 S
C524 C515 1.429 . S
C524 N521 1.350 . S
C524 C523 1.434 1_565 S
C525 C526 1.369 . S
C525 C527 1.419 1_556 S
C525 H529 0.930 . S
C526 C525 1.369 . S
C526 C535 1.429 . S
C527 C525 1.419 1_554 S
C527 C528 1.363 . S
C527 H530 0.929 . S
C528 C527 1.363 . S
C528 C534 1.428 . S
H529 C525 0.930 . S
H530 C527 0.929 . S
S531 N532 1.613 1_554 S
S531 N533 1.610 . S
N532 S531 1.613 1_556 S
N532 C535 1.350 . S
N533 S531 1.610 . S
N533 C534 1.351 . S
C534 C528 1.428 . S
C534 N533 1.351 . S
C534 C535 1.434 1_554 S
C535 C526 1.429 . S
C535 N532 1.350 . S
C535 C534 1.434 1_556 S
C536 C537 1.369 . S
C536 C538 1.419 . S
C536 H540 0.930 . S
C537 C536 1.369 . S
C537 C546 1.429 . S
C538 C536 1.419 . S
C538 C539 1.363 . S
C538 H541 0.929 . S
C539 C538 1.363 . S
C539 C545 1.428 . S
H540 C536 0.930 . S
H541 C538 0.929 . S
S542 N543 1.613 . S
S542 N544 1.610 . S
N543 S542 1.613 . S
N543 C546 1.350 . S
N544 S542 1.610 . S
N544 C545 1.351 . S
C545 C539 1.428 . S
C545 N544 1.351 . S
C545 C546 1.434 . S
C546 C537 1.429 . S
C546 N543 1.350 . S
C546 C545 1.434 . S
C547 C548 1.369 . S
C547 C549 1.419 1_556 S
C547 H551 0.930 . S
C548 C547 1.369 . S
C548 C557 1.429 . S
C549 C547 1.419 1_554 S
C549 C550 1.363 . S
C549 H552 0.929 . S
C550 C549 1.363 . S
C550 C556 1.428 . S
H551 C547 0.930 . S
H552 C549 0.929 . S
S553 N554 1.613 . S
S553 N555 1.610 1_556 S
N554 S553 1.613 . S
N554 C557 1.350 . S
N555 S553 1.610 1_554 S
N555 C556 1.351 . S
C556 C550 1.428 . S
C556 N555 1.351 . S
C556 C557 1.434 1_554 S
C557 C548 1.429 . S
C557 N554 1.350 . S
C557 C556 1.434 1_556 S
C558 C559 1.369 . S
C558 C560 1.419 . S
C558 H562 0.930 . S
C559 C558 1.369 . S
C559 C568 1.429 . S
C560 C558 1.419 . S
C560 C561 1.363 . S
C560 H563 0.929 . S
C561 C560 1.363 . S
C561 C567 1.428 . S
H562 C558 0.930 . S
H563 C560 0.929 . S
S564 N565 1.613 . S
S564 N566 1.610 . S
N565 S564 1.613 . S
N565 C568 1.350 . S
N566 S564 1.610 . S
N566 C567 1.351 . S
C567 C561 1.428 . S
C567 N566 1.351 . S
C567 C568 1.434 . S
C568 C559 1.429 . S
C568 N565 1.350 . S
C568 C567 1.434 . S
C569 C570 1.369 . S
C569 C571 1.419 . S
C569 H573 0.930 . S
C570 C569 1.369 . S
C570 C579 1.429 . S
C571 C569 1.419 . S
C571 C572 1.363 . S
C571 H574 0.929 . S
C572 C571 1.363 . S
C572 C578 1.428 . S
H573 C569 0.930 . S
H574 C571 0.929 . S
S575 N576 1.613 . S
S575 N577 1.610 . S
N576 S575 1.613 . S
N576 C579 1.350 . S
N577 S575 1.610 . S
N577 C578 1.351 . S
C578 C572 1.428 . S
C578 N577 1.351 . S
C578 C579 1.434 . S
C579 C570 1.429 . S
C579 N576 1.350 . S
C579 C578 1.434 . S
C580 C581 1.369 . S
C580 C582 1.419 . S
C580 H584 0.930 . S
C581 C580 1.369 . S
C581 C590 1.429 . S
C582 C580 1.419 . S
C582 C583 1.363 . S
C582 H585 0.929 . S
C583 C582 1.363 . S
C583 C589 1.428 . S
H584 C580 0.930 . S
H585 C582 0.929 . S
S586 N587 1.613 . S
S586 N588 1.610 . S
N587 S586 1.613 . S
N587 C590 1.350 . S
N588 S586 1.610 . S
N588 C589 1.351 . S
C589 C583 1.428 . S
C589 N588 1.351 . S
C589 C590 1.434 . S
C590 C581 1.429 . S
C590 N587 1.350 . S
C590 C589 1.434 . S
C591 C592 1.369 . S
C591 C593 1.419 . S
C591 H595 0.930 . S
C592 C591 1.369 . S
C592 C601 1.429 1_554 S
C593 C591 1.419 . S
C593 C594 1.363 1_554 S
C593 H596 0.929 . S
C594 C593 1.363 1_556 S
C594 C600 1.428 . S
H595 C591 0.930 . S
H596 C593 0.929 . S
S597 N598 1.613 . S
S597 N599 1.610 . S
N598 S597 1.613 . S
N598 C601 1.350 . S
N599 S597 1.610 . S
N599 C600 1.351 . S
C600 C594 1.428 . S
C600 N599 1.351 . S
C600 C601 1.434 . S
C601 C592 1.429 1_556 S
C601 N598 1.350 . S
C601 C600 1.434 . S
C602 C603 1.369 . S
C602 C604 1.419 . S
C602 H606 0.930 . S
C603 C602 1.369 . S
C603 C612 1.429 . S
C604 C602 1.419 . S
C604 C605 1.363 . S
C604 H607 0.929 . S
C605 C604 1.363 . S
C605 C611 1.428 . S
H606 C602 0.930 . S
H607 C604 0.929 . S
S608 N609 1.613 . S
S608 N610 1.610 . S
N609 S608 1.613 . S
N609 C612 1.350 . S
N610 S608 1.610 . S
N610 C611 1.351 . S
C611 C605 1.428 . S
C611 N610 1.351 . S
C611 C612 1.434 . S
C612 C603 1.429 . S
C612 N609 1.350 . S
C612 C611 1.434 . S
C613 C614 1.369 . S
C613 C615 1.419 . S
C613 H617 0.930 . S
C614 C613 1.369 . S
C614 C623 1.429 . S
C615 C613 1.419 . S
C615 C616 1.363 . S
C615 H618 0.929 . S
C616 C615 1.363 . S
C616 C622 1.428 . S
H617 C613 0.930 . S
H618 C615 0.929 . S
S619 N620 1.613 . S
S619 N621 1.610 . S
N620 S619 1.613 . S
N620 C623 1.350 . S
N621 S619 1.610 . S
N621 C622 1.351 . S
C622 C616 1.428 . S
C622 N621 1.351 . S
C622 C623 1.434 . S
C623 C614 1.429 . S
C623 N620 1.350 . S
C623 C622 1.434 . S
C624 C625 1.369 . S
C624 C626 1.419 . S
C624 H628 0.930 . S
C625 C624 1.369 . S
C625 C634 1.429 . S
C626 C624 1.419 . S
C626 C627 1.363 . S
C626 H629 0.929 . S
C627 C626 1.363 . S
C627 C633 1.428 . S
H628 C624 0.930 . S
H629 C626 0.929 . S
S630 N631 1.613 . S
S630 N632 1.610 . S
N631 S630 1.613 . S
N631 C634 1.350 . S
N632 S630 1.610 . S
N632 C633 1.351 . S
C633 C627 1.428 . S
C633 N632 1.351 . S
C633 C634 1.434 . S
C634 C625 1.429 . S
C634 N631 1.350 . S
C634 C633 1.434 . S
C635 C636 1.369 . S
C635 C637 1.419 1_655 S
C635 H639 0.930 . S
C636 C635 1.369 . S
C636 C645 1.429 . S
C637 C635 1.419 1_455 S
C637 C638 1.363 . S
C637 H640 0.929 . S
C638 C637 1.363 . S
C638 C644 1.428 . S
H639 C635 0.930 . S
H640 C637 0.929 . S
S641 N642 1.613 1_455 S
S641 N643 1.610 . S
N642 S641 1.613 1_655 S
N642 C645 1.350 . S
N643 S641 1.610 . S
N643 C644 1.351 . S
C644 C638 1.428 . S
C644 N643 1.351 . S
C644 C645 1.434 1_455 S
C645 C636 1.429 . S
C645 N642 1.350 . S
C645 C644 1.434 1_655 S
C646 C647 1.369 . S
C646 C648 1.419 . S
C646 H650 0.930 . S
C647 C646 1.369 . S
C647 C656 1.429 . S
C648 C646 1.419 . S
C648 C649 1.363 . S
C648 H651 0.929 . S
C649 C648 1.363 . S
C649 C655 1.428 . S
H650 C646 0.930 . S
H651 C648 0.929 . S
S652 N653 1.613 . S
S652 N654 1.610 . S
N653 S652 1.613 . S
N653 C656 1.350 . S
N654 S652 1.610 . S
N654 C655 1.351 . S
C655 C649 1.428 . S
C655 N654 1.351 . S
C655 C656 1.434 . S
C656 C647 1.429 . S
C656 N653 1.350 . S
C656 C655 1.434 . S
C657 C658 1.369 . S
C657 C659 1.419 . S
C657 H661 0.930 . S
C658 C657 1.369 . S
C658 C667 1.429 . S
C659 C657 1.419 . S
C659 C660 1.363 . S
C659 H662 0.929 . S
C660 C659 1.363 . S
C660 C666 1.428 . S
H661 C657 0.930 . S
H662 C659 0.929 . S
S663 N664 1.613 . S
S663 N665 1.610 . S
N664 S663 1.613 . S
N664 C667 1.350 . S
N665 S663 1.610 . S
N665 C666 1.351 . S
C666 C660 1.428 . S
C666 N665 1.351 . S
C666 C667 1.434 . S
C667 C658 1.429 . S
C667 N664 1.350 . S
C667 C666 1.434 . S
C668 C669 1.369 . S
C668 C670 1.419 . S
C668 H672 0.930 . S
C669 C668 1.369 . S
C669 C678 1.429 . S
C670 C668 1.419 . S
C670 C671 1.363 . S
C670 H673 0.929 . S
C671 C670 1.363 . S
C671 C677 1.428 . S
H672 C668 0.930 . S
H673 C670 0.929 . S
S674 N675 1.613 1_556 S
S674 N676 1.610 1_556 S
N675 S674 1.613 1_554 S
N675 C678 1.350 . S
N676 S674 1.610 1_554 S
N676 C677 1.351 . S
C677 C671 1.428 . S
C677 N676 1.351 . S
C677 C678 1.434 . S
C678 C669 1.429 . S
C678 N675 1.350 . S
C678 C677 1.434 . S
C679 C680 1.369 . S
C679 C681 1.419 . S
C679 H683 0.930 . S
C680 C679 1.369 . S
C680 C689 1.429 . S
C681 C679 1.419 . S
C681 C682 1.363 . S
C681 H684 0.929 . S
C682 C681 1.363 . S
C682 C688 1.428 . S
H683 C679 0.930 . S
H684 C681 0.929 . S
S685 N686 1.613 . S
S685 N687 1.610 . S
N686 S685 1.613 . S
N686 C689 1.350 . S
N687 S685 1.610 . S
N687 C688 1.351 . S
C688 C682 1.428 . S
C688 N687 1.351 . S
C688 C689 1.434 . S
C689 C680 1.429 . S
C689 N686 1.350 . S
C689 C688 1.434 . S
C690 C691 1.369 . S
C690 C692 1.419 . S
C690 H694 0.930 . S
C691 C690 1.369 . S
C691 C700 1.429 . S
C692 C690 1.419 . S
C692 C693 1.363 . S
C692 H695 0.929 . S
C693 C692 1.363 . S
C693 C699 1.428 . S
H694 C690 0.930 . S
H695 C692 0.929 . S
S696 N697 1.613 . S
S696 N698 1.610 . S
N697 S696 1.613 . S
N697 C700 1.350 . S
N698 S696 1.610 . S
N698 C699 1.351 . S
C699 C693 1.428 . S
C699 N698 1.351 . S
C699 C700 1.434 . S
C700 C691 1.429 . S
C700 N697 1.350 . S
C700 C699 1.434 . S
C701 C702 1.369 . S
C701 C703 1.419 1_455 S
C701 H705 0.930 . S
C702 C701 1.369 . S
C702 C711 1.429 . S
C703 C701 1.419 1_655 S
C703 C704 1.363 . S
C703 H706 0.929 . S
C704 C703 1.363 . S
C704 C710 1.428 . S
H705 C701 0.930 . S
H706 C703 0.929 . S
S707 N708 1.613 . S
S707 N709 1.610 1_455 S
N708 S707 1.613 . S
N708 C711 1.350 . S
N709 S707 1.610 1_655 S
N709 C710 1.351 . S
C710 C704 1.428 . S
C710 N709 1.351 . S
C710 C711 1.434 1_655 S
C711 C702 1.429 . S
C711 N708 1.350 . S
C711 C710 1.434 1_455 S
C712 C713 1.369 . S
C712 C714 1.419 . S
C712 H716 0.930 . S
C713 C712 1.369 . S
C713 C722 1.429 . S
C714 C712 1.419 . S
C714 C715 1.363 . S
C714 H717 0.929 . S
C715 C714 1.363 . S
C715 C721 1.428 . S
H716 C712 0.930 . S
H717 C714 0.929 . S
S718 N719 1.613 . S
S718 N720 1.610 . S
N719 S718 1.613 . S
N719 C722 1.350 . S
N720 S718 1.610 . S
N720 C721 1.351 . S
C721 C715 1.428 . S
C721 N720 1.351 . S
C721 C722 1.434 . S
C722 C713 1.429 . S
C722 N719 1.350 . S
C722 C721 1.434 . S
C723 C724 1.369 . S
C723 C725 1.419 1_655 S
C723 H727 0.930 . S
C724 C723 1.369 . S
C724 C733 1.429 . S
C725 C723 1.419 1_455 S
C725 C726 1.363 . S
C725 H728 0.929 . S
C726 C725 1.363 . S
C726 C732 1.428 . S
H727 C723 0.930 . S
H728 C725 0.929 . S
S729 N730 1.613 . S
S729 N731 1.610 1_655 S
N730 S729 1.613 . S
N730 C733 1.350 . S
N731 S729 1.610 1_455 S
N731 C732 1.351 . S
C732 C726 1.428 . S
C732 N731 1.351 . S
C732 C733 1.434 1_455 S
C733 C724 1.429 . S
C733 N730 1.350 . S
C733 C732 1.434 1_655 S
C734 C735 1.369 . S
C734 C736 1.419 . S
C734 H738 0.930 . S
C735 C734 1.369 . S
C735 C744 1.429 . S
C736 C734 1.419 . S
C736 C737 1.363 . S
C736 H739 0.929 . S
C737 C736 1.363 . S
C737 C743 1.428 . S
H738 C734 0.930 . S
H739 C736 0.929 . S
S740 N741 1.613 1_556 S
S740 N742 1.610 1_556 S
N741 S740 1.613 1_554 S
N741 C744 1.350 . S
N742 S740 1.610 1_554 S
N742 C743 1.351 . S
C743 C737 1.428 . S
C743 N742 1.351 . S
C743 C744 1.434 . S
C744 C735 1.429 . S
C744 N741 1.350 . S
C744 C743 1.434 . S
C745 C746 1.369 . S
C745 C747 1.419 . S
C745 H749 0.930 . S
C746 C745 1.369 . S
C746 C755 1.429 . S
C747 C745 1.419 . S
C747 C748 1.363 . S
C747 H750 0.929 . S
C748 C747 1.363 . S
C748 C754 1.428 . S
H749 C745 0.930 . S
H750 C747 0.929 . S
S751 N752 1.613 . S
S751 N753 1.610 . S
N752 S751 1.613 . S
N752 C755 1.350 . S
N753 S751 1.610 . S
N753 C754 1.351 . S
C754 C748 1.428 . S
C754 N753 1.351 . S
C754 C755 1.434 . S
C755 C746 1.429 . S
C755 N752 1.350 . S
C755 C754 1.434 . S
C756 C757 1.369 . S
C756 C758 1.419 . S
C756 H760 0.930 . S
C757 C756 1.369 . S
C757 C766 1.429 . S
C758 C756 1.419 . S
C758 C759 1.363 . S
C758 H761 0.929 . S
C759 C758 1.363 . S
C759 C765 1.428 . S
H760 C756 0.930 . S
H761 C758 0.929 . S
S762 N763 1.613 1_554 S
S762 N764 1.610 1_554 S
N763 S762 1.613 1_556 S
N763 C766 1.350 . S
N764 S762 1.610 1_556 S
N764 C765 1.351 . S
C765 C759 1.428 . S
C765 N764 1.351 . S
C765 C766 1.434 . S
C766 C757 1.429 . S
C766 N763 1.350 . S
C766 C765 1.434 . S
C767 C768 1.369 . S
C767 C769 1.419 . S
C767 H771 0.930 . S
C768 C767 1.369 . S
C768 C777 1.429 . S
C769 C767 1.419 . S
C769 C770 1.363 . S
C769 H772 0.929 . S
C770 C769 1.363 . S
C770 C776 1.428 . S
H771 C767 0.930 . S
H772 C769 0.929 . S
S773 N774 1.613 . S
S773 N775 1.610 . S
N774 S773 1.613 . S
N774 C777 1.350 . S
N775 S773 1.610 . S
N775 C776 1.351 . S
C776 C770 1.428 . S
C776 N775 1.351 . S
C776 C777 1.434 . S
C777 C768 1.429 . S
C777 N774 1.350 . S
C777 C776 1.434 . S
C778 C779 1.369 . S
C778 C780 1.419 . S
C778 H782 0.930 . S
C779 C778 1.369 . S
C779 C788 1.429 . S
C780 C778 1.419 . S
C780 C781 1.363 . S
C780 H783 0.929 . S
C781 C780 1.363 . S
C781 C787 1.428 . S
H782 C778 0.930 . S
H783 C780 0.929 . S
S784 N785 1.613 . S
S784 N786 1.610 . S
N785 S784 1.613 . S
N785 C788 1.350 . S
N786 S784 1.610 . S
N786 C787 1.351 . S
C787 C781 1.428 . S
C787 N786 1.351 . S
C787 C788 1.434 . S
C788 C779 1.429 . S
C788 N785 1.350 . S
C788 C787 1.434 . S
C789 C790 1.369 . S
C789 C791 1.419 1_655 S
C789 H793 0.930 . S
C790 C789 1.369 . S
C790 C799 1.429 . S
C791 C789 1.419 1_455 S
C791 C792 1.363 . S
C791 H794 0.929 . S
C792 C791 1.363 . S
C792 C798 1.428 . S
H793 C789 0.930 . S
H794 C791 0.929 . S
S795 N796 1.613 . S
S795 N797 1.610 1_655 S
N796 S795 1.613 . S
N796 C799 1.350 . S
N797 S795 1.610 1_455 S
N797 C798 1.351 . S
C798 C792 1.428 . S
C798 N797 1.351 . S
C798 C799 1.434 1_455 S
C799 C790 1.429 . S
C799 N796 1.350 . S
C799 C798 1.434 1_655 S
C800 C801 1.369 . S
C800 C802 1.419 . S
C800 H804 0.930 . S
C801 C800 1.369 . S
C801 C810 1.429 . S
C802 C800 1.419 . S
C802 C803 1.363 . S
C802 H805 0.929 . S
C803 C802 1.363 . S
C803 C809 1.428 . S
H804 C800 0.930 . S
H805 C802 0.929 . S
S806 N807 1.613 1_554 S
S806 N808 1.610 1_554 S
N807 S806 1.613 1_556 S
N807 C810 1.350 . S
N808 S806 1.610 1_556 S
N808 C809 1.351 . S
C809 C803 1.428 . S
C809 N808 1.351 . S
C809 C810 1.434 . S
C810 C801 1.429 . S
C810 N807 1.350 . S
C810 C809 1.434 . S
C811 C812 1.369 . S
C811 C813 1.419 . S
C811 H815 0.930 . S
C812 C811 1.369 . S
C812 C821 1.429 . S
C813 C811 1.419 . S
C813 C814 1.363 . S
C813 H816 0.929 . S
C814 C813 1.363 . S
C814 C820 1.428 . S
H815 C811 0.930 . S
H816 C813 0.929 . S
S817 N818 1.613 . S
S817 N819 1.610 . S
N818 S817 1.613 . S
N818 C821 1.350 . S
N819 S817 1.610 . S
N819 C820 1.351 . S
C820 C814 1.428 . S
C820 N819 1.351 . S
C820 C821 1.434 . S
C821 C812 1.429 . S
C821 N818 1.350 . S
C821 C820 1.434 . S
C822 C823 1.369 . S
C822 C824 1.419 . S
C822 H826 0.930 . S
C823 C822 1.369 . S
C823 C832 1.429 . S
C824 C822 1.419 . S
C824 C825 1.363 . S
C824 H827 0.929 . S
C825 C824 1.363 . S
C825 C831 1.428 . S
H826 C822 0.930 . S
H827 C824 0.929 . S
S828 N829 1.613 . S
S828 N830 1.610 . S
N829 S828 1.613 . S
N829 C832 1.350 . S
N830 S828 1.610 . S
N830 C831 1.351 . S
C831 C825 1.428 . S
C831 N830 1.351 . S
C831 C832 1.434 . S
C832 C823 1.429 . S
C832 N829 1.350 . S
C832 C831 1.434 . S
C833 C834 1.369 . S
C833 C835 1.419 1_655 S
C833 H837 0.930 . S
C834 C833 1.369 . S
C834 C843 1.429 . S
C835 C833 1.419 1_455 S
C835 C836 1.363 . S
C835 H838 0.929 . S
C836 C835 1.363 . S
C836 C842 1.428 . S
H837 C833 0.930 . S
H838 C835 0.929 . S
S839 N840 1.613 . S
S839 N841 1.610 1_655 S
N840 S839 1.613 . S
N840 C843 1.350 . S
N841 S839 1.610 1_455 S
N841 C842 1.351 . S
C842 C836 1.428 . S
C842 N841 1.351 . S
C842 C843 1.434 1_455 S
C843 C834 1.429 . S
C843 N840 1.350 . S
C843 C842 1.434 1_655 S
C844 C845 1.369 . S
C844 C846 1.419 . S
C844 H848 0.930 . S
C845 C844 1.369 . S
C845 C854 1.429 . S
C846 C844 1.419 . S
C846 C847 1.363 . S
C846 H849 0.929 . S
C847 C846 1.363 . S
C847 C853 1.428 . S
H848 C844 0.930 . S
H849 C846 0.929 . S
S850 N851 1.613 . S
S850 N852 1.610 . S
N851 S850 1.613 . S
N851 C854 1.350 . S
N852 S850 1.610 . S
N852 C853 1.351 . S
C853 C847 1.428 . S
C853 N852 1.351 . S
C853 C854 1.434 . S
C854 C845 1.429 . S
C854 N851 1.350 . S
C854 C853 1.434 . S
C855 C856 1.369 . S
C855 C857 1.419 1_455 S
C855 H859 0.930 . S
C856 C855 1.369 . S
C856 C865 1.429 . S
C857 C855 1.419 1_655 S
C857 C858 1.363 . S
C857 H860 0.929 . S
C858 C857 1.363 . S
C858 C864 1.428 . S
H859 C855 0.930 . S
H860 C857 0.929 . S
S861 N862 1.613 1_655 S
S861 N863 1.610 . S
N862 S861 1.613 1_455 S
N862 C865 1.350 . S
N863 S861 1.610 . S
N863 C864 1.351 . S
C864 C858 1.428 . S
C864 N863 1.351 . S
C864 C865 1.434 1_655 S
C865 C856 1.429 . S
C865 N862 1.350 . S
C865 C864 1.434 1_455 S
C866 C867 1.369 . S
C866 C868 1.419 . S
C866 H870 0.930 . S
C867 C866 1.369 . S
C867 C876 1.429 . S
C868 C866 1.419 . S
C868 C869 1.363 . S
C868 H871 0.929 . S
C869 C868 1.363 . S
C869 C875 1.428 . S
H870 C866 0.930 . S
H871 C868 0.929 . S
S872 N873 1.613 . S
S872 N874 1.610 . S
N873 S872 1.613 . S
N873 C876 1.350 . S
N874 S872 1.610 . S
N874 C875 1.351 . S
C875 C869 1.428 . S
C875 N874 1.351 . S
C875 C876 1.434 . S
C876 C867 1.429 . S
C876 N873 1.350 . S
C876 C875 1.434 . S
C877 C878 1.369 . S
C877 C879 1.419 . S
C877 H881 0.930 . S
C878 C877 1.369 . S
C878 C887 1.429 . S
C879 C877 1.419 . S
C879 C880 1.363 . S
C879 H882 0.929 . S
C880 C879 1.363 . S
C880 C886 1.428 . S
H881 C877 0.930 . S
H882 C879 0.929 . S
S883 N884 1.613 . S
S883 N885 1.610 . S
N884 S883 1.613 . S
N884 C887 1.350 . S
N885 S883 1.610 . S
N885 C886 1.351 . S
C886 C880 1.428 . S
C886 N885 1.351 . S
C886 C887 1.434 . S
C887 C878 1.429 . S
C887 N884 1.350 . S
C887 C886 1.434 . S
C888 C889 1.369 . S
C888 C890 1.419 . S
C888 H892 0.930 . S
C889 C888 1.369 . S
C889 C898 1.429 . S
C890 C888 1.419 . S
C890 C891 1.363 . S
C890 H893 0.929 . S
C891 C890 1.363 . S
C891 C897 1.428 . S
H892 C888 0.930 . S
H893 C890 0.929 . S
S894 N895 1.613 . S
S894 N896 1.610 . S
N895 S894 1.613 . S
N895 C898 1.350 . S
N896 S894 1.610 . S
N896 C897 1.351 . S
C897 C891 1.428 . S
C897 N896 1.351 . S
C897 C898 1.434 . S
C898 C889 1.429 . S
C898 N895 1.350 . S
C898 C897 1.434 . S
C899 C900 1.369 . S
C899 C901 1.419 . S
C899 H903 0.930 . S
C900 C899 1.369 . S
C900 C909 1.429 . S
C901 C899 1.419 . S
C901 C902 1.363 . S
C901 H904 0.929 . S
C902 C901 1.363 . S
C902 C908 1.428 . S
H903 C899 0.930 . S
H904 C901 0.929 . S
S905 N906 1.613 1_554 S
S905 N907 1.610 1_554 S
N906 S905 1.613 1_556 S
N906 C909 1.350 . S
N907 S905 1.610 1_556 S
N907 C908 1.351 . S
C908 C902 1.428 . S
C908 N907 1.351 . S
C908 C909 1.434 . S
C909 C900 1.429 . S
C909 N906 1.350 . S
C909 C908 1.434 . S
C910 C911 1.369 . S
C910 C912 1.419 . S
C910 H914 0.930 . S
C911 C910 1.369 . S
C911 C920 1.429 . S
C912 C910 1.419 . S
C912 C913 1.363 . S
C912 H915 0.929 . S
C913 C912 1.363 . S
C913 C919 1.428 . S
H914 C910 0.930 . S
H915 C912 0.929 . S
S916 N917 1.613 . S
S916 N918 1.610 . S
N917 S916 1.613 . S
N917 C920 1.350 . S
N918 S916 1.610 . S
N918 C919 1.351 . S
C919 C913 1.428 . S
C919 N918 1.351 . S
C919 C920 1.434 . S
C920 C911 1.429 . S
C920 N917 1.350 . S
C920 C919 1.434 . S
C921 C922 1.369 . S
C921 C923 1.419 1_455 S
C921 H925 0.930 . S
C922 C921 1.369 . S
C922 C931 1.429 . S
C923 C921 1.419 1_655 S
C923 C924 1.363 . S
C923 H926 0.929 . S
C924 C923 1.363 . S
C924 C930 1.428 . S
H925 C921 0.930 . S
H926 C923 0.929 . S
S927 N928 1.613 . S
S927 N929 1.610 1_455 S
N928 S927 1.613 . S
N928 C931 1.350 . S
N929 S927 1.610 1_655 S
N929 C930 1.351 . S
C930 C924 1.428 . S
C930 N929 1.351 . S
C930 C931 1.434 1_655 S
C931 C922 1.429 . S
C931 N928 1.350 . S
C931 C930 1.434 1_455 S
C932 C933 1.369 . S
C932 C934 1.419 . S
C932 H936 0.930 . S
C933 C932 1.369 . S
C933 C942 1.429 . S
C934 C932 1.419 . S
C934 C935 1.363 . S
C934 H937 0.929 . S
C935 C934 1.363 . S
C935 C941 1.428 . S
H936 C932 0.930 . S
H937 C934 0.929 . S
S938 N939 1.613 . S
S938 N940 1.610 . S
N939 S938 1.613 . S
N939 C942 1.350 . S
N940 S938 1.610 . S
N940 C941 1.351 . S
C941 C935 1.428 . S
C941 N940 1.351 . S
C941 C942 1.434 . S
C942 C933 1.429 . S
C942 N939 1.350 . S
C942 C941 1.434 . S
C943 C944 1.369 . S
C943 C945 1.419 1_655 S
C943 H947 0.930 . S
C944 C943 1.369 . S
C944 C953 1.429 . S
C945 C943 1.419 1_455 S
C945 C946 1.363 . S
C945 H948 0.929 . S
C946 C945 1.363 . S
C946 C952 1.428 . S
H947 C943 0.930 . S
H948 C945 0.929 . S
S949 N950 1.613 1_455 S
S949 N951 1.610 . S
N950 S949 1.613 1_655 S
N950 C953 1.350 . S
N951 S949 1.610 . S
N951 C952 1.351 . S
C952 C946 1.428 . S
C952 N951 1.351 . S
C952 C953 1.434 1_455 S
C953 C944 1.429 . S
C953 N950 1.350 . S
C953 C952 1.434 1_655 S
C954 C955 1.369 . S
C954 C956 1.419 . S
C954 H958 0.930 . S
C955 C954 1.369 . S
C955 C964 1.429 . S
C956 C954 1.419 . S
C956 C957 1.363 . S
C956 H959 0.929 . S
C957 C956 1.363 . S
C957 C963 1.428 . S
H958 C954 0.930 . S
H959 C956 0.929 . S
S960 N961 1.613 . S
S960 N962 1.610 . S
N961 S960 1.613 . S
N961 C964 1.350 . S
N962 S960 1.610 . S
N962 C963 1.351 . S
C963 C957 1.428 . S
C963 N962 1.351 . S
C963 C964 1.434 . S
C964 C955 1.429 . S
C964 N961 1.350 . S
C964 C963 1.434 . S
C965 C966 1.369 . S
C965 C967 1.419 . S
C965 H969 0.930 . S
C966 C965 1.369 . S
C966 C975 1.429 . S
C967 C965 1.419 . S
C967 C968 1.363 . S
C967 H970 0.929 . S
C968 C967 1.363 . S
C968 C974 1.428 . S
H969 C965 0.930 . S
H970 C967 0.929 . S
S971 N972 1.613 . S
S971 N973 1.610 . S
N972 S971 1.613 . S
N972 C975 1.350 . S
N973 S971 1.610 . S
N973 C974 1.351 . S
C974 C968 1.428 . S
C974 N973 1.351 . S
C974 C975 1.434 . S
C975 C966 1.429 . S
C975 N972 1.350 . S
C975 C974 1.434 . S
C976 C977 1.369 . S
C976 C978 1.419 . S
C976 H980 0.930 . S
C977 C976 1.369 . S
C977 C986 1.429 . S
C978 C976 1.419 . S
C978 C979 1.363 . S
C978 H981 0.929 . S
C979 C978 1.363 . S
C979 C985 1.428 . S
H980 C976 0.930 . S
H981 C978 0.929 . S
S982 N983 1.613 . S
S982 N984 1.610 . S
N983 S982 1.613 . S
N983 C986 1.350 . S
N984 S982 1.610 . S
N984 C985 1.351 . S
C985 C979 1.428 . S
C985 N984 1.351 . S
C985 C986 1.434 . S
C986 C977 1.429 . S
C986 N983 1.350 . S
C986 C985 1.434 . S
C987 C988 1.369 . S
C987 C989 1.419 . S
C987 H991 0.930 . S
C988 C987 1.369 . S
C988 C997 1.429 . S
C989 C987 1.419 . S
C989 C990 1.363 . S
C989 H992 0.929 . S
C990 C989 1.363 . S
C990 C996 1.428 . S
H991 C987 0.930 . S
H992 C989 0.929 . S
S993 N994 1.613 . S
S993 N995 1.610 . S
N994 S993 1.613 . S
N994 C997 1.350 . S
N995 S993 1.610 . S
N995 C996 1.351 . S
C996 C990 1.428 . S
C996 N995 1.351 . S
C996 C997 1.434 . S
C997 C988 1.429 . S
C997 N994 1.350 . S
C997 C996 1.434 . S
C998 C999 1.369 . S
C998 C1000 1.419 . S
C998 H1002 0.930 . S
C999 C998 1.369 . S
C999 C1008 1.429 . S
C1000 C998 1.419 . S
C1000 C1001 1.363 . S
C1000 H1003 0.929 . S
C1001 C1000 1.363 . S
C1001 C1007 1.428 . S
H1002 C998 0.930 . S
H1003 C1000 0.929 . S
S1004 N1005 1.613 . S
S1004 N1006 1.610 . S
N1005 S1004 1.613 . S
N1005 C1008 1.350 . S
N1006 S1004 1.610 . S
N1006 C1007 1.351 . S
C1007 C1001 1.428 . S
C1007 N1006 1.351 . S
C1007 C1008 1.434 . S
C1008 C999 1.429 . S
C1008 N1005 1.350 . S
C1008 C1007 1.434 . S
C1009 C1010 1.369 . S
C1009 C1011 1.419 . S
C1009 H1013 0.930 . S
C1010 C1009 1.369 . S
C1010 C1019 1.429 . S
C1011 C1009 1.419 . S
C1011 C1012 1.363 . S
C1011 H1014 0.929 . S
C1012 C1011 1.363 . S
C1012 C1018 1.428 . S
H1013 C1009 0.930 . S
H1014 C1011 0.929 . S
S1015 N1016 1.613 . S
S1015 N1017 1.610 . S
N1016 S1015 1.613 . S
N1016 C1019 1.350 . S
N1017 S1015 1.610 . S
N1017 C1018 1.351 . S
C1018 C1012 1.428 . S
C1018 N1017 1.351 . S
C1018 C1019 1.434 . S
C1019 C1010 1.429 . S
C1019 N1016 1.350 . S
C1019 C1018 1.434 . S
C1020 C1021 1.369 . S
C1020 C1022 1.419 . S
C1020 H1024 0.930 . S
C1021 C1020 1.369 . S
C1021 C1030 1.429 . S
C1022 C1020 1.419 . S
C1022 C1023 1.363 . S
C1022 H1025 0.929 . S
C1023 C1022 1.363 . S
C1023 C1029 1.428 . S
H1024 C1020 0.930 . S
H1025 C1022 0.929 . S
S1026 N1027 1.613 . S
S1026 N1028 1.610 . S
N1027 S1026 1.613 . S
N1027 C1030 1.350 . S
N1028 S1026 1.610 . S
N1028 C1029 1.351 . S
C1029 C1023 1.428 . S
C1029 N1028 1.351 . S
C1029 C1030 1.434 . S
C1030 C1021 1.429 . S
C1030 N1027 1.350 . S
C1030 C1029 1.434 . S
C1031 C1032 1.369 . S
C1031 C1033 1.419 . S
C1031 H1035 0.930 . S
C1032 C1031 1.369 . S
C1032 C1041 1.429 . S
C1033 C1031 1.419 . S
C1033 C1034 1.363 . S
C1033 H1036 0.929 . S
C1034 C1033 1.363 . S
C1034 C1040 1.428 . S
H1035 C1031 0.930 . S
H1036 C1033 0.929 . S
S1037 N1038 1.613 . S
S1037 N1039 1.610 . S
N1038 S1037 1.613 . S
N1038 C1041 1.350 . S
N1039 S1037 1.610 . S
N1039 C1040 1.351 . S
C1040 C1034 1.428 . S
C1040 N1039 1.351 . S
C1040 C1041 1.434 . S
C1041 C1032 1.429 . S
C1041 N1038 1.350 . S
C1041 C1040 1.434 . S
C1042 C1043 1.369 . S
C1042 C1044 1.419 . S
C1042 H1046 0.930 . S
C1043 C1042 1.369 . S
C1043 C1052 1.429 . S
C1044 C1042 1.419 . S
C1044 C1045 1.363 . S
C1044 H1047 0.929 . S
C1045 C1044 1.363 . S
C1045 C1051 1.428 . S
H1046 C1042 0.930 . S
H1047 C1044 0.929 . S
S1048 N1049 1.613 . S
S1048 N1050 1.610 . S
N1049 S1048 1.613 . S
N1049 C1052 1.350 . S
N1050 S1048 1.610 . S
N1050 C1051 1.351 . S
C1051 C1045 1.428 . S
C1051 N1050 1.351 . S
C1051 C1052 1.434 . S
C1052 C1043 1.429 . S
C1052 N1049 1.350 . S
C1052 C1051 1.434 . S
C1053 C1054 1.369 . S
C1053 C1055 1.419 . S
C1053 H1057 0.930 . S
C1054 C1053 1.369 . S
C1054 C1063 1.429 . S
C1055 C1053 1.419 . S
C1055 C1056 1.363 . S
C1055 H1058 0.929 . S
C1056 C1055 1.363 . S
C1056 C1062 1.428 . S
H1057 C1053 0.930 . S
H1058 C1055 0.929 . S
S1059 N1060 1.613 . S
S1059 N1061 1.610 . S
N1060 S1059 1.613 . S
N1060 C1063 1.350 . S
N1061 S1059 1.610 . S
N1061 C1062 1.351 . S
C1062 C1056 1.428 . S
C1062 N1061 1.351 . S
C1062 C1063 1.434 . S
C1063 C1054 1.429 . S
C1063 N1060 1.350 . S
C1063 C1062 1.434 . S
C1064 C1065 1.369 . S
C1064 C1066 1.419 . S
C1064 H1068 0.930 . S
C1065 C1064 1.369 . S
C1065 C1074 1.429 . S
C1066 C1064 1.419 . S
C1066 C1067 1.363 . S
C1066 H1069 0.929 . S
C1067 C1066 1.363 . S
C1067 C1073 1.428 . S
H1068 C1064 0.930 . S
H1069 C1066 0.929 . S
S1070 N1071 1.613 . S
S1070 N1072 1.610 . S
N1071 S1070 1.613 . S
N1071 C1074 1.350 . S
N1072 S1070 1.610 . S
N1072 C1073 1.351 . S
C1073 C1067 1.428 . S
C1073 N1072 1.351 . S
C1073 C1074 1.434 . S
C1074 C1065 1.429 . S
C1074 N1071 1.350 . S
C1074 C1073 1.434 . S
C1075 C1076 1.369 . S
C1075 C1077 1.419 . S
C1075 H1079 0.930 . S
C1076 C1075 1.369 . S
C1076 C1085 1.429 . S
C1077 C1075 1.419 . S
C1077 C1078 1.363 . S
C1077 H1080 0.929 . S
C1078 C1077 1.363 . S
C1078 C1084 1.428 . S
H1079 C1075 0.930 . S
H1080 C1077 0.929 . S
S1081 N1082 1.613 . S
S1081 N1083 1.610 . S
N1082 S1081 1.613 . S
N1082 C1085 1.350 . S
N1083 S1081 1.610 . S
N1083 C1084 1.351 . S
C1084 C1078 1.428 . S
C1084 N1083 1.351 . S
C1084 C1085 1.434 . S
C1085 C1076 1.429 . S
C1085 N1082 1.350 . S
C1085 C1084 1.434 . S
C1086 C1087 1.369 . S
C1086 C1088 1.419 . S
C1086 H1090 0.930 . S
C1087 C1086 1.369 . S
C1087 C1096 1.429 . S
C1088 C1086 1.419 . S
C1088 C1089 1.363 . S
C1088 H1091 0.929 . S
C1089 C1088 1.363 . S
C1089 C1095 1.428 . S
H1090 C1086 0.930 . S
H1091 C1088 0.929 . S
S1092 N1093 1.613 . S
S1092 N1094 1.610 . S
N1093 S1092 1.613 . S
N1093 C1096 1.350 . S
N1094 S1092 1.610 . S
N1094 C1095 1.351 . S
C1095 C1089 1.428 . S
C1095 N1094 1.351 . S
C1095 C1096 1.434 . S
C1096 C1087 1.429 . S
C1096 N1093 1.350 . S
C1096 C1095 1.434 . S
C1097 C1098 1.369 . S
C1097 C1099 1.419 . S
C1097 H1101 0.930 . S
C1098 C1097 1.369 . S
C1098 C1107 1.429 . S
C1099 C1097 1.419 . S
C1099 C1100 1.363 . S
C1099 H1102 0.929 . S
C1100 C1099 1.363 . S
C1100 C1106 1.428 . S
H1101 C1097 0.930 . S
H1102 C1099 0.929 . S
S1103 N1104 1.613 . S
S1103 N1105 1.610 . S
N1104 S1103 1.613 . S
N1104 C1107 1.350 . S
N1105 S1103 1.610 . S
N1105 C1106 1.351 . S
C1106 C1100 1.428 . S
C1106 N1105 1.351 . S
C1106 C1107 1.434 . S
C1107 C1098 1.429 . S
C1107 N1104 1.350 . S
C1107 C1106 1.434 . S
C1108 C1109 1.369 . S
C1108 C1110 1.419 . S
C1108 H1112 0.930 . S
C1109 C1108 1.369 . S
C1109 C1118 1.429 . S
C1110 C1108 1.419 . S
C1110 C1111 1.363 . S
C1110 H1113 0.929 . S
C1111 C1110 1.363 . S
C1111 C1117 1.428 . S
H1112 C1108 0.930 . S
H1113 C1110 0.929 . S
S1114 N1115 1.613 . S
S1114 N1116 1.610 . S
N1115 S1114 1.613 . S
N1115 C1118 1.350 . S
N1116 S1114 1.610 . S
N1116 C1117 1.351 . S
C1117 C1111 1.428 . S
C1117 N1116 1.351 . S
C1117 C1118 1.434 . S
C1118 C1109 1.429 . S
C1118 N1115 1.350 . S
C1118 C1117 1.434 . S
C1119 C1120 1.369 . S
C1119 C1121 1.419 . S
C1119 H1123 0.930 . S
C1120 C1119 1.369 . S
C1120 C1129 1.429 . S
C1121 C1119 1.419 . S
C1121 C1122 1.363 . S
C1121 H1124 0.929 . S
C1122 C1121 1.363 . S
C1122 C1128 1.428 . S
H1123 C1119 0.930 . S
H1124 C1121 0.929 . S
S1125 N1126 1.613 . S
S1125 N1127 1.610 . S
N1126 S1125 1.613 . S
N1126 C1129 1.350 . S
N1127 S1125 1.610 . S
N1127 C1128 1.351 . S
C1128 C1122 1.428 . S
C1128 N1127 1.351 . S
C1128 C1129 1.434 . S
C1129 C1120 1.429 . S
C1129 N1126 1.350 . S
C1129 C1128 1.434 . S
C1130 C1131 1.369 . S
C1130 C1132 1.419 . S
C1130 H1134 0.930 . S
C1131 C1130 1.369 . S
C1131 C1140 1.429 . S
C1132 C1130 1.419 . S
C1132 C1133 1.363 . S
C1132 H1135 0.929 . S
C1133 C1132 1.363 . S
C1133 C1139 1.428 . S
H1134 C1130 0.930 . S
H1135 C1132 0.929 . S
S1136 N1137 1.613 . S
S1136 N1138 1.610 . S
N1137 S1136 1.613 . S
N1137 C1140 1.350 . S
N1138 S1136 1.610 . S
N1138 C1139 1.351 . S
C1139 C1133 1.428 . S
C1139 N1138 1.351 . S
C1139 C1140 1.434 . S
C1140 C1131 1.429 . S
C1140 N1137 1.350 . S
C1140 C1139 1.434 . S
C1141 C1142 1.369 . S
C1141 C1143 1.419 . S
C1141 H1145 0.930 . S
C1142 C1141 1.369 . S
C1142 C1151 1.429 . S
C1143 C1141 1.419 . S
C1143 C1144 1.363 . S
C1143 H1146 0.929 . S
C1144 C1143 1.363 . S
C1144 C1150 1.428 . S
H1145 C1141 0.930 . S
H1146 C1143 0.929 . S
S1147 N1148 1.613 . S
S1147 N1149 1.610 . S
N1148 S1147 1.613 . S
N1148 C1151 1.350 . S
N1149 S1147 1.610 . S
N1149 C1150 1.351 . S
C1150 C1144 1.428 . S
C1150 N1149 1.351 . S
C1150 C1151 1.434 . S
C1151 C1142 1.429 . S
C1151 N1148 1.350 . S
C1151 C1150 1.434 . S
C449 C8 1.513 . S
C451 C64 1.518 . S
C460 C22 1.516 . S
C462 C78 1.514 . S
C471 C92 1.516 . S
C473 C36 1.513 . S
C482 C106 1.513 . S
C484 C50 1.515 . S
C493 C120 1.518 . S
C495 C176 1.514 . S
C504 C134 1.518 . S
C506 C190 1.513 . S
C515 C204 1.518 . S
C517 C148 1.515 . S
C526 C162 1.512 . S
C528 C218 1.516 . S
C537 C288 1.517 . S
C539 C232 1.513 . S
C548 C302 1.516 . S
C550 C246 1.516 . S
C559 C260 1.514 . S
C561 C316 1.518 . S
C570 C330 1.512 . S
C572 C274 1.516 . S
C581 C344 1.518 . S
C583 C400 1.514 . S
C592 C414 1.514 . S
C594 C358 1.518 . S
C603 C428 1.518 . S
C605 C372 1.513 . S
C614 C386 1.513 . S
C616 C442 1.518 . S
C625 C9 1.499 . S
C627 C385 1.495 . S
C636 C119 1.495 . S
C638 C23 1.497 . S
C647 C37 1.501 . S
C649 C357 1.496 . S
C658 C51 1.494 . S
C660 C147 1.497 . S
C669 C413 1.504 . S
C671 C65 1.493 . S
C680 C203 1.504 . S
C682 C79 1.496 . S
C691 C93 1.495 . S
C693 C441 1.503 . S
C702 C107 1.494 . S
C704 C175 1.503 . S
C713 C273 1.504 . S
C715 C121 1.495 . S
C724 C135 1.493 . S
C726 C7 1.497 . S
C735 C245 1.504 . S
C737 C149 1.494 . S
C746 C163 1.491 . S
C748 C35 1.500 . S
C757 C301 1.502 . S
C759 C177 1.493 . S
C768 C191 1.493 . S
C770 C91 1.498 . S
C779 C329 1.498 . S
C781 C205 1.500 . S
C790 C219 1.491 . S
C792 C63 1.501 . S
C801 C161 1.503 . S
C803 C233 1.493 . S
C812 C343 1.504 . S
C814 C247 1.495 . S
C823 C133 1.497 . S
C825 C261 1.500 . S
C834 C275 1.500 . S
C836 C371 1.500 . S
C845 C189 1.494 . S
C847 C289 1.499 . S
C856 C427 1.499 . S
C858 C303 1.499 . S
C867 C217 1.494 . S
C869 C317 1.498 . S
C878 C331 1.492 . S
C880 C399 1.502 . S
C889 C345 1.491 . S
C891 C49 1.500 . S
C900 C359 1.498 . S
C902 C231 1.495 . S
C911 C373 1.501 . S
C913 C21 1.496 . S
C922 C387 1.492 . S
C924 C259 1.499 . S
C933 C401 1.491 . S
C935 C77 1.500 . S
C944 C315 1.501 . S
C946 C415 1.493 . S
C955 C105 1.497 . S
C957 C429 1.500 . S
C966 C443 1.491 . S
C968 C287 1.500 . S
C977 C3 1.217 . S
C979 C101 1.219 . S
C988 C17 1.222 . S
C990 C59 1.220 . S
C999 C31 1.221 . S
C1001 C73 1.221 . S
C1010 C87 1.221 . S
C1012 C45 1.221 . S
C1021 C213 1.216 . S
C1023 C115 1.218 . S
C1032 C171 1.216 . S
C1034 C129 1.217 . S
C1043 C185 1.222 . S
C1045 C143 1.221 . S
C1054 C199 1.222 . S
C1056 C157 1.221 . S
C1065 C227 1.221 . S
C1067 C325 1.218 . S
C1076 C283 1.216 . S
C1078 C241 1.216 . S
C1087 C297 1.222 . S
C1089 C255 1.221 . S
C1098 C311 1.221 . S
C1100 C269 1.218 . S
C1109 C437 1.221 . S
C1111 C339 1.221 . S
C1120 C353 1.216 . S
C1122 C395 1.216 . S
C1131 C367 1.220 . S
C1133 C409 1.221 . S
C1142 C381 1.221 . S
C1144 C423 1.221 . S
