# Generated by pormake.
# Topology vcj, (7)-cn, num edge types: 1
# Building blocks:
#     Node 0, Type 0, BuildingBlock: HICVOG_clean_sbu_0, # of connection points: 7
#     Node 1, Type 0, BuildingBlock: HICVOG_clean_sbu_0, # of connection points: 7
#     Node 2, Type 0, BuildingBlock: HICVOG_clean_sbu_0, # of connection points: 7
#     Node 3, Type 0, BuildingBlock: HICVOG_clean_sbu_0, # of connection points: 7
#     Node 4, Type 0, BuildingBlock: HICVOG_clean_sbu_0, # of connection points: 7
#     Node 5, Type 0, BuildingBlock: HICVOG_clean_sbu_0, # of connection points: 7
#     Node 6, Type 0, BuildingBlock: HICVOG_clean_sbu_0, # of connection points: 7
#     Node 7, Type 0, BuildingBlock: HICVOG_clean_sbu_0, # of connection points: 7
#     Edge 8, Type (0, 0), BuildingBlock: TEMPAE_clean_linker_10, # of connection points: 2
#     Edge 9, Type (0, 0), BuildingBlock: TEMPAE_clean_linker_10, # of connection points: 2
#     Edge 10, Type (0, 0), BuildingBlock: TEMPAE_clean_linker_10, # of connection points: 2
#     Edge 11, Type (0, 0), BuildingBlock: TEMPAE_clean_linker_10, # of connection points: 2
#     Edge 12, Type (0, 0), BuildingBlock: TEMPAE_clean_linker_10, # of connection points: 2
#     Edge 13, Type (0, 0), BuildingBlock: TEMPAE_clean_linker_10, # of connection points: 2
#     Edge 14, Type (0, 0), BuildingBlock: TEMPAE_clean_linker_10, # of connection points: 2
#     Edge 15, Type (0, 0), BuildingBlock: TEMPAE_clean_linker_10, # of connection points: 2
#     Edge 16, Type (0, 0), BuildingBlock: TEMPAE_clean_linker_10, # of connection points: 2
#     Edge 17, Type (0, 0), BuildingBlock: TEMPAE_clean_linker_10, # of connection points: 2
#     Edge 18, Type (0, 0), BuildingBlock: TEMPAE_clean_linker_10, # of connection points: 2
#     Edge 19, Type (0, 0), BuildingBlock: TEMPAE_clean_linker_10, # of connection points: 2
#     Edge 20, Type (0, 0), BuildingBlock: TEMPAE_clean_linker_10, # of connection points: 2
#     Edge 21, Type (0, 0), BuildingBlock: TEMPAE_clean_linker_10, # of connection points: 2
#     Edge 22, Type (0, 0), BuildingBlock: TEMPAE_clean_linker_10, # of connection points: 2
#     Edge 23, Type (0, 0), BuildingBlock: TEMPAE_clean_linker_10, # of connection points: 2
#     Edge 24, Type (0, 0), BuildingBlock: TEMPAE_clean_linker_10, # of connection points: 2
#     Edge 25, Type (0, 0), BuildingBlock: TEMPAE_clean_linker_10, # of connection points: 2
#     Edge 26, Type (0, 0), BuildingBlock: TEMPAE_clean_linker_10, # of connection points: 2
#     Edge 27, Type (0, 0), BuildingBlock: TEMPAE_clean_linker_10, # of connection points: 2
#     Edge 28, Type (0, 0), BuildingBlock: TEMPAE_clean_linker_10, # of connection points: 2
#     Edge 29, Type (0, 0), BuildingBlock: TEMPAE_clean_linker_10, # of connection points: 2
#     Edge 30, Type (0, 0), BuildingBlock: TEMPAE_clean_linker_10, # of connection points: 2
#     Edge 31, Type (0, 0), BuildingBlock: TEMPAE_clean_linker_10, # of connection points: 2
#     Edge 32, Type (0, 0), BuildingBlock: TEMPAE_clean_linker_10, # of connection points: 2
#     Edge 33, Type (0, 0), BuildingBlock: TEMPAE_clean_linker_10, # of connection points: 2
#     Edge 34, Type (0, 0), BuildingBlock: TEMPAE_clean_linker_10, # of connection points: 2
#     Edge 35, Type (0, 0), BuildingBlock: TEMPAE_clean_linker_10, # of connection points: 2
# Relax obj value: 0.121
# Max RMSD: 0.193
# Mean RMSD: 0.193
data_MOF--net-vcj--node1-HICVOG_clean_sbu_0--edge1-TEMPAE_clean_linker_10
_symmetry_space_group_name_H-M    P1
_symmetry_Int_Tables_number       1
_symmetry_cell_setting            triclinic
loop_
_symmetry_equiv_pos_as_xyz
'x, y, z'
_cell_length_a     35.968101
_cell_length_b     45.407344
_cell_length_c     21.762086
_cell_angle_alpha  89.965572
_cell_angle_beta   89.961171
_cell_angle_gamma 89.97511
loop_
_atom_site_label
_atom_site_type_symbol
_atom_site_fract_x
_atom_site_fract_y
_atom_site_fract_z
_atom_type_partial_charge
Zn0 Zn 0.34019 0.43017 0.27688 0.0
C1 C 0.39684 0.47363 0.1508 0.0
N2 N 0.36834 0.49246 0.15758 0.0
C3 C 0.34377 0.47699 0.19069 0.0
N4 N 0.35667 0.44983 0.20362 0.0
N5 N 0.38978 0.44713 0.17739 0.0
C6 C 0.48559 0.41176 0.2087 0.0
O7 O 0.46591 0.40742 0.25877 0.0
O8 O 0.28389 0.43138 0.28401 0.0
Zn9 Zn 0.41266 0.40866 0.1576 0.0
N10 N 0.36083 0.45228 0.34466 0.0
C11 C 0.41405 0.47213 0.39439 0.0
C12 C 0.39826 0.45601 0.34659 0.0
C13 C 0.3384 0.4641 0.38849 0.0
N14 N 0.3917 0.48415 0.43801 0.0
C15 C 0.35406 0.48085 0.43649 0.0
O16 O 0.40153 0.37499 0.219 0.0
C17 C 0.38111 0.36963 0.26576 0.0
O18 O 0.35861 0.38876 0.2867 0.0
H19 H 0.41562 0.44652 0.31116 0.0
H20 H 0.30884 0.46011 0.38595 0.0
C21 C 0.40007 0.369 0.05098 0.0
C22 C 0.38632 0.36261 0.9913 0.0
C23 C 0.36494 0.41203 0.98326 0.0
C24 C 0.37789 0.41797 0.04197 0.0
N25 N 0.39559 0.3967 0.07487 0.0
N26 N 0.36937 0.38472 0.95963 0.0
H27 H 0.41332 0.35225 0.07869 0.0
C28 C 0.26609 0.41171 0.31347 0.0
O29 O 0.28459 0.38988 0.33867 0.0
O30 O 0.46879 0.41341 0.15735 0.0
H31 H 0.37332 0.43947 0.06104 0.0
H32 H 0.44384 0.47521 0.39669 0.0
H33 H 0.35103 0.42893 0.95678 0.0
Zn34 Zn 0.16016 0.60571 0.77553 0.0
C35 C 0.102 0.56069 0.65892 0.0
N36 N 0.13117 0.54244 0.66535 0.0
C37 C 0.15709 0.55955 0.69117 0.0
N38 N 0.14431 0.58698 0.70099 0.0
N39 N 0.11001 0.58835 0.67899 0.0
C40 C 0.01402 0.62117 0.71274 0.0
O41 O 0.03377 0.62454 0.76299 0.0
O42 O 0.21618 0.60422 0.78246 0.0
Zn43 Zn 0.08637 0.62646 0.6597 0.0
N44 N 0.13998 0.58265 0.84267 0.0
C45 C 0.08749 0.56091 0.89127 0.0
C46 C 0.10281 0.57745 0.84359 0.0
C47 C 0.1626 0.57185 0.88741 0.0
N48 N 0.11004 0.54997 0.93582 0.0
C49 C 0.14743 0.55473 0.93536 0.0
O50 O 0.09746 0.66004 0.72096 0.0
C51 C 0.11833 0.66569 0.76696 0.0
O52 O 0.14157 0.64692 0.78711 0.0
H53 H 0.08529 0.58613 0.80755 0.0
H54 H 0.19193 0.57696 0.88575 0.0
C55 C 0.09891 0.66621 0.55286 0.0
C56 C 0.11271 0.67255 0.49314 0.0
C57 C 0.13393 0.62306 0.48531 0.0
C58 C 0.12081 0.61713 0.54399 0.0
N59 N 0.10323 0.6385 0.57681 0.0
N60 N 0.12965 0.65039 0.4616 0.0
H61 H 0.08573 0.68301 0.58052 0.0
C62 C 0.23534 0.62524 0.80432 0.0
O63 O 0.21843 0.64945 0.82194 0.0
O64 O 0.03051 0.62134 0.66106 0.0
H65 H 0.1247 0.59543 0.56294 0.0
H66 H 0.05791 0.55668 0.89275 0.0
H67 H 0.14771 0.60611 0.45883 0.0
Zn68 Zn 0.91274 0.12592 0.89616 0.0
C69 C 0.84232 0.05797 0.86403 0.0
N70 N 0.86662 0.04234 0.89732 0.0
C71 C 0.89509 0.06109 0.90482 0.0
N72 N 0.88815 0.08775 0.87873 0.0
N73 N 0.8553 0.08516 0.85164 0.0
C74 C 0.76503 0.1234 0.74124 0.0
O75 O 0.78333 0.14503 0.71492 0.0
O76 O 0.96806 0.11925 0.88756 0.0
Zn77 Zn 0.83908 0.10505 0.77833 0.0
N78 N 0.89947 0.13855 0.98083 0.0
C79 C 0.87449 0.12294 0.07697 0.0
C80 C 0.8851 0.11693 1.01701 0.0
C81 C 0.90258 0.16676 1.00278 0.0
N82 N 0.8776 0.15071 0.09865 0.0
C83 C 0.89104 0.1732 0.06374 0.0
O84 O 0.85761 0.14639 0.76863 0.0
C85 C 0.88039 0.16532 0.78942 0.0
O86 O 0.90111 0.15967 0.83561 0.0
H87 H 0.88113 0.09513 0.99948 0.0
H88 H 0.91286 0.18391 0.97274 0.0
C89 C 0.83618 0.07185 0.66584 0.0
C90 C 0.85126 0.05553 0.61667 0.0
C91 C 0.91165 0.06311 0.65807 0.0
C92 C 0.89644 0.07892 0.70691 0.0
N93 N 0.85908 0.08299 0.70978 0.0
N94 N 0.88883 0.05184 0.61429 0.0
H95 H 0.8067 0.07612 0.66906 0.0
C96 C 0.99321 0.13674 0.90622 0.0
O97 O 0.98356 0.16056 0.9365 0.0
O98 O 0.78295 0.10411 0.7715 0.0
H99 H 0.91419 0.08797 0.74229 0.0
H100 H 0.86327 0.10572 0.10593 0.0
H101 H 0.94137 0.05976 0.655 0.0
Zn102 Zn 0.658 0.93059 0.2773 0.0
C103 C 0.60068 0.97332 0.40425 0.0
N104 N 0.62882 0.99248 0.39765 0.0
C105 C 0.65354 0.97747 0.36389 0.0
N106 N 0.64103 0.95028 0.35033 0.0
N107 N 0.60812 0.94708 0.37695 0.0
C108 C 0.51359 0.91152 0.3462 0.0
O109 O 0.5335 0.90804 0.29609 0.0
O110 O 0.71419 0.93203 0.27098 0.0
Zn111 Zn 0.58621 0.90836 0.39684 0.0
N112 N 0.63783 0.95253 0.20881 0.0
C113 C 0.58511 0.97275 0.15817 0.0
C114 C 0.60051 0.95696 0.20685 0.0
C115 C 0.66051 0.96332 0.16414 0.0
N116 N 0.60772 0.98371 0.11369 0.0
C117 C 0.64525 0.97968 0.1152 0.0
O118 O 0.59747 0.87489 0.3352 0.0
C119 C 0.61776 0.86975 0.2882 0.0
O120 O 0.63997 0.88907 0.26718 0.0
H121 H 0.58295 0.94825 0.24287 0.0
H122 H 0.68995 0.95878 0.16669 0.0
C123 C 0.5992 0.86888 0.50338 0.0
C124 C 0.61347 0.86237 0.56266 0.0
C125 C 0.63591 0.91152 0.56969 0.0
C126 C 0.62242 0.91757 0.51133 0.0
N127 N 0.60395 0.89648 0.47916 0.0
N128 N 0.63121 0.88429 0.59366 0.0
H129 H 0.58535 0.85227 0.47619 0.0
C130 C 0.73242 0.91228 0.2426 0.0
O131 O 0.71443 0.89006 0.21801 0.0
O132 O 0.53018 0.91261 0.39778 0.0
H133 H 0.6272 0.93899 0.49191 0.0
H134 H 0.55542 0.97638 0.15583 0.0
H135 H 0.65045 0.92826 0.5956 0.0
Zn136 Zn 0.5861 0.62758 0.89585 0.0
C137 C 0.65643 0.56031 0.86488 0.0
N138 N 0.63012 0.54333 0.89011 0.0
C139 C 0.60119 0.56182 0.89644 0.0
N140 N 0.60972 0.58947 0.87693 0.0
N141 N 0.64411 0.58792 0.85528 0.0
C142 C 0.73441 0.6246 0.7442 0.0
O143 O 0.71637 0.64633 0.71773 0.0
O144 O 0.53026 0.62232 0.89414 0.0
Zn145 Zn 0.66024 0.60651 0.7806 0.0
N146 N 0.60286 0.63974 0.97867 0.0
C147 C 0.63349 0.62432 0.07024 0.0
C148 C 0.62027 0.61834 1.01169 0.0
C149 C 0.5988 0.66752 1.00233 0.0
N150 N 0.6295 0.65173 0.09364 0.0
C151 C 0.61272 0.67391 0.06189 0.0
O152 O 0.64145 0.64768 0.7683 0.0
C153 C 0.61816 0.6665 0.78815 0.0
O154 O 0.59727 0.66098 0.83424 0.0
H155 H 0.62397 0.59658 0.99296 0.0
H156 H 0.58576 0.68436 0.97456 0.0
C157 C 0.66339 0.57263 0.66863 0.0
C158 C 0.6485 0.5553 0.62085 0.0
C159 C 0.58854 0.56061 0.66539 0.0
C160 C 0.60359 0.57736 0.71292 0.0
N161 N 0.64062 0.58313 0.71352 0.0
N162 N 0.61123 0.55001 0.62068 0.0
H163 H 0.69262 0.5781 0.67006 0.0
C164 C 0.51446 0.62041 0.84207 0.0
O165 O 0.53485 0.62245 0.79216 0.0
O166 O 0.71627 0.60543 0.7744 0.0
H167 H 0.58597 0.58571 0.74914 0.0
H168 H 0.64715 0.60735 0.09686 0.0
H169 H 0.55905 0.55595 0.66417 0.0
Zn170 Zn 0.91285 0.40756 0.39808 0.0
C171 C 0.84458 0.47627 0.36553 0.0
N172 N 0.86949 0.49159 0.39817 0.0
C173 C 0.89777 0.47253 0.40471 0.0
N174 N 0.89021 0.44607 0.37848 0.0
N175 N 0.85702 0.44896 0.35272 0.0
C176 C 0.76581 0.41106 0.24383 0.0
O177 O 0.78423 0.38941 0.21784 0.0
O178 O 0.96893 0.41234 0.39906 0.0
Zn179 Zn 0.84006 0.42937 0.27973 0.0
N180 N 0.89532 0.39544 0.48053 0.0
C181 C 0.86391 0.4107 0.57153 0.0
C182 C 0.87725 0.41666 0.51302 0.0
C183 C 0.89988 0.36779 0.50467 0.0
N184 N 0.8684 0.38343 0.5954 0.0
C185 C 0.88577 0.36138 0.56416 0.0
O186 O 0.85875 0.38805 0.26891 0.0
C187 C 0.88153 0.36897 0.28923 0.0
O188 O 0.90202 0.37422 0.33592 0.0
H189 H 0.87271 0.43815 0.49377 0.0
H190 H 0.91347 0.35109 0.47732 0.0
C191 C 0.83757 0.46347 0.16823 0.0
C192 C 0.85299 0.48027 0.12003 0.0
C193 C 0.91317 0.47175 0.16148 0.0
C194 C 0.89762 0.45554 0.20943 0.0
N195 N 0.86022 0.45169 0.21179 0.0
N196 N 0.8906 0.48371 0.11811 0.0
H197 H 0.80803 0.45939 0.17109 0.0
C198 C 0.98588 0.41119 0.34775 0.0
O199 O 0.96634 0.40729 0.29742 0.0
O200 O 0.78371 0.43053 0.27361 0.0
H201 H 0.91515 0.44606 0.24463 0.0
H202 H 0.84969 0.42755 0.59768 0.0
H203 H 0.94293 0.47493 0.15885 0.0
Zn204 Zn 0.15973 0.9281 0.27235 0.0
C205 C 0.10025 0.97311 0.15842 0.0
N206 N 0.12943 0.99142 0.1637 0.0
C207 C 0.15593 0.97425 0.18789 0.0
N208 N 0.14346 0.94672 0.19785 0.0
N209 N 0.10876 0.94541 0.17765 0.0
C210 C 0.01234 0.913 0.21136 0.0
O211 O 0.03197 0.90951 0.26173 0.0
O212 O 0.21593 0.92926 0.2789 0.0
Zn213 Zn 0.08497 0.90741 0.15869 0.0
N214 N 0.13939 0.95139 0.33891 0.0
C215 C 0.0864 0.97284 0.38662 0.0
C216 C 0.10207 0.9559 0.33992 0.0
C217 C 0.16183 0.96322 0.38269 0.0
N218 N 0.10876 0.98484 0.43016 0.0
C219 C 0.14628 0.98076 0.42965 0.0
O220 O 0.09611 0.87382 0.22015 0.0
C221 C 0.11742 0.86817 0.26562 0.0
O222 O 0.14102 0.88689 0.28479 0.0
H223 H 0.08471 0.94641 0.30461 0.0
H224 H 0.19128 0.95863 0.38095 0.0
C225 C 0.09786 0.86778 0.05201 0.0
C226 C 0.11181 0.86149 0.99239 0.0
C227 C 0.13288 0.91101 0.98463 0.0
C228 C 0.11963 0.91689 0.04322 0.0
N229 N 0.10201 0.89548 0.07594 0.0
N230 N 0.12874 0.88369 0.96092 0.0
H231 H 0.08469 0.85096 0.07963 0.0
C232 C 0.23372 0.90987 0.3091 0.0
O233 O 0.21524 0.88827 0.33519 0.0
O234 O 0.02898 0.91273 0.15979 0.0
H235 H 0.12343 0.93859 0.06215 0.0
H236 H 0.0567 0.97654 0.38813 0.0
H237 H 0.14668 0.92799 0.95822 0.0
Zn238 Zn 0.41235 0.12753 0.65863 0.0
C239 C 0.34102 0.06096 0.68905 0.0
N240 N 0.36727 0.04362 0.66471 0.0
C241 C 0.39652 0.06178 0.65858 0.0
N242 N 0.38823 0.08958 0.67742 0.0
N243 N 0.35364 0.0885 0.69833 0.0
C244 C 0.25998 0.1237 0.76491 0.0
O245 O 0.27198 0.14485 0.72877 0.0
O246 O 0.46832 0.12215 0.66017 0.0
Zn247 Zn 0.33885 0.10659 0.7743 0.0
N248 N 0.39577 0.13967 0.57568 0.0
C249 C 0.36537 0.12421 0.48397 0.0
C250 C 0.37842 0.11826 0.54265 0.0
C251 C 0.39993 0.16742 0.55187 0.0
N252 N 0.36948 0.15159 0.46043 0.0
C253 C 0.3862 0.17377 0.49215 0.0
O254 O 0.35709 0.14784 0.7865 0.0
C255 C 0.38027 0.16665 0.76626 0.0
O256 O 0.4011 0.16105 0.72011 0.0
H257 H 0.37466 0.09652 0.56145 0.0
H258 H 0.41292 0.18425 0.57963 0.0
C259 C 0.33776 0.07123 0.88343 0.0
C260 C 0.35305 0.05331 0.92989 0.0
C261 C 0.41295 0.0607 0.88637 0.0
C262 C 0.39746 0.078 0.83998 0.0
N263 N 0.36024 0.08297 0.83952 0.0
N264 N 0.39049 0.04879 0.93003 0.0
H265 H 0.30839 0.07618 0.88223 0.0
C266 C 0.48509 0.1226 0.71156 0.0
O267 O 0.46563 0.12677 0.76191 0.0
O268 O 0.28311 0.10529 0.78666 0.0
H269 H 0.41488 0.08738 0.80455 0.0
H270 H 0.35176 0.10723 0.45736 0.0
H271 H 0.44258 0.05664 0.88751 0.0
C272 C 0.27861 0.46511 0.16377 0.0
C273 C 0.30414 0.48513 0.18862 0.0
C274 C 0.24622 0.47513 0.13436 0.0
C275 C 0.23973 0.50581 0.12931 0.0
C276 C 0.2627 0.52566 0.16206 0.0
C277 C 0.29475 0.51503 0.19133 0.0
C278 C 0.22192 0.45305 0.10178 0.0
C279 C 0.25636 0.55849 0.15929 0.0
C280 C 0.20811 0.53418 0.97384 0.0
C281 C 0.17091 0.54183 0.98494 0.0
C282 C 0.23041 0.52217 1.02036 0.0
C283 C 0.21519 0.51735 0.07965 0.0
C284 C 0.17751 0.5244 0.09103 0.0
C285 C 0.15578 0.53645 0.04348 0.0
C286 C 0.27048 0.51476 1.00594 0.0
C287 C 0.16015 0.51915 0.15324 0.0
H288 H 0.28595 0.44199 0.16076 0.0
H289 H 0.31454 0.53053 0.21048 0.0
H290 H 0.19229 0.45976 0.10304 0.0
H291 H 0.23052 0.45167 0.05287 0.0
H292 H 0.22461 0.43077 0.12246 0.0
H293 H 0.27173 0.57021 0.19617 0.0
H294 H 0.26619 0.56695 0.11425 0.0
H295 H 0.22636 0.56378 0.16333 0.0
H296 H 0.21989 0.53714 0.92845 0.0
H297 H 0.12697 0.54201 0.05244 0.0
H298 H 0.27575 0.49107 1.01487 0.0
H299 H 0.28927 0.52756 0.03627 0.0
H300 H 0.27792 0.51961 0.95742 0.0
H301 H 0.15915 0.49516 0.16265 0.0
H302 H 0.13144 0.52808 0.15622 0.0
H303 H 0.17727 0.52934 0.1899 0.0
C304 C 0.20652 0.52174 0.68932 0.0
C305 C 0.19673 0.55156 0.68654 0.0
C306 C 0.23881 0.51143 0.66033 0.0
C307 C 0.26171 0.53154 0.62804 0.0
C308 C 0.25476 0.56216 0.63304 0.0
C309 C 0.22203 0.57184 0.66187 0.0
C310 C 0.24549 0.47865 0.65731 0.0
C311 C 0.27908 0.58451 0.60121 0.0
C312 C 0.34577 0.50029 0.5437 0.0
C313 C 0.33081 0.49478 0.48513 0.0
C314 C 0.32407 0.51293 0.5906 0.0
C315 C 0.28655 0.52025 0.57862 0.0
C316 C 0.27162 0.51553 0.51917 0.0
C317 C 0.29395 0.50311 0.4732 0.0
C318 C 0.34116 0.51832 0.6529 0.0
C319 C 0.23175 0.52325 0.50412 0.0
H320 H 0.18701 0.50605 0.70865 0.0
H321 H 0.21446 0.59492 0.65904 0.0
H322 H 0.23612 0.47028 0.61196 0.0
H323 H 0.2755 0.4735 0.66188 0.0
H324 H 0.22994 0.46669 0.69372 0.0
H325 H 0.27651 0.60655 0.623 0.0
H326 H 0.3087 0.57774 0.6018 0.0
H327 H 0.27029 0.5865 0.5525 0.0
H328 H 0.37435 0.49428 0.55327 0.0
H329 H 0.28237 0.50021 0.42771 0.0
H330 H 0.32505 0.50667 0.68896 0.0
H331 H 0.34001 0.54216 0.66381 0.0
H332 H 0.37057 0.51095 0.65521 0.0
H333 H 0.21261 0.51062 0.53425 0.0
H334 H 0.22454 0.51843 0.45552 0.0
H335 H 0.22672 0.547 0.51282 0.0
C336 C 0.79364 0.01973 0.86119 0.0
C337 C 0.80272 0.04967 0.86457 0.0
C338 C 0.76134 1.00887 0.88933 0.0
C339 C 0.73777 0.02854 0.92142 0.0
C340 C 0.74389 0.05926 0.91651 0.0
C341 C 0.77665 0.0695 0.88862 0.0
C342 C 0.75527 0.97602 0.89174 0.0
C343 C 0.71853 0.08111 0.94761 0.0
C344 C 0.65393 0.99728 1.00672 0.0
C345 C 0.66879 0.99252 0.06562 0.0
C346 C 0.67572 1.0092 0.95911 0.0
C347 C 0.71316 1.01686 0.97085 0.0
C348 C 0.72812 1.0126 0.03048 0.0
C349 C 0.70576 1.00068 0.07704 0.0
C350 C 0.65843 1.01393 0.89674 0.0
C351 C 0.76796 0.02051 0.04526 0.0
H352 H 0.81382 1.00437 0.84256 0.0
H353 H 0.78373 0.09265 0.89219 0.0
H354 H 0.76424 0.96759 0.93727 0.0
H355 H 0.72539 0.97061 0.88611 0.0
H356 H 0.77146 0.96437 0.85566 0.0
H357 H 0.72211 0.10362 0.92846 0.0
H358 H 0.68901 0.0745 0.94265 0.0
H359 H 0.72506 0.08181 0.99743 0.0
H360 H 0.62528 0.99136 0.99751 0.0
H361 H 0.71731 0.99822 0.12268 0.0
H362 H 0.67772 1.0073 0.85944 0.0
H363 H 0.65231 0.03769 0.89081 0.0
H364 H 0.632 1.00153 0.8915 0.0
H365 H 0.78716 1.00795 1.01513 0.0
H366 H 0.7753 1.01577 0.09386 0.0
H367 H 0.77275 0.04427 0.03638 0.0
C368 C 0.70193 1.01599 0.36396 0.0
C369 C 0.69305 0.98598 0.36588 0.0
C370 C 0.73404 0.02669 0.39289 0.0
C371 C 0.75764 1.00681 0.42438 0.0
C372 C 0.75158 0.97612 0.41853 0.0
C373 C 0.71905 0.96603 0.38973 0.0
C374 C 0.73989 0.05955 0.39658 0.0
C375 C 0.77667 0.95403 0.4495 0.0
C376 C 0.842 0.0378 0.5084 0.0
C377 C 0.8275 0.0425 0.56761 0.0
C378 C 0.81995 0.02585 0.4612 0.0
C379 C 0.78257 0.0182 0.4736 0.0
C380 C 0.76802 0.02229 0.53357 0.0
C381 C 0.79064 0.03419 0.57974 0.0
C382 C 0.83672 0.02126 0.39835 0.0
C383 C 0.72829 1.01429 0.54906 0.0
H384 H 0.68177 0.03145 0.34566 0.0
H385 H 0.71207 0.94283 0.39233 0.0
H386 H 0.73077 0.06751 0.44239 0.0
H387 H 0.76974 0.06515 0.39129 0.0
H388 H 0.72371 0.07147 0.3609 0.0
H389 H 0.7738 0.93181 0.42867 0.0
H390 H 0.8062 0.96092 0.44668 0.0
H391 H 0.76909 0.95244 0.49884 0.0
H392 H 0.87055 0.04383 0.49861 0.0
H393 H 0.77937 0.03658 0.6256 0.0
H394 H 0.8182 0.03018 0.36209 0.0
H395 H 0.83984 0.99732 0.38975 0.0
H396 H 0.86449 0.03175 0.39395 0.0
H397 H 0.70888 0.02705 0.51968 0.0
H398 H 0.72132 0.01872 0.59794 0.0
H399 H 0.72341 0.99059 0.53966 0.0
C400 C 0.70527 0.52204 0.86734 0.0
C401 C 0.69592 0.55195 0.87004 0.0
C402 C 0.73726 0.51139 0.89667 0.0
C403 C 0.76031 0.53124 0.92925 0.0
C404 C 0.75381 0.56192 0.92435 0.0
C405 C 0.72139 0.57196 0.89509 0.0
C406 C 0.74355 0.47855 0.89949 0.0
C407 C 0.77833 0.58398 0.95654 0.0
C408 C 0.79269 0.50239 0.08374 0.0
C409 C 0.82955 0.4941 0.07155 0.0
C410 C 0.77029 0.51488 0.03794 0.0
C411 C 0.78512 0.51965 0.97838 0.0
C412 C 0.82256 0.51218 0.96607 0.0
C413 C 0.84436 0.49956 1.01283 0.0
C414 C 0.73048 0.52266 0.05329 0.0
C415 C 0.83959 0.51757 0.90369 0.0
H416 H 0.68564 0.50655 0.84771 0.0
H417 H 0.71416 0.5951 0.89784 0.0
H418 H 0.77349 0.47321 0.8945 0.0
H419 H 0.73428 0.47019 0.94493 0.0
H420 H 0.72773 0.46676 0.86323 0.0
H421 H 0.77557 0.60626 0.93586 0.0
H422 H 0.77002 0.5854 1.00557 0.0
H423 H 0.80793 0.57723 0.95482 0.0
H424 H 0.78121 0.49946 0.12933 0.0
H425 H 0.87293 0.49356 1.00305 0.0
H426 H 0.71125 0.51014 1.0232 0.0
H427 H 0.72554 0.54644 0.04476 0.0
H428 H 0.72333 0.51776 0.1019 0.0
H429 H 0.82203 0.50783 0.86708 0.0
H430 H 0.8681 0.50834 0.89992 0.0
H431 H 0.84097 0.54161 0.89503 0.0
C432 C 0.79609 0.51475 0.36485 0.0
C433 C 0.80508 0.48477 0.36796 0.0
C434 C 0.76421 0.52573 0.39411 0.0
C435 C 0.74105 0.50618 0.42738 0.0
C436 C 0.74718 0.47543 0.42291 0.0
C437 C 0.77935 0.46505 0.39337 0.0
C438 C 0.7582 0.5586 0.39616 0.0
C439 C 0.72268 0.45368 0.45615 0.0
C440 C 0.70942 0.53519 0.58235 0.0
C441 C 0.67217 0.54264 0.57124 0.0
C442 C 0.73177 0.5231 0.53595 0.0
C443 C 0.71657 0.51808 0.47676 0.0
C444 C 0.6789 0.52511 0.46529 0.0
C445 C 0.6571 0.53716 0.51275 0.0
C446 C 0.77183 0.51575 0.55044 0.0
C447 C 0.66157 0.51975 0.40315 0.0
H448 H 0.81603 0.53002 0.34526 0.0
H449 H 0.7864 0.44188 0.3967 0.0
H450 H 0.72824 0.56405 0.39203 0.0
H451 H 0.76808 0.56721 0.441 0.0
H452 H 0.7737 0.57006 0.359 0.0
H453 H 0.72542 0.4312 0.43651 0.0
H454 H 0.73098 0.45277 0.50523 0.0
H455 H 0.69308 0.46042 0.45419 0.0
H456 H 0.72115 0.53828 0.6277 0.0
H457 H 0.62826 0.54261 0.50379 0.0
H458 H 0.79063 0.52844 0.51985 0.0
H459 H 0.7771 0.49202 0.54192 0.0
H460 H 0.77926 0.52077 0.59886 0.0
H461 H 0.67922 0.52911 0.36614 0.0
H462 H 0.63326 0.5294 0.39958 0.0
H463 H 0.65954 0.49571 0.39488 0.0
C464 C 0.29235 0.03197 0.96631 0.0
C465 C 0.32952 0.0394 0.97825 0.0
C466 C 0.26975 0.01952 1.01193 0.0
C467 C 0.28465 1.01394 0.07109 0.0
C468 C 0.3224 0.02047 0.08311 0.0
C469 C 0.34441 0.03309 0.03651 0.0
C470 C 0.22964 1.0127 0.99685 0.0
C471 C 0.33936 1.01443 0.14528 0.0
C472 C 0.20525 1.01214 0.18355 0.0
C473 C 0.19545 0.98232 0.18109 0.0
C474 C 0.23719 0.0225 0.15354 0.0
C475 C 0.25966 1.00247 0.12022 0.0
C476 C 0.25259 0.97185 0.12481 0.0
C477 C 0.22036 0.9621 0.15515 0.0
C478 C 0.24406 0.05526 0.15108 0.0
C479 C 0.27622 0.94961 0.09128 0.0
H480 H 0.28076 0.03558 0.92102 0.0
H481 H 0.37318 0.03849 0.0461 0.0
H482 H 0.22375 0.98908 1.00566 0.0
H483 H 0.21096 0.02579 1.02689 0.0
H484 H 0.22263 1.01768 0.94822 0.0
H485 H 0.36931 0.02033 0.14704 0.0
H486 H 0.32439 0.02709 0.18119 0.0
H487 H 0.33636 0.99077 0.15689 0.0
H488 H 0.18605 0.02779 0.20384 0.0
H489 H 0.21279 0.93902 0.15264 0.0
H490 H 0.23445 0.06393 0.1061 0.0
H491 H 0.27414 0.06022 0.15519 0.0
H492 H 0.22886 0.0671 0.18804 0.0
H493 H 0.26722 0.94853 0.04256 0.0
H494 H 0.27327 0.92727 0.11161 0.0
H495 H 0.30599 0.95593 0.09193 0.0
C496 C 0.29138 0.02337 0.68614 0.0
C497 C 0.30149 0.05309 0.68225 0.0
C498 C 0.2597 1.01284 0.65576 0.0
C499 C 0.23773 0.03262 0.62094 0.0
C500 C 0.24498 0.06324 0.62423 0.0
C501 C 0.2771 0.07313 0.65449 0.0
C502 C 0.25272 0.98007 0.65445 0.0
C503 C 0.22167 0.08528 0.58948 0.0
C504 C 0.20673 1.00219 0.46704 0.0
C505 C 0.16947 0.99477 0.47825 0.0
C506 C 0.22884 1.01489 0.51295 0.0
C507 C 0.2133 0.02081 0.57154 0.0
C508 C 0.17543 1.01437 0.58273 0.0
C509 C 0.154 1.00136 0.536 0.0
C510 C 0.26909 0.02169 0.49875 0.0
C511 C 0.15776 0.02073 0.64426 0.0
H512 H 0.31027 1.00786 0.70766 0.0
H513 H 0.28509 0.09606 0.65039 0.0
H514 H 0.22259 0.97522 0.65797 0.0
H515 H 0.26276 0.971 0.61008 0.0
H516 H 0.26749 0.96853 0.69228 0.0
H517 H 0.22446 0.10773 0.60926 0.0
H518 H 0.23112 0.08606 0.54095 0.0
H519 H 0.19189 0.07896 0.58967 0.0
H520 H 0.21878 0.99841 0.42214 0.0
H521 H 0.12517 0.99594 0.54511 0.0
H522 H 0.28749 1.00925 0.5304 0.0
H523 H 0.27462 0.04547 0.50597 0.0
H524 H 0.27679 1.01596 0.45077 0.0
H525 H 0.16964 1.00582 0.67955 0.0
H526 H 0.12713 1.01762 0.64337 0.0
H527 H 0.16389 0.04362 0.65891 0.0
C528 C 0.46421 0.48189 0.12814 0.0
C529 C 0.42731 0.48096 0.10812 0.0
C530 C 0.4917 0.49591 0.09242 0.0
C531 C 0.48174 0.50945 0.03593 0.0
C532 C 0.44454 0.50804 1.01526 0.0
C533 C 0.41788 0.4938 0.05156 0.0
C534 C 0.53115 0.49702 0.11589 0.0
C535 C 0.43265 0.52227 0.9556 0.0
C536 C 0.54704 0.56768 0.96968 0.0
C537 C 0.56658 0.55123 0.92595 0.0
C538 C 0.51858 0.55463 1.00494 0.0
C539 C 0.51034 0.52428 0.99723 0.0
C540 C 0.5294 0.50787 0.95202 0.0
C541 C 0.5569 0.5216 0.91671 0.0
C542 C 0.49816 0.57305 0.05176 0.0
C543 C 0.52169 0.47548 0.94236 0.0
H544 H 0.47115 0.47322 0.17308 0.0
H545 H 0.38908 0.4937 0.03679 0.0
H546 H 0.54989 0.48568 0.08303 0.0
H547 H 0.54063 0.52021 0.11916 0.0
H548 H 0.5341 0.48655 0.16177 0.0
H549 H 0.4022 0.5206 0.94781 0.0
H550 H 0.44057 0.54588 0.9553 0.0
H551 H 0.44721 0.51164 0.91651 0.0
H552 H 0.55498 0.5902 0.97852 0.0
H553 H 0.57201 0.50867 0.88302 0.0
H554 H 0.50411 0.56466 0.09862 0.0
H555 H 0.46771 0.57132 0.04448 0.0
H556 H 0.50623 0.59664 0.0495 0.0
H557 H 0.52794 0.46312 0.98515 0.0
H558 H 0.53852 0.466 0.90439 0.0
H559 H 0.49184 0.472 0.93186 0.0
C560 C 0.91931 0.49187 0.50424 0.0
C561 C 0.92844 0.47958 0.44705 0.0
C562 C 0.94607 0.50605 0.54034 0.0
C563 C 0.98308 0.50796 0.51883 0.0
C564 C 0.99278 0.49494 0.4617 0.0
C565 C 0.96518 0.48099 0.42619 0.0
C566 C 0.93448 0.51966 0.60077 0.0
C567 C 0.03201 0.49657 0.43733 0.0
C568 C 0.04778 0.56639 0.58576 0.0
C569 C 0.06769 0.54986 0.6289 0.0
C570 C 0.01946 0.55327 0.55038 0.0
C571 C 0.01177 0.52277 0.5573 0.0
C572 C 0.03131 0.50624 0.60172 0.0
C573 C 0.05862 0.52003 0.63724 0.0
C574 C 0.99856 0.5718 0.50435 0.0
C575 C 0.02426 0.47368 0.61042 0.0
H576 H 0.89062 0.49144 0.51964 0.0
H577 H 0.97186 0.47274 0.3808 0.0
H578 H 0.94875 0.50826 0.63918 0.0
H579 H 0.94295 0.54314 0.60246 0.0
H580 H 0.90399 0.51832 0.60851 0.0
H581 H 0.03485 0.48611 0.39145 0.0
H582 H 0.04093 0.51989 0.43371 0.0
H583 H 0.05127 0.48554 0.46981 0.0
H584 H 0.0553 0.58905 0.5775 0.0
H585 H 0.07401 0.50703 0.67044 0.0
H586 H 0.96815 0.56942 0.51144 0.0
H587 H 0.00484 0.56404 0.45715 0.0
H588 H 0.00593 0.5955 0.50768 0.0
H589 H 0.99459 0.4698 0.62172 0.0
H590 H 0.04165 0.46405 0.64752 0.0
H591 H 0.03025 0.46177 0.56701 0.0
C592 C 0.04645 0.96747 0.08477 0.0
C593 C 0.06559 0.98374 0.12921 0.0
C594 C 0.0182 0.98063 0.04929 0.0
C595 C 0.00954 1.01086 0.05782 0.0
C596 C 0.02808 0.02706 0.10389 0.0
C597 C 0.05562 1.01327 0.1391 0.0
C598 C 0.99849 0.96249 1.00126 0.0
C599 C 0.01975 0.05926 0.11468 0.0
C600 C 0.96274 0.05325 0.92743 0.0
C601 C 0.9257 0.05328 0.94696 0.0
C602 C 0.99055 0.03968 0.96323 0.0
C603 C 0.98077 0.02562 1.01931 0.0
C604 C 0.9434 0.02603 0.03938 0.0
C605 C 0.91643 0.03978 1.00295 0.0
C606 C 0.03021 0.03998 0.94054 0.0
C607 C 0.93171 1.01151 0.09886 0.0
H608 H 0.05458 0.94503 0.07553 0.0
H609 H 0.07047 0.02604 0.17328 0.0
H610 H 0.96797 0.96359 1.00846 0.0
H611 H 0.00434 0.97163 0.95496 0.0
H612 H 0.00723 0.93902 1.00219 0.0
H613 H 0.03613 0.06855 0.15333 0.0
H614 H 0.02608 0.07206 0.07251 0.0
H615 H 0.98976 0.06234 0.12475 0.0
H616 H 0.96961 0.06235 0.88284 0.0
H617 H 0.88757 0.03924 1.01745 0.0
H618 H 0.04282 0.01774 0.94416 0.0
H619 H 0.0469 0.05507 0.96962 0.0
H620 H 0.0323 0.04748 0.89209 0.0
H621 H 0.94208 0.98852 0.10078 0.0
H622 H 0.90103 1.01126 0.10486 0.0
H623 H 0.94418 0.02345 0.13823 0.0
C624 C 0.45097 0.06708 0.58572 0.0
C625 C 0.43103 0.0508 0.62926 0.0
C626 C 0.47931 0.05376 0.55061 0.0
C627 C 0.48702 0.0233 0.55823 0.0
C628 C 0.46751 1.00703 0.60317 0.0
C629 C 0.44015 0.02103 0.63837 0.0
C630 C 0.50016 0.07202 0.50404 0.0
C631 C 0.47457 0.97453 0.61263 0.0
C632 C 0.53328 0.98126 0.42695 0.0
C633 C 0.57014 0.98009 0.44719 0.0
C634 C 0.50573 0.9951 0.46284 0.0
C635 C 0.51558 1.00825 0.51975 0.0
C636 C 0.5527 1.00649 0.54075 0.0
C637 C 0.57942 0.9924 0.50428 0.0
C638 C 0.46637 0.99654 0.43904 0.0
C639 C 0.56445 0.02022 0.60093 0.0
H640 H 0.44343 0.08969 0.57687 0.0
H641 H 0.42471 1.00822 0.67185 0.0
H642 H 0.53058 0.06957 0.51087 0.0
H643 H 0.49371 0.06407 0.45705 0.0
H644 H 0.49289 0.09576 0.50698 0.0
H645 H 0.45741 0.96516 0.65033 0.0
H646 H 0.46828 0.96236 0.56967 0.0
H647 H 0.50431 0.97066 0.62343 0.0
H648 H 0.52645 0.97296 0.38168 0.0
H649 H 0.60818 0.99212 0.51925 0.0
H650 H 0.45719 0.0198 0.43562 0.0
H651 H 0.44738 0.98536 0.47176 0.0
H652 H 0.46344 0.98609 0.39316 0.0
H653 H 0.55583 0.04366 0.60261 0.0
H654 H 0.59498 0.01899 0.60825 0.0
H655 H 0.55042 1.00882 0.63961 0.0
C656 C 0.36391 0.19968 0.85475 0.0
C657 C 0.38401 0.19512 0.8001 0.0
C658 C 0.36697 0.22602 0.8882 0.0
C659 C 0.39058 0.24872 0.86666 0.0
C660 C 0.41139 0.24422 0.81204 0.0
C661 C 0.40795 0.21749 0.77952 0.0
C662 C 0.34421 0.22978 0.94604 0.0
C663 C 0.43668 0.26792 0.78721 0.0
C664 C 0.36339 0.3265 0.91315 0.0
C665 C 0.38816 0.33287 0.96143 0.0
C666 C 0.36443 0.29958 0.88163 0.0
C667 C 0.39081 0.27796 0.89853 0.0
C668 C 0.41596 0.28397 0.94715 0.0
C669 C 0.41444 0.31134 0.97794 0.0
C670 C 0.33693 0.29421 0.83035 0.0
C671 C 0.44445 0.26144 0.96666 0.0
H672 H 0.34552 0.1826 0.87168 0.0
H673 H 0.42376 0.21425 0.73766 0.0
H674 H 0.36241 0.23626 0.98488 0.0
H675 H 0.32361 0.24769 0.93948 0.0
H676 H 0.32907 0.20936 0.95888 0.0
H677 H 0.45277 0.26039 0.74656 0.0
H678 H 0.41994 0.28742 0.77378 0.0
H679 H 0.45642 0.27518 0.8233 0.0
H680 H 0.34269 0.34263 0.89981 0.0
H681 H 0.43425 0.31589 1.01411 0.0
H682 H 0.31886 0.27523 0.84208 0.0
H683 H 0.35188 0.28856 0.78734 0.0
H684 H 0.31897 0.31366 0.8214 0.0
H685 H 0.43029 0.241 0.98192 0.0
H686 H 0.46236 0.26951 1.00464 0.0
H687 H 0.46238 0.2555 0.92705 0.0
C688 C 0.13402 0.83543 0.35455 0.0
C689 C 0.11386 0.83977 0.29991 0.0
C690 C 0.13127 0.80912 0.38827 0.0
C691 C 0.10786 0.78623 0.3671 0.0
C692 C 0.08695 0.79052 0.31255 0.0
C693 C 0.09011 0.81722 0.27971 0.0
C694 C 0.15413 0.80561 0.44602 0.0
C695 C 0.06184 0.76664 0.28811 0.0
C696 C 0.13553 0.70861 0.41457 0.0
C697 C 0.11081 0.70226 0.46299 0.0
C698 C 0.13434 0.73548 0.38272 0.0
C699 C 0.10785 0.75706 0.39942 0.0
C700 C 0.08276 0.75106 0.44821 0.0
C701 C 0.08444 0.72376 0.47933 0.0
C702 C 0.16179 0.74082 0.33129 0.0
C703 C 0.05415 0.77354 0.46752 0.0
H704 H 0.15219 0.85267 0.37129 0.0
H705 H 0.07425 0.82029 0.23786 0.0
H706 H 0.136 0.79922 0.48509 0.0
H707 H 0.17478 0.78771 0.43965 0.0
H708 H 0.16922 0.8261 0.45841 0.0
H709 H 0.04567 0.77399 0.24742 0.0
H710 H 0.07873 0.74719 0.27487 0.0
H711 H 0.04218 0.75937 0.32435 0.0
H712 H 0.15629 0.69251 0.40134 0.0
H713 H 0.06466 0.71922 0.51561 0.0
H714 H 0.17972 0.75992 0.34266 0.0
H715 H 0.14678 0.74627 0.28823 0.0
H716 H 0.17989 0.72143 0.32259 0.0
H717 H 0.06819 0.79408 0.48238 0.0
H718 H 0.03634 0.76551 0.50574 0.0
H719 H 0.03613 0.77927 0.42792 0.0
C720 C 0.86642 0.2095 0.13989 0.0
C721 C 0.89141 0.20332 0.09181 0.0
C722 C 0.86679 0.23654 0.17101 0.0
C723 C 0.89278 0.25843 0.15396 0.0
C724 C 0.91794 0.25267 0.10509 0.0
C725 C 0.917 0.2252 0.07457 0.0
C726 C 0.83921 0.24164 0.22235 0.0
C727 C 0.94603 0.27547 0.08544 0.0
C728 C 0.86535 0.33639 0.19988 0.0
C729 C 0.8854 0.34068 0.25464 0.0
C730 C 0.86858 0.31026 0.1657 0.0
C731 C 0.8924 0.28753 0.18647 0.0
C732 C 0.91321 0.2918 0.24113 0.0
C733 C 0.90952 0.31829 0.27448 0.0
C734 C 0.84574 0.30675 0.10794 0.0
C735 C 0.93878 0.26808 0.26512 0.0
H736 H 0.84622 0.19304 0.15355 0.0
H737 H 0.93686 0.22071 0.03835 0.0
H738 H 0.85413 0.24696 0.26554 0.0
H739 H 0.82121 0.26075 0.21118 0.0
H740 H 0.82118 0.22219 0.2307 0.0
H741 H 0.96358 0.26776 0.04662 0.0
H742 H 0.93159 0.29599 0.07137 0.0
H743 H 0.96434 0.28113 0.12469 0.0
H744 H 0.84688 0.35351 0.18342 0.0
H745 H 0.92535 0.32133 0.31636 0.0
H746 H 0.82533 0.28867 0.11417 0.0
H747 H 0.86392 0.30061 0.06878 0.0
H748 H 0.83037 0.32716 0.09578 0.0
H749 H 0.92226 0.24843 0.27823 0.0
H750 H 0.95492 0.27547 0.30581 0.0
H751 H 0.9585 0.26114 0.22866 0.0
C752 C 0.59136 0.71765 0.7755 0.0
C753 C 0.61446 0.69491 0.75411 0.0
C754 C 0.58811 0.74442 0.74301 0.0
C755 C 0.60828 0.74858 0.68762 0.0
C756 C 0.63098 0.72549 0.66523 0.0
C757 C 0.63385 0.69911 0.69864 0.0
C758 C 0.5638 0.76854 0.76874 0.0
C759 C 0.65301 0.72886 0.60652 0.0
C760 C 0.58435 0.81159 0.57725 0.0
C761 C 0.61138 0.83269 0.5927 0.0
C762 C 0.58263 0.78423 0.60809 0.0
C763 C 0.60834 0.77781 0.65569 0.0
C764 C 0.63546 0.799 0.67154 0.0
C765 C 0.63668 0.82592 0.63998 0.0
C766 C 0.55332 0.76216 0.58975 0.0
C767 C 0.66356 0.79317 0.72172 0.0
H768 H 0.5761 0.71469 0.81802 0.0
H769 H 0.65151 0.68171 0.68104 0.0
H770 H 0.58123 0.78773 0.78155 0.0
H771 H 0.54378 0.77617 0.73338 0.0
H772 H 0.54805 0.76126 0.80997 0.0
H773 H 0.66748 0.70821 0.59321 0.0
H774 H 0.63443 0.73561 0.56835 0.0
H775 H 0.67412 0.74646 0.61219 0.0
H776 H 0.56413 0.81647 0.54187 0.0
H777 H 0.65793 0.84173 0.65247 0.0
H778 H 0.53581 0.75651 0.63005 0.0
H779 H 0.56676 0.7415 0.57402 0.0
H780 H 0.53508 0.77052 0.55244 0.0
H781 H 0.6491 0.78776 0.76533 0.0
H782 H 0.68214 0.81231 0.72989 0.0
H783 H 0.68097 0.77389 0.70933 0.0
C784 C 0.63652 0.71024 0.13891 0.0
C785 C 0.61114 0.70369 0.09164 0.0
C786 C 0.63551 0.73713 0.17064 0.0
C787 C 0.60851 0.7585 0.15503 0.0
C788 C 0.58279 0.7523 0.1073 0.0
C789 C 0.58433 0.725 0.07624 0.0
C790 C 0.66366 0.7427 0.22084 0.0
C791 C 0.55361 0.77454 0.08918 0.0
C792 C 0.59147 0.81839 0.27551 0.0
C793 C 0.61444 0.84124 0.25427 0.0
C794 C 0.58834 0.79166 0.24283 0.0
C795 C 0.60853 0.78764 0.18741 0.0
C796 C 0.63121 0.8108 0.16529 0.0
C797 C 0.63391 0.83715 0.19884 0.0
C798 C 0.56401 0.76749 0.26827 0.0
C799 C 0.65331 0.80757 0.10663 0.0
H800 H 0.65761 0.69427 0.15133 0.0
H801 H 0.56408 0.72027 0.04083 0.0
H802 H 0.68105 0.76203 0.2088 0.0
H803 H 0.64922 0.7479 0.26458 0.0
H804 H 0.68224 0.72351 0.22861 0.0
H805 H 0.53544 0.76641 0.05158 0.0
H806 H 0.53601 0.78002 0.12947 0.0
H807 H 0.56714 0.79525 0.07394 0.0
H808 H 0.57612 0.82126 0.31796 0.0
H809 H 0.6515 0.85461 0.18132 0.0
H810 H 0.5814 0.74818 0.28061 0.0
H811 H 0.54389 0.7601 0.23288 0.0
H812 H 0.54837 0.77461 0.30972 0.0
H813 H 0.67429 0.78984 0.11209 0.0
H814 H 0.66794 0.82821 0.09371 0.0
H815 H 0.63474 0.80108 0.06828 0.0
C816 C 0.91457 0.31046 0.57884 0.0
C817 C 0.88769 0.3317 0.59428 0.0
C818 C 0.9162 0.28315 0.60993 0.0
C819 C 0.89051 0.27691 0.65774 0.0
C820 C 0.86352 0.29825 0.67355 0.0
C821 C 0.86241 0.32512 0.64177 0.0
C822 C 0.94536 0.26093 0.59162 0.0
C823 C 0.83543 0.29262 0.72389 0.0
C824 C 0.86453 0.19829 0.70057 0.0
C825 C 0.88394 0.19392 0.75593 0.0
C826 C 0.86748 0.22471 0.66733 0.0
C827 C 0.89033 0.24768 0.68972 0.0
C828 C 0.91046 0.24338 0.74508 0.0
C829 C 0.90711 0.21657 0.77744 0.0
C830 C 0.84545 0.22823 0.6087 0.0
C831 C 0.93494 0.26737 0.7708 0.0
H832 H 0.93476 0.3152 0.5433 0.0
H833 H 0.84126 0.34103 0.65425 0.0
H834 H 0.9628 0.2552 0.63192 0.0
H835 H 0.93179 0.24033 0.57589 0.0
H836 H 0.96369 0.26919 0.5543 0.0
H837 H 0.81702 0.31187 0.73209 0.0
H838 H 0.81785 0.27343 0.71164 0.0
H839 H 0.84988 0.28715 0.76744 0.0
H840 H 0.84682 0.18097 0.68285 0.0
H841 H 0.9224 0.21348 0.81985 0.0
H842 H 0.86409 0.2348 0.57044 0.0
H843 H 0.82456 0.24601 0.6144 0.0
H844 H 0.83071 0.20769 0.5955 0.0
H845 H 0.95509 0.27484 0.73546 0.0
H846 H 0.95055 0.26002 0.81209 0.0
H847 H 0.91766 0.28668 0.78351 0.0
C848 C 0.09066 0.71654 0.78015 0.0
C849 C 0.11457 0.69416 0.80075 0.0
C850 C 0.0872 0.74328 0.81265 0.0
C851 C 0.10799 0.74777 0.86724 0.0
C852 C 0.13159 0.72506 0.88878 0.0
C853 C 0.13464 0.69871 0.85539 0.0
C854 C 0.06191 0.76699 0.78785 0.0
C855 C 0.15433 0.72881 0.94659 0.0
C856 C 0.13495 0.82552 0.91407 0.0
C857 C 0.11011 0.8318 0.96236 0.0
C858 C 0.134 0.79863 0.88241 0.0
C859 C 0.10766 0.77697 0.8992 0.0
C860 C 0.08244 0.7829 0.94783 0.0
C861 C 0.08386 0.81024 0.97873 0.0
C862 C 0.16155 0.79335 0.83111 0.0
C863 C 0.05399 0.76032 0.96722 0.0
H864 H 0.07487 0.71331 0.7383 0.0
H865 H 0.15297 0.68161 0.87237 0.0
H866 H 0.04211 0.77421 0.82393 0.0
H867 H 0.07864 0.78651 0.77452 0.0
H868 H 0.04589 0.75948 0.74715 0.0
H869 H 0.16959 0.70842 0.95929 0.0
H870 H 0.17483 0.7468 0.94009 0.0
H871 H 0.13609 0.73519 0.9855 0.0
H872 H 0.15561 0.84169 0.90082 0.0
H873 H 0.06399 0.81472 1.0149 0.0
H874 H 0.14665 0.78771 0.78807 0.0
H875 H 0.17967 0.77437 0.84276 0.0
H876 H 0.17946 0.81282 0.82224 0.0
H877 H 0.03613 0.75439 0.92758 0.0
H878 H 0.03601 0.76834 1.00522 0.0
H879 H 0.0682 0.73988 0.98243 0.0
C880 C 0.36506 0.33689 0.35495 0.0
C881 C 0.3846 0.3411 0.29961 0.0
C882 C 0.36785 0.31052 0.38843 0.0
C883 C 0.39069 0.28745 0.36635 0.0
C884 C 0.41098 0.2916 0.31106 0.0
C885 C 0.40776 0.31835 0.27842 0.0
C886 C 0.34564 0.30715 0.44696 0.0
C887 C 0.43549 0.26752 0.28568 0.0
C888 C 0.41469 0.2248 0.47775 0.0
C889 C 0.38792 0.2035 0.46222 0.0
C890 C 0.41632 0.25209 0.44659 0.0
C891 C 0.39075 0.25827 0.39862 0.0
C892 C 0.36383 0.2369 0.38282 0.0
C893 C 0.36272 0.21004 0.41465 0.0
C894 C 0.44542 0.27433 0.46492 0.0
C895 C 0.33584 0.24247 0.33235 0.0
H896 H 0.34734 0.35427 0.37244 0.0
H897 H 0.42316 0.32133 0.23605 0.0
H898 H 0.32475 0.28939 0.4413 0.0
H899 H 0.36416 0.30065 0.48539 0.0
H900 H 0.33089 0.32774 0.45987 0.0
H901 H 0.45122 0.27476 0.2444 0.0
H902 H 0.45554 0.26011 0.3212 0.0
H903 H 0.41822 0.24821 0.27309 0.0
H904 H 0.43481 0.22008 0.51338 0.0
H905 H 0.34167 0.19407 0.40212 0.0
H906 H 0.4318 0.29498 0.48025 0.0
H907 H 0.46303 0.27992 0.4247 0.0
H908 H 0.46358 0.26615 0.50251 0.0
H909 H 0.3183 0.26174 0.34432 0.0
H910 H 0.31738 0.22325 0.32432 0.0
H911 H 0.35039 0.24779 0.28877 0.0
C912 C 0.70471 0.38869 0.21525 0.0
C913 C 0.7248 0.41292 0.23743 0.0
C914 C 0.66589 0.38982 0.20906 0.0
C915 C 0.6466 0.416 0.22444 0.0
C916 C 0.66677 0.44076 0.24581 0.0
C917 C 0.7056 0.43883 0.2527 0.0
C918 C 0.64544 0.36277 0.187 0.0
C919 C 0.64733 0.4692 0.26184 0.0
C920 C 0.54801 0.42244 0.16152 0.0
C921 C 0.5267 0.41404 0.21263 0.0
C922 C 0.58702 0.42415 0.16515 0.0
C923 C 0.60517 0.41676 0.22088 0.0
C924 C 0.58374 0.40849 0.27267 0.0
C925 C 0.54485 0.40744 0.26803 0.0
C926 C 0.60882 0.43374 0.10932 0.0
C927 C 0.60195 0.40001 0.33267 0.0
H928 H 0.71929 0.36857 0.2035 0.0
H929 H 0.72093 0.45771 0.26958 0.0
H930 H 0.62549 0.35537 0.22273 0.0
H931 H 0.6291 0.36807 0.14521 0.0
H932 H 0.66456 0.34426 0.17625 0.0
H933 H 0.66727 0.48716 0.27257 0.0
H934 H 0.62934 0.47637 0.22322 0.0
H935 H 0.62906 0.46577 0.30229 0.0
H936 H 0.5342 0.42779 0.11868 0.0
H937 H 0.52868 0.40087 0.30777 0.0
H938 H 0.62907 0.41642 0.09617 0.0
H939 H 0.62496 0.45389 0.12024 0.0
H940 H 0.59061 0.4384 0.06926 0.0
H941 H 0.62008 0.38052 0.32558 0.0
H942 H 0.58131 0.3947 0.36902 0.0
H943 H 0.61991 0.41819 0.34926 0.0
C944 C 0.95459 0.62528 0.77148 0.0
C945 C 0.97304 0.61852 0.71647 0.0
C946 C 0.91569 0.62444 0.77534 0.0
C947 C 0.89464 0.61634 0.72308 0.0
C948 C 0.91311 0.60852 0.66792 0.0
C949 C 0.95213 0.60983 0.66517 0.0
C950 C 0.89705 0.63307 0.83492 0.0
C951 C 0.89165 0.59917 0.61162 0.0
C952 C 0.79368 0.59582 0.75287 0.0
C953 C 0.77528 0.62212 0.73775 0.0
C954 C 0.83242 0.59325 0.74637 0.0
C955 C 0.8533 0.61773 0.72556 0.0
C956 C 0.83483 0.64426 0.71001 0.0
C957 C 0.79604 0.64605 0.71583 0.0
C958 C 0.85103 0.56443 0.76219 0.0
C959 C 0.85613 0.67097 0.68826 0.0
H960 H 0.97054 0.63196 0.81136 0.0
H961 H 0.96625 0.60419 0.62275 0.0
H962 H 0.87958 0.6529 0.82754 0.0
H963 H 0.8784 0.61516 0.85081 0.0
H964 H 0.91743 0.6379 0.87189 0.0
H965 H 0.91017 0.59371 0.57238 0.0
H966 H 0.8744 0.57959 0.62246 0.0
H967 H 0.87244 0.617 0.59724 0.0
H968 H 0.77777 0.57715 0.7694 0.0
H969 H 0.78203 0.66643 0.70412 0.0
H970 H 0.87011 0.5676 0.80166 0.0
H971 H 0.86812 0.5567 0.72292 0.0
H972 H 0.83062 0.54698 0.77412 0.0
H973 H 0.87577 0.67819 0.72454 0.0
H974 H 0.83754 0.68971 0.67666 0.0
H975 H 0.87288 0.66535 0.64707 0.0
C976 C 0.20915 0.10422 0.83249 0.0
C977 C 0.2203 0.12225 0.78336 0.0
C978 C 0.17222 0.10433 0.85364 0.0
C979 C 0.14569 0.12267 0.82454 0.0
C980 C 0.15649 0.14008 0.7735 0.0
C981 C 0.19368 0.13977 0.75374 0.0
C982 C 0.1619 0.0855 0.90829 0.0
C983 C 0.1289 0.15957 0.74057 0.0
C984 C 0.04206 0.10943 0.84678 0.0
C985 C 0.03264 0.13161 0.88898 0.0
C986 C 0.07887 0.10576 0.82648 0.0
C987 C 0.107 0.12471 0.8489 0.0
C988 C 0.09787 0.14656 0.89286 0.0
C989 C 0.06082 0.14979 0.91223 0.0
C990 C 0.08744 0.08218 0.77965 0.0
C991 C 0.12712 0.16701 0.91839 0.0
H992 H 0.22952 0.09056 0.85567 0.0
H993 H 0.20197 0.15353 0.71539 0.0
H994 H 0.1534 0.09982 0.94714 0.0
H995 H 0.1378 0.07127 0.897 0.0
H996 H 0.18528 0.07131 0.9237 0.0
H997 H 0.14122 0.1705 0.69967 0.0
H998 H 0.10453 0.14644 0.72562 0.0
H999 H 0.11855 0.17681 0.77238 0.0
H1000 H 0.02049 0.09533 0.82833 0.0
H1001 H 0.05387 0.16689 0.94502 0.0
H1002 H 0.09689 0.09256 0.7362 0.0
H1003 H 0.06291 0.06812 0.7696 0.0
H1004 H 0.1104 0.06791 0.79616 0.0
H1005 H 0.15044 0.15409 0.93805 0.0
H1006 H 0.11589 0.18179 0.95459 0.0
H1007 H 0.13871 0.18078 0.88085 0.0
C1008 C 0.45104 0.92172 0.3931 0.0
C1009 C 0.47251 0.91354 0.34204 0.0
C1010 C 0.41204 0.92325 0.38924 0.0
C1011 C 0.39411 0.9159 0.33334 0.0
C1012 C 0.4157 0.90783 0.28162 0.0
C1013 C 0.45458 0.90697 0.28648 0.0
C1014 C 0.39003 0.93264 0.44498 0.0
C1015 C 0.3977 0.89938 0.22145 0.0
C1016 C 0.29477 0.88756 0.33811 0.0
C1017 C 0.27466 0.91178 0.31588 0.0
C1018 C 0.33356 0.88877 0.3446 0.0
C1019 C 0.35274 0.91503 0.32948 0.0
C1020 C 0.33254 0.93978 0.30806 0.0
C1021 C 0.29376 0.93777 0.30087 0.0
C1022 C 0.35409 0.86174 0.36665 0.0
C1023 C 0.35189 0.9683 0.29235 0.0
H1024 H 0.46471 0.92706 0.43605 0.0
H1025 H 0.47091 0.90056 0.2468 0.0
H1026 H 0.37383 0.95278 0.4341 0.0
H1027 H 0.36983 0.91524 0.45783 0.0
H1028 H 0.40811 0.93725 0.48522 0.0
H1029 H 0.41846 0.89417 0.18524 0.0
H1030 H 0.37964 0.87985 0.22834 0.0
H1031 H 0.37971 0.91755 0.20478 0.0
H1032 H 0.28025 0.86739 0.34965 0.0
H1033 H 0.27838 0.95665 0.28395 0.0
H1034 H 0.37028 0.867 0.4086 0.0
H1035 H 0.37418 0.85446 0.33104 0.0
H1036 H 0.33504 0.84315 0.37716 0.0
H1037 H 0.36947 0.97556 0.33139 0.0
H1038 H 0.33191 0.98617 0.28106 0.0
H1039 H 0.37055 0.96494 0.25238 0.0
C1040 C 0.4519 0.61112 0.88937 0.0
C1041 C 0.47357 0.61723 0.83726 0.0
C1042 C 0.41293 0.60968 0.88546 0.0
C1043 C 0.39528 0.61473 0.82822 0.0
C1044 C 0.41711 0.61989 0.77516 0.0
C1045 C 0.45595 0.62097 0.78029 0.0
C1046 C 0.39063 0.60351 0.94282 0.0
C1047 C 0.39938 0.62531 0.71326 0.0
C1048 C 0.29367 0.59492 0.80221 0.0
C1049 C 0.27617 0.62226 0.81098 0.0
C1050 C 0.33234 0.5919 0.80915 0.0
C1051 C 0.35403 0.61688 0.82431 0.0
C1052 C 0.33648 0.64447 0.83321 0.0
C1053 C 0.29779 0.64678 0.82678 0.0
C1054 C 0.34999 0.56203 0.80024 0.0
C1055 C 0.35867 0.67172 0.8487 0.0
H1056 H 0.46536 0.60776 0.93338 0.0
H1057 H 0.47248 0.62553 0.73972 0.0
H1058 H 0.37292 0.6228 0.95392 0.0
H1059 H 0.37182 0.58451 0.93513 0.0
H1060 H 0.40861 0.59864 0.98307 0.0
H1061 H 0.42029 0.6274 0.67592 0.0
H1062 H 0.38011 0.60708 0.70161 0.0
H1063 H 0.38269 0.64586 0.71491 0.0
H1064 H 0.27714 0.5758 0.79029 0.0
H1065 H 0.28452 0.66798 0.83351 0.0
H1066 H 0.3647 0.55531 0.84279 0.0
H1067 H 0.37106 0.56306 0.76305 0.0
H1068 H 0.32923 0.54482 0.78853 0.0
H1069 H 0.37486 0.66806 0.8914 0.0
H1070 H 0.34075 0.69141 0.85514 0.0
H1071 H 0.37886 0.67638 0.81137 0.0
C1072 C 0.2051 0.38903 0.34178 0.0
C1073 C 0.22509 0.41344 0.32009 0.0
C1074 C 0.16627 0.38999 0.34794 0.0
C1075 C 0.14686 0.41618 0.33304 0.0
C1076 C 0.16692 0.44113 0.31221 0.0
C1077 C 0.20576 0.43937 0.30536 0.0
C1078 C 0.14594 0.36276 0.36937 0.0
C1079 C 0.14734 0.46958 0.29674 0.0
C1080 C 0.04532 0.40743 0.28869 0.0
C1081 C 0.02697 0.41364 0.34413 0.0
C1082 C 0.08421 0.40868 0.2843 0.0
C1083 C 0.10543 0.41675 0.33639 0.0
C1084 C 0.08707 0.42376 0.39217 0.0
C1085 C 0.04807 0.42185 0.39554 0.0
C1086 C 0.10265 0.40061 0.22422 0.0
C1087 C 0.10864 0.43313 0.44832 0.0
H1088 H 0.21977 0.36889 0.35311 0.0
H1089 H 0.22101 0.45839 0.28886 0.0
H1090 H 0.12944 0.36778 0.41116 0.0
H1091 H 0.12615 0.35544 0.33338 0.0
H1092 H 0.16515 0.34427 0.3799 0.0
H1093 H 0.16717 0.48759 0.28574 0.0
H1094 H 0.12879 0.46622 0.25666 0.0
H1095 H 0.12959 0.47664 0.33579 0.0
H1096 H 0.0293 0.40101 0.24872 0.0
H1097 H 0.0341 0.42692 0.4384 0.0
H1098 H 0.12089 0.38115 0.23099 0.0
H1099 H 0.12054 0.41895 0.20812 0.0
H1100 H 0.08216 0.39541 0.18764 0.0
H1101 H 0.12893 0.4158 0.46128 0.0
H1102 H 0.09028 0.43754 0.48835 0.0
H1103 H 0.12472 0.45338 0.43791 0.0
C1104 C 0.79395 0.89004 0.2162 0.0
C1105 C 0.77338 0.91443 0.23641 0.0
C1106 C 0.83278 0.89144 0.21052 0.0
C1107 C 0.85154 0.91802 0.22446 0.0
C1108 C 0.83087 0.94294 0.24369 0.0
C1109 C 0.79206 0.94076 0.25008 0.0
C1110 C 0.8538 0.86426 0.19063 0.0
C1111 C 0.84979 0.97181 0.25788 0.0
C1112 C 0.95286 0.91023 0.27046 0.0
C1113 C 0.97135 0.91603 0.21497 0.0
C1114 C 0.91396 0.91152 0.27444 0.0
C1115 C 0.89293 0.91907 0.22178 0.0
C1116 C 0.91144 0.92588 0.16605 0.0
C1117 C 0.95045 0.92416 0.16322 0.0
C1118 C 0.89532 0.90391 0.33462 0.0
C1119 C 0.88999 0.93451 0.10921 0.0
H1120 H 0.77976 0.86961 0.20567 0.0
H1121 H 0.77632 0.95977 0.26536 0.0
H1122 H 0.8706 0.86912 0.14908 0.0
H1123 H 0.87337 0.85745 0.22739 0.0
H1124 H 0.83502 0.84548 0.18033 0.0
H1125 H 0.82957 0.98954 0.26882 0.0
H1126 H 0.86883 0.969 0.29754 0.0
H1127 H 0.86696 0.97891 0.21817 0.0
H1128 H 0.96876 0.90398 0.31071 0.0
H1129 H 0.96457 0.92903 0.12038 0.0
H1130 H 0.87765 0.88409 0.32861 0.0
H1131 H 0.87685 0.92216 0.34935 0.0
H1132 H 0.9157 0.89949 0.37184 0.0
H1133 H 0.87092 0.91644 0.09573 0.0
H1134 H 0.90853 0.93955 0.06974 0.0
H1135 H 0.87258 0.95414 0.11894 0.0
C1136 C 0.54678 0.11062 0.66352 0.0
C1137 C 0.52611 0.11969 0.71485 0.0
C1138 C 0.58581 0.10899 0.66592 0.0
C1139 C 0.60455 0.11683 0.72078 0.0
C1140 C 0.58373 0.12534 0.77307 0.0
C1141 C 0.54481 0.12653 0.76955 0.0
C1142 C 0.60701 0.09925 0.60957 0.0
C1143 C 0.60262 0.134 0.83235 0.0
C1144 C 0.70526 0.09525 0.75032 0.0
C1145 C 0.72409 0.12129 0.73481 0.0
C1146 C 0.66646 0.0931 0.744 0.0
C1147 C 0.64595 0.11775 0.72295 0.0
C1148 C 0.66487 0.144 0.70694 0.0
C1149 C 0.7037 0.14537 0.71262 0.0
C1150 C 0.64737 0.06455 0.76036 0.0
C1151 C 0.64401 0.17088 0.68489 0.0
H1152 H 0.53249 0.10494 0.62133 0.0
H1153 H 0.52908 0.1335 0.80947 0.0
H1154 H 0.62652 0.11681 0.59487 0.0
H1155 H 0.62391 0.07949 0.62051 0.0
H1156 H 0.58831 0.09392 0.57052 0.0
H1157 H 0.5824 0.13923 0.86938 0.0
H1158 H 0.62099 0.11595 0.84842 0.0
H1159 H 0.62043 0.1536 0.82448 0.0
H1160 H 0.72086 0.07646 0.76707 0.0
H1161 H 0.71802 0.16557 0.70059 0.0
H1162 H 0.62985 0.05699 0.72152 0.0
H1163 H 0.62866 0.06804 0.80023 0.0
H1164 H 0.66753 0.04686 0.77195 0.0
H1165 H 0.62706 0.1653 0.64396 0.0
H1166 H 0.66291 0.18934 0.6728 0.0
H1167 H 0.62459 0.17849 0.72122 0.0
loop_
_geom_bond_atom_site_label_1
_geom_bond_atom_site_label_2
_geom_bond_distance
_geom_bond_site_symmetry_2
_ccdc_geom_bond_type
Zn0 N4 2.020 . S
Zn0 O8 2.019 . S
Zn0 N10 2.119 . S
Zn0 O18 1.975 . S
C1 N2 1.334 . S
C1 N5 1.336 . S
N2 C1 1.334 . S
N2 C3 1.334 . S
C3 N2 1.334 . S
C3 N4 1.336 . S
N4 Zn0 2.020 . S
N4 C3 1.336 . S
N4 N5 1.354 . S
N5 C1 1.336 . S
N5 N4 1.354 . S
N5 Zn9 2.020 . S
C6 O7 1.244 . S
C6 O30 1.257 . S
O7 C6 1.244 . S
O8 Zn0 2.019 . S
O8 C28 1.257 . S
Zn9 N5 2.020 . S
Zn9 O16 1.975 . S
Zn9 N25 2.119 . S
Zn9 O30 2.019 . S
N10 Zn0 2.119 . S
N10 C12 1.334 . S
N10 C13 1.328 . S
C11 C12 1.391 . S
C11 N14 1.329 . S
C11 H32 0.930 . S
C12 N10 1.334 . S
C12 C11 1.391 . S
C12 H19 0.930 . S
C13 N10 1.328 . S
C13 C15 1.392 . S
C13 H20 0.930 . S
N14 C11 1.329 . S
N14 C15 1.331 . S
C15 C13 1.392 . S
C15 N14 1.331 . S
O16 Zn9 1.975 . S
O16 C17 1.252 . S
C17 O16 1.252 . S
C17 O18 1.252 . S
O18 Zn0 1.975 . S
O18 C17 1.252 . S
H19 C12 0.930 . S
H20 C13 0.930 . S
C21 C22 1.392 . S
C21 N25 1.328 . S
C21 H27 0.930 . S
C22 C21 1.392 . S
C22 N26 1.331 . S
C23 C24 1.391 . S
C23 N26 1.329 . S
C23 H33 0.930 . S
C24 C23 1.391 . S
C24 N25 1.334 . S
C24 H31 0.930 . S
N25 Zn9 2.119 . S
N25 C21 1.328 . S
N25 C24 1.334 . S
N26 C22 1.331 . S
N26 C23 1.329 . S
H27 C21 0.930 . S
C28 O8 1.257 . S
C28 O29 1.244 . S
O29 C28 1.244 . S
O30 C6 1.257 . S
O30 Zn9 2.019 . S
H31 C24 0.930 . S
H32 C11 0.930 . S
H33 C23 0.930 . S
Zn34 N38 2.020 . S
Zn34 O42 2.019 . S
Zn34 N44 2.119 . S
Zn34 O52 1.975 . S
C35 N36 1.334 . S
C35 N39 1.336 . S
N36 C35 1.334 . S
N36 C37 1.334 . S
C37 N36 1.334 . S
C37 N38 1.336 . S
N38 Zn34 2.020 . S
N38 C37 1.336 . S
N38 N39 1.354 . S
N39 C35 1.336 . S
N39 N38 1.354 . S
N39 Zn43 2.020 . S
C40 O41 1.244 1_655 S
C40 O64 1.257 1_655 S
O41 C40 1.244 1_455 S
O42 Zn34 2.019 . S
O42 C62 1.257 . S
Zn43 N39 2.020 . S
Zn43 O50 1.975 . S
Zn43 N59 2.119 . S
Zn43 O64 2.019 . S
N44 Zn34 2.119 . S
N44 C46 1.334 . S
N44 C47 1.328 . S
C45 C46 1.391 . S
C45 N48 1.329 . S
C45 H66 0.930 . S
C46 N44 1.334 . S
C46 C45 1.391 . S
C46 H53 0.930 . S
C47 N44 1.328 . S
C47 C49 1.392 . S
C47 H54 0.930 . S
N48 C45 1.329 . S
N48 C49 1.331 . S
C49 C47 1.392 . S
C49 N48 1.331 . S
O50 Zn43 1.975 . S
O50 C51 1.252 . S
C51 O50 1.252 . S
C51 O52 1.252 . S
O52 Zn34 1.975 . S
O52 C51 1.252 . S
H53 C46 0.930 . S
H54 C47 0.930 . S
C55 C56 1.392 . S
C55 N59 1.328 . S
C55 H61 0.930 . S
C56 C55 1.392 . S
C56 N60 1.331 . S
C57 C58 1.391 . S
C57 N60 1.329 . S
C57 H67 0.930 . S
C58 C57 1.391 . S
C58 N59 1.334 . S
C58 H65 0.930 . S
N59 Zn43 2.119 . S
N59 C55 1.328 . S
N59 C58 1.334 . S
N60 C56 1.331 . S
N60 C57 1.329 . S
H61 C55 0.930 . S
C62 O42 1.257 . S
C62 O63 1.244 . S
O63 C62 1.244 . S
O64 C40 1.257 1_455 S
O64 Zn43 2.019 . S
H65 C58 0.930 . S
H66 C45 0.930 . S
H67 C57 0.930 . S
Zn68 N72 2.020 . S
Zn68 O76 2.019 . S
Zn68 N78 2.119 . S
Zn68 O86 1.975 . S
C69 N70 1.334 . S
C69 N73 1.336 . S
N70 C69 1.334 . S
N70 C71 1.334 . S
C71 N70 1.334 . S
C71 N72 1.336 . S
N72 Zn68 2.020 . S
N72 C71 1.336 . S
N72 N73 1.354 . S
N73 C69 1.336 . S
N73 N72 1.354 . S
N73 Zn77 2.020 . S
C74 O75 1.244 . S
C74 O98 1.257 . S
O75 C74 1.244 . S
O76 Zn68 2.019 . S
O76 C96 1.257 1_655 S
Zn77 N73 2.020 . S
Zn77 O84 1.975 . S
Zn77 N93 2.119 . S
Zn77 O98 2.019 . S
N78 Zn68 2.119 . S
N78 C80 1.334 . S
N78 C81 1.328 . S
C79 C80 1.391 . S
C79 N82 1.329 . S
C79 H100 0.930 . S
C80 N78 1.334 . S
C80 C79 1.391 . S
C80 H87 0.930 . S
C81 N78 1.328 . S
C81 C83 1.392 . S
C81 H88 0.930 . S
N82 C79 1.329 . S
N82 C83 1.331 . S
C83 C81 1.392 . S
C83 N82 1.331 . S
O84 Zn77 1.975 . S
O84 C85 1.252 . S
C85 O84 1.252 . S
C85 O86 1.252 . S
O86 Zn68 1.975 . S
O86 C85 1.252 . S
H87 C80 0.930 . S
H88 C81 0.930 . S
C89 C90 1.392 . S
C89 N93 1.328 . S
C89 H95 0.930 . S
C90 C89 1.392 . S
C90 N94 1.331 . S
C91 C92 1.391 . S
C91 N94 1.329 . S
C91 H101 0.930 . S
C92 C91 1.391 . S
C92 N93 1.334 . S
C92 H99 0.930 . S
N93 Zn77 2.119 . S
N93 C89 1.328 . S
N93 C92 1.334 . S
N94 C90 1.331 . S
N94 C91 1.329 . S
H95 C89 0.930 . S
C96 O76 1.257 1_455 S
C96 O97 1.244 1_455 S
O97 C96 1.244 1_655 S
O98 C74 1.257 . S
O98 Zn77 2.019 . S
H99 C92 0.930 . S
H100 C79 0.930 . S
H101 C91 0.930 . S
Zn102 N106 2.020 . S
Zn102 O110 2.019 . S
Zn102 N112 2.119 . S
Zn102 O120 1.975 . S
C103 N104 1.334 . S
C103 N107 1.336 . S
N104 C103 1.334 . S
N104 C105 1.334 . S
C105 N104 1.334 . S
C105 N106 1.336 . S
N106 Zn102 2.020 . S
N106 C105 1.336 . S
N106 N107 1.354 . S
N107 C103 1.336 . S
N107 N106 1.354 . S
N107 Zn111 2.020 . S
C108 O109 1.244 . S
C108 O132 1.257 . S
O109 C108 1.244 . S
O110 Zn102 2.019 . S
O110 C130 1.257 . S
Zn111 N107 2.020 . S
Zn111 O118 1.975 . S
Zn111 N127 2.119 . S
Zn111 O132 2.019 . S
N112 Zn102 2.119 . S
N112 C114 1.334 . S
N112 C115 1.328 . S
C113 C114 1.391 . S
C113 N116 1.329 . S
C113 H134 0.930 . S
C114 N112 1.334 . S
C114 C113 1.391 . S
C114 H121 0.930 . S
C115 N112 1.328 . S
C115 C117 1.392 . S
C115 H122 0.930 . S
N116 C113 1.329 . S
N116 C117 1.331 . S
C117 C115 1.392 . S
C117 N116 1.331 . S
O118 Zn111 1.975 . S
O118 C119 1.252 . S
C119 O118 1.252 . S
C119 O120 1.252 . S
O120 Zn102 1.975 . S
O120 C119 1.252 . S
H121 C114 0.930 . S
H122 C115 0.930 . S
C123 C124 1.392 . S
C123 N127 1.328 . S
C123 H129 0.930 . S
C124 C123 1.392 . S
C124 N128 1.331 . S
C125 C126 1.391 . S
C125 N128 1.329 . S
C125 H135 0.930 . S
C126 C125 1.391 . S
C126 N127 1.334 . S
C126 H133 0.930 . S
N127 Zn111 2.119 . S
N127 C123 1.328 . S
N127 C126 1.334 . S
N128 C124 1.331 . S
N128 C125 1.329 . S
H129 C123 0.930 . S
C130 O110 1.257 . S
C130 O131 1.244 . S
O131 C130 1.244 . S
O132 C108 1.257 . S
O132 Zn111 2.019 . S
H133 C126 0.930 . S
H134 C113 0.930 . S
H135 C125 0.930 . S
Zn136 N140 2.020 . S
Zn136 O144 2.019 . S
Zn136 N146 2.119 . S
Zn136 O154 1.975 . S
C137 N138 1.334 . S
C137 N141 1.336 . S
N138 C137 1.334 . S
N138 C139 1.334 . S
C139 N138 1.334 . S
C139 N140 1.336 . S
N140 Zn136 2.020 . S
N140 C139 1.336 . S
N140 N141 1.354 . S
N141 C137 1.336 . S
N141 N140 1.354 . S
N141 Zn145 2.020 . S
C142 O143 1.244 . S
C142 O166 1.257 . S
O143 C142 1.244 . S
O144 Zn136 2.019 . S
O144 C164 1.257 . S
Zn145 N141 2.020 . S
Zn145 O152 1.975 . S
Zn145 N161 2.119 . S
Zn145 O166 2.019 . S
N146 Zn136 2.119 . S
N146 C148 1.334 . S
N146 C149 1.328 . S
C147 C148 1.391 . S
C147 N150 1.329 . S
C147 H168 0.930 . S
C148 N146 1.334 . S
C148 C147 1.391 . S
C148 H155 0.930 . S
C149 N146 1.328 . S
C149 C151 1.392 . S
C149 H156 0.930 . S
N150 C147 1.329 . S
N150 C151 1.331 . S
C151 C149 1.392 . S
C151 N150 1.331 . S
O152 Zn145 1.975 . S
O152 C153 1.252 . S
C153 O152 1.252 . S
C153 O154 1.252 . S
O154 Zn136 1.975 . S
O154 C153 1.252 . S
H155 C148 0.930 . S
H156 C149 0.930 . S
C157 C158 1.392 . S
C157 N161 1.328 . S
C157 H163 0.930 . S
C158 C157 1.392 . S
C158 N162 1.331 . S
C159 C160 1.391 . S
C159 N162 1.329 . S
C159 H169 0.930 . S
C160 C159 1.391 . S
C160 N161 1.334 . S
C160 H167 0.930 . S
N161 Zn145 2.119 . S
N161 C157 1.328 . S
N161 C160 1.334 . S
N162 C158 1.331 . S
N162 C159 1.329 . S
H163 C157 0.930 . S
C164 O144 1.257 . S
C164 O165 1.244 . S
O165 C164 1.244 . S
O166 C142 1.257 . S
O166 Zn145 2.019 . S
H167 C160 0.930 . S
H168 C147 0.930 . S
H169 C159 0.930 . S
Zn170 N174 2.020 . S
Zn170 O178 2.019 . S
Zn170 N180 2.119 . S
Zn170 O188 1.975 . S
C171 N172 1.334 . S
C171 N175 1.336 . S
N172 C171 1.334 . S
N172 C173 1.334 . S
C173 N172 1.334 . S
C173 N174 1.336 . S
N174 Zn170 2.020 . S
N174 C173 1.336 . S
N174 N175 1.354 . S
N175 C171 1.336 . S
N175 N174 1.354 . S
N175 Zn179 2.020 . S
C176 O177 1.244 . S
C176 O200 1.257 . S
O177 C176 1.244 . S
O178 Zn170 2.019 . S
O178 C198 1.257 1_655 S
Zn179 N175 2.020 . S
Zn179 O186 1.975 . S
Zn179 N195 2.119 . S
Zn179 O200 2.019 . S
N180 Zn170 2.119 . S
N180 C182 1.334 . S
N180 C183 1.328 . S
C181 C182 1.391 . S
C181 N184 1.329 . S
C181 H202 0.930 . S
C182 N180 1.334 . S
C182 C181 1.391 . S
C182 H189 0.930 . S
C183 N180 1.328 . S
C183 C185 1.392 . S
C183 H190 0.930 . S
N184 C181 1.329 . S
N184 C185 1.331 . S
C185 C183 1.392 . S
C185 N184 1.331 . S
O186 Zn179 1.975 . S
O186 C187 1.252 . S
C187 O186 1.252 . S
C187 O188 1.252 . S
O188 Zn170 1.975 . S
O188 C187 1.252 . S
H189 C182 0.930 . S
H190 C183 0.930 . S
C191 C192 1.392 . S
C191 N195 1.328 . S
C191 H197 0.930 . S
C192 C191 1.392 . S
C192 N196 1.331 . S
C193 C194 1.391 . S
C193 N196 1.329 . S
C193 H203 0.930 . S
C194 C193 1.391 . S
C194 N195 1.334 . S
C194 H201 0.930 . S
N195 Zn179 2.119 . S
N195 C191 1.328 . S
N195 C194 1.334 . S
N196 C192 1.331 . S
N196 C193 1.329 . S
H197 C191 0.930 . S
C198 O178 1.257 1_455 S
C198 O199 1.244 1_455 S
O199 C198 1.244 1_655 S
O200 C176 1.257 . S
O200 Zn179 2.019 . S
H201 C194 0.930 . S
H202 C181 0.930 . S
H203 C193 0.930 . S
Zn204 N208 2.020 . S
Zn204 O212 2.019 . S
Zn204 N214 2.119 . S
Zn204 O222 1.975 . S
C205 N206 1.334 . S
C205 N209 1.336 . S
N206 C205 1.334 . S
N206 C207 1.334 . S
C207 N206 1.334 . S
C207 N208 1.336 . S
N208 Zn204 2.020 . S
N208 C207 1.336 . S
N208 N209 1.354 . S
N209 C205 1.336 . S
N209 N208 1.354 . S
N209 Zn213 2.020 . S
C210 O211 1.244 1_655 S
C210 O234 1.257 1_655 S
O211 C210 1.244 1_455 S
O212 Zn204 2.019 . S
O212 C232 1.257 . S
Zn213 N209 2.020 . S
Zn213 O220 1.975 . S
Zn213 N229 2.119 . S
Zn213 O234 2.019 . S
N214 Zn204 2.119 . S
N214 C216 1.334 . S
N214 C217 1.328 . S
C215 C216 1.391 . S
C215 N218 1.329 . S
C215 H236 0.930 . S
C216 N214 1.334 . S
C216 C215 1.391 . S
C216 H223 0.930 . S
C217 N214 1.328 . S
C217 C219 1.392 . S
C217 H224 0.930 . S
N218 C215 1.329 . S
N218 C219 1.331 . S
C219 C217 1.392 . S
C219 N218 1.331 . S
O220 Zn213 1.975 . S
O220 C221 1.252 . S
C221 O220 1.252 . S
C221 O222 1.252 . S
O222 Zn204 1.975 . S
O222 C221 1.252 . S
H223 C216 0.930 . S
H224 C217 0.930 . S
C225 C226 1.392 . S
C225 N229 1.328 . S
C225 H231 0.930 . S
C226 C225 1.392 . S
C226 N230 1.331 . S
C227 C228 1.391 . S
C227 N230 1.329 . S
C227 H237 0.930 . S
C228 C227 1.391 . S
C228 N229 1.334 . S
C228 H235 0.930 . S
N229 Zn213 2.119 . S
N229 C225 1.328 . S
N229 C228 1.334 . S
N230 C226 1.331 . S
N230 C227 1.329 . S
H231 C225 0.930 . S
C232 O212 1.257 . S
C232 O233 1.244 . S
O233 C232 1.244 . S
O234 C210 1.257 1_455 S
O234 Zn213 2.019 . S
H235 C228 0.930 . S
H236 C215 0.930 . S
H237 C227 0.930 . S
Zn238 N242 2.020 . S
Zn238 O246 2.019 . S
Zn238 N248 2.119 . S
Zn238 O256 1.975 . S
C239 N240 1.334 . S
C239 N243 1.336 . S
N240 C239 1.334 . S
N240 C241 1.334 . S
C241 N240 1.334 . S
C241 N242 1.336 . S
N242 Zn238 2.020 . S
N242 C241 1.336 . S
N242 N243 1.354 . S
N243 C239 1.336 . S
N243 N242 1.354 . S
N243 Zn247 2.020 . S
C244 O245 1.244 . S
C244 O268 1.257 . S
O245 C244 1.244 . S
O246 Zn238 2.019 . S
O246 C266 1.257 . S
Zn247 N243 2.020 . S
Zn247 O254 1.975 . S
Zn247 N263 2.119 . S
Zn247 O268 2.019 . S
N248 Zn238 2.119 . S
N248 C250 1.334 . S
N248 C251 1.328 . S
C249 C250 1.391 . S
C249 N252 1.329 . S
C249 H270 0.930 . S
C250 N248 1.334 . S
C250 C249 1.391 . S
C250 H257 0.930 . S
C251 N248 1.328 . S
C251 C253 1.392 . S
C251 H258 0.930 . S
N252 C249 1.329 . S
N252 C253 1.331 . S
C253 C251 1.392 . S
C253 N252 1.331 . S
O254 Zn247 1.975 . S
O254 C255 1.252 . S
C255 O254 1.252 . S
C255 O256 1.252 . S
O256 Zn238 1.975 . S
O256 C255 1.252 . S
H257 C250 0.930 . S
H258 C251 0.930 . S
C259 C260 1.392 . S
C259 N263 1.328 . S
C259 H265 0.930 . S
C260 C259 1.392 . S
C260 N264 1.331 . S
C261 C262 1.391 . S
C261 N264 1.329 . S
C261 H271 0.930 . S
C262 C261 1.391 . S
C262 N263 1.334 . S
C262 H269 0.930 . S
N263 Zn247 2.119 . S
N263 C259 1.328 . S
N263 C262 1.334 . S
N264 C260 1.331 . S
N264 C261 1.329 . S
H265 C259 0.930 . S
C266 O246 1.257 . S
C266 O267 1.244 . S
O267 C266 1.244 . S
O268 C244 1.257 . S
O268 Zn247 2.019 . S
H269 C262 0.930 . S
H270 C249 0.930 . S
H271 C261 0.930 . S
C272 C273 1.391 . S
C272 C274 1.394 . S
C272 H288 0.931 . S
C273 C272 1.391 . S
C273 C277 1.376 . S
C274 C272 1.394 . S
C274 C275 1.369 . S
C274 C278 1.531 . S
C275 C274 1.369 . S
C275 C276 1.410 . S
C275 C283 1.503 . S
C276 C275 1.410 . S
C276 C277 1.392 . S
C276 C279 1.511 . S
C277 C273 1.376 . S
C277 C276 1.392 . S
C277 H289 0.929 . S
C278 C274 1.531 . S
C278 H290 0.960 . S
C278 H291 0.962 . S
C278 H292 0.960 . S
C279 C276 1.511 . S
C279 H293 0.961 . S
C279 H294 0.961 . S
C279 H295 0.961 . S
C280 C281 1.370 . S
C280 C282 1.363 . S
C280 H296 0.931 . S
C281 C280 1.370 . S
C281 C285 1.408 . S
C282 C280 1.363 . S
C282 C283 1.370 1_556 S
C282 C286 1.524 . S
C283 C275 1.503 . S
C283 C282 1.370 1_554 S
C283 C284 1.403 . S
C284 C283 1.403 . S
C284 C285 1.404 1_554 S
C284 C287 1.539 . S
C285 C281 1.408 . S
C285 C284 1.404 1_556 S
C285 H297 0.930 1_556 S
C286 C282 1.524 . S
C286 H298 0.956 . S
C286 H299 0.961 . S
C286 H300 0.961 . S
C287 C284 1.539 . S
C287 H301 0.958 . S
C287 H302 0.961 . S
C287 H303 0.960 . S
H288 C272 0.931 . S
H289 C277 0.929 . S
H290 C278 0.960 . S
H291 C278 0.962 . S
H292 C278 0.960 . S
H293 C279 0.961 . S
H294 C279 0.961 . S
H295 C279 0.961 . S
H296 C280 0.931 . S
H297 C285 0.930 1_554 S
H298 C286 0.956 . S
H299 C286 0.961 . S
H300 C286 0.961 . S
H301 C287 0.958 . S
H302 C287 0.961 . S
H303 C287 0.960 . S
C304 C305 1.391 . S
C304 C306 1.394 . S
C304 H320 0.931 . S
C305 C304 1.391 . S
C305 C309 1.376 . S
C306 C304 1.394 . S
C306 C307 1.369 . S
C306 C310 1.531 . S
C307 C306 1.369 . S
C307 C308 1.410 . S
C307 C315 1.503 . S
C308 C307 1.410 . S
C308 C309 1.392 . S
C308 C311 1.511 . S
C309 C305 1.376 . S
C309 C308 1.392 . S
C309 H321 0.929 . S
C310 C306 1.531 . S
C310 H322 0.960 . S
C310 H323 0.962 . S
C310 H324 0.960 . S
C311 C308 1.511 . S
C311 H325 0.961 . S
C311 H326 0.961 . S
C311 H327 0.961 . S
C312 C313 1.370 . S
C312 C314 1.363 . S
C312 H328 0.931 . S
C313 C312 1.370 . S
C313 C317 1.408 . S
C314 C312 1.363 . S
C314 C315 1.370 . S
C314 C318 1.524 . S
C315 C307 1.503 . S
C315 C314 1.370 . S
C315 C316 1.403 . S
C316 C315 1.403 . S
C316 C317 1.404 . S
C316 C319 1.539 . S
C317 C313 1.408 . S
C317 C316 1.404 . S
C317 H329 0.930 . S
C318 C314 1.524 . S
C318 H330 0.956 . S
C318 H331 0.961 . S
C318 H332 0.961 . S
C319 C316 1.539 . S
C319 H333 0.958 . S
C319 H334 0.961 . S
C319 H335 0.960 . S
H320 C304 0.931 . S
H321 C309 0.929 . S
H322 C310 0.960 . S
H323 C310 0.962 . S
H324 C310 0.960 . S
H325 C311 0.961 . S
H326 C311 0.961 . S
H327 C311 0.961 . S
H328 C312 0.931 . S
H329 C317 0.930 . S
H330 C318 0.956 . S
H331 C318 0.961 . S
H332 C318 0.961 . S
H333 C319 0.958 . S
H334 C319 0.961 . S
H335 C319 0.960 . S
C336 C337 1.391 . S
C336 C338 1.394 . S
C336 H352 0.931 . S
C337 C336 1.391 . S
C337 C341 1.376 . S
C338 C336 1.394 . S
C338 C339 1.369 . S
C338 C342 1.531 1_545 S
C339 C338 1.369 . S
C339 C340 1.410 . S
C339 C347 1.492 1_545 S
C340 C339 1.410 . S
C340 C341 1.392 . S
C340 C343 1.511 1_556 S
C341 C337 1.376 . S
C341 C340 1.392 . S
C341 H353 0.929 . S
C342 C338 1.531 1_565 S
C342 H354 0.960 . S
C342 H355 0.962 . S
C342 H356 0.960 . S
C343 C340 1.511 1_554 S
C343 H357 0.961 . S
C343 H358 0.961 . S
C343 H359 0.961 . S
C344 C345 1.344 1_545 S
C344 C346 1.376 1_554 S
C344 H360 0.945 . S
C345 C344 1.344 1_565 S
C345 C349 1.408 . S
C346 C344 1.376 1_556 S
C346 C347 1.357 1_545 S
C346 C350 1.524 . S
C347 C339 1.492 1_565 S
C347 C346 1.357 1_565 S
C347 C348 1.429 1_556 S
C348 C347 1.429 1_554 S
C348 C349 1.404 . S
C348 C351 1.539 . S
C349 C345 1.408 . S
C349 C348 1.404 . S
C349 H361 0.930 . S
C350 C346 1.524 . S
C350 H362 0.956 . S
C350 H363 0.961 . S
C350 H364 0.961 . S
C351 C348 1.539 . S
C351 H365 0.958 1_554 S
C351 H366 0.961 . S
C351 H367 0.960 . S
H352 C336 0.931 . S
H353 C341 0.929 . S
H354 C342 0.960 . S
H355 C342 0.962 . S
H356 C342 0.960 . S
H357 C343 0.961 . S
H358 C343 0.961 . S
H359 C343 0.961 . S
H360 C344 0.945 . S
H361 C349 0.930 . S
H362 C350 0.956 . S
H363 C350 0.961 . S
H364 C350 0.961 . S
H365 C351 0.958 1_556 S
H366 C351 0.961 . S
H367 C351 0.960 . S
C368 C369 1.391 . S
C368 C370 1.394 . S
C368 H384 0.931 . S
C369 C368 1.391 . S
C369 C373 1.376 . S
C370 C368 1.394 . S
C370 C371 1.369 . S
C370 C374 1.531 . S
C371 C370 1.369 . S
C371 C372 1.410 . S
C371 C379 1.503 1_565 S
C372 C371 1.410 . S
C372 C373 1.392 . S
C372 C375 1.511 . S
C373 C369 1.376 . S
C373 C372 1.392 . S
C373 H385 0.929 . S
C374 C370 1.531 . S
C374 H386 0.934 1_565 S
C374 H387 0.962 . S
C374 H388 0.960 . S
C375 C372 1.511 . S
C375 H389 0.961 . S
C375 H390 0.961 . S
C375 H391 0.961 1_565 S
C376 C377 1.370 1_565 S
C376 C378 1.363 . S
C376 H392 0.931 . S
C377 C376 1.370 1_545 S
C377 C381 1.408 . S
C378 C376 1.363 . S
C378 C379 1.370 1_565 S
C378 C382 1.524 . S
C379 C371 1.503 1_545 S
C379 C378 1.370 1_545 S
C379 C380 1.403 . S
C380 C379 1.403 . S
C380 C381 1.404 . S
C380 C383 1.539 . S
C381 C377 1.408 . S
C381 C380 1.404 . S
C381 H393 0.930 . S
C382 C378 1.524 . S
C382 H394 0.956 . S
C382 H395 0.961 . S
C382 H396 0.961 . S
C383 C380 1.539 . S
C383 H397 0.958 . S
C383 H398 0.961 . S
C383 H399 0.960 . S
H384 C368 0.931 . S
H385 C373 0.929 . S
H386 C374 0.934 1_545 S
H387 C374 0.962 . S
H388 C374 0.960 . S
H389 C375 0.961 . S
H390 C375 0.961 . S
H391 C375 0.961 1_545 S
H392 C376 0.931 . S
H393 C381 0.930 . S
H394 C382 0.956 . S
H395 C382 0.961 . S
H396 C382 0.961 . S
H397 C383 0.958 . S
H398 C383 0.961 . S
H399 C383 0.960 . S
C400 C401 1.391 . S
C400 C402 1.394 . S
C400 H416 0.931 . S
C401 C400 1.391 . S
C401 C405 1.376 . S
C402 C400 1.394 . S
C402 C403 1.369 . S
C402 C406 1.531 . S
C403 C402 1.369 . S
C403 C404 1.410 . S
C403 C411 1.503 . S
C404 C403 1.410 . S
C404 C405 1.392 . S
C404 C407 1.511 . S
C405 C401 1.376 . S
C405 C404 1.392 . S
C405 H417 0.929 . S
C406 C402 1.531 . S
C406 H418 0.960 1_556 S
C406 H419 0.962 1_556 S
C406 H420 0.960 . S
C407 C404 1.511 . S
C407 H421 0.961 . S
C407 H422 0.961 . S
C407 H423 0.961 . S
C408 C409 1.370 . S
C408 C410 1.363 . S
C408 H424 0.931 . S
C409 C408 1.370 . S
C409 C413 1.408 . S
C410 C408 1.363 . S
C410 C411 1.370 1_554 S
C410 C414 1.524 . S
C411 C403 1.503 . S
C411 C410 1.370 1_556 S
C411 C412 1.403 . S
C412 C411 1.403 . S
C412 C413 1.404 1_556 S
C412 C415 1.539 . S
C413 C409 1.408 . S
C413 C412 1.404 1_554 S
C413 H425 0.930 . S
C414 C410 1.524 . S
C414 H426 0.956 . S
C414 H427 0.961 . S
C414 H428 0.961 . S
C415 C412 1.539 . S
C415 H429 0.958 . S
C415 H430 0.961 . S
C415 H431 0.960 . S
H416 C400 0.931 . S
H417 C405 0.929 . S
H418 C406 0.960 1_554 S
H419 C406 0.962 1_554 S
H420 C406 0.960 . S
H421 C407 0.961 . S
H422 C407 0.961 . S
H423 C407 0.961 . S
H424 C408 0.931 . S
H425 C413 0.930 . S
H426 C414 0.956 . S
H427 C414 0.961 . S
H428 C414 0.961 . S
H429 C415 0.958 . S
H430 C415 0.961 . S
H431 C415 0.960 . S
C432 C433 1.391 . S
C432 C434 1.394 . S
C432 H448 0.931 . S
C433 C432 1.391 . S
C433 C437 1.376 . S
C434 C432 1.394 . S
C434 C435 1.369 . S
C434 C438 1.531 . S
C435 C434 1.369 . S
C435 C436 1.410 . S
C435 C443 1.503 . S
C436 C435 1.410 . S
C436 C437 1.392 . S
C436 C439 1.511 . S
C437 C433 1.376 . S
C437 C436 1.392 . S
C437 H449 0.929 . S
C438 C434 1.531 . S
C438 H450 0.960 . S
C438 H451 0.962 . S
C438 H452 0.960 . S
C439 C436 1.511 . S
C439 H453 0.961 . S
C439 H454 0.961 . S
C439 H455 0.961 . S
C440 C441 1.370 . S
C440 C442 1.363 . S
C440 H456 0.931 . S
C441 C440 1.370 . S
C441 C445 1.408 . S
C442 C440 1.363 . S
C442 C443 1.370 . S
C442 C446 1.524 . S
C443 C435 1.503 . S
C443 C442 1.370 . S
C443 C444 1.403 . S
C444 C443 1.403 . S
C444 C445 1.404 . S
C444 C447 1.539 . S
C445 C441 1.408 . S
C445 C444 1.404 . S
C445 H457 0.930 . S
C446 C442 1.524 . S
C446 H458 0.956 . S
C446 H459 0.961 . S
C446 H460 0.961 . S
C447 C444 1.539 . S
C447 H461 0.958 . S
C447 H462 0.961 . S
C447 H463 0.960 . S
H448 C432 0.931 . S
H449 C437 0.929 . S
H450 C438 0.960 . S
H451 C438 0.962 . S
H452 C438 0.960 . S
H453 C439 0.961 . S
H454 C439 0.961 . S
H455 C439 0.961 . S
H456 C440 0.931 . S
H457 C445 0.930 . S
H458 C446 0.956 . S
H459 C446 0.961 . S
H460 C446 0.961 . S
H461 C447 0.958 . S
H462 C447 0.961 . S
H463 C447 0.960 . S
C464 C465 1.391 . S
C464 C466 1.394 1_556 S
C464 H480 0.931 . S
C465 C464 1.391 . S
C465 C469 1.376 1_545 S
C466 C464 1.394 1_554 S
C466 C467 1.369 1_545 S
C466 C470 1.531 . S
C467 C466 1.369 1_565 S
C467 C468 1.410 1_554 S
C467 C475 1.503 . S
C468 C467 1.410 1_556 S
C468 C469 1.392 . S
C468 C471 1.511 . S
C469 C465 1.376 1_565 S
C469 C468 1.392 . S
C469 H481 0.929 . S
C470 C466 1.531 . S
C470 H482 0.960 . S
C470 H483 0.962 . S
C470 H484 0.960 . S
C471 C468 1.511 . S
C471 H485 0.961 . S
C471 H486 0.961 . S
C471 H487 0.961 . S
C472 C473 1.370 . S
C472 C474 1.363 . S
C472 H488 0.931 . S
C473 C472 1.370 . S
C473 C477 1.408 . S
C474 C472 1.363 . S
C474 C475 1.370 . S
C474 C478 1.524 . S
C475 C467 1.503 . S
C475 C474 1.370 . S
C475 C476 1.403 . S
C476 C475 1.403 . S
C476 C477 1.404 . S
C476 C479 1.539 1_554 S
C477 C473 1.408 . S
C477 C476 1.404 . S
C477 H489 0.930 . S
C478 C474 1.524 . S
C478 H490 0.959 . S
C478 H491 0.961 . S
C478 H492 0.961 . S
C479 C476 1.539 1_556 S
C479 H493 0.958 1_565 S
C479 H494 0.961 . S
C479 H495 0.960 . S
H480 C464 0.931 . S
H481 C469 0.929 . S
H482 C470 0.960 . S
H483 C470 0.962 . S
H484 C470 0.960 . S
H485 C471 0.961 . S
H486 C471 0.961 . S
H487 C471 0.961 . S
H488 C472 0.931 . S
H489 C477 0.930 . S
H490 C478 0.959 . S
H491 C478 0.961 . S
H492 C478 0.961 . S
H493 C479 0.958 1_545 S
H494 C479 0.961 . S
H495 C479 0.960 . S
C496 C497 1.391 . S
C496 C498 1.394 . S
C496 H512 0.931 . S
C497 C496 1.391 . S
C497 C501 1.376 . S
C498 C496 1.394 . S
C498 C499 1.369 . S
C498 C502 1.531 . S
C499 C498 1.369 . S
C499 C500 1.410 . S
C499 C507 1.503 . S
C500 C499 1.410 . S
C500 C501 1.392 . S
C500 C503 1.511 . S
C501 C497 1.376 . S
C501 C500 1.392 . S
C501 H513 0.929 . S
C502 C498 1.531 . S
C502 H514 0.960 . S
C502 H515 0.962 . S
C502 H516 0.960 . S
C503 C500 1.511 . S
C503 H517 0.961 . S
C503 H518 0.961 1_545 S
C503 H519 0.961 . S
C504 C505 1.370 . S
C504 C506 1.363 . S
C504 H520 0.931 . S
C505 C504 1.370 . S
C505 C509 1.408 1_565 S
C506 C504 1.363 . S
C506 C507 1.370 1_565 S
C506 C510 1.524 . S
C507 C499 1.503 . S
C507 C506 1.370 1_545 S
C507 C508 1.403 . S
C508 C507 1.403 . S
C508 C509 1.404 . S
C508 C511 1.539 . S
C509 C505 1.408 1_545 S
C509 C508 1.404 . S
C509 H521 0.930 . S
C510 C506 1.524 . S
C510 H522 0.956 . S
C510 H523 0.961 . S
C510 H524 0.961 . S
C511 C508 1.539 . S
C511 H525 0.958 . S
C511 H526 0.961 . S
C511 H527 0.960 . S
H512 C496 0.931 . S
H513 C501 0.929 . S
H514 C502 0.960 . S
H515 C502 0.962 . S
H516 C502 0.960 . S
H517 C503 0.961 . S
H518 C503 0.961 1_565 S
H519 C503 0.961 . S
H520 C504 0.931 . S
H521 C509 0.930 . S
H522 C510 0.956 . S
H523 C510 0.961 . S
H524 C510 0.961 . S
H525 C511 0.958 . S
H526 C511 0.961 . S
H527 C511 0.960 . S
C528 C529 1.391 . S
C528 C530 1.394 . S
C528 H544 0.931 . S
C529 C528 1.391 . S
C529 C533 1.376 . S
C530 C528 1.394 . S
C530 C531 1.369 . S
C530 C534 1.531 . S
C531 C530 1.369 . S
C531 C532 1.410 1_554 S
C531 C539 1.503 1_554 S
C532 C531 1.410 1_556 S
C532 C533 1.392 1_556 S
C532 C535 1.511 . S
C533 C529 1.376 . S
C533 C532 1.392 1_554 S
C533 H545 0.929 . S
C534 C530 1.531 . S
C534 H546 0.960 . S
C534 H547 0.962 . S
C534 H548 0.960 . S
C535 C532 1.511 . S
C535 H549 0.961 . S
C535 H550 0.961 . S
C535 H551 0.961 . S
C536 C537 1.370 . S
C536 C538 1.363 . S
C536 H552 0.931 . S
C537 C536 1.370 . S
C537 C541 1.408 . S
C538 C536 1.363 . S
C538 C539 1.370 . S
C538 C542 1.524 1_556 S
C539 C531 1.503 1_556 S
C539 C538 1.370 . S
C539 C540 1.403 . S
C540 C539 1.403 . S
C540 C541 1.404 . S
C540 C543 1.539 . S
C541 C537 1.408 . S
C541 C540 1.404 . S
C541 H553 0.930 . S
C542 C538 1.524 1_554 S
C542 H554 0.956 . S
C542 H555 0.961 . S
C542 H556 0.961 . S
C543 C540 1.539 . S
C543 H557 0.958 . S
C543 H558 0.961 . S
C543 H559 0.960 . S
H544 C528 0.931 . S
H545 C533 0.929 . S
H546 C534 0.960 . S
H547 C534 0.962 . S
H548 C534 0.960 . S
H549 C535 0.961 . S
H550 C535 0.961 . S
H551 C535 0.961 . S
H552 C536 0.931 . S
H553 C541 0.930 . S
H554 C542 0.956 . S
H555 C542 0.961 . S
H556 C542 0.961 . S
H557 C543 0.958 . S
H558 C543 0.961 . S
H559 C543 0.960 . S
C560 C561 1.391 . S
C560 C562 1.394 . S
C560 H576 0.931 . S
C561 C560 1.391 . S
C561 C565 1.376 . S
C562 C560 1.394 . S
C562 C563 1.369 . S
C562 C566 1.531 . S
C563 C562 1.369 . S
C563 C564 1.410 1_655 S
C563 C571 1.503 1_655 S
C564 C563 1.410 1_455 S
C564 C565 1.392 1_455 S
C564 C567 1.511 . S
C565 C561 1.376 . S
C565 C564 1.392 1_655 S
C565 H577 0.929 . S
C566 C562 1.531 . S
C566 H578 0.960 . S
C566 H579 0.962 . S
C566 H580 0.960 . S
C567 C564 1.511 . S
C567 H581 0.961 . S
C567 H582 0.961 . S
C567 H583 0.961 . S
C568 C569 1.370 . S
C568 C570 1.363 . S
C568 H584 0.931 . S
C569 C568 1.370 . S
C569 C573 1.408 . S
C570 C568 1.363 . S
C570 C571 1.370 . S
C570 C574 1.524 1_455 S
C571 C563 1.503 1_455 S
C571 C570 1.370 . S
C571 C572 1.403 . S
C572 C571 1.403 . S
C572 C573 1.404 . S
C572 C575 1.539 . S
C573 C569 1.408 . S
C573 C572 1.404 . S
C573 H585 0.930 . S
C574 C570 1.524 1_655 S
C574 H586 0.956 . S
C574 H587 0.961 . S
C574 H588 0.961 . S
C575 C572 1.539 . S
C575 H589 0.958 . S
C575 H590 0.961 . S
C575 H591 0.960 . S
H576 C560 0.931 . S
H577 C565 0.929 . S
H578 C566 0.960 . S
H579 C566 0.962 . S
H580 C566 0.960 . S
H581 C567 0.961 . S
H582 C567 0.961 . S
H583 C567 0.961 . S
H584 C568 0.931 . S
H585 C573 0.930 . S
H586 C574 0.956 . S
H587 C574 0.961 . S
H588 C574 0.961 . S
H589 C575 0.958 . S
H590 C575 0.961 . S
H591 C575 0.960 . S
C592 C593 1.391 . S
C592 C594 1.394 1_455 S
C592 H608 0.931 . S
C593 C592 1.391 . S
C593 C597 1.376 . S
C594 C592 1.394 1_655 S
C594 C595 1.369 1_655 S
C594 C598 1.530 1_554 S
C595 C594 1.369 1_455 S
C595 C596 1.410 . S
C595 C603 1.503 1_464 S
C596 C595 1.410 . S
C596 C597 1.392 . S
C596 C599 1.511 1_565 S
C597 C593 1.376 . S
C597 C596 1.392 . S
C597 H609 0.929 . S
C598 C594 1.530 1_556 S
C598 H610 0.960 1_556 S
C598 H611 0.964 . S
C598 H612 0.960 1_556 S
C599 C596 1.511 1_545 S
C599 H613 0.961 . S
C599 H614 0.961 . S
C599 H615 0.961 . S
C600 C601 1.370 . S
C600 C602 1.363 . S
C600 H616 0.931 . S
C601 C600 1.370 . S
C601 C605 1.408 . S
C602 C600 1.363 . S
C602 C603 1.370 . S
C602 C606 1.524 1_645 S
C603 C595 1.503 1_646 S
C603 C602 1.370 . S
C603 C604 1.403 1_556 S
C604 C603 1.403 1_554 S
C604 C605 1.404 1_554 S
C604 C607 1.539 . S
C605 C601 1.408 . S
C605 C604 1.404 1_556 S
C605 H617 0.930 . S
C606 C602 1.524 1_465 S
C606 H618 0.956 . S
C606 H619 0.965 . S
C606 H620 0.961 1_565 S
C607 C604 1.539 . S
C607 H621 0.958 . S
C607 H622 0.961 . S
C607 H623 0.960 . S
H608 C592 0.931 . S
H609 C597 0.929 . S
H610 C598 0.960 1_554 S
H611 C598 0.964 . S
H612 C598 0.960 1_554 S
H613 C599 0.961 . S
H614 C599 0.961 . S
H615 C599 0.961 . S
H616 C600 0.931 . S
H617 C605 0.930 . S
H618 C606 0.956 . S
H619 C606 0.965 . S
H620 C606 0.961 1_545 S
H621 C607 0.958 . S
H622 C607 0.961 . S
H623 C607 0.960 . S
C624 C625 1.391 . S
C624 C626 1.394 . S
C624 H640 0.931 . S
C625 C624 1.391 . S
C625 C629 1.376 . S
C626 C624 1.394 . S
C626 C627 1.369 . S
C626 C630 1.531 . S
C627 C626 1.369 . S
C627 C628 1.410 . S
C627 C635 1.503 1_545 S
C628 C627 1.410 . S
C628 C629 1.392 . S
C628 C631 1.511 1_545 S
C629 C625 1.376 . S
C629 C628 1.392 . S
C629 H641 0.929 . S
C630 C626 1.531 . S
C630 H642 0.960 . S
C630 H643 0.962 . S
C630 H644 0.960 . S
C631 C628 1.511 1_565 S
C631 H645 0.961 . S
C631 H646 0.961 . S
C631 H647 0.961 . S
C632 C633 1.370 . S
C632 C634 1.363 . S
C632 H648 0.931 . S
C633 C632 1.370 . S
C633 C637 1.408 . S
C634 C632 1.363 . S
C634 C635 1.370 . S
C634 C638 1.524 . S
C635 C627 1.503 1_565 S
C635 C634 1.370 . S
C635 C636 1.403 . S
C636 C635 1.403 . S
C636 C637 1.404 . S
C636 C639 1.539 1_565 S
C637 C633 1.408 . S
C637 C636 1.404 . S
C637 H649 0.930 . S
C638 C634 1.524 . S
C638 H650 0.956 . S
C638 H651 0.961 . S
C638 H652 0.961 . S
C639 C636 1.539 1_545 S
C639 H653 0.958 . S
C639 H654 0.961 . S
C639 H655 0.960 . S
H640 C624 0.931 . S
H641 C629 0.929 . S
H642 C630 0.960 . S
H643 C630 0.962 . S
H644 C630 0.960 . S
H645 C631 0.961 . S
H646 C631 0.961 . S
H647 C631 0.961 . S
H648 C632 0.931 . S
H649 C637 0.930 . S
H650 C638 0.956 . S
H651 C638 0.961 . S
H652 C638 0.961 . S
H653 C639 0.958 . S
H654 C639 0.961 . S
H655 C639 0.960 . S
C656 C657 1.391 . S
C656 C658 1.394 . S
C656 H672 0.931 . S
C657 C656 1.391 . S
C657 C661 1.376 . S
C658 C656 1.394 . S
C658 C659 1.369 . S
C658 C662 1.531 1_556 S
C659 C658 1.369 . S
C659 C660 1.410 . S
C659 C667 1.503 . S
C660 C659 1.410 . S
C660 C661 1.392 . S
C660 C663 1.511 . S
C661 C657 1.376 . S
C661 C660 1.392 . S
C661 H673 0.929 . S
C662 C658 1.531 1_554 S
C662 H674 0.960 . S
C662 H675 0.962 . S
C662 H676 0.960 . S
C663 C660 1.511 . S
C663 H677 0.961 . S
C663 H678 0.961 . S
C663 H679 0.961 . S
C664 C665 1.370 . S
C664 C666 1.363 1_554 S
C664 H680 0.931 . S
C665 C664 1.370 . S
C665 C669 1.408 . S
C666 C664 1.363 1_556 S
C666 C667 1.370 . S
C666 C670 1.524 . S
C667 C659 1.503 . S
C667 C666 1.370 . S
C667 C668 1.403 . S
C668 C667 1.403 . S
C668 C669 1.404 1_556 S
C668 C671 1.539 . S
C669 C665 1.408 . S
C669 C668 1.404 1_554 S
C669 H681 0.930 . S
C670 C666 1.524 . S
C670 H682 0.956 . S
C670 H683 0.961 . S
C670 H684 0.961 . S
C671 C668 1.539 . S
C671 H685 0.958 1_556 S
C671 H686 0.961 . S
C671 H687 0.960 . S
H672 C656 0.931 . S
H673 C661 0.929 . S
H674 C662 0.960 . S
H675 C662 0.962 . S
H676 C662 0.960 . S
H677 C663 0.961 . S
H678 C663 0.961 . S
H679 C663 0.961 . S
H680 C664 0.931 . S
H681 C669 0.930 . S
H682 C670 0.956 . S
H683 C670 0.961 . S
H684 C670 0.961 . S
H685 C671 0.958 1_554 S
H686 C671 0.961 . S
H687 C671 0.960 . S
C688 C689 1.391 . S
C688 C690 1.394 . S
C688 H704 0.931 . S
C689 C688 1.391 . S
C689 C693 1.376 . S
C690 C688 1.394 . S
C690 C691 1.369 . S
C690 C694 1.531 . S
C691 C690 1.369 . S
C691 C692 1.410 . S
C691 C699 1.503 . S
C692 C691 1.410 . S
C692 C693 1.392 . S
C692 C695 1.511 . S
C693 C689 1.376 . S
C693 C692 1.392 . S
C693 H705 0.929 . S
C694 C690 1.531 . S
C694 H706 0.960 . S
C694 H707 0.962 . S
C694 H708 0.960 . S
C695 C692 1.511 . S
C695 H709 0.961 . S
C695 H710 0.961 . S
C695 H711 0.961 . S
C696 C697 1.370 . S
C696 C698 1.363 . S
C696 H712 0.931 . S
C697 C696 1.370 . S
C697 C701 1.408 . S
C698 C696 1.363 . S
C698 C699 1.370 . S
C698 C702 1.524 . S
C699 C691 1.503 . S
C699 C698 1.370 . S
C699 C700 1.403 . S
C700 C699 1.403 . S
C700 C701 1.404 . S
C700 C703 1.539 . S
C701 C697 1.408 . S
C701 C700 1.404 . S
C701 H713 0.930 . S
C702 C698 1.524 . S
C702 H714 0.956 . S
C702 H715 0.961 . S
C702 H716 0.961 . S
C703 C700 1.539 . S
C703 H717 0.958 1_455 S
C703 H718 0.961 1_455 S
C703 H719 0.960 . S
H704 C688 0.931 . S
H705 C693 0.929 . S
H706 C694 0.960 . S
H707 C694 0.962 . S
H708 C694 0.960 . S
H709 C695 0.961 . S
H710 C695 0.961 . S
H711 C695 0.961 . S
H712 C696 0.931 . S
H713 C701 0.930 . S
H714 C702 0.956 . S
H715 C702 0.961 . S
H716 C702 0.961 . S
H717 C703 0.958 1_655 S
H718 C703 0.961 1_655 S
H719 C703 0.960 . S
C720 C721 1.391 1_554 S
C720 C722 1.394 . S
C720 H736 0.931 . S
C721 C720 1.391 1_556 S
C721 C725 1.376 . S
C722 C720 1.394 . S
C722 C723 1.369 . S
C722 C726 1.531 . S
C723 C722 1.369 . S
C723 C724 1.410 . S
C723 C731 1.503 . S
C724 C723 1.410 . S
C724 C725 1.392 1_554 S
C724 C727 1.511 . S
C725 C721 1.376 . S
C725 C724 1.392 1_556 S
C725 H737 0.929 . S
C726 C722 1.531 . S
C726 H738 0.960 . S
C726 H739 0.962 . S
C726 H740 0.960 . S
C727 C724 1.511 . S
C727 H741 0.961 1_554 S
C727 H742 0.961 . S
C727 H743 0.961 1_655 S
C728 C729 1.370 . S
C728 C730 1.363 . S
C728 H744 0.931 . S
C729 C728 1.370 . S
C729 C733 1.408 . S
C730 C728 1.363 . S
C730 C731 1.370 . S
C730 C734 1.524 . S
C731 C723 1.503 . S
C731 C730 1.370 . S
C731 C732 1.403 . S
C732 C731 1.403 . S
C732 C733 1.404 . S
C732 C735 1.539 . S
C733 C729 1.408 . S
C733 C732 1.404 . S
C733 H745 0.930 . S
C734 C730 1.524 . S
C734 H746 0.956 1_554 S
C734 H747 0.961 1_554 S
C734 H748 0.961 1_554 S
C735 C732 1.539 . S
C735 H749 0.958 . S
C735 H750 0.961 . S
C735 H751 0.960 . S
H736 C720 0.931 . S
H737 C725 0.929 . S
H738 C726 0.960 . S
H739 C726 0.962 . S
H740 C726 0.960 . S
H741 C727 0.961 1_556 S
H742 C727 0.961 . S
H743 C727 0.961 1_455 S
H744 C728 0.931 . S
H745 C733 0.930 . S
H746 C734 0.956 1_556 S
H747 C734 0.961 1_556 S
H748 C734 0.961 1_556 S
H749 C735 0.958 . S
H750 C735 0.961 . S
H751 C735 0.960 . S
C752 C753 1.391 . S
C752 C754 1.394 . S
C752 H768 0.931 . S
C753 C752 1.391 . S
C753 C757 1.376 . S
C754 C752 1.394 . S
C754 C755 1.369 . S
C754 C758 1.531 . S
C755 C754 1.369 . S
C755 C756 1.410 . S
C755 C763 1.503 . S
C756 C755 1.410 . S
C756 C757 1.392 . S
C756 C759 1.511 . S
C757 C753 1.376 . S
C757 C756 1.392 . S
C757 H769 0.929 . S
C758 C754 1.531 . S
C758 H770 0.960 . S
C758 H771 0.962 . S
C758 H772 0.960 . S
C759 C756 1.511 . S
C759 H773 0.961 . S
C759 H774 0.961 . S
C759 H775 0.961 . S
C760 C761 1.370 . S
C760 C762 1.363 . S
C760 H776 0.931 . S
C761 C760 1.370 . S
C761 C765 1.408 . S
C762 C760 1.363 . S
C762 C763 1.370 . S
C762 C766 1.524 . S
C763 C755 1.503 . S
C763 C762 1.370 . S
C763 C764 1.403 . S
C764 C763 1.403 . S
C764 C765 1.404 . S
C764 C767 1.539 . S
C765 C761 1.408 . S
C765 C764 1.404 . S
C765 H777 0.930 . S
C766 C762 1.524 . S
C766 H778 0.956 . S
C766 H779 0.961 . S
C766 H780 0.961 . S
C767 C764 1.539 . S
C767 H781 0.958 . S
C767 H782 0.961 . S
C767 H783 0.960 . S
H768 C752 0.931 . S
H769 C757 0.929 . S
H770 C758 0.960 . S
H771 C758 0.962 . S
H772 C758 0.960 . S
H773 C759 0.961 . S
H774 C759 0.961 . S
H775 C759 0.961 . S
H776 C760 0.931 . S
H777 C765 0.930 . S
H778 C766 0.956 . S
H779 C766 0.961 . S
H780 C766 0.961 . S
H781 C767 0.958 . S
H782 C767 0.961 . S
H783 C767 0.960 . S
C784 C785 1.382 1_554 S
C784 C786 1.401 . S
C784 H800 0.932 . S
C785 C784 1.382 1_556 S
C785 C789 1.376 . S
C786 C784 1.401 . S
C786 C787 1.369 . S
C786 C790 1.531 . S
C787 C786 1.369 . S
C787 C788 1.410 1_554 S
C787 C795 1.503 . S
C788 C787 1.410 1_556 S
C788 C789 1.392 . S
C788 C791 1.511 . S
C789 C785 1.376 . S
C789 C788 1.392 . S
C789 H801 0.929 . S
C790 C786 1.531 . S
C790 H802 0.960 . S
C790 H803 0.962 . S
C790 H804 0.960 . S
C791 C788 1.511 . S
C791 H805 0.961 . S
C791 H806 0.961 1_556 S
C791 H807 0.961 . S
C792 C793 1.370 . S
C792 C794 1.363 . S
C792 H808 0.931 . S
C793 C792 1.370 . S
C793 C797 1.408 . S
C794 C792 1.363 . S
C794 C795 1.370 . S
C794 C798 1.524 . S
C795 C787 1.503 . S
C795 C794 1.370 . S
C795 C796 1.403 . S
C796 C795 1.403 . S
C796 C797 1.404 . S
C796 C799 1.539 . S
C797 C793 1.408 . S
C797 C796 1.404 . S
C797 H809 0.930 . S
C798 C794 1.524 . S
C798 H810 0.956 . S
C798 H811 0.961 . S
C798 H812 0.961 . S
C799 C796 1.539 . S
C799 H813 0.958 . S
C799 H814 0.961 1_554 S
C799 H815 0.960 1_554 S
H800 C784 0.932 . S
H801 C789 0.929 . S
H802 C790 0.960 . S
H803 C790 0.962 . S
H804 C790 0.960 . S
H805 C791 0.961 . S
H806 C791 0.961 1_554 S
H807 C791 0.961 . S
H808 C792 0.931 . S
H809 C797 0.930 . S
H810 C798 0.956 . S
H811 C798 0.961 . S
H812 C798 0.961 . S
H813 C799 0.958 . S
H814 C799 0.961 1_556 S
H815 C799 0.960 1_556 S
C816 C817 1.391 . S
C816 C818 1.394 . S
C816 H832 0.931 . S
C817 C816 1.391 . S
C817 C821 1.376 . S
C818 C816 1.394 . S
C818 C819 1.369 . S
C818 C822 1.531 . S
C819 C818 1.369 . S
C819 C820 1.410 . S
C819 C827 1.503 . S
C820 C819 1.410 . S
C820 C821 1.392 . S
C820 C823 1.511 . S
C821 C817 1.376 . S
C821 C820 1.392 . S
C821 H833 0.929 . S
C822 C818 1.531 . S
C822 H834 0.960 . S
C822 H835 0.962 . S
C822 H836 0.960 1_655 S
C823 C820 1.511 . S
C823 H837 0.961 . S
C823 H838 0.961 . S
C823 H839 0.961 . S
C824 C825 1.370 . S
C824 C826 1.363 . S
C824 H840 0.931 . S
C825 C824 1.370 . S
C825 C829 1.408 . S
C826 C824 1.363 . S
C826 C827 1.370 . S
C826 C830 1.524 . S
C827 C819 1.503 . S
C827 C826 1.370 . S
C827 C828 1.403 . S
C828 C827 1.403 . S
C828 C829 1.404 . S
C828 C831 1.539 . S
C829 C825 1.408 . S
C829 C828 1.404 . S
C829 H841 0.930 . S
C830 C826 1.524 . S
C830 H842 0.956 . S
C830 H843 0.961 . S
C830 H844 0.961 . S
C831 C828 1.539 . S
C831 H845 0.958 . S
C831 H846 0.961 . S
C831 H847 0.960 . S
H832 C816 0.931 . S
H833 C821 0.929 . S
H834 C822 0.960 . S
H835 C822 0.962 . S
H836 C822 0.960 1_455 S
H837 C823 0.961 . S
H838 C823 0.961 . S
H839 C823 0.961 . S
H840 C824 0.931 . S
H841 C829 0.930 . S
H842 C830 0.956 . S
H843 C830 0.961 . S
H844 C830 0.961 . S
H845 C831 0.958 . S
H846 C831 0.961 . S
H847 C831 0.960 . S
C848 C849 1.391 . S
C848 C850 1.394 . S
C848 H864 0.931 . S
C849 C848 1.391 . S
C849 C853 1.376 . S
C850 C848 1.394 . S
C850 C851 1.369 . S
C850 C854 1.531 . S
C851 C850 1.369 . S
C851 C852 1.410 . S
C851 C859 1.503 . S
C852 C851 1.410 . S
C852 C853 1.392 . S
C852 C855 1.511 . S
C853 C849 1.376 . S
C853 C852 1.392 . S
C853 H865 0.929 . S
C854 C850 1.531 . S
C854 H866 0.960 . S
C854 H867 0.962 . S
C854 H868 0.960 . S
C855 C852 1.511 . S
C855 H869 0.961 . S
C855 H870 0.961 . S
C855 H871 0.961 . S
C856 C857 1.370 1_556 S
C856 C858 1.363 . S
C856 H872 0.931 . S
C857 C856 1.370 1_554 S
C857 C861 1.408 . S
C858 C856 1.363 . S
C858 C859 1.370 . S
C858 C862 1.524 . S
C859 C851 1.503 . S
C859 C858 1.370 . S
C859 C860 1.403 1_556 S
C860 C859 1.403 1_554 S
C860 C861 1.404 . S
C860 C863 1.539 . S
C861 C857 1.408 . S
C861 C860 1.404 . S
C861 H873 0.930 . S
C862 C858 1.524 . S
C862 H874 0.956 . S
C862 H875 0.961 . S
C862 H876 0.961 . S
C863 C860 1.539 . S
C863 H877 0.958 . S
C863 H878 0.961 . S
C863 H879 0.960 . S
H864 C848 0.931 . S
H865 C853 0.929 . S
H866 C854 0.960 . S
H867 C854 0.962 . S
H868 C854 0.960 . S
H869 C855 0.961 . S
H870 C855 0.961 . S
H871 C855 0.961 . S
H872 C856 0.931 . S
H873 C861 0.930 . S
H874 C862 0.956 . S
H875 C862 0.961 . S
H876 C862 0.961 . S
H877 C863 0.958 . S
H878 C863 0.961 . S
H879 C863 0.960 . S
C880 C881 1.391 . S
C880 C882 1.394 . S
C880 H896 0.931 . S
C881 C880 1.391 . S
C881 C885 1.376 . S
C882 C880 1.394 . S
C882 C883 1.369 . S
C882 C886 1.531 . S
C883 C882 1.369 . S
C883 C884 1.410 . S
C883 C891 1.503 . S
C884 C883 1.410 . S
C884 C885 1.392 . S
C884 C887 1.511 . S
C885 C881 1.376 . S
C885 C884 1.392 . S
C885 H897 0.929 . S
C886 C882 1.531 . S
C886 H898 0.960 . S
C886 H899 0.962 . S
C886 H900 0.960 . S
C887 C884 1.511 . S
C887 H901 0.961 . S
C887 H902 0.961 . S
C887 H903 0.961 . S
C888 C889 1.370 . S
C888 C890 1.363 . S
C888 H904 0.931 . S
C889 C888 1.370 . S
C889 C893 1.408 . S
C890 C888 1.363 . S
C890 C891 1.370 . S
C890 C894 1.524 . S
C891 C883 1.503 . S
C891 C890 1.370 . S
C891 C892 1.403 . S
C892 C891 1.403 . S
C892 C893 1.404 . S
C892 C895 1.539 . S
C893 C889 1.408 . S
C893 C892 1.404 . S
C893 H905 0.930 . S
C894 C890 1.524 . S
C894 H906 0.956 . S
C894 H907 0.961 . S
C894 H908 0.961 . S
C895 C892 1.539 . S
C895 H909 0.958 . S
C895 H910 0.961 . S
C895 H911 0.960 . S
H896 C880 0.931 . S
H897 C885 0.929 . S
H898 C886 0.960 . S
H899 C886 0.962 . S
H900 C886 0.960 . S
H901 C887 0.961 . S
H902 C887 0.961 . S
H903 C887 0.961 . S
H904 C888 0.931 . S
H905 C893 0.930 . S
H906 C894 0.956 . S
H907 C894 0.961 . S
H908 C894 0.961 . S
H909 C895 0.958 . S
H910 C895 0.961 . S
H911 C895 0.960 . S
C912 C913 1.391 . S
C912 C914 1.394 . S
C912 H928 0.931 . S
C913 C912 1.391 . S
C913 C917 1.376 . S
C914 C912 1.394 . S
C914 C915 1.369 . S
C914 C918 1.531 . S
C915 C914 1.369 . S
C915 C916 1.410 . S
C915 C923 1.503 . S
C916 C915 1.410 . S
C916 C917 1.392 . S
C916 C919 1.511 . S
C917 C913 1.376 . S
C917 C916 1.392 . S
C917 H929 0.929 . S
C918 C914 1.531 . S
C918 H930 0.960 . S
C918 H931 0.962 . S
C918 H932 0.960 . S
C919 C916 1.511 . S
C919 H933 0.961 . S
C919 H934 0.961 . S
C919 H935 0.961 . S
C920 C921 1.370 . S
C920 C922 1.363 . S
C920 H936 0.931 . S
C921 C920 1.370 . S
C921 C925 1.408 . S
C922 C920 1.363 . S
C922 C923 1.370 . S
C922 C926 1.524 . S
C923 C915 1.503 . S
C923 C922 1.370 . S
C923 C924 1.403 . S
C924 C923 1.403 . S
C924 C925 1.404 . S
C924 C927 1.539 . S
C925 C921 1.408 . S
C925 C924 1.404 . S
C925 H937 0.930 . S
C926 C922 1.524 . S
C926 H938 0.956 . S
C926 H939 0.961 . S
C926 H940 0.961 . S
C927 C924 1.539 . S
C927 H941 0.958 . S
C927 H942 0.961 . S
C927 H943 0.960 . S
H928 C912 0.931 . S
H929 C917 0.929 . S
H930 C918 0.960 . S
H931 C918 0.962 . S
H932 C918 0.960 . S
H933 C919 0.961 . S
H934 C919 0.961 . S
H935 C919 0.961 . S
H936 C920 0.931 . S
H937 C925 0.930 . S
H938 C926 0.956 . S
H939 C926 0.961 . S
H940 C926 0.961 . S
H941 C927 0.958 . S
H942 C927 0.961 . S
H943 C927 0.960 . S
C944 C945 1.391 . S
C944 C946 1.394 . S
C944 H960 0.931 . S
C945 C944 1.391 . S
C945 C949 1.376 . S
C946 C944 1.394 . S
C946 C947 1.369 . S
C946 C950 1.531 . S
C947 C946 1.369 . S
C947 C948 1.410 . S
C947 C955 1.503 . S
C948 C947 1.410 . S
C948 C949 1.392 . S
C948 C951 1.511 . S
C949 C945 1.376 . S
C949 C948 1.392 . S
C949 H961 0.929 . S
C950 C946 1.531 . S
C950 H962 0.960 . S
C950 H963 0.962 . S
C950 H964 0.960 . S
C951 C948 1.511 . S
C951 H965 0.961 . S
C951 H966 0.961 . S
C951 H967 0.961 . S
C952 C953 1.370 . S
C952 C954 1.363 . S
C952 H968 0.931 . S
C953 C952 1.370 . S
C953 C957 1.408 . S
C954 C952 1.363 . S
C954 C955 1.370 . S
C954 C958 1.524 . S
C955 C947 1.503 . S
C955 C954 1.370 . S
C955 C956 1.403 . S
C956 C955 1.403 . S
C956 C957 1.404 . S
C956 C959 1.539 . S
C957 C953 1.408 . S
C957 C956 1.404 . S
C957 H969 0.930 . S
C958 C954 1.524 . S
C958 H970 0.956 . S
C958 H971 0.961 . S
C958 H972 0.961 . S
C959 C956 1.539 . S
C959 H973 0.958 . S
C959 H974 0.961 . S
C959 H975 0.960 . S
H960 C944 0.931 . S
H961 C949 0.929 . S
H962 C950 0.960 . S
H963 C950 0.962 . S
H964 C950 0.960 . S
H965 C951 0.961 . S
H966 C951 0.961 . S
H967 C951 0.961 . S
H968 C952 0.931 . S
H969 C957 0.930 . S
H970 C958 0.956 . S
H971 C958 0.961 . S
H972 C958 0.961 . S
H973 C959 0.958 . S
H974 C959 0.961 . S
H975 C959 0.960 . S
C976 C977 1.391 . S
C976 C978 1.394 . S
C976 H992 0.931 . S
C977 C976 1.391 . S
C977 C981 1.376 . S
C978 C976 1.394 . S
C978 C979 1.369 . S
C978 C982 1.531 . S
C979 C978 1.369 . S
C979 C980 1.410 . S
C979 C987 1.503 . S
C980 C979 1.410 . S
C980 C981 1.392 . S
C980 C983 1.511 . S
C981 C977 1.376 . S
C981 C980 1.392 . S
C981 H993 0.929 . S
C982 C978 1.531 . S
C982 H994 0.960 . S
C982 H995 0.962 . S
C982 H996 0.960 . S
C983 C980 1.511 . S
C983 H997 0.961 . S
C983 H998 0.961 . S
C983 H999 0.961 . S
C984 C985 1.370 . S
C984 C986 1.363 . S
C984 H1000 0.931 . S
C985 C984 1.370 . S
C985 C989 1.408 . S
C986 C984 1.363 . S
C986 C987 1.370 . S
C986 C990 1.524 . S
C987 C979 1.503 . S
C987 C986 1.370 . S
C987 C988 1.403 . S
C988 C987 1.403 . S
C988 C989 1.404 . S
C988 C991 1.539 . S
C989 C985 1.408 . S
C989 C988 1.404 . S
C989 H1001 0.930 . S
C990 C986 1.524 . S
C990 H1002 0.956 . S
C990 H1003 0.961 . S
C990 H1004 0.961 . S
C991 C988 1.539 . S
C991 H1005 0.958 . S
C991 H1006 0.961 . S
C991 H1007 0.960 . S
H992 C976 0.931 . S
H993 C981 0.929 . S
H994 C982 0.960 . S
H995 C982 0.962 . S
H996 C982 0.960 . S
H997 C983 0.961 . S
H998 C983 0.961 . S
H999 C983 0.961 . S
H1000 C984 0.931 . S
H1001 C989 0.930 . S
H1002 C990 0.956 . S
H1003 C990 0.961 . S
H1004 C990 0.961 . S
H1005 C991 0.958 . S
H1006 C991 0.961 . S
H1007 C991 0.960 . S
C1008 C1009 1.391 . S
C1008 C1010 1.394 . S
C1008 H1024 0.931 . S
C1009 C1008 1.391 . S
C1009 C1013 1.376 . S
C1010 C1008 1.394 . S
C1010 C1011 1.369 . S
C1010 C1014 1.531 . S
C1011 C1010 1.369 . S
C1011 C1012 1.410 . S
C1011 C1019 1.503 . S
C1012 C1011 1.410 . S
C1012 C1013 1.392 . S
C1012 C1015 1.511 . S
C1013 C1009 1.376 . S
C1013 C1012 1.392 . S
C1013 H1025 0.929 . S
C1014 C1010 1.531 . S
C1014 H1026 0.960 . S
C1014 H1027 0.962 . S
C1014 H1028 0.960 . S
C1015 C1012 1.511 . S
C1015 H1029 0.961 . S
C1015 H1030 0.961 . S
C1015 H1031 0.961 . S
C1016 C1017 1.370 . S
C1016 C1018 1.363 . S
C1016 H1032 0.931 . S
C1017 C1016 1.370 . S
C1017 C1021 1.408 . S
C1018 C1016 1.363 . S
C1018 C1019 1.370 . S
C1018 C1022 1.524 . S
C1019 C1011 1.503 . S
C1019 C1018 1.370 . S
C1019 C1020 1.403 . S
C1020 C1019 1.403 . S
C1020 C1021 1.404 . S
C1020 C1023 1.539 . S
C1021 C1017 1.408 . S
C1021 C1020 1.404 . S
C1021 H1033 0.930 . S
C1022 C1018 1.524 . S
C1022 H1034 0.956 . S
C1022 H1035 0.961 . S
C1022 H1036 0.961 . S
C1023 C1020 1.539 . S
C1023 H1037 0.958 . S
C1023 H1038 0.961 . S
C1023 H1039 0.960 . S
H1024 C1008 0.931 . S
H1025 C1013 0.929 . S
H1026 C1014 0.960 . S
H1027 C1014 0.962 . S
H1028 C1014 0.960 . S
H1029 C1015 0.961 . S
H1030 C1015 0.961 . S
H1031 C1015 0.961 . S
H1032 C1016 0.931 . S
H1033 C1021 0.930 . S
H1034 C1022 0.956 . S
H1035 C1022 0.961 . S
H1036 C1022 0.961 . S
H1037 C1023 0.958 . S
H1038 C1023 0.961 . S
H1039 C1023 0.960 . S
C1040 C1041 1.391 . S
C1040 C1042 1.394 . S
C1040 H1056 0.931 . S
C1041 C1040 1.391 . S
C1041 C1045 1.376 . S
C1042 C1040 1.394 . S
C1042 C1043 1.369 . S
C1042 C1046 1.531 . S
C1043 C1042 1.369 . S
C1043 C1044 1.410 . S
C1043 C1051 1.503 . S
C1044 C1043 1.410 . S
C1044 C1045 1.392 . S
C1044 C1047 1.511 . S
C1045 C1041 1.376 . S
C1045 C1044 1.392 . S
C1045 H1057 0.929 . S
C1046 C1042 1.531 . S
C1046 H1058 0.960 . S
C1046 H1059 0.962 . S
C1046 H1060 0.960 . S
C1047 C1044 1.511 . S
C1047 H1061 0.961 . S
C1047 H1062 0.961 . S
C1047 H1063 0.961 . S
C1048 C1049 1.370 . S
C1048 C1050 1.363 . S
C1048 H1064 0.931 . S
C1049 C1048 1.370 . S
C1049 C1053 1.408 . S
C1050 C1048 1.363 . S
C1050 C1051 1.370 . S
C1050 C1054 1.524 . S
C1051 C1043 1.503 . S
C1051 C1050 1.370 . S
C1051 C1052 1.403 . S
C1052 C1051 1.403 . S
C1052 C1053 1.404 . S
C1052 C1055 1.539 . S
C1053 C1049 1.408 . S
C1053 C1052 1.404 . S
C1053 H1065 0.930 . S
C1054 C1050 1.524 . S
C1054 H1066 0.956 . S
C1054 H1067 0.961 . S
C1054 H1068 0.961 . S
C1055 C1052 1.539 . S
C1055 H1069 0.958 . S
C1055 H1070 0.961 . S
C1055 H1071 0.960 . S
H1056 C1040 0.931 . S
H1057 C1045 0.929 . S
H1058 C1046 0.960 . S
H1059 C1046 0.962 . S
H1060 C1046 0.960 . S
H1061 C1047 0.961 . S
H1062 C1047 0.961 . S
H1063 C1047 0.961 . S
H1064 C1048 0.931 . S
H1065 C1053 0.930 . S
H1066 C1054 0.956 . S
H1067 C1054 0.961 . S
H1068 C1054 0.961 . S
H1069 C1055 0.958 . S
H1070 C1055 0.961 . S
H1071 C1055 0.960 . S
C1072 C1073 1.391 . S
C1072 C1074 1.394 . S
C1072 H1088 0.931 . S
C1073 C1072 1.391 . S
C1073 C1077 1.376 . S
C1074 C1072 1.394 . S
C1074 C1075 1.369 . S
C1074 C1078 1.531 . S
C1075 C1074 1.369 . S
C1075 C1076 1.410 . S
C1075 C1083 1.503 . S
C1076 C1075 1.410 . S
C1076 C1077 1.392 . S
C1076 C1079 1.511 . S
C1077 C1073 1.376 . S
C1077 C1076 1.392 . S
C1077 H1089 0.929 . S
C1078 C1074 1.531 . S
C1078 H1090 0.960 . S
C1078 H1091 0.962 . S
C1078 H1092 0.960 . S
C1079 C1076 1.511 . S
C1079 H1093 0.961 . S
C1079 H1094 0.961 . S
C1079 H1095 0.961 . S
C1080 C1081 1.370 . S
C1080 C1082 1.363 . S
C1080 H1096 0.931 . S
C1081 C1080 1.370 . S
C1081 C1085 1.408 . S
C1082 C1080 1.363 . S
C1082 C1083 1.370 . S
C1082 C1086 1.524 . S
C1083 C1075 1.503 . S
C1083 C1082 1.370 . S
C1083 C1084 1.403 . S
C1084 C1083 1.403 . S
C1084 C1085 1.404 . S
C1084 C1087 1.539 . S
C1085 C1081 1.408 . S
C1085 C1084 1.404 . S
C1085 H1097 0.930 . S
C1086 C1082 1.524 . S
C1086 H1098 0.956 . S
C1086 H1099 0.961 . S
C1086 H1100 0.961 . S
C1087 C1084 1.539 . S
C1087 H1101 0.958 . S
C1087 H1102 0.961 . S
C1087 H1103 0.960 . S
H1088 C1072 0.931 . S
H1089 C1077 0.929 . S
H1090 C1078 0.960 . S
H1091 C1078 0.962 . S
H1092 C1078 0.960 . S
H1093 C1079 0.961 . S
H1094 C1079 0.961 . S
H1095 C1079 0.961 . S
H1096 C1080 0.931 . S
H1097 C1085 0.930 . S
H1098 C1086 0.956 . S
H1099 C1086 0.961 . S
H1100 C1086 0.961 . S
H1101 C1087 0.958 . S
H1102 C1087 0.961 . S
H1103 C1087 0.960 . S
C1104 C1105 1.391 . S
C1104 C1106 1.394 . S
C1104 H1120 0.931 . S
C1105 C1104 1.391 . S
C1105 C1109 1.376 . S
C1106 C1104 1.394 . S
C1106 C1107 1.369 . S
C1106 C1110 1.531 . S
C1107 C1106 1.369 . S
C1107 C1108 1.410 . S
C1107 C1115 1.503 . S
C1108 C1107 1.410 . S
C1108 C1109 1.392 . S
C1108 C1111 1.511 . S
C1109 C1105 1.376 . S
C1109 C1108 1.392 . S
C1109 H1121 0.929 . S
C1110 C1106 1.531 . S
C1110 H1122 0.960 . S
C1110 H1123 0.962 . S
C1110 H1124 0.960 . S
C1111 C1108 1.511 . S
C1111 H1125 0.961 . S
C1111 H1126 0.961 . S
C1111 H1127 0.961 . S
C1112 C1113 1.370 . S
C1112 C1114 1.363 . S
C1112 H1128 0.931 . S
C1113 C1112 1.370 . S
C1113 C1117 1.408 . S
C1114 C1112 1.363 . S
C1114 C1115 1.370 . S
C1114 C1118 1.524 . S
C1115 C1107 1.503 . S
C1115 C1114 1.370 . S
C1115 C1116 1.403 . S
C1116 C1115 1.403 . S
C1116 C1117 1.404 . S
C1116 C1119 1.539 . S
C1117 C1113 1.408 . S
C1117 C1116 1.404 . S
C1117 H1129 0.930 . S
C1118 C1114 1.524 . S
C1118 H1130 0.956 . S
C1118 H1131 0.961 . S
C1118 H1132 0.961 . S
C1119 C1116 1.539 . S
C1119 H1133 0.958 . S
C1119 H1134 0.961 . S
C1119 H1135 0.960 . S
H1120 C1104 0.931 . S
H1121 C1109 0.929 . S
H1122 C1110 0.960 . S
H1123 C1110 0.962 . S
H1124 C1110 0.960 . S
H1125 C1111 0.961 . S
H1126 C1111 0.961 . S
H1127 C1111 0.961 . S
H1128 C1112 0.931 . S
H1129 C1117 0.930 . S
H1130 C1118 0.956 . S
H1131 C1118 0.961 . S
H1132 C1118 0.961 . S
H1133 C1119 0.958 . S
H1134 C1119 0.961 . S
H1135 C1119 0.960 . S
C1136 C1137 1.391 . S
C1136 C1138 1.394 . S
C1136 H1152 0.931 . S
C1137 C1136 1.391 . S
C1137 C1141 1.376 . S
C1138 C1136 1.394 . S
C1138 C1139 1.369 . S
C1138 C1142 1.531 . S
C1139 C1138 1.369 . S
C1139 C1140 1.410 . S
C1139 C1147 1.503 . S
C1140 C1139 1.410 . S
C1140 C1141 1.392 . S
C1140 C1143 1.511 . S
C1141 C1137 1.376 . S
C1141 C1140 1.392 . S
C1141 H1153 0.929 . S
C1142 C1138 1.531 . S
C1142 H1154 0.960 . S
C1142 H1155 0.962 . S
C1142 H1156 0.960 . S
C1143 C1140 1.511 . S
C1143 H1157 0.961 . S
C1143 H1158 0.961 . S
C1143 H1159 0.961 . S
C1144 C1145 1.370 . S
C1144 C1146 1.363 . S
C1144 H1160 0.931 . S
C1145 C1144 1.370 . S
C1145 C1149 1.408 . S
C1146 C1144 1.363 . S
C1146 C1147 1.370 . S
C1146 C1150 1.524 . S
C1147 C1139 1.503 . S
C1147 C1146 1.370 . S
C1147 C1148 1.403 . S
C1148 C1147 1.403 . S
C1148 C1149 1.404 . S
C1148 C1151 1.539 . S
C1149 C1145 1.408 . S
C1149 C1148 1.404 . S
C1149 H1161 0.930 . S
C1150 C1146 1.524 . S
C1150 H1162 0.956 . S
C1150 H1163 0.961 . S
C1150 H1164 0.961 . S
C1151 C1148 1.539 . S
C1151 H1165 0.958 . S
C1151 H1166 0.961 . S
C1151 H1167 0.960 . S
H1152 C1136 0.931 . S
H1153 C1141 0.929 . S
H1154 C1142 0.960 . S
H1155 C1142 0.962 . S
H1156 C1142 0.960 . S
H1157 C1143 0.961 . S
H1158 C1143 0.961 . S
H1159 C1143 0.961 . S
H1160 C1144 0.931 . S
H1161 C1149 0.930 . S
H1162 C1150 0.956 . S
H1163 C1150 0.961 . S
H1164 C1150 0.961 . S
H1165 C1151 0.958 . S
H1166 C1151 0.961 . S
H1167 C1151 0.960 . S
C273 C3 1.525 . S
C281 C49 1.589 . S
C305 C37 1.494 . S
C313 C15 1.593 . S
C337 C69 1.471 . S
C345 C117 1.595 . S
C369 C105 1.501 . S
C377 C90 1.592 . S
C401 C137 1.512 . S
C409 C192 1.590 . S
C433 C171 1.523 . S
C441 C158 1.589 . S
C465 C260 1.597 . S
C473 C207 1.473 . S
C497 C239 1.465 . S
C505 C219 1.595 . S
C529 C1 2.016 . S
C537 C139 1.974 . S
C561 C173 2.015 . S
C569 C35 1.973 . S
C593 C205 1.985 . S
C601 C71 1.988 . S
C625 C241 2.013 . S
C633 C103 1.975 . S
C657 C255 1.912 . S
C665 C22 1.693 . S
C689 C221 1.909 . S
C697 C56 1.690 . S
C721 C83 1.700 . S
C729 C187 1.922 . S
C753 C153 1.935 . S
C761 C124 1.654 . S
C785 C151 1.632 . S
C793 C119 1.932 . S
C817 C185 1.666 . S
C825 C85 1.927 . S
C849 C51 1.931 . S
C857 C226 1.663 . S
C881 C17 1.936 . S
C889 C253 1.654 . S
C913 C176 1.254 . S
C921 C6 1.252 . S
C945 C40 1.252 . S
C953 C142 1.251 . S
C977 C244 1.255 . S
C985 C96 1.252 . S
C1009 C108 1.242 . S
C1017 C232 1.245 . S
C1041 C164 1.252 . S
C1049 C62 1.250 . S
C1073 C28 1.252 . S
C1081 C198 1.250 . S
C1105 C130 1.250 . S
C1113 C210 1.249 . S
C1137 C266 1.250 . S
C1145 C74 1.252 . S
