# Generated by pormake.
# Topology umf, (4)-cn, num edge types: 1
# Building blocks:
#     Node 0, Type 0, BuildingBlock: MUDLON_clean_sbu_0, # of connection points: 4
#     Node 1, Type 0, BuildingBlock: MUDLON_clean_sbu_0, # of connection points: 4
#     Node 2, Type 0, BuildingBlock: MUDLON_clean_sbu_0, # of connection points: 4
#     Node 3, Type 0, BuildingBlock: MUDLON_clean_sbu_0, # of connection points: 4
#     Node 4, Type 0, BuildingBlock: MUDLON_clean_sbu_0, # of connection points: 4
#     Node 5, Type 0, BuildingBlock: MUDLON_clean_sbu_0, # of connection points: 4
#     Node 6, Type 0, BuildingBlock: MUDLON_clean_sbu_0, # of connection points: 4
#     Node 7, Type 0, BuildingBlock: MUDLON_clean_sbu_0, # of connection points: 4
#     Edge 8, Type (0, 0), BuildingBlock: MIFKUJ_clean_linker_0, # of connection points: 2
#     Edge 9, Type (0, 0), BuildingBlock: MIFKUJ_clean_linker_0, # of connection points: 2
#     Edge 10, Type (0, 0), BuildingBlock: MIFKUJ_clean_linker_0, # of connection points: 2
#     Edge 11, Type (0, 0), BuildingBlock: MIFKUJ_clean_linker_0, # of connection points: 2
#     Edge 12, Type (0, 0), BuildingBlock: MIFKUJ_clean_linker_0, # of connection points: 2
#     Edge 13, Type (0, 0), BuildingBlock: MIFKUJ_clean_linker_0, # of connection points: 2
#     Edge 14, Type (0, 0), BuildingBlock: MIFKUJ_clean_linker_0, # of connection points: 2
#     Edge 15, Type (0, 0), BuildingBlock: MIFKUJ_clean_linker_0, # of connection points: 2
#     Edge 16, Type (0, 0), BuildingBlock: MIFKUJ_clean_linker_0, # of connection points: 2
#     Edge 17, Type (0, 0), BuildingBlock: MIFKUJ_clean_linker_0, # of connection points: 2
#     Edge 18, Type (0, 0), BuildingBlock: MIFKUJ_clean_linker_0, # of connection points: 2
#     Edge 19, Type (0, 0), BuildingBlock: MIFKUJ_clean_linker_0, # of connection points: 2
#     Edge 20, Type (0, 0), BuildingBlock: MIFKUJ_clean_linker_0, # of connection points: 2
#     Edge 21, Type (0, 0), BuildingBlock: MIFKUJ_clean_linker_0, # of connection points: 2
#     Edge 22, Type (0, 0), BuildingBlock: MIFKUJ_clean_linker_0, # of connection points: 2
#     Edge 23, Type (0, 0), BuildingBlock: MIFKUJ_clean_linker_0, # of connection points: 2
# Relax obj value: 0.093
# Max RMSD: 0.171
# Mean RMSD: 0.171
data_MOF--net-umf--node1-MUDLON_clean_sbu_0--edge1-MIFKUJ_clean_linker_0
_symmetry_space_group_name_H-M    P1
_symmetry_Int_Tables_number       1
_symmetry_cell_setting            triclinic
loop_
_symmetry_equiv_pos_as_xyz
'x, y, z'
_cell_length_a     38.184349
_cell_length_b     37.954787
_cell_length_c     72.535285
_cell_angle_alpha  90.564921
_cell_angle_beta   89.883203
_cell_angle_gamma 90.081362
loop_
_atom_site_label
_atom_site_type_symbol
_atom_site_fract_x
_atom_site_fract_y
_atom_site_fract_z
_atom_type_partial_charge
Mg0 Mg 0.04858 0.24473 0.1606 0.0
C1 C 0.02568 0.23003 0.12201 0.0
O2 O 0.99872 0.21986 0.13191 0.0
C3 C 0.09862 0.24839 0.19217 0.0
O4 O 0.07887 0.27616 0.19521 0.0
C5 C 0.01176 0.31596 0.15808 0.0
O6 O 0.99514 0.30024 0.14445 0.0
O7 O 0.03359 0.2985 0.16751 0.0
O8 O 0.05287 0.24138 0.13038 0.0
O9 O 0.01149 0.20418 0.16847 0.0
C10 C 0.01197 0.19045 0.18439 0.0
O11 O 0.03043 0.20567 0.19749 0.0
O12 O 0.09443 0.23106 0.17719 0.0
Mg13 Mg 0.74581 0.06236 0.65806 0.0
C14 C 0.73425 0.04731 0.61901 0.0
O15 O 0.71823 0.02209 0.62801 0.0
C16 C 0.74615 0.10044 0.69367 0.0
O17 O 0.72383 0.07448 0.69602 0.0
C18 C 0.67713 0.01946 0.66681 0.0
O19 O 0.69702 0.99145 0.66843 0.0
O20 O 0.69106 0.04901 0.66314 0.0
O21 O 0.74912 0.07175 0.62832 0.0
O22 O 0.78615 0.02265 0.66203 0.0
C23 C 0.8007 0.01697 0.67748 0.0
O24 O 0.7866 0.03017 0.69255 0.0
O25 O 0.75946 0.10455 0.67769 0.0
Mg26 Mg 0.94936 0.76223 0.15572 0.0
C27 C 0.942 0.74277 0.11532 0.0
O28 O 0.93985 0.71135 0.12268 0.0
C29 C 0.91517 0.76757 0.19084 0.0
O30 O 0.94676 0.75497 0.19357 0.0
C31 C 0.99002 0.69409 0.16712 0.0
O32 O 0.01393 0.71485 0.17441 0.0
O33 O 0.96333 0.70738 0.15944 0.0
O34 O 0.94288 0.76965 0.12597 0.0
O35 O 0.98679 0.80112 0.16572 0.0
C36 C 0.9965 0.82528 0.15482 0.0
O37 O 0.98971 0.82162 0.13717 0.0
O38 O 0.90552 0.77289 0.17429 0.0
Mg39 Mg 0.23509 0.93956 0.65893 0.0
C40 C 0.21916 0.95972 0.62035 0.0
O41 O 0.20485 0.98507 0.63023 0.0
C42 C 0.24434 0.89526 0.6917 0.0
O43 O 0.26407 0.92303 0.69486 0.0
C44 C 0.3015 0.98781 0.65874 0.0
O45 O 0.28389 0.00829 0.6476 0.0
O46 O 0.28675 0.96075 0.66543 0.0
O47 O 0.23379 0.93426 0.62872 0.0
O48 O 0.18914 0.97105 0.66629 0.0
C49 C 0.17226 0.96656 0.68123 0.0
O50 O 0.18595 0.94687 0.69412 0.0
O51 O 0.22946 0.8924 0.67603 0.0
Mg52 Mg 0.04676 0.76089 0.88532 0.0
C53 C 0.04856 0.73627 0.92491 0.0
O54 O 0.04125 0.70642 0.91644 0.0
C55 C 0.10174 0.74379 0.85571 0.0
O56 O 0.08745 0.71238 0.85662 0.0
C57 C 0.01092 0.69799 0.86427 0.0
O58 O 0.01353 0.71726 0.84938 0.0
O59 O 0.02088 0.71064 0.87969 0.0
O60 O 0.0553 0.76329 0.91523 0.0
O61 O 0.01577 0.80755 0.87982 0.0
C62 C 0.01723 0.82254 0.86423 0.0
O63 O 0.03321 0.80642 0.85049 0.0
O64 O 0.09257 0.76735 0.86736 0.0
Mg65 Mg 0.25272 0.05151 0.38786 0.0
C66 C 0.26263 0.0332 0.42677 0.0
O67 O 0.2833 0.01179 0.41749 0.0
C68 C 0.24281 0.08445 0.35297 0.0
O69 O 0.25565 0.05277 0.35008 0.0
C70 C 0.32297 0.01868 0.37341 0.0
O71 O 0.30385 0.99688 0.36347 0.0
O72 O 0.30813 0.04148 0.3837 0.0
O73 O 0.24524 0.05605 0.41783 0.0
O74 O 0.21623 0.01209 0.37751 0.0
C75 C 0.19318 0.99982 0.38835 0.0
O76 O 0.19761 0.00393 0.40619 0.0
O77 O 0.23905 0.09494 0.36962 0.0
Mg78 Mg 0.94972 0.2549 0.88721 0.0
C79 C 0.97123 0.26143 0.92574 0.0
O80 O 0.99744 0.27394 0.91601 0.0
C81 C 0.89836 0.26133 0.85565 0.0
O82 O 0.91604 0.29073 0.85371 0.0
C83 C 0.98388 0.3206 0.86836 0.0
O84 O 0.99209 0.29922 0.85467 0.0
O85 O 0.96807 0.30855 0.88241 0.0
O86 O 0.94398 0.25084 0.91718 0.0
O87 O 0.98599 0.2127 0.88055 0.0
C88 C 0.98525 0.19762 0.86482 0.0
O89 O 0.96726 0.21213 0.85149 0.0
O90 O 0.90416 0.24254 0.86978 0.0
Mg91 Mg 0.76464 0.96472 0.38454 0.0
C92 C 0.77747 0.98531 0.42366 0.0
O93 O 0.79316 0.01028 0.41433 0.0
C94 C 0.75477 0.91377 0.3531 0.0
O95 O 0.72884 0.93576 0.35033 0.0
C96 C 0.69643 0.00624 0.38674 0.0
O97 O 0.70827 0.01447 0.40323 0.0
O98 O 0.71555 0.9881 0.3759 0.0
O99 O 0.763 0.96009 0.41475 0.0
O100 O 0.81106 0.99538 0.37845 0.0
C101 C 0.8269 0.99385 0.36302 0.0
O102 O 0.81193 0.97759 0.34904 0.0
O103 O 0.77281 0.9171 0.36778 0.0
H104 H 0.05234 0.3588 0.17979 0.0
H105 H 0.04999 0.42288 0.18247 0.0
H106 H 0.96079 0.42452 0.14605 0.0
H107 H 0.96373 0.36039 0.14283 0.0
H108 H 0.00581 0.47259 0.13609 0.0
H109 H 0.95436 0.43945 0.19403 0.0
H110 H 0.95163 0.40878 0.22382 0.0
H111 H 0.04505 0.46212 0.24163 0.0
H112 H 0.04859 0.49278 0.21184 0.0
H113 H 0.94642 0.64527 0.15164 0.0
H114 H 0.95235 0.58145 0.15148 0.0
H115 H 0.0478 0.59037 0.18286 0.0
H116 H 0.04196 0.6548 0.18323 0.0
H117 H 0.00346 0.53775 0.19572 0.0
H118 H 0.05312 0.57281 0.13818 0.0
H119 H 0.05465 0.60457 0.10873 0.0
H120 H 0.96364 0.54793 0.09026 0.0
H121 H 0.96121 0.51619 0.11976 0.0
C122 C 0.03196 0.37273 0.1725 0.0
C123 C 0.00818 0.35445 0.1611 0.0
C124 C 0.03059 0.40943 0.1741 0.0
C125 C 0.005 0.42861 0.16461 0.0
C126 C 0.98082 0.41034 0.15349 0.0
C127 C 0.98242 0.37365 0.15172 0.0
C128 C 0.00425 0.46777 0.16567 0.0
C129 C 0.00481 0.48676 0.14914 0.0
C130 C 0.00411 0.48643 0.18269 0.0
C131 C 0.00192 0.46814 0.20064 0.0
C132 C 0.97446 0.44444 0.20425 0.0
C133 C 0.97274 0.4271 0.22114 0.0
C134 C 0.9982 0.43343 0.23459 0.0
C135 C 0.02538 0.4572 0.23119 0.0
C136 C 0.02723 0.4746 0.21431 0.0
C137 C 0.96872 0.63382 0.15855 0.0
C138 C 0.99383 0.65523 0.16739 0.0
C139 C 0.9721 0.59726 0.15839 0.0
C140 C 0.00072 0.58119 0.16696 0.0
C141 C 0.02556 0.60231 0.17611 0.0
C142 C 0.02225 0.63908 0.17626 0.0
C143 C 0.00446 0.5423 0.16618 0.0
C144 C 0.00457 0.52345 0.18271 0.0
C145 C 0.00513 0.52373 0.14917 0.0
C146 C 0.00683 0.54231 0.13126 0.0
C147 C 0.03329 0.56727 0.12789 0.0
C148 C 0.03434 0.58526 0.11117 0.0
C149 C 0.00922 0.57834 0.09763 0.0
C150 C 0.98307 0.55329 0.10077 0.0
C151 C 0.98187 0.53526 0.11748 0.0
H152 H 0.01005 0.59233 0.08471 0.0
H153 H 0.99683 0.41997 0.24766 0.0
H154 H 0.34881 0.94071 0.67198 0.0
H155 H 0.41189 0.94779 0.67488 0.0
H156 H 0.40368 0.05495 0.65602 0.0
H157 H 0.34034 0.04735 0.65221 0.0
H158 H 0.45567 0.02591 0.63968 0.0
H159 H 0.4209 0.03138 0.70302 0.0
H160 H 0.39111 0.01192 0.73136 0.0
H161 H 0.45086 0.91617 0.73062 0.0
H162 H 0.4807 0.93484 0.70214 0.0
H163 H 0.62942 0.07248 0.66324 0.0
H164 H 0.56572 0.06819 0.66364 0.0
H165 H 0.57282 0.95658 0.67349 0.0
H166 H 0.63695 0.96062 0.67322 0.0
H167 H 0.52191 0.9894 0.69507 0.0
H168 H 0.55571 0.98524 0.631 0.0
H169 H 0.58593 0.00675 0.60321 0.0
H170 H 0.52772 0.10335 0.60629 0.0
H171 H 0.49751 0.08262 0.63427 0.0
C172 C 0.3603 0.96595 0.66862 0.0
C173 C 0.33946 0.99354 0.66192 0.0
C174 C 0.3965 0.97004 0.6704 0.0
C175 C 0.41272 1.00213 0.66601 0.0
C176 C 0.39188 0.02993 0.65954 0.0
C177 C 0.35564 0.02563 0.65743 0.0
C178 C 0.45153 0.006 0.66734 0.0
C179 C 0.46998 0.0185 0.65194 0.0
C180 C 0.47057 0.9956 0.68315 0.0
C181 C 0.45283 0.9844 0.70036 0.0
C182 C 0.42753 0.00607 0.70884 0.0
C183 C 0.41066 0.9952 0.72493 0.0
C184 C 0.41903 0.9628 0.73276 0.0
C185 C 0.44438 0.94125 0.72453 0.0
C186 C 0.46131 0.95198 0.70843 0.0
C187 C 0.61756 0.04697 0.66557 0.0
C188 C 0.63839 0.01681 0.66808 0.0
C189 C 0.58107 0.04459 0.66575 0.0
C190 C 0.56449 0.012 0.66835 0.0
C191 C 0.58509 0.98199 0.6714 0.0
C192 C 0.62173 0.98433 0.6712 0.0
C193 C 0.5257 0.00928 0.66746 0.0
C194 C 0.50737 0.99696 0.68289 0.0
C195 C 0.50672 0.02018 0.65178 0.0
C196 C 0.52458 0.0325 0.63483 0.0
C197 C 0.54953 0.01117 0.62582 0.0
C198 C 0.56663 0.02321 0.61003 0.0
C199 C 0.55881 0.05643 0.60301 0.0
C200 C 0.53378 0.07764 0.61175 0.0
C201 C 0.51664 0.06574 0.62757 0.0
H202 H 0.57209 0.06571 0.59078 0.0
H203 H 0.40592 0.95442 0.74522 0.0
H204 H 0.98008 0.37005 0.89582 0.0
H205 H 0.98319 0.43394 0.89297 0.0
H206 H 0.00112 0.42283 0.83446 0.0
H207 H 0.99901 0.35856 0.83731 0.0
H208 H 0.04075 0.47424 0.84809 0.0
H209 H 0.91936 0.44449 0.85191 0.0
H210 H 0.86673 0.41636 0.86496 0.0
H211 H 0.87986 0.47554 0.91524 0.0
H212 H 0.93287 0.50367 0.90259 0.0
H213 H 0.00603 0.65656 0.83314 0.0
H214 H 0.99887 0.5924 0.83162 0.0
H215 H 0.98953 0.58929 0.89085 0.0
H216 H 0.99648 0.65318 0.89249 0.0
H217 H 0.94272 0.54507 0.87386 0.0
H218 H 0.06649 0.57148 0.87036 0.0
H219 H 0.11879 0.59975 0.85702 0.0
H220 H 0.10001 0.54687 0.80536 0.0
H221 H 0.04726 0.51868 0.81833 0.0
C222 C 0.98494 0.38114 0.88234 0.0
C223 C 0.98901 0.35919 0.86676 0.0
C224 C 0.98651 0.41774 0.88072 0.0
C225 C 0.99152 0.43331 0.86343 0.0
C226 C 0.99697 0.41146 0.84793 0.0
C227 C 0.99578 0.37472 0.84958 0.0
C228 C 0.99048 0.47234 0.86159 0.0
C229 C 0.01902 0.48965 0.85344 0.0
C230 C 0.96232 0.49263 0.86874 0.0
C231 C 0.93025 0.476 0.87634 0.0
C232 C 0.91115 0.45135 0.86579 0.0
C233 C 0.88124 0.43542 0.87311 0.0
C234 C 0.87 0.44411 0.89093 0.0
C235 C 0.8886 0.46882 0.90144 0.0
C236 C 0.91857 0.4848 0.8942 0.0
C237 C 0.00189 0.64229 0.84581 0.0
C238 C 0.00203 0.65999 0.86294 0.0
C239 C 0.99803 0.60559 0.84493 0.0
C240 C 0.99415 0.58601 0.86115 0.0
C241 C 0.99259 0.60384 0.87816 0.0
C242 C 0.99665 0.64039 0.87907 0.0
C243 C 0.99317 0.54687 0.86063 0.0
C244 C 0.96424 0.52956 0.86834 0.0
C245 C 0.02086 0.52662 0.85299 0.0
C246 C 0.05272 0.5433 0.84524 0.0
C247 C 0.07337 0.5661 0.85611 0.0
C248 C 0.10311 0.58207 0.84862 0.0
C249 C 0.11266 0.57519 0.83033 0.0
C250 C 0.09254 0.55223 0.81951 0.0
C251 C 0.06273 0.53624 0.82693 0.0
H252 H 0.13569 0.58759 0.82456 0.0
H253 H 0.84683 0.43174 0.89657 0.0
H254 H 0.36884 0.05559 0.39489 0.0
H255 H 0.43249 0.05506 0.39359 0.0
H256 H 0.4291 0.97952 0.34879 0.0
H257 H 0.36489 0.97935 0.35025 0.0
H258 H 0.47765 0.96177 0.3733 0.0
H259 H 0.44925 0.06635 0.34093 0.0
H260 H 0.42021 0.12328 0.33552 0.0
H261 H 0.4709 0.16764 0.38318 0.0
H262 H 0.49988 0.11081 0.38904 0.0
H263 H 0.66 0.98092 0.35699 0.0
H264 H 0.59705 0.98531 0.35147 0.0
H265 H 0.58578 0.05053 0.40012 0.0
H266 H 0.64877 0.0462 0.40584 0.0
H267 H 0.54526 0.07335 0.37002 0.0
H268 H 0.56897 0.96648 0.40351 0.0
H269 H 0.59795 0.90939 0.40858 0.0
H270 H 0.55586 0.86952 0.35763 0.0
H271 H 0.52702 0.92661 0.35213 0.0
C272 C 0.38151 0.03886 0.38471 0.0
C273 C 0.36172 0.01762 0.3726 0.0
C274 C 0.41799 0.03877 0.38392 0.0
C275 C 0.4356 0.0178 0.37085 0.0
C276 C 0.41602 0.9961 0.35891 0.0
C277 C 0.37936 0.99603 0.35975 0.0
C278 C 0.47448 0.01806 0.37013 0.0
C279 C 0.49241 0.98611 0.37219 0.0
C280 C 0.4938 0.04989 0.369 0.0
C281 C 0.47654 0.0842 0.36549 0.0
C282 C 0.45402 0.08816 0.35033 0.0
C283 C 0.4376 0.12043 0.34718 0.0
C284 C 0.44366 0.14904 0.35902 0.0
C285 C 0.46622 0.14545 0.37403 0.0
C286 C 0.48269 0.11322 0.37726 0.0
C287 C 0.64427 0.99667 0.36638 0.0
C288 C 0.65938 0.013 0.38196 0.0
C289 C 0.60827 0.99902 0.36322 0.0
C290 C 0.58676 0.01786 0.37552 0.0
C291 C 0.60198 0.03578 0.3905 0.0
C292 C 0.63796 0.03322 0.39377 0.0
C293 C 0.54818 0.01719 0.3734 0.0
C294 C 0.53039 0.04904 0.37086 0.0
C295 C 0.52898 0.98529 0.37397 0.0
C296 C 0.5462 0.95094 0.3773 0.0
C297 C 0.56616 0.94564 0.39331 0.0
C298 C 0.58251 0.91327 0.39628 0.0
C299 C 0.57885 0.88588 0.38341 0.0
C300 C 0.55874 0.89079 0.36757 0.0
C301 C 0.54237 0.92314 0.36452 0.0
H302 H 0.59152 0.86083 0.38573 0.0
H303 H 0.43092 0.174 0.35656 0.0
H304 H 0.92766 0.22812 0.95051 0.0
H305 H 0.9368 0.22143 0.98379 0.0
H306 H 0.03219 0.28201 0.98011 0.0
H307 H 0.02363 0.28817 0.94706 0.0
H308 H 0.04322 0.22615 1.0003 0.0
H309 H 0.95506 0.31661 0.99856 0.0
H310 H 0.89827 0.34264 0.99006 0.0
H311 H 0.84421 0.25977 1.01829 0.0
H312 H 0.90071 0.23298 0.02675 0.0
H313 H 0.06971 0.26088 0.09663 0.0
H314 H 0.06076 0.26509 0.06323 0.0
H315 H 0.96567 0.2043 0.06791 0.0
H316 H 0.97406 0.20056 0.10111 0.0
H317 H 0.95421 0.2593 0.04719 0.0
H318 H 0.04241 0.1693 0.04935 0.0
H319 H 0.09921 0.14332 0.05786 0.0
H320 H 0.15323 0.22528 0.0289 0.0
H321 H 0.09672 0.25202 1.02041 0.0
C322 C 0.95043 0.24019 0.95684 0.0
C323 C 0.97488 0.25866 0.94608 0.0
C324 C 0.95563 0.23642 0.97588 0.0
C325 C 0.98516 0.25138 0.98455 0.0
C326 C 0.00932 0.27007 0.97381 0.0
C327 C 0.00426 0.27367 0.95486 0.0
C328 C 0.99149 0.24729 1.00472 0.0
C329 C 0.02387 0.2338 1.01055 0.0
C330 C 0.96608 0.2565 1.01816 0.0
C331 C 0.9321 0.2726 1.01312 0.0
C332 C 0.93106 0.30379 1.00283 0.0
C333 C 0.89892 0.31871 0.99804 0.0
C334 C 0.86765 0.30282 1.00359 0.0
C335 C 0.86845 0.27202 1.01398 0.0
C336 C 0.90052 0.25697 1.01878 0.0
C337 C 0.04712 0.24811 0.0905 0.0
C338 C 0.02261 0.23043 0.10158 0.0
C339 C 0.04202 0.25048 0.07138 0.0
C340 C 0.01255 0.23488 0.06296 0.0
C341 C 0.98849 0.21672 0.07402 0.0
C342 C 0.99345 0.21451 0.09305 0.0
C343 C 0.00597 0.23823 0.04278 0.0
C344 C 0.97355 0.25159 0.03694 0.0
C345 C 0.03134 0.22891 0.02934 0.0
C346 C 0.06534 0.21285 0.0344 0.0
C347 C 0.0664 0.18194 0.04492 0.0
C348 C 0.09854 0.16704 0.04972 0.0
C349 C 0.12981 0.18269 0.04397 0.0
C350 C 0.12899 0.21321 0.03336 0.0
C351 C 0.09691 0.22823 0.02854 0.0
H352 H 0.15466 0.17112 0.04769 0.0
H353 H 0.84279 0.31441 0.99987 0.0
H354 H 0.69716 0.00388 0.5963 0.0
H355 H 0.70461 0.99436 0.5633 0.0
H356 H 0.78481 0.07442 0.56213 0.0
H357 H 0.77713 0.08452 0.59543 0.0
H358 H 0.74176 0.0781 0.5321 0.0
H359 H 0.80691 0.98767 0.56244 0.0
H360 H 0.81579 0.93915 0.5843 0.0
H361 H 0.73624 0.87826 0.55688 0.0
H362 H 0.72653 0.92664 0.53501 0.0
H363 H 0.8133 0.03077 0.4459 0.0
H364 H 0.80573 0.04119 0.47884 0.0
H365 H 0.72721 0.95951 0.48076 0.0
H366 H 0.73512 0.94842 0.44758 0.0
H367 H 0.76955 0.95683 0.51045 0.0
H368 H 0.70413 0.04684 0.48017 0.0
H369 H 0.69471 0.09525 0.45832 0.0
H370 H 0.77397 0.15682 0.48556 0.0
H371 H 0.78422 0.10855 0.50743 0.0
C372 C 0.71629 0.01972 0.58907 0.0
C373 C 0.73682 0.04476 0.59859 0.0
C374 C 0.7206 0.0141 0.57016 0.0
C375 C 0.74581 0.03308 0.56026 0.0
C376 C 0.76536 0.05925 0.56951 0.0
C377 C 0.76094 0.06504 0.58853 0.0
C378 C 0.75208 0.02484 0.54039 0.0
C379 C 0.74836 0.05171 0.5274 0.0
C380 C 0.7598 0.99017 0.53415 0.0
C381 C 0.76579 0.96091 0.54718 0.0
C382 C 0.79114 0.96403 0.56115 0.0
C383 C 0.79635 0.93654 0.57353 0.0
C384 C 0.77654 0.90568 0.572 0.0
C385 C 0.75154 0.9022 0.55806 0.0
C386 C 0.7462 0.92963 0.54565 0.0
C387 C 0.7945 0.01479 0.45329 0.0
C388 C 0.7746 0.9889 0.44403 0.0
C389 C 0.79009 0.02095 0.47216 0.0
C390 C 0.76535 1.00171 0.48226 0.0
C391 C 0.74631 0.97488 0.47324 0.0
C392 C 0.75087 0.96853 0.45428 0.0
C393 C 0.75923 0.01009 0.50214 0.0
C394 C 0.76297 0.98323 0.51514 0.0
C395 C 0.75146 0.04475 0.50838 0.0
C396 C 0.74516 0.07395 0.49534 0.0
C397 C 0.71973 0.07061 0.48143 0.0
C398 C 0.71421 0.09804 0.46905 0.0
C399 C 0.73378 0.12906 0.47053 0.0
C400 C 0.75885 0.13276 0.48442 0.0
C401 C 0.7645 0.10539 0.49683 0.0
H402 H 0.72948 0.15027 0.46093 0.0
H403 H 0.7806 0.88443 0.5816 0.0
H404 H 0.94027 0.69067 0.08914 0.0
H405 H 0.95994 0.69374 0.05718 0.0
H406 H 0.98111 0.80473 0.06402 0.0
H407 H 0.96095 0.802 0.0961 0.0
H408 H 0.95271 0.79017 0.03022 0.0
H409 H 0.04754 0.74601 0.06644 0.0
H410 H 0.07569 0.70687 0.08892 0.0
H411 H 0.0523 0.61709 0.05462 0.0
H412 H 0.02361 0.65566 0.03202 0.0
H413 H 0.05256 0.79562 0.94699 0.0
H414 H 0.03719 0.80069 0.97974 0.0
H415 H 0.01638 0.68902 0.98126 0.0
H416 H 0.03237 0.68364 0.94883 0.0
H417 H 0.04832 0.70865 1.01174 0.0
H418 H 0.95005 0.7515 0.97675 0.0
H419 H 0.92064 0.78982 0.95431 0.0
H420 H 0.94944 0.88117 0.98625 0.0
H421 H 0.97943 0.84339 1.00877 0.0
C422 C 0.94866 0.71589 0.08383 0.0
C423 C 0.94926 0.74603 0.09527 0.0
C424 C 0.96011 0.71755 0.06555 0.0
C425 C 0.97276 0.74929 0.05829 0.0
C426 C 0.9717 0.77988 0.06934 0.0
C427 C 0.96012 0.77827 0.08768 0.0
C428 C 0.98821 0.75002 0.03941 0.0
C429 C 0.97401 0.77276 0.02625 0.0
C430 C 0.01569 0.72696 0.03411 0.0
C431 C 0.03323 0.70371 0.04759 0.0
C432 C 0.04822 0.7179 0.06374 0.0
C433 C 0.06429 0.69582 0.07649 0.0
C434 C 0.06576 0.65952 0.0732 0.0
C435 C 0.05116 0.64522 0.05714 0.0
C436 C 0.03503 0.66718 0.04434 0.0
C437 C 0.04521 0.77207 0.95437 0.0
C438 C 0.04352 0.73925 0.9452 0.0
C439 C 0.03614 0.77505 0.97308 0.0
C440 C 0.02496 0.74534 0.98294 0.0
C441 C 0.02477 0.71238 0.97399 0.0
C442 C 0.0339 0.70936 0.95537 0.0
C443 C 0.01242 0.74835 1.0024 0.0
C444 C 0.02724 0.7263 1.01571 0.0
C445 C 0.98543 0.77195 1.00779 0.0
C446 C 0.96731 0.79466 0.99432 0.0
C447 C 0.95033 0.77978 0.97891 0.0
C448 C 0.93353 0.8014 0.96619 0.0
C449 C 0.93327 0.83792 0.96882 0.0
C450 C 0.94973 0.85289 0.98421 0.0
C451 C 0.96661 0.83139 0.99696 0.0
H452 H 0.92024 0.85461 0.95896 0.0
H453 H 0.07831 0.64249 0.08306 0.0
H454 H 0.21459 0.06431 0.4503 0.0
H455 H 0.20528 0.05142 0.48307 0.0
H456 H 0.2908 0.97732 0.4814 0.0
H457 H 0.29993 0.98965 0.44887 0.0
H458 H 0.23613 0.94915 0.49848 0.0
H459 H 0.29896 0.05924 0.50199 0.0
H460 H 0.30964 0.12198 0.49543 0.0
H461 H 0.21122 0.14934 0.52044 0.0
H462 H 0.19974 0.08667 0.52694 0.0
H463 H 0.26176 0.92505 0.5954 0.0
H464 H 0.26742 0.9367 0.56231 0.0
H465 H 0.18477 0.01383 0.56628 0.0
H466 H 0.17967 1.00299 0.59923 0.0
H467 H 0.23636 0.0405 0.54781 0.0
H468 H 0.17367 0.93096 0.54496 0.0
H469 H 0.16239 0.86829 0.55145 0.0
H470 H 0.25929 0.83983 0.52515 0.0
H471 H 0.27137 0.90239 0.51871 0.0
C472 C 0.23158 0.04553 0.45698 0.0
C473 C 0.25799 0.02804 0.44692 0.0
C474 C 0.22626 0.03817 0.47572 0.0
C475 C 0.2474 0.0134 0.48476 0.0
C476 C 0.274 0.99635 0.47476 0.0
C477 C 0.27927 0.0036 0.45612 0.0
C478 C 0.24174 0.00456 0.50454 0.0
C479 C 0.23655 0.9691 0.5093 0.0
C480 C 0.24144 0.03057 0.51865 0.0
C481 C 0.24833 0.06824 0.51477 0.0
C482 C 0.27947 0.07861 0.50596 0.0
C483 C 0.28569 0.11416 0.50227 0.0
C484 C 0.26108 0.13962 0.50746 0.0
C485 C 0.23023 0.12958 0.5164 0.0
C486 C 0.22387 0.09406 0.5201 0.0
C487 C 0.2445 0.94411 0.58914 0.0
C488 C 0.22034 0.96313 0.59998 0.0
C489 C 0.2477 0.95076 0.57021 0.0
C490 C 0.22643 0.97614 0.5617 0.0
C491 C 0.20166 0.99432 0.57246 0.0
C492 C 0.19869 0.98796 0.59133 0.0
C493 C 0.23078 0.98502 0.54181 0.0
C494 C 0.23578 0.0205 0.53702 0.0
C495 C 0.23078 0.95903 0.52767 0.0
C496 C 0.22358 0.9214 0.53152 0.0
C497 C 0.1927 0.91136 0.54069 0.0
C498 C 0.18614 0.87586 0.54434 0.0
C499 C 0.21015 0.85011 0.53876 0.0
C500 C 0.24074 0.8598 0.52949 0.0
C501 C 0.24744 0.89528 0.52582 0.0
H502 H 0.20502 0.82263 0.54159 0.0
H503 H 0.26595 0.16713 0.5046 0.0
H504 H 0.11385 0.28067 0.22489 0.0
H505 H 0.14082 0.25494 0.25199 0.0
H506 H 0.15809 0.15797 0.22184 0.0
H507 H 0.13015 0.18339 0.19463 0.0
H508 H 0.13017 0.14463 0.25461 0.0
H509 H 0.22639 0.21443 0.23356 0.0
H510 H 0.25646 0.26809 0.22295 0.0
H511 H 0.23244 0.32013 0.27426 0.0
H512 H 0.2018 0.26692 0.28509 0.0
H513 H 0.24411 0.06412 0.31701 0.0
H514 H 0.22136 0.09496 0.29043 0.0
H515 H 0.19109 0.18242 0.32528 0.0
H516 H 0.21386 0.15129 0.3524 0.0
H517 H 0.22493 0.20159 0.29101 0.0
H518 H 0.12918 0.13083 0.31205 0.0
H519 H 0.10147 0.076 0.32283 0.0
H520 H 0.12652 0.02493 0.27142 0.0
H521 H 0.15479 0.07938 0.26039 0.0
C522 C 0.12382 0.25402 0.22387 0.0
C523 C 0.11989 0.23416 0.20752 0.0
C524 C 0.13939 0.23935 0.23942 0.0
C525 C 0.15177 0.20454 0.23899 0.0
C526 C 0.14873 0.18487 0.22253 0.0
C527 C 0.13304 0.19955 0.20692 0.0
C528 C 0.16624 0.18833 0.256 0.0
C529 C 0.15121 0.1569 0.26239 0.0
C530 C 0.19307 0.20473 0.26653 0.0
C531 C 0.2115 0.23678 0.26006 0.0
C532 C 0.22727 0.23741 0.24253 0.0
C533 C 0.24446 0.26773 0.23648 0.0
C534 C 0.24628 0.29753 0.2479 0.0
C535 C 0.23098 0.29704 0.26541 0.0
C536 C 0.21372 0.26679 0.27152 0.0
C537 C 0.2328 0.08999 0.31916 0.0
C538 C 0.23068 0.10515 0.33693 0.0
C539 C 0.2197 0.10754 0.30387 0.0
C540 C 0.20418 0.14077 0.30588 0.0
C541 C 0.2029 0.15668 0.32347 0.0
C542 C 0.21585 0.13889 0.33893 0.0
C543 C 0.18888 0.15808 0.28948 0.0
C544 C 0.20376 0.18957 0.28322 0.0
C545 C 0.16199 0.14172 0.27904 0.0
C546 C 0.14434 0.10913 0.28544 0.0
C547 C 0.12895 0.10786 0.30307 0.0
C548 C 0.1131 0.07687 0.30922 0.0
C549 C 0.11225 0.04701 0.29781 0.0
C550 C 0.12716 0.04812 0.28022 0.0
C551 C 0.14305 0.07905 0.274 0.0
H552 H 0.10002 0.02302 0.30261 0.0
H553 H 0.25961 0.32098 0.2432 0.0
H554 H 0.85863 0.20074 0.85383 0.0
H555 H 0.82972 0.17552 0.82662 0.0
H556 H 0.86359 0.26435 0.79443 0.0
H557 H 0.89109 0.29023 0.8216 0.0
H558 H 0.80244 0.24831 0.78373 0.0
H559 H 0.90636 0.18068 0.79301 0.0
H560 H 0.9489 0.14352 0.80931 0.0
H561 H 0.86997 0.06447 0.81738 0.0
H562 H 0.82685 0.10124 0.80111 0.0
H563 H 0.78867 0.15938 0.69485 0.0
H564 H 0.81166 0.18941 0.72252 0.0
H565 H 0.7559 0.11629 0.75697 0.0
H566 H 0.73251 0.08674 0.7297 0.0
H567 H 0.82807 0.12449 0.76594 0.0
H568 H 0.72522 0.19509 0.7542 0.0
H569 H 0.6873 0.23267 0.73521 0.0
H570 H 0.77085 0.30762 0.72941 0.0
H571 H 0.80944 0.27021 0.74816 0.0
C572 C 0.85946 0.21512 0.84102 0.0
C573 C 0.87731 0.24747 0.83994 0.0
C574 C 0.84322 0.2005 0.82538 0.0
C575 C 0.84506 0.21758 0.80826 0.0
C576 C 0.86178 0.25049 0.80738 0.0
C577 C 0.87758 0.26529 0.82301 0.0
C578 C 0.83025 0.2011 0.79117 0.0
C579 C 0.80845 0.22134 0.77979 0.0
C580 C 0.83771 0.1658 0.78592 0.0
C581 C 0.86328 0.14391 0.79605 0.0
C582 C 0.89798 0.15553 0.79843 0.0
C583 C 0.92221 0.13452 0.80763 0.0
C584 C 0.91209 0.10178 0.8145 0.0
C585 C 0.87773 0.08991 0.81211 0.0
C586 C 0.8534 0.11079 0.80286 0.0
C587 C 0.78106 0.14997 0.70833 0.0
C588 C 0.75869 0.12068 0.71002 0.0
C589 C 0.79419 0.16713 0.72411 0.0
C590 C 0.7855 0.15501 0.74181 0.0
C591 C 0.76301 0.12602 0.74348 0.0
C592 C 0.74954 0.10926 0.72781 0.0
C593 C 0.8004 0.17169 0.75869 0.0
C594 C 0.82217 0.15144 0.76998 0.0
C595 C 0.79354 0.20713 0.76363 0.0
C596 C 0.77032 0.22966 0.75241 0.0
C597 C 0.7356 0.21942 0.74873 0.0
C598 C 0.71397 0.24073 0.73804 0.0
C599 C 0.72669 0.27246 0.73106 0.0
C600 C 0.76105 0.283 0.7348 0.0
C601 C 0.7828 0.26178 0.74547 0.0
H602 H 0.7099 0.28892 0.72279 0.0
H603 H 0.93092 0.08553 0.82158 0.0
H604 H 0.7211 0.90036 0.32064 0.0
H605 H 0.74457 0.87121 0.29319 0.0
H606 H 0.83919 0.84636 0.32271 0.0
H607 H 0.81606 0.87618 0.35024 0.0
H608 H 0.85414 0.8762 0.29059 0.0
H609 H 0.77918 0.78209 0.30992 0.0
H610 H 0.72382 0.75449 0.31977 0.0
H611 H 0.67575 0.78315 0.2686 0.0
H612 H 0.73072 0.81137 0.25854 0.0
H613 H 0.93221 0.76098 0.22697 0.0
H614 H 0.90044 0.78263 0.25384 0.0
H615 H 0.8175 0.81992 0.21888 0.0
H616 H 0.84958 0.79838 0.19152 0.0
H617 H 0.79469 0.78467 0.25259 0.0
H618 H 0.87021 0.87789 0.23316 0.0
H619 H 0.92607 0.9042 0.22318 0.0
H620 H 0.97321 0.87676 0.27475 0.0
H621 H 0.91778 0.84963 0.28493 0.0
C622 C 0.74668 0.88817 0.32144 0.0
C623 C 0.76672 0.89072 0.33767 0.0
C624 C 0.76003 0.87137 0.3057 0.0
C625 C 0.79365 0.85645 0.30584 0.0
C626 C 0.8132 0.85772 0.32224 0.0
C627 C 0.79984 0.87456 0.33803 0.0
C628 C 0.80929 0.84186 0.28855 0.0
C629 C 0.84133 0.8558 0.28246 0.0
C630 C 0.79206 0.81611 0.27754 0.0
C631 C 0.75898 0.79915 0.28355 0.0
C632 C 0.75672 0.78277 0.30083 0.0
C633 C 0.72543 0.76696 0.30644 0.0
C634 C 0.69626 0.76715 0.29484 0.0
C635 C 0.69836 0.78307 0.27758 0.0
C636 C 0.72958 0.79894 0.27191 0.0
C637 C 0.90709 0.77352 0.22487 0.0
C638 C 0.89357 0.77815 0.20701 0.0
C639 C 0.88898 0.78592 0.24031 0.0
C640 C 0.85683 0.80319 0.23835 0.0
C641 C 0.84236 0.80668 0.22066 0.0
C642 C 0.86071 0.79443 0.20506 0.0
C643 C 0.83956 0.81875 0.25488 0.0
C644 C 0.80732 0.80511 0.26077 0.0
C645 C 0.85655 0.8448 0.26574 0.0
C646 C 0.88989 0.8614 0.25974 0.0
C647 C 0.89256 0.87716 0.24232 0.0
C648 C 0.92414 0.89227 0.23662 0.0
C649 C 0.9532 0.89207 0.24829 0.0
C650 C 0.9507 0.87684 0.26571 0.0
C651 C 0.91919 0.86161 0.27146 0.0
H652 H 0.97762 0.90379 0.24385 0.0
H653 H 0.67206 0.75489 0.29921 0.0
H654 H 0.20343 0.8351 0.69166 0.0
H655 H 0.18332 0.80209 0.71863 0.0
H656 H 0.24142 0.87262 0.75425 0.0
H657 H 0.26281 0.90415 0.7276 0.0
H658 H 0.24649 0.8126 0.76789 0.0
H659 H 0.14908 0.87947 0.74559 0.0
H660 H 0.10542 0.89945 0.72297 0.0
H661 H 0.06589 0.7939 0.7176 0.0
H662 H 0.1096 0.77321 0.74006 0.0
H663 H 0.14165 0.80314 0.85056 0.0
H664 H 0.1701 0.82205 0.82195 0.0
H665 H 0.136 0.72657 0.79476 0.0
H666 H 0.1082 0.70708 0.82331 0.0
H667 H 0.11899 0.79319 0.77621 0.0
H668 H 0.21666 0.73091 0.80303 0.0
H669 H 0.25858 0.71781 0.82785 0.0
H670 H 0.29551 0.8247 0.82702 0.0
H671 H 0.25345 0.83857 0.80236 0.0
C672 C 0.21231 0.84314 0.70523 0.0
C673 C 0.23461 0.87239 0.70742 0.0
C674 C 0.20055 0.82446 0.72069 0.0
C675 C 0.21022 0.83521 0.73863 0.0
C676 C 0.23347 0.86363 0.74067 0.0
C677 C 0.24566 0.88179 0.72531 0.0
C678 C 0.19555 0.81801 0.75541 0.0
C679 C 0.21856 0.80862 0.76967 0.0
C680 C 0.15911 0.81239 0.75787 0.0
C681 C 0.13288 0.82472 0.74433 0.0
C682 C 0.13126 0.86048 0.73948 0.0
C683 C 0.10648 0.87194 0.7267 0.0
C684 C 0.08299 0.84794 0.7188 0.0
C685 C 0.08416 0.81244 0.7237 0.0
C686 C 0.10891 0.80083 0.73646 0.0
C687 C 0.14072 0.78589 0.83859 0.0
C688 C 0.12272 0.75356 0.83926 0.0
C689 C 0.15692 0.79676 0.82225 0.0
C690 C 0.15502 0.77574 0.80623 0.0
C691 C 0.13769 0.74319 0.80695 0.0
C692 C 0.12202 0.73203 0.82334 0.0
C693 C 0.16992 0.78838 0.78856 0.0
C694 C 0.14692 0.79691 0.77421 0.0
C695 C 0.2062 0.79425 0.78624 0.0
C696 C 0.2317 0.78584 0.80096 0.0
C697 C 0.23352 0.75169 0.80824 0.0
C698 C 0.25735 0.74411 0.82226 0.0
C699 C 0.27964 0.77042 0.82903 0.0
C700 C 0.27821 0.80434 0.82177 0.0
C701 C 0.25442 0.81207 0.80776 0.0
H702 H 0.29806 0.7645 0.83989 0.0
H703 H 0.06381 0.85688 0.70893 0.0
H704 H 0.01339 0.15007 0.21555 0.0
H705 H 0.00657 0.08604 0.21703 0.0
H706 H 0.97942 0.08304 0.15932 0.0
H707 H 0.98481 0.14678 0.1579 0.0
H708 H 0.94413 0.03463 0.17654 0.0
H709 H 0.06624 0.07364 0.17633 0.0
H710 H 0.11643 0.10613 0.18957 0.0
H711 H 0.10837 0.04588 0.23918 0.0
H712 H 0.05776 0.01353 0.22638 0.0
H713 H 0.01165 0.88435 0.13532 0.0
H714 H 0.01299 0.94478 0.14698 0.0
H715 H 0.00349 0.90739 0.20268 0.0
H716 H 0.00154 0.84643 0.19113 0.0
H717 H 0.05359 0.97239 0.19347 0.0
H718 H 0.93508 0.92862 0.19155 0.0
H719 H 0.88602 0.89606 0.17732 0.0
H720 H 0.88863 0.96536 0.13089 0.0
H721 H 0.93814 0.99796 0.14474 0.0
C722 C 0.00504 0.13586 0.2033 0.0
C723 C 0.00021 0.1535 0.18652 0.0
C724 C 0.00142 0.0992 0.20414 0.0
C725 C 0.99351 0.07959 0.18816 0.0
C726 C 0.98583 0.09751 0.17182 0.0
C727 C 0.98899 0.13408 0.17102 0.0
C728 C 0.99608 0.04052 0.18772 0.0
C729 C 0.96803 0.02111 0.18034 0.0
C730 C 0.02702 0.02256 0.19302 0.0
C731 C 0.058 0.04145 0.20048 0.0
C732 C 0.0751 0.06746 0.1901 0.0
C733 C 0.1036 0.08587 0.19753 0.0
C734 C 0.11551 0.07817 0.21524 0.0
C735 C 0.09906 0.05193 0.22551 0.0
C736 C 0.07046 0.03355 0.21817 0.0
C737 C 0.01071 0.88875 0.15009 0.0
C738 C 0.00602 0.86052 0.16226 0.0
C739 C 0.01147 0.92335 0.15672 0.0
C740 C 0.00796 0.93041 0.17563 0.0
C741 C 0.00626 0.90233 0.18802 0.0
C742 C 0.00515 0.86755 0.18138 0.0
C743 C 0.00202 0.96712 0.18187 0.0
C744 C 0.02942 0.98595 0.19019 0.0
C745 C 0.97059 0.98467 0.17739 0.0
C746 C 0.94048 0.96553 0.16912 0.0
C747 C 0.92536 0.93672 0.17824 0.0
C748 C 0.89745 0.91829 0.17026 0.0
C749 C 0.88425 0.92859 0.15319 0.0
C750 C 0.89889 0.9574 0.1441 0.0
C751 C 0.92686 0.97589 0.15203 0.0
H752 H 0.86264 0.91429 0.14701 0.0
H753 H 0.13755 0.09244 0.221 0.0
H754 H 0.13137 0.99544 0.65435 0.0
H755 H 0.068 0.00335 0.65492 0.0
H756 H 0.06482 0.9687 0.71138 0.0
H757 H 0.12823 0.96 0.71079 0.0
H758 H 0.01651 0.93566 0.69237 0.0
H759 H 0.05013 0.05604 0.69944 0.0
H760 H 0.08164 0.11102 0.69233 0.0
H761 H 0.03307 0.11374 0.63903 0.0
H762 H 0.0016 0.05849 0.64572 0.0
H763 H 0.83873 0.99678 0.70756 0.0
H764 H 0.90191 0.98562 0.70878 0.0
H765 H 0.9088 0.99794 0.64987 0.0
H766 H 0.84576 0.00842 0.64843 0.0
H767 H 0.95459 0.04267 0.67125 0.0
H768 H 0.9211 0.92106 0.66504 0.0
H769 H 0.88937 0.86679 0.67321 0.0
H770 H 0.93746 0.86799 0.72667 0.0
H771 H 0.96908 0.92263 0.71893 0.0
C772 C 0.11733 0.99013 0.66702 0.0
C773 C 0.13492 0.97702 0.68253 0.0
C774 C 0.08101 0.9947 0.66733 0.0
C775 C 0.06153 0.98678 0.68323 0.0
C776 C 0.07921 0.97489 0.69894 0.0
C777 C 0.11553 0.97013 0.69861 0.0
C778 C 0.02263 0.98914 0.6831 0.0
C779 C 0.003 0.9593 0.68805 0.0
C780 C 0.00488 0.01969 0.67712 0.0
C781 C 0.02375 0.05294 0.67302 0.0
C782 C 0.04638 0.06821 0.68614 0.0
C783 C 0.06419 0.09945 0.6822 0.0
C784 C 0.05942 0.11581 0.66522 0.0
C785 C 0.03676 0.10101 0.65216 0.0
C786 C 0.0189 0.06975 0.65603 0.0
C787 C 0.85355 0.99629 0.69481 0.0
C788 C 0.83718 0.00363 0.67792 0.0
C789 C 0.88964 0.98997 0.69554 0.0
C790 C 0.90999 0.99124 0.67943 0.0
C791 C 0.89352 0.99699 0.66246 0.0
C792 C 0.85742 1.00275 0.66168 0.0
C793 C 0.94872 0.98921 0.6804 0.0
C794 C 0.96822 0.01914 0.67563 0.0
C795 C 0.96628 0.95892 0.68675 0.0
C796 C 0.94711 0.92621 0.69149 0.0
C797 C 0.9246 0.91 0.67862 0.0
C798 C 0.90671 0.87911 0.68316 0.0
C799 C 0.9113 0.86402 0.70048 0.0
C800 C 0.93387 0.87975 0.71328 0.0
C801 C 0.95179 0.91068 0.70882 0.0
H802 H 0.89745 0.84008 0.70395 0.0
H803 H 0.07324 0.14 0.66219 0.0
H804 H 0.00413 0.15275 0.8923 0.0
H805 H 0.01171 0.08922 0.88993 0.0
H806 H -0.0001 0.09434 0.83085 0.0
H807 H 0.99134 0.15816 0.83324 0.0
H808 H 0.95962 0.04506 0.84349 0.0
H809 H 0.07993 0.07342 0.8521 0.0
H810 H 0.13138 0.10157 0.86654 0.0
H811 H 0.11 0.04772 0.91712 0.0
H812 H 0.05813 0.01959 0.90306 0.0
H813 H 0.01324 0.86219 0.83294 0.0
H814 H 0.00766 0.92641 0.83114 0.0
H815 H 0.99652 0.93275 0.89023 0.0
H816 H 0.0015 0.86875 0.89217 0.0
H817 H 0.05083 0.97562 0.87529 0.0
H818 H 0.929 0.94826 0.86537 0.0
H819 H 0.87855 0.92056 0.84978 0.0
H820 H 0.90539 0.97305 0.79951 0.0
H821 H 0.95642 1.00058 0.81471 0.0
C822 C 0.00392 0.14056 0.87874 0.0
C823 C 0.99688 0.16052 0.86295 0.0
C824 C 0.00834 0.1041 0.8774 0.0
C825 C 0.00654 0.08684 0.8602 0.0
C826 C 0.00123 0.10697 0.84429 0.0
C827 C 0.99647 0.14346 0.84566 0.0
C828 C 0.00757 0.04767 0.85907 0.0
C829 C 0.98004 0.02992 0.85009 0.0
C830 C 0.03374 0.02776 0.86803 0.0
C831 C 0.06496 0.0446 0.87655 0.0
C832 C 0.08604 0.06777 0.86634 0.0
C833 C 0.11531 0.0837 0.87445 0.0
C834 C 0.12391 0.0765 0.89274 0.0
C835 C 0.1033 0.05329 0.90295 0.0
C836 C 0.07398 0.03731 0.89491 0.0
C837 C 0.00888 0.87719 0.84551 0.0
C838 C 0.00797 0.86033 0.86271 0.0
C839 C 0.00572 0.91386 0.84445 0.0
C840 C 0.00192 0.93428 0.86056 0.0
C841 C -0.00041 0.91743 0.87765 0.0
C842 C 0.00225 0.8808 0.8787 0.0
C843 C 0.00282 0.9733 0.85983 0.0
C844 C 0.03073 0.99091 0.86848 0.0
C845 C 0.97732 0.99301 0.85032 0.0
C846 C 0.9469 0.97604 0.84111 0.0
C847 C 0.92447 0.95351 0.85092 0.0
C848 C 0.89568 0.93793 0.84217 0.0
C849 C 0.88886 0.94491 0.82365 0.0
C850 C 0.91077 0.96756 0.81384 0.0
C851 C 0.93964 0.98315 0.82252 0.0
H852 H 0.86653 0.93287 0.81691 0.0
H853 H 0.14659 0.08885 0.899 0.0
H854 H 0.87092 0.00474 0.39192 0.0
H855 H 0.93413 0.00949 0.39112 0.0
H856 H 0.93217 0.00906 0.33159 0.0
H857 H 0.86832 1.00195 0.33236 0.0
H858 H 0.98057 0.96836 0.34108 0.0
H859 H 0.95607 0.08524 0.35894 0.0
H860 H 0.92827 0.13455 0.37579 0.0
H861 H 0.97251 0.09822 0.42652 0.0
H862 H 0.0002 0.04839 0.41006 0.0
H863 H 0.1686 0.00662 0.35295 0.0
H864 H 0.10703 0.0078 0.34353 0.0
H865 H 0.07583 0.97764 0.39832 0.0
H866 H 0.137 0.97617 0.40784 0.0
H867 H 0.04717 0.04304 0.38522 0.0
H868 H 0.0652 0.92074 0.36434 0.0
H869 H 0.09467 0.87582 0.34502 0.0
H870 H 0.06523 0.93149 0.29619 0.0
H871 H 0.03592 0.97694 0.31525 0.0
C872 C 0.88373 0.00635 0.37862 0.0
C873 C 0.86453 0.00306 0.36219 0.0
C874 C 0.92008 0.00931 0.37817 0.0
C875 C 0.93817 0.01035 0.36129 0.0
C876 C 0.91892 0.0084 0.3448 0.0
C877 C 0.88241 0.00457 0.34525 0.0
C878 C 0.97718 0.01064 0.36117 0.0
C879 C 0.99511 0.98532 0.35045 0.0
C880 C 0.99655 0.03286 0.37322 0.0
C881 C 0.98012 0.06295 0.38324 0.0
C882 C 0.95973 0.08763 0.37371 0.0
C883 C 0.944 0.1157 0.38319 0.0
C884 C 0.94859 0.11949 0.40221 0.0
C885 C 0.969 0.09526 0.41179 0.0
C886 C 0.98478 0.06714 0.40237 0.0
C887 C 0.14872 0.99918 0.36285 0.0
C888 C 0.15771 0.9917 0.38124 0.0
C889 C 0.11354 1.00001 0.35744 0.0
C890 C 0.08698 0.99326 0.37032 0.0
C891 C 0.09602 0.98325 0.38825 0.0
C892 C 0.13104 0.98227 0.39364 0.0
C893 C 0.04974 0.99976 0.36591 0.0
C894 C 0.03241 0.02663 0.37567 0.0
C895 C 0.03125 0.97981 0.35259 0.0
C896 C 0.04866 0.95235 0.34121 0.0
C897 C 0.06524 0.92351 0.34949 0.0
C898 C 0.08186 0.89793 0.33859 0.0
C899 C 0.08189 0.90084 0.31939 0.0
C900 C 0.06521 0.92928 0.31106 0.0
C901 C 0.04856 0.95492 0.3219 0.0
H902 H 0.09478 0.88101 0.31098 0.0
H903 H 0.93637 0.14123 0.40953 0.0
loop_
_geom_bond_atom_site_label_1
_geom_bond_atom_site_label_2
_geom_bond_distance
_geom_bond_site_symmetry_2
_ccdc_geom_bond_type
Mg0 O7 2.141 . S
Mg0 O8 2.048 . S
Mg0 O9 2.048 . S
Mg0 O12 2.141 . S
C1 O2 1.313 . S
C1 O8 1.195 . S
O2 C1 1.313 . S
C3 O4 1.245 . S
C3 O12 1.289 . S
O4 C3 1.245 . S
C5 O6 1.245 . S
C5 O7 1.289 . S
O6 C5 1.245 . S
O7 Mg0 2.141 . S
O7 C5 1.289 . S
O8 Mg0 2.048 . S
O8 C1 1.195 . S
O9 Mg0 2.048 . S
O9 C10 1.195 . S
C10 O9 1.195 . S
C10 O11 1.313 . S
O11 C10 1.313 . S
O12 Mg0 2.141 . S
O12 C3 1.289 . S
Mg13 O20 2.141 . S
Mg13 O21 2.048 . S
Mg13 O22 2.048 . S
Mg13 O25 2.141 . S
C14 O15 1.313 . S
C14 O21 1.195 . S
O15 C14 1.313 . S
C16 O17 1.245 . S
C16 O25 1.289 . S
O17 C16 1.245 . S
C18 O19 1.245 . S
C18 O20 1.289 . S
O19 C18 1.245 . S
O20 Mg13 2.141 . S
O20 C18 1.289 . S
O21 Mg13 2.048 . S
O21 C14 1.195 . S
O22 Mg13 2.048 . S
O22 C23 1.195 . S
C23 O22 1.195 . S
C23 O24 1.313 . S
O24 C23 1.313 . S
O25 Mg13 2.141 . S
O25 C16 1.289 . S
Mg26 O33 2.141 . S
Mg26 O34 2.048 . S
Mg26 O35 2.048 . S
Mg26 O38 2.141 . S
C27 O28 1.313 . S
C27 O34 1.195 . S
O28 C27 1.313 . S
C29 O30 1.245 . S
C29 O38 1.289 . S
O30 C29 1.245 . S
C31 O32 1.245 . S
C31 O33 1.289 . S
O32 C31 1.245 . S
O33 Mg26 2.141 . S
O33 C31 1.289 . S
O34 Mg26 2.048 . S
O34 C27 1.195 . S
O35 Mg26 2.048 . S
O35 C36 1.195 . S
C36 O35 1.195 . S
C36 O37 1.313 . S
O37 C36 1.313 . S
O38 Mg26 2.141 . S
O38 C29 1.289 . S
Mg39 O46 2.141 . S
Mg39 O47 2.048 . S
Mg39 O48 2.048 . S
Mg39 O51 2.141 . S
C40 O41 1.313 . S
C40 O47 1.195 . S
O41 C40 1.313 . S
C42 O43 1.245 . S
C42 O51 1.289 . S
O43 C42 1.245 . S
C44 O45 1.245 . S
C44 O46 1.289 . S
O45 C44 1.245 . S
O46 Mg39 2.141 . S
O46 C44 1.289 . S
O47 Mg39 2.048 . S
O47 C40 1.195 . S
O48 Mg39 2.048 . S
O48 C49 1.195 . S
C49 O48 1.195 . S
C49 O50 1.313 . S
O50 C49 1.313 . S
O51 Mg39 2.141 . S
O51 C42 1.289 . S
Mg52 O59 2.141 . S
Mg52 O60 2.048 . S
Mg52 O61 2.048 . S
Mg52 O64 2.141 . S
C53 O54 1.313 . S
C53 O60 1.195 . S
O54 C53 1.313 . S
C55 O56 1.245 . S
C55 O64 1.289 . S
O56 C55 1.245 . S
C57 O58 1.245 . S
C57 O59 1.289 . S
O58 C57 1.245 . S
O59 Mg52 2.141 . S
O59 C57 1.289 . S
O60 Mg52 2.048 . S
O60 C53 1.195 . S
O61 Mg52 2.048 . S
O61 C62 1.195 . S
C62 O61 1.195 . S
C62 O63 1.313 . S
O63 C62 1.313 . S
O64 Mg52 2.141 . S
O64 C55 1.289 . S
Mg65 O72 2.141 . S
Mg65 O73 2.048 . S
Mg65 O74 2.048 . S
Mg65 O77 2.141 . S
C66 O67 1.313 . S
C66 O73 1.195 . S
O67 C66 1.313 . S
C68 O69 1.245 . S
C68 O77 1.289 . S
O69 C68 1.245 . S
C70 O71 1.245 . S
C70 O72 1.289 . S
O71 C70 1.245 . S
O72 Mg65 2.141 . S
O72 C70 1.289 . S
O73 Mg65 2.048 . S
O73 C66 1.195 . S
O74 Mg65 2.048 . S
O74 C75 1.195 . S
C75 O74 1.195 . S
C75 O76 1.313 . S
O76 C75 1.313 . S
O77 Mg65 2.141 . S
O77 C68 1.289 . S
Mg78 O85 2.141 . S
Mg78 O86 2.048 . S
Mg78 O87 2.048 . S
Mg78 O90 2.141 . S
C79 O80 1.313 . S
C79 O86 1.195 . S
O80 C79 1.313 . S
C81 O82 1.245 . S
C81 O90 1.289 . S
O82 C81 1.245 . S
C83 O84 1.245 . S
C83 O85 1.289 . S
O84 C83 1.245 . S
O85 Mg78 2.141 . S
O85 C83 1.289 . S
O86 Mg78 2.048 . S
O86 C79 1.195 . S
O87 Mg78 2.048 . S
O87 C88 1.195 . S
C88 O87 1.195 . S
C88 O89 1.313 . S
O89 C88 1.313 . S
O90 Mg78 2.141 . S
O90 C81 1.289 . S
Mg91 O98 2.141 . S
Mg91 O99 2.048 . S
Mg91 O100 2.048 . S
Mg91 O103 2.141 . S
C92 O93 1.313 . S
C92 O99 1.195 . S
O93 C92 1.313 . S
C94 O95 1.245 . S
C94 O103 1.289 . S
O95 C94 1.245 . S
C96 O97 1.245 . S
C96 O98 1.289 . S
O97 C96 1.245 . S
O98 Mg91 2.141 . S
O98 C96 1.289 . S
O99 Mg91 2.048 . S
O99 C92 1.195 . S
O100 Mg91 2.048 . S
O100 C101 1.195 . S
C101 O100 1.195 . S
C101 O102 1.313 . S
O102 C101 1.313 . S
O103 Mg91 2.141 . S
O103 C94 1.289 . S
H104 C122 0.951 . S
H105 C124 0.951 . S
H106 C126 0.950 1_655 S
H107 C127 0.950 . S
H108 C129 0.951 . S
H109 C132 0.939 1_655 S
H110 C133 0.950 . S
H111 C135 0.950 . S
H112 C136 0.950 . S
H113 C137 0.951 . S
H114 C139 0.951 . S
H115 C141 0.950 1_455 S
H116 C142 0.950 . S
H117 C144 0.951 . S
H118 C147 0.938 1_455 S
H119 C148 0.950 . S
H120 C150 0.950 . S
H121 C151 0.950 . S
C122 H104 0.951 . S
C122 C123 1.366 . S
C122 C124 1.388 . S
C123 C122 1.366 . S
C123 C127 1.385 . S
C124 H105 0.951 . S
C124 C122 1.388 . S
C124 C125 1.366 . S
C125 C124 1.366 . S
C125 C126 1.414 . S
C125 C128 1.499 . S
C126 H106 0.950 1_455 S
C126 C125 1.414 . S
C126 C127 1.374 . S
C127 H107 0.950 . S
C127 C123 1.385 . S
C127 C126 1.374 . S
C128 C125 1.499 . S
C128 C129 1.368 1_455 S
C128 C130 1.389 . S
C129 H108 0.951 . S
C129 C128 1.368 1_655 S
C129 C145 1.382 . S
C130 C128 1.389 . S
C130 C131 1.524 . S
C130 C144 1.382 . S
C131 C130 1.524 . S
C131 C132 1.397 . S
C131 C136 1.363 . S
C132 H109 0.939 1_455 S
C132 C131 1.397 . S
C132 C133 1.334 . S
C133 H110 0.950 . S
C133 C132 1.334 . S
C133 C134 1.287 . S
C134 C133 1.287 . S
C134 C135 1.524 . S
C134 H153 0.913 . S
C135 H111 0.950 . S
C135 C134 1.524 . S
C135 C136 1.415 . S
C136 H112 0.950 . S
C136 C131 1.363 . S
C136 C135 1.415 . S
C137 H113 0.951 . S
C137 C138 1.366 . S
C137 C139 1.388 . S
C138 C137 1.366 . S
C138 C142 1.385 . S
C139 H114 0.951 . S
C139 C137 1.388 . S
C139 C140 1.366 . S
C140 C139 1.366 . S
C140 C141 1.414 . S
C140 C143 1.499 . S
C141 H115 0.950 1_655 S
C141 C140 1.414 . S
C141 C142 1.374 . S
C142 H116 0.950 . S
C142 C138 1.385 . S
C142 C141 1.374 . S
C143 C140 1.499 . S
C143 C144 1.368 1_655 S
C143 C145 1.389 . S
C144 H117 0.951 . S
C144 C130 1.382 . S
C144 C143 1.368 1_455 S
C145 C129 1.382 . S
C145 C143 1.389 . S
C145 C146 1.524 . S
C146 C145 1.524 . S
C146 C147 1.397 . S
C146 C151 1.363 . S
C147 H118 0.938 1_655 S
C147 C146 1.397 . S
C147 C148 1.334 . S
C148 H119 0.950 . S
C148 C147 1.334 . S
C148 C149 1.287 . S
C149 C148 1.287 . S
C149 C150 1.524 . S
C149 H152 0.999 . S
C150 H120 0.950 . S
C150 C149 1.524 . S
C150 C151 1.415 . S
C151 H121 0.950 . S
C151 C146 1.363 . S
C151 C150 1.415 . S
H152 C149 0.999 . S
H153 C134 0.913 . S
H154 C172 0.951 . S
H155 C174 0.951 . S
H156 C176 0.950 1_545 S
H157 C177 0.950 . S
H158 C179 0.950 . S
H159 C182 0.950 . S
H160 C183 0.950 . S
H161 C185 0.950 . S
H162 C186 0.950 . S
H163 C187 0.951 . S
H164 C189 0.951 . S
H165 C191 0.950 1_565 S
H166 C192 0.950 . S
H167 C194 0.950 . S
H168 C197 0.950 . S
H169 C198 0.950 . S
H170 C200 0.950 . S
H171 C201 0.950 . S
C172 H154 0.951 . S
C172 C173 1.366 . S
C172 C174 1.388 . S
C173 C172 1.366 . S
C173 C177 1.385 . S
C174 H155 0.951 . S
C174 C172 1.388 . S
C174 C175 1.366 . S
C175 C174 1.366 . S
C175 C176 1.414 . S
C175 C178 1.499 . S
C176 H156 0.950 1_565 S
C176 C175 1.414 . S
C176 C177 1.374 . S
C177 H157 0.950 . S
C177 C173 1.385 . S
C177 C176 1.374 . S
C178 C175 1.499 . S
C178 C179 1.373 1_565 S
C178 C180 1.389 . S
C179 H158 0.950 . S
C179 C178 1.373 1_545 S
C179 C195 1.377 . S
C180 C178 1.389 . S
C180 C181 1.524 . S
C180 C194 1.377 . S
C181 C180 1.524 . S
C181 C182 1.397 . S
C181 C186 1.363 . S
C182 H159 0.950 . S
C182 C181 1.397 . S
C182 C183 1.334 . S
C183 H160 0.950 . S
C183 C182 1.334 . S
C183 C184 1.287 . S
C184 C183 1.287 . S
C184 C185 1.524 . S
C184 H203 0.913 . S
C185 H161 0.950 . S
C185 C184 1.524 . S
C185 C186 1.415 . S
C186 H162 0.950 . S
C186 C181 1.363 . S
C186 C185 1.415 . S
C187 H163 0.951 . S
C187 C188 1.366 . S
C187 C189 1.388 . S
C188 C187 1.366 . S
C188 C192 1.385 . S
C189 H164 0.951 . S
C189 C187 1.388 . S
C189 C190 1.366 . S
C190 C189 1.366 . S
C190 C191 1.414 . S
C190 C193 1.499 . S
C191 H165 0.950 1_545 S
C191 C190 1.414 . S
C191 C192 1.374 . S
C192 H166 0.950 . S
C192 C188 1.385 . S
C192 C191 1.374 . S
C193 C190 1.499 . S
C193 C194 1.373 1_545 S
C193 C195 1.389 . S
C194 H167 0.950 . S
C194 C180 1.377 . S
C194 C193 1.373 1_565 S
C195 C179 1.377 . S
C195 C193 1.389 . S
C195 C196 1.524 . S
C196 C195 1.524 . S
C196 C197 1.397 . S
C196 C201 1.363 . S
C197 H168 0.950 . S
C197 C196 1.397 . S
C197 C198 1.334 . S
C198 H169 0.950 . S
C198 C197 1.334 . S
C198 C199 1.287 . S
C199 C198 1.287 . S
C199 C200 1.524 . S
C199 H202 0.999 . S
C200 H170 0.950 . S
C200 C199 1.524 . S
C200 C201 1.415 . S
C201 H171 0.950 . S
C201 C196 1.363 . S
C201 C200 1.415 . S
H202 C199 0.999 . S
H203 C184 0.913 . S
H204 C222 0.951 . S
H205 C224 0.951 . S
H206 C226 0.950 . S
H207 C227 0.950 . S
H208 C229 0.950 . S
H209 C232 0.950 . S
H210 C233 0.950 . S
H211 C235 0.950 . S
H212 C236 0.950 . S
H213 C237 0.951 . S
H214 C239 0.951 . S
H215 C241 0.950 . S
H216 C242 0.950 . S
H217 C244 0.950 . S
H218 C247 0.950 . S
H219 C248 0.950 . S
H220 C250 0.950 . S
H221 C251 0.950 . S
C222 H204 0.951 . S
C222 C223 1.366 . S
C222 C224 1.388 . S
C223 C222 1.366 . S
C223 C227 1.385 . S
C224 H205 0.951 . S
C224 C222 1.388 . S
C224 C225 1.366 . S
C225 C224 1.366 . S
C225 C226 1.414 . S
C225 C228 1.499 . S
C226 H206 0.950 . S
C226 C225 1.414 . S
C226 C227 1.374 . S
C227 H207 0.950 . S
C227 C223 1.385 . S
C227 C226 1.374 . S
C228 C225 1.499 . S
C228 C229 1.373 1_655 S
C228 C230 1.389 . S
C229 H208 0.950 . S
C229 C228 1.373 1_455 S
C229 C245 1.377 . S
C230 C228 1.389 . S
C230 C231 1.524 . S
C230 C244 1.377 . S
C231 C230 1.524 . S
C231 C232 1.397 . S
C231 C236 1.363 . S
C232 H209 0.950 . S
C232 C231 1.397 . S
C232 C233 1.334 . S
C233 H210 0.950 . S
C233 C232 1.334 . S
C233 C234 1.287 . S
C234 C233 1.287 . S
C234 C235 1.524 . S
C234 H253 0.913 . S
C235 H211 0.950 . S
C235 C234 1.524 . S
C235 C236 1.415 . S
C236 H212 0.950 . S
C236 C231 1.363 . S
C236 C235 1.415 . S
C237 H213 0.951 . S
C237 C238 1.366 . S
C237 C239 1.388 . S
C238 C237 1.366 . S
C238 C242 1.385 . S
C239 H214 0.951 . S
C239 C237 1.388 . S
C239 C240 1.366 . S
C240 C239 1.366 . S
C240 C241 1.414 . S
C240 C243 1.499 . S
C241 H215 0.950 . S
C241 C240 1.414 . S
C241 C242 1.374 . S
C242 H216 0.950 . S
C242 C238 1.385 . S
C242 C241 1.374 . S
C243 C240 1.499 . S
C243 C244 1.373 1_455 S
C243 C245 1.389 . S
C244 H217 0.950 . S
C244 C230 1.377 . S
C244 C243 1.373 1_655 S
C245 C229 1.377 . S
C245 C243 1.389 . S
C245 C246 1.524 . S
C246 C245 1.524 . S
C246 C247 1.397 . S
C246 C251 1.363 . S
C247 H218 0.950 . S
C247 C246 1.397 . S
C247 C248 1.334 . S
C248 H219 0.950 . S
C248 C247 1.334 . S
C248 C249 1.287 . S
C249 C248 1.287 . S
C249 C250 1.524 . S
C249 H252 0.999 . S
C250 H220 0.950 . S
C250 C249 1.524 . S
C250 C251 1.415 . S
C251 H221 0.950 . S
C251 C246 1.363 . S
C251 C250 1.415 . S
H252 C249 0.999 . S
H253 C234 0.913 . S
H254 C272 0.951 . S
H255 C274 0.951 . S
H256 C276 0.974 . S
H257 C277 0.950 . S
H258 C279 0.950 . S
H259 C282 0.950 . S
H260 C283 0.950 . S
H261 C285 0.950 . S
H262 C286 0.950 . S
H263 C287 0.951 . S
H264 C289 0.951 . S
H265 C291 0.974 . S
H266 C292 0.950 . S
H267 C294 0.950 . S
H268 C297 0.950 . S
H269 C298 0.950 . S
H270 C300 0.950 . S
H271 C301 0.950 . S
C272 H254 0.951 . S
C272 C273 1.366 . S
C272 C274 1.388 . S
C273 C272 1.366 . S
C273 C277 1.385 . S
C274 H255 0.951 . S
C274 C272 1.388 . S
C274 C275 1.366 . S
C275 C274 1.366 . S
C275 C276 1.414 . S
C275 C278 1.499 . S
C276 H256 0.974 . S
C276 C275 1.414 . S
C276 C277 1.374 . S
C277 H257 0.950 . S
C277 C273 1.385 . S
C277 C276 1.374 . S
C278 C275 1.499 . S
C278 C279 1.373 1_545 S
C278 C280 1.389 . S
C279 H258 0.950 . S
C279 C278 1.373 1_565 S
C279 C295 1.377 . S
C280 C278 1.389 . S
C280 C281 1.524 . S
C280 C294 1.377 . S
C281 C280 1.524 . S
C281 C282 1.397 . S
C281 C286 1.363 . S
C282 H259 0.950 . S
C282 C281 1.397 . S
C282 C283 1.334 . S
C283 H260 0.950 . S
C283 C282 1.334 . S
C283 C284 1.287 . S
C284 C283 1.287 . S
C284 C285 1.524 . S
C284 H303 0.913 . S
C285 H261 0.950 . S
C285 C284 1.524 . S
C285 C286 1.415 . S
C286 H262 0.950 . S
C286 C281 1.363 . S
C286 C285 1.415 . S
C287 H263 0.951 . S
C287 C288 1.366 . S
C287 C289 1.388 . S
C288 C287 1.366 . S
C288 C292 1.385 . S
C289 H264 0.951 . S
C289 C287 1.388 . S
C289 C290 1.366 . S
C290 C289 1.366 . S
C290 C291 1.414 . S
C290 C293 1.499 . S
C291 H265 0.974 . S
C291 C290 1.414 . S
C291 C292 1.374 . S
C292 H266 0.950 . S
C292 C288 1.385 . S
C292 C291 1.374 . S
C293 C290 1.499 . S
C293 C294 1.373 1_565 S
C293 C295 1.389 . S
C294 H267 0.950 . S
C294 C280 1.377 . S
C294 C293 1.373 1_545 S
C295 C279 1.377 . S
C295 C293 1.389 . S
C295 C296 1.524 . S
C296 C295 1.524 . S
C296 C297 1.397 . S
C296 C301 1.363 . S
C297 H268 0.950 . S
C297 C296 1.397 . S
C297 C298 1.334 . S
C298 H269 0.950 . S
C298 C297 1.334 . S
C298 C299 1.287 . S
C299 C298 1.287 . S
C299 C300 1.524 . S
C299 H302 0.999 . S
C300 H270 0.950 . S
C300 C299 1.524 . S
C300 C301 1.415 . S
C301 H271 0.950 . S
C301 C296 1.363 . S
C301 C300 1.415 . S
H302 C299 0.999 . S
H303 C284 0.913 . S
H304 C322 0.951 . S
H305 C324 0.951 . S
H306 C326 0.950 1_455 S
H307 C327 0.950 . S
H308 C329 0.950 . S
H309 C332 0.950 . S
H310 C333 0.950 . S
H311 C335 0.950 . S
H312 C336 0.950 . S
H313 C337 0.951 . S
H314 C339 0.951 . S
H315 C341 0.950 1_655 S
H316 C342 0.950 . S
H317 C344 0.950 . S
H318 C347 0.950 . S
H319 C348 0.950 . S
H320 C350 0.950 . S
H321 C351 0.950 . S
C322 H304 0.951 . S
C322 C323 1.366 . S
C322 C324 1.388 . S
C323 C322 1.366 . S
C323 C327 1.385 . S
C324 H305 0.951 . S
C324 C322 1.388 . S
C324 C325 1.366 . S
C325 C324 1.366 . S
C325 C326 1.414 . S
C325 C328 1.499 . S
C326 H306 0.950 1_655 S
C326 C325 1.414 . S
C326 C327 1.374 . S
C327 H307 0.950 . S
C327 C323 1.385 . S
C327 C326 1.374 . S
C328 C325 1.499 . S
C328 C329 1.373 1_655 S
C328 C330 1.389 . S
C329 H308 0.950 . S
C329 C328 1.373 1_455 S
C329 C345 1.377 1_556 S
C330 C328 1.389 . S
C330 C331 1.524 . S
C330 C344 1.377 1_556 S
C331 C330 1.524 . S
C331 C332 1.397 . S
C331 C336 1.363 1_556 S
C332 H309 0.950 . S
C332 C331 1.397 . S
C332 C333 1.334 . S
C333 H310 0.950 . S
C333 C332 1.334 . S
C333 C334 1.287 . S
C334 C333 1.287 . S
C334 C335 1.524 1_556 S
C334 H353 0.913 . S
C335 H311 0.950 . S
C335 C334 1.524 1_554 S
C335 C336 1.415 . S
C336 H312 0.950 . S
C336 C331 1.363 1_554 S
C336 C335 1.415 . S
C337 H313 0.951 . S
C337 C338 1.366 . S
C337 C339 1.388 . S
C338 C337 1.366 . S
C338 C342 1.385 . S
C339 H314 0.951 . S
C339 C337 1.388 . S
C339 C340 1.366 . S
C340 C339 1.366 . S
C340 C341 1.414 . S
C340 C343 1.499 . S
C341 H315 0.950 1_455 S
C341 C340 1.414 . S
C341 C342 1.374 . S
C342 H316 0.950 . S
C342 C338 1.385 . S
C342 C341 1.374 . S
C343 C340 1.499 . S
C343 C344 1.373 1_455 S
C343 C345 1.389 . S
C344 H317 0.950 . S
C344 C330 1.377 1_554 S
C344 C343 1.373 1_655 S
C345 C329 1.377 1_554 S
C345 C343 1.389 . S
C345 C346 1.524 . S
C346 C345 1.524 . S
C346 C347 1.397 . S
C346 C351 1.363 1_554 S
C347 H318 0.950 . S
C347 C346 1.397 . S
C347 C348 1.334 . S
C348 H319 0.950 . S
C348 C347 1.334 . S
C348 C349 1.287 . S
C349 C348 1.287 . S
C349 C350 1.524 1_554 S
C349 H352 0.999 . S
C350 H320 0.950 . S
C350 C349 1.524 1_556 S
C350 C351 1.415 . S
C351 H321 0.950 . S
C351 C346 1.363 1_556 S
C351 C350 1.415 . S
H352 C349 0.999 . S
H353 C334 0.913 . S
H354 C372 0.951 . S
H355 C374 0.951 . S
H356 C376 0.950 . S
H357 C377 0.950 . S
H358 C379 0.950 . S
H359 C382 0.950 . S
H360 C383 0.950 . S
H361 C385 0.950 . S
H362 C386 0.950 . S
H363 C387 0.951 . S
H364 C389 0.951 . S
H365 C391 0.950 . S
H366 C392 0.950 . S
H367 C394 0.950 . S
H368 C397 0.950 . S
H369 C398 0.950 . S
H370 C400 0.950 . S
H371 C401 0.950 . S
C372 H354 0.951 . S
C372 C373 1.366 . S
C372 C374 1.388 . S
C373 C372 1.366 . S
C373 C377 1.385 . S
C374 H355 0.951 . S
C374 C372 1.388 . S
C374 C375 1.366 . S
C375 C374 1.366 . S
C375 C376 1.414 . S
C375 C378 1.499 . S
C376 H356 0.950 . S
C376 C375 1.414 . S
C376 C377 1.374 . S
C377 H357 0.950 . S
C377 C373 1.385 . S
C377 C376 1.374 . S
C378 C375 1.499 . S
C378 C379 1.373 . S
C378 C380 1.389 1_545 S
C379 H358 0.950 . S
C379 C378 1.373 . S
C379 C395 1.377 . S
C380 C378 1.389 1_565 S
C380 C381 1.524 . S
C380 C394 1.377 . S
C381 C380 1.524 . S
C381 C382 1.397 . S
C381 C386 1.363 . S
C382 H359 0.950 . S
C382 C381 1.397 . S
C382 C383 1.334 . S
C383 H360 0.950 . S
C383 C382 1.334 . S
C383 C384 1.287 . S
C384 C383 1.287 . S
C384 C385 1.524 . S
C384 H403 0.913 . S
C385 H361 0.950 . S
C385 C384 1.524 . S
C385 C386 1.415 . S
C386 H362 0.950 . S
C386 C381 1.363 . S
C386 C385 1.415 . S
C387 H363 0.951 . S
C387 C388 1.366 . S
C387 C389 1.388 . S
C388 C387 1.366 . S
C388 C392 1.385 . S
C389 H364 0.951 . S
C389 C387 1.388 . S
C389 C390 1.366 . S
C390 C389 1.366 . S
C390 C391 1.414 . S
C390 C393 1.499 . S
C391 H365 0.950 . S
C391 C390 1.414 . S
C391 C392 1.374 . S
C392 H366 0.950 . S
C392 C388 1.385 . S
C392 C391 1.374 . S
C393 C390 1.499 . S
C393 C394 1.373 . S
C393 C395 1.389 1_565 S
C394 H367 0.950 . S
C394 C380 1.377 . S
C394 C393 1.373 . S
C395 C379 1.377 . S
C395 C393 1.389 1_545 S
C395 C396 1.524 . S
C396 C395 1.524 . S
C396 C397 1.397 . S
C396 C401 1.363 . S
C397 H368 0.950 . S
C397 C396 1.397 . S
C397 C398 1.334 . S
C398 H369 0.950 . S
C398 C397 1.334 . S
C398 C399 1.287 . S
C399 C398 1.287 . S
C399 C400 1.524 . S
C399 H402 0.999 . S
C400 H370 0.950 . S
C400 C399 1.524 . S
C400 C401 1.415 . S
C401 H371 0.950 . S
C401 C396 1.363 . S
C401 C400 1.415 . S
H402 C399 0.999 . S
H403 C384 0.913 . S
H404 C422 0.951 . S
H405 C424 0.951 . S
H406 C426 0.950 . S
H407 C427 0.950 . S
H408 C429 0.950 . S
H409 C432 0.950 . S
H410 C433 0.950 . S
H411 C435 0.950 . S
H412 C436 0.950 . S
H413 C437 0.951 . S
H414 C439 0.951 . S
H415 C441 0.950 . S
H416 C442 0.950 . S
H417 C444 0.950 . S
H418 C447 0.950 . S
H419 C448 0.950 . S
H420 C450 0.950 . S
H421 C451 0.950 . S
C422 H404 0.951 . S
C422 C423 1.366 . S
C422 C424 1.388 . S
C423 C422 1.366 . S
C423 C427 1.385 . S
C424 H405 0.951 . S
C424 C422 1.388 . S
C424 C425 1.366 . S
C425 C424 1.366 . S
C425 C426 1.414 . S
C425 C428 1.499 . S
C426 H406 0.950 . S
C426 C425 1.414 . S
C426 C427 1.374 . S
C427 H407 0.950 . S
C427 C423 1.385 . S
C427 C426 1.374 . S
C428 C425 1.499 . S
C428 C429 1.373 . S
C428 C430 1.389 1_655 S
C429 H408 0.950 . S
C429 C428 1.373 . S
C429 C445 1.377 1_554 S
C430 C428 1.389 1_455 S
C430 C431 1.524 . S
C430 C444 1.377 1_554 S
C431 C430 1.524 . S
C431 C432 1.397 . S
C431 C436 1.363 . S
C432 H409 0.950 . S
C432 C431 1.397 . S
C432 C433 1.334 . S
C433 H410 0.950 . S
C433 C432 1.334 . S
C433 C434 1.287 . S
C434 C433 1.287 . S
C434 C435 1.524 . S
C434 H453 0.913 . S
C435 H411 0.950 . S
C435 C434 1.524 . S
C435 C436 1.415 . S
C436 H412 0.950 . S
C436 C431 1.363 . S
C436 C435 1.415 . S
C437 H413 0.951 . S
C437 C438 1.366 . S
C437 C439 1.388 . S
C438 C437 1.366 . S
C438 C442 1.385 . S
C439 H414 0.951 . S
C439 C437 1.388 . S
C439 C440 1.366 . S
C440 C439 1.366 . S
C440 C441 1.414 . S
C440 C443 1.499 . S
C441 H415 0.950 . S
C441 C440 1.414 . S
C441 C442 1.374 . S
C442 H416 0.950 . S
C442 C438 1.385 . S
C442 C441 1.374 . S
C443 C440 1.499 . S
C443 C444 1.373 . S
C443 C445 1.389 1_455 S
C444 H417 0.950 . S
C444 C430 1.377 1_556 S
C444 C443 1.373 . S
C445 C429 1.377 1_556 S
C445 C443 1.389 1_655 S
C445 C446 1.524 . S
C446 C445 1.524 . S
C446 C447 1.397 . S
C446 C451 1.363 . S
C447 H418 0.950 . S
C447 C446 1.397 . S
C447 C448 1.334 . S
C448 H419 0.950 . S
C448 C447 1.334 . S
C448 C449 1.287 . S
C449 C448 1.287 . S
C449 C450 1.524 . S
C449 H452 0.999 . S
C450 H420 0.950 . S
C450 C449 1.524 . S
C450 C451 1.415 . S
C451 H421 0.950 . S
C451 C446 1.363 . S
C451 C450 1.415 . S
H452 C449 0.999 . S
H453 C434 0.913 . S
H454 C472 0.951 . S
H455 C474 0.951 . S
H456 C476 0.950 . S
H457 C477 0.950 . S
H458 C479 0.950 . S
H459 C482 0.950 . S
H460 C483 0.950 . S
H461 C485 0.950 . S
H462 C486 0.950 . S
H463 C487 0.951 . S
H464 C489 0.951 . S
H465 C491 0.950 . S
H466 C492 0.950 . S
H467 C494 0.950 . S
H468 C497 0.950 . S
H469 C498 0.950 . S
H470 C500 0.950 . S
H471 C501 0.950 . S
C472 H454 0.951 . S
C472 C473 1.366 . S
C472 C474 1.388 . S
C473 C472 1.366 . S
C473 C477 1.385 . S
C474 H455 0.951 . S
C474 C472 1.388 . S
C474 C475 1.366 . S
C475 C474 1.366 . S
C475 C476 1.414 . S
C475 C478 1.499 . S
C476 H456 0.950 . S
C476 C475 1.414 . S
C476 C477 1.374 . S
C477 H457 0.950 . S
C477 C473 1.385 . S
C477 C476 1.374 . S
C478 C475 1.499 . S
C478 C479 1.373 1_545 S
C478 C480 1.389 . S
C479 H458 0.950 . S
C479 C478 1.373 1_565 S
C479 C495 1.377 . S
C480 C478 1.389 . S
C480 C481 1.524 . S
C480 C494 1.377 . S
C481 C480 1.524 . S
C481 C482 1.397 . S
C481 C486 1.363 . S
C482 H459 0.950 . S
C482 C481 1.397 . S
C482 C483 1.334 . S
C483 H460 0.950 . S
C483 C482 1.334 . S
C483 C484 1.287 . S
C484 C483 1.287 . S
C484 C485 1.524 . S
C484 H503 0.913 . S
C485 H461 0.950 . S
C485 C484 1.524 . S
C485 C486 1.415 . S
C486 H462 0.950 . S
C486 C481 1.363 . S
C486 C485 1.415 . S
C487 H463 0.951 . S
C487 C488 1.366 . S
C487 C489 1.388 . S
C488 C487 1.366 . S
C488 C492 1.385 . S
C489 H464 0.951 . S
C489 C487 1.388 . S
C489 C490 1.366 . S
C490 C489 1.366 . S
C490 C491 1.414 . S
C490 C493 1.499 . S
C491 H465 0.950 . S
C491 C490 1.414 . S
C491 C492 1.374 . S
C492 H466 0.950 . S
C492 C488 1.385 . S
C492 C491 1.374 . S
C493 C490 1.499 . S
C493 C494 1.373 1_565 S
C493 C495 1.389 . S
C494 H467 0.950 . S
C494 C480 1.377 . S
C494 C493 1.373 1_545 S
C495 C479 1.377 . S
C495 C493 1.389 . S
C495 C496 1.524 . S
C496 C495 1.524 . S
C496 C497 1.397 . S
C496 C501 1.363 . S
C497 H468 0.950 . S
C497 C496 1.397 . S
C497 C498 1.334 . S
C498 H469 0.950 . S
C498 C497 1.334 . S
C498 C499 1.287 . S
C499 C498 1.287 . S
C499 C500 1.524 . S
C499 H502 0.999 . S
C500 H470 0.950 . S
C500 C499 1.524 . S
C500 C501 1.415 . S
C501 H471 0.950 . S
C501 C496 1.363 . S
C501 C500 1.415 . S
H502 C499 0.999 . S
H503 C484 0.913 . S
H504 C522 0.951 . S
H505 C524 0.951 . S
H506 C526 0.950 . S
H507 C527 0.950 . S
H508 C529 0.950 . S
H509 C532 0.950 . S
H510 C533 0.950 . S
H511 C535 0.950 . S
H512 C536 0.950 . S
H513 C537 0.951 . S
H514 C539 0.951 . S
H515 C541 0.950 . S
H516 C542 0.950 . S
H517 C544 0.950 . S
H518 C547 0.950 . S
H519 C548 0.950 . S
H520 C550 0.950 . S
H521 C551 0.950 . S
C522 H504 0.951 . S
C522 C523 1.366 . S
C522 C524 1.388 . S
C523 C522 1.366 . S
C523 C527 1.385 . S
C524 H505 0.951 . S
C524 C522 1.388 . S
C524 C525 1.366 . S
C525 C524 1.366 . S
C525 C526 1.414 . S
C525 C528 1.499 . S
C526 H506 0.950 . S
C526 C525 1.414 . S
C526 C527 1.374 . S
C527 H507 0.950 . S
C527 C523 1.385 . S
C527 C526 1.374 . S
C528 C525 1.499 . S
C528 C529 1.373 . S
C528 C530 1.389 . S
C529 H508 0.950 . S
C529 C528 1.373 . S
C529 C545 1.377 . S
C530 C528 1.389 . S
C530 C531 1.524 . S
C530 C544 1.377 . S
C531 C530 1.524 . S
C531 C532 1.397 . S
C531 C536 1.363 . S
C532 H509 0.950 . S
C532 C531 1.397 . S
C532 C533 1.334 . S
C533 H510 0.950 . S
C533 C532 1.334 . S
C533 C534 1.287 . S
C534 C533 1.287 . S
C534 C535 1.524 . S
C534 H553 0.913 . S
C535 H511 0.950 . S
C535 C534 1.524 . S
C535 C536 1.415 . S
C536 H512 0.950 . S
C536 C531 1.363 . S
C536 C535 1.415 . S
C537 H513 0.951 . S
C537 C538 1.366 . S
C537 C539 1.388 . S
C538 C537 1.366 . S
C538 C542 1.385 . S
C539 H514 0.951 . S
C539 C537 1.388 . S
C539 C540 1.366 . S
C540 C539 1.366 . S
C540 C541 1.414 . S
C540 C543 1.499 . S
C541 H515 0.950 . S
C541 C540 1.414 . S
C541 C542 1.374 . S
C542 H516 0.950 . S
C542 C538 1.385 . S
C542 C541 1.374 . S
C543 C540 1.499 . S
C543 C544 1.373 . S
C543 C545 1.389 . S
C544 H517 0.950 . S
C544 C530 1.377 . S
C544 C543 1.373 . S
C545 C529 1.377 . S
C545 C543 1.389 . S
C545 C546 1.524 . S
C546 C545 1.524 . S
C546 C547 1.397 . S
C546 C551 1.363 . S
C547 H518 0.950 . S
C547 C546 1.397 . S
C547 C548 1.334 . S
C548 H519 0.950 . S
C548 C547 1.334 . S
C548 C549 1.287 . S
C549 C548 1.287 . S
C549 C550 1.524 . S
C549 H552 0.999 . S
C550 H520 0.950 . S
C550 C549 1.524 . S
C550 C551 1.415 . S
C551 H521 0.950 . S
C551 C546 1.363 . S
C551 C550 1.415 . S
H552 C549 0.999 . S
H553 C534 0.913 . S
H554 C572 0.951 . S
H555 C574 0.951 . S
H556 C576 0.950 . S
H557 C577 0.950 . S
H558 C579 0.950 . S
H559 C582 0.950 . S
H560 C583 0.950 . S
H561 C585 0.950 . S
H562 C586 0.950 . S
H563 C587 0.951 . S
H564 C589 0.951 . S
H565 C591 0.950 . S
H566 C592 0.950 . S
H567 C594 0.950 . S
H568 C597 0.950 . S
H569 C598 0.950 . S
H570 C600 0.950 . S
H571 C601 0.950 . S
C572 H554 0.951 . S
C572 C573 1.366 . S
C572 C574 1.388 . S
C573 C572 1.366 . S
C573 C577 1.385 . S
C574 H555 0.951 . S
C574 C572 1.388 . S
C574 C575 1.366 . S
C575 C574 1.366 . S
C575 C576 1.414 . S
C575 C578 1.499 . S
C576 H556 0.950 . S
C576 C575 1.414 . S
C576 C577 1.374 . S
C577 H557 0.950 . S
C577 C573 1.385 . S
C577 C576 1.374 . S
C578 C575 1.499 . S
C578 C579 1.373 . S
C578 C580 1.389 . S
C579 H558 0.950 . S
C579 C578 1.373 . S
C579 C595 1.377 . S
C580 C578 1.389 . S
C580 C581 1.524 . S
C580 C594 1.377 . S
C581 C580 1.524 . S
C581 C582 1.397 . S
C581 C586 1.363 . S
C582 H559 0.950 . S
C582 C581 1.397 . S
C582 C583 1.334 . S
C583 H560 0.950 . S
C583 C582 1.334 . S
C583 C584 1.287 . S
C584 C583 1.287 . S
C584 C585 1.524 . S
C584 H603 0.913 . S
C585 H561 0.950 . S
C585 C584 1.524 . S
C585 C586 1.415 . S
C586 H562 0.950 . S
C586 C581 1.363 . S
C586 C585 1.415 . S
C587 H563 0.951 . S
C587 C588 1.366 . S
C587 C589 1.388 . S
C588 C587 1.366 . S
C588 C592 1.385 . S
C589 H564 0.951 . S
C589 C587 1.388 . S
C589 C590 1.366 . S
C590 C589 1.366 . S
C590 C591 1.414 . S
C590 C593 1.499 . S
C591 H565 0.950 . S
C591 C590 1.414 . S
C591 C592 1.374 . S
C592 H566 0.950 . S
C592 C588 1.385 . S
C592 C591 1.374 . S
C593 C590 1.499 . S
C593 C594 1.373 . S
C593 C595 1.389 . S
C594 H567 0.950 . S
C594 C580 1.377 . S
C594 C593 1.373 . S
C595 C579 1.377 . S
C595 C593 1.389 . S
C595 C596 1.524 . S
C596 C595 1.524 . S
C596 C597 1.397 . S
C596 C601 1.363 . S
C597 H568 0.950 . S
C597 C596 1.397 . S
C597 C598 1.334 . S
C598 H569 0.950 . S
C598 C597 1.334 . S
C598 C599 1.287 . S
C599 C598 1.287 . S
C599 C600 1.524 . S
C599 H602 0.999 . S
C600 H570 0.950 . S
C600 C599 1.524 . S
C600 C601 1.415 . S
C601 H571 0.950 . S
C601 C596 1.363 . S
C601 C600 1.415 . S
H602 C599 0.999 . S
H603 C584 0.913 . S
H604 C622 0.951 . S
H605 C624 0.951 . S
H606 C626 0.950 . S
H607 C627 0.950 . S
H608 C629 0.950 . S
H609 C632 0.950 . S
H610 C633 0.950 . S
H611 C635 0.950 . S
H612 C636 0.950 . S
H613 C637 0.951 . S
H614 C639 0.951 . S
H615 C641 0.950 . S
H616 C642 0.950 . S
H617 C644 0.950 . S
H618 C647 0.950 . S
H619 C648 0.950 . S
H620 C650 0.950 . S
H621 C651 0.950 . S
C622 H604 0.951 . S
C622 C623 1.366 . S
C622 C624 1.388 . S
C623 C622 1.366 . S
C623 C627 1.385 . S
C624 H605 0.951 . S
C624 C622 1.388 . S
C624 C625 1.366 . S
C625 C624 1.366 . S
C625 C626 1.414 . S
C625 C628 1.499 . S
C626 H606 0.950 . S
C626 C625 1.414 . S
C626 C627 1.374 . S
C627 H607 0.950 . S
C627 C623 1.385 . S
C627 C626 1.374 . S
C628 C625 1.499 . S
C628 C629 1.373 . S
C628 C630 1.389 . S
C629 H608 0.950 . S
C629 C628 1.373 . S
C629 C645 1.377 . S
C630 C628 1.389 . S
C630 C631 1.524 . S
C630 C644 1.377 . S
C631 C630 1.524 . S
C631 C632 1.397 . S
C631 C636 1.363 . S
C632 H609 0.950 . S
C632 C631 1.397 . S
C632 C633 1.334 . S
C633 H610 0.950 . S
C633 C632 1.334 . S
C633 C634 1.287 . S
C634 C633 1.287 . S
C634 C635 1.524 . S
C634 H653 0.913 . S
C635 H611 0.950 . S
C635 C634 1.524 . S
C635 C636 1.415 . S
C636 H612 0.950 . S
C636 C631 1.363 . S
C636 C635 1.415 . S
C637 H613 0.951 . S
C637 C638 1.366 . S
C637 C639 1.388 . S
C638 C637 1.366 . S
C638 C642 1.385 . S
C639 H614 0.951 . S
C639 C637 1.388 . S
C639 C640 1.366 . S
C640 C639 1.366 . S
C640 C641 1.414 . S
C640 C643 1.499 . S
C641 H615 0.950 . S
C641 C640 1.414 . S
C641 C642 1.374 . S
C642 H616 0.950 . S
C642 C638 1.385 . S
C642 C641 1.374 . S
C643 C640 1.499 . S
C643 C644 1.373 . S
C643 C645 1.389 . S
C644 H617 0.950 . S
C644 C630 1.377 . S
C644 C643 1.373 . S
C645 C629 1.377 . S
C645 C643 1.389 . S
C645 C646 1.524 . S
C646 C645 1.524 . S
C646 C647 1.397 . S
C646 C651 1.363 . S
C647 H618 0.950 . S
C647 C646 1.397 . S
C647 C648 1.334 . S
C648 H619 0.950 . S
C648 C647 1.334 . S
C648 C649 1.287 . S
C649 C648 1.287 . S
C649 C650 1.524 . S
C649 H652 0.999 . S
C650 H620 0.950 . S
C650 C649 1.524 . S
C650 C651 1.415 . S
C651 H621 0.950 . S
C651 C646 1.363 . S
C651 C650 1.415 . S
H652 C649 0.999 . S
H653 C634 0.913 . S
H654 C672 0.951 . S
H655 C674 0.951 . S
H656 C676 0.950 . S
H657 C677 0.950 . S
H658 C679 0.950 . S
H659 C682 0.950 . S
H660 C683 0.950 . S
H661 C685 0.950 . S
H662 C686 0.950 . S
H663 C687 0.951 . S
H664 C689 0.951 . S
H665 C691 0.950 . S
H666 C692 0.950 . S
H667 C694 0.950 . S
H668 C697 0.950 . S
H669 C698 0.950 . S
H670 C700 0.950 . S
H671 C701 0.950 . S
C672 H654 0.951 . S
C672 C673 1.366 . S
C672 C674 1.388 . S
C673 C672 1.366 . S
C673 C677 1.385 . S
C674 H655 0.951 . S
C674 C672 1.388 . S
C674 C675 1.366 . S
C675 C674 1.366 . S
C675 C676 1.414 . S
C675 C678 1.499 . S
C676 H656 0.950 . S
C676 C675 1.414 . S
C676 C677 1.374 . S
C677 H657 0.950 . S
C677 C673 1.385 . S
C677 C676 1.374 . S
C678 C675 1.499 . S
C678 C679 1.373 . S
C678 C680 1.389 . S
C679 H658 0.950 . S
C679 C678 1.373 . S
C679 C695 1.377 . S
C680 C678 1.389 . S
C680 C681 1.524 . S
C680 C694 1.377 . S
C681 C680 1.524 . S
C681 C682 1.397 . S
C681 C686 1.363 . S
C682 H659 0.950 . S
C682 C681 1.397 . S
C682 C683 1.334 . S
C683 H660 0.950 . S
C683 C682 1.334 . S
C683 C684 1.287 . S
C684 C683 1.287 . S
C684 C685 1.524 . S
C684 H703 0.913 . S
C685 H661 0.950 . S
C685 C684 1.524 . S
C685 C686 1.415 . S
C686 H662 0.950 . S
C686 C681 1.363 . S
C686 C685 1.415 . S
C687 H663 0.951 . S
C687 C688 1.366 . S
C687 C689 1.388 . S
C688 C687 1.366 . S
C688 C692 1.385 . S
C689 H664 0.951 . S
C689 C687 1.388 . S
C689 C690 1.366 . S
C690 C689 1.366 . S
C690 C691 1.414 . S
C690 C693 1.499 . S
C691 H665 0.950 . S
C691 C690 1.414 . S
C691 C692 1.374 . S
C692 H666 0.950 . S
C692 C688 1.385 . S
C692 C691 1.374 . S
C693 C690 1.499 . S
C693 C694 1.373 . S
C693 C695 1.389 . S
C694 H667 0.950 . S
C694 C680 1.377 . S
C694 C693 1.373 . S
C695 C679 1.377 . S
C695 C693 1.389 . S
C695 C696 1.524 . S
C696 C695 1.524 . S
C696 C697 1.397 . S
C696 C701 1.363 . S
C697 H668 0.950 . S
C697 C696 1.397 . S
C697 C698 1.334 . S
C698 H669 0.950 . S
C698 C697 1.334 . S
C698 C699 1.287 . S
C699 C698 1.287 . S
C699 C700 1.524 . S
C699 H702 0.999 . S
C700 H670 0.950 . S
C700 C699 1.524 . S
C700 C701 1.415 . S
C701 H671 0.950 . S
C701 C696 1.363 . S
C701 C700 1.415 . S
H702 C699 0.999 . S
H703 C684 0.913 . S
H704 C722 0.951 . S
H705 C724 0.951 . S
H706 C726 0.950 . S
H707 C727 0.950 . S
H708 C729 0.950 . S
H709 C732 0.950 . S
H710 C733 0.950 . S
H711 C735 0.950 . S
H712 C736 0.950 . S
H713 C737 0.951 . S
H714 C739 0.951 . S
H715 C741 0.950 . S
H716 C742 0.950 . S
H717 C744 0.950 . S
H718 C747 0.950 . S
H719 C748 0.950 . S
H720 C750 0.950 . S
H721 C751 0.950 . S
C722 H704 0.951 . S
C722 C723 1.366 . S
C722 C724 1.388 . S
C723 C722 1.366 . S
C723 C727 1.385 . S
C724 H705 0.951 . S
C724 C722 1.388 . S
C724 C725 1.366 . S
C725 C724 1.366 . S
C725 C726 1.414 . S
C725 C728 1.499 . S
C726 H706 0.950 . S
C726 C725 1.414 . S
C726 C727 1.374 . S
C727 H707 0.950 . S
C727 C723 1.385 . S
C727 C726 1.374 . S
C728 C725 1.499 . S
C728 C729 1.373 1_455 S
C728 C730 1.389 . S
C729 H708 0.950 . S
C729 C728 1.373 1_655 S
C729 C745 1.377 1_545 S
C730 C728 1.389 . S
C730 C731 1.525 . S
C730 C744 1.377 1_545 S
C731 C730 1.525 . S
C731 C732 1.403 . S
C731 C736 1.354 1_545 S
C732 H709 0.950 . S
C732 C731 1.403 . S
C732 C733 1.334 . S
C733 H710 0.950 . S
C733 C732 1.334 . S
C733 C734 1.287 1_545 S
C734 C733 1.287 1_565 S
C734 C735 1.524 . S
C734 H753 0.913 . S
C735 H711 0.950 . S
C735 C734 1.524 . S
C735 C736 1.415 . S
C736 H712 0.950 . S
C736 C731 1.354 1_565 S
C736 C735 1.415 . S
C737 H713 0.951 . S
C737 C738 1.366 . S
C737 C739 1.388 . S
C738 C737 1.366 . S
C738 C742 1.385 . S
C739 H714 0.951 . S
C739 C737 1.388 . S
C739 C740 1.366 . S
C740 C739 1.366 . S
C740 C741 1.414 . S
C740 C743 1.499 . S
C741 H715 0.950 . S
C741 C740 1.414 . S
C741 C742 1.374 . S
C742 H716 0.950 . S
C742 C738 1.385 . S
C742 C741 1.374 . S
C743 C740 1.499 . S
C743 C744 1.373 1_655 S
C743 C745 1.389 . S
C744 H717 0.950 . S
C744 C730 1.377 1_565 S
C744 C743 1.373 1_455 S
C745 C729 1.377 1_565 S
C745 C743 1.389 . S
C745 C746 1.525 . S
C746 C745 1.525 . S
C746 C747 1.403 . S
C746 C751 1.354 1_565 S
C747 H718 0.950 . S
C747 C746 1.403 . S
C747 C748 1.334 . S
C748 H719 0.950 . S
C748 C747 1.334 . S
C748 C749 1.287 1_565 S
C749 C748 1.287 1_545 S
C749 C750 1.524 . S
C749 H752 0.999 . S
C750 H720 0.950 . S
C750 C749 1.524 . S
C750 C751 1.415 . S
C751 H721 0.950 . S
C751 C746 1.354 1_545 S
C751 C750 1.415 . S
H752 C749 0.999 . S
H753 C734 0.913 . S
H754 C772 0.951 . S
H755 C774 0.951 . S
H756 C776 0.950 . S
H757 C777 0.950 . S
H758 C779 0.950 . S
H759 C782 0.950 . S
H760 C783 0.950 . S
H761 C785 0.950 . S
H762 C786 0.950 . S
H763 C787 0.951 . S
H764 C789 0.951 . S
H765 C791 0.950 . S
H766 C792 0.950 . S
H767 C794 0.950 . S
H768 C797 0.950 . S
H769 C798 0.950 . S
H770 C800 0.950 . S
H771 C801 0.950 . S
C772 H754 0.951 . S
C772 C773 1.366 . S
C772 C774 1.388 . S
C773 C772 1.366 . S
C773 C777 1.385 . S
C774 H755 0.951 . S
C774 C772 1.388 . S
C774 C775 1.366 . S
C775 C774 1.366 . S
C775 C776 1.414 . S
C775 C778 1.499 . S
C776 H756 0.950 . S
C776 C775 1.414 . S
C776 C777 1.374 . S
C777 H757 0.950 . S
C777 C773 1.385 . S
C777 C776 1.374 . S
C778 C775 1.499 . S
C778 C779 1.373 . S
C778 C780 1.389 1_565 S
C779 H758 0.950 . S
C779 C778 1.373 . S
C779 C795 1.377 1_455 S
C780 C778 1.389 1_545 S
C780 C781 1.524 . S
C780 C794 1.377 1_455 S
C781 C780 1.524 . S
C781 C782 1.397 . S
C781 C786 1.363 . S
C782 H759 0.950 . S
C782 C781 1.397 . S
C782 C783 1.334 . S
C783 H760 0.950 . S
C783 C782 1.334 . S
C783 C784 1.287 . S
C784 C783 1.287 . S
C784 C785 1.524 . S
C784 H803 0.913 . S
C785 H761 0.950 . S
C785 C784 1.524 . S
C785 C786 1.415 . S
C786 H762 0.950 . S
C786 C781 1.363 . S
C786 C785 1.415 . S
C787 H763 0.951 . S
C787 C788 1.366 . S
C787 C789 1.388 . S
C788 C787 1.366 . S
C788 C792 1.385 . S
C789 H764 0.951 . S
C789 C787 1.388 . S
C789 C790 1.366 . S
C790 C789 1.366 . S
C790 C791 1.414 . S
C790 C793 1.499 . S
C791 H765 0.950 . S
C791 C790 1.414 . S
C791 C792 1.374 . S
C792 H766 0.950 . S
C792 C788 1.385 . S
C792 C791 1.374 . S
C793 C790 1.499 . S
C793 C794 1.373 . S
C793 C795 1.389 1_545 S
C794 H767 0.950 . S
C794 C780 1.377 1_655 S
C794 C793 1.373 . S
C795 C779 1.377 1_655 S
C795 C793 1.389 1_565 S
C795 C796 1.524 . S
C796 C795 1.524 . S
C796 C797 1.397 . S
C796 C801 1.363 . S
C797 H768 0.950 . S
C797 C796 1.397 . S
C797 C798 1.334 . S
C798 H769 0.950 . S
C798 C797 1.334 . S
C798 C799 1.287 . S
C799 C798 1.287 . S
C799 C800 1.524 . S
C799 H802 0.999 . S
C800 H770 0.950 . S
C800 C799 1.524 . S
C800 C801 1.415 . S
C801 H771 0.950 . S
C801 C796 1.363 . S
C801 C800 1.415 . S
H802 C799 0.999 . S
H803 C784 0.913 . S
H804 C822 0.951 . S
H805 C824 0.951 . S
H806 C826 0.950 . S
H807 C827 0.950 . S
H808 C829 0.950 . S
H809 C832 0.950 . S
H810 C833 0.950 . S
H811 C835 0.950 . S
H812 C836 0.950 . S
H813 C837 0.951 . S
H814 C839 0.951 . S
H815 C841 0.950 . S
H816 C842 0.950 . S
H817 C844 0.950 . S
H818 C847 0.950 . S
H819 C848 0.950 . S
H820 C850 0.950 . S
H821 C851 0.950 . S
C822 H804 0.951 . S
C822 C823 1.366 . S
C822 C824 1.388 . S
C823 C822 1.366 . S
C823 C827 1.385 . S
C824 H805 0.951 . S
C824 C822 1.388 . S
C824 C825 1.366 . S
C825 C824 1.366 . S
C825 C826 1.414 . S
C825 C828 1.499 . S
C826 H806 0.950 . S
C826 C825 1.414 . S
C826 C827 1.374 . S
C827 H807 0.950 . S
C827 C823 1.385 . S
C827 C826 1.374 . S
C828 C825 1.499 . S
C828 C829 1.373 . S
C828 C830 1.389 1_655 S
C829 H808 0.950 . S
C829 C828 1.373 . S
C829 C845 1.377 1_545 S
C830 C828 1.389 1_455 S
C830 C831 1.524 . S
C830 C844 1.377 1_545 S
C831 C830 1.524 . S
C831 C832 1.397 . S
C831 C836 1.363 . S
C832 H809 0.950 . S
C832 C831 1.397 . S
C832 C833 1.334 . S
C833 H810 0.950 . S
C833 C832 1.334 . S
C833 C834 1.287 . S
C834 C833 1.287 . S
C834 C835 1.524 . S
C834 H853 0.913 . S
C835 H811 0.950 . S
C835 C834 1.524 . S
C835 C836 1.415 . S
C836 H812 0.950 . S
C836 C831 1.363 . S
C836 C835 1.415 . S
C837 H813 0.951 . S
C837 C838 1.366 . S
C837 C839 1.388 . S
C838 C837 1.366 . S
C838 C842 1.385 . S
C839 H814 0.951 . S
C839 C837 1.388 . S
C839 C840 1.366 . S
C840 C839 1.366 . S
C840 C841 1.414 . S
C840 C843 1.499 . S
C841 H815 0.950 . S
C841 C840 1.414 . S
C841 C842 1.374 . S
C842 H816 0.950 . S
C842 C838 1.385 . S
C842 C841 1.374 . S
C843 C840 1.499 . S
C843 C844 1.373 . S
C843 C845 1.389 1_455 S
C844 H817 0.950 . S
C844 C830 1.377 1_565 S
C844 C843 1.373 . S
C845 C829 1.377 1_565 S
C845 C843 1.389 1_655 S
C845 C846 1.524 . S
C846 C845 1.524 . S
C846 C847 1.397 . S
C846 C851 1.363 . S
C847 H818 0.950 . S
C847 C846 1.397 . S
C847 C848 1.334 . S
C848 H819 0.950 . S
C848 C847 1.334 . S
C848 C849 1.287 . S
C849 C848 1.287 . S
C849 C850 1.524 . S
C849 H852 0.999 . S
C850 H820 0.950 . S
C850 C849 1.524 . S
C850 C851 1.415 . S
C851 H821 0.950 . S
C851 C846 1.363 . S
C851 C850 1.415 . S
H852 C849 0.999 . S
H853 C834 0.913 . S
H854 C872 0.951 . S
H855 C874 0.951 . S
H856 C876 0.950 . S
H857 C877 0.950 . S
H858 C879 0.950 . S
H859 C882 0.950 . S
H860 C883 0.950 . S
H861 C885 0.950 . S
H862 C886 0.950 1_455 S
H863 C887 0.951 . S
H864 C889 0.951 . S
H865 C891 0.950 . S
H866 C892 0.950 . S
H867 C894 0.950 . S
H868 C897 0.950 . S
H869 C898 0.950 . S
H870 C900 0.950 . S
H871 C901 0.950 1_655 S
C872 H854 0.951 . S
C872 C873 1.366 . S
C872 C874 1.388 . S
C873 C872 1.366 . S
C873 C877 1.385 . S
C874 H855 0.951 . S
C874 C872 1.388 . S
C874 C875 1.366 . S
C875 C874 1.366 . S
C875 C876 1.414 . S
C875 C878 1.499 . S
C876 H856 0.950 . S
C876 C875 1.414 . S
C876 C877 1.374 . S
C877 H857 0.950 . S
C877 C873 1.385 . S
C877 C876 1.374 . S
C878 C875 1.499 . S
C878 C879 1.373 . S
C878 C880 1.389 . S
C879 H858 0.950 . S
C879 C878 1.373 . S
C879 C895 1.377 1_665 S
C880 C878 1.389 . S
C880 C881 1.524 . S
C880 C894 1.377 1_665 S
C881 C880 1.524 . S
C881 C882 1.397 1_565 S
C881 C886 1.363 . S
C882 H859 0.950 . S
C882 C881 1.397 1_545 S
C882 C883 1.334 . S
C883 H860 0.950 . S
C883 C882 1.334 . S
C883 C884 1.287 . S
C884 C883 1.287 . S
C884 C885 1.524 1_545 S
C884 H903 0.913 . S
C885 H861 0.950 . S
C885 C884 1.524 1_565 S
C885 C886 1.415 . S
C886 H862 0.950 1_655 S
C886 C881 1.363 . S
C886 C885 1.415 . S
C887 H863 0.951 . S
C887 C888 1.366 . S
C887 C889 1.388 . S
C888 C887 1.366 . S
C888 C892 1.385 . S
C889 H864 0.951 . S
C889 C887 1.388 . S
C889 C890 1.366 . S
C890 C889 1.366 . S
C890 C891 1.414 . S
C890 C893 1.499 . S
C891 H865 0.950 . S
C891 C890 1.414 . S
C891 C892 1.374 . S
C892 H866 0.950 . S
C892 C888 1.385 . S
C892 C891 1.374 . S
C893 C890 1.499 . S
C893 C894 1.373 . S
C893 C895 1.389 . S
C894 H867 0.950 . S
C894 C880 1.377 1_445 S
C894 C893 1.373 . S
C895 C879 1.377 1_445 S
C895 C893 1.389 . S
C895 C896 1.524 . S
C896 C895 1.524 . S
C896 C897 1.397 1_545 S
C896 C901 1.363 . S
C897 H868 0.950 . S
C897 C896 1.397 1_565 S
C897 C898 1.334 . S
C898 H869 0.950 . S
C898 C897 1.334 . S
C898 C899 1.287 . S
C899 C898 1.287 . S
C899 C900 1.524 1_565 S
C899 H902 0.999 . S
C900 H870 0.950 . S
C900 C899 1.524 1_545 S
C900 C901 1.415 . S
C901 H871 0.950 1_455 S
C901 C896 1.363 . S
C901 C900 1.415 . S
H902 C899 0.999 . S
H903 C884 0.913 . S
C123 C5 1.911 . S
C138 C31 1.911 . S
C173 C44 1.911 . S
C188 C18 1.911 . S
C223 C83 1.911 . S
C238 C57 1.911 . S
C273 C70 1.911 . S
C288 C96 1.911 . S
C323 C79 1.571 . S
C338 C1 1.571 . S
C373 C14 1.571 . S
C388 C92 1.571 . S
C423 C27 1.571 . S
C438 C53 1.571 . S
C473 C66 1.570 . S
C488 C40 1.571 . S
C523 C3 1.652 . S
C538 C68 1.653 . S
C573 C81 1.653 . S
C588 C16 1.652 . S
C623 C94 1.652 . S
C638 C29 1.653 . S
C673 C42 1.653 . S
C688 C55 1.652 . S
C723 C10 1.350 . S
C738 C36 1.350 . S
C773 C49 1.351 . S
C788 C23 1.351 . S
C823 C88 1.351 . S
C838 C62 1.351 . S
C873 C101 1.351 . S
C888 C75 1.351 . S
