# Generated by pormake.
# Topology qtz-x, (6)-cn, num edge types: 1
# Building blocks:
#     Node 0, Type 0, BuildingBlock: JUFBIX_clean_sbu_0, # of connection points: 6
#     Node 1, Type 0, BuildingBlock: JUFBIX_clean_sbu_0, # of connection points: 6
#     Node 2, Type 0, BuildingBlock: JUFBIX_clean_sbu_0, # of connection points: 6
#     Edge 3, Type (0, 0), BuildingBlock: XUDNAN_clean_linker_2, # of connection points: 2
#     Edge 4, Type (0, 0), BuildingBlock: XUDNAN_clean_linker_2, # of connection points: 2
#     Edge 5, Type (0, 0), BuildingBlock: XUDNAN_clean_linker_2, # of connection points: 2
#     Edge 6, Type (0, 0), BuildingBlock: XUDNAN_clean_linker_2, # of connection points: 2
#     Edge 7, Type (0, 0), BuildingBlock: XUDNAN_clean_linker_2, # of connection points: 2
#     Edge 8, Type (0, 0), BuildingBlock: XUDNAN_clean_linker_2, # of connection points: 2
#     Edge 9, Type (0, 0), BuildingBlock: XUDNAN_clean_linker_2, # of connection points: 2
#     Edge 10, Type (0, 0), BuildingBlock: XUDNAN_clean_linker_2, # of connection points: 2
#     Edge 11, Type (0, 0), BuildingBlock: XUDNAN_clean_linker_2, # of connection points: 2
# Relax obj value: 0.469
# Max RMSD: 0.292
# Mean RMSD: 0.292
data_MOF--net-qtz-x--node1-JUFBIX_clean_sbu_0--edge1-XUDNAN_clean_linker_2
_symmetry_space_group_name_H-M    P1
_symmetry_Int_Tables_number       1
_symmetry_cell_setting            triclinic
loop_
_symmetry_equiv_pos_as_xyz
'x, y, z'
_cell_length_a     14.974604
_cell_length_b     14.941458
_cell_length_c     43.339998
_cell_angle_alpha  89.641707
_cell_angle_beta   90.217037
_cell_angle_gamma 119.86014
loop_
_atom_site_label
_atom_site_type_symbol
_atom_site_fract_x
_atom_site_fract_y
_atom_site_fract_z
_atom_type_partial_charge
Co0 Co 0.1421 0.50125 0.15042 0.0
C1 C 0.0599 0.62957 0.16452 0.0
Co2 Co 0.99065 0.42409 0.17349 0.0
C3 C 0.29277 0.55665 0.10213 0.0
C4 C 0.3484 0.66346 0.13965 0.0
N5 N 0.26832 0.57211 0.13079 0.0
N6 N 0.38348 0.63588 0.09252 0.0
C7 C 0.41897 0.70324 0.11604 0.0
H8 H 0.24103 0.49322 0.08751 0.0
H9 H 0.35157 0.70233 0.16095 0.0
C10 C 0.06553 0.29224 0.1591 0.0
N11 N 0.86377 0.35422 0.19299 0.0
C12 C 0.83608 0.37136 0.22102 0.0
C13 C 0.77971 0.26945 0.18235 0.0
N14 N 0.73808 0.30033 0.22832 0.0
C15 C 0.70258 0.23634 0.20391 0.0
C16 C 0.9766 0.4248 0.10983 0.0
O17 O 0.14415 0.37215 0.14828 0.0
O18 O 0.99349 0.30162 0.17105 0.0
O19 O 0.92393 0.39671 0.13448 0.0
O20 O 0.0741 0.47253 0.11165 0.0
O21 O 0.98739 0.54657 0.1757 0.0
H22 H 0.77575 0.23199 0.1607 0.0
H23 H 0.88751 0.43382 0.23595 0.0
O24 O 0.1372 0.62883 0.15261 0.0
O25 O 0.209 0.52917 0.18929 0.0
O26 O 0.05867 0.45182 0.21221 0.0
C27 C 0.15633 0.49945 0.21393 0.0
H28 H 0.48787 0.77839 0.11546 0.0
H29 H 0.62778 0.1675 0.20224 0.0
Co30 Co 0.44608 0.94777 0.48139 0.0
C31 C 0.65957 0.03268 0.49039 0.0
Co32 Co 0.52607 0.10371 0.50153 0.0
C33 C 0.41126 0.79864 0.43508 0.0
C34 C 0.29882 0.73283 0.47098 0.0
N35 N 0.38415 0.82048 0.46242 0.0
N36 N 0.34547 0.70151 0.4258 0.0
C37 C 0.27464 0.65955 0.44845 0.0
H38 H 0.47485 0.85524 0.42138 0.0
H39 H 0.25487 0.72406 0.49165 0.0
C40 C 0.31564 0.02483 0.49363 0.0
N41 N 0.58789 0.23111 0.52074 0.0
C42 C 0.63594 0.25363 0.54834 0.0
C43 C 0.58139 0.31529 0.51308 0.0
N44 N 0.65727 0.34714 0.55871 0.0
C45 C 0.62364 0.38664 0.53645 0.0
C46 C 0.519 0.11017 0.43856 0.0
O47 O 0.31492 0.94503 0.48305 0.0
O48 O 0.40028 0.10033 0.5026 0.0
O49 O 0.55421 0.16873 0.46188 0.0
O50 O 0.4709 1.01308 0.44233 0.0
O51 O 0.65058 0.10707 0.50057 0.0
H52 H 0.54284 0.3218 0.49275 0.0
H53 H 0.64794 0.19908 0.5617 0.0
O54 O 0.57969 0.95294 0.48012 0.0
O55 O 0.41961 0.88312 0.52041 0.0
O56 O 0.49762 0.03715 0.54101 0.0
C57 C 0.45025 0.93973 0.54415 0.0
H58 H 0.20821 0.58268 0.44833 0.0
H59 H 0.62489 0.4596 0.5376 0.0
Co60 Co 0.5728 0.61003 0.81505 0.0
C61 C 0.44129 0.39976 0.82627 0.0
Co62 Co 0.64871 0.53168 0.83694 0.0
C63 C 0.51846 0.70847 0.76673 0.0
C64 C 0.413 0.65885 0.80466 0.0
N65 N 0.50295 0.66751 0.7954 0.0
N66 N 0.44063 0.72326 0.75755 0.0
C67 C 0.37415 0.69234 0.78133 0.0
H68 H 0.58097 0.71908 0.75186 0.0
H69 H 0.37441 0.62343 0.82609 0.0
C70 C 0.77779 0.74397 0.82407 0.0
N71 N 0.71646 0.47275 0.85699 0.0
C72 C 0.69465 0.429 0.8853 0.0
C73 C 0.80638 0.47886 0.84915 0.0
N74 N 0.76847 0.41003 0.89589 0.0
C75 C 0.83873 0.44063 0.87306 0.0
C76 C 0.65374 0.52582 0.77376 0.0
O77 O 0.69487 0.73502 0.81326 0.0
O78 O 0.77624 0.66523 0.83631 0.0
O79 O 0.68295 0.4996 0.79803 0.0
O80 O 0.60324 0.573 0.77626 0.0
O81 O 0.52053 0.39949 0.83704 0.0
H82 H 0.84876 0.51448 0.82823 0.0
H83 H 0.62967 0.41858 0.8989 0.0
O84 O 0.45033 0.48414 0.81664 0.0
O85 O 0.54355 0.64714 0.85398 0.0
O86 O 0.61355 0.56417 0.87569 0.0
C87 C 0.56805 0.61612 0.87816 0.0
H88 H 0.30012 0.68874 0.78113 0.0
H89 H 0.91064 0.44 0.8741 0.0
H90 H 0.20734 0.83583 0.15309 0.0
H91 H 0.88303 0.63197 0.17366 0.0
H92 H 0.85342 0.77845 0.17157 0.0
H93 H 0.23351 0.04873 0.19945 0.0
H94 H 0.31908 0.14837 0.17314 0.0
H95 H 0.31751 0.02708 0.17477 0.0
H96 H 0.28066 1.00332 0.1161 0.0
H97 H 0.28171 0.12442 0.11432 0.0
H98 H 0.17121 1.00821 0.10064 0.0
H99 H 0.8537 0.93876 0.16763 0.0
H100 H 0.88561 0.11522 0.16565 0.0
H101 H 0.2113 0.22911 0.14916 0.0
C102 C 0.1303 0.82251 0.15705 0.0
C103 C 0.04754 0.72197 0.16354 0.0
C104 C 0.94794 0.70775 0.16881 0.0
C105 C 0.92993 0.79056 0.16751 0.0
C106 C 1.01224 0.88798 0.16111 0.0
C107 C 0.11074 0.90554 0.15621 0.0
C108 C 0.18491 0.02037 0.15101 0.0
C109 C 0.2687 0.06367 0.17609 0.0
C110 C 0.23243 0.04022 0.11858 0.0
C111 C 0.11204 0.06346 0.15401 0.0
C112 C 1.01292 0.98441 0.15951 0.0
C113 C 0.93093 1.00169 0.16345 0.0
C114 C 0.95033 0.10285 0.16235 0.0
C115 C 0.0513 0.1868 0.15753 0.0
C116 C 0.13338 0.1667 0.15282 0.0
H117 H 0.11351 0.88916 0.47373 0.0
H118 H 0.30583 0.18484 0.51843 0.0
H119 H 0.15965 0.21319 0.52144 0.0
H120 H 0.96272 0.97093 0.42843 0.0
H121 H 0.84193 0.85275 0.43315 0.0
H122 H 0.96119 0.85062 0.43434 0.0
H123 H 0.91302 0.76242 0.48802 0.0
H124 H 0.79342 0.76392 0.48695 0.0
H125 H 0.88098 0.82203 0.51882 0.0
H126 H 1.00259 0.2173 0.5192 0.0
H127 H 0.83083 0.1941 0.51377 0.0
H128 H 0.72463 0.89438 0.47126 0.0
C129 C 0.12424 0.95938 0.48425 0.0
C130 C 0.22199 0.03475 0.49572 0.0
C131 C 0.23269 0.12574 0.50931 0.0
C132 C 0.14981 0.14297 0.5112 0.0
C133 C 0.05557 0.06859 0.49954 0.0
C134 C 0.04099 0.97824 0.48649 0.0
C135 C 0.9294 0.91243 0.47595 0.0
C136 C 0.9235 0.89571 0.44088 0.0
C137 C 0.87605 0.80906 0.49349 0.0
C138 C 0.88514 0.98101 0.48508 0.0
C139 C 0.96064 0.07047 0.49856 0.0
C140 C 0.9423 0.14749 0.50881 0.0
C141 C 0.84369 0.1332 0.50549 0.0
C142 C 0.76309 0.04214 0.49208 0.0
C143 C 0.78429 0.96472 0.48161 0.0
H144 H 0.97331 0.81232 0.84999 0.0
H145 H 0.79901 0.90717 0.79103 0.0
H146 H 0.95011 0.07791 0.78526 0.0
H147 H 0.11846 0.05661 0.88919 0.0
H148 H 0.23766 0.05441 0.89066 0.0
H149 H 0.11662 0.93505 0.89009 0.0
H150 H 0.17567 0.87657 0.84199 0.0
H151 H 0.29698 0.99574 0.84243 0.0
H152 H 0.21813 0.95815 0.80818 0.0
H153 H 0.11093 0.23667 0.78592 0.0
H154 H 0.28242 0.38454 0.79278 0.0
H155 H 0.36692 0.20056 0.85134 0.0
C156 C 0.96754 0.86911 0.83579 0.0
C157 C 0.87345 0.84564 0.82108 0.0
C158 C 0.86918 0.9224 0.80275 0.0
C159 C 0.95499 0.02013 0.79919 0.0
C160 C 0.04561 0.04115 0.81402 0.0
C161 C 0.05363 0.96879 0.83195 0.0
C162 C 0.16184 1.01532 0.84554 0.0
C163 C 0.1584 1.01534 0.88098 0.0
C164 C 0.21638 0.95802 0.83383 0.0
C165 C 0.21187 0.12487 0.83253 0.0
C166 C 0.14222 0.13645 0.81439 0.0
C167 C 0.16656 0.22895 0.8 0.0
C168 C 0.2648 0.31292 0.80422 0.0
C169 C 0.33902 0.30511 0.82275 0.0
C170 C 0.31226 0.2091 0.837 0.0
H171 H 0.51356 0.49284 0.9291 0.0
H172 H 0.56638 0.78995 0.89615 0.0
H173 H 0.53137 0.83035 0.94857 0.0
H174 H 0.29929 0.44434 0.97823 0.0
H175 H 0.3315 0.37857 0.0074 0.0
H176 H 0.36506 0.37555 0.96771 0.0
H177 H 0.55605 0.44886 0.98351 0.0
H178 H 0.5233 0.45268 0.02324 0.0
H179 H 0.62105 0.56821 0.00463 0.0
H180 H 0.49815 0.84054 0.00493 0.0
H181 H 0.44693 0.81156 0.05992 0.0
H182 H 0.40119 0.50209 0.05487 0.0
C183 C 0.51808 0.56653 0.93303 0.0
C184 C 0.54369 0.63906 0.90889 0.0
C185 C 0.54696 0.73376 0.91451 0.0
C186 C 0.52771 0.75739 0.94416 0.0
C187 C 0.50331 0.68442 0.96758 0.0
C188 C 0.49643 0.59011 0.96221 0.0
C189 C 0.46295 0.52285 0.99088 0.0
C190 C 0.3585 0.42453 0.98574 0.0
C191 C 0.54579 0.49666 0.00116 0.0
C192 C 0.45361 0.59474 0.0134 0.0
C193 C 0.47853 0.68802 -0.00041 0.0
C194 C 0.4779 0.76767 0.01594 0.0
C195 C 0.44954 0.75092 0.04712 0.0
C196 C 0.4207 0.65485 0.06138 0.0
C197 C 0.4229 0.576 0.0443 0.0
H198 H 0.69371 0.2594 0.41023 0.0
H199 H 0.3682 0.04893 0.39603 0.0
H200 H 0.38605 0.09941 0.34108 0.0
H201 H 0.72411 0.45925 0.35144 0.0
H202 H 0.84683 0.47981 0.33838 0.0
H203 H 0.80927 0.44548 0.3781 0.0
H204 H 0.83734 0.29014 0.37414 0.0
H205 H 0.87474 0.31955 0.3344 0.0
H206 H 0.77067 0.19406 0.34484 0.0
H207 H 0.44122 0.15482 0.2873 0.0
H208 H 0.53148 0.20136 0.23742 0.0
H209 H 0.82451 0.36679 0.2852 0.0
C210 C 0.6259 0.2273 0.39567 0.0
C211 C 0.52924 0.15205 0.40721 0.0
C212 C 0.44255 0.10774 0.38746 0.0
C213 C 0.45188 0.13633 0.35633 0.0
C214 C 0.54871 0.20871 0.34527 0.0
C215 C 0.63441 0.25353 0.36426 0.0
C216 C 0.73163 0.31744 0.34564 0.0
C217 C 0.7809 0.43229 0.35389 0.0
C218 C 0.80804 0.27784 0.35006 0.0
C219 C 0.68776 0.2975 0.3132 0.0
C220 C 0.58178 0.23706 0.31365 0.0
C221 C 0.52416 0.20294 0.28663 0.0
C222 C 0.57632 0.229 0.25838 0.0
C223 C 0.68532 0.28702 0.25725 0.0
C224 C 0.74125 0.32381 0.28512 0.0
H225 H 0.57434 0.87526 0.71959 0.0
H226 H 0.26404 0.6156 0.72571 0.0
H227 H 0.23276 0.6425 0.67125 0.0
H228 H 0.50845 0.03528 0.67161 0.0
H229 H 0.62606 0.08942 0.64963 0.0
H230 H 0.62418 0.049 0.68898 0.0
H231 H 0.69421 0.92994 0.6713 0.0
H232 H 0.69599 0.96989 0.6319 0.0
H233 H 0.62605 0.83478 0.64194 0.0
H234 H 0.23991 0.68941 0.61547 0.0
H235 H 0.27741 0.76698 0.56316 0.0
H236 H 0.57726 1.00641 0.59437 0.0
C237 C 0.49986 0.82489 0.70935 0.0
C238 C 0.42131 0.74366 0.72659 0.0
C239 C 0.32446 0.67889 0.71278 0.0
C240 C 0.30637 0.69319 0.68191 0.0
C241 C 0.3855 0.77372 0.66541 0.0
C242 C 0.47974 0.8397 0.67873 0.0
C243 C 0.55062 0.9218 0.65603 0.0
C244 C 0.57896 0.03028 0.66723 0.0
C245 C 0.64743 0.91356 0.64993 0.0
C246 C 0.48157 0.89122 0.62787 0.0
C247 C 0.38733 0.80453 0.63365 0.0
C248 C 0.31278 0.75818 0.61074 0.0
C249 C 0.33478 0.80233 0.58116 0.0
C250 C 0.42946 0.8929 0.57507 0.0
C251 C 0.50359 0.93798 0.59871 0.0
H252 H 0.94674 0.47076 0.92751 0.0
H253 H 0.61406 0.29368 0.93582 0.0
H254 H 0.6313 0.26984 -0.0085 0.0
H255 H 1.00461 0.32101 0.98487 0.0
H256 H 0.11665 0.4351 -0.00107 0.0
H257 H 0.07796 0.42841 0.95921 0.0
H258 H 0.07205 0.59754 0.96606 0.0
H259 H 0.10953 0.604 0.00583 0.0
H260 H 0.99296 0.6051 -0.00395 0.0
H261 H 0.68431 0.27863 0.04686 0.0
H262 H 0.76962 0.31429 0.09778 0.0
H263 H 0.06782 0.48435 0.05301 0.0
C264 C 0.87754 0.42415 0.94077 0.0
C265 C 0.77895 0.38377 0.92724 0.0
C266 C 0.6903 0.32581 0.94572 0.0
C267 C 0.69934 0.31147 0.97733 0.0
C268 C 0.79763 0.35483 0.99007 0.0
C269 C 0.88525 0.40911 0.97233 0.0
C270 C 0.98165 0.45343 -0.00799 0.0
C271 C 0.04917 0.40665 0.98323 0.0
C272 C 0.04256 0.57203 0.98985 0.0
C273 C 0.93433 0.41734 0.02364 0.0
C274 C 0.82819 0.36007 0.02202 0.0
C275 C 0.76745 0.32228 0.0484 0.0
C276 C 0.81659 0.34331 0.07721 0.0
C277 C 0.92534 0.40189 0.07938 0.0
C278 C 0.98459 0.43878 0.05214 0.0
H279 H 0.06521 0.44285 0.27063 0.0
H280 H 0.36355 0.61004 0.22593 0.0
H281 H 0.44774 0.65978 0.27696 0.0
H282 H 0.10978 0.62095 0.32731 0.0
H283 H 0.03828 0.52613 0.35669 0.0
H284 H 1.00751 0.49484 0.31664 0.0
H285 H 0.03734 0.33526 0.32382 0.0
H286 H 0.06414 0.37016 0.36399 0.0
H287 H 0.15649 0.35736 0.34064 0.0
H288 H 0.49706 0.70698 0.33237 0.0
H289 H 0.50694 0.75381 0.38726 0.0
H290 H 0.17565 0.55847 0.39517 0.0
C291 C 0.14844 0.48825 0.27155 0.0
C292 C 0.20782 0.52247 0.24432 0.0
C293 C 0.31648 0.58259 0.24651 0.0
C294 C 0.36505 0.61081 0.27539 0.0
C295 C 0.30394 0.57729 0.3018 0.0
C296 C 0.19805 0.51685 0.30011 0.0
C297 C 0.14913 0.49821 0.33168 0.0
C298 C 0.07165 0.5374 0.33317 0.0
C299 C 0.09871 0.38347 0.34058 0.0
C300 C 0.24334 0.5628 0.35123 0.0
C301 C 0.33221 0.60554 0.33371 0.0
C302 C 0.42809 0.67307 0.34637 0.0
C303 C 0.4328 0.69978 0.37752 0.0
C304 C 0.34204 0.66033 0.39556 0.0
C305 C 0.24668 0.58861 0.3823 0.0
H306 H 0.59266 0.56292 0.71786 0.0
H307 H 0.76773 0.43377 0.75982 0.0
H308 H 0.803 0.38996 0.70808 0.0
H309 H 0.47207 0.37311 0.66122 0.0
H310 H 0.4758 0.46063 0.63177 0.0
H311 H 0.47268 0.48995 0.6718 0.0
H312 H 0.63903 0.66614 0.66437 0.0
H313 H 0.64308 0.63724 0.62427 0.0
H314 H 0.75248 0.67015 0.64882 0.0
H315 H 0.80888 0.3496 0.65223 0.0
H316 H 0.77958 0.30989 0.59665 0.0
H317 H 0.59966 0.46439 0.59161 0.0
C318 C 0.63952 0.52656 0.71621 0.0
C319 C 0.67771 0.50198 0.74288 0.0
C320 C 0.73778 0.45343 0.73969 0.0
C321 C 0.75863 0.4287 0.71041 0.0
C322 C 0.7193 0.45356 0.6846 0.0
C323 C 0.66096 0.50136 0.68723 0.0
C324 C 0.6222 0.51394 0.65611 0.0
C325 C 0.50369 0.4559 0.65519 0.0
C326 C 0.66691 0.62869 0.64791 0.0
C327 C 0.66596 0.46356 0.63558 0.0
C328 C 0.72264 0.43026 0.65241 0.0
C329 C 0.76555 0.37623 0.63876 0.0
C330 C 0.74816 0.35366 0.60723 0.0
C331 C 0.68767 0.3843 0.58973 0.0
C332 C 0.64817 0.44197 0.6041 0.0
loop_
_geom_bond_atom_site_label_1
_geom_bond_atom_site_label_2
_geom_bond_distance
_geom_bond_site_symmetry_2
_ccdc_geom_bond_type
Co0 N5 2.057 . S
Co0 O17 2.021 . S
Co0 O20 2.062 1_455 S
Co0 O24 2.117 . S
Co0 O25 2.020 . S
C1 O21 1.259 . S
C1 O24 1.258 1_655 S
Co2 N11 2.057 . S
Co2 O18 2.117 . S
Co2 O19 2.020 . S
Co2 O21 2.021 . S
Co2 O26 2.062 1_655 S
C3 N5 1.316 . S
C3 N6 1.347 . S
C3 H8 0.931 . S
C4 N5 1.375 . S
C4 C7 1.350 . S
C4 H9 0.930 . S
N5 Co0 2.057 . S
N5 C3 1.316 . S
N5 C4 1.375 . S
N6 C3 1.347 . S
N6 C7 1.373 . S
C7 C4 1.350 . S
C7 N6 1.373 . S
C7 H28 0.931 . S
H8 C3 0.931 . S
H9 C4 0.930 . S
C10 O17 1.259 . S
C10 O18 1.258 1_455 S
N11 Co2 2.057 . S
N11 C12 1.316 . S
N11 C13 1.375 . S
C12 N11 1.316 . S
C12 N14 1.347 . S
C12 H23 0.931 . S
C13 N11 1.375 . S
C13 C15 1.350 . S
C13 H22 0.930 . S
N14 C12 1.347 . S
N14 C15 1.373 . S
C15 C13 1.350 . S
C15 N14 1.373 . S
C15 H29 0.931 . S
C16 O19 1.256 . S
C16 O20 1.255 . S
O17 Co0 2.021 . S
O17 C10 1.259 . S
O18 Co2 2.117 . S
O18 C10 1.258 1_655 S
O19 Co2 2.020 . S
O19 C16 1.256 . S
O20 Co0 2.062 1_655 S
O20 C16 1.255 . S
O21 C1 1.259 . S
O21 Co2 2.021 . S
H22 C13 0.930 . S
H23 C12 0.931 . S
O24 Co0 2.117 . S
O24 C1 1.258 1_455 S
O25 Co0 2.020 . S
O25 C27 1.256 . S
O26 Co2 2.062 1_455 S
O26 C27 1.255 . S
C27 O25 1.256 . S
C27 O26 1.255 . S
H28 C7 0.931 . S
H29 C15 0.931 . S
Co30 N35 2.057 . S
Co30 O47 2.021 . S
Co30 O50 2.062 1_565 S
Co30 O54 2.117 . S
Co30 O55 2.020 . S
C31 O51 1.259 . S
C31 O54 1.258 1_545 S
Co32 N41 2.057 . S
Co32 O48 2.117 . S
Co32 O49 2.020 . S
Co32 O51 2.021 . S
Co32 O56 2.062 1_545 S
C33 N35 1.316 . S
C33 N36 1.347 . S
C33 H38 0.931 . S
C34 N35 1.375 . S
C34 C37 1.350 . S
C34 H39 0.930 . S
N35 Co30 2.057 . S
N35 C33 1.316 . S
N35 C34 1.375 . S
N36 C33 1.347 . S
N36 C37 1.373 . S
C37 C34 1.350 . S
C37 N36 1.373 . S
C37 H58 0.931 . S
H38 C33 0.931 . S
H39 C34 0.930 . S
C40 O47 1.259 1_545 S
C40 O48 1.258 . S
N41 Co32 2.057 . S
N41 C42 1.316 . S
N41 C43 1.375 . S
C42 N41 1.316 . S
C42 N44 1.347 . S
C42 H53 0.931 . S
C43 N41 1.375 . S
C43 C45 1.350 . S
C43 H52 0.930 . S
N44 C42 1.347 . S
N44 C45 1.373 . S
C45 C43 1.350 . S
C45 N44 1.373 . S
C45 H59 0.931 . S
C46 O49 1.256 . S
C46 O50 1.255 . S
O47 Co30 2.021 . S
O47 C40 1.259 1_565 S
O48 Co32 2.117 . S
O48 C40 1.258 . S
O49 Co32 2.020 . S
O49 C46 1.256 . S
O50 Co30 2.062 1_545 S
O50 C46 1.255 . S
O51 C31 1.259 . S
O51 Co32 2.021 . S
H52 C43 0.930 . S
H53 C42 0.931 . S
O54 Co30 2.117 . S
O54 C31 1.258 1_565 S
O55 Co30 2.020 . S
O55 C57 1.256 . S
O56 Co32 2.062 1_565 S
O56 C57 1.255 . S
C57 O55 1.256 . S
C57 O56 1.255 . S
H58 C37 0.931 . S
H59 C45 0.931 . S
Co60 N65 2.057 . S
Co60 O77 2.021 . S
Co60 O80 2.062 . S
Co60 O84 2.117 . S
Co60 O85 2.020 . S
C61 O81 1.259 . S
C61 O84 1.258 . S
Co62 N71 2.057 . S
Co62 O78 2.117 . S
Co62 O79 2.020 . S
Co62 O81 2.021 . S
Co62 O86 2.062 . S
C63 N65 1.316 . S
C63 N66 1.347 . S
C63 H68 0.931 . S
C64 N65 1.375 . S
C64 C67 1.350 . S
C64 H69 0.930 . S
N65 Co60 2.057 . S
N65 C63 1.316 . S
N65 C64 1.375 . S
N66 C63 1.347 . S
N66 C67 1.373 . S
C67 C64 1.350 . S
C67 N66 1.373 . S
C67 H88 0.931 . S
H68 C63 0.931 . S
H69 C64 0.930 . S
C70 O77 1.259 . S
C70 O78 1.258 . S
N71 Co62 2.057 . S
N71 C72 1.316 . S
N71 C73 1.375 . S
C72 N71 1.316 . S
C72 N74 1.347 . S
C72 H83 0.931 . S
C73 N71 1.375 . S
C73 C75 1.350 . S
C73 H82 0.930 . S
N74 C72 1.347 . S
N74 C75 1.373 . S
C75 C73 1.350 . S
C75 N74 1.373 . S
C75 H89 0.931 . S
C76 O79 1.256 . S
C76 O80 1.255 . S
O77 Co60 2.021 . S
O77 C70 1.259 . S
O78 Co62 2.117 . S
O78 C70 1.258 . S
O79 Co62 2.020 . S
O79 C76 1.256 . S
O80 Co60 2.062 . S
O80 C76 1.255 . S
O81 C61 1.259 . S
O81 Co62 2.021 . S
H82 C73 0.930 . S
H83 C72 0.931 . S
O84 Co60 2.117 . S
O84 C61 1.258 . S
O85 Co60 2.020 . S
O85 C87 1.256 . S
O86 Co62 2.062 . S
O86 C87 1.255 . S
C87 O85 1.256 . S
C87 O86 1.255 . S
H88 C67 0.931 . S
H89 C75 0.931 . S
H90 C102 0.930 . S
H91 C104 0.930 . S
H92 C105 0.930 . S
H93 C109 0.959 . S
H94 C109 0.959 . S
H95 C109 0.961 . S
H96 C110 0.960 . S
H97 C110 0.961 . S
H98 C110 0.959 . S
H99 C113 0.929 1_565 S
H100 C114 0.931 . S
H101 C116 0.930 . S
C102 H90 0.930 . S
C102 C103 1.399 1_455 S
C102 C107 1.399 . S
C103 C102 1.399 1_655 S
C103 C104 1.376 . S
C104 H91 0.930 . S
C104 C103 1.376 . S
C104 C105 1.388 . S
C105 H92 0.930 . S
C105 C104 1.388 . S
C105 C106 1.390 . S
C106 C105 1.390 . S
C106 C107 1.394 1_655 S
C106 C112 1.465 1_565 S
C107 C102 1.399 . S
C107 C106 1.394 1_455 S
C107 C108 1.516 1_565 S
C108 C107 1.516 1_545 S
C108 C109 1.502 . S
C108 C110 1.561 . S
C108 C111 1.526 . S
C109 H93 0.959 . S
C109 H94 0.959 . S
C109 H95 0.961 . S
C109 C108 1.502 . S
C110 H96 0.960 . S
C110 H97 0.961 . S
C110 H98 0.959 . S
C110 C108 1.561 . S
C111 C108 1.526 . S
C111 C112 1.396 1_455 S
C111 C116 1.390 . S
C112 C106 1.465 1_545 S
C112 C111 1.396 1_655 S
C112 C113 1.399 . S
C113 H99 0.929 1_545 S
C113 C112 1.399 . S
C113 C114 1.385 . S
C114 H100 0.931 . S
C114 C113 1.385 . S
C114 C115 1.389 . S
C115 C114 1.389 . S
C115 C116 1.387 1_655 S
C116 H101 0.930 . S
C116 C111 1.390 . S
C116 C115 1.387 1_455 S
H117 C129 0.930 . S
H118 C131 0.930 . S
H119 C132 0.930 . S
H120 C136 0.959 . S
H121 C136 0.959 . S
H122 C136 0.961 1_455 S
H123 C137 0.960 . S
H124 C137 0.961 . S
H125 C137 0.959 . S
H126 C140 0.929 1_455 S
H127 C141 0.931 . S
H128 C143 0.930 . S
C129 H117 0.930 . S
C129 C130 1.399 1_565 S
C129 C134 1.399 . S
C130 C129 1.399 1_545 S
C130 C131 1.376 . S
C131 H118 0.930 . S
C131 C130 1.376 . S
C131 C132 1.388 . S
C132 H119 0.930 . S
C132 C131 1.388 . S
C132 C133 1.390 . S
C133 C132 1.390 . S
C133 C134 1.394 1_545 S
C133 C139 1.465 . S
C134 C129 1.399 . S
C134 C133 1.394 1_565 S
C134 C135 1.516 1_455 S
C135 C134 1.516 1_655 S
C135 C136 1.502 . S
C135 C137 1.561 . S
C135 C138 1.526 . S
C136 H120 0.959 . S
C136 H121 0.959 . S
C136 H122 0.961 1_655 S
C136 C135 1.502 . S
C137 H123 0.960 . S
C137 H124 0.961 . S
C137 H125 0.959 . S
C137 C135 1.561 . S
C138 C135 1.526 . S
C138 C139 1.396 1_665 S
C138 C143 1.390 . S
C139 C133 1.465 . S
C139 C138 1.396 1_445 S
C139 C140 1.399 1_455 S
C140 H126 0.929 1_655 S
C140 C139 1.399 1_655 S
C140 C141 1.385 . S
C141 H127 0.931 . S
C141 C140 1.385 . S
C141 C142 1.389 . S
C142 C141 1.389 . S
C142 C143 1.387 1_545 S
C143 H128 0.930 . S
C143 C138 1.390 . S
C143 C142 1.387 1_565 S
H144 C156 0.930 . S
H145 C158 0.930 . S
H146 C159 0.930 . S
H147 C163 0.959 . S
H148 C163 0.959 1_455 S
H149 C163 0.961 1_565 S
H150 C164 0.960 . S
H151 C164 0.961 1_545 S
H152 C164 0.959 . S
H153 C167 0.929 . S
H154 C168 0.931 . S
H155 C170 0.930 . S
C156 H144 0.930 . S
C156 C157 1.399 . S
C156 C161 1.399 . S
C157 C156 1.399 . S
C157 C158 1.376 . S
C158 H145 0.930 . S
C158 C157 1.376 . S
C158 C159 1.388 . S
C159 H146 0.930 . S
C159 C158 1.388 . S
C159 C160 1.390 1_655 S
C160 C159 1.390 1_455 S
C160 C161 1.394 1_455 S
C160 C166 1.465 1_565 S
C161 C156 1.399 . S
C161 C160 1.394 1_655 S
C161 C162 1.516 1_655 S
C162 C161 1.516 1_455 S
C162 C163 1.502 1_465 S
C162 C164 1.561 . S
C162 C165 1.526 1_565 S
C163 H147 0.959 . S
C163 H148 0.959 1_655 S
C163 H149 0.961 1_545 S
C163 C162 1.502 1_645 S
C164 H150 0.960 . S
C164 H151 0.961 1_565 S
C164 H152 0.959 . S
C164 C162 1.561 . S
C165 C162 1.526 1_545 S
C165 C166 1.396 . S
C165 C170 1.390 . S
C166 C160 1.465 1_545 S
C166 C165 1.396 . S
C166 C167 1.399 . S
C167 H153 0.929 . S
C167 C166 1.399 . S
C167 C168 1.385 . S
C168 H154 0.931 . S
C168 C167 1.385 . S
C168 C169 1.389 . S
C169 C168 1.389 . S
C169 C170 1.387 . S
C170 H155 0.930 . S
C170 C165 1.390 . S
C170 C169 1.387 . S
H171 C183 0.930 . S
H172 C185 0.930 . S
H173 C186 0.930 . S
H174 C190 0.959 . S
H175 C190 0.959 . S
H176 C190 0.961 . S
H177 C191 0.960 . S
H178 C191 0.961 1_554 S
H179 C191 0.959 . S
H180 C194 0.929 . S
H181 C195 0.931 . S
H182 C197 0.930 . S
C183 H171 0.930 . S
C183 C184 1.399 . S
C183 C188 1.399 . S
C184 C183 1.399 . S
C184 C185 1.376 . S
C185 H172 0.930 . S
C185 C184 1.376 . S
C185 C186 1.388 . S
C186 H173 0.930 . S
C186 C185 1.388 . S
C186 C187 1.390 . S
C187 C186 1.390 . S
C187 C188 1.394 . S
C187 C193 1.465 . S
C188 C183 1.399 . S
C188 C187 1.394 . S
C188 C189 1.516 . S
C189 C188 1.516 . S
C189 C190 1.502 . S
C189 C191 1.561 . S
C189 C192 1.532 . S
C190 H174 0.959 . S
C190 H175 0.959 . S
C190 H176 0.961 . S
C190 C189 1.502 . S
C191 H177 0.960 . S
C191 H178 0.961 1_556 S
C191 H179 0.959 . S
C191 C189 1.561 . S
C192 C189 1.532 . S
C192 C193 1.398 . S
C192 C197 1.382 1_556 S
C193 C187 1.465 . S
C193 C192 1.398 . S
C193 C194 1.399 1_556 S
C194 H180 0.929 . S
C194 C193 1.399 1_554 S
C194 C195 1.385 . S
C195 H181 0.931 . S
C195 C194 1.385 . S
C195 C196 1.389 . S
C196 C195 1.389 . S
C196 C197 1.387 . S
C197 H182 0.930 . S
C197 C192 1.382 1_554 S
C197 C196 1.387 . S
H198 C210 0.930 . S
H199 C212 0.930 . S
H200 C213 0.930 . S
H201 C217 0.959 . S
H202 C217 0.959 . S
H203 C217 0.961 . S
H204 C218 0.960 . S
H205 C218 0.961 . S
H206 C218 0.959 . S
H207 C221 0.929 . S
H208 C222 0.931 . S
H209 C224 0.930 . S
C210 H198 0.930 . S
C210 C211 1.399 . S
C210 C215 1.399 . S
C211 C210 1.399 . S
C211 C212 1.376 . S
C212 H199 0.930 . S
C212 C211 1.376 . S
C212 C213 1.388 . S
C213 H200 0.930 . S
C213 C212 1.388 . S
C213 C214 1.390 . S
C214 C213 1.390 . S
C214 C215 1.394 . S
C214 C220 1.465 . S
C215 C210 1.399 . S
C215 C214 1.394 . S
C215 C216 1.516 . S
C216 C215 1.516 . S
C216 C217 1.502 . S
C216 C218 1.561 . S
C216 C219 1.526 . S
C217 H201 0.959 . S
C217 H202 0.959 . S
C217 H203 0.961 . S
C217 C216 1.502 . S
C218 H204 0.960 . S
C218 H205 0.961 . S
C218 H206 0.959 . S
C218 C216 1.561 . S
C219 C216 1.526 . S
C219 C220 1.396 . S
C219 C224 1.390 . S
C220 C214 1.465 . S
C220 C219 1.396 . S
C220 C221 1.399 . S
C221 H207 0.929 . S
C221 C220 1.399 . S
C221 C222 1.385 . S
C222 H208 0.931 . S
C222 C221 1.385 . S
C222 C223 1.389 . S
C223 C222 1.389 . S
C223 C224 1.387 . S
C224 H209 0.930 . S
C224 C219 1.390 . S
C224 C223 1.387 . S
H225 C237 0.930 . S
H226 C239 0.930 . S
H227 C240 0.930 . S
H228 C244 0.959 . S
H229 C244 0.959 1_545 S
H230 C244 0.961 . S
H231 C245 0.960 . S
H232 C245 0.961 . S
H233 C245 0.959 . S
H234 C248 0.929 . S
H235 C249 0.931 . S
H236 C251 0.930 . S
C237 H225 0.930 . S
C237 C238 1.399 . S
C237 C242 1.399 . S
C238 C237 1.399 . S
C238 C239 1.376 . S
C239 H226 0.930 . S
C239 C238 1.376 . S
C239 C240 1.388 . S
C240 H227 0.930 . S
C240 C239 1.388 . S
C240 C241 1.390 . S
C241 C240 1.390 . S
C241 C242 1.394 . S
C241 C247 1.465 . S
C242 C237 1.399 . S
C242 C241 1.394 . S
C242 C243 1.516 . S
C243 C242 1.516 . S
C243 C244 1.502 . S
C243 C245 1.561 . S
C243 C246 1.526 . S
C244 H228 0.959 . S
C244 H229 0.959 1_565 S
C244 H230 0.961 . S
C244 C243 1.502 . S
C245 H231 0.960 . S
C245 H232 0.961 . S
C245 H233 0.959 . S
C245 C243 1.561 . S
C246 C243 1.526 . S
C246 C247 1.396 . S
C246 C251 1.390 . S
C247 C241 1.465 . S
C247 C246 1.396 . S
C247 C248 1.399 . S
C248 H234 0.929 . S
C248 C247 1.399 . S
C248 C249 1.385 . S
C249 H235 0.931 . S
C249 C248 1.385 . S
C249 C250 1.389 . S
C250 C249 1.389 . S
C250 C251 1.387 . S
C251 H236 0.930 . S
C251 C246 1.390 . S
C251 C250 1.387 . S
H252 C264 0.930 . S
H253 C266 0.930 . S
H254 C267 0.930 1_554 S
H255 C271 0.959 . S
H256 C271 0.959 . S
H257 C271 0.961 1_556 S
H258 C272 0.960 1_556 S
H259 C272 0.961 1_455 S
H260 C272 0.959 . S
H261 C275 0.929 . S
H262 C276 0.931 . S
H263 C278 0.930 . S
C264 H252 0.930 . S
C264 C265 1.399 . S
C264 C269 1.399 . S
C265 C264 1.399 . S
C265 C266 1.376 . S
C266 H253 0.930 . S
C266 C265 1.376 . S
C266 C267 1.388 . S
C267 H254 0.930 1_556 S
C267 C266 1.388 . S
C267 C268 1.390 1_556 S
C268 C267 1.390 1_554 S
C268 C269 1.394 1_554 S
C268 C274 1.465 . S
C269 C264 1.399 . S
C269 C268 1.394 1_556 S
C269 C270 1.516 1_556 S
C270 C269 1.516 1_554 S
C270 C271 1.502 . S
C270 C272 1.561 . S
C270 C273 1.526 . S
C271 H255 0.959 . S
C271 H256 0.959 . S
C271 H257 0.961 1_554 S
C271 C270 1.502 . S
C272 H258 0.960 1_554 S
C272 H259 0.961 1_655 S
C272 H260 0.959 . S
C272 C270 1.561 . S
C273 C270 1.526 . S
C273 C274 1.396 . S
C273 C278 1.390 . S
C274 C268 1.465 . S
C274 C273 1.396 . S
C274 C275 1.399 . S
C275 H261 0.929 . S
C275 C274 1.399 . S
C275 C276 1.385 . S
C276 H262 0.931 . S
C276 C275 1.385 . S
C276 C277 1.389 . S
C277 C276 1.389 . S
C277 C278 1.387 . S
C278 H263 0.930 . S
C278 C273 1.390 . S
C278 C277 1.387 . S
H279 C291 0.930 . S
H280 C293 0.930 . S
H281 C294 0.930 . S
H282 C298 0.959 . S
H283 C298 0.959 . S
H284 C298 0.961 . S
H285 C299 0.960 . S
H286 C299 0.961 . S
H287 C299 0.959 . S
H288 C302 0.929 . S
H289 C303 0.931 . S
H290 C305 0.930 . S
C291 H279 0.930 . S
C291 C292 1.399 . S
C291 C296 1.399 . S
C292 C291 1.399 . S
C292 C293 1.376 . S
C293 H280 0.930 . S
C293 C292 1.376 . S
C293 C294 1.388 . S
C294 H281 0.930 . S
C294 C293 1.388 . S
C294 C295 1.390 . S
C295 C294 1.390 . S
C295 C296 1.394 . S
C295 C301 1.465 . S
C296 C291 1.399 . S
C296 C295 1.394 . S
C296 C297 1.516 . S
C297 C296 1.516 . S
C297 C298 1.502 . S
C297 C299 1.561 . S
C297 C300 1.526 . S
C298 H282 0.959 . S
C298 H283 0.959 . S
C298 H284 0.961 . S
C298 C297 1.502 . S
C299 H285 0.960 . S
C299 H286 0.961 . S
C299 H287 0.959 . S
C299 C297 1.561 . S
C300 C297 1.526 . S
C300 C301 1.396 . S
C300 C305 1.390 . S
C301 C295 1.465 . S
C301 C300 1.396 . S
C301 C302 1.399 . S
C302 H288 0.929 . S
C302 C301 1.399 . S
C302 C303 1.385 . S
C303 H289 0.931 . S
C303 C302 1.385 . S
C303 C304 1.389 . S
C304 C303 1.389 . S
C304 C305 1.387 . S
C305 H290 0.930 . S
C305 C300 1.390 . S
C305 C304 1.387 . S
H306 C318 0.930 . S
H307 C320 0.930 . S
H308 C321 0.930 . S
H309 C325 0.959 . S
H310 C325 0.959 . S
H311 C325 0.961 . S
H312 C326 0.960 . S
H313 C326 0.961 . S
H314 C326 0.959 . S
H315 C329 0.929 . S
H316 C330 0.931 . S
H317 C332 0.930 . S
C318 H306 0.930 . S
C318 C319 1.399 . S
C318 C323 1.399 . S
C319 C318 1.399 . S
C319 C320 1.376 . S
C320 H307 0.930 . S
C320 C319 1.376 . S
C320 C321 1.388 . S
C321 H308 0.930 . S
C321 C320 1.388 . S
C321 C322 1.390 . S
C322 C321 1.390 . S
C322 C323 1.394 . S
C322 C328 1.465 . S
C323 C318 1.399 . S
C323 C322 1.394 . S
C323 C324 1.516 . S
C324 C323 1.516 . S
C324 C325 1.502 . S
C324 C326 1.561 . S
C324 C327 1.526 . S
C325 H309 0.959 . S
C325 H310 0.959 . S
C325 H311 0.961 . S
C325 C324 1.502 . S
C326 H312 0.960 . S
C326 H313 0.961 . S
C326 H314 0.959 . S
C326 C324 1.561 . S
C327 C324 1.526 . S
C327 C328 1.396 . S
C327 C332 1.390 . S
C328 C322 1.465 . S
C328 C327 1.396 . S
C328 C329 1.399 . S
C329 H315 0.929 . S
C329 C328 1.399 . S
C329 C330 1.385 . S
C330 H316 0.931 . S
C330 C329 1.385 . S
C330 C331 1.389 . S
C331 C330 1.389 . S
C331 C332 1.387 . S
C332 H317 0.930 . S
C332 C327 1.390 . S
C332 C331 1.387 . S
C103 C1 1.709 . S
C115 C10 1.719 1_655 S
C130 C40 1.718 . S
C142 C31 1.707 . S
C157 C70 1.719 . S
C169 C61 1.710 . S
C184 C87 1.048 . S
C196 N6 1.067 . S
C211 C46 0.882 . S
C223 N14 0.818 . S
C238 N66 1.035 . S
C250 C57 1.082 . S
C265 N74 0.851 . S
C277 C16 0.947 . S
C292 C27 1.081 . S
C304 N36 1.036 . S
C319 C76 0.951 . S
C331 N44 0.863 . S
