# Generated by pormake.
# Topology mon, (4)-cn, num edge types: 1
# Building blocks:
#     Node 0, Type 0, BuildingBlock: TATPOV_clean_sbu_0, # of connection points: 4
#     Node 1, Type 0, BuildingBlock: TATPOV_clean_sbu_0, # of connection points: 4
#     Node 2, Type 0, BuildingBlock: TATPOV_clean_sbu_0, # of connection points: 4
#     Node 3, Type 0, BuildingBlock: TATPOV_clean_sbu_0, # of connection points: 4
#     Node 4, Type 0, BuildingBlock: TATPOV_clean_sbu_0, # of connection points: 4
#     Node 5, Type 0, BuildingBlock: TATPOV_clean_sbu_0, # of connection points: 4
#     Node 6, Type 0, BuildingBlock: TATPOV_clean_sbu_0, # of connection points: 4
#     Node 7, Type 0, BuildingBlock: TATPOV_clean_sbu_0, # of connection points: 4
#     Node 8, Type 0, BuildingBlock: TATPOV_clean_sbu_0, # of connection points: 4
#     Node 9, Type 0, BuildingBlock: TATPOV_clean_sbu_0, # of connection points: 4
#     Node 10, Type 0, BuildingBlock: TATPOV_clean_sbu_0, # of connection points: 4
#     Node 11, Type 0, BuildingBlock: TATPOV_clean_sbu_0, # of connection points: 4
#     Node 12, Type 0, BuildingBlock: TATPOV_clean_sbu_0, # of connection points: 4
#     Node 13, Type 0, BuildingBlock: TATPOV_clean_sbu_0, # of connection points: 4
#     Node 14, Type 0, BuildingBlock: TATPOV_clean_sbu_0, # of connection points: 4
#     Node 15, Type 0, BuildingBlock: TATPOV_clean_sbu_0, # of connection points: 4
#     Edge 16, Type (0, 0), BuildingBlock: KIFKEQ_clean_linker_1, # of connection points: 2
#     Edge 17, Type (0, 0), BuildingBlock: KIFKEQ_clean_linker_1, # of connection points: 2
#     Edge 18, Type (0, 0), BuildingBlock: KIFKEQ_clean_linker_1, # of connection points: 2
#     Edge 19, Type (0, 0), BuildingBlock: KIFKEQ_clean_linker_1, # of connection points: 2
#     Edge 20, Type (0, 0), BuildingBlock: KIFKEQ_clean_linker_1, # of connection points: 2
#     Edge 21, Type (0, 0), BuildingBlock: KIFKEQ_clean_linker_1, # of connection points: 2
#     Edge 22, Type (0, 0), BuildingBlock: KIFKEQ_clean_linker_1, # of connection points: 2
#     Edge 23, Type (0, 0), BuildingBlock: KIFKEQ_clean_linker_1, # of connection points: 2
#     Edge 24, Type (0, 0), BuildingBlock: KIFKEQ_clean_linker_1, # of connection points: 2
#     Edge 25, Type (0, 0), BuildingBlock: KIFKEQ_clean_linker_1, # of connection points: 2
#     Edge 26, Type (0, 0), BuildingBlock: KIFKEQ_clean_linker_1, # of connection points: 2
#     Edge 27, Type (0, 0), BuildingBlock: KIFKEQ_clean_linker_1, # of connection points: 2
#     Edge 28, Type (0, 0), BuildingBlock: KIFKEQ_clean_linker_1, # of connection points: 2
#     Edge 29, Type (0, 0), BuildingBlock: KIFKEQ_clean_linker_1, # of connection points: 2
#     Edge 30, Type (0, 0), BuildingBlock: KIFKEQ_clean_linker_1, # of connection points: 2
#     Edge 31, Type (0, 0), BuildingBlock: KIFKEQ_clean_linker_1, # of connection points: 2
#     Edge 32, Type (0, 0), BuildingBlock: KIFKEQ_clean_linker_1, # of connection points: 2
#     Edge 33, Type (0, 0), BuildingBlock: KIFKEQ_clean_linker_1, # of connection points: 2
#     Edge 34, Type (0, 0), BuildingBlock: KIFKEQ_clean_linker_1, # of connection points: 2
#     Edge 35, Type (0, 0), BuildingBlock: KIFKEQ_clean_linker_1, # of connection points: 2
#     Edge 36, Type (0, 0), BuildingBlock: KIFKEQ_clean_linker_1, # of connection points: 2
#     Edge 37, Type (0, 0), BuildingBlock: KIFKEQ_clean_linker_1, # of connection points: 2
#     Edge 38, Type (0, 0), BuildingBlock: KIFKEQ_clean_linker_1, # of connection points: 2
#     Edge 39, Type (0, 0), BuildingBlock: KIFKEQ_clean_linker_1, # of connection points: 2
#     Edge 40, Type (0, 0), BuildingBlock: KIFKEQ_clean_linker_1, # of connection points: 2
#     Edge 41, Type (0, 0), BuildingBlock: KIFKEQ_clean_linker_1, # of connection points: 2
#     Edge 42, Type (0, 0), BuildingBlock: KIFKEQ_clean_linker_1, # of connection points: 2
#     Edge 43, Type (0, 0), BuildingBlock: KIFKEQ_clean_linker_1, # of connection points: 2
#     Edge 44, Type (0, 0), BuildingBlock: KIFKEQ_clean_linker_1, # of connection points: 2
#     Edge 45, Type (0, 0), BuildingBlock: KIFKEQ_clean_linker_1, # of connection points: 2
#     Edge 46, Type (0, 0), BuildingBlock: KIFKEQ_clean_linker_1, # of connection points: 2
#     Edge 47, Type (0, 0), BuildingBlock: KIFKEQ_clean_linker_1, # of connection points: 2
# Relax obj value: 0.114
# Max RMSD: 0.120
# Mean RMSD: 0.120
data_MOF--net-mon--node1-TATPOV_clean_sbu_0--edge1-KIFKEQ_clean_linker_1
_symmetry_space_group_name_H-M    P1
_symmetry_Int_Tables_number       1
_symmetry_cell_setting            triclinic
loop_
_symmetry_equiv_pos_as_xyz
'x, y, z'
_cell_length_a     34.083194
_cell_length_b     34.148059
_cell_length_c     87.780366
_cell_angle_alpha  89.777159
_cell_angle_beta   90.147586
_cell_angle_gamma 90.141869
loop_
_atom_site_label
_atom_site_type_symbol
_atom_site_fract_x
_atom_site_fract_y
_atom_site_fract_z
_atom_type_partial_charge
Zn0 Zn 0.08385 0.93404 0.55531 0.0
Zn1 Zn 0.0783 0.00527 0.56749 0.0
O2 O 0.123 0.9803 0.58037 0.0
O3 O 0.12662 0.92162 0.57006 0.0
O4 O 0.07684 0.0626 0.57373 0.0
O5 O 0.09938 0.95311 0.53494 0.0
O6 O 0.09045 0.0119 0.54449 0.0
C7 C 0.13879 0.9465 0.57962 0.0
C8 C 0.00742 0.94995 0.56795 0.0
O9 O 0.0234 0.98184 0.57231 0.0
O10 O 0.02677 0.92552 0.56019 0.0
C11 C 0.04671 0.08129 0.57816 0.0
O12 O 0.01351 0.06235 0.58014 0.0
C13 C 0.09903 0.98984 0.53329 0.0
Zn14 Zn 0.29321 0.80705 0.83188 0.0
Zn15 Zn 0.21642 0.79963 0.83408 0.0
O16 O 0.22722 0.85493 0.84329 0.0
O17 O 0.29186 0.8581 0.84267 0.0
O18 O 0.15704 0.79581 0.83328 0.0
O19 O 0.29427 0.80609 0.80932 0.0
O20 O 0.23163 0.79113 0.8114 0.0
C21 C 0.25919 0.87312 0.84602 0.0
C22 C 0.2683 0.73863 0.84889 0.0
O23 O 0.23394 0.75293 0.84755 0.0
O24 O 0.29749 0.75578 0.84295 0.0
C25 C 0.13475 0.80497 0.8443 0.0
O26 O 0.15054 0.8171 0.85711 0.0
C27 C 0.26235 0.7955 0.80325 0.0
Zn28 Zn 0.53055 0.96719 0.08279 0.0
Zn29 Zn 0.52909 0.89338 0.07881 0.0
O30 O 0.47848 0.90446 0.09136 0.0
O31 O 0.48958 0.9647 0.09904 0.0
O32 O 0.52929 0.83377 0.07671 0.0
O33 O 0.51529 0.97814 0.06135 0.0
O34 O 0.5248 0.91563 0.05662 0.0
C35 C 0.46895 0.9339 0.0994 0.0
C36 C 0.60224 0.93599 0.09169 0.0
O37 O 0.58267 0.90437 0.08992 0.0
O38 O 0.58701 0.96848 0.0882 0.0
C39 C 0.51538 0.81234 0.08733 0.0
O40 O 0.50069 0.82915 0.09947 0.0
C41 C 0.51736 0.95036 0.05192 0.0
Zn42 Zn 0.20396 0.35921 0.29533 0.0
Zn43 Zn 0.27296 0.33484 0.30637 0.0
O44 O 0.23606 0.29394 0.31578 0.0
O45 O 0.17869 0.31627 0.30807 0.0
O46 O 0.32744 0.31923 0.31326 0.0
O47 O 0.21955 0.34754 0.27399 0.0
O48 O 0.27654 0.32814 0.2831 0.0
C49 C 0.19876 0.29125 0.3154 0.0
C50 C 0.24158 0.4184 0.31245 0.0
O51 O 0.26577 0.39076 0.31511 0.0
O52 O 0.21284 0.41301 0.30357 0.0
C53 C 0.34202 0.32879 0.32607 0.0
O54 O 0.3206 0.34888 0.33568 0.0
C55 C 0.25344 0.33371 0.27185 0.0
Zn56 Zn 0.00914 0.11084 0.40592 0.0
Zn57 Zn 0.01201 0.03703 0.39715 0.0
O58 O 0.04387 0.06444 0.38014 0.0
O59 O 0.03344 0.1264 0.38599 0.0
O60 O 0.01506 0.97885 0.39289 0.0
O61 O 0.04363 0.10229 0.42394 0.0
O62 O 0.03877 0.03981 0.4182 0.0
C63 C 0.04782 0.10085 0.37724 0.0
C64 C 0.9331 0.07715 0.40286 0.0
O65 O 0.95238 0.04913 0.39695 0.0
O66 O 0.9509 0.1063 0.40845 0.0
C67 C 0.9909 0.96011 0.38457 0.0
O68 O 0.9629 0.97936 0.37749 0.0
C69 C 0.0507 0.06686 0.42707 0.0
Zn70 Zn 0.2401 0.6945 0.66563 0.0
Zn71 Zn 0.31539 0.70165 0.6627 0.0
O72 O 0.29491 0.75017 0.65084 0.0
O73 O 0.23105 0.74322 0.65352 0.0
O74 O 0.37487 0.70583 0.66037 0.0
O75 O 0.2414 0.69956 0.68782 0.0
O76 O 0.30539 0.70725 0.68619 0.0
C77 C 0.26008 0.76261 0.64861 0.0
C78 C 0.26971 0.62788 0.65149 0.0
O79 O 0.30147 0.64761 0.65265 0.0
O80 O 0.23799 0.64168 0.65654 0.0
C81 C 0.3918 0.69285 0.6485 0.0
O82 O 0.37041 0.67655 0.63778 0.0
C83 C 0.27403 0.70605 0.69417 0.0
Zn84 Zn 0.4987 0.99422 0.90927 0.0
Zn85 Zn 0.50246 0.06906 0.91179 0.0
O86 O 0.44978 0.05988 0.9002 0.0
O87 O 0.45414 0.99724 0.89455 0.0
O88 O 0.50577 0.12867 0.91275 0.0
O89 O 0.48833 0.98686 0.93133 0.0
O90 O 0.5015 0.04948 0.93443 0.0
C91 C 0.43642 0.02959 0.89348 0.0
C92 C 0.57033 0.02096 0.89788 0.0
O93 O 0.55343 0.05382 0.89995 0.0
O94 O 0.55354 0.9896 0.90193 0.0
C95 C 0.51705 0.14733 0.90094 0.0
O96 O 0.52631 0.12749 0.88867 0.0
C97 C 0.49384 0.01571 0.94006 0.0
Zn98 Zn 0.31711 0.15884 0.14727 0.0
Zn99 Zn 0.24307 0.16724 0.14266 0.0
O100 O 0.25405 0.10795 0.13825 0.0
O101 O 0.31323 0.10085 0.1479 0.0
O102 O 0.18362 0.17198 0.14201 0.0
O103 O 0.31867 0.18836 0.16667 0.0
O104 O 0.25444 0.18797 0.16437 0.0
C105 C 0.28268 0.08603 0.14213 0.0
C106 C 0.30025 0.20753 0.12142 0.0
O107 O 0.2651 0.20534 0.12633 0.0
O108 O 0.32714 0.18747 0.12761 0.0
C109 C 0.16073 0.14989 0.13443 0.0
O110 O 0.17579 0.12311 0.12549 0.0
C111 C 0.28527 0.19641 0.17198 0.0
Zn112 Zn 0.72206 0.13548 0.1772 0.0
Zn113 Zn 0.797 0.14315 0.17232 0.0
O114 O 0.77428 0.1911 0.1608 0.0
O115 O 0.71099 0.18361 0.16484 0.0
O116 O 0.85563 0.14738 0.1685 0.0
O117 O 0.72784 0.14188 0.19935 0.0
O118 O 0.79141 0.14909 0.19596 0.0
C119 C 0.73907 0.20304 0.15917 0.0
C120 C 0.75084 0.06888 0.16232 0.0
O121 O 0.78239 0.08914 0.16259 0.0
O122 O 0.71996 0.08212 0.16832 0.0
C123 C 0.86844 0.1471 0.15489 0.0
O124 O 0.84317 0.14417 0.14362 0.0
C125 C 0.76158 0.1484 0.20476 0.0
Zn126 Zn 0.84103 0.73301 0.64467 0.0
Zn127 Zn 0.76633 0.73407 0.63805 0.0
O128 O 0.78536 0.67851 0.63136 0.0
O129 O 0.8443 0.67532 0.64155 0.0
O130 O 0.70675 0.73301 0.63565 0.0
O131 O 0.83467 0.75433 0.66552 0.0
O132 O 0.77151 0.74823 0.6609 0.0
C133 C 0.81644 0.65912 0.63441 0.0
C134 C 0.82209 0.78662 0.6204 0.0
O135 O 0.78661 0.7781 0.62366 0.0
O136 O 0.85022 0.76965 0.62712 0.0
C137 C 0.68753 0.70204 0.63886 0.0
O138 O 0.70684 0.67035 0.64285 0.0
C139 C 0.79956 0.7567 0.66997 0.0
Zn140 Zn 0.79228 0.28751 0.33887 0.0
Zn141 Zn 0.71386 0.28703 0.33794 0.0
O142 O 0.72849 0.34531 0.3425 0.0
O143 O 0.79317 0.34518 0.34144 0.0
O144 O 0.65489 0.28901 0.33548 0.0
O145 O 0.7966 0.26478 0.31793 0.0
O146 O 0.73193 0.26462 0.31732 0.0
C147 C 0.76126 0.36338 0.34307 0.0
C148 C 0.75588 0.23801 0.36174 0.0
O149 O 0.72374 0.24741 0.35529 0.0
O150 O 0.78814 0.25228 0.3572 0.0
C151 C 0.63101 0.2877 0.34658 0.0
O152 O 0.64479 0.28444 0.36052 0.0
C153 C 0.76483 0.25725 0.31106 0.0
Zn154 Zn 0.69211 0.82785 0.80407 0.0
Zn155 Zn 0.76698 0.81957 0.81294 0.0
O156 O 0.74203 0.76954 0.82196 0.0
O157 O 0.68092 0.77559 0.81404 0.0
O158 O 0.8251 0.81576 0.81768 0.0
O159 O 0.706 0.82955 0.7821 0.0
O160 O 0.76712 0.82018 0.78938 0.0
C161 C 0.70709 0.75625 0.82105 0.0
C162 C 0.71767 0.88998 0.82354 0.0
O163 O 0.74953 0.87044 0.82383 0.0
O164 O 0.68877 0.87802 0.81575 0.0
C165 C 0.83957 0.80495 0.83039 0.0
O166 O 0.81585 0.79517 0.84156 0.0
C167 C 0.7417 0.82452 0.77882 0.0
Zn168 Zn 0.56631 0.37222 0.0623 0.0
Zn169 Zn 0.55406 0.44058 0.07625 0.0
O170 O 0.5989 0.41609 0.08921 0.0
O171 O 0.60884 0.36032 0.07725 0.0
O172 O 0.54899 0.49669 0.08364 0.0
O173 O 0.58088 0.39573 0.04247 0.0
O174 O 0.56652 0.45141 0.05364 0.0
C175 C 0.61756 0.38392 0.08781 0.0
C176 C 0.48742 0.38121 0.07438 0.0
O177 O 0.50028 0.41352 0.07972 0.0
O178 O 0.50957 0.35952 0.06651 0.0
C179 C 0.51887 0.51688 0.08019 0.0
O180 O 0.4895 0.49979 0.0731 0.0
C181 C 0.57706 0.43246 0.04186 0.0
Zn182 Zn 0.06139 0.531 0.56086 0.0
Zn183 Zn 0.05495 0.45505 0.56365 0.0
O184 O 0.00405 0.47368 0.57443 0.0
O185 O 0.00855 0.53729 0.57049 0.0
O186 O 0.05306 0.39568 0.56497 0.0
O187 O 0.06482 0.52951 0.53849 0.0
O188 O 0.0544 0.46596 0.54014 0.0
C189 C 0.98972 0.50803 0.57554 0.0
C190 C 0.1252 0.50055 0.57755 0.0
O191 O 0.10697 0.46842 0.57521 0.0
O192 O 0.1111 0.53245 0.57269 0.0
C193 C 0.04466 0.37759 0.57724 0.0
O194 O 0.03611 0.39794 0.58946 0.0
C195 C 0.0595 0.49686 0.5321 0.0
Zn196 Zn 0.51758 0.59625 0.91552 0.0
Zn197 Zn 0.51284 0.52297 0.90463 0.0
O198 O 0.55492 0.54654 0.89019 0.0
O199 O 0.55948 0.60584 0.89997 0.0
O200 O 0.50819 0.46502 0.89972 0.0
O201 O 0.53422 0.5798 0.93618 0.0
O202 O 0.53039 0.51991 0.92711 0.0
C203 C 0.57059 0.58053 0.89042 0.0
C204 C 0.44082 0.57722 0.9042 0.0
O205 O 0.45705 0.54482 0.90074 0.0
O206 O 0.46045 0.60372 0.9108 0.0
C207 C 0.5383 0.44306 0.89996 0.0
O208 O 0.57297 0.45899 0.90218 0.0
C209 C 0.53789 0.54331 0.93803 0.0
Zn210 Zn 0.0213 0.50979 0.38821 0.0
Zn211 Zn 0.00998 0.5853 0.3918 0.0
O212 O 0.95885 0.56767 0.38093 0.0
O213 O 0.97369 0.50704 0.37474 0.0
O214 O 0.00341 0.64392 0.39392 0.0
O215 O 0.0173 0.50026 0.41063 0.0
O216 O 0.01508 0.56414 0.41388 0.0
C217 C 0.95031 0.53574 0.3742 0.0
C218 C 0.08392 0.55357 0.37599 0.0
O219 O 0.06127 0.58204 0.37912 0.0
O220 O 0.07432 0.51886 0.37934 0.0
C221 C 0.99947 0.664 0.38177 0.0
O222 O 0.9987 0.64572 0.36862 0.0
C223 C 0.01666 0.52951 0.41942 0.0
H224 H 0.10602 0.13091 0.56964 0.0
H225 H 0.99016 0.12994 0.58951 0.0
H226 H 0.10605 0.20235 0.56995 0.0
H227 H 0.99022 0.20146 0.58975 0.0
H228 H 0.02179 0.32986 0.60076 0.0
H229 H 0.0235 0.25841 0.60187 0.0
H230 H 0.07054 0.2554 0.55627 0.0
H231 H 0.06904 0.32679 0.55515 0.0
C232 C 0.08068 0.14588 0.57419 0.0
C233 C 0.04803 0.12462 0.57951 0.0
C234 C 0.08059 0.18686 0.57426 0.0
C235 C 0.04803 0.20761 0.57977 0.0
C236 C 0.01586 0.18637 0.58551 0.0
C237 C 0.01578 0.14536 0.58532 0.0
C238 C 0.0325 0.31399 0.59096 0.0
C239 C 0.04526 0.33412 0.57786 0.0
C240 C 0.03332 0.27301 0.59158 0.0
C241 C 0.04725 0.2512 0.57918 0.0
C242 C 0.0601 0.27134 0.5661 0.0
C243 C 0.05899 0.31228 0.56542 0.0
H244 H 0.88065 0.78243 0.85584 0.0
H245 H 0.89649 0.8248 0.80981 0.0
H246 H 0.95169 0.78069 0.85931 0.0
H247 H 0.96734 0.82385 0.81339 0.0
H248 H 0.09266 0.7808 0.81942 0.0
H249 H 0.02163 0.77921 0.81627 0.0
H250 H 0.00756 0.82422 0.86185 0.0
H251 H 0.07862 0.82502 0.86513 0.0
C252 C 0.89924 0.79148 0.84647 0.0
C253 C 0.88279 0.80374 0.83255 0.0
C254 C 0.94001 0.79068 0.84849 0.0
C255 C 0.96534 0.80212 0.83663 0.0
C256 C 0.94881 0.81428 0.8227 0.0
C257 C 0.9081 0.81507 0.82068 0.0
C258 C 0.07445 0.79024 0.8288 0.0
C259 C 0.09143 0.80312 0.84252 0.0
C260 C 0.03366 0.78955 0.82696 0.0
C261 C 0.00877 0.80175 0.83878 0.0
C262 C 0.02576 0.81419 0.85257 0.0
C263 C 0.06658 0.81486 0.85441 0.0
H264 H 0.58159 0.56586 0.08469 0.0
H265 H 0.45529 0.56531 0.08056 0.0
H266 H 0.58099 0.63745 0.08631 0.0
H267 H 0.45476 0.63673 0.08242 0.0
H268 H 0.47163 0.76031 0.10372 0.0
H269 H 0.47277 0.6889 0.10255 0.0
H270 H 0.56179 0.69448 0.06774 0.0
H271 H 0.56032 0.76622 0.06871 0.0
C272 C 0.55369 0.58095 0.08432 0.0
C273 C 0.51846 0.55989 0.08253 0.0
C274 C 0.55341 0.62193 0.08511 0.0
C275 C 0.51785 0.64264 0.08443 0.0
C276 C 0.48259 0.62153 0.08304 0.0
C277 C 0.48291 0.58065 0.08196 0.0
C278 C 0.49143 0.74638 0.09578 0.0
C279 C 0.51586 0.76897 0.08629 0.0
C280 C 0.49195 0.70548 0.09509 0.0
C281 C 0.51742 0.68614 0.08509 0.0
C282 C 0.54207 0.70864 0.07565 0.0
C283 C 0.54104 0.74966 0.07613 0.0
H284 H 0.59344 0.29981 0.31941 0.0
H285 H 0.57158 0.28303 0.36747 0.0
H286 H 0.52341 0.30755 0.31493 0.0
H287 H 0.50128 0.28978 0.36291 0.0
H288 H 0.38464 0.35112 0.35105 0.0
H289 H 0.45389 0.33919 0.35619 0.0
H290 H 0.46233 0.27244 0.31461 0.0
H291 H 0.39336 0.28523 0.30928 0.0
C292 C 0.57367 0.29743 0.32901 0.0
C293 C 0.58819 0.29093 0.34381 0.0
C294 C 0.53341 0.30162 0.32642 0.0
C295 C 0.50659 0.29927 0.33855 0.0
C296 C 0.5211 0.2923 0.35333 0.0
C297 C 0.56142 0.28821 0.35593 0.0
C298 C 0.40121 0.33372 0.34304 0.0
C299 C 0.38347 0.31935 0.3297 0.0
C300 C 0.44091 0.32668 0.34603 0.0
C301 C 0.46383 0.305 0.33578 0.0
C302 C 0.44579 0.28984 0.32262 0.0
C303 C 0.40613 0.29698 0.31961 0.0
H304 H 0.94457 0.91093 0.36772 0.0
H305 H 0.04143 0.91101 0.39959 0.0
H306 H 0.94589 0.83953 0.36721 0.0
H307 H 0.04303 0.83966 0.3989 0.0
H308 H 0.00556 0.7119 0.40668 0.0
H309 H 0.00344 0.78337 0.40719 0.0
H310 H 0.98698 0.78564 0.35839 0.0
H311 H 0.98855 0.71435 0.35789 0.0
C312 C 0.96631 0.89577 0.37454 0.0
C313 C 0.99287 0.91676 0.3837 0.0
C314 C 0.96715 0.85481 0.3742 0.0
C315 C 0.99449 0.83385 0.38305 0.0
C316 C 0.02124 0.85487 0.39212 0.0
C317 C 0.02051 0.89582 0.39241 0.0
C318 C 0.00134 0.72764 0.39607 0.0
C319 C 0.99722 0.70736 0.38225 0.0
C320 C 0.00039 0.76862 0.39635 0.0
C321 C 0.99513 0.79025 0.38282 0.0
C322 C 0.99065 0.76991 0.36903 0.0
C323 C 0.99175 0.72899 0.36875 0.0
H324 H 0.44409 0.73718 0.66498 0.0
H325 H 0.43751 0.65467 0.62788 0.0
H326 H 0.51543 0.74091 0.66186 0.0
H327 H 0.50857 0.65822 0.62489 0.0
H328 H 0.63874 0.63866 0.63883 0.0
H329 H 0.56735 0.63774 0.6408 0.0
H330 H 0.56603 0.76407 0.64193 0.0
H331 H 0.63774 0.76511 0.6398 0.0
C332 C 0.45781 0.71986 0.65618 0.0
C333 C 0.43507 0.69555 0.64671 0.0
C334 C 0.49862 0.7222 0.65433 0.0
C335 C 0.5176 0.69982 0.64314 0.0
C336 C 0.49484 0.67558 0.63369 0.0
C337 C 0.45408 0.67368 0.63538 0.0
C338 C 0.62327 0.66629 0.6394 0.0
C339 C 0.64396 0.70196 0.63914 0.0
C340 C 0.58234 0.66574 0.64048 0.0
C341 C 0.56107 0.70082 0.64156 0.0
C342 C 0.58167 0.73656 0.64123 0.0
C343 C 0.62267 0.73714 0.6399 0.0
H344 H 0.596 0.38925 0.89502 0.0
H345 H 0.47157 0.3989 0.90339 0.0
H346 H 0.59032 0.31795 0.89525 0.0
H347 H 0.46603 0.32742 0.90373 0.0
H348 H 0.48607 0.19941 0.92142 0.0
H349 H 0.49022 0.27106 0.92068 0.0
H350 H 0.55841 0.26487 0.8794 0.0
H351 H 0.55411 0.19359 0.88004 0.0
C352 C 0.5674 0.37618 0.89683 0.0
C353 C 0.53424 0.39981 0.89915 0.0
C354 C 0.56414 0.33532 0.89692 0.0
C355 C 0.52775 0.31707 0.89956 0.0
C356 C 0.49452 0.34065 0.90181 0.0
C357 C 0.49767 0.38157 0.90149 0.0
C358 C 0.50197 0.21336 0.9122 0.0
C359 C 0.51977 0.19075 0.9008 0.0
C360 C 0.50413 0.25437 0.91173 0.0
C361 C 0.52465 0.27358 0.89997 0.0
C362 C 0.54265 0.25093 0.88866 0.0
C363 C 0.54002 0.21006 0.88901 0.0
H364 H 0.12015 0.19759 0.15386 0.0
H365 H 0.10348 0.10714 0.12016 0.0
H366 H 0.04963 0.19864 0.15852 0.0
H367 H 0.0331 0.10781 0.12499 0.0
H368 H 0.90475 0.14508 0.12717 0.0
H369 H 0.9748 0.14806 0.12181 0.0
H370 H 0.99922 0.15694 0.16999 0.0
H371 H 0.929 0.15456 0.17535 0.0
C372 C 0.10147 0.17803 0.14739 0.0
C373 C 0.11757 0.15223 0.13663 0.0
C374 C 0.06103 0.17844 0.15015 0.0
C375 C 0.03564 0.15319 0.14219 0.0
C376 C 0.05169 0.12795 0.13122 0.0
C377 C 0.09213 0.12744 0.1285 0.0
C378 C 0.925 0.14776 0.13664 0.0
C379 C 0.91117 0.14949 0.15171 0.0
C380 C 0.96524 0.14927 0.13356 0.0
C381 C 0.99272 0.15265 0.14546 0.0
C382 C 0.97887 0.15479 0.16053 0.0
C383 C 0.9386 0.15317 0.16362 0.0
H384 H 0.08469 0.11715 0.44734 0.0
H385 H 0.06056 0.99441 0.43968 0.0
H386 H 0.10858 0.10184 0.47285 0.0
H387 H 0.08339 0.97931 0.46525 0.0
H388 H 0.13656 0.95539 0.50961 0.0
H389 H 0.13679 0.97683 0.48314 0.0
H390 H 0.07502 0.08214 0.49588 0.0
H391 H 0.07598 0.06123 0.52244 0.0
C392 C 0.08489 0.08685 0.45104 0.0
C393 C 0.07019 0.05701 0.4416 0.0
C394 C 0.09848 0.07815 0.46566 0.0
C395 C 0.09753 0.03948 0.47112 0.0
C396 C 0.08497 0.00939 0.46134 0.0
C397 C 0.07157 0.01805 0.4467 0.0
C398 C 0.12374 0.98351 0.50678 0.0
C399 C 0.10555 0.00635 0.518 0.0
C400 C 0.12379 0.99571 0.49163 0.0
C401 C 0.10525 0.03076 0.48738 0.0
C402 C 0.08976 0.05505 0.49879 0.0
C403 C 0.0901 0.04302 0.51401 0.0
H404 H 0.21207 0.74557 0.78895 0.0
H405 H 0.31381 0.81861 0.78127 0.0
H406 H 0.21724 0.72038 0.76317 0.0
H407 H 0.31793 0.79499 0.75517 0.0
H408 H 0.33699 0.71906 0.71337 0.0
H409 H 0.33428 0.7398 0.74004 0.0
H410 H 0.20748 0.73856 0.73793 0.0
H411 H 0.21016 0.71622 0.71201 0.0
C412 C 0.23499 0.7569 0.78161 0.0
C413 C 0.26237 0.78418 0.78707 0.0
C414 C 0.23806 0.74245 0.76682 0.0
C415 C 0.26812 0.75557 0.75705 0.0
C416 C 0.29496 0.78359 0.76245 0.0
C417 C 0.29227 0.79753 0.77734 0.0
C418 C 0.30866 0.72272 0.71874 0.0
C419 C 0.2739 0.71584 0.71056 0.0
C420 C 0.30703 0.73495 0.73395 0.0
C421 C 0.2706 0.74091 0.74116 0.0
C422 C 0.23605 0.73354 0.73294 0.0
C423 C 0.23767 0.72089 0.71794 0.0
H424 H 0.49488 0.01986 0.03942 0.0
H425 H 0.52758 0.90179 0.02731 0.0
H426 H 0.48741 0.03654 0.0127 0.0
H427 H 0.52085 0.91891 0.00035 0.0
H428 H 0.46644 0.9511 0.95479 0.0
H429 H 0.47104 0.93542 0.98172 0.0
H430 H 0.52637 0.04732 -0.00995 0.0
H431 H 0.52104 0.06348 0.96295 0.0
C432 C 0.50061 0.99739 0.03105 0.0
C433 C 0.51189 0.9594 0.03553 0.0
C434 C 0.49655 0.00714 0.01569 0.0
C435 C 0.50371 0.9792 0.00437 0.0
C436 C 0.51469 0.94105 0.00881 0.0
C437 C 0.51869 0.93122 0.02424 0.0
C438 C 0.47939 0.97258 0.96235 0.0
C439 C 0.49355 0.00855 0.9567 0.0
C440 C 0.4823 0.96337 0.97779 0.0
C441 C 0.49952 0.98983 -0.01198 0.0
C442 C 0.51271 0.02634 0.98247 0.0
C443 C 0.50968 0.03565 0.96696 0.0
H444 H 0.2188 0.21696 0.18736 0.0
H445 H 0.34542 0.22353 0.18961 0.0
H446 H 0.21452 0.25347 0.21108 0.0
H447 H 0.34103 0.26085 0.21309 0.0
H448 H 0.21655 0.35056 0.24508 0.0
H449 H 0.2264 0.31911 0.22058 0.0
H450 H 0.32247 0.25234 0.23957 0.0
H451 H 0.31324 0.28454 0.26404 0.0
C452 C 0.24569 0.22623 0.19289 0.0
C453 C 0.28241 0.2173 0.18661 0.0
C454 C 0.24325 0.24746 0.2064 0.0
C455 C 0.27747 0.26032 0.21388 0.0
C456 C 0.31418 0.25109 0.20767 0.0
C457 C 0.31663 0.22977 0.19419 0.0
C458 C 0.24019 0.32963 0.24397 0.0
C459 C 0.26389 0.31972 0.25652 0.0
C460 C 0.2456 0.31138 0.22997 0.0
C461 C 0.27468 0.28271 0.22824 0.0
C462 C 0.29986 0.27441 0.24055 0.0
C463 C 0.29458 0.29285 0.25456 0.0
H464 H 0.70158 0.1667 0.2235 0.0
H465 H 0.82788 0.1557 0.22274 0.0
H466 H 0.70437 0.19065 0.24916 0.0
H467 H 0.83064 0.17784 0.24925 0.0
H468 H 0.82191 0.26413 0.28951 0.0
H469 H 0.82336 0.23406 0.26437 0.0
H470 H 0.71381 0.17499 0.27431 0.0
H471 H 0.71129 0.20729 0.2989 0.0
C472 C 0.73007 0.16853 0.22895 0.0
C473 C 0.76457 0.15919 0.22103 0.0
C474 C 0.73163 0.18207 0.24384 0.0
C475 C 0.76768 0.18596 0.25145 0.0
C476 C 0.80234 0.1757 0.24369 0.0
C477 C 0.80081 0.1627 0.22855 0.0
C478 C 0.79812 0.24482 0.28622 0.0
C479 C 0.76612 0.23854 0.29599 0.0
C480 C 0.79914 0.22719 0.27188 0.0
C481 C 0.76856 0.20225 0.26716 0.0
C482 C 0.73735 0.19489 0.27729 0.0
C483 C 0.73586 0.21329 0.29143 0.0
H484 H 0.85148 0.78767 0.6903 0.0
H485 H 0.72951 0.75518 0.68511 0.0
H486 H 0.83883 0.80867 0.71626 0.0
H487 H 0.71711 0.77507 0.71129 0.0
H488 H 0.6985 0.84485 0.75389 0.0
H489 H 0.71334 0.83177 0.72731 0.0
H490 H 0.82417 0.78063 0.74069 0.0
H491 H 0.80983 0.79486 0.76728 0.0
C492 C 0.82197 0.78482 0.69473 0.0
C493 C 0.79148 0.76964 0.68567 0.0
C494 C 0.81479 0.79673 0.70964 0.0
C495 C 0.77702 0.79348 0.71586 0.0
C496 C 0.74644 0.77853 0.70676 0.0
C497 C 0.75357 0.76687 0.69179 0.0
C498 C 0.72626 0.83122 0.75114 0.0
C499 C 0.75292 0.82063 0.76268 0.0
C500 C 0.73461 0.82346 0.73592 0.0
C501 C 0.76967 0.80469 0.7319 0.0
C502 C 0.79702 0.79544 0.74339 0.0
C503 C 0.78879 0.8035 0.75863 0.0
H504 H 0.53867 0.4672 0.94765 0.0
H505 H 0.56601 0.58511 0.9621 0.0
H506 H 0.55562 0.44284 0.9729 0.0
H507 H 0.58408 0.56057 -0.01279 0.0
H508 H 0.55225 0.50586 0.03421 0.0
H509 H 0.54899 0.53404 0.00874 0.0
H510 H 0.60873 0.43281 -0.00928 0.0
H511 H 0.61094 0.40408 0.01613 0.0
C512 C 0.54879 0.48782 0.95615 0.0
C513 C 0.55057 0.52807 0.95296 0.0
C514 C 0.55883 0.47385 0.97059 0.0
C515 C 0.57114 0.49985 0.98204 0.0
C516 C 0.57416 0.53994 0.97867 0.0
C517 C 0.56387 0.55393 0.96428 0.0
C518 C 0.56531 0.48997 0.02486 0.0
C519 C 0.58126 0.45253 0.0271 0.0
C520 C 0.56359 0.50616 0.01026 0.0
C521 C 0.57812 0.48534 -0.0023 0.0
C522 C 0.59649 0.4491 0.00014 0.0
C523 C 0.59792 0.43278 0.01469 0.0
H524 H 0.09196 0.54888 0.51252 0.0
H525 H 0.02035 0.44438 0.51388 0.0
H526 H 0.08032 0.55506 0.48535 0.0
H527 H 0.00774 0.45112 0.48649 0.0
H528 H 0.02599 0.45978 0.4343 0.0
H529 H 0.03748 0.44905 0.46135 0.0
H530 H 0.02584 0.57328 0.46932 0.0
H531 H 0.01543 0.58423 0.44215 0.0
C532 C 0.07385 0.52705 0.50696 0.0
C533 C 0.05679 0.49629 0.51533 0.0
C534 C 0.06686 0.53084 0.49141 0.0
C535 C 0.04236 0.50415 0.48382 0.0
C536 C 0.02675 0.4722 0.49203 0.0
C537 C 0.03403 0.46823 0.50768 0.0
C538 C 0.02564 0.48486 0.44182 0.0
C539 C 0.02013 0.52298 0.43604 0.0
C540 C 0.03205 0.4786 0.45735 0.0
C541 C 0.033 0.5103 0.46746 0.0
C542 C 0.02613 0.54828 0.46176 0.0
C543 C 0.01988 0.55458 0.44621 0.0
H544 H 0.19586 0.8084 0.65127 0.0
H545 H 0.30717 0.80134 0.62803 0.0
H546 H 0.17812 0.86501 0.63607 0.0
H547 H 0.28924 0.8588 0.61263 0.0
H548 H 0.19809 0.89648 0.57381 0.0
H549 H 0.23844 0.86233 0.59238 0.0
H550 H 0.19001 0.9337 0.62822 0.0
H551 H 0.14911 0.96798 0.60943 0.0
C552 C 0.21685 0.81938 0.64303 0.0
C553 C 0.25256 0.79995 0.64059 0.0
C554 C 0.2069 0.85228 0.63447 0.0
C555 C 0.23225 0.86641 0.62313 0.0
C556 C 0.26908 0.84843 0.62127 0.0
C557 C 0.2793 0.81558 0.63004 0.0
C558 C 0.19692 0.90569 0.5856 0.0
C559 C 0.16995 0.93425 0.59027 0.0
C560 C 0.22036 0.88636 0.59623 0.0
C561 C 0.217 0.89492 0.61179 0.0
C562 C 0.19284 0.92623 0.61629 0.0
C563 C 0.16957 0.94595 0.60557 0.0
H564 H 0.25794 0.88967 0.87608 0.0
H565 H 0.26664 0.94258 0.83159 0.0
H566 H 0.28957 0.94677 0.88731 0.0
H567 H 0.29766 0.00035 0.84275 0.0
H568 H 0.36341 0.0398 0.90516 0.0
H569 H 0.30236 0.01672 0.89328 0.0
H570 H 0.36563 0.99432 0.85161 0.0
H571 H 0.4259 0.01687 0.86355 0.0
C572 C 0.26438 0.91468 0.86886 0.0
C573 C 0.25988 0.91199 0.85303 0.0
C574 C 0.28262 0.94747 0.87526 0.0
C575 C 0.29691 0.9778 0.86586 0.0
C576 C 0.28748 0.97722 0.85026 0.0
C577 C 0.26938 0.94436 0.84387 0.0
C578 C 0.36357 0.03174 0.89323 0.0
C579 C 0.39903 0.03017 0.88517 0.0
C580 C 0.32879 0.01824 0.88648 0.0
C581 C 0.32912 0.00338 0.87154 0.0
C582 C 0.36403 0.00597 0.86305 0.0
C583 C 0.3987 0.01884 0.86987 0.0
H584 H 0.45993 0.96036 0.128 0.0
H585 H 0.39565 0.91111 0.09027 0.0
H586 H 0.399 0.97948 0.13997 0.0
H587 H 0.33365 0.93081 0.10221 0.0
H588 H 0.27351 0.05616 0.11378 0.0
H589 H 0.30956 -0.0007 0.10475 0.0
H590 H 0.33515 0.96629 0.15127 0.0
H591 H 0.30047 0.02417 0.16017 0.0
C592 C 0.43248 0.95234 0.12257 0.0
C593 C 0.43234 0.93451 0.10824 0.0
C594 C 0.39739 0.96306 0.12946 0.0
C595 C 0.36127 0.95686 0.12202 0.0
C596 C 0.36098 0.93605 0.1082 0.0
C597 C 0.39636 0.92459 0.10141 0.0
C598 C 0.28485 0.03546 0.12207 0.0
C599 C 0.28487 0.0447 0.13762 0.0
C600 C 0.30566 0.00281 0.11691 0.0
C601 C 0.32636 0.97902 0.1273 0.0
C602 C 0.32035 0.98466 0.14298 0.0
C603 C 0.30018 0.01759 0.1481 0.0
H604 H 0.12638 0.10844 0.37769 0.0
H605 H 0.02434 0.12753 0.3496 0.0
H606 H 0.16512 0.15052 0.36099 0.0
H607 H 0.06325 0.16806 0.33227 0.0
H608 H 0.12113 0.28577 0.32222 0.0
H609 H 0.08696 0.23225 0.33465 0.0
H610 H 0.19559 0.16747 0.33774 0.0
H611 H 0.23022 0.22222 0.32579 0.0
C612 C 0.11284 0.12024 0.36748 0.0
C613 C 0.0727 0.11465 0.36476 0.0
C614 C 0.13495 0.14445 0.3579 0.0
C615 C 0.1172 0.1634 0.3454 0.0
C616 C 0.07766 0.15482 0.34201 0.0
C617 C 0.05547 0.1311 0.35174 0.0
C618 C 0.13778 0.2601 0.32552 0.0
C619 C 0.17843 0.25836 0.32309 0.0
C620 C 0.11805 0.22907 0.3325 0.0
C621 C 0.13833 0.19514 0.33707 0.0
C622 C 0.17904 0.19323 0.3345 0.0
C623 C 0.19892 0.2246 0.32766 0.0
H624 H 0.8817 0.10252 0.42413 0.0
H625 H 0.88835 0.05902 0.37816 0.0
H626 H 0.81729 0.13026 0.41873 0.0
H627 H 0.82496 0.08832 0.37244 0.0
H628 H 0.78913 0.24336 0.38944 0.0
H629 H 0.81575 0.18905 0.40386 0.0
H630 H 0.75632 0.10763 0.37398 0.0
H631 H 0.72946 0.16302 0.35951 0.0
C632 C 0.86859 0.09761 0.41303 0.0
C633 C 0.89016 0.07956 0.40143 0.0
C634 C 0.83179 0.1136 0.40992 0.0
C635 C 0.81663 0.11285 0.39501 0.0
C636 C 0.83572 0.08968 0.38405 0.0
C637 C 0.87224 0.07292 0.38728 0.0
C638 C 0.78012 0.2139 0.38647 0.0
C639 C 0.75758 0.20719 0.3734 0.0
C640 C 0.79528 0.18253 0.39475 0.0
C641 C 0.78879 0.14376 0.38991 0.0
C642 C 0.76225 0.13712 0.37788 0.0
C643 C 0.74657 0.16876 0.36969 0.0
H644 H 0.66194 0.986 0.08604 0.0
H645 H 0.62905 0.88872 0.11482 0.0
H646 H 0.71439 0.00293 0.10342 0.0
H647 H 0.68261 0.90517 0.13235 0.0
H648 H 0.70103 0.00852 0.16757 0.0
H649 H 0.68016 0.95992 0.14928 0.0
H650 H 0.77236 0.99703 0.11868 0.0
H651 H 0.79274 0.04678 0.13711 0.0
C652 C 0.66704 0.96725 0.09583 0.0
C653 C 0.6409 0.93667 0.0993 0.0
C654 C 0.69747 0.97674 0.10579 0.0
C655 C 0.70228 0.95601 0.11954 0.0
C656 C 0.6792 0.92223 0.12201 0.0
C657 C 0.64869 0.91259 0.11193 0.0
C658 C 0.71771 0.00546 0.15715 0.0
C659 C 0.74777 0.03212 0.15357 0.0
C660 C 0.70598 0.97719 0.14666 0.0
C661 C 0.72395 0.97506 0.13229 0.0
C662 C 0.75737 0.99845 0.12952 0.0
C663 C 0.76923 0.0268 0.1401 0.0
H664 H 0.66445 0.94822 0.81982 0.0
H665 H 0.75765 0.90943 0.84964 0.0
H666 H 0.64281 0.99427 0.83894 0.0
H667 H 0.73625 0.95638 0.86889 0.0
H668 H 0.62674 0.9665 0.90202 0.0
H669 H 0.67709 0.94837 0.88396 0.0
H670 H 0.64846 0.04942 0.85633 0.0
H671 H 0.59728 0.06739 0.87457 0.0
C672 C 0.6811 0.95043 0.83032 0.0
C673 C 0.71209 0.92451 0.83341 0.0
C674 C 0.66895 0.97726 0.84126 0.0
C675 C 0.68738 0.97861 0.85558 0.0
C676 C 0.72109 0.95561 0.85804 0.0
C677 C 0.73343 0.92881 0.84701 0.0
C678 C 0.63207 0.9856 0.89235 0.0
C679 C 0.60762 0.01783 0.88949 0.0
C680 C 0.66127 0.97541 0.88203 0.0
C681 C 0.66641 0.99705 0.86853 0.0
C682 C 0.6448 0.03185 0.86653 0.0
C683 C 0.61566 0.04228 0.87699 0.0
H684 H 0.8615 0.77399 0.59453 0.0
H685 H 0.80819 0.86532 0.62108 0.0
H686 H 0.89566 0.82262 0.5793 0.0
H687 H 0.84257 0.91496 0.6057 0.0
H688 H 0.95425 0.90804 0.5518 0.0
H689 H 0.89546 0.87604 0.56153 0.0
H690 H 0.91259 0.9329 0.60494 0.0
H691 H 0.97067 0.96625 0.59489 0.0
C692 C 0.8559 0.80472 0.59664 0.0
C693 C 0.83204 0.81606 0.6088 0.0
C694 C 0.87544 0.83274 0.58792 0.0
C695 C 0.87203 0.87285 0.59129 0.0
C696 C 0.84597 0.88432 0.60287 0.0
C697 C 0.82595 0.85605 0.61154 0.0
C698 C 0.94474 0.91459 0.56328 0.0
C699 C 0.96734 0.93899 0.57271 0.0
C700 C 0.91113 0.89618 0.56887 0.0
C701 C 0.89985 0.90108 0.58413 0.0
C702 C 0.92034 0.92851 0.59312 0.0
C703 C 0.95374 0.94753 0.5874 0.0
H704 H 0.6723 0.24581 0.16075 0.0
H705 H 0.7855 0.24301 0.13873 0.0
H706 H 0.65318 0.30106 0.14503 0.0
H707 H 0.76623 0.29913 0.12289 0.0
H708 H 0.67884 0.33537 0.0829 0.0
H709 H 0.71763 0.30145 0.10202 0.0
H710 H 0.66273 0.3699 0.13731 0.0
H711 H 0.6233 0.40384 0.11799 0.0
C712 C 0.69337 0.2574 0.15268 0.0
C713 C 0.73013 0.23955 0.15075 0.0
C714 C 0.68258 0.28953 0.14381 0.0
C715 C 0.70816 0.3045 0.1327 0.0
C716 C 0.74584 0.28806 0.13133 0.0
C717 C 0.75684 0.25597 0.14036 0.0
C718 C 0.67579 0.34395 0.09471 0.0
C719 C 0.64749 0.37162 0.09901 0.0
C720 C 0.69834 0.32474 0.10567 0.0
C721 C 0.69283 0.33257 0.1212 0.0
C722 C 0.66719 0.36294 0.12541 0.0
C723 C 0.64478 0.38249 0.11437 0.0
H724 H 0.77319 0.42108 0.32254 0.0
H725 H 0.75989 0.39856 0.37056 0.0
H726 H 0.8083 0.48177 0.32817 0.0
H727 H 0.79574 0.45858 0.37632 0.0
H728 H 0.87761 0.55614 0.38459 0.0
H729 H 0.81484 0.52955 0.37539 0.0
H730 H 0.87549 0.4746 0.33797 0.0
H731 H 0.93735 0.50052 0.34726 0.0
C732 C 0.77581 0.43038 0.33429 0.0
C733 C 0.76389 0.40545 0.34613 0.0
C734 C 0.79624 0.46488 0.33753 0.0
C735 C 0.80568 0.47446 0.35268 0.0
C736 C 0.78891 0.45219 0.36453 0.0
C737 C 0.76824 0.41778 0.36126 0.0
C738 C 0.87702 0.53963 0.37408 0.0
C739 C 0.91213 0.53001 0.36665 0.0
C740 C 0.84122 0.52429 0.36886 0.0
C741 C 0.84013 0.49984 0.35599 0.0
C742 C 0.87499 0.49369 0.3478 0.0
C743 C 0.9106 0.5083 0.35316 0.0
H744 H 0.93705 0.56324 0.56761 0.0
H745 H 0.95623 0.46941 0.59983 0.0
H746 H 0.88091 0.58519 0.58209 0.0
H747 H 0.89928 0.49154 0.61458 0.0
H748 H 0.86539 0.6027 0.64507 0.0
H749 H 0.89546 0.55151 0.63001 0.0
H750 H 0.81549 0.57667 0.59301 0.0
H751 H 0.78563 0.62865 0.60813 0.0
C752 C 0.92854 0.5467 0.57764 0.0
C753 C 0.95134 0.51509 0.58277 0.0
C754 C 0.89597 0.55899 0.58586 0.0
C755 C 0.88562 0.54028 0.59957 0.0
C756 C 0.90667 0.50668 0.6041 0.0
C757 C 0.93916 0.49396 0.59568 0.0
C758 C 0.85321 0.59634 0.63393 0.0
C759 C 0.82387 0.62031 0.62761 0.0
C760 C 0.8703 0.5667 0.62531 0.0
C761 C 0.85851 0.56062 0.61016 0.0
C762 C 0.82567 0.5812 0.60457 0.0
C763 C 0.80838 0.61081 0.61326 0.0
H764 H 0.63985 0.71429 0.81705 0.0
H765 H 0.74866 0.71441 0.84243 0.0
H766 H 0.61597 0.66004 0.83238 0.0
H767 H 0.72476 0.65933 0.85774 0.0
H768 H 0.63164 0.62888 0.89579 0.0
H769 H 0.6733 0.66082 0.87713 0.0
H770 H 0.62026 0.59162 0.84143 0.0
H771 H 0.57801 0.55947 0.86038 0.0
C772 C 0.65903 0.70221 0.82572 0.0
C773 C 0.69583 0.71925 0.82875 0.0
C774 C 0.64548 0.67069 0.8344 0.0
C775 C 0.66832 0.65552 0.84636 0.0
C776 C 0.70632 0.67069 0.84869 0.0
C777 C 0.72002 0.7022 0.83992 0.0
C778 C 0.62957 0.61973 0.88401 0.0
C779 C 0.60124 0.5922 0.87946 0.0
C780 C 0.65374 0.6378 0.87331 0.0
C781 C 0.64987 0.62905 0.85777 0.0
C782 C 0.62362 0.5992 0.85334 0.0
C783 C 0.59962 0.58066 0.86415 0.0
H784 H 0.39692 0.54081 0.8821 0.0
H785 H 0.39337 0.63466 0.91492 0.0
H786 H 0.33831 0.56729 0.86972 0.0
H787 H 0.33577 0.66137 0.90248 0.0
H788 H 0.24118 0.71545 0.87694 0.0
H789 H 0.26868 0.66216 0.89251 0.0
H790 H 0.34016 0.62663 0.85439 0.0
H791 H 0.31284 0.6792 0.83913 0.0
C792 C 0.38298 0.56635 0.88695 0.0
C793 C 0.40038 0.58634 0.89919 0.0
C794 C 0.34945 0.58156 0.87985 0.0
C795 C 0.33283 0.61691 0.88492 0.0
C796 C 0.34763 0.6341 0.89827 0.0
C797 C 0.38108 0.61902 0.9053 0.0
C798 C 0.26165 0.69519 0.87182 0.0
C799 C 0.2755 0.70157 0.85699 0.0
C800 C 0.27751 0.66485 0.88071 0.0
C801 C 0.30699 0.64041 0.87476 0.0
C802 C 0.31737 0.64452 0.85936 0.0
C803 C 0.302 0.67494 0.85062 0.0
H804 H 0.14881 0.45253 0.60105 0.0
H805 H 0.18419 0.55276 0.57428 0.0
H806 H 0.20101 0.46699 0.61949 0.0
H807 H 0.23528 0.56758 0.59252 0.0
H808 H 0.31333 0.60636 0.62668 0.0
H809 H 0.29309 0.55804 0.60767 0.0
H810 H 0.19937 0.51999 0.63739 0.0
H811 H 0.22012 0.56719 0.65626 0.0
C812 C 0.16851 0.47683 0.59887 0.0
C813 C 0.16191 0.50214 0.58649 0.0
C814 C 0.19832 0.48523 0.60942 0.0
C815 C 0.22198 0.51888 0.60767 0.0
C816 C 0.21797 0.54133 0.5943 0.0
C817 C 0.18821 0.53314 0.58389 0.0
C818 C 0.2896 0.58636 0.62938 0.0
C819 C 0.26756 0.59115 0.64272 0.0
C820 C 0.27779 0.55885 0.61847 0.0
C821 C 0.24384 0.53591 0.62079 0.0
C822 C 0.22552 0.53708 0.6351 0.0
C823 C 0.23722 0.56449 0.64593 0.0
H824 H 0.0894 0.56749 0.34591 0.0
H825 H 0.15868 0.54895 0.38637 0.0
H826 H 0.14474 0.5496 0.33023 0.0
H827 H 0.21575 0.53361 0.37076 0.0
H828 H 0.22745 0.49277 0.30278 0.0
H829 H 0.20463 0.54623 0.31876 0.0
H830 H 0.22891 0.47582 0.3588 0.0
H831 H 0.25445 0.42438 0.3428 0.0
C832 C 0.11738 0.56182 0.35137 0.0
C833 C 0.11998 0.55931 0.36724 0.0
C834 C 0.14945 0.55153 0.34239 0.0
C835 C 0.18485 0.53883 0.34917 0.0
C836 C 0.18871 0.5418 0.36511 0.0
C837 C 0.15626 0.55118 0.37408 0.0
C838 C 0.22957 0.48977 0.31504 0.0
C839 C 0.24193 0.45435 0.32161 0.0
C840 C 0.21603 0.52016 0.32423 0.0
C841 C 0.21304 0.51493 0.34011 0.0
C842 C 0.23037 0.48134 0.34668 0.0
C843 C 0.24506 0.45149 0.33748 0.0
H844 H 0.44203 0.33407 0.05689 0.0
H845 H 0.44318 0.39504 0.09988 0.0
H846 H 0.38385 0.29785 0.06473 0.0
H847 H 0.38532 0.35781 0.10796 0.0
H848 H 0.3494 0.19565 0.09794 0.0
H849 H 0.38443 0.24551 0.08362 0.0
H850 H 0.3154 0.3355 0.10523 0.0
H851 H 0.2799 0.28477 0.11962 0.0
C852 C 0.42932 0.34027 0.06792 0.0
C853 C 0.44756 0.36674 0.07792 0.0
C854 C 0.396 0.31951 0.0724 0.0
C855 C 0.38046 0.32432 0.08708 0.0
C856 C 0.39649 0.35351 0.09655 0.0
C857 C 0.42974 0.37473 0.09197 0.0
C858 C 0.34066 0.22596 0.09918 0.0
C859 C 0.31197 0.23643 0.10981 0.0
C860 C 0.36069 0.25465 0.09096 0.0
C861 C 0.35289 0.29459 0.09335 0.0
C862 C 0.32218 0.30498 0.10322 0.0
C863 C 0.30158 0.27601 0.11131 0.0
loop_
_geom_bond_atom_site_label_1
_geom_bond_atom_site_label_2
_geom_bond_distance
_geom_bond_site_symmetry_2
_ccdc_geom_bond_type
Zn0 O3 2.031 . S
Zn0 O5 2.049 . S
Zn0 O10 2.067 1_455 S
Zn1 O2 1.962 . S
Zn1 O4 1.986 . S
Zn1 O6 1.996 . S
Zn1 O9 1.943 1_455 S
O2 Zn1 1.962 . S
O2 C7 1.254 1_545 S
O3 Zn0 2.031 . S
O3 C7 1.269 . S
O4 Zn1 1.986 . S
O4 C11 1.262 . S
O5 Zn0 2.049 . S
O5 C13 1.260 1_565 S
O6 Zn1 1.996 . S
O6 C13 1.257 . S
C7 O2 1.254 1_565 S
C7 O3 1.269 . S
C8 O9 1.249 1_565 S
C8 O10 1.270 . S
O9 Zn1 1.943 1_655 S
O9 C8 1.249 1_545 S
O10 Zn0 2.067 1_655 S
O10 C8 1.270 . S
C11 O4 1.262 . S
C11 O12 1.232 . S
O12 C11 1.232 . S
C13 O5 1.260 1_545 S
C13 O6 1.257 . S
Zn14 O17 2.031 . S
Zn14 O19 2.049 . S
Zn14 O24 2.067 . S
Zn15 O16 1.962 . S
Zn15 O18 1.986 . S
Zn15 O20 1.996 . S
Zn15 O23 1.943 . S
O16 Zn15 1.962 . S
O16 C21 1.254 . S
O17 Zn14 2.031 . S
O17 C21 1.269 . S
O18 Zn15 1.986 . S
O18 C25 1.262 . S
O19 Zn14 2.049 . S
O19 C27 1.260 . S
O20 Zn15 1.996 . S
O20 C27 1.257 . S
C21 O16 1.254 . S
C21 O17 1.269 . S
C22 O23 1.249 . S
C22 O24 1.270 . S
O23 Zn15 1.943 . S
O23 C22 1.249 . S
O24 Zn14 2.067 . S
O24 C22 1.270 . S
C25 O18 1.262 . S
C25 O26 1.232 . S
O26 C25 1.232 . S
C27 O19 1.260 . S
C27 O20 1.257 . S
Zn28 O31 2.031 . S
Zn28 O33 2.049 . S
Zn28 O38 2.067 . S
Zn29 O30 1.962 . S
Zn29 O32 1.986 . S
Zn29 O34 1.996 . S
Zn29 O37 1.943 . S
O30 Zn29 1.962 . S
O30 C35 1.254 1_565 S
O31 Zn28 2.031 . S
O31 C35 1.269 . S
O32 Zn29 1.986 . S
O32 C39 1.262 . S
O33 Zn28 2.049 . S
O33 C41 1.260 1_545 S
O34 Zn29 1.996 . S
O34 C41 1.257 . S
C35 O30 1.254 1_545 S
C35 O31 1.269 . S
C36 O37 1.249 1_545 S
C36 O38 1.270 . S
O37 Zn29 1.943 . S
O37 C36 1.249 1_565 S
O38 Zn28 2.067 . S
O38 C36 1.270 . S
C39 O32 1.262 . S
C39 O40 1.232 . S
O40 C39 1.232 . S
C41 O33 1.260 1_565 S
C41 O34 1.257 . S
Zn42 O45 2.031 . S
Zn42 O47 2.049 . S
Zn42 O52 2.067 . S
Zn43 O44 1.962 . S
Zn43 O46 1.986 . S
Zn43 O48 1.996 . S
Zn43 O51 1.943 . S
O44 Zn43 1.962 . S
O44 C49 1.254 . S
O45 Zn42 2.031 . S
O45 C49 1.269 . S
O46 Zn43 1.986 . S
O46 C53 1.262 . S
O47 Zn42 2.049 . S
O47 C55 1.260 . S
O48 Zn43 1.996 . S
O48 C55 1.257 . S
C49 O44 1.254 . S
C49 O45 1.269 . S
C50 O51 1.249 . S
C50 O52 1.270 . S
O51 Zn43 1.943 . S
O51 C50 1.249 . S
O52 Zn42 2.067 . S
O52 C50 1.270 . S
C53 O46 1.262 . S
C53 O54 1.232 . S
O54 C53 1.232 . S
C55 O47 1.260 . S
C55 O48 1.257 . S
Zn56 O59 2.031 . S
Zn56 O61 2.049 . S
Zn56 O66 2.067 1_455 S
Zn57 O58 1.962 . S
Zn57 O60 1.986 . S
Zn57 O62 1.996 . S
Zn57 O65 1.943 1_455 S
O58 Zn57 1.962 . S
O58 C63 1.254 1_565 S
O59 Zn56 2.031 . S
O59 C63 1.269 . S
O60 Zn57 1.986 . S
O60 C67 1.262 . S
O61 Zn56 2.049 . S
O61 C69 1.260 1_545 S
O62 Zn57 1.996 . S
O62 C69 1.257 . S
C63 O58 1.254 1_545 S
C63 O59 1.269 . S
C64 O65 1.249 1_545 S
C64 O66 1.270 . S
O65 Zn57 1.943 1_655 S
O65 C64 1.249 1_565 S
O66 Zn56 2.067 1_655 S
O66 C64 1.270 . S
C67 O60 1.262 . S
C67 O68 1.232 . S
O68 C67 1.232 . S
C69 O61 1.260 1_565 S
C69 O62 1.257 . S
Zn70 O73 2.031 . S
Zn70 O75 2.049 . S
Zn70 O80 2.067 . S
Zn71 O72 1.962 . S
Zn71 O74 1.986 . S
Zn71 O76 1.996 . S
Zn71 O79 1.943 . S
O72 Zn71 1.962 . S
O72 C77 1.254 . S
O73 Zn70 2.031 . S
O73 C77 1.269 . S
O74 Zn71 1.986 . S
O74 C81 1.262 . S
O75 Zn70 2.049 . S
O75 C83 1.260 . S
O76 Zn71 1.996 . S
O76 C83 1.257 . S
C77 O72 1.254 . S
C77 O73 1.269 . S
C78 O79 1.249 . S
C78 O80 1.270 . S
O79 Zn71 1.943 . S
O79 C78 1.249 . S
O80 Zn70 2.067 . S
O80 C78 1.270 . S
C81 O74 1.262 . S
C81 O82 1.232 . S
O82 C81 1.232 . S
C83 O75 1.260 . S
C83 O76 1.257 . S
Zn84 O87 2.031 . S
Zn84 O89 2.049 . S
Zn84 O94 2.067 . S
Zn85 O86 1.962 . S
Zn85 O88 1.986 . S
Zn85 O90 1.996 . S
Zn85 O93 1.943 . S
O86 Zn85 1.962 . S
O86 C91 1.254 1_545 S
O87 Zn84 2.031 . S
O87 C91 1.269 . S
O88 Zn85 1.986 . S
O88 C95 1.262 . S
O89 Zn84 2.049 . S
O89 C97 1.260 1_565 S
O90 Zn85 1.996 . S
O90 C97 1.257 . S
C91 O86 1.254 1_565 S
C91 O87 1.269 . S
C92 O93 1.249 1_565 S
C92 O94 1.270 . S
O93 Zn85 1.943 . S
O93 C92 1.249 1_545 S
O94 Zn84 2.067 . S
O94 C92 1.270 . S
C95 O88 1.262 . S
C95 O96 1.232 . S
O96 C95 1.232 . S
C97 O89 1.260 1_545 S
C97 O90 1.257 . S
Zn98 O101 2.031 . S
Zn98 O103 2.049 . S
Zn98 O108 2.067 . S
Zn99 O100 1.962 . S
Zn99 O102 1.986 . S
Zn99 O104 1.996 . S
Zn99 O107 1.943 . S
O100 Zn99 1.962 . S
O100 C105 1.254 . S
O101 Zn98 2.031 . S
O101 C105 1.269 . S
O102 Zn99 1.986 . S
O102 C109 1.262 . S
O103 Zn98 2.049 . S
O103 C111 1.260 . S
O104 Zn99 1.996 . S
O104 C111 1.257 . S
C105 O100 1.254 . S
C105 O101 1.269 . S
C106 O107 1.249 . S
C106 O108 1.270 . S
O107 Zn99 1.943 . S
O107 C106 1.249 . S
O108 Zn98 2.067 . S
O108 C106 1.270 . S
C109 O102 1.262 . S
C109 O110 1.232 . S
O110 C109 1.232 . S
C111 O103 1.260 . S
C111 O104 1.257 . S
Zn112 O115 2.031 . S
Zn112 O117 2.049 . S
Zn112 O122 2.067 . S
Zn113 O114 1.962 . S
Zn113 O116 1.986 . S
Zn113 O118 1.996 . S
Zn113 O121 1.943 . S
O114 Zn113 1.962 . S
O114 C119 1.254 . S
O115 Zn112 2.031 . S
O115 C119 1.269 . S
O116 Zn113 1.986 . S
O116 C123 1.262 . S
O117 Zn112 2.049 . S
O117 C125 1.260 . S
O118 Zn113 1.996 . S
O118 C125 1.257 . S
C119 O114 1.254 . S
C119 O115 1.269 . S
C120 O121 1.249 . S
C120 O122 1.270 . S
O121 Zn113 1.943 . S
O121 C120 1.249 . S
O122 Zn112 2.067 . S
O122 C120 1.270 . S
C123 O116 1.262 . S
C123 O124 1.232 . S
O124 C123 1.232 . S
C125 O117 1.260 . S
C125 O118 1.257 . S
Zn126 O129 2.031 . S
Zn126 O131 2.049 . S
Zn126 O136 2.067 . S
Zn127 O128 1.962 . S
Zn127 O130 1.986 . S
Zn127 O132 1.996 . S
Zn127 O135 1.943 . S
O128 Zn127 1.962 . S
O128 C133 1.254 . S
O129 Zn126 2.031 . S
O129 C133 1.269 . S
O130 Zn127 1.986 . S
O130 C137 1.262 . S
O131 Zn126 2.049 . S
O131 C139 1.260 . S
O132 Zn127 1.996 . S
O132 C139 1.257 . S
C133 O128 1.254 . S
C133 O129 1.269 . S
C134 O135 1.249 . S
C134 O136 1.270 . S
O135 Zn127 1.943 . S
O135 C134 1.249 . S
O136 Zn126 2.067 . S
O136 C134 1.270 . S
C137 O130 1.262 . S
C137 O138 1.232 . S
O138 C137 1.232 . S
C139 O131 1.260 . S
C139 O132 1.257 . S
Zn140 O143 2.031 . S
Zn140 O145 2.049 . S
Zn140 O150 2.067 . S
Zn141 O142 1.962 . S
Zn141 O144 1.986 . S
Zn141 O146 1.996 . S
Zn141 O149 1.943 . S
O142 Zn141 1.962 . S
O142 C147 1.254 . S
O143 Zn140 2.031 . S
O143 C147 1.269 . S
O144 Zn141 1.986 . S
O144 C151 1.262 . S
O145 Zn140 2.049 . S
O145 C153 1.260 . S
O146 Zn141 1.996 . S
O146 C153 1.257 . S
C147 O142 1.254 . S
C147 O143 1.269 . S
C148 O149 1.249 . S
C148 O150 1.270 . S
O149 Zn141 1.943 . S
O149 C148 1.249 . S
O150 Zn140 2.067 . S
O150 C148 1.270 . S
C151 O144 1.262 . S
C151 O152 1.232 . S
O152 C151 1.232 . S
C153 O145 1.260 . S
C153 O146 1.257 . S
Zn154 O157 2.031 . S
Zn154 O159 2.049 . S
Zn154 O164 2.067 . S
Zn155 O156 1.962 . S
Zn155 O158 1.986 . S
Zn155 O160 1.996 . S
Zn155 O163 1.943 . S
O156 Zn155 1.962 . S
O156 C161 1.254 . S
O157 Zn154 2.031 . S
O157 C161 1.269 . S
O158 Zn155 1.986 . S
O158 C165 1.262 . S
O159 Zn154 2.049 . S
O159 C167 1.260 . S
O160 Zn155 1.996 . S
O160 C167 1.257 . S
C161 O156 1.254 . S
C161 O157 1.269 . S
C162 O163 1.249 . S
C162 O164 1.270 . S
O163 Zn155 1.943 . S
O163 C162 1.249 . S
O164 Zn154 2.067 . S
O164 C162 1.270 . S
C165 O158 1.262 . S
C165 O166 1.232 . S
O166 C165 1.232 . S
C167 O159 1.260 . S
C167 O160 1.257 . S
Zn168 O171 2.031 . S
Zn168 O173 2.049 . S
Zn168 O178 2.067 . S
Zn169 O170 1.962 . S
Zn169 O172 1.986 . S
Zn169 O174 1.996 . S
Zn169 O177 1.943 . S
O170 Zn169 1.962 . S
O170 C175 1.254 . S
O171 Zn168 2.031 . S
O171 C175 1.269 . S
O172 Zn169 1.986 . S
O172 C179 1.262 . S
O173 Zn168 2.049 . S
O173 C181 1.260 . S
O174 Zn169 1.996 . S
O174 C181 1.257 . S
C175 O170 1.254 . S
C175 O171 1.269 . S
C176 O177 1.249 . S
C176 O178 1.270 . S
O177 Zn169 1.943 . S
O177 C176 1.249 . S
O178 Zn168 2.067 . S
O178 C176 1.270 . S
C179 O172 1.262 . S
C179 O180 1.232 . S
O180 C179 1.232 . S
C181 O173 1.260 . S
C181 O174 1.257 . S
Zn182 O185 2.034 . S
Zn182 O187 2.049 . S
Zn182 O192 2.067 . S
Zn183 O184 1.962 1_455 S
Zn183 O186 1.986 . S
Zn183 O188 1.996 . S
Zn183 O191 1.943 . S
O184 Zn183 1.962 1_655 S
O184 C189 1.254 . S
O185 Zn182 2.034 . S
O185 C189 1.265 1_455 S
O186 Zn183 1.986 . S
O186 C193 1.262 . S
O187 Zn182 2.049 . S
O187 C195 1.260 . S
O188 Zn183 1.996 . S
O188 C195 1.257 . S
C189 O184 1.254 . S
C189 O185 1.265 1_655 S
C190 O191 1.249 . S
C190 O192 1.270 . S
O191 Zn183 1.943 . S
O191 C190 1.249 . S
O192 Zn182 2.067 . S
O192 C190 1.270 . S
C193 O186 1.262 . S
C193 O194 1.232 . S
O194 C193 1.232 . S
C195 O187 1.260 . S
C195 O188 1.257 . S
Zn196 O199 2.031 . S
Zn196 O201 2.049 . S
Zn196 O206 2.067 . S
Zn197 O198 1.962 . S
Zn197 O200 1.986 . S
Zn197 O202 1.996 . S
Zn197 O205 1.943 . S
O198 Zn197 1.962 . S
O198 C203 1.254 . S
O199 Zn196 2.031 . S
O199 C203 1.269 . S
O200 Zn197 1.986 . S
O200 C207 1.262 . S
O201 Zn196 2.049 . S
O201 C209 1.260 . S
O202 Zn197 1.996 . S
O202 C209 1.257 . S
C203 O198 1.254 . S
C203 O199 1.269 . S
C204 O205 1.249 . S
C204 O206 1.270 . S
O205 Zn197 1.943 . S
O205 C204 1.249 . S
O206 Zn196 2.067 . S
O206 C204 1.270 . S
C207 O200 1.262 . S
C207 O208 1.232 . S
O208 C207 1.232 . S
C209 O201 1.260 . S
C209 O202 1.257 . S
Zn210 O213 2.034 . S
Zn210 O215 2.049 . S
Zn210 O220 2.067 . S
Zn211 O212 1.962 1_455 S
Zn211 O214 1.986 . S
Zn211 O216 1.996 . S
Zn211 O219 1.943 . S
O212 Zn211 1.962 1_655 S
O212 C217 1.254 . S
O213 Zn210 2.034 . S
O213 C217 1.265 1_455 S
O214 Zn211 1.986 . S
O214 C221 1.262 . S
O215 Zn210 2.049 . S
O215 C223 1.260 . S
O216 Zn211 1.996 . S
O216 C223 1.257 . S
C217 O212 1.254 . S
C217 O213 1.265 1_655 S
C218 O219 1.249 . S
C218 O220 1.270 . S
O219 Zn211 1.943 . S
O219 C218 1.249 . S
O220 Zn210 2.067 . S
O220 C218 1.270 . S
C221 O214 1.262 . S
C221 O222 1.232 . S
O222 C221 1.232 . S
C223 O215 1.260 . S
C223 O216 1.257 . S
H224 C232 0.950 . S
H225 C237 0.950 . S
H226 C234 0.950 . S
H227 C236 0.950 . S
H228 C238 0.950 . S
H229 C240 0.950 . S
H230 C242 0.950 . S
H231 C243 0.950 . S
C232 H224 0.950 . S
C232 C233 1.386 1_655 S
C232 C234 1.391 . S
C233 C232 1.386 1_455 S
C233 C237 1.393 . S
C234 H226 0.950 . S
C234 C232 1.391 . S
C234 C235 1.400 1_655 S
C235 C234 1.400 1_455 S
C235 C236 1.398 . S
C235 C241 1.491 . S
C236 H227 0.950 . S
C236 C235 1.398 . S
C236 C237 1.391 . S
C237 H225 0.950 . S
C237 C233 1.393 . S
C237 C236 1.391 . S
C238 H228 0.950 . S
C238 C239 1.386 . S
C238 C240 1.391 . S
C239 C238 1.386 . S
C239 C243 1.393 1_455 S
C240 H229 0.950 . S
C240 C238 1.391 . S
C240 C241 1.400 . S
C241 C235 1.491 . S
C241 C240 1.400 . S
C241 C242 1.398 1_455 S
C242 H230 0.950 . S
C242 C241 1.398 1_655 S
C242 C243 1.391 . S
C243 H231 0.950 . S
C243 C239 1.393 1_655 S
C243 C242 1.391 . S
H244 C252 0.950 . S
H245 C257 0.950 . S
H246 C254 0.950 . S
H247 C256 0.950 . S
H248 C258 0.950 . S
H249 C260 0.950 . S
H250 C262 0.950 . S
H251 C263 0.950 . S
C252 H244 0.950 . S
C252 C253 1.386 . S
C252 C254 1.391 . S
C253 C252 1.386 . S
C253 C257 1.393 . S
C254 H246 0.950 . S
C254 C252 1.391 . S
C254 C255 1.411 . S
C255 C254 1.411 . S
C255 C256 1.410 . S
C255 C261 1.469 1_655 S
C256 H247 0.950 . S
C256 C255 1.410 . S
C256 C257 1.391 . S
C257 H245 0.950 . S
C257 C253 1.393 . S
C257 C256 1.391 . S
C258 H248 0.950 . S
C258 C259 1.386 . S
C258 C260 1.391 . S
C259 C258 1.386 . S
C259 C263 1.393 . S
C260 H249 0.950 . S
C260 C258 1.391 . S
C260 C261 1.400 . S
C261 C255 1.469 1_455 S
C261 C260 1.400 . S
C261 C262 1.398 . S
C262 H250 0.950 . S
C262 C261 1.398 . S
C262 C263 1.391 . S
C263 H251 0.950 . S
C263 C259 1.393 . S
C263 C262 1.391 . S
H264 C272 0.950 . S
H265 C277 0.950 . S
H266 C274 0.950 . S
H267 C276 0.950 . S
H268 C278 0.950 . S
H269 C280 0.950 . S
H270 C282 0.950 . S
H271 C283 0.950 . S
C272 H264 0.950 . S
C272 C273 1.386 . S
C272 C274 1.391 . S
C273 C272 1.386 . S
C273 C277 1.393 . S
C274 H266 0.950 . S
C274 C272 1.391 . S
C274 C275 1.400 . S
C275 C274 1.400 . S
C275 C276 1.398 . S
C275 C281 1.491 . S
C276 H267 0.950 . S
C276 C275 1.398 . S
C276 C277 1.391 . S
C277 H265 0.950 . S
C277 C273 1.393 . S
C277 C276 1.391 . S
C278 H268 0.950 . S
C278 C279 1.386 . S
C278 C280 1.391 . S
C279 C278 1.386 . S
C279 C283 1.393 . S
C280 H269 0.950 . S
C280 C278 1.391 . S
C280 C281 1.400 . S
C281 C275 1.491 . S
C281 C280 1.400 . S
C281 C282 1.398 . S
C282 H270 0.950 . S
C282 C281 1.398 . S
C282 C283 1.391 . S
C283 H271 0.950 . S
C283 C279 1.393 . S
C283 C282 1.391 . S
H284 C292 0.950 . S
H285 C297 0.950 . S
H286 C294 0.950 . S
H287 C296 0.950 . S
H288 C298 0.950 . S
H289 C300 0.950 . S
H290 C302 0.950 . S
H291 C303 0.950 . S
C292 H284 0.950 . S
C292 C293 1.386 . S
C292 C294 1.391 . S
C293 C292 1.386 . S
C293 C297 1.393 . S
C294 H286 0.950 . S
C294 C292 1.391 . S
C294 C295 1.400 . S
C295 C294 1.400 . S
C295 C296 1.398 . S
C295 C301 1.491 . S
C296 H287 0.950 . S
C296 C295 1.398 . S
C296 C297 1.391 . S
C297 H285 0.950 . S
C297 C293 1.393 . S
C297 C296 1.391 . S
C298 H288 0.950 . S
C298 C299 1.386 . S
C298 C300 1.391 . S
C299 C298 1.386 . S
C299 C303 1.393 . S
C300 H289 0.950 . S
C300 C298 1.391 . S
C300 C301 1.400 . S
C301 C295 1.491 . S
C301 C300 1.400 . S
C301 C302 1.398 . S
C302 H290 0.950 . S
C302 C301 1.398 . S
C302 C303 1.391 . S
C303 H291 0.950 . S
C303 C299 1.393 . S
C303 C302 1.391 . S
H304 C312 0.950 . S
H305 C317 0.950 . S
H306 C314 0.950 . S
H307 C316 0.950 . S
H308 C318 0.950 . S
H309 C320 0.950 . S
H310 C322 0.950 . S
H311 C323 0.950 . S
C312 H304 0.950 . S
C312 C313 1.386 . S
C312 C314 1.391 . S
C313 C312 1.386 . S
C313 C317 1.393 1_455 S
C314 H306 0.950 . S
C314 C312 1.391 . S
C314 C315 1.400 . S
C315 C314 1.400 . S
C315 C316 1.398 1_455 S
C315 C321 1.491 . S
C316 H307 0.950 . S
C316 C315 1.398 1_655 S
C316 C317 1.391 . S
C317 H305 0.950 . S
C317 C313 1.393 1_655 S
C317 C316 1.391 . S
C318 H308 0.950 . S
C318 C319 1.386 1_655 S
C318 C320 1.391 . S
C319 C318 1.386 1_455 S
C319 C323 1.393 . S
C320 H309 0.950 . S
C320 C318 1.391 . S
C320 C321 1.400 1_655 S
C321 C315 1.491 . S
C321 C320 1.400 1_455 S
C321 C322 1.398 . S
C322 H310 0.950 . S
C322 C321 1.398 . S
C322 C323 1.391 . S
C323 H311 0.950 . S
C323 C319 1.393 . S
C323 C322 1.391 . S
H324 C332 0.950 . S
H325 C337 0.950 . S
H326 C334 0.950 . S
H327 C336 0.950 . S
H328 C338 0.950 . S
H329 C340 0.950 . S
H330 C342 0.950 . S
H331 C343 0.950 . S
C332 H324 0.950 . S
C332 C333 1.386 . S
C332 C334 1.391 . S
C333 C332 1.386 . S
C333 C337 1.393 . S
C334 H326 0.950 . S
C334 C332 1.391 . S
C334 C335 1.400 . S
C335 C334 1.400 . S
C335 C336 1.398 . S
C335 C341 1.491 . S
C336 H327 0.950 . S
C336 C335 1.398 . S
C336 C337 1.391 . S
C337 H325 0.950 . S
C337 C333 1.393 . S
C337 C336 1.391 . S
C338 H328 0.950 . S
C338 C339 1.386 . S
C338 C340 1.391 . S
C339 C338 1.386 . S
C339 C343 1.393 . S
C340 H329 0.950 . S
C340 C338 1.391 . S
C340 C341 1.400 . S
C341 C335 1.491 . S
C341 C340 1.400 . S
C341 C342 1.398 . S
C342 H330 0.950 . S
C342 C341 1.398 . S
C342 C343 1.391 . S
C343 H331 0.950 . S
C343 C339 1.393 . S
C343 C342 1.391 . S
H344 C352 0.950 . S
H345 C357 0.950 . S
H346 C354 0.950 . S
H347 C356 0.950 . S
H348 C358 0.950 . S
H349 C360 0.950 . S
H350 C362 0.950 . S
H351 C363 0.950 . S
C352 H344 0.950 . S
C352 C353 1.386 . S
C352 C354 1.391 . S
C353 C352 1.386 . S
C353 C357 1.393 . S
C354 H346 0.950 . S
C354 C352 1.391 . S
C354 C355 1.400 . S
C355 C354 1.400 . S
C355 C356 1.398 . S
C355 C361 1.491 . S
C356 H347 0.950 . S
C356 C355 1.398 . S
C356 C357 1.391 . S
C357 H345 0.950 . S
C357 C353 1.393 . S
C357 C356 1.391 . S
C358 H348 0.950 . S
C358 C359 1.386 . S
C358 C360 1.391 . S
C359 C358 1.386 . S
C359 C363 1.393 . S
C360 H349 0.950 . S
C360 C358 1.391 . S
C360 C361 1.400 . S
C361 C355 1.491 . S
C361 C360 1.400 . S
C361 C362 1.398 . S
C362 H350 0.950 . S
C362 C361 1.398 . S
C362 C363 1.391 . S
C363 H351 0.950 . S
C363 C359 1.393 . S
C363 C362 1.391 . S
H364 C372 0.950 . S
H365 C377 0.950 . S
H366 C374 0.950 . S
H367 C376 0.950 . S
H368 C378 0.950 . S
H369 C380 0.950 . S
H370 C382 0.950 . S
H371 C383 0.950 . S
C372 H364 0.950 . S
C372 C373 1.386 . S
C372 C374 1.391 . S
C373 C372 1.386 . S
C373 C377 1.393 . S
C374 H366 0.950 . S
C374 C372 1.391 . S
C374 C375 1.400 . S
C375 C374 1.400 . S
C375 C376 1.398 . S
C375 C381 1.471 1_455 S
C376 H367 0.950 . S
C376 C375 1.398 . S
C376 C377 1.391 . S
C377 H365 0.950 . S
C377 C373 1.393 . S
C377 C376 1.391 . S
C378 H368 0.950 . S
C378 C379 1.386 . S
C378 C380 1.391 . S
C379 C378 1.386 . S
C379 C383 1.393 . S
C380 H369 0.950 . S
C380 C378 1.391 . S
C380 C381 1.411 . S
C381 C375 1.471 1_655 S
C381 C380 1.411 . S
C381 C382 1.408 . S
C382 H370 0.950 . S
C382 C381 1.408 . S
C382 C383 1.391 . S
C383 H371 0.950 . S
C383 C379 1.393 . S
C383 C382 1.391 . S
H384 C392 0.949 1_545 S
H385 C397 0.950 . S
H386 C394 0.950 . S
H387 C396 0.950 . S
H388 C398 0.949 1_565 S
H389 C400 0.950 . S
H390 C402 0.950 . S
H391 C403 0.950 . S
C392 H384 0.949 1_565 S
C392 C393 1.387 . S
C392 C394 1.391 1_565 S
C393 C392 1.387 . S
C393 C397 1.393 1_455 S
C394 H386 0.950 . S
C394 C392 1.391 1_545 S
C394 C395 1.400 1_545 S
C395 C394 1.400 1_565 S
C395 C396 1.398 1_455 S
C395 C401 1.491 1_565 S
C396 H387 0.950 . S
C396 C395 1.398 1_655 S
C396 C397 1.391 . S
C397 H385 0.950 . S
C397 C393 1.393 1_655 S
C397 C396 1.391 . S
C398 H388 0.949 1_545 S
C398 C399 1.387 1_655 S
C398 C400 1.391 1_545 S
C399 C398 1.387 1_455 S
C399 C403 1.393 . S
C400 H389 0.950 . S
C400 C398 1.391 1_565 S
C400 C401 1.400 1_665 S
C401 C395 1.491 1_545 S
C401 C400 1.400 1_445 S
C401 C402 1.398 . S
C402 H390 0.950 . S
C402 C401 1.398 . S
C402 C403 1.391 . S
C403 H391 0.950 . S
C403 C399 1.393 . S
C403 C402 1.391 . S
H404 C412 0.950 . S
H405 C417 0.950 . S
H406 C414 0.950 . S
H407 C416 0.950 . S
H408 C418 0.950 . S
H409 C420 0.950 . S
H410 C422 0.950 . S
H411 C423 0.950 . S
C412 H404 0.950 . S
C412 C413 1.386 . S
C412 C414 1.391 . S
C413 C412 1.386 . S
C413 C417 1.393 . S
C414 H406 0.950 . S
C414 C412 1.391 . S
C414 C415 1.400 . S
C415 C414 1.400 . S
C415 C416 1.398 . S
C415 C421 1.491 . S
C416 H407 0.950 . S
C416 C415 1.398 . S
C416 C417 1.391 . S
C417 H405 0.950 . S
C417 C413 1.393 . S
C417 C416 1.391 . S
C418 H408 0.950 . S
C418 C419 1.386 . S
C418 C420 1.391 . S
C419 C418 1.386 . S
C419 C423 1.393 . S
C420 H409 0.950 . S
C420 C418 1.391 . S
C420 C421 1.400 . S
C421 C415 1.491 . S
C421 C420 1.400 . S
C421 C422 1.398 . S
C422 H410 0.950 . S
C422 C421 1.398 . S
C422 C423 1.391 . S
C423 H411 0.950 . S
C423 C419 1.393 . S
C423 C422 1.391 . S
H424 C432 0.950 . S
H425 C437 0.950 . S
H426 C434 0.950 . S
H427 C436 0.950 . S
H428 C438 0.950 . S
H429 C440 0.950 . S
H430 C442 0.950 . S
H431 C443 0.950 . S
C432 H424 0.950 . S
C432 C433 1.386 1_545 S
C432 C434 1.391 . S
C433 C432 1.386 1_565 S
C433 C437 1.393 . S
C434 H426 0.950 . S
C434 C432 1.391 . S
C434 C435 1.400 1_545 S
C435 C434 1.400 1_565 S
C435 C436 1.398 . S
C435 C441 1.491 1_564 S
C436 H427 0.950 . S
C436 C435 1.398 . S
C436 C437 1.391 . S
C437 H425 0.950 . S
C437 C433 1.393 . S
C437 C436 1.391 . S
C438 H428 0.950 . S
C438 C439 1.386 1_565 S
C438 C440 1.391 . S
C439 C438 1.386 1_545 S
C439 C443 1.393 . S
C440 H429 0.950 . S
C440 C438 1.391 . S
C440 C441 1.400 1_565 S
C441 C435 1.491 1_546 S
C441 C440 1.400 1_545 S
C441 C442 1.398 . S
C442 H430 0.950 . S
C442 C441 1.398 . S
C442 C443 1.391 . S
C443 H431 0.950 . S
C443 C439 1.393 . S
C443 C442 1.391 . S
H444 C452 0.950 . S
H445 C457 0.950 . S
H446 C454 0.950 . S
H447 C456 0.950 . S
H448 C458 0.950 . S
H449 C460 0.950 . S
H450 C462 0.950 . S
H451 C463 0.950 . S
C452 H444 0.950 . S
C452 C453 1.386 . S
C452 C454 1.391 . S
C453 C452 1.386 . S
C453 C457 1.393 . S
C454 H446 0.950 . S
C454 C452 1.391 . S
C454 C455 1.400 . S
C455 C454 1.400 . S
C455 C456 1.398 . S
C455 C461 1.491 . S
C456 H447 0.950 . S
C456 C455 1.398 . S
C456 C457 1.391 . S
C457 H445 0.950 . S
C457 C453 1.393 . S
C457 C456 1.391 . S
C458 H448 0.950 . S
C458 C459 1.386 . S
C458 C460 1.391 . S
C459 C458 1.386 . S
C459 C463 1.393 . S
C460 H449 0.950 . S
C460 C458 1.391 . S
C460 C461 1.400 . S
C461 C455 1.491 . S
C461 C460 1.400 . S
C461 C462 1.398 . S
C462 H450 0.950 . S
C462 C461 1.398 . S
C462 C463 1.391 . S
C463 H451 0.950 . S
C463 C459 1.393 . S
C463 C462 1.391 . S
H464 C472 0.950 . S
H465 C477 0.950 . S
H466 C474 0.950 . S
H467 C476 0.950 . S
H468 C478 0.950 . S
H469 C480 0.950 . S
H470 C482 0.950 . S
H471 C483 0.950 . S
C472 H464 0.950 . S
C472 C473 1.386 . S
C472 C474 1.391 . S
C473 C472 1.386 . S
C473 C477 1.393 . S
C474 H466 0.950 . S
C474 C472 1.391 . S
C474 C475 1.400 . S
C475 C474 1.400 . S
C475 C476 1.398 . S
C475 C481 1.491 . S
C476 H467 0.950 . S
C476 C475 1.398 . S
C476 C477 1.391 . S
C477 H465 0.950 . S
C477 C473 1.393 . S
C477 C476 1.391 . S
C478 H468 0.950 . S
C478 C479 1.386 . S
C478 C480 1.391 . S
C479 C478 1.386 . S
C479 C483 1.393 . S
C480 H469 0.950 . S
C480 C478 1.391 . S
C480 C481 1.400 . S
C481 C475 1.491 . S
C481 C480 1.400 . S
C481 C482 1.398 . S
C482 H470 0.950 . S
C482 C481 1.398 . S
C482 C483 1.391 . S
C483 H471 0.950 . S
C483 C479 1.393 . S
C483 C482 1.391 . S
H484 C492 0.950 . S
H485 C497 0.950 . S
H486 C494 0.950 . S
H487 C496 0.950 . S
H488 C498 0.950 . S
H489 C500 0.950 . S
H490 C502 0.950 . S
H491 C503 0.950 . S
C492 H484 0.950 . S
C492 C493 1.386 . S
C492 C494 1.391 . S
C493 C492 1.386 . S
C493 C497 1.393 . S
C494 H486 0.950 . S
C494 C492 1.391 . S
C494 C495 1.400 . S
C495 C494 1.400 . S
C495 C496 1.398 . S
C495 C501 1.491 . S
C496 H487 0.950 . S
C496 C495 1.398 . S
C496 C497 1.391 . S
C497 H485 0.950 . S
C497 C493 1.393 . S
C497 C496 1.391 . S
C498 H488 0.950 . S
C498 C499 1.386 . S
C498 C500 1.391 . S
C499 C498 1.386 . S
C499 C503 1.393 . S
C500 H489 0.950 . S
C500 C498 1.391 . S
C500 C501 1.400 . S
C501 C495 1.491 . S
C501 C500 1.400 . S
C501 C502 1.398 . S
C502 H490 0.950 . S
C502 C501 1.398 . S
C502 C503 1.391 . S
C503 H491 0.950 . S
C503 C499 1.393 . S
C503 C502 1.391 . S
H504 C512 0.950 . S
H505 C517 0.950 . S
H506 C514 0.950 . S
H507 C516 0.950 . S
H508 C518 0.950 . S
H509 C520 0.950 . S
H510 C522 0.950 . S
H511 C523 0.950 . S
C512 H504 0.950 . S
C512 C513 1.386 . S
C512 C514 1.391 . S
C513 C512 1.386 . S
C513 C517 1.393 . S
C514 H506 0.950 . S
C514 C512 1.391 . S
C514 C515 1.400 . S
C515 C514 1.400 . S
C515 C516 1.398 . S
C515 C521 1.491 1_556 S
C516 H507 0.950 . S
C516 C515 1.398 . S
C516 C517 1.391 . S
C517 H505 0.950 . S
C517 C513 1.393 . S
C517 C516 1.391 . S
C518 H508 0.950 . S
C518 C519 1.386 . S
C518 C520 1.391 . S
C519 C518 1.386 . S
C519 C523 1.393 . S
C520 H509 0.950 . S
C520 C518 1.391 . S
C520 C521 1.400 . S
C521 C515 1.491 1_554 S
C521 C520 1.400 . S
C521 C522 1.398 . S
C522 H510 0.950 . S
C522 C521 1.398 . S
C522 C523 1.391 . S
C523 H511 0.950 . S
C523 C519 1.393 . S
C523 C522 1.391 . S
H524 C532 0.950 . S
H525 C537 0.950 . S
H526 C534 0.950 . S
H527 C536 0.950 . S
H528 C538 0.950 . S
H529 C540 0.950 . S
H530 C542 0.950 . S
H531 C543 0.950 . S
C532 H524 0.950 . S
C532 C533 1.386 . S
C532 C534 1.391 . S
C533 C532 1.386 . S
C533 C537 1.393 . S
C534 H526 0.950 . S
C534 C532 1.391 . S
C534 C535 1.400 . S
C535 C534 1.400 . S
C535 C536 1.398 . S
C535 C541 1.491 . S
C536 H527 0.950 . S
C536 C535 1.398 . S
C536 C537 1.391 . S
C537 H525 0.950 . S
C537 C533 1.393 . S
C537 C536 1.391 . S
C538 H528 0.950 . S
C538 C539 1.386 . S
C538 C540 1.391 . S
C539 C538 1.386 . S
C539 C543 1.393 . S
C540 H529 0.950 . S
C540 C538 1.391 . S
C540 C541 1.400 . S
C541 C535 1.491 . S
C541 C540 1.400 . S
C541 C542 1.398 . S
C542 H530 0.950 . S
C542 C541 1.398 . S
C542 C543 1.391 . S
C543 H531 0.950 . S
C543 C539 1.393 . S
C543 C542 1.391 . S
H544 C552 0.950 . S
H545 C557 0.950 . S
H546 C554 0.950 . S
H547 C556 0.950 . S
H548 C558 0.950 1_545 S
H549 C560 0.950 . S
H550 C562 0.950 . S
H551 C563 0.950 . S
C552 H544 0.950 . S
C552 C553 1.386 . S
C552 C554 1.391 . S
C553 C552 1.386 . S
C553 C557 1.393 . S
C554 H546 0.950 . S
C554 C552 1.391 . S
C554 C555 1.400 . S
C555 C554 1.400 . S
C555 C556 1.398 . S
C555 C561 1.491 . S
C556 H547 0.950 . S
C556 C555 1.398 . S
C556 C557 1.391 . S
C557 H545 0.950 . S
C557 C553 1.393 . S
C557 C556 1.391 . S
C558 H548 0.950 1_565 S
C558 C559 1.386 . S
C558 C560 1.391 . S
C559 C558 1.386 . S
C559 C563 1.393 . S
C560 H549 0.950 . S
C560 C558 1.391 . S
C560 C561 1.400 . S
C561 C555 1.491 . S
C561 C560 1.400 . S
C561 C562 1.398 . S
C562 H550 0.950 . S
C562 C561 1.398 . S
C562 C563 1.391 . S
C563 H551 0.950 . S
C563 C559 1.393 . S
C563 C562 1.391 . S
H564 C572 0.950 . S
H565 C577 0.950 . S
H566 C574 0.950 . S
H567 C576 0.950 . S
H568 C578 0.950 1_545 S
H569 C580 0.950 . S
H570 C582 0.950 . S
H571 C583 0.950 . S
C572 H564 0.950 . S
C572 C573 1.386 . S
C572 C574 1.391 . S
C573 C572 1.386 . S
C573 C577 1.393 . S
C574 H566 0.950 . S
C574 C572 1.391 . S
C574 C575 1.400 . S
C575 C574 1.400 . S
C575 C576 1.398 . S
C575 C581 1.491 . S
C576 H567 0.950 . S
C576 C575 1.398 . S
C576 C577 1.391 . S
C577 H565 0.950 . S
C577 C573 1.393 . S
C577 C576 1.391 . S
C578 H568 0.950 1_565 S
C578 C579 1.386 . S
C578 C580 1.391 . S
C579 C578 1.386 . S
C579 C583 1.393 . S
C580 H569 0.950 . S
C580 C578 1.391 . S
C580 C581 1.400 . S
C581 C575 1.491 . S
C581 C580 1.400 . S
C581 C582 1.398 . S
C582 H570 0.950 . S
C582 C581 1.398 . S
C582 C583 1.391 . S
C583 H571 0.950 . S
C583 C579 1.393 . S
C583 C582 1.391 . S
H584 C592 0.950 . S
H585 C597 0.950 . S
H586 C594 0.950 . S
H587 C596 0.950 . S
H588 C598 0.950 . S
H589 C600 0.950 . S
H590 C602 0.950 . S
H591 C603 0.950 . S
C592 H584 0.950 . S
C592 C593 1.386 . S
C592 C594 1.391 . S
C593 C592 1.386 . S
C593 C597 1.393 . S
C594 H586 0.950 . S
C594 C592 1.391 . S
C594 C595 1.400 . S
C595 C594 1.400 . S
C595 C596 1.398 . S
C595 C601 1.491 . S
C596 H587 0.950 . S
C596 C595 1.398 . S
C596 C597 1.391 . S
C597 H585 0.950 . S
C597 C593 1.393 . S
C597 C596 1.391 . S
C598 H588 0.950 . S
C598 C599 1.386 . S
C598 C600 1.391 . S
C599 C598 1.386 . S
C599 C603 1.393 . S
C600 H589 0.950 . S
C600 C598 1.391 . S
C600 C601 1.400 . S
C601 C595 1.491 . S
C601 C600 1.400 . S
C601 C602 1.398 . S
C602 H590 0.950 . S
C602 C601 1.398 . S
C602 C603 1.391 . S
C603 H591 0.950 . S
C603 C599 1.393 . S
C603 C602 1.391 . S
H604 C612 0.950 1_565 S
H605 C617 0.950 . S
H606 C614 0.950 . S
H607 C616 0.950 . S
H608 C618 0.950 . S
H609 C620 0.950 . S
H610 C622 0.950 . S
H611 C623 0.950 . S
C612 H604 0.950 1_545 S
C612 C613 1.386 . S
C612 C614 1.391 . S
C613 C612 1.386 . S
C613 C617 1.393 . S
C614 H606 0.950 . S
C614 C612 1.391 . S
C614 C615 1.400 . S
C615 C614 1.400 . S
C615 C616 1.398 . S
C615 C621 1.491 . S
C616 H607 0.950 . S
C616 C615 1.398 . S
C616 C617 1.391 . S
C617 H605 0.950 . S
C617 C613 1.393 . S
C617 C616 1.391 . S
C618 H608 0.950 . S
C618 C619 1.386 . S
C618 C620 1.391 . S
C619 C618 1.386 . S
C619 C623 1.393 . S
C620 H609 0.950 . S
C620 C618 1.391 . S
C620 C621 1.400 . S
C621 C615 1.491 . S
C621 C620 1.400 . S
C621 C622 1.398 . S
C622 H610 0.950 . S
C622 C621 1.398 . S
C622 C623 1.391 . S
C623 H611 0.950 . S
C623 C619 1.393 . S
C623 C622 1.391 . S
H624 C632 0.950 1_565 S
H625 C637 0.950 . S
H626 C634 0.950 . S
H627 C636 0.950 . S
H628 C638 0.950 . S
H629 C640 0.950 . S
H630 C642 0.950 . S
H631 C643 0.950 . S
C632 H624 0.950 1_545 S
C632 C633 1.386 . S
C632 C634 1.391 . S
C633 C632 1.386 . S
C633 C637 1.393 . S
C634 H626 0.950 . S
C634 C632 1.391 . S
C634 C635 1.400 . S
C635 C634 1.400 . S
C635 C636 1.398 . S
C635 C641 1.491 . S
C636 H627 0.950 . S
C636 C635 1.398 . S
C636 C637 1.391 . S
C637 H625 0.950 . S
C637 C633 1.393 . S
C637 C636 1.391 . S
C638 H628 0.950 . S
C638 C639 1.386 . S
C638 C640 1.391 . S
C639 C638 1.386 . S
C639 C643 1.393 . S
C640 H629 0.950 . S
C640 C638 1.391 . S
C640 C641 1.400 . S
C641 C635 1.491 . S
C641 C640 1.400 . S
C641 C642 1.398 . S
C642 H630 0.950 . S
C642 C641 1.398 . S
C642 C643 1.391 . S
C643 H631 0.950 . S
C643 C639 1.393 . S
C643 C642 1.391 . S
H644 C652 0.950 . S
H645 C657 0.950 . S
H646 C654 0.950 . S
H647 C656 0.950 . S
H648 C658 0.950 . S
H649 C660 0.950 . S
H650 C662 0.950 . S
H651 C663 0.950 . S
C652 H644 0.950 . S
C652 C653 1.386 . S
C652 C654 1.391 . S
C653 C652 1.386 . S
C653 C657 1.393 . S
C654 H646 0.950 . S
C654 C652 1.391 . S
C654 C655 1.400 . S
C655 C654 1.400 . S
C655 C656 1.398 . S
C655 C661 1.491 . S
C656 H647 0.950 . S
C656 C655 1.398 . S
C656 C657 1.391 . S
C657 H645 0.950 . S
C657 C653 1.393 . S
C657 C656 1.391 . S
C658 H648 0.950 . S
C658 C659 1.386 . S
C658 C660 1.391 . S
C659 C658 1.386 . S
C659 C663 1.393 . S
C660 H649 0.950 . S
C660 C658 1.391 . S
C660 C661 1.400 . S
C661 C655 1.491 . S
C661 C660 1.400 . S
C661 C662 1.398 . S
C662 H650 0.950 . S
C662 C661 1.398 . S
C662 C663 1.391 . S
C663 H651 0.950 . S
C663 C659 1.393 . S
C663 C662 1.391 . S
H664 C672 0.950 . S
H665 C677 0.950 . S
H666 C674 0.950 . S
H667 C676 0.950 . S
H668 C678 0.950 . S
H669 C680 0.950 . S
H670 C682 0.950 . S
H671 C683 0.950 1_545 S
C672 H664 0.950 . S
C672 C673 1.386 . S
C672 C674 1.391 . S
C673 C672 1.386 . S
C673 C677 1.393 . S
C674 H666 0.950 . S
C674 C672 1.391 . S
C674 C675 1.400 . S
C675 C674 1.400 . S
C675 C676 1.398 . S
C675 C681 1.491 . S
C676 H667 0.950 . S
C676 C675 1.398 . S
C676 C677 1.391 . S
C677 H665 0.950 . S
C677 C673 1.393 . S
C677 C676 1.391 . S
C678 H668 0.950 . S
C678 C679 1.386 . S
C678 C680 1.391 . S
C679 C678 1.386 . S
C679 C683 1.393 . S
C680 H669 0.950 . S
C680 C678 1.391 . S
C680 C681 1.400 . S
C681 C675 1.491 . S
C681 C680 1.400 . S
C681 C682 1.398 . S
C682 H670 0.950 . S
C682 C681 1.398 . S
C682 C683 1.391 . S
C683 H671 0.950 1_565 S
C683 C679 1.393 . S
C683 C682 1.391 . S
H684 C692 0.950 . S
H685 C697 0.950 . S
H686 C694 0.950 . S
H687 C696 0.950 . S
H688 C698 0.950 1_545 S
H689 C700 0.950 . S
H690 C702 0.950 . S
H691 C703 0.950 . S
C692 H684 0.950 . S
C692 C693 1.386 . S
C692 C694 1.391 . S
C693 C692 1.386 . S
C693 C697 1.393 . S
C694 H686 0.950 . S
C694 C692 1.391 . S
C694 C695 1.400 . S
C695 C694 1.400 . S
C695 C696 1.398 . S
C695 C701 1.491 . S
C696 H687 0.950 . S
C696 C695 1.398 . S
C696 C697 1.391 . S
C697 H685 0.950 . S
C697 C693 1.393 . S
C697 C696 1.391 . S
C698 H688 0.950 1_565 S
C698 C699 1.386 . S
C698 C700 1.391 . S
C699 C698 1.386 . S
C699 C703 1.393 . S
C700 H689 0.950 . S
C700 C698 1.391 . S
C700 C701 1.400 . S
C701 C695 1.491 . S
C701 C700 1.400 . S
C701 C702 1.398 . S
C702 H690 0.950 . S
C702 C701 1.398 . S
C702 C703 1.391 . S
C703 H691 0.950 . S
C703 C699 1.393 . S
C703 C702 1.391 . S
H704 C712 0.950 . S
H705 C717 0.950 . S
H706 C714 0.950 . S
H707 C716 0.950 . S
H708 C718 0.950 . S
H709 C720 0.950 . S
H710 C722 0.950 . S
H711 C723 0.950 . S
C712 H704 0.950 . S
C712 C713 1.386 . S
C712 C714 1.391 . S
C713 C712 1.386 . S
C713 C717 1.393 . S
C714 H706 0.950 . S
C714 C712 1.391 . S
C714 C715 1.400 . S
C715 C714 1.400 . S
C715 C716 1.398 . S
C715 C721 1.491 . S
C716 H707 0.950 . S
C716 C715 1.398 . S
C716 C717 1.391 . S
C717 H705 0.950 . S
C717 C713 1.393 . S
C717 C716 1.391 . S
C718 H708 0.950 . S
C718 C719 1.386 . S
C718 C720 1.391 . S
C719 C718 1.386 . S
C719 C723 1.393 . S
C720 H709 0.950 . S
C720 C718 1.391 . S
C720 C721 1.400 . S
C721 C715 1.491 . S
C721 C720 1.400 . S
C721 C722 1.398 . S
C722 H710 0.950 . S
C722 C721 1.398 . S
C722 C723 1.391 . S
C723 H711 0.950 . S
C723 C719 1.393 . S
C723 C722 1.391 . S
H724 C732 0.950 . S
H725 C737 0.950 . S
H726 C734 0.950 . S
H727 C736 0.950 . S
H728 C738 0.950 . S
H729 C740 0.950 . S
H730 C742 0.950 . S
H731 C743 0.950 . S
C732 H724 0.950 . S
C732 C733 1.386 . S
C732 C734 1.391 . S
C733 C732 1.386 . S
C733 C737 1.393 . S
C734 H726 0.950 . S
C734 C732 1.391 . S
C734 C735 1.400 . S
C735 C734 1.400 . S
C735 C736 1.398 . S
C735 C741 1.491 . S
C736 H727 0.950 . S
C736 C735 1.398 . S
C736 C737 1.391 . S
C737 H725 0.950 . S
C737 C733 1.393 . S
C737 C736 1.391 . S
C738 H728 0.950 . S
C738 C739 1.386 . S
C738 C740 1.391 . S
C739 C738 1.386 . S
C739 C743 1.393 . S
C740 H729 0.950 . S
C740 C738 1.391 . S
C740 C741 1.400 . S
C741 C735 1.491 . S
C741 C740 1.400 . S
C741 C742 1.398 . S
C742 H730 0.950 . S
C742 C741 1.398 . S
C742 C743 1.391 . S
C743 H731 0.950 . S
C743 C739 1.393 . S
C743 C742 1.391 . S
H744 C752 0.950 . S
H745 C757 0.950 . S
H746 C754 0.950 . S
H747 C756 0.950 . S
H748 C758 0.950 . S
H749 C760 0.950 . S
H750 C762 0.950 . S
H751 C763 0.950 . S
C752 H744 0.950 . S
C752 C753 1.386 . S
C752 C754 1.391 . S
C753 C752 1.386 . S
C753 C757 1.393 . S
C754 H746 0.950 . S
C754 C752 1.391 . S
C754 C755 1.400 . S
C755 C754 1.400 . S
C755 C756 1.398 . S
C755 C761 1.491 . S
C756 H747 0.950 . S
C756 C755 1.398 . S
C756 C757 1.391 . S
C757 H745 0.950 . S
C757 C753 1.393 . S
C757 C756 1.391 . S
C758 H748 0.950 . S
C758 C759 1.386 . S
C758 C760 1.391 . S
C759 C758 1.386 . S
C759 C763 1.393 . S
C760 H749 0.950 . S
C760 C758 1.391 . S
C760 C761 1.400 . S
C761 C755 1.491 . S
C761 C760 1.400 . S
C761 C762 1.398 . S
C762 H750 0.950 . S
C762 C761 1.398 . S
C762 C763 1.391 . S
C763 H751 0.950 . S
C763 C759 1.393 . S
C763 C762 1.391 . S
H764 C772 0.950 . S
H765 C777 0.950 . S
H766 C774 0.950 . S
H767 C776 0.950 . S
H768 C778 0.950 . S
H769 C780 0.950 . S
H770 C782 0.950 . S
H771 C783 0.950 . S
C772 H764 0.950 . S
C772 C773 1.386 . S
C772 C774 1.391 . S
C773 C772 1.386 . S
C773 C777 1.393 . S
C774 H766 0.950 . S
C774 C772 1.391 . S
C774 C775 1.400 . S
C775 C774 1.400 . S
C775 C776 1.398 . S
C775 C781 1.491 . S
C776 H767 0.950 . S
C776 C775 1.398 . S
C776 C777 1.391 . S
C777 H765 0.950 . S
C777 C773 1.393 . S
C777 C776 1.391 . S
C778 H768 0.950 . S
C778 C779 1.386 . S
C778 C780 1.391 . S
C779 C778 1.386 . S
C779 C783 1.393 . S
C780 H769 0.950 . S
C780 C778 1.391 . S
C780 C781 1.400 . S
C781 C775 1.491 . S
C781 C780 1.400 . S
C781 C782 1.398 . S
C782 H770 0.950 . S
C782 C781 1.398 . S
C782 C783 1.391 . S
C783 H771 0.950 . S
C783 C779 1.393 . S
C783 C782 1.391 . S
H784 C792 0.950 . S
H785 C797 0.950 . S
H786 C794 0.950 . S
H787 C796 0.950 . S
H788 C798 0.950 . S
H789 C800 0.950 . S
H790 C802 0.950 . S
H791 C803 0.950 . S
C792 H784 0.950 . S
C792 C793 1.386 . S
C792 C794 1.391 . S
C793 C792 1.386 . S
C793 C797 1.393 . S
C794 H786 0.950 . S
C794 C792 1.391 . S
C794 C795 1.400 . S
C795 C794 1.400 . S
C795 C796 1.398 . S
C795 C801 1.491 . S
C796 H787 0.950 . S
C796 C795 1.398 . S
C796 C797 1.391 . S
C797 H785 0.950 . S
C797 C793 1.393 . S
C797 C796 1.391 . S
C798 H788 0.950 . S
C798 C799 1.386 . S
C798 C800 1.391 . S
C799 C798 1.386 . S
C799 C803 1.393 . S
C800 H789 0.950 . S
C800 C798 1.391 . S
C800 C801 1.400 . S
C801 C795 1.491 . S
C801 C800 1.400 . S
C801 C802 1.398 . S
C802 H790 0.950 . S
C802 C801 1.398 . S
C802 C803 1.391 . S
C803 H791 0.950 . S
C803 C799 1.393 . S
C803 C802 1.391 . S
H804 C812 0.950 . S
H805 C817 0.950 . S
H806 C814 0.950 . S
H807 C816 0.950 . S
H808 C818 0.950 . S
H809 C820 0.950 . S
H810 C822 0.950 . S
H811 C823 0.950 . S
C812 H804 0.950 . S
C812 C813 1.386 . S
C812 C814 1.391 . S
C813 C812 1.386 . S
C813 C817 1.393 . S
C814 H806 0.950 . S
C814 C812 1.391 . S
C814 C815 1.400 . S
C815 C814 1.400 . S
C815 C816 1.398 . S
C815 C821 1.491 . S
C816 H807 0.950 . S
C816 C815 1.398 . S
C816 C817 1.391 . S
C817 H805 0.950 . S
C817 C813 1.393 . S
C817 C816 1.391 . S
C818 H808 0.950 . S
C818 C819 1.386 . S
C818 C820 1.391 . S
C819 C818 1.386 . S
C819 C823 1.393 . S
C820 H809 0.950 . S
C820 C818 1.391 . S
C820 C821 1.400 . S
C821 C815 1.491 . S
C821 C820 1.400 . S
C821 C822 1.398 . S
C822 H810 0.950 . S
C822 C821 1.398 . S
C822 C823 1.391 . S
C823 H811 0.950 . S
C823 C819 1.393 . S
C823 C822 1.391 . S
H824 C832 0.950 . S
H825 C837 0.950 . S
H826 C834 0.950 . S
H827 C836 0.950 . S
H828 C838 0.950 . S
H829 C840 0.950 . S
H830 C842 0.950 . S
H831 C843 0.950 . S
C832 H824 0.950 . S
C832 C833 1.386 . S
C832 C834 1.391 . S
C833 C832 1.386 . S
C833 C837 1.393 . S
C834 H826 0.950 . S
C834 C832 1.391 . S
C834 C835 1.400 . S
C835 C834 1.400 . S
C835 C836 1.398 . S
C835 C841 1.491 . S
C836 H827 0.950 . S
C836 C835 1.398 . S
C836 C837 1.391 . S
C837 H825 0.950 . S
C837 C833 1.393 . S
C837 C836 1.391 . S
C838 H828 0.950 . S
C838 C839 1.386 . S
C838 C840 1.391 . S
C839 C838 1.386 . S
C839 C843 1.393 . S
C840 H829 0.950 . S
C840 C838 1.391 . S
C840 C841 1.400 . S
C841 C835 1.491 . S
C841 C840 1.400 . S
C841 C842 1.398 . S
C842 H830 0.950 . S
C842 C841 1.398 . S
C842 C843 1.391 . S
C843 H831 0.950 . S
C843 C839 1.393 . S
C843 C842 1.391 . S
H844 C852 0.950 . S
H845 C857 0.950 . S
H846 C854 0.950 . S
H847 C856 0.950 . S
H848 C858 0.950 . S
H849 C860 0.950 . S
H850 C862 0.950 . S
H851 C863 0.950 . S
C852 H844 0.950 . S
C852 C853 1.386 . S
C852 C854 1.391 . S
C853 C852 1.386 . S
C853 C857 1.393 . S
C854 H846 0.950 . S
C854 C852 1.391 . S
C854 C855 1.400 . S
C855 C854 1.400 . S
C855 C856 1.398 . S
C855 C861 1.491 . S
C856 H847 0.950 . S
C856 C855 1.398 . S
C856 C857 1.391 . S
C857 H845 0.950 . S
C857 C853 1.393 . S
C857 C856 1.391 . S
C858 H848 0.950 . S
C858 C859 1.386 . S
C858 C860 1.391 . S
C859 C858 1.386 . S
C859 C863 1.393 . S
C860 H849 0.950 . S
C860 C858 1.391 . S
C860 C861 1.400 . S
C861 C855 1.491 . S
C861 C860 1.400 . S
C861 C862 1.398 . S
C862 H850 0.950 . S
C862 C861 1.398 . S
C862 C863 1.391 . S
C863 H851 0.950 . S
C863 C859 1.393 . S
C863 C862 1.391 . S
C233 C11 1.052 . S
C239 C193 1.047 . S
C253 C165 1.044 . S
C259 C25 1.042 . S
C273 C179 1.050 . S
C279 C39 1.053 . S
C293 C151 1.054 . S
C299 C53 1.050 . S
C313 C67 1.044 . S
C319 C221 1.048 . S
C333 C81 1.049 . S
C339 C137 1.053 . S
C353 C207 1.047 . S
C359 C95 1.043 . S
C373 C109 1.050 . S
C379 C123 1.054 . S
C393 C69 1.474 . S
C399 C13 1.471 . S
C413 C27 1.498 . S
C419 C83 1.504 . S
C433 C41 1.503 . S
C439 C97 1.498 . S
C453 C111 1.472 . S
C459 C55 1.472 . S
C473 C125 1.481 . S
C479 C153 1.474 . S
C493 C139 1.498 . S
C499 C167 1.489 . S
C513 C209 1.500 . S
C519 C181 1.504 . S
C533 C195 1.497 . S
C539 C223 1.488 . S
C553 C77 1.352 . S
C559 C7 1.357 . S
C573 C21 1.351 . S
C579 C91 1.358 . S
C593 C35 1.357 . S
C599 C105 1.373 . S
C613 C63 1.368 . S
C619 C49 1.374 . S
C633 C64 1.240 . S
C639 C148 1.245 . S
C653 C36 1.239 . S
C659 C120 1.252 . S
C673 C162 1.239 . S
C679 C92 1.249 . S
C693 C134 1.266 . S
C699 C8 1.267 . S
C713 C119 1.355 . S
C719 C175 1.352 . S
C733 C147 1.367 . S
C739 C217 1.352 . S
C753 C189 1.374 . S
C759 C133 1.367 . S
C773 C161 1.353 . S
C779 C203 1.355 . S
C793 C204 1.269 . S
C799 C22 1.262 . S
C813 C190 1.248 . S
C819 C78 1.239 . S
C833 C218 1.264 . S
C839 C50 1.269 . S
C853 C176 1.239 . S
C859 C106 1.249 . S
