# Generated by pormake.
# Topology sml, (6)-cn, num edge types: 1
# Building blocks:
#     Node 0, Type 0, BuildingBlock: BETDAH_clean_sbu_0, # of connection points: 6
#     Node 1, Type 0, BuildingBlock: BETDAH_clean_sbu_0, # of connection points: 6
#     Node 2, Type 0, BuildingBlock: BETDAH_clean_sbu_0, # of connection points: 6
#     Node 3, Type 0, BuildingBlock: BETDAH_clean_sbu_0, # of connection points: 6
#     Node 4, Type 0, BuildingBlock: BETDAH_clean_sbu_0, # of connection points: 6
#     Node 5, Type 0, BuildingBlock: BETDAH_clean_sbu_0, # of connection points: 6
#     Edge 6, Type (0, 0), BuildingBlock: EZIPEK_clean_linker_0, # of connection points: 2
#     Edge 7, Type (0, 0), BuildingBlock: EZIPEK_clean_linker_0, # of connection points: 2
#     Edge 8, Type (0, 0), BuildingBlock: EZIPEK_clean_linker_0, # of connection points: 2
#     Edge 9, Type (0, 0), BuildingBlock: EZIPEK_clean_linker_0, # of connection points: 2
#     Edge 10, Type (0, 0), BuildingBlock: EZIPEK_clean_linker_0, # of connection points: 2
#     Edge 11, Type (0, 0), BuildingBlock: EZIPEK_clean_linker_0, # of connection points: 2
#     Edge 12, Type (0, 0), BuildingBlock: EZIPEK_clean_linker_0, # of connection points: 2
#     Edge 13, Type (0, 0), BuildingBlock: EZIPEK_clean_linker_0, # of connection points: 2
#     Edge 14, Type (0, 0), BuildingBlock: EZIPEK_clean_linker_0, # of connection points: 2
#     Edge 15, Type (0, 0), BuildingBlock: EZIPEK_clean_linker_0, # of connection points: 2
#     Edge 16, Type (0, 0), BuildingBlock: EZIPEK_clean_linker_0, # of connection points: 2
#     Edge 17, Type (0, 0), BuildingBlock: EZIPEK_clean_linker_0, # of connection points: 2
#     Edge 18, Type (0, 0), BuildingBlock: EZIPEK_clean_linker_0, # of connection points: 2
#     Edge 19, Type (0, 0), BuildingBlock: EZIPEK_clean_linker_0, # of connection points: 2
#     Edge 20, Type (0, 0), BuildingBlock: EZIPEK_clean_linker_0, # of connection points: 2
#     Edge 21, Type (0, 0), BuildingBlock: EZIPEK_clean_linker_0, # of connection points: 2
#     Edge 22, Type (0, 0), BuildingBlock: EZIPEK_clean_linker_0, # of connection points: 2
#     Edge 23, Type (0, 0), BuildingBlock: EZIPEK_clean_linker_0, # of connection points: 2
# Relax obj value: 0.251
# Max RMSD: 0.268
# Mean RMSD: 0.268
data_MOF--net-sml--node1-BETDAH_clean_sbu_0--edge1-EZIPEK_clean_linker_0
_symmetry_space_group_name_H-M    P1
_symmetry_Int_Tables_number       1
_symmetry_cell_setting            triclinic
loop_
_symmetry_equiv_pos_as_xyz
'x, y, z'
_cell_length_a     22.045597
_cell_length_b     21.654044
_cell_length_c     20.206449
_cell_angle_alpha  89.324162
_cell_angle_beta   90.505975
_cell_angle_gamma 120.15131
loop_
_atom_site_label
_atom_site_type_symbol
_atom_site_fract_x
_atom_site_fract_y
_atom_site_fract_z
_atom_type_partial_charge
Ho0 Ho 0.11357 0.382 0.17801 0.0
Ho1 Ho 0.2135 0.38126 0.28675 0.0
C2 C 0.21408 0.31628 0.14917 0.0
C3 C 0.05195 0.36654 0.06501 0.0
C4 C 0.07543 0.36329 0.99725 0.0
C5 C 0.11141 0.32616 0.98525 0.0
C6 C 0.13669 0.3258 0.92232 0.0
C7 C 0.12428 0.36018 0.86912 0.0
C8 C 0.08723 0.39633 0.88045 0.0
C9 C 0.06359 0.39844 0.94421 0.0
C10 C 0.04936 0.29666 0.28275 0.0
C11 C 0.14028 0.48242 0.29892 0.0
C12 C 0.26403 0.3588 0.39566 0.0
C13 C 0.24865 0.34939 0.46754 0.0
C14 C 0.18161 0.29975 0.49135 0.0
C15 C 0.1647 0.30011 0.55769 0.0
C16 C 0.21612 0.34554 0.60303 0.0
C17 C 0.28551 0.38871 0.58066 0.0
C18 C 0.30119 0.39198 0.51321 0.0
C19 C 0.27964 0.47988 0.19082 0.0
O20 O 0.18465 0.35216 0.12656 0.0
O21 O 0.22435 0.3114 0.21282 0.0
O22 O 0.03975 0.31307 0.10434 0.0
O23 O 0.08606 0.42813 0.09484 0.0
O24 O 0.02383 0.32903 0.24843 0.0
O25 O 0.10531 0.30577 0.25673 0.0
O26 O 0.17478 0.45297 0.32621 0.0
O27 O 0.11583 0.4695 0.23745 0.0
O28 O 0.28506 0.42235 0.37061 0.0
O29 O 0.21954 0.30806 0.35678 0.0
O30 O 0.30679 0.44688 0.22272 0.0
O31 O 0.21966 0.46047 0.21357 0.0
H32 H 0.11969 0.29661 1.02422 0.0
H33 H 0.1648 0.29735 0.91477 0.0
H34 H 0.07684 0.42303 0.83999 0.0
H35 H 0.03589 0.42725 0.95204 0.0
H36 H 0.14094 0.26298 0.45821 0.0
H37 H 0.11104 0.26541 0.57346 0.0
H38 H 0.32667 0.42278 0.61486 0.0
H39 H 0.35401 0.42886 0.49651 0.0
Ho40 Ho 0.78381 0.24559 0.56617 0.0
Ho41 Ho 0.70103 0.14589 0.45252 0.0
C42 C 0.72118 0.08125 0.5866 0.0
C43 C 0.82922 0.32492 0.66992 0.0
C44 C 0.81598 0.30256 0.73981 0.0
C45 C 0.75574 0.23785 0.75694 0.0
C46 C 0.74338 0.21435 0.82252 0.0
C47 C 0.79173 0.2545 0.87197 0.0
C48 C 0.85279 0.31865 0.85502 0.0
C49 C 0.86472 0.34271 0.78915 0.0
C50 C 0.85592 0.20322 0.48821 0.0
C51 C 0.77694 0.3181 0.4289 0.0
C52 C 0.65835 0.08002 0.34119 0.0
C53 C 0.67941 0.10027 0.27172 0.0
C54 C 0.75016 0.14598 0.25495 0.0
C55 C 0.76898 0.16864 0.18948 0.0
C56 C 0.71738 0.1461 0.13997 0.0
C57 C 0.64685 0.09952 0.15634 0.0
C58 C 0.62801 0.07669 0.22188 0.0
C59 C 0.61993 0.15081 0.55032 0.0
O60 O 0.7282 0.13876 0.61521 0.0
O61 O 0.72503 0.07813 0.52152 0.0
O62 O 0.86657 0.30372 0.63796 0.0
O63 O 0.77452 0.31524 0.63595 0.0
O64 O 0.86351 0.21065 0.55175 0.0
O65 O 0.81201 0.22046 0.46982 0.0
O66 O 0.73493 0.25314 0.4057 0.0
O67 O 0.80493 0.32955 0.48896 0.0
O68 O 0.62904 0.1126 0.36943 0.0
O69 O 0.70389 0.07518 0.37978 0.0
O70 O 0.60563 0.09381 0.51793 0.0
O71 O 0.67624 0.20197 0.52792 0.0
H72 H 0.71809 0.20532 0.71956 0.0
H73 H 0.6961 0.16477 0.83475 0.0
H74 H 0.89068 0.35012 0.89279 0.0
H75 H 0.912 0.39217 0.77669 0.0
H76 H 0.79073 0.16517 0.29259 0.0
H77 H 0.82359 0.20485 0.1776 0.0
H78 H 0.60644 0.08186 0.11861 0.0
H79 H 0.5732 0.04163 0.23387 0.0
Ho80 Ho 0.51109 0.69914 0.83012 0.0
Ho81 Ho 0.561 0.82877 0.93517 0.0
C82 C 0.62582 0.86537 0.78935 0.0
C83 C 0.46035 0.63274 0.71949 0.0
C84 C 0.47449 0.6527 0.64782 0.0
C85 C 0.43152 0.67196 0.61156 0.0
C86 C 0.44823 0.69743 0.54621 0.0
C87 C 0.50753 0.70287 0.51488 0.0
C88 C 0.5475 0.67866 0.54931 0.0
C89 C 0.53168 0.65461 0.61517 0.0
C90 C 0.60337 0.70703 0.92013 0.0
C91 C 0.44097 0.66558 0.97576 0.0
C92 C 0.61073 0.89845 0.04422 0.0
C93 C 0.60275 0.87841 0.11592 0.0
C94 C 0.63621 0.84341 0.14393 0.0
C95 C 0.62359 0.81908 0.20972 0.0
C96 C 0.57821 0.83034 0.24953 0.0
C97 C 0.54813 0.86923 0.22315 0.0
C98 C 0.55998 0.89267 0.15695 0.0
C99 C 0.46158 0.81103 0.8479 0.0
O100 O 0.59573 0.79609 0.7779 0.0
O101 O 0.62393 0.89227 0.84761 0.0
O102 O 0.50906 0.62857 0.75367 0.0
O103 O 0.4319 0.66312 0.75303 0.0
O104 O 0.56699 0.65121 0.88309 0.0
O105 O 0.59863 0.75939 0.897 0.0
O106 O 0.47862 0.73418 0.98945 0.0
O107 O 0.43997 0.63843 0.91638 0.0
O108 O 0.55524 0.89268 1.01404 0.0
O109 O 0.64493 0.8766 1.00735 0.0
O110 O 0.50134 0.87157 0.8778 0.0
O111 O 0.47152 0.76342 0.87327 0.0
H112 H 0.38616 0.66954 0.63442 0.0
H113 H 0.4158 0.71459 0.52058 0.0
H114 H 0.59243 0.68064 0.52582 0.0
H115 H 0.56508 0.63872 0.6408 0.0
H116 H 0.67073 0.83304 0.11456 0.0
H117 H 0.64798 0.78989 0.22911 0.0
H118 H 0.51368 0.8794 0.25321 0.0
H119 H 0.53454 0.9208 0.13749 0.0
Ho120 Ho 0.72089 0.58381 0.25691 0.0
Ho121 Ho 0.83515 0.6327 0.14344 0.0
C122 C 0.87179 0.72749 0.2756 0.0
C123 C 0.64799 0.526 0.36259 0.0
C124 C 0.66748 0.54068 0.43334 0.0
C125 C 0.73203 0.60004 0.45102 0.0
C126 C 0.75299 0.61359 0.51714 0.0
C127 C 0.70911 0.56878 0.56758 0.0
C128 C 0.64354 0.50993 0.55035 0.0
C129 C 0.62312 0.49566 0.48357 0.0
C130 C 0.72092 0.67506 0.16456 0.0
C131 C 0.68404 0.49327 0.11812 0.0
C132 C 0.90142 0.68929 0.03518 0.0
C133 C 0.87608 0.67769 0.9656 0.0
C134 C 0.81559 0.6803 0.94764 0.0
C135 C 0.78823 0.66319 0.88345 0.0
C136 C 0.82116 0.64386 0.83545 0.0
C137 C 0.88264 0.64292 0.85274 0.0
C138 C 0.90949 0.65912 0.91736 0.0
C139 C 0.83958 0.54477 0.23756 0.0
O140 O 0.81519 0.67496 0.3039 0.0
O141 O 0.88561 0.72625 0.21211 0.0
O142 O 0.64644 0.57764 0.32947 0.0
O143 O 0.67948 0.49815 0.32978 0.0
O144 O 0.70322 0.67409 0.22608 0.0
O145 O 0.73297 0.62479 0.15618 0.0
O146 O 0.74707 0.53853 0.09553 0.0
O147 O 0.66268 0.49728 0.17882 0.0
O148 O 0.90239 0.63543 0.06435 0.0
O149 O 0.87817 0.72102 0.07391 0.0
O150 O 0.86862 0.55451 0.17977 0.0
O151 O 0.82166 0.59091 0.24408 0.0
H152 H 0.76693 0.63565 0.41367 0.0
H153 H 0.80366 0.65928 0.529 0.0
H154 H 0.60864 0.47481 0.5885 0.0
H155 H 0.57295 0.44958 0.4712 0.0
H156 H 0.78833 0.69398 0.98357 0.0
H157 H 0.74091 0.66449 0.87131 0.0
H158 H 0.90886 0.62807 0.81654 0.0
H159 H 0.9556 0.65582 0.93003 0.0
Ho160 Ho 0.23105 0.81475 0.50016 0.0
Ho161 Ho 0.11209 0.72501 0.60745 0.0
C162 C 0.06777 0.77296 0.47372 0.0
C163 C 0.29972 0.84831 0.38968 0.0
C164 C 0.28151 0.83395 0.31865 0.0
C165 C 0.22329 0.76938 0.29821 0.0
C166 C 0.20343 0.75821 0.23148 0.0
C167 C 0.24251 0.81064 0.18377 0.0
C168 C 0.30364 0.873 0.2034 0.0
C169 C 0.32246 0.88503 0.2705 0.0
C170 C 0.23116 0.88898 0.60614 0.0
C171 C 0.27701 0.76062 0.62682 0.0
C172 C 0.04329 0.68768 0.7185 0.0
C173 C 0.06249 0.70439 0.78979 0.0
C174 C 0.07699 0.77024 0.81651 0.0
C175 C 0.10516 0.78994 0.88031 0.0
C176 C 0.11657 0.74315 0.92046 0.0
C177 C 0.09626 0.67486 0.89578 0.0
C178 C 0.07031 0.65603 0.83106 0.0
C179 C 0.11618 0.65072 0.50387 0.0
O180 O 0.13333 0.80145 0.45341 0.0
O181 O 0.04599 0.74261 0.53275 0.0
O182 O 0.2813 0.89007 0.41907 0.0
O183 O 0.28772 0.79298 0.42626 0.0
O184 O 0.28641 0.907 0.57018 0.0
O185 O 0.17731 0.83848 0.57903 0.0
O186 O 0.21204 0.73303 0.64919 0.0
O187 O 0.29599 0.79108 0.56813 0.0
O188 O 0.06643 0.64991 0.68917 0.0
O189 O 0.04861 0.73967 0.68044 0.0
O190 O 0.06011 0.63021 0.53945 0.0
O191 O 0.16696 0.70351 0.53114 0.0
H192 H 0.19257 0.72797 0.33398 0.0
H193 H 0.15699 0.70901 0.21711 0.0
H194 H 0.33592 0.91278 0.16698 0.0
H195 H 0.36869 0.93436 0.28484 0.0
H196 H 0.07044 0.80848 0.78684 0.0
H197 H 0.11968 0.84271 0.89779 0.0
H198 H 0.1031 0.63701 0.92581 0.0
H199 H 0.05813 0.60422 0.81273 0.0
Ho200 Ho 0.41343 0.14333 0.92382 0.0
Ho201 Ho 0.40008 0.23388 0.81909 0.0
C202 C 0.31486 0.21185 0.94464 0.0
C203 C 0.41176 0.08544 0.03707 0.0
C204 C 0.40533 0.10411 0.106 0.0
C205 C 0.45025 0.17284 0.13048 0.0
C206 C 0.44448 0.19013 0.19557 0.0
C207 C 0.39215 0.13945 0.23722 0.0
C208 C 0.34507 0.07135 0.21225 0.0
C209 C 0.35161 0.05396 0.14707 0.0
C210 C 0.32579 0.06643 0.82643 0.0
C211 C 0.49127 0.1597 0.79043 0.0
C212 C 0.39706 0.29423 0.70865 0.0
C213 C 0.39651 0.27482 0.63836 0.0
C214 C 0.33599 0.25274 0.59956 0.0
C215 C 0.33309 0.23 0.53449 0.0
C216 C 0.39125 0.23006 0.5066 0.0
C217 C 0.45256 0.25396 0.54458 0.0
C218 C 0.45511 0.27578 0.60991 0.0
C219 C 0.4929 0.3083 0.91735 0.0
O220 O 0.36193 0.19862 0.97137 0.0
O221 O 0.30974 0.21623 0.88022 0.0
O222 O 0.35609 0.06448 1.00011 0.0
O223 O 0.46958 0.1284 1.00528 0.0
O224 O 0.36797 0.05086 0.85744 0.0
O225 O 0.32956 0.12202 0.85016 0.0
O226 O 0.44692 0.17813 0.76653 0.0
O227 O 0.49637 0.15006 0.8547 0.0
O228 O 0.45445 0.31261 0.74222 0.0
O229 O 0.34089 0.25298 0.74306 0.0
O230 O 0.44879 0.3245 0.89125 0.0
O231 O 0.48536 0.25298 0.89015 0.0
H232 H 0.48918 0.21355 0.09901 0.0
H233 H 0.48054 0.24338 0.21334 0.0
H234 H 0.30354 0.03177 0.24323 0.0
H235 H 0.31423 0.00167 0.12835 0.0
H236 H 0.29049 0.25201 0.61999 0.0
H237 H 0.2854 0.21208 0.50594 0.0
H238 H 0.49813 0.25473 0.5239 0.0
H239 H 0.50278 0.29258 0.63817 0.0
C240 C 0.23631 0.18591 0.04163 0.0
C241 C 0.27653 0.23301 0.98944 0.0
C242 C 0.28672 0.33369 0.04993 0.0
C243 C 0.24116 0.28686 0.09942 0.0
N244 N 0.16272 0.16638 0.1372 0.0
N245 N 0.32218 0.34871 0.93602 0.0
C246 C 0.21306 0.21216 0.09403 0.0
C247 C 0.2951 0.30564 0.99055 0.0
N248 N 0.22092 0.11641 0.04119 0.0
N249 N 0.32656 0.40497 0.06177 0.0
H250 H 0.32903 0.33104 0.89062 0.0
H251 H 0.33016 0.40041 0.9338 0.0
H252 H 0.32906 0.42524 0.10842 0.0
H253 H 0.36492 0.44118 1.02949 0.0
H254 H 0.19957 0.08192 0.0816 0.0
H255 H 0.23242 0.09419 1.00103 0.0
H256 H 0.13507 0.11118 0.13131 0.0
H257 H 0.14498 0.18383 0.17651 0.0
C258 C 0.95289 0.19076 0.34076 0.0
C259 C 0.01561 0.25753 0.34458 0.0
C260 C -0.0233 0.28463 0.4469 0.0
C261 C 0.91454 0.21721 0.44468 0.0
N262 N 0.85124 0.09874 0.39932 0.0
N263 N 0.09743 0.35031 0.41497 0.0
C264 C 0.90525 0.16751 0.39485 0.0
C265 C 0.03071 0.29855 0.40235 0.0
N266 N 0.93775 0.15142 0.28446 0.0
N267 N -0.01682 0.33724 0.48818 0.0
H268 H 0.13755 0.35182 0.38739 0.0
H269 H 0.113 0.38115 0.4577 0.0
H270 H 0.94408 0.33138 0.52047 0.0
H271 H 0.02504 0.38956 0.48532 0.0
H272 H 0.88912 0.10638 0.2753 0.0
H273 H -0.02633 0.16626 0.24577 0.0
H274 H 0.84443 0.05882 0.36672 0.0
H275 H 0.8172 0.08043 0.4396 0.0
C276 C 0.6451 0.95218 0.6187 0.0
C277 C 0.7062 0.0192 0.62963 0.0
C278 C 0.72338 0.97888 0.73903 0.0
C279 C 0.65817 0.91472 0.73152 0.0
N280 N 0.56151 0.83517 0.6599 0.0
N281 N 0.81364 0.09011 0.68984 0.0
C282 C 0.62161 0.89906 0.66945 0.0
C283 C 0.74838 0.03062 0.68691 0.0
N284 N 0.60589 0.9413 0.56235 0.0
N285 N 0.76154 -0.01022 0.79586 0.0
H286 H 0.83457 0.12656 0.65078 0.0
H287 H 0.84963 0.10123 0.72788 0.0
H288 H 0.74985 0.9494 0.83065 0.0
H289 H 0.80462 0.03837 0.80922 0.0
H290 H 0.55951 0.89501 0.55087 0.0
H291 H 0.61792 0.97869 0.52486 0.0
H292 H 0.54085 0.81507 0.61374 0.0
H293 H 0.52984 0.8017 0.69737 0.0
C294 C 0.69883 0.75947 1.00745 0.0
C295 C 0.63208 0.70308 0.98621 0.0
C296 C 0.61858 0.63998 0.09199 0.0
C297 C 0.68706 0.6929 0.11039 0.0
N298 N 0.79422 0.80175 0.08806 0.0
N299 N 0.5332 0.58262 1.00633 0.0
C300 C 0.72744 0.75281 0.06909 0.0
C301 C 0.59353 0.64135 1.02761 0.0
N302 N 0.73609 0.81808 0.96771 0.0
N303 N 0.57698 0.58735 0.1362 0.0
H304 H 0.50329 0.58107 0.96605 0.0
H305 H 0.51301 0.53231 1.02821 0.0
H306 H 0.59295 0.58296 0.18379 0.0
H307 H 0.52397 0.55127 0.12835 0.0
H308 H 0.78057 0.86457 0.98303 0.0
H309 H 0.72175 0.82165 0.9192 0.0
H310 H 0.83047 0.84272 0.05789 0.0
H311 H 0.81448 0.79975 0.13443 0.0
C312 C 0.02823 0.76062 0.35647 0.0
C313 C 0.01744 0.77156 0.42348 0.0
C314 C 0.91656 0.78241 0.38733 0.0
C315 C 0.93068 0.77307 0.32083 0.0
N316 N 0.02372 0.79691 0.24483 0.0
N317 N 0.96117 0.81225 0.49991 0.0
C318 C -0.00487 0.77813 0.30638 0.0
C319 C 0.96451 0.78856 0.43851 0.0
N320 N 0.06572 0.72866 0.34005 0.0
N321 N 0.85705 0.78425 0.40103 0.0
H322 H -0.00289 0.82018 0.53735 0.0
H323 H 0.92677 0.83018 0.51176 0.0
H324 H 0.82472 0.78505 0.36331 0.0
H325 H 0.83908 0.78263 0.44889 0.0
H326 H 0.06762 0.71359 0.29161 0.0
H327 H 0.08621 0.70861 0.3752 0.0
H328 H 0.07189 0.80138 0.23397 0.0
H329 H 0.0041 0.81714 0.20869 0.0
C330 C 0.25451 0.9438 0.78559 0.0
C331 C 0.27396 0.01624 0.77832 0.0
C332 C 0.24402 -0.00079 0.66065 0.0
C333 C 0.23206 0.92864 0.66623 0.0
N334 N 0.20889 0.8291 0.73524 0.0
N335 N 0.25415 0.10117 0.71927 0.0
C336 C 0.23219 0.89969 0.72942 0.0
C337 C 0.2586 0.04077 0.7189 0.0
N338 N 0.25558 0.91735 0.84717 0.0
N339 N 0.24322 0.02694 0.59984 0.0
H340 H 0.25569 0.12605 0.76354 0.0
H341 H 0.2386 0.11962 0.67838 0.0
H342 H 0.22947 -0.00346 0.5568 0.0
H343 H 0.25929 0.08061 0.59193 0.0
H344 H 0.25055 0.86772 0.85652 0.0
H345 H 0.25986 0.94554 0.8902 0.0
H346 H 0.21633 0.80352 0.77572 0.0
H347 H 0.17317 0.79597 0.70065 0.0
C348 C 0.19818 0.42015 0.76803 0.0
C349 C 0.14912 0.35675 0.80147 0.0
C350 C 0.15675 0.28648 0.71106 0.0
C351 C 0.19602 0.3498 0.67277 0.0
N352 N 0.23911 0.47679 0.66151 0.0
N353 N 0.07042 0.22909 0.79736 0.0
C354 C 0.21293 0.41681 0.70034 0.0
C355 C 0.12517 0.28965 0.7709 0.0
N356 N 0.23241 0.48333 0.80106 0.0
N357 N 0.15129 0.22365 0.69173 0.0
H358 H 0.04369 0.22932 0.83959 0.0
H359 H 0.04694 0.18006 0.77332 0.0
H360 H 0.17558 0.2193 0.64949 0.0
H361 H 0.12895 0.17786 0.72144 0.0
H362 H 0.27491 0.52886 0.78077 0.0
H363 H 0.22355 0.48796 0.85084 0.0
H364 H 0.24751 0.52552 0.679 0.0
H365 H 0.24479 0.47636 0.61042 0.0
C366 C 0.75705 0.13837 1.02578 0.0
C367 C 0.7371 0.1742 0.07136 0.0
C368 C 0.75339 0.26324 0.98632 0.0
C369 C 0.77667 0.22936 0.94177 0.0
N370 N 0.81195 0.14256 0.92089 0.0
N371 N 0.72247 0.27379 0.09883 0.0
C372 C 0.78163 0.16902 0.96202 0.0
C373 C 0.73733 0.23773 0.05272 0.0
N374 N 0.75087 0.07419 0.04307 0.0
N375 N 0.74415 0.31802 0.96428 0.0
H376 H 0.70593 0.25448 0.14673 0.0
H377 H 0.73076 0.32502 0.09125 0.0
H378 H 0.75406 0.33728 0.91572 0.0
H379 H 0.72305 0.34243 0.9925 0.0
H380 H 0.75692 0.04128 1.00991 0.0
H381 H 0.7346 0.05107 0.08989 0.0
H382 H 0.82364 0.10329 0.93488 0.0
H383 H 0.83091 0.16403 0.87404 0.0
C384 C 0.48107 0.70065 0.39248 0.0
C385 C 0.52767 0.73464 0.44636 0.0
C386 C 0.60973 0.82985 0.37025 0.0
C387 C 0.56027 0.79876 0.31793 0.0
N388 N 0.44531 0.70961 0.2805 0.0
N389 N 0.63422 0.83526 0.48807 0.0
C390 C 0.4948 0.73576 0.32959 0.0
C391 C 0.59174 0.80003 0.43553 0.0
N392 N 0.42546 0.63294 0.40061 0.0
N393 N 0.67405 0.88816 0.35738 0.0
H394 H 0.62362 0.81582 0.53644 0.0
H395 H 0.67764 0.88644 0.48516 0.0
H396 H 0.68709 0.91465 0.31177 0.0
H397 H 0.71602 0.90843 0.39042 0.0
H398 H 0.39337 0.60209 0.36202 0.0
H399 H 0.41499 0.60452 0.44509 0.0
H400 H 0.3938 0.66917 0.28787 0.0
H401 H 0.45422 0.73083 0.23268 0.0
C402 C 0.767 0.5535 0.74358 0.0
C403 C 0.79033 0.62342 0.76747 0.0
C404 C 0.74655 0.65089 0.66568 0.0
C405 C 0.73272 0.585 0.63809 0.0
N406 N 0.74272 0.4791 0.64733 0.0
N407 N 0.81435 0.74347 0.74514 0.0
C408 C 0.74634 0.53762 0.67612 0.0
C409 C 0.7833 0.67349 0.72686 0.0
N410 N 0.76212 0.50138 0.78573 0.0
N411 N 0.72307 0.69119 0.63425 0.0
H412 H 0.84394 0.76289 0.78834 0.0
H413 H 0.81676 0.78347 0.71419 0.0
H414 H 0.69454 0.67561 0.59013 0.0
H415 H 0.72553 0.73606 0.65539 0.0
H416 H 0.73911 0.44794 0.77232 0.0
H417 H 0.77441 0.51004 0.83597 0.0
H418 H 0.75988 0.44751 0.67086 0.0
H419 H 0.72879 0.46586 0.59793 0.0
C420 C 0.21279 0.75992 1.00086 0.0
C421 C 0.15281 0.76644 0.98667 0.0
C422 C 0.16715 0.82153 0.09577 0.0
C423 C 0.21681 0.80111 0.11403 0.0
N424 N 0.28336 0.74485 0.08514 0.0
N425 N 0.06745 0.79609 1.02693 0.0
C426 C 0.2386 0.76846 0.06693 0.0
C427 C 0.12876 0.79583 0.03568 0.0
N428 N 0.2481 0.75011 0.95077 0.0
N429 N 0.15746 0.86661 0.1352 0.0
H430 H 0.03582 0.77524 0.98527 0.0
H431 H 0.04453 0.81051 0.06405 0.0
H432 H 0.18487 0.88666 0.17944 0.0
H433 H 0.1273 0.88924 0.12088 0.0
H434 H 0.29652 0.75365 0.95817 0.0
H435 H 0.23389 0.7479 0.90112 0.0
H436 H 0.29472 0.71353 0.05455 0.0
H437 H 0.30513 0.7523 0.13248 0.0
C438 C 0.39372 0.14301 0.42643 0.0
C439 C 0.38795 0.20451 0.43772 0.0
C440 C 0.37119 0.21381 0.31862 0.0
C441 C 0.38688 0.15884 0.30667 0.0
N442 N 0.42582 0.07975 0.34917 0.0
N443 N 0.3845 0.30663 0.39293 0.0
C444 C 0.40143 0.12552 0.36059 0.0
C445 C 0.38012 0.24213 0.38336 0.0
N446 N 0.39001 0.10018 0.47833 0.0
N447 N 0.34606 0.23778 0.26849 0.0
H448 H 0.39283 0.33032 0.43928 0.0
H449 H 0.38674 0.33978 0.35408 0.0
H450 H 0.3373 0.21717 0.22071 0.0
H451 H 0.32732 0.27277 0.27596 0.0
H452 H 0.38668 0.05086 0.47218 0.0
H453 H 0.38324 0.11045 0.52721 0.0
H454 H 0.4441 0.05976 0.38667 0.0
H455 H 0.4342 0.06708 0.30176 0.0
C456 C 0.19404 0.58705 0.37246 0.0
C457 C 0.13323 0.53403 0.34032 0.0
C458 C 0.06245 0.5676 0.40662 0.0
C459 C 0.12185 0.61063 0.44723 0.0
N460 N 0.24 0.63932 0.47825 0.0
N461 N 0.00684 0.46446 0.33602 0.0
C462 C 0.18695 0.6151 0.43269 0.0
C463 C 0.06655 0.52177 0.35952 0.0
N464 N 0.25873 0.6095 0.34633 0.0
N465 N 0.00282 0.57168 0.41049 0.0
H466 H 0.0068 0.42998 0.30055 0.0
H467 H 0.95791 0.44809 0.35667 0.0
H468 H -0.00253 0.6072 0.44074 0.0
H469 H 0.96216 0.54632 0.37646 0.0
H470 H 0.30406 0.65261 0.3657 0.0
H471 H 0.26543 0.59031 0.30143 0.0
H472 H 0.28633 0.63867 0.47012 0.0
H473 H 0.23389 0.64907 0.52732 0.0
C474 C 0.52234 0.08991 0.63519 0.0
C475 C 0.58146 0.15294 0.61021 0.0
C476 C 0.58921 0.215 0.71291 0.0
C477 C 0.53434 0.15111 0.74016 0.0
N478 N 0.45012 0.0265 0.73066 0.0
N479 N 0.63788 0.28115 0.61182 0.0
C480 C 0.50174 0.08788 0.70224 0.0
C481 C 0.60636 0.2175 0.64522 0.0
N482 N 0.48122 0.03576 0.59296 0.0
N483 N 0.62402 0.27398 0.75173 0.0
H484 H 0.64236 0.28448 0.56041 0.0
H485 H 0.65014 0.3293 0.6339 0.0
H486 H 0.61241 0.2732 0.80185 0.0
H487 H 0.66857 0.32047 0.7358 0.0
H488 H 0.43438 -0.00932 0.60645 0.0
H489 H 0.48778 0.04058 0.54184 0.0
H490 H 0.42262 0.97763 0.70691 0.0
H491 H 0.43881 0.02352 0.78093 0.0
C492 C 0.28656 0.54918 0.08722 0.0
C493 C 0.31974 0.53998 0.1434 0.0
C494 C 0.43275 0.62695 0.09571 0.0
C495 C 0.39959 0.61934 1.03245 0.0
N496 N 0.29115 0.56777 0.9694 0.0
N497 N 0.42605 0.58003 0.20641 0.0
C498 C 0.32542 0.57794 1.02832 0.0
C499 C 0.39346 0.58163 0.14906 0.0
N500 N 0.22069 0.5388 0.09209 0.0
N501 N 0.50061 0.67916 0.10673 0.0
H502 H 0.39919 0.55941 0.2507 0.0
H503 H 0.47986 0.60035 0.21071 0.0
H504 H 0.53508 0.71223 0.07063 0.0
H505 H 0.52271 0.69259 0.15374 0.0
H506 H 0.19655 0.55123 0.05372 0.0
H507 H 0.19621 0.53036 0.13774 0.0
H508 H 0.23722 0.53315 0.96476 0.0
H509 H 0.31667 0.58876 0.92473 0.0
C510 C 0.79831 0.44172 0.40111 0.0
C511 C 0.79878 0.37916 0.38229 0.0
C512 C 0.8237 0.42322 0.26802 0.0
C513 C 0.82914 0.48877 0.28765 0.0
N514 N 0.85004 0.56787 0.37952 0.0
N515 N 0.83882 0.32467 0.3033 0.0
C516 C 0.82429 0.50035 0.35615 0.0
C517 C 0.81972 0.37418 0.31734 0.0
N518 N 0.77192 0.44518 0.46092 0.0
N519 N 0.81898 0.40535 0.20288 0.0
H520 H 0.84131 0.29108 0.33929 0.0
H521 H 0.86132 0.32373 0.25845 0.0
H522 H 0.81171 0.43355 0.16465 0.0
H523 H 0.8136 0.35716 0.18753 0.0
H524 H 0.76614 0.48824 0.47426 0.0
H525 H 0.74968 0.40253 0.49437 0.0
H526 H 0.853 0.57907 0.42987 0.0
H527 H 0.87912 0.61296 0.35005 0.0
C528 C 0.3087 0.7158 0.72835 0.0
C529 C 0.33113 0.76438 0.67438 0.0
C530 C 0.43871 0.8464 0.73466 0.0
C531 C 0.41463 0.79912 0.79023 0.0
N532 N 0.32115 0.69499 0.84419 0.0
N533 N 0.43008 0.85815 0.61624 0.0
C534 C 0.34818 0.73523 0.78805 0.0
C535 C 0.39972 0.82488 0.67453 0.0
N536 N 0.25129 0.64935 0.72064 0.0
N537 N 0.49951 0.91095 0.73822 0.0
H538 H 0.41227 0.83365 0.57059 0.0
H539 H 0.47865 0.90419 0.61246 0.0
H540 H 0.53282 0.9286 0.77882 0.0
H541 H 0.51654 0.95021 0.70164 0.0
H542 H 0.23244 0.60941 0.75663 0.0
H543 H 0.22653 0.63155 0.67486 0.0
H544 H 0.27014 0.65222 0.84807 0.0
H545 H 0.34711 0.70856 0.88957 0.0
C546 C 0.61046 0.37156 0.06923 0.0
C547 C 0.63384 0.44546 0.06728 0.0
C548 C 0.57793 0.43149 0.9581 0.0
C549 C 0.55219 0.35707 0.96168 0.0
N550 N 0.57871 0.26816 1.00184 0.0
N551 N 0.65804 0.54861 0.99954 0.0
C552 C 0.57813 0.32991 1.01186 0.0
C553 C 0.62267 0.4763 1.00884 0.0
N554 N 0.62168 0.34182 0.12462 0.0
N555 N 0.5624 0.46017 0.90443 0.0
H556 H 0.68914 0.5849 0.03532 0.0
H557 H 0.65979 0.57335 0.95461 0.0
H558 H 0.54532 0.43358 0.85947 0.0
H559 H 0.56732 0.5106 0.90416 0.0
H560 H 0.60267 0.28732 0.13029 0.0
H561 H 0.64695 0.3713 0.1667 0.0
H562 H 0.60046 0.24765 0.03523 0.0
H563 H 0.56714 0.24327 0.95605 0.0
loop_
_geom_bond_atom_site_label_1
_geom_bond_atom_site_label_2
_geom_bond_distance
_geom_bond_site_symmetry_2
_ccdc_geom_bond_type
Ho0 C3 2.811 . S
Ho0 O20 2.322 . S
Ho0 O22 2.378 . S
Ho0 O23 2.524 . S
Ho0 O24 2.381 . S
Ho0 O25 2.669 . S
Ho0 O27 2.346 . S
Ho0 O31 2.305 . S
Ho1 C12 2.811 . S
Ho1 O21 2.346 . S
Ho1 O25 2.305 . S
Ho1 O26 2.322 . S
Ho1 O28 2.378 . S
Ho1 O29 2.524 . S
Ho1 O30 2.381 . S
Ho1 O31 2.669 . S
C2 O20 1.259 . S
C2 O21 1.268 . S
C3 Ho0 2.811 . S
C3 C4 1.488 1_554 S
C3 O22 1.215 . S
C3 O23 1.289 . S
C4 C3 1.488 1_556 S
C4 C5 1.348 . S
C4 C9 1.413 . S
C5 C4 1.348 . S
C5 C6 1.442 . S
C5 H32 0.930 . S
C6 C5 1.442 . S
C6 C7 1.381 . S
C6 H33 0.931 . S
C7 C6 1.381 . S
C7 C8 1.321 . S
C8 C7 1.321 . S
C8 C9 1.403 . S
C8 H34 0.934 . S
C9 C4 1.413 . S
C9 C8 1.403 . S
C9 H35 0.930 . S
C10 O24 1.275 . S
C10 O25 1.256 . S
C11 O26 1.259 . S
C11 O27 1.268 . S
C12 Ho1 2.811 . S
C12 C13 1.488 . S
C12 O28 1.215 . S
C12 O29 1.289 . S
C13 C12 1.488 . S
C13 C14 1.348 . S
C13 C18 1.413 . S
C14 C13 1.348 . S
C14 C15 1.442 . S
C14 H36 0.930 . S
C15 C14 1.442 . S
C15 C16 1.381 . S
C15 H37 0.931 . S
C16 C15 1.381 . S
C16 C17 1.321 . S
C17 C16 1.321 . S
C17 C18 1.403 . S
C17 H38 0.934 . S
C18 C13 1.413 . S
C18 C17 1.403 . S
C18 H39 0.930 . S
C19 O30 1.275 . S
C19 O31 1.256 . S
O20 Ho0 2.322 . S
O20 C2 1.259 . S
O21 Ho1 2.346 . S
O21 C2 1.268 . S
O22 Ho0 2.378 . S
O22 C3 1.215 . S
O23 Ho0 2.524 . S
O23 C3 1.289 . S
O24 Ho0 2.381 . S
O24 C10 1.275 . S
O25 Ho0 2.669 . S
O25 Ho1 2.305 . S
O25 C10 1.256 . S
O26 Ho1 2.322 . S
O26 C11 1.259 . S
O27 Ho0 2.346 . S
O27 C11 1.268 . S
O28 Ho1 2.378 . S
O28 C12 1.215 . S
O29 Ho1 2.524 . S
O29 C12 1.289 . S
O30 Ho1 2.381 . S
O30 C19 1.275 . S
O31 Ho0 2.305 . S
O31 Ho1 2.669 . S
O31 C19 1.256 . S
H32 C5 0.930 . S
H33 C6 0.931 . S
H34 C8 0.934 . S
H35 C9 0.930 . S
H36 C14 0.930 . S
H37 C15 0.931 . S
H38 C17 0.934 . S
H39 C18 0.930 . S
Ho40 C43 2.811 . S
Ho40 O60 2.322 . S
Ho40 O62 2.378 . S
Ho40 O63 2.524 . S
Ho40 O64 2.381 . S
Ho40 O65 2.669 . S
Ho40 O67 2.346 . S
Ho40 O71 2.305 . S
Ho41 C52 2.811 . S
Ho41 O61 2.346 . S
Ho41 O65 2.305 . S
Ho41 O66 2.322 . S
Ho41 O68 2.378 . S
Ho41 O69 2.524 . S
Ho41 O70 2.381 . S
Ho41 O71 2.669 . S
C42 O60 1.259 . S
C42 O61 1.268 . S
C43 Ho40 2.811 . S
C43 C44 1.488 . S
C43 O62 1.215 . S
C43 O63 1.289 . S
C44 C43 1.488 . S
C44 C45 1.348 . S
C44 C49 1.413 . S
C45 C44 1.348 . S
C45 C46 1.442 . S
C45 H72 0.930 . S
C46 C45 1.442 . S
C46 C47 1.381 . S
C46 H73 0.931 . S
C47 C46 1.381 . S
C47 C48 1.321 . S
C48 C47 1.321 . S
C48 C49 1.403 . S
C48 H74 0.934 . S
C49 C44 1.413 . S
C49 C48 1.403 . S
C49 H75 0.930 . S
C50 O64 1.275 . S
C50 O65 1.256 . S
C51 O66 1.259 . S
C51 O67 1.268 . S
C52 Ho41 2.811 . S
C52 C53 1.488 . S
C52 O68 1.215 . S
C52 O69 1.289 . S
C53 C52 1.488 . S
C53 C54 1.348 . S
C53 C58 1.413 . S
C54 C53 1.348 . S
C54 C55 1.442 . S
C54 H76 0.930 . S
C55 C54 1.442 . S
C55 C56 1.381 . S
C55 H77 0.931 . S
C56 C55 1.381 . S
C56 C57 1.321 . S
C57 C56 1.321 . S
C57 C58 1.403 . S
C57 H78 0.934 . S
C58 C53 1.413 . S
C58 C57 1.403 . S
C58 H79 0.930 . S
C59 O70 1.275 . S
C59 O71 1.256 . S
O60 Ho40 2.322 . S
O60 C42 1.259 . S
O61 Ho41 2.346 . S
O61 C42 1.268 . S
O62 Ho40 2.378 . S
O62 C43 1.215 . S
O63 Ho40 2.524 . S
O63 C43 1.289 . S
O64 Ho40 2.381 . S
O64 C50 1.275 . S
O65 Ho40 2.669 . S
O65 Ho41 2.305 . S
O65 C50 1.256 . S
O66 Ho41 2.322 . S
O66 C51 1.259 . S
O67 Ho40 2.346 . S
O67 C51 1.268 . S
O68 Ho41 2.378 . S
O68 C52 1.215 . S
O69 Ho41 2.524 . S
O69 C52 1.289 . S
O70 Ho41 2.381 . S
O70 C59 1.275 . S
O71 Ho40 2.305 . S
O71 Ho41 2.669 . S
O71 C59 1.256 . S
H72 C45 0.930 . S
H73 C46 0.931 . S
H74 C48 0.934 . S
H75 C49 0.930 . S
H76 C54 0.930 . S
H77 C55 0.931 . S
H78 C57 0.934 . S
H79 C58 0.930 . S
Ho80 C83 2.811 . S
Ho80 O100 2.322 . S
Ho80 O102 2.378 . S
Ho80 O103 2.524 . S
Ho80 O104 2.381 . S
Ho80 O105 2.669 . S
Ho80 O107 2.346 . S
Ho80 O111 2.305 . S
Ho81 C92 2.811 1_556 S
Ho81 O101 2.346 . S
Ho81 O105 2.305 . S
Ho81 O106 2.326 . S
Ho81 O108 2.378 1_556 S
Ho81 O109 2.524 1_556 S
Ho81 O110 2.381 . S
Ho81 O111 2.669 . S
C82 O100 1.259 . S
C82 O101 1.268 . S
C83 Ho80 2.811 . S
C83 C84 1.488 . S
C83 O102 1.215 . S
C83 O103 1.289 . S
C84 C83 1.488 . S
C84 C85 1.348 . S
C84 C89 1.413 . S
C85 C84 1.348 . S
C85 C86 1.442 . S
C85 H112 0.930 . S
C86 C85 1.442 . S
C86 C87 1.381 . S
C86 H113 0.931 . S
C87 C86 1.381 . S
C87 C88 1.321 . S
C88 C87 1.321 . S
C88 C89 1.403 . S
C88 H114 0.934 . S
C89 C84 1.413 . S
C89 C88 1.403 . S
C89 H115 0.930 . S
C90 O104 1.275 . S
C90 O105 1.256 . S
C91 O106 1.261 . S
C91 O107 1.268 . S
C92 Ho81 2.811 1_554 S
C92 C93 1.488 . S
C92 O108 1.215 . S
C92 O109 1.289 . S
C93 C92 1.488 . S
C93 C94 1.348 . S
C93 C98 1.413 . S
C94 C93 1.348 . S
C94 C95 1.442 . S
C94 H116 0.930 . S
C95 C94 1.442 . S
C95 C96 1.381 . S
C95 H117 0.931 . S
C96 C95 1.381 . S
C96 C97 1.321 . S
C97 C96 1.321 . S
C97 C98 1.403 . S
C97 H118 0.934 . S
C98 C93 1.413 . S
C98 C97 1.403 . S
C98 H119 0.930 . S
C99 O110 1.275 . S
C99 O111 1.256 . S
O100 Ho80 2.322 . S
O100 C82 1.259 . S
O101 Ho81 2.346 . S
O101 C82 1.268 . S
O102 Ho80 2.378 . S
O102 C83 1.215 . S
O103 Ho80 2.524 . S
O103 C83 1.289 . S
O104 Ho80 2.381 . S
O104 C90 1.275 . S
O105 Ho80 2.669 . S
O105 Ho81 2.305 . S
O105 C90 1.256 . S
O106 Ho81 2.326 . S
O106 C91 1.261 . S
O107 Ho80 2.346 . S
O107 C91 1.268 . S
O108 Ho81 2.378 1_554 S
O108 C92 1.215 . S
O109 Ho81 2.524 1_554 S
O109 C92 1.289 . S
O110 Ho81 2.381 . S
O110 C99 1.275 . S
O111 Ho80 2.305 . S
O111 Ho81 2.669 . S
O111 C99 1.256 . S
H112 C85 0.930 . S
H113 C86 0.931 . S
H114 C88 0.934 . S
H115 C89 0.930 . S
H116 C94 0.930 . S
H117 C95 0.931 . S
H118 C97 0.934 . S
H119 C98 0.930 . S
Ho120 C123 2.811 . S
Ho120 O140 2.322 . S
Ho120 O142 2.378 . S
Ho120 O143 2.524 . S
Ho120 O144 2.381 . S
Ho120 O145 2.669 . S
Ho120 O147 2.346 . S
Ho120 O151 2.305 . S
Ho121 C132 2.811 1_554 S
Ho121 O141 2.346 . S
Ho121 O145 2.305 . S
Ho121 O146 2.322 . S
Ho121 O148 2.378 1_554 S
Ho121 O149 2.524 1_554 S
Ho121 O150 2.381 . S
Ho121 O151 2.669 . S
C122 O140 1.259 . S
C122 O141 1.268 . S
C123 Ho120 2.811 . S
C123 C124 1.488 . S
C123 O142 1.215 . S
C123 O143 1.289 . S
C124 C123 1.488 . S
C124 C125 1.348 . S
C124 C129 1.413 . S
C125 C124 1.348 . S
C125 C126 1.442 . S
C125 H152 0.930 . S
C126 C125 1.442 . S
C126 C127 1.381 . S
C126 H153 0.931 . S
C127 C126 1.381 . S
C127 C128 1.321 . S
C128 C127 1.321 . S
C128 C129 1.403 . S
C128 H154 0.934 . S
C129 C124 1.413 . S
C129 C128 1.403 . S
C129 H155 0.930 . S
C130 O144 1.275 . S
C130 O145 1.256 . S
C131 O146 1.259 . S
C131 O147 1.268 . S
C132 Ho121 2.811 1_556 S
C132 C133 1.488 . S
C132 O148 1.215 . S
C132 O149 1.289 . S
C133 C132 1.488 . S
C133 C134 1.348 . S
C133 C138 1.413 . S
C134 C133 1.348 . S
C134 C135 1.442 . S
C134 H156 0.930 . S
C135 C134 1.442 . S
C135 C136 1.381 . S
C135 H157 0.931 . S
C136 C135 1.381 . S
C136 C137 1.321 . S
C137 C136 1.321 . S
C137 C138 1.403 . S
C137 H158 0.934 . S
C138 C133 1.413 . S
C138 C137 1.403 . S
C138 H159 0.930 . S
C139 O150 1.275 . S
C139 O151 1.256 . S
O140 Ho120 2.322 . S
O140 C122 1.259 . S
O141 Ho121 2.346 . S
O141 C122 1.268 . S
O142 Ho120 2.378 . S
O142 C123 1.215 . S
O143 Ho120 2.524 . S
O143 C123 1.289 . S
O144 Ho120 2.381 . S
O144 C130 1.275 . S
O145 Ho120 2.669 . S
O145 Ho121 2.305 . S
O145 C130 1.256 . S
O146 Ho121 2.322 . S
O146 C131 1.259 . S
O147 Ho120 2.346 . S
O147 C131 1.268 . S
O148 Ho121 2.378 1_556 S
O148 C132 1.215 . S
O149 Ho121 2.524 1_556 S
O149 C132 1.289 . S
O150 Ho121 2.381 . S
O150 C139 1.275 . S
O151 Ho120 2.305 . S
O151 Ho121 2.669 . S
O151 C139 1.256 . S
H152 C125 0.930 . S
H153 C126 0.931 . S
H154 C128 0.934 . S
H155 C129 0.930 . S
H156 C134 0.930 . S
H157 C135 0.931 . S
H158 C137 0.934 . S
H159 C138 0.930 . S
Ho160 C163 2.811 . S
Ho160 O180 2.322 . S
Ho160 O182 2.378 . S
Ho160 O183 2.524 . S
Ho160 O184 2.381 . S
Ho160 O185 2.669 . S
Ho160 O187 2.346 . S
Ho160 O191 2.305 . S
Ho161 C172 2.811 . S
Ho161 O181 2.346 . S
Ho161 O185 2.305 . S
Ho161 O186 2.322 . S
Ho161 O188 2.378 . S
Ho161 O189 2.524 . S
Ho161 O190 2.381 . S
Ho161 O191 2.669 . S
C162 O180 1.259 . S
C162 O181 1.268 . S
C163 Ho160 2.811 . S
C163 C164 1.488 . S
C163 O182 1.215 . S
C163 O183 1.289 . S
C164 C163 1.488 . S
C164 C165 1.348 . S
C164 C169 1.413 . S
C165 C164 1.348 . S
C165 C166 1.442 . S
C165 H192 0.930 . S
C166 C165 1.442 . S
C166 C167 1.381 . S
C166 H193 0.931 . S
C167 C166 1.381 . S
C167 C168 1.321 . S
C168 C167 1.321 . S
C168 C169 1.403 . S
C168 H194 0.934 . S
C169 C164 1.413 . S
C169 C168 1.403 . S
C169 H195 0.930 . S
C170 O184 1.275 . S
C170 O185 1.256 . S
C171 O186 1.259 . S
C171 O187 1.268 . S
C172 Ho161 2.811 . S
C172 C173 1.488 . S
C172 O188 1.215 . S
C172 O189 1.289 . S
C173 C172 1.488 . S
C173 C174 1.348 . S
C173 C178 1.413 . S
C174 C173 1.348 . S
C174 C175 1.442 . S
C174 H196 0.930 . S
C175 C174 1.442 . S
C175 C176 1.381 . S
C175 H197 0.931 . S
C176 C175 1.381 . S
C176 C177 1.321 . S
C177 C176 1.321 . S
C177 C178 1.403 . S
C177 H198 0.934 . S
C178 C173 1.413 . S
C178 C177 1.403 . S
C178 H199 0.930 . S
C179 O190 1.275 . S
C179 O191 1.256 . S
O180 Ho160 2.322 . S
O180 C162 1.259 . S
O181 Ho161 2.346 . S
O181 C162 1.268 . S
O182 Ho160 2.378 . S
O182 C163 1.215 . S
O183 Ho160 2.524 . S
O183 C163 1.289 . S
O184 Ho160 2.381 . S
O184 C170 1.275 . S
O185 Ho160 2.669 . S
O185 Ho161 2.305 . S
O185 C170 1.256 . S
O186 Ho161 2.322 . S
O186 C171 1.259 . S
O187 Ho160 2.346 . S
O187 C171 1.268 . S
O188 Ho161 2.378 . S
O188 C172 1.215 . S
O189 Ho161 2.524 . S
O189 C172 1.289 . S
O190 Ho161 2.381 . S
O190 C179 1.275 . S
O191 Ho160 2.305 . S
O191 Ho161 2.669 . S
O191 C179 1.256 . S
H192 C165 0.930 . S
H193 C166 0.931 . S
H194 C168 0.934 . S
H195 C169 0.930 . S
H196 C174 0.930 . S
H197 C175 0.931 . S
H198 C177 0.934 . S
H199 C178 0.930 . S
Ho200 C203 2.811 . S
Ho200 O220 2.322 . S
Ho200 O222 2.378 . S
Ho200 O223 2.524 . S
Ho200 O224 2.381 . S
Ho200 O225 2.669 . S
Ho200 O227 2.346 . S
Ho200 O231 2.305 . S
Ho201 C212 2.811 . S
Ho201 O221 2.346 . S
Ho201 O225 2.305 . S
Ho201 O226 2.322 . S
Ho201 O228 2.378 . S
Ho201 O229 2.524 . S
Ho201 O230 2.381 . S
Ho201 O231 2.669 . S
C202 O220 1.259 . S
C202 O221 1.268 . S
C203 Ho200 2.811 . S
C203 C204 1.488 1_556 S
C203 O222 1.215 . S
C203 O223 1.289 . S
C204 C203 1.488 1_554 S
C204 C205 1.348 . S
C204 C209 1.413 . S
C205 C204 1.348 . S
C205 C206 1.442 . S
C205 H232 0.930 . S
C206 C205 1.442 . S
C206 C207 1.381 . S
C206 H233 0.931 . S
C207 C206 1.381 . S
C207 C208 1.321 . S
C208 C207 1.321 . S
C208 C209 1.403 . S
C208 H234 0.934 . S
C209 C204 1.413 . S
C209 C208 1.403 . S
C209 H235 0.930 . S
C210 O224 1.275 . S
C210 O225 1.256 . S
C211 O226 1.259 . S
C211 O227 1.268 . S
C212 Ho201 2.811 . S
C212 C213 1.488 . S
C212 O228 1.215 . S
C212 O229 1.289 . S
C213 C212 1.488 . S
C213 C214 1.348 . S
C213 C218 1.413 . S
C214 C213 1.348 . S
C214 C215 1.442 . S
C214 H236 0.930 . S
C215 C214 1.442 . S
C215 C216 1.381 . S
C215 H237 0.931 . S
C216 C215 1.381 . S
C216 C217 1.321 . S
C217 C216 1.321 . S
C217 C218 1.403 . S
C217 H238 0.934 . S
C218 C213 1.413 . S
C218 C217 1.403 . S
C218 H239 0.930 . S
C219 O230 1.275 . S
C219 O231 1.256 . S
O220 Ho200 2.322 . S
O220 C202 1.259 . S
O221 Ho201 2.346 . S
O221 C202 1.268 . S
O222 Ho200 2.378 . S
O222 C203 1.215 . S
O223 Ho200 2.524 . S
O223 C203 1.289 . S
O224 Ho200 2.381 . S
O224 C210 1.275 . S
O225 Ho200 2.669 . S
O225 Ho201 2.305 . S
O225 C210 1.256 . S
O226 Ho201 2.322 . S
O226 C211 1.259 . S
O227 Ho200 2.346 . S
O227 C211 1.268 . S
O228 Ho201 2.378 . S
O228 C212 1.215 . S
O229 Ho201 2.524 . S
O229 C212 1.289 . S
O230 Ho201 2.381 . S
O230 C219 1.275 . S
O231 Ho200 2.305 . S
O231 Ho201 2.669 . S
O231 C219 1.256 . S
H232 C205 0.930 . S
H233 C206 0.931 . S
H234 C208 0.934 . S
H235 C209 0.930 . S
H236 C214 0.930 . S
H237 C215 0.931 . S
H238 C217 0.934 . S
H239 C218 0.930 . S
C240 C241 1.363 . S
C240 C246 1.379 1_556 S
C240 N248 1.356 . S
C241 C240 1.363 . S
C241 C247 1.363 . S
C242 C243 1.363 . S
C242 C247 1.379 1_554 S
C242 N249 1.356 . S
C243 C242 1.363 . S
C243 C246 1.363 . S
N244 C246 1.356 . S
N244 H256 0.984 . S
N244 H257 0.985 . S
N245 C247 1.356 . S
N245 H250 0.984 . S
N245 H251 0.985 . S
C246 C240 1.379 1_554 S
C246 C243 1.363 . S
C246 N244 1.356 . S
C247 C241 1.363 . S
C247 C242 1.379 1_556 S
C247 N245 1.356 . S
N248 C240 1.356 . S
N248 H254 0.984 . S
N248 H255 0.984 . S
N249 C242 1.356 . S
N249 H252 0.984 . S
N249 H253 0.985 . S
H250 N245 0.984 . S
H251 N245 0.985 . S
H252 N249 0.984 . S
H253 N249 0.985 . S
H254 N248 0.984 . S
H255 N248 0.984 . S
H256 N244 0.984 . S
H257 N244 0.985 . S
C258 C259 1.363 . S
C258 C264 1.379 1_455 S
C258 N266 1.356 . S
C259 C258 1.363 . S
C259 C265 1.363 . S
C260 C261 1.363 . S
C260 C265 1.379 1_655 S
C260 N267 1.356 . S
C261 C260 1.363 . S
C261 C264 1.363 . S
N262 C264 1.356 . S
N262 H274 0.984 . S
N262 H275 0.985 . S
N263 C265 1.356 . S
N263 H268 0.984 . S
N263 H269 0.985 . S
C264 C258 1.379 1_655 S
C264 C261 1.363 . S
C264 N262 1.356 . S
C265 C259 1.363 . S
C265 C260 1.379 1_455 S
C265 N263 1.356 . S
N266 C258 1.356 . S
N266 H272 0.984 . S
N266 H273 0.984 . S
N267 C260 1.356 . S
N267 H270 0.984 . S
N267 H271 0.985 . S
H268 N263 0.984 . S
H269 N263 0.985 . S
H270 N267 0.984 . S
H271 N267 0.985 . S
H272 N266 0.984 . S
H273 N266 0.984 . S
H274 N262 0.984 . S
H275 N262 0.985 . S
C276 C277 1.363 1_565 S
C276 C282 1.379 . S
C276 N284 1.356 . S
C277 C276 1.363 1_545 S
C277 C283 1.363 . S
C278 C279 1.363 1_545 S
C278 C283 1.379 . S
C278 N285 1.356 . S
C279 C278 1.363 1_565 S
C279 C282 1.363 . S
N280 C282 1.356 . S
N280 H292 0.984 . S
N280 H293 0.985 . S
N281 C283 1.356 . S
N281 H286 0.984 . S
N281 H287 0.985 . S
C282 C276 1.379 . S
C282 C279 1.363 . S
C282 N280 1.356 . S
C283 C277 1.363 . S
C283 C278 1.379 . S
C283 N281 1.356 . S
N284 C276 1.356 . S
N284 H290 0.984 . S
N284 H291 0.984 . S
N285 C278 1.356 . S
N285 H288 0.984 . S
N285 H289 0.985 . S
H286 N281 0.984 . S
H287 N281 0.985 . S
H288 N285 0.984 . S
H289 N285 0.985 . S
H290 N284 0.984 . S
H291 N284 0.984 . S
H292 N280 0.984 . S
H293 N280 0.985 . S
C294 C295 1.363 . S
C294 C300 1.379 . S
C294 N302 1.356 . S
C295 C294 1.363 . S
C295 C301 1.363 1_556 S
C296 C297 1.363 . S
C296 C301 1.379 . S
C296 N303 1.356 . S
C297 C296 1.363 . S
C297 C300 1.363 1_554 S
N298 C300 1.356 . S
N298 H310 0.984 . S
N298 H311 0.985 1_556 S
N299 C301 1.356 . S
N299 H304 0.984 1_554 S
N299 H305 0.985 . S
C300 C294 1.379 . S
C300 C297 1.363 1_556 S
C300 N298 1.356 . S
C301 C295 1.363 1_554 S
C301 C296 1.379 . S
C301 N299 1.356 . S
N302 C294 1.356 . S
N302 H308 0.984 . S
N302 H309 0.984 . S
N303 C296 1.356 . S
N303 H306 0.984 . S
N303 H307 0.985 . S
H304 N299 0.984 1_556 S
H305 N299 0.985 . S
H306 N303 0.984 . S
H307 N303 0.985 . S
H308 N302 0.984 . S
H309 N302 0.984 . S
H310 N298 0.984 . S
H311 N298 0.985 1_554 S
C312 C313 1.363 . S
C312 C318 1.379 . S
C312 N320 1.356 . S
C313 C312 1.363 . S
C313 C319 1.363 1_455 S
C314 C315 1.363 . S
C314 C319 1.379 . S
C314 N321 1.356 . S
C315 C314 1.363 . S
C315 C318 1.363 1_655 S
N316 C318 1.356 . S
N316 H328 0.984 . S
N316 H329 0.985 . S
N317 C319 1.356 . S
N317 H322 0.984 . S
N317 H323 0.985 . S
C318 C312 1.379 . S
C318 C315 1.363 1_455 S
C318 N316 1.356 . S
C319 C313 1.363 1_655 S
C319 C314 1.379 . S
C319 N317 1.356 . S
N320 C312 1.356 . S
N320 H326 0.984 . S
N320 H327 0.984 . S
N321 C314 1.356 . S
N321 H324 0.984 . S
N321 H325 0.985 . S
H322 N317 0.984 . S
H323 N317 0.985 . S
H324 N321 0.984 . S
H325 N321 0.985 . S
H326 N320 0.984 . S
H327 N320 0.984 . S
H328 N316 0.984 . S
H329 N316 0.985 . S
C330 C331 1.363 . S
C330 C336 1.379 1_545 S
C330 N338 1.356 . S
C331 C330 1.363 . S
C331 C337 1.363 . S
C332 C333 1.363 . S
C332 C337 1.379 1_565 S
C332 N339 1.356 . S
C333 C332 1.363 . S
C333 C336 1.363 . S
N334 C336 1.356 . S
N334 H346 0.984 . S
N334 H347 0.985 . S
N335 C337 1.356 . S
N335 H340 0.984 . S
N335 H341 0.985 . S
C336 C330 1.379 1_565 S
C336 C333 1.363 . S
C336 N334 1.356 . S
C337 C331 1.363 . S
C337 C332 1.379 1_545 S
C337 N335 1.356 . S
N338 C330 1.356 . S
N338 H344 0.984 1_545 S
N338 H345 0.984 . S
N339 C332 1.356 . S
N339 H342 0.984 . S
N339 H343 0.985 1_565 S
H340 N335 0.984 . S
H341 N335 0.985 . S
H342 N339 0.984 . S
H343 N339 0.985 1_545 S
H344 N338 0.984 1_565 S
H345 N338 0.984 . S
H346 N334 0.984 . S
H347 N334 0.985 . S
C348 C349 1.363 . S
C348 C354 1.379 . S
C348 N356 1.356 . S
C349 C348 1.363 . S
C349 C355 1.363 . S
C350 C351 1.363 . S
C350 C355 1.379 . S
C350 N357 1.356 . S
C351 C350 1.363 . S
C351 C354 1.363 . S
N352 C354 1.356 . S
N352 H364 0.984 . S
N352 H365 0.985 . S
N353 C355 1.356 . S
N353 H358 0.984 . S
N353 H359 0.985 . S
C354 C348 1.379 . S
C354 C351 1.363 . S
C354 N352 1.356 . S
C355 C349 1.363 . S
C355 C350 1.379 . S
C355 N353 1.356 . S
N356 C348 1.356 . S
N356 H362 0.984 . S
N356 H363 0.984 . S
N357 C350 1.356 . S
N357 H360 0.984 . S
N357 H361 0.985 . S
H358 N353 0.984 . S
H359 N353 0.985 . S
H360 N357 0.984 . S
H361 N357 0.985 . S
H362 N356 0.984 . S
H363 N356 0.984 . S
H364 N352 0.984 . S
H365 N352 0.985 . S
C366 C367 1.363 . S
C366 C372 1.379 . S
C366 N374 1.356 1_545 S
C367 C366 1.363 . S
C367 C373 1.363 . S
C368 C369 1.363 . S
C368 C373 1.379 . S
C368 N375 1.356 . S
C369 C368 1.363 . S
C369 C372 1.363 . S
N370 C372 1.356 . S
N370 H382 0.984 . S
N370 H383 0.985 . S
N371 C373 1.356 1_554 S
N371 H376 0.984 . S
N371 H377 0.985 . S
C372 C366 1.379 . S
C372 C369 1.363 . S
C372 N370 1.356 . S
C373 C367 1.363 . S
C373 C368 1.379 . S
C373 N371 1.356 1_556 S
N374 C366 1.356 1_565 S
N374 H380 0.984 . S
N374 H381 0.977 1_556 S
N375 C368 1.356 . S
N375 H378 0.984 . S
N375 H379 0.985 . S
H376 N371 0.984 . S
H377 N371 0.985 . S
H378 N375 0.984 . S
H379 N375 0.985 . S
H380 N374 0.984 . S
H381 N374 0.977 1_554 S
H382 N370 0.984 . S
H383 N370 0.985 . S
C384 C385 1.363 . S
C384 C390 1.379 . S
C384 N392 1.356 . S
C385 C384 1.363 . S
C385 C391 1.363 . S
C386 C387 1.363 . S
C386 C391 1.379 . S
C386 N393 1.356 1_565 S
C387 C386 1.363 . S
C387 C390 1.363 . S
N388 C390 1.356 . S
N388 H400 0.984 . S
N388 H401 0.985 . S
N389 C391 1.356 . S
N389 H394 0.984 . S
N389 H395 0.985 . S
C390 C384 1.379 . S
C390 C387 1.363 . S
C390 N388 1.356 . S
C391 C385 1.363 . S
C391 C386 1.379 . S
C391 N389 1.356 . S
N392 C384 1.356 . S
N392 H398 0.984 . S
N392 H399 0.984 . S
N393 C386 1.356 1_545 S
N393 H396 0.984 . S
N393 H397 0.985 . S
H394 N389 0.984 . S
H395 N389 0.985 . S
H396 N393 0.984 . S
H397 N393 0.985 . S
H398 N392 0.984 . S
H399 N392 0.984 . S
H400 N388 0.984 . S
H401 N388 0.985 . S
C402 C403 1.363 . S
C402 C408 1.379 . S
C402 N410 1.356 . S
C403 C402 1.363 . S
C403 C409 1.363 . S
C404 C405 1.363 . S
C404 C409 1.379 . S
C404 N411 1.356 . S
C405 C404 1.363 . S
C405 C408 1.363 . S
N406 C408 1.356 . S
N406 H418 0.984 . S
N406 H419 0.985 . S
N407 C409 1.356 . S
N407 H412 0.984 . S
N407 H413 0.985 . S
C408 C402 1.379 . S
C408 C405 1.363 . S
C408 N406 1.356 . S
C409 C403 1.363 . S
C409 C404 1.379 . S
C409 N407 1.356 . S
N410 C402 1.356 . S
N410 H416 0.984 . S
N410 H417 0.984 . S
N411 C404 1.356 . S
N411 H414 0.984 . S
N411 H415 0.985 . S
H412 N407 0.984 . S
H413 N407 0.985 . S
H414 N411 0.984 . S
H415 N411 0.985 . S
H416 N410 0.984 . S
H417 N410 0.984 . S
H418 N406 0.984 . S
H419 N406 0.985 . S
C420 C421 1.363 . S
C420 C426 1.379 . S
C420 N428 1.356 1_554 S
C421 C420 1.363 . S
C421 C427 1.363 . S
C422 C423 1.363 . S
C422 C427 1.379 . S
C422 N429 1.356 . S
C423 C422 1.363 . S
C423 C426 1.363 . S
N424 C426 1.356 . S
N424 H436 0.984 . S
N424 H437 0.985 . S
N425 C427 1.356 1_655 S
N425 H430 0.984 . S
N425 H431 0.985 . S
C426 C420 1.379 . S
C426 C423 1.363 . S
C426 N424 1.356 . S
C427 C421 1.363 . S
C427 C422 1.379 . S
C427 N425 1.356 1_455 S
N428 C420 1.356 1_556 S
N428 H434 0.984 . S
N428 H435 0.984 . S
N429 C422 1.356 . S
N429 H432 0.984 . S
N429 H433 0.985 . S
H430 N425 0.984 . S
H431 N425 0.985 . S
H432 N429 0.984 . S
H433 N429 0.985 . S
H434 N428 0.984 . S
H435 N428 0.984 . S
H436 N424 0.984 . S
H437 N424 0.985 . S
C438 C439 1.363 . S
C438 C444 1.379 . S
C438 N446 1.356 . S
C439 C438 1.363 . S
C439 C445 1.363 . S
C440 C441 1.363 . S
C440 C445 1.379 . S
C440 N447 1.356 . S
C441 C440 1.363 . S
C441 C444 1.363 . S
N442 C444 1.356 . S
N442 H454 0.984 . S
N442 H455 0.985 . S
N443 C445 1.356 . S
N443 H448 0.984 . S
N443 H449 0.985 . S
C444 C438 1.379 . S
C444 C441 1.363 . S
C444 N442 1.356 . S
C445 C439 1.363 . S
C445 C440 1.379 . S
C445 N443 1.356 . S
N446 C438 1.356 . S
N446 H452 0.984 . S
N446 H453 0.984 . S
N447 C440 1.356 . S
N447 H450 0.984 . S
N447 H451 0.985 . S
H448 N443 0.984 . S
H449 N443 0.985 . S
H450 N447 0.984 . S
H451 N447 0.985 . S
H452 N446 0.984 . S
H453 N446 0.984 . S
H454 N442 0.984 . S
H455 N442 0.985 . S
C456 C457 1.363 . S
C456 C462 1.379 . S
C456 N464 1.356 . S
C457 C456 1.363 . S
C457 C463 1.363 . S
C458 C459 1.363 . S
C458 C463 1.379 . S
C458 N465 1.356 . S
C459 C458 1.363 . S
C459 C462 1.363 . S
N460 C462 1.356 . S
N460 H472 0.984 . S
N460 H473 0.985 . S
N461 C463 1.356 . S
N461 H466 0.984 . S
N461 H467 0.985 . S
C462 C456 1.379 . S
C462 C459 1.363 . S
C462 N460 1.356 . S
C463 C457 1.363 . S
C463 C458 1.379 . S
C463 N461 1.356 . S
N464 C456 1.356 . S
N464 H470 0.984 . S
N464 H471 0.984 . S
N465 C458 1.356 . S
N465 H468 0.984 . S
N465 H469 0.990 . S
H466 N461 0.984 . S
H467 N461 0.985 . S
H468 N465 0.984 . S
H469 N465 0.990 . S
H470 N464 0.984 . S
H471 N464 0.984 . S
H472 N460 0.984 . S
H473 N460 0.985 . S
C474 C475 1.363 . S
C474 C480 1.379 . S
C474 N482 1.356 . S
C475 C474 1.363 . S
C475 C481 1.363 . S
C476 C477 1.363 . S
C476 C481 1.379 . S
C476 N483 1.356 . S
C477 C476 1.363 . S
C477 C480 1.363 . S
N478 C480 1.356 . S
N478 H490 0.984 . S
N478 H491 0.985 . S
N479 C481 1.356 . S
N479 H484 0.984 . S
N479 H485 0.985 . S
C480 C474 1.379 . S
C480 C477 1.363 . S
C480 N478 1.356 . S
C481 C475 1.363 . S
C481 C476 1.379 . S
C481 N479 1.356 . S
N482 C474 1.356 . S
N482 H488 0.984 . S
N482 H489 0.984 . S
N483 C476 1.356 . S
N483 H486 0.984 . S
N483 H487 0.985 . S
H484 N479 0.984 . S
H485 N479 0.985 . S
H486 N483 0.984 . S
H487 N483 0.985 . S
H488 N482 0.984 . S
H489 N482 0.984 . S
H490 N478 0.984 . S
H491 N478 0.985 . S
C492 C493 1.363 . S
C492 C498 1.379 . S
C492 N500 1.356 . S
C493 C492 1.363 . S
C493 C499 1.363 . S
C494 C495 1.363 . S
C494 C499 1.379 . S
C494 N501 1.356 . S
C495 C494 1.363 . S
C495 C498 1.363 . S
N496 C498 1.356 . S
N496 H508 0.983 1_554 S
N496 H509 0.985 1_554 S
N497 C499 1.356 . S
N497 H502 0.984 . S
N497 H503 0.985 . S
C498 C492 1.379 . S
C498 C495 1.363 . S
C498 N496 1.356 . S
C499 C493 1.363 . S
C499 C494 1.379 . S
C499 N497 1.356 . S
N500 C492 1.356 . S
N500 H506 0.984 . S
N500 H507 0.984 . S
N501 C494 1.356 . S
N501 H504 0.984 . S
N501 H505 0.985 . S
H502 N497 0.984 . S
H503 N497 0.985 . S
H504 N501 0.984 . S
H505 N501 0.985 . S
H506 N500 0.984 . S
H507 N500 0.984 . S
H508 N496 0.983 1_556 S
H509 N496 0.985 1_556 S
C510 C511 1.363 . S
C510 C516 1.379 . S
C510 N518 1.356 . S
C511 C510 1.363 . S
C511 C517 1.363 . S
C512 C513 1.363 . S
C512 C517 1.379 . S
C512 N519 1.356 . S
C513 C512 1.363 . S
C513 C516 1.363 . S
N514 C516 1.356 . S
N514 H526 0.984 . S
N514 H527 0.985 . S
N515 C517 1.356 . S
N515 H520 0.984 . S
N515 H521 0.985 . S
C516 C510 1.379 . S
C516 C513 1.363 . S
C516 N514 1.356 . S
C517 C511 1.363 . S
C517 C512 1.379 . S
C517 N515 1.356 . S
N518 C510 1.356 . S
N518 H524 0.984 . S
N518 H525 0.984 . S
N519 C512 1.356 . S
N519 H522 0.984 . S
N519 H523 0.985 . S
H520 N515 0.984 . S
H521 N515 0.985 . S
H522 N519 0.984 . S
H523 N519 0.985 . S
H524 N518 0.984 . S
H525 N518 0.984 . S
H526 N514 0.984 . S
H527 N514 0.985 . S
C528 C529 1.363 . S
C528 C534 1.379 . S
C528 N536 1.356 . S
C529 C528 1.363 . S
C529 C535 1.363 . S
C530 C531 1.363 . S
C530 C535 1.379 . S
C530 N537 1.356 . S
C531 C530 1.363 . S
C531 C534 1.363 . S
N532 C534 1.356 . S
N532 H544 0.984 . S
N532 H545 0.985 . S
N533 C535 1.356 . S
N533 H538 0.984 . S
N533 H539 0.985 . S
C534 C528 1.379 . S
C534 C531 1.363 . S
C534 N532 1.356 . S
C535 C529 1.363 . S
C535 C530 1.379 . S
C535 N533 1.356 . S
N536 C528 1.356 . S
N536 H542 0.984 . S
N536 H543 0.984 . S
N537 C530 1.356 . S
N537 H540 0.984 . S
N537 H541 0.985 . S
H538 N533 0.984 . S
H539 N533 0.985 . S
H540 N537 0.984 . S
H541 N537 0.985 . S
H542 N536 0.984 . S
H543 N536 0.984 . S
H544 N532 0.984 . S
H545 N532 0.985 . S
C546 C547 1.363 . S
C546 C552 1.379 . S
C546 N554 1.356 . S
C547 C546 1.363 . S
C547 C553 1.363 . S
C548 C549 1.363 . S
C548 C553 1.379 . S
C548 N555 1.356 . S
C549 C548 1.363 . S
C549 C552 1.363 . S
N550 C552 1.356 . S
N550 H562 0.984 . S
N550 H563 0.985 . S
N551 C553 1.356 . S
N551 H556 0.984 . S
N551 H557 0.985 . S
C552 C546 1.379 . S
C552 C549 1.363 . S
C552 N550 1.356 . S
C553 C547 1.363 . S
C553 C548 1.379 . S
C553 N551 1.356 . S
N554 C546 1.356 . S
N554 H560 0.984 . S
N554 H561 0.984 1_556 S
N555 C548 1.356 . S
N555 H558 0.984 . S
N555 H559 0.985 . S
H556 N551 0.984 . S
H557 N551 0.985 . S
H558 N555 0.984 . S
H559 N555 0.985 . S
H560 N554 0.984 . S
H561 N554 0.984 1_554 S
H562 N550 0.984 . S
H563 N550 0.985 . S
C241 C202 1.985 . S
C243 C2 1.985 . S
C259 C10 1.452 . S
C261 C50 1.452 . S
C277 C42 1.985 . S
C279 C82 1.985 . S
C295 C90 1.452 . S
C297 C130 1.452 . S
C313 C162 1.985 . S
C315 C122 1.985 . S
C331 C210 1.452 . S
C333 C170 1.452 . S
C349 C7 1.900 . S
C351 C16 1.900 . S
C367 C56 1.900 1_556 S
C369 C47 1.900 . S
C385 C87 1.901 . S
C387 C96 1.901 . S
C403 C136 1.900 . S
C405 C127 1.900 . S
C421 C176 1.901 1_554 S
C423 C167 1.901 . S
C439 C216 1.901 . S
C441 C207 1.901 . S
C457 C11 1.951 . S
C459 C179 1.935 . S
C475 C59 1.935 . S
C477 C211 1.952 . S
C493 C19 1.935 . S
C495 C91 1.951 1_554 S
C511 C51 1.951 . S
C513 C139 1.935 . S
C529 C171 1.951 . S
C531 C99 1.935 . S
C547 C131 1.951 1_556 S
C549 C219 1.935 . S
