# Generated by pormake.
# Topology vbm, (6)-cn, num edge types: 1
# Building blocks:
#     Node 0, Type 0, BuildingBlock: KUMBUR_clean_sbu_0, # of connection points: 6
#     Node 1, Type 0, BuildingBlock: KUMBUR_clean_sbu_0, # of connection points: 6
#     Node 2, Type 0, BuildingBlock: KUMBUR_clean_sbu_0, # of connection points: 6
#     Node 3, Type 0, BuildingBlock: KUMBUR_clean_sbu_0, # of connection points: 6
#     Node 4, Type 0, BuildingBlock: KUMBUR_clean_sbu_0, # of connection points: 6
#     Node 5, Type 0, BuildingBlock: KUMBUR_clean_sbu_0, # of connection points: 6
#     Node 6, Type 0, BuildingBlock: KUMBUR_clean_sbu_0, # of connection points: 6
#     Node 7, Type 0, BuildingBlock: KUMBUR_clean_sbu_0, # of connection points: 6
#     Node 8, Type 0, BuildingBlock: KUMBUR_clean_sbu_0, # of connection points: 6
#     Node 9, Type 0, BuildingBlock: KUMBUR_clean_sbu_0, # of connection points: 6
#     Node 10, Type 0, BuildingBlock: KUMBUR_clean_sbu_0, # of connection points: 6
#     Node 11, Type 0, BuildingBlock: KUMBUR_clean_sbu_0, # of connection points: 6
#     Node 12, Type 0, BuildingBlock: KUMBUR_clean_sbu_0, # of connection points: 6
#     Node 13, Type 0, BuildingBlock: KUMBUR_clean_sbu_0, # of connection points: 6
#     Node 14, Type 0, BuildingBlock: KUMBUR_clean_sbu_0, # of connection points: 6
#     Node 15, Type 0, BuildingBlock: KUMBUR_clean_sbu_0, # of connection points: 6
#     Edge 16, Type (0, 0), BuildingBlock: AJUNOK_clean_linker_0, # of connection points: 2
#     Edge 17, Type (0, 0), BuildingBlock: AJUNOK_clean_linker_0, # of connection points: 2
#     Edge 18, Type (0, 0), BuildingBlock: AJUNOK_clean_linker_0, # of connection points: 2
#     Edge 19, Type (0, 0), BuildingBlock: AJUNOK_clean_linker_0, # of connection points: 2
#     Edge 20, Type (0, 0), BuildingBlock: AJUNOK_clean_linker_0, # of connection points: 2
#     Edge 21, Type (0, 0), BuildingBlock: AJUNOK_clean_linker_0, # of connection points: 2
#     Edge 22, Type (0, 0), BuildingBlock: AJUNOK_clean_linker_0, # of connection points: 2
#     Edge 23, Type (0, 0), BuildingBlock: AJUNOK_clean_linker_0, # of connection points: 2
#     Edge 24, Type (0, 0), BuildingBlock: AJUNOK_clean_linker_0, # of connection points: 2
#     Edge 25, Type (0, 0), BuildingBlock: AJUNOK_clean_linker_0, # of connection points: 2
#     Edge 26, Type (0, 0), BuildingBlock: AJUNOK_clean_linker_0, # of connection points: 2
#     Edge 27, Type (0, 0), BuildingBlock: AJUNOK_clean_linker_0, # of connection points: 2
#     Edge 28, Type (0, 0), BuildingBlock: AJUNOK_clean_linker_0, # of connection points: 2
#     Edge 29, Type (0, 0), BuildingBlock: AJUNOK_clean_linker_0, # of connection points: 2
#     Edge 30, Type (0, 0), BuildingBlock: AJUNOK_clean_linker_0, # of connection points: 2
#     Edge 31, Type (0, 0), BuildingBlock: AJUNOK_clean_linker_0, # of connection points: 2
#     Edge 32, Type (0, 0), BuildingBlock: AJUNOK_clean_linker_0, # of connection points: 2
#     Edge 33, Type (0, 0), BuildingBlock: AJUNOK_clean_linker_0, # of connection points: 2
#     Edge 34, Type (0, 0), BuildingBlock: AJUNOK_clean_linker_0, # of connection points: 2
#     Edge 35, Type (0, 0), BuildingBlock: AJUNOK_clean_linker_0, # of connection points: 2
#     Edge 36, Type (0, 0), BuildingBlock: AJUNOK_clean_linker_0, # of connection points: 2
#     Edge 37, Type (0, 0), BuildingBlock: AJUNOK_clean_linker_0, # of connection points: 2
#     Edge 38, Type (0, 0), BuildingBlock: AJUNOK_clean_linker_0, # of connection points: 2
#     Edge 39, Type (0, 0), BuildingBlock: AJUNOK_clean_linker_0, # of connection points: 2
#     Edge 40, Type (0, 0), BuildingBlock: AJUNOK_clean_linker_0, # of connection points: 2
#     Edge 41, Type (0, 0), BuildingBlock: AJUNOK_clean_linker_0, # of connection points: 2
#     Edge 42, Type (0, 0), BuildingBlock: AJUNOK_clean_linker_0, # of connection points: 2
#     Edge 43, Type (0, 0), BuildingBlock: AJUNOK_clean_linker_0, # of connection points: 2
#     Edge 44, Type (0, 0), BuildingBlock: AJUNOK_clean_linker_0, # of connection points: 2
#     Edge 45, Type (0, 0), BuildingBlock: AJUNOK_clean_linker_0, # of connection points: 2
#     Edge 46, Type (0, 0), BuildingBlock: AJUNOK_clean_linker_0, # of connection points: 2
#     Edge 47, Type (0, 0), BuildingBlock: AJUNOK_clean_linker_0, # of connection points: 2
#     Edge 48, Type (0, 0), BuildingBlock: AJUNOK_clean_linker_0, # of connection points: 2
#     Edge 49, Type (0, 0), BuildingBlock: AJUNOK_clean_linker_0, # of connection points: 2
#     Edge 50, Type (0, 0), BuildingBlock: AJUNOK_clean_linker_0, # of connection points: 2
#     Edge 51, Type (0, 0), BuildingBlock: AJUNOK_clean_linker_0, # of connection points: 2
#     Edge 52, Type (0, 0), BuildingBlock: AJUNOK_clean_linker_0, # of connection points: 2
#     Edge 53, Type (0, 0), BuildingBlock: AJUNOK_clean_linker_0, # of connection points: 2
#     Edge 54, Type (0, 0), BuildingBlock: AJUNOK_clean_linker_0, # of connection points: 2
#     Edge 55, Type (0, 0), BuildingBlock: AJUNOK_clean_linker_0, # of connection points: 2
#     Edge 56, Type (0, 0), BuildingBlock: AJUNOK_clean_linker_0, # of connection points: 2
#     Edge 57, Type (0, 0), BuildingBlock: AJUNOK_clean_linker_0, # of connection points: 2
#     Edge 58, Type (0, 0), BuildingBlock: AJUNOK_clean_linker_0, # of connection points: 2
#     Edge 59, Type (0, 0), BuildingBlock: AJUNOK_clean_linker_0, # of connection points: 2
#     Edge 60, Type (0, 0), BuildingBlock: AJUNOK_clean_linker_0, # of connection points: 2
#     Edge 61, Type (0, 0), BuildingBlock: AJUNOK_clean_linker_0, # of connection points: 2
#     Edge 62, Type (0, 0), BuildingBlock: AJUNOK_clean_linker_0, # of connection points: 2
#     Edge 63, Type (0, 0), BuildingBlock: AJUNOK_clean_linker_0, # of connection points: 2
# Relax obj value: 0.075
# Max RMSD: 0.147
# Mean RMSD: 0.147
data_MOF--net-vbm--node1-KUMBUR_clean_sbu_0--edge1-AJUNOK_clean_linker_0
_symmetry_space_group_name_H-M    P1
_symmetry_Int_Tables_number       1
_symmetry_cell_setting            triclinic
loop_
_symmetry_equiv_pos_as_xyz
'x, y, z'
_cell_length_a     36.08177
_cell_length_b     20.105186
_cell_length_c     42.772312
_cell_angle_alpha  89.845856
_cell_angle_beta   89.94138
_cell_angle_gamma 90.107884
loop_
_atom_site_label
_atom_site_type_symbol
_atom_site_fract_x
_atom_site_fract_y
_atom_site_fract_z
_atom_type_partial_charge
Tb0 Tb 0.17206 0.06215 0.12336 0.0
C1 C 0.05354 0.20949 0.1844 0.0
C2 C 1.00132 0.19456 0.14995 0.0
C3 C 0.99192 0.19706 0.2062 0.0
C4 C 0.03968 0.20144 0.15472 0.0
C5 C 0.02995 0.20833 0.21051 0.0
C6 C 0.97763 0.19122 0.17582 0.0
C7 C 0.08218 0.2411 0.24227 0.0
N8 N 0.09015 0.2225 0.18744 0.0
C9 C 0.10406 0.24447 0.21535 0.0
C10 C 0.04526 0.22042 0.23993 0.0
Tb11 Tb 0.12534 0.2073 0.1437 0.0
N12 N 0.06363 0.20487 0.13041 0.0
C13 C 0.05028 0.20783 0.10044 0.0
C14 C 0.98782 0.193 0.11935 0.0
C15 C 1.01238 0.20122 0.09449 0.0
H16 H 0.13296 0.2581 0.21732 0.0
H17 H 1.00222 0.20195 0.0707 0.0
H18 H 0.94825 0.18623 0.17217 0.0
H19 H 0.09426 0.25217 0.26478 0.0
H20 H 0.0683 0.21456 0.08071 0.0
H21 H 0.30123 0.09233 0.18518 0.0
H22 H 0.95849 0.18726 0.11469 0.0
H23 H 0.15305 0.99527 0.05444 0.0
H24 H 0.23393 0.09015 0.17996 0.0
H25 H 0.1881 0.94898 0.01037 0.0
H26 H 0.97333 0.19573 0.22607 0.0
H27 H 0.34066 0.0681 0.13986 0.0
H28 H 0.34577 0.03753 0.08297 0.0
H29 H 0.02856 0.21516 0.26072 0.0
H30 H 0.31519 0.99413 0.03581 0.0
N31 N 0.23446 0.07066 0.13081 0.0
C32 C 0.25043 0.08153 0.15938 0.0
C33 C 0.31108 0.07 0.13673 0.0
C34 C 0.29473 0.05549 0.1079 0.0
C35 C 0.28884 0.08273 0.1626 0.0
C36 C 0.25582 0.05615 0.10564 0.0
H37 H 0.25641 0.95289 0.01066 0.0
N38 N 0.20101 1.03096 0.07837 0.0
C39 C 0.20256 0.97382 0.02919 0.0
C40 C 0.23855 0.03481 0.07857 0.0
C41 C 0.18279 1.00043 0.05424 0.0
C42 C 0.24114 0.97726 0.02916 0.0
C43 C 0.25964 1.00923 0.05364 0.0
O44 O 0.14649 0.96869 0.11925 0.0
O45 O 0.11831 0.10333 0.13535 0.0
O46 O 0.12019 0.13723 0.18402 0.0
O47 O 0.17041 0.06945 0.17448 0.0
O48 O 0.12022 0.04168 0.09799 0.0
O49 O 0.19396 0.98201 0.14903 0.0
O50 O 0.14468 0.30071 0.15824 0.0
O51 O 0.17965 0.16913 0.13097 0.0
O52 O 0.17774 0.12259 0.08188 0.0
O53 O 0.13012 0.19744 0.09143 0.0
O54 O 0.17624 0.2265 0.16997 0.0
O55 O 0.11164 0.2912 0.11662 0.0
C56 C 0.09792 0.07559 0.115 0.0
C57 C 0.1844 0.87665 0.12635 0.0
C58 C 0.17675 0.75757 0.12239 0.0
C59 C 0.16581 0.81849 0.13495 0.0
C60 C 0.20579 0.75504 0.10066 0.0
C61 C 0.2143 0.87352 0.10559 0.0
C62 C 0.22419 0.81334 0.09204 0.0
C63 C 0.14403 0.0909 0.19316 0.0
C64 C 0.1702 0.93995 0.13755 0.0
C65 C 0.29845 1.01225 0.05501 0.0
C66 C 0.31591 0.03638 0.08194 0.0
C67 C 0.19953 0.19834 0.15157 0.0
C68 C 0.10681 0.39035 0.14552 0.0
C69 C 0.12272 0.45291 0.141 0.0
C70 C 0.10577 0.50967 0.15318 0.0
C71 C 0.07227 0.50362 0.16957 0.0
C72 C 0.07278 0.38473 0.16115 0.0
C73 C 0.05562 0.44131 0.17319 0.0
C74 C 0.15395 0.16762 0.07219 0.0
C75 C 0.1278 0.33197 0.13583 0.0
H76 H 0.14314 0.82047 0.15156 0.0
H77 H 0.21402 0.70812 0.0904 0.0
H78 H 0.22985 0.91714 0.09962 0.0
H79 H 0.24599 0.81245 0.07474 0.0
H80 H 0.14836 0.45762 0.12805 0.0
H81 H 0.05947 0.54675 0.17999 0.0
H82 H 0.05975 0.33699 0.16443 0.0
H83 H 0.02969 0.4367 0.18575 0.0
Tb84 Tb 0.86744 0.99569 0.12638 0.0
C85 C 0.97995 0.8064 0.1894 0.0
C86 C 0.03729 0.81791 0.16034 0.0
C87 C 0.03639 0.7559 0.20904 0.0
C88 C 0.99885 0.82929 0.16339 0.0
C89 C 0.99852 0.76952 0.21259 0.0
C90 C 0.05605 0.78196 0.18356 0.0
C91 C 0.94049 0.75897 0.24027 0.0
N92 N 0.94276 0.81521 0.19061 0.0
C93 C 0.92289 0.79264 0.21586 0.0
C94 C 0.97834 0.74597 0.2383 0.0
Tb95 Tb 0.91586 0.85154 0.14532 0.0
N96 N 0.9788 0.85402 0.13925 0.0
C97 C 0.99561 0.86621 0.11111 0.0
C98 C 0.05496 0.83714 0.13265 0.0
C99 C 0.03393 0.8609 0.10779 0.0
H100 H 0.89338 0.79993 0.21741 0.0
H101 H 0.04701 0.87305 0.08571 0.0
H102 H 0.08531 0.77106 0.18123 0.0
H103 H 0.92466 0.74152 0.26018 0.0
H104 H 0.97977 0.88101 0.09101 0.0
H105 H 0.784 0.9659 0.23223 0.0
H106 H 0.0844 0.83037 0.12949 0.0
H107 H 0.84408 1.02731 0.05323 0.0
H108 H 0.84048 0.95929 0.20207 0.0
H109 H 0.78629 0.03692 0.0232 0.0
H110 H 0.0507 0.72491 0.22588 0.0
H111 H 0.72482 0.99367 0.20648 0.0
H112 H 0.69108 1.02339 0.15785 0.0
H113 H 0.99178 0.71819 0.25683 0.0
H114 H 0.69134 0.03862 0.10042 0.0
N115 N 0.81586 0.98811 0.15834 0.0
C116 C 0.81601 0.97475 0.1899 0.0
C117 C 0.7501 0.99195 0.19281 0.0
C118 C 0.74967 1.0034 0.16061 0.0
C119 C 0.7834 0.97676 0.20743 0.0
C120 C 0.78322 1.00004 0.14372 0.0
H121 H 0.72597 0.04016 0.05008 0.0
N122 N 0.81613 1.00801 0.09624 0.0
C123 C 0.78511 1.03134 0.04804 0.0
C124 C 0.78333 1.00931 0.11168 0.0
C125 C 0.81765 1.02336 0.0651 0.0
C126 C 0.7511 1.03173 0.06335 0.0
C127 C 0.75002 1.02249 0.0957 0.0
O128 O 0.88062 0.08202 0.10115 0.0
O129 O 0.92187 0.95626 0.13609 0.0
O130 O 0.92483 0.91677 0.1874 0.0
O131 O 0.88818 1.00728 0.17373 0.0
O132 O 0.91731 1.01726 0.0983 0.0
O133 O 0.85801 0.08738 0.14809 0.0
O134 O 0.89629 0.75338 0.15056 0.0
O135 O 0.86131 0.88943 0.1328 0.0
O136 O 0.86168 0.92967 0.08642 0.0
O137 O 0.91427 0.86636 0.09349 0.0
O138 O 0.86428 0.82782 0.1701 0.0
O139 O 0.93234 0.78014 0.11239 0.0
C140 C 0.94095 0.98598 0.11535 0.0
C141 C 0.85329 0.18277 0.11623 0.0
C142 C 0.85792 0.30279 0.11331 0.0
C143 C 0.87195 0.24166 0.12344 0.0
C144 C 0.82501 0.30455 0.09598 0.0
C145 C 0.82002 0.18484 0.09954 0.0
C146 C 0.80631 0.24552 0.089 0.0
C147 C 0.9099 0.97616 0.19374 0.0
C148 C 0.8712 0.12048 0.1243 0.0
C149 C 0.71687 1.02744 0.11247 0.0
C150 C 0.71673 1.01853 0.14493 0.0
C151 C 0.84127 0.85815 0.15242 0.0
C152 C 0.93598 0.67044 0.13171 0.0
C153 C 0.91774 0.60952 0.12877 0.0
C154 C 0.93618 0.54974 0.13529 0.0
C155 C 0.97306 0.55199 0.14572 0.0
C156 C 0.97354 0.67123 0.13965 0.0
C157 C 0.99171 0.6126 0.14737 0.0
C158 C 0.88768 0.8904 0.0752 0.0
C159 C 0.91513 0.73199 0.1267 0.0
H160 H 0.89774 0.23988 0.13645 0.0
H161 H 0.81458 0.35142 0.08718 0.0
H162 H 0.8051 0.14004 0.09401 0.0
H163 H 0.78171 0.24623 0.07468 0.0
H164 H 0.88952 0.60858 0.12062 0.0
H165 H 0.98757 0.507 0.15212 0.0
H166 H 0.98908 0.71653 0.1395 0.0
H167 H 0.02035 0.61462 0.15438 0.0
Tb168 Tb 0.16608 1.00029 0.38848 0.0
C169 C 0.0482 0.85852 0.33166 0.0
C170 C 0.99856 0.87699 0.36838 0.0
C171 C 0.98594 0.87822 0.31257 0.0
C172 C 0.03639 0.86696 0.36184 0.0
C173 C 0.02322 0.8629 0.30661 0.0
C174 C 0.9735 0.88471 0.34351 0.0
C175 C 0.07191 0.82283 0.2729 0.0
N176 N 0.08388 0.84069 0.32711 0.0
C177 C 0.09453 0.81433 0.29902 0.0
C178 C 0.03643 0.84964 0.27657 0.0
Tb179 Tb 0.12244 0.85177 0.36914 0.0
N180 N 0.06185 0.86147 0.38491 0.0
C181 C 0.05062 0.8589 0.41544 0.0
C182 C 0.98709 0.87716 0.39962 0.0
C183 C 1.01318 0.86652 0.42323 0.0
H184 H 0.12216 0.79444 0.2962 0.0
H185 H 1.00456 0.86506 0.44747 0.0
H186 H 0.94442 0.89406 0.34795 0.0
H187 H 0.08252 0.81064 0.25007 0.0
H188 H 0.07016 0.85035 0.43395 0.0
H189 H 0.28845 0.96797 0.3159 0.0
H190 H 0.95822 0.88423 0.4057 0.0
H191 H 0.16227 0.04457 0.46492 0.0
H192 H 0.22532 1.00244 0.32576 0.0
H193 H 0.20266 0.03698 0.51069 0.0
H194 H 0.96628 0.8817 0.29359 0.0
H195 H 0.32942 0.93652 0.3595 0.0
H196 H 0.33944 0.92816 0.41767 0.0
H197 H 1.01909 0.85814 0.2564 0.0
H198 H 0.31632 0.94835 0.47078 0.0
N199 N 0.22751 0.98542 0.37544 0.0
C200 C 0.24167 0.98808 0.34563 0.0
C201 C 0.30128 0.9517 0.36438 0.0
C202 C 0.28796 0.95557 0.395 0.0
C203 C 0.27822 0.96943 0.33969 0.0
C204 C 0.25049 0.97281 0.39984 0.0
H205 H 0.26626 0.99304 0.50534 0.0
N206 N 0.20132 1.00027 0.43343 0.0
C207 C 0.21248 1.01974 0.48821 0.0
C208 C 0.237 0.9809 0.42982 0.0
C209 C 0.18959 1.02352 0.46198 0.0
C210 C 0.24822 0.99457 0.48514 0.0
C211 C 0.26107 0.97552 0.45568 0.0
O212 O 0.14717 0.08533 0.41158 0.0
O213 O 0.11216 0.95105 0.38645 0.0
O214 O 0.12405 0.91415 0.32579 0.0
O215 O 0.16447 1.00017 0.33773 0.0
O216 O 0.11707 0.04199 0.36549 0.0
O217 O 0.18756 0.09272 0.37408 0.0
O218 O 0.14144 0.75795 0.35514 0.0
O219 O 0.17649 0.89266 0.3822 0.0
O220 O 0.13798 0.96155 0.42971 0.0
O221 O 0.13809 0.84957 0.41924 0.0
O222 O 0.17229 0.83684 0.34193 0.0
O223 O 0.10457 0.76688 0.39406 0.0
C224 C 0.0937 0.99632 0.37254 0.0
C225 C 0.17981 0.18623 0.40708 0.0
C226 C 0.17254 0.3056 0.40966 0.0
C227 C 0.16324 0.24464 0.39642 0.0
C228 C 0.19893 0.30814 0.43371 0.0
C229 C 0.20661 0.18845 0.4307 0.0
C230 C 0.21609 0.24962 0.44402 0.0
C231 C 0.14441 0.96647 0.3176 0.0
C232 C 0.16644 0.1246 0.39366 0.0
C233 C 0.29772 0.95447 0.45111 0.0
C234 C 0.31099 0.94361 0.42082 0.0
C235 C 0.19563 0.86402 0.36069 0.0
C236 C 0.10393 0.66612 0.36604 0.0
C237 C 0.11895 0.60504 0.37494 0.0
C238 C 0.10488 0.54573 0.36283 0.0
C239 C 0.07507 0.54774 0.34191 0.0
C240 C 0.07323 0.66793 0.34602 0.0
C241 C 0.05883 0.60864 0.33401 0.0
C242 C 0.13718 0.89939 0.43929 0.0
C243 C 0.12284 0.72636 0.37637 0.0
H244 H 0.14324 0.24279 0.37752 0.0
H245 H 0.20673 0.35533 0.44396 0.0
H246 H 0.21996 0.14347 0.43878 0.0
H247 H 0.23686 0.25176 0.46222 0.0
H248 H 0.14189 0.60336 0.39116 0.0
H249 H 0.06492 0.50242 0.33135 0.0
H250 H 0.06082 0.71469 0.33932 0.0
H251 H 0.0355 0.60997 0.31815 0.0
Tb252 Tb 0.86445 0.07925 0.37991 0.0
C253 C 0.98188 0.26938 0.32639 0.0
C254 C 0.03661 0.24877 0.35764 0.0
C255 C 0.04212 0.30736 0.30821 0.0
C256 C 0.99796 0.24403 0.35315 0.0
C257 C 1.00371 0.30196 0.30371 0.0
C258 C 0.05867 0.27949 0.33475 0.0
C259 C 0.94773 0.32717 0.27524 0.0
N260 N 0.94446 0.26766 0.32401 0.0
C261 C 0.92711 0.29748 0.29916 0.0
C262 C 0.98622 0.32993 0.27763 0.0
Tb263 Tb 0.91299 0.22796 0.36659 0.0
N264 N 0.97538 0.22105 0.37611 0.0
C265 C 0.98988 0.20463 0.40469 0.0
C266 C 0.0516 0.22673 0.38593 0.0
C267 C 0.02807 0.20522 0.40969 0.0
H268 H 0.8973 0.298 0.29746 0.0
H269 H 0.03926 0.18993 0.43205 0.0
H270 H 0.08832 0.28456 0.33801 0.0
H271 H 0.93386 0.34922 0.25534 0.0
H272 H 0.97244 0.18862 0.42368 0.0
H273 H 0.78006 0.12886 0.27642 0.0
H274 H 0.08107 0.22861 0.3902 0.0
H275 H 0.8377 1.02117 0.44952 0.0
H276 H 0.8361 0.09592 0.30299 0.0
H277 H 0.78085 1.02584 0.48135 0.0
H278 H 0.05916 0.33399 0.2915 0.0
H279 H 0.72257 0.14916 0.30626 0.0
H280 H 0.69028 0.15159 0.35793 0.0
H281 H 1.00214 0.35445 0.25944 0.0
H282 H 0.69051 0.1239 0.41432 0.0
N283 N 0.81246 0.09612 0.34917 0.0
C284 C 0.81207 0.10334 0.31721 0.0
C285 C 0.7474 0.13344 0.31841 0.0
C286 C 0.74731 0.12318 0.35069 0.0
C287 C 0.77977 0.12218 0.30154 0.0
C288 C 0.78037 0.10273 0.36542 0.0
H289 H 0.7234 0.07294 0.45995 0.0
N290 N 0.81269 0.06847 0.41021 0.0
C291 C 0.78036 0.04291 0.45766 0.0
C292 C 0.78056 0.08851 0.39695 0.0
C293 C 0.81245 0.04062 0.43943 0.0
C294 C 0.74803 0.07036 0.4455 0.0
C295 C 0.74762 0.09227 0.41453 0.0
O296 O 0.87539 0.98781 0.4015 0.0
O297 O 0.91846 0.12227 0.37182 0.0
O298 O 0.91854 0.17219 0.3217 0.0
O299 O 0.88726 0.07314 0.33287 0.0
O300 O 0.91571 0.05159 0.40538 0.0
O301 O 0.85282 0.99258 0.35454 0.0
O302 O 0.89217 0.32532 0.3626 0.0
O303 O 0.85809 0.18764 0.37711 0.0
O304 O 0.8614 0.13203 0.42405 0.0
O305 O 0.90882 0.2089 0.41784 0.0
O306 O 0.86304 0.2527 0.34071 0.0
O307 O 0.92905 0.29884 0.40001 0.0
C308 C 0.93873 0.08825 0.39003 0.0
C309 C 0.84358 0.89377 0.38344 0.0
C310 C 0.84541 0.77374 0.38884 0.0
C311 C 0.8629 0.83395 0.38157 0.0
C312 C 0.80771 0.77392 0.39712 0.0
C313 C 0.80609 0.894 0.39187 0.0
C314 C 0.78821 0.83391 0.39863 0.0
C315 C 0.90598 0.11206 0.31367 0.0
C316 C 0.86432 0.95438 0.37721 0.0
C317 C 0.71546 0.11754 0.40062 0.0
C318 C 0.71535 0.13328 0.36871 0.0
C319 C 0.83917 0.22186 0.35754 0.0
C320 C 0.93115 0.40924 0.38127 0.0
C321 C 0.91225 0.46925 0.38493 0.0
C322 C 0.92928 0.52972 0.37732 0.0
C323 C 0.96606 0.52991 0.36662 0.0
C324 C 0.96828 0.41026 0.37182 0.0
C325 C 0.9855 0.47024 0.36436 0.0
C326 C 0.88452 0.17647 0.43557 0.0
C327 C 0.9111 0.34673 0.38633 0.0
H328 H 0.89174 0.83438 0.37434 0.0
H329 H 0.79352 0.72791 0.40277 0.0
H330 H 0.79084 0.94013 0.39324 0.0
H331 H 0.7593 0.83377 0.40531 0.0
H332 H 0.88447 0.46939 0.39414 0.0
H333 H 0.9797 0.57598 0.36019 0.0
H334 H 0.98414 0.36528 0.37048 0.0
H335 H 1.01392 0.47 0.35683 0.0
Tb336 Tb 0.92212 0.85874 0.86842 0.0
C337 C 0.80059 1.03281 0.92377 0.0
C338 C 0.7489 1.01196 0.88902 0.0
C339 C 0.73813 0.06227 0.93976 0.0
C340 C 0.78717 1.00966 0.8955 0.0
C341 C 0.77638 0.06255 0.94545 0.0
C342 C 0.72442 0.03626 0.91177 0.0
C343 C 0.82987 0.09709 0.97529 0.0
N344 N 0.83778 0.03474 0.92808 0.0
C345 C 0.85275 0.06614 0.95343 0.0
C346 C 0.79154 0.09626 0.97095 0.0
Tb347 Tb 0.87293 1.00326 0.88675 0.0
N348 N 0.81188 0.99177 0.87318 0.0
C349 C 0.79988 0.97699 0.84356 0.0
C350 C 0.73667 0.99377 0.85922 0.0
C351 C 0.76225 0.9762 0.83643 0.0
H352 H 0.88246 0.06894 0.95629 0.0
H353 H 0.75308 0.96336 0.81312 0.0
H354 H 0.69501 0.03816 0.90745 0.0
H355 H 0.8418 0.12275 0.99511 0.0
H356 H 0.81876 0.96432 0.82503 0.0
H357 H 0.04888 0.875 0.93611 0.0
H358 H 0.70783 0.99578 0.85293 0.0
H359 H 0.91234 0.79782 0.79637 0.0
H360 H 0.98189 0.86519 0.92831 0.0
H361 H 0.94661 0.81137 0.74684 0.0
H362 H 0.71903 0.08421 0.95633 0.0
H363 H 0.09046 0.88513 0.8903 0.0
H364 H 0.0977 0.88372 0.83185 0.0
H365 H 0.77386 0.12238 0.9873 0.0
H366 H 0.06871 0.87465 0.77951 0.0
N367 N 0.98456 0.86569 0.87884 0.0
C368 C 0.99937 0.86675 0.90822 0.0
C369 C 0.06094 0.87883 0.88683 0.0
C370 C 0.04583 0.87551 0.85681 0.0
C371 C 0.0376 0.873 0.9127 0.0
C372 C 1.00727 0.86727 0.85372 0.0
H373 H 1.01031 0.8596 0.74758 0.0
N374 N 0.95544 0.84072 0.82377 0.0
C375 C 0.95996 0.82331 0.76871 0.0
C376 C 0.99184 0.85665 0.82495 0.0
C377 C 0.94056 0.81587 0.79678 0.0
C378 C 0.99595 0.84924 0.76917 0.0
C379 C 1.01344 0.86005 0.79777 0.0
O380 O 0.90187 0.76348 0.85809 0.0
O381 O 0.86678 0.89524 0.88012 0.0
O382 O 0.86688 0.94263 0.92841 0.0
O383 O 0.91657 0.87093 0.92046 0.0
O384 O 0.87245 0.83609 0.84178 0.0
O385 O 0.94 0.7781 0.89604 0.0
O386 O 0.89475 0.09847 0.89545 0.0
O387 O 0.92709 0.96322 0.87617 0.0
O388 O 0.92562 0.92492 0.82681 0.0
O389 O 0.878 0.99908 0.83623 0.0
O390 O 0.92424 1.02632 0.91289 0.0
O391 O 0.85595 0.08266 0.85796 0.0
C392 C 0.84809 0.86374 0.85935 0.0
C393 C 0.94119 0.6755 0.86947 0.0
C394 C 0.93935 0.55612 0.86242 0.0
C395 C 0.92493 0.61387 0.87569 0.0
C396 C 0.97076 0.56004 0.84322 0.0
C397 C 0.97335 0.67909 0.85111 0.0
C398 C 0.98813 0.62129 0.83807 0.0
C399 C 0.8911 0.8987 0.93893 0.0
C400 C 0.9216 0.73504 0.87959 0.0
C401 C 0.05158 0.87273 0.80022 0.0
C402 C 0.06796 0.87849 0.82986 0.0
C403 C 0.94709 0.9927 0.89617 0.0
C404 C 0.85761 0.18909 0.88161 0.0
C405 C 0.87728 0.24834 0.87709 0.0
C406 C 0.86249 0.3091 0.88708 0.0
C407 C 0.82772 0.31012 0.90178 0.0
C408 C 0.82221 0.19121 0.89502 0.0
C409 C 0.80767 0.25126 0.90566 0.0
C410 C 0.90264 0.9724 0.81761 0.0
C411 C 0.8755 0.12615 0.87334 0.0
H412 H 0.90061 0.61069 0.89044 0.0
H413 H 0.98116 0.5161 0.8317 0.0
H414 H 0.98651 0.72625 0.84631 0.0
H415 H 1.01249 0.62418 0.82336 0.0
H416 H 0.90375 0.24732 0.86525 0.0
H417 H 0.81583 0.35654 0.90973 0.0
H418 H 0.80565 0.14705 0.89702 0.0
H419 H 0.78052 0.25236 0.91641 0.0
Tb420 Tb 0.12871 0.21948 0.86615 0.0
C421 C 0.2625 0.09319 0.89507 0.0
C422 C 0.29177 0.12631 0.84664 0.0
C423 C 0.32626 0.13197 0.8952 0.0
C424 C 0.26059 0.10275 0.86324 0.0
C425 C 0.29605 0.10384 0.91109 0.0
C426 C 0.32388 0.144 0.86301 0.0
C427 C 0.26783 0.05547 0.95674 0.0
N428 N 0.2319 0.07098 0.91014 0.0
C429 C 0.23466 0.04792 0.9402 0.0
C430 C 0.29828 0.08544 0.94247 0.0
Tb431 Tb 0.17808 0.07293 0.8818 0.0
N432 N 0.22819 0.08907 0.84857 0.0
C433 C 0.22714 0.0898 0.81646 0.0
C434 C 0.28979 0.1314 0.81414 0.0
C435 C 0.2576 0.11141 0.79896 0.0
H436 H 0.21076 1.02711 0.95201 0.0
H437 H 0.25606 0.1131 0.77371 0.0
H438 H 0.34723 0.16522 0.8507 0.0
H439 H 0.26971 0.04118 0.98087 0.0
H440 H 0.20355 0.0737 0.80339 0.0
H441 H 0.99944 0.18336 0.92762 0.0
H442 H 0.31319 0.14914 0.80057 0.0
H443 H 0.14813 0.28581 0.79665 0.0
H444 H 0.0667 0.18697 0.92221 0.0
H445 H 0.114 0.34196 0.75467 0.0
H446 H 0.35164 0.14369 0.90752 0.0
H447 H 0.95979 0.21659 0.88358 0.0
H448 H 0.95567 0.2812 0.83302 0.0
H449 H 0.32355 0.09276 0.95569 0.0
H450 H 0.98769 0.3355 0.78908 0.0
N451 N 0.06605 0.21351 0.87377 0.0
C452 C 0.05018 0.19972 0.90217 0.0
C453 C 0.98946 0.21691 0.88061 0.0
C454 C 1.00591 0.241 0.85324 0.0
C455 C 1.01176 0.19806 0.90557 0.0
C456 C 0.04471 0.23609 0.84999 0.0
H457 H 0.04589 0.3531 0.75805 0.0
N458 N 0.09963 0.25848 0.82239 0.0
C459 C 0.09909 0.32007 0.77412 0.0
C460 C 0.0622 0.26204 0.82394 0.0
C461 C 0.11832 0.28748 0.79797 0.0
C462 C 0.06069 0.32617 0.7761 0.0
C463 C 0.04184 0.2978 0.80145 0.0
O464 O 0.14964 0.31707 0.86238 0.0
O465 O 0.18336 0.18101 0.87801 0.0
O466 O 0.17879 0.12735 0.92574 0.0
O467 O 0.13066 0.2021 0.91769 0.0
O468 O 0.17981 0.24533 0.84145 0.0
O469 O 0.11138 0.29091 0.8989 0.0
O470 O 0.17123 0.98376 0.90657 0.0
O471 O 0.12357 0.11374 0.87355 0.0
O472 O 0.12302 0.16052 0.82179 0.0
O473 O 0.15328 0.06223 0.83548 0.0
O474 O 0.12797 0.04577 0.90863 0.0
O475 O 0.18757 0.98375 0.85776 0.0
C476 C 0.20311 0.21532 0.85903 0.0
C477 C 0.11039 0.40143 0.8801 0.0
C478 C 0.11275 0.52208 0.87649 0.0
C479 C 0.12925 0.46143 0.8846 0.0
C480 C 0.07672 0.52229 0.86419 0.0
C481 C 0.07389 0.40265 0.86914 0.0
C482 C 0.05739 0.46262 0.86082 0.0
C483 C 0.15468 0.17126 0.93623 0.0
C484 C 0.12998 0.3387 0.88564 0.0
C485 C 1.00348 0.30567 0.80539 0.0
C486 C 0.98531 0.27499 0.8305 0.0
C487 C 0.10437 0.08069 0.89318 0.0
C488 C 0.19929 0.88684 0.88731 0.0
C489 C 0.17983 0.82733 0.88382 0.0
C490 C 0.19669 0.76644 0.8907 0.0
C491 C 0.23415 0.76579 0.89974 0.0
C492 C 0.23646 0.88623 0.8965 0.0
C493 C 0.25387 0.8255 0.90247 0.0
C494 C 0.13504 0.09922 0.8151 0.0
C495 C 0.17885 0.94795 0.88212 0.0
H496 H 0.15659 0.46125 0.89473 0.0
H497 H 0.06364 0.56837 0.85717 0.0
H498 H 0.05799 0.35776 0.86713 0.0
H499 H 0.02968 0.46233 0.85155 0.0
H500 H 0.15133 0.82863 0.87577 0.0
H501 H 0.24799 0.71938 0.90507 0.0
H502 H 0.25181 0.93219 0.89911 0.0
H503 H 0.28257 0.82471 0.90952 0.0
Tb504 Tb 0.91462 0.20864 0.64256 0.0
C505 C 0.79759 0.03493 0.58215 0.0
C506 C 0.74254 0.06154 0.61203 0.0
C507 C 0.73668 1.01124 0.56071 0.0
C508 C 0.78142 0.06007 0.60898 0.0
C509 C 0.7754 1.00671 0.55858 0.0
C510 C 0.72032 0.03967 0.58718 0.0
C511 C 0.83123 0.96589 0.53398 0.0
N512 N 0.83506 1.02991 0.58111 0.0
C513 C 0.85215 0.99556 0.55759 0.0
C514 C 0.79267 0.9705 0.53483 0.0
Tb515 Tb 0.86578 0.06344 0.62468 0.0
N516 N 0.80372 0.07602 0.63335 0.0
C517 C 0.78868 0.09034 0.66197 0.0
C518 C 0.72723 0.08073 0.64068 0.0
C519 C 0.7504 0.09465 0.66581 0.0
H520 H 0.88188 0.98975 0.55739 0.0
H521 H 0.7388 0.1076 0.68833 0.0
H522 H 0.69047 0.04139 0.58881 0.0
H523 H 0.84477 0.93801 0.51563 0.0
H524 H 0.80582 0.09998 0.68205 0.0
H525 H 0.03615 0.17547 0.5692 0.0
H526 H 0.69767 0.08171 0.64429 0.0
H527 H 0.90846 0.26852 0.71462 0.0
H528 H 0.97016 0.18764 0.57962 0.0
H529 H 0.94734 0.26516 0.7619 0.0
H530 H 0.71914 0.99086 0.54255 0.0
H531 H 0.08052 0.17191 0.61312 0.0
H532 H 0.09136 0.1795 0.67037 0.0
H533 H 0.77639 0.9444 0.51748 0.0
H534 H 0.0667 0.19824 0.72404 0.0
N535 N 0.97596 0.19822 0.62892 0.0
C536 C 0.98873 0.19084 0.59897 0.0
C537 C 0.0514 0.18027 0.61774 0.0
C538 C 0.03835 0.18901 0.64821 0.0
C539 C 0.02649 0.18244 0.59293 0.0
C540 C 1.00022 0.19945 0.65297 0.0
H541 H 1.01198 0.22167 0.75819 0.0
N542 N 0.95042 0.22769 0.68539 0.0
C543 C 0.95915 0.25167 0.73957 0.0
C544 C 0.9868 0.21288 0.68236 0.0
C545 C 0.93712 0.25346 0.71277 0.0
C546 C 0.9955 0.22807 0.73747 0.0
C547 C 1.01049 0.21305 0.70829 0.0
O548 O 0.89619 0.30434 0.65419 0.0
O549 O 0.85978 0.17134 0.63054 0.0
O550 O 0.86193 0.1201 0.58174 0.0
O551 O 0.90765 0.1995 0.59072 0.0
O552 O 0.86446 0.23175 0.66871 0.0
O553 O 0.93246 0.28902 0.61478 0.0
O554 O 0.88961 0.96843 0.62082 0.0
O555 O 0.91935 0.10357 0.63666 0.0
O556 O 0.91795 0.14366 0.68463 0.0
O557 O 0.86835 0.0733 0.67572 0.0
O558 O 0.91841 0.0381 0.60096 0.0
O559 O 0.84308 0.98547 0.65131 0.0
C560 C 0.84071 0.2031 0.65085 0.0
C561 C 0.93577 0.39181 0.64107 0.0
C562 C 0.93548 0.5119 0.64666 0.0
C563 C 0.91987 0.45351 0.63469 0.0
C564 C 0.96842 0.50804 0.66397 0.0
C565 C 0.9689 0.38837 0.65805 0.0
C566 C 0.98518 0.4465 0.66941 0.0
C567 C 0.88436 0.1676 0.57181 0.0
C568 C 0.91524 0.33237 0.63198 0.0
C569 C 0.0482 0.19876 0.70416 0.0
C570 C 0.06218 0.18794 0.67397 0.0
C571 C 0.94048 0.07209 0.61827 0.0
C572 C 0.85027 0.87838 0.62964 0.0
C573 C 0.8702 0.82001 0.63535 0.0
C574 C 0.85703 0.75875 0.62424 0.0
C575 C 0.82443 0.75715 0.60633 0.0
C576 C 0.81715 0.87563 0.61286 0.0
C577 C 0.80501 0.81574 0.60044 0.0
C578 C 0.89444 0.09692 0.69418 0.0
C579 C 0.86583 0.94166 0.63981 0.0
H580 H 0.89475 0.45578 0.62098 0.0
H581 H 0.98102 0.55262 0.67317 0.0
H582 H 0.98192 0.34123 0.6628 0.0
H583 H 1.01041 0.44368 0.68295 0.0
H584 H 0.89613 0.82254 0.64807 0.0
H585 H 0.81389 0.71073 0.59707 0.0
H586 H 0.80081 0.91952 0.60905 0.0
H587 H 0.78075 0.81554 0.58594 0.0
Tb588 Tb 0.12443 0.83817 0.64489 0.0
C589 C 0.25098 0.94865 0.61442 0.0
C590 C 0.28514 0.97765 0.66093 0.0
C591 C 0.3142 0.91056 0.62071 0.0
C592 C 0.25212 0.97759 0.64345 0.0
C593 C 0.28263 0.91756 0.60197 0.0
C594 C 0.31549 0.94067 0.65027 0.0
C595 C 0.24897 0.90161 0.55401 0.0
N596 N 0.21885 0.95182 0.59823 0.0
C597 C 0.2184 0.93312 0.56747 0.0
C598 C 0.28111 0.89266 0.57153 0.0
Tb599 Tb 0.16784 0.98778 0.62586 0.0
N600 N 0.22144 1.00932 0.65361 0.0
C601 C 0.22478 0.05442 0.67741 0.0
C602 C 0.28683 1.0161 0.68807 0.0
C603 C 0.2569 0.05682 0.69566 0.0
H604 H 0.19512 0.94335 0.55267 0.0
H605 H 0.25854 0.09017 0.71542 0.0
H606 H 0.34019 0.93638 0.66447 0.0
H607 H 0.24773 0.88446 0.53007 0.0
H608 H 0.20245 0.08733 0.68294 0.0
H609 H 0.99795 0.86207 0.57951 0.0
H610 H 0.31171 1.0176 0.7022 0.0
H611 H 0.14257 0.78515 0.71675 0.0
H612 H 0.06506 0.86978 0.58798 0.0
H613 H 0.10771 0.7334 0.75979 0.0
H614 H 0.33768 0.8824 0.61231 0.0
H615 H 0.95715 0.82294 0.62218 0.0
H616 H 0.95191 0.77204 0.67549 0.0
H617 H 0.30473 0.86785 0.56118 0.0
H618 H 0.9827 0.72876 0.72261 0.0
N619 N 0.0623 0.84372 0.63618 0.0
C620 C 0.0476 0.85579 0.60729 0.0
C621 C 0.9865 0.82931 0.6265 0.0
C622 C 1.00208 0.81242 0.65538 0.0
C623 C 1.00945 0.85086 0.60228 0.0
C624 C 0.0404 0.82221 0.65988 0.0
H625 H 0.0399 0.71879 0.75539 0.0
N626 N 0.0945 0.80807 0.68975 0.0
C627 C 0.09315 0.75257 0.73958 0.0
C628 C 0.05713 0.80294 0.68754 0.0
C629 C 0.11276 0.78282 0.71523 0.0
C630 C 0.0549 0.74457 0.73703 0.0
C631 C 0.0365 0.76889 0.71058 0.0
O632 O 0.1467 0.74219 0.65206 0.0
O633 O 0.17793 0.88042 0.63103 0.0
O634 O 0.14012 0.95336 0.58364 0.0
O635 O 0.13327 0.84089 0.5935 0.0
O636 O 0.17515 0.82586 0.67145 0.0
O637 O 0.10532 0.75881 0.61712 0.0
O638 O 0.17484 0.0501 0.58652 0.0
O639 O 0.1145 0.93749 0.62755 0.0
O640 O 0.11832 0.90391 0.68707 0.0
O641 O 0.16481 0.98153 0.67707 0.0
O642 O 0.11667 1.03189 0.64451 0.0
O643 O 0.161 0.09034 0.63165 0.0
C644 C 0.19792 0.85329 0.65234 0.0
C645 C 0.10894 0.65047 0.63854 0.0
C646 C 0.11035 0.52943 0.63547 0.0
C647 C 0.12439 0.59199 0.62663 0.0
C648 C 0.08018 0.52601 0.65606 0.0
C649 C 0.07783 0.64587 0.65792 0.0
C650 C 0.0639 0.58418 0.66706 0.0
C651 C 0.1347 0.89191 0.57394 0.0
C652 C 0.12614 0.71494 0.63073 0.0
C653 C 0.99861 0.75714 0.70575 0.0
C654 C 0.98116 0.78106 0.67878 0.0
C655 C 0.09449 0.98324 0.63939 0.0
C656 C 0.18619 0.16573 0.59536 0.0
C657 C 0.16857 0.22481 0.60424 0.0
C658 C 0.18278 0.28669 0.59504 0.0
C659 C 0.21564 0.28889 0.5774 0.0
C660 C 0.2192 0.16837 0.57812 0.0
C661 C 0.23392 0.23002 0.56933 0.0
C662 C 0.13909 0.95597 0.69561 0.0
C663 C 0.1671 0.1033 0.60242 0.0
H664 H 0.14703 0.59535 0.61027 0.0
H665 H 0.0696 0.47839 0.66385 0.0
H666 H 0.06415 0.68937 0.66591 0.0
H667 H 0.04082 0.58167 0.68312 0.0
H668 H 0.14347 0.22248 0.61819 0.0
H669 H 0.22727 0.33612 0.57004 0.0
H670 H 0.23321 0.12317 0.57113 0.0
H671 H 0.25938 0.23219 0.55597 0.0
Tb672 Tb 0.67014 0.57812 0.1301 0.0
C673 C 0.55421 0.78003 0.18105 0.0
C674 C 0.4989 0.76056 0.15043 0.0
C675 C 0.49588 0.83048 0.19647 0.0
C676 C 0.53723 0.75165 0.15546 0.0
C677 C 0.53394 0.82092 0.20153 0.0
C678 C 0.4782 0.79881 0.1715 0.0
C679 C 0.59024 0.83982 0.23064 0.0
N680 N 0.59119 0.77181 0.18451 0.0
C681 C 0.60937 0.80078 0.20908 0.0
C682 C 0.5525 0.8512 0.22647 0.0
Tb683 Tb 0.6215 0.72668 0.14286 0.0
N684 N 0.55892 0.72163 0.13383 0.0
C685 C 0.54392 0.70255 0.10583 0.0
C686 C 0.48304 0.73517 0.12315 0.0
C687 C 0.50578 0.70651 0.10061 0.0
H688 H 0.63887 0.7955 0.21191 0.0
H689 H 0.49414 0.68913 0.07878 0.0
H690 H 0.44886 0.80647 0.16793 0.0
H691 H 0.60482 0.86244 0.25001 0.0
H692 H 0.56091 0.68318 0.08727 0.0
H693 H 0.79732 0.63635 0.19067 0.0
H694 H 0.45369 0.74057 0.11853 0.0
H695 H 0.65923 0.48498 0.06685 0.0
H696 H 0.73097 0.60976 0.18698 0.0
H697 H 0.69518 0.45848 0.0192 0.0
H698 H 0.47989 0.86228 0.21176 0.0
H699 H 0.83619 0.63619 0.14333 0.0
H700 H 0.84255 0.60629 0.08558 0.0
H701 H 0.5378 0.88257 0.24287 0.0
H702 H 0.81482 0.55598 0.03881 0.0
N703 N 0.73209 0.59515 0.13759 0.0
C704 C 0.74768 0.60811 0.16607 0.0
C705 C 0.80729 0.623 0.14141 0.0
C706 C 0.79189 0.60302 0.11289 0.0
C707 C 0.78537 0.62329 0.16831 0.0
C708 C 0.75373 0.58883 0.11189 0.0
H709 H 0.7599 0.49813 0.01408 0.0
N710 N 0.7018 0.54486 0.08659 0.0
C711 C 0.7074 0.48863 0.03741 0.0
C712 C 0.73806 0.56219 0.08535 0.0
C713 C 0.68694 0.5044 0.06417 0.0
C714 C 0.74391 0.51127 0.03459 0.0
C715 C 0.75999 0.5472 0.05911 0.0
O716 O 0.64579 0.48292 0.13119 0.0
O717 O 0.61579 0.61994 0.13952 0.0
O718 O 0.61426 0.66816 0.18643 0.0
O719 O 0.665 0.59785 0.18048 0.0
O720 O 0.61934 0.54862 0.10585 0.0
O721 O 0.69476 0.50299 0.15763 0.0
O722 O 0.64138 0.82498 0.14665 0.0
O723 O 0.67641 0.68624 0.1332 0.0
O724 O 0.67065 0.62745 0.08476 0.0
O725 O 0.62441 0.70648 0.09202 0.0
O726 O 0.6714 0.75205 0.16885 0.0
O727 O 0.60804 0.79463 0.10734 0.0
C728 C 0.59626 0.58541 0.12079 0.0
C729 C 0.68731 0.39563 0.13598 0.0
C730 C 0.67905 0.27818 0.12363 0.0
C731 C 0.66788 0.33558 0.13987 0.0
C732 C 0.7094 0.28223 0.10315 0.0
C733 C 0.7186 0.39752 0.11664 0.0
C734 C 0.7287 0.34185 0.09953 0.0
C735 C 0.63774 0.62274 0.19748 0.0
C736 C 0.67167 0.45748 0.14835 0.0
C737 C 0.79753 0.56565 0.05901 0.0
C738 C 0.81339 0.59405 0.0858 0.0
C739 C 0.69534 0.72008 0.15281 0.0
C740 C 0.60197 0.90571 0.12483 0.0
C741 C 0.62078 0.96629 0.12741 0.0
C742 C 0.60118 1.02617 0.12997 0.0
C743 C 0.56242 1.02514 0.13003 0.0
C744 C 0.56309 0.90544 0.12435 0.0
C745 C 0.54348 0.96484 0.12721 0.0
C746 C 0.64751 0.67271 0.07402 0.0
C747 C 0.62369 0.84425 0.12176 0.0
H748 H 0.64344 0.33435 0.15458 0.0
H749 H 0.71804 0.23924 0.08983 0.0
H750 H 0.7345 0.44257 0.11383 0.0
H751 H 0.75093 0.34581 0.0828 0.0
H752 H 0.65057 0.96631 0.12658 0.0
H753 H 0.54703 0.0712 0.13107 0.0
H754 H 0.54782 0.85996 0.12092 0.0
H755 H 0.51357 0.96409 0.12623 0.0
Tb756 Tb 0.36808 0.48739 0.12933 0.0
C757 C 0.48347 0.303 0.19042 0.0
C758 C 0.54002 0.31372 0.16016 0.0
C759 C 0.54108 0.25737 0.21038 0.0
C760 C 0.50157 0.32395 0.16355 0.0
C761 C 0.50304 0.26917 0.2141 0.0
C762 C 0.5597 0.28132 0.18394 0.0
C763 C 0.44551 0.25608 0.24225 0.0
N764 N 0.44611 0.30913 0.19178 0.0
C765 C 0.42692 0.28605 0.21731 0.0
C766 C 0.48369 0.24656 0.24043 0.0
Tb767 Tb 0.41821 0.34202 0.14635 0.0
N768 N 0.48092 0.34712 0.13942 0.0
C769 C 0.49729 0.36073 0.11121 0.0
C770 C 0.55706 0.33159 0.13199 0.0
C771 C 0.53556 0.35531 0.10741 0.0
H772 H 0.39723 0.29055 0.2188 0.0
H773 H 0.54826 0.36747 0.08517 0.0
H774 H 0.58908 0.27246 0.18157 0.0
H775 H 0.43023 0.23874 0.26248 0.0
H776 H 0.48122 0.37609 0.09128 0.0
H777 H 0.24348 0.4199 0.19194 0.0
H778 H 0.58643 0.32434 0.12839 0.0
H779 H 0.37704 0.57537 0.06417 0.0
H780 H 0.30873 0.4538 0.18741 0.0
H781 H 0.33934 0.60022 0.01728 0.0
H782 H 0.55638 0.22985 0.22793 0.0
H783 H 0.2038 0.41683 0.14502 0.0
H784 H 0.19519 0.44907 0.08808 0.0
H785 H 0.49793 0.22147 0.25937 0.0
H786 H 0.22109 0.50039 0.04045 0.0
N787 N 0.30658 0.46716 0.13792 0.0
C788 C 0.29172 0.45365 0.16669 0.0
C789 C 0.23228 0.43275 0.14282 0.0
C790 C 0.24656 0.45486 0.11417 0.0
C791 C 0.25466 0.43419 0.1694 0.0
C792 C 0.2844 0.47153 0.11249 0.0
H793 H 0.27461 0.55961 0.01422 0.0
N794 N 0.33538 0.51576 0.08561 0.0
C795 C 0.32788 0.57042 0.03607 0.0
C796 C 0.29922 0.49756 0.08537 0.0
C797 C 0.34933 0.55554 0.06237 0.0
C798 C 0.29135 0.54737 0.03444 0.0
C799 C 0.27638 0.51131 0.05952 0.0
O800 O 0.39046 0.58386 0.12761 0.0
O801 O 0.42245 0.44782 0.13981 0.0
O802 O 0.42581 0.40772 0.18758 0.0
O803 O 0.37386 0.474 0.18036 0.0
O804 O 0.41963 0.51945 0.10634 0.0
O805 O 0.34185 0.56344 0.15495 0.0
O806 O 0.39692 0.24506 0.15115 0.0
O807 O 0.3631 0.37887 0.13393 0.0
O808 O 0.37085 0.43706 0.08447 0.0
O809 O 0.41727 0.35955 0.09485 0.0
O810 O 0.36758 0.31744 0.17158 0.0
O811 O 0.4378 0.26712 0.11606 0.0
C812 C 0.44252 0.4824 0.12142 0.0
C813 C 0.34801 0.66988 0.1317 0.0
C814 C 0.35417 0.7882 0.12085 0.0
C815 C 0.3668 0.73026 0.13574 0.0
C816 C 0.32298 0.78468 0.10131 0.0
C817 C 0.31631 0.66756 0.11294 0.0
C818 C 0.30458 0.72421 0.09712 0.0
C819 C 0.40213 0.4537 0.19764 0.0
C820 C 0.36424 0.60911 0.14446 0.0
C821 C 0.23901 0.4916 0.06033 0.0
C822 C 0.22421 0.46269 0.08753 0.0
C823 C 0.34383 0.34558 0.15376 0.0
C824 C 0.43604 0.15753 0.13707 0.0
C825 C 0.41746 0.09804 0.13057 0.0
C826 C 0.43064 0.03743 0.1426 0.0
C827 C 0.46269 0.03696 0.16111 0.0
C828 C 0.46967 0.15522 0.15332 0.0
C829 C 0.48252 0.09555 0.16588 0.0
C830 C 0.39549 0.39283 0.07528 0.0
C831 C 0.41791 0.22089 0.12929 0.0
H832 H 0.39174 0.73183 0.14986 0.0
H833 H 0.31278 0.82866 0.08947 0.0
H834 H 0.30106 0.62186 0.1099 0.0
H835 H 0.28143 0.72049 0.08131 0.0
H836 H 0.39252 0.09935 0.11659 0.0
H837 H 0.47301 0.99092 0.17102 0.0
H838 H 0.48607 0.19895 0.1563 0.0
H839 H 0.50799 0.09473 0.17922 0.0
Tb840 Tb 0.66981 0.50681 0.3914 0.0
C841 C 0.55092 0.36646 0.32524 0.0
C842 C 0.49874 0.37874 0.36008 0.0
C843 C 0.48927 0.38153 0.30384 0.0
C844 C 0.53716 0.37227 0.35507 0.0
C845 C 0.52728 0.37057 0.29923 0.0
C846 C 0.4749 0.38466 0.33429 0.0
C847 C 0.57913 0.33973 0.26668 0.0
N848 N 0.58738 0.35301 0.32181 0.0
C849 C 0.60075 0.332 0.29348 0.0
C850 C 0.5426 0.36204 0.26951 0.0
Tb851 Tb 0.62287 0.36288 0.36582 0.0
N852 N 0.56132 0.36826 0.37921 0.0
C853 C 0.54829 0.36416 0.40924 0.0
C854 C 0.48546 0.3777 0.3908 0.0
C855 C 0.5103 0.36885 0.41543 0.0
H856 H 0.62937 0.31685 0.29118 0.0
H857 H 0.50031 0.36677 0.43928 0.0
H858 H 0.44535 0.39034 0.33771 0.0
H859 H 0.59125 0.33102 0.24395 0.0
H860 H 0.56674 0.35782 0.42872 0.0
H861 H 0.75972 0.54489 0.29009 0.0
H862 H 0.45613 0.38255 0.3957 0.0
H863 H 0.69535 0.47808 0.46733 0.0
H864 H 0.70457 0.56285 0.32089 0.0
H865 H 0.74715 0.42552 0.49385 0.0
H866 H 0.47069 0.38482 0.28407 0.0
H867 H 0.81297 0.48449 0.31253 0.0
H868 H 0.84099 0.42663 0.35818 0.0
H869 H 0.52617 0.37096 0.24883 0.0
H870 H 0.8382 0.39646 0.4141 0.0
N871 N 0.72258 0.5053 0.36054 0.0
C872 C 0.72581 0.53272 0.33119 0.0
C873 C 0.78808 0.49121 0.32634 0.0
C874 C 0.78625 0.46951 0.35732 0.0
C875 C 0.75802 0.52461 0.31352 0.0
C876 C 0.75319 0.47932 0.37437 0.0
H877 H 0.80431 0.39908 0.46488 0.0
N878 N 0.71914 0.471 0.42133 0.0
C879 C 0.7487 0.43512 0.46898 0.0
C880 C 0.75137 0.46146 0.40561 0.0
C881 C 0.71853 0.46268 0.45324 0.0
C882 C 0.78092 0.42049 0.4526 0.0
C883 C 0.78276 0.43441 0.42065 0.0
O884 O 0.66986 0.60644 0.37571 0.0
O885 O 0.61655 0.46666 0.3773 0.0
O886 O 0.62455 0.43172 0.32458 0.0
O887 O 0.65159 0.52802 0.34373 0.0
O888 O 0.6158 0.5366 0.41145 0.0
O889 O 0.68905 0.58126 0.42167 0.0
O890 O 0.64249 0.27065 0.34953 0.0
O891 O 0.67686 0.39884 0.38226 0.0
O892 O 0.64684 0.46612 0.43395 0.0
O893 O 0.63135 0.3591 0.4176 0.0
O894 O 0.67393 0.34932 0.3401 0.0
O895 O 0.60604 0.27484 0.38897 0.0
C896 C 0.59446 0.50035 0.39435 0.0
C897 C 0.65678 0.68309 0.41603 0.0
C898 C 0.63048 0.79513 0.41271 0.0
C899 C 0.65285 0.74425 0.40008 0.0
C900 C 0.61256 0.78407 0.44149 0.0
C901 C 0.63802 0.67334 0.44453 0.0
C902 C 0.61622 0.72363 0.45712 0.0
C903 C 0.63689 0.4936 0.32064 0.0
C904 C 0.6799 0.62934 0.40279 0.0
C905 C 0.81466 0.42047 0.40322 0.0
C906 C 0.81628 0.4376 0.37154 0.0
C907 C 0.69661 0.37183 0.36068 0.0
C908 C 0.60541 0.17618 0.35869 0.0
C909 C 0.61576 0.11332 0.37031 0.0
C910 C 0.60049 0.05493 0.35763 0.0
C911 C 0.57457 0.06024 0.33332 0.0
C912 C 0.57844 0.18025 0.33521 0.0
C913 C 0.56325 0.1225 0.32252 0.0
C914 C 0.63664 0.4045 0.43974 0.0
C915 C 0.62436 0.23625 0.37021 0.0
H916 H 0.66636 0.75144 0.37768 0.0
H917 H 0.5955 0.82235 0.45192 0.0
H918 H 0.64008 0.62674 0.45717 0.0
H919 H 0.60194 0.71565 0.47908 0.0
H920 H 0.63527 0.10978 0.38937 0.0
H921 H 0.56316 1.01606 0.32265 0.0
H922 H 0.56927 0.22769 0.32645 0.0
H923 H 0.5428 0.12599 0.3041 0.0
Tb924 Tb 0.36277 0.57522 0.38408 0.0
C925 C 0.48418 0.73355 0.3249 0.0
C926 C 0.53716 0.7097 0.3573 0.0
C927 C 0.5455 0.72939 0.30173 0.0
C928 C 0.49867 0.7169 0.35348 0.0
C929 C 0.50726 0.74059 0.29872 0.0
C930 C 0.56042 0.7152 0.33125 0.0
C931 C 0.45449 0.78216 0.27012 0.0
N932 N 0.44743 0.74589 0.32311 0.0
C933 C 0.4329 0.77573 0.29706 0.0
C934 C 0.49124 0.76052 0.27063 0.0
Tb935 Tb 0.41319 0.72023 0.36626 0.0
N936 N 0.47511 0.71083 0.37787 0.0
C937 C 0.48892 0.70281 0.40742 0.0
C938 C 0.55115 0.69821 0.38723 0.0
C939 C 0.52696 0.69636 0.41256 0.0
H940 H 0.40399 0.78954 0.29628 0.0
H941 H 0.53737 0.68765 0.43593 0.0
H942 H 0.58989 0.71003 0.33417 0.0
H943 H 0.44226 0.80086 0.24877 0.0
H944 H 0.47093 0.69647 0.42697 0.0
H945 H 0.27988 0.6025 0.27772 0.0
H946 H 0.58045 0.6908 0.39097 0.0
H947 H 0.3312 0.53229 0.45543 0.0
H948 H 0.33348 0.56601 0.30678 0.0
H949 H 0.27514 0.5571 0.48648 0.0
H950 H 0.56378 0.73436 0.28176 0.0
H951 H 0.22449 0.64444 0.3053 0.0
H952 H 0.19265 0.66748 0.35611 0.0
H953 H 0.50722 0.75967 0.24955 0.0
H954 H 0.19172 0.65686 0.41372 0.0
N955 N 0.31115 0.58886 0.35217 0.0
C956 C 0.31066 0.58479 0.3201 0.0
C957 C 0.24834 0.62804 0.31859 0.0
C958 C 0.2479 0.6279 0.35122 0.0
C959 C 0.27956 0.60469 0.303 0.0
C960 C 0.27962 0.60573 0.3674 0.0
H961 H 0.22138 0.61077 0.46218 0.0
N962 N 0.30954 0.57531 0.4136 0.0
C963 C 0.27578 0.56793 0.46189 0.0
C964 C 0.27896 0.59936 0.39934 0.0
C965 C 0.30741 0.55431 0.44406 0.0
C966 C 0.24558 0.59953 0.44817 0.0
C967 C 0.24654 0.61407 0.41628 0.0
O968 O 0.36703 0.48614 0.40958 0.0
O969 O 0.41733 0.6152 0.37479 0.0
O970 O 0.41675 0.65878 0.32252 0.0
O971 O 0.3851 0.56284 0.33712 0.0
O972 O 0.41315 0.54982 0.41084 0.0
O973 O 0.35828 0.48556 0.35956 0.0
O974 O 0.39268 0.81607 0.35677 0.0
O975 O 0.35796 0.68361 0.37858 0.0
O976 O 0.36442 0.62912 0.42792 0.0
O977 O 0.40809 0.71184 0.41824 0.0
O978 O 0.36342 0.74202 0.33967 0.0
O979 O 0.43032 0.79941 0.39486 0.0
C980 C 0.43669 0.58321 0.39451 0.0
C981 C 0.34426 0.38748 0.38698 0.0
C982 C 0.34663 0.26722 0.38334 0.0
C983 C 0.36439 0.32904 0.38222 0.0
C984 C 0.30844 0.26444 0.38951 0.0
C985 C 0.30622 0.3847 0.393 0.0
C986 C 0.28848 0.32298 0.39419 0.0
C987 C 0.40343 0.59832 0.31625 0.0
C988 C 0.36411 0.45003 0.38453 0.0
C989 C 0.21608 0.64188 0.40076 0.0
C990 C 0.2167 0.64848 0.36816 0.0
C991 C 0.3393 0.71562 0.35797 0.0
C992 C 0.43117 0.90459 0.37036 0.0
C993 C 0.41257 0.96504 0.3738 0.0
C994 C 0.42958 1.02475 0.36498 0.0
C995 C 0.46561 1.02391 0.35273 0.0
C996 C 0.46702 0.90384 0.35779 0.0
C997 C 0.48395 0.96334 0.34877 0.0
C998 C 0.3861 0.67784 0.43748 0.0
C999 C 0.41182 0.84333 0.37892 0.0
H1000 H 0.39382 0.33175 0.37707 0.0
H1001 H 0.2941 0.21712 0.39082 0.0
H1002 H 0.29045 0.42985 0.39656 0.0
H1003 H 0.25921 0.32025 0.39855 0.0
H1004 H 0.38489 0.96592 0.38347 0.0
H1005 H 0.47915 0.06974 0.34574 0.0
H1006 H 0.48182 0.85764 0.35481 0.0
H1007 H 0.5112 0.96213 0.33847 0.0
Tb1008 Tb 0.41953 0.3506 0.86979 0.0
C1009 C 0.29482 0.46376 0.90402 0.0
C1010 C 0.25804 0.46498 0.85675 0.0
C1011 C 0.23092 0.42528 0.90526 0.0
C1012 C 0.292 0.47563 0.87229 0.0
C1013 C 0.26388 0.44039 0.92105 0.0
C1014 C 0.22813 0.43717 0.87309 0.0
C1015 C 0.30013 0.44932 0.96801 0.0
N1016 N 0.32789 0.4747 0.91815 0.0
C1017 C 0.32967 0.47355 0.9502 0.0
C1018 C 0.26721 0.43152 0.95332 0.0
Tb1019 Tb 0.37665 0.50162 0.88534 0.0
N1020 N 0.32241 0.4976 0.85668 0.0
C1021 C 0.31854 0.52005 0.82649 0.0
C1022 C 0.25522 0.48191 0.82517 0.0
C1023 C 0.28538 0.51115 0.8102 0.0
H1024 H 0.35347 0.49178 0.96267 0.0
H1025 H 0.28308 0.52742 0.78613 0.0
H1026 H 0.20271 0.4251 0.86095 0.0
H1027 H 0.30278 0.44462 0.99308 0.0
H1028 H 0.34017 0.54681 0.81454 0.0
H1029 H 0.52028 0.30513 0.96232 0.0
H1030 H 0.22961 0.47444 0.81244 0.0
H1031 H 0.43757 0.34107 0.79163 0.0
H1032 H 0.45964 0.29906 0.93798 0.0
H1033 H 0.48619 0.38409 0.75716 0.0
H1034 H 0.20749 0.40441 0.91776 0.0
H1035 H 0.57455 0.34386 0.93203 0.0
H1036 H 0.60079 0.38012 0.88053 0.0
H1037 H 0.24428 0.41278 0.96717 0.0
H1038 H 0.59163 0.39948 0.82435 0.0
N1039 N 0.47664 0.34378 0.89453 0.0
C1040 C 0.48184 0.32057 0.92447 0.0
C1041 C 0.54741 0.34306 0.92121 0.0
C1042 C 0.54283 0.36001 0.88981 0.0
C1043 C 0.51686 0.32168 0.93839 0.0
C1044 C 0.50682 0.35853 0.87689 0.0
H1045 H 0.54879 0.40584 0.7783 0.0
N1046 N 0.46721 0.36254 0.83374 0.0
C1047 C 0.49141 0.37885 0.78187 0.0
C1048 C 0.5018 0.3695 0.84548 0.0
C1049 C 0.46309 0.35822 0.80192 0.0
C1050 C 0.5264 0.39207 0.79395 0.0
C1051 C 0.53242 0.38372 0.82595 0.0
O1052 O 0.40551 0.27502 0.83746 0.0
O1053 O 0.365 0.39928 0.86835 0.0
O1054 O 0.40198 0.46664 0.92869 0.0
O1055 O 0.40856 0.35385 0.92088 0.0
O1056 O 0.37078 0.31228 0.8934 0.0
O1057 O 0.42864 0.25132 0.88248 0.0
O1058 O 0.37803 0.57349 0.92116 0.0
O1059 O 0.43015 0.45022 0.88606 0.0
O1060 O 0.40205 0.40437 0.82544 0.0
O1061 O 0.39413 0.51521 0.83822 0.0
O1062 O 0.42934 0.5446 0.86869 0.0
O1063 O 0.36331 0.6006 0.87323 0.0
C1064 C 0.34676 0.35371 0.88317 0.0
C1065 C 0.43303 0.16743 0.84453 0.0
C1066 C 0.43528 0.04591 0.84506 0.0
C1067 C 0.42009 0.10588 0.85569 0.0
C1068 C 0.46508 0.04826 0.82397 0.0
C1069 C 0.46266 0.1692 0.82339 0.0
C1070 C 0.47872 0.10962 0.81331 0.0
C1071 C 0.40623 0.40577 0.93967 0.0
C1072 C 0.41538 0.22786 0.85664 0.0
C1073 C 0.56794 0.38864 0.83893 0.0
C1074 C 0.57315 0.37701 0.87085 0.0
C1075 C 0.45093 0.49512 0.87422 0.0
C1076 C 0.36459 0.6897 0.91126 0.0
C1077 C 0.37985 0.7416 0.89327 0.0
C1078 C 0.37575 0.80777 0.90304 0.0
C1079 C 0.35625 0.82156 0.93068 0.0
C1080 C 0.34557 0.7041 0.93899 0.0
C1081 C 0.34129 0.76988 0.94856 0.0
C1082 C 0.40133 0.46904 0.81775 0.0
C1083 C 0.36905 0.62042 0.90169 0.0
H1084 H 0.39848 0.10441 0.87318 0.0
H1085 H 0.47748 1.00274 0.8155 0.0
H1086 H 0.47348 0.21618 0.81496 0.0
H1087 H 0.50173 0.11095 0.79707 0.0
H1088 H 0.39483 0.73066 0.8719 0.0
H1089 H 0.35257 0.87242 0.93838 0.0
H1090 H 0.33377 0.66448 0.95309 0.0
H1091 H 0.32623 0.78087 0.96981 0.0
Tb1092 Tb 0.63354 0.71191 0.86746 0.0
C1093 C 0.76346 0.60655 0.90017 0.0
C1094 C 0.79725 0.60771 0.85127 0.0
C1095 C 0.82601 0.65139 0.8982 0.0
C1096 C 0.76465 0.59443 0.86842 0.0
C1097 C 0.79481 0.6324 0.91565 0.0
C1098 C 0.82721 0.63914 0.86601 0.0
C1099 C 0.76354 0.61322 0.9646 0.0
N1100 N 0.73235 0.58969 0.91611 0.0
C1101 C 0.73336 0.58724 0.94822 0.0
C1102 C 0.79404 0.63764 0.94821 0.0
Tb1103 Tb 0.68161 0.56464 0.88549 0.0
N1104 N 0.73434 0.56749 0.85459 0.0
C1105 C 0.73783 0.54073 0.82519 0.0
C1106 C 0.79898 0.58813 0.82 0.0
C1107 C 0.76958 0.55239 0.80725 0.0
H1108 H 0.71107 0.56551 0.96171 0.0
H1109 H 0.77146 0.53318 0.78369 0.0
H1110 H 0.85175 0.65243 0.85282 0.0
H1111 H 0.76331 0.61423 0.98988 0.0
H1112 H 0.71678 0.50918 0.81515 0.0
H1113 H 0.51551 0.68249 0.94555 0.0
H1114 H 0.82353 0.59742 0.80604 0.0
H1115 H 0.63543 0.77667 0.79596 0.0
H1116 H 0.58092 0.69757 0.93295 0.0
H1117 H 0.59387 0.77662 0.75026 0.0
H1118 H 0.84963 0.67419 0.90955 0.0
H1119 H 0.46871 0.67873 0.90335 0.0
H1120 H 0.45451 0.68547 0.84575 0.0
H1121 H 0.81745 0.65768 0.96095 0.0
H1122 H 0.47648 0.70583 0.79194 0.0
N1123 N 0.57273 0.70245 0.88347 0.0
C1124 C 0.56148 0.6968 0.91399 0.0
C1125 C 0.49766 0.68638 0.89758 0.0
C1126 C 0.50901 0.69518 0.86659 0.0
C1127 C 0.52398 0.6884 0.92142 0.0
C1128 C 0.54705 0.70477 0.86041 0.0
H1129 H 0.52983 0.73198 0.75581 0.0
N1130 N 0.5952 0.73312 0.82627 0.0
C1131 C 0.58348 0.76077 0.77278 0.0
C1132 C 0.55896 0.71851 0.83057 0.0
C1133 C 0.60693 0.76096 0.79871 0.0
C1134 C 0.54731 0.73677 0.776 0.0
C1135 C 0.53382 0.71999 0.80556 0.0
O1136 O 0.65202 0.8072 0.85409 0.0
O1137 O 0.68843 0.67373 0.88035 0.0
O1138 O 0.66319 0.60011 0.93029 0.0
O1139 O 0.64381 0.7077 0.91882 0.0
O1140 O 0.68333 0.73029 0.84044 0.0
O1141 O 0.61858 0.79339 0.89534 0.0
O1142 O 0.70166 0.47919 0.90873 0.0
O1143 O 0.62824 0.60657 0.87427 0.0
O1144 O 0.63053 0.65113 0.82375 0.0
O1145 O 0.66623 0.55887 0.8362 0.0
O1146 O 0.62903 0.53603 0.90833 0.0
O1147 O 0.66694 0.47126 0.86805 0.0
C1148 C 0.70722 0.70442 0.85913 0.0
C1149 C 0.6147 0.89681 0.86941 0.0
C1150 C 0.61597 1.01694 0.86341 0.0
C1151 C 0.63321 0.95753 0.87231 0.0
C1152 C 0.57933 1.01556 0.8526 0.0
C1153 C 0.57804 0.89555 0.85861 0.0
C1154 C 0.5604 0.95497 0.85042 0.0
C1155 C 0.65197 0.65939 0.93887 0.0
C1156 C 0.63503 0.83608 0.87712 0.0
C1157 C 0.49623 0.70578 0.81101 0.0
C1158 C 0.48372 0.69442 0.84162 0.0
C1159 C 0.60706 0.57243 0.89184 0.0
C1160 C 0.70452 0.38011 0.87859 0.0
C1161 C 0.68509 0.31972 0.87826 0.0
C1162 C 0.70128 0.26215 0.86585 0.0
C1163 C 0.7376 0.26599 0.85398 0.0
C1164 C 0.74041 0.38356 0.86628 0.0
C1165 C 0.75673 0.32658 0.8538 0.0
C1166 C 0.64679 0.59408 0.81607 0.0
C1167 C 0.68493 0.43911 0.88949 0.0
H1168 H 0.66115 0.95797 0.88127 0.0
H1169 H 0.56562 0.0611 0.84558 0.0
H1170 H 0.56317 0.84909 0.85647 0.0
H1171 H 0.53221 0.95392 0.84194 0.0
H1172 H 0.6569 0.31798 0.88701 0.0
H1173 H 0.75141 0.22218 0.84509 0.0
H1174 H 0.75561 0.43002 0.86612 0.0
H1175 H 0.78445 0.32915 0.8442 0.0
Tb1176 Tb 0.41547 0.70986 0.64343 0.0
C1177 C 0.30046 0.5371 0.58114 0.0
C1178 C 0.24504 0.57221 0.60828 0.0
C1179 C 0.2405 0.52273 0.55654 0.0
C1180 C 0.28366 0.56373 0.60729 0.0
C1181 C 0.279 0.51332 0.55611 0.0
C1182 C 0.22368 0.55355 0.58224 0.0
C1183 C 0.33533 0.47315 0.53215 0.0
N1184 N 0.33782 0.53118 0.58107 0.0
C1185 C 0.35556 0.49946 0.55705 0.0
C1186 C 0.29683 0.47924 0.53192 0.0
Tb1187 Tb 0.36698 0.56475 0.62551 0.0
N1188 N 0.30499 0.57743 0.63249 0.0
C1189 C 0.28902 0.59214 0.66062 0.0
C1190 C 0.22921 0.59671 0.63587 0.0
C1191 C 0.25105 0.6042 0.6625 0.0
H1192 H 0.38524 0.49342 0.55713 0.0
H1193 H 0.23874 0.61981 0.68437 0.0
H1194 H 0.19403 0.55977 0.58211 0.0
H1195 H 0.34938 0.44752 0.51335 0.0
H1196 H 0.30568 0.59802 0.68138 0.0
H1197 H 0.54417 0.68789 0.57999 0.0
H1198 H 0.20003 0.60729 0.63749 0.0
H1199 H 0.39646 0.75997 0.71627 0.0
H1200 H 0.47743 0.67588 0.58786 0.0
H1201 H 0.42902 0.8216 0.75716 0.0
H1202 H 0.22347 0.50585 0.53727 0.0
H1203 H 0.58308 0.73627 0.62159 0.0
H1204 H 0.58622 0.79404 0.67334 0.0
H1205 H 0.28113 0.45726 0.513 0.0
H1206 H 0.55373 0.83944 0.71912 0.0
N1207 N 0.47816 0.7085 0.63528 0.0
C1208 C 0.49388 0.694 0.60698 0.0
C1209 C 0.55385 0.72812 0.62582 0.0
C1210 C 0.53728 0.74784 0.65385 0.0
C1211 C 0.53196 0.70127 0.60222 0.0
C1212 C 0.49906 0.73587 0.65819 0.0
H1213 H 0.49552 0.84825 0.75109 0.0
N1214 N 0.44445 0.74729 0.6875 0.0
C1215 C 0.44404 0.80448 0.73679 0.0
C1216 C 0.48133 0.75824 0.68473 0.0
C1217 C 0.4257 0.76897 0.71343 0.0
C1218 C 0.48153 0.8194 0.73328 0.0
C1219 C 0.50077 0.79566 0.70717 0.0
O1220 O 0.39625 0.80782 0.65022 0.0
O1221 O 0.35999 0.67226 0.63218 0.0
O1222 O 0.36182 0.62578 0.58393 0.0
O1223 O 0.41279 0.69396 0.59185 0.0
O1224 O 0.36578 0.73135 0.67005 0.0
O1225 O 0.42946 0.78261 0.61006 0.0
O1226 O 0.38633 0.46649 0.61971 0.0
O1227 O 0.42118 0.60455 0.63662 0.0
O1228 O 0.42318 0.64307 0.68463 0.0
O1229 O 0.37197 0.57522 0.67662 0.0
O1230 O 0.41858 0.5386 0.60105 0.0
O1231 O 0.34492 0.49068 0.65441 0.0
C1232 C 0.34129 0.70345 0.65296 0.0
C1233 C 0.43364 0.89323 0.62899 0.0
C1234 C 0.43157 1.0146 0.63126 0.0
C1235 C 0.41371 0.95284 0.62889 0.0
C1236 C 0.47029 1.01594 0.63452 0.0
C1237 C 0.47233 0.89563 0.63125 0.0
C1238 C 0.49047 0.95663 0.63427 0.0
C1239 C 0.38687 0.66813 0.57342 0.0
C1240 C 0.41325 0.83014 0.62549 0.0
C1241 C 0.5386 0.80903 0.70263 0.0
C1242 C 0.55705 0.78354 0.6765 0.0
C1243 C 0.44127 0.57301 0.61741 0.0
C1244 C 0.34388 0.38152 0.63367 0.0
C1245 C 0.36419 0.32226 0.63229 0.0
C1246 C 0.34631 0.26062 0.6291 0.0
C1247 C 0.30745 0.25906 0.62759 0.0
C1248 C 0.30515 0.37921 0.63141 0.0
C1249 C 0.28717 0.318 0.62877 0.0
C1250 C 0.40001 0.59522 0.69418 0.0
C1251 C 0.36361 0.44356 0.64075 0.0
H1252 H 0.38422 0.95141 0.62654 0.0
H1253 H 0.485 0.06277 0.63623 0.0
H1254 H 0.48864 0.85095 0.62996 0.0
H1255 H 0.52034 0.95779 0.63562 0.0
H1256 H 0.39391 0.32399 0.63427 0.0
H1257 H 0.29264 0.21224 0.62637 0.0
H1258 H 0.28877 0.42418 0.63279 0.0
H1259 H 0.25735 0.31576 0.62867 0.0
Tb1260 Tb 0.62238 0.34224 0.64637 0.0
C1261 C 0.7378 0.50039 0.57841 0.0
C1262 C 0.79291 0.47464 0.6083 0.0
C1263 C 0.79828 0.50708 0.55367 0.0
C1264 C 0.75414 0.48081 0.60617 0.0
C1265 C 0.75977 0.51661 0.55226 0.0
C1266 C 0.81481 0.48572 0.58161 0.0
C1267 C 0.70457 0.55792 0.52674 0.0
N1268 N 0.70063 0.51022 0.57814 0.0
C1269 C 0.68395 0.54103 0.55327 0.0
C1270 C 0.74262 0.54534 0.52616 0.0
Tb1271 Tb 0.67026 0.4859 0.62351 0.0
N1272 N 0.7323 0.47367 0.63177 0.0
C1273 C 0.74777 0.46504 0.66071 0.0
C1274 C 0.80855 0.4608 0.63753 0.0
C1275 C 0.78596 0.45711 0.6639 0.0
H1276 H 0.65471 0.55223 0.55384 0.0
H1277 H 0.79793 0.44825 0.68672 0.0
H1278 H 0.84465 0.48073 0.58267 0.0
H1279 H 0.69119 0.58132 0.50692 0.0
H1280 H 0.73087 0.46212 0.68145 0.0
H1281 H 0.4896 0.36431 0.58922 0.0
H1282 H 0.83804 0.45527 0.64037 0.0
H1283 H 0.64538 0.28789 0.71756 0.0
H1284 H 0.55709 0.36334 0.59187 0.0
H1285 H 0.61334 0.25007 0.76492 0.0
H1286 H 0.81564 0.51832 0.53366 0.0
H1287 H 0.45277 0.34215 0.63659 0.0
H1288 H 0.45081 0.30242 0.69209 0.0
H1289 H 0.75865 0.55953 0.50577 0.0
H1290 H 0.48449 0.26527 0.73886 0.0
N1291 N 0.55935 0.34707 0.6413 0.0
C1292 C 0.5418 0.35515 0.61315 0.0
C1293 C 0.48248 0.34307 0.63816 0.0
C1294 C 0.5004 0.32871 0.66628 0.0
C1295 C 0.50324 0.35542 0.61137 0.0
C1296 C 0.53937 0.33255 0.6673 0.0
H1297 H 0.54487 0.24899 0.76691 0.0
N1298 N 0.59575 0.31407 0.69323 0.0
C1299 C 0.59747 0.268 0.74517 0.0
C1300 C 0.5582 0.31447 0.69411 0.0
C1301 C 0.61555 0.28992 0.71813 0.0
C1302 C 0.55885 0.26772 0.74624 0.0
C1303 C 0.53872 0.28998 0.72033 0.0
O1304 O 0.64356 0.24581 0.65279 0.0
O1305 O 0.67661 0.3792 0.63156 0.0
O1306 O 0.67088 0.42418 0.58191 0.0
O1307 O 0.62143 0.35501 0.59447 0.0
O1308 O 0.67432 0.32155 0.67051 0.0
O1309 O 0.60245 0.26531 0.6176 0.0
O1310 O 0.64633 0.58008 0.61757 0.0
O1311 O 0.61663 0.44699 0.6372 0.0
O1312 O 0.61801 0.40984 0.68713 0.0
O1313 O 0.66674 0.48112 0.67497 0.0
O1314 O 0.61811 0.50912 0.59952 0.0
O1315 O 0.69438 0.56752 0.6467 0.0
C1316 C 0.69703 0.34959 0.65161 0.0
C1317 C 0.6031 0.15867 0.64085 0.0
C1318 C 0.60554 0.03852 0.6458 0.0
C1319 C 0.61977 0.0981 0.63361 0.0
C1320 C 0.57371 0.03996 0.66466 0.0
C1321 C 0.57028 0.15914 0.65837 0.0
C1322 C 0.55576 0.10004 0.67037 0.0
C1323 C 0.64479 0.38164 0.5739 0.0
C1324 C 0.62206 0.22014 0.63167 0.0
C1325 C 0.49993 0.28535 0.71924 0.0
C1326 C 0.48073 0.30636 0.69259 0.0
C1327 C 0.59597 0.47645 0.61746 0.0
C1328 C 0.68545 0.67124 0.62167 0.0
C1329 C 0.66752 0.73056 0.62925 0.0
C1330 C 0.67838 0.79058 0.61518 0.0
C1331 C 0.70619 0.78968 0.59217 0.0
C1332 C 0.71422 0.67149 0.59975 0.0
C1333 C 0.72375 0.73013 0.58439 0.0
C1334 C 0.64116 0.45884 0.69461 0.0
C1335 C 0.67092 0.60948 0.63471 0.0
H1336 H 0.6442 0.09767 0.61894 0.0
H1337 H 0.56235 0.99454 0.67442 0.0
H1338 H 0.55586 0.20462 0.66279 0.0
H1339 H 0.53066 0.10087 0.68424 0.0
H1340 H 0.64456 0.72955 0.64562 0.0
H1341 H 0.71469 0.83511 0.58051 0.0
H1342 H 0.72892 0.62664 0.5941 0.0
H1343 H 0.74501 0.7293 0.56654 0.0
C1344 C 0.25759 0.24312 0.17634 0.0
C1345 C 0.23789 0.23053 0.1485 0.0
C1346 C 0.29077 0.28055 0.17701 0.0
C1347 C 0.30652 0.30987 0.15 0.0
H1348 H 0.24694 0.22403 0.1983 0.0
H1349 H 0.30417 0.28729 0.19944 0.0
S1350 S 0.26578 0.29681 0.0706 0.0
N1351 N 0.23639 0.25434 0.09274 0.0
N1352 N 0.29924 0.3229 0.09391 0.0
C1353 C 0.28738 0.29805 0.12168 0.0
C1354 C 0.25311 0.25933 0.12098 0.0
C1355 C 0.78332 0.81353 0.17692 0.0
C1356 C 0.80233 0.82978 0.14913 0.0
C1357 C 0.74986 0.77719 0.17709 0.0
C1358 C 0.73343 0.75233 0.14955 0.0
H1359 H 0.79483 0.82835 0.19923 0.0
H1360 H 0.73674 0.76772 0.19946 0.0
S1361 S 0.77173 0.77848 0.06971 0.0
N1362 N 0.80196 0.8166 0.0926 0.0
N1363 N 0.73911 0.74798 0.09292 0.0
C1364 C 0.75194 0.76781 0.12122 0.0
C1365 C 0.78624 0.80622 0.12102 0.0
C1366 C 0.28415 0.76804 0.38956 0.0
C1367 C 0.30206 0.75165 0.36098 0.0
C1368 C 0.25059 0.8065 0.39032 0.0
C1369 C 0.23384 0.83134 0.36259 0.0
H1370 H 0.29603 0.75113 0.4114 0.0
H1371 H 0.23746 0.81584 0.41265 0.0
S1372 S 0.26965 0.80396 0.28217 0.0
N1373 N 0.29989 0.76548 0.30469 0.0
N1374 N 0.23847 0.83534 0.30613 0.0
C1375 C 0.25183 0.81522 0.33433 0.0
C1376 C 0.28544 0.77689 0.33355 0.0
C1377 C 0.78634 0.28649 0.33451 0.0
C1378 C 0.80125 0.25458 0.36112 0.0
C1379 C 0.75357 0.32455 0.33554 0.0
C1380 C 0.73335 0.33458 0.36334 0.0
H1381 H 0.80049 0.28244 0.31224 0.0
H1382 H 0.744 0.34712 0.31398 0.0
S1383 S 0.75826 0.25929 0.44005 0.0
N1384 N 0.79239 0.2358 0.41678 0.0
N1385 N 0.72941 0.30345 0.41828 0.0
C1386 C 0.74698 0.30129 0.39026 0.0
C1387 C 0.7812 0.26292 0.38931 0.0
C1388 C 0.75834 0.77143 0.88968 0.0
C1389 C 0.74411 0.74222 0.86187 0.0
C1390 C 0.79086 0.81316 0.88955 0.0
C1391 C 0.81018 0.82888 0.8615 0.0
H1392 H 0.74428 0.76216 0.91164 0.0
H1393 H 0.80122 0.83205 0.91156 0.0
S1394 S 0.78304 0.7694 0.78241 0.0
N1395 N 0.75186 0.73554 0.80577 0.0
N1396 N 0.81066 0.81286 0.80531 0.0
C1397 C 0.79525 0.80128 0.83385 0.0
C1398 C 0.76299 0.7589 0.83406 0.0
C1399 C 0.28911 0.29119 0.90073 0.0
C1400 C 0.30856 0.32476 0.87648 0.0
C1401 C 0.25551 0.25585 0.89543 0.0
C1402 C 0.24006 0.25002 0.86529 0.0
H1403 H 0.30013 0.29223 0.92427 0.0
H1404 H 0.24169 0.2327 0.9151 0.0
S1405 S 0.28113 0.32273 0.79297 0.0
N1406 N 0.3104 0.3453 0.82068 0.0
N1407 N 0.24781 0.28048 0.81064 0.0
C1408 C 0.25945 0.2828 0.8408 0.0
C1409 C 0.29356 0.31888 0.84626 0.0
C1410 C 0.75329 0.29749 0.67555 0.0
C1411 C 0.73497 0.31686 0.64786 0.0
C1412 C 0.78609 0.25946 0.67546 0.0
C1413 C 0.80281 0.23636 0.64772 0.0
H1414 H 0.74194 0.31194 0.69798 0.0
H1415 H 0.79867 0.24788 0.69781 0.0
S1416 S 0.76655 0.27111 0.56794 0.0
N1417 N 0.73641 0.30862 0.59113 0.0
N1418 N 0.79802 0.23678 0.59098 0.0
C1419 C 0.78492 0.25467 0.61947 0.0
C1420 C 0.75121 0.29472 0.61954 0.0
C1421 C 0.24756 0.78183 0.62311 0.0
C1422 C 0.23557 0.81924 0.64943 0.0
C1423 C 0.28125 0.74371 0.6235 0.0
C1424 C 0.30359 0.73876 0.65074 0.0
H1425 H 0.23083 0.78193 0.60211 0.0
H1426 H 0.28967 0.718 0.60246 0.0
S1427 S 0.28249 0.82184 0.7265 0.0
N1428 N 0.24841 0.8455 0.70341 0.0
N1429 N 0.3089 0.77312 0.70502 0.0
C1430 C 0.2907 0.77423 0.6772 0.0
C1431 C 0.25752 0.81383 0.67642 0.0
C1432 C 0.13838 0.06552 0.28193 0.0
C1433 C 0.14151 0.99587 0.28553 0.0
C1434 C 0.13812 0.096 0.25218 0.0
C1435 C 0.14068 0.0583 0.22463 0.0
H1436 H 0.13676 0.09707 0.30238 0.0
H1437 H 0.13775 0.14954 0.25095 0.0
S1438 S 0.15099 0.87464 0.22098 0.0
N1439 N 0.14944 0.89086 0.25877 0.0
N1440 N 0.14625 0.94705 0.20319 0.0
C1441 C 0.14341 0.98861 0.22799 0.0
C1442 C 0.14432 0.95769 0.25826 0.0
C1443 C 0.92349 1.01336 0.28075 0.0
C1444 C 0.91476 0.08186 0.28284 0.0
C1445 C 0.92468 0.97982 0.25178 0.0
C1446 C 0.91629 1.01318 0.2238 0.0
H1447 H 0.92798 0.98489 0.30193 0.0
H1448 H 0.92986 0.92682 0.25151 0.0
S1449 S 0.89011 0.19266 0.2173 0.0
N1450 N 0.89762 0.18124 0.25489 0.0
N1451 N 0.89908 0.12037 0.2008 0.0
C1452 C 0.90862 0.08254 0.22584 0.0
C1453 C 0.90805 0.11632 0.25521 0.0
C1454 C 0.9085 0.10056 0.75224 0.0
C1455 C 0.89937 0.06391 0.72537 0.0
C1456 C 0.91129 0.06985 0.78181 0.0
C1457 C 0.90493 1.00114 0.78571 0.0
H1458 H 0.91168 0.15367 0.75081 0.0
H1459 H 0.91739 0.10049 0.80198 0.0
S1460 S 0.87807 0.88292 0.72355 0.0
N1461 N 0.88457 0.95417 0.70515 0.0
N1462 N 0.88614 0.89869 0.76075 0.0
C1463 C 0.89537 0.9641 0.7593 0.0
C1464 C 0.89346 0.99491 0.72918 0.0
C1465 C 0.12463 0.9961 0.7826 0.0
C1466 C 0.12843 0.06619 0.78408 0.0
C1467 C 0.12595 0.96069 0.75406 0.0
C1468 C 0.13164 0.99371 0.7255 0.0
H1469 H 0.12256 0.96798 0.80403 0.0
H1470 H 0.12481 0.90691 0.7546 0.0
S1471 S 0.14518 0.17659 0.71642 0.0
N1472 N 0.13958 0.1663 0.75435 0.0
N1473 N 0.1396 0.10218 0.7008 0.0
C1474 C 0.13404 0.06423 0.72662 0.0
C1475 C 0.13304 0.09985 0.75574 0.0
C1476 C 0.62916 0.49204 0.26163 0.0
C1477 C 0.63328 0.52846 0.28949 0.0
C1478 C 0.62879 0.52345 0.23213 0.0
C1479 C 0.6326 0.59293 0.22905 0.0
H1480 H 0.62837 0.43858 0.26231 0.0
H1481 H 0.62666 0.49278 0.2114 0.0
S1482 S 0.64959 0.7115 0.29328 0.0
N1483 N 0.64392 0.63919 0.31108 0.0
N1484 N 0.64384 0.69655 0.25573 0.0
C1485 C 0.63703 0.63015 0.25633 0.0
C1486 C 0.63733 0.59843 0.28643 0.0
C1487 C 0.41049 0.49321 0.28469 0.0
C1488 C 0.40975 0.56372 0.28553 0.0
C1489 C 0.41014 0.45736 0.25635 0.0
C1490 C 0.40885 0.49041 0.22748 0.0
H1491 H 0.4099 0.4651 0.30628 0.0
H1492 H 0.40902 0.40357 0.25716 0.0
S1493 S 0.40923 0.67339 0.21579 0.0
N1494 N 0.40872 0.66407 0.25415 0.0
N1495 N 0.41017 0.59749 0.20125 0.0
C1496 C 0.41 0.56052 0.22783 0.0
C1497 C 0.41002 0.59696 0.25666 0.0
C1498 C 0.41783 0.56213 0.78093 0.0
C1499 C 0.40617 0.49516 0.78515 0.0
C1500 C 0.41748 0.5936 0.75146 0.0
C1501 C 0.4056 0.55953 0.72473 0.0
H1502 H 0.42628 0.59162 0.80086 0.0
H1503 H 0.42513 0.64559 0.74993 0.0
S1504 S 0.37931 0.38026 0.72173 0.0
N1505 N 0.38591 0.39462 0.75926 0.0
N1506 N 0.38827 0.45136 0.70389 0.0
C1507 C 0.39696 0.49109 0.72829 0.0
C1508 C 0.39655 0.45944 0.7584 0.0
C1509 C 0.63741 0.49239 0.78266 0.0
C1510 C 0.64091 0.56234 0.78471 0.0
C1511 C 0.63535 0.45908 0.75369 0.0
C1512 C 0.6379 0.49417 0.72532 0.0
H1513 H 0.63739 0.46278 0.80378 0.0
H1514 H 0.63364 0.40538 0.75362 0.0
S1515 S 0.64747 0.67742 0.71713 0.0
N1516 N 0.64717 0.66486 0.75529 0.0
N1517 N 0.64263 0.60331 0.70115 0.0
C1518 C 0.64066 0.56416 0.72699 0.0
C1519 C 0.6424 0.59798 0.7565 0.0
C1520 C 0.12058 0.18583 0.98761 0.0
C1521 C 0.15409 0.18299 0.97064 0.0
C1522 C 0.12038 0.18517 0.02071 0.0
C1523 C 0.15368 0.1813 0.03788 0.0
H1524 H 0.09435 0.18491 0.97535 0.0
H1525 H 0.09401 0.18353 0.0327 0.0
S1526 S 0.24862 0.1828 0.00454 0.0
N1527 N 0.22119 0.18525 0.97373 0.0
N1528 N 0.22081 0.17967 0.03511 0.0
C1529 C 0.18714 0.18156 0.02101 0.0
C1530 C 0.18735 0.18362 0.98766 0.0
C1531 C 0.85772 0.90048 0.99022 0.0
C1532 C 0.8899 0.88396 0.97331 0.0
C1533 C 0.85663 0.89707 0.02291 0.0
C1534 C 0.88803 0.87948 0.04062 0.0
H1535 H 0.83308 0.91757 0.97819 0.0
H1536 H 0.83093 0.90992 0.03436 0.0
S1537 S 0.97702 0.81861 0.00805 0.0
N1538 N 0.95199 0.83766 0.97703 0.0
N1539 N 0.95064 0.83553 0.03852 0.0
C1540 C 0.91947 0.85768 0.02413 0.0
C1541 C 0.92026 0.8592 0.99054 0.0
C1542 C 0.11194 0.935 0.49053 0.0
C1543 C 0.13185 0.88763 0.4732 0.0
C1544 C 0.11093 0.93277 0.52315 0.0
C1545 C 0.12952 0.88277 0.53991 0.0
H1546 H 0.09811 0.97588 0.47883 0.0
H1547 H 0.09671 0.97233 0.53542 0.0
S1548 S 0.18449 0.74534 0.50576 0.0
N1549 N 0.16947 0.7876 0.47509 0.0
N1550 N 0.1674 0.78321 0.53685 0.0
C1551 C 0.1479 0.83286 0.52296 0.0
C1552 C 0.14909 0.83531 0.48947 0.0
C1553 C 0.85309 0.15916 0.51991 0.0
C1554 C 0.88325 0.18287 0.53752 0.0
C1555 C 0.853 0.16207 0.48726 0.0
C1556 C 0.88347 0.18672 0.47022 0.0
H1557 H 0.82932 0.13678 0.53133 0.0
H1558 H 0.8288 0.14371 0.47535 0.0
S1559 S 0.96541 0.27077 0.50479 0.0
N1560 N 0.94106 0.24544 0.5353 0.0
N1561 N 0.94192 0.24667 0.4737 0.0
C1562 C 0.91237 0.21642 0.48739 0.0
C1563 C 0.91203 0.21529 0.52102 0.0
C1564 C 0.65635 0.72991 0.02181 0.0
C1565 C 0.64309 0.67592 0.0397 0.0
C1566 C 0.65741 0.72658 0.98877 0.0
C1567 C 0.64621 0.66846 0.973 0.0
H1568 H 0.66723 0.77361 0.0334 0.0
H1569 H 0.66885 0.76803 0.9757 0.0
S1570 S 0.60615 0.51675 0.00966 0.0
N1571 N 0.61444 0.56713 0.03916 0.0
N1572 N 0.62 0.55751 0.97824 0.0
C1573 C 0.63192 0.61553 0.99094 0.0
C1574 C 0.62945 0.62016 0.02401 0.0
C1575 C 0.39606 0.3394 0.9895 0.0
C1576 C 0.40876 0.39759 0.97431 0.0
C1577 C 0.39321 0.33615 0.02248 0.0
C1578 C 0.40333 0.39074 0.0412 0.0
H1579 H 0.38656 0.29746 0.97582 0.0
H1580 H 0.38166 0.29192 0.03326 0.0
S1581 S 0.44188 0.55149 0.01341 0.0
N1582 N 0.43354 0.50925 0.98121 0.0
N1583 N 0.42956 0.50164 0.04226 0.0
C1584 C 0.41787 0.44728 0.02632 0.0
C1585 C 0.4203 0.4511 0.99313 0.0
C1586 C 0.61486 0.4341 0.49306 0.0
C1587 C 0.63214 0.38749 0.47336 0.0
C1588 C 0.61691 0.42861 0.5257 0.0
C1589 C 0.6367 0.3768 0.54005 0.0
H1590 H 0.60101 0.47702 0.48312 0.0
H1591 H 0.60453 0.46732 0.53977 0.0
S1592 S 0.68568 0.24033 0.49946 0.0
N1593 N 0.6682 0.28576 0.47077 0.0
N1594 N 0.67277 0.27656 0.53235 0.0
C1595 C 0.65286 0.32831 0.52084 0.0
C1596 C 0.65032 0.33329 0.48741 0.0
C1597 C 0.35465 0.66666 0.52179 0.0
C1598 C 0.38639 0.68315 0.5392 0.0
C1599 C 0.35426 0.67144 0.48918 0.0
C1600 C 0.38574 0.69088 0.47199 0.0
H1601 H 0.32985 0.64848 0.5333 0.0
H1602 H 0.32901 0.65847 0.47727 0.0
S1603 S 0.47306 0.75548 0.50666 0.0
N1604 N 0.44813 0.73177 0.53711 0.0
N1605 N 0.44724 0.7401 0.47565 0.0
C1606 C 0.41644 0.71424 0.48919 0.0
C1607 C 0.41683 0.71006 0.52276 0.0
C1608 C 1.00122 1.01697 0.14485 0.0
C1609 C 0.98113 1.00827 0.11668 0.0
C1610 C 0.03852 0.04089 0.14483 0.0
C1611 C 0.05728 0.05674 0.11666 0.0
H1612 H 0.98803 1.00578 0.16699 0.0
H1613 H 0.05286 0.04611 0.16693 0.0
S1614 S 1.01794 0.03973 0.03692 0.0
N1615 N 0.98369 1.01676 0.06019 0.0
N1616 N 0.05288 0.05866 0.06014 0.0
C1617 C 0.03759 0.04663 0.08866 0.0
C1618 C 0.99983 1.02391 0.08869 0.0
C1619 C 0.9991 0.03833 0.40981 0.0
C1620 C 0.97865 0.06592 0.38473 0.0
C1621 C 0.03599 1.01514 0.40605 0.0
C1622 C 0.05357 1.01477 0.3766 0.0
H1623 H 0.98667 0.03575 0.43284 0.0
H1624 H 0.05089 0.99773 0.42643 0.0
S1625 S 1.01489 0.08557 0.3036 0.0
N1626 N 0.98161 0.09562 0.32963 0.0
N1627 N 0.04899 0.04873 0.32249 0.0
C1628 C 0.03401 0.0432 0.35156 0.0
C1629 C 0.99705 0.06878 0.35552 0.0
C1630 C 0.04578 0.04293 0.91999 0.0
C1631 C 0.06386 0.06015 0.89182 0.0
C1632 C 1.00832 1.02239 0.92082 0.0
C1633 C 0.9873 1.01371 0.89336 0.0
H1634 H 0.06063 0.04675 0.94192 0.0
H1635 H 0.9959 1.01134 0.94331 0.0
S1636 S 0.02033 0.05326 0.81308 0.0
N1637 N 0.05657 0.06929 0.83545 0.0
N1638 N 0.98714 1.0275 0.83689 0.0
C1639 C 1.0048 1.03078 0.86486 0.0
C1640 C 0.04278 0.05412 0.86409 0.0
C1641 C 1.00267 1.02952 0.59967 0.0
C1642 C 0.97937 0.04714 0.62489 0.0
C1643 C 0.0394 1.00697 0.60436 0.0
C1644 C 0.05394 0.99673 0.63457 0.0
H1645 H 0.99287 0.03581 0.57592 0.0
H1646 H 0.05673 0.99823 0.58411 0.0
S1647 S 1.0041 1.02804 0.70889 0.0
N1648 N 0.97374 0.04804 0.68157 0.0
N1649 N 0.04186 1.00449 0.69013 0.0
C1650 C 0.03073 1.01193 0.65998 0.0
C1651 C 0.99362 0.0364 0.65526 0.0
C1652 C 0.50232 0.51583 0.09625 0.0
C1653 C 0.48266 0.50361 0.12413 0.0
C1654 C 0.53831 0.54264 0.09605 0.0
C1655 C 0.55645 0.56245 0.12365 0.0
H1656 H 0.49 0.50333 0.07403 0.0
H1657 H 0.55197 0.54888 0.0737 0.0
S1658 S 0.51755 0.54354 0.20367 0.0
N1659 N 0.48459 0.51382 0.18075 0.0
N1660 N 0.55172 0.56715 0.18031 0.0
C1661 C 0.5372 0.55156 0.15201 0.0
C1662 C 0.50054 0.52182 0.15227 0.0
C1663 C 0.49566 0.54344 0.41981 0.0
C1664 C 0.47685 0.5609 0.3921 0.0
C1665 C 0.53306 0.52288 0.41976 0.0
C1666 C 0.55344 0.51472 0.39188 0.0
H1667 H 0.48158 0.54778 0.44209 0.0
H1668 H 0.54623 0.51279 0.44202 0.0
S1669 S 0.51781 0.55187 0.3123 0.0
N1670 N 0.48211 0.56713 0.33543 0.0
N1671 N 0.55198 0.52811 0.33546 0.0
C1672 C 0.53509 0.53118 0.36378 0.0
C1673 C 0.49692 0.55349 0.36384 0.0
C1674 C 0.51306 0.53172 0.85306 0.0
C1675 C 0.49162 0.50709 0.87827 0.0
C1676 C 0.55039 0.55212 0.85704 0.0
C1677 C 0.5672 0.55229 0.88679 0.0
H1678 H 0.50081 0.53521 0.83 0.0
H1679 H 0.5659 0.56878 0.8368 0.0
S1680 S 0.52267 0.49525 0.96047 0.0
N1681 N 0.49017 0.48498 0.93381 0.0
N1682 N 0.55903 0.52477 0.94157 0.0
C1683 C 0.54589 0.52757 0.91194 0.0
C1684 C 0.50837 0.50563 0.90776 0.0
C1685 C 0.50025 0.53631 0.59227 0.0
C1686 C 0.48124 0.55143 0.62012 0.0
C1687 C 0.53679 0.51211 0.59229 0.0
C1688 C 0.55605 0.49821 0.62018 0.0
H1689 H 0.48679 0.5443 0.56994 0.0
H1690 H 0.55 0.50319 0.56996 0.0
S1691 S 0.51876 0.5253 0.70014 0.0
N1692 N 0.48465 0.54926 0.67692 0.0
N1693 N 0.55288 0.50132 0.67695 0.0
C1694 C 0.53736 0.51182 0.64849 0.0
C1695 C 0.50012 0.53865 0.64846 0.0
C1696 C 0.12106 0.68477 0.12399 0.0
C1697 C 0.15814 0.69635 0.13223 0.0
C1698 C 0.1038 0.62462 0.13173 0.0
C1699 C 0.12313 0.57502 0.14814 0.0
H1700 H 0.10582 0.72143 0.11062 0.0
H1701 H 0.07573 0.61586 0.12383 0.0
S1702 S 0.21918 0.58638 0.17837 0.0
N1703 N 0.21269 0.65712 0.15955 0.0
N1704 N 0.18016 0.54388 0.17468 0.0
C1705 C 0.15979 0.58742 0.15752 0.0
C1706 C 0.17733 0.64835 0.14945 0.0
C1707 C 0.86089 0.41795 0.13427 0.0
C1708 C 0.87857 0.36446 0.11949 0.0
C1709 C 0.8799 0.47739 0.13983 0.0
C1710 C 0.91705 0.48548 0.13038 0.0
H1711 H 0.83228 0.41359 0.14175 0.0
H1712 H 0.86544 0.51713 0.15171 0.0
S1713 S 0.97446 0.36145 0.08841 0.0
N1714 N 0.93451 0.32338 0.09452 0.0
N1715 N 0.96993 0.43613 0.10381 0.0
C1716 C 0.93477 0.43242 0.11514 0.0
C1717 C 0.91559 0.37163 0.10996 0.0
C1718 C 0.11713 0.37703 0.40063 0.0
C1719 C 0.15541 0.36637 0.39723 0.0
C1720 C 0.1005 0.43446 0.38846 0.0
C1721 C 0.12174 0.48224 0.37241 0.0
H1722 H 0.10016 0.34134 0.41317 0.0
H1723 H 0.07116 0.44238 0.39231 0.0
S1724 S 0.22141 0.47014 0.35247 0.0
N1725 N 0.2129 0.40319 0.37362 0.0
N1726 N 0.18186 0.51123 0.35063 0.0
C1727 C 0.15963 0.47029 0.36765 0.0
C1728 C 0.17643 0.41215 0.38008 0.0
C1729 C 0.87255 0.59769 0.36793 0.0
C1730 C 0.90834 0.59218 0.3807 0.0
C1731 C 0.85206 0.65623 0.37114 0.0
C1732 C 0.8667 0.71113 0.38724 0.0
H1733 H 0.86059 0.55684 0.35493 0.0
H1734 H 0.82493 0.65901 0.36038 0.0
S1735 S 0.95786 0.71914 0.42732 0.0
N1736 N 0.95666 0.64437 0.41155 0.0
N1737 N 0.91828 0.75483 0.4177 0.0
C1738 C 0.90222 0.70567 0.40063 0.0
C1739 C 0.92301 0.64608 0.39732 0.0
C1740 C 0.86487 0.42418 0.86557 0.0
C1741 C 0.88275 0.37166 0.88117 0.0
C1742 C 0.88359 0.48363 0.85921 0.0
C1743 C 0.92072 0.49223 0.86819 0.0
H1744 H 0.83637 0.41903 0.85798 0.0
H1745 H 0.8691 0.52296 0.84701 0.0
S1746 S 0.97869 0.37302 0.91223 0.0
N1747 N 0.93879 0.33396 0.90729 0.0
N1748 N 0.97398 0.44601 0.89496 0.0
C1749 C 0.93874 0.44073 0.88409 0.0
C1750 C 0.91973 0.38025 0.89068 0.0
C1751 C 0.16993 0.5903 0.86891 0.0
C1752 C 0.13359 0.58471 0.88055 0.0
C1753 C 0.19033 0.64895 0.87264 0.0
C1754 C 0.17505 0.70406 0.88811 0.0
H1755 H 0.18243 0.54945 0.85633 0.0
H1756 H 0.21797 0.65157 0.86278 0.0
S1757 S 0.08158 0.71279 0.92449 0.0
N1758 N 0.0836 0.63764 0.90917 0.0
N1759 N 0.1218 0.7482 0.91638 0.0
C1760 C 0.13878 0.69874 0.90018 0.0
C1761 C 0.11808 0.63899 0.89633 0.0
C1762 C 0.88472 0.65213 0.60609 0.0
C1763 C 0.8777 0.69683 0.63058 0.0
C1764 C 0.90377 0.59279 0.61147 0.0
C1765 C 0.91665 0.57619 0.64151 0.0
H1766 H 0.87561 0.66325 0.58252 0.0
H1767 H 0.9086 0.55977 0.59192 0.0
S1768 S 0.90257 0.67376 0.71406 0.0
N1769 N 0.8831 0.71891 0.68629 0.0
N1770 N 0.91931 0.60734 0.69639 0.0
C1771 C 0.90955 0.62018 0.66629 0.0
C1772 C 0.88999 0.68053 0.66082 0.0
C1773 C 0.18376 0.40031 0.6185 0.0
C1774 C 0.16358 0.3487 0.60436 0.0
C1775 C 0.16615 0.45812 0.62874 0.0
C1776 C 0.12804 0.4677 0.62428 0.0
H1777 H 0.21321 0.39563 0.62242 0.0
H1778 H 0.1823 0.49482 0.64102 0.0
S1779 S 0.06249 0.34891 0.58799 0.0
N1780 N 0.10301 0.31086 0.58654 0.0
N1781 N 0.07039 0.42141 0.60476 0.0
C1782 C 0.10743 0.41688 0.61009 0.0
C1783 C 0.12512 0.35711 0.60025 0.0
C1784 C 0.63007 0.11889 0.10046 0.0
C1785 C 0.62082 0.09031 0.12936 0.0
C1786 C 0.64844 0.18008 0.09891 0.0
C1787 C 0.65812 0.21489 0.12626 0.0
H1788 H 0.62326 0.09341 0.07892 0.0
H1789 H 0.65507 0.20037 0.07609 0.0
S1790 S 0.63983 0.16006 0.20773 0.0
N1791 N 0.62197 0.10044 0.18585 0.0
N1792 N 0.6573 0.21545 0.18315 0.0
C1793 C 0.64869 0.18678 0.15536 0.0
C1794 C 0.62983 0.1244 0.15686 0.0
C1795 C 0.3816 0.87348 0.15625 0.0
C1796 C 0.37364 0.85206 0.12571 0.0
C1797 C 0.39991 0.93381 0.16152 0.0
C1798 C 0.41078 0.97468 0.13643 0.0
H1799 H 0.37351 0.84349 0.17621 0.0
H1800 H 0.40545 0.94875 0.18538 0.0
S1801 S 0.39928 0.93848 0.05209 0.0
N1802 N 0.37973 0.87462 0.07007 0.0
N1803 N 0.4144 0.9881 0.08005 0.0
C1804 C 0.40352 0.95346 0.10581 0.0
C1805 C 0.38482 0.89212 0.10043 0.0
C1806 C 0.58075 0.94771 0.38179 0.0
C1807 C 0.60957 0.98835 0.37064 0.0
C1808 C 0.58777 0.88435 0.39397 0.0
C1809 C 0.62411 0.85931 0.39612 0.0
H1810 H 0.55253 0.9657 0.38174 0.0
H1811 H 0.5645 0.85511 0.4023 0.0
S1812 S 0.70942 0.9454 0.36912 0.0
N1813 N 0.6757 0.99823 0.36113 0.0
N1814 N 0.68934 0.87991 0.38534 0.0
C1815 C 0.65328 0.89904 0.38461 0.0
C1816 C 0.64595 0.96358 0.37183 0.0
C1817 C 0.42129 0.13563 0.38973 0.0
C1818 C 0.40916 0.08755 0.36832 0.0
C1819 C 0.40101 0.1941 0.39439 0.0
C1820 C 0.36803 0.20596 0.37774 0.0
H1821 H 0.44619 0.12735 0.40333 0.0
H1822 H 0.41085 0.22975 0.41144 0.0
S1823 S 0.32806 0.09996 0.31568 0.0
N1824 N 0.36429 0.05776 0.32844 0.0
N1825 N 0.3265 0.16849 0.33677 0.0
C1826 C 0.35646 0.15924 0.3555 0.0
C1827 C 0.37694 0.09969 0.3509 0.0
C1828 C 0.4295 0.87565 0.88404 0.0
C1829 C 0.39115 0.86343 0.88456 0.0
C1830 C 0.4438 0.93396 0.87036 0.0
C1831 C 0.42018 0.98147 0.85664 0.0
H1832 H 0.44834 0.84128 0.89536 0.0
H1833 H 0.47333 0.94312 0.8716 0.0
S1834 S 0.3182 0.96589 0.84781 0.0
N1835 N 0.3303 0.89906 0.86773 0.0
N1836 N 0.35692 1.00781 0.84136 0.0
C1837 C 0.38194 0.96753 0.85562 0.0
C1838 C 0.3675 0.90862 0.8697 0.0
C1839 C 0.65825 0.17904 0.8908 0.0
C1840 C 0.67974 0.19902 0.86482 0.0
C1841 C 0.63719 0.12036 0.89014 0.0
C1842 C 0.63712 0.07962 0.86358 0.0
H1843 H 0.65801 0.20857 0.91194 0.0
H1844 H 0.62132 0.10619 0.91063 0.0
S1845 S 0.68679 0.10988 0.78913 0.0
N1846 N 0.69783 0.1741 0.81125 0.0
N1847 N 0.65923 0.06272 0.81068 0.0
C1848 C 0.65803 0.09886 0.83746 0.0
C1849 C 0.67921 0.15873 0.83795 0.0
C1850 C 0.41704 0.12874 0.65132 0.0
C1851 C 0.40976 0.07729 0.62994 0.0
C1852 C 0.39662 0.18796 0.65075 0.0
C1853 C 0.3681 0.19802 0.62879 0.0
H1854 H 0.43828 0.1228 0.66899 0.0
H1855 H 0.40277 0.22564 0.66804 0.0
S1856 S 0.33949 0.08081 0.56644 0.0
N1857 N 0.37296 0.0417 0.58524 0.0
N1858 N 0.33478 0.15302 0.58424 0.0
C1859 C 0.36083 0.14742 0.60704 0.0
C1860 C 0.38156 0.08709 0.6076 0.0
C1861 C 0.64931 0.89855 0.60017 0.0
C1862 C 0.65996 0.85363 0.62375 0.0
C1863 C 0.63169 0.95827 0.60755 0.0
C1864 C 0.62401 0.97506 0.63873 0.0
H1865 H 0.65419 0.88717 0.57578 0.0
H1866 H 0.62374 0.99138 0.58869 0.0
S1867 S 0.64784 0.87683 0.70929 0.0
N1868 N 0.66293 0.8316 0.67975 0.0
N1869 N 0.62923 0.94384 0.69344 0.0
C1870 C 0.63461 0.93105 0.66257 0.0
C1871 C 0.65275 0.87033 0.65513 0.0
loop_
_geom_bond_atom_site_label_1
_geom_bond_atom_site_label_2
_geom_bond_distance
_geom_bond_site_symmetry_2
_ccdc_geom_bond_type
Tb0 N31 2.660 . S
Tb0 N38 2.600 . S
Tb0 O44 2.546 1_545 S
Tb0 O45 2.610 . S
Tb0 O47 2.320 . S
Tb0 O48 2.552 1_545 S
Tb0 O49 2.413 1_545 S
Tb0 O51 2.362 . S
Tb0 O52 2.421 . S
Tb0 C64 2.833 1_545 S
C1 C4 1.432 . S
C1 C5 1.414 1_455 S
C1 N8 1.359 . S
C2 C4 1.417 1_655 S
C2 C6 1.432 . S
C2 C14 1.410 . S
C3 C5 1.444 . S
C3 C6 1.317 . S
C3 H26 0.929 . S
C4 C1 1.432 . S
C4 C2 1.417 1_455 S
C4 N12 1.360 . S
C5 C1 1.414 1_655 S
C5 C3 1.444 . S
C5 C10 1.385 . S
C6 C2 1.432 . S
C6 C3 1.317 . S
C6 H18 0.930 . S
C7 C9 1.392 . S
C7 C10 1.370 1_455 S
C7 H19 0.931 . S
N8 C1 1.359 . S
N8 C9 1.327 . S
N8 Tb11 2.600 . S
C9 C7 1.392 . S
C9 N8 1.327 . S
C9 H16 0.930 . S
C10 C5 1.385 . S
C10 C7 1.370 1_655 S
C10 H29 0.930 . S
Tb11 N8 2.600 . S
Tb11 N12 2.660 . S
Tb11 O45 2.362 . S
Tb11 O46 2.421 . S
Tb11 O50 2.546 . S
Tb11 O51 2.610 . S
Tb11 O53 2.320 . S
Tb11 O54 2.552 . S
Tb11 O55 2.413 . S
Tb11 C75 2.833 . S
N12 C4 1.360 . S
N12 Tb11 2.660 . S
N12 C13 1.305 . S
C13 N12 1.305 . S
C13 C15 1.407 1_455 S
C13 H20 0.930 . S
C14 C2 1.410 . S
C14 C15 1.345 . S
C14 H22 0.930 . S
C15 C13 1.407 1_655 S
C15 C14 1.345 . S
C15 H17 0.930 . S
H16 C9 0.930 . S
H17 C15 0.930 . S
H18 C6 0.930 . S
H19 C7 0.931 . S
H20 C13 0.930 . S
H21 C35 0.930 . S
H22 C14 0.930 . S
H23 C41 0.930 . S
H24 C32 0.930 . S
H25 C39 0.931 1_565 S
H26 C3 0.929 . S
H27 C33 0.930 . S
H28 C66 0.930 . S
H29 C10 0.930 . S
H30 C65 0.930 . S
N31 Tb0 2.660 . S
N31 C32 1.305 . S
N31 C36 1.360 . S
C32 H24 0.930 . S
C32 N31 1.305 . S
C32 C35 1.407 . S
C33 H27 0.930 . S
C33 C34 1.410 . S
C33 C35 1.345 . S
C34 C33 1.410 . S
C34 C36 1.417 . S
C34 C66 1.432 . S
C35 H21 0.930 . S
C35 C32 1.407 . S
C35 C33 1.345 . S
C36 N31 1.360 . S
C36 C34 1.417 . S
C36 C40 1.432 . S
H37 C42 0.932 . S
N38 Tb0 2.600 . S
N38 C40 1.359 . S
N38 C41 1.327 . S
C39 H25 0.931 1_545 S
C39 C41 1.392 . S
C39 C42 1.369 1_545 S
C40 C36 1.432 . S
C40 N38 1.359 . S
C40 C43 1.414 . S
C41 H23 0.930 . S
C41 N38 1.327 . S
C41 C39 1.392 . S
C42 H37 0.932 . S
C42 C39 1.369 1_565 S
C42 C43 1.383 1_565 S
C43 C40 1.414 . S
C43 C42 1.383 1_545 S
C43 C65 1.444 . S
O44 Tb0 2.546 1_565 S
O44 C64 1.251 . S
O45 Tb0 2.610 . S
O45 Tb11 2.362 . S
O45 C56 1.283 . S
O46 Tb11 2.421 . S
O46 C63 1.262 . S
O47 Tb0 2.320 . S
O47 C63 1.260 . S
O48 Tb0 2.552 1_565 S
O48 C56 1.243 1_565 S
O49 Tb0 2.413 1_565 S
O49 C64 1.256 . S
O50 Tb11 2.546 . S
O50 C75 1.251 . S
O51 Tb0 2.362 . S
O51 Tb11 2.610 . S
O51 C67 1.283 . S
O52 Tb0 2.421 . S
O52 C74 1.262 . S
O53 Tb11 2.320 . S
O53 C74 1.260 . S
O54 Tb11 2.552 . S
O54 C67 1.243 . S
O55 Tb11 2.413 . S
O55 C75 1.256 . S
C56 O45 1.283 . S
C56 O48 1.243 1_545 S
C57 C59 1.382 . S
C57 C61 1.393 . S
C57 C64 1.500 . S
C58 C59 1.400 . S
C58 C60 1.384 . S
C59 C57 1.382 . S
C59 C58 1.400 . S
C59 H76 0.930 . S
C60 C58 1.384 . S
C60 C62 1.392 . S
C60 H77 0.931 . S
C61 C57 1.393 . S
C61 C62 1.401 . S
C61 H78 0.930 . S
C62 C60 1.392 . S
C62 C61 1.401 . S
C62 H79 0.930 . S
C63 O46 1.262 . S
C63 O47 1.260 . S
C64 Tb0 2.833 1_565 S
C64 O44 1.251 . S
C64 O49 1.256 . S
C64 C57 1.500 . S
C65 H30 0.930 . S
C65 C43 1.444 . S
C65 C66 1.317 . S
C66 H28 0.930 . S
C66 C34 1.432 . S
C66 C65 1.317 . S
C67 O51 1.283 . S
C67 O54 1.243 . S
C68 C69 1.382 . S
C68 C72 1.393 . S
C68 C75 1.500 . S
C69 C68 1.382 . S
C69 C70 1.400 . S
C69 H80 0.930 . S
C70 C69 1.400 . S
C70 C71 1.384 . S
C71 C70 1.384 . S
C71 C73 1.392 . S
C71 H81 0.931 . S
C72 C68 1.393 . S
C72 C73 1.401 . S
C72 H82 0.930 . S
C73 C71 1.392 . S
C73 C72 1.401 . S
C73 H83 0.930 . S
C74 O52 1.262 . S
C74 O53 1.260 . S
C75 Tb11 2.833 . S
C75 O50 1.251 . S
C75 O55 1.256 . S
C75 C68 1.500 . S
H76 C59 0.930 . S
H77 C60 0.931 . S
H78 C61 0.930 . S
H79 C62 0.930 . S
H80 C69 0.930 . S
H81 C71 0.931 . S
H82 C72 0.930 . S
H83 C73 0.930 . S
Tb84 N115 2.660 . S
Tb84 N122 2.600 . S
Tb84 O128 2.546 1_565 S
Tb84 O129 2.610 . S
Tb84 O131 2.320 . S
Tb84 O132 2.552 1_565 S
Tb84 O133 2.413 1_565 S
Tb84 O135 2.362 . S
Tb84 O136 2.421 . S
Tb84 C148 2.833 1_565 S
C85 C88 1.432 . S
C85 C89 1.414 1_655 S
C85 N92 1.359 . S
C86 C88 1.417 1_455 S
C86 C90 1.432 . S
C86 C98 1.410 . S
C87 C89 1.444 . S
C87 C90 1.317 . S
C87 H110 0.929 . S
C88 C85 1.432 . S
C88 C86 1.417 1_655 S
C88 N96 1.360 . S
C89 C85 1.414 1_455 S
C89 C87 1.444 . S
C89 C94 1.385 . S
C90 C86 1.432 . S
C90 C87 1.317 . S
C90 H102 0.930 . S
C91 C93 1.392 . S
C91 C94 1.370 1_655 S
C91 H103 0.931 . S
N92 C85 1.359 . S
N92 C93 1.327 . S
N92 Tb95 2.600 . S
C93 C91 1.392 . S
C93 N92 1.327 . S
C93 H100 0.930 . S
C94 C89 1.385 . S
C94 C91 1.370 1_455 S
C94 H113 0.930 . S
Tb95 N92 2.600 . S
Tb95 N96 2.660 . S
Tb95 O129 2.362 . S
Tb95 O130 2.421 . S
Tb95 O134 2.546 . S
Tb95 O135 2.610 . S
Tb95 O137 2.320 . S
Tb95 O138 2.552 . S
Tb95 O139 2.413 . S
Tb95 C159 2.833 . S
N96 C88 1.360 . S
N96 Tb95 2.660 . S
N96 C97 1.305 . S
C97 N96 1.305 . S
C97 C99 1.407 1_655 S
C97 H104 0.930 . S
C98 C86 1.410 . S
C98 C99 1.345 . S
C98 H106 0.930 . S
C99 C97 1.407 1_455 S
C99 C98 1.345 . S
C99 H101 0.930 . S
H100 C93 0.930 . S
H101 C99 0.930 . S
H102 C90 0.930 . S
H103 C91 0.931 . S
H104 C97 0.930 . S
H105 C119 0.930 . S
H106 C98 0.930 . S
H107 C125 0.930 . S
H108 C116 0.930 . S
H109 C123 0.931 1_545 S
H110 C87 0.929 . S
H111 C117 0.930 . S
H112 C150 0.930 . S
H113 C94 0.930 . S
H114 C149 0.930 . S
N115 Tb84 2.660 . S
N115 C116 1.305 . S
N115 C120 1.360 . S
C116 H108 0.930 . S
C116 N115 1.305 . S
C116 C119 1.407 . S
C117 H111 0.930 . S
C117 C118 1.410 . S
C117 C119 1.345 . S
C118 C117 1.410 . S
C118 C120 1.417 . S
C118 C150 1.432 . S
C119 H105 0.930 . S
C119 C116 1.407 . S
C119 C117 1.345 . S
C120 N115 1.360 . S
C120 C118 1.417 . S
C120 C124 1.432 . S
H121 C126 0.932 . S
N122 Tb84 2.600 . S
N122 C124 1.359 . S
N122 C125 1.327 . S
C123 H109 0.931 1_565 S
C123 C125 1.392 . S
C123 C126 1.369 1_565 S
C124 C120 1.432 . S
C124 N122 1.359 . S
C124 C127 1.414 . S
C125 H107 0.930 . S
C125 N122 1.327 . S
C125 C123 1.392 . S
C126 H121 0.932 . S
C126 C123 1.369 1_545 S
C126 C127 1.383 1_545 S
C127 C124 1.414 . S
C127 C126 1.383 1_565 S
C127 C149 1.444 . S
O128 Tb84 2.546 1_545 S
O128 C148 1.251 . S
O129 Tb84 2.610 . S
O129 Tb95 2.362 . S
O129 C140 1.283 . S
O130 Tb95 2.421 . S
O130 C147 1.262 . S
O131 Tb84 2.320 . S
O131 C147 1.260 . S
O132 Tb84 2.552 1_545 S
O132 C140 1.243 1_545 S
O133 Tb84 2.413 1_545 S
O133 C148 1.256 . S
O134 Tb95 2.546 . S
O134 C159 1.251 . S
O135 Tb84 2.362 . S
O135 Tb95 2.610 . S
O135 C151 1.283 . S
O136 Tb84 2.421 . S
O136 C158 1.262 . S
O137 Tb95 2.320 . S
O137 C158 1.260 . S
O138 Tb95 2.552 . S
O138 C151 1.243 . S
O139 Tb95 2.413 . S
O139 C159 1.256 . S
C140 O129 1.283 . S
C140 O132 1.243 1_565 S
C141 C143 1.382 . S
C141 C145 1.393 . S
C141 C148 1.500 . S
C142 C143 1.400 . S
C142 C144 1.384 . S
C143 C141 1.382 . S
C143 C142 1.400 . S
C143 H160 0.930 . S
C144 C142 1.384 . S
C144 C146 1.392 . S
C144 H161 0.931 . S
C145 C141 1.393 . S
C145 C146 1.401 . S
C145 H162 0.930 . S
C146 C144 1.392 . S
C146 C145 1.401 . S
C146 H163 0.930 . S
C147 O130 1.262 . S
C147 O131 1.260 . S
C148 Tb84 2.833 1_545 S
C148 O128 1.251 . S
C148 O133 1.256 . S
C148 C141 1.500 . S
C149 H114 0.930 . S
C149 C127 1.444 . S
C149 C150 1.317 . S
C150 H112 0.930 . S
C150 C118 1.432 . S
C150 C149 1.317 . S
C151 O135 1.283 . S
C151 O138 1.243 . S
C152 C153 1.382 . S
C152 C156 1.393 . S
C152 C159 1.500 . S
C153 C152 1.382 . S
C153 C154 1.400 . S
C153 H164 0.930 . S
C154 C153 1.400 . S
C154 C155 1.384 . S
C155 C154 1.384 . S
C155 C157 1.392 . S
C155 H165 0.931 . S
C156 C152 1.393 . S
C156 C157 1.401 . S
C156 H166 0.930 . S
C157 C155 1.392 . S
C157 C156 1.401 . S
C157 H167 0.930 . S
C158 O136 1.262 . S
C158 O137 1.260 . S
C159 Tb95 2.833 . S
C159 O134 1.251 . S
C159 O139 1.256 . S
C159 C152 1.500 . S
H160 C143 0.930 . S
H161 C144 0.931 . S
H162 C145 0.930 . S
H163 C146 0.930 . S
H164 C153 0.930 . S
H165 C155 0.931 . S
H166 C156 0.930 . S
H167 C157 0.930 . S
Tb168 N199 2.660 . S
Tb168 N206 2.600 . S
Tb168 O212 2.546 1_565 S
Tb168 O213 2.610 . S
Tb168 O215 2.320 . S
Tb168 O216 2.552 1_565 S
Tb168 O217 2.413 1_565 S
Tb168 O219 2.362 . S
Tb168 O220 2.421 . S
Tb168 C232 2.833 1_565 S
C169 C172 1.432 . S
C169 C173 1.414 1_455 S
C169 N176 1.359 . S
C170 C172 1.417 1_655 S
C170 C174 1.432 . S
C170 C182 1.410 . S
C171 C173 1.444 . S
C171 C174 1.317 . S
C171 H194 0.929 . S
C172 C169 1.432 . S
C172 C170 1.417 1_455 S
C172 N180 1.360 . S
C173 C169 1.414 1_655 S
C173 C171 1.444 . S
C173 C178 1.385 . S
C174 C170 1.432 . S
C174 C171 1.317 . S
C174 H186 0.930 . S
C175 C177 1.392 . S
C175 C178 1.370 1_455 S
C175 H187 0.931 . S
N176 C169 1.359 . S
N176 C177 1.327 . S
N176 Tb179 2.600 . S
C177 C175 1.392 . S
C177 N176 1.327 . S
C177 H184 0.930 . S
C178 C173 1.385 . S
C178 C175 1.370 1_655 S
C178 H197 0.930 . S
Tb179 N176 2.600 . S
Tb179 N180 2.660 . S
Tb179 O213 2.362 . S
Tb179 O214 2.421 . S
Tb179 O218 2.546 . S
Tb179 O219 2.610 . S
Tb179 O221 2.320 . S
Tb179 O222 2.552 . S
Tb179 O223 2.413 . S
Tb179 C243 2.833 . S
N180 C172 1.360 . S
N180 Tb179 2.660 . S
N180 C181 1.305 . S
C181 N180 1.305 . S
C181 C183 1.407 1_455 S
C181 H188 0.930 . S
C182 C170 1.410 . S
C182 C183 1.345 . S
C182 H190 0.930 . S
C183 C181 1.407 1_655 S
C183 C182 1.345 . S
C183 H185 0.930 . S
H184 C177 0.930 . S
H185 C183 0.930 . S
H186 C174 0.930 . S
H187 C175 0.931 . S
H188 C181 0.930 . S
H189 C203 0.930 . S
H190 C182 0.930 . S
H191 C209 0.930 . S
H192 C200 0.930 . S
H193 C207 0.931 1_545 S
H194 C171 0.929 . S
H195 C201 0.930 . S
H196 C234 0.930 . S
H197 C178 0.930 . S
H198 C233 0.930 . S
N199 Tb168 2.660 . S
N199 C200 1.305 . S
N199 C204 1.360 . S
C200 H192 0.930 . S
C200 N199 1.305 . S
C200 C203 1.407 . S
C201 H195 0.930 . S
C201 C202 1.410 . S
C201 C203 1.345 . S
C202 C201 1.410 . S
C202 C204 1.417 . S
C202 C234 1.432 . S
C203 H189 0.930 . S
C203 C200 1.407 . S
C203 C201 1.345 . S
C204 N199 1.360 . S
C204 C202 1.417 . S
C204 C208 1.432 . S
H205 C210 0.932 . S
N206 Tb168 2.600 . S
N206 C208 1.359 . S
N206 C209 1.327 . S
C207 H193 0.931 1_565 S
C207 C209 1.392 . S
C207 C210 1.369 1_565 S
C208 C204 1.432 . S
C208 N206 1.359 . S
C208 C211 1.414 . S
C209 H191 0.930 . S
C209 N206 1.327 . S
C209 C207 1.392 . S
C210 H205 0.932 . S
C210 C207 1.369 1_545 S
C210 C211 1.383 1_545 S
C211 C208 1.414 . S
C211 C210 1.383 1_565 S
C211 C233 1.444 . S
O212 Tb168 2.546 1_545 S
O212 C232 1.251 . S
O213 Tb168 2.610 . S
O213 Tb179 2.362 . S
O213 C224 1.283 . S
O214 Tb179 2.421 . S
O214 C231 1.262 . S
O215 Tb168 2.320 . S
O215 C231 1.260 . S
O216 Tb168 2.552 1_545 S
O216 C224 1.243 1_545 S
O217 Tb168 2.413 1_545 S
O217 C232 1.256 . S
O218 Tb179 2.546 . S
O218 C243 1.251 . S
O219 Tb168 2.362 . S
O219 Tb179 2.610 . S
O219 C235 1.283 . S
O220 Tb168 2.421 . S
O220 C242 1.262 . S
O221 Tb179 2.320 . S
O221 C242 1.260 . S
O222 Tb179 2.552 . S
O222 C235 1.243 . S
O223 Tb179 2.413 . S
O223 C243 1.256 . S
C224 O213 1.283 . S
C224 O216 1.243 1_565 S
C225 C227 1.382 . S
C225 C229 1.393 . S
C225 C232 1.500 . S
C226 C227 1.400 . S
C226 C228 1.384 . S
C227 C225 1.382 . S
C227 C226 1.400 . S
C227 H244 0.930 . S
C228 C226 1.384 . S
C228 C230 1.392 . S
C228 H245 0.931 . S
C229 C225 1.393 . S
C229 C230 1.401 . S
C229 H246 0.930 . S
C230 C228 1.392 . S
C230 C229 1.401 . S
C230 H247 0.930 . S
C231 O214 1.262 . S
C231 O215 1.260 . S
C232 Tb168 2.833 1_545 S
C232 O212 1.251 . S
C232 O217 1.256 . S
C232 C225 1.500 . S
C233 H198 0.930 . S
C233 C211 1.444 . S
C233 C234 1.317 . S
C234 H196 0.930 . S
C234 C202 1.432 . S
C234 C233 1.317 . S
C235 O219 1.283 . S
C235 O222 1.243 . S
C236 C237 1.382 . S
C236 C240 1.393 . S
C236 C243 1.500 . S
C237 C236 1.382 . S
C237 C238 1.400 . S
C237 H248 0.930 . S
C238 C237 1.400 . S
C238 C239 1.384 . S
C239 C238 1.384 . S
C239 C241 1.392 . S
C239 H249 0.931 . S
C240 C236 1.393 . S
C240 C241 1.401 . S
C240 H250 0.930 . S
C241 C239 1.392 . S
C241 C240 1.401 . S
C241 H251 0.930 . S
C242 O220 1.262 . S
C242 O221 1.260 . S
C243 Tb179 2.833 . S
C243 O218 1.251 . S
C243 O223 1.256 . S
C243 C236 1.500 . S
H244 C227 0.930 . S
H245 C228 0.931 . S
H246 C229 0.930 . S
H247 C230 0.930 . S
H248 C237 0.930 . S
H249 C239 0.931 . S
H250 C240 0.930 . S
H251 C241 0.930 . S
Tb252 N283 2.660 . S
Tb252 N290 2.600 . S
Tb252 O296 2.546 1_545 S
Tb252 O297 2.610 . S
Tb252 O299 2.320 . S
Tb252 O300 2.552 1_545 S
Tb252 O301 2.413 1_545 S
Tb252 O303 2.362 . S
Tb252 O304 2.421 . S
Tb252 C316 2.833 1_545 S
C253 C256 1.432 . S
C253 C257 1.414 1_655 S
C253 N260 1.359 . S
C254 C256 1.417 1_455 S
C254 C258 1.432 . S
C254 C266 1.410 . S
C255 C257 1.444 . S
C255 C258 1.317 . S
C255 H278 0.929 . S
C256 C253 1.432 . S
C256 C254 1.417 1_655 S
C256 N264 1.360 . S
C257 C253 1.414 1_455 S
C257 C255 1.444 . S
C257 C262 1.385 . S
C258 C254 1.432 . S
C258 C255 1.317 . S
C258 H270 0.930 . S
C259 C261 1.392 . S
C259 C262 1.370 1_655 S
C259 H271 0.931 . S
N260 C253 1.359 . S
N260 C261 1.327 . S
N260 Tb263 2.600 . S
C261 C259 1.392 . S
C261 N260 1.327 . S
C261 H268 0.930 . S
C262 C257 1.385 . S
C262 C259 1.370 1_455 S
C262 H281 0.930 . S
Tb263 N260 2.600 . S
Tb263 N264 2.660 . S
Tb263 O297 2.362 . S
Tb263 O298 2.421 . S
Tb263 O302 2.546 . S
Tb263 O303 2.610 . S
Tb263 O305 2.320 . S
Tb263 O306 2.552 . S
Tb263 O307 2.413 . S
Tb263 C327 2.833 . S
N264 C256 1.360 . S
N264 Tb263 2.660 . S
N264 C265 1.305 . S
C265 N264 1.305 . S
C265 C267 1.407 1_655 S
C265 H272 0.930 . S
C266 C254 1.410 . S
C266 C267 1.345 . S
C266 H274 0.930 . S
C267 C265 1.407 1_455 S
C267 C266 1.345 . S
C267 H269 0.930 . S
H268 C261 0.930 . S
H269 C267 0.930 . S
H270 C258 0.930 . S
H271 C259 0.931 . S
H272 C265 0.930 . S
H273 C287 0.930 . S
H274 C266 0.930 . S
H275 C293 0.930 . S
H276 C284 0.930 . S
H277 C291 0.931 1_565 S
H278 C255 0.929 . S
H279 C285 0.930 . S
H280 C318 0.930 . S
H281 C262 0.930 . S
H282 C317 0.930 . S
N283 Tb252 2.660 . S
N283 C284 1.305 . S
N283 C288 1.360 . S
C284 H276 0.930 . S
C284 N283 1.305 . S
C284 C287 1.407 . S
C285 H279 0.930 . S
C285 C286 1.410 . S
C285 C287 1.345 . S
C286 C285 1.410 . S
C286 C288 1.417 . S
C286 C318 1.432 . S
C287 H273 0.930 . S
C287 C284 1.407 . S
C287 C285 1.345 . S
C288 N283 1.360 . S
C288 C286 1.417 . S
C288 C292 1.432 . S
H289 C294 0.932 . S
N290 Tb252 2.600 . S
N290 C292 1.359 . S
N290 C293 1.327 . S
C291 H277 0.931 1_545 S
C291 C293 1.392 . S
C291 C294 1.369 1_545 S
C292 C288 1.432 . S
C292 N290 1.359 . S
C292 C295 1.414 . S
C293 H275 0.930 . S
C293 N290 1.327 . S
C293 C291 1.392 . S
C294 H289 0.932 . S
C294 C291 1.369 1_565 S
C294 C295 1.383 1_565 S
C295 C292 1.414 . S
C295 C294 1.383 1_545 S
C295 C317 1.444 . S
O296 Tb252 2.546 1_565 S
O296 C316 1.251 . S
O297 Tb252 2.610 . S
O297 Tb263 2.362 . S
O297 C308 1.283 . S
O298 Tb263 2.421 . S
O298 C315 1.262 . S
O299 Tb252 2.320 . S
O299 C315 1.260 . S
O300 Tb252 2.552 1_565 S
O300 C308 1.243 1_565 S
O301 Tb252 2.413 1_565 S
O301 C316 1.256 . S
O302 Tb263 2.546 . S
O302 C327 1.251 . S
O303 Tb252 2.362 . S
O303 Tb263 2.610 . S
O303 C319 1.283 . S
O304 Tb252 2.421 . S
O304 C326 1.262 . S
O305 Tb263 2.320 . S
O305 C326 1.260 . S
O306 Tb263 2.552 . S
O306 C319 1.243 . S
O307 Tb263 2.413 . S
O307 C327 1.256 . S
C308 O297 1.283 . S
C308 O300 1.243 1_545 S
C309 C311 1.382 . S
C309 C313 1.393 . S
C309 C316 1.500 . S
C310 C311 1.400 . S
C310 C312 1.384 . S
C311 C309 1.382 . S
C311 C310 1.400 . S
C311 H328 0.930 . S
C312 C310 1.384 . S
C312 C314 1.392 . S
C312 H329 0.931 . S
C313 C309 1.393 . S
C313 C314 1.401 . S
C313 H330 0.930 . S
C314 C312 1.392 . S
C314 C313 1.401 . S
C314 H331 0.930 . S
C315 O298 1.262 . S
C315 O299 1.260 . S
C316 Tb252 2.833 1_565 S
C316 O296 1.251 . S
C316 O301 1.256 . S
C316 C309 1.500 . S
C317 H282 0.930 . S
C317 C295 1.444 . S
C317 C318 1.317 . S
C318 H280 0.930 . S
C318 C286 1.432 . S
C318 C317 1.317 . S
C319 O303 1.283 . S
C319 O306 1.243 . S
C320 C321 1.382 . S
C320 C324 1.393 . S
C320 C327 1.500 . S
C321 C320 1.382 . S
C321 C322 1.400 . S
C321 H332 0.930 . S
C322 C321 1.400 . S
C322 C323 1.384 . S
C323 C322 1.384 . S
C323 C325 1.392 . S
C323 H333 0.931 . S
C324 C320 1.393 . S
C324 C325 1.401 . S
C324 H334 0.930 . S
C325 C323 1.392 . S
C325 C324 1.401 . S
C325 H335 0.930 . S
C326 O304 1.262 . S
C326 O305 1.260 . S
C327 Tb263 2.833 . S
C327 O302 1.251 . S
C327 O307 1.256 . S
C327 C320 1.500 . S
H328 C311 0.930 . S
H329 C312 0.931 . S
H330 C313 0.930 . S
H331 C314 0.930 . S
H332 C321 0.930 . S
H333 C323 0.931 . S
H334 C324 0.930 . S
H335 C325 0.930 . S
Tb336 N367 2.660 . S
Tb336 N374 2.600 . S
Tb336 O380 2.546 . S
Tb336 O381 2.610 . S
Tb336 O383 2.320 . S
Tb336 O384 2.552 . S
Tb336 O385 2.413 . S
Tb336 O387 2.362 . S
Tb336 O388 2.421 . S
Tb336 C400 2.833 . S
C337 C340 1.432 . S
C337 C341 1.414 . S
C337 N344 1.359 . S
C338 C340 1.417 . S
C338 C342 1.432 . S
C338 C350 1.410 . S
C339 C341 1.444 . S
C339 C342 1.317 . S
C339 H362 0.930 . S
C340 C337 1.432 . S
C340 C338 1.417 . S
C340 N348 1.360 . S
C341 C337 1.414 . S
C341 C339 1.444 . S
C341 C346 1.383 1_565 S
C342 C338 1.432 . S
C342 C339 1.317 . S
C342 H354 0.930 . S
C343 C345 1.392 . S
C343 C346 1.369 1_565 S
C343 H355 0.931 1_565 S
N344 C337 1.359 . S
N344 C345 1.327 . S
N344 Tb347 2.600 . S
C345 C343 1.392 . S
C345 N344 1.327 . S
C345 H352 0.930 . S
C346 C341 1.383 1_545 S
C346 C343 1.369 1_545 S
C346 H365 0.932 . S
Tb347 N344 2.600 . S
Tb347 N348 2.660 . S
Tb347 O381 2.362 . S
Tb347 O382 2.421 . S
Tb347 O386 2.546 1_565 S
Tb347 O387 2.610 . S
Tb347 O389 2.320 . S
Tb347 O390 2.552 1_565 S
Tb347 O391 2.413 1_565 S
Tb347 C411 2.833 1_565 S
N348 C340 1.360 . S
N348 Tb347 2.660 . S
N348 C349 1.305 . S
C349 N348 1.305 . S
C349 C351 1.407 . S
C349 H356 0.930 . S
C350 C338 1.410 . S
C350 C351 1.345 . S
C350 H358 0.930 . S
C351 C349 1.407 . S
C351 C350 1.345 . S
C351 H353 0.930 . S
H352 C345 0.930 . S
H353 C351 0.930 . S
H354 C342 0.930 . S
H355 C343 0.931 1_545 S
H356 C349 0.930 . S
H357 C371 0.930 . S
H358 C350 0.930 . S
H359 C377 0.930 . S
H360 C368 0.930 . S
H361 C375 0.931 . S
H362 C339 0.930 . S
H363 C369 0.930 . S
H364 C402 0.930 . S
H365 C346 0.932 . S
H366 C401 0.929 . S
N367 Tb336 2.660 . S
N367 C368 1.305 . S
N367 C372 1.360 . S
C368 H360 0.930 . S
C368 N367 1.305 . S
C368 C371 1.407 1_655 S
C369 H363 0.930 . S
C369 C370 1.410 . S
C369 C371 1.345 . S
C370 C369 1.410 . S
C370 C372 1.417 1_455 S
C370 C402 1.432 . S
C371 H357 0.930 . S
C371 C368 1.407 1_455 S
C371 C369 1.345 . S
C372 N367 1.360 . S
C372 C370 1.417 1_655 S
C372 C376 1.432 . S
H373 C378 0.930 . S
N374 Tb336 2.600 . S
N374 C376 1.359 . S
N374 C377 1.327 . S
C375 H361 0.931 . S
C375 C377 1.392 . S
C375 C378 1.370 1_655 S
C376 C372 1.432 . S
C376 N374 1.359 . S
C376 C379 1.414 1_655 S
C377 H359 0.930 . S
C377 N374 1.327 . S
C377 C375 1.392 . S
C378 H373 0.930 . S
C378 C375 1.370 1_455 S
C378 C379 1.385 . S
C379 C376 1.414 1_455 S
C379 C378 1.385 . S
C379 C401 1.444 . S
O380 Tb336 2.546 . S
O380 C400 1.251 . S
O381 Tb336 2.610 . S
O381 Tb347 2.362 . S
O381 C392 1.283 . S
O382 Tb347 2.421 . S
O382 C399 1.262 . S
O383 Tb336 2.320 . S
O383 C399 1.260 . S
O384 Tb336 2.552 . S
O384 C392 1.243 . S
O385 Tb336 2.413 . S
O385 C400 1.256 . S
O386 Tb347 2.546 1_545 S
O386 C411 1.251 . S
O387 Tb336 2.362 . S
O387 Tb347 2.610 . S
O387 C403 1.283 . S
O388 Tb336 2.421 . S
O388 C410 1.262 . S
O389 Tb347 2.320 . S
O389 C410 1.260 . S
O390 Tb347 2.552 1_545 S
O390 C403 1.243 1_545 S
O391 Tb347 2.413 1_545 S
O391 C411 1.256 . S
C392 O381 1.283 . S
C392 O384 1.243 . S
C393 C395 1.382 . S
C393 C397 1.393 . S
C393 C400 1.500 . S
C394 C395 1.400 . S
C394 C396 1.384 . S
C395 C393 1.382 . S
C395 C394 1.400 . S
C395 H412 0.930 . S
C396 C394 1.384 . S
C396 C398 1.392 . S
C396 H413 0.931 . S
C397 C393 1.393 . S
C397 C398 1.401 . S
C397 H414 0.930 . S
C398 C396 1.392 . S
C398 C397 1.401 . S
C398 H415 0.930 . S
C399 O382 1.262 . S
C399 O383 1.260 . S
C400 Tb336 2.833 . S
C400 O380 1.251 . S
C400 O385 1.256 . S
C400 C393 1.500 . S
C401 H366 0.929 . S
C401 C379 1.444 . S
C401 C402 1.317 . S
C402 H364 0.930 . S
C402 C370 1.432 . S
C402 C401 1.317 . S
C403 O387 1.283 . S
C403 O390 1.243 1_565 S
C404 C405 1.382 . S
C404 C408 1.393 . S
C404 C411 1.500 . S
C405 C404 1.382 . S
C405 C406 1.400 . S
C405 H416 0.930 . S
C406 C405 1.400 . S
C406 C407 1.384 . S
C407 C406 1.384 . S
C407 C409 1.392 . S
C407 H417 0.931 . S
C408 C404 1.393 . S
C408 C409 1.401 . S
C408 H418 0.930 . S
C409 C407 1.392 . S
C409 C408 1.401 . S
C409 H419 0.930 . S
C410 O388 1.262 . S
C410 O389 1.260 . S
C411 Tb347 2.833 1_545 S
C411 O386 1.251 . S
C411 O391 1.256 . S
C411 C404 1.500 . S
H412 C395 0.930 . S
H413 C396 0.931 . S
H414 C397 0.930 . S
H415 C398 0.930 . S
H416 C405 0.930 . S
H417 C407 0.931 . S
H418 C408 0.930 . S
H419 C409 0.930 . S
Tb420 N451 2.660 . S
Tb420 N458 2.600 . S
Tb420 O464 2.546 . S
Tb420 O465 2.610 . S
Tb420 O467 2.320 . S
Tb420 O468 2.552 . S
Tb420 O469 2.413 . S
Tb420 O471 2.362 . S
Tb420 O472 2.421 . S
Tb420 C484 2.833 . S
C421 C424 1.432 . S
C421 C425 1.414 . S
C421 N428 1.359 . S
C422 C424 1.417 . S
C422 C426 1.432 . S
C422 C434 1.410 . S
C423 C425 1.444 . S
C423 C426 1.317 . S
C423 H446 0.930 . S
C424 C421 1.432 . S
C424 C422 1.417 . S
C424 N432 1.360 . S
C425 C421 1.414 . S
C425 C423 1.444 . S
C425 C430 1.383 1_545 S
C426 C422 1.432 . S
C426 C423 1.317 . S
C426 H438 0.930 . S
C427 C429 1.392 . S
C427 C430 1.369 1_545 S
C427 H439 0.931 1_545 S
N428 C421 1.359 . S
N428 C429 1.327 . S
N428 Tb431 2.600 . S
C429 C427 1.392 . S
C429 N428 1.327 . S
C429 H436 0.930 . S
C430 C425 1.383 1_565 S
C430 C427 1.369 1_565 S
C430 H449 0.932 . S
Tb431 N428 2.600 . S
Tb431 N432 2.660 . S
Tb431 O465 2.362 . S
Tb431 O466 2.421 . S
Tb431 O470 2.546 1_545 S
Tb431 O471 2.610 . S
Tb431 O473 2.320 . S
Tb431 O474 2.552 1_545 S
Tb431 O475 2.413 1_545 S
Tb431 C495 2.833 1_545 S
N432 C424 1.360 . S
N432 Tb431 2.660 . S
N432 C433 1.305 . S
C433 N432 1.305 . S
C433 C435 1.407 . S
C433 H440 0.930 . S
C434 C422 1.410 . S
C434 C435 1.345 . S
C434 H442 0.930 . S
C435 C433 1.407 . S
C435 C434 1.345 . S
C435 H437 0.930 . S
H436 C429 0.930 . S
H437 C435 0.930 . S
H438 C426 0.930 . S
H439 C427 0.931 1_565 S
H440 C433 0.930 . S
H441 C455 0.930 . S
H442 C434 0.930 . S
H443 C461 0.930 . S
H444 C452 0.930 . S
H445 C459 0.931 . S
H446 C423 0.930 . S
H447 C453 0.930 . S
H448 C486 0.930 . S
H449 C430 0.932 . S
H450 C485 0.929 . S
N451 Tb420 2.660 . S
N451 C452 1.305 . S
N451 C456 1.360 . S
C452 H444 0.930 . S
C452 N451 1.305 . S
C452 C455 1.407 1_455 S
C453 H447 0.930 . S
C453 C454 1.410 . S
C453 C455 1.345 . S
C454 C453 1.410 . S
C454 C456 1.417 1_655 S
C454 C486 1.432 . S
C455 H441 0.930 . S
C455 C452 1.407 1_655 S
C455 C453 1.345 . S
C456 N451 1.360 . S
C456 C454 1.417 1_455 S
C456 C460 1.432 . S
H457 C462 0.930 . S
N458 Tb420 2.600 . S
N458 C460 1.359 . S
N458 C461 1.327 . S
C459 H445 0.931 . S
C459 C461 1.392 . S
C459 C462 1.370 1_455 S
C460 C456 1.432 . S
C460 N458 1.359 . S
C460 C463 1.414 1_455 S
C461 H443 0.930 . S
C461 N458 1.327 . S
C461 C459 1.392 . S
C462 H457 0.930 . S
C462 C459 1.370 1_655 S
C462 C463 1.385 . S
C463 C460 1.414 1_655 S
C463 C462 1.385 . S
C463 C485 1.444 . S
O464 Tb420 2.546 . S
O464 C484 1.251 . S
O465 Tb420 2.610 . S
O465 Tb431 2.362 . S
O465 C476 1.283 . S
O466 Tb431 2.421 . S
O466 C483 1.262 . S
O467 Tb420 2.320 . S
O467 C483 1.260 . S
O468 Tb420 2.552 . S
O468 C476 1.243 . S
O469 Tb420 2.413 . S
O469 C484 1.256 . S
O470 Tb431 2.546 1_565 S
O470 C495 1.251 . S
O471 Tb420 2.362 . S
O471 Tb431 2.610 . S
O471 C487 1.283 . S
O472 Tb420 2.421 . S
O472 C494 1.262 . S
O473 Tb431 2.320 . S
O473 C494 1.260 . S
O474 Tb431 2.552 1_565 S
O474 C487 1.243 1_565 S
O475 Tb431 2.413 1_565 S
O475 C495 1.256 . S
C476 O465 1.283 . S
C476 O468 1.243 . S
C477 C479 1.382 . S
C477 C481 1.393 . S
C477 C484 1.500 . S
C478 C479 1.400 . S
C478 C480 1.384 . S
C479 C477 1.382 . S
C479 C478 1.400 . S
C479 H496 0.930 . S
C480 C478 1.384 . S
C480 C482 1.392 . S
C480 H497 0.931 . S
C481 C477 1.393 . S
C481 C482 1.401 . S
C481 H498 0.930 . S
C482 C480 1.392 . S
C482 C481 1.401 . S
C482 H499 0.930 . S
C483 O466 1.262 . S
C483 O467 1.260 . S
C484 Tb420 2.833 . S
C484 O464 1.251 . S
C484 O469 1.256 . S
C484 C477 1.500 . S
C485 H450 0.929 . S
C485 C463 1.444 . S
C485 C486 1.317 . S
C486 H448 0.930 . S
C486 C454 1.432 . S
C486 C485 1.317 . S
C487 O471 1.283 . S
C487 O474 1.243 1_545 S
C488 C489 1.382 . S
C488 C492 1.393 . S
C488 C495 1.500 . S
C489 C488 1.382 . S
C489 C490 1.400 . S
C489 H500 0.930 . S
C490 C489 1.400 . S
C490 C491 1.384 . S
C491 C490 1.384 . S
C491 C493 1.392 . S
C491 H501 0.931 . S
C492 C488 1.393 . S
C492 C493 1.401 . S
C492 H502 0.930 . S
C493 C491 1.392 . S
C493 C492 1.401 . S
C493 H503 0.930 . S
C494 O472 1.262 . S
C494 O473 1.260 . S
C495 Tb431 2.833 1_565 S
C495 O470 1.251 . S
C495 O475 1.256 . S
C495 C488 1.500 . S
H496 C479 0.930 . S
H497 C480 0.931 . S
H498 C481 0.930 . S
H499 C482 0.930 . S
H500 C489 0.930 . S
H501 C491 0.931 . S
H502 C492 0.930 . S
H503 C493 0.930 . S
Tb504 N535 2.660 . S
Tb504 N542 2.600 . S
Tb504 O548 2.546 . S
Tb504 O549 2.610 . S
Tb504 O551 2.320 . S
Tb504 O552 2.552 . S
Tb504 O553 2.413 . S
Tb504 O555 2.362 . S
Tb504 O556 2.421 . S
Tb504 C568 2.833 . S
C505 C508 1.432 . S
C505 C509 1.414 . S
C505 N512 1.359 . S
C506 C508 1.417 . S
C506 C510 1.432 . S
C506 C518 1.410 . S
C507 C509 1.444 . S
C507 C510 1.317 . S
C507 H530 0.930 . S
C508 C505 1.432 . S
C508 C506 1.417 . S
C508 N516 1.360 . S
C509 C505 1.414 . S
C509 C507 1.444 . S
C509 C514 1.383 1_545 S
C510 C506 1.432 . S
C510 C507 1.317 . S
C510 H522 0.930 . S
C511 C513 1.392 . S
C511 C514 1.369 1_545 S
C511 H523 0.931 1_545 S
N512 C505 1.359 . S
N512 C513 1.327 . S
N512 Tb515 2.600 . S
C513 C511 1.392 . S
C513 N512 1.327 . S
C513 H520 0.930 . S
C514 C509 1.383 1_565 S
C514 C511 1.369 1_565 S
C514 H533 0.932 . S
Tb515 N512 2.600 . S
Tb515 N516 2.660 . S
Tb515 O549 2.362 . S
Tb515 O550 2.421 . S
Tb515 O554 2.546 1_545 S
Tb515 O555 2.610 . S
Tb515 O557 2.320 . S
Tb515 O558 2.552 1_545 S
Tb515 O559 2.413 1_545 S
Tb515 C579 2.833 1_545 S
N516 C508 1.360 . S
N516 Tb515 2.660 . S
N516 C517 1.305 . S
C517 N516 1.305 . S
C517 C519 1.407 . S
C517 H524 0.930 . S
C518 C506 1.410 . S
C518 C519 1.345 . S
C518 H526 0.930 . S
C519 C517 1.407 . S
C519 C518 1.345 . S
C519 H521 0.930 . S
H520 C513 0.930 . S
H521 C519 0.930 . S
H522 C510 0.930 . S
H523 C511 0.931 1_565 S
H524 C517 0.930 . S
H525 C539 0.930 . S
H526 C518 0.930 . S
H527 C545 0.930 . S
H528 C536 0.930 . S
H529 C543 0.931 . S
H530 C507 0.930 . S
H531 C537 0.930 . S
H532 C570 0.930 . S
H533 C514 0.932 . S
H534 C569 0.929 . S
N535 Tb504 2.660 . S
N535 C536 1.305 . S
N535 C540 1.360 . S
C536 H528 0.930 . S
C536 N535 1.305 . S
C536 C539 1.407 1_655 S
C537 H531 0.930 . S
C537 C538 1.410 . S
C537 C539 1.345 . S
C538 C537 1.410 . S
C538 C540 1.417 1_455 S
C538 C570 1.432 . S
C539 H525 0.930 . S
C539 C536 1.407 1_455 S
C539 C537 1.345 . S
C540 N535 1.360 . S
C540 C538 1.417 1_655 S
C540 C544 1.432 . S
H541 C546 0.930 . S
N542 Tb504 2.600 . S
N542 C544 1.359 . S
N542 C545 1.327 . S
C543 H529 0.931 . S
C543 C545 1.392 . S
C543 C546 1.370 1_655 S
C544 C540 1.432 . S
C544 N542 1.359 . S
C544 C547 1.414 1_655 S
C545 H527 0.930 . S
C545 N542 1.327 . S
C545 C543 1.392 . S
C546 H541 0.930 . S
C546 C543 1.370 1_455 S
C546 C547 1.385 . S
C547 C544 1.414 1_455 S
C547 C546 1.385 . S
C547 C569 1.444 . S
O548 Tb504 2.546 . S
O548 C568 1.251 . S
O549 Tb504 2.610 . S
O549 Tb515 2.362 . S
O549 C560 1.283 . S
O550 Tb515 2.421 . S
O550 C567 1.262 . S
O551 Tb504 2.320 . S
O551 C567 1.260 . S
O552 Tb504 2.552 . S
O552 C560 1.243 . S
O553 Tb504 2.413 . S
O553 C568 1.256 . S
O554 Tb515 2.546 1_565 S
O554 C579 1.251 . S
O555 Tb504 2.362 . S
O555 Tb515 2.610 . S
O555 C571 1.283 . S
O556 Tb504 2.421 . S
O556 C578 1.262 . S
O557 Tb515 2.320 . S
O557 C578 1.260 . S
O558 Tb515 2.552 1_565 S
O558 C571 1.243 1_565 S
O559 Tb515 2.413 1_565 S
O559 C579 1.256 . S
C560 O549 1.283 . S
C560 O552 1.243 . S
C561 C563 1.382 . S
C561 C565 1.393 . S
C561 C568 1.500 . S
C562 C563 1.400 . S
C562 C564 1.384 . S
C563 C561 1.382 . S
C563 C562 1.400 . S
C563 H580 0.930 . S
C564 C562 1.384 . S
C564 C566 1.392 . S
C564 H581 0.931 . S
C565 C561 1.393 . S
C565 C566 1.401 . S
C565 H582 0.930 . S
C566 C564 1.392 . S
C566 C565 1.401 . S
C566 H583 0.930 . S
C567 O550 1.262 . S
C567 O551 1.260 . S
C568 Tb504 2.833 . S
C568 O548 1.251 . S
C568 O553 1.256 . S
C568 C561 1.500 . S
C569 H534 0.929 . S
C569 C547 1.444 . S
C569 C570 1.317 . S
C570 H532 0.930 . S
C570 C538 1.432 . S
C570 C569 1.317 . S
C571 O555 1.283 . S
C571 O558 1.243 1_545 S
C572 C573 1.382 . S
C572 C576 1.393 . S
C572 C579 1.500 . S
C573 C572 1.382 . S
C573 C574 1.400 . S
C573 H584 0.930 . S
C574 C573 1.400 . S
C574 C575 1.384 . S
C575 C574 1.384 . S
C575 C577 1.392 . S
C575 H585 0.931 . S
C576 C572 1.393 . S
C576 C577 1.401 . S
C576 H586 0.930 . S
C577 C575 1.392 . S
C577 C576 1.401 . S
C577 H587 0.930 . S
C578 O556 1.262 . S
C578 O557 1.260 . S
C579 Tb515 2.833 1_565 S
C579 O554 1.251 . S
C579 O559 1.256 . S
C579 C572 1.500 . S
H580 C563 0.930 . S
H581 C564 0.931 . S
H582 C565 0.930 . S
H583 C566 0.930 . S
H584 C573 0.930 . S
H585 C575 0.931 . S
H586 C576 0.930 . S
H587 C577 0.930 . S
Tb588 N619 2.660 . S
Tb588 N626 2.600 . S
Tb588 O632 2.546 . S
Tb588 O633 2.610 . S
Tb588 O635 2.320 . S
Tb588 O636 2.552 . S
Tb588 O637 2.413 . S
Tb588 O639 2.362 . S
Tb588 O640 2.421 . S
Tb588 C652 2.833 . S
C589 C592 1.432 . S
C589 C593 1.414 . S
C589 N596 1.359 . S
C590 C592 1.417 . S
C590 C594 1.432 . S
C590 C602 1.410 . S
C591 C593 1.444 . S
C591 C594 1.317 . S
C591 H614 0.930 . S
C592 C589 1.432 . S
C592 C590 1.417 . S
C592 N600 1.360 . S
C593 C589 1.414 . S
C593 C591 1.444 . S
C593 C598 1.383 1_565 S
C594 C590 1.432 . S
C594 C591 1.317 . S
C594 H606 0.930 . S
C595 C597 1.392 . S
C595 C598 1.369 1_565 S
C595 H607 0.931 1_565 S
N596 C589 1.359 . S
N596 C597 1.327 . S
N596 Tb599 2.600 . S
C597 C595 1.392 . S
C597 N596 1.327 . S
C597 H604 0.930 . S
C598 C593 1.383 1_545 S
C598 C595 1.369 1_545 S
C598 H617 0.932 . S
Tb599 N596 2.600 . S
Tb599 N600 2.660 . S
Tb599 O633 2.362 . S
Tb599 O634 2.421 . S
Tb599 O638 2.546 1_565 S
Tb599 O639 2.610 . S
Tb599 O641 2.320 . S
Tb599 O642 2.552 1_565 S
Tb599 O643 2.413 1_565 S
Tb599 C663 2.833 1_565 S
N600 C592 1.360 . S
N600 Tb599 2.660 . S
N600 C601 1.305 . S
C601 N600 1.305 . S
C601 C603 1.407 . S
C601 H608 0.930 . S
C602 C590 1.410 . S
C602 C603 1.345 . S
C602 H610 0.930 . S
C603 C601 1.407 . S
C603 C602 1.345 . S
C603 H605 0.930 . S
H604 C597 0.930 . S
H605 C603 0.930 . S
H606 C594 0.930 . S
H607 C595 0.931 1_545 S
H608 C601 0.930 . S
H609 C623 0.930 . S
H610 C602 0.930 . S
H611 C629 0.930 . S
H612 C620 0.930 . S
H613 C627 0.931 . S
H614 C591 0.930 . S
H615 C621 0.930 . S
H616 C654 0.930 . S
H617 C598 0.932 . S
H618 C653 0.929 . S
N619 Tb588 2.660 . S
N619 C620 1.305 . S
N619 C624 1.360 . S
C620 H612 0.930 . S
C620 N619 1.305 . S
C620 C623 1.407 1_455 S
C621 H615 0.930 . S
C621 C622 1.410 . S
C621 C623 1.345 . S
C622 C621 1.410 . S
C622 C624 1.417 1_655 S
C622 C654 1.432 . S
C623 H609 0.930 . S
C623 C620 1.407 1_655 S
C623 C621 1.345 . S
C624 N619 1.360 . S
C624 C622 1.417 1_455 S
C624 C628 1.432 . S
H625 C630 0.930 . S
N626 Tb588 2.600 . S
N626 C628 1.359 . S
N626 C629 1.327 . S
C627 H613 0.931 . S
C627 C629 1.392 . S
C627 C630 1.370 1_455 S
C628 C624 1.432 . S
C628 N626 1.359 . S
C628 C631 1.414 1_455 S
C629 H611 0.930 . S
C629 N626 1.327 . S
C629 C627 1.392 . S
C630 H625 0.930 . S
C630 C627 1.370 1_655 S
C630 C631 1.385 . S
C631 C628 1.414 1_655 S
C631 C630 1.385 . S
C631 C653 1.444 . S
O632 Tb588 2.546 . S
O632 C652 1.251 . S
O633 Tb588 2.610 . S
O633 Tb599 2.362 . S
O633 C644 1.283 . S
O634 Tb599 2.421 . S
O634 C651 1.262 . S
O635 Tb588 2.320 . S
O635 C651 1.260 . S
O636 Tb588 2.552 . S
O636 C644 1.243 . S
O637 Tb588 2.413 . S
O637 C652 1.256 . S
O638 Tb599 2.546 1_545 S
O638 C663 1.251 . S
O639 Tb588 2.362 . S
O639 Tb599 2.610 . S
O639 C655 1.283 . S
O640 Tb588 2.421 . S
O640 C662 1.262 . S
O641 Tb599 2.320 . S
O641 C662 1.260 . S
O642 Tb599 2.552 1_545 S
O642 C655 1.243 1_545 S
O643 Tb599 2.413 1_545 S
O643 C663 1.256 . S
C644 O633 1.283 . S
C644 O636 1.243 . S
C645 C647 1.382 . S
C645 C649 1.393 . S
C645 C652 1.500 . S
C646 C647 1.400 . S
C646 C648 1.384 . S
C647 C645 1.382 . S
C647 C646 1.400 . S
C647 H664 0.930 . S
C648 C646 1.384 . S
C648 C650 1.392 . S
C648 H665 0.931 . S
C649 C645 1.393 . S
C649 C650 1.401 . S
C649 H666 0.930 . S
C650 C648 1.392 . S
C650 C649 1.401 . S
C650 H667 0.930 . S
C651 O634 1.262 . S
C651 O635 1.260 . S
C652 Tb588 2.833 . S
C652 O632 1.251 . S
C652 O637 1.256 . S
C652 C645 1.500 . S
C653 H618 0.929 . S
C653 C631 1.444 . S
C653 C654 1.317 . S
C654 H616 0.930 . S
C654 C622 1.432 . S
C654 C653 1.317 . S
C655 O639 1.283 . S
C655 O642 1.243 1_565 S
C656 C657 1.382 . S
C656 C660 1.393 . S
C656 C663 1.500 . S
C657 C656 1.382 . S
C657 C658 1.400 . S
C657 H668 0.930 . S
C658 C657 1.400 . S
C658 C659 1.384 . S
C659 C658 1.384 . S
C659 C661 1.392 . S
C659 H669 0.931 . S
C660 C656 1.393 . S
C660 C661 1.401 . S
C660 H670 0.930 . S
C661 C659 1.392 . S
C661 C660 1.401 . S
C661 H671 0.930 . S
C662 O640 1.262 . S
C662 O641 1.260 . S
C663 Tb599 2.833 1_545 S
C663 O638 1.251 . S
C663 O643 1.256 . S
C663 C656 1.500 . S
H664 C647 0.930 . S
H665 C648 0.931 . S
H666 C649 0.930 . S
H667 C650 0.930 . S
H668 C657 0.930 . S
H669 C659 0.931 . S
H670 C660 0.930 . S
H671 C661 0.930 . S
Tb672 N703 2.660 . S
Tb672 N710 2.600 . S
Tb672 O716 2.546 . S
Tb672 O717 2.610 . S
Tb672 O719 2.320 . S
Tb672 O720 2.552 . S
Tb672 O721 2.413 . S
Tb672 O723 2.362 . S
Tb672 O724 2.421 . S
Tb672 C736 2.833 . S
C673 C676 1.432 . S
C673 C677 1.414 . S
C673 N680 1.359 . S
C674 C676 1.417 . S
C674 C678 1.432 . S
C674 C686 1.410 . S
C675 C677 1.444 . S
C675 C678 1.317 . S
C675 H698 0.929 . S
C676 C673 1.432 . S
C676 C674 1.417 . S
C676 N684 1.360 . S
C677 C673 1.414 . S
C677 C675 1.444 . S
C677 C682 1.385 . S
C678 C674 1.432 . S
C678 C675 1.317 . S
C678 H690 0.930 . S
C679 C681 1.392 . S
C679 C682 1.370 . S
C679 H691 0.931 . S
N680 C673 1.359 . S
N680 C681 1.327 . S
N680 Tb683 2.600 . S
C681 C679 1.392 . S
C681 N680 1.327 . S
C681 H688 0.930 . S
C682 C677 1.385 . S
C682 C679 1.370 . S
C682 H701 0.930 . S
Tb683 N680 2.600 . S
Tb683 N684 2.660 . S
Tb683 O717 2.362 . S
Tb683 O718 2.421 . S
Tb683 O722 2.546 . S
Tb683 O723 2.610 . S
Tb683 O725 2.320 . S
Tb683 O726 2.552 . S
Tb683 O727 2.413 . S
Tb683 C747 2.833 . S
N684 C676 1.360 . S
N684 Tb683 2.660 . S
N684 C685 1.305 . S
C685 N684 1.305 . S
C685 C687 1.407 . S
C685 H692 0.930 . S
C686 C674 1.410 . S
C686 C687 1.345 . S
C686 H694 0.930 . S
C687 C685 1.407 . S
C687 C686 1.345 . S
C687 H689 0.930 . S
H688 C681 0.930 . S
H689 C687 0.930 . S
H690 C678 0.930 . S
H691 C679 0.931 . S
H692 C685 0.930 . S
H693 C707 0.930 . S
H694 C686 0.930 . S
H695 C713 0.930 . S
H696 C704 0.930 . S
H697 C711 0.931 . S
H698 C675 0.929 . S
H699 C705 0.930 . S
H700 C738 0.930 . S
H701 C682 0.930 . S
H702 C737 0.929 . S
N703 Tb672 2.660 . S
N703 C704 1.305 . S
N703 C708 1.360 . S
C704 H696 0.930 . S
C704 N703 1.305 . S
C704 C707 1.407 . S
C705 H699 0.930 . S
C705 C706 1.410 . S
C705 C707 1.345 . S
C706 C705 1.410 . S
C706 C708 1.417 . S
C706 C738 1.432 . S
C707 H693 0.930 . S
C707 C704 1.407 . S
C707 C705 1.345 . S
C708 N703 1.360 . S
C708 C706 1.417 . S
C708 C712 1.432 . S
H709 C714 0.930 . S
N710 Tb672 2.600 . S
N710 C712 1.359 . S
N710 C713 1.327 . S
C711 H697 0.931 . S
C711 C713 1.392 . S
C711 C714 1.370 . S
C712 C708 1.432 . S
C712 N710 1.359 . S
C712 C715 1.414 . S
C713 H695 0.930 . S
C713 N710 1.327 . S
C713 C711 1.392 . S
C714 H709 0.930 . S
C714 C711 1.370 . S
C714 C715 1.385 . S
C715 C712 1.414 . S
C715 C714 1.385 . S
C715 C737 1.444 . S
O716 Tb672 2.546 . S
O716 C736 1.251 . S
O717 Tb672 2.610 . S
O717 Tb683 2.362 . S
O717 C728 1.283 . S
O718 Tb683 2.421 . S
O718 C735 1.262 . S
O719 Tb672 2.320 . S
O719 C735 1.260 . S
O720 Tb672 2.552 . S
O720 C728 1.243 . S
O721 Tb672 2.413 . S
O721 C736 1.256 . S
O722 Tb683 2.546 . S
O722 C747 1.251 . S
O723 Tb672 2.362 . S
O723 Tb683 2.610 . S
O723 C739 1.283 . S
O724 Tb672 2.421 . S
O724 C746 1.262 . S
O725 Tb683 2.320 . S
O725 C746 1.260 . S
O726 Tb683 2.552 . S
O726 C739 1.243 . S
O727 Tb683 2.413 . S
O727 C747 1.256 . S
C728 O717 1.283 . S
C728 O720 1.243 . S
C729 C731 1.382 . S
C729 C733 1.393 . S
C729 C736 1.500 . S
C730 C731 1.400 . S
C730 C732 1.384 . S
C731 C729 1.382 . S
C731 C730 1.400 . S
C731 H748 0.930 . S
C732 C730 1.384 . S
C732 C734 1.392 . S
C732 H749 0.931 . S
C733 C729 1.393 . S
C733 C734 1.401 . S
C733 H750 0.930 . S
C734 C732 1.392 . S
C734 C733 1.401 . S
C734 H751 0.930 . S
C735 O718 1.262 . S
C735 O719 1.260 . S
C736 Tb672 2.833 . S
C736 O716 1.251 . S
C736 O721 1.256 . S
C736 C729 1.500 . S
C737 H702 0.929 . S
C737 C715 1.444 . S
C737 C738 1.317 . S
C738 H700 0.930 . S
C738 C706 1.432 . S
C738 C737 1.317 . S
C739 O723 1.283 . S
C739 O726 1.243 . S
C740 C741 1.382 . S
C740 C744 1.393 . S
C740 C747 1.500 . S
C741 C740 1.382 . S
C741 C742 1.395 1_565 S
C741 H752 0.930 . S
C742 C741 1.395 1_545 S
C742 C743 1.386 . S
C743 C742 1.386 . S
C743 C745 1.398 . S
C743 H753 0.931 . S
C744 C740 1.393 . S
C744 C745 1.388 1_565 S
C744 H754 0.930 . S
C745 C743 1.398 . S
C745 C744 1.388 1_545 S
C745 H755 0.937 . S
C746 O724 1.262 . S
C746 O725 1.260 . S
C747 Tb683 2.833 . S
C747 O722 1.251 . S
C747 O727 1.256 . S
C747 C740 1.500 . S
H748 C731 0.930 . S
H749 C732 0.931 . S
H750 C733 0.930 . S
H751 C734 0.930 . S
H752 C741 0.930 . S
H753 C743 0.931 . S
H754 C744 0.930 . S
H755 C745 0.937 . S
Tb756 N787 2.660 . S
Tb756 N794 2.600 . S
Tb756 O800 2.546 . S
Tb756 O801 2.610 . S
Tb756 O803 2.320 . S
Tb756 O804 2.552 . S
Tb756 O805 2.413 . S
Tb756 O807 2.362 . S
Tb756 O808 2.421 . S
Tb756 C820 2.833 . S
C757 C760 1.432 . S
C757 C761 1.414 . S
C757 N764 1.359 . S
C758 C760 1.417 . S
C758 C762 1.432 . S
C758 C770 1.410 . S
C759 C761 1.444 . S
C759 C762 1.317 . S
C759 H782 0.929 . S
C760 C757 1.432 . S
C760 C758 1.417 . S
C760 N768 1.360 . S
C761 C757 1.414 . S
C761 C759 1.444 . S
C761 C766 1.385 . S
C762 C758 1.432 . S
C762 C759 1.317 . S
C762 H774 0.930 . S
C763 C765 1.392 . S
C763 C766 1.370 . S
C763 H775 0.931 . S
N764 C757 1.359 . S
N764 C765 1.327 . S
N764 Tb767 2.600 . S
C765 C763 1.392 . S
C765 N764 1.327 . S
C765 H772 0.930 . S
C766 C761 1.385 . S
C766 C763 1.370 . S
C766 H785 0.930 . S
Tb767 N764 2.600 . S
Tb767 N768 2.660 . S
Tb767 O801 2.362 . S
Tb767 O802 2.421 . S
Tb767 O806 2.546 . S
Tb767 O807 2.610 . S
Tb767 O809 2.320 . S
Tb767 O810 2.552 . S
Tb767 O811 2.413 . S
Tb767 C831 2.833 . S
N768 C760 1.360 . S
N768 Tb767 2.660 . S
N768 C769 1.305 . S
C769 N768 1.305 . S
C769 C771 1.407 . S
C769 H776 0.930 . S
C770 C758 1.410 . S
C770 C771 1.345 . S
C770 H778 0.930 . S
C771 C769 1.407 . S
C771 C770 1.345 . S
C771 H773 0.930 . S
H772 C765 0.930 . S
H773 C771 0.930 . S
H774 C762 0.930 . S
H775 C763 0.931 . S
H776 C769 0.930 . S
H777 C791 0.930 . S
H778 C770 0.930 . S
H779 C797 0.930 . S
H780 C788 0.930 . S
H781 C795 0.931 . S
H782 C759 0.929 . S
H783 C789 0.930 . S
H784 C822 0.930 . S
H785 C766 0.930 . S
H786 C821 0.929 . S
N787 Tb756 2.660 . S
N787 C788 1.305 . S
N787 C792 1.360 . S
C788 H780 0.930 . S
C788 N787 1.305 . S
C788 C791 1.407 . S
C789 H783 0.930 . S
C789 C790 1.410 . S
C789 C791 1.345 . S
C790 C789 1.410 . S
C790 C792 1.417 . S
C790 C822 1.432 . S
C791 H777 0.930 . S
C791 C788 1.407 . S
C791 C789 1.345 . S
C792 N787 1.360 . S
C792 C790 1.417 . S
C792 C796 1.432 . S
H793 C798 0.930 . S
N794 Tb756 2.600 . S
N794 C796 1.359 . S
N794 C797 1.327 . S
C795 H781 0.931 . S
C795 C797 1.392 . S
C795 C798 1.370 . S
C796 C792 1.432 . S
C796 N794 1.359 . S
C796 C799 1.414 . S
C797 H779 0.930 . S
C797 N794 1.327 . S
C797 C795 1.392 . S
C798 H793 0.930 . S
C798 C795 1.370 . S
C798 C799 1.385 . S
C799 C796 1.414 . S
C799 C798 1.385 . S
C799 C821 1.444 . S
O800 Tb756 2.546 . S
O800 C820 1.251 . S
O801 Tb756 2.610 . S
O801 Tb767 2.362 . S
O801 C812 1.283 . S
O802 Tb767 2.421 . S
O802 C819 1.262 . S
O803 Tb756 2.320 . S
O803 C819 1.260 . S
O804 Tb756 2.552 . S
O804 C812 1.243 . S
O805 Tb756 2.413 . S
O805 C820 1.256 . S
O806 Tb767 2.546 . S
O806 C831 1.251 . S
O807 Tb756 2.362 . S
O807 Tb767 2.610 . S
O807 C823 1.283 . S
O808 Tb756 2.421 . S
O808 C830 1.262 . S
O809 Tb767 2.320 . S
O809 C830 1.260 . S
O810 Tb767 2.552 . S
O810 C823 1.243 . S
O811 Tb767 2.413 . S
O811 C831 1.256 . S
C812 O801 1.283 . S
C812 O804 1.243 . S
C813 C815 1.382 . S
C813 C817 1.393 . S
C813 C820 1.500 . S
C814 C815 1.400 . S
C814 C816 1.384 . S
C815 C813 1.382 . S
C815 C814 1.400 . S
C815 H832 0.930 . S
C816 C814 1.384 . S
C816 C818 1.392 . S
C816 H833 0.931 . S
C817 C813 1.393 . S
C817 C818 1.401 . S
C817 H834 0.930 . S
C818 C816 1.392 . S
C818 C817 1.401 . S
C818 H835 0.930 . S
C819 O802 1.262 . S
C819 O803 1.260 . S
C820 Tb756 2.833 . S
C820 O800 1.251 . S
C820 O805 1.256 . S
C820 C813 1.500 . S
C821 H786 0.929 . S
C821 C799 1.444 . S
C821 C822 1.317 . S
C822 H784 0.930 . S
C822 C790 1.432 . S
C822 C821 1.317 . S
C823 O807 1.283 . S
C823 O810 1.243 . S
C824 C825 1.382 . S
C824 C828 1.393 . S
C824 C831 1.500 . S
C825 C824 1.382 . S
C825 C826 1.395 1_545 S
C825 H836 0.930 . S
C826 C825 1.395 1_565 S
C826 C827 1.386 . S
C827 C826 1.386 . S
C827 C829 1.398 . S
C827 H837 0.931 . S
C828 C824 1.393 . S
C828 C829 1.388 1_545 S
C828 H838 0.930 . S
C829 C827 1.398 . S
C829 C828 1.388 1_565 S
C829 H839 0.937 . S
C830 O808 1.262 . S
C830 O809 1.260 . S
C831 Tb767 2.833 . S
C831 O806 1.251 . S
C831 O811 1.256 . S
C831 C824 1.500 . S
H832 C815 0.930 . S
H833 C816 0.931 . S
H834 C817 0.930 . S
H835 C818 0.930 . S
H836 C825 0.930 . S
H837 C827 0.931 . S
H838 C828 0.930 . S
H839 C829 0.937 . S
Tb840 N871 2.660 . S
Tb840 N878 2.600 . S
Tb840 O884 2.546 . S
Tb840 O885 2.610 . S
Tb840 O887 2.320 . S
Tb840 O888 2.552 . S
Tb840 O889 2.413 . S
Tb840 O891 2.362 . S
Tb840 O892 2.421 . S
Tb840 C904 2.833 . S
C841 C844 1.432 . S
C841 C845 1.414 . S
C841 N848 1.359 . S
C842 C844 1.417 . S
C842 C846 1.432 . S
C842 C854 1.410 . S
C843 C845 1.444 . S
C843 C846 1.317 . S
C843 H866 0.929 . S
C844 C841 1.432 . S
C844 C842 1.417 . S
C844 N852 1.360 . S
C845 C841 1.414 . S
C845 C843 1.444 . S
C845 C850 1.385 . S
C846 C842 1.432 . S
C846 C843 1.317 . S
C846 H858 0.930 . S
C847 C849 1.392 . S
C847 C850 1.370 . S
C847 H859 0.931 . S
N848 C841 1.359 . S
N848 C849 1.327 . S
N848 Tb851 2.600 . S
C849 C847 1.392 . S
C849 N848 1.327 . S
C849 H856 0.930 . S
C850 C845 1.385 . S
C850 C847 1.370 . S
C850 H869 0.930 . S
Tb851 N848 2.600 . S
Tb851 N852 2.660 . S
Tb851 O885 2.362 . S
Tb851 O886 2.421 . S
Tb851 O890 2.546 . S
Tb851 O891 2.610 . S
Tb851 O893 2.320 . S
Tb851 O894 2.552 . S
Tb851 O895 2.413 . S
Tb851 C915 2.833 . S
N852 C844 1.360 . S
N852 Tb851 2.660 . S
N852 C853 1.305 . S
C853 N852 1.305 . S
C853 C855 1.407 . S
C853 H860 0.930 . S
C854 C842 1.410 . S
C854 C855 1.345 . S
C854 H862 0.930 . S
C855 C853 1.407 . S
C855 C854 1.345 . S
C855 H857 0.930 . S
H856 C849 0.930 . S
H857 C855 0.930 . S
H858 C846 0.930 . S
H859 C847 0.931 . S
H860 C853 0.930 . S
H861 C875 0.930 . S
H862 C854 0.930 . S
H863 C881 0.930 . S
H864 C872 0.930 . S
H865 C879 0.931 . S
H866 C843 0.929 . S
H867 C873 0.930 . S
H868 C906 0.930 . S
H869 C850 0.930 . S
H870 C905 0.929 . S
N871 Tb840 2.660 . S
N871 C872 1.305 . S
N871 C876 1.360 . S
C872 H864 0.930 . S
C872 N871 1.305 . S
C872 C875 1.407 . S
C873 H867 0.930 . S
C873 C874 1.410 . S
C873 C875 1.345 . S
C874 C873 1.410 . S
C874 C876 1.417 . S
C874 C906 1.432 . S
C875 H861 0.930 . S
C875 C872 1.407 . S
C875 C873 1.345 . S
C876 N871 1.360 . S
C876 C874 1.417 . S
C876 C880 1.432 . S
H877 C882 0.930 . S
N878 Tb840 2.600 . S
N878 C880 1.359 . S
N878 C881 1.327 . S
C879 H865 0.931 . S
C879 C881 1.392 . S
C879 C882 1.370 . S
C880 C876 1.432 . S
C880 N878 1.359 . S
C880 C883 1.414 . S
C881 H863 0.930 . S
C881 N878 1.327 . S
C881 C879 1.392 . S
C882 H877 0.930 . S
C882 C879 1.370 . S
C882 C883 1.385 . S
C883 C880 1.414 . S
C883 C882 1.385 . S
C883 C905 1.444 . S
O884 Tb840 2.546 . S
O884 C904 1.251 . S
O885 Tb840 2.610 . S
O885 Tb851 2.362 . S
O885 C896 1.283 . S
O886 Tb851 2.421 . S
O886 C903 1.262 . S
O887 Tb840 2.320 . S
O887 C903 1.260 . S
O888 Tb840 2.552 . S
O888 C896 1.243 . S
O889 Tb840 2.413 . S
O889 C904 1.256 . S
O890 Tb851 2.546 . S
O890 C915 1.251 . S
O891 Tb840 2.362 . S
O891 Tb851 2.610 . S
O891 C907 1.283 . S
O892 Tb840 2.421 . S
O892 C914 1.262 . S
O893 Tb851 2.320 . S
O893 C914 1.260 . S
O894 Tb851 2.552 . S
O894 C907 1.243 . S
O895 Tb851 2.413 . S
O895 C915 1.256 . S
C896 O885 1.283 . S
C896 O888 1.243 . S
C897 C899 1.382 . S
C897 C901 1.393 . S
C897 C904 1.500 . S
C898 C899 1.400 . S
C898 C900 1.384 . S
C899 C897 1.382 . S
C899 C898 1.400 . S
C899 H916 0.930 . S
C900 C898 1.384 . S
C900 C902 1.392 . S
C900 H917 0.931 . S
C901 C897 1.393 . S
C901 C902 1.401 . S
C901 H918 0.930 . S
C902 C900 1.392 . S
C902 C901 1.401 . S
C902 H919 0.930 . S
C903 O886 1.262 . S
C903 O887 1.260 . S
C904 Tb840 2.833 . S
C904 O884 1.251 . S
C904 O889 1.256 . S
C904 C897 1.500 . S
C905 H870 0.929 . S
C905 C883 1.444 . S
C905 C906 1.317 . S
C906 H868 0.930 . S
C906 C874 1.432 . S
C906 C905 1.317 . S
C907 O891 1.283 . S
C907 O894 1.243 . S
C908 C909 1.382 . S
C908 C912 1.393 . S
C908 C915 1.500 . S
C909 C908 1.382 . S
C909 C910 1.395 1_545 S
C909 H920 0.930 . S
C910 C909 1.395 1_565 S
C910 C911 1.386 . S
C911 C910 1.386 . S
C911 C913 1.398 . S
C911 H921 0.931 . S
C912 C908 1.393 . S
C912 C913 1.388 1_545 S
C912 H922 0.930 . S
C913 C911 1.398 . S
C913 C912 1.388 1_565 S
C913 H923 0.937 . S
C914 O892 1.262 . S
C914 O893 1.260 . S
C915 Tb851 2.833 . S
C915 O890 1.251 . S
C915 O895 1.256 . S
C915 C908 1.500 . S
H916 C899 0.930 . S
H917 C900 0.931 . S
H918 C901 0.930 . S
H919 C902 0.930 . S
H920 C909 0.930 . S
H921 C911 0.931 . S
H922 C912 0.930 . S
H923 C913 0.937 . S
Tb924 N955 2.660 . S
Tb924 N962 2.600 . S
Tb924 O968 2.546 . S
Tb924 O969 2.610 . S
Tb924 O971 2.320 . S
Tb924 O972 2.552 . S
Tb924 O973 2.413 . S
Tb924 O975 2.362 . S
Tb924 O976 2.421 . S
Tb924 C988 2.833 . S
C925 C928 1.432 . S
C925 C929 1.414 . S
C925 N932 1.359 . S
C926 C928 1.417 . S
C926 C930 1.432 . S
C926 C938 1.410 . S
C927 C929 1.444 . S
C927 C930 1.317 . S
C927 H950 0.929 . S
C928 C925 1.432 . S
C928 C926 1.417 . S
C928 N936 1.360 . S
C929 C925 1.414 . S
C929 C927 1.444 . S
C929 C934 1.385 . S
C930 C926 1.432 . S
C930 C927 1.317 . S
C930 H942 0.930 . S
C931 C933 1.392 . S
C931 C934 1.370 . S
C931 H943 0.931 . S
N932 C925 1.359 . S
N932 C933 1.327 . S
N932 Tb935 2.600 . S
C933 C931 1.392 . S
C933 N932 1.327 . S
C933 H940 0.930 . S
C934 C929 1.385 . S
C934 C931 1.370 . S
C934 H953 0.930 . S
Tb935 N932 2.600 . S
Tb935 N936 2.660 . S
Tb935 O969 2.362 . S
Tb935 O970 2.421 . S
Tb935 O974 2.546 . S
Tb935 O975 2.610 . S
Tb935 O977 2.320 . S
Tb935 O978 2.552 . S
Tb935 O979 2.413 . S
Tb935 C999 2.833 . S
N936 C928 1.360 . S
N936 Tb935 2.660 . S
N936 C937 1.305 . S
C937 N936 1.305 . S
C937 C939 1.407 . S
C937 H944 0.930 . S
C938 C926 1.410 . S
C938 C939 1.345 . S
C938 H946 0.930 . S
C939 C937 1.407 . S
C939 C938 1.345 . S
C939 H941 0.930 . S
H940 C933 0.930 . S
H941 C939 0.930 . S
H942 C930 0.930 . S
H943 C931 0.931 . S
H944 C937 0.930 . S
H945 C959 0.930 . S
H946 C938 0.930 . S
H947 C965 0.930 . S
H948 C956 0.930 . S
H949 C963 0.931 . S
H950 C927 0.929 . S
H951 C957 0.930 . S
H952 C990 0.930 . S
H953 C934 0.930 . S
H954 C989 0.929 . S
N955 Tb924 2.660 . S
N955 C956 1.305 . S
N955 C960 1.360 . S
C956 H948 0.930 . S
C956 N955 1.305 . S
C956 C959 1.407 . S
C957 H951 0.930 . S
C957 C958 1.410 . S
C957 C959 1.345 . S
C958 C957 1.410 . S
C958 C960 1.417 . S
C958 C990 1.432 . S
C959 H945 0.930 . S
C959 C956 1.407 . S
C959 C957 1.345 . S
C960 N955 1.360 . S
C960 C958 1.417 . S
C960 C964 1.432 . S
H961 C966 0.930 . S
N962 Tb924 2.600 . S
N962 C964 1.359 . S
N962 C965 1.327 . S
C963 H949 0.931 . S
C963 C965 1.392 . S
C963 C966 1.370 . S
C964 C960 1.432 . S
C964 N962 1.359 . S
C964 C967 1.414 . S
C965 H947 0.930 . S
C965 N962 1.327 . S
C965 C963 1.392 . S
C966 H961 0.930 . S
C966 C963 1.370 . S
C966 C967 1.385 . S
C967 C964 1.414 . S
C967 C966 1.385 . S
C967 C989 1.444 . S
O968 Tb924 2.546 . S
O968 C988 1.251 . S
O969 Tb924 2.610 . S
O969 Tb935 2.362 . S
O969 C980 1.283 . S
O970 Tb935 2.421 . S
O970 C987 1.262 . S
O971 Tb924 2.320 . S
O971 C987 1.260 . S
O972 Tb924 2.552 . S
O972 C980 1.243 . S
O973 Tb924 2.413 . S
O973 C988 1.256 . S
O974 Tb935 2.546 . S
O974 C999 1.251 . S
O975 Tb924 2.362 . S
O975 Tb935 2.610 . S
O975 C991 1.283 . S
O976 Tb924 2.421 . S
O976 C998 1.262 . S
O977 Tb935 2.320 . S
O977 C998 1.260 . S
O978 Tb935 2.552 . S
O978 C991 1.243 . S
O979 Tb935 2.413 . S
O979 C999 1.256 . S
C980 O969 1.283 . S
C980 O972 1.243 . S
C981 C983 1.382 . S
C981 C985 1.393 . S
C981 C988 1.500 . S
C982 C983 1.400 . S
C982 C984 1.384 . S
C983 C981 1.382 . S
C983 C982 1.400 . S
C983 H1000 0.930 . S
C984 C982 1.384 . S
C984 C986 1.392 . S
C984 H1001 0.931 . S
C985 C981 1.393 . S
C985 C986 1.401 . S
C985 H1002 0.930 . S
C986 C984 1.392 . S
C986 C985 1.401 . S
C986 H1003 0.930 . S
C987 O970 1.262 . S
C987 O971 1.260 . S
C988 Tb924 2.833 . S
C988 O968 1.251 . S
C988 O973 1.256 . S
C988 C981 1.500 . S
C989 H954 0.929 . S
C989 C967 1.444 . S
C989 C990 1.317 . S
C990 H952 0.930 . S
C990 C958 1.432 . S
C990 C989 1.317 . S
C991 O975 1.283 . S
C991 O978 1.243 . S
C992 C993 1.382 . S
C992 C996 1.393 . S
C992 C999 1.500 . S
C993 C992 1.382 . S
C993 C994 1.395 1_565 S
C993 H1004 0.930 . S
C994 C993 1.395 1_545 S
C994 C995 1.386 . S
C995 C994 1.386 . S
C995 C997 1.398 . S
C995 H1005 0.931 . S
C996 C992 1.393 . S
C996 C997 1.388 1_565 S
C996 H1006 0.930 . S
C997 C995 1.398 . S
C997 C996 1.388 1_545 S
C997 H1007 0.937 . S
C998 O976 1.262 . S
C998 O977 1.260 . S
C999 Tb935 2.833 . S
C999 O974 1.251 . S
C999 O979 1.256 . S
C999 C992 1.500 . S
H1000 C983 0.930 . S
H1001 C984 0.931 . S
H1002 C985 0.930 . S
H1003 C986 0.930 . S
H1004 C993 0.930 . S
H1005 C995 0.931 . S
H1006 C996 0.930 . S
H1007 C997 0.937 . S
Tb1008 N1039 2.660 . S
Tb1008 N1046 2.600 . S
Tb1008 O1052 2.546 . S
Tb1008 O1053 2.610 . S
Tb1008 O1055 2.320 . S
Tb1008 O1056 2.552 . S
Tb1008 O1057 2.413 . S
Tb1008 O1059 2.362 . S
Tb1008 O1060 2.421 . S
Tb1008 C1072 2.833 . S
C1009 C1012 1.432 . S
C1009 C1013 1.414 . S
C1009 N1016 1.359 . S
C1010 C1012 1.417 . S
C1010 C1014 1.432 . S
C1010 C1022 1.410 . S
C1011 C1013 1.444 . S
C1011 C1014 1.317 . S
C1011 H1034 0.929 . S
C1012 C1009 1.432 . S
C1012 C1010 1.417 . S
C1012 N1020 1.360 . S
C1013 C1009 1.414 . S
C1013 C1011 1.444 . S
C1013 C1018 1.385 . S
C1014 C1010 1.432 . S
C1014 C1011 1.317 . S
C1014 H1026 0.930 . S
C1015 C1017 1.392 . S
C1015 C1018 1.370 . S
C1015 H1027 0.931 . S
N1016 C1009 1.359 . S
N1016 C1017 1.327 . S
N1016 Tb1019 2.600 . S
C1017 C1015 1.392 . S
C1017 N1016 1.327 . S
C1017 H1024 0.930 . S
C1018 C1013 1.385 . S
C1018 C1015 1.370 . S
C1018 H1037 0.930 . S
Tb1019 N1016 2.600 . S
Tb1019 N1020 2.660 . S
Tb1019 O1053 2.362 . S
Tb1019 O1054 2.421 . S
Tb1019 O1058 2.546 . S
Tb1019 O1059 2.610 . S
Tb1019 O1061 2.320 . S
Tb1019 O1062 2.552 . S
Tb1019 O1063 2.413 . S
Tb1019 C1083 2.833 . S
N1020 C1012 1.360 . S
N1020 Tb1019 2.660 . S
N1020 C1021 1.305 . S
C1021 N1020 1.305 . S
C1021 C1023 1.407 . S
C1021 H1028 0.930 . S
C1022 C1010 1.410 . S
C1022 C1023 1.345 . S
C1022 H1030 0.930 . S
C1023 C1021 1.407 . S
C1023 C1022 1.345 . S
C1023 H1025 0.930 . S
H1024 C1017 0.930 . S
H1025 C1023 0.930 . S
H1026 C1014 0.930 . S
H1027 C1015 0.931 . S
H1028 C1021 0.930 . S
H1029 C1043 0.930 . S
H1030 C1022 0.930 . S
H1031 C1049 0.930 . S
H1032 C1040 0.930 . S
H1033 C1047 0.931 . S
H1034 C1011 0.929 . S
H1035 C1041 0.930 . S
H1036 C1074 0.930 . S
H1037 C1018 0.930 . S
H1038 C1073 0.929 . S
N1039 Tb1008 2.660 . S
N1039 C1040 1.305 . S
N1039 C1044 1.360 . S
C1040 H1032 0.930 . S
C1040 N1039 1.305 . S
C1040 C1043 1.407 . S
C1041 H1035 0.930 . S
C1041 C1042 1.410 . S
C1041 C1043 1.345 . S
C1042 C1041 1.410 . S
C1042 C1044 1.417 . S
C1042 C1074 1.432 . S
C1043 H1029 0.930 . S
C1043 C1040 1.407 . S
C1043 C1041 1.345 . S
C1044 N1039 1.360 . S
C1044 C1042 1.417 . S
C1044 C1048 1.432 . S
H1045 C1050 0.930 . S
N1046 Tb1008 2.600 . S
N1046 C1048 1.359 . S
N1046 C1049 1.327 . S
C1047 H1033 0.931 . S
C1047 C1049 1.392 . S
C1047 C1050 1.370 . S
C1048 C1044 1.432 . S
C1048 N1046 1.359 . S
C1048 C1051 1.414 . S
C1049 H1031 0.930 . S
C1049 N1046 1.327 . S
C1049 C1047 1.392 . S
C1050 H1045 0.930 . S
C1050 C1047 1.370 . S
C1050 C1051 1.385 . S
C1051 C1048 1.414 . S
C1051 C1050 1.385 . S
C1051 C1073 1.444 . S
O1052 Tb1008 2.546 . S
O1052 C1072 1.251 . S
O1053 Tb1008 2.610 . S
O1053 Tb1019 2.362 . S
O1053 C1064 1.283 . S
O1054 Tb1019 2.421 . S
O1054 C1071 1.262 . S
O1055 Tb1008 2.320 . S
O1055 C1071 1.260 . S
O1056 Tb1008 2.552 . S
O1056 C1064 1.243 . S
O1057 Tb1008 2.413 . S
O1057 C1072 1.256 . S
O1058 Tb1019 2.546 . S
O1058 C1083 1.251 . S
O1059 Tb1008 2.362 . S
O1059 Tb1019 2.610 . S
O1059 C1075 1.283 . S
O1060 Tb1008 2.421 . S
O1060 C1082 1.262 . S
O1061 Tb1019 2.320 . S
O1061 C1082 1.260 . S
O1062 Tb1019 2.552 . S
O1062 C1075 1.243 . S
O1063 Tb1019 2.413 . S
O1063 C1083 1.256 . S
C1064 O1053 1.283 . S
C1064 O1056 1.243 . S
C1065 C1067 1.382 . S
C1065 C1069 1.393 . S
C1065 C1072 1.500 . S
C1066 C1067 1.395 1_565 S
C1066 C1068 1.386 . S
C1067 C1065 1.382 . S
C1067 C1066 1.395 1_545 S
C1067 H1084 0.930 . S
C1068 C1066 1.386 . S
C1068 C1070 1.398 . S
C1068 H1085 0.931 . S
C1069 C1065 1.393 . S
C1069 C1070 1.388 1_545 S
C1069 H1086 0.930 . S
C1070 C1068 1.398 . S
C1070 C1069 1.388 1_565 S
C1070 H1087 0.937 . S
C1071 O1054 1.262 . S
C1071 O1055 1.260 . S
C1072 Tb1008 2.833 . S
C1072 O1052 1.251 . S
C1072 O1057 1.256 . S
C1072 C1065 1.500 . S
C1073 H1038 0.929 . S
C1073 C1051 1.444 . S
C1073 C1074 1.317 . S
C1074 H1036 0.930 . S
C1074 C1042 1.432 . S
C1074 C1073 1.317 . S
C1075 O1059 1.283 . S
C1075 O1062 1.243 . S
C1076 C1077 1.382 . S
C1076 C1080 1.393 . S
C1076 C1083 1.500 . S
C1077 C1076 1.382 . S
C1077 C1078 1.400 . S
C1077 H1088 0.930 . S
C1078 C1077 1.400 . S
C1078 C1079 1.384 . S
C1079 C1078 1.384 . S
C1079 C1081 1.392 . S
C1079 H1089 0.931 . S
C1080 C1076 1.393 . S
C1080 C1081 1.401 . S
C1080 H1090 0.930 . S
C1081 C1079 1.392 . S
C1081 C1080 1.401 . S
C1081 H1091 0.930 . S
C1082 O1060 1.262 . S
C1082 O1061 1.260 . S
C1083 Tb1019 2.833 . S
C1083 O1058 1.251 . S
C1083 O1063 1.256 . S
C1083 C1076 1.500 . S
H1084 C1067 0.930 . S
H1085 C1068 0.931 . S
H1086 C1069 0.930 . S
H1087 C1070 0.937 . S
H1088 C1077 0.930 . S
H1089 C1079 0.931 . S
H1090 C1080 0.930 . S
H1091 C1081 0.930 . S
Tb1092 N1123 2.660 . S
Tb1092 N1130 2.600 . S
Tb1092 O1136 2.546 . S
Tb1092 O1137 2.610 . S
Tb1092 O1139 2.320 . S
Tb1092 O1140 2.552 . S
Tb1092 O1141 2.413 . S
Tb1092 O1143 2.362 . S
Tb1092 O1144 2.421 . S
Tb1092 C1156 2.833 . S
C1093 C1096 1.432 . S
C1093 C1097 1.414 . S
C1093 N1100 1.359 . S
C1094 C1096 1.417 . S
C1094 C1098 1.432 . S
C1094 C1106 1.410 . S
C1095 C1097 1.444 . S
C1095 C1098 1.317 . S
C1095 H1118 0.929 . S
C1096 C1093 1.432 . S
C1096 C1094 1.417 . S
C1096 N1104 1.360 . S
C1097 C1093 1.414 . S
C1097 C1095 1.444 . S
C1097 C1102 1.385 . S
C1098 C1094 1.432 . S
C1098 C1095 1.317 . S
C1098 H1110 0.930 . S
C1099 C1101 1.392 . S
C1099 C1102 1.370 . S
C1099 H1111 0.931 . S
N1100 C1093 1.359 . S
N1100 C1101 1.327 . S
N1100 Tb1103 2.600 . S
C1101 C1099 1.392 . S
C1101 N1100 1.327 . S
C1101 H1108 0.930 . S
C1102 C1097 1.385 . S
C1102 C1099 1.370 . S
C1102 H1121 0.930 . S
Tb1103 N1100 2.600 . S
Tb1103 N1104 2.660 . S
Tb1103 O1137 2.362 . S
Tb1103 O1138 2.421 . S
Tb1103 O1142 2.546 . S
Tb1103 O1143 2.610 . S
Tb1103 O1145 2.320 . S
Tb1103 O1146 2.552 . S
Tb1103 O1147 2.413 . S
Tb1103 C1167 2.833 . S
N1104 C1096 1.360 . S
N1104 Tb1103 2.660 . S
N1104 C1105 1.305 . S
C1105 N1104 1.305 . S
C1105 C1107 1.407 . S
C1105 H1112 0.930 . S
C1106 C1094 1.410 . S
C1106 C1107 1.345 . S
C1106 H1114 0.930 . S
C1107 C1105 1.407 . S
C1107 C1106 1.345 . S
C1107 H1109 0.930 . S
H1108 C1101 0.930 . S
H1109 C1107 0.930 . S
H1110 C1098 0.930 . S
H1111 C1099 0.931 . S
H1112 C1105 0.930 . S
H1113 C1127 0.930 . S
H1114 C1106 0.930 . S
H1115 C1133 0.930 . S
H1116 C1124 0.930 . S
H1117 C1131 0.931 . S
H1118 C1095 0.929 . S
H1119 C1125 0.930 . S
H1120 C1158 0.930 . S
H1121 C1102 0.930 . S
H1122 C1157 0.929 . S
N1123 Tb1092 2.660 . S
N1123 C1124 1.305 . S
N1123 C1128 1.360 . S
C1124 H1116 0.930 . S
C1124 N1123 1.305 . S
C1124 C1127 1.407 . S
C1125 H1119 0.930 . S
C1125 C1126 1.410 . S
C1125 C1127 1.345 . S
C1126 C1125 1.410 . S
C1126 C1128 1.417 . S
C1126 C1158 1.432 . S
C1127 H1113 0.930 . S
C1127 C1124 1.407 . S
C1127 C1125 1.345 . S
C1128 N1123 1.360 . S
C1128 C1126 1.417 . S
C1128 C1132 1.432 . S
H1129 C1134 0.930 . S
N1130 Tb1092 2.600 . S
N1130 C1132 1.359 . S
N1130 C1133 1.327 . S
C1131 H1117 0.931 . S
C1131 C1133 1.392 . S
C1131 C1134 1.370 . S
C1132 C1128 1.432 . S
C1132 N1130 1.359 . S
C1132 C1135 1.414 . S
C1133 H1115 0.930 . S
C1133 N1130 1.327 . S
C1133 C1131 1.392 . S
C1134 H1129 0.930 . S
C1134 C1131 1.370 . S
C1134 C1135 1.385 . S
C1135 C1132 1.414 . S
C1135 C1134 1.385 . S
C1135 C1157 1.444 . S
O1136 Tb1092 2.546 . S
O1136 C1156 1.251 . S
O1137 Tb1092 2.610 . S
O1137 Tb1103 2.362 . S
O1137 C1148 1.283 . S
O1138 Tb1103 2.421 . S
O1138 C1155 1.262 . S
O1139 Tb1092 2.320 . S
O1139 C1155 1.260 . S
O1140 Tb1092 2.552 . S
O1140 C1148 1.243 . S
O1141 Tb1092 2.413 . S
O1141 C1156 1.256 . S
O1142 Tb1103 2.546 . S
O1142 C1167 1.251 . S
O1143 Tb1092 2.362 . S
O1143 Tb1103 2.610 . S
O1143 C1159 1.283 . S
O1144 Tb1092 2.421 . S
O1144 C1166 1.262 . S
O1145 Tb1103 2.320 . S
O1145 C1166 1.260 . S
O1146 Tb1103 2.552 . S
O1146 C1159 1.243 . S
O1147 Tb1103 2.413 . S
O1147 C1167 1.256 . S
C1148 O1137 1.283 . S
C1148 O1140 1.243 . S
C1149 C1151 1.382 . S
C1149 C1153 1.393 . S
C1149 C1156 1.500 . S
C1150 C1151 1.395 1_545 S
C1150 C1152 1.386 . S
C1151 C1149 1.382 . S
C1151 C1150 1.395 1_565 S
C1151 H1168 0.930 . S
C1152 C1150 1.386 . S
C1152 C1154 1.398 . S
C1152 H1169 0.931 . S
C1153 C1149 1.393 . S
C1153 C1154 1.388 1_565 S
C1153 H1170 0.930 . S
C1154 C1152 1.398 . S
C1154 C1153 1.388 1_545 S
C1154 H1171 0.937 . S
C1155 O1138 1.262 . S
C1155 O1139 1.260 . S
C1156 Tb1092 2.833 . S
C1156 O1136 1.251 . S
C1156 O1141 1.256 . S
C1156 C1149 1.500 . S
C1157 H1122 0.929 . S
C1157 C1135 1.444 . S
C1157 C1158 1.317 . S
C1158 H1120 0.930 . S
C1158 C1126 1.432 . S
C1158 C1157 1.317 . S
C1159 O1143 1.283 . S
C1159 O1146 1.243 . S
C1160 C1161 1.382 . S
C1160 C1164 1.393 . S
C1160 C1167 1.500 . S
C1161 C1160 1.382 . S
C1161 C1162 1.400 . S
C1161 H1172 0.930 . S
C1162 C1161 1.400 . S
C1162 C1163 1.384 . S
C1163 C1162 1.384 . S
C1163 C1165 1.392 . S
C1163 H1173 0.931 . S
C1164 C1160 1.393 . S
C1164 C1165 1.401 . S
C1164 H1174 0.930 . S
C1165 C1163 1.392 . S
C1165 C1164 1.401 . S
C1165 H1175 0.930 . S
C1166 O1144 1.262 . S
C1166 O1145 1.260 . S
C1167 Tb1103 2.833 . S
C1167 O1142 1.251 . S
C1167 O1147 1.256 . S
C1167 C1160 1.500 . S
H1168 C1151 0.930 . S
H1169 C1152 0.931 . S
H1170 C1153 0.930 . S
H1171 C1154 0.937 . S
H1172 C1161 0.930 . S
H1173 C1163 0.931 . S
H1174 C1164 0.930 . S
H1175 C1165 0.930 . S
Tb1176 N1207 2.660 . S
Tb1176 N1214 2.600 . S
Tb1176 O1220 2.546 . S
Tb1176 O1221 2.610 . S
Tb1176 O1223 2.320 . S
Tb1176 O1224 2.552 . S
Tb1176 O1225 2.413 . S
Tb1176 O1227 2.362 . S
Tb1176 O1228 2.421 . S
Tb1176 C1240 2.833 . S
C1177 C1180 1.432 . S
C1177 C1181 1.414 . S
C1177 N1184 1.359 . S
C1178 C1180 1.417 . S
C1178 C1182 1.432 . S
C1178 C1190 1.410 . S
C1179 C1181 1.444 . S
C1179 C1182 1.317 . S
C1179 H1202 0.929 . S
C1180 C1177 1.432 . S
C1180 C1178 1.417 . S
C1180 N1188 1.360 . S
C1181 C1177 1.414 . S
C1181 C1179 1.444 . S
C1181 C1186 1.385 . S
C1182 C1178 1.432 . S
C1182 C1179 1.317 . S
C1182 H1194 0.930 . S
C1183 C1185 1.392 . S
C1183 C1186 1.370 . S
C1183 H1195 0.931 . S
N1184 C1177 1.359 . S
N1184 C1185 1.327 . S
N1184 Tb1187 2.600 . S
C1185 C1183 1.392 . S
C1185 N1184 1.327 . S
C1185 H1192 0.930 . S
C1186 C1181 1.385 . S
C1186 C1183 1.370 . S
C1186 H1205 0.930 . S
Tb1187 N1184 2.600 . S
Tb1187 N1188 2.660 . S
Tb1187 O1221 2.362 . S
Tb1187 O1222 2.421 . S
Tb1187 O1226 2.546 . S
Tb1187 O1227 2.610 . S
Tb1187 O1229 2.320 . S
Tb1187 O1230 2.552 . S
Tb1187 O1231 2.413 . S
Tb1187 C1251 2.833 . S
N1188 C1180 1.360 . S
N1188 Tb1187 2.660 . S
N1188 C1189 1.305 . S
C1189 N1188 1.305 . S
C1189 C1191 1.407 . S
C1189 H1196 0.930 . S
C1190 C1178 1.410 . S
C1190 C1191 1.345 . S
C1190 H1198 0.930 . S
C1191 C1189 1.407 . S
C1191 C1190 1.345 . S
C1191 H1193 0.930 . S
H1192 C1185 0.930 . S
H1193 C1191 0.930 . S
H1194 C1182 0.930 . S
H1195 C1183 0.931 . S
H1196 C1189 0.930 . S
H1197 C1211 0.930 . S
H1198 C1190 0.930 . S
H1199 C1217 0.930 . S
H1200 C1208 0.930 . S
H1201 C1215 0.931 . S
H1202 C1179 0.929 . S
H1203 C1209 0.930 . S
H1204 C1242 0.930 . S
H1205 C1186 0.930 . S
H1206 C1241 0.929 . S
N1207 Tb1176 2.660 . S
N1207 C1208 1.305 . S
N1207 C1212 1.360 . S
C1208 H1200 0.930 . S
C1208 N1207 1.305 . S
C1208 C1211 1.407 . S
C1209 H1203 0.930 . S
C1209 C1210 1.410 . S
C1209 C1211 1.345 . S
C1210 C1209 1.410 . S
C1210 C1212 1.417 . S
C1210 C1242 1.432 . S
C1211 H1197 0.930 . S
C1211 C1208 1.407 . S
C1211 C1209 1.345 . S
C1212 N1207 1.360 . S
C1212 C1210 1.417 . S
C1212 C1216 1.432 . S
H1213 C1218 0.930 . S
N1214 Tb1176 2.600 . S
N1214 C1216 1.359 . S
N1214 C1217 1.327 . S
C1215 H1201 0.931 . S
C1215 C1217 1.392 . S
C1215 C1218 1.370 . S
C1216 C1212 1.432 . S
C1216 N1214 1.359 . S
C1216 C1219 1.414 . S
C1217 H1199 0.930 . S
C1217 N1214 1.327 . S
C1217 C1215 1.392 . S
C1218 H1213 0.930 . S
C1218 C1215 1.370 . S
C1218 C1219 1.385 . S
C1219 C1216 1.414 . S
C1219 C1218 1.385 . S
C1219 C1241 1.444 . S
O1220 Tb1176 2.546 . S
O1220 C1240 1.251 . S
O1221 Tb1176 2.610 . S
O1221 Tb1187 2.362 . S
O1221 C1232 1.283 . S
O1222 Tb1187 2.421 . S
O1222 C1239 1.262 . S
O1223 Tb1176 2.320 . S
O1223 C1239 1.260 . S
O1224 Tb1176 2.552 . S
O1224 C1232 1.243 . S
O1225 Tb1176 2.413 . S
O1225 C1240 1.256 . S
O1226 Tb1187 2.546 . S
O1226 C1251 1.251 . S
O1227 Tb1176 2.362 . S
O1227 Tb1187 2.610 . S
O1227 C1243 1.283 . S
O1228 Tb1176 2.421 . S
O1228 C1250 1.262 . S
O1229 Tb1187 2.320 . S
O1229 C1250 1.260 . S
O1230 Tb1187 2.552 . S
O1230 C1243 1.243 . S
O1231 Tb1187 2.413 . S
O1231 C1251 1.256 . S
C1232 O1221 1.283 . S
C1232 O1224 1.243 . S
C1233 C1235 1.382 . S
C1233 C1237 1.393 . S
C1233 C1240 1.500 . S
C1234 C1235 1.395 1_545 S
C1234 C1236 1.386 . S
C1235 C1233 1.382 . S
C1235 C1234 1.395 1_565 S
C1235 H1252 0.930 . S
C1236 C1234 1.386 . S
C1236 C1238 1.398 . S
C1236 H1253 0.931 . S
C1237 C1233 1.393 . S
C1237 C1238 1.388 1_565 S
C1237 H1254 0.930 . S
C1238 C1236 1.398 . S
C1238 C1237 1.388 1_545 S
C1238 H1255 0.937 . S
C1239 O1222 1.262 . S
C1239 O1223 1.260 . S
C1240 Tb1176 2.833 . S
C1240 O1220 1.251 . S
C1240 O1225 1.256 . S
C1240 C1233 1.500 . S
C1241 H1206 0.929 . S
C1241 C1219 1.444 . S
C1241 C1242 1.317 . S
C1242 H1204 0.930 . S
C1242 C1210 1.432 . S
C1242 C1241 1.317 . S
C1243 O1227 1.283 . S
C1243 O1230 1.243 . S
C1244 C1245 1.382 . S
C1244 C1248 1.393 . S
C1244 C1251 1.500 . S
C1245 C1244 1.382 . S
C1245 C1246 1.400 . S
C1245 H1256 0.930 . S
C1246 C1245 1.400 . S
C1246 C1247 1.384 . S
C1247 C1246 1.384 . S
C1247 C1249 1.392 . S
C1247 H1257 0.931 . S
C1248 C1244 1.393 . S
C1248 C1249 1.401 . S
C1248 H1258 0.930 . S
C1249 C1247 1.392 . S
C1249 C1248 1.401 . S
C1249 H1259 0.930 . S
C1250 O1228 1.262 . S
C1250 O1229 1.260 . S
C1251 Tb1187 2.833 . S
C1251 O1226 1.251 . S
C1251 O1231 1.256 . S
C1251 C1244 1.500 . S
H1252 C1235 0.930 . S
H1253 C1236 0.931 . S
H1254 C1237 0.930 . S
H1255 C1238 0.937 . S
H1256 C1245 0.930 . S
H1257 C1247 0.931 . S
H1258 C1248 0.930 . S
H1259 C1249 0.930 . S
Tb1260 N1291 2.660 . S
Tb1260 N1298 2.600 . S
Tb1260 O1304 2.546 . S
Tb1260 O1305 2.610 . S
Tb1260 O1307 2.320 . S
Tb1260 O1308 2.552 . S
Tb1260 O1309 2.413 . S
Tb1260 O1311 2.362 . S
Tb1260 O1312 2.421 . S
Tb1260 C1324 2.833 . S
C1261 C1264 1.432 . S
C1261 C1265 1.414 . S
C1261 N1268 1.359 . S
C1262 C1264 1.417 . S
C1262 C1266 1.432 . S
C1262 C1274 1.410 . S
C1263 C1265 1.444 . S
C1263 C1266 1.317 . S
C1263 H1286 0.929 . S
C1264 C1261 1.432 . S
C1264 C1262 1.417 . S
C1264 N1272 1.360 . S
C1265 C1261 1.414 . S
C1265 C1263 1.444 . S
C1265 C1270 1.385 . S
C1266 C1262 1.432 . S
C1266 C1263 1.317 . S
C1266 H1278 0.930 . S
C1267 C1269 1.392 . S
C1267 C1270 1.370 . S
C1267 H1279 0.931 . S
N1268 C1261 1.359 . S
N1268 C1269 1.327 . S
N1268 Tb1271 2.600 . S
C1269 C1267 1.392 . S
C1269 N1268 1.327 . S
C1269 H1276 0.930 . S
C1270 C1265 1.385 . S
C1270 C1267 1.370 . S
C1270 H1289 0.930 . S
Tb1271 N1268 2.600 . S
Tb1271 N1272 2.660 . S
Tb1271 O1305 2.362 . S
Tb1271 O1306 2.421 . S
Tb1271 O1310 2.546 . S
Tb1271 O1311 2.610 . S
Tb1271 O1313 2.320 . S
Tb1271 O1314 2.552 . S
Tb1271 O1315 2.413 . S
Tb1271 C1335 2.833 . S
N1272 C1264 1.360 . S
N1272 Tb1271 2.660 . S
N1272 C1273 1.305 . S
C1273 N1272 1.305 . S
C1273 C1275 1.407 . S
C1273 H1280 0.930 . S
C1274 C1262 1.410 . S
C1274 C1275 1.345 . S
C1274 H1282 0.930 . S
C1275 C1273 1.407 . S
C1275 C1274 1.345 . S
C1275 H1277 0.930 . S
H1276 C1269 0.930 . S
H1277 C1275 0.930 . S
H1278 C1266 0.930 . S
H1279 C1267 0.931 . S
H1280 C1273 0.930 . S
H1281 C1295 0.930 . S
H1282 C1274 0.930 . S
H1283 C1301 0.930 . S
H1284 C1292 0.930 . S
H1285 C1299 0.931 . S
H1286 C1263 0.929 . S
H1287 C1293 0.930 . S
H1288 C1326 0.930 . S
H1289 C1270 0.930 . S
H1290 C1325 0.929 . S
N1291 Tb1260 2.660 . S
N1291 C1292 1.305 . S
N1291 C1296 1.360 . S
C1292 H1284 0.930 . S
C1292 N1291 1.305 . S
C1292 C1295 1.407 . S
C1293 H1287 0.930 . S
C1293 C1294 1.410 . S
C1293 C1295 1.345 . S
C1294 C1293 1.410 . S
C1294 C1296 1.417 . S
C1294 C1326 1.432 . S
C1295 H1281 0.930 . S
C1295 C1292 1.407 . S
C1295 C1293 1.345 . S
C1296 N1291 1.360 . S
C1296 C1294 1.417 . S
C1296 C1300 1.432 . S
H1297 C1302 0.930 . S
N1298 Tb1260 2.600 . S
N1298 C1300 1.359 . S
N1298 C1301 1.327 . S
C1299 H1285 0.931 . S
C1299 C1301 1.392 . S
C1299 C1302 1.370 . S
C1300 C1296 1.432 . S
C1300 N1298 1.359 . S
C1300 C1303 1.414 . S
C1301 H1283 0.930 . S
C1301 N1298 1.327 . S
C1301 C1299 1.392 . S
C1302 H1297 0.930 . S
C1302 C1299 1.370 . S
C1302 C1303 1.385 . S
C1303 C1300 1.414 . S
C1303 C1302 1.385 . S
C1303 C1325 1.444 . S
O1304 Tb1260 2.546 . S
O1304 C1324 1.251 . S
O1305 Tb1260 2.610 . S
O1305 Tb1271 2.362 . S
O1305 C1316 1.283 . S
O1306 Tb1271 2.421 . S
O1306 C1323 1.262 . S
O1307 Tb1260 2.320 . S
O1307 C1323 1.260 . S
O1308 Tb1260 2.552 . S
O1308 C1316 1.243 . S
O1309 Tb1260 2.413 . S
O1309 C1324 1.256 . S
O1310 Tb1271 2.546 . S
O1310 C1335 1.251 . S
O1311 Tb1260 2.362 . S
O1311 Tb1271 2.610 . S
O1311 C1327 1.283 . S
O1312 Tb1260 2.421 . S
O1312 C1334 1.262 . S
O1313 Tb1271 2.320 . S
O1313 C1334 1.260 . S
O1314 Tb1271 2.552 . S
O1314 C1327 1.243 . S
O1315 Tb1271 2.413 . S
O1315 C1335 1.256 . S
C1316 O1305 1.283 . S
C1316 O1308 1.243 . S
C1317 C1319 1.382 . S
C1317 C1321 1.393 . S
C1317 C1324 1.500 . S
C1318 C1319 1.395 1_565 S
C1318 C1320 1.386 . S
C1319 C1317 1.382 . S
C1319 C1318 1.395 1_545 S
C1319 H1336 0.930 . S
C1320 C1318 1.386 . S
C1320 C1322 1.398 . S
C1320 H1337 0.931 . S
C1321 C1317 1.393 . S
C1321 C1322 1.388 1_545 S
C1321 H1338 0.930 . S
C1322 C1320 1.398 . S
C1322 C1321 1.388 1_565 S
C1322 H1339 0.937 . S
C1323 O1306 1.262 . S
C1323 O1307 1.260 . S
C1324 Tb1260 2.833 . S
C1324 O1304 1.251 . S
C1324 O1309 1.256 . S
C1324 C1317 1.500 . S
C1325 H1290 0.929 . S
C1325 C1303 1.444 . S
C1325 C1326 1.317 . S
C1326 H1288 0.930 . S
C1326 C1294 1.432 . S
C1326 C1325 1.317 . S
C1327 O1311 1.283 . S
C1327 O1314 1.243 . S
C1328 C1329 1.382 . S
C1328 C1332 1.393 . S
C1328 C1335 1.500 . S
C1329 C1328 1.382 . S
C1329 C1330 1.400 . S
C1329 H1340 0.930 . S
C1330 C1329 1.400 . S
C1330 C1331 1.384 . S
C1331 C1330 1.384 . S
C1331 C1333 1.392 . S
C1331 H1341 0.931 . S
C1332 C1328 1.393 . S
C1332 C1333 1.401 . S
C1332 H1342 0.930 . S
C1333 C1331 1.392 . S
C1333 C1332 1.401 . S
C1333 H1343 0.930 . S
C1334 O1312 1.262 . S
C1334 O1313 1.260 . S
C1335 Tb1271 2.833 . S
C1335 O1310 1.251 . S
C1335 O1315 1.256 . S
C1335 C1328 1.500 . S
H1336 C1319 0.930 . S
H1337 C1320 0.931 . S
H1338 C1321 0.930 . S
H1339 C1322 0.937 . S
H1340 C1329 0.930 . S
H1341 C1331 0.931 . S
H1342 C1332 0.930 . S
H1343 C1333 0.930 . S
C1344 C1345 1.369 . S
C1344 C1346 1.419 . S
C1344 H1348 0.930 . S
C1345 C1344 1.369 . S
C1345 C1354 1.429 . S
C1346 C1344 1.419 . S
C1346 C1347 1.363 . S
C1346 H1349 0.929 . S
C1347 C1346 1.363 . S
C1347 C1353 1.428 . S
H1348 C1344 0.930 . S
H1349 C1346 0.929 . S
S1350 N1351 1.613 . S
S1350 N1352 1.610 . S
N1351 S1350 1.613 . S
N1351 C1354 1.350 . S
N1352 S1350 1.610 . S
N1352 C1353 1.351 . S
C1353 C1347 1.428 . S
C1353 N1352 1.351 . S
C1353 C1354 1.434 . S
C1354 C1345 1.429 . S
C1354 N1351 1.350 . S
C1354 C1353 1.434 . S
C1355 C1356 1.369 . S
C1355 C1357 1.419 . S
C1355 H1359 0.930 . S
C1356 C1355 1.369 . S
C1356 C1365 1.429 . S
C1357 C1355 1.419 . S
C1357 C1358 1.363 . S
C1357 H1360 0.929 . S
C1358 C1357 1.363 . S
C1358 C1364 1.428 . S
H1359 C1355 0.930 . S
H1360 C1357 0.929 . S
S1361 N1362 1.613 . S
S1361 N1363 1.610 . S
N1362 S1361 1.613 . S
N1362 C1365 1.350 . S
N1363 S1361 1.610 . S
N1363 C1364 1.351 . S
C1364 C1358 1.428 . S
C1364 N1363 1.351 . S
C1364 C1365 1.434 . S
C1365 C1356 1.429 . S
C1365 N1362 1.350 . S
C1365 C1364 1.434 . S
C1366 C1367 1.369 . S
C1366 C1368 1.419 . S
C1366 H1370 0.930 . S
C1367 C1366 1.369 . S
C1367 C1376 1.429 . S
C1368 C1366 1.419 . S
C1368 C1369 1.363 . S
C1368 H1371 0.929 . S
C1369 C1368 1.363 . S
C1369 C1375 1.428 . S
H1370 C1366 0.930 . S
H1371 C1368 0.929 . S
S1372 N1373 1.613 . S
S1372 N1374 1.610 . S
N1373 S1372 1.613 . S
N1373 C1376 1.350 . S
N1374 S1372 1.610 . S
N1374 C1375 1.351 . S
C1375 C1369 1.428 . S
C1375 N1374 1.351 . S
C1375 C1376 1.434 . S
C1376 C1367 1.429 . S
C1376 N1373 1.350 . S
C1376 C1375 1.434 . S
C1377 C1378 1.369 . S
C1377 C1379 1.419 . S
C1377 H1381 0.930 . S
C1378 C1377 1.369 . S
C1378 C1387 1.429 . S
C1379 C1377 1.419 . S
C1379 C1380 1.363 . S
C1379 H1382 0.929 . S
C1380 C1379 1.363 . S
C1380 C1386 1.428 . S
H1381 C1377 0.930 . S
H1382 C1379 0.929 . S
S1383 N1384 1.613 . S
S1383 N1385 1.610 . S
N1384 S1383 1.613 . S
N1384 C1387 1.350 . S
N1385 S1383 1.610 . S
N1385 C1386 1.351 . S
C1386 C1380 1.428 . S
C1386 N1385 1.351 . S
C1386 C1387 1.434 . S
C1387 C1378 1.429 . S
C1387 N1384 1.350 . S
C1387 C1386 1.434 . S
C1388 C1389 1.369 . S
C1388 C1390 1.419 . S
C1388 H1392 0.930 . S
C1389 C1388 1.369 . S
C1389 C1398 1.429 . S
C1390 C1388 1.419 . S
C1390 C1391 1.363 . S
C1390 H1393 0.929 . S
C1391 C1390 1.363 . S
C1391 C1397 1.428 . S
H1392 C1388 0.930 . S
H1393 C1390 0.929 . S
S1394 N1395 1.613 . S
S1394 N1396 1.610 . S
N1395 S1394 1.613 . S
N1395 C1398 1.350 . S
N1396 S1394 1.610 . S
N1396 C1397 1.351 . S
C1397 C1391 1.428 . S
C1397 N1396 1.351 . S
C1397 C1398 1.434 . S
C1398 C1389 1.429 . S
C1398 N1395 1.350 . S
C1398 C1397 1.434 . S
C1399 C1400 1.369 . S
C1399 C1401 1.419 . S
C1399 H1403 0.930 . S
C1400 C1399 1.369 . S
C1400 C1409 1.429 . S
C1401 C1399 1.419 . S
C1401 C1402 1.363 . S
C1401 H1404 0.929 . S
C1402 C1401 1.363 . S
C1402 C1408 1.428 . S
H1403 C1399 0.930 . S
H1404 C1401 0.929 . S
S1405 N1406 1.613 . S
S1405 N1407 1.610 . S
N1406 S1405 1.613 . S
N1406 C1409 1.350 . S
N1407 S1405 1.610 . S
N1407 C1408 1.351 . S
C1408 C1402 1.428 . S
C1408 N1407 1.351 . S
C1408 C1409 1.434 . S
C1409 C1400 1.429 . S
C1409 N1406 1.350 . S
C1409 C1408 1.434 . S
C1410 C1411 1.369 . S
C1410 C1412 1.419 . S
C1410 H1414 0.930 . S
C1411 C1410 1.369 . S
C1411 C1420 1.429 . S
C1412 C1410 1.419 . S
C1412 C1413 1.363 . S
C1412 H1415 0.929 . S
C1413 C1412 1.363 . S
C1413 C1419 1.428 . S
H1414 C1410 0.930 . S
H1415 C1412 0.929 . S
S1416 N1417 1.613 . S
S1416 N1418 1.610 . S
N1417 S1416 1.613 . S
N1417 C1420 1.350 . S
N1418 S1416 1.610 . S
N1418 C1419 1.351 . S
C1419 C1413 1.428 . S
C1419 N1418 1.351 . S
C1419 C1420 1.434 . S
C1420 C1411 1.429 . S
C1420 N1417 1.350 . S
C1420 C1419 1.434 . S
C1421 C1422 1.369 . S
C1421 C1423 1.419 . S
C1421 H1425 0.930 . S
C1422 C1421 1.369 . S
C1422 C1431 1.429 . S
C1423 C1421 1.419 . S
C1423 C1424 1.363 . S
C1423 H1426 0.929 . S
C1424 C1423 1.363 . S
C1424 C1430 1.428 . S
H1425 C1421 0.930 . S
H1426 C1423 0.929 . S
S1427 N1428 1.613 . S
S1427 N1429 1.610 . S
N1428 S1427 1.613 . S
N1428 C1431 1.350 . S
N1429 S1427 1.610 . S
N1429 C1430 1.351 . S
C1430 C1424 1.428 . S
C1430 N1429 1.351 . S
C1430 C1431 1.434 . S
C1431 C1422 1.429 . S
C1431 N1428 1.350 . S
C1431 C1430 1.434 . S
C1432 C1433 1.369 1_545 S
C1432 C1434 1.419 . S
C1432 H1436 0.930 . S
C1433 C1432 1.369 1_565 S
C1433 C1442 1.429 . S
C1434 C1432 1.419 . S
C1434 C1435 1.363 . S
C1434 H1437 0.929 . S
C1435 C1434 1.363 . S
C1435 C1441 1.428 1_545 S
H1436 C1432 0.930 . S
H1437 C1434 0.929 . S
S1438 N1439 1.613 . S
S1438 N1440 1.610 . S
N1439 S1438 1.613 . S
N1439 C1442 1.350 . S
N1440 S1438 1.610 . S
N1440 C1441 1.351 . S
C1441 C1435 1.428 1_565 S
C1441 N1440 1.351 . S
C1441 C1442 1.434 . S
C1442 C1433 1.429 . S
C1442 N1439 1.350 . S
C1442 C1441 1.434 . S
C1443 C1444 1.369 1_565 S
C1443 C1445 1.419 . S
C1443 H1447 0.930 . S
C1444 C1443 1.369 1_545 S
C1444 C1453 1.429 . S
C1445 C1443 1.419 . S
C1445 C1446 1.363 . S
C1445 H1448 0.929 . S
C1446 C1445 1.363 . S
C1446 C1452 1.428 1_565 S
H1447 C1443 0.930 . S
H1448 C1445 0.929 . S
S1449 N1450 1.613 . S
S1449 N1451 1.610 . S
N1450 S1449 1.613 . S
N1450 C1453 1.350 . S
N1451 S1449 1.610 . S
N1451 C1452 1.351 . S
C1452 C1446 1.428 1_545 S
C1452 N1451 1.351 . S
C1452 C1453 1.434 . S
C1453 C1444 1.429 . S
C1453 N1450 1.350 . S
C1453 C1452 1.434 . S
C1454 C1455 1.369 . S
C1454 C1456 1.419 1_545 S
C1454 H1458 0.930 . S
C1455 C1454 1.369 . S
C1455 C1464 1.429 . S
C1456 C1454 1.419 1_565 S
C1456 C1457 1.363 . S
C1456 H1459 0.929 . S
C1457 C1456 1.363 . S
C1457 C1463 1.428 . S
H1458 C1454 0.930 . S
H1459 C1456 0.929 . S
S1460 N1461 1.613 1_565 S
S1460 N1462 1.610 . S
N1461 S1460 1.613 1_545 S
N1461 C1464 1.350 . S
N1462 S1460 1.610 . S
N1462 C1463 1.351 . S
C1463 C1457 1.428 . S
C1463 N1462 1.351 . S
C1463 C1464 1.434 1_565 S
C1464 C1455 1.429 . S
C1464 N1461 1.350 . S
C1464 C1463 1.434 1_545 S
C1465 C1466 1.369 1_565 S
C1465 C1467 1.419 . S
C1465 H1469 0.930 . S
C1466 C1465 1.369 1_545 S
C1466 C1475 1.429 . S
C1467 C1465 1.419 . S
C1467 C1468 1.363 . S
C1467 H1470 0.929 . S
C1468 C1467 1.363 . S
C1468 C1474 1.428 1_565 S
H1469 C1465 0.930 . S
H1470 C1467 0.929 . S
S1471 N1472 1.613 . S
S1471 N1473 1.610 . S
N1472 S1471 1.613 . S
N1472 C1475 1.350 . S
N1473 S1471 1.610 . S
N1473 C1474 1.351 . S
C1474 C1468 1.428 1_545 S
C1474 N1473 1.351 . S
C1474 C1475 1.434 . S
C1475 C1466 1.429 . S
C1475 N1472 1.350 . S
C1475 C1474 1.434 . S
C1476 C1477 1.369 . S
C1476 C1478 1.419 . S
C1476 H1480 0.930 . S
C1477 C1476 1.369 . S
C1477 C1486 1.429 . S
C1478 C1476 1.419 . S
C1478 C1479 1.363 . S
C1478 H1481 0.929 . S
C1479 C1478 1.363 . S
C1479 C1485 1.428 . S
H1480 C1476 0.930 . S
H1481 C1478 0.929 . S
S1482 N1483 1.613 . S
S1482 N1484 1.610 . S
N1483 S1482 1.613 . S
N1483 C1486 1.350 . S
N1484 S1482 1.610 . S
N1484 C1485 1.351 . S
C1485 C1479 1.428 . S
C1485 N1484 1.351 . S
C1485 C1486 1.434 . S
C1486 C1477 1.429 . S
C1486 N1483 1.350 . S
C1486 C1485 1.434 . S
C1487 C1488 1.369 . S
C1487 C1489 1.419 . S
C1487 H1491 0.930 . S
C1488 C1487 1.369 . S
C1488 C1497 1.429 . S
C1489 C1487 1.419 . S
C1489 C1490 1.363 . S
C1489 H1492 0.929 . S
C1490 C1489 1.363 . S
C1490 C1496 1.428 . S
H1491 C1487 0.930 . S
H1492 C1489 0.929 . S
S1493 N1494 1.613 . S
S1493 N1495 1.610 . S
N1494 S1493 1.613 . S
N1494 C1497 1.350 . S
N1495 S1493 1.610 . S
N1495 C1496 1.351 . S
C1496 C1490 1.428 . S
C1496 N1495 1.351 . S
C1496 C1497 1.434 . S
C1497 C1488 1.429 . S
C1497 N1494 1.350 . S
C1497 C1496 1.434 . S
C1498 C1499 1.369 . S
C1498 C1500 1.419 . S
C1498 H1502 0.930 . S
C1499 C1498 1.369 . S
C1499 C1508 1.429 . S
C1500 C1498 1.419 . S
C1500 C1501 1.363 . S
C1500 H1503 0.929 . S
C1501 C1500 1.363 . S
C1501 C1507 1.428 . S
H1502 C1498 0.930 . S
H1503 C1500 0.929 . S
S1504 N1505 1.613 . S
S1504 N1506 1.610 . S
N1505 S1504 1.613 . S
N1505 C1508 1.350 . S
N1506 S1504 1.610 . S
N1506 C1507 1.351 . S
C1507 C1501 1.428 . S
C1507 N1506 1.351 . S
C1507 C1508 1.434 . S
C1508 C1499 1.429 . S
C1508 N1505 1.350 . S
C1508 C1507 1.434 . S
C1509 C1510 1.369 . S
C1509 C1511 1.419 . S
C1509 H1513 0.930 . S
C1510 C1509 1.369 . S
C1510 C1519 1.429 . S
C1511 C1509 1.419 . S
C1511 C1512 1.363 . S
C1511 H1514 0.929 . S
C1512 C1511 1.363 . S
C1512 C1518 1.428 . S
H1513 C1509 0.930 . S
H1514 C1511 0.929 . S
S1515 N1516 1.613 . S
S1515 N1517 1.610 . S
N1516 S1515 1.613 . S
N1516 C1519 1.350 . S
N1517 S1515 1.610 . S
N1517 C1518 1.351 . S
C1518 C1512 1.428 . S
C1518 N1517 1.351 . S
C1518 C1519 1.434 . S
C1519 C1510 1.429 . S
C1519 N1516 1.350 . S
C1519 C1518 1.434 . S
C1520 C1521 1.369 . S
C1520 C1522 1.419 1_556 S
C1520 H1524 0.930 . S
C1521 C1520 1.369 . S
C1521 C1530 1.429 . S
C1522 C1520 1.419 1_554 S
C1522 C1523 1.363 . S
C1522 H1525 0.929 . S
C1523 C1522 1.363 . S
C1523 C1529 1.428 . S
H1524 C1520 0.930 . S
H1525 C1522 0.929 . S
S1526 N1527 1.616 1_554 S
S1526 N1528 1.608 . S
N1527 S1526 1.616 1_556 S
N1527 C1530 1.350 . S
N1528 S1526 1.608 . S
N1528 C1529 1.351 . S
C1529 C1523 1.428 . S
C1529 N1528 1.351 . S
C1529 C1530 1.434 1_554 S
C1530 C1521 1.429 . S
C1530 N1527 1.350 . S
C1530 C1529 1.434 1_556 S
C1531 C1532 1.369 . S
C1531 C1533 1.419 1_556 S
C1531 H1535 0.930 . S
C1532 C1531 1.369 . S
C1532 C1541 1.429 . S
C1533 C1531 1.419 1_554 S
C1533 C1534 1.363 . S
C1533 H1536 0.929 . S
C1534 C1533 1.363 . S
C1534 C1540 1.428 . S
H1535 C1531 0.930 . S
H1536 C1533 0.929 . S
S1537 N1538 1.616 1_554 S
S1537 N1539 1.608 . S
N1538 S1537 1.616 1_556 S
N1538 C1541 1.350 . S
N1539 S1537 1.608 . S
N1539 C1540 1.351 . S
C1540 C1534 1.428 . S
C1540 N1539 1.351 . S
C1540 C1541 1.434 1_554 S
C1541 C1532 1.429 . S
C1541 N1538 1.350 . S
C1541 C1540 1.434 1_556 S
C1542 C1543 1.369 . S
C1542 C1544 1.419 . S
C1542 H1546 0.930 . S
C1543 C1542 1.369 . S
C1543 C1552 1.429 . S
C1544 C1542 1.419 . S
C1544 C1545 1.363 . S
C1544 H1547 0.929 . S
C1545 C1544 1.363 . S
C1545 C1551 1.428 . S
H1546 C1542 0.930 . S
H1547 C1544 0.929 . S
S1548 N1549 1.613 . S
S1548 N1550 1.610 . S
N1549 S1548 1.613 . S
N1549 C1552 1.350 . S
N1550 S1548 1.610 . S
N1550 C1551 1.351 . S
C1551 C1545 1.428 . S
C1551 N1550 1.351 . S
C1551 C1552 1.434 . S
C1552 C1543 1.429 . S
C1552 N1549 1.350 . S
C1552 C1551 1.434 . S
C1553 C1554 1.369 . S
C1553 C1555 1.419 . S
C1553 H1557 0.930 . S
C1554 C1553 1.369 . S
C1554 C1563 1.429 . S
C1555 C1553 1.419 . S
C1555 C1556 1.363 . S
C1555 H1558 0.929 . S
C1556 C1555 1.363 . S
C1556 C1562 1.428 . S
H1557 C1553 0.930 . S
H1558 C1555 0.929 . S
S1559 N1560 1.613 . S
S1559 N1561 1.610 . S
N1560 S1559 1.613 . S
N1560 C1563 1.350 . S
N1561 S1559 1.610 . S
N1561 C1562 1.351 . S
C1562 C1556 1.428 . S
C1562 N1561 1.351 . S
C1562 C1563 1.434 . S
C1563 C1554 1.429 . S
C1563 N1560 1.350 . S
C1563 C1562 1.434 . S
C1564 C1565 1.369 . S
C1564 C1566 1.419 1_554 S
C1564 H1568 0.930 . S
C1565 C1564 1.369 . S
C1565 C1574 1.429 . S
C1566 C1564 1.419 1_556 S
C1566 C1567 1.363 . S
C1566 H1569 0.929 . S
C1567 C1566 1.363 . S
C1567 C1573 1.428 . S
H1568 C1564 0.930 . S
H1569 C1566 0.929 . S
S1570 N1571 1.616 1_556 S
S1570 N1572 1.608 . S
N1571 S1570 1.616 1_554 S
N1571 C1574 1.350 . S
N1572 S1570 1.608 . S
N1572 C1573 1.351 . S
C1573 C1567 1.428 . S
C1573 N1572 1.351 . S
C1573 C1574 1.434 1_556 S
C1574 C1565 1.429 . S
C1574 N1571 1.350 . S
C1574 C1573 1.434 1_554 S
C1575 C1576 1.369 . S
C1575 C1577 1.419 1_556 S
C1575 H1579 0.930 . S
C1576 C1575 1.369 . S
C1576 C1585 1.429 . S
C1577 C1575 1.419 1_554 S
C1577 C1578 1.363 . S
C1577 H1580 0.929 . S
C1578 C1577 1.363 . S
C1578 C1584 1.428 . S
H1579 C1575 0.930 . S
H1580 C1577 0.929 . S
S1581 N1582 1.616 1_554 S
S1581 N1583 1.608 . S
N1582 S1581 1.616 1_556 S
N1582 C1585 1.350 . S
N1583 S1581 1.608 . S
N1583 C1584 1.351 . S
C1584 C1578 1.428 . S
C1584 N1583 1.351 . S
C1584 C1585 1.434 1_554 S
C1585 C1576 1.429 . S
C1585 N1582 1.350 . S
C1585 C1584 1.434 1_556 S
C1586 C1587 1.369 . S
C1586 C1588 1.419 . S
C1586 H1590 0.930 . S
C1587 C1586 1.369 . S
C1587 C1596 1.429 . S
C1588 C1586 1.419 . S
C1588 C1589 1.363 . S
C1588 H1591 0.929 . S
C1589 C1588 1.363 . S
C1589 C1595 1.428 . S
H1590 C1586 0.930 . S
H1591 C1588 0.929 . S
S1592 N1593 1.613 . S
S1592 N1594 1.610 . S
N1593 S1592 1.613 . S
N1593 C1596 1.350 . S
N1594 S1592 1.610 . S
N1594 C1595 1.351 . S
C1595 C1589 1.428 . S
C1595 N1594 1.351 . S
C1595 C1596 1.434 . S
C1596 C1587 1.429 . S
C1596 N1593 1.350 . S
C1596 C1595 1.434 . S
C1597 C1598 1.369 . S
C1597 C1599 1.419 . S
C1597 H1601 0.930 . S
C1598 C1597 1.369 . S
C1598 C1607 1.429 . S
C1599 C1597 1.419 . S
C1599 C1600 1.363 . S
C1599 H1602 0.929 . S
C1600 C1599 1.363 . S
C1600 C1606 1.428 . S
H1601 C1597 0.930 . S
H1602 C1599 0.929 . S
S1603 N1604 1.613 . S
S1603 N1605 1.610 . S
N1604 S1603 1.613 . S
N1604 C1607 1.350 . S
N1605 S1603 1.610 . S
N1605 C1606 1.351 . S
C1606 C1600 1.428 . S
C1606 N1605 1.351 . S
C1606 C1607 1.434 . S
C1607 C1598 1.429 . S
C1607 N1604 1.350 . S
C1607 C1606 1.434 . S
C1608 C1609 1.369 1_545 S
C1608 C1610 1.419 1_655 S
C1608 H1612 0.930 . S
C1609 C1608 1.369 1_565 S
C1609 C1618 1.429 . S
C1610 C1608 1.419 1_455 S
C1610 C1611 1.363 . S
C1610 H1613 0.929 . S
C1611 C1610 1.363 . S
C1611 C1617 1.428 1_545 S
H1612 C1608 0.930 . S
H1613 C1610 0.929 . S
S1614 N1615 1.613 1_455 S
S1614 N1616 1.610 . S
N1615 S1614 1.613 1_655 S
N1615 C1618 1.350 . S
N1616 S1614 1.610 . S
N1616 C1617 1.351 . S
C1617 C1611 1.428 1_565 S
C1617 N1616 1.351 . S
C1617 C1618 1.434 1_455 S
C1618 C1609 1.429 . S
C1618 N1615 1.350 . S
C1618 C1617 1.434 1_655 S
C1619 C1620 1.369 1_565 S
C1619 C1621 1.419 1_655 S
C1619 H1623 0.930 . S
C1620 C1619 1.369 1_545 S
C1620 C1629 1.429 . S
C1621 C1619 1.419 1_455 S
C1621 C1622 1.363 . S
C1621 H1624 0.929 . S
C1622 C1621 1.363 . S
C1622 C1628 1.428 1_565 S
H1623 C1619 0.930 . S
H1624 C1621 0.929 . S
S1625 N1626 1.613 1_455 S
S1625 N1627 1.610 . S
N1626 S1625 1.613 1_655 S
N1626 C1629 1.350 . S
N1627 S1625 1.610 . S
N1627 C1628 1.351 . S
C1628 C1622 1.428 1_545 S
C1628 N1627 1.351 . S
C1628 C1629 1.434 1_455 S
C1629 C1620 1.429 . S
C1629 N1626 1.350 . S
C1629 C1628 1.434 1_655 S
C1630 C1631 1.369 1_565 S
C1630 C1632 1.419 1_455 S
C1630 H1634 0.930 . S
C1631 C1630 1.369 1_545 S
C1631 C1640 1.429 . S
C1632 C1630 1.419 1_655 S
C1632 C1633 1.363 . S
C1632 H1635 0.929 . S
C1633 C1632 1.363 . S
C1633 C1639 1.428 1_565 S
H1634 C1630 0.930 . S
H1635 C1632 0.929 . S
S1636 N1637 1.605 1_655 S
S1636 N1638 1.610 . S
N1637 S1636 1.605 1_455 S
N1637 C1640 1.350 . S
N1638 S1636 1.610 . S
N1638 C1639 1.351 . S
C1639 C1633 1.428 1_545 S
C1639 N1638 1.351 . S
C1639 C1640 1.434 1_655 S
C1640 C1631 1.429 . S
C1640 N1637 1.350 . S
C1640 C1639 1.434 1_455 S
C1641 C1642 1.369 1_565 S
C1641 C1643 1.419 1_655 S
C1641 H1645 0.930 . S
C1642 C1641 1.369 1_545 S
C1642 C1651 1.429 . S
C1643 C1641 1.419 1_455 S
C1643 C1644 1.363 . S
C1643 H1646 0.929 . S
C1644 C1643 1.363 . S
C1644 C1650 1.428 1_565 S
H1645 C1641 0.930 . S
H1646 C1643 0.929 . S
S1647 N1648 1.613 1_455 S
S1647 N1649 1.610 . S
N1648 S1647 1.613 1_655 S
N1648 C1651 1.350 . S
N1649 S1647 1.610 . S
N1649 C1650 1.351 . S
C1650 C1644 1.428 1_545 S
C1650 N1649 1.351 . S
C1650 C1651 1.434 1_455 S
C1651 C1642 1.429 . S
C1651 N1648 1.350 . S
C1651 C1650 1.434 1_655 S
C1652 C1653 1.369 . S
C1652 C1654 1.419 . S
C1652 H1656 0.930 . S
C1653 C1652 1.369 . S
C1653 C1662 1.429 . S
C1654 C1652 1.419 . S
C1654 C1655 1.363 . S
C1654 H1657 0.929 . S
C1655 C1654 1.363 . S
C1655 C1661 1.428 . S
H1656 C1652 0.930 . S
H1657 C1654 0.929 . S
S1658 N1659 1.613 . S
S1658 N1660 1.610 . S
N1659 S1658 1.613 . S
N1659 C1662 1.350 . S
N1660 S1658 1.610 . S
N1660 C1661 1.351 . S
C1661 C1655 1.428 . S
C1661 N1660 1.351 . S
C1661 C1662 1.434 . S
C1662 C1653 1.429 . S
C1662 N1659 1.350 . S
C1662 C1661 1.434 . S
C1663 C1664 1.369 . S
C1663 C1665 1.419 . S
C1663 H1667 0.930 . S
C1664 C1663 1.369 . S
C1664 C1673 1.429 . S
C1665 C1663 1.419 . S
C1665 C1666 1.363 . S
C1665 H1668 0.929 . S
C1666 C1665 1.363 . S
C1666 C1672 1.428 . S
H1667 C1663 0.930 . S
H1668 C1665 0.929 . S
S1669 N1670 1.613 . S
S1669 N1671 1.610 . S
N1670 S1669 1.613 . S
N1670 C1673 1.350 . S
N1671 S1669 1.610 . S
N1671 C1672 1.351 . S
C1672 C1666 1.428 . S
C1672 N1671 1.351 . S
C1672 C1673 1.434 . S
C1673 C1664 1.429 . S
C1673 N1670 1.350 . S
C1673 C1672 1.434 . S
C1674 C1675 1.369 . S
C1674 C1676 1.419 . S
C1674 H1678 0.930 . S
C1675 C1674 1.369 . S
C1675 C1684 1.429 . S
C1676 C1674 1.419 . S
C1676 C1677 1.363 . S
C1676 H1679 0.929 . S
C1677 C1676 1.363 . S
C1677 C1683 1.428 . S
H1678 C1674 0.930 . S
H1679 C1676 0.929 . S
S1680 N1681 1.613 . S
S1680 N1682 1.610 . S
N1681 S1680 1.613 . S
N1681 C1684 1.350 . S
N1682 S1680 1.610 . S
N1682 C1683 1.351 . S
C1683 C1677 1.428 . S
C1683 N1682 1.351 . S
C1683 C1684 1.434 . S
C1684 C1675 1.429 . S
C1684 N1681 1.350 . S
C1684 C1683 1.434 . S
C1685 C1686 1.369 . S
C1685 C1687 1.419 . S
C1685 H1689 0.930 . S
C1686 C1685 1.369 . S
C1686 C1695 1.429 . S
C1687 C1685 1.419 . S
C1687 C1688 1.363 . S
C1687 H1690 0.929 . S
C1688 C1687 1.363 . S
C1688 C1694 1.428 . S
H1689 C1685 0.930 . S
H1690 C1687 0.929 . S
S1691 N1692 1.613 . S
S1691 N1693 1.610 . S
N1692 S1691 1.613 . S
N1692 C1695 1.350 . S
N1693 S1691 1.610 . S
N1693 C1694 1.351 . S
C1694 C1688 1.428 . S
C1694 N1693 1.351 . S
C1694 C1695 1.434 . S
C1695 C1686 1.429 . S
C1695 N1692 1.350 . S
C1695 C1694 1.434 . S
C1696 C1697 1.369 . S
C1696 C1698 1.419 . S
C1696 H1700 0.930 . S
C1697 C1696 1.369 . S
C1697 C1706 1.429 . S
C1698 C1696 1.419 . S
C1698 C1699 1.363 . S
C1698 H1701 0.929 . S
C1699 C1698 1.363 . S
C1699 C1705 1.428 . S
H1700 C1696 0.930 . S
H1701 C1698 0.929 . S
S1702 N1703 1.613 . S
S1702 N1704 1.610 . S
N1703 S1702 1.613 . S
N1703 C1706 1.350 . S
N1704 S1702 1.610 . S
N1704 C1705 1.351 . S
C1705 C1699 1.428 . S
C1705 N1704 1.351 . S
C1705 C1706 1.434 . S
C1706 C1697 1.429 . S
C1706 N1703 1.350 . S
C1706 C1705 1.434 . S
C1707 C1708 1.369 . S
C1707 C1709 1.419 . S
C1707 H1711 0.930 . S
C1708 C1707 1.369 . S
C1708 C1717 1.429 . S
C1709 C1707 1.419 . S
C1709 C1710 1.363 . S
C1709 H1712 0.929 . S
C1710 C1709 1.363 . S
C1710 C1716 1.428 . S
H1711 C1707 0.930 . S
H1712 C1709 0.929 . S
S1713 N1714 1.613 . S
S1713 N1715 1.610 . S
N1714 S1713 1.613 . S
N1714 C1717 1.350 . S
N1715 S1713 1.610 . S
N1715 C1716 1.351 . S
C1716 C1710 1.428 . S
C1716 N1715 1.351 . S
C1716 C1717 1.434 . S
C1717 C1708 1.429 . S
C1717 N1714 1.350 . S
C1717 C1716 1.434 . S
C1718 C1719 1.369 . S
C1718 C1720 1.419 . S
C1718 H1722 0.930 . S
C1719 C1718 1.369 . S
C1719 C1728 1.429 . S
C1720 C1718 1.419 . S
C1720 C1721 1.363 . S
C1720 H1723 0.929 . S
C1721 C1720 1.363 . S
C1721 C1727 1.428 . S
H1722 C1718 0.930 . S
H1723 C1720 0.929 . S
S1724 N1725 1.613 . S
S1724 N1726 1.610 . S
N1725 S1724 1.613 . S
N1725 C1728 1.350 . S
N1726 S1724 1.610 . S
N1726 C1727 1.351 . S
C1727 C1721 1.428 . S
C1727 N1726 1.351 . S
C1727 C1728 1.434 . S
C1728 C1719 1.429 . S
C1728 N1725 1.350 . S
C1728 C1727 1.434 . S
C1729 C1730 1.369 . S
C1729 C1731 1.419 . S
C1729 H1733 0.930 . S
C1730 C1729 1.369 . S
C1730 C1739 1.429 . S
C1731 C1729 1.419 . S
C1731 C1732 1.363 . S
C1731 H1734 0.929 . S
C1732 C1731 1.363 . S
C1732 C1738 1.428 . S
H1733 C1729 0.930 . S
H1734 C1731 0.929 . S
S1735 N1736 1.613 . S
S1735 N1737 1.610 . S
N1736 S1735 1.613 . S
N1736 C1739 1.350 . S
N1737 S1735 1.610 . S
N1737 C1738 1.351 . S
C1738 C1732 1.428 . S
C1738 N1737 1.351 . S
C1738 C1739 1.434 . S
C1739 C1730 1.429 . S
C1739 N1736 1.350 . S
C1739 C1738 1.434 . S
C1740 C1741 1.369 . S
C1740 C1742 1.419 . S
C1740 H1744 0.930 . S
C1741 C1740 1.369 . S
C1741 C1750 1.429 . S
C1742 C1740 1.419 . S
C1742 C1743 1.363 . S
C1742 H1745 0.929 . S
C1743 C1742 1.363 . S
C1743 C1749 1.428 . S
H1744 C1740 0.930 . S
H1745 C1742 0.929 . S
S1746 N1747 1.613 . S
S1746 N1748 1.610 . S
N1747 S1746 1.613 . S
N1747 C1750 1.350 . S
N1748 S1746 1.610 . S
N1748 C1749 1.351 . S
C1749 C1743 1.428 . S
C1749 N1748 1.351 . S
C1749 C1750 1.434 . S
C1750 C1741 1.429 . S
C1750 N1747 1.350 . S
C1750 C1749 1.434 . S
C1751 C1752 1.369 . S
C1751 C1753 1.419 . S
C1751 H1755 0.930 . S
C1752 C1751 1.369 . S
C1752 C1761 1.429 . S
C1753 C1751 1.419 . S
C1753 C1754 1.363 . S
C1753 H1756 0.929 . S
C1754 C1753 1.363 . S
C1754 C1760 1.428 . S
H1755 C1751 0.930 . S
H1756 C1753 0.929 . S
S1757 N1758 1.613 . S
S1757 N1759 1.610 . S
N1758 S1757 1.613 . S
N1758 C1761 1.350 . S
N1759 S1757 1.610 . S
N1759 C1760 1.351 . S
C1760 C1754 1.428 . S
C1760 N1759 1.351 . S
C1760 C1761 1.434 . S
C1761 C1752 1.429 . S
C1761 N1758 1.350 . S
C1761 C1760 1.434 . S
C1762 C1763 1.369 . S
C1762 C1764 1.419 . S
C1762 H1766 0.930 . S
C1763 C1762 1.369 . S
C1763 C1772 1.429 . S
C1764 C1762 1.419 . S
C1764 C1765 1.363 . S
C1764 H1767 0.929 . S
C1765 C1764 1.363 . S
C1765 C1771 1.428 . S
H1766 C1762 0.930 . S
H1767 C1764 0.929 . S
S1768 N1769 1.613 . S
S1768 N1770 1.610 . S
N1769 S1768 1.613 . S
N1769 C1772 1.350 . S
N1770 S1768 1.610 . S
N1770 C1771 1.351 . S
C1771 C1765 1.428 . S
C1771 N1770 1.351 . S
C1771 C1772 1.434 . S
C1772 C1763 1.429 . S
C1772 N1769 1.350 . S
C1772 C1771 1.434 . S
C1773 C1774 1.369 . S
C1773 C1775 1.419 . S
C1773 H1777 0.930 . S
C1774 C1773 1.369 . S
C1774 C1783 1.429 . S
C1775 C1773 1.419 . S
C1775 C1776 1.363 . S
C1775 H1778 0.929 . S
C1776 C1775 1.363 . S
C1776 C1782 1.428 . S
H1777 C1773 0.930 . S
H1778 C1775 0.929 . S
S1779 N1780 1.613 . S
S1779 N1781 1.610 . S
N1780 S1779 1.613 . S
N1780 C1783 1.350 . S
N1781 S1779 1.610 . S
N1781 C1782 1.351 . S
C1782 C1776 1.428 . S
C1782 N1781 1.351 . S
C1782 C1783 1.434 . S
C1783 C1774 1.429 . S
C1783 N1780 1.350 . S
C1783 C1782 1.434 . S
C1784 C1785 1.369 . S
C1784 C1786 1.419 . S
C1784 H1788 0.930 . S
C1785 C1784 1.369 . S
C1785 C1794 1.429 . S
C1786 C1784 1.419 . S
C1786 C1787 1.363 . S
C1786 H1789 0.929 . S
C1787 C1786 1.363 . S
C1787 C1793 1.428 . S
H1788 C1784 0.930 . S
H1789 C1786 0.929 . S
S1790 N1791 1.613 . S
S1790 N1792 1.610 . S
N1791 S1790 1.613 . S
N1791 C1794 1.350 . S
N1792 S1790 1.610 . S
N1792 C1793 1.351 . S
C1793 C1787 1.428 . S
C1793 N1792 1.351 . S
C1793 C1794 1.434 . S
C1794 C1785 1.429 . S
C1794 N1791 1.350 . S
C1794 C1793 1.434 . S
C1795 C1796 1.369 . S
C1795 C1797 1.419 . S
C1795 H1799 0.930 . S
C1796 C1795 1.369 . S
C1796 C1805 1.429 . S
C1797 C1795 1.419 . S
C1797 C1798 1.363 . S
C1797 H1800 0.929 . S
C1798 C1797 1.363 . S
C1798 C1804 1.428 . S
H1799 C1795 0.930 . S
H1800 C1797 0.929 . S
S1801 N1802 1.613 . S
S1801 N1803 1.610 . S
N1802 S1801 1.613 . S
N1802 C1805 1.350 . S
N1803 S1801 1.610 . S
N1803 C1804 1.351 . S
C1804 C1798 1.428 . S
C1804 N1803 1.351 . S
C1804 C1805 1.434 . S
C1805 C1796 1.429 . S
C1805 N1802 1.350 . S
C1805 C1804 1.434 . S
C1806 C1807 1.369 . S
C1806 C1808 1.419 . S
C1806 H1810 0.930 . S
C1807 C1806 1.369 . S
C1807 C1816 1.429 . S
C1808 C1806 1.419 . S
C1808 C1809 1.363 . S
C1808 H1811 0.929 . S
C1809 C1808 1.363 . S
C1809 C1815 1.428 . S
H1810 C1806 0.930 . S
H1811 C1808 0.929 . S
S1812 N1813 1.613 . S
S1812 N1814 1.610 . S
N1813 S1812 1.613 . S
N1813 C1816 1.350 . S
N1814 S1812 1.610 . S
N1814 C1815 1.351 . S
C1815 C1809 1.428 . S
C1815 N1814 1.351 . S
C1815 C1816 1.434 . S
C1816 C1807 1.429 . S
C1816 N1813 1.350 . S
C1816 C1815 1.434 . S
C1817 C1818 1.369 . S
C1817 C1819 1.419 . S
C1817 H1821 0.930 . S
C1818 C1817 1.369 . S
C1818 C1827 1.429 . S
C1819 C1817 1.419 . S
C1819 C1820 1.363 . S
C1819 H1822 0.929 . S
C1820 C1819 1.363 . S
C1820 C1826 1.428 . S
H1821 C1817 0.930 . S
H1822 C1819 0.929 . S
S1823 N1824 1.613 . S
S1823 N1825 1.610 . S
N1824 S1823 1.613 . S
N1824 C1827 1.350 . S
N1825 S1823 1.610 . S
N1825 C1826 1.351 . S
C1826 C1820 1.428 . S
C1826 N1825 1.351 . S
C1826 C1827 1.434 . S
C1827 C1818 1.429 . S
C1827 N1824 1.350 . S
C1827 C1826 1.434 . S
C1828 C1829 1.369 . S
C1828 C1830 1.419 . S
C1828 H1832 0.930 . S
C1829 C1828 1.369 . S
C1829 C1838 1.429 . S
C1830 C1828 1.419 . S
C1830 C1831 1.363 . S
C1830 H1833 0.929 . S
C1831 C1830 1.363 . S
C1831 C1837 1.428 . S
H1832 C1828 0.930 . S
H1833 C1830 0.929 . S
S1834 N1835 1.613 . S
S1834 N1836 1.610 . S
N1835 S1834 1.613 . S
N1835 C1838 1.350 . S
N1836 S1834 1.610 . S
N1836 C1837 1.351 . S
C1837 C1831 1.428 . S
C1837 N1836 1.351 . S
C1837 C1838 1.434 . S
C1838 C1829 1.429 . S
C1838 N1835 1.350 . S
C1838 C1837 1.434 . S
C1839 C1840 1.369 . S
C1839 C1841 1.419 . S
C1839 H1843 0.930 . S
C1840 C1839 1.369 . S
C1840 C1849 1.429 . S
C1841 C1839 1.419 . S
C1841 C1842 1.363 . S
C1841 H1844 0.929 . S
C1842 C1841 1.363 . S
C1842 C1848 1.428 . S
H1843 C1839 0.930 . S
H1844 C1841 0.929 . S
S1845 N1846 1.613 . S
S1845 N1847 1.610 . S
N1846 S1845 1.613 . S
N1846 C1849 1.350 . S
N1847 S1845 1.610 . S
N1847 C1848 1.351 . S
C1848 C1842 1.428 . S
C1848 N1847 1.351 . S
C1848 C1849 1.434 . S
C1849 C1840 1.429 . S
C1849 N1846 1.350 . S
C1849 C1848 1.434 . S
C1850 C1851 1.369 . S
C1850 C1852 1.419 . S
C1850 H1854 0.930 . S
C1851 C1850 1.369 . S
C1851 C1860 1.429 . S
C1852 C1850 1.419 . S
C1852 C1853 1.363 . S
C1852 H1855 0.929 . S
C1853 C1852 1.363 . S
C1853 C1859 1.428 . S
H1854 C1850 0.930 . S
H1855 C1852 0.929 . S
S1856 N1857 1.613 . S
S1856 N1858 1.610 . S
N1857 S1856 1.613 . S
N1857 C1860 1.350 . S
N1858 S1856 1.610 . S
N1858 C1859 1.351 . S
C1859 C1853 1.428 . S
C1859 N1858 1.351 . S
C1859 C1860 1.434 . S
C1860 C1851 1.429 . S
C1860 N1857 1.350 . S
C1860 C1859 1.434 . S
C1861 C1862 1.369 . S
C1861 C1863 1.419 . S
C1861 H1865 0.930 . S
C1862 C1861 1.369 . S
C1862 C1871 1.429 . S
C1863 C1861 1.419 . S
C1863 C1864 1.363 . S
C1863 H1866 0.929 . S
C1864 C1863 1.363 . S
C1864 C1870 1.428 . S
H1865 C1861 0.930 . S
H1866 C1863 0.929 . S
S1867 N1868 1.613 . S
S1867 N1869 1.610 . S
N1868 S1867 1.613 . S
N1868 C1871 1.350 . S
N1869 S1867 1.610 . S
N1869 C1870 1.351 . S
C1870 C1864 1.428 . S
C1870 N1869 1.351 . S
C1870 C1871 1.434 . S
C1871 C1862 1.429 . S
C1871 N1868 1.350 . S
C1871 C1870 1.434 . S
C1345 C67 1.432 . S
C1347 C823 1.432 . S
C1356 C151 1.434 . S
C1358 C739 1.426 . S
C1367 C991 1.430 . S
C1369 C235 1.425 . S
C1378 C319 1.432 . S
C1380 C907 1.432 . S
C1389 C1148 1.431 . S
C1391 C392 1.425 . S
C1400 C1064 1.425 . S
C1402 C476 1.430 . S
C1411 C1316 1.435 . S
C1413 C560 1.427 . S
C1422 C644 1.434 . S
C1424 C1232 1.426 . S
C1433 C231 1.649 . S
C1435 C63 1.649 . S
C1444 C315 1.649 . S
C1446 C147 1.648 . S
C1455 C578 1.651 . S
C1457 C410 1.650 . S
C1466 C494 1.649 . S
C1468 C662 1.648 . S
C1477 C903 1.651 . S
C1479 C735 1.650 . S
C1488 C987 1.647 . S
C1490 C819 1.647 . S
C1499 C1082 1.648 . S
C1501 C1250 1.648 . S
C1510 C1166 1.650 . S
C1512 C1334 1.649 . S
C1521 C483 1.708 . S
C1523 C74 1.709 . S
C1532 C399 1.715 . S
C1534 C158 1.714 . S
C1543 C242 1.714 . S
C1545 C651 1.714 . S
C1554 C567 1.715 . S
C1556 C326 1.714 . S
C1565 C746 1.709 . S
C1567 C1155 1.709 . S
C1576 C1071 1.707 . S
C1578 C830 1.708 . S
C1587 C914 1.716 . S
C1589 C1323 1.715 . S
C1598 C1239 1.712 . S
C1600 C998 1.712 . S
C1609 C140 1.451 . S
C1611 C56 1.444 . S
C1620 C308 1.451 . S
C1622 C224 1.446 . S
C1631 C487 1.450 . S
C1633 C403 1.444 . S
C1642 C571 1.452 . S
C1644 C655 1.446 . S
C1653 C812 1.449 . S
C1655 C728 1.449 . S
C1664 C980 1.446 . S
C1666 C896 1.450 . S
C1675 C1075 1.442 . S
C1677 C1159 1.446 . S
C1686 C1243 1.446 . S
C1688 C1327 1.451 . S
C1697 C58 1.281 . S
C1699 C70 1.296 . S
C1708 C142 1.296 . S
C1710 C154 1.285 . S
C1719 C226 1.287 . S
C1721 C238 1.290 . S
C1730 C322 1.296 . S
C1732 C310 1.285 . S
C1741 C406 1.289 . S
C1743 C394 1.289 . S
C1752 C478 1.294 . S
C1754 C490 1.285 . S
C1763 C574 1.298 . S
C1765 C562 1.282 . S
C1774 C658 1.289 . S
C1776 C646 1.289 . S
C1785 C742 1.285 . S
C1787 C730 1.297 . S
C1796 C814 1.281 . S
C1798 C826 1.301 . S
C1807 C910 1.302 . S
C1809 C898 1.283 . S
C1818 C994 1.293 . S
C1820 C982 1.289 . S
C1829 C1078 1.284 . S
C1831 C1066 1.299 . S
C1840 C1162 1.297 . S
C1842 C1150 1.289 . S
C1851 C1234 1.299 . S
C1853 C1246 1.285 . S
C1862 C1330 1.299 . S
C1864 C1318 1.287 . S
