# Generated by pormake.
# Topology wfu, (7)-cn, num edge types: 1
# Building blocks:
#     Node 0, Type 0, BuildingBlock: HICVOG_clean_sbu_0, # of connection points: 7
#     Node 1, Type 0, BuildingBlock: HICVOG_clean_sbu_0, # of connection points: 7
#     Node 2, Type 0, BuildingBlock: HICVOG_clean_sbu_0, # of connection points: 7
#     Node 3, Type 0, BuildingBlock: HICVOG_clean_sbu_0, # of connection points: 7
#     Node 4, Type 0, BuildingBlock: HICVOG_clean_sbu_0, # of connection points: 7
#     Node 5, Type 0, BuildingBlock: HICVOG_clean_sbu_0, # of connection points: 7
#     Node 6, Type 0, BuildingBlock: HICVOG_clean_sbu_0, # of connection points: 7
#     Node 7, Type 0, BuildingBlock: HICVOG_clean_sbu_0, # of connection points: 7
#     Edge 8, Type (0, 0), BuildingBlock: EZIPEK_clean_linker_0, # of connection points: 2
#     Edge 9, Type (0, 0), BuildingBlock: EZIPEK_clean_linker_0, # of connection points: 2
#     Edge 10, Type (0, 0), BuildingBlock: EZIPEK_clean_linker_0, # of connection points: 2
#     Edge 11, Type (0, 0), BuildingBlock: EZIPEK_clean_linker_0, # of connection points: 2
#     Edge 12, Type (0, 0), BuildingBlock: EZIPEK_clean_linker_0, # of connection points: 2
#     Edge 13, Type (0, 0), BuildingBlock: EZIPEK_clean_linker_0, # of connection points: 2
#     Edge 14, Type (0, 0), BuildingBlock: EZIPEK_clean_linker_0, # of connection points: 2
#     Edge 15, Type (0, 0), BuildingBlock: EZIPEK_clean_linker_0, # of connection points: 2
#     Edge 16, Type (0, 0), BuildingBlock: EZIPEK_clean_linker_0, # of connection points: 2
#     Edge 17, Type (0, 0), BuildingBlock: EZIPEK_clean_linker_0, # of connection points: 2
#     Edge 18, Type (0, 0), BuildingBlock: EZIPEK_clean_linker_0, # of connection points: 2
#     Edge 19, Type (0, 0), BuildingBlock: EZIPEK_clean_linker_0, # of connection points: 2
#     Edge 20, Type (0, 0), BuildingBlock: EZIPEK_clean_linker_0, # of connection points: 2
#     Edge 21, Type (0, 0), BuildingBlock: EZIPEK_clean_linker_0, # of connection points: 2
#     Edge 22, Type (0, 0), BuildingBlock: EZIPEK_clean_linker_0, # of connection points: 2
#     Edge 23, Type (0, 0), BuildingBlock: EZIPEK_clean_linker_0, # of connection points: 2
#     Edge 24, Type (0, 0), BuildingBlock: EZIPEK_clean_linker_0, # of connection points: 2
#     Edge 25, Type (0, 0), BuildingBlock: EZIPEK_clean_linker_0, # of connection points: 2
#     Edge 26, Type (0, 0), BuildingBlock: EZIPEK_clean_linker_0, # of connection points: 2
#     Edge 27, Type (0, 0), BuildingBlock: EZIPEK_clean_linker_0, # of connection points: 2
#     Edge 28, Type (0, 0), BuildingBlock: EZIPEK_clean_linker_0, # of connection points: 2
#     Edge 29, Type (0, 0), BuildingBlock: EZIPEK_clean_linker_0, # of connection points: 2
#     Edge 30, Type (0, 0), BuildingBlock: EZIPEK_clean_linker_0, # of connection points: 2
#     Edge 31, Type (0, 0), BuildingBlock: EZIPEK_clean_linker_0, # of connection points: 2
#     Edge 32, Type (0, 0), BuildingBlock: EZIPEK_clean_linker_0, # of connection points: 2
#     Edge 33, Type (0, 0), BuildingBlock: EZIPEK_clean_linker_0, # of connection points: 2
#     Edge 34, Type (0, 0), BuildingBlock: EZIPEK_clean_linker_0, # of connection points: 2
#     Edge 35, Type (0, 0), BuildingBlock: EZIPEK_clean_linker_0, # of connection points: 2
# Relax obj value: 0.473
# Max RMSD: 0.289
# Mean RMSD: 0.289
data_MOF--net-wfu--node1-HICVOG_clean_sbu_0--edge1-EZIPEK_clean_linker_0
_symmetry_space_group_name_H-M    P1
_symmetry_Int_Tables_number       1
_symmetry_cell_setting            triclinic
loop_
_symmetry_equiv_pos_as_xyz
'x, y, z'
_cell_length_a     23.367292
_cell_length_b     23.638148
_cell_length_c     23.974307
_cell_angle_alpha  90.091215
_cell_angle_beta   89.683682
_cell_angle_gamma 91.240919
loop_
_atom_site_label
_atom_site_type_symbol
_atom_site_fract_x
_atom_site_fract_y
_atom_site_fract_z
_atom_type_partial_charge
Zn0 Zn 0.2947 0.36791 0.10751 0.0
C1 C 0.28417 0.37324 0.27714 0.0
N2 N 0.27303 0.31773 0.27136 0.0
C3 C 0.27947 0.30964 0.21642 0.0
N4 N 0.29369 0.35835 0.1892 0.0
N5 N 0.29706 0.39877 0.22801 0.0
C6 C 0.29269 0.56638 0.30795 0.0
O7 O 0.29469 0.5368 0.3541 0.0
O8 O 0.34914 0.31674 0.06318 0.0
Zn9 Zn 0.33717 0.47287 0.22229 0.0
N10 N 0.21771 0.3539 0.08189 0.0
C11 C 0.11702 0.36466 0.09179 0.0
C12 C 0.17247 0.37176 0.11259 0.0
C13 C 0.21009 0.33183 0.03018 0.0
N14 N 0.10937 0.34314 0.0397 0.0
C15 C 0.15482 0.32713 0.00816 0.0
O16 O 0.34438 0.50546 0.14413 0.0
C17 C 0.3322 0.49486 0.09352 0.0
O18 O 0.31288 0.44665 0.07836 0.0
H19 H 0.17949 0.39174 0.15267 0.0
H20 H 0.24702 0.32073 0.00534 0.0
C21 C 0.42059 0.47288 0.30769 0.0
C22 C 0.4734 0.46157 0.33254 0.0
C23 C 0.50432 0.4212 0.24669 0.0
C24 C 0.45264 0.43504 0.22205 0.0
N25 N 0.41172 0.46009 0.25315 0.0
N26 N 0.51366 0.43533 0.30083 0.0
H27 H 0.38673 0.49191 0.33093 0.0
C28 C 0.4032 0.32418 0.0659 0.0
O29 O 0.42409 0.35892 0.10363 0.0
O30 O 0.30561 0.54393 0.26124 0.0
H31 H 0.44487 0.42578 0.17877 0.0
H32 H 0.08054 0.37786 0.11613 0.0
H33 H 0.53732 0.4007 0.22271 0.0
Zn34 Zn 0.45463 0.7586 0.75726 0.0
C35 C 0.30607 0.82738 0.80224 0.0
N36 N 0.3089 0.85246 0.75234 0.0
C37 C 0.36086 0.83897 0.73293 0.0
N38 N 0.39052 0.80903 0.77091 0.0
N39 N 0.35559 0.80159 0.81435 0.0
C40 C 0.35706 0.67546 0.92915 0.0
O41 O 0.39468 0.66609 0.8895 0.0
O42 O 0.5205 0.78035 0.70299 0.0
Zn43 Zn 0.37928 0.78842 0.89024 0.0
N44 N 0.41869 0.69348 0.72457 0.0
C45 C 0.3411 0.64067 0.68452 0.0
C46 C 0.36261 0.69007 0.70959 0.0
C47 C 0.45381 0.65006 0.7156 0.0
N48 N 0.37619 0.59616 0.67706 0.0
C49 C 0.43216 0.60027 0.69197 0.0
O50 O 0.46065 0.76968 0.90244 0.0
C51 C 0.50221 0.7465 0.87809 0.0
O52 O 0.50136 0.73605 0.826 0.0
H53 H 0.3347 0.72476 0.71744 0.0
H54 H 0.4978 0.65348 0.72946 0.0
C55 C 0.34775 0.86843 0.97385 0.0
C56 C 0.34258 0.92304 0.99585 0.0
C57 C 0.388 0.96135 0.91555 0.0
C58 C 0.39461 0.90678 0.89448 0.0
N59 N 0.37311 0.86164 0.92357 0.0
N60 N 0.36199 0.96837 0.96579 0.0
H61 H 0.33238 0.83159 0.99668 0.0
C62 C 0.56774 0.79827 0.72374 0.0
O63 O 0.56817 0.81592 0.77569 0.0
O64 O 0.33721 0.72516 0.93453 0.0
H65 H 0.41528 0.90047 0.85455 0.0
H66 H 0.2966 0.63721 0.67253 0.0
H67 H 0.40363 0.99775 0.89231 0.0
Zn68 Zn 0.7341 0.56868 0.2194 0.0
C69 C 0.78732 0.73123 0.21011 0.0
N70 N 0.79261 0.72438 0.2654 0.0
C71 C 0.78374 0.66854 0.27186 0.0
N72 N 0.77322 0.64197 0.223 0.0
N73 N 0.77554 0.68147 0.18356 0.0
C74 C 0.67001 0.68342 0.04282 0.0
O75 O 0.65788 0.63458 0.06659 0.0
O76 O 0.76343 0.50576 0.27108 0.0
Zn77 Zn 0.77651 0.66827 0.10238 0.0
N78 N 0.65845 0.58701 0.24462 0.0
C79 C 0.57888 0.64726 0.23877 0.0
C80 C 0.62794 0.62477 0.21517 0.0
C81 C 0.6424 0.57108 0.29694 0.0
N82 N 0.56272 0.63122 0.29098 0.0
C83 C 0.59317 0.59395 0.32178 0.0
O84 O 0.76829 0.58672 0.07556 0.0
C85 C 0.74999 0.5387 0.09263 0.0
O86 O 0.73461 0.531 0.14307 0.0
H87 H 0.64307 0.63897 0.17481 0.0
H88 H 0.66897 0.54187 0.31852 0.0
C89 C 0.85632 0.71388 0.02445 0.0
C90 C 0.91027 0.7312 0.00448 0.0
C91 C 0.95095 0.70872 0.09159 0.0
C92 C 0.89735 0.68963 0.11074 0.0
N93 N 0.85099 0.69368 0.0771 0.0
N94 N 0.9564 0.7288 0.03869 0.0
H95 H 0.81905 0.71503 0.99788 0.0
C96 C 0.73735 0.45869 0.26148 0.0
O97 O 0.69608 0.45803 0.22444 0.0
O98 O 0.71632 0.70961 0.05611 0.0
H99 H 0.89269 0.67154 0.15194 0.0
H100 H 0.55406 0.67763 0.21609 0.0
H101 H 0.98809 0.70655 0.11817 0.0
Zn102 Zn 0.60038 0.27965 0.76838 0.0
C103 C 0.76157 0.23689 0.76588 0.0
N104 N 0.74911 0.22351 0.71259 0.0
C105 C 0.6916 0.22278 0.71208 0.0
N106 N 0.66924 0.23568 0.76222 0.0
N107 N 0.71288 0.2428 0.79706 0.0
C108 C 0.71621 0.35992 0.92788 0.0
O109 O 0.66773 0.3659 0.90141 0.0
O110 O 0.53559 0.26696 0.71055 0.0
Zn111 Zn 0.70006 0.2501 0.87911 0.0
N112 N 0.62933 0.3562 0.76017 0.0
C113 C 0.69885 0.43088 0.77087 0.0
C114 C 0.68149 0.3746 0.779 0.0
C115 C 0.59495 0.39153 0.73258 0.0
N116 N 0.66225 0.46714 0.7467 0.0
C117 C 0.61064 0.44835 0.72749 0.0
O118 O 0.61888 0.26175 0.90754 0.0
C119 C 0.5681 0.27047 0.89186 0.0
O120 O 0.55644 0.27595 0.84068 0.0
H121 H 0.70956 0.34653 0.80032 0.0
H122 H 0.55407 0.37634 0.71745 0.0
C123 C 0.7335 0.17257 0.96303 0.0
C124 C 0.73986 0.119 0.98686 0.0
C125 C 0.7086 0.07609 0.90287 0.0
C126 C 0.69986 0.12952 0.88011 0.0
N127 N 0.71435 0.17665 0.91003 0.0
N128 N 0.72818 0.07192 0.9559 0.0
H129 H 0.74201 0.21073 0.98689 0.0
C130 C 0.49199 0.23631 0.72426 0.0
O131 O 0.49604 0.20217 0.76713 0.0
O132 O 0.74399 0.31439 0.92066 0.0
H133 H 0.68285 0.13349 0.83846 0.0
H134 H 0.74002 0.44607 0.78577 0.0
H135 H 0.69884 0.03826 0.879 0.0
Zn136 Zn 0.78687 0.16798 0.38165 0.0
C137 C 0.77314 0.16457 0.21442 0.0
N138 N 0.76027 0.21927 0.22047 0.0
C139 C 0.76846 0.22784 0.27519 0.0
N140 N 0.78544 0.18027 0.30141 0.0
N141 N 0.78892 0.1403 0.26245 0.0
C142 C 0.79506 0.97237 0.17708 0.0
O143 O 0.79673 1.00089 0.1302 0.0
O144 O 0.84092 0.21876 0.42793 0.0
Zn145 Zn 0.83535 0.07177 0.26187 0.0
N146 N 0.70952 0.17205 0.40955 0.0
C147 C 0.61 0.1502 0.40007 0.0
C148 C 0.66535 0.1525 0.37771 0.0
C149 C 0.70104 0.18698 0.46355 0.0
N150 N 0.60144 0.16507 0.45421 0.0
C151 C 0.64589 0.18279 0.48669 0.0
O152 O 0.84761 0.0378 0.33778 0.0
C153 C 0.83179 0.04542 0.38796 0.0
O154 O 0.8082 0.09042 0.40381 0.0
H155 H 0.67322 0.13811 0.33557 0.0
H156 H 0.7373 0.19991 0.48884 0.0
C157 C 0.91979 0.07473 0.17566 0.0
C158 C 0.96908 0.09407 0.14679 0.0
C159 C 0.98765 0.15829 0.22163 0.0
C160 C 0.93956 0.13748 0.25027 0.0
N161 N 0.90681 0.09583 0.22681 0.0
N162 N 1.00157 0.13569 0.17133 0.0
H163 H 0.89161 0.04332 0.15826 0.0
C164 C 0.89147 0.2009 0.43505 0.0
O165 O 0.90872 0.15788 0.40512 0.0
O166 O 0.80688 0.99712 0.22319 0.0
H167 H 0.92752 0.15522 0.29012 0.0
H168 H 0.57435 0.13542 0.37498 0.0
H169 H 1.01418 0.19164 0.23951 0.0
Zn170 Zn 0.0842 0.24251 0.73981 0.0
C171 C 0.25545 0.27277 0.71698 0.0
N172 N 0.25079 0.28197 0.77211 0.0
C173 C 0.19415 0.27907 0.78053 0.0
N174 N 0.16478 0.2683 0.73348 0.0
N175 N 0.20328 0.26516 0.69252 0.0
C176 C 0.19367 0.15677 0.5638 0.0
O177 O 0.14998 0.14732 0.59743 0.0
O178 O 0.04289 0.29274 0.7972 0.0
Zn179 Zn 0.18469 0.2663 0.61294 0.0
N180 N 0.09084 0.16668 0.77005 0.0
C181 C 0.14666 0.08397 0.76625 0.0
C182 C 0.13071 0.13527 0.74365 0.0
C183 C 0.06494 0.14815 0.81801 0.0
N184 N 0.12121 0.06549 0.81392 0.0
C185 C 0.08046 0.09551 0.84121 0.0
O186 O 0.09998 0.25686 0.59652 0.0
C187 C 0.04964 0.24716 0.61518 0.0
O188 O 0.03937 0.24029 0.66706 0.0
H189 H 0.1517 0.15133 0.70654 0.0
H190 H 0.03338 0.17454 0.83727 0.0
C191 C 0.22663 0.34477 0.52887 0.0
C192 C 0.23996 0.39876 0.50719 0.0
C193 C 0.21604 0.43962 0.5943 0.0
C194 C 0.20166 0.38608 0.61533 0.0
N195 N 0.20785 0.33964 0.58254 0.0
N196 N 0.23456 0.44484 0.5407 0.0
H197 H 0.2299 0.30742 0.50296 0.0
C198 C 0.99581 0.30776 0.81978 0.0
O199 O 0.99792 0.34723 0.85838 0.0
O200 O 0.22055 0.20415 0.56643 0.0
H201 H 0.18563 0.3815 0.65754 0.0
H202 H 0.17907 0.05894 0.74615 0.0
H203 H 0.21178 0.47683 0.62018 0.0
Zn204 Zn 0.27032 0.866 0.38056 0.0
C205 C 0.28349 0.87039 0.21503 0.0
N206 N 0.2935 0.81479 0.22005 0.0
C207 C 0.28383 0.80602 0.27473 0.0
N208 N 0.26948 0.85412 0.30148 0.0
N209 N 0.26821 0.89454 0.26331 0.0
C210 C 0.23573 0.07769 0.2258 0.0
O211 O 0.1921 0.07696 0.26063 0.0
O212 O 0.2162 0.81544 0.42568 0.0
Zn213 Zn 0.22573 0.96487 0.26292 0.0
N214 N 0.34766 0.86301 0.40726 0.0
C215 C 0.43295 0.91874 0.4164 0.0
C216 C 0.38743 0.89859 0.38396 0.0
C217 C 0.3537 0.84358 0.4599 0.0
N218 N 0.4342 0.90572 0.4716 0.0
C219 C 0.39513 0.86904 0.4948 0.0
O220 O 0.21396 0.99995 0.33914 0.0
C221 C 0.22697 0.99008 0.38948 0.0
O222 O 0.24846 0.94376 0.40432 0.0
H223 H 0.38107 0.91502 0.34242 0.0
H224 H 0.32061 0.81581 0.47692 0.0
C225 C 0.1384 0.967 0.17929 0.0
C226 C 0.09064 0.94516 0.14973 0.0
C227 C 0.0773 0.87595 0.2212 0.0
C228 C 0.12436 0.89806 0.24978 0.0
N229 N 0.15394 0.94303 0.22832 0.0
N230 N 0.06152 0.90016 0.17255 0.0
H231 H 0.16338 1.00258 0.16436 0.0
C232 C 0.1651 0.83289 0.42786 0.0
O233 O 0.1503 0.874 0.39453 0.0
O234 O 0.26079 0.03105 0.21636 0.0
H235 H 0.13846 0.87854 0.28778 0.0
H236 H 0.46426 0.94825 0.39906 0.0
H237 H 0.05336 0.83989 0.23752 0.0
Zn238 Zn 0.96556 0.81302 0.72777 0.0
C239 C 0.8017 0.76131 0.71563 0.0
N240 N 0.80846 0.755 0.77094 0.0
C241 C 0.86549 0.76066 0.77696 0.0
N242 N 0.89253 0.77118 0.72843 0.0
N243 N 0.85262 0.77015 0.68915 0.0
C244 C 0.8586 0.87451 0.55727 0.0
O245 O 0.90554 0.88136 0.58625 0.0
O246 O 0.03005 0.78826 0.7812 0.0
Zn247 Zn 0.86642 0.76762 0.60853 0.0
N248 N 0.94575 0.88809 0.75379 0.0
C249 C 0.88852 0.96933 0.7453 0.0
C250 C 0.90926 0.91923 0.72344 0.0
C251 C 0.96252 0.90512 0.80561 0.0
N252 N 0.90604 0.98678 0.79645 0.0
C253 C 0.94265 0.95637 0.82813 0.0
O254 O 0.94939 0.77483 0.58483 0.0
C255 C 0.99683 0.79536 0.60203 0.0
O256 O 1.00355 0.81277 0.6518 0.0
H257 H 0.89522 0.90439 0.68342 0.0
H258 H 0.99044 0.87826 0.82847 0.0
C259 C 0.82424 0.69025 0.52586 0.0
C260 C 0.80918 0.63695 0.50382 0.0
C261 C 0.82581 0.59542 0.59192 0.0
C262 C 0.84234 0.64829 0.61327 0.0
N263 N 0.84032 0.69478 0.58013 0.0
N264 N 0.8099 0.59081 0.53763 0.0
H265 H 0.82471 0.72756 0.49971 0.0
C266 C 0.07754 0.81374 0.76962 0.0
O267 O 0.0794 0.84777 0.72637 0.0
O268 O 0.8286 0.8294 0.56377 0.0
H269 H 0.85709 0.65224 0.65581 0.0
H270 H 0.85899 0.99441 0.72172 0.0
H271 H 0.82663 0.55818 0.61803 0.0
C272 C 0.14259 0.3549 0.90851 0.0
C273 C 0.14755 0.31152 0.94895 0.0
C274 C 0.17261 0.24343 0.87667 0.0
C275 C 0.16863 0.28688 0.83622 0.0
N276 N 0.13823 0.38003 0.81055 0.0
N277 N 0.15048 0.21249 0.971 0.0
C278 C 0.14927 0.34127 0.85118 0.0
C279 C 0.15663 0.2549 0.93264 0.0
N280 N 0.13534 0.40966 0.92516 0.0
N281 N 0.19483 0.19241 0.86227 0.0
H282 H 0.13896 0.22036 0.0124 0.0
H283 H 0.15128 0.16968 0.96072 0.0
H284 H 0.20717 0.18264 0.82159 0.0
H285 H 0.20434 0.1611 0.89106 0.0
H286 H 0.13883 0.44422 0.89842 0.0
H287 H 0.12885 0.42121 0.96666 0.0
H288 H 0.11861 0.4184 0.81825 0.0
H289 H 0.14392 0.37169 0.76817 0.0
C290 C 0.35659 0.9455 0.0969 0.0
C291 C 0.31936 0.92988 0.05264 0.0
C292 C 0.25051 0.88804 0.11808 0.0
C293 C 0.28909 0.90072 0.1619 0.0
N294 N 0.36949 0.95579 0.19661 0.0
N295 N 0.22438 0.90504 0.02182 0.0
C296 C 0.3386 0.93506 0.15253 0.0
C297 C 0.26368 0.90791 0.06376 0.0
N298 N 0.41082 0.96553 0.08588 0.0
N299 N 0.20305 0.85468 0.12787 0.0
H300 H 0.23368 0.92001 0.98175 0.0
H301 H 0.18156 0.89343 0.02801 0.0
H302 H 0.19168 0.84037 0.16762 0.0
H303 H 0.17651 0.83902 0.09643 0.0
H304 H 0.44234 0.97016 0.11617 0.0
H305 H 0.4259 0.97453 0.04588 0.0
H306 H 0.40288 0.98538 0.19236 0.0
H307 H 0.35849 0.94758 0.23802 0.0
C308 C 0.92834 0.71788 0.8484 0.0
C309 C 0.89305 0.7629 0.83209 0.0
C310 C 0.89206 0.79891 0.92778 0.0
C311 C 0.91668 0.74788 0.94545 0.0
N312 N 0.96056 0.65893 0.92416 0.0
N313 N 0.84448 0.84922 0.85382 0.0
C314 C 0.93699 0.70805 0.90612 0.0
C315 C 0.87661 0.8049 0.87099 0.0
N316 N 0.9521 0.68371 0.80889 0.0
N317 N 0.88333 0.84113 0.96569 0.0
H318 H 0.83559 0.85669 0.8119 0.0
H319 H 0.82548 0.8778 0.88087 0.0
H320 H 0.89426 0.837 0.00761 0.0
H321 H 0.87028 0.88152 0.95509 0.0
H322 H 0.98268 0.65368 0.81773 0.0
H323 H 0.94514 0.68859 0.76631 0.0
H324 H 0.96931 0.62484 0.8982 0.0
H325 H 0.96886 0.65082 0.96603 0.0
C326 C 0.72582 0.10364 0.14368 0.0
C327 C 0.77387 0.13722 0.15949 0.0
C328 C 0.8088 0.13783 0.06343 0.0
C329 C 0.75546 0.11458 0.04621 0.0
N330 N 0.66129 0.07668 0.0692 0.0
N331 N 0.86042 0.18918 0.13525 0.0
C332 C 0.71378 0.09655 0.08611 0.0
C333 C 0.81573 0.15448 0.11973 0.0
N334 N 0.69128 0.07956 0.18367 0.0
N335 N 0.85239 0.14424 0.02563 0.0
H336 H 0.86763 0.20107 0.17658 0.0
H337 H 0.88866 0.20836 0.10694 0.0
H338 H 0.84808 0.1314 0.98419 0.0
H339 H 0.89396 0.1564 0.03654 0.0
H340 H 0.65863 0.05029 0.17485 0.0
H341 H 0.69886 0.0847 0.22623 0.0
H342 H 0.62698 0.0695 0.09635 0.0
H343 H 0.65041 0.07084 0.02749 0.0
C344 C 0.63162 0.15105 0.58583 0.0
C345 C 0.63729 0.19563 0.54646 0.0
C346 C 0.66062 0.26289 0.6205 0.0
C347 C 0.65906 0.21773 0.65947 0.0
N348 N 0.62572 0.12403 0.68355 0.0
N349 N 0.63766 0.29537 0.52739 0.0
C350 C 0.63804 0.16357 0.64352 0.0
C351 C 0.64487 0.25222 0.56441 0.0
N352 N 0.62418 0.09649 0.56788 0.0
N353 N 0.68007 0.31517 0.63648 0.0
H354 H 0.62594 0.28807 0.48599 0.0
H355 H 0.63786 0.33791 0.53875 0.0
H356 H 0.68976 0.32443 0.67768 0.0
H357 H 0.68894 0.34825 0.60893 0.0
H358 H 0.62669 0.06148 0.59398 0.0
H359 H 0.61842 0.0859 0.52602 0.0
H360 H 0.60592 0.08508 0.67516 0.0
H361 H 0.6305 0.1326 0.72601 0.0
C362 C 0.31276 0.39058 0.43054 0.0
C363 C 0.25716 0.406 0.44784 0.0
C364 C 0.23182 0.42523 0.35052 0.0
C365 C 0.28308 0.39962 0.33304 0.0
N366 N 0.37255 0.35656 0.3552 0.0
N367 N 0.16304 0.4389 0.42535 0.0
C368 C 0.32414 0.38286 0.37278 0.0
C369 C 0.21677 0.42474 0.40818 0.0
N370 N 0.35454 0.38352 0.46942 0.0
N371 N 0.19729 0.44905 0.31163 0.0
H372 H 0.15068 0.43967 0.4672 0.0
H373 H 0.12955 0.44674 0.39819 0.0
H374 H 0.20779 0.44976 0.26928 0.0
H375 H 0.16153 0.47263 0.32154 0.0
H376 H 0.39739 0.37771 0.45918 0.0
H377 H 0.34718 0.38874 0.51208 0.0
H378 H 0.40093 0.3371 0.38203 0.0
H379 H 0.38313 0.35237 0.31305 0.0
C380 C 0.33412 0.8614 0.58086 0.0
C381 C 0.38959 0.86388 0.55675 0.0
C382 C 0.42781 0.86153 0.65172 0.0
C383 C 0.37352 0.84332 0.67229 0.0
N384 N 0.27718 0.81039 0.64755 0.0
N385 N 0.49195 0.85828 0.57248 0.0
C386 C 0.32736 0.83794 0.63415 0.0
C387 C 0.4376 0.86174 0.593 0.0
N388 N 0.28832 0.88475 0.55514 0.0
N389 N 0.46847 0.8825 0.68707 0.0
H390 H 0.50102 0.85445 0.53007 0.0
H391 H 0.52716 0.85316 0.59844 0.0
H392 H 0.46232 0.88462 0.73015 0.0
H393 H 0.50596 0.90215 0.6724 0.0
H394 H 0.24806 0.88595 0.57412 0.0
H395 H 0.29257 0.90937 0.5192 0.0
H396 H 0.24444 0.80453 0.61849 0.0
H397 H 0.27093 0.78758 0.68427 0.0
C398 C 0.83659 0.60881 0.40617 0.0
C399 C 0.79537 0.63075 0.44376 0.0
C400 C 0.7373 0.66228 0.36562 0.0
C401 C 0.77982 0.64295 0.32807 0.0
N402 N 0.8617 0.58556 0.31041 0.0
N403 N 0.69966 0.66256 0.46023 0.0
C404 C 0.8264 0.61142 0.34773 0.0
C405 C 0.7433 0.65224 0.42367 0.0
N406 N 0.88706 0.58904 0.42617 0.0
N407 N 0.69257 0.69254 0.34582 0.0
H408 H 0.70309 0.65526 0.503 0.0
H409 H 0.65859 0.67305 0.44785 0.0
H410 H 0.6853 0.69797 0.30327 0.0
H411 H 0.66388 0.71382 0.37126 0.0
H412 H 0.9217 0.57875 0.40095 0.0
H413 H 0.89586 0.58593 0.46863 0.0
H414 H 0.89346 0.55771 0.32183 0.0
H415 H 0.85576 0.58794 0.26741 0.0
C416 C 0.50057 0.33795 0.93801 0.0
C417 C 0.5231 0.28257 0.93458 0.0
C418 C 0.45937 0.25177 0.01173 0.0
C419 C 0.44059 0.30814 0.01798 0.0
N420 N 0.44346 0.40574 0.98867 0.0
N421 N 0.52717 0.18728 0.96967 0.0
C422 C 0.46101 0.35131 0.98126 0.0
C423 C 0.50335 0.23958 0.97193 0.0
N424 N 0.51685 0.37805 0.89968 0.0
N425 N 0.43437 0.20986 0.04331 0.0
H426 H 0.557 0.17601 0.93932 0.0
H427 H 0.51981 0.15582 -0.0007 0.0
H428 H 0.40237 0.21773 0.07262 0.0
H429 H 0.44189 0.16699 0.03787 0.0
H430 H 0.49582 0.41596 0.89436 0.0
H431 H 0.54982 0.37269 0.87087 0.0
H432 H 0.4628 0.44085 0.96969 0.0
H433 H 0.41056 0.41659 0.01593 0.0
C434 C 0.28855 0.56161 0.02384 0.0
C435 C 0.33791 0.54129 0.05142 0.0
C436 C 0.3967 0.61525 0.00556 0.0
C437 C 0.34866 0.63182 0.9737 0.0
N438 N 0.25026 0.61661 0.94748 0.0
N439 N 0.44051 0.54253 0.06127 0.0
C440 C 0.29486 0.60394 0.98157 0.0
C441 C 0.39242 0.56648 0.04031 0.0
N442 N 0.23537 0.54207 0.03952 0.0
N443 N 0.44598 0.64749 0.00425 0.0
H444 H 0.43921 0.50658 0.08647 0.0
H445 H 0.48186 0.55499 0.04951 0.0
H446 H 0.45021 0.68453 0.98092 0.0
H447 H 0.48058 0.64091 0.03049 0.0
H448 H 0.19752 0.55934 0.02534 0.0
H449 H 0.22876 0.51157 0.07041 0.0
H450 H 0.21195 0.59331 0.94646 0.0
H451 H 0.25305 0.64819 0.91719 0.0
C452 C 0.57127 0.6754 0.91683 0.0
C453 C 0.55259 0.73197 0.91286 0.0
C454 C 0.61354 0.75876 0.99249 0.0
C455 C 0.63376 0.70259 0.99534 0.0
N456 N 0.64577 0.61336 0.94768 0.0
N457 N 0.56842 0.83025 0.9363 0.0
C458 C 0.61685 0.66268 0.95364 0.0
C459 C 0.5778 0.77451 0.94738 0.0
N460 N 0.54384 0.63306 0.8879 0.0
N461 N 0.62576 0.79646 0.03417 0.0
H462 H 0.54374 0.84334 0.90274 0.0
H463 H 0.58992 0.86338 0.95654 0.0
H464 H 0.65143 0.78683 0.06795 0.0
H465 H 0.6066 0.83571 0.03761 0.0
H466 H 0.55139 0.59032 0.89461 0.0
H467 H 0.51014 0.64002 0.86067 0.0
H468 H 0.63856 0.58515 0.91488 0.0
H469 H 0.68156 0.60383 0.97143 0.0
C470 C 0.78157 0.43305 0.97466 0.0
C471 C 0.72981 0.40057 0.974 0.0
C472 C 0.69055 0.46071 0.04801 0.0
C473 C 0.74369 0.49078 0.05196 0.0
N474 N 0.84385 0.49731 0.02667 0.0
N475 N 0.64195 0.37355 0.02129 0.0
C476 C 0.79047 0.4746 0.01741 0.0
C477 C 0.68651 0.41137 0.01423 0.0
N478 N 0.8213 0.42582 0.9334 0.0
N479 N 0.64281 0.4808 0.07393 0.0
H480 H 0.6387 0.33562 -0.00089 0.0
H481 H 0.61196 0.37666 0.05343 0.0
H482 H 0.64272 0.51818 0.09703 0.0
H483 H 0.6019 0.46369 0.06743 0.0
H484 H 0.85685 0.45261 0.9279 0.0
H485 H 0.81653 0.39537 0.90213 0.0
H486 H 0.8805 0.48322 0.00653 0.0
H487 H 0.85247 0.5265 0.05834 0.0
C488 C 0.93361 0.17501 0.527 0.0
C489 C 0.92477 0.21694 0.48574 0.0
C490 C 0.9877 0.28288 0.53752 0.0
C491 C 1.00283 0.23823 0.57391 0.0
N492 N 0.99585 0.1392 0.59848 0.0
N493 N 0.94468 0.31027 0.44969 0.0
C494 C 0.9769 0.1837 0.56775 0.0
C495 C 0.95171 0.27105 0.49073 0.0
N496 N 0.89955 0.12723 0.52801 0.0
N497 N 1.00693 0.33676 0.54846 0.0
H498 H 0.91736 0.30339 0.41599 0.0
H499 H 0.96819 0.3481 0.44721 0.0
H500 H 0.03287 0.34671 0.58255 0.0
H501 H 0.9934 0.37216 0.52684 0.0
H502 H 0.90009 0.09771 0.56021 0.0
H503 H 0.86642 0.12001 0.49974 0.0
H504 H 0.98357 0.09731 0.59074 0.0
H505 H 1.02768 0.14319 0.62861 0.0
C506 C 0.15736 0.10063 0.4819 0.0
C507 C 0.20394 0.1169 0.51683 0.0
C508 C 0.26722 0.05623 0.46207 0.0
C509 C 0.21904 0.03463 0.43231 0.0
N510 N 0.11663 0.0293 0.4204 0.0
N511 N 0.30238 0.10591 0.54384 0.0
C512 C 0.16363 0.05497 0.44391 0.0
C513 C 0.25878 0.09372 0.50778 0.0
N514 N 0.10788 0.13052 0.48304 0.0
N515 N 0.32127 0.04261 0.44534 0.0
H516 H 0.29846 0.13438 0.57665 0.0
H517 H 0.34106 0.08482 0.54368 0.0
H518 H 0.3294 1.01622 0.41143 0.0
H519 H 0.35822 0.06152 0.46163 0.0
H520 H 0.07465 0.12388 0.45482 0.0
H521 H 0.10245 0.16622 0.50796 0.0
H522 H 0.07487 0.03829 0.43232 0.0
H523 H 0.11925 0.99531 0.39278 0.0
C524 C 0.10263 0.76556 0.4843 0.0
C525 C 0.12815 0.81996 0.47689 0.0
C526 C 0.06878 0.85797 0.5521 0.0
C527 C 0.04447 0.80311 0.56126 0.0
N528 N 0.04694 0.70251 0.54444 0.0
N529 N 0.14769 0.91333 0.51387 0.0
C530 C 0.06397 0.75617 0.52975 0.0
C531 C 0.11494 0.8647 0.51397 0.0
N532 N 0.11388 0.72351 0.44693 0.0
N533 N 0.04603 0.90439 0.57731 0.0
H534 H 0.18324 0.91903 0.48797 0.0
H535 H 0.1438 0.94515 0.54368 0.0
H536 H 1.01225 0.90235 0.60573 0.0
H537 H 0.05734 0.94575 0.56621 0.0
H538 H 0.09158 0.6849 0.44598 0.0
H539 H 0.14345 0.72861 0.41452 0.0
H540 H 0.06372 0.66625 0.52657 0.0
H541 H 1.01975 0.69401 0.5782 0.0
C542 C 0.78852 0.97959 0.45953 0.0
C543 C 0.83747 0.99905 0.42892 0.0
C544 C 0.89462 0.92655 0.47315 0.0
C545 C 0.84848 0.91361 0.51022 0.0
N546 N 0.75267 0.93211 0.54247 0.0
N547 N 0.93971 0.99725 0.41385 0.0
C548 C 0.79555 0.94108 0.50435 0.0
C549 C 0.89128 0.97415 0.43754 0.0
N550 N 0.73503 0.99599 0.44441 0.0
N551 N 0.94079 0.89207 0.47036 0.0
H552 H 0.93956 0.0333 0.38885 0.0
H553 H 0.98067 0.98394 0.42358 0.0
H554 H 0.94325 0.85469 0.4932 0.0
H555 H 0.9733 0.8969 0.44072 0.0
H556 H 0.69759 0.9789 0.4619 0.0
H557 H 0.72755 0.02222 0.41041 0.0
H558 H 0.71595 0.9563 0.54416 0.0
H559 H 0.7556 0.90329 0.57504 0.0
C560 C 0.54686 0.47636 0.4041 0.0
C561 C 0.49024 0.48662 0.38758 0.0
C562 C 0.51157 0.58715 0.38926 0.0
C563 C 0.56866 0.57271 0.37615 0.0
N564 N 0.6427 0.51497 0.41481 0.0
N565 N 0.41706 0.54993 0.41666 0.0
C566 C 0.58753 0.52102 0.39872 0.0
C567 C 0.47146 0.54198 0.39835 0.0
N568 N 0.56296 0.42384 0.41918 0.0
N569 N 0.49663 0.64246 0.39058 0.0
H570 H 0.38985 0.51523 0.42491 0.0
H571 H 0.4009 0.58945 0.42647 0.0
H572 H 0.52757 0.67471 0.38589 0.0
H573 H 0.45484 0.65568 0.39669 0.0
H574 H 0.53369 0.38985 0.4215 0.0
H575 H 0.53369 0.38985 0.4215 0.0
H576 H 0.65743 0.47699 0.43098 0.0
H577 H 0.67172 0.54918 0.41378 0.0
C578 C 0.50631 0.53938 0.65011 0.0
C579 C 0.46804 0.55067 0.69457 0.0
C580 C 0.52708 0.50065 0.75991 0.0
C581 C 0.56538 0.48805 0.71579 0.0
N582 N 0.58823 0.48667 0.61765 0.0
N583 N 0.4362 0.53515 0.78942 0.0
C584 C 0.554 0.50466 0.66025 0.0
C585 C 0.47609 0.52784 0.74821 0.0
N586 N 0.49817 0.56394 0.5993 0.0
N587 N 0.53838 0.48782 0.8141 0.0
H588 H 0.39705 0.55424 0.78227 0.0
H589 H 0.44149 0.51991 0.82989 0.0
H590 H 0.57611 0.46969 0.8278 0.0
H591 H 0.57611 0.46969 0.8278 0.0
H592 H 0.52781 0.56281 0.56676 0.0
H593 H 0.46198 0.58744 0.59055 0.0
H594 H 0.57902 0.49264 0.57566 0.0
H595 H 0.62471 0.46295 0.62442 0.0
C596 C 0.04964 0.07422 0.08157 0.0
C597 C 0.99184 0.06378 0.0964 0.0
C598 C 1.00737 0.96307 0.08689 0.0
C599 C 0.06528 0.97523 0.10069 0.0
N600 N 0.14343 0.03523 0.06845 0.0
N601 N 0.91489 1.00349 0.06468 0.0
C602 C 0.08751 0.02858 0.0834 0.0
C603 C 0.96975 1.00936 0.08282 0.0
N604 N 0.06885 0.12683 0.06741 0.0
N605 N 0.98931 0.90846 0.07939 0.0
H606 H 0.8895 0.03894 0.0598 0.0
H607 H 0.89642 0.96521 0.05181 0.0
H608 H 1.01847 0.87559 0.0781 0.0
H609 H 0.94664 0.89637 0.07392 0.0
H610 H 0.04156 0.16115 0.06484 0.0
H611 H 0.04156 0.16115 0.06484 0.0
H612 H 0.16082 0.07426 0.05584 0.0
H613 H 0.17054 1.0007 0.06706 0.0
C614 C 0.06422 1.01129 0.90287 0.0
C615 C 0.04882 0.06698 0.88851 0.0
C616 C 0.94914 0.03844 0.89377 0.0
C617 C 0.9665 0.98307 0.88029 0.0
N618 N 0.02926 0.91441 0.91897 0.0
N619 N 0.97949 0.13262 0.92095 0.0
C620 C 1.02098 0.9679 0.90025 0.0
C621 C 0.99183 0.081 0.90011 0.0
N622 N 0.11921 1.00117 0.91755 0.0
N623 N 0.89302 0.0511 0.89919 0.0
H624 H 1.01194 0.16231 0.92998 0.0
H625 H 0.93815 0.14206 0.9338 0.0
H626 H 0.86037 1.02036 0.89611 0.0
H627 H 0.86037 1.02036 0.89611 0.0
H628 H 0.13408 0.96128 0.92752 0.0
H629 H 0.14936 0.03437 0.92034 0.0
H630 H 0.06775 0.90071 0.93525 0.0
H631 H 0.99507 0.88529 0.92153 0.0
C632 C 0.3089 0.15577 0.19902 0.0
C633 C 0.25186 0.13319 0.19881 0.0
C634 C 0.21456 0.22888 0.18992 0.0
C635 C 0.27089 0.25204 0.1925 0.0
N636 N 0.3721 0.23824 0.18574 0.0
N637 N 0.15435 0.14684 0.17083 0.0
C638 C 0.31821 0.21541 0.19131 0.0
C639 C 0.20631 0.16946 0.18554 0.0
N640 N 0.35362 0.1216 0.21072 0.0
N641 N 0.16863 0.26294 0.19723 0.0
H642 H 0.14729 0.10333 0.16688 0.0
H643 H 0.12067 0.17135 0.15723 0.0
H644 H 0.17293 0.3064 0.20357 0.0
H645 H 0.12682 0.24749 0.20224 0.0
H646 H 0.39495 0.13665 0.2187 0.0
H647 H 0.34932 0.07794 0.21458 0.0
H648 H 0.40857 0.21429 0.18025 0.0
H649 H 0.37948 0.28175 0.18183 0.0
C650 C 0.21539 0.86541 0.83632 0.0
C651 C 0.24861 0.81694 0.82824 0.0
C652 C 0.15977 0.76088 0.81247 0.0
C653 C 0.12976 0.81195 0.80555 0.0
N654 N 0.12778 0.91337 0.81579 0.0
N655 N 0.25241 0.71601 0.81604 0.0
C656 C 0.15686 0.86419 0.82064 0.0
C657 C 0.22051 0.7635 0.82048 0.0
N658 N 0.24124 0.91357 0.85616 0.0
N659 N 0.13073 0.71026 0.80958 0.0
H660 H 0.29592 0.71605 0.82509 0.0
H661 H 0.23628 0.67701 0.80249 0.0
H662 H 0.08669 0.70741 0.80332 0.0
H663 H 0.14905 0.67159 0.81851 0.0
H664 H 0.21947 0.94998 0.86692 0.0
H665 H 0.2845 0.91483 0.86619 0.0
H666 H 0.14764 0.95317 0.81627 0.0
H667 H 0.08397 0.91422 0.80831 0.0
C668 C 0.84446 0.81989 0.19218 0.0
C669 C 0.79205 0.78899 0.18525 0.0
C670 C 0.74324 0.87799 0.16384 0.0
C671 C 0.79453 0.90901 0.17526 0.0
N672 N 0.89693 0.90938 0.18706 0.0
N673 N 0.69017 0.78873 0.17087 0.0
C674 C 0.84604 0.8798 0.18536 0.0
C675 C 0.7413 0.81794 0.1714 0.0
N676 N 0.89204 0.79213 0.20939 0.0
N677 N 0.69638 0.90599 0.14548 0.0
H678 H 0.68706 0.7448 0.17412 0.0
H679 H 0.65057 0.80803 0.17004 0.0
H680 H 0.6959 0.94988 0.14114 0.0
H681 H 0.65954 0.88569 0.13061 0.0
H682 H 0.92964 0.81208 0.22275 0.0
H683 H 0.89311 0.74831 0.21361 0.0
H684 H 0.93683 0.89084 0.18815 0.0
H685 H 0.89993 0.95307 0.18297 0.0
C686 C 0.90483 0.25322 0.84292 0.0
C687 C 0.93852 0.28435 0.8036 0.0
C688 C 0.8526 0.29423 0.74654 0.0
C689 C 0.82153 0.25539 0.78152 0.0
N690 N 0.82868 0.18358 0.85167 0.0
N691 N 0.94529 0.32816 0.71301 0.0
C692 C 0.85031 0.23116 0.82699 0.0
C693 C 0.91285 0.30213 0.75342 0.0
N694 N 0.92399 0.24503 0.8958 0.0
N695 N 0.82419 0.32661 0.70914 0.0
H696 H 0.98898 0.33677 0.71752 0.0
H697 H 0.92975 0.33663 0.67328 0.0
H698 H 0.77983 0.32618 0.70666 0.0
H699 H 0.84388 0.35893 0.68603 0.0
H700 H 0.89688 0.2297 0.92733 0.0
H701 H 0.96494 0.25726 0.90885 0.0
H702 H 0.84979 0.16261 0.88346 0.0
H703 H 0.7946 0.16111 0.83399 0.0
C704 C 0.81204 0.32173 0.29985 0.0
C705 C 0.76283 0.28551 0.29933 0.0
C706 C 0.70245 0.3688 0.30482 0.0
C707 C 0.75005 0.40413 0.29037 0.0
N708 N 0.85245 0.41477 0.27822 0.0
N709 N 0.66015 0.27474 0.29929 0.0
C710 C 0.80589 0.38117 0.29071 0.0
C711 C 0.70772 0.30911 0.30278 0.0
N712 N 0.86463 0.29871 0.30656 0.0
N713 N 0.65164 0.39264 0.31874 0.0
H714 H 0.66256 0.2309 0.29655 0.0
H715 H 0.61886 0.2898 0.29483 0.0
H716 H 0.64709 0.4364 0.32098 0.0
H717 H 0.61635 0.36929 0.33329 0.0
H718 H 0.90223 0.32259 0.31131 0.0
H719 H 0.86966 0.25538 0.31254 0.0
H720 H 0.89309 0.39923 0.27059 0.0
H721 H 0.85034 0.45838 0.27339 0.0
C722 C 0.39676 0.20531 0.68371 0.0
C723 C 0.43319 0.2496 0.70386 0.0
C724 C 0.35193 0.31381 0.69956 0.0
C725 C 0.31361 0.26731 0.69169 0.0
N726 N 0.29973 0.16681 0.68036 0.0
N727 N 0.44031 0.34399 0.74287 0.0
C728 C 0.33615 0.21259 0.68339 0.0
C729 C 0.40991 0.30391 0.71366 0.0
N730 N 0.42001 0.15592 0.66594 0.0
N731 N 0.33158 0.36742 0.69798 0.0
H732 H 0.47946 0.33598 0.76139 0.0
H733 H 0.42345 0.38254 0.75516 0.0
H734 H 0.28855 0.37517 0.69053 0.0
H735 H 0.35815 0.40342 0.69888 0.0
H736 H 0.39613 0.12379 0.64662 0.0
H737 H 0.4641 0.14963 0.66587 0.0
H738 H 0.31343 0.1252 0.68231 0.0
H739 H 0.25545 0.17069 0.67826 0.0
C740 C 0.23507 0.71625 0.30865 0.0
C741 C 0.28635 0.74848 0.29963 0.0
C742 C 0.34229 0.66194 0.30341 0.0
C743 C 0.29091 0.62935 0.31115 0.0
N744 N 0.19053 0.6258 0.3341 0.0
N745 N 0.38888 0.75493 0.30267 0.0
C746 C 0.23799 0.65677 0.31845 0.0
C747 C 0.34003 0.72207 0.30177 0.0
N748 N 0.18344 0.74189 0.30432 0.0
N749 N 0.39309 0.6353 0.29571 0.0
H750 H 0.38803 0.79906 0.30169 0.0
H751 H 0.42947 0.73914 0.30956 0.0
H752 H 0.39735 0.59177 0.29998 0.0
H753 H 0.4306 0.65587 0.28253 0.0
H754 H 0.14434 0.71997 0.30328 0.0
H755 H 0.17981 0.78541 0.29913 0.0
H756 H 0.15173 0.64368 0.34505 0.0
H757 H 0.19126 0.58215 0.34032 0.0
C758 C 0.64397 0.73594 0.68388 0.0
C759 C 0.62428 0.79126 0.69499 0.0
C760 C 0.72385 0.82714 0.68934 0.0
C761 C 0.74353 0.77076 0.69224 0.0
N762 N 0.72172 0.67078 0.69512 0.0
N763 N 0.64457 0.89099 0.70243 0.0
C764 C 0.70345 0.7249 0.68913 0.0
C765 C 0.6641 0.83745 0.69481 0.0
N766 N 0.60607 0.69379 0.66935 0.0
N767 N 0.76262 0.87077 0.6837 0.0
H768 H 0.60101 0.89966 0.70333 0.0
H769 H 0.67083 0.92632 0.70961 0.0
H770 H 0.80613 0.86396 0.67879 0.0
H771 H 0.75177 0.91289 0.67868 0.0
H772 H 0.61855 0.65354 0.65719 0.0
H773 H 0.56294 0.70107 0.66244 0.0
H774 H 0.69404 0.63596 0.69987 0.0
H775 H 0.76479 0.6613 0.69947 0.0
loop_
_geom_bond_atom_site_label_1
_geom_bond_atom_site_label_2
_geom_bond_distance
_geom_bond_site_symmetry_2
_ccdc_geom_bond_type
Zn0 N4 2.020 . S
Zn0 O8 2.019 . S
Zn0 N10 2.119 . S
Zn0 O18 1.975 . S
C1 N2 1.334 . S
C1 N5 1.336 . S
N2 C1 1.334 . S
N2 C3 1.334 . S
C3 N2 1.334 . S
C3 N4 1.336 . S
N4 Zn0 2.020 . S
N4 C3 1.336 . S
N4 N5 1.354 . S
N5 C1 1.336 . S
N5 N4 1.354 . S
N5 Zn9 2.020 . S
C6 O7 1.244 . S
C6 O30 1.257 . S
O7 C6 1.244 . S
O8 Zn0 2.019 . S
O8 C28 1.257 . S
Zn9 N5 2.020 . S
Zn9 O16 1.975 . S
Zn9 N25 2.119 . S
Zn9 O30 2.019 . S
N10 Zn0 2.119 . S
N10 C12 1.334 . S
N10 C13 1.328 . S
C11 C12 1.391 . S
C11 N14 1.329 . S
C11 H32 0.930 . S
C12 N10 1.334 . S
C12 C11 1.391 . S
C12 H19 0.930 . S
C13 N10 1.328 . S
C13 C15 1.392 1_554 S
C13 H20 0.930 . S
N14 C11 1.329 . S
N14 C15 1.331 1_554 S
C15 C13 1.392 1_556 S
C15 N14 1.331 1_556 S
O16 Zn9 1.975 . S
O16 C17 1.252 . S
C17 O16 1.252 . S
C17 O18 1.252 . S
O18 Zn0 1.975 . S
O18 C17 1.252 . S
H19 C12 0.930 . S
H20 C13 0.930 . S
C21 C22 1.392 . S
C21 N25 1.328 . S
C21 H27 0.930 . S
C22 C21 1.392 . S
C22 N26 1.331 . S
C23 C24 1.391 . S
C23 N26 1.329 . S
C23 H33 0.930 . S
C24 C23 1.391 . S
C24 N25 1.334 . S
C24 H31 0.930 . S
N25 Zn9 2.119 . S
N25 C21 1.328 . S
N25 C24 1.334 . S
N26 C22 1.331 . S
N26 C23 1.329 . S
H27 C21 0.930 . S
C28 O8 1.257 . S
C28 O29 1.244 . S
O29 C28 1.244 . S
O30 C6 1.257 . S
O30 Zn9 2.019 . S
H31 C24 0.930 . S
H32 C11 0.930 . S
H33 C23 0.930 . S
Zn34 N38 2.020 . S
Zn34 O42 2.019 . S
Zn34 N44 2.119 . S
Zn34 O52 1.975 . S
C35 N36 1.334 . S
C35 N39 1.336 . S
N36 C35 1.334 . S
N36 C37 1.334 . S
C37 N36 1.334 . S
C37 N38 1.336 . S
N38 Zn34 2.020 . S
N38 C37 1.336 . S
N38 N39 1.354 . S
N39 C35 1.336 . S
N39 N38 1.354 . S
N39 Zn43 2.020 . S
C40 O41 1.244 . S
C40 O64 1.257 . S
O41 C40 1.244 . S
O42 Zn34 2.019 . S
O42 C62 1.257 . S
Zn43 N39 2.020 . S
Zn43 O50 1.975 . S
Zn43 N59 2.119 . S
Zn43 O64 2.019 . S
N44 Zn34 2.119 . S
N44 C46 1.334 . S
N44 C47 1.328 . S
C45 C46 1.391 . S
C45 N48 1.329 . S
C45 H66 0.930 . S
C46 N44 1.334 . S
C46 C45 1.391 . S
C46 H53 0.930 . S
C47 N44 1.328 . S
C47 C49 1.392 . S
C47 H54 0.930 . S
N48 C45 1.329 . S
N48 C49 1.331 . S
C49 C47 1.392 . S
C49 N48 1.331 . S
O50 Zn43 1.975 . S
O50 C51 1.252 . S
C51 O50 1.252 . S
C51 O52 1.252 . S
O52 Zn34 1.975 . S
O52 C51 1.252 . S
H53 C46 0.930 . S
H54 C47 0.930 . S
C55 C56 1.392 1_556 S
C55 N59 1.328 . S
C55 H61 0.930 . S
C56 C55 1.392 1_554 S
C56 N60 1.331 1_554 S
C57 C58 1.391 . S
C57 N60 1.329 . S
C57 H67 0.930 . S
C58 C57 1.391 . S
C58 N59 1.334 . S
C58 H65 0.930 . S
N59 Zn43 2.119 . S
N59 C55 1.328 . S
N59 C58 1.334 . S
N60 C56 1.331 1_556 S
N60 C57 1.329 . S
H61 C55 0.930 . S
C62 O42 1.257 . S
C62 O63 1.244 . S
O63 C62 1.244 . S
O64 C40 1.257 . S
O64 Zn43 2.019 . S
H65 C58 0.930 . S
H66 C45 0.930 . S
H67 C57 0.930 . S
Zn68 N72 2.020 . S
Zn68 O76 2.019 . S
Zn68 N78 2.119 . S
Zn68 O86 1.975 . S
C69 N70 1.334 . S
C69 N73 1.336 . S
N70 C69 1.334 . S
N70 C71 1.334 . S
C71 N70 1.334 . S
C71 N72 1.336 . S
N72 Zn68 2.020 . S
N72 C71 1.336 . S
N72 N73 1.354 . S
N73 C69 1.336 . S
N73 N72 1.354 . S
N73 Zn77 2.020 . S
C74 O75 1.244 . S
C74 O98 1.257 . S
O75 C74 1.244 . S
O76 Zn68 2.019 . S
O76 C96 1.257 . S
Zn77 N73 2.020 . S
Zn77 O84 1.975 . S
Zn77 N93 2.119 . S
Zn77 O98 2.019 . S
N78 Zn68 2.119 . S
N78 C80 1.334 . S
N78 C81 1.328 . S
C79 C80 1.391 . S
C79 N82 1.329 . S
C79 H100 0.930 . S
C80 N78 1.334 . S
C80 C79 1.391 . S
C80 H87 0.930 . S
C81 N78 1.328 . S
C81 C83 1.392 . S
C81 H88 0.930 . S
N82 C79 1.329 . S
N82 C83 1.331 . S
C83 C81 1.392 . S
C83 N82 1.331 . S
O84 Zn77 1.975 . S
O84 C85 1.252 . S
C85 O84 1.252 . S
C85 O86 1.252 . S
O86 Zn68 1.975 . S
O86 C85 1.252 . S
H87 C80 0.930 . S
H88 C81 0.930 . S
C89 C90 1.392 1_554 S
C89 N93 1.328 . S
C89 H95 0.930 . S
C90 C89 1.392 1_556 S
C90 N94 1.331 1_556 S
C91 C92 1.391 . S
C91 N94 1.329 . S
C91 H101 0.930 . S
C92 C91 1.391 . S
C92 N93 1.334 . S
C92 H99 0.930 . S
N93 Zn77 2.119 . S
N93 C89 1.328 . S
N93 C92 1.334 . S
N94 C90 1.331 1_554 S
N94 C91 1.329 . S
H95 C89 0.930 . S
C96 O76 1.257 . S
C96 O97 1.244 . S
O97 C96 1.244 . S
O98 C74 1.257 . S
O98 Zn77 2.019 . S
H99 C92 0.930 . S
H100 C79 0.930 . S
H101 C91 0.930 . S
Zn102 N106 2.020 . S
Zn102 O110 2.019 . S
Zn102 N112 2.119 . S
Zn102 O120 1.975 . S
C103 N104 1.334 . S
C103 N107 1.336 . S
N104 C103 1.334 . S
N104 C105 1.334 . S
C105 N104 1.334 . S
C105 N106 1.336 . S
N106 Zn102 2.020 . S
N106 C105 1.336 . S
N106 N107 1.354 . S
N107 C103 1.336 . S
N107 N106 1.354 . S
N107 Zn111 2.020 . S
C108 O109 1.244 . S
C108 O132 1.257 . S
O109 C108 1.244 . S
O110 Zn102 2.019 . S
O110 C130 1.257 . S
Zn111 N107 2.020 . S
Zn111 O118 1.975 . S
Zn111 N127 2.119 . S
Zn111 O132 2.019 . S
N112 Zn102 2.119 . S
N112 C114 1.334 . S
N112 C115 1.328 . S
C113 C114 1.391 . S
C113 N116 1.329 . S
C113 H134 0.930 . S
C114 N112 1.334 . S
C114 C113 1.391 . S
C114 H121 0.930 . S
C115 N112 1.328 . S
C115 C117 1.392 . S
C115 H122 0.930 . S
N116 C113 1.329 . S
N116 C117 1.331 . S
C117 C115 1.392 . S
C117 N116 1.331 . S
O118 Zn111 1.975 . S
O118 C119 1.252 . S
C119 O118 1.252 . S
C119 O120 1.252 . S
O120 Zn102 1.975 . S
O120 C119 1.252 . S
H121 C114 0.930 . S
H122 C115 0.930 . S
C123 C124 1.392 1_556 S
C123 N127 1.328 . S
C123 H129 0.930 . S
C124 C123 1.392 1_554 S
C124 N128 1.331 1_554 S
C125 C126 1.391 . S
C125 N128 1.329 . S
C125 H135 0.930 . S
C126 C125 1.391 . S
C126 N127 1.334 . S
C126 H133 0.930 . S
N127 Zn111 2.119 . S
N127 C123 1.328 . S
N127 C126 1.334 . S
N128 C124 1.331 1_556 S
N128 C125 1.329 . S
H129 C123 0.930 . S
C130 O110 1.257 . S
C130 O131 1.244 . S
O131 C130 1.244 . S
O132 C108 1.257 . S
O132 Zn111 2.019 . S
H133 C126 0.930 . S
H134 C113 0.930 . S
H135 C125 0.930 . S
Zn136 N140 2.020 . S
Zn136 O144 2.019 . S
Zn136 N146 2.119 . S
Zn136 O154 1.975 . S
C137 N138 1.334 . S
C137 N141 1.336 . S
N138 C137 1.334 . S
N138 C139 1.334 . S
C139 N138 1.334 . S
C139 N140 1.336 . S
N140 Zn136 2.020 . S
N140 C139 1.336 . S
N140 N141 1.354 . S
N141 C137 1.336 . S
N141 N140 1.354 . S
N141 Zn145 2.020 . S
C142 O143 1.244 . S
C142 O166 1.257 . S
O143 C142 1.244 . S
O144 Zn136 2.019 . S
O144 C164 1.257 . S
Zn145 N141 2.020 . S
Zn145 O152 1.975 . S
Zn145 N161 2.119 . S
Zn145 O166 2.019 1_545 S
N146 Zn136 2.119 . S
N146 C148 1.334 . S
N146 C149 1.328 . S
C147 C148 1.391 . S
C147 N150 1.329 . S
C147 H168 0.930 . S
C148 N146 1.334 . S
C148 C147 1.391 . S
C148 H155 0.930 . S
C149 N146 1.328 . S
C149 C151 1.392 . S
C149 H156 0.930 . S
N150 C147 1.329 . S
N150 C151 1.331 . S
C151 C149 1.392 . S
C151 N150 1.331 . S
O152 Zn145 1.975 . S
O152 C153 1.252 . S
C153 O152 1.252 . S
C153 O154 1.252 . S
O154 Zn136 1.975 . S
O154 C153 1.252 . S
H155 C148 0.930 . S
H156 C149 0.930 . S
C157 C158 1.392 . S
C157 N161 1.328 1_565 S
C157 H163 0.930 . S
C158 C157 1.392 . S
C158 N162 1.331 1_565 S
C159 C160 1.391 . S
C159 N162 1.329 . S
C159 H169 0.930 . S
C160 C159 1.391 . S
C160 N161 1.334 . S
C160 H167 0.930 . S
N161 Zn145 2.119 . S
N161 C157 1.328 1_545 S
N161 C160 1.334 . S
N162 C158 1.331 1_545 S
N162 C159 1.329 . S
H163 C157 0.930 . S
C164 O144 1.257 . S
C164 O165 1.244 . S
O165 C164 1.244 . S
O166 C142 1.257 . S
O166 Zn145 2.019 1_565 S
H167 C160 0.930 . S
H168 C147 0.930 . S
H169 C159 0.930 . S
Zn170 N174 2.020 . S
Zn170 O178 2.019 1_455 S
Zn170 N180 2.119 . S
Zn170 O188 1.975 . S
C171 N172 1.334 . S
C171 N175 1.336 . S
N172 C171 1.334 . S
N172 C173 1.334 . S
C173 N172 1.334 . S
C173 N174 1.336 . S
N174 Zn170 2.020 . S
N174 C173 1.336 . S
N174 N175 1.354 . S
N175 C171 1.336 . S
N175 N174 1.354 . S
N175 Zn179 2.020 . S
C176 O177 1.244 . S
C176 O200 1.257 . S
O177 C176 1.244 . S
O178 Zn170 2.019 1_655 S
O178 C198 1.257 . S
Zn179 N175 2.020 . S
Zn179 O186 1.975 . S
Zn179 N195 2.119 . S
Zn179 O200 2.019 . S
N180 Zn170 2.119 . S
N180 C182 1.334 . S
N180 C183 1.328 1_455 S
C181 C182 1.391 . S
C181 N184 1.329 . S
C181 H202 0.930 . S
C182 N180 1.334 . S
C182 C181 1.391 . S
C182 H189 0.930 . S
C183 N180 1.328 1_655 S
C183 C185 1.392 . S
C183 H190 0.930 . S
N184 C181 1.329 . S
N184 C185 1.331 1_455 S
C185 C183 1.392 . S
C185 N184 1.331 1_655 S
O186 Zn179 1.975 . S
O186 C187 1.252 . S
C187 O186 1.252 . S
C187 O188 1.252 . S
O188 Zn170 1.975 . S
O188 C187 1.252 . S
H189 C182 0.930 . S
H190 C183 0.930 . S
C191 C192 1.392 . S
C191 N195 1.328 . S
C191 H197 0.930 . S
C192 C191 1.392 . S
C192 N196 1.331 . S
C193 C194 1.391 . S
C193 N196 1.329 . S
C193 H203 0.930 . S
C194 C193 1.391 . S
C194 N195 1.334 . S
C194 H201 0.930 . S
N195 Zn179 2.119 . S
N195 C191 1.328 . S
N195 C194 1.334 . S
N196 C192 1.331 . S
N196 C193 1.329 . S
H197 C191 0.930 . S
C198 O178 1.257 . S
C198 O199 1.244 . S
O199 C198 1.244 . S
O200 C176 1.257 . S
O200 Zn179 2.019 . S
H201 C194 0.930 . S
H202 C181 0.930 . S
H203 C193 0.930 . S
Zn204 N208 2.020 . S
Zn204 O212 2.019 . S
Zn204 N214 2.119 . S
Zn204 O222 1.975 . S
C205 N206 1.334 . S
C205 N209 1.336 . S
N206 C205 1.334 . S
N206 C207 1.334 . S
C207 N206 1.334 . S
C207 N208 1.336 . S
N208 Zn204 2.020 . S
N208 C207 1.336 . S
N208 N209 1.354 . S
N209 C205 1.336 . S
N209 N208 1.354 . S
N209 Zn213 2.020 . S
C210 O211 1.244 . S
C210 O234 1.257 . S
O211 C210 1.244 . S
O212 Zn204 2.019 . S
O212 C232 1.257 . S
Zn213 N209 2.020 . S
Zn213 O220 1.975 . S
Zn213 N229 2.119 . S
Zn213 O234 2.019 1_565 S
N214 Zn204 2.119 . S
N214 C216 1.334 . S
N214 C217 1.328 . S
C215 C216 1.391 . S
C215 N218 1.329 . S
C215 H236 0.930 . S
C216 N214 1.334 . S
C216 C215 1.391 . S
C216 H223 0.930 . S
C217 N214 1.328 . S
C217 C219 1.392 . S
C217 H224 0.930 . S
N218 C215 1.329 . S
N218 C219 1.331 . S
C219 C217 1.392 . S
C219 N218 1.331 . S
O220 Zn213 1.975 . S
O220 C221 1.252 . S
C221 O220 1.252 . S
C221 O222 1.252 . S
O222 Zn204 1.975 . S
O222 C221 1.252 . S
H223 C216 0.930 . S
H224 C217 0.930 . S
C225 C226 1.392 . S
C225 N229 1.328 1_545 S
C225 H231 0.930 . S
C226 C225 1.392 . S
C226 N230 1.331 1_545 S
C227 C228 1.391 . S
C227 N230 1.329 . S
C227 H237 0.930 . S
C228 C227 1.391 . S
C228 N229 1.334 . S
C228 H235 0.930 . S
N229 Zn213 2.119 . S
N229 C225 1.328 1_565 S
N229 C228 1.334 . S
N230 C226 1.331 1_565 S
N230 C227 1.329 . S
H231 C225 0.930 . S
C232 O212 1.257 . S
C232 O233 1.244 . S
O233 C232 1.244 . S
O234 C210 1.257 . S
O234 Zn213 2.019 1_545 S
H235 C228 0.930 . S
H236 C215 0.930 . S
H237 C227 0.930 . S
Zn238 N242 2.020 . S
Zn238 O246 2.019 1_655 S
Zn238 N248 2.119 . S
Zn238 O256 1.975 . S
C239 N240 1.334 . S
C239 N243 1.336 . S
N240 C239 1.334 . S
N240 C241 1.334 . S
C241 N240 1.334 . S
C241 N242 1.336 . S
N242 Zn238 2.020 . S
N242 C241 1.336 . S
N242 N243 1.354 . S
N243 C239 1.336 . S
N243 N242 1.354 . S
N243 Zn247 2.020 . S
C244 O245 1.244 . S
C244 O268 1.257 . S
O245 C244 1.244 . S
O246 Zn238 2.019 1_455 S
O246 C266 1.257 . S
Zn247 N243 2.020 . S
Zn247 O254 1.975 . S
Zn247 N263 2.119 . S
Zn247 O268 2.019 . S
N248 Zn238 2.119 . S
N248 C250 1.334 . S
N248 C251 1.328 1_655 S
C249 C250 1.391 . S
C249 N252 1.329 . S
C249 H270 0.930 . S
C250 N248 1.334 . S
C250 C249 1.391 . S
C250 H257 0.930 . S
C251 N248 1.328 1_455 S
C251 C253 1.392 . S
C251 H258 0.930 . S
N252 C249 1.329 . S
N252 C253 1.331 1_655 S
C253 C251 1.392 . S
C253 N252 1.331 1_455 S
O254 Zn247 1.975 . S
O254 C255 1.252 . S
C255 O254 1.252 . S
C255 O256 1.252 . S
O256 Zn238 1.975 . S
O256 C255 1.252 . S
H257 C250 0.930 . S
H258 C251 0.930 . S
C259 C260 1.392 . S
C259 N263 1.328 . S
C259 H265 0.930 . S
C260 C259 1.392 . S
C260 N264 1.331 . S
C261 C262 1.391 . S
C261 N264 1.329 . S
C261 H271 0.930 . S
C262 C261 1.391 . S
C262 N263 1.334 . S
C262 H269 0.930 . S
N263 Zn247 2.119 . S
N263 C259 1.328 . S
N263 C262 1.334 . S
N264 C260 1.331 . S
N264 C261 1.329 . S
H265 C259 0.930 . S
C266 O246 1.257 . S
C266 O267 1.244 . S
O267 C266 1.244 . S
O268 C244 1.257 . S
O268 Zn247 2.019 . S
H269 C262 0.930 . S
H270 C249 0.930 . S
H271 C261 0.930 . S
C272 C273 1.363 . S
C272 C278 1.379 . S
C272 N280 1.356 . S
C273 C272 1.363 . S
C273 C279 1.363 . S
C274 C275 1.363 . S
C274 C279 1.379 . S
C274 N281 1.356 . S
C275 C274 1.363 . S
C275 C278 1.363 . S
N276 C278 1.356 . S
N276 H288 0.984 . S
N276 H289 0.985 . S
N277 C279 1.356 . S
N277 H282 0.984 1_556 S
N277 H283 0.985 . S
C278 C272 1.379 . S
C278 C275 1.363 . S
C278 N276 1.356 . S
C279 C273 1.363 . S
C279 C274 1.379 . S
C279 N277 1.356 . S
N280 C272 1.356 . S
N280 H286 0.984 . S
N280 H287 0.984 . S
N281 C274 1.356 . S
N281 H284 0.984 . S
N281 H285 0.985 . S
H282 N277 0.984 1_554 S
H283 N277 0.985 . S
H284 N281 0.984 . S
H285 N281 0.985 . S
H286 N280 0.984 . S
H287 N280 0.984 . S
H288 N276 0.984 . S
H289 N276 0.985 . S
C290 C291 1.363 . S
C290 C296 1.379 . S
C290 N298 1.356 . S
C291 C290 1.363 . S
C291 C297 1.363 . S
C292 C293 1.363 . S
C292 C297 1.379 . S
C292 N299 1.356 . S
C293 C292 1.363 . S
C293 C296 1.363 . S
N294 C296 1.356 . S
N294 H306 0.984 . S
N294 H307 0.985 . S
N295 C297 1.356 . S
N295 H300 0.984 1_554 S
N295 H301 0.985 . S
C296 C290 1.379 . S
C296 C293 1.363 . S
C296 N294 1.356 . S
C297 C291 1.363 . S
C297 C292 1.379 . S
C297 N295 1.356 . S
N298 C290 1.356 . S
N298 H304 0.984 1_565 S
N298 H305 0.984 . S
N299 C292 1.356 . S
N299 H302 0.984 . S
N299 H303 0.985 . S
H300 N295 0.984 1_556 S
H301 N295 0.985 . S
H302 N299 0.984 . S
H303 N299 0.985 . S
H304 N298 0.984 1_545 S
H305 N298 0.984 . S
H306 N294 0.984 . S
H307 N294 0.985 . S
C308 C309 1.363 . S
C308 C314 1.379 . S
C308 N316 1.356 . S
C309 C308 1.363 . S
C309 C315 1.363 . S
C310 C311 1.363 . S
C310 C315 1.379 . S
C310 N317 1.356 . S
C311 C310 1.363 . S
C311 C314 1.363 . S
N312 C314 1.356 . S
N312 H324 0.984 . S
N312 H325 0.985 . S
N313 C315 1.356 . S
N313 H318 0.984 . S
N313 H319 0.985 . S
C314 C308 1.379 . S
C314 C311 1.363 . S
C314 N312 1.356 . S
C315 C309 1.363 . S
C315 C310 1.379 . S
C315 N313 1.356 . S
N316 C308 1.356 . S
N316 H322 0.984 . S
N316 H323 0.984 . S
N317 C310 1.356 . S
N317 H320 0.970 1_556 S
N317 H321 0.985 . S
H318 N313 0.984 . S
H319 N313 0.985 . S
H320 N317 0.970 1_554 S
H321 N317 0.985 . S
H322 N316 0.984 . S
H323 N316 0.984 . S
H324 N312 0.984 . S
H325 N312 0.985 . S
C326 C327 1.363 . S
C326 C332 1.379 . S
C326 N334 1.356 . S
C327 C326 1.363 . S
C327 C333 1.363 . S
C328 C329 1.363 . S
C328 C333 1.379 . S
C328 N335 1.356 . S
C329 C328 1.363 . S
C329 C332 1.363 . S
N330 C332 1.356 . S
N330 H342 0.984 . S
N330 H343 0.985 . S
N331 C333 1.356 . S
N331 H336 0.984 . S
N331 H337 0.985 . S
C332 C326 1.379 . S
C332 C329 1.363 . S
C332 N330 1.356 . S
C333 C327 1.363 . S
C333 C328 1.379 . S
C333 N331 1.356 . S
N334 C326 1.356 . S
N334 H340 0.984 . S
N334 H341 0.984 . S
N335 C328 1.356 . S
N335 H338 0.984 . S
N335 H339 0.985 1_545 S
H336 N331 0.984 . S
H337 N331 0.985 . S
H338 N335 0.984 . S
H339 N335 0.985 1_565 S
H340 N334 0.984 . S
H341 N334 0.984 . S
H342 N330 0.984 . S
H343 N330 0.985 . S
C344 C345 1.363 . S
C344 C350 1.379 . S
C344 N352 1.356 . S
C345 C344 1.363 . S
C345 C351 1.363 . S
C346 C347 1.363 . S
C346 C351 1.379 . S
C346 N353 1.356 . S
C347 C346 1.363 . S
C347 C350 1.363 . S
N348 C350 1.356 . S
N348 H360 0.984 . S
N348 H361 0.985 . S
N349 C351 1.356 . S
N349 H354 0.984 . S
N349 H355 0.985 . S
C350 C344 1.379 . S
C350 C347 1.363 . S
C350 N348 1.356 . S
C351 C345 1.363 . S
C351 C346 1.379 . S
C351 N349 1.356 . S
N352 C344 1.356 . S
N352 H358 0.984 . S
N352 H359 0.984 . S
N353 C346 1.356 . S
N353 H356 0.984 . S
N353 H357 0.985 . S
H354 N349 0.984 . S
H355 N349 0.985 . S
H356 N353 0.984 . S
H357 N353 0.985 . S
H358 N352 0.984 . S
H359 N352 0.984 . S
H360 N348 0.984 . S
H361 N348 0.985 . S
C362 C363 1.363 . S
C362 C368 1.379 . S
C362 N370 1.356 . S
C363 C362 1.363 . S
C363 C369 1.363 . S
C364 C365 1.363 . S
C364 C369 1.379 . S
C364 N371 1.356 . S
C365 C364 1.363 . S
C365 C368 1.363 . S
N366 C368 1.356 . S
N366 H378 0.984 . S
N366 H379 0.985 . S
N367 C369 1.356 . S
N367 H372 0.984 . S
N367 H373 0.985 . S
C368 C362 1.379 . S
C368 C365 1.363 . S
C368 N366 1.356 . S
C369 C363 1.363 . S
C369 C364 1.379 . S
C369 N367 1.356 . S
N370 C362 1.356 . S
N370 H376 0.984 . S
N370 H377 0.984 . S
N371 C364 1.356 . S
N371 H374 0.984 . S
N371 H375 0.985 . S
H372 N367 0.984 . S
H373 N367 0.985 . S
H374 N371 0.984 . S
H375 N371 0.985 . S
H376 N370 0.984 . S
H377 N370 0.984 . S
H378 N366 0.984 . S
H379 N366 0.985 . S
C380 C381 1.363 . S
C380 C386 1.379 . S
C380 N388 1.356 . S
C381 C380 1.363 . S
C381 C387 1.363 . S
C382 C383 1.363 . S
C382 C387 1.379 . S
C382 N389 1.356 . S
C383 C382 1.363 . S
C383 C386 1.363 . S
N384 C386 1.356 . S
N384 H396 0.984 . S
N384 H397 0.985 . S
N385 C387 1.356 . S
N385 H390 0.984 . S
N385 H391 0.985 . S
C386 C380 1.379 . S
C386 C383 1.363 . S
C386 N384 1.356 . S
C387 C381 1.363 . S
C387 C382 1.379 . S
C387 N385 1.356 . S
N388 C380 1.356 . S
N388 H394 0.984 . S
N388 H395 0.984 . S
N389 C382 1.356 . S
N389 H392 0.984 . S
N389 H393 0.985 . S
H390 N385 0.984 . S
H391 N385 0.985 . S
H392 N389 0.984 . S
H393 N389 0.985 . S
H394 N388 0.984 . S
H395 N388 0.984 . S
H396 N384 0.984 . S
H397 N384 0.985 . S
C398 C399 1.363 . S
C398 C404 1.379 . S
C398 N406 1.356 . S
C399 C398 1.363 . S
C399 C405 1.363 . S
C400 C401 1.363 . S
C400 C405 1.379 . S
C400 N407 1.356 . S
C401 C400 1.363 . S
C401 C404 1.363 . S
N402 C404 1.356 . S
N402 H414 0.984 . S
N402 H415 0.985 . S
N403 C405 1.356 . S
N403 H408 0.984 . S
N403 H409 0.985 . S
C404 C398 1.379 . S
C404 C401 1.363 . S
C404 N402 1.356 . S
C405 C399 1.363 . S
C405 C400 1.379 . S
C405 N403 1.356 . S
N406 C398 1.356 . S
N406 H412 0.984 . S
N406 H413 0.984 . S
N407 C400 1.356 . S
N407 H410 0.984 . S
N407 H411 0.985 . S
H408 N403 0.984 . S
H409 N403 0.985 . S
H410 N407 0.984 . S
H411 N407 0.985 . S
H412 N406 0.984 . S
H413 N406 0.984 . S
H414 N402 0.984 . S
H415 N402 0.985 . S
C416 C417 1.363 . S
C416 C422 1.379 1_556 S
C416 N424 1.357 . S
C417 C416 1.363 . S
C417 C423 1.363 . S
C418 C419 1.363 1_556 S
C418 C423 1.379 . S
C418 N425 1.356 . S
C419 C418 1.363 1_554 S
C419 C422 1.363 . S
N420 C422 1.356 . S
N420 H432 0.984 . S
N420 H433 0.985 . S
N421 C423 1.356 . S
N421 H426 0.984 . S
N421 H427 0.985 . S
C422 C416 1.379 1_554 S
C422 C419 1.363 . S
C422 N420 1.356 . S
C423 C417 1.363 . S
C423 C418 1.379 . S
C423 N421 1.356 . S
N424 C416 1.357 . S
N424 H430 0.979 1_556 S
N424 H431 0.989 . S
N425 C418 1.356 . S
N425 H428 0.984 . S
N425 H429 0.985 . S
H426 N421 0.984 . S
H427 N421 0.985 . S
H428 N425 0.984 . S
H429 N425 0.985 . S
H430 N424 0.979 1_554 S
H431 N424 0.989 . S
H432 N420 0.984 . S
H433 N420 0.985 . S
C434 C435 1.363 1_556 S
C434 C440 1.379 . S
C434 N442 1.356 . S
C435 C434 1.363 1_554 S
C435 C441 1.363 . S
C436 C437 1.363 1_554 S
C436 C441 1.379 . S
C436 N443 1.356 . S
C437 C436 1.363 1_556 S
C437 C440 1.363 . S
N438 C440 1.356 . S
N438 H450 0.984 . S
N438 H451 0.985 . S
N439 C441 1.356 . S
N439 H444 0.984 . S
N439 H445 0.985 . S
C440 C434 1.379 . S
C440 C437 1.363 . S
C440 N438 1.356 . S
C441 C435 1.363 . S
C441 C436 1.379 . S
C441 N439 1.356 . S
N442 C434 1.356 . S
N442 H448 0.984 . S
N442 H449 0.984 1_556 S
N443 C436 1.356 . S
N443 H446 0.984 . S
N443 H447 0.985 . S
H444 N439 0.984 . S
H445 N439 0.985 . S
H446 N443 0.984 . S
H447 N443 0.985 . S
H448 N442 0.984 . S
H449 N442 0.984 1_554 S
H450 N438 0.984 . S
H451 N438 0.985 . S
C452 C453 1.363 . S
C452 C458 1.379 1_556 S
C452 N460 1.356 . S
C453 C452 1.363 . S
C453 C459 1.363 . S
C454 C455 1.363 1_556 S
C454 C459 1.379 . S
C454 N461 1.356 . S
C455 C454 1.363 1_554 S
C455 C458 1.363 . S
N456 C458 1.356 . S
N456 H468 0.984 . S
N456 H469 0.985 . S
N457 C459 1.356 . S
N457 H462 0.984 . S
N457 H463 0.985 . S
C458 C452 1.379 1_554 S
C458 C455 1.363 . S
C458 N456 1.356 . S
C459 C453 1.363 . S
C459 C454 1.379 . S
C459 N457 1.356 . S
N460 C452 1.356 . S
N460 H466 0.984 1_556 S
N460 H467 0.984 . S
N461 C454 1.356 . S
N461 H464 0.984 . S
N461 H465 0.985 . S
H462 N457 0.984 . S
H463 N457 0.985 . S
H464 N461 0.984 . S
H465 N461 0.985 . S
H466 N460 0.984 1_554 S
H467 N460 0.984 . S
H468 N456 0.984 . S
H469 N456 0.985 . S
C470 C471 1.363 . S
C470 C476 1.379 1_556 S
C470 N478 1.356 . S
C471 C470 1.363 . S
C471 C477 1.363 1_556 S
C472 C473 1.363 . S
C472 C477 1.379 . S
C472 N479 1.356 . S
C473 C472 1.363 . S
C473 C476 1.363 . S
N474 C476 1.356 1_556 S
N474 H486 0.984 . S
N474 H487 0.985 1_556 S
N475 C477 1.356 . S
N475 H480 0.984 . S
N475 H481 0.985 . S
C476 C470 1.379 1_554 S
C476 C473 1.363 . S
C476 N474 1.356 1_554 S
C477 C471 1.363 1_554 S
C477 C472 1.379 . S
C477 N475 1.356 . S
N478 C470 1.356 . S
N478 H484 0.984 . S
N478 H485 0.984 . S
N479 C472 1.356 . S
N479 H482 0.984 . S
N479 H483 0.985 . S
H480 N475 0.984 . S
H481 N475 0.985 . S
H482 N479 0.984 . S
H483 N479 0.985 . S
H484 N478 0.984 . S
H485 N478 0.984 . S
H486 N474 0.984 . S
H487 N474 0.985 1_554 S
C488 C489 1.363 . S
C488 C494 1.379 . S
C488 N496 1.356 . S
C489 C488 1.363 . S
C489 C495 1.363 . S
C490 C491 1.363 . S
C490 C495 1.379 . S
C490 N497 1.356 . S
C491 C490 1.363 . S
C491 C494 1.363 . S
N492 C494 1.356 1_455 S
N492 H504 0.984 . S
N492 H505 0.985 . S
N493 C495 1.356 . S
N493 H498 0.984 . S
N493 H499 0.985 . S
C494 C488 1.379 . S
C494 C491 1.363 . S
C494 N492 1.356 1_655 S
C495 C489 1.363 . S
C495 C490 1.379 . S
C495 N493 1.356 . S
N496 C488 1.356 . S
N496 H502 0.984 . S
N496 H503 0.984 . S
N497 C490 1.356 . S
N497 H500 0.984 . S
N497 H501 0.985 . S
H498 N493 0.984 . S
H499 N493 0.985 . S
H500 N497 0.984 . S
H501 N497 0.985 . S
H502 N496 0.984 . S
H503 N496 0.984 . S
H504 N492 0.984 . S
H505 N492 0.985 . S
C506 C507 1.363 . S
C506 C512 1.379 . S
C506 N514 1.356 . S
C507 C506 1.363 . S
C507 C513 1.363 . S
C508 C509 1.363 . S
C508 C513 1.379 . S
C508 N515 1.356 1_545 S
C509 C508 1.363 . S
C509 C512 1.363 . S
N510 C512 1.356 . S
N510 H522 0.984 . S
N510 H523 0.985 . S
N511 C513 1.356 . S
N511 H516 0.984 . S
N511 H517 0.985 . S
C512 C506 1.379 . S
C512 C509 1.363 . S
C512 N510 1.356 . S
C513 C507 1.363 . S
C513 C508 1.379 . S
C513 N511 1.356 . S
N514 C506 1.356 . S
N514 H520 0.984 . S
N514 H521 0.984 . S
N515 C508 1.356 1_565 S
N515 H518 0.984 . S
N515 H519 0.985 . S
H516 N511 0.984 . S
H517 N511 0.985 . S
H518 N515 0.984 . S
H519 N515 0.985 . S
H520 N514 0.984 . S
H521 N514 0.984 . S
H522 N510 0.984 . S
H523 N510 0.985 . S
C524 C525 1.363 . S
C524 C530 1.379 . S
C524 N532 1.356 . S
C525 C524 1.363 . S
C525 C531 1.363 . S
C526 C527 1.363 . S
C526 C531 1.379 . S
C526 N533 1.356 . S
C527 C526 1.363 . S
C527 C530 1.363 . S
N528 C530 1.356 1_655 S
N528 H540 0.984 . S
N528 H541 0.985 . S
N529 C531 1.356 . S
N529 H534 0.984 . S
N529 H535 0.985 . S
C530 C524 1.379 . S
C530 C527 1.363 . S
C530 N528 1.356 1_455 S
C531 C525 1.363 . S
C531 C526 1.379 . S
C531 N529 1.356 . S
N532 C524 1.356 . S
N532 H538 0.984 . S
N532 H539 0.984 . S
N533 C526 1.356 . S
N533 H536 0.984 . S
N533 H537 0.985 . S
H534 N529 0.984 . S
H535 N529 0.985 . S
H536 N533 0.984 . S
H537 N533 0.985 . S
H538 N532 0.984 . S
H539 N532 0.984 . S
H540 N528 0.984 . S
H541 N528 0.985 . S
C542 C543 1.363 . S
C542 C548 1.379 . S
C542 N550 1.356 1_565 S
C543 C542 1.363 . S
C543 C549 1.363 . S
C544 C545 1.363 . S
C544 C549 1.379 . S
C544 N551 1.356 . S
C545 C544 1.363 . S
C545 C548 1.363 . S
N546 C548 1.356 . S
N546 H558 0.984 . S
N546 H559 0.985 . S
N547 C549 1.356 . S
N547 H552 0.984 . S
N547 H553 0.985 . S
C548 C542 1.379 . S
C548 C545 1.363 . S
C548 N546 1.356 . S
C549 C543 1.363 . S
C549 C544 1.379 . S
C549 N547 1.356 . S
N550 C542 1.356 1_545 S
N550 H556 0.984 . S
N550 H557 0.984 . S
N551 C544 1.356 . S
N551 H554 0.984 . S
N551 H555 0.985 . S
H552 N547 0.984 . S
H553 N547 0.985 . S
H554 N551 0.984 . S
H555 N551 0.985 . S
H556 N550 0.984 . S
H557 N550 0.984 . S
H558 N546 0.984 . S
H559 N546 0.985 . S
C560 C561 1.363 . S
C560 C566 1.379 . S
C560 N568 1.356 . S
C561 C560 1.363 . S
C561 C567 1.363 . S
C562 C563 1.363 . S
C562 C567 1.379 . S
C562 N569 1.356 . S
C563 C562 1.363 . S
C563 C566 1.363 . S
N564 C566 1.356 . S
N564 H576 0.984 . S
N564 H577 0.985 . S
N565 C567 1.356 . S
N565 H570 0.984 . S
N565 H571 0.985 . S
C566 C560 1.379 . S
C566 C563 1.363 . S
C566 N564 1.356 . S
C567 C561 1.363 . S
C567 C562 1.379 . S
C567 N565 1.356 . S
N568 C560 1.356 . S
N568 H574 0.984 . S
N568 H575 0.984 . S
N569 C562 1.356 . S
N569 H572 0.984 . S
N569 H573 0.985 . S
H570 N565 0.984 . S
H571 N565 0.985 . S
H572 N569 0.984 . S
H573 N569 0.985 . S
H574 N568 0.984 . S
H575 N568 0.984 . S
H576 N564 0.984 . S
H577 N564 0.985 . S
C578 C579 1.363 . S
C578 C584 1.379 . S
C578 N586 1.356 . S
C579 C578 1.363 . S
C579 C585 1.363 . S
C580 C581 1.363 . S
C580 C585 1.379 . S
C580 N587 1.356 . S
C581 C580 1.363 . S
C581 C584 1.363 . S
N582 C584 1.356 . S
N582 H594 0.984 . S
N582 H595 0.985 . S
N583 C585 1.356 . S
N583 H588 0.984 . S
N583 H589 0.985 . S
C584 C578 1.379 . S
C584 C581 1.363 . S
C584 N582 1.356 . S
C585 C579 1.363 . S
C585 C580 1.379 . S
C585 N583 1.356 . S
N586 C578 1.356 . S
N586 H592 0.984 . S
N586 H593 0.984 . S
N587 C580 1.356 . S
N587 H590 0.984 . S
N587 H591 0.985 . S
H588 N583 0.984 . S
H589 N583 0.985 . S
H590 N587 0.984 . S
H591 N587 0.985 . S
H592 N586 0.984 . S
H593 N586 0.984 . S
H594 N582 0.984 . S
H595 N582 0.985 . S
C596 C597 1.363 1_545 S
C596 C602 1.379 1_655 S
C596 N604 1.356 . S
C597 C596 1.363 1_565 S
C597 C603 1.363 . S
C598 C599 1.363 1_565 S
C598 C603 1.379 1_455 S
C598 N605 1.356 . S
C599 C598 1.363 1_545 S
C599 C602 1.363 . S
N600 C602 1.356 . S
N600 H612 0.984 . S
N600 H613 0.985 . S
N601 C603 1.356 . S
N601 H606 0.984 . S
N601 H607 0.985 . S
C602 C596 1.379 1_455 S
C602 C599 1.363 . S
C602 N600 1.356 . S
C603 C597 1.363 . S
C603 C598 1.379 1_655 S
C603 N601 1.356 . S
N604 C596 1.356 . S
N604 H610 0.984 . S
N604 H611 0.984 1_545 S
N605 C598 1.356 . S
N605 H608 0.984 1_565 S
N605 H609 0.985 . S
H606 N601 0.984 . S
H607 N601 0.985 . S
H608 N605 0.984 1_545 S
H609 N605 0.985 . S
H610 N604 0.984 . S
H611 N604 0.984 1_565 S
H612 N600 0.984 . S
H613 N600 0.985 . S
C614 C615 1.363 1_455 S
C614 C620 1.379 1_545 S
C614 N622 1.356 . S
C615 C614 1.363 1_655 S
C615 C621 1.363 . S
C616 C617 1.363 1_655 S
C616 C621 1.379 1_565 S
C616 N623 1.356 . S
C617 C616 1.363 1_455 S
C617 C620 1.363 . S
N618 C620 1.356 . S
N618 H630 0.984 . S
N618 H631 0.985 . S
N619 C621 1.356 . S
N619 H624 0.984 . S
N619 H625 0.985 . S
C620 C614 1.379 1_565 S
C620 C617 1.363 . S
C620 N618 1.356 . S
C621 C615 1.363 . S
C621 C616 1.379 1_545 S
C621 N619 1.356 . S
N622 C614 1.356 . S
N622 H628 0.984 . S
N622 H629 0.984 1_455 S
N623 C616 1.356 . S
N623 H626 0.984 1_655 S
N623 H627 0.985 . S
H624 N619 0.984 . S
H625 N619 0.985 . S
H626 N623 0.984 1_455 S
H627 N623 0.985 . S
H628 N622 0.984 . S
H629 N622 0.984 1_655 S
H630 N618 0.984 . S
H631 N618 0.985 . S
C632 C633 1.363 . S
C632 C638 1.379 . S
C632 N640 1.356 . S
C633 C632 1.363 . S
C633 C639 1.363 . S
C634 C635 1.363 . S
C634 C639 1.379 . S
C634 N641 1.356 . S
C635 C634 1.363 . S
C635 C638 1.363 . S
N636 C638 1.356 . S
N636 H648 0.984 . S
N636 H649 0.985 . S
N637 C639 1.356 . S
N637 H642 0.984 . S
N637 H643 0.985 . S
C638 C632 1.379 . S
C638 C635 1.363 . S
C638 N636 1.356 . S
C639 C633 1.363 . S
C639 C634 1.379 . S
C639 N637 1.356 . S
N640 C632 1.356 . S
N640 H646 0.984 . S
N640 H647 0.984 . S
N641 C634 1.356 . S
N641 H644 0.984 . S
N641 H645 0.985 . S
H642 N637 0.984 . S
H643 N637 0.985 . S
H644 N641 0.984 . S
H645 N641 0.985 . S
H646 N640 0.984 . S
H647 N640 0.984 . S
H648 N636 0.984 . S
H649 N636 0.985 . S
C650 C651 1.363 . S
C650 C656 1.379 . S
C650 N658 1.356 . S
C651 C650 1.363 . S
C651 C657 1.363 . S
C652 C653 1.363 . S
C652 C657 1.379 . S
C652 N659 1.356 . S
C653 C652 1.363 . S
C653 C656 1.363 . S
N654 C656 1.356 . S
N654 H666 0.984 . S
N654 H667 0.985 . S
N655 C657 1.356 . S
N655 H660 0.984 . S
N655 H661 0.985 . S
C656 C650 1.379 . S
C656 C653 1.363 . S
C656 N654 1.356 . S
C657 C651 1.363 . S
C657 C652 1.379 . S
C657 N655 1.356 . S
N658 C650 1.356 . S
N658 H664 0.984 . S
N658 H665 0.984 . S
N659 C652 1.356 . S
N659 H662 0.984 . S
N659 H663 0.985 . S
H660 N655 0.984 . S
H661 N655 0.985 . S
H662 N659 0.984 . S
H663 N659 0.985 . S
H664 N658 0.984 . S
H665 N658 0.984 . S
H666 N654 0.984 . S
H667 N654 0.985 . S
C668 C669 1.363 . S
C668 C674 1.379 . S
C668 N676 1.356 . S
C669 C668 1.363 . S
C669 C675 1.363 . S
C670 C671 1.363 . S
C670 C675 1.379 . S
C670 N677 1.356 . S
C671 C670 1.363 . S
C671 C674 1.363 . S
N672 C674 1.356 . S
N672 H684 0.984 . S
N672 H685 0.985 . S
N673 C675 1.356 . S
N673 H678 0.984 . S
N673 H679 0.985 . S
C674 C668 1.379 . S
C674 C671 1.363 . S
C674 N672 1.356 . S
C675 C669 1.363 . S
C675 C670 1.379 . S
C675 N673 1.356 . S
N676 C668 1.356 . S
N676 H682 0.984 . S
N676 H683 0.984 . S
N677 C670 1.356 . S
N677 H680 0.984 . S
N677 H681 0.985 . S
H678 N673 0.984 . S
H679 N673 0.985 . S
H680 N677 0.984 . S
H681 N677 0.985 . S
H682 N676 0.984 . S
H683 N676 0.984 . S
H684 N672 0.984 . S
H685 N672 0.985 . S
C686 C687 1.363 . S
C686 C692 1.379 . S
C686 N694 1.356 . S
C687 C686 1.363 . S
C687 C693 1.363 . S
C688 C689 1.363 . S
C688 C693 1.379 . S
C688 N695 1.356 . S
C689 C688 1.363 . S
C689 C692 1.363 . S
N690 C692 1.356 . S
N690 H702 0.984 . S
N690 H703 0.985 . S
N691 C693 1.356 . S
N691 H696 0.984 . S
N691 H697 0.985 . S
C692 C686 1.379 . S
C692 C689 1.363 . S
C692 N690 1.356 . S
C693 C687 1.363 . S
C693 C688 1.379 . S
C693 N691 1.356 . S
N694 C686 1.356 . S
N694 H700 0.984 . S
N694 H701 0.984 . S
N695 C688 1.356 . S
N695 H698 0.984 . S
N695 H699 0.985 . S
H696 N691 0.984 . S
H697 N691 0.985 . S
H698 N695 0.984 . S
H699 N695 0.985 . S
H700 N694 0.984 . S
H701 N694 0.984 . S
H702 N690 0.984 . S
H703 N690 0.985 . S
C704 C705 1.363 . S
C704 C710 1.379 . S
C704 N712 1.356 . S
C705 C704 1.363 . S
C705 C711 1.363 . S
C706 C707 1.363 . S
C706 C711 1.379 . S
C706 N713 1.356 . S
C707 C706 1.363 . S
C707 C710 1.363 . S
N708 C710 1.356 . S
N708 H720 0.984 . S
N708 H721 0.985 . S
N709 C711 1.356 . S
N709 H714 0.984 . S
N709 H715 0.985 . S
C710 C704 1.379 . S
C710 C707 1.363 . S
C710 N708 1.356 . S
C711 C705 1.363 . S
C711 C706 1.379 . S
C711 N709 1.356 . S
N712 C704 1.356 . S
N712 H718 0.984 . S
N712 H719 0.984 . S
N713 C706 1.356 . S
N713 H716 0.984 . S
N713 H717 0.985 . S
H714 N709 0.984 . S
H715 N709 0.985 . S
H716 N713 0.984 . S
H717 N713 0.985 . S
H718 N712 0.984 . S
H719 N712 0.984 . S
H720 N708 0.984 . S
H721 N708 0.985 . S
C722 C723 1.363 . S
C722 C728 1.379 . S
C722 N730 1.356 . S
C723 C722 1.363 . S
C723 C729 1.363 . S
C724 C725 1.363 . S
C724 C729 1.379 . S
C724 N731 1.356 . S
C725 C724 1.363 . S
C725 C728 1.363 . S
N726 C728 1.356 . S
N726 H738 0.984 . S
N726 H739 0.985 . S
N727 C729 1.356 . S
N727 H732 0.984 . S
N727 H733 0.985 . S
C728 C722 1.379 . S
C728 C725 1.363 . S
C728 N726 1.356 . S
C729 C723 1.363 . S
C729 C724 1.379 . S
C729 N727 1.356 . S
N730 C722 1.356 . S
N730 H736 0.984 . S
N730 H737 0.984 . S
N731 C724 1.356 . S
N731 H734 0.984 . S
N731 H735 0.985 . S
H732 N727 0.984 . S
H733 N727 0.985 . S
H734 N731 0.984 . S
H735 N731 0.985 . S
H736 N730 0.984 . S
H737 N730 0.984 . S
H738 N726 0.984 . S
H739 N726 0.985 . S
C740 C741 1.363 . S
C740 C746 1.379 . S
C740 N748 1.356 . S
C741 C740 1.363 . S
C741 C747 1.363 . S
C742 C743 1.363 . S
C742 C747 1.379 . S
C742 N749 1.356 . S
C743 C742 1.363 . S
C743 C746 1.363 . S
N744 C746 1.356 . S
N744 H756 0.984 . S
N744 H757 0.985 . S
N745 C747 1.356 . S
N745 H750 0.984 . S
N745 H751 0.985 . S
C746 C740 1.379 . S
C746 C743 1.363 . S
C746 N744 1.356 . S
C747 C741 1.363 . S
C747 C742 1.379 . S
C747 N745 1.356 . S
N748 C740 1.356 . S
N748 H754 0.984 . S
N748 H755 0.984 . S
N749 C742 1.356 . S
N749 H752 0.984 . S
N749 H753 0.985 . S
H750 N745 0.984 . S
H751 N745 0.985 . S
H752 N749 0.984 . S
H753 N749 0.985 . S
H754 N748 0.984 . S
H755 N748 0.984 . S
H756 N744 0.984 . S
H757 N744 0.985 . S
C758 C759 1.363 . S
C758 C764 1.379 . S
C758 N766 1.356 . S
C759 C758 1.363 . S
C759 C765 1.363 . S
C760 C761 1.363 . S
C760 C765 1.379 . S
C760 N767 1.356 . S
C761 C760 1.363 . S
C761 C764 1.363 . S
N762 C764 1.356 . S
N762 H774 0.984 . S
N762 H775 0.985 . S
N763 C765 1.356 . S
N763 H768 0.984 . S
N763 H769 0.985 . S
C764 C758 1.379 . S
C764 C761 1.363 . S
C764 N762 1.356 . S
C765 C759 1.363 . S
C765 C760 1.379 . S
C765 N763 1.356 . S
N766 C758 1.356 . S
N766 H772 0.984 . S
N766 H773 0.984 . S
N767 C760 1.356 . S
N767 H770 0.984 . S
N767 H771 0.985 . S
H768 N763 0.984 . S
H769 N763 0.985 . S
H770 N767 0.984 . S
H771 N767 0.985 . S
H772 N766 0.984 . S
H773 N766 0.984 . S
H774 N762 0.984 . S
H775 N762 0.985 . S
C273 C15 1.610 . S
C275 C173 1.620 . S
C291 C56 1.610 . S
C293 C205 1.620 . S
C309 C241 1.620 . S
C311 C90 1.610 . S
C327 C137 1.620 . S
C329 C124 1.610 . S
C345 C151 1.610 . S
C347 C105 1.620 . S
C363 C192 1.610 . S
C365 C1 1.620 . S
C381 C219 1.610 . S
C383 C37 1.620 . S
C399 C260 1.610 . S
C401 C71 1.620 . S
C417 C119 1.573 . S
C419 C28 1.476 . S
C435 C17 1.573 . S
C437 C40 1.476 . S
C453 C51 1.573 . S
C455 C74 1.476 . S
C471 C108 1.476 . S
C473 C85 1.573 . S
C489 C164 1.476 . S
C491 C187 1.573 1_655 S
C507 C176 1.476 . S
C509 C221 1.573 1_545 S
C525 C232 1.476 . S
C527 C255 1.573 1_455 S
C543 C153 1.573 1_565 S
C545 C244 1.476 . S
C561 C22 0.944 . S
C563 C83 0.944 . S
C579 C49 0.944 . S
C581 C117 0.944 . S
C597 C158 0.944 . S
C599 C226 0.944 . S
C615 C185 0.944 . S
C617 C253 0.944 . S
C633 C210 2.008 . S
C635 C3 2.018 . S
C651 C35 2.018 . S
C653 C266 2.008 . S
C669 C69 2.018 . S
C671 C142 2.008 . S
C687 C198 2.008 . S
C689 C103 2.018 . S
C705 C139 2.018 . S
C707 C96 2.008 . S
C723 C130 2.008 . S
C725 C171 2.018 . S
C741 C207 2.018 . S
C743 C6 2.008 . S
C759 C62 2.008 . S
C761 C239 2.018 . S
