# Generated by pormake.
# Topology wme, (6)-cn, num edge types: 1
# Building blocks:
#     Node 0, Type 0, BuildingBlock: KUMJIN_clean_sbu_0, # of connection points: 6
#     Node 1, Type 0, BuildingBlock: KUMJIN_clean_sbu_0, # of connection points: 6
#     Node 2, Type 0, BuildingBlock: KUMJIN_clean_sbu_0, # of connection points: 6
#     Node 3, Type 0, BuildingBlock: KUMJIN_clean_sbu_0, # of connection points: 6
#     Node 4, Type 0, BuildingBlock: KUMJIN_clean_sbu_0, # of connection points: 6
#     Node 5, Type 0, BuildingBlock: KUMJIN_clean_sbu_0, # of connection points: 6
#     Node 6, Type 0, BuildingBlock: KUMJIN_clean_sbu_0, # of connection points: 6
#     Node 7, Type 0, BuildingBlock: KUMJIN_clean_sbu_0, # of connection points: 6
#     Node 8, Type 0, BuildingBlock: KUMJIN_clean_sbu_0, # of connection points: 6
#     Node 9, Type 0, BuildingBlock: KUMJIN_clean_sbu_0, # of connection points: 6
#     Node 10, Type 0, BuildingBlock: KUMJIN_clean_sbu_0, # of connection points: 6
#     Node 11, Type 0, BuildingBlock: KUMJIN_clean_sbu_0, # of connection points: 6
#     Edge 12, Type (0, 0), BuildingBlock: UVAHIK_clean_linker_0, # of connection points: 2
#     Edge 13, Type (0, 0), BuildingBlock: UVAHIK_clean_linker_0, # of connection points: 2
#     Edge 14, Type (0, 0), BuildingBlock: UVAHIK_clean_linker_0, # of connection points: 2
#     Edge 15, Type (0, 0), BuildingBlock: UVAHIK_clean_linker_0, # of connection points: 2
#     Edge 16, Type (0, 0), BuildingBlock: UVAHIK_clean_linker_0, # of connection points: 2
#     Edge 17, Type (0, 0), BuildingBlock: UVAHIK_clean_linker_0, # of connection points: 2
#     Edge 18, Type (0, 0), BuildingBlock: UVAHIK_clean_linker_0, # of connection points: 2
#     Edge 19, Type (0, 0), BuildingBlock: UVAHIK_clean_linker_0, # of connection points: 2
#     Edge 20, Type (0, 0), BuildingBlock: UVAHIK_clean_linker_0, # of connection points: 2
#     Edge 21, Type (0, 0), BuildingBlock: UVAHIK_clean_linker_0, # of connection points: 2
#     Edge 22, Type (0, 0), BuildingBlock: UVAHIK_clean_linker_0, # of connection points: 2
#     Edge 23, Type (0, 0), BuildingBlock: UVAHIK_clean_linker_0, # of connection points: 2
#     Edge 24, Type (0, 0), BuildingBlock: UVAHIK_clean_linker_0, # of connection points: 2
#     Edge 25, Type (0, 0), BuildingBlock: UVAHIK_clean_linker_0, # of connection points: 2
#     Edge 26, Type (0, 0), BuildingBlock: UVAHIK_clean_linker_0, # of connection points: 2
#     Edge 27, Type (0, 0), BuildingBlock: UVAHIK_clean_linker_0, # of connection points: 2
#     Edge 28, Type (0, 0), BuildingBlock: UVAHIK_clean_linker_0, # of connection points: 2
#     Edge 29, Type (0, 0), BuildingBlock: UVAHIK_clean_linker_0, # of connection points: 2
#     Edge 30, Type (0, 0), BuildingBlock: UVAHIK_clean_linker_0, # of connection points: 2
#     Edge 31, Type (0, 0), BuildingBlock: UVAHIK_clean_linker_0, # of connection points: 2
#     Edge 32, Type (0, 0), BuildingBlock: UVAHIK_clean_linker_0, # of connection points: 2
#     Edge 33, Type (0, 0), BuildingBlock: UVAHIK_clean_linker_0, # of connection points: 2
#     Edge 34, Type (0, 0), BuildingBlock: UVAHIK_clean_linker_0, # of connection points: 2
#     Edge 35, Type (0, 0), BuildingBlock: UVAHIK_clean_linker_0, # of connection points: 2
#     Edge 36, Type (0, 0), BuildingBlock: UVAHIK_clean_linker_0, # of connection points: 2
#     Edge 37, Type (0, 0), BuildingBlock: UVAHIK_clean_linker_0, # of connection points: 2
#     Edge 38, Type (0, 0), BuildingBlock: UVAHIK_clean_linker_0, # of connection points: 2
#     Edge 39, Type (0, 0), BuildingBlock: UVAHIK_clean_linker_0, # of connection points: 2
#     Edge 40, Type (0, 0), BuildingBlock: UVAHIK_clean_linker_0, # of connection points: 2
#     Edge 41, Type (0, 0), BuildingBlock: UVAHIK_clean_linker_0, # of connection points: 2
#     Edge 42, Type (0, 0), BuildingBlock: UVAHIK_clean_linker_0, # of connection points: 2
#     Edge 43, Type (0, 0), BuildingBlock: UVAHIK_clean_linker_0, # of connection points: 2
#     Edge 44, Type (0, 0), BuildingBlock: UVAHIK_clean_linker_0, # of connection points: 2
#     Edge 45, Type (0, 0), BuildingBlock: UVAHIK_clean_linker_0, # of connection points: 2
#     Edge 46, Type (0, 0), BuildingBlock: UVAHIK_clean_linker_0, # of connection points: 2
#     Edge 47, Type (0, 0), BuildingBlock: UVAHIK_clean_linker_0, # of connection points: 2
# Relax obj value: 0.096
# Max RMSD: 0.203
# Mean RMSD: 0.203
data_MOF--net-wme--node1-KUMJIN_clean_sbu_0--edge1-UVAHIK_clean_linker_0
_symmetry_space_group_name_H-M    P1
_symmetry_Int_Tables_number       1
_symmetry_cell_setting            triclinic
loop_
_symmetry_equiv_pos_as_xyz
'x, y, z'
_cell_length_a     47.470122
_cell_length_b     47.445915
_cell_length_c     71.069293
_cell_angle_alpha  90.028971
_cell_angle_beta   89.949967
_cell_angle_gamma 120.06833
loop_
_atom_site_label
_atom_site_type_symbol
_atom_site_fract_x
_atom_site_fract_y
_atom_site_fract_z
_atom_type_partial_charge
Eu0 Eu 0.19507 0.36313 0.11033 0.0
C1 C 0.30915 0.37446 0.14152 0.0
C2 C 0.34759 0.37734 0.11812 0.0
C3 C 0.3667 0.41463 0.14463 0.0
C4 C 0.31536 0.36364 0.12483 0.0
C5 C 0.33497 0.39941 0.15192 0.0
C6 C 0.37301 0.40359 0.12776 0.0
C7 C 0.29694 0.3899 0.17692 0.0
N8 N 0.27818 0.35943 0.14812 0.0
C9 C 0.27232 0.3653 0.16613 0.0
C10 C 0.32828 0.40767 0.16958 0.0
Eu11 Eu 0.23691 0.32096 0.12776 0.0
N12 N 0.29021 0.3385 0.11573 0.0
C13 C 0.29643 0.32288 0.10148 0.0
C14 C 0.35344 0.36363 0.10224 0.0
C15 C 0.32784 0.33576 0.09417 0.0
H16 H 0.24917 0.35045 0.17271 0.0
H17 H 0.33228 0.32408 0.08236 0.0
H18 H 0.39779 0.41485 0.12259 0.0
H19 H 0.29179 0.3947 0.19103 0.0
H20 H 0.2769 0.30091 0.0953 0.0
H21 H 0.08 0.29737 0.14828 0.0
H22 H 0.37781 0.37353 0.0966 0.0
H23 H 0.20563 0.38594 0.06493 0.0
H24 H 0.13911 0.33279 0.14468 0.0
H25 H 0.1742 0.37044 0.03522 0.0
H26 H 0.38668 0.43426 0.15223 0.0
H27 H 0.04524 0.27392 0.12016 0.0
H28 H 0.04061 0.27025 0.08494 0.0
H29 H 0.34741 0.42663 0.17801 0.0
H30 H 0.06656 0.28928 0.054 0.0
N31 N 0.13842 0.3288 0.11485 0.0
C32 C 0.12448 0.32254 0.13229 0.0
C33 C 0.0713 0.28942 0.11849 0.0
C34 C 0.08556 0.29712 0.10061 0.0
C35 C 0.09082 0.30262 0.13439 0.0
C36 C 0.11962 0.31736 0.09923 0.0
H37 H 0.1163 0.32708 0.03531 0.0
N38 N 0.16648 0.35005 0.08127 0.0
C39 C 0.16274 0.35802 0.04819 0.0
C40 C 0.13423 0.32788 0.08184 0.0
C41 C 0.1804 0.36674 0.06498 0.0
C42 C 0.1301 0.33344 0.04829 0.0
C43 C 0.11516 0.31877 0.06534 0.0
O44 O 0.20854 0.41223 0.10062 0.0
O45 O 0.24192 0.36985 0.12233 0.0
O46 O 0.20546 0.32326 0.151 0.0
O47 O 0.19934 0.36713 0.14248 0.0
O48 O 0.24443 0.39509 0.09771 0.0
O49 O 0.1781 0.39251 0.12496 0.0
O50 O 0.23469 0.29368 0.15311 0.0
O51 O 0.18853 0.31664 0.12201 0.0
O52 O 0.20372 0.33739 0.08536 0.0
O53 O 0.24423 0.32737 0.09635 0.0
O54 O 0.19566 0.27991 0.11154 0.0
O55 O 0.23628 0.27451 0.12537 0.0
C56 C 0.26101 0.38998 0.1102 0.0
C57 C 0.16892 0.42767 0.10587 0.0
C58 C 0.15056 0.46747 0.10485 0.0
C59 C 0.17296 0.45816 0.11112 0.0
C60 C 0.12487 0.44643 0.09299 0.0
C61 C 0.14285 0.40716 0.09416 0.0
C62 C 0.12115 0.41655 0.08766 0.0
C63 C 0.19885 0.34649 0.15519 0.0
C64 C 0.19089 0.4165 0.11304 0.0
C65 C 0.08154 0.29689 0.06654 0.0
C66 C 0.06675 0.28613 0.08416 0.0
C67 C 0.17502 0.28983 0.11328 0.0
C68 C 0.23316 0.24145 0.15246 0.0
C69 C 0.22782 0.21411 0.14175 0.0
C70 C 0.22649 0.18699 0.15068 0.0
C71 C 0.23043 0.18729 0.17024 0.0
C72 C 0.2368 0.24106 0.17206 0.0
C73 C 0.23546 0.21414 0.18085 0.0
C74 C 0.22661 0.32954 0.08274 0.0
C75 C 0.23451 0.27019 0.14349 0.0
H76 H 0.19278 0.47409 0.12035 0.0
H77 H 0.10759 0.45318 0.08781 0.0
H78 H 0.13899 0.38371 0.09016 0.0
H79 H 0.10119 0.40046 0.07859 0.0
H80 H 0.22468 0.21383 0.12663 0.0
H81 H 0.22942 0.16658 0.17732 0.0
H82 H 0.24076 0.26162 0.18062 0.0
H83 H 0.23833 0.21409 0.19595 0.0
Eu84 Eu 0.84382 0.19228 0.6096 0.0
C85 C 0.94651 0.30237 0.6428 0.0
C86 C 0.98064 0.34201 0.61947 0.0
C87 C 0.96343 0.35961 0.64708 0.0
C88 C 0.96275 0.30946 0.6258 0.0
C89 C 0.94764 0.32757 0.65395 0.0
C90 C 0.97994 0.36682 0.62986 0.0
C91 C 0.9215 0.28853 0.67886 0.0
N92 N 0.93141 0.27118 0.64901 0.0
C93 C 0.9213 0.26459 0.66732 0.0
C94 C 0.93391 0.32003 0.67195 0.0
Eu95 Eu 0.9275 0.23086 0.62747 0.0
N96 N 0.96255 0.28484 0.61596 0.0
C97 C 0.98364 0.29197 0.60118 0.0
C98 C 0.99937 0.34876 0.60314 0.0
C99 C 1.00151 0.32372 0.59423 0.0
H100 H 0.91405 0.24129 0.6735 0.0
H101 H 0.01712 0.32888 0.58208 0.0
H102 H 0.99294 0.39182 0.625 0.0
H103 H 0.91266 0.28277 0.69318 0.0
H104 H 0.98648 0.27309 0.59444 0.0
H105 H 0.79151 0.07669 0.64709 0.0
H106 H 1.01331 0.37339 0.59777 0.0
H107 H 0.8327 0.2042 0.56415 0.0
H108 H 0.81698 0.13616 0.64371 0.0
H109 H 0.81577 0.17303 0.53434 0.0
H110 H 0.96398 0.37914 0.65528 0.0
H111 H 0.77899 0.042 0.6188 0.0
H112 H 0.7778 0.03769 0.58355 0.0
H113 H 0.93431 0.33867 0.68095 0.0
H114 H 0.78535 0.06415 0.55273 0.0
N115 N 0.81978 0.13546 0.61388 0.0
C116 C 0.8119 0.12142 0.63128 0.0
C117 C 0.79022 0.06816 0.61725 0.0
C118 C 0.797 0.0826 0.59941 0.0
C119 C 0.79722 0.08764 0.63324 0.0
C120 C 0.81172 0.11678 0.59817 0.0
H121 H 0.79898 0.11453 0.53425 0.0
N122 N 0.82773 0.16423 0.58036 0.0
C123 C 0.81616 0.16118 0.54727 0.0
C124 C 0.8163 0.13169 0.58083 0.0
C125 C 0.8257 0.17871 0.56412 0.0
C126 C 0.80681 0.1282 0.54727 0.0
C127 C 0.80585 0.11281 0.56426 0.0
O128 O 0.80988 0.20825 0.60046 0.0
O129 O 0.88532 0.23847 0.62147 0.0
O130 O 0.8922 0.19961 0.65022 0.0
O131 O 0.84439 0.19814 0.6416 0.0
O132 O 0.86383 0.2416 0.59651 0.0
O133 O 0.79696 0.17527 0.62372 0.0
O134 O 0.95071 0.22439 0.65239 0.0
O135 O 0.88216 0.18342 0.62157 0.0
O136 O 0.87745 0.19914 0.58472 0.0
O137 O 0.92959 0.23571 0.59585 0.0
O138 O 0.92554 0.18862 0.61152 0.0
O139 O 0.97451 0.23247 0.62499 0.0
C140 C 0.8856 0.25785 0.60907 0.0
C141 C 0.754 0.16966 0.6045 0.0
C142 C 0.69576 0.15129 0.60436 0.0
C143 C 0.72739 0.17202 0.61146 0.0
C144 C 0.69139 0.12908 0.58999 0.0
C145 C 0.74861 0.14689 0.59036 0.0
C146 C 0.71765 0.12696 0.58306 0.0
C147 C 0.86334 0.19575 0.65436 0.0
C148 C 0.78708 0.18991 0.61231 0.0
C149 C 0.79309 0.079 0.56533 0.0
C150 C 0.78867 0.06392 0.58288 0.0
C151 C 0.89466 0.16896 0.61301 0.0
C152 C 1.00228 0.22478 0.65178 0.0
C153 C 0.02469 0.22014 0.641 0.0
C154 C 0.0496 0.21735 0.65002 0.0
C155 C 0.05204 0.21932 0.66969 0.0
C156 C 1.00518 0.22649 0.67147 0.0
C157 C 0.02995 0.22384 0.68033 0.0
C158 C 0.90891 0.21964 0.58223 0.0
C159 C 0.97531 0.22695 0.64285 0.0
H160 H 0.7311 0.18921 0.62257 0.0
H161 H 0.6675 0.11328 0.58406 0.0
H162 H 0.76819 0.14423 0.58496 0.0
H163 H 0.71398 0.10964 0.57207 0.0
H164 H 0.02267 0.21848 0.6258 0.0
H165 H 0.07108 0.21723 0.67683 0.0
H166 H 0.98828 0.22992 0.68008 0.0
H167 H 0.03198 0.22523 0.69551 0.0
Eu168 Eu 0.65918 0.83637 0.11183 0.0
C169 C 0.67729 0.94889 0.15391 0.0
C170 C 0.64641 0.96576 0.13442 0.0
C171 C 0.64497 0.96986 0.16841 0.0
C172 C 0.66737 0.9528 0.13622 0.0
C173 C 0.6673 0.95884 0.17011 0.0
C174 C 0.63446 0.97322 0.1506 0.0
C175 C 0.706 0.9513 0.1882 0.0
N176 N 0.69895 0.93823 0.15519 0.0
C177 C 0.71514 0.94172 0.1718 0.0
C178 C 0.68131 0.95903 0.18746 0.0
Eu179 Eu 0.71147 0.92089 0.12645 0.0
N180 N 0.67926 0.94538 0.12075 0.0
C181 C 0.67326 0.95289 0.10319 0.0
C182 C 0.63861 0.97152 0.1164 0.0
C183 C 0.65262 0.96566 0.10074 0.0
H184 H 0.73449 0.936 0.17258 0.0
H185 H 0.64745 0.97086 0.08675 0.0
H186 H 0.61794 0.98265 0.14946 0.0
H187 H 0.71799 0.95268 0.2014 0.0
H188 H 0.68409 0.94914 0.09089 0.0
H189 H 0.69685 0.76485 0.15482 0.0
H190 H 0.62251 0.98129 0.11445 0.0
H191 H 0.65592 0.83498 0.06307 0.0
H192 H 0.66682 0.79271 0.14767 0.0
H193 H 0.68367 0.82648 0.03674 0.0
H194 H 0.6366 0.97701 0.18073 0.0
H195 H 0.72984 0.75817 0.13024 0.0
H196 H 0.74825 0.76574 0.09681 0.0
H197 H 0.67432 0.96656 0.20018 0.0
H198 H 0.74576 0.78378 0.0648 0.0
N199 N 0.68502 0.80576 0.11959 0.0
C200 C 0.68227 0.79189 0.13689 0.0
C201 C 0.71709 0.77119 0.12704 0.0
C202 C 0.71794 0.78319 0.10898 0.0
C203 C 0.6987 0.77509 0.14097 0.0
C204 C 0.70104 0.80018 0.10553 0.0
H205 H 0.72187 0.80639 0.0423 0.0
N206 N 0.68181 0.82511 0.08442 0.0
C207 C 0.68919 0.82271 0.05097 0.0
C208 C 0.69986 0.81062 0.08753 0.0
C209 C 0.67417 0.82844 0.06621 0.0
C210 C 0.71057 0.81123 0.05416 0.0
C211 C 0.71522 0.80389 0.07252 0.0
O212 O 0.61421 0.81273 0.09546 0.0
O213 O 0.66146 0.88468 0.11578 0.0
O214 O 0.69826 0.88889 0.15243 0.0
O215 O 0.65859 0.83599 0.14394 0.0
O216 O 0.6246 0.84422 0.12947 0.0
O217 O 0.62136 0.78596 0.11764 0.0
O218 O 0.75946 0.94924 0.13951 0.0
O219 O 0.70805 0.87195 0.12329 0.0
O220 O 0.66919 0.87185 0.08695 0.0
O221 O 0.71407 0.92142 0.0953 0.0
O222 O 0.74834 0.91175 0.11193 0.0
O223 O 0.74502 0.9701 0.11688 0.0
C224 C 0.63597 0.87458 0.12574 0.0
C225 C 0.58758 0.755 0.09226 0.0
C226 C 0.54911 0.69648 0.08886 0.0
C227 C 0.56437 0.72482 0.10012 0.0
C228 C 0.55742 0.69904 0.06965 0.0
C229 C 0.59529 0.75657 0.07309 0.0
C230 C 0.5804 0.72876 0.06192 0.0
C231 C 0.67618 0.85855 0.15657 0.0
C232 C 0.60255 0.78476 0.104 0.0
C233 C 0.73347 0.78864 0.07611 0.0
C234 C 0.73477 0.77825 0.09431 0.0
C235 C 0.73443 0.88097 0.11465 0.0
C236 C 0.7855 1.00687 0.13756 0.0
C237 C 0.81852 0.02711 0.13313 0.0
C238 C 0.83587 0.05907 0.14018 0.0
C239 C 0.81973 0.07021 0.15204 0.0
C240 C 0.7697 0.01849 0.14919 0.0
C241 C 0.7869 0.04997 0.15652 0.0
C242 C 0.69458 0.90075 0.08268 0.0
C243 C 0.76775 0.97461 0.12884 0.0
H244 H 0.55831 0.72346 0.11493 0.0
H245 H 0.54566 0.67814 0.06041 0.0
H246 H 0.61237 0.77934 0.06657 0.0
H247 H 0.58636 0.73034 0.04711 0.0
H248 H 0.83042 0.01827 0.12374 0.0
H249 H 0.83253 0.09453 0.15791 0.0
H250 H 0.7441 1.00352 0.15238 0.0
H251 H 0.77466 0.05885 0.16555 0.0
Eu252 Eu 0.83636 0.655 0.61202 0.0
C253 C 0.74351 0.67008 0.65107 0.0
C254 C 0.69683 0.64499 0.63025 0.0
C255 C 0.68929 0.63475 0.66385 0.0
C256 C 0.73069 0.66495 0.63309 0.0
C257 C 0.72269 0.65596 0.6667 0.0
C258 C 0.67638 0.62925 0.64565 0.0
C259 C 0.76839 0.68839 0.68696 0.0
N260 N 0.7759 0.69066 0.65339 0.0
C261 C 0.78784 0.70196 0.67104 0.0
C262 C 0.73581 0.6646 0.6848 0.0
Eu263 Eu 0.80787 0.70972 0.62535 0.0
N264 N 0.75116 0.67994 0.6184 0.0
C265 C 0.73874 0.6787 0.60087 0.0
C266 C 0.68444 0.64171 0.61205 0.0
C267 C 0.70544 0.65916 0.59736 0.0
H268 H 0.81246 0.72164 0.67304 0.0
H269 H 0.69599 0.65781 0.58333 0.0
H270 H 0.65044 0.6134 0.64368 0.0
H271 H 0.77845 0.69667 0.70087 0.0
H272 H 0.75402 0.69312 0.58948 0.0
H273 H 0.94337 0.68905 0.65641 0.0
H274 H 0.65864 0.62652 0.60929 0.0
H275 H 0.83581 0.65473 0.56328 0.0
H276 H 0.88567 0.66067 0.64865 0.0
H277 H 0.87328 0.68295 0.53755 0.0
H278 H 0.67307 0.62328 0.67567 0.0
H279 H 0.98436 0.72144 0.63226 0.0
H280 H 0.99684 0.7405 0.59899 0.0
H281 H 0.72065 0.6543 0.69715 0.0
H282 H 0.9777 0.73971 0.56681 0.0
N283 N 0.89239 0.6792 0.62054 0.0
C284 C 0.90258 0.67586 0.638 0.0
C285 C 0.95871 0.7094 0.62876 0.0
C286 C 0.94843 0.71089 0.61057 0.0
C287 C 0.93567 0.69136 0.64245 0.0
C288 C 0.91466 0.69492 0.60672 0.0
H289 H 0.9319 0.71859 0.54384 0.0
N290 N 0.8713 0.67801 0.58513 0.0
C291 C 0.88219 0.68723 0.55188 0.0
C292 C 0.90383 0.6947 0.58861 0.0
C293 C 0.86071 0.67204 0.56682 0.0
C294 C 0.91523 0.7071 0.55548 0.0
C295 C 0.92659 0.71019 0.5739 0.0
O296 O 0.81471 0.61035 0.59532 0.0
O297 O 0.79086 0.65802 0.61625 0.0
O298 O 0.83649 0.70489 0.64959 0.0
O299 O 0.83553 0.6561 0.64416 0.0
O300 O 0.79545 0.62291 0.63135 0.0
O301 O 0.84755 0.61626 0.61787 0.0
O302 O 0.82394 0.75439 0.64162 0.0
O303 O 0.85276 0.70579 0.62136 0.0
O304 O 0.80877 0.66265 0.58736 0.0
O305 O 0.80984 0.71106 0.59413 0.0
O306 O 0.85209 0.74432 0.60835 0.0
O307 O 0.797 0.74681 0.61579 0.0
C308 C 0.77605 0.63354 0.62707 0.0
C309 C 0.84548 0.58348 0.59216 0.0
C310 C 0.86558 0.54514 0.58853 0.0
C311 C 0.85207 0.55992 0.59983 0.0
C312 C 0.87211 0.55426 0.56947 0.0
C313 C 0.85253 0.59211 0.57314 0.0
C314 C 0.86582 0.57764 0.56193 0.0
C315 C 0.83851 0.67953 0.65553 0.0
C316 C 0.83037 0.59807 0.60391 0.0
C317 C 0.96002 0.72733 0.57789 0.0
C318 C 0.97092 0.72766 0.59618 0.0
C319 C 0.86948 0.73106 0.61159 0.0
C320 C 0.79416 0.78187 0.63802 0.0
C321 C 0.80527 0.81454 0.63347 0.0
C322 C 0.78881 0.83029 0.64011 0.0
C323 C 0.76107 0.81274 0.65148 0.0
C324 C 0.76642 0.76466 0.64926 0.0
C325 C 0.75003 0.78017 0.65601 0.0
C326 C 0.8073 0.68886 0.5822 0.0
C327 C 0.81113 0.76606 0.63001 0.0
H328 H 0.84676 0.55327 0.61453 0.0
H329 H 0.88157 0.54288 0.56017 0.0
H330 H 0.84731 0.60961 0.56678 0.0
H331 H 0.87087 0.58427 0.54723 0.0
H332 H 0.82636 0.82745 0.62441 0.0
H333 H 0.74808 0.82427 0.65703 0.0
H334 H 0.75735 0.73932 0.65268 0.0
H335 H 0.72864 0.76688 0.66475 0.0
Eu336 Eu 0.19334 0.83023 0.10941 0.0
C337 C 0.08641 0.73746 0.1492 0.0
C338 C 0.0642 0.68982 0.12911 0.0
C339 C 0.06842 0.68394 0.16274 0.0
C340 C 0.07808 0.7238 0.13145 0.0
C341 C 0.08039 0.71742 0.16513 0.0
C342 C 0.06036 0.67017 0.14476 0.0
C343 C 0.09323 0.76377 0.18471 0.0
N344 N 0.09782 0.76987 0.15104 0.0
C345 C 0.09836 0.7824 0.16851 0.0
C346 C 0.08511 0.73131 0.18302 0.0
Eu347 Eu 0.10986 0.80057 0.1225 0.0
N348 N 0.08266 0.74351 0.11653 0.0
C349 C 0.07031 0.7302 0.09932 0.0
C350 C 0.05411 0.67653 0.11115 0.0
C351 C 0.05657 0.69676 0.09626 0.0
H352 H 0.10272 0.80688 0.17015 0.0
H353 H 0.04759 0.6866 0.08246 0.0
H354 H 0.05033 0.64415 0.14316 0.0
H355 H 0.09505 0.77436 0.19847 0.0
H356 H 0.07021 0.74492 0.08786 0.0
H357 H 0.26649 0.93745 0.15366 0.0
H358 H 0.04346 0.65061 0.10876 0.0
H359 H 0.18986 0.82972 0.06084 0.0
H360 H 0.23772 0.87974 0.14574 0.0
H361 H 0.19704 0.86696 0.03541 0.0
H362 H 0.06423 0.66832 0.17479 0.0
H363 H 0.27339 0.97832 0.12985 0.0
H364 H 0.26533 0.99068 0.09682 0.0
H365 H 0.08078 0.71677 0.19559 0.0
H366 H 0.24568 0.97144 0.06481 0.0
N367 N 0.22436 0.8863 0.118 0.0
C368 C 0.23864 0.89659 0.1353 0.0
C369 C 0.25996 0.95266 0.12631 0.0
C370 C 0.24756 0.94232 0.10822 0.0
C371 C 0.25592 0.92969 0.13981 0.0
C372 C 0.23003 0.90854 0.10433 0.0
H373 H 0.22004 0.92556 0.04187 0.0
N374 N 0.2029 0.86512 0.08283 0.0
C375 C 0.20244 0.87589 0.04973 0.0
C376 C 0.21866 0.89766 0.08633 0.0
C377 C 0.19721 0.85447 0.06453 0.0
C378 C 0.21564 0.90893 0.05341 0.0
C379 C 0.22493 0.92036 0.07175 0.0
O380 O 0.22103 0.81672 0.09038 0.0
O381 O 0.14525 0.78426 0.11393 0.0
O382 O 0.14335 0.83016 0.14661 0.0
O383 O 0.19148 0.82982 0.14145 0.0
O384 O 0.18566 0.78919 0.12827 0.0
O385 O 0.24113 0.83785 0.11734 0.0
O386 O 0.08165 0.81752 0.13838 0.0
O387 O 0.15823 0.84596 0.11834 0.0
O388 O 0.15837 0.79889 0.08543 0.0
O389 O 0.11084 0.80028 0.09105 0.0
O390 O 0.11881 0.84359 0.10458 0.0
O391 O 0.0615 0.78889 0.11318 0.0
C392 C 0.15531 0.76981 0.12471 0.0
C393 C 0.27857 0.85008 0.09277 0.0
C394 C 0.33746 0.87189 0.09202 0.0
C395 C 0.30639 0.84951 0.09916 0.0
C396 C 0.34018 0.89443 0.07828 0.0
C397 C 0.28205 0.87287 0.07905 0.0
C398 C 0.31265 0.89481 0.07184 0.0
C399 C 0.17081 0.83255 0.1527 0.0
C400 C 0.24648 0.82826 0.1013 0.0
C401 C 0.24112 0.9538 0.07578 0.0
C402 C 0.2524 0.96475 0.09398 0.0
C403 C 0.14926 0.86192 0.10823 0.0
C404 C 0.02437 0.78608 0.13592 0.0
C405 C 1.00213 0.79677 0.13247 0.0
C406 C 0.97032 0.77941 0.1397 0.0
C407 C 0.96125 0.75144 0.15063 0.0
C408 C 1.01494 0.75811 0.14678 0.0
C409 C 0.98351 0.74098 0.15418 0.0
C410 C 0.13044 0.7963 0.07973 0.0
C411 C 0.05661 0.80354 0.1272 0.0
H412 H 0.30396 0.83227 0.10994 0.0
H413 H 0.36367 0.91165 0.07236 0.0
H414 H 0.26124 0.87392 0.07394 0.0
H415 H 0.31505 0.91228 0.06126 0.0
H416 H 1.00936 0.81809 0.12377 0.0
H417 H 0.93701 0.73779 0.15654 0.0
H418 H 0.03168 0.74935 0.14936 0.0
H419 H 0.97629 0.7194 0.16259 0.0
Eu420 Eu 0.36722 0.18751 0.60723 0.0
C421 C 0.35889 0.08207 0.66389 0.0
C422 C 0.39139 0.06114 0.65006 0.0
C423 C 0.38682 0.06258 0.68408 0.0
C424 C 0.37142 0.07513 0.64813 0.0
C425 C 0.36605 0.07546 0.68204 0.0
C426 C 0.39948 0.05544 0.66811 0.0
C427 C 0.33019 0.09315 0.69475 0.0
N428 N 0.33885 0.09442 0.66142 0.0
C429 C 0.32367 0.0991 0.67646 0.0
C430 C 0.35171 0.08155 0.69757 0.0
Eu431 Eu 0.33112 0.10629 0.63015 0.0
N432 N 0.36301 0.08079 0.63091 0.0
C433 C 0.37183 0.07091 0.61502 0.0
C434 C 0.40204 0.05267 0.63378 0.0
C435 C 0.39184 0.05717 0.61619 0.0
H436 H 0.30723 0.10832 0.67444 0.0
H437 H 0.39947 0.0502 0.60352 0.0
H438 H 0.415 0.04495 0.66988 0.0
H439 H 0.31873 0.09763 0.70665 0.0
H440 H 0.36428 0.07435 0.60132 0.0
H441 H 0.30808 0.25005 0.63813 0.0
H442 H 0.41754 0.04201 0.63465 0.0
H443 H 0.38881 0.18923 0.56225 0.0
H444 H 0.34125 0.22354 0.63797 0.0
H445 H 0.37441 0.2005 0.5308 0.0
H446 H 0.39281 0.05753 0.69791 0.0
H447 H 0.2847 0.25644 0.60845 0.0
H448 H 0.28046 0.25052 0.57324 0.0
H449 H 0.35668 0.0769 0.71176 0.0
H450 H 0.29834 0.23669 0.54387 0.0
N451 N 0.33587 0.21369 0.60854 0.0
C452 C 0.3312 0.22598 0.62489 0.0
C453 C 0.29921 0.24465 0.60828 0.0
C454 C 0.30587 0.23392 0.5914 0.0
C455 C 0.31244 0.24117 0.62505 0.0
C456 C 0.32477 0.21859 0.59199 0.0
H457 H 0.33398 0.21866 0.52787 0.0
N458 N 0.35562 0.19927 0.57675 0.0
C459 C 0.36289 0.2033 0.54325 0.0
C460 C 0.33476 0.21084 0.57553 0.0
C461 C 0.37102 0.19699 0.56104 0.0
C462 C 0.33995 0.21339 0.54166 0.0
C463 C 0.32619 0.2181 0.55794 0.0
O464 O 0.41614 0.22244 0.59711 0.0
O465 O 0.37605 0.14925 0.61898 0.0
O466 O 0.36713 0.14345 0.65014 0.0
O467 O 0.36497 0.18894 0.63985 0.0
O468 O 0.40128 0.17195 0.59477 0.0
O469 O 0.39817 0.23299 0.62238 0.0
O470 O 0.28008 0.07403 0.6376 0.0
O471 O 0.32208 0.14455 0.61805 0.0
O472 O 0.33578 0.14852 0.5854 0.0
O473 O 0.33398 0.10251 0.59857 0.0
O474 O 0.29808 0.12291 0.64287 0.0
O475 O 0.30271 0.05902 0.61648 0.0
C476 C 0.39677 0.15057 0.60736 0.0
C477 C 0.43304 0.27759 0.60322 0.0
C478 C 0.47291 0.33593 0.60303 0.0
C479 C 0.46318 0.30398 0.60911 0.0
C480 C 0.4525 0.34089 0.59082 0.0
C481 C 0.41335 0.2834 0.591 0.0
C482 C 0.42303 0.31478 0.58482 0.0
C483 C 0.37045 0.17239 0.6531 0.0
C484 C 0.42153 0.24412 0.60998 0.0
C485 C 0.30554 0.23131 0.55725 0.0
C486 C 0.29539 0.23922 0.57397 0.0
C487 C 0.30196 0.14363 0.63001 0.0
C488 C 0.25934 0.01778 0.63395 0.0
C489 C 0.22669 0.99638 0.62901 0.0
C490 C 0.20997 0.96449 0.63633 0.0
C491 C 0.22644 0.95467 0.64881 0.0
C492 C 0.27524 1.00744 0.64637 0.0
C493 C 0.25879 0.97601 0.65376 0.0
C494 C 0.32942 0.11788 0.58445 0.0
C495 C 0.27643 0.0509 0.62623 0.0
H496 H 0.47856 0.29979 0.61862 0.0
H497 H 0.45952 0.36509 0.58578 0.0
H498 H 0.39042 0.26368 0.58622 0.0
H499 H 0.40756 0.3189 0.57539 0.0
H500 H 0.21455 1.00444 0.6193 0.0
H501 H 0.21417 0.93055 0.65498 0.0
H502 H 0.3003 0.02367 0.65034 0.0
H503 H 0.27113 0.96816 0.66341 0.0
Eu504 Eu 0.66378 0.83311 0.4019 0.0
C505 C 0.66731 0.74083 0.35242 0.0
C506 C 0.64242 0.69053 0.37018 0.0
C507 C 0.62803 0.69 0.33738 0.0
C508 C 0.66341 0.72461 0.3692 0.0
C509 C 0.65067 0.72341 0.33611 0.0
C510 C 0.62389 0.67358 0.35441 0.0
C511 C 0.68371 0.77191 0.31794 0.0
N512 N 0.68958 0.77303 0.3516 0.0
C513 C 0.69968 0.78796 0.33444 0.0
C514 C 0.65843 0.73972 0.31884 0.0
Eu515 Eu 0.71122 0.79977 0.38093 0.0
N516 N 0.68156 0.74173 0.38425 0.0
C517 C 0.68277 0.72537 0.39985 0.0
C518 C 0.64133 0.67433 0.38681 0.0
C519 C 0.66223 0.69173 0.40152 0.0
H520 H 0.71973 0.81264 0.33333 0.0
H521 H 0.66272 0.67923 0.41414 0.0
H522 H 0.60716 0.64756 0.35505 0.0
H523 H 0.69102 0.78438 0.30454 0.0
H524 H 0.69963 0.73765 0.41116 0.0
H525 H 0.72087 0.94816 0.36348 0.0
H526 H 0.62545 0.64825 0.38815 0.0
H527 H 0.64525 0.82253 0.44801 0.0
H528 H 0.68763 0.88883 0.36753 0.0
H529 H 0.66285 0.85418 0.47759 0.0
H530 H 0.61458 0.67639 0.3251 0.0
H531 H 0.74632 0.98356 0.39117 0.0
H532 H 0.75371 0.9887 0.42624 0.0
H533 H 0.6462 0.72723 0.30602 0.0
H534 H 0.73877 0.96283 0.45744 0.0
N535 N 0.69525 0.89008 0.39705 0.0
C536 C 0.699 0.90376 0.37967 0.0
C537 C 0.73186 0.95742 0.393 0.0
C538 C 0.72653 0.94338 0.4109 0.0
C539 C 0.71756 0.93753 0.37735 0.0
C540 C 0.70759 0.90919 0.41251 0.0
H541 H 0.70447 0.91271 0.47677 0.0
N542 N 0.67863 0.86209 0.4309 0.0
C543 C 0.67369 0.86581 0.46434 0.0
C544 C 0.69952 0.89464 0.43001 0.0
C545 C 0.66388 0.84798 0.4476 0.0
C546 C 0.69726 0.8988 0.46381 0.0
C547 C 0.70969 0.91387 0.44645 0.0
O548 O 0.6158 0.8193 0.41367 0.0
O549 O 0.66037 0.78875 0.38825 0.0
O550 O 0.70577 0.83324 0.36057 0.0
O551 O 0.65599 0.82591 0.36993 0.0
O552 O 0.6353 0.78257 0.41348 0.0
O553 O 0.63092 0.84645 0.38797 0.0
O554 O 0.75327 0.81623 0.36227 0.0
O555 O 0.71171 0.84583 0.38925 0.0
O556 O 0.68806 0.82049 0.42622 0.0
O557 O 0.70692 0.78905 0.41166 0.0
O558 O 0.74965 0.84033 0.39879 0.0
O559 O 0.75038 0.79028 0.38789 0.0
C560 C 0.64107 0.76785 0.40005 0.0
C561 C 0.59765 0.85677 0.40805 0.0
C562 C 0.55858 0.87613 0.40809 0.0
C563 C 0.56789 0.85362 0.40199 0.0
C564 C 0.57897 0.90118 0.4205 0.0
C565 C 0.61742 0.88209 0.42041 0.0
C566 C 0.60811 0.90402 0.42664 0.0
C567 C 0.6781 0.83215 0.35676 0.0
C568 C 0.60885 0.8347 0.40105 0.0
C569 C 0.73032 0.94771 0.44496 0.0
C570 C 0.7387 0.96245 0.4272 0.0
C571 C 0.73818 0.85975 0.39828 0.0
C572 C 0.78273 0.78802 0.36358 0.0
C573 C 0.81466 0.79683 0.36872 0.0
C574 C 0.8302 0.78115 0.36062 0.0
C575 C 0.81318 0.75654 0.34719 0.0
C576 C 0.76606 0.76334 0.35029 0.0
C577 C 0.78136 0.74776 0.3421 0.0
C578 C 0.70112 0.80141 0.42673 0.0
C579 C 0.76722 0.80432 0.37284 0.0
H580 H 0.55251 0.83433 0.3923 0.0
H581 H 0.57223 0.91855 0.42557 0.0
H582 H 0.64017 0.88509 0.42522 0.0
H583 H 0.62364 0.92342 0.43619 0.0
H584 H 0.82713 0.81551 0.37931 0.0
H585 H 0.82457 0.74429 0.34047 0.0
H586 H 0.7413 0.75608 0.34635 0.0
H587 H 0.76852 0.72879 0.33177 0.0
Eu588 Eu 0.84121 0.65206 0.90025 0.0
C589 C 0.94954 0.66842 0.86148 0.0
C590 C 0.97209 0.64391 0.88196 0.0
C591 C 0.96855 0.63345 0.84837 0.0
C592 C 0.95775 0.66349 0.87934 0.0
C593 C 0.95611 0.65448 0.84571 0.0
C594 C 0.97649 0.62814 0.86648 0.0
C595 C 0.94273 0.68711 0.82576 0.0
N596 N 0.9376 0.68891 0.85937 0.0
C597 C 0.93702 0.70053 0.84181 0.0
C598 C 0.95142 0.66324 0.82771 0.0
Eu599 Eu 0.92449 0.70728 0.88766 0.0
N600 N 0.95263 0.67857 0.89409 0.0
C601 C 0.96497 0.6782 0.9114 0.0
C602 C 0.98208 0.64119 0.90004 0.0
C603 C 0.97914 0.65901 0.91474 0.0
H604 H 0.93221 0.72031 0.83997 0.0
H605 H 0.98809 0.65826 0.92863 0.0
H606 H 0.98689 0.61255 0.8683 0.0
H607 H 0.9409 0.69557 0.81192 0.0
H608 H 0.96475 0.69315 0.92269 0.0
H609 H 0.76854 0.68625 0.85581 0.0
H610 H 0.99308 0.62633 0.90265 0.0
H611 H 0.84361 0.65392 0.94889 0.0
H612 H 0.79761 0.65768 0.86368 0.0
H613 H 0.83532 0.68301 0.97446 0.0
H614 H 0.97317 0.62207 0.83646 0.0
H615 H 0.76041 0.7191 0.87985 0.0
H616 H 0.76724 0.73844 0.91308 0.0
H617 H 0.95617 0.65308 0.81526 0.0
H618 H 0.78612 0.73823 0.9452 0.0
N619 N 0.80986 0.67668 0.89167 0.0
C620 C 0.79613 0.67311 0.87425 0.0
C621 C 0.77395 0.70702 0.88338 0.0
C622 C 0.78583 0.70866 0.90156 0.0
C623 C 0.77868 0.68872 0.86975 0.0
C624 C 0.80354 0.69263 0.90543 0.0
H625 H 0.81169 0.71801 0.96812 0.0
N626 N 0.83054 0.67632 0.92697 0.0
C627 C 0.83014 0.68674 0.96014 0.0
C628 C 0.81449 0.69278 0.9235 0.0
C629 C 0.83603 0.67115 0.94527 0.0
C630 C 0.81657 0.70622 0.95653 0.0
C631 C 0.8076 0.70863 0.93816 0.0
O632 O 0.81407 0.60991 0.91872 0.0
O633 O 0.88978 0.65522 0.89605 0.0
O634 O 0.89126 0.70273 0.8633 0.0
O635 O 0.84353 0.65364 0.86822 0.0
O636 O 0.85005 0.6195 0.88133 0.0
O637 O 0.79341 0.6119 0.89215 0.0
O638 O 0.95204 0.7526 0.87182 0.0
O639 O 0.87563 0.70322 0.89147 0.0
O640 O 0.87608 0.65635 0.92444 0.0
O641 O 0.92291 0.70604 0.91909 0.0
O642 O 0.91435 0.7406 0.90555 0.0
O643 O 0.97246 0.74478 0.89711 0.0
C644 C 0.88035 0.63084 0.8852 0.0
C645 C 0.75644 0.58523 0.91677 0.0
C646 C 0.69741 0.54886 0.91697 0.0
C647 C 0.7283 0.55828 0.90932 0.0
C648 C 0.69515 0.56636 0.93231 0.0
C649 C 0.75342 0.60229 0.93205 0.0
C650 C 0.72298 0.59281 0.93978 0.0
C651 C 0.8641 0.67737 0.85707 0.0
C652 C 0.78844 0.59629 0.90792 0.0
C653 C 0.79118 0.72561 0.93416 0.0
C654 C 0.78033 0.72564 0.9159 0.0
C655 C 0.88395 0.72802 0.90163 0.0
C656 C 1.00936 0.78035 0.87464 0.0
C657 C 0.03077 0.81321 0.87883 0.0
C658 C 0.0626 0.82924 0.87158 0.0
C659 C 0.07255 0.81184 0.85993 0.0
C660 C 0.01965 0.76327 0.86312 0.0
C661 C 0.05115 0.77908 0.85574 0.0
C662 C 0.90355 0.68217 0.93032 0.0
C663 C 0.97694 0.76427 0.88314 0.0
H664 H 0.73036 0.54522 0.89737 0.0
H665 H 0.67178 0.5594 0.93863 0.0
H666 H 0.77447 0.623 0.93802 0.0
H667 H 0.72093 0.6061 0.95159 0.0
H668 H 0.0228 0.82605 0.88808 0.0
H669 H 0.09677 0.82362 0.85392 0.0
H670 H 1.00352 0.7378 0.85996 0.0
H671 H 0.05906 0.76589 0.84679 0.0
Eu672 Eu 0.19786 0.83587 0.39778 0.0
C673 C 0.29238 0.94466 0.3598 0.0
C674 C 0.33845 0.96605 0.38107 0.0
C675 C 0.34697 0.96385 0.34755 0.0
C676 C 0.30467 0.95215 0.3779 0.0
C677 C 0.31366 0.95161 0.34437 0.0
C678 C 0.35933 0.97102 0.36587 0.0
C679 C 0.26859 0.93858 0.32366 0.0
N680 N 0.26005 0.93278 0.35715 0.0
C681 C 0.24867 0.93244 0.33938 0.0
C682 C 0.30108 0.94736 0.32615 0.0
Eu683 Eu 0.22735 0.91969 0.38491 0.0
N684 N 0.2838 0.9464 0.3924 0.0
C685 C 0.29568 0.95721 0.41007 0.0
C686 C 0.3503 0.97486 0.3994 0.0
C687 C 0.32887 0.97097 0.4139 0.0
H688 H 0.22419 0.92767 0.33713 0.0
H689 H 0.33791 0.97879 0.42803 0.0
H690 H 0.38521 0.98112 0.3681 0.0
H691 H 0.25897 0.93704 0.30965 0.0
H692 H 0.28005 0.95603 0.42134 0.0
H693 H 0.09263 0.76312 0.35208 0.0
H694 H 0.37602 0.98547 0.40241 0.0
H695 H 0.19628 0.83575 0.44649 0.0
H696 H 0.14998 0.79214 0.3607 0.0
H697 H 0.15787 0.82667 0.47164 0.0
H698 H 0.36352 0.96879 0.33589 0.0
H699 H 0.05068 0.7547 0.37551 0.0
H700 H 0.03686 0.76111 0.40853 0.0
H701 H 0.3166 0.95243 0.31395 0.0
H702 H 0.05469 0.77924 0.44092 0.0
N703 N 0.14215 0.80409 0.38855 0.0
C704 C 0.13265 0.79053 0.37103 0.0
C705 C 0.07618 0.76821 0.37938 0.0
C706 C 0.08572 0.77989 0.39767 0.0
C707 C 0.09976 0.7731 0.3661 0.0
C708 C 0.11931 0.79758 0.40199 0.0
H709 H 0.09955 0.80378 0.46451 0.0
N710 N 0.16176 0.82386 0.42412 0.0
C711 C 0.14955 0.82215 0.45719 0.0
C712 C 0.12939 0.8081 0.42021 0.0
C713 C 0.17161 0.82846 0.44258 0.0
C714 C 0.11669 0.80901 0.45313 0.0
C715 C 0.10606 0.80081 0.43457 0.0
O716 O 0.21591 0.81098 0.41586 0.0
O717 O 0.24365 0.88451 0.3941 0.0
O718 O 0.19952 0.88672 0.3603 0.0
O719 O 0.19949 0.83838 0.36565 0.0
O720 O 0.23955 0.84483 0.37918 0.0
O721 O 0.18928 0.7873 0.3907 0.0
O722 O 0.21106 0.94807 0.36873 0.0
O723 O 0.18238 0.87077 0.38833 0.0
O724 O 0.22503 0.87074 0.42269 0.0
O725 O 0.22431 0.91838 0.41614 0.0
O726 O 0.18244 0.90961 0.40138 0.0
O727 O 0.23894 0.96813 0.3942 0.0
C728 C 0.25872 0.87494 0.38345 0.0
C729 C 0.18481 0.75299 0.41589 0.0
C730 C 0.16519 0.69449 0.41747 0.0
C731 C 0.18335 0.72479 0.40833 0.0
C732 C 0.14895 0.69289 0.43433 0.0
C733 C 0.16841 0.75065 0.43276 0.0
C734 C 0.15068 0.72081 0.44192 0.0
C735 C 0.19717 0.85921 0.3543 0.0
C736 C 0.2029 0.78438 0.40585 0.0
C737 C 0.07281 0.78457 0.43012 0.0
C738 C 0.06266 0.77414 0.41171 0.0
C739 C 0.16516 0.87898 0.39781 0.0
C740 C 0.24173 1.00542 0.37148 0.0
C741 C 0.23196 0.02805 0.37602 0.0
C742 C 0.24829 0.05962 0.36834 0.0
C743 C 0.27442 0.06797 0.3559 0.0
C744 C 0.26806 0.01432 0.35928 0.0
C745 C 0.28421 0.04547 0.35146 0.0
C746 C 0.2263 0.89828 0.42797 0.0
C747 C 0.22455 0.97301 0.38004 0.0
H748 H 0.19587 0.72632 0.39527 0.0
H749 H 0.13524 0.67004 0.44179 0.0
H750 H 0.16927 0.7718 0.43895 0.0
H751 H 0.13823 0.71932 0.45496 0.0
H752 H 0.212 0.02117 0.3858 0.0
H753 H 0.28715 0.09183 0.34942 0.0
H754 H 0.27618 0.99734 0.35586 0.0
H755 H 0.3044 0.05222 0.34194 0.0
Eu756 Eu 0.37022 0.19015 0.89787 0.0
C757 C 0.36998 0.29397 0.85795 0.0
C758 C 0.39357 0.34047 0.87884 0.0
C759 C 0.41036 0.3473 0.84611 0.0
C760 C 0.37277 0.30681 0.87571 0.0
C761 C 0.38762 0.31441 0.84275 0.0
C762 C 0.41332 0.36034 0.86415 0.0
C763 C 0.35466 0.27016 0.8217 0.0
N764 N 0.3474 0.26229 0.85517 0.0
C765 C 0.33764 0.25117 0.83723 0.0
C766 C 0.38052 0.30166 0.82451 0.0
Eu767 Eu 0.32456 0.22976 0.88271 0.0
N768 N 0.35335 0.28688 0.88958 0.0
C769 C 0.35025 0.30014 0.90604 0.0
C770 C 0.39303 0.35335 0.89643 0.0
C771 C 0.37059 0.33324 0.9099 0.0
H772 H 0.31667 0.22756 0.8347 0.0
H773 H 0.36873 0.34324 0.92323 0.0
H774 H 0.42998 0.38606 0.86642 0.0
H775 H 0.34753 0.2606 0.80759 0.0
H776 H 0.33208 0.28554 0.91638 0.0
H777 H 0.30588 0.078 0.85711 0.0
H778 H 0.40871 0.37902 0.89943 0.0
H779 H 0.3937 0.19728 0.94308 0.0
H780 H 0.34071 0.13693 0.86218 0.0
H781 H 0.37869 0.16359 0.97192 0.0
H782 H 0.42461 0.36319 0.83468 0.0
H783 H 0.2829 0.04091 0.88439 0.0
H784 H 0.27947 0.03346 0.91947 0.0
H785 H 0.39348 0.31652 0.81246 0.0
H786 H 0.29841 0.05706 0.95092 0.0
N787 N 0.33667 0.13375 0.89199 0.0
C788 C 0.33057 0.12124 0.8742 0.0
C789 C 0.2981 0.06687 0.88669 0.0
C790 C 0.30571 0.07969 0.90491 0.0
C791 C 0.31103 0.08771 0.87127 0.0
C792 C 0.32556 0.11368 0.90713 0.0
H793 H 0.33585 0.10551 0.97063 0.0
N794 N 0.358 0.1592 0.92607 0.0
C795 C 0.36628 0.15303 0.95881 0.0
C796 C 0.33611 0.12694 0.92481 0.0
C797 C 0.37472 0.17197 0.94249 0.0
C798 C 0.34199 0.12031 0.95803 0.0
C799 C 0.32732 0.1066 0.94077 0.0
O800 O 0.41902 0.20219 0.90728 0.0
O801 O 0.37465 0.23681 0.88724 0.0
O802 O 0.32709 0.19912 0.85898 0.0
O803 O 0.37423 0.19815 0.86592 0.0
O804 O 0.40206 0.23914 0.91083 0.0
O805 O 0.40043 0.17659 0.88126 0.0
O806 O 0.2826 0.21671 0.86456 0.0
O807 O 0.32252 0.18197 0.88745 0.0
O808 O 0.3465 0.19864 0.92401 0.0
O809 O 0.33403 0.23787 0.91383 0.0
O810 O 0.2866 0.18795 0.90007 0.0
O811 O 0.28472 0.23655 0.89227 0.0
C812 C 0.39556 0.25579 0.89909 0.0
C813 C 0.43477 0.16397 0.89865 0.0
C814 C 0.47507 0.14633 0.8977 0.0
C815 C 0.46592 0.16974 0.89356 0.0
C816 C 0.45311 0.11773 0.9073 0.0
C817 C 0.41338 0.13515 0.90813 0.0
C818 C 0.42253 0.11229 0.91252 0.0
C819 C 0.35231 0.19638 0.85373 0.0
C820 C 0.42389 0.18711 0.89349 0.0
C821 C 0.30577 0.07302 0.93879 0.0
C822 C 0.29506 0.05957 0.92088 0.0
C823 C 0.29678 0.16784 0.89712 0.0
C824 C 0.25156 0.24248 0.86993 0.0
C825 C 0.21858 0.22985 0.87439 0.0
C826 C 0.20199 0.24592 0.86853 0.0
C827 C 0.21907 0.27485 0.85804 0.0
C828 C 0.26825 0.27133 0.85955 0.0
C829 C 0.25194 0.28738 0.85359 0.0
C830 C 0.3381 0.22102 0.92718 0.0
C831 C 0.26802 0.22544 0.87683 0.0
H832 H 0.48257 0.19182 0.88608 0.0
H833 H 0.45973 0.09961 0.91088 0.0
H834 H 0.38947 0.1301 0.91201 0.0
H835 H 0.40576 0.09018 0.91989 0.0
H836 H 0.20602 0.20779 0.88272 0.0
H837 H 0.20694 0.28761 0.85308 0.0
H838 H 0.29377 0.28142 0.85615 0.0
H839 H 0.26479 0.30963 0.84551 0.0
Eu840 Eu 0.1924 0.363 0.40056 0.0
C841 C 0.08107 0.35264 0.34799 0.0
C842 C 0.0603 0.38402 0.36344 0.0
C843 C 0.05873 0.37972 0.32932 0.0
C844 C 0.07513 0.36471 0.3643 0.0
C845 C 0.07255 0.35962 0.33032 0.0
C846 C 0.05262 0.39191 0.34585 0.0
C847 C 0.09047 0.32501 0.31605 0.0
N848 N 0.09437 0.33328 0.34947 0.0
C849 C 0.0983 0.31864 0.3339 0.0
C850 C 0.07777 0.34582 0.31422 0.0
Eu851 Eu 0.10937 0.32577 0.37998 0.0
N852 N 0.08274 0.35654 0.38105 0.0
C853 C 0.07412 0.36497 0.39753 0.0
C854 C 0.05303 0.39428 0.38031 0.0
C855 C 0.0596 0.38435 0.39743 0.0
H856 H 0.10837 0.30277 0.33515 0.0
H857 H 0.05361 0.39169 0.41056 0.0
H858 H 0.04145 0.40694 0.3449 0.0
H859 H 0.09433 0.31397 0.30371 0.0
H860 H 0.07918 0.3576 0.41087 0.0
H861 H 0.25504 0.30586 0.36734 0.0
H862 H 0.04177 0.40928 0.38026 0.0
H863 H 0.19585 0.38423 0.44581 0.0
H864 H 0.22713 0.33772 0.36857 0.0
H865 H 0.20939 0.37037 0.47674 0.0
H866 H 0.05222 0.38557 0.31587 0.0
H867 H 0.26438 0.28354 0.3966 0.0
H868 H 0.26083 0.27955 0.43189 0.0
H869 H 0.07166 0.35068 0.30037 0.0
H870 H 0.24801 0.29686 0.4618 0.0
N871 N 0.21957 0.3327 0.3982 0.0
C872 C 0.2309 0.32813 0.38147 0.0
C873 C 0.25201 0.29748 0.39724 0.0
C874 C 0.24208 0.30393 0.41447 0.0
C875 C 0.24686 0.31011 0.3807 0.0
C876 C 0.22597 0.3221 0.41449 0.0
H877 H 0.22938 0.33127 0.47869 0.0
N878 N 0.20637 0.35198 0.43059 0.0
C879 C 0.21196 0.35916 0.46408 0.0
C880 C 0.21882 0.3318 0.43127 0.0
C881 C 0.20434 0.36698 0.44656 0.0
C882 C 0.22309 0.33698 0.46512 0.0
C883 C 0.22744 0.32362 0.44856 0.0
O884 O 0.22705 0.41241 0.41008 0.0
O885 O 0.15265 0.37132 0.3905 0.0
O886 O 0.14479 0.36205 0.35927 0.0
O887 O 0.19141 0.36068 0.36799 0.0
O888 O 0.17661 0.39548 0.41471 0.0
O889 O 0.23677 0.39427 0.38457 0.0
O890 O 0.07693 0.27487 0.37226 0.0
O891 O 0.14922 0.31788 0.39018 0.0
O892 O 0.15566 0.32953 0.42262 0.0
O893 O 0.10829 0.32775 0.41179 0.0
O894 O 0.12549 0.29316 0.36598 0.0
O895 O 0.06416 0.29597 0.39542 0.0
C896 C 0.1543 0.3912 0.40288 0.0
C897 C 0.28199 0.42992 0.40303 0.0
C898 C 0.34004 0.47035 0.40221 0.0
C899 C 0.30774 0.46007 0.39669 0.0
C900 C 0.34605 0.45049 0.41428 0.0
C901 C 0.28878 0.41079 0.41515 0.0
C902 C 0.32055 0.421 0.42075 0.0
C903 C 0.17364 0.36576 0.35541 0.0
C904 C 0.24817 0.41786 0.39683 0.0
C905 C 0.24154 0.30373 0.44866 0.0
C906 C 0.24888 0.29391 0.43163 0.0
C907 C 0.14759 0.29776 0.37803 0.0
C908 C 0.02118 0.25231 0.37901 0.0
C909 C 1.00161 0.21914 0.38362 0.0
C910 C 0.96865 0.20178 0.37817 0.0
C911 C 0.95584 0.21812 0.36785 0.0
C912 C 1.00793 0.26804 0.3687 0.0
C913 C 0.97539 0.25095 0.36314 0.0
C914 C 0.12513 0.32282 0.42487 0.0
C915 C 0.05532 0.27017 0.38504 0.0
H916 H 0.30278 0.47509 0.38732 0.0
H917 H 0.37057 0.45802 0.4189 0.0
H918 H 0.26954 0.38791 0.4203 0.0
H919 H 0.32541 0.40597 0.43012 0.0
H920 H 1.01191 0.20707 0.39167 0.0
H921 H 0.93074 0.20538 0.36321 0.0
H922 H 0.02274 0.2935 0.36497 0.0
H923 H 0.96526 0.26318 0.35515 0.0
Eu924 Eu 0.8385 0.18369 0.89944 0.0
C925 C 0.73523 0.08925 0.85678 0.0
C926 C 0.68973 0.06026 0.87804 0.0
C927 C 0.68106 0.07771 0.84757 0.0
C928 C 0.72327 0.07443 0.87397 0.0
C929 C 0.71396 0.08988 0.84311 0.0
C930 C 0.66897 0.06297 0.86504 0.0
C931 C 0.75804 0.11015 0.82078 0.0
N932 N 0.76714 0.10094 0.85291 0.0
C933 C 0.77794 0.10872 0.83476 0.0
C934 C 0.7261 0.10158 0.82511 0.0
Eu935 Eu 0.80075 0.10237 0.87826 0.0
N936 N 0.74406 0.07259 0.88636 0.0
C937 C 0.73174 0.05282 0.90183 0.0
C938 C 0.67786 0.04308 0.89486 0.0
C939 C 0.69884 0.03865 0.90657 0.0
H940 H 0.80182 0.11351 0.83075 0.0
H941 H 0.68961 0.02394 0.91915 0.0
H942 H 0.64333 0.05284 0.86811 0.0
H943 H 0.76725 0.11743 0.80661 0.0
H944 H 0.74682 0.04727 0.91062 0.0
H945 H 0.95428 0.23801 0.8619 0.0
H946 H 0.65233 0.03197 0.89853 0.0
H947 H 0.82739 0.19251 0.9453 0.0
H948 H 0.89505 0.21344 0.86546 0.0
H949 H 0.85825 0.206 0.97514 0.0
H950 H 0.66456 0.07861 0.83739 0.0
H951 H 0.98874 0.24714 0.88991 0.0
H952 H 0.99289 0.24505 0.92506 0.0
H953 H 0.71058 0.10245 0.81423 0.0
H954 H 0.96642 0.23514 0.95604 0.0
N955 N 0.89536 0.20718 0.89506 0.0
C956 C 0.90955 0.21671 0.87776 0.0
C957 C 0.96262 0.23613 0.89154 0.0
C958 C 0.94812 0.22786 0.90934 0.0
C959 C 0.94327 0.23102 0.8757 0.0
C960 C 0.914 0.2135 0.91067 0.0
H961 H 0.91626 0.22105 0.97489 0.0
N962 N 0.86681 0.19722 0.92863 0.0
C963 C 0.86998 0.20623 0.96204 0.0
C964 C 0.89912 0.20774 0.92805 0.0
C965 C 0.85261 0.19857 0.94515 0.0
C966 C 0.90267 0.21458 0.96183 0.0
C967 C 0.91793 0.21648 0.94464 0.0
O968 O 0.82507 0.21845 0.91075 0.0
O969 O 0.79302 0.1441 0.88584 0.0
O970 O 0.83475 0.14037 0.85757 0.0
O971 O 0.83282 0.18581 0.86745 0.0
O972 O 0.78846 0.16281 0.91155 0.0
O973 O 0.85415 0.23067 0.8858 0.0
O974 O 0.81292 0.08013 0.85509 0.0
O975 O 0.84798 0.14644 0.8864 0.0
O976 O 0.82562 0.14686 0.92372 0.0
O977 O 0.79511 0.09595 0.90944 0.0
O978 O 0.84125 0.10179 0.8948 0.0
O979 O 0.79044 0.05172 0.88058 0.0
C980 C 0.77288 0.14301 0.89799 0.0
C981 C 0.86389 0.27404 0.90592 0.0
C982 C 0.88328 0.33251 0.90686 0.0
C983 C 0.86072 0.30091 0.90041 0.0
C984 C 0.90833 0.33666 0.91909 0.0
C985 C 0.88926 0.27908 0.91805 0.0
C986 C 0.91119 0.3101 0.92467 0.0
C987 C 0.83709 0.16878 0.85414 0.0
C988 C 0.84182 0.24106 0.89848 0.0
C989 C 0.95162 0.2287 0.94344 0.0
C990 C 0.96671 0.23445 0.92581 0.0
C991 C 0.86141 0.1327 0.89473 0.0
C992 C 0.8031 0.02478 0.85531 0.0
C993 C 0.80686 1.0021 0.8663 0.0
C994 C 0.80708 0.97554 0.85759 0.0
C995 C 0.80342 0.9718 0.838 0.0
C996 C 0.79993 0.02076 0.83571 0.0
C997 C 0.79998 0.99435 0.82715 0.0
C998 C 0.80733 0.11461 0.92437 0.0
C999 C 0.80234 0.05264 0.86394 0.0
H1000 H 0.84143 0.29739 0.89086 0.0
H1001 H 0.92573 0.36059 0.92442 0.0
H1002 H 0.89238 0.25914 0.92233 0.0
H1003 H 0.93063 0.31359 0.93405 0.0
H1004 H 0.80966 1.0051 0.88143 0.0
H1005 H 0.80357 0.95151 0.83108 0.0
H1006 H 0.79705 0.0379 0.82701 0.0
H1007 H 0.79734 0.99135 0.81204 0.0
C1008 C 0.17376 0.91286 0.12748 0.0
C1009 C 0.16196 0.89717 0.11014 0.0
C1010 C 0.18287 0.94564 0.12965 0.0
C1011 C 0.16974 1.00967 0.10857 0.0
H1012 H 0.24188 0.06646 0.14084 0.0
C1013 C 0.18905 0.13289 0.13632 0.0
C1014 C 0.22088 0.15786 0.14008 0.0
C1015 C 0.18322 0.10241 0.13009 0.0
C1016 C 0.22196 0.05119 0.13151 0.0
H1017 H 0.14956 0.90278 0.08167 0.0
H1018 H 0.16643 0.96037 0.08516 0.0
H1019 H 0.23042 1.01124 0.13498 0.0
H1020 H 0.27167 0.1715 0.1396 0.0
H1021 H 0.26185 0.11882 0.12798 0.0
H1022 H 0.16172 0.04985 0.10475 0.0
C1023 C 0.16844 0.94746 0.09717 0.0
C1024 C 0.21506 0.01924 0.12841 0.0
C1025 C 0.15904 0.91461 0.09509 0.0
C1026 C 0.24694 0.15256 0.13662 0.0
C1027 C 0.24119 0.12224 0.13024 0.0
C1028 C 0.17681 0.04172 0.11155 0.0
C1029 C 0.18021 0.96337 0.11453 0.0
C1030 C 0.18863 0.99793 0.11707 0.0
C1031 C 0.20919 0.09639 0.12748 0.0
C1032 C 0.20283 0.06286 0.12321 0.0
H1033 H 0.17535 0.89963 0.13947 0.0
H1034 H 0.19123 0.95682 0.14332 0.0
H1035 H 0.14894 0.99389 0.09993 0.0
H1036 H 0.16859 0.13639 0.13919 0.0
H1037 H 0.15824 0.08313 0.12833 0.0
C1038 C 0.26755 0.16364 0.64401 0.0
C1039 C 0.27866 0.15532 0.62782 0.0
C1040 C 0.24371 0.17253 0.64275 0.0
C1041 C 0.1757 0.16362 0.61375 0.0
H1042 H 0.18469 0.23456 0.6451 0.0
C1043 C 0.0675 0.18065 0.63598 0.0
C1044 C 0.07357 0.21232 0.63946 0.0
C1045 C 0.09286 0.17539 0.63047 0.0
C1046 C 0.18188 0.21503 0.63598 0.0
H1047 H 0.27225 0.1476 0.59774 0.0
H1048 H 0.23029 0.16343 0.59542 0.0
H1049 H 0.22902 0.22302 0.64331 0.0
H1050 H 0.11013 0.26338 0.63913 0.0
H1051 H 0.1543 0.25451 0.62895 0.0
H1052 H 0.12835 0.15558 0.60651 0.0
C1053 C 0.24045 0.16354 0.60907 0.0
C1054 C 0.20721 0.20814 0.63516 0.0
C1055 C 0.26467 0.15488 0.61034 0.0
C1056 C 0.10487 0.23877 0.6363 0.0
C1057 C 0.13019 0.23359 0.63072 0.0
C1058 C 0.15024 0.17053 0.61457 0.0
C1059 C 0.22989 0.17271 0.62529 0.0
C1060 C 0.20421 0.18195 0.62436 0.0
C1061 C 0.12481 0.20177 0.62843 0.0
C1062 C 0.15281 0.19605 0.62592 0.0
H1063 H 0.27742 0.16334 0.6577 0.0
H1064 H 0.23565 0.1787 0.65556 0.0
H1065 H 0.17257 0.14319 0.60535 0.0
H1066 H 0.0436 0.15988 0.63867 0.0
H1067 H 0.08779 0.15056 0.62902 0.0
C1068 C 0.88169 0.11366 0.13029 0.0
C1069 C 0.87053 0.08098 0.13502 0.0
C1070 C 0.91452 0.13479 0.12624 0.0
C1071 C 0.99557 0.1461 0.13563 0.0
H1072 H 0.02319 0.21162 0.09647 0.0
C1073 C 0.12538 0.25653 0.13224 0.0
C1074 C 0.14017 0.26596 0.11451 0.0
C1075 C 0.09264 0.23266 0.13378 0.0
C1076 C 1.01586 0.19329 0.10735 0.0
H1077 H 0.88495 0.0446 0.1387 0.0
H1078 H 0.94238 0.08152 0.13151 0.0
H1079 H 0.96541 0.17171 0.10017 0.0
H1080 H 0.13348 0.25704 0.08458 0.0
H1081 H 0.07562 0.21542 0.08715 0.0
H1082 H 0.04595 0.16765 0.14284 0.0
C1083 C 0.92572 0.09085 0.13114 0.0
C1084 C 0.98277 0.17062 0.10958 0.0
C1085 C 0.8928 0.06965 0.13511 0.0
C1086 C 0.12217 0.25046 0.09834 0.0
C1087 C 0.0892 0.2268 0.09984 0.0
C1088 C 0.0286 0.16883 0.13346 0.0
C1089 C 0.937 0.12376 0.12686 0.0
C1090 C 0.97224 0.14687 0.12382 0.0
C1091 C 0.0741 0.21767 0.1176 0.0
C1092 C 0.0391 0.19279 0.11937 0.0
H1093 H 0.86502 0.12297 0.1298 0.0
H1094 H 0.92243 0.16003 0.12313 0.0
H1095 H 0.98825 0.12838 0.14687 0.0
H1096 H 0.13917 0.26773 0.14492 0.0
H1097 H 0.08168 0.22639 0.14764 0.0
C1098 C 0.7783 0.8751 0.63044 0.0
C1099 C 0.80052 0.86487 0.63519 0.0
C1100 C 0.78914 0.90782 0.62653 0.0
C1101 C 0.85781 0.98986 0.63605 0.0
H1102 H 0.81862 0.0162 0.59704 0.0
C1103 C 0.87711 0.11941 0.6322 0.0
C1104 C 0.88248 0.13392 0.6144 0.0
C1105 C 0.8677 0.08657 0.6339 0.0
C1106 C 0.82997 1.00921 0.60788 0.0
H1107 H 0.85171 0.88098 0.63915 0.0
H1108 H 0.87067 0.93803 0.63206 0.0
H1109 H 0.80163 0.95863 0.60079 0.0
H1110 H 0.88423 0.12665 0.58449 0.0
H1111 H 0.86712 0.06862 0.58734 0.0
H1112 H 0.88626 0.04037 0.64307 0.0
C1113 C 0.84479 0.92077 0.6316 0.0
C1114 C 0.82003 0.97624 0.61015 0.0
C1115 C 0.83394 0.88802 0.63549 0.0
C1116 C 0.87939 0.11552 0.5983 0.0
C1117 C 0.8696 0.08247 0.59996 0.0
C1118 C 0.86766 0.02275 0.63381 0.0
C1119 C 0.82248 0.9311 0.62729 0.0
C1120 C 0.83377 0.96619 0.62432 0.0
C1121 C 0.86373 0.06769 0.6178 0.0
C1122 C 0.85376 0.03278 0.61976 0.0
H1123 H 0.75245 0.85778 0.62979 0.0
H1124 H 0.7713 0.915 0.62338 0.0
H1125 H 0.86858 0.98292 0.64725 0.0
H1126 H 0.88021 0.13352 0.64481 0.0
H1127 H 0.86314 0.07586 0.64781 0.0
C1128 C 0.95512 0.82297 0.13757 0.0
C1129 C 0.94645 0.7901 0.13568 0.0
C1130 C 0.93202 0.83259 0.13465 0.0
C1131 C 0.85329 0.80774 0.11191 0.0
H1132 H 0.84629 0.8639 0.14903 0.0
C1133 C 0.77442 0.86757 0.10134 0.0
C1134 C 0.75509 0.86633 0.11658 0.0
C1135 C 0.79699 0.85715 0.10344 0.0
C1136 C 0.84785 0.84804 0.13863 0.0
H1137 H 0.90732 0.74186 0.12841 0.0
H1138 H 0.867 0.75863 0.12332 0.0
H1139 H 0.88819 0.84872 0.15253 0.0
H1140 H 0.74523 0.8553 0.14623 0.0
H1141 H 0.785 0.83708 0.15002 0.0
H1142 H 0.81291 0.80704 0.09802 0.0
C1143 C 0.89156 0.77692 0.12715 0.0
C1144 C 0.87205 0.83967 0.14051 0.0
C1145 C 0.91454 0.76726 0.13024 0.0
C1146 C 0.75923 0.85543 0.13415 0.0
C1147 C 0.7822 0.84545 0.13634 0.0
C1148 C 0.82929 0.81635 0.10993 0.0
C1149 C 0.89993 0.80959 0.12955 0.0
C1150 C 0.87495 0.81935 0.1272 0.0
C1151 C 0.80129 0.84621 0.12099 0.0
C1152 C 0.82629 0.83652 0.1233 0.0
H1153 H 0.97955 0.8411 0.14175 0.0
H1154 H 0.93923 0.85802 0.13638 0.0
H1155 H 0.85508 0.7922 0.10137 0.0
H1156 H 0.77209 0.87674 0.08781 0.0
H1157 H 0.81168 0.85844 0.09144 0.0
C1158 C 0.92088 0.75639 0.63039 0.0
C1159 C 0.90496 0.75242 0.61313 0.0
C1160 C 0.95403 0.77922 0.63216 0.0
C1161 C 0.01982 0.85428 0.61014 0.0
H1162 H 0.07602 0.83402 0.63963 0.0
C1163 C 0.15216 0.95137 0.63059 0.0
C1164 C 0.17545 0.94133 0.63122 0.0
C1165 C 0.11924 0.92869 0.6274 0.0
C1166 C 0.06078 0.84002 0.63118 0.0
H1167 H 0.91041 0.76968 0.58448 0.0
H1168 H 0.96856 0.80898 0.58733 0.0
H1169 H 0.01886 0.79314 0.63585 0.0
H1170 H 0.18265 0.89997 0.62774 0.0
H1171 H 0.12561 0.86067 0.62206 0.0
H1172 H 0.06195 0.90092 0.60512 0.0
C1173 C 0.9556 0.79468 0.59953 0.0
C1174 C 0.02785 0.81668 0.62922 0.0
C1175 C 0.92244 0.77201 0.59782 0.0
C1176 C 0.16525 0.9084 0.6278 0.0
C1177 C 0.13249 0.88582 0.62458 0.0
C1178 C 0.05281 0.87763 0.61205 0.0
C1179 C 0.9718 0.79872 0.61675 0.0
C1180 C 1.00694 0.8235 0.6187 0.0
C1181 C 0.10893 0.89549 0.62471 0.0
C1182 C 0.07374 0.87078 0.62258 0.0
H1183 H 0.90759 0.74227 0.64257 0.0
H1184 H 0.96556 0.78205 0.64571 0.0
H1185 H 1.00433 0.86053 0.60212 0.0
H1186 H 0.15916 0.97653 0.63324 0.0
H1187 H 0.10177 0.93701 0.62769 0.0
C1188 C 0.11576 0.85388 0.37742 0.0
C1189 C 0.12994 0.86507 0.39517 0.0
C1190 C 0.08289 0.84365 0.37453 0.0
C1191 C 1.01519 0.85181 0.39456 0.0
H1192 H 0.9627 0.77948 0.36126 0.0
C1193 C 0.88797 0.82319 0.36866 0.0
C1194 C 0.864 0.79034 0.36614 0.0
C1195 C 0.92001 0.83177 0.37311 0.0
C1196 C 0.97684 0.7995 0.37079 0.0
H1197 H 0.12166 0.87532 0.42362 0.0
H1198 H 0.06385 0.85635 0.41887 0.0
H1199 H 0.01872 0.7941 0.36769 0.0
H1200 H 0.85464 0.74072 0.36726 0.0
H1201 H 0.91026 0.75558 0.37518 0.0
H1202 H 0.97303 0.85662 0.3981 0.0
C1203 C 0.07801 0.85573 0.40709 0.0
C1204 C 1.00918 0.80818 0.37426 0.0
C1205 C 0.11096 0.86629 0.4099 0.0
C1206 C 0.87265 0.76628 0.36867 0.0
C1207 C 0.9046 0.77483 0.3732 0.0
C1208 C 0.98277 0.84297 0.3912 0.0
C1209 C 0.06359 0.84451 0.38933 0.0
C1210 C 0.02884 0.83458 0.3861 0.0
C1211 C 0.92882 0.8077 0.37525 0.0
C1212 C 0.96319 0.81678 0.3792 0.0
H1213 H 0.1302 0.85364 0.36568 0.0
H1214 H 0.07284 0.83577 0.36058 0.0
H1215 H 0.02969 0.87254 0.40356 0.0
H1216 H 0.88221 0.84238 0.36668 0.0
H1217 H 0.93802 0.85735 0.37437 0.0
C1218 C 0.1181 0.87458 0.88048 0.0
C1219 C 0.08539 0.86396 0.8762 0.0
C1220 C 0.13988 0.9074 0.88418 0.0
C1221 C 0.15221 0.98901 0.87494 0.0
H1222 H 0.2189 0.01583 0.91329 0.0
C1223 C 0.26286 0.1186 0.878 0.0
C1224 C 0.27303 0.13302 0.89576 0.0
C1225 C 0.23895 0.08589 0.87644 0.0
C1226 C 0.20026 1.00873 0.90264 0.0
H1227 H 0.04971 0.87941 0.87285 0.0
H1228 H 0.08769 0.9367 0.87957 0.0
H1229 H 0.17843 0.95823 0.90976 0.0
H1230 H 0.26531 0.1258 0.92577 0.0
H1231 H 0.22355 0.06804 0.92315 0.0
H1232 H 0.17389 0.03947 0.86788 0.0
C1233 C 0.09656 0.91965 0.87982 0.0
C1234 C 0.17727 0.97573 0.90049 0.0
C1235 C 0.07475 0.8868 0.87614 0.0
C1236 C 0.2582 0.11474 0.91197 0.0
C1237 C 0.23446 0.08183 0.91044 0.0
C1238 C 0.17522 0.02196 0.87706 0.0
C1239 C 0.12945 0.93037 0.88369 0.0
C1240 C 0.15308 0.9655 0.88656 0.0
C1241 C 0.22463 0.06707 0.89263 0.0
C1242 C 0.1996 0.03216 0.89085 0.0
H1243 H 0.12691 0.85749 0.88094 0.0
H1244 H 0.1651 0.91488 0.88699 0.0
H1245 H 0.13414 0.98191 0.86393 0.0
H1246 H 0.27348 0.13266 0.86532 0.0
H1247 H 0.23211 0.0752 0.86254 0.0
C1248 C 0.16766 0.26407 0.36318 0.0
C1249 C 0.16005 0.27511 0.37964 0.0
C1250 C 0.17779 0.24116 0.3641 0.0
C1251 C 0.17457 0.17569 0.39304 0.0
H1252 H 0.2473 0.18966 0.36161 0.0
C1253 C 0.20516 0.07467 0.37459 0.0
C1254 C 0.23826 0.08386 0.37318 0.0
C1255 C 0.19599 0.09809 0.37781 0.0
C1256 C 0.22719 0.18551 0.37065 0.0
H1257 H 0.15459 0.26937 0.40988 0.0
H1258 H 0.17261 0.22906 0.4116 0.0
H1259 H 0.23125 0.23092 0.36287 0.0
H1260 H 0.28758 0.12456 0.37537 0.0
H1261 H 0.27161 0.16526 0.38082 0.0
H1262 H 0.17061 0.13014 0.40079 0.0
C1263 C 0.17121 0.23856 0.39799 0.0
C1264 C 0.21778 0.20901 0.3712 0.0
C1265 C 0.16132 0.26184 0.39706 0.0
C1266 C 0.26189 0.11675 0.37586 0.0
C1267 C 0.25274 0.14009 0.37903 0.0
C1268 C 0.18396 0.15203 0.39244 0.0
C1269 C 0.17989 0.22827 0.38151 0.0
C1270 C 0.19112 0.2042 0.38219 0.0
C1271 C 0.21971 0.13117 0.37967 0.0
C1272 C 0.21026 0.1566 0.38113 0.0
H1273 H 0.16597 0.27338 0.34956 0.0
H1274 H 0.18363 0.23321 0.35113 0.0
H1275 H 0.15383 0.17127 0.40157 0.0
H1276 H 0.1863 0.04957 0.37252 0.0
H1277 H 0.17032 0.09044 0.3781 0.0
C1278 C 0.15564 0.25355 0.87894 0.0
C1279 C 0.16704 0.23262 0.87332 0.0
C1280 C 0.12263 0.24133 0.88276 0.0
C1281 C 0.04175 0.17191 0.87171 0.0
H1282 H 1.01307 0.20622 0.91233 0.0
C1283 C 0.91148 0.15093 0.87583 0.0
C1284 C 0.89638 0.14417 0.89352 0.0
C1285 C 0.9443 0.16019 0.87424 0.0
C1286 C 0.02069 0.1962 0.90103 0.0
H1287 H 0.15266 0.18223 0.86768 0.0
H1288 H 0.09508 0.16084 0.87457 0.0
H1289 H 0.07099 0.2249 0.90861 0.0
H1290 H 0.90262 0.1397 0.92328 0.0
H1291 H 0.96061 0.1566 0.92064 0.0
H1292 H 0.9915 0.1432 0.86413 0.0
C1293 C 0.11167 0.1868 0.87581 0.0
C1294 C 0.05388 0.20712 0.89878 0.0
C1295 C 0.14472 0.19903 0.87204 0.0
C1296 C 0.91416 0.14558 0.90957 0.0
C1297 C 0.94721 0.15525 0.90803 0.0
C1298 C 1.00863 0.1611 0.87391 0.0
C1299 C 0.10019 0.20786 0.88104 0.0
C1300 C 0.06482 0.19523 0.88402 0.0
C1301 C 0.96263 0.1627 0.89033 0.0
C1302 C 0.99773 0.17326 0.88852 0.0
H1303 H 0.17225 0.27947 0.88037 0.0
H1304 H 0.1146 0.25826 0.88662 0.0
H1305 H 0.04935 0.16251 0.86007 0.0
H1306 H 0.89788 0.14913 0.86321 0.0
H1307 H 0.95547 0.16597 0.86043 0.0
C1308 C 0.95811 0.14424 0.38055 0.0
C1309 C 0.94738 0.16676 0.38305 0.0
C1310 C 0.93689 0.11092 0.38364 0.0
C1311 C 0.85836 0.05216 0.40638 0.0
H1312 H 0.85753 0.99184 0.36926 0.0
C1313 C 0.77747 0.91199 0.41391 0.0
C1314 C 0.76127 0.89499 0.3976 0.0
C1315 C 0.80094 0.94512 0.41294 0.0
C1316 C 0.85734 1.00838 0.37971 0.0
H1317 H 0.90653 0.17212 0.39171 0.0
H1318 H 0.86955 0.11425 0.3969 0.0
H1319 H 0.89736 0.0497 0.36663 0.0
H1320 H 0.7582 0.89818 0.36737 0.0
H1321 H 0.79904 0.956 0.36559 0.0
H1322 H 0.81774 1.01088 0.41915 0.0
C1323 C 0.89429 0.12217 0.39257 0.0
C1324 C 0.88047 0.04152 0.37834 0.0
C1325 C 0.9154 0.15535 0.3894 0.0
C1326 C 0.76979 0.91113 0.38021 0.0
C1327 C 0.79345 0.94409 0.37918 0.0
C1328 C 0.83527 0.01899 0.40777 0.0
C1329 C 0.90456 0.09944 0.38946 0.0
C1330 C 0.88115 0.06389 0.39158 0.0
C1331 C 0.80925 0.96156 0.39554 0.0
C1332 C 0.83434 0.99672 0.39438 0.0
H1333 H 0.98258 0.15223 0.37563 0.0
H1334 H 0.94573 0.09412 0.38135 0.0
H1335 H 0.85833 0.06864 0.41691 0.0
H1336 H 0.77174 0.8997 0.42739 0.0
H1337 H 0.81295 0.95774 0.42576 0.0
C1338 C 0.87267 0.77009 0.91455 0.0
C1339 C 0.87089 0.75021 0.89947 0.0
C1340 C 0.86299 0.79328 0.91226 0.0
C1341 C 0.81841 0.81903 0.87961 0.0
H1342 H 0.86785 0.90153 0.90558 0.0
C1343 C 0.78566 0.91949 0.87018 0.0
C1344 C 0.81161 0.95149 0.86838 0.0
C1345 C 0.79107 0.89479 0.87668 0.0
C1346 C 0.85389 0.87876 0.8981 0.0
H1347 H 0.85914 0.73983 0.86993 0.0
H1348 H 0.84304 0.78081 0.86568 0.0
H1349 H 0.88097 0.85874 0.91058 0.0
H1350 H 0.86332 0.98324 0.87235 0.0
H1351 H 0.8732 0.94013 0.88328 0.0
H1352 H 0.79265 0.83963 0.86623 0.0
C1353 C 0.8506 0.77777 0.87953 0.0
C1354 C 0.8611 0.85392 0.90119 0.0
C1355 C 0.85988 0.75429 0.88192 0.0
C1356 C 0.84288 0.95876 0.87393 0.0
C1357 C 0.84843 0.93396 0.88019 0.0
C1358 C 0.81147 0.84398 0.87632 0.0
C1359 C 0.85216 0.79773 0.89466 0.0
C1360 C 0.84358 0.82375 0.89192 0.0
C1361 C 0.82273 0.90141 0.88113 0.0
C1362 C 0.82917 0.8743 0.88546 0.0
H1363 H 0.88149 0.76758 0.92815 0.0
H1364 H 0.86407 0.80774 0.92431 0.0
H1365 H 0.80402 0.79603 0.8724 0.0
H1366 H 0.76137 0.91338 0.86584 0.0
H1367 H 0.77049 0.8703 0.87767 0.0
C1368 C 0.1383 0.71879 0.1064 0.0
C1369 C 0.14496 0.73498 0.12376 0.0
C1370 C 0.13656 0.68849 0.10503 0.0
C1371 C 0.13009 0.61966 0.1335 0.0
H1372 H 0.17611 0.60875 0.09157 0.0
C1373 C 0.12491 0.49807 0.11782 0.0
C1374 C 0.15271 0.49852 0.11064 0.0
C1375 C 0.1245 0.52697 0.12053 0.0
C1376 C 0.16349 0.61158 0.10347 0.0
H1377 H 0.15454 0.73244 0.15325 0.0
H1378 H 0.15107 0.67953 0.15105 0.0
H1379 H 0.1713 0.65755 0.09347 0.0
H1380 H 0.20239 0.52961 0.10138 0.0
H1381 H 0.20194 0.58063 0.10636 0.0
H1382 H 0.12292 0.57415 0.14375 0.0
C1383 C 0.14673 0.68972 0.1385 0.0
C1384 C 0.16023 0.6393 0.10439 0.0
C1385 C 0.14869 0.72 0.1398 0.0
C1386 C 0.18072 0.52864 0.10703 0.0
C1387 C 0.18027 0.55774 0.10965 0.0
C1388 C 0.13337 0.59201 0.13258 0.0
C1389 C 0.14156 0.67398 0.12101 0.0
C1390 C 0.14349 0.64368 0.11943 0.0
C1391 C 0.15189 0.55717 0.11611 0.0
C1392 C 0.15005 0.58755 0.11755 0.0
H1393 H 0.13617 0.73029 0.09375 0.0
H1394 H 0.13218 0.67685 0.09139 0.0
H1395 H 0.11691 0.62215 0.14522 0.0
H1396 H 0.10301 0.47514 0.12076 0.0
H1397 H 0.10215 0.52549 0.12535 0.0
C1398 C 0.66487 0.18038 0.61168 0.0
C1399 C 0.66664 0.15169 0.61163 0.0
C1400 C 0.63497 0.17897 0.61485 0.0
C1401 C 0.54778 0.12062 0.60855 0.0
H1402 H 0.53405 0.184 0.63525 0.0
C1403 C 0.43719 0.13653 0.59563 0.0
C1404 C 0.42232 0.14233 0.61103 0.0
C1405 C 0.46544 0.13482 0.59803 0.0
C1406 C 0.53745 0.16587 0.62795 0.0
H1407 H 0.63945 0.09964 0.61648 0.0
H1408 H 0.58774 0.0972 0.62223 0.0
H1409 H 0.58777 0.18839 0.63597 0.0
H1410 H 0.42519 0.15085 0.6411 0.0
H1411 H 0.47488 0.14775 0.64538 0.0
H1412 H 0.49781 0.09833 0.60031 0.0
C1413 C 0.60901 0.12065 0.61935 0.0
C1414 C 0.56828 0.16862 0.62819 0.0
C1415 C 0.63866 0.12206 0.61617 0.0
C1416 C 0.4358 0.14566 0.62905 0.0
C1417 C 0.46444 0.14433 0.63144 0.0
C1418 C 0.51717 0.11801 0.60823 0.0
C1419 C 0.60648 0.14884 0.61804 0.0
C1420 C 0.57379 0.14602 0.61844 0.0
C1421 C 0.47985 0.13945 0.61587 0.0
C1422 C 0.51166 0.14072 0.61778 0.0
H1423 H 0.68607 0.20351 0.60814 0.0
H1424 H 0.63383 0.20114 0.61374 0.0
H1425 H 0.55125 0.10308 0.60064 0.0
H1426 H 0.42748 0.13438 0.58157 0.0
H1427 H 0.47685 0.13136 0.58572 0.0
C1428 C 0.49962 0.66147 0.10907 0.0
C1429 C 0.52389 0.66425 0.09652 0.0
C1430 C 0.47334 0.63071 0.11382 0.0
C1431 C 0.42508 0.55149 0.09243 0.0
H1432 H 0.39266 0.5167 0.14212 0.0
C1433 C 0.31793 0.42192 0.09926 0.0
C1434 C 0.29492 0.41541 0.11339 0.0
C1435 C 0.34807 0.4506 0.09964 0.0
C1436 C 0.40106 0.52613 0.12812 0.0
H1437 H 0.54098 0.6366 0.08066 0.0
H1438 H 0.49489 0.58351 0.08841 0.0
H1439 H 0.44041 0.57118 0.13881 0.0
H1440 H 0.28478 0.43353 0.13892 0.0
H1441 H 0.33679 0.48453 0.13922 0.0
H1442 H 0.38543 0.50796 0.08145 0.0
C1443 C 0.49598 0.60505 0.09439 0.0
C1444 C 0.42851 0.55732 0.12628 0.0
C1445 C 0.52229 0.63553 0.08988 0.0
C1446 C 0.30265 0.43775 0.12814 0.0
C1447 C 0.33252 0.467 0.12826 0.0
C1448 C 0.39741 0.5208 0.09422 0.0
C1449 C 0.4708 0.60231 0.10598 0.0
C1450 C 0.44099 0.57005 0.10839 0.0
C1451 C 0.3553 0.47433 0.11365 0.0
C1452 C 0.38514 0.50731 0.11208 0.0
H1453 H 0.5 0.68301 0.11445 0.0
H1454 H 0.4542 0.62922 0.12281 0.0
H1455 H 0.43384 0.56097 0.07845 0.0
H1456 H 0.31221 0.40515 0.08763 0.0
H1457 H 0.36523 0.45454 0.0885 0.0
C1458 C 0.8996 0.51824 0.58948 0.0
C1459 C 0.87234 0.51967 0.59603 0.0
C1460 C 0.9037 0.49189 0.59391 0.0
C1461 C 0.88414 0.4244 0.62556 0.0
H1462 H 0.89026 0.38142 0.58064 0.0
C1463 C 0.87946 0.29929 0.62728 0.0
C1464 C 0.8939 0.2917 0.61237 0.0
C1465 C 0.87972 0.32897 0.62746 0.0
C1466 C 0.88946 0.39338 0.59343 0.0
H1467 H 0.82933 0.49535 0.61369 0.0
H1468 H 0.83724 0.44951 0.62192 0.0
H1469 H 0.88524 0.42956 0.57774 0.0
H1470 H 0.92085 0.30911 0.58641 0.0
H1471 H 0.92394 0.36184 0.58741 0.0
H1472 H 0.88944 0.38886 0.64134 0.0
C1473 C 0.85504 0.46882 0.61307 0.0
C1474 C 0.88616 0.42087 0.5917 0.0
C1475 C 0.8506 0.49512 0.60838 0.0
C1476 C 0.90994 0.31472 0.59817 0.0
C1477 C 0.91108 0.34469 0.59862 0.0
C1478 C 0.88816 0.39713 0.62735 0.0
C1479 C 0.88107 0.46651 0.60533 0.0
C1480 C 0.8836 0.43676 0.6077 0.0
C1481 C 0.89465 0.35171 0.61277 0.0
C1482 C 0.89106 0.38128 0.61127 0.0
H1483 H 0.91744 0.53713 0.58044 0.0
H1484 H 0.92428 0.49095 0.58802 0.0
H1485 H 0.88224 0.43629 0.63812 0.0
H1486 H 0.86615 0.28142 0.63812 0.0
H1487 H 0.86655 0.33308 0.63854 0.0
C1488 C 0.60133 0.88663 0.10484 0.0
C1489 C 0.61157 0.88464 0.12306 0.0
C1490 C 0.57274 0.88781 0.10216 0.0
C1491 C 0.51138 0.90149 0.12642 0.0
H1492 H 0.4533 0.84401 0.08779 0.0
C1493 C 0.3952 0.90215 0.1032 0.0
C1494 C 0.36736 0.87236 0.0987 0.0
C1495 C 0.4246 0.90357 0.10743 0.0
C1496 C 0.46909 0.85993 0.09876 0.0
H1497 H 0.60039 0.88228 0.1527 0.0
H1498 H 0.55074 0.88499 0.14814 0.0
H1499 H 0.5067 0.84918 0.09204 0.0
H1500 H 0.3482 0.82046 0.09577 0.0
H1501 H 0.39978 0.82284 0.10327 0.0
H1502 H 0.47361 0.91192 0.13331 0.0
C1503 C 0.56491 0.88617 0.13591 0.0
C1504 C 0.49991 0.86329 0.101 0.0
C1505 C 0.59333 0.8847 0.13856 0.0
C1506 C 0.36925 0.84374 0.09923 0.0
C1507 C 0.39884 0.84519 0.10333 0.0
C1508 C 0.48061 0.89824 0.12413 0.0
C1509 C 0.55376 0.88677 0.11766 0.0
C1510 C 0.52146 0.88416 0.11485 0.0
C1511 C 0.42699 0.87523 0.1072 0.0
C1512 C 0.4591 0.87746 0.11025 0.0
H1513 H 0.6145 0.88558 0.09265 0.0
H1514 H 0.565 0.88858 0.08793 0.0
H1515 H 0.5274 0.91783 0.13718 0.0
H1516 H 0.39438 0.92457 0.10308 0.0
H1517 H 0.44578 0.92712 0.11022 0.0
C1518 C 0.7262 0.5991 0.60781 0.0
C1519 C 0.74135 0.6086 0.62547 0.0
C1520 C 0.69601 0.57042 0.60599 0.0
C1521 C 0.62528 0.50797 0.63344 0.0
H1522 H 0.61582 0.45121 0.59169 0.0
C1523 C 0.50357 0.39226 0.61614 0.0
C1524 C 0.50392 0.36473 0.60917 0.0
C1525 C 0.53257 0.42145 0.61918 0.0
C1526 C 0.61821 0.46661 0.60355 0.0
H1527 H 0.73702 0.59618 0.65499 0.0
H1528 H 0.6843 0.5466 0.65199 0.0
H1529 H 0.66494 0.50458 0.59426 0.0
H1530 H 0.53498 0.34576 0.60059 0.0
H1531 H 0.58609 0.39695 0.60612 0.0
H1532 H 0.57897 0.46986 0.64296 0.0
C1533 C 0.69525 0.56123 0.63954 0.0
C1534 C 0.64616 0.49746 0.60485 0.0
C1535 C 0.72543 0.58964 0.64131 0.0
C1536 C 0.53404 0.36657 0.60608 0.0
C1537 C 0.56322 0.39599 0.60902 0.0
C1538 C 0.59739 0.47719 0.63213 0.0
C1539 C 0.6805 0.55074 0.6218 0.0
C1540 C 0.65006 0.51855 0.61983 0.0
C1541 C 0.5628 0.42398 0.6153 0.0
C1542 C 0.5934 0.45609 0.61716 0.0
H1543 H 0.73841 0.6129 0.59531 0.0
H1544 H 0.68519 0.56327 0.59215 0.0
H1545 H 0.62734 0.52359 0.6451 0.0
H1546 H 0.48069 0.39149 0.61867 0.0
H1547 H 0.53117 0.44244 0.62386 0.0
C1548 C 0.30944 0.88219 0.36926 0.0
C1549 C 0.29342 0.88502 0.3851 0.0
C1550 C 0.33948 0.88379 0.37106 0.0
C1551 C 0.38736 0.86772 0.40572 0.0
H1552 H 0.45502 0.90699 0.36784 0.0
C1553 C 0.49761 0.8465 0.40457 0.0
C1554 C 0.52804 0.87456 0.40173 0.0
C1555 C 0.46882 0.84734 0.4015 0.0
C1556 C 0.43645 0.89598 0.37861 0.0
H1557 H 0.29605 0.89179 0.4153 0.0
H1558 H 0.3491 0.89516 0.41852 0.0
H1559 H 0.40736 0.91343 0.36573 0.0
H1560 H 0.55231 0.9248 0.39251 0.0
H1561 H 0.5025 0.92633 0.38713 0.0
H1562 H 0.41685 0.85082 0.4188 0.0
C1563 C 0.33844 0.89177 0.40465 0.0
C1564 C 0.40898 0.8995 0.37732 0.0
C1565 C 0.30837 0.89039 0.4028 0.0
C1566 C 0.52914 0.90285 0.39485 0.0
C1567 C 0.50054 0.90365 0.39169 0.0
C1568 C 0.41489 0.8642 0.40702 0.0
C1569 C 0.35398 0.88768 0.38884 0.0
C1570 C 0.38405 0.88541 0.39084 0.0
C1571 C 0.46999 0.87617 0.39536 0.0
C1572 C 0.43983 0.87834 0.39349 0.0
H1573 H 0.29796 0.8773 0.35554 0.0
H1574 H 0.35046 0.88017 0.35861 0.0
H1575 H 0.36841 0.85611 0.41623 0.0
H1576 H 0.4961 0.82445 0.40998 0.0
H1577 H 0.44567 0.82559 0.40421 0.0
C1578 C 0.63998 0.52462 0.90584 0.0
C1579 C 0.66717 0.52105 0.90923 0.0
C1580 C 0.61 0.49778 0.90108 0.0
C1581 C 0.56834 0.41046 0.88645 0.0
H1582 H 0.49495 0.40878 0.91158 0.0
C1583 C 0.43727 0.3007 0.87916 0.0
C1584 C 0.42004 0.29016 0.89618 0.0
C1585 C 0.46603 0.33098 0.87816 0.0
C1586 C 0.51513 0.40876 0.90446 0.0
H1587 H 0.68475 0.48685 0.90931 0.0
H1588 H 0.63201 0.4395 0.90135 0.0
H1589 H 0.54874 0.45613 0.9148 0.0
H1590 H 0.41899 0.30244 0.92535 0.0
H1591 H 0.46859 0.35505 0.92371 0.0
H1592 H 0.53465 0.36209 0.87702 0.0
C1593 C 0.63394 0.4632 0.90216 0.0
C1594 C 0.54605 0.43619 0.9061 0.0
C1595 C 0.66417 0.49028 0.90675 0.0
C1596 C 0.43139 0.31055 0.91195 0.0
C1597 C 0.45989 0.34069 0.91097 0.0
C1598 C 0.53731 0.38281 0.88492 0.0
C1599 C 0.60624 0.46649 0.89978 0.0
C1600 C 0.57316 0.43743 0.89721 0.0
C1601 C 0.47806 0.35102 0.89421 0.0
C1602 C 0.51038 0.38149 0.8941 0.0
H1603 H 0.64175 0.54818 0.90732 0.0
H1604 H 0.58955 0.50151 0.8988 0.0
H1605 H 0.58854 0.4106 0.87928 0.0
H1606 H 0.42943 0.28488 0.86696 0.0
H1607 H 0.47926 0.33831 0.86499 0.0
C1608 C 0.19146 0.66314 0.40569 0.0
C1609 C 0.16315 0.66432 0.40991 0.0
C1610 C 0.18952 0.63338 0.40137 0.0
C1611 C 0.17746 0.56491 0.40957 0.0
H1612 H 0.11141 0.49816 0.3776 0.0
C1613 C 0.14341 0.43216 0.4171 0.0
C1614 C 0.14536 0.41664 0.40076 0.0
C1615 C 0.14317 0.46135 0.41599 0.0
C1616 C 0.13007 0.51666 0.38647 0.0
H1617 H 0.11058 0.63582 0.41173 0.0
H1618 H 0.10714 0.58403 0.404 0.0
H1619 H 0.11764 0.55278 0.37858 0.0
H1620 H 0.14709 0.41867 0.37029 0.0
H1621 H 0.14569 0.46971 0.36829 0.0
H1622 H 0.18936 0.52879 0.41788 0.0
C1623 C 0.13082 0.60595 0.4041 0.0
C1624 C 0.13357 0.54782 0.38709 0.0
C1625 C 0.13279 0.63555 0.40865 0.0
C1626 C 0.14501 0.42984 0.38311 0.0
C1627 C 0.14444 0.45912 0.38198 0.0
C1628 C 0.17366 0.53377 0.40915 0.0
C1629 C 0.15919 0.60436 0.4009 0.0
C1630 C 0.15715 0.57219 0.39878 0.0
C1631 C 0.14485 0.47576 0.39847 0.0
C1632 C 0.14966 0.50918 0.3978 0.0
H1633 H 0.21517 0.68492 0.40663 0.0
H1634 H 0.21179 0.63291 0.39884 0.0
H1635 H 0.19558 0.58299 0.41887 0.0
H1636 H 0.14378 0.42252 0.43087 0.0
H1637 H 0.14291 0.47335 0.42891 0.0
C1638 C 0.71706 0.12654 0.90831 0.0
C1639 C 0.74015 0.13738 0.89379 0.0
C1640 C 0.68845 0.12773 0.90629 0.0
C1641 C 0.63439 0.13614 0.87243 0.0
H1642 H 0.61248 0.17137 0.91569 0.0
C1643 C 0.50894 0.12554 0.88308 0.0
C1644 C 0.50724 0.15088 0.89225 0.0
C1645 C 0.53874 0.12682 0.88072 0.0
C1646 C 0.61846 0.16193 0.90338 0.0
H1647 H 0.75182 0.15818 0.86581 0.0
H1648 H 0.70122 0.15967 0.86204 0.0
H1649 H 0.66065 0.16566 0.91661 0.0
H1650 H 0.53547 0.19824 0.90527 0.0
H1651 H 0.58796 0.20071 0.90105 0.0
H1652 H 0.59204 0.13235 0.85923 0.0
C1653 C 0.70505 0.1498 0.87489 0.0
C1654 C 0.64581 0.15819 0.90401 0.0
C1655 C 0.73385 0.14875 0.87697 0.0
C1656 C 0.53617 0.17845 0.89809 0.0
C1657 C 0.5661 0.17966 0.89584 0.0
C1658 C 0.60687 0.13974 0.87182 0.0
C1659 C 0.6825 0.14018 0.88976 0.0
C1660 C 0.65387 0.14488 0.88865 0.0
C1661 C 0.56759 0.15345 0.88754 0.0
C1662 C 0.59842 0.1524 0.88737 0.0
H1663 H 0.72175 0.11824 0.92152 0.0
H1664 H 0.67134 0.11971 0.91789 0.0
H1665 H 0.63999 0.1258 0.86039 0.0
H1666 H 0.48695 0.10407 0.87838 0.0
H1667 H 0.5389 0.10611 0.87442 0.0
C1668 C 0.36939 0.53135 0.39968 0.0
C1669 C 0.36805 0.50167 0.39584 0.0
C1670 C 0.39843 0.5609 0.39693 0.0
C1671 C 0.46846 0.61388 0.40472 0.0
H1672 H 0.52823 0.63044 0.36335 0.0
C1673 C 0.60243 0.71193 0.41046 0.0
C1674 C 0.61536 0.73438 0.39564 0.0
C1675 C 0.57283 0.68304 0.40839 0.0
C1676 C 0.5117 0.62621 0.37492 0.0
H1677 H 0.39509 0.47954 0.38506 0.0
H1678 H 0.44552 0.53088 0.38011 0.0
H1679 H 0.47356 0.58236 0.36258 0.0
H1680 H 0.60783 0.7442 0.36689 0.0
H1681 H 0.55614 0.6929 0.36302 0.0
H1682 H 0.50656 0.65742 0.41716 0.0
C1683 C 0.42438 0.53156 0.38523 0.0
C1684 C 0.48048 0.59865 0.37454 0.0
C1685 C 0.39554 0.50213 0.38814 0.0
C1686 C 0.59879 0.72682 0.37835 0.0
C1687 C 0.56914 0.69763 0.37621 0.0
C1688 C 0.49967 0.64121 0.40516 0.0
C1689 C 0.42651 0.56128 0.3901 0.0
C1690 C 0.45858 0.59201 0.38953 0.0
C1691 C 0.55531 0.67603 0.39147 0.0
C1692 C 0.5218 0.64748 0.3904 0.0
H1693 H 0.34859 0.53163 0.40576 0.0
H1694 H 0.39919 0.58341 0.40064 0.0
H1695 H 0.45243 0.60936 0.4166 0.0
H1696 H 0.61452 0.71753 0.42401 0.0
H1697 H 0.56307 0.66667 0.4203 0.0
C1698 C 0.8878 0.58787 0.87045 0.0
C1699 C 0.89099 0.60661 0.88641 0.0
C1700 C 0.88983 0.55961 0.87196 0.0
C1701 C 0.87509 0.49563 0.90628 0.0
H1702 H 0.91385 0.4678 0.8678 0.0
C1703 C 0.85379 0.36406 0.904 0.0
C1704 C 0.88182 0.36177 0.90097 0.0
C1705 C 0.85466 0.39379 0.90125 0.0
C1706 C 0.90298 0.4752 0.87873 0.0
H1707 H 0.89903 0.61085 0.91649 0.0
H1708 H 0.90305 0.56146 0.91923 0.0
H1709 H 0.92002 0.52189 0.86601 0.0
H1710 H 0.93205 0.38804 0.89175 0.0
H1711 H 0.93361 0.43956 0.88689 0.0
H1712 H 0.85851 0.44907 0.91916 0.0
C1713 C 0.89906 0.56867 0.90549 0.0
C1714 C 0.90636 0.50618 0.87763 0.0
C1715 C 0.89729 0.5972 0.90391 0.0
C1716 C 0.91012 0.38918 0.89424 0.0
C1717 C 0.91094 0.41868 0.89138 0.0
C1718 C 0.87167 0.46458 0.90737 0.0
C1719 C 0.89451 0.54909 0.88958 0.0
C1720 C 0.89246 0.51681 0.89137 0.0
C1721 C 0.88347 0.42162 0.89522 0.0
C1722 C 0.88562 0.45399 0.89361 0.0
H1723 H 0.88226 0.59436 0.85688 0.0
H1724 H 0.88589 0.54504 0.85946 0.0
H1725 H 0.86363 0.50281 0.91696 0.0
H1726 H 0.83173 0.34332 0.90929 0.0
H1727 H 0.83293 0.39511 0.9041 0.0
C1728 C 0.19159 0.34897 0.32664 0.0
C1729 C 0.18292 0.37007 0.33538 0.0
C1730 C 0.19363 0.34835 0.30699 0.0
C1731 C 0.208 0.39369 0.26383 0.0
H1732 H 0.14687 0.31155 0.24049 0.0
C1733 C 0.19613 0.37905 0.1825 0.0
C1734 C 0.19192 0.34964 0.17522 0.0
C1735 C 0.1936 0.38273 0.20194 0.0
C1736 C 0.16447 0.33458 0.2467 0.0
H1737 H 0.17049 0.40762 0.33068 0.0
H1738 H 0.17597 0.40786 0.29633 0.0
H1739 H 0.14869 0.3165 0.27467 0.0
H1740 H 0.1806 0.30068 0.18258 0.0
H1741 H 0.17688 0.30717 0.21607 0.0
H1742 H 0.22478 0.41158 0.236 0.0
C1743 C 0.18076 0.3916 0.30465 0.0
C1744 C 0.16537 0.33736 0.26631 0.0
C1745 C 0.17779 0.39156 0.32424 0.0
C1746 C 0.18402 0.32372 0.18768 0.0
C1747 C 0.18164 0.32739 0.20698 0.0
C1748 C 0.20757 0.39077 0.24418 0.0
C1749 C 0.18789 0.36943 0.29584 0.0
C1750 C 0.18726 0.36684 0.27504 0.0
C1751 C 0.18675 0.35703 0.21448 0.0
C1752 C 0.18594 0.36105 0.23533 0.0
H1753 H 0.19488 0.33165 0.3349 0.0
H1754 H 0.19902 0.33094 0.30046 0.0
H1755 H 0.22506 0.4167 0.2703 0.0
H1756 H 0.20244 0.39956 0.17329 0.0
H1757 H 0.19728 0.40579 0.20712 0.0
C1758 C 0.86542 0.17454 0.68601 0.0
C1759 C 0.85297 0.1895 0.67428 0.0
C1760 C 0.85998 0.17258 0.70536 0.0
C1761 C 0.84308 0.21292 0.74427 0.0
H1762 H 0.82943 0.13648 0.77173 0.0
C1763 C 0.82711 0.19525 0.82633 0.0
C1764 C 0.84331 0.1803 0.83446 0.0
C1765 C 0.82697 0.19866 0.8067 0.0
C1766 C 0.83342 0.1581 0.76428 0.0
H1767 H 0.82456 0.21369 0.67352 0.0
H1768 H 0.81479 0.21011 0.70762 0.0
H1769 H 0.82849 0.13556 0.73751 0.0
H1770 H 0.87416 0.15973 0.82876 0.0
H1771 H 0.87438 0.16614 0.79479 0.0
H1772 H 0.84831 0.23545 0.77129 0.0
C1773 C 0.82885 0.19996 0.70175 0.0
C1774 C 0.83283 0.15755 0.74466 0.0
C1775 C 0.83406 0.20164 0.68224 0.0
C1776 C 0.86129 0.17113 0.82284 0.0
C1777 C 0.86113 0.17449 0.80338 0.0
C1778 C 0.84356 0.21342 0.76402 0.0
C1779 C 0.84204 0.18567 0.71355 0.0
C1780 C 0.83847 0.18519 0.73438 0.0
C1781 C 0.84301 0.18716 0.79502 0.0
C1782 C 0.8396 0.18628 0.7742 0.0
H1783 H 0.8802 0.16508 0.68028 0.0
H1784 H 0.8709 0.16182 0.71401 0.0
H1785 H 0.84769 0.23469 0.73676 0.0
H1786 H 0.81277 0.20218 0.83498 0.0
H1787 H 0.81285 0.20857 0.80063 0.0
C1788 C 0.65713 0.86753 0.18717 0.0
C1789 C 0.66922 0.85087 0.17668 0.0
C1790 C 0.65405 0.86403 0.20669 0.0
C1791 C 0.64976 0.81234 0.24668 0.0
H1792 H 0.68502 0.89298 0.27493 0.0
C1793 C 0.64222 0.81652 0.32834 0.0
C1794 C 0.67214 0.83734 0.33704 0.0
C1795 C 0.63891 0.81768 0.30878 0.0
C1796 C 0.67499 0.87025 0.26725 0.0
H1797 H 0.68667 0.81665 0.17807 0.0
H1798 H 0.68064 0.8098 0.21235 0.0
H1799 H 0.68459 0.89442 0.24064 0.0
H1800 H 0.7216 0.87632 0.33246 0.0
H1801 H 0.71558 0.87911 0.29852 0.0
H1802 H 0.6407 0.78831 0.27344 0.0
C1803 C 0.67351 0.82562 0.20547 0.0
C1804 C 0.67453 0.87103 0.2476 0.0
C1805 C 0.67687 0.82941 0.18587 0.0
C1806 C 0.69818 0.86024 0.32607 0.0
C1807 C 0.69473 0.86178 0.30666 0.0
C1808 C 0.64991 0.81153 0.2664 0.0
C1809 C 0.66274 0.84347 0.21613 0.0
C1810 C 0.66212 0.84213 0.23707 0.0
C1811 C 0.66528 0.84013 0.29773 0.0
C1812 C 0.66281 0.84054 0.27688 0.0
H1813 H 0.65056 0.88378 0.18026 0.0
H1814 H 0.64518 0.87771 0.21442 0.0
H1815 H 0.6399 0.78966 0.23896 0.0
H1816 H 0.62201 0.79823 0.33649 0.0
H1817 H 0.6159 0.80078 0.30227 0.0
C1818 C 0.85948 0.70625 0.68666 0.0
C1819 C 0.84411 0.67766 0.67584 0.0
C1820 C 0.86083 0.70467 0.70622 0.0
C1821 C 0.85165 0.6504 0.74617 0.0
H1822 H 0.83612 0.71148 0.7742 0.0
C1823 C 0.83913 0.6458 0.82753 0.0
C1824 C 0.85674 0.67591 0.83676 0.0
C1825 C 0.83555 0.64451 0.80793 0.0
C1826 C 0.84072 0.6944 0.7666 0.0
H1827 H 0.81927 0.62498 0.67694 0.0
H1828 H 0.82156 0.62211 0.71125 0.0
H1829 H 0.8352 0.71198 0.73997 0.0
H1830 H 0.88321 0.72825 0.83288 0.0
H1831 H 0.87698 0.72606 0.7988 0.0
H1832 H 0.85715 0.63287 0.77293 0.0
C1833 C 0.83272 0.64581 0.70458 0.0
C1834 C 0.8403 0.69474 0.74695 0.0
C1835 C 0.83146 0.64742 0.68493 0.0
C1836 C 0.86962 0.70468 0.82614 0.0
C1837 C 0.8659 0.70341 0.80661 0.0
C1838 C 0.85197 0.65 0.76588 0.0
C1839 C 0.84681 0.67444 0.71549 0.0
C1840 C 0.84618 0.67304 0.73646 0.0
C1841 C 0.8492 0.67332 0.79722 0.0
C1842 C 0.84687 0.67226 0.77632 0.0
H1843 H 0.86983 0.72993 0.68002 0.0
H1844 H 0.87261 0.72723 0.71411 0.0
H1845 H 0.85651 0.63351 0.73855 0.0
H1846 H 0.82909 0.62322 0.83537 0.0
H1847 H 0.82224 0.62096 0.80114 0.0
C1848 C 0.19607 0.82605 0.18211 0.0
C1849 C 0.17833 0.83847 0.17299 0.0
C1850 C 0.1997 0.8282 0.20171 0.0
C1851 C 0.1946 0.87254 0.24326 0.0
H1852 H 0.17901 0.79568 0.27103 0.0
C1853 C 0.17641 0.86535 0.32323 0.0
C1854 C 0.19161 0.85192 0.33396 0.0
C1855 C 0.17496 0.8625 0.30366 0.0
C1856 C 0.18383 0.81748 0.26349 0.0
H1857 H 0.15169 0.86405 0.17708 0.0
H1858 H 0.15806 0.8679 0.21117 0.0
H1859 H 0.17822 0.7946 0.23665 0.0
H1860 H 0.21611 0.82383 0.33271 0.0
H1861 H 0.21375 0.81888 0.29838 0.0
H1862 H 0.20027 0.89552 0.26996 0.0
C1863 C 0.16919 0.85649 0.20327 0.0
C1864 C 0.1834 0.81687 0.24378 0.0
C1865 C 0.16539 0.85416 0.18374 0.0
C1866 C 0.20405 0.83425 0.32478 0.0
C1867 C 0.20274 0.83149 0.30512 0.0
C1868 C 0.19514 0.87319 0.26291 0.0
C1869 C 0.186 0.84316 0.21253 0.0
C1870 C 0.18842 0.8443 0.23344 0.0
C1871 C 0.18878 0.84621 0.29429 0.0
C1872 C 0.18933 0.84555 0.27331 0.0
H1873 H 0.20613 0.81364 0.17417 0.0
H1874 H 0.21309 0.818 0.2084 0.0
H1875 H 0.19913 0.89427 0.23573 0.0
H1876 H 0.16621 0.87875 0.32994 0.0
H1877 H 0.16326 0.8734 0.29585 0.0
C1878 C 0.38581 0.19895 0.82555 0.0
C1879 C 0.35558 0.19101 0.83344 0.0
C1880 C 0.38912 0.19716 0.80602 0.0
C1881 C 0.33973 0.16545 0.76154 0.0
H1882 H 0.42052 0.22868 0.73773 0.0
C1883 C 0.35435 0.19268 0.68123 0.0
C1884 C 0.37509 0.18314 0.6729 0.0
C1885 C 0.35362 0.19545 0.70085 0.0
C1886 C 0.39783 0.21098 0.74426 0.0
H1887 H 0.30469 0.17293 0.82709 0.0
H1888 H 0.31062 0.17164 0.79338 0.0
H1889 H 0.41556 0.22829 0.77198 0.0
H1890 H 0.41192 0.16996 0.67831 0.0
H1891 H 0.4119 0.17661 0.71251 0.0
H1892 H 0.32182 0.14922 0.73358 0.0
C1893 C 0.33189 0.17868 0.80202 0.0
C1894 C 0.39501 0.21041 0.76391 0.0
C1895 C 0.32852 0.17987 0.82147 0.0
C1896 C 0.39619 0.178 0.68439 0.0
C1897 C 0.39607 0.18161 0.70392 0.0
C1898 C 0.34234 0.16658 0.74191 0.0
C1899 C 0.36229 0.18761 0.79389 0.0
C1900 C 0.36587 0.18763 0.7729 0.0
C1901 C 0.37421 0.18954 0.71234 0.0
C1902 C 0.37137 0.18934 0.73311 0.0
H1903 H 0.40712 0.20741 0.83439 0.0
H1904 H 0.41281 0.20349 0.80047 0.0
H1905 H 0.31717 0.14691 0.76774 0.0
H1906 H 0.33728 0.19594 0.67271 0.0
H1907 H 0.33644 0.20143 0.70709 0.0
C1908 C 0.30416 0.20517 0.95637 0.0
C1909 C 0.33168 0.2281 0.94639 0.0
C1910 C 0.29226 0.21505 0.97162 0.0
C1911 C 0.29539 0.29057 0.98952 0.0
H1912 H 0.25059 0.23745 0.03291 0.0
C1913 C 0.26253 0.34057 0.05513 0.0
C1914 C 0.23255 0.32055 0.06396 0.0
C1915 C 0.27264 0.3289 0.03999 0.0
C1916 C 0.2627 0.25241 0.02074 0.0
H1917 H 0.36933 0.27872 0.94499 0.0
H1918 H 0.35005 0.29567 0.97204 0.0
H1919 H 0.27403 0.21726 0.00954 0.0
H1920 H 0.18965 0.27266 0.06416 0.0
H1921 H 0.20713 0.25209 0.03752 0.0
H1922 H 0.28459 0.32592 1.00088 0.0
C1923 C 0.33679 0.27029 0.96793 0.0
C1924 C 0.27621 0.24085 0.00733 0.0
C1925 C 0.34832 0.26049 0.95263 0.0
C1926 C 0.21242 0.28885 0.05715 0.0
C1927 C 0.22271 0.27696 0.04214 0.0
C1928 C 0.28216 0.30219 1.00297 0.0
C1929 C 0.3078 0.24805 0.97717 0.0
C1930 C 0.29303 0.25989 0.99158 0.0
C1931 C 0.25326 0.29665 0.03362 0.0
C1932 C 0.26577 0.28337 0.0188 0.0
H1933 H 0.29045 0.1802 0.9515 0.0
H1934 H 0.26981 0.19719 0.97827 0.0
H1935 H 0.30724 0.30566 0.97736 0.0
H1936 H 0.27888 0.36473 0.06056 0.0
H1937 H 0.29645 0.34461 0.03395 0.0
C1938 C 0.07712 0.27912 0.44112 0.0
C1939 C 0.10731 0.30791 0.4424 0.0
C1940 C 0.05625 0.26748 0.45659 0.0
C1941 C 0.03701 0.29605 0.50033 0.0
H1942 H 0.98083 0.20357 0.50922 0.0
C1943 C 0.92831 0.24855 0.55172 0.0
C1944 C 0.9236 0.22302 0.56362 0.0
C1945 C 0.94962 0.25725 0.53637 0.0
C1946 C 0.99642 0.22949 0.50705 0.0
H1947 H 0.13972 0.34706 0.46086 0.0
H1948 H 0.10347 0.32632 0.4883 0.0
H1949 H 0.02307 0.22191 0.48528 0.0
H1950 H 0.93701 0.18649 0.56911 0.0
H1951 H 0.97415 0.20141 0.54241 0.0
H1952 H 1.01082 0.30363 0.52242 0.0
C1953 C 0.09586 0.31276 0.47524 0.0
C1954 C 0.02053 0.24004 0.49319 0.0
C1955 C 0.1169 0.32438 0.45967 0.0
C1956 C 0.93962 0.20565 0.55972 0.0
C1957 C 0.96099 0.21436 0.54446 0.0
C1958 C 1.01294 0.2855 0.51426 0.0
C1959 C 0.06498 0.28447 0.47376 0.0
C1960 C 0.04101 0.27344 0.48953 0.0
C1961 C 0.96691 0.2408 0.53283 0.0
C1962 C 0.99217 0.25205 0.51774 0.0
H1963 H 0.06908 0.26618 0.42788 0.0
H1964 H 0.03259 0.24594 0.45477 0.0
H1965 H 0.05203 0.32194 0.49777 0.0
H1966 H 0.91676 0.26276 0.55483 0.0
H1967 H 0.95318 0.27741 0.52758 0.0
C1968 C 0.6775 0.91647 0.05281 0.0
C1969 C 0.70107 0.91381 0.06334 0.0
C1970 C 0.68702 0.93812 0.03748 0.0
C1971 C 0.75799 0.01487 0.02195 0.0
H1972 H 0.7194 0.9948 0.97226 0.0
C1973 C 0.79431 0.10853 0.95929 0.0
C1974 C 0.79983 0.09656 0.94242 0.0
C1975 C 0.78139 0.08789 0.97505 0.0
C1976 C 0.73022 1.00083 0.98615 0.0
H1977 H 0.7524 0.92961 0.06544 0.0
H1978 H 0.76878 0.96674 0.0388 0.0
H1979 H 0.69685 0.95325 0.99696 0.0
H1980 H 0.79862 0.05454 0.92938 0.0
H1981 H 0.776 0.01911 0.9564 0.0
H1982 H 0.79175 0.06227 0.01101 0.0
C1983 C 0.74319 0.95279 0.04242 0.0
C1984 C 0.71721 0.97708 1.00027 0.0
C1985 C 0.73373 0.93117 0.0575 0.0
C1986 C 0.79404 0.06442 0.94201 0.0
C1987 C 0.78089 0.04395 0.95747 0.0
C1988 C 0.77071 0.03878 0.00789 0.0
C1989 C 0.72019 0.95749 0.03269 0.0
C1990 C 0.7315 0.98357 0.01819 0.0
C1991 C 0.77357 0.05506 0.97399 0.0
C1992 C 0.75747 0.03171 0.98971 0.0
H1993 H 0.65229 0.90386 0.05728 0.0
H1994 H 0.66875 0.94116 0.03011 0.0
H1995 H 0.76926 0.02069 0.03573 0.0
H1996 H 0.79841 0.13309 0.96003 0.0
H1997 H 0.77625 0.09713 0.98775 0.0
C1998 C 0.77002 0.66995 0.55416 0.0
C1999 C 0.79881 0.69348 0.56291 0.0
C2000 C 0.75656 0.67896 0.53928 0.0
C2001 C 0.75326 0.75063 0.52312 0.0
H2002 H 0.72717 0.70876 0.47442 0.0
C2003 C 0.69448 0.78837 0.46176 0.0
C2004 C 0.71106 0.79275 0.44464 0.0
C2005 C 0.70183 0.77488 0.4774 0.0
C2006 C 0.73398 0.72045 0.48808 0.0
H2007 H 0.83729 0.74395 0.5622 0.0
H2008 H 0.81415 0.75942 0.53637 0.0
H2009 H 0.74699 0.68602 0.49853 0.0
H2010 H 0.74997 0.78874 0.43105 0.0
H2011 H 0.76201 0.76516 0.4578 0.0
H2012 H 0.7409 0.78548 0.51251 0.0
C2013 C 0.80164 0.7343 0.54104 0.0
C2014 C 0.74523 0.70737 0.50185 0.0
C2015 C 0.81513 0.7253 0.55563 0.0
C2016 C 0.73612 0.78507 0.44385 0.0
C2017 C 0.74303 0.77138 0.45917 0.0
C2018 C 0.74151 0.76342 0.50945 0.0
C2019 C 0.7716 0.71161 0.5332 0.0
C2020 C 0.75587 0.72286 0.51933 0.0
C2021 C 0.72553 0.76533 0.47597 0.0
C2022 C 0.73262 0.74898 0.4916 0.0
H2023 H 0.7566 0.64548 0.55979 0.0
H2024 H 0.73344 0.66094 0.53336 0.0
H2025 H 0.761 0.76288 0.53658 0.0
H2026 H 0.67503 0.79394 0.46282 0.0
H2027 H 0.68821 0.77076 0.49033 0.0
C2028 C 0.92833 0.714 0.95908 0.0
C2029 C 0.91661 0.68436 0.94947 0.0
C2030 C 0.95142 0.72279 0.97336 0.0
C2031 C 0.99432 0.69586 0.00565 0.0
H2032 H 0.06529 0.78417 0.99806 0.0
C2033 C 0.1084 0.75383 0.05436 0.0
C2034 C 0.11749 0.78535 0.06058 0.0
C2035 C 0.08636 0.73971 0.03935 0.0
C2036 C 0.04567 0.75954 1.00052 0.0
H2037 H 0.91818 0.63963 0.9481 0.0
H2038 H 0.95848 0.65479 0.97346 0.0
H2039 H 0.01895 0.76149 0.97684 0.0
H2040 H 0.11216 0.82737 0.05556 0.0
H2041 H 0.07475 0.80351 0.02936 0.0
H2042 H 0.02085 0.69435 0.02971 0.0
C2043 C 0.94964 0.67119 0.96993 0.0
C2044 C 0.01898 0.74652 0.98833 0.0
C2045 C 0.92625 0.66229 0.95558 0.0
C2046 C 0.10604 0.80326 0.05077 0.0
C2047 C 0.08441 0.78941 0.03577 0.0
C2048 C 0.02105 0.70905 0.01801 0.0
C2049 C 0.9636 0.70225 0.97833 0.0
C2050 C 0.99262 0.71477 0.99094 0.0
C2051 C 0.07336 0.75706 0.03019 0.0
C2052 C 0.04682 0.74134 0.01582 0.0
H2053 H 0.92149 0.73156 0.95452 0.0
H2054 H 0.96103 0.74654 0.97983 0.0
H2055 H 0.97447 0.67131 0.008 0.0
H2056 H 0.11621 0.73921 0.06201 0.0
H2057 H 0.07867 0.71487 0.03534 0.0
C2058 C 0.21148 0.91982 0.45532 0.0
C2059 C 0.23227 0.90981 0.44762 0.0
C2060 C 0.22108 0.94073 0.47077 0.0
C2061 C 0.29588 1.00288 0.49531 0.0
H2062 H 0.23224 1.00233 0.52969 0.0
C2063 C 0.32966 0.10776 0.5495 0.0
C2064 C 0.31523 0.09793 0.56733 0.0
C2065 C 0.31901 0.08542 0.53445 0.0
C2066 C 0.25057 1.00285 0.52039 0.0
H2067 H 0.27896 0.91268 0.45046 0.0
H2068 H 0.29549 0.94827 0.47826 0.0
H2069 H 0.21548 0.95896 0.50696 0.0
H2070 H 0.27767 0.05769 0.58319 0.0
H2071 H 0.2599 0.01905 0.55765 0.0
H2072 H 0.33129 0.04614 0.50954 0.0
C2073 C 0.27185 0.94041 0.47209 0.0
C2074 C 0.24079 0.97801 0.50708 0.0
C2075 C 0.26214 0.91938 0.45646 0.0
C2076 C 0.28933 0.06598 0.56963 0.0
C2077 C 0.2789 0.0438 0.55481 0.0
C2078 C 0.30582 0.02759 0.5089 0.0
C2079 C 0.25183 0.95221 0.4791 0.0
C2080 C 0.26316 0.97765 0.49422 0.0
C2081 C 0.29378 0.05288 0.53702 0.0
C2082 C 0.28329 0.02789 0.52169 0.0
H2083 H 0.1886 0.91331 0.44849 0.0
H2084 H 0.20505 0.94943 0.47537 0.0
H2085 H 0.31381 1.0039 0.48548 0.0
H2086 H 0.35008 0.13204 0.5474 0.0
H2087 H 0.33087 0.0935 0.52092 0.0
loop_
_geom_bond_atom_site_label_1
_geom_bond_atom_site_label_2
_geom_bond_distance
_geom_bond_site_symmetry_2
_ccdc_geom_bond_type
Eu0 N31 2.657 . S
Eu0 N38 2.609 . S
Eu0 O44 2.558 . S
Eu0 O45 2.612 . S
Eu0 O47 2.339 . S
Eu0 O48 2.563 . S
Eu0 O49 2.419 . S
Eu0 O51 2.380 . S
Eu0 O52 2.432 . S
Eu0 C64 2.848 . S
C1 C4 1.429 . S
C1 C5 1.411 . S
C1 N8 1.377 . S
C2 C4 1.420 . S
C2 C6 1.423 . S
C2 C14 1.392 . S
C3 C5 1.420 . S
C3 C6 1.351 . S
C3 H26 0.931 . S
C4 C1 1.429 . S
C4 C2 1.420 . S
C4 N12 1.362 . S
C5 C1 1.411 . S
C5 C3 1.420 . S
C5 C10 1.395 . S
C6 C2 1.423 . S
C6 C3 1.351 . S
C6 H18 0.930 . S
C7 C9 1.400 . S
C7 C10 1.386 . S
C7 H19 0.930 . S
N8 C1 1.377 . S
N8 C9 1.321 . S
N8 Eu11 2.609 . S
C9 C7 1.400 . S
C9 N8 1.321 . S
C9 H16 0.930 . S
C10 C5 1.395 . S
C10 C7 1.386 . S
C10 H29 0.930 . S
Eu11 N8 2.609 . S
Eu11 N12 2.657 . S
Eu11 O45 2.380 . S
Eu11 O46 2.432 . S
Eu11 O50 2.558 . S
Eu11 O51 2.612 . S
Eu11 O53 2.339 . S
Eu11 O54 2.563 . S
Eu11 O55 2.419 . S
Eu11 C75 2.848 . S
N12 C4 1.362 . S
N12 Eu11 2.657 . S
N12 C13 1.334 . S
C13 N12 1.334 . S
C13 C15 1.413 . S
C13 H20 0.929 . S
C14 C2 1.392 . S
C14 C15 1.367 . S
C14 H22 0.930 . S
C15 C13 1.413 . S
C15 C14 1.367 . S
C15 H17 0.930 . S
H16 C9 0.930 . S
H17 C15 0.930 . S
H18 C6 0.930 . S
H19 C7 0.930 . S
H20 C13 0.929 . S
H21 C35 0.930 . S
H22 C14 0.930 . S
H23 C41 0.930 . S
H24 C32 0.929 . S
H25 C39 0.930 . S
H26 C3 0.931 . S
H27 C33 0.930 . S
H28 C66 0.930 . S
H29 C10 0.930 . S
H30 C65 0.931 . S
N31 Eu0 2.657 . S
N31 C32 1.334 . S
N31 C36 1.362 . S
C32 H24 0.929 . S
C32 N31 1.334 . S
C32 C35 1.413 . S
C33 H27 0.930 . S
C33 C34 1.392 . S
C33 C35 1.367 . S
C34 C33 1.392 . S
C34 C36 1.420 . S
C34 C66 1.423 . S
C35 H21 0.930 . S
C35 C32 1.413 . S
C35 C33 1.367 . S
C36 N31 1.362 . S
C36 C34 1.420 . S
C36 C40 1.429 . S
H37 C42 0.930 . S
N38 Eu0 2.609 . S
N38 C40 1.377 . S
N38 C41 1.321 . S
C39 H25 0.930 . S
C39 C41 1.400 . S
C39 C42 1.386 . S
C40 C36 1.429 . S
C40 N38 1.377 . S
C40 C43 1.411 . S
C41 H23 0.930 . S
C41 N38 1.321 . S
C41 C39 1.400 . S
C42 H37 0.930 . S
C42 C39 1.386 . S
C42 C43 1.395 . S
C43 C40 1.411 . S
C43 C42 1.395 . S
C43 C65 1.420 . S
O44 Eu0 2.558 . S
O44 C64 1.257 . S
O45 Eu0 2.612 . S
O45 Eu11 2.380 . S
O45 C56 1.276 . S
O46 Eu11 2.432 . S
O46 C63 1.264 . S
O47 Eu0 2.339 . S
O47 C63 1.254 . S
O48 Eu0 2.563 . S
O48 C56 1.235 . S
O49 Eu0 2.419 . S
O49 C64 1.249 . S
O50 Eu11 2.558 . S
O50 C75 1.257 . S
O51 Eu0 2.380 . S
O51 Eu11 2.612 . S
O51 C67 1.276 . S
O52 Eu0 2.432 . S
O52 C74 1.264 . S
O53 Eu11 2.339 . S
O53 C74 1.254 . S
O54 Eu11 2.563 . S
O54 C67 1.235 . S
O55 Eu11 2.419 . S
O55 C75 1.249 . S
C56 O45 1.276 . S
C56 O48 1.235 . S
C57 C59 1.393 . S
C57 C61 1.395 . S
C57 C64 1.492 . S
C58 C59 1.392 . S
C58 C60 1.386 . S
C59 C57 1.393 . S
C59 C58 1.392 . S
C59 H76 0.930 . S
C60 C58 1.386 . S
C60 C62 1.395 . S
C60 H77 0.930 . S
C61 C57 1.395 . S
C61 C62 1.379 . S
C61 H78 0.930 . S
C62 C60 1.395 . S
C62 C61 1.379 . S
C62 H79 0.930 . S
C63 O46 1.264 . S
C63 O47 1.254 . S
C64 Eu0 2.848 . S
C64 O44 1.257 . S
C64 O49 1.249 . S
C64 C57 1.492 . S
C65 H30 0.931 . S
C65 C43 1.420 . S
C65 C66 1.351 . S
C66 H28 0.930 . S
C66 C34 1.423 . S
C66 C65 1.351 . S
C67 O51 1.276 . S
C67 O54 1.235 . S
C68 C69 1.393 . S
C68 C72 1.395 . S
C68 C75 1.492 . S
C69 C68 1.393 . S
C69 C70 1.392 . S
C69 H80 0.930 . S
C70 C69 1.392 . S
C70 C71 1.386 . S
C71 C70 1.386 . S
C71 C73 1.395 . S
C71 H81 0.930 . S
C72 C68 1.395 . S
C72 C73 1.379 . S
C72 H82 0.930 . S
C73 C71 1.395 . S
C73 C72 1.379 . S
C73 H83 0.930 . S
C74 O52 1.264 . S
C74 O53 1.254 . S
C75 Eu11 2.848 . S
C75 O50 1.257 . S
C75 O55 1.249 . S
C75 C68 1.492 . S
H76 C59 0.930 . S
H77 C60 0.930 . S
H78 C61 0.930 . S
H79 C62 0.930 . S
H80 C69 0.930 . S
H81 C71 0.930 . S
H82 C72 0.930 . S
H83 C73 0.930 . S
Eu84 N115 2.657 . S
Eu84 N122 2.609 . S
Eu84 O128 2.558 . S
Eu84 O129 2.612 . S
Eu84 O131 2.339 . S
Eu84 O132 2.563 . S
Eu84 O133 2.419 . S
Eu84 O135 2.380 . S
Eu84 O136 2.432 . S
Eu84 C148 2.848 . S
C85 C88 1.429 . S
C85 C89 1.411 . S
C85 N92 1.377 . S
C86 C88 1.420 . S
C86 C90 1.423 . S
C86 C98 1.392 . S
C87 C89 1.420 . S
C87 C90 1.351 . S
C87 H110 0.931 . S
C88 C85 1.429 . S
C88 C86 1.420 . S
C88 N96 1.362 . S
C89 C85 1.411 . S
C89 C87 1.420 . S
C89 C94 1.395 . S
C90 C86 1.423 . S
C90 C87 1.351 . S
C90 H102 0.930 . S
C91 C93 1.400 . S
C91 C94 1.386 . S
C91 H103 0.930 . S
N92 C85 1.377 . S
N92 C93 1.321 . S
N92 Eu95 2.609 . S
C93 C91 1.400 . S
C93 N92 1.321 . S
C93 H100 0.930 . S
C94 C89 1.395 . S
C94 C91 1.386 . S
C94 H113 0.930 . S
Eu95 N92 2.609 . S
Eu95 N96 2.657 . S
Eu95 O129 2.380 . S
Eu95 O130 2.432 . S
Eu95 O134 2.558 . S
Eu95 O135 2.612 . S
Eu95 O137 2.339 . S
Eu95 O138 2.563 . S
Eu95 O139 2.419 . S
Eu95 C159 2.848 . S
N96 C88 1.362 . S
N96 Eu95 2.657 . S
N96 C97 1.334 . S
C97 N96 1.334 . S
C97 C99 1.413 . S
C97 H104 0.929 . S
C98 C86 1.392 . S
C98 C99 1.367 . S
C98 H106 0.930 . S
C99 C97 1.413 . S
C99 C98 1.367 . S
C99 H101 0.930 . S
H100 C93 0.930 . S
H101 C99 0.930 . S
H102 C90 0.930 . S
H103 C91 0.930 . S
H104 C97 0.929 . S
H105 C119 0.930 . S
H106 C98 0.930 . S
H107 C125 0.930 . S
H108 C116 0.929 . S
H109 C123 0.930 . S
H110 C87 0.931 . S
H111 C117 0.930 . S
H112 C150 0.930 . S
H113 C94 0.930 . S
H114 C149 0.931 . S
N115 Eu84 2.657 . S
N115 C116 1.334 . S
N115 C120 1.362 . S
C116 H108 0.929 . S
C116 N115 1.334 . S
C116 C119 1.413 . S
C117 H111 0.930 . S
C117 C118 1.392 . S
C117 C119 1.367 . S
C118 C117 1.392 . S
C118 C120 1.420 . S
C118 C150 1.423 . S
C119 H105 0.930 . S
C119 C116 1.413 . S
C119 C117 1.367 . S
C120 N115 1.362 . S
C120 C118 1.420 . S
C120 C124 1.429 . S
H121 C126 0.930 . S
N122 Eu84 2.609 . S
N122 C124 1.377 . S
N122 C125 1.321 . S
C123 H109 0.930 . S
C123 C125 1.400 . S
C123 C126 1.386 . S
C124 C120 1.429 . S
C124 N122 1.377 . S
C124 C127 1.411 . S
C125 H107 0.930 . S
C125 N122 1.321 . S
C125 C123 1.400 . S
C126 H121 0.930 . S
C126 C123 1.386 . S
C126 C127 1.395 . S
C127 C124 1.411 . S
C127 C126 1.395 . S
C127 C149 1.420 . S
O128 Eu84 2.558 . S
O128 C148 1.257 . S
O129 Eu84 2.612 . S
O129 Eu95 2.380 . S
O129 C140 1.276 . S
O130 Eu95 2.432 . S
O130 C147 1.264 . S
O131 Eu84 2.339 . S
O131 C147 1.254 . S
O132 Eu84 2.563 . S
O132 C140 1.235 . S
O133 Eu84 2.419 . S
O133 C148 1.249 . S
O134 Eu95 2.558 . S
O134 C159 1.257 . S
O135 Eu84 2.380 . S
O135 Eu95 2.612 . S
O135 C151 1.276 . S
O136 Eu84 2.432 . S
O136 C158 1.264 . S
O137 Eu95 2.339 . S
O137 C158 1.254 . S
O138 Eu95 2.563 . S
O138 C151 1.235 . S
O139 Eu95 2.419 . S
O139 C159 1.249 . S
C140 O129 1.276 . S
C140 O132 1.235 . S
C141 C143 1.393 . S
C141 C145 1.395 . S
C141 C148 1.492 . S
C142 C143 1.392 . S
C142 C144 1.386 . S
C143 C141 1.393 . S
C143 C142 1.392 . S
C143 H160 0.930 . S
C144 C142 1.386 . S
C144 C146 1.395 . S
C144 H161 0.930 . S
C145 C141 1.395 . S
C145 C146 1.379 . S
C145 H162 0.930 . S
C146 C144 1.395 . S
C146 C145 1.379 . S
C146 H163 0.930 . S
C147 O130 1.264 . S
C147 O131 1.254 . S
C148 Eu84 2.848 . S
C148 O128 1.257 . S
C148 O133 1.249 . S
C148 C141 1.492 . S
C149 H114 0.931 . S
C149 C127 1.420 . S
C149 C150 1.351 . S
C150 H112 0.930 . S
C150 C118 1.423 . S
C150 C149 1.351 . S
C151 O135 1.276 . S
C151 O138 1.235 . S
C152 C153 1.393 . S
C152 C156 1.395 . S
C152 C159 1.492 . S
C153 C152 1.393 . S
C153 C154 1.392 1_655 S
C153 H164 0.930 . S
C154 C153 1.392 1_455 S
C154 C155 1.386 . S
C155 C154 1.386 . S
C155 C157 1.395 . S
C155 H165 0.930 . S
C156 C152 1.395 . S
C156 C157 1.379 1_655 S
C156 H166 0.930 . S
C157 C155 1.395 . S
C157 C156 1.379 1_455 S
C157 H167 0.930 . S
C158 O136 1.264 . S
C158 O137 1.254 . S
C159 Eu95 2.848 . S
C159 O134 1.257 . S
C159 O139 1.249 . S
C159 C152 1.492 . S
H160 C143 0.930 . S
H161 C144 0.930 . S
H162 C145 0.930 . S
H163 C146 0.930 . S
H164 C153 0.930 . S
H165 C155 0.930 . S
H166 C156 0.930 . S
H167 C157 0.930 . S
Eu168 N199 2.657 . S
Eu168 N206 2.609 . S
Eu168 O212 2.558 . S
Eu168 O213 2.612 . S
Eu168 O215 2.339 . S
Eu168 O216 2.563 . S
Eu168 O217 2.419 . S
Eu168 O219 2.380 . S
Eu168 O220 2.432 . S
Eu168 C232 2.848 . S
C169 C172 1.429 . S
C169 C173 1.411 . S
C169 N176 1.377 . S
C170 C172 1.420 . S
C170 C174 1.423 . S
C170 C182 1.392 . S
C171 C173 1.420 . S
C171 C174 1.351 . S
C171 H194 0.931 . S
C172 C169 1.429 . S
C172 C170 1.420 . S
C172 N180 1.362 . S
C173 C169 1.411 . S
C173 C171 1.420 . S
C173 C178 1.395 . S
C174 C170 1.423 . S
C174 C171 1.351 . S
C174 H186 0.930 . S
C175 C177 1.400 . S
C175 C178 1.386 . S
C175 H187 0.930 . S
N176 C169 1.377 . S
N176 C177 1.321 . S
N176 Eu179 2.609 . S
C177 C175 1.400 . S
C177 N176 1.321 . S
C177 H184 0.930 . S
C178 C173 1.395 . S
C178 C175 1.386 . S
C178 H197 0.930 . S
Eu179 N176 2.609 . S
Eu179 N180 2.657 . S
Eu179 O213 2.380 . S
Eu179 O214 2.432 . S
Eu179 O218 2.558 . S
Eu179 O219 2.612 . S
Eu179 O221 2.339 . S
Eu179 O222 2.563 . S
Eu179 O223 2.419 . S
Eu179 C243 2.848 . S
N180 C172 1.362 . S
N180 Eu179 2.657 . S
N180 C181 1.334 . S
C181 N180 1.334 . S
C181 C183 1.413 . S
C181 H188 0.929 . S
C182 C170 1.392 . S
C182 C183 1.367 . S
C182 H190 0.930 . S
C183 C181 1.413 . S
C183 C182 1.367 . S
C183 H185 0.930 . S
H184 C177 0.930 . S
H185 C183 0.930 . S
H186 C174 0.930 . S
H187 C175 0.930 . S
H188 C181 0.929 . S
H189 C203 0.930 . S
H190 C182 0.930 . S
H191 C209 0.930 . S
H192 C200 0.929 . S
H193 C207 0.930 . S
H194 C171 0.931 . S
H195 C201 0.930 . S
H196 C234 0.930 . S
H197 C178 0.930 . S
H198 C233 0.931 . S
N199 Eu168 2.657 . S
N199 C200 1.334 . S
N199 C204 1.362 . S
C200 H192 0.929 . S
C200 N199 1.334 . S
C200 C203 1.413 . S
C201 H195 0.930 . S
C201 C202 1.392 . S
C201 C203 1.367 . S
C202 C201 1.392 . S
C202 C204 1.420 . S
C202 C234 1.423 . S
C203 H189 0.930 . S
C203 C200 1.413 . S
C203 C201 1.367 . S
C204 N199 1.362 . S
C204 C202 1.420 . S
C204 C208 1.429 . S
H205 C210 0.930 . S
N206 Eu168 2.609 . S
N206 C208 1.377 . S
N206 C209 1.321 . S
C207 H193 0.930 . S
C207 C209 1.400 . S
C207 C210 1.386 . S
C208 C204 1.429 . S
C208 N206 1.377 . S
C208 C211 1.411 . S
C209 H191 0.930 . S
C209 N206 1.321 . S
C209 C207 1.400 . S
C210 H205 0.930 . S
C210 C207 1.386 . S
C210 C211 1.395 . S
C211 C208 1.411 . S
C211 C210 1.395 . S
C211 C233 1.420 . S
O212 Eu168 2.558 . S
O212 C232 1.257 . S
O213 Eu168 2.612 . S
O213 Eu179 2.380 . S
O213 C224 1.276 . S
O214 Eu179 2.432 . S
O214 C231 1.264 . S
O215 Eu168 2.339 . S
O215 C231 1.254 . S
O216 Eu168 2.563 . S
O216 C224 1.235 . S
O217 Eu168 2.419 . S
O217 C232 1.249 . S
O218 Eu179 2.558 . S
O218 C243 1.257 . S
O219 Eu168 2.380 . S
O219 Eu179 2.612 . S
O219 C235 1.276 . S
O220 Eu168 2.432 . S
O220 C242 1.264 . S
O221 Eu179 2.339 . S
O221 C242 1.254 . S
O222 Eu179 2.563 . S
O222 C235 1.235 . S
O223 Eu179 2.419 . S
O223 C243 1.249 . S
C224 O213 1.276 . S
C224 O216 1.235 . S
C225 C227 1.393 . S
C225 C229 1.395 . S
C225 C232 1.492 . S
C226 C227 1.392 . S
C226 C228 1.386 . S
C227 C225 1.393 . S
C227 C226 1.392 . S
C227 H244 0.930 . S
C228 C226 1.386 . S
C228 C230 1.395 . S
C228 H245 0.930 . S
C229 C225 1.395 . S
C229 C230 1.379 . S
C229 H246 0.930 . S
C230 C228 1.395 . S
C230 C229 1.379 . S
C230 H247 0.930 . S
C231 O214 1.264 . S
C231 O215 1.254 . S
C232 Eu168 2.848 . S
C232 O212 1.257 . S
C232 O217 1.249 . S
C232 C225 1.492 . S
C233 H198 0.931 . S
C233 C211 1.420 . S
C233 C234 1.351 . S
C234 H196 0.930 . S
C234 C202 1.423 . S
C234 C233 1.351 . S
C235 O219 1.276 . S
C235 O222 1.235 . S
C236 C237 1.393 . S
C236 C240 1.395 . S
C236 C243 1.492 . S
C237 C236 1.393 . S
C237 C238 1.392 1_565 S
C237 H248 0.930 . S
C238 C237 1.392 1_545 S
C238 C239 1.386 . S
C239 C238 1.386 . S
C239 C241 1.395 . S
C239 H249 0.930 . S
C240 C236 1.395 . S
C240 C241 1.379 1_565 S
C240 H250 0.930 . S
C241 C239 1.395 . S
C241 C240 1.379 1_545 S
C241 H251 0.930 . S
C242 O220 1.264 . S
C242 O221 1.254 . S
C243 Eu179 2.848 . S
C243 O218 1.257 . S
C243 O223 1.249 . S
C243 C236 1.492 . S
H244 C227 0.930 . S
H245 C228 0.930 . S
H246 C229 0.930 . S
H247 C230 0.930 . S
H248 C237 0.930 . S
H249 C239 0.930 . S
H250 C240 0.930 . S
H251 C241 0.930 . S
Eu252 N283 2.657 . S
Eu252 N290 2.609 . S
Eu252 O296 2.558 . S
Eu252 O297 2.612 . S
Eu252 O299 2.339 . S
Eu252 O300 2.563 . S
Eu252 O301 2.419 . S
Eu252 O303 2.380 . S
Eu252 O304 2.432 . S
Eu252 C316 2.848 . S
C253 C256 1.429 . S
C253 C257 1.411 . S
C253 N260 1.377 . S
C254 C256 1.420 . S
C254 C258 1.423 . S
C254 C266 1.392 . S
C255 C257 1.420 . S
C255 C258 1.351 . S
C255 H278 0.931 . S
C256 C253 1.429 . S
C256 C254 1.420 . S
C256 N264 1.362 . S
C257 C253 1.411 . S
C257 C255 1.420 . S
C257 C262 1.395 . S
C258 C254 1.423 . S
C258 C255 1.351 . S
C258 H270 0.930 . S
C259 C261 1.400 . S
C259 C262 1.386 . S
C259 H271 0.930 . S
N260 C253 1.377 . S
N260 C261 1.321 . S
N260 Eu263 2.609 . S
C261 C259 1.400 . S
C261 N260 1.321 . S
C261 H268 0.930 . S
C262 C257 1.395 . S
C262 C259 1.386 . S
C262 H281 0.930 . S
Eu263 N260 2.609 . S
Eu263 N264 2.657 . S
Eu263 O297 2.380 . S
Eu263 O298 2.432 . S
Eu263 O302 2.558 . S
Eu263 O303 2.612 . S
Eu263 O305 2.339 . S
Eu263 O306 2.563 . S
Eu263 O307 2.419 . S
Eu263 C327 2.848 . S
N264 C256 1.362 . S
N264 Eu263 2.657 . S
N264 C265 1.334 . S
C265 N264 1.334 . S
C265 C267 1.413 . S
C265 H272 0.929 . S
C266 C254 1.392 . S
C266 C267 1.367 . S
C266 H274 0.930 . S
C267 C265 1.413 . S
C267 C266 1.367 . S
C267 H269 0.930 . S
H268 C261 0.930 . S
H269 C267 0.930 . S
H270 C258 0.930 . S
H271 C259 0.930 . S
H272 C265 0.929 . S
H273 C287 0.930 . S
H274 C266 0.930 . S
H275 C293 0.930 . S
H276 C284 0.929 . S
H277 C291 0.930 . S
H278 C255 0.931 . S
H279 C285 0.930 . S
H280 C318 0.930 . S
H281 C262 0.930 . S
H282 C317 0.931 . S
N283 Eu252 2.657 . S
N283 C284 1.334 . S
N283 C288 1.362 . S
C284 H276 0.929 . S
C284 N283 1.334 . S
C284 C287 1.413 . S
C285 H279 0.930 . S
C285 C286 1.392 . S
C285 C287 1.367 . S
C286 C285 1.392 . S
C286 C288 1.420 . S
C286 C318 1.423 . S
C287 H273 0.930 . S
C287 C284 1.413 . S
C287 C285 1.367 . S
C288 N283 1.362 . S
C288 C286 1.420 . S
C288 C292 1.429 . S
H289 C294 0.930 . S
N290 Eu252 2.609 . S
N290 C292 1.377 . S
N290 C293 1.321 . S
C291 H277 0.930 . S
C291 C293 1.400 . S
C291 C294 1.386 . S
C292 C288 1.429 . S
C292 N290 1.377 . S
C292 C295 1.411 . S
C293 H275 0.930 . S
C293 N290 1.321 . S
C293 C291 1.400 . S
C294 H289 0.930 . S
C294 C291 1.386 . S
C294 C295 1.395 . S
C295 C292 1.411 . S
C295 C294 1.395 . S
C295 C317 1.420 . S
O296 Eu252 2.558 . S
O296 C316 1.257 . S
O297 Eu252 2.612 . S
O297 Eu263 2.380 . S
O297 C308 1.276 . S
O298 Eu263 2.432 . S
O298 C315 1.264 . S
O299 Eu252 2.339 . S
O299 C315 1.254 . S
O300 Eu252 2.563 . S
O300 C308 1.235 . S
O301 Eu252 2.419 . S
O301 C316 1.249 . S
O302 Eu263 2.558 . S
O302 C327 1.257 . S
O303 Eu252 2.380 . S
O303 Eu263 2.612 . S
O303 C319 1.276 . S
O304 Eu252 2.432 . S
O304 C326 1.264 . S
O305 Eu263 2.339 . S
O305 C326 1.254 . S
O306 Eu263 2.563 . S
O306 C319 1.235 . S
O307 Eu263 2.419 . S
O307 C327 1.249 . S
C308 O297 1.276 . S
C308 O300 1.235 . S
C309 C311 1.393 . S
C309 C313 1.395 . S
C309 C316 1.492 . S
C310 C311 1.392 . S
C310 C312 1.386 . S
C311 C309 1.393 . S
C311 C310 1.392 . S
C311 H328 0.930 . S
C312 C310 1.386 . S
C312 C314 1.395 . S
C312 H329 0.930 . S
C313 C309 1.395 . S
C313 C314 1.379 . S
C313 H330 0.930 . S
C314 C312 1.395 . S
C314 C313 1.379 . S
C314 H331 0.930 . S
C315 O298 1.264 . S
C315 O299 1.254 . S
C316 Eu252 2.848 . S
C316 O296 1.257 . S
C316 O301 1.249 . S
C316 C309 1.492 . S
C317 H282 0.931 . S
C317 C295 1.420 . S
C317 C318 1.351 . S
C318 H280 0.930 . S
C318 C286 1.423 . S
C318 C317 1.351 . S
C319 O303 1.276 . S
C319 O306 1.235 . S
C320 C321 1.393 . S
C320 C324 1.395 . S
C320 C327 1.492 . S
C321 C320 1.393 . S
C321 C322 1.392 . S
C321 H332 0.930 . S
C322 C321 1.392 . S
C322 C323 1.386 . S
C323 C322 1.386 . S
C323 C325 1.395 . S
C323 H333 0.930 . S
C324 C320 1.395 . S
C324 C325 1.379 . S
C324 H334 0.930 . S
C325 C323 1.395 . S
C325 C324 1.379 . S
C325 H335 0.930 . S
C326 O304 1.264 . S
C326 O305 1.254 . S
C327 Eu263 2.848 . S
C327 O302 1.257 . S
C327 O307 1.249 . S
C327 C320 1.492 . S
H328 C311 0.930 . S
H329 C312 0.930 . S
H330 C313 0.930 . S
H331 C314 0.930 . S
H332 C321 0.930 . S
H333 C323 0.930 . S
H334 C324 0.930 . S
H335 C325 0.930 . S
Eu336 N367 2.657 . S
Eu336 N374 2.609 . S
Eu336 O380 2.558 . S
Eu336 O381 2.612 . S
Eu336 O383 2.339 . S
Eu336 O384 2.563 . S
Eu336 O385 2.419 . S
Eu336 O387 2.380 . S
Eu336 O388 2.432 . S
Eu336 C400 2.848 . S
C337 C340 1.429 . S
C337 C341 1.411 . S
C337 N344 1.377 . S
C338 C340 1.420 . S
C338 C342 1.423 . S
C338 C350 1.392 . S
C339 C341 1.420 . S
C339 C342 1.351 . S
C339 H362 0.931 . S
C340 C337 1.429 . S
C340 C338 1.420 . S
C340 N348 1.362 . S
C341 C337 1.411 . S
C341 C339 1.420 . S
C341 C346 1.395 . S
C342 C338 1.423 . S
C342 C339 1.351 . S
C342 H354 0.930 . S
C343 C345 1.400 . S
C343 C346 1.386 . S
C343 H355 0.930 . S
N344 C337 1.377 . S
N344 C345 1.321 . S
N344 Eu347 2.609 . S
C345 C343 1.400 . S
C345 N344 1.321 . S
C345 H352 0.930 . S
C346 C341 1.395 . S
C346 C343 1.386 . S
C346 H365 0.930 . S
Eu347 N344 2.609 . S
Eu347 N348 2.657 . S
Eu347 O381 2.380 . S
Eu347 O382 2.432 . S
Eu347 O386 2.558 . S
Eu347 O387 2.612 . S
Eu347 O389 2.339 . S
Eu347 O390 2.563 . S
Eu347 O391 2.419 . S
Eu347 C411 2.848 . S
N348 C340 1.362 . S
N348 Eu347 2.657 . S
N348 C349 1.334 . S
C349 N348 1.334 . S
C349 C351 1.413 . S
C349 H356 0.929 . S
C350 C338 1.392 . S
C350 C351 1.367 . S
C350 H358 0.930 . S
C351 C349 1.413 . S
C351 C350 1.367 . S
C351 H353 0.930 . S
H352 C345 0.930 . S
H353 C351 0.930 . S
H354 C342 0.930 . S
H355 C343 0.930 . S
H356 C349 0.929 . S
H357 C371 0.930 . S
H358 C350 0.930 . S
H359 C377 0.930 . S
H360 C368 0.929 . S
H361 C375 0.930 . S
H362 C339 0.931 . S
H363 C369 0.930 . S
H364 C402 0.930 . S
H365 C346 0.930 . S
H366 C401 0.931 . S
N367 Eu336 2.657 . S
N367 C368 1.334 . S
N367 C372 1.362 . S
C368 H360 0.929 . S
C368 N367 1.334 . S
C368 C371 1.413 . S
C369 H363 0.930 . S
C369 C370 1.392 . S
C369 C371 1.367 . S
C370 C369 1.392 . S
C370 C372 1.420 . S
C370 C402 1.423 . S
C371 H357 0.930 . S
C371 C368 1.413 . S
C371 C369 1.367 . S
C372 N367 1.362 . S
C372 C370 1.420 . S
C372 C376 1.429 . S
H373 C378 0.930 . S
N374 Eu336 2.609 . S
N374 C376 1.377 . S
N374 C377 1.321 . S
C375 H361 0.930 . S
C375 C377 1.400 . S
C375 C378 1.386 . S
C376 C372 1.429 . S
C376 N374 1.377 . S
C376 C379 1.411 . S
C377 H359 0.930 . S
C377 N374 1.321 . S
C377 C375 1.400 . S
C378 H373 0.930 . S
C378 C375 1.386 . S
C378 C379 1.395 . S
C379 C376 1.411 . S
C379 C378 1.395 . S
C379 C401 1.420 . S
O380 Eu336 2.558 . S
O380 C400 1.257 . S
O381 Eu336 2.612 . S
O381 Eu347 2.380 . S
O381 C392 1.276 . S
O382 Eu347 2.432 . S
O382 C399 1.264 . S
O383 Eu336 2.339 . S
O383 C399 1.254 . S
O384 Eu336 2.563 . S
O384 C392 1.235 . S
O385 Eu336 2.419 . S
O385 C400 1.249 . S
O386 Eu347 2.558 . S
O386 C411 1.257 . S
O387 Eu336 2.380 . S
O387 Eu347 2.612 . S
O387 C403 1.276 . S
O388 Eu336 2.432 . S
O388 C410 1.264 . S
O389 Eu347 2.339 . S
O389 C410 1.254 . S
O390 Eu347 2.563 . S
O390 C403 1.235 . S
O391 Eu347 2.419 . S
O391 C411 1.249 . S
C392 O381 1.276 . S
C392 O384 1.235 . S
C393 C395 1.393 . S
C393 C397 1.395 . S
C393 C400 1.492 . S
C394 C395 1.392 . S
C394 C396 1.386 . S
C395 C393 1.393 . S
C395 C394 1.392 . S
C395 H412 0.930 . S
C396 C394 1.386 . S
C396 C398 1.395 . S
C396 H413 0.930 . S
C397 C393 1.395 . S
C397 C398 1.379 . S
C397 H414 0.930 . S
C398 C396 1.395 . S
C398 C397 1.379 . S
C398 H415 0.930 . S
C399 O382 1.264 . S
C399 O383 1.254 . S
C400 Eu336 2.848 . S
C400 O380 1.257 . S
C400 O385 1.249 . S
C400 C393 1.492 . S
C401 H366 0.931 . S
C401 C379 1.420 . S
C401 C402 1.351 . S
C402 H364 0.930 . S
C402 C370 1.423 . S
C402 C401 1.351 . S
C403 O387 1.276 . S
C403 O390 1.235 . S
C404 C405 1.393 . S
C404 C408 1.395 . S
C404 C411 1.492 . S
C405 C404 1.393 . S
C405 C406 1.392 1_455 S
C405 H416 0.930 . S
C406 C405 1.392 1_655 S
C406 C407 1.386 . S
C407 C406 1.386 . S
C407 C409 1.395 . S
C407 H417 0.930 . S
C408 C404 1.395 . S
C408 C409 1.379 1_455 S
C408 H418 0.930 . S
C409 C407 1.395 . S
C409 C408 1.379 1_655 S
C409 H419 0.930 . S
C410 O388 1.264 . S
C410 O389 1.254 . S
C411 Eu347 2.848 . S
C411 O386 1.257 . S
C411 O391 1.249 . S
C411 C404 1.492 . S
H412 C395 0.930 . S
H413 C396 0.930 . S
H414 C397 0.930 . S
H415 C398 0.930 . S
H416 C405 0.930 . S
H417 C407 0.930 . S
H418 C408 0.930 . S
H419 C409 0.930 . S
Eu420 N451 2.657 . S
Eu420 N458 2.609 . S
Eu420 O464 2.558 . S
Eu420 O465 2.612 . S
Eu420 O467 2.339 . S
Eu420 O468 2.563 . S
Eu420 O469 2.419 . S
Eu420 O471 2.380 . S
Eu420 O472 2.432 . S
Eu420 C484 2.848 . S
C421 C424 1.429 . S
C421 C425 1.411 . S
C421 N428 1.377 . S
C422 C424 1.420 . S
C422 C426 1.423 . S
C422 C434 1.392 . S
C423 C425 1.420 . S
C423 C426 1.351 . S
C423 H446 0.931 . S
C424 C421 1.429 . S
C424 C422 1.420 . S
C424 N432 1.362 . S
C425 C421 1.411 . S
C425 C423 1.420 . S
C425 C430 1.395 . S
C426 C422 1.423 . S
C426 C423 1.351 . S
C426 H438 0.930 . S
C427 C429 1.400 . S
C427 C430 1.386 . S
C427 H439 0.930 . S
N428 C421 1.377 . S
N428 C429 1.321 . S
N428 Eu431 2.609 . S
C429 C427 1.400 . S
C429 N428 1.321 . S
C429 H436 0.930 . S
C430 C425 1.395 . S
C430 C427 1.386 . S
C430 H449 0.930 . S
Eu431 N428 2.609 . S
Eu431 N432 2.657 . S
Eu431 O465 2.380 . S
Eu431 O466 2.432 . S
Eu431 O470 2.558 . S
Eu431 O471 2.612 . S
Eu431 O473 2.339 . S
Eu431 O474 2.563 . S
Eu431 O475 2.419 . S
Eu431 C495 2.848 . S
N432 C424 1.362 . S
N432 Eu431 2.657 . S
N432 C433 1.334 . S
C433 N432 1.334 . S
C433 C435 1.413 . S
C433 H440 0.929 . S
C434 C422 1.392 . S
C434 C435 1.367 . S
C434 H442 0.930 . S
C435 C433 1.413 . S
C435 C434 1.367 . S
C435 H437 0.930 . S
H436 C429 0.930 . S
H437 C435 0.930 . S
H438 C426 0.930 . S
H439 C427 0.930 . S
H440 C433 0.929 . S
H441 C455 0.930 . S
H442 C434 0.930 . S
H443 C461 0.930 . S
H444 C452 0.929 . S
H445 C459 0.930 . S
H446 C423 0.931 . S
H447 C453 0.930 . S
H448 C486 0.930 . S
H449 C430 0.930 . S
H450 C485 0.931 . S
N451 Eu420 2.657 . S
N451 C452 1.334 . S
N451 C456 1.362 . S
C452 H444 0.929 . S
C452 N451 1.334 . S
C452 C455 1.413 . S
C453 H447 0.930 . S
C453 C454 1.392 . S
C453 C455 1.367 . S
C454 C453 1.392 . S
C454 C456 1.420 . S
C454 C486 1.423 . S
C455 H441 0.930 . S
C455 C452 1.413 . S
C455 C453 1.367 . S
C456 N451 1.362 . S
C456 C454 1.420 . S
C456 C460 1.429 . S
H457 C462 0.930 . S
N458 Eu420 2.609 . S
N458 C460 1.377 . S
N458 C461 1.321 . S
C459 H445 0.930 . S
C459 C461 1.400 . S
C459 C462 1.386 . S
C460 C456 1.429 . S
C460 N458 1.377 . S
C460 C463 1.411 . S
C461 H443 0.930 . S
C461 N458 1.321 . S
C461 C459 1.400 . S
C462 H457 0.930 . S
C462 C459 1.386 . S
C462 C463 1.395 . S
C463 C460 1.411 . S
C463 C462 1.395 . S
C463 C485 1.420 . S
O464 Eu420 2.558 . S
O464 C484 1.257 . S
O465 Eu420 2.612 . S
O465 Eu431 2.380 . S
O465 C476 1.276 . S
O466 Eu431 2.432 . S
O466 C483 1.264 . S
O467 Eu420 2.339 . S
O467 C483 1.254 . S
O468 Eu420 2.563 . S
O468 C476 1.235 . S
O469 Eu420 2.419 . S
O469 C484 1.249 . S
O470 Eu431 2.558 . S
O470 C495 1.257 . S
O471 Eu420 2.380 . S
O471 Eu431 2.612 . S
O471 C487 1.276 . S
O472 Eu420 2.432 . S
O472 C494 1.264 . S
O473 Eu431 2.339 . S
O473 C494 1.254 . S
O474 Eu431 2.563 . S
O474 C487 1.235 . S
O475 Eu431 2.419 . S
O475 C495 1.249 . S
C476 O465 1.276 . S
C476 O468 1.235 . S
C477 C479 1.393 . S
C477 C481 1.395 . S
C477 C484 1.492 . S
C478 C479 1.392 . S
C478 C480 1.386 . S
C479 C477 1.393 . S
C479 C478 1.392 . S
C479 H496 0.930 . S
C480 C478 1.386 . S
C480 C482 1.395 . S
C480 H497 0.930 . S
C481 C477 1.395 . S
C481 C482 1.379 . S
C481 H498 0.930 . S
C482 C480 1.395 . S
C482 C481 1.379 . S
C482 H499 0.930 . S
C483 O466 1.264 . S
C483 O467 1.254 . S
C484 Eu420 2.848 . S
C484 O464 1.257 . S
C484 O469 1.249 . S
C484 C477 1.492 . S
C485 H450 0.931 . S
C485 C463 1.420 . S
C485 C486 1.351 . S
C486 H448 0.930 . S
C486 C454 1.423 . S
C486 C485 1.351 . S
C487 O471 1.276 . S
C487 O474 1.235 . S
C488 C489 1.393 . S
C488 C492 1.395 . S
C488 C495 1.492 . S
C489 C488 1.393 . S
C489 C490 1.392 1_545 S
C489 H500 0.930 . S
C490 C489 1.392 1_565 S
C490 C491 1.386 . S
C491 C490 1.386 . S
C491 C493 1.395 . S
C491 H501 0.930 . S
C492 C488 1.395 . S
C492 C493 1.379 1_545 S
C492 H502 0.930 . S
C493 C491 1.395 . S
C493 C492 1.379 1_565 S
C493 H503 0.930 . S
C494 O472 1.264 . S
C494 O473 1.254 . S
C495 Eu431 2.848 . S
C495 O470 1.257 . S
C495 O475 1.249 . S
C495 C488 1.492 . S
H496 C479 0.930 . S
H497 C480 0.930 . S
H498 C481 0.930 . S
H499 C482 0.930 . S
H500 C489 0.930 . S
H501 C491 0.930 . S
H502 C492 0.930 . S
H503 C493 0.930 . S
Eu504 N535 2.657 . S
Eu504 N542 2.609 . S
Eu504 O548 2.558 . S
Eu504 O549 2.612 . S
Eu504 O551 2.339 . S
Eu504 O552 2.563 . S
Eu504 O553 2.419 . S
Eu504 O555 2.380 . S
Eu504 O556 2.432 . S
Eu504 C568 2.848 . S
C505 C508 1.429 . S
C505 C509 1.411 . S
C505 N512 1.377 . S
C506 C508 1.420 . S
C506 C510 1.423 . S
C506 C518 1.392 . S
C507 C509 1.420 . S
C507 C510 1.351 . S
C507 H530 0.931 . S
C508 C505 1.429 . S
C508 C506 1.420 . S
C508 N516 1.362 . S
C509 C505 1.411 . S
C509 C507 1.420 . S
C509 C514 1.395 . S
C510 C506 1.423 . S
C510 C507 1.351 . S
C510 H522 0.930 . S
C511 C513 1.400 . S
C511 C514 1.386 . S
C511 H523 0.930 . S
N512 C505 1.377 . S
N512 C513 1.321 . S
N512 Eu515 2.609 . S
C513 C511 1.400 . S
C513 N512 1.321 . S
C513 H520 0.930 . S
C514 C509 1.395 . S
C514 C511 1.386 . S
C514 H533 0.930 . S
Eu515 N512 2.609 . S
Eu515 N516 2.657 . S
Eu515 O549 2.380 . S
Eu515 O550 2.432 . S
Eu515 O554 2.558 . S
Eu515 O555 2.612 . S
Eu515 O557 2.339 . S
Eu515 O558 2.563 . S
Eu515 O559 2.419 . S
Eu515 C579 2.848 . S
N516 C508 1.362 . S
N516 Eu515 2.657 . S
N516 C517 1.334 . S
C517 N516 1.334 . S
C517 C519 1.413 . S
C517 H524 0.929 . S
C518 C506 1.392 . S
C518 C519 1.367 . S
C518 H526 0.930 . S
C519 C517 1.413 . S
C519 C518 1.367 . S
C519 H521 0.930 . S
H520 C513 0.930 . S
H521 C519 0.930 . S
H522 C510 0.930 . S
H523 C511 0.930 . S
H524 C517 0.929 . S
H525 C539 0.930 . S
H526 C518 0.930 . S
H527 C545 0.930 . S
H528 C536 0.929 . S
H529 C543 0.930 . S
H530 C507 0.931 . S
H531 C537 0.930 . S
H532 C570 0.930 . S
H533 C514 0.930 . S
H534 C569 0.931 . S
N535 Eu504 2.657 . S
N535 C536 1.334 . S
N535 C540 1.362 . S
C536 H528 0.929 . S
C536 N535 1.334 . S
C536 C539 1.413 . S
C537 H531 0.930 . S
C537 C538 1.392 . S
C537 C539 1.367 . S
C538 C537 1.392 . S
C538 C540 1.420 . S
C538 C570 1.423 . S
C539 H525 0.930 . S
C539 C536 1.413 . S
C539 C537 1.367 . S
C540 N535 1.362 . S
C540 C538 1.420 . S
C540 C544 1.429 . S
H541 C546 0.930 . S
N542 Eu504 2.609 . S
N542 C544 1.377 . S
N542 C545 1.321 . S
C543 H529 0.930 . S
C543 C545 1.400 . S
C543 C546 1.386 . S
C544 C540 1.429 . S
C544 N542 1.377 . S
C544 C547 1.411 . S
C545 H527 0.930 . S
C545 N542 1.321 . S
C545 C543 1.400 . S
C546 H541 0.930 . S
C546 C543 1.386 . S
C546 C547 1.395 . S
C547 C544 1.411 . S
C547 C546 1.395 . S
C547 C569 1.420 . S
O548 Eu504 2.558 . S
O548 C568 1.257 . S
O549 Eu504 2.612 . S
O549 Eu515 2.380 . S
O549 C560 1.276 . S
O550 Eu515 2.432 . S
O550 C567 1.264 . S
O551 Eu504 2.339 . S
O551 C567 1.254 . S
O552 Eu504 2.563 . S
O552 C560 1.235 . S
O553 Eu504 2.419 . S
O553 C568 1.249 . S
O554 Eu515 2.558 . S
O554 C579 1.257 . S
O555 Eu504 2.380 . S
O555 Eu515 2.612 . S
O555 C571 1.276 . S
O556 Eu504 2.432 . S
O556 C578 1.264 . S
O557 Eu515 2.339 . S
O557 C578 1.254 . S
O558 Eu515 2.563 . S
O558 C571 1.235 . S
O559 Eu515 2.419 . S
O559 C579 1.249 . S
C560 O549 1.276 . S
C560 O552 1.235 . S
C561 C563 1.393 . S
C561 C565 1.395 . S
C561 C568 1.492 . S
C562 C563 1.392 . S
C562 C564 1.386 . S
C563 C561 1.393 . S
C563 C562 1.392 . S
C563 H580 0.930 . S
C564 C562 1.386 . S
C564 C566 1.395 . S
C564 H581 0.930 . S
C565 C561 1.395 . S
C565 C566 1.379 . S
C565 H582 0.930 . S
C566 C564 1.395 . S
C566 C565 1.379 . S
C566 H583 0.930 . S
C567 O550 1.264 . S
C567 O551 1.254 . S
C568 Eu504 2.848 . S
C568 O548 1.257 . S
C568 O553 1.249 . S
C568 C561 1.492 . S
C569 H534 0.931 . S
C569 C547 1.420 . S
C569 C570 1.351 . S
C570 H532 0.930 . S
C570 C538 1.423 . S
C570 C569 1.351 . S
C571 O555 1.276 . S
C571 O558 1.235 . S
C572 C573 1.393 . S
C572 C576 1.395 . S
C572 C579 1.492 . S
C573 C572 1.393 . S
C573 C574 1.392 . S
C573 H584 0.930 . S
C574 C573 1.392 . S
C574 C575 1.386 . S
C575 C574 1.386 . S
C575 C577 1.395 . S
C575 H585 0.930 . S
C576 C572 1.395 . S
C576 C577 1.379 . S
C576 H586 0.930 . S
C577 C575 1.395 . S
C577 C576 1.379 . S
C577 H587 0.930 . S
C578 O556 1.264 . S
C578 O557 1.254 . S
C579 Eu515 2.848 . S
C579 O554 1.257 . S
C579 O559 1.249 . S
C579 C572 1.492 . S
H580 C563 0.930 . S
H581 C564 0.930 . S
H582 C565 0.930 . S
H583 C566 0.930 . S
H584 C573 0.930 . S
H585 C575 0.930 . S
H586 C576 0.930 . S
H587 C577 0.930 . S
Eu588 N619 2.657 . S
Eu588 N626 2.609 . S
Eu588 O632 2.558 . S
Eu588 O633 2.612 . S
Eu588 O635 2.339 . S
Eu588 O636 2.563 . S
Eu588 O637 2.419 . S
Eu588 O639 2.380 . S
Eu588 O640 2.432 . S
Eu588 C652 2.848 . S
C589 C592 1.429 . S
C589 C593 1.411 . S
C589 N596 1.377 . S
C590 C592 1.420 . S
C590 C594 1.423 . S
C590 C602 1.392 . S
C591 C593 1.420 . S
C591 C594 1.351 . S
C591 H614 0.931 . S
C592 C589 1.429 . S
C592 C590 1.420 . S
C592 N600 1.362 . S
C593 C589 1.411 . S
C593 C591 1.420 . S
C593 C598 1.395 . S
C594 C590 1.423 . S
C594 C591 1.351 . S
C594 H606 0.930 . S
C595 C597 1.400 . S
C595 C598 1.386 . S
C595 H607 0.930 . S
N596 C589 1.377 . S
N596 C597 1.321 . S
N596 Eu599 2.609 . S
C597 C595 1.400 . S
C597 N596 1.321 . S
C597 H604 0.930 . S
C598 C593 1.395 . S
C598 C595 1.386 . S
C598 H617 0.930 . S
Eu599 N596 2.609 . S
Eu599 N600 2.657 . S
Eu599 O633 2.380 . S
Eu599 O634 2.432 . S
Eu599 O638 2.558 . S
Eu599 O639 2.612 . S
Eu599 O641 2.339 . S
Eu599 O642 2.563 . S
Eu599 O643 2.419 . S
Eu599 C663 2.848 . S
N600 C592 1.362 . S
N600 Eu599 2.657 . S
N600 C601 1.334 . S
C601 N600 1.334 . S
C601 C603 1.413 . S
C601 H608 0.929 . S
C602 C590 1.392 . S
C602 C603 1.367 . S
C602 H610 0.930 . S
C603 C601 1.413 . S
C603 C602 1.367 . S
C603 H605 0.930 . S
H604 C597 0.930 . S
H605 C603 0.930 . S
H606 C594 0.930 . S
H607 C595 0.930 . S
H608 C601 0.929 . S
H609 C623 0.930 . S
H610 C602 0.930 . S
H611 C629 0.930 . S
H612 C620 0.929 . S
H613 C627 0.930 . S
H614 C591 0.931 . S
H615 C621 0.930 . S
H616 C654 0.930 . S
H617 C598 0.930 . S
H618 C653 0.931 . S
N619 Eu588 2.657 . S
N619 C620 1.334 . S
N619 C624 1.362 . S
C620 H612 0.929 . S
C620 N619 1.334 . S
C620 C623 1.413 . S
C621 H615 0.930 . S
C621 C622 1.392 . S
C621 C623 1.367 . S
C622 C621 1.392 . S
C622 C624 1.420 . S
C622 C654 1.423 . S
C623 H609 0.930 . S
C623 C620 1.413 . S
C623 C621 1.367 . S
C624 N619 1.362 . S
C624 C622 1.420 . S
C624 C628 1.429 . S
H625 C630 0.930 . S
N626 Eu588 2.609 . S
N626 C628 1.377 . S
N626 C629 1.321 . S
C627 H613 0.930 . S
C627 C629 1.400 . S
C627 C630 1.386 . S
C628 C624 1.429 . S
C628 N626 1.377 . S
C628 C631 1.411 . S
C629 H611 0.930 . S
C629 N626 1.321 . S
C629 C627 1.400 . S
C630 H625 0.930 . S
C630 C627 1.386 . S
C630 C631 1.395 . S
C631 C628 1.411 . S
C631 C630 1.395 . S
C631 C653 1.420 . S
O632 Eu588 2.558 . S
O632 C652 1.257 . S
O633 Eu588 2.612 . S
O633 Eu599 2.380 . S
O633 C644 1.276 . S
O634 Eu599 2.432 . S
O634 C651 1.264 . S
O635 Eu588 2.339 . S
O635 C651 1.254 . S
O636 Eu588 2.563 . S
O636 C644 1.235 . S
O637 Eu588 2.419 . S
O637 C652 1.249 . S
O638 Eu599 2.558 . S
O638 C663 1.257 . S
O639 Eu588 2.380 . S
O639 Eu599 2.612 . S
O639 C655 1.276 . S
O640 Eu588 2.432 . S
O640 C662 1.264 . S
O641 Eu599 2.339 . S
O641 C662 1.254 . S
O642 Eu599 2.563 . S
O642 C655 1.235 . S
O643 Eu599 2.419 . S
O643 C663 1.249 . S
C644 O633 1.276 . S
C644 O636 1.235 . S
C645 C647 1.393 . S
C645 C649 1.395 . S
C645 C652 1.492 . S
C646 C647 1.392 . S
C646 C648 1.386 . S
C647 C645 1.393 . S
C647 C646 1.392 . S
C647 H664 0.930 . S
C648 C646 1.386 . S
C648 C650 1.395 . S
C648 H665 0.930 . S
C649 C645 1.395 . S
C649 C650 1.379 . S
C649 H666 0.930 . S
C650 C648 1.395 . S
C650 C649 1.379 . S
C650 H667 0.930 . S
C651 O634 1.264 . S
C651 O635 1.254 . S
C652 Eu588 2.848 . S
C652 O632 1.257 . S
C652 O637 1.249 . S
C652 C645 1.492 . S
C653 H618 0.931 . S
C653 C631 1.420 . S
C653 C654 1.351 . S
C654 H616 0.930 . S
C654 C622 1.423 . S
C654 C653 1.351 . S
C655 O639 1.276 . S
C655 O642 1.235 . S
C656 C657 1.393 . S
C656 C660 1.395 . S
C656 C663 1.492 . S
C657 C656 1.393 . S
C657 C658 1.392 1_655 S
C657 H668 0.930 . S
C658 C657 1.392 1_455 S
C658 C659 1.386 . S
C659 C658 1.386 . S
C659 C661 1.395 . S
C659 H669 0.930 . S
C660 C656 1.395 . S
C660 C661 1.379 1_655 S
C660 H670 0.930 . S
C661 C659 1.395 . S
C661 C660 1.379 1_455 S
C661 H671 0.930 . S
C662 O640 1.264 . S
C662 O641 1.254 . S
C663 Eu599 2.848 . S
C663 O638 1.257 . S
C663 O643 1.249 . S
C663 C656 1.492 . S
H664 C647 0.930 . S
H665 C648 0.930 . S
H666 C649 0.930 . S
H667 C650 0.930 . S
H668 C657 0.930 . S
H669 C659 0.930 . S
H670 C660 0.930 . S
H671 C661 0.930 . S
Eu672 N703 2.657 . S
Eu672 N710 2.609 . S
Eu672 O716 2.558 . S
Eu672 O717 2.612 . S
Eu672 O719 2.339 . S
Eu672 O720 2.563 . S
Eu672 O721 2.419 . S
Eu672 O723 2.380 . S
Eu672 O724 2.432 . S
Eu672 C736 2.848 . S
C673 C676 1.429 . S
C673 C677 1.411 . S
C673 N680 1.377 . S
C674 C676 1.420 . S
C674 C678 1.423 . S
C674 C686 1.392 . S
C675 C677 1.420 . S
C675 C678 1.351 . S
C675 H698 0.931 . S
C676 C673 1.429 . S
C676 C674 1.420 . S
C676 N684 1.362 . S
C677 C673 1.411 . S
C677 C675 1.420 . S
C677 C682 1.395 . S
C678 C674 1.423 . S
C678 C675 1.351 . S
C678 H690 0.930 . S
C679 C681 1.400 . S
C679 C682 1.386 . S
C679 H691 0.930 . S
N680 C673 1.377 . S
N680 C681 1.321 . S
N680 Eu683 2.609 . S
C681 C679 1.400 . S
C681 N680 1.321 . S
C681 H688 0.930 . S
C682 C677 1.395 . S
C682 C679 1.386 . S
C682 H701 0.930 . S
Eu683 N680 2.609 . S
Eu683 N684 2.657 . S
Eu683 O717 2.380 . S
Eu683 O718 2.432 . S
Eu683 O722 2.558 . S
Eu683 O723 2.612 . S
Eu683 O725 2.339 . S
Eu683 O726 2.563 . S
Eu683 O727 2.419 . S
Eu683 C747 2.848 . S
N684 C676 1.362 . S
N684 Eu683 2.657 . S
N684 C685 1.334 . S
C685 N684 1.334 . S
C685 C687 1.413 . S
C685 H692 0.929 . S
C686 C674 1.392 . S
C686 C687 1.367 . S
C686 H694 0.930 . S
C687 C685 1.413 . S
C687 C686 1.367 . S
C687 H689 0.930 . S
H688 C681 0.930 . S
H689 C687 0.930 . S
H690 C678 0.930 . S
H691 C679 0.930 . S
H692 C685 0.929 . S
H693 C707 0.930 . S
H694 C686 0.930 . S
H695 C713 0.930 . S
H696 C704 0.929 . S
H697 C711 0.930 . S
H698 C675 0.931 . S
H699 C705 0.930 . S
H700 C738 0.930 . S
H701 C682 0.930 . S
H702 C737 0.931 . S
N703 Eu672 2.657 . S
N703 C704 1.334 . S
N703 C708 1.362 . S
C704 H696 0.929 . S
C704 N703 1.334 . S
C704 C707 1.413 . S
C705 H699 0.930 . S
C705 C706 1.392 . S
C705 C707 1.367 . S
C706 C705 1.392 . S
C706 C708 1.420 . S
C706 C738 1.423 . S
C707 H693 0.930 . S
C707 C704 1.413 . S
C707 C705 1.367 . S
C708 N703 1.362 . S
C708 C706 1.420 . S
C708 C712 1.429 . S
H709 C714 0.930 . S
N710 Eu672 2.609 . S
N710 C712 1.377 . S
N710 C713 1.321 . S
C711 H697 0.930 . S
C711 C713 1.400 . S
C711 C714 1.386 . S
C712 C708 1.429 . S
C712 N710 1.377 . S
C712 C715 1.411 . S
C713 H695 0.930 . S
C713 N710 1.321 . S
C713 C711 1.400 . S
C714 H709 0.930 . S
C714 C711 1.386 . S
C714 C715 1.395 . S
C715 C712 1.411 . S
C715 C714 1.395 . S
C715 C737 1.420 . S
O716 Eu672 2.558 . S
O716 C736 1.257 . S
O717 Eu672 2.612 . S
O717 Eu683 2.380 . S
O717 C728 1.276 . S
O718 Eu683 2.432 . S
O718 C735 1.264 . S
O719 Eu672 2.339 . S
O719 C735 1.254 . S
O720 Eu672 2.563 . S
O720 C728 1.235 . S
O721 Eu672 2.419 . S
O721 C736 1.249 . S
O722 Eu683 2.558 . S
O722 C747 1.257 . S
O723 Eu672 2.380 . S
O723 Eu683 2.612 . S
O723 C739 1.276 . S
O724 Eu672 2.432 . S
O724 C746 1.264 . S
O725 Eu683 2.339 . S
O725 C746 1.254 . S
O726 Eu683 2.563 . S
O726 C739 1.235 . S
O727 Eu683 2.419 . S
O727 C747 1.249 . S
C728 O717 1.276 . S
C728 O720 1.235 . S
C729 C731 1.393 . S
C729 C733 1.395 . S
C729 C736 1.492 . S
C730 C731 1.392 . S
C730 C732 1.386 . S
C731 C729 1.393 . S
C731 C730 1.392 . S
C731 H748 0.930 . S
C732 C730 1.386 . S
C732 C734 1.395 . S
C732 H749 0.930 . S
C733 C729 1.395 . S
C733 C734 1.379 . S
C733 H750 0.930 . S
C734 C732 1.395 . S
C734 C733 1.379 . S
C734 H751 0.930 . S
C735 O718 1.264 . S
C735 O719 1.254 . S
C736 Eu672 2.848 . S
C736 O716 1.257 . S
C736 O721 1.249 . S
C736 C729 1.492 . S
C737 H702 0.931 . S
C737 C715 1.420 . S
C737 C738 1.351 . S
C738 H700 0.930 . S
C738 C706 1.423 . S
C738 C737 1.351 . S
C739 O723 1.276 . S
C739 O726 1.235 . S
C740 C741 1.393 . S
C740 C744 1.395 . S
C740 C747 1.492 . S
C741 C740 1.393 . S
C741 C742 1.392 1_565 S
C741 H752 0.930 . S
C742 C741 1.392 1_545 S
C742 C743 1.386 . S
C743 C742 1.386 . S
C743 C745 1.395 . S
C743 H753 0.930 . S
C744 C740 1.395 . S
C744 C745 1.379 1_565 S
C744 H754 0.930 . S
C745 C743 1.395 . S
C745 C744 1.379 1_545 S
C745 H755 0.930 . S
C746 O724 1.264 . S
C746 O725 1.254 . S
C747 Eu683 2.848 . S
C747 O722 1.257 . S
C747 O727 1.249 . S
C747 C740 1.492 . S
H748 C731 0.930 . S
H749 C732 0.930 . S
H750 C733 0.930 . S
H751 C734 0.930 . S
H752 C741 0.930 . S
H753 C743 0.930 . S
H754 C744 0.930 . S
H755 C745 0.930 . S
Eu756 N787 2.657 . S
Eu756 N794 2.609 . S
Eu756 O800 2.558 . S
Eu756 O801 2.612 . S
Eu756 O803 2.339 . S
Eu756 O804 2.563 . S
Eu756 O805 2.419 . S
Eu756 O807 2.380 . S
Eu756 O808 2.432 . S
Eu756 C820 2.848 . S
C757 C760 1.429 . S
C757 C761 1.411 . S
C757 N764 1.377 . S
C758 C760 1.420 . S
C758 C762 1.423 . S
C758 C770 1.392 . S
C759 C761 1.420 . S
C759 C762 1.351 . S
C759 H782 0.931 . S
C760 C757 1.429 . S
C760 C758 1.420 . S
C760 N768 1.362 . S
C761 C757 1.411 . S
C761 C759 1.420 . S
C761 C766 1.395 . S
C762 C758 1.423 . S
C762 C759 1.351 . S
C762 H774 0.930 . S
C763 C765 1.400 . S
C763 C766 1.386 . S
C763 H775 0.930 . S
N764 C757 1.377 . S
N764 C765 1.321 . S
N764 Eu767 2.609 . S
C765 C763 1.400 . S
C765 N764 1.321 . S
C765 H772 0.930 . S
C766 C761 1.395 . S
C766 C763 1.386 . S
C766 H785 0.930 . S
Eu767 N764 2.609 . S
Eu767 N768 2.657 . S
Eu767 O801 2.380 . S
Eu767 O802 2.432 . S
Eu767 O806 2.558 . S
Eu767 O807 2.612 . S
Eu767 O809 2.339 . S
Eu767 O810 2.563 . S
Eu767 O811 2.419 . S
Eu767 C831 2.848 . S
N768 C760 1.362 . S
N768 Eu767 2.657 . S
N768 C769 1.334 . S
C769 N768 1.334 . S
C769 C771 1.413 . S
C769 H776 0.929 . S
C770 C758 1.392 . S
C770 C771 1.367 . S
C770 H778 0.930 . S
C771 C769 1.413 . S
C771 C770 1.367 . S
C771 H773 0.930 . S
H772 C765 0.930 . S
H773 C771 0.930 . S
H774 C762 0.930 . S
H775 C763 0.930 . S
H776 C769 0.929 . S
H777 C791 0.930 . S
H778 C770 0.930 . S
H779 C797 0.930 . S
H780 C788 0.929 . S
H781 C795 0.930 . S
H782 C759 0.931 . S
H783 C789 0.930 . S
H784 C822 0.930 . S
H785 C766 0.930 . S
H786 C821 0.931 . S
N787 Eu756 2.657 . S
N787 C788 1.334 . S
N787 C792 1.362 . S
C788 H780 0.929 . S
C788 N787 1.334 . S
C788 C791 1.413 . S
C789 H783 0.930 . S
C789 C790 1.392 . S
C789 C791 1.367 . S
C790 C789 1.392 . S
C790 C792 1.420 . S
C790 C822 1.423 . S
C791 H777 0.930 . S
C791 C788 1.413 . S
C791 C789 1.367 . S
C792 N787 1.362 . S
C792 C790 1.420 . S
C792 C796 1.429 . S
H793 C798 0.930 . S
N794 Eu756 2.609 . S
N794 C796 1.377 . S
N794 C797 1.321 . S
C795 H781 0.930 . S
C795 C797 1.400 . S
C795 C798 1.386 . S
C796 C792 1.429 . S
C796 N794 1.377 . S
C796 C799 1.411 . S
C797 H779 0.930 . S
C797 N794 1.321 . S
C797 C795 1.400 . S
C798 H793 0.930 . S
C798 C795 1.386 . S
C798 C799 1.395 . S
C799 C796 1.411 . S
C799 C798 1.395 . S
C799 C821 1.420 . S
O800 Eu756 2.558 . S
O800 C820 1.257 . S
O801 Eu756 2.612 . S
O801 Eu767 2.380 . S
O801 C812 1.276 . S
O802 Eu767 2.432 . S
O802 C819 1.264 . S
O803 Eu756 2.339 . S
O803 C819 1.254 . S
O804 Eu756 2.563 . S
O804 C812 1.235 . S
O805 Eu756 2.419 . S
O805 C820 1.249 . S
O806 Eu767 2.558 . S
O806 C831 1.257 . S
O807 Eu756 2.380 . S
O807 Eu767 2.612 . S
O807 C823 1.276 . S
O808 Eu756 2.432 . S
O808 C830 1.264 . S
O809 Eu767 2.339 . S
O809 C830 1.254 . S
O810 Eu767 2.563 . S
O810 C823 1.235 . S
O811 Eu767 2.419 . S
O811 C831 1.249 . S
C812 O801 1.276 . S
C812 O804 1.235 . S
C813 C815 1.393 . S
C813 C817 1.395 . S
C813 C820 1.492 . S
C814 C815 1.392 . S
C814 C816 1.386 . S
C815 C813 1.393 . S
C815 C814 1.392 . S
C815 H832 0.930 . S
C816 C814 1.386 . S
C816 C818 1.395 . S
C816 H833 0.930 . S
C817 C813 1.395 . S
C817 C818 1.379 . S
C817 H834 0.930 . S
C818 C816 1.395 . S
C818 C817 1.379 . S
C818 H835 0.930 . S
C819 O802 1.264 . S
C819 O803 1.254 . S
C820 Eu756 2.848 . S
C820 O800 1.257 . S
C820 O805 1.249 . S
C820 C813 1.492 . S
C821 H786 0.931 . S
C821 C799 1.420 . S
C821 C822 1.351 . S
C822 H784 0.930 . S
C822 C790 1.423 . S
C822 C821 1.351 . S
C823 O807 1.276 . S
C823 O810 1.235 . S
C824 C825 1.393 . S
C824 C828 1.395 . S
C824 C831 1.492 . S
C825 C824 1.393 . S
C825 C826 1.392 . S
C825 H836 0.930 . S
C826 C825 1.392 . S
C826 C827 1.386 . S
C827 C826 1.386 . S
C827 C829 1.395 . S
C827 H837 0.930 . S
C828 C824 1.395 . S
C828 C829 1.379 . S
C828 H838 0.930 . S
C829 C827 1.395 . S
C829 C828 1.379 . S
C829 H839 0.930 . S
C830 O808 1.264 . S
C830 O809 1.254 . S
C831 Eu767 2.848 . S
C831 O806 1.257 . S
C831 O811 1.249 . S
C831 C824 1.492 . S
H832 C815 0.930 . S
H833 C816 0.930 . S
H834 C817 0.930 . S
H835 C818 0.930 . S
H836 C825 0.930 . S
H837 C827 0.930 . S
H838 C828 0.930 . S
H839 C829 0.930 . S
Eu840 N871 2.657 . S
Eu840 N878 2.609 . S
Eu840 O884 2.558 . S
Eu840 O885 2.612 . S
Eu840 O887 2.339 . S
Eu840 O888 2.563 . S
Eu840 O889 2.419 . S
Eu840 O891 2.380 . S
Eu840 O892 2.432 . S
Eu840 C904 2.848 . S
C841 C844 1.429 . S
C841 C845 1.411 . S
C841 N848 1.377 . S
C842 C844 1.420 . S
C842 C846 1.423 . S
C842 C854 1.392 . S
C843 C845 1.420 . S
C843 C846 1.351 . S
C843 H866 0.931 . S
C844 C841 1.429 . S
C844 C842 1.420 . S
C844 N852 1.362 . S
C845 C841 1.411 . S
C845 C843 1.420 . S
C845 C850 1.395 . S
C846 C842 1.423 . S
C846 C843 1.351 . S
C846 H858 0.930 . S
C847 C849 1.400 . S
C847 C850 1.386 . S
C847 H859 0.930 . S
N848 C841 1.377 . S
N848 C849 1.321 . S
N848 Eu851 2.609 . S
C849 C847 1.400 . S
C849 N848 1.321 . S
C849 H856 0.930 . S
C850 C845 1.395 . S
C850 C847 1.386 . S
C850 H869 0.930 . S
Eu851 N848 2.609 . S
Eu851 N852 2.657 . S
Eu851 O885 2.380 . S
Eu851 O886 2.432 . S
Eu851 O890 2.558 . S
Eu851 O891 2.612 . S
Eu851 O893 2.339 . S
Eu851 O894 2.563 . S
Eu851 O895 2.419 . S
Eu851 C915 2.848 . S
N852 C844 1.362 . S
N852 Eu851 2.657 . S
N852 C853 1.334 . S
C853 N852 1.334 . S
C853 C855 1.413 . S
C853 H860 0.929 . S
C854 C842 1.392 . S
C854 C855 1.367 . S
C854 H862 0.930 . S
C855 C853 1.413 . S
C855 C854 1.367 . S
C855 H857 0.930 . S
H856 C849 0.930 . S
H857 C855 0.930 . S
H858 C846 0.930 . S
H859 C847 0.930 . S
H860 C853 0.929 . S
H861 C875 0.930 . S
H862 C854 0.930 . S
H863 C881 0.930 . S
H864 C872 0.929 . S
H865 C879 0.930 . S
H866 C843 0.931 . S
H867 C873 0.930 . S
H868 C906 0.930 . S
H869 C850 0.930 . S
H870 C905 0.931 . S
N871 Eu840 2.657 . S
N871 C872 1.334 . S
N871 C876 1.362 . S
C872 H864 0.929 . S
C872 N871 1.334 . S
C872 C875 1.413 . S
C873 H867 0.930 . S
C873 C874 1.392 . S
C873 C875 1.367 . S
C874 C873 1.392 . S
C874 C876 1.420 . S
C874 C906 1.423 . S
C875 H861 0.930 . S
C875 C872 1.413 . S
C875 C873 1.367 . S
C876 N871 1.362 . S
C876 C874 1.420 . S
C876 C880 1.429 . S
H877 C882 0.930 . S
N878 Eu840 2.609 . S
N878 C880 1.377 . S
N878 C881 1.321 . S
C879 H865 0.930 . S
C879 C881 1.400 . S
C879 C882 1.386 . S
C880 C876 1.429 . S
C880 N878 1.377 . S
C880 C883 1.411 . S
C881 H863 0.930 . S
C881 N878 1.321 . S
C881 C879 1.400 . S
C882 H877 0.930 . S
C882 C879 1.386 . S
C882 C883 1.395 . S
C883 C880 1.411 . S
C883 C882 1.395 . S
C883 C905 1.420 . S
O884 Eu840 2.558 . S
O884 C904 1.257 . S
O885 Eu840 2.612 . S
O885 Eu851 2.380 . S
O885 C896 1.276 . S
O886 Eu851 2.432 . S
O886 C903 1.264 . S
O887 Eu840 2.339 . S
O887 C903 1.254 . S
O888 Eu840 2.563 . S
O888 C896 1.235 . S
O889 Eu840 2.419 . S
O889 C904 1.249 . S
O890 Eu851 2.558 . S
O890 C915 1.257 . S
O891 Eu840 2.380 . S
O891 Eu851 2.612 . S
O891 C907 1.276 . S
O892 Eu840 2.432 . S
O892 C914 1.264 . S
O893 Eu851 2.339 . S
O893 C914 1.254 . S
O894 Eu851 2.563 . S
O894 C907 1.235 . S
O895 Eu851 2.419 . S
O895 C915 1.249 . S
C896 O885 1.276 . S
C896 O888 1.235 . S
C897 C899 1.393 . S
C897 C901 1.395 . S
C897 C904 1.492 . S
C898 C899 1.392 . S
C898 C900 1.386 . S
C899 C897 1.393 . S
C899 C898 1.392 . S
C899 H916 0.930 . S
C900 C898 1.386 . S
C900 C902 1.395 . S
C900 H917 0.930 . S
C901 C897 1.395 . S
C901 C902 1.379 . S
C901 H918 0.930 . S
C902 C900 1.395 . S
C902 C901 1.379 . S
C902 H919 0.930 . S
C903 O886 1.264 . S
C903 O887 1.254 . S
C904 Eu840 2.848 . S
C904 O884 1.257 . S
C904 O889 1.249 . S
C904 C897 1.492 . S
C905 H870 0.931 . S
C905 C883 1.420 . S
C905 C906 1.351 . S
C906 H868 0.930 . S
C906 C874 1.423 . S
C906 C905 1.351 . S
C907 O891 1.276 . S
C907 O894 1.235 . S
C908 C909 1.393 . S
C908 C912 1.395 . S
C908 C915 1.492 . S
C909 C908 1.393 . S
C909 C910 1.392 1_455 S
C909 H920 0.930 . S
C910 C909 1.392 1_655 S
C910 C911 1.386 . S
C911 C910 1.386 . S
C911 C913 1.395 . S
C911 H921 0.930 . S
C912 C908 1.395 . S
C912 C913 1.379 1_455 S
C912 H922 0.930 . S
C913 C911 1.395 . S
C913 C912 1.379 1_655 S
C913 H923 0.930 . S
C914 O892 1.264 . S
C914 O893 1.254 . S
C915 Eu851 2.848 . S
C915 O890 1.257 . S
C915 O895 1.249 . S
C915 C908 1.492 . S
H916 C899 0.930 . S
H917 C900 0.930 . S
H918 C901 0.930 . S
H919 C902 0.930 . S
H920 C909 0.930 . S
H921 C911 0.930 . S
H922 C912 0.930 . S
H923 C913 0.930 . S
Eu924 N955 2.657 . S
Eu924 N962 2.609 . S
Eu924 O968 2.558 . S
Eu924 O969 2.612 . S
Eu924 O971 2.339 . S
Eu924 O972 2.563 . S
Eu924 O973 2.419 . S
Eu924 O975 2.380 . S
Eu924 O976 2.432 . S
Eu924 C988 2.848 . S
C925 C928 1.429 . S
C925 C929 1.411 . S
C925 N932 1.377 . S
C926 C928 1.420 . S
C926 C930 1.423 . S
C926 C938 1.392 . S
C927 C929 1.420 . S
C927 C930 1.351 . S
C927 H950 0.931 . S
C928 C925 1.429 . S
C928 C926 1.420 . S
C928 N936 1.362 . S
C929 C925 1.411 . S
C929 C927 1.420 . S
C929 C934 1.395 . S
C930 C926 1.423 . S
C930 C927 1.351 . S
C930 H942 0.930 . S
C931 C933 1.400 . S
C931 C934 1.386 . S
C931 H943 0.930 . S
N932 C925 1.377 . S
N932 C933 1.321 . S
N932 Eu935 2.609 . S
C933 C931 1.400 . S
C933 N932 1.321 . S
C933 H940 0.930 . S
C934 C929 1.395 . S
C934 C931 1.386 . S
C934 H953 0.930 . S
Eu935 N932 2.609 . S
Eu935 N936 2.657 . S
Eu935 O969 2.380 . S
Eu935 O970 2.432 . S
Eu935 O974 2.558 . S
Eu935 O975 2.612 . S
Eu935 O977 2.339 . S
Eu935 O978 2.563 . S
Eu935 O979 2.419 . S
Eu935 C999 2.848 . S
N936 C928 1.362 . S
N936 Eu935 2.657 . S
N936 C937 1.334 . S
C937 N936 1.334 . S
C937 C939 1.413 . S
C937 H944 0.929 . S
C938 C926 1.392 . S
C938 C939 1.367 . S
C938 H946 0.930 . S
C939 C937 1.413 . S
C939 C938 1.367 . S
C939 H941 0.930 . S
H940 C933 0.930 . S
H941 C939 0.930 . S
H942 C930 0.930 . S
H943 C931 0.930 . S
H944 C937 0.929 . S
H945 C959 0.930 . S
H946 C938 0.930 . S
H947 C965 0.930 . S
H948 C956 0.929 . S
H949 C963 0.930 . S
H950 C927 0.931 . S
H951 C957 0.930 . S
H952 C990 0.930 . S
H953 C934 0.930 . S
H954 C989 0.931 . S
N955 Eu924 2.657 . S
N955 C956 1.334 . S
N955 C960 1.362 . S
C956 H948 0.929 . S
C956 N955 1.334 . S
C956 C959 1.413 . S
C957 H951 0.930 . S
C957 C958 1.392 . S
C957 C959 1.367 . S
C958 C957 1.392 . S
C958 C960 1.420 . S
C958 C990 1.423 . S
C959 H945 0.930 . S
C959 C956 1.413 . S
C959 C957 1.367 . S
C960 N955 1.362 . S
C960 C958 1.420 . S
C960 C964 1.429 . S
H961 C966 0.930 . S
N962 Eu924 2.609 . S
N962 C964 1.377 . S
N962 C965 1.321 . S
C963 H949 0.930 . S
C963 C965 1.400 . S
C963 C966 1.386 . S
C964 C960 1.429 . S
C964 N962 1.377 . S
C964 C967 1.411 . S
C965 H947 0.930 . S
C965 N962 1.321 . S
C965 C963 1.400 . S
C966 H961 0.930 . S
C966 C963 1.386 . S
C966 C967 1.395 . S
C967 C964 1.411 . S
C967 C966 1.395 . S
C967 C989 1.420 . S
O968 Eu924 2.558 . S
O968 C988 1.257 . S
O969 Eu924 2.612 . S
O969 Eu935 2.380 . S
O969 C980 1.276 . S
O970 Eu935 2.432 . S
O970 C987 1.264 . S
O971 Eu924 2.339 . S
O971 C987 1.254 . S
O972 Eu924 2.563 . S
O972 C980 1.235 . S
O973 Eu924 2.419 . S
O973 C988 1.249 . S
O974 Eu935 2.558 . S
O974 C999 1.257 . S
O975 Eu924 2.380 . S
O975 Eu935 2.612 . S
O975 C991 1.276 . S
O976 Eu924 2.432 . S
O976 C998 1.264 . S
O977 Eu935 2.339 . S
O977 C998 1.254 . S
O978 Eu935 2.563 . S
O978 C991 1.235 . S
O979 Eu935 2.419 . S
O979 C999 1.249 . S
C980 O969 1.276 . S
C980 O972 1.235 . S
C981 C983 1.393 . S
C981 C985 1.395 . S
C981 C988 1.492 . S
C982 C983 1.392 . S
C982 C984 1.386 . S
C983 C981 1.393 . S
C983 C982 1.392 . S
C983 H1000 0.930 . S
C984 C982 1.386 . S
C984 C986 1.395 . S
C984 H1001 0.930 . S
C985 C981 1.395 . S
C985 C986 1.379 . S
C985 H1002 0.930 . S
C986 C984 1.395 . S
C986 C985 1.379 . S
C986 H1003 0.930 . S
C987 O970 1.264 . S
C987 O971 1.254 . S
C988 Eu924 2.848 . S
C988 O968 1.257 . S
C988 O973 1.249 . S
C988 C981 1.492 . S
C989 H954 0.931 . S
C989 C967 1.420 . S
C989 C990 1.351 . S
C990 H952 0.930 . S
C990 C958 1.423 . S
C990 C989 1.351 . S
C991 O975 1.276 . S
C991 O978 1.235 . S
C992 C993 1.393 . S
C992 C996 1.395 . S
C992 C999 1.492 . S
C993 C992 1.393 . S
C993 C994 1.392 1_545 S
C993 H1004 0.930 . S
C994 C993 1.392 1_565 S
C994 C995 1.386 . S
C995 C994 1.386 . S
C995 C997 1.395 . S
C995 H1005 0.930 . S
C996 C992 1.395 . S
C996 C997 1.379 1_545 S
C996 H1006 0.930 . S
C997 C995 1.395 . S
C997 C996 1.379 1_565 S
C997 H1007 0.930 . S
C998 O976 1.264 . S
C998 O977 1.254 . S
C999 Eu935 2.848 . S
C999 O974 1.257 . S
C999 O979 1.249 . S
C999 C992 1.492 . S
H1000 C983 0.930 . S
H1001 C984 0.930 . S
H1002 C985 0.930 . S
H1003 C986 0.930 . S
H1004 C993 0.930 . S
H1005 C995 0.930 . S
H1006 C996 0.930 . S
H1007 C997 0.930 . S
C1008 C1009 1.349 . S
C1008 C1010 1.327 . S
C1008 H1033 0.950 . S
C1009 C1008 1.349 . S
C1009 C1025 1.349 . S
C1010 C1008 1.327 . S
C1010 C1029 1.429 . S
C1010 H1034 0.950 . S
C1011 C1028 1.574 1_565 S
C1011 C1030 1.368 . S
C1011 H1035 0.949 . S
H1012 C1016 0.949 . S
C1013 C1014 1.349 . S
C1013 C1015 1.327 . S
C1013 H1036 0.950 . S
C1014 C1013 1.349 . S
C1014 C1026 1.349 . S
C1015 C1013 1.327 . S
C1015 C1031 1.429 . S
C1015 H1037 0.950 . S
C1016 H1012 0.949 . S
C1016 C1024 1.574 . S
C1016 C1032 1.368 . S
H1017 C1025 0.950 . S
H1018 C1023 0.950 . S
H1019 C1024 0.949 . S
H1020 C1026 0.950 . S
H1021 C1027 0.950 . S
H1022 C1028 0.949 . S
C1023 H1018 0.950 . S
C1023 C1025 1.327 . S
C1023 C1029 1.429 . S
C1024 C1016 1.574 . S
C1024 H1019 0.949 . S
C1024 C1030 1.368 1_545 S
C1025 C1009 1.349 . S
C1025 H1017 0.950 . S
C1025 C1023 1.327 . S
C1026 C1014 1.349 . S
C1026 H1020 0.950 . S
C1026 C1027 1.327 . S
C1027 H1021 0.950 . S
C1027 C1026 1.327 . S
C1027 C1031 1.429 . S
C1028 C1011 1.574 1_545 S
C1028 H1022 0.949 . S
C1028 C1032 1.368 . S
C1029 C1010 1.429 . S
C1029 C1023 1.429 . S
C1029 C1030 1.523 . S
C1030 C1011 1.368 . S
C1030 C1024 1.368 1_565 S
C1030 C1029 1.523 . S
C1031 C1015 1.429 . S
C1031 C1027 1.429 . S
C1031 C1032 1.523 . S
C1032 C1016 1.368 . S
C1032 C1028 1.368 . S
C1032 C1031 1.523 . S
H1033 C1008 0.950 . S
H1034 C1010 0.950 . S
H1035 C1011 0.949 . S
H1036 C1013 0.950 . S
H1037 C1015 0.950 . S
C1038 C1039 1.349 . S
C1038 C1040 1.327 . S
C1038 H1063 0.950 . S
C1039 C1038 1.349 . S
C1039 C1055 1.349 . S
C1040 C1038 1.327 . S
C1040 C1059 1.429 . S
C1040 H1064 0.950 . S
C1041 C1058 1.574 . S
C1041 C1060 1.368 . S
C1041 H1065 0.949 . S
H1042 C1046 0.949 . S
C1043 C1044 1.349 . S
C1043 C1045 1.327 . S
C1043 H1066 0.950 . S
C1044 C1043 1.349 . S
C1044 C1056 1.349 . S
C1045 C1043 1.327 . S
C1045 C1061 1.429 . S
C1045 H1067 0.950 . S
C1046 H1042 0.949 . S
C1046 C1054 1.574 . S
C1046 C1062 1.368 . S
H1047 C1055 0.950 . S
H1048 C1053 0.950 . S
H1049 C1054 0.949 . S
H1050 C1056 0.950 . S
H1051 C1057 0.950 . S
H1052 C1058 0.949 . S
C1053 H1048 0.950 . S
C1053 C1055 1.327 . S
C1053 C1059 1.429 . S
C1054 C1046 1.574 . S
C1054 H1049 0.949 . S
C1054 C1060 1.368 . S
C1055 C1039 1.349 . S
C1055 H1047 0.950 . S
C1055 C1053 1.327 . S
C1056 C1044 1.349 . S
C1056 H1050 0.950 . S
C1056 C1057 1.327 . S
C1057 H1051 0.950 . S
C1057 C1056 1.327 . S
C1057 C1061 1.429 . S
C1058 C1041 1.574 . S
C1058 H1052 0.949 . S
C1058 C1062 1.368 . S
C1059 C1040 1.429 . S
C1059 C1053 1.429 . S
C1059 C1060 1.523 . S
C1060 C1041 1.368 . S
C1060 C1054 1.368 . S
C1060 C1059 1.523 . S
C1061 C1045 1.429 . S
C1061 C1057 1.429 . S
C1061 C1062 1.523 . S
C1062 C1046 1.368 . S
C1062 C1058 1.368 . S
C1062 C1061 1.523 . S
H1063 C1038 0.950 . S
H1064 C1040 0.950 . S
H1065 C1041 0.949 . S
H1066 C1043 0.950 . S
H1067 C1045 0.950 . S
C1068 C1069 1.349 . S
C1068 C1070 1.327 . S
C1068 H1093 0.950 . S
C1069 C1068 1.349 . S
C1069 C1085 1.349 . S
C1070 C1068 1.327 . S
C1070 C1089 1.429 . S
C1070 H1094 0.950 . S
C1071 C1088 1.574 1_655 S
C1071 C1090 1.368 . S
C1071 H1095 0.949 . S
H1072 C1076 0.949 . S
C1073 C1074 1.349 . S
C1073 C1075 1.327 . S
C1073 H1096 0.950 . S
C1074 C1073 1.349 . S
C1074 C1086 1.349 . S
C1075 C1073 1.327 . S
C1075 C1091 1.429 . S
C1075 H1097 0.950 . S
C1076 H1072 0.949 . S
C1076 C1084 1.574 . S
C1076 C1092 1.368 1_655 S
H1077 C1085 0.950 . S
H1078 C1083 0.950 . S
H1079 C1084 0.949 . S
H1080 C1086 0.950 . S
H1081 C1087 0.950 . S
H1082 C1088 0.949 . S
C1083 H1078 0.950 . S
C1083 C1085 1.327 . S
C1083 C1089 1.429 . S
C1084 C1076 1.574 . S
C1084 H1079 0.949 . S
C1084 C1090 1.368 . S
C1085 C1069 1.349 . S
C1085 H1077 0.950 . S
C1085 C1083 1.327 . S
C1086 C1074 1.349 . S
C1086 H1080 0.950 . S
C1086 C1087 1.327 . S
C1087 H1081 0.950 . S
C1087 C1086 1.327 . S
C1087 C1091 1.429 . S
C1088 C1071 1.574 1_455 S
C1088 H1082 0.949 . S
C1088 C1092 1.368 . S
C1089 C1070 1.429 . S
C1089 C1083 1.429 . S
C1089 C1090 1.523 . S
C1090 C1071 1.368 . S
C1090 C1084 1.368 . S
C1090 C1089 1.523 . S
C1091 C1075 1.429 . S
C1091 C1087 1.429 . S
C1091 C1092 1.523 . S
C1092 C1076 1.368 1_455 S
C1092 C1088 1.368 . S
C1092 C1091 1.523 . S
H1093 C1068 0.950 . S
H1094 C1070 0.950 . S
H1095 C1071 0.949 . S
H1096 C1073 0.950 . S
H1097 C1075 0.950 . S
C1098 C1099 1.349 . S
C1098 C1100 1.327 . S
C1098 H1123 0.950 . S
C1099 C1098 1.349 . S
C1099 C1115 1.349 . S
C1100 C1098 1.327 . S
C1100 C1119 1.429 . S
C1100 H1124 0.950 . S
C1101 C1118 1.574 1_565 S
C1101 C1120 1.368 . S
C1101 H1125 0.949 . S
H1102 C1106 0.949 . S
C1103 C1104 1.349 . S
C1103 C1105 1.327 . S
C1103 H1126 0.950 . S
C1104 C1103 1.349 . S
C1104 C1116 1.349 . S
C1105 C1103 1.327 . S
C1105 C1121 1.429 . S
C1105 H1127 0.950 . S
C1106 H1102 0.949 . S
C1106 C1114 1.574 . S
C1106 C1122 1.368 1_565 S
H1107 C1115 0.950 . S
H1108 C1113 0.950 . S
H1109 C1114 0.949 . S
H1110 C1116 0.950 . S
H1111 C1117 0.950 . S
H1112 C1118 0.949 . S
C1113 H1108 0.950 . S
C1113 C1115 1.327 . S
C1113 C1119 1.429 . S
C1114 C1106 1.574 . S
C1114 H1109 0.949 . S
C1114 C1120 1.368 . S
C1115 C1099 1.349 . S
C1115 H1107 0.950 . S
C1115 C1113 1.327 . S
C1116 C1104 1.349 . S
C1116 H1110 0.950 . S
C1116 C1117 1.327 . S
C1117 H1111 0.950 . S
C1117 C1116 1.327 . S
C1117 C1121 1.429 . S
C1118 C1101 1.574 1_545 S
C1118 H1112 0.949 . S
C1118 C1122 1.368 . S
C1119 C1100 1.429 . S
C1119 C1113 1.429 . S
C1119 C1120 1.523 . S
C1120 C1101 1.368 . S
C1120 C1114 1.368 . S
C1120 C1119 1.523 . S
C1121 C1105 1.429 . S
C1121 C1117 1.429 . S
C1121 C1122 1.523 . S
C1122 C1106 1.368 1_545 S
C1122 C1118 1.368 . S
C1122 C1121 1.523 . S
H1123 C1098 0.950 . S
H1124 C1100 0.950 . S
H1125 C1101 0.949 . S
H1126 C1103 0.950 . S
H1127 C1105 0.950 . S
C1128 C1129 1.349 . S
C1128 C1130 1.327 . S
C1128 H1153 0.950 . S
C1129 C1128 1.349 . S
C1129 C1145 1.349 . S
C1130 C1128 1.327 . S
C1130 C1149 1.429 . S
C1130 H1154 0.950 . S
C1131 C1148 1.574 . S
C1131 C1150 1.368 . S
C1131 H1155 0.949 . S
H1132 C1136 0.949 . S
C1133 C1134 1.349 . S
C1133 C1135 1.327 . S
C1133 H1156 0.950 . S
C1134 C1133 1.349 . S
C1134 C1146 1.349 . S
C1135 C1133 1.327 . S
C1135 C1151 1.429 . S
C1135 H1157 0.950 . S
C1136 H1132 0.949 . S
C1136 C1144 1.574 . S
C1136 C1152 1.368 . S
H1137 C1145 0.950 . S
H1138 C1143 0.950 . S
H1139 C1144 0.949 . S
H1140 C1146 0.950 . S
H1141 C1147 0.950 . S
H1142 C1148 0.949 . S
C1143 H1138 0.950 . S
C1143 C1145 1.327 . S
C1143 C1149 1.429 . S
C1144 C1136 1.574 . S
C1144 H1139 0.949 . S
C1144 C1150 1.368 . S
C1145 C1129 1.349 . S
C1145 H1137 0.950 . S
C1145 C1143 1.327 . S
C1146 C1134 1.349 . S
C1146 H1140 0.950 . S
C1146 C1147 1.327 . S
C1147 H1141 0.950 . S
C1147 C1146 1.327 . S
C1147 C1151 1.429 . S
C1148 C1131 1.574 . S
C1148 H1142 0.949 . S
C1148 C1152 1.368 . S
C1149 C1130 1.429 . S
C1149 C1143 1.429 . S
C1149 C1150 1.523 . S
C1150 C1131 1.368 . S
C1150 C1144 1.368 . S
C1150 C1149 1.523 . S
C1151 C1135 1.429 . S
C1151 C1147 1.429 . S
C1151 C1152 1.523 . S
C1152 C1136 1.368 . S
C1152 C1148 1.368 . S
C1152 C1151 1.523 . S
H1153 C1128 0.950 . S
H1154 C1130 0.950 . S
H1155 C1131 0.949 . S
H1156 C1133 0.950 . S
H1157 C1135 0.950 . S
C1158 C1159 1.349 . S
C1158 C1160 1.327 . S
C1158 H1183 0.950 . S
C1159 C1158 1.349 . S
C1159 C1175 1.349 . S
C1160 C1158 1.327 . S
C1160 C1179 1.429 . S
C1160 H1184 0.950 . S
C1161 C1178 1.574 1_655 S
C1161 C1180 1.368 . S
C1161 H1185 0.949 . S
H1162 C1166 0.949 . S
C1163 C1164 1.349 . S
C1163 C1165 1.327 . S
C1163 H1186 0.950 . S
C1164 C1163 1.349 . S
C1164 C1176 1.349 . S
C1165 C1163 1.327 . S
C1165 C1181 1.429 . S
C1165 H1187 0.950 . S
C1166 H1162 0.949 . S
C1166 C1174 1.574 . S
C1166 C1182 1.368 . S
H1167 C1175 0.950 . S
H1168 C1173 0.950 . S
H1169 C1174 0.949 . S
H1170 C1176 0.950 . S
H1171 C1177 0.950 . S
H1172 C1178 0.949 . S
C1173 H1168 0.950 . S
C1173 C1175 1.327 . S
C1173 C1179 1.429 . S
C1174 C1166 1.574 . S
C1174 H1169 0.949 . S
C1174 C1180 1.368 1_455 S
C1175 C1159 1.349 . S
C1175 H1167 0.950 . S
C1175 C1173 1.327 . S
C1176 C1164 1.349 . S
C1176 H1170 0.950 . S
C1176 C1177 1.327 . S
C1177 H1171 0.950 . S
C1177 C1176 1.327 . S
C1177 C1181 1.429 . S
C1178 C1161 1.574 1_455 S
C1178 H1172 0.949 . S
C1178 C1182 1.368 . S
C1179 C1160 1.429 . S
C1179 C1173 1.429 . S
C1179 C1180 1.523 . S
C1180 C1161 1.368 . S
C1180 C1174 1.368 1_655 S
C1180 C1179 1.523 . S
C1181 C1165 1.429 . S
C1181 C1177 1.429 . S
C1181 C1182 1.523 . S
C1182 C1166 1.368 . S
C1182 C1178 1.368 . S
C1182 C1181 1.523 . S
H1183 C1158 0.950 . S
H1184 C1160 0.950 . S
H1185 C1161 0.949 . S
H1186 C1163 0.950 . S
H1187 C1165 0.950 . S
C1188 C1189 1.349 . S
C1188 C1190 1.327 . S
C1188 H1213 0.950 . S
C1189 C1188 1.349 . S
C1189 C1205 1.349 . S
C1190 C1188 1.327 . S
C1190 C1209 1.429 . S
C1190 H1214 0.950 . S
C1191 C1208 1.571 1_455 S
C1191 C1210 1.369 . S
C1191 H1215 0.950 . S
H1192 C1196 0.949 . S
C1193 C1194 1.349 . S
C1193 C1195 1.327 . S
C1193 H1216 0.950 . S
C1194 C1193 1.349 . S
C1194 C1206 1.349 . S
C1195 C1193 1.327 . S
C1195 C1211 1.429 . S
C1195 H1217 0.950 . S
C1196 H1192 0.949 . S
C1196 C1204 1.574 . S
C1196 C1212 1.368 . S
H1197 C1205 0.950 . S
H1198 C1203 0.950 . S
H1199 C1204 0.926 1_455 S
H1200 C1206 0.950 . S
H1201 C1207 0.950 . S
H1202 C1208 0.949 . S
C1203 H1198 0.950 . S
C1203 C1205 1.327 . S
C1203 C1209 1.429 . S
C1204 C1196 1.574 . S
C1204 H1199 0.926 1_655 S
C1204 C1210 1.368 1_655 S
C1205 C1189 1.349 . S
C1205 H1197 0.950 . S
C1205 C1203 1.327 . S
C1206 C1194 1.349 . S
C1206 H1200 0.950 . S
C1206 C1207 1.327 . S
C1207 H1201 0.950 . S
C1207 C1206 1.327 . S
C1207 C1211 1.429 . S
C1208 C1191 1.571 1_655 S
C1208 H1202 0.949 . S
C1208 C1212 1.368 . S
C1209 C1190 1.429 . S
C1209 C1203 1.429 . S
C1209 C1210 1.523 . S
C1210 C1191 1.369 . S
C1210 C1204 1.368 1_455 S
C1210 C1209 1.523 . S
C1211 C1195 1.429 . S
C1211 C1207 1.429 . S
C1211 C1212 1.523 . S
C1212 C1196 1.368 . S
C1212 C1208 1.368 . S
C1212 C1211 1.523 . S
H1213 C1188 0.950 . S
H1214 C1190 0.950 . S
H1215 C1191 0.950 . S
H1216 C1193 0.950 . S
H1217 C1195 0.950 . S
C1218 C1219 1.349 . S
C1218 C1220 1.327 . S
C1218 H1243 0.950 . S
C1219 C1218 1.349 . S
C1219 C1235 1.349 . S
C1220 C1218 1.327 . S
C1220 C1239 1.429 . S
C1220 H1244 0.950 . S
C1221 C1238 1.574 1_565 S
C1221 C1240 1.368 . S
C1221 H1245 0.949 . S
H1222 C1226 0.949 . S
C1223 C1224 1.349 . S
C1223 C1225 1.327 . S
C1223 H1246 0.950 . S
C1224 C1223 1.349 . S
C1224 C1236 1.349 . S
C1225 C1223 1.327 . S
C1225 C1241 1.429 . S
C1225 H1247 0.950 . S
C1226 H1222 0.949 . S
C1226 C1234 1.574 . S
C1226 C1242 1.368 1_565 S
H1227 C1235 0.950 . S
H1228 C1233 0.950 . S
H1229 C1234 0.949 . S
H1230 C1236 0.950 . S
H1231 C1237 0.950 . S
H1232 C1238 0.949 . S
C1233 H1228 0.950 . S
C1233 C1235 1.327 . S
C1233 C1239 1.429 . S
C1234 C1226 1.574 . S
C1234 H1229 0.949 . S
C1234 C1240 1.368 . S
C1235 C1219 1.349 . S
C1235 H1227 0.950 . S
C1235 C1233 1.327 . S
C1236 C1224 1.349 . S
C1236 H1230 0.950 . S
C1236 C1237 1.327 . S
C1237 H1231 0.950 . S
C1237 C1236 1.327 . S
C1237 C1241 1.429 . S
C1238 C1221 1.574 1_545 S
C1238 H1232 0.949 . S
C1238 C1242 1.368 . S
C1239 C1220 1.429 . S
C1239 C1233 1.429 . S
C1239 C1240 1.523 . S
C1240 C1221 1.368 . S
C1240 C1234 1.368 . S
C1240 C1239 1.523 . S
C1241 C1225 1.429 . S
C1241 C1237 1.429 . S
C1241 C1242 1.523 . S
C1242 C1226 1.368 1_545 S
C1242 C1238 1.368 . S
C1242 C1241 1.523 . S
H1243 C1218 0.950 . S
H1244 C1220 0.950 . S
H1245 C1221 0.949 . S
H1246 C1223 0.950 . S
H1247 C1225 0.950 . S
C1248 C1249 1.349 . S
C1248 C1250 1.327 . S
C1248 H1273 0.950 . S
C1249 C1248 1.349 . S
C1249 C1265 1.349 . S
C1250 C1248 1.327 . S
C1250 C1269 1.429 . S
C1250 H1274 0.950 . S
C1251 C1268 1.574 . S
C1251 C1270 1.368 . S
C1251 H1275 0.949 . S
H1252 C1256 0.949 . S
C1253 C1254 1.349 . S
C1253 C1255 1.327 . S
C1253 H1276 0.950 . S
C1254 C1253 1.349 . S
C1254 C1266 1.349 . S
C1255 C1253 1.327 . S
C1255 C1271 1.429 . S
C1255 H1277 0.950 . S
C1256 H1252 0.949 . S
C1256 C1264 1.574 . S
C1256 C1272 1.368 . S
H1257 C1265 0.950 . S
H1258 C1263 0.950 . S
H1259 C1264 0.949 . S
H1260 C1266 0.950 . S
H1261 C1267 0.950 . S
H1262 C1268 0.949 . S
C1263 H1258 0.950 . S
C1263 C1265 1.327 . S
C1263 C1269 1.429 . S
C1264 C1256 1.574 . S
C1264 H1259 0.949 . S
C1264 C1270 1.368 . S
C1265 C1249 1.349 . S
C1265 H1257 0.950 . S
C1265 C1263 1.327 . S
C1266 C1254 1.349 . S
C1266 H1260 0.950 . S
C1266 C1267 1.327 . S
C1267 H1261 0.950 . S
C1267 C1266 1.327 . S
C1267 C1271 1.429 . S
C1268 C1251 1.574 . S
C1268 H1262 0.949 . S
C1268 C1272 1.368 . S
C1269 C1250 1.429 . S
C1269 C1263 1.429 . S
C1269 C1270 1.523 . S
C1270 C1251 1.368 . S
C1270 C1264 1.368 . S
C1270 C1269 1.523 . S
C1271 C1255 1.429 . S
C1271 C1267 1.429 . S
C1271 C1272 1.523 . S
C1272 C1256 1.368 . S
C1272 C1268 1.368 . S
C1272 C1271 1.523 . S
H1273 C1248 0.950 . S
H1274 C1250 0.950 . S
H1275 C1251 0.949 . S
H1276 C1253 0.950 . S
H1277 C1255 0.950 . S
C1278 C1279 1.349 . S
C1278 C1280 1.327 . S
C1278 H1303 0.950 . S
C1279 C1278 1.349 . S
C1279 C1295 1.349 . S
C1280 C1278 1.327 . S
C1280 C1299 1.429 . S
C1280 H1304 0.950 . S
C1281 C1298 1.574 1_455 S
C1281 C1300 1.368 . S
C1281 H1305 0.949 . S
H1282 C1286 0.949 . S
C1283 C1284 1.349 . S
C1283 C1285 1.327 . S
C1283 H1306 0.950 . S
C1284 C1283 1.349 . S
C1284 C1296 1.349 . S
C1285 C1283 1.327 . S
C1285 C1301 1.429 . S
C1285 H1307 0.950 . S
C1286 H1282 0.949 . S
C1286 C1294 1.574 . S
C1286 C1302 1.368 1_455 S
H1287 C1295 0.950 . S
H1288 C1293 0.950 . S
H1289 C1294 0.949 . S
H1290 C1296 0.950 . S
H1291 C1297 0.950 . S
H1292 C1298 0.949 . S
C1293 H1288 0.950 . S
C1293 C1295 1.327 . S
C1293 C1299 1.429 . S
C1294 C1286 1.574 . S
C1294 H1289 0.949 . S
C1294 C1300 1.368 . S
C1295 C1279 1.349 . S
C1295 H1287 0.950 . S
C1295 C1293 1.327 . S
C1296 C1284 1.349 . S
C1296 H1290 0.950 . S
C1296 C1297 1.327 . S
C1297 H1291 0.950 . S
C1297 C1296 1.327 . S
C1297 C1301 1.429 . S
C1298 C1281 1.574 1_655 S
C1298 H1292 0.949 . S
C1298 C1302 1.368 . S
C1299 C1280 1.429 . S
C1299 C1293 1.429 . S
C1299 C1300 1.523 . S
C1300 C1281 1.368 . S
C1300 C1294 1.368 . S
C1300 C1299 1.523 . S
C1301 C1285 1.429 . S
C1301 C1297 1.429 . S
C1301 C1302 1.523 . S
C1302 C1286 1.368 1_655 S
C1302 C1298 1.368 . S
C1302 C1301 1.523 . S
H1303 C1278 0.950 . S
H1304 C1280 0.950 . S
H1305 C1281 0.949 . S
H1306 C1283 0.950 . S
H1307 C1285 0.950 . S
C1308 C1309 1.349 . S
C1308 C1310 1.327 . S
C1308 H1333 0.950 . S
C1309 C1308 1.349 . S
C1309 C1325 1.349 . S
C1310 C1308 1.327 . S
C1310 C1329 1.429 . S
C1310 H1334 0.950 . S
C1311 C1328 1.574 . S
C1311 C1330 1.368 . S
C1311 H1335 0.949 . S
H1312 C1316 0.949 . S
C1313 C1314 1.349 . S
C1313 C1315 1.327 . S
C1313 H1336 0.950 . S
C1314 C1313 1.349 . S
C1314 C1326 1.349 . S
C1315 C1313 1.327 . S
C1315 C1331 1.429 . S
C1315 H1337 0.950 . S
C1316 H1312 0.949 . S
C1316 C1324 1.574 1_565 S
C1316 C1332 1.368 . S
H1317 C1325 0.950 . S
H1318 C1323 0.950 . S
H1319 C1324 0.949 . S
H1320 C1326 0.950 . S
H1321 C1327 0.950 . S
H1322 C1328 0.949 . S
C1323 H1318 0.950 . S
C1323 C1325 1.327 . S
C1323 C1329 1.429 . S
C1324 C1316 1.574 1_545 S
C1324 H1319 0.949 . S
C1324 C1330 1.368 . S
C1325 C1309 1.349 . S
C1325 H1317 0.950 . S
C1325 C1323 1.327 . S
C1326 C1314 1.349 . S
C1326 H1320 0.950 . S
C1326 C1327 1.327 . S
C1327 H1321 0.950 . S
C1327 C1326 1.327 . S
C1327 C1331 1.429 . S
C1328 C1311 1.574 . S
C1328 H1322 0.949 . S
C1328 C1332 1.368 1_545 S
C1329 C1310 1.429 . S
C1329 C1323 1.429 . S
C1329 C1330 1.523 . S
C1330 C1311 1.368 . S
C1330 C1324 1.368 . S
C1330 C1329 1.523 . S
C1331 C1315 1.429 . S
C1331 C1327 1.429 . S
C1331 C1332 1.523 . S
C1332 C1316 1.368 . S
C1332 C1328 1.368 1_565 S
C1332 C1331 1.523 . S
H1333 C1308 0.950 . S
H1334 C1310 0.950 . S
H1335 C1311 0.949 . S
H1336 C1313 0.950 . S
H1337 C1315 0.950 . S
C1338 C1339 1.349 . S
C1338 C1340 1.327 . S
C1338 H1363 0.950 . S
C1339 C1338 1.349 . S
C1339 C1355 1.349 . S
C1340 C1338 1.327 . S
C1340 C1359 1.429 . S
C1340 H1364 0.950 . S
C1341 C1358 1.574 . S
C1341 C1360 1.368 . S
C1341 H1365 0.949 . S
H1342 C1346 0.949 . S
C1343 C1344 1.349 . S
C1343 C1345 1.327 . S
C1343 H1366 0.950 . S
C1344 C1343 1.349 . S
C1344 C1356 1.349 . S
C1345 C1343 1.327 . S
C1345 C1361 1.429 . S
C1345 H1367 0.950 . S
C1346 H1342 0.949 . S
C1346 C1354 1.574 . S
C1346 C1362 1.368 . S
H1347 C1355 0.950 . S
H1348 C1353 0.950 . S
H1349 C1354 0.949 . S
H1350 C1356 0.950 . S
H1351 C1357 0.950 . S
H1352 C1358 0.949 . S
C1353 H1348 0.950 . S
C1353 C1355 1.327 . S
C1353 C1359 1.429 . S
C1354 C1346 1.574 . S
C1354 H1349 0.949 . S
C1354 C1360 1.368 . S
C1355 C1339 1.349 . S
C1355 H1347 0.950 . S
C1355 C1353 1.327 . S
C1356 C1344 1.349 . S
C1356 H1350 0.950 . S
C1356 C1357 1.327 . S
C1357 H1351 0.950 . S
C1357 C1356 1.327 . S
C1357 C1361 1.429 . S
C1358 C1341 1.574 . S
C1358 H1352 0.949 . S
C1358 C1362 1.368 . S
C1359 C1340 1.429 . S
C1359 C1353 1.429 . S
C1359 C1360 1.523 . S
C1360 C1341 1.368 . S
C1360 C1354 1.368 . S
C1360 C1359 1.523 . S
C1361 C1345 1.429 . S
C1361 C1357 1.429 . S
C1361 C1362 1.523 . S
C1362 C1346 1.368 . S
C1362 C1358 1.368 . S
C1362 C1361 1.523 . S
H1363 C1338 0.950 . S
H1364 C1340 0.950 . S
H1365 C1341 0.949 . S
H1366 C1343 0.950 . S
H1367 C1345 0.950 . S
C1368 C1369 1.349 . S
C1368 C1370 1.327 . S
C1368 H1393 0.950 . S
C1369 C1368 1.349 . S
C1369 C1385 1.349 . S
C1370 C1368 1.327 . S
C1370 C1389 1.429 . S
C1370 H1394 0.950 . S
C1371 C1388 1.574 . S
C1371 C1390 1.368 . S
C1371 H1395 0.949 . S
H1372 C1376 0.949 . S
C1373 C1374 1.349 . S
C1373 C1375 1.327 . S
C1373 H1396 0.950 . S
C1374 C1373 1.349 . S
C1374 C1386 1.349 . S
C1375 C1373 1.327 . S
C1375 C1391 1.429 . S
C1375 H1397 0.950 . S
C1376 H1372 0.949 . S
C1376 C1384 1.574 . S
C1376 C1392 1.368 . S
H1377 C1385 0.950 . S
H1378 C1383 0.950 . S
H1379 C1384 0.949 . S
H1380 C1386 0.950 . S
H1381 C1387 0.950 . S
H1382 C1388 0.949 . S
C1383 H1378 0.950 . S
C1383 C1385 1.327 . S
C1383 C1389 1.429 . S
C1384 C1376 1.574 . S
C1384 H1379 0.949 . S
C1384 C1390 1.368 . S
C1385 C1369 1.349 . S
C1385 H1377 0.950 . S
C1385 C1383 1.327 . S
C1386 C1374 1.349 . S
C1386 H1380 0.950 . S
C1386 C1387 1.327 . S
C1387 H1381 0.950 . S
C1387 C1386 1.327 . S
C1387 C1391 1.429 . S
C1388 C1371 1.574 . S
C1388 H1382 0.949 . S
C1388 C1392 1.368 . S
C1389 C1370 1.429 . S
C1389 C1383 1.429 . S
C1389 C1390 1.523 . S
C1390 C1371 1.368 . S
C1390 C1384 1.368 . S
C1390 C1389 1.523 . S
C1391 C1375 1.429 . S
C1391 C1387 1.429 . S
C1391 C1392 1.523 . S
C1392 C1376 1.368 . S
C1392 C1388 1.368 . S
C1392 C1391 1.523 . S
H1393 C1368 0.950 . S
H1394 C1370 0.950 . S
H1395 C1371 0.949 . S
H1396 C1373 0.950 . S
H1397 C1375 0.950 . S
C1398 C1399 1.349 . S
C1398 C1400 1.327 . S
C1398 H1423 0.950 . S
C1399 C1398 1.349 . S
C1399 C1415 1.349 . S
C1400 C1398 1.327 . S
C1400 C1419 1.429 . S
C1400 H1424 0.950 . S
C1401 C1418 1.574 . S
C1401 C1420 1.368 . S
C1401 H1425 0.949 . S
H1402 C1406 0.949 . S
C1403 C1404 1.349 . S
C1403 C1405 1.327 . S
C1403 H1426 0.950 . S
C1404 C1403 1.349 . S
C1404 C1416 1.349 . S
C1405 C1403 1.327 . S
C1405 C1421 1.429 . S
C1405 H1427 0.950 . S
C1406 H1402 0.949 . S
C1406 C1414 1.574 . S
C1406 C1422 1.368 . S
H1407 C1415 0.950 . S
H1408 C1413 0.950 . S
H1409 C1414 0.949 . S
H1410 C1416 0.950 . S
H1411 C1417 0.950 . S
H1412 C1418 0.949 . S
C1413 H1408 0.950 . S
C1413 C1415 1.327 . S
C1413 C1419 1.429 . S
C1414 C1406 1.574 . S
C1414 H1409 0.949 . S
C1414 C1420 1.368 . S
C1415 C1399 1.349 . S
C1415 H1407 0.950 . S
C1415 C1413 1.327 . S
C1416 C1404 1.349 . S
C1416 H1410 0.950 . S
C1416 C1417 1.327 . S
C1417 H1411 0.950 . S
C1417 C1416 1.327 . S
C1417 C1421 1.429 . S
C1418 C1401 1.574 . S
C1418 H1412 0.949 . S
C1418 C1422 1.368 . S
C1419 C1400 1.429 . S
C1419 C1413 1.429 . S
C1419 C1420 1.523 . S
C1420 C1401 1.368 . S
C1420 C1414 1.368 . S
C1420 C1419 1.523 . S
C1421 C1405 1.429 . S
C1421 C1417 1.429 . S
C1421 C1422 1.523 . S
C1422 C1406 1.368 . S
C1422 C1418 1.368 . S
C1422 C1421 1.523 . S
H1423 C1398 0.950 . S
H1424 C1400 0.950 . S
H1425 C1401 0.949 . S
H1426 C1403 0.950 . S
H1427 C1405 0.950 . S
C1428 C1429 1.349 . S
C1428 C1430 1.327 . S
C1428 H1453 0.950 . S
C1429 C1428 1.349 . S
C1429 C1445 1.349 . S
C1430 C1428 1.327 . S
C1430 C1449 1.429 . S
C1430 H1454 0.950 . S
C1431 C1448 1.574 . S
C1431 C1450 1.368 . S
C1431 H1455 0.949 . S
H1432 C1436 0.949 . S
C1433 C1434 1.349 . S
C1433 C1435 1.327 . S
C1433 H1456 0.950 . S
C1434 C1433 1.349 . S
C1434 C1446 1.349 . S
C1435 C1433 1.327 . S
C1435 C1451 1.429 . S
C1435 H1457 0.950 . S
C1436 H1432 0.949 . S
C1436 C1444 1.574 . S
C1436 C1452 1.368 . S
H1437 C1445 0.950 . S
H1438 C1443 0.950 . S
H1439 C1444 0.949 . S
H1440 C1446 0.950 . S
H1441 C1447 0.950 . S
H1442 C1448 0.949 . S
C1443 H1438 0.950 . S
C1443 C1445 1.327 . S
C1443 C1449 1.429 . S
C1444 C1436 1.574 . S
C1444 H1439 0.949 . S
C1444 C1450 1.368 . S
C1445 C1429 1.349 . S
C1445 H1437 0.950 . S
C1445 C1443 1.327 . S
C1446 C1434 1.349 . S
C1446 H1440 0.950 . S
C1446 C1447 1.327 . S
C1447 H1441 0.950 . S
C1447 C1446 1.327 . S
C1447 C1451 1.429 . S
C1448 C1431 1.574 . S
C1448 H1442 0.949 . S
C1448 C1452 1.368 . S
C1449 C1430 1.429 . S
C1449 C1443 1.429 . S
C1449 C1450 1.523 . S
C1450 C1431 1.368 . S
C1450 C1444 1.368 . S
C1450 C1449 1.523 . S
C1451 C1435 1.429 . S
C1451 C1447 1.429 . S
C1451 C1452 1.523 . S
C1452 C1436 1.368 . S
C1452 C1448 1.368 . S
C1452 C1451 1.523 . S
H1453 C1428 0.950 . S
H1454 C1430 0.950 . S
H1455 C1431 0.949 . S
H1456 C1433 0.950 . S
H1457 C1435 0.950 . S
C1458 C1459 1.349 . S
C1458 C1460 1.327 . S
C1458 H1483 0.950 . S
C1459 C1458 1.349 . S
C1459 C1475 1.349 . S
C1460 C1458 1.327 . S
C1460 C1479 1.429 . S
C1460 H1484 0.950 . S
C1461 C1478 1.574 . S
C1461 C1480 1.368 . S
C1461 H1485 0.949 . S
H1462 C1466 0.949 . S
C1463 C1464 1.349 . S
C1463 C1465 1.327 . S
C1463 H1486 0.950 . S
C1464 C1463 1.349 . S
C1464 C1476 1.349 . S
C1465 C1463 1.327 . S
C1465 C1481 1.429 . S
C1465 H1487 0.950 . S
C1466 H1462 0.949 . S
C1466 C1474 1.574 . S
C1466 C1482 1.368 . S
H1467 C1475 0.950 . S
H1468 C1473 0.950 . S
H1469 C1474 0.949 . S
H1470 C1476 0.950 . S
H1471 C1477 0.950 . S
H1472 C1478 0.949 . S
C1473 H1468 0.950 . S
C1473 C1475 1.327 . S
C1473 C1479 1.429 . S
C1474 C1466 1.574 . S
C1474 H1469 0.949 . S
C1474 C1480 1.368 . S
C1475 C1459 1.349 . S
C1475 H1467 0.950 . S
C1475 C1473 1.327 . S
C1476 C1464 1.349 . S
C1476 H1470 0.950 . S
C1476 C1477 1.327 . S
C1477 H1471 0.950 . S
C1477 C1476 1.327 . S
C1477 C1481 1.429 . S
C1478 C1461 1.574 . S
C1478 H1472 0.949 . S
C1478 C1482 1.368 . S
C1479 C1460 1.429 . S
C1479 C1473 1.429 . S
C1479 C1480 1.523 . S
C1480 C1461 1.368 . S
C1480 C1474 1.368 . S
C1480 C1479 1.523 . S
C1481 C1465 1.429 . S
C1481 C1477 1.429 . S
C1481 C1482 1.523 . S
C1482 C1466 1.368 . S
C1482 C1478 1.368 . S
C1482 C1481 1.523 . S
H1483 C1458 0.950 . S
H1484 C1460 0.950 . S
H1485 C1461 0.949 . S
H1486 C1463 0.950 . S
H1487 C1465 0.950 . S
C1488 C1489 1.349 . S
C1488 C1490 1.327 . S
C1488 H1513 0.950 . S
C1489 C1488 1.349 . S
C1489 C1505 1.349 . S
C1490 C1488 1.327 . S
C1490 C1509 1.429 . S
C1490 H1514 0.950 . S
C1491 C1508 1.574 . S
C1491 C1510 1.368 . S
C1491 H1515 0.949 . S
H1492 C1496 0.949 . S
C1493 C1494 1.349 . S
C1493 C1495 1.327 . S
C1493 H1516 0.950 . S
C1494 C1493 1.349 . S
C1494 C1506 1.349 . S
C1495 C1493 1.327 . S
C1495 C1511 1.429 . S
C1495 H1517 0.950 . S
C1496 H1492 0.949 . S
C1496 C1504 1.574 . S
C1496 C1512 1.368 . S
H1497 C1505 0.950 . S
H1498 C1503 0.950 . S
H1499 C1504 0.949 . S
H1500 C1506 0.950 . S
H1501 C1507 0.950 . S
H1502 C1508 0.949 . S
C1503 H1498 0.950 . S
C1503 C1505 1.327 . S
C1503 C1509 1.429 . S
C1504 C1496 1.574 . S
C1504 H1499 0.949 . S
C1504 C1510 1.368 . S
C1505 C1489 1.349 . S
C1505 H1497 0.950 . S
C1505 C1503 1.327 . S
C1506 C1494 1.349 . S
C1506 H1500 0.950 . S
C1506 C1507 1.327 . S
C1507 H1501 0.950 . S
C1507 C1506 1.327 . S
C1507 C1511 1.429 . S
C1508 C1491 1.574 . S
C1508 H1502 0.949 . S
C1508 C1512 1.368 . S
C1509 C1490 1.429 . S
C1509 C1503 1.429 . S
C1509 C1510 1.523 . S
C1510 C1491 1.368 . S
C1510 C1504 1.368 . S
C1510 C1509 1.523 . S
C1511 C1495 1.429 . S
C1511 C1507 1.429 . S
C1511 C1512 1.523 . S
C1512 C1496 1.368 . S
C1512 C1508 1.368 . S
C1512 C1511 1.523 . S
H1513 C1488 0.950 . S
H1514 C1490 0.950 . S
H1515 C1491 0.949 . S
H1516 C1493 0.950 . S
H1517 C1495 0.950 . S
C1518 C1519 1.349 . S
C1518 C1520 1.327 . S
C1518 H1543 0.950 . S
C1519 C1518 1.349 . S
C1519 C1535 1.349 . S
C1520 C1518 1.327 . S
C1520 C1539 1.429 . S
C1520 H1544 0.950 . S
C1521 C1538 1.574 . S
C1521 C1540 1.368 . S
C1521 H1545 0.949 . S
H1522 C1526 0.949 . S
C1523 C1524 1.349 . S
C1523 C1525 1.327 . S
C1523 H1546 0.950 . S
C1524 C1523 1.349 . S
C1524 C1536 1.349 . S
C1525 C1523 1.327 . S
C1525 C1541 1.429 . S
C1525 H1547 0.950 . S
C1526 H1522 0.949 . S
C1526 C1534 1.574 . S
C1526 C1542 1.368 . S
H1527 C1535 0.950 . S
H1528 C1533 0.950 . S
H1529 C1534 0.949 . S
H1530 C1536 0.950 . S
H1531 C1537 0.950 . S
H1532 C1538 0.949 . S
C1533 H1528 0.950 . S
C1533 C1535 1.327 . S
C1533 C1539 1.429 . S
C1534 C1526 1.574 . S
C1534 H1529 0.949 . S
C1534 C1540 1.368 . S
C1535 C1519 1.349 . S
C1535 H1527 0.950 . S
C1535 C1533 1.327 . S
C1536 C1524 1.349 . S
C1536 H1530 0.950 . S
C1536 C1537 1.327 . S
C1537 H1531 0.950 . S
C1537 C1536 1.327 . S
C1537 C1541 1.429 . S
C1538 C1521 1.574 . S
C1538 H1532 0.949 . S
C1538 C1542 1.368 . S
C1539 C1520 1.429 . S
C1539 C1533 1.429 . S
C1539 C1540 1.523 . S
C1540 C1521 1.368 . S
C1540 C1534 1.368 . S
C1540 C1539 1.523 . S
C1541 C1525 1.429 . S
C1541 C1537 1.429 . S
C1541 C1542 1.523 . S
C1542 C1526 1.368 . S
C1542 C1538 1.368 . S
C1542 C1541 1.523 . S
H1543 C1518 0.950 . S
H1544 C1520 0.950 . S
H1545 C1521 0.949 . S
H1546 C1523 0.950 . S
H1547 C1525 0.950 . S
C1548 C1549 1.349 . S
C1548 C1550 1.327 . S
C1548 H1573 0.950 . S
C1549 C1548 1.349 . S
C1549 C1565 1.349 . S
C1550 C1548 1.327 . S
C1550 C1569 1.429 . S
C1550 H1574 0.950 . S
C1551 C1568 1.574 . S
C1551 C1570 1.368 . S
C1551 H1575 0.949 . S
H1552 C1556 0.949 . S
C1553 C1554 1.349 . S
C1553 C1555 1.327 . S
C1553 H1576 0.950 . S
C1554 C1553 1.349 . S
C1554 C1566 1.349 . S
C1555 C1553 1.327 . S
C1555 C1571 1.429 . S
C1555 H1577 0.950 . S
C1556 H1552 0.949 . S
C1556 C1564 1.574 . S
C1556 C1572 1.368 . S
H1557 C1565 0.950 . S
H1558 C1563 0.950 . S
H1559 C1564 0.949 . S
H1560 C1566 0.950 . S
H1561 C1567 0.950 . S
H1562 C1568 0.949 . S
C1563 H1558 0.950 . S
C1563 C1565 1.327 . S
C1563 C1569 1.429 . S
C1564 C1556 1.574 . S
C1564 H1559 0.949 . S
C1564 C1570 1.368 . S
C1565 C1549 1.349 . S
C1565 H1557 0.950 . S
C1565 C1563 1.327 . S
C1566 C1554 1.349 . S
C1566 H1560 0.950 . S
C1566 C1567 1.327 . S
C1567 H1561 0.950 . S
C1567 C1566 1.327 . S
C1567 C1571 1.429 . S
C1568 C1551 1.574 . S
C1568 H1562 0.949 . S
C1568 C1572 1.368 . S
C1569 C1550 1.429 . S
C1569 C1563 1.429 . S
C1569 C1570 1.523 . S
C1570 C1551 1.368 . S
C1570 C1564 1.368 . S
C1570 C1569 1.523 . S
C1571 C1555 1.429 . S
C1571 C1567 1.429 . S
C1571 C1572 1.523 . S
C1572 C1556 1.368 . S
C1572 C1568 1.368 . S
C1572 C1571 1.523 . S
H1573 C1548 0.950 . S
H1574 C1550 0.950 . S
H1575 C1551 0.949 . S
H1576 C1553 0.950 . S
H1577 C1555 0.950 . S
C1578 C1579 1.349 . S
C1578 C1580 1.327 . S
C1578 H1603 0.950 . S
C1579 C1578 1.349 . S
C1579 C1595 1.349 . S
C1580 C1578 1.327 . S
C1580 C1599 1.429 . S
C1580 H1604 0.950 . S
C1581 C1598 1.574 . S
C1581 C1600 1.368 . S
C1581 H1605 0.949 . S
H1582 C1586 0.949 . S
C1583 C1584 1.349 . S
C1583 C1585 1.327 . S
C1583 H1606 0.950 . S
C1584 C1583 1.349 . S
C1584 C1596 1.349 . S
C1585 C1583 1.327 . S
C1585 C1601 1.429 . S
C1585 H1607 0.950 . S
C1586 H1582 0.949 . S
C1586 C1594 1.574 . S
C1586 C1602 1.368 . S
H1587 C1595 0.950 . S
H1588 C1593 0.950 . S
H1589 C1594 0.949 . S
H1590 C1596 0.950 . S
H1591 C1597 0.950 . S
H1592 C1598 0.949 . S
C1593 H1588 0.950 . S
C1593 C1595 1.327 . S
C1593 C1599 1.429 . S
C1594 C1586 1.574 . S
C1594 H1589 0.949 . S
C1594 C1600 1.368 . S
C1595 C1579 1.349 . S
C1595 H1587 0.950 . S
C1595 C1593 1.327 . S
C1596 C1584 1.349 . S
C1596 H1590 0.950 . S
C1596 C1597 1.327 . S
C1597 H1591 0.950 . S
C1597 C1596 1.327 . S
C1597 C1601 1.429 . S
C1598 C1581 1.574 . S
C1598 H1592 0.949 . S
C1598 C1602 1.368 . S
C1599 C1580 1.429 . S
C1599 C1593 1.429 . S
C1599 C1600 1.523 . S
C1600 C1581 1.368 . S
C1600 C1594 1.368 . S
C1600 C1599 1.523 . S
C1601 C1585 1.429 . S
C1601 C1597 1.429 . S
C1601 C1602 1.523 . S
C1602 C1586 1.368 . S
C1602 C1598 1.368 . S
C1602 C1601 1.523 . S
H1603 C1578 0.950 . S
H1604 C1580 0.950 . S
H1605 C1581 0.949 . S
H1606 C1583 0.950 . S
H1607 C1585 0.950 . S
C1608 C1609 1.349 . S
C1608 C1610 1.327 . S
C1608 H1633 0.950 . S
C1609 C1608 1.349 . S
C1609 C1625 1.349 . S
C1610 C1608 1.327 . S
C1610 C1629 1.429 . S
C1610 H1634 0.950 . S
C1611 C1628 1.574 . S
C1611 C1630 1.368 . S
C1611 H1635 0.949 . S
H1612 C1616 0.949 . S
C1613 C1614 1.349 . S
C1613 C1615 1.327 . S
C1613 H1636 0.950 . S
C1614 C1613 1.349 . S
C1614 C1626 1.349 . S
C1615 C1613 1.327 . S
C1615 C1631 1.429 . S
C1615 H1637 0.950 . S
C1616 H1612 0.949 . S
C1616 C1624 1.574 . S
C1616 C1632 1.368 . S
H1617 C1625 0.950 . S
H1618 C1623 0.950 . S
H1619 C1624 0.949 . S
H1620 C1626 0.950 . S
H1621 C1627 0.950 . S
H1622 C1628 0.949 . S
C1623 H1618 0.950 . S
C1623 C1625 1.327 . S
C1623 C1629 1.429 . S
C1624 C1616 1.574 . S
C1624 H1619 0.949 . S
C1624 C1630 1.368 . S
C1625 C1609 1.349 . S
C1625 H1617 0.950 . S
C1625 C1623 1.327 . S
C1626 C1614 1.349 . S
C1626 H1620 0.950 . S
C1626 C1627 1.327 . S
C1627 H1621 0.950 . S
C1627 C1626 1.327 . S
C1627 C1631 1.429 . S
C1628 C1611 1.574 . S
C1628 H1622 0.949 . S
C1628 C1632 1.368 . S
C1629 C1610 1.429 . S
C1629 C1623 1.429 . S
C1629 C1630 1.523 . S
C1630 C1611 1.368 . S
C1630 C1624 1.368 . S
C1630 C1629 1.523 . S
C1631 C1615 1.429 . S
C1631 C1627 1.429 . S
C1631 C1632 1.523 . S
C1632 C1616 1.368 . S
C1632 C1628 1.368 . S
C1632 C1631 1.523 . S
H1633 C1608 0.950 . S
H1634 C1610 0.950 . S
H1635 C1611 0.949 . S
H1636 C1613 0.950 . S
H1637 C1615 0.950 . S
C1638 C1639 1.349 . S
C1638 C1640 1.327 . S
C1638 H1663 0.950 . S
C1639 C1638 1.349 . S
C1639 C1655 1.349 . S
C1640 C1638 1.327 . S
C1640 C1659 1.429 . S
C1640 H1664 0.950 . S
C1641 C1658 1.574 . S
C1641 C1660 1.368 . S
C1641 H1665 0.949 . S
H1642 C1646 0.949 . S
C1643 C1644 1.349 . S
C1643 C1645 1.327 . S
C1643 H1666 0.950 . S
C1644 C1643 1.349 . S
C1644 C1656 1.349 . S
C1645 C1643 1.327 . S
C1645 C1661 1.429 . S
C1645 H1667 0.950 . S
C1646 H1642 0.949 . S
C1646 C1654 1.574 . S
C1646 C1662 1.368 . S
H1647 C1655 0.950 . S
H1648 C1653 0.950 . S
H1649 C1654 0.949 . S
H1650 C1656 0.950 . S
H1651 C1657 0.950 . S
H1652 C1658 0.949 . S
C1653 H1648 0.950 . S
C1653 C1655 1.327 . S
C1653 C1659 1.429 . S
C1654 C1646 1.574 . S
C1654 H1649 0.949 . S
C1654 C1660 1.368 . S
C1655 C1639 1.349 . S
C1655 H1647 0.950 . S
C1655 C1653 1.327 . S
C1656 C1644 1.349 . S
C1656 H1650 0.950 . S
C1656 C1657 1.327 . S
C1657 H1651 0.950 . S
C1657 C1656 1.327 . S
C1657 C1661 1.429 . S
C1658 C1641 1.574 . S
C1658 H1652 0.949 . S
C1658 C1662 1.368 . S
C1659 C1640 1.429 . S
C1659 C1653 1.429 . S
C1659 C1660 1.523 . S
C1660 C1641 1.368 . S
C1660 C1654 1.368 . S
C1660 C1659 1.523 . S
C1661 C1645 1.429 . S
C1661 C1657 1.429 . S
C1661 C1662 1.523 . S
C1662 C1646 1.368 . S
C1662 C1658 1.368 . S
C1662 C1661 1.523 . S
H1663 C1638 0.950 . S
H1664 C1640 0.950 . S
H1665 C1641 0.949 . S
H1666 C1643 0.950 . S
H1667 C1645 0.950 . S
C1668 C1669 1.349 . S
C1668 C1670 1.327 . S
C1668 H1693 0.950 . S
C1669 C1668 1.349 . S
C1669 C1685 1.349 . S
C1670 C1668 1.327 . S
C1670 C1689 1.429 . S
C1670 H1694 0.950 . S
C1671 C1688 1.574 . S
C1671 C1690 1.368 . S
C1671 H1695 0.949 . S
H1672 C1676 0.949 . S
C1673 C1674 1.349 . S
C1673 C1675 1.327 . S
C1673 H1696 0.950 . S
C1674 C1673 1.349 . S
C1674 C1686 1.349 . S
C1675 C1673 1.327 . S
C1675 C1691 1.429 . S
C1675 H1697 0.950 . S
C1676 H1672 0.949 . S
C1676 C1684 1.574 . S
C1676 C1692 1.368 . S
H1677 C1685 0.950 . S
H1678 C1683 0.950 . S
H1679 C1684 0.949 . S
H1680 C1686 0.950 . S
H1681 C1687 0.950 . S
H1682 C1688 0.949 . S
C1683 H1678 0.950 . S
C1683 C1685 1.327 . S
C1683 C1689 1.429 . S
C1684 C1676 1.574 . S
C1684 H1679 0.949 . S
C1684 C1690 1.368 . S
C1685 C1669 1.349 . S
C1685 H1677 0.950 . S
C1685 C1683 1.327 . S
C1686 C1674 1.349 . S
C1686 H1680 0.950 . S
C1686 C1687 1.327 . S
C1687 H1681 0.950 . S
C1687 C1686 1.327 . S
C1687 C1691 1.429 . S
C1688 C1671 1.574 . S
C1688 H1682 0.949 . S
C1688 C1692 1.368 . S
C1689 C1670 1.429 . S
C1689 C1683 1.429 . S
C1689 C1690 1.523 . S
C1690 C1671 1.368 . S
C1690 C1684 1.368 . S
C1690 C1689 1.523 . S
C1691 C1675 1.429 . S
C1691 C1687 1.429 . S
C1691 C1692 1.523 . S
C1692 C1676 1.368 . S
C1692 C1688 1.368 . S
C1692 C1691 1.523 . S
H1693 C1668 0.950 . S
H1694 C1670 0.950 . S
H1695 C1671 0.949 . S
H1696 C1673 0.950 . S
H1697 C1675 0.950 . S
C1698 C1699 1.349 . S
C1698 C1700 1.327 . S
C1698 H1723 0.950 . S
C1699 C1698 1.349 . S
C1699 C1715 1.349 . S
C1700 C1698 1.327 . S
C1700 C1719 1.429 . S
C1700 H1724 0.950 . S
C1701 C1718 1.574 . S
C1701 C1720 1.368 . S
C1701 H1725 0.949 . S
H1702 C1706 0.949 . S
C1703 C1704 1.349 . S
C1703 C1705 1.327 . S
C1703 H1726 0.950 . S
C1704 C1703 1.349 . S
C1704 C1716 1.349 . S
C1705 C1703 1.327 . S
C1705 C1721 1.429 . S
C1705 H1727 0.950 . S
C1706 H1702 0.949 . S
C1706 C1714 1.574 . S
C1706 C1722 1.368 . S
H1707 C1715 0.950 . S
H1708 C1713 0.950 . S
H1709 C1714 0.949 . S
H1710 C1716 0.950 . S
H1711 C1717 0.950 . S
H1712 C1718 0.949 . S
C1713 H1708 0.950 . S
C1713 C1715 1.327 . S
C1713 C1719 1.429 . S
C1714 C1706 1.574 . S
C1714 H1709 0.949 . S
C1714 C1720 1.368 . S
C1715 C1699 1.349 . S
C1715 H1707 0.950 . S
C1715 C1713 1.327 . S
C1716 C1704 1.349 . S
C1716 H1710 0.950 . S
C1716 C1717 1.327 . S
C1717 H1711 0.950 . S
C1717 C1716 1.327 . S
C1717 C1721 1.429 . S
C1718 C1701 1.574 . S
C1718 H1712 0.949 . S
C1718 C1722 1.368 . S
C1719 C1700 1.429 . S
C1719 C1713 1.429 . S
C1719 C1720 1.523 . S
C1720 C1701 1.368 . S
C1720 C1714 1.368 . S
C1720 C1719 1.523 . S
C1721 C1705 1.429 . S
C1721 C1717 1.429 . S
C1721 C1722 1.523 . S
C1722 C1706 1.368 . S
C1722 C1718 1.368 . S
C1722 C1721 1.523 . S
H1723 C1698 0.950 . S
H1724 C1700 0.950 . S
H1725 C1701 0.949 . S
H1726 C1703 0.950 . S
H1727 C1705 0.950 . S
C1728 C1729 1.349 . S
C1728 C1730 1.327 . S
C1728 H1753 0.950 . S
C1729 C1728 1.349 . S
C1729 C1745 1.349 . S
C1730 C1728 1.327 . S
C1730 C1749 1.429 . S
C1730 H1754 0.950 . S
C1731 C1748 1.574 . S
C1731 C1750 1.368 . S
C1731 H1755 0.949 . S
H1732 C1736 0.949 . S
C1733 C1734 1.349 . S
C1733 C1735 1.327 . S
C1733 H1756 0.950 . S
C1734 C1733 1.349 . S
C1734 C1746 1.349 . S
C1735 C1733 1.327 . S
C1735 C1751 1.429 . S
C1735 H1757 0.950 . S
C1736 H1732 0.949 . S
C1736 C1744 1.574 . S
C1736 C1752 1.368 . S
H1737 C1745 0.950 . S
H1738 C1743 0.950 . S
H1739 C1744 0.949 . S
H1740 C1746 0.950 . S
H1741 C1747 0.950 . S
H1742 C1748 0.949 . S
C1743 H1738 0.950 . S
C1743 C1745 1.327 . S
C1743 C1749 1.429 . S
C1744 C1736 1.574 . S
C1744 H1739 0.949 . S
C1744 C1750 1.368 . S
C1745 C1729 1.349 . S
C1745 H1737 0.950 . S
C1745 C1743 1.327 . S
C1746 C1734 1.349 . S
C1746 H1740 0.950 . S
C1746 C1747 1.327 . S
C1747 H1741 0.950 . S
C1747 C1746 1.327 . S
C1747 C1751 1.429 . S
C1748 C1731 1.574 . S
C1748 H1742 0.949 . S
C1748 C1752 1.368 . S
C1749 C1730 1.429 . S
C1749 C1743 1.429 . S
C1749 C1750 1.523 . S
C1750 C1731 1.368 . S
C1750 C1744 1.368 . S
C1750 C1749 1.523 . S
C1751 C1735 1.429 . S
C1751 C1747 1.429 . S
C1751 C1752 1.523 . S
C1752 C1736 1.368 . S
C1752 C1748 1.368 . S
C1752 C1751 1.523 . S
H1753 C1728 0.950 . S
H1754 C1730 0.950 . S
H1755 C1731 0.949 . S
H1756 C1733 0.950 . S
H1757 C1735 0.950 . S
C1758 C1759 1.349 . S
C1758 C1760 1.327 . S
C1758 H1783 0.950 . S
C1759 C1758 1.349 . S
C1759 C1775 1.349 . S
C1760 C1758 1.327 . S
C1760 C1779 1.429 . S
C1760 H1784 0.950 . S
C1761 C1778 1.574 . S
C1761 C1780 1.368 . S
C1761 H1785 0.949 . S
H1762 C1766 0.949 . S
C1763 C1764 1.349 . S
C1763 C1765 1.327 . S
C1763 H1786 0.950 . S
C1764 C1763 1.349 . S
C1764 C1776 1.349 . S
C1765 C1763 1.327 . S
C1765 C1781 1.429 . S
C1765 H1787 0.950 . S
C1766 H1762 0.949 . S
C1766 C1774 1.574 . S
C1766 C1782 1.368 . S
H1767 C1775 0.950 . S
H1768 C1773 0.950 . S
H1769 C1774 0.949 . S
H1770 C1776 0.950 . S
H1771 C1777 0.950 . S
H1772 C1778 0.949 . S
C1773 H1768 0.950 . S
C1773 C1775 1.327 . S
C1773 C1779 1.429 . S
C1774 C1766 1.574 . S
C1774 H1769 0.949 . S
C1774 C1780 1.368 . S
C1775 C1759 1.349 . S
C1775 H1767 0.950 . S
C1775 C1773 1.327 . S
C1776 C1764 1.349 . S
C1776 H1770 0.950 . S
C1776 C1777 1.327 . S
C1777 H1771 0.950 . S
C1777 C1776 1.327 . S
C1777 C1781 1.429 . S
C1778 C1761 1.574 . S
C1778 H1772 0.949 . S
C1778 C1782 1.368 . S
C1779 C1760 1.429 . S
C1779 C1773 1.429 . S
C1779 C1780 1.523 . S
C1780 C1761 1.368 . S
C1780 C1774 1.368 . S
C1780 C1779 1.523 . S
C1781 C1765 1.429 . S
C1781 C1777 1.429 . S
C1781 C1782 1.523 . S
C1782 C1766 1.368 . S
C1782 C1778 1.368 . S
C1782 C1781 1.523 . S
H1783 C1758 0.950 . S
H1784 C1760 0.950 . S
H1785 C1761 0.949 . S
H1786 C1763 0.950 . S
H1787 C1765 0.950 . S
C1788 C1789 1.349 . S
C1788 C1790 1.327 . S
C1788 H1813 0.950 . S
C1789 C1788 1.349 . S
C1789 C1805 1.349 . S
C1790 C1788 1.327 . S
C1790 C1809 1.429 . S
C1790 H1814 0.950 . S
C1791 C1808 1.574 . S
C1791 C1810 1.368 . S
C1791 H1815 0.949 . S
H1792 C1796 0.949 . S
C1793 C1794 1.349 . S
C1793 C1795 1.327 . S
C1793 H1816 0.950 . S
C1794 C1793 1.349 . S
C1794 C1806 1.349 . S
C1795 C1793 1.327 . S
C1795 C1811 1.429 . S
C1795 H1817 0.950 . S
C1796 H1792 0.949 . S
C1796 C1804 1.574 . S
C1796 C1812 1.368 . S
H1797 C1805 0.950 . S
H1798 C1803 0.950 . S
H1799 C1804 0.949 . S
H1800 C1806 0.950 . S
H1801 C1807 0.950 . S
H1802 C1808 0.949 . S
C1803 H1798 0.950 . S
C1803 C1805 1.327 . S
C1803 C1809 1.429 . S
C1804 C1796 1.574 . S
C1804 H1799 0.949 . S
C1804 C1810 1.368 . S
C1805 C1789 1.349 . S
C1805 H1797 0.950 . S
C1805 C1803 1.327 . S
C1806 C1794 1.349 . S
C1806 H1800 0.950 . S
C1806 C1807 1.327 . S
C1807 H1801 0.950 . S
C1807 C1806 1.327 . S
C1807 C1811 1.429 . S
C1808 C1791 1.574 . S
C1808 H1802 0.949 . S
C1808 C1812 1.368 . S
C1809 C1790 1.429 . S
C1809 C1803 1.429 . S
C1809 C1810 1.523 . S
C1810 C1791 1.368 . S
C1810 C1804 1.368 . S
C1810 C1809 1.523 . S
C1811 C1795 1.429 . S
C1811 C1807 1.429 . S
C1811 C1812 1.523 . S
C1812 C1796 1.368 . S
C1812 C1808 1.368 . S
C1812 C1811 1.523 . S
H1813 C1788 0.950 . S
H1814 C1790 0.950 . S
H1815 C1791 0.949 . S
H1816 C1793 0.950 . S
H1817 C1795 0.950 . S
C1818 C1819 1.349 . S
C1818 C1820 1.327 . S
C1818 H1843 0.950 . S
C1819 C1818 1.349 . S
C1819 C1835 1.349 . S
C1820 C1818 1.327 . S
C1820 C1839 1.429 . S
C1820 H1844 0.950 . S
C1821 C1838 1.574 . S
C1821 C1840 1.368 . S
C1821 H1845 0.949 . S
H1822 C1826 0.949 . S
C1823 C1824 1.349 . S
C1823 C1825 1.327 . S
C1823 H1846 0.950 . S
C1824 C1823 1.349 . S
C1824 C1836 1.349 . S
C1825 C1823 1.327 . S
C1825 C1841 1.429 . S
C1825 H1847 0.950 . S
C1826 H1822 0.949 . S
C1826 C1834 1.574 . S
C1826 C1842 1.368 . S
H1827 C1835 0.950 . S
H1828 C1833 0.950 . S
H1829 C1834 0.949 . S
H1830 C1836 0.950 . S
H1831 C1837 0.950 . S
H1832 C1838 0.949 . S
C1833 H1828 0.950 . S
C1833 C1835 1.327 . S
C1833 C1839 1.429 . S
C1834 C1826 1.574 . S
C1834 H1829 0.949 . S
C1834 C1840 1.368 . S
C1835 C1819 1.349 . S
C1835 H1827 0.950 . S
C1835 C1833 1.327 . S
C1836 C1824 1.349 . S
C1836 H1830 0.950 . S
C1836 C1837 1.327 . S
C1837 H1831 0.950 . S
C1837 C1836 1.327 . S
C1837 C1841 1.429 . S
C1838 C1821 1.574 . S
C1838 H1832 0.949 . S
C1838 C1842 1.368 . S
C1839 C1820 1.429 . S
C1839 C1833 1.429 . S
C1839 C1840 1.523 . S
C1840 C1821 1.368 . S
C1840 C1834 1.368 . S
C1840 C1839 1.523 . S
C1841 C1825 1.429 . S
C1841 C1837 1.429 . S
C1841 C1842 1.523 . S
C1842 C1826 1.368 . S
C1842 C1838 1.368 . S
C1842 C1841 1.523 . S
H1843 C1818 0.950 . S
H1844 C1820 0.950 . S
H1845 C1821 0.949 . S
H1846 C1823 0.950 . S
H1847 C1825 0.950 . S
C1848 C1849 1.349 . S
C1848 C1850 1.327 . S
C1848 H1873 0.950 . S
C1849 C1848 1.349 . S
C1849 C1865 1.349 . S
C1850 C1848 1.327 . S
C1850 C1869 1.429 . S
C1850 H1874 0.950 . S
C1851 C1868 1.574 . S
C1851 C1870 1.368 . S
C1851 H1875 0.949 . S
H1852 C1856 0.949 . S
C1853 C1854 1.349 . S
C1853 C1855 1.327 . S
C1853 H1876 0.950 . S
C1854 C1853 1.349 . S
C1854 C1866 1.349 . S
C1855 C1853 1.327 . S
C1855 C1871 1.429 . S
C1855 H1877 0.950 . S
C1856 H1852 0.949 . S
C1856 C1864 1.574 . S
C1856 C1872 1.368 . S
H1857 C1865 0.950 . S
H1858 C1863 0.950 . S
H1859 C1864 0.949 . S
H1860 C1866 0.950 . S
H1861 C1867 0.950 . S
H1862 C1868 0.949 . S
C1863 H1858 0.950 . S
C1863 C1865 1.327 . S
C1863 C1869 1.429 . S
C1864 C1856 1.574 . S
C1864 H1859 0.949 . S
C1864 C1870 1.368 . S
C1865 C1849 1.349 . S
C1865 H1857 0.950 . S
C1865 C1863 1.327 . S
C1866 C1854 1.349 . S
C1866 H1860 0.950 . S
C1866 C1867 1.327 . S
C1867 H1861 0.950 . S
C1867 C1866 1.327 . S
C1867 C1871 1.429 . S
C1868 C1851 1.574 . S
C1868 H1862 0.949 . S
C1868 C1872 1.368 . S
C1869 C1850 1.429 . S
C1869 C1863 1.429 . S
C1869 C1870 1.523 . S
C1870 C1851 1.368 . S
C1870 C1864 1.368 . S
C1870 C1869 1.523 . S
C1871 C1855 1.429 . S
C1871 C1867 1.429 . S
C1871 C1872 1.523 . S
C1872 C1856 1.368 . S
C1872 C1868 1.368 . S
C1872 C1871 1.523 . S
H1873 C1848 0.950 . S
H1874 C1850 0.950 . S
H1875 C1851 0.949 . S
H1876 C1853 0.950 . S
H1877 C1855 0.950 . S
C1878 C1879 1.349 . S
C1878 C1880 1.327 . S
C1878 H1903 0.950 . S
C1879 C1878 1.349 . S
C1879 C1895 1.349 . S
C1880 C1878 1.327 . S
C1880 C1899 1.429 . S
C1880 H1904 0.950 . S
C1881 C1898 1.574 . S
C1881 C1900 1.368 . S
C1881 H1905 0.949 . S
H1882 C1886 0.949 . S
C1883 C1884 1.349 . S
C1883 C1885 1.327 . S
C1883 H1906 0.950 . S
C1884 C1883 1.349 . S
C1884 C1896 1.349 . S
C1885 C1883 1.327 . S
C1885 C1901 1.429 . S
C1885 H1907 0.950 . S
C1886 H1882 0.949 . S
C1886 C1894 1.574 . S
C1886 C1902 1.368 . S
H1887 C1895 0.950 . S
H1888 C1893 0.950 . S
H1889 C1894 0.949 . S
H1890 C1896 0.950 . S
H1891 C1897 0.950 . S
H1892 C1898 0.949 . S
C1893 H1888 0.950 . S
C1893 C1895 1.327 . S
C1893 C1899 1.429 . S
C1894 C1886 1.574 . S
C1894 H1889 0.949 . S
C1894 C1900 1.368 . S
C1895 C1879 1.349 . S
C1895 H1887 0.950 . S
C1895 C1893 1.327 . S
C1896 C1884 1.349 . S
C1896 H1890 0.950 . S
C1896 C1897 1.327 . S
C1897 H1891 0.950 . S
C1897 C1896 1.327 . S
C1897 C1901 1.429 . S
C1898 C1881 1.574 . S
C1898 H1892 0.949 . S
C1898 C1902 1.368 . S
C1899 C1880 1.429 . S
C1899 C1893 1.429 . S
C1899 C1900 1.523 . S
C1900 C1881 1.368 . S
C1900 C1894 1.368 . S
C1900 C1899 1.523 . S
C1901 C1885 1.429 . S
C1901 C1897 1.429 . S
C1901 C1902 1.523 . S
C1902 C1886 1.368 . S
C1902 C1898 1.368 . S
C1902 C1901 1.523 . S
H1903 C1878 0.950 . S
H1904 C1880 0.950 . S
H1905 C1881 0.949 . S
H1906 C1883 0.950 . S
H1907 C1885 0.950 . S
C1908 C1909 1.349 . S
C1908 C1910 1.327 . S
C1908 H1933 0.950 . S
C1909 C1908 1.349 . S
C1909 C1925 1.349 . S
C1910 C1908 1.327 . S
C1910 C1929 1.429 . S
C1910 H1934 0.950 . S
C1911 C1928 1.574 1_556 S
C1911 C1930 1.368 . S
C1911 H1935 0.949 . S
H1912 C1916 0.949 . S
C1913 C1914 1.349 . S
C1913 C1915 1.327 . S
C1913 H1936 0.950 . S
C1914 C1913 1.349 . S
C1914 C1926 1.349 . S
C1915 C1913 1.327 . S
C1915 C1931 1.429 . S
C1915 H1937 0.950 . S
C1916 H1912 0.949 . S
C1916 C1924 1.574 1_554 S
C1916 C1932 1.368 . S
H1917 C1925 0.950 . S
H1918 C1923 0.950 . S
H1919 C1924 0.949 . S
H1920 C1926 0.950 . S
H1921 C1927 0.950 . S
H1922 C1928 0.949 . S
C1923 H1918 0.950 . S
C1923 C1925 1.327 . S
C1923 C1929 1.429 . S
C1924 C1916 1.574 1_556 S
C1924 H1919 0.949 . S
C1924 C1930 1.368 . S
C1925 C1909 1.349 . S
C1925 H1917 0.950 . S
C1925 C1923 1.327 . S
C1926 C1914 1.349 . S
C1926 H1920 0.950 . S
C1926 C1927 1.327 . S
C1927 H1921 0.950 . S
C1927 C1926 1.327 . S
C1927 C1931 1.429 . S
C1928 C1911 1.574 1_554 S
C1928 H1922 0.949 . S
C1928 C1932 1.368 . S
C1929 C1910 1.429 . S
C1929 C1923 1.429 . S
C1929 C1930 1.523 . S
C1930 C1911 1.368 . S
C1930 C1924 1.368 . S
C1930 C1929 1.523 . S
C1931 C1915 1.429 . S
C1931 C1927 1.429 . S
C1931 C1932 1.523 . S
C1932 C1916 1.368 . S
C1932 C1928 1.368 . S
C1932 C1931 1.523 . S
H1933 C1908 0.950 . S
H1934 C1910 0.950 . S
H1935 C1911 0.949 . S
H1936 C1913 0.950 . S
H1937 C1915 0.950 . S
C1938 C1939 1.349 . S
C1938 C1940 1.327 . S
C1938 H1963 0.950 . S
C1939 C1938 1.349 . S
C1939 C1955 1.349 . S
C1940 C1938 1.327 . S
C1940 C1959 1.429 . S
C1940 H1964 0.950 . S
C1941 C1958 1.574 1_455 S
C1941 C1960 1.368 . S
C1941 H1965 0.949 . S
H1942 C1946 0.949 . S
C1943 C1944 1.349 . S
C1943 C1945 1.327 . S
C1943 H1966 0.950 . S
C1944 C1943 1.349 . S
C1944 C1956 1.349 . S
C1945 C1943 1.327 . S
C1945 C1961 1.429 . S
C1945 H1967 0.950 . S
C1946 H1942 0.949 . S
C1946 C1954 1.574 1_655 S
C1946 C1962 1.368 . S
H1947 C1955 0.950 . S
H1948 C1953 0.950 . S
H1949 C1954 0.949 . S
H1950 C1956 0.950 . S
H1951 C1957 0.950 . S
H1952 C1958 0.949 . S
C1953 H1948 0.950 . S
C1953 C1955 1.327 . S
C1953 C1959 1.429 . S
C1954 C1946 1.574 1_455 S
C1954 H1949 0.949 . S
C1954 C1960 1.368 . S
C1955 C1939 1.349 . S
C1955 H1947 0.950 . S
C1955 C1953 1.327 . S
C1956 C1944 1.349 . S
C1956 H1950 0.950 . S
C1956 C1957 1.327 . S
C1957 H1951 0.950 . S
C1957 C1956 1.327 . S
C1957 C1961 1.429 . S
C1958 C1941 1.574 1_655 S
C1958 H1952 0.949 . S
C1958 C1962 1.368 . S
C1959 C1940 1.429 . S
C1959 C1953 1.429 . S
C1959 C1960 1.523 . S
C1960 C1941 1.368 . S
C1960 C1954 1.368 . S
C1960 C1959 1.523 . S
C1961 C1945 1.429 . S
C1961 C1957 1.429 . S
C1961 C1962 1.523 . S
C1962 C1946 1.368 . S
C1962 C1958 1.368 . S
C1962 C1961 1.523 . S
H1963 C1938 0.950 . S
H1964 C1940 0.950 . S
H1965 C1941 0.949 . S
H1966 C1943 0.950 . S
H1967 C1945 0.950 . S
C1968 C1969 1.349 . S
C1968 C1970 1.327 . S
C1968 H1993 0.950 . S
C1969 C1968 1.349 . S
C1969 C1985 1.349 . S
C1970 C1968 1.327 . S
C1970 C1989 1.429 . S
C1970 H1994 0.950 . S
C1971 C1988 1.574 . S
C1971 C1990 1.368 1_545 S
C1971 H1995 0.949 . S
H1972 C1976 0.949 . S
C1973 C1974 1.349 . S
C1973 C1975 1.327 . S
C1973 H1996 0.950 . S
C1974 C1973 1.349 . S
C1974 C1986 1.349 . S
C1975 C1973 1.327 . S
C1975 C1991 1.429 . S
C1975 H1997 0.950 . S
C1976 H1972 0.949 . S
C1976 C1984 1.574 . S
C1976 C1992 1.368 1_565 S
H1977 C1985 0.950 . S
H1978 C1983 0.950 . S
H1979 C1984 0.949 . S
H1980 C1986 0.950 . S
H1981 C1987 0.950 . S
H1982 C1988 0.949 . S
C1983 H1978 0.950 . S
C1983 C1985 1.327 . S
C1983 C1989 1.429 . S
C1984 C1976 1.574 . S
C1984 H1979 0.949 . S
C1984 C1990 1.368 1_556 S
C1985 C1969 1.349 . S
C1985 H1977 0.950 . S
C1985 C1983 1.327 . S
C1986 C1974 1.349 . S
C1986 H1980 0.950 . S
C1986 C1987 1.327 . S
C1987 H1981 0.950 . S
C1987 C1986 1.327 . S
C1987 C1991 1.429 . S
C1988 C1971 1.574 . S
C1988 H1982 0.949 . S
C1988 C1992 1.368 1_554 S
C1989 C1970 1.429 . S
C1989 C1983 1.429 . S
C1989 C1990 1.523 . S
C1990 C1971 1.368 1_565 S
C1990 C1984 1.368 1_554 S
C1990 C1989 1.523 . S
C1991 C1975 1.429 . S
C1991 C1987 1.429 . S
C1991 C1992 1.523 . S
C1992 C1976 1.368 1_545 S
C1992 C1988 1.368 1_556 S
C1992 C1991 1.523 . S
H1993 C1968 0.950 . S
H1994 C1970 0.950 . S
H1995 C1971 0.949 . S
H1996 C1973 0.950 . S
H1997 C1975 0.950 . S
C1998 C1999 1.349 . S
C1998 C2000 1.327 . S
C1998 H2023 0.950 . S
C1999 C1998 1.349 . S
C1999 C2015 1.349 . S
C2000 C1998 1.327 . S
C2000 C2019 1.429 . S
C2000 H2024 0.950 . S
C2001 C2018 1.574 . S
C2001 C2020 1.368 . S
C2001 H2025 0.949 . S
H2002 C2006 0.949 . S
C2003 C2004 1.349 . S
C2003 C2005 1.327 . S
C2003 H2026 0.950 . S
C2004 C2003 1.349 . S
C2004 C2016 1.349 . S
C2005 C2003 1.327 . S
C2005 C2021 1.429 . S
C2005 H2027 0.950 . S
C2006 H2002 0.949 . S
C2006 C2014 1.574 . S
C2006 C2022 1.368 . S
H2007 C2015 0.950 . S
H2008 C2013 0.950 . S
H2009 C2014 0.949 . S
H2010 C2016 0.950 . S
H2011 C2017 0.950 . S
H2012 C2018 0.949 . S
C2013 H2008 0.950 . S
C2013 C2015 1.327 . S
C2013 C2019 1.429 . S
C2014 C2006 1.574 . S
C2014 H2009 0.949 . S
C2014 C2020 1.368 . S
C2015 C1999 1.349 . S
C2015 H2007 0.950 . S
C2015 C2013 1.327 . S
C2016 C2004 1.349 . S
C2016 H2010 0.950 . S
C2016 C2017 1.327 . S
C2017 H2011 0.950 . S
C2017 C2016 1.327 . S
C2017 C2021 1.429 . S
C2018 C2001 1.574 . S
C2018 H2012 0.949 . S
C2018 C2022 1.368 . S
C2019 C2000 1.429 . S
C2019 C2013 1.429 . S
C2019 C2020 1.523 . S
C2020 C2001 1.368 . S
C2020 C2014 1.368 . S
C2020 C2019 1.523 . S
C2021 C2005 1.429 . S
C2021 C2017 1.429 . S
C2021 C2022 1.523 . S
C2022 C2006 1.368 . S
C2022 C2018 1.368 . S
C2022 C2021 1.523 . S
H2023 C1998 0.950 . S
H2024 C2000 0.950 . S
H2025 C2001 0.949 . S
H2026 C2003 0.950 . S
H2027 C2005 0.950 . S
C2028 C2029 1.349 . S
C2028 C2030 1.327 . S
C2028 H2053 0.950 . S
C2029 C2028 1.349 . S
C2029 C2045 1.349 . S
C2030 C2028 1.327 . S
C2030 C2049 1.429 . S
C2030 H2054 0.950 . S
C2031 C2048 1.552 1_655 S
C2031 C2050 1.364 1_554 S
C2031 H2055 0.949 . S
H2032 C2036 0.949 . S
C2033 C2034 1.349 . S
C2033 C2035 1.327 . S
C2033 H2056 0.950 . S
C2034 C2033 1.349 . S
C2034 C2046 1.349 . S
C2035 C2033 1.327 . S
C2035 C2051 1.429 . S
C2035 H2057 0.950 . S
C2036 H2032 0.949 . S
C2036 C2044 1.552 1_455 S
C2036 C2052 1.364 1_556 S
H2037 C2045 0.950 . S
H2038 C2043 0.950 . S
H2039 C2044 0.965 . S
H2040 C2046 0.950 . S
H2041 C2047 0.950 . S
H2042 C2048 0.966 . S
C2043 H2038 0.950 . S
C2043 C2045 1.327 . S
C2043 C2049 1.429 . S
C2044 C2036 1.552 1_655 S
C2044 H2039 0.965 . S
C2044 C2050 1.378 . S
C2045 C2029 1.349 . S
C2045 H2037 0.950 . S
C2045 C2043 1.327 . S
C2046 C2034 1.349 . S
C2046 H2040 0.950 . S
C2046 C2047 1.327 . S
C2047 H2041 0.950 . S
C2047 C2046 1.327 . S
C2047 C2051 1.429 . S
C2048 C2031 1.552 1_455 S
C2048 H2042 0.966 . S
C2048 C2052 1.378 . S
C2049 C2030 1.429 . S
C2049 C2043 1.429 . S
C2049 C2050 1.523 . S
C2050 C2031 1.364 1_556 S
C2050 C2044 1.378 . S
C2050 C2049 1.523 . S
C2051 C2035 1.429 . S
C2051 C2047 1.429 . S
C2051 C2052 1.523 . S
C2052 C2036 1.364 1_554 S
C2052 C2048 1.378 . S
C2052 C2051 1.523 . S
H2053 C2028 0.950 . S
H2054 C2030 0.950 . S
H2055 C2031 0.949 . S
H2056 C2033 0.950 . S
H2057 C2035 0.950 . S
C2058 C2059 1.349 . S
C2058 C2060 1.327 . S
C2058 H2083 0.950 . S
C2059 C2058 1.349 . S
C2059 C2075 1.349 . S
C2060 C2058 1.327 . S
C2060 C2079 1.429 . S
C2060 H2084 0.950 . S
C2061 C2078 1.574 1_565 S
C2061 C2080 1.368 . S
C2061 H2085 0.949 . S
H2062 C2066 0.949 . S
C2063 C2064 1.349 . S
C2063 C2065 1.327 . S
C2063 H2086 0.950 . S
C2064 C2063 1.349 . S
C2064 C2076 1.349 . S
C2065 C2063 1.327 . S
C2065 C2081 1.429 . S
C2065 H2087 0.950 . S
C2066 H2062 0.949 . S
C2066 C2074 1.574 1_545 S
C2066 C2082 1.368 . S
H2067 C2075 0.950 . S
H2068 C2073 0.950 . S
H2069 C2074 0.949 . S
H2070 C2076 0.950 . S
H2071 C2077 0.950 . S
H2072 C2078 0.949 . S
C2073 H2068 0.950 . S
C2073 C2075 1.327 . S
C2073 C2079 1.429 . S
C2074 C2066 1.574 1_565 S
C2074 H2069 0.949 . S
C2074 C2080 1.368 . S
C2075 C2059 1.349 . S
C2075 H2067 0.950 . S
C2075 C2073 1.327 . S
C2076 C2064 1.349 . S
C2076 H2070 0.950 . S
C2076 C2077 1.327 . S
C2077 H2071 0.950 . S
C2077 C2076 1.327 . S
C2077 C2081 1.429 . S
C2078 C2061 1.574 1_545 S
C2078 H2072 0.949 . S
C2078 C2082 1.368 . S
C2079 C2060 1.429 . S
C2079 C2073 1.429 . S
C2079 C2080 1.523 . S
C2080 C2061 1.368 . S
C2080 C2074 1.368 . S
C2080 C2079 1.523 . S
C2081 C2065 1.429 . S
C2081 C2077 1.429 . S
C2081 C2082 1.523 . S
C2082 C2066 1.368 . S
C2082 C2078 1.368 . S
C2082 C2081 1.523 . S
H2083 C2058 0.950 . S
H2084 C2060 0.950 . S
H2085 C2061 0.949 . S
H2086 C2063 0.950 . S
H2087 C2065 0.950 . S
C1009 C403 1.319 . S
C1014 C70 1.226 . S
C1039 C487 1.319 . S
C1044 C154 1.226 . S
C1069 C238 1.226 . S
C1074 C67 1.319 . S
C1099 C322 1.226 . S
C1104 C151 1.319 . S
C1129 C406 1.226 . S
C1134 C235 1.319 . S
C1159 C319 1.319 . S
C1164 C490 1.226 . S
C1189 C739 1.319 . S
C1194 C574 1.226 . S
C1219 C658 1.226 . S
C1224 C823 1.319 . S
C1249 C907 1.319 . S
C1254 C742 1.226 . S
C1279 C826 1.226 . S
C1284 C991 1.319 . S
C1309 C910 1.226 . S
C1314 C571 1.319 . S
C1339 C655 1.319 . S
C1344 C994 1.226 . S
C1369 C392 1.410 . S
C1374 C58 1.317 . S
C1399 C142 1.318 . S
C1404 C476 1.411 . S
C1429 C226 1.318 . S
C1434 C56 1.411 . S
C1459 C310 1.317 . S
C1464 C140 1.410 . S
C1489 C224 1.410 . S
C1494 C394 1.317 . S
C1519 C308 1.411 . S
C1524 C478 1.318 . S
C1549 C728 1.410 . S
C1554 C562 1.317 . S
C1579 C646 1.318 . S
C1584 C812 1.411 . S
C1609 C730 1.317 . S
C1614 C896 1.410 . S
C1639 C980 1.410 . S
C1644 C814 1.317 . S
C1669 C898 1.318 . S
C1674 C560 1.411 . S
C1699 C644 1.410 . S
C1704 C982 1.317 . S
C1729 C903 1.909 . S
C1734 C63 1.909 . S
C1759 C147 1.909 . S
C1764 C987 1.909 . S
C1789 C231 1.909 . S
C1794 C567 1.909 . S
C1819 C315 1.909 . S
C1824 C651 1.909 . S
C1849 C399 1.908 . S
C1854 C735 1.908 . S
C1879 C819 1.909 . S
C1884 C483 1.909 . S
C1909 C830 2.029 . S
C1914 C74 2.029 . S
C1939 C914 2.029 . S
C1944 C158 2.029 . S
C1969 C242 2.029 . S
C1974 C998 2.029 . S
C1999 C326 2.029 . S
C2004 C578 2.029 . S
C2029 C662 2.029 . S
C2034 C410 2.029 . S
C2059 C746 2.029 . S
C2064 C494 2.029 . S
