# Generated by pormake.
# Topology ukj, (4)-cn, num edge types: 1
# Building blocks:
#     Node 0, Type 0, BuildingBlock: KOZSID_clean_sbu_0, # of connection points: 4
#     Node 1, Type 0, BuildingBlock: KOZSID_clean_sbu_0, # of connection points: 4
#     Node 2, Type 0, BuildingBlock: KOZSID_clean_sbu_0, # of connection points: 4
#     Node 3, Type 0, BuildingBlock: KOZSID_clean_sbu_0, # of connection points: 4
#     Node 4, Type 0, BuildingBlock: KOZSID_clean_sbu_0, # of connection points: 4
#     Node 5, Type 0, BuildingBlock: KOZSID_clean_sbu_0, # of connection points: 4
#     Node 6, Type 0, BuildingBlock: KOZSID_clean_sbu_0, # of connection points: 4
#     Node 7, Type 0, BuildingBlock: KOZSID_clean_sbu_0, # of connection points: 4
#     Node 8, Type 0, BuildingBlock: KOZSID_clean_sbu_0, # of connection points: 4
#     Node 9, Type 0, BuildingBlock: KOZSID_clean_sbu_0, # of connection points: 4
#     Node 10, Type 0, BuildingBlock: KOZSID_clean_sbu_0, # of connection points: 4
#     Node 11, Type 0, BuildingBlock: KOZSID_clean_sbu_0, # of connection points: 4
#     Node 12, Type 0, BuildingBlock: KOZSID_clean_sbu_0, # of connection points: 4
#     Node 13, Type 0, BuildingBlock: KOZSID_clean_sbu_0, # of connection points: 4
#     Node 14, Type 0, BuildingBlock: KOZSID_clean_sbu_0, # of connection points: 4
#     Node 15, Type 0, BuildingBlock: KOZSID_clean_sbu_0, # of connection points: 4
#     Node 16, Type 0, BuildingBlock: KOZSID_clean_sbu_0, # of connection points: 4
#     Node 17, Type 0, BuildingBlock: KOZSID_clean_sbu_0, # of connection points: 4
#     Node 18, Type 0, BuildingBlock: KOZSID_clean_sbu_0, # of connection points: 4
#     Node 19, Type 0, BuildingBlock: KOZSID_clean_sbu_0, # of connection points: 4
#     Node 20, Type 0, BuildingBlock: KOZSID_clean_sbu_0, # of connection points: 4
#     Node 21, Type 0, BuildingBlock: KOZSID_clean_sbu_0, # of connection points: 4
#     Node 22, Type 0, BuildingBlock: KOZSID_clean_sbu_0, # of connection points: 4
#     Node 23, Type 0, BuildingBlock: KOZSID_clean_sbu_0, # of connection points: 4
#     Node 24, Type 0, BuildingBlock: KOZSID_clean_sbu_0, # of connection points: 4
#     Node 25, Type 0, BuildingBlock: KOZSID_clean_sbu_0, # of connection points: 4
#     Node 26, Type 0, BuildingBlock: KOZSID_clean_sbu_0, # of connection points: 4
#     Node 27, Type 0, BuildingBlock: KOZSID_clean_sbu_0, # of connection points: 4
#     Node 28, Type 0, BuildingBlock: KOZSID_clean_sbu_0, # of connection points: 4
#     Node 29, Type 0, BuildingBlock: KOZSID_clean_sbu_0, # of connection points: 4
#     Node 30, Type 0, BuildingBlock: KOZSID_clean_sbu_0, # of connection points: 4
#     Node 31, Type 0, BuildingBlock: KOZSID_clean_sbu_0, # of connection points: 4
#     Edge 32, Type (0, 0), BuildingBlock: ZUJKAS_clean_linker_0, # of connection points: 2
#     Edge 33, Type (0, 0), BuildingBlock: ZUJKAS_clean_linker_0, # of connection points: 2
#     Edge 34, Type (0, 0), BuildingBlock: ZUJKAS_clean_linker_0, # of connection points: 2
#     Edge 35, Type (0, 0), BuildingBlock: ZUJKAS_clean_linker_0, # of connection points: 2
#     Edge 36, Type (0, 0), BuildingBlock: ZUJKAS_clean_linker_0, # of connection points: 2
#     Edge 37, Type (0, 0), BuildingBlock: ZUJKAS_clean_linker_0, # of connection points: 2
#     Edge 38, Type (0, 0), BuildingBlock: ZUJKAS_clean_linker_0, # of connection points: 2
#     Edge 39, Type (0, 0), BuildingBlock: ZUJKAS_clean_linker_0, # of connection points: 2
#     Edge 40, Type (0, 0), BuildingBlock: ZUJKAS_clean_linker_0, # of connection points: 2
#     Edge 41, Type (0, 0), BuildingBlock: ZUJKAS_clean_linker_0, # of connection points: 2
#     Edge 42, Type (0, 0), BuildingBlock: ZUJKAS_clean_linker_0, # of connection points: 2
#     Edge 43, Type (0, 0), BuildingBlock: ZUJKAS_clean_linker_0, # of connection points: 2
#     Edge 44, Type (0, 0), BuildingBlock: ZUJKAS_clean_linker_0, # of connection points: 2
#     Edge 45, Type (0, 0), BuildingBlock: ZUJKAS_clean_linker_0, # of connection points: 2
#     Edge 46, Type (0, 0), BuildingBlock: ZUJKAS_clean_linker_0, # of connection points: 2
#     Edge 47, Type (0, 0), BuildingBlock: ZUJKAS_clean_linker_0, # of connection points: 2
#     Edge 48, Type (0, 0), BuildingBlock: ZUJKAS_clean_linker_0, # of connection points: 2
#     Edge 49, Type (0, 0), BuildingBlock: ZUJKAS_clean_linker_0, # of connection points: 2
#     Edge 50, Type (0, 0), BuildingBlock: ZUJKAS_clean_linker_0, # of connection points: 2
#     Edge 51, Type (0, 0), BuildingBlock: ZUJKAS_clean_linker_0, # of connection points: 2
#     Edge 52, Type (0, 0), BuildingBlock: ZUJKAS_clean_linker_0, # of connection points: 2
#     Edge 53, Type (0, 0), BuildingBlock: ZUJKAS_clean_linker_0, # of connection points: 2
#     Edge 54, Type (0, 0), BuildingBlock: ZUJKAS_clean_linker_0, # of connection points: 2
#     Edge 55, Type (0, 0), BuildingBlock: ZUJKAS_clean_linker_0, # of connection points: 2
#     Edge 56, Type (0, 0), BuildingBlock: ZUJKAS_clean_linker_0, # of connection points: 2
#     Edge 57, Type (0, 0), BuildingBlock: ZUJKAS_clean_linker_0, # of connection points: 2
#     Edge 58, Type (0, 0), BuildingBlock: ZUJKAS_clean_linker_0, # of connection points: 2
#     Edge 59, Type (0, 0), BuildingBlock: ZUJKAS_clean_linker_0, # of connection points: 2
#     Edge 60, Type (0, 0), BuildingBlock: ZUJKAS_clean_linker_0, # of connection points: 2
#     Edge 61, Type (0, 0), BuildingBlock: ZUJKAS_clean_linker_0, # of connection points: 2
#     Edge 62, Type (0, 0), BuildingBlock: ZUJKAS_clean_linker_0, # of connection points: 2
#     Edge 63, Type (0, 0), BuildingBlock: ZUJKAS_clean_linker_0, # of connection points: 2
#     Edge 64, Type (0, 0), BuildingBlock: ZUJKAS_clean_linker_0, # of connection points: 2
#     Edge 65, Type (0, 0), BuildingBlock: ZUJKAS_clean_linker_0, # of connection points: 2
#     Edge 66, Type (0, 0), BuildingBlock: ZUJKAS_clean_linker_0, # of connection points: 2
#     Edge 67, Type (0, 0), BuildingBlock: ZUJKAS_clean_linker_0, # of connection points: 2
#     Edge 68, Type (0, 0), BuildingBlock: ZUJKAS_clean_linker_0, # of connection points: 2
#     Edge 69, Type (0, 0), BuildingBlock: ZUJKAS_clean_linker_0, # of connection points: 2
#     Edge 70, Type (0, 0), BuildingBlock: ZUJKAS_clean_linker_0, # of connection points: 2
#     Edge 71, Type (0, 0), BuildingBlock: ZUJKAS_clean_linker_0, # of connection points: 2
#     Edge 72, Type (0, 0), BuildingBlock: ZUJKAS_clean_linker_0, # of connection points: 2
#     Edge 73, Type (0, 0), BuildingBlock: ZUJKAS_clean_linker_0, # of connection points: 2
#     Edge 74, Type (0, 0), BuildingBlock: ZUJKAS_clean_linker_0, # of connection points: 2
#     Edge 75, Type (0, 0), BuildingBlock: ZUJKAS_clean_linker_0, # of connection points: 2
#     Edge 76, Type (0, 0), BuildingBlock: ZUJKAS_clean_linker_0, # of connection points: 2
#     Edge 77, Type (0, 0), BuildingBlock: ZUJKAS_clean_linker_0, # of connection points: 2
#     Edge 78, Type (0, 0), BuildingBlock: ZUJKAS_clean_linker_0, # of connection points: 2
#     Edge 79, Type (0, 0), BuildingBlock: ZUJKAS_clean_linker_0, # of connection points: 2
#     Edge 80, Type (0, 0), BuildingBlock: ZUJKAS_clean_linker_0, # of connection points: 2
#     Edge 81, Type (0, 0), BuildingBlock: ZUJKAS_clean_linker_0, # of connection points: 2
#     Edge 82, Type (0, 0), BuildingBlock: ZUJKAS_clean_linker_0, # of connection points: 2
#     Edge 83, Type (0, 0), BuildingBlock: ZUJKAS_clean_linker_0, # of connection points: 2
#     Edge 84, Type (0, 0), BuildingBlock: ZUJKAS_clean_linker_0, # of connection points: 2
#     Edge 85, Type (0, 0), BuildingBlock: ZUJKAS_clean_linker_0, # of connection points: 2
#     Edge 86, Type (0, 0), BuildingBlock: ZUJKAS_clean_linker_0, # of connection points: 2
#     Edge 87, Type (0, 0), BuildingBlock: ZUJKAS_clean_linker_0, # of connection points: 2
#     Edge 88, Type (0, 0), BuildingBlock: ZUJKAS_clean_linker_0, # of connection points: 2
#     Edge 89, Type (0, 0), BuildingBlock: ZUJKAS_clean_linker_0, # of connection points: 2
#     Edge 90, Type (0, 0), BuildingBlock: ZUJKAS_clean_linker_0, # of connection points: 2
#     Edge 91, Type (0, 0), BuildingBlock: ZUJKAS_clean_linker_0, # of connection points: 2
#     Edge 92, Type (0, 0), BuildingBlock: ZUJKAS_clean_linker_0, # of connection points: 2
#     Edge 93, Type (0, 0), BuildingBlock: ZUJKAS_clean_linker_0, # of connection points: 2
#     Edge 94, Type (0, 0), BuildingBlock: ZUJKAS_clean_linker_0, # of connection points: 2
#     Edge 95, Type (0, 0), BuildingBlock: ZUJKAS_clean_linker_0, # of connection points: 2
# Relax obj value: 0.006
# Max RMSD: 0.166
# Mean RMSD: 0.166
data_MOF--net-ukj--node1-KOZSID_clean_sbu_0--edge1-ZUJKAS_clean_linker_0
_symmetry_space_group_name_H-M    P1
_symmetry_Int_Tables_number       1
_symmetry_cell_setting            triclinic
loop_
_symmetry_equiv_pos_as_xyz
'x, y, z'
_cell_length_a     55.436094
_cell_length_b     94.527935
_cell_length_c     78.582453
_cell_angle_alpha  89.985021
_cell_angle_beta   89.996298
_cell_angle_gamma 90.004375
loop_
_atom_site_label
_atom_site_type_symbol
_atom_site_fract_x
_atom_site_fract_y
_atom_site_fract_z
_atom_type_partial_charge
C0 C 0.18154 0.34812 0.28702 0.0
C1 C 0.16986 0.36066 0.29113 0.0
C2 C 0.1603 0.36578 0.27638 0.0
C3 C 0.1665 0.35609 0.26419 0.0
N4 N 0.17928 0.34501 0.27024 0.0
Co5 Co 0.19103 0.32836 0.2568 0.0
N6 N 0.18012 0.33705 0.23484 0.0
C7 C 0.17063 0.35009 0.23275 0.0
C8 C 0.16517 0.35331 0.2162 0.0
C9 C 0.17124 0.34153 0.20716 0.0
C10 C 0.17989 0.33173 0.21883 0.0
N11 N 0.20118 0.31129 0.2434 0.0
C12 C 0.19702 0.30791 0.22682 0.0
C13 C 0.20455 0.29428 0.22312 0.0
C14 C 0.21344 0.28875 0.23793 0.0
C15 C 0.21071 0.29927 0.24981 0.0
N16 N 0.20363 0.32027 0.27872 0.0
C17 C 0.21532 0.30782 0.28059 0.0
C18 C 0.22347 0.30548 0.29683 0.0
C19 C 0.21697 0.31727 0.30581 0.0
C20 C 0.20505 0.32611 0.29452 0.0
N21 N 0.15894 0.31884 0.25991 0.0
C22 C 0.11659 0.30181 0.25922 0.0
C23 C 0.13658 0.2981 0.26909 0.0
C24 C 0.15718 0.30664 0.26932 0.0
C25 C 0.11757 0.31485 0.25068 0.0
C26 C 0.13865 0.32318 0.2513 0.0
N27 N 0.22334 0.33745 0.25366 0.0
C28 C 0.2669 0.33513 0.25253 0.0
C29 C 0.27011 0.3498 0.2525 0.0
C30 C 0.24922 0.35821 0.25237 0.0
C31 C 0.22619 0.35188 0.25293 0.0
C32 C 0.24375 0.32927 0.25307 0.0
H33 H 0.21092 0.35882 0.25303 0.0
H34 H 0.24293 0.31802 0.25325 0.0
H35 H 0.17162 0.30282 0.27697 0.0
H36 H 0.1383 0.33294 0.24437 0.0
C37 C 0.16374 0.35811 0.24677 0.0
C38 C 0.1956 0.34 0.29931 0.0
C39 C 0.18527 0.31711 0.21435 0.0
C40 C 0.21729 0.29835 0.26697 0.0
H41 H 0.16899 0.3658 0.30342 0.0
H42 H 0.15092 0.37572 0.27463 0.0
H43 H 0.15659 0.3628 0.21139 0.0
H44 H 0.16852 0.34007 0.19363 0.0
H45 H 0.20339 0.28885 0.21102 0.0
H46 H 0.22071 0.27825 0.23986 0.0
H47 H 0.23301 0.2963 0.30158 0.0
H48 H 0.22063 0.31919 0.31914 0.0
H49 H 0.13655 0.28847 0.27656 0.0
H50 H 0.10248 0.31842 0.24305 0.0
H51 H 0.28228 0.32807 0.25213 0.0
H52 H 0.25057 0.36964 0.25228 0.0
C53 C 0.09687 0.90651 0.28897 0.0
C54 C 0.10885 0.89428 0.29392 0.0
C55 C 0.11927 0.88885 0.27964 0.0
C56 C 0.11325 0.89809 0.26691 0.0
N57 N 0.0998 0.90917 0.27213 0.0
Co58 Co 0.08813 0.92526 0.25767 0.0
N59 N 0.10052 0.91612 0.23632 0.0
C60 C 0.11103 0.90325 0.23518 0.0
C61 C 0.11848 0.89979 0.21912 0.0
C62 C 0.11254 0.91116 0.20937 0.0
C63 C 0.10153 0.92096 0.22006 0.0
N64 N 0.07801 0.94178 0.24329 0.0
C65 C 0.08211 0.94459 0.22654 0.0
C66 C 0.07354 0.95787 0.22206 0.0
C67 C 0.06423 0.96378 0.2365 0.0
C68 C 0.06758 0.95382 0.24897 0.0
N69 N 0.07426 0.93381 0.27895 0.0
C70 C 0.06197 0.94613 0.28 0.0
C71 C 0.05297 0.94883 0.29594 0.0
C72 C 0.05952 0.93741 0.30559 0.0
C73 C 0.07232 0.92842 0.29497 0.0
N74 N 0.11973 0.93528 0.26112 0.0
C75 C 0.1619 0.95249 0.26069 0.0
C76 C 0.14092 0.95677 0.26913 0.0
C77 C 0.12042 0.94813 0.26925 0.0
C78 C 0.16186 0.9389 0.25351 0.0
C79 C 0.14084 0.9305 0.25397 0.0
N80 N 0.05628 0.91565 0.25413 0.0
C81 C 1.0128 0.91743 0.25109 0.0
C82 C 1.00999 0.90275 0.25165 0.0
C83 C 0.03106 0.89458 0.25323 0.0
C84 C 0.05386 0.90119 0.25428 0.0
C85 C 0.03569 0.92356 0.25234 0.0
H86 H 0.06931 0.89443 0.25532 0.0
H87 H 0.03609 0.93481 0.2521 0.0
H88 H 0.10518 0.95235 0.27572 0.0
H89 H 0.14194 0.92031 0.24809 0.0
C90 C 0.11718 0.8957 0.24971 0.0
C91 C 0.08194 0.91478 0.30058 0.0
C92 C 0.09404 0.93508 0.21444 0.0
C93 C 0.06012 0.95511 0.26591 0.0
H94 H 0.10941 0.88954 0.30645 0.0
H95 H 0.12919 0.87903 0.27855 0.0
H96 H 0.12837 0.89048 0.21517 0.0
H97 H 0.11698 0.91224 0.19604 0.0
H98 H 0.07405 0.9628 0.20963 0.0
H99 H 0.05597 0.9741 0.23776 0.0
H100 H 0.04279 0.95798 0.30005 0.0
H101 H 0.05527 0.93583 0.31889 0.0
H102 H 0.14011 0.96689 0.27554 0.0
H103 H 0.17767 0.93489 0.24702 0.0
H104 H 0.99724 0.92432 0.25013 0.0
H105 H 0.03001 0.88315 0.25352 0.0
C106 C 0.17817 0.90735 0.96944 0.0
C107 C 0.16624 0.89506 0.96464 0.0
C108 C 0.15601 0.88967 0.979 0.0
C109 C 0.16209 0.89897 0.99164 0.0
N110 N 0.17535 0.91009 0.98627 0.0
Co111 Co 0.1874 0.92618 1.00057 0.0
N112 N 0.1755 0.91702 0.02206 0.0
C113 C 0.16465 0.90425 0.02332 0.0
C114 C 0.15749 0.90084 0.03945 0.0
C115 C 0.16396 0.91213 0.04915 0.0
C116 C 0.17499 0.92184 0.03834 0.0
N117 N 0.19833 0.94258 0.01485 0.0
C118 C 0.19493 0.94531 0.03169 0.0
C119 C 0.20399 0.95848 0.03614 0.0
C120 C 0.21289 0.96441 0.02158 0.0
C121 C 0.20885 0.95457 0.00909 0.0
N122 N 0.20044 0.93485 0.97906 0.0
C123 C 0.21243 0.94726 0.97776 0.0
C124 C 0.22089 0.94999 0.96169 0.0
C125 C 0.21433 0.93849 0.9522 0.0
C126 C 0.20208 0.92942 0.96304 0.0
N127 N 0.15569 0.93627 0.99771 0.0
C128 C 0.1132 0.95324 0.99873 0.0
C129 C 0.13436 0.95803 0.99097 0.0
C130 C 0.15497 0.9495 0.9905 0.0
C131 C 0.11327 0.93933 0.00498 0.0
C132 C 0.13448 0.93107 1.00429 0.0
N133 N 0.21931 0.91649 1.0035 0.0
C134 C 0.26302 0.918 1.00355 0.0
C135 C 0.26545 0.90331 1.00438 0.0
C136 C 0.24415 0.89531 0.00545 0.0
C137 C 0.2214 0.90205 0.00491 0.0
C138 C 0.24019 0.92427 1.00328 0.0
H139 H 0.20572 0.89544 0.00539 0.0
H140 H 0.23999 0.9355 1.00265 0.0
H141 H 0.17027 0.95409 0.98452 0.0
H142 H 0.13342 0.92064 0.00949 0.0
C143 C 0.15827 0.89666 0.00887 0.0
C144 C 0.19292 0.9156 0.9577 0.0
C145 C 0.18306 0.93586 0.04391 0.0
C146 C 0.21524 0.95609 0.99193 0.0
H147 H 0.1656 0.89027 0.95214 0.0
H148 H 0.14617 0.87982 0.98021 0.0
H149 H 0.14751 0.89159 0.04352 0.0
H150 H 0.15989 0.91322 0.06253 0.0
H151 H 0.20398 0.96334 0.04861 0.0
H152 H 0.22123 0.97471 0.02025 0.0
H153 H 0.23093 0.95915 0.95743 0.0
H154 H 0.21835 0.93687 0.93886 0.0
H155 H 0.13518 0.96847 0.98531 0.0
H156 H 0.09729 0.93495 0.01092 0.0
H157 H 0.27882 0.92474 1.00314 0.0
H158 H 0.245 0.88388 0.00623 0.0
C159 C 0.1007 0.35017 0.97322 0.0
C160 C 0.11197 0.36295 0.96963 0.0
C161 C 0.12076 0.36797 0.98466 0.0
C162 C 0.11442 0.35803 0.99653 0.0
N163 N 0.10225 0.34689 0.99001 0.0
Co164 Co 0.08996 0.3301 1.003 0.0
N165 N 0.09982 0.33862 0.02531 0.0
C166 C 0.1091 0.35167 0.02778 0.0
C167 C 0.11374 0.35475 0.0445 0.0
C168 C 0.10741 0.34285 0.05323 0.0
C169 C 0.09949 0.33312 0.04122 0.0
N170 N 0.07915 0.31295 0.01599 0.0
C171 C 0.0827 0.3094 0.03259 0.0
C172 C 0.07506 0.29571 0.03595 0.0
C173 C 0.06675 0.29033 0.0209 0.0
C174 C 0.0699 0.30097 0.00923 0.0
N175 N 0.07851 0.32215 0.9807 0.0
C176 C 0.06716 0.30964 0.97839 0.0
C177 C 0.05986 0.30739 0.96193 0.0
C178 C 0.06657 0.31931 0.95326 0.0
C179 C 0.07771 0.32814 0.96495 0.0
N180 N 0.12225 0.32063 1.00063 0.0
C181 C 0.16434 0.30347 1.00289 0.0
C182 C 0.145 0.29977 0.99238 0.0
C183 C 0.12452 0.30839 0.99137 0.0
C184 C 0.16297 0.31659 0.0112 0.0
C185 C 0.14205 0.325 0.00977 0.0
N186 N 0.05749 0.33915 0.00548 0.0
C187 C 1.01387 0.33691 0.00499 0.0
C188 C 1.01077 0.35154 0.00633 0.0
C189 C 0.03164 0.35985 0.00779 0.0
C190 C 0.05465 0.35351 0.00727 0.0
C191 C 0.03702 0.33102 0.00471 0.0
H192 H 0.06993 0.3604 0.0081 0.0
H193 H 0.03784 0.3198 1.00367 0.0
H194 H 0.11056 0.3046 0.98327 0.0
H195 H 0.14208 0.33482 0.01657 0.0
C196 C 0.11646 0.35986 0.01403 0.0
C197 C 0.08749 0.34203 0.96045 0.0
C198 C 0.09427 0.3184 0.04534 0.0
C199 C 0.06447 0.3001 0.99187 0.0
H200 H 0.113 0.36838 0.95753 0.0
H201 H 0.12964 0.37801 0.98681 0.0
H202 H 0.12194 0.36423 0.04963 0.0
H203 H 0.10947 0.34127 0.06679 0.0
H204 H 0.07589 0.29012 0.04795 0.0
H205 H 0.05973 0.27981 0.01866 0.0
H206 H 0.05072 0.2982 0.95684 0.0
H207 H 0.06364 0.32128 0.93985 0.0
H208 H 0.14542 0.29009 0.98502 0.0
H209 H 0.17756 0.32017 0.01927 0.0
H210 H 0.99841 0.32993 1.00422 0.0
H211 H 0.03027 0.37125 0.0089 0.0
C212 C 0.83181 0.6793 0.7143 0.0
C213 C 0.81776 0.6875 0.70351 0.0
C214 C 0.80448 0.69639 0.71363 0.0
C215 C 0.81116 0.69319 0.73 0.0
N216 N 0.82819 0.68303 0.73081 0.0
Co217 Co 0.8413 0.67475 0.75219 0.0
N218 N 0.8287 0.69055 0.76631 0.0
C219 C 0.8117 0.69991 0.76165 0.0
C220 C 0.80755 0.71 0.7739 0.0
C221 C 0.82293 0.70675 0.78706 0.0
C222 C 0.83557 0.69479 0.7821 0.0
N223 N 0.85382 0.66628 0.77353 0.0
C224 C 0.85798 0.67239 0.78879 0.0
C225 C 0.86642 0.66255 0.8005 0.0
C226 C 0.86778 0.64988 0.79212 0.0
C227 C 0.86003 0.65267 0.77587 0.0
N228 N 0.8544 0.6589 0.7383 0.0
C229 C 0.8618 0.64629 0.74441 0.0
C230 C 0.86929 0.63713 0.73199 0.0
C231 C 0.86602 0.64426 0.71704 0.0
C232 C 0.85659 0.65746 0.72118 0.0
N233 N 0.87161 0.68551 0.74927 0.0
C234 C 0.91349 0.70264 0.7487 0.0
C235 C 0.91466 0.68827 0.75332 0.0
C236 C 0.89361 0.67987 0.75336 0.0
C237 C 0.89091 0.70803 0.744 0.0
C238 C 0.87041 0.69941 0.74442 0.0
N239 N 0.81051 0.6644 0.7552 0.0
C240 C 0.77654 0.65208 0.74281 0.0
C241 C 0.76319 0.65328 0.75794 0.0
C242 C 0.77479 0.65956 0.77196 0.0
C243 C 0.79835 0.66493 0.77037 0.0
C244 C 0.79991 0.65766 0.74171 0.0
H245 H 0.80642 0.66995 0.78131 0.0
H246 H 0.80905 0.65684 0.72969 0.0
H247 H 0.89505 0.66891 0.75706 0.0
H248 H 0.8534 0.70422 0.74132 0.0
C249 C 0.80375 0.7004 0.74472 0.0
C250 C 0.84633 0.66717 0.70846 0.0
C251 C 0.85326 0.68727 0.79273 0.0
C252 C 0.8631 0.64378 0.7619 0.0
H253 H 0.81676 0.68688 0.68977 0.0
H254 H 0.79166 0.70432 0.70951 0.0
H255 H 0.79569 0.71907 0.77305 0.0
H256 H 0.82475 0.71256 0.79885 0.0
H257 H 0.87126 0.66436 0.81367 0.0
H258 H 0.87479 0.64 0.79704 0.0
H259 H 0.87622 0.62651 0.73359 0.0
H260 H 0.86921 0.63993 0.7045 0.0
H261 H 0.9317 0.68352 0.75689 0.0
H262 H 0.88882 0.71906 0.74055 0.0
H263 H 0.76895 0.64697 0.73171 0.0
H264 H 0.7655 0.66081 0.78398 0.0
C265 C 0.94504 0.07784 0.71602 0.0
C266 C 0.95792 0.06967 0.70447 0.0
C267 C 0.97158 0.0604 0.71381 0.0
C268 C 0.96623 0.06331 0.7305 0.0
N269 N 0.94967 0.07366 0.73226 0.0
Co270 Co 0.93809 0.08141 0.75435 0.0
N271 N 0.95111 0.06508 0.7674 0.0
C272 C 0.96755 0.05572 0.76183 0.0
C273 C 0.97222 0.04525 0.77352 0.0
C274 C 0.95778 0.04824 0.78728 0.0
C275 C 0.94515 0.06044 0.78321 0.0
N276 N 0.92704 0.08931 0.7764 0.0
C277 C 0.9236 0.08277 0.7915 0.0
C278 C 0.91601 0.09229 0.80385 0.0
C279 C 0.91448 0.10523 0.79605 0.0
C280 C 0.92128 0.10288 0.7795 0.0
N281 N 0.92468 0.09779 0.74152 0.0
C282 C 0.91812 0.11028 0.74839 0.0
C283 C 0.91046 0.11996 0.73659 0.0
C284 C 0.9127 0.11329 0.72125 0.0
C285 C 0.92168 0.09981 0.72453 0.0
N286 N 0.90735 0.07104 0.7519 0.0
C287 C 0.86499 0.05436 0.75235 0.0
C288 C 0.86455 0.06865 0.75733 0.0
C289 C 0.88582 0.07683 0.75685 0.0
C290 C 0.88704 0.04882 0.74671 0.0
C291 C 0.9078 0.05724 0.74663 0.0
N292 N 0.96925 0.0914 0.75692 0.0
C293 C 1.00261 0.10412 0.74431 0.0
C294 C 0.01656 0.10258 0.75913 0.0
C295 C 1.00563 0.09582 0.7731 0.0
C296 C 0.98206 0.09044 0.77177 0.0
C297 C 0.97927 0.09848 0.74346 0.0
H298 H 0.97448 0.08511 0.78268 0.0
H299 H 0.96963 0.0996 0.73166 0.0
H300 H 0.88496 0.08773 0.76089 0.0
H301 H 0.92444 0.05233 0.74281 0.0
C302 C 0.97436 0.05563 0.74466 0.0
C303 C 0.93065 0.09031 0.71111 0.0
C304 C 0.92833 0.06776 0.7947 0.0
C305 C 0.91779 0.11224 0.76601 0.0
H306 H 0.95788 0.07055 0.69074 0.0
H307 H 0.98372 0.05239 0.70898 0.0
H308 H 0.98377 0.03611 0.77192 0.0
H309 H 0.95656 0.0421 0.79886 0.0
H310 H 0.91187 0.09011 0.81705 0.0
H311 H 0.90799 0.115 0.80159 0.0
H312 H 0.90411 0.13062 0.73886 0.0
H313 H 0.90914 0.11811 0.70902 0.0
H314 H 0.84793 0.0735 0.7616 0.0
H315 H 0.88855 0.03784 0.74293 0.0
H316 H 1.00967 0.10959 0.73328 0.0
H317 H 0.01541 0.09424 0.78486 0.0
C318 C 0.82946 0.0755 0.04462 0.0
C319 C 0.81546 0.06773 0.0559 0.0
C320 C 0.80177 0.05867 0.04631 0.0
C321 C 0.8081 0.06138 0.02975 0.0
N322 N 0.82531 0.07139 0.02828 0.0
Co323 Co 0.83768 0.07917 0.00635 0.0
N324 N 0.8237 0.06333 0.99291 0.0
C325 C 0.80673 0.0542 0.99828 0.0
C326 C 0.80138 0.04402 0.98638 0.0
C327 C 0.81591 0.04696 0.97266 0.0
C328 C 0.82925 0.05884 0.97695 0.0
N329 N 0.84957 0.08712 0.9845 0.0
C330 C 0.85233 0.0808 0.96917 0.0
C331 C 0.86074 0.09034 0.95709 0.0
C332 C 0.86363 0.10301 0.96527 0.0
C333 C 0.85672 0.10053 0.98177 0.0
N334 N 0.85206 0.09505 0.01958 0.0
C335 C 0.86061 0.10725 0.01303 0.0
C336 C 0.86974 0.11627 0.02505 0.0
C337 C 0.86631 0.10952 0.04023 0.0
C338 C 0.85494 0.09677 0.03661 0.0
N339 N 0.86771 0.06806 0.0088 0.0
C340 C 0.90903 0.0504 0.0083 0.0
C341 C 0.91051 0.06483 1.00393 0.0
C342 C 0.88975 0.07345 1.00432 0.0
C343 C 0.88647 0.04531 0.01361 0.0
C344 C 0.86627 0.0542 0.01372 0.0
N345 N 0.80718 0.0899 1.00378 0.0
C346 C 0.77401 0.10272 0.01653 0.0
C347 C 0.76035 0.10175 1.00153 0.0
C348 C 0.77129 0.09521 0.98743 0.0
C349 C 0.7946 0.08946 0.98878 0.0
C350 C 0.7972 0.09683 0.01736 0.0
H351 H 0.80218 0.08432 0.97776 0.0
H352 H 0.80664 0.09754 0.02926 0.0
H353 H 0.89141 0.08437 1.00052 0.0
H354 H 0.84928 0.04963 0.01737 0.0
C355 C 0.79975 0.05404 0.01541 0.0
C356 C 0.84385 0.08786 0.0498 0.0
C357 C 0.84629 0.06603 0.96549 0.0
C358 C 0.86134 0.10946 0.99548 0.0
H359 H 0.81462 0.06883 0.0696 0.0
H360 H 0.78875 0.05103 0.05088 0.0
H361 H 0.78927 0.03512 0.9878 0.0
H362 H 0.81669 0.04097 0.96095 0.0
H363 H 0.86457 0.08834 0.9438 0.0
H364 H 0.87106 0.11265 0.96001 0.0
H365 H 0.87791 0.12654 0.02304 0.0
H366 H 0.87071 0.11378 0.05263 0.0
H367 H 0.92741 0.06938 0.99971 0.0
H368 H 0.88423 0.03443 0.0176 0.0
H369 H 0.76657 0.10756 0.02786 0.0
H370 H 0.76188 0.09444 0.97539 0.0
C371 C 0.94668 0.6794 0.04292 0.0
C372 C 0.95376 0.68952 0.05469 0.0
C373 C 0.95554 0.70208 0.04604 0.0
C374 C 0.94964 0.69896 0.02949 0.0
N375 N 0.94431 0.68522 0.02716 0.0
Co376 Co 0.93606 0.67609 0.00503 0.0
N377 N 0.94828 0.69248 0.99157 0.0
C378 C 0.95314 0.70543 0.9979 0.0
C379 C 0.96 0.71498 0.98566 0.0
C380 C 0.95892 0.7077 0.97061 0.0
C381 C 0.95134 0.69409 0.97451 0.0
N382 N 0.92803 0.66664 0.98305 0.0
C383 C 0.9339 0.67011 0.96678 0.0
C384 C 0.92389 0.66052 0.95534 0.0
C385 C 0.91088 0.65102 0.96467 0.0
C386 C 0.91366 0.65523 0.98122 0.0
N387 N 0.9233 0.6599 0.01847 0.0
C388 C 0.90823 0.64981 0.01273 0.0
C389 C 0.90179 0.64019 0.02497 0.0
C390 C 0.91358 0.64444 0.03937 0.0
C391 C 0.92671 0.65643 0.03502 0.0
N392 N 0.90384 0.68523 0.00544 0.0
C393 C 0.86166 0.70214 0.00608 0.0
C394 C 0.87353 0.69905 0.99079 0.0
C395 C 0.89433 0.69068 0.99075 0.0
C396 C 0.8709 0.69601 0.02104 0.0
C397 C 0.89176 0.68748 0.02042 0.0
N398 N 0.96852 0.66739 0.00462 0.0
C399 C 0.99504 0.64717 1.00166 0.0
C400 C 0.01558 0.6556 0.00467 0.0
C401 C 1.01172 0.67008 0.00748 0.0
C402 C 0.98834 0.67568 0.0075 0.0
C403 C 0.97179 0.65325 1.00166 0.0
H404 H 0.98644 0.68682 0.0099 0.0
H405 H 0.95647 0.64648 0.99935 0.0
H406 H 0.90307 0.68911 0.97875 0.0
H407 H 0.89845 0.68305 0.03216 0.0
C408 C 0.9529 0.70789 0.01547 0.0
C409 C 0.94124 0.66456 0.04715 0.0
C410 C 0.94456 0.68365 0.96145 0.0
C411 C 0.9042 0.64825 0.99535 0.0
H412 H 0.95742 0.68799 0.06809 0.0
H413 H 0.96152 0.71215 0.05108 0.0
H414 H 0.96521 0.72591 0.98746 0.0
H415 H 0.96253 0.71204 0.95812 0.0
H416 H 0.92476 0.66073 0.9416 0.0
H417 H 0.90045 0.64218 0.95992 0.0
H418 H 0.89072 0.63084 0.02345 0.0
H419 H 0.91262 0.63928 0.05165 0.0
H420 H 0.86741 0.70355 0.97887 0.0
H421 H 0.86218 0.69783 0.03317 0.0
H422 H 0.99676 0.6359 0.99956 0.0
H423 H 0.0267 0.67723 0.00949 0.0
C424 C 0.17896 0.84751 0.78652 0.0
C425 C 0.16769 0.86025 0.79036 0.0
C426 C 0.1588 0.86545 0.77546 0.0
C427 C 0.16509 0.85566 0.76341 0.0
N428 N 0.17734 0.84445 0.76968 0.0
Co429 Co 0.18967 0.82784 0.75635 0.0
N430 N 0.17851 0.8363 0.73433 0.0
C431 C 0.16897 0.84931 0.73205 0.0
C432 C 0.16327 0.85232 0.71548 0.0
C433 C 0.16917 0.84041 0.70663 0.0
C434 C 0.17795 0.83076 0.71844 0.0
N435 N 0.2007 0.8109 0.74302 0.0
C436 C 0.19644 0.80734 0.7265 0.0
C437 C 0.20494 0.7939 0.7228 0.0
C438 C 0.21458 0.78868 0.73754 0.0
C439 C 0.21131 0.79916 0.74939 0.0
N440 N 0.20202 0.81983 0.77839 0.0
C441 C 0.21426 0.80756 0.78035 0.0
C442 C 0.22195 0.80524 0.7967 0.0
C443 C 0.21454 0.81684 0.80568 0.0
C444 C 0.20265 0.82559 0.79426 0.0
N445 N 0.15782 0.81804 0.75929 0.0
C446 C 0.11463 0.80168 0.75929 0.0
C447 C 0.1358 0.79676 0.76694 0.0
C448 C 0.15678 0.80499 0.76688 0.0
C449 C 0.11533 0.81532 0.75218 0.0
C450 C 0.13685 0.82331 0.75246 0.0
N451 N 0.22183 0.83732 0.75337 0.0
C452 C 0.26557 0.83565 0.75333 0.0
C453 C 0.26816 0.85032 0.75221 0.0
C454 C 0.24696 0.85838 0.75105 0.0
C455 C 0.22417 0.85173 0.75172 0.0
C456 C 0.24265 0.82947 0.75374 0.0
H457 H 0.20869 0.85846 0.75111 0.0
H458 H 0.24237 0.81826 0.75457 0.0
H459 H 0.17214 0.80029 0.77269 0.0
H460 H 0.13626 0.83363 0.74684 0.0
C461 C 0.16237 0.85755 0.74595 0.0
C462 C 0.19226 0.83924 0.79912 0.0
C463 C 0.18354 0.81612 0.71416 0.0
C464 C 0.21752 0.79828 0.76664 0.0
H465 H 0.16666 0.86551 0.80257 0.0
H466 H 0.14975 0.87547 0.77353 0.0
H467 H 0.15469 0.86175 0.71055 0.0
H468 H 0.16637 0.83879 0.69314 0.0
H469 H 0.20383 0.78835 0.71078 0.0
H470 H 0.22248 0.77833 0.73948 0.0
H471 H 0.23182 0.79621 0.80152 0.0
H472 H 0.21758 0.81869 0.8191 0.0
H473 H 0.13661 0.7863 0.77253 0.0
H474 H 0.09937 0.81985 0.74639 0.0
H475 H 0.28129 0.82886 0.75383 0.0
H476 H 0.2479 0.8698 0.75009 0.0
C477 C 0.09995 0.40948 0.78947 0.0
C478 C 0.1118 0.39717 0.7943 0.0
C479 C 0.12213 0.39177 0.77998 0.0
C480 C 0.11617 0.40109 0.76732 0.0
N481 N 0.10284 0.4122 0.77264 0.0
Co482 Co 0.09103 0.42833 0.75827 0.0
N483 N 0.10342 0.41928 0.73687 0.0
C484 C 0.1141 0.40647 0.73563 0.0
C485 C 0.12145 0.40308 0.71953 0.0
C486 C 0.11523 0.41443 0.70983 0.0
C487 C 0.10417 0.42415 0.72061 0.0
N488 N 0.08055 0.44484 0.74398 0.0
C489 C 0.08432 0.44764 0.7272 0.0
C490 C 0.07541 0.46084 0.72273 0.0
C491 C 0.06616 0.46671 0.73723 0.0
C492 C 0.0699 0.4568 0.7497 0.0
N493 N 0.07738 0.43686 0.77965 0.0
C494 C 0.06506 0.44917 0.78082 0.0
C495 C 0.05626 0.45183 0.79682 0.0
C496 C 0.06297 0.44041 0.80639 0.0
C497 C 0.07563 0.43144 0.79567 0.0
N498 N 0.12261 0.43839 0.76164 0.0
C499 C 0.16536 0.45516 0.76184 0.0
C500 C 0.1439 0.45997 0.76919 0.0
C501 C 0.12315 0.45153 0.76906 0.0
C502 C 0.16522 0.44142 0.75506 0.0
C503 C 0.14394 0.43324 0.75524 0.0
N504 N 0.05923 0.41866 0.75482 0.0
C505 C 0.01566 0.42028 0.75236 0.0
C506 C 1.01309 0.40557 0.7522 0.0
C507 C 0.03432 0.39749 0.75317 0.0
C508 C 0.05704 0.40418 0.75433 0.0
C509 C 0.03848 0.42649 0.75364 0.0
H510 H 0.07261 0.39749 0.75493 0.0
H511 H 0.0387 0.43774 0.75389 0.0
H512 H 0.10759 0.45615 0.77468 0.0
H513 H 0.14506 0.42287 0.74986 0.0
C514 C 0.12017 0.3988 0.7501 0.0
C515 C 0.08522 0.41776 0.80117 0.0
C516 C 0.09621 0.43817 0.71503 0.0
C517 C 0.06272 0.45811 0.76671 0.0
H518 H 0.11235 0.39237 0.8068 0.0
H519 H 0.13198 0.38193 0.77881 0.0
H520 H 0.13134 0.3938 0.71549 0.0
H521 H 0.1194 0.41555 0.69647 0.0
H522 H 0.07564 0.46575 0.71029 0.0
H523 H 0.0577 0.47697 0.73851 0.0
H524 H 0.04604 0.46095 0.801 0.0
H525 H 0.05886 0.43879 0.81972 0.0
H526 H 0.14268 0.47049 0.77457 0.0
H527 H 0.18144 0.43695 0.74958 0.0
H528 H 1.0 0.42712 0.75193 0.0
H529 H 0.03348 0.38605 0.7529 0.0
C530 C 0.17862 0.4071 0.47062 0.0
C531 C 0.16707 0.3946 0.46609 0.0
C532 C 0.15666 0.38942 0.4805 0.0
C533 C 0.16242 0.39897 0.49295 0.0
N534 N 0.17579 0.40999 0.48742 0.0
Co535 Co 0.18765 0.42626 0.50155 0.0
N536 N 0.17513 0.4175 0.5231 0.0
C537 C 0.16436 0.40472 0.52454 0.0
C538 C 0.157 0.40152 0.54069 0.0
C539 C 0.16331 0.41295 0.55021 0.0
C540 C 0.17441 0.42253 0.53928 0.0
N541 N 0.19802 0.44294 0.51555 0.0
C542 C 0.19416 0.44597 0.53227 0.0
C543 C 0.20285 0.45929 0.53646 0.0
C544 C 0.21201 0.46499 0.52185 0.0
C545 C 0.20846 0.45488 0.50959 0.0
N546 N 0.20172 0.43442 0.4801 0.0
C547 C 0.2141 0.44669 0.47877 0.0
C548 C 0.22305 0.44916 0.46277 0.0
C549 C 0.21631 0.43766 0.45336 0.0
C550 C 0.20351 0.42883 0.46418 0.0
N551 N 0.15623 0.43636 0.49784 0.0
C552 C 0.11456 0.45394 0.49797 0.0
C553 C 0.1354 0.45776 0.48907 0.0
C554 C 0.15566 0.44894 0.4891 0.0
C555 C 0.11438 0.44056 0.50572 0.0
C556 C 0.13515 0.43196 0.50538 0.0
N557 N 0.2193 0.41657 0.50531 0.0
C558 C 0.26287 0.41819 0.50729 0.0
C559 C 0.26539 0.40348 0.50718 0.0
C560 C 0.24413 0.3954 0.50688 0.0
C561 C 0.22142 0.40211 0.50596 0.0
C562 C 0.24005 0.42441 0.5064 0.0
H563 H 0.20582 0.39542 0.50554 0.0
H564 H 0.2398 0.43567 0.50635 0.0
H565 H 0.17082 0.45283 0.48224 0.0
H566 H 0.13388 0.42195 0.51168 0.0
C567 C 0.15827 0.39694 0.51018 0.0
C568 C 0.1931 0.41536 0.45869 0.0
C569 C 0.18234 0.43663 0.54462 0.0
C570 C 0.21589 0.45592 0.49263 0.0
H571 H 0.16678 0.3895 0.45377 0.0
H572 H 0.14696 0.37955 0.48188 0.0
H573 H 0.14705 0.3923 0.54488 0.0
H574 H 0.15914 0.41422 0.56356 0.0
H575 H 0.20253 0.46437 0.5488 0.0
H576 H 0.22035 0.47527 0.52035 0.0
H577 H 0.23318 0.45827 0.45844 0.0
H578 H 0.22027 0.43596 0.44003 0.0
H579 H 0.13631 0.46767 0.4822 0.0
H580 H 0.09861 0.4369 0.51256 0.0
H581 H 0.27854 0.42501 0.50806 0.0
H582 H 0.24498 0.38396 0.50689 0.0
C583 C 0.09854 0.84755 0.47229 0.0
C584 C 0.10945 0.8604 0.46849 0.0
C585 C 0.11822 0.86563 0.48341 0.0
C586 C 0.11222 0.85574 0.49543 0.0
N587 N 0.10028 0.84443 0.48912 0.0
Co588 Co 0.08841 0.82767 0.50237 0.0
N589 N 0.09927 0.83618 0.52444 0.0
C590 C 0.10854 0.84925 0.52676 0.0
C591 C 0.11393 0.85232 0.54336 0.0
C592 C 0.10813 0.84038 0.55219 0.0
C593 C 0.09975 0.83064 0.54035 0.0
N594 N 0.07773 0.8106 0.51564 0.0
C595 C 0.08184 0.80707 0.53219 0.0
C596 C 0.07367 0.79354 0.53582 0.0
C597 C 0.06438 0.78824 0.52102 0.0
C598 C 0.06751 0.79877 0.5092 0.0
N599 N 0.0764 0.81957 0.48028 0.0
C600 C 0.06464 0.80715 0.47823 0.0
C601 C 0.05712 0.80478 0.46185 0.0
C602 C 0.06411 0.81651 0.45294 0.0
C603 C 0.07561 0.82538 0.46443 0.0
N604 N 0.12051 0.8182 0.49947 0.0
C605 C 0.16413 0.8023 0.49959 0.0
C606 C 0.14314 0.79713 0.49193 0.0
C607 C 0.12195 0.80515 0.49193 0.0
C608 C 0.16305 0.81595 0.50662 0.0
C609 C 0.14132 0.82371 0.50628 0.0
N610 N 0.05602 0.83681 0.50532 0.0
C611 C 1.01236 0.83479 0.5049 0.0
C612 C 1.00945 0.84938 0.50663 0.0
C613 C 0.0304 0.85759 0.50827 0.0
C614 C 0.05334 0.85116 0.50748 0.0
C615 C 0.03541 0.82881 0.50447 0.0
H616 H 0.06865 0.85799 0.50842 0.0
H617 H 0.03599 0.81762 0.50324 0.0
H618 H 0.10677 0.80028 0.4861 0.0
H619 H 0.1416 0.83405 0.51185 0.0
C620 C 0.11494 0.8576 0.51289 0.0
C621 C 0.08547 0.83919 0.45966 0.0
C622 C 0.09434 0.81597 0.54463 0.0
C623 C 0.06155 0.79781 0.49191 0.0
H624 H 0.11033 0.86569 0.4563 0.0
H625 H 0.12701 0.87572 0.48538 0.0
H626 H 0.12218 0.86184 0.54834 0.0
H627 H 0.11069 0.83883 0.56572 0.0
H628 H 0.07479 0.78798 0.54783 0.0
H629 H 0.0568 0.77783 0.51902 0.0
H630 H 0.04759 0.79565 0.45697 0.0
H631 H 0.06105 0.81838 0.43952 0.0
H632 H 0.14266 0.78665 0.48639 0.0
H633 H 0.17886 0.82064 0.51241 0.0
H634 H 0.99678 0.8279 0.50397 0.0
H635 H 0.02914 0.86896 0.5097 0.0
C636 C 0.82886 0.17734 0.21397 0.0
C637 C 0.8167 0.18578 0.20235 0.0
C638 C 0.80946 0.19762 0.21094 0.0
C639 C 0.81734 0.1957 0.22732 0.0
N640 N 0.82956 0.18348 0.22965 0.0
Co641 Co 0.84153 0.17589 0.252 0.0
N642 N 0.8304 0.19307 0.26482 0.0
C643 C 0.82062 0.20485 0.25795 0.0
C644 C 0.81717 0.21554 0.26949 0.0
C645 C 0.8258 0.2104 0.28457 0.0
C646 C 0.83389 0.19678 0.28137 0.0
N647 N 0.8519 0.16769 0.27435 0.0
C648 C 0.85134 0.17326 0.29023 0.0
C649 C 0.85937 0.16363 0.30233 0.0
C650 C 0.86604 0.15175 0.2937 0.0
C651 C 0.86143 0.15472 0.27695 0.0
N652 N 0.8543 0.15916 0.2392 0.0
C653 C 0.86724 0.14835 0.24577 0.0
C654 C 0.8748 0.13873 0.23389 0.0
C655 C 0.86595 0.14359 0.21881 0.0
C656 C 0.85315 0.15586 0.22242 0.0
N657 N 0.87343 0.18566 0.24924 0.0
C658 C 0.91561 0.20281 0.25009 0.0
C659 C 0.91474 0.18971 0.25851 0.0
C660 C 0.89373 0.18132 0.25782 0.0
C661 C 0.89554 0.20656 0.24031 0.0
C662 C 0.87501 0.19796 0.24001 0.0
N663 N 0.80938 0.16651 0.25482 0.0
C664 C 0.78402 0.14553 0.25628 0.0
C665 C 0.76291 0.15375 0.25591 0.0
C666 C 0.76574 0.16844 0.2556 0.0
C667 C 0.78873 0.1745 0.25509 0.0
C668 C 0.80689 0.15207 0.25573 0.0
H669 H 0.78921 0.18575 0.25471 0.0
H670 H 0.82234 0.14526 0.25584 0.0
H671 H 0.8941 0.17153 0.26469 0.0
H672 H 0.86045 0.2018 0.23249 0.0
C673 C 0.8145 0.20535 0.24068 0.0
C674 C 0.83905 0.16349 0.20966 0.0
C675 C 0.84557 0.18794 0.29425 0.0
C676 C 0.86917 0.14655 0.26329 0.0
H677 H 0.81326 0.18358 0.18906 0.0
H678 H 0.79952 0.20653 0.20587 0.0
H679 H 0.80959 0.22592 0.26717 0.0
H680 H 0.82643 0.21609 0.29651 0.0
H681 H 0.86123 0.16526 0.3159 0.0
H682 H 0.87441 0.14236 0.29892 0.0
H683 H 0.88472 0.12902 0.23604 0.0
H684 H 0.86809 0.13843 0.2066 0.0
H685 H 0.92987 0.18613 0.26609 0.0
H686 H 0.89546 0.21625 0.23296 0.0
H687 H 0.78296 0.1341 0.25657 0.0
H688 H 0.75018 0.17537 0.25579 0.0
C689 C 0.94702 0.57848 0.21373 0.0
C690 C 0.96155 0.57083 0.20267 0.0
C691 C 0.97486 0.56171 0.21244 0.0
C692 C 0.96782 0.56427 0.22889 0.0
N693 N 0.9505 0.57424 0.23011 0.0
Co694 Co 0.93725 0.58183 0.25188 0.0
N695 N 0.95075 0.56589 0.26543 0.0
C696 C 0.96794 0.55682 0.26028 0.0
C697 C 0.97295 0.5466 0.2722 0.0
C698 C 0.95798 0.54944 0.2857 0.0
C699 C 0.94471 0.56132 0.28127 0.0
N700 N 0.92453 0.58961 0.2736 0.0
C701 C 0.92128 0.58321 0.28883 0.0
C702 C 0.91233 0.59265 0.30081 0.0
C703 C 0.90962 0.60535 0.29268 0.0
C704 C 0.91716 0.60298 0.2763 0.0
N705 N 0.92328 0.59778 0.23852 0.0
C706 C 0.91434 0.60989 0.24502 0.0
C707 C 0.90556 0.61896 0.23292 0.0
C708 C 0.90965 0.61234 0.21774 0.0
C709 C 0.92105 0.59961 0.22145 0.0
N710 N 0.9074 0.57071 0.24877 0.0
C711 C 0.86621 0.55306 0.24819 0.0
C712 C 0.86456 0.56733 0.25313 0.0
C713 C 0.88526 0.57599 0.25317 0.0
C714 C 0.88887 0.54804 0.2431 0.0
C715 C 0.90905 0.55693 0.24354 0.0
N716 N 0.96755 0.59256 0.25514 0.0
C717 C 1.00105 0.60551 0.24309 0.0
C718 C 0.01443 0.60412 0.25816 0.0
C719 C 1.00309 0.59746 0.27202 0.0
C720 C 0.97972 0.59187 0.27028 0.0
C721 C 0.97785 0.59972 0.24185 0.0
H722 H 0.97187 0.58654 0.28108 0.0
H723 H 0.96864 0.60073 0.22989 0.0
H724 H 0.88343 0.58685 0.25715 0.0
H725 H 0.92618 0.55241 0.24015 0.0
C726 C 0.9756 0.55682 0.24331 0.0
C727 C 0.93274 0.59084 0.20838 0.0
C728 C 0.92734 0.56844 0.29253 0.0
C729 C 0.91295 0.61198 0.26257 0.0
H730 H 0.96298 0.57204 0.18901 0.0
H731 H 0.98811 0.55413 0.20805 0.0
H732 H 0.98519 0.53774 0.27094 0.0
H733 H 0.95688 0.54342 0.29738 0.0
H734 H 0.90801 0.59056 0.31401 0.0
H735 H 0.9019 0.61494 0.29787 0.0
H736 H 0.89718 0.62918 0.23488 0.0
H737 H 0.90563 0.61667 0.2053 0.0
H738 H 0.84742 0.57179 0.25699 0.0
H739 H 0.89128 0.5371 0.23937 0.0
H740 H 1.00851 0.61091 0.23213 0.0
H741 H 1.01245 0.59608 0.28399 0.0
C742 C 0.8287 0.57869 0.54389 0.0
C743 C 0.81694 0.57013 0.55559 0.0
C744 C 0.80939 0.5584 0.54691 0.0
C745 C 0.81678 0.56049 0.53044 0.0
N746 N 0.82896 0.57273 0.52812 0.0
Co747 Co 0.84086 0.58042 0.5058 0.0
N748 N 0.82974 0.56326 0.49294 0.0
C749 C 0.81981 0.55148 0.49974 0.0
C750 C 0.81633 0.54083 0.48814 0.0
C751 C 0.8251 0.54599 0.4731 0.0
C752 C 0.83332 0.55956 0.47639 0.0
N753 N 0.85129 0.58865 0.48347 0.0
C754 C 0.85102 0.58303 0.46761 0.0
C755 C 0.85942 0.59259 0.45555 0.0
C756 C 0.86585 0.60452 0.46417 0.0
C757 C 0.86084 0.60162 0.48089 0.0
N758 N 0.8535 0.59718 0.51865 0.0
C759 C 0.86604 0.60815 0.51208 0.0
C760 C 0.87312 0.61792 0.52395 0.0
C761 C 0.86443 0.61295 0.53904 0.0
C762 C 0.85232 0.60044 0.53544 0.0
N763 N 0.87276 0.5707 0.50854 0.0
C764 C 0.91491 0.55358 0.50733 0.0
C765 C 0.9142 0.56689 0.4994 0.0
C766 C 0.89317 0.57526 0.50026 0.0
C767 C 0.89475 0.54961 0.51688 0.0
C768 C 0.87424 0.55819 0.51736 0.0
N769 N 0.80867 0.58977 0.50299 0.0
C770 C 0.78331 0.61072 0.50107 0.0
C771 C 0.76222 0.60251 0.50174 0.0
C772 C 0.76503 0.58783 0.50244 0.0
C773 C 0.78802 0.58178 0.503 0.0
C774 C 0.80618 0.60419 0.50172 0.0
H775 H 0.78849 0.57055 0.50363 0.0
H776 H 0.8216 0.611 0.50139 0.0
H777 H 0.8936 0.58522 0.49376 0.0
H778 H 0.8596 0.55418 0.52466 0.0
C779 C 0.81377 0.5509 0.51703 0.0
C780 C 0.83902 0.59247 0.54829 0.0
C781 C 0.84514 0.56839 0.46358 0.0
C782 C 0.86819 0.60989 0.49457 0.0
H783 H 0.81408 0.57219 0.56898 0.0
H784 H 0.79969 0.54941 0.55201 0.0
H785 H 0.80867 0.53046 0.49041 0.0
H786 H 0.82573 0.54035 0.46112 0.0
H787 H 0.86165 0.59088 0.44202 0.0
H788 H 0.87435 0.61388 0.45898 0.0
H789 H 0.88264 0.62776 0.5218 0.0
H790 H 0.86624 0.61816 0.55124 0.0
H791 H 0.92943 0.57064 0.49205 0.0
H792 H 0.89457 0.53973 0.52386 0.0
H793 H 0.78224 0.62214 0.50046 0.0
H794 H 0.74946 0.58091 0.5025 0.0
C795 C 0.94629 0.17711 0.545 0.0
C796 C 0.95822 0.18564 0.55664 0.0
C797 C 0.96689 0.197 0.54777 0.0
C798 C 0.95983 0.19479 0.53126 0.0
N799 N 0.94687 0.18281 0.52908 0.0
Co800 Co 0.93481 0.17517 0.50682 0.0
N801 N 0.94596 0.19233 0.49392 0.0
C802 C 0.9567 0.2039 0.5006 0.0
C803 C 0.95998 0.21462 0.48905 0.0
C804 C 0.95019 0.20974 0.47419 0.0
C805 C 0.94164 0.19624 0.47753 0.0
N806 N 0.92407 0.16706 0.48453 0.0
C807 C 0.92352 0.1729 0.46879 0.0
C808 C 0.91528 0.16336 0.45668 0.0
C809 C 0.9098 0.15119 0.46516 0.0
C810 C 0.91517 0.15396 0.48185 0.0
N811 N 0.92199 0.15844 0.51972 0.0
C812 C 0.91031 0.14719 0.51301 0.0
C813 C 0.90355 0.13729 0.52478 0.0
C814 C 0.91134 0.14248 0.53997 0.0
C815 C 0.92245 0.15537 0.5366 0.0
N816 N 0.90311 0.18496 0.50967 0.0
C817 C 0.86083 0.20187 0.50844 0.0
C818 C 0.86105 0.1881 0.50175 0.0
C819 C 0.88224 0.17984 0.50254 0.0
C820 C 0.88165 0.20651 0.51677 0.0
C821 C 0.90222 0.19799 0.51733 0.0
N822 N 0.96702 0.16568 0.50387 0.0
C823 C 0.99247 0.14468 0.50309 0.0
C824 C 1.01355 0.15289 0.50261 0.0
C825 C 1.01067 0.16757 0.50212 0.0
C826 C 0.98769 0.17364 0.50272 0.0
C827 C 0.96961 0.15122 0.50368 0.0
H828 H 0.98734 0.18486 0.50241 0.0
H829 H 0.95435 0.14433 0.5042 0.0
H830 H 0.88166 0.16951 0.49691 0.0
H831 H 0.91746 0.20242 0.52362 0.0
C832 C 0.96332 0.20428 0.51779 0.0
C833 C 0.93445 0.1638 0.54973 0.0
C834 C 0.92883 0.18766 0.46495 0.0
C835 C 0.90846 0.14546 0.49548 0.0
H836 H 0.9603 0.18387 0.57017 0.0
H837 H 0.97685 0.20591 0.55282 0.0
H838 H 0.96808 0.22488 0.49126 0.0
H839 H 0.94911 0.21552 0.46233 0.0
H840 H 0.91261 0.1652 0.44321 0.0
H841 H 0.90163 0.14175 0.45992 0.0
H842 H 0.89483 0.12721 0.5225 0.0
H843 H 0.9097 0.1371 0.55206 0.0
H844 H 0.84529 0.18389 0.49538 0.0
H845 H 0.88226 0.21685 0.5227 0.0
H846 H 0.99355 0.13325 0.50342 0.0
H847 H 0.02619 0.17449 0.50122 0.0
C848 C 0.68049 0.346 0.78973 0.0
C849 C 0.66869 0.35836 0.79442 0.0
C850 C 0.65859 0.36373 0.78 0.0
C851 C 0.66467 0.35436 0.76742 0.0
N852 N 0.67789 0.34326 0.77288 0.0
Co853 Co 0.68994 0.32712 0.75863 0.0
N854 N 0.67785 0.33612 0.73711 0.0
C855 C 0.66716 0.34893 0.73576 0.0
C856 C 0.66004 0.35229 0.7196 0.0
C857 C 0.66641 0.34093 0.70998 0.0
C858 C 0.67732 0.33123 0.72086 0.0
N859 N 0.7006 0.31059 0.74446 0.0
C860 C 0.69701 0.30774 0.72766 0.0
C861 C 0.70588 0.29449 0.72333 0.0
C862 C 0.7149 0.28866 0.73791 0.0
C863 C 0.71108 0.29862 0.7503 0.0
N864 N 0.70337 0.31865 0.78012 0.0
C865 C 0.71571 0.30637 0.7814 0.0
C866 C 0.72429 0.30372 0.79746 0.0
C867 C 0.71739 0.31514 0.80697 0.0
C868 C 0.70485 0.32408 0.79614 0.0
N869 N 0.65836 0.31701 0.76181 0.0
C870 C 0.61629 0.29975 0.76096 0.0
C871 C 0.63733 0.29531 0.76916 0.0
C872 C 0.65776 0.30399 0.76953 0.0
C873 C 0.61618 0.31351 0.75423 0.0
C874 C 0.63719 0.32192 0.75487 0.0
N875 N 0.72177 0.3368 0.75539 0.0
C876 C 0.76541 0.33514 0.75394 0.0
C877 C 0.76802 0.34984 0.75416 0.0
C878 C 0.74678 0.35795 0.75427 0.0
C879 C 0.72399 0.35127 0.75487 0.0
C880 C 0.74254 0.32895 0.75451 0.0
H881 H 0.7084 0.35797 0.75516 0.0
H882 H 0.74226 0.3177 0.75446 0.0
H883 H 0.67303 0.29966 0.77584 0.0
H884 H 0.63606 0.33223 0.74929 0.0
C885 C 0.66088 0.3566 0.75017 0.0
C886 C 0.69489 0.33768 0.80161 0.0
C887 C 0.6853 0.31718 0.71537 0.0
C888 C 0.71809 0.29736 0.76736 0.0
H889 H 0.66803 0.36322 0.80689 0.0
H890 H 0.64883 0.37359 0.77871 0.0
H891 H 0.65019 0.36156 0.71547 0.0
H892 H 0.66242 0.33978 0.69659 0.0
H893 H 0.70576 0.28955 0.71091 0.0
H894 H 0.72327 0.27838 0.7393 0.0
H895 H 0.73441 0.2946 0.80174 0.0
H896 H 0.72121 0.31675 0.82034 0.0
H897 H 0.63823 0.28502 0.7752 0.0
H898 H 0.60026 0.31762 0.74796 0.0
H899 H 0.78106 0.3283 0.75332 0.0
H900 H 0.74767 0.36939 0.75433 0.0
C901 C 0.60002 0.90713 0.78577 0.0
C902 C 0.61253 0.89503 0.79052 0.0
C903 C 0.62557 0.89088 0.7766 0.0
C904 C 0.62034 0.90064 0.76422 0.0
N905 N 0.60486 0.91071 0.76943 0.0
Co906 Co 0.59262 0.92677 0.75557 0.0
N907 N 0.60216 0.91732 0.7339 0.0
C908 C 0.61714 0.90613 0.73256 0.0
C909 C 0.62106 0.90194 0.71612 0.0
C910 C 0.60817 0.9112 0.70638 0.0
C911 C 0.59704 0.92064 0.71748 0.0
N912 N 0.58069 0.94298 0.74172 0.0
C913 C 0.57824 0.94442 0.72458 0.0
C914 C 0.57052 0.95795 0.7204 0.0
C915 C 0.56873 0.96533 0.73535 0.0
C916 C 0.57532 0.95593 0.74782 0.0
N917 N 0.58309 0.93595 0.77737 0.0
C918 C 0.57787 0.94972 0.77954 0.0
C919 C 0.57148 0.95291 0.796 0.0
C920 C 0.57279 0.94034 0.80472 0.0
C921 C 0.57996 0.93017 0.79306 0.0
N922 N 0.62457 0.93617 0.75679 0.0
C923 C 0.66561 0.954 0.75864 0.0
C924 C 0.65624 0.94736 0.77326 0.0
C925 C 0.6359 0.93844 0.77205 0.0
C926 C 0.65478 0.95066 0.74302 0.0
C927 C 0.63452 0.94187 0.74238 0.0
N928 N 0.56044 0.91783 0.75434 0.0
C929 C 0.51718 0.91993 0.75735 0.0
C930 C 0.51386 0.9056 0.75346 0.0
C931 C 0.53456 0.89753 0.74981 0.0
C932 C 0.55762 0.9038 0.75043 0.0
C933 C 0.54036 0.9258 0.75762 0.0
H934 H 0.57317 0.89729 0.74785 0.0
H935 H 0.54193 0.93687 0.76059 0.0
H936 H 0.62885 0.93381 0.78357 0.0
H937 H 0.62651 0.94015 0.73014 0.0
C938 C 0.62572 0.89918 0.747 0.0
C939 C 0.58469 0.91529 0.79734 0.0
C940 C 0.58574 0.93391 0.71179 0.0
C941 C 0.57501 0.95855 0.76538 0.0
H942 H 0.61218 0.88973 0.80273 0.0
H943 H 0.63659 0.88148 0.77542 0.0
H944 H 0.63206 0.89321 0.71172 0.0
H945 H 0.60803 0.91134 0.69262 0.0
H946 H 0.56728 0.96216 0.7078 0.0
H947 H 0.56326 0.97624 0.73691 0.0
H948 H 0.5655 0.96301 0.80091 0.0
H949 H 0.56883 0.93882 0.81808 0.0
H950 H 0.66392 0.94942 0.78568 0.0
H951 H 0.66164 0.95499 0.73121 0.0
H952 H 0.50187 0.9267 0.76 0.0
H953 H 0.53301 0.88639 0.74681 0.0
C954 C 0.67563 0.90644 0.46962 0.0
C955 C 0.6646 0.89374 0.46527 0.0
C956 C 0.65518 0.88829 0.47987 0.0
C957 C 0.66095 0.89788 0.49226 0.0
N958 N 0.67337 0.90922 0.48649 0.0
Co959 Co 0.68508 0.92562 0.50043 0.0
N960 N 0.67337 0.9167 0.52205 0.0
C961 C 0.66388 0.90363 0.52382 0.0
C962 C 0.65785 0.90025 0.54023 0.0
C963 C 0.66344 0.91199 0.5495 0.0
C964 C 0.67237 0.92192 0.53808 0.0
N965 N 0.69542 0.94237 0.51436 0.0
C966 C 0.69055 0.94562 0.53089 0.0
C967 C 0.69852 0.95908 0.53503 0.0
C968 C 0.70844 0.96464 0.52056 0.0
C969 C 0.70584 0.95432 0.50842 0.0
N970 N 0.69813 0.93404 0.47881 0.0
C971 C 0.71022 0.94642 0.47736 0.0
C972 C 0.71846 0.94904 0.4612 0.0
C973 C 0.71159 0.93754 0.45183 0.0
C974 C 0.69943 0.92855 0.46283 0.0
N975 N 0.65328 0.93538 0.49726 0.0
C976 C 0.61094 0.95234 0.49838 0.0
C977 C 0.63175 0.9569 0.48998 0.0
C978 C 0.65232 0.94837 0.48949 0.0
C979 C 0.61116 0.93858 0.50513 0.0
C980 C 0.63233 0.9303 0.50435 0.0
N981 N 0.7172 0.91624 0.5037 0.0
C982 C 0.76087 0.91815 0.50437 0.0
C983 C 0.76359 0.9035 0.50537 0.0
C984 C 0.74252 0.8953 0.50613 0.0
C985 C 0.71967 0.90183 0.50517 0.0
C986 C 0.73789 0.92421 0.50374 0.0
H987 H 0.70426 0.89502 0.50542 0.0
H988 H 0.73744 0.93544 0.50308 0.0
H989 H 0.66744 0.9528 0.48309 0.0
H990 H 0.63157 0.91998 0.50996 0.0
C991 C 0.65768 0.89566 0.50961 0.0
C992 C 0.68929 0.91496 0.45746 0.0
C993 C 0.67749 0.93652 0.5428 0.0
C994 C 0.71261 0.95554 0.49131 0.0
H995 H 0.66408 0.88867 0.45294 0.0
H996 H 0.64615 0.87821 0.4814 0.0
H997 H 0.64924 0.89069 0.54478 0.0
H998 H 0.6603 0.91332 0.563 0.0
H999 H 0.69686 0.96442 0.54715 0.0
H1000 H 0.71609 0.97509 0.51898 0.0
H1001 H 0.72829 0.95822 0.45676 0.0
H1002 H 0.7151 0.93594 0.43842 0.0
H1003 H 0.63236 0.96718 0.48392 0.0
H1004 H 0.59541 0.93439 0.51153 0.0
H1005 H 0.77652 0.92501 0.50415 0.0
H1006 H 0.74365 0.88388 0.50699 0.0
C1007 C 0.60575 0.34706 0.47159 0.0
C1008 C 0.61619 0.35988 0.46695 0.0
C1009 C 0.62072 0.3671 0.48164 0.0
C1010 C 0.61291 0.35837 0.4944 0.0
N1011 N 0.60406 0.34594 0.48878 0.0
Co1012 Co 0.59017 0.3307 0.50335 0.0
N1013 N 0.60389 0.33922 0.52439 0.0
C1014 C 0.6123 0.35251 0.52602 0.0
C1015 C 0.62177 0.35525 0.54178 0.0
C1016 C 0.61914 0.34293 0.5507 0.0
C1017 C 0.60785 0.33336 0.53988 0.0
N1018 N 0.57665 0.3155 0.51804 0.0
C1019 C 0.58275 0.31162 0.53413 0.0
C1020 C 0.56876 0.30034 0.53962 0.0
C1021 C 0.55344 0.29706 0.52647 0.0
C1022 C 0.55886 0.30651 0.51374 0.0
N1023 N 0.57603 0.32233 0.48229 0.0
C1024 C 0.55838 0.31253 0.48191 0.0
C1025 C 0.55117 0.30915 0.46571 0.0
C1026 C 0.56476 0.31755 0.45521 0.0
C1027 C 0.57951 0.32566 0.46562 0.0
N1028 N 0.61957 0.31917 0.5004 0.0
C1029 C 0.66021 0.30105 0.50022 0.0
C1030 C 0.63713 0.29606 0.49605 0.0
C1031 C 0.61727 0.30517 0.49627 0.0
C1032 C 0.66254 0.3156 0.50375 0.0
C1033 C 0.64208 0.32445 0.5037 0.0
N1034 N 0.56025 0.34182 0.50637 0.0
C1035 C 0.52523 0.34764 0.52338 0.0
C1036 C 0.51347 0.35355 0.50921 0.0
C1037 C 0.52633 0.35408 0.49384 0.0
C1038 C 0.54953 0.34826 0.49272 0.0
C1039 C 0.54856 0.34196 0.52173 0.0
H1040 H 0.5583 0.34854 0.48053 0.0
H1041 H 0.55679 0.33725 0.5328 0.0
H1042 H 0.59987 0.30069 0.49354 0.0
H1043 H 0.6444 0.33549 0.5068 0.0
C1044 C 0.61556 0.361 0.51174 0.0
C1045 C 0.59447 0.33741 0.45927 0.0
C1046 C 0.6003 0.31907 0.54493 0.0
C1047 C 0.55069 0.30585 0.49689 0.0
H1048 H 0.61936 0.36389 0.45426 0.0
H1049 H 0.62881 0.37748 0.48286 0.0
H1050 H 0.63082 0.36478 0.54598 0.0
H1051 H 0.62523 0.34122 0.56361 0.0
H1052 H 0.5695 0.2951 0.55185 0.0
H1053 H 0.54053 0.28848 0.52604 0.0
H1054 H 0.53775 0.30144 0.46196 0.0
H1055 H 0.56348 0.31795 0.44147 0.0
H1056 H 0.63422 0.28508 0.49271 0.0
H1057 H 0.67989 0.32008 0.50706 0.0
H1058 H 0.51642 0.34725 0.53566 0.0
H1059 H 0.51822 0.35845 0.48246 0.0
C1060 C 0.33112 0.67768 0.21498 0.0
C1061 C 0.31645 0.68552 0.20422 0.0
C1062 C 0.30319 0.69439 0.21432 0.0
C1063 C 0.31043 0.69149 0.23065 0.0
N1064 N 0.32783 0.68156 0.23151 0.0
Co1065 Co 0.34137 0.67351 0.25299 0.0
N1066 N 0.32755 0.68902 0.2671 0.0
C1067 C 0.31008 0.69804 0.26229 0.0
C1068 C 0.30431 0.7077 0.27469 0.0
C1069 C 0.31906 0.70454 0.28819 0.0
C1070 C 0.33308 0.69311 0.28321 0.0
N1071 N 0.35448 0.66531 0.27444 0.0
C1072 C 0.35789 0.6714 0.28987 0.0
C1073 C 0.36921 0.66209 0.301 0.0
C1074 C 0.37241 0.64969 0.29238 0.0
C1075 C 0.36327 0.65213 0.27645 0.0
N1076 N 0.35561 0.658 0.23898 0.0
C1077 C 0.36522 0.64589 0.24497 0.0
C1078 C 0.37408 0.6372 0.23249 0.0
C1079 C 0.36935 0.64409 0.21759 0.0
C1080 C 0.35757 0.65657 0.22184 0.0
N1081 N 0.371 0.6849 0.25019 0.0
C1082 C 0.41209 0.70267 0.25021 0.0
C1083 C 0.41395 0.68817 0.25406 0.0
C1084 C 0.39331 0.67949 0.25386 0.0
C1085 C 0.3892 0.70786 0.24585 0.0
C1086 C 0.3691 0.6989 0.24591 0.0
N1087 N 0.31131 0.66249 0.25597 0.0
C1088 C 0.27795 0.64968 0.24352 0.0
C1089 C 0.26443 0.65082 0.25857 0.0
C1090 C 0.27572 0.65721 0.27264 0.0
C1091 C 0.29911 0.66281 0.27112 0.0
C1092 C 0.30111 0.65554 0.24249 0.0
H1093 H 0.30692 0.6679 0.2821 0.0
H1094 H 0.31035 0.65479 0.23052 0.0
H1095 H 0.39537 0.66848 0.25708 0.0
H1096 H 0.35184 0.70349 0.24301 0.0
C1097 C 0.30247 0.69848 0.24533 0.0
C1098 C 0.34532 0.66545 0.20918 0.0
C1099 C 0.35003 0.68574 0.29451 0.0
C1100 C 0.36746 0.64355 0.26238 0.0
H1101 H 0.31488 0.68457 0.19054 0.0
H1102 H 0.28977 0.70199 0.21024 0.0
H1103 H 0.29153 0.71633 0.27384 0.0
H1104 H 0.31938 0.70995 0.30032 0.0
H1105 H 0.37508 0.66405 0.31391 0.0
H1106 H 0.38174 0.64035 0.29686 0.0
H1107 H 0.38299 0.62709 0.23404 0.0
H1108 H 0.37324 0.64009 0.20497 0.0
H1109 H 0.43123 0.68354 0.25724 0.0
H1110 H 0.38656 0.71896 0.24296 0.0
H1111 H 0.27063 0.64444 0.23241 0.0
H1112 H 0.2663 0.6584 0.28462 0.0
C1113 C 0.45224 0.0748 0.21423 0.0
C1114 C 0.4644 0.06602 0.20299 0.0
C1115 C 0.47164 0.05446 0.21211 0.0
C1116 C 0.4636 0.05683 0.22837 0.0
N1117 N 0.4513 0.06909 0.23013 0.0
Co1118 Co 0.43861 0.07717 0.25201 0.0
N1119 N 0.44917 0.06022 0.26552 0.0
C1120 C 0.45937 0.04834 0.25922 0.0
C1121 C 0.46236 0.03787 0.27113 0.0
C1122 C 0.45296 0.04326 0.28585 0.0
C1123 C 0.4449 0.05679 0.28208 0.0
N1124 N 0.42742 0.08579 0.27393 0.0
C1125 C 0.42699 0.08042 0.28992 0.0
C1126 C 0.41846 0.09025 0.3016 0.0
C1127 C 0.41263 0.10209 0.29259 0.0
C1128 C 0.41813 0.09887 0.27603 0.0
N1129 N 0.42647 0.09371 0.23847 0.0
C1130 C 0.41408 0.10492 0.2446 0.0
C1131 C 0.40785 0.11463 0.23243 0.0
C1132 C 0.41689 0.10936 0.2176 0.0
C1133 C 0.4282 0.09667 0.2216 0.0
N1134 N 0.40676 0.06745 0.24897 0.0
C1135 C 0.36429 0.05056 0.24999 0.0
C1136 C 0.36484 0.06414 0.25725 0.0
C1137 C 0.38603 0.07238 0.25649 0.0
C1138 C 0.3849 0.04616 0.2412 0.0
C1139 C 0.40556 0.05464 0.24079 0.0
N1140 N 0.47078 0.08653 0.25517 0.0
C1141 C 0.49627 0.10746 0.25669 0.0
C1142 C 0.51727 0.0992 0.25758 0.0
C1143 C 0.51435 0.08451 0.25743 0.0
C1144 C 0.49135 0.0785 0.25626 0.0
C1145 C 0.4734 0.10098 0.25562 0.0
H1146 H 0.49085 0.06726 0.25601 0.0
H1147 H 0.4581 0.10786 0.25507 0.0
H1148 H 0.38546 0.08257 0.26247 0.0
H1149 H 0.42057 0.05034 0.23411 0.0
C1150 C 0.46613 0.04749 0.24208 0.0
C1151 C 0.4417 0.08837 0.20915 0.0
C1152 C 0.43252 0.06581 0.29443 0.0
C1153 C 0.4115 0.10698 0.26203 0.0
H1154 H 0.46764 0.0678 0.18957 0.0
H1155 H 0.4815 0.04538 0.20743 0.0
H1156 H 0.47009 0.02747 0.26926 0.0
H1157 H 0.4518 0.03779 0.29792 0.0
H1158 H 0.41582 0.0888 0.31514 0.0
H1159 H 0.40424 0.11162 0.2974 0.0
H1160 H 0.39879 0.12466 0.23424 0.0
H1161 H 0.41597 0.11456 0.20536 0.0
H1162 H 0.34931 0.06822 0.26401 0.0
H1163 H 0.38529 0.03605 0.23473 0.0
H1164 H 0.49738 0.1189 0.25696 0.0
H1165 H 0.52985 0.07755 0.25781 0.0
C1166 C 0.33217 0.07672 0.54397 0.0
C1167 C 0.31891 0.06874 0.55549 0.0
C1168 C 0.30473 0.05976 0.54613 0.0
C1169 C 0.31014 0.06265 0.52944 0.0
N1170 N 0.32721 0.07271 0.52772 0.0
Co1171 Co 0.33921 0.08031 0.50566 0.0
N1172 N 0.32563 0.06418 0.49256 0.0
C1173 C 0.30875 0.05506 0.49808 0.0
C1174 C 0.30371 0.04467 0.48639 0.0
C1175 C 0.31833 0.04746 0.47266 0.0
C1176 C 0.33145 0.05948 0.47674 0.0
N1177 N 0.35075 0.08807 0.48366 0.0
C1178 C 0.35397 0.08153 0.46853 0.0
C1179 C 0.36182 0.09102 0.45621 0.0
C1180 C 0.36377 0.10391 0.46404 0.0
C1181 C 0.35691 0.10159 0.48059 0.0
N1182 N 0.35312 0.0965 0.51852 0.0
C1183 C 0.35997 0.10896 0.51169 0.0
C1184 C 0.36787 0.11854 0.52351 0.0
C1185 C 0.36552 0.11183 0.53882 0.0
C1186 C 0.35625 0.09843 0.5355 0.0
N1187 N 0.36947 0.0695 0.50824 0.0
C1188 C 0.41081 0.05195 0.50765 0.0
C1189 C 0.41216 0.06633 0.50299 0.0
C1190 C 0.39135 0.07491 0.50345 0.0
C1191 C 0.38847 0.04691 0.51339 0.0
C1192 C 0.36825 0.05572 0.51352 0.0
N1193 N 0.30845 0.09068 0.50299 0.0
C1194 C 0.27491 0.1032 0.51567 0.0
C1195 C 0.26131 0.102 0.50067 0.0
C1196 C 0.27242 0.09552 0.48661 0.0
C1197 C 0.2959 0.09002 0.488 0.0
C1198 C 0.29827 0.09756 0.51654 0.0
H1199 H 0.30363 0.08488 0.47703 0.0
H1200 H 0.30771 0.09839 0.52846 0.0
H1201 H 0.39279 0.0858 0.49941 0.0
H1202 H 0.35138 0.05114 0.51741 0.0
C1203 C 0.30178 0.05509 0.51524 0.0
C1204 C 0.34732 0.08888 0.54889 0.0
C1205 C 0.34854 0.06661 0.46523 0.0
C1206 C 0.36049 0.11092 0.49408 0.0
H1207 H 0.31909 0.06953 0.56923 0.0
H1208 H 0.29225 0.05191 0.55093 0.0
H1209 H 0.29176 0.0357 0.48796 0.0
H1210 H 0.31935 0.04129 0.46109 0.0
H1211 H 0.36577 0.08886 0.44298 0.0
H1212 H 0.37047 0.11363 0.45852 0.0
H1213 H 0.37451 0.12915 0.52128 0.0
H1214 H 0.36927 0.11658 0.55106 0.0
H1215 H 0.42894 0.07083 0.49849 0.0
H1216 H 0.38639 0.03608 0.51764 0.0
H1217 H 0.2673 0.108 0.52697 0.0
H1218 H 0.26302 0.09457 0.47459 0.0
C1219 C 0.44594 0.67971 0.54532 0.0
C1220 C 0.46021 0.68762 0.55628 0.0
C1221 C 0.47407 0.69631 0.54632 0.0
C1222 C 0.46749 0.69328 0.52988 0.0
N1223 N 0.45003 0.6834 0.52884 0.0
Co1224 Co 0.43693 0.67535 0.50729 0.0
N1225 N 0.45063 0.69098 0.49336 0.0
C1226 C 0.46806 0.7 0.49827 0.0
C1227 C 0.47382 0.70972 0.48593 0.0
C1228 C 0.45913 0.70659 0.47238 0.0
C1229 C 0.44515 0.69511 0.47725 0.0
N1230 N 0.42423 0.66715 0.48577 0.0
C1231 C 0.42071 0.6733 0.4704 0.0
C1232 C 0.40992 0.6639 0.45912 0.0
C1233 C 0.40725 0.65138 0.4676 0.0
C1234 C 0.41616 0.65384 0.48359 0.0
N1235 N 0.42288 0.6597 0.5211 0.0
C1236 C 0.41454 0.64731 0.51499 0.0
C1237 C 0.40622 0.63834 0.52736 0.0
C1238 C 0.40985 0.64538 0.54231 0.0
C1239 C 0.42032 0.65831 0.5382 0.0
N1240 N 0.40711 0.68655 0.51004 0.0
C1241 C 0.36569 0.704 0.51076 0.0
C1242 C 0.36407 0.6896 0.50639 0.0
C1243 C 0.38489 0.68105 0.50625 0.0
C1244 C 0.38849 0.70927 0.51514 0.0
C1245 C 0.40877 0.70047 0.51466 0.0
N1246 N 0.46722 0.66454 0.50448 0.0
C1247 C 0.5009 0.6522 0.5172 0.0
C1248 C 0.51435 0.65322 0.50211 0.0
C1249 C 0.50294 0.65934 0.48793 0.0
C1250 C 0.47945 0.66482 0.48934 0.0
C1251 C 0.47756 0.65785 0.51811 0.0
H1252 H 0.47156 0.66977 0.4783 0.0
H1253 H 0.46827 0.65717 0.53009 0.0
H1254 H 0.38307 0.67007 0.50276 0.0
H1255 H 0.42597 0.70513 0.5176 0.0
C1256 C 0.47561 0.70035 0.51527 0.0
C1257 C 0.43078 0.66783 0.55099 0.0
C1258 C 0.42832 0.68771 0.46588 0.0
C1259 C 0.41259 0.64502 0.49754 0.0
H1260 H 0.46098 0.68689 0.57001 0.0
H1261 H 0.48723 0.70399 0.55057 0.0
H1262 H 0.48656 0.71837 0.48686 0.0
H1263 H 0.45883 0.71204 0.46027 0.0
H1264 H 0.4042 0.66584 0.44617 0.0
H1265 H 0.39852 0.64189 0.46296 0.0
H1266 H 0.39829 0.62797 0.52571 0.0
H1267 H 0.40603 0.6412 0.55485 0.0
H1268 H 0.34685 0.68494 0.50309 0.0
H1269 H 0.39088 0.72031 0.51841 0.0
H1270 H 0.5084 0.6472 0.52842 0.0
H1271 H 0.51235 0.66042 0.47593 0.0
C1272 C 0.67679 0.84953 0.2864 0.0
C1273 C 0.66486 0.86169 0.29166 0.0
C1274 C 0.65194 0.86643 0.27796 0.0
C1275 C 0.65663 0.85692 0.2652 0.0
N1276 N 0.67164 0.84646 0.26997 0.0
Co1277 Co 0.68274 0.83047 0.25552 0.0
N1278 N 0.67342 0.8406 0.23425 0.0
C1279 C 0.65933 0.8522 0.23337 0.0
C1280 C 0.65562 0.85692 0.2171 0.0
C1281 C 0.66768 0.84755 0.20698 0.0
C1282 C 0.67807 0.83753 0.21769 0.0
N1283 N 0.69337 0.81431 0.24105 0.0
C1284 C 0.69511 0.81314 0.22385 0.0
C1285 C 0.70171 0.79953 0.21917 0.0
C1286 C 0.70356 0.79183 0.23388 0.0
C1287 C 0.69807 0.80113 0.24671 0.0
N1288 N 0.69224 0.82066 0.27694 0.0
C1289 C 0.69689 0.80677 0.27862 0.0
C1290 C 0.70355 0.80312 0.29489 0.0
C1291 C 0.70301 0.81551 0.30401 0.0
C1292 C 0.69598 0.82603 0.29277 0.0
N1293 N 0.6503 0.8217 0.25683 0.0
C1294 C 0.60816 0.80484 0.25864 0.0
C1295 C 0.61849 0.81075 0.27337 0.0
C1296 C 0.63931 0.81924 0.27218 0.0
C1297 C 0.61885 0.8082 0.243 0.0
C1298 C 0.63963 0.81658 0.24238 0.0
N1299 N 0.71542 0.83879 0.25425 0.0
C1300 C 0.7586 0.83562 0.25625 0.0
C1301 C 0.76274 0.85011 0.25371 0.0
C1302 C 0.74239 0.85879 0.2512 0.0
C1303 C 0.71898 0.85295 0.25153 0.0
C1304 C 0.73509 0.83024 0.25649 0.0
H1305 H 0.70378 0.85991 0.24974 0.0
H1306 H 0.73293 0.81908 0.25862 0.0
H1307 H 0.64692 0.82346 0.28375 0.0
H1308 H 0.64747 0.81839 0.23012 0.0
C1309 C 0.65126 0.85896 0.24807 0.0
C1310 C 0.69192 0.84087 0.29756 0.0
C1311 C 0.68791 0.82405 0.21147 0.0
C1312 C 0.69881 0.79817 0.26419 0.0
H1313 H 0.66552 0.86667 0.30405 0.0
H1314 H 0.64138 0.87604 0.27718 0.0
H1315 H 0.64526 0.86602 0.21307 0.0
H1316 H 0.66772 0.84773 0.19322 0.0
H1317 H 0.70416 0.79549 0.20639 0.0
H1318 H 0.70831 0.78076 0.23506 0.0
H1319 H 0.70916 0.79282 0.29942 0.0
H1320 H 0.70737 0.81667 0.31736 0.0
H1321 H 0.61068 0.80874 0.28577 0.0
H1322 H 0.61185 0.80391 0.23121 0.0
H1323 H 0.77349 0.82834 0.25789 0.0
H1324 H 0.74444 0.87007 0.24929 0.0
C1325 C 0.60577 0.40524 0.28792 0.0
C1326 C 0.61762 0.39274 0.29202 0.0
C1327 C 0.6266 0.38744 0.27719 0.0
C1328 C 0.61997 0.39702 0.26497 0.0
N1329 N 0.60748 0.40819 0.27108 0.0
Co1330 Co 0.59552 0.42481 0.25764 0.0
N1331 N 0.60661 0.41617 0.23573 0.0
C1332 C 0.61559 0.40301 0.23356 0.0
C1333 C 0.62099 0.39982 0.21699 0.0
C1334 C 0.6155 0.41176 0.20805 0.0
C1335 C 0.60729 0.42162 0.21981 0.0
N1336 N 0.5852 0.44183 0.24419 0.0
C1337 C 0.58998 0.44537 0.22774 0.0
C1338 C 0.58215 0.45894 0.224 0.0
C1339 C 0.57238 0.46426 0.23865 0.0
C1340 C 0.57496 0.4537 0.2505 0.0
N1341 N 0.58295 0.4329 0.27955 0.0
C1342 C 0.57067 0.44516 0.28133 0.0
C1343 C 0.56261 0.44749 0.2976 0.0
C1344 C 0.56978 0.43589 0.30669 0.0
C1345 C 0.582 0.42716 0.29543 0.0
N1346 N 0.62746 0.4344 0.26072 0.0
C1347 C 0.67037 0.45094 0.26036 0.0
C1348 C 0.64957 0.45553 0.26877 0.0
C1349 C 0.62871 0.44721 0.26887 0.0
C1350 C 0.66955 0.43748 0.25279 0.0
C1351 C 0.64818 0.42939 0.25327 0.0
N1352 N 0.56324 0.41557 0.25445 0.0
C1353 C 0.51971 0.41775 0.25202 0.0
C1354 C 0.51661 0.40308 0.25191 0.0
C1355 C 0.53752 0.39474 0.25292 0.0
C1356 C 0.56045 0.40113 0.25406 0.0
C1357 C 0.54277 0.42367 0.25325 0.0
H1358 H 0.57568 0.39419 0.25472 0.0
H1359 H 0.54338 0.43491 0.25344 0.0
H1360 H 0.61358 0.45169 0.27523 0.0
H1361 H 0.64863 0.41922 0.24723 0.0
C1362 C 0.62236 0.3949 0.24753 0.0
C1363 C 0.59192 0.41338 0.3003 0.0
C1364 C 0.60267 0.43637 0.21552 0.0
C1365 C 0.56811 0.45452 0.26763 0.0
H1366 H 0.61897 0.38773 0.30437 0.0
H1367 H 0.63595 0.3775 0.27542 0.0
H1368 H 0.62923 0.39026 0.21213 0.0
H1369 H 0.6183 0.41327 0.19454 0.0
H1370 H 0.58374 0.4645 0.21201 0.0
H1371 H 0.56479 0.47469 0.24053 0.0
H1372 H 0.55266 0.45654 0.30229 0.0
H1373 H 0.56631 0.43402 0.32005 0.0
H1374 H 0.64891 0.46583 0.27478 0.0
H1375 H 0.68528 0.43321 0.24644 0.0
H1376 H 0.5043 0.42478 0.25156 0.0
H1377 H 0.53627 0.38331 0.25269 0.0
C1378 C 0.67641 0.40444 0.97361 0.0
C1379 C 0.66435 0.39203 0.96949 0.0
C1380 C 0.65214 0.38793 0.98381 0.0
C1381 C 0.65742 0.39801 0.9958 0.0
N1382 N 0.67215 0.40823 0.98997 0.0
Co1383 Co 0.68439 0.42469 1.00316 0.0
N1384 N 0.67621 0.4155 0.02526 0.0
C1385 C 0.66184 0.4041 0.02724 0.0
C1386 C 0.65893 0.40012 0.04386 0.0
C1387 C 0.67184 0.40976 0.05306 0.0
C1388 C 0.68196 0.41918 0.04147 0.0
N1389 N 0.69633 0.44129 0.01631 0.0
C1390 C 0.69944 0.44307 0.03334 0.0
C1391 C 0.70682 0.45677 0.037 0.0
C1392 C 0.70772 0.4639 0.02184 0.0
C1393 C 0.70097 0.45419 0.00976 0.0
N1394 N 0.69261 0.4336 0.98093 0.0
C1395 C 0.6972 0.44739 0.97829 0.0
C1396 C 0.70268 0.45038 0.96161 0.0
C1397 C 0.70143 0.43765 0.95324 0.0
C1398 C 0.69526 0.4276 0.96532 0.0
N1399 N 0.65204 0.43362 1.00245 0.0
C1400 C 0.60947 0.45016 1.00139 0.0
C1401 C 0.61878 0.44377 0.9866 0.0
C1402 C 0.63986 0.43545 0.98743 0.0
C1403 C 0.62154 0.44754 0.01673 0.0
C1404 C 0.64251 0.43934 0.01698 0.0
N1405 N 0.7169 0.41617 1.00391 0.0
C1406 C 0.75998 0.41874 1.00025 0.0
C1407 C 0.76389 0.40454 0.00459 0.0
C1408 C 0.74358 0.39629 0.00869 0.0
C1409 C 0.72031 0.40227 0.00817 0.0
C1410 C 0.73659 0.42431 1.00008 0.0
H1411 H 0.70509 0.39562 0.01117 0.0
H1412 H 0.73452 0.43529 0.99679 0.0
H1413 H 0.64663 0.43081 0.97583 0.0
H1414 H 0.65136 0.43811 0.029 0.0
C1415 C 0.65293 0.39676 0.01318 0.0
C1416 C 0.69087 0.41261 0.9615 0.0
C1417 C 0.69275 0.43276 0.04656 0.0
C1418 C 0.70038 0.45651 0.99214 0.0
H1419 H 0.6645 0.38646 0.95746 0.0
H1420 H 0.6417 0.37835 0.9855 0.0
H1421 H 0.64858 0.3913 0.04874 0.0
H1422 H 0.67267 0.41014 0.0668 0.0
H1423 H 0.71037 0.46126 0.04942 0.0
H1424 H 0.71269 0.47485 0.01987 0.0
H1425 H 0.708 0.46047 0.9563 0.0
H1426 H 0.70475 0.43594 0.93982 0.0
H1427 H 0.60994 0.44525 0.97445 0.0
H1428 H 0.61541 0.45226 0.02852 0.0
H1429 H 0.77498 0.42564 0.99723 0.0
H1430 H 0.74558 0.38524 0.01201 0.0
C1431 C 0.59938 0.85056 0.9691 0.0
C1432 C 0.61094 0.86289 0.96401 0.0
C1433 C 0.62345 0.86773 0.97784 0.0
C1434 C 0.61885 0.85813 0.99052 0.0
N1435 N 0.60426 0.84751 0.98559 0.0
Co1436 Co 0.5931 0.83147 0.99998 0.0
N1437 N 0.60197 0.84163 0.02135 0.0
C1438 C 0.61585 0.85332 0.02234 0.0
C1439 C 0.61928 0.85803 0.03863 0.0
C1440 C 0.60727 0.84858 0.04867 0.0
C1441 C 0.59717 0.83851 0.03788 0.0
N1442 N 0.58231 0.81529 0.01437 0.0
C1443 C 0.5804 0.81408 0.03156 0.0
C1444 C 0.57372 0.80046 0.03618 0.0
C1445 C 0.57203 0.79279 0.02145 0.0
C1446 C 0.57767 0.80211 0.00867 0.0
N1447 N 0.58413 0.82161 0.97848 0.0
C1448 C 0.5797 0.8077 0.97677 0.0
C1449 C 0.57365 0.80399 0.9604 0.0
C1450 C 0.57434 0.81636 0.95124 0.0
C1451 C 0.5808 0.82694 0.96258 0.0
N1452 N 0.62568 0.8228 0.999 0.0
C1453 C 0.66803 0.80604 0.99785 0.0
C1454 C 0.65792 0.81178 0.98293 0.0
C1455 C 0.63699 0.82023 0.9838 0.0
C1456 C 0.65699 0.80952 0.01332 0.0
C1457 C 0.63613 0.81783 0.01362 0.0
N1458 N 0.56031 0.8397 1.001 0.0
C1459 C 0.51717 0.83652 0.99838 0.0
C1460 C 0.51291 0.85082 1.00201 0.0
C1461 C 0.5331 0.85944 0.00524 0.0
C1462 C 0.55657 0.85371 0.00455 0.0
C1463 C 0.54075 0.83121 0.99805 0.0
H1464 H 0.57167 0.86064 0.00684 0.0
H1465 H 0.54303 0.82014 0.99535 0.0
H1466 H 0.62958 0.82433 0.9721 0.0
H1467 H 0.62807 0.8197 0.02578 0.0
C1468 C 0.62391 0.86017 0.00769 0.0
C1469 C 0.58481 0.84176 0.95774 0.0
C1470 C 0.58759 0.82493 0.04401 0.0
C1471 C 0.57741 0.79913 0.9912 0.0
H1472 H 0.61027 0.86792 0.95165 0.0
H1473 H 0.63367 0.87746 0.97876 0.0
H1474 H 0.62943 0.8672 0.04274 0.0
H1475 H 0.6071 0.84874 0.06242 0.0
H1476 H 0.57118 0.7964 0.04894 0.0
H1477 H 0.56737 0.78172 0.02022 0.0
H1478 H 0.56836 0.79365 0.95582 0.0
H1479 H 0.57051 0.81748 0.93781 0.0
H1480 H 0.66598 0.80967 0.97064 0.0
H1481 H 0.66378 0.80536 0.02524 0.0
H1482 H 0.5023 0.82935 0.99604 0.0
H1483 H 0.53084 0.87058 0.008 0.0
C1484 C 0.33658 0.17532 0.71474 0.0
C1485 C 0.32299 0.18335 0.70347 0.0
C1486 C 0.30918 0.19233 0.7131 0.0
C1487 C 0.31512 0.18939 0.72968 0.0
N1488 N 0.33219 0.17929 0.73108 0.0
Co1489 Co 0.3447 0.17153 0.75291 0.0
N1490 N 0.33159 0.18762 0.76633 0.0
C1491 C 0.31471 0.19684 0.7611 0.0
C1492 C 0.31023 0.20724 0.77292 0.0
C1493 C 0.32525 0.20432 0.78639 0.0
C1494 C 0.33801 0.19224 0.78206 0.0
N1495 N 0.3566 0.16356 0.77468 0.0
C1496 C 0.36018 0.16998 0.78983 0.0
C1497 C 0.36802 0.16036 0.802 0.0
C1498 C 0.36965 0.14751 0.79403 0.0
C1499 C 0.3626 0.14999 0.77756 0.0
N1500 N 0.35828 0.15541 0.73973 0.0
C1501 C 0.36527 0.14291 0.74635 0.0
C1502 C 0.37297 0.13343 0.73435 0.0
C1503 C 0.3703 0.14025 0.71913 0.0
C1504 C 0.36104 0.15361 0.7227 0.0
N1505 N 0.37497 0.18232 0.75012 0.0
C1506 C 0.41629 0.19991 0.75081 0.0
C1507 C 0.41767 0.18552 0.75539 0.0
C1508 C 0.39688 0.17691 0.75488 0.0
C1509 C 0.39393 0.20495 0.74507 0.0
C1510 C 0.37373 0.19611 0.74489 0.0
N1511 N 0.31393 0.16119 0.75582 0.0
C1512 C 0.28052 0.14831 0.74351 0.0
C1513 C 0.26677 0.14984 0.75843 0.0
C1514 C 0.27787 0.15663 0.7723 0.0
C1515 C 0.30138 0.16207 0.77079 0.0
C1516 C 0.30379 0.15406 0.74245 0.0
H1517 H 0.30908 0.16742 0.78163 0.0
H1518 H 0.31324 0.153 0.73057 0.0
H1519 H 0.39835 0.16602 0.75887 0.0
H1520 H 0.35685 0.20069 0.74105 0.0
C1521 C 0.30725 0.19692 0.74405 0.0
C1522 C 0.35158 0.16318 0.70951 0.0
C1523 C 0.35534 0.18495 0.79323 0.0
C1524 C 0.36598 0.14077 0.76393 0.0
H1525 H 0.32272 0.1826 0.68973 0.0
H1526 H 0.29659 0.20021 0.70853 0.0
H1527 H 0.29841 0.21628 0.77156 0.0
H1528 H 0.32676 0.21046 0.79796 0.0
H1529 H 0.37225 0.16241 0.81522 0.0
H1530 H 0.37631 0.13772 0.79941 0.0
H1531 H 0.37963 0.1228 0.73639 0.0
H1532 H 0.37377 0.13559 0.7068 0.0
H1533 H 0.43445 0.18102 0.75988 0.0
H1534 H 0.39182 0.21579 0.74088 0.0
H1535 H 0.27337 0.14281 0.73254 0.0
H1536 H 0.26829 0.15822 0.78414 0.0
C1537 C 0.44516 0.57958 0.71541 0.0
C1538 C 0.4599 0.57154 0.70492 0.0
C1539 C 0.47353 0.5631 0.71535 0.0
C1540 C 0.46638 0.56641 0.73159 0.0
N1541 N 0.44875 0.57622 0.73205 0.0
Co1542 Co 0.43494 0.58466 0.75313 0.0
N1543 N 0.44822 0.56935 0.76772 0.0
C1544 C 0.46586 0.56028 0.76339 0.0
C1545 C 0.47097 0.55071 0.77606 0.0
C1546 C 0.45557 0.55401 0.78918 0.0
C1547 C 0.44186 0.56542 0.78372 0.0
N1548 N 0.42163 0.59329 0.77419 0.0
C1549 C 0.41742 0.58739 0.7896 0.0
C1550 C 0.40647 0.59704 0.8005 0.0
C1551 C 0.40434 0.60945 0.7917 0.0
C1552 C 0.41373 0.60668 0.77592 0.0
N1553 N 0.42118 0.59999 0.73868 0.0
C1554 C 0.41272 0.6125 0.74431 0.0
C1555 C 0.40462 0.62118 0.73157 0.0
C1556 C 0.40857 0.61381 0.71689 0.0
C1557 C 0.419 0.60098 0.72153 0.0
N1558 N 0.40526 0.57332 0.75031 0.0
C1559 C 0.36414 0.55559 0.74985 0.0
C1560 C 0.36223 0.57006 0.75386 0.0
C1561 C 0.38291 0.57874 0.75386 0.0
C1562 C 0.38707 0.5504 0.74568 0.0
C1563 C 0.40719 0.55933 0.74602 0.0
N1564 N 0.46514 0.5956 0.75604 0.0
C1565 C 0.49878 0.6081 0.74345 0.0
C1566 C 0.5122 0.60715 0.75858 0.0
C1567 C 0.50071 0.60096 0.77271 0.0
C1568 C 0.47725 0.59542 0.77123 0.0
C1569 C 0.47555 0.60228 0.74243 0.0
H1570 H 0.46928 0.5905 0.78227 0.0
H1571 H 0.46642 0.60285 0.73039 0.0
H1572 H 0.38087 0.58977 0.75709 0.0
H1573 H 0.42449 0.55472 0.7433 0.0
C1574 C 0.47405 0.55964 0.74653 0.0
C1575 C 0.42994 0.59124 0.70918 0.0
C1576 C 0.4243 0.57293 0.79443 0.0
C1577 C 0.41048 0.61521 0.76166 0.0
H1578 H 0.46109 0.572 0.69118 0.0
H1579 H 0.48691 0.55539 0.71152 0.0
H1580 H 0.48367 0.54203 0.7756 0.0
H1581 H 0.45457 0.54869 0.80135 0.0
H1582 H 0.4002 0.59532 0.81336 0.0
H1583 H 0.39556 0.61904 0.79596 0.0
H1584 H 0.39668 0.63159 0.7328 0.0
H1585 H 0.40504 0.61771 0.70419 0.0
H1586 H 0.3449 0.57466 0.75698 0.0
H1587 H 0.3897 0.53932 0.7427 0.0
H1588 H 0.50619 0.61317 0.73225 0.0
H1589 H 0.50999 0.59989 0.78476 0.0
C1590 C 0.32846 0.57602 0.04474 0.0
C1591 C 0.32064 0.56588 0.05624 0.0
C1592 C 0.3186 0.55344 0.04735 0.0
C1593 C 0.32511 0.55666 0.03094 0.0
N1594 N 0.33108 0.57035 0.02893 0.0
Co1595 Co 0.34041 0.57962 0.00712 0.0
N1596 N 0.32757 0.5637 0.99319 0.0
C1597 C 0.32161 0.5508 0.99918 0.0
C1598 C 0.31366 0.54177 0.98673 0.0
C1599 C 0.31521 0.54932 0.97189 0.0
C1600 C 0.32427 0.56256 0.9761 0.0
N1601 N 0.34974 0.58919 0.98547 0.0
C1602 C 0.34439 0.58602 0.96903 0.0
C1603 C 0.35602 0.59534 0.958 0.0
C1604 C 0.36932 0.60436 0.96777 0.0
C1605 C 0.36522 0.60014 0.98416 0.0
N1606 N 0.35362 0.59537 0.02105 0.0
C1607 C 0.36961 0.60515 0.01582 0.0
C1608 C 0.37608 0.61452 0.02833 0.0
C1609 C 0.36334 0.6104 0.04239 0.0
C1610 C 0.34967 0.59875 0.03756 0.0
N1611 N 0.37208 0.56989 0.00778 0.0
C1612 C 0.41406 0.55283 0.00864 0.0
C1613 C 0.4021 0.55573 0.99333 0.0
C1614 C 0.38141 0.56418 0.99318 0.0
C1615 C 0.40486 0.5591 0.02353 0.0
C1616 C 0.38405 0.56767 0.0228 0.0
N1617 N 0.30847 0.58893 0.00639 0.0
C1618 C 0.283 0.60954 1.00275 0.0
C1619 C 0.26203 0.60134 0.00495 0.0
C1620 C 0.26506 0.58687 0.00815 0.0
C1621 C 0.28816 0.58095 0.0089 0.0
C1622 C 0.30598 0.60313 1.0034 0.0
H1623 H 0.28945 0.56983 0.01154 0.0
H1624 H 0.32172 0.60965 1.00142 0.0
H1625 H 0.37265 0.56565 0.98115 0.0
H1626 H 0.37736 0.57222 0.03448 0.0
C1627 C 0.32151 0.54803 0.0167 0.0
C1628 C 0.33421 0.59076 0.04922 0.0
C1629 C 0.33236 0.57294 0.96329 0.0
C1630 C 0.37458 0.60674 0.99858 0.0
H1631 H 0.31661 0.56731 0.0696 0.0
H1632 H 0.31197 0.54342 0.05212 0.0
H1633 H 0.30732 0.53101 0.98825 0.0
H1634 H 0.31093 0.54537 0.95932 0.0
H1635 H 0.35611 0.59534 0.94426 0.0
H1636 H 0.38083 0.61287 0.96341 0.0
H1637 H 0.38784 0.62361 0.0272 0.0
H1638 H 0.36407 0.6154 0.05476 0.0
H1639 H 0.40812 0.55107 0.98148 0.0
H1640 H 0.41359 0.5574 0.03568 0.0
H1641 H 0.28168 0.62077 1.00021 0.0
H1642 H 0.2496 0.58009 0.01029 0.0
C1643 C 0.44722 0.17818 0.04514 0.0
C1644 C 0.45477 0.18828 0.05677 0.0
C1645 C 0.45611 0.20087 0.04809 0.0
C1646 C 0.4494 0.19776 0.03168 0.0
N1647 N 0.44397 0.18402 0.02948 0.0
Co1648 Co 0.43415 0.17496 0.00767 0.0
N1649 N 0.44587 0.19127 0.99384 0.0
C1650 C 0.45122 0.20421 1.0 0.0
C1651 C 0.45734 0.21373 0.98754 0.0
C1652 C 0.45525 0.20645 0.97254 0.0
C1653 C 0.44795 0.19284 0.97669 0.0
N1654 N 0.42444 0.16561 0.98598 0.0
C1655 C 0.42952 0.16901 0.96958 0.0
C1656 C 0.41901 0.15942 0.95841 0.0
C1657 C 0.40629 0.15 0.96809 0.0
C1658 C 0.40985 0.15426 0.98457 0.0
N1659 N 0.42206 0.15881 0.02147 0.0
C1660 C 0.4066 0.14874 0.01622 0.0
C1661 C 0.40127 0.13899 0.0286 0.0
C1662 C 0.41423 0.14315 0.04255 0.0
C1663 C 0.42684 0.15522 0.03782 0.0
N1664 N 0.4022 0.18429 0.0092 0.0
C1665 C 0.36041 0.20147 0.01136 0.0
C1666 C 0.37161 0.19868 0.99572 0.0
C1667 C 0.39214 0.19013 0.99493 0.0
C1668 C 0.37018 0.19489 0.02589 0.0
C1669 C 0.39088 0.18629 0.02452 0.0
N1670 N 0.46632 0.16604 0.00614 0.0
C1671 C 0.49207 0.14568 1.0017 0.0
C1672 C 0.51294 0.15393 1.00408 0.0
C1673 C 0.5097 0.16834 0.00767 0.0
C1674 C 0.48649 0.17412 0.00866 0.0
C1675 C 0.46903 0.15192 1.00273 0.0
H1676 H 0.48498 0.1852 0.01154 0.0
H1677 H 0.45342 0.14532 1.00072 0.0
H1678 H 0.40032 0.18873 0.98271 0.0
H1679 H 0.39808 0.18157 0.03595 0.0
C1680 C 0.45194 0.20669 0.01758 0.0
C1681 C 0.44224 0.16332 0.04941 0.0
C1682 C 0.44023 0.18242 0.9639 0.0
C1683 C 0.40133 0.14724 0.99898 0.0
H1684 H 0.45897 0.18672 0.07008 0.0
H1685 H 0.46227 0.21094 0.05301 0.0
H1686 H 0.46264 0.22467 0.98915 0.0
H1687 H 0.458 0.21078 0.95993 0.0
H1688 H 0.41955 0.1596 0.94464 0.0
H1689 H 0.39569 0.14113 0.96363 0.0
H1690 H 0.39023 0.1296 0.0274 0.0
H1691 H 0.41445 0.13785 0.05476 0.0
H1692 H 0.36518 0.20353 0.98409 0.0
H1693 H 0.36203 0.19643 0.03827 0.0
H1694 H 0.49348 0.13452 0.99879 0.0
H1695 H 0.52503 0.17518 0.00998 0.0
H1696 H 0.2109 0.31403 0.18487 0.0
H1697 H 0.19442 0.31022 0.15614 0.0
H1698 H 0.12331 0.30501 0.17752 0.0
H1699 H 0.13978 0.30899 0.20614 0.0
H1700 H 0.16629 0.28846 0.14002 0.0
H1701 H 0.116 0.33908 0.14539 0.0
H1702 H 0.13947 0.33412 0.16014 0.0
H1703 H 0.10985 0.32654 0.16201 0.0
C1704 C 0.19189 0.31166 0.1834 0.0
C1705 C 0.17659 0.31166 0.19764 0.0
C1706 C 0.18245 0.30957 0.16701 0.0
C1707 C 0.15754 0.30756 0.16462 0.0
C1708 C 0.14251 0.30675 0.179 0.0
H1709 H 0.06704 0.31217 0.07339 0.0
H1710 H 0.08171 0.30748 0.1024 0.0
C1711 C 0.15193 0.30886 0.19534 0.0
C1712 C 0.14707 0.30733 0.14712 0.0
H1713 H 0.10955 0.32566 0.12053 0.0
C1714 C 0.15384 0.29657 0.13575 0.0
C1715 C 0.13086 0.31794 0.14151 0.0
C1716 C 0.12373 0.33016 0.15281 0.0
C1717 C 0.14464 0.29605 0.11903 0.0
C1718 C 0.12857 0.30672 0.11339 0.0
C1719 C 0.12169 0.31741 0.12483 0.0
C1720 C 0.11953 0.30752 0.09549 0.0
C1721 C 0.152 0.28395 0.10765 0.0
C1722 C 0.13579 0.30889 0.08186 0.0
C1723 C 0.12739 0.31144 0.06533 0.0
C1724 C 0.10257 0.31274 0.06208 0.0
C1725 C 0.08622 0.31093 0.07555 0.0
C1726 C 0.09463 0.30836 0.09211 0.0
H1727 H 0.15785 0.27461 0.11517 0.0
H1728 H 0.13698 0.28073 0.09914 0.0
H1729 H 0.16743 0.28732 0.09962 0.0
H1730 H 0.15506 0.30867 0.08411 0.0
H1731 H 0.14033 0.31311 0.05518 0.0
H1732 H 0.20048 0.92483 0.07361 0.0
H1733 H 0.18484 0.92867 0.10231 0.0
H1734 H 0.13933 0.96223 0.08338 0.0
H1735 H 0.15336 0.95735 0.05434 0.0
H1736 H 0.18328 0.94672 0.12504 0.0
H1737 H 0.08821 0.94034 0.10491 0.0
H1738 H 0.11293 0.93766 0.09045 0.0
H1739 H 0.10216 0.95528 0.09496 0.0
C1740 C 0.18721 0.93308 0.07564 0.0
C1741 C 0.17768 0.94055 0.06173 0.0
C1742 C 0.17824 0.93531 0.09208 0.0
C1743 C 0.16004 0.94539 0.09512 0.0
C1744 C 0.15239 0.95389 0.08141 0.0
H1745 H 0.12424 0.95649 0.20442 0.0
H1746 H 0.1386 0.96161 0.17552 0.0
C1747 C 0.16078 0.95131 0.06483 0.0
C1748 C 0.14877 0.94651 0.11247 0.0
H1749 H 0.09473 0.94659 0.13357 0.0
C1750 C 0.16389 0.94664 0.12685 0.0
C1751 C 0.12342 0.94622 0.11507 0.0
C1752 C 0.10576 0.94471 0.10054 0.0
C1753 C 0.1546 0.94606 0.14353 0.0
C1754 C 0.12923 0.94626 0.14614 0.0
C1755 C 0.11412 0.94656 0.13175 0.0
C1756 C 0.11795 0.9449 0.16345 0.0
C1757 C 0.17225 0.9444 0.15803 0.0
C1758 C 0.09973 0.93478 0.16628 0.0
C1759 C 0.09057 0.93242 0.18265 0.0
C1760 C 0.09994 0.93977 0.1967 0.0
C1761 C 0.11695 0.95053 0.19382 0.0
C1762 C 0.12552 0.95325 0.17732 0.0
H1763 H 0.18981 0.9401 0.15359 0.0
H1764 H 0.17582 0.9549 0.16379 0.0
H1765 H 0.16511 0.93722 0.16801 0.0
H1766 H 0.0932 0.92826 0.15594 0.0
H1767 H 0.07722 0.9242 0.1845 0.0
H1768 H 0.82776 0.69237 0.8219 0.0
H1769 H 0.84435 0.6961 0.85053 0.0
H1770 H 0.91628 0.69666 0.82961 0.0
H1771 H 0.89961 0.69328 0.80101 0.0
H1772 H 0.87348 0.67736 0.86624 0.0
H1773 H 0.92065 0.72895 0.8632 0.0
H1774 H 0.89885 0.72353 0.84742 0.0
H1775 H 0.92938 0.71712 0.84644 0.0
C1776 C 0.84701 0.69394 0.82338 0.0
C1777 C 0.86239 0.69293 0.80923 0.0
C1778 C 0.85652 0.69589 0.83975 0.0
C1779 C 0.88161 0.69684 0.8423 0.0
C1780 C 0.89689 0.69635 0.82803 0.0
H1781 H 0.96679 0.6757 0.93179 0.0
H1782 H 0.95259 0.68015 0.90256 0.0
C1783 C 0.88736 0.69442 0.81167 0.0
C1784 C 0.89185 0.69674 0.85989 0.0
H1785 H 0.93056 0.71399 0.88683 0.0
C1786 C 0.88578 0.68545 0.87074 0.0
C1787 C 0.908 0.70727 0.86586 0.0
C1788 C 0.91444 0.71998 0.85518 0.0
C1789 C 0.89571 0.68427 0.88714 0.0
C1790 C 0.91221 0.69459 0.89292 0.0
C1791 C 0.91808 0.706 0.88227 0.0
C1792 C 0.92302 0.69365 0.9102 0.0
C1793 C 0.88862 0.67195 0.89829 0.0
C1794 C 0.91147 0.70005 0.9241 0.0
C1795 C 0.91953 0.69752 0.94071 0.0
C1796 C 0.93935 0.68857 0.94373 0.0
C1797 C 0.95167 0.68276 0.92976 0.0
C1798 C 0.94352 0.68525 0.91311 0.0
H1799 H 0.87509 0.66498 0.8921 0.0
H1800 H 0.90485 0.66558 0.9014 0.0
H1801 H 0.88104 0.67591 0.91047 0.0
H1802 H 0.89554 0.70649 0.92213 0.0
H1803 H 0.90956 0.702 0.95126 0.0
H1804 H 0.89125 0.0594 0.95434 0.0
H1805 H 0.90406 0.05554 0.92479 0.0
H1806 H 0.82974 0.05658 0.90863 0.0
H1807 H 0.81703 0.0609 0.9381 0.0
H1808 H 0.89489 0.03609 0.89904 0.0
H1809 H 0.85914 0.08907 0.88199 0.0
H1810 H 0.86174 0.08318 0.90373 0.0
H1811 H 0.8369 0.07736 0.89077 0.0
C1812 C 0.87766 0.05839 0.9445 0.0
C1813 C 0.85315 0.06023 0.94851 0.0
C1814 C 0.88497 0.05626 0.92762 0.0
C1815 C 0.86792 0.05603 0.91439 0.0
C1816 C 0.84328 0.05697 0.91855 0.0
H1817 H 0.88245 0.06158 0.804 0.0
H1818 H 0.86745 0.05669 0.83281 0.0
C1819 C 0.83598 0.0592 0.93542 0.0
C1820 C 0.87605 0.05587 0.89627 0.0
H1821 H 0.87477 0.07528 0.85954 0.0
C1822 C 0.89044 0.04464 0.89039 0.0
C1823 C 0.87049 0.0671 0.88497 0.0
C1824 C 0.85643 0.07993 0.89068 0.0
C1825 C 0.89908 0.04424 0.87351 0.0
C1826 C 0.89341 0.05545 0.86223 0.0
C1827 C 0.87895 0.06662 0.86811 0.0
C1828 C 0.90282 0.05616 0.84445 0.0
C1829 C 0.91397 0.03176 0.86782 0.0
C1830 C 0.92773 0.05723 0.84128 0.0
C1831 C 0.93629 0.05996 0.8248 0.0
C1832 C 0.92011 0.0616 0.81118 0.0
C1833 C 0.89529 0.06003 0.81424 0.0
C1834 C 0.88673 0.05734 0.83069 0.0
H1835 H 0.91132 0.02246 0.87628 0.0
H1836 H 0.9094 0.02868 0.85457 0.0
H1837 H 0.93335 0.03468 0.86819 0.0
H1838 H 0.94049 0.05673 0.85169 0.0
H1839 H 0.95543 0.0616 0.82287 0.0
H1840 H 0.13749 0.80963 0.70546 0.0
H1841 H 0.12157 0.8052 0.67681 0.0
H1842 H 0.19383 0.80673 0.65654 0.0
H1843 H 0.20972 0.81102 0.68529 0.0
H1844 H 0.12617 0.82411 0.65063 0.0
H1845 H 0.16587 0.77273 0.63138 0.0
H1846 H 0.16494 0.77853 0.65327 0.0
H1847 H 0.18756 0.78532 0.63905 0.0
C1848 C 0.14998 0.80853 0.69493 0.0
C1849 C 0.17483 0.81041 0.69755 0.0
C1850 C 0.14089 0.8061 0.67856 0.0
C1851 C 0.15647 0.80547 0.66446 0.0
C1852 C 0.18145 0.80683 0.6672 0.0
H1853 H 0.1403 0.81104 0.55508 0.0
H1854 H 0.1544 0.80705 0.58431 0.0
C1855 C 0.19056 0.80927 0.68361 0.0
C1856 C 0.14635 0.80493 0.64684 0.0
H1857 H 0.14774 0.7865 0.60935 0.0
C1858 C 0.13068 0.81579 0.64168 0.0
C1859 C 0.15237 0.79415 0.63506 0.0
C1860 C 0.16844 0.78194 0.63997 0.0
C1861 C 0.12137 0.81639 0.62504 0.0
C1862 C 0.12739 0.80563 0.61322 0.0
C1863 C 0.14296 0.7947 0.61839 0.0
C1864 C 0.11862 0.80603 0.59524 0.0
C1865 C 0.1059 0.82888 0.62009 0.0
C1866 C 0.09379 0.80619 0.59148 0.0
C1867 C 0.08574 0.80847 0.57477 0.0
C1868 C 0.10238 0.81044 0.56151 0.0
C1869 C 0.12715 0.8094 0.5651 0.0
C1870 C 0.13519 0.80718 0.58179 0.0
H1871 H 0.10795 0.83783 0.62914 0.0
H1872 H 0.11049 0.83268 0.60712 0.0
H1873 H 0.08666 0.82564 0.62013 0.0
H1874 H 0.08062 0.80506 0.60157 0.0
H1875 H 0.06657 0.80937 0.57233 0.0
H1876 H 0.15202 0.45791 0.5546 0.0
H1877 H 0.13864 0.46352 0.58359 0.0
H1878 H 0.18502 0.43064 0.6032 0.0
H1879 H 0.19979 0.42599 0.57448 0.0
H1880 H 0.11378 0.44964 0.60371 0.0
H1881 H 0.1984 0.45819 0.63854 0.0
H1882 H 0.1978 0.45709 0.61565 0.0
H1883 H 0.19995 0.44126 0.62847 0.0
C1884 C 0.15992 0.45227 0.56523 0.0
C1885 C 0.17695 0.44153 0.56234 0.0
C1886 C 0.15211 0.45536 0.58181 0.0
C1887 C 0.1609 0.44765 0.59586 0.0
C1888 C 0.17842 0.43715 0.59288 0.0
H1889 H 0.07849 0.42712 0.68548 0.0
H1890 H 0.09318 0.43126 0.65663 0.0
C1891 C 0.18674 0.43437 0.57639 0.0
C1892 C 0.15026 0.44962 0.61327 0.0
H1893 H 0.16454 0.45009 0.65559 0.0
C1894 C 0.12499 0.45001 0.61501 0.0
C1895 C 0.16456 0.4505 0.62821 0.0
C1896 C 0.19166 0.45191 0.62757 0.0
C1897 C 0.11377 0.45059 0.63107 0.0
C1898 C 0.12806 0.44997 0.64603 0.0
C1899 C 0.15333 0.45027 0.64428 0.0
C1900 C 0.11742 0.44834 0.6635 0.0
C1901 C 0.08668 0.45207 0.63167 0.0
C1902 C 0.12627 0.45629 0.67733 0.0
C1903 C 0.1185 0.4535 0.694 0.0
C1904 C 0.10145 0.44283 0.69719 0.0
C1905 C 0.09156 0.43545 0.68334 0.0
C1906 C 0.09983 0.43794 0.66677 0.0
H1907 H 0.07998 0.45816 0.62053 0.0
H1908 H 0.07831 0.44142 0.63106 0.0
H1909 H 0.08057 0.45748 0.64344 0.0
H1910 H 0.13978 0.4644 0.67532 0.0
H1911 H 0.12647 0.45929 0.70447 0.0
H1912 H 0.89104 0.19313 0.30552 0.0
H1913 H 0.90396 0.19728 0.33498 0.0
H1914 H 0.82952 0.19904 0.3508 0.0
H1915 H 0.81665 0.19459 0.32133 0.0
H1916 H 0.896 0.21786 0.35989 0.0
H1917 H 0.85623 0.16628 0.37881 0.0
H1918 H 0.85962 0.17147 0.35685 0.0
H1919 H 0.83517 0.17839 0.36938 0.0
C1920 C 0.87749 0.19476 0.31526 0.0
C1921 C 0.85287 0.19361 0.31121 0.0
C1922 C 0.88486 0.19708 0.33209 0.0
C1923 C 0.86775 0.1982 0.34521 0.0
C1924 C 0.84308 0.19794 0.34097 0.0
H1925 H 0.88298 0.19403 0.45566 0.0
H1926 H 0.86788 0.19867 0.42683 0.0
C1927 C 0.8357 0.19558 0.32413 0.0
C1928 C 0.87582 0.19861 0.36334 0.0
H1929 H 0.87359 0.17999 0.40062 0.0
C1930 C 0.89103 0.20961 0.36882 0.0
C1931 C 0.86955 0.18778 0.375 0.0
C1932 C 0.85444 0.17523 0.36973 0.0
C1933 C 0.89985 0.21015 0.38565 0.0
C1934 C 0.89359 0.1993 0.39727 0.0
C1935 C 0.87827 0.18838 0.39179 0.0
C1936 C 0.90316 0.19871 0.41503 0.0
C1937 C 0.91555 0.22243 0.39089 0.0
C1938 C 0.92808 0.19748 0.41814 0.0
C1939 C 0.9367 0.19494 0.43466 0.0
C1940 C 0.92056 0.19355 0.44833 0.0
C1941 C 0.89577 0.19532 0.44535 0.0
C1942 C 0.88715 0.19787 0.42887 0.0
H1943 H 0.91306 0.23167 0.38233 0.0
H1944 H 0.91161 0.22574 0.40416 0.0
H1945 H 0.93476 0.21918 0.3902 0.0
H1946 H 0.94078 0.19775 0.40768 0.0
H1947 H 0.95583 0.19327 0.43661 0.0
H1948 H 0.95588 0.56382 0.32039 0.0
H1949 H 0.94253 0.55916 0.34964 0.0
H1950 H 0.86878 0.55707 0.33233 0.0
H1951 H 0.88227 0.56135 0.30306 0.0
H1952 H 0.91393 0.57662 0.36742 0.0
H1953 H 0.8698 0.52412 0.36492 0.0
H1954 H 0.88937 0.53043 0.34819 0.0
H1955 H 0.85844 0.53615 0.34918 0.0
C1956 C 0.93696 0.56175 0.32277 0.0
C1957 C 0.92016 0.56256 0.30943 0.0
C1958 C 0.92928 0.55925 0.33951 0.0
C1959 C 0.90463 0.55755 0.34327 0.0
C1960 C 0.88792 0.55793 0.32981 0.0
H1961 H 0.81771 0.56426 0.43508 0.0
H1962 H 0.83249 0.56011 0.40595 0.0
C1963 C 0.89562 0.56038 0.31307 0.0
C1964 C 0.89622 0.55699 0.36135 0.0
H1965 H 0.86138 0.5383 0.38949 0.0
C1966 C 0.9027 0.56813 0.37227 0.0
C1967 C 0.88132 0.54601 0.36772 0.0
C1968 C 0.8745 0.53343 0.35694 0.0
C1969 C 0.89435 0.56877 0.38915 0.0
C1970 C 0.87935 0.55785 0.3955 0.0
C1971 C 0.8729 0.54666 0.38465 0.0
C1972 C 0.86996 0.55814 0.4133 0.0
C1973 C 0.90108 0.5814 0.39991 0.0
C1974 C 0.88594 0.55782 0.42718 0.0
C1975 C 0.8775 0.56012 0.44375 0.0
C1976 C 0.8529 0.56263 0.44678 0.0
C1977 C 0.83669 0.56212 0.43306 0.0
C1978 C 0.84515 0.55983 0.41644 0.0
H1979 H 0.9078 0.59034 0.39206 0.0
H1980 H 0.88539 0.58511 0.40749 0.0
H1981 H 0.9156 0.57833 0.4089 0.0
H1982 H 0.90509 0.55636 0.42512 0.0
H1983 H 0.89033 0.56065 0.45413 0.0
H1984 H 0.63 0.29738 0.55459 0.0
H1985 H 0.64348 0.29154 0.58358 0.0
H1986 H 0.59806 0.32475 0.60348 0.0
H1987 H 0.58337 0.32971 0.57483 0.0
H1988 H 0.66875 0.30529 0.60397 0.0
H1989 H 0.58381 0.2969 0.63843 0.0
H1990 H 0.58459 0.29811 0.61556 0.0
H1991 H 0.58244 0.31389 0.62846 0.0
C1992 C 0.62239 0.30307 0.56529 0.0
C1993 C 0.60574 0.31401 0.56254 0.0
C1994 C 0.63023 0.29983 0.58185 0.0
C1995 C 0.62169 0.30756 0.59598 0.0
C1996 C 0.60446 0.31824 0.5931 0.0
H1997 H 0.7033 0.32812 0.68581 0.0
H1998 H 0.68894 0.32384 0.65691 0.0
C1999 C 0.59621 0.3212 0.57665 0.0
C2000 C 0.63221 0.30541 0.6134 0.0
H2001 H 0.61755 0.30502 0.65566 0.0
C2002 C 0.65745 0.30496 0.61523 0.0
C2003 C 0.61778 0.30456 0.62828 0.0
C2004 C 0.59068 0.30321 0.62753 0.0
C2005 C 0.66854 0.30442 0.63135 0.0
C2006 C 0.65412 0.3051 0.64626 0.0
C2007 C 0.62887 0.3048 0.6444 0.0
C2008 C 0.66461 0.30679 0.66377 0.0
C2009 C 0.69562 0.30292 0.63207 0.0
C2010 C 0.65559 0.29891 0.67762 0.0
C2011 C 0.66319 0.30179 0.69432 0.0
C2012 C 0.68021 0.31247 0.69752 0.0
C2013 C 0.69024 0.31978 0.68366 0.0
C2014 C 0.68216 0.31721 0.66706 0.0
H2015 H 0.7024 0.29679 0.621 0.0
H2016 H 0.704 0.31357 0.63144 0.0
H2017 H 0.70162 0.29756 0.6439 0.0
H2018 H 0.6421 0.2908 0.6756 0.0
H2019 H 0.6551 0.29603 0.70479 0.0
H2020 H 0.5642 0.92494 0.68232 0.0
H2021 H 0.57846 0.92898 0.65303 0.0
H2022 H 0.63388 0.95679 0.67197 0.0
H2023 H 0.61984 0.95268 0.70119 0.0
H2024 H 0.60026 0.96346 0.63681 0.0
H2025 H 0.65509 0.91427 0.6427 0.0
H2026 H 0.62495 0.9147 0.65137 0.0
H2027 H 0.64823 0.92511 0.661 0.0
C2028 C 0.57895 0.93223 0.68013 0.0
C2029 C 0.59081 0.93859 0.69395 0.0
C2030 C 0.58715 0.93448 0.66345 0.0
C2031 C 0.60723 0.94319 0.66035 0.0
C2032 C 0.61828 0.95012 0.67407 0.0
H2033 H 0.70285 0.94156 0.57202 0.0
H2034 H 0.6862 0.94515 0.60071 0.0
C2035 C 0.61019 0.94781 0.69074 0.0
C2036 C 0.61813 0.94395 0.64308 0.0
H2037 H 0.6566 0.9263 0.61657 0.0
C2038 C 0.61257 0.95536 0.63234 0.0
C2039 C 0.63442 0.93348 0.6374 0.0
C2040 C 0.64122 0.92117 0.64864 0.0
C2041 C 0.62272 0.95645 0.61593 0.0
C2042 C 0.63866 0.94578 0.61006 0.0
C2043 C 0.64444 0.9345 0.621 0.0
C2044 C 0.64894 0.94573 0.59248 0.0
C2045 C 0.61654 0.96913 0.60512 0.0
C2046 C 0.63365 0.94515 0.57822 0.0
C2047 C 0.64319 0.94323 0.56187 0.0
C2048 C 0.66819 0.94182 0.55944 0.0
C2049 C 0.68357 0.94292 0.57356 0.0
C2050 C 0.67403 0.94484 0.58994 0.0
H2051 H 0.61033 0.97817 0.61302 0.0
H2052 H 0.63227 0.97258 0.59741 0.0
H2053 H 0.60168 0.96628 0.59629 0.0
H2054 H 0.61426 0.94544 0.5798 0.0
H2055 H 0.63097 0.94209 0.5512 0.0
H2056 H 0.3773 0.70851 0.30423 0.0
H2057 H 0.38969 0.71489 0.33328 0.0
H2058 H 0.34692 0.68043 0.35309 0.0
H2059 H 0.33302 0.675 0.32436 0.0
H2060 H 0.34516 0.69975 0.37455 0.0
H2061 H 0.44182 0.69538 0.3572 0.0
H2062 H 0.42675 0.70943 0.34622 0.0
H2063 H 0.41813 0.69132 0.34235 0.0
C2064 C 0.37024 0.70255 0.3149 0.0
C2065 C 0.35474 0.69105 0.3121 0.0
C2066 C 0.37762 0.70602 0.33149 0.0
C2067 C 0.37019 0.69777 0.34549 0.0
C2068 C 0.3533 0.68691 0.34265 0.0
H2069 H 0.44701 0.67742 0.43635 0.0
H2070 H 0.4331 0.68221 0.40745 0.0
C2071 C 0.34539 0.68374 0.32619 0.0
C2072 C 0.38036 0.69989 0.36299 0.0
H2073 H 0.43311 0.70127 0.38556 0.0
C2074 C 0.36442 0.70008 0.37692 0.0
C2075 C 0.40555 0.70023 0.36627 0.0
C2076 C 0.42405 0.69894 0.35225 0.0
C2077 C 0.37276 0.6999 0.39385 0.0
C2078 C 0.39794 0.70044 0.39712 0.0
C2079 C 0.41385 0.70093 0.38319 0.0
C2080 C 0.40826 0.6989 0.41467 0.0
C2081 C 0.35439 0.69819 0.40789 0.0
C2082 C 0.39999 0.70706 0.4285 0.0
C2083 C 0.40743 0.70396 0.44518 0.0
C2084 C 0.42384 0.69294 0.44823 0.0
C2085 C 0.43402 0.68581 0.43431 0.0
C2086 C 0.42607 0.6886 0.41776 0.0
H2087 H 0.33699 0.694 0.40302 0.0
H2088 H 0.36102 0.6909 0.41794 0.0
H2089 H 0.35071 0.70866 0.41372 0.0
H2090 H 0.38717 0.71553 0.42651 0.0
H2091 H 0.39966 0.70976 0.45573 0.0
H2092 H 0.3939 0.06029 0.45467 0.0
H2093 H 0.40745 0.05619 0.42533 0.0
H2094 H 0.33345 0.0562 0.40841 0.0
H2095 H 0.31999 0.06072 0.43767 0.0
H2096 H 0.39922 0.03625 0.39975 0.0
H2097 H 0.36261 0.08877 0.38158 0.0
H2098 H 0.36502 0.08314 0.40344 0.0
H2099 H 0.34052 0.07698 0.39039 0.0
C2100 C 0.38055 0.05899 0.44473 0.0
C2101 C 0.3559 0.06059 0.44846 0.0
C2102 C 0.38828 0.05673 0.42796 0.0
C2103 C 0.37152 0.05614 0.41457 0.0
C2104 C 0.34677 0.05685 0.41846 0.0
H2105 H 0.38658 0.06016 0.30424 0.0
H2106 H 0.37177 0.05594 0.33323 0.0
C2107 C 0.33904 0.05919 0.43522 0.0
C2108 C 0.38002 0.05586 0.39652 0.0
H2109 H 0.37888 0.07485 0.35946 0.0
C2110 C 0.39474 0.04467 0.39093 0.0
C2111 C 0.37442 0.06693 0.385 0.0
C2112 C 0.35998 0.07971 0.3904 0.0
C2113 C 0.4036 0.04413 0.37411 0.0
C2114 C 0.39786 0.05516 0.3626 0.0
C2115 C 0.38314 0.06632 0.36821 0.0
C2116 C 0.40721 0.05563 0.34478 0.0
C2117 C 0.41874 0.03166 0.36873 0.0
C2118 C 0.43212 0.0566 0.34148 0.0
C2119 C 0.44058 0.05895 0.32487 0.0
C2120 C 0.42428 0.06037 0.31129 0.0
C2121 C 0.39948 0.05887 0.31448 0.0
C2122 C 0.39104 0.05655 0.33105 0.0
H2123 H 0.41616 0.02246 0.37735 0.0
H2124 H 0.41433 0.02838 0.35552 0.0
H2125 H 0.43807 0.03469 0.36912 0.0
H2126 H 0.44496 0.05626 0.35185 0.0
H2127 H 0.45973 0.06038 0.32275 0.0
H2128 H 0.65013 0.80762 0.20165 0.0
H2129 H 0.63384 0.80478 0.17292 0.0
H2130 H 0.69364 0.82863 0.15263 0.0
H2131 H 0.70967 0.83173 0.18158 0.0
H2132 H 0.65126 0.83891 0.14166 0.0
H2133 H 0.65102 0.78091 0.13222 0.0
H2134 H 0.63601 0.78609 0.15145 0.0
H2135 H 0.66784 0.78932 0.14909 0.0
C2136 C 0.66015 0.81189 0.19099 0.0
C2137 C 0.68128 0.81977 0.19377 0.0
C2138 C 0.65085 0.81024 0.17454 0.0
C2139 C 0.66259 0.81635 0.16048 0.0
C2140 C 0.68428 0.82375 0.16322 0.0
H2141 H 0.62516 0.80806 0.05332 0.0
H2142 H 0.6423 0.80517 0.08185 0.0
C2143 C 0.69357 0.82543 0.1797 0.0
C2144 C 0.65105 0.81618 0.1433 0.0
H2145 H 0.62693 0.79445 0.11288 0.0
C2146 C 0.64609 0.82917 0.13534 0.0
C2147 C 0.64438 0.80349 0.13492 0.0
C2148 C 0.6503 0.78916 0.14227 0.0
C2149 C 0.6344 0.82985 0.11948 0.0
C2150 C 0.62689 0.81719 0.11141 0.0
C2151 C 0.63225 0.80417 0.11918 0.0
C2152 C 0.61453 0.81733 0.09453 0.0
C2153 C 0.63067 0.84415 0.11133 0.0
C2154 C 0.59259 0.82456 0.0922 0.0
C2155 C 0.58274 0.8262 0.07587 0.0
C2156 C 0.59459 0.82053 0.06162 0.0
C2157 C 0.61562 0.81249 0.0641 0.0
C2158 C 0.62547 0.81088 0.0804 0.0
H2159 H 0.64273 0.85231 0.11692 0.0
H2160 H 0.63397 0.84368 0.0974 0.0
H2161 H 0.61176 0.84759 0.11341 0.0
H2162 H 0.58352 0.82939 0.10294 0.0
H2163 H 0.56659 0.8325 0.07424 0.0
H2164 H 0.71574 0.42558 0.07622 0.0
H2165 H 0.70167 0.4302 0.10545 0.0
H2166 H 0.64303 0.45521 0.08568 0.0
H2167 H 0.65703 0.45064 0.05657 0.0
H2168 H 0.68184 0.46218 0.12192 0.0
H2169 H 0.62058 0.41574 0.11507 0.0
H2170 H 0.64945 0.41626 0.10442 0.0
H2171 H 0.62547 0.42748 0.09729 0.0
C2172 C 0.7003 0.43241 0.0782 0.0
C2173 C 0.68755 0.43784 0.0642 0.0
C2174 C 0.69223 0.435 0.09484 0.0
C2175 C 0.67131 0.44304 0.0977 0.0
C2176 C 0.65927 0.44904 0.08375 0.0
H2177 H 0.57715 0.44317 0.18687 0.0
H2178 H 0.59347 0.44702 0.15814 0.0
C2179 C 0.66732 0.44647 0.06715 0.0
C2180 C 0.66064 0.44402 0.11501 0.0
H2181 H 0.61965 0.42793 0.14106 0.0
C2182 C 0.66823 0.45472 0.12615 0.0
C2183 C 0.6427 0.43438 0.12038 0.0
C2184 C 0.63394 0.42276 0.10877 0.0
C2185 C 0.65838 0.45598 0.14263 0.0
C2186 C 0.6408 0.44611 0.1482 0.0
C2187 C 0.63304 0.43553 0.13687 0.0
C2188 C 0.63092 0.44604 0.1659 0.0
C2189 C 0.66665 0.46802 0.1538 0.0
C2190 C 0.64643 0.44453 0.17993 0.0
C2191 C 0.63709 0.44253 0.19632 0.0
C2192 C 0.61206 0.44189 0.19901 0.0
C2193 C 0.59649 0.44393 0.18514 0.0
C2194 C 0.60584 0.44599 0.16873 0.0
H2195 H 0.67364 0.47699 0.1461 0.0
H2196 H 0.65177 0.47193 0.16201 0.0
H2197 H 0.68152 0.46428 0.16211 0.0
H2198 H 0.66578 0.44415 0.17813 0.0
H2199 H 0.64943 0.44066 0.20678 0.0
H2200 H 0.40149 0.19027 0.8027 0.0
H2201 H 0.41666 0.19346 0.83177 0.0
H2202 H 0.34353 0.19534 0.85037 0.0
H2203 H 0.32842 0.19158 0.82138 0.0
H2204 H 0.41252 0.21245 0.85798 0.0
H2205 H 0.36972 0.16149 0.87566 0.0
H2206 H 0.37146 0.16753 0.85394 0.0
H2207 H 0.3486 0.17436 0.86798 0.0
C2208 C 0.38871 0.1918 0.81296 0.0
C2209 C 0.3638 0.19088 0.80978 0.0
C2210 C 0.39736 0.19355 0.82958 0.0
C2211 C 0.38128 0.19432 0.84337 0.0
C2212 C 0.35634 0.19446 0.84002 0.0
H2213 H 0.39775 0.19356 0.95311 0.0
H2214 H 0.38464 0.19779 0.92379 0.0
C2215 C 0.34767 0.19259 0.82341 0.0
C2216 C 0.39059 0.19383 0.86121 0.0
H2217 H 0.38802 0.17445 0.89796 0.0
C2218 C 0.40717 0.20413 0.86671 0.0
C2219 C 0.38394 0.18285 0.87259 0.0
C2220 C 0.36766 0.17085 0.86723 0.0
C2221 C 0.4168 0.20391 0.88332 0.0
C2222 C 0.40974 0.1931 0.89472 0.0
C2223 C 0.39329 0.18279 0.88923 0.0
C2224 C 0.41893 0.19226 0.9125 0.0
C2225 C 0.43417 0.21531 0.88874 0.0
C2226 C 0.44271 0.18792 0.91594 0.0
C2227 C 0.45021 0.18541 0.93276 0.0
C2228 C 0.43407 0.1873 0.94634 0.0
C2229 C 0.41062 0.19217 0.94289 0.0
C2230 C 0.40309 0.19454 0.92614 0.0
H2231 H 0.43532 0.22401 0.87927 0.0
H2232 H 0.42864 0.21979 0.90121 0.0
H2233 H 0.45241 0.21065 0.89034 0.0
H2234 H 0.45514 0.18591 0.90559 0.0
H2235 H 0.46825 0.18147 0.93512 0.0
H2236 H 0.39319 0.55166 0.80323 0.0
H2237 H 0.37746 0.54642 0.8318 0.0
H2238 H 0.4242 0.57851 0.85286 0.0
H2239 H 0.44131 0.58267 0.82469 0.0
H2240 H 0.42067 0.56006 0.87474 0.0
H2241 H 0.32683 0.56897 0.85303 0.0
H2242 H 0.34036 0.55392 0.84301 0.0
H2243 H 0.35228 0.57139 0.83913 0.0
C2244 C 0.40046 0.55726 0.81411 0.0
C2245 C 0.41809 0.56774 0.81181 0.0
C2246 C 0.39114 0.55449 0.8304 0.0
C2247 C 0.3987 0.56252 0.84455 0.0
C2248 C 0.41766 0.57225 0.84228 0.0
H2249 H 0.31541 0.58455 0.93363 0.0
H2250 H 0.33089 0.58044 0.90487 0.0
C2251 C 0.4275 0.57465 0.82615 0.0
C2252 C 0.38667 0.56132 0.8616 0.0
H2253 H 0.33194 0.5625 0.88175 0.0
C2254 C 0.40125 0.56063 0.87622 0.0
C2255 C 0.36127 0.56226 0.86374 0.0
C2256 C 0.3443 0.56433 0.84891 0.0
C2257 C 0.39145 0.56137 0.89271 0.0
C2258 C 0.36602 0.56179 0.89487 0.0
C2259 C 0.35137 0.56203 0.88025 0.0
C2260 C 0.35436 0.56306 0.91203 0.0
C2261 C 0.40876 0.56257 0.90749 0.0
C2262 C 0.36124 0.55428 0.92565 0.0
C2263 C 0.35311 0.55703 0.9422 0.0
C2264 C 0.33694 0.56818 0.94539 0.0
C2265 C 0.32798 0.57595 0.93153 0.0
C2266 C 0.33687 0.57358 0.91507 0.0
H2267 H 0.42663 0.56665 0.90337 0.0
H2268 H 0.40169 0.56975 0.9175 0.0
H2269 H 0.41171 0.55195 0.91311 0.0
H2270 H 0.37369 0.54562 0.92366 0.0
H2271 H 0.36029 0.55081 0.95261 0.0
H2272 H 0.91493 0.23179 0.25238 0.0
H2273 H 0.9489 0.24817 0.25352 0.0
H2274 H 0.9984 0.21302 0.25329 0.0
H2275 H 0.96438 0.19649 0.25153 0.0
H2276 H 0.98447 0.25174 0.27698 0.0
H2277 H 0.02536 0.23712 0.21502 0.0
H2278 H 0.99548 0.2315 0.22114 0.0
H2279 H 0.02159 0.22249 0.22936 0.0
C2280 C 0.93302 0.22748 0.25232 0.0
C2281 C 0.93675 0.21272 0.25158 0.0
C2282 C 0.9525 0.23691 0.25312 0.0
C2283 C 0.97637 0.23194 0.25316 0.0
C2284 C 0.98023 0.21721 0.25287 0.0
H2285 H 0.11718 0.27282 0.2571 0.0
H2286 H 0.08317 0.25648 0.25594 0.0
C2287 C 0.96069 0.20772 0.25207 0.0
C2288 C 0.997 0.24222 0.25372 0.0
H2289 H 0.04763 0.25296 0.23232 0.0
C2290 C 0.99822 0.25202 0.26717 0.0
C2291 C 0.01503 0.24269 0.24094 0.0
C2292 C 0.01427 0.23299 0.22571 0.0
C2293 C 0.01706 0.26202 0.26835 0.0
C2294 C 0.0351 0.26248 0.25557 0.0
C2295 C 0.03387 0.25268 0.24213 0.0
C2296 C 0.05575 0.27274 0.25615 0.0
C2297 C 0.0178 0.27173 0.28357 0.0
C2298 C 0.05193 0.28747 0.25637 0.0
C2299 C 0.0715 0.29694 0.25717 0.0
C2300 C 0.09542 0.29192 0.25775 0.0
C2301 C 0.09911 0.27716 0.25709 0.0
C2302 C 0.0796 0.26774 0.25628 0.0
H2303 H 1.00665 0.26764 0.29424 0.0
H2304 H 0.03658 0.27319 0.28817 0.0
H2305 H 1.01057 0.28224 0.27988 0.0
H2306 H 0.03378 0.29168 0.25589 0.0
H2307 H 0.06784 0.30819 0.25765 0.0
H2308 H 0.1615 0.98132 0.25599 0.0
H2309 H 0.1956 0.99759 0.25433 0.0
H2310 H 0.24485 0.96266 0.26019 0.0
H2311 H 0.21071 0.94624 0.262 0.0
H2312 H 0.231 0.00358 0.27756 0.0
H2313 H 0.27248 0.9824 0.21863 0.0
H2314 H 0.24245 0.97758 0.22536 0.0
H2315 H 0.26834 0.96941 0.23504 0.0
C2316 C 0.17954 0.97703 0.25706 0.0
C2317 C 0.18315 0.96236 0.25922 0.0
C2318 C 0.19911 0.9864 0.25601 0.0
C2319 C 0.22296 0.98143 0.25693 0.0
C2320 C 0.22671 0.9668 0.25907 0.0
H2321 H 0.36442 0.02178 0.25484 0.0
H2322 H 0.33018 0.00564 0.2567 0.0
C2323 C 0.20709 0.95738 0.26012 0.0
C2324 C 0.24367 0.99165 0.25602 0.0
H2325 H 0.29482 0.99979 0.2336 0.0
C2326 C 0.24489 0.00277 0.26789 0.0
C2327 C 0.26191 0.99068 0.24342 0.0
C2328 C 0.2612 0.97946 0.22978 0.0
C2329 C 0.26392 0.0127 0.26774 0.0
C2330 C 0.28217 0.01173 0.25515 0.0
C2331 C 0.28093 1.00061 0.24327 0.0
C2332 C 0.30296 0.02189 0.25426 0.0
C2333 C 0.26464 0.02391 0.28139 0.0
C2334 C 0.29934 0.03654 0.25218 0.0
C2335 C 0.31905 0.04589 0.25103 0.0
C2336 C 0.34294 0.04082 0.25174 0.0
C2337 C 0.34641 0.02614 0.2539 0.0
C2338 C 0.32676 0.01684 0.25506 0.0
H2339 H 0.25336 0.02097 0.29253 0.0
H2340 H 0.28339 0.02579 0.28581 0.0
H2341 H 0.25751 0.03397 0.27613 0.0
H2342 H 0.28124 0.04075 0.25115 0.0
H2343 H 0.31556 0.05706 0.24918 0.0
H2344 H 0.06457 0.94701 0.99523 0.0
H2345 H 0.03021 0.96336 0.99679 0.0
H2346 H 0.07873 0.99773 0.008 0.0
H2347 H 0.11295 0.98157 0.00639 0.0
H2348 H 1.01236 0.98019 0.02199 0.0
H2349 H 0.04184 0.01447 0.9688 0.0
H2350 H 0.05563 0.99756 0.97308 0.0
H2351 H 0.06421 0.01293 0.98517 0.0
C2352 C 0.06794 0.95803 0.99809 0.0
C2353 C 0.09174 0.96293 1.0004 0.0
C2354 C 0.04823 0.96742 0.99892 0.0
C2355 C 0.05175 0.98195 1.00207 0.0
C2356 C 0.0754 0.98673 0.00496 0.0
H2357 H 0.95734 0.05594 0.01473 0.0
H2358 H 0.99154 0.03951 0.01329 0.0
C2359 C 0.09506 0.97741 1.00406 0.0
C2360 C 0.03083 0.99208 1.00261 0.0
H2361 H 1.00949 0.02315 0.98577 0.0
C2362 C 1.01171 0.98952 0.01397 0.0
C2363 C 0.02977 0.00435 0.9922 0.0
C2364 C 0.04883 0.00745 0.97901 0.0
C2365 C 0.99203 0.99893 0.01546 0.0
C2366 C 0.99109 0.01124 0.00515 0.0
C2367 C 1.01016 0.0138 0.99377 0.0
C2368 C 0.97025 0.02139 0.00573 0.0
C2369 C 0.97265 0.99577 0.02839 0.0
C2370 C 0.94683 0.01688 1.00159 0.0
C2371 C 0.92725 0.02628 1.00225 0.0
C2372 C 0.9304 0.04055 0.00709 0.0
C2373 C 0.95403 0.04513 0.01087 0.0
C2374 C 0.97367 0.03569 0.01014 0.0
H2375 H 0.979 0.98821 0.03824 0.0
H2376 H 0.96648 0.00561 0.03478 0.0
H2377 H 0.95693 0.99096 0.02184 0.0
H2378 H 0.94367 0.00605 0.9977 0.0
H2379 H 0.90961 0.02234 0.99874 0.0
H2380 H 0.32334 0.20498 0.98834 0.0
H2381 H 0.29147 0.22279 0.98841 0.0
H2382 H 0.31704 0.23863 0.03653 0.0
H2383 H 0.34945 0.22096 0.03645 0.0
H2384 H 0.26606 0.23613 0.03481 0.0
H2385 H 0.30157 0.26522 0.9789 0.0
H2386 H 0.29728 0.24663 0.97526 0.0
H2387 H 0.31934 0.25244 0.99051 0.0
C2388 C 0.32243 0.21229 0.99892 0.0
C2389 C 0.33939 0.21154 0.01229 0.0
C2390 C 0.30408 0.22251 0.99893 0.0
C2391 C 0.30204 0.23231 0.01229 0.0
C2392 C 0.31827 0.23128 0.026 0.0
H2393 H 0.21303 0.30959 0.00611 0.0
H2394 H 0.24666 0.29292 0.00957 0.0
C2395 C 0.33675 0.22107 0.02598 0.0
C2396 C 0.283 0.24359 0.01186 0.0
H2397 H 0.26215 0.27149 0.98822 0.0
C2398 C 0.2653 0.2439 0.02466 0.0
C2399 C 0.28208 0.25393 0.9988 0.0
C2400 C 0.30119 0.25468 0.98516 0.0
C2401 C 0.24641 0.25392 0.02446 0.0
C2402 C 0.2449 0.26388 0.01098 0.0
C2403 C 0.26305 0.26384 0.99848 0.0
C2404 C 0.22435 0.27414 0.00937 0.0
C2405 C 0.22832 0.2538 0.03879 0.0
C2406 C 0.20051 0.26924 0.00796 0.0
C2407 C 0.18126 0.27874 0.00604 0.0
C2408 C 0.18521 0.29347 0.00532 0.0
C2409 C 0.20914 0.29838 0.00676 0.0
C2410 C 0.22846 0.28883 0.00864 0.0
H2411 H 0.23577 0.24865 0.05036 0.0
H2412 H 0.22253 0.2647 0.04213 0.0
H2413 H 0.21216 0.24773 0.03478 0.0
H2414 H 0.19674 0.258 0.00815 0.0
H2415 H 0.16317 0.27448 0.00522 0.0
H2416 H 0.94982 0.70394 0.77269 0.0
H2417 H 0.9833 0.72088 0.77433 0.0
H2418 H 0.96009 0.73987 0.72723 0.0
H2419 H 0.92658 0.72313 0.72562 0.0
H2420 H 0.02151 0.72667 0.75422 0.0
H2421 H 0.96387 0.77444 0.7567 0.0
H2422 H 0.95175 0.75684 0.759 0.0
H2423 H 0.95829 0.76384 0.73819 0.0
C2424 C 0.95194 0.71164 0.7626 0.0
C2425 C 0.93521 0.71219 0.74911 0.0
C2426 C 0.97108 0.72141 0.7636 0.0
C2427 C 0.97404 0.732 0.75115 0.0
C2428 C 0.9579 0.73219 0.73734 0.0
H2429 H 0.08112 0.79907 0.73335 0.0
H2430 H 0.04716 0.78249 0.73142 0.0
C2431 C 0.93871 0.72252 0.73639 0.0
C2432 C 0.99405 0.7427 0.75248 0.0
H2433 H 1.00591 0.77833 0.75278 0.0
C2434 C 0.01801 0.73795 0.75401 0.0
C2435 C 0.98974 0.75751 0.7522 0.0
C2436 C 0.96452 0.76348 0.75161 0.0
C2437 C 0.03758 0.74749 0.75493 0.0
C2438 C 0.03326 0.76227 0.75454 0.0
C2439 C 1.00935 0.76704 0.75299 0.0
C2440 C 0.05329 0.7729 0.75604 0.0
C2441 C 0.06285 0.74162 0.75595 0.0
C2442 C 0.06773 0.77343 0.77071 0.0
C2443 C 0.08702 0.78301 0.77194 0.0
C2444 C 0.09254 0.79238 0.7585 0.0
C2445 C 0.07749 0.79216 0.74403 0.0
C2446 C 0.05809 0.78258 0.74285 0.0
H2447 H 0.06363 0.7304 0.75177 0.0
H2448 H 0.07547 0.74792 0.74802 0.0
H2449 H 0.06917 0.74211 0.76934 0.0
H2450 H 0.06412 0.76639 0.78128 0.0
H2451 H 0.09766 0.78302 0.78349 0.0
H2452 H 0.67176 0.97801 0.73931 0.0
H2453 H 0.70518 0.99472 0.73945 0.0
H2454 H 0.73845 0.97176 0.78062 0.0
H2455 H 0.70551 0.95448 0.77999 0.0
H2456 H 0.72165 0.01275 0.76256 0.0
H2457 H 0.7943 0.97429 0.74819 0.0
H2458 H 0.76278 0.96975 0.74666 0.0
H2459 H 0.77753 0.97006 0.76705 0.0
C2460 C 0.68634 0.97628 0.74823 0.0
C2461 C 0.68591 0.9646 0.75943 0.0
C2462 C 0.70543 0.98601 0.74841 0.0
C2463 C 0.72478 0.98447 0.75981 0.0
C2464 C 0.72415 0.97308 0.77137 0.0
H2465 H 0.83064 0.05298 0.77771 0.0
H2466 H 0.79668 0.03649 0.78017 0.0
C2467 C 0.70504 0.96325 0.77115 0.0
C2468 C 0.74531 0.99487 0.75951 0.0
H2469 H 0.80653 0.99768 0.75456 0.0
C2470 C 0.74021 0.00942 0.76084 0.0
C2471 C 0.76962 0.99067 0.75701 0.0
C2472 C 0.77644 0.97537 0.75447 0.0
C2473 C 0.75851 0.01978 0.75975 0.0
C2474 C 0.78288 0.01556 0.75764 0.0
C2475 C 0.78798 1.00101 0.75632 0.0
C2476 C 0.80325 0.02599 0.75612 0.0
C2477 C 0.75137 0.03517 0.7603 0.0
C2478 C 0.81874 0.02558 0.74196 0.0
C2479 C 0.83829 0.03495 0.74058 0.0
C2480 C 0.84304 0.04504 0.75336 0.0
C2481 C 0.82737 0.04556 0.76747 0.0
C2482 C 0.80786 0.0361 0.76889 0.0
H2483 H 0.73202 0.03667 0.7571 0.0
H2484 H 0.7543 0.03931 0.77335 0.0
H2485 H 0.76239 0.04155 0.75134 0.0
H2486 H 0.81571 0.01796 0.73188 0.0
H2487 H 0.84973 0.03428 0.72944 0.0
H2488 H 0.70613 0.80448 0.02028 0.0
H2489 H 0.73851 0.78696 0.02132 0.0
H2490 H 0.71048 0.76719 0.97605 0.0
H2491 H 0.67793 0.7847 0.97493 0.0
H2492 H 0.73543 0.7583 0.02503 0.0
H2493 H 0.78127 0.77049 0.96408 0.0
H2494 H 0.7592 0.78217 0.97343 0.0
H2495 H 0.74969 0.76676 0.96181 0.0
C2496 C 0.70681 0.79645 0.01048 0.0
C2497 C 0.68923 0.79609 0.99751 0.0
C2498 C 0.72546 0.78641 0.01108 0.0
C2499 C 0.72726 0.77574 0.99869 0.0
C2500 C 0.70995 0.77545 0.98558 0.0
H2501 H 0.82444 0.704 0.98298 0.0
H2502 H 0.79187 0.72141 0.98184 0.0
C2503 C 0.69127 0.78552 0.98494 0.0
C2504 C 0.74664 0.76468 0.99995 0.0
H2505 H 0.79402 0.74974 0.9785 0.0
C2506 C 0.7483 0.75649 0.01487 0.0
C2507 C 0.7635 0.76219 0.98673 0.0
C2508 C 0.76355 0.77094 0.97067 0.0
C2509 C 0.7659 0.74581 0.01679 0.0
C2510 C 0.78282 0.74335 1.00358 0.0
C2511 C 0.78114 0.75153 0.98866 0.0
C2512 C 0.8023 0.73233 0.00488 0.0
C2513 C 0.76572 0.73702 0.03282 0.0
C2514 C 0.81923 0.73249 0.01824 0.0
C2515 C 0.83794 0.72245 0.01897 0.0
C2516 C 0.84046 0.71208 0.00622 0.0
C2517 C 0.82333 0.71187 0.99295 0.0
C2518 C 0.8046 0.72186 0.99228 0.0
H2519 H 0.74783 0.7373 0.03919 0.0
H2520 H 0.7704 0.72582 0.03009 0.0
H2521 H 0.77923 0.74131 0.04186 0.0
H2522 H 0.81837 0.74062 0.02793 0.0
H2523 H 0.85095 0.72315 0.02921 0.0
H2524 H 0.32726 0.55456 0.77341 0.0
H2525 H 0.29422 0.53736 0.77529 0.0
H2526 H 0.31934 0.51725 0.72937 0.0
H2527 H 0.35245 0.53425 0.72753 0.0
H2528 H 0.25684 0.53075 0.75491 0.0
H2529 H 0.31539 0.48351 0.76018 0.0
H2530 H 0.32708 0.50126 0.7619 0.0
H2531 H 0.32125 0.49362 0.74132 0.0
C2532 C 0.32566 0.54655 0.76363 0.0
C2533 C 0.34279 0.54578 0.75041 0.0
C2534 C 0.30677 0.53664 0.76476 0.0
C2535 C 0.30447 0.52569 0.75273 0.0
C2536 C 0.32103 0.52523 0.73918 0.0
H2537 H 0.19927 0.45752 0.73616 0.0
H2538 H 0.23287 0.47431 0.73403 0.0
C2539 C 0.33998 0.53505 0.7381 0.0
C2540 C 0.28466 0.51488 0.75421 0.0
H2541 H 0.27354 0.4792 0.75588 0.0
C2542 C 0.26057 0.51949 0.75522 0.0
C2543 C 0.28929 0.50011 0.75463 0.0
C2544 C 0.31466 0.49431 0.75462 0.0
C2545 C 0.24118 0.50985 0.7563 0.0
C2546 C 0.24583 0.4951 0.75661 0.0
C2547 C 0.26987 0.49047 0.75557 0.0
C2548 C 0.226 0.48438 0.75826 0.0
C2549 C 0.21577 0.51554 0.75677 0.0
C2550 C 0.21126 0.48408 0.77279 0.0
C2551 C 0.19218 0.47438 0.77414 0.0
C2552 C 0.18718 0.46467 0.76097 0.0
C2553 C 0.20251 0.46469 0.74664 0.0
C2554 C 0.22171 0.47439 0.74534 0.0
H2555 H 0.21486 0.52665 0.75219 0.0
H2556 H 0.20353 0.50896 0.74887 0.0
H2557 H 0.20906 0.5153 0.77007 0.0
H2558 H 0.21449 0.4914 0.78315 0.0
H2559 H 0.1813 0.47454 0.78558 0.0
H2560 H 0.96377 0.5597 0.50697 0.0
H2561 H 0.99762 0.54302 0.50478 0.0
H2562 H 0.94751 0.50825 0.5019 0.0
H2563 H 0.91381 0.52475 0.50354 0.0
H2564 H 1.01001 0.52071 0.5263 0.0
H2565 H 0.99118 0.50007 0.46169 0.0
H2566 H 0.97714 0.51591 0.46983 0.0
H2567 H 0.96585 0.49877 0.47582 0.0
C2568 C 0.95993 0.54853 0.50562 0.0
C2569 C 0.93592 0.54365 0.5055 0.0
C2570 C 0.97934 0.53897 0.50448 0.0
C2571 C 0.97523 0.52433 0.50295 0.0
C2572 C 0.9513 0.51946 0.50275 0.0
H2573 H 0.06555 0.44822 0.49746 0.0
H2574 H 0.03203 0.46511 0.49935 0.0
C2575 C 0.93196 0.52896 0.50392 0.0
C2576 C 0.99581 0.51405 0.50212 0.0
H2577 H 0.02008 0.48738 0.47808 0.0
C2578 C 1.0123 0.51351 0.51569 0.0
C2579 C 0.99882 0.50452 0.48835 0.0
C2580 C 0.98245 0.5049 0.47301 0.0
C2581 C 0.03128 0.50357 0.51604 0.0
C2582 C 0.03429 0.49403 0.50227 0.0
C2583 C 0.01782 0.49459 0.48869 0.0
C2584 C 0.05472 0.48365 0.50152 0.0
C2585 C 0.04757 0.50316 0.53141 0.0
C2586 C 0.07875 0.48835 0.50197 0.0
C2587 C 0.09793 0.47872 0.501 0.0
C2588 C 0.09372 0.46406 0.49935 0.0
C2589 C 0.0696 0.45936 0.49888 0.0
C2590 C 0.05037 0.46904 0.49985 0.0
H2591 H 0.03881 0.50799 0.54273 0.0
H2592 H 0.05284 0.49214 0.53461 0.0
H2593 H 0.06421 0.50928 0.52866 0.0
H2594 H 0.08274 0.49954 0.50291 0.0
H2595 H 0.11615 0.48281 0.50165 0.0
H2596 H 0.32904 0.70516 0.48708 0.0
H2597 H 0.29559 0.72209 0.48553 0.0
H2598 H 0.31983 0.74156 0.53208 0.0
H2599 H 0.35337 0.72483 0.53359 0.0
H2600 H 0.25794 0.72794 0.50595 0.0
H2601 H 0.31525 0.77582 0.50213 0.0
H2602 H 0.32742 0.75822 0.5 0.0
H2603 H 0.3212 0.76541 0.52075 0.0
C2604 C 0.32717 0.71298 0.49707 0.0
C2605 C 0.34416 0.71365 0.51038 0.0
C2606 C 0.30805 0.72273 0.49612 0.0
C2607 C 0.30538 0.73343 0.50844 0.0
C2608 C 0.32181 0.73378 0.52207 0.0
H2609 H 0.19736 0.80003 0.52572 0.0
H2610 H 0.23159 0.78367 0.5279 0.0
C2611 C 0.341 0.72412 0.52296 0.0
C2612 C 0.2853 0.74406 0.50716 0.0
H2613 H 0.27323 0.77965 0.5062 0.0
C2614 C 0.26137 0.73923 0.50591 0.0
C2615 C 0.28955 0.75888 0.50711 0.0
C2616 C 0.31475 0.76491 0.5074 0.0
C2617 C 0.24174 0.7487 0.50491 0.0
C2618 C 0.246 0.76349 0.50495 0.0
C2619 C 0.26988 0.76834 0.50625 0.0
C2620 C 0.22591 0.77401 0.50328 0.0
C2621 C 0.21649 0.74278 0.50412 0.0
C2622 C 0.21168 0.77442 0.48851 0.0
C2623 C 0.19227 0.78387 0.48712 0.0
C2624 C 0.18642 0.79321 0.50051 0.0
C2625 C 0.20127 0.79312 0.51508 0.0
C2626 C 0.22081 0.78368 0.51641 0.0
H2627 H 0.21582 0.73158 0.5084 0.0
H2628 H 0.20397 0.74911 0.5121 0.0
H2629 H 0.20996 0.7432 0.49078 0.0
H2630 H 0.21553 0.76735 0.478 0.0
H2631 H 0.18176 0.78379 0.47551 0.0
H2632 H 0.8531 0.53274 0.22492 0.0
H2633 H 0.81998 0.5157 0.22669 0.0
H2634 H 0.79829 0.5336 0.27477 0.0
H2635 H 0.83121 0.55082 0.27293 0.0
H2636 H 0.81132 0.49515 0.24891 0.0
H2637 H 0.73435 0.53238 0.25129 0.0
H2638 H 0.76449 0.53805 0.24597 0.0
H2639 H 0.7559 0.53556 0.26787 0.0
C2640 C 0.84121 0.53313 0.23585 0.0
C2641 C 0.84488 0.54326 0.24875 0.0
C2642 C 0.8222 0.52334 0.23684 0.0
C2643 C 0.80622 0.52338 0.25074 0.0
C2644 C 0.80981 0.53351 0.26364 0.0
H2645 H 0.68837 0.46916 0.28465 0.0
H2646 H 0.72129 0.48618 0.28191 0.0
C2647 C 0.82874 0.54338 0.26259 0.0
C2648 C 0.78651 0.5125 0.25198 0.0
H2649 H 0.72564 0.50829 0.25772 0.0
C2650 C 0.79257 0.49807 0.25071 0.0
C2651 C 0.76192 0.51617 0.25432 0.0
C2652 C 0.7537 0.53138 0.25477 0.0
C2653 C 0.77499 0.48732 0.25207 0.0
C2654 C 0.75049 0.491 0.25461 0.0
C2655 C 0.74439 0.50541 0.25583 0.0
C2656 C 0.73095 0.48011 0.25628 0.0
C2657 C 0.78288 0.47207 0.25118 0.0
C2658 C 0.72526 0.47089 0.24281 0.0
C2659 C 0.70617 0.46115 0.24427 0.0
C2660 C 0.69218 0.46041 0.25923 0.0
C2661 C 0.69832 0.4695 0.2728 0.0
C2662 C 0.71729 0.47925 0.2713 0.0
H2663 H 0.80263 0.47092 0.25314 0.0
H2664 H 0.77331 0.4656 0.26087 0.0
H2665 H 0.7784 0.46775 0.23844 0.0
H2666 H 0.73521 0.47146 0.23097 0.0
H2667 H 0.70188 0.45453 0.23344 0.0
H2668 H 0.70811 0.30574 0.49174 0.0
H2669 H 0.74177 0.28891 0.49284 0.0
H2670 H 0.6939 0.25667 0.5118 0.0
H2671 H 0.66043 0.27339 0.51122 0.0
H2672 H 0.76009 0.27281 0.52148 0.0
H2673 H 0.72638 0.23767 0.47013 0.0
H2674 H 0.7153 0.25547 0.47312 0.0
H2675 H 0.70503 0.24144 0.48674 0.0
C2676 C 0.70471 0.29512 0.49629 0.0
C2677 C 0.68125 0.29099 0.50117 0.0
C2678 C 0.72401 0.28546 0.49681 0.0
C2679 C 0.72036 0.27139 0.50208 0.0
C2680 C 0.69715 0.26732 0.50727 0.0
H2681 H 0.81217 0.19599 0.51201 0.0
H2682 H 0.77823 0.21269 0.51058 0.0
C2683 C 0.67792 0.27696 0.50687 0.0
C2684 C 0.74078 0.26101 0.50247 0.0
H2685 H 0.76032 0.2296 0.48566 0.0
C2686 C 0.76021 0.26341 0.51357 0.0
C2687 C 0.7409 0.24863 0.4923 0.0
C2688 C 0.72091 0.24564 0.47978 0.0
C2689 C 0.77944 0.25371 0.51499 0.0
C2690 C 0.77974 0.24138 0.50467 0.0
C2691 C 0.76024 0.23898 0.49359 0.0
C2692 C 0.80028 0.23102 0.50499 0.0
C2693 C 0.79892 0.25661 0.52795 0.0
C2694 C 0.824 0.23556 0.50184 0.0
C2695 C 0.84337 0.22606 0.50272 0.0
C2696 C 0.83964 0.21165 0.50657 0.0
C2697 C 0.81578 0.20697 0.50903 0.0
C2698 C 0.79634 0.21655 0.50827 0.0
H2699 H 0.79238 0.26371 0.53823 0.0
H2700 H 0.80555 0.24665 0.53382 0.0
H2701 H 0.81431 0.26193 0.52159 0.0
H2702 H 0.82761 0.24651 0.49869 0.0
H2703 H 0.86138 0.23002 0.50031 0.0
H2704 H 0.41618 0.22795 0.76028 0.0
H2705 H 0.44979 0.24452 0.76123 0.0
H2706 H 0.4987 0.21113 0.74696 0.0
H2707 H 0.46483 0.19454 0.74512 0.0
H2708 H 0.4893 0.24584 0.78019 0.0
H2709 H 0.51763 0.24072 0.71286 0.0
H2710 H 0.48971 0.23338 0.72066 0.0
H2711 H 0.51774 0.22421 0.7241 0.0
C2712 C 0.43397 0.22409 0.75701 0.0
C2713 C 0.43749 0.20983 0.75228 0.0
C2714 C 0.45333 0.23363 0.75774 0.0
C2715 C 0.47691 0.22928 0.75381 0.0
C2716 C 0.48068 0.21495 0.7496 0.0
H2717 H 0.617 0.27128 0.75416 0.0
H2718 H 0.58318 0.25477 0.75264 0.0
C2719 C 0.46124 0.20538 0.74879 0.0
C2720 C 0.49735 0.23973 0.75441 0.0
H2721 H 0.5434 0.25404 0.73091 0.0
C2722 C 0.50102 0.24766 0.76935 0.0
C2723 C 0.51277 0.24224 0.74031 0.0
C2724 C 0.50917 0.2348 0.72352 0.0
C2725 C 0.51975 0.25772 0.7707 0.0
C2726 C 0.53523 0.26015 0.75665 0.0
C2727 C 0.5316 0.25224 0.74171 0.0
C2728 C 0.55571 0.27052 0.75735 0.0
C2729 C 0.52316 0.26542 0.78733 0.0
C2730 C 0.55174 0.28504 0.76022 0.0
C2731 C 0.57119 0.2946 0.76115 0.0
C2732 C 0.59515 0.28985 0.75928 0.0
C2733 C 0.59894 0.27534 0.75603 0.0
C2734 C 0.57953 0.26585 0.75503 0.0
H2735 H 0.51371 0.26003 0.79799 0.0
H2736 H 0.5426 0.26632 0.79056 0.0
H2737 H 0.51569 0.27626 0.78618 0.0
H2738 H 0.53354 0.28902 0.76174 0.0
H2739 H 0.56748 0.30564 0.76366 0.0
H2740 H 0.41084 0.02393 0.49824 0.0
H2741 H 0.44448 0.00737 0.49752 0.0
H2742 H 0.49319 0.04082 0.51194 0.0
H2743 H 0.45927 0.0574 0.51354 0.0
H2744 H 0.48422 0.00608 0.47876 0.0
H2745 H 0.51167 0.01129 0.54627 0.0
H2746 H 0.48384 0.01861 0.53828 0.0
H2747 H 0.51191 0.02778 0.53497 0.0
C2748 C 0.4286 0.0278 0.50157 0.0
C2749 C 0.43204 0.04206 0.50628 0.0
C2750 C 0.44797 0.01827 0.50098 0.0
C2751 C 0.47149 0.02265 0.50503 0.0
C2752 C 0.47521 0.03699 0.50921 0.0
H2753 H 0.61149 0.98073 0.50543 0.0
H2754 H 0.5776 0.99719 0.50691 0.0
C2755 C 0.45575 0.04655 0.50988 0.0
C2756 C 0.49192 0.01221 0.50458 0.0
H2757 H 0.53759 0.99788 0.52842 0.0
C2758 C 0.49578 0.00427 0.48968 0.0
C2759 C 0.50713 0.0097 0.51879 0.0
C2760 C 0.50334 0.01718 0.53554 0.0
C2761 C 0.51449 0.99419 0.48848 0.0
C2762 C 0.52975 0.99176 0.50265 0.0
C2763 C 0.52594 0.99969 0.51755 0.0
C2764 C 0.55023 0.9814 0.50208 0.0
C2765 C 0.51814 0.98648 0.47187 0.0
C2766 C 0.54632 0.96687 0.49919 0.0
C2767 C 0.56582 0.95735 0.4983 0.0
C2768 C 0.58973 0.96214 0.50021 0.0
C2769 C 0.59345 0.97664 0.50353 0.0
C2770 C 0.57401 0.9861 0.5045 0.0
H2771 H 0.50881 0.99184 0.46116 0.0
H2772 H 0.53762 0.9856 0.46877 0.0
H2773 H 0.51069 0.97562 0.47299 0.0
H2774 H 0.52815 0.96288 0.49761 0.0
H2775 H 0.56219 0.9463 0.49574 0.0
H2776 H 0.56956 0.80296 0.23668 0.0
H2777 H 0.53719 0.78541 0.23638 0.0
H2778 H 0.56645 0.76618 0.28163 0.0
H2779 H 0.59897 0.78372 0.28201 0.0
H2780 H 0.54038 0.75683 0.23306 0.0
H2781 H 0.496 0.76933 0.29449 0.0
H2782 H 0.51778 0.78099 0.28475 0.0
H2783 H 0.52765 0.76562 0.29631 0.0
C2784 C 0.56915 0.79504 0.24664 0.0
C2785 C 0.58706 0.79484 0.25938 0.0
C2786 C 0.55051 0.78499 0.24646 0.0
C2787 C 0.54905 0.77447 0.25907 0.0
C2788 C 0.5667 0.77433 0.27195 0.0
H2789 H 0.44926 0.70293 0.27358 0.0
H2790 H 0.48305 0.7196 0.27557 0.0
C2791 C 0.58537 0.78442 0.27216 0.0
C2792 C 0.5297 0.76336 0.2582 0.0
H2793 H 0.48242 0.74875 0.28014 0.0
C2794 C 0.52768 0.75512 0.24336 0.0
C2795 C 0.5131 0.76097 0.27163 0.0
C2796 C 0.51352 0.76977 0.28764 0.0
C2797 C 0.50982 0.74459 0.24163 0.0
C2798 C 0.49303 0.74231 0.25496 0.0
C2799 C 0.49521 0.75043 0.26989 0.0
C2800 C 0.47276 0.73186 0.25348 0.0
C2801 C 0.50939 0.73582 0.2256 0.0
C2802 C 0.4555 0.73312 0.24045 0.0
C2803 C 0.43623 0.72354 0.23922 0.0
C2804 C 0.43349 0.71244 0.25105 0.0
C2805 C 0.45086 0.71117 0.26408 0.0
C2806 C 0.47014 0.7208 0.26532 0.0
H2807 H 0.52717 0.73589 0.21907 0.0
H2808 H 0.50432 0.72469 0.22836 0.0
H2809 H 0.49587 0.74029 0.21668 0.0
H2810 H 0.45673 0.74166 0.23131 0.0
H2811 H 0.42343 0.72486 0.22894 0.0
H2812 H 0.57261 0.45228 0.02473 0.0
H2813 H 0.53979 0.46952 0.02561 0.0
H2814 H 0.56481 0.48768 0.9785 0.0
H2815 H 0.59776 0.47042 0.97752 0.0
H2816 H 0.54212 0.49819 0.02765 0.0
H2817 H 0.49366 0.48339 0.9686 0.0
H2818 H 0.51656 0.47228 0.97795 0.0
H2819 H 0.52496 0.48734 0.96527 0.0
C2820 C 0.57115 0.45989 0.01448 0.0
C2821 C 0.588 0.45988 1.00104 0.0
C2822 C 0.55226 0.46977 0.015 0.0
C2823 C 0.5495 0.4799 1.00205 0.0
C2824 C 0.56608 0.47982 0.98848 0.0
H2825 H 0.45084 0.55065 0.98523 0.0
H2826 H 0.48356 0.53335 0.98425 0.0
C2827 C 0.58499 0.4699 0.98792 0.0
C2828 C 0.5299 0.49083 1.0032 0.0
H2829 H 0.48119 0.50462 0.98213 0.0
C2830 C 0.52874 0.49953 0.01771 0.0
C2831 C 0.51235 0.4927 0.99028 0.0
C2832 C 0.51173 0.48335 0.97472 0.0
C2833 C 0.51096 0.51011 0.01951 0.0
C2834 C 0.4934 0.51198 0.00658 0.0
C2835 C 0.49457 0.50328 0.99207 0.0
C2836 C 0.4738 0.5229 0.00775 0.0
C2837 C 0.51158 0.51946 0.03506 0.0
C2838 C 0.4572 0.52295 0.02131 0.0
C2839 C 0.43834 0.53289 0.02192 0.0
C2840 C 0.43538 0.54298 0.00887 0.0
C2841 C 0.45223 0.54299 0.99542 0.0
C2842 C 0.47107 0.53308 0.99485 0.0
H2843 H 0.52964 0.51941 0.04119 0.0
H2844 H 0.50676 0.53054 0.03182 0.0
H2845 H 0.49832 0.51548 0.0445 0.0
H2846 H 0.45845 0.51506 0.03126 0.0
H2847 H 0.42557 0.53236 0.03233 0.0
H2848 H 0.16138 0.41544 0.43217 0.0
H2849 H 0.165 0.40272 0.40503 0.0
H2850 H 0.23702 0.38971 0.41871 0.0
H2851 H 0.2331 0.4022 0.44603 0.0
H2852 H 0.19521 0.40416 0.3779 0.0
H2853 H 0.20504 0.35196 0.40938 0.0
H2854 H 0.19639 0.3677 0.42085 0.0
H2855 H 0.22753 0.36461 0.4156 0.0
C2856 C 0.1781 0.41005 0.42919 0.0
C2857 C 0.19698 0.40979 0.4411 0.0
C2858 C 0.18015 0.40273 0.41374 0.0
C2859 C 0.20108 0.39495 0.40991 0.0
C2860 C 0.22045 0.39531 0.42149 0.0
H2861 H 0.22865 0.36001 0.30806 0.0
H2862 H 0.23167 0.37299 0.33506 0.0
C2863 C 0.21836 0.4026 0.43699 0.0
C2864 C 0.20226 0.38623 0.39403 0.0
H2865 H 0.20946 0.35237 0.3794 0.0
C2866 C 0.1984 0.39284 0.37824 0.0
C2867 C 0.20596 0.37139 0.39442 0.0
C2868 C 0.20873 0.36344 0.41096 0.0
C2869 C 0.19832 0.3851 0.36292 0.0
C2870 C 0.20274 0.37032 0.36326 0.0
C2871 C 0.2064 0.36369 0.37906 0.0
C2872 C 0.20273 0.36153 0.34743 0.0
C2873 C 0.19275 0.39279 0.34655 0.0
C2874 C 0.18637 0.35024 0.3456 0.0
C2875 C 0.18496 0.34267 0.33026 0.0
C2876 C 0.2 0.34618 0.31652 0.0
C2877 C 0.21703 0.35705 0.31855 0.0
C2878 C 0.21852 0.36457 0.3339 0.0
H2879 H 0.18345 0.40302 0.34894 0.0
H2880 H 0.20986 0.39511 0.33978 0.0
H2881 H 0.18124 0.38625 0.33808 0.0
H2882 H 0.17406 0.34762 0.35583 0.0
H2883 H 0.17149 0.33445 0.32889 0.0
H2884 H 0.05038 0.89385 0.30888 0.0
H2885 H 0.04702 0.88121 0.33609 0.0
H2886 H 0.10047 0.90898 0.3579 0.0
H2887 H 0.1034 0.92175 0.33074 0.0
H2888 H 0.0819 0.86636 0.35162 0.0
H2889 H 0.05086 0.90839 0.39549 0.0
H2890 H 0.04986 0.91037 0.37266 0.0
H2891 H 0.07762 0.91322 0.38403 0.0
C2892 C 0.06082 0.89749 0.31968 0.0
C2893 C 0.07678 0.90893 0.31787 0.0
C2894 C 0.05907 0.8902 0.33518 0.0
C2895 C 0.07328 0.89418 0.34922 0.0
C2896 C 0.08886 0.90586 0.34748 0.0
H2897 H 0.11812 0.84065 0.43374 0.0
H2898 H 0.11409 0.85336 0.40664 0.0
C2899 C 0.09054 0.91319 0.33197 0.0
C2900 C 0.07308 0.88549 0.36515 0.0
H2901 H 0.06598 0.88728 0.40837 0.0
C2902 C 0.07824 0.87095 0.364 0.0
C2903 C 0.06805 0.89134 0.38137 0.0
C2904 C 0.06104 0.90666 0.38349 0.0
C2905 C 0.07904 0.86223 0.37854 0.0
C2906 C 0.07502 0.8682 0.39483 0.0
C2907 C 0.06929 0.88267 0.39595 0.0
C2908 C 0.07702 0.85971 0.41085 0.0
C2909 C 0.08389 0.84664 0.37624 0.0
C2910 C 0.05767 0.85907 0.42243 0.0
C2911 C 0.06004 0.85182 0.43794 0.0
C2912 C 0.08182 0.84513 0.44222 0.0
C2913 C 0.10103 0.84554 0.43057 0.0
C2914 C 0.09869 0.85279 0.41508 0.0
H2915 H 0.07928 0.84306 0.36317 0.0
H2916 H 0.10338 0.84457 0.3783 0.0
H2917 H 0.07347 0.84022 0.38551 0.0
H2918 H 0.04082 0.86435 0.41955 0.0
H2919 H 0.04511 0.85181 0.44683 0.0
H2920 H 0.23232 0.85207 0.81213 0.0
H2921 H 0.23614 0.86468 0.83939 0.0
H2922 H 0.16294 0.85327 0.852 0.0
H2923 H 0.15939 0.84048 0.82493 0.0
H2924 H 0.21065 0.88745 0.85031 0.0
H2925 H 0.19723 0.8434 0.89574 0.0
H2926 H 0.20329 0.84047 0.87345 0.0
H2927 H 0.17326 0.84474 0.88048 0.0
C2928 C 0.21732 0.852 0.82096 0.0
C2929 C 0.19569 0.84517 0.8166 0.0
C2930 C 0.21941 0.85928 0.83646 0.0
C2931 C 0.19993 0.85983 0.84794 0.0
C2932 C 0.17844 0.85277 0.84364 0.0
H2933 H 0.17178 0.92227 0.9273 0.0
H2934 H 0.17517 0.90931 0.9003 0.0
C2935 C 0.17638 0.84547 0.82816 0.0
C2936 C 0.2016 0.8684 0.86393 0.0
H2937 H 0.19404 0.86676 0.9071 0.0
C2938 C 0.20719 0.88289 0.86274 0.0
C2939 C 0.19739 0.8625 0.88023 0.0
C2940 C 0.1927 0.8469 0.88262 0.0
C2941 C 0.2081 0.89163 0.87726 0.0
C2942 C 0.20286 0.88585 0.89348 0.0
C2943 C 0.19785 0.87129 0.8947 0.0
C2944 C 0.20231 0.89463 0.90935 0.0
C2945 C 0.215 0.90696 0.87507 0.0
C2946 C 0.21631 0.89076 0.92354 0.0
C2947 C 0.2143 0.89815 0.93894 0.0
C2948 C 0.19827 0.90959 0.94051 0.0
C2949 C 0.18469 0.91371 0.92626 0.0
C2950 C 0.18664 0.90629 0.91085 0.0
H2951 H 0.22538 0.90867 0.86315 0.0
H2952 H 0.19837 0.91347 0.87433 0.0
H2953 H 0.22595 0.91078 0.88597 0.0
H2954 H 0.22843 0.88179 0.92282 0.0
H2955 H 0.2246 0.89462 0.94986 0.0
H2956 H 0.10777 0.42425 0.83109 0.0
H2957 H 0.10512 0.41127 0.85818 0.0
H2958 H 0.04959 0.38463 0.83693 0.0
H2959 H 0.05264 0.39745 0.80981 0.0
H2960 H 0.0691 0.40566 0.88145 0.0
H2961 H 0.09995 0.35582 0.85129 0.0
H2962 H 0.10129 0.37266 0.84053 0.0
H2963 H 0.07328 0.36311 0.84177 0.0
C2964 C 0.09465 0.41582 0.83241 0.0
C2965 C 0.08025 0.4119 0.81849 0.0
C2966 C 0.09322 0.40835 0.84782 0.0
C2967 C 0.0775 0.39675 0.84955 0.0
C2968 C 0.06224 0.39331 0.83586 0.0
H2969 H 0.04719 0.35453 0.94729 0.0
H2970 H 0.0434 0.36735 0.92016 0.0
C2971 C 0.06374 0.40075 0.82044 0.0
C2972 C 0.07776 0.38795 0.86539 0.0
H2973 H 0.08771 0.35435 0.88012 0.0
C2974 C 0.07311 0.39444 0.88114 0.0
C2975 C 0.0834 0.37331 0.86511 0.0
C2976 C 0.09 0.36582 0.84881 0.0
C2977 C 0.07372 0.38673 0.8965 0.0
C2978 C 0.07871 0.37201 0.89616 0.0
C2979 C 0.08357 0.36556 0.88043 0.0
C2980 C 0.08009 0.36329 0.91204 0.0
C2981 C 0.06973 0.39453 0.91302 0.0
C2982 C 0.10153 0.35611 0.91622 0.0
C2983 C 0.10354 0.34864 0.93157 0.0
C2984 C 0.08413 0.34812 0.94305 0.0
C2985 C 0.06236 0.35477 0.93861 0.0
C2986 C 0.06032 0.36222 0.92322 0.0
H2987 H 0.07241 0.40611 0.91151 0.0
H2988 H 0.05093 0.39276 0.91736 0.0
H2989 H 0.08213 0.39064 0.92308 0.0
H2990 H 0.11701 0.35667 0.90783 0.0
H2991 H 0.12054 0.34366 0.93479 0.0
H2992 H 0.80619 0.65576 0.69391 0.0
H2993 H 0.80315 0.64339 0.66654 0.0
H2994 H 0.87776 0.65301 0.65613 0.0
H2995 H 0.88063 0.66561 0.68346 0.0
H2996 H 0.84879 0.65597 0.62753 0.0
H2997 H 0.83199 0.60425 0.65865 0.0
H2998 H 0.81079 0.61774 0.66455 0.0
H2999 H 0.84202 0.61962 0.67029 0.0
C3000 C 0.82175 0.65549 0.68557 0.0
C3001 C 0.84358 0.66176 0.69067 0.0
C3002 C 0.82012 0.64826 0.67004 0.0
C3003 C 0.84036 0.64698 0.65937 0.0
C3004 C 0.86191 0.65377 0.66415 0.0
H3005 H 0.86325 0.58575 0.57751 0.0
H3006 H 0.86297 0.59881 0.60461 0.0
C3007 C 0.86354 0.66103 0.67969 0.0
C3008 C 0.83922 0.63832 0.64346 0.0
H3009 H 0.82813 0.6049 0.62856 0.0
C3010 C 0.84426 0.64481 0.62777 0.0
C3011 C 0.83375 0.62367 0.64373 0.0
C3012 C 0.82956 0.61585 0.66021 0.0
C3013 C 0.84357 0.63715 0.61239 0.0
C3014 C 0.83726 0.6226 0.6126 0.0
C3015 C 0.83264 0.61606 0.62832 0.0
C3016 C 0.83594 0.61397 0.59667 0.0
C3017 C 0.85017 0.64465 0.59609 0.0
C3018 C 0.82025 0.61778 0.58337 0.0
C3019 C 0.82038 0.6103 0.56796 0.0
C3020 C 0.83598 0.59876 0.56561 0.0
C3021 C 0.85088 0.59452 0.57913 0.0
C3022 C 0.85079 0.60203 0.59455 0.0
H3023 H 0.86076 0.65442 0.59857 0.0
H3024 H 0.86082 0.63766 0.58758 0.0
H3025 H 0.83343 0.64776 0.58932 0.0
H3026 H 0.80821 0.62672 0.58478 0.0
H3027 H 0.80886 0.61381 0.55766 0.0
H3028 H 0.97041 0.09983 0.69407 0.0
H3029 H 0.97186 0.11214 0.66653 0.0
H3030 H 0.89502 0.1069 0.66112 0.0
H3031 H 0.89361 0.09433 0.68856 0.0
H3032 H 0.95083 0.10237 0.63151 0.0
H3033 H 0.91185 0.15156 0.65906 0.0
H3034 H 0.92714 0.13852 0.67198 0.0
H3035 H 0.89739 0.13501 0.6641 0.0
C3036 C 0.95395 0.10099 0.68677 0.0
C3037 C 0.93194 0.09595 0.6933 0.0
C3038 C 0.95477 0.10811 0.67112 0.0
C3039 C 0.93354 0.11054 0.66181 0.0
C3040 C 0.91161 0.1052 0.66811 0.0
H3041 H 0.89756 0.16082 0.57249 0.0
H3042 H 0.89813 0.14813 0.59974 0.0
C3043 C 0.91082 0.09794 0.68369 0.0
C3044 C 0.93422 0.11908 0.64586 0.0
H3045 H 0.91961 0.15153 0.62959 0.0
C3046 C 0.94407 0.11313 0.63106 0.0
C3047 C 0.92531 0.1331 0.64529 0.0
C3048 C 0.91491 0.14005 0.66093 0.0
C3049 C 0.9448 0.12071 0.6156 0.0
C3050 C 0.93616 0.13485 0.61503 0.0
C3051 C 0.92637 0.14077 0.62993 0.0
C3052 C 0.93637 0.14348 0.59902 0.0
C3053 C 0.95408 0.11327 0.59993 0.0
C3054 C 0.95778 0.14563 0.58972 0.0
C3055 C 0.95739 0.1528 0.57407 0.0
C3056 C 0.93566 0.15818 0.56754 0.0
C3057 C 0.91454 0.15677 0.57728 0.0
C3058 C 0.91487 0.14948 0.59282 0.0
H3059 H 0.9532 0.10158 0.60131 0.0
H3060 H 0.94362 0.11635 0.58846 0.0
H3061 H 0.97324 0.11619 0.59787 0.0
H3062 H 0.97476 0.14154 0.59441 0.0
H3063 H 0.97391 0.15376 0.56681 0.0
H3064 H 0.81411 0.1394 0.20246 0.0
H3065 H 0.81325 0.12621 0.17559 0.0
H3066 H 0.85463 0.15928 0.15151 0.0
H3067 H 0.85626 0.1722 0.17863 0.0
H3068 H 0.79662 0.13075 0.14448 0.0
H3069 H 0.89597 0.12564 0.14083 0.0
H3070 H 0.88086 0.13239 0.15946 0.0
H3071 H 0.88624 0.14373 0.14143 0.0
C3072 C 0.82276 0.1439 0.19134 0.0
C3073 C 0.83523 0.15681 0.19259 0.0
C3074 C 0.82233 0.13635 0.17599 0.0
C3075 C 0.83437 0.14153 0.16152 0.0
C3076 C 0.84579 0.15481 0.16255 0.0
H3077 H 0.81533 0.11022 0.05805 0.0
H3078 H 0.8124 0.12258 0.08533 0.0
C3079 C 0.84641 0.16232 0.17797 0.0
C3080 C 0.83526 0.13288 0.14556 0.0
H3081 H 0.87388 0.11826 0.11647 0.0
C3082 C 0.81354 0.128 0.1384 0.0
C3083 C 0.85732 0.12893 0.13773 0.0
C3084 C 0.88142 0.13281 0.14534 0.0
C3085 C 0.81323 0.11962 0.12357 0.0
C3086 C 0.83524 0.11627 0.11528 0.0
C3087 C 0.85697 0.12089 0.12263 0.0
C3088 C 0.83615 0.10826 0.09884 0.0
C3089 C 0.78929 0.11421 0.11718 0.0
C3090 C 0.85085 0.09619 0.09705 0.0
C3091 C 0.85281 0.08922 0.08131 0.0
C3092 C 0.84014 0.09421 0.06706 0.0
C3093 C 0.82512 0.10609 0.0689 0.0
C3094 C 0.82333 0.11311 0.08454 0.0
H3095 H 0.77582 0.11354 0.12762 0.0
H3096 H 0.78212 0.12164 0.10749 0.0
H3097 H 0.7911 0.10359 0.11127 0.0
H3098 H 0.86105 0.09224 0.10781 0.0
H3099 H 0.86461 0.08014 0.08016 0.0
H3100 H 0.96852 0.6417 0.05565 0.0
H3101 H 0.96899 0.62882 0.08277 0.0
H3102 H 0.92264 0.66054 0.10486 0.0
H3103 H 0.92131 0.67303 0.0775 0.0
H3104 H 0.98278 0.63398 0.11445 0.0
H3105 H 0.88397 0.62575 0.1145 0.0
H3106 H 0.89977 0.63291 0.09639 0.0
H3107 H 0.89187 0.64413 0.11405 0.0
C3108 C 0.95881 0.64603 0.06642 0.0
C3109 C 0.9452 0.65848 0.06454 0.0
C3110 C 0.95898 0.63864 0.08191 0.0
C3111 C 0.94543 0.64348 0.09587 0.0
C3112 C 0.93276 0.65633 0.09423 0.0
H3113 H 0.95997 0.6139 0.20056 0.0
H3114 H 0.96371 0.62601 0.17317 0.0
C3115 C 0.93239 0.66364 0.07867 0.0
C3116 C 0.94415 0.63492 0.11193 0.0
H3117 H 0.90473 0.61956 0.13994 0.0
C3118 C 0.96569 0.6308 0.11997 0.0
C3119 C 0.92191 0.6304 0.11904 0.0
C3120 C 0.89809 0.63338 0.11046 0.0
C3121 C 0.96562 0.62264 0.135 0.0
C3122 C 0.94335 0.61876 0.14259 0.0
C3123 C 0.92183 0.62261 0.13433 0.0
C3124 C 0.94189 0.61096 0.1592 0.0
C3125 C 0.9895 0.61803 0.14235 0.0
C3126 C 0.92793 0.59856 0.16079 0.0
C3127 C 0.92545 0.59175 0.1766 0.0
C3128 C 0.93683 0.59721 0.19114 0.0
C3129 C 0.95111 0.60943 0.18951 0.0
C3130 C 0.9534 0.6163 0.17379 0.0
H3131 H 1.00371 0.61756 0.13239 0.0
H3132 H 0.99539 0.62582 0.15205 0.0
H3133 H 0.98814 0.60748 0.14849 0.0
H3134 H 0.91875 0.59422 0.1498 0.0
H3135 H 0.91427 0.58238 0.17755 0.0
H3136 H 0.6622 0.4148 0.93342 0.0
H3137 H 0.66592 0.40177 0.9065 0.0
H3138 H 0.73291 0.38361 0.92392 0.0
H3139 H 0.72866 0.39631 0.95106 0.0
H3140 H 0.69774 0.40103 0.8811 0.0
H3141 H 0.69632 0.34838 0.91207 0.0
H3142 H 0.68987 0.36446 0.92354 0.0
H3143 H 0.72059 0.35937 0.91934 0.0
C3144 C 0.67788 0.40818 0.93132 0.0
C3145 C 0.69525 0.40661 0.94419 0.0
C3146 C 0.67997 0.40068 0.91599 0.0
C3147 C 0.69944 0.39141 0.91321 0.0
C3148 C 0.71738 0.39036 0.92584 0.0
H3149 H 0.73006 0.35591 0.81187 0.0
H3150 H 0.73285 0.36851 0.83916 0.0
C3151 C 0.71516 0.39777 0.94125 0.0
C3152 C 0.70063 0.38272 0.89726 0.0
H3153 H 0.70417 0.34871 0.8824 0.0
C3154 C 0.69919 0.38959 0.88142 0.0
C3155 C 0.70208 0.36773 0.89755 0.0
C3156 C 0.70205 0.35952 0.91402 0.0
C3157 C 0.69932 0.38198 0.86599 0.0
C3158 C 0.70157 0.36703 0.86627 0.0
C3159 C 0.70281 0.36015 0.8821 0.0
C3160 C 0.70161 0.35835 0.85032 0.0
C3161 C 0.69626 0.39004 0.84955 0.0
C3162 C 0.68398 0.34785 0.84773 0.0
C3163 C 0.68269 0.34048 0.83225 0.0
C3164 C 0.69911 0.34337 0.8191 0.0
C3165 C 0.71737 0.3534 0.82191 0.0
C3166 C 0.71873 0.36074 0.83741 0.0
H3167 H 0.68819 0.40065 0.85171 0.0
H3168 H 0.71419 0.39159 0.84356 0.0
H3169 H 0.68465 0.38414 0.84049 0.0
H3170 H 0.6706 0.34574 0.85746 0.0
H3171 H 0.66824 0.33294 0.83027 0.0
H3172 H 0.54738 0.85818 0.94704 0.0
H3173 H 0.54288 0.87005 0.91939 0.0
H3174 H 0.6086 0.85033 0.90199 0.0
H3175 H 0.61248 0.83812 0.9294 0.0
H3176 H 0.57067 0.88916 0.90549 0.0
H3177 H 0.56769 0.84389 0.86112 0.0
H3178 H 0.56467 0.84168 0.88382 0.0
H3179 H 0.59409 0.8433 0.87426 0.0
C3180 C 0.56037 0.85606 0.93706 0.0
C3181 C 0.57993 0.84699 0.94014 0.0
C3182 C 0.55796 0.86294 0.92132 0.0
C3183 C 0.57518 0.86098 0.90835 0.0
C3184 C 0.59462 0.85175 0.91145 0.0
H3185 H 0.60885 0.9205 0.82696 0.0
H3186 H 0.60501 0.90781 0.85406 0.0
C3187 C 0.59688 0.84476 0.92713 0.0
C3188 C 0.57375 0.86934 0.89214 0.0
H3189 H 0.57648 0.8665 0.84877 0.0
C3190 C 0.57171 0.88415 0.8931 0.0
C3191 C 0.57474 0.86292 0.87585 0.0
C3192 C 0.57515 0.84707 0.87367 0.0
C3193 C 0.57125 0.89268 0.87838 0.0
C3194 C 0.57359 0.88632 0.86213 0.0
C3195 C 0.57498 0.87148 0.86115 0.0
C3196 C 0.57492 0.89479 0.84601 0.0
C3197 C 0.56787 0.90843 0.88046 0.0
C3198 C 0.55962 0.89167 0.83221 0.0
C3199 C 0.562 0.89886 0.81667 0.0
C3200 C 0.57959 0.90941 0.81461 0.0
C3201 C 0.59467 0.91271 0.82841 0.0
C3202 C 0.59244 0.90544 0.84391 0.0
H3203 H 0.55847 0.91096 0.89257 0.0
H3204 H 0.58581 0.91363 0.88082 0.0
H3205 H 0.55736 0.91298 0.86976 0.0
H3206 H 0.54607 0.88346 0.83336 0.0
H3207 H 0.55055 0.89591 0.80608 0.0
H3208 H 0.657 0.91402 0.43129 0.0
H3209 H 0.66109 0.90138 0.40414 0.0
H3210 H 0.73437 0.89042 0.41709 0.0
H3211 H 0.73 0.90283 0.44443 0.0
H3212 H 0.69068 0.90374 0.37675 0.0
H3213 H 0.70538 0.85181 0.40793 0.0
H3214 H 0.69564 0.86725 0.41953 0.0
H3215 H 0.7269 0.86508 0.41398 0.0
C3216 C 0.67407 0.90909 0.42816 0.0
C3217 C 0.6932 0.90938 0.43988 0.0
C3218 C 0.6764 0.90182 0.4127 0.0
C3219 C 0.69787 0.89464 0.40866 0.0
C3220 C 0.71741 0.89554 0.42004 0.0
H3221 H 0.72503 0.86086 0.30616 0.0
H3222 H 0.72856 0.8735 0.33335 0.0
C3223 C 0.71505 0.90279 0.43555 0.0
C3224 C 0.69947 0.88599 0.39274 0.0
H3225 H 0.70902 0.85238 0.3779 0.0
C3226 C 0.69478 0.89252 0.37702 0.0
C3227 C 0.70438 0.87127 0.39303 0.0
C3228 C 0.70813 0.86338 0.40952 0.0
C3229 C 0.69499 0.88482 0.36167 0.0
C3230 C 0.70056 0.87018 0.36191 0.0
C3231 C 0.70509 0.86362 0.37764 0.0
C3232 C 0.7007 0.86141 0.34606 0.0
C3233 C 0.68846 0.89238 0.34539 0.0
C3234 C 0.68487 0.84986 0.34436 0.0
C3235 C 0.68319 0.84247 0.32892 0.0
C3236 C 0.69748 0.8464 0.31493 0.0
C3237 C 0.71409 0.8575 0.31685 0.0
C3238 C 0.71585 0.86485 0.3323 0.0
H3239 H 0.67857 0.90239 0.3479 0.0
H3240 H 0.70521 0.89507 0.33837 0.0
H3241 H 0.67714 0.88558 0.33708 0.0
H3242 H 0.67302 0.84695 0.35475 0.0
H3243 H 0.66986 0.83416 0.32762 0.0
H3244 H 0.55455 0.34946 0.4452 0.0
H3245 H 0.55133 0.36168 0.41773 0.0
H3246 H 0.6251 0.35064 0.40641 0.0
H3247 H 0.62808 0.33816 0.43376 0.0
H3248 H 0.57679 0.38454 0.40751 0.0
H3249 H 0.59242 0.34079 0.36196 0.0
H3250 H 0.58568 0.33771 0.38412 0.0
H3251 H 0.6158 0.34233 0.37764 0.0
C3252 C 0.5698 0.34928 0.43658 0.0
C3253 C 0.59141 0.34263 0.44142 0.0
C3254 C 0.56805 0.35639 0.42096 0.0
C3255 C 0.58787 0.357 0.40982 0.0
C3256 C 0.60935 0.35007 0.41452 0.0
H3257 H 0.61401 0.41998 0.33039 0.0
H3258 H 0.61179 0.40682 0.35733 0.0
C3259 C 0.61107 0.34293 0.43014 0.0
C3260 C 0.58653 0.36562 0.39386 0.0
H3261 H 0.59438 0.36419 0.35071 0.0
C3262 C 0.58051 0.38005 0.39509 0.0
C3263 C 0.5911 0.35982 0.37756 0.0
C3264 C 0.59638 0.34429 0.37517 0.0
C3265 C 0.57938 0.38882 0.3806 0.0
C3266 C 0.58482 0.38312 0.36438 0.0
C3267 C 0.5904 0.36864 0.36312 0.0
C3268 C 0.58482 0.39192 0.34854 0.0
C3269 C 0.57197 0.40406 0.38281 0.0
C3270 C 0.5705 0.388 0.33454 0.0
C3271 C 0.57182 0.39552 0.31919 0.0
C3272 C 0.58748 0.40711 0.31748 0.0
C3273 C 0.60141 0.41128 0.33154 0.0
C3274 C 0.60013 0.40374 0.34691 0.0
H3275 H 0.56178 0.40568 0.39483 0.0
H3276 H 0.58836 0.41079 0.38332 0.0
H3277 H 0.56064 0.4077 0.37201 0.0
H3278 H 0.55864 0.37893 0.33538 0.0
H3279 H 0.56123 0.39198 0.30841 0.0
H3280 H 0.31668 0.64292 0.20177 0.0
H3281 H 0.31251 0.63047 0.17462 0.0
H3282 H 0.35856 0.66141 0.15063 0.0
H3283 H 0.36338 0.67361 0.17811 0.0
H3284 H 0.29537 0.63682 0.14414 0.0
H3285 H 0.39309 0.62563 0.13797 0.0
H3286 H 0.38013 0.63285 0.15713 0.0
H3287 H 0.38647 0.64417 0.13926 0.0
C3288 C 0.32576 0.6471 0.19065 0.0
C3289 C 0.34051 0.65915 0.19202 0.0
C3290 C 0.32339 0.63998 0.17512 0.0
C3291 C 0.33565 0.64475 0.16055 0.0
C3292 C 0.34945 0.65724 0.16174 0.0
H3293 H 0.30761 0.61397 0.05723 0.0
H3294 H 0.30669 0.62679 0.08432 0.0
C3295 C 0.352 0.66432 0.17737 0.0
C3296 C 0.3342 0.63644 0.14435 0.0
H3297 H 0.36851 0.61951 0.11442 0.0
C3298 C 0.31139 0.63303 0.13766 0.0
C3299 C 0.35502 0.63119 0.13599 0.0
C3300 C 0.38005 0.6335 0.14302 0.0
C3301 C 0.30883 0.62472 0.12288 0.0
C3302 C 0.32968 0.61992 0.11417 0.0
C3303 C 0.35248 0.62322 0.12095 0.0
C3304 C 0.32842 0.61152 0.09802 0.0
C3305 C 0.28374 0.62086 0.11705 0.0
C3306 C 0.34112 0.59869 0.09644 0.0
C3307 C 0.34185 0.59143 0.08086 0.0
C3308 C 0.32969 0.59677 0.06655 0.0
C3309 C 0.31655 0.60941 0.0682 0.0
C3310 C 0.31601 0.61674 0.08371 0.0
H3311 H 0.27061 0.6213 0.12772 0.0
H3312 H 0.27775 0.62855 0.10725 0.0
H3313 H 0.28326 0.61009 0.11143 0.0
H3314 H 0.35104 0.59445 0.10717 0.0
H3315 H 0.3528 0.58198 0.07982 0.0
H3316 H 0.4087 0.08954 0.18342 0.0
H3317 H 0.4123 0.10197 0.15611 0.0
H3318 H 0.48576 0.11311 0.16829 0.0
H3319 H 0.48189 0.10086 0.1958 0.0
H3320 H 0.46074 0.13587 0.15696 0.0
H3321 H 0.44603 0.09135 0.11245 0.0
H3322 H 0.42218 0.09305 0.12774 0.0
H3323 H 0.45216 0.08866 0.13478 0.0
C3324 C 0.42574 0.0944 0.18005 0.0
C3325 C 0.44511 0.09413 0.19157 0.0
C3326 C 0.42784 0.10149 0.16444 0.0
C3327 C 0.44943 0.10837 0.15993 0.0
C3328 C 0.46895 0.10786 0.17137 0.0
H3329 H 0.47334 0.14201 0.05717 0.0
H3330 H 0.47729 0.12929 0.08429 0.0
C3331 C 0.46683 0.10078 0.18701 0.0
C3332 C 0.45115 0.11672 0.14376 0.0
H3333 H 0.44306 0.11459 0.10066 0.0
C3334 C 0.45706 0.13117 0.14464 0.0
C3335 C 0.44666 0.11064 0.12759 0.0
C3336 C 0.44165 0.09505 0.12552 0.0
C3337 C 0.45796 0.13973 0.12995 0.0
C3338 C 0.45239 0.13379 0.11387 0.0
C3339 C 0.44712 0.11925 0.11295 0.0
C3340 C 0.45168 0.1424 0.09786 0.0
C3341 C 0.46519 0.15504 0.13182 0.0
C3342 C 0.43618 0.15413 0.09636 0.0
C3343 C 0.43415 0.16149 0.0809 0.0
C3344 C 0.44754 0.15726 0.0666 0.0
C3345 C 0.46325 0.14567 0.06812 0.0
C3346 C 0.46534 0.13834 0.08358 0.0
H3347 H 0.47583 0.15681 0.14361 0.0
H3348 H 0.47601 0.15866 0.12075 0.0
H3349 H 0.44871 0.16167 0.13261 0.0
H3350 H 0.42491 0.15728 0.10695 0.0
H3351 H 0.42132 0.1701 0.0799 0.0
H3352 H 0.3123 0.15313 0.69238 0.0
H3353 H 0.31158 0.14077 0.66487 0.0
H3354 H 0.38809 0.1475 0.65947 0.0
H3355 H 0.38875 0.16012 0.68689 0.0
H3356 H 0.33235 0.15083 0.62976 0.0
H3357 H 0.37362 0.10248 0.65787 0.0
H3358 H 0.35751 0.11527 0.67064 0.0
H3359 H 0.38707 0.11934 0.6628 0.0
C3360 C 0.32881 0.15232 0.68507 0.0
C3361 C 0.35053 0.15777 0.69161 0.0
C3362 C 0.32842 0.14516 0.66944 0.0
C3363 C 0.3498 0.14312 0.66018 0.0
C3364 C 0.3714 0.14891 0.66644 0.0
H3365 H 0.38536 0.0922 0.57074 0.0
H3366 H 0.38579 0.10516 0.59786 0.0
C3367 C 0.37175 0.1562 0.682 0.0
C3368 C 0.34963 0.13447 0.64432 0.0
H3369 H 0.36534 0.10204 0.62847 0.0
C3370 C 0.33953 0.14016 0.62945 0.0
C3371 C 0.35913 0.12058 0.64391 0.0
C3372 C 0.36987 0.11393 0.65963 0.0
C3373 C 0.33897 0.13242 0.61413 0.0
C3374 C 0.34804 0.11837 0.61376 0.0
C3375 C 0.35825 0.11273 0.62868 0.0
C3376 C 0.34742 0.10947 0.59798 0.0
C3377 C 0.3293 0.13958 0.59837 0.0
C3378 C 0.32564 0.10704 0.58927 0.0
C3379 C 0.32545 0.09972 0.57375 0.0
C3380 C 0.34694 0.09435 0.56679 0.0
C3381 C 0.36852 0.09609 0.57594 0.0
C3382 C 0.36876 0.10356 0.59138 0.0
H3383 H 0.33011 0.15129 0.59949 0.0
H3384 H 0.33952 0.13635 0.58686 0.0
H3385 H 0.31011 0.13658 0.5966 0.0
H3386 H 0.3088 0.11109 0.59426 0.0
H3387 H 0.3086 0.09868 0.56687 0.0
H3388 H 0.46821 0.6053 0.69574 0.0
H3389 H 0.46979 0.61827 0.66867 0.0
H3390 H 0.39881 0.60289 0.65597 0.0
H3391 H 0.39724 0.58992 0.68314 0.0
H3392 H 0.43427 0.60304 0.6279 0.0
H3393 H 0.42717 0.65447 0.66177 0.0
H3394 H 0.4507 0.64286 0.66905 0.0
H3395 H 0.41972 0.63782 0.67175 0.0
C3396 C 0.45326 0.6044 0.68693 0.0
C3397 C 0.43273 0.59649 0.69136 0.0
C3398 C 0.45404 0.61193 0.67158 0.0
C3399 C 0.43428 0.61171 0.66039 0.0
C3400 C 0.41424 0.60323 0.66442 0.0
H3401 H 0.39743 0.66857 0.57665 0.0
H3402 H 0.39868 0.65538 0.60368 0.0
C3403 C 0.4134 0.59576 0.67984 0.0
C3404 C 0.4341 0.62085 0.64492 0.0
H3405 H 0.43345 0.65544 0.63198 0.0
C3406 C 0.43412 0.61448 0.62878 0.0
C3407 C 0.43357 0.6358 0.64607 0.0
C3408 C 0.43258 0.64321 0.66307 0.0
C3409 C 0.43407 0.62267 0.6138 0.0
C3410 C 0.43413 0.63763 0.61496 0.0
C3411 C 0.43365 0.64399 0.63109 0.0
C3412 C 0.43437 0.64678 0.5995 0.0
C3413 C 0.43363 0.61526 0.5968 0.0
C3414 C 0.45432 0.64675 0.58847 0.0
C3415 C 0.45371 0.65439 0.57321 0.0
C3416 C 0.43317 0.66225 0.56869 0.0
C3417 C 0.41359 0.66277 0.58002 0.0
C3418 C 0.41425 0.65517 0.59536 0.0
H3419 H 0.42846 0.60395 0.59804 0.0
H3420 H 0.42083 0.62054 0.58798 0.0
H3421 H 0.45187 0.61575 0.59101 0.0
H3422 H 0.47013 0.64049 0.59147 0.0
H3423 H 0.46886 0.65367 0.56454 0.0
H3424 H 0.30977 0.34037 0.27013 0.0
H3425 H 0.35092 0.34954 0.26961 0.0
H3426 H 0.32885 0.38249 0.23505 0.0
H3427 H 0.28747 0.37332 0.23546 0.0
H3428 H 0.38233 0.35206 0.2431 0.0
H3429 H 0.36506 0.40509 0.27065 0.0
H3430 H 0.34298 0.39107 0.27131 0.0
H3431 H 0.34718 0.40123 0.25219 0.0
C3432 C 0.31357 0.34955 0.26234 0.0
C3433 C 0.29509 0.35602 0.25276 0.0
C3434 C 0.33721 0.35483 0.26212 0.0
C3435 C 0.34316 0.36683 0.25243 0.0
C3436 C 0.32477 0.37341 0.24293 0.0
H3437 H 0.47764 0.41239 0.23329 0.0
H3438 H 0.4364 0.4033 0.2333 0.0
C3439 C 0.30102 0.36813 0.24317 0.0
C3440 C 0.36872 0.37207 0.25196 0.0
H3441 H 0.40436 0.40095 0.25981 0.0
C3442 C 0.38712 0.36274 0.24682 0.0
C3443 C 0.37517 0.38602 0.25679 0.0
C3444 C 0.35662 0.39641 0.2632 0.0
C3445 C 0.4115 0.36699 0.24612 0.0
C3446 C 0.41795 0.38093 0.25098 0.0
C3447 C 0.39956 0.39027 0.25607 0.0
C3448 C 0.44356 0.38609 0.25071 0.0
C3449 C 0.43007 0.35659 0.23977 0.0
C3450 C 0.46163 0.37951 0.2605 0.0
C3451 C 0.4854 0.38474 0.26058 0.0
C3452 C 0.4917 0.39678 0.25099 0.0
C3453 C 0.47356 0.40324 0.24107 0.0
C3454 C 0.44987 0.39801 0.241 0.0
H3455 H 0.42166 0.34792 0.23229 0.0
H3456 H 0.44378 0.36192 0.23171 0.0
H3457 H 0.43943 0.35176 0.25082 0.0
H3458 H 0.45726 0.37048 0.26841 0.0
H3459 H 0.49866 0.37959 0.26858 0.0
H3460 H 0.78222 0.87153 0.23395 0.0
H3461 H 0.824 0.88006 0.23342 0.0
H3462 H 0.84271 0.85046 0.27297 0.0
H3463 H 0.80113 0.84202 0.27376 0.0
H3464 H 0.85294 0.89207 0.25873 0.0
H3465 H 0.89336 0.8416 0.23691 0.0
H3466 H 0.86133 0.84494 0.23602 0.0
H3467 H 0.87532 0.83994 0.25577 0.0
C3468 C 0.79512 0.86689 0.24265 0.0
C3469 C 0.78809 0.85591 0.25375 0.0
C3470 C 0.81913 0.87174 0.24226 0.0
C3471 C 0.83682 0.86571 0.25288 0.0
C3472 C 0.82972 0.85504 0.26427 0.0
H3473 H 0.99172 0.88007 0.26978 0.0
H3474 H 0.95014 0.8711 0.27003 0.0
C3475 C 0.80578 0.8502 0.26469 0.0
C3476 C 0.86255 0.8707 0.25226 0.0
H3477 H 0.92065 0.85956 0.24558 0.0
C3478 C 0.8677 0.88496 0.25575 0.0
C3479 C 0.88201 0.86146 0.24848 0.0
C3480 C 0.8778 0.84616 0.24393 0.0
C3481 C 0.89158 0.89016 0.25589 0.0
C3482 C 0.91105 0.88094 0.25203 0.0
C3483 C 0.9059 0.86667 0.24856 0.0
C3484 C 0.93677 0.88598 0.25133 0.0
C3485 C 0.89573 0.90543 0.26066 0.0
C3486 C 0.94355 0.89704 0.24037 0.0
C3487 C 0.96731 0.90216 0.24018 0.0
C3488 C 0.98517 0.89631 0.25086 0.0
C3489 C 0.9786 0.88483 0.26133 0.0
C3490 C 0.95473 0.87973 0.26155 0.0
H3491 H 0.88035 0.9098 0.26804 0.0
H3492 H 0.91244 0.90666 0.2683 0.0
H3493 H 0.89762 0.91182 0.24889 0.0
H3494 H 0.93039 0.90178 0.23193 0.0
H3495 H 0.97167 0.91077 0.23164 0.0
H3496 H 0.28402 0.88188 0.02446 0.0
H3497 H 0.32564 0.87288 0.02502 0.0
H3498 H 0.34413 0.9006 0.98344 0.0
H3499 H 0.303 0.90983 0.98317 0.0
H3500 H 0.35412 0.85933 1.00363 0.0
H3501 H 0.39631 0.91128 0.01569 0.0
H3502 H 0.36413 0.90868 0.01679 0.0
H3503 H 0.37871 0.91155 0.99657 0.0
C3504 C 0.29695 0.886 0.0154 0.0
C3505 C 0.29015 0.89675 1.00394 0.0
C3506 C 0.32084 0.88089 0.01575 0.0
C3507 C 0.3385 0.88632 0.00461 0.0
C3508 C 0.33134 0.89656 0.99265 0.0
H3509 H 0.47585 0.84539 0.97974 0.0
H3510 H 0.4342 0.8538 0.98083 0.0
C3511 C 0.30764 0.90179 0.99243 0.0
C3512 C 0.36426 0.88126 0.00531 0.0
H3513 H 0.42288 0.89277 0.00684 0.0
C3514 C 0.36911 0.86667 1.00444 0.0
C3515 C 0.3841 0.8907 0.00674 0.0
C3516 C 0.38057 0.9064 0.00919 0.0
C3517 C 0.39293 0.86134 1.00448 0.0
C3518 C 0.41278 0.87085 0.00488 0.0
C3519 C 0.40791 0.88541 0.00624 0.0
C3520 C 0.43863 0.86595 1.00397 0.0
C3521 C 0.39644 0.84552 1.00447 0.0
C3522 C 0.45573 0.87044 0.0161 0.0
C3523 C 0.47985 0.86581 0.01531 0.0
C3524 C 0.48756 0.8565 1.00241 0.0
C3525 C 0.47055 0.8523 0.99007 0.0
C3526 C 0.44656 0.85705 0.99075 0.0
H3527 H 0.38049 0.83997 0.00984 0.0
H3528 H 0.39879 0.84181 0.99117 0.0
H3529 H 0.41261 0.84242 0.01193 0.0
H3530 H 0.45034 0.87738 0.02638 0.0
H3531 H 0.49233 0.86925 0.02507 0.0
H3532 H 0.973 0.3445 0.98547 0.0
H3533 H 0.93191 0.35382 0.98554 0.0
H3534 H 0.95044 0.38181 0.02683 0.0
H3535 H 0.99188 0.37271 0.02654 0.0
H3536 H 0.89767 0.35296 0.00846 0.0
H3537 H 0.91787 0.40937 0.99602 0.0
H3538 H 0.94044 0.39573 0.99409 0.0
H3539 H 0.93276 0.4028 0.01467 0.0
C3540 C 0.9684 0.35268 0.99456 0.0
C3541 C 0.98589 0.35784 0.006 0.0
C3542 C 0.9448 0.35803 0.99457 0.0
C3543 C 0.93786 0.3687 0.00604 0.0
C3544 C 0.95528 0.37388 0.01752 0.0
H3545 H 0.78465 0.38672 0.02821 0.0
H3546 H 0.82625 0.37798 0.02907 0.0
C3547 C 0.97905 0.36862 0.01739 0.0
C3548 C 0.91226 0.37399 0.00619 0.0
H3549 H 0.87749 0.40389 1.0037 0.0
C3550 C 0.89332 0.36411 0.00739 0.0
C3551 C 0.90628 0.38852 0.00455 0.0
C3552 C 0.92539 0.39971 1.00208 0.0
C3553 C 0.86888 0.36829 0.00706 0.0
C3554 C 0.86292 0.38286 0.00598 0.0
C3555 C 0.88185 0.39273 0.00471 0.0
C3556 C 0.83728 0.38807 0.00558 0.0
C3557 C 0.84973 0.35695 0.00731 0.0
C3558 C 0.82944 0.397 0.99237 0.0
C3559 C 0.8057 0.40216 0.99198 0.0
C3560 C 0.789 0.39854 0.00478 0.0
C3561 C 0.79681 0.38955 0.01798 0.0
C3562 C 0.82068 0.3845 0.01846 0.0
H3563 H 0.85696 0.34659 1.00297 0.0
H3564 H 0.84309 0.35557 0.02053 0.0
H3565 H 0.83421 0.35983 0.99908 0.0
H3566 H 0.8417 0.39996 0.98224 0.0
H3567 H 0.80036 0.40894 0.98152 0.0
H3568 H 0.73845 0.64155 0.78521 0.0
H3569 H 0.69619 0.63393 0.78638 0.0
H3570 H 0.68675 0.64587 0.73394 0.0
H3571 H 0.72857 0.65396 0.73271 0.0
H3572 H 0.64999 0.65422 0.77095 0.0
H3573 H 0.66626 0.60009 0.74545 0.0
H3574 H 0.68865 0.6091 0.75818 0.0
H3575 H 0.68282 0.61491 0.73688 0.0
C3576 C 0.72743 0.64273 0.77393 0.0
C3577 C 0.73731 0.64837 0.75883 0.0
C3578 C 0.70322 0.63827 0.77462 0.0
C3579 C 0.68828 0.63928 0.76023 0.0
C3580 C 0.69794 0.64491 0.74519 0.0
H3581 H 0.54651 0.60703 0.73307 0.0
H3582 H 0.58808 0.61531 0.73409 0.0
C3583 C 0.72205 0.64943 0.74449 0.0
C3584 C 0.6626 0.63445 0.76081 0.0
H3585 H 0.626 0.60651 0.75087 0.0
C3586 C 0.6447 0.64377 0.76666 0.0
C3587 C 0.65568 0.62089 0.75503 0.0
C3588 C 0.67423 0.61056 0.74853 0.0
C3589 C 0.62005 0.63996 0.76665 0.0
C3590 C 0.61304 0.62627 0.76104 0.0
C3591 C 0.63112 0.61697 0.75525 0.0
C3592 C 0.58713 0.62151 0.76058 0.0
C3593 C 0.60176 0.65088 0.77208 0.0
C3594 C 0.57235 0.62205 0.77514 0.0
C3595 C 0.54816 0.61758 0.77451 0.0
C3596 C 0.53805 0.61219 0.75936 0.0
C3597 C 0.55312 0.61141 0.7449 0.0
C3598 C 0.57719 0.61602 0.74551 0.0
H3599 H 0.60906 0.66179 0.77096 0.0
H3600 H 0.58506 0.65016 0.76432 0.0
H3601 H 0.59696 0.6491 0.78561 0.0
H3602 H 0.57955 0.62585 0.7871 0.0
H3603 H 0.53737 0.61847 0.78594 0.0
H3604 H 0.04217 0.11333 0.78655 0.0
H3605 H 0.08431 0.12115 0.78734 0.0
H3606 H 0.09175 0.11164 0.73404 0.0
H3607 H 0.05011 0.10326 0.73316 0.0
H3608 H 0.12938 0.10289 0.77291 0.0
H3609 H 0.11288 0.15581 0.74409 0.0
H3610 H 0.08992 0.14658 0.75609 0.0
H3611 H 0.09773 0.14066 0.73514 0.0
C3612 C 0.05273 0.11271 0.77499 0.0
C3613 C 0.04234 0.10765 0.75976 0.0
C3614 C 0.07687 0.11729 0.77547 0.0
C3615 C 0.09118 0.11707 0.76073 0.0
C3616 C 0.08101 0.11204 0.74555 0.0
H3617 H 0.23299 0.1487 0.7326 0.0
H3618 H 0.19154 0.14024 0.73376 0.0
C3619 C 0.057 0.10734 0.74507 0.0
C3620 C 0.11678 0.12202 0.76113 0.0
H3621 H 0.15327 0.14953 0.74941 0.0
C3622 C 0.13465 0.11311 0.76787 0.0
C3623 C 0.12367 0.13528 0.75438 0.0
C3624 C 0.10515 0.14525 0.74704 0.0
C3625 C 0.15925 0.11699 0.76775 0.0
C3626 C 0.16622 0.13038 0.76116 0.0
C3627 C 0.14818 0.1393 0.75451 0.0
C3628 C 0.19205 0.13523 0.76062 0.0
C3629 C 0.17755 0.10641 0.77409 0.0
C3630 C 0.20653 0.13542 0.77534 0.0
C3631 C 0.23066 0.13997 0.77465 0.0
C3632 C 0.24099 0.14473 0.75926 0.0
C3633 C 0.22621 0.1448 0.74464 0.0
C3634 C 0.20221 0.1401 0.74531 0.0
H3635 H 0.17039 0.09544 0.77362 0.0
H3636 H 0.19441 0.10685 0.76649 0.0
H3637 H 0.182 0.10882 0.78755 0.0
H3638 H 0.19914 0.13213 0.78746 0.0
H3639 H 0.24123 0.13962 0.78622 0.0
H3640 H 0.5292 0.12785 0.01519 0.0
H3641 H 0.57036 0.11839 0.01412 0.0
H3642 H 0.59475 0.15659 0.98963 0.0
H3643 H 0.55367 0.16593 0.99018 0.0
H3644 H 0.61419 0.13299 0.97468 0.0
H3645 H 0.62627 0.13009 0.04467 0.0
H3646 H 0.60055 0.12054 0.03685 0.0
H3647 H 0.60152 0.13948 0.03493 0.0
C3648 C 0.54324 0.13421 0.00942 0.0
C3649 C 0.53793 0.14776 1.00292 0.0
C3650 C 0.56692 0.12883 0.009 0.0
C3651 C 0.58595 0.13686 1.00209 0.0
C3652 C 0.58057 0.1502 0.99518 0.0
H3653 H 0.74094 0.12542 0.01698 0.0
H3654 H 0.69907 0.13355 0.01675 0.0
C3655 C 0.55698 0.15559 0.99563 0.0
C3656 C 0.61142 0.13143 1.00193 0.0
H3657 H 0.65759 0.12045 0.02776 0.0
C3658 C 0.62363 0.13023 0.9863 0.0
C3659 C 0.62405 0.12799 0.01708 0.0
C3660 C 0.61257 0.1297 0.03436 0.0
C3661 C 0.64781 0.12561 0.98538 0.0
C3662 C 0.66026 0.12186 1.00049 0.0
C3663 C 0.64813 0.12318 0.01613 0.0
C3664 C 0.68597 0.11683 1.0004 0.0
C3665 C 0.66 0.12513 0.96823 0.0
C3666 C 0.69283 0.10462 0.99139 0.0
C3667 C 0.71687 0.09987 0.99155 0.0
C3668 C 0.73478 0.10715 1.00081 0.0
C3669 C 0.72779 0.11938 0.00984 0.0
C3670 C 0.70376 0.12411 0.00968 0.0
H3671 H 0.65046 0.1318 0.95872 0.0
H3672 H 0.67902 0.12875 0.96912 0.0
H3673 H 0.65999 0.11408 0.96348 0.0
H3674 H 0.67948 0.09858 0.98443 0.0
H3675 H 0.72126 0.09027 0.98471 0.0
H3676 H 0.24518 0.6265 0.01839 0.0
H3677 H 0.20363 0.63554 0.01833 0.0
H3678 H 0.18091 0.59948 0.98882 0.0
H3679 H 0.22209 0.59032 0.98913 0.0
H3680 H 0.17268 0.64368 0.99419 0.0
H3681 H 0.1328 0.59723 0.02648 0.0
H3682 H 0.16496 0.59977 0.02486 0.0
H3683 H 0.14825 0.59242 0.0073 0.0
C3684 C 0.23135 0.62053 0.01182 0.0
C3685 C 0.23707 0.60756 1.00397 0.0
C3686 C 0.2075 0.62569 0.01184 0.0
C3687 C 0.18873 0.61804 1.00398 0.0
C3688 C 0.19467 0.60539 0.99554 0.0
H3689 H 0.03452 0.63347 0.98567 0.0
H3690 H 0.07597 0.62442 0.98558 0.0
C3691 C 0.21838 0.60018 0.99565 0.0
C3692 C 0.16309 0.62331 1.00442 0.0
H3693 H 0.10507 0.6136 0.01423 0.0
C3694 C 0.15798 0.6371 0.99869 0.0
C3695 C 0.14363 0.61483 0.01031 0.0
C3696 C 0.14768 0.6003 0.01775 0.0
C3697 C 0.1342 0.64246 0.99837 0.0
C3698 C 0.11479 0.6339 1.00402 0.0
C3699 C 0.11983 0.62015 0.00976 0.0
C3700 C 0.08925 0.63918 1.0044 0.0
C3701 C 0.12993 0.65721 0.9917 0.0
C3702 C 0.08257 0.65028 0.01529 0.0
C3703 C 0.05876 0.65535 0.01558 0.0
C3704 C 0.04082 0.64955 0.00489 0.0
C3705 C 0.04753 0.6382 0.99421 0.0
C3706 C 0.07137 0.63305 0.99405 0.0
H3707 H 0.14569 0.66127 0.98445 0.0
H3708 H 0.11378 0.65749 0.98334 0.0
H3709 H 0.12662 0.66445 1.00256 0.0
H3710 H 0.0958 0.65501 0.02368 0.0
H3711 H 0.05445 0.6638 0.02436 0.0
H3712 H 0.47712 0.90987 0.77632 0.0
H3713 H 0.43604 0.9005 0.77563 0.0
H3714 H 0.45241 0.87813 0.72923 0.0
H3715 H 0.49381 0.88723 0.73012 0.0
H3716 H 0.4003 0.90387 0.75434 0.0
H3717 H 0.42205 0.84675 0.7553 0.0
H3718 H 0.44456 0.86016 0.75904 0.0
H3719 H 0.43566 0.85574 0.73765 0.0
C3720 C 0.47205 0.90291 0.76598 0.0
C3721 C 0.48895 0.8993 0.7533 0.0
C3722 C 0.44845 0.89753 0.7656 0.0
C3723 C 0.4409 0.88838 0.75252 0.0
C3724 C 0.45772 0.88481 0.73977 0.0
H3725 H 0.28624 0.87186 0.73213 0.0
H3726 H 0.32745 0.88133 0.73165 0.0
C3727 C 0.48148 0.89008 0.74025 0.0
C3728 C 0.41535 0.88296 0.75211 0.0
H3729 H 0.38123 0.8528 0.74976 0.0
C3730 C 0.39619 0.89269 0.75337 0.0
C3731 C 0.40969 0.86834 0.75109 0.0
C3732 C 0.42906 0.85713 0.75087 0.0
C3733 C 0.37184 0.88829 0.75359 0.0
C3734 C 0.36616 0.87371 0.75201 0.0
C3735 C 0.38532 0.86398 0.7508 0.0
C3736 C 0.34065 0.86821 0.75226 0.0
C3737 C 0.35252 0.89934 0.75609 0.0
C3738 C 0.33409 0.85741 0.76368 0.0
C3739 C 0.31062 0.85184 0.76378 0.0
C3740 C 0.29285 0.8569 0.75248 0.0
C3741 C 0.29929 0.86783 0.74116 0.0
C3742 C 0.32293 0.8733 0.74093 0.0
H3743 H 0.35986 0.90905 0.76215 0.0
H3744 H 0.34505 0.90239 0.74352 0.0
H3745 H 0.33757 0.89525 0.76411 0.0
H3746 H 0.34718 0.85325 0.7726 0.0
H3747 H 0.30635 0.84355 0.7728 0.0
H3748 H 0.78468 0.37368 0.7373 0.0
H3749 H 0.82605 0.38302 0.73657 0.0
H3750 H 0.8489 0.35016 0.77099 0.0
H3751 H 0.80789 0.34084 0.77182 0.0
H3752 H 0.85668 0.39309 0.76167 0.0
H3753 H 0.89687 0.34524 0.73253 0.0
H3754 H 0.86471 0.3481 0.73341 0.0
H3755 H 0.8806 0.34159 0.75178 0.0
C3756 C 0.79846 0.3685 0.74481 0.0
C3757 C 0.79283 0.35633 0.7544 0.0
C3758 C 0.8222 0.37381 0.74432 0.0
C3759 C 0.84092 0.3671 0.75336 0.0
C3760 C 0.83511 0.3553 0.76343 0.0
H3761 H 0.99575 0.38186 0.76884 0.0
H3762 H 0.95437 0.37258 0.76894 0.0
C3763 C 0.81151 0.34998 0.76391 0.0
C3764 C 0.86641 0.37243 0.75248 0.0
H3765 H 0.92438 0.36244 0.7431 0.0
C3766 C 0.87143 0.38641 0.75749 0.0
C3767 C 0.88586 0.36375 0.7471 0.0
C3768 C 0.88178 0.34888 0.74074 0.0
C3769 C 0.89519 0.39179 0.75762 0.0
C3770 C 0.91464 0.38309 0.75229 0.0
C3771 C 0.90962 0.36913 0.74725 0.0
C3772 C 0.94019 0.38835 0.75166 0.0
C3773 C 0.8993 0.40667 0.76392 0.0
C3774 C 0.94639 0.40004 0.74152 0.0
C3775 C 0.97005 0.40531 0.74136 0.0
C3776 C 0.98835 0.39903 0.7513 0.0
C3777 C 0.98231 0.38697 0.76096 0.0
C3778 C 0.95855 0.38169 0.7611 0.0
H3779 H 0.88402 0.41046 0.77187 0.0
H3780 H 0.91615 0.40739 0.77151 0.0
H3781 H 0.90099 0.41389 0.75285 0.0
H3782 H 0.93287 0.40515 0.7337 0.0
H3783 H 0.97398 0.41438 0.73341 0.0
H3784 H 0.30562 0.41239 0.48991 0.0
H3785 H 0.34657 0.40301 0.49125 0.0
H3786 H 0.32278 0.37037 0.52569 0.0
H3787 H 0.28153 0.37978 0.52447 0.0
H3788 H 0.37621 0.40077 0.51905 0.0
H3789 H 0.36115 0.34762 0.49099 0.0
H3790 H 0.33912 0.36162 0.48948 0.0
H3791 H 0.34221 0.3517 0.50887 0.0
C3792 C 0.30899 0.40322 0.49783 0.0
C3793 C 0.29011 0.39694 0.50719 0.0
C3794 C 0.33251 0.39782 0.49852 0.0
C3795 C 0.33793 0.3859 0.50847 0.0
C3796 C 0.31911 0.37942 0.51764 0.0
H3797 H 0.47543 0.34204 0.52711 0.0
H3798 H 0.43337 0.34995 0.52785 0.0
C3799 C 0.29545 0.38483 0.51695 0.0
C3800 C 0.36347 0.38074 0.50964 0.0
H3801 H 0.40017 0.35231 0.50185 0.0
C3802 C 0.3814 0.39017 0.51527 0.0
C3803 C 0.37042 0.36688 0.5048 0.0
C3804 C 0.3523 0.35638 0.49805 0.0
C3805 C 0.40586 0.38616 0.51625 0.0
C3806 C 0.41288 0.37239 0.51114 0.0
C3807 C 0.39492 0.36287 0.50575 0.0
C3808 C 0.43877 0.36776 0.51099 0.0
C3809 C 0.42389 0.3967 0.52304 0.0
C3810 C 0.45602 0.37504 0.50121 0.0
C3811 C 0.48019 0.37061 0.50087 0.0
C3812 C 0.48783 0.35869 0.51021 0.0
C3813 C 0.47047 0.3514 0.51998 0.0
C3814 C 0.44627 0.35584 0.5203 0.0
H3815 H 0.41504 0.40492 0.53098 0.0
H3816 H 0.43801 0.39139 0.53077 0.0
H3817 H 0.43281 0.40211 0.5122 0.0
H3818 H 0.45075 0.3841 0.49364 0.0
H3819 H 0.4929 0.37659 0.49328 0.0
H3820 H 0.99016 0.86934 0.52832 0.0
H3821 H 0.94847 0.87814 0.52915 0.0
H3822 H 0.9313 0.85294 0.48504 0.0
H3823 H 0.97251 0.84381 0.48456 0.0
H3824 H 0.92109 0.89294 0.50895 0.0
H3825 H 0.87781 0.84059 0.51502 0.0
H3826 H 0.90998 0.84289 0.51682 0.0
H3827 H 0.89594 0.8415 0.49619 0.0
C3828 C 0.97748 0.86571 0.51879 0.0
C3829 C 0.98465 0.85572 0.50652 0.0
C3830 C 0.95357 0.87072 0.51929 0.0
C3831 C 0.93627 0.86593 0.50747 0.0
C3832 C 0.9438 0.85643 0.49476 0.0
H3833 H 0.80143 0.90973 0.48435 0.0
H3834 H 0.84259 0.90055 0.48525 0.0
C3835 C 0.96752 0.85128 0.49441 0.0
C3836 C 0.91058 0.87102 0.50818 0.0
H3837 H 0.8518 0.85978 0.50742 0.0
C3838 C 0.90599 0.88565 0.50874 0.0
C3839 C 0.89059 0.86162 0.5083 0.0
C3840 C 0.89381 0.84579 0.50924 0.0
C3841 C 0.88228 0.89109 0.50892 0.0
C3842 C 0.86232 0.8817 0.50793 0.0
C3843 C 0.8669 0.86707 0.50788 0.0
C3844 C 0.83666 0.88683 0.50692 0.0
C3845 C 0.879 0.90688 0.51056 0.0
C3846 C 0.81887 0.88166 0.51813 0.0
C3847 C 0.79499 0.8867 0.51737 0.0
C3848 C 0.78835 0.89711 0.50545 0.0
C3849 C 0.80599 0.90193 0.49392 0.0
C3850 C 0.82968 0.89675 0.49452 0.0
H3851 H 0.89475 0.91187 0.51692 0.0
H3852 H 0.87743 0.9116 0.49768 0.0
H3853 H 0.86251 0.90952 0.51792 0.0
H3854 H 0.82354 0.87391 0.52773 0.0
H3855 H 0.78191 0.88277 0.52645 0.0
H3856 H 0.55646 0.09011 0.27611 0.0
H3857 H 0.59758 0.0994 0.27597 0.0
H3858 H 0.57609 0.13198 0.24073 0.0
H3859 H 0.53481 0.1227 0.24074 0.0
H3860 H 0.62948 0.10175 0.24957 0.0
H3861 H 0.61155 0.15494 0.27639 0.0
H3862 H 0.58955 0.14088 0.27709 0.0
H3863 H 0.59385 0.15093 0.25789 0.0
C3864 C 0.56038 0.09926 0.26829 0.0
C3865 C 0.5421 0.1056 0.2584 0.0
C3866 C 0.584 0.1046 0.26828 0.0
C3867 C 0.59009 0.11651 0.25848 0.0
C3868 C 0.57188 0.12298 0.2487 0.0
H3869 H 0.72313 0.16261 0.23798 0.0
H3870 H 0.68214 0.1532 0.23872 0.0
C3871 C 0.54818 0.11764 0.24872 0.0
C3872 C 0.61563 0.1218 0.25812 0.0
H3873 H 0.65088 0.15092 0.26547 0.0
C3874 C 0.63414 0.11249 0.25314 0.0
C3875 C 0.6219 0.13581 0.26275 0.0
C3876 C 0.60323 0.1462 0.26899 0.0
C3877 C 0.65846 0.11685 0.25232 0.0
C3878 C 0.66473 0.13087 0.25691 0.0
C3879 C 0.64623 0.14017 0.26193 0.0
C3880 C 0.6902 0.13624 0.25628 0.0
C3881 C 0.67714 0.10647 0.24606 0.0
C3882 C 0.70871 0.1299 0.26592 0.0
C3883 C 0.73237 0.13532 0.26556 0.0
C3884 C 0.73808 0.14732 0.2557 0.0
C3885 C 0.71949 0.15352 0.24597 0.0
C3886 C 0.69594 0.14811 0.24632 0.0
H3887 H 0.66882 0.09764 0.23882 0.0
H3888 H 0.69064 0.11178 0.2378 0.0
H3889 H 0.68675 0.10187 0.25715 0.0
H3890 H 0.70479 0.12092 0.274 0.0
H3891 H 0.74601 0.13035 0.2734 0.0
H3892 H 0.04915 0.60364 0.23308 0.0
H3893 H 0.09092 0.61184 0.23456 0.0
H3894 H 0.08073 0.62377 0.28693 0.0
H3895 H 0.03856 0.61597 0.28553 0.0
H3896 H 0.10569 0.64407 0.25248 0.0
H3897 H 0.14476 0.59355 0.27645 0.0
H3898 H 0.11916 0.59343 0.26221 0.0
H3899 H 0.11554 0.59954 0.28363 0.0
C3900 C 0.05553 0.60818 0.24489 0.0
C3901 C 0.04015 0.60917 0.25916 0.0
C3902 C 0.07958 0.61277 0.24573 0.0
C3903 C 0.08899 0.61839 0.26085 0.0
C3904 C 0.07387 0.61941 0.27514 0.0
H3905 H 0.23935 0.63926 0.28576 0.0
H3906 H 0.19695 0.63213 0.28689 0.0
C3907 C 0.04975 0.61485 0.27432 0.0
C3908 C 0.11457 0.62327 0.26158 0.0
H3909 H 0.17186 0.61209 0.27056 0.0
C3910 C 0.12018 0.63711 0.25647 0.0
C3911 C 0.13341 0.61424 0.26695 0.0
C3912 C 0.12816 0.59933 0.27266 0.0
C3913 C 0.14414 0.64213 0.25649 0.0
C3914 C 0.16322 0.63294 0.26133 0.0
C3915 C 0.15744 0.61916 0.26675 0.0
C3916 C 0.18921 0.63737 0.26065 0.0
C3917 C 0.14863 0.65734 0.25161 0.0
C3918 C 0.19938 0.64252 0.24548 0.0
C3919 C 0.22358 0.64683 0.24485 0.0
C3920 C 0.23859 0.64589 0.25931 0.0
C3921 C 0.22847 0.64042 0.27441 0.0
C3922 C 0.20415 0.6362 0.27505 0.0
H3923 H 0.13233 0.66396 0.25368 0.0
H3924 H 0.16379 0.66194 0.25901 0.0
H3925 H 0.15322 0.65789 0.23788 0.0
H3926 H 0.18859 0.64322 0.23403 0.0
H3927 H 0.23034 0.65112 0.23301 0.0
H3928 H 0.72289 0.5943 0.5205 0.0
H3929 H 0.68181 0.60351 0.51949 0.0
H3930 H 0.70365 0.63459 0.48244 0.0
H3931 H 0.74507 0.62538 0.48337 0.0
H3932 H 0.67349 0.64597 0.50663 0.0
H3933 H 0.63333 0.59649 0.48187 0.0
H3934 H 0.64991 0.59383 0.50121 0.0
H3935 H 0.66547 0.59948 0.48229 0.0
C3936 C 0.71902 0.60302 0.51199 0.0
C3937 C 0.7374 0.60892 0.50181 0.0
C3938 C 0.6954 0.60829 0.51142 0.0
C3939 C 0.68931 0.61954 0.50057 0.0
C3940 C 0.70775 0.62581 0.49082 0.0
H3941 H 0.53895 0.64071 0.47541 0.0
H3942 H 0.58129 0.63341 0.47436 0.0
C3943 C 0.7315 0.62057 0.49141 0.0
C3944 C 0.66378 0.62474 0.49954 0.0
H3945 H 0.60576 0.61385 0.4922 0.0
C3946 C 0.65872 0.63896 0.50337 0.0
C3947 C 0.64437 0.61571 0.49502 0.0
C3948 C 0.64851 0.60057 0.48969 0.0
C3949 C 0.6349 0.64425 0.50329 0.0
C3950 C 0.61538 0.63504 0.49958 0.0
C3951 C 0.62054 0.62092 0.49526 0.0
C3952 C 0.58954 0.63977 0.50016 0.0
C3953 C 0.63098 0.65974 0.50697 0.0
C3954 C 0.57972 0.64565 0.51506 0.0
C3955 C 0.55551 0.64997 0.51565 0.0
C3956 C 0.54022 0.64839 0.50142 0.0
C3957 C 0.55006 0.64232 0.48657 0.0
C3958 C 0.57434 0.63803 0.48598 0.0
H3959 H 0.64748 0.66605 0.50431 0.0
H3960 H 0.6159 0.66408 0.49928 0.0
H3961 H 0.6265 0.66108 0.52063 0.0
H3962 H 0.59075 0.64684 0.52634 0.0
H3963 H 0.54889 0.65472 0.52728 0.0
H3964 H 0.02988 0.12871 0.48641 0.0
H3965 H 0.07099 0.11902 0.48615 0.0
H3966 H 0.09484 0.15313 0.51839 0.0
H3967 H 0.05394 0.16256 0.5192 0.0
H3968 H 0.11342 0.13107 0.47461 0.0
H3969 H 0.12203 0.11932 0.54334 0.0
H3970 H 0.09338 0.12321 0.53349 0.0
H3971 H 0.11357 0.13733 0.53929 0.0
C3972 C 0.04377 0.13403 0.49368 0.0
C3973 C 0.03839 0.14647 0.5028 0.0
C3974 C 0.06737 0.12852 0.49341 0.0
C3975 C 0.08613 0.1352 0.50243 0.0
C3976 C 0.08075 0.14757 0.51158 0.0
H3977 H 0.24119 0.12559 0.51578 0.0
H3978 H 0.199 0.13314 0.51563 0.0
C3979 C 0.05727 0.15308 0.51184 0.0
C3980 C 0.11144 0.1296 0.5019 0.0
H3981 H 0.15848 0.1191 0.5272 0.0
C3982 C 0.12318 0.12832 0.48611 0.0
C3983 C 0.12437 0.12601 0.51687 0.0
C3984 C 0.11263 0.1264 0.53419 0.0
C3985 C 0.14751 0.12402 0.48492 0.0
C3986 C 0.16053 0.12064 0.49992 0.0
C3987 C 0.14869 0.12175 0.51568 0.0
C3988 C 0.18645 0.11606 0.49959 0.0
C3989 C 0.1593 0.12359 0.46762 0.0
C3990 C 0.19369 0.10386 0.49073 0.0
C3991 C 0.2179 0.09945 0.49084 0.0
C3992 C 0.23558 0.10707 0.49993 0.0
C3993 C 0.22822 0.11931 0.50879 0.0
C3994 C 0.20401 0.1237 0.50866 0.0
H3995 H 0.14917 0.12997 0.45814 0.0
H3996 H 0.17813 0.12756 0.46823 0.0
H3997 H 0.15975 0.11249 0.46304 0.0
H3998 H 0.18051 0.09755 0.48396 0.0
H3999 H 0.22261 0.08983 0.48415 0.0
loop_
_geom_bond_atom_site_label_1
_geom_bond_atom_site_label_2
_geom_bond_distance
_geom_bond_site_symmetry_2
_ccdc_geom_bond_type
C0 C1 1.443 . S
C0 N4 1.376 . S
C0 C38 1.389 . S
C1 C0 1.443 . S
C1 C2 1.340 . S
C1 H41 0.951 . S
C2 C1 1.340 . S
C2 C3 1.439 . S
C2 H42 0.950 . S
C3 C2 1.439 . S
C3 N4 1.374 . S
C3 C37 1.395 . S
N4 C0 1.376 . S
N4 C3 1.374 . S
N4 Co5 2.008 . S
Co5 N4 2.008 . S
Co5 N6 1.995 . S
Co5 N11 2.008 . S
Co5 N16 1.995 . S
Co5 N21 2.282 . S
Co5 N27 2.282 . S
N6 Co5 1.995 . S
N6 C7 1.376 . S
N6 C10 1.383 . S
C7 N6 1.376 . S
C7 C8 1.446 . S
C7 C37 1.391 . S
C8 C7 1.446 . S
C8 C9 1.339 . S
C8 H43 0.949 . S
C9 C8 1.339 . S
C9 C10 1.439 . S
C9 H44 0.950 . S
C10 N6 1.383 . S
C10 C9 1.439 . S
C10 C39 1.392 . S
N11 Co5 2.008 . S
N11 C12 1.376 . S
N11 C15 1.374 . S
C12 N11 1.376 . S
C12 C13 1.443 . S
C12 C39 1.389 . S
C13 C12 1.443 . S
C13 C14 1.340 . S
C13 H45 0.951 . S
C14 C13 1.340 . S
C14 C15 1.439 . S
C14 H46 0.950 . S
C15 N11 1.374 . S
C15 C14 1.439 . S
C15 C40 1.395 . S
N16 Co5 1.995 . S
N16 C17 1.376 . S
N16 C20 1.383 . S
C17 N16 1.376 . S
C17 C18 1.446 . S
C17 C40 1.391 . S
C18 C17 1.446 . S
C18 C19 1.339 . S
C18 H47 0.949 . S
C19 C18 1.339 . S
C19 C20 1.439 . S
C19 H48 0.950 . S
C20 N16 1.383 . S
C20 C19 1.439 . S
C20 C38 1.392 . S
N21 Co5 2.282 . S
N21 C24 1.332 . S
N21 C26 1.332 . S
C22 C23 1.386 . S
C22 C25 1.388 . S
C23 C22 1.386 . S
C23 C24 1.382 . S
C23 H49 0.950 . S
C24 N21 1.332 . S
C24 C23 1.382 . S
C24 H35 0.952 . S
C25 C22 1.388 . S
C25 C26 1.382 . S
C25 H50 0.950 . S
C26 N21 1.332 . S
C26 C25 1.382 . S
C26 H36 0.948 . S
N27 Co5 2.282 . S
N27 C31 1.332 . S
N27 C32 1.332 . S
C28 C29 1.388 . S
C28 C32 1.382 . S
C28 H51 0.950 . S
C29 C28 1.388 . S
C29 C30 1.386 . S
C30 C29 1.386 . S
C30 C31 1.382 . S
C30 H52 0.950 . S
C31 N27 1.332 . S
C31 C30 1.382 . S
C31 H33 0.952 . S
C32 N27 1.332 . S
C32 C28 1.382 . S
C32 H34 0.948 . S
H33 C31 0.952 . S
H34 C32 0.948 . S
H35 C24 0.952 . S
H36 C26 0.948 . S
C37 C3 1.395 . S
C37 C7 1.391 . S
C38 C0 1.389 . S
C38 C20 1.392 . S
C39 C10 1.392 . S
C39 C12 1.389 . S
C40 C15 1.395 . S
C40 C17 1.391 . S
H41 C1 0.951 . S
H42 C2 0.950 . S
H43 C8 0.949 . S
H44 C9 0.950 . S
H45 C13 0.951 . S
H46 C14 0.950 . S
H47 C18 0.949 . S
H48 C19 0.950 . S
H49 C23 0.950 . S
H50 C25 0.950 . S
H51 C28 0.950 . S
H52 C30 0.950 . S
C53 C54 1.443 . S
C53 N57 1.376 . S
C53 C91 1.389 . S
C54 C53 1.443 . S
C54 C55 1.340 . S
C54 H94 0.951 . S
C55 C54 1.340 . S
C55 C56 1.439 . S
C55 H95 0.950 . S
C56 C55 1.439 . S
C56 N57 1.374 . S
C56 C90 1.395 . S
N57 C53 1.376 . S
N57 C56 1.374 . S
N57 Co58 2.008 . S
Co58 N57 2.008 . S
Co58 N59 1.995 . S
Co58 N64 2.008 . S
Co58 N69 1.995 . S
Co58 N74 2.282 . S
Co58 N80 2.282 . S
N59 Co58 1.995 . S
N59 C60 1.376 . S
N59 C63 1.383 . S
C60 N59 1.376 . S
C60 C61 1.446 . S
C60 C90 1.391 . S
C61 C60 1.446 . S
C61 C62 1.339 . S
C61 H96 0.949 . S
C62 C61 1.339 . S
C62 C63 1.439 . S
C62 H97 0.950 . S
C63 N59 1.383 . S
C63 C62 1.439 . S
C63 C92 1.392 . S
N64 Co58 2.008 . S
N64 C65 1.376 . S
N64 C68 1.374 . S
C65 N64 1.376 . S
C65 C66 1.443 . S
C65 C92 1.389 . S
C66 C65 1.443 . S
C66 C67 1.340 . S
C66 H98 0.951 . S
C67 C66 1.340 . S
C67 C68 1.439 . S
C67 H99 0.950 . S
C68 N64 1.374 . S
C68 C67 1.439 . S
C68 C93 1.395 . S
N69 Co58 1.995 . S
N69 C70 1.376 . S
N69 C73 1.383 . S
C70 N69 1.376 . S
C70 C71 1.446 . S
C70 C93 1.391 . S
C71 C70 1.446 . S
C71 C72 1.339 . S
C71 H100 0.949 . S
C72 C71 1.339 . S
C72 C73 1.439 . S
C72 H101 0.950 . S
C73 N69 1.383 . S
C73 C72 1.439 . S
C73 C91 1.392 . S
N74 Co58 2.282 . S
N74 C77 1.332 . S
N74 C79 1.332 . S
C75 C76 1.386 . S
C75 C78 1.388 . S
C76 C75 1.386 . S
C76 C77 1.382 . S
C76 H102 0.950 . S
C77 N74 1.332 . S
C77 C76 1.382 . S
C77 H88 0.952 . S
C78 C75 1.388 . S
C78 C79 1.382 . S
C78 H103 0.950 . S
C79 N74 1.332 . S
C79 C78 1.382 . S
C79 H89 0.948 . S
N80 Co58 2.282 . S
N80 C84 1.332 . S
N80 C85 1.332 . S
C81 C82 1.388 . S
C81 C85 1.382 1_655 S
C81 H104 0.950 . S
C82 C81 1.388 . S
C82 C83 1.386 1_655 S
C83 C82 1.386 1_455 S
C83 C84 1.382 . S
C83 H105 0.950 . S
C84 N80 1.332 . S
C84 C83 1.382 . S
C84 H86 0.952 . S
C85 N80 1.332 . S
C85 C81 1.382 1_455 S
C85 H87 0.948 . S
H86 C84 0.952 . S
H87 C85 0.948 . S
H88 C77 0.952 . S
H89 C79 0.948 . S
C90 C56 1.395 . S
C90 C60 1.391 . S
C91 C53 1.389 . S
C91 C73 1.392 . S
C92 C63 1.392 . S
C92 C65 1.389 . S
C93 C68 1.395 . S
C93 C70 1.391 . S
H94 C54 0.951 . S
H95 C55 0.950 . S
H96 C61 0.949 . S
H97 C62 0.950 . S
H98 C66 0.951 . S
H99 C67 0.950 . S
H100 C71 0.949 . S
H101 C72 0.950 . S
H102 C76 0.950 . S
H103 C78 0.950 . S
H104 C81 0.950 . S
H105 C83 0.950 . S
C106 C107 1.443 . S
C106 N110 1.376 . S
C106 C144 1.389 . S
C107 C106 1.443 . S
C107 C108 1.340 . S
C107 H147 0.951 . S
C108 C107 1.340 . S
C108 C109 1.439 . S
C108 H148 0.950 . S
C109 C108 1.439 . S
C109 N110 1.374 . S
C109 C143 1.395 1_556 S
N110 C106 1.376 . S
N110 C109 1.374 . S
N110 Co111 2.008 . S
Co111 N110 2.008 . S
Co111 N112 1.995 1_556 S
Co111 N117 2.008 1_556 S
Co111 N122 1.995 . S
Co111 N127 2.282 . S
Co111 N133 2.282 . S
N112 Co111 1.995 1_554 S
N112 C113 1.376 . S
N112 C116 1.383 . S
C113 N112 1.376 . S
C113 C114 1.446 . S
C113 C143 1.391 . S
C114 C113 1.446 . S
C114 C115 1.339 . S
C114 H149 0.949 . S
C115 C114 1.339 . S
C115 C116 1.439 . S
C115 H150 0.950 . S
C116 N112 1.383 . S
C116 C115 1.439 . S
C116 C145 1.392 . S
N117 Co111 2.008 1_554 S
N117 C118 1.376 . S
N117 C121 1.374 . S
C118 N117 1.376 . S
C118 C119 1.443 . S
C118 C145 1.389 . S
C119 C118 1.443 . S
C119 C120 1.340 . S
C119 H151 0.951 . S
C120 C119 1.340 . S
C120 C121 1.439 . S
C120 H152 0.950 . S
C121 N117 1.374 . S
C121 C120 1.439 . S
C121 C146 1.395 1_554 S
N122 Co111 1.995 . S
N122 C123 1.376 . S
N122 C126 1.383 . S
C123 N122 1.376 . S
C123 C124 1.446 . S
C123 C146 1.391 . S
C124 C123 1.446 . S
C124 C125 1.339 . S
C124 H153 0.949 . S
C125 C124 1.339 . S
C125 C126 1.439 . S
C125 H154 0.950 . S
C126 N122 1.383 . S
C126 C125 1.439 . S
C126 C144 1.392 . S
N127 Co111 2.282 . S
N127 C130 1.332 . S
N127 C132 1.355 . S
C128 C129 1.386 . S
C128 C131 1.388 1_556 S
C129 C128 1.386 . S
C129 C130 1.382 . S
C129 H155 0.950 . S
C130 N127 1.332 . S
C130 C129 1.382 . S
C130 H141 0.952 . S
C131 C128 1.388 1_554 S
C131 C132 1.377 1_554 S
C131 H156 0.950 . S
C132 N127 1.355 . S
C132 C131 1.377 1_556 S
C132 H142 0.933 1_556 S
N133 Co111 2.282 . S
N133 C137 1.332 1_556 S
N133 C138 1.332 . S
C134 C135 1.388 . S
C134 C138 1.382 . S
C134 H157 0.950 . S
C135 C134 1.388 . S
C135 C136 1.382 1_556 S
C136 C135 1.382 1_554 S
C136 C137 1.382 . S
C136 H158 0.953 . S
C137 N133 1.332 1_554 S
C137 C136 1.382 . S
C137 H139 0.952 . S
C138 N133 1.332 . S
C138 C134 1.382 . S
C138 H140 0.948 . S
H139 C137 0.952 . S
H140 C138 0.948 . S
H141 C130 0.952 . S
H142 C132 0.933 1_554 S
C143 C109 1.395 1_554 S
C143 C113 1.391 . S
C144 C106 1.389 . S
C144 C126 1.392 . S
C145 C116 1.392 . S
C145 C118 1.389 . S
C146 C121 1.395 1_556 S
C146 C123 1.391 . S
H147 C107 0.951 . S
H148 C108 0.950 . S
H149 C114 0.949 . S
H150 C115 0.950 . S
H151 C119 0.951 . S
H152 C120 0.950 . S
H153 C124 0.949 . S
H154 C125 0.950 . S
H155 C129 0.950 . S
H156 C131 0.950 . S
H157 C134 0.950 . S
H158 C136 0.953 . S
C159 C160 1.443 . S
C159 N163 1.376 . S
C159 C197 1.389 . S
C160 C159 1.443 . S
C160 C161 1.340 . S
C160 H200 0.951 . S
C161 C160 1.340 . S
C161 C162 1.439 . S
C161 H201 0.950 . S
C162 C161 1.439 . S
C162 N163 1.374 . S
C162 C196 1.395 1_556 S
N163 C159 1.376 . S
N163 C162 1.374 . S
N163 Co164 2.008 . S
Co164 N163 2.008 . S
Co164 N165 1.995 1_556 S
Co164 N170 2.008 1_556 S
Co164 N175 1.995 . S
Co164 N180 2.282 . S
Co164 N186 2.282 . S
N165 Co164 1.995 1_554 S
N165 C166 1.376 . S
N165 C169 1.383 . S
C166 N165 1.376 . S
C166 C167 1.446 . S
C166 C196 1.391 . S
C167 C166 1.446 . S
C167 C168 1.339 . S
C167 H202 0.949 . S
C168 C167 1.339 . S
C168 C169 1.439 . S
C168 H203 0.950 . S
C169 N165 1.383 . S
C169 C168 1.439 . S
C169 C198 1.392 . S
N170 Co164 2.008 1_554 S
N170 C171 1.376 . S
N170 C174 1.374 . S
C171 N170 1.376 . S
C171 C172 1.443 . S
C171 C198 1.389 . S
C172 C171 1.443 . S
C172 C173 1.340 . S
C172 H204 0.951 . S
C173 C172 1.340 . S
C173 C174 1.439 . S
C173 H205 0.950 . S
C174 N170 1.374 . S
C174 C173 1.439 . S
C174 C199 1.395 1_554 S
N175 Co164 1.995 . S
N175 C176 1.376 . S
N175 C179 1.383 . S
C176 N175 1.376 . S
C176 C177 1.446 . S
C176 C199 1.391 . S
C177 C176 1.446 . S
C177 C178 1.339 . S
C177 H206 0.949 . S
C178 C177 1.339 . S
C178 C179 1.439 . S
C178 H207 0.950 . S
C179 N175 1.383 . S
C179 C178 1.439 . S
C179 C197 1.392 . S
N180 Co164 2.282 . S
N180 C183 1.332 . S
N180 C185 1.355 . S
C181 C182 1.386 . S
C181 C184 1.388 1_556 S
C182 C181 1.386 . S
C182 C183 1.382 . S
C182 H208 0.950 . S
C183 N180 1.332 . S
C183 C182 1.382 . S
C183 H194 0.952 . S
C184 C181 1.388 1_554 S
C184 C185 1.377 1_554 S
C184 H209 0.950 . S
C185 N180 1.355 . S
C185 C184 1.377 1_556 S
C185 H195 0.933 1_556 S
N186 Co164 2.282 . S
N186 C190 1.332 1_556 S
N186 C191 1.332 . S
C187 C188 1.388 . S
C187 C191 1.382 1_655 S
C187 H210 0.950 . S
C188 C187 1.388 . S
C188 C189 1.382 1_656 S
C189 C188 1.382 1_454 S
C189 C190 1.382 . S
C189 H211 0.953 . S
C190 N186 1.332 1_554 S
C190 C189 1.382 . S
C190 H192 0.952 . S
C191 N186 1.332 . S
C191 C187 1.382 1_455 S
C191 H193 0.948 . S
H192 C190 0.952 . S
H193 C191 0.948 . S
H194 C183 0.952 . S
H195 C185 0.933 1_554 S
C196 C162 1.395 1_554 S
C196 C166 1.391 . S
C197 C159 1.389 . S
C197 C179 1.392 . S
C198 C169 1.392 . S
C198 C171 1.389 . S
C199 C174 1.395 1_556 S
C199 C176 1.391 . S
H200 C160 0.951 . S
H201 C161 0.950 . S
H202 C167 0.949 . S
H203 C168 0.950 . S
H204 C172 0.951 . S
H205 C173 0.950 . S
H206 C177 0.949 . S
H207 C178 0.950 . S
H208 C182 0.950 . S
H209 C184 0.950 . S
H210 C187 0.950 . S
H211 C189 0.953 . S
C212 C213 1.443 . S
C212 N216 1.376 . S
C212 C250 1.389 . S
C213 C212 1.443 . S
C213 C214 1.340 . S
C213 H253 0.951 . S
C214 C213 1.340 . S
C214 C215 1.439 . S
C214 H254 0.950 . S
C215 C214 1.439 . S
C215 N216 1.374 . S
C215 C249 1.395 . S
N216 C212 1.376 . S
N216 C215 1.374 . S
N216 Co217 2.008 . S
Co217 N216 2.008 . S
Co217 N218 1.995 . S
Co217 N223 2.008 . S
Co217 N228 1.995 . S
Co217 N233 2.282 . S
Co217 N239 2.282 . S
N218 Co217 1.995 . S
N218 C219 1.376 . S
N218 C222 1.383 . S
C219 N218 1.376 . S
C219 C220 1.446 . S
C219 C249 1.391 . S
C220 C219 1.446 . S
C220 C221 1.339 . S
C220 H255 0.949 . S
C221 C220 1.339 . S
C221 C222 1.439 . S
C221 H256 0.950 . S
C222 N218 1.383 . S
C222 C221 1.439 . S
C222 C251 1.392 . S
N223 Co217 2.008 . S
N223 C224 1.376 . S
N223 C227 1.374 . S
C224 N223 1.376 . S
C224 C225 1.443 . S
C224 C251 1.389 . S
C225 C224 1.443 . S
C225 C226 1.340 . S
C225 H257 0.951 . S
C226 C225 1.340 . S
C226 C227 1.439 . S
C226 H258 0.950 . S
C227 N223 1.374 . S
C227 C226 1.439 . S
C227 C252 1.395 . S
N228 Co217 1.995 . S
N228 C229 1.376 . S
N228 C232 1.383 . S
C229 N228 1.376 . S
C229 C230 1.446 . S
C229 C252 1.391 . S
C230 C229 1.446 . S
C230 C231 1.339 . S
C230 H259 0.949 . S
C231 C230 1.339 . S
C231 C232 1.439 . S
C231 H260 0.950 . S
C232 N228 1.383 . S
C232 C231 1.439 . S
C232 C250 1.392 . S
N233 Co217 2.282 . S
N233 C236 1.332 . S
N233 C238 1.332 . S
C234 C235 1.386 . S
C234 C237 1.388 . S
C235 C234 1.386 . S
C235 C236 1.382 . S
C235 H261 0.950 . S
C236 N233 1.332 . S
C236 C235 1.382 . S
C236 H247 0.952 . S
C237 C234 1.388 . S
C237 C238 1.382 . S
C237 H262 0.950 . S
C238 N233 1.332 . S
C238 C237 1.382 . S
C238 H248 0.948 . S
N239 Co217 2.282 . S
N239 C243 1.332 . S
N239 C244 1.332 . S
C240 C241 1.388 . S
C240 C244 1.382 . S
C240 H263 0.950 . S
C241 C240 1.388 . S
C241 C242 1.386 . S
C242 C241 1.386 . S
C242 C243 1.382 . S
C242 H264 0.950 . S
C243 N239 1.332 . S
C243 C242 1.382 . S
C243 H245 0.952 . S
C244 N239 1.332 . S
C244 C240 1.382 . S
C244 H246 0.948 . S
H245 C243 0.952 . S
H246 C244 0.948 . S
H247 C236 0.952 . S
H248 C238 0.948 . S
C249 C215 1.395 . S
C249 C219 1.391 . S
C250 C212 1.389 . S
C250 C232 1.392 . S
C251 C222 1.392 . S
C251 C224 1.389 . S
C252 C227 1.395 . S
C252 C229 1.391 . S
H253 C213 0.951 . S
H254 C214 0.950 . S
H255 C220 0.949 . S
H256 C221 0.950 . S
H257 C225 0.951 . S
H258 C226 0.950 . S
H259 C230 0.949 . S
H260 C231 0.950 . S
H261 C235 0.950 . S
H262 C237 0.950 . S
H263 C240 0.950 . S
H264 C242 0.950 . S
C265 C266 1.443 . S
C265 N269 1.376 . S
C265 C303 1.389 . S
C266 C265 1.443 . S
C266 C267 1.340 . S
C266 H306 0.951 . S
C267 C266 1.340 . S
C267 C268 1.439 . S
C267 H307 0.950 . S
C268 C267 1.439 . S
C268 N269 1.374 . S
C268 C302 1.395 . S
N269 C265 1.376 . S
N269 C268 1.374 . S
N269 Co270 2.008 . S
Co270 N269 2.008 . S
Co270 N271 1.995 . S
Co270 N276 2.008 . S
Co270 N281 1.995 . S
Co270 N286 2.282 . S
Co270 N292 2.282 . S
N271 Co270 1.995 . S
N271 C272 1.376 . S
N271 C275 1.383 . S
C272 N271 1.376 . S
C272 C273 1.446 . S
C272 C302 1.391 . S
C273 C272 1.446 . S
C273 C274 1.339 . S
C273 H308 0.949 . S
C274 C273 1.339 . S
C274 C275 1.439 . S
C274 H309 0.950 . S
C275 N271 1.383 . S
C275 C274 1.439 . S
C275 C304 1.392 . S
N276 Co270 2.008 . S
N276 C277 1.376 . S
N276 C280 1.374 . S
C277 N276 1.376 . S
C277 C278 1.443 . S
C277 C304 1.389 . S
C278 C277 1.443 . S
C278 C279 1.340 . S
C278 H310 0.951 . S
C279 C278 1.340 . S
C279 C280 1.439 . S
C279 H311 0.950 . S
C280 N276 1.374 . S
C280 C279 1.439 . S
C280 C305 1.395 . S
N281 Co270 1.995 . S
N281 C282 1.376 . S
N281 C285 1.383 . S
C282 N281 1.376 . S
C282 C283 1.446 . S
C282 C305 1.391 . S
C283 C282 1.446 . S
C283 C284 1.339 . S
C283 H312 0.949 . S
C284 C283 1.339 . S
C284 C285 1.439 . S
C284 H313 0.950 . S
C285 N281 1.383 . S
C285 C284 1.439 . S
C285 C303 1.392 . S
N286 Co270 2.282 . S
N286 C289 1.332 . S
N286 C291 1.332 . S
C287 C288 1.386 . S
C287 C290 1.388 . S
C288 C287 1.386 . S
C288 C289 1.382 . S
C288 H314 0.950 . S
C289 N286 1.332 . S
C289 C288 1.382 . S
C289 H300 0.952 . S
C290 C287 1.388 . S
C290 C291 1.382 . S
C290 H315 0.950 . S
C291 N286 1.332 . S
C291 C290 1.382 . S
C291 H301 0.948 . S
N292 Co270 2.282 . S
N292 C296 1.332 . S
N292 C297 1.332 . S
C293 C294 1.388 1_655 S
C293 C297 1.382 . S
C293 H316 0.950 . S
C294 C293 1.388 1_455 S
C294 C295 1.386 . S
C295 C294 1.386 . S
C295 C296 1.382 1_455 S
C295 H317 0.950 . S
C296 N292 1.332 . S
C296 C295 1.382 1_655 S
C296 H298 0.952 . S
C297 N292 1.332 . S
C297 C293 1.382 . S
C297 H299 0.948 . S
H298 C296 0.952 . S
H299 C297 0.948 . S
H300 C289 0.952 . S
H301 C291 0.948 . S
C302 C268 1.395 . S
C302 C272 1.391 . S
C303 C265 1.389 . S
C303 C285 1.392 . S
C304 C275 1.392 . S
C304 C277 1.389 . S
C305 C280 1.395 . S
C305 C282 1.391 . S
H306 C266 0.951 . S
H307 C267 0.950 . S
H308 C273 0.949 . S
H309 C274 0.950 . S
H310 C278 0.951 . S
H311 C279 0.950 . S
H312 C283 0.949 . S
H313 C284 0.950 . S
H314 C288 0.950 . S
H315 C290 0.950 . S
H316 C293 0.950 . S
H317 C295 0.950 . S
C318 C319 1.443 . S
C318 N322 1.376 . S
C318 C356 1.389 . S
C319 C318 1.443 . S
C319 C320 1.340 . S
C319 H359 0.951 . S
C320 C319 1.340 . S
C320 C321 1.439 . S
C320 H360 0.950 . S
C321 C320 1.439 . S
C321 N322 1.374 . S
C321 C355 1.395 . S
N322 C318 1.376 . S
N322 C321 1.374 . S
N322 Co323 2.008 . S
Co323 N322 2.008 . S
Co323 N324 1.995 1_554 S
Co323 N329 2.008 1_554 S
Co323 N334 1.995 . S
Co323 N339 2.282 . S
Co323 N345 2.282 . S
N324 Co323 1.995 1_556 S
N324 C325 1.376 . S
N324 C328 1.383 . S
C325 N324 1.376 . S
C325 C326 1.446 . S
C325 C355 1.391 1_556 S
C326 C325 1.446 . S
C326 C327 1.339 . S
C326 H361 0.949 . S
C327 C326 1.339 . S
C327 C328 1.439 . S
C327 H362 0.950 . S
C328 N324 1.383 . S
C328 C327 1.439 . S
C328 C357 1.392 . S
N329 Co323 2.008 1_556 S
N329 C330 1.376 . S
N329 C333 1.374 . S
C330 N329 1.376 . S
C330 C331 1.443 . S
C330 C357 1.389 . S
C331 C330 1.443 . S
C331 C332 1.340 . S
C331 H363 0.951 . S
C332 C331 1.340 . S
C332 C333 1.439 . S
C332 H364 0.950 . S
C333 N329 1.374 . S
C333 C332 1.439 . S
C333 C358 1.392 . S
N334 Co323 1.995 . S
N334 C335 1.376 . S
N334 C338 1.383 . S
C335 N334 1.376 . S
C335 C336 1.446 . S
C335 C358 1.395 1_554 S
C336 C335 1.446 . S
C336 C337 1.339 . S
C336 H365 0.949 . S
C337 C336 1.339 . S
C337 C338 1.439 . S
C337 H366 0.950 . S
C338 N334 1.383 . S
C338 C337 1.439 . S
C338 C356 1.392 . S
N339 Co323 2.282 . S
N339 C342 1.332 . S
N339 C344 1.332 . S
C340 C341 1.386 . S
C340 C343 1.388 . S
C341 C340 1.386 . S
C341 C342 1.382 . S
C341 H367 0.950 . S
C342 N339 1.332 . S
C342 C341 1.382 . S
C342 H353 0.952 . S
C343 C340 1.388 . S
C343 C344 1.382 . S
C343 H368 0.950 . S
C344 N339 1.332 . S
C344 C343 1.382 . S
C344 H354 0.948 . S
N345 Co323 2.282 . S
N345 C349 1.332 . S
N345 C350 1.332 . S
C346 C347 1.388 . S
C346 C350 1.382 . S
C346 H369 0.950 . S
C347 C346 1.388 . S
C347 C348 1.386 . S
C348 C347 1.386 . S
C348 C349 1.382 . S
C348 H370 0.950 . S
C349 N345 1.332 . S
C349 C348 1.382 . S
C349 H351 0.958 . S
C350 N345 1.332 . S
C350 C346 1.382 . S
C350 H352 0.948 . S
H351 C349 0.958 . S
H352 C350 0.948 . S
H353 C342 0.952 . S
H354 C344 0.948 . S
C355 C321 1.395 . S
C355 C325 1.391 1_554 S
C356 C318 1.389 . S
C356 C338 1.392 . S
C357 C328 1.392 . S
C357 C330 1.389 . S
C358 C333 1.392 . S
C358 C335 1.395 1_556 S
H359 C319 0.951 . S
H360 C320 0.950 . S
H361 C326 0.949 . S
H362 C327 0.950 . S
H363 C331 0.951 . S
H364 C332 0.950 . S
H365 C336 0.949 . S
H366 C337 0.950 . S
H367 C341 0.950 . S
H368 C343 0.950 . S
H369 C346 0.950 . S
H370 C348 0.950 . S
C371 C372 1.443 . S
C371 N375 1.376 . S
C371 C409 1.389 . S
C372 C371 1.443 . S
C372 C373 1.340 . S
C372 H412 0.951 . S
C373 C372 1.340 . S
C373 C374 1.439 . S
C373 H413 0.950 . S
C374 C373 1.439 . S
C374 N375 1.374 . S
C374 C408 1.395 . S
N375 C371 1.376 . S
N375 C374 1.374 . S
N375 Co376 2.008 . S
Co376 N375 2.008 . S
Co376 N377 1.995 1_554 S
Co376 N382 2.008 1_554 S
Co376 N387 1.995 . S
Co376 N392 2.282 . S
Co376 N398 2.282 . S
N377 Co376 1.995 1_556 S
N377 C378 1.376 . S
N377 C381 1.383 . S
C378 N377 1.376 . S
C378 C379 1.446 . S
C378 C408 1.391 1_556 S
C379 C378 1.446 . S
C379 C380 1.339 . S
C379 H414 0.949 . S
C380 C379 1.339 . S
C380 C381 1.439 . S
C380 H415 0.950 . S
C381 N377 1.383 . S
C381 C380 1.439 . S
C381 C410 1.392 . S
N382 Co376 2.008 1_556 S
N382 C383 1.376 . S
N382 C386 1.374 . S
C383 N382 1.376 . S
C383 C384 1.443 . S
C383 C410 1.389 . S
C384 C383 1.443 . S
C384 C385 1.340 . S
C384 H416 0.951 . S
C385 C384 1.340 . S
C385 C386 1.439 . S
C385 H417 0.950 . S
C386 N382 1.374 . S
C386 C385 1.439 . S
C386 C411 1.392 . S
N387 Co376 1.995 . S
N387 C388 1.376 . S
N387 C391 1.383 . S
C388 N387 1.376 . S
C388 C389 1.446 . S
C388 C411 1.395 1_554 S
C389 C388 1.446 . S
C389 C390 1.339 . S
C389 H418 0.949 . S
C390 C389 1.339 . S
C390 C391 1.439 . S
C390 H419 0.950 . S
C391 N387 1.383 . S
C391 C390 1.439 . S
C391 C409 1.392 . S
N392 Co376 2.282 . S
N392 C395 1.332 . S
N392 C397 1.332 . S
C393 C394 1.386 . S
C393 C396 1.388 . S
C394 C393 1.386 . S
C394 C395 1.382 . S
C394 H420 0.950 . S
C395 N392 1.332 . S
C395 C394 1.382 . S
C395 H406 0.952 . S
C396 C393 1.388 . S
C396 C397 1.382 . S
C396 H421 0.950 . S
C397 N392 1.332 . S
C397 C396 1.382 . S
C397 H407 0.948 . S
N398 Co376 2.282 . S
N398 C402 1.332 . S
N398 C403 1.332 . S
C399 C400 1.388 1_655 S
C399 C403 1.382 . S
C399 H422 0.950 . S
C400 C399 1.388 1_455 S
C400 C401 1.386 . S
C401 C400 1.386 . S
C401 C402 1.382 1_455 S
C401 H423 0.950 . S
C402 N398 1.332 . S
C402 C401 1.382 1_655 S
C402 H404 0.958 . S
C403 N398 1.332 . S
C403 C399 1.382 . S
C403 H405 0.948 . S
H404 C402 0.958 . S
H405 C403 0.948 . S
H406 C395 0.952 . S
H407 C397 0.948 . S
C408 C374 1.395 . S
C408 C378 1.391 1_554 S
C409 C371 1.389 . S
C409 C391 1.392 . S
C410 C381 1.392 . S
C410 C383 1.389 . S
C411 C386 1.392 . S
C411 C388 1.395 1_556 S
H412 C372 0.951 . S
H413 C373 0.950 . S
H414 C379 0.949 . S
H415 C380 0.950 . S
H416 C384 0.951 . S
H417 C385 0.950 . S
H418 C389 0.949 . S
H419 C390 0.950 . S
H420 C394 0.950 . S
H421 C396 0.950 . S
H422 C399 0.950 . S
H423 C401 0.950 . S
C424 C425 1.443 . S
C424 N428 1.376 . S
C424 C462 1.389 . S
C425 C424 1.443 . S
C425 C426 1.340 . S
C425 H465 0.951 . S
C426 C425 1.340 . S
C426 C427 1.439 . S
C426 H466 0.950 . S
C427 C426 1.439 . S
C427 N428 1.374 . S
C427 C461 1.395 . S
N428 C424 1.376 . S
N428 C427 1.374 . S
N428 Co429 2.008 . S
Co429 N428 2.008 . S
Co429 N430 1.995 . S
Co429 N435 2.008 . S
Co429 N440 1.995 . S
Co429 N445 2.282 . S
Co429 N451 2.282 . S
N430 Co429 1.995 . S
N430 C431 1.376 . S
N430 C434 1.383 . S
C431 N430 1.376 . S
C431 C432 1.446 . S
C431 C461 1.391 . S
C432 C431 1.446 . S
C432 C433 1.339 . S
C432 H467 0.949 . S
C433 C432 1.339 . S
C433 C434 1.439 . S
C433 H468 0.950 . S
C434 N430 1.383 . S
C434 C433 1.439 . S
C434 C463 1.392 . S
N435 Co429 2.008 . S
N435 C436 1.376 . S
N435 C439 1.374 . S
C436 N435 1.376 . S
C436 C437 1.443 . S
C436 C463 1.389 . S
C437 C436 1.443 . S
C437 C438 1.340 . S
C437 H469 0.951 . S
C438 C437 1.340 . S
C438 C439 1.439 . S
C438 H470 0.950 . S
C439 N435 1.374 . S
C439 C438 1.439 . S
C439 C464 1.395 . S
N440 Co429 1.995 . S
N440 C441 1.376 . S
N440 C444 1.383 . S
C441 N440 1.376 . S
C441 C442 1.446 . S
C441 C464 1.391 . S
C442 C441 1.446 . S
C442 C443 1.339 . S
C442 H471 0.949 . S
C443 C442 1.339 . S
C443 C444 1.439 . S
C443 H472 0.950 . S
C444 N440 1.383 . S
C444 C443 1.439 . S
C444 C462 1.392 . S
N445 Co429 2.282 . S
N445 C448 1.332 . S
N445 C450 1.332 . S
C446 C447 1.386 . S
C446 C449 1.388 . S
C447 C446 1.386 . S
C447 C448 1.382 . S
C447 H473 0.950 . S
C448 N445 1.332 . S
C448 C447 1.382 . S
C448 H459 0.952 . S
C449 C446 1.388 . S
C449 C450 1.382 . S
C449 H474 0.950 . S
C450 N445 1.332 . S
C450 C449 1.382 . S
C450 H460 0.948 . S
N451 Co429 2.282 . S
N451 C455 1.332 . S
N451 C456 1.332 . S
C452 C453 1.388 . S
C452 C456 1.382 . S
C452 H475 0.950 . S
C453 C452 1.388 . S
C453 C454 1.386 . S
C454 C453 1.386 . S
C454 C455 1.382 . S
C454 H476 0.950 . S
C455 N451 1.332 . S
C455 C454 1.382 . S
C455 H457 0.952 . S
C456 N451 1.332 . S
C456 C452 1.382 . S
C456 H458 0.948 . S
H457 C455 0.952 . S
H458 C456 0.948 . S
H459 C448 0.952 . S
H460 C450 0.948 . S
C461 C427 1.395 . S
C461 C431 1.391 . S
C462 C424 1.389 . S
C462 C444 1.392 . S
C463 C434 1.392 . S
C463 C436 1.389 . S
C464 C439 1.395 . S
C464 C441 1.391 . S
H465 C425 0.951 . S
H466 C426 0.950 . S
H467 C432 0.949 . S
H468 C433 0.950 . S
H469 C437 0.951 . S
H470 C438 0.950 . S
H471 C442 0.949 . S
H472 C443 0.950 . S
H473 C447 0.950 . S
H474 C449 0.950 . S
H475 C452 0.950 . S
H476 C454 0.950 . S
C477 C478 1.443 . S
C477 N481 1.376 . S
C477 C515 1.389 . S
C478 C477 1.443 . S
C478 C479 1.340 . S
C478 H518 0.951 . S
C479 C478 1.340 . S
C479 C480 1.439 . S
C479 H519 0.950 . S
C480 C479 1.439 . S
C480 N481 1.374 . S
C480 C514 1.395 . S
N481 C477 1.376 . S
N481 C480 1.374 . S
N481 Co482 2.008 . S
Co482 N481 2.008 . S
Co482 N483 1.995 . S
Co482 N488 2.008 . S
Co482 N493 1.995 . S
Co482 N498 2.282 . S
Co482 N504 2.282 . S
N483 Co482 1.995 . S
N483 C484 1.376 . S
N483 C487 1.383 . S
C484 N483 1.376 . S
C484 C485 1.446 . S
C484 C514 1.391 . S
C485 C484 1.446 . S
C485 C486 1.339 . S
C485 H520 0.949 . S
C486 C485 1.339 . S
C486 C487 1.439 . S
C486 H521 0.950 . S
C487 N483 1.383 . S
C487 C486 1.439 . S
C487 C516 1.392 . S
N488 Co482 2.008 . S
N488 C489 1.376 . S
N488 C492 1.374 . S
C489 N488 1.376 . S
C489 C490 1.443 . S
C489 C516 1.389 . S
C490 C489 1.443 . S
C490 C491 1.340 . S
C490 H522 0.951 . S
C491 C490 1.340 . S
C491 C492 1.439 . S
C491 H523 0.950 . S
C492 N488 1.374 . S
C492 C491 1.439 . S
C492 C517 1.395 . S
N493 Co482 1.995 . S
N493 C494 1.376 . S
N493 C497 1.383 . S
C494 N493 1.376 . S
C494 C495 1.446 . S
C494 C517 1.391 . S
C495 C494 1.446 . S
C495 C496 1.339 . S
C495 H524 0.949 . S
C496 C495 1.339 . S
C496 C497 1.439 . S
C496 H525 0.950 . S
C497 N493 1.383 . S
C497 C496 1.439 . S
C497 C515 1.392 . S
N498 Co482 2.282 . S
N498 C501 1.332 . S
N498 C503 1.332 . S
C499 C500 1.386 . S
C499 C502 1.388 . S
C500 C499 1.386 . S
C500 C501 1.382 . S
C500 H526 0.950 . S
C501 N498 1.332 . S
C501 C500 1.382 . S
C501 H512 0.952 . S
C502 C499 1.388 . S
C502 C503 1.382 . S
C502 H527 0.950 . S
C503 N498 1.332 . S
C503 C502 1.382 . S
C503 H513 0.948 . S
N504 Co482 2.282 . S
N504 C508 1.332 . S
N504 C509 1.332 . S
C505 C506 1.388 . S
C505 C509 1.382 1_655 S
C505 H528 0.950 . S
C506 C505 1.388 . S
C506 C507 1.386 1_655 S
C507 C506 1.386 1_455 S
C507 C508 1.382 . S
C507 H529 0.950 . S
C508 N504 1.332 . S
C508 C507 1.382 . S
C508 H510 0.952 . S
C509 N504 1.332 . S
C509 C505 1.382 1_455 S
C509 H511 0.948 . S
H510 C508 0.952 . S
H511 C509 0.948 . S
H512 C501 0.952 . S
H513 C503 0.948 . S
C514 C480 1.395 . S
C514 C484 1.391 . S
C515 C477 1.389 . S
C515 C497 1.392 . S
C516 C487 1.392 . S
C516 C489 1.389 . S
C517 C492 1.395 . S
C517 C494 1.391 . S
H518 C478 0.951 . S
H519 C479 0.950 . S
H520 C485 0.949 . S
H521 C486 0.950 . S
H522 C490 0.951 . S
H523 C491 0.950 . S
H524 C495 0.949 . S
H525 C496 0.950 . S
H526 C500 0.950 . S
H527 C502 0.950 . S
H528 C505 0.950 . S
H529 C507 0.950 . S
C530 C531 1.443 . S
C530 N534 1.376 . S
C530 C568 1.389 . S
C531 C530 1.443 . S
C531 C532 1.340 . S
C531 H571 0.951 . S
C532 C531 1.340 . S
C532 C533 1.439 . S
C532 H572 0.950 . S
C533 C532 1.439 . S
C533 N534 1.374 . S
C533 C567 1.395 . S
N534 C530 1.376 . S
N534 C533 1.374 . S
N534 Co535 2.008 . S
Co535 N534 2.008 . S
Co535 N536 1.995 . S
Co535 N541 2.008 . S
Co535 N546 1.995 . S
Co535 N551 2.282 . S
Co535 N557 2.282 . S
N536 Co535 1.995 . S
N536 C537 1.376 . S
N536 C540 1.383 . S
C537 N536 1.376 . S
C537 C538 1.446 . S
C537 C567 1.391 . S
C538 C537 1.446 . S
C538 C539 1.339 . S
C538 H573 0.949 . S
C539 C538 1.339 . S
C539 C540 1.439 . S
C539 H574 0.950 . S
C540 N536 1.383 . S
C540 C539 1.439 . S
C540 C569 1.392 . S
N541 Co535 2.008 . S
N541 C542 1.376 . S
N541 C545 1.374 . S
C542 N541 1.376 . S
C542 C543 1.443 . S
C542 C569 1.389 . S
C543 C542 1.443 . S
C543 C544 1.340 . S
C543 H575 0.951 . S
C544 C543 1.340 . S
C544 C545 1.439 . S
C544 H576 0.950 . S
C545 N541 1.374 . S
C545 C544 1.439 . S
C545 C570 1.395 . S
N546 Co535 1.995 . S
N546 C547 1.376 . S
N546 C550 1.383 . S
C547 N546 1.376 . S
C547 C548 1.446 . S
C547 C570 1.391 . S
C548 C547 1.446 . S
C548 C549 1.339 . S
C548 H577 0.949 . S
C549 C548 1.339 . S
C549 C550 1.439 . S
C549 H578 0.950 . S
C550 N546 1.383 . S
C550 C549 1.439 . S
C550 C568 1.392 . S
N551 Co535 2.282 . S
N551 C554 1.332 . S
N551 C556 1.332 . S
C552 C553 1.386 . S
C552 C555 1.388 . S
C553 C552 1.386 . S
C553 C554 1.382 . S
C553 H579 0.950 . S
C554 N551 1.332 . S
C554 C553 1.382 . S
C554 H565 0.952 . S
C555 C552 1.388 . S
C555 C556 1.382 . S
C555 H580 0.950 . S
C556 N551 1.332 . S
C556 C555 1.382 . S
C556 H566 0.948 . S
N557 Co535 2.282 . S
N557 C561 1.332 . S
N557 C562 1.332 . S
C558 C559 1.388 . S
C558 C562 1.382 . S
C558 H581 0.950 . S
C559 C558 1.388 . S
C559 C560 1.386 . S
C560 C559 1.386 . S
C560 C561 1.382 . S
C560 H582 0.950 . S
C561 N557 1.332 . S
C561 C560 1.382 . S
C561 H563 0.952 . S
C562 N557 1.332 . S
C562 C558 1.382 . S
C562 H564 0.948 . S
H563 C561 0.952 . S
H564 C562 0.948 . S
H565 C554 0.952 . S
H566 C556 0.948 . S
C567 C533 1.395 . S
C567 C537 1.391 . S
C568 C530 1.389 . S
C568 C550 1.392 . S
C569 C540 1.392 . S
C569 C542 1.389 . S
C570 C545 1.395 . S
C570 C547 1.391 . S
H571 C531 0.951 . S
H572 C532 0.950 . S
H573 C538 0.949 . S
H574 C539 0.950 . S
H575 C543 0.951 . S
H576 C544 0.950 . S
H577 C548 0.949 . S
H578 C549 0.950 . S
H579 C553 0.950 . S
H580 C555 0.950 . S
H581 C558 0.950 . S
H582 C560 0.950 . S
C583 C584 1.443 . S
C583 N587 1.376 . S
C583 C621 1.389 . S
C584 C583 1.443 . S
C584 C585 1.340 . S
C584 H624 0.951 . S
C585 C584 1.340 . S
C585 C586 1.439 . S
C585 H625 0.950 . S
C586 C585 1.439 . S
C586 N587 1.374 . S
C586 C620 1.395 . S
N587 C583 1.376 . S
N587 C586 1.374 . S
N587 Co588 2.008 . S
Co588 N587 2.008 . S
Co588 N589 1.995 . S
Co588 N594 2.008 . S
Co588 N599 1.995 . S
Co588 N604 2.282 . S
Co588 N610 2.282 . S
N589 Co588 1.995 . S
N589 C590 1.376 . S
N589 C593 1.383 . S
C590 N589 1.376 . S
C590 C591 1.446 . S
C590 C620 1.391 . S
C591 C590 1.446 . S
C591 C592 1.339 . S
C591 H626 0.949 . S
C592 C591 1.339 . S
C592 C593 1.439 . S
C592 H627 0.950 . S
C593 N589 1.383 . S
C593 C592 1.439 . S
C593 C622 1.392 . S
N594 Co588 2.008 . S
N594 C595 1.376 . S
N594 C598 1.374 . S
C595 N594 1.376 . S
C595 C596 1.443 . S
C595 C622 1.389 . S
C596 C595 1.443 . S
C596 C597 1.340 . S
C596 H628 0.951 . S
C597 C596 1.340 . S
C597 C598 1.439 . S
C597 H629 0.950 . S
C598 N594 1.374 . S
C598 C597 1.439 . S
C598 C623 1.395 . S
N599 Co588 1.995 . S
N599 C600 1.376 . S
N599 C603 1.383 . S
C600 N599 1.376 . S
C600 C601 1.446 . S
C600 C623 1.391 . S
C601 C600 1.446 . S
C601 C602 1.339 . S
C601 H630 0.949 . S
C602 C601 1.339 . S
C602 C603 1.439 . S
C602 H631 0.950 . S
C603 N599 1.383 . S
C603 C602 1.439 . S
C603 C621 1.392 . S
N604 Co588 2.282 . S
N604 C607 1.332 . S
N604 C609 1.332 . S
C605 C606 1.386 . S
C605 C608 1.388 . S
C606 C605 1.386 . S
C606 C607 1.382 . S
C606 H632 0.950 . S
C607 N604 1.332 . S
C607 C606 1.382 . S
C607 H618 0.952 . S
C608 C605 1.388 . S
C608 C609 1.382 . S
C608 H633 0.950 . S
C609 N604 1.332 . S
C609 C608 1.382 . S
C609 H619 0.948 . S
N610 Co588 2.282 . S
N610 C614 1.332 . S
N610 C615 1.332 . S
C611 C612 1.388 . S
C611 C615 1.382 1_655 S
C611 H634 0.950 . S
C612 C611 1.388 . S
C612 C613 1.386 1_655 S
C613 C612 1.386 1_455 S
C613 C614 1.382 . S
C613 H635 0.950 . S
C614 N610 1.332 . S
C614 C613 1.382 . S
C614 H616 0.952 . S
C615 N610 1.332 . S
C615 C611 1.382 1_455 S
C615 H617 0.948 . S
H616 C614 0.952 . S
H617 C615 0.948 . S
H618 C607 0.952 . S
H619 C609 0.948 . S
C620 C586 1.395 . S
C620 C590 1.391 . S
C621 C583 1.389 . S
C621 C603 1.392 . S
C622 C593 1.392 . S
C622 C595 1.389 . S
C623 C598 1.395 . S
C623 C600 1.391 . S
H624 C584 0.951 . S
H625 C585 0.950 . S
H626 C591 0.949 . S
H627 C592 0.950 . S
H628 C596 0.951 . S
H629 C597 0.950 . S
H630 C601 0.949 . S
H631 C602 0.950 . S
H632 C606 0.950 . S
H633 C608 0.950 . S
H634 C611 0.950 . S
H635 C613 0.950 . S
C636 C637 1.443 . S
C636 N640 1.376 . S
C636 C674 1.389 . S
C637 C636 1.443 . S
C637 C638 1.340 . S
C637 H677 0.951 . S
C638 C637 1.340 . S
C638 C639 1.439 . S
C638 H678 0.950 . S
C639 C638 1.439 . S
C639 N640 1.374 . S
C639 C673 1.395 . S
N640 C636 1.376 . S
N640 C639 1.374 . S
N640 Co641 2.008 . S
Co641 N640 2.008 . S
Co641 N642 1.995 . S
Co641 N647 2.008 . S
Co641 N652 1.995 . S
Co641 N657 2.282 . S
Co641 N663 2.282 . S
N642 Co641 1.995 . S
N642 C643 1.376 . S
N642 C646 1.383 . S
C643 N642 1.376 . S
C643 C644 1.446 . S
C643 C673 1.391 . S
C644 C643 1.446 . S
C644 C645 1.339 . S
C644 H679 0.949 . S
C645 C644 1.339 . S
C645 C646 1.439 . S
C645 H680 0.950 . S
C646 N642 1.383 . S
C646 C645 1.439 . S
C646 C675 1.392 . S
N647 Co641 2.008 . S
N647 C648 1.376 . S
N647 C651 1.374 . S
C648 N647 1.376 . S
C648 C649 1.443 . S
C648 C675 1.389 . S
C649 C648 1.443 . S
C649 C650 1.340 . S
C649 H681 0.951 . S
C650 C649 1.340 . S
C650 C651 1.439 . S
C650 H682 0.950 . S
C651 N647 1.374 . S
C651 C650 1.439 . S
C651 C676 1.395 . S
N652 Co641 1.995 . S
N652 C653 1.376 . S
N652 C656 1.383 . S
C653 N652 1.376 . S
C653 C654 1.446 . S
C653 C676 1.391 . S
C654 C653 1.446 . S
C654 C655 1.339 . S
C654 H683 0.949 . S
C655 C654 1.339 . S
C655 C656 1.439 . S
C655 H684 0.950 . S
C656 N652 1.383 . S
C656 C655 1.439 . S
C656 C674 1.392 . S
N657 Co641 2.282 . S
N657 C660 1.332 . S
N657 C662 1.332 . S
C658 C659 1.386 . S
C658 C661 1.388 . S
C659 C658 1.386 . S
C659 C660 1.382 . S
C659 H685 0.950 . S
C660 N657 1.332 . S
C660 C659 1.382 . S
C660 H671 0.952 . S
C661 C658 1.388 . S
C661 C662 1.382 . S
C661 H686 0.950 . S
C662 N657 1.332 . S
C662 C661 1.382 . S
C662 H672 0.948 . S
N663 Co641 2.282 . S
N663 C667 1.332 . S
N663 C668 1.332 . S
C664 C665 1.388 . S
C664 C668 1.382 . S
C664 H687 0.950 . S
C665 C664 1.388 . S
C665 C666 1.386 . S
C666 C665 1.386 . S
C666 C667 1.382 . S
C666 H688 0.950 . S
C667 N663 1.332 . S
C667 C666 1.382 . S
C667 H669 0.952 . S
C668 N663 1.332 . S
C668 C664 1.382 . S
C668 H670 0.948 . S
H669 C667 0.952 . S
H670 C668 0.948 . S
H671 C660 0.952 . S
H672 C662 0.948 . S
C673 C639 1.395 . S
C673 C643 1.391 . S
C674 C636 1.389 . S
C674 C656 1.392 . S
C675 C646 1.392 . S
C675 C648 1.389 . S
C676 C651 1.395 . S
C676 C653 1.391 . S
H677 C637 0.951 . S
H678 C638 0.950 . S
H679 C644 0.949 . S
H680 C645 0.950 . S
H681 C649 0.951 . S
H682 C650 0.950 . S
H683 C654 0.949 . S
H684 C655 0.950 . S
H685 C659 0.950 . S
H686 C661 0.950 . S
H687 C664 0.950 . S
H688 C666 0.950 . S
C689 C690 1.443 . S
C689 N693 1.376 . S
C689 C727 1.389 . S
C690 C689 1.443 . S
C690 C691 1.340 . S
C690 H730 0.951 . S
C691 C690 1.340 . S
C691 C692 1.439 . S
C691 H731 0.950 . S
C692 C691 1.439 . S
C692 N693 1.374 . S
C692 C726 1.395 . S
N693 C689 1.376 . S
N693 C692 1.374 . S
N693 Co694 2.008 . S
Co694 N693 2.008 . S
Co694 N695 1.995 . S
Co694 N700 2.008 . S
Co694 N705 1.995 . S
Co694 N710 2.282 . S
Co694 N716 2.282 . S
N695 Co694 1.995 . S
N695 C696 1.376 . S
N695 C699 1.383 . S
C696 N695 1.376 . S
C696 C697 1.446 . S
C696 C726 1.391 . S
C697 C696 1.446 . S
C697 C698 1.339 . S
C697 H732 0.949 . S
C698 C697 1.339 . S
C698 C699 1.439 . S
C698 H733 0.950 . S
C699 N695 1.383 . S
C699 C698 1.439 . S
C699 C728 1.392 . S
N700 Co694 2.008 . S
N700 C701 1.376 . S
N700 C704 1.374 . S
C701 N700 1.376 . S
C701 C702 1.443 . S
C701 C728 1.389 . S
C702 C701 1.443 . S
C702 C703 1.340 . S
C702 H734 0.951 . S
C703 C702 1.340 . S
C703 C704 1.439 . S
C703 H735 0.950 . S
C704 N700 1.374 . S
C704 C703 1.439 . S
C704 C729 1.395 . S
N705 Co694 1.995 . S
N705 C706 1.376 . S
N705 C709 1.383 . S
C706 N705 1.376 . S
C706 C707 1.446 . S
C706 C729 1.391 . S
C707 C706 1.446 . S
C707 C708 1.339 . S
C707 H736 0.949 . S
C708 C707 1.339 . S
C708 C709 1.439 . S
C708 H737 0.950 . S
C709 N705 1.383 . S
C709 C708 1.439 . S
C709 C727 1.392 . S
N710 Co694 2.282 . S
N710 C713 1.332 . S
N710 C715 1.332 . S
C711 C712 1.386 . S
C711 C714 1.388 . S
C712 C711 1.386 . S
C712 C713 1.382 . S
C712 H738 0.950 . S
C713 N710 1.332 . S
C713 C712 1.382 . S
C713 H724 0.952 . S
C714 C711 1.388 . S
C714 C715 1.382 . S
C714 H739 0.950 . S
C715 N710 1.332 . S
C715 C714 1.382 . S
C715 H725 0.948 . S
N716 Co694 2.282 . S
N716 C720 1.332 . S
N716 C721 1.332 . S
C717 C718 1.388 1_655 S
C717 C721 1.382 . S
C717 H740 0.950 . S
C718 C717 1.388 1_455 S
C718 C719 1.386 . S
C719 C718 1.386 . S
C719 C720 1.382 1_455 S
C719 H741 0.950 . S
C720 N716 1.332 . S
C720 C719 1.382 1_655 S
C720 H722 0.952 . S
C721 N716 1.332 . S
C721 C717 1.382 . S
C721 H723 0.948 . S
H722 C720 0.952 . S
H723 C721 0.948 . S
H724 C713 0.952 . S
H725 C715 0.948 . S
C726 C692 1.395 . S
C726 C696 1.391 . S
C727 C689 1.389 . S
C727 C709 1.392 . S
C728 C699 1.392 . S
C728 C701 1.389 . S
C729 C704 1.395 . S
C729 C706 1.391 . S
H730 C690 0.951 . S
H731 C691 0.950 . S
H732 C697 0.949 . S
H733 C698 0.950 . S
H734 C702 0.951 . S
H735 C703 0.950 . S
H736 C707 0.949 . S
H737 C708 0.950 . S
H738 C712 0.950 . S
H739 C714 0.950 . S
H740 C717 0.950 . S
H741 C719 0.950 . S
C742 C743 1.443 . S
C742 N746 1.376 . S
C742 C780 1.389 . S
C743 C742 1.443 . S
C743 C744 1.340 . S
C743 H783 0.951 . S
C744 C743 1.340 . S
C744 C745 1.439 . S
C744 H784 0.950 . S
C745 C744 1.439 . S
C745 N746 1.374 . S
C745 C779 1.395 . S
N746 C742 1.376 . S
N746 C745 1.374 . S
N746 Co747 2.008 . S
Co747 N746 2.008 . S
Co747 N748 1.995 . S
Co747 N753 2.008 . S
Co747 N758 1.995 . S
Co747 N763 2.282 . S
Co747 N769 2.282 . S
N748 Co747 1.995 . S
N748 C749 1.376 . S
N748 C752 1.383 . S
C749 N748 1.376 . S
C749 C750 1.446 . S
C749 C779 1.391 . S
C750 C749 1.446 . S
C750 C751 1.339 . S
C750 H785 0.949 . S
C751 C750 1.339 . S
C751 C752 1.439 . S
C751 H786 0.950 . S
C752 N748 1.383 . S
C752 C751 1.439 . S
C752 C781 1.392 . S
N753 Co747 2.008 . S
N753 C754 1.376 . S
N753 C757 1.374 . S
C754 N753 1.376 . S
C754 C755 1.443 . S
C754 C781 1.389 . S
C755 C754 1.443 . S
C755 C756 1.340 . S
C755 H787 0.951 . S
C756 C755 1.340 . S
C756 C757 1.439 . S
C756 H788 0.950 . S
C757 N753 1.374 . S
C757 C756 1.439 . S
C757 C782 1.395 . S
N758 Co747 1.995 . S
N758 C759 1.376 . S
N758 C762 1.383 . S
C759 N758 1.376 . S
C759 C760 1.446 . S
C759 C782 1.391 . S
C760 C759 1.446 . S
C760 C761 1.339 . S
C760 H789 0.949 . S
C761 C760 1.339 . S
C761 C762 1.439 . S
C761 H790 0.950 . S
C762 N758 1.383 . S
C762 C761 1.439 . S
C762 C780 1.392 . S
N763 Co747 2.282 . S
N763 C766 1.332 . S
N763 C768 1.332 . S
C764 C765 1.386 . S
C764 C767 1.388 . S
C765 C764 1.386 . S
C765 C766 1.382 . S
C765 H791 0.950 . S
C766 N763 1.332 . S
C766 C765 1.382 . S
C766 H777 0.952 . S
C767 C764 1.388 . S
C767 C768 1.382 . S
C767 H792 0.950 . S
C768 N763 1.332 . S
C768 C767 1.382 . S
C768 H778 0.948 . S
N769 Co747 2.282 . S
N769 C773 1.332 . S
N769 C774 1.332 . S
C770 C771 1.388 . S
C770 C774 1.382 . S
C770 H793 0.950 . S
C771 C770 1.388 . S
C771 C772 1.386 . S
C772 C771 1.386 . S
C772 C773 1.382 . S
C772 H794 0.950 . S
C773 N769 1.332 . S
C773 C772 1.382 . S
C773 H775 0.952 . S
C774 N769 1.332 . S
C774 C770 1.382 . S
C774 H776 0.948 . S
H775 C773 0.952 . S
H776 C774 0.948 . S
H777 C766 0.952 . S
H778 C768 0.948 . S
C779 C745 1.395 . S
C779 C749 1.391 . S
C780 C742 1.389 . S
C780 C762 1.392 . S
C781 C752 1.392 . S
C781 C754 1.389 . S
C782 C757 1.395 . S
C782 C759 1.391 . S
H783 C743 0.951 . S
H784 C744 0.950 . S
H785 C750 0.949 . S
H786 C751 0.950 . S
H787 C755 0.951 . S
H788 C756 0.950 . S
H789 C760 0.949 . S
H790 C761 0.950 . S
H791 C765 0.950 . S
H792 C767 0.950 . S
H793 C770 0.950 . S
H794 C772 0.950 . S
C795 C796 1.443 . S
C795 N799 1.376 . S
C795 C833 1.389 . S
C796 C795 1.443 . S
C796 C797 1.340 . S
C796 H836 0.951 . S
C797 C796 1.340 . S
C797 C798 1.439 . S
C797 H837 0.950 . S
C798 C797 1.439 . S
C798 N799 1.374 . S
C798 C832 1.395 . S
N799 C795 1.376 . S
N799 C798 1.374 . S
N799 Co800 2.008 . S
Co800 N799 2.008 . S
Co800 N801 1.995 . S
Co800 N806 2.008 . S
Co800 N811 1.995 . S
Co800 N816 2.282 . S
Co800 N822 2.282 . S
N801 Co800 1.995 . S
N801 C802 1.376 . S
N801 C805 1.383 . S
C802 N801 1.376 . S
C802 C803 1.446 . S
C802 C832 1.391 . S
C803 C802 1.446 . S
C803 C804 1.339 . S
C803 H838 0.949 . S
C804 C803 1.339 . S
C804 C805 1.439 . S
C804 H839 0.950 . S
C805 N801 1.383 . S
C805 C804 1.439 . S
C805 C834 1.392 . S
N806 Co800 2.008 . S
N806 C807 1.376 . S
N806 C810 1.374 . S
C807 N806 1.376 . S
C807 C808 1.443 . S
C807 C834 1.389 . S
C808 C807 1.443 . S
C808 C809 1.340 . S
C808 H840 0.951 . S
C809 C808 1.340 . S
C809 C810 1.439 . S
C809 H841 0.950 . S
C810 N806 1.374 . S
C810 C809 1.439 . S
C810 C835 1.395 . S
N811 Co800 1.995 . S
N811 C812 1.376 . S
N811 C815 1.383 . S
C812 N811 1.376 . S
C812 C813 1.446 . S
C812 C835 1.391 . S
C813 C812 1.446 . S
C813 C814 1.339 . S
C813 H842 0.949 . S
C814 C813 1.339 . S
C814 C815 1.439 . S
C814 H843 0.950 . S
C815 N811 1.383 . S
C815 C814 1.439 . S
C815 C833 1.392 . S
N816 Co800 2.282 . S
N816 C819 1.332 . S
N816 C821 1.332 . S
C817 C818 1.386 . S
C817 C820 1.388 . S
C818 C817 1.386 . S
C818 C819 1.382 . S
C818 H844 0.950 . S
C819 N816 1.332 . S
C819 C818 1.382 . S
C819 H830 0.952 . S
C820 C817 1.388 . S
C820 C821 1.382 . S
C820 H845 0.950 . S
C821 N816 1.332 . S
C821 C820 1.382 . S
C821 H831 0.948 . S
N822 Co800 2.282 . S
N822 C826 1.332 . S
N822 C827 1.332 . S
C823 C824 1.388 1_655 S
C823 C827 1.382 . S
C823 H846 0.950 . S
C824 C823 1.388 1_455 S
C824 C825 1.386 . S
C825 C824 1.386 . S
C825 C826 1.382 1_455 S
C825 H847 0.950 . S
C826 N822 1.332 . S
C826 C825 1.382 1_655 S
C826 H828 0.952 . S
C827 N822 1.332 . S
C827 C823 1.382 . S
C827 H829 0.948 . S
H828 C826 0.952 . S
H829 C827 0.948 . S
H830 C819 0.952 . S
H831 C821 0.948 . S
C832 C798 1.395 . S
C832 C802 1.391 . S
C833 C795 1.389 . S
C833 C815 1.392 . S
C834 C805 1.392 . S
C834 C807 1.389 . S
C835 C810 1.395 . S
C835 C812 1.391 . S
H836 C796 0.951 . S
H837 C797 0.950 . S
H838 C803 0.949 . S
H839 C804 0.950 . S
H840 C808 0.951 . S
H841 C809 0.950 . S
H842 C813 0.949 . S
H843 C814 0.950 . S
H844 C818 0.950 . S
H845 C820 0.950 . S
H846 C823 0.950 . S
H847 C825 0.950 . S
C848 C849 1.443 . S
C848 N852 1.376 . S
C848 C886 1.389 . S
C849 C848 1.443 . S
C849 C850 1.340 . S
C849 H889 0.951 . S
C850 C849 1.340 . S
C850 C851 1.439 . S
C850 H890 0.950 . S
C851 C850 1.439 . S
C851 N852 1.374 . S
C851 C885 1.395 . S
N852 C848 1.376 . S
N852 C851 1.374 . S
N852 Co853 2.008 . S
Co853 N852 2.008 . S
Co853 N854 1.995 . S
Co853 N859 2.008 . S
Co853 N864 1.995 . S
Co853 N869 2.282 . S
Co853 N875 2.282 . S
N854 Co853 1.995 . S
N854 C855 1.376 . S
N854 C858 1.383 . S
C855 N854 1.376 . S
C855 C856 1.446 . S
C855 C885 1.391 . S
C856 C855 1.446 . S
C856 C857 1.339 . S
C856 H891 0.949 . S
C857 C856 1.339 . S
C857 C858 1.439 . S
C857 H892 0.950 . S
C858 N854 1.383 . S
C858 C857 1.439 . S
C858 C887 1.392 . S
N859 Co853 2.008 . S
N859 C860 1.376 . S
N859 C863 1.374 . S
C860 N859 1.376 . S
C860 C861 1.443 . S
C860 C887 1.389 . S
C861 C860 1.443 . S
C861 C862 1.340 . S
C861 H893 0.951 . S
C862 C861 1.340 . S
C862 C863 1.439 . S
C862 H894 0.950 . S
C863 N859 1.374 . S
C863 C862 1.439 . S
C863 C888 1.395 . S
N864 Co853 1.995 . S
N864 C865 1.376 . S
N864 C868 1.383 . S
C865 N864 1.376 . S
C865 C866 1.446 . S
C865 C888 1.391 . S
C866 C865 1.446 . S
C866 C867 1.339 . S
C866 H895 0.949 . S
C867 C866 1.339 . S
C867 C868 1.439 . S
C867 H896 0.950 . S
C868 N864 1.383 . S
C868 C867 1.439 . S
C868 C886 1.392 . S
N869 Co853 2.282 . S
N869 C872 1.332 . S
N869 C874 1.332 . S
C870 C871 1.386 . S
C870 C873 1.388 . S
C871 C870 1.386 . S
C871 C872 1.382 . S
C871 H897 0.950 . S
C872 N869 1.332 . S
C872 C871 1.382 . S
C872 H883 0.952 . S
C873 C870 1.388 . S
C873 C874 1.382 . S
C873 H898 0.950 . S
C874 N869 1.332 . S
C874 C873 1.382 . S
C874 H884 0.948 . S
N875 Co853 2.282 . S
N875 C879 1.332 . S
N875 C880 1.332 . S
C876 C877 1.388 . S
C876 C880 1.382 . S
C876 H899 0.950 . S
C877 C876 1.388 . S
C877 C878 1.386 . S
C878 C877 1.386 . S
C878 C879 1.382 . S
C878 H900 0.950 . S
C879 N875 1.332 . S
C879 C878 1.382 . S
C879 H881 0.952 . S
C880 N875 1.332 . S
C880 C876 1.382 . S
C880 H882 0.948 . S
H881 C879 0.952 . S
H882 C880 0.948 . S
H883 C872 0.952 . S
H884 C874 0.948 . S
C885 C851 1.395 . S
C885 C855 1.391 . S
C886 C848 1.389 . S
C886 C868 1.392 . S
C887 C858 1.392 . S
C887 C860 1.389 . S
C888 C863 1.395 . S
C888 C865 1.391 . S
H889 C849 0.951 . S
H890 C850 0.950 . S
H891 C856 0.949 . S
H892 C857 0.950 . S
H893 C861 0.951 . S
H894 C862 0.950 . S
H895 C866 0.949 . S
H896 C867 0.950 . S
H897 C871 0.950 . S
H898 C873 0.950 . S
H899 C876 0.950 . S
H900 C878 0.950 . S
C901 C902 1.443 . S
C901 N905 1.376 . S
C901 C939 1.389 . S
C902 C901 1.443 . S
C902 C903 1.340 . S
C902 H942 0.951 . S
C903 C902 1.340 . S
C903 C904 1.439 . S
C903 H943 0.950 . S
C904 C903 1.439 . S
C904 N905 1.374 . S
C904 C938 1.395 . S
N905 C901 1.376 . S
N905 C904 1.374 . S
N905 Co906 2.008 . S
Co906 N905 2.008 . S
Co906 N907 1.995 . S
Co906 N912 2.008 . S
Co906 N917 1.995 . S
Co906 N922 2.282 . S
Co906 N928 2.282 . S
N907 Co906 1.995 . S
N907 C908 1.376 . S
N907 C911 1.383 . S
C908 N907 1.376 . S
C908 C909 1.446 . S
C908 C938 1.391 . S
C909 C908 1.446 . S
C909 C910 1.339 . S
C909 H944 0.949 . S
C910 C909 1.339 . S
C910 C911 1.439 . S
C910 H945 0.950 . S
C911 N907 1.383 . S
C911 C910 1.439 . S
C911 C940 1.392 . S
N912 Co906 2.008 . S
N912 C913 1.376 . S
N912 C916 1.374 . S
C913 N912 1.376 . S
C913 C914 1.443 . S
C913 C940 1.389 . S
C914 C913 1.443 . S
C914 C915 1.340 . S
C914 H946 0.951 . S
C915 C914 1.340 . S
C915 C916 1.439 . S
C915 H947 0.950 . S
C916 N912 1.374 . S
C916 C915 1.439 . S
C916 C941 1.395 . S
N917 Co906 1.995 . S
N917 C918 1.376 . S
N917 C921 1.383 . S
C918 N917 1.376 . S
C918 C919 1.446 . S
C918 C941 1.391 . S
C919 C918 1.446 . S
C919 C920 1.339 . S
C919 H948 0.949 . S
C920 C919 1.339 . S
C920 C921 1.439 . S
C920 H949 0.950 . S
C921 N917 1.383 . S
C921 C920 1.439 . S
C921 C939 1.392 . S
N922 Co906 2.282 . S
N922 C925 1.332 . S
N922 C927 1.332 . S
C923 C924 1.386 . S
C923 C926 1.388 . S
C924 C923 1.386 . S
C924 C925 1.382 . S
C924 H950 0.950 . S
C925 N922 1.332 . S
C925 C924 1.382 . S
C925 H936 0.952 . S
C926 C923 1.388 . S
C926 C927 1.382 . S
C926 H951 0.950 . S
C927 N922 1.332 . S
C927 C926 1.382 . S
C927 H937 0.948 . S
N928 Co906 2.282 . S
N928 C932 1.332 . S
N928 C933 1.332 . S
C929 C930 1.388 . S
C929 C933 1.382 . S
C929 H952 0.950 . S
C930 C929 1.388 . S
C930 C931 1.386 . S
C931 C930 1.386 . S
C931 C932 1.382 . S
C931 H953 0.950 . S
C932 N928 1.332 . S
C932 C931 1.382 . S
C932 H934 0.952 . S
C933 N928 1.332 . S
C933 C929 1.382 . S
C933 H935 0.948 . S
H934 C932 0.952 . S
H935 C933 0.948 . S
H936 C925 0.952 . S
H937 C927 0.948 . S
C938 C904 1.395 . S
C938 C908 1.391 . S
C939 C901 1.389 . S
C939 C921 1.392 . S
C940 C911 1.392 . S
C940 C913 1.389 . S
C941 C916 1.395 . S
C941 C918 1.391 . S
H942 C902 0.951 . S
H943 C903 0.950 . S
H944 C909 0.949 . S
H945 C910 0.950 . S
H946 C914 0.951 . S
H947 C915 0.950 . S
H948 C919 0.949 . S
H949 C920 0.950 . S
H950 C924 0.950 . S
H951 C926 0.950 . S
H952 C929 0.950 . S
H953 C931 0.950 . S
C954 C955 1.443 . S
C954 N958 1.376 . S
C954 C992 1.389 . S
C955 C954 1.443 . S
C955 C956 1.340 . S
C955 H995 0.951 . S
C956 C955 1.340 . S
C956 C957 1.439 . S
C956 H996 0.950 . S
C957 C956 1.439 . S
C957 N958 1.374 . S
C957 C991 1.395 . S
N958 C954 1.376 . S
N958 C957 1.374 . S
N958 Co959 2.008 . S
Co959 N958 2.008 . S
Co959 N960 1.995 . S
Co959 N965 2.008 . S
Co959 N970 1.995 . S
Co959 N975 2.282 . S
Co959 N981 2.282 . S
N960 Co959 1.995 . S
N960 C961 1.376 . S
N960 C964 1.383 . S
C961 N960 1.376 . S
C961 C962 1.446 . S
C961 C991 1.391 . S
C962 C961 1.446 . S
C962 C963 1.339 . S
C962 H997 0.949 . S
C963 C962 1.339 . S
C963 C964 1.439 . S
C963 H998 0.950 . S
C964 N960 1.383 . S
C964 C963 1.439 . S
C964 C993 1.392 . S
N965 Co959 2.008 . S
N965 C966 1.376 . S
N965 C969 1.374 . S
C966 N965 1.376 . S
C966 C967 1.443 . S
C966 C993 1.389 . S
C967 C966 1.443 . S
C967 C968 1.340 . S
C967 H999 0.951 . S
C968 C967 1.340 . S
C968 C969 1.439 . S
C968 H1000 0.950 . S
C969 N965 1.374 . S
C969 C968 1.439 . S
C969 C994 1.395 . S
N970 Co959 1.995 . S
N970 C971 1.376 . S
N970 C974 1.383 . S
C971 N970 1.376 . S
C971 C972 1.446 . S
C971 C994 1.391 . S
C972 C971 1.446 . S
C972 C973 1.339 . S
C972 H1001 0.949 . S
C973 C972 1.339 . S
C973 C974 1.439 . S
C973 H1002 0.950 . S
C974 N970 1.383 . S
C974 C973 1.439 . S
C974 C992 1.392 . S
N975 Co959 2.282 . S
N975 C978 1.332 . S
N975 C980 1.332 . S
C976 C977 1.386 . S
C976 C979 1.388 . S
C977 C976 1.386 . S
C977 C978 1.382 . S
C977 H1003 0.950 . S
C978 N975 1.332 . S
C978 C977 1.382 . S
C978 H989 0.952 . S
C979 C976 1.388 . S
C979 C980 1.382 . S
C979 H1004 0.950 . S
C980 N975 1.332 . S
C980 C979 1.382 . S
C980 H990 0.948 . S
N981 Co959 2.282 . S
N981 C985 1.332 . S
N981 C986 1.332 . S
C982 C983 1.388 . S
C982 C986 1.382 . S
C982 H1005 0.950 . S
C983 C982 1.388 . S
C983 C984 1.386 . S
C984 C983 1.386 . S
C984 C985 1.382 . S
C984 H1006 0.950 . S
C985 N981 1.332 . S
C985 C984 1.382 . S
C985 H987 0.952 . S
C986 N981 1.332 . S
C986 C982 1.382 . S
C986 H988 0.948 . S
H987 C985 0.952 . S
H988 C986 0.948 . S
H989 C978 0.952 . S
H990 C980 0.948 . S
C991 C957 1.395 . S
C991 C961 1.391 . S
C992 C954 1.389 . S
C992 C974 1.392 . S
C993 C964 1.392 . S
C993 C966 1.389 . S
C994 C969 1.395 . S
C994 C971 1.391 . S
H995 C955 0.951 . S
H996 C956 0.950 . S
H997 C962 0.949 . S
H998 C963 0.950 . S
H999 C967 0.951 . S
H1000 C968 0.950 . S
H1001 C972 0.949 . S
H1002 C973 0.950 . S
H1003 C977 0.950 . S
H1004 C979 0.950 . S
H1005 C982 0.950 . S
H1006 C984 0.950 . S
C1007 C1008 1.443 . S
C1007 N1011 1.376 . S
C1007 C1045 1.389 . S
C1008 C1007 1.443 . S
C1008 C1009 1.340 . S
C1008 H1048 0.951 . S
C1009 C1008 1.340 . S
C1009 C1010 1.439 . S
C1009 H1049 0.950 . S
C1010 C1009 1.439 . S
C1010 N1011 1.374 . S
C1010 C1044 1.395 . S
N1011 C1007 1.376 . S
N1011 C1010 1.374 . S
N1011 Co1012 2.008 . S
Co1012 N1011 2.008 . S
Co1012 N1013 1.995 . S
Co1012 N1018 2.008 . S
Co1012 N1023 1.995 . S
Co1012 N1028 2.282 . S
Co1012 N1034 2.282 . S
N1013 Co1012 1.995 . S
N1013 C1014 1.376 . S
N1013 C1017 1.383 . S
C1014 N1013 1.376 . S
C1014 C1015 1.446 . S
C1014 C1044 1.391 . S
C1015 C1014 1.446 . S
C1015 C1016 1.339 . S
C1015 H1050 0.949 . S
C1016 C1015 1.339 . S
C1016 C1017 1.439 . S
C1016 H1051 0.950 . S
C1017 N1013 1.383 . S
C1017 C1016 1.439 . S
C1017 C1046 1.392 . S
N1018 Co1012 2.008 . S
N1018 C1019 1.376 . S
N1018 C1022 1.374 . S
C1019 N1018 1.376 . S
C1019 C1020 1.443 . S
C1019 C1046 1.389 . S
C1020 C1019 1.443 . S
C1020 C1021 1.340 . S
C1020 H1052 0.951 . S
C1021 C1020 1.340 . S
C1021 C1022 1.439 . S
C1021 H1053 0.950 . S
C1022 N1018 1.374 . S
C1022 C1021 1.439 . S
C1022 C1047 1.395 . S
N1023 Co1012 1.995 . S
N1023 C1024 1.376 . S
N1023 C1027 1.383 . S
C1024 N1023 1.376 . S
C1024 C1025 1.446 . S
C1024 C1047 1.391 . S
C1025 C1024 1.446 . S
C1025 C1026 1.339 . S
C1025 H1054 0.949 . S
C1026 C1025 1.339 . S
C1026 C1027 1.439 . S
C1026 H1055 0.950 . S
C1027 N1023 1.383 . S
C1027 C1026 1.439 . S
C1027 C1045 1.392 . S
N1028 Co1012 2.282 . S
N1028 C1031 1.332 . S
N1028 C1033 1.332 . S
C1029 C1030 1.386 . S
C1029 C1032 1.388 . S
C1030 C1029 1.386 . S
C1030 C1031 1.382 . S
C1030 H1056 0.950 . S
C1031 N1028 1.332 . S
C1031 C1030 1.382 . S
C1031 H1042 0.952 . S
C1032 C1029 1.388 . S
C1032 C1033 1.382 . S
C1032 H1057 0.950 . S
C1033 N1028 1.332 . S
C1033 C1032 1.382 . S
C1033 H1043 0.948 . S
N1034 Co1012 2.282 . S
N1034 C1038 1.332 . S
N1034 C1039 1.332 . S
C1035 C1036 1.388 . S
C1035 C1039 1.382 . S
C1035 H1058 0.950 . S
C1036 C1035 1.388 . S
C1036 C1037 1.386 . S
C1037 C1036 1.386 . S
C1037 C1038 1.382 . S
C1037 H1059 0.950 . S
C1038 N1034 1.332 . S
C1038 C1037 1.382 . S
C1038 H1040 0.952 . S
C1039 N1034 1.332 . S
C1039 C1035 1.382 . S
C1039 H1041 0.948 . S
H1040 C1038 0.952 . S
H1041 C1039 0.948 . S
H1042 C1031 0.952 . S
H1043 C1033 0.948 . S
C1044 C1010 1.395 . S
C1044 C1014 1.391 . S
C1045 C1007 1.389 . S
C1045 C1027 1.392 . S
C1046 C1017 1.392 . S
C1046 C1019 1.389 . S
C1047 C1022 1.395 . S
C1047 C1024 1.391 . S
H1048 C1008 0.951 . S
H1049 C1009 0.950 . S
H1050 C1015 0.949 . S
H1051 C1016 0.950 . S
H1052 C1020 0.951 . S
H1053 C1021 0.950 . S
H1054 C1025 0.949 . S
H1055 C1026 0.950 . S
H1056 C1030 0.950 . S
H1057 C1032 0.950 . S
H1058 C1035 0.950 . S
H1059 C1037 0.950 . S
C1060 C1061 1.443 . S
C1060 N1064 1.376 . S
C1060 C1098 1.389 . S
C1061 C1060 1.443 . S
C1061 C1062 1.340 . S
C1061 H1101 0.951 . S
C1062 C1061 1.340 . S
C1062 C1063 1.439 . S
C1062 H1102 0.950 . S
C1063 C1062 1.439 . S
C1063 N1064 1.374 . S
C1063 C1097 1.395 . S
N1064 C1060 1.376 . S
N1064 C1063 1.374 . S
N1064 Co1065 2.008 . S
Co1065 N1064 2.008 . S
Co1065 N1066 1.995 . S
Co1065 N1071 2.008 . S
Co1065 N1076 1.995 . S
Co1065 N1081 2.282 . S
Co1065 N1087 2.282 . S
N1066 Co1065 1.995 . S
N1066 C1067 1.376 . S
N1066 C1070 1.383 . S
C1067 N1066 1.376 . S
C1067 C1068 1.446 . S
C1067 C1097 1.391 . S
C1068 C1067 1.446 . S
C1068 C1069 1.339 . S
C1068 H1103 0.949 . S
C1069 C1068 1.339 . S
C1069 C1070 1.439 . S
C1069 H1104 0.950 . S
C1070 N1066 1.383 . S
C1070 C1069 1.439 . S
C1070 C1099 1.392 . S
N1071 Co1065 2.008 . S
N1071 C1072 1.376 . S
N1071 C1075 1.374 . S
C1072 N1071 1.376 . S
C1072 C1073 1.443 . S
C1072 C1099 1.389 . S
C1073 C1072 1.443 . S
C1073 C1074 1.340 . S
C1073 H1105 0.951 . S
C1074 C1073 1.340 . S
C1074 C1075 1.439 . S
C1074 H1106 0.950 . S
C1075 N1071 1.374 . S
C1075 C1074 1.439 . S
C1075 C1100 1.395 . S
N1076 Co1065 1.995 . S
N1076 C1077 1.376 . S
N1076 C1080 1.383 . S
C1077 N1076 1.376 . S
C1077 C1078 1.446 . S
C1077 C1100 1.391 . S
C1078 C1077 1.446 . S
C1078 C1079 1.339 . S
C1078 H1107 0.949 . S
C1079 C1078 1.339 . S
C1079 C1080 1.439 . S
C1079 H1108 0.950 . S
C1080 N1076 1.383 . S
C1080 C1079 1.439 . S
C1080 C1098 1.392 . S
N1081 Co1065 2.282 . S
N1081 C1084 1.332 . S
N1081 C1086 1.332 . S
C1082 C1083 1.386 . S
C1082 C1085 1.388 . S
C1083 C1082 1.386 . S
C1083 C1084 1.382 . S
C1083 H1109 0.950 . S
C1084 N1081 1.332 . S
C1084 C1083 1.382 . S
C1084 H1095 0.952 . S
C1085 C1082 1.388 . S
C1085 C1086 1.382 . S
C1085 H1110 0.950 . S
C1086 N1081 1.332 . S
C1086 C1085 1.382 . S
C1086 H1096 0.948 . S
N1087 Co1065 2.282 . S
N1087 C1091 1.332 . S
N1087 C1092 1.332 . S
C1088 C1089 1.388 . S
C1088 C1092 1.382 . S
C1088 H1111 0.950 . S
C1089 C1088 1.388 . S
C1089 C1090 1.386 . S
C1090 C1089 1.386 . S
C1090 C1091 1.382 . S
C1090 H1112 0.950 . S
C1091 N1087 1.332 . S
C1091 C1090 1.382 . S
C1091 H1093 0.952 . S
C1092 N1087 1.332 . S
C1092 C1088 1.382 . S
C1092 H1094 0.948 . S
H1093 C1091 0.952 . S
H1094 C1092 0.948 . S
H1095 C1084 0.952 . S
H1096 C1086 0.948 . S
C1097 C1063 1.395 . S
C1097 C1067 1.391 . S
C1098 C1060 1.389 . S
C1098 C1080 1.392 . S
C1099 C1070 1.392 . S
C1099 C1072 1.389 . S
C1100 C1075 1.395 . S
C1100 C1077 1.391 . S
H1101 C1061 0.951 . S
H1102 C1062 0.950 . S
H1103 C1068 0.949 . S
H1104 C1069 0.950 . S
H1105 C1073 0.951 . S
H1106 C1074 0.950 . S
H1107 C1078 0.949 . S
H1108 C1079 0.950 . S
H1109 C1083 0.950 . S
H1110 C1085 0.950 . S
H1111 C1088 0.950 . S
H1112 C1090 0.950 . S
C1113 C1114 1.443 . S
C1113 N1117 1.376 . S
C1113 C1151 1.389 . S
C1114 C1113 1.443 . S
C1114 C1115 1.340 . S
C1114 H1154 0.951 . S
C1115 C1114 1.340 . S
C1115 C1116 1.439 . S
C1115 H1155 0.950 . S
C1116 C1115 1.439 . S
C1116 N1117 1.374 . S
C1116 C1150 1.395 . S
N1117 C1113 1.376 . S
N1117 C1116 1.374 . S
N1117 Co1118 2.008 . S
Co1118 N1117 2.008 . S
Co1118 N1119 1.995 . S
Co1118 N1124 2.008 . S
Co1118 N1129 1.995 . S
Co1118 N1134 2.282 . S
Co1118 N1140 2.282 . S
N1119 Co1118 1.995 . S
N1119 C1120 1.376 . S
N1119 C1123 1.383 . S
C1120 N1119 1.376 . S
C1120 C1121 1.446 . S
C1120 C1150 1.391 . S
C1121 C1120 1.446 . S
C1121 C1122 1.339 . S
C1121 H1156 0.949 . S
C1122 C1121 1.339 . S
C1122 C1123 1.439 . S
C1122 H1157 0.950 . S
C1123 N1119 1.383 . S
C1123 C1122 1.439 . S
C1123 C1152 1.392 . S
N1124 Co1118 2.008 . S
N1124 C1125 1.376 . S
N1124 C1128 1.374 . S
C1125 N1124 1.376 . S
C1125 C1126 1.443 . S
C1125 C1152 1.389 . S
C1126 C1125 1.443 . S
C1126 C1127 1.340 . S
C1126 H1158 0.951 . S
C1127 C1126 1.340 . S
C1127 C1128 1.439 . S
C1127 H1159 0.950 . S
C1128 N1124 1.374 . S
C1128 C1127 1.439 . S
C1128 C1153 1.395 . S
N1129 Co1118 1.995 . S
N1129 C1130 1.376 . S
N1129 C1133 1.383 . S
C1130 N1129 1.376 . S
C1130 C1131 1.446 . S
C1130 C1153 1.391 . S
C1131 C1130 1.446 . S
C1131 C1132 1.339 . S
C1131 H1160 0.949 . S
C1132 C1131 1.339 . S
C1132 C1133 1.439 . S
C1132 H1161 0.950 . S
C1133 N1129 1.383 . S
C1133 C1132 1.439 . S
C1133 C1151 1.392 . S
N1134 Co1118 2.282 . S
N1134 C1137 1.332 . S
N1134 C1139 1.332 . S
C1135 C1136 1.386 . S
C1135 C1138 1.388 . S
C1136 C1135 1.386 . S
C1136 C1137 1.382 . S
C1136 H1162 0.950 . S
C1137 N1134 1.332 . S
C1137 C1136 1.382 . S
C1137 H1148 0.952 . S
C1138 C1135 1.388 . S
C1138 C1139 1.382 . S
C1138 H1163 0.950 . S
C1139 N1134 1.332 . S
C1139 C1138 1.382 . S
C1139 H1149 0.948 . S
N1140 Co1118 2.282 . S
N1140 C1144 1.332 . S
N1140 C1145 1.332 . S
C1141 C1142 1.388 . S
C1141 C1145 1.382 . S
C1141 H1164 0.950 . S
C1142 C1141 1.388 . S
C1142 C1143 1.386 . S
C1143 C1142 1.386 . S
C1143 C1144 1.382 . S
C1143 H1165 0.950 . S
C1144 N1140 1.332 . S
C1144 C1143 1.382 . S
C1144 H1146 0.952 . S
C1145 N1140 1.332 . S
C1145 C1141 1.382 . S
C1145 H1147 0.948 . S
H1146 C1144 0.952 . S
H1147 C1145 0.948 . S
H1148 C1137 0.952 . S
H1149 C1139 0.948 . S
C1150 C1116 1.395 . S
C1150 C1120 1.391 . S
C1151 C1113 1.389 . S
C1151 C1133 1.392 . S
C1152 C1123 1.392 . S
C1152 C1125 1.389 . S
C1153 C1128 1.395 . S
C1153 C1130 1.391 . S
H1154 C1114 0.951 . S
H1155 C1115 0.950 . S
H1156 C1121 0.949 . S
H1157 C1122 0.950 . S
H1158 C1126 0.951 . S
H1159 C1127 0.950 . S
H1160 C1131 0.949 . S
H1161 C1132 0.950 . S
H1162 C1136 0.950 . S
H1163 C1138 0.950 . S
H1164 C1141 0.950 . S
H1165 C1143 0.950 . S
C1166 C1167 1.443 . S
C1166 N1170 1.376 . S
C1166 C1204 1.389 . S
C1167 C1166 1.443 . S
C1167 C1168 1.340 . S
C1167 H1207 0.951 . S
C1168 C1167 1.340 . S
C1168 C1169 1.439 . S
C1168 H1208 0.950 . S
C1169 C1168 1.439 . S
C1169 N1170 1.374 . S
C1169 C1203 1.395 . S
N1170 C1166 1.376 . S
N1170 C1169 1.374 . S
N1170 Co1171 2.008 . S
Co1171 N1170 2.008 . S
Co1171 N1172 1.995 . S
Co1171 N1177 2.008 . S
Co1171 N1182 1.995 . S
Co1171 N1187 2.282 . S
Co1171 N1193 2.282 . S
N1172 Co1171 1.995 . S
N1172 C1173 1.376 . S
N1172 C1176 1.383 . S
C1173 N1172 1.376 . S
C1173 C1174 1.446 . S
C1173 C1203 1.391 . S
C1174 C1173 1.446 . S
C1174 C1175 1.339 . S
C1174 H1209 0.949 . S
C1175 C1174 1.339 . S
C1175 C1176 1.439 . S
C1175 H1210 0.950 . S
C1176 N1172 1.383 . S
C1176 C1175 1.439 . S
C1176 C1205 1.392 . S
N1177 Co1171 2.008 . S
N1177 C1178 1.376 . S
N1177 C1181 1.374 . S
C1178 N1177 1.376 . S
C1178 C1179 1.443 . S
C1178 C1205 1.389 . S
C1179 C1178 1.443 . S
C1179 C1180 1.340 . S
C1179 H1211 0.951 . S
C1180 C1179 1.340 . S
C1180 C1181 1.439 . S
C1180 H1212 0.950 . S
C1181 N1177 1.374 . S
C1181 C1180 1.439 . S
C1181 C1206 1.395 . S
N1182 Co1171 1.995 . S
N1182 C1183 1.376 . S
N1182 C1186 1.383 . S
C1183 N1182 1.376 . S
C1183 C1184 1.446 . S
C1183 C1206 1.391 . S
C1184 C1183 1.446 . S
C1184 C1185 1.339 . S
C1184 H1213 0.949 . S
C1185 C1184 1.339 . S
C1185 C1186 1.439 . S
C1185 H1214 0.950 . S
C1186 N1182 1.383 . S
C1186 C1185 1.439 . S
C1186 C1204 1.392 . S
N1187 Co1171 2.282 . S
N1187 C1190 1.332 . S
N1187 C1192 1.332 . S
C1188 C1189 1.386 . S
C1188 C1191 1.388 . S
C1189 C1188 1.386 . S
C1189 C1190 1.382 . S
C1189 H1215 0.950 . S
C1190 N1187 1.332 . S
C1190 C1189 1.382 . S
C1190 H1201 0.952 . S
C1191 C1188 1.388 . S
C1191 C1192 1.382 . S
C1191 H1216 0.950 . S
C1192 N1187 1.332 . S
C1192 C1191 1.382 . S
C1192 H1202 0.948 . S
N1193 Co1171 2.282 . S
N1193 C1197 1.332 . S
N1193 C1198 1.332 . S
C1194 C1195 1.388 . S
C1194 C1198 1.382 . S
C1194 H1217 0.950 . S
C1195 C1194 1.388 . S
C1195 C1196 1.386 . S
C1196 C1195 1.386 . S
C1196 C1197 1.382 . S
C1196 H1218 0.950 . S
C1197 N1193 1.332 . S
C1197 C1196 1.382 . S
C1197 H1199 0.952 . S
C1198 N1193 1.332 . S
C1198 C1194 1.382 . S
C1198 H1200 0.948 . S
H1199 C1197 0.952 . S
H1200 C1198 0.948 . S
H1201 C1190 0.952 . S
H1202 C1192 0.948 . S
C1203 C1169 1.395 . S
C1203 C1173 1.391 . S
C1204 C1166 1.389 . S
C1204 C1186 1.392 . S
C1205 C1176 1.392 . S
C1205 C1178 1.389 . S
C1206 C1181 1.395 . S
C1206 C1183 1.391 . S
H1207 C1167 0.951 . S
H1208 C1168 0.950 . S
H1209 C1174 0.949 . S
H1210 C1175 0.950 . S
H1211 C1179 0.951 . S
H1212 C1180 0.950 . S
H1213 C1184 0.949 . S
H1214 C1185 0.950 . S
H1215 C1189 0.950 . S
H1216 C1191 0.950 . S
H1217 C1194 0.950 . S
H1218 C1196 0.950 . S
C1219 C1220 1.443 . S
C1219 N1223 1.376 . S
C1219 C1257 1.389 . S
C1220 C1219 1.443 . S
C1220 C1221 1.340 . S
C1220 H1260 0.951 . S
C1221 C1220 1.340 . S
C1221 C1222 1.439 . S
C1221 H1261 0.950 . S
C1222 C1221 1.439 . S
C1222 N1223 1.374 . S
C1222 C1256 1.395 . S
N1223 C1219 1.376 . S
N1223 C1222 1.374 . S
N1223 Co1224 2.008 . S
Co1224 N1223 2.008 . S
Co1224 N1225 1.995 . S
Co1224 N1230 2.008 . S
Co1224 N1235 1.995 . S
Co1224 N1240 2.282 . S
Co1224 N1246 2.282 . S
N1225 Co1224 1.995 . S
N1225 C1226 1.376 . S
N1225 C1229 1.383 . S
C1226 N1225 1.376 . S
C1226 C1227 1.446 . S
C1226 C1256 1.391 . S
C1227 C1226 1.446 . S
C1227 C1228 1.339 . S
C1227 H1262 0.949 . S
C1228 C1227 1.339 . S
C1228 C1229 1.439 . S
C1228 H1263 0.950 . S
C1229 N1225 1.383 . S
C1229 C1228 1.439 . S
C1229 C1258 1.392 . S
N1230 Co1224 2.008 . S
N1230 C1231 1.376 . S
N1230 C1234 1.374 . S
C1231 N1230 1.376 . S
C1231 C1232 1.443 . S
C1231 C1258 1.389 . S
C1232 C1231 1.443 . S
C1232 C1233 1.340 . S
C1232 H1264 0.951 . S
C1233 C1232 1.340 . S
C1233 C1234 1.439 . S
C1233 H1265 0.950 . S
C1234 N1230 1.374 . S
C1234 C1233 1.439 . S
C1234 C1259 1.395 . S
N1235 Co1224 1.995 . S
N1235 C1236 1.376 . S
N1235 C1239 1.383 . S
C1236 N1235 1.376 . S
C1236 C1237 1.446 . S
C1236 C1259 1.391 . S
C1237 C1236 1.446 . S
C1237 C1238 1.339 . S
C1237 H1266 0.949 . S
C1238 C1237 1.339 . S
C1238 C1239 1.439 . S
C1238 H1267 0.950 . S
C1239 N1235 1.383 . S
C1239 C1238 1.439 . S
C1239 C1257 1.392 . S
N1240 Co1224 2.282 . S
N1240 C1243 1.332 . S
N1240 C1245 1.332 . S
C1241 C1242 1.386 . S
C1241 C1244 1.388 . S
C1242 C1241 1.386 . S
C1242 C1243 1.382 . S
C1242 H1268 0.950 . S
C1243 N1240 1.332 . S
C1243 C1242 1.382 . S
C1243 H1254 0.952 . S
C1244 C1241 1.388 . S
C1244 C1245 1.382 . S
C1244 H1269 0.950 . S
C1245 N1240 1.332 . S
C1245 C1244 1.382 . S
C1245 H1255 0.948 . S
N1246 Co1224 2.282 . S
N1246 C1250 1.332 . S
N1246 C1251 1.332 . S
C1247 C1248 1.388 . S
C1247 C1251 1.382 . S
C1247 H1270 0.950 . S
C1248 C1247 1.388 . S
C1248 C1249 1.386 . S
C1249 C1248 1.386 . S
C1249 C1250 1.382 . S
C1249 H1271 0.950 . S
C1250 N1246 1.332 . S
C1250 C1249 1.382 . S
C1250 H1252 0.952 . S
C1251 N1246 1.332 . S
C1251 C1247 1.382 . S
C1251 H1253 0.948 . S
H1252 C1250 0.952 . S
H1253 C1251 0.948 . S
H1254 C1243 0.952 . S
H1255 C1245 0.948 . S
C1256 C1222 1.395 . S
C1256 C1226 1.391 . S
C1257 C1219 1.389 . S
C1257 C1239 1.392 . S
C1258 C1229 1.392 . S
C1258 C1231 1.389 . S
C1259 C1234 1.395 . S
C1259 C1236 1.391 . S
H1260 C1220 0.951 . S
H1261 C1221 0.950 . S
H1262 C1227 0.949 . S
H1263 C1228 0.950 . S
H1264 C1232 0.951 . S
H1265 C1233 0.950 . S
H1266 C1237 0.949 . S
H1267 C1238 0.950 . S
H1268 C1242 0.950 . S
H1269 C1244 0.950 . S
H1270 C1247 0.950 . S
H1271 C1249 0.950 . S
C1272 C1273 1.443 . S
C1272 N1276 1.376 . S
C1272 C1310 1.389 . S
C1273 C1272 1.443 . S
C1273 C1274 1.340 . S
C1273 H1313 0.951 . S
C1274 C1273 1.340 . S
C1274 C1275 1.439 . S
C1274 H1314 0.950 . S
C1275 C1274 1.439 . S
C1275 N1276 1.374 . S
C1275 C1309 1.395 . S
N1276 C1272 1.376 . S
N1276 C1275 1.374 . S
N1276 Co1277 2.008 . S
Co1277 N1276 2.008 . S
Co1277 N1278 1.995 . S
Co1277 N1283 2.008 . S
Co1277 N1288 1.995 . S
Co1277 N1293 2.282 . S
Co1277 N1299 2.282 . S
N1278 Co1277 1.995 . S
N1278 C1279 1.376 . S
N1278 C1282 1.383 . S
C1279 N1278 1.376 . S
C1279 C1280 1.446 . S
C1279 C1309 1.391 . S
C1280 C1279 1.446 . S
C1280 C1281 1.339 . S
C1280 H1315 0.949 . S
C1281 C1280 1.339 . S
C1281 C1282 1.439 . S
C1281 H1316 0.950 . S
C1282 N1278 1.383 . S
C1282 C1281 1.439 . S
C1282 C1311 1.392 . S
N1283 Co1277 2.008 . S
N1283 C1284 1.376 . S
N1283 C1287 1.374 . S
C1284 N1283 1.376 . S
C1284 C1285 1.443 . S
C1284 C1311 1.389 . S
C1285 C1284 1.443 . S
C1285 C1286 1.340 . S
C1285 H1317 0.951 . S
C1286 C1285 1.340 . S
C1286 C1287 1.439 . S
C1286 H1318 0.950 . S
C1287 N1283 1.374 . S
C1287 C1286 1.439 . S
C1287 C1312 1.395 . S
N1288 Co1277 1.995 . S
N1288 C1289 1.376 . S
N1288 C1292 1.383 . S
C1289 N1288 1.376 . S
C1289 C1290 1.446 . S
C1289 C1312 1.391 . S
C1290 C1289 1.446 . S
C1290 C1291 1.339 . S
C1290 H1319 0.949 . S
C1291 C1290 1.339 . S
C1291 C1292 1.439 . S
C1291 H1320 0.950 . S
C1292 N1288 1.383 . S
C1292 C1291 1.439 . S
C1292 C1310 1.392 . S
N1293 Co1277 2.282 . S
N1293 C1296 1.332 . S
N1293 C1298 1.332 . S
C1294 C1295 1.386 . S
C1294 C1297 1.388 . S
C1295 C1294 1.386 . S
C1295 C1296 1.382 . S
C1295 H1321 0.950 . S
C1296 N1293 1.332 . S
C1296 C1295 1.382 . S
C1296 H1307 0.952 . S
C1297 C1294 1.388 . S
C1297 C1298 1.382 . S
C1297 H1322 0.950 . S
C1298 N1293 1.332 . S
C1298 C1297 1.382 . S
C1298 H1308 0.948 . S
N1299 Co1277 2.282 . S
N1299 C1303 1.332 . S
N1299 C1304 1.332 . S
C1300 C1301 1.388 . S
C1300 C1304 1.382 . S
C1300 H1323 0.950 . S
C1301 C1300 1.388 . S
C1301 C1302 1.386 . S
C1302 C1301 1.386 . S
C1302 C1303 1.382 . S
C1302 H1324 0.950 . S
C1303 N1299 1.332 . S
C1303 C1302 1.382 . S
C1303 H1305 0.952 . S
C1304 N1299 1.332 . S
C1304 C1300 1.382 . S
C1304 H1306 0.948 . S
H1305 C1303 0.952 . S
H1306 C1304 0.948 . S
H1307 C1296 0.952 . S
H1308 C1298 0.948 . S
C1309 C1275 1.395 . S
C1309 C1279 1.391 . S
C1310 C1272 1.389 . S
C1310 C1292 1.392 . S
C1311 C1282 1.392 . S
C1311 C1284 1.389 . S
C1312 C1287 1.395 . S
C1312 C1289 1.391 . S
H1313 C1273 0.951 . S
H1314 C1274 0.950 . S
H1315 C1280 0.949 . S
H1316 C1281 0.950 . S
H1317 C1285 0.951 . S
H1318 C1286 0.950 . S
H1319 C1290 0.949 . S
H1320 C1291 0.950 . S
H1321 C1295 0.950 . S
H1322 C1297 0.950 . S
H1323 C1300 0.950 . S
H1324 C1302 0.950 . S
C1325 C1326 1.443 . S
C1325 N1329 1.376 . S
C1325 C1363 1.389 . S
C1326 C1325 1.443 . S
C1326 C1327 1.340 . S
C1326 H1366 0.951 . S
C1327 C1326 1.340 . S
C1327 C1328 1.439 . S
C1327 H1367 0.950 . S
C1328 C1327 1.439 . S
C1328 N1329 1.374 . S
C1328 C1362 1.395 . S
N1329 C1325 1.376 . S
N1329 C1328 1.374 . S
N1329 Co1330 2.008 . S
Co1330 N1329 2.008 . S
Co1330 N1331 1.995 . S
Co1330 N1336 2.008 . S
Co1330 N1341 1.995 . S
Co1330 N1346 2.282 . S
Co1330 N1352 2.282 . S
N1331 Co1330 1.995 . S
N1331 C1332 1.376 . S
N1331 C1335 1.383 . S
C1332 N1331 1.376 . S
C1332 C1333 1.446 . S
C1332 C1362 1.391 . S
C1333 C1332 1.446 . S
C1333 C1334 1.339 . S
C1333 H1368 0.949 . S
C1334 C1333 1.339 . S
C1334 C1335 1.439 . S
C1334 H1369 0.950 . S
C1335 N1331 1.383 . S
C1335 C1334 1.439 . S
C1335 C1364 1.392 . S
N1336 Co1330 2.008 . S
N1336 C1337 1.376 . S
N1336 C1340 1.374 . S
C1337 N1336 1.376 . S
C1337 C1338 1.443 . S
C1337 C1364 1.389 . S
C1338 C1337 1.443 . S
C1338 C1339 1.340 . S
C1338 H1370 0.951 . S
C1339 C1338 1.340 . S
C1339 C1340 1.439 . S
C1339 H1371 0.950 . S
C1340 N1336 1.374 . S
C1340 C1339 1.439 . S
C1340 C1365 1.395 . S
N1341 Co1330 1.995 . S
N1341 C1342 1.376 . S
N1341 C1345 1.383 . S
C1342 N1341 1.376 . S
C1342 C1343 1.446 . S
C1342 C1365 1.391 . S
C1343 C1342 1.446 . S
C1343 C1344 1.339 . S
C1343 H1372 0.949 . S
C1344 C1343 1.339 . S
C1344 C1345 1.439 . S
C1344 H1373 0.950 . S
C1345 N1341 1.383 . S
C1345 C1344 1.439 . S
C1345 C1363 1.392 . S
N1346 Co1330 2.282 . S
N1346 C1349 1.332 . S
N1346 C1351 1.332 . S
C1347 C1348 1.386 . S
C1347 C1350 1.388 . S
C1348 C1347 1.386 . S
C1348 C1349 1.382 . S
C1348 H1374 0.950 . S
C1349 N1346 1.332 . S
C1349 C1348 1.382 . S
C1349 H1360 0.952 . S
C1350 C1347 1.388 . S
C1350 C1351 1.382 . S
C1350 H1375 0.950 . S
C1351 N1346 1.332 . S
C1351 C1350 1.382 . S
C1351 H1361 0.948 . S
N1352 Co1330 2.282 . S
N1352 C1356 1.332 . S
N1352 C1357 1.332 . S
C1353 C1354 1.388 . S
C1353 C1357 1.382 . S
C1353 H1376 0.950 . S
C1354 C1353 1.388 . S
C1354 C1355 1.386 . S
C1355 C1354 1.386 . S
C1355 C1356 1.382 . S
C1355 H1377 0.950 . S
C1356 N1352 1.332 . S
C1356 C1355 1.382 . S
C1356 H1358 0.952 . S
C1357 N1352 1.332 . S
C1357 C1353 1.382 . S
C1357 H1359 0.948 . S
H1358 C1356 0.952 . S
H1359 C1357 0.948 . S
H1360 C1349 0.952 . S
H1361 C1351 0.948 . S
C1362 C1328 1.395 . S
C1362 C1332 1.391 . S
C1363 C1325 1.389 . S
C1363 C1345 1.392 . S
C1364 C1335 1.392 . S
C1364 C1337 1.389 . S
C1365 C1340 1.395 . S
C1365 C1342 1.391 . S
H1366 C1326 0.951 . S
H1367 C1327 0.950 . S
H1368 C1333 0.949 . S
H1369 C1334 0.950 . S
H1370 C1338 0.951 . S
H1371 C1339 0.950 . S
H1372 C1343 0.949 . S
H1373 C1344 0.950 . S
H1374 C1348 0.950 . S
H1375 C1350 0.950 . S
H1376 C1353 0.950 . S
H1377 C1355 0.950 . S
C1378 C1379 1.443 . S
C1378 N1382 1.376 . S
C1378 C1416 1.389 . S
C1379 C1378 1.443 . S
C1379 C1380 1.340 . S
C1379 H1419 0.951 . S
C1380 C1379 1.340 . S
C1380 C1381 1.439 . S
C1380 H1420 0.950 . S
C1381 C1380 1.439 . S
C1381 N1382 1.374 . S
C1381 C1415 1.395 1_556 S
N1382 C1378 1.376 . S
N1382 C1381 1.374 . S
N1382 Co1383 2.008 . S
Co1383 N1382 2.008 . S
Co1383 N1384 1.995 1_556 S
Co1383 N1389 2.008 1_556 S
Co1383 N1394 1.995 . S
Co1383 N1399 2.282 . S
Co1383 N1405 2.282 . S
N1384 Co1383 1.995 1_554 S
N1384 C1385 1.376 . S
N1384 C1388 1.383 . S
C1385 N1384 1.376 . S
C1385 C1386 1.446 . S
C1385 C1415 1.391 . S
C1386 C1385 1.446 . S
C1386 C1387 1.339 . S
C1386 H1421 0.949 . S
C1387 C1386 1.339 . S
C1387 C1388 1.439 . S
C1387 H1422 0.950 . S
C1388 N1384 1.383 . S
C1388 C1387 1.439 . S
C1388 C1417 1.392 . S
N1389 Co1383 2.008 1_554 S
N1389 C1390 1.376 . S
N1389 C1393 1.374 . S
C1390 N1389 1.376 . S
C1390 C1391 1.443 . S
C1390 C1417 1.389 . S
C1391 C1390 1.443 . S
C1391 C1392 1.340 . S
C1391 H1423 0.951 . S
C1392 C1391 1.340 . S
C1392 C1393 1.439 . S
C1392 H1424 0.950 . S
C1393 N1389 1.374 . S
C1393 C1392 1.439 . S
C1393 C1418 1.395 1_554 S
N1394 Co1383 1.995 . S
N1394 C1395 1.376 . S
N1394 C1398 1.383 . S
C1395 N1394 1.376 . S
C1395 C1396 1.446 . S
C1395 C1418 1.391 . S
C1396 C1395 1.446 . S
C1396 C1397 1.339 . S
C1396 H1425 0.949 . S
C1397 C1396 1.339 . S
C1397 C1398 1.439 . S
C1397 H1426 0.950 . S
C1398 N1394 1.383 . S
C1398 C1397 1.439 . S
C1398 C1416 1.392 . S
N1399 Co1383 2.282 . S
N1399 C1402 1.332 . S
N1399 C1404 1.355 . S
C1400 C1401 1.386 . S
C1400 C1403 1.388 1_556 S
C1401 C1400 1.386 . S
C1401 C1402 1.382 . S
C1401 H1427 0.950 . S
C1402 N1399 1.332 . S
C1402 C1401 1.382 . S
C1402 H1413 0.952 . S
C1403 C1400 1.388 1_554 S
C1403 C1404 1.377 1_554 S
C1403 H1428 0.950 . S
C1404 N1399 1.355 . S
C1404 C1403 1.377 1_556 S
C1404 H1414 0.933 1_556 S
N1405 Co1383 2.282 . S
N1405 C1409 1.332 1_556 S
N1405 C1410 1.332 . S
C1406 C1407 1.388 . S
C1406 C1410 1.382 . S
C1406 H1429 0.950 . S
C1407 C1406 1.388 . S
C1407 C1408 1.382 1_556 S
C1408 C1407 1.382 1_554 S
C1408 C1409 1.382 . S
C1408 H1430 0.953 . S
C1409 N1405 1.332 1_554 S
C1409 C1408 1.382 . S
C1409 H1411 0.952 . S
C1410 N1405 1.332 . S
C1410 C1406 1.382 . S
C1410 H1412 0.948 . S
H1411 C1409 0.952 . S
H1412 C1410 0.948 . S
H1413 C1402 0.952 . S
H1414 C1404 0.933 1_554 S
C1415 C1381 1.395 1_554 S
C1415 C1385 1.391 . S
C1416 C1378 1.389 . S
C1416 C1398 1.392 . S
C1417 C1388 1.392 . S
C1417 C1390 1.389 . S
C1418 C1393 1.395 1_556 S
C1418 C1395 1.391 . S
H1419 C1379 0.951 . S
H1420 C1380 0.950 . S
H1421 C1386 0.949 . S
H1422 C1387 0.950 . S
H1423 C1391 0.951 . S
H1424 C1392 0.950 . S
H1425 C1396 0.949 . S
H1426 C1397 0.950 . S
H1427 C1401 0.950 . S
H1428 C1403 0.950 . S
H1429 C1406 0.950 . S
H1430 C1408 0.953 . S
C1431 C1432 1.443 . S
C1431 N1435 1.376 . S
C1431 C1469 1.389 . S
C1432 C1431 1.443 . S
C1432 C1433 1.340 . S
C1432 H1472 0.951 . S
C1433 C1432 1.340 . S
C1433 C1434 1.439 . S
C1433 H1473 0.950 . S
C1434 C1433 1.439 . S
C1434 N1435 1.374 . S
C1434 C1468 1.395 1_556 S
N1435 C1431 1.376 . S
N1435 C1434 1.374 . S
N1435 Co1436 2.008 . S
Co1436 N1435 2.008 . S
Co1436 N1437 1.995 1_556 S
Co1436 N1442 2.008 1_556 S
Co1436 N1447 1.995 . S
Co1436 N1452 2.282 . S
Co1436 N1458 2.282 . S
N1437 Co1436 1.995 1_554 S
N1437 C1438 1.376 . S
N1437 C1441 1.383 . S
C1438 N1437 1.376 . S
C1438 C1439 1.446 . S
C1438 C1468 1.391 . S
C1439 C1438 1.446 . S
C1439 C1440 1.339 . S
C1439 H1474 0.949 . S
C1440 C1439 1.339 . S
C1440 C1441 1.439 . S
C1440 H1475 0.950 . S
C1441 N1437 1.383 . S
C1441 C1440 1.439 . S
C1441 C1470 1.392 . S
N1442 Co1436 2.008 1_554 S
N1442 C1443 1.376 . S
N1442 C1446 1.374 . S
C1443 N1442 1.376 . S
C1443 C1444 1.443 . S
C1443 C1470 1.389 . S
C1444 C1443 1.443 . S
C1444 C1445 1.340 . S
C1444 H1476 0.951 . S
C1445 C1444 1.340 . S
C1445 C1446 1.439 . S
C1445 H1477 0.950 . S
C1446 N1442 1.374 . S
C1446 C1445 1.439 . S
C1446 C1471 1.395 1_554 S
N1447 Co1436 1.995 . S
N1447 C1448 1.376 . S
N1447 C1451 1.383 . S
C1448 N1447 1.376 . S
C1448 C1449 1.446 . S
C1448 C1471 1.391 . S
C1449 C1448 1.446 . S
C1449 C1450 1.339 . S
C1449 H1478 0.949 . S
C1450 C1449 1.339 . S
C1450 C1451 1.439 . S
C1450 H1479 0.950 . S
C1451 N1447 1.383 . S
C1451 C1450 1.439 . S
C1451 C1469 1.392 . S
N1452 Co1436 2.282 . S
N1452 C1455 1.332 . S
N1452 C1457 1.355 . S
C1453 C1454 1.386 . S
C1453 C1456 1.388 1_556 S
C1454 C1453 1.386 . S
C1454 C1455 1.382 . S
C1454 H1480 0.950 . S
C1455 N1452 1.332 . S
C1455 C1454 1.382 . S
C1455 H1466 0.952 . S
C1456 C1453 1.388 1_554 S
C1456 C1457 1.377 1_554 S
C1456 H1481 0.950 . S
C1457 N1452 1.355 . S
C1457 C1456 1.377 1_556 S
C1457 H1467 0.933 1_556 S
N1458 Co1436 2.282 . S
N1458 C1462 1.332 1_556 S
N1458 C1463 1.332 . S
C1459 C1460 1.388 . S
C1459 C1463 1.382 . S
C1459 H1482 0.950 . S
C1460 C1459 1.388 . S
C1460 C1461 1.382 1_556 S
C1461 C1460 1.382 1_554 S
C1461 C1462 1.382 . S
C1461 H1483 0.953 . S
C1462 N1458 1.332 1_554 S
C1462 C1461 1.382 . S
C1462 H1464 0.952 . S
C1463 N1458 1.332 . S
C1463 C1459 1.382 . S
C1463 H1465 0.948 . S
H1464 C1462 0.952 . S
H1465 C1463 0.948 . S
H1466 C1455 0.952 . S
H1467 C1457 0.933 1_554 S
C1468 C1434 1.395 1_554 S
C1468 C1438 1.391 . S
C1469 C1431 1.389 . S
C1469 C1451 1.392 . S
C1470 C1441 1.392 . S
C1470 C1443 1.389 . S
C1471 C1446 1.395 1_556 S
C1471 C1448 1.391 . S
H1472 C1432 0.951 . S
H1473 C1433 0.950 . S
H1474 C1439 0.949 . S
H1475 C1440 0.950 . S
H1476 C1444 0.951 . S
H1477 C1445 0.950 . S
H1478 C1449 0.949 . S
H1479 C1450 0.950 . S
H1480 C1454 0.950 . S
H1481 C1456 0.950 . S
H1482 C1459 0.950 . S
H1483 C1461 0.953 . S
C1484 C1485 1.443 . S
C1484 N1488 1.376 . S
C1484 C1522 1.389 . S
C1485 C1484 1.443 . S
C1485 C1486 1.340 . S
C1485 H1525 0.951 . S
C1486 C1485 1.340 . S
C1486 C1487 1.439 . S
C1486 H1526 0.950 . S
C1487 C1486 1.439 . S
C1487 N1488 1.374 . S
C1487 C1521 1.395 . S
N1488 C1484 1.376 . S
N1488 C1487 1.374 . S
N1488 Co1489 2.008 . S
Co1489 N1488 2.008 . S
Co1489 N1490 1.995 . S
Co1489 N1495 2.008 . S
Co1489 N1500 1.995 . S
Co1489 N1505 2.282 . S
Co1489 N1511 2.282 . S
N1490 Co1489 1.995 . S
N1490 C1491 1.376 . S
N1490 C1494 1.383 . S
C1491 N1490 1.376 . S
C1491 C1492 1.446 . S
C1491 C1521 1.391 . S
C1492 C1491 1.446 . S
C1492 C1493 1.339 . S
C1492 H1527 0.949 . S
C1493 C1492 1.339 . S
C1493 C1494 1.439 . S
C1493 H1528 0.950 . S
C1494 N1490 1.383 . S
C1494 C1493 1.439 . S
C1494 C1523 1.392 . S
N1495 Co1489 2.008 . S
N1495 C1496 1.376 . S
N1495 C1499 1.374 . S
C1496 N1495 1.376 . S
C1496 C1497 1.443 . S
C1496 C1523 1.389 . S
C1497 C1496 1.443 . S
C1497 C1498 1.340 . S
C1497 H1529 0.951 . S
C1498 C1497 1.340 . S
C1498 C1499 1.439 . S
C1498 H1530 0.950 . S
C1499 N1495 1.374 . S
C1499 C1498 1.439 . S
C1499 C1524 1.395 . S
N1500 Co1489 1.995 . S
N1500 C1501 1.376 . S
N1500 C1504 1.383 . S
C1501 N1500 1.376 . S
C1501 C1502 1.446 . S
C1501 C1524 1.391 . S
C1502 C1501 1.446 . S
C1502 C1503 1.339 . S
C1502 H1531 0.949 . S
C1503 C1502 1.339 . S
C1503 C1504 1.439 . S
C1503 H1532 0.950 . S
C1504 N1500 1.383 . S
C1504 C1503 1.439 . S
C1504 C1522 1.392 . S
N1505 Co1489 2.282 . S
N1505 C1508 1.332 . S
N1505 C1510 1.332 . S
C1506 C1507 1.386 . S
C1506 C1509 1.388 . S
C1507 C1506 1.386 . S
C1507 C1508 1.382 . S
C1507 H1533 0.950 . S
C1508 N1505 1.332 . S
C1508 C1507 1.382 . S
C1508 H1519 0.952 . S
C1509 C1506 1.388 . S
C1509 C1510 1.382 . S
C1509 H1534 0.950 . S
C1510 N1505 1.332 . S
C1510 C1509 1.382 . S
C1510 H1520 0.948 . S
N1511 Co1489 2.282 . S
N1511 C1515 1.332 . S
N1511 C1516 1.332 . S
C1512 C1513 1.388 . S
C1512 C1516 1.382 . S
C1512 H1535 0.950 . S
C1513 C1512 1.388 . S
C1513 C1514 1.386 . S
C1514 C1513 1.386 . S
C1514 C1515 1.382 . S
C1514 H1536 0.950 . S
C1515 N1511 1.332 . S
C1515 C1514 1.382 . S
C1515 H1517 0.952 . S
C1516 N1511 1.332 . S
C1516 C1512 1.382 . S
C1516 H1518 0.948 . S
H1517 C1515 0.952 . S
H1518 C1516 0.948 . S
H1519 C1508 0.952 . S
H1520 C1510 0.948 . S
C1521 C1487 1.395 . S
C1521 C1491 1.391 . S
C1522 C1484 1.389 . S
C1522 C1504 1.392 . S
C1523 C1494 1.392 . S
C1523 C1496 1.389 . S
C1524 C1499 1.395 . S
C1524 C1501 1.391 . S
H1525 C1485 0.951 . S
H1526 C1486 0.950 . S
H1527 C1492 0.949 . S
H1528 C1493 0.950 . S
H1529 C1497 0.951 . S
H1530 C1498 0.950 . S
H1531 C1502 0.949 . S
H1532 C1503 0.950 . S
H1533 C1507 0.950 . S
H1534 C1509 0.950 . S
H1535 C1512 0.950 . S
H1536 C1514 0.950 . S
C1537 C1538 1.443 . S
C1537 N1541 1.376 . S
C1537 C1575 1.389 . S
C1538 C1537 1.443 . S
C1538 C1539 1.340 . S
C1538 H1578 0.951 . S
C1539 C1538 1.340 . S
C1539 C1540 1.439 . S
C1539 H1579 0.950 . S
C1540 C1539 1.439 . S
C1540 N1541 1.374 . S
C1540 C1574 1.395 . S
N1541 C1537 1.376 . S
N1541 C1540 1.374 . S
N1541 Co1542 2.008 . S
Co1542 N1541 2.008 . S
Co1542 N1543 1.995 . S
Co1542 N1548 2.008 . S
Co1542 N1553 1.995 . S
Co1542 N1558 2.282 . S
Co1542 N1564 2.282 . S
N1543 Co1542 1.995 . S
N1543 C1544 1.376 . S
N1543 C1547 1.383 . S
C1544 N1543 1.376 . S
C1544 C1545 1.446 . S
C1544 C1574 1.391 . S
C1545 C1544 1.446 . S
C1545 C1546 1.339 . S
C1545 H1580 0.949 . S
C1546 C1545 1.339 . S
C1546 C1547 1.439 . S
C1546 H1581 0.950 . S
C1547 N1543 1.383 . S
C1547 C1546 1.439 . S
C1547 C1576 1.392 . S
N1548 Co1542 2.008 . S
N1548 C1549 1.376 . S
N1548 C1552 1.374 . S
C1549 N1548 1.376 . S
C1549 C1550 1.443 . S
C1549 C1576 1.389 . S
C1550 C1549 1.443 . S
C1550 C1551 1.340 . S
C1550 H1582 0.951 . S
C1551 C1550 1.340 . S
C1551 C1552 1.439 . S
C1551 H1583 0.950 . S
C1552 N1548 1.374 . S
C1552 C1551 1.439 . S
C1552 C1577 1.395 . S
N1553 Co1542 1.995 . S
N1553 C1554 1.376 . S
N1553 C1557 1.383 . S
C1554 N1553 1.376 . S
C1554 C1555 1.446 . S
C1554 C1577 1.391 . S
C1555 C1554 1.446 . S
C1555 C1556 1.339 . S
C1555 H1584 0.949 . S
C1556 C1555 1.339 . S
C1556 C1557 1.439 . S
C1556 H1585 0.950 . S
C1557 N1553 1.383 . S
C1557 C1556 1.439 . S
C1557 C1575 1.392 . S
N1558 Co1542 2.282 . S
N1558 C1561 1.332 . S
N1558 C1563 1.332 . S
C1559 C1560 1.386 . S
C1559 C1562 1.388 . S
C1560 C1559 1.386 . S
C1560 C1561 1.382 . S
C1560 H1586 0.950 . S
C1561 N1558 1.332 . S
C1561 C1560 1.382 . S
C1561 H1572 0.952 . S
C1562 C1559 1.388 . S
C1562 C1563 1.382 . S
C1562 H1587 0.950 . S
C1563 N1558 1.332 . S
C1563 C1562 1.382 . S
C1563 H1573 0.948 . S
N1564 Co1542 2.282 . S
N1564 C1568 1.332 . S
N1564 C1569 1.332 . S
C1565 C1566 1.388 . S
C1565 C1569 1.382 . S
C1565 H1588 0.950 . S
C1566 C1565 1.388 . S
C1566 C1567 1.386 . S
C1567 C1566 1.386 . S
C1567 C1568 1.382 . S
C1567 H1589 0.950 . S
C1568 N1564 1.332 . S
C1568 C1567 1.382 . S
C1568 H1570 0.952 . S
C1569 N1564 1.332 . S
C1569 C1565 1.382 . S
C1569 H1571 0.948 . S
H1570 C1568 0.952 . S
H1571 C1569 0.948 . S
H1572 C1561 0.952 . S
H1573 C1563 0.948 . S
C1574 C1540 1.395 . S
C1574 C1544 1.391 . S
C1575 C1537 1.389 . S
C1575 C1557 1.392 . S
C1576 C1547 1.392 . S
C1576 C1549 1.389 . S
C1577 C1552 1.395 . S
C1577 C1554 1.391 . S
H1578 C1538 0.951 . S
H1579 C1539 0.950 . S
H1580 C1545 0.949 . S
H1581 C1546 0.950 . S
H1582 C1550 0.951 . S
H1583 C1551 0.950 . S
H1584 C1555 0.949 . S
H1585 C1556 0.950 . S
H1586 C1560 0.950 . S
H1587 C1562 0.950 . S
H1588 C1565 0.950 . S
H1589 C1567 0.950 . S
C1590 C1591 1.443 . S
C1590 N1594 1.376 . S
C1590 C1628 1.389 . S
C1591 C1590 1.443 . S
C1591 C1592 1.340 . S
C1591 H1631 0.951 . S
C1592 C1591 1.340 . S
C1592 C1593 1.439 . S
C1592 H1632 0.950 . S
C1593 C1592 1.439 . S
C1593 N1594 1.374 . S
C1593 C1627 1.395 . S
N1594 C1590 1.376 . S
N1594 C1593 1.374 . S
N1594 Co1595 2.008 . S
Co1595 N1594 2.008 . S
Co1595 N1596 1.995 1_554 S
Co1595 N1601 2.008 1_554 S
Co1595 N1606 1.995 . S
Co1595 N1611 2.282 . S
Co1595 N1617 2.282 . S
N1596 Co1595 1.995 1_556 S
N1596 C1597 1.376 . S
N1596 C1600 1.383 . S
C1597 N1596 1.376 . S
C1597 C1598 1.446 . S
C1597 C1627 1.391 1_556 S
C1598 C1597 1.446 . S
C1598 C1599 1.339 . S
C1598 H1633 0.949 . S
C1599 C1598 1.339 . S
C1599 C1600 1.439 . S
C1599 H1634 0.950 . S
C1600 N1596 1.383 . S
C1600 C1599 1.439 . S
C1600 C1629 1.392 . S
N1601 Co1595 2.008 1_556 S
N1601 C1602 1.376 . S
N1601 C1605 1.374 . S
C1602 N1601 1.376 . S
C1602 C1603 1.443 . S
C1602 C1629 1.389 . S
C1603 C1602 1.443 . S
C1603 C1604 1.340 . S
C1603 H1635 0.951 . S
C1604 C1603 1.340 . S
C1604 C1605 1.439 . S
C1604 H1636 0.950 . S
C1605 N1601 1.374 . S
C1605 C1604 1.439 . S
C1605 C1630 1.392 . S
N1606 Co1595 1.995 . S
N1606 C1607 1.376 . S
N1606 C1610 1.383 . S
C1607 N1606 1.376 . S
C1607 C1608 1.446 . S
C1607 C1630 1.395 1_554 S
C1608 C1607 1.446 . S
C1608 C1609 1.339 . S
C1608 H1637 0.949 . S
C1609 C1608 1.339 . S
C1609 C1610 1.439 . S
C1609 H1638 0.950 . S
C1610 N1606 1.383 . S
C1610 C1609 1.439 . S
C1610 C1628 1.392 . S
N1611 Co1595 2.282 . S
N1611 C1614 1.332 . S
N1611 C1616 1.332 . S
C1612 C1613 1.386 . S
C1612 C1615 1.388 . S
C1613 C1612 1.386 . S
C1613 C1614 1.382 . S
C1613 H1639 0.950 . S
C1614 N1611 1.332 . S
C1614 C1613 1.382 . S
C1614 H1625 0.952 . S
C1615 C1612 1.388 . S
C1615 C1616 1.382 . S
C1615 H1640 0.950 . S
C1616 N1611 1.332 . S
C1616 C1615 1.382 . S
C1616 H1626 0.948 . S
N1617 Co1595 2.282 . S
N1617 C1621 1.332 . S
N1617 C1622 1.332 . S
C1618 C1619 1.388 . S
C1618 C1622 1.382 . S
C1618 H1641 0.950 . S
C1619 C1618 1.388 . S
C1619 C1620 1.386 . S
C1620 C1619 1.386 . S
C1620 C1621 1.382 . S
C1620 H1642 0.950 . S
C1621 N1617 1.332 . S
C1621 C1620 1.382 . S
C1621 H1623 0.958 . S
C1622 N1617 1.332 . S
C1622 C1618 1.382 . S
C1622 H1624 0.948 . S
H1623 C1621 0.958 . S
H1624 C1622 0.948 . S
H1625 C1614 0.952 . S
H1626 C1616 0.948 . S
C1627 C1593 1.395 . S
C1627 C1597 1.391 1_554 S
C1628 C1590 1.389 . S
C1628 C1610 1.392 . S
C1629 C1600 1.392 . S
C1629 C1602 1.389 . S
C1630 C1605 1.392 . S
C1630 C1607 1.395 1_556 S
H1631 C1591 0.951 . S
H1632 C1592 0.950 . S
H1633 C1598 0.949 . S
H1634 C1599 0.950 . S
H1635 C1603 0.951 . S
H1636 C1604 0.950 . S
H1637 C1608 0.949 . S
H1638 C1609 0.950 . S
H1639 C1613 0.950 . S
H1640 C1615 0.950 . S
H1641 C1618 0.950 . S
H1642 C1620 0.950 . S
C1643 C1644 1.443 . S
C1643 N1647 1.376 . S
C1643 C1681 1.389 . S
C1644 C1643 1.443 . S
C1644 C1645 1.340 . S
C1644 H1684 0.951 . S
C1645 C1644 1.340 . S
C1645 C1646 1.439 . S
C1645 H1685 0.950 . S
C1646 C1645 1.439 . S
C1646 N1647 1.374 . S
C1646 C1680 1.395 . S
N1647 C1643 1.376 . S
N1647 C1646 1.374 . S
N1647 Co1648 2.008 . S
Co1648 N1647 2.008 . S
Co1648 N1649 1.995 1_554 S
Co1648 N1654 2.008 1_554 S
Co1648 N1659 1.995 . S
Co1648 N1664 2.282 . S
Co1648 N1670 2.282 . S
N1649 Co1648 1.995 1_556 S
N1649 C1650 1.376 . S
N1649 C1653 1.383 . S
C1650 N1649 1.376 . S
C1650 C1651 1.446 . S
C1650 C1680 1.391 1_556 S
C1651 C1650 1.446 . S
C1651 C1652 1.339 . S
C1651 H1686 0.949 . S
C1652 C1651 1.339 . S
C1652 C1653 1.439 . S
C1652 H1687 0.950 . S
C1653 N1649 1.383 . S
C1653 C1652 1.439 . S
C1653 C1682 1.392 . S
N1654 Co1648 2.008 1_556 S
N1654 C1655 1.376 . S
N1654 C1658 1.374 . S
C1655 N1654 1.376 . S
C1655 C1656 1.443 . S
C1655 C1682 1.389 . S
C1656 C1655 1.443 . S
C1656 C1657 1.340 . S
C1656 H1688 0.951 . S
C1657 C1656 1.340 . S
C1657 C1658 1.439 . S
C1657 H1689 0.950 . S
C1658 N1654 1.374 . S
C1658 C1657 1.439 . S
C1658 C1683 1.392 . S
N1659 Co1648 1.995 . S
N1659 C1660 1.376 . S
N1659 C1663 1.383 . S
C1660 N1659 1.376 . S
C1660 C1661 1.446 . S
C1660 C1683 1.395 1_554 S
C1661 C1660 1.446 . S
C1661 C1662 1.339 . S
C1661 H1690 0.949 . S
C1662 C1661 1.339 . S
C1662 C1663 1.439 . S
C1662 H1691 0.950 . S
C1663 N1659 1.383 . S
C1663 C1662 1.439 . S
C1663 C1681 1.392 . S
N1664 Co1648 2.282 . S
N1664 C1667 1.332 . S
N1664 C1669 1.332 . S
C1665 C1666 1.386 . S
C1665 C1668 1.388 . S
C1666 C1665 1.386 . S
C1666 C1667 1.382 . S
C1666 H1692 0.950 . S
C1667 N1664 1.332 . S
C1667 C1666 1.382 . S
C1667 H1678 0.952 . S
C1668 C1665 1.388 . S
C1668 C1669 1.382 . S
C1668 H1693 0.950 . S
C1669 N1664 1.332 . S
C1669 C1668 1.382 . S
C1669 H1679 0.948 . S
N1670 Co1648 2.282 . S
N1670 C1674 1.332 . S
N1670 C1675 1.332 . S
C1671 C1672 1.388 . S
C1671 C1675 1.382 . S
C1671 H1694 0.950 . S
C1672 C1671 1.388 . S
C1672 C1673 1.386 . S
C1673 C1672 1.386 . S
C1673 C1674 1.382 . S
C1673 H1695 0.950 . S
C1674 N1670 1.332 . S
C1674 C1673 1.382 . S
C1674 H1676 0.958 . S
C1675 N1670 1.332 . S
C1675 C1671 1.382 . S
C1675 H1677 0.948 . S
H1676 C1674 0.958 . S
H1677 C1675 0.948 . S
H1678 C1667 0.952 . S
H1679 C1669 0.948 . S
C1680 C1646 1.395 . S
C1680 C1650 1.391 1_554 S
C1681 C1643 1.389 . S
C1681 C1663 1.392 . S
C1682 C1653 1.392 . S
C1682 C1655 1.389 . S
C1683 C1658 1.392 . S
C1683 C1660 1.395 1_556 S
H1684 C1644 0.951 . S
H1685 C1645 0.950 . S
H1686 C1651 0.949 . S
H1687 C1652 0.950 . S
H1688 C1656 0.951 . S
H1689 C1657 0.950 . S
H1690 C1661 0.949 . S
H1691 C1662 0.950 . S
H1692 C1666 0.950 . S
H1693 C1668 0.950 . S
H1694 C1671 0.950 . S
H1695 C1673 0.950 . S
H1696 C1704 0.929 . S
H1697 C1706 0.930 . S
H1698 C1708 0.930 . S
H1699 C1711 0.929 . S
H1700 C1714 0.930 . S
H1701 C1716 0.960 . S
H1702 C1716 0.960 . S
H1703 C1716 0.960 . S
C1704 H1696 0.929 . S
C1704 C1705 1.377 . S
C1704 C1706 1.384 . S
C1705 C1704 1.377 . S
C1705 C1711 1.390 . S
C1706 H1697 0.930 . S
C1706 C1704 1.384 . S
C1706 C1707 1.372 . S
C1707 C1706 1.372 . S
C1707 C1708 1.400 . S
C1707 C1712 1.490 . S
C1708 H1698 0.930 . S
C1708 C1707 1.400 . S
C1708 C1711 1.386 . S
H1709 C1725 0.930 . S
H1710 C1726 0.931 . S
C1711 H1699 0.929 . S
C1711 C1705 1.390 . S
C1711 C1708 1.386 . S
C1712 C1707 1.490 . S
C1712 C1714 1.395 . S
C1712 C1715 1.403 . S
H1713 C1719 0.930 . S
C1714 H1700 0.930 . S
C1714 C1712 1.395 . S
C1714 C1717 1.403 . S
C1715 C1712 1.403 . S
C1715 C1716 1.524 . S
C1715 C1719 1.400 . S
C1716 H1701 0.960 . S
C1716 H1702 0.960 . S
C1716 H1703 0.960 . S
C1716 C1715 1.524 . S
C1717 C1714 1.403 . S
C1717 C1718 1.392 . S
C1717 C1721 1.495 . S
C1718 C1717 1.392 . S
C1718 C1719 1.385 . S
C1718 C1720 1.478 . S
C1719 H1713 0.930 . S
C1719 C1715 1.400 . S
C1719 C1718 1.385 . S
C1720 C1718 1.478 . S
C1720 C1722 1.381 . S
C1720 C1726 1.383 . S
C1721 C1717 1.495 . S
C1721 H1727 0.959 . S
C1721 H1728 0.961 . S
C1721 H1729 0.960 . S
C1722 C1720 1.381 . S
C1722 C1723 1.394 . S
C1722 H1730 0.930 . S
C1723 C1722 1.394 . S
C1723 C1724 1.383 . S
C1723 H1731 0.929 . S
C1724 C1723 1.383 . S
C1724 C1725 1.377 . S
C1725 H1709 0.930 . S
C1725 C1724 1.377 . S
C1725 C1726 1.379 . S
C1726 H1710 0.931 . S
C1726 C1720 1.383 . S
C1726 C1725 1.379 . S
H1727 C1721 0.959 . S
H1728 C1721 0.961 . S
H1729 C1721 0.960 . S
H1730 C1722 0.930 . S
H1731 C1723 0.929 . S
H1732 C1740 0.929 . S
H1733 C1742 0.930 . S
H1734 C1744 0.930 . S
H1735 C1747 0.929 . S
H1736 C1750 0.930 . S
H1737 C1752 0.960 . S
H1738 C1752 0.960 . S
H1739 C1752 0.960 . S
C1740 H1732 0.929 . S
C1740 C1741 1.377 . S
C1740 C1742 1.384 . S
C1741 C1740 1.377 . S
C1741 C1747 1.390 . S
C1742 H1733 0.930 . S
C1742 C1740 1.384 . S
C1742 C1743 1.372 . S
C1743 C1742 1.372 . S
C1743 C1744 1.400 . S
C1743 C1748 1.490 . S
C1744 H1734 0.930 . S
C1744 C1743 1.400 . S
C1744 C1747 1.386 . S
H1745 C1761 0.930 . S
H1746 C1762 0.931 . S
C1747 H1735 0.929 . S
C1747 C1741 1.390 . S
C1747 C1744 1.386 . S
C1748 C1743 1.490 . S
C1748 C1750 1.395 . S
C1748 C1751 1.403 . S
H1749 C1755 0.930 . S
C1750 H1736 0.930 . S
C1750 C1748 1.395 . S
C1750 C1753 1.403 . S
C1751 C1748 1.403 . S
C1751 C1752 1.524 . S
C1751 C1755 1.400 . S
C1752 H1737 0.960 . S
C1752 H1738 0.960 . S
C1752 H1739 0.960 . S
C1752 C1751 1.524 . S
C1753 C1750 1.403 . S
C1753 C1754 1.392 . S
C1753 C1757 1.495 . S
C1754 C1753 1.392 . S
C1754 C1755 1.385 . S
C1754 C1756 1.478 . S
C1755 H1749 0.930 . S
C1755 C1751 1.400 . S
C1755 C1754 1.385 . S
C1756 C1754 1.478 . S
C1756 C1758 1.381 . S
C1756 C1762 1.383 . S
C1757 C1753 1.495 . S
C1757 H1763 0.959 . S
C1757 H1764 0.961 . S
C1757 H1765 0.960 . S
C1758 C1756 1.381 . S
C1758 C1759 1.394 . S
C1758 H1766 0.930 . S
C1759 C1758 1.394 . S
C1759 C1760 1.383 . S
C1759 H1767 0.929 . S
C1760 C1759 1.383 . S
C1760 C1761 1.377 . S
C1761 H1745 0.930 . S
C1761 C1760 1.377 . S
C1761 C1762 1.379 . S
C1762 H1746 0.931 . S
C1762 C1756 1.383 . S
C1762 C1761 1.379 . S
H1763 C1757 0.959 . S
H1764 C1757 0.961 . S
H1765 C1757 0.960 . S
H1766 C1758 0.930 . S
H1767 C1759 0.929 . S
H1768 C1776 0.929 . S
H1769 C1778 0.930 . S
H1770 C1780 0.930 . S
H1771 C1783 0.929 . S
H1772 C1786 0.930 . S
H1773 C1788 0.960 . S
H1774 C1788 0.960 . S
H1775 C1788 0.960 . S
C1776 H1768 0.929 . S
C1776 C1777 1.377 . S
C1776 C1778 1.384 . S
C1777 C1776 1.377 . S
C1777 C1783 1.390 . S
C1778 H1769 0.930 . S
C1778 C1776 1.384 . S
C1778 C1779 1.372 . S
C1779 C1778 1.372 . S
C1779 C1780 1.400 . S
C1779 C1784 1.490 . S
C1780 H1770 0.930 . S
C1780 C1779 1.400 . S
C1780 C1783 1.386 . S
H1781 C1797 0.930 . S
H1782 C1798 0.931 . S
C1783 H1771 0.929 . S
C1783 C1777 1.390 . S
C1783 C1780 1.386 . S
C1784 C1779 1.490 . S
C1784 C1786 1.395 . S
C1784 C1787 1.403 . S
H1785 C1791 0.930 . S
C1786 H1772 0.930 . S
C1786 C1784 1.395 . S
C1786 C1789 1.403 . S
C1787 C1784 1.403 . S
C1787 C1788 1.524 . S
C1787 C1791 1.400 . S
C1788 H1773 0.960 . S
C1788 H1774 0.960 . S
C1788 H1775 0.960 . S
C1788 C1787 1.524 . S
C1789 C1786 1.403 . S
C1789 C1790 1.392 . S
C1789 C1793 1.495 . S
C1790 C1789 1.392 . S
C1790 C1791 1.385 . S
C1790 C1792 1.478 . S
C1791 H1785 0.930 . S
C1791 C1787 1.400 . S
C1791 C1790 1.385 . S
C1792 C1790 1.478 . S
C1792 C1794 1.381 . S
C1792 C1798 1.383 . S
C1793 C1789 1.495 . S
C1793 H1799 0.959 . S
C1793 H1800 0.961 . S
C1793 H1801 0.960 . S
C1794 C1792 1.381 . S
C1794 C1795 1.394 . S
C1794 H1802 0.930 . S
C1795 C1794 1.394 . S
C1795 C1796 1.383 . S
C1795 H1803 0.929 . S
C1796 C1795 1.383 . S
C1796 C1797 1.377 . S
C1797 H1781 0.930 . S
C1797 C1796 1.377 . S
C1797 C1798 1.379 . S
C1798 H1782 0.931 . S
C1798 C1792 1.383 . S
C1798 C1797 1.379 . S
H1799 C1793 0.959 . S
H1800 C1793 0.961 . S
H1801 C1793 0.960 . S
H1802 C1794 0.930 . S
H1803 C1795 0.929 . S
H1804 C1812 0.929 . S
H1805 C1814 0.930 . S
H1806 C1816 0.930 . S
H1807 C1819 0.929 . S
H1808 C1822 0.930 . S
H1809 C1824 0.960 . S
H1810 C1824 0.960 . S
H1811 C1824 0.960 . S
C1812 H1804 0.929 . S
C1812 C1813 1.377 . S
C1812 C1814 1.384 . S
C1813 C1812 1.377 . S
C1813 C1819 1.390 . S
C1814 H1805 0.930 . S
C1814 C1812 1.384 . S
C1814 C1815 1.372 . S
C1815 C1814 1.372 . S
C1815 C1816 1.400 . S
C1815 C1820 1.490 . S
C1816 H1806 0.930 . S
C1816 C1815 1.400 . S
C1816 C1819 1.386 . S
H1817 C1833 0.930 . S
H1818 C1834 0.931 . S
C1819 H1807 0.929 . S
C1819 C1813 1.390 . S
C1819 C1816 1.386 . S
C1820 C1815 1.490 . S
C1820 C1822 1.395 . S
C1820 C1823 1.403 . S
H1821 C1827 0.930 . S
C1822 H1808 0.930 . S
C1822 C1820 1.395 . S
C1822 C1825 1.403 . S
C1823 C1820 1.403 . S
C1823 C1824 1.524 . S
C1823 C1827 1.400 . S
C1824 H1809 0.960 . S
C1824 H1810 0.960 . S
C1824 H1811 0.960 . S
C1824 C1823 1.524 . S
C1825 C1822 1.403 . S
C1825 C1826 1.392 . S
C1825 C1829 1.495 . S
C1826 C1825 1.392 . S
C1826 C1827 1.385 . S
C1826 C1828 1.478 . S
C1827 H1821 0.930 . S
C1827 C1823 1.400 . S
C1827 C1826 1.385 . S
C1828 C1826 1.478 . S
C1828 C1830 1.381 . S
C1828 C1834 1.383 . S
C1829 C1825 1.495 . S
C1829 H1835 0.959 . S
C1829 H1836 0.961 . S
C1829 H1837 0.960 . S
C1830 C1828 1.381 . S
C1830 C1831 1.394 . S
C1830 H1838 0.930 . S
C1831 C1830 1.394 . S
C1831 C1832 1.383 . S
C1831 H1839 0.929 . S
C1832 C1831 1.383 . S
C1832 C1833 1.377 . S
C1833 H1817 0.930 . S
C1833 C1832 1.377 . S
C1833 C1834 1.379 . S
C1834 H1818 0.931 . S
C1834 C1828 1.383 . S
C1834 C1833 1.379 . S
H1835 C1829 0.959 . S
H1836 C1829 0.961 . S
H1837 C1829 0.960 . S
H1838 C1830 0.930 . S
H1839 C1831 0.929 . S
H1840 C1848 0.929 . S
H1841 C1850 0.930 . S
H1842 C1852 0.930 . S
H1843 C1855 0.929 . S
H1844 C1858 0.930 . S
H1845 C1860 0.960 . S
H1846 C1860 0.960 . S
H1847 C1860 0.960 . S
C1848 H1840 0.929 . S
C1848 C1849 1.377 . S
C1848 C1850 1.384 . S
C1849 C1848 1.377 . S
C1849 C1855 1.390 . S
C1850 H1841 0.930 . S
C1850 C1848 1.384 . S
C1850 C1851 1.372 . S
C1851 C1850 1.372 . S
C1851 C1852 1.400 . S
C1851 C1856 1.490 . S
C1852 H1842 0.930 . S
C1852 C1851 1.400 . S
C1852 C1855 1.386 . S
H1853 C1869 0.930 . S
H1854 C1870 0.931 . S
C1855 H1843 0.929 . S
C1855 C1849 1.390 . S
C1855 C1852 1.386 . S
C1856 C1851 1.490 . S
C1856 C1858 1.395 . S
C1856 C1859 1.403 . S
H1857 C1863 0.930 . S
C1858 H1844 0.930 . S
C1858 C1856 1.395 . S
C1858 C1861 1.403 . S
C1859 C1856 1.403 . S
C1859 C1860 1.524 . S
C1859 C1863 1.400 . S
C1860 H1845 0.960 . S
C1860 H1846 0.960 . S
C1860 H1847 0.960 . S
C1860 C1859 1.524 . S
C1861 C1858 1.403 . S
C1861 C1862 1.392 . S
C1861 C1865 1.495 . S
C1862 C1861 1.392 . S
C1862 C1863 1.385 . S
C1862 C1864 1.478 . S
C1863 H1857 0.930 . S
C1863 C1859 1.400 . S
C1863 C1862 1.385 . S
C1864 C1862 1.478 . S
C1864 C1866 1.381 . S
C1864 C1870 1.383 . S
C1865 C1861 1.495 . S
C1865 H1871 0.959 . S
C1865 H1872 0.961 . S
C1865 H1873 0.960 . S
C1866 C1864 1.381 . S
C1866 C1867 1.394 . S
C1866 H1874 0.930 . S
C1867 C1866 1.394 . S
C1867 C1868 1.383 . S
C1867 H1875 0.929 . S
C1868 C1867 1.383 . S
C1868 C1869 1.377 . S
C1869 H1853 0.930 . S
C1869 C1868 1.377 . S
C1869 C1870 1.379 . S
C1870 H1854 0.931 . S
C1870 C1864 1.383 . S
C1870 C1869 1.379 . S
H1871 C1865 0.959 . S
H1872 C1865 0.961 . S
H1873 C1865 0.960 . S
H1874 C1866 0.930 . S
H1875 C1867 0.929 . S
H1876 C1884 0.929 . S
H1877 C1886 0.930 . S
H1878 C1888 0.930 . S
H1879 C1891 0.929 . S
H1880 C1894 0.930 . S
H1881 C1896 0.960 . S
H1882 C1896 0.960 . S
H1883 C1896 0.960 . S
C1884 H1876 0.929 . S
C1884 C1885 1.377 . S
C1884 C1886 1.384 . S
C1885 C1884 1.377 . S
C1885 C1891 1.390 . S
C1886 H1877 0.930 . S
C1886 C1884 1.384 . S
C1886 C1887 1.372 . S
C1887 C1886 1.372 . S
C1887 C1888 1.400 . S
C1887 C1892 1.490 . S
C1888 H1878 0.930 . S
C1888 C1887 1.400 . S
C1888 C1891 1.386 . S
H1889 C1905 0.930 . S
H1890 C1906 0.931 . S
C1891 H1879 0.929 . S
C1891 C1885 1.390 . S
C1891 C1888 1.386 . S
C1892 C1887 1.490 . S
C1892 C1894 1.395 . S
C1892 C1895 1.403 . S
H1893 C1899 0.930 . S
C1894 H1880 0.930 . S
C1894 C1892 1.395 . S
C1894 C1897 1.403 . S
C1895 C1892 1.403 . S
C1895 C1896 1.524 . S
C1895 C1899 1.400 . S
C1896 H1881 0.960 . S
C1896 H1882 0.960 . S
C1896 H1883 0.960 . S
C1896 C1895 1.524 . S
C1897 C1894 1.403 . S
C1897 C1898 1.392 . S
C1897 C1901 1.495 . S
C1898 C1897 1.392 . S
C1898 C1899 1.385 . S
C1898 C1900 1.478 . S
C1899 H1893 0.930 . S
C1899 C1895 1.400 . S
C1899 C1898 1.385 . S
C1900 C1898 1.478 . S
C1900 C1902 1.381 . S
C1900 C1906 1.383 . S
C1901 C1897 1.495 . S
C1901 H1907 0.959 . S
C1901 H1908 0.961 . S
C1901 H1909 0.960 . S
C1902 C1900 1.381 . S
C1902 C1903 1.394 . S
C1902 H1910 0.930 . S
C1903 C1902 1.394 . S
C1903 C1904 1.383 . S
C1903 H1911 0.929 . S
C1904 C1903 1.383 . S
C1904 C1905 1.377 . S
C1905 H1889 0.930 . S
C1905 C1904 1.377 . S
C1905 C1906 1.379 . S
C1906 H1890 0.931 . S
C1906 C1900 1.383 . S
C1906 C1905 1.379 . S
H1907 C1901 0.959 . S
H1908 C1901 0.961 . S
H1909 C1901 0.960 . S
H1910 C1902 0.930 . S
H1911 C1903 0.929 . S
H1912 C1920 0.929 . S
H1913 C1922 0.930 . S
H1914 C1924 0.930 . S
H1915 C1927 0.929 . S
H1916 C1930 0.930 . S
H1917 C1932 0.960 . S
H1918 C1932 0.960 . S
H1919 C1932 0.960 . S
C1920 H1912 0.929 . S
C1920 C1921 1.377 . S
C1920 C1922 1.384 . S
C1921 C1920 1.377 . S
C1921 C1927 1.390 . S
C1922 H1913 0.930 . S
C1922 C1920 1.384 . S
C1922 C1923 1.372 . S
C1923 C1922 1.372 . S
C1923 C1924 1.400 . S
C1923 C1928 1.490 . S
C1924 H1914 0.930 . S
C1924 C1923 1.400 . S
C1924 C1927 1.386 . S
H1925 C1941 0.930 . S
H1926 C1942 0.931 . S
C1927 H1915 0.929 . S
C1927 C1921 1.390 . S
C1927 C1924 1.386 . S
C1928 C1923 1.490 . S
C1928 C1930 1.395 . S
C1928 C1931 1.403 . S
H1929 C1935 0.930 . S
C1930 H1916 0.930 . S
C1930 C1928 1.395 . S
C1930 C1933 1.403 . S
C1931 C1928 1.403 . S
C1931 C1932 1.524 . S
C1931 C1935 1.400 . S
C1932 H1917 0.960 . S
C1932 H1918 0.960 . S
C1932 H1919 0.960 . S
C1932 C1931 1.524 . S
C1933 C1930 1.403 . S
C1933 C1934 1.392 . S
C1933 C1937 1.495 . S
C1934 C1933 1.392 . S
C1934 C1935 1.385 . S
C1934 C1936 1.478 . S
C1935 H1929 0.930 . S
C1935 C1931 1.400 . S
C1935 C1934 1.385 . S
C1936 C1934 1.478 . S
C1936 C1938 1.381 . S
C1936 C1942 1.383 . S
C1937 C1933 1.495 . S
C1937 H1943 0.959 . S
C1937 H1944 0.961 . S
C1937 H1945 0.960 . S
C1938 C1936 1.381 . S
C1938 C1939 1.394 . S
C1938 H1946 0.930 . S
C1939 C1938 1.394 . S
C1939 C1940 1.383 . S
C1939 H1947 0.929 . S
C1940 C1939 1.383 . S
C1940 C1941 1.377 . S
C1941 H1925 0.930 . S
C1941 C1940 1.377 . S
C1941 C1942 1.379 . S
C1942 H1926 0.931 . S
C1942 C1936 1.383 . S
C1942 C1941 1.379 . S
H1943 C1937 0.959 . S
H1944 C1937 0.961 . S
H1945 C1937 0.960 . S
H1946 C1938 0.930 . S
H1947 C1939 0.929 . S
H1948 C1956 0.929 . S
H1949 C1958 0.930 . S
H1950 C1960 0.930 . S
H1951 C1963 0.929 . S
H1952 C1966 0.930 . S
H1953 C1968 0.960 . S
H1954 C1968 0.960 . S
H1955 C1968 0.960 . S
C1956 H1948 0.929 . S
C1956 C1957 1.377 . S
C1956 C1958 1.384 . S
C1957 C1956 1.377 . S
C1957 C1963 1.390 . S
C1958 H1949 0.930 . S
C1958 C1956 1.384 . S
C1958 C1959 1.372 . S
C1959 C1958 1.372 . S
C1959 C1960 1.400 . S
C1959 C1964 1.490 . S
C1960 H1950 0.930 . S
C1960 C1959 1.400 . S
C1960 C1963 1.386 . S
H1961 C1977 0.930 . S
H1962 C1978 0.931 . S
C1963 H1951 0.929 . S
C1963 C1957 1.390 . S
C1963 C1960 1.386 . S
C1964 C1959 1.490 . S
C1964 C1966 1.395 . S
C1964 C1967 1.403 . S
H1965 C1971 0.930 . S
C1966 H1952 0.930 . S
C1966 C1964 1.395 . S
C1966 C1969 1.403 . S
C1967 C1964 1.403 . S
C1967 C1968 1.524 . S
C1967 C1971 1.400 . S
C1968 H1953 0.960 . S
C1968 H1954 0.960 . S
C1968 H1955 0.960 . S
C1968 C1967 1.524 . S
C1969 C1966 1.403 . S
C1969 C1970 1.392 . S
C1969 C1973 1.495 . S
C1970 C1969 1.392 . S
C1970 C1971 1.385 . S
C1970 C1972 1.478 . S
C1971 H1965 0.930 . S
C1971 C1967 1.400 . S
C1971 C1970 1.385 . S
C1972 C1970 1.478 . S
C1972 C1974 1.381 . S
C1972 C1978 1.383 . S
C1973 C1969 1.495 . S
C1973 H1979 0.959 . S
C1973 H1980 0.961 . S
C1973 H1981 0.960 . S
C1974 C1972 1.381 . S
C1974 C1975 1.394 . S
C1974 H1982 0.930 . S
C1975 C1974 1.394 . S
C1975 C1976 1.383 . S
C1975 H1983 0.929 . S
C1976 C1975 1.383 . S
C1976 C1977 1.377 . S
C1977 H1961 0.930 . S
C1977 C1976 1.377 . S
C1977 C1978 1.379 . S
C1978 H1962 0.931 . S
C1978 C1972 1.383 . S
C1978 C1977 1.379 . S
H1979 C1973 0.959 . S
H1980 C1973 0.961 . S
H1981 C1973 0.960 . S
H1982 C1974 0.930 . S
H1983 C1975 0.929 . S
H1984 C1992 0.929 . S
H1985 C1994 0.930 . S
H1986 C1996 0.930 . S
H1987 C1999 0.929 . S
H1988 C2002 0.930 . S
H1989 C2004 0.960 . S
H1990 C2004 0.960 . S
H1991 C2004 0.960 . S
C1992 H1984 0.929 . S
C1992 C1993 1.377 . S
C1992 C1994 1.384 . S
C1993 C1992 1.377 . S
C1993 C1999 1.390 . S
C1994 H1985 0.930 . S
C1994 C1992 1.384 . S
C1994 C1995 1.372 . S
C1995 C1994 1.372 . S
C1995 C1996 1.400 . S
C1995 C2000 1.490 . S
C1996 H1986 0.930 . S
C1996 C1995 1.400 . S
C1996 C1999 1.386 . S
H1997 C2013 0.930 . S
H1998 C2014 0.931 . S
C1999 H1987 0.929 . S
C1999 C1993 1.390 . S
C1999 C1996 1.386 . S
C2000 C1995 1.490 . S
C2000 C2002 1.395 . S
C2000 C2003 1.403 . S
H2001 C2007 0.930 . S
C2002 H1988 0.930 . S
C2002 C2000 1.395 . S
C2002 C2005 1.403 . S
C2003 C2000 1.403 . S
C2003 C2004 1.524 . S
C2003 C2007 1.400 . S
C2004 H1989 0.960 . S
C2004 H1990 0.960 . S
C2004 H1991 0.960 . S
C2004 C2003 1.524 . S
C2005 C2002 1.403 . S
C2005 C2006 1.392 . S
C2005 C2009 1.495 . S
C2006 C2005 1.392 . S
C2006 C2007 1.385 . S
C2006 C2008 1.478 . S
C2007 H2001 0.930 . S
C2007 C2003 1.400 . S
C2007 C2006 1.385 . S
C2008 C2006 1.478 . S
C2008 C2010 1.381 . S
C2008 C2014 1.383 . S
C2009 C2005 1.495 . S
C2009 H2015 0.959 . S
C2009 H2016 0.961 . S
C2009 H2017 0.960 . S
C2010 C2008 1.381 . S
C2010 C2011 1.394 . S
C2010 H2018 0.930 . S
C2011 C2010 1.394 . S
C2011 C2012 1.383 . S
C2011 H2019 0.929 . S
C2012 C2011 1.383 . S
C2012 C2013 1.377 . S
C2013 H1997 0.930 . S
C2013 C2012 1.377 . S
C2013 C2014 1.379 . S
C2014 H1998 0.931 . S
C2014 C2008 1.383 . S
C2014 C2013 1.379 . S
H2015 C2009 0.959 . S
H2016 C2009 0.961 . S
H2017 C2009 0.960 . S
H2018 C2010 0.930 . S
H2019 C2011 0.929 . S
H2020 C2028 0.929 . S
H2021 C2030 0.930 . S
H2022 C2032 0.930 . S
H2023 C2035 0.929 . S
H2024 C2038 0.930 . S
H2025 C2040 0.960 . S
H2026 C2040 0.960 . S
H2027 C2040 0.960 . S
C2028 H2020 0.929 . S
C2028 C2029 1.377 . S
C2028 C2030 1.384 . S
C2029 C2028 1.377 . S
C2029 C2035 1.390 . S
C2030 H2021 0.930 . S
C2030 C2028 1.384 . S
C2030 C2031 1.372 . S
C2031 C2030 1.372 . S
C2031 C2032 1.400 . S
C2031 C2036 1.490 . S
C2032 H2022 0.930 . S
C2032 C2031 1.400 . S
C2032 C2035 1.386 . S
H2033 C2049 0.930 . S
H2034 C2050 0.931 . S
C2035 H2023 0.929 . S
C2035 C2029 1.390 . S
C2035 C2032 1.386 . S
C2036 C2031 1.490 . S
C2036 C2038 1.395 . S
C2036 C2039 1.403 . S
H2037 C2043 0.930 . S
C2038 H2024 0.930 . S
C2038 C2036 1.395 . S
C2038 C2041 1.403 . S
C2039 C2036 1.403 . S
C2039 C2040 1.524 . S
C2039 C2043 1.400 . S
C2040 H2025 0.960 . S
C2040 H2026 0.960 . S
C2040 H2027 0.960 . S
C2040 C2039 1.524 . S
C2041 C2038 1.403 . S
C2041 C2042 1.392 . S
C2041 C2045 1.495 . S
C2042 C2041 1.392 . S
C2042 C2043 1.385 . S
C2042 C2044 1.478 . S
C2043 H2037 0.930 . S
C2043 C2039 1.400 . S
C2043 C2042 1.385 . S
C2044 C2042 1.478 . S
C2044 C2046 1.381 . S
C2044 C2050 1.383 . S
C2045 C2041 1.495 . S
C2045 H2051 0.959 . S
C2045 H2052 0.961 . S
C2045 H2053 0.960 . S
C2046 C2044 1.381 . S
C2046 C2047 1.394 . S
C2046 H2054 0.930 . S
C2047 C2046 1.394 . S
C2047 C2048 1.383 . S
C2047 H2055 0.929 . S
C2048 C2047 1.383 . S
C2048 C2049 1.377 . S
C2049 H2033 0.930 . S
C2049 C2048 1.377 . S
C2049 C2050 1.379 . S
C2050 H2034 0.931 . S
C2050 C2044 1.383 . S
C2050 C2049 1.379 . S
H2051 C2045 0.959 . S
H2052 C2045 0.961 . S
H2053 C2045 0.960 . S
H2054 C2046 0.930 . S
H2055 C2047 0.929 . S
H2056 C2064 0.929 . S
H2057 C2066 0.930 . S
H2058 C2068 0.930 . S
H2059 C2071 0.929 . S
H2060 C2074 0.930 . S
H2061 C2076 0.960 . S
H2062 C2076 0.960 . S
H2063 C2076 0.960 . S
C2064 H2056 0.929 . S
C2064 C2065 1.377 . S
C2064 C2066 1.384 . S
C2065 C2064 1.377 . S
C2065 C2071 1.390 . S
C2066 H2057 0.930 . S
C2066 C2064 1.384 . S
C2066 C2067 1.372 . S
C2067 C2066 1.372 . S
C2067 C2068 1.400 . S
C2067 C2072 1.490 . S
C2068 H2058 0.930 . S
C2068 C2067 1.400 . S
C2068 C2071 1.386 . S
H2069 C2085 0.930 . S
H2070 C2086 0.931 . S
C2071 H2059 0.929 . S
C2071 C2065 1.390 . S
C2071 C2068 1.386 . S
C2072 C2067 1.490 . S
C2072 C2074 1.395 . S
C2072 C2075 1.403 . S
H2073 C2079 0.930 . S
C2074 H2060 0.930 . S
C2074 C2072 1.395 . S
C2074 C2077 1.403 . S
C2075 C2072 1.403 . S
C2075 C2076 1.524 . S
C2075 C2079 1.400 . S
C2076 H2061 0.960 . S
C2076 H2062 0.960 . S
C2076 H2063 0.960 . S
C2076 C2075 1.524 . S
C2077 C2074 1.403 . S
C2077 C2078 1.392 . S
C2077 C2081 1.495 . S
C2078 C2077 1.392 . S
C2078 C2079 1.385 . S
C2078 C2080 1.478 . S
C2079 H2073 0.930 . S
C2079 C2075 1.400 . S
C2079 C2078 1.385 . S
C2080 C2078 1.478 . S
C2080 C2082 1.381 . S
C2080 C2086 1.383 . S
C2081 C2077 1.495 . S
C2081 H2087 0.959 . S
C2081 H2088 0.961 . S
C2081 H2089 0.960 . S
C2082 C2080 1.381 . S
C2082 C2083 1.394 . S
C2082 H2090 0.930 . S
C2083 C2082 1.394 . S
C2083 C2084 1.383 . S
C2083 H2091 0.929 . S
C2084 C2083 1.383 . S
C2084 C2085 1.377 . S
C2085 H2069 0.930 . S
C2085 C2084 1.377 . S
C2085 C2086 1.379 . S
C2086 H2070 0.931 . S
C2086 C2080 1.383 . S
C2086 C2085 1.379 . S
H2087 C2081 0.959 . S
H2088 C2081 0.961 . S
H2089 C2081 0.960 . S
H2090 C2082 0.930 . S
H2091 C2083 0.929 . S
H2092 C2100 0.929 . S
H2093 C2102 0.930 . S
H2094 C2104 0.930 . S
H2095 C2107 0.929 . S
H2096 C2110 0.930 . S
H2097 C2112 0.960 . S
H2098 C2112 0.960 . S
H2099 C2112 0.960 . S
C2100 H2092 0.929 . S
C2100 C2101 1.377 . S
C2100 C2102 1.384 . S
C2101 C2100 1.377 . S
C2101 C2107 1.390 . S
C2102 H2093 0.930 . S
C2102 C2100 1.384 . S
C2102 C2103 1.372 . S
C2103 C2102 1.372 . S
C2103 C2104 1.400 . S
C2103 C2108 1.490 . S
C2104 H2094 0.930 . S
C2104 C2103 1.400 . S
C2104 C2107 1.386 . S
H2105 C2121 0.930 . S
H2106 C2122 0.931 . S
C2107 H2095 0.929 . S
C2107 C2101 1.390 . S
C2107 C2104 1.386 . S
C2108 C2103 1.490 . S
C2108 C2110 1.395 . S
C2108 C2111 1.403 . S
H2109 C2115 0.930 . S
C2110 H2096 0.930 . S
C2110 C2108 1.395 . S
C2110 C2113 1.403 . S
C2111 C2108 1.403 . S
C2111 C2112 1.524 . S
C2111 C2115 1.400 . S
C2112 H2097 0.960 . S
C2112 H2098 0.960 . S
C2112 H2099 0.960 . S
C2112 C2111 1.524 . S
C2113 C2110 1.403 . S
C2113 C2114 1.392 . S
C2113 C2117 1.495 . S
C2114 C2113 1.392 . S
C2114 C2115 1.385 . S
C2114 C2116 1.478 . S
C2115 H2109 0.930 . S
C2115 C2111 1.400 . S
C2115 C2114 1.385 . S
C2116 C2114 1.478 . S
C2116 C2118 1.381 . S
C2116 C2122 1.383 . S
C2117 C2113 1.495 . S
C2117 H2123 0.959 . S
C2117 H2124 0.961 . S
C2117 H2125 0.960 . S
C2118 C2116 1.381 . S
C2118 C2119 1.394 . S
C2118 H2126 0.930 . S
C2119 C2118 1.394 . S
C2119 C2120 1.383 . S
C2119 H2127 0.929 . S
C2120 C2119 1.383 . S
C2120 C2121 1.377 . S
C2121 H2105 0.930 . S
C2121 C2120 1.377 . S
C2121 C2122 1.379 . S
C2122 H2106 0.931 . S
C2122 C2116 1.383 . S
C2122 C2121 1.379 . S
H2123 C2117 0.959 . S
H2124 C2117 0.961 . S
H2125 C2117 0.960 . S
H2126 C2118 0.930 . S
H2127 C2119 0.929 . S
H2128 C2136 0.929 . S
H2129 C2138 0.930 . S
H2130 C2140 0.930 . S
H2131 C2143 0.929 . S
H2132 C2146 0.930 . S
H2133 C2148 0.960 . S
H2134 C2148 0.960 . S
H2135 C2148 0.960 . S
C2136 H2128 0.929 . S
C2136 C2137 1.377 . S
C2136 C2138 1.384 . S
C2137 C2136 1.377 . S
C2137 C2143 1.390 . S
C2138 H2129 0.930 . S
C2138 C2136 1.384 . S
C2138 C2139 1.372 . S
C2139 C2138 1.372 . S
C2139 C2140 1.400 . S
C2139 C2144 1.490 . S
C2140 H2130 0.930 . S
C2140 C2139 1.400 . S
C2140 C2143 1.386 . S
H2141 C2157 0.930 . S
H2142 C2158 0.931 . S
C2143 H2131 0.929 . S
C2143 C2137 1.390 . S
C2143 C2140 1.386 . S
C2144 C2139 1.490 . S
C2144 C2146 1.395 . S
C2144 C2147 1.403 . S
H2145 C2151 0.930 . S
C2146 H2132 0.930 . S
C2146 C2144 1.395 . S
C2146 C2149 1.403 . S
C2147 C2144 1.403 . S
C2147 C2148 1.524 . S
C2147 C2151 1.400 . S
C2148 H2133 0.960 . S
C2148 H2134 0.960 . S
C2148 H2135 0.960 . S
C2148 C2147 1.524 . S
C2149 C2146 1.403 . S
C2149 C2150 1.392 . S
C2149 C2153 1.495 . S
C2150 C2149 1.392 . S
C2150 C2151 1.385 . S
C2150 C2152 1.478 . S
C2151 H2145 0.930 . S
C2151 C2147 1.400 . S
C2151 C2150 1.385 . S
C2152 C2150 1.478 . S
C2152 C2154 1.381 . S
C2152 C2158 1.383 . S
C2153 C2149 1.495 . S
C2153 H2159 0.959 . S
C2153 H2160 0.961 . S
C2153 H2161 0.960 . S
C2154 C2152 1.381 . S
C2154 C2155 1.394 . S
C2154 H2162 0.930 . S
C2155 C2154 1.394 . S
C2155 C2156 1.383 . S
C2155 H2163 0.929 . S
C2156 C2155 1.383 . S
C2156 C2157 1.377 . S
C2157 H2141 0.930 . S
C2157 C2156 1.377 . S
C2157 C2158 1.379 . S
C2158 H2142 0.931 . S
C2158 C2152 1.383 . S
C2158 C2157 1.379 . S
H2159 C2153 0.959 . S
H2160 C2153 0.961 . S
H2161 C2153 0.960 . S
H2162 C2154 0.930 . S
H2163 C2155 0.929 . S
H2164 C2172 0.929 . S
H2165 C2174 0.930 . S
H2166 C2176 0.930 . S
H2167 C2179 0.929 . S
H2168 C2182 0.930 . S
H2169 C2184 0.960 . S
H2170 C2184 0.960 . S
H2171 C2184 0.960 . S
C2172 H2164 0.929 . S
C2172 C2173 1.377 . S
C2172 C2174 1.384 . S
C2173 C2172 1.377 . S
C2173 C2179 1.390 . S
C2174 H2165 0.930 . S
C2174 C2172 1.384 . S
C2174 C2175 1.372 . S
C2175 C2174 1.372 . S
C2175 C2176 1.400 . S
C2175 C2180 1.490 . S
C2176 H2166 0.930 . S
C2176 C2175 1.400 . S
C2176 C2179 1.386 . S
H2177 C2193 0.930 . S
H2178 C2194 0.931 . S
C2179 H2167 0.929 . S
C2179 C2173 1.390 . S
C2179 C2176 1.386 . S
C2180 C2175 1.490 . S
C2180 C2182 1.395 . S
C2180 C2183 1.403 . S
H2181 C2187 0.930 . S
C2182 H2168 0.930 . S
C2182 C2180 1.395 . S
C2182 C2185 1.403 . S
C2183 C2180 1.403 . S
C2183 C2184 1.524 . S
C2183 C2187 1.400 . S
C2184 H2169 0.960 . S
C2184 H2170 0.960 . S
C2184 H2171 0.960 . S
C2184 C2183 1.524 . S
C2185 C2182 1.403 . S
C2185 C2186 1.392 . S
C2185 C2189 1.495 . S
C2186 C2185 1.392 . S
C2186 C2187 1.385 . S
C2186 C2188 1.478 . S
C2187 H2181 0.930 . S
C2187 C2183 1.400 . S
C2187 C2186 1.385 . S
C2188 C2186 1.478 . S
C2188 C2190 1.381 . S
C2188 C2194 1.383 . S
C2189 C2185 1.495 . S
C2189 H2195 0.959 . S
C2189 H2196 0.961 . S
C2189 H2197 0.960 . S
C2190 C2188 1.381 . S
C2190 C2191 1.394 . S
C2190 H2198 0.930 . S
C2191 C2190 1.394 . S
C2191 C2192 1.383 . S
C2191 H2199 0.929 . S
C2192 C2191 1.383 . S
C2192 C2193 1.377 . S
C2193 H2177 0.930 . S
C2193 C2192 1.377 . S
C2193 C2194 1.379 . S
C2194 H2178 0.931 . S
C2194 C2188 1.383 . S
C2194 C2193 1.379 . S
H2195 C2189 0.959 . S
H2196 C2189 0.961 . S
H2197 C2189 0.960 . S
H2198 C2190 0.930 . S
H2199 C2191 0.929 . S
H2200 C2208 0.929 . S
H2201 C2210 0.930 . S
H2202 C2212 0.930 . S
H2203 C2215 0.929 . S
H2204 C2218 0.930 . S
H2205 C2220 0.960 . S
H2206 C2220 0.960 . S
H2207 C2220 0.960 . S
C2208 H2200 0.929 . S
C2208 C2209 1.377 . S
C2208 C2210 1.384 . S
C2209 C2208 1.377 . S
C2209 C2215 1.390 . S
C2210 H2201 0.930 . S
C2210 C2208 1.384 . S
C2210 C2211 1.372 . S
C2211 C2210 1.372 . S
C2211 C2212 1.400 . S
C2211 C2216 1.490 . S
C2212 H2202 0.930 . S
C2212 C2211 1.400 . S
C2212 C2215 1.386 . S
H2213 C2229 0.930 . S
H2214 C2230 0.931 . S
C2215 H2203 0.929 . S
C2215 C2209 1.390 . S
C2215 C2212 1.386 . S
C2216 C2211 1.490 . S
C2216 C2218 1.395 . S
C2216 C2219 1.403 . S
H2217 C2223 0.930 . S
C2218 H2204 0.930 . S
C2218 C2216 1.395 . S
C2218 C2221 1.403 . S
C2219 C2216 1.403 . S
C2219 C2220 1.524 . S
C2219 C2223 1.400 . S
C2220 H2205 0.960 . S
C2220 H2206 0.960 . S
C2220 H2207 0.960 . S
C2220 C2219 1.524 . S
C2221 C2218 1.403 . S
C2221 C2222 1.392 . S
C2221 C2225 1.495 . S
C2222 C2221 1.392 . S
C2222 C2223 1.385 . S
C2222 C2224 1.478 . S
C2223 H2217 0.930 . S
C2223 C2219 1.400 . S
C2223 C2222 1.385 . S
C2224 C2222 1.478 . S
C2224 C2226 1.381 . S
C2224 C2230 1.383 . S
C2225 C2221 1.495 . S
C2225 H2231 0.959 . S
C2225 H2232 0.961 . S
C2225 H2233 0.960 . S
C2226 C2224 1.381 . S
C2226 C2227 1.394 . S
C2226 H2234 0.930 . S
C2227 C2226 1.394 . S
C2227 C2228 1.383 . S
C2227 H2235 0.929 . S
C2228 C2227 1.383 . S
C2228 C2229 1.377 . S
C2229 H2213 0.930 . S
C2229 C2228 1.377 . S
C2229 C2230 1.379 . S
C2230 H2214 0.931 . S
C2230 C2224 1.383 . S
C2230 C2229 1.379 . S
H2231 C2225 0.959 . S
H2232 C2225 0.961 . S
H2233 C2225 0.960 . S
H2234 C2226 0.930 . S
H2235 C2227 0.929 . S
H2236 C2244 0.929 . S
H2237 C2246 0.930 . S
H2238 C2248 0.930 . S
H2239 C2251 0.929 . S
H2240 C2254 0.930 . S
H2241 C2256 0.960 . S
H2242 C2256 0.960 . S
H2243 C2256 0.960 . S
C2244 H2236 0.929 . S
C2244 C2245 1.377 . S
C2244 C2246 1.384 . S
C2245 C2244 1.377 . S
C2245 C2251 1.390 . S
C2246 H2237 0.930 . S
C2246 C2244 1.384 . S
C2246 C2247 1.372 . S
C2247 C2246 1.372 . S
C2247 C2248 1.400 . S
C2247 C2252 1.490 . S
C2248 H2238 0.930 . S
C2248 C2247 1.400 . S
C2248 C2251 1.386 . S
H2249 C2265 0.930 . S
H2250 C2266 0.931 . S
C2251 H2239 0.929 . S
C2251 C2245 1.390 . S
C2251 C2248 1.386 . S
C2252 C2247 1.490 . S
C2252 C2254 1.395 . S
C2252 C2255 1.403 . S
H2253 C2259 0.930 . S
C2254 H2240 0.930 . S
C2254 C2252 1.395 . S
C2254 C2257 1.403 . S
C2255 C2252 1.403 . S
C2255 C2256 1.524 . S
C2255 C2259 1.400 . S
C2256 H2241 0.960 . S
C2256 H2242 0.960 . S
C2256 H2243 0.960 . S
C2256 C2255 1.524 . S
C2257 C2254 1.403 . S
C2257 C2258 1.392 . S
C2257 C2261 1.495 . S
C2258 C2257 1.392 . S
C2258 C2259 1.385 . S
C2258 C2260 1.478 . S
C2259 H2253 0.930 . S
C2259 C2255 1.400 . S
C2259 C2258 1.385 . S
C2260 C2258 1.478 . S
C2260 C2262 1.381 . S
C2260 C2266 1.383 . S
C2261 C2257 1.495 . S
C2261 H2267 0.959 . S
C2261 H2268 0.961 . S
C2261 H2269 0.960 . S
C2262 C2260 1.381 . S
C2262 C2263 1.394 . S
C2262 H2270 0.930 . S
C2263 C2262 1.394 . S
C2263 C2264 1.383 . S
C2263 H2271 0.929 . S
C2264 C2263 1.383 . S
C2264 C2265 1.377 . S
C2265 H2249 0.930 . S
C2265 C2264 1.377 . S
C2265 C2266 1.379 . S
C2266 H2250 0.931 . S
C2266 C2260 1.383 . S
C2266 C2265 1.379 . S
H2267 C2261 0.959 . S
H2268 C2261 0.961 . S
H2269 C2261 0.960 . S
H2270 C2262 0.930 . S
H2271 C2263 0.929 . S
H2272 C2280 0.929 . S
H2273 C2282 0.930 . S
H2274 C2284 0.930 . S
H2275 C2287 0.929 . S
H2276 C2290 0.930 . S
H2277 C2292 0.960 . S
H2278 C2292 0.960 . S
H2279 C2292 0.960 . S
C2280 H2272 0.929 . S
C2280 C2281 1.377 . S
C2280 C2282 1.384 . S
C2281 C2280 1.377 . S
C2281 C2287 1.390 . S
C2282 H2273 0.930 . S
C2282 C2280 1.384 . S
C2282 C2283 1.372 . S
C2283 C2282 1.372 . S
C2283 C2284 1.400 . S
C2283 C2288 1.490 . S
C2284 H2274 0.930 . S
C2284 C2283 1.400 . S
C2284 C2287 1.386 . S
H2285 C2301 0.930 . S
H2286 C2302 0.931 . S
C2287 H2275 0.929 . S
C2287 C2281 1.390 . S
C2287 C2284 1.386 . S
C2288 C2283 1.490 . S
C2288 C2290 1.395 . S
C2288 C2291 1.403 . S
H2289 C2295 0.930 . S
C2290 H2276 0.930 . S
C2290 C2288 1.395 . S
C2290 C2293 1.403 1_655 S
C2291 C2288 1.403 . S
C2291 C2292 1.524 . S
C2291 C2295 1.400 1_655 S
C2292 H2277 0.960 . S
C2292 H2278 0.960 . S
C2292 H2279 0.960 . S
C2292 C2291 1.524 . S
C2293 C2290 1.403 1_455 S
C2293 C2294 1.392 . S
C2293 C2297 1.495 . S
C2294 C2293 1.392 . S
C2294 C2295 1.385 . S
C2294 C2296 1.478 . S
C2295 H2289 0.930 . S
C2295 C2291 1.400 1_455 S
C2295 C2294 1.385 . S
C2296 C2294 1.478 . S
C2296 C2298 1.381 . S
C2296 C2302 1.383 . S
C2297 C2293 1.495 . S
C2297 H2303 0.959 . S
C2297 H2304 0.961 . S
C2297 H2305 0.960 . S
C2298 C2296 1.381 . S
C2298 C2299 1.394 . S
C2298 H2306 0.930 . S
C2299 C2298 1.394 . S
C2299 C2300 1.383 . S
C2299 H2307 0.929 . S
C2300 C2299 1.383 . S
C2300 C2301 1.377 . S
C2301 H2285 0.930 . S
C2301 C2300 1.377 . S
C2301 C2302 1.379 . S
C2302 H2286 0.931 . S
C2302 C2296 1.383 . S
C2302 C2301 1.379 . S
H2303 C2297 0.959 . S
H2304 C2297 0.961 . S
H2305 C2297 0.960 . S
H2306 C2298 0.930 . S
H2307 C2299 0.929 . S
H2308 C2316 0.929 . S
H2309 C2318 0.930 . S
H2310 C2320 0.930 . S
H2311 C2323 0.929 . S
H2312 C2326 0.930 . S
H2313 C2328 0.960 . S
H2314 C2328 0.960 . S
H2315 C2328 0.960 . S
C2316 H2308 0.929 . S
C2316 C2317 1.377 . S
C2316 C2318 1.384 . S
C2317 C2316 1.377 . S
C2317 C2323 1.390 . S
C2318 H2309 0.930 . S
C2318 C2316 1.384 . S
C2318 C2319 1.372 . S
C2319 C2318 1.372 . S
C2319 C2320 1.400 . S
C2319 C2324 1.490 . S
C2320 H2310 0.930 . S
C2320 C2319 1.400 . S
C2320 C2323 1.386 . S
H2321 C2337 0.930 . S
H2322 C2338 0.931 . S
C2323 H2311 0.929 . S
C2323 C2317 1.390 . S
C2323 C2320 1.386 . S
C2324 C2319 1.490 . S
C2324 C2326 1.395 1_565 S
C2324 C2327 1.403 . S
H2325 C2331 0.930 . S
C2326 H2312 0.930 . S
C2326 C2324 1.395 1_545 S
C2326 C2329 1.403 . S
C2327 C2324 1.403 . S
C2327 C2328 1.524 . S
C2327 C2331 1.400 . S
C2328 H2313 0.960 . S
C2328 H2314 0.960 . S
C2328 H2315 0.960 . S
C2328 C2327 1.524 . S
C2329 C2326 1.403 . S
C2329 C2330 1.392 . S
C2329 C2333 1.495 . S
C2330 C2329 1.392 . S
C2330 C2331 1.385 1_545 S
C2330 C2332 1.478 . S
C2331 H2325 0.930 . S
C2331 C2327 1.400 . S
C2331 C2330 1.385 1_565 S
C2332 C2330 1.478 . S
C2332 C2334 1.381 . S
C2332 C2338 1.383 . S
C2333 C2329 1.495 . S
C2333 H2339 0.959 . S
C2333 H2340 0.961 . S
C2333 H2341 0.960 . S
C2334 C2332 1.381 . S
C2334 C2335 1.394 . S
C2334 H2342 0.930 . S
C2335 C2334 1.394 . S
C2335 C2336 1.383 . S
C2335 H2343 0.929 . S
C2336 C2335 1.383 . S
C2336 C2337 1.377 . S
C2337 H2321 0.930 . S
C2337 C2336 1.377 . S
C2337 C2338 1.379 . S
C2338 H2322 0.931 . S
C2338 C2332 1.383 . S
C2338 C2337 1.379 . S
H2339 C2333 0.959 . S
H2340 C2333 0.961 . S
H2341 C2333 0.960 . S
H2342 C2334 0.930 . S
H2343 C2335 0.929 . S
H2344 C2352 0.929 . S
H2345 C2354 0.930 . S
H2346 C2356 0.932 . S
H2347 C2359 0.929 . S
H2348 C2362 0.930 . S
H2349 C2364 0.960 . S
H2350 C2364 0.960 1_565 S
H2351 C2364 0.960 . S
C2352 H2344 0.929 . S
C2352 C2353 1.377 . S
C2352 C2354 1.384 . S
C2353 C2352 1.377 . S
C2353 C2359 1.390 . S
C2354 H2345 0.930 . S
C2354 C2352 1.384 . S
C2354 C2355 1.372 . S
C2355 C2354 1.372 . S
C2355 C2356 1.400 . S
C2355 C2360 1.493 . S
C2356 H2346 0.932 . S
C2356 C2355 1.400 . S
C2356 C2359 1.386 . S
H2357 C2373 0.930 . S
H2358 C2374 0.931 . S
C2359 H2347 0.929 . S
C2359 C2353 1.390 . S
C2359 C2356 1.386 . S
C2360 C2355 1.493 . S
C2360 C2362 1.370 1_556 S
C2360 C2363 1.425 1_565 S
H2361 C2367 0.930 . S
C2362 H2348 0.930 . S
C2362 C2360 1.370 1_554 S
C2362 C2365 1.403 1_455 S
C2363 C2360 1.425 1_545 S
C2363 C2364 1.524 . S
C2363 C2367 1.400 1_455 S
C2364 H2349 0.960 . S
C2364 H2350 0.960 1_545 S
C2364 H2351 0.960 . S
C2364 C2363 1.524 . S
C2365 C2362 1.403 1_655 S
C2365 C2366 1.392 1_565 S
C2365 C2369 1.495 . S
C2366 C2365 1.392 1_545 S
C2366 C2367 1.385 1_554 S
C2366 C2368 1.478 . S
C2367 H2361 0.930 . S
C2367 C2363 1.400 1_655 S
C2367 C2366 1.385 1_556 S
C2368 C2366 1.478 . S
C2368 C2370 1.381 . S
C2368 C2374 1.383 . S
C2369 C2365 1.495 . S
C2369 H2375 0.959 . S
C2369 H2376 0.961 1_565 S
C2369 H2377 0.960 . S
C2370 C2368 1.381 . S
C2370 C2371 1.394 . S
C2370 H2378 0.972 1_554 S
C2371 C2370 1.394 . S
C2371 C2372 1.383 . S
C2371 H2379 0.923 1_554 S
C2372 C2371 1.383 . S
C2372 C2373 1.377 . S
C2373 H2357 0.930 . S
C2373 C2372 1.377 . S
C2373 C2374 1.379 . S
C2374 H2358 0.931 . S
C2374 C2368 1.383 . S
C2374 C2373 1.379 . S
H2375 C2369 0.959 . S
H2376 C2369 0.961 1_545 S
H2377 C2369 0.960 . S
H2378 C2370 0.972 1_556 S
H2379 C2371 0.923 1_556 S
H2380 C2388 0.929 . S
H2381 C2390 0.930 . S
H2382 C2392 0.930 . S
H2383 C2395 0.929 . S
H2384 C2398 0.930 . S
H2385 C2400 0.960 . S
H2386 C2400 0.960 . S
H2387 C2400 0.960 . S
C2388 H2380 0.929 . S
C2388 C2389 1.377 . S
C2388 C2390 1.384 . S
C2389 C2388 1.377 . S
C2389 C2395 1.390 1_554 S
C2390 H2381 0.930 . S
C2390 C2388 1.384 . S
C2390 C2391 1.372 . S
C2391 C2390 1.372 . S
C2391 C2392 1.400 1_554 S
C2391 C2396 1.490 . S
C2392 H2382 0.930 . S
C2392 C2391 1.400 1_556 S
C2392 C2395 1.386 . S
H2393 C2409 0.930 . S
H2394 C2410 0.931 . S
C2395 H2383 0.929 . S
C2395 C2389 1.390 1_556 S
C2395 C2392 1.386 . S
C2396 C2391 1.490 . S
C2396 C2398 1.395 . S
C2396 C2399 1.403 1_554 S
H2397 C2403 0.930 . S
C2398 H2384 0.930 . S
C2398 C2396 1.395 . S
C2398 C2401 1.403 . S
C2399 C2396 1.403 1_556 S
C2399 C2400 1.524 . S
C2399 C2403 1.400 . S
C2400 H2385 0.960 . S
C2400 H2386 0.960 . S
C2400 H2387 0.960 . S
C2400 C2399 1.524 . S
C2401 C2398 1.403 . S
C2401 C2402 1.392 . S
C2401 C2405 1.495 . S
C2402 C2401 1.392 . S
C2402 C2403 1.385 1_554 S
C2402 C2404 1.478 . S
C2403 H2397 0.930 . S
C2403 C2399 1.400 . S
C2403 C2402 1.385 1_556 S
C2404 C2402 1.478 . S
C2404 C2406 1.381 . S
C2404 C2410 1.383 1_554 S
C2405 C2401 1.495 . S
C2405 H2411 0.959 . S
C2405 H2412 0.961 . S
C2405 H2413 0.960 . S
C2406 C2404 1.381 . S
C2406 C2407 1.394 . S
C2406 H2414 0.930 . S
C2407 C2406 1.394 . S
C2407 C2408 1.383 1_554 S
C2407 H2415 0.929 . S
C2408 C2407 1.383 1_556 S
C2408 C2409 1.377 . S
C2409 H2393 0.930 . S
C2409 C2408 1.377 . S
C2409 C2410 1.379 . S
C2410 H2394 0.931 . S
C2410 C2404 1.383 1_556 S
C2410 C2409 1.379 . S
H2411 C2405 0.959 . S
H2412 C2405 0.961 . S
H2413 C2405 0.960 . S
H2414 C2406 0.930 . S
H2415 C2407 0.929 . S
H2416 C2424 0.929 . S
H2417 C2426 0.930 . S
H2418 C2428 0.930 . S
H2419 C2431 0.929 . S
H2420 C2434 0.928 1_655 S
H2421 C2436 0.960 . S
H2422 C2436 0.960 . S
H2423 C2436 0.960 . S
C2424 H2416 0.929 . S
C2424 C2425 1.377 . S
C2424 C2426 1.384 . S
C2425 C2424 1.377 . S
C2425 C2431 1.390 . S
C2426 H2417 0.930 . S
C2426 C2424 1.384 . S
C2426 C2427 1.372 . S
C2427 C2426 1.372 . S
C2427 C2428 1.400 . S
C2427 C2432 1.490 . S
C2428 H2418 0.930 . S
C2428 C2427 1.400 . S
C2428 C2431 1.386 . S
H2429 C2445 0.930 . S
H2430 C2446 0.931 . S
C2431 H2419 0.929 . S
C2431 C2425 1.390 . S
C2431 C2428 1.386 . S
C2432 C2427 1.490 . S
C2432 C2434 1.373 1_655 S
C2432 C2435 1.403 . S
H2433 C2439 0.930 . S
C2434 H2420 0.928 1_455 S
C2434 C2432 1.373 1_455 S
C2434 C2437 1.427 . S
C2435 C2432 1.403 . S
C2435 C2436 1.524 . S
C2435 C2439 1.400 1_655 S
C2436 H2421 0.960 . S
C2436 H2422 0.960 . S
C2436 H2423 0.960 . S
C2436 C2435 1.524 . S
C2437 C2434 1.427 . S
C2437 C2438 1.392 . S
C2437 C2441 1.495 . S
C2438 C2437 1.392 . S
C2438 C2439 1.385 . S
C2438 C2440 1.478 . S
C2439 H2433 0.930 . S
C2439 C2435 1.400 1_455 S
C2439 C2438 1.385 . S
C2440 C2438 1.478 . S
C2440 C2442 1.381 . S
C2440 C2446 1.383 . S
C2441 C2437 1.495 . S
C2441 H2447 0.959 . S
C2441 H2448 0.961 . S
C2441 H2449 0.960 . S
C2442 C2440 1.381 . S
C2442 C2443 1.394 . S
C2442 H2450 0.930 . S
C2443 C2442 1.394 . S
C2443 C2444 1.383 . S
C2443 H2451 0.929 . S
C2444 C2443 1.383 . S
C2444 C2445 1.377 . S
C2445 H2429 0.930 . S
C2445 C2444 1.377 . S
C2445 C2446 1.379 . S
C2446 H2430 0.931 . S
C2446 C2440 1.383 . S
C2446 C2445 1.379 . S
H2447 C2441 0.959 . S
H2448 C2441 0.961 . S
H2449 C2441 0.960 . S
H2450 C2442 0.930 . S
H2451 C2443 0.929 . S
H2452 C2460 0.929 . S
H2453 C2462 0.930 . S
H2454 C2464 0.930 . S
H2455 C2467 0.929 . S
H2456 C2470 0.930 . S
H2457 C2472 0.960 . S
H2458 C2472 0.960 . S
H2459 C2472 0.960 . S
C2460 H2452 0.929 . S
C2460 C2461 1.377 . S
C2460 C2462 1.384 . S
C2461 C2460 1.377 . S
C2461 C2467 1.390 . S
C2462 H2453 0.930 . S
C2462 C2460 1.384 . S
C2462 C2463 1.372 . S
C2463 C2462 1.372 . S
C2463 C2464 1.400 . S
C2463 C2468 1.490 . S
C2464 H2454 0.930 . S
C2464 C2463 1.400 . S
C2464 C2467 1.386 . S
H2465 C2481 0.930 . S
H2466 C2482 0.931 . S
C2467 H2455 0.929 . S
C2467 C2461 1.390 . S
C2467 C2464 1.386 . S
C2468 C2463 1.490 . S
C2468 C2470 1.395 1_565 S
C2468 C2471 1.403 . S
H2469 C2475 0.930 . S
C2470 H2456 0.930 . S
C2470 C2468 1.395 1_545 S
C2470 C2473 1.403 . S
C2471 C2468 1.403 . S
C2471 C2472 1.524 . S
C2471 C2475 1.400 . S
C2472 H2457 0.960 . S
C2472 H2458 0.960 . S
C2472 H2459 0.960 . S
C2472 C2471 1.524 . S
C2473 C2470 1.403 . S
C2473 C2474 1.392 . S
C2473 C2477 1.495 . S
C2474 C2473 1.392 . S
C2474 C2475 1.385 1_545 S
C2474 C2476 1.478 . S
C2475 H2469 0.930 . S
C2475 C2471 1.400 . S
C2475 C2474 1.385 1_565 S
C2476 C2474 1.478 . S
C2476 C2478 1.381 . S
C2476 C2482 1.383 . S
C2477 C2473 1.495 . S
C2477 H2483 0.959 . S
C2477 H2484 0.961 . S
C2477 H2485 0.960 . S
C2478 C2476 1.381 . S
C2478 C2479 1.394 . S
C2478 H2486 0.930 . S
C2479 C2478 1.394 . S
C2479 C2480 1.383 . S
C2479 H2487 0.929 . S
C2480 C2479 1.383 . S
C2480 C2481 1.377 . S
C2481 H2465 0.930 . S
C2481 C2480 1.377 . S
C2481 C2482 1.379 . S
C2482 H2466 0.931 . S
C2482 C2476 1.383 . S
C2482 C2481 1.379 . S
H2483 C2477 0.959 . S
H2484 C2477 0.961 . S
H2485 C2477 0.960 . S
H2486 C2478 0.930 . S
H2487 C2479 0.929 . S
H2488 C2496 0.929 . S
H2489 C2498 0.930 . S
H2490 C2500 0.930 . S
H2491 C2503 0.929 . S
H2492 C2506 0.930 . S
H2493 C2508 0.957 1_554 S
H2494 C2508 1.014 . S
H2495 C2508 0.914 1_554 S
C2496 H2488 0.929 . S
C2496 C2497 1.377 . S
C2496 C2498 1.384 . S
C2497 C2496 1.377 . S
C2497 C2503 1.390 1_556 S
C2498 H2489 0.930 . S
C2498 C2496 1.384 . S
C2498 C2499 1.372 . S
C2499 C2498 1.372 . S
C2499 C2500 1.400 1_556 S
C2499 C2504 1.490 . S
C2500 H2490 0.930 . S
C2500 C2499 1.400 1_554 S
C2500 C2503 1.386 . S
H2501 C2517 0.930 . S
H2502 C2518 0.931 . S
C2503 H2491 0.929 . S
C2503 C2497 1.390 1_554 S
C2503 C2500 1.386 . S
C2504 C2499 1.490 . S
C2504 C2506 1.395 . S
C2504 C2507 1.406 . S
H2505 C2511 0.933 . S
C2506 H2492 0.930 . S
C2506 C2504 1.395 . S
C2506 C2509 1.403 . S
C2507 C2504 1.406 . S
C2507 C2508 1.523 . S
C2507 C2511 1.397 1_556 S
C2508 H2493 0.957 1_556 S
C2508 H2494 1.014 . S
C2508 H2495 0.914 1_556 S
C2508 C2507 1.523 . S
C2509 C2506 1.403 . S
C2509 C2510 1.392 1_556 S
C2509 C2513 1.495 . S
C2510 C2509 1.392 1_554 S
C2510 C2511 1.385 . S
C2510 C2512 1.478 . S
C2511 H2505 0.933 . S
C2511 C2507 1.397 1_554 S
C2511 C2510 1.385 . S
C2512 C2510 1.478 . S
C2512 C2514 1.381 1_554 S
C2512 C2518 1.383 . S
C2513 C2509 1.495 . S
C2513 H2519 0.959 . S
C2513 H2520 0.961 1_556 S
C2513 H2521 0.960 . S
C2514 C2512 1.381 1_556 S
C2514 C2515 1.394 . S
C2514 H2522 0.930 . S
C2515 C2514 1.394 . S
C2515 C2516 1.383 1_556 S
C2515 H2523 0.929 . S
C2516 C2515 1.383 1_554 S
C2516 C2517 1.377 . S
C2517 H2501 0.930 . S
C2517 C2516 1.377 . S
C2517 C2518 1.379 . S
C2518 H2502 0.931 . S
C2518 C2512 1.383 . S
C2518 C2517 1.379 . S
H2519 C2513 0.959 . S
H2520 C2513 0.961 1_554 S
H2521 C2513 0.960 . S
H2522 C2514 0.930 . S
H2523 C2515 0.929 . S
H2524 C2532 0.929 . S
H2525 C2534 0.930 . S
H2526 C2536 0.930 . S
H2527 C2539 0.929 . S
H2528 C2542 0.930 . S
H2529 C2544 0.960 . S
H2530 C2544 0.960 . S
H2531 C2544 0.960 . S
C2532 H2524 0.929 . S
C2532 C2533 1.377 . S
C2532 C2534 1.384 . S
C2533 C2532 1.377 . S
C2533 C2539 1.390 . S
C2534 H2525 0.930 . S
C2534 C2532 1.384 . S
C2534 C2535 1.372 . S
C2535 C2534 1.372 . S
C2535 C2536 1.400 . S
C2535 C2540 1.490 . S
C2536 H2526 0.930 . S
C2536 C2535 1.400 . S
C2536 C2539 1.386 . S
H2537 C2553 0.930 . S
H2538 C2554 0.931 . S
C2539 H2527 0.929 . S
C2539 C2533 1.390 . S
C2539 C2536 1.386 . S
C2540 C2535 1.490 . S
C2540 C2542 1.395 . S
C2540 C2543 1.403 . S
H2541 C2547 0.930 . S
C2542 H2528 0.930 . S
C2542 C2540 1.395 . S
C2542 C2545 1.403 . S
C2543 C2540 1.403 . S
C2543 C2544 1.524 . S
C2543 C2547 1.400 . S
C2544 H2529 0.960 . S
C2544 H2530 0.960 . S
C2544 H2531 0.960 . S
C2544 C2543 1.524 . S
C2545 C2542 1.403 . S
C2545 C2546 1.392 . S
C2545 C2549 1.495 . S
C2546 C2545 1.392 . S
C2546 C2547 1.385 . S
C2546 C2548 1.478 . S
C2547 H2541 0.930 . S
C2547 C2543 1.400 . S
C2547 C2546 1.385 . S
C2548 C2546 1.478 . S
C2548 C2550 1.381 . S
C2548 C2554 1.383 . S
C2549 C2545 1.495 . S
C2549 H2555 0.959 . S
C2549 H2556 0.961 . S
C2549 H2557 0.960 . S
C2550 C2548 1.381 . S
C2550 C2551 1.394 . S
C2550 H2558 0.930 . S
C2551 C2550 1.394 . S
C2551 C2552 1.383 . S
C2551 H2559 0.929 . S
C2552 C2551 1.383 . S
C2552 C2553 1.377 . S
C2553 H2537 0.930 . S
C2553 C2552 1.377 . S
C2553 C2554 1.379 . S
C2554 H2538 0.931 . S
C2554 C2548 1.383 . S
C2554 C2553 1.379 . S
H2555 C2549 0.959 . S
H2556 C2549 0.961 . S
H2557 C2549 0.960 . S
H2558 C2550 0.930 . S
H2559 C2551 0.929 . S
H2560 C2568 0.929 . S
H2561 C2570 0.930 . S
H2562 C2572 0.930 . S
H2563 C2575 0.929 . S
H2564 C2578 0.930 . S
H2565 C2580 0.960 1_455 S
H2566 C2580 0.960 . S
H2567 C2580 0.960 . S
C2568 H2560 0.929 . S
C2568 C2569 1.377 . S
C2568 C2570 1.384 . S
C2569 C2568 1.377 . S
C2569 C2575 1.390 . S
C2570 H2561 0.930 . S
C2570 C2568 1.384 . S
C2570 C2571 1.372 . S
C2571 C2570 1.372 . S
C2571 C2572 1.400 . S
C2571 C2576 1.490 . S
C2572 H2562 0.930 . S
C2572 C2571 1.400 . S
C2572 C2575 1.386 . S
H2573 C2589 0.930 . S
H2574 C2590 0.931 . S
C2575 H2563 0.929 . S
C2575 C2569 1.390 . S
C2575 C2572 1.386 . S
C2576 C2571 1.490 . S
C2576 C2578 1.395 . S
C2576 C2579 1.403 . S
H2577 C2583 0.930 . S
C2578 H2564 0.930 . S
C2578 C2576 1.395 . S
C2578 C2581 1.403 1_655 S
C2579 C2576 1.403 . S
C2579 C2580 1.524 . S
C2579 C2583 1.400 1_655 S
C2580 H2565 0.960 1_655 S
C2580 H2566 0.960 . S
C2580 H2567 0.960 . S
C2580 C2579 1.524 . S
C2581 C2578 1.403 1_455 S
C2581 C2582 1.392 . S
C2581 C2585 1.495 . S
C2582 C2581 1.392 . S
C2582 C2583 1.385 . S
C2582 C2584 1.478 . S
C2583 H2577 0.930 . S
C2583 C2579 1.400 1_455 S
C2583 C2582 1.385 . S
C2584 C2582 1.478 . S
C2584 C2586 1.381 . S
C2584 C2590 1.383 . S
C2585 C2581 1.495 . S
C2585 H2591 0.959 1_455 S
C2585 H2592 0.961 . S
C2585 H2593 0.960 . S
C2586 C2584 1.381 . S
C2586 C2587 1.394 . S
C2586 H2594 0.930 . S
C2587 C2586 1.394 . S
C2587 C2588 1.383 . S
C2587 H2595 0.929 . S
C2588 C2587 1.383 . S
C2588 C2589 1.377 . S
C2589 H2573 0.930 . S
C2589 C2588 1.377 . S
C2589 C2590 1.379 . S
C2590 H2574 0.931 . S
C2590 C2584 1.383 . S
C2590 C2589 1.379 . S
H2591 C2585 0.959 1_655 S
H2592 C2585 0.961 . S
H2593 C2585 0.960 . S
H2594 C2586 0.930 . S
H2595 C2587 0.929 . S
H2596 C2604 0.929 . S
H2597 C2606 0.930 . S
H2598 C2608 0.930 . S
H2599 C2611 0.929 . S
H2600 C2614 0.930 . S
H2601 C2616 0.960 . S
H2602 C2616 0.960 . S
H2603 C2616 0.960 . S
C2604 H2596 0.929 . S
C2604 C2605 1.377 . S
C2604 C2606 1.384 . S
C2605 C2604 1.377 . S
C2605 C2611 1.390 . S
C2606 H2597 0.930 . S
C2606 C2604 1.384 . S
C2606 C2607 1.372 . S
C2607 C2606 1.372 . S
C2607 C2608 1.400 . S
C2607 C2612 1.490 . S
C2608 H2598 0.930 . S
C2608 C2607 1.400 . S
C2608 C2611 1.386 . S
H2609 C2625 0.930 . S
H2610 C2626 0.931 . S
C2611 H2599 0.929 . S
C2611 C2605 1.390 . S
C2611 C2608 1.386 . S
C2612 C2607 1.490 . S
C2612 C2614 1.395 . S
C2612 C2615 1.403 . S
H2613 C2619 0.930 . S
C2614 H2600 0.930 . S
C2614 C2612 1.395 . S
C2614 C2617 1.403 . S
C2615 C2612 1.403 . S
C2615 C2616 1.524 . S
C2615 C2619 1.400 . S
C2616 H2601 0.960 . S
C2616 H2602 0.960 . S
C2616 H2603 0.960 . S
C2616 C2615 1.524 . S
C2617 C2614 1.403 . S
C2617 C2618 1.392 . S
C2617 C2621 1.495 . S
C2618 C2617 1.392 . S
C2618 C2619 1.385 . S
C2618 C2620 1.478 . S
C2619 H2613 0.930 . S
C2619 C2615 1.400 . S
C2619 C2618 1.385 . S
C2620 C2618 1.478 . S
C2620 C2622 1.381 . S
C2620 C2626 1.383 . S
C2621 C2617 1.495 . S
C2621 H2627 0.959 . S
C2621 H2628 0.961 . S
C2621 H2629 0.960 . S
C2622 C2620 1.381 . S
C2622 C2623 1.394 . S
C2622 H2630 0.930 . S
C2623 C2622 1.394 . S
C2623 C2624 1.383 . S
C2623 H2631 0.929 . S
C2624 C2623 1.383 . S
C2624 C2625 1.377 . S
C2625 H2609 0.930 . S
C2625 C2624 1.377 . S
C2625 C2626 1.379 . S
C2626 H2610 0.931 . S
C2626 C2620 1.383 . S
C2626 C2625 1.379 . S
H2627 C2621 0.959 . S
H2628 C2621 0.961 . S
H2629 C2621 0.960 . S
H2630 C2622 0.930 . S
H2631 C2623 0.929 . S
H2632 C2640 0.929 . S
H2633 C2642 0.930 . S
H2634 C2644 0.930 . S
H2635 C2647 0.929 . S
H2636 C2650 0.930 . S
H2637 C2652 0.960 . S
H2638 C2652 0.960 . S
H2639 C2652 0.960 . S
C2640 H2632 0.929 . S
C2640 C2641 1.377 . S
C2640 C2642 1.384 . S
C2641 C2640 1.377 . S
C2641 C2647 1.390 . S
C2642 H2633 0.930 . S
C2642 C2640 1.384 . S
C2642 C2643 1.372 . S
C2643 C2642 1.372 . S
C2643 C2644 1.400 . S
C2643 C2648 1.490 . S
C2644 H2634 0.930 . S
C2644 C2643 1.400 . S
C2644 C2647 1.386 . S
H2645 C2661 0.930 . S
H2646 C2662 0.931 . S
C2647 H2635 0.929 . S
C2647 C2641 1.390 . S
C2647 C2644 1.386 . S
C2648 C2643 1.490 . S
C2648 C2650 1.395 . S
C2648 C2651 1.403 . S
H2649 C2655 0.930 . S
C2650 H2636 0.930 . S
C2650 C2648 1.395 . S
C2650 C2653 1.403 . S
C2651 C2648 1.403 . S
C2651 C2652 1.524 . S
C2651 C2655 1.400 . S
C2652 H2637 0.960 . S
C2652 H2638 0.960 . S
C2652 H2639 0.960 . S
C2652 C2651 1.524 . S
C2653 C2650 1.403 . S
C2653 C2654 1.392 . S
C2653 C2657 1.495 . S
C2654 C2653 1.392 . S
C2654 C2655 1.385 . S
C2654 C2656 1.478 . S
C2655 H2649 0.930 . S
C2655 C2651 1.400 . S
C2655 C2654 1.385 . S
C2656 C2654 1.478 . S
C2656 C2658 1.381 . S
C2656 C2662 1.383 . S
C2657 C2653 1.495 . S
C2657 H2663 0.959 . S
C2657 H2664 0.961 . S
C2657 H2665 0.960 . S
C2658 C2656 1.381 . S
C2658 C2659 1.394 . S
C2658 H2666 0.930 . S
C2659 C2658 1.394 . S
C2659 C2660 1.383 . S
C2659 H2667 0.929 . S
C2660 C2659 1.383 . S
C2660 C2661 1.377 . S
C2661 H2645 0.930 . S
C2661 C2660 1.377 . S
C2661 C2662 1.379 . S
C2662 H2646 0.931 . S
C2662 C2656 1.383 . S
C2662 C2661 1.379 . S
H2663 C2657 0.959 . S
H2664 C2657 0.961 . S
H2665 C2657 0.960 . S
H2666 C2658 0.930 . S
H2667 C2659 0.929 . S
H2668 C2676 0.929 . S
H2669 C2678 0.930 . S
H2670 C2680 0.930 . S
H2671 C2683 0.929 . S
H2672 C2686 0.930 . S
H2673 C2688 0.960 . S
H2674 C2688 0.960 . S
H2675 C2688 0.960 . S
C2676 H2668 0.929 . S
C2676 C2677 1.377 . S
C2676 C2678 1.384 . S
C2677 C2676 1.377 . S
C2677 C2683 1.390 . S
C2678 H2669 0.930 . S
C2678 C2676 1.384 . S
C2678 C2679 1.372 . S
C2679 C2678 1.372 . S
C2679 C2680 1.400 . S
C2679 C2684 1.490 . S
C2680 H2670 0.930 . S
C2680 C2679 1.400 . S
C2680 C2683 1.386 . S
H2681 C2697 0.930 . S
H2682 C2698 0.931 . S
C2683 H2671 0.929 . S
C2683 C2677 1.390 . S
C2683 C2680 1.386 . S
C2684 C2679 1.490 . S
C2684 C2686 1.395 . S
C2684 C2687 1.403 . S
H2685 C2691 0.930 . S
C2686 H2672 0.930 . S
C2686 C2684 1.395 . S
C2686 C2689 1.403 . S
C2687 C2684 1.403 . S
C2687 C2688 1.524 . S
C2687 C2691 1.400 . S
C2688 H2673 0.960 . S
C2688 H2674 0.960 . S
C2688 H2675 0.960 . S
C2688 C2687 1.524 . S
C2689 C2686 1.403 . S
C2689 C2690 1.392 . S
C2689 C2693 1.495 . S
C2690 C2689 1.392 . S
C2690 C2691 1.385 . S
C2690 C2692 1.478 . S
C2691 H2685 0.930 . S
C2691 C2687 1.400 . S
C2691 C2690 1.385 . S
C2692 C2690 1.478 . S
C2692 C2694 1.381 . S
C2692 C2698 1.383 . S
C2693 C2689 1.495 . S
C2693 H2699 0.959 . S
C2693 H2700 0.961 . S
C2693 H2701 0.960 . S
C2694 C2692 1.381 . S
C2694 C2695 1.394 . S
C2694 H2702 0.930 . S
C2695 C2694 1.394 . S
C2695 C2696 1.383 . S
C2695 H2703 0.929 . S
C2696 C2695 1.383 . S
C2696 C2697 1.377 . S
C2697 H2681 0.930 . S
C2697 C2696 1.377 . S
C2697 C2698 1.379 . S
C2698 H2682 0.931 . S
C2698 C2692 1.383 . S
C2698 C2697 1.379 . S
H2699 C2693 0.959 . S
H2700 C2693 0.961 . S
H2701 C2693 0.960 . S
H2702 C2694 0.930 . S
H2703 C2695 0.929 . S
H2704 C2712 0.929 . S
H2705 C2714 0.930 . S
H2706 C2716 0.930 . S
H2707 C2719 0.929 . S
H2708 C2722 0.930 . S
H2709 C2724 0.960 . S
H2710 C2724 0.960 . S
H2711 C2724 0.960 . S
C2712 H2704 0.929 . S
C2712 C2713 1.377 . S
C2712 C2714 1.384 . S
C2713 C2712 1.377 . S
C2713 C2719 1.390 . S
C2714 H2705 0.930 . S
C2714 C2712 1.384 . S
C2714 C2715 1.372 . S
C2715 C2714 1.372 . S
C2715 C2716 1.400 . S
C2715 C2720 1.490 . S
C2716 H2706 0.930 . S
C2716 C2715 1.400 . S
C2716 C2719 1.386 . S
H2717 C2733 0.930 . S
H2718 C2734 0.931 . S
C2719 H2707 0.929 . S
C2719 C2713 1.390 . S
C2719 C2716 1.386 . S
C2720 C2715 1.490 . S
C2720 C2722 1.395 . S
C2720 C2723 1.403 . S
H2721 C2727 0.930 . S
C2722 H2708 0.930 . S
C2722 C2720 1.395 . S
C2722 C2725 1.403 . S
C2723 C2720 1.403 . S
C2723 C2724 1.524 . S
C2723 C2727 1.400 . S
C2724 H2709 0.960 . S
C2724 H2710 0.960 . S
C2724 H2711 0.960 . S
C2724 C2723 1.524 . S
C2725 C2722 1.403 . S
C2725 C2726 1.392 . S
C2725 C2729 1.495 . S
C2726 C2725 1.392 . S
C2726 C2727 1.385 . S
C2726 C2728 1.478 . S
C2727 H2721 0.930 . S
C2727 C2723 1.400 . S
C2727 C2726 1.385 . S
C2728 C2726 1.478 . S
C2728 C2730 1.381 . S
C2728 C2734 1.383 . S
C2729 C2725 1.495 . S
C2729 H2735 0.959 . S
C2729 H2736 0.961 . S
C2729 H2737 0.960 . S
C2730 C2728 1.381 . S
C2730 C2731 1.394 . S
C2730 H2738 0.930 . S
C2731 C2730 1.394 . S
C2731 C2732 1.383 . S
C2731 H2739 0.929 . S
C2732 C2731 1.383 . S
C2732 C2733 1.377 . S
C2733 H2717 0.930 . S
C2733 C2732 1.377 . S
C2733 C2734 1.379 . S
C2734 H2718 0.931 . S
C2734 C2728 1.383 . S
C2734 C2733 1.379 . S
H2735 C2729 0.959 . S
H2736 C2729 0.961 . S
H2737 C2729 0.960 . S
H2738 C2730 0.930 . S
H2739 C2731 0.929 . S
H2740 C2748 0.929 . S
H2741 C2750 0.930 . S
H2742 C2752 0.930 . S
H2743 C2755 0.929 . S
H2744 C2758 0.930 . S
H2745 C2760 0.960 . S
H2746 C2760 0.960 . S
H2747 C2760 0.960 . S
C2748 H2740 0.929 . S
C2748 C2749 1.377 . S
C2748 C2750 1.384 . S
C2749 C2748 1.377 . S
C2749 C2755 1.390 . S
C2750 H2741 0.930 . S
C2750 C2748 1.384 . S
C2750 C2751 1.372 . S
C2751 C2750 1.372 . S
C2751 C2752 1.400 . S
C2751 C2756 1.490 . S
C2752 H2742 0.930 . S
C2752 C2751 1.400 . S
C2752 C2755 1.386 . S
H2753 C2769 0.930 . S
H2754 C2770 0.931 . S
C2755 H2743 0.929 . S
C2755 C2749 1.390 . S
C2755 C2752 1.386 . S
C2756 C2751 1.490 . S
C2756 C2758 1.395 . S
C2756 C2759 1.403 . S
H2757 C2763 0.930 . S
C2758 H2744 0.930 . S
C2758 C2756 1.395 . S
C2758 C2761 1.403 1_545 S
C2759 C2756 1.403 . S
C2759 C2760 1.524 . S
C2759 C2763 1.400 1_545 S
C2760 H2745 0.960 . S
C2760 H2746 0.960 . S
C2760 H2747 0.960 . S
C2760 C2759 1.524 . S
C2761 C2758 1.403 1_565 S
C2761 C2762 1.392 . S
C2761 C2765 1.495 . S
C2762 C2761 1.392 . S
C2762 C2763 1.385 . S
C2762 C2764 1.478 . S
C2763 H2757 0.930 . S
C2763 C2759 1.400 1_565 S
C2763 C2762 1.385 . S
C2764 C2762 1.478 . S
C2764 C2766 1.381 . S
C2764 C2770 1.383 . S
C2765 C2761 1.495 . S
C2765 H2771 0.959 . S
C2765 H2772 0.961 . S
C2765 H2773 0.960 . S
C2766 C2764 1.381 . S
C2766 C2767 1.394 . S
C2766 H2774 0.930 . S
C2767 C2766 1.394 . S
C2767 C2768 1.383 . S
C2767 H2775 0.929 . S
C2768 C2767 1.383 . S
C2768 C2769 1.377 . S
C2769 H2753 0.930 . S
C2769 C2768 1.377 . S
C2769 C2770 1.379 . S
C2770 H2754 0.931 . S
C2770 C2764 1.383 . S
C2770 C2769 1.379 . S
H2771 C2765 0.959 . S
H2772 C2765 0.961 . S
H2773 C2765 0.960 . S
H2774 C2766 0.930 . S
H2775 C2767 0.929 . S
H2776 C2784 0.929 . S
H2777 C2786 0.930 . S
H2778 C2788 0.930 . S
H2779 C2791 0.929 . S
H2780 C2794 0.930 . S
H2781 C2796 0.960 . S
H2782 C2796 0.960 . S
H2783 C2796 0.960 . S
C2784 H2776 0.929 . S
C2784 C2785 1.377 . S
C2784 C2786 1.384 . S
C2785 C2784 1.377 . S
C2785 C2791 1.390 . S
C2786 H2777 0.930 . S
C2786 C2784 1.384 . S
C2786 C2787 1.372 . S
C2787 C2786 1.372 . S
C2787 C2788 1.400 . S
C2787 C2792 1.490 . S
C2788 H2778 0.930 . S
C2788 C2787 1.400 . S
C2788 C2791 1.386 . S
H2789 C2805 0.930 . S
H2790 C2806 0.931 . S
C2791 H2779 0.929 . S
C2791 C2785 1.390 . S
C2791 C2788 1.386 . S
C2792 C2787 1.490 . S
C2792 C2794 1.395 . S
C2792 C2795 1.403 . S
H2793 C2799 0.930 . S
C2794 H2780 0.930 . S
C2794 C2792 1.395 . S
C2794 C2797 1.403 . S
C2795 C2792 1.403 . S
C2795 C2796 1.524 . S
C2795 C2799 1.400 . S
C2796 H2781 0.960 . S
C2796 H2782 0.960 . S
C2796 H2783 0.960 . S
C2796 C2795 1.524 . S
C2797 C2794 1.403 . S
C2797 C2798 1.392 . S
C2797 C2801 1.495 . S
C2798 C2797 1.392 . S
C2798 C2799 1.385 . S
C2798 C2800 1.478 . S
C2799 H2793 0.930 . S
C2799 C2795 1.400 . S
C2799 C2798 1.385 . S
C2800 C2798 1.478 . S
C2800 C2802 1.381 . S
C2800 C2806 1.383 . S
C2801 C2797 1.495 . S
C2801 H2807 0.959 . S
C2801 H2808 0.961 . S
C2801 H2809 0.960 . S
C2802 C2800 1.381 . S
C2802 C2803 1.394 . S
C2802 H2810 0.930 . S
C2803 C2802 1.394 . S
C2803 C2804 1.383 . S
C2803 H2811 0.929 . S
C2804 C2803 1.383 . S
C2804 C2805 1.377 . S
C2805 H2789 0.930 . S
C2805 C2804 1.377 . S
C2805 C2806 1.379 . S
C2806 H2790 0.931 . S
C2806 C2800 1.383 . S
C2806 C2805 1.379 . S
H2807 C2801 0.959 . S
H2808 C2801 0.961 . S
H2809 C2801 0.960 . S
H2810 C2802 0.930 . S
H2811 C2803 0.929 . S
H2812 C2820 0.929 . S
H2813 C2822 0.930 . S
H2814 C2824 0.930 . S
H2815 C2827 0.929 . S
H2816 C2830 0.930 . S
H2817 C2832 0.960 . S
H2818 C2832 0.960 . S
H2819 C2832 0.960 . S
C2820 H2812 0.929 . S
C2820 C2821 1.377 . S
C2820 C2822 1.384 . S
C2821 C2820 1.377 . S
C2821 C2827 1.390 1_556 S
C2822 H2813 0.930 . S
C2822 C2820 1.384 . S
C2822 C2823 1.372 . S
C2823 C2822 1.372 . S
C2823 C2824 1.400 1_556 S
C2823 C2828 1.490 . S
C2824 H2814 0.930 . S
C2824 C2823 1.400 1_554 S
C2824 C2827 1.386 . S
H2825 C2841 0.930 . S
H2826 C2842 0.931 . S
C2827 H2815 0.929 . S
C2827 C2821 1.390 1_554 S
C2827 C2824 1.386 . S
C2828 C2823 1.490 . S
C2828 C2830 1.395 1_556 S
C2828 C2831 1.403 . S
H2829 C2835 0.930 . S
C2830 H2816 0.930 . S
C2830 C2828 1.395 1_554 S
C2830 C2833 1.403 . S
C2831 C2828 1.403 . S
C2831 C2832 1.524 . S
C2831 C2835 1.400 . S
C2832 H2817 0.960 . S
C2832 H2818 0.960 . S
C2832 H2819 0.960 . S
C2832 C2831 1.524 . S
C2833 C2830 1.403 . S
C2833 C2834 1.392 . S
C2833 C2837 1.495 . S
C2834 C2833 1.392 . S
C2834 C2835 1.385 1_554 S
C2834 C2836 1.478 . S
C2835 H2829 0.930 . S
C2835 C2831 1.400 . S
C2835 C2834 1.385 1_556 S
C2836 C2834 1.478 . S
C2836 C2838 1.381 1_554 S
C2836 C2842 1.383 . S
C2837 C2833 1.495 . S
C2837 H2843 0.959 . S
C2837 H2844 0.961 . S
C2837 H2845 0.960 . S
C2838 C2836 1.381 1_556 S
C2838 C2839 1.394 . S
C2838 H2846 0.930 . S
C2839 C2838 1.394 . S
C2839 C2840 1.383 1_556 S
C2839 H2847 0.929 . S
C2840 C2839 1.383 1_554 S
C2840 C2841 1.377 . S
C2841 H2825 0.930 . S
C2841 C2840 1.377 . S
C2841 C2842 1.379 . S
C2842 H2826 0.931 . S
C2842 C2836 1.383 . S
C2842 C2841 1.379 . S
H2843 C2837 0.959 . S
H2844 C2837 0.961 . S
H2845 C2837 0.960 . S
H2846 C2838 0.930 . S
H2847 C2839 0.929 . S
H2848 C2856 0.929 . S
H2849 C2858 0.930 . S
H2850 C2860 0.930 . S
H2851 C2863 0.929 . S
H2852 C2866 0.930 . S
H2853 C2868 0.960 . S
H2854 C2868 0.960 . S
H2855 C2868 0.960 . S
C2856 H2848 0.929 . S
C2856 C2857 1.377 . S
C2856 C2858 1.384 . S
C2857 C2856 1.377 . S
C2857 C2863 1.390 . S
C2858 H2849 0.930 . S
C2858 C2856 1.384 . S
C2858 C2859 1.372 . S
C2859 C2858 1.372 . S
C2859 C2860 1.400 . S
C2859 C2864 1.490 . S
C2860 H2850 0.930 . S
C2860 C2859 1.400 . S
C2860 C2863 1.386 . S
H2861 C2877 0.930 . S
H2862 C2878 0.931 . S
C2863 H2851 0.929 . S
C2863 C2857 1.390 . S
C2863 C2860 1.386 . S
C2864 C2859 1.490 . S
C2864 C2866 1.395 . S
C2864 C2867 1.403 . S
H2865 C2871 0.930 . S
C2866 H2852 0.930 . S
C2866 C2864 1.395 . S
C2866 C2869 1.403 . S
C2867 C2864 1.403 . S
C2867 C2868 1.524 . S
C2867 C2871 1.400 . S
C2868 H2853 0.960 . S
C2868 H2854 0.960 . S
C2868 H2855 0.960 . S
C2868 C2867 1.524 . S
C2869 C2866 1.403 . S
C2869 C2870 1.392 . S
C2869 C2873 1.495 . S
C2870 C2869 1.392 . S
C2870 C2871 1.385 . S
C2870 C2872 1.478 . S
C2871 H2865 0.930 . S
C2871 C2867 1.400 . S
C2871 C2870 1.385 . S
C2872 C2870 1.478 . S
C2872 C2874 1.381 . S
C2872 C2878 1.383 . S
C2873 C2869 1.495 . S
C2873 H2879 0.959 . S
C2873 H2880 0.961 . S
C2873 H2881 0.960 . S
C2874 C2872 1.381 . S
C2874 C2875 1.394 . S
C2874 H2882 0.930 . S
C2875 C2874 1.394 . S
C2875 C2876 1.383 . S
C2875 H2883 0.929 . S
C2876 C2875 1.383 . S
C2876 C2877 1.377 . S
C2877 H2861 0.930 . S
C2877 C2876 1.377 . S
C2877 C2878 1.379 . S
C2878 H2862 0.931 . S
C2878 C2872 1.383 . S
C2878 C2877 1.379 . S
H2879 C2873 0.959 . S
H2880 C2873 0.961 . S
H2881 C2873 0.960 . S
H2882 C2874 0.930 . S
H2883 C2875 0.929 . S
H2884 C2892 0.929 . S
H2885 C2894 0.930 . S
H2886 C2896 0.930 . S
H2887 C2899 0.929 . S
H2888 C2902 0.930 . S
H2889 C2904 0.960 . S
H2890 C2904 0.960 . S
H2891 C2904 0.960 . S
C2892 H2884 0.929 . S
C2892 C2893 1.377 . S
C2892 C2894 1.384 . S
C2893 C2892 1.377 . S
C2893 C2899 1.390 . S
C2894 H2885 0.930 . S
C2894 C2892 1.384 . S
C2894 C2895 1.372 . S
C2895 C2894 1.372 . S
C2895 C2896 1.400 . S
C2895 C2900 1.490 . S
C2896 H2886 0.930 . S
C2896 C2895 1.400 . S
C2896 C2899 1.386 . S
H2897 C2913 0.930 . S
H2898 C2914 0.931 . S
C2899 H2887 0.929 . S
C2899 C2893 1.390 . S
C2899 C2896 1.386 . S
C2900 C2895 1.490 . S
C2900 C2902 1.395 . S
C2900 C2903 1.403 . S
H2901 C2907 0.930 . S
C2902 H2888 0.930 . S
C2902 C2900 1.395 . S
C2902 C2905 1.403 . S
C2903 C2900 1.403 . S
C2903 C2904 1.524 . S
C2903 C2907 1.400 . S
C2904 H2889 0.960 . S
C2904 H2890 0.960 . S
C2904 H2891 0.960 . S
C2904 C2903 1.524 . S
C2905 C2902 1.403 . S
C2905 C2906 1.392 . S
C2905 C2909 1.495 . S
C2906 C2905 1.392 . S
C2906 C2907 1.385 . S
C2906 C2908 1.478 . S
C2907 H2901 0.930 . S
C2907 C2903 1.400 . S
C2907 C2906 1.385 . S
C2908 C2906 1.478 . S
C2908 C2910 1.381 . S
C2908 C2914 1.383 . S
C2909 C2905 1.495 . S
C2909 H2915 0.959 . S
C2909 H2916 0.961 . S
C2909 H2917 0.960 . S
C2910 C2908 1.381 . S
C2910 C2911 1.394 . S
C2910 H2918 0.930 . S
C2911 C2910 1.394 . S
C2911 C2912 1.383 . S
C2911 H2919 0.929 . S
C2912 C2911 1.383 . S
C2912 C2913 1.377 . S
C2913 H2897 0.930 . S
C2913 C2912 1.377 . S
C2913 C2914 1.379 . S
C2914 H2898 0.931 . S
C2914 C2908 1.383 . S
C2914 C2913 1.379 . S
H2915 C2909 0.959 . S
H2916 C2909 0.961 . S
H2917 C2909 0.960 . S
H2918 C2910 0.930 . S
H2919 C2911 0.929 . S
H2920 C2928 0.929 . S
H2921 C2930 0.930 . S
H2922 C2932 0.930 . S
H2923 C2935 0.929 . S
H2924 C2938 0.930 . S
H2925 C2940 0.960 . S
H2926 C2940 0.960 . S
H2927 C2940 0.960 . S
C2928 H2920 0.929 . S
C2928 C2929 1.377 . S
C2928 C2930 1.384 . S
C2929 C2928 1.377 . S
C2929 C2935 1.390 . S
C2930 H2921 0.930 . S
C2930 C2928 1.384 . S
C2930 C2931 1.372 . S
C2931 C2930 1.372 . S
C2931 C2932 1.400 . S
C2931 C2936 1.490 . S
C2932 H2922 0.930 . S
C2932 C2931 1.400 . S
C2932 C2935 1.386 . S
H2933 C2949 0.930 . S
H2934 C2950 0.931 . S
C2935 H2923 0.929 . S
C2935 C2929 1.390 . S
C2935 C2932 1.386 . S
C2936 C2931 1.490 . S
C2936 C2938 1.395 . S
C2936 C2939 1.403 . S
H2937 C2943 0.930 . S
C2938 H2924 0.930 . S
C2938 C2936 1.395 . S
C2938 C2941 1.403 . S
C2939 C2936 1.403 . S
C2939 C2940 1.524 . S
C2939 C2943 1.400 . S
C2940 H2925 0.960 . S
C2940 H2926 0.960 . S
C2940 H2927 0.960 . S
C2940 C2939 1.524 . S
C2941 C2938 1.403 . S
C2941 C2942 1.392 . S
C2941 C2945 1.495 . S
C2942 C2941 1.392 . S
C2942 C2943 1.385 . S
C2942 C2944 1.478 . S
C2943 H2937 0.930 . S
C2943 C2939 1.400 . S
C2943 C2942 1.385 . S
C2944 C2942 1.478 . S
C2944 C2946 1.381 . S
C2944 C2950 1.383 . S
C2945 C2941 1.495 . S
C2945 H2951 0.959 . S
C2945 H2952 0.961 . S
C2945 H2953 0.960 . S
C2946 C2944 1.381 . S
C2946 C2947 1.394 . S
C2946 H2954 0.930 . S
C2947 C2946 1.394 . S
C2947 C2948 1.383 . S
C2947 H2955 0.929 . S
C2948 C2947 1.383 . S
C2948 C2949 1.377 . S
C2949 H2933 0.930 . S
C2949 C2948 1.377 . S
C2949 C2950 1.379 . S
C2950 H2934 0.931 . S
C2950 C2944 1.383 . S
C2950 C2949 1.379 . S
H2951 C2945 0.959 . S
H2952 C2945 0.961 . S
H2953 C2945 0.960 . S
H2954 C2946 0.930 . S
H2955 C2947 0.929 . S
H2956 C2964 0.929 . S
H2957 C2966 0.930 . S
H2958 C2968 0.930 . S
H2959 C2971 0.929 . S
H2960 C2974 0.930 . S
H2961 C2976 0.960 . S
H2962 C2976 0.960 . S
H2963 C2976 0.960 . S
C2964 H2956 0.929 . S
C2964 C2965 1.377 . S
C2964 C2966 1.384 . S
C2965 C2964 1.377 . S
C2965 C2971 1.390 . S
C2966 H2957 0.930 . S
C2966 C2964 1.384 . S
C2966 C2967 1.372 . S
C2967 C2966 1.372 . S
C2967 C2968 1.400 . S
C2967 C2972 1.490 . S
C2968 H2958 0.930 . S
C2968 C2967 1.400 . S
C2968 C2971 1.386 . S
H2969 C2985 0.930 . S
H2970 C2986 0.931 . S
C2971 H2959 0.929 . S
C2971 C2965 1.390 . S
C2971 C2968 1.386 . S
C2972 C2967 1.490 . S
C2972 C2974 1.395 . S
C2972 C2975 1.403 . S
H2973 C2979 0.930 . S
C2974 H2960 0.930 . S
C2974 C2972 1.395 . S
C2974 C2977 1.403 . S
C2975 C2972 1.403 . S
C2975 C2976 1.524 . S
C2975 C2979 1.400 . S
C2976 H2961 0.960 . S
C2976 H2962 0.960 . S
C2976 H2963 0.960 . S
C2976 C2975 1.524 . S
C2977 C2974 1.403 . S
C2977 C2978 1.392 . S
C2977 C2981 1.495 . S
C2978 C2977 1.392 . S
C2978 C2979 1.385 . S
C2978 C2980 1.478 . S
C2979 H2973 0.930 . S
C2979 C2975 1.400 . S
C2979 C2978 1.385 . S
C2980 C2978 1.478 . S
C2980 C2982 1.381 . S
C2980 C2986 1.383 . S
C2981 C2977 1.495 . S
C2981 H2987 0.959 . S
C2981 H2988 0.961 . S
C2981 H2989 0.960 . S
C2982 C2980 1.381 . S
C2982 C2983 1.394 . S
C2982 H2990 0.930 . S
C2983 C2982 1.394 . S
C2983 C2984 1.383 . S
C2983 H2991 0.929 . S
C2984 C2983 1.383 . S
C2984 C2985 1.377 . S
C2985 H2969 0.930 . S
C2985 C2984 1.377 . S
C2985 C2986 1.379 . S
C2986 H2970 0.931 . S
C2986 C2980 1.383 . S
C2986 C2985 1.379 . S
H2987 C2981 0.959 . S
H2988 C2981 0.961 . S
H2989 C2981 0.960 . S
H2990 C2982 0.930 . S
H2991 C2983 0.929 . S
H2992 C3000 0.929 . S
H2993 C3002 0.930 . S
H2994 C3004 0.930 . S
H2995 C3007 0.929 . S
H2996 C3010 0.930 . S
H2997 C3012 0.960 . S
H2998 C3012 0.960 . S
H2999 C3012 0.960 . S
C3000 H2992 0.929 . S
C3000 C3001 1.377 . S
C3000 C3002 1.384 . S
C3001 C3000 1.377 . S
C3001 C3007 1.390 . S
C3002 H2993 0.930 . S
C3002 C3000 1.384 . S
C3002 C3003 1.372 . S
C3003 C3002 1.372 . S
C3003 C3004 1.400 . S
C3003 C3008 1.490 . S
C3004 H2994 0.930 . S
C3004 C3003 1.400 . S
C3004 C3007 1.386 . S
H3005 C3021 0.930 . S
H3006 C3022 0.931 . S
C3007 H2995 0.929 . S
C3007 C3001 1.390 . S
C3007 C3004 1.386 . S
C3008 C3003 1.490 . S
C3008 C3010 1.395 . S
C3008 C3011 1.403 . S
H3009 C3015 0.930 . S
C3010 H2996 0.930 . S
C3010 C3008 1.395 . S
C3010 C3013 1.403 . S
C3011 C3008 1.403 . S
C3011 C3012 1.524 . S
C3011 C3015 1.400 . S
C3012 H2997 0.960 . S
C3012 H2998 0.960 . S
C3012 H2999 0.960 . S
C3012 C3011 1.524 . S
C3013 C3010 1.403 . S
C3013 C3014 1.392 . S
C3013 C3017 1.495 . S
C3014 C3013 1.392 . S
C3014 C3015 1.385 . S
C3014 C3016 1.478 . S
C3015 H3009 0.930 . S
C3015 C3011 1.400 . S
C3015 C3014 1.385 . S
C3016 C3014 1.478 . S
C3016 C3018 1.381 . S
C3016 C3022 1.383 . S
C3017 C3013 1.495 . S
C3017 H3023 0.959 . S
C3017 H3024 0.961 . S
C3017 H3025 0.960 . S
C3018 C3016 1.381 . S
C3018 C3019 1.394 . S
C3018 H3026 0.930 . S
C3019 C3018 1.394 . S
C3019 C3020 1.383 . S
C3019 H3027 0.929 . S
C3020 C3019 1.383 . S
C3020 C3021 1.377 . S
C3021 H3005 0.930 . S
C3021 C3020 1.377 . S
C3021 C3022 1.379 . S
C3022 H3006 0.931 . S
C3022 C3016 1.383 . S
C3022 C3021 1.379 . S
H3023 C3017 0.959 . S
H3024 C3017 0.961 . S
H3025 C3017 0.960 . S
H3026 C3018 0.930 . S
H3027 C3019 0.929 . S
H3028 C3036 0.929 . S
H3029 C3038 0.930 . S
H3030 C3040 0.930 . S
H3031 C3043 0.929 . S
H3032 C3046 0.930 . S
H3033 C3048 0.960 . S
H3034 C3048 0.960 . S
H3035 C3048 0.960 . S
C3036 H3028 0.929 . S
C3036 C3037 1.377 . S
C3036 C3038 1.384 . S
C3037 C3036 1.377 . S
C3037 C3043 1.390 . S
C3038 H3029 0.930 . S
C3038 C3036 1.384 . S
C3038 C3039 1.372 . S
C3039 C3038 1.372 . S
C3039 C3040 1.400 . S
C3039 C3044 1.490 . S
C3040 H3030 0.930 . S
C3040 C3039 1.400 . S
C3040 C3043 1.386 . S
H3041 C3057 0.930 . S
H3042 C3058 0.931 . S
C3043 H3031 0.929 . S
C3043 C3037 1.390 . S
C3043 C3040 1.386 . S
C3044 C3039 1.490 . S
C3044 C3046 1.395 . S
C3044 C3047 1.403 . S
H3045 C3051 0.930 . S
C3046 H3032 0.930 . S
C3046 C3044 1.395 . S
C3046 C3049 1.403 . S
C3047 C3044 1.403 . S
C3047 C3048 1.524 . S
C3047 C3051 1.400 . S
C3048 H3033 0.960 . S
C3048 H3034 0.960 . S
C3048 H3035 0.960 . S
C3048 C3047 1.524 . S
C3049 C3046 1.403 . S
C3049 C3050 1.392 . S
C3049 C3053 1.495 . S
C3050 C3049 1.392 . S
C3050 C3051 1.385 . S
C3050 C3052 1.478 . S
C3051 H3045 0.930 . S
C3051 C3047 1.400 . S
C3051 C3050 1.385 . S
C3052 C3050 1.478 . S
C3052 C3054 1.381 . S
C3052 C3058 1.383 . S
C3053 C3049 1.495 . S
C3053 H3059 0.959 . S
C3053 H3060 0.961 . S
C3053 H3061 0.960 . S
C3054 C3052 1.381 . S
C3054 C3055 1.394 . S
C3054 H3062 0.930 . S
C3055 C3054 1.394 . S
C3055 C3056 1.383 . S
C3055 H3063 0.929 . S
C3056 C3055 1.383 . S
C3056 C3057 1.377 . S
C3057 H3041 0.930 . S
C3057 C3056 1.377 . S
C3057 C3058 1.379 . S
C3058 H3042 0.931 . S
C3058 C3052 1.383 . S
C3058 C3057 1.379 . S
H3059 C3053 0.959 . S
H3060 C3053 0.961 . S
H3061 C3053 0.960 . S
H3062 C3054 0.930 . S
H3063 C3055 0.929 . S
H3064 C3072 0.929 . S
H3065 C3074 0.930 . S
H3066 C3076 0.930 . S
H3067 C3079 0.929 . S
H3068 C3082 0.930 . S
H3069 C3084 0.960 . S
H3070 C3084 0.960 . S
H3071 C3084 0.960 . S
C3072 H3064 0.929 . S
C3072 C3073 1.377 . S
C3072 C3074 1.384 . S
C3073 C3072 1.377 . S
C3073 C3079 1.390 . S
C3074 H3065 0.930 . S
C3074 C3072 1.384 . S
C3074 C3075 1.372 . S
C3075 C3074 1.372 . S
C3075 C3076 1.400 . S
C3075 C3080 1.490 . S
C3076 H3066 0.930 . S
C3076 C3075 1.400 . S
C3076 C3079 1.386 . S
H3077 C3093 0.930 . S
H3078 C3094 0.931 . S
C3079 H3067 0.929 . S
C3079 C3073 1.390 . S
C3079 C3076 1.386 . S
C3080 C3075 1.490 . S
C3080 C3082 1.395 . S
C3080 C3083 1.403 . S
H3081 C3087 0.930 . S
C3082 H3068 0.930 . S
C3082 C3080 1.395 . S
C3082 C3085 1.403 . S
C3083 C3080 1.403 . S
C3083 C3084 1.524 . S
C3083 C3087 1.400 . S
C3084 H3069 0.960 . S
C3084 H3070 0.960 . S
C3084 H3071 0.960 . S
C3084 C3083 1.524 . S
C3085 C3082 1.403 . S
C3085 C3086 1.392 . S
C3085 C3089 1.495 . S
C3086 C3085 1.392 . S
C3086 C3087 1.385 . S
C3086 C3088 1.478 . S
C3087 H3081 0.930 . S
C3087 C3083 1.400 . S
C3087 C3086 1.385 . S
C3088 C3086 1.478 . S
C3088 C3090 1.381 . S
C3088 C3094 1.383 . S
C3089 C3085 1.495 . S
C3089 H3095 0.959 . S
C3089 H3096 0.961 . S
C3089 H3097 0.960 . S
C3090 C3088 1.381 . S
C3090 C3091 1.394 . S
C3090 H3098 0.930 . S
C3091 C3090 1.394 . S
C3091 C3092 1.383 . S
C3091 H3099 0.929 . S
C3092 C3091 1.383 . S
C3092 C3093 1.377 . S
C3093 H3077 0.930 . S
C3093 C3092 1.377 . S
C3093 C3094 1.379 . S
C3094 H3078 0.931 . S
C3094 C3088 1.383 . S
C3094 C3093 1.379 . S
H3095 C3089 0.959 . S
H3096 C3089 0.961 . S
H3097 C3089 0.960 . S
H3098 C3090 0.930 . S
H3099 C3091 0.929 . S
H3100 C3108 0.929 . S
H3101 C3110 0.930 . S
H3102 C3112 0.930 . S
H3103 C3115 0.929 . S
H3104 C3118 0.930 . S
H3105 C3120 0.960 . S
H3106 C3120 0.960 . S
H3107 C3120 0.960 . S
C3108 H3100 0.929 . S
C3108 C3109 1.377 . S
C3108 C3110 1.384 . S
C3109 C3108 1.377 . S
C3109 C3115 1.390 . S
C3110 H3101 0.930 . S
C3110 C3108 1.384 . S
C3110 C3111 1.372 . S
C3111 C3110 1.372 . S
C3111 C3112 1.400 . S
C3111 C3116 1.490 . S
C3112 H3102 0.930 . S
C3112 C3111 1.400 . S
C3112 C3115 1.386 . S
H3113 C3129 0.930 . S
H3114 C3130 0.931 . S
C3115 H3103 0.929 . S
C3115 C3109 1.390 . S
C3115 C3112 1.386 . S
C3116 C3111 1.490 . S
C3116 C3118 1.395 . S
C3116 C3119 1.403 . S
H3117 C3123 0.930 . S
C3118 H3104 0.930 . S
C3118 C3116 1.395 . S
C3118 C3121 1.403 . S
C3119 C3116 1.403 . S
C3119 C3120 1.524 . S
C3119 C3123 1.400 . S
C3120 H3105 0.960 . S
C3120 H3106 0.960 . S
C3120 H3107 0.960 . S
C3120 C3119 1.524 . S
C3121 C3118 1.403 . S
C3121 C3122 1.392 . S
C3121 C3125 1.495 . S
C3122 C3121 1.392 . S
C3122 C3123 1.385 . S
C3122 C3124 1.478 . S
C3123 H3117 0.930 . S
C3123 C3119 1.400 . S
C3123 C3122 1.385 . S
C3124 C3122 1.478 . S
C3124 C3126 1.381 . S
C3124 C3130 1.383 . S
C3125 C3121 1.495 . S
C3125 H3131 0.959 . S
C3125 H3132 0.961 . S
C3125 H3133 0.960 . S
C3126 C3124 1.381 . S
C3126 C3127 1.394 . S
C3126 H3134 0.930 . S
C3127 C3126 1.394 . S
C3127 C3128 1.383 . S
C3127 H3135 0.929 . S
C3128 C3127 1.383 . S
C3128 C3129 1.377 . S
C3129 H3113 0.930 . S
C3129 C3128 1.377 . S
C3129 C3130 1.379 . S
C3130 H3114 0.931 . S
C3130 C3124 1.383 . S
C3130 C3129 1.379 . S
H3131 C3125 0.959 . S
H3132 C3125 0.961 . S
H3133 C3125 0.960 . S
H3134 C3126 0.930 . S
H3135 C3127 0.929 . S
H3136 C3144 0.929 . S
H3137 C3146 0.930 . S
H3138 C3148 0.930 . S
H3139 C3151 0.929 . S
H3140 C3154 0.930 . S
H3141 C3156 0.960 . S
H3142 C3156 0.960 . S
H3143 C3156 0.960 . S
C3144 H3136 0.929 . S
C3144 C3145 1.377 . S
C3144 C3146 1.384 . S
C3145 C3144 1.377 . S
C3145 C3151 1.390 . S
C3146 H3137 0.930 . S
C3146 C3144 1.384 . S
C3146 C3147 1.372 . S
C3147 C3146 1.372 . S
C3147 C3148 1.400 . S
C3147 C3152 1.490 . S
C3148 H3138 0.930 . S
C3148 C3147 1.400 . S
C3148 C3151 1.386 . S
H3149 C3165 0.930 . S
H3150 C3166 0.931 . S
C3151 H3139 0.929 . S
C3151 C3145 1.390 . S
C3151 C3148 1.386 . S
C3152 C3147 1.490 . S
C3152 C3154 1.395 . S
C3152 C3155 1.403 . S
H3153 C3159 0.930 . S
C3154 H3140 0.930 . S
C3154 C3152 1.395 . S
C3154 C3157 1.403 . S
C3155 C3152 1.403 . S
C3155 C3156 1.524 . S
C3155 C3159 1.400 . S
C3156 H3141 0.960 . S
C3156 H3142 0.960 . S
C3156 H3143 0.960 . S
C3156 C3155 1.524 . S
C3157 C3154 1.403 . S
C3157 C3158 1.392 . S
C3157 C3161 1.495 . S
C3158 C3157 1.392 . S
C3158 C3159 1.385 . S
C3158 C3160 1.478 . S
C3159 H3153 0.930 . S
C3159 C3155 1.400 . S
C3159 C3158 1.385 . S
C3160 C3158 1.478 . S
C3160 C3162 1.381 . S
C3160 C3166 1.383 . S
C3161 C3157 1.495 . S
C3161 H3167 0.959 . S
C3161 H3168 0.961 . S
C3161 H3169 0.960 . S
C3162 C3160 1.381 . S
C3162 C3163 1.394 . S
C3162 H3170 0.930 . S
C3163 C3162 1.394 . S
C3163 C3164 1.383 . S
C3163 H3171 0.929 . S
C3164 C3163 1.383 . S
C3164 C3165 1.377 . S
C3165 H3149 0.930 . S
C3165 C3164 1.377 . S
C3165 C3166 1.379 . S
C3166 H3150 0.931 . S
C3166 C3160 1.383 . S
C3166 C3165 1.379 . S
H3167 C3161 0.959 . S
H3168 C3161 0.961 . S
H3169 C3161 0.960 . S
H3170 C3162 0.930 . S
H3171 C3163 0.929 . S
H3172 C3180 0.929 . S
H3173 C3182 0.930 . S
H3174 C3184 0.930 . S
H3175 C3187 0.929 . S
H3176 C3190 0.930 . S
H3177 C3192 0.960 . S
H3178 C3192 0.960 . S
H3179 C3192 0.960 . S
C3180 H3172 0.929 . S
C3180 C3181 1.377 . S
C3180 C3182 1.384 . S
C3181 C3180 1.377 . S
C3181 C3187 1.390 . S
C3182 H3173 0.930 . S
C3182 C3180 1.384 . S
C3182 C3183 1.372 . S
C3183 C3182 1.372 . S
C3183 C3184 1.400 . S
C3183 C3188 1.490 . S
C3184 H3174 0.930 . S
C3184 C3183 1.400 . S
C3184 C3187 1.386 . S
H3185 C3201 0.930 . S
H3186 C3202 0.931 . S
C3187 H3175 0.929 . S
C3187 C3181 1.390 . S
C3187 C3184 1.386 . S
C3188 C3183 1.490 . S
C3188 C3190 1.395 . S
C3188 C3191 1.403 . S
H3189 C3195 0.930 . S
C3190 H3176 0.930 . S
C3190 C3188 1.395 . S
C3190 C3193 1.403 . S
C3191 C3188 1.403 . S
C3191 C3192 1.524 . S
C3191 C3195 1.400 . S
C3192 H3177 0.960 . S
C3192 H3178 0.960 . S
C3192 H3179 0.960 . S
C3192 C3191 1.524 . S
C3193 C3190 1.403 . S
C3193 C3194 1.392 . S
C3193 C3197 1.495 . S
C3194 C3193 1.392 . S
C3194 C3195 1.385 . S
C3194 C3196 1.478 . S
C3195 H3189 0.930 . S
C3195 C3191 1.400 . S
C3195 C3194 1.385 . S
C3196 C3194 1.478 . S
C3196 C3198 1.381 . S
C3196 C3202 1.383 . S
C3197 C3193 1.495 . S
C3197 H3203 0.959 . S
C3197 H3204 0.961 . S
C3197 H3205 0.960 . S
C3198 C3196 1.381 . S
C3198 C3199 1.394 . S
C3198 H3206 0.930 . S
C3199 C3198 1.394 . S
C3199 C3200 1.383 . S
C3199 H3207 0.929 . S
C3200 C3199 1.383 . S
C3200 C3201 1.377 . S
C3201 H3185 0.930 . S
C3201 C3200 1.377 . S
C3201 C3202 1.379 . S
C3202 H3186 0.931 . S
C3202 C3196 1.383 . S
C3202 C3201 1.379 . S
H3203 C3197 0.959 . S
H3204 C3197 0.961 . S
H3205 C3197 0.960 . S
H3206 C3198 0.930 . S
H3207 C3199 0.929 . S
H3208 C3216 0.929 . S
H3209 C3218 0.930 . S
H3210 C3220 0.930 . S
H3211 C3223 0.929 . S
H3212 C3226 0.930 . S
H3213 C3228 0.960 . S
H3214 C3228 0.960 . S
H3215 C3228 0.960 . S
C3216 H3208 0.929 . S
C3216 C3217 1.377 . S
C3216 C3218 1.384 . S
C3217 C3216 1.377 . S
C3217 C3223 1.390 . S
C3218 H3209 0.930 . S
C3218 C3216 1.384 . S
C3218 C3219 1.372 . S
C3219 C3218 1.372 . S
C3219 C3220 1.400 . S
C3219 C3224 1.490 . S
C3220 H3210 0.930 . S
C3220 C3219 1.400 . S
C3220 C3223 1.386 . S
H3221 C3237 0.930 . S
H3222 C3238 0.931 . S
C3223 H3211 0.929 . S
C3223 C3217 1.390 . S
C3223 C3220 1.386 . S
C3224 C3219 1.490 . S
C3224 C3226 1.395 . S
C3224 C3227 1.403 . S
H3225 C3231 0.930 . S
C3226 H3212 0.930 . S
C3226 C3224 1.395 . S
C3226 C3229 1.403 . S
C3227 C3224 1.403 . S
C3227 C3228 1.524 . S
C3227 C3231 1.400 . S
C3228 H3213 0.960 . S
C3228 H3214 0.960 . S
C3228 H3215 0.960 . S
C3228 C3227 1.524 . S
C3229 C3226 1.403 . S
C3229 C3230 1.392 . S
C3229 C3233 1.495 . S
C3230 C3229 1.392 . S
C3230 C3231 1.385 . S
C3230 C3232 1.478 . S
C3231 H3225 0.930 . S
C3231 C3227 1.400 . S
C3231 C3230 1.385 . S
C3232 C3230 1.478 . S
C3232 C3234 1.381 . S
C3232 C3238 1.383 . S
C3233 C3229 1.495 . S
C3233 H3239 0.959 . S
C3233 H3240 0.961 . S
C3233 H3241 0.960 . S
C3234 C3232 1.381 . S
C3234 C3235 1.394 . S
C3234 H3242 0.930 . S
C3235 C3234 1.394 . S
C3235 C3236 1.383 . S
C3235 H3243 0.929 . S
C3236 C3235 1.383 . S
C3236 C3237 1.377 . S
C3237 H3221 0.930 . S
C3237 C3236 1.377 . S
C3237 C3238 1.379 . S
C3238 H3222 0.931 . S
C3238 C3232 1.383 . S
C3238 C3237 1.379 . S
H3239 C3233 0.959 . S
H3240 C3233 0.961 . S
H3241 C3233 0.960 . S
H3242 C3234 0.930 . S
H3243 C3235 0.929 . S
H3244 C3252 0.929 . S
H3245 C3254 0.930 . S
H3246 C3256 0.930 . S
H3247 C3259 0.929 . S
H3248 C3262 0.930 . S
H3249 C3264 0.960 . S
H3250 C3264 0.960 . S
H3251 C3264 0.960 . S
C3252 H3244 0.929 . S
C3252 C3253 1.377 . S
C3252 C3254 1.384 . S
C3253 C3252 1.377 . S
C3253 C3259 1.390 . S
C3254 H3245 0.930 . S
C3254 C3252 1.384 . S
C3254 C3255 1.372 . S
C3255 C3254 1.372 . S
C3255 C3256 1.400 . S
C3255 C3260 1.490 . S
C3256 H3246 0.930 . S
C3256 C3255 1.400 . S
C3256 C3259 1.386 . S
H3257 C3273 0.930 . S
H3258 C3274 0.931 . S
C3259 H3247 0.929 . S
C3259 C3253 1.390 . S
C3259 C3256 1.386 . S
C3260 C3255 1.490 . S
C3260 C3262 1.395 . S
C3260 C3263 1.403 . S
H3261 C3267 0.930 . S
C3262 H3248 0.930 . S
C3262 C3260 1.395 . S
C3262 C3265 1.403 . S
C3263 C3260 1.403 . S
C3263 C3264 1.524 . S
C3263 C3267 1.400 . S
C3264 H3249 0.960 . S
C3264 H3250 0.960 . S
C3264 H3251 0.960 . S
C3264 C3263 1.524 . S
C3265 C3262 1.403 . S
C3265 C3266 1.392 . S
C3265 C3269 1.495 . S
C3266 C3265 1.392 . S
C3266 C3267 1.385 . S
C3266 C3268 1.478 . S
C3267 H3261 0.930 . S
C3267 C3263 1.400 . S
C3267 C3266 1.385 . S
C3268 C3266 1.478 . S
C3268 C3270 1.381 . S
C3268 C3274 1.383 . S
C3269 C3265 1.495 . S
C3269 H3275 0.959 . S
C3269 H3276 0.961 . S
C3269 H3277 0.960 . S
C3270 C3268 1.381 . S
C3270 C3271 1.394 . S
C3270 H3278 0.930 . S
C3271 C3270 1.394 . S
C3271 C3272 1.383 . S
C3271 H3279 0.929 . S
C3272 C3271 1.383 . S
C3272 C3273 1.377 . S
C3273 H3257 0.930 . S
C3273 C3272 1.377 . S
C3273 C3274 1.379 . S
C3274 H3258 0.931 . S
C3274 C3268 1.383 . S
C3274 C3273 1.379 . S
H3275 C3269 0.959 . S
H3276 C3269 0.961 . S
H3277 C3269 0.960 . S
H3278 C3270 0.930 . S
H3279 C3271 0.929 . S
H3280 C3288 0.929 . S
H3281 C3290 0.930 . S
H3282 C3292 0.930 . S
H3283 C3295 0.929 . S
H3284 C3298 0.930 . S
H3285 C3300 0.960 . S
H3286 C3300 0.960 . S
H3287 C3300 0.960 . S
C3288 H3280 0.929 . S
C3288 C3289 1.377 . S
C3288 C3290 1.384 . S
C3289 C3288 1.377 . S
C3289 C3295 1.390 . S
C3290 H3281 0.930 . S
C3290 C3288 1.384 . S
C3290 C3291 1.372 . S
C3291 C3290 1.372 . S
C3291 C3292 1.400 . S
C3291 C3296 1.490 . S
C3292 H3282 0.930 . S
C3292 C3291 1.400 . S
C3292 C3295 1.386 . S
H3293 C3309 0.930 . S
H3294 C3310 0.931 . S
C3295 H3283 0.929 . S
C3295 C3289 1.390 . S
C3295 C3292 1.386 . S
C3296 C3291 1.490 . S
C3296 C3298 1.395 . S
C3296 C3299 1.403 . S
H3297 C3303 0.930 . S
C3298 H3284 0.930 . S
C3298 C3296 1.395 . S
C3298 C3301 1.403 . S
C3299 C3296 1.403 . S
C3299 C3300 1.524 . S
C3299 C3303 1.400 . S
C3300 H3285 0.960 . S
C3300 H3286 0.960 . S
C3300 H3287 0.960 . S
C3300 C3299 1.524 . S
C3301 C3298 1.403 . S
C3301 C3302 1.392 . S
C3301 C3305 1.495 . S
C3302 C3301 1.392 . S
C3302 C3303 1.385 . S
C3302 C3304 1.478 . S
C3303 H3297 0.930 . S
C3303 C3299 1.400 . S
C3303 C3302 1.385 . S
C3304 C3302 1.478 . S
C3304 C3306 1.381 . S
C3304 C3310 1.383 . S
C3305 C3301 1.495 . S
C3305 H3311 0.959 . S
C3305 H3312 0.961 . S
C3305 H3313 0.960 . S
C3306 C3304 1.381 . S
C3306 C3307 1.394 . S
C3306 H3314 0.930 . S
C3307 C3306 1.394 . S
C3307 C3308 1.383 . S
C3307 H3315 0.929 . S
C3308 C3307 1.383 . S
C3308 C3309 1.377 . S
C3309 H3293 0.930 . S
C3309 C3308 1.377 . S
C3309 C3310 1.379 . S
C3310 H3294 0.931 . S
C3310 C3304 1.383 . S
C3310 C3309 1.379 . S
H3311 C3305 0.959 . S
H3312 C3305 0.961 . S
H3313 C3305 0.960 . S
H3314 C3306 0.930 . S
H3315 C3307 0.929 . S
H3316 C3324 0.929 . S
H3317 C3326 0.930 . S
H3318 C3328 0.930 . S
H3319 C3331 0.929 . S
H3320 C3334 0.930 . S
H3321 C3336 0.960 . S
H3322 C3336 0.960 . S
H3323 C3336 0.960 . S
C3324 H3316 0.929 . S
C3324 C3325 1.377 . S
C3324 C3326 1.384 . S
C3325 C3324 1.377 . S
C3325 C3331 1.390 . S
C3326 H3317 0.930 . S
C3326 C3324 1.384 . S
C3326 C3327 1.372 . S
C3327 C3326 1.372 . S
C3327 C3328 1.400 . S
C3327 C3332 1.490 . S
C3328 H3318 0.930 . S
C3328 C3327 1.400 . S
C3328 C3331 1.386 . S
H3329 C3345 0.930 . S
H3330 C3346 0.931 . S
C3331 H3319 0.929 . S
C3331 C3325 1.390 . S
C3331 C3328 1.386 . S
C3332 C3327 1.490 . S
C3332 C3334 1.395 . S
C3332 C3335 1.403 . S
H3333 C3339 0.930 . S
C3334 H3320 0.930 . S
C3334 C3332 1.395 . S
C3334 C3337 1.403 . S
C3335 C3332 1.403 . S
C3335 C3336 1.524 . S
C3335 C3339 1.400 . S
C3336 H3321 0.960 . S
C3336 H3322 0.960 . S
C3336 H3323 0.960 . S
C3336 C3335 1.524 . S
C3337 C3334 1.403 . S
C3337 C3338 1.392 . S
C3337 C3341 1.495 . S
C3338 C3337 1.392 . S
C3338 C3339 1.385 . S
C3338 C3340 1.478 . S
C3339 H3333 0.930 . S
C3339 C3335 1.400 . S
C3339 C3338 1.385 . S
C3340 C3338 1.478 . S
C3340 C3342 1.381 . S
C3340 C3346 1.383 . S
C3341 C3337 1.495 . S
C3341 H3347 0.959 . S
C3341 H3348 0.961 . S
C3341 H3349 0.960 . S
C3342 C3340 1.381 . S
C3342 C3343 1.394 . S
C3342 H3350 0.930 . S
C3343 C3342 1.394 . S
C3343 C3344 1.383 . S
C3343 H3351 0.929 . S
C3344 C3343 1.383 . S
C3344 C3345 1.377 . S
C3345 H3329 0.930 . S
C3345 C3344 1.377 . S
C3345 C3346 1.379 . S
C3346 H3330 0.931 . S
C3346 C3340 1.383 . S
C3346 C3345 1.379 . S
H3347 C3341 0.959 . S
H3348 C3341 0.961 . S
H3349 C3341 0.960 . S
H3350 C3342 0.930 . S
H3351 C3343 0.929 . S
H3352 C3360 0.929 . S
H3353 C3362 0.930 . S
H3354 C3364 0.930 . S
H3355 C3367 0.929 . S
H3356 C3370 0.930 . S
H3357 C3372 0.960 . S
H3358 C3372 0.960 . S
H3359 C3372 0.960 . S
C3360 H3352 0.929 . S
C3360 C3361 1.377 . S
C3360 C3362 1.384 . S
C3361 C3360 1.377 . S
C3361 C3367 1.390 . S
C3362 H3353 0.930 . S
C3362 C3360 1.384 . S
C3362 C3363 1.372 . S
C3363 C3362 1.372 . S
C3363 C3364 1.400 . S
C3363 C3368 1.490 . S
C3364 H3354 0.930 . S
C3364 C3363 1.400 . S
C3364 C3367 1.386 . S
H3365 C3381 0.930 . S
H3366 C3382 0.931 . S
C3367 H3355 0.929 . S
C3367 C3361 1.390 . S
C3367 C3364 1.386 . S
C3368 C3363 1.490 . S
C3368 C3370 1.395 . S
C3368 C3371 1.403 . S
H3369 C3375 0.930 . S
C3370 H3356 0.930 . S
C3370 C3368 1.395 . S
C3370 C3373 1.403 . S
C3371 C3368 1.403 . S
C3371 C3372 1.524 . S
C3371 C3375 1.400 . S
C3372 H3357 0.960 . S
C3372 H3358 0.960 . S
C3372 H3359 0.960 . S
C3372 C3371 1.524 . S
C3373 C3370 1.403 . S
C3373 C3374 1.392 . S
C3373 C3377 1.495 . S
C3374 C3373 1.392 . S
C3374 C3375 1.385 . S
C3374 C3376 1.478 . S
C3375 H3369 0.930 . S
C3375 C3371 1.400 . S
C3375 C3374 1.385 . S
C3376 C3374 1.478 . S
C3376 C3378 1.381 . S
C3376 C3382 1.383 . S
C3377 C3373 1.495 . S
C3377 H3383 0.959 . S
C3377 H3384 0.961 . S
C3377 H3385 0.960 . S
C3378 C3376 1.381 . S
C3378 C3379 1.394 . S
C3378 H3386 0.930 . S
C3379 C3378 1.394 . S
C3379 C3380 1.383 . S
C3379 H3387 0.929 . S
C3380 C3379 1.383 . S
C3380 C3381 1.377 . S
C3381 H3365 0.930 . S
C3381 C3380 1.377 . S
C3381 C3382 1.379 . S
C3382 H3366 0.931 . S
C3382 C3376 1.383 . S
C3382 C3381 1.379 . S
H3383 C3377 0.959 . S
H3384 C3377 0.961 . S
H3385 C3377 0.960 . S
H3386 C3378 0.930 . S
H3387 C3379 0.929 . S
H3388 C3396 0.929 . S
H3389 C3398 0.930 . S
H3390 C3400 0.930 . S
H3391 C3403 0.929 . S
H3392 C3406 0.930 . S
H3393 C3408 0.960 . S
H3394 C3408 0.960 . S
H3395 C3408 0.960 . S
C3396 H3388 0.929 . S
C3396 C3397 1.377 . S
C3396 C3398 1.384 . S
C3397 C3396 1.377 . S
C3397 C3403 1.390 . S
C3398 H3389 0.930 . S
C3398 C3396 1.384 . S
C3398 C3399 1.372 . S
C3399 C3398 1.372 . S
C3399 C3400 1.400 . S
C3399 C3404 1.490 . S
C3400 H3390 0.930 . S
C3400 C3399 1.400 . S
C3400 C3403 1.386 . S
H3401 C3417 0.930 . S
H3402 C3418 0.931 . S
C3403 H3391 0.929 . S
C3403 C3397 1.390 . S
C3403 C3400 1.386 . S
C3404 C3399 1.490 . S
C3404 C3406 1.395 . S
C3404 C3407 1.403 . S
H3405 C3411 0.930 . S
C3406 H3392 0.930 . S
C3406 C3404 1.395 . S
C3406 C3409 1.403 . S
C3407 C3404 1.403 . S
C3407 C3408 1.524 . S
C3407 C3411 1.400 . S
C3408 H3393 0.960 . S
C3408 H3394 0.960 . S
C3408 H3395 0.960 . S
C3408 C3407 1.524 . S
C3409 C3406 1.403 . S
C3409 C3410 1.392 . S
C3409 C3413 1.495 . S
C3410 C3409 1.392 . S
C3410 C3411 1.385 . S
C3410 C3412 1.478 . S
C3411 H3405 0.930 . S
C3411 C3407 1.400 . S
C3411 C3410 1.385 . S
C3412 C3410 1.478 . S
C3412 C3414 1.381 . S
C3412 C3418 1.383 . S
C3413 C3409 1.495 . S
C3413 H3419 0.959 . S
C3413 H3420 0.961 . S
C3413 H3421 0.960 . S
C3414 C3412 1.381 . S
C3414 C3415 1.394 . S
C3414 H3422 0.930 . S
C3415 C3414 1.394 . S
C3415 C3416 1.383 . S
C3415 H3423 0.929 . S
C3416 C3415 1.383 . S
C3416 C3417 1.377 . S
C3417 H3401 0.930 . S
C3417 C3416 1.377 . S
C3417 C3418 1.379 . S
C3418 H3402 0.931 . S
C3418 C3412 1.383 . S
C3418 C3417 1.379 . S
H3419 C3413 0.959 . S
H3420 C3413 0.961 . S
H3421 C3413 0.960 . S
H3422 C3414 0.930 . S
H3423 C3415 0.929 . S
H3424 C3432 0.929 . S
H3425 C3434 0.930 . S
H3426 C3436 0.930 . S
H3427 C3439 0.929 . S
H3428 C3442 0.930 . S
H3429 C3444 0.960 . S
H3430 C3444 0.960 . S
H3431 C3444 0.960 . S
C3432 H3424 0.929 . S
C3432 C3433 1.377 . S
C3432 C3434 1.384 . S
C3433 C3432 1.377 . S
C3433 C3439 1.390 . S
C3434 H3425 0.930 . S
C3434 C3432 1.384 . S
C3434 C3435 1.372 . S
C3435 C3434 1.372 . S
C3435 C3436 1.400 . S
C3435 C3440 1.490 . S
C3436 H3426 0.930 . S
C3436 C3435 1.400 . S
C3436 C3439 1.386 . S
H3437 C3453 0.930 . S
H3438 C3454 0.931 . S
C3439 H3427 0.929 . S
C3439 C3433 1.390 . S
C3439 C3436 1.386 . S
C3440 C3435 1.490 . S
C3440 C3442 1.395 . S
C3440 C3443 1.403 . S
H3441 C3447 0.930 . S
C3442 H3428 0.930 . S
C3442 C3440 1.395 . S
C3442 C3445 1.403 . S
C3443 C3440 1.403 . S
C3443 C3444 1.524 . S
C3443 C3447 1.400 . S
C3444 H3429 0.960 . S
C3444 H3430 0.960 . S
C3444 H3431 0.960 . S
C3444 C3443 1.524 . S
C3445 C3442 1.403 . S
C3445 C3446 1.392 . S
C3445 C3449 1.495 . S
C3446 C3445 1.392 . S
C3446 C3447 1.385 . S
C3446 C3448 1.478 . S
C3447 H3441 0.930 . S
C3447 C3443 1.400 . S
C3447 C3446 1.385 . S
C3448 C3446 1.478 . S
C3448 C3450 1.381 . S
C3448 C3454 1.383 . S
C3449 C3445 1.495 . S
C3449 H3455 0.959 . S
C3449 H3456 0.961 . S
C3449 H3457 0.960 . S
C3450 C3448 1.381 . S
C3450 C3451 1.394 . S
C3450 H3458 0.930 . S
C3451 C3450 1.394 . S
C3451 C3452 1.383 . S
C3451 H3459 0.929 . S
C3452 C3451 1.383 . S
C3452 C3453 1.377 . S
C3453 H3437 0.930 . S
C3453 C3452 1.377 . S
C3453 C3454 1.379 . S
C3454 H3438 0.931 . S
C3454 C3448 1.383 . S
C3454 C3453 1.379 . S
H3455 C3449 0.959 . S
H3456 C3449 0.961 . S
H3457 C3449 0.960 . S
H3458 C3450 0.930 . S
H3459 C3451 0.929 . S
H3460 C3468 0.929 . S
H3461 C3470 0.930 . S
H3462 C3472 0.930 . S
H3463 C3475 0.929 . S
H3464 C3478 0.930 . S
H3465 C3480 0.960 . S
H3466 C3480 0.960 . S
H3467 C3480 0.960 . S
C3468 H3460 0.929 . S
C3468 C3469 1.377 . S
C3468 C3470 1.384 . S
C3469 C3468 1.377 . S
C3469 C3475 1.390 . S
C3470 H3461 0.930 . S
C3470 C3468 1.384 . S
C3470 C3471 1.372 . S
C3471 C3470 1.372 . S
C3471 C3472 1.400 . S
C3471 C3476 1.490 . S
C3472 H3462 0.930 . S
C3472 C3471 1.400 . S
C3472 C3475 1.386 . S
H3473 C3489 0.930 . S
H3474 C3490 0.931 . S
C3475 H3463 0.929 . S
C3475 C3469 1.390 . S
C3475 C3472 1.386 . S
C3476 C3471 1.490 . S
C3476 C3478 1.395 . S
C3476 C3479 1.403 . S
H3477 C3483 0.930 . S
C3478 H3464 0.930 . S
C3478 C3476 1.395 . S
C3478 C3481 1.403 . S
C3479 C3476 1.403 . S
C3479 C3480 1.524 . S
C3479 C3483 1.400 . S
C3480 H3465 0.960 . S
C3480 H3466 0.960 . S
C3480 H3467 0.960 . S
C3480 C3479 1.524 . S
C3481 C3478 1.403 . S
C3481 C3482 1.392 . S
C3481 C3485 1.495 . S
C3482 C3481 1.392 . S
C3482 C3483 1.385 . S
C3482 C3484 1.478 . S
C3483 H3477 0.930 . S
C3483 C3479 1.400 . S
C3483 C3482 1.385 . S
C3484 C3482 1.478 . S
C3484 C3486 1.381 . S
C3484 C3490 1.383 . S
C3485 C3481 1.495 . S
C3485 H3491 0.959 . S
C3485 H3492 0.961 . S
C3485 H3493 0.960 . S
C3486 C3484 1.381 . S
C3486 C3487 1.394 . S
C3486 H3494 0.930 . S
C3487 C3486 1.394 . S
C3487 C3488 1.383 . S
C3487 H3495 0.929 . S
C3488 C3487 1.383 . S
C3488 C3489 1.377 . S
C3489 H3473 0.930 . S
C3489 C3488 1.377 . S
C3489 C3490 1.379 . S
C3490 H3474 0.931 . S
C3490 C3484 1.383 . S
C3490 C3489 1.379 . S
H3491 C3485 0.959 . S
H3492 C3485 0.961 . S
H3493 C3485 0.960 . S
H3494 C3486 0.930 . S
H3495 C3487 0.929 . S
H3496 C3504 0.929 . S
H3497 C3506 0.930 . S
H3498 C3508 0.930 . S
H3499 C3511 0.929 . S
H3500 C3514 0.916 1_554 S
H3501 C3516 0.960 . S
H3502 C3516 0.960 . S
H3503 C3516 0.960 . S
C3504 H3496 0.929 . S
C3504 C3505 1.377 1_554 S
C3504 C3506 1.384 . S
C3505 C3504 1.377 1_556 S
C3505 C3511 1.390 . S
C3506 H3497 0.930 . S
C3506 C3504 1.384 . S
C3506 C3507 1.372 1_554 S
C3507 C3506 1.372 1_556 S
C3507 C3508 1.400 . S
C3507 C3512 1.490 . S
C3508 H3498 0.930 . S
C3508 C3507 1.400 . S
C3508 C3511 1.386 . S
H3509 C3525 0.930 . S
H3510 C3526 0.931 . S
C3511 H3499 0.929 . S
C3511 C3505 1.390 . S
C3511 C3508 1.386 . S
C3512 C3507 1.490 . S
C3512 C3514 1.410 . S
C3512 C3515 1.403 . S
H3513 C3519 0.930 . S
C3514 H3500 0.916 1_556 S
C3514 C3512 1.410 . S
C3514 C3517 1.403 . S
C3515 C3512 1.403 . S
C3515 C3516 1.524 . S
C3515 C3519 1.400 . S
C3516 H3501 0.960 . S
C3516 H3502 0.960 . S
C3516 H3503 0.960 . S
C3516 C3515 1.524 . S
C3517 C3514 1.403 . S
C3517 C3518 1.400 . S
C3517 C3521 1.488 1_556 S
C3518 C3517 1.400 . S
C3518 C3519 1.385 . S
C3518 C3520 1.478 . S
C3519 H3513 0.930 . S
C3519 C3515 1.400 . S
C3519 C3518 1.385 . S
C3520 C3518 1.478 . S
C3520 C3522 1.381 1_556 S
C3520 C3526 1.383 . S
C3521 C3517 1.488 1_554 S
C3521 H3527 0.959 . S
C3521 H3528 0.961 1_554 S
C3521 H3529 0.960 . S
C3522 C3520 1.381 1_554 S
C3522 C3523 1.394 . S
C3522 H3530 0.930 . S
C3523 C3522 1.394 . S
C3523 C3524 1.383 1_554 S
C3523 H3531 0.929 . S
C3524 C3523 1.383 1_556 S
C3524 C3525 1.377 . S
C3525 H3509 0.930 . S
C3525 C3524 1.377 . S
C3525 C3526 1.379 . S
C3526 H3510 0.931 . S
C3526 C3520 1.383 . S
C3526 C3525 1.379 . S
H3527 C3521 0.959 . S
H3528 C3521 0.961 1_556 S
H3529 C3521 0.960 . S
H3530 C3522 0.930 . S
H3531 C3523 0.929 . S
H3532 C3540 0.929 . S
H3533 C3542 0.930 . S
H3534 C3544 0.930 . S
H3535 C3547 0.929 . S
H3536 C3550 0.930 . S
H3537 C3552 0.960 . S
H3538 C3552 0.960 1_556 S
H3539 C3552 0.960 . S
C3540 H3532 0.929 . S
C3540 C3541 1.377 . S
C3540 C3542 1.384 . S
C3541 C3540 1.377 . S
C3541 C3547 1.390 1_556 S
C3542 H3533 0.930 . S
C3542 C3540 1.384 . S
C3542 C3543 1.372 . S
C3543 C3542 1.372 . S
C3543 C3544 1.400 1_556 S
C3543 C3548 1.490 . S
C3544 H3534 0.930 . S
C3544 C3543 1.400 1_554 S
C3544 C3547 1.386 . S
H3545 C3561 0.930 . S
H3546 C3562 0.931 . S
C3547 H3535 0.929 . S
C3547 C3541 1.390 1_554 S
C3547 C3544 1.386 . S
C3548 C3543 1.490 . S
C3548 C3550 1.395 . S
C3548 C3551 1.403 . S
H3549 C3555 0.930 1_554 S
C3550 H3536 0.930 . S
C3550 C3548 1.395 . S
C3550 C3553 1.403 . S
C3551 C3548 1.403 . S
C3551 C3552 1.524 1_556 S
C3551 C3555 1.400 . S
C3552 H3537 0.960 . S
C3552 H3538 0.960 1_554 S
C3552 H3539 0.960 . S
C3552 C3551 1.524 1_554 S
C3553 C3550 1.403 . S
C3553 C3554 1.392 . S
C3553 C3557 1.495 . S
C3554 C3553 1.392 . S
C3554 C3555 1.385 . S
C3554 C3556 1.478 . S
C3555 H3549 0.930 1_556 S
C3555 C3551 1.400 . S
C3555 C3554 1.385 . S
C3556 C3554 1.478 . S
C3556 C3558 1.381 . S
C3556 C3562 1.383 1_556 S
C3557 C3553 1.495 . S
C3557 H3563 0.959 . S
C3557 H3564 0.961 . S
C3557 H3565 0.960 . S
C3558 C3556 1.381 . S
C3558 C3559 1.394 . S
C3558 H3566 0.930 . S
C3559 C3558 1.394 . S
C3559 C3560 1.383 . S
C3559 H3567 0.929 . S
C3560 C3559 1.383 . S
C3560 C3561 1.377 1_556 S
C3561 H3545 0.930 . S
C3561 C3560 1.377 1_554 S
C3561 C3562 1.379 . S
C3562 H3546 0.931 . S
C3562 C3556 1.383 1_554 S
C3562 C3561 1.379 . S
H3563 C3557 0.959 . S
H3564 C3557 0.961 . S
H3565 C3557 0.960 . S
H3566 C3558 0.930 . S
H3567 C3559 0.929 . S
H3568 C3576 0.929 . S
H3569 C3578 0.930 . S
H3570 C3580 0.930 . S
H3571 C3583 0.929 . S
H3572 C3586 0.930 . S
H3573 C3588 0.960 . S
H3574 C3588 0.960 . S
H3575 C3588 0.960 . S
C3576 H3568 0.929 . S
C3576 C3577 1.377 . S
C3576 C3578 1.384 . S
C3577 C3576 1.377 . S
C3577 C3583 1.390 . S
C3578 H3569 0.930 . S
C3578 C3576 1.384 . S
C3578 C3579 1.372 . S
C3579 C3578 1.372 . S
C3579 C3580 1.400 . S
C3579 C3584 1.490 . S
C3580 H3570 0.930 . S
C3580 C3579 1.400 . S
C3580 C3583 1.386 . S
H3581 C3597 0.930 . S
H3582 C3598 0.931 . S
C3583 H3571 0.929 . S
C3583 C3577 1.390 . S
C3583 C3580 1.386 . S
C3584 C3579 1.490 . S
C3584 C3586 1.395 . S
C3584 C3587 1.403 . S
H3585 C3591 0.930 . S
C3586 H3572 0.930 . S
C3586 C3584 1.395 . S
C3586 C3589 1.403 . S
C3587 C3584 1.403 . S
C3587 C3588 1.524 . S
C3587 C3591 1.400 . S
C3588 H3573 0.960 . S
C3588 H3574 0.960 . S
C3588 H3575 0.960 . S
C3588 C3587 1.524 . S
C3589 C3586 1.403 . S
C3589 C3590 1.392 . S
C3589 C3593 1.495 . S
C3590 C3589 1.392 . S
C3590 C3591 1.385 . S
C3590 C3592 1.478 . S
C3591 H3585 0.930 . S
C3591 C3587 1.400 . S
C3591 C3590 1.385 . S
C3592 C3590 1.478 . S
C3592 C3594 1.381 . S
C3592 C3598 1.383 . S
C3593 C3589 1.495 . S
C3593 H3599 0.959 . S
C3593 H3600 0.961 . S
C3593 H3601 0.960 . S
C3594 C3592 1.381 . S
C3594 C3595 1.394 . S
C3594 H3602 0.930 . S
C3595 C3594 1.394 . S
C3595 C3596 1.383 . S
C3595 H3603 0.929 . S
C3596 C3595 1.383 . S
C3596 C3597 1.377 . S
C3597 H3581 0.930 . S
C3597 C3596 1.377 . S
C3597 C3598 1.379 . S
C3598 H3582 0.931 . S
C3598 C3592 1.383 . S
C3598 C3597 1.379 . S
H3599 C3593 0.959 . S
H3600 C3593 0.961 . S
H3601 C3593 0.960 . S
H3602 C3594 0.930 . S
H3603 C3595 0.929 . S
H3604 C3612 0.929 . S
H3605 C3614 0.930 . S
H3606 C3616 0.930 . S
H3607 C3619 0.929 . S
H3608 C3622 0.930 . S
H3609 C3624 0.960 . S
H3610 C3624 0.960 . S
H3611 C3624 0.960 . S
C3612 H3604 0.929 . S
C3612 C3613 1.377 . S
C3612 C3614 1.384 . S
C3613 C3612 1.377 . S
C3613 C3619 1.390 . S
C3614 H3605 0.930 . S
C3614 C3612 1.384 . S
C3614 C3615 1.372 . S
C3615 C3614 1.372 . S
C3615 C3616 1.400 . S
C3615 C3620 1.490 . S
C3616 H3606 0.930 . S
C3616 C3615 1.400 . S
C3616 C3619 1.386 . S
H3617 C3633 0.930 . S
H3618 C3634 0.931 . S
C3619 H3607 0.929 . S
C3619 C3613 1.390 . S
C3619 C3616 1.386 . S
C3620 C3615 1.490 . S
C3620 C3622 1.395 . S
C3620 C3623 1.403 . S
H3621 C3627 0.930 . S
C3622 H3608 0.930 . S
C3622 C3620 1.395 . S
C3622 C3625 1.403 . S
C3623 C3620 1.403 . S
C3623 C3624 1.524 . S
C3623 C3627 1.400 . S
C3624 H3609 0.960 . S
C3624 H3610 0.960 . S
C3624 H3611 0.960 . S
C3624 C3623 1.524 . S
C3625 C3622 1.403 . S
C3625 C3626 1.392 . S
C3625 C3629 1.495 . S
C3626 C3625 1.392 . S
C3626 C3627 1.385 . S
C3626 C3628 1.478 . S
C3627 H3621 0.930 . S
C3627 C3623 1.400 . S
C3627 C3626 1.385 . S
C3628 C3626 1.478 . S
C3628 C3630 1.381 . S
C3628 C3634 1.383 . S
C3629 C3625 1.495 . S
C3629 H3635 0.959 . S
C3629 H3636 0.961 . S
C3629 H3637 0.960 . S
C3630 C3628 1.381 . S
C3630 C3631 1.394 . S
C3630 H3638 0.930 . S
C3631 C3630 1.394 . S
C3631 C3632 1.383 . S
C3631 H3639 0.929 . S
C3632 C3631 1.383 . S
C3632 C3633 1.377 . S
C3633 H3617 0.930 . S
C3633 C3632 1.377 . S
C3633 C3634 1.379 . S
C3634 H3618 0.931 . S
C3634 C3628 1.383 . S
C3634 C3633 1.379 . S
H3635 C3629 0.959 . S
H3636 C3629 0.961 . S
H3637 C3629 0.960 . S
H3638 C3630 0.930 . S
H3639 C3631 0.929 . S
H3640 C3648 0.929 . S
H3641 C3650 0.930 . S
H3642 C3652 0.930 . S
H3643 C3655 0.929 . S
H3644 C3658 0.930 . S
H3645 C3660 0.960 . S
H3646 C3660 0.960 . S
H3647 C3660 0.960 . S
C3648 H3640 0.929 . S
C3648 C3649 1.377 . S
C3648 C3650 1.384 . S
C3649 C3648 1.377 . S
C3649 C3655 1.390 . S
C3650 H3641 0.930 . S
C3650 C3648 1.384 . S
C3650 C3651 1.372 . S
C3651 C3650 1.372 . S
C3651 C3652 1.400 . S
C3651 C3656 1.490 . S
C3652 H3642 0.930 . S
C3652 C3651 1.400 . S
C3652 C3655 1.386 . S
H3653 C3669 0.921 1_556 S
H3654 C3670 0.915 1_556 S
C3655 H3643 0.929 . S
C3655 C3649 1.390 . S
C3655 C3652 1.386 . S
C3656 C3651 1.490 . S
C3656 C3658 1.395 1_554 S
C3656 C3659 1.403 . S
H3657 C3663 0.930 . S
C3658 H3644 0.930 . S
C3658 C3656 1.395 1_556 S
C3658 C3661 1.403 . S
C3659 C3656 1.403 . S
C3659 C3660 1.524 . S
C3659 C3663 1.400 . S
C3660 H3645 0.960 . S
C3660 H3646 0.960 . S
C3660 H3647 0.960 . S
C3660 C3659 1.524 . S
C3661 C3658 1.403 . S
C3661 C3662 1.392 1_556 S
C3661 C3665 1.495 . S
C3662 C3661 1.392 1_554 S
C3662 C3663 1.385 . S
C3662 C3664 1.478 . S
C3663 H3657 0.930 . S
C3663 C3659 1.400 . S
C3663 C3662 1.385 . S
C3664 C3662 1.478 . S
C3664 C3666 1.381 . S
C3664 C3670 1.398 . S
C3665 C3661 1.495 . S
C3665 H3671 0.959 . S
C3665 H3672 0.961 . S
C3665 H3673 0.960 . S
C3666 C3664 1.381 . S
C3666 C3667 1.394 . S
C3666 H3674 0.930 . S
C3667 C3666 1.394 . S
C3667 C3668 1.383 . S
C3667 H3675 0.929 . S
C3668 C3667 1.383 . S
C3668 C3669 1.377 . S
C3669 H3653 0.921 1_554 S
C3669 C3668 1.377 . S
C3669 C3670 1.384 . S
C3670 H3654 0.915 1_554 S
C3670 C3664 1.398 . S
C3670 C3669 1.384 . S
H3671 C3665 0.959 . S
H3672 C3665 0.961 . S
H3673 C3665 0.960 . S
H3674 C3666 0.930 . S
H3675 C3667 0.929 . S
H3676 C3684 0.929 . S
H3677 C3686 0.930 . S
H3678 C3688 0.923 1_556 S
H3679 C3691 0.933 1_556 S
H3680 C3694 0.928 . S
H3681 C3696 0.960 . S
H3682 C3696 0.960 . S
H3683 C3696 0.960 . S
C3684 H3676 0.929 . S
C3684 C3685 1.377 . S
C3684 C3686 1.384 . S
C3685 C3684 1.377 . S
C3685 C3691 1.386 . S
C3686 H3677 0.930 . S
C3686 C3684 1.384 . S
C3686 C3687 1.372 . S
C3687 C3686 1.372 . S
C3687 C3688 1.407 . S
C3687 C3692 1.490 . S
C3688 H3678 0.923 1_554 S
C3688 C3687 1.407 . S
C3688 C3691 1.385 . S
H3689 C3705 0.930 . S
H3690 C3706 0.931 . S
C3691 H3679 0.933 1_554 S
C3691 C3685 1.386 . S
C3691 C3688 1.385 . S
C3692 C3687 1.490 . S
C3692 C3694 1.397 1_554 S
C3692 C3695 1.403 . S
H3693 C3699 0.930 . S
C3694 H3680 0.928 . S
C3694 C3692 1.397 1_556 S
C3694 C3697 1.401 . S
C3695 C3692 1.403 . S
C3695 C3696 1.524 . S
C3695 C3699 1.400 . S
C3696 H3681 0.960 . S
C3696 H3682 0.960 . S
C3696 H3683 0.960 . S
C3696 C3695 1.524 . S
C3697 C3694 1.401 . S
C3697 C3698 1.366 1_556 S
C3697 C3701 1.529 . S
C3698 C3697 1.366 1_554 S
C3698 C3699 1.385 . S
C3698 C3700 1.478 . S
C3699 H3693 0.930 . S
C3699 C3695 1.400 . S
C3699 C3698 1.385 . S
C3700 C3698 1.478 . S
C3700 C3702 1.381 . S
C3700 C3706 1.383 1_554 S
C3701 C3697 1.529 . S
C3701 H3707 0.959 . S
C3701 H3708 0.961 . S
C3701 H3709 0.960 . S
C3702 C3700 1.381 . S
C3702 C3703 1.394 . S
C3702 H3710 0.930 . S
C3703 C3702 1.394 . S
C3703 C3704 1.383 . S
C3703 H3711 0.929 . S
C3704 C3703 1.383 . S
C3704 C3705 1.377 1_554 S
C3705 H3689 0.930 . S
C3705 C3704 1.377 1_556 S
C3705 C3706 1.379 . S
C3706 H3690 0.931 . S
C3706 C3700 1.383 1_556 S
C3706 C3705 1.379 . S
H3707 C3701 0.959 . S
H3708 C3701 0.961 . S
H3709 C3701 0.960 . S
H3710 C3702 0.930 . S
H3711 C3703 0.929 . S
H3712 C3720 0.929 . S
H3713 C3722 0.930 . S
H3714 C3724 0.930 . S
H3715 C3727 0.929 . S
H3716 C3730 0.930 . S
H3717 C3732 0.960 . S
H3718 C3732 0.960 . S
H3719 C3732 0.960 . S
C3720 H3712 0.929 . S
C3720 C3721 1.377 . S
C3720 C3722 1.384 . S
C3721 C3720 1.377 . S
C3721 C3727 1.390 . S
C3722 H3713 0.930 . S
C3722 C3720 1.384 . S
C3722 C3723 1.372 . S
C3723 C3722 1.372 . S
C3723 C3724 1.400 . S
C3723 C3728 1.490 . S
C3724 H3714 0.930 . S
C3724 C3723 1.400 . S
C3724 C3727 1.386 . S
H3725 C3741 0.930 . S
H3726 C3742 0.931 . S
C3727 H3715 0.929 . S
C3727 C3721 1.390 . S
C3727 C3724 1.386 . S
C3728 C3723 1.490 . S
C3728 C3730 1.395 . S
C3728 C3731 1.403 . S
H3729 C3735 0.930 . S
C3730 H3716 0.930 . S
C3730 C3728 1.395 . S
C3730 C3733 1.403 . S
C3731 C3728 1.403 . S
C3731 C3732 1.524 . S
C3731 C3735 1.400 . S
C3732 H3717 0.960 . S
C3732 H3718 0.960 . S
C3732 H3719 0.960 . S
C3732 C3731 1.524 . S
C3733 C3730 1.403 . S
C3733 C3734 1.392 . S
C3733 C3737 1.495 . S
C3734 C3733 1.392 . S
C3734 C3735 1.385 . S
C3734 C3736 1.478 . S
C3735 H3729 0.930 . S
C3735 C3731 1.400 . S
C3735 C3734 1.385 . S
C3736 C3734 1.478 . S
C3736 C3738 1.381 . S
C3736 C3742 1.383 . S
C3737 C3733 1.495 . S
C3737 H3743 0.959 . S
C3737 H3744 0.961 . S
C3737 H3745 0.960 . S
C3738 C3736 1.381 . S
C3738 C3739 1.394 . S
C3738 H3746 0.930 . S
C3739 C3738 1.394 . S
C3739 C3740 1.383 . S
C3739 H3747 0.929 . S
C3740 C3739 1.383 . S
C3740 C3741 1.377 . S
C3741 H3725 0.930 . S
C3741 C3740 1.377 . S
C3741 C3742 1.379 . S
C3742 H3726 0.931 . S
C3742 C3736 1.383 . S
C3742 C3741 1.379 . S
H3743 C3737 0.959 . S
H3744 C3737 0.961 . S
H3745 C3737 0.960 . S
H3746 C3738 0.930 . S
H3747 C3739 0.929 . S
H3748 C3756 0.929 . S
H3749 C3758 0.930 . S
H3750 C3760 0.930 . S
H3751 C3763 0.929 . S
H3752 C3766 0.930 . S
H3753 C3768 0.960 . S
H3754 C3768 0.960 . S
H3755 C3768 0.960 . S
C3756 H3748 0.929 . S
C3756 C3757 1.377 . S
C3756 C3758 1.384 . S
C3757 C3756 1.377 . S
C3757 C3763 1.390 . S
C3758 H3749 0.930 . S
C3758 C3756 1.384 . S
C3758 C3759 1.372 . S
C3759 C3758 1.372 . S
C3759 C3760 1.400 . S
C3759 C3764 1.490 . S
C3760 H3750 0.930 . S
C3760 C3759 1.400 . S
C3760 C3763 1.386 . S
H3761 C3777 0.930 . S
H3762 C3778 0.931 . S
C3763 H3751 0.929 . S
C3763 C3757 1.390 . S
C3763 C3760 1.386 . S
C3764 C3759 1.490 . S
C3764 C3766 1.395 . S
C3764 C3767 1.403 . S
H3765 C3771 0.930 . S
C3766 H3752 0.930 . S
C3766 C3764 1.395 . S
C3766 C3769 1.403 . S
C3767 C3764 1.403 . S
C3767 C3768 1.524 . S
C3767 C3771 1.400 . S
C3768 H3753 0.960 . S
C3768 H3754 0.960 . S
C3768 H3755 0.960 . S
C3768 C3767 1.524 . S
C3769 C3766 1.403 . S
C3769 C3770 1.392 . S
C3769 C3773 1.495 . S
C3770 C3769 1.392 . S
C3770 C3771 1.385 . S
C3770 C3772 1.478 . S
C3771 H3765 0.930 . S
C3771 C3767 1.400 . S
C3771 C3770 1.385 . S
C3772 C3770 1.478 . S
C3772 C3774 1.381 . S
C3772 C3778 1.383 . S
C3773 C3769 1.495 . S
C3773 H3779 0.959 . S
C3773 H3780 0.961 . S
C3773 H3781 0.960 . S
C3774 C3772 1.381 . S
C3774 C3775 1.394 . S
C3774 H3782 0.930 . S
C3775 C3774 1.394 . S
C3775 C3776 1.383 . S
C3775 H3783 0.929 . S
C3776 C3775 1.383 . S
C3776 C3777 1.377 . S
C3777 H3761 0.930 . S
C3777 C3776 1.377 . S
C3777 C3778 1.379 . S
C3778 H3762 0.931 . S
C3778 C3772 1.383 . S
C3778 C3777 1.379 . S
H3779 C3773 0.959 . S
H3780 C3773 0.961 . S
H3781 C3773 0.960 . S
H3782 C3774 0.930 . S
H3783 C3775 0.929 . S
H3784 C3792 0.929 . S
H3785 C3794 0.930 . S
H3786 C3796 0.930 . S
H3787 C3799 0.929 . S
H3788 C3802 0.930 . S
H3789 C3804 0.960 . S
H3790 C3804 0.960 . S
H3791 C3804 0.960 . S
C3792 H3784 0.929 . S
C3792 C3793 1.377 . S
C3792 C3794 1.384 . S
C3793 C3792 1.377 . S
C3793 C3799 1.390 . S
C3794 H3785 0.930 . S
C3794 C3792 1.384 . S
C3794 C3795 1.372 . S
C3795 C3794 1.372 . S
C3795 C3796 1.400 . S
C3795 C3800 1.490 . S
C3796 H3786 0.930 . S
C3796 C3795 1.400 . S
C3796 C3799 1.386 . S
H3797 C3813 0.930 . S
H3798 C3814 0.931 . S
C3799 H3787 0.929 . S
C3799 C3793 1.390 . S
C3799 C3796 1.386 . S
C3800 C3795 1.490 . S
C3800 C3802 1.395 . S
C3800 C3803 1.403 . S
H3801 C3807 0.930 . S
C3802 H3788 0.930 . S
C3802 C3800 1.395 . S
C3802 C3805 1.403 . S
C3803 C3800 1.403 . S
C3803 C3804 1.524 . S
C3803 C3807 1.400 . S
C3804 H3789 0.960 . S
C3804 H3790 0.960 . S
C3804 H3791 0.960 . S
C3804 C3803 1.524 . S
C3805 C3802 1.403 . S
C3805 C3806 1.392 . S
C3805 C3809 1.495 . S
C3806 C3805 1.392 . S
C3806 C3807 1.385 . S
C3806 C3808 1.478 . S
C3807 H3801 0.930 . S
C3807 C3803 1.400 . S
C3807 C3806 1.385 . S
C3808 C3806 1.478 . S
C3808 C3810 1.381 . S
C3808 C3814 1.383 . S
C3809 C3805 1.495 . S
C3809 H3815 0.959 . S
C3809 H3816 0.961 . S
C3809 H3817 0.960 . S
C3810 C3808 1.381 . S
C3810 C3811 1.394 . S
C3810 H3818 0.930 . S
C3811 C3810 1.394 . S
C3811 C3812 1.383 . S
C3811 H3819 0.929 . S
C3812 C3811 1.383 . S
C3812 C3813 1.377 . S
C3813 H3797 0.930 . S
C3813 C3812 1.377 . S
C3813 C3814 1.379 . S
C3814 H3798 0.931 . S
C3814 C3808 1.383 . S
C3814 C3813 1.379 . S
H3815 C3809 0.959 . S
H3816 C3809 0.961 . S
H3817 C3809 0.960 . S
H3818 C3810 0.930 . S
H3819 C3811 0.929 . S
H3820 C3828 0.929 . S
H3821 C3830 0.930 . S
H3822 C3832 0.930 . S
H3823 C3835 0.929 . S
H3824 C3838 0.930 . S
H3825 C3840 0.960 . S
H3826 C3840 0.960 . S
H3827 C3840 0.960 . S
C3828 H3820 0.929 . S
C3828 C3829 1.377 . S
C3828 C3830 1.384 . S
C3829 C3828 1.377 . S
C3829 C3835 1.390 . S
C3830 H3821 0.930 . S
C3830 C3828 1.384 . S
C3830 C3831 1.372 . S
C3831 C3830 1.372 . S
C3831 C3832 1.400 . S
C3831 C3836 1.490 . S
C3832 H3822 0.930 . S
C3832 C3831 1.400 . S
C3832 C3835 1.386 . S
H3833 C3849 0.930 . S
H3834 C3850 0.931 . S
C3835 H3823 0.929 . S
C3835 C3829 1.390 . S
C3835 C3832 1.386 . S
C3836 C3831 1.490 . S
C3836 C3838 1.395 . S
C3836 C3839 1.403 . S
H3837 C3843 0.930 . S
C3838 H3824 0.930 . S
C3838 C3836 1.395 . S
C3838 C3841 1.403 . S
C3839 C3836 1.403 . S
C3839 C3840 1.524 . S
C3839 C3843 1.400 . S
C3840 H3825 0.960 . S
C3840 H3826 0.960 . S
C3840 H3827 0.960 . S
C3840 C3839 1.524 . S
C3841 C3838 1.403 . S
C3841 C3842 1.392 . S
C3841 C3845 1.495 . S
C3842 C3841 1.392 . S
C3842 C3843 1.385 . S
C3842 C3844 1.478 . S
C3843 H3837 0.930 . S
C3843 C3839 1.400 . S
C3843 C3842 1.385 . S
C3844 C3842 1.478 . S
C3844 C3846 1.381 . S
C3844 C3850 1.383 . S
C3845 C3841 1.495 . S
C3845 H3851 0.959 . S
C3845 H3852 0.961 . S
C3845 H3853 0.960 . S
C3846 C3844 1.381 . S
C3846 C3847 1.394 . S
C3846 H3854 0.930 . S
C3847 C3846 1.394 . S
C3847 C3848 1.383 . S
C3847 H3855 0.929 . S
C3848 C3847 1.383 . S
C3848 C3849 1.377 . S
C3849 H3833 0.930 . S
C3849 C3848 1.377 . S
C3849 C3850 1.379 . S
C3850 H3834 0.931 . S
C3850 C3844 1.383 . S
C3850 C3849 1.379 . S
H3851 C3845 0.959 . S
H3852 C3845 0.961 . S
H3853 C3845 0.960 . S
H3854 C3846 0.930 . S
H3855 C3847 0.929 . S
H3856 C3864 0.929 . S
H3857 C3866 0.930 . S
H3858 C3868 0.930 . S
H3859 C3871 0.929 . S
H3860 C3874 0.930 . S
H3861 C3876 0.960 . S
H3862 C3876 0.960 . S
H3863 C3876 0.960 . S
C3864 H3856 0.929 . S
C3864 C3865 1.377 . S
C3864 C3866 1.384 . S
C3865 C3864 1.377 . S
C3865 C3871 1.390 . S
C3866 H3857 0.930 . S
C3866 C3864 1.384 . S
C3866 C3867 1.372 . S
C3867 C3866 1.372 . S
C3867 C3868 1.400 . S
C3867 C3872 1.490 . S
C3868 H3858 0.930 . S
C3868 C3867 1.400 . S
C3868 C3871 1.386 . S
H3869 C3885 0.930 . S
H3870 C3886 0.931 . S
C3871 H3859 0.929 . S
C3871 C3865 1.390 . S
C3871 C3868 1.386 . S
C3872 C3867 1.490 . S
C3872 C3874 1.395 . S
C3872 C3875 1.403 . S
H3873 C3879 0.930 . S
C3874 H3860 0.930 . S
C3874 C3872 1.395 . S
C3874 C3877 1.403 . S
C3875 C3872 1.403 . S
C3875 C3876 1.524 . S
C3875 C3879 1.400 . S
C3876 H3861 0.960 . S
C3876 H3862 0.960 . S
C3876 H3863 0.960 . S
C3876 C3875 1.524 . S
C3877 C3874 1.403 . S
C3877 C3878 1.392 . S
C3877 C3881 1.495 . S
C3878 C3877 1.392 . S
C3878 C3879 1.385 . S
C3878 C3880 1.478 . S
C3879 H3873 0.930 . S
C3879 C3875 1.400 . S
C3879 C3878 1.385 . S
C3880 C3878 1.478 . S
C3880 C3882 1.381 . S
C3880 C3886 1.383 . S
C3881 C3877 1.495 . S
C3881 H3887 0.959 . S
C3881 H3888 0.961 . S
C3881 H3889 0.960 . S
C3882 C3880 1.381 . S
C3882 C3883 1.394 . S
C3882 H3890 0.930 . S
C3883 C3882 1.394 . S
C3883 C3884 1.383 . S
C3883 H3891 0.929 . S
C3884 C3883 1.383 . S
C3884 C3885 1.377 . S
C3885 H3869 0.930 . S
C3885 C3884 1.377 . S
C3885 C3886 1.379 . S
C3886 H3870 0.931 . S
C3886 C3880 1.383 . S
C3886 C3885 1.379 . S
H3887 C3881 0.959 . S
H3888 C3881 0.961 . S
H3889 C3881 0.960 . S
H3890 C3882 0.930 . S
H3891 C3883 0.929 . S
H3892 C3900 0.929 . S
H3893 C3902 0.930 . S
H3894 C3904 0.930 . S
H3895 C3907 0.929 . S
H3896 C3910 0.930 . S
H3897 C3912 0.960 . S
H3898 C3912 0.960 . S
H3899 C3912 0.960 . S
C3900 H3892 0.929 . S
C3900 C3901 1.377 . S
C3900 C3902 1.384 . S
C3901 C3900 1.377 . S
C3901 C3907 1.390 . S
C3902 H3893 0.930 . S
C3902 C3900 1.384 . S
C3902 C3903 1.372 . S
C3903 C3902 1.372 . S
C3903 C3904 1.400 . S
C3903 C3908 1.490 . S
C3904 H3894 0.930 . S
C3904 C3903 1.400 . S
C3904 C3907 1.386 . S
H3905 C3921 0.930 . S
H3906 C3922 0.931 . S
C3907 H3895 0.929 . S
C3907 C3901 1.390 . S
C3907 C3904 1.386 . S
C3908 C3903 1.490 . S
C3908 C3910 1.395 . S
C3908 C3911 1.403 . S
H3909 C3915 0.930 . S
C3910 H3896 0.930 . S
C3910 C3908 1.395 . S
C3910 C3913 1.403 . S
C3911 C3908 1.403 . S
C3911 C3912 1.524 . S
C3911 C3915 1.400 . S
C3912 H3897 0.960 . S
C3912 H3898 0.960 . S
C3912 H3899 0.960 . S
C3912 C3911 1.524 . S
C3913 C3910 1.403 . S
C3913 C3914 1.392 . S
C3913 C3917 1.495 . S
C3914 C3913 1.392 . S
C3914 C3915 1.385 . S
C3914 C3916 1.478 . S
C3915 H3909 0.930 . S
C3915 C3911 1.400 . S
C3915 C3914 1.385 . S
C3916 C3914 1.478 . S
C3916 C3918 1.381 . S
C3916 C3922 1.383 . S
C3917 C3913 1.495 . S
C3917 H3923 0.959 . S
C3917 H3924 0.961 . S
C3917 H3925 0.960 . S
C3918 C3916 1.381 . S
C3918 C3919 1.394 . S
C3918 H3926 0.930 . S
C3919 C3918 1.394 . S
C3919 C3920 1.383 . S
C3919 H3927 0.929 . S
C3920 C3919 1.383 . S
C3920 C3921 1.377 . S
C3921 H3905 0.930 . S
C3921 C3920 1.377 . S
C3921 C3922 1.379 . S
C3922 H3906 0.931 . S
C3922 C3916 1.383 . S
C3922 C3921 1.379 . S
H3923 C3917 0.959 . S
H3924 C3917 0.961 . S
H3925 C3917 0.960 . S
H3926 C3918 0.930 . S
H3927 C3919 0.929 . S
H3928 C3936 0.929 . S
H3929 C3938 0.930 . S
H3930 C3940 0.930 . S
H3931 C3943 0.929 . S
H3932 C3946 0.930 . S
H3933 C3948 0.960 . S
H3934 C3948 0.960 . S
H3935 C3948 0.960 . S
C3936 H3928 0.929 . S
C3936 C3937 1.377 . S
C3936 C3938 1.384 . S
C3937 C3936 1.377 . S
C3937 C3943 1.390 . S
C3938 H3929 0.930 . S
C3938 C3936 1.384 . S
C3938 C3939 1.372 . S
C3939 C3938 1.372 . S
C3939 C3940 1.400 . S
C3939 C3944 1.490 . S
C3940 H3930 0.930 . S
C3940 C3939 1.400 . S
C3940 C3943 1.386 . S
H3941 C3957 0.930 . S
H3942 C3958 0.931 . S
C3943 H3931 0.929 . S
C3943 C3937 1.390 . S
C3943 C3940 1.386 . S
C3944 C3939 1.490 . S
C3944 C3946 1.395 . S
C3944 C3947 1.403 . S
H3945 C3951 0.930 . S
C3946 H3932 0.930 . S
C3946 C3944 1.395 . S
C3946 C3949 1.403 . S
C3947 C3944 1.403 . S
C3947 C3948 1.524 . S
C3947 C3951 1.400 . S
C3948 H3933 0.960 . S
C3948 H3934 0.960 . S
C3948 H3935 0.960 . S
C3948 C3947 1.524 . S
C3949 C3946 1.403 . S
C3949 C3950 1.392 . S
C3949 C3953 1.495 . S
C3950 C3949 1.392 . S
C3950 C3951 1.385 . S
C3950 C3952 1.478 . S
C3951 H3945 0.930 . S
C3951 C3947 1.400 . S
C3951 C3950 1.385 . S
C3952 C3950 1.478 . S
C3952 C3954 1.381 . S
C3952 C3958 1.383 . S
C3953 C3949 1.495 . S
C3953 H3959 0.959 . S
C3953 H3960 0.961 . S
C3953 H3961 0.960 . S
C3954 C3952 1.381 . S
C3954 C3955 1.394 . S
C3954 H3962 0.930 . S
C3955 C3954 1.394 . S
C3955 C3956 1.383 . S
C3955 H3963 0.929 . S
C3956 C3955 1.383 . S
C3956 C3957 1.377 . S
C3957 H3941 0.930 . S
C3957 C3956 1.377 . S
C3957 C3958 1.379 . S
C3958 H3942 0.931 . S
C3958 C3952 1.383 . S
C3958 C3957 1.379 . S
H3959 C3953 0.959 . S
H3960 C3953 0.961 . S
H3961 C3953 0.960 . S
H3962 C3954 0.930 . S
H3963 C3955 0.929 . S
H3964 C3972 0.929 . S
H3965 C3974 0.930 . S
H3966 C3976 0.930 . S
H3967 C3979 0.929 . S
H3968 C3982 0.930 . S
H3969 C3984 0.960 . S
H3970 C3984 0.960 . S
H3971 C3984 0.960 . S
C3972 H3964 0.929 . S
C3972 C3973 1.377 . S
C3972 C3974 1.384 . S
C3973 C3972 1.377 . S
C3973 C3979 1.390 . S
C3974 H3965 0.930 . S
C3974 C3972 1.384 . S
C3974 C3975 1.372 . S
C3975 C3974 1.372 . S
C3975 C3976 1.400 . S
C3975 C3980 1.490 . S
C3976 H3966 0.930 . S
C3976 C3975 1.400 . S
C3976 C3979 1.386 . S
H3977 C3993 0.930 . S
H3978 C3994 0.931 . S
C3979 H3967 0.929 . S
C3979 C3973 1.390 . S
C3979 C3976 1.386 . S
C3980 C3975 1.490 . S
C3980 C3982 1.395 . S
C3980 C3983 1.403 . S
H3981 C3987 0.930 . S
C3982 H3968 0.930 . S
C3982 C3980 1.395 . S
C3982 C3985 1.403 . S
C3983 C3980 1.403 . S
C3983 C3984 1.524 . S
C3983 C3987 1.400 . S
C3984 H3969 0.960 . S
C3984 H3970 0.960 . S
C3984 H3971 0.960 . S
C3984 C3983 1.524 . S
C3985 C3982 1.403 . S
C3985 C3986 1.392 . S
C3985 C3989 1.495 . S
C3986 C3985 1.392 . S
C3986 C3987 1.385 . S
C3986 C3988 1.478 . S
C3987 H3981 0.930 . S
C3987 C3983 1.400 . S
C3987 C3986 1.385 . S
C3988 C3986 1.478 . S
C3988 C3990 1.381 . S
C3988 C3994 1.383 . S
C3989 C3985 1.495 . S
C3989 H3995 0.959 . S
C3989 H3996 0.961 . S
C3989 H3997 0.960 . S
C3990 C3988 1.381 . S
C3990 C3991 1.394 . S
C3990 H3998 0.930 . S
C3991 C3990 1.394 . S
C3991 C3992 1.383 . S
C3991 H3999 0.929 . S
C3992 C3991 1.383 . S
C3992 C3993 1.377 . S
C3993 H3977 0.930 . S
C3993 C3992 1.377 . S
C3993 C3994 1.379 . S
C3994 H3978 0.931 . S
C3994 C3988 1.383 . S
C3994 C3993 1.379 . S
H3995 C3989 0.959 . S
H3996 C3989 0.961 . S
H3997 C3989 0.960 . S
H3998 C3990 0.930 . S
H3999 C3991 0.929 . S
C1705 C39 1.958 . S
C1724 C198 1.960 . S
C1741 C145 1.957 . S
C1760 C92 1.948 . S
C1777 C251 1.955 . S
C1796 C410 1.939 . S
C1813 C357 1.951 . S
C1832 C304 1.961 . S
C1849 C463 1.960 . S
C1868 C622 1.946 . S
C1885 C569 1.962 . S
C1904 C516 1.965 . S
C1921 C675 1.950 . S
C1940 C834 1.962 . S
C1957 C728 1.955 . S
C1976 C781 1.938 . S
C1993 C1046 1.962 . S
C2012 C887 1.962 . S
C2029 C940 1.959 . S
C2048 C993 1.963 . S
C2065 C1099 1.954 . S
C2084 C1258 1.943 . S
C2101 C1205 1.950 . S
C2120 C1152 1.960 . S
C2137 C1311 1.958 . S
C2156 C1470 1.944 . S
C2173 C1417 1.957 . S
C2192 C1364 1.953 . S
C2209 C1523 1.950 . S
C2228 C1682 1.962 . S
C2245 C1576 1.953 . S
C2264 C1629 1.953 . S
C2281 C658 1.502 . S
C2300 C22 1.499 . S
C2317 C75 1.505 . S
C2336 C1135 1.505 . S
C2353 C128 1.504 . S
C2372 C340 1.496 . S
C2389 C1665 1.504 . S
C2408 C181 1.503 . S
C2425 C234 1.504 . S
C2444 C446 1.499 . S
C2461 C923 1.505 . S
C2480 C287 1.504 . S
C2497 C1453 1.504 . S
C2516 C393 1.495 . S
C2533 C1559 1.503 . S
C2552 C499 1.498 . S
C2569 C764 1.504 . S
C2588 C552 1.504 . S
C2605 C1241 1.503 . S
C2624 C605 1.498 . S
C2641 C711 1.503 . S
C2660 C1347 1.504 . S
C2677 C1029 1.504 . S
C2696 C817 1.496 . S
C2713 C1506 1.502 . S
C2732 C870 1.501 . S
C2749 C1188 1.502 . S
C2768 C976 1.500 . S
C2785 C1294 1.505 . S
C2804 C1082 1.504 . S
C2821 C1400 1.504 . S
C2840 C1612 1.495 . S
C2857 C568 2.064 . S
C2876 C38 2.048 . S
C2893 C91 2.070 . S
C2912 C621 2.073 . S
C2929 C462 2.071 . S
C2948 C144 2.078 . S
C2965 C515 2.065 . S
C2984 C197 2.051 . S
C3001 C250 2.075 . S
C3020 C780 2.065 . S
C3037 C303 2.076 . S
C3056 C833 2.063 . S
C3073 C674 2.074 . S
C3092 C356 2.086 . S
C3109 C409 2.075 . S
C3128 C727 2.087 . S
C3145 C1416 2.064 . S
C3164 C886 2.048 . S
C3181 C1469 2.070 . S
C3200 C939 2.077 . S
C3217 C992 2.064 . S
C3236 C1310 2.048 . S
C3253 C1045 2.071 . S
C3272 C1363 2.079 . S
C3289 C1098 2.074 . S
C3308 C1628 2.084 . S
C3325 C1151 2.076 . S
C3344 C1681 2.085 . S
C3361 C1522 2.075 . S
C3380 C1204 2.069 . S
C3397 C1575 2.075 . S
C3416 C1257 2.065 . S
C3433 C29 1.545 . S
C3452 C1354 1.544 . S
C3469 C1301 1.544 . S
C3488 C82 1.538 . S
C3505 C135 1.543 . S
C3524 C1460 1.535 . S
C3541 C188 1.546 . S
C3560 C1407 1.548 . S
C3577 C241 1.546 . S
C3596 C1566 1.544 . S
C3613 C294 1.546 . S
C3632 C1513 1.545 . S
C3649 C1672 1.547 . S
C3668 C347 1.537 . S
C3685 C1619 1.546 . S
C3704 C400 1.537 . S
C3721 C930 1.546 . S
C3740 C453 1.548 . S
C3757 C877 1.543 . S
C3776 C506 1.536 . S
C3793 C559 1.546 . S
C3812 C1036 1.547 . S
C3829 C612 1.543 . S
C3848 C983 1.534 . S
C3865 C1142 1.545 . S
C3884 C665 1.547 . S
C3901 C718 1.545 . S
C3920 C1089 1.540 . S
C3937 C771 1.545 . S
C3956 C1248 1.540 . S
C3973 C824 1.546 . S
C3992 C1195 1.543 . S
