# Generated by pormake.
# Topology vby, (6)-cn, num edge types: 1
# Building blocks:
#     Node 0, Type 0, BuildingBlock: BETGAK_clean_sbu_0, # of connection points: 6
#     Node 1, Type 0, BuildingBlock: BETGAK_clean_sbu_0, # of connection points: 6
#     Node 2, Type 0, BuildingBlock: BETGAK_clean_sbu_0, # of connection points: 6
#     Node 3, Type 0, BuildingBlock: BETGAK_clean_sbu_0, # of connection points: 6
#     Node 4, Type 0, BuildingBlock: BETGAK_clean_sbu_0, # of connection points: 6
#     Node 5, Type 0, BuildingBlock: BETGAK_clean_sbu_0, # of connection points: 6
#     Node 6, Type 0, BuildingBlock: BETGAK_clean_sbu_0, # of connection points: 6
#     Node 7, Type 0, BuildingBlock: BETGAK_clean_sbu_0, # of connection points: 6
#     Edge 8, Type (0, 0), BuildingBlock: MIFKUJ_clean_linker_0, # of connection points: 2
#     Edge 9, Type (0, 0), BuildingBlock: MIFKUJ_clean_linker_0, # of connection points: 2
#     Edge 10, Type (0, 0), BuildingBlock: MIFKUJ_clean_linker_0, # of connection points: 2
#     Edge 11, Type (0, 0), BuildingBlock: MIFKUJ_clean_linker_0, # of connection points: 2
#     Edge 12, Type (0, 0), BuildingBlock: MIFKUJ_clean_linker_0, # of connection points: 2
#     Edge 13, Type (0, 0), BuildingBlock: MIFKUJ_clean_linker_0, # of connection points: 2
#     Edge 14, Type (0, 0), BuildingBlock: MIFKUJ_clean_linker_0, # of connection points: 2
#     Edge 15, Type (0, 0), BuildingBlock: MIFKUJ_clean_linker_0, # of connection points: 2
#     Edge 16, Type (0, 0), BuildingBlock: MIFKUJ_clean_linker_0, # of connection points: 2
#     Edge 17, Type (0, 0), BuildingBlock: MIFKUJ_clean_linker_0, # of connection points: 2
#     Edge 18, Type (0, 0), BuildingBlock: MIFKUJ_clean_linker_0, # of connection points: 2
#     Edge 19, Type (0, 0), BuildingBlock: MIFKUJ_clean_linker_0, # of connection points: 2
#     Edge 20, Type (0, 0), BuildingBlock: MIFKUJ_clean_linker_0, # of connection points: 2
#     Edge 21, Type (0, 0), BuildingBlock: MIFKUJ_clean_linker_0, # of connection points: 2
#     Edge 22, Type (0, 0), BuildingBlock: MIFKUJ_clean_linker_0, # of connection points: 2
#     Edge 23, Type (0, 0), BuildingBlock: MIFKUJ_clean_linker_0, # of connection points: 2
#     Edge 24, Type (0, 0), BuildingBlock: MIFKUJ_clean_linker_0, # of connection points: 2
#     Edge 25, Type (0, 0), BuildingBlock: MIFKUJ_clean_linker_0, # of connection points: 2
#     Edge 26, Type (0, 0), BuildingBlock: MIFKUJ_clean_linker_0, # of connection points: 2
#     Edge 27, Type (0, 0), BuildingBlock: MIFKUJ_clean_linker_0, # of connection points: 2
#     Edge 28, Type (0, 0), BuildingBlock: MIFKUJ_clean_linker_0, # of connection points: 2
#     Edge 29, Type (0, 0), BuildingBlock: MIFKUJ_clean_linker_0, # of connection points: 2
#     Edge 30, Type (0, 0), BuildingBlock: MIFKUJ_clean_linker_0, # of connection points: 2
#     Edge 31, Type (0, 0), BuildingBlock: MIFKUJ_clean_linker_0, # of connection points: 2
# Relax obj value: 0.189
# Max RMSD: 0.207
# Mean RMSD: 0.207
data_MOF--net-vby--node1-BETGAK_clean_sbu_0--edge1-MIFKUJ_clean_linker_0
_symmetry_space_group_name_H-M    P1
_symmetry_Int_Tables_number       1
_symmetry_cell_setting            triclinic
loop_
_symmetry_equiv_pos_as_xyz
'x, y, z'
_cell_length_a     19.945944
_cell_length_b     119.90381
_cell_length_c     37.955001
_cell_angle_alpha  89.770695
_cell_angle_beta   85.702419
_cell_angle_gamma 90.020584
loop_
_atom_site_label
_atom_site_type_symbol
_atom_site_fract_x
_atom_site_fract_y
_atom_site_fract_z
_atom_type_partial_charge
La0 La 0.06281 0.40823 0.02161 0.0
La1 La 0.05469 0.38388 0.03717 0.0
C2 C 0.0578 0.42784 0.99642 0.0
C3 C 0.04006 0.43945 1.00624 0.0
C4 C 0.03916 0.4432 0.04129 0.0
C5 C 1.03014 0.45458 0.04904 0.0
C6 C 1.02195 0.46243 0.02189 0.0
C7 C 1.02122 0.45851 0.98698 0.0
C8 C 1.03013 0.44717 0.97931 0.0
C9 C 0.06492 0.4033 0.09023 0.0
C10 C 0.92054 0.39651 0.03321 0.0
C11 C 0.06206 0.36433 0.06243 0.0
C12 C 0.0994 0.35368 0.05788 0.0
C13 C 0.11865 0.3493 0.02433 0.0
C14 C 0.14693 0.3386 0.02099 0.0
C15 C 0.1564 0.33203 0.05112 0.0
C16 C 0.13905 0.33664 0.08464 0.0
C17 C 0.11086 0.34732 0.08792 0.0
C18 C 0.04699 0.38901 0.96937 0.0
C19 C 0.19777 0.39519 0.02183 0.0
O20 O 0.10983 0.42361 1.01048 0.0
O21 O 1.00923 0.42057 0.99526 0.0
O22 O 0.09066 0.4121 0.07496 0.0
O23 O 1.03136 0.39843 0.06813 0.0
O24 O 0.95635 0.40438 0.01599 0.0
O25 O 0.95048 0.38858 0.05059 0.0
O26 O 1.02337 0.36717 0.0376 0.0
O27 O 0.09381 0.37292 0.07427 0.0
O28 O 1.01932 0.38043 0.98512 0.0
O29 O 0.08395 0.39369 0.99041 0.0
O30 O 0.16307 0.38697 0.03772 0.0
O31 O 0.16679 0.40354 1.00706 0.0
H32 H 0.04695 0.43739 0.06252 0.0
H33 H 1.0301 0.45723 0.07628 0.0
H34 H 1.01618 0.46425 0.96525 0.0
H35 H 1.03139 0.44448 0.95205 0.0
H36 H 0.11023 0.35403 1.00067 0.0
H37 H 0.1592 0.33532 0.99475 0.0
H38 H 0.14675 0.33196 0.10845 0.0
H39 H 0.09643 0.35051 0.11407 0.0
La40 La 1.01475 0.66416 0.03005 0.0
La41 La 1.00641 0.63951 0.03365 0.0
C42 C 1.00778 0.68455 0.01285 0.0
C43 C 0.96626 0.69481 0.01581 0.0
C44 C 0.93542 0.69845 0.04826 0.0
C45 C 0.90468 0.70898 0.05098 0.0
C46 C 0.90418 0.71611 0.02135 0.0
C47 C 0.93313 0.71223 0.9887 0.0
C48 C 0.96374 0.70172 0.98602 0.0
C49 C 1.02793 0.65585 0.09381 0.0
C50 C 0.87026 0.6522 0.03982 0.0
C51 C 1.01431 0.61874 0.04219 0.0
C52 C 1.01914 0.6064 0.04499 0.0
C53 C 1.02738 0.59994 0.01414 0.0
C54 C 1.02738 0.58828 0.01596 0.0
C55 C 1.01944 0.58273 0.04871 0.0
C56 C 1.0128 0.58919 0.07972 0.0
C57 C 1.01226 0.6009 0.07787 0.0
C58 C 0.99406 0.64837 0.97027 0.0
C59 C 0.14863 0.65138 0.02762 0.0
O60 O 1.03376 0.68092 0.04134 0.0
O61 O 0.98782 0.67638 0.99339 0.0
O62 O 0.05833 0.66466 0.08103 0.0
O63 O 0.98766 0.6524 0.07212 0.0
O64 O 0.90521 0.66143 0.03216 0.0
O65 O 0.90012 0.64258 0.04536 0.0
O66 O 1.03149 0.62387 0.01245 0.0
O67 O 0.99445 0.62542 0.06817 0.0
O68 O 0.9591 0.64007 0.98352 0.0
O69 O 1.03502 0.65131 0.99217 0.0
O70 O 0.11284 0.64289 0.04129 0.0
O71 O 0.11868 0.66011 0.01447 0.0
H72 H 0.93657 0.6933 0.07171 0.0
H73 H 0.88199 0.71158 0.07643 0.0
H74 H 0.93464 0.71748 0.96537 0.0
H75 H 0.98772 0.69916 0.96077 0.0
H76 H 1.03267 0.60388 0.98835 0.0
H77 H 1.03364 0.5836 0.99159 0.0
H78 H 1.00623 0.58519 0.10538 0.0
H79 H 1.0056 0.60565 0.1021 0.0
La80 La 0.06729 0.66625 0.53128 0.0
La81 La 0.07634 0.64162 0.52887 0.0
C82 C 0.07568 0.68679 0.54639 0.0
C83 C 0.11524 0.69724 0.53969 0.0
C84 C 0.10531 0.70401 0.51013 0.0
C85 C 0.13381 0.71469 0.50689 0.0
C86 C 0.17284 0.71895 0.53317 0.0
C87 C 0.18476 0.71202 0.5621 0.0
C88 C 0.15608 0.70134 0.56539 0.0
C89 C 0.05026 0.65777 0.46841 0.0
C90 C 0.21217 0.65439 0.52001 0.0
C91 C 0.0676 0.62081 0.52155 0.0
C92 C 0.06252 0.60845 0.51951 0.0
C93 C 0.0574 0.60206 0.55077 0.0
C94 C 0.05635 0.5904 0.54957 0.0
C95 C 0.06004 0.58475 0.51708 0.0
C96 C 0.06376 0.59113 0.48571 0.0
C97 C 0.06541 0.60286 0.48692 0.0
C98 C 0.09187 0.65068 0.59155 0.0
C99 C 0.93382 0.65334 0.5368 0.0
O100 O 0.04238 0.68288 0.52076 0.0
O101 O 0.10129 0.67878 0.56471 0.0
O102 O 1.02078 0.66662 0.48111 0.0
O103 O 0.09216 0.65441 0.48944 0.0
O104 O 0.17712 0.6636 0.52753 0.0
O105 O 0.18229 0.64472 0.51552 0.0
O106 O 0.052 0.62603 0.55117 0.0
O107 O 0.08651 0.62742 0.49504 0.0
O108 O 0.12634 0.64239 0.57818 0.0
O109 O 0.04958 0.65352 0.57015 0.0
O110 O 0.96927 0.64493 0.52259 0.0
O111 O 0.96446 0.66205 0.54949 0.0
H112 H 0.07363 0.70122 0.48994 0.0
H113 H 0.1243 0.71969 0.48397 0.0
H114 H 0.2139 0.71503 0.58307 0.0
H115 H 0.16381 0.69645 0.58881 0.0
H116 H 0.0552 0.60608 0.57635 0.0
H117 H 0.05243 0.58579 0.57424 0.0
H118 H 0.06699 0.58706 0.46023 0.0
H119 H 0.06955 0.60754 0.46238 0.0
La120 La 0.99277 0.40967 0.54021 0.0
La121 La 1.00292 0.38538 0.52446 0.0
C122 C 0.99685 0.42933 0.56471 0.0
C123 C 1.01759 0.44092 0.55567 0.0
C124 C 1.01679 0.44519 0.52115 0.0
C125 C 1.02763 0.45661 0.51445 0.0
C126 C 0.03937 0.46402 0.54212 0.0
C127 C 0.04208 0.45959 0.57642 0.0
C128 C 1.03134 0.4482 0.58305 0.0
C129 C 0.98772 0.40476 0.47195 0.0
C130 C 0.13656 0.39841 0.52612 0.0
C131 C 0.99499 0.36584 0.49967 0.0
C132 C 0.95741 0.35517 0.50493 0.0
C133 C 0.95233 0.34957 0.53769 0.0
C134 C 0.92441 0.33883 0.54079 0.0
C135 C 0.90086 0.33339 0.51125 0.0
C136 C 0.90397 0.3392 0.47881 0.0
C137 C 0.932 0.34992 0.47572 0.0
C138 C 1.01369 0.3904 0.59196 0.0
C139 C 0.85907 0.39628 0.54173 0.0
O140 O 0.94712 0.42528 0.54831 0.0
O141 O 0.04348 0.42186 0.56857 0.0
O142 O 0.95983 0.41329 0.48752 0.0
O143 O 1.02352 0.40007 0.49349 0.0
O144 O 0.10081 0.40631 0.54311 0.0
O145 O 0.10644 0.39031 0.50974 0.0
O146 O 1.03464 0.36871 0.52397 0.0
O147 O 0.96342 0.37444 0.48756 0.0
O148 O 0.04174 0.38198 0.57575 0.0
O149 O 0.97473 0.39499 0.57161 0.0
O150 O 0.89402 0.38826 0.52513 0.0
O151 O 0.89 0.4046 0.55653 0.0
H152 H 1.00607 0.43975 0.49955 0.0
H153 H 1.02613 0.45965 0.48762 0.0
H154 H 0.04992 0.46498 0.59856 0.0
H155 H 1.03142 0.44514 0.60995 0.0
H156 H 0.97169 0.35334 0.56074 0.0
H157 H 0.9236 0.33464 0.56614 0.0
H158 H 0.8853 0.33542 0.4556 0.0
H159 H 0.93543 0.35401 0.45013 0.0
La160 La 0.56962 0.9072 0.03381 0.0
La161 La 0.56106 0.88267 0.03816 0.0
C162 C 0.5591 0.92796 0.0258 0.0
C163 C 0.55218 0.94027 0.02336 0.0
C164 C 0.5363 0.9465 0.05419 0.0
C165 C 0.53376 0.95814 0.05301 0.0
C166 C 0.5469 0.96393 0.02096 0.0
C167 C 0.56123 0.95771 0.98987 0.0
C168 C 0.56411 0.946 0.99109 0.0
C169 C 0.58524 0.89865 0.09721 0.0
C170 C 0.42733 0.89541 0.04147 0.0
C171 C 0.56873 0.86229 0.05551 0.0
C172 C 0.60996 0.85202 0.05195 0.0
C173 C 0.64028 0.84848 0.01926 0.0
C174 C 0.67098 0.83796 0.01605 0.0
C175 C 0.67196 0.83073 0.04542 0.0
C176 C 0.64342 0.8345 0.07829 0.0
C177 C 0.61286 0.84499 0.08146 0.0
C178 C 0.54507 0.89081 0.97438 0.0
C179 C 0.70575 0.89457 0.02614 0.0
O180 O 0.54146 0.92267 0.05519 0.0
O181 O 0.58143 0.92144 0.99985 0.0
O182 O 0.62005 0.90679 0.08287 0.0
O183 O 0.54283 0.89558 0.07618 0.0
O184 O 0.46305 0.90374 0.02677 0.0
O185 O 0.45761 0.88677 0.05493 0.0
O186 O 0.54095 0.86589 0.02752 0.0
O187 O 0.59017 0.87048 0.07441 0.0
O188 O 0.5149 0.88207 0.98778 0.0
O189 O 0.5865 0.89425 0.99545 0.0
O190 O 0.67082 0.88538 0.03448 0.0
O191 O 0.67572 0.90418 0.02081 0.0
H192 H 0.52676 0.94238 0.07952 0.0
H193 H 0.52139 0.96262 0.07736 0.0
H194 H 0.57192 0.9619 0.96475 0.0
H195 H 0.57658 0.94144 0.9669 0.0
H196 H 0.63879 0.85372 0.99602 0.0
H197 H 0.69332 0.83544 0.99043 0.0
H198 H 0.64224 0.82917 0.10143 0.0
H199 H 0.58926 0.84748 0.10687 0.0
La200 La 0.51512 0.1662 0.02387 0.0
La201 La 0.50754 0.14167 0.02458 0.0
C202 C 0.50623 0.1868 1.00949 0.0
C203 C 0.46363 0.19694 0.01383 0.0
C204 C 0.44363 0.20133 0.04731 0.0
C205 C 0.41271 0.21184 0.05043 0.0
C206 C 0.40141 0.21823 0.02019 0.0
C207 C 0.41907 0.21358 0.98677 0.0
C208 C 0.44986 0.20309 0.98367 0.0
C209 C 0.53191 0.15734 0.08646 0.0
C210 C 0.371 0.15407 0.03331 0.0
C211 C 0.51779 0.12081 0.02968 0.0
C212 C 0.52449 0.10847 0.03076 0.0
C213 C 0.54043 0.10255 0.99933 0.0
C214 C 0.5428 0.0909 0.99935 0.0
C215 C 0.52949 0.0848 0.03082 0.0
C216 C 0.51492 0.09072 0.06247 0.0
C217 C 0.51218 0.10243 0.06241 0.0
C218 C 0.49357 0.15135 0.9624 0.0
C219 C 0.64948 0.1536 0.01935 0.0
O220 O 0.53292 0.18284 0.03735 0.0
O221 O 0.48727 0.17885 0.98887 0.0
O222 O 0.5612 0.16628 0.07391 0.0
O223 O 0.49034 0.154 0.06519 0.0
O224 O 0.40558 0.16339 0.02651 0.0
O225 O 0.40132 0.14442 0.03744 0.0
O226 O 0.53553 0.12646 1.00101 0.0
O227 O 0.49568 0.12701 0.05647 0.0
O228 O 0.45834 0.14301 0.97497 0.0
O229 O 0.53536 0.15387 0.98431 0.0
O230 O 0.61393 0.14501 0.03243 0.0
O231 O 0.61907 0.16244 1.00716 0.0
H232 H 0.45389 0.19684 0.07113 0.0
H233 H 0.40026 0.21515 0.07661 0.0
H234 H 0.41007 0.21813 0.96287 0.0
H235 H 0.46505 0.19995 0.95755 0.0
H236 H 0.55017 0.10693 0.97444 0.0
H237 H 0.55524 0.08665 0.97459 0.0
H238 H 0.50398 0.0863 0.08717 0.0
H239 H 0.49954 0.10675 0.08703 0.0
La240 La 0.56385 0.16642 0.52823 0.0
La241 La 0.56733 0.14166 0.51692 0.0
C242 C 0.5755 0.18612 0.55105 0.0
C243 C 0.61463 0.19664 0.54555 0.0
C244 C 0.61971 0.20224 0.5128 0.0
C245 C 0.64831 0.21294 0.50963 0.0
C246 C 0.67249 0.21832 0.5391 0.0
C247 C 0.66951 0.21249 0.5715 0.0
C248 C 0.64082 0.20182 0.57466 0.0
C249 C 0.55384 0.16046 0.46178 0.0
C250 C 0.70585 0.1535 0.51842 0.0
C251 C 0.54745 0.12181 0.49749 0.0
C252 C 0.56723 0.10992 0.49994 0.0
C253 C 0.581 0.1049 0.53217 0.0
C254 C 0.58837 0.09327 0.53466 0.0
C255 C 0.58158 0.0864 0.50506 0.0
C256 C 0.57063 0.09155 0.47257 0.0
C257 C 0.56355 0.10314 0.47009 0.0
C258 C 0.57612 0.14814 0.58313 0.0
C259 C 0.42893 0.15449 0.5251 0.0
O260 O 0.53617 0.18326 0.52657 0.0
O261 O 0.60507 0.17747 0.56424 0.0
O262 O 0.52798 0.16938 0.4761 0.0
O263 O 0.59003 0.1558 0.4834 0.0
O264 O 0.67214 0.16278 0.52682 0.0
O265 O 0.67524 0.14415 0.51041 0.0
O266 O 0.51784 0.12639 0.52574 0.0
O267 O 0.58783 0.12877 0.47967 0.0
O268 O 0.60622 0.13948 0.56909 0.0
O269 O 0.53934 0.15233 0.56104 0.0
O270 O 0.46449 0.14679 0.50725 0.0
O271 O 0.45945 0.16219 0.54284 0.0
H272 H 0.59967 0.19853 0.48983 0.0
H273 H 0.64903 0.21715 0.48431 0.0
H274 H 0.68863 0.21623 0.59466 0.0
H275 H 0.63729 0.19774 0.60025 0.0
H276 H 0.58364 0.10991 0.55571 0.0
H277 H 0.59643 0.08963 0.56015 0.0
H278 H 0.56629 0.08658 0.44908 0.0
H279 H 0.55259 0.10679 0.44498 0.0
La280 La 0.49325 0.9112 0.5423 0.0
La281 La 0.50482 0.88664 0.53406 0.0
C282 C 0.49635 0.9315 0.56095 0.0
C283 C 0.52292 0.94281 0.55183 0.0
C284 C 0.51847 0.94752 0.51807 0.0
C285 C 0.53271 0.95887 0.51198 0.0
C286 C 0.55168 0.9658 0.53947 0.0
C287 C 0.55888 0.96091 0.57279 0.0
C288 C 0.54457 0.94959 0.57886 0.0
C289 C 0.48867 0.90407 0.47608 0.0
C290 C 0.63833 0.89997 0.53104 0.0
C291 C 0.49906 0.86634 0.51574 0.0
C292 C 0.46013 0.85577 0.52122 0.0
C293 C 0.46856 0.8489 0.55074 0.0
C294 C 0.44056 0.83817 0.55305 0.0
C295 C 0.40346 0.83397 0.5259 0.0
C296 C 0.39301 0.84099 0.49697 0.0
C297 C 0.42128 0.85172 0.49458 0.0
C298 C 0.51594 0.89392 0.59918 0.0
C299 C 0.36002 0.89769 0.54789 0.0
O300 O 0.4527 0.92729 0.54074 0.0
O301 O 0.53728 0.9239 0.57174 0.0
O302 O 0.45824 0.91279 0.48905 0.0
O303 O 0.52533 0.90033 0.49888 0.0
O304 O 0.6024 0.90848 0.54433 0.0
O305 O 0.60851 0.89115 0.51835 0.0
O306 O 0.53177 0.86997 0.54196 0.0
O307 O 0.47295 0.87454 0.49846 0.0
O308 O 0.54764 0.88546 0.58526 0.0
O309 O 0.47508 0.89749 0.57802 0.0
O310 O 0.39528 0.8892 0.53412 0.0
O311 O 0.39069 0.90651 0.5599 0.0
H312 H 0.50178 0.94253 0.49666 0.0
H313 H 0.52769 0.96225 0.48581 0.0
H314 H 0.57258 0.96595 0.59476 0.0
H315 H 0.54761 0.94622 0.60523 0.0
H316 H 0.49864 0.85165 0.57166 0.0
H317 H 0.44887 0.83309 0.57598 0.0
H318 H 0.36532 0.83802 0.47538 0.0
H319 H 0.41474 0.8567 0.47121 0.0
H320 H 0.28587 0.41134 0.99613 0.0
H321 H 0.40819 0.41148 0.99722 0.0
H322 H 0.40155 0.3788 0.04527 0.0
H323 H 0.27905 0.37869 0.04495 0.0
H324 H 0.48203 0.39204 0.07851 0.0
H325 H 0.45547 0.38328 0.95664 0.0
H326 H 0.41403 0.38614 0.89765 0.0
H327 H 0.51564 0.41771 0.88843 0.0
H328 H 0.55683 0.41512 0.94759 0.0
H329 H 0.83161 0.3804 0.0582 0.0
H330 H 0.7097 0.38016 0.05534 0.0
H331 H 0.71844 0.41248 1.00481 0.0
H332 H 0.84069 0.41264 1.00674 0.0
H333 H 0.63681 0.39952 0.97261 0.0
H334 H 0.66176 0.40877 0.09361 0.0
H335 H 0.70302 0.40646 0.15285 0.0
H336 H 0.60409 0.37469 0.16413 0.0
H337 H 0.56298 0.37675 0.10473 0.0
C338 C 0.31038 0.40413 1.00667 0.0
C339 C 0.27245 0.39499 0.02037 0.0
C340 C 0.38051 0.40421 1.00717 0.0
C341 C 0.41444 0.3951 0.021 0.0
C342 C 0.37668 0.38593 0.03445 0.0
C343 C 0.30654 0.38586 0.03412 0.0
C344 C 0.48898 0.39526 0.02248 0.0
C345 C 0.51588 0.39351 0.05522 0.0
C346 C 0.53332 0.39751 0.99235 0.0
C347 C 0.50874 0.39904 0.9567 0.0
C348 C 0.46855 0.39087 0.94215 0.0
C349 C 0.44516 0.39244 0.90866 0.0
C350 C 0.46209 0.40211 0.88934 0.0
C351 C 0.50251 0.41022 0.90344 0.0
C352 C 0.52593 0.40871 0.93693 0.0
C353 C 0.80765 0.3875 0.04666 0.0
C354 C 0.84608 0.39657 0.03286 0.0
C355 C 0.73773 0.38736 0.04513 0.0
C356 C 0.70443 0.39637 0.03026 0.0
C357 C 0.74276 0.40543 0.01643 0.0
C358 C 0.81275 0.40553 0.0177 0.0
C359 C 0.62988 0.39626 0.02863 0.0
C360 C 0.60297 0.39803 0.99588 0.0
C361 C 0.58545 0.3941 0.05878 0.0
C362 C 0.60984 0.39287 0.09458 0.0
C363 C 0.64921 0.40125 0.10862 0.0
C364 C 0.6725 0.4 0.14224 0.0
C365 C 0.65633 0.39042 0.1622 0.0
C366 C 0.61666 0.3821 0.14862 0.0
C367 C 0.59329 0.38331 0.11499 0.0
H368 H 0.67442 0.38946 0.18822 0.0
H369 H 0.44407 0.40331 0.86341 0.0
H370 H 0.23584 0.66847 1.01026 0.0
H371 H 0.35749 0.66873 0.01339 0.0
H372 H 0.35226 0.6345 0.04896 0.0
H373 H 0.22989 0.63427 0.04683 0.0
H374 H 0.4323 0.64618 0.08683 0.0
H375 H 0.40841 0.64214 0.96272 0.0
H376 H 0.36662 0.64695 0.90505 0.0
H377 H 0.4615 0.67905 0.90787 0.0
H378 H 0.5031 0.6745 0.96581 0.0
H379 H 0.78197 0.63515 0.05648 0.0
H380 H 0.65984 0.63536 0.05552 0.0
H381 H 0.66651 0.6701 0.02559 0.0
H382 H 0.78917 0.66995 0.02607 0.0
H383 H 0.5861 0.65836 0.98516 0.0
H384 H 0.61159 0.6621 0.10918 0.0
H385 H 0.65397 0.65705 0.16651 0.0
H386 H 0.55672 0.62515 0.16333 0.0
H387 H 0.51453 0.62995 0.10571 0.0
C388 C 0.26046 0.66096 0.01856 0.0
C389 C 0.22299 0.65132 0.02811 0.0
C390 C 0.33025 0.66111 0.02022 0.0
C391 C 0.36444 0.65158 0.03093 0.0
C392 C 0.32714 0.64195 0.04056 0.0
C393 C 0.25715 0.64182 0.03919 0.0
C394 C 0.43888 0.65174 0.03264 0.0
C395 C 0.46594 0.64869 0.06441 0.0
C396 C 0.48294 0.65528 1.00372 0.0
C397 C 0.45834 0.65801 0.96876 0.0
C398 C 0.41996 0.65026 0.95116 0.0
C399 C 0.39637 0.65293 0.9184 0.0
C400 C 0.41126 0.66331 0.90285 0.0
C401 C 0.44994 0.67102 0.91997 0.0
C402 C 0.47359 0.66839 0.95275 0.0
C403 C 0.75763 0.64288 0.04994 0.0
C404 C 0.79562 0.65255 0.04141 0.0
C405 C 0.68759 0.64299 0.04952 0.0
C406 C 0.65379 0.65277 0.04077 0.0
C407 C 0.69145 0.66246 0.03245 0.0
C408 C 0.76161 0.66237 0.03289 0.0
C409 C 0.5794 0.65278 0.0393 0.0
C410 C 0.5524 0.65586 1.00757 0.0
C411 C 0.53544 0.64922 0.06821 0.0
C412 C 0.56041 0.64635 0.10296 0.0
C413 C 0.59966 0.65397 0.12058 0.0
C414 C 0.62358 0.65116 0.15315 0.0
C415 C 0.60818 0.64078 0.16851 0.0
C416 C 0.56867 0.63319 0.15138 0.0
C417 C 0.54468 0.63595 0.11878 0.0
H418 H 0.62675 0.63862 0.19373 0.0
H419 H 0.39293 0.66536 0.87749 0.0
H420 H 0.85269 0.63662 0.51508 0.0
H421 H 0.73077 0.637 0.51183 0.0
H422 H 0.72401 0.67035 0.55412 0.0
H423 H 0.8457 0.66994 0.5582 0.0
H424 H 0.62147 0.65863 0.58277 0.0
H425 H 0.71669 0.66523 0.46508 0.0
H426 H 0.79059 0.66124 0.4116 0.0
H427 H 0.68703 0.63032 0.39817 0.0
H428 H 0.61331 0.63402 0.45199 0.0
H429 H 0.29311 0.67198 0.5354 0.0
H430 H 0.41556 0.67208 0.53674 0.0
H431 H 0.42347 0.63789 0.502 0.0
H432 H 0.30119 0.63771 0.50037 0.0
H433 H 0.52527 0.65039 0.46886 0.0
H434 H 0.4318 0.6439 0.58792 0.0
H435 H 0.35883 0.64814 0.64153 0.0
H436 H 0.45986 0.67947 0.65161 0.0
H437 H 0.53276 0.67549 0.5977 0.0
C438 C 0.8253 0.64402 0.52393 0.0
C439 C 0.85924 0.65327 0.53678 0.0
C440 C 0.75548 0.64425 0.52186 0.0
C441 C 0.71804 0.65378 0.53216 0.0
C442 C 0.7516 0.66291 0.5459 0.0
C443 C 0.82136 0.66266 0.54817 0.0
C444 C 0.64419 0.65431 0.52814 0.0
C445 C 0.60063 0.65697 0.55772 0.0
C446 C 0.61653 0.652 0.4956 0.0
C447 C 0.65984 0.64986 0.46278 0.0
C448 C 0.70991 0.65755 0.45085 0.0
C449 C 0.75178 0.65534 0.42047 0.0
C450 C 0.7436 0.64552 0.40154 0.0
C451 C 0.69337 0.63792 0.41289 0.0
C452 C 0.6515 0.64006 0.44333 0.0
C453 C 0.32083 0.6645 0.52769 0.0
C454 C 0.28698 0.65481 0.51796 0.0
C455 C 0.39094 0.66457 0.52862 0.0
C456 C 0.42881 0.65495 0.5199 0.0
C457 C 0.39544 0.6454 0.50891 0.0
C458 C 0.32534 0.64531 0.50811 0.0
C459 C 0.50277 0.65468 0.52349 0.0
C460 C 0.54627 0.65207 0.49385 0.0
C461 C 0.53046 0.65711 0.5559 0.0
C462 C 0.48729 0.65945 0.58858 0.0
C463 C 0.43814 0.65173 0.60143 0.0
C464 C 0.39684 0.65408 0.63188 0.0
C465 C 0.4046 0.66408 0.64991 0.0
C466 C 0.45384 0.67174 0.63758 0.0
C467 C 0.49519 0.66944 0.60709 0.0
H468 H 0.37256 0.66589 0.67348 0.0
H469 H 0.77611 0.64383 0.37805 0.0
H470 H 0.77829 0.3802 0.51595 0.0
H471 H 0.65606 0.38044 0.51446 0.0
H472 H 0.64769 0.41202 0.56857 0.0
H473 H 0.77 0.41176 0.57069 0.0
H474 H 0.54634 0.39873 0.59366 0.0
H475 H 0.63794 0.41047 0.4787 0.0
H476 H 0.70988 0.40884 0.42321 0.0
H477 H 0.61009 0.37841 0.39878 0.0
H478 H 0.53814 0.37977 0.4544 0.0
H479 H 0.21645 0.41412 0.55466 0.0
H480 H 0.33843 0.41372 0.55758 0.0
H481 H 0.348 0.38249 0.50143 0.0
H482 H 0.22616 0.38293 0.49779 0.0
H483 H 0.44885 0.39557 0.47761 0.0
H484 H 0.35651 0.38382 0.59204 0.0
H485 H 0.28434 0.38533 0.64747 0.0
H486 H 0.38539 0.41552 0.67317 0.0
H487 H 0.45746 0.41429 0.61758 0.0
C488 C 0.75055 0.38716 0.52782 0.0
C489 C 0.78427 0.39599 0.5433 0.0
C490 C 0.6805 0.38732 0.52677 0.0
C491 C 0.64249 0.39634 0.54086 0.0
C492 C 0.67577 0.40498 0.5574 0.0
C493 C 0.74586 0.40482 0.55855 0.0
C494 C 0.5684 0.3969 0.53757 0.0
C495 C 0.5251 0.39818 0.56823 0.0
C496 C 0.54029 0.39595 0.5045 0.0
C497 C 0.58305 0.39517 0.47087 0.0
C498 C 0.63163 0.40339 0.46161 0.0
C499 C 0.67237 0.40252 0.43012 0.0
C500 C 0.66462 0.39352 0.40752 0.0
C501 C 0.61605 0.38537 0.41633 0.0
C502 C 0.57524 0.38619 0.44782 0.0
C503 C 0.24444 0.40719 0.54272 0.0
C504 C 0.21121 0.39854 0.52608 0.0
C505 C 0.31432 0.40694 0.5446 0.0
C506 C 0.35261 0.39798 0.53026 0.0
C507 C 0.31975 0.38948 0.51282 0.0
C508 C 0.2499 0.38974 0.51079 0.0
C509 C 0.42667 0.39739 0.5337 0.0
C510 C 0.47001 0.39611 0.50306 0.0
C511 C 0.45477 0.39832 0.56681 0.0
C512 C 0.41197 0.39902 0.60046 0.0
C513 C 0.36304 0.39082 0.60938 0.0
C514 C 0.32217 0.39162 0.64085 0.0
C515 C 0.33017 0.40053 0.66379 0.0
C516 C 0.37919 0.40864 0.65535 0.0
C517 C 0.42009 0.40789 0.62387 0.0
H518 H 0.29848 0.40114 0.68814 0.0
H519 H 0.69611 0.39288 0.38312 0.0
H520 H 0.78685 0.87685 0.04027 0.0
H521 H 0.90937 0.8767 0.04098 0.0
H522 H 0.9169 0.91118 1.00821 0.0
H523 H 0.79453 0.9114 1.00714 0.0
H524 H 1.01831 0.89886 0.97395 0.0
H525 H 0.92581 0.90435 0.09396 0.0
H526 H 0.85313 0.8995 0.14726 0.0
H527 H 0.95469 0.86809 0.15446 0.0
H528 H 1.0273 0.87269 0.10085 0.0
H529 H 0.34655 0.91217 0.01946 0.0
H530 H 0.22462 0.91182 0.01621 0.0
H531 H 0.21754 0.87834 0.05836 0.0
H532 H 0.33916 0.87873 0.0625 0.0
H533 H 0.11567 0.88981 0.08716 0.0
H534 H 0.20816 0.88365 0.96931 0.0
H535 H 0.28139 0.8876 0.91545 0.0
H536 H 0.1812 0.91888 0.9028 0.0
H537 H 0.10795 0.91521 0.95697 0.0
C538 C 0.81448 0.88438 0.03288 0.0
C539 C 0.78053 0.89416 0.02387 0.0
C540 C 0.88463 0.88429 0.03343 0.0
C541 C 0.9224 0.89397 0.02509 0.0
C542 C 0.88892 0.90362 0.01482 0.0
C543 C 0.81878 0.90373 0.01434 0.0
C544 C 0.99638 0.8942 0.02845 0.0
C545 C 0.03957 0.89701 0.99879 0.0
C546 C 1.02441 0.89151 0.06063 0.0
C547 C 0.98158 0.88883 0.09322 0.0
C548 C 0.93237 0.89639 0.10679 0.0
C549 C 0.89121 0.89368 0.13706 0.0
C550 C 0.89919 0.88348 0.15419 0.0
C551 C 0.94851 0.87598 0.14114 0.0
C552 C 0.98971 0.87864 0.11083 0.0
C553 C 0.31907 0.90475 0.02823 0.0
C554 C 0.35285 0.89546 0.04113 0.0
C555 C 0.24926 0.90453 0.02617 0.0
C556 C 0.21174 0.89498 0.03648 0.0
C557 C 0.24519 0.8858 0.05016 0.0
C558 C 0.31491 0.88603 0.05246 0.0
C559 C 0.13784 0.8945 0.03268 0.0
C560 C 0.09459 0.89165 0.06226 0.0
C561 C 0.10987 0.89702 1.00032 0.0
C562 C 0.15293 0.89919 0.96738 0.0
C563 C 0.20197 0.8914 0.95517 0.0
C564 C 0.24346 0.89359 0.92459 0.0
C565 C 0.23597 0.90348 0.90576 0.0
C566 C 0.18691 0.91122 0.91744 0.0
C567 C 0.14534 0.90909 0.94807 0.0
H568 H 0.26806 0.90513 0.88206 0.0
H569 H 0.86724 0.8814 0.1776 0.0
H570 H 0.28919 0.17185 0.02076 0.0
H571 H 0.16683 0.17185 0.0194 0.0
H572 H 0.16099 0.137 0.04811 0.0
H573 H 0.28324 0.13687 0.04894 0.0
H574 H 0.08419 0.14064 0.99535 0.0
H575 H 0.10979 0.15762 0.10765 0.0
H576 H 0.15375 0.17119 0.14879 0.0
H577 H 0.0659 0.19804 0.09294 0.0
H578 H 1.02216 0.18464 0.05115 0.0
H579 H 0.73068 0.13644 0.03798 0.0
H580 H 0.85283 0.13669 0.04085 0.0
H581 H 0.85897 0.17089 1.00518 0.0
H582 H 0.73692 0.17073 1.0023 0.0
H583 H 0.93504 0.16766 0.06156 0.0
H584 H 0.90954 0.15052 0.94934 0.0
H585 H 0.86501 0.13684 0.90874 0.0
H586 H 0.95243 0.11012 0.96537 0.0
H587 H 0.99669 0.12364 1.00666 0.0
C588 C 0.26191 0.1642 0.02711 0.0
C589 C 0.29629 0.15436 0.03501 0.0
C590 C 0.19178 0.16422 0.0264 0.0
C591 C 0.1544 0.15444 0.0339 0.0
C592 C 0.18858 0.14465 0.04216 0.0
C593 C 0.25863 0.14461 0.04278 0.0
C594 C 0.07996 0.15431 0.03214 0.0
C595 C 0.05157 0.14645 1.01025 0.0
C596 C 0.03726 0.16205 0.05089 0.0
C597 C 0.06328 0.17013 0.07605 0.0
C598 C 0.10029 0.16642 0.10397 0.0
C599 C 0.12509 0.17409 0.12744 0.0
C600 C 0.11278 0.18547 0.12342 0.0
C601 C 0.07547 0.18922 0.09598 0.0
C602 C 0.05062 0.18159 0.07242 0.0
C603 C 0.75798 0.144 0.03056 0.0
C604 C 0.72389 0.15355 0.01977 0.0
C605 C 0.82789 0.14412 0.03217 0.0
C606 C 0.8652 0.15379 0.02305 0.0
C607 C 0.83129 0.16334 0.01237 0.0
C608 C 0.76147 0.1632 1.01056 0.0
C609 C 0.9395 0.15398 0.02489 0.0
C610 C 0.96778 0.16185 0.04673 0.0
C611 C 0.98211 0.14623 1.00619 0.0
C612 C 0.95585 0.13809 0.98131 0.0
C613 C 0.91881 0.14172 0.95332 0.0
C614 C 0.8937 0.134 0.93015 0.0
C615 C 0.90573 0.12262 0.93453 0.0
C616 C 0.94307 0.11894 0.96204 0.0
C617 C 0.96822 0.12663 0.98532 0.0
H618 H 0.88626 0.11665 0.91656 0.0
H619 H 0.13202 0.19139 0.14162 0.0
H620 H 0.33956 0.17028 0.55156 0.0
H621 H 0.2171 0.1701 0.55055 0.0
H622 H 0.22738 0.13818 0.49837 0.0
H623 H 0.34976 0.13845 0.4984 0.0
H624 H 0.1423 0.15089 0.46831 0.0
H625 H 0.17655 0.14107 0.58794 0.0
H626 H 0.22169 0.14325 0.64626 0.0
H627 H 0.11682 0.17434 0.66103 0.0
H628 H 0.07182 0.17244 0.60254 0.0
H629 H 0.79495 0.13692 0.49753 0.0
H630 H 0.91734 0.13711 0.49905 0.0
H631 H 0.90821 0.17047 0.5411 0.0
H632 H 0.78591 0.17036 0.53985 0.0
H633 H 0.99195 0.15696 0.57665 0.0
H634 H 0.95819 0.16631 0.45566 0.0
H635 H 0.91321 0.16352 0.39757 0.0
H636 H 1.01732 0.13225 0.38629 0.0
H637 H 0.06218 0.13479 0.44457 0.0
C638 C 0.31575 0.16321 0.53994 0.0
C639 C 0.35453 0.15437 0.52514 0.0
C640 C 0.24561 0.16309 0.53951 0.0
C641 C 0.21267 0.15405 0.52479 0.0
C642 C 0.25143 0.14525 0.50988 0.0
C643 C 0.32152 0.1454 0.51002 0.0
C644 C 0.13799 0.15382 0.52442 0.0
C645 C 0.10953 0.15207 0.49213 0.0
C646 C 0.0949 0.15554 0.55534 0.0
C647 C 0.12133 0.15666 0.59069 0.0
C648 C 0.16348 0.14842 0.60352 0.0
C649 C 0.189 0.1496 0.63662 0.0
C650 C 0.17228 0.15894 0.6573 0.0
C651 C 0.1298 0.16711 0.64496 0.0
C652 C 0.10423 0.16598 0.61185 0.0
C653 C 0.81887 0.14432 0.50701 0.0
C654 C 0.78039 0.15364 0.5184 0.0
C655 C 0.88895 0.14442 0.5078 0.0
C656 C 0.92206 0.15384 0.51998 0.0
C657 C 0.88379 0.16312 0.53161 0.0
C658 C 0.8138 0.16305 0.53068 0.0
C659 C 0.99658 0.15403 0.52059 0.0
C660 C 1.0249 0.15578 0.5529 0.0
C661 C 0.03958 0.15219 0.48978 0.0
C662 C 1.013 0.15069 0.45463 0.0
C663 C 0.97107 0.1588 0.44091 0.0
C664 C 0.94567 0.15727 0.40793 0.0
C665 C 0.96225 0.1477 0.38829 0.0
C666 C 1.00444 0.13965 0.40155 0.0
C667 C 1.02991 0.14114 0.43454 0.0
H668 H 0.94253 0.14653 0.36276 0.0
H669 H 0.19212 0.15985 0.68291 0.0
H670 H 0.72657 0.88311 0.51276 0.0
H671 H 0.84813 0.88285 0.51702 0.0
H672 H 0.84145 0.91676 0.5544 0.0
H673 H 0.71942 0.91711 0.55025 0.0
H674 H 0.94794 0.91325 0.50533 0.0
H675 H 0.85577 0.89608 0.61185 0.0
H676 H 0.78534 0.88285 0.64818 0.0
H677 H 0.89349 0.85535 0.59919 0.0
H678 H 0.96392 0.86841 0.56216 0.0
H679 H 0.27258 0.91435 0.56926 0.0
H680 H 0.15046 0.9146 0.56751 0.0
H681 H 0.15486 0.88092 0.52805 0.0
H682 H 0.27751 0.88058 0.52975 0.0
H683 H 0.04926 0.88444 0.57912 0.0
H684 H 0.14056 0.90202 0.47202 0.0
H685 H 0.21093 0.91552 0.4368 0.0
H686 H 0.10362 0.94265 0.48852 0.0
H687 H 1.03325 0.92929 0.52447 0.0
C688 C 0.75081 0.89057 0.52165 0.0
C689 C 0.71294 0.90014 0.5312 0.0
C690 C 0.82044 0.89037 0.52426 0.0
C691 C 0.85399 0.89973 0.53645 0.0
C692 C 0.81672 0.90942 0.54503 0.0
C693 C 0.74687 0.9096 0.54265 0.0
C694 C 0.92776 0.89934 0.54055 0.0
C695 C 0.96994 0.90705 0.52186 0.0
C696 C 0.95681 0.89112 0.56164 0.0
C697 C 0.91472 0.88323 0.58396 0.0
C698 C 0.86418 0.88721 0.6086 0.0
C699 C 0.82431 0.87974 0.62937 0.0
C700 C 0.83485 0.86827 0.62593 0.0
C701 C 0.88535 0.86424 0.60179 0.0
C702 C 0.92529 0.87167 0.58092 0.0
C703 C 0.24774 0.90693 0.56049 0.0
C704 C 0.28518 0.89745 0.54952 0.0
C705 C 0.17776 0.90712 0.55937 0.0
C706 C 0.14338 0.89783 0.54724 0.0
C707 C 0.18023 0.8882 0.53744 0.0
C708 C 0.25043 0.88803 0.53836 0.0
C709 C 0.0694 0.89833 0.54379 0.0
C710 C 1.0272 0.89064 0.56262 0.0
C711 C 0.04024 0.90661 0.52298 0.0
C712 C 0.08209 0.91465 0.50118 0.0
C713 C 0.13231 0.91086 0.47608 0.0
C714 C 0.17215 0.91849 0.45595 0.0
C715 C 0.16186 0.92994 0.46048 0.0
C716 C 0.11159 0.93378 0.48508 0.0
C717 C 0.07168 0.92618 0.50532 0.0
H718 H 0.19275 0.93583 0.44487 0.0
H719 H 0.80399 0.86249 0.64202 0.0
H720 H 0.95196 0.56868 1.00703 0.0
H721 H 0.95045 0.54831 1.00754 0.0
H722 H 0.07874 0.54806 0.09405 0.0
H723 H 0.08114 0.56854 0.09339 0.0
H724 H 0.12111 0.53316 0.04193 0.0
H725 H 0.91507 0.54175 0.10905 0.0
H726 H 0.80535 0.55096 0.1213 0.0
H727 H 0.73171 0.53553 0.02987 0.0
H728 H 0.84136 0.52635 0.01677 0.0
H729 H 0.08916 0.47466 0.06945 0.0
H730 H 0.08558 0.4948 0.07909 0.0
H731 H 0.94256 0.49825 0.99999 0.0
H732 H 0.94347 0.47809 0.99138 0.0
H733 H 0.90825 0.51158 0.05291 0.0
H734 H 0.11398 0.50413 0.98293 0.0
H735 H 0.22381 0.49516 0.96851 0.0
H736 H 0.29804 0.50864 0.06275 0.0
H737 H 0.18828 0.51758 0.07797 0.0
C738 C 0.98007 0.56431 0.02613 0.0
C739 C 1.01685 0.57028 0.05012 0.0
C740 C 0.9787 0.55264 0.02658 0.0
C741 C 1.01404 0.54661 0.05102 0.0
C742 C 0.05091 0.55252 0.07501 0.0
C743 C 0.05188 0.56423 0.07476 0.0
C744 C 1.01345 0.53415 0.05083 0.0
C745 C 0.07464 0.52843 0.04497 0.0
C746 C 0.95277 0.52796 0.0539 0.0
C747 C 0.88666 0.53344 0.06177 0.0
C748 C 0.87567 0.54039 0.0914 0.0
C749 C 0.81344 0.5456 0.09852 0.0
C750 C 0.76164 0.54385 0.07633 0.0
C751 C 0.77191 0.53688 0.04701 0.0
C752 C 0.83406 0.53167 0.03975 0.0
C753 C 0.056 0.47965 0.0545 0.0
C754 C 1.01694 0.47467 0.02942 0.0
C755 C 0.05465 0.49123 0.05974 0.0
C756 C 1.01474 0.49814 0.03982 0.0
C757 C 0.97415 0.49316 0.01558 0.0
C758 C 0.97522 0.48159 1.01044 0.0
C759 C 1.01593 0.51055 0.04366 0.0
C760 C 0.95482 0.51629 0.05015 0.0
C761 C 0.07667 0.51676 0.04089 0.0
C762 C 0.14269 0.51141 0.03179 0.0
C763 C 0.15356 0.50511 1.00072 0.0
C764 C 0.21582 0.50004 0.99238 0.0
C765 C 0.2678 0.5013 0.01476 0.0
C766 C 0.25768 0.50766 0.04548 0.0
C767 C 0.19547 0.51273 0.05397 0.0
H768 H 0.31598 0.49738 1.00825 0.0
H769 H 0.7135 0.54789 0.08189 0.0
H770 H 0.97071 0.47726 0.49743 0.0
H771 H 0.97676 0.49751 0.49001 0.0
H772 H 0.1272 0.49916 0.56564 0.0
H773 H 0.1224 0.47891 0.57279 0.0
H774 H 1.03044 0.51454 0.57979 0.0
H775 H 0.16787 0.50292 0.47693 0.0
H776 H 0.19348 0.49256 0.42156 0.0
H777 H 1.02997 0.50888 0.37497 0.0
H778 H 1.00279 0.51923 0.43026 0.0
H779 H 0.13109 0.57058 0.55698 0.0
H780 H 0.12902 0.55023 0.55819 0.0
H781 H 0.98871 0.55015 0.47708 0.0
H782 H 0.99153 0.57061 0.47536 0.0
H783 H 0.07655 0.53393 0.46483 0.0
H784 H 0.93809 0.54552 0.56629 0.0
H785 H 0.90931 0.55582 0.62145 0.0
H786 H 0.06956 0.53942 0.67063 0.0
H787 H 0.09991 0.52913 0.61558 0.0
C788 C 1.00608 0.48188 0.51204 0.0
C789 C 0.046 0.47636 0.53579 0.0
C790 C 1.00929 0.49351 0.50784 0.0
C791 C 0.05264 0.49993 0.52716 0.0
C792 C 0.09308 0.49444 0.55054 0.0
C793 C 0.09007 0.48282 0.55469 0.0
C794 C 0.05434 0.51237 0.524 0.0
C795 C 0.04147 0.51876 0.5547 0.0
C796 C 0.0665 0.51795 0.49115 0.0
C797 C 0.08288 0.51176 0.45786 0.0
C798 C 0.13703 0.50423 0.45498 0.0
C799 C 0.1519 0.49837 0.42359 0.0
C800 C 0.11326 0.50004 0.3948 0.0
C801 C 0.05979 0.50759 0.39731 0.0
C802 C 0.04466 0.51346 0.42866 0.0
C803 C 0.09953 0.56625 0.53946 0.0
C804 C 0.06086 0.57227 0.51635 0.0
C805 C 0.09833 0.55458 0.5402 0.0
C806 C 0.05756 0.54857 0.51828 0.0
C807 C 1.02039 0.55454 0.4944 0.0
C808 C 1.02208 0.56626 0.4934 0.0
C809 C 0.05336 0.53611 0.52072 0.0
C810 C 0.0655 0.52971 0.48993 0.0
C811 C 0.03997 0.53049 0.55348 0.0
C812 C 1.02164 0.53663 0.58669 0.0
C813 C 0.96749 0.54417 0.58879 0.0
C814 C 0.95085 0.55 0.62005 0.0
C815 C 0.98768 0.5483 0.6495 0.0
C816 C 0.04112 0.54074 0.64778 0.0
C817 C 0.05803 0.5349 0.61657 0.0
H818 H 0.97473 0.55282 0.67368 0.0
H819 H 0.12486 0.4955 0.37052 0.0
H820 H 0.4936 0.97804 0.97294 0.0
H821 H 0.49027 0.99847 0.9739 0.0
H822 H 0.59669 0.99846 0.06873 0.0
H823 H 0.59969 0.97811 0.06804 0.0
H824 H 0.4965 1.01268 0.07577 0.0
H825 H 0.67356 1.00551 0.98555 0.0
H826 H 0.7243 0.99729 0.93036 0.0
H827 H 0.57851 1.01399 0.8713 0.0
H828 H 0.52635 1.0222 0.92622 0.0
H829 H 0.58256 0.07034 0.07781 0.0
H830 H 0.58513 0.04994 0.07571 0.0
H831 H 0.47964 0.05061 0.98059 0.0
H832 H 0.4775 0.07097 0.98238 0.0
H833 H 0.57783 0.03606 0.97327 0.0
H834 H 0.40113 0.04332 0.06312 0.0
H835 H 0.34976 0.05153 0.11818 0.0
H836 H 0.49386 0.03462 0.17781 0.0
H837 H 0.54666 0.02642 0.12303 0.0
C838 C 0.51688 0.9824 0.99379 0.0
C839 C 0.54672 0.9764 0.02047 0.0
C840 C 0.51495 0.9941 0.99434 0.0
C841 C 0.54368 1.00008 0.02128 0.0
C842 C 0.57384 0.99409 0.04776 0.0
C843 C 0.57541 0.98243 0.04735 0.0
C844 C 0.54153 1.01254 0.02239 0.0
C845 C 0.51514 1.01778 0.05348 0.0
C846 C 0.56418 1.01927 0.99309 0.0
C847 C 0.59566 1.01438 0.96004 0.0
C848 C 0.65203 1.00737 0.96082 0.0
C849 C 0.68109 1.00272 0.92959 0.0
C850 C 0.65454 1.0051 0.89736 0.0
C851 C 0.59897 1.01215 0.89629 0.0
C852 C 0.56968 1.01681 0.92745 0.0
C853 C 0.55937 0.06614 0.05663 0.0
C854 C 0.52988 0.07233 0.03026 0.0
C855 C 0.56084 0.05445 0.05544 0.0
C856 C 0.53197 0.04866 0.02816 0.0
C857 C 0.5025 0.05483 1.00185 0.0
C858 C 0.50141 0.0665 1.00289 0.0
C859 C 0.53306 0.03619 0.02672 0.0
C860 C 0.55918 0.03096 0.99556 0.0
C861 C 0.51007 0.02946 0.05594 0.0
C862 C 0.47823 0.03434 0.08893 0.0
C863 C 0.42215 0.04141 0.08795 0.0
C864 C 0.39273 0.04606 0.11911 0.0
C865 C 0.41863 0.04362 0.15146 0.0
C866 C 0.4739 0.03651 0.15273 0.0
C867 C 0.50356 0.03186 0.12164 0.0
H868 H 0.39579 0.04722 0.17556 0.0
H869 H 0.6771 1.00149 0.8732 0.0
H870 H 0.66452 0.07316 0.54253 0.0
H871 H 0.66315 0.05278 0.54833 0.0
H872 H 0.49921 0.05102 0.48071 0.0
H873 H 0.49941 0.07133 0.47536 0.0
H874 H 0.47588 0.0377 0.53748 0.0
H875 H 0.6596 0.04408 0.45042 0.0
H876 H 0.76711 0.05228 0.42667 0.0
H877 H 0.868 0.0372 0.51082 0.0
H878 H 0.76082 0.02903 0.53536 0.0
H879 H 0.4767 0.97995 0.50098 0.0
H880 H 0.4863 1.00018 0.49484 0.0
H881 H 0.65313 1.0001 0.56078 0.0
H882 H 0.64532 0.97978 0.5661 0.0
H883 H 0.67705 1.01438 0.50675 0.0
H884 H 0.49493 1.00782 0.59358 0.0
H885 H 0.38783 0.99966 0.61807 0.0
H886 H 0.28432 1.01521 0.53569 0.0
H887 H 0.39104 1.02334 0.51039 0.0
C888 C 0.62803 0.06844 0.52897 0.0
C889 C 0.58237 0.07394 0.50827 0.0
C890 C 0.62763 0.05676 0.5321 0.0
C891 C 0.58145 0.05029 0.5147 0.0
C892 C 0.5355 0.05577 0.49432 0.0
C893 C 0.53612 0.06742 0.49102 0.0
C894 C 0.58006 0.03785 0.51802 0.0
C895 C 0.51971 0.03261 0.53032 0.0
C896 C 0.63758 0.03115 0.50965 0.0
C897 C 0.70206 0.03604 0.49494 0.0
C898 C 0.7046 0.04259 0.46403 0.0
C899 C 0.7655 0.04722 0.45039 0.0
C900 C 0.82431 0.04529 0.46728 0.0
C901 C 0.82237 0.0387 0.4978 0.0
C902 C 0.76158 0.03406 0.51157 0.0
C903 C 0.51623 0.98417 0.51375 0.0
C904 C 0.56011 0.97814 0.53415 0.0
C905 C 0.52115 0.99581 0.51054 0.0
C906 C 0.56976 1.00176 0.52781 0.0
C907 C 0.61491 0.99575 0.54735 0.0
C908 C 0.61002 0.98411 0.55059 0.0
C909 C 0.57266 1.01423 0.5259 0.0
C910 C 0.63326 1.01948 0.51396 0.0
C911 C 0.51541 1.02096 0.53473 0.0
C912 C 0.45111 1.0161 0.54989 0.0
C913 C 0.44942 1.00943 0.58052 0.0
C914 C 0.38877 1.00482 0.59458 0.0
C915 C 0.32934 1.00689 0.5784 0.0
C916 C 0.33042 1.0136 0.54817 0.0
C917 C 0.39097 1.01822 0.53397 0.0
H918 H 0.28242 1.00332 0.58933 0.0
H919 H 0.87142 0.04887 0.45667 0.0
H920 H 0.11457 0.31367 0.09029 0.0
H921 H 0.15602 0.29456 0.08517 0.0
H922 H 0.29682 0.30446 0.99896 0.0
H923 H 0.25572 0.32368 1.00404 0.0
H924 H 0.23746 0.2852 0.9841 0.0
H925 H 0.34765 0.29939 0.08263 0.0
H926 H 0.35459 0.30845 0.14045 0.0
H927 H 0.23024 0.28279 0.19026 0.0
H928 H 0.22179 0.27365 0.13263 0.0
H929 H 0.44089 0.23659 0.98057 0.0
H930 H 0.39823 0.25563 0.98575 0.0
H931 H 0.25905 0.24553 0.07243 0.0
H932 H 0.30156 0.22639 0.06735 0.0
H933 H 0.31688 0.26485 0.08715 0.0
H934 H 0.20692 0.25062 0.98875 0.0
H935 H 0.19982 0.24155 0.93096 0.0
H936 H 0.32339 0.26727 0.88095 0.0
H937 H 0.33199 0.27642 0.93854 0.0
C938 C 0.15498 0.31185 0.0705 0.0
C939 C 0.18209 0.32031 0.04779 0.0
C940 C 0.17858 0.30087 0.06755 0.0
C941 C 0.23031 0.29803 0.04198 0.0
C942 C 0.25693 0.3064 0.01894 0.0
C943 C 0.23322 0.31741 0.02183 0.0
C944 C 0.25604 0.28633 0.03912 0.0
C945 C 0.25572 0.28082 1.00654 0.0
C946 C 0.27835 0.28044 0.06854 0.0
C947 C 0.28356 0.28589 0.10325 0.0
C948 C 0.32137 0.29572 0.10587 0.0
C949 C 0.32564 0.30087 0.13861 0.0
C950 C 0.29274 0.29622 0.16899 0.0
C951 C 0.25563 0.28639 0.1667 0.0
C952 C 0.25113 0.28122 0.13401 0.0
C953 C 0.40053 0.23835 1.00046 0.0
C954 C 0.37434 0.22987 0.02332 0.0
C955 C 0.37622 0.24929 1.00344 0.0
C956 C 0.32462 0.25205 0.02917 0.0
C957 C 0.29881 0.24365 0.05232 0.0
C958 C 0.32328 0.23269 0.04942 0.0
C959 C 0.29837 0.26373 0.03212 0.0
C960 C 0.29859 0.26923 0.06472 0.0
C961 C 0.27593 0.26961 1.00271 0.0
C962 C 0.27061 0.26415 0.96802 0.0
C963 C 0.23299 0.2543 0.96547 0.0
C964 C 0.22863 0.24915 0.93274 0.0
C965 C 0.26127 0.25381 0.90231 0.0
C966 C 0.2982 0.26366 0.90454 0.0
C967 C 0.30278 0.26884 0.93722 0.0
H968 H 0.25783 0.24981 0.877 0.0
H969 H 0.29611 0.30021 0.19432 0.0
H970 H 0.7444 0.81896 0.09213 0.0
H971 H 0.78284 0.79965 0.08776 0.0
H972 H 0.70279 0.79686 0.98573 0.0
H973 H 0.66169 0.81604 0.99055 0.0
H974 H 0.67078 0.7789 0.02398 0.0
H975 H 0.87474 0.79923 0.99543 0.0
H976 H 0.96267 0.81318 1.00432 0.0
H977 H 1.00737 0.79689 0.10075 0.0
H978 H 0.91905 0.78292 0.09267 0.0
H979 H 0.83257 0.72778 0.97401 0.0
H980 H 0.79429 0.74712 0.97778 0.0
H981 H 0.87322 0.75014 0.08002 0.0
H982 H 0.9141 0.73094 0.07582 0.0
H983 H 0.90593 0.768 0.04126 0.0
H984 H 0.70151 0.7477 0.06982 0.0
H985 H 0.61361 0.73375 0.0608 0.0
H986 H 0.56992 0.74999 0.96412 0.0
H987 H 0.6582 0.76396 0.97233 0.0
C988 C 0.73464 0.81425 0.06878 0.0
C989 C 0.6998 0.81914 0.0417 0.0
C990 C 0.75735 0.8032 0.06615 0.0
C991 C 0.74647 0.79676 0.03623 0.0
C992 C 0.71207 0.80163 1.00907 0.0
C993 C 0.68919 0.81267 0.0117 0.0
C994 C 0.7695 0.7849 0.03365 0.0
C995 C 0.72246 0.77655 0.02725 0.0
C996 C 0.83655 0.78172 0.03875 0.0
C997 C 0.88983 0.79009 0.04361 0.0
C998 C 0.90297 0.79867 0.01867 0.0
C999 C 0.95294 0.80658 0.02354 0.0
C1000 C 0.99046 0.80594 0.05312 0.0
C1001 C 0.97821 0.79738 0.07786 0.0
C1002 C 0.92824 0.78946 0.07313 0.0
C1003 C 0.84211 0.73255 0.99729 0.0
C1004 C 0.87653 0.72772 0.02462 0.0
C1005 C 0.8195 0.74361 0.99956 0.0
C1006 C 0.83012 0.75012 0.02937 0.0
C1007 C 0.86415 0.74532 0.05677 0.0
C1008 C 0.88691 0.73426 0.05449 0.0
C1009 C 0.80719 0.762 0.03164 0.0
C1010 C 0.85425 0.77035 0.03798 0.0
C1011 C 0.74018 0.76518 0.02646 0.0
C1012 C 0.68692 0.75681 0.02153 0.0
C1013 C 0.6735 0.74825 0.0465 0.0
C1014 C 0.62355 0.74035 0.04156 0.0
C1015 C 0.58633 0.74097 0.01186 0.0
C1016 C 0.59885 0.74951 0.98709 0.0
C1017 C 0.6488 0.75743 0.99189 0.0
H1018 H 0.54767 0.73484 1.00808 0.0
H1019 H 1.02912 0.81207 0.05685 0.0
H1020 H 0.29555 0.72705 0.5503 0.0
H1021 H 0.33467 0.7464 0.54879 0.0
H1022 H 0.14651 0.75697 0.51059 0.0
H1023 H 0.10725 0.73766 0.51192 0.0
H1024 H 0.24638 0.76766 0.4756 0.0
H1025 H 0.18396 0.76052 0.59838 0.0
H1026 H 0.18567 0.75042 0.65502 0.0
H1027 H 0.39745 0.75664 0.65657 0.0
H1028 H 0.39717 0.76666 0.59968 0.0
H1029 H 0.2819 0.82586 0.50715 0.0
H1030 H 0.24301 0.80648 0.50807 0.0
H1031 H 0.43001 0.79592 0.54762 0.0
H1032 H 0.46887 0.81524 0.54703 0.0
H1033 H 0.33067 0.78521 0.58186 0.0
H1034 H 0.39341 0.79234 0.45919 0.0
H1035 H 0.3921 0.8024 0.40245 0.0
H1036 H 0.18041 0.79616 0.40051 0.0
H1037 H 0.18028 0.78618 0.4575 0.0
C1038 C 0.26231 0.73349 0.54173 0.0
C1039 C 0.19811 0.73073 0.53127 0.0
C1040 C 0.28477 0.74459 0.54089 0.0
C1041 C 0.24332 0.75325 0.53 0.0
C1042 C 0.17966 0.75049 0.51904 0.0
C1043 C 0.15731 0.7394 0.51971 0.0
C1044 C 0.26597 0.76516 0.53009 0.0
C1045 C 0.26398 0.77153 0.499 0.0
C1046 C 0.29045 0.77022 0.56031 0.0
C1047 C 0.29065 0.76425 0.5946 0.0
C1048 C 0.23098 0.75967 0.61068 0.0
C1049 C 0.23168 0.75397 0.64284 0.0
C1050 C 0.29166 0.75286 0.65934 0.0
C1051 C 0.35104 0.75749 0.64374 0.0
C1052 C 0.35063 0.76319 0.61155 0.0
C1053 C 0.31492 0.81941 0.51588 0.0
C1054 C 0.37861 0.82217 0.52702 0.0
C1055 C 0.29262 0.8083 0.51636 0.0
C1056 C 0.33379 0.79964 0.52749 0.0
C1057 C 0.39706 0.80239 0.53898 0.0
C1058 C 0.41918 0.81349 0.53873 0.0
C1059 C 0.31114 0.78772 0.52734 0.0
C1060 C 0.3131 0.78135 0.55843 0.0
C1061 C 0.28671 0.78266 0.49711 0.0
C1062 C 0.28673 0.78861 0.46278 0.0
C1063 C 0.34649 0.79318 0.44679 0.0
C1064 C 0.34602 0.79886 0.41457 0.0
C1065 C 0.28618 0.79994 0.39793 0.0
C1066 C 0.22671 0.79533 0.41345 0.0
C1067 C 0.22689 0.78965 0.44569 0.0
H1068 H 0.28592 0.80434 0.37299 0.0
H1069 H 0.2921 0.74844 0.68424 0.0
H1070 H 0.8247 0.32332 0.56618 0.0
H1071 H 0.78703 0.30392 0.57095 0.0
H1072 H 0.88133 0.29724 0.46728 0.0
H1073 H 0.91985 0.31656 0.46243 0.0
H1074 H 0.7596 0.28773 0.47465 0.0
H1075 H 0.95291 0.28871 0.5425 0.0
H1076 H 1.02317 0.29555 0.58863 0.0
H1077 H 0.86698 0.28735 0.66858 0.0
H1078 H 0.79537 0.2806 0.62285 0.0
H1079 H 0.74856 0.22837 0.48411 0.0
H1080 H 0.78659 0.24776 0.47937 0.0
H1081 H 0.69302 0.25443 0.58322 0.0
H1082 H 0.65424 0.23513 0.58804 0.0
H1083 H 0.81446 0.26394 0.57576 0.0
H1084 H 0.62106 0.263 0.50806 0.0
H1085 H 0.55054 0.25618 0.46201 0.0
H1086 H 0.70654 0.26434 0.38191 0.0
H1087 H 0.7784 0.27107 0.42755 0.0
C1088 C 0.83797 0.31773 0.54445 0.0
C1089 C 0.87561 0.32159 0.51392 0.0
C1090 C 0.81623 0.3066 0.54721 0.0
C1091 C 0.83184 0.29902 0.51963 0.0
C1092 C 0.8684 0.30289 0.48892 0.0
C1093 C 0.89019 0.314 0.48614 0.0
C1094 C 0.81028 0.28707 0.52275 0.0
C1095 C 0.77242 0.2825 0.49654 0.0
C1096 C 0.82553 0.28023 0.55166 0.0
C1097 C 0.86852 0.28426 0.57921 0.0
C1098 C 0.93334 0.28845 0.56989 0.0
C1099 C 0.97344 0.29229 0.59597 0.0
C1100 C 0.94948 0.29191 0.6315 0.0
C1101 C 0.88543 0.28766 0.64104 0.0
C1102 C 0.84508 0.28381 0.61505 0.0
C1103 C 0.73556 0.23396 0.50588 0.0
C1104 C 0.69806 0.2301 0.53645 0.0
C1105 C 0.7575 0.24508 0.50315 0.0
C1106 C 0.74217 0.25266 0.53078 0.0
C1107 C 0.70575 0.24879 0.56153 0.0
C1108 C 0.6838 0.23768 0.5643 0.0
C1109 C 0.76379 0.26461 0.52766 0.0
C1110 C 0.80165 0.26917 0.55387 0.0
C1111 C 0.74851 0.27144 0.49876 0.0
C1112 C 0.70537 0.26743 0.47126 0.0
C1113 C 0.64054 0.26326 0.48065 0.0
C1114 C 0.60029 0.25942 0.45462 0.0
C1115 C 0.62412 0.2598 0.41906 0.0
C1116 C 0.68819 0.26404 0.40946 0.0
C1117 C 0.72869 0.26787 0.4354 0.0
H1118 H 0.59287 0.25683 0.39895 0.0
H1119 H 0.98062 0.29489 0.65166 0.0
H1120 H 0.03713 0.42012 0.13665 0.0
H1121 H 1.02125 0.41907 0.2009 0.0
H1122 H 0.05317 0.38348 0.19654 0.0
H1123 H 0.06337 0.38447 0.13171 0.0
H1124 H 0.9686 0.38666 0.24751 0.0
H1125 H 0.17996 0.40415 0.21864 0.0
H1126 H 0.26011 0.41765 0.18994 0.0
H1127 H 0.15282 0.44464 0.24244 0.0
H1128 H 0.07151 0.43132 0.27111 0.0
H1129 H 0.04552 0.38743 0.4332 0.0
H1130 H 0.05804 0.38572 0.36834 0.0
H1131 H 0.95941 0.41743 0.35818 0.0
H1132 H 0.94535 0.41904 0.4225 0.0
H1133 H 0.08631 0.41479 0.31589 0.0
H1134 H 0.87397 0.3956 0.34416 0.0
H1135 H 0.80438 0.38101 0.37486 0.0
H1136 H 0.92978 0.35565 0.32497 0.0
H1137 H 1.00089 0.37009 0.29445 0.0
C1138 C 0.0403 0.41206 0.1494 0.0
C1139 C 0.0522 0.40238 0.12916 0.0
C1140 C 1.03192 0.41146 0.1863 0.0
C1141 C 0.03847 0.40125 0.20416 0.0
C1142 C 0.04842 0.3915 0.18377 0.0
C1143 C 0.05449 0.39206 0.14664 0.0
C1144 C 1.03551 0.40084 0.24386 0.0
C1145 C 0.99535 0.39273 0.26227 0.0
C1146 C 0.07021 0.4087 0.26377 0.0
C1147 C 0.11936 0.41674 0.24681 0.0
C1148 C 0.17327 0.41297 0.22392 0.0
C1149 C 0.21891 0.42059 0.20767 0.0
C1150 C 0.21148 0.43199 0.21431 0.0
C1151 C 0.15849 0.4358 0.2373 0.0
C1152 C 0.11266 0.42822 0.2536 0.0
C1153 C 1.02621 0.39399 0.41706 0.0
C1154 C 0.99456 0.40338 0.43296 0.0
C1155 C 1.03332 0.393 0.38005 0.0
C1156 C 1.00971 0.40146 0.35837 0.0
C1157 C 0.97814 0.41081 0.37431 0.0
C1158 C 0.97003 0.41171 0.41113 0.0
C1159 C 1.01875 0.40081 0.31905 0.0
C1160 C 0.06018 0.40871 0.30086 0.0
C1161 C 0.98678 0.39259 0.29951 0.0
C1162 C 0.94316 0.38393 0.31731 0.0
C1163 C 0.88702 0.38691 0.33994 0.0
C1164 C 0.84723 0.37867 0.35727 0.0
C1165 C 0.86272 0.36741 0.35192 0.0
C1166 C 0.91789 0.36437 0.32912 0.0
C1167 C 0.95793 0.37258 0.31179 0.0
H1168 H 0.83191 0.36104 0.36539 0.0
H1169 H 0.24684 0.43788 0.20168 0.0
H1170 H 0.92538 0.64695 0.13771 0.0
H1171 H 0.92488 0.64422 0.20215 0.0
H1172 H 0.13249 0.65442 0.19869 0.0
H1173 H 0.13243 0.65756 0.13484 0.0
H1174 H 0.08612 0.634 0.24609 0.0
H1175 H 0.04216 0.67341 0.21901 0.0
H1176 H 0.97792 0.68805 0.19054 0.0
H1177 H 0.79538 0.6763 0.24562 0.0
H1178 H 0.85856 0.66148 0.274 0.0
H1179 H 0.15025 0.65007 0.42102 0.0
H1180 H 0.14253 0.64698 0.35762 0.0
H1181 H 0.92929 0.65373 0.36993 0.0
H1182 H 0.93847 0.65761 0.43251 0.0
H1183 H 0.97054 0.66396 0.31689 0.0
H1184 H 1.0067 0.62643 0.35046 0.0
H1185 H 0.0613 0.61063 0.37868 0.0
H1186 H 0.24258 0.61643 0.3128 0.0
H1187 H 0.18944 0.63238 0.28457 0.0
C1188 C 0.97112 0.64841 0.15069 0.0
C1189 C 1.0289 0.65251 0.13139 0.0
C1190 C 0.97081 0.64686 0.18743 0.0
C1191 C 1.02875 0.6491 0.2052 0.0
C1192 C 0.08742 0.65258 0.18554 0.0
C1193 C 0.08722 0.65441 0.14911 0.0
C1194 C 1.02685 0.64893 0.24451 0.0
C1195 C 0.06115 0.64054 0.26174 0.0
C1196 C 0.99255 0.65727 0.26491 0.0
C1197 C 0.95489 0.66627 0.24826 0.0
C1198 C 0.98825 0.67389 0.22479 0.0
C1199 C 0.95206 0.68224 0.20872 0.0
C1200 C 0.88258 0.68309 0.21618 0.0
C1201 C 0.84918 0.67562 0.23982 0.0
C1202 C 0.88515 0.66725 0.2559 0.0
C1203 C 0.10171 0.65071 0.41014 0.0
C1204 C 0.04499 0.65408 0.43155 0.0
C1205 C 0.09707 0.64889 0.37385 0.0
C1206 C 1.03506 0.65001 0.35851 0.0
C1207 C 0.97792 0.65289 0.3806 0.0
C1208 C 0.98303 0.65504 0.41651 0.0
C1209 C 1.03028 0.64898 0.31933 0.0
C1210 C 0.99491 0.65724 0.30182 0.0
C1211 C 0.06212 0.64031 0.29889 0.0
C1212 C 0.09422 0.63067 0.3156 0.0
C1213 C 0.05836 0.62438 0.34214 0.0
C1214 C 0.08903 0.6154 0.35813 0.0
C1215 C 0.15541 0.61254 0.34758 0.0
C1216 C 0.19118 0.61866 0.32096 0.0
C1217 C 0.16079 0.62767 0.30494 0.0
H1218 H 0.17907 0.60558 0.35999 0.0
H1219 H 0.85464 0.68955 0.20371 0.0
H1220 H 0.08974 0.66117 0.9331 0.0
H1221 H 0.10513 0.66361 0.8687 0.0
H1222 H 0.92723 0.64392 0.85672 0.0
H1223 H 0.91258 0.64131 0.92069 0.0
H1224 H 1.0241 0.63683 0.81272 0.0
H1225 H 0.9317 0.67264 0.84359 0.0
H1226 H 0.9248 0.6905 0.8756 0.0
H1227 H 0.12041 0.69966 0.82962 0.0
H1228 H 0.12897 0.68176 0.79775 0.0
H1229 H 0.99796 0.66362 0.62904 0.0
H1230 H 0.98137 0.66541 0.69363 0.0
H1231 H 0.1569 0.64512 0.70512 0.0
H1232 H 0.17326 0.64324 0.64094 0.0
H1233 H 0.05555 0.67283 0.74867 0.0
H1234 H 0.12055 0.62653 0.77119 0.0
H1235 H 0.1195 0.60864 0.73931 0.0
H1236 H 0.96093 0.62067 0.67873 0.0
H1237 H 0.96035 0.63856 0.71061 0.0
C1238 C 0.05355 0.65749 0.91668 0.0
C1239 C 1.00013 0.651 0.93192 0.0
C1240 C 0.06225 0.65891 0.87986 0.0
C1241 C 1.0173 0.65396 0.85764 0.0
C1242 C 0.96287 0.64777 0.87311 0.0
C1243 C 0.95438 0.64632 0.90975 0.0
C1244 C 1.0284 0.65469 0.81828 0.0
C1245 C 1.03101 0.64473 0.79886 0.0
C1246 C 0.03666 0.66497 0.79984 0.0
C1247 C 1.03122 0.67581 0.81853 0.0
C1248 C 0.97344 0.67843 0.84048 0.0
C1249 C 0.96921 0.68857 0.85859 0.0
C1250 C 1.0222 0.6962 0.85472 0.0
C1251 C 0.07944 0.69373 0.83263 0.0
C1252 C 0.08399 0.68359 0.81451 0.0
C1253 C 1.03351 0.65969 0.64538 0.0
C1254 C 0.08639 0.65317 0.62995 0.0
C1255 C 1.02411 0.66074 0.68228 0.0
C1256 C 0.06728 0.65526 0.70434 0.0
C1257 C 0.12233 0.6493 0.68875 0.0
C1258 C 0.13167 0.64823 0.65201 0.0
C1259 C 0.05211 0.65497 0.74347 0.0
C1260 C 0.04879 0.66497 0.76272 0.0
C1261 C 0.04198 0.64473 0.76187 0.0
C1262 C 0.04093 0.63392 0.74305 0.0
C1263 C 0.08526 0.62533 0.75118 0.0
C1264 C 0.08497 0.6152 0.7331 0.0
C1265 C 0.04033 0.61353 0.70693 0.0
C1266 C 0.99565 0.62198 0.69891 0.0
C1267 C 0.99565 0.63212 0.71696 0.0
H1268 H 0.04027 0.60569 0.69292 0.0
H1269 H 1.01885 0.70404 0.86879 0.0
H1270 H 0.08858 0.37909 0.6367 0.0
H1271 H 0.09474 0.38166 0.69996 0.0
H1272 H 0.95786 0.40947 0.69757 0.0
H1273 H 0.95027 0.40669 0.63372 0.0
H1274 H 0.13657 0.3969 0.74056 0.0
H1275 H 0.86451 0.41085 0.7774 0.0
H1276 H 0.75172 0.40932 0.75513 0.0
H1277 H 0.80819 0.37847 0.70406 0.0
H1278 H 0.92094 0.37976 0.72639 0.0
H1279 H 0.10971 0.40578 0.92891 0.0
H1280 H 0.10434 0.40894 0.86499 0.0
H1281 H 0.97311 0.38047 0.85976 0.0
H1282 H 0.97727 0.37749 0.92305 0.0
H1283 H 0.92858 0.3961 0.82071 0.0
H1284 H 0.14585 0.37966 0.83409 0.0
H1285 H 0.25888 0.37845 0.85611 0.0
H1286 H 0.31264 0.40976 0.80644 0.0
H1287 H 0.1995 0.41123 0.78452 0.0
C1288 C 0.05966 0.38577 0.64956 0.0
C1289 C 1.01824 0.39259 0.63023 0.0
C1290 C 0.06362 0.38729 0.68584 0.0
C1291 C 1.02639 0.3957 0.70397 0.0
C1292 C 0.98635 0.40279 0.68449 0.0
C1293 C 0.98209 0.40122 0.64797 0.0
C1294 C 1.02826 0.39661 0.74329 0.0
C1295 C 0.09096 0.39685 0.75802 0.0
C1296 C 0.96911 0.39641 0.76645 0.0
C1297 C 0.90133 0.39549 0.75318 0.0
C1298 C 0.85274 0.40374 0.76148 0.0
C1299 C 0.78885 0.40291 0.74885 0.0
C1300 C 0.7729 0.39383 0.72807 0.0
C1301 C 0.8207 0.38553 0.72003 0.0
C1302 C 0.8846 0.38631 0.73264 0.0
C1303 C 0.07968 0.40024 0.91401 0.0
C1304 C 0.04432 0.39134 0.93099 0.0
C1305 C 0.0767 0.40202 0.87746 0.0
C1306 C 0.03863 0.39489 0.85721 0.0
C1307 C 1.0026 0.38614 0.87452 0.0
C1308 C 1.00537 0.3844 0.91082 0.0
C1309 C 0.03689 0.3962 0.81798 0.0
C1310 C 0.9742 0.3964 0.80326 0.0
C1311 C 0.09608 0.39647 0.79485 0.0
C1312 C 0.16397 0.39563 0.80808 0.0
C1313 C 0.18158 0.38633 0.82813 0.0
C1314 C 0.24567 0.38559 0.84055 0.0
C1315 C 0.2928 0.39404 0.83278 0.0
C1316 C 0.27599 0.40324 0.81252 0.0
C1317 C 0.2119 0.40403 0.80009 0.0
H1318 H 0.34242 0.39343 0.84234 0.0
H1319 H 0.72344 0.39321 0.71829 0.0
H1320 H 0.67289 0.90527 0.14428 0.0
H1321 H 0.65966 0.90405 0.20868 0.0
H1322 H 0.4716 0.88664 0.20243 0.0
H1323 H 0.48556 0.88765 0.13764 0.0
H1324 H 0.5691 0.91339 0.25122 0.0
H1325 H 0.43932 0.87058 0.27755 0.0
H1326 H 0.43794 0.85189 0.25065 0.0
H1327 H 0.63703 0.8572 0.20231 0.0
H1328 H 0.64003 0.87584 0.22935 0.0
H1329 H 0.41871 0.91312 0.42426 0.0
H1330 H 0.43575 0.91017 0.36053 0.0
H1331 H 0.59242 0.88636 0.37717 0.0
H1332 H 0.57463 0.88917 0.44132 0.0
H1333 H 0.51742 0.87958 0.32398 0.0
H1334 H 0.63272 0.91289 0.35372 0.0
H1335 H 0.64408 0.93139 0.38084 0.0
H1336 H 0.49402 0.94462 0.31683 0.0
H1337 H 0.48108 0.92615 0.28968 0.0
C1338 C 0.62916 0.90103 0.1566 0.0
C1339 C 0.58012 0.8966 0.1359 0.0
C1340 C 0.62149 0.90038 0.19348 0.0
C1341 C 0.56455 0.89528 0.21067 0.0
C1342 C 0.5164 0.89051 0.18996 0.0
C1343 C 0.52431 0.8911 0.15289 0.0
C1344 C 0.55417 0.8956 0.25011 0.0
C1345 C 0.55778 0.90597 0.267 0.0
C1346 C 0.54031 0.88594 0.27107 0.0
C1347 C 0.53955 0.87466 0.2552 0.0
C1348 C 0.48291 0.86774 0.26131 0.0
C1349 C 0.48184 0.85716 0.24602 0.0
C1350 C 0.53727 0.85338 0.22469 0.0
C1351 C 0.59403 0.86015 0.21873 0.0
C1352 C 0.59541 0.87073 0.23401 0.0
C1353 C 0.45644 0.90718 0.41439 0.0
C1354 C 0.4959 0.90148 0.43778 0.0
C1355 C 0.46623 0.90551 0.3779 0.0
C1356 C 0.51619 0.89817 0.36385 0.0
C1357 C 0.55373 0.89209 0.38728 0.0
C1358 C 0.54373 0.89373 0.42393 0.0
C1359 C 0.5314 0.89738 0.32477 0.0
C1360 C 0.52864 0.88697 0.30805 0.0
C1361 C 0.54744 0.90697 0.30387 0.0
C1362 C 0.55553 0.91811 0.3199 0.0
C1363 C 0.60184 0.91973 0.3456 0.0
C1364 C 0.60859 0.93021 0.36095 0.0
C1365 C 0.56969 0.93916 0.35062 0.0
C1366 C 0.52407 0.93767 0.32483 0.0
C1367 C 0.51704 0.9272 0.30943 0.0
H1368 H 0.57497 0.94727 0.36255 0.0
H1369 H 0.53629 0.84519 0.21282 0.0
H1370 H 0.43936 0.14547 0.12991 0.0
H1371 H 0.44124 0.14294 0.19443 0.0
H1372 H 0.63537 0.15889 0.1911 0.0
H1373 H 0.6332 0.16157 0.12748 0.0
H1374 H 0.5324 0.13361 0.24432 0.0
H1375 H 0.62775 0.17873 0.25195 0.0
H1376 H 0.62512 0.19625 0.21772 0.0
H1377 H 0.43782 0.18648 0.17812 0.0
H1378 H 0.43896 0.16898 0.21246 0.0
H1379 H 0.63147 0.14585 0.41995 0.0
H1380 H 0.62559 0.14265 0.35619 0.0
H1381 H 0.45685 0.16516 0.35581 0.0
H1382 H 0.46405 0.16859 0.41861 0.0
H1383 H 0.54039 0.17029 0.30403 0.0
H1384 H 0.44333 0.13586 0.34833 0.0
H1385 H 0.44149 0.11843 0.38315 0.0
H1386 H 0.61617 0.10676 0.32117 0.0
H1387 H 0.61972 0.1242 0.28633 0.0
C1388 C 0.48291 0.1482 0.14296 0.0
C1389 C 0.53568 0.15387 0.12381 0.0
C1390 C 0.48409 0.14673 0.17976 0.0
C1391 C 0.53813 0.15086 0.19772 0.0
C1392 C 0.59284 0.15575 0.17799 0.0
C1393 C 0.59142 0.1573 0.14159 0.0
C1394 C 0.53475 0.15143 0.2371 0.0
C1395 C 0.5339 0.14161 0.25748 0.0
C1396 C 0.53596 0.16186 0.2544 0.0
C1397 C 0.53374 0.17252 0.23457 0.0
C1398 C 0.58582 0.18036 0.23612 0.0
C1399 C 0.58463 0.19028 0.21665 0.0
C1400 C 0.53142 0.19247 0.1957 0.0
C1401 C 0.4791 0.18477 0.19428 0.0
C1402 C 0.48002 0.17485 0.21372 0.0
C1403 C 0.59291 0.15001 0.40617 0.0
C1404 C 0.54857 0.15753 0.42416 0.0
C1405 C 0.58932 0.14816 0.36977 0.0
C1406 C 0.54059 0.15364 0.35094 0.0
C1407 C 0.49523 0.16088 0.36941 0.0
C1408 C 0.49932 0.16282 0.40544 0.0
C1409 C 0.53832 0.15246 0.31178 0.0
C1410 C 0.5385 0.16223 0.29121 0.0
C1411 C 0.53522 0.14199 0.29465 0.0
C1412 C 0.53211 0.13138 0.31491 0.0
C1413 C 0.48155 0.1296 0.34223 0.0
C1414 C 0.4802 0.11972 0.36197 0.0
C1415 C 0.52878 0.1115 0.35443 0.0
C1416 C 0.57862 0.11313 0.32701 0.0
C1417 C 0.58029 0.12301 0.30723 0.0
H1418 H 0.52774 0.10387 0.3698 0.0
H1419 H 0.53067 0.20013 0.18059 0.0
H1420 H 0.60996 0.14977 0.92066 0.0
H1421 H 0.62404 0.15089 0.85626 0.0
H1422 H 0.414 0.1594 0.85334 0.0
H1423 H 0.39915 0.1572 0.91771 0.0
H1424 H 0.4367 0.14669 0.80438 0.0
H1425 H 0.56038 0.17868 0.83492 0.0
H1426 H 0.64354 0.18965 0.86503 0.0
H1427 H 0.80337 0.16976 0.81623 0.0
H1428 H 0.7211 0.15858 0.78617 0.0
H1429 H 0.48328 0.1612 0.62031 0.0
H1430 H 0.46971 0.16384 0.68459 0.0
H1431 H 0.64397 0.14332 0.69678 0.0
H1432 H 0.65701 0.14049 0.63264 0.0
H1433 H 0.63597 0.16378 0.7392 0.0
H1434 H 0.49989 0.13151 0.71133 0.0
H1435 H 0.41146 0.12247 0.67938 0.0
H1436 H 0.26689 0.1463 0.72204 0.0
H1437 H 0.35474 0.15555 0.75394 0.0
C1438 C 0.56713 0.15202 0.90617 0.0
C1439 C 0.50363 0.15352 0.92402 0.0
C1440 C 0.5752 0.15276 0.86925 0.0
C1441 C 0.52053 0.15551 0.84937 0.0
C1442 C 0.45724 0.15726 0.86762 0.0
C1443 C 0.44872 0.1561 0.90447 0.0
C1444 C 0.52843 0.15592 0.80969 0.0
C1445 C 0.47979 0.15065 0.7904 0.0
C1446 C 0.58471 0.16098 0.79069 0.0
C1447 C 0.63447 0.16774 0.8085 0.0
C1448 C 0.61323 0.17661 0.83076 0.0
C1449 C 0.66022 0.18287 0.8478 0.0
C1450 C 0.72868 0.18039 0.8426 0.0
C1451 C 0.75032 0.17167 0.82025 0.0
C1452 C 0.70354 0.16537 0.80316 0.0
C1453 C 0.519 0.15734 0.63668 0.0
C1454 C 0.57097 0.15058 0.62151 0.0
C1455 C 0.51115 0.15884 0.67339 0.0
C1456 C 0.55565 0.15373 0.69552 0.0
C1457 C 0.60911 0.14735 0.68023 0.0
C1458 C 0.61636 0.1457 0.64362 0.0
C1459 C 0.54467 0.15455 0.73469 0.0
C1460 C 0.59273 0.15999 0.75362 0.0
C1461 C 0.48696 0.14999 0.75333 0.0
C1462 C 0.43396 0.14427 0.73477 0.0
C1463 C 0.44932 0.13485 0.71374 0.0
C1464 C 0.3993 0.12969 0.69567 0.0
C1465 C 0.33363 0.13382 0.69862 0.0
C1466 C 0.31779 0.14311 0.71976 0.0
C1467 C 0.36764 0.14831 0.73788 0.0
H1468 H 0.295 0.12982 0.68459 0.0
H1469 H 0.76497 0.18524 0.85584 0.0
H1470 H 0.62758 0.89651 0.63419 0.0
H1471 H 0.6351 0.89924 0.69753 0.0
H1472 H 0.4184 0.89993 0.71268 0.0
H1473 H 0.4114 0.89814 0.64853 0.0
H1474 H 0.46184 0.91269 0.7589 0.0
H1475 H 0.52191 0.87521 0.72576 0.0
H1476 H 0.58452 0.86069 0.69118 0.0
H1477 H 0.77008 0.87276 0.72724 0.0
H1478 H 0.70855 0.88741 0.76187 0.0
H1479 H 0.44016 0.88834 0.93379 0.0
H1480 H 0.43732 0.89195 0.8703 0.0
H1481 H 0.64194 0.90376 0.86616 0.0
H1482 H 0.6442 0.90051 0.93021 0.0
H1483 H 0.60899 0.88568 0.81556 0.0
H1484 H 0.53804 0.92202 0.85554 0.0
H1485 H 0.46771 0.93529 0.8913 0.0
H1486 H 0.29225 0.92372 0.84351 0.0
H1487 H 0.36128 0.91017 0.80808 0.0
C1488 C 0.58164 0.89748 0.65104 0.0
C1489 C 0.51894 0.89707 0.63664 0.0
C1490 C 0.58586 0.8989 0.68736 0.0
C1491 C 0.52732 0.89936 0.71046 0.0
C1492 C 0.46448 0.89951 0.69573 0.0
C1493 C 0.46036 0.89848 0.65906 0.0
C1494 C 0.53179 0.89911 0.74977 0.0
C1495 C 0.49357 0.9067 0.77118 0.0
C1496 C 0.5737 0.8914 0.76627 0.0
C1497 C 0.6107 0.88245 0.74617 0.0
C1498 C 0.57608 0.87478 0.72624 0.0
C1499 C 0.61136 0.86653 0.70665 0.0
C1500 C 0.68123 0.86582 0.70698 0.0
C1501 C 0.71595 0.87332 0.72703 0.0
C1502 C 0.6809 0.88158 0.7467 0.0
C1503 C 0.48422 0.89187 0.91943 0.0
C1504 C 0.54245 0.89413 0.93686 0.0
C1505 C 0.48249 0.89393 0.88318 0.0
C1506 C 0.53942 0.8981 0.86345 0.0
C1507 C 0.59742 0.90055 0.8809 0.0
C1508 C 0.5986 0.89874 0.91745 0.0
C1509 C 0.53918 0.89922 0.82434 0.0
C1510 C 0.57783 0.89173 0.80308 0.0
C1511 C 0.49649 0.90681 0.8082 0.0
C1512 C 0.45482 0.91499 0.82939 0.0
C1513 C 0.48435 0.92221 0.85293 0.0
C1514 C 0.44471 0.92979 0.87312 0.0
C1515 C 0.37551 0.93032 0.86977 0.0
C1516 C 0.34585 0.92328 0.84612 0.0
C1517 C 0.38521 0.91564 0.826 0.0
H1518 H 0.34489 0.93619 0.88541 0.0
H1519 H 0.70844 0.85943 0.69177 0.0
loop_
_geom_bond_atom_site_label_1
_geom_bond_atom_site_label_2
_geom_bond_distance
_geom_bond_site_symmetry_2
_ccdc_geom_bond_type
La0 C2 2.928 . S
La0 O20 2.521 . S
La0 O21 2.628 1_554 S
La0 O22 2.554 . S
La0 O23 2.757 . S
La0 O24 2.470 1_455 S
La0 O29 2.482 1_554 S
La0 O31 2.503 . S
La1 C11 2.928 . S
La1 O23 2.482 . S
La1 O25 2.503 1_455 S
La1 O26 2.521 1_554 S
La1 O27 2.628 . S
La1 O28 2.554 1_554 S
La1 O29 2.757 1_554 S
La1 O30 2.474 . S
C2 La0 2.928 . S
C2 C3 1.503 1_455 S
C2 O20 1.261 . S
C2 O21 1.243 1_554 S
C3 C2 1.503 1_655 S
C3 C4 1.394 . S
C3 C8 1.373 1_554 S
C4 C3 1.394 . S
C4 C5 1.380 . S
C4 H32 0.930 . S
C5 C4 1.380 . S
C5 C6 1.376 . S
C5 H33 0.930 . S
C6 C5 1.376 . S
C6 C7 1.370 1_554 S
C7 C6 1.370 1_556 S
C7 C8 1.396 . S
C7 H34 0.929 . S
C8 C3 1.373 1_556 S
C8 C7 1.396 . S
C8 H35 0.929 . S
C9 O22 1.240 . S
C9 O23 1.289 . S
C10 O24 1.258 . S
C10 O25 1.256 . S
C11 La1 2.928 . S
C11 C12 1.503 . S
C11 O26 1.261 1_554 S
C11 O27 1.243 . S
C12 C11 1.503 . S
C12 C13 1.394 1_554 S
C12 C17 1.373 . S
C13 C12 1.394 1_556 S
C13 C14 1.380 . S
C13 H36 0.930 . S
C14 C13 1.380 . S
C14 C15 1.376 1_556 S
C14 H37 0.930 . S
C15 C14 1.376 1_554 S
C15 C16 1.370 . S
C16 C15 1.370 . S
C16 C17 1.396 . S
C16 H38 0.929 . S
C17 C12 1.373 . S
C17 C16 1.396 . S
C17 H39 0.929 . S
C18 O28 1.240 . S
C18 O29 1.289 . S
C19 O30 1.270 . S
C19 O31 1.256 . S
O20 La0 2.521 . S
O20 C2 1.261 . S
O21 La0 2.628 1_556 S
O21 C2 1.243 1_556 S
O22 La0 2.554 . S
O22 C9 1.240 . S
O23 La0 2.757 . S
O23 La1 2.482 . S
O23 C9 1.289 . S
O24 La0 2.470 1_655 S
O24 C10 1.258 . S
O25 La1 2.503 1_655 S
O25 C10 1.256 . S
O26 La1 2.521 1_556 S
O26 C11 1.261 1_556 S
O27 La1 2.628 . S
O27 C11 1.243 . S
O28 La1 2.554 1_556 S
O28 C18 1.240 . S
O29 La0 2.482 1_556 S
O29 La1 2.757 1_556 S
O29 C18 1.289 . S
O30 La1 2.474 . S
O30 C19 1.270 . S
O31 La0 2.503 . S
O31 C19 1.256 . S
H32 C4 0.930 . S
H33 C5 0.930 . S
H34 C7 0.929 . S
H35 C8 0.929 . S
H36 C13 0.930 . S
H37 C14 0.930 . S
H38 C16 0.929 . S
H39 C17 0.929 . S
La40 C42 2.928 . S
La40 O60 2.521 . S
La40 O61 2.628 1_554 S
La40 O62 2.554 . S
La40 O63 2.757 . S
La40 O64 2.470 . S
La40 O69 2.482 1_554 S
La40 O71 2.503 1_655 S
La41 C51 2.928 . S
La41 O63 2.482 . S
La41 O65 2.503 . S
La41 O66 2.521 1_554 S
La41 O67 2.628 . S
La41 O68 2.554 1_554 S
La41 O69 2.757 1_554 S
La41 O70 2.470 1_655 S
C42 La40 2.928 . S
C42 C43 1.503 . S
C42 O60 1.261 . S
C42 O61 1.243 1_554 S
C43 C42 1.503 . S
C43 C44 1.394 . S
C43 C48 1.373 1_554 S
C44 C43 1.394 . S
C44 C45 1.380 . S
C44 H72 0.930 . S
C45 C44 1.380 . S
C45 C46 1.376 . S
C45 H73 0.930 . S
C46 C45 1.376 . S
C46 C47 1.370 1_554 S
C47 C46 1.370 1_556 S
C47 C48 1.396 . S
C47 H74 0.929 . S
C48 C43 1.373 1_556 S
C48 C47 1.396 . S
C48 H75 0.929 . S
C49 O62 1.240 . S
C49 O63 1.289 . S
C50 O64 1.258 . S
C50 O65 1.256 . S
C51 La41 2.928 . S
C51 C52 1.503 1_655 S
C51 O66 1.261 1_554 S
C51 O67 1.243 . S
C52 C51 1.503 1_455 S
C52 C53 1.394 1_554 S
C52 C57 1.373 . S
C53 C52 1.394 1_556 S
C53 C54 1.383 . S
C53 H76 0.930 . S
C54 C53 1.383 . S
C54 C55 1.358 1_556 S
C54 H77 0.947 . S
C55 C54 1.358 1_554 S
C55 C56 1.370 . S
C56 C55 1.370 . S
C56 C57 1.396 . S
C56 H78 0.929 . S
C57 C52 1.373 . S
C57 C56 1.396 . S
C57 H79 0.929 . S
C58 O68 1.240 . S
C58 O69 1.289 . S
C59 O70 1.258 . S
C59 O71 1.256 . S
O60 La40 2.521 . S
O60 C42 1.261 . S
O61 La40 2.628 1_556 S
O61 C42 1.243 1_556 S
O62 La40 2.554 . S
O62 C49 1.240 . S
O63 La40 2.757 . S
O63 La41 2.482 . S
O63 C49 1.289 . S
O64 La40 2.470 . S
O64 C50 1.258 . S
O65 La41 2.503 . S
O65 C50 1.256 . S
O66 La41 2.521 1_556 S
O66 C51 1.261 1_556 S
O67 La41 2.628 . S
O67 C51 1.243 . S
O68 La41 2.554 1_556 S
O68 C58 1.240 . S
O69 La40 2.482 1_556 S
O69 La41 2.757 1_556 S
O69 C58 1.289 . S
O70 La41 2.470 1_455 S
O70 C59 1.258 . S
O71 La40 2.503 1_455 S
O71 C59 1.256 . S
H72 C44 0.930 . S
H73 C45 0.930 . S
H74 C47 0.929 . S
H75 C48 0.929 . S
H76 C53 0.930 . S
H77 C54 0.947 . S
H78 C56 0.929 . S
H79 C57 0.929 . S
La80 C82 2.928 . S
La80 O100 2.521 . S
La80 O101 2.628 . S
La80 O102 2.554 . S
La80 O103 2.757 . S
La80 O104 2.470 . S
La80 O109 2.482 . S
La80 O111 2.503 1_455 S
La81 C91 2.928 . S
La81 O103 2.482 . S
La81 O105 2.503 . S
La81 O106 2.521 . S
La81 O107 2.628 . S
La81 O108 2.554 . S
La81 O109 2.757 . S
La81 O110 2.470 1_455 S
C82 La80 2.928 . S
C82 C83 1.503 . S
C82 O100 1.261 . S
C82 O101 1.243 . S
C83 C82 1.503 . S
C83 C84 1.394 . S
C83 C88 1.373 . S
C84 C83 1.394 . S
C84 C85 1.380 . S
C84 H112 0.930 . S
C85 C84 1.380 . S
C85 C86 1.376 . S
C85 H113 0.930 . S
C86 C85 1.376 . S
C86 C87 1.370 . S
C87 C86 1.370 . S
C87 C88 1.396 . S
C87 H114 0.929 . S
C88 C83 1.373 . S
C88 C87 1.396 . S
C88 H115 0.929 . S
C89 O102 1.240 . S
C89 O103 1.289 . S
C90 O104 1.258 . S
C90 O105 1.256 . S
C91 La81 2.928 . S
C91 C92 1.503 1_455 S
C91 O106 1.261 . S
C91 O107 1.243 . S
C92 C91 1.503 1_655 S
C92 C93 1.394 . S
C92 C97 1.373 . S
C93 C92 1.394 . S
C93 C94 1.380 . S
C93 H116 0.930 . S
C94 C93 1.380 . S
C94 C95 1.376 . S
C94 H117 0.930 . S
C95 C94 1.376 . S
C95 C96 1.370 . S
C96 C95 1.370 . S
C96 C97 1.396 . S
C96 H118 0.929 . S
C97 C92 1.373 . S
C97 C96 1.396 . S
C97 H119 0.929 . S
C98 O108 1.240 . S
C98 O109 1.289 . S
C99 O110 1.258 . S
C99 O111 1.256 . S
O100 La80 2.521 . S
O100 C82 1.261 . S
O101 La80 2.628 . S
O101 C82 1.243 . S
O102 La80 2.554 . S
O102 C89 1.240 . S
O103 La80 2.757 . S
O103 La81 2.482 . S
O103 C89 1.289 . S
O104 La80 2.470 . S
O104 C90 1.258 . S
O105 La81 2.503 . S
O105 C90 1.256 . S
O106 La81 2.521 . S
O106 C91 1.261 . S
O107 La81 2.628 . S
O107 C91 1.243 . S
O108 La81 2.554 . S
O108 C98 1.240 . S
O109 La80 2.482 . S
O109 La81 2.757 . S
O109 C98 1.289 . S
O110 La81 2.470 1_655 S
O110 C99 1.258 . S
O111 La80 2.503 1_655 S
O111 C99 1.256 . S
H112 C84 0.930 . S
H113 C85 0.930 . S
H114 C87 0.929 . S
H115 C88 0.929 . S
H116 C93 0.930 . S
H117 C94 0.930 . S
H118 C96 0.929 . S
H119 C97 0.929 . S
La120 C122 2.928 . S
La120 O140 2.521 . S
La120 O141 2.628 . S
La120 O142 2.554 . S
La120 O143 2.757 . S
La120 O144 2.470 1_655 S
La120 O149 2.482 . S
La120 O151 2.503 . S
La121 C131 2.928 . S
La121 O143 2.482 . S
La121 O145 2.503 1_655 S
La121 O146 2.521 . S
La121 O147 2.628 . S
La121 O148 2.554 . S
La121 O149 2.757 . S
La121 O150 2.470 . S
C122 La120 2.928 . S
C122 C123 1.503 1_655 S
C122 O140 1.261 . S
C122 O141 1.243 . S
C123 C122 1.503 1_455 S
C123 C124 1.394 . S
C123 C128 1.373 . S
C124 C123 1.394 . S
C124 C125 1.380 . S
C124 H152 0.930 . S
C125 C124 1.380 . S
C125 C126 1.376 . S
C125 H153 0.930 . S
C126 C125 1.376 . S
C126 C127 1.370 . S
C127 C126 1.370 . S
C127 C128 1.396 . S
C127 H154 0.929 . S
C128 C123 1.373 . S
C128 C127 1.396 . S
C128 H155 0.929 . S
C129 O142 1.240 . S
C129 O143 1.289 . S
C130 O144 1.258 . S
C130 O145 1.256 . S
C131 La121 2.928 . S
C131 C132 1.503 . S
C131 O146 1.261 . S
C131 O147 1.243 . S
C132 C131 1.503 . S
C132 C133 1.394 . S
C132 C137 1.373 . S
C133 C132 1.394 . S
C133 C134 1.380 . S
C133 H156 0.930 . S
C134 C133 1.380 . S
C134 C135 1.376 . S
C134 H157 0.930 . S
C135 C134 1.376 . S
C135 C136 1.370 . S
C136 C135 1.370 . S
C136 C137 1.396 . S
C136 H158 0.929 . S
C137 C132 1.373 . S
C137 C136 1.396 . S
C137 H159 0.929 . S
C138 O148 1.240 . S
C138 O149 1.289 . S
C139 O150 1.258 . S
C139 O151 1.256 . S
O140 La120 2.521 . S
O140 C122 1.261 . S
O141 La120 2.628 . S
O141 C122 1.243 . S
O142 La120 2.554 . S
O142 C129 1.240 . S
O143 La120 2.757 . S
O143 La121 2.482 . S
O143 C129 1.289 . S
O144 La120 2.470 1_455 S
O144 C130 1.258 . S
O145 La121 2.503 1_455 S
O145 C130 1.256 . S
O146 La121 2.521 . S
O146 C131 1.261 . S
O147 La121 2.628 . S
O147 C131 1.243 . S
O148 La121 2.554 . S
O148 C138 1.240 . S
O149 La120 2.482 . S
O149 La121 2.757 . S
O149 C138 1.289 . S
O150 La121 2.470 . S
O150 C139 1.258 . S
O151 La120 2.503 . S
O151 C139 1.256 . S
H152 C124 0.930 . S
H153 C125 0.930 . S
H154 C127 0.929 . S
H155 C128 0.929 . S
H156 C133 0.930 . S
H157 C134 0.930 . S
H158 C136 0.929 . S
H159 C137 0.929 . S
La160 C162 2.928 . S
La160 O180 2.521 . S
La160 O181 2.628 1_554 S
La160 O182 2.554 . S
La160 O183 2.757 . S
La160 O184 2.470 . S
La160 O189 2.482 1_554 S
La160 O191 2.503 . S
La161 C171 2.928 . S
La161 O183 2.482 . S
La161 O185 2.503 . S
La161 O186 2.521 1_554 S
La161 O187 2.628 . S
La161 O188 2.554 1_554 S
La161 O189 2.757 1_554 S
La161 O190 2.473 . S
C162 La160 2.928 . S
C162 C163 1.503 . S
C162 O180 1.261 . S
C162 O181 1.243 1_554 S
C163 C162 1.503 . S
C163 C164 1.394 . S
C163 C168 1.373 1_554 S
C164 C163 1.394 . S
C164 C165 1.380 . S
C164 H192 0.930 . S
C165 C164 1.380 . S
C165 C166 1.376 . S
C165 H193 0.930 . S
C166 C165 1.376 . S
C166 C167 1.370 1_554 S
C167 C166 1.370 1_556 S
C167 C168 1.396 . S
C167 H194 0.929 . S
C168 C163 1.373 1_556 S
C168 C167 1.396 . S
C168 H195 0.929 . S
C169 O182 1.240 . S
C169 O183 1.289 . S
C170 O184 1.258 . S
C170 O185 1.256 . S
C171 La161 2.928 . S
C171 C172 1.503 . S
C171 O186 1.261 1_554 S
C171 O187 1.243 . S
C172 C171 1.503 . S
C172 C173 1.394 1_554 S
C172 C177 1.373 . S
C173 C172 1.394 1_556 S
C173 C174 1.380 . S
C173 H196 0.930 . S
C174 C173 1.380 . S
C174 C175 1.376 1_556 S
C174 H197 0.930 . S
C175 C174 1.376 1_554 S
C175 C176 1.370 . S
C176 C175 1.370 . S
C176 C177 1.396 . S
C176 H198 0.929 . S
C177 C172 1.373 . S
C177 C176 1.396 . S
C177 H199 0.929 . S
C178 O188 1.240 . S
C178 O189 1.289 . S
C179 O190 1.269 . S
C179 O191 1.256 . S
O180 La160 2.521 . S
O180 C162 1.261 . S
O181 La160 2.628 1_556 S
O181 C162 1.243 1_556 S
O182 La160 2.554 . S
O182 C169 1.240 . S
O183 La160 2.757 . S
O183 La161 2.482 . S
O183 C169 1.289 . S
O184 La160 2.470 . S
O184 C170 1.258 . S
O185 La161 2.503 . S
O185 C170 1.256 . S
O186 La161 2.521 1_556 S
O186 C171 1.261 1_556 S
O187 La161 2.628 . S
O187 C171 1.243 . S
O188 La161 2.554 1_556 S
O188 C178 1.240 . S
O189 La160 2.482 1_556 S
O189 La161 2.757 1_556 S
O189 C178 1.289 . S
O190 La161 2.473 . S
O190 C179 1.269 . S
O191 La160 2.503 . S
O191 C179 1.256 . S
H192 C164 0.930 . S
H193 C165 0.930 . S
H194 C167 0.929 . S
H195 C168 0.929 . S
H196 C173 0.930 . S
H197 C174 0.930 . S
H198 C176 0.929 . S
H199 C177 0.929 . S
La200 C202 2.928 . S
La200 O220 2.521 . S
La200 O221 2.628 1_554 S
La200 O222 2.554 . S
La200 O223 2.757 . S
La200 O224 2.470 . S
La200 O229 2.482 1_554 S
La200 O231 2.503 . S
La201 C211 2.928 . S
La201 O223 2.482 . S
La201 O225 2.503 . S
La201 O226 2.521 1_554 S
La201 O227 2.628 . S
La201 O228 2.554 1_554 S
La201 O229 2.757 1_554 S
La201 O230 2.470 . S
C202 La200 2.928 . S
C202 C203 1.503 . S
C202 O220 1.261 . S
C202 O221 1.243 1_554 S
C203 C202 1.503 . S
C203 C204 1.394 . S
C203 C208 1.373 1_554 S
C204 C203 1.394 . S
C204 C205 1.380 . S
C204 H232 0.930 . S
C205 C204 1.380 . S
C205 C206 1.376 . S
C205 H233 0.930 . S
C206 C205 1.376 . S
C206 C207 1.370 1_554 S
C207 C206 1.370 1_556 S
C207 C208 1.396 . S
C207 H234 0.929 . S
C208 C203 1.373 1_556 S
C208 C207 1.396 . S
C208 H235 0.929 . S
C209 O222 1.240 . S
C209 O223 1.289 . S
C210 O224 1.258 . S
C210 O225 1.256 . S
C211 La201 2.928 . S
C211 C212 1.503 . S
C211 O226 1.261 1_554 S
C211 O227 1.243 . S
C212 C211 1.503 . S
C212 C213 1.394 1_554 S
C212 C217 1.373 . S
C213 C212 1.394 1_556 S
C213 C214 1.382 . S
C213 H236 0.930 . S
C214 C213 1.382 . S
C214 C215 1.358 1_556 S
C214 H237 0.947 . S
C215 C214 1.358 1_554 S
C215 C216 1.370 . S
C216 C215 1.370 . S
C216 C217 1.396 . S
C216 H238 0.929 . S
C217 C212 1.373 . S
C217 C216 1.396 . S
C217 H239 0.929 . S
C218 O228 1.240 . S
C218 O229 1.289 . S
C219 O230 1.258 . S
C219 O231 1.256 . S
O220 La200 2.521 . S
O220 C202 1.261 . S
O221 La200 2.628 1_556 S
O221 C202 1.243 1_556 S
O222 La200 2.554 . S
O222 C209 1.240 . S
O223 La200 2.757 . S
O223 La201 2.482 . S
O223 C209 1.289 . S
O224 La200 2.470 . S
O224 C210 1.258 . S
O225 La201 2.503 . S
O225 C210 1.256 . S
O226 La201 2.521 1_556 S
O226 C211 1.261 1_556 S
O227 La201 2.628 . S
O227 C211 1.243 . S
O228 La201 2.554 1_556 S
O228 C218 1.240 . S
O229 La200 2.482 1_556 S
O229 La201 2.757 1_556 S
O229 C218 1.289 . S
O230 La201 2.470 . S
O230 C219 1.258 . S
O231 La200 2.503 . S
O231 C219 1.256 . S
H232 C204 0.930 . S
H233 C205 0.930 . S
H234 C207 0.929 . S
H235 C208 0.929 . S
H236 C213 0.930 . S
H237 C214 0.947 . S
H238 C216 0.929 . S
H239 C217 0.929 . S
La240 C242 2.928 . S
La240 O260 2.521 . S
La240 O261 2.628 . S
La240 O262 2.554 . S
La240 O263 2.757 . S
La240 O264 2.470 . S
La240 O269 2.482 . S
La240 O271 2.503 . S
La241 C251 2.928 . S
La241 O263 2.482 . S
La241 O265 2.503 . S
La241 O266 2.521 . S
La241 O267 2.628 . S
La241 O268 2.554 . S
La241 O269 2.757 . S
La241 O270 2.470 . S
C242 La240 2.928 . S
C242 C243 1.503 . S
C242 O260 1.261 . S
C242 O261 1.243 . S
C243 C242 1.503 . S
C243 C244 1.394 . S
C243 C248 1.373 . S
C244 C243 1.394 . S
C244 C245 1.380 . S
C244 H272 0.930 . S
C245 C244 1.380 . S
C245 C246 1.376 . S
C245 H273 0.930 . S
C246 C245 1.376 . S
C246 C247 1.370 . S
C247 C246 1.370 . S
C247 C248 1.396 . S
C247 H274 0.929 . S
C248 C243 1.373 . S
C248 C247 1.396 . S
C248 H275 0.929 . S
C249 O262 1.240 . S
C249 O263 1.289 . S
C250 O264 1.258 . S
C250 O265 1.256 . S
C251 La241 2.928 . S
C251 C252 1.503 . S
C251 O266 1.261 . S
C251 O267 1.243 . S
C252 C251 1.503 . S
C252 C253 1.394 . S
C252 C257 1.373 . S
C253 C252 1.394 . S
C253 C254 1.380 . S
C253 H276 0.930 . S
C254 C253 1.380 . S
C254 C255 1.376 . S
C254 H277 0.930 . S
C255 C254 1.376 . S
C255 C256 1.370 . S
C256 C255 1.370 . S
C256 C257 1.396 . S
C256 H278 0.929 . S
C257 C252 1.373 . S
C257 C256 1.396 . S
C257 H279 0.929 . S
C258 O268 1.240 . S
C258 O269 1.289 . S
C259 O270 1.258 . S
C259 O271 1.256 . S
O260 La240 2.521 . S
O260 C242 1.261 . S
O261 La240 2.628 . S
O261 C242 1.243 . S
O262 La240 2.554 . S
O262 C249 1.240 . S
O263 La240 2.757 . S
O263 La241 2.482 . S
O263 C249 1.289 . S
O264 La240 2.470 . S
O264 C250 1.258 . S
O265 La241 2.503 . S
O265 C250 1.256 . S
O266 La241 2.521 . S
O266 C251 1.261 . S
O267 La241 2.628 . S
O267 C251 1.243 . S
O268 La241 2.554 . S
O268 C258 1.240 . S
O269 La240 2.482 . S
O269 La241 2.757 . S
O269 C258 1.289 . S
O270 La241 2.470 . S
O270 C259 1.258 . S
O271 La240 2.503 . S
O271 C259 1.256 . S
H272 C244 0.930 . S
H273 C245 0.930 . S
H274 C247 0.929 . S
H275 C248 0.929 . S
H276 C253 0.930 . S
H277 C254 0.930 . S
H278 C256 0.929 . S
H279 C257 0.929 . S
La280 C282 2.928 . S
La280 O300 2.521 . S
La280 O301 2.628 . S
La280 O302 2.554 . S
La280 O303 2.757 . S
La280 O304 2.470 . S
La280 O309 2.482 . S
La280 O311 2.503 . S
La281 C291 2.928 . S
La281 O303 2.482 . S
La281 O305 2.503 . S
La281 O306 2.521 . S
La281 O307 2.628 . S
La281 O308 2.554 . S
La281 O309 2.757 . S
La281 O310 2.470 . S
C282 La280 2.928 . S
C282 C283 1.503 . S
C282 O300 1.261 . S
C282 O301 1.243 . S
C283 C282 1.503 . S
C283 C284 1.394 . S
C283 C288 1.373 . S
C284 C283 1.394 . S
C284 C285 1.380 . S
C284 H312 0.930 . S
C285 C284 1.380 . S
C285 C286 1.376 . S
C285 H313 0.930 . S
C286 C285 1.376 . S
C286 C287 1.370 . S
C287 C286 1.370 . S
C287 C288 1.396 . S
C287 H314 0.929 . S
C288 C283 1.373 . S
C288 C287 1.396 . S
C288 H315 0.929 . S
C289 O302 1.240 . S
C289 O303 1.289 . S
C290 O304 1.258 . S
C290 O305 1.256 . S
C291 La281 2.928 . S
C291 C292 1.503 . S
C291 O306 1.261 . S
C291 O307 1.243 . S
C292 C291 1.503 . S
C292 C293 1.394 . S
C292 C297 1.373 . S
C293 C292 1.394 . S
C293 C294 1.380 . S
C293 H316 0.930 . S
C294 C293 1.380 . S
C294 C295 1.376 . S
C294 H317 0.930 . S
C295 C294 1.376 . S
C295 C296 1.370 . S
C296 C295 1.370 . S
C296 C297 1.396 . S
C296 H318 0.929 . S
C297 C292 1.373 . S
C297 C296 1.396 . S
C297 H319 0.929 . S
C298 O308 1.240 . S
C298 O309 1.289 . S
C299 O310 1.258 . S
C299 O311 1.256 . S
O300 La280 2.521 . S
O300 C282 1.261 . S
O301 La280 2.628 . S
O301 C282 1.243 . S
O302 La280 2.554 . S
O302 C289 1.240 . S
O303 La280 2.757 . S
O303 La281 2.482 . S
O303 C289 1.289 . S
O304 La280 2.470 . S
O304 C290 1.258 . S
O305 La281 2.503 . S
O305 C290 1.256 . S
O306 La281 2.521 . S
O306 C291 1.261 . S
O307 La281 2.628 . S
O307 C291 1.243 . S
O308 La281 2.554 . S
O308 C298 1.240 . S
O309 La280 2.482 . S
O309 La281 2.757 . S
O309 C298 1.289 . S
O310 La281 2.470 . S
O310 C299 1.258 . S
O311 La280 2.503 . S
O311 C299 1.256 . S
H312 C284 0.930 . S
H313 C285 0.930 . S
H314 C287 0.929 . S
H315 C288 0.929 . S
H316 C293 0.930 . S
H317 C294 0.930 . S
H318 C296 0.929 . S
H319 C297 0.929 . S
H320 C338 0.951 . S
H321 C340 0.951 . S
H322 C342 0.950 . S
H323 C343 0.950 . S
H324 C345 0.950 . S
H325 C348 0.950 . S
H326 C349 0.950 . S
H327 C351 0.950 . S
H328 C352 0.950 . S
H329 C353 0.951 . S
H330 C355 0.951 . S
H331 C357 0.950 . S
H332 C358 0.950 . S
H333 C360 0.950 1_556 S
H334 C363 0.950 . S
H335 C364 0.950 . S
H336 C366 0.950 . S
H337 C367 0.950 . S
C338 H320 0.951 . S
C338 C339 1.366 . S
C338 C340 1.388 . S
C339 C338 1.366 . S
C339 C343 1.385 . S
C340 H321 0.951 . S
C340 C338 1.388 . S
C340 C341 1.366 . S
C341 C340 1.366 . S
C341 C342 1.414 . S
C341 C344 1.499 . S
C342 H322 0.950 . S
C342 C341 1.414 . S
C342 C343 1.374 . S
C343 H323 0.950 . S
C343 C339 1.385 . S
C343 C342 1.374 . S
C344 C341 1.499 . S
C344 C345 1.373 . S
C344 C346 1.389 1_554 S
C345 H324 0.950 . S
C345 C344 1.373 . S
C345 C361 1.377 . S
C346 C344 1.389 1_556 S
C346 C347 1.524 . S
C346 C360 1.376 1_556 S
C347 C346 1.524 . S
C347 C348 1.397 . S
C347 C352 1.363 . S
C348 H325 0.950 . S
C348 C347 1.397 . S
C348 C349 1.334 . S
C349 H326 0.950 . S
C349 C348 1.334 . S
C349 C350 1.287 . S
C350 C349 1.287 . S
C350 C351 1.524 . S
C350 H369 0.913 . S
C351 H327 0.950 . S
C351 C350 1.524 . S
C351 C352 1.415 . S
C352 H328 0.950 . S
C352 C347 1.363 . S
C352 C351 1.415 . S
C353 H329 0.951 . S
C353 C354 1.366 . S
C353 C355 1.388 . S
C354 C353 1.366 . S
C354 C358 1.385 . S
C355 H330 0.951 . S
C355 C353 1.388 . S
C355 C356 1.366 . S
C356 C355 1.366 . S
C356 C357 1.414 . S
C356 C359 1.499 . S
C357 H331 0.950 . S
C357 C356 1.414 . S
C357 C358 1.374 . S
C358 H332 0.950 . S
C358 C354 1.385 . S
C358 C357 1.374 . S
C359 C356 1.499 . S
C359 C360 1.374 . S
C359 C361 1.389 . S
C360 H333 0.950 1_554 S
C360 C346 1.376 1_554 S
C360 C359 1.374 . S
C361 C345 1.377 . S
C361 C359 1.389 . S
C361 C362 1.524 . S
C362 C361 1.524 . S
C362 C363 1.397 . S
C362 C367 1.363 . S
C363 H334 0.950 . S
C363 C362 1.397 . S
C363 C364 1.334 . S
C364 H335 0.950 . S
C364 C363 1.334 . S
C364 C365 1.287 . S
C365 C364 1.287 . S
C365 C366 1.524 . S
C365 H368 0.999 . S
C366 H336 0.950 . S
C366 C365 1.524 . S
C366 C367 1.415 . S
C367 H337 0.950 . S
C367 C362 1.363 . S
C367 C366 1.415 . S
H368 C365 0.999 . S
H369 C350 0.913 . S
H370 C388 0.951 . S
H371 C390 0.951 . S
H372 C392 0.950 . S
H373 C393 0.950 . S
H374 C395 0.950 . S
H375 C398 0.950 . S
H376 C399 0.950 . S
H377 C401 0.950 . S
H378 C402 0.950 . S
H379 C403 0.951 . S
H380 C405 0.975 . S
H381 C407 0.950 . S
H382 C408 0.950 . S
H383 C410 0.950 . S
H384 C413 0.950 . S
H385 C414 0.950 . S
H386 C416 0.950 1_556 S
H387 C417 0.950 1_556 S
C388 H370 0.951 . S
C388 C389 1.366 . S
C388 C390 1.388 . S
C389 C388 1.366 . S
C389 C393 1.385 1_554 S
C390 H371 0.951 . S
C390 C388 1.388 . S
C390 C391 1.366 . S
C391 C390 1.366 . S
C391 C392 1.414 1_554 S
C391 C394 1.499 . S
C392 H372 0.950 . S
C392 C391 1.414 1_556 S
C392 C393 1.374 . S
C393 H373 0.950 . S
C393 C389 1.385 1_556 S
C393 C392 1.374 . S
C394 C391 1.499 . S
C394 C395 1.373 . S
C394 C396 1.389 . S
C395 H374 0.950 . S
C395 C394 1.373 . S
C395 C411 1.377 . S
C396 C394 1.389 . S
C396 C397 1.524 . S
C396 C410 1.377 . S
C397 C396 1.524 . S
C397 C398 1.397 1_554 S
C397 C402 1.363 . S
C398 H375 0.950 . S
C398 C397 1.397 1_556 S
C398 C399 1.334 . S
C399 H376 0.950 . S
C399 C398 1.334 . S
C399 C400 1.287 . S
C400 C399 1.287 . S
C400 C401 1.524 1_556 S
C400 H419 0.913 . S
C401 H377 0.950 . S
C401 C400 1.524 1_554 S
C401 C402 1.415 . S
C402 H378 0.950 . S
C402 C397 1.363 . S
C402 C401 1.415 . S
C403 H379 0.951 . S
C403 C404 1.366 1_556 S
C403 C405 1.386 . S
C404 C403 1.366 1_554 S
C404 C408 1.385 . S
C405 H380 0.975 . S
C405 C403 1.386 . S
C405 C406 1.345 1_556 S
C406 C405 1.345 1_554 S
C406 C407 1.414 . S
C406 C409 1.499 . S
C407 H381 0.950 . S
C407 C406 1.414 . S
C407 C408 1.374 . S
C408 H382 0.950 . S
C408 C404 1.385 . S
C408 C407 1.374 . S
C409 C406 1.499 . S
C409 C410 1.373 . S
C409 C411 1.389 . S
C410 H383 0.950 . S
C410 C396 1.377 . S
C410 C409 1.373 . S
C411 C395 1.377 . S
C411 C409 1.389 . S
C411 C412 1.524 . S
C412 C411 1.524 . S
C412 C413 1.397 . S
C412 C417 1.363 . S
C413 H384 0.950 . S
C413 C412 1.397 . S
C413 C414 1.334 . S
C414 H385 0.950 . S
C414 C413 1.334 . S
C414 C415 1.287 . S
C415 C414 1.287 . S
C415 C416 1.524 . S
C415 H418 0.999 . S
C416 H386 0.950 1_554 S
C416 C415 1.524 . S
C416 C417 1.415 . S
C417 H387 0.950 1_554 S
C417 C412 1.363 . S
C417 C416 1.415 . S
H418 C415 0.999 . S
H419 C400 0.913 . S
H420 C438 0.951 . S
H421 C440 0.951 . S
H422 C442 0.950 . S
H423 C443 0.950 . S
H424 C445 0.950 . S
H425 C448 0.950 . S
H426 C449 0.950 . S
H427 C451 0.950 . S
H428 C452 0.950 . S
H429 C453 0.951 . S
H430 C455 0.951 . S
H431 C457 0.950 . S
H432 C458 0.950 . S
H433 C460 0.950 . S
H434 C463 0.950 . S
H435 C464 0.950 . S
H436 C466 0.950 . S
H437 C467 0.950 . S
C438 H420 0.951 . S
C438 C439 1.366 . S
C438 C440 1.388 . S
C439 C438 1.366 . S
C439 C443 1.385 . S
C440 H421 0.951 . S
C440 C438 1.388 . S
C440 C441 1.366 . S
C441 C440 1.366 . S
C441 C442 1.414 . S
C441 C444 1.499 . S
C442 H422 0.950 . S
C442 C441 1.414 . S
C442 C443 1.374 . S
C443 H423 0.950 . S
C443 C439 1.385 . S
C443 C442 1.374 . S
C444 C441 1.499 . S
C444 C445 1.373 . S
C444 C446 1.389 . S
C445 H424 0.950 . S
C445 C444 1.373 . S
C445 C461 1.377 . S
C446 C444 1.389 . S
C446 C447 1.524 . S
C446 C460 1.377 . S
C447 C446 1.524 . S
C447 C448 1.397 . S
C447 C452 1.363 . S
C448 H425 0.950 . S
C448 C447 1.397 . S
C448 C449 1.334 . S
C449 H426 0.950 . S
C449 C448 1.334 . S
C449 C450 1.287 . S
C450 C449 1.287 . S
C450 C451 1.524 . S
C450 H469 0.913 . S
C451 H427 0.950 . S
C451 C450 1.524 . S
C451 C452 1.415 . S
C452 H428 0.950 . S
C452 C447 1.363 . S
C452 C451 1.415 . S
C453 H429 0.951 . S
C453 C454 1.366 . S
C453 C455 1.388 . S
C454 C453 1.366 . S
C454 C458 1.385 . S
C455 H430 0.951 . S
C455 C453 1.388 . S
C455 C456 1.366 . S
C456 C455 1.366 . S
C456 C457 1.414 . S
C456 C459 1.499 . S
C457 H431 0.950 . S
C457 C456 1.414 . S
C457 C458 1.374 . S
C458 H432 0.950 . S
C458 C454 1.385 . S
C458 C457 1.374 . S
C459 C456 1.499 . S
C459 C460 1.373 . S
C459 C461 1.389 . S
C460 H433 0.950 . S
C460 C446 1.377 . S
C460 C459 1.373 . S
C461 C445 1.377 . S
C461 C459 1.389 . S
C461 C462 1.524 . S
C462 C461 1.524 . S
C462 C463 1.397 . S
C462 C467 1.363 . S
C463 H434 0.950 . S
C463 C462 1.397 . S
C463 C464 1.334 . S
C464 H435 0.950 . S
C464 C463 1.334 . S
C464 C465 1.287 . S
C465 C464 1.287 . S
C465 C466 1.524 . S
C465 H468 0.999 . S
C466 H436 0.950 . S
C466 C465 1.524 . S
C466 C467 1.415 . S
C467 H437 0.950 . S
C467 C462 1.363 . S
C467 C466 1.415 . S
H468 C465 0.999 . S
H469 C450 0.913 . S
H470 C488 0.951 . S
H471 C490 0.951 . S
H472 C492 0.950 . S
H473 C493 0.950 . S
H474 C495 0.950 . S
H475 C498 0.950 . S
H476 C499 0.950 . S
H477 C501 0.950 . S
H478 C502 0.950 . S
H479 C503 0.951 . S
H480 C505 0.951 . S
H481 C507 0.950 . S
H482 C508 0.950 . S
H483 C510 0.950 . S
H484 C513 0.950 . S
H485 C514 0.950 . S
H486 C516 0.950 . S
H487 C517 0.950 . S
C488 H470 0.951 . S
C488 C489 1.366 . S
C488 C490 1.388 . S
C489 C488 1.366 . S
C489 C493 1.385 . S
C490 H471 0.951 . S
C490 C488 1.388 . S
C490 C491 1.366 . S
C491 C490 1.366 . S
C491 C492 1.414 . S
C491 C494 1.499 . S
C492 H472 0.950 . S
C492 C491 1.414 . S
C492 C493 1.374 . S
C493 H473 0.950 . S
C493 C489 1.385 . S
C493 C492 1.374 . S
C494 C491 1.499 . S
C494 C495 1.373 . S
C494 C496 1.389 . S
C495 H474 0.950 . S
C495 C494 1.373 . S
C495 C511 1.377 . S
C496 C494 1.389 . S
C496 C497 1.524 . S
C496 C510 1.377 . S
C497 C496 1.524 . S
C497 C498 1.397 . S
C497 C502 1.363 . S
C498 H475 0.950 . S
C498 C497 1.397 . S
C498 C499 1.334 . S
C499 H476 0.950 . S
C499 C498 1.334 . S
C499 C500 1.287 . S
C500 C499 1.287 . S
C500 C501 1.524 . S
C500 H519 0.913 . S
C501 H477 0.950 . S
C501 C500 1.524 . S
C501 C502 1.415 . S
C502 H478 0.950 . S
C502 C497 1.363 . S
C502 C501 1.415 . S
C503 H479 0.951 . S
C503 C504 1.366 . S
C503 C505 1.388 . S
C504 C503 1.366 . S
C504 C508 1.385 . S
C505 H480 0.951 . S
C505 C503 1.388 . S
C505 C506 1.366 . S
C506 C505 1.366 . S
C506 C507 1.414 . S
C506 C509 1.499 . S
C507 H481 0.950 . S
C507 C506 1.414 . S
C507 C508 1.374 . S
C508 H482 0.950 . S
C508 C504 1.385 . S
C508 C507 1.374 . S
C509 C506 1.499 . S
C509 C510 1.373 . S
C509 C511 1.389 . S
C510 H483 0.950 . S
C510 C496 1.377 . S
C510 C509 1.373 . S
C511 C495 1.377 . S
C511 C509 1.389 . S
C511 C512 1.524 . S
C512 C511 1.524 . S
C512 C513 1.397 . S
C512 C517 1.363 . S
C513 H484 0.950 . S
C513 C512 1.397 . S
C513 C514 1.334 . S
C514 H485 0.950 . S
C514 C513 1.334 . S
C514 C515 1.287 . S
C515 C514 1.287 . S
C515 C516 1.524 . S
C515 H518 0.999 . S
C516 H486 0.950 . S
C516 C515 1.524 . S
C516 C517 1.415 . S
C517 H487 0.950 . S
C517 C512 1.363 . S
C517 C516 1.415 . S
H518 C515 0.999 . S
H519 C500 0.913 . S
H520 C538 0.951 . S
H521 C540 0.951 . S
H522 C542 0.950 . S
H523 C543 0.950 . S
H524 C545 0.950 1_655 S
H525 C548 0.950 . S
H526 C549 0.950 . S
H527 C551 0.950 1_556 S
H528 C552 0.950 1_556 S
H529 C553 0.951 . S
H530 C555 0.951 . S
H531 C557 0.950 . S
H532 C558 0.950 . S
H533 C560 0.950 . S
H534 C563 0.950 . S
H535 C564 0.950 . S
H536 C566 0.950 . S
H537 C567 0.950 . S
C538 H520 0.951 . S
C538 C539 1.366 1_556 S
C538 C540 1.388 . S
C539 C538 1.366 1_554 S
C539 C543 1.385 . S
C540 H521 0.951 . S
C540 C538 1.388 . S
C540 C541 1.366 1_556 S
C541 C540 1.366 1_554 S
C541 C542 1.414 . S
C541 C544 1.499 . S
C542 H522 0.950 . S
C542 C541 1.414 . S
C542 C543 1.374 . S
C543 H523 0.950 . S
C543 C539 1.385 . S
C543 C542 1.374 . S
C544 C541 1.499 . S
C544 C545 1.373 1_655 S
C544 C546 1.389 1_655 S
C545 H524 0.950 1_455 S
C545 C544 1.373 1_455 S
C545 C561 1.377 . S
C546 C544 1.389 1_455 S
C546 C547 1.524 . S
C546 C560 1.377 . S
C547 C546 1.524 . S
C547 C548 1.397 1_455 S
C547 C552 1.363 . S
C548 H525 0.950 . S
C548 C547 1.397 1_655 S
C548 C549 1.334 . S
C549 H526 0.950 . S
C549 C548 1.334 . S
C549 C550 1.287 . S
C550 C549 1.287 . S
C550 C551 1.524 1_655 S
C550 H569 0.913 . S
C551 H527 0.950 1_554 S
C551 C550 1.524 1_455 S
C551 C552 1.415 . S
C552 H528 0.950 1_554 S
C552 C547 1.363 . S
C552 C551 1.415 . S
C553 H529 0.951 . S
C553 C554 1.366 . S
C553 C555 1.388 . S
C554 C553 1.366 . S
C554 C558 1.385 1_554 S
C555 H530 0.951 . S
C555 C553 1.388 . S
C555 C556 1.366 . S
C556 C555 1.366 . S
C556 C557 1.414 1_554 S
C556 C559 1.499 . S
C557 H531 0.950 . S
C557 C556 1.414 1_556 S
C557 C558 1.374 . S
C558 H532 0.950 . S
C558 C554 1.385 1_556 S
C558 C557 1.374 . S
C559 C556 1.499 . S
C559 C560 1.373 . S
C559 C561 1.389 . S
C560 H533 0.950 . S
C560 C546 1.377 . S
C560 C559 1.373 . S
C561 C545 1.377 . S
C561 C559 1.389 . S
C561 C562 1.524 . S
C562 C561 1.524 . S
C562 C563 1.397 1_554 S
C562 C567 1.363 . S
C563 H534 0.950 . S
C563 C562 1.397 1_556 S
C563 C564 1.334 . S
C564 H535 0.950 . S
C564 C563 1.334 . S
C564 C565 1.287 . S
C565 C564 1.287 . S
C565 C566 1.524 1_556 S
C565 H568 0.999 . S
C566 H536 0.950 . S
C566 C565 1.524 1_554 S
C566 C567 1.415 . S
C567 H537 0.950 . S
C567 C562 1.363 . S
C567 C566 1.415 . S
H568 C565 0.999 . S
H569 C550 0.913 . S
H570 C588 0.951 . S
H571 C590 0.951 . S
H572 C592 0.950 1_556 S
H573 C593 0.950 1_556 S
H574 C595 0.950 1_455 S
H575 C598 0.950 . S
H576 C599 0.950 . S
H577 C601 0.950 . S
H578 C602 0.950 . S
H579 C603 0.951 1_556 S
H580 C605 0.951 1_556 S
H581 C607 0.950 . S
H582 C608 0.950 . S
H583 C610 0.950 . S
H584 C613 0.950 . S
H585 C614 0.950 . S
H586 C616 0.950 . S
H587 C617 0.950 . S
C588 H570 0.951 . S
C588 C589 1.366 . S
C588 C590 1.388 . S
C589 C588 1.366 . S
C589 C593 1.385 . S
C590 H571 0.951 . S
C590 C588 1.388 . S
C590 C591 1.366 . S
C591 C590 1.366 . S
C591 C592 1.414 . S
C591 C594 1.499 . S
C592 H572 0.950 1_554 S
C592 C591 1.414 . S
C592 C593 1.374 . S
C593 H573 0.950 1_554 S
C593 C589 1.385 . S
C593 C592 1.374 . S
C594 C591 1.499 . S
C594 C595 1.373 1_454 S
C594 C596 1.389 1_455 S
C595 H574 0.950 1_655 S
C595 C594 1.373 1_656 S
C595 C611 1.377 . S
C596 C594 1.389 1_655 S
C596 C597 1.524 . S
C596 C610 1.377 . S
C597 C596 1.524 . S
C597 C598 1.397 1_655 S
C597 C602 1.363 . S
C598 H575 0.950 . S
C598 C597 1.397 1_455 S
C598 C599 1.334 . S
C599 H576 0.950 . S
C599 C598 1.334 . S
C599 C600 1.287 . S
C600 C599 1.287 . S
C600 C601 1.524 1_455 S
C600 H619 0.913 . S
C601 H577 0.950 . S
C601 C600 1.524 1_655 S
C601 C602 1.415 . S
C602 H578 0.950 . S
C602 C597 1.363 . S
C602 C601 1.415 . S
C603 H579 0.951 1_554 S
C603 C604 1.366 . S
C603 C605 1.388 . S
C604 C603 1.366 . S
C604 C608 1.385 . S
C605 H580 0.951 1_554 S
C605 C603 1.388 . S
C605 C606 1.366 . S
C606 C605 1.366 . S
C606 C607 1.414 . S
C606 C609 1.499 . S
C607 H581 0.950 . S
C607 C606 1.414 . S
C607 C608 1.374 . S
C608 H582 0.950 . S
C608 C604 1.385 . S
C608 C607 1.374 . S
C609 C606 1.499 . S
C609 C610 1.373 . S
C609 C611 1.389 1_554 S
C610 H583 0.950 . S
C610 C596 1.377 . S
C610 C609 1.373 . S
C611 C595 1.377 . S
C611 C609 1.389 1_556 S
C611 C612 1.524 . S
C612 C611 1.524 . S
C612 C613 1.397 . S
C612 C617 1.363 . S
C613 H584 0.950 . S
C613 C612 1.397 . S
C613 C614 1.334 . S
C614 H585 0.950 . S
C614 C613 1.334 . S
C614 C615 1.287 . S
C615 C614 1.287 . S
C615 C616 1.524 . S
C615 H618 0.999 . S
C616 H586 0.950 . S
C616 C615 1.524 . S
C616 C617 1.415 . S
C617 H587 0.950 . S
C617 C612 1.363 . S
C617 C616 1.415 . S
H618 C615 0.999 . S
H619 C600 0.913 . S
H620 C638 0.951 . S
H621 C640 0.951 . S
H622 C642 0.950 . S
H623 C643 0.950 . S
H624 C645 0.950 . S
H625 C648 0.950 . S
H626 C649 0.950 . S
H627 C651 0.950 . S
H628 C652 0.950 . S
H629 C653 0.951 . S
H630 C655 0.951 . S
H631 C657 0.950 . S
H632 C658 0.950 . S
H633 C660 0.950 . S
H634 C663 0.950 . S
H635 C664 0.950 . S
H636 C666 0.950 . S
H637 C667 0.950 1_455 S
C638 H620 0.951 . S
C638 C639 1.366 . S
C638 C640 1.388 . S
C639 C638 1.366 . S
C639 C643 1.385 . S
C640 H621 0.951 . S
C640 C638 1.388 . S
C640 C641 1.366 . S
C641 C640 1.366 . S
C641 C642 1.414 . S
C641 C644 1.499 . S
C642 H622 0.950 . S
C642 C641 1.414 . S
C642 C643 1.374 . S
C643 H623 0.950 . S
C643 C639 1.385 . S
C643 C642 1.374 . S
C644 C641 1.499 . S
C644 C645 1.373 . S
C644 C646 1.389 . S
C645 H624 0.950 . S
C645 C644 1.373 . S
C645 C661 1.377 . S
C646 C644 1.389 . S
C646 C647 1.524 . S
C646 C660 1.377 . S
C647 C646 1.524 . S
C647 C648 1.397 . S
C647 C652 1.363 . S
C648 H625 0.950 . S
C648 C647 1.397 . S
C648 C649 1.334 . S
C649 H626 0.950 . S
C649 C648 1.334 . S
C649 C650 1.287 . S
C650 C649 1.287 . S
C650 C651 1.524 . S
C650 H669 0.913 . S
C651 H627 0.950 . S
C651 C650 1.524 . S
C651 C652 1.415 . S
C652 H628 0.950 . S
C652 C647 1.363 . S
C652 C651 1.415 . S
C653 H629 0.951 . S
C653 C654 1.366 . S
C653 C655 1.388 . S
C654 C653 1.366 . S
C654 C658 1.385 . S
C655 H630 0.951 . S
C655 C653 1.388 . S
C655 C656 1.366 . S
C656 C655 1.366 . S
C656 C657 1.414 . S
C656 C659 1.499 . S
C657 H631 0.950 . S
C657 C656 1.414 . S
C657 C658 1.374 . S
C658 H632 0.950 . S
C658 C654 1.385 . S
C658 C657 1.374 . S
C659 C656 1.499 . S
C659 C660 1.373 1_655 S
C659 C661 1.389 1_655 S
C660 H633 0.950 . S
C660 C646 1.377 . S
C660 C659 1.373 1_455 S
C661 C645 1.377 . S
C661 C659 1.389 1_455 S
C661 C662 1.524 1_455 S
C662 C661 1.524 1_655 S
C662 C663 1.397 . S
C662 C667 1.363 . S
C663 H634 0.950 . S
C663 C662 1.397 . S
C663 C664 1.334 . S
C664 H635 0.950 . S
C664 C663 1.334 . S
C664 C665 1.287 . S
C665 C664 1.287 . S
C665 C666 1.524 . S
C665 H668 0.999 . S
C666 H636 0.950 . S
C666 C665 1.524 . S
C666 C667 1.415 . S
C667 H637 0.950 1_655 S
C667 C662 1.363 . S
C667 C666 1.415 . S
H668 C665 0.999 . S
H669 C650 0.913 . S
H670 C688 0.951 . S
H671 C690 0.951 . S
H672 C692 0.950 . S
H673 C693 0.950 . S
H674 C695 0.950 . S
H675 C698 0.950 . S
H676 C699 0.950 . S
H677 C701 0.950 . S
H678 C702 0.950 . S
H679 C703 0.951 . S
H680 C705 0.951 . S
H681 C707 0.950 . S
H682 C708 0.950 . S
H683 C710 0.950 . S
H684 C713 0.950 . S
H685 C714 0.950 . S
H686 C716 0.950 . S
H687 C717 0.950 . S
C688 H670 0.951 . S
C688 C689 1.366 . S
C688 C690 1.388 . S
C689 C688 1.366 . S
C689 C693 1.385 . S
C690 H671 0.951 . S
C690 C688 1.388 . S
C690 C691 1.366 . S
C691 C690 1.366 . S
C691 C692 1.414 . S
C691 C694 1.499 . S
C692 H672 0.950 . S
C692 C691 1.414 . S
C692 C693 1.374 . S
C693 H673 0.950 . S
C693 C689 1.385 . S
C693 C692 1.374 . S
C694 C691 1.499 . S
C694 C695 1.373 . S
C694 C696 1.389 . S
C695 H674 0.950 . S
C695 C694 1.373 . S
C695 C711 1.377 . S
C696 C694 1.389 . S
C696 C697 1.524 . S
C696 C710 1.377 . S
C697 C696 1.524 . S
C697 C698 1.397 . S
C697 C702 1.363 . S
C698 H675 0.950 . S
C698 C697 1.397 . S
C698 C699 1.334 . S
C699 H676 0.950 . S
C699 C698 1.334 . S
C699 C700 1.287 . S
C700 C699 1.287 . S
C700 C701 1.524 . S
C700 H719 0.913 . S
C701 H677 0.950 . S
C701 C700 1.524 . S
C701 C702 1.415 . S
C702 H678 0.950 . S
C702 C697 1.363 . S
C702 C701 1.415 . S
C703 H679 0.951 . S
C703 C704 1.366 . S
C703 C705 1.388 . S
C704 C703 1.366 . S
C704 C708 1.385 . S
C705 H680 0.951 . S
C705 C703 1.388 . S
C705 C706 1.366 . S
C706 C705 1.366 . S
C706 C707 1.414 . S
C706 C709 1.499 . S
C707 H681 0.950 . S
C707 C706 1.414 . S
C707 C708 1.374 . S
C708 H682 0.950 . S
C708 C704 1.385 . S
C708 C707 1.374 . S
C709 C706 1.499 . S
C709 C710 1.373 1_455 S
C709 C711 1.389 1_455 S
C710 H683 0.950 . S
C710 C696 1.377 . S
C710 C709 1.373 1_655 S
C711 C695 1.377 . S
C711 C709 1.389 1_655 S
C711 C712 1.524 1_655 S
C712 C711 1.524 1_455 S
C712 C713 1.397 . S
C712 C717 1.363 1_455 S
C713 H684 0.950 . S
C713 C712 1.397 . S
C713 C714 1.334 . S
C714 H685 0.950 . S
C714 C713 1.334 . S
C714 C715 1.287 . S
C715 C714 1.287 . S
C715 C716 1.524 . S
C715 H718 0.999 . S
C716 H686 0.950 . S
C716 C715 1.524 . S
C716 C717 1.415 1_455 S
C717 H687 0.950 . S
C717 C712 1.363 1_655 S
C717 C716 1.415 1_655 S
H718 C715 0.999 . S
H719 C700 0.913 . S
H720 C738 0.951 . S
H721 C740 0.951 1_655 S
H722 C742 0.950 . S
H723 C743 0.950 . S
H724 C745 0.957 . S
H725 C748 0.950 . S
H726 C749 0.950 . S
H727 C751 0.950 . S
H728 C752 0.950 . S
H729 C753 0.951 . S
H730 C755 0.951 1_455 S
H731 C757 0.939 1_556 S
H732 C758 0.951 . S
H733 C760 0.950 . S
H734 C763 0.950 . S
H735 C764 0.950 . S
H736 C766 0.950 . S
H737 C767 0.950 1_554 S
C738 H720 0.951 . S
C738 C739 1.366 . S
C738 C740 1.388 . S
C739 C738 1.366 . S
C739 C743 1.385 . S
C740 H721 0.951 1_455 S
C740 C738 1.388 . S
C740 C741 1.366 . S
C741 C740 1.366 . S
C741 C742 1.414 . S
C741 C744 1.499 . S
C742 H722 0.950 . S
C742 C741 1.414 . S
C742 C743 1.374 . S
C743 H723 0.950 . S
C743 C739 1.385 . S
C743 C742 1.374 . S
C744 C741 1.499 . S
C744 C745 1.373 . S
C744 C746 1.389 1_455 S
C745 H724 0.957 . S
C745 C744 1.373 . S
C745 C761 1.377 . S
C746 C744 1.389 1_655 S
C746 C747 1.524 . S
C746 C760 1.377 . S
C747 C746 1.524 . S
C747 C748 1.397 . S
C747 C752 1.363 . S
C748 H725 0.950 . S
C748 C747 1.397 . S
C748 C749 1.334 . S
C749 H726 0.950 . S
C749 C748 1.334 . S
C749 C750 1.287 . S
C750 C749 1.287 . S
C750 C751 1.524 . S
C750 H769 0.913 . S
C751 H727 0.950 . S
C751 C750 1.524 . S
C751 C752 1.415 . S
C752 H728 0.950 . S
C752 C747 1.363 . S
C752 C751 1.415 . S
C753 H729 0.951 . S
C753 C754 1.366 . S
C753 C755 1.388 . S
C754 C753 1.366 . S
C754 C758 1.384 1_554 S
C755 H730 0.951 1_655 S
C755 C753 1.388 . S
C755 C756 1.366 . S
C756 C755 1.366 . S
C756 C757 1.428 . S
C756 C759 1.499 . S
C757 H731 0.939 1_554 S
C757 C756 1.428 . S
C757 C758 1.372 1_554 S
C758 H732 0.951 . S
C758 C754 1.384 1_556 S
C758 C757 1.372 1_556 S
C759 C756 1.499 . S
C759 C760 1.373 . S
C759 C761 1.389 1_655 S
C760 H733 0.950 . S
C760 C746 1.377 . S
C760 C759 1.373 . S
C761 C745 1.377 . S
C761 C759 1.389 1_455 S
C761 C762 1.524 1_554 S
C762 C761 1.524 1_556 S
C762 C763 1.397 . S
C762 C767 1.363 . S
C763 H734 0.950 . S
C763 C762 1.397 . S
C763 C764 1.334 . S
C764 H735 0.950 . S
C764 C763 1.334 . S
C764 C765 1.287 . S
C765 C764 1.287 . S
C765 C766 1.524 . S
C765 H768 0.999 . S
C766 H736 0.950 . S
C766 C765 1.524 . S
C766 C767 1.415 . S
C767 H737 0.950 1_556 S
C767 C762 1.363 . S
C767 C766 1.415 . S
H768 C765 0.999 . S
H769 C750 0.913 . S
H770 C788 0.951 1_655 S
H771 C790 0.951 1_655 S
H772 C792 0.950 . S
H773 C793 0.950 . S
H774 C795 0.950 . S
H775 C798 0.950 . S
H776 C799 0.950 . S
H777 C801 0.950 . S
H778 C802 0.950 . S
H779 C803 0.951 1_455 S
H780 C805 0.951 1_455 S
H781 C807 0.950 . S
H782 C808 0.950 . S
H783 C810 0.950 . S
H784 C813 0.950 . S
H785 C814 0.950 . S
H786 C816 0.950 . S
H787 C817 0.950 . S
C788 H770 0.951 1_455 S
C788 C789 1.366 . S
C788 C790 1.388 . S
C789 C788 1.366 . S
C789 C793 1.385 . S
C790 H771 0.951 1_455 S
C790 C788 1.388 . S
C790 C791 1.366 . S
C791 C790 1.366 . S
C791 C792 1.414 . S
C791 C794 1.499 . S
C792 H772 0.950 . S
C792 C791 1.414 . S
C792 C793 1.374 . S
C793 H773 0.950 . S
C793 C789 1.385 . S
C793 C792 1.374 . S
C794 C791 1.499 . S
C794 C795 1.373 . S
C794 C796 1.389 1_455 S
C795 H774 0.950 . S
C795 C794 1.373 . S
C795 C811 1.377 . S
C796 C794 1.389 1_655 S
C796 C797 1.524 . S
C796 C810 1.377 . S
C797 C796 1.524 . S
C797 C798 1.397 1_655 S
C797 C802 1.363 . S
C798 H775 0.950 . S
C798 C797 1.397 1_455 S
C798 C799 1.334 . S
C799 H776 0.950 . S
C799 C798 1.334 . S
C799 C800 1.287 1_455 S
C800 C799 1.287 1_655 S
C800 C801 1.524 . S
C800 H819 0.913 . S
C801 H777 0.950 . S
C801 C800 1.524 . S
C801 C802 1.415 . S
C802 H778 0.950 . S
C802 C797 1.363 . S
C802 C801 1.415 . S
C803 H779 0.951 1_655 S
C803 C804 1.366 . S
C803 C805 1.388 . S
C804 C803 1.366 . S
C804 C808 1.385 . S
C805 H780 0.951 1_655 S
C805 C803 1.388 . S
C805 C806 1.366 . S
C806 C805 1.366 . S
C806 C807 1.414 . S
C806 C809 1.499 . S
C807 H781 0.950 . S
C807 C806 1.414 . S
C807 C808 1.374 . S
C808 H782 0.950 . S
C808 C804 1.385 . S
C808 C807 1.374 . S
C809 C806 1.499 . S
C809 C810 1.373 . S
C809 C811 1.389 1_655 S
C810 H783 0.950 . S
C810 C796 1.377 . S
C810 C809 1.373 . S
C811 C795 1.377 . S
C811 C809 1.389 1_455 S
C811 C812 1.524 . S
C812 C811 1.524 . S
C812 C813 1.397 1_455 S
C812 C817 1.363 . S
C813 H784 0.950 . S
C813 C812 1.397 1_655 S
C813 C814 1.334 . S
C814 H785 0.950 . S
C814 C813 1.334 . S
C814 C815 1.287 1_655 S
C815 C814 1.287 1_455 S
C815 C816 1.524 . S
C815 H818 0.999 . S
C816 H786 0.950 . S
C816 C815 1.524 . S
C816 C817 1.415 . S
C817 H787 0.950 . S
C817 C812 1.363 . S
C817 C816 1.415 . S
H818 C815 0.999 . S
H819 C800 0.913 . S
H820 C838 0.951 . S
H821 C840 0.951 . S
H822 C842 0.950 . S
H823 C843 0.950 . S
H824 C845 0.950 . S
H825 C848 0.950 . S
H826 C849 0.950 . S
H827 C851 0.950 1_545 S
H828 C852 0.996 . S
H829 C853 0.951 . S
H830 C855 0.951 . S
H831 C857 0.950 . S
H832 C858 0.950 . S
H833 C860 0.950 . S
H834 C863 0.950 . S
H835 C864 0.950 . S
H836 C866 0.950 1_565 S
H837 C867 0.996 . S
C838 H820 0.951 . S
C838 C839 1.366 . S
C838 C840 1.388 . S
C839 C838 1.366 . S
C839 C843 1.385 . S
C840 H821 0.951 . S
C840 C838 1.388 . S
C840 C841 1.366 . S
C841 C840 1.366 . S
C841 C842 1.414 . S
C841 C844 1.499 . S
C842 H822 0.950 . S
C842 C841 1.414 . S
C842 C843 1.374 . S
C843 H823 0.950 . S
C843 C839 1.385 . S
C843 C842 1.374 . S
C844 C841 1.499 . S
C844 C845 1.373 . S
C844 C846 1.389 1_554 S
C845 H824 0.950 . S
C845 C844 1.373 . S
C845 C861 1.377 1_565 S
C846 C844 1.389 1_556 S
C846 C847 1.524 . S
C846 C860 1.377 1_565 S
C847 C846 1.524 . S
C847 C848 1.397 . S
C847 C852 1.330 1_565 S
C848 H825 0.950 . S
C848 C847 1.397 . S
C848 C849 1.334 . S
C849 H826 0.950 . S
C849 C848 1.334 . S
C849 C850 1.287 . S
C850 C849 1.287 . S
C850 C851 1.524 . S
C850 H869 0.913 . S
C851 H827 0.950 1_565 S
C851 C850 1.524 . S
C851 C852 1.405 1_565 S
C852 H828 0.996 . S
C852 C847 1.330 1_545 S
C852 C851 1.405 1_545 S
C853 H829 0.951 . S
C853 C854 1.366 . S
C853 C855 1.388 . S
C854 C853 1.366 . S
C854 C858 1.385 . S
C855 H830 0.951 . S
C855 C853 1.388 . S
C855 C856 1.366 . S
C856 C855 1.366 . S
C856 C857 1.414 . S
C856 C859 1.499 . S
C857 H831 0.950 . S
C857 C856 1.414 . S
C857 C858 1.374 . S
C858 H832 0.950 . S
C858 C854 1.385 . S
C858 C857 1.374 . S
C859 C856 1.499 . S
C859 C860 1.373 1_554 S
C859 C861 1.389 . S
C860 H833 0.950 . S
C860 C846 1.377 1_545 S
C860 C859 1.373 1_556 S
C861 C845 1.377 1_545 S
C861 C859 1.389 . S
C861 C862 1.524 . S
C862 C861 1.524 . S
C862 C863 1.397 . S
C862 C867 1.330 1_545 S
C863 H834 0.950 . S
C863 C862 1.397 . S
C863 C864 1.334 . S
C864 H835 0.950 . S
C864 C863 1.334 . S
C864 C865 1.287 . S
C865 C864 1.287 . S
C865 C866 1.524 . S
C865 H868 0.999 . S
C866 H836 0.950 1_545 S
C866 C865 1.524 . S
C866 C867 1.405 1_545 S
C867 H837 0.996 . S
C867 C862 1.330 1_565 S
C867 C866 1.405 1_565 S
H868 C865 0.999 . S
H869 C850 0.913 . S
H870 C888 0.951 . S
H871 C890 0.951 . S
H872 C892 0.950 . S
H873 C893 0.950 . S
H874 C895 0.950 . S
H875 C898 0.950 . S
H876 C899 0.950 . S
H877 C901 0.950 . S
H878 C902 0.950 . S
H879 C903 0.951 . S
H880 C905 0.951 . S
H881 C907 0.950 . S
H882 C908 0.950 . S
H883 C910 0.950 . S
H884 C913 0.950 . S
H885 C914 0.950 . S
H886 C916 0.950 . S
H887 C917 0.950 . S
C888 H870 0.951 . S
C888 C889 1.366 . S
C888 C890 1.388 . S
C889 C888 1.366 . S
C889 C893 1.385 . S
C890 H871 0.951 . S
C890 C888 1.388 . S
C890 C891 1.366 . S
C891 C890 1.366 . S
C891 C892 1.414 . S
C891 C894 1.499 . S
C892 H872 0.950 . S
C892 C891 1.414 . S
C892 C893 1.374 . S
C893 H873 0.950 . S
C893 C889 1.385 . S
C893 C892 1.374 . S
C894 C891 1.499 . S
C894 C895 1.373 . S
C894 C896 1.389 . S
C895 H874 0.950 . S
C895 C894 1.373 . S
C895 C911 1.377 1_545 S
C896 C894 1.389 . S
C896 C897 1.524 . S
C896 C910 1.377 1_545 S
C897 C896 1.524 . S
C897 C898 1.397 . S
C897 C902 1.363 . S
C898 H875 0.950 . S
C898 C897 1.397 . S
C898 C899 1.334 . S
C899 H876 0.950 . S
C899 C898 1.334 . S
C899 C900 1.287 . S
C900 C899 1.287 . S
C900 C901 1.524 . S
C900 H919 0.913 . S
C901 H877 0.950 . S
C901 C900 1.524 . S
C901 C902 1.415 . S
C902 H878 0.950 . S
C902 C897 1.363 . S
C902 C901 1.415 . S
C903 H879 0.951 . S
C903 C904 1.366 . S
C903 C905 1.388 . S
C904 C903 1.366 . S
C904 C908 1.385 . S
C905 H880 0.951 . S
C905 C903 1.388 . S
C905 C906 1.366 . S
C906 C905 1.366 . S
C906 C907 1.414 . S
C906 C909 1.499 . S
C907 H881 0.950 . S
C907 C906 1.414 . S
C907 C908 1.374 . S
C908 H882 0.950 . S
C908 C904 1.385 . S
C908 C907 1.374 . S
C909 C906 1.499 . S
C909 C910 1.373 . S
C909 C911 1.389 . S
C910 H883 0.950 . S
C910 C896 1.377 1_565 S
C910 C909 1.373 . S
C911 C895 1.377 1_565 S
C911 C909 1.389 . S
C911 C912 1.524 . S
C912 C911 1.524 . S
C912 C913 1.397 . S
C912 C917 1.363 . S
C913 H884 0.950 . S
C913 C912 1.397 . S
C913 C914 1.334 . S
C914 H885 0.950 . S
C914 C913 1.334 . S
C914 C915 1.287 . S
C915 C914 1.287 . S
C915 C916 1.524 . S
C915 H918 0.999 . S
C916 H886 0.950 . S
C916 C915 1.524 . S
C916 C917 1.415 . S
C917 H887 0.950 . S
C917 C912 1.363 . S
C917 C916 1.415 . S
H918 C915 0.999 . S
H919 C900 0.913 . S
H920 C938 0.951 . S
H921 C940 0.951 . S
H922 C942 0.950 1_556 S
H923 C943 0.950 1_556 S
H924 C945 0.950 . S
H925 C948 0.950 . S
H926 C949 0.950 . S
H927 C951 0.950 . S
H928 C952 0.950 . S
H929 C953 0.951 . S
H930 C955 0.951 . S
H931 C957 0.950 . S
H932 C958 0.950 . S
H933 C960 0.950 . S
H934 C963 0.950 . S
H935 C964 0.950 . S
H936 C966 0.950 . S
H937 C967 0.950 . S
C938 H920 0.951 . S
C938 C939 1.366 . S
C938 C940 1.388 . S
C939 C938 1.366 . S
C939 C943 1.385 . S
C940 H921 0.951 . S
C940 C938 1.388 . S
C940 C941 1.366 . S
C941 C940 1.366 . S
C941 C942 1.414 . S
C941 C944 1.499 . S
C942 H922 0.950 1_554 S
C942 C941 1.414 . S
C942 C943 1.374 . S
C943 H923 0.950 1_554 S
C943 C939 1.385 . S
C943 C942 1.374 . S
C944 C941 1.499 . S
C944 C945 1.373 1_554 S
C944 C946 1.389 . S
C945 H924 0.950 . S
C945 C944 1.373 1_556 S
C945 C961 1.377 . S
C946 C944 1.389 . S
C946 C947 1.524 . S
C946 C960 1.377 . S
C947 C946 1.524 . S
C947 C948 1.397 . S
C947 C952 1.363 . S
C948 H925 0.950 . S
C948 C947 1.397 . S
C948 C949 1.334 . S
C949 H926 0.950 . S
C949 C948 1.334 . S
C949 C950 1.287 . S
C950 C949 1.287 . S
C950 C951 1.524 . S
C950 H969 0.913 . S
C951 H927 0.950 . S
C951 C950 1.524 . S
C951 C952 1.415 . S
C952 H928 0.950 . S
C952 C947 1.363 . S
C952 C951 1.415 . S
C953 H929 0.951 . S
C953 C954 1.366 1_556 S
C953 C955 1.388 . S
C954 C953 1.366 1_554 S
C954 C958 1.385 . S
C955 H930 0.951 . S
C955 C953 1.388 . S
C955 C956 1.366 1_556 S
C956 C955 1.366 1_554 S
C956 C957 1.414 . S
C956 C959 1.499 . S
C957 H931 0.950 . S
C957 C956 1.414 . S
C957 C958 1.374 . S
C958 H932 0.950 . S
C958 C954 1.385 . S
C958 C957 1.374 . S
C959 C956 1.499 . S
C959 C960 1.373 . S
C959 C961 1.389 1_554 S
C960 H933 0.950 . S
C960 C946 1.377 . S
C960 C959 1.373 . S
C961 C945 1.377 . S
C961 C959 1.389 1_556 S
C961 C962 1.524 . S
C962 C961 1.524 . S
C962 C963 1.397 . S
C962 C967 1.363 . S
C963 H934 0.950 . S
C963 C962 1.397 . S
C963 C964 1.334 . S
C964 H935 0.950 . S
C964 C963 1.334 . S
C964 C965 1.287 . S
C965 C964 1.287 . S
C965 C966 1.524 . S
C965 H968 0.999 . S
C966 H936 0.950 . S
C966 C965 1.524 . S
C966 C967 1.415 . S
C967 H937 0.950 . S
C967 C962 1.363 . S
C967 C966 1.415 . S
H968 C965 0.999 . S
H969 C950 0.913 . S
H970 C988 0.951 . S
H971 C990 0.951 . S
H972 C992 0.950 . S
H973 C993 0.950 . S
H974 C995 0.945 1_556 S
H975 C998 0.950 1_556 S
H976 C999 0.950 . S
H977 C1001 0.950 . S
H978 C1002 0.950 . S
H979 C1003 0.951 . S
H980 C1005 0.951 . S
H981 C1007 0.950 . S
H982 C1008 0.950 . S
H983 C1010 0.950 . S
H984 C1013 0.950 . S
H985 C1014 0.950 . S
H986 C1016 0.950 . S
H987 C1017 0.950 . S
C988 H970 0.951 . S
C988 C989 1.366 . S
C988 C990 1.388 . S
C989 C988 1.366 . S
C989 C993 1.385 1_554 S
C990 H971 0.951 . S
C990 C988 1.388 . S
C990 C991 1.366 . S
C991 C990 1.366 . S
C991 C992 1.414 1_554 S
C991 C994 1.499 . S
C992 H972 0.950 . S
C992 C991 1.414 1_556 S
C992 C993 1.374 . S
C993 H973 0.950 . S
C993 C989 1.385 1_556 S
C993 C992 1.374 . S
C994 C991 1.499 . S
C994 C995 1.373 . S
C994 C996 1.389 . S
C995 H974 0.945 1_554 S
C995 C994 1.373 . S
C995 C1011 1.377 . S
C996 C994 1.389 . S
C996 C997 1.524 . S
C996 C1010 1.377 . S
C997 C996 1.524 . S
C997 C998 1.397 . S
C997 C1002 1.363 . S
C998 H975 0.950 1_554 S
C998 C997 1.397 . S
C998 C999 1.334 . S
C999 H976 0.950 . S
C999 C998 1.334 . S
C999 C1000 1.287 . S
C1000 C999 1.287 . S
C1000 C1001 1.524 . S
C1000 H1019 0.913 1_655 S
C1001 H977 0.950 . S
C1001 C1000 1.524 . S
C1001 C1002 1.415 . S
C1002 H978 0.950 . S
C1002 C997 1.363 . S
C1002 C1001 1.415 . S
C1003 H979 0.951 . S
C1003 C1004 1.366 1_556 S
C1003 C1005 1.388 . S
C1004 C1003 1.366 1_554 S
C1004 C1008 1.385 . S
C1005 H980 0.951 . S
C1005 C1003 1.388 . S
C1005 C1006 1.366 1_556 S
C1006 C1005 1.366 1_554 S
C1006 C1007 1.414 . S
C1006 C1009 1.499 . S
C1007 H981 0.950 . S
C1007 C1006 1.414 . S
C1007 C1008 1.374 . S
C1008 H982 0.950 . S
C1008 C1004 1.385 . S
C1008 C1007 1.374 . S
C1009 C1006 1.499 . S
C1009 C1010 1.373 . S
C1009 C1011 1.389 . S
C1010 H983 0.950 . S
C1010 C996 1.377 . S
C1010 C1009 1.373 . S
C1011 C995 1.377 . S
C1011 C1009 1.389 . S
C1011 C1012 1.524 1_554 S
C1012 C1011 1.524 1_556 S
C1012 C1013 1.397 1_556 S
C1012 C1017 1.363 . S
C1013 H984 0.950 . S
C1013 C1012 1.397 1_554 S
C1013 C1014 1.334 . S
C1014 H985 0.950 . S
C1014 C1013 1.334 . S
C1014 C1015 1.287 1_554 S
C1015 C1014 1.287 1_556 S
C1015 C1016 1.524 . S
C1015 H1018 0.999 . S
C1016 H986 0.950 . S
C1016 C1015 1.524 . S
C1016 C1017 1.415 . S
C1017 H987 0.950 . S
C1017 C1012 1.363 . S
C1017 C1016 1.415 . S
H1018 C1015 0.999 . S
H1019 C1000 0.913 1_455 S
H1020 C1038 0.951 . S
H1021 C1040 0.951 . S
H1022 C1042 0.950 . S
H1023 C1043 0.950 . S
H1024 C1045 0.950 . S
H1025 C1048 0.950 . S
H1026 C1049 0.950 . S
H1027 C1051 0.950 . S
H1028 C1052 0.950 . S
H1029 C1053 0.951 . S
H1030 C1055 0.951 . S
H1031 C1057 0.950 . S
H1032 C1058 0.950 . S
H1033 C1060 0.950 . S
H1034 C1063 0.950 . S
H1035 C1064 0.950 . S
H1036 C1066 0.950 . S
H1037 C1067 0.950 . S
C1038 H1020 0.951 . S
C1038 C1039 1.366 . S
C1038 C1040 1.388 . S
C1039 C1038 1.366 . S
C1039 C1043 1.385 . S
C1040 H1021 0.951 . S
C1040 C1038 1.388 . S
C1040 C1041 1.366 . S
C1041 C1040 1.366 . S
C1041 C1042 1.414 . S
C1041 C1044 1.499 . S
C1042 H1022 0.950 . S
C1042 C1041 1.414 . S
C1042 C1043 1.374 . S
C1043 H1023 0.950 . S
C1043 C1039 1.385 . S
C1043 C1042 1.374 . S
C1044 C1041 1.499 . S
C1044 C1045 1.373 . S
C1044 C1046 1.389 . S
C1045 H1024 0.950 . S
C1045 C1044 1.373 . S
C1045 C1061 1.377 . S
C1046 C1044 1.389 . S
C1046 C1047 1.524 . S
C1046 C1060 1.377 . S
C1047 C1046 1.524 . S
C1047 C1048 1.397 . S
C1047 C1052 1.363 . S
C1048 H1025 0.950 . S
C1048 C1047 1.397 . S
C1048 C1049 1.334 . S
C1049 H1026 0.950 . S
C1049 C1048 1.334 . S
C1049 C1050 1.287 . S
C1050 C1049 1.287 . S
C1050 C1051 1.524 . S
C1050 H1069 0.913 . S
C1051 H1027 0.950 . S
C1051 C1050 1.524 . S
C1051 C1052 1.415 . S
C1052 H1028 0.950 . S
C1052 C1047 1.363 . S
C1052 C1051 1.415 . S
C1053 H1029 0.951 . S
C1053 C1054 1.366 . S
C1053 C1055 1.388 . S
C1054 C1053 1.366 . S
C1054 C1058 1.385 . S
C1055 H1030 0.951 . S
C1055 C1053 1.388 . S
C1055 C1056 1.366 . S
C1056 C1055 1.366 . S
C1056 C1057 1.414 . S
C1056 C1059 1.499 . S
C1057 H1031 0.950 . S
C1057 C1056 1.414 . S
C1057 C1058 1.374 . S
C1058 H1032 0.950 . S
C1058 C1054 1.385 . S
C1058 C1057 1.374 . S
C1059 C1056 1.499 . S
C1059 C1060 1.373 . S
C1059 C1061 1.389 . S
C1060 H1033 0.950 . S
C1060 C1046 1.377 . S
C1060 C1059 1.373 . S
C1061 C1045 1.377 . S
C1061 C1059 1.389 . S
C1061 C1062 1.524 . S
C1062 C1061 1.524 . S
C1062 C1063 1.397 . S
C1062 C1067 1.363 . S
C1063 H1034 0.950 . S
C1063 C1062 1.397 . S
C1063 C1064 1.334 . S
C1064 H1035 0.950 . S
C1064 C1063 1.334 . S
C1064 C1065 1.287 . S
C1065 C1064 1.287 . S
C1065 C1066 1.524 . S
C1065 H1068 0.999 . S
C1066 H1036 0.950 . S
C1066 C1065 1.524 . S
C1066 C1067 1.415 . S
C1067 H1037 0.950 . S
C1067 C1062 1.363 . S
C1067 C1066 1.415 . S
H1068 C1065 0.999 . S
H1069 C1050 0.913 . S
H1070 C1088 0.951 . S
H1071 C1090 0.951 . S
H1072 C1092 0.950 . S
H1073 C1093 0.950 . S
H1074 C1095 0.950 . S
H1075 C1098 0.950 . S
H1076 C1099 0.950 . S
H1077 C1101 0.950 . S
H1078 C1102 0.950 . S
H1079 C1103 0.951 . S
H1080 C1105 0.951 . S
H1081 C1107 0.950 . S
H1082 C1108 0.950 . S
H1083 C1110 0.950 . S
H1084 C1113 0.950 . S
H1085 C1114 0.950 . S
H1086 C1116 0.950 . S
H1087 C1117 0.950 . S
C1088 H1070 0.951 . S
C1088 C1089 1.366 . S
C1088 C1090 1.388 . S
C1089 C1088 1.366 . S
C1089 C1093 1.385 . S
C1090 H1071 0.951 . S
C1090 C1088 1.388 . S
C1090 C1091 1.366 . S
C1091 C1090 1.366 . S
C1091 C1092 1.414 . S
C1091 C1094 1.499 . S
C1092 H1072 0.950 . S
C1092 C1091 1.414 . S
C1092 C1093 1.374 . S
C1093 H1073 0.950 . S
C1093 C1089 1.385 . S
C1093 C1092 1.374 . S
C1094 C1091 1.499 . S
C1094 C1095 1.373 . S
C1094 C1096 1.389 . S
C1095 H1074 0.950 . S
C1095 C1094 1.373 . S
C1095 C1111 1.377 . S
C1096 C1094 1.389 . S
C1096 C1097 1.524 . S
C1096 C1110 1.377 . S
C1097 C1096 1.524 . S
C1097 C1098 1.397 . S
C1097 C1102 1.363 . S
C1098 H1075 0.950 . S
C1098 C1097 1.397 . S
C1098 C1099 1.334 . S
C1099 H1076 0.950 . S
C1099 C1098 1.334 . S
C1099 C1100 1.287 . S
C1100 C1099 1.287 . S
C1100 C1101 1.524 . S
C1100 H1119 0.913 . S
C1101 H1077 0.950 . S
C1101 C1100 1.524 . S
C1101 C1102 1.415 . S
C1102 H1078 0.950 . S
C1102 C1097 1.363 . S
C1102 C1101 1.415 . S
C1103 H1079 0.951 . S
C1103 C1104 1.366 . S
C1103 C1105 1.388 . S
C1104 C1103 1.366 . S
C1104 C1108 1.385 . S
C1105 H1080 0.951 . S
C1105 C1103 1.388 . S
C1105 C1106 1.366 . S
C1106 C1105 1.366 . S
C1106 C1107 1.414 . S
C1106 C1109 1.499 . S
C1107 H1081 0.950 . S
C1107 C1106 1.414 . S
C1107 C1108 1.374 . S
C1108 H1082 0.950 . S
C1108 C1104 1.385 . S
C1108 C1107 1.374 . S
C1109 C1106 1.499 . S
C1109 C1110 1.373 . S
C1109 C1111 1.389 . S
C1110 H1083 0.950 . S
C1110 C1096 1.377 . S
C1110 C1109 1.373 . S
C1111 C1095 1.377 . S
C1111 C1109 1.389 . S
C1111 C1112 1.524 . S
C1112 C1111 1.524 . S
C1112 C1113 1.397 . S
C1112 C1117 1.363 . S
C1113 H1084 0.950 . S
C1113 C1112 1.397 . S
C1113 C1114 1.334 . S
C1114 H1085 0.950 . S
C1114 C1113 1.334 . S
C1114 C1115 1.287 . S
C1115 C1114 1.287 . S
C1115 C1116 1.524 . S
C1115 H1118 0.999 . S
C1116 H1086 0.950 . S
C1116 C1115 1.524 . S
C1116 C1117 1.415 . S
C1117 H1087 0.950 . S
C1117 C1112 1.363 . S
C1117 C1116 1.415 . S
H1118 C1115 0.999 . S
H1119 C1100 0.913 . S
H1120 C1138 0.951 1_655 S
H1121 C1140 0.955 . S
H1122 C1142 0.950 . S
H1123 C1143 0.950 . S
H1124 C1145 0.950 . S
H1125 C1148 0.950 . S
H1126 C1149 0.950 . S
H1127 C1151 0.950 . S
H1128 C1152 0.950 1_655 S
H1129 C1153 0.951 1_455 S
H1130 C1155 0.954 . S
H1131 C1157 0.950 . S
H1132 C1158 0.950 . S
H1133 C1160 0.950 . S
H1134 C1163 0.950 . S
H1135 C1164 0.950 . S
H1136 C1166 0.950 . S
H1137 C1167 0.950 1_455 S
C1138 H1120 0.951 1_455 S
C1138 C1139 1.366 . S
C1138 C1140 1.387 1_455 S
C1139 C1138 1.366 . S
C1139 C1143 1.385 . S
C1140 H1121 0.955 . S
C1140 C1138 1.387 1_655 S
C1140 C1141 1.362 1_655 S
C1141 C1140 1.362 1_455 S
C1141 C1142 1.414 . S
C1141 C1144 1.499 . S
C1142 H1122 0.950 . S
C1142 C1141 1.414 . S
C1142 C1143 1.374 . S
C1143 H1123 0.950 . S
C1143 C1139 1.385 . S
C1143 C1142 1.374 . S
C1144 C1141 1.499 . S
C1144 C1145 1.375 . S
C1144 C1146 1.389 . S
C1145 H1124 0.950 . S
C1145 C1144 1.375 . S
C1145 C1161 1.375 1_455 S
C1146 C1144 1.389 . S
C1146 C1147 1.524 . S
C1146 C1160 1.375 1_455 S
C1147 C1146 1.524 . S
C1147 C1148 1.397 . S
C1147 C1152 1.363 . S
C1148 H1125 0.950 . S
C1148 C1147 1.397 . S
C1148 C1149 1.334 . S
C1149 H1126 0.950 . S
C1149 C1148 1.334 . S
C1149 C1150 1.287 . S
C1150 C1149 1.287 . S
C1150 C1151 1.524 . S
C1150 H1169 0.913 . S
C1151 H1127 0.950 . S
C1151 C1150 1.524 . S
C1151 C1152 1.415 . S
C1152 H1128 0.950 1_455 S
C1152 C1147 1.363 . S
C1152 C1151 1.415 . S
C1153 H1129 0.951 1_655 S
C1153 C1154 1.366 . S
C1153 C1155 1.387 1_655 S
C1154 C1153 1.366 . S
C1154 C1158 1.385 . S
C1155 H1130 0.954 . S
C1155 C1153 1.387 1_455 S
C1155 C1156 1.363 1_455 S
C1156 C1155 1.363 1_655 S
C1156 C1157 1.414 . S
C1156 C1159 1.499 . S
C1157 H1131 0.950 . S
C1157 C1156 1.414 . S
C1157 C1158 1.374 . S
C1158 H1132 0.950 . S
C1158 C1154 1.385 . S
C1158 C1157 1.374 . S
C1159 C1156 1.499 . S
C1159 C1160 1.376 . S
C1159 C1161 1.389 . S
C1160 H1133 0.950 . S
C1160 C1146 1.375 1_655 S
C1160 C1159 1.376 . S
C1161 C1145 1.375 1_655 S
C1161 C1159 1.389 . S
C1161 C1162 1.524 . S
C1162 C1161 1.524 . S
C1162 C1163 1.397 . S
C1162 C1167 1.363 . S
C1163 H1134 0.950 . S
C1163 C1162 1.397 . S
C1163 C1164 1.334 . S
C1164 H1135 0.950 . S
C1164 C1163 1.334 . S
C1164 C1165 1.287 . S
C1165 C1164 1.287 . S
C1165 C1166 1.524 . S
C1165 H1168 0.999 . S
C1166 H1136 0.950 . S
C1166 C1165 1.524 . S
C1166 C1167 1.415 . S
C1167 H1137 0.950 1_655 S
C1167 C1162 1.363 . S
C1167 C1166 1.415 . S
H1168 C1165 0.999 . S
H1169 C1150 0.913 . S
H1170 C1188 0.951 . S
H1171 C1190 0.951 . S
H1172 C1192 0.950 . S
H1173 C1193 0.950 . S
H1174 C1195 0.950 . S
H1175 C1198 0.950 . S
H1176 C1199 0.958 . S
H1177 C1201 0.950 . S
H1178 C1202 0.950 . S
H1179 C1203 0.951 . S
H1180 C1205 0.951 . S
H1181 C1207 0.950 . S
H1182 C1208 0.950 . S
H1183 C1210 0.950 . S
H1184 C1213 0.950 . S
H1185 C1214 0.957 . S
H1186 C1216 0.950 . S
H1187 C1217 0.950 . S
C1188 H1170 0.951 . S
C1188 C1189 1.366 . S
C1188 C1190 1.388 . S
C1189 C1188 1.366 . S
C1189 C1193 1.385 1_655 S
C1190 H1171 0.951 . S
C1190 C1188 1.388 . S
C1190 C1191 1.366 . S
C1191 C1190 1.366 . S
C1191 C1192 1.414 1_655 S
C1191 C1194 1.499 . S
C1192 H1172 0.950 . S
C1192 C1191 1.414 1_455 S
C1192 C1193 1.374 . S
C1193 H1173 0.950 . S
C1193 C1189 1.385 1_455 S
C1193 C1192 1.374 . S
C1194 C1191 1.499 . S
C1194 C1195 1.373 1_655 S
C1194 C1196 1.389 . S
C1195 H1174 0.950 . S
C1195 C1194 1.373 1_455 S
C1195 C1211 1.377 . S
C1196 C1194 1.389 . S
C1196 C1197 1.524 . S
C1196 C1210 1.377 . S
C1197 C1196 1.524 . S
C1197 C1198 1.397 1_655 S
C1197 C1202 1.363 . S
C1198 H1175 0.950 . S
C1198 C1197 1.397 1_455 S
C1198 C1199 1.336 . S
C1199 H1176 0.958 . S
C1199 C1198 1.336 . S
C1199 C1200 1.277 1_455 S
C1200 C1199 1.277 1_655 S
C1200 C1201 1.524 . S
C1200 H1219 0.913 . S
C1201 H1177 0.950 . S
C1201 C1200 1.524 . S
C1201 C1202 1.415 . S
C1202 H1178 0.950 . S
C1202 C1197 1.363 . S
C1202 C1201 1.415 . S
C1203 H1179 0.951 . S
C1203 C1204 1.366 . S
C1203 C1205 1.388 . S
C1204 C1203 1.366 . S
C1204 C1208 1.385 1_455 S
C1205 H1180 0.951 . S
C1205 C1203 1.388 . S
C1205 C1206 1.366 . S
C1206 C1205 1.366 . S
C1206 C1207 1.414 1_455 S
C1206 C1209 1.499 . S
C1207 H1181 0.950 . S
C1207 C1206 1.414 1_655 S
C1207 C1208 1.374 . S
C1208 H1182 0.950 . S
C1208 C1204 1.385 1_655 S
C1208 C1207 1.374 . S
C1209 C1206 1.499 . S
C1209 C1210 1.373 1_455 S
C1209 C1211 1.389 . S
C1210 H1183 0.950 . S
C1210 C1196 1.377 . S
C1210 C1209 1.373 1_655 S
C1211 C1195 1.377 . S
C1211 C1209 1.389 . S
C1211 C1212 1.524 . S
C1212 C1211 1.524 . S
C1212 C1213 1.397 1_455 S
C1212 C1217 1.363 . S
C1213 H1184 0.950 . S
C1213 C1212 1.397 1_655 S
C1213 C1214 1.336 . S
C1214 H1185 0.957 . S
C1214 C1213 1.336 . S
C1214 C1215 1.278 1_655 S
C1215 C1214 1.278 1_455 S
C1215 C1216 1.524 . S
C1215 H1218 0.999 . S
C1216 H1186 0.950 . S
C1216 C1215 1.524 . S
C1216 C1217 1.415 . S
C1217 H1187 0.950 . S
C1217 C1212 1.363 . S
C1217 C1216 1.415 . S
H1218 C1215 0.999 . S
H1219 C1200 0.913 . S
H1220 C1238 0.951 1_455 S
H1221 C1240 0.951 . S
H1222 C1242 0.950 . S
H1223 C1243 0.950 . S
H1224 C1245 0.950 . S
H1225 C1248 0.950 . S
H1226 C1249 0.950 . S
H1227 C1251 0.950 . S
H1228 C1252 0.950 . S
H1229 C1253 0.951 1_655 S
H1230 C1255 0.951 . S
H1231 C1257 0.950 . S
H1232 C1258 0.950 . S
H1233 C1260 0.950 . S
H1234 C1263 0.950 . S
H1235 C1264 0.950 . S
H1236 C1266 0.950 . S
H1237 C1267 0.950 . S
C1238 H1220 0.951 1_655 S
C1238 C1239 1.366 . S
C1238 C1240 1.388 1_655 S
C1239 C1238 1.366 . S
C1239 C1243 1.385 . S
C1240 H1221 0.951 . S
C1240 C1238 1.388 1_455 S
C1240 C1241 1.366 1_455 S
C1241 C1240 1.366 1_655 S
C1241 C1242 1.414 . S
C1241 C1244 1.499 . S
C1242 H1222 0.950 . S
C1242 C1241 1.414 . S
C1242 C1243 1.374 . S
C1243 H1223 0.950 . S
C1243 C1239 1.385 . S
C1243 C1242 1.374 . S
C1244 C1241 1.499 . S
C1244 C1245 1.373 . S
C1244 C1246 1.389 . S
C1245 H1224 0.950 . S
C1245 C1244 1.373 . S
C1245 C1261 1.377 1_655 S
C1246 C1244 1.389 . S
C1246 C1247 1.524 . S
C1246 C1260 1.377 1_655 S
C1247 C1246 1.524 . S
C1247 C1248 1.397 . S
C1247 C1252 1.363 1_655 S
C1248 H1225 0.950 . S
C1248 C1247 1.397 . S
C1248 C1249 1.334 . S
C1249 H1226 0.950 . S
C1249 C1248 1.334 . S
C1249 C1250 1.287 . S
C1250 C1249 1.287 . S
C1250 C1251 1.524 1_655 S
C1250 H1269 0.913 . S
C1251 H1227 0.950 . S
C1251 C1250 1.524 1_455 S
C1251 C1252 1.415 . S
C1252 H1228 0.950 . S
C1252 C1247 1.363 1_455 S
C1252 C1251 1.415 . S
C1253 H1229 0.951 1_455 S
C1253 C1254 1.366 . S
C1253 C1255 1.388 1_455 S
C1254 C1253 1.366 . S
C1254 C1258 1.385 . S
C1255 H1230 0.951 . S
C1255 C1253 1.388 1_655 S
C1255 C1256 1.366 1_655 S
C1256 C1255 1.366 1_455 S
C1256 C1257 1.414 . S
C1256 C1259 1.499 . S
C1257 H1231 0.950 . S
C1257 C1256 1.414 . S
C1257 C1258 1.374 . S
C1258 H1232 0.950 . S
C1258 C1254 1.385 . S
C1258 C1257 1.374 . S
C1259 C1256 1.499 . S
C1259 C1260 1.373 . S
C1259 C1261 1.389 . S
C1260 H1233 0.950 . S
C1260 C1246 1.377 1_455 S
C1260 C1259 1.373 . S
C1261 C1245 1.377 1_455 S
C1261 C1259 1.389 . S
C1261 C1262 1.524 . S
C1262 C1261 1.524 . S
C1262 C1263 1.397 . S
C1262 C1267 1.363 1_455 S
C1263 H1234 0.950 . S
C1263 C1262 1.397 . S
C1263 C1264 1.334 . S
C1264 H1235 0.950 . S
C1264 C1263 1.334 . S
C1264 C1265 1.287 . S
C1265 C1264 1.287 . S
C1265 C1266 1.524 1_455 S
C1265 H1268 0.999 . S
C1266 H1236 0.950 . S
C1266 C1265 1.524 1_655 S
C1266 C1267 1.415 . S
C1267 H1237 0.950 . S
C1267 C1262 1.363 1_655 S
C1267 C1266 1.415 . S
H1268 C1265 0.999 . S
H1269 C1250 0.913 . S
H1270 C1288 0.951 . S
H1271 C1290 0.951 . S
H1272 C1292 0.950 1_455 S
H1273 C1293 0.950 . S
H1274 C1295 0.950 . S
H1275 C1298 0.950 . S
H1276 C1299 0.950 . S
H1277 C1301 0.950 . S
H1278 C1302 0.950 . S
H1279 C1303 0.951 . S
H1280 C1305 0.951 . S
H1281 C1307 0.950 1_655 S
H1282 C1308 0.950 . S
H1283 C1310 0.950 . S
H1284 C1313 0.950 . S
H1285 C1314 0.950 . S
H1286 C1316 0.950 . S
H1287 C1317 0.950 . S
C1288 H1270 0.951 . S
C1288 C1289 1.366 . S
C1288 C1290 1.388 . S
C1289 C1288 1.366 . S
C1289 C1293 1.385 . S
C1290 H1271 0.951 . S
C1290 C1288 1.388 . S
C1290 C1291 1.366 . S
C1291 C1290 1.366 . S
C1291 C1292 1.414 . S
C1291 C1294 1.499 . S
C1292 H1272 0.950 1_655 S
C1292 C1291 1.414 . S
C1292 C1293 1.374 . S
C1293 H1273 0.950 . S
C1293 C1289 1.385 . S
C1293 C1292 1.374 . S
C1294 C1291 1.499 . S
C1294 C1295 1.373 1_655 S
C1294 C1296 1.389 . S
C1295 H1274 0.950 . S
C1295 C1294 1.373 1_455 S
C1295 C1311 1.377 . S
C1296 C1294 1.389 . S
C1296 C1297 1.524 . S
C1296 C1310 1.377 . S
C1297 C1296 1.524 . S
C1297 C1298 1.397 . S
C1297 C1302 1.363 . S
C1298 H1275 0.950 . S
C1298 C1297 1.397 . S
C1298 C1299 1.334 . S
C1299 H1276 0.950 . S
C1299 C1298 1.334 . S
C1299 C1300 1.287 . S
C1300 C1299 1.287 . S
C1300 C1301 1.524 . S
C1300 H1319 0.913 . S
C1301 H1277 0.950 . S
C1301 C1300 1.524 . S
C1301 C1302 1.415 . S
C1302 H1278 0.950 . S
C1302 C1297 1.363 . S
C1302 C1301 1.415 . S
C1303 H1279 0.951 . S
C1303 C1304 1.366 . S
C1303 C1305 1.388 . S
C1304 C1303 1.366 . S
C1304 C1308 1.385 . S
C1305 H1280 0.951 . S
C1305 C1303 1.388 . S
C1305 C1306 1.366 . S
C1306 C1305 1.366 . S
C1306 C1307 1.414 . S
C1306 C1309 1.499 . S
C1307 H1281 0.950 1_455 S
C1307 C1306 1.414 . S
C1307 C1308 1.374 . S
C1308 H1282 0.950 . S
C1308 C1304 1.385 . S
C1308 C1307 1.374 . S
C1309 C1306 1.499 . S
C1309 C1310 1.373 1_455 S
C1309 C1311 1.389 . S
C1310 H1283 0.950 . S
C1310 C1296 1.377 . S
C1310 C1309 1.373 1_655 S
C1311 C1295 1.377 . S
C1311 C1309 1.389 . S
C1311 C1312 1.524 . S
C1312 C1311 1.524 . S
C1312 C1313 1.397 . S
C1312 C1317 1.363 . S
C1313 H1284 0.950 . S
C1313 C1312 1.397 . S
C1313 C1314 1.334 . S
C1314 H1285 0.950 . S
C1314 C1313 1.334 . S
C1314 C1315 1.287 . S
C1315 C1314 1.287 . S
C1315 C1316 1.524 . S
C1315 H1318 0.999 . S
C1316 H1286 0.950 . S
C1316 C1315 1.524 . S
C1316 C1317 1.415 . S
C1317 H1287 0.950 . S
C1317 C1312 1.363 . S
C1317 C1316 1.415 . S
H1318 C1315 0.999 . S
H1319 C1300 0.913 . S
H1320 C1338 0.951 . S
H1321 C1340 0.951 . S
H1322 C1342 0.950 . S
H1323 C1343 0.950 . S
H1324 C1345 0.950 . S
H1325 C1348 0.950 . S
H1326 C1349 0.950 . S
H1327 C1351 0.950 . S
H1328 C1352 0.950 . S
H1329 C1353 0.951 . S
H1330 C1355 0.951 . S
H1331 C1357 0.950 . S
H1332 C1358 0.950 . S
H1333 C1360 0.950 . S
H1334 C1363 0.950 . S
H1335 C1364 0.950 . S
H1336 C1366 0.950 . S
H1337 C1367 0.950 . S
C1338 H1320 0.951 . S
C1338 C1339 1.366 . S
C1338 C1340 1.388 . S
C1339 C1338 1.366 . S
C1339 C1343 1.385 . S
C1340 H1321 0.951 . S
C1340 C1338 1.388 . S
C1340 C1341 1.366 . S
C1341 C1340 1.366 . S
C1341 C1342 1.414 . S
C1341 C1344 1.499 . S
C1342 H1322 0.950 . S
C1342 C1341 1.414 . S
C1342 C1343 1.374 . S
C1343 H1323 0.950 . S
C1343 C1339 1.385 . S
C1343 C1342 1.374 . S
C1344 C1341 1.499 . S
C1344 C1345 1.373 . S
C1344 C1346 1.389 . S
C1345 H1324 0.950 . S
C1345 C1344 1.373 . S
C1345 C1361 1.377 . S
C1346 C1344 1.389 . S
C1346 C1347 1.524 . S
C1346 C1360 1.377 . S
C1347 C1346 1.524 . S
C1347 C1348 1.397 . S
C1347 C1352 1.363 . S
C1348 H1325 0.950 . S
C1348 C1347 1.397 . S
C1348 C1349 1.334 . S
C1349 H1326 0.950 . S
C1349 C1348 1.334 . S
C1349 C1350 1.287 . S
C1350 C1349 1.287 . S
C1350 C1351 1.524 . S
C1350 H1369 0.913 . S
C1351 H1327 0.950 . S
C1351 C1350 1.524 . S
C1351 C1352 1.415 . S
C1352 H1328 0.950 . S
C1352 C1347 1.363 . S
C1352 C1351 1.415 . S
C1353 H1329 0.951 . S
C1353 C1354 1.366 . S
C1353 C1355 1.388 . S
C1354 C1353 1.366 . S
C1354 C1358 1.385 . S
C1355 H1330 0.951 . S
C1355 C1353 1.388 . S
C1355 C1356 1.366 . S
C1356 C1355 1.366 . S
C1356 C1357 1.414 . S
C1356 C1359 1.499 . S
C1357 H1331 0.950 . S
C1357 C1356 1.414 . S
C1357 C1358 1.374 . S
C1358 H1332 0.950 . S
C1358 C1354 1.385 . S
C1358 C1357 1.374 . S
C1359 C1356 1.499 . S
C1359 C1360 1.373 . S
C1359 C1361 1.389 . S
C1360 H1333 0.950 . S
C1360 C1346 1.377 . S
C1360 C1359 1.373 . S
C1361 C1345 1.377 . S
C1361 C1359 1.389 . S
C1361 C1362 1.524 . S
C1362 C1361 1.524 . S
C1362 C1363 1.397 . S
C1362 C1367 1.363 . S
C1363 H1334 0.950 . S
C1363 C1362 1.397 . S
C1363 C1364 1.334 . S
C1364 H1335 0.950 . S
C1364 C1363 1.334 . S
C1364 C1365 1.287 . S
C1365 C1364 1.287 . S
C1365 C1366 1.524 . S
C1365 H1368 0.999 . S
C1366 H1336 0.950 . S
C1366 C1365 1.524 . S
C1366 C1367 1.415 . S
C1367 H1337 0.950 . S
C1367 C1362 1.363 . S
C1367 C1366 1.415 . S
H1368 C1365 0.999 . S
H1369 C1350 0.913 . S
H1370 C1388 0.951 . S
H1371 C1390 0.951 . S
H1372 C1392 0.950 . S
H1373 C1393 0.950 . S
H1374 C1395 0.950 . S
H1375 C1398 0.950 . S
H1376 C1399 0.950 . S
H1377 C1401 0.950 . S
H1378 C1402 0.950 . S
H1379 C1403 0.951 . S
H1380 C1405 0.951 . S
H1381 C1407 0.950 . S
H1382 C1408 0.950 . S
H1383 C1410 0.950 . S
H1384 C1413 0.950 . S
H1385 C1414 0.950 . S
H1386 C1416 0.950 . S
H1387 C1417 0.950 . S
C1388 H1370 0.951 . S
C1388 C1389 1.366 . S
C1388 C1390 1.388 . S
C1389 C1388 1.366 . S
C1389 C1393 1.385 . S
C1390 H1371 0.951 . S
C1390 C1388 1.388 . S
C1390 C1391 1.366 . S
C1391 C1390 1.366 . S
C1391 C1392 1.414 . S
C1391 C1394 1.499 . S
C1392 H1372 0.950 . S
C1392 C1391 1.414 . S
C1392 C1393 1.374 . S
C1393 H1373 0.950 . S
C1393 C1389 1.385 . S
C1393 C1392 1.374 . S
C1394 C1391 1.499 . S
C1394 C1395 1.373 . S
C1394 C1396 1.389 . S
C1395 H1374 0.950 . S
C1395 C1394 1.373 . S
C1395 C1411 1.377 . S
C1396 C1394 1.389 . S
C1396 C1397 1.524 . S
C1396 C1410 1.377 . S
C1397 C1396 1.524 . S
C1397 C1398 1.397 . S
C1397 C1402 1.363 . S
C1398 H1375 0.950 . S
C1398 C1397 1.397 . S
C1398 C1399 1.334 . S
C1399 H1376 0.950 . S
C1399 C1398 1.334 . S
C1399 C1400 1.287 . S
C1400 C1399 1.287 . S
C1400 C1401 1.524 . S
C1400 H1419 0.913 . S
C1401 H1377 0.950 . S
C1401 C1400 1.524 . S
C1401 C1402 1.415 . S
C1402 H1378 0.950 . S
C1402 C1397 1.363 . S
C1402 C1401 1.415 . S
C1403 H1379 0.951 . S
C1403 C1404 1.366 . S
C1403 C1405 1.388 . S
C1404 C1403 1.366 . S
C1404 C1408 1.385 . S
C1405 H1380 0.951 . S
C1405 C1403 1.388 . S
C1405 C1406 1.366 . S
C1406 C1405 1.366 . S
C1406 C1407 1.414 . S
C1406 C1409 1.499 . S
C1407 H1381 0.950 . S
C1407 C1406 1.414 . S
C1407 C1408 1.374 . S
C1408 H1382 0.950 . S
C1408 C1404 1.385 . S
C1408 C1407 1.374 . S
C1409 C1406 1.499 . S
C1409 C1410 1.373 . S
C1409 C1411 1.389 . S
C1410 H1383 0.950 . S
C1410 C1396 1.377 . S
C1410 C1409 1.373 . S
C1411 C1395 1.377 . S
C1411 C1409 1.389 . S
C1411 C1412 1.524 . S
C1412 C1411 1.524 . S
C1412 C1413 1.397 . S
C1412 C1417 1.363 . S
C1413 H1384 0.950 . S
C1413 C1412 1.397 . S
C1413 C1414 1.334 . S
C1414 H1385 0.950 . S
C1414 C1413 1.334 . S
C1414 C1415 1.287 . S
C1415 C1414 1.287 . S
C1415 C1416 1.524 . S
C1415 H1418 0.999 . S
C1416 H1386 0.950 . S
C1416 C1415 1.524 . S
C1416 C1417 1.415 . S
C1417 H1387 0.950 . S
C1417 C1412 1.363 . S
C1417 C1416 1.415 . S
H1418 C1415 0.999 . S
H1419 C1400 0.913 . S
H1420 C1438 0.951 . S
H1421 C1440 0.951 . S
H1422 C1442 0.950 . S
H1423 C1443 0.950 . S
H1424 C1445 0.950 . S
H1425 C1448 0.950 . S
H1426 C1449 0.950 . S
H1427 C1451 0.950 . S
H1428 C1452 0.950 . S
H1429 C1453 0.951 . S
H1430 C1455 0.951 . S
H1431 C1457 0.950 . S
H1432 C1458 0.950 . S
H1433 C1460 0.950 . S
H1434 C1463 0.950 . S
H1435 C1464 0.950 . S
H1436 C1466 0.950 . S
H1437 C1467 0.950 . S
C1438 H1420 0.951 . S
C1438 C1439 1.366 . S
C1438 C1440 1.388 . S
C1439 C1438 1.366 . S
C1439 C1443 1.385 . S
C1440 H1421 0.951 . S
C1440 C1438 1.388 . S
C1440 C1441 1.366 . S
C1441 C1440 1.366 . S
C1441 C1442 1.414 . S
C1441 C1444 1.499 . S
C1442 H1422 0.950 . S
C1442 C1441 1.414 . S
C1442 C1443 1.374 . S
C1443 H1423 0.950 . S
C1443 C1439 1.385 . S
C1443 C1442 1.374 . S
C1444 C1441 1.499 . S
C1444 C1445 1.373 . S
C1444 C1446 1.389 . S
C1445 H1424 0.950 . S
C1445 C1444 1.373 . S
C1445 C1461 1.377 . S
C1446 C1444 1.389 . S
C1446 C1447 1.524 . S
C1446 C1460 1.377 . S
C1447 C1446 1.524 . S
C1447 C1448 1.397 . S
C1447 C1452 1.363 . S
C1448 H1425 0.950 . S
C1448 C1447 1.397 . S
C1448 C1449 1.334 . S
C1449 H1426 0.950 . S
C1449 C1448 1.334 . S
C1449 C1450 1.287 . S
C1450 C1449 1.287 . S
C1450 C1451 1.524 . S
C1450 H1469 0.913 . S
C1451 H1427 0.950 . S
C1451 C1450 1.524 . S
C1451 C1452 1.415 . S
C1452 H1428 0.950 . S
C1452 C1447 1.363 . S
C1452 C1451 1.415 . S
C1453 H1429 0.951 . S
C1453 C1454 1.366 . S
C1453 C1455 1.388 . S
C1454 C1453 1.366 . S
C1454 C1458 1.385 . S
C1455 H1430 0.951 . S
C1455 C1453 1.388 . S
C1455 C1456 1.366 . S
C1456 C1455 1.366 . S
C1456 C1457 1.414 . S
C1456 C1459 1.499 . S
C1457 H1431 0.950 . S
C1457 C1456 1.414 . S
C1457 C1458 1.374 . S
C1458 H1432 0.950 . S
C1458 C1454 1.385 . S
C1458 C1457 1.374 . S
C1459 C1456 1.499 . S
C1459 C1460 1.373 . S
C1459 C1461 1.389 . S
C1460 H1433 0.950 . S
C1460 C1446 1.377 . S
C1460 C1459 1.373 . S
C1461 C1445 1.377 . S
C1461 C1459 1.389 . S
C1461 C1462 1.524 . S
C1462 C1461 1.524 . S
C1462 C1463 1.397 . S
C1462 C1467 1.363 . S
C1463 H1434 0.950 . S
C1463 C1462 1.397 . S
C1463 C1464 1.334 . S
C1464 H1435 0.950 . S
C1464 C1463 1.334 . S
C1464 C1465 1.287 . S
C1465 C1464 1.287 . S
C1465 C1466 1.524 . S
C1465 H1468 0.999 . S
C1466 H1436 0.950 . S
C1466 C1465 1.524 . S
C1466 C1467 1.415 . S
C1467 H1437 0.950 . S
C1467 C1462 1.363 . S
C1467 C1466 1.415 . S
H1468 C1465 0.999 . S
H1469 C1450 0.913 . S
H1470 C1488 0.951 . S
H1471 C1490 0.951 . S
H1472 C1492 0.950 . S
H1473 C1493 0.950 . S
H1474 C1495 0.950 . S
H1475 C1498 0.950 . S
H1476 C1499 0.950 . S
H1477 C1501 0.950 . S
H1478 C1502 0.950 . S
H1479 C1503 0.951 . S
H1480 C1505 0.951 . S
H1481 C1507 0.950 . S
H1482 C1508 0.950 . S
H1483 C1510 0.950 . S
H1484 C1513 0.950 . S
H1485 C1514 0.950 . S
H1486 C1516 0.950 . S
H1487 C1517 0.950 . S
C1488 H1470 0.951 . S
C1488 C1489 1.366 . S
C1488 C1490 1.388 . S
C1489 C1488 1.366 . S
C1489 C1493 1.385 . S
C1490 H1471 0.951 . S
C1490 C1488 1.388 . S
C1490 C1491 1.366 . S
C1491 C1490 1.366 . S
C1491 C1492 1.414 . S
C1491 C1494 1.499 . S
C1492 H1472 0.950 . S
C1492 C1491 1.414 . S
C1492 C1493 1.374 . S
C1493 H1473 0.950 . S
C1493 C1489 1.385 . S
C1493 C1492 1.374 . S
C1494 C1491 1.499 . S
C1494 C1495 1.373 . S
C1494 C1496 1.389 . S
C1495 H1474 0.950 . S
C1495 C1494 1.373 . S
C1495 C1511 1.377 . S
C1496 C1494 1.389 . S
C1496 C1497 1.524 . S
C1496 C1510 1.377 . S
C1497 C1496 1.524 . S
C1497 C1498 1.397 . S
C1497 C1502 1.363 . S
C1498 H1475 0.950 . S
C1498 C1497 1.397 . S
C1498 C1499 1.334 . S
C1499 H1476 0.950 . S
C1499 C1498 1.334 . S
C1499 C1500 1.287 . S
C1500 C1499 1.287 . S
C1500 C1501 1.524 . S
C1500 H1519 0.913 . S
C1501 H1477 0.950 . S
C1501 C1500 1.524 . S
C1501 C1502 1.415 . S
C1502 H1478 0.950 . S
C1502 C1497 1.363 . S
C1502 C1501 1.415 . S
C1503 H1479 0.951 . S
C1503 C1504 1.366 . S
C1503 C1505 1.388 . S
C1504 C1503 1.366 . S
C1504 C1508 1.385 . S
C1505 H1480 0.951 . S
C1505 C1503 1.388 . S
C1505 C1506 1.366 . S
C1506 C1505 1.366 . S
C1506 C1507 1.414 . S
C1506 C1509 1.499 . S
C1507 H1481 0.950 . S
C1507 C1506 1.414 . S
C1507 C1508 1.374 . S
C1508 H1482 0.950 . S
C1508 C1504 1.385 . S
C1508 C1507 1.374 . S
C1509 C1506 1.499 . S
C1509 C1510 1.373 . S
C1509 C1511 1.389 . S
C1510 H1483 0.950 . S
C1510 C1496 1.377 . S
C1510 C1509 1.373 . S
C1511 C1495 1.377 . S
C1511 C1509 1.389 . S
C1511 C1512 1.524 . S
C1512 C1511 1.524 . S
C1512 C1513 1.397 . S
C1512 C1517 1.363 . S
C1513 H1484 0.950 . S
C1513 C1512 1.397 . S
C1513 C1514 1.334 . S
C1514 H1485 0.950 . S
C1514 C1513 1.334 . S
C1514 C1515 1.287 . S
C1515 C1514 1.287 . S
C1515 C1516 1.524 . S
C1515 H1518 0.999 . S
C1516 H1486 0.950 . S
C1516 C1515 1.524 . S
C1516 C1517 1.415 . S
C1517 H1487 0.950 . S
C1517 C1512 1.363 . S
C1517 C1516 1.415 . S
H1518 C1515 0.999 . S
H1519 C1500 0.913 . S
C339 C19 2.340 . S
C354 C10 2.340 . S
C389 C59 2.340 . S
C404 C50 2.340 . S
C439 C99 2.339 . S
C454 C90 2.339 . S
C489 C139 2.339 . S
C504 C130 2.339 . S
C539 C179 2.339 . S
C554 C170 2.339 . S
C589 C210 2.340 . S
C604 C219 2.340 . S
C639 C259 2.340 . S
C654 C250 2.340 . S
C689 C290 2.340 . S
C704 C299 2.340 . S
C739 C55 2.464 . S
C754 C6 2.464 . S
C789 C126 2.463 . S
C804 C95 2.463 . S
C839 C166 2.463 . S
C854 C215 2.463 . S
C889 C255 2.463 . S
C904 C286 2.463 . S
C939 C15 1.743 . S
C954 C206 1.743 . S
C989 C175 1.742 . S
C1004 C46 1.742 . S
C1039 C86 1.742 . S
C1054 C295 1.742 . S
C1089 C135 1.743 . S
C1104 C246 1.743 . S
C1139 C9 1.466 . S
C1154 C129 1.465 . S
C1189 C49 1.605 . S
C1204 C89 1.604 . S
C1239 C58 1.465 . S
C1254 C98 1.466 . S
C1289 C138 1.604 . S
C1304 C18 1.604 . S
C1339 C169 1.465 . S
C1354 C289 1.466 . S
C1389 C209 1.605 . S
C1404 C249 1.605 . S
C1439 C218 1.465 . S
C1454 C258 1.466 . S
C1489 C298 1.605 . S
C1504 C178 1.604 . S
