# Generated by pormake.
# Topology ums, (4)-cn, num edge types: 1
# Building blocks:
#     Node 0, Type 0, BuildingBlock: NAHDIM_clean_sbu_0, # of connection points: 4
#     Node 1, Type 0, BuildingBlock: NAHDIM_clean_sbu_0, # of connection points: 4
#     Node 2, Type 0, BuildingBlock: NAHDIM_clean_sbu_0, # of connection points: 4
#     Node 3, Type 0, BuildingBlock: NAHDIM_clean_sbu_0, # of connection points: 4
#     Node 4, Type 0, BuildingBlock: NAHDIM_clean_sbu_0, # of connection points: 4
#     Node 5, Type 0, BuildingBlock: NAHDIM_clean_sbu_0, # of connection points: 4
#     Node 6, Type 0, BuildingBlock: NAHDIM_clean_sbu_0, # of connection points: 4
#     Node 7, Type 0, BuildingBlock: NAHDIM_clean_sbu_0, # of connection points: 4
#     Node 8, Type 0, BuildingBlock: NAHDIM_clean_sbu_0, # of connection points: 4
#     Node 9, Type 0, BuildingBlock: NAHDIM_clean_sbu_0, # of connection points: 4
#     Node 10, Type 0, BuildingBlock: NAHDIM_clean_sbu_0, # of connection points: 4
#     Node 11, Type 0, BuildingBlock: NAHDIM_clean_sbu_0, # of connection points: 4
#     Node 12, Type 0, BuildingBlock: NAHDIM_clean_sbu_0, # of connection points: 4
#     Node 13, Type 0, BuildingBlock: NAHDIM_clean_sbu_0, # of connection points: 4
#     Node 14, Type 0, BuildingBlock: NAHDIM_clean_sbu_0, # of connection points: 4
#     Node 15, Type 0, BuildingBlock: NAHDIM_clean_sbu_0, # of connection points: 4
#     Node 16, Type 0, BuildingBlock: NAHDIM_clean_sbu_0, # of connection points: 4
#     Node 17, Type 0, BuildingBlock: NAHDIM_clean_sbu_0, # of connection points: 4
#     Node 18, Type 0, BuildingBlock: NAHDIM_clean_sbu_0, # of connection points: 4
#     Node 19, Type 0, BuildingBlock: NAHDIM_clean_sbu_0, # of connection points: 4
#     Node 20, Type 0, BuildingBlock: NAHDIM_clean_sbu_0, # of connection points: 4
#     Node 21, Type 0, BuildingBlock: NAHDIM_clean_sbu_0, # of connection points: 4
#     Node 22, Type 0, BuildingBlock: NAHDIM_clean_sbu_0, # of connection points: 4
#     Node 23, Type 0, BuildingBlock: NAHDIM_clean_sbu_0, # of connection points: 4
#     Node 24, Type 0, BuildingBlock: NAHDIM_clean_sbu_0, # of connection points: 4
#     Node 25, Type 0, BuildingBlock: NAHDIM_clean_sbu_0, # of connection points: 4
#     Node 26, Type 0, BuildingBlock: NAHDIM_clean_sbu_0, # of connection points: 4
#     Node 27, Type 0, BuildingBlock: NAHDIM_clean_sbu_0, # of connection points: 4
#     Node 28, Type 0, BuildingBlock: NAHDIM_clean_sbu_0, # of connection points: 4
#     Node 29, Type 0, BuildingBlock: NAHDIM_clean_sbu_0, # of connection points: 4
#     Node 30, Type 0, BuildingBlock: NAHDIM_clean_sbu_0, # of connection points: 4
#     Node 31, Type 0, BuildingBlock: NAHDIM_clean_sbu_0, # of connection points: 4
#     Node 32, Type 0, BuildingBlock: NAHDIM_clean_sbu_0, # of connection points: 4
#     Node 33, Type 0, BuildingBlock: NAHDIM_clean_sbu_0, # of connection points: 4
#     Node 34, Type 0, BuildingBlock: NAHDIM_clean_sbu_0, # of connection points: 4
#     Node 35, Type 0, BuildingBlock: NAHDIM_clean_sbu_0, # of connection points: 4
#     Edge 36, Type (0, 0), BuildingBlock: CIFDUS_clean_linker_0, # of connection points: 2
#     Edge 37, Type (0, 0), BuildingBlock: CIFDUS_clean_linker_0, # of connection points: 2
#     Edge 38, Type (0, 0), BuildingBlock: CIFDUS_clean_linker_0, # of connection points: 2
#     Edge 39, Type (0, 0), BuildingBlock: CIFDUS_clean_linker_0, # of connection points: 2
#     Edge 40, Type (0, 0), BuildingBlock: CIFDUS_clean_linker_0, # of connection points: 2
#     Edge 41, Type (0, 0), BuildingBlock: CIFDUS_clean_linker_0, # of connection points: 2
#     Edge 42, Type (0, 0), BuildingBlock: CIFDUS_clean_linker_0, # of connection points: 2
#     Edge 43, Type (0, 0), BuildingBlock: CIFDUS_clean_linker_0, # of connection points: 2
#     Edge 44, Type (0, 0), BuildingBlock: CIFDUS_clean_linker_0, # of connection points: 2
#     Edge 45, Type (0, 0), BuildingBlock: CIFDUS_clean_linker_0, # of connection points: 2
#     Edge 46, Type (0, 0), BuildingBlock: CIFDUS_clean_linker_0, # of connection points: 2
#     Edge 47, Type (0, 0), BuildingBlock: CIFDUS_clean_linker_0, # of connection points: 2
#     Edge 48, Type (0, 0), BuildingBlock: CIFDUS_clean_linker_0, # of connection points: 2
#     Edge 49, Type (0, 0), BuildingBlock: CIFDUS_clean_linker_0, # of connection points: 2
#     Edge 50, Type (0, 0), BuildingBlock: CIFDUS_clean_linker_0, # of connection points: 2
#     Edge 51, Type (0, 0), BuildingBlock: CIFDUS_clean_linker_0, # of connection points: 2
#     Edge 52, Type (0, 0), BuildingBlock: CIFDUS_clean_linker_0, # of connection points: 2
#     Edge 53, Type (0, 0), BuildingBlock: CIFDUS_clean_linker_0, # of connection points: 2
#     Edge 54, Type (0, 0), BuildingBlock: CIFDUS_clean_linker_0, # of connection points: 2
#     Edge 55, Type (0, 0), BuildingBlock: CIFDUS_clean_linker_0, # of connection points: 2
#     Edge 56, Type (0, 0), BuildingBlock: CIFDUS_clean_linker_0, # of connection points: 2
#     Edge 57, Type (0, 0), BuildingBlock: CIFDUS_clean_linker_0, # of connection points: 2
#     Edge 58, Type (0, 0), BuildingBlock: CIFDUS_clean_linker_0, # of connection points: 2
#     Edge 59, Type (0, 0), BuildingBlock: CIFDUS_clean_linker_0, # of connection points: 2
#     Edge 60, Type (0, 0), BuildingBlock: CIFDUS_clean_linker_0, # of connection points: 2
#     Edge 61, Type (0, 0), BuildingBlock: CIFDUS_clean_linker_0, # of connection points: 2
#     Edge 62, Type (0, 0), BuildingBlock: CIFDUS_clean_linker_0, # of connection points: 2
#     Edge 63, Type (0, 0), BuildingBlock: CIFDUS_clean_linker_0, # of connection points: 2
#     Edge 64, Type (0, 0), BuildingBlock: CIFDUS_clean_linker_0, # of connection points: 2
#     Edge 65, Type (0, 0), BuildingBlock: CIFDUS_clean_linker_0, # of connection points: 2
#     Edge 66, Type (0, 0), BuildingBlock: CIFDUS_clean_linker_0, # of connection points: 2
#     Edge 67, Type (0, 0), BuildingBlock: CIFDUS_clean_linker_0, # of connection points: 2
#     Edge 68, Type (0, 0), BuildingBlock: CIFDUS_clean_linker_0, # of connection points: 2
#     Edge 69, Type (0, 0), BuildingBlock: CIFDUS_clean_linker_0, # of connection points: 2
#     Edge 70, Type (0, 0), BuildingBlock: CIFDUS_clean_linker_0, # of connection points: 2
#     Edge 71, Type (0, 0), BuildingBlock: CIFDUS_clean_linker_0, # of connection points: 2
#     Edge 72, Type (0, 0), BuildingBlock: CIFDUS_clean_linker_0, # of connection points: 2
#     Edge 73, Type (0, 0), BuildingBlock: CIFDUS_clean_linker_0, # of connection points: 2
#     Edge 74, Type (0, 0), BuildingBlock: CIFDUS_clean_linker_0, # of connection points: 2
#     Edge 75, Type (0, 0), BuildingBlock: CIFDUS_clean_linker_0, # of connection points: 2
#     Edge 76, Type (0, 0), BuildingBlock: CIFDUS_clean_linker_0, # of connection points: 2
#     Edge 77, Type (0, 0), BuildingBlock: CIFDUS_clean_linker_0, # of connection points: 2
#     Edge 78, Type (0, 0), BuildingBlock: CIFDUS_clean_linker_0, # of connection points: 2
#     Edge 79, Type (0, 0), BuildingBlock: CIFDUS_clean_linker_0, # of connection points: 2
#     Edge 80, Type (0, 0), BuildingBlock: CIFDUS_clean_linker_0, # of connection points: 2
#     Edge 81, Type (0, 0), BuildingBlock: CIFDUS_clean_linker_0, # of connection points: 2
#     Edge 82, Type (0, 0), BuildingBlock: CIFDUS_clean_linker_0, # of connection points: 2
#     Edge 83, Type (0, 0), BuildingBlock: CIFDUS_clean_linker_0, # of connection points: 2
#     Edge 84, Type (0, 0), BuildingBlock: CIFDUS_clean_linker_0, # of connection points: 2
#     Edge 85, Type (0, 0), BuildingBlock: CIFDUS_clean_linker_0, # of connection points: 2
#     Edge 86, Type (0, 0), BuildingBlock: CIFDUS_clean_linker_0, # of connection points: 2
#     Edge 87, Type (0, 0), BuildingBlock: CIFDUS_clean_linker_0, # of connection points: 2
#     Edge 88, Type (0, 0), BuildingBlock: CIFDUS_clean_linker_0, # of connection points: 2
#     Edge 89, Type (0, 0), BuildingBlock: CIFDUS_clean_linker_0, # of connection points: 2
#     Edge 90, Type (0, 0), BuildingBlock: CIFDUS_clean_linker_0, # of connection points: 2
#     Edge 91, Type (0, 0), BuildingBlock: CIFDUS_clean_linker_0, # of connection points: 2
#     Edge 92, Type (0, 0), BuildingBlock: CIFDUS_clean_linker_0, # of connection points: 2
#     Edge 93, Type (0, 0), BuildingBlock: CIFDUS_clean_linker_0, # of connection points: 2
#     Edge 94, Type (0, 0), BuildingBlock: CIFDUS_clean_linker_0, # of connection points: 2
#     Edge 95, Type (0, 0), BuildingBlock: CIFDUS_clean_linker_0, # of connection points: 2
#     Edge 96, Type (0, 0), BuildingBlock: CIFDUS_clean_linker_0, # of connection points: 2
#     Edge 97, Type (0, 0), BuildingBlock: CIFDUS_clean_linker_0, # of connection points: 2
#     Edge 98, Type (0, 0), BuildingBlock: CIFDUS_clean_linker_0, # of connection points: 2
#     Edge 99, Type (0, 0), BuildingBlock: CIFDUS_clean_linker_0, # of connection points: 2
#     Edge 100, Type (0, 0), BuildingBlock: CIFDUS_clean_linker_0, # of connection points: 2
#     Edge 101, Type (0, 0), BuildingBlock: CIFDUS_clean_linker_0, # of connection points: 2
#     Edge 102, Type (0, 0), BuildingBlock: CIFDUS_clean_linker_0, # of connection points: 2
#     Edge 103, Type (0, 0), BuildingBlock: CIFDUS_clean_linker_0, # of connection points: 2
#     Edge 104, Type (0, 0), BuildingBlock: CIFDUS_clean_linker_0, # of connection points: 2
#     Edge 105, Type (0, 0), BuildingBlock: CIFDUS_clean_linker_0, # of connection points: 2
#     Edge 106, Type (0, 0), BuildingBlock: CIFDUS_clean_linker_0, # of connection points: 2
#     Edge 107, Type (0, 0), BuildingBlock: CIFDUS_clean_linker_0, # of connection points: 2
# Relax obj value: 0.130
# Max RMSD: 0.120
# Mean RMSD: 0.114
data_MOF--net-ums--node1-NAHDIM_clean_sbu_0--edge1-CIFDUS_clean_linker_0
_symmetry_space_group_name_H-M    P1
_symmetry_Int_Tables_number       1
_symmetry_cell_setting            triclinic
loop_
_symmetry_equiv_pos_as_xyz
'x, y, z'
_cell_length_a     89.125205
_cell_length_b     89.119841
_cell_length_c     20.815414
_cell_angle_alpha  89.999003
_cell_angle_beta   89.994108
_cell_angle_gamma 119.98855
loop_
_atom_site_label
_atom_site_type_symbol
_atom_site_fract_x
_atom_site_fract_y
_atom_site_fract_z
_atom_type_partial_charge
C0 C 0.18715 0.23048 0.25385 0.0
O1 O 0.18765 0.24327 0.28698 0.0
O2 O 0.18804 0.26487 0.14232 0.0
Zn3 Zn 0.16953 0.24108 0.17031 0.0
O4 O 0.15592 0.24279 0.24412 0.0
C5 C 0.14676 0.23939 0.07784 0.0
O6 O 0.15004 0.25316 0.11163 0.0
O7 O 0.17999 0.22691 0.19888 0.0
C8 C 0.1413 0.23003 0.25965 0.0
O9 O 0.13488 0.21568 0.22586 0.0
C10 C 0.19283 0.2783 0.17662 0.0
O11 O 0.18631 0.27663 0.23452 0.0
O12 O 0.15371 0.23058 0.09486 0.0
C13 C 0.75122 0.9466 0.21714 0.0
O14 O 0.73855 0.93586 0.2548 0.0
O15 O 0.71247 0.91459 0.11529 0.0
Zn16 Zn 0.73527 0.91681 0.14027 0.0
O17 O 0.73196 0.90228 0.21824 0.0
C18 C 0.73239 0.89147 0.05575 0.0
O19 O 0.71856 0.88306 0.09203 0.0
O20 O 0.75267 0.94146 0.16173 0.0
C21 C 0.74446 0.90102 0.24141 0.0
O22 O 0.7596 0.90897 0.21256 0.0
C23 C 0.70024 0.91039 0.15535 0.0
O24 O 0.70282 0.90833 0.21605 0.0
O25 O 0.74279 0.90739 0.06733 0.0
C26 C 0.05106 0.80764 0.25475 0.0
O27 O 0.06135 0.80408 0.28846 0.0
O28 O 0.08025 0.79843 0.14852 0.0
Zn29 Zn 0.0799 0.81999 0.17413 0.0
O30 O 0.0956 0.83102 0.24945 0.0
C31 C 0.10469 0.83971 0.08421 0.0
O32 O 0.11216 0.83287 0.11843 0.0
O33 O 0.05605 0.81464 0.19984 0.0
C34 C 0.09757 0.84508 0.27252 0.0
O35 O 0.08956 0.85243 0.24533 0.0
C36 C 0.0848 0.79027 0.18652 0.0
O37 O 0.08816 0.7952 0.2468 0.0
O38 O 0.08949 0.8363 0.09947 0.0
C39 C 0.23641 0.18876 0.43358 0.0
O40 O 0.24785 0.19544 0.48013 0.0
O41 O 0.27555 0.18676 0.42382 0.0
Zn42 Zn 0.25125 0.16686 0.41558 0.0
O43 O 0.24987 0.15273 0.33877 0.0
C44 C 0.25703 0.14736 0.5048 0.0
O45 O 0.26968 0.15171 0.46337 0.0
O46 O 0.23513 0.17598 0.40204 0.0
C47 C 0.2381 0.13704 0.33133 0.0
O48 O 0.2262 0.12943 0.37589 0.0
C49 C 0.28532 0.19373 0.37556 0.0
O50 O 0.27921 0.18824 0.31758 0.0
O51 O 0.24614 0.15235 0.49477 0.0
C52 C 0.80672 0.03893 0.38359 0.0
O53 O 0.80338 0.04469 0.43671 0.0
O54 O 0.81364 0.08229 0.38153 0.0
Zn55 Zn 0.83113 0.07488 0.36536 0.0
O56 O 0.84607 0.08754 0.28961 0.0
C57 C 0.86132 0.08879 0.45035 0.0
O58 O 0.87051 0.09273 0.3973 0.0
O59 O 0.81859 0.04955 0.3465 0.0
C60 C 0.85387 0.10393 0.28465 0.0
O61 O 0.85224 0.11309 0.33077 0.0
C62 C 0.80368 0.0833 0.34038 0.0
O63 O 0.80451 0.07944 0.28006 0.0
O64 O 0.8449 0.08053 0.44684 0.0
C65 C 0.95492 0.78553 0.33535 0.0
O66 O 0.94426 0.78809 0.29964 0.0
O67 O 0.91928 0.73508 0.41807 0.0
Zn68 Zn 0.9233 0.75834 0.39089 0.0
O69 O 0.91116 0.75515 0.30651 0.0
C70 C 0.89627 0.75449 0.46622 0.0
O71 O 0.88906 0.74122 0.42673 0.0
O72 O 0.94882 0.77425 0.37978 0.0
C73 C 0.90412 0.76387 0.28932 0.0
O74 O 0.90479 0.77588 0.32781 0.0
C75 C 0.92032 0.72453 0.37986 0.0
O76 O 0.92512 0.72925 0.32011 0.0
O77 O 0.91228 0.76546 0.45951 0.0
C78 C 0.80795 0.76122 0.79809 0.0
O79 O 0.80985 0.75093 0.75785 0.0
O80 O 0.80902 0.72475 0.89467 0.0
Zn81 Zn 0.82601 0.74988 0.87715 0.0
O82 O 0.84116 0.75193 0.80253 0.0
C83 C 0.84911 0.75231 0.97232 0.0
O84 O 0.848 0.73963 0.9366 0.0
O85 O 0.81368 0.76277 0.85503 0.0
C86 C 0.85587 0.76526 0.79274 0.0
O87 O 0.86188 0.77813 0.83402 0.0
C88 C 0.80433 0.71312 0.85172 0.0
O89 O 0.81014 0.71765 0.79279 0.0
O90 O 0.84062 0.75965 0.95587 0.0
C91 C 0.23258 0.04674 0.83514 0.0
O92 O 0.24229 0.05879 0.79348 0.0
O93 O 0.27307 0.0787 0.93777 0.0
Zn94 Zn 0.24975 0.07567 0.91678 0.0
O95 O 0.25159 0.09073 0.84199 0.0
C96 C 0.25338 0.10027 0.00354 0.0
O97 O 0.26638 0.10849 0.96342 0.0
O98 O 0.23325 0.0508 0.89409 0.0
C99 C 0.23934 0.09371 0.83002 0.0
O100 O 0.22573 0.08717 0.86792 0.0
C101 C 0.28511 0.0827 0.89712 0.0
O102 O 0.28222 0.08428 0.83627 0.0
O103 O 0.24277 0.08428 0.9939 0.0
C104 C 0.94693 0.17999 0.78383 0.0
O105 O 0.93522 0.17756 0.74044 0.0
O106 O 0.91034 0.18398 0.85349 0.0
Zn107 Zn 0.91667 0.16529 0.85704 0.0
O108 O 0.90455 0.1478 0.78734 0.0
C109 C 0.91036 0.16303 0.99204 0.0
O110 O 0.91749 0.17988 0.98512 0.0
O111 O 0.94216 0.17574 0.84175 0.0
C112 C 0.88916 0.13515 0.79052 0.0
O113 O 0.87994 0.133 0.84253 0.0
C114 C 0.90511 0.18853 0.80443 0.0
O115 O 0.90365 0.1808 0.74915 0.0
O116 O 0.90931 0.15387 0.94356 0.0
C117 C 0.76171 0.80799 0.63157 0.0
O118 O 0.75343 0.80451 0.57649 0.0
O119 O 0.7225 0.81066 0.62593 0.0
Zn120 Zn 0.74645 0.82937 0.64997 0.0
O121 O 0.74529 0.84203 0.7277 0.0
C122 C 0.74498 0.85071 0.55748 0.0
O123 O 0.73075 0.84574 0.59095 0.0
O124 O 0.76098 0.81873 0.66969 0.0
C125 C 0.757 0.85745 0.74055 0.0
O126 O 0.77037 0.86544 0.7019 0.0
C127 C 0.70993 0.80379 0.66518 0.0
O128 O 0.71263 0.80834 0.72597 0.0
O129 O 0.75535 0.8456 0.57486 0.0
C130 C 0.18201 0.94509 0.7712 0.0
O131 O 0.179 0.93268 0.81211 0.0
O132 O 0.18944 0.91307 0.65902 0.0
Zn133 Zn 0.1698 0.91686 0.68389 0.0
O134 O 0.15611 0.90086 0.75574 0.0
C135 C 0.14999 0.89543 0.586 0.0
O136 O 0.15523 0.88611 0.61757 0.0
O137 O 0.17896 0.94146 0.71184 0.0
C138 C 0.14129 0.8986 0.77063 0.0
O139 O 0.1348 0.90654 0.73732 0.0
C140 C 0.19617 0.90679 0.69638 0.0
O141 O 0.19098 0.90354 0.75644 0.0
O142 O 0.15443 0.91053 0.60645 0.0
C143 C 0.04161 0.2267 0.63208 0.0
O144 O 0.04681 0.23538 0.57789 0.0
O145 O 0.08141 0.26887 0.64967 0.0
Zn146 Zn 0.07795 0.24508 0.66201 0.0
O147 O 0.09022 0.2459 0.74323 0.0
C148 C 0.10418 0.25096 0.57527 0.0
O149 O 0.11192 0.2646 0.61284 0.0
O150 O 0.05278 0.22835 0.67345 0.0
C151 C 0.09425 0.23479 0.76149 0.0
O152 O 0.09046 0.22135 0.72485 0.0
C153 C 0.07926 0.27671 0.69665 0.0
O154 O 0.07374 0.26858 0.75177 0.0
O155 O 0.08856 0.2396 0.58708 0.0
C156 C 0.85706 0.58149 0.58163 0.0
O157 O 0.858 0.59483 0.61211 0.0
O158 O 0.86378 0.61862 0.48333 0.0
Zn159 Zn 0.84342 0.59437 0.48986 0.0
O160 O 0.82561 0.59429 0.54872 0.0
C161 C 0.82934 0.59948 0.38103 0.0
O162 O 0.83428 0.61358 0.41522 0.0
O163 O 0.85105 0.57825 0.52477 0.0
C164 C 0.81431 0.58053 0.57625 0.0
O165 O 0.81448 0.56603 0.56736 0.0
C166 C 0.86678 0.63006 0.52563 0.0
O167 O 0.85701 0.62573 0.57727 0.0
O168 O 0.83218 0.5878 0.40293 0.0
C169 C 0.43468 0.28642 0.54612 0.0
O170 O 0.42757 0.27582 0.59486 0.0
O171 O 0.39277 0.24968 0.45196 0.0
Zn172 Zn 0.41684 0.25492 0.47358 0.0
O173 O 0.41517 0.24129 0.55258 0.0
C174 C 0.41527 0.23252 0.37573 0.0
O175 O 0.39976 0.22341 0.40109 0.0
O176 O 0.43198 0.28034 0.48942 0.0
C177 C 0.42676 0.23812 0.57266 0.0
O178 O 0.44124 0.2439 0.54013 0.0
C179 C 0.38253 0.24884 0.49609 0.0
O180 O 0.38828 0.25254 0.55538 0.0
O181 O 0.42578 0.24717 0.39989 0.0
C182 C 0.71048 0.14214 0.4724 0.0
O183 O 0.72303 0.14444 0.51141 0.0
O184 O 0.74247 0.13566 0.35537 0.0
Zn185 Zn 0.73836 0.15491 0.38353 0.0
O186 O 0.75455 0.16717 0.45684 0.0
C187 C 0.76006 0.17675 0.2897 0.0
O188 O 0.76961 0.17146 0.31934 0.0
O189 O 0.71378 0.14562 0.41304 0.0
C190 C 0.75701 0.18128 0.48126 0.0
O191 O 0.74908 0.18901 0.45658 0.0
C192 C 0.74665 0.12793 0.39677 0.0
O193 O 0.74658 0.13158 0.45789 0.0
O194 O 0.74475 0.17142 0.30967 0.0
C195 C 0.88796 0.5161 0.6975 0.0
O196 O 0.89888 0.5226 0.74573 0.0
O197 O 0.92501 0.51243 0.7222 0.0
Zn198 Zn 0.90225 0.49363 0.68803 0.0
O199 O 0.90657 0.48434 0.60649 0.0
C200 C 0.90242 0.4683 0.76276 0.0
O201 O 0.91565 0.47299 0.72383 0.0
O202 O 0.8866 0.50304 0.6678 0.0
C203 C 0.89611 0.46927 0.58543 0.0
O204 O 0.88187 0.45927 0.61776 0.0
C205 C 0.93779 0.52217 0.6866 0.0
O206 O 0.936 0.52066 0.62389 0.0
O207 O 0.89302 0.47519 0.75592 0.0
C208 C 0.48939 0.38486 0.65913 0.0
O209 O 0.4928 0.39539 0.61019 0.0
O210 O 0.49244 0.42641 0.70726 0.0
Zn211 Zn 0.50887 0.41715 0.71679 0.0
O212 O 0.52546 0.42505 0.64262 0.0
C213 C 0.51437 0.42673 0.84942 0.0
O214 O 0.49766 0.42113 0.84693 0.0
O215 O 0.49508 0.39125 0.71435 0.0
C216 C 0.53841 0.44022 0.63774 0.0
O217 O 0.54167 0.45143 0.68419 0.0
C218 C 0.49013 0.43219 0.65455 0.0
O219 O 0.49886 0.43238 0.60338 0.0
O220 O 0.52202 0.42584 0.79932 0.0
C221 C 0.62139 0.10503 0.66299 0.0
O222 O 0.60822 0.09696 0.62357 0.0
O223 O 0.58727 0.06659 0.7703 0.0
Zn224 Zn 0.59372 0.09127 0.75221 0.0
O225 O 0.57802 0.09104 0.68261 0.0
C226 C 0.57374 0.09022 0.85374 0.0
O227 O 0.56354 0.07636 0.81986 0.0
O228 O 0.61851 0.10474 0.72295 0.0
C229 C 0.57566 0.1036 0.66896 0.0
O230 O 0.58357 0.11794 0.70282 0.0
C231 C 0.58234 0.05524 0.72627 0.0
O232 O 0.58262 0.05996 0.66629 0.0
O233 O 0.58897 0.10037 0.83322 0.0
C234 C 0.48864 0.10254 0.1698 0.0
O235 O 0.49293 0.09372 0.13083 0.0
O236 O 0.47639 0.06151 0.28348 0.0
Zn237 Zn 0.49725 0.08436 0.26168 0.0
O238 O 0.51008 0.08012 0.19134 0.0
C239 C 0.51632 0.08057 0.3561 0.0
O240 O 0.51029 0.06644 0.32114 0.0
O241 O 0.48969 0.10102 0.23024 0.0
C242 C 0.52507 0.09161 0.17292 0.0
O243 O 0.53284 0.1067 0.2021 0.0
C244 C 0.46678 0.05115 0.24006 0.0
O245 O 0.46992 0.05602 0.17965 0.0
O246 O 0.51253 0.09204 0.33996 0.0
C247 C 0.89573 0.37531 0.08635 0.0
O248 O 0.9063 0.3887 0.05118 0.0
O249 O 0.93148 0.41112 0.18003 0.0
Zn250 Zn 0.90592 0.40284 0.17138 0.0
O251 O 0.90267 0.41621 0.10078 0.0
C252 C 0.90606 0.42303 0.27301 0.0
O253 O 0.91915 0.43415 0.23771 0.0
O254 O 0.89315 0.37779 0.14451 0.0
C255 C 0.89083 0.42013 0.09618 0.0
O256 O 0.8795 0.41604 0.14277 0.0
C257 C 0.94193 0.41865 0.13382 0.0
O258 O 0.93594 0.42087 0.07915 0.0
O259 O 0.89738 0.40739 0.25431 0.0
C260 C 0.61653 0.53562 0.12945 0.0
O261 O 0.60346 0.53623 0.10304 0.0
O262 O 0.57749 0.52485 0.22428 0.0
Zn263 Zn 0.58998 0.51147 0.21368 0.0
O264 O 0.57615 0.49219 0.15137 0.0
C265 C 0.58434 0.4862 0.31265 0.0
O266 O 0.57847 0.47515 0.2647 0.0
O267 O 0.6139 0.52629 0.17896 0.0
C268 C 0.58305 0.48627 0.11313 0.0
O269 O 0.59987 0.49249 0.11535 0.0
C270 C 0.56296 0.51636 0.25253 0.0
O271 O 0.55771 0.50035 0.27048 0.0
O272 O 0.59067 0.50225 0.30115 0.0
C273 C 0.43414 0.14728 0.0683 0.0
O274 O 0.42278 0.14895 0.10322 0.0
O275 O 0.39785 0.13971 0.93833 0.0
Zn276 Zn 0.42009 0.15945 0.97212 0.0
O277 O 0.41408 0.17104 0.04204 0.0
C278 C 0.42095 0.18169 0.87921 0.0
O279 O 0.40603 0.17625 0.90838 0.0
O280 O 0.43548 0.151 0.00875 0.0
C281 C 0.42552 0.18495 0.06829 0.0
O282 O 0.44161 0.19222 0.04797 0.0
C283 C 0.38546 0.13019 0.97584 0.0
O284 O 0.38784 0.13242 0.03817 0.0
O285 O 0.43091 0.17631 0.89924 0.0
C286 C 0.85731 0.28841 0.88042 0.0
O287 O 0.86249 0.28575 0.82465 0.0
O288 O 0.85481 0.24606 0.85846 0.0
Zn289 Zn 0.83596 0.25103 0.8838 0.0
O290 O 0.8242 0.23602 0.95985 0.0
C291 C 0.81244 0.22884 0.79336 0.0
O292 O 0.8166 0.21865 0.82483 0.0
O293 O 0.84589 0.27559 0.91193 0.0
C294 C 0.80999 0.23358 0.98312 0.0
O295 O 0.80205 0.241 0.95588 0.0
C296 C 0.85904 0.24514 0.80087 0.0
O297 O 0.85175 0.24891 0.75346 0.0
O298 O 0.81905 0.24453 0.81099 0.0
C299 C 0.71311 0.5735 0.00049 0.0
O300 O 0.71727 0.58563 0.95695 0.0
O301 O 0.75575 0.60754 0.96564 0.0
Zn302 Zn 0.74906 0.5831 0.98918 0.0
O303 O 0.76471 0.58439 0.06036 0.0
C304 C 0.75285 0.57748 0.85716 0.0
O305 O 0.74796 0.58907 0.85054 0.0
O306 O 0.72452 0.56998 0.01978 0.0
C307 C 0.76654 0.57174 0.07783 0.0
O308 O 0.75765 0.55673 0.04867 0.0
C309 C 0.75748 0.61876 0.00707 0.0
O310 O 0.75427 0.61421 0.06776 0.0
O311 O 0.75328 0.57195 0.91297 0.0
C312 C 0.50889 0.90223 0.81462 0.0
O313 O 0.50713 0.91275 0.85402 0.0
O314 O 0.51598 0.94191 0.71737 0.0
Zn315 Zn 0.49591 0.91791 0.7325 0.0
O316 O 0.48132 0.9183 0.80521 0.0
C317 C 0.47647 0.92206 0.6403 0.0
O318 O 0.4809 0.93509 0.67999 0.0
O319 O 0.50468 0.90177 0.75597 0.0
C320 C 0.46621 0.90562 0.81547 0.0
O321 O 0.45984 0.89222 0.77658 0.0
C322 C 0.52315 0.95312 0.7615 0.0
O323 O 0.51784 0.94888 0.82107 0.0
O324 O 0.48147 0.91127 0.65247 0.0
C325 C 0.0904 0.61349 0.7585 0.0
O326 O 0.08185 0.60814 0.70412 0.0
O327 O 0.04934 0.57349 0.75548 0.0
Zn328 Zn 0.07207 0.5772 0.78878 0.0
O329 O 0.0685 0.56509 0.87349 0.0
C330 C 0.07096 0.55039 0.71731 0.0
O331 O 0.0576 0.54215 0.75588 0.0
O332 O 0.08852 0.60243 0.80083 0.0
C333 C 0.07944 0.56114 0.89477 0.0
O334 O 0.09333 0.56508 0.86059 0.0
C335 C 0.03663 0.57053 0.79135 0.0
O336 O 0.03843 0.57061 0.85402 0.0
O337 O 0.08051 0.56669 0.7233 0.0
C338 C 0.37786 0.46679 0.84307 0.0
O339 O 0.38949 0.47073 0.8884 0.0
O340 O 0.41806 0.46929 0.75247 0.0
Zn341 Zn 0.40834 0.48514 0.76705 0.0
O342 O 0.42058 0.49906 0.84536 0.0
C343 C 0.42754 0.51361 0.6813 0.0
O344 O 0.43979 0.51724 0.7238 0.0
O345 O 0.38285 0.47135 0.78557 0.0
C346 C 0.42168 0.51302 0.86569 0.0
O347 O 0.41464 0.52045 0.83252 0.0
C348 C 0.42533 0.46867 0.70077 0.0
O349 O 0.42564 0.47792 0.65113 0.0
O350 O 0.41267 0.50045 0.6902 0.0
C351 C 0.55666 0.85845 0.99079 0.0
O352 O 0.56324 0.86126 0.04898 0.0
O353 O 0.59904 0.86105 0.00631 0.0
Zn354 Zn 0.5766 0.84148 0.97353 0.0
O355 O 0.5816 0.83214 0.89407 0.0
C356 C 0.5782 0.8189 0.06093 0.0
O357 O 0.59332 0.82573 0.03206 0.0
O358 O 0.5603 0.84991 0.95127 0.0
C359 C 0.57055 0.81793 0.86846 0.0
O360 O 0.55522 0.80877 0.89513 0.0
C361 C 0.61109 0.87127 0.96884 0.0
O362 O 0.60836 0.86982 0.90654 0.0
O363 O 0.56737 0.82331 0.04244 0.0
C364 C 0.13965 0.70839 0.90723 0.0
O365 O 0.13902 0.71964 0.86821 0.0
O366 O 0.13379 0.74002 0.02157 0.0
Zn367 Zn 0.15373 0.73776 0.98859 0.0
O368 O 0.1639 0.75325 0.91202 0.0
C369 C 0.17554 0.76115 0.07953 0.0
O370 O 0.16858 0.7695 0.05203 0.0
O371 O 0.1457 0.71318 0.96351 0.0
C372 C 0.17761 0.75538 0.885 0.0
O373 O 0.18551 0.74748 0.90841 0.0
C374 C 0.12404 0.74286 0.98519 0.0
O375 O 0.12621 0.74321 0.92267 0.0
O376 O 0.17144 0.74615 0.05903 0.0
C377 C 0.28239 0.42484 0.98731 0.0
O378 O 0.27051 0.41662 0.94321 0.0
O379 O 0.24402 0.39023 0.09876 0.0
Zn380 Zn 0.2524 0.41424 0.06512 0.0
O381 O 0.23867 0.41327 0.98665 0.0
C382 C 0.23181 0.41963 0.14991 0.0
O383 O 0.2206 0.40669 0.11425 0.0
O384 O 0.27772 0.42567 0.04425 0.0
C385 C 0.23681 0.42601 0.97062 0.0
O386 O 0.244 0.44011 0.00599 0.0
C387 C 0.24201 0.37725 0.06655 0.0
O388 O 0.24593 0.37911 0.00513 0.0
O389 O 0.24781 0.42654 0.13647 0.0
C390 C 0.13853 0.42264 0.50993 0.0
O391 O 0.13837 0.41174 0.46704 0.0
O392 O 0.13884 0.38474 0.57485 0.0
Zn393 Zn 0.1574 0.40962 0.5694 0.0
O394 O 0.16974 0.41168 0.4868 0.0
C395 C 0.17906 0.40478 0.6538 0.0
O396 O 0.1743 0.39178 0.61373 0.0
O397 O 0.14631 0.42436 0.56295 0.0
C398 C 0.18503 0.42292 0.47054 0.0
O399 O 0.19508 0.43499 0.51158 0.0
C400 C 0.12994 0.37761 0.62481 0.0
O401 O 0.13244 0.38697 0.67669 0.0
O402 O 0.17352 0.41528 0.64466 0.0
C403 C 0.57279 0.7134 0.48531 0.0
O404 O 0.5827 0.71826 0.53663 0.0
O405 O 0.60898 0.7555 0.50754 0.0
Zn406 Zn 0.58571 0.74987 0.4733 0.0
O407 O 0.58897 0.76376 0.3936 0.0
C408 C 0.58326 0.77205 0.56094 0.0
O409 O 0.59833 0.78213 0.53367 0.0
O410 O 0.57181 0.72475 0.45161 0.0
C411 C 0.57646 0.76473 0.3688 0.0
O412 O 0.56117 0.75661 0.39649 0.0
C413 C 0.62122 0.7571 0.47174 0.0
O414 O 0.61854 0.75444 0.40966 0.0
O415 O 0.57424 0.75653 0.54142 0.0
C416 C 0.2849 0.85339 0.50058 0.0
O417 O 0.28167 0.85452 0.56144 0.0
O418 O 0.24423 0.85563 0.52474 0.0
Zn419 Zn 0.2478 0.83678 0.48835 0.0
O420 O 0.23265 0.82646 0.41124 0.0
C421 C 0.2255 0.8135 0.57853 0.0
O422 O 0.21625 0.81972 0.55294 0.0
O423 O 0.27238 0.84615 0.46136 0.0
C424 C 0.23141 0.81299 0.38527 0.0
O425 O 0.23998 0.80594 0.41021 0.0
C426 C 0.24193 0.86606 0.49023 0.0
O427 O 0.24285 0.86528 0.42742 0.0
O428 O 0.24064 0.81868 0.55692 0.0
C429 C 0.08847 0.46947 0.37782 0.0
O430 O 0.08245 0.47471 0.42511 0.0
O431 O 0.04723 0.46747 0.29255 0.0
Zn432 Zn 0.07256 0.48469 0.30422 0.0
O433 O 0.07478 0.49924 0.38082 0.0
C434 C 0.07308 0.50776 0.21132 0.0
O435 O 0.0603 0.50583 0.24841 0.0
O436 O 0.08581 0.47226 0.32017 0.0
C437 C 0.08721 0.51452 0.3902 0.0
O438 O 0.09951 0.52191 0.34689 0.0
C439 C 0.041 0.46168 0.23724 0.0
O440 O 0.05147 0.46633 0.18754 0.0
O441 O 0.08118 0.49987 0.22591 0.0
C442 C 0.51837 0.61955 0.32878 0.0
O443 O 0.51938 0.60784 0.36401 0.0
O444 O 0.51301 0.58081 0.25517 0.0
Zn445 Zn 0.49565 0.58888 0.26882 0.0
O446 O 0.48333 0.57902 0.35252 0.0
C447 C 0.47259 0.56505 0.17929 0.0
O448 O 0.47603 0.55517 0.21604 0.0
O449 O 0.50859 0.61461 0.27968 0.0
C450 C 0.46726 0.56952 0.36395 0.0
O451 O 0.45603 0.56517 0.31687 0.0
C452 C 0.51156 0.56792 0.28672 0.0
O453 O 0.49887 0.56019 0.32834 0.0
O454 O 0.47928 0.58101 0.19331 0.0
C455 C 0.37522 0.89771 0.3156 0.0
O456 O 0.38765 0.90805 0.35484 0.0
O457 O 0.40728 0.93812 0.22108 0.0
Zn458 Zn 0.40363 0.91412 0.23299 0.0
O459 O 0.41883 0.91466 0.30505 0.0
C460 C 0.42775 0.91981 0.14134 0.0
O461 O 0.43578 0.93247 0.18293 0.0
O462 O 0.37875 0.89758 0.25644 0.0
C463 C 0.42215 0.90259 0.31596 0.0
O464 O 0.41579 0.88907 0.27767 0.0
C465 C 0.41193 0.94896 0.26688 0.0
O466 O 0.4133 0.94404 0.32503 0.0
O467 O 0.41202 0.90848 0.15191 0.0
H468 H 0.21655 0.18153 0.32685 0.0
H469 H 0.23463 0.21531 0.49213 0.0
H470 H 0.22053 0.23093 0.45167 0.0
H471 H 0.2042 0.23574 0.36711 0.0
H472 H 0.18693 0.20238 0.20054 0.0
H473 H 0.1997 0.18586 0.24391 0.0
C474 C 0.21729 0.19221 0.35444 0.0
C475 C 0.22665 0.19726 0.4124 0.0
C476 C 0.20944 0.20129 0.33042 0.0
C477 C 0.22753 0.21117 0.44732 0.0
C478 C 0.21951 0.22014 0.42415 0.0
C479 C 0.20319 0.22483 0.34031 0.0
C480 C 0.19469 0.22036 0.28053 0.0
C481 C 0.21064 0.21545 0.36533 0.0
C482 C 0.19347 0.20616 0.24652 0.0
C483 C 0.20074 0.19669 0.27132 0.0
H484 H 0.80798 0.02423 0.27095 0.0
H485 H 0.78079 0.01259 0.4521 0.0
H486 H 0.76146 0.98287 0.41673 0.0
H487 H 0.75169 0.9606 0.33323 0.0
H488 H 0.77857 0.97234 0.15142 0.0
H489 H 0.79865 0.00172 0.18839 0.0
C490 C 0.79791 0.01518 0.30295 0.0
C491 C 0.79581 0.02064 0.36404 0.0
C492 C 0.78674 -0.00181 0.28208 0.0
C493 C 0.78267 0.00873 0.40479 0.0
C494 C 0.77159 0.99175 0.38457 0.0
C495 C 0.76195 0.96956 0.30162 0.0
C496 C 0.76357 0.96431 0.23953 0.0
C497 C 0.7734 0.98641 0.32308 0.0
C498 C 0.77699 0.97607 0.19937 0.0
C499 C 0.78849 0.99286 0.22048 0.0
H500 H 0.97957 0.78113 0.39438 0.0
H501 H 0.97167 0.80742 0.23499 0.0
H502 H 0.00102 0.81709 0.19682 0.0
H503 H 0.02819 0.81636 0.20471 0.0
H504 H 0.03569 0.78969 0.36385 0.0
H505 H 0.00718 0.78185 0.40583 0.0
C506 C 0.98431 0.78914 0.35167 0.0
C507 C 0.97338 0.79341 0.31734 0.0
C508 C 0.00106 0.79442 0.32947 0.0
C509 C 0.97978 0.80389 0.26229 0.0
C510 C 0.99654 0.80936 0.24021 0.0
C511 C 0.0236 0.80886 0.24864 0.0
C512 C 0.03398 0.80347 0.28069 0.0
C513 C 0.00716 0.80438 0.27267 0.0
C514 C 0.02792 0.79393 0.33796 0.0
C515 C 0.01162 0.78944 0.36212 0.0
H516 H 0.79484 0.76089 0.68 0.0
H517 H 0.80285 0.78423 0.86794 0.0
H518 H 0.78978 0.80116 0.83199 0.0
H519 H 0.77589 0.80911 0.74794 0.0
H520 H 0.76742 0.78554 0.56034 0.0
H521 H 0.78102 0.76898 0.59551 0.0
C522 C 0.79372 0.76966 0.71317 0.0
C523 C 0.79979 0.77126 0.77659 0.0
C524 C 0.78619 0.77936 0.69224 0.0
C525 C 0.79825 0.78272 0.81889 0.0
C526 C 0.79081 0.79243 0.79837 0.0
C527 C 0.77709 0.80043 0.71453 0.0
C528 C 0.77066 0.79858 0.65157 0.0
C529 C 0.78474 0.79084 0.73521 0.0
C530 C 0.77226 0.78721 0.60907 0.0
C531 C 0.78 0.77771 0.62916 0.0
H532 H 0.21685 0.01775 0.90932 0.0
H533 H 0.22451 0.03511 0.71218 0.0
H534 H 0.20869 0.00517 0.67512 0.0
H535 H 0.19403 0.97411 0.69826 0.0
H536 H 0.18719 0.95662 0.8951 0.0
H537 H 0.20127 0.98656 0.9326 0.0
C538 C 0.21491 0.01498 0.85829 0.0
C539 C 0.22191 0.02862 0.81361 0.0
C540 C 0.20603 0.99771 0.83718 0.0
C541 C 0.21935 0.02483 0.74762 0.0
C542 C 0.2103 0.00771 0.72631 0.0
C543 C 0.1955 0.97683 0.74938 0.0
C544 C 0.18965 0.96316 0.79375 0.0
C545 C 0.20381 0.99406 0.77062 0.0
C546 C 0.19168 0.96691 0.85985 0.0
C547 C 0.19972 0.98403 0.88139 0.0
H548 H 0.02744 0.21256 0.74738 0.0
H549 H 0.01401 0.21873 0.55368 0.0
H550 H 0.98341 0.20432 0.58348 0.0
H551 H 0.96074 0.19116 0.66548 0.0
H552 H 0.97432 0.18576 0.85988 0.0
H553 H 0.00471 0.19877 0.82866 0.0
C554 C 0.01782 0.21063 0.71143 0.0
C555 C 0.023 0.21674 0.64839 0.0
C556 C 0.00033 0.20261 0.72912 0.0
C557 C 0.01037 0.21418 0.60255 0.0
C558 C 0.99288 0.20598 0.61959 0.0
C559 C 0.97033 0.19278 0.70107 0.0
C560 C 0.96528 0.18757 0.765 0.0
C561 C 0.98776 0.20035 0.68292 0.0
C562 C 0.97787 0.18973 0.81042 0.0
C563 C 0.99524 0.19715 0.7926 0.0
H564 H 0.85211 0.55025 0.54189 0.0
H565 H 0.87527 0.58821 0.69318 0.0
H566 H 0.88591 0.57075 0.74471 0.0
H567 H 0.88975 0.5454 0.74438 0.0
H568 H 0.86655 0.50735 0.59335 0.0
H569 H 0.85464 0.52406 0.54477 0.0
C570 C 0.85947 0.55469 0.58616 0.0
C571 C 0.86302 0.57057 0.61331 0.0
C572 C 0.8655 0.54456 0.61577 0.0
C573 C 0.8724 0.57605 0.6711 0.0
C574 C 0.87849 0.56608 0.70067 0.0
C575 C 0.88195 0.54066 0.70118 0.0
C576 C 0.87916 0.52522 0.67238 0.0
C577 C 0.87526 0.5504 0.67313 0.0
C578 C 0.86896 0.51924 0.6165 0.0
C579 C 0.86218 0.52882 0.58848 0.0
H580 H 0.44513 0.30324 0.66052 0.0
H581 H 0.44826 0.31194 0.4556 0.0
H582 H 0.46543 0.34312 0.47293 0.0
H583 H 0.4793 0.36784 0.54579 0.0
H584 H 0.47668 0.3594 0.75071 0.0
H585 H 0.45954 0.32811 0.73371 0.0
C586 C 0.44958 0.31195 0.61964 0.0
C587 C 0.44538 0.30527 0.5569 0.0
C588 C 0.45951 0.32988 0.62989 0.0
C589 C 0.45131 0.31673 0.50443 0.0
C590 C 0.46112 0.33457 0.51425 0.0
C591 C 0.47497 0.35918 0.58683 0.0
C592 C 0.4792 0.36594 0.64941 0.0
C593 C 0.46524 0.34127 0.57672 0.0
C594 C 0.4736 0.35452 0.70201 0.0
C595 C 0.46379 0.33664 0.69234 0.0
H596 H 0.70075 0.13871 0.5973 0.0
H597 H 0.68053 0.13086 0.40416 0.0
H598 H 0.6512 0.11914 0.44649 0.0
H599 H 0.63132 0.11041 0.53811 0.0
H600 H 0.65159 0.11858 0.73127 0.0
H601 H 0.68099 0.13103 0.68894 0.0
C602 C 0.68994 0.13444 0.5644 0.0
C603 C 0.6928 0.13553 0.49768 0.0
C604 C 0.67316 0.1278 0.58902 0.0
C605 C 0.67867 0.13012 0.45573 0.0
C606 C 0.6619 0.12341 0.47988 0.0
C607 C 0.64216 0.11496 0.57103 0.0
C608 C 0.63926 0.11348 0.63774 0.0
C609 C 0.659 0.12208 0.54641 0.0
C610 C 0.65347 0.11956 0.6797 0.0
C611 C 0.67028 0.12663 0.65555 0.0
H612 H 0.47063 0.11526 0.23298 0.0
H613 H 0.48998 0.11263 0.04566 0.0
H614 H 0.47557 0.12708 0.9981 0.0
H615 H 0.45607 0.13888 0.00844 0.0
H616 H 0.4359 0.14067 0.19512 0.0
H617 H 0.45206 0.1282 0.24401 0.0
C618 C 0.47186 0.11804 0.18191 0.0
C619 C 0.48128 0.11281 0.14293 0.0
C620 C 0.46328 0.12609 0.15456 0.0
C621 C 0.48269 0.11642 0.07673 0.0
C622 C 0.47445 0.12468 0.0494 0.0
C623 C 0.45529 0.13665 0.05987 0.0
C624 C 0.4447 0.1406 0.09792 0.0
C625 C 0.46447 0.1293 0.08766 0.0
C626 C 0.44387 0.13764 0.16455 0.0
C627 C 0.45312 0.13052 0.19265 0.0
H628 H 0.85241 0.29714 0.00041 0.0
H629 H 0.88064 0.31906 0.82439 0.0
H630 H 0.89492 0.34785 0.87299 0.0
H631 H 0.89967 0.36661 0.9655 0.0
H632 H 0.87183 0.34475 0.14222 0.0
H633 H 0.85711 0.31598 0.09305 0.0
C634 C 0.86162 0.30821 0.97247 0.0
C635 C 0.86544 0.30595 0.90878 0.0
C636 C 0.86989 0.32468 0.00087 0.0
C637 C 0.87747 0.32043 0.87346 0.0
C638 C 0.88565 0.3369 0.90124 0.0
C639 C 0.89038 0.35558 0.99341 0.0
C640 C 0.88687 0.35782 0.05749 0.0
C641 C 0.88202 0.33913 0.96495 0.0
C642 C 0.8748 0.34337 0.09286 0.0
C643 C 0.86636 0.32693 0.06475 0.0
H644 H 0.64396 0.53158 0.15791 0.0
H645 H 0.62791 0.55957 0.03262 0.0
H646 H 0.65636 0.57365 0.98092 0.0
H647 H 0.68576 0.57791 0.97134 0.0
H648 H 0.70131 0.54934 0.09599 0.0
H649 H 0.67299 0.53552 0.1476 0.0
C650 C 0.64668 0.54083 0.11952 0.0
C651 C 0.63387 0.54459 0.09937 0.0
C652 C 0.66294 0.5487 0.08964 0.0
C653 C 0.63757 0.55647 0.04911 0.0
C654 C 0.65382 0.56451 0.01948 0.0
C655 C 0.68294 0.56863 0.00967 0.0
C656 C 0.69566 0.5647 0.02974 0.0
C657 C 0.66659 0.56069 0.03926 0.0
C658 C 0.69177 0.55262 0.07947 0.0
C659 C 0.67559 0.54472 0.10918 0.0
H660 H 0.51873 0.90071 0.93643 0.0
H661 H 0.51579 0.88014 0.74607 0.0
H662 H 0.52949 0.864 0.78501 0.0
H663 H 0.54343 0.85684 0.8718 0.0
H664 H 0.54683 0.87791 0.0616 0.0
H665 H 0.53165 0.89269 0.024 0.0
C666 C 0.521 0.89264 0.90339 0.0
C667 C 0.51634 0.89172 0.83832 0.0
C668 C 0.52897 0.88352 0.92595 0.0
C669 C 0.51931 0.88113 0.79633 0.0
C670 C 0.52715 0.87191 0.81855 0.0
C671 C 0.54076 0.86457 0.90514 0.0
C672 C 0.54635 0.86634 0.96938 0.0
C673 C 0.5322 0.87317 0.88308 0.0
C674 C 0.54273 0.87637 0.01188 0.0
C675 C 0.53407 0.88485 0.99041 0.0
H676 H 0.1083 0.62819 0.86786 0.0
H677 H 0.09567 0.64075 0.68259 0.0
H678 H 0.11063 0.67143 0.71136 0.0
H679 H 0.12574 0.69436 0.79137 0.0
H680 H 0.13781 0.6816 0.97732 0.0
H681 H 0.1246 0.65125 0.94574 0.0
C682 C 0.10891 0.63763 0.83349 0.0
C683 C 0.10076 0.63217 0.77333 0.0
C684 C 0.11733 0.65518 0.85058 0.0
C685 C 0.10177 0.6446 0.72932 0.0
C686 C 0.11029 0.66214 0.74578 0.0
C687 C 0.12557 0.68497 0.82493 0.0
C688 C 0.13262 0.69022 0.8868 0.0
C689 C 0.11785 0.66752 0.80666 0.0
C690 C 0.13239 0.6779 0.92951 0.0
C691 C 0.12484 0.66053 0.91152 0.0
H692 H 0.29653 0.42909 0.86849 0.0
H693 H 0.30996 0.43885 0.06944 0.0
H694 H 0.34065 0.45222 0.04242 0.0
H695 H 0.36363 0.46139 0.96189 0.0
H696 H 0.35031 0.45244 0.7607 0.0
H697 H 0.31956 0.43842 0.78781 0.0
C698 C 0.30616 0.43411 0.90642 0.0
C699 C 0.30096 0.43296 0.97087 0.0
C700 C 0.32378 0.4419 0.89054 0.0
C701 C 0.31361 0.43961 0.0194 0.0
C702 C 0.33116 0.44723 0.00403 0.0
C703 C 0.354 0.4563 0.92395 0.0
C704 C 0.35924 0.45791 0.85941 0.0
C705 C 0.33638 0.44847 0.93979 0.0
C706 C 0.34661 0.45137 0.81079 0.0
C707 C 0.32903 0.44336 0.82623 0.0
H708 H 0.101 0.4666 0.49313 0.0
H709 H 0.09749 0.4518 0.29376 0.0
H710 H 0.11272 0.43606 0.31746 0.0
H711 H 0.12664 0.42622 0.39474 0.0
H712 H 0.13088 0.44153 0.59367 0.0
H713 H 0.11574 0.45743 0.57006 0.0
C714 C 0.10356 0.45992 0.45485 0.0
C715 C 0.09804 0.46029 0.39184 0.0
C716 C 0.11243 0.45101 0.4687 0.0
C717 C 0.1016 0.45172 0.34266 0.0
C718 C 0.11028 0.44269 0.35618 0.0
C719 C 0.12425 0.43302 0.43302 0.0
C720 C 0.12978 0.43262 0.49593 0.0
C721 C 0.11568 0.4422 0.41903 0.0
C722 C 0.12674 0.44164 0.54483 0.0
C723 C 0.11807 0.4507 0.53138 0.0
H724 H 0.53834 0.63321 0.43461 0.0
H725 H 0.51955 0.64718 0.26677 0.0
H726 H 0.53462 0.67746 0.30102 0.0
H727 H 0.55295 0.69982 0.37875 0.0
H728 H 0.57167 0.68576 0.54662 0.0
H729 H 0.55668 0.65554 0.51213 0.0
C730 C 0.53756 0.64286 0.40533 0.0
C731 C 0.52784 0.63794 0.34819 0.0
C732 C 0.54617 0.66019 0.42541 0.0
C733 C 0.52695 0.65063 0.31095 0.0
C734 C 0.53554 0.66793 0.33054 0.0
C735 C 0.55373 0.69016 0.40794 0.0
C736 C 0.5634 0.69505 0.46524 0.0
C737 C 0.54514 0.67283 0.38776 0.0
C738 C 0.56431 0.68235 0.50235 0.0
C739 C 0.55576 0.66507 0.48264 0.0
H740 H 0.36473 0.89464 0.43928 0.0
H741 H 0.34561 0.8771 0.24736 0.0
H742 H 0.31596 0.86116 0.28851 0.0
H743 H 0.29549 0.85337 0.37815 0.0
H744 H 0.31478 0.87131 0.56967 0.0
H745 H 0.34446 0.88592 0.52924 0.0
C746 C 0.35411 0.88728 0.40633 0.0
C747 C 0.35737 0.88716 0.34025 0.0
C748 C 0.33715 0.87828 0.43019 0.0
C749 C 0.34345 0.87745 0.29841 0.0
C750 C 0.3265 0.86836 0.32189 0.0
C751 C 0.30618 0.8604 0.41118 0.0
C752 C 0.30291 0.86134 0.47682 0.0
C753 C 0.3232 0.86886 0.38757 0.0
C754 C 0.31692 0.87043 0.51893 0.0
C755 C 0.3339 0.87881 0.49584 0.0
H756 H 0.1067 0.21503 0.81381 0.0
H757 H 0.10177 0.26015 0.84931 0.0
H758 H 0.11688 0.26495 0.95102 0.0
H759 H 0.1321 0.257 0.02849 0.0
H760 H 0.13783 0.21235 0.99442 0.0
H761 H 0.12166 0.20665 0.89375 0.0
C762 C 0.10889 0.22587 0.84391 0.0
C763 C 0.10315 0.23723 0.82373 0.0
C764 C 0.11771 0.22866 0.9026 0.0
C765 C 0.10609 0.25122 0.86338 0.0
C766 C 0.11472 0.254 0.9217 0.0
C767 C 0.12977 0.24595 -0.00067 0.0
C768 C 0.1362 0.23515 0.01885 0.0
C769 C 0.12067 0.24288 0.94154 0.0
C770 C 0.13302 0.22089 0.98041 0.0
C771 C 0.12381 0.21764 0.92281 0.0
H772 H 0.75878 0.90514 0.96844 0.0
H773 H 0.71227 0.85778 0.02003 0.0
H774 H 0.71597 0.84313 0.92787 0.0
H775 H 0.73191 0.8438 0.83154 0.0
H776 H 0.77842 0.89096 0.77872 0.0
H777 H 0.77521 0.9056 0.87256 0.0
C778 C 0.74949 0.8916 0.95964 0.0
C779 C 0.73524 0.88261 0.00102 0.0
C780 C 0.75166 0.8832 0.90628 0.0
C781 C 0.72334 0.86505 0.98896 0.0
C782 C 0.72543 0.85663 0.93619 0.0
C783 C 0.74138 0.85728 0.84048 0.0
C784 C 0.75535 0.86628 0.79802 0.0
C785 C 0.73946 0.86561 0.89435 0.0
C786 C 0.76753 0.88372 0.81059 0.0
C787 C 0.7657 0.89212 0.86423 0.0
H788 H 0.09284 0.85509 0.00088 0.0
H789 H 0.13692 0.84877 0.04097 0.0
H790 H 0.15191 0.86617 0.94727 0.0
H791 H 0.15262 0.8831 0.85408 0.0
H792 H 0.10885 0.88981 0.81309 0.0
H793 H 0.09363 0.87229 0.90694 0.0
C794 C 0.10574 0.85756 0.98916 0.0
C795 C 0.11373 0.85063 0.02794 0.0
C796 C 0.11434 0.86759 0.93499 0.0
C797 C 0.13044 0.85393 0.01205 0.0
C798 C 0.13905 0.86388 0.95838 0.0
C799 C 0.13973 0.88071 0.86547 0.0
C800 C 0.13188 0.88773 0.82656 0.0
C801 C 0.13111 0.87073 0.9195 0.0
C802 C 0.11519 0.88455 0.84224 0.0
C803 C 0.10648 0.87455 0.89593 0.0
H804 H 0.2637 0.10559 0.7363 0.0
H805 H 0.21677 0.10463 0.79504 0.0
H806 H 0.21802 0.12112 0.69938 0.0
H807 H 0.23245 0.13574 0.59885 0.0
H808 H 0.27921 0.13624 0.54054 0.0
H809 H 0.27795 0.11995 0.63627 0.0
C810 C 0.25376 0.10902 0.72837 0.0
C811 C 0.24019 0.10392 0.7728 0.0
C812 C 0.25449 0.11838 0.67324 0.0
C813 C 0.22737 0.1084 0.76156 0.0
C814 C 0.22806 0.11782 0.70687 0.0
C815 C 0.24235 0.13227 0.60708 0.0
C816 C 0.2559 0.13722 0.56258 0.0
C817 C 0.24155 0.12285 0.66232 0.0
C818 C 0.26862 0.1326 0.57393 0.0
C819 C 0.26793 0.12329 0.62873 0.0
H820 H 0.8457 0.08457 0.56633 0.0
H821 H 0.89579 0.11048 0.47395 0.0
H822 H 0.90896 0.12642 0.57277 0.0
H823 H 0.90582 0.13472 0.68198 0.0
H824 H 0.85564 0.10925 0.77374 0.0
H825 H 0.84293 0.09138 0.67823 0.0
C826 C 0.85954 0.09354 0.56792 0.0
C827 C 0.86971 0.09644 0.51253 0.0
C828 C 0.86697 0.10287 0.6245 0.0
C829 C 0.88764 0.10803 0.51572 0.0
C830 C 0.89517 0.11722 0.57214 0.0
C831 C 0.89211 0.1252 0.68133 0.0
C832 C 0.88165 0.12346 0.73469 0.0
C833 C 0.88489 0.11504 0.62625 0.0
C834 C 0.86396 0.11092 0.73322 0.0
C835 C 0.85669 0.1007 0.67861 0.0
H836 H 0.84433 0.74418 0.68908 0.0
H837 H 0.88968 0.78888 0.76523 0.0
H838 H 0.90609 0.79013 0.66917 0.0
H839 H 0.90774 0.7778 0.56505 0.0
H840 H 0.86202 0.73315 0.49015 0.0
H841 H 0.84557 0.73274 0.58407 0.0
C842 C 0.85782 0.7542 0.6848 0.0
C843 C 0.86581 0.76632 0.73445 0.0
C844 C 0.86711 0.75489 0.62954 0.0
C845 C 0.88323 0.77935 0.72773 0.0
C846 C 0.89262 0.78007 0.67283 0.0
C847 C 0.89414 0.76808 0.56905 0.0
C848 C 0.88617 0.75547 0.52076 0.0
C849 C 0.88472 0.76783 0.62359 0.0
C850 C 0.86853 0.74297 0.52666 0.0
C851 C 0.85909 0.74269 0.58047 0.0
H852 H 0.86767 0.73839 0.0205 0.0
H853 H 0.85368 0.77745 0.05857 0.0
H854 H 0.8698 0.78475 0.15958 0.0
H855 H 0.88722 0.77948 0.23834 0.0
H856 H 0.90083 0.74014 0.19961 0.0
H857 H 0.88548 0.73355 0.09753 0.0
C858 C 0.86818 0.74855 0.05069 0.0
C859 C 0.85944 0.75732 0.03209 0.0
C860 C 0.87735 0.75261 0.10871 0.0
C861 C 0.86028 0.77047 0.07181 0.0
C862 C 0.86947 0.77465 0.12962 0.0
C863 C 0.88686 0.7695 0.20751 0.0
C864 C 0.89512 0.76029 0.22677 0.0
C865 C 0.87795 0.76571 0.14877 0.0
C866 C 0.89456 0.74741 0.18613 0.0
C867 C 0.88578 0.74362 0.12767 0.0
H868 H 0.23012 0.08695 0.10241 0.0
H869 H 0.27332 0.13448 0.03107 0.0
H870 H 0.27214 0.14992 0.12543 0.0
H871 H 0.25953 0.14997 0.22901 0.0
H872 H 0.21641 0.10278 0.30243 0.0
H873 H 0.21689 0.0872 0.20635 0.0
C874 C 0.23921 0.10069 0.10742 0.0
C875 C 0.25182 0.1095 0.05982 0.0
C876 C 0.23854 0.10957 0.16221 0.0
C877 C 0.26351 0.12733 0.06702 0.0
C878 C 0.26287 0.13621 0.12102 0.0
C879 C 0.2502 0.13627 0.22414 0.0
C880 C 0.238 0.12754 0.27296 0.0
C881 C 0.25055 0.12744 0.16907 0.0
C882 C 0.22596 0.10981 0.26557 0.0
C883 C 0.22623 0.10089 0.21066 0.0
H884 H 0.87327 0.13854 0.26091 0.0
H885 H 0.85847 0.08849 0.17918 0.0
H886 H 0.87535 0.10239 0.083 0.0
H887 H 0.89346 0.12863 0.02039 0.0
H888 H 0.9082 0.17872 0.10159 0.0
H889 H 0.89231 0.16489 0.19974 0.0
C890 C 0.87377 0.13067 0.22216 0.0
C891 C 0.86453 0.1125 0.22721 0.0
C892 C 0.88351 0.13873 0.16683 0.0
C893 C 0.8654 0.1025 0.17658 0.0
C894 C 0.87506 0.11043 0.12148 0.0
C895 C 0.89332 0.13655 0.05972 0.0
C896 C 0.90198 0.15468 0.05347 0.0
C897 C 0.88406 0.12852 0.11588 0.0
C898 C 0.90166 0.16473 0.10501 0.0
C899 C 0.89253 0.15683 0.16117 0.0
H900 H 0.76765 0.89409 0.30026 0.0
H901 H 0.71582 0.88602 0.31773 0.0
H902 H 0.71175 0.87025 0.41772 0.0
H903 H 0.72268 0.85862 0.49962 0.0
H904 H 0.77416 0.86588 0.48245 0.0
H905 H 0.77862 0.88221 0.38291 0.0
C906 C 0.75547 0.88888 0.32595 0.0
C907 C 0.74207 0.89124 0.30148 0.0
C908 C 0.75316 0.87974 0.38348 0.0
C909 C 0.72635 0.88437 0.33531 0.0
C910 C 0.724 0.87537 0.39262 0.0
C911 C 0.73493 0.86383 0.47438 0.0
C912 C 0.74808 0.86108 0.49849 0.0
C913 C 0.73731 0.87298 0.41708 0.0
C914 C 0.76382 0.86783 0.46487 0.0
C915 C 0.76637 0.87715 0.40795 0.0
H916 H 0.10496 0.87513 0.3329 0.0
H917 H 0.11393 0.83183 0.3434 0.0
H918 H 0.13075 0.84361 0.44133 0.0
H919 H 0.14268 0.8659 0.52417 0.0
H920 H 0.13426 0.90952 0.51443 0.0
H921 H 0.11739 0.89785 0.41585 0.0
C922 C 0.11062 0.86829 0.35655 0.0
C923 C 0.10816 0.85261 0.33086 0.0
C924 C 0.12031 0.87514 0.41298 0.0
C925 C 0.11562 0.84393 0.36204 0.0
C926 C 0.12522 0.85063 0.41815 0.0
C927 C 0.13713 0.87287 0.50069 0.0
C928 C 0.13966 0.88852 0.52673 0.0
C929 C 0.12759 0.86617 0.4441 0.0
C930 C 0.13248 0.89743 0.49536 0.0
C931 C 0.12284 0.89077 0.43902 0.0
H932 H 0.09236 0.22437 0.48916 0.0
H933 H 0.13684 0.27398 0.535 0.0
H934 H 0.15208 0.27192 0.4413 0.0
H935 H 0.15283 0.25623 0.34621 0.0
H936 H 0.10865 0.20646 0.30013 0.0
H937 H 0.09326 0.20844 0.39402 0.0
C938 C 0.10539 0.23471 0.47871 0.0
C939 C 0.11342 0.24931 0.51907 0.0
C940 C 0.11414 0.23346 0.42463 0.0
C941 C 0.13033 0.26258 0.50485 0.0
C942 C 0.13907 0.26144 0.45117 0.0
C943 C 0.13981 0.24581 0.35653 0.0
C944 C 0.13189 0.23124 0.31609 0.0
C945 C 0.13109 0.24697 0.41069 0.0
C946 C 0.11506 0.21783 0.33047 0.0
C947 C 0.10624 0.21894 0.38416 0.0
H948 H 0.81097 0.56978 0.31106 0.0
H949 H 0.82606 0.62398 0.31564 0.0
H950 H 0.80845 0.62019 0.2212 0.0
H951 H 0.78781 0.60147 0.14068 0.0
H952 H 0.77199 0.54712 0.13503 0.0
H953 H 0.79089 0.55102 0.22642 0.0
C954 C 0.81052 0.58077 0.29094 0.0
C955 C 0.81973 0.5971 0.32059 0.0
C956 C 0.80016 0.57848 0.23676 0.0
C957 C 0.819 0.61123 0.29409 0.0
C958 C 0.80892 0.6091 0.24004 0.0
C959 C 0.78849 0.59044 0.1592 0.0
C960 C 0.77841 0.57401 0.13135 0.0
C961 C 0.79927 0.59276 0.21163 0.0
C962 C 0.77958 0.55992 0.15575 0.0
C963 C 0.79037 0.56214 0.20801 0.0
H964 H 0.44668 0.21393 0.13724 0.0
H965 H 0.39379 0.17195 0.12442 0.0
H966 H 0.3861 0.18293 0.21849 0.0
H967 H 0.39435 0.20413 0.305 0.0
H968 H 0.44707 0.24635 0.31821 0.0
H969 H 0.45486 0.23553 0.22338 0.0
C970 C 0.43346 0.20722 0.15489 0.0
C971 C 0.42086 0.19213 0.12382 0.0
C972 C 0.4291 0.21359 0.2092 0.0
C973 C 0.40377 0.1836 0.14733 0.0
C974 C 0.39935 0.18984 0.20124 0.0
C975 C 0.40757 0.21097 0.2873 0.0
C976 C 0.42012 0.22598 0.31876 0.0
C977 C 0.41192 0.20476 0.2327 0.0
C978 C 0.43715 0.23474 0.29488 0.0
C979 C 0.44162 0.22857 0.24066 0.0
H980 H 0.77936 0.22436 0.04344 0.0
H981 H 0.82456 0.21845 0.05347 0.0
H982 H 0.81319 0.20074 0.14949 0.0
H983 H 0.79055 0.1868 0.23009 0.0
H984 H 0.74496 0.19197 0.22093 0.0
H985 H 0.75641 0.21016 0.12513 0.0
C986 C 0.78672 0.2192 0.06666 0.0
C987 C 0.80279 0.22274 0.04118 0.0
C988 C 0.78007 0.20892 0.12202 0.0
C989 C 0.81214 0.21592 0.07185 0.0
C990 C 0.80567 0.20579 0.1269 0.0
C991 C 0.7831 0.19193 0.20738 0.0
C992 C 0.76694 0.18805 0.23266 0.0
C993 C 0.78967 0.20221 0.15232 0.0
C994 C 0.75745 0.19476 0.20238 0.0
C995 C 0.76398 0.20515 0.1476 0.0
H996 H 0.88209 0.46212 0.86887 0.0
H997 H 0.91754 0.44868 0.77947 0.0
H998 H 0.91656 0.43221 0.87416 0.0
H999 H 0.90716 0.42308 0.98392 0.0
H1000 H 0.87188 0.43629 0.07579 0.0
H1001 H 0.87126 0.4514 0.97833 0.0
C1002 C 0.88941 0.4554 0.86988 0.0
C1003 C 0.89997 0.45673 0.81739 0.0
C1004 C 0.88897 0.44608 0.92502 0.0
C1005 C 0.90941 0.44798 0.81939 0.0
C1006 C 0.9089 0.43857 0.87356 0.0
C1007 C 0.89931 0.42926 0.98281 0.0
C1008 C 0.88974 0.42875 0.03723 0.0
C1009 C 0.89901 0.43783 0.92699 0.0
C1010 C 0.87943 0.43657 0.03455 0.0
C1011 C 0.87908 0.44521 0.97889 0.0
H1012 H 0.54801 0.46928 0.1019 0.0
H1013 H 0.59417 0.47471 0.0123 0.0
H1014 H 0.57677 0.45578 0.92468 0.0
H1015 H 0.54876 0.43934 0.87 0.0
H1016 H 0.50266 0.43413 0.95943 0.0
H1017 H 0.51977 0.45124 0.0509 0.0
C1018 C 0.55427 0.46624 0.06345 0.0
C1019 C 0.57238 0.47355 0.06334 0.0
C1020 C 0.54422 0.45544 0.01307 0.0
C1021 C 0.58025 0.46932 0.01348 0.0
C1022 C 0.57032 0.45853 0.96325 0.0
C1023 C 0.54241 0.44182 0.90973 0.0
C1024 C 0.52447 0.43559 0.90754 0.0
C1025 C 0.55234 0.45177 0.962 0.0
C1026 C 0.51646 0.43881 0.95968 0.0
C1027 C 0.52624 0.44864 0.01199 0.0
H1028 H 0.54469 0.06791 0.91739 0.0
H1029 H 0.58903 0.11945 0.92883 0.0
H1030 H 0.5782 0.12428 0.0304 0.0
H1031 H 0.55565 0.11396 0.11436 0.0
H1032 H 0.5116 0.06217 0.10127 0.0
H1033 H 0.52294 0.05734 0.00194 0.0
C1034 C 0.55201 0.08024 0.94193 0.0
C1035 C 0.56757 0.09335 0.9154 0.0
C1036 C 0.54579 0.08286 9e-05 0.0
C1037 C 0.57698 0.10916 0.94824 0.0
C1038 C 0.5708 0.11192 0.00627 0.0
C1039 C 0.5486 0.10158 0.08999 0.0
C1040 C 0.53276 0.08849 0.11516 0.0
C1041 C 0.55516 0.09887 0.03249 0.0
C1042 C 0.5238 0.07251 0.08299 0.0
C1043 C 0.53024 0.06972 0.02605 0.0
H1044 H 0.53146 0.10801 0.4394 0.0
H1045 H 0.52535 0.0576 0.40101 0.0
H1046 H 0.54283 0.06028 0.49446 0.0
H1047 H 0.55992 0.07671 0.58643 0.0
H1048 H 0.56669 0.12725 0.62659 0.0
H1049 H 0.54885 0.12469 0.53321 0.0
C1050 C 0.53396 0.09763 0.45156 0.0
C1051 C 0.52708 0.08264 0.41314 0.0
C1052 C 0.54412 0.09923 0.50569 0.0
C1053 C 0.53046 0.06931 0.42956 0.0
C1054 C 0.54047 0.07079 0.4831 0.0
C1055 C 0.55748 0.08719 0.57505 0.0
C1056 C 0.56462 0.10214 0.61352 0.0
C1057 C 0.54735 0.08567 0.52141 0.0
C1058 C 0.56135 0.11558 0.59777 0.0
C1059 C 0.55116 0.11413 0.54436 0.0
H1060 H 0.92356 0.45481 0.32732 0.0
H1061 H 0.87863 0.40419 0.35379 0.0
H1062 H 0.87149 0.41405 0.45278 0.0
H1063 H 0.87808 0.43714 0.53169 0.0
H1064 H 0.9233 0.48757 0.50448 0.0
H1065 H 0.93022 0.47764 0.40577 0.0
C1066 C 0.91219 0.4459 0.35461 0.0
C1067 C 0.90164 0.4288 0.33312 0.0
C1068 C 0.9082 0.45163 0.41136 0.0
C1069 C 0.88698 0.41743 0.36929 0.0
C1070 C 0.88288 0.42306 0.42587 0.0
C1071 C 0.88943 0.44596 0.50412 0.0
C1072 C 0.90013 0.46308 0.52548 0.0
C1073 C 0.8934 0.44015 0.44734 0.0
C1074 C 0.91483 0.47433 0.48925 0.0
C1075 C 0.91881 0.46867 0.43272 0.0
H1076 H 0.56403 0.47253 0.60437 0.0
H1077 H 0.53483 0.42002 0.53396 0.0
H1078 H 0.54825 0.4294 0.42864 0.0
H1079 H 0.56579 0.45287 0.35363 0.0
H1080 H 0.59419 0.50557 0.4226 0.0
H1081 H 0.58379 0.49569 0.53145 0.0
C1082 C 0.56078 0.4631 0.56626 0.0
C1083 C 0.54828 0.44565 0.57688 0.0
C1084 C 0.56834 0.46862 0.50536 0.0
C1085 C 0.54429 0.43358 0.52701 0.0
C1086 C 0.55195 0.43892 0.46665 0.0
C1087 C 0.56995 0.46218 0.39259 0.0
C1088 C 0.58057 0.47994 0.37976 0.0
C1089 C 0.56362 0.45647 0.45482 0.0
C1090 C 0.5859 0.49181 0.43098 0.0
C1091 C 0.57991 0.48619 0.49328 0.0
H1092 H 0.44773 0.22749 0.6278 0.0
H1093 H 0.39888 0.22606 0.65209 0.0
H1094 H 0.39323 0.20904 0.74958 0.0
H1095 H 0.40165 0.1941 0.8266 0.0
H1096 H 0.45015 0.19483 0.80389 0.0
H1097 H 0.45647 0.21269 0.70725 0.0
C1098 C 0.43587 0.22348 0.65451 0.0
C1099 C 0.42374 0.22801 0.6324 0.0
C1100 C 0.43263 0.21359 0.7108 0.0
C1101 C 0.40844 0.22272 0.6677 0.0
C1102 C 0.40517 0.21298 0.7236 0.0
C1103 C 0.41366 0.19818 0.80078 0.0
C1104 C 0.42539 0.1931 0.82238 0.0
C1105 C 0.41712 0.20828 0.74535 0.0
C1106 C 0.44088 0.19856 0.78825 0.0
C1107 C 0.44449 0.20874 0.73295 0.0
H1108 H 0.76634 0.21164 0.54378 0.0
H1109 H 0.77203 0.16627 0.54977 0.0
H1110 H 0.78921 0.17685 0.64736 0.0
H1111 H 0.80259 0.19876 0.73093 0.0
H1112 H 0.79782 0.2446 0.72526 0.0
H1113 H 0.78023 0.23399 0.6277 0.0
C1114 C 0.77136 0.20409 0.5664 0.0
C1115 C 0.76787 0.18819 0.53942 0.0
C1116 C 0.78133 0.21027 0.62266 0.0
C1117 C 0.77452 0.17858 0.5693 0.0
C1118 C 0.78433 0.18458 0.62528 0.0
C1119 C 0.79764 0.20642 0.70864 0.0
C1120 C 0.80143 0.2224 0.73546 0.0
C1121 C 0.78778 0.20037 0.6524 0.0
C1122 C 0.79506 0.23223 0.70554 0.0
C1123 C 0.78502 0.22618 0.64977 0.0
H1124 H 0.76631 0.59656 0.74974 0.0
H1125 H 0.75833 0.55008 0.84455 0.0
H1126 H 0.77563 0.5461 0.76219 0.0
H1127 H 0.79508 0.55731 0.66873 0.0
H1128 H 0.80472 0.60509 0.57983 0.0
H1129 H 0.78471 0.6071 0.65449 0.0
C1130 C 0.76808 0.58538 0.75178 0.0
C1131 C 0.76106 0.57362 0.80303 0.0
C1132 C 0.77854 0.58355 0.7058 0.0
C1133 C 0.76365 0.55932 0.8055 0.0
C1134 C 0.77359 0.55708 0.75861 0.0
C1135 C 0.79265 0.56806 0.66536 0.0
C1136 C 0.80142 0.58107 0.61914 0.0
C1137 C 0.78143 0.56935 0.70943 0.0
C1138 C 0.79824 0.59498 0.61544 0.0
C1139 C 0.78677 0.59613 0.65797 0.0
H1140 H 0.43411 0.92721 0.40825 0.0
H1141 H 0.43335 0.88022 0.35196 0.0
H1142 H 0.45011 0.88198 0.44768 0.0
H1143 H 0.4649 0.89695 0.54776 0.0
H1144 H 0.46506 0.94379 0.60255 0.0
H1145 H 0.44856 0.94192 0.50694 0.0
C1146 C 0.43763 0.91735 0.41665 0.0
C1147 C 0.43252 0.90363 0.37295 0.0
C1148 C 0.44713 0.91838 0.47166 0.0
C1149 C 0.43714 0.89093 0.38487 0.0
C1150 C 0.44671 0.89192 0.43959 0.0
C1151 C 0.46131 0.90672 0.53874 0.0
C1152 C 0.46623 0.92048 0.5823 0.0
C1153 C 0.45175 0.90559 0.48341 0.0
C1154 C 0.46146 0.93305 0.56995 0.0
C1155 C 0.45202 0.93202 0.51519 0.0
H1156 H 0.09429 0.56405 0.61924 0.0
H1157 H 0.05325 0.5157 0.69477 0.0
H1158 H 0.05519 0.50036 0.6012 0.0
H1159 H 0.06725 0.50083 0.49566 0.0
H1160 H 0.10815 0.54893 0.41838 0.0
H1161 H 0.10758 0.56421 0.51521 0.0
C1162 C 0.0859 0.55013 0.61552 0.0
C1163 C 0.07355 0.54106 0.66372 0.0
C1164 C 0.08695 0.54137 0.56115 0.0
C1165 C 0.0628 0.52303 0.65823 0.0
C1166 C 0.06386 0.51423 0.60466 0.0
C1167 C 0.07607 0.51466 0.49991 0.0
C1168 C 0.08759 0.52377 0.44962 0.0
C1169 C 0.07566 0.52331 0.5554 0.0
C1170 C 0.0991 0.54163 0.45633 0.0
C1171 C 0.09877 0.55038 0.51163 0.0
H1172 H 0.45794 0.54185 0.64757 0.0
H1173 H 0.40595 0.50789 0.57926 0.0
H1174 H 0.41328 0.52299 0.47615 0.0
H1175 H 0.43505 0.54462 0.4029 0.0
H1176 H 0.48713 0.57806 0.47179 0.0
H1177 H 0.47909 0.56444 0.57707 0.0
C1178 C 0.44816 0.53781 0.61037 0.0
C1179 C 0.43148 0.52367 0.621 0.0
C1180 C 0.45249 0.54642 0.55105 0.0
C1181 C 0.41893 0.5187 0.5723 0.0
C1182 C 0.42311 0.52731 0.51323 0.0
C1183 C 0.44458 0.54904 0.44114 0.0
C1184 C 0.46169 0.56224 0.42919 0.0
C1185 C 0.43994 0.54101 0.50168 0.0
C1186 C 0.47389 0.56784 0.47938 0.0
C1187 C 0.46932 0.56005 0.53972 0.0
H1188 H 0.6003 0.81063 0.11873 0.0
H1189 H 0.54798 0.8014 0.12933 0.0
H1190 H 0.54269 0.78351 0.22508 0.0
H1191 H 0.55324 0.77114 0.30727 0.0
H1192 H 0.60586 0.78112 0.2967 0.0
H1193 H 0.61068 0.79812 0.19937 0.0
C1194 C 0.58769 0.80464 0.14166 0.0
C1195 C 0.57456 0.80735 0.11689 0.0
C1196 C 0.58481 0.79458 0.1969 0.0
C1197 C 0.55832 0.79953 0.14744 0.0
C1198 C 0.55529 0.78932 0.20224 0.0
C1199 C 0.56575 0.777 0.2836 0.0
C1200 C 0.57917 0.77487 0.30938 0.0
C1201 C 0.5685 0.78687 0.22766 0.0
C1202 C 0.59531 0.78257 0.27809 0.0
C1203 C 0.59809 0.79229 0.22233 0.0
H1204 H 0.22482 0.78364 0.32141 0.0
H1205 H 0.21371 0.82559 0.31882 0.0
H1206 H 0.19589 0.81343 0.2232 0.0
H1207 H 0.18323 0.79087 0.14125 0.0
H1208 H 0.19374 0.74855 0.14386 0.0
H1209 H 0.21212 0.76096 0.23856 0.0
C1210 C 0.21852 0.79013 0.29991 0.0
C1211 C 0.2206 0.8055 0.32732 0.0
C1212 C 0.20822 0.78304 0.24494 0.0
C1213 C 0.21232 0.81373 0.29885 0.0
C1214 C 0.20213 0.80681 0.24409 0.0
C1215 C 0.18959 0.78437 0.16227 0.0
C1216 C 0.18713 0.76882 0.13548 0.0
C1217 C 0.19997 0.79147 0.21685 0.0
C1218 C 0.19541 0.76054 0.16357 0.0
C1219 C 0.20591 0.76762 0.21773 0.0
H1220 H 0.19885 0.40622 0.19093 0.0
H1221 H 0.25154 0.44357 0.2417 0.0
H1222 H 0.24163 0.44872 0.34473 0.0
H1223 H 0.21807 0.44096 0.42339 0.0
H1224 H 0.16568 0.40281 0.37129 0.0
H1225 H 0.17547 0.39964 0.26589 0.0
C1226 C 0.2082 0.41561 0.22418 0.0
C1227 C 0.22591 0.42439 0.20886 0.0
C1228 C 0.20248 0.41826 0.28345 0.0
C1229 C 0.23781 0.43659 0.25242 0.0
C1230 C 0.23217 0.43949 0.31144 0.0
C1231 C 0.20881 0.43206 0.38877 0.0
C1232 C 0.19121 0.42202 0.40556 0.0
C1233 C 0.21455 0.43014 0.32799 0.0
C1234 C 0.17934 0.41057 0.36005 0.0
C1235 C 0.1849 0.40876 0.29957 0.0
H1236 H 0.2236 0.40049 0.88087 0.0
H1237 H 0.22688 0.44903 0.93131 0.0
H1238 H 0.20943 0.44688 0.83752 0.0
H1239 H 0.19291 0.43099 0.74176 0.0
H1240 H 0.1901 0.38264 0.69137 0.0
H1241 H 0.2077 0.385 0.78447 0.0
C1242 C 0.2205 0.41061 0.87143 0.0
C1243 C 0.22649 0.42486 0.91321 0.0
C1244 C 0.21054 0.40934 0.81735 0.0
C1245 C 0.22244 0.43791 0.89995 0.0
C1246 C 0.21244 0.43669 0.84633 0.0
C1247 C 0.19617 0.42099 0.7511 0.0
C1248 C 0.19014 0.40665 0.70964 0.0
C1249 C 0.20638 0.42243 0.80479 0.0
C1250 C 0.19455 0.39384 0.72237 0.0
C1251 C 0.20462 0.39515 0.77571 0.0
H1252 H 0.55097 0.78748 0.80473 0.0
H1253 H 0.60033 0.83495 0.7989 0.0
H1254 H 0.60819 0.82517 0.70205 0.0
H1255 H 0.60146 0.80303 0.62057 0.0
H1256 H 0.55249 0.7552 0.62633 0.0
H1257 H 0.54404 0.76531 0.72149 0.0
C1258 C 0.56342 0.79569 0.78218 0.0
C1259 C 0.57504 0.8119 0.80919 0.0
C1260 C 0.56794 0.78996 0.72648 0.0
C1261 C 0.59114 0.82239 0.77934 0.0
C1262 C 0.59566 0.81682 0.72384 0.0
C1263 C 0.58889 0.79482 0.64231 0.0
C1264 C 0.57764 0.77838 0.6164 0.0
C1265 C 0.58421 0.80062 0.69722 0.0
C1266 C 0.56141 0.76792 0.64538 0.0
C1267 C 0.55658 0.77368 0.69984 0.0
H1268 H 0.20718 0.76397 0.81849 0.0
H1269 H 0.1629 0.77147 0.82116 0.0
H1270 H 0.17361 0.78959 0.72567 0.0
H1271 H 0.19557 0.80361 0.64248 0.0
H1272 H 0.24024 0.7968 0.63962 0.0
H1273 H 0.22927 0.77802 0.73404 0.0
C1274 C 0.19987 0.76956 0.79815 0.0
C1275 C 0.18428 0.76638 0.82706 0.0
C1276 C 0.20613 0.78006 0.74319 0.0
C1277 C 0.17496 0.77373 0.80007 0.0
C1278 C 0.18106 0.78409 0.74536 0.0
C1279 C 0.2029 0.79797 0.66222 0.0
C1280 C 0.2187 0.80159 0.63401 0.0
C1281 C 0.19663 0.78736 0.71666 0.0
C1282 C 0.22804 0.79422 0.66045 0.0
C1283 C 0.22179 0.78349 0.71447 0.0
H1284 H 0.09833 0.548 0.94816 0.0
H1285 H 0.05354 0.55364 0.98078 0.0
H1286 H 0.04803 0.53812 0.08231 0.0
H1287 H 0.05551 0.52249 0.16071 0.0
H1288 H 0.09986 0.51617 0.1278 0.0
H1289 H 0.10598 0.53249 0.02752 0.0
C1290 C 0.0874 0.54589 0.97756 0.0
C1291 C 0.07637 0.55197 0.95681 0.0
C1292 C 0.08421 0.53683 0.03579 0.0
C1293 C 0.06223 0.54907 0.99546 0.0
C1294 C 0.05906 0.5402 0.0536 0.0
C1295 C 0.06657 0.52474 0.13183 0.0
C1296 C 0.07721 0.51813 0.15175 0.0
C1297 C 0.06991 0.53396 0.07407 0.0
C1298 C 0.09145 0.52111 0.11354 0.0
C1299 C 0.09495 0.53043 0.05617 0.0
H1300 H 0.43137 0.54493 0.91652 0.0
H1301 H 0.432 0.49755 0.95364 0.0
H1302 H 0.44705 0.50927 0.05457 0.0
H1303 H 0.46062 0.53295 0.13105 0.0
H1304 H 0.46116 0.58091 0.09496 0.0
H1305 H 0.44497 0.56892 0.99512 0.0
C1306 C 0.43476 0.53717 0.94684 0.0
C1307 C 0.43061 0.52041 0.92731 0.0
C1308 C 0.44361 0.54406 0.00501 0.0
C1309 C 0.43513 0.51053 0.96712 0.0
C1310 C 0.44371 0.5172 0.02505 0.0
C1311 C 0.45714 0.5408 0.10167 0.0
C1312 C 0.46209 0.55779 0.12047 0.0
C1313 C 0.44809 0.53395 0.04424 0.0
C1314 C 0.45751 0.56777 0.08155 0.0
C1315 C 0.44827 0.56093 0.02442 0.0
H1316 H 0.47737 0.92954 0.91039 0.0
H1317 H 0.43284 0.88182 0.84843 0.0
H1318 H 0.41687 0.88188 0.94392 0.0
H1319 H 0.41569 0.89552 0.04563 0.0
H1320 H 0.4607 0.94309 0.1064 0.0
H1321 H 0.47629 0.94297 0.01079 0.0
C1322 C 0.46415 0.91916 0.91752 0.0
C1323 C 0.45631 0.90572 0.87228 0.0
C1324 C 0.45512 0.91921 0.9725 0.0
C1325 C 0.43919 0.89234 0.88254 0.0
C1326 C 0.43005 0.89235 0.93715 0.0
C1327 C 0.42891 0.90584 0.0379 0.0
C1328 C 0.43699 0.91928 0.08317 0.0
C1329 C 0.4379 0.90572 0.98258 0.0
C1330 C 0.45414 0.93256 0.07247 0.0
C1331 C 0.4631 0.93254 0.01771 0.0
H1332 H 0.23479 0.34645 0.01249 0.0
H1333 H 0.23183 0.36938 0.19142 0.0
H1334 H 0.21739 0.34096 0.24214 0.0
H1335 H 0.20415 0.30946 0.23453 0.0
H1336 H 0.20666 0.28629 0.05568 0.0
H1337 H 0.22285 0.31492 0.00656 0.0
C1338 C 0.23109 0.34525 0.06268 0.0
C1339 C 0.2343 0.36004 0.09782 0.0
C1340 C 0.22267 0.3288 0.0917 0.0
C1341 C 0.22947 0.35823 0.16297 0.0
C1342 C 0.22119 0.34196 0.19215 0.0
C1343 C 0.20835 0.31066 0.18497 0.0
C1344 C 0.20408 0.29572 0.14883 0.0
C1345 C 0.21751 0.32714 0.15677 0.0
C1346 C 0.20972 0.29755 0.08467 0.0
C1347 C 0.21894 0.31393 0.05641 0.0
H1348 H 0.69056 0.9125 0.03329 0.0
H1349 H 0.67041 0.89718 0.22554 0.0
H1350 H 0.64093 0.88533 0.18515 0.0
H1351 H 0.62086 0.87662 0.09421 0.0
H1352 H 0.64094 0.89129 0.90159 0.0
H1353 H 0.67048 0.9063 0.94345 0.0
C1354 C 0.67974 0.90677 0.06653 0.0
C1355 C 0.68269 0.90551 0.13222 0.0
C1356 C 0.6628 0.89977 0.0429 0.0
C1357 C 0.66852 0.8982 0.17467 0.0
C1358 C 0.65164 0.89137 0.1516 0.0
C1359 C 0.63167 0.88329 0.06137 0.0
C1360 C 0.62869 0.88262 0.99477 0.0
C1361 C 0.64862 0.89167 0.08562 0.0
C1362 C 0.64285 0.89149 0.95304 0.0
C1363 C 0.65977 0.90004 0.97691 0.0
H1364 H 0.11813 0.74515 0.11191 0.0
H1365 H 0.10398 0.75341 0.92222 0.0
H1366 H 0.08864 0.76706 0.96897 0.0
H1367 H 0.08229 0.77965 0.06252 0.0
H1368 H 0.09738 0.7723 0.25185 0.0
H1369 H 0.10912 0.75508 0.20628 0.0
C1370 C 0.11148 0.7497 0.08073 0.0
C1371 C 0.11243 0.74849 0.01359 0.0
C1372 C 0.10296 0.75782 0.10783 0.0
C1373 C 0.10359 0.7543 0.97403 0.0
C1374 C 0.09486 0.76216 0.00071 0.0
C1375 C 0.0879 0.77407 0.09402 0.0
C1376 C 0.08918 0.77749 0.16043 0.0
C1377 C 0.09492 0.76446 0.0674 0.0
C1378 C 0.09636 0.77001 0.20051 0.0
C1379 C 0.10313 0.7602 0.17447 0.0
H1380 H 0.30115 0.20922 0.48738 0.0
H1381 H 0.31117 0.2068 0.28579 0.0
H1382 H 0.34223 0.22505 0.30458 0.0
H1383 H 0.36658 0.23943 0.37973 0.0
H1384 H 0.3565 0.24148 0.58154 0.0
H1385 H 0.32539 0.22577 0.5609 0.0
C1386 C 0.31011 0.21281 0.44739 0.0
C1387 C 0.30386 0.20647 0.38543 0.0
C1388 C 0.32794 0.22317 0.45859 0.0
C1389 C 0.31563 0.21142 0.33405 0.0
C1390 C 0.33341 0.22182 0.34477 0.0
C1391 C 0.3576 0.23663 0.41914 0.0
C1392 C 0.36387 0.24144 0.4822 0.0
C1393 C 0.33972 0.22743 0.40708 0.0
C1394 C 0.35204 0.23784 0.53258 0.0
C1395 C 0.33423 0.2288 0.52088 0.0
H1396 H 0.76115 0.1138 0.47213 0.0
H1397 H 0.74925 0.11817 0.27437 0.0
H1398 H 0.76497 0.10367 0.23938 0.0
H1399 H 0.78403 0.09182 0.26461 0.0
H1400 H 0.79656 0.08858 0.46271 0.0
H1401 H 0.77865 0.10055 0.49765 0.0
C1402 C 0.76178 0.11141 0.42139 0.0
C1403 C 0.75413 0.11717 0.37598 0.0
C1404 C 0.77112 0.1034 0.40153 0.0
C1405 C 0.75509 0.11392 0.31041 0.0
C1406 C 0.76413 0.10568 0.2903 0.0
C1407 C 0.78272 0.0936 0.31542 0.0
C1408 C 0.79177 0.08945 0.36083 0.0
C1409 C 0.77252 0.10071 0.33537 0.0
C1410 C 0.78989 0.0918 0.42657 0.0
C1411 C 0.77962 0.09863 0.44672 0.0
H1412 H 0.90902 0.71101 0.49854 0.0
H1413 H 0.91696 0.69737 0.30754 0.0
H1414 H 0.90259 0.66684 0.33828 0.0
H1415 H 0.88519 0.64389 0.4159 0.0
H1416 H 0.87644 0.65766 0.60557 0.0
H1417 H 0.89389 0.68832 0.57882 0.0
C1418 C 0.90781 0.7014 0.46374 0.0
C1419 C 0.91386 0.70645 0.40058 0.0
C1420 C 0.89929 0.68388 0.48137 0.0
C1421 C 0.91232 0.69384 0.35636 0.0
C1422 C 0.90406 0.67636 0.37385 0.0
C1423 C 0.8873 0.65359 0.45175 0.0
C1424 C 0.87935 0.64848 0.51241 0.0
C1425 C 0.89709 0.67121 0.4357 0.0
C1426 C 0.88228 0.66122 0.55833 0.0
C1427 C 0.89223 0.67877 0.54306 0.0
H1428 H 0.79199 0.69954 0.97004 0.0
H1429 H 0.79302 0.68502 0.77285 0.0
H1430 H 0.77771 0.65448 0.80316 0.0
H1431 H 0.76558 0.63205 0.88633 0.0
H1432 H 0.76495 0.64654 0.08385 0.0
H1433 H 0.77847 0.67696 0.05246 0.0
C1434 C 0.78875 0.68971 0.93353 0.0
C1435 C 0.79376 0.6946 0.86931 0.0
C1436 C 0.78008 0.67217 0.95135 0.0
C1437 C 0.78939 0.68165 0.82268 0.0
C1438 C 0.78066 0.66417 0.83996 0.0
C1439 C 0.76828 0.64183 0.92255 0.0
C1440 C 0.76437 0.63701 0.98745 0.0
C1441 C 0.77618 0.6593 0.90429 0.0
C1442 C 0.76788 0.64987 0.03359 0.0
C1443 C 0.77564 0.66728 0.01571 0.0
H1444 H 0.35583 0.11007 0.0425 0.0
H1445 H 0.37557 0.1251 0.84967 0.0
H1446 H 0.3461 0.11015 0.80736 0.0
H1447 H 0.31471 0.09552 0.82629 0.0
H1448 H 0.29512 0.08123 0.01969 0.0
H1449 H 0.32453 0.09305 0.06027 0.0
C1450 C 0.35373 0.10988 0.99112 0.0
C1451 C 0.36789 0.11889 0.94951 0.0
C1452 C 0.33674 0.10151 0.96714 0.0
C1453 C 0.3649 0.11838 0.88296 0.0
C1454 C 0.34804 0.10988 0.85865 0.0
C1455 C 0.31685 0.09478 0.87719 0.0
C1456 C 0.30273 0.08771 0.91989 0.0
C1457 C 0.33384 0.10183 0.90049 0.0
C1458 C 0.30575 0.08675 0.98571 0.0
C1459 C 0.32258 0.09353 0.00908 0.0
H1460 H 0.89238 0.20081 0.71163 0.0
H1461 H 0.90534 0.20557 0.91341 0.0
H1462 H 0.89375 0.22491 0.92842 0.0
H1463 H 0.8778 0.2385 0.88676 0.0
H1464 H 0.86431 0.23364 0.6857 0.0
H1465 H 0.8785 0.21658 0.66786 0.0
C1466 C 0.89281 0.2062 0.75876 0.0
C1467 C 0.89952 0.20153 0.81141 0.0
C1468 C 0.886 0.21729 0.76731 0.0
C1469 C 0.90011 0.20878 0.87206 0.0
C1470 C 0.89348 0.21987 0.8808 0.0
C1471 C 0.87812 0.23388 0.83883 0.0
C1472 C 0.86983 0.23717 0.78784 0.0
C1473 C 0.88607 0.2239 0.82911 0.0
C1474 C 0.87055 0.23126 0.7259 0.0
C1475 C 0.87858 0.22142 0.7157 0.0
H1476 H 0.7003 0.79233 0.5429 0.0
H1477 H 0.67957 0.78986 0.73262 0.0
H1478 H 0.65015 0.77401 0.68984 0.0
H1479 H 0.6305 0.76295 0.59752 0.0
H1480 H 0.65126 0.76587 0.40753 0.0
H1481 H 0.68052 0.77936 0.45177 0.0
C1482 C 0.68936 0.78819 0.5751 0.0
C1483 C 0.69215 0.79245 0.64079 0.0
C1484 C 0.67249 0.77926 0.5501 0.0
C1485 C 0.67781 0.78684 0.68182 0.0
C1486 C 0.66097 0.77781 0.65737 0.0
C1487 C 0.6414 0.76639 0.56577 0.0
C1488 C 0.6387 0.76357 0.49919 0.0
C1489 C 0.65819 0.77429 0.59141 0.0
C1490 C 0.65296 0.76797 0.4589 0.0
C1491 C 0.66971 0.77573 0.48414 0.0
H1492 H 0.20746 0.90978 0.57318 0.0
H1493 H 0.21083 0.89041 0.75961 0.0
H1494 H 0.22676 0.87739 0.71272 0.0
H1495 H 0.23731 0.86927 0.61755 0.0
H1496 H 0.23319 0.88797 0.43069 0.0
H1497 H 0.2201 0.90363 0.47931 0.0
C1498 C 0.21185 0.9029 0.60381 0.0
C1499 C 0.20778 0.90092 0.66976 0.0
C1500 C 0.22077 0.89522 0.57641 0.0
C1501 C 0.21369 0.89205 0.70867 0.0
C1502 C 0.22276 0.88455 0.68186 0.0
C1503 C 0.23374 0.87693 0.58744 0.0
C1504 C 0.23606 0.87728 0.52043 0.0
C1505 C 0.226 0.8857 0.61557 0.0
C1506 C 0.23146 0.88737 0.48231 0.0
C1507 C 0.22393 0.8963 0.51007 0.0
H1508 H 0.11196 0.35736 0.72677 0.0
H1509 H 0.12184 0.35514 0.52482 0.0
H1510 H 0.10555 0.32363 0.52817 0.0
H1511 H 0.09083 0.2968 0.59003 0.0
H1512 H 0.08131 0.29869 0.79241 0.0
H1513 H 0.09491 0.3302 0.78695 0.0
C1514 C 0.11037 0.34998 0.68334 0.0
C1515 C 0.11831 0.35862 0.62589 0.0
C1516 C 0.10112 0.3318 0.68565 0.0
C1517 C 0.11603 0.34885 0.56992 0.0
C1518 C 0.10671 0.33081 0.57171 0.0
C1519 C 0.09154 0.30406 0.63286 0.0
C1520 C 0.08526 0.29542 0.69167 0.0
C1521 C 0.09957 0.32216 0.62961 0.0
C1522 C 0.08613 0.30503 0.74654 0.0
C1523 C 0.09397 0.32306 0.74353 0.0
H1524 H 0.00578 0.55849 0.85293 0.0
H1525 H 0.02893 0.56987 0.66408 0.0
H1526 H 0.00033 0.55735 0.61499 0.0
H1527 H 0.96871 0.54079 0.62534 0.0
H1528 H 0.94553 0.52859 0.81412 0.0
H1529 H 0.97417 0.54396 0.86335 0.0
C1530 C 0.0046 0.55844 0.80106 0.0
C1531 C 0.01947 0.56494 0.76232 0.0
C1532 C 0.98808 0.55097 0.773 0.0
C1533 C 0.01769 0.56482 0.69513 0.0
C1534 C 0.00133 0.55764 0.66693 0.0
C1535 C 0.96989 0.54168 0.67724 0.0
C1536 C 0.95499 0.53339 0.71589 0.0
C1537 C 0.98642 0.5503 0.70534 0.0
C1538 C 0.95679 0.53474 0.78313 0.0
C1539 C 0.97317 0.54351 0.81141 0.0
H1540 H 0.44478 0.46719 0.60273 0.0
H1541 H 0.42794 0.44908 0.7962 0.0
H1542 H 0.44615 0.43583 0.7982 0.0
H1543 H 0.46791 0.43061 0.74728 0.0
H1544 H 0.48489 0.44876 0.55401 0.0
H1545 H 0.46555 0.46075 0.54984 0.0
C1546 C 0.44496 0.46021 0.64514 0.0
C1547 C 0.43506 0.45923 0.69932 0.0
C1548 C 0.45559 0.45273 0.64625 0.0
C1549 C 0.43546 0.4501 0.75383 0.0
C1550 C 0.44591 0.44255 0.75514 0.0
C1551 C 0.46737 0.43715 0.70415 0.0
C1552 C 0.47794 0.43889 0.65124 0.0
C1553 C 0.45622 0.44401 0.70201 0.0
C1554 C 0.47694 0.44728 0.59555 0.0
C1555 C 0.46588 0.45415 0.59309 0.0
H1556 H 0.54121 0.98013 0.84318 0.0
H1557 H 0.53398 0.96681 0.64172 0.0
H1558 H 0.55286 0.99713 0.61316 0.0
H1559 H 0.56953 0.02767 0.64501 0.0
H1560 H 0.5765 0.04106 0.84643 0.0
H1561 H 0.55979 0.01048 0.87516 0.0
C1562 C 0.54389 0.98383 0.79304 0.0
C1563 C 0.53603 0.97122 0.74474 0.0
C1564 C 0.55467 0.00133 0.77683 0.0
C1565 C 0.53977 0.97624 0.67997 0.0
C1566 C 0.55055 0.9936 0.66351 0.0
C1567 C 0.56757 0.02391 0.69521 0.0
C1568 C 0.57412 0.03667 0.74339 0.0
C1569 C 0.55779 0.0063 0.71149 0.0
C1570 C 0.57155 0.03153 0.80824 0.0
C1571 C 0.56194 0.01403 0.8248 0.0
H1572 H 0.44655 0.02484 0.15858 0.0
H1573 H 0.45854 0.03666 0.35968 0.0
H1574 H 0.44096 0.00602 0.38644 0.0
H1575 H 0.42484 0.97572 0.35171 0.0
H1576 H 0.41353 0.96382 0.15031 0.0
H1577 H 0.42801 0.99465 0.125 0.0
C1578 C 0.44513 0.02076 0.20836 0.0
C1579 C 0.45406 0.03302 0.25687 0.0
C1580 C 0.43521 0.00308 0.22341 0.0
C1581 C 0.45194 0.02749 0.32122 0.0
C1582 C 0.44192 0.00996 0.33664 0.0
C1583 C 0.42532 0.97985 0.30236 0.0
C1584 C 0.41832 0.96746 0.25296 0.0
C1585 C 0.43391 0.9976 0.28794 0.0
C1586 C 0.41894 0.97306 0.18932 0.0
C1587 C 0.42726 0.9907 0.17471 0.0
H1588 H 0.02332 0.45428 0.12478 0.0
H1589 H 0.01607 0.44621 0.32952 0.0
H1590 H 0.98467 0.43128 0.31522 0.0
H1591 H 0.95935 0.42193 0.24515 0.0
H1592 H 0.9668 0.43115 0.04092 0.0
H1593 H -0.00196 0.44417 0.05454 0.0
C1594 C 0.01488 0.44909 0.16624 0.0
C1595 C 0.02203 0.45138 0.22811 0.0
C1596 C 0.99686 0.44082 0.15783 0.0
C1597 C 0.0109 0.44468 0.28136 0.0
C1598 C 0.99294 0.43615 0.27325 0.0
C1599 C 0.96779 0.42666 0.20356 0.0
C1600 C 0.96075 0.42562 0.14216 0.0
C1601 C 0.98579 0.43437 0.2118 0.0
C1602 C 0.97188 0.43187 0.0888 0.0
C1603 C 0.98976 0.43931 0.09649 0.0
H1604 H 0.56723 0.54709 0.20793 0.0
H1605 H 0.53411 0.50309 0.327 0.0
H1606 H 0.51567 0.51542 0.34899 0.0
H1607 H 0.50864 0.5383 0.33367 0.0
H1608 H 0.54098 0.58213 0.21286 0.0
H1609 H 0.56005 0.57025 0.19243 0.0
C1610 C 0.55601 0.54024 0.23881 0.0
C1611 C 0.55206 0.52419 0.26572 0.0
C1612 C 0.54531 0.54734 0.25094 0.0
C1613 C 0.53742 0.51543 0.30543 0.0
C1614 C 0.52686 0.52248 0.31816 0.0
C1615 C 0.51989 0.54533 0.30302 0.0
C1616 C 0.52339 0.56109 0.27492 0.0
C1617 C 0.53065 0.53837 0.29104 0.0
C1618 C 0.53798 0.56995 0.23505 0.0
C1619 C 0.54889 0.56316 0.22336 0.0
loop_
_geom_bond_atom_site_label_1
_geom_bond_atom_site_label_2
_geom_bond_distance
_geom_bond_site_symmetry_2
_ccdc_geom_bond_type
C0 O1 1.160 . S
C0 O7 1.185 . S
O1 C0 1.160 . S
O2 Zn3 1.899 . S
O2 C10 1.284 . S
Zn3 O2 1.899 . S
Zn3 O4 2.032 . S
Zn3 O7 2.086 . S
Zn3 O12 1.977 . S
O4 Zn3 2.032 . S
O4 C8 1.278 . S
C5 O6 1.203 . S
C5 O12 1.267 . S
O6 C5 1.203 . S
O7 C0 1.185 . S
O7 Zn3 2.086 . S
C8 O4 1.278 . S
C8 O9 1.211 . S
O9 C8 1.211 . S
C10 O2 1.284 . S
C10 O11 1.273 . S
O11 C10 1.273 . S
O12 Zn3 1.977 . S
O12 C5 1.267 . S
C13 O14 1.160 . S
C13 O20 1.185 . S
O14 C13 1.160 . S
O15 Zn16 1.899 . S
O15 C23 1.284 . S
Zn16 O15 1.899 . S
Zn16 O17 2.032 . S
Zn16 O20 2.086 . S
Zn16 O25 1.977 . S
O17 Zn16 2.032 . S
O17 C21 1.278 . S
C18 O19 1.203 . S
C18 O25 1.267 . S
O19 C18 1.203 . S
O20 C13 1.185 . S
O20 Zn16 2.086 . S
C21 O17 1.278 . S
C21 O22 1.211 . S
O22 C21 1.211 . S
C23 O15 1.284 . S
C23 O24 1.273 . S
O24 C23 1.273 . S
O25 Zn16 1.977 . S
O25 C18 1.267 . S
C26 O27 1.160 . S
C26 O33 1.185 . S
O27 C26 1.160 . S
O28 Zn29 1.899 . S
O28 C36 1.284 . S
Zn29 O28 1.899 . S
Zn29 O30 2.032 . S
Zn29 O33 2.086 . S
Zn29 O38 1.977 . S
O30 Zn29 2.032 . S
O30 C34 1.278 . S
C31 O32 1.203 . S
C31 O38 1.267 . S
O32 C31 1.203 . S
O33 C26 1.185 . S
O33 Zn29 2.086 . S
C34 O30 1.278 . S
C34 O35 1.211 . S
O35 C34 1.211 . S
C36 O28 1.284 . S
C36 O37 1.273 . S
O37 C36 1.273 . S
O38 Zn29 1.977 . S
O38 C31 1.267 . S
C39 O40 1.160 . S
C39 O46 1.185 . S
O40 C39 1.160 . S
O41 Zn42 1.899 . S
O41 C49 1.284 . S
Zn42 O41 1.899 . S
Zn42 O43 2.032 . S
Zn42 O46 2.086 . S
Zn42 O51 1.977 . S
O43 Zn42 2.032 . S
O43 C47 1.278 . S
C44 O45 1.203 . S
C44 O51 1.267 . S
O45 C44 1.203 . S
O46 C39 1.185 . S
O46 Zn42 2.086 . S
C47 O43 1.278 . S
C47 O48 1.211 . S
O48 C47 1.211 . S
C49 O41 1.284 . S
C49 O50 1.273 . S
O50 C49 1.273 . S
O51 Zn42 1.977 . S
O51 C44 1.267 . S
C52 O53 1.160 . S
C52 O59 1.185 . S
O53 C52 1.160 . S
O54 Zn55 1.899 . S
O54 C62 1.284 . S
Zn55 O54 1.899 . S
Zn55 O56 2.032 . S
Zn55 O59 2.086 . S
Zn55 O64 1.977 . S
O56 Zn55 2.032 . S
O56 C60 1.278 . S
C57 O58 1.203 . S
C57 O64 1.267 . S
O58 C57 1.203 . S
O59 C52 1.185 . S
O59 Zn55 2.086 . S
C60 O56 1.278 . S
C60 O61 1.211 . S
O61 C60 1.211 . S
C62 O54 1.284 . S
C62 O63 1.273 . S
O63 C62 1.273 . S
O64 Zn55 1.977 . S
O64 C57 1.267 . S
C65 O66 1.160 . S
C65 O72 1.185 . S
O66 C65 1.160 . S
O67 Zn68 1.899 . S
O67 C75 1.284 . S
Zn68 O67 1.899 . S
Zn68 O69 2.032 . S
Zn68 O72 2.086 . S
Zn68 O77 1.977 . S
O69 Zn68 2.032 . S
O69 C73 1.278 . S
C70 O71 1.203 . S
C70 O77 1.267 . S
O71 C70 1.203 . S
O72 C65 1.185 . S
O72 Zn68 2.086 . S
C73 O69 1.278 . S
C73 O74 1.211 . S
O74 C73 1.211 . S
C75 O67 1.284 . S
C75 O76 1.273 . S
O76 C75 1.273 . S
O77 Zn68 1.977 . S
O77 C70 1.267 . S
C78 O79 1.160 . S
C78 O85 1.185 . S
O79 C78 1.160 . S
O80 Zn81 1.899 . S
O80 C88 1.284 . S
Zn81 O80 1.899 . S
Zn81 O82 2.032 . S
Zn81 O85 2.086 . S
Zn81 O90 1.977 . S
O82 Zn81 2.032 . S
O82 C86 1.278 . S
C83 O84 1.203 . S
C83 O90 1.267 . S
O84 C83 1.203 . S
O85 C78 1.185 . S
O85 Zn81 2.086 . S
C86 O82 1.278 . S
C86 O87 1.211 . S
O87 C86 1.211 . S
C88 O80 1.284 . S
C88 O89 1.273 . S
O89 C88 1.273 . S
O90 Zn81 1.977 . S
O90 C83 1.267 . S
C91 O92 1.160 . S
C91 O98 1.185 . S
O92 C91 1.160 . S
O93 Zn94 1.899 . S
O93 C101 1.284 . S
Zn94 O93 1.899 . S
Zn94 O95 2.032 . S
Zn94 O98 2.086 . S
Zn94 O103 1.977 . S
O95 Zn94 2.032 . S
O95 C99 1.278 . S
C96 O97 1.203 . S
C96 O103 1.267 . S
O97 C96 1.203 . S
O98 C91 1.185 . S
O98 Zn94 2.086 . S
C99 O95 1.278 . S
C99 O100 1.211 . S
O100 C99 1.211 . S
C101 O93 1.284 . S
C101 O102 1.273 . S
O102 C101 1.273 . S
O103 Zn94 1.977 . S
O103 C96 1.267 . S
C104 O105 1.160 . S
C104 O111 1.185 . S
O105 C104 1.160 . S
O106 Zn107 1.899 . S
O106 C114 1.284 . S
Zn107 O106 1.899 . S
Zn107 O108 2.032 . S
Zn107 O111 2.086 . S
Zn107 O116 1.977 . S
O108 Zn107 2.032 . S
O108 C112 1.278 . S
C109 O110 1.203 . S
C109 O116 1.267 . S
O110 C109 1.203 . S
O111 C104 1.185 . S
O111 Zn107 2.086 . S
C112 O108 1.278 . S
C112 O113 1.211 . S
O113 C112 1.211 . S
C114 O106 1.284 . S
C114 O115 1.273 . S
O115 C114 1.273 . S
O116 Zn107 1.977 . S
O116 C109 1.267 . S
C117 O118 1.160 . S
C117 O124 1.185 . S
O118 C117 1.160 . S
O119 Zn120 1.899 . S
O119 C127 1.284 . S
Zn120 O119 1.899 . S
Zn120 O121 2.032 . S
Zn120 O124 2.086 . S
Zn120 O129 1.977 . S
O121 Zn120 2.032 . S
O121 C125 1.278 . S
C122 O123 1.203 . S
C122 O129 1.267 . S
O123 C122 1.203 . S
O124 C117 1.185 . S
O124 Zn120 2.086 . S
C125 O121 1.278 . S
C125 O126 1.211 . S
O126 C125 1.211 . S
C127 O119 1.284 . S
C127 O128 1.273 . S
O128 C127 1.273 . S
O129 Zn120 1.977 . S
O129 C122 1.267 . S
C130 O131 1.160 . S
C130 O137 1.185 . S
O131 C130 1.160 . S
O132 Zn133 1.899 . S
O132 C140 1.284 . S
Zn133 O132 1.899 . S
Zn133 O134 2.032 . S
Zn133 O137 2.086 . S
Zn133 O142 1.977 . S
O134 Zn133 2.032 . S
O134 C138 1.278 . S
C135 O136 1.203 . S
C135 O142 1.267 . S
O136 C135 1.203 . S
O137 C130 1.185 . S
O137 Zn133 2.086 . S
C138 O134 1.278 . S
C138 O139 1.211 . S
O139 C138 1.211 . S
C140 O132 1.284 . S
C140 O141 1.273 . S
O141 C140 1.273 . S
O142 Zn133 1.977 . S
O142 C135 1.267 . S
C143 O144 1.160 . S
C143 O150 1.185 . S
O144 C143 1.160 . S
O145 Zn146 1.899 . S
O145 C153 1.284 . S
Zn146 O145 1.899 . S
Zn146 O147 2.032 . S
Zn146 O150 2.086 . S
Zn146 O155 1.977 . S
O147 Zn146 2.032 . S
O147 C151 1.278 . S
C148 O149 1.203 . S
C148 O155 1.267 . S
O149 C148 1.203 . S
O150 C143 1.185 . S
O150 Zn146 2.086 . S
C151 O147 1.278 . S
C151 O152 1.211 . S
O152 C151 1.211 . S
C153 O145 1.284 . S
C153 O154 1.273 . S
O154 C153 1.273 . S
O155 Zn146 1.977 . S
O155 C148 1.267 . S
C156 O157 1.160 . S
C156 O163 1.185 . S
O157 C156 1.160 . S
O158 Zn159 1.899 . S
O158 C166 1.284 . S
Zn159 O158 1.899 . S
Zn159 O160 2.032 . S
Zn159 O163 2.086 . S
Zn159 O168 1.977 . S
O160 Zn159 2.032 . S
O160 C164 1.278 . S
C161 O162 1.203 . S
C161 O168 1.267 . S
O162 C161 1.203 . S
O163 C156 1.185 . S
O163 Zn159 2.086 . S
C164 O160 1.278 . S
C164 O165 1.211 . S
O165 C164 1.211 . S
C166 O158 1.284 . S
C166 O167 1.273 . S
O167 C166 1.273 . S
O168 Zn159 1.977 . S
O168 C161 1.267 . S
C169 O170 1.160 . S
C169 O176 1.185 . S
O170 C169 1.160 . S
O171 Zn172 1.899 . S
O171 C179 1.284 . S
Zn172 O171 1.899 . S
Zn172 O173 2.032 . S
Zn172 O176 2.086 . S
Zn172 O181 1.977 . S
O173 Zn172 2.032 . S
O173 C177 1.278 . S
C174 O175 1.203 . S
C174 O181 1.267 . S
O175 C174 1.203 . S
O176 C169 1.185 . S
O176 Zn172 2.086 . S
C177 O173 1.278 . S
C177 O178 1.211 . S
O178 C177 1.211 . S
C179 O171 1.284 . S
C179 O180 1.273 . S
O180 C179 1.273 . S
O181 Zn172 1.977 . S
O181 C174 1.267 . S
C182 O183 1.160 . S
C182 O189 1.185 . S
O183 C182 1.160 . S
O184 Zn185 1.899 . S
O184 C192 1.284 . S
Zn185 O184 1.899 . S
Zn185 O186 2.032 . S
Zn185 O189 2.086 . S
Zn185 O194 1.977 . S
O186 Zn185 2.032 . S
O186 C190 1.278 . S
C187 O188 1.203 . S
C187 O194 1.267 . S
O188 C187 1.203 . S
O189 C182 1.185 . S
O189 Zn185 2.086 . S
C190 O186 1.278 . S
C190 O191 1.211 . S
O191 C190 1.211 . S
C192 O184 1.284 . S
C192 O193 1.273 . S
O193 C192 1.273 . S
O194 Zn185 1.977 . S
O194 C187 1.267 . S
C195 O196 1.160 . S
C195 O202 1.185 . S
O196 C195 1.160 . S
O197 Zn198 1.899 . S
O197 C205 1.284 . S
Zn198 O197 1.899 . S
Zn198 O199 2.032 . S
Zn198 O202 2.086 . S
Zn198 O207 1.977 . S
O199 Zn198 2.032 . S
O199 C203 1.278 . S
C200 O201 1.203 . S
C200 O207 1.267 . S
O201 C200 1.203 . S
O202 C195 1.185 . S
O202 Zn198 2.086 . S
C203 O199 1.278 . S
C203 O204 1.211 . S
O204 C203 1.211 . S
C205 O197 1.284 . S
C205 O206 1.273 . S
O206 C205 1.273 . S
O207 Zn198 1.977 . S
O207 C200 1.267 . S
C208 O209 1.160 . S
C208 O215 1.185 . S
O209 C208 1.160 . S
O210 Zn211 1.899 . S
O210 C218 1.284 . S
Zn211 O210 1.899 . S
Zn211 O212 2.032 . S
Zn211 O215 2.086 . S
Zn211 O220 1.977 . S
O212 Zn211 2.032 . S
O212 C216 1.278 . S
C213 O214 1.203 . S
C213 O220 1.267 . S
O214 C213 1.203 . S
O215 C208 1.185 . S
O215 Zn211 2.086 . S
C216 O212 1.278 . S
C216 O217 1.211 . S
O217 C216 1.211 . S
C218 O210 1.284 . S
C218 O219 1.273 . S
O219 C218 1.273 . S
O220 Zn211 1.977 . S
O220 C213 1.267 . S
C221 O222 1.160 . S
C221 O228 1.185 . S
O222 C221 1.160 . S
O223 Zn224 1.899 . S
O223 C231 1.284 . S
Zn224 O223 1.899 . S
Zn224 O225 2.032 . S
Zn224 O228 2.086 . S
Zn224 O233 1.977 . S
O225 Zn224 2.032 . S
O225 C229 1.278 . S
C226 O227 1.203 . S
C226 O233 1.267 . S
O227 C226 1.203 . S
O228 C221 1.185 . S
O228 Zn224 2.086 . S
C229 O225 1.278 . S
C229 O230 1.211 . S
O230 C229 1.211 . S
C231 O223 1.284 . S
C231 O232 1.273 . S
O232 C231 1.273 . S
O233 Zn224 1.977 . S
O233 C226 1.267 . S
C234 O235 1.160 . S
C234 O241 1.185 . S
O235 C234 1.160 . S
O236 Zn237 1.899 . S
O236 C244 1.284 . S
Zn237 O236 1.899 . S
Zn237 O238 2.032 . S
Zn237 O241 2.086 . S
Zn237 O246 1.977 . S
O238 Zn237 2.032 . S
O238 C242 1.278 . S
C239 O240 1.203 . S
C239 O246 1.267 . S
O240 C239 1.203 . S
O241 C234 1.185 . S
O241 Zn237 2.086 . S
C242 O238 1.278 . S
C242 O243 1.211 . S
O243 C242 1.211 . S
C244 O236 1.284 . S
C244 O245 1.273 . S
O245 C244 1.273 . S
O246 Zn237 1.977 . S
O246 C239 1.267 . S
C247 O248 1.160 . S
C247 O254 1.185 . S
O248 C247 1.160 . S
O249 Zn250 1.899 . S
O249 C257 1.284 . S
Zn250 O249 1.899 . S
Zn250 O251 2.032 . S
Zn250 O254 2.086 . S
Zn250 O259 1.977 . S
O251 Zn250 2.032 . S
O251 C255 1.278 . S
C252 O253 1.203 . S
C252 O259 1.267 . S
O253 C252 1.203 . S
O254 C247 1.185 . S
O254 Zn250 2.086 . S
C255 O251 1.278 . S
C255 O256 1.211 . S
O256 C255 1.211 . S
C257 O249 1.284 . S
C257 O258 1.273 . S
O258 C257 1.273 . S
O259 Zn250 1.977 . S
O259 C252 1.267 . S
C260 O261 1.160 . S
C260 O267 1.185 . S
O261 C260 1.160 . S
O262 Zn263 1.899 . S
O262 C270 1.284 . S
Zn263 O262 1.899 . S
Zn263 O264 2.032 . S
Zn263 O267 2.086 . S
Zn263 O272 1.977 . S
O264 Zn263 2.032 . S
O264 C268 1.278 . S
C265 O266 1.203 . S
C265 O272 1.267 . S
O266 C265 1.203 . S
O267 C260 1.185 . S
O267 Zn263 2.086 . S
C268 O264 1.278 . S
C268 O269 1.211 . S
O269 C268 1.211 . S
C270 O262 1.284 . S
C270 O271 1.273 . S
O271 C270 1.273 . S
O272 Zn263 1.977 . S
O272 C265 1.267 . S
C273 O274 1.160 . S
C273 O280 1.185 1_554 S
O274 C273 1.160 . S
O275 Zn276 1.899 . S
O275 C283 1.284 . S
Zn276 O275 1.899 . S
Zn276 O277 2.032 1_556 S
Zn276 O280 2.086 . S
Zn276 O285 1.977 . S
O277 Zn276 2.032 1_554 S
O277 C281 1.278 . S
C278 O279 1.203 . S
C278 O285 1.267 . S
O279 C278 1.203 . S
O280 C273 1.185 1_556 S
O280 Zn276 2.086 . S
C281 O277 1.278 . S
C281 O282 1.211 . S
O282 C281 1.211 . S
C283 O275 1.284 . S
C283 O284 1.273 1_556 S
O284 C283 1.273 1_554 S
O285 Zn276 1.977 . S
O285 C278 1.267 . S
C286 O287 1.160 . S
C286 O293 1.185 1_554 S
O287 C286 1.160 . S
O288 Zn289 1.899 . S
O288 C296 1.284 . S
Zn289 O288 1.899 . S
Zn289 O290 2.032 1_556 S
Zn289 O293 2.086 . S
Zn289 O298 1.977 . S
O290 Zn289 2.032 1_554 S
O290 C294 1.278 . S
C291 O292 1.203 . S
C291 O298 1.267 . S
O292 C291 1.203 . S
O293 C286 1.185 1_556 S
O293 Zn289 2.086 . S
C294 O290 1.278 . S
C294 O295 1.211 . S
O295 C294 1.211 . S
C296 O288 1.284 . S
C296 O297 1.273 1_556 S
O297 C296 1.273 1_554 S
O298 Zn289 1.977 . S
O298 C291 1.267 . S
C299 O300 1.160 . S
C299 O306 1.185 1_554 S
O300 C299 1.160 . S
O301 Zn302 1.899 . S
O301 C309 1.284 . S
Zn302 O301 1.899 . S
Zn302 O303 2.032 1_556 S
Zn302 O306 2.086 . S
Zn302 O311 1.977 . S
O303 Zn302 2.032 1_554 S
O303 C307 1.278 . S
C304 O305 1.203 . S
C304 O311 1.267 . S
O305 C304 1.203 . S
O306 C299 1.185 1_556 S
O306 Zn302 2.086 . S
C307 O303 1.278 . S
C307 O308 1.211 . S
O308 C307 1.211 . S
C309 O301 1.284 . S
C309 O310 1.273 1_556 S
O310 C309 1.273 1_554 S
O311 Zn302 1.977 . S
O311 C304 1.267 . S
C312 O313 1.160 . S
C312 O319 1.185 . S
O313 C312 1.160 . S
O314 Zn315 1.899 . S
O314 C322 1.284 . S
Zn315 O314 1.899 . S
Zn315 O316 2.032 . S
Zn315 O319 2.086 . S
Zn315 O324 1.977 . S
O316 Zn315 2.032 . S
O316 C320 1.278 . S
C317 O318 1.203 . S
C317 O324 1.267 . S
O318 C317 1.203 . S
O319 C312 1.185 . S
O319 Zn315 2.086 . S
C320 O316 1.278 . S
C320 O321 1.211 . S
O321 C320 1.211 . S
C322 O314 1.284 . S
C322 O323 1.273 . S
O323 C322 1.273 . S
O324 Zn315 1.977 . S
O324 C317 1.267 . S
C325 O326 1.160 . S
C325 O332 1.185 . S
O326 C325 1.160 . S
O327 Zn328 1.899 . S
O327 C335 1.284 . S
Zn328 O327 1.899 . S
Zn328 O329 2.032 . S
Zn328 O332 2.086 . S
Zn328 O337 1.977 . S
O329 Zn328 2.032 . S
O329 C333 1.278 . S
C330 O331 1.203 . S
C330 O337 1.267 . S
O331 C330 1.203 . S
O332 C325 1.185 . S
O332 Zn328 2.086 . S
C333 O329 1.278 . S
C333 O334 1.211 . S
O334 C333 1.211 . S
C335 O327 1.284 . S
C335 O336 1.273 . S
O336 C335 1.273 . S
O337 Zn328 1.977 . S
O337 C330 1.267 . S
C338 O339 1.160 . S
C338 O345 1.185 . S
O339 C338 1.160 . S
O340 Zn341 1.899 . S
O340 C348 1.284 . S
Zn341 O340 1.899 . S
Zn341 O342 2.032 . S
Zn341 O345 2.086 . S
Zn341 O350 1.977 . S
O342 Zn341 2.032 . S
O342 C346 1.278 . S
C343 O344 1.203 . S
C343 O350 1.267 . S
O344 C343 1.203 . S
O345 C338 1.185 . S
O345 Zn341 2.086 . S
C346 O342 1.278 . S
C346 O347 1.211 . S
O347 C346 1.211 . S
C348 O340 1.284 . S
C348 O349 1.273 . S
O349 C348 1.273 . S
O350 Zn341 1.977 . S
O350 C343 1.267 . S
C351 O352 1.160 . S
C351 O358 1.185 1_556 S
O352 C351 1.160 . S
O353 Zn354 1.899 . S
O353 C361 1.284 . S
Zn354 O353 1.899 . S
Zn354 O355 2.032 1_554 S
Zn354 O358 2.086 . S
Zn354 O363 1.977 . S
O355 Zn354 2.032 1_556 S
O355 C359 1.278 . S
C356 O357 1.203 . S
C356 O363 1.267 . S
O357 C356 1.203 . S
O358 C351 1.185 1_554 S
O358 Zn354 2.086 . S
C359 O355 1.278 . S
C359 O360 1.211 . S
O360 C359 1.211 . S
C361 O353 1.284 . S
C361 O362 1.273 1_554 S
O362 C361 1.273 1_556 S
O363 Zn354 1.977 . S
O363 C356 1.267 . S
C364 O365 1.160 . S
C364 O371 1.185 1_556 S
O365 C364 1.160 . S
O366 Zn367 1.899 . S
O366 C374 1.284 . S
Zn367 O366 1.899 . S
Zn367 O368 2.032 1_554 S
Zn367 O371 2.086 . S
Zn367 O376 1.977 . S
O368 Zn367 2.032 1_556 S
O368 C372 1.278 . S
C369 O370 1.203 . S
C369 O376 1.267 . S
O370 C369 1.203 . S
O371 C364 1.185 1_554 S
O371 Zn367 2.086 . S
C372 O368 1.278 . S
C372 O373 1.211 . S
O373 C372 1.211 . S
C374 O366 1.284 . S
C374 O375 1.273 1_554 S
O375 C374 1.273 1_556 S
O376 Zn367 1.977 . S
O376 C369 1.267 . S
C377 O378 1.160 . S
C377 O384 1.185 1_556 S
O378 C377 1.160 . S
O379 Zn380 1.899 . S
O379 C387 1.284 . S
Zn380 O379 1.899 . S
Zn380 O381 2.032 1_554 S
Zn380 O384 2.086 . S
Zn380 O389 1.977 . S
O381 Zn380 2.032 1_556 S
O381 C385 1.278 . S
C382 O383 1.203 . S
C382 O389 1.267 . S
O383 C382 1.203 . S
O384 C377 1.185 1_554 S
O384 Zn380 2.086 . S
C385 O381 1.278 . S
C385 O386 1.211 . S
O386 C385 1.211 . S
C387 O379 1.284 . S
C387 O388 1.273 1_554 S
O388 C387 1.273 1_556 S
O389 Zn380 1.977 . S
O389 C382 1.267 . S
C390 O391 1.160 . S
C390 O397 1.185 . S
O391 C390 1.160 . S
O392 Zn393 1.899 . S
O392 C400 1.284 . S
Zn393 O392 1.899 . S
Zn393 O394 2.032 . S
Zn393 O397 2.086 . S
Zn393 O402 1.977 . S
O394 Zn393 2.032 . S
O394 C398 1.278 . S
C395 O396 1.203 . S
C395 O402 1.267 . S
O396 C395 1.203 . S
O397 C390 1.185 . S
O397 Zn393 2.086 . S
C398 O394 1.278 . S
C398 O399 1.211 . S
O399 C398 1.211 . S
C400 O392 1.284 . S
C400 O401 1.273 . S
O401 C400 1.273 . S
O402 Zn393 1.977 . S
O402 C395 1.267 . S
C403 O404 1.160 . S
C403 O410 1.185 . S
O404 C403 1.160 . S
O405 Zn406 1.899 . S
O405 C413 1.284 . S
Zn406 O405 1.899 . S
Zn406 O407 2.032 . S
Zn406 O410 2.086 . S
Zn406 O415 1.977 . S
O407 Zn406 2.032 . S
O407 C411 1.278 . S
C408 O409 1.203 . S
C408 O415 1.267 . S
O409 C408 1.203 . S
O410 C403 1.185 . S
O410 Zn406 2.086 . S
C411 O407 1.278 . S
C411 O412 1.211 . S
O412 C411 1.211 . S
C413 O405 1.284 . S
C413 O414 1.273 . S
O414 C413 1.273 . S
O415 Zn406 1.977 . S
O415 C408 1.267 . S
C416 O417 1.160 . S
C416 O423 1.185 . S
O417 C416 1.160 . S
O418 Zn419 1.899 . S
O418 C426 1.284 . S
Zn419 O418 1.899 . S
Zn419 O420 2.032 . S
Zn419 O423 2.086 . S
Zn419 O428 1.977 . S
O420 Zn419 2.032 . S
O420 C424 1.278 . S
C421 O422 1.203 . S
C421 O428 1.267 . S
O422 C421 1.203 . S
O423 C416 1.185 . S
O423 Zn419 2.086 . S
C424 O420 1.278 . S
C424 O425 1.211 . S
O425 C424 1.211 . S
C426 O418 1.284 . S
C426 O427 1.273 . S
O427 C426 1.273 . S
O428 Zn419 1.977 . S
O428 C421 1.267 . S
C429 O430 1.160 . S
C429 O436 1.185 . S
O430 C429 1.160 . S
O431 Zn432 1.899 . S
O431 C439 1.284 . S
Zn432 O431 1.899 . S
Zn432 O433 2.032 . S
Zn432 O436 2.086 . S
Zn432 O441 1.977 . S
O433 Zn432 2.032 . S
O433 C437 1.278 . S
C434 O435 1.203 . S
C434 O441 1.267 . S
O435 C434 1.203 . S
O436 C429 1.185 . S
O436 Zn432 2.086 . S
C437 O433 1.278 . S
C437 O438 1.211 . S
O438 C437 1.211 . S
C439 O431 1.284 . S
C439 O440 1.273 . S
O440 C439 1.273 . S
O441 Zn432 1.977 . S
O441 C434 1.267 . S
C442 O443 1.160 . S
C442 O449 1.185 . S
O443 C442 1.160 . S
O444 Zn445 1.899 . S
O444 C452 1.284 . S
Zn445 O444 1.899 . S
Zn445 O446 2.032 . S
Zn445 O449 2.086 . S
Zn445 O454 1.977 . S
O446 Zn445 2.032 . S
O446 C450 1.278 . S
C447 O448 1.203 . S
C447 O454 1.267 . S
O448 C447 1.203 . S
O449 C442 1.185 . S
O449 Zn445 2.086 . S
C450 O446 1.278 . S
C450 O451 1.211 . S
O451 C450 1.211 . S
C452 O444 1.284 . S
C452 O453 1.273 . S
O453 C452 1.273 . S
O454 Zn445 1.977 . S
O454 C447 1.267 . S
C455 O456 1.160 . S
C455 O462 1.185 . S
O456 C455 1.160 . S
O457 Zn458 1.899 . S
O457 C465 1.284 . S
Zn458 O457 1.899 . S
Zn458 O459 2.032 . S
Zn458 O462 2.086 . S
Zn458 O467 1.977 . S
O459 Zn458 2.032 . S
O459 C463 1.278 . S
C460 O461 1.203 . S
C460 O467 1.267 . S
O461 C460 1.203 . S
O462 C455 1.185 . S
O462 Zn458 2.086 . S
C463 O459 1.278 . S
C463 O464 1.211 . S
O464 C463 1.211 . S
C465 O457 1.284 . S
C465 O466 1.273 . S
O466 C465 1.273 . S
O467 Zn458 1.977 . S
O467 C460 1.267 . S
H468 C474 0.930 . S
H469 C477 0.930 . S
H470 C478 0.930 . S
H471 C479 0.930 . S
H472 C482 0.930 . S
H473 C483 0.930 . S
C474 H468 0.930 . S
C474 C475 1.355 . S
C474 C476 1.415 . S
C475 C474 1.355 . S
C475 C477 1.419 . S
C476 C474 1.415 . S
C476 C481 1.425 . S
C476 C483 1.409 . S
C477 H469 0.930 . S
C477 C475 1.419 . S
C477 C478 1.362 . S
C478 H470 0.930 . S
C478 C477 1.362 . S
C478 C481 1.409 . S
C479 H471 0.930 . S
C479 C480 1.355 . S
C479 C481 1.415 . S
C480 C479 1.355 . S
C480 C482 1.419 . S
C481 C476 1.425 . S
C481 C478 1.409 . S
C481 C479 1.415 . S
C482 H472 0.930 . S
C482 C480 1.419 . S
C482 C483 1.362 . S
C483 H473 0.930 . S
C483 C476 1.409 . S
C483 C482 1.362 . S
H484 C490 0.930 . S
H485 C493 0.930 . S
H486 C494 0.930 . S
H487 C495 0.930 . S
H488 C498 0.930 . S
H489 C499 0.930 . S
C490 H484 0.930 . S
C490 C491 1.355 . S
C490 C492 1.415 . S
C491 C490 1.355 . S
C491 C493 1.419 . S
C492 C490 1.415 . S
C492 C497 1.425 1_545 S
C492 C499 1.409 1_545 S
C493 H485 0.930 . S
C493 C491 1.419 . S
C493 C494 1.362 . S
C494 H486 0.930 . S
C494 C493 1.362 . S
C494 C497 1.409 1_545 S
C495 H487 0.930 . S
C495 C496 1.355 . S
C495 C497 1.415 . S
C496 C495 1.355 . S
C496 C498 1.419 . S
C497 C492 1.425 1_565 S
C497 C494 1.409 1_565 S
C497 C495 1.415 . S
C498 H488 0.930 . S
C498 C496 1.419 . S
C498 C499 1.362 . S
C499 H489 0.930 . S
C499 C492 1.409 1_565 S
C499 C498 1.362 . S
H500 C506 0.930 . S
H501 C509 0.930 . S
H502 C510 0.930 . S
H503 C511 0.930 . S
H504 C514 0.930 . S
H505 C515 0.930 . S
C506 H500 0.930 . S
C506 C507 1.355 . S
C506 C508 1.381 1_655 S
C507 C506 1.355 . S
C507 C509 1.419 . S
C508 C506 1.381 1_455 S
C508 C513 1.444 1_455 S
C508 C515 1.435 . S
C509 H501 0.930 . S
C509 C507 1.419 . S
C509 C510 1.362 . S
C510 H502 0.930 . S
C510 C509 1.362 . S
C510 C513 1.433 . S
C511 H503 0.930 . S
C511 C512 1.355 . S
C511 C513 1.384 1_455 S
C512 C511 1.355 . S
C512 C514 1.419 . S
C513 C508 1.444 1_655 S
C513 C510 1.433 . S
C513 C511 1.384 1_655 S
C514 H504 0.930 . S
C514 C512 1.419 . S
C514 C515 1.362 . S
C515 H505 0.930 . S
C515 C508 1.435 . S
C515 C514 1.362 . S
H516 C522 0.930 . S
H517 C525 0.930 . S
H518 C526 0.930 . S
H519 C527 0.930 . S
H520 C530 0.930 . S
H521 C531 0.930 . S
C522 H516 0.930 . S
C522 C523 1.355 . S
C522 C524 1.415 . S
C523 C522 1.355 . S
C523 C525 1.419 . S
C524 C522 1.415 . S
C524 C529 1.425 . S
C524 C531 1.409 . S
C525 H517 0.930 . S
C525 C523 1.419 . S
C525 C526 1.362 . S
C526 H518 0.930 . S
C526 C525 1.362 . S
C526 C529 1.409 . S
C527 H519 0.930 . S
C527 C528 1.355 . S
C527 C529 1.415 . S
C528 C527 1.355 . S
C528 C530 1.419 . S
C529 C524 1.425 . S
C529 C526 1.409 . S
C529 C527 1.415 . S
C530 H520 0.930 . S
C530 C528 1.419 . S
C530 C531 1.362 . S
C531 H521 0.930 . S
C531 C524 1.409 . S
C531 C530 1.362 . S
H532 C538 0.930 . S
H533 C541 0.930 . S
H534 C542 0.930 . S
H535 C543 0.930 . S
H536 C546 0.930 . S
H537 C547 0.930 . S
C538 H532 0.930 . S
C538 C539 1.355 . S
C538 C540 1.426 . S
C539 C538 1.355 . S
C539 C541 1.419 . S
C540 C538 1.426 . S
C540 C545 1.416 1_545 S
C540 C547 1.403 1_545 S
C541 H533 0.930 . S
C541 C539 1.419 . S
C541 C542 1.362 . S
C542 H534 0.930 . S
C542 C541 1.362 . S
C542 C545 1.405 1_545 S
C543 H535 0.930 . S
C543 C544 1.355 . S
C543 C545 1.423 . S
C544 C543 1.355 . S
C544 C546 1.419 . S
C545 C540 1.416 1_565 S
C545 C542 1.405 1_565 S
C545 C543 1.423 . S
C546 H536 0.930 . S
C546 C544 1.419 . S
C546 C547 1.362 . S
C547 H537 0.930 . S
C547 C540 1.403 1_565 S
C547 C546 1.362 . S
H548 C554 0.930 . S
H549 C557 0.930 . S
H550 C558 0.930 . S
H551 C559 0.930 . S
H552 C562 0.930 . S
H553 C563 0.930 . S
C554 H548 0.930 . S
C554 C555 1.355 . S
C554 C556 1.415 . S
C555 C554 1.355 . S
C555 C557 1.419 . S
C556 C554 1.415 . S
C556 C561 1.425 1_455 S
C556 C563 1.409 1_455 S
C557 H549 0.930 . S
C557 C555 1.419 . S
C557 C558 1.362 . S
C558 H550 0.930 . S
C558 C557 1.362 . S
C558 C561 1.409 1_455 S
C559 H551 0.930 . S
C559 C560 1.355 . S
C559 C561 1.415 . S
C560 C559 1.355 . S
C560 C562 1.419 . S
C561 C556 1.425 1_655 S
C561 C558 1.409 1_655 S
C561 C559 1.415 . S
C562 H552 0.930 . S
C562 C560 1.419 . S
C562 C563 1.362 . S
C563 H553 0.930 . S
C563 C556 1.409 1_655 S
C563 C562 1.362 . S
H564 C570 0.930 . S
H565 C573 0.930 . S
H566 C574 0.930 . S
H567 C575 0.930 . S
H568 C578 0.930 . S
H569 C579 0.930 . S
C570 H564 0.930 . S
C570 C571 1.355 . S
C570 C572 1.415 . S
C571 C570 1.355 . S
C571 C573 1.419 . S
C572 C570 1.415 . S
C572 C577 1.425 . S
C572 C579 1.409 . S
C573 H565 0.930 . S
C573 C571 1.419 . S
C573 C574 1.362 . S
C574 H566 0.930 . S
C574 C573 1.362 . S
C574 C577 1.409 . S
C575 H567 0.930 . S
C575 C576 1.355 . S
C575 C577 1.415 . S
C576 C575 1.355 . S
C576 C578 1.419 . S
C577 C572 1.425 . S
C577 C574 1.409 . S
C577 C575 1.415 . S
C578 H568 0.930 . S
C578 C576 1.419 . S
C578 C579 1.362 . S
C579 H569 0.930 . S
C579 C572 1.409 . S
C579 C578 1.362 . S
H580 C586 0.930 . S
H581 C589 0.930 . S
H582 C590 0.930 . S
H583 C591 0.930 . S
H584 C594 0.930 . S
H585 C595 0.930 . S
C586 H580 0.930 . S
C586 C587 1.355 . S
C586 C588 1.415 . S
C587 C586 1.355 . S
C587 C589 1.419 . S
C588 C586 1.415 . S
C588 C593 1.425 . S
C588 C595 1.409 . S
C589 H581 0.930 . S
C589 C587 1.419 . S
C589 C590 1.362 . S
C590 H582 0.930 . S
C590 C589 1.362 . S
C590 C593 1.409 . S
C591 H583 0.930 . S
C591 C592 1.355 . S
C591 C593 1.415 . S
C592 C591 1.355 . S
C592 C594 1.419 . S
C593 C588 1.425 . S
C593 C590 1.409 . S
C593 C591 1.415 . S
C594 H584 0.930 . S
C594 C592 1.419 . S
C594 C595 1.362 . S
C595 H585 0.930 . S
C595 C588 1.409 . S
C595 C594 1.362 . S
H596 C602 0.930 . S
H597 C605 0.930 . S
H598 C606 0.930 . S
H599 C607 0.930 . S
H600 C610 0.930 . S
H601 C611 0.930 . S
C602 H596 0.930 . S
C602 C603 1.355 . S
C602 C604 1.415 . S
C603 C602 1.355 . S
C603 C605 1.419 . S
C604 C602 1.415 . S
C604 C609 1.425 . S
C604 C611 1.409 . S
C605 H597 0.930 . S
C605 C603 1.419 . S
C605 C606 1.362 . S
C606 H598 0.930 . S
C606 C605 1.362 . S
C606 C609 1.409 . S
C607 H599 0.930 . S
C607 C608 1.355 . S
C607 C609 1.415 . S
C608 C607 1.355 . S
C608 C610 1.419 . S
C609 C604 1.425 . S
C609 C606 1.409 . S
C609 C607 1.415 . S
C610 H600 0.930 . S
C610 C608 1.419 . S
C610 C611 1.362 . S
C611 H601 0.930 . S
C611 C604 1.409 . S
C611 C610 1.362 . S
H612 C618 0.930 . S
H613 C621 0.930 . S
H614 C622 0.930 . S
H615 C623 0.930 . S
H616 C626 0.930 . S
H617 C627 0.930 . S
C618 H612 0.930 . S
C618 C619 1.355 . S
C618 C620 1.415 . S
C619 C618 1.355 . S
C619 C621 1.419 . S
C620 C618 1.415 . S
C620 C625 1.425 . S
C620 C627 1.409 . S
C621 H613 0.930 . S
C621 C619 1.419 . S
C621 C622 1.362 . S
C622 H614 0.930 . S
C622 C621 1.362 . S
C622 C625 1.409 . S
C623 H615 0.930 . S
C623 C624 1.355 . S
C623 C625 1.415 . S
C624 C623 1.355 . S
C624 C626 1.419 . S
C625 C620 1.425 . S
C625 C622 1.409 . S
C625 C623 1.415 . S
C626 H616 0.930 . S
C626 C624 1.419 . S
C626 C627 1.362 . S
C627 H617 0.930 . S
C627 C620 1.409 . S
C627 C626 1.362 . S
H628 C634 0.930 . S
H629 C637 0.938 . S
H630 C638 0.930 . S
H631 C639 0.930 . S
H632 C642 0.930 . S
H633 C643 0.930 . S
C634 H628 0.930 . S
C634 C635 1.355 . S
C634 C636 1.415 . S
C635 C634 1.355 . S
C635 C637 1.419 . S
C636 C634 1.415 . S
C636 C641 1.425 . S
C636 C643 1.409 . S
C637 H629 0.938 . S
C637 C635 1.419 . S
C637 C638 1.362 . S
C638 H630 0.930 . S
C638 C637 1.362 . S
C638 C641 1.409 . S
C639 H631 0.930 . S
C639 C640 1.355 . S
C639 C641 1.415 . S
C640 C639 1.355 . S
C640 C642 1.419 . S
C641 C636 1.425 . S
C641 C638 1.409 . S
C641 C639 1.415 . S
C642 H632 0.930 . S
C642 C640 1.419 . S
C642 C643 1.362 . S
C643 H633 0.930 . S
C643 C636 1.409 . S
C643 C642 1.362 . S
H644 C650 0.930 . S
H645 C653 0.930 . S
H646 C654 0.930 . S
H647 C655 0.930 . S
H648 C658 0.930 . S
H649 C659 0.930 . S
C650 H644 0.930 . S
C650 C651 1.355 . S
C650 C652 1.415 . S
C651 C650 1.355 . S
C651 C653 1.419 . S
C652 C650 1.415 . S
C652 C657 1.425 . S
C652 C659 1.409 . S
C653 H645 0.930 . S
C653 C651 1.419 . S
C653 C654 1.362 . S
C654 H646 0.930 . S
C654 C653 1.362 . S
C654 C657 1.409 . S
C655 H647 0.930 . S
C655 C656 1.355 . S
C655 C657 1.415 . S
C656 C655 1.355 . S
C656 C658 1.419 . S
C657 C652 1.425 . S
C657 C654 1.409 . S
C657 C655 1.415 . S
C658 H648 0.930 . S
C658 C656 1.419 . S
C658 C659 1.362 . S
C659 H649 0.930 . S
C659 C652 1.409 . S
C659 C658 1.362 . S
H660 C666 0.930 . S
H661 C669 0.930 . S
H662 C670 0.930 . S
H663 C671 0.930 . S
H664 C674 0.930 . S
H665 C675 0.930 . S
C666 H660 0.930 . S
C666 C667 1.355 . S
C666 C668 1.415 . S
C667 C666 1.355 . S
C667 C669 1.419 . S
C668 C666 1.415 . S
C668 C673 1.425 . S
C668 C675 1.409 . S
C669 H661 0.930 . S
C669 C667 1.419 . S
C669 C670 1.362 . S
C670 H662 0.930 . S
C670 C669 1.362 . S
C670 C673 1.409 . S
C671 H663 0.930 . S
C671 C672 1.355 . S
C671 C673 1.415 . S
C672 C671 1.355 . S
C672 C674 1.419 . S
C673 C668 1.425 . S
C673 C670 1.409 . S
C673 C671 1.415 . S
C674 H664 0.930 . S
C674 C672 1.419 . S
C674 C675 1.362 . S
C675 H665 0.930 . S
C675 C668 1.409 . S
C675 C674 1.362 . S
H676 C682 0.930 . S
H677 C685 0.930 . S
H678 C686 0.930 . S
H679 C687 0.930 . S
H680 C690 0.930 . S
H681 C691 0.930 . S
C682 H676 0.930 . S
C682 C683 1.355 . S
C682 C684 1.415 . S
C683 C682 1.355 . S
C683 C685 1.419 . S
C684 C682 1.415 . S
C684 C689 1.425 . S
C684 C691 1.409 . S
C685 H677 0.930 . S
C685 C683 1.419 . S
C685 C686 1.362 . S
C686 H678 0.930 . S
C686 C685 1.362 . S
C686 C689 1.409 . S
C687 H679 0.930 . S
C687 C688 1.355 . S
C687 C689 1.415 . S
C688 C687 1.355 . S
C688 C690 1.419 . S
C689 C684 1.425 . S
C689 C686 1.409 . S
C689 C687 1.415 . S
C690 H680 0.930 . S
C690 C688 1.419 . S
C690 C691 1.362 . S
C691 H681 0.930 . S
C691 C684 1.409 . S
C691 C690 1.362 . S
H692 C698 0.930 . S
H693 C701 0.930 1_554 S
H694 C702 0.930 1_554 S
H695 C703 0.930 . S
H696 C706 0.930 . S
H697 C707 0.930 . S
C698 H692 0.930 . S
C698 C699 1.355 . S
C698 C700 1.415 . S
C699 C698 1.355 . S
C699 C701 1.419 . S
C700 C698 1.415 . S
C700 C705 1.425 . S
C700 C707 1.409 . S
C701 H693 0.930 1_556 S
C701 C699 1.419 . S
C701 C702 1.362 . S
C702 H694 0.930 1_556 S
C702 C701 1.362 . S
C702 C705 1.409 . S
C703 H695 0.930 . S
C703 C704 1.355 . S
C703 C705 1.415 . S
C704 C703 1.355 . S
C704 C706 1.419 . S
C705 C700 1.425 . S
C705 C702 1.409 . S
C705 C703 1.415 . S
C706 H696 0.930 . S
C706 C704 1.419 . S
C706 C707 1.362 . S
C707 H697 0.930 . S
C707 C700 1.409 . S
C707 C706 1.362 . S
H708 C714 0.930 . S
H709 C717 0.930 . S
H710 C718 0.930 . S
H711 C719 0.930 . S
H712 C722 0.930 . S
H713 C723 0.930 . S
C714 H708 0.930 . S
C714 C715 1.355 . S
C714 C716 1.415 . S
C715 C714 1.355 . S
C715 C717 1.419 . S
C716 C714 1.415 . S
C716 C721 1.425 . S
C716 C723 1.409 . S
C717 H709 0.930 . S
C717 C715 1.419 . S
C717 C718 1.362 . S
C718 H710 0.930 . S
C718 C717 1.362 . S
C718 C721 1.409 . S
C719 H711 0.930 . S
C719 C720 1.355 . S
C719 C721 1.415 . S
C720 C719 1.355 . S
C720 C722 1.419 . S
C721 C716 1.425 . S
C721 C718 1.409 . S
C721 C719 1.415 . S
C722 H712 0.930 . S
C722 C720 1.419 . S
C722 C723 1.362 . S
C723 H713 0.930 . S
C723 C716 1.409 . S
C723 C722 1.362 . S
H724 C730 0.930 . S
H725 C733 0.930 . S
H726 C734 0.930 . S
H727 C735 0.930 . S
H728 C738 0.930 . S
H729 C739 0.930 . S
C730 H724 0.930 . S
C730 C731 1.355 . S
C730 C732 1.415 . S
C731 C730 1.355 . S
C731 C733 1.419 . S
C732 C730 1.415 . S
C732 C737 1.425 . S
C732 C739 1.409 . S
C733 H725 0.930 . S
C733 C731 1.419 . S
C733 C734 1.362 . S
C734 H726 0.930 . S
C734 C733 1.362 . S
C734 C737 1.409 . S
C735 H727 0.930 . S
C735 C736 1.355 . S
C735 C737 1.415 . S
C736 C735 1.355 . S
C736 C738 1.419 . S
C737 C732 1.425 . S
C737 C734 1.409 . S
C737 C735 1.415 . S
C738 H728 0.930 . S
C738 C736 1.419 . S
C738 C739 1.362 . S
C739 H729 0.930 . S
C739 C732 1.409 . S
C739 C738 1.362 . S
H740 C746 0.930 . S
H741 C749 0.930 . S
H742 C750 0.930 . S
H743 C751 0.930 . S
H744 C754 0.930 . S
H745 C755 0.930 . S
C746 H740 0.930 . S
C746 C747 1.355 . S
C746 C748 1.415 . S
C747 C746 1.355 . S
C747 C749 1.419 . S
C748 C746 1.415 . S
C748 C753 1.425 . S
C748 C755 1.409 . S
C749 H741 0.930 . S
C749 C747 1.419 . S
C749 C750 1.362 . S
C750 H742 0.930 . S
C750 C749 1.362 . S
C750 C753 1.409 . S
C751 H743 0.930 . S
C751 C752 1.355 . S
C751 C753 1.415 . S
C752 C751 1.355 . S
C752 C754 1.419 . S
C753 C748 1.425 . S
C753 C750 1.409 . S
C753 C751 1.415 . S
C754 H744 0.930 . S
C754 C752 1.419 . S
C754 C755 1.362 . S
C755 H745 0.930 . S
C755 C748 1.409 . S
C755 C754 1.362 . S
H756 C762 0.930 . S
H757 C765 0.930 . S
H758 C766 0.930 . S
H759 C767 0.930 1_554 S
H760 C770 0.930 . S
H761 C771 0.930 . S
C762 H756 0.930 . S
C762 C763 1.355 . S
C762 C764 1.415 . S
C763 C762 1.355 . S
C763 C765 1.419 . S
C764 C762 1.415 . S
C764 C769 1.425 . S
C764 C771 1.409 . S
C765 H757 0.930 . S
C765 C763 1.419 . S
C765 C766 1.362 . S
C766 H758 0.930 . S
C766 C765 1.362 . S
C766 C769 1.409 . S
C767 H759 0.930 1_556 S
C767 C768 1.355 . S
C767 C769 1.415 . S
C768 C767 1.355 . S
C768 C770 1.419 . S
C769 C764 1.425 . S
C769 C766 1.409 . S
C769 C767 1.415 . S
C770 H760 0.930 . S
C770 C768 1.419 . S
C770 C771 1.362 . S
C771 H761 0.930 . S
C771 C764 1.409 . S
C771 C770 1.362 . S
H772 C778 0.930 . S
H773 C781 0.930 1_554 S
H774 C782 0.930 . S
H775 C783 0.930 . S
H776 C786 0.930 . S
H777 C787 0.930 . S
C778 H772 0.930 . S
C778 C779 1.355 . S
C778 C780 1.415 . S
C779 C778 1.355 . S
C779 C781 1.419 . S
C780 C778 1.415 . S
C780 C785 1.425 . S
C780 C787 1.409 . S
C781 H773 0.930 1_556 S
C781 C779 1.419 . S
C781 C782 1.362 . S
C782 H774 0.930 . S
C782 C781 1.362 . S
C782 C785 1.409 . S
C783 H775 0.930 . S
C783 C784 1.355 . S
C783 C785 1.415 . S
C784 C783 1.355 . S
C784 C786 1.419 . S
C785 C780 1.425 . S
C785 C782 1.409 . S
C785 C783 1.415 . S
C786 H776 0.930 . S
C786 C784 1.419 . S
C786 C787 1.362 . S
C787 H777 0.930 . S
C787 C780 1.409 . S
C787 C786 1.362 . S
H788 C794 0.930 . S
H789 C797 0.946 . S
H790 C798 0.930 . S
H791 C799 0.930 . S
H792 C802 0.930 . S
H793 C803 0.930 . S
C794 H788 0.930 . S
C794 C795 1.355 . S
C794 C796 1.415 . S
C795 C794 1.355 . S
C795 C797 1.416 1_556 S
C796 C794 1.415 . S
C796 C801 1.425 . S
C796 C803 1.409 . S
C797 H789 0.946 . S
C797 C795 1.416 1_554 S
C797 C798 1.350 1_554 S
C798 H790 0.930 . S
C798 C797 1.350 1_556 S
C798 C801 1.409 . S
C799 H791 0.930 . S
C799 C800 1.355 . S
C799 C801 1.415 . S
C800 C799 1.355 . S
C800 C802 1.419 . S
C801 C796 1.425 . S
C801 C798 1.409 . S
C801 C799 1.415 . S
C802 H792 0.930 . S
C802 C800 1.419 . S
C802 C803 1.362 . S
C803 H793 0.930 . S
C803 C796 1.409 . S
C803 C802 1.362 . S
H804 C810 0.930 . S
H805 C813 0.930 . S
H806 C814 0.930 . S
H807 C815 0.930 . S
H808 C818 0.930 . S
H809 C819 0.930 . S
C810 H804 0.930 . S
C810 C811 1.355 . S
C810 C812 1.415 . S
C811 C810 1.355 . S
C811 C813 1.419 . S
C812 C810 1.415 . S
C812 C817 1.425 . S
C812 C819 1.409 . S
C813 H805 0.930 . S
C813 C811 1.419 . S
C813 C814 1.362 . S
C814 H806 0.930 . S
C814 C813 1.362 . S
C814 C817 1.409 . S
C815 H807 0.930 . S
C815 C816 1.355 . S
C815 C817 1.415 . S
C816 C815 1.355 . S
C816 C818 1.419 . S
C817 C812 1.425 . S
C817 C814 1.409 . S
C817 C815 1.415 . S
C818 H808 0.930 . S
C818 C816 1.419 . S
C818 C819 1.362 . S
C819 H809 0.930 . S
C819 C812 1.409 . S
C819 C818 1.362 . S
H820 C826 0.930 . S
H821 C829 0.930 . S
H822 C830 0.930 . S
H823 C831 0.930 . S
H824 C834 0.930 . S
H825 C835 0.930 . S
C826 H820 0.930 . S
C826 C827 1.355 . S
C826 C828 1.415 . S
C827 C826 1.355 . S
C827 C829 1.419 . S
C828 C826 1.415 . S
C828 C833 1.425 . S
C828 C835 1.409 . S
C829 H821 0.930 . S
C829 C827 1.419 . S
C829 C830 1.362 . S
C830 H822 0.930 . S
C830 C829 1.362 . S
C830 C833 1.409 . S
C831 H823 0.930 . S
C831 C832 1.355 . S
C831 C833 1.415 . S
C832 C831 1.355 . S
C832 C834 1.419 . S
C833 C828 1.425 . S
C833 C830 1.409 . S
C833 C831 1.415 . S
C834 H824 0.930 . S
C834 C832 1.419 . S
C834 C835 1.362 . S
C835 H825 0.930 . S
C835 C828 1.409 . S
C835 C834 1.362 . S
H836 C842 0.930 . S
H837 C845 0.930 . S
H838 C846 0.930 . S
H839 C847 0.930 . S
H840 C850 0.930 . S
H841 C851 0.930 . S
C842 H836 0.930 . S
C842 C843 1.355 . S
C842 C844 1.415 . S
C843 C842 1.355 . S
C843 C845 1.419 . S
C844 C842 1.415 . S
C844 C849 1.425 . S
C844 C851 1.409 . S
C845 H837 0.930 . S
C845 C843 1.419 . S
C845 C846 1.362 . S
C846 H838 0.930 . S
C846 C845 1.362 . S
C846 C849 1.409 . S
C847 H839 0.930 . S
C847 C848 1.355 . S
C847 C849 1.415 . S
C848 C847 1.355 . S
C848 C850 1.419 . S
C849 C844 1.425 . S
C849 C846 1.409 . S
C849 C847 1.415 . S
C850 H840 0.930 . S
C850 C848 1.419 . S
C850 C851 1.362 . S
C851 H841 0.930 . S
C851 C844 1.409 . S
C851 C850 1.362 . S
H852 C858 0.930 1_556 S
H853 C861 0.930 . S
H854 C862 0.930 . S
H855 C863 0.930 . S
H856 C866 0.930 . S
H857 C867 0.930 . S
C858 H852 0.930 1_554 S
C858 C859 1.355 . S
C858 C860 1.415 . S
C859 C858 1.355 . S
C859 C861 1.419 . S
C860 C858 1.415 . S
C860 C865 1.425 . S
C860 C867 1.409 . S
C861 H853 0.930 . S
C861 C859 1.419 . S
C861 C862 1.362 . S
C862 H854 0.930 . S
C862 C861 1.362 . S
C862 C865 1.409 . S
C863 H855 0.930 . S
C863 C864 1.355 . S
C863 C865 1.415 . S
C864 C863 1.355 . S
C864 C866 1.419 . S
C865 C860 1.425 . S
C865 C862 1.409 . S
C865 C863 1.415 . S
C866 H856 0.930 . S
C866 C864 1.419 . S
C866 C867 1.362 . S
C867 H857 0.930 . S
C867 C860 1.409 . S
C867 C866 1.362 . S
H868 C874 0.930 . S
H869 C877 0.930 . S
H870 C878 0.930 . S
H871 C879 0.930 . S
H872 C882 0.930 . S
H873 C883 0.930 . S
C874 H868 0.930 . S
C874 C875 1.355 . S
C874 C876 1.415 . S
C875 C874 1.355 . S
C875 C877 1.419 1_554 S
C876 C874 1.415 . S
C876 C881 1.425 . S
C876 C883 1.409 . S
C877 H869 0.930 . S
C877 C875 1.419 1_556 S
C877 C878 1.362 1_556 S
C878 H870 0.930 . S
C878 C877 1.362 1_554 S
C878 C881 1.409 . S
C879 H871 0.930 . S
C879 C880 1.355 . S
C879 C881 1.415 . S
C880 C879 1.355 . S
C880 C882 1.419 . S
C881 C876 1.425 . S
C881 C878 1.409 . S
C881 C879 1.415 . S
C882 H872 0.930 . S
C882 C880 1.419 . S
C882 C883 1.362 . S
C883 H873 0.930 . S
C883 C876 1.409 . S
C883 C882 1.362 . S
H884 C890 0.930 . S
H885 C893 0.930 . S
H886 C894 0.930 . S
H887 C895 0.930 . S
H888 C898 0.930 . S
H889 C899 0.930 . S
C890 H884 0.930 . S
C890 C891 1.355 . S
C890 C892 1.415 . S
C891 C890 1.355 . S
C891 C893 1.419 . S
C892 C890 1.415 . S
C892 C897 1.425 . S
C892 C899 1.409 . S
C893 H885 0.930 . S
C893 C891 1.419 . S
C893 C894 1.362 . S
C894 H886 0.930 . S
C894 C893 1.362 . S
C894 C897 1.409 . S
C895 H887 0.930 . S
C895 C896 1.355 . S
C895 C897 1.415 . S
C896 C895 1.355 . S
C896 C898 1.419 . S
C897 C892 1.425 . S
C897 C894 1.409 . S
C897 C895 1.415 . S
C898 H888 0.930 . S
C898 C896 1.419 . S
C898 C899 1.362 . S
C899 H889 0.930 . S
C899 C892 1.409 . S
C899 C898 1.362 . S
H900 C906 0.930 . S
H901 C909 0.930 . S
H902 C910 0.930 . S
H903 C911 0.930 . S
H904 C914 0.930 . S
H905 C915 0.930 . S
C906 H900 0.930 . S
C906 C907 1.355 . S
C906 C908 1.415 . S
C907 C906 1.355 . S
C907 C909 1.419 . S
C908 C906 1.415 . S
C908 C913 1.425 . S
C908 C915 1.409 . S
C909 H901 0.930 . S
C909 C907 1.419 . S
C909 C910 1.362 . S
C910 H902 0.930 . S
C910 C909 1.362 . S
C910 C913 1.409 . S
C911 H903 0.930 . S
C911 C912 1.355 . S
C911 C913 1.415 . S
C912 C911 1.355 . S
C912 C914 1.419 . S
C913 C908 1.425 . S
C913 C910 1.409 . S
C913 C911 1.415 . S
C914 H904 0.930 . S
C914 C912 1.419 . S
C914 C915 1.362 . S
C915 H905 0.930 . S
C915 C908 1.409 . S
C915 C914 1.362 . S
H916 C922 0.930 . S
H917 C925 0.930 . S
H918 C926 0.930 . S
H919 C927 0.930 . S
H920 C930 0.930 . S
H921 C931 0.930 . S
C922 H916 0.930 . S
C922 C923 1.355 . S
C922 C924 1.415 . S
C923 C922 1.355 . S
C923 C925 1.419 . S
C924 C922 1.415 . S
C924 C929 1.425 . S
C924 C931 1.409 . S
C925 H917 0.930 . S
C925 C923 1.419 . S
C925 C926 1.362 . S
C926 H918 0.930 . S
C926 C925 1.362 . S
C926 C929 1.409 . S
C927 H919 0.930 . S
C927 C928 1.355 . S
C927 C929 1.415 . S
C928 C927 1.355 . S
C928 C930 1.419 . S
C929 C924 1.425 . S
C929 C926 1.409 . S
C929 C927 1.415 . S
C930 H920 0.930 . S
C930 C928 1.419 . S
C930 C931 1.362 . S
C931 H921 0.930 . S
C931 C924 1.409 . S
C931 C930 1.362 . S
H932 C938 0.930 . S
H933 C941 0.930 . S
H934 C942 0.930 . S
H935 C943 0.930 . S
H936 C946 0.930 . S
H937 C947 0.930 . S
C938 H932 0.930 . S
C938 C939 1.355 . S
C938 C940 1.415 . S
C939 C938 1.355 . S
C939 C941 1.419 . S
C940 C938 1.415 . S
C940 C945 1.425 . S
C940 C947 1.409 . S
C941 H933 0.930 . S
C941 C939 1.419 . S
C941 C942 1.362 . S
C942 H934 0.930 . S
C942 C941 1.362 . S
C942 C945 1.409 . S
C943 H935 0.930 . S
C943 C944 1.355 . S
C943 C945 1.415 . S
C944 C943 1.355 . S
C944 C946 1.419 . S
C945 C940 1.425 . S
C945 C942 1.409 . S
C945 C943 1.415 . S
C946 H936 0.930 . S
C946 C944 1.419 . S
C946 C947 1.362 . S
C947 H937 0.930 . S
C947 C940 1.409 . S
C947 C946 1.362 . S
H948 C954 0.930 . S
H949 C957 0.930 . S
H950 C958 0.930 . S
H951 C959 0.930 . S
H952 C962 0.930 . S
H953 C963 0.930 . S
C954 H948 0.930 . S
C954 C955 1.355 . S
C954 C956 1.415 . S
C955 C954 1.355 . S
C955 C957 1.419 . S
C956 C954 1.415 . S
C956 C961 1.425 . S
C956 C963 1.409 . S
C957 H949 0.930 . S
C957 C955 1.419 . S
C957 C958 1.362 . S
C958 H950 0.930 . S
C958 C957 1.362 . S
C958 C961 1.409 . S
C959 H951 0.930 . S
C959 C960 1.355 . S
C959 C961 1.415 . S
C960 C959 1.355 . S
C960 C962 1.419 . S
C961 C956 1.425 . S
C961 C958 1.409 . S
C961 C959 1.415 . S
C962 H952 0.930 . S
C962 C960 1.419 . S
C962 C963 1.362 . S
C963 H953 0.930 . S
C963 C956 1.409 . S
C963 C962 1.362 . S
H964 C970 0.930 . S
H965 C973 0.930 . S
H966 C974 0.930 . S
H967 C975 0.930 . S
H968 C978 0.930 . S
H969 C979 0.930 . S
C970 H964 0.930 . S
C970 C971 1.355 . S
C970 C972 1.415 . S
C971 C970 1.355 . S
C971 C973 1.419 . S
C972 C970 1.415 . S
C972 C977 1.425 . S
C972 C979 1.409 . S
C973 H965 0.930 . S
C973 C971 1.419 . S
C973 C974 1.362 . S
C974 H966 0.930 . S
C974 C973 1.362 . S
C974 C977 1.409 . S
C975 H967 0.930 . S
C975 C976 1.355 . S
C975 C977 1.415 . S
C976 C975 1.355 . S
C976 C978 1.419 . S
C977 C972 1.425 . S
C977 C974 1.409 . S
C977 C975 1.415 . S
C978 H968 0.930 . S
C978 C976 1.419 . S
C978 C979 1.362 . S
C979 H969 0.930 . S
C979 C972 1.409 . S
C979 C978 1.362 . S
H980 C986 0.930 . S
H981 C989 0.930 . S
H982 C990 0.930 . S
H983 C991 0.930 . S
H984 C994 0.930 . S
H985 C995 0.930 . S
C986 H980 0.930 . S
C986 C987 1.355 . S
C986 C988 1.415 . S
C987 C986 1.355 . S
C987 C989 1.419 . S
C988 C986 1.415 . S
C988 C993 1.425 . S
C988 C995 1.409 . S
C989 H981 0.930 . S
C989 C987 1.419 . S
C989 C990 1.362 . S
C990 H982 0.930 . S
C990 C989 1.362 . S
C990 C993 1.409 . S
C991 H983 0.930 . S
C991 C992 1.355 . S
C991 C993 1.415 . S
C992 C991 1.355 . S
C992 C994 1.419 . S
C993 C988 1.425 . S
C993 C990 1.409 . S
C993 C991 1.415 . S
C994 H984 0.930 . S
C994 C992 1.419 . S
C994 C995 1.362 . S
C995 H985 0.930 . S
C995 C988 1.409 . S
C995 C994 1.362 . S
H996 C1002 0.930 . S
H997 C1005 0.930 . S
H998 C1006 0.930 . S
H999 C1007 0.930 . S
H1000 C1010 0.930 . S
H1001 C1011 0.930 . S
C1002 H996 0.930 . S
C1002 C1003 1.355 . S
C1002 C1004 1.415 . S
C1003 C1002 1.355 . S
C1003 C1005 1.419 . S
C1004 C1002 1.415 . S
C1004 C1009 1.425 . S
C1004 C1011 1.409 . S
C1005 H997 0.930 . S
C1005 C1003 1.419 . S
C1005 C1006 1.362 . S
C1006 H998 0.930 . S
C1006 C1005 1.362 . S
C1006 C1009 1.409 . S
C1007 H999 0.930 . S
C1007 C1008 1.355 . S
C1007 C1009 1.415 1_554 S
C1008 C1007 1.355 . S
C1008 C1010 1.419 . S
C1009 C1004 1.425 . S
C1009 C1006 1.409 . S
C1009 C1007 1.415 1_556 S
C1010 H1000 0.930 . S
C1010 C1008 1.419 . S
C1010 C1011 1.362 1_554 S
C1011 H1001 0.930 . S
C1011 C1004 1.409 . S
C1011 C1010 1.362 1_556 S
H1012 C1018 0.930 1_554 S
H1013 C1021 0.930 . S
H1014 C1022 0.930 . S
H1015 C1023 0.930 . S
H1016 C1026 0.930 . S
H1017 C1027 0.930 . S
C1018 H1012 0.930 1_556 S
C1018 C1019 1.355 1_556 S
C1018 C1020 1.415 . S
C1019 C1018 1.355 1_554 S
C1019 C1021 1.419 . S
C1020 C1018 1.415 . S
C1020 C1025 1.425 . S
C1020 C1027 1.409 . S
C1021 H1013 0.930 . S
C1021 C1019 1.419 . S
C1021 C1022 1.362 1_554 S
C1022 H1014 0.930 . S
C1022 C1021 1.362 1_556 S
C1022 C1025 1.409 . S
C1023 H1015 0.930 . S
C1023 C1024 1.355 . S
C1023 C1025 1.415 . S
C1024 C1023 1.355 . S
C1024 C1026 1.419 . S
C1025 C1020 1.425 . S
C1025 C1022 1.409 . S
C1025 C1023 1.415 . S
C1026 H1016 0.930 . S
C1026 C1024 1.419 . S
C1026 C1027 1.362 . S
C1027 H1017 0.930 . S
C1027 C1020 1.409 . S
C1027 C1026 1.362 . S
H1028 C1034 0.930 . S
H1029 C1037 0.930 . S
H1030 C1038 0.930 . S
H1031 C1039 0.930 . S
H1032 C1042 0.930 . S
H1033 C1043 0.930 . S
C1034 H1028 0.930 . S
C1034 C1035 1.355 . S
C1034 C1036 1.415 . S
C1035 C1034 1.355 . S
C1035 C1037 1.419 . S
C1036 C1034 1.415 . S
C1036 C1041 1.425 . S
C1036 C1043 1.409 . S
C1037 H1029 0.930 . S
C1037 C1035 1.419 . S
C1037 C1038 1.362 . S
C1038 H1030 0.930 . S
C1038 C1037 1.362 . S
C1038 C1041 1.409 . S
C1039 H1031 0.930 . S
C1039 C1040 1.355 . S
C1039 C1041 1.415 1_554 S
C1040 C1039 1.355 . S
C1040 C1042 1.419 1_554 S
C1041 C1036 1.425 . S
C1041 C1038 1.409 . S
C1041 C1039 1.415 1_556 S
C1042 H1032 0.930 . S
C1042 C1040 1.419 1_556 S
C1042 C1043 1.362 . S
C1043 H1033 0.930 . S
C1043 C1036 1.409 . S
C1043 C1042 1.362 . S
H1044 C1050 0.930 . S
H1045 C1053 0.930 . S
H1046 C1054 0.930 . S
H1047 C1055 0.930 . S
H1048 C1058 0.930 . S
H1049 C1059 0.930 . S
C1050 H1044 0.930 . S
C1050 C1051 1.355 . S
C1050 C1052 1.415 . S
C1051 C1050 1.355 . S
C1051 C1053 1.419 . S
C1052 C1050 1.415 . S
C1052 C1057 1.425 . S
C1052 C1059 1.409 . S
C1053 H1045 0.930 . S
C1053 C1051 1.419 . S
C1053 C1054 1.362 . S
C1054 H1046 0.930 . S
C1054 C1053 1.362 . S
C1054 C1057 1.409 . S
C1055 H1047 0.930 . S
C1055 C1056 1.355 . S
C1055 C1057 1.415 . S
C1056 C1055 1.355 . S
C1056 C1058 1.419 . S
C1057 C1052 1.425 . S
C1057 C1054 1.409 . S
C1057 C1055 1.415 . S
C1058 H1048 0.930 . S
C1058 C1056 1.419 . S
C1058 C1059 1.362 . S
C1059 H1049 0.930 . S
C1059 C1052 1.409 . S
C1059 C1058 1.362 . S
H1060 C1066 0.930 . S
H1061 C1069 0.930 . S
H1062 C1070 0.930 . S
H1063 C1071 0.930 . S
H1064 C1074 0.930 . S
H1065 C1075 0.930 . S
C1066 H1060 0.930 . S
C1066 C1067 1.355 . S
C1066 C1068 1.415 . S
C1067 C1066 1.355 . S
C1067 C1069 1.419 . S
C1068 C1066 1.415 . S
C1068 C1073 1.425 . S
C1068 C1075 1.409 . S
C1069 H1061 0.930 . S
C1069 C1067 1.419 . S
C1069 C1070 1.362 . S
C1070 H1062 0.930 . S
C1070 C1069 1.362 . S
C1070 C1073 1.409 . S
C1071 H1063 0.930 . S
C1071 C1072 1.355 . S
C1071 C1073 1.415 . S
C1072 C1071 1.355 . S
C1072 C1074 1.419 . S
C1073 C1068 1.425 . S
C1073 C1070 1.409 . S
C1073 C1071 1.415 . S
C1074 H1064 0.930 . S
C1074 C1072 1.419 . S
C1074 C1075 1.362 . S
C1075 H1065 0.930 . S
C1075 C1068 1.409 . S
C1075 C1074 1.362 . S
H1076 C1082 0.930 . S
H1077 C1085 0.930 . S
H1078 C1086 0.930 . S
H1079 C1087 0.930 . S
H1080 C1090 0.930 . S
H1081 C1091 0.930 . S
C1082 H1076 0.930 . S
C1082 C1083 1.355 . S
C1082 C1084 1.415 . S
C1083 C1082 1.355 . S
C1083 C1085 1.419 . S
C1084 C1082 1.415 . S
C1084 C1089 1.425 . S
C1084 C1091 1.409 . S
C1085 H1077 0.930 . S
C1085 C1083 1.419 . S
C1085 C1086 1.362 . S
C1086 H1078 0.930 . S
C1086 C1085 1.362 . S
C1086 C1089 1.409 . S
C1087 H1079 0.930 . S
C1087 C1088 1.355 . S
C1087 C1089 1.415 . S
C1088 C1087 1.355 . S
C1088 C1090 1.419 . S
C1089 C1084 1.425 . S
C1089 C1086 1.409 . S
C1089 C1087 1.415 . S
C1090 H1080 0.930 . S
C1090 C1088 1.419 . S
C1090 C1091 1.362 . S
C1091 H1081 0.930 . S
C1091 C1084 1.409 . S
C1091 C1090 1.362 . S
H1092 C1098 0.930 . S
H1093 C1101 0.930 . S
H1094 C1102 0.930 . S
H1095 C1103 0.930 . S
H1096 C1106 0.930 . S
H1097 C1107 0.930 . S
C1098 H1092 0.930 . S
C1098 C1099 1.355 . S
C1098 C1100 1.415 . S
C1099 C1098 1.355 . S
C1099 C1101 1.419 . S
C1100 C1098 1.415 . S
C1100 C1105 1.425 . S
C1100 C1107 1.409 . S
C1101 H1093 0.930 . S
C1101 C1099 1.419 . S
C1101 C1102 1.362 . S
C1102 H1094 0.930 . S
C1102 C1101 1.362 . S
C1102 C1105 1.409 . S
C1103 H1095 0.930 . S
C1103 C1104 1.355 . S
C1103 C1105 1.415 . S
C1104 C1103 1.355 . S
C1104 C1106 1.419 . S
C1105 C1100 1.425 . S
C1105 C1102 1.409 . S
C1105 C1103 1.415 . S
C1106 H1096 0.930 . S
C1106 C1104 1.419 . S
C1106 C1107 1.362 . S
C1107 H1097 0.930 . S
C1107 C1100 1.409 . S
C1107 C1106 1.362 . S
H1108 C1114 0.930 . S
H1109 C1117 0.930 . S
H1110 C1118 0.930 . S
H1111 C1119 0.930 . S
H1112 C1122 0.930 . S
H1113 C1123 0.930 . S
C1114 H1108 0.930 . S
C1114 C1115 1.355 . S
C1114 C1116 1.415 . S
C1115 C1114 1.355 . S
C1115 C1117 1.419 . S
C1116 C1114 1.415 . S
C1116 C1121 1.425 . S
C1116 C1123 1.409 . S
C1117 H1109 0.930 . S
C1117 C1115 1.419 . S
C1117 C1118 1.362 . S
C1118 H1110 0.930 . S
C1118 C1117 1.362 . S
C1118 C1121 1.409 . S
C1119 H1111 0.930 . S
C1119 C1120 1.355 . S
C1119 C1121 1.415 . S
C1120 C1119 1.355 . S
C1120 C1122 1.419 . S
C1121 C1116 1.425 . S
C1121 C1118 1.409 . S
C1121 C1119 1.415 . S
C1122 H1112 0.930 . S
C1122 C1120 1.419 . S
C1122 C1123 1.362 . S
C1123 H1113 0.930 . S
C1123 C1116 1.409 . S
C1123 C1122 1.362 . S
H1124 C1130 0.930 . S
H1125 C1133 0.930 . S
H1126 C1134 0.930 . S
H1127 C1135 0.930 . S
H1128 C1138 0.930 . S
H1129 C1139 0.930 . S
C1130 H1124 0.930 . S
C1130 C1131 1.355 . S
C1130 C1132 1.415 . S
C1131 C1130 1.355 . S
C1131 C1133 1.419 . S
C1132 C1130 1.415 . S
C1132 C1137 1.425 . S
C1132 C1139 1.409 . S
C1133 H1125 0.930 . S
C1133 C1131 1.419 . S
C1133 C1134 1.362 . S
C1134 H1126 0.930 . S
C1134 C1133 1.362 . S
C1134 C1137 1.409 . S
C1135 H1127 0.930 . S
C1135 C1136 1.355 . S
C1135 C1137 1.415 . S
C1136 C1135 1.355 . S
C1136 C1138 1.419 . S
C1137 C1132 1.425 . S
C1137 C1134 1.409 . S
C1137 C1135 1.415 . S
C1138 H1128 0.930 . S
C1138 C1136 1.419 . S
C1138 C1139 1.362 . S
C1139 H1129 0.930 . S
C1139 C1132 1.409 . S
C1139 C1138 1.362 . S
H1140 C1146 0.930 . S
H1141 C1149 0.930 . S
H1142 C1150 0.930 . S
H1143 C1151 0.930 . S
H1144 C1154 0.930 . S
H1145 C1155 0.930 . S
C1146 H1140 0.930 . S
C1146 C1147 1.355 . S
C1146 C1148 1.415 . S
C1147 C1146 1.355 . S
C1147 C1149 1.419 . S
C1148 C1146 1.415 . S
C1148 C1153 1.425 . S
C1148 C1155 1.409 . S
C1149 H1141 0.930 . S
C1149 C1147 1.419 . S
C1149 C1150 1.362 . S
C1150 H1142 0.930 . S
C1150 C1149 1.362 . S
C1150 C1153 1.409 . S
C1151 H1143 0.930 . S
C1151 C1152 1.355 . S
C1151 C1153 1.415 . S
C1152 C1151 1.355 . S
C1152 C1154 1.419 . S
C1153 C1148 1.425 . S
C1153 C1150 1.409 . S
C1153 C1151 1.415 . S
C1154 H1144 0.930 . S
C1154 C1152 1.419 . S
C1154 C1155 1.362 . S
C1155 H1145 0.930 . S
C1155 C1148 1.409 . S
C1155 C1154 1.362 . S
H1156 C1162 0.930 . S
H1157 C1165 0.930 . S
H1158 C1166 0.930 . S
H1159 C1167 0.930 . S
H1160 C1170 0.930 . S
H1161 C1171 0.930 . S
C1162 H1156 0.930 . S
C1162 C1163 1.355 . S
C1162 C1164 1.415 . S
C1163 C1162 1.355 . S
C1163 C1165 1.419 . S
C1164 C1162 1.415 . S
C1164 C1169 1.425 . S
C1164 C1171 1.409 . S
C1165 H1157 0.930 . S
C1165 C1163 1.419 . S
C1165 C1166 1.362 . S
C1166 H1158 0.930 . S
C1166 C1165 1.362 . S
C1166 C1169 1.409 . S
C1167 H1159 0.930 . S
C1167 C1168 1.355 . S
C1167 C1169 1.415 . S
C1168 C1167 1.355 . S
C1168 C1170 1.419 . S
C1169 C1164 1.425 . S
C1169 C1166 1.409 . S
C1169 C1167 1.415 . S
C1170 H1160 0.930 . S
C1170 C1168 1.419 . S
C1170 C1171 1.362 . S
C1171 H1161 0.930 . S
C1171 C1164 1.409 . S
C1171 C1170 1.362 . S
H1172 C1178 0.930 . S
H1173 C1181 0.930 . S
H1174 C1182 0.930 . S
H1175 C1183 0.930 . S
H1176 C1186 0.930 . S
H1177 C1187 0.930 . S
C1178 H1172 0.930 . S
C1178 C1179 1.355 . S
C1178 C1180 1.415 . S
C1179 C1178 1.355 . S
C1179 C1181 1.419 . S
C1180 C1178 1.415 . S
C1180 C1185 1.425 . S
C1180 C1187 1.409 . S
C1181 H1173 0.930 . S
C1181 C1179 1.419 . S
C1181 C1182 1.362 . S
C1182 H1174 0.930 . S
C1182 C1181 1.362 . S
C1182 C1185 1.409 . S
C1183 H1175 0.930 . S
C1183 C1184 1.355 . S
C1183 C1185 1.415 . S
C1184 C1183 1.355 . S
C1184 C1186 1.419 . S
C1185 C1180 1.425 . S
C1185 C1182 1.409 . S
C1185 C1183 1.415 . S
C1186 H1176 0.930 . S
C1186 C1184 1.419 . S
C1186 C1187 1.362 . S
C1187 H1177 0.930 . S
C1187 C1180 1.409 . S
C1187 C1186 1.362 . S
H1188 C1194 0.930 . S
H1189 C1197 0.930 . S
H1190 C1198 0.930 . S
H1191 C1199 0.930 . S
H1192 C1202 0.930 . S
H1193 C1203 0.930 . S
C1194 H1188 0.930 . S
C1194 C1195 1.355 . S
C1194 C1196 1.415 . S
C1195 C1194 1.355 . S
C1195 C1197 1.419 . S
C1196 C1194 1.415 . S
C1196 C1201 1.425 . S
C1196 C1203 1.409 . S
C1197 H1189 0.930 . S
C1197 C1195 1.419 . S
C1197 C1198 1.362 . S
C1198 H1190 0.930 . S
C1198 C1197 1.362 . S
C1198 C1201 1.409 . S
C1199 H1191 0.930 . S
C1199 C1200 1.355 . S
C1199 C1201 1.415 . S
C1200 C1199 1.355 . S
C1200 C1202 1.419 . S
C1201 C1196 1.425 . S
C1201 C1198 1.409 . S
C1201 C1199 1.415 . S
C1202 H1192 0.930 . S
C1202 C1200 1.419 . S
C1202 C1203 1.362 . S
C1203 H1193 0.930 . S
C1203 C1196 1.409 . S
C1203 C1202 1.362 . S
H1204 C1210 0.930 . S
H1205 C1213 0.930 . S
H1206 C1214 0.930 . S
H1207 C1215 0.930 . S
H1208 C1218 0.930 . S
H1209 C1219 0.930 . S
C1210 H1204 0.930 . S
C1210 C1211 1.355 . S
C1210 C1212 1.415 . S
C1211 C1210 1.355 . S
C1211 C1213 1.419 . S
C1212 C1210 1.415 . S
C1212 C1217 1.425 . S
C1212 C1219 1.409 . S
C1213 H1205 0.930 . S
C1213 C1211 1.419 . S
C1213 C1214 1.362 . S
C1214 H1206 0.930 . S
C1214 C1213 1.362 . S
C1214 C1217 1.409 . S
C1215 H1207 0.930 . S
C1215 C1216 1.355 . S
C1215 C1217 1.415 . S
C1216 C1215 1.355 . S
C1216 C1218 1.419 . S
C1217 C1212 1.425 . S
C1217 C1214 1.409 . S
C1217 C1215 1.415 . S
C1218 H1208 0.930 . S
C1218 C1216 1.419 . S
C1218 C1219 1.362 . S
C1219 H1209 0.930 . S
C1219 C1212 1.409 . S
C1219 C1218 1.362 . S
H1220 C1226 0.930 . S
H1221 C1229 0.930 . S
H1222 C1230 0.930 . S
H1223 C1231 0.930 . S
H1224 C1234 0.930 . S
H1225 C1235 0.930 . S
C1226 H1220 0.930 . S
C1226 C1227 1.355 . S
C1226 C1228 1.415 . S
C1227 C1226 1.355 . S
C1227 C1229 1.419 . S
C1228 C1226 1.415 . S
C1228 C1233 1.425 . S
C1228 C1235 1.409 . S
C1229 H1221 0.930 . S
C1229 C1227 1.419 . S
C1229 C1230 1.362 . S
C1230 H1222 0.930 . S
C1230 C1229 1.362 . S
C1230 C1233 1.409 . S
C1231 H1223 0.930 . S
C1231 C1232 1.355 . S
C1231 C1233 1.415 . S
C1232 C1231 1.355 . S
C1232 C1234 1.419 . S
C1233 C1228 1.425 . S
C1233 C1230 1.409 . S
C1233 C1231 1.415 . S
C1234 H1224 0.930 . S
C1234 C1232 1.419 . S
C1234 C1235 1.362 . S
C1235 H1225 0.930 . S
C1235 C1228 1.409 . S
C1235 C1234 1.362 . S
H1236 C1242 0.930 . S
H1237 C1245 0.930 . S
H1238 C1246 0.930 . S
H1239 C1247 0.930 . S
H1240 C1250 0.930 . S
H1241 C1251 0.930 . S
C1242 H1236 0.930 . S
C1242 C1243 1.355 . S
C1242 C1244 1.415 . S
C1243 C1242 1.355 . S
C1243 C1245 1.419 . S
C1244 C1242 1.415 . S
C1244 C1249 1.425 . S
C1244 C1251 1.409 . S
C1245 H1237 0.930 . S
C1245 C1243 1.419 . S
C1245 C1246 1.362 . S
C1246 H1238 0.930 . S
C1246 C1245 1.362 . S
C1246 C1249 1.409 . S
C1247 H1239 0.930 . S
C1247 C1248 1.355 . S
C1247 C1249 1.415 . S
C1248 C1247 1.355 . S
C1248 C1250 1.419 . S
C1249 C1244 1.425 . S
C1249 C1246 1.409 . S
C1249 C1247 1.415 . S
C1250 H1240 0.930 . S
C1250 C1248 1.419 . S
C1250 C1251 1.362 . S
C1251 H1241 0.930 . S
C1251 C1244 1.409 . S
C1251 C1250 1.362 . S
H1252 C1258 0.930 . S
H1253 C1261 0.930 . S
H1254 C1262 0.930 . S
H1255 C1263 0.930 . S
H1256 C1266 0.930 . S
H1257 C1267 0.930 . S
C1258 H1252 0.930 . S
C1258 C1259 1.355 . S
C1258 C1260 1.415 . S
C1259 C1258 1.355 . S
C1259 C1261 1.419 . S
C1260 C1258 1.415 . S
C1260 C1265 1.425 . S
C1260 C1267 1.409 . S
C1261 H1253 0.930 . S
C1261 C1259 1.419 . S
C1261 C1262 1.362 . S
C1262 H1254 0.930 . S
C1262 C1261 1.362 . S
C1262 C1265 1.409 . S
C1263 H1255 0.930 . S
C1263 C1264 1.355 . S
C1263 C1265 1.415 . S
C1264 C1263 1.355 . S
C1264 C1266 1.419 . S
C1265 C1260 1.425 . S
C1265 C1262 1.409 . S
C1265 C1263 1.415 . S
C1266 H1256 0.930 . S
C1266 C1264 1.419 . S
C1266 C1267 1.362 . S
C1267 H1257 0.930 . S
C1267 C1260 1.409 . S
C1267 C1266 1.362 . S
H1268 C1274 0.930 . S
H1269 C1277 0.930 . S
H1270 C1278 0.930 . S
H1271 C1279 0.930 . S
H1272 C1282 0.930 . S
H1273 C1283 0.930 . S
C1274 H1268 0.930 . S
C1274 C1275 1.355 . S
C1274 C1276 1.415 . S
C1275 C1274 1.355 . S
C1275 C1277 1.419 . S
C1276 C1274 1.415 . S
C1276 C1281 1.425 . S
C1276 C1283 1.409 . S
C1277 H1269 0.930 . S
C1277 C1275 1.419 . S
C1277 C1278 1.362 . S
C1278 H1270 0.930 . S
C1278 C1277 1.362 . S
C1278 C1281 1.409 . S
C1279 H1271 0.930 . S
C1279 C1280 1.355 . S
C1279 C1281 1.415 . S
C1280 C1279 1.355 . S
C1280 C1282 1.419 . S
C1281 C1276 1.425 . S
C1281 C1278 1.409 . S
C1281 C1279 1.415 . S
C1282 H1272 0.930 . S
C1282 C1280 1.419 . S
C1282 C1283 1.362 . S
C1283 H1273 0.930 . S
C1283 C1276 1.409 . S
C1283 C1282 1.362 . S
H1284 C1290 0.930 . S
H1285 C1293 0.930 . S
H1286 C1294 0.930 . S
H1287 C1295 0.930 . S
H1288 C1298 0.930 . S
H1289 C1299 0.926 1_556 S
C1290 H1284 0.930 . S
C1290 C1291 1.355 . S
C1290 C1292 1.415 1_556 S
C1291 C1290 1.355 . S
C1291 C1293 1.419 1_556 S
C1292 C1290 1.415 1_554 S
C1292 C1297 1.425 . S
C1292 C1299 1.409 . S
C1293 H1285 0.930 . S
C1293 C1291 1.419 1_554 S
C1293 C1294 1.362 . S
C1294 H1286 0.930 . S
C1294 C1293 1.362 . S
C1294 C1297 1.409 . S
C1295 H1287 0.930 . S
C1295 C1296 1.355 . S
C1295 C1297 1.415 . S
C1296 C1295 1.355 . S
C1296 C1298 1.419 . S
C1297 C1292 1.425 . S
C1297 C1294 1.409 . S
C1297 C1295 1.415 . S
C1298 H1288 0.930 . S
C1298 C1296 1.419 . S
C1298 C1299 1.362 . S
C1299 H1289 0.926 1_554 S
C1299 C1292 1.409 . S
C1299 C1298 1.362 . S
H1300 C1306 0.930 . S
H1301 C1309 0.930 . S
H1302 C1310 0.930 . S
H1303 C1311 0.930 . S
H1304 C1314 0.930 . S
H1305 C1315 0.930 . S
C1306 H1300 0.930 . S
C1306 C1307 1.355 . S
C1306 C1308 1.415 1_556 S
C1307 C1306 1.355 . S
C1307 C1309 1.419 . S
C1308 C1306 1.415 1_554 S
C1308 C1313 1.425 . S
C1308 C1315 1.409 . S
C1309 H1301 0.930 . S
C1309 C1307 1.419 . S
C1309 C1310 1.362 1_556 S
C1310 H1302 0.930 . S
C1310 C1309 1.362 1_554 S
C1310 C1313 1.409 . S
C1311 H1303 0.930 . S
C1311 C1312 1.355 . S
C1311 C1313 1.415 . S
C1312 C1311 1.355 . S
C1312 C1314 1.419 . S
C1313 C1308 1.425 . S
C1313 C1310 1.409 . S
C1313 C1311 1.415 . S
C1314 H1304 0.930 . S
C1314 C1312 1.419 . S
C1314 C1315 1.362 . S
C1315 H1305 0.930 . S
C1315 C1308 1.409 . S
C1315 C1314 1.362 . S
H1316 C1322 0.930 . S
H1317 C1325 0.930 . S
H1318 C1326 0.930 . S
H1319 C1327 0.930 . S
H1320 C1330 0.930 . S
H1321 C1331 0.930 . S
C1322 H1316 0.930 . S
C1322 C1323 1.355 . S
C1322 C1324 1.415 1_556 S
C1323 C1322 1.355 . S
C1323 C1325 1.419 . S
C1324 C1322 1.415 1_554 S
C1324 C1329 1.425 . S
C1324 C1331 1.409 . S
C1325 H1317 0.930 . S
C1325 C1323 1.419 . S
C1325 C1326 1.362 1_556 S
C1326 H1318 0.930 . S
C1326 C1325 1.362 1_554 S
C1326 C1329 1.409 . S
C1327 H1319 0.930 . S
C1327 C1328 1.355 . S
C1327 C1329 1.415 . S
C1328 C1327 1.355 . S
C1328 C1330 1.419 . S
C1329 C1324 1.425 . S
C1329 C1326 1.409 . S
C1329 C1327 1.415 . S
C1330 H1320 0.930 . S
C1330 C1328 1.419 . S
C1330 C1331 1.362 . S
C1331 H1321 0.930 . S
C1331 C1324 1.409 . S
C1331 C1330 1.362 . S
H1332 C1338 0.930 1_556 S
H1333 C1341 0.930 . S
H1334 C1342 0.930 . S
H1335 C1343 0.930 . S
H1336 C1346 0.930 . S
H1337 C1347 0.930 . S
C1338 H1332 0.930 1_554 S
C1338 C1339 1.355 . S
C1338 C1340 1.415 . S
C1339 C1338 1.355 . S
C1339 C1341 1.419 . S
C1340 C1338 1.415 . S
C1340 C1345 1.425 . S
C1340 C1347 1.409 . S
C1341 H1333 0.930 . S
C1341 C1339 1.419 . S
C1341 C1342 1.362 . S
C1342 H1334 0.930 . S
C1342 C1341 1.362 . S
C1342 C1345 1.409 . S
C1343 H1335 0.930 . S
C1343 C1344 1.355 . S
C1343 C1345 1.415 . S
C1344 C1343 1.355 . S
C1344 C1346 1.419 . S
C1345 C1340 1.425 . S
C1345 C1342 1.409 . S
C1345 C1343 1.415 . S
C1346 H1336 0.930 . S
C1346 C1344 1.419 . S
C1346 C1347 1.362 . S
C1347 H1337 0.930 . S
C1347 C1340 1.409 . S
C1347 C1346 1.362 . S
H1348 C1354 0.930 . S
H1349 C1357 0.930 . S
H1350 C1358 0.930 . S
H1351 C1359 0.930 . S
H1352 C1362 0.930 . S
H1353 C1363 0.930 . S
C1354 H1348 0.930 . S
C1354 C1355 1.355 . S
C1354 C1356 1.415 . S
C1355 C1354 1.355 . S
C1355 C1357 1.419 . S
C1356 C1354 1.415 . S
C1356 C1361 1.425 . S
C1356 C1363 1.409 1_554 S
C1357 H1349 0.930 . S
C1357 C1355 1.419 . S
C1357 C1358 1.362 . S
C1358 H1350 0.930 . S
C1358 C1357 1.362 . S
C1358 C1361 1.409 . S
C1359 H1351 0.930 . S
C1359 C1360 1.355 . S
C1359 C1361 1.415 . S
C1360 C1359 1.355 . S
C1360 C1362 1.419 1_554 S
C1361 C1356 1.425 . S
C1361 C1358 1.409 . S
C1361 C1359 1.415 . S
C1362 H1352 0.930 . S
C1362 C1360 1.419 1_556 S
C1362 C1363 1.362 . S
C1363 H1353 0.930 . S
C1363 C1356 1.409 1_556 S
C1363 C1362 1.362 . S
H1364 C1370 0.930 . S
H1365 C1373 0.930 . S
H1366 C1374 0.930 . S
H1367 C1375 0.930 . S
H1368 C1378 0.930 . S
H1369 C1379 0.930 . S
C1370 H1364 0.930 . S
C1370 C1371 1.355 . S
C1370 C1372 1.415 . S
C1371 C1370 1.355 . S
C1371 C1373 1.419 1_554 S
C1372 C1370 1.415 . S
C1372 C1377 1.425 . S
C1372 C1379 1.409 . S
C1373 H1365 0.930 . S
C1373 C1371 1.419 1_556 S
C1373 C1374 1.362 . S
C1374 H1366 0.930 . S
C1374 C1373 1.362 . S
C1374 C1377 1.409 1_556 S
C1375 H1367 0.930 . S
C1375 C1376 1.355 . S
C1375 C1377 1.415 . S
C1376 C1375 1.355 . S
C1376 C1378 1.419 . S
C1377 C1372 1.425 . S
C1377 C1374 1.409 1_554 S
C1377 C1375 1.415 . S
C1378 H1368 0.930 . S
C1378 C1376 1.419 . S
C1378 C1379 1.362 . S
C1379 H1369 0.930 . S
C1379 C1372 1.409 . S
C1379 C1378 1.362 . S
H1380 C1386 0.930 . S
H1381 C1389 0.930 . S
H1382 C1390 0.930 . S
H1383 C1391 0.930 . S
H1384 C1394 0.930 . S
H1385 C1395 0.930 . S
C1386 H1380 0.930 . S
C1386 C1387 1.355 . S
C1386 C1388 1.415 . S
C1387 C1386 1.355 . S
C1387 C1389 1.419 . S
C1388 C1386 1.415 . S
C1388 C1393 1.425 . S
C1388 C1395 1.409 . S
C1389 H1381 0.930 . S
C1389 C1387 1.419 . S
C1389 C1390 1.362 . S
C1390 H1382 0.930 . S
C1390 C1389 1.362 . S
C1390 C1393 1.409 . S
C1391 H1383 0.930 . S
C1391 C1392 1.355 . S
C1391 C1393 1.415 . S
C1392 C1391 1.355 . S
C1392 C1394 1.419 . S
C1393 C1388 1.425 . S
C1393 C1390 1.409 . S
C1393 C1391 1.415 . S
C1394 H1384 0.930 . S
C1394 C1392 1.419 . S
C1394 C1395 1.362 . S
C1395 H1385 0.930 . S
C1395 C1388 1.409 . S
C1395 C1394 1.362 . S
H1396 C1402 0.930 . S
H1397 C1405 0.930 . S
H1398 C1406 0.930 . S
H1399 C1407 0.930 . S
H1400 C1410 0.930 . S
H1401 C1411 0.930 . S
C1402 H1396 0.930 . S
C1402 C1403 1.355 . S
C1402 C1404 1.415 . S
C1403 C1402 1.355 . S
C1403 C1405 1.419 . S
C1404 C1402 1.415 . S
C1404 C1409 1.425 . S
C1404 C1411 1.409 . S
C1405 H1397 0.930 . S
C1405 C1403 1.419 . S
C1405 C1406 1.362 . S
C1406 H1398 0.930 . S
C1406 C1405 1.362 . S
C1406 C1409 1.409 . S
C1407 H1399 0.930 . S
C1407 C1408 1.355 . S
C1407 C1409 1.415 . S
C1408 C1407 1.355 . S
C1408 C1410 1.419 . S
C1409 C1404 1.425 . S
C1409 C1406 1.409 . S
C1409 C1407 1.415 . S
C1410 H1400 0.930 . S
C1410 C1408 1.419 . S
C1410 C1411 1.362 . S
C1411 H1401 0.930 . S
C1411 C1404 1.409 . S
C1411 C1410 1.362 . S
H1412 C1418 0.930 . S
H1413 C1421 0.930 . S
H1414 C1422 0.930 . S
H1415 C1423 0.930 . S
H1416 C1426 0.930 . S
H1417 C1427 0.930 . S
C1418 H1412 0.930 . S
C1418 C1419 1.355 . S
C1418 C1420 1.415 . S
C1419 C1418 1.355 . S
C1419 C1421 1.419 . S
C1420 C1418 1.415 . S
C1420 C1425 1.425 . S
C1420 C1427 1.409 . S
C1421 H1413 0.930 . S
C1421 C1419 1.419 . S
C1421 C1422 1.362 . S
C1422 H1414 0.930 . S
C1422 C1421 1.362 . S
C1422 C1425 1.409 . S
C1423 H1415 0.930 . S
C1423 C1424 1.355 . S
C1423 C1425 1.415 . S
C1424 C1423 1.355 . S
C1424 C1426 1.419 . S
C1425 C1420 1.425 . S
C1425 C1422 1.409 . S
C1425 C1423 1.415 . S
C1426 H1416 0.930 . S
C1426 C1424 1.419 . S
C1426 C1427 1.362 . S
C1427 H1417 0.930 . S
C1427 C1420 1.409 . S
C1427 C1426 1.362 . S
H1428 C1434 0.930 . S
H1429 C1437 0.930 . S
H1430 C1438 0.930 . S
H1431 C1439 0.930 . S
H1432 C1442 0.930 . S
H1433 C1443 0.930 . S
C1434 H1428 0.930 . S
C1434 C1435 1.355 . S
C1434 C1436 1.415 . S
C1435 C1434 1.355 . S
C1435 C1437 1.419 . S
C1436 C1434 1.415 . S
C1436 C1441 1.425 . S
C1436 C1443 1.409 1_556 S
C1437 H1429 0.930 . S
C1437 C1435 1.419 . S
C1437 C1438 1.362 . S
C1438 H1430 0.930 . S
C1438 C1437 1.362 . S
C1438 C1441 1.409 . S
C1439 H1431 0.930 . S
C1439 C1440 1.355 . S
C1439 C1441 1.415 . S
C1440 C1439 1.355 . S
C1440 C1442 1.419 1_556 S
C1441 C1436 1.425 . S
C1441 C1438 1.409 . S
C1441 C1439 1.415 . S
C1442 H1432 0.930 . S
C1442 C1440 1.419 1_554 S
C1442 C1443 1.362 . S
C1443 H1433 0.930 . S
C1443 C1436 1.409 1_554 S
C1443 C1442 1.362 . S
H1444 C1450 0.930 1_554 S
H1445 C1453 0.930 . S
H1446 C1454 0.930 . S
H1447 C1455 0.930 . S
H1448 C1458 0.930 . S
H1449 C1459 0.930 1_554 S
C1450 H1444 0.930 1_556 S
C1450 C1451 1.355 . S
C1450 C1452 1.415 . S
C1451 C1450 1.355 . S
C1451 C1453 1.419 . S
C1452 C1450 1.415 . S
C1452 C1457 1.425 . S
C1452 C1459 1.409 . S
C1453 H1445 0.930 . S
C1453 C1451 1.419 . S
C1453 C1454 1.362 . S
C1454 H1446 0.930 . S
C1454 C1453 1.362 . S
C1454 C1457 1.409 . S
C1455 H1447 0.930 . S
C1455 C1456 1.355 . S
C1455 C1457 1.415 . S
C1456 C1455 1.355 . S
C1456 C1458 1.419 . S
C1457 C1452 1.425 . S
C1457 C1454 1.409 . S
C1457 C1455 1.415 . S
C1458 H1448 0.930 . S
C1458 C1456 1.419 . S
C1458 C1459 1.362 . S
C1459 H1449 0.930 1_556 S
C1459 C1452 1.409 . S
C1459 C1458 1.362 . S
H1460 C1466 0.930 . S
H1461 C1469 0.930 . S
H1462 C1470 0.930 . S
H1463 C1471 0.930 . S
H1464 C1474 0.930 . S
H1465 C1475 0.930 . S
C1466 H1460 0.930 . S
C1466 C1467 1.355 . S
C1466 C1468 1.415 . S
C1467 C1466 1.355 . S
C1467 C1469 1.419 . S
C1468 C1466 1.415 . S
C1468 C1473 1.425 . S
C1468 C1475 1.409 . S
C1469 H1461 0.930 . S
C1469 C1467 1.419 . S
C1469 C1470 1.362 . S
C1470 H1462 0.930 . S
C1470 C1469 1.362 . S
C1470 C1473 1.409 . S
C1471 H1463 0.930 . S
C1471 C1472 1.355 . S
C1471 C1473 1.415 . S
C1472 C1471 1.355 . S
C1472 C1474 1.419 . S
C1473 C1468 1.425 . S
C1473 C1470 1.409 . S
C1473 C1471 1.415 . S
C1474 H1464 0.930 . S
C1474 C1472 1.419 . S
C1474 C1475 1.362 . S
C1475 H1465 0.930 . S
C1475 C1468 1.409 . S
C1475 C1474 1.362 . S
H1476 C1482 0.930 . S
H1477 C1485 0.930 . S
H1478 C1486 0.930 . S
H1479 C1487 0.930 . S
H1480 C1490 0.930 . S
H1481 C1491 0.930 . S
C1482 H1476 0.930 . S
C1482 C1483 1.355 . S
C1482 C1484 1.415 . S
C1483 C1482 1.355 . S
C1483 C1485 1.419 . S
C1484 C1482 1.415 . S
C1484 C1489 1.425 . S
C1484 C1491 1.409 . S
C1485 H1477 0.930 . S
C1485 C1483 1.419 . S
C1485 C1486 1.362 . S
C1486 H1478 0.930 . S
C1486 C1485 1.362 . S
C1486 C1489 1.409 . S
C1487 H1479 0.930 . S
C1487 C1488 1.355 . S
C1487 C1489 1.415 . S
C1488 C1487 1.355 . S
C1488 C1490 1.419 . S
C1489 C1484 1.425 . S
C1489 C1486 1.409 . S
C1489 C1487 1.415 . S
C1490 H1480 0.930 . S
C1490 C1488 1.419 . S
C1490 C1491 1.362 . S
C1491 H1481 0.930 . S
C1491 C1484 1.409 . S
C1491 C1490 1.362 . S
H1492 C1498 0.930 . S
H1493 C1501 0.930 . S
H1494 C1502 0.930 . S
H1495 C1503 0.930 . S
H1496 C1506 0.930 . S
H1497 C1507 0.930 . S
C1498 H1492 0.930 . S
C1498 C1499 1.355 . S
C1498 C1500 1.415 . S
C1499 C1498 1.355 . S
C1499 C1501 1.419 . S
C1500 C1498 1.415 . S
C1500 C1505 1.425 . S
C1500 C1507 1.409 . S
C1501 H1493 0.930 . S
C1501 C1499 1.419 . S
C1501 C1502 1.362 . S
C1502 H1494 0.930 . S
C1502 C1501 1.362 . S
C1502 C1505 1.409 . S
C1503 H1495 0.930 . S
C1503 C1504 1.355 . S
C1503 C1505 1.415 . S
C1504 C1503 1.355 . S
C1504 C1506 1.419 . S
C1505 C1500 1.425 . S
C1505 C1502 1.409 . S
C1505 C1503 1.415 . S
C1506 H1496 0.930 . S
C1506 C1504 1.419 . S
C1506 C1507 1.362 . S
C1507 H1497 0.930 . S
C1507 C1500 1.409 . S
C1507 C1506 1.362 . S
H1508 C1514 0.930 . S
H1509 C1517 0.930 . S
H1510 C1518 0.930 . S
H1511 C1519 0.930 . S
H1512 C1522 0.930 . S
H1513 C1523 0.930 . S
C1514 H1508 0.930 . S
C1514 C1515 1.355 . S
C1514 C1516 1.415 . S
C1515 C1514 1.355 . S
C1515 C1517 1.419 . S
C1516 C1514 1.415 . S
C1516 C1521 1.425 . S
C1516 C1523 1.409 . S
C1517 H1509 0.930 . S
C1517 C1515 1.419 . S
C1517 C1518 1.362 . S
C1518 H1510 0.930 . S
C1518 C1517 1.362 . S
C1518 C1521 1.409 . S
C1519 H1511 0.930 . S
C1519 C1520 1.355 . S
C1519 C1521 1.415 . S
C1520 C1519 1.355 . S
C1520 C1522 1.419 . S
C1521 C1516 1.425 . S
C1521 C1518 1.409 . S
C1521 C1519 1.415 . S
C1522 H1512 0.930 . S
C1522 C1520 1.419 . S
C1522 C1523 1.362 . S
C1523 H1513 0.930 . S
C1523 C1516 1.409 . S
C1523 C1522 1.362 . S
H1524 C1530 0.930 . S
H1525 C1533 0.930 . S
H1526 C1534 0.930 . S
H1527 C1535 0.930 . S
H1528 C1538 0.930 . S
H1529 C1539 0.930 . S
C1530 H1524 0.930 . S
C1530 C1531 1.355 . S
C1530 C1532 1.415 . S
C1531 C1530 1.355 . S
C1531 C1533 1.419 . S
C1532 C1530 1.415 . S
C1532 C1537 1.425 1_455 S
C1532 C1539 1.409 1_455 S
C1533 H1525 0.930 . S
C1533 C1531 1.419 . S
C1533 C1534 1.362 . S
C1534 H1526 0.930 . S
C1534 C1533 1.362 . S
C1534 C1537 1.409 1_455 S
C1535 H1527 0.930 . S
C1535 C1536 1.355 . S
C1535 C1537 1.415 . S
C1536 C1535 1.355 . S
C1536 C1538 1.419 . S
C1537 C1532 1.425 1_655 S
C1537 C1534 1.409 1_655 S
C1537 C1535 1.415 . S
C1538 H1528 0.930 . S
C1538 C1536 1.419 . S
C1538 C1539 1.362 . S
C1539 H1529 0.930 . S
C1539 C1532 1.409 1_655 S
C1539 C1538 1.362 . S
H1540 C1546 0.930 . S
H1541 C1549 0.930 . S
H1542 C1550 0.930 . S
H1543 C1551 0.930 . S
H1544 C1554 0.930 . S
H1545 C1555 0.930 . S
C1546 H1540 0.930 . S
C1546 C1547 1.355 . S
C1546 C1548 1.415 . S
C1547 C1546 1.355 . S
C1547 C1549 1.419 . S
C1548 C1546 1.415 . S
C1548 C1553 1.425 . S
C1548 C1555 1.409 . S
C1549 H1541 0.930 . S
C1549 C1547 1.419 . S
C1549 C1550 1.362 . S
C1550 H1542 0.930 . S
C1550 C1549 1.362 . S
C1550 C1553 1.409 . S
C1551 H1543 0.930 . S
C1551 C1552 1.355 . S
C1551 C1553 1.415 . S
C1552 C1551 1.355 . S
C1552 C1554 1.419 . S
C1553 C1548 1.425 . S
C1553 C1550 1.409 . S
C1553 C1551 1.415 . S
C1554 H1544 0.930 . S
C1554 C1552 1.419 . S
C1554 C1555 1.362 . S
C1555 H1545 0.930 . S
C1555 C1548 1.409 . S
C1555 C1554 1.362 . S
H1556 C1562 0.930 . S
H1557 C1565 0.930 . S
H1558 C1566 0.930 . S
H1559 C1567 0.930 . S
H1560 C1570 0.930 . S
H1561 C1571 0.930 . S
C1562 H1556 0.930 . S
C1562 C1563 1.355 . S
C1562 C1564 1.464 . S
C1563 C1562 1.355 . S
C1563 C1565 1.419 . S
C1564 C1562 1.464 . S
C1564 C1569 1.413 1_565 S
C1564 C1571 1.369 1_565 S
C1565 H1557 0.930 . S
C1565 C1563 1.419 . S
C1565 C1566 1.362 . S
C1566 H1558 0.930 . S
C1566 C1565 1.362 . S
C1566 C1569 1.365 1_565 S
C1567 H1559 0.930 . S
C1567 C1568 1.355 . S
C1567 C1569 1.469 . S
C1568 C1567 1.355 . S
C1568 C1570 1.419 . S
C1569 C1564 1.413 1_545 S
C1569 C1566 1.365 1_545 S
C1569 C1567 1.469 . S
C1570 H1560 0.930 . S
C1570 C1568 1.419 . S
C1570 C1571 1.362 . S
C1571 H1561 0.930 . S
C1571 C1564 1.369 1_545 S
C1571 C1570 1.362 . S
H1572 C1578 0.930 . S
H1573 C1581 0.930 . S
H1574 C1582 0.930 . S
H1575 C1583 0.930 . S
H1576 C1586 0.930 . S
H1577 C1587 0.930 . S
C1578 H1572 0.930 . S
C1578 C1579 1.355 . S
C1578 C1580 1.415 . S
C1579 C1578 1.355 . S
C1579 C1581 1.419 . S
C1580 C1578 1.415 . S
C1580 C1585 1.425 1_545 S
C1580 C1587 1.409 1_545 S
C1581 H1573 0.930 . S
C1581 C1579 1.419 . S
C1581 C1582 1.362 . S
C1582 H1574 0.930 . S
C1582 C1581 1.362 . S
C1582 C1585 1.409 1_545 S
C1583 H1575 0.930 . S
C1583 C1584 1.355 . S
C1583 C1585 1.415 . S
C1584 C1583 1.355 . S
C1584 C1586 1.419 . S
C1585 C1580 1.425 1_565 S
C1585 C1582 1.409 1_565 S
C1585 C1583 1.415 . S
C1586 H1576 0.930 . S
C1586 C1584 1.419 . S
C1586 C1587 1.362 . S
C1587 H1577 0.930 . S
C1587 C1580 1.409 1_565 S
C1587 C1586 1.362 . S
H1588 C1594 0.930 . S
H1589 C1597 0.930 . S
H1590 C1598 0.930 . S
H1591 C1599 0.930 . S
H1592 C1602 0.930 . S
H1593 C1603 0.930 . S
C1594 H1588 0.930 . S
C1594 C1595 1.355 . S
C1594 C1596 1.415 . S
C1595 C1594 1.355 . S
C1595 C1597 1.419 . S
C1596 C1594 1.415 . S
C1596 C1601 1.425 1_455 S
C1596 C1603 1.409 1_455 S
C1597 H1589 0.930 . S
C1597 C1595 1.419 . S
C1597 C1598 1.362 . S
C1598 H1590 0.930 . S
C1598 C1597 1.362 . S
C1598 C1601 1.409 1_455 S
C1599 H1591 0.930 . S
C1599 C1600 1.355 . S
C1599 C1601 1.415 . S
C1600 C1599 1.355 . S
C1600 C1602 1.419 . S
C1601 C1596 1.425 1_655 S
C1601 C1598 1.409 1_655 S
C1601 C1599 1.415 . S
C1602 H1592 0.930 . S
C1602 C1600 1.419 . S
C1602 C1603 1.362 . S
C1603 H1593 0.930 . S
C1603 C1596 1.409 1_655 S
C1603 C1602 1.362 . S
H1604 C1610 0.930 . S
H1605 C1613 0.930 . S
H1606 C1614 0.930 . S
H1607 C1615 0.930 . S
H1608 C1618 0.930 . S
H1609 C1619 0.930 . S
C1610 H1604 0.930 . S
C1610 C1611 1.355 . S
C1610 C1612 1.415 . S
C1611 C1610 1.355 . S
C1611 C1613 1.419 . S
C1612 C1610 1.415 . S
C1612 C1617 1.425 . S
C1612 C1619 1.409 . S
C1613 H1605 0.930 . S
C1613 C1611 1.419 . S
C1613 C1614 1.362 . S
C1614 H1606 0.930 . S
C1614 C1613 1.362 . S
C1614 C1617 1.409 . S
C1615 H1607 0.930 . S
C1615 C1616 1.355 . S
C1615 C1617 1.415 . S
C1616 C1615 1.355 . S
C1616 C1618 1.419 . S
C1617 C1612 1.425 . S
C1617 C1614 1.409 . S
C1617 C1615 1.415 . S
C1618 H1608 0.930 . S
C1618 C1616 1.419 . S
C1618 C1619 1.362 . S
C1619 H1609 0.930 . S
C1619 C1612 1.409 . S
C1619 C1618 1.362 . S
C475 C39 1.243 . S
C480 C0 1.304 . S
C491 C52 1.240 . S
C496 C13 1.301 . S
C507 C65 1.252 . S
C512 C26 1.265 . S
C523 C78 1.283 . S
C528 C117 1.241 . S
C539 C91 1.238 . S
C544 C130 1.297 . S
C555 C143 1.253 . S
C560 C104 1.307 . S
C571 C156 1.223 . S
C576 C195 1.262 . S
C587 C169 1.256 . S
C592 C208 1.272 . S
C603 C182 1.259 . S
C608 C221 1.269 . S
C619 C234 1.248 . S
C624 C273 1.223 . S
C635 C286 1.233 . S
C640 C247 1.275 . S
C651 C260 1.209 . S
C656 C299 1.274 . S
C667 C312 1.278 . S
C672 C351 1.219 . S
C683 C325 1.212 . S
C688 C364 1.278 . S
C699 C377 1.227 . S
C704 C338 1.277 . S
C715 C429 1.279 . S
C720 C390 1.246 . S
C731 C442 1.282 . S
C736 C403 1.221 . S
C747 C455 1.268 . S
C752 C416 1.220 . S
C763 C151 1.354 . S
C768 C5 1.294 1_556 S
C779 C18 1.212 1_556 S
C784 C125 1.330 . S
C795 C31 1.207 1_556 S
C800 C138 1.309 . S
C811 C99 1.320 . S
C816 C44 1.221 . S
C827 C57 1.219 . S
C832 C112 1.329 . S
C843 C86 1.307 . S
C848 C70 1.260 . S
C859 C83 1.255 1_554 S
C864 C73 1.353 . S
C875 C96 1.269 1_554 S
C880 C47 1.298 . S
C891 C60 1.340 . S
C896 C109 1.224 1_554 S
C907 C21 1.359 . S
C912 C122 1.321 . S
C923 C34 1.321 . S
C928 C135 1.308 . S
C939 C148 1.220 . S
C944 C8 1.323 . S
C955 C161 1.184 . S
C960 C307 1.254 . S
C971 C281 1.306 . S
C976 C174 1.272 . S
C987 C294 1.295 . S
C992 C187 1.279 . S
C1003 C200 1.217 . S
C1008 C255 1.328 . S
C1019 C268 1.299 . S
C1024 C213 1.209 . S
C1035 C226 1.271 . S
C1040 C242 1.346 . S
C1051 C239 1.283 . S
C1056 C229 1.289 . S
C1067 C252 1.261 . S
C1072 C203 1.340 . S
C1083 C216 1.326 . S
C1088 C265 1.304 . S
C1099 C177 1.379 . S
C1104 C278 1.314 . S
C1115 C190 1.371 . S
C1120 C291 1.267 . S
C1131 C304 1.320 . S
C1136 C164 1.333 . S
C1147 C463 1.279 . S
C1152 C317 1.247 . S
C1163 C330 1.200 . S
C1168 C437 1.304 . S
C1179 C343 1.290 . S
C1184 C450 1.336 . S
C1195 C356 1.311 . S
C1200 C411 1.381 . S
C1211 C424 1.378 . S
C1216 C369 1.317 . S
C1227 C382 1.335 . S
C1232 C398 1.372 . S
C1243 C385 1.252 . S
C1248 C395 1.221 . S
C1259 C359 1.298 . S
C1264 C408 1.278 . S
C1275 C372 1.295 . S
C1280 C421 1.279 . S
C1291 C333 1.346 . S
C1296 C434 1.278 . S
C1307 C346 1.318 . S
C1312 C447 1.311 . S
C1323 C320 1.337 . S
C1328 C460 1.231 . S
C1339 C387 1.397 . S
C1344 C10 1.444 . S
C1355 C23 1.426 . S
C1360 C361 1.401 . S
C1371 C374 1.412 . S
C1376 C36 1.413 . S
C1387 C49 1.441 . S
C1392 C179 1.392 . S
C1403 C192 1.419 . S
C1408 C62 1.427 . S
C1419 C75 1.424 . S
C1424 C166 1.398 . S
C1435 C88 1.409 . S
C1440 C309 1.415 . S
C1451 C283 1.442 . S
C1456 C101 1.401 . S
C1467 C114 1.437 . S
C1472 C296 1.394 . S
C1483 C127 1.429 . S
C1488 C413 1.395 . S
C1499 C140 1.391 . S
C1504 C426 1.440 . S
C1515 C400 1.431 . S
C1520 C153 1.393 . S
C1531 C335 1.426 . S
C1536 C205 1.398 . S
C1547 C348 1.431 . S
C1552 C218 1.383 . S
C1563 C322 1.402 . S
C1568 C231 1.424 . S
C1579 C244 1.430 . S
C1584 C465 1.392 . S
C1595 C439 1.426 . S
C1600 C257 1.379 . S
C1611 C270 1.384 . S
C1616 C452 1.431 . S
