# Generated by pormake.
# Topology vmn, (7)-cn, num edge types: 1
# Building blocks:
#     Node 0, Type 0, BuildingBlock: HICVOG_clean_sbu_0, # of connection points: 7
#     Node 1, Type 0, BuildingBlock: HICVOG_clean_sbu_0, # of connection points: 7
#     Node 2, Type 0, BuildingBlock: HICVOG_clean_sbu_0, # of connection points: 7
#     Node 3, Type 0, BuildingBlock: HICVOG_clean_sbu_0, # of connection points: 7
#     Node 4, Type 0, BuildingBlock: HICVOG_clean_sbu_0, # of connection points: 7
#     Node 5, Type 0, BuildingBlock: HICVOG_clean_sbu_0, # of connection points: 7
#     Node 6, Type 0, BuildingBlock: HICVOG_clean_sbu_0, # of connection points: 7
#     Node 7, Type 0, BuildingBlock: HICVOG_clean_sbu_0, # of connection points: 7
#     Edge 8, Type (0, 0), BuildingBlock: KIFKEQ_clean_linker_1, # of connection points: 2
#     Edge 9, Type (0, 0), BuildingBlock: KIFKEQ_clean_linker_1, # of connection points: 2
#     Edge 10, Type (0, 0), BuildingBlock: KIFKEQ_clean_linker_1, # of connection points: 2
#     Edge 11, Type (0, 0), BuildingBlock: KIFKEQ_clean_linker_1, # of connection points: 2
#     Edge 12, Type (0, 0), BuildingBlock: KIFKEQ_clean_linker_1, # of connection points: 2
#     Edge 13, Type (0, 0), BuildingBlock: KIFKEQ_clean_linker_1, # of connection points: 2
#     Edge 14, Type (0, 0), BuildingBlock: KIFKEQ_clean_linker_1, # of connection points: 2
#     Edge 15, Type (0, 0), BuildingBlock: KIFKEQ_clean_linker_1, # of connection points: 2
#     Edge 16, Type (0, 0), BuildingBlock: KIFKEQ_clean_linker_1, # of connection points: 2
#     Edge 17, Type (0, 0), BuildingBlock: KIFKEQ_clean_linker_1, # of connection points: 2
#     Edge 18, Type (0, 0), BuildingBlock: KIFKEQ_clean_linker_1, # of connection points: 2
#     Edge 19, Type (0, 0), BuildingBlock: KIFKEQ_clean_linker_1, # of connection points: 2
#     Edge 20, Type (0, 0), BuildingBlock: KIFKEQ_clean_linker_1, # of connection points: 2
#     Edge 21, Type (0, 0), BuildingBlock: KIFKEQ_clean_linker_1, # of connection points: 2
#     Edge 22, Type (0, 0), BuildingBlock: KIFKEQ_clean_linker_1, # of connection points: 2
#     Edge 23, Type (0, 0), BuildingBlock: KIFKEQ_clean_linker_1, # of connection points: 2
#     Edge 24, Type (0, 0), BuildingBlock: KIFKEQ_clean_linker_1, # of connection points: 2
#     Edge 25, Type (0, 0), BuildingBlock: KIFKEQ_clean_linker_1, # of connection points: 2
#     Edge 26, Type (0, 0), BuildingBlock: KIFKEQ_clean_linker_1, # of connection points: 2
#     Edge 27, Type (0, 0), BuildingBlock: KIFKEQ_clean_linker_1, # of connection points: 2
#     Edge 28, Type (0, 0), BuildingBlock: KIFKEQ_clean_linker_1, # of connection points: 2
#     Edge 29, Type (0, 0), BuildingBlock: KIFKEQ_clean_linker_1, # of connection points: 2
#     Edge 30, Type (0, 0), BuildingBlock: KIFKEQ_clean_linker_1, # of connection points: 2
#     Edge 31, Type (0, 0), BuildingBlock: KIFKEQ_clean_linker_1, # of connection points: 2
#     Edge 32, Type (0, 0), BuildingBlock: KIFKEQ_clean_linker_1, # of connection points: 2
#     Edge 33, Type (0, 0), BuildingBlock: KIFKEQ_clean_linker_1, # of connection points: 2
#     Edge 34, Type (0, 0), BuildingBlock: KIFKEQ_clean_linker_1, # of connection points: 2
#     Edge 35, Type (0, 0), BuildingBlock: KIFKEQ_clean_linker_1, # of connection points: 2
# Relax obj value: 0.162
# Max RMSD: 0.218
# Mean RMSD: 0.218
data_MOF--net-vmn--node1-HICVOG_clean_sbu_0--edge1-KIFKEQ_clean_linker_1
_symmetry_space_group_name_H-M    P1
_symmetry_Int_Tables_number       1
_symmetry_cell_setting            triclinic
loop_
_symmetry_equiv_pos_as_xyz
'x, y, z'
_cell_length_a     39.583635
_cell_length_b     31.747367
_cell_length_c     29.107592
_cell_angle_alpha  90.100243
_cell_angle_beta   98.479945
_cell_angle_gamma 89.984473
loop_
_atom_site_label
_atom_site_type_symbol
_atom_site_fract_x
_atom_site_fract_y
_atom_site_fract_z
_atom_type_partial_charge
Zn0 Zn 0.9629 0.36087 0.18753 0.0
C1 C 1.01028 0.34909 0.31802 0.0
N2 N 1.0002 0.38936 0.32154 0.0
C3 C 0.98735 0.39906 0.27759 0.0
N4 N 0.98913 0.36597 0.24879 0.0
N5 N 1.00463 0.3347 0.27366 0.0
C6 C 0.05619 0.2107 0.25444 0.0
O7 O 0.0702 0.22301 0.21853 0.0
O8 O 0.96385 0.41512 0.15443 0.0
Zn9 Zn 0.03752 0.29748 0.24792 0.0
N10 N 0.91574 0.34618 0.19093 0.0
C11 C 0.87349 0.32229 0.23493 0.0
C12 C 0.90719 0.3333 0.23216 0.0
C13 C 0.89186 0.34863 0.15214 0.0
N14 N 0.84967 0.32466 0.19636 0.0
C15 C 0.85762 0.33769 0.15466 0.0
O16 O 0.02941 0.2901 0.17651 0.0
C17 C 1.00746 0.29855 0.14105 0.0
O18 O 0.98167 0.32151 0.14425 0.0
H19 H 0.92644 0.33142 0.26259 0.0
H20 H 0.89983 0.35825 0.11978 0.0
C21 C 0.11273 0.30538 0.26785 0.0
C22 C 0.14324 0.32915 0.2752 0.0
C23 C 0.11035 0.39187 0.2726 0.0
C24 C 0.08049 0.36835 0.26402 0.0
N25 N 0.08197 0.32562 0.26216 0.0
N26 N 0.14087 0.37185 0.27772 0.0
H27 H 0.1134 0.27144 0.26672 0.0
C28 C 0.9925 0.42252 0.14147 0.0
O29 O 0.01825 0.39698 0.15451 0.0
O30 O 0.03989 0.23771 0.27518 0.0
H31 H 0.05625 0.38418 0.25851 0.0
H32 H 0.86628 0.31184 0.26749 0.0
H33 H 0.10932 0.42588 0.27442 0.0
Zn34 Zn 0.56164 0.36189 0.84482 0.0
C35 C 0.51577 0.34846 0.71404 0.0
N36 N 0.52657 0.38837 0.70995 0.0
C37 C 0.53888 0.39881 0.75394 0.0
N38 N 0.53601 0.36649 0.78324 0.0
N39 N 0.52031 0.3351 0.75875 0.0
C40 C 0.5063 0.21599 0.75645 0.0
O41 O 0.53735 0.23061 0.76901 0.0
O42 O 0.56016 0.41605 0.87814 0.0
Zn43 Zn 0.48649 0.29984 0.78497 0.0
N44 N 0.60896 0.34736 0.84222 0.0
C45 C 0.65172 0.32355 0.79896 0.0
C46 C 0.61783 0.3339 0.80133 0.0
C47 C 0.63264 0.35068 0.88114 0.0
N48 N 0.67535 0.3268 0.83766 0.0
C49 C 0.66701 0.33993 0.87916 0.0
O50 O 0.49469 0.2913 0.8561 0.0
C51 C 0.51706 0.29944 0.89124 0.0
O52 O 0.54278 0.32239 0.88769 0.0
H53 H 0.59873 0.33131 0.77081 0.0
H54 H 0.62461 0.36214 0.91281 0.0
C55 C 0.41231 0.30967 0.77231 0.0
C56 C 0.38168 0.33276 0.76179 0.0
C57 C 0.41384 0.3938 0.74998 0.0
C58 C 0.44394 0.37103 0.76085 0.0
N59 N 0.4428 0.32932 0.77114 0.0
N60 N 0.38354 0.37421 0.75059 0.0
H61 H 0.412 0.27651 0.78079 0.0
C62 C 0.5315 0.4231 0.89125 0.0
O63 O 0.50577 0.39767 0.87759 0.0
O64 O 0.48104 0.24055 0.75764 0.0
H65 H 0.46799 0.38675 0.76104 0.0
H66 H 0.65924 0.31292 0.76661 0.0
H67 H 0.41454 0.42689 0.74135 0.0
Zn68 Zn 0.98623 0.75196 0.7897 0.0
C69 C 0.03646 0.65189 0.75865 0.0
N70 N 0.02364 0.66185 0.71471 0.0
C71 C 1.01342 0.70205 0.7186 0.0
N72 N 0.01905 0.71603 0.76307 0.0
N73 N 0.03462 0.68475 0.78773 0.0
C74 C 0.02474 0.63665 0.89999 0.0
O75 O 1.00174 0.66566 0.88667 0.0
O76 O 0.98036 0.81046 0.76113 0.0
Zn77 Zn 0.06055 0.68931 0.84926 0.0
N78 N 0.94272 0.72206 0.77944 0.0
C79 C 0.91543 0.65509 0.77394 0.0
C80 C 0.94492 0.67937 0.77981 0.0
C81 C 0.91174 0.74169 0.77402 0.0
N82 N 0.88463 0.67446 0.76865 0.0
C83 C 0.88157 0.71719 0.76871 0.0
O84 O 0.04678 0.73477 0.89086 0.0
C85 C 0.02019 0.7562 0.89459 0.0
O86 O 0.99654 0.76135 0.86022 0.0
H87 H 0.96945 0.66423 0.78491 0.0
H88 H 0.9109 0.77572 0.77373 0.0
C89 C 0.13258 0.69204 0.88463 0.0
C90 C 0.16768 0.69566 0.88125 0.0
C91 C 0.15332 0.70441 0.79956 0.0
C92 C 0.11874 0.70109 0.80323 0.0
N93 N 0.109 0.69478 0.84553 0.0
N94 N 0.17682 0.70157 0.83839 0.0
H95 H 0.12391 0.68643 0.91762 0.0
C96 C 1.00476 0.83672 0.76963 0.0
O97 O 0.0341 0.82363 0.79215 0.0
O98 O 0.05332 0.63789 0.88512 0.0
H99 H 0.0998 0.70343 0.77253 0.0
H100 H 0.91696 0.62106 0.77402 0.0
H101 H 0.16146 0.70924 0.76608 0.0
Zn102 Zn 0.53752 0.7528 0.24692 0.0
C103 C 0.4906 0.65031 0.28051 0.0
N104 N 0.50332 0.66154 0.32409 0.0
C105 C 0.51227 0.70209 0.31917 0.0
N106 N 0.50603 0.71511 0.2744 0.0
N107 N 0.49135 0.68266 0.25067 0.0
C108 C 0.50129 0.62858 0.14292 0.0
O109 O 0.52412 0.65784 0.15625 0.0
O110 O 0.54218 0.8115 0.27542 0.0
Zn111 Zn 0.46547 0.68395 0.18918 0.0
N112 N 0.58196 0.7248 0.25687 0.0
C113 C 0.61035 0.65852 0.26223 0.0
C114 C 0.5805 0.68207 0.2564 0.0
C115 C 0.61263 0.74522 0.26223 0.0
N116 N 0.64081 0.67864 0.26756 0.0
C117 C 0.6432 0.72143 0.26755 0.0
O118 O 0.48088 0.72543 0.14533 0.0
C119 C 0.50493 0.75097 0.14141 0.0
O120 O 0.52687 0.76147 0.17614 0.0
H121 H 0.55625 0.66637 0.25121 0.0
H122 H 0.61299 0.77927 0.26249 0.0
C123 C 0.39355 0.6892 0.15299 0.0
C124 C 0.35854 0.69444 0.15613 0.0
C125 C 0.37292 0.70436 0.23768 0.0
C126 C 0.40741 0.6994 0.23427 0.0
N127 N 0.4171 0.69175 0.19216 0.0
N128 N 0.34944 0.70172 0.1988 0.0
H129 H 0.40215 0.68246 0.12017 0.0
C130 C 0.51839 0.83803 0.26371 0.0
O131 O 0.49019 0.82508 0.23801 0.0
O132 O 0.47233 0.63036 0.15669 0.0
H133 H 0.42632 0.70149 0.26502 0.0
H134 H 0.60937 0.62446 0.26208 0.0
H135 H 0.36482 0.71028 0.27101 0.0
Zn136 Zn 0.46711 0.87262 0.69086 0.0
C137 C 0.51378 0.84734 0.82013 0.0
N138 N 0.50731 0.88829 0.82695 0.0
C139 C 0.49348 0.90132 0.7845 0.0
N140 N 0.4913 0.86944 0.75338 0.0
N141 N 0.50544 0.83564 0.77509 0.0
C142 C 0.51901 0.71355 0.76173 0.0
O143 O 0.49011 0.72662 0.73796 0.0
O144 O 0.47717 0.92758 0.66369 0.0
Zn145 Zn 0.53706 0.79964 0.74563 0.0
N146 N 0.41808 0.86699 0.69145 0.0
C147 C 0.37276 0.86043 0.73636 0.0
C148 C 0.40749 0.86308 0.73359 0.0
C149 C 0.3951 0.86775 0.65157 0.0
N150 N 0.34988 0.86153 0.69683 0.0
C151 C 0.35981 0.86493 0.65415 0.0
O152 O 0.5255 0.7918 0.6751 0.0
C153 C 0.50486 0.80513 0.6404 0.0
O154 O 0.48249 0.83291 0.64482 0.0
H155 H 0.42585 0.86237 0.76496 0.0
H156 H 0.40425 0.87133 0.61855 0.0
C157 C 0.61161 0.80868 0.75411 0.0
C158 C 0.64216 0.83245 0.75884 0.0
C159 C 0.61 0.89475 0.76546 0.0
C160 C 0.5801 0.87131 0.76021 0.0
N161 N 0.58123 0.82877 0.75504 0.0
N162 N 0.64012 0.87491 0.76454 0.0
H163 H 0.61165 0.77502 0.74843 0.0
C164 C 0.50771 0.93121 0.65577 0.0
O165 O 0.5297 0.9011 0.66925 0.0
O166 O 0.54293 0.74017 0.77253 0.0
H167 H 0.55616 0.88733 0.75941 0.0
H168 H 0.364 0.8576 0.76971 0.0
H169 H 0.60927 0.9286 0.76963 0.0
Zn170 Zn 0.98737 0.79904 0.28983 0.0
C171 C 0.03821 0.8983 0.25637 0.0
N172 N 0.0236 0.88852 0.21321 0.0
C173 C 1.01341 0.84844 0.21754 0.0
N174 N 0.02026 0.8345 0.262 0.0
N175 N 0.03706 0.8657 0.28571 0.0
C176 C 0.03136 0.93466 0.38062 0.0
O177 O 1.0046 0.91209 0.36357 0.0
O178 O 0.98143 0.73988 0.26229 0.0
Zn179 Zn 0.06154 0.86465 0.34807 0.0
N180 N 0.94386 0.82925 0.27893 0.0
C181 C 0.91661 0.89612 0.26826 0.0
C182 C 0.94603 0.87172 0.27424 0.0
C183 C 0.91298 0.81017 0.27903 0.0
N184 N 0.88596 0.87727 0.26826 0.0
C185 C 0.88291 0.83491 0.27369 0.0
O186 O 0.04033 0.83002 0.39319 0.0
C187 C 0.01645 0.80407 0.39644 0.0
O188 O 0.99664 0.79097 0.36074 0.0
H189 H 0.97048 0.88684 0.27599 0.0
H190 H 0.91222 0.77656 0.28468 0.0
C191 C 0.133 0.85441 0.38518 0.0
C192 C 0.16727 0.84329 0.38309 0.0
C193 C 0.15071 0.81942 0.30557 0.0
C194 C 0.11693 0.83034 0.30794 0.0
N195 N 0.10871 0.84777 0.34748 0.0
N196 N 0.17497 0.82623 0.34293 0.0
H197 H 0.12568 0.86899 0.41585 0.0
C198 C 1.0053 0.71328 0.27331 0.0
O199 O 0.03395 0.7263 0.29783 0.0
O200 O 0.0609 0.92164 0.37561 0.0
H201 H 0.09743 0.82529 0.2783 0.0
H202 H 0.91813 0.92992 0.26436 0.0
H203 H 0.15767 0.80573 0.27422 0.0
Zn204 Zn 0.48561 0.25038 0.28336 0.0
C205 C 0.54063 0.15168 0.25615 0.0
N206 N 0.52971 0.16146 0.21164 0.0
C207 C 0.51774 0.20102 0.21439 0.0
N208 N 0.52017 0.21469 0.259 0.0
N209 N 0.53574 0.18393 0.28465 0.0
C210 C 0.53276 0.12553 0.39374 0.0
O211 O 0.50574 0.14864 0.3793 0.0
O212 O 0.48148 0.30953 0.25638 0.0
Zn213 Zn 0.56015 0.18904 0.34692 0.0
N214 N 0.44188 0.22105 0.2682 0.0
C215 C 0.41282 0.15685 0.24595 0.0
C216 C 0.44286 0.17994 0.25516 0.0
C217 C 0.41162 0.23985 0.27318 0.0
N218 N 0.3828 0.17545 0.25091 0.0
C219 C 0.38099 0.21637 0.26443 0.0
O220 O 0.53819 0.226 0.389 0.0
C221 C 0.51257 0.24957 0.39079 0.0
O222 O 0.49193 0.25924 0.35445 0.0
H223 H 0.46675 0.16467 0.25262 0.0
H224 H 0.41177 0.27212 0.28515 0.0
C225 C 0.63122 0.20122 0.38373 0.0
C226 C 0.66539 0.2128 0.38175 0.0
C227 C 0.64889 0.23512 0.30372 0.0
C228 C 0.61519 0.22371 0.30598 0.0
N229 N 0.60701 0.20681 0.34574 0.0
N230 N 0.67308 0.2293 0.34137 0.0
H231 H 0.62392 0.18706 0.41459 0.0
C232 C 0.50537 0.33554 0.26977 0.0
O233 O 0.53312 0.32171 0.29575 0.0
O234 O 0.56096 0.13447 0.38021 0.0
H235 H 0.59573 0.22796 0.27614 0.0
H236 H 0.41338 0.12416 0.23552 0.0
H237 H 0.65583 0.24838 0.2722 0.0
Zn238 Zn 0.03765 0.25279 0.74747 0.0
C239 C 0.98851 0.1505 0.77804 0.0
N240 N 1.00161 0.16001 0.82192 0.0
C241 C 1.01191 0.20024 0.8187 0.0
N242 N 1.00604 0.21475 0.77436 0.0
N243 N 0.99029 0.18355 0.74941 0.0
C244 C 1.00082 0.13378 0.63765 0.0
O245 O 0.02389 0.16222 0.65289 0.0
O246 O 0.04321 0.3113 0.77668 0.0
Zn247 Zn 0.96463 0.18659 0.68753 0.0
N248 N 0.08163 0.22389 0.75621 0.0
C249 C 0.10936 0.1573 0.75874 0.0
C250 C 0.07973 0.1812 0.75437 0.0
C251 C 0.11245 0.24393 0.76175 0.0
N252 N 0.13997 0.17705 0.76394 0.0
C253 C 0.14284 0.21982 0.76542 0.0
O254 O 0.97938 0.23012 0.64534 0.0
C255 C 1.00419 0.2547 0.64215 0.0
O256 O 0.02679 0.26298 0.67694 0.0
H257 H 0.05532 0.16578 0.74912 0.0
H258 H 0.11288 0.27792 0.7631 0.0
C259 C 0.89268 0.19203 0.65086 0.0
C260 C 0.85751 0.19499 0.65404 0.0
C261 C 0.87125 0.19903 0.73625 0.0
C262 C 0.9059 0.19625 0.73284 0.0
N263 N 0.916 0.19254 0.69038 0.0
N264 N 0.848 0.19821 0.69702 0.0
H265 H 0.90151 0.18849 0.61762 0.0
C266 C 0.01937 0.33808 0.76647 0.0
O267 O 0.99051 0.32552 0.74213 0.0
O268 O 0.97202 0.13465 0.65199 0.0
H269 H 0.92457 0.1968 0.76391 0.0
H270 H 0.10809 0.12327 0.75744 0.0
H271 H 0.86284 0.20174 0.76984 0.0
H272 H 0.09919 0.93917 0.28324 0.0
H273 H 0.99011 0.9573 0.25956 0.0
H274 H 0.1072 1.01563 0.29476 0.0
H275 H 0.99774 0.0328 0.27129 0.0
H276 H 0.01821 0.1677 0.31135 0.0
H277 H 0.01734 0.09141 0.32431 0.0
H278 H 0.09748 0.07542 0.23994 0.0
H279 H 0.09855 0.15104 0.22739 0.0
C280 C 0.07702 0.95945 0.28158 0.0
C281 C 0.04408 0.94258 0.27079 0.0
C282 C 0.0815 1.00311 0.28796 0.0
C283 C 0.05307 0.03044 0.28391 0.0
C284 C 0.02018 1.01286 0.27535 0.0
C285 C 0.01578 0.96957 0.26839 0.0
C286 C 0.03601 0.14792 0.29627 0.0
C287 C 0.05811 0.16546 0.26782 0.0
C288 C 0.03546 0.10421 0.30356 0.0
C289 C 0.05724 0.07718 0.28295 0.0
C290 C 0.08061 0.09516 0.25675 0.0
C291 C 0.08095 0.13862 0.24917 0.0
H292 H 0.44022 0.94884 0.7383 0.0
H293 H 0.5448 0.95611 0.8049 0.0
H294 H 0.4411 1.02484 0.7215 0.0
H295 H 0.54565 0.03107 0.7898 0.0
H296 H 0.44833 0.16954 0.76083 0.0
H297 H 0.44305 0.09284 0.76035 0.0
H298 H 0.54658 0.08199 0.73108 0.0
H299 H 0.55221 0.15838 0.73352 0.0
C300 C 0.46335 0.96665 0.74906 0.0
C301 C 0.49255 0.94662 0.77241 0.0
C302 C 0.46388 1.01016 0.73974 0.0
C303 C 0.49361 0.03428 0.75378 0.0
C304 C 0.52257 1.01372 0.77727 0.0
C305 C 0.52199 0.97068 0.78647 0.0
C306 C 0.46977 0.15075 0.75356 0.0
C307 C 0.50091 0.17009 0.74798 0.0
C308 C 0.46669 0.10668 0.7531 0.0
C309 C 0.4946 0.08095 0.74662 0.0
C310 C 0.52484 0.10061 0.73758 0.0
C311 C 0.52805 0.14452 0.73867 0.0
H312 H 0.94227 0.09435 0.80318 0.0
H313 H 0.02572 0.10571 0.72449 0.0
H314 H 0.94306 1.01753 0.79312 0.0
H315 H 0.02569 0.03004 0.71237 0.0
H316 H 0.05309 0.89815 0.77288 0.0
H317 H 0.04456 0.97386 0.7665 0.0
H318 H 0.93536 0.95531 0.73932 0.0
H319 H 0.94395 0.87896 0.74604 0.0
C320 C 0.95976 0.08057 0.78203 0.0
C321 C 0.983 0.10622 0.76294 0.0
C322 C 0.96027 0.03663 0.77626 0.0
C323 C 0.98454 1.0175 0.75202 0.0
C324 C 1.00679 0.04355 0.73146 0.0
C325 C 1.00631 0.0872 0.73744 0.0
C326 C 0.02724 0.91005 0.76492 0.0
C327 C 0.99924 0.88239 0.76003 0.0
C328 C 0.02232 0.95358 0.761 0.0
C329 C 0.98923 0.97081 0.75232 0.0
C330 C 0.96116 0.94312 0.74631 0.0
C331 C 0.96611 0.89936 0.74981 0.0
H332 H 0.5784 0.87945 0.29571 0.0
H333 H 0.47066 0.90044 0.25195 0.0
H334 H 0.58748 0.95572 0.30257 0.0
H335 H 0.47972 0.97603 0.25832 0.0
H336 H 0.49697 0.10852 0.30079 0.0
H337 H 0.4945 0.03284 0.31274 0.0
H338 H 0.58552 1.01718 0.24884 0.0
H339 H 0.58863 0.09388 0.23904 0.0
C340 C 0.55659 0.90024 0.2882 0.0
C341 C 0.52377 0.88377 0.27325 0.0
C342 C 0.56186 0.94396 0.29177 0.0
C343 C 0.53437 0.97212 0.28103 0.0
C344 C 0.50146 0.95541 0.26754 0.0
C345 C 0.49626 0.91193 0.26363 0.0
C346 C 0.51743 0.08915 0.29153 0.0
C347 C 0.54385 0.10722 0.27099 0.0
C348 C 0.51561 0.04559 0.29739 0.0
C349 C 0.53968 1.01873 0.28153 0.0
C350 C 0.56682 0.03692 0.26209 0.0
C351 C 0.56867 0.08078 0.25646 0.0
H352 H 0.57964 0.67149 0.7887 0.0
H353 H 0.47102 0.65142 0.75341 0.0
H354 H 0.58846 0.59509 0.79485 0.0
H355 H 0.47978 0.57576 0.75915 0.0
H356 H 0.4978 0.44344 0.80196 0.0
H357 H 0.49633 0.51925 0.8132 0.0
H358 H 0.58378 0.53279 0.74152 0.0
H359 H 0.58594 0.4559 0.73231 0.0
C360 C 0.55761 0.65089 0.78288 0.0
C361 C 0.52458 0.66768 0.77057 0.0
C362 C 0.56271 0.60708 0.78604 0.0
C363 C 0.53486 0.57913 0.77757 0.0
C364 C 0.50183 0.59617 0.7666 0.0
C365 C 0.49679 0.63972 0.76304 0.0
C366 C 0.51777 0.46232 0.79072 0.0
C367 C 0.54292 0.44353 0.76819 0.0
C368 C 0.51649 0.50601 0.79621 0.0
C369 C 0.5398 0.53238 0.77804 0.0
C370 C 0.5657 0.51349 0.75655 0.0
C371 C 0.567 0.4695 0.75127 0.0
H372 H 0.93925 0.45518 0.29805 0.0
H373 H 0.02811 0.44421 0.22956 0.0
H374 H 0.94081 0.53211 0.2893 0.0
H375 H 0.02899 0.51998 0.21881 0.0
H376 H 0.05346 0.65141 0.28177 0.0
H377 H 0.04493 0.57579 0.27449 0.0
H378 H 0.9364 0.59491 0.23651 0.0
H379 H 0.94498 0.67128 0.2442 0.0
C380 C 0.9582 0.46908 0.27938 0.0
C381 C 0.98272 0.4435 0.26278 0.0
C382 C 0.95916 0.51309 0.27437 0.0
C383 C 0.98515 0.53236 0.25348 0.0
C384 C 1.00879 0.5064 0.2354 0.0
C385 C 1.00787 0.4627 0.24065 0.0
C386 C 0.02778 0.63967 0.27131 0.0
C387 C 0.99994 0.66753 0.26361 0.0
C388 C 0.02288 0.59617 0.26685 0.0
C389 C 0.98994 0.57909 0.25478 0.0
C390 C 0.96206 0.60695 0.24613 0.0
C391 C 0.96703 0.65072 0.25019 0.0
H392 H 0.55438 0.39634 0.28022 0.0
H393 H 0.44566 0.37896 0.24207 0.0
H394 H 0.54677 0.4723 0.27553 0.0
H395 H 0.438 0.45561 0.23731 0.0
H396 H 0.44357 0.59415 0.30399 0.0
H397 H 0.44433 0.51719 0.29409 0.0
H398 H 0.53042 0.52892 0.21954 0.0
H399 H 0.53024 0.60458 0.23105 0.0
C400 C 0.52886 0.40872 0.27022 0.0
C401 C 0.50067 0.3815 0.26149 0.0
C402 C 0.52448 0.45237 0.26733 0.0
C403 C 0.49174 0.47013 0.256 0.0
C404 C 0.46351 0.44294 0.24638 0.0
C405 C 0.46796 0.39905 0.24874 0.0
C406 C 0.46194 0.58014 0.28439 0.0
C407 C 0.48608 0.60555 0.26681 0.0
C408 C 0.46242 0.53617 0.27867 0.0
C409 C 0.48753 0.51684 0.25611 0.0
C410 C 0.51087 0.54262 0.23734 0.0
C411 C 0.51038 0.58626 0.24317 0.0
H412 H 0.97137 0.39979 0.7643 0.0
H413 H 0.08044 0.37992 0.78939 0.0
H414 H 0.98025 0.47552 0.77084 0.0
H415 H 0.0894 0.4563 0.79593 0.0
H416 H 0.08123 0.59519 0.73055 0.0
H417 H 0.08045 0.51838 0.74062 0.0
H418 H 1.00072 0.5316 0.82612 0.0
H419 H 1.00079 0.60731 0.81435 0.0
C420 C 0.99728 0.41156 0.77188 0.0
C421 C 0.02516 0.38371 0.77631 0.0
C422 C 1.0024 0.45507 0.77586 0.0
C423 C 0.03557 0.47209 0.78394 0.0
C424 C 0.06354 0.44424 0.78944 0.0
C425 C 0.05838 0.40048 0.78605 0.0
C426 C 0.06441 0.58159 0.75271 0.0
C427 C 0.04202 0.60747 0.77325 0.0
C428 C 0.06391 0.53766 0.75849 0.0
C429 C 0.04043 0.51876 0.78412 0.0
C430 C 0.01902 0.54498 0.80601 0.0
C431 C 0.01958 0.58864 0.80017 0.0
H432 H 0.05185 0.45599 0.12207 0.0
H433 H 0.94212 0.46733 0.0894 0.0
H434 H 0.05872 0.50881 0.06366 0.0
H435 H 0.94892 0.51917 0.02983 0.0
H436 H 0.97619 0.6391 0.95669 0.0
H437 H 0.96819 0.58946 0.01776 0.0
H438 H 0.04991 0.51228 0.98004 0.0
H439 H 0.05865 0.56278 0.91992 0.0
C440 C 0.02922 0.46988 0.10241 0.0
C441 C 0.99647 0.45745 0.10986 0.0
C442 C 0.03314 0.49984 0.06876 0.0
C443 C 1.00436 0.51758 0.04168 0.0
C444 C 0.97158 0.50621 0.05035 0.0
C445 C 0.96767 0.47652 0.08437 0.0
C446 C 0.99224 0.61133 0.96124 0.0
C447 C 0.01814 0.60475 0.93387 0.0
C448 C 0.98762 0.58291 0.99615 0.0
C449 C 1.00861 0.54721 1.00393 0.0
C450 C 0.03386 0.54005 0.97553 0.0
C451 C 0.03872 0.56872 0.94094 0.0
H452 H 0.46773 0.55455 0.1217 0.0
H453 H 0.5496 0.63238 0.08614 0.0
H454 H 0.47601 0.50566 0.05953 0.0
H455 H 0.55709 0.58456 0.02318 0.0
H456 H 0.58226 0.4664 0.94456 0.0
H457 H 0.57615 0.51522 1.00738 0.0
H458 H 0.46624 0.50473 0.97581 0.0
H459 H 0.47243 0.45478 0.91405 0.0
C460 C 0.48749 0.56108 0.10061 0.0
C461 C 0.50801 0.5971 0.10855 0.0
C462 C 0.49206 0.53338 0.06485 0.0
C463 C 0.51696 0.54157 0.03618 0.0
C464 C 0.53796 0.57716 0.04496 0.0
C465 C 0.53365 0.60455 0.08101 0.0
C466 C 0.55681 0.47493 0.95075 0.0
C467 C 0.5278 0.45666 0.9248 0.0
C468 C 0.55331 0.50288 0.98669 0.0
C469 C 0.52072 0.51336 0.99688 0.0
C470 C 0.4917 0.4964 0.96952 0.0
C471 C 0.49522 0.46815 0.93391 0.0
H472 H 0.58618 0.09028 0.45064 0.0
H473 H 0.47596 0.09103 0.42011 0.0
H474 H 0.58308 0.04653 0.51865 0.0
H475 H 0.47285 0.04627 0.48707 0.0
H476 H 0.5603 0.93056 0.60543 0.0
H477 H 0.56803 0.97726 0.5417 0.0
H478 H 0.4825 0.05255 0.57047 0.0
H479 H 0.47401 1.00479 0.63327 0.0
C480 C 0.56133 0.08039 0.45797 0.0
C481 C 0.53128 0.09415 0.43035 0.0
C482 C 0.55956 0.05545 0.49695 0.0
C483 C 0.5277 0.04359 0.50865 0.0
C484 C 0.49774 0.05592 0.47973 0.0
C485 C 0.49952 0.08111 0.44107 0.0
C486 C 0.54354 0.95754 0.59869 0.0
C487 C 0.51626 0.96384 0.62377 0.0
C488 C 0.548 0.9843 0.56217 0.0
C489 C 0.52547 1.01808 0.55052 0.0
C490 C 0.49966 0.02603 0.57782 0.0
C491 C 0.49497 0.99898 0.61399 0.0
H492 H 0.08183 0.97716 0.43563 0.0
H493 H 0.97221 0.97189 0.39659 0.0
H494 H 0.07488 0.02654 0.49745 0.0
H495 H 0.9653 1.0224 0.45763 0.0
H496 H 0.96445 0.06349 0.6077 0.0
H497 H 0.97215 1.01899 0.54163 0.0
H498 H 0.0574 0.09614 0.51596 0.0
H499 H 0.05038 0.13967 0.58271 0.0
C500 C 0.05628 0.98729 0.4396 0.0
C501 C 0.02752 0.97022 0.41181 0.0
C502 C 0.0523 1.01565 0.47498 0.0
C503 C 0.01951 0.02775 0.48289 0.0
C504 C 0.99085 1.01275 0.4531 0.0
C505 C 0.99482 0.98417 0.41791 0.0
C506 C 0.98496 0.07065 0.58808 0.0
C507 C 1.00687 0.10484 0.60033 0.0
C508 C 0.98916 0.04551 0.55001 0.0
C509 C 0.01516 0.05438 0.52332 0.0
C510 C 0.03734 0.08829 0.53609 0.0
C511 C 0.03333 0.11316 0.57436 0.0
H512 H 0.85306 0.38793 0.07593 0.0
H513 H 0.79885 0.29173 0.14059 0.0
H514 H 0.80699 0.3901 1.01061 0.0
H515 H 0.75296 0.29387 0.07518 0.0
H516 H 0.66121 0.33524 0.97306 0.0
H517 H 0.70689 0.33721 0.03872 0.0
H518 H 0.78124 0.34903 0.94482 0.0
H519 H 0.73554 0.34882 0.8791 0.0
C520 C 0.83169 0.36672 0.07608 0.0
C521 C 0.83009 0.33921 0.11362 0.0
C522 C 0.80509 0.36811 0.03851 0.0
C523 C 0.77613 0.34218 0.03746 0.0
C524 C 0.77453 0.31482 0.07501 0.0
C525 C 0.80104 0.31344 0.11252 0.0
C526 C 0.68713 0.33917 0.96616 0.0
C527 C 0.69441 0.34239 0.92036 0.0
C528 C 0.71351 0.33965 1.00403 0.0
C529 C 0.74789 0.34321 0.99724 0.0
C530 C 0.75512 0.34679 0.95155 0.0
C531 C 0.7288 0.3463 0.91373 0.0
H532 H 0.29219 0.67106 0.15477 0.0
H533 H 0.36233 0.7138 0.06418 0.0
H534 H 0.24626 0.66963 0.08931 0.0
H535 H 0.31625 0.71282 0.99882 0.0
H536 H 0.23339 0.66946 0.88287 0.0
H537 H 0.27933 0.66742 0.9483 0.0
H538 H 0.21064 0.71566 0.03815 0.0
H539 H 0.16455 0.71729 0.97285 0.0
C540 C 0.2979 0.68016 0.12089 0.0
C541 C 0.33122 0.69212 0.11495 0.0
C542 C 0.27142 0.67955 0.0833 0.0
C543 C 0.27738 0.69116 0.0386 0.0
C544 C 0.31075 0.70294 0.03252 0.0
C545 C 0.33732 0.7034 0.07015 0.0
C546 C 0.22798 0.67955 0.9166 0.0
C547 C 0.195 0.69309 0.92239 0.0
C548 C 0.25447 0.67858 0.95417 0.0
C549 C 0.24886 0.6914 0.99869 0.0
C550 C 0.21584 0.70481 1.0046 0.0
C551 C 0.18926 0.70564 0.967 0.0
H552 H 0.36269 0.83351 0.5661 0.0
H553 H 0.29563 0.89691 0.64812 0.0
H554 H 0.31639 0.82994 0.50092 0.0
H555 H 0.2497 0.89443 0.5828 0.0
H556 H 0.16415 0.83991 0.47723 0.0
H557 H 0.21104 0.84685 0.54095 0.0
H558 H 0.28107 0.868 0.4426 0.0
H559 H 0.23425 0.86 0.37887 0.0
C560 C 0.33833 0.84751 0.56997 0.0
C561 C 0.333 0.86564 0.61243 0.0
C562 C 0.31165 0.84544 0.5325 0.0
C563 C 0.27902 0.86168 0.53642 0.0
C564 C 0.2741 0.88073 0.57859 0.0
C565 C 0.3006 0.88243 0.61606 0.0
C566 C 0.18941 0.84667 0.46913 0.0
C567 C 0.19525 0.84977 0.42275 0.0
C568 C 0.21646 0.85065 0.50581 0.0
C569 C 0.25007 0.8581 0.4972 0.0
C570 C 0.25576 0.8616 0.45078 0.0
C571 C 0.22879 0.85725 0.41414 0.0
H572 H 0.86018 0.22591 0.56586 0.0
H573 H 0.79299 0.16394 0.64859 0.0
H574 H 0.81397 0.2288 0.50063 0.0
H575 H 0.74709 0.16576 0.58316 0.0
H576 H 0.66173 0.21789 0.47567 0.0
H577 H 0.70835 0.21225 0.53994 0.0
H578 H 0.77912 0.18979 0.44279 0.0
H579 H 0.73258 0.19654 0.37852 0.0
C580 C 0.83579 0.2121 0.56991 0.0
C581 C 0.83045 0.19447 0.61256 0.0
C582 C 0.80916 0.21377 0.53239 0.0
C583 C 0.77653 0.19763 0.53638 0.0
C584 C 0.77152 0.17932 0.57883 0.0
C585 C 0.79799 0.17801 0.61639 0.0
C586 C 0.68711 0.21115 0.46796 0.0
C587 C 0.69324 0.20731 0.42176 0.0
C588 C 0.714 0.20791 0.50496 0.0
C589 C 0.74774 0.20047 0.49685 0.0
C590 C 0.75371 0.19624 0.4506 0.0
C591 C 0.72691 0.19986 0.41364 0.0
H592 H 0.32565 0.17249 0.28296 0.0
H593 H 0.35848 0.29934 0.2583 0.0
H594 H 0.26868 0.19836 0.28861 0.0
H595 H 0.30125 0.32511 0.26414 0.0
H596 H 0.20308 0.3613 0.31939 0.0
H597 H 0.2607 0.33454 0.31947 0.0
H598 H 0.21998 0.22767 0.23746 0.0
H599 H 0.16233 0.25432 0.23711 0.0
C600 C 0.32083 0.20596 0.2788 0.0
C601 C 0.34695 0.23375 0.27037 0.0
C602 C 0.28803 0.22073 0.28192 0.0
C603 C 0.28033 0.26375 0.27667 0.0
C604 C 0.30647 0.29179 0.26897 0.0
C605 C 0.3394 0.27698 0.26576 0.0
C606 C 0.20631 0.33191 0.30157 0.0
C607 C 0.17782 0.30989 0.27861 0.0
C608 C 0.23942 0.31673 0.30144 0.0
C609 C 0.24499 0.27908 0.27833 0.0
C610 C 0.21655 0.25651 0.25616 0.0
C611 C 0.18336 0.27174 0.2562 0.0
H612 H 0.36264 0.2736 0.82213 0.0
H613 H 0.3232 0.35087 0.70443 0.0
H614 H 0.30501 0.24844 0.82677 0.0
H615 H 0.26591 0.3248 0.70785 0.0
H616 H 0.16258 0.30236 0.74866 0.0
H617 H 0.22016 0.32896 0.75106 0.0
H618 H 0.26069 0.20558 0.78978 0.0
H619 H 0.20348 0.17943 0.79037 0.0
C620 C 0.34177 0.28452 0.79665 0.0
C621 C 0.34751 0.31399 0.7627 0.0
C622 C 0.30865 0.27021 0.79933 0.0
C623 C 0.28059 0.28474 0.76785 0.0
C624 C 0.28662 0.31363 0.73341 0.0
C625 C 0.31957 0.32827 0.73112 0.0
C626 C 0.18353 0.28089 0.75877 0.0
C627 C 0.17783 0.23848 0.76945 0.0
C628 C 0.2168 0.29615 0.75941 0.0
C629 C 0.24526 0.26939 0.7702 0.0
C630 C 0.23959 0.22736 0.78183 0.0
C631 C 0.20648 0.21224 0.78167 0.0
H632 H 0.86118 0.79543 0.79769 0.0
H633 H 0.82203 0.68013 0.73032 0.0
H634 H 0.80314 0.82196 0.79319 0.0
H635 H 0.7641 0.70674 0.72648 0.0
H636 H 0.66504 0.75089 0.77967 0.0
H637 H 0.72273 0.72371 0.77997 0.0
H638 H 0.75499 0.84486 0.73515 0.0
H639 H 0.69763 0.87205 0.73439 0.0
C640 C 0.84046 0.77595 0.78114 0.0
C641 C 0.84661 0.73565 0.76393 0.0
C642 C 0.80705 0.79115 0.77883 0.0
C643 C 0.779 0.76638 0.75959 0.0
C644 C 0.78511 0.72635 0.7421 0.0
C645 C 0.81843 0.71123 0.74417 0.0
C646 C 0.68416 0.77159 0.76906 0.0
C647 C 0.67642 0.81374 0.75684 0.0
C648 C 0.71734 0.75601 0.76943 0.0
C649 C 0.74349 0.78225 0.75786 0.0
C650 C 0.73561 0.82406 0.74502 0.0
C651 C 0.70258 0.83955 0.74447 0.0
H652 H 0.70293 0.68617 0.30747 0.0
H653 H 0.66275 0.79936 0.23695 0.0
H654 H 0.76063 0.71298 0.30994 0.0
H655 H 0.7207 0.82618 0.23994 0.0
H656 H 0.82741 0.8768 0.29533 0.0
H657 H 0.76979 0.85075 0.29548 0.0
H658 H 0.80106 0.7275 0.25507 0.0
H659 H 0.8589 0.75345 0.25444 0.0
C660 C 0.70628 0.71689 0.29265 0.0
C661 C 0.6779 0.74057 0.27223 0.0
C662 C 0.73948 0.73212 0.29391 0.0
C663 C 0.7453 0.77155 0.27489 0.0
C664 C 0.71702 0.7958 0.25534 0.0
C665 C 0.68369 0.78047 0.25389 0.0
C666 C 0.82218 0.84409 0.28634 0.0
C667 C 0.84819 0.81729 0.27518 0.0
C668 C 0.78899 0.82924 0.28632 0.0
C669 C 0.78079 0.78712 0.27523 0.0
C670 C 0.8067 0.76006 0.26441 0.0
C671 C 0.84 0.77496 0.26424 0.0
H672 H 0.9976 0.2817 0.84033 0.0
H673 H 0.05346 0.17145 0.89395 0.0
H674 H 1.00241 0.31047 0.91914 0.0
H675 H 0.05734 0.19902 0.97245 0.0
H676 H 0.06497 0.26291 0.11344 0.0
H677 H 0.07491 0.24764 0.03401 0.0
H678 H 0.97291 0.29059 0.98179 0.0
H679 H 0.96332 0.3065 0.0602 0.0
C680 C 1.01221 0.26451 0.86865 0.0
C681 C 0.02519 0.22442 0.86101 0.0
C682 C 0.01437 0.28048 0.91404 0.0
C683 C 0.02948 0.25657 0.95256 0.0
C684 C 0.04552 0.21845 0.94402 0.0
C685 C 0.04334 0.2026 0.89884 0.0
C686 C 0.04465 0.26887 0.08497 0.0
C687 C 1.01329 0.28574 0.0935 0.0
C688 C 0.05038 0.26031 0.03934 0.0
C689 C 0.0249 0.26839 1.00112 0.0
C690 C 0.99355 0.28499 1.00992 0.0
C691 C 0.98786 0.29355 0.05526 0.0
H692 H 0.52881 0.28316 0.19229 0.0
H693 H 0.47751 0.16956 0.13928 0.0
H694 H 0.52263 0.31165 0.11328 0.0
H695 H 0.4721 0.19702 0.06063 0.0
H696 H 0.46071 0.26157 0.91967 0.0
H697 H 0.45186 0.24558 0.99937 0.0
H698 H 0.55283 0.2927 0.0503 0.0
H699 H 0.56142 0.30909 0.97168 0.0
C700 C 0.5149 0.2651 0.16405 0.0
C701 C 0.50361 0.22424 0.17187 0.0
C702 C 0.51193 0.28096 0.1186 0.0
C703 C 0.49761 0.2562 0.08023 0.0
C704 C 0.48325 0.21709 0.08898 0.0
C705 C 0.48632 0.2013 0.13421 0.0
C706 C 0.48104 0.2683 0.9479 0.0
C707 C 0.51185 0.28641 0.93894 0.0
C708 C 0.47593 0.25933 0.99367 0.0
C709 C 0.50144 0.26837 0.03159 0.0
C710 C 0.5322 0.2863 0.02238 0.0
C711 C 0.53731 0.29516 0.97691 0.0
H712 H 0.06605 0.75312 0.97455 0.0
H713 H 0.96146 0.78654 0.92333 0.0
H714 H 0.05611 0.76668 0.05352 0.0
H715 H 0.9513 0.79946 1.00299 0.0
H716 H 0.9688 0.87456 0.1441 0.0
H717 H 0.96617 0.84864 0.06506 0.0
H718 H 0.02776 0.74142 0.11597 0.0
H719 H 0.03098 0.76842 0.19541 0.0
C720 C 0.04088 0.76351 0.98004 0.0
C721 C 0.01466 0.76906 0.94223 0.0
C722 C 0.03501 0.77064 0.02562 0.0
C723 C 1.00272 0.78352 0.03501 0.0
C724 C 0.97654 0.78964 0.9972 0.0
C725 C 0.98242 0.7825 0.95141 0.0
C726 C 0.98053 0.84447 0.13858 0.0
C727 C 1.00014 0.82353 0.17586 0.0
C728 C 0.97917 0.82964 0.0931 0.0
C729 C 0.99752 0.79349 0.08377 0.0
C730 C 0.01403 0.77 0.12175 0.0
C731 C 0.01528 0.78488 0.16745 0.0
H732 H 0.53192 0.8235 0.10959 0.0
H733 H 0.49232 0.70109 0.06533 0.0
H734 H 0.5402 0.83932 0.02987 0.0
H735 H 0.5028 0.71513 0.98695 0.0
H736 H 0.56632 0.85838 0.88979 0.0
H737 H 0.56934 0.83012 0.96807 0.0
H738 H 0.48258 0.75013 0.92065 0.0
H739 H 0.48163 0.77652 0.84216 0.0
C740 C 0.52531 0.79989 0.08286 0.0
C741 C 0.51077 0.76154 0.09356 0.0
C742 C 0.53045 0.80858 0.03709 0.0
C743 C 0.52212 0.77859 1.00119 0.0
C744 C 0.50872 0.73964 1.01276 0.0
C745 C 0.50274 0.7315 0.05801 0.0
C746 C 0.54909 0.83318 0.89594 0.0
C747 C 0.52397 0.81929 0.85999 0.0
C748 C 0.55018 0.81767 0.9411 0.0
C749 C 0.52549 0.78873 0.95167 0.0
C750 C 0.50225 0.77218 0.91449 0.0
C751 C 0.50177 0.78702 0.86906 0.0
H752 H 0.49498 0.85437 0.56353 0.0
H753 H 0.52724 0.72969 0.60951 0.0
H754 H 0.50482 0.83737 0.48531 0.0
H755 H 0.53481 0.71114 0.53032 0.0
H756 H 0.4831 0.77538 0.34063 0.0
H757 H 0.48397 0.80298 0.41876 0.0
H758 H 0.56498 0.71577 0.46954 0.0
H759 H 0.56179 0.68638 0.39165 0.0
C760 C 0.50362 0.82291 0.55661 0.0
C761 C 0.5099 0.79312 0.59259 0.0
C762 C 0.50923 0.81305 0.5115 0.0
C763 C 0.52051 0.77268 0.50062 0.0
C764 C 0.52686 0.7429 0.53696 0.0
C765 C 0.5221 0.75322 0.58247 0.0
C766 C 0.50194 0.76334 0.36829 0.0
C767 C 0.52246 0.72895 0.3602 0.0
C768 C 0.50238 0.77894 0.41348 0.0
C769 C 0.52395 0.761 0.45145 0.0
C770 C 0.54703 0.72945 0.44197 0.0
C771 C 0.54586 0.71319 0.39705 0.0
H772 H 0.96454 0.6823 0.64652 0.0
H773 H 0.03922 0.7769 0.69546 0.0
H774 H 0.95898 0.71141 0.5684 0.0
H775 H 0.03614 0.80433 0.61708 0.0
H776 H 0.02317 0.8544 0.47254 0.0
H777 H 0.01368 0.83714 0.55082 0.0
H778 H 0.98748 0.70957 0.50621 0.0
H779 H 0.99448 0.72841 0.42698 0.0
C780 C 0.97911 0.71017 0.64059 0.0
C781 C 1.00202 0.72767 0.67698 0.0
C782 C 0.97658 0.72636 0.59551 0.0
C783 C 0.99786 0.75962 0.58531 0.0
C784 C 0.019 0.779 0.62283 0.0
C785 C 0.02075 0.76345 0.66819 0.0
C786 C 0.01518 0.82269 0.47955 0.0
C787 C 1.0099 0.79258 0.44372 0.0
C788 C 1.00989 0.81262 0.52471 0.0
C789 C 1.00008 0.77168 0.53585 0.0
C790 C 0.99434 0.74171 0.4995 0.0
C791 C 0.99871 0.75224 0.4539 0.0
H792 H 0.46462 0.36891 0.64523 0.0
H793 H 0.54076 0.27438 0.68768 0.0
H794 H 0.45648 0.34076 0.56631 0.0
H795 H 0.5346 0.24748 0.60879 0.0
H796 H 0.51714 0.19809 0.46514 0.0
H797 H 0.50833 0.2147 0.54384 0.0
H798 H 0.48391 0.34326 0.50205 0.0
H799 H 0.49033 0.32514 0.4221 0.0
C800 C 0.47881 0.34113 0.63782 0.0
C801 C 0.50284 0.32325 0.67262 0.0
C802 C 0.47475 0.32548 0.59232 0.0
C803 C 0.4954 0.2923 0.58021 0.0
C804 C 0.51777 0.27265 0.61618 0.0
C805 C 0.52124 0.2878 0.66188 0.0
C806 C 0.50951 0.22983 0.47275 0.0
C807 C 0.50478 0.26051 0.43761 0.0
C808 C 0.50468 0.23953 0.51816 0.0
C809 C 0.49594 0.28062 0.53026 0.0
C810 C 0.49017 0.31106 0.49448 0.0
C811 C 0.49411 0.30093 0.44854 0.0
H812 H 0.05985 0.36836 0.38942 0.0
H813 H 0.98271 0.27605 0.34265 0.0
H814 H 0.06407 0.34156 0.46846 0.0
H815 H 0.98444 0.25112 0.42171 0.0
H816 H 0.99494 0.20433 0.56656 0.0
H817 H 1.00543 0.21923 0.48851 0.0
H818 H 0.03578 0.3462 0.5308 0.0
H819 H 0.02811 0.32929 0.61051 0.0
C820 C 0.04451 0.34138 0.39604 0.0
C821 C 0.0213 0.32385 0.35998 0.0
C822 C 0.04624 0.3266 0.44162 0.0
C823 C 0.0239 0.2948 0.45257 0.0
C824 C 1.00243 0.2753 0.41544 0.0
C825 C 1.00148 0.28936 0.36965 0.0
C826 C 1.00398 0.23545 0.5592 0.0
C827 C 1.01025 0.26589 0.59458 0.0
C828 C 1.00983 0.24418 0.51405 0.0
C829 C 0.02107 0.28424 0.50224 0.0
C830 C 0.0277 0.31467 0.53807 0.0
C831 C 0.0229 0.30533 0.58386 0.0
loop_
_geom_bond_atom_site_label_1
_geom_bond_atom_site_label_2
_geom_bond_distance
_geom_bond_site_symmetry_2
_ccdc_geom_bond_type
Zn0 N4 2.017 1_655 S
Zn0 O8 2.019 . S
Zn0 N10 2.119 . S
Zn0 O18 1.975 1_655 S
C1 N2 1.334 . S
C1 N5 1.336 . S
N2 C1 1.334 . S
N2 C3 1.334 1_455 S
C3 N2 1.334 1_655 S
C3 N4 1.329 1_655 S
N4 Zn0 2.017 1_455 S
N4 C3 1.329 1_455 S
N4 N5 1.364 . S
N5 C1 1.336 . S
N5 N4 1.364 . S
N5 Zn9 2.020 . S
C6 O7 1.244 1_455 S
C6 O30 1.257 . S
O7 C6 1.244 1_655 S
O8 Zn0 2.019 . S
O8 C28 1.257 1_655 S
Zn9 N5 2.020 . S
Zn9 O16 1.975 . S
Zn9 N25 2.119 . S
Zn9 O30 2.019 . S
N10 Zn0 2.119 . S
N10 C12 1.334 . S
N10 C13 1.328 . S
C11 C12 1.391 . S
C11 N14 1.329 . S
C11 H32 0.930 . S
C12 N10 1.334 . S
C12 C11 1.391 . S
C12 H19 0.930 . S
C13 N10 1.328 . S
C13 C15 1.392 . S
C13 H20 0.930 . S
N14 C11 1.329 . S
N14 C15 1.331 . S
C15 C13 1.392 . S
C15 N14 1.331 . S
O16 Zn9 1.975 . S
O16 C17 1.252 . S
C17 O16 1.252 . S
C17 O18 1.252 . S
O18 Zn0 1.975 1_455 S
O18 C17 1.252 . S
H19 C12 0.930 . S
H20 C13 0.930 . S
C21 C22 1.392 . S
C21 N25 1.328 . S
C21 H27 0.930 . S
C22 C21 1.392 . S
C22 N26 1.331 . S
C23 C24 1.391 . S
C23 N26 1.329 . S
C23 H33 0.930 . S
C24 C23 1.391 . S
C24 N25 1.334 . S
C24 H31 0.930 . S
N25 Zn9 2.119 . S
N25 C21 1.328 . S
N25 C24 1.334 . S
N26 C22 1.331 . S
N26 C23 1.329 . S
H27 C21 0.930 . S
C28 O8 1.257 1_455 S
C28 O29 1.244 . S
O29 C28 1.244 . S
O30 C6 1.257 . S
O30 Zn9 2.019 . S
H31 C24 0.930 . S
H32 C11 0.930 . S
H33 C23 0.930 . S
Zn34 N38 2.020 . S
Zn34 O42 2.019 . S
Zn34 N44 2.119 . S
Zn34 O52 1.975 . S
C35 N36 1.334 . S
C35 N39 1.336 . S
N36 C35 1.334 . S
N36 C37 1.334 . S
C37 N36 1.334 . S
C37 N38 1.336 . S
N38 Zn34 2.020 . S
N38 C37 1.336 . S
N38 N39 1.354 . S
N39 C35 1.336 . S
N39 N38 1.354 . S
N39 Zn43 2.020 . S
C40 O41 1.244 . S
C40 O64 1.257 . S
O41 C40 1.244 . S
O42 Zn34 2.019 . S
O42 C62 1.257 . S
Zn43 N39 2.020 . S
Zn43 O50 1.975 . S
Zn43 N59 2.119 . S
Zn43 O64 2.019 . S
N44 Zn34 2.119 . S
N44 C46 1.334 . S
N44 C47 1.328 . S
C45 C46 1.391 . S
C45 N48 1.329 . S
C45 H66 0.930 . S
C46 N44 1.334 . S
C46 C45 1.391 . S
C46 H53 0.930 . S
C47 N44 1.328 . S
C47 C49 1.392 . S
C47 H54 0.930 . S
N48 C45 1.329 . S
N48 C49 1.331 . S
C49 C47 1.392 . S
C49 N48 1.331 . S
O50 Zn43 1.975 . S
O50 C51 1.252 . S
C51 O50 1.252 . S
C51 O52 1.252 . S
O52 Zn34 1.975 . S
O52 C51 1.252 . S
H53 C46 0.930 . S
H54 C47 0.930 . S
C55 C56 1.392 . S
C55 N59 1.328 . S
C55 H61 0.930 . S
C56 C55 1.392 . S
C56 N60 1.331 . S
C57 C58 1.391 . S
C57 N60 1.329 . S
C57 H67 0.930 . S
C58 C57 1.391 . S
C58 N59 1.334 . S
C58 H65 0.930 . S
N59 Zn43 2.119 . S
N59 C55 1.328 . S
N59 C58 1.334 . S
N60 C56 1.331 . S
N60 C57 1.329 . S
H61 C55 0.930 . S
C62 O42 1.257 . S
C62 O63 1.244 . S
O63 C62 1.244 . S
O64 C40 1.257 . S
O64 Zn43 2.019 . S
H65 C58 0.930 . S
H66 C45 0.930 . S
H67 C57 0.930 . S
Zn68 N72 2.020 . S
Zn68 O76 2.019 . S
Zn68 N78 2.119 . S
Zn68 O86 1.975 . S
C69 N70 1.334 1_455 S
C69 N73 1.329 1_455 S
N70 C69 1.334 1_655 S
N70 C71 1.334 . S
C71 N70 1.334 . S
C71 N72 1.336 . S
N72 Zn68 2.020 . S
N72 C71 1.336 . S
N72 N73 1.364 . S
N73 C69 1.329 1_655 S
N73 N72 1.364 . S
N73 Zn77 2.017 1_655 S
C74 O75 1.244 . S
C74 O98 1.257 1_655 S
O75 C74 1.244 . S
O76 Zn68 2.019 . S
O76 C96 1.257 . S
Zn77 N73 2.017 1_455 S
Zn77 O84 1.975 1_455 S
Zn77 N93 2.119 . S
Zn77 O98 2.019 . S
N78 Zn68 2.119 . S
N78 C80 1.334 . S
N78 C81 1.328 . S
C79 C80 1.391 . S
C79 N82 1.329 . S
C79 H100 0.930 . S
C80 N78 1.334 . S
C80 C79 1.391 . S
C80 H87 0.930 . S
C81 N78 1.328 . S
C81 C83 1.392 . S
C81 H88 0.930 . S
N82 C79 1.329 . S
N82 C83 1.331 . S
C83 C81 1.392 . S
C83 N82 1.331 . S
O84 Zn77 1.975 1_655 S
O84 C85 1.252 . S
C85 O84 1.252 . S
C85 O86 1.252 . S
O86 Zn68 1.975 . S
O86 C85 1.252 . S
H87 C80 0.930 . S
H88 C81 0.930 . S
C89 C90 1.392 . S
C89 N93 1.328 . S
C89 H95 0.930 . S
C90 C89 1.392 . S
C90 N94 1.331 . S
C91 C92 1.391 . S
C91 N94 1.329 . S
C91 H101 0.930 . S
C92 C91 1.391 . S
C92 N93 1.334 . S
C92 H99 0.930 . S
N93 Zn77 2.119 . S
N93 C89 1.328 . S
N93 C92 1.334 . S
N94 C90 1.331 . S
N94 C91 1.329 . S
H95 C89 0.930 . S
C96 O76 1.257 . S
C96 O97 1.244 1_655 S
O97 C96 1.244 1_455 S
O98 C74 1.257 1_455 S
O98 Zn77 2.019 . S
H99 C92 0.930 . S
H100 C79 0.930 . S
H101 C91 0.930 . S
Zn102 N106 2.020 . S
Zn102 O110 2.019 . S
Zn102 N112 2.119 . S
Zn102 O120 1.975 . S
C103 N104 1.334 . S
C103 N107 1.336 . S
N104 C103 1.334 . S
N104 C105 1.334 . S
C105 N104 1.334 . S
C105 N106 1.336 . S
N106 Zn102 2.020 . S
N106 C105 1.336 . S
N106 N107 1.354 . S
N107 C103 1.336 . S
N107 N106 1.354 . S
N107 Zn111 2.020 . S
C108 O109 1.244 . S
C108 O132 1.257 . S
O109 C108 1.244 . S
O110 Zn102 2.019 . S
O110 C130 1.257 . S
Zn111 N107 2.020 . S
Zn111 O118 1.975 . S
Zn111 N127 2.119 . S
Zn111 O132 2.019 . S
N112 Zn102 2.119 . S
N112 C114 1.334 . S
N112 C115 1.328 . S
C113 C114 1.391 . S
C113 N116 1.329 . S
C113 H134 0.930 . S
C114 N112 1.334 . S
C114 C113 1.391 . S
C114 H121 0.930 . S
C115 N112 1.328 . S
C115 C117 1.392 . S
C115 H122 0.930 . S
N116 C113 1.329 . S
N116 C117 1.331 . S
C117 C115 1.392 . S
C117 N116 1.331 . S
O118 Zn111 1.975 . S
O118 C119 1.252 . S
C119 O118 1.252 . S
C119 O120 1.252 . S
O120 Zn102 1.975 . S
O120 C119 1.252 . S
H121 C114 0.930 . S
H122 C115 0.930 . S
C123 C124 1.392 . S
C123 N127 1.328 . S
C123 H129 0.930 . S
C124 C123 1.392 . S
C124 N128 1.331 . S
C125 C126 1.391 . S
C125 N128 1.329 . S
C125 H135 0.930 . S
C126 C125 1.391 . S
C126 N127 1.334 . S
C126 H133 0.930 . S
N127 Zn111 2.119 . S
N127 C123 1.328 . S
N127 C126 1.334 . S
N128 C124 1.331 . S
N128 C125 1.329 . S
H129 C123 0.930 . S
C130 O110 1.257 . S
C130 O131 1.244 . S
O131 C130 1.244 . S
O132 C108 1.257 . S
O132 Zn111 2.019 . S
H133 C126 0.930 . S
H134 C113 0.930 . S
H135 C125 0.930 . S
Zn136 N140 2.020 . S
Zn136 O144 2.019 . S
Zn136 N146 2.119 . S
Zn136 O154 1.975 . S
C137 N138 1.334 . S
C137 N141 1.336 . S
N138 C137 1.334 . S
N138 C139 1.334 . S
C139 N138 1.334 . S
C139 N140 1.336 . S
N140 Zn136 2.020 . S
N140 C139 1.336 . S
N140 N141 1.354 . S
N141 C137 1.336 . S
N141 N140 1.354 . S
N141 Zn145 2.020 . S
C142 O143 1.244 . S
C142 O166 1.257 . S
O143 C142 1.244 . S
O144 Zn136 2.019 . S
O144 C164 1.257 . S
Zn145 N141 2.020 . S
Zn145 O152 1.975 . S
Zn145 N161 2.119 . S
Zn145 O166 2.019 . S
N146 Zn136 2.119 . S
N146 C148 1.334 . S
N146 C149 1.328 . S
C147 C148 1.391 . S
C147 N150 1.329 . S
C147 H168 0.930 . S
C148 N146 1.334 . S
C148 C147 1.391 . S
C148 H155 0.930 . S
C149 N146 1.328 . S
C149 C151 1.392 . S
C149 H156 0.930 . S
N150 C147 1.329 . S
N150 C151 1.331 . S
C151 C149 1.392 . S
C151 N150 1.331 . S
O152 Zn145 1.975 . S
O152 C153 1.252 . S
C153 O152 1.252 . S
C153 O154 1.252 . S
O154 Zn136 1.975 . S
O154 C153 1.252 . S
H155 C148 0.930 . S
H156 C149 0.930 . S
C157 C158 1.392 . S
C157 N161 1.328 . S
C157 H163 0.930 . S
C158 C157 1.392 . S
C158 N162 1.331 . S
C159 C160 1.391 . S
C159 N162 1.329 . S
C159 H169 0.930 . S
C160 C159 1.391 . S
C160 N161 1.334 . S
C160 H167 0.930 . S
N161 Zn145 2.119 . S
N161 C157 1.328 . S
N161 C160 1.334 . S
N162 C158 1.331 . S
N162 C159 1.329 . S
H163 C157 0.930 . S
C164 O144 1.257 . S
C164 O165 1.244 . S
O165 C164 1.244 . S
O166 C142 1.257 . S
O166 Zn145 2.019 . S
H167 C160 0.930 . S
H168 C147 0.930 . S
H169 C159 0.930 . S
Zn170 N174 2.020 . S
Zn170 O178 2.019 . S
Zn170 N180 2.119 . S
Zn170 O188 1.975 . S
C171 N172 1.334 1_455 S
C171 N175 1.329 1_455 S
N172 C171 1.334 1_655 S
N172 C173 1.334 . S
C173 N172 1.334 . S
C173 N174 1.336 . S
N174 Zn170 2.020 . S
N174 C173 1.336 . S
N174 N175 1.364 . S
N175 C171 1.329 1_655 S
N175 N174 1.364 . S
N175 Zn179 2.017 1_655 S
C176 O177 1.244 . S
C176 O200 1.257 1_655 S
O177 C176 1.244 . S
O178 Zn170 2.019 . S
O178 C198 1.257 . S
Zn179 N175 2.017 1_455 S
Zn179 O186 1.975 1_455 S
Zn179 N195 2.119 . S
Zn179 O200 2.019 . S
N180 Zn170 2.119 . S
N180 C182 1.334 . S
N180 C183 1.328 . S
C181 C182 1.391 . S
C181 N184 1.329 . S
C181 H202 0.930 . S
C182 N180 1.334 . S
C182 C181 1.391 . S
C182 H189 0.930 . S
C183 N180 1.328 . S
C183 C185 1.392 . S
C183 H190 0.930 . S
N184 C181 1.329 . S
N184 C185 1.331 . S
C185 C183 1.392 . S
C185 N184 1.331 . S
O186 Zn179 1.975 1_655 S
O186 C187 1.252 . S
C187 O186 1.252 . S
C187 O188 1.252 . S
O188 Zn170 1.975 . S
O188 C187 1.252 . S
H189 C182 0.930 . S
H190 C183 0.930 . S
C191 C192 1.392 . S
C191 N195 1.328 . S
C191 H197 0.930 . S
C192 C191 1.392 . S
C192 N196 1.331 . S
C193 C194 1.391 . S
C193 N196 1.329 . S
C193 H203 0.930 . S
C194 C193 1.391 . S
C194 N195 1.334 . S
C194 H201 0.930 . S
N195 Zn179 2.119 . S
N195 C191 1.328 . S
N195 C194 1.334 . S
N196 C192 1.331 . S
N196 C193 1.329 . S
H197 C191 0.930 . S
C198 O178 1.257 . S
C198 O199 1.244 1_655 S
O199 C198 1.244 1_455 S
O200 C176 1.257 1_455 S
O200 Zn179 2.019 . S
H201 C194 0.930 . S
H202 C181 0.930 . S
H203 C193 0.930 . S
Zn204 N208 2.020 . S
Zn204 O212 2.019 . S
Zn204 N214 2.119 . S
Zn204 O222 1.975 . S
C205 N206 1.334 . S
C205 N209 1.336 . S
N206 C205 1.334 . S
N206 C207 1.334 . S
C207 N206 1.334 . S
C207 N208 1.336 . S
N208 Zn204 2.020 . S
N208 C207 1.336 . S
N208 N209 1.354 . S
N209 C205 1.336 . S
N209 N208 1.354 . S
N209 Zn213 2.020 . S
C210 O211 1.244 . S
C210 O234 1.257 . S
O211 C210 1.244 . S
O212 Zn204 2.019 . S
O212 C232 1.257 . S
Zn213 N209 2.020 . S
Zn213 O220 1.975 . S
Zn213 N229 2.119 . S
Zn213 O234 2.019 . S
N214 Zn204 2.119 . S
N214 C216 1.334 . S
N214 C217 1.328 . S
C215 C216 1.391 . S
C215 N218 1.329 . S
C215 H236 0.930 . S
C216 N214 1.334 . S
C216 C215 1.391 . S
C216 H223 0.930 . S
C217 N214 1.328 . S
C217 C219 1.392 . S
C217 H224 0.930 . S
N218 C215 1.329 . S
N218 C219 1.331 . S
C219 C217 1.392 . S
C219 N218 1.331 . S
O220 Zn213 1.975 . S
O220 C221 1.252 . S
C221 O220 1.252 . S
C221 O222 1.252 . S
O222 Zn204 1.975 . S
O222 C221 1.252 . S
H223 C216 0.930 . S
H224 C217 0.930 . S
C225 C226 1.392 . S
C225 N229 1.328 . S
C225 H231 0.930 . S
C226 C225 1.392 . S
C226 N230 1.331 . S
C227 C228 1.391 . S
C227 N230 1.329 . S
C227 H237 0.930 . S
C228 C227 1.391 . S
C228 N229 1.334 . S
C228 H235 0.930 . S
N229 Zn213 2.119 . S
N229 C225 1.328 . S
N229 C228 1.334 . S
N230 C226 1.331 . S
N230 C227 1.329 . S
H231 C225 0.930 . S
C232 O212 1.257 . S
C232 O233 1.244 . S
O233 C232 1.244 . S
O234 C210 1.257 . S
O234 Zn213 2.019 . S
H235 C228 0.930 . S
H236 C215 0.930 . S
H237 C227 0.930 . S
Zn238 N242 2.020 . S
Zn238 O246 2.019 . S
Zn238 N248 2.119 . S
Zn238 O256 1.975 . S
C239 N240 1.334 1_655 S
C239 N243 1.329 1_655 S
N240 C239 1.334 1_455 S
N240 C241 1.334 . S
C241 N240 1.334 . S
C241 N242 1.336 . S
N242 Zn238 2.020 . S
N242 C241 1.336 . S
N242 N243 1.364 . S
N243 C239 1.329 1_455 S
N243 N242 1.364 . S
N243 Zn247 2.017 1_455 S
C244 O245 1.244 . S
C244 O268 1.257 1_455 S
O245 C244 1.244 . S
O246 Zn238 2.019 . S
O246 C266 1.257 . S
Zn247 N243 2.017 1_655 S
Zn247 O254 1.975 1_655 S
Zn247 N263 2.119 . S
Zn247 O268 2.019 . S
N248 Zn238 2.119 . S
N248 C250 1.334 . S
N248 C251 1.328 . S
C249 C250 1.391 . S
C249 N252 1.329 . S
C249 H270 0.930 . S
C250 N248 1.334 . S
C250 C249 1.391 . S
C250 H257 0.930 . S
C251 N248 1.328 . S
C251 C253 1.392 . S
C251 H258 0.930 . S
N252 C249 1.329 . S
N252 C253 1.331 . S
C253 C251 1.392 . S
C253 N252 1.331 . S
O254 Zn247 1.975 1_455 S
O254 C255 1.252 . S
C255 O254 1.252 . S
C255 O256 1.252 . S
O256 Zn238 1.975 . S
O256 C255 1.252 . S
H257 C250 0.930 . S
H258 C251 0.930 . S
C259 C260 1.392 . S
C259 N263 1.328 . S
C259 H265 0.930 . S
C260 C259 1.392 . S
C260 N264 1.331 . S
C261 C262 1.391 . S
C261 N264 1.329 . S
C261 H271 0.930 . S
C262 C261 1.391 . S
C262 N263 1.334 . S
C262 H269 0.930 . S
N263 Zn247 2.119 . S
N263 C259 1.328 . S
N263 C262 1.334 . S
N264 C260 1.331 . S
N264 C261 1.329 . S
H265 C259 0.930 . S
C266 O246 1.257 . S
C266 O267 1.244 1_455 S
O267 C266 1.244 1_655 S
O268 C244 1.257 1_655 S
O268 Zn247 2.019 . S
H269 C262 0.930 . S
H270 C249 0.930 . S
H271 C261 0.930 . S
H272 C280 0.950 . S
H273 C285 0.950 . S
H274 C282 0.950 . S
H275 C284 0.950 . S
H276 C286 0.950 . S
H277 C288 0.950 . S
H278 C290 0.950 . S
H279 C291 0.950 . S
C280 H272 0.950 . S
C280 C281 1.386 . S
C280 C282 1.391 . S
C281 C280 1.386 . S
C281 C285 1.393 . S
C282 H274 0.950 . S
C282 C280 1.391 . S
C282 C283 1.400 1_565 S
C283 C282 1.400 1_545 S
C283 C284 1.398 . S
C283 C289 1.491 . S
C284 H275 0.950 . S
C284 C283 1.398 . S
C284 C285 1.391 1_545 S
C285 H273 0.950 . S
C285 C281 1.393 . S
C285 C284 1.391 1_565 S
C286 H276 0.950 . S
C286 C287 1.386 . S
C286 C288 1.391 . S
C287 C286 1.386 . S
C287 C291 1.393 . S
C288 H277 0.950 . S
C288 C286 1.391 . S
C288 C289 1.400 . S
C289 C283 1.491 . S
C289 C288 1.400 . S
C289 C290 1.398 . S
C290 H278 0.950 . S
C290 C289 1.398 . S
C290 C291 1.391 . S
C291 H279 0.950 . S
C291 C287 1.393 . S
C291 C290 1.391 . S
H292 C300 0.950 . S
H293 C305 0.950 . S
H294 C302 0.950 . S
H295 C304 0.950 . S
H296 C306 0.950 . S
H297 C308 0.950 . S
H298 C310 0.950 . S
H299 C311 0.950 . S
C300 H292 0.950 . S
C300 C301 1.386 . S
C300 C302 1.391 1_565 S
C301 C300 1.386 . S
C301 C305 1.393 . S
C302 H294 0.950 . S
C302 C300 1.391 1_545 S
C302 C303 1.400 . S
C303 C302 1.400 . S
C303 C304 1.398 1_545 S
C303 C309 1.491 . S
C304 H295 0.950 . S
C304 C303 1.398 1_565 S
C304 C305 1.391 . S
C305 H293 0.950 . S
C305 C301 1.393 . S
C305 C304 1.391 . S
C306 H296 0.950 . S
C306 C307 1.386 . S
C306 C308 1.391 . S
C307 C306 1.386 . S
C307 C311 1.393 . S
C308 H297 0.950 . S
C308 C306 1.391 . S
C308 C309 1.400 . S
C309 C303 1.491 . S
C309 C308 1.400 . S
C309 C310 1.398 . S
C310 H298 0.950 . S
C310 C309 1.398 . S
C310 C311 1.391 . S
C311 H299 0.950 . S
C311 C307 1.393 . S
C311 C310 1.391 . S
H312 C320 0.950 . S
H313 C325 0.944 1_455 S
H314 C322 0.950 . S
H315 C324 0.941 1_455 S
H316 C326 0.950 1_455 S
H317 C328 0.950 1_455 S
H318 C330 0.950 . S
H319 C331 0.950 . S
C320 H312 0.950 . S
C320 C321 1.386 . S
C320 C322 1.391 1_545 S
C321 C320 1.386 . S
C321 C325 1.398 . S
C322 H314 0.950 . S
C322 C320 1.391 1_565 S
C322 C323 1.400 . S
C323 C322 1.400 . S
C323 C324 1.409 1_565 S
C323 C329 1.491 . S
C324 H315 0.941 1_655 S
C324 C323 1.409 1_545 S
C324 C325 1.390 . S
C325 H313 0.944 1_655 S
C325 C321 1.398 . S
C325 C324 1.390 . S
C326 H316 0.950 1_655 S
C326 C327 1.386 . S
C326 C328 1.391 . S
C327 C326 1.386 . S
C327 C331 1.393 . S
C328 H317 0.950 1_655 S
C328 C326 1.391 . S
C328 C329 1.400 . S
C329 C323 1.491 . S
C329 C328 1.400 . S
C329 C330 1.398 . S
C330 H318 0.950 . S
C330 C329 1.398 . S
C330 C331 1.391 . S
C331 H319 0.950 . S
C331 C327 1.393 . S
C331 C330 1.391 . S
H332 C340 0.950 . S
H333 C345 0.950 . S
H334 C342 0.950 . S
H335 C344 0.950 . S
H336 C346 0.950 . S
H337 C348 0.950 1_565 S
H338 C350 0.950 1_565 S
H339 C351 0.950 . S
C340 H332 0.950 . S
C340 C341 1.386 . S
C340 C342 1.391 . S
C341 C340 1.386 . S
C341 C345 1.393 . S
C342 H334 0.950 . S
C342 C340 1.391 . S
C342 C343 1.400 . S
C343 C342 1.400 . S
C343 C344 1.398 . S
C343 C349 1.491 . S
C344 H335 0.950 . S
C344 C343 1.398 . S
C344 C345 1.391 . S
C345 H333 0.950 . S
C345 C341 1.393 . S
C345 C344 1.391 . S
C346 H336 0.950 . S
C346 C347 1.386 . S
C346 C348 1.391 . S
C347 C346 1.386 . S
C347 C351 1.393 . S
C348 H337 0.950 1_545 S
C348 C346 1.391 . S
C348 C349 1.400 1_545 S
C349 C343 1.491 . S
C349 C348 1.400 1_565 S
C349 C350 1.398 1_565 S
C350 H338 0.950 1_545 S
C350 C349 1.398 1_545 S
C350 C351 1.391 . S
C351 H339 0.950 . S
C351 C347 1.393 . S
C351 C350 1.391 . S
H352 C360 0.950 . S
H353 C365 0.950 . S
H354 C362 0.950 . S
H355 C364 0.950 . S
H356 C366 0.950 . S
H357 C368 0.950 . S
H358 C370 0.950 . S
H359 C371 0.950 . S
C360 H352 0.950 . S
C360 C361 1.386 . S
C360 C362 1.391 . S
C361 C360 1.386 . S
C361 C365 1.393 . S
C362 H354 0.950 . S
C362 C360 1.391 . S
C362 C363 1.400 . S
C363 C362 1.400 . S
C363 C364 1.398 . S
C363 C369 1.491 . S
C364 H355 0.950 . S
C364 C363 1.398 . S
C364 C365 1.391 . S
C365 H353 0.950 . S
C365 C361 1.393 . S
C365 C364 1.391 . S
C366 H356 0.950 . S
C366 C367 1.386 . S
C366 C368 1.391 . S
C367 C366 1.386 . S
C367 C371 1.393 . S
C368 H357 0.950 . S
C368 C366 1.391 . S
C368 C369 1.400 . S
C369 C363 1.491 . S
C369 C368 1.400 . S
C369 C370 1.398 . S
C370 H358 0.950 . S
C370 C369 1.398 . S
C370 C371 1.391 . S
C371 H359 0.950 . S
C371 C367 1.393 . S
C371 C370 1.391 . S
H372 C380 0.950 . S
H373 C385 0.950 1_455 S
H374 C382 0.950 . S
H375 C384 0.950 1_455 S
H376 C386 0.950 1_455 S
H377 C388 0.950 1_455 S
H378 C390 0.950 . S
H379 C391 0.950 . S
C380 H372 0.950 . S
C380 C381 1.386 . S
C380 C382 1.391 . S
C381 C380 1.386 . S
C381 C385 1.393 . S
C382 H374 0.950 . S
C382 C380 1.391 . S
C382 C383 1.400 . S
C383 C382 1.400 . S
C383 C384 1.398 . S
C383 C389 1.491 . S
C384 H375 0.950 1_655 S
C384 C383 1.398 . S
C384 C385 1.391 . S
C385 H373 0.950 1_655 S
C385 C381 1.393 . S
C385 C384 1.391 . S
C386 H376 0.950 1_655 S
C386 C387 1.386 . S
C386 C388 1.391 . S
C387 C386 1.386 . S
C387 C391 1.393 . S
C388 H377 0.950 1_655 S
C388 C386 1.391 . S
C388 C389 1.400 . S
C389 C383 1.491 . S
C389 C388 1.400 . S
C389 C390 1.398 . S
C390 H378 0.950 . S
C390 C389 1.398 . S
C390 C391 1.391 . S
C391 H379 0.950 . S
C391 C387 1.393 . S
C391 C390 1.391 . S
H392 C400 0.950 . S
H393 C405 0.950 . S
H394 C402 0.950 . S
H395 C404 0.950 . S
H396 C406 0.950 . S
H397 C408 0.950 . S
H398 C410 0.950 . S
H399 C411 0.950 . S
C400 H392 0.950 . S
C400 C401 1.386 . S
C400 C402 1.391 . S
C401 C400 1.386 . S
C401 C405 1.393 . S
C402 H394 0.950 . S
C402 C400 1.391 . S
C402 C403 1.400 . S
C403 C402 1.400 . S
C403 C404 1.398 . S
C403 C409 1.491 . S
C404 H395 0.950 . S
C404 C403 1.398 . S
C404 C405 1.391 . S
C405 H393 0.950 . S
C405 C401 1.393 . S
C405 C404 1.391 . S
C406 H396 0.950 . S
C406 C407 1.386 . S
C406 C408 1.391 . S
C407 C406 1.386 . S
C407 C411 1.393 . S
C408 H397 0.950 . S
C408 C406 1.391 . S
C408 C409 1.400 . S
C409 C403 1.491 . S
C409 C408 1.400 . S
C409 C410 1.398 . S
C410 H398 0.950 . S
C410 C409 1.398 . S
C410 C411 1.391 . S
C411 H399 0.950 . S
C411 C407 1.393 . S
C411 C410 1.391 . S
H412 C420 0.950 . S
H413 C425 0.950 . S
H414 C422 0.950 . S
H415 C424 0.950 . S
H416 C426 0.950 . S
H417 C428 0.950 . S
H418 C430 0.950 . S
H419 C431 0.950 . S
C420 H412 0.950 . S
C420 C421 1.386 1_655 S
C420 C422 1.391 . S
C421 C420 1.386 1_455 S
C421 C425 1.393 . S
C422 H414 0.950 . S
C422 C420 1.391 . S
C422 C423 1.400 1_655 S
C423 C422 1.400 1_455 S
C423 C424 1.398 . S
C423 C429 1.491 . S
C424 H415 0.950 . S
C424 C423 1.398 . S
C424 C425 1.391 . S
C425 H413 0.950 . S
C425 C421 1.393 . S
C425 C424 1.391 . S
C426 H416 0.950 . S
C426 C427 1.386 . S
C426 C428 1.391 . S
C427 C426 1.386 . S
C427 C431 1.393 1_455 S
C428 H417 0.950 . S
C428 C426 1.391 . S
C428 C429 1.400 . S
C429 C423 1.491 . S
C429 C428 1.400 . S
C429 C430 1.398 1_455 S
C430 H418 0.950 . S
C430 C429 1.398 1_655 S
C430 C431 1.391 . S
C431 H419 0.950 . S
C431 C427 1.393 1_655 S
C431 C430 1.391 . S
H432 C440 0.950 . S
H433 C445 0.950 . S
H434 C442 0.950 . S
H435 C444 0.950 . S
H436 C446 0.950 . S
H437 C448 0.950 . S
H438 C450 0.950 . S
H439 C451 0.950 . S
C440 H432 0.950 . S
C440 C441 1.386 . S
C440 C442 1.391 . S
C441 C440 1.386 . S
C441 C445 1.393 1_455 S
C442 H434 0.950 . S
C442 C440 1.391 . S
C442 C443 1.400 . S
C443 C442 1.400 . S
C443 C444 1.398 1_455 S
C443 C449 1.491 1_454 S
C444 H435 0.950 . S
C444 C443 1.398 1_655 S
C444 C445 1.391 . S
C445 H433 0.950 . S
C445 C441 1.393 1_655 S
C445 C444 1.391 . S
C446 H436 0.950 . S
C446 C447 1.386 . S
C446 C448 1.391 . S
C447 C446 1.386 . S
C447 C451 1.393 1_655 S
C448 H437 0.950 . S
C448 C446 1.391 . S
C448 C449 1.400 . S
C449 C443 1.491 1_656 S
C449 C448 1.400 . S
C449 C450 1.398 1_655 S
C450 H438 0.950 . S
C450 C449 1.398 1_455 S
C450 C451 1.391 . S
C451 H439 0.950 . S
C451 C447 1.393 1_455 S
C451 C450 1.391 . S
H452 C460 0.950 . S
H453 C465 0.950 . S
H454 C462 0.950 . S
H455 C464 0.950 1_556 S
H456 C466 0.950 . S
H457 C468 0.950 . S
H458 C470 0.950 1_554 S
H459 C471 0.950 . S
C460 H452 0.950 . S
C460 C461 1.386 . S
C460 C462 1.391 . S
C461 C460 1.386 . S
C461 C465 1.393 . S
C462 H454 0.950 . S
C462 C460 1.391 . S
C462 C463 1.400 . S
C463 C462 1.400 . S
C463 C464 1.398 . S
C463 C469 1.491 1_554 S
C464 H455 0.950 1_554 S
C464 C463 1.398 . S
C464 C465 1.391 . S
C465 H453 0.950 . S
C465 C461 1.393 . S
C465 C464 1.391 . S
C466 H456 0.950 . S
C466 C467 1.386 . S
C466 C468 1.391 . S
C467 C466 1.386 . S
C467 C471 1.393 . S
C468 H457 0.950 . S
C468 C466 1.391 . S
C468 C469 1.400 . S
C469 C463 1.491 1_556 S
C469 C468 1.400 . S
C469 C470 1.398 . S
C470 H458 0.950 1_556 S
C470 C469 1.398 . S
C470 C471 1.391 . S
C471 H459 0.950 . S
C471 C467 1.393 . S
C471 C470 1.391 . S
H472 C480 0.950 . S
H473 C485 0.950 . S
H474 C482 0.950 . S
H475 C484 0.950 1_565 S
H476 C486 0.950 . S
H477 C488 0.950 . S
H478 C490 0.950 1_545 S
H479 C491 0.950 . S
C480 H472 0.950 . S
C480 C481 1.386 . S
C480 C482 1.391 . S
C481 C480 1.386 . S
C481 C485 1.393 . S
C482 H474 0.950 . S
C482 C480 1.391 . S
C482 C483 1.400 . S
C483 C482 1.400 . S
C483 C484 1.398 . S
C483 C489 1.491 1_545 S
C484 H475 0.950 1_545 S
C484 C483 1.398 . S
C484 C485 1.391 . S
C485 H473 0.950 . S
C485 C481 1.393 . S
C485 C484 1.391 . S
C486 H476 0.950 . S
C486 C487 1.386 . S
C486 C488 1.391 . S
C487 C486 1.386 . S
C487 C491 1.393 . S
C488 H477 0.950 . S
C488 C486 1.391 . S
C488 C489 1.400 . S
C489 C483 1.491 1_565 S
C489 C488 1.400 . S
C489 C490 1.398 . S
C490 H478 0.950 1_565 S
C490 C489 1.398 . S
C490 C491 1.391 . S
C491 H479 0.950 . S
C491 C487 1.393 . S
C491 C490 1.391 . S
H492 C500 0.950 . S
H493 C505 0.950 . S
H494 C502 0.950 . S
H495 C504 0.950 1_545 S
H496 C506 0.950 . S
H497 C508 0.950 . S
H498 C510 0.950 1_565 S
H499 C511 0.950 . S
C500 H492 0.950 . S
C500 C501 1.386 1_455 S
C500 C502 1.391 . S
C501 C500 1.386 1_655 S
C501 C505 1.393 . S
C502 H494 0.950 . S
C502 C500 1.391 . S
C502 C503 1.400 1_455 S
C503 C502 1.400 1_655 S
C503 C504 1.398 . S
C503 C509 1.491 1_665 S
C504 H495 0.950 1_565 S
C504 C503 1.398 . S
C504 C505 1.391 . S
C505 H493 0.950 . S
C505 C501 1.393 . S
C505 C504 1.391 . S
C506 H496 0.950 . S
C506 C507 1.386 1_655 S
C506 C508 1.391 . S
C507 C506 1.386 1_455 S
C507 C511 1.393 . S
C508 H497 0.950 . S
C508 C506 1.391 . S
C508 C509 1.400 1_655 S
C509 C503 1.491 1_445 S
C509 C508 1.400 1_455 S
C509 C510 1.398 . S
C510 H498 0.950 1_545 S
C510 C509 1.398 . S
C510 C511 1.391 . S
C511 H499 0.950 . S
C511 C507 1.393 . S
C511 C510 1.391 . S
H512 C520 0.950 . S
H513 C525 0.950 . S
H514 C522 0.950 1_556 S
H515 C524 0.950 . S
H516 C526 0.950 . S
H517 C528 0.950 1_554 S
H518 C530 0.950 . S
H519 C531 0.950 . S
C520 H512 0.950 . S
C520 C521 1.386 . S
C520 C522 1.391 . S
C521 C520 1.386 . S
C521 C525 1.393 . S
C522 H514 0.950 1_554 S
C522 C520 1.391 . S
C522 C523 1.400 . S
C523 C522 1.400 . S
C523 C524 1.398 . S
C523 C529 1.491 1_554 S
C524 H515 0.950 . S
C524 C523 1.398 . S
C524 C525 1.391 . S
C525 H513 0.950 . S
C525 C521 1.393 . S
C525 C524 1.391 . S
C526 H516 0.950 . S
C526 C527 1.386 . S
C526 C528 1.391 . S
C527 C526 1.386 . S
C527 C531 1.393 . S
C528 H517 0.950 1_556 S
C528 C526 1.391 . S
C528 C529 1.400 . S
C529 C523 1.491 1_556 S
C529 C528 1.400 . S
C529 C530 1.398 . S
C530 H518 0.950 . S
C530 C529 1.398 . S
C530 C531 1.391 . S
C531 H519 0.950 . S
C531 C527 1.393 . S
C531 C530 1.391 . S
H532 C540 0.950 . S
H533 C545 0.950 . S
H534 C542 0.950 . S
H535 C544 0.950 . S
H536 C546 0.950 . S
H537 C548 0.950 . S
H538 C550 0.950 . S
H539 C551 0.950 . S
C540 H532 0.950 . S
C540 C541 1.386 . S
C540 C542 1.391 . S
C541 C540 1.386 . S
C541 C545 1.393 1_554 S
C542 H534 0.950 . S
C542 C540 1.391 . S
C542 C543 1.400 . S
C543 C542 1.400 . S
C543 C544 1.398 1_554 S
C543 C549 1.491 1_554 S
C544 H535 0.950 . S
C544 C543 1.398 1_556 S
C544 C545 1.391 . S
C545 H533 0.950 . S
C545 C541 1.393 1_556 S
C545 C544 1.391 . S
C546 H536 0.950 . S
C546 C547 1.386 . S
C546 C548 1.391 . S
C547 C546 1.386 . S
C547 C551 1.393 1_556 S
C548 H537 0.950 . S
C548 C546 1.391 . S
C548 C549 1.400 . S
C549 C543 1.491 1_556 S
C549 C548 1.400 . S
C549 C550 1.398 1_556 S
C550 H538 0.950 . S
C550 C549 1.398 1_554 S
C550 C551 1.391 . S
C551 H539 0.950 . S
C551 C547 1.393 1_554 S
C551 C550 1.391 . S
H552 C560 0.950 . S
H553 C565 0.950 . S
H554 C562 0.950 . S
H555 C564 0.950 . S
H556 C566 0.950 . S
H557 C568 0.950 . S
H558 C570 0.950 . S
H559 C571 0.950 . S
C560 H552 0.950 . S
C560 C561 1.386 . S
C560 C562 1.391 . S
C561 C560 1.386 . S
C561 C565 1.393 . S
C562 H554 0.950 . S
C562 C560 1.391 . S
C562 C563 1.400 . S
C563 C562 1.400 . S
C563 C564 1.398 . S
C563 C569 1.491 . S
C564 H555 0.950 . S
C564 C563 1.398 . S
C564 C565 1.391 . S
C565 H553 0.950 . S
C565 C561 1.393 . S
C565 C564 1.391 . S
C566 H556 0.950 . S
C566 C567 1.386 . S
C566 C568 1.391 . S
C567 C566 1.386 . S
C567 C571 1.393 . S
C568 H557 0.950 . S
C568 C566 1.391 . S
C568 C569 1.400 . S
C569 C563 1.491 . S
C569 C568 1.400 . S
C569 C570 1.398 . S
C570 H558 0.950 . S
C570 C569 1.398 . S
C570 C571 1.391 . S
C571 H559 0.950 . S
C571 C567 1.393 . S
C571 C570 1.391 . S
H572 C580 0.950 . S
H573 C585 0.950 . S
H574 C582 0.950 . S
H575 C584 0.950 . S
H576 C586 0.950 . S
H577 C588 0.950 . S
H578 C590 0.950 . S
H579 C591 0.950 . S
C580 H572 0.950 . S
C580 C581 1.386 . S
C580 C582 1.391 . S
C581 C580 1.386 . S
C581 C585 1.393 . S
C582 H574 0.950 . S
C582 C580 1.391 . S
C582 C583 1.400 . S
C583 C582 1.400 . S
C583 C584 1.398 . S
C583 C589 1.491 . S
C584 H575 0.950 . S
C584 C583 1.398 . S
C584 C585 1.391 . S
C585 H573 0.950 . S
C585 C581 1.393 . S
C585 C584 1.391 . S
C586 H576 0.950 . S
C586 C587 1.386 . S
C586 C588 1.391 . S
C587 C586 1.386 . S
C587 C591 1.393 . S
C588 H577 0.950 . S
C588 C586 1.391 . S
C588 C589 1.400 . S
C589 C583 1.491 . S
C589 C588 1.400 . S
C589 C590 1.398 . S
C590 H578 0.950 . S
C590 C589 1.398 . S
C590 C591 1.391 . S
C591 H579 0.950 . S
C591 C587 1.393 . S
C591 C590 1.391 . S
H592 C600 0.950 . S
H593 C605 0.950 . S
H594 C602 0.950 . S
H595 C604 0.950 . S
H596 C606 0.950 . S
H597 C608 0.950 . S
H598 C610 0.950 . S
H599 C611 0.950 . S
C600 H592 0.950 . S
C600 C601 1.386 . S
C600 C602 1.391 . S
C601 C600 1.386 . S
C601 C605 1.393 . S
C602 H594 0.950 . S
C602 C600 1.391 . S
C602 C603 1.400 . S
C603 C602 1.400 . S
C603 C604 1.398 . S
C603 C609 1.491 . S
C604 H595 0.950 . S
C604 C603 1.398 . S
C604 C605 1.391 . S
C605 H593 0.950 . S
C605 C601 1.393 . S
C605 C604 1.391 . S
C606 H596 0.950 . S
C606 C607 1.386 . S
C606 C608 1.391 . S
C607 C606 1.386 . S
C607 C611 1.393 . S
C608 H597 0.950 . S
C608 C606 1.391 . S
C608 C609 1.400 . S
C609 C603 1.491 . S
C609 C608 1.400 . S
C609 C610 1.398 . S
C610 H598 0.950 . S
C610 C609 1.398 . S
C610 C611 1.391 . S
C611 H599 0.950 . S
C611 C607 1.393 . S
C611 C610 1.391 . S
H612 C620 0.950 . S
H613 C625 0.950 . S
H614 C622 0.950 . S
H615 C624 0.950 . S
H616 C626 0.950 . S
H617 C628 0.950 . S
H618 C630 0.950 . S
H619 C631 0.950 . S
C620 H612 0.950 . S
C620 C621 1.386 . S
C620 C622 1.391 . S
C621 C620 1.386 . S
C621 C625 1.393 . S
C622 H614 0.950 . S
C622 C620 1.391 . S
C622 C623 1.400 . S
C623 C622 1.400 . S
C623 C624 1.398 . S
C623 C629 1.491 . S
C624 H615 0.950 . S
C624 C623 1.398 . S
C624 C625 1.391 . S
C625 H613 0.950 . S
C625 C621 1.393 . S
C625 C624 1.391 . S
C626 H616 0.950 . S
C626 C627 1.386 . S
C626 C628 1.391 . S
C627 C626 1.386 . S
C627 C631 1.393 . S
C628 H617 0.950 . S
C628 C626 1.391 . S
C628 C629 1.400 . S
C629 C623 1.491 . S
C629 C628 1.400 . S
C629 C630 1.398 . S
C630 H618 0.950 . S
C630 C629 1.398 . S
C630 C631 1.391 . S
C631 H619 0.950 . S
C631 C627 1.393 . S
C631 C630 1.391 . S
H632 C640 0.950 . S
H633 C645 0.950 . S
H634 C642 0.950 . S
H635 C644 0.950 . S
H636 C646 0.950 . S
H637 C648 0.950 . S
H638 C650 0.950 . S
H639 C651 0.950 . S
C640 H632 0.950 . S
C640 C641 1.386 . S
C640 C642 1.391 . S
C641 C640 1.386 . S
C641 C645 1.393 . S
C642 H634 0.950 . S
C642 C640 1.391 . S
C642 C643 1.400 . S
C643 C642 1.400 . S
C643 C644 1.398 . S
C643 C649 1.491 . S
C644 H635 0.950 . S
C644 C643 1.398 . S
C644 C645 1.391 . S
C645 H633 0.950 . S
C645 C641 1.393 . S
C645 C644 1.391 . S
C646 H636 0.950 . S
C646 C647 1.386 . S
C646 C648 1.391 . S
C647 C646 1.386 . S
C647 C651 1.393 . S
C648 H637 0.950 . S
C648 C646 1.391 . S
C648 C649 1.400 . S
C649 C643 1.491 . S
C649 C648 1.400 . S
C649 C650 1.398 . S
C650 H638 0.950 . S
C650 C649 1.398 . S
C650 C651 1.391 . S
C651 H639 0.950 . S
C651 C647 1.393 . S
C651 C650 1.391 . S
H652 C660 0.950 . S
H653 C665 0.950 . S
H654 C662 0.950 . S
H655 C664 0.950 . S
H656 C666 0.950 . S
H657 C668 0.950 . S
H658 C670 0.950 . S
H659 C671 0.950 . S
C660 H652 0.950 . S
C660 C661 1.386 . S
C660 C662 1.391 . S
C661 C660 1.386 . S
C661 C665 1.393 . S
C662 H654 0.950 . S
C662 C660 1.391 . S
C662 C663 1.400 . S
C663 C662 1.400 . S
C663 C664 1.398 . S
C663 C669 1.491 . S
C664 H655 0.950 . S
C664 C663 1.398 . S
C664 C665 1.391 . S
C665 H653 0.950 . S
C665 C661 1.393 . S
C665 C664 1.391 . S
C666 H656 0.950 . S
C666 C667 1.386 . S
C666 C668 1.391 . S
C667 C666 1.386 . S
C667 C671 1.393 . S
C668 H657 0.950 . S
C668 C666 1.391 . S
C668 C669 1.400 . S
C669 C663 1.491 . S
C669 C668 1.400 . S
C669 C670 1.398 . S
C670 H658 0.950 . S
C670 C669 1.398 . S
C670 C671 1.391 . S
C671 H659 0.950 . S
C671 C667 1.393 . S
C671 C670 1.391 . S
H672 C680 0.950 . S
H673 C685 0.950 . S
H674 C682 0.950 . S
H675 C684 0.950 . S
H676 C686 0.950 . S
H677 C688 0.950 . S
H678 C690 0.950 . S
H679 C691 0.945 1_554 S
C680 H672 0.950 . S
C680 C681 1.386 1_655 S
C680 C682 1.391 . S
C681 C680 1.386 1_455 S
C681 C685 1.393 . S
C682 H674 0.950 . S
C682 C680 1.391 . S
C682 C683 1.400 1_655 S
C683 C682 1.400 1_455 S
C683 C684 1.398 . S
C683 C689 1.491 . S
C684 H675 0.950 . S
C684 C683 1.398 . S
C684 C685 1.391 . S
C685 H673 0.950 . S
C685 C681 1.393 . S
C685 C684 1.391 . S
C686 H676 0.950 . S
C686 C687 1.386 . S
C686 C688 1.391 1_554 S
C687 C686 1.386 . S
C687 C691 1.387 1_454 S
C688 H677 0.950 . S
C688 C686 1.391 1_556 S
C688 C689 1.400 . S
C689 C683 1.491 . S
C689 C688 1.400 . S
C689 C690 1.398 1_455 S
C690 H678 0.950 . S
C690 C689 1.398 1_655 S
C690 C691 1.402 . S
C691 H679 0.945 1_556 S
C691 C687 1.387 1_656 S
C691 C690 1.402 . S
H692 C700 0.950 . S
H693 C705 0.950 . S
H694 C702 0.950 . S
H695 C704 0.950 . S
H696 C706 0.950 . S
H697 C708 0.950 . S
H698 C710 0.950 . S
H699 C711 0.950 1_556 S
C700 H692 0.950 . S
C700 C701 1.386 . S
C700 C702 1.391 . S
C701 C700 1.386 . S
C701 C705 1.393 . S
C702 H694 0.950 . S
C702 C700 1.391 . S
C702 C703 1.400 . S
C703 C702 1.400 . S
C703 C704 1.398 . S
C703 C709 1.491 . S
C704 H695 0.950 . S
C704 C703 1.398 . S
C704 C705 1.391 . S
C705 H693 0.950 . S
C705 C701 1.393 . S
C705 C704 1.391 . S
C706 H696 0.950 . S
C706 C707 1.386 . S
C706 C708 1.391 1_556 S
C707 C706 1.386 . S
C707 C711 1.393 1_556 S
C708 H697 0.950 . S
C708 C706 1.391 1_554 S
C708 C709 1.400 . S
C709 C703 1.491 . S
C709 C708 1.400 . S
C709 C710 1.398 . S
C710 H698 0.950 . S
C710 C709 1.398 . S
C710 C711 1.391 . S
C711 H699 0.950 1_554 S
C711 C707 1.393 1_554 S
C711 C710 1.391 . S
H712 C720 0.950 1_556 S
H713 C725 0.950 . S
H714 C722 0.950 . S
H715 C724 0.950 . S
H716 C726 0.950 . S
H717 C728 0.950 . S
H718 C730 0.950 . S
H719 C731 0.950 . S
C720 H712 0.950 1_554 S
C720 C721 1.386 1_454 S
C720 C722 1.391 . S
C721 C720 1.386 1_656 S
C721 C725 1.393 . S
C722 H714 0.950 . S
C722 C720 1.391 . S
C722 C723 1.400 1_455 S
C723 C722 1.400 1_655 S
C723 C724 1.398 . S
C723 C729 1.491 . S
C724 H715 0.950 . S
C724 C723 1.398 . S
C724 C725 1.391 1_554 S
C725 H713 0.950 . S
C725 C721 1.393 . S
C725 C724 1.391 1_556 S
C726 H716 0.950 . S
C726 C727 1.386 . S
C726 C728 1.391 . S
C727 C726 1.386 . S
C727 C731 1.393 1_655 S
C728 H717 0.950 . S
C728 C726 1.391 . S
C728 C729 1.400 . S
C729 C723 1.491 . S
C729 C728 1.400 . S
C729 C730 1.398 1_655 S
C730 H718 0.950 . S
C730 C729 1.398 1_455 S
C730 C731 1.391 . S
C731 H719 0.950 . S
C731 C727 1.393 1_455 S
C731 C730 1.391 . S
H732 C740 0.950 . S
H733 C745 0.950 1_554 S
H734 C742 0.950 . S
H735 C744 0.950 . S
H736 C746 0.950 . S
H737 C748 0.950 . S
H738 C750 0.950 . S
H739 C751 0.950 . S
C740 H732 0.950 . S
C740 C741 1.386 . S
C740 C742 1.391 1_554 S
C741 C740 1.386 . S
C741 C745 1.393 1_554 S
C742 H734 0.950 . S
C742 C740 1.391 1_556 S
C742 C743 1.400 . S
C743 C742 1.400 . S
C743 C744 1.398 . S
C743 C749 1.491 . S
C744 H735 0.950 . S
C744 C743 1.398 . S
C744 C745 1.391 . S
C745 H733 0.950 1_556 S
C745 C741 1.393 1_556 S
C745 C744 1.391 . S
C746 H736 0.950 . S
C746 C747 1.386 . S
C746 C748 1.391 . S
C747 C746 1.386 . S
C747 C751 1.393 . S
C748 H737 0.950 . S
C748 C746 1.391 . S
C748 C749 1.400 . S
C749 C743 1.491 . S
C749 C748 1.400 . S
C749 C750 1.398 . S
C750 H738 0.950 . S
C750 C749 1.398 . S
C750 C751 1.391 . S
C751 H739 0.950 . S
C751 C747 1.393 . S
C751 C750 1.391 . S
H752 C760 0.950 . S
H753 C765 0.950 . S
H754 C762 0.950 . S
H755 C764 0.950 . S
H756 C766 0.950 . S
H757 C768 0.950 . S
H758 C770 0.950 . S
H759 C771 0.950 . S
C760 H752 0.950 . S
C760 C761 1.386 . S
C760 C762 1.391 . S
C761 C760 1.386 . S
C761 C765 1.393 . S
C762 H754 0.950 . S
C762 C760 1.391 . S
C762 C763 1.400 . S
C763 C762 1.400 . S
C763 C764 1.398 . S
C763 C769 1.491 . S
C764 H755 0.950 . S
C764 C763 1.398 . S
C764 C765 1.391 . S
C765 H753 0.950 . S
C765 C761 1.393 . S
C765 C764 1.391 . S
C766 H756 0.950 . S
C766 C767 1.386 . S
C766 C768 1.391 . S
C767 C766 1.386 . S
C767 C771 1.393 . S
C768 H757 0.950 . S
C768 C766 1.391 . S
C768 C769 1.400 . S
C769 C763 1.491 . S
C769 C768 1.400 . S
C769 C770 1.398 . S
C770 H758 0.950 . S
C770 C769 1.398 . S
C770 C771 1.391 . S
C771 H759 0.950 . S
C771 C767 1.393 . S
C771 C770 1.391 . S
H772 C780 0.950 . S
H773 C785 0.950 1_455 S
H774 C782 0.950 . S
H775 C784 0.950 1_455 S
H776 C786 0.950 1_455 S
H777 C788 0.950 1_455 S
H778 C790 0.950 . S
H779 C791 0.950 . S
C780 H772 0.950 . S
C780 C781 1.386 . S
C780 C782 1.391 . S
C781 C780 1.386 . S
C781 C785 1.393 . S
C782 H774 0.950 . S
C782 C780 1.391 . S
C782 C783 1.400 . S
C783 C782 1.400 . S
C783 C784 1.398 . S
C783 C789 1.491 . S
C784 H775 0.950 1_655 S
C784 C783 1.398 . S
C784 C785 1.391 . S
C785 H773 0.950 1_655 S
C785 C781 1.393 . S
C785 C784 1.391 . S
C786 H776 0.950 1_655 S
C786 C787 1.386 . S
C786 C788 1.391 . S
C787 C786 1.386 . S
C787 C791 1.393 . S
C788 H777 0.950 1_655 S
C788 C786 1.391 . S
C788 C789 1.400 . S
C789 C783 1.491 . S
C789 C788 1.400 . S
C789 C790 1.398 . S
C790 H778 0.950 . S
C790 C789 1.398 . S
C790 C791 1.391 . S
C791 H779 0.950 . S
C791 C787 1.393 . S
C791 C790 1.391 . S
H792 C800 0.950 . S
H793 C805 0.950 . S
H794 C802 0.950 . S
H795 C804 0.950 . S
H796 C806 0.950 . S
H797 C808 0.950 . S
H798 C810 0.950 . S
H799 C811 0.950 . S
C800 H792 0.950 . S
C800 C801 1.386 . S
C800 C802 1.391 . S
C801 C800 1.386 . S
C801 C805 1.393 . S
C802 H794 0.950 . S
C802 C800 1.391 . S
C802 C803 1.400 . S
C803 C802 1.400 . S
C803 C804 1.398 . S
C803 C809 1.491 . S
C804 H795 0.950 . S
C804 C803 1.398 . S
C804 C805 1.391 . S
C805 H793 0.950 . S
C805 C801 1.393 . S
C805 C804 1.391 . S
C806 H796 0.950 . S
C806 C807 1.386 . S
C806 C808 1.391 . S
C807 C806 1.386 . S
C807 C811 1.393 . S
C808 H797 0.950 . S
C808 C806 1.391 . S
C808 C809 1.400 . S
C809 C803 1.491 . S
C809 C808 1.400 . S
C809 C810 1.398 . S
C810 H798 0.950 . S
C810 C809 1.398 . S
C810 C811 1.391 . S
C811 H799 0.950 . S
C811 C807 1.393 . S
C811 C810 1.391 . S
H812 C820 0.950 . S
H813 C825 0.950 . S
H814 C822 0.950 . S
H815 C824 0.950 . S
H816 C826 0.950 . S
H817 C828 0.950 . S
H818 C830 0.950 . S
H819 C831 0.950 . S
C820 H812 0.950 . S
C820 C821 1.386 . S
C820 C822 1.391 . S
C821 C820 1.386 . S
C821 C825 1.393 . S
C822 H814 0.950 . S
C822 C820 1.391 . S
C822 C823 1.400 . S
C823 C822 1.400 . S
C823 C824 1.398 . S
C823 C829 1.491 . S
C824 H815 0.950 . S
C824 C823 1.398 . S
C824 C825 1.391 . S
C825 H813 0.950 . S
C825 C821 1.393 . S
C825 C824 1.391 . S
C826 H816 0.950 . S
C826 C827 1.386 . S
C826 C828 1.391 . S
C827 C826 1.386 . S
C827 C831 1.393 . S
C828 H817 0.950 . S
C828 C826 1.391 . S
C828 C829 1.400 . S
C829 C823 1.491 . S
C829 C828 1.400 . S
C829 C830 1.398 . S
C830 H818 0.950 . S
C830 C829 1.398 . S
C830 C831 1.391 . S
C831 H819 0.950 . S
C831 C827 1.393 . S
C831 C830 1.391 . S
C281 C171 1.889 . S
C287 C6 1.971 . S
C301 C139 1.906 . S
C307 C40 1.972 . S
C321 C239 1.891 . S
C327 C96 1.971 . S
C341 C130 1.970 . S
C347 C205 1.905 . S
C361 C142 1.974 . S
C367 C37 1.898 . S
C381 C3 1.900 . S
C387 C198 1.974 . S
C401 C232 1.974 . S
C407 C103 1.899 . S
C421 C266 1.974 . S
C427 C69 1.897 . S
C441 C28 0.223 . S
C447 C74 0.223 . S
C461 C108 0.219 . S
C467 C62 0.219 . S
C481 C210 0.274 . S
C487 C164 0.274 . S
C501 C176 0.277 . S
C507 C244 0.277 . S
C521 C15 2.095 . S
C527 C49 2.103 . S
C541 C124 2.085 . S
C547 C90 2.106 . S
C561 C151 2.086 . S
C567 C192 2.101 . S
C581 C260 2.105 . S
C587 C226 2.084 . S
C601 C219 1.075 . S
C607 C22 1.075 . S
C621 C56 1.081 . S
C627 C253 1.081 . S
C641 C83 1.082 . S
C647 C158 1.082 . S
C661 C117 1.095 . S
C667 C185 1.095 . S
C681 C241 1.794 . S
C687 C17 1.875 . S
C701 C207 1.791 . S
C707 C51 1.875 . S
C721 C85 1.879 . S
C727 C173 1.812 . S
C741 C119 1.879 . S
C747 C137 1.796 . S
C761 C153 1.880 . S
C767 C105 1.801 . S
C781 C71 1.813 . S
C787 C187 1.878 . S
C801 C35 1.793 . S
C807 C221 1.878 . S
C821 C1 1.795 . S
C827 C255 1.879 . S
