# Generated by pormake.
# Topology wme, (6)-cn, num edge types: 1
# Building blocks:
#     Node 0, Type 0, BuildingBlock: PAMTUU_clean_sbu_0, # of connection points: 6
#     Node 1, Type 0, BuildingBlock: PAMTUU_clean_sbu_0, # of connection points: 6
#     Node 2, Type 0, BuildingBlock: PAMTUU_clean_sbu_0, # of connection points: 6
#     Node 3, Type 0, BuildingBlock: PAMTUU_clean_sbu_0, # of connection points: 6
#     Node 4, Type 0, BuildingBlock: PAMTUU_clean_sbu_0, # of connection points: 6
#     Node 5, Type 0, BuildingBlock: PAMTUU_clean_sbu_0, # of connection points: 6
#     Node 6, Type 0, BuildingBlock: PAMTUU_clean_sbu_0, # of connection points: 6
#     Node 7, Type 0, BuildingBlock: PAMTUU_clean_sbu_0, # of connection points: 6
#     Node 8, Type 0, BuildingBlock: PAMTUU_clean_sbu_0, # of connection points: 6
#     Node 9, Type 0, BuildingBlock: PAMTUU_clean_sbu_0, # of connection points: 6
#     Node 10, Type 0, BuildingBlock: PAMTUU_clean_sbu_0, # of connection points: 6
#     Node 11, Type 0, BuildingBlock: PAMTUU_clean_sbu_0, # of connection points: 6
#     Edge 12, Type (0, 0), BuildingBlock: KIFKEQ_clean_linker_1, # of connection points: 2
#     Edge 13, Type (0, 0), BuildingBlock: KIFKEQ_clean_linker_1, # of connection points: 2
#     Edge 14, Type (0, 0), BuildingBlock: KIFKEQ_clean_linker_1, # of connection points: 2
#     Edge 15, Type (0, 0), BuildingBlock: KIFKEQ_clean_linker_1, # of connection points: 2
#     Edge 16, Type (0, 0), BuildingBlock: KIFKEQ_clean_linker_1, # of connection points: 2
#     Edge 17, Type (0, 0), BuildingBlock: KIFKEQ_clean_linker_1, # of connection points: 2
#     Edge 18, Type (0, 0), BuildingBlock: KIFKEQ_clean_linker_1, # of connection points: 2
#     Edge 19, Type (0, 0), BuildingBlock: KIFKEQ_clean_linker_1, # of connection points: 2
#     Edge 20, Type (0, 0), BuildingBlock: KIFKEQ_clean_linker_1, # of connection points: 2
#     Edge 21, Type (0, 0), BuildingBlock: KIFKEQ_clean_linker_1, # of connection points: 2
#     Edge 22, Type (0, 0), BuildingBlock: KIFKEQ_clean_linker_1, # of connection points: 2
#     Edge 23, Type (0, 0), BuildingBlock: KIFKEQ_clean_linker_1, # of connection points: 2
#     Edge 24, Type (0, 0), BuildingBlock: KIFKEQ_clean_linker_1, # of connection points: 2
#     Edge 25, Type (0, 0), BuildingBlock: KIFKEQ_clean_linker_1, # of connection points: 2
#     Edge 26, Type (0, 0), BuildingBlock: KIFKEQ_clean_linker_1, # of connection points: 2
#     Edge 27, Type (0, 0), BuildingBlock: KIFKEQ_clean_linker_1, # of connection points: 2
#     Edge 28, Type (0, 0), BuildingBlock: KIFKEQ_clean_linker_1, # of connection points: 2
#     Edge 29, Type (0, 0), BuildingBlock: KIFKEQ_clean_linker_1, # of connection points: 2
#     Edge 30, Type (0, 0), BuildingBlock: KIFKEQ_clean_linker_1, # of connection points: 2
#     Edge 31, Type (0, 0), BuildingBlock: KIFKEQ_clean_linker_1, # of connection points: 2
#     Edge 32, Type (0, 0), BuildingBlock: KIFKEQ_clean_linker_1, # of connection points: 2
#     Edge 33, Type (0, 0), BuildingBlock: KIFKEQ_clean_linker_1, # of connection points: 2
#     Edge 34, Type (0, 0), BuildingBlock: KIFKEQ_clean_linker_1, # of connection points: 2
#     Edge 35, Type (0, 0), BuildingBlock: KIFKEQ_clean_linker_1, # of connection points: 2
#     Edge 36, Type (0, 0), BuildingBlock: KIFKEQ_clean_linker_1, # of connection points: 2
#     Edge 37, Type (0, 0), BuildingBlock: KIFKEQ_clean_linker_1, # of connection points: 2
#     Edge 38, Type (0, 0), BuildingBlock: KIFKEQ_clean_linker_1, # of connection points: 2
#     Edge 39, Type (0, 0), BuildingBlock: KIFKEQ_clean_linker_1, # of connection points: 2
#     Edge 40, Type (0, 0), BuildingBlock: KIFKEQ_clean_linker_1, # of connection points: 2
#     Edge 41, Type (0, 0), BuildingBlock: KIFKEQ_clean_linker_1, # of connection points: 2
#     Edge 42, Type (0, 0), BuildingBlock: KIFKEQ_clean_linker_1, # of connection points: 2
#     Edge 43, Type (0, 0), BuildingBlock: KIFKEQ_clean_linker_1, # of connection points: 2
#     Edge 44, Type (0, 0), BuildingBlock: KIFKEQ_clean_linker_1, # of connection points: 2
#     Edge 45, Type (0, 0), BuildingBlock: KIFKEQ_clean_linker_1, # of connection points: 2
#     Edge 46, Type (0, 0), BuildingBlock: KIFKEQ_clean_linker_1, # of connection points: 2
#     Edge 47, Type (0, 0), BuildingBlock: KIFKEQ_clean_linker_1, # of connection points: 2
# Relax obj value: 0.087
# Max RMSD: 0.201
# Mean RMSD: 0.201
data_MOF--net-wme--node1-PAMTUU_clean_sbu_0--edge1-KIFKEQ_clean_linker_1
_symmetry_space_group_name_H-M    P1
_symmetry_Int_Tables_number       1
_symmetry_cell_setting            triclinic
loop_
_symmetry_equiv_pos_as_xyz
'x, y, z'
_cell_length_a     40.411207
_cell_length_b     40.246165
_cell_length_c     53.889759
_cell_angle_alpha  89.904742
_cell_angle_beta   90.139583
_cell_angle_gamma 119.82077
loop_
_atom_site_label
_atom_site_type_symbol
_atom_site_fract_x
_atom_site_fract_y
_atom_site_fract_z
_atom_type_partial_charge
Tb0 Tb 0.24849 0.32236 0.13448 0.0
Tb1 Tb 0.21122 0.36935 0.1064 0.0
C2 C 0.22792 0.37539 0.16465 0.0
C3 C 0.26208 0.23989 0.15035 0.0
C4 C 0.23966 0.16117 0.14674 0.0
C5 C 0.22892 0.17511 0.16732 0.0
C6 C 0.24015 0.21402 0.16915 0.0
C7 C 0.27293 0.22595 0.12982 0.0
C8 C 0.26183 0.18711 0.12804 0.0
C9 C 0.27363 0.28111 0.15228 0.0
O10 O 0.18684 0.29012 0.14077 0.0
O11 O 0.16812 0.3093 0.10604 0.0
O12 O 0.23855 0.35154 0.07804 0.0
O13 O 0.22874 0.29783 0.0983 0.0
O14 O 0.1629 0.37487 0.10032 0.0
O15 O 0.21583 0.41227 0.08174 0.0
O16 O 0.2664 0.41286 0.11933 0.0
O17 O 0.29651 0.37721 0.12153 0.0
O18 O 0.25224 0.36307 0.16179 0.0
O19 O 0.20509 0.37397 0.14656 0.0
C20 C 0.16027 0.28578 0.12482 0.0
O21 O 0.287 0.30178 0.13223 0.0
O22 O 0.2505 0.28936 0.16414 0.0
C23 C 0.23804 0.31852 0.07816 0.0
C24 C 0.17602 0.43806 0.0922 0.0
C25 C 0.16239 0.49932 0.10266 0.0
C26 C 0.16431 0.48879 0.07801 0.0
C27 C 0.17098 0.4585 0.07288 0.0
C28 C 0.17456 0.44859 0.11685 0.0
C29 C 0.16773 0.4788 0.12202 0.0
C30 C 0.18119 0.40503 0.08629 0.0
C31 C 0.29762 0.41056 0.12003 0.0
H32 H 0.21229 0.15602 0.18221 0.0
H33 H 0.23164 0.22386 0.18533 0.0
H34 H 0.28991 0.24499 0.115 0.0
H35 H 0.27026 0.17731 0.11181 0.0
H36 H 0.16112 0.50425 0.06258 0.0
H37 H 0.17202 0.45089 0.05373 0.0
H38 H 0.17829 0.43318 0.13211 0.0
H39 H 0.16608 0.48567 0.14123 0.0
Tb40 Tb 0.95494 0.24943 0.63387 0.0
Tb41 Tb 0.86658 0.21066 0.61313 0.0
C42 C 0.88596 0.22149 0.67004 0.0
C43 C 0.04609 0.25331 0.64816 0.0
C44 C 0.09394 0.22055 0.64901 0.0
C45 C 0.10043 0.25065 0.66526 0.0
C46 C 0.07684 0.26696 0.66474 0.0
C47 C 0.03834 0.22207 0.63278 0.0
C48 C 0.06205 0.20598 0.63313 0.0
C49 C 1.02344 0.27283 0.64601 0.0
O50 O 0.93852 0.19137 0.62121 0.0
O51 O 0.87414 0.16438 0.62643 0.0
O52 O 0.90527 0.2162 0.58268 0.0
O53 O 0.95314 0.27147 0.59786 0.0
O54 O 0.81132 0.16321 0.61266 0.0
O55 O 0.82618 0.21152 0.58867 0.0
O56 O 0.88562 0.27123 0.6164 0.0
O57 O 0.94112 0.29525 0.63986 0.0
O58 O 0.91785 0.22179 0.66504 0.0
O59 O 0.8639 0.22262 0.6524 0.0
C60 C 0.90447 0.16105 0.62369 0.0
O61 O 1.01236 0.27485 0.62362 0.0
O62 O 0.99615 0.2634 0.6621 0.0
C63 C 0.93772 0.24812 0.5793 0.0
C64 C 0.76177 0.17649 0.6036 0.0
C65 C 0.68931 0.16821 0.61411 0.0
C66 C 0.71899 0.20283 0.60448 0.0
C67 C 0.7548 0.20692 0.59927 0.0
C68 C 0.73224 0.14205 0.61334 0.0
C69 C 0.69656 0.138 0.61862 0.0
C70 C 0.79865 0.17908 0.59711 0.0
C71 C 0.91331 0.2988 0.62939 0.0
H72 H 0.12417 0.26212 0.67814 0.0
H73 H 0.08311 0.29079 0.67691 0.0
H74 H 1.01464 0.21085 0.61987 0.0
H75 H 0.05623 0.18318 0.62016 0.0
H76 H 0.71431 0.22654 0.60042 0.0
H77 H 0.77678 0.23374 0.59157 0.0
H78 H 0.73664 0.11798 0.61673 0.0
H79 H 0.67465 0.11114 0.62631 0.0
Tb80 Tb 0.72104 0.93541 0.13039 0.0
Tb81 Tb 0.67346 0.84662 0.10926 0.0
C82 C 0.68654 0.86526 0.16593 0.0
C83 C 0.803 0.03238 0.14493 0.0
C84 C 0.88249 0.08343 0.14393 0.0
C85 C 0.86782 0.04662 0.15423 0.0
C86 C 0.82832 0.02109 0.15451 0.0
C87 C 0.81765 0.06957 0.13553 0.0
C88 C 0.85695 0.09477 0.13493 0.0
C89 C 0.76183 1.00521 0.14198 0.0
O90 O 0.76466 0.92164 0.11813 0.0
O91 O 0.72909 0.85588 0.1193 0.0
O92 O 0.70644 0.88628 0.0792 0.0
O93 O 0.69641 0.93256 0.09436 0.0
O94 O 0.66323 0.79029 0.11009 0.0
O95 O 0.63486 0.80729 0.08313 0.0
O96 O 0.6314 0.86489 0.11253 0.0
O97 O 0.66124 0.91806 0.13814 0.0
O98 O 0.71704 0.89785 0.1604 0.0
O99 O 0.66126 0.84417 0.14898 0.0
C100 C 0.76202 0.88764 0.11841 0.0
O101 O 0.75141 0.99287 0.11942 0.0
O102 O 0.74502 0.97773 0.15825 0.0
C103 C 0.70535 0.918 0.07579 0.0
C104 C 0.60224 0.74238 0.09673 0.0
C105 C 0.53816 0.66891 0.10482 0.0
C106 C 0.55437 0.68008 0.08103 0.0
C107 C 0.58609 0.71635 0.07708 0.0
C108 C 0.58575 0.73185 0.1204 0.0
C109 C 0.55407 0.69547 0.12441 0.0
C110 C 0.63781 0.77892 0.09245 0.0
C111 C 0.63051 0.89088 0.1269 0.0
H112 H 0.88693 0.03713 0.16115 0.0
H113 H 0.8177 0.99231 0.16152 0.0
H114 H 0.79868 0.07876 0.12789 0.0
H115 H 0.86745 0.12306 0.12709 0.0
H116 H 0.54252 0.66081 0.06539 0.0
H117 H 0.5984 0.72389 0.05868 0.0
H118 H 0.59783 0.75142 0.1359 0.0
H119 H 0.54264 0.68788 0.14301 0.0
Tb120 Tb 0.81015 0.71713 0.63359 0.0
Tb121 Tb 0.84543 0.66805 0.60658 0.0
C122 C 0.83086 0.66562 0.66484 0.0
C123 C 0.80396 0.80316 0.64881 0.0
C124 C 0.83294 0.88314 0.6446 0.0
C125 C 0.80754 0.86179 0.66383 0.0
C126 C 0.79315 0.82224 0.66584 0.0
C127 C 0.82995 0.82431 0.62996 0.0
C128 C 0.84415 0.86382 0.62779 0.0
C129 C 0.78861 0.76145 0.65106 0.0
O130 O 0.87196 0.74769 0.63947 0.0
O131 O 0.88891 0.72797 0.60445 0.0
O132 O 0.81737 0.68448 0.57771 0.0
O133 O 0.82898 0.73943 0.59686 0.0
O134 O 0.89326 0.66153 0.60091 0.0
O135 O 0.83959 0.62325 0.58342 0.0
O136 O 0.79023 0.62576 0.62037 0.0
O137 O 0.76076 0.6621 0.62182 0.0
O138 O 0.80568 0.67668 0.66139 0.0
O139 O 0.85366 0.66689 0.64688 0.0
C140 C 0.89781 0.75188 0.62307 0.0
O141 O 0.77485 0.74153 0.63076 0.0
O142 O 0.81 0.7511 0.66315 0.0
C143 C 0.81803 0.71757 0.57726 0.0
C144 C 0.87913 0.59774 0.59519 0.0
C145 C 0.8918 0.53697 0.60914 0.0
C146 C 0.90121 0.55303 0.58518 0.0
C147 C 0.89496 0.58307 0.57832 0.0
C148 C 0.8695 0.58185 0.61909 0.0
C149 C 0.87573 0.55176 0.62599 0.0
C150 C 0.87428 0.63045 0.58783 0.0
C151 C 0.75918 0.62845 0.62083 0.0
H152 H 0.7988 0.87563 0.67744 0.0
H153 H 0.77354 0.80655 0.68072 0.0
H154 H 0.83906 0.8102 0.61677 0.0
H155 H 0.86327 0.87901 0.61261 0.0
H156 H 0.91296 0.54206 0.57153 0.0
H157 H 0.90264 0.59495 0.55979 0.0
H158 H 0.85746 0.59294 0.63246 0.0
H159 H 0.86845 0.54046 0.64466 0.0
Tb160 Tb 0.11059 0.79389 0.1372 0.0
Tb161 Tb 0.19575 0.82831 0.11177 0.0
C162 C 0.18055 0.80995 0.16961 0.0
C163 C 1.01839 0.78856 0.15022 0.0
C164 C 0.96764 0.81746 0.14415 0.0
C165 C 0.96067 0.78914 0.16208 0.0
C166 C 0.98573 0.77483 0.16502 0.0
C167 C 1.02604 0.81737 0.13269 0.0
C168 C 1.00091 0.83162 0.12965 0.0
C169 C 0.04429 0.77281 0.15317 0.0
O170 O 0.1427 0.85562 0.14414 0.0
O171 O 0.18084 0.87307 0.10987 0.0
O172 O 0.15275 0.80262 0.0821 0.0
O173 O 0.10951 0.81483 0.10065 0.0
O174 O 0.25079 0.87553 0.10772 0.0
O175 O 0.23438 0.82276 0.08831 0.0
O176 O 0.18071 0.77166 0.12434 0.0
O177 O 0.11527 0.74397 0.12495 0.0
O178 O 0.14409 0.78676 0.16558 0.0
O179 O 0.20352 0.83311 0.15224 0.0
C180 C 0.16529 0.88184 0.12818 0.0
O181 O 0.05127 0.75932 0.13306 0.0
O182 O 0.07532 0.79378 0.16589 0.0
C183 C 0.12123 0.80467 0.08109 0.0
C184 C 0.29924 0.86036 0.10041 0.0
C185 C 0.3718 0.87064 0.1132 0.0
C186 C 0.36592 0.88396 0.09035 0.0
C187 C 0.33007 0.87888 0.08406 0.0
C188 C 0.30469 0.8468 0.1232 0.0
C189 C 0.34061 0.85182 0.12952 0.0
C190 C 0.26224 0.85692 0.09367 0.0
C191 C 0.14659 0.74122 0.12429 0.0
H192 H 0.9358 0.778 0.17392 0.0
H193 H 0.97951 0.75288 0.17882 0.0
H194 H 0.05129 0.82858 0.12118 0.0
H195 H 1.00711 0.85307 0.1155 0.0
H196 H 0.38895 0.89793 0.0771 0.0
H197 H 0.32645 0.8896 0.0664 0.0
H198 H 0.28126 0.83264 0.13617 0.0
H199 H 0.34409 0.84146 0.14735 0.0
Tb200 Tb 0.33873 0.10037 0.63073 0.0
Tb201 Tb 0.38518 0.18999 0.60949 0.0
C202 C 0.37966 0.17058 0.6668 0.0
C203 C 0.25628 1.0041 0.64478 0.0
C204 C 0.1771 0.95085 0.6449 0.0
C205 C 0.20365 0.93999 0.65281 0.0
C206 C 0.24283 0.96635 0.65269 0.0
C207 C 0.22995 1.01548 0.63767 0.0
C208 C 0.19077 0.98916 0.63775 0.0
C209 C 0.29763 0.03026 0.64191 0.0
O210 O 0.29525 0.11571 0.62102 0.0
O211 O 0.33153 0.18127 0.62325 0.0
O212 O 0.34938 0.15014 0.58009 0.0
O213 O 0.36105 0.10431 0.59398 0.0
O214 O 0.39415 0.24594 0.60963 0.0
O215 O 0.42361 0.22959 0.58336 0.0
O216 O 0.42724 0.17156 0.61158 0.0
O217 O 0.39875 0.11691 0.63612 0.0
O218 O 0.34989 0.13665 0.6627 0.0
O219 O 0.40045 0.19377 0.64877 0.0
C220 C 0.2984 0.1498 0.62272 0.0
O221 O 0.30854 0.04299 0.61948 0.0
O222 O 0.31432 0.05751 0.65827 0.0
C223 C 0.34959 0.11803 0.5762 0.0
C224 C 0.45526 0.29474 0.59682 0.0
C225 C 0.51882 0.3689 0.60495 0.0
C226 C 0.504 0.35663 0.58091 0.0
C227 C 0.47259 0.32006 0.57694 0.0
C228 C 0.47031 0.30643 0.62081 0.0
C229 C 0.50167 0.34308 0.62483 0.0
C230 C 0.42001 0.25771 0.59234 0.0
C231 C 0.42886 0.14494 0.62494 0.0
H232 H 0.19419 0.91095 0.65883 0.0
H233 H 0.26269 0.95699 0.6582 0.0
H234 H 0.23973 0.04441 0.6313 0.0
H235 H 0.17133 0.99852 0.63128 0.0
H236 H 0.51675 0.37522 0.56505 0.0
H237 H 0.46145 0.31173 0.55828 0.0
H238 H 0.45736 0.28752 0.63652 0.0
H239 H 0.5119 0.35146 0.64363 0.0
Tb240 Tb 0.71325 0.79314 0.38504 0.0
Tb241 Tb 0.66186 0.83019 0.40672 0.0
C242 C 0.67727 0.82845 0.35013 0.0
C243 C 0.79985 0.7866 0.37026 0.0
C244 C 0.87948 0.8139 0.36871 0.0
C245 C 0.85474 0.78786 0.35075 0.0
C246 C 0.81537 0.77423 0.35163 0.0
C247 C 0.82454 0.81383 0.38755 0.0
C248 C 0.86378 0.82711 0.38689 0.0
C249 C 0.75794 0.76908 0.3726 0.0
O250 O 0.75431 0.85001 0.39953 0.0
O251 O 0.71689 0.87802 0.39721 0.0
O252 O 0.69359 0.82208 0.4372 0.0
O253 O 0.68781 0.76825 0.42027 0.0
O254 O 0.65259 0.87704 0.40795 0.0
O255 O 0.61946 0.82735 0.43084 0.0
O256 O 0.62132 0.76992 0.40114 0.0
O257 O 0.65428 0.74895 0.37638 0.0
O258 O 0.70825 0.82725 0.35577 0.0
O259 O 0.65111 0.82254 0.36677 0.0
C260 C 0.75042 0.88062 0.39903 0.0
O261 O 0.74532 0.76742 0.39505 0.0
O262 O 0.74043 0.77937 0.3566 0.0
C263 C 0.69448 0.79003 0.4396 0.0
C264 C 0.59077 0.86434 0.41834 0.0
C265 C 0.5281 0.87529 0.40784 0.0
C266 C 0.5597 0.90274 0.42138 0.0
C267 C 0.59058 0.89727 0.42656 0.0
C268 C 0.55945 0.83675 0.40473 0.0
C269 C 0.52828 0.84211 0.39963 0.0
C270 C 0.62466 0.86062 0.4237 0.0
C271 C 0.62244 0.74404 0.38675 0.0
H272 H 0.86567 0.77762 0.33611 0.0
H273 H 0.79694 0.7534 0.33801 0.0
H274 H 0.81341 0.82405 0.40211 0.0
H275 H 0.88151 0.84671 0.40125 0.0
H276 H 0.56034 0.92828 0.42836 0.0
H277 H 0.61449 0.91895 0.43704 0.0
H278 H 0.55916 0.81127 0.39798 0.0
H279 H 0.50455 0.82052 0.38901 0.0
Tb280 Tb 0.95679 0.71581 0.88175 0.0
Tb281 Tb 0.86843 0.6653 0.90189 0.0
C282 C 0.88792 0.67474 0.84515 0.0
C283 C 0.04756 0.80396 0.86805 0.0
C284 C 0.09511 0.88457 0.86781 0.0
C285 C 0.10181 0.86129 0.8514 0.0
C286 C 0.07836 0.8214 0.85161 0.0
C287 C 0.0396 0.82712 0.8836 0.0
C288 C 0.06316 0.86694 0.88354 0.0
C289 C 1.02515 0.76177 0.86988 0.0
O290 O 0.93978 0.75655 0.89522 0.0
O291 O 0.87557 0.71928 0.8893 0.0
O292 O 0.90705 0.69759 0.93258 0.0
O293 O 0.95553 0.6911 0.91742 0.0
O294 O 0.81241 0.65531 0.90174 0.0
O295 O 0.8293 0.62513 0.92734 0.0
O296 O 0.88757 0.62397 0.8977 0.0
O297 O 0.94379 0.65665 0.87517 0.0
O298 O 0.91966 0.70639 0.85042 0.0
O299 O 0.86594 0.65118 0.86258 0.0
C300 C 0.90578 0.75287 0.89249 0.0
O301 O 1.01418 0.74824 0.89217 0.0
O302 O 0.99788 0.74401 0.8537 0.0
C303 C 0.93906 0.69727 0.93615 0.0
C304 C 0.76485 0.59318 0.9136 0.0
C305 C 0.69247 0.52841 0.90479 0.0
C306 C 0.70384 0.54289 0.92896 0.0
C307 C 0.73961 0.57495 0.93328 0.0
C308 C 0.75397 0.57861 0.88944 0.0
C309 C 0.71802 0.54657 0.88507 0.0
C310 C 0.80108 0.62865 0.91859 0.0
C311 C 0.9158 0.62485 0.88495 0.0
H312 H 0.12562 0.87381 0.83864 0.0
H313 H 0.08481 0.80411 0.83931 0.0
H314 H 1.01587 0.81437 0.89642 0.0
H315 H 0.05718 0.88368 0.89661 0.0
H316 H 0.68474 0.52989 0.94453 0.0
H317 H 0.74733 0.58594 0.95202 0.0
H318 H 0.77305 0.59225 0.87394 0.0
H319 H 0.71033 0.53585 0.86629 0.0
Tb320 Tb 0.24407 0.94233 0.37695 0.0
Tb321 Tb 0.21336 0.85718 0.40455 0.0
C322 C 0.22823 0.8694 0.34654 0.0
C323 C 0.25486 0.03712 0.36029 0.0
C324 C 0.23402 0.09431 0.36584 0.0
C325 C 0.25036 0.0909 0.34359 0.0
C326 C 0.26069 0.06266 0.34089 0.0
C327 C 0.23855 0.0402 0.38252 0.0
C328 C 0.2284 0.06861 0.38532 0.0
C329 C 0.26393 1.00621 0.35652 0.0
O330 O 0.18476 0.92024 0.3877 0.0
O331 O 0.16506 0.85617 0.38604 0.0
O332 O 0.21395 0.89478 0.43454 0.0
O333 O 0.24928 0.95442 0.41599 0.0
O334 O 0.16983 0.80614 0.42078 0.0
O335 O 0.22716 0.81619 0.41694 0.0
O336 O 0.273 0.8951 0.41283 0.0
O337 O 0.29111 0.92966 0.37698 0.0
O338 O 0.22657 0.90104 0.34751 0.0
O339 O 0.22808 0.85042 0.36651 0.0
C340 C 0.15752 0.88436 0.38566 0.0
O341 O 0.28358 1.00124 0.37393 0.0
O342 O 0.23563 0.97373 0.34896 0.0
C343 C 0.23245 0.93273 0.43532 0.0
C344 C 0.1775 0.75158 0.41394 0.0
C345 C 0.15633 0.67509 0.401 0.0
C346 C 0.1407 0.68286 0.42204 0.0
C347 C 0.15131 0.72067 0.42847 0.0
C348 C 0.1918 0.74382 0.39226 0.0
C349 C 0.18146 0.70607 0.38594 0.0
C350 C 0.19211 0.79143 0.42283 0.0
C351 C 0.29865 0.91326 0.39566 0.0
H352 H 0.2545 0.10956 0.32799 0.0
H353 H 0.27277 0.06043 0.32347 0.0
H354 H 0.23341 0.02044 0.39762 0.0
H355 H 0.21636 0.07052 0.40282 0.0
H356 H 0.12156 0.65984 0.43419 0.0
H357 H 0.14 0.72585 0.44531 0.0
H358 H 0.21188 0.76703 0.38058 0.0
H359 H 0.19367 0.70116 0.36944 0.0
Tb360 Tb 0.34171 0.24909 0.88505 0.0
Tb361 Tb 0.38784 0.2049 0.90505 0.0
C362 C 0.37939 0.21791 0.84796 0.0
C363 C 0.26038 0.26583 0.87162 0.0
C364 C 0.18095 0.23902 0.86996 0.0
C365 C 0.19569 0.21563 0.86189 0.0
C366 C 0.23502 0.22884 0.86284 0.0
C367 C 0.24594 0.28937 0.87928 0.0
C368 C 0.20677 0.27615 0.87856 0.0
C369 C 0.30137 0.27941 0.87518 0.0
O370 O 0.29769 0.1907 0.89505 0.0
O371 O 0.33287 0.16011 0.89298 0.0
O372 O 0.35493 0.21126 0.93535 0.0
O373 O 0.36685 0.2687 0.92114 0.0
O374 O 0.39701 0.15805 0.90391 0.0
O375 O 0.42598 0.20274 0.93106 0.0
O376 O 0.43096 0.26473 0.90173 0.0
O377 O 0.40168 0.29194 0.87885 0.0
O378 O 0.34993 0.22229 0.8528 0.0
O379 O 0.40108 0.21579 0.86553 0.0
C380 C 0.30013 0.15931 0.89373 0.0
O381 O 0.31081 0.27493 0.89752 0.0
O382 O 0.31879 0.27044 0.85836 0.0
C383 C 0.35687 0.24437 0.93934 0.0
C384 C 0.45789 0.16977 0.91715 0.0
C385 C 0.52178 0.15959 0.90947 0.0
C386 C 0.50699 0.15733 0.93345 0.0
C387 C 0.47541 0.16228 0.9372 0.0
C388 C 0.4729 0.17285 0.89322 0.0
C389 C 0.50445 0.16777 0.88942 0.0
C390 C 0.42255 0.17142 0.92148 0.0
C391 C 0.43222 0.29322 0.88887 0.0
H392 H 0.17689 0.18705 0.85493 0.0
H393 H 0.24552 0.20998 0.85711 0.0
H394 H 0.26495 0.31777 0.88651 0.0
H395 H 0.19673 0.2948 0.88549 0.0
H396 H 0.5199 0.15188 0.94942 0.0
H397 H 0.46431 0.15972 0.95582 0.0
H398 H 0.45983 0.17846 0.87739 0.0
H399 H 0.51469 0.16941 0.87066 0.0
Tb400 Tb 0.09685 0.32458 0.37326 0.0
Tb401 Tb 0.18236 0.38154 0.39877 0.0
C402 C 0.16754 0.38146 0.34048 0.0
C403 C 1.00528 0.23524 0.36179 0.0
C404 C 0.95362 0.15692 0.37181 0.0
C405 C 0.94718 0.17594 0.35198 0.0
C406 C 0.97271 0.21463 0.34707 0.0
C407 C 1.01213 0.21654 0.3815 0.0
C408 C 0.98654 0.1778 0.38649 0.0
C409 C 0.03275 0.27556 0.35571 0.0
O410 O 0.12245 0.29017 0.38462 0.0
O411 O 0.1852 0.33542 0.38008 0.0
O412 O 0.14673 0.34311 0.42882 0.0
O413 O 0.08712 0.32391 0.41234 0.0
O414 O 0.23291 0.39031 0.41637 0.0
O415 O 0.22281 0.43731 0.40939 0.0
O416 O 0.14409 0.40343 0.40619 0.0
O417 O 0.10648 0.38346 0.37159 0.0
O418 O 0.13433 0.35008 0.34219 0.0
O419 O 0.18877 0.3997 0.35989 0.0
C420 C 0.15823 0.29945 0.38116 0.0
O421 O 0.03722 0.30119 0.3722 0.0
O422 O 0.06539 0.28176 0.34703 0.0
C423 C 0.10916 0.32595 0.43077 0.0
C424 C 0.28714 0.45188 0.40896 0.0
C425 C 0.36311 0.50654 0.39576 0.0
C426 C 0.35423 0.49134 0.41996 0.0
C427 C 0.31669 0.46441 0.42646 0.0
C428 C 0.29596 0.46573 0.38452 0.0
C429 C 0.33353 0.49279 0.378 0.0
C430 C 0.24719 0.42736 0.41718 0.0
C431 C 0.12437 0.40923 0.3891 0.0
H432 H 0.92261 0.16079 0.33998 0.0
H433 H 0.96717 0.2284 0.33159 0.0
H434 H 0.03736 0.23188 0.39295 0.0
H435 H 0.99232 0.16436 0.40204 0.0
H436 H 0.37598 0.50147 0.43424 0.0
H437 H 0.31052 0.45431 0.44545 0.0
H438 H 0.27364 0.45646 0.37066 0.0
H439 H 0.3393 0.50339 0.35912 0.0
Tb440 Tb 0.81377 0.10367 0.88303 0.0
Tb441 Tb 0.84988 0.18929 0.9084 0.0
C442 C 0.83316 0.17456 0.85045 0.0
C443 C 0.80605 1.01015 0.87082 0.0
C444 C 0.83657 0.96084 0.87756 0.0
C445 C 0.82347 0.96477 0.85409 0.0
C446 C 0.80831 0.98915 0.85078 0.0
C447 C 0.81949 1.00658 0.89417 0.0
C448 C 0.83445 0.98216 0.89754 0.0
C449 C 0.79129 0.03689 0.86705 0.0
O450 O 0.87529 0.13406 0.87622 0.0
O451 O 0.89411 0.17383 0.90991 0.0
O452 O 0.82371 0.14624 0.9381 0.0
O453 O 0.83462 0.10192 0.91957 0.0
O454 O 0.89772 0.2438 0.91325 0.0
O455 O 0.84456 0.22886 0.93125 0.0
O456 O 0.79422 0.17582 0.89508 0.0
O457 O 0.76496 0.11006 0.89503 0.0
O458 O 0.80865 0.1383 0.85446 0.0
O459 O 0.85624 0.19712 0.868 0.0
C460 C 0.90201 0.15744 0.89165 0.0
O461 O 0.77691 0.04441 0.8865 0.0
O462 O 0.81332 0.06782 0.85446 0.0
C463 C 0.82563 0.11453 0.93926 0.0
C464 C 0.88369 0.29352 0.91886 0.0
C465 C 0.89623 0.36666 0.90459 0.0
C466 C 0.90413 0.35985 0.92895 0.0
C467 C 0.89795 0.3237 0.93597 0.0
C468 C 0.87547 0.29988 0.89457 0.0
C469 C 0.88166 0.3361 0.8875 0.0
C470 C 0.8791 0.25619 0.92642 0.0
C471 C 0.76325 0.14207 0.89531 0.0
H472 H 0.82432 0.94849 0.83837 0.0
H473 H 0.79839 0.99165 0.83255 0.0
H474 H 0.81854 0.02278 0.90986 0.0
H475 H 0.8447 0.98026 0.91578 0.0
H476 H 0.91466 0.38236 0.94276 0.0
H477 H 0.90449 0.31936 0.9548 0.0
H478 H 0.86462 0.27696 0.88102 0.0
H479 H 0.87555 0.34028 0.86854 0.0
H480 H 0.20779 0.94197 0.09721 0.0
H481 H 0.14285 0.91325 0.16523 0.0
H482 H 0.22439 1.00848 0.10199 0.0
H483 H 0.16034 0.98036 0.17033 0.0
H484 H 0.17016 0.09862 0.15766 0.0
H485 H 0.15094 0.03096 0.1534 0.0
H486 H 0.26396 0.06269 0.12746 0.0
H487 H 0.28294 0.13009 0.13151 0.0
C488 C 0.19706 0.94981 0.11325 0.0
C489 C 0.17406 0.92216 0.13089 0.0
C490 C 0.20685 0.98813 0.11608 0.0
C491 C 0.19406 1.0 0.13668 0.0
C492 C 0.17048 0.97224 0.15414 0.0
C493 C 0.16058 0.93376 0.15127 0.0
C494 C 0.19097 0.09111 0.15124 0.0
C495 C 0.22804 0.11983 0.14479 0.0
C496 C 0.17996 0.05229 0.14881 0.0
C497 C 0.20579 0.04125 0.13992 0.0
C498 C 0.24302 0.07005 0.13385 0.0
C499 C 0.25396 0.10876 0.1362 0.0
H500 H 0.29189 0.20911 0.60524 0.0
H501 H 0.22822 0.10128 0.64368 0.0
H502 H 0.24064 0.22283 0.61198 0.0
H503 H 0.17659 0.11561 0.65119 0.0
H504 H 0.07978 0.14687 0.6405 0.0
H505 H 0.12644 0.12615 0.633 0.0
H506 H 0.2177 0.24133 0.64702 0.0
H507 H 0.17166 0.2624 0.65301 0.0
C508 C 0.26675 0.18821 0.61512 0.0
C509 C 0.26427 0.15432 0.62419 0.0
C510 C 0.23743 0.19624 0.61918 0.0
C511 C 0.20488 0.17087 0.63274 0.0
C512 C 0.20135 0.13586 0.64074 0.0
C513 C 0.23081 0.12758 0.63642 0.0
C514 C 0.10983 0.16781 0.64186 0.0
C515 C 0.1218 0.20647 0.64719 0.0
C516 C 0.13656 0.15579 0.63782 0.0
C517 C 0.17587 0.18216 0.639 0.0
C518 C 0.18769 0.22036 0.64537 0.0
C519 C 0.16113 0.23237 0.64925 0.0
H520 H 0.92083 0.11954 0.10211 0.0
H521 H 0.93818 0.10614 0.17964 0.0
H522 H 0.98837 0.16543 0.09748 0.0
H523 H 1.00599 0.15363 0.17545 0.0
H524 H 0.13325 0.22165 0.15447 0.0
H525 H 0.06708 0.17017 0.15902 0.0
H526 H 0.03108 0.22885 0.10779 0.0
H527 H 0.09669 0.27887 0.10256 0.0
C528 C 0.93921 0.12668 0.11823 0.0
C529 C 0.92422 0.10963 0.14129 0.0
C530 C 0.97797 0.1532 0.11565 0.0
C531 C 1.00281 0.16399 0.13619 0.0
C532 C 0.98793 0.14596 0.15917 0.0
C533 C 0.94906 0.11886 0.16164 0.0
C534 C 0.11112 0.22333 0.14412 0.0
C535 C 0.12036 0.25422 0.12797 0.0
C536 C 0.07312 0.19392 0.14682 0.0
C537 C 0.0435 0.19496 0.13361 0.0
C538 C 0.05297 0.22628 0.11778 0.0
C539 C 0.09078 0.25526 0.11488 0.0
H540 H 0.90383 0.94108 0.62972 0.0
H541 H 0.79272 0.92038 0.65258 0.0
H542 H 0.92406 1.00865 0.62293 0.0
H543 H 0.81351 0.98769 0.64718 0.0
H544 H 0.84092 0.09644 0.60959 0.0
H545 H 0.82656 0.03069 0.61377 0.0
H546 H 0.93968 0.06954 0.6429 0.0
H547 H 0.95459 0.13635 0.63788 0.0
C548 C 0.88372 0.95083 0.63337 0.0
C549 C 0.84648 0.92496 0.64161 0.0
C550 C 0.89552 0.98974 0.62975 0.0
C551 C 0.87037 1.00372 0.63423 0.0
C552 C 0.83352 0.97797 0.64302 0.0
C553 C 0.82171 0.93925 0.64652 0.0
C554 C 0.86295 0.09112 0.61674 0.0
C555 C 0.89875 0.12165 0.62372 0.0
C556 C 0.85458 0.05326 0.61932 0.0
C557 C 0.88154 0.04457 0.62931 0.0
C558 C 0.91816 0.07514 0.6352 0.0
C559 C 0.92675 0.1134 0.63233 0.0
H560 H 0.98167 0.89054 0.13347 0.0
H561 H 0.88972 0.77495 0.14532 0.0
H562 H 0.93506 0.91124 0.12516 0.0
H563 H 0.84363 0.79584 0.13822 0.0
H564 H 0.76836 0.8293 0.09889 0.0
H565 H 0.81996 0.81551 0.104 0.0
H566 H 0.88524 0.92154 0.14418 0.0
H567 H 0.83326 0.93593 0.13836 0.0
C568 C 0.9516 0.86954 0.13435 0.0
C569 C 0.93959 0.83097 0.14003 0.0
C570 C 0.92488 0.88153 0.12984 0.0
C571 C 0.88551 0.85521 0.13076 0.0
C572 C 0.87366 0.81687 0.13685 0.0
C573 C 0.90022 0.80493 0.14131 0.0
C574 C 0.79389 0.84999 0.10857 0.0
C575 C 0.79653 0.88352 0.11846 0.0
C576 C 0.82343 0.84191 0.11169 0.0
C577 C 0.85645 0.86687 0.12508 0.0
C578 C 0.86018 0.90161 0.1338 0.0
C579 C 0.83048 0.90993 0.13045 0.0
H580 H 0.95803 0.76927 0.59235 0.0
H581 H 0.929 0.8049 0.6606 0.0
H582 H 1.02453 0.81779 0.59804 0.0
H583 H 0.99599 0.85312 0.66656 0.0
H584 H 0.11535 0.95956 0.656 0.0
H585 H 0.04776 0.91302 0.65044 0.0
H586 H 0.07744 0.82979 0.62434 0.0
H587 H 0.14475 0.8766 0.62889 0.0
C588 C 0.96578 0.78746 0.60859 0.0
C589 C 0.93805 0.78299 0.62606 0.0
C590 C 1.00408 0.81517 0.61195 0.0
C591 C 1.01583 0.8392 0.6329 0.0
C592 C 0.98798 0.83533 0.65012 0.0
C593 C 0.94955 0.80754 0.64675 0.0
C594 C 0.10745 0.93139 0.64894 0.0
C595 C 0.13565 0.92195 0.64289 0.0
C596 C 0.06864 0.90456 0.64598 0.0
C597 C 0.05704 0.86764 0.63681 0.0
C598 C 0.08524 0.85809 0.63109 0.0
C599 C 0.12395 0.88484 0.63406 0.0
H600 H 0.13067 0.93267 0.3726 0.0
H601 H 0.09308 0.81511 0.39214 0.0
H602 H 0.06447 0.91668 0.36677 0.0
H603 H 1.0271 0.79943 0.38749 0.0
H604 H 0.91319 0.77126 0.35643 0.0
H605 H 0.98 0.78948 0.35881 0.0
H606 H 1.00705 0.90079 0.38677 0.0
H607 H 0.94055 0.88363 0.38247 0.0
C608 C 0.10826 0.90347 0.37587 0.0
C609 C 0.11725 0.87516 0.38273 0.0
C610 C 0.07018 0.89428 0.37266 0.0
C611 C 0.04006 0.85662 0.37653 0.0
C612 C 0.04927 0.82852 0.38372 0.0
C613 C 0.08727 0.83759 0.3866 0.0
C614 C 0.93336 0.79996 0.36255 0.0
C615 C 0.92103 0.82583 0.36927 0.0
C616 C 0.97185 0.81024 0.36437 0.0
C617 C 0.99926 0.84654 0.37331 0.0
C618 C 0.98707 0.87268 0.37962 0.0
C619 C 0.9486 0.86256 0.3775 0.0
H620 H 0.17285 0.92048 0.86446 0.0
H621 H 0.08068 0.94393 0.87638 0.0
H622 H 0.21874 0.98755 0.87074 0.0
H623 H 0.12721 1.01135 0.88403 0.0
H624 H 0.22999 0.13799 0.87257 0.0
H625 H 0.17794 0.07208 0.86544 0.0
H626 H 0.24091 0.02892 0.90617 0.0
H627 H 0.29254 0.0938 0.91258 0.0
C628 C 0.16223 0.93994 0.86816 0.0
C629 C 0.12287 0.92648 0.86994 0.0
C630 C 0.18869 0.97848 0.87218 0.0
C631 C 0.17674 1.00482 0.87839 0.0
C632 C 0.13741 0.99185 0.87934 0.0
C633 C 0.11076 0.95309 0.8752 0.0
C634 C 0.23222 0.11431 0.88027 0.0
C635 C 0.26553 0.12097 0.8928 0.0
C636 C 0.20252 0.0766 0.87617 0.0
C637 C 0.2057 0.04513 0.88467 0.0
C638 C 0.238 0.0523 0.89861 0.0
C639 C 0.26752 0.08959 0.90247 0.0
H640 H 0.11072 0.22181 0.3763 0.0
H641 H 0.22973 0.30807 0.38176 0.0
H642 H 0.12858 0.17233 0.37255 0.0
H643 H 0.2475 0.25874 0.37892 0.0
H644 H 0.27068 0.16793 0.34778 0.0
H645 H 0.25135 0.21606 0.35088 0.0
H646 H 0.15343 0.13808 0.39437 0.0
H647 H 0.17153 0.089 0.38995 0.0
C648 C 0.14068 0.23022 0.37686 0.0
C649 C 0.16876 0.269 0.37921 0.0
C650 C 0.15095 0.20178 0.37487 0.0
C651 C 0.18957 0.21136 0.37534 0.0
C652 C 0.21754 0.25017 0.37795 0.0
C653 C 0.20729 0.27856 0.37974 0.0
C654 C 0.24473 0.16075 0.35774 0.0
C655 C 0.22269 0.12433 0.36853 0.0
C656 C 0.23389 0.18867 0.35984 0.0
C657 C 0.20082 0.18122 0.37298 0.0
C658 C 0.17882 0.14486 0.38387 0.0
C659 C 0.18956 0.1168 0.38163 0.0
H660 H 0.14385 0.27935 0.86052 0.0
H661 H 0.12227 0.16611 0.88027 0.0
H662 H 0.07629 0.25799 0.86529 0.0
H663 H 0.05426 0.14455 0.88399 0.0
H664 H 0.92916 0.11851 0.8642 0.0
H665 H 0.99605 0.13638 0.85735 0.0
H666 H 0.03227 0.23619 0.90346 0.0
H667 H 0.96595 0.21834 0.91057 0.0
C668 C 0.12484 0.24991 0.86586 0.0
C669 C 0.13893 0.22471 0.87035 0.0
C670 C 0.08603 0.23765 0.86846 0.0
C671 C 0.06006 0.1997 0.87521 0.0
C672 C 0.07362 0.17394 0.87864 0.0
C673 C 0.11264 0.18633 0.87639 0.0
C674 C 0.95144 0.14417 0.87293 0.0
C675 C 0.94219 0.16697 0.88794 0.0
C676 C 0.98966 0.1543 0.86907 0.0
C677 C 1.01935 0.18782 0.87973 0.0
C678 C 1.01002 0.21043 0.89478 0.0
C679 C 0.97197 0.20001 0.89898 0.0
H680 H 0.87568 0.12053 0.3691 0.0
H681 H 0.96809 0.0997 0.38686 0.0
H682 H 0.83 0.05376 0.37705 0.0
H683 H 0.92187 0.03269 0.39601 0.0
H684 H 0.82373 0.90503 0.38254 0.0
H685 H 0.87488 0.97169 0.37705 0.0
H686 H 0.80379 1.01096 0.41107 0.0
H687 H 0.753 0.94522 0.4158 0.0
C688 C 0.88636 0.10173 0.37468 0.0
C689 C 0.92575 0.11576 0.37724 0.0
C690 C 0.86001 0.06336 0.37961 0.0
C691 C 0.87208 0.03768 0.38747 0.0
C692 C 0.91149 0.05152 0.38992 0.0
C693 C 0.93799 0.0901 0.38493 0.0
C694 C 0.81942 0.928 0.38916 0.0
C695 C 0.78412 0.91985 0.39928 0.0
C696 C 0.84869 0.96621 0.38602 0.0
C697 C 0.84322 0.99689 0.3931 0.0
C698 C 0.80871 0.98831 0.40465 0.0
C699 C 0.7796 0.95046 0.40755 0.0
H700 H 0.84021 0.75286 0.90264 0.0
H701 H 0.95801 0.82886 0.88302 0.0
H702 H 0.82758 0.80566 0.90037 0.0
H703 H 0.94513 0.8825 0.88078 0.0
H704 H 0.88447 0.9486 0.84756 0.0
H705 H 0.90548 0.9015 0.8532 0.0
H706 H 0.84362 0.86561 0.92228 0.0
H707 H 0.822 0.9118 0.91644 0.0
C708 C 0.86359 0.781 0.898 0.0
C709 C 0.90014 0.78659 0.89293 0.0
C710 C 0.85634 0.81139 0.89687 0.0
C711 C 0.88533 0.84832 0.89046 0.0
C712 C 0.92216 0.85427 0.88566 0.0
C713 C 0.9296 0.82369 0.88711 0.0
C714 C 0.87539 0.93063 0.86394 0.0
C715 C 0.85132 0.93382 0.88146 0.0
C716 C 0.88782 0.904 0.86731 0.0
C717 C 0.87613 0.87974 0.88815 0.0
C718 C 0.85289 0.88366 0.90593 0.0
C719 C 0.84071 0.91036 0.90266 0.0
H720 H 0.08435 0.66915 0.11559 0.0
H721 H 0.20525 0.72732 0.13126 0.0
H722 H 0.08443 0.60827 0.11235 0.0
H723 H 0.20543 0.66767 0.12753 0.0
H724 H 0.19403 0.55316 0.13965 0.0
H725 H 0.18538 0.60783 0.14742 0.0
H726 H 0.10813 0.57581 0.08511 0.0
H727 H 0.11526 0.5198 0.07805 0.0
C728 C 0.11079 0.669 0.1185 0.0
C729 C 0.14473 0.70329 0.12364 0.0
C730 C 0.11093 0.63417 0.11647 0.0
C731 C 0.14495 0.6329 0.11977 0.0
C732 C 0.17855 0.66718 0.1253 0.0
C733 C 0.17844 0.70168 0.12722 0.0
C734 C 0.1746 0.55721 0.12785 0.0
C735 C 0.15562 0.53198 0.10807 0.0
C736 C 0.16996 0.58895 0.13214 0.0
C737 C 0.14637 0.59665 0.11673 0.0
C738 C 0.12637 0.57078 0.09745 0.0
C739 C 0.13094 0.5389 0.09318 0.0
H740 H 0.67171 0.22048 0.63358 0.0
H741 H 0.61932 0.10475 0.60549 0.0
H742 H 0.60879 0.21359 0.63931 0.0
H743 H 0.55638 0.09785 0.61138 0.0
H744 H 0.44624 0.09038 0.64174 0.0
H745 H 0.50911 0.09488 0.64202 0.0
H746 H 0.55934 0.20915 0.61168 0.0
H747 H 0.4976 0.20508 0.61175 0.0
C748 C 0.64682 0.19358 0.62858 0.0
C749 C 0.65074 0.16332 0.61887 0.0
C750 C 0.6107 0.18958 0.63194 0.0
C751 C 0.57748 0.15521 0.62569 0.0
C752 C 0.5813 0.12454 0.61668 0.0
C753 C 0.61747 0.12856 0.61327 0.0
C754 C 0.47081 0.11653 0.63535 0.0
C755 C 0.46668 0.14722 0.62662 0.0
C756 C 0.50677 0.11904 0.63538 0.0
C757 C 0.53932 0.15244 0.62692 0.0
C758 C 0.53511 0.18324 0.61868 0.0
C759 C 0.49942 0.18068 0.61851 0.0
H760 H 0.52432 0.60043 0.08454 0.0
H761 H 0.47618 0.64855 0.13483 0.0
H762 H 0.46789 0.5374 0.08955 0.0
H763 H 0.42083 0.58538 0.14074 0.0
H764 H 0.30788 0.48268 0.11869 0.0
H765 H 0.36669 0.54305 0.1164 0.0
H766 H 0.43096 0.4836 0.11777 0.0
H767 H 0.37116 0.42208 0.11957 0.0
C768 C 0.50181 0.59762 0.09673 0.0
C769 C 0.50475 0.62985 0.10905 0.0
C770 C 0.46966 0.56129 0.09988 0.0
C771 C 0.4396 0.55623 0.11542 0.0
C772 C 0.44311 0.58824 0.12831 0.0
C773 C 0.47515 0.62451 0.12513 0.0
C774 C 0.3344 0.48211 0.1186 0.0
C775 C 0.33458 0.44722 0.11934 0.0
C776 C 0.36833 0.51703 0.11748 0.0
C777 C 0.40373 0.51841 0.11713 0.0
C778 C 0.40417 0.4836 0.11788 0.0
C779 C 0.36993 0.44834 0.11903 0.0
H780 H 0.84557 0.47364 0.63726 0.0
H781 H 0.95206 0.52628 0.59708 0.0
H782 H 0.85351 0.41879 0.64659 0.0
H783 H 0.9592 0.47057 0.60561 0.0
H784 H 0.97256 0.37231 0.63848 0.0
H785 H 0.96974 0.43194 0.63705 0.0
H786 H 0.8487 0.36637 0.62249 0.0
H787 H 0.85138 0.30768 0.62427 0.0
C788 C 0.8709 0.47379 0.63061 0.0
C789 C 0.89796 0.50442 0.61619 0.0
C790 C 0.87529 0.44206 0.63577 0.0
C791 C 0.90684 0.43996 0.62666 0.0
C792 C 0.93466 0.47121 0.61306 0.0
C793 C 0.93026 0.50298 0.60787 0.0
C794 C 0.94534 0.37076 0.63538 0.0
C795 C 0.91229 0.33519 0.63136 0.0
C796 C 0.94373 0.4049 0.63435 0.0
C797 C 0.90896 0.40407 0.62963 0.0
C798 C 0.87588 0.36831 0.62649 0.0
C799 C 0.87753 0.33451 0.62731 0.0
H800 H 0.61507 0.94756 0.14174 0.0
H801 H 0.56054 0.82964 0.11772 0.0
H802 H 0.55268 0.94421 0.14212 0.0
H803 H 0.49914 0.82653 0.11775 0.0
H804 H 0.38822 0.81962 0.13624 0.0
H805 H 0.45066 0.82618 0.14396 0.0
H806 H 0.50488 0.93925 0.1115 0.0
H807 H 0.44243 0.93327 0.1046 0.0
C808 C 0.58985 0.92089 0.13681 0.0
C809 C 0.59295 0.889 0.12955 0.0
C810 C 0.55414 0.91902 0.13685 0.0
C811 C 0.52078 0.88507 0.12995 0.0
C812 C 0.52397 0.85298 0.12349 0.0
C813 C 0.55943 0.85493 0.12326 0.0
C814 C 0.41342 0.84619 0.13116 0.0
C815 C 0.41011 0.87574 0.11956 0.0
C816 C 0.4493 0.84983 0.13538 0.0
C817 C 0.48292 0.88313 0.12815 0.0
C818 C 0.4797 0.9133 0.11745 0.0
C819 C 0.4438 0.90963 0.11318 0.0
H820 H 0.74829 0.55619 0.62391 0.0
H821 H 0.68569 0.61696 0.61669 0.0
H822 H 0.68961 0.49578 0.62131 0.0
H823 H 0.62587 0.55537 0.61461 0.0
H824 H 0.53472 0.43661 0.58208 0.0
H825 H 0.59076 0.49988 0.58738 0.0
H826 H 0.63338 0.45432 0.64373 0.0
H827 H 0.57853 0.3909 0.63759 0.0
C828 C 0.72192 0.55681 0.62198 0.0
C829 C 0.72199 0.5918 0.62049 0.0
C830 C 0.68799 0.52183 0.62069 0.0
C831 C 0.65273 0.52039 0.61792 0.0
C832 C 0.65252 0.55532 0.61658 0.0
C833 C 0.68677 0.59066 0.61793 0.0
C834 C 0.55618 0.43997 0.59547 0.0
C835 C 0.55207 0.40827 0.60919 0.0
C836 C 0.58812 0.4765 0.59877 0.0
C837 C 0.61689 0.48238 0.61587 0.0
C838 C 0.61219 0.45091 0.63009 0.0
C839 C 0.58038 0.41445 0.62676 0.0
H840 H 0.35996 0.94438 0.36334 0.0
H841 H 0.31841 0.87682 0.43028 0.0
H842 H 0.41585 0.93545 0.36415 0.0
H843 H 0.3735 0.86803 0.43095 0.0
H844 H 0.45194 0.82241 0.41095 0.0
H845 H 0.3978 0.833 0.40628 0.0
H846 H 0.47467 0.9522 0.38979 0.0
H847 H 0.52892 0.94146 0.39398 0.0
C848 C 0.36283 0.92798 0.3783 0.0
C849 C 0.33453 0.91135 0.3967 0.0
C850 C 0.39482 0.92283 0.37876 0.0
C851 C 0.39889 0.90055 0.39744 0.0
C852 C 0.37096 0.88469 0.41602 0.0
C853 C 0.33941 0.89009 0.41571 0.0
C854 C 0.45733 0.85075 0.40594 0.0
C855 C 0.49487 0.88111 0.40303 0.0
C856 C 0.42629 0.85693 0.4035 0.0
C857 C 0.4319 0.89358 0.3979 0.0
C858 C 0.46932 0.92364 0.39404 0.0
C859 C 0.50042 0.91752 0.39668 0.0
H860 H 0.6568 0.463 0.93236 0.0
H861 H 0.64137 0.51683 0.86738 0.0
H862 H 0.59378 0.40773 0.92615 0.0
H863 H 0.57819 0.46064 0.86075 0.0
H864 H 0.44947 0.3674 0.87827 0.0
H865 H 0.51268 0.42526 0.88022 0.0
H866 H 0.56352 0.35531 0.89641 0.0
H867 H 0.50123 0.29828 0.89476 0.0
C868 C 0.63991 0.46306 0.91674 0.0
C869 C 0.65417 0.49436 0.90039 0.0
C870 C 0.60388 0.43118 0.91302 0.0
C871 C 0.58102 0.42964 0.89284 0.0
C872 C 0.59504 0.46103 0.87652 0.0
C873 C 0.63135 0.49299 0.88018 0.0
C874 C 0.47426 0.36448 0.88193 0.0
C875 C 0.47017 0.32828 0.88678 0.0
C876 C 0.51044 0.39757 0.88303 0.0
C877 C 0.54303 0.39491 0.88896 0.0
C878 C 0.53894 0.35849 0.89246 0.0
C879 C 0.50311 0.32572 0.89142 0.0
H880 H 0.20768 0.65299 0.38751 0.0
H881 H 0.08802 0.60691 0.40328 0.0
H882 H 0.19716 0.58822 0.38249 0.0
H883 H 0.07755 0.5417 0.39822 0.0
H884 H 0.07843 0.43157 0.36386 0.0
H885 H 0.08353 0.49528 0.36454 0.0
H886 H 0.17843 0.53534 0.41529 0.0
H887 H 0.17318 0.47274 0.41505 0.0
C888 C 0.17897 0.62909 0.38949 0.0
C889 C 0.14875 0.63532 0.39587 0.0
C890 C 0.17299 0.59191 0.38676 0.0
C891 C 0.13654 0.55978 0.39004 0.0
C892 C 0.10591 0.56585 0.39544 0.0
C893 C 0.11201 0.60319 0.39854 0.0
C894 C 0.10017 0.45397 0.37524 0.0
C895 C 0.12525 0.44678 0.38944 0.0
C896 C 0.10306 0.49038 0.37566 0.0
C897 C 0.13163 0.52045 0.38982 0.0
C898 C 0.15641 0.51303 0.40398 0.0
C899 C 0.15313 0.47683 0.40393 0.0
H900 H 0.69001 0.07993 0.8995 0.0
H901 H 0.75193 0.20319 0.89212 0.0
H902 H 0.62995 0.0813 0.90116 0.0
H903 H 0.69297 0.20452 0.89429 0.0
H904 H 0.58149 0.19724 0.877 0.0
H905 H 0.63675 0.18913 0.87139 0.0
H906 H 0.59443 0.10157 0.92801 0.0
H907 H 0.53803 0.10833 0.93278 0.0
C908 C 0.69089 0.10721 0.89816 0.0
C909 C 0.72598 0.14137 0.89565 0.0
C910 C 0.6565 0.10806 0.89925 0.0
C911 C 0.65645 0.14305 0.89771 0.0
C912 C 0.69158 0.17697 0.89505 0.0
C913 C 0.72566 0.17615 0.89401 0.0
C914 C 0.58351 0.17577 0.88799 0.0
C915 C 0.5552 0.15369 0.90549 0.0
C916 C 0.61554 0.1714 0.88497 0.0
C917 C 0.62043 0.14494 0.89943 0.0
C918 C 0.59164 0.12207 0.91644 0.0
C919 C 0.55949 0.12639 0.91944 0.0
H920 H 0.43245 0.51557 0.41072 0.0
H921 H 0.38301 0.57031 0.36732 0.0
H922 H 0.4958 0.5713 0.4047 0.0
H923 H 0.44624 0.62527 0.36073 0.0
H924 H 0.55142 0.73498 0.38932 0.0
H925 H 0.49046 0.67617 0.38805 0.0
H926 H 0.54785 0.61165 0.37468 0.0
H927 H 0.60975 0.67133 0.37612 0.0
C928 C 0.43507 0.53926 0.39968 0.0
C929 C 0.40238 0.53841 0.38971 0.0
C930 C 0.4715 0.57107 0.39599 0.0
C931 C 0.4762 0.60299 0.38238 0.0
C932 C 0.4437 0.60143 0.37157 0.0
C933 C 0.40737 0.56964 0.37515 0.0
C934 C 0.55123 0.70837 0.38586 0.0
C935 C 0.58561 0.70793 0.38294 0.0
C936 C 0.51608 0.67454 0.38495 0.0
C937 C 0.51406 0.63902 0.38125 0.0
C938 C 0.54838 0.6385 0.37772 0.0
C939 C 0.58381 0.67268 0.37834 0.0
H940 H 0.97602 0.61182 0.87703 0.0
H941 H 0.85401 0.55371 0.88773 0.0
H942 H 0.97393 0.54973 0.87798 0.0
H943 H 0.85201 0.49262 0.88906 0.0
H944 H 0.85139 0.38352 0.87471 0.0
H945 H 0.85915 0.44617 0.86518 0.0
H946 H 0.9621 0.50015 0.90924 0.0
H947 H 0.95522 0.43751 0.91796 0.0
C948 C 0.94878 0.58588 0.87922 0.0
C949 C 0.91527 0.5878 0.88247 0.0
C950 C 0.94758 0.55034 0.87998 0.0
C951 C 0.91278 0.51607 0.88365 0.0
C952 C 0.87925 0.51818 0.88589 0.0
C953 C 0.88049 0.55343 0.88535 0.0
C954 C 0.87612 0.40872 0.88199 0.0
C955 C 0.90244 0.40525 0.89734 0.0
C956 C 0.88039 0.44472 0.87671 0.0
C957 C 0.91107 0.47832 0.88663 0.0
C958 C 0.93826 0.475 0.90115 0.0
C959 C 0.93398 0.43896 0.90644 0.0
H960 H 0.24135 0.42455 0.3235 0.0
H961 H 0.12364 0.36938 0.29986 0.0
H962 H 0.26154 0.43626 0.27995 0.0
H963 H 0.14334 0.37977 0.25696 0.0
H964 H 0.18189 0.40387 0.1798 0.0
H965 H 0.17306 0.4196 0.22214 0.0
H966 H 0.25898 0.39362 0.24807 0.0
H967 H 0.26869 0.37936 0.20605 0.0
C968 C 0.21989 0.41565 0.30907 0.0
C969 C 0.18095 0.39537 0.31505 0.0
C970 C 0.23136 0.42208 0.28414 0.0
C971 C 0.20405 0.40851 0.26487 0.0
C972 C 0.16527 0.39097 0.27114 0.0
C973 C 0.15391 0.38454 0.29586 0.0
C974 C 0.19931 0.40217 0.19449 0.0
C975 C 0.2254 0.38958 0.18955 0.0
C976 C 0.19425 0.41113 0.21878 0.0
C977 C 0.21497 0.40743 0.23863 0.0
C978 C 0.24277 0.39724 0.23334 0.0
C979 C 0.24799 0.38854 0.20914 0.0
H980 H 0.93243 0.23573 0.70977 0.0
H981 H 0.81704 0.20578 0.69028 0.0
H982 H 0.9167 0.23145 0.75335 0.0
H983 H 0.80126 0.20184 0.73454 0.0
H984 H 0.78429 0.13943 0.81185 0.0
H985 H 0.79471 0.15715 0.76829 0.0
H986 H 0.89915 0.26041 0.78707 0.0
H987 H 0.88913 0.24231 0.83087 0.0
C988 C 0.90365 0.22843 0.71477 0.0
C989 C 0.8758 0.22055 0.69649 0.0
C990 C 0.8948 0.22652 0.73986 0.0
C991 C 0.85781 0.21652 0.74744 0.0
C992 C 0.83002 0.20951 0.72922 0.0
C993 C 0.83902 0.21176 0.70393 0.0
C994 C 0.80924 0.16624 0.80681 0.0
C995 C 0.83635 0.18907 0.8248 0.0
C996 C 0.81497 0.17656 0.7818 0.0
C997 C 0.84797 0.20992 0.77419 0.0
C998 C 0.87372 0.23419 0.79237 0.0
C999 C 0.86792 0.22391 0.81746 0.0
H1000 H 0.61999 0.83301 0.19255 0.0
H1001 H 0.74042 0.87273 0.19857 0.0
H1002 H 0.61377 0.82512 0.23777 0.0
H1003 H 0.73422 0.86295 0.24312 0.0
H1004 H 0.72848 0.88641 0.32199 0.0
H1005 H 0.72695 0.89367 0.2773 0.0
H1006 H 0.61532 0.79226 0.27431 0.0
H1007 H 0.61627 0.78675 0.31964 0.0
C1008 C 0.64486 0.83906 0.20353 0.0
C1009 C 0.68073 0.85375 0.19223 0.0
C1010 C 0.64139 0.83465 0.22941 0.0
C1011 C 0.67368 0.84436 0.24429 0.0
C1012 C 0.70896 0.85662 0.23252 0.0
C1013 C 0.71251 0.86176 0.2069 0.0
C1014 C 0.70328 0.86627 0.31178 0.0
C1015 C 0.67251 0.83612 0.32408 0.0
C1016 C 0.70255 0.86998 0.2861 0.0
C1017 C 0.67151 0.84283 0.27196 0.0
C1018 C 0.63971 0.8137 0.28452 0.0
C1019 C 0.64013 0.81053 0.31045 0.0
H1020 H 0.78167 0.64808 0.70355 0.0
H1021 H 0.89039 0.65915 0.68402 0.0
H1022 H 0.79386 0.64236 0.74705 0.0
H1023 H 0.90228 0.65268 0.72779 0.0
H1024 H 0.93295 0.71026 0.80533 0.0
H1025 H 0.91697 0.69842 0.76173 0.0
H1026 H 0.80437 0.60677 0.78059 0.0
H1027 H 0.82032 0.61895 0.82481 0.0
C1028 C 0.8079 0.64854 0.70848 0.0
C1029 C 0.83545 0.65487 0.69036 0.0
C1030 C 0.81469 0.64488 0.73346 0.0
C1031 C 0.84923 0.64757 0.74092 0.0
C1032 C 0.87562 0.65112 0.72261 0.0
C1033 C 0.86875 0.65462 0.69754 0.0
C1034 C 0.90475 0.68743 0.80033 0.0
C1035 C 0.87771 0.66585 0.81862 0.0
C1036 C 0.89579 0.68032 0.77522 0.0
C1037 C 0.8595 0.65151 0.76766 0.0
C1038 C 0.83257 0.62928 0.78589 0.0
C1039 C 0.84167 0.63625 0.81117 0.0
H1040 H 0.25302 0.8563 0.18762 0.0
H1041 H 0.1409 0.76649 0.20942 0.0
H1042 H 0.27328 0.86477 0.23099 0.0
H1043 H 0.1607 0.77579 0.25248 0.0
H1044 H 0.26042 0.9136 0.30632 0.0
H1045 H 0.25642 0.89364 0.26367 0.0
H1046 H 0.19909 0.77512 0.28694 0.0
H1047 H 0.20256 0.79556 0.33029 0.0
C1048 C 0.23286 0.83804 0.20156 0.0
C1049 C 0.19508 0.81141 0.19509 0.0
C1050 C 0.24444 0.8429 0.22642 0.0
C1051 C 0.21843 0.82137 0.24528 0.0
C1052 C 0.1816 0.7927 0.23851 0.0
C1053 C 0.1701 0.78773 0.21373 0.0
C1054 C 0.24738 0.88323 0.30245 0.0
C1055 C 0.23101 0.85606 0.32155 0.0
C1056 C 0.24557 0.87178 0.27793 0.0
C1057 C 0.22722 0.83275 0.27177 0.0
C1058 C 0.21305 0.80544 0.29108 0.0
C1059 C 0.21514 0.81705 0.31586 0.0
H1060 H 0.41795 0.18443 0.82755 0.0
H1061 H 0.3612 0.24805 0.80871 0.0
H1062 H 0.42732 0.17773 0.78322 0.0
H1063 H 0.37087 0.2417 0.76482 0.0
H1064 H 0.41336 0.24287 0.68689 0.0
H1065 H 0.42209 0.25929 0.73125 0.0
H1066 H 0.37739 0.14009 0.74969 0.0
H1067 H 0.36832 0.12374 0.70581 0.0
C1068 C 0.40799 0.19739 0.814 0.0
C1069 C 0.38834 0.21622 0.82156 0.0
C1070 C 0.41335 0.19359 0.7887 0.0
C1071 C 0.39987 0.20928 0.77061 0.0
C1072 C 0.38193 0.22969 0.77831 0.0
C1073 C 0.376 0.2329 0.80346 0.0
C1074 C 0.40603 0.2204 0.70047 0.0
C1075 C 0.38967 0.18202 0.69298 0.0
C1076 C 0.41094 0.22973 0.72578 0.0
C1077 C 0.40038 0.20091 0.74387 0.0
C1078 C 0.38612 0.16291 0.7362 0.0
C1079 C 0.38057 0.15355 0.71106 0.0
H1080 H 0.30063 0.19426 0.97089 0.0
H1081 H 0.37816 0.31444 0.95815 0.0
H1082 H 0.26888 0.21068 1.00333 0.0
H1083 H 0.34771 0.33097 0.9909 0.0
H1084 H 0.26355 0.35288 0.03242 0.0
H1085 H 0.29155 0.33314 0.99942 0.0
H1086 H 0.27369 0.23574 0.04345 0.0
H1087 H 0.24455 0.25437 0.07561 0.0
C1088 C 0.31151 0.22411 0.9755 0.0
C1089 C 0.34191 0.25302 0.96203 0.0
C1090 C 0.29324 0.23365 0.99401 0.0
C1091 C 0.30524 0.27231 0.99958 0.0
C1092 C 0.33681 0.30098 0.98674 0.0
C1093 C 0.35469 0.29147 0.96817 0.0
C1094 C 0.26511 0.32698 0.03484 0.0
C1095 C 0.25175 0.30537 0.05672 0.0
C1096 C 0.28157 0.3158 0.01604 0.0
C1097 C 0.28536 0.28292 0.01877 0.0
C1098 C 0.27099 0.26088 0.04041 0.0
C1099 C 0.25434 0.27183 0.05901 0.0
H1100 H 0.132 0.34926 0.47908 0.0
H1101 H 0.03982 0.26322 0.43515 0.0
H1102 H 0.09103 0.32665 0.51598 0.0
H1103 H 0.9989 0.24168 0.47123 0.0
H1104 H 0.93641 0.19748 0.54447 0.0
H1105 H 0.98202 0.21184 0.51064 0.0
H1106 H 0.03758 0.33203 0.52961 0.0
H1107 H 0.99297 0.31752 0.56346 0.0
C1108 C 0.10339 0.32506 0.47743 0.0
C1109 C 0.089 0.30835 0.45422 0.0
C1110 C 0.07967 0.31237 0.49843 0.0
C1111 C 0.04128 0.28272 0.49653 0.0
C1112 C 1.02814 0.26436 0.47358 0.0
C1113 C 0.05166 0.27697 0.45278 0.0
C1114 C 0.95806 0.22695 0.5411 0.0
C1115 C 0.96096 0.25634 0.55653 0.0
C1116 C 0.98442 0.23524 0.52186 0.0
C1117 C 1.01401 0.27312 0.51757 0.0
C1118 C 1.01604 0.30244 0.53271 0.0
C1119 C 0.99 0.29415 0.55192 0.0
H1120 H 0.67871 0.96004 0.05315 0.0
H1121 H 0.76912 0.93284 0.04967 0.0
H1122 H 0.70996 1.0088 0.02134 0.0
H1123 H 0.80217 0.98339 0.01901 0.0
H1124 H 0.83632 0.05407 0.94833 0.0
H1125 H 0.80613 1.00493 0.97948 0.0
H1126 H 0.75931 0.06976 0.01364 0.0
H1127 H 0.78714 0.11763 0.9807 0.0
C1128 C 0.70521 0.96434 0.04528 0.0
C1129 C 0.72119 0.94227 0.05352 0.0
C1130 C 0.72363 0.99288 0.02736 0.0
C1131 C 0.75916 1.0009 0.01764 0.0
C1132 C 0.77467 0.978 0.0256 0.0
C1133 C 0.7557 0.94877 0.04315 0.0
C1134 C 0.8194 0.05786 0.96238 0.0
C1135 C 0.81343 0.08945 0.96158 0.0
C1136 C 0.80238 0.02969 0.98061 0.0
C1137 C 0.77953 0.03261 0.99914 0.0
C1138 C 0.77562 0.06563 0.99931 0.0
C1139 C 0.79216 0.09358 0.98065 0.0
H1140 H 0.79213 0.68278 0.53152 0.0
H1141 H 0.80805 0.77957 0.57523 0.0
H1142 H 0.76248 0.70144 0.49877 0.0
H1143 H 0.77709 0.79684 0.54359 0.0
H1144 H 0.74809 0.83917 0.47276 0.0
H1145 H 0.78055 0.82272 0.50469 0.0
H1146 H 0.70667 0.70245 0.48874 0.0
H1147 H 0.67582 0.71927 0.45618 0.0
C1148 C 0.78946 0.70802 0.53414 0.0
C1149 C 0.80268 0.7296 0.55604 0.0
C1150 C 0.77204 0.71857 0.51549 0.0
C1151 C 0.76698 0.75067 0.51844 0.0
C1152 C 0.78085 0.77242 0.54023 0.0
C1153 C 0.79858 0.76223 0.55859 0.0
C1154 C 0.7384 0.80925 0.47648 0.0
C1155 C 0.70929 0.78054 0.46209 0.0
C1156 C 0.75708 0.79968 0.49474 0.0
C1157 C 0.74668 0.76109 0.49929 0.0
C1158 C 0.71637 0.73245 0.48546 0.0
C1159 C 0.69819 0.74207 0.46702 0.0
H1160 H 0.9864 0.67397 0.95464 0.0
H1161 H 0.94243 0.75001 0.96971 0.0
H1162 H 0.0307 0.70112 0.98918 0.0
H1163 H 0.98808 0.77874 1.00377 0.0
H1164 H 0.05096 0.7978 0.07716 0.0
H1165 H 1.00555 0.77067 0.04362 0.0
H1166 H 0.08771 0.75602 1.00076 0.0
H1167 H 0.13301 0.78175 0.03526 0.0
C1168 C 0.98605 0.69638 0.96557 0.0
C1169 C 0.96081 0.70972 0.95962 0.0
C1170 C 1.01191 0.7124 0.98516 0.0
C1171 C 1.01368 0.74271 0.99913 0.0
C1172 C 0.98745 0.75524 0.99363 0.0
C1173 C 0.9611 0.73871 0.97418 0.0
C1174 C 0.0597 0.78912 0.06055 0.0
C1175 C 0.09582 0.79194 0.05899 0.0
C1176 C 0.03347 0.77364 0.04114 0.0
C1177 C 0.0426 0.76085 0.01937 0.0
C1178 C 0.07925 0.76478 0.01744 0.0
C1179 C 0.10547 0.77994 0.0371 0.0
H1180 H 0.24504 0.91501 0.48264 0.0
H1181 H 0.23316 0.99972 0.44054 0.0
H1182 H 0.26942 0.95932 0.51792 0.0
H1183 H 0.25871 0.04425 0.47488 0.0
H1184 H 0.29212 0.1139 0.54639 0.0
H1185 H 0.25548 0.06482 0.51522 0.0
H1186 H 0.3281 1.01557 0.52665 0.0
H1187 H 0.3635 0.06356 0.55803 0.0
C1188 C 0.24667 0.94263 0.48116 0.0
C1189 C 0.2375 0.95398 0.45877 0.0
C1190 C 0.26127 0.96837 0.50118 0.0
C1191 C 0.26696 1.0059 0.49915 0.0
C1192 C 0.2548 1.01581 0.47735 0.0
C1193 C 0.24025 0.99021 0.45752 0.0
C1194 C 0.30049 0.0929 0.54189 0.0
C1195 C 0.33083 0.09278 0.55455 0.0
C1196 C 0.27936 0.06453 0.52416 0.0
C1197 C 0.28832 0.03561 0.51858 0.0
C1198 C 0.31945 0.03644 0.53085 0.0
C1199 C 0.34022 0.06445 0.54861 0.0
loop_
_geom_bond_atom_site_label_1
_geom_bond_atom_site_label_2
_geom_bond_distance
_geom_bond_site_symmetry_2
_ccdc_geom_bond_type
Tb0 C9 2.764 . S
Tb0 O10 2.325 . S
Tb0 O13 2.303 . S
Tb0 O17 2.322 . S
Tb0 O18 2.349 . S
Tb0 O21 2.415 . S
Tb0 O22 2.399 . S
Tb1 O11 2.322 . S
Tb1 O12 2.349 . S
Tb1 O14 2.415 . S
Tb1 O15 2.399 . S
Tb1 O16 2.325 . S
Tb1 O19 2.303 . S
Tb1 C30 2.764 . S
C2 O18 1.261 . S
C2 O19 1.257 . S
C3 C6 1.358 . S
C3 C7 1.332 . S
C3 C9 1.504 . S
C4 C5 1.373 . S
C4 C8 1.308 . S
C5 C4 1.373 . S
C5 C6 1.429 . S
C5 H32 0.932 . S
C6 C3 1.358 . S
C6 C5 1.429 . S
C6 H33 0.930 . S
C7 C3 1.332 . S
C7 C8 1.394 . S
C7 H34 0.932 . S
C8 C4 1.308 . S
C8 C7 1.394 . S
C8 H35 0.929 . S
C9 Tb0 2.764 . S
C9 C3 1.504 . S
C9 O21 1.239 . S
C9 O22 1.263 . S
O10 Tb0 2.325 . S
O10 C20 1.236 . S
O11 Tb1 2.322 . S
O11 C20 1.257 . S
O12 Tb1 2.349 . S
O12 C23 1.261 . S
O13 Tb0 2.303 . S
O13 C23 1.257 . S
O14 Tb1 2.415 . S
O14 C30 1.239 . S
O15 Tb1 2.399 . S
O15 C30 1.263 . S
O16 Tb1 2.325 . S
O16 C31 1.236 . S
O17 Tb0 2.322 . S
O17 C31 1.257 . S
O18 Tb0 2.349 . S
O18 C2 1.261 . S
O19 Tb1 2.303 . S
O19 C2 1.257 . S
C20 O10 1.236 . S
C20 O11 1.257 . S
O21 Tb0 2.415 . S
O21 C9 1.239 . S
O22 Tb0 2.399 . S
O22 C9 1.263 . S
C23 O12 1.261 . S
C23 O13 1.257 . S
C24 C27 1.358 . S
C24 C28 1.332 . S
C24 C30 1.504 . S
C25 C26 1.373 . S
C25 C29 1.308 . S
C26 C25 1.373 . S
C26 C27 1.429 . S
C26 H36 0.932 . S
C27 C24 1.358 . S
C27 C26 1.429 . S
C27 H37 0.930 . S
C28 C24 1.332 . S
C28 C29 1.394 . S
C28 H38 0.932 . S
C29 C25 1.308 . S
C29 C28 1.394 . S
C29 H39 0.929 . S
C30 Tb1 2.764 . S
C30 O14 1.239 . S
C30 O15 1.263 . S
C30 C24 1.504 . S
C31 O16 1.236 . S
C31 O17 1.257 . S
H32 C5 0.932 . S
H33 C6 0.930 . S
H34 C7 0.932 . S
H35 C8 0.929 . S
H36 C26 0.932 . S
H37 C27 0.930 . S
H38 C28 0.932 . S
H39 C29 0.929 . S
Tb40 C49 2.764 . S
Tb40 O50 2.325 . S
Tb40 O53 2.303 . S
Tb40 O57 2.322 . S
Tb40 O58 2.349 . S
Tb40 O61 2.415 . S
Tb40 O62 2.399 . S
Tb41 O51 2.322 . S
Tb41 O52 2.349 . S
Tb41 O54 2.415 . S
Tb41 O55 2.399 . S
Tb41 O56 2.325 . S
Tb41 O59 2.303 . S
Tb41 C70 2.764 . S
C42 O58 1.261 . S
C42 O59 1.257 . S
C43 C46 1.358 . S
C43 C47 1.332 . S
C43 C49 1.504 1_455 S
C44 C45 1.373 . S
C44 C48 1.308 . S
C45 C44 1.373 . S
C45 C46 1.429 . S
C45 H72 0.932 . S
C46 C43 1.358 . S
C46 C45 1.429 . S
C46 H73 0.930 . S
C47 C43 1.332 . S
C47 C48 1.394 . S
C47 H74 0.932 . S
C48 C44 1.308 . S
C48 C47 1.394 . S
C48 H75 0.929 . S
C49 Tb40 2.764 . S
C49 C43 1.504 1_655 S
C49 O61 1.239 . S
C49 O62 1.263 . S
O50 Tb40 2.325 . S
O50 C60 1.236 . S
O51 Tb41 2.322 . S
O51 C60 1.257 . S
O52 Tb41 2.349 . S
O52 C63 1.261 . S
O53 Tb40 2.303 . S
O53 C63 1.257 . S
O54 Tb41 2.415 . S
O54 C70 1.239 . S
O55 Tb41 2.399 . S
O55 C70 1.263 . S
O56 Tb41 2.325 . S
O56 C71 1.236 . S
O57 Tb40 2.322 . S
O57 C71 1.257 . S
O58 Tb40 2.349 . S
O58 C42 1.261 . S
O59 Tb41 2.303 . S
O59 C42 1.257 . S
C60 O50 1.236 . S
C60 O51 1.257 . S
O61 Tb40 2.415 . S
O61 C49 1.239 . S
O62 Tb40 2.399 . S
O62 C49 1.263 . S
C63 O52 1.261 . S
C63 O53 1.257 . S
C64 C67 1.358 . S
C64 C68 1.332 . S
C64 C70 1.504 . S
C65 C66 1.373 . S
C65 C69 1.308 . S
C66 C65 1.373 . S
C66 C67 1.429 . S
C66 H76 0.932 . S
C67 C64 1.358 . S
C67 C66 1.429 . S
C67 H77 0.930 . S
C68 C64 1.332 . S
C68 C69 1.394 . S
C68 H78 0.932 . S
C69 C65 1.308 . S
C69 C68 1.394 . S
C69 H79 0.929 . S
C70 Tb41 2.764 . S
C70 O54 1.239 . S
C70 O55 1.263 . S
C70 C64 1.504 . S
C71 O56 1.236 . S
C71 O57 1.257 . S
H72 C45 0.932 . S
H73 C46 0.930 . S
H74 C47 0.932 . S
H75 C48 0.929 . S
H76 C66 0.932 . S
H77 C67 0.930 . S
H78 C68 0.932 . S
H79 C69 0.929 . S
Tb80 C89 2.764 . S
Tb80 O90 2.325 . S
Tb80 O93 2.303 . S
Tb80 O97 2.322 . S
Tb80 O98 2.349 . S
Tb80 O101 2.415 . S
Tb80 O102 2.399 . S
Tb81 O91 2.322 . S
Tb81 O92 2.349 . S
Tb81 O94 2.415 . S
Tb81 O95 2.399 . S
Tb81 O96 2.325 . S
Tb81 O99 2.303 . S
Tb81 C110 2.764 . S
C82 O98 1.261 . S
C82 O99 1.257 . S
C83 C86 1.358 . S
C83 C87 1.332 . S
C83 C89 1.504 1_545 S
C84 C85 1.373 . S
C84 C88 1.308 . S
C85 C84 1.373 . S
C85 C86 1.429 . S
C85 H112 0.932 . S
C86 C83 1.358 . S
C86 C85 1.429 . S
C86 H113 0.930 . S
C87 C83 1.332 . S
C87 C88 1.394 . S
C87 H114 0.932 . S
C88 C84 1.308 . S
C88 C87 1.394 . S
C88 H115 0.929 . S
C89 Tb80 2.764 . S
C89 C83 1.504 1_565 S
C89 O101 1.239 . S
C89 O102 1.263 . S
O90 Tb80 2.325 . S
O90 C100 1.236 . S
O91 Tb81 2.322 . S
O91 C100 1.257 . S
O92 Tb81 2.349 . S
O92 C103 1.261 . S
O93 Tb80 2.303 . S
O93 C103 1.257 . S
O94 Tb81 2.415 . S
O94 C110 1.239 . S
O95 Tb81 2.399 . S
O95 C110 1.263 . S
O96 Tb81 2.325 . S
O96 C111 1.236 . S
O97 Tb80 2.322 . S
O97 C111 1.257 . S
O98 Tb80 2.349 . S
O98 C82 1.261 . S
O99 Tb81 2.303 . S
O99 C82 1.257 . S
C100 O90 1.236 . S
C100 O91 1.257 . S
O101 Tb80 2.415 . S
O101 C89 1.239 . S
O102 Tb80 2.399 . S
O102 C89 1.263 . S
C103 O92 1.261 . S
C103 O93 1.257 . S
C104 C107 1.358 . S
C104 C108 1.332 . S
C104 C110 1.504 . S
C105 C106 1.373 . S
C105 C109 1.308 . S
C106 C105 1.373 . S
C106 C107 1.429 . S
C106 H116 0.932 . S
C107 C104 1.358 . S
C107 C106 1.429 . S
C107 H117 0.930 . S
C108 C104 1.332 . S
C108 C109 1.394 . S
C108 H118 0.932 . S
C109 C105 1.308 . S
C109 C108 1.394 . S
C109 H119 0.929 . S
C110 Tb81 2.764 . S
C110 O94 1.239 . S
C110 O95 1.263 . S
C110 C104 1.504 . S
C111 O96 1.236 . S
C111 O97 1.257 . S
H112 C85 0.932 . S
H113 C86 0.930 . S
H114 C87 0.932 . S
H115 C88 0.929 . S
H116 C106 0.932 . S
H117 C107 0.930 . S
H118 C108 0.932 . S
H119 C109 0.929 . S
Tb120 C129 2.764 . S
Tb120 O130 2.325 . S
Tb120 O133 2.303 . S
Tb120 O137 2.322 . S
Tb120 O138 2.349 . S
Tb120 O141 2.415 . S
Tb120 O142 2.399 . S
Tb121 O131 2.322 . S
Tb121 O132 2.349 . S
Tb121 O134 2.415 . S
Tb121 O135 2.399 . S
Tb121 O136 2.325 . S
Tb121 O139 2.303 . S
Tb121 C150 2.764 . S
C122 O138 1.261 . S
C122 O139 1.257 . S
C123 C126 1.358 . S
C123 C127 1.332 . S
C123 C129 1.504 . S
C124 C125 1.373 . S
C124 C128 1.308 . S
C125 C124 1.373 . S
C125 C126 1.429 . S
C125 H152 0.932 . S
C126 C123 1.358 . S
C126 C125 1.429 . S
C126 H153 0.930 . S
C127 C123 1.332 . S
C127 C128 1.394 . S
C127 H154 0.932 . S
C128 C124 1.308 . S
C128 C127 1.394 . S
C128 H155 0.929 . S
C129 Tb120 2.764 . S
C129 C123 1.504 . S
C129 O141 1.239 . S
C129 O142 1.263 . S
O130 Tb120 2.325 . S
O130 C140 1.236 . S
O131 Tb121 2.322 . S
O131 C140 1.257 . S
O132 Tb121 2.349 . S
O132 C143 1.261 . S
O133 Tb120 2.303 . S
O133 C143 1.257 . S
O134 Tb121 2.415 . S
O134 C150 1.239 . S
O135 Tb121 2.399 . S
O135 C150 1.263 . S
O136 Tb121 2.325 . S
O136 C151 1.236 . S
O137 Tb120 2.322 . S
O137 C151 1.257 . S
O138 Tb120 2.349 . S
O138 C122 1.261 . S
O139 Tb121 2.303 . S
O139 C122 1.257 . S
C140 O130 1.236 . S
C140 O131 1.257 . S
O141 Tb120 2.415 . S
O141 C129 1.239 . S
O142 Tb120 2.399 . S
O142 C129 1.263 . S
C143 O132 1.261 . S
C143 O133 1.257 . S
C144 C147 1.358 . S
C144 C148 1.332 . S
C144 C150 1.504 . S
C145 C146 1.373 . S
C145 C149 1.308 . S
C146 C145 1.373 . S
C146 C147 1.429 . S
C146 H156 0.932 . S
C147 C144 1.358 . S
C147 C146 1.429 . S
C147 H157 0.930 . S
C148 C144 1.332 . S
C148 C149 1.394 . S
C148 H158 0.932 . S
C149 C145 1.308 . S
C149 C148 1.394 . S
C149 H159 0.929 . S
C150 Tb121 2.764 . S
C150 O134 1.239 . S
C150 O135 1.263 . S
C150 C144 1.504 . S
C151 O136 1.236 . S
C151 O137 1.257 . S
H152 C125 0.932 . S
H153 C126 0.930 . S
H154 C127 0.932 . S
H155 C128 0.929 . S
H156 C146 0.932 . S
H157 C147 0.930 . S
H158 C148 0.932 . S
H159 C149 0.929 . S
Tb160 C169 2.764 . S
Tb160 O170 2.325 . S
Tb160 O173 2.303 . S
Tb160 O177 2.322 . S
Tb160 O178 2.349 . S
Tb160 O181 2.415 . S
Tb160 O182 2.399 . S
Tb161 O171 2.322 . S
Tb161 O172 2.349 . S
Tb161 O174 2.415 . S
Tb161 O175 2.399 . S
Tb161 O176 2.325 . S
Tb161 O179 2.303 . S
Tb161 C190 2.764 . S
C162 O178 1.261 . S
C162 O179 1.257 . S
C163 C166 1.358 . S
C163 C167 1.332 . S
C163 C169 1.504 1_655 S
C164 C165 1.373 . S
C164 C168 1.308 . S
C165 C164 1.373 . S
C165 C166 1.429 . S
C165 H192 0.932 . S
C166 C163 1.358 . S
C166 C165 1.429 . S
C166 H193 0.930 . S
C167 C163 1.332 . S
C167 C168 1.394 . S
C167 H194 0.932 . S
C168 C164 1.308 . S
C168 C167 1.394 . S
C168 H195 0.929 . S
C169 Tb160 2.764 . S
C169 C163 1.504 1_455 S
C169 O181 1.239 . S
C169 O182 1.263 . S
O170 Tb160 2.325 . S
O170 C180 1.236 . S
O171 Tb161 2.322 . S
O171 C180 1.257 . S
O172 Tb161 2.349 . S
O172 C183 1.261 . S
O173 Tb160 2.303 . S
O173 C183 1.257 . S
O174 Tb161 2.415 . S
O174 C190 1.239 . S
O175 Tb161 2.399 . S
O175 C190 1.263 . S
O176 Tb161 2.325 . S
O176 C191 1.236 . S
O177 Tb160 2.322 . S
O177 C191 1.257 . S
O178 Tb160 2.349 . S
O178 C162 1.261 . S
O179 Tb161 2.303 . S
O179 C162 1.257 . S
C180 O170 1.236 . S
C180 O171 1.257 . S
O181 Tb160 2.415 . S
O181 C169 1.239 . S
O182 Tb160 2.399 . S
O182 C169 1.263 . S
C183 O172 1.261 . S
C183 O173 1.257 . S
C184 C187 1.358 . S
C184 C188 1.332 . S
C184 C190 1.504 . S
C185 C186 1.373 . S
C185 C189 1.308 . S
C186 C185 1.373 . S
C186 C187 1.429 . S
C186 H196 0.932 . S
C187 C184 1.358 . S
C187 C186 1.429 . S
C187 H197 0.930 . S
C188 C184 1.332 . S
C188 C189 1.394 . S
C188 H198 0.932 . S
C189 C185 1.308 . S
C189 C188 1.394 . S
C189 H199 0.929 . S
C190 Tb161 2.764 . S
C190 O174 1.239 . S
C190 O175 1.263 . S
C190 C184 1.504 . S
C191 O176 1.236 . S
C191 O177 1.257 . S
H192 C165 0.932 . S
H193 C166 0.930 . S
H194 C167 0.932 . S
H195 C168 0.929 . S
H196 C186 0.932 . S
H197 C187 0.930 . S
H198 C188 0.932 . S
H199 C189 0.929 . S
Tb200 C209 2.764 . S
Tb200 O210 2.325 . S
Tb200 O213 2.303 . S
Tb200 O217 2.322 . S
Tb200 O218 2.349 . S
Tb200 O221 2.415 . S
Tb200 O222 2.399 . S
Tb201 O211 2.322 . S
Tb201 O212 2.349 . S
Tb201 O214 2.415 . S
Tb201 O215 2.399 . S
Tb201 O216 2.325 . S
Tb201 O219 2.303 . S
Tb201 C230 2.764 . S
C202 O218 1.261 . S
C202 O219 1.257 . S
C203 C206 1.358 . S
C203 C207 1.332 . S
C203 C209 1.504 1_565 S
C204 C205 1.373 . S
C204 C208 1.308 . S
C205 C204 1.373 . S
C205 C206 1.429 . S
C205 H232 0.932 . S
C206 C203 1.358 . S
C206 C205 1.429 . S
C206 H233 0.930 . S
C207 C203 1.332 . S
C207 C208 1.394 . S
C207 H234 0.932 . S
C208 C204 1.308 . S
C208 C207 1.394 . S
C208 H235 0.929 . S
C209 Tb200 2.764 . S
C209 C203 1.504 1_545 S
C209 O221 1.239 . S
C209 O222 1.263 . S
O210 Tb200 2.325 . S
O210 C220 1.236 . S
O211 Tb201 2.322 . S
O211 C220 1.257 . S
O212 Tb201 2.349 . S
O212 C223 1.261 . S
O213 Tb200 2.303 . S
O213 C223 1.257 . S
O214 Tb201 2.415 . S
O214 C230 1.239 . S
O215 Tb201 2.399 . S
O215 C230 1.263 . S
O216 Tb201 2.325 . S
O216 C231 1.236 . S
O217 Tb200 2.322 . S
O217 C231 1.257 . S
O218 Tb200 2.349 . S
O218 C202 1.261 . S
O219 Tb201 2.303 . S
O219 C202 1.257 . S
C220 O210 1.236 . S
C220 O211 1.257 . S
O221 Tb200 2.415 . S
O221 C209 1.239 . S
O222 Tb200 2.399 . S
O222 C209 1.263 . S
C223 O212 1.261 . S
C223 O213 1.257 . S
C224 C227 1.358 . S
C224 C228 1.332 . S
C224 C230 1.504 . S
C225 C226 1.373 . S
C225 C229 1.308 . S
C226 C225 1.373 . S
C226 C227 1.429 . S
C226 H236 0.932 . S
C227 C224 1.358 . S
C227 C226 1.429 . S
C227 H237 0.930 . S
C228 C224 1.332 . S
C228 C229 1.394 . S
C228 H238 0.932 . S
C229 C225 1.308 . S
C229 C228 1.394 . S
C229 H239 0.929 . S
C230 Tb201 2.764 . S
C230 O214 1.239 . S
C230 O215 1.263 . S
C230 C224 1.504 . S
C231 O216 1.236 . S
C231 O217 1.257 . S
H232 C205 0.932 . S
H233 C206 0.930 . S
H234 C207 0.932 . S
H235 C208 0.929 . S
H236 C226 0.932 . S
H237 C227 0.930 . S
H238 C228 0.932 . S
H239 C229 0.929 . S
Tb240 C249 2.764 . S
Tb240 O250 2.325 . S
Tb240 O253 2.303 . S
Tb240 O257 2.322 . S
Tb240 O258 2.349 . S
Tb240 O261 2.415 . S
Tb240 O262 2.399 . S
Tb241 O251 2.322 . S
Tb241 O252 2.349 . S
Tb241 O254 2.415 . S
Tb241 O255 2.399 . S
Tb241 O256 2.325 . S
Tb241 O259 2.303 . S
Tb241 C270 2.764 . S
C242 O258 1.261 . S
C242 O259 1.257 . S
C243 C246 1.358 . S
C243 C247 1.332 . S
C243 C249 1.504 . S
C244 C245 1.373 . S
C244 C248 1.308 . S
C245 C244 1.373 . S
C245 C246 1.429 . S
C245 H272 0.932 . S
C246 C243 1.358 . S
C246 C245 1.429 . S
C246 H273 0.930 . S
C247 C243 1.332 . S
C247 C248 1.394 . S
C247 H274 0.932 . S
C248 C244 1.308 . S
C248 C247 1.394 . S
C248 H275 0.929 . S
C249 Tb240 2.764 . S
C249 C243 1.504 . S
C249 O261 1.239 . S
C249 O262 1.263 . S
O250 Tb240 2.325 . S
O250 C260 1.236 . S
O251 Tb241 2.322 . S
O251 C260 1.257 . S
O252 Tb241 2.349 . S
O252 C263 1.261 . S
O253 Tb240 2.303 . S
O253 C263 1.257 . S
O254 Tb241 2.415 . S
O254 C270 1.239 . S
O255 Tb241 2.399 . S
O255 C270 1.263 . S
O256 Tb241 2.325 . S
O256 C271 1.236 . S
O257 Tb240 2.322 . S
O257 C271 1.257 . S
O258 Tb240 2.349 . S
O258 C242 1.261 . S
O259 Tb241 2.303 . S
O259 C242 1.257 . S
C260 O250 1.236 . S
C260 O251 1.257 . S
O261 Tb240 2.415 . S
O261 C249 1.239 . S
O262 Tb240 2.399 . S
O262 C249 1.263 . S
C263 O252 1.261 . S
C263 O253 1.257 . S
C264 C267 1.358 . S
C264 C268 1.332 . S
C264 C270 1.504 . S
C265 C266 1.373 . S
C265 C269 1.308 . S
C266 C265 1.373 . S
C266 C267 1.429 . S
C266 H276 0.932 . S
C267 C264 1.358 . S
C267 C266 1.429 . S
C267 H277 0.930 . S
C268 C264 1.332 . S
C268 C269 1.394 . S
C268 H278 0.932 . S
C269 C265 1.308 . S
C269 C268 1.394 . S
C269 H279 0.929 . S
C270 Tb241 2.764 . S
C270 O254 1.239 . S
C270 O255 1.263 . S
C270 C264 1.504 . S
C271 O256 1.236 . S
C271 O257 1.257 . S
H272 C245 0.932 . S
H273 C246 0.930 . S
H274 C247 0.932 . S
H275 C248 0.929 . S
H276 C266 0.932 . S
H277 C267 0.930 . S
H278 C268 0.932 . S
H279 C269 0.929 . S
Tb280 C289 2.764 . S
Tb280 O290 2.325 . S
Tb280 O293 2.303 . S
Tb280 O297 2.322 . S
Tb280 O298 2.349 . S
Tb280 O301 2.415 . S
Tb280 O302 2.399 . S
Tb281 O291 2.322 . S
Tb281 O292 2.349 . S
Tb281 O294 2.415 . S
Tb281 O295 2.399 . S
Tb281 O296 2.325 . S
Tb281 O299 2.303 . S
Tb281 C310 2.764 . S
C282 O298 1.261 . S
C282 O299 1.257 . S
C283 C286 1.358 . S
C283 C287 1.332 . S
C283 C289 1.504 1_455 S
C284 C285 1.373 . S
C284 C288 1.308 . S
C285 C284 1.373 . S
C285 C286 1.429 . S
C285 H312 0.932 . S
C286 C283 1.358 . S
C286 C285 1.429 . S
C286 H313 0.930 . S
C287 C283 1.332 . S
C287 C288 1.394 . S
C287 H314 0.932 . S
C288 C284 1.308 . S
C288 C287 1.394 . S
C288 H315 0.929 . S
C289 Tb280 2.764 . S
C289 C283 1.504 1_655 S
C289 O301 1.239 . S
C289 O302 1.263 . S
O290 Tb280 2.325 . S
O290 C300 1.236 . S
O291 Tb281 2.322 . S
O291 C300 1.257 . S
O292 Tb281 2.349 . S
O292 C303 1.261 . S
O293 Tb280 2.303 . S
O293 C303 1.257 . S
O294 Tb281 2.415 . S
O294 C310 1.239 . S
O295 Tb281 2.399 . S
O295 C310 1.263 . S
O296 Tb281 2.325 . S
O296 C311 1.236 . S
O297 Tb280 2.322 . S
O297 C311 1.257 . S
O298 Tb280 2.349 . S
O298 C282 1.261 . S
O299 Tb281 2.303 . S
O299 C282 1.257 . S
C300 O290 1.236 . S
C300 O291 1.257 . S
O301 Tb280 2.415 . S
O301 C289 1.239 . S
O302 Tb280 2.399 . S
O302 C289 1.263 . S
C303 O292 1.261 . S
C303 O293 1.257 . S
C304 C307 1.358 . S
C304 C308 1.332 . S
C304 C310 1.504 . S
C305 C306 1.373 . S
C305 C309 1.308 . S
C306 C305 1.373 . S
C306 C307 1.429 . S
C306 H316 0.932 . S
C307 C304 1.358 . S
C307 C306 1.429 . S
C307 H317 0.930 . S
C308 C304 1.332 . S
C308 C309 1.394 . S
C308 H318 0.932 . S
C309 C305 1.308 . S
C309 C308 1.394 . S
C309 H319 0.929 . S
C310 Tb281 2.764 . S
C310 O294 1.239 . S
C310 O295 1.263 . S
C310 C304 1.504 . S
C311 O296 1.236 . S
C311 O297 1.257 . S
H312 C285 0.932 . S
H313 C286 0.930 . S
H314 C287 0.932 . S
H315 C288 0.929 . S
H316 C306 0.932 . S
H317 C307 0.930 . S
H318 C308 0.932 . S
H319 C309 0.929 . S
Tb320 C329 2.764 . S
Tb320 O330 2.325 . S
Tb320 O333 2.303 . S
Tb320 O337 2.322 . S
Tb320 O338 2.349 . S
Tb320 O341 2.415 . S
Tb320 O342 2.399 . S
Tb321 O331 2.322 . S
Tb321 O332 2.349 . S
Tb321 O334 2.415 . S
Tb321 O335 2.399 . S
Tb321 O336 2.325 . S
Tb321 O339 2.303 . S
Tb321 C350 2.764 . S
C322 O338 1.261 . S
C322 O339 1.257 . S
C323 C326 1.358 . S
C323 C327 1.332 . S
C323 C329 1.504 1_545 S
C324 C325 1.373 . S
C324 C328 1.308 . S
C325 C324 1.373 . S
C325 C326 1.429 . S
C325 H352 0.932 . S
C326 C323 1.358 . S
C326 C325 1.429 . S
C326 H353 0.930 . S
C327 C323 1.332 . S
C327 C328 1.394 . S
C327 H354 0.932 . S
C328 C324 1.308 . S
C328 C327 1.394 . S
C328 H355 0.929 . S
C329 Tb320 2.764 . S
C329 C323 1.504 1_565 S
C329 O341 1.239 . S
C329 O342 1.263 . S
O330 Tb320 2.325 . S
O330 C340 1.236 . S
O331 Tb321 2.322 . S
O331 C340 1.257 . S
O332 Tb321 2.349 . S
O332 C343 1.261 . S
O333 Tb320 2.303 . S
O333 C343 1.257 . S
O334 Tb321 2.415 . S
O334 C350 1.239 . S
O335 Tb321 2.399 . S
O335 C350 1.263 . S
O336 Tb321 2.325 . S
O336 C351 1.236 . S
O337 Tb320 2.322 . S
O337 C351 1.257 . S
O338 Tb320 2.349 . S
O338 C322 1.261 . S
O339 Tb321 2.303 . S
O339 C322 1.257 . S
C340 O330 1.236 . S
C340 O331 1.257 . S
O341 Tb320 2.415 . S
O341 C329 1.239 . S
O342 Tb320 2.399 . S
O342 C329 1.263 . S
C343 O332 1.261 . S
C343 O333 1.257 . S
C344 C347 1.358 . S
C344 C348 1.332 . S
C344 C350 1.504 . S
C345 C346 1.373 . S
C345 C349 1.308 . S
C346 C345 1.373 . S
C346 C347 1.429 . S
C346 H356 0.932 . S
C347 C344 1.358 . S
C347 C346 1.429 . S
C347 H357 0.930 . S
C348 C344 1.332 . S
C348 C349 1.394 . S
C348 H358 0.932 . S
C349 C345 1.308 . S
C349 C348 1.394 . S
C349 H359 0.929 . S
C350 Tb321 2.764 . S
C350 O334 1.239 . S
C350 O335 1.263 . S
C350 C344 1.504 . S
C351 O336 1.236 . S
C351 O337 1.257 . S
H352 C325 0.932 . S
H353 C326 0.930 . S
H354 C327 0.932 . S
H355 C328 0.929 . S
H356 C346 0.932 . S
H357 C347 0.930 . S
H358 C348 0.932 . S
H359 C349 0.929 . S
Tb360 C369 2.764 . S
Tb360 O370 2.325 . S
Tb360 O373 2.303 . S
Tb360 O377 2.322 . S
Tb360 O378 2.349 . S
Tb360 O381 2.415 . S
Tb360 O382 2.399 . S
Tb361 O371 2.322 . S
Tb361 O372 2.349 . S
Tb361 O374 2.415 . S
Tb361 O375 2.399 . S
Tb361 O376 2.325 . S
Tb361 O379 2.303 . S
Tb361 C390 2.764 . S
C362 O378 1.261 . S
C362 O379 1.257 . S
C363 C366 1.358 . S
C363 C367 1.332 . S
C363 C369 1.504 . S
C364 C365 1.373 . S
C364 C368 1.308 . S
C365 C364 1.373 . S
C365 C366 1.429 . S
C365 H392 0.932 . S
C366 C363 1.358 . S
C366 C365 1.429 . S
C366 H393 0.930 . S
C367 C363 1.332 . S
C367 C368 1.394 . S
C367 H394 0.932 . S
C368 C364 1.308 . S
C368 C367 1.394 . S
C368 H395 0.929 . S
C369 Tb360 2.764 . S
C369 C363 1.504 . S
C369 O381 1.239 . S
C369 O382 1.263 . S
O370 Tb360 2.325 . S
O370 C380 1.236 . S
O371 Tb361 2.322 . S
O371 C380 1.257 . S
O372 Tb361 2.349 . S
O372 C383 1.261 . S
O373 Tb360 2.303 . S
O373 C383 1.257 . S
O374 Tb361 2.415 . S
O374 C390 1.239 . S
O375 Tb361 2.399 . S
O375 C390 1.263 . S
O376 Tb361 2.325 . S
O376 C391 1.236 . S
O377 Tb360 2.322 . S
O377 C391 1.257 . S
O378 Tb360 2.349 . S
O378 C362 1.261 . S
O379 Tb361 2.303 . S
O379 C362 1.257 . S
C380 O370 1.236 . S
C380 O371 1.257 . S
O381 Tb360 2.415 . S
O381 C369 1.239 . S
O382 Tb360 2.399 . S
O382 C369 1.263 . S
C383 O372 1.261 . S
C383 O373 1.257 . S
C384 C387 1.358 . S
C384 C388 1.332 . S
C384 C390 1.504 . S
C385 C386 1.373 . S
C385 C389 1.308 . S
C386 C385 1.373 . S
C386 C387 1.429 . S
C386 H396 0.932 . S
C387 C384 1.358 . S
C387 C386 1.429 . S
C387 H397 0.930 . S
C388 C384 1.332 . S
C388 C389 1.394 . S
C388 H398 0.932 . S
C389 C385 1.308 . S
C389 C388 1.394 . S
C389 H399 0.929 . S
C390 Tb361 2.764 . S
C390 O374 1.239 . S
C390 O375 1.263 . S
C390 C384 1.504 . S
C391 O376 1.236 . S
C391 O377 1.257 . S
H392 C365 0.932 . S
H393 C366 0.930 . S
H394 C367 0.932 . S
H395 C368 0.929 . S
H396 C386 0.932 . S
H397 C387 0.930 . S
H398 C388 0.932 . S
H399 C389 0.929 . S
Tb400 C409 2.764 . S
Tb400 O410 2.325 . S
Tb400 O413 2.303 . S
Tb400 O417 2.322 . S
Tb400 O418 2.349 . S
Tb400 O421 2.415 . S
Tb400 O422 2.399 . S
Tb401 O411 2.322 . S
Tb401 O412 2.349 . S
Tb401 O414 2.415 . S
Tb401 O415 2.399 . S
Tb401 O416 2.325 . S
Tb401 O419 2.303 . S
Tb401 C430 2.764 . S
C402 O418 1.261 . S
C402 O419 1.257 . S
C403 C406 1.358 . S
C403 C407 1.332 . S
C403 C409 1.504 1_655 S
C404 C405 1.373 . S
C404 C408 1.308 . S
C405 C404 1.373 . S
C405 C406 1.429 . S
C405 H432 0.932 . S
C406 C403 1.358 . S
C406 C405 1.429 . S
C406 H433 0.930 . S
C407 C403 1.332 . S
C407 C408 1.394 . S
C407 H434 0.932 . S
C408 C404 1.308 . S
C408 C407 1.394 . S
C408 H435 0.929 . S
C409 Tb400 2.764 . S
C409 C403 1.504 1_455 S
C409 O421 1.239 . S
C409 O422 1.263 . S
O410 Tb400 2.325 . S
O410 C420 1.236 . S
O411 Tb401 2.322 . S
O411 C420 1.257 . S
O412 Tb401 2.349 . S
O412 C423 1.261 . S
O413 Tb400 2.303 . S
O413 C423 1.257 . S
O414 Tb401 2.415 . S
O414 C430 1.239 . S
O415 Tb401 2.399 . S
O415 C430 1.263 . S
O416 Tb401 2.325 . S
O416 C431 1.236 . S
O417 Tb400 2.322 . S
O417 C431 1.257 . S
O418 Tb400 2.349 . S
O418 C402 1.261 . S
O419 Tb401 2.303 . S
O419 C402 1.257 . S
C420 O410 1.236 . S
C420 O411 1.257 . S
O421 Tb400 2.415 . S
O421 C409 1.239 . S
O422 Tb400 2.399 . S
O422 C409 1.263 . S
C423 O412 1.261 . S
C423 O413 1.257 . S
C424 C427 1.358 . S
C424 C428 1.332 . S
C424 C430 1.504 . S
C425 C426 1.373 . S
C425 C429 1.308 . S
C426 C425 1.373 . S
C426 C427 1.429 . S
C426 H436 0.932 . S
C427 C424 1.358 . S
C427 C426 1.429 . S
C427 H437 0.930 . S
C428 C424 1.332 . S
C428 C429 1.394 . S
C428 H438 0.932 . S
C429 C425 1.308 . S
C429 C428 1.394 . S
C429 H439 0.929 . S
C430 Tb401 2.764 . S
C430 O414 1.239 . S
C430 O415 1.263 . S
C430 C424 1.504 . S
C431 O416 1.236 . S
C431 O417 1.257 . S
H432 C405 0.932 . S
H433 C406 0.930 . S
H434 C407 0.932 . S
H435 C408 0.929 . S
H436 C426 0.932 . S
H437 C427 0.930 . S
H438 C428 0.932 . S
H439 C429 0.929 . S
Tb440 C449 2.764 . S
Tb440 O450 2.325 . S
Tb440 O453 2.303 . S
Tb440 O457 2.322 . S
Tb440 O458 2.349 . S
Tb440 O461 2.415 . S
Tb440 O462 2.399 . S
Tb441 O451 2.322 . S
Tb441 O452 2.349 . S
Tb441 O454 2.415 . S
Tb441 O455 2.399 . S
Tb441 O456 2.325 . S
Tb441 O459 2.303 . S
Tb441 C470 2.764 . S
C442 O458 1.261 . S
C442 O459 1.257 . S
C443 C446 1.358 . S
C443 C447 1.332 . S
C443 C449 1.504 1_565 S
C444 C445 1.373 . S
C444 C448 1.308 . S
C445 C444 1.373 . S
C445 C446 1.429 . S
C445 H472 0.932 . S
C446 C443 1.358 . S
C446 C445 1.429 . S
C446 H473 0.930 . S
C447 C443 1.332 . S
C447 C448 1.394 . S
C447 H474 0.932 . S
C448 C444 1.308 . S
C448 C447 1.394 . S
C448 H475 0.929 . S
C449 Tb440 2.764 . S
C449 C443 1.504 1_545 S
C449 O461 1.239 . S
C449 O462 1.263 . S
O450 Tb440 2.325 . S
O450 C460 1.236 . S
O451 Tb441 2.322 . S
O451 C460 1.257 . S
O452 Tb441 2.349 . S
O452 C463 1.261 . S
O453 Tb440 2.303 . S
O453 C463 1.257 . S
O454 Tb441 2.415 . S
O454 C470 1.239 . S
O455 Tb441 2.399 . S
O455 C470 1.263 . S
O456 Tb441 2.325 . S
O456 C471 1.236 . S
O457 Tb440 2.322 . S
O457 C471 1.257 . S
O458 Tb440 2.349 . S
O458 C442 1.261 . S
O459 Tb441 2.303 . S
O459 C442 1.257 . S
C460 O450 1.236 . S
C460 O451 1.257 . S
O461 Tb440 2.415 . S
O461 C449 1.239 . S
O462 Tb440 2.399 . S
O462 C449 1.263 . S
C463 O452 1.261 . S
C463 O453 1.257 . S
C464 C467 1.358 . S
C464 C468 1.332 . S
C464 C470 1.504 . S
C465 C466 1.373 . S
C465 C469 1.308 . S
C466 C465 1.373 . S
C466 C467 1.429 . S
C466 H476 0.932 . S
C467 C464 1.358 . S
C467 C466 1.429 . S
C467 H477 0.930 . S
C468 C464 1.332 . S
C468 C469 1.394 . S
C468 H478 0.932 . S
C469 C465 1.308 . S
C469 C468 1.394 . S
C469 H479 0.929 . S
C470 Tb441 2.764 . S
C470 O454 1.239 . S
C470 O455 1.263 . S
C470 C464 1.504 . S
C471 O456 1.236 . S
C471 O457 1.257 . S
H472 C445 0.932 . S
H473 C446 0.930 . S
H474 C447 0.932 . S
H475 C448 0.929 . S
H476 C466 0.932 . S
H477 C467 0.930 . S
H478 C468 0.932 . S
H479 C469 0.929 . S
H480 C488 0.950 . S
H481 C493 0.950 . S
H482 C490 0.950 . S
H483 C492 0.950 . S
H484 C494 0.950 . S
H485 C496 0.950 . S
H486 C498 0.950 . S
H487 C499 0.950 . S
C488 H480 0.950 . S
C488 C489 1.386 . S
C488 C490 1.391 . S
C489 C488 1.386 . S
C489 C493 1.393 . S
C490 H482 0.950 . S
C490 C488 1.391 . S
C490 C491 1.400 . S
C491 C490 1.400 . S
C491 C492 1.398 . S
C491 C497 1.491 1_565 S
C492 H483 0.950 . S
C492 C491 1.398 . S
C492 C493 1.391 . S
C493 H481 0.950 . S
C493 C489 1.393 . S
C493 C492 1.391 . S
C494 H484 0.950 . S
C494 C495 1.386 . S
C494 C496 1.391 . S
C495 C494 1.386 . S
C495 C499 1.393 . S
C496 H485 0.950 . S
C496 C494 1.391 . S
C496 C497 1.400 . S
C497 C491 1.491 1_545 S
C497 C496 1.400 . S
C497 C498 1.398 . S
C498 H486 0.950 . S
C498 C497 1.398 . S
C498 C499 1.391 . S
C499 H487 0.950 . S
C499 C495 1.393 . S
C499 C498 1.391 . S
H500 C508 0.950 . S
H501 C513 0.950 . S
H502 C510 0.950 . S
H503 C512 0.950 . S
H504 C514 0.950 . S
H505 C516 0.950 . S
H506 C518 0.950 . S
H507 C519 0.950 . S
C508 H500 0.950 . S
C508 C509 1.386 . S
C508 C510 1.391 . S
C509 C508 1.386 . S
C509 C513 1.393 . S
C510 H502 0.950 . S
C510 C508 1.391 . S
C510 C511 1.400 . S
C511 C510 1.400 . S
C511 C512 1.398 . S
C511 C517 1.491 . S
C512 H503 0.950 . S
C512 C511 1.398 . S
C512 C513 1.391 . S
C513 H501 0.950 . S
C513 C509 1.393 . S
C513 C512 1.391 . S
C514 H504 0.950 . S
C514 C515 1.386 . S
C514 C516 1.391 . S
C515 C514 1.386 . S
C515 C519 1.393 . S
C516 H505 0.950 . S
C516 C514 1.391 . S
C516 C517 1.400 . S
C517 C511 1.491 . S
C517 C516 1.400 . S
C517 C518 1.398 . S
C518 H506 0.950 . S
C518 C517 1.398 . S
C518 C519 1.391 . S
C519 H507 0.950 . S
C519 C515 1.393 . S
C519 C518 1.391 . S
H520 C528 0.950 . S
H521 C533 0.950 . S
H522 C530 0.950 . S
H523 C532 0.950 . S
H524 C534 0.950 . S
H525 C536 0.950 . S
H526 C538 0.950 . S
H527 C539 0.950 . S
C528 H520 0.950 . S
C528 C529 1.386 . S
C528 C530 1.391 . S
C529 C528 1.386 . S
C529 C533 1.393 . S
C530 H522 0.950 . S
C530 C528 1.391 . S
C530 C531 1.400 . S
C531 C530 1.400 . S
C531 C532 1.398 . S
C531 C537 1.491 1_655 S
C532 H523 0.950 . S
C532 C531 1.398 . S
C532 C533 1.391 . S
C533 H521 0.950 . S
C533 C529 1.393 . S
C533 C532 1.391 . S
C534 H524 0.950 . S
C534 C535 1.386 . S
C534 C536 1.391 . S
C535 C534 1.386 . S
C535 C539 1.393 . S
C536 H525 0.950 . S
C536 C534 1.391 . S
C536 C537 1.400 . S
C537 C531 1.491 1_455 S
C537 C536 1.400 . S
C537 C538 1.398 . S
C538 H526 0.950 . S
C538 C537 1.398 . S
C538 C539 1.391 . S
C539 H527 0.950 . S
C539 C535 1.393 . S
C539 C538 1.391 . S
H540 C548 0.950 . S
H541 C553 0.950 . S
H542 C550 0.950 . S
H543 C552 0.950 . S
H544 C554 0.950 . S
H545 C556 0.950 . S
H546 C558 0.950 . S
H547 C559 0.950 . S
C548 H540 0.950 . S
C548 C549 1.386 . S
C548 C550 1.391 . S
C549 C548 1.386 . S
C549 C553 1.393 . S
C550 H542 0.950 . S
C550 C548 1.391 . S
C550 C551 1.400 . S
C551 C550 1.400 . S
C551 C552 1.398 . S
C551 C557 1.491 1_565 S
C552 H543 0.950 . S
C552 C551 1.398 . S
C552 C553 1.391 . S
C553 H541 0.950 . S
C553 C549 1.393 . S
C553 C552 1.391 . S
C554 H544 0.950 . S
C554 C555 1.386 . S
C554 C556 1.391 . S
C555 C554 1.386 . S
C555 C559 1.393 . S
C556 H545 0.950 . S
C556 C554 1.391 . S
C556 C557 1.400 . S
C557 C551 1.491 1_545 S
C557 C556 1.400 . S
C557 C558 1.398 . S
C558 H546 0.950 . S
C558 C557 1.398 . S
C558 C559 1.391 . S
C559 H547 0.950 . S
C559 C555 1.393 . S
C559 C558 1.391 . S
H560 C568 0.950 . S
H561 C573 0.950 . S
H562 C570 0.950 . S
H563 C572 0.950 . S
H564 C574 0.950 . S
H565 C576 0.950 . S
H566 C578 0.950 . S
H567 C579 0.950 . S
C568 H560 0.950 . S
C568 C569 1.386 . S
C568 C570 1.391 . S
C569 C568 1.386 . S
C569 C573 1.393 . S
C570 H562 0.950 . S
C570 C568 1.391 . S
C570 C571 1.400 . S
C571 C570 1.400 . S
C571 C572 1.398 . S
C571 C577 1.491 . S
C572 H563 0.950 . S
C572 C571 1.398 . S
C572 C573 1.391 . S
C573 H561 0.950 . S
C573 C569 1.393 . S
C573 C572 1.391 . S
C574 H564 0.950 . S
C574 C575 1.386 . S
C574 C576 1.391 . S
C575 C574 1.386 . S
C575 C579 1.393 . S
C576 H565 0.950 . S
C576 C574 1.391 . S
C576 C577 1.400 . S
C577 C571 1.491 . S
C577 C576 1.400 . S
C577 C578 1.398 . S
C578 H566 0.950 . S
C578 C577 1.398 . S
C578 C579 1.391 . S
C579 H567 0.950 . S
C579 C575 1.393 . S
C579 C578 1.391 . S
H580 C588 0.950 . S
H581 C593 0.950 . S
H582 C590 0.950 . S
H583 C592 0.950 . S
H584 C594 0.950 . S
H585 C596 0.950 . S
H586 C598 0.950 . S
H587 C599 0.950 . S
C588 H580 0.950 . S
C588 C589 1.386 . S
C588 C590 1.391 . S
C589 C588 1.386 . S
C589 C593 1.393 . S
C590 H582 0.950 . S
C590 C588 1.391 . S
C590 C591 1.400 . S
C591 C590 1.400 . S
C591 C592 1.398 . S
C591 C597 1.491 1_655 S
C592 H583 0.950 . S
C592 C591 1.398 . S
C592 C593 1.391 . S
C593 H581 0.950 . S
C593 C589 1.393 . S
C593 C592 1.391 . S
C594 H584 0.950 . S
C594 C595 1.386 . S
C594 C596 1.391 . S
C595 C594 1.386 . S
C595 C599 1.393 . S
C596 H585 0.950 . S
C596 C594 1.391 . S
C596 C597 1.400 . S
C597 C591 1.491 1_455 S
C597 C596 1.400 . S
C597 C598 1.398 . S
C598 H586 0.950 . S
C598 C597 1.398 . S
C598 C599 1.391 . S
C599 H587 0.950 . S
C599 C595 1.393 . S
C599 C598 1.391 . S
H600 C608 0.950 . S
H601 C613 0.950 . S
H602 C610 0.950 . S
H603 C612 0.950 . S
H604 C614 0.950 . S
H605 C616 0.950 . S
H606 C618 0.950 . S
H607 C619 0.950 . S
C608 H600 0.950 . S
C608 C609 1.386 . S
C608 C610 1.391 . S
C609 C608 1.386 . S
C609 C613 1.393 . S
C610 H602 0.950 . S
C610 C608 1.391 . S
C610 C611 1.400 . S
C611 C610 1.400 . S
C611 C612 1.398 . S
C611 C617 1.491 1_455 S
C612 H603 0.950 . S
C612 C611 1.398 . S
C612 C613 1.391 . S
C613 H601 0.950 . S
C613 C609 1.393 . S
C613 C612 1.391 . S
C614 H604 0.950 . S
C614 C615 1.386 . S
C614 C616 1.391 . S
C615 C614 1.386 . S
C615 C619 1.393 . S
C616 H605 0.950 . S
C616 C614 1.391 . S
C616 C617 1.400 . S
C617 C611 1.491 1_655 S
C617 C616 1.400 . S
C617 C618 1.398 . S
C618 H606 0.950 . S
C618 C617 1.398 . S
C618 C619 1.391 . S
C619 H607 0.950 . S
C619 C615 1.393 . S
C619 C618 1.391 . S
H620 C628 0.950 . S
H621 C633 0.950 . S
H622 C630 0.950 . S
H623 C632 0.950 . S
H624 C634 0.950 . S
H625 C636 0.950 . S
H626 C638 0.950 . S
H627 C639 0.950 . S
C628 H620 0.950 . S
C628 C629 1.386 . S
C628 C630 1.391 . S
C629 C628 1.386 . S
C629 C633 1.393 . S
C630 H622 0.950 . S
C630 C628 1.391 . S
C630 C631 1.400 . S
C631 C630 1.400 . S
C631 C632 1.398 . S
C631 C637 1.491 1_565 S
C632 H623 0.950 . S
C632 C631 1.398 . S
C632 C633 1.391 . S
C633 H621 0.950 . S
C633 C629 1.393 . S
C633 C632 1.391 . S
C634 H624 0.950 . S
C634 C635 1.386 . S
C634 C636 1.391 . S
C635 C634 1.386 . S
C635 C639 1.393 . S
C636 H625 0.950 . S
C636 C634 1.391 . S
C636 C637 1.400 . S
C637 C631 1.491 1_545 S
C637 C636 1.400 . S
C637 C638 1.398 . S
C638 H626 0.950 . S
C638 C637 1.398 . S
C638 C639 1.391 . S
C639 H627 0.950 . S
C639 C635 1.393 . S
C639 C638 1.391 . S
H640 C648 0.950 . S
H641 C653 0.950 . S
H642 C650 0.950 . S
H643 C652 0.950 . S
H644 C654 0.950 . S
H645 C656 0.950 . S
H646 C658 0.950 . S
H647 C659 0.950 . S
C648 H640 0.950 . S
C648 C649 1.386 . S
C648 C650 1.391 . S
C649 C648 1.386 . S
C649 C653 1.393 . S
C650 H642 0.950 . S
C650 C648 1.391 . S
C650 C651 1.400 . S
C651 C650 1.400 . S
C651 C652 1.398 . S
C651 C657 1.491 . S
C652 H643 0.950 . S
C652 C651 1.398 . S
C652 C653 1.391 . S
C653 H641 0.950 . S
C653 C649 1.393 . S
C653 C652 1.391 . S
C654 H644 0.950 . S
C654 C655 1.386 . S
C654 C656 1.391 . S
C655 C654 1.386 . S
C655 C659 1.393 . S
C656 H645 0.950 . S
C656 C654 1.391 . S
C656 C657 1.400 . S
C657 C651 1.491 . S
C657 C656 1.400 . S
C657 C658 1.398 . S
C658 H646 0.950 . S
C658 C657 1.398 . S
C658 C659 1.391 . S
C659 H647 0.950 . S
C659 C655 1.393 . S
C659 C658 1.391 . S
H660 C668 0.950 . S
H661 C673 0.950 . S
H662 C670 0.950 . S
H663 C672 0.950 . S
H664 C674 0.950 . S
H665 C676 0.950 . S
H666 C678 0.950 . S
H667 C679 0.950 . S
C668 H660 0.950 . S
C668 C669 1.386 . S
C668 C670 1.391 . S
C669 C668 1.386 . S
C669 C673 1.393 . S
C670 H662 0.950 . S
C670 C668 1.391 . S
C670 C671 1.400 . S
C671 C670 1.400 . S
C671 C672 1.398 . S
C671 C677 1.491 1_455 S
C672 H663 0.950 . S
C672 C671 1.398 . S
C672 C673 1.391 . S
C673 H661 0.950 . S
C673 C669 1.393 . S
C673 C672 1.391 . S
C674 H664 0.950 . S
C674 C675 1.386 . S
C674 C676 1.391 . S
C675 C674 1.386 . S
C675 C679 1.393 . S
C676 H665 0.950 . S
C676 C674 1.391 . S
C676 C677 1.400 . S
C677 C671 1.491 1_655 S
C677 C676 1.400 . S
C677 C678 1.398 . S
C678 H666 0.950 . S
C678 C677 1.398 . S
C678 C679 1.391 . S
C679 H667 0.950 . S
C679 C675 1.393 . S
C679 C678 1.391 . S
H680 C688 0.950 . S
H681 C693 0.950 . S
H682 C690 0.950 . S
H683 C692 0.950 . S
H684 C694 0.950 . S
H685 C696 0.950 . S
H686 C698 0.950 . S
H687 C699 0.950 . S
C688 H680 0.950 . S
C688 C689 1.386 . S
C688 C690 1.391 . S
C689 C688 1.386 . S
C689 C693 1.393 . S
C690 H682 0.950 . S
C690 C688 1.391 . S
C690 C691 1.400 . S
C691 C690 1.400 . S
C691 C692 1.398 . S
C691 C697 1.491 1_545 S
C692 H683 0.950 . S
C692 C691 1.398 . S
C692 C693 1.391 . S
C693 H681 0.950 . S
C693 C689 1.393 . S
C693 C692 1.391 . S
C694 H684 0.950 . S
C694 C695 1.386 . S
C694 C696 1.391 . S
C695 C694 1.386 . S
C695 C699 1.393 . S
C696 H685 0.950 . S
C696 C694 1.391 . S
C696 C697 1.400 . S
C697 C691 1.491 1_565 S
C697 C696 1.400 . S
C697 C698 1.398 . S
C698 H686 0.950 . S
C698 C697 1.398 . S
C698 C699 1.391 . S
C699 H687 0.950 . S
C699 C695 1.393 . S
C699 C698 1.391 . S
H700 C708 0.950 . S
H701 C713 0.950 . S
H702 C710 0.950 . S
H703 C712 0.950 . S
H704 C714 0.950 . S
H705 C716 0.950 . S
H706 C718 0.950 . S
H707 C719 0.950 . S
C708 H700 0.950 . S
C708 C709 1.386 . S
C708 C710 1.391 . S
C709 C708 1.386 . S
C709 C713 1.393 . S
C710 H702 0.950 . S
C710 C708 1.391 . S
C710 C711 1.400 . S
C711 C710 1.400 . S
C711 C712 1.398 . S
C711 C717 1.491 . S
C712 H703 0.950 . S
C712 C711 1.398 . S
C712 C713 1.391 . S
C713 H701 0.950 . S
C713 C709 1.393 . S
C713 C712 1.391 . S
C714 H704 0.950 . S
C714 C715 1.386 . S
C714 C716 1.391 . S
C715 C714 1.386 . S
C715 C719 1.393 . S
C716 H705 0.950 . S
C716 C714 1.391 . S
C716 C717 1.400 . S
C717 C711 1.491 . S
C717 C716 1.400 . S
C717 C718 1.398 . S
C718 H706 0.950 . S
C718 C717 1.398 . S
C718 C719 1.391 . S
C719 H707 0.950 . S
C719 C715 1.393 . S
C719 C718 1.391 . S
H720 C728 0.950 . S
H721 C733 0.950 . S
H722 C730 0.950 . S
H723 C732 0.950 . S
H724 C734 0.950 . S
H725 C736 0.950 . S
H726 C738 0.950 . S
H727 C739 0.950 . S
C728 H720 0.950 . S
C728 C729 1.386 . S
C728 C730 1.391 . S
C729 C728 1.386 . S
C729 C733 1.393 . S
C730 H722 0.950 . S
C730 C728 1.391 . S
C730 C731 1.400 . S
C731 C730 1.400 . S
C731 C732 1.398 . S
C731 C737 1.491 . S
C732 H723 0.950 . S
C732 C731 1.398 . S
C732 C733 1.391 . S
C733 H721 0.950 . S
C733 C729 1.393 . S
C733 C732 1.391 . S
C734 H724 0.950 . S
C734 C735 1.386 . S
C734 C736 1.391 . S
C735 C734 1.386 . S
C735 C739 1.393 . S
C736 H725 0.950 . S
C736 C734 1.391 . S
C736 C737 1.400 . S
C737 C731 1.491 . S
C737 C736 1.400 . S
C737 C738 1.398 . S
C738 H726 0.950 . S
C738 C737 1.398 . S
C738 C739 1.391 . S
C739 H727 0.950 . S
C739 C735 1.393 . S
C739 C738 1.391 . S
H740 C748 0.950 . S
H741 C753 0.950 . S
H742 C750 0.950 . S
H743 C752 0.950 . S
H744 C754 0.950 . S
H745 C756 0.950 . S
H746 C758 0.950 . S
H747 C759 0.950 . S
C748 H740 0.950 . S
C748 C749 1.386 . S
C748 C750 1.391 . S
C749 C748 1.386 . S
C749 C753 1.393 . S
C750 H742 0.950 . S
C750 C748 1.391 . S
C750 C751 1.400 . S
C751 C750 1.400 . S
C751 C752 1.398 . S
C751 C757 1.491 . S
C752 H743 0.950 . S
C752 C751 1.398 . S
C752 C753 1.391 . S
C753 H741 0.950 . S
C753 C749 1.393 . S
C753 C752 1.391 . S
C754 H744 0.950 . S
C754 C755 1.386 . S
C754 C756 1.391 . S
C755 C754 1.386 . S
C755 C759 1.393 . S
C756 H745 0.950 . S
C756 C754 1.391 . S
C756 C757 1.400 . S
C757 C751 1.491 . S
C757 C756 1.400 . S
C757 C758 1.398 . S
C758 H746 0.950 . S
C758 C757 1.398 . S
C758 C759 1.391 . S
C759 H747 0.950 . S
C759 C755 1.393 . S
C759 C758 1.391 . S
H760 C768 0.950 . S
H761 C773 0.950 . S
H762 C770 0.950 . S
H763 C772 0.950 . S
H764 C774 0.950 . S
H765 C776 0.950 . S
H766 C778 0.950 . S
H767 C779 0.950 . S
C768 H760 0.950 . S
C768 C769 1.386 . S
C768 C770 1.391 . S
C769 C768 1.386 . S
C769 C773 1.393 . S
C770 H762 0.950 . S
C770 C768 1.391 . S
C770 C771 1.400 . S
C771 C770 1.400 . S
C771 C772 1.398 . S
C771 C777 1.491 . S
C772 H763 0.950 . S
C772 C771 1.398 . S
C772 C773 1.391 . S
C773 H761 0.950 . S
C773 C769 1.393 . S
C773 C772 1.391 . S
C774 H764 0.950 . S
C774 C775 1.386 . S
C774 C776 1.391 . S
C775 C774 1.386 . S
C775 C779 1.393 . S
C776 H765 0.950 . S
C776 C774 1.391 . S
C776 C777 1.400 . S
C777 C771 1.491 . S
C777 C776 1.400 . S
C777 C778 1.398 . S
C778 H766 0.950 . S
C778 C777 1.398 . S
C778 C779 1.391 . S
C779 H767 0.950 . S
C779 C775 1.393 . S
C779 C778 1.391 . S
H780 C788 0.950 . S
H781 C793 0.950 . S
H782 C790 0.950 . S
H783 C792 0.950 . S
H784 C794 0.950 . S
H785 C796 0.950 . S
H786 C798 0.950 . S
H787 C799 0.950 . S
C788 H780 0.950 . S
C788 C789 1.386 . S
C788 C790 1.391 . S
C789 C788 1.386 . S
C789 C793 1.393 . S
C790 H782 0.950 . S
C790 C788 1.391 . S
C790 C791 1.400 . S
C791 C790 1.400 . S
C791 C792 1.398 . S
C791 C797 1.491 . S
C792 H783 0.950 . S
C792 C791 1.398 . S
C792 C793 1.391 . S
C793 H781 0.950 . S
C793 C789 1.393 . S
C793 C792 1.391 . S
C794 H784 0.950 . S
C794 C795 1.386 . S
C794 C796 1.391 . S
C795 C794 1.386 . S
C795 C799 1.393 . S
C796 H785 0.950 . S
C796 C794 1.391 . S
C796 C797 1.400 . S
C797 C791 1.491 . S
C797 C796 1.400 . S
C797 C798 1.398 . S
C798 H786 0.950 . S
C798 C797 1.398 . S
C798 C799 1.391 . S
C799 H787 0.950 . S
C799 C795 1.393 . S
C799 C798 1.391 . S
H800 C808 0.950 . S
H801 C813 0.950 . S
H802 C810 0.950 . S
H803 C812 0.950 . S
H804 C814 0.950 . S
H805 C816 0.950 . S
H806 C818 0.950 . S
H807 C819 0.950 . S
C808 H800 0.950 . S
C808 C809 1.386 . S
C808 C810 1.391 . S
C809 C808 1.386 . S
C809 C813 1.393 . S
C810 H802 0.950 . S
C810 C808 1.391 . S
C810 C811 1.400 . S
C811 C810 1.400 . S
C811 C812 1.398 . S
C811 C817 1.491 . S
C812 H803 0.950 . S
C812 C811 1.398 . S
C812 C813 1.391 . S
C813 H801 0.950 . S
C813 C809 1.393 . S
C813 C812 1.391 . S
C814 H804 0.950 . S
C814 C815 1.386 . S
C814 C816 1.391 . S
C815 C814 1.386 . S
C815 C819 1.393 . S
C816 H805 0.950 . S
C816 C814 1.391 . S
C816 C817 1.400 . S
C817 C811 1.491 . S
C817 C816 1.400 . S
C817 C818 1.398 . S
C818 H806 0.950 . S
C818 C817 1.398 . S
C818 C819 1.391 . S
C819 H807 0.950 . S
C819 C815 1.393 . S
C819 C818 1.391 . S
H820 C828 0.950 . S
H821 C833 0.950 . S
H822 C830 0.950 . S
H823 C832 0.950 . S
H824 C834 0.950 . S
H825 C836 0.950 . S
H826 C838 0.950 . S
H827 C839 0.950 . S
C828 H820 0.950 . S
C828 C829 1.386 . S
C828 C830 1.391 . S
C829 C828 1.386 . S
C829 C833 1.393 . S
C830 H822 0.950 . S
C830 C828 1.391 . S
C830 C831 1.400 . S
C831 C830 1.400 . S
C831 C832 1.398 . S
C831 C837 1.491 . S
C832 H823 0.950 . S
C832 C831 1.398 . S
C832 C833 1.391 . S
C833 H821 0.950 . S
C833 C829 1.393 . S
C833 C832 1.391 . S
C834 H824 0.950 . S
C834 C835 1.386 . S
C834 C836 1.391 . S
C835 C834 1.386 . S
C835 C839 1.393 . S
C836 H825 0.950 . S
C836 C834 1.391 . S
C836 C837 1.400 . S
C837 C831 1.491 . S
C837 C836 1.400 . S
C837 C838 1.398 . S
C838 H826 0.950 . S
C838 C837 1.398 . S
C838 C839 1.391 . S
C839 H827 0.950 . S
C839 C835 1.393 . S
C839 C838 1.391 . S
H840 C848 0.950 . S
H841 C853 0.950 . S
H842 C850 0.950 . S
H843 C852 0.950 . S
H844 C854 0.950 . S
H845 C856 0.950 . S
H846 C858 0.950 . S
H847 C859 0.950 . S
C848 H840 0.950 . S
C848 C849 1.386 . S
C848 C850 1.391 . S
C849 C848 1.386 . S
C849 C853 1.393 . S
C850 H842 0.950 . S
C850 C848 1.391 . S
C850 C851 1.400 . S
C851 C850 1.400 . S
C851 C852 1.398 . S
C851 C857 1.491 . S
C852 H843 0.950 . S
C852 C851 1.398 . S
C852 C853 1.391 . S
C853 H841 0.950 . S
C853 C849 1.393 . S
C853 C852 1.391 . S
C854 H844 0.950 . S
C854 C855 1.386 . S
C854 C856 1.391 . S
C855 C854 1.386 . S
C855 C859 1.393 . S
C856 H845 0.950 . S
C856 C854 1.391 . S
C856 C857 1.400 . S
C857 C851 1.491 . S
C857 C856 1.400 . S
C857 C858 1.398 . S
C858 H846 0.950 . S
C858 C857 1.398 . S
C858 C859 1.391 . S
C859 H847 0.950 . S
C859 C855 1.393 . S
C859 C858 1.391 . S
H860 C868 0.950 . S
H861 C873 0.950 . S
H862 C870 0.950 . S
H863 C872 0.950 . S
H864 C874 0.950 . S
H865 C876 0.950 . S
H866 C878 0.950 . S
H867 C879 0.950 . S
C868 H860 0.950 . S
C868 C869 1.386 . S
C868 C870 1.391 . S
C869 C868 1.386 . S
C869 C873 1.393 . S
C870 H862 0.950 . S
C870 C868 1.391 . S
C870 C871 1.400 . S
C871 C870 1.400 . S
C871 C872 1.398 . S
C871 C877 1.491 . S
C872 H863 0.950 . S
C872 C871 1.398 . S
C872 C873 1.391 . S
C873 H861 0.950 . S
C873 C869 1.393 . S
C873 C872 1.391 . S
C874 H864 0.950 . S
C874 C875 1.386 . S
C874 C876 1.391 . S
C875 C874 1.386 . S
C875 C879 1.393 . S
C876 H865 0.950 . S
C876 C874 1.391 . S
C876 C877 1.400 . S
C877 C871 1.491 . S
C877 C876 1.400 . S
C877 C878 1.398 . S
C878 H866 0.950 . S
C878 C877 1.398 . S
C878 C879 1.391 . S
C879 H867 0.950 . S
C879 C875 1.393 . S
C879 C878 1.391 . S
H880 C888 0.950 . S
H881 C893 0.950 . S
H882 C890 0.950 . S
H883 C892 0.950 . S
H884 C894 0.950 . S
H885 C896 0.950 . S
H886 C898 0.950 . S
H887 C899 0.950 . S
C888 H880 0.950 . S
C888 C889 1.386 . S
C888 C890 1.391 . S
C889 C888 1.386 . S
C889 C893 1.393 . S
C890 H882 0.950 . S
C890 C888 1.391 . S
C890 C891 1.400 . S
C891 C890 1.400 . S
C891 C892 1.398 . S
C891 C897 1.491 . S
C892 H883 0.950 . S
C892 C891 1.398 . S
C892 C893 1.391 . S
C893 H881 0.950 . S
C893 C889 1.393 . S
C893 C892 1.391 . S
C894 H884 0.950 . S
C894 C895 1.386 . S
C894 C896 1.391 . S
C895 C894 1.386 . S
C895 C899 1.393 . S
C896 H885 0.950 . S
C896 C894 1.391 . S
C896 C897 1.400 . S
C897 C891 1.491 . S
C897 C896 1.400 . S
C897 C898 1.398 . S
C898 H886 0.950 . S
C898 C897 1.398 . S
C898 C899 1.391 . S
C899 H887 0.950 . S
C899 C895 1.393 . S
C899 C898 1.391 . S
H900 C908 0.950 . S
H901 C913 0.950 . S
H902 C910 0.950 . S
H903 C912 0.950 . S
H904 C914 0.950 . S
H905 C916 0.950 . S
H906 C918 0.950 . S
H907 C919 0.950 . S
C908 H900 0.950 . S
C908 C909 1.386 . S
C908 C910 1.391 . S
C909 C908 1.386 . S
C909 C913 1.393 . S
C910 H902 0.950 . S
C910 C908 1.391 . S
C910 C911 1.400 . S
C911 C910 1.400 . S
C911 C912 1.398 . S
C911 C917 1.491 . S
C912 H903 0.950 . S
C912 C911 1.398 . S
C912 C913 1.391 . S
C913 H901 0.950 . S
C913 C909 1.393 . S
C913 C912 1.391 . S
C914 H904 0.950 . S
C914 C915 1.386 . S
C914 C916 1.391 . S
C915 C914 1.386 . S
C915 C919 1.393 . S
C916 H905 0.950 . S
C916 C914 1.391 . S
C916 C917 1.400 . S
C917 C911 1.491 . S
C917 C916 1.400 . S
C917 C918 1.398 . S
C918 H906 0.950 . S
C918 C917 1.398 . S
C918 C919 1.391 . S
C919 H907 0.950 . S
C919 C915 1.393 . S
C919 C918 1.391 . S
H920 C928 0.950 . S
H921 C933 0.950 . S
H922 C930 0.950 . S
H923 C932 0.950 . S
H924 C934 0.950 . S
H925 C936 0.950 . S
H926 C938 0.950 . S
H927 C939 0.950 . S
C928 H920 0.950 . S
C928 C929 1.386 . S
C928 C930 1.391 . S
C929 C928 1.386 . S
C929 C933 1.393 . S
C930 H922 0.950 . S
C930 C928 1.391 . S
C930 C931 1.400 . S
C931 C930 1.400 . S
C931 C932 1.398 . S
C931 C937 1.491 . S
C932 H923 0.950 . S
C932 C931 1.398 . S
C932 C933 1.391 . S
C933 H921 0.950 . S
C933 C929 1.393 . S
C933 C932 1.391 . S
C934 H924 0.950 . S
C934 C935 1.386 . S
C934 C936 1.391 . S
C935 C934 1.386 . S
C935 C939 1.393 . S
C936 H925 0.950 . S
C936 C934 1.391 . S
C936 C937 1.400 . S
C937 C931 1.491 . S
C937 C936 1.400 . S
C937 C938 1.398 . S
C938 H926 0.950 . S
C938 C937 1.398 . S
C938 C939 1.391 . S
C939 H927 0.950 . S
C939 C935 1.393 . S
C939 C938 1.391 . S
H940 C948 0.950 . S
H941 C953 0.950 . S
H942 C950 0.950 . S
H943 C952 0.950 . S
H944 C954 0.950 . S
H945 C956 0.950 . S
H946 C958 0.950 . S
H947 C959 0.950 . S
C948 H940 0.950 . S
C948 C949 1.386 . S
C948 C950 1.391 . S
C949 C948 1.386 . S
C949 C953 1.393 . S
C950 H942 0.950 . S
C950 C948 1.391 . S
C950 C951 1.400 . S
C951 C950 1.400 . S
C951 C952 1.398 . S
C951 C957 1.491 . S
C952 H943 0.950 . S
C952 C951 1.398 . S
C952 C953 1.391 . S
C953 H941 0.950 . S
C953 C949 1.393 . S
C953 C952 1.391 . S
C954 H944 0.950 . S
C954 C955 1.386 . S
C954 C956 1.391 . S
C955 C954 1.386 . S
C955 C959 1.393 . S
C956 H945 0.950 . S
C956 C954 1.391 . S
C956 C957 1.400 . S
C957 C951 1.491 . S
C957 C956 1.400 . S
C957 C958 1.398 . S
C958 H946 0.950 . S
C958 C957 1.398 . S
C958 C959 1.391 . S
C959 H947 0.950 . S
C959 C955 1.393 . S
C959 C958 1.391 . S
H960 C968 0.950 . S
H961 C973 0.950 . S
H962 C970 0.950 . S
H963 C972 0.950 . S
H964 C974 0.950 . S
H965 C976 0.950 . S
H966 C978 0.950 . S
H967 C979 0.950 . S
C968 H960 0.950 . S
C968 C969 1.386 . S
C968 C970 1.391 . S
C969 C968 1.386 . S
C969 C973 1.393 . S
C970 H962 0.950 . S
C970 C968 1.391 . S
C970 C971 1.400 . S
C971 C970 1.400 . S
C971 C972 1.398 . S
C971 C977 1.491 . S
C972 H963 0.950 . S
C972 C971 1.398 . S
C972 C973 1.391 . S
C973 H961 0.950 . S
C973 C969 1.393 . S
C973 C972 1.391 . S
C974 H964 0.950 . S
C974 C975 1.386 . S
C974 C976 1.391 . S
C975 C974 1.386 . S
C975 C979 1.393 . S
C976 H965 0.950 . S
C976 C974 1.391 . S
C976 C977 1.400 . S
C977 C971 1.491 . S
C977 C976 1.400 . S
C977 C978 1.398 . S
C978 H966 0.950 . S
C978 C977 1.398 . S
C978 C979 1.391 . S
C979 H967 0.950 . S
C979 C975 1.393 . S
C979 C978 1.391 . S
H980 C988 0.950 . S
H981 C993 0.950 . S
H982 C990 0.950 . S
H983 C992 0.950 . S
H984 C994 0.950 . S
H985 C996 0.950 . S
H986 C998 0.950 . S
H987 C999 0.950 . S
C988 H980 0.950 . S
C988 C989 1.386 . S
C988 C990 1.391 . S
C989 C988 1.386 . S
C989 C993 1.393 . S
C990 H982 0.950 . S
C990 C988 1.391 . S
C990 C991 1.400 . S
C991 C990 1.400 . S
C991 C992 1.398 . S
C991 C997 1.491 . S
C992 H983 0.950 . S
C992 C991 1.398 . S
C992 C993 1.391 . S
C993 H981 0.950 . S
C993 C989 1.393 . S
C993 C992 1.391 . S
C994 H984 0.950 . S
C994 C995 1.386 . S
C994 C996 1.391 . S
C995 C994 1.386 . S
C995 C999 1.393 . S
C996 H985 0.950 . S
C996 C994 1.391 . S
C996 C997 1.400 . S
C997 C991 1.491 . S
C997 C996 1.400 . S
C997 C998 1.398 . S
C998 H986 0.950 . S
C998 C997 1.398 . S
C998 C999 1.391 . S
C999 H987 0.950 . S
C999 C995 1.393 . S
C999 C998 1.391 . S
H1000 C1008 0.950 . S
H1001 C1013 0.950 . S
H1002 C1010 0.950 . S
H1003 C1012 0.950 . S
H1004 C1014 0.950 . S
H1005 C1016 0.950 . S
H1006 C1018 0.950 . S
H1007 C1019 0.950 . S
C1008 H1000 0.950 . S
C1008 C1009 1.386 . S
C1008 C1010 1.391 . S
C1009 C1008 1.386 . S
C1009 C1013 1.393 . S
C1010 H1002 0.950 . S
C1010 C1008 1.391 . S
C1010 C1011 1.400 . S
C1011 C1010 1.400 . S
C1011 C1012 1.398 . S
C1011 C1017 1.491 . S
C1012 H1003 0.950 . S
C1012 C1011 1.398 . S
C1012 C1013 1.391 . S
C1013 H1001 0.950 . S
C1013 C1009 1.393 . S
C1013 C1012 1.391 . S
C1014 H1004 0.950 . S
C1014 C1015 1.386 . S
C1014 C1016 1.391 . S
C1015 C1014 1.386 . S
C1015 C1019 1.393 . S
C1016 H1005 0.950 . S
C1016 C1014 1.391 . S
C1016 C1017 1.400 . S
C1017 C1011 1.491 . S
C1017 C1016 1.400 . S
C1017 C1018 1.398 . S
C1018 H1006 0.950 . S
C1018 C1017 1.398 . S
C1018 C1019 1.391 . S
C1019 H1007 0.950 . S
C1019 C1015 1.393 . S
C1019 C1018 1.391 . S
H1020 C1028 0.950 . S
H1021 C1033 0.950 . S
H1022 C1030 0.950 . S
H1023 C1032 0.950 . S
H1024 C1034 0.950 . S
H1025 C1036 0.950 . S
H1026 C1038 0.950 . S
H1027 C1039 0.950 . S
C1028 H1020 0.950 . S
C1028 C1029 1.386 . S
C1028 C1030 1.391 . S
C1029 C1028 1.386 . S
C1029 C1033 1.393 . S
C1030 H1022 0.950 . S
C1030 C1028 1.391 . S
C1030 C1031 1.400 . S
C1031 C1030 1.400 . S
C1031 C1032 1.398 . S
C1031 C1037 1.491 . S
C1032 H1023 0.950 . S
C1032 C1031 1.398 . S
C1032 C1033 1.391 . S
C1033 H1021 0.950 . S
C1033 C1029 1.393 . S
C1033 C1032 1.391 . S
C1034 H1024 0.950 . S
C1034 C1035 1.386 . S
C1034 C1036 1.391 . S
C1035 C1034 1.386 . S
C1035 C1039 1.393 . S
C1036 H1025 0.950 . S
C1036 C1034 1.391 . S
C1036 C1037 1.400 . S
C1037 C1031 1.491 . S
C1037 C1036 1.400 . S
C1037 C1038 1.398 . S
C1038 H1026 0.950 . S
C1038 C1037 1.398 . S
C1038 C1039 1.391 . S
C1039 H1027 0.950 . S
C1039 C1035 1.393 . S
C1039 C1038 1.391 . S
H1040 C1048 0.950 . S
H1041 C1053 0.950 . S
H1042 C1050 0.950 . S
H1043 C1052 0.950 . S
H1044 C1054 0.950 . S
H1045 C1056 0.950 . S
H1046 C1058 0.950 . S
H1047 C1059 0.950 . S
C1048 H1040 0.950 . S
C1048 C1049 1.386 . S
C1048 C1050 1.391 . S
C1049 C1048 1.386 . S
C1049 C1053 1.393 . S
C1050 H1042 0.950 . S
C1050 C1048 1.391 . S
C1050 C1051 1.400 . S
C1051 C1050 1.400 . S
C1051 C1052 1.398 . S
C1051 C1057 1.491 . S
C1052 H1043 0.950 . S
C1052 C1051 1.398 . S
C1052 C1053 1.391 . S
C1053 H1041 0.950 . S
C1053 C1049 1.393 . S
C1053 C1052 1.391 . S
C1054 H1044 0.950 . S
C1054 C1055 1.386 . S
C1054 C1056 1.391 . S
C1055 C1054 1.386 . S
C1055 C1059 1.393 . S
C1056 H1045 0.950 . S
C1056 C1054 1.391 . S
C1056 C1057 1.400 . S
C1057 C1051 1.491 . S
C1057 C1056 1.400 . S
C1057 C1058 1.398 . S
C1058 H1046 0.950 . S
C1058 C1057 1.398 . S
C1058 C1059 1.391 . S
C1059 H1047 0.950 . S
C1059 C1055 1.393 . S
C1059 C1058 1.391 . S
H1060 C1068 0.950 . S
H1061 C1073 0.950 . S
H1062 C1070 0.950 . S
H1063 C1072 0.950 . S
H1064 C1074 0.950 . S
H1065 C1076 0.950 . S
H1066 C1078 0.950 . S
H1067 C1079 0.950 . S
C1068 H1060 0.950 . S
C1068 C1069 1.386 . S
C1068 C1070 1.391 . S
C1069 C1068 1.386 . S
C1069 C1073 1.393 . S
C1070 H1062 0.950 . S
C1070 C1068 1.391 . S
C1070 C1071 1.400 . S
C1071 C1070 1.400 . S
C1071 C1072 1.398 . S
C1071 C1077 1.491 . S
C1072 H1063 0.950 . S
C1072 C1071 1.398 . S
C1072 C1073 1.391 . S
C1073 H1061 0.950 . S
C1073 C1069 1.393 . S
C1073 C1072 1.391 . S
C1074 H1064 0.950 . S
C1074 C1075 1.386 . S
C1074 C1076 1.391 . S
C1075 C1074 1.386 . S
C1075 C1079 1.393 . S
C1076 H1065 0.950 . S
C1076 C1074 1.391 . S
C1076 C1077 1.400 . S
C1077 C1071 1.491 . S
C1077 C1076 1.400 . S
C1077 C1078 1.398 . S
C1078 H1066 0.950 . S
C1078 C1077 1.398 . S
C1078 C1079 1.391 . S
C1079 H1067 0.950 . S
C1079 C1075 1.393 . S
C1079 C1078 1.391 . S
H1080 C1088 0.950 . S
H1081 C1093 0.950 . S
H1082 C1090 0.950 . S
H1083 C1092 0.950 1_554 S
H1084 C1094 0.950 . S
H1085 C1096 0.950 . S
H1086 C1098 0.950 1_556 S
H1087 C1099 0.950 . S
C1088 H1080 0.950 . S
C1088 C1089 1.386 . S
C1088 C1090 1.391 . S
C1089 C1088 1.386 . S
C1089 C1093 1.393 . S
C1090 H1082 0.950 . S
C1090 C1088 1.391 . S
C1090 C1091 1.400 . S
C1091 C1090 1.400 . S
C1091 C1092 1.398 . S
C1091 C1097 1.491 1_556 S
C1092 H1083 0.950 1_556 S
C1092 C1091 1.398 . S
C1092 C1093 1.391 . S
C1093 H1081 0.950 . S
C1093 C1089 1.393 . S
C1093 C1092 1.391 . S
C1094 H1084 0.950 . S
C1094 C1095 1.386 . S
C1094 C1096 1.391 . S
C1095 C1094 1.386 . S
C1095 C1099 1.393 . S
C1096 H1085 0.950 . S
C1096 C1094 1.391 . S
C1096 C1097 1.400 . S
C1097 C1091 1.491 1_554 S
C1097 C1096 1.400 . S
C1097 C1098 1.398 . S
C1098 H1086 0.950 1_554 S
C1098 C1097 1.398 . S
C1098 C1099 1.391 . S
C1099 H1087 0.950 . S
C1099 C1095 1.393 . S
C1099 C1098 1.391 . S
H1100 C1108 0.950 . S
H1101 C1113 0.950 . S
H1102 C1110 0.950 . S
H1103 C1112 0.950 . S
H1104 C1114 0.950 . S
H1105 C1116 0.950 . S
H1106 C1118 0.950 . S
H1107 C1119 0.950 . S
C1108 H1100 0.950 . S
C1108 C1109 1.386 . S
C1108 C1110 1.391 . S
C1109 C1108 1.386 . S
C1109 C1113 1.393 . S
C1110 H1102 0.950 . S
C1110 C1108 1.391 . S
C1110 C1111 1.400 . S
C1111 C1110 1.400 . S
C1111 C1112 1.398 . S
C1111 C1117 1.491 1_455 S
C1112 H1103 0.950 . S
C1112 C1111 1.398 . S
C1112 C1113 1.391 . S
C1113 H1101 0.950 . S
C1113 C1109 1.393 . S
C1113 C1112 1.391 . S
C1114 H1104 0.950 . S
C1114 C1115 1.386 . S
C1114 C1116 1.391 . S
C1115 C1114 1.386 . S
C1115 C1119 1.393 . S
C1116 H1105 0.950 . S
C1116 C1114 1.391 . S
C1116 C1117 1.400 . S
C1117 C1111 1.491 1_655 S
C1117 C1116 1.400 . S
C1117 C1118 1.398 . S
C1118 H1106 0.950 . S
C1118 C1117 1.398 . S
C1118 C1119 1.391 . S
C1119 H1107 0.950 . S
C1119 C1115 1.393 . S
C1119 C1118 1.391 . S
H1120 C1128 0.950 . S
H1121 C1133 0.950 . S
H1122 C1130 0.950 1_556 S
H1123 C1132 0.950 1_545 S
H1124 C1134 0.950 . S
H1125 C1136 0.950 1_554 S
H1126 C1138 0.950 1_565 S
H1127 C1139 0.950 . S
C1128 H1120 0.950 . S
C1128 C1129 1.386 . S
C1128 C1130 1.391 . S
C1129 C1128 1.386 . S
C1129 C1133 1.393 . S
C1130 H1122 0.950 1_554 S
C1130 C1128 1.391 . S
C1130 C1131 1.400 . S
C1131 C1130 1.400 . S
C1131 C1132 1.398 . S
C1131 C1137 1.491 1_564 S
C1132 H1123 0.950 1_565 S
C1132 C1131 1.398 . S
C1132 C1133 1.391 . S
C1133 H1121 0.950 . S
C1133 C1129 1.393 . S
C1133 C1132 1.391 . S
C1134 H1124 0.950 . S
C1134 C1135 1.386 . S
C1134 C1136 1.391 . S
C1135 C1134 1.386 . S
C1135 C1139 1.393 . S
C1136 H1125 0.950 1_556 S
C1136 C1134 1.391 . S
C1136 C1137 1.400 . S
C1137 C1131 1.491 1_546 S
C1137 C1136 1.400 . S
C1137 C1138 1.398 . S
C1138 H1126 0.950 1_545 S
C1138 C1137 1.398 . S
C1138 C1139 1.391 . S
C1139 H1127 0.950 . S
C1139 C1135 1.393 . S
C1139 C1138 1.391 . S
H1140 C1148 0.950 . S
H1141 C1153 0.950 . S
H1142 C1150 0.950 . S
H1143 C1152 0.950 . S
H1144 C1154 0.950 . S
H1145 C1156 0.950 . S
H1146 C1158 0.950 . S
H1147 C1159 0.950 . S
C1148 H1140 0.950 . S
C1148 C1149 1.386 . S
C1148 C1150 1.391 . S
C1149 C1148 1.386 . S
C1149 C1153 1.393 . S
C1150 H1142 0.950 . S
C1150 C1148 1.391 . S
C1150 C1151 1.400 . S
C1151 C1150 1.400 . S
C1151 C1152 1.398 . S
C1151 C1157 1.491 . S
C1152 H1143 0.950 . S
C1152 C1151 1.398 . S
C1152 C1153 1.391 . S
C1153 H1141 0.950 . S
C1153 C1149 1.393 . S
C1153 C1152 1.391 . S
C1154 H1144 0.950 . S
C1154 C1155 1.386 . S
C1154 C1156 1.391 . S
C1155 C1154 1.386 . S
C1155 C1159 1.393 . S
C1156 H1145 0.950 . S
C1156 C1154 1.391 . S
C1156 C1157 1.400 . S
C1157 C1151 1.491 . S
C1157 C1156 1.400 . S
C1157 C1158 1.398 . S
C1158 H1146 0.950 . S
C1158 C1157 1.398 . S
C1158 C1159 1.391 . S
C1159 H1147 0.950 . S
C1159 C1155 1.393 . S
C1159 C1158 1.391 . S
H1160 C1168 0.950 . S
H1161 C1173 0.950 . S
H1162 C1170 0.950 . S
H1163 C1172 0.950 . S
H1164 C1174 0.950 . S
H1165 C1176 0.950 . S
H1166 C1178 0.950 . S
H1167 C1179 0.950 . S
C1168 H1160 0.950 . S
C1168 C1169 1.386 . S
C1168 C1170 1.391 . S
C1169 C1168 1.386 . S
C1169 C1173 1.393 . S
C1170 H1162 0.950 . S
C1170 C1168 1.391 . S
C1170 C1171 1.400 . S
C1171 C1170 1.400 . S
C1171 C1172 1.398 . S
C1171 C1177 1.491 1_656 S
C1172 H1163 0.950 . S
C1172 C1171 1.398 . S
C1172 C1173 1.391 . S
C1173 H1161 0.950 . S
C1173 C1169 1.393 . S
C1173 C1172 1.391 . S
C1174 H1164 0.950 . S
C1174 C1175 1.386 . S
C1174 C1176 1.391 . S
C1175 C1174 1.386 . S
C1175 C1179 1.393 . S
C1176 H1165 0.950 . S
C1176 C1174 1.391 . S
C1176 C1177 1.400 . S
C1177 C1171 1.491 1_454 S
C1177 C1176 1.400 . S
C1177 C1178 1.398 . S
C1178 H1166 0.950 . S
C1178 C1177 1.398 . S
C1178 C1179 1.391 . S
C1179 H1167 0.950 . S
C1179 C1175 1.393 . S
C1179 C1178 1.391 . S
H1180 C1188 0.950 . S
H1181 C1193 0.950 . S
H1182 C1190 0.950 . S
H1183 C1192 0.950 . S
H1184 C1194 0.950 . S
H1185 C1196 0.950 . S
H1186 C1198 0.950 . S
H1187 C1199 0.950 . S
C1188 H1180 0.950 . S
C1188 C1189 1.386 . S
C1188 C1190 1.391 . S
C1189 C1188 1.386 . S
C1189 C1193 1.393 . S
C1190 H1182 0.950 . S
C1190 C1188 1.391 . S
C1190 C1191 1.400 . S
C1191 C1190 1.400 . S
C1191 C1192 1.398 . S
C1191 C1197 1.491 1_565 S
C1192 H1183 0.950 . S
C1192 C1191 1.398 . S
C1192 C1193 1.391 . S
C1193 H1181 0.950 . S
C1193 C1189 1.393 . S
C1193 C1192 1.391 . S
C1194 H1184 0.950 . S
C1194 C1195 1.386 . S
C1194 C1196 1.391 . S
C1195 C1194 1.386 . S
C1195 C1199 1.393 . S
C1196 H1185 0.950 . S
C1196 C1194 1.391 . S
C1196 C1197 1.400 . S
C1197 C1191 1.491 1_545 S
C1197 C1196 1.400 . S
C1197 C1198 1.398 . S
C1198 H1186 0.950 . S
C1198 C1197 1.398 . S
C1198 C1199 1.391 . S
C1199 H1187 0.950 . S
C1199 C1195 1.393 . S
C1199 C1198 1.391 . S
C489 C180 1.233 . S
C495 C4 1.240 . S
C509 C220 1.231 . S
C515 C44 1.238 . S
C529 C84 1.232 . S
C535 C20 1.223 . S
C549 C124 1.220 . S
C555 C60 1.209 . S
C569 C164 1.225 . S
C575 C100 1.215 . S
C589 C140 1.233 . S
C595 C204 1.240 . S
C609 C340 1.206 . S
C615 C244 1.217 . S
C629 C284 1.239 . S
C635 C380 1.232 . S
C649 C420 1.210 . S
C655 C324 1.220 . S
C669 C364 1.235 . S
C675 C460 1.227 . S
C689 C404 1.228 . S
C695 C260 1.220 . S
C709 C300 1.233 . S
C715 C444 1.240 . S
C729 C191 1.556 . S
C735 C25 1.564 . S
C749 C65 1.567 . S
C755 C231 1.561 . S
C769 C105 1.564 . S
C775 C31 1.556 . S
C789 C145 1.578 . S
C795 C71 1.573 . S
C809 C111 1.557 . S
C815 C185 1.564 . S
C829 C151 1.574 . S
C835 C225 1.579 . S
C849 C351 1.558 . S
C855 C265 1.565 . S
C869 C305 1.574 . S
C875 C391 1.569 . S
C889 C345 1.578 . S
C895 C431 1.573 . S
C909 C471 1.559 . S
C915 C385 1.566 . S
C929 C425 1.566 . S
C935 C271 1.558 . S
C949 C311 1.561 . S
C955 C465 1.567 . S
C969 C402 1.659 . S
C975 C2 1.678 . S
C989 C42 1.678 . S
C995 C442 1.659 . S
C1009 C82 1.678 . S
C1015 C242 1.674 . S
C1029 C122 1.674 . S
C1035 C282 1.678 . S
C1049 C162 1.667 . S
C1055 C322 1.680 . S
C1069 C362 1.653 . S
C1075 C202 1.671 . S
C1089 C383 2.217 . S
C1095 C23 2.215 . S
C1109 C423 2.208 . S
C1115 C63 2.209 . S
C1129 C103 2.208 . S
C1135 C463 2.211 . S
C1149 C143 2.212 . S
C1155 C263 2.208 . S
C1169 C303 2.208 . S
C1175 C183 2.208 . S
C1189 C343 2.208 . S
C1195 C223 2.208 . S
