# Generated by pormake.
# Topology uoq, (4)-cn, num edge types: 1
# Building blocks:
#     Node 0, Type 0, BuildingBlock: ICAMEG_clean_sbu_1, # of connection points: 4
#     Node 1, Type 0, BuildingBlock: ICAMEG_clean_sbu_1, # of connection points: 4
#     Node 2, Type 0, BuildingBlock: ICAMEG_clean_sbu_1, # of connection points: 4
#     Node 3, Type 0, BuildingBlock: ICAMEG_clean_sbu_1, # of connection points: 4
#     Node 4, Type 0, BuildingBlock: ICAMEG_clean_sbu_1, # of connection points: 4
#     Node 5, Type 0, BuildingBlock: ICAMEG_clean_sbu_1, # of connection points: 4
#     Node 6, Type 0, BuildingBlock: ICAMEG_clean_sbu_1, # of connection points: 4
#     Node 7, Type 0, BuildingBlock: ICAMEG_clean_sbu_1, # of connection points: 4
#     Node 8, Type 0, BuildingBlock: ICAMEG_clean_sbu_1, # of connection points: 4
#     Node 9, Type 0, BuildingBlock: ICAMEG_clean_sbu_1, # of connection points: 4
#     Node 10, Type 0, BuildingBlock: ICAMEG_clean_sbu_1, # of connection points: 4
#     Node 11, Type 0, BuildingBlock: ICAMEG_clean_sbu_1, # of connection points: 4
#     Edge 12, Type (0, 0), BuildingBlock: KIFKEQ_clean_linker_1, # of connection points: 2
#     Edge 13, Type (0, 0), BuildingBlock: KIFKEQ_clean_linker_1, # of connection points: 2
#     Edge 14, Type (0, 0), BuildingBlock: KIFKEQ_clean_linker_1, # of connection points: 2
#     Edge 15, Type (0, 0), BuildingBlock: KIFKEQ_clean_linker_1, # of connection points: 2
#     Edge 16, Type (0, 0), BuildingBlock: KIFKEQ_clean_linker_1, # of connection points: 2
#     Edge 17, Type (0, 0), BuildingBlock: KIFKEQ_clean_linker_1, # of connection points: 2
#     Edge 18, Type (0, 0), BuildingBlock: KIFKEQ_clean_linker_1, # of connection points: 2
#     Edge 19, Type (0, 0), BuildingBlock: KIFKEQ_clean_linker_1, # of connection points: 2
#     Edge 20, Type (0, 0), BuildingBlock: KIFKEQ_clean_linker_1, # of connection points: 2
#     Edge 21, Type (0, 0), BuildingBlock: KIFKEQ_clean_linker_1, # of connection points: 2
#     Edge 22, Type (0, 0), BuildingBlock: KIFKEQ_clean_linker_1, # of connection points: 2
#     Edge 23, Type (0, 0), BuildingBlock: KIFKEQ_clean_linker_1, # of connection points: 2
#     Edge 24, Type (0, 0), BuildingBlock: KIFKEQ_clean_linker_1, # of connection points: 2
#     Edge 25, Type (0, 0), BuildingBlock: KIFKEQ_clean_linker_1, # of connection points: 2
#     Edge 26, Type (0, 0), BuildingBlock: KIFKEQ_clean_linker_1, # of connection points: 2
#     Edge 27, Type (0, 0), BuildingBlock: KIFKEQ_clean_linker_1, # of connection points: 2
#     Edge 28, Type (0, 0), BuildingBlock: KIFKEQ_clean_linker_1, # of connection points: 2
#     Edge 29, Type (0, 0), BuildingBlock: KIFKEQ_clean_linker_1, # of connection points: 2
#     Edge 30, Type (0, 0), BuildingBlock: KIFKEQ_clean_linker_1, # of connection points: 2
#     Edge 31, Type (0, 0), BuildingBlock: KIFKEQ_clean_linker_1, # of connection points: 2
#     Edge 32, Type (0, 0), BuildingBlock: KIFKEQ_clean_linker_1, # of connection points: 2
#     Edge 33, Type (0, 0), BuildingBlock: KIFKEQ_clean_linker_1, # of connection points: 2
#     Edge 34, Type (0, 0), BuildingBlock: KIFKEQ_clean_linker_1, # of connection points: 2
#     Edge 35, Type (0, 0), BuildingBlock: KIFKEQ_clean_linker_1, # of connection points: 2
# Relax obj value: 0.257
# Max RMSD: 0.233
# Mean RMSD: 0.233
data_MOF--net-uoq--node1-ICAMEG_clean_sbu_1--edge1-KIFKEQ_clean_linker_1
_symmetry_space_group_name_H-M    P1
_symmetry_Int_Tables_number       1
_symmetry_cell_setting            triclinic
loop_
_symmetry_equiv_pos_as_xyz
'x, y, z'
_cell_length_a     61.159987
_cell_length_b     61.152527
_cell_length_c     24.561703
_cell_angle_alpha  90.003556
_cell_angle_beta   90.164046
_cell_angle_gamma 119.89586
loop_
_atom_site_label
_atom_site_type_symbol
_atom_site_fract_x
_atom_site_fract_y
_atom_site_fract_z
_atom_type_partial_charge
Co0 Co 0.32459 0.44764 0.34512 0.0
Co1 Co 0.33925 0.46192 0.20834 0.0
O2 O 0.31715 0.4553 0.27188 0.0
C3 C 0.31769 0.49146 0.3685 0.0
O4 O 0.33108 0.50326 0.32552 0.0
C5 C 0.28506 0.43108 0.16489 0.0
O6 O 0.27636 0.425 0.21461 0.0
O7 O 0.34151 0.43043 0.22318 0.0
O8 O 0.3373 0.42627 0.31419 0.0
H9 H 0.41536 0.46998 0.11232 0.0
H10 H 0.27346 0.44 0.32514 0.0
O11 O 0.31244 0.46907 0.37957 0.0
H12 H 0.26034 0.3561 0.37403 0.0
H13 H 0.30724 0.42624 0.54413 0.0
H14 H 0.36725 0.44433 0.39401 0.0
H15 H 0.3032 0.39306 0.37137 0.0
H16 H 0.2978 0.43524 0.45187 0.0
O17 O 0.30895 0.44303 0.15688 0.0
H18 H 0.38723 0.46212 0.19059 0.0
H19 H 0.33822 0.47583 0.09182 0.0
H20 H 0.37731 0.43519 0.48553 0.0
H21 H 0.23021 0.40361 0.32818 0.0
H22 H 0.3472 0.42608 0.56139 0.0
H23 H 0.22346 0.36126 0.35251 0.0
O24 O 0.35916 0.47735 0.3432 0.0
H25 H 0.29697 0.51455 0.19553 0.0
H26 H 0.37731 0.51474 0.17888 0.0
H27 H 0.37653 0.55415 0.16403 0.0
H28 H 0.33608 0.55421 0.17197 0.0
H29 H 0.29869 0.47576 0.21106 0.0
H30 H 0.36564 0.48354 1.01238 0.0
H31 H 0.4046 0.48075 0.02239 0.0
O32 O 0.37014 0.48234 0.25498 0.0
C33 C 0.34226 0.42023 0.26836 0.0
C34 C 0.39844 0.47125 0.10744 0.0
C35 C 0.37051 0.47881 0.05133 0.0
N36 N 0.36106 0.46844 0.14586 0.0
C37 C 0.38245 0.46685 0.15164 0.0
C38 C 0.35496 0.47427 0.09643 0.0
C39 C 0.39238 0.47727 0.05699 0.0
C40 C 0.27064 0.42167 0.33618 0.0
N41 N 0.29083 0.41864 0.34772 0.0
C42 C 0.24612 0.40112 0.33764 0.0
C43 C 0.24235 0.37735 0.35121 0.0
C44 C 0.26304 0.37443 0.36319 0.0
C45 C 0.28728 0.39541 0.36128 0.0
C46 C 0.32049 0.43012 0.51139 0.0
C47 C 0.35396 0.4402 0.4267 0.0
C48 C 0.31527 0.43528 0.45906 0.0
N49 N 0.33187 0.44011 0.41746 0.0
C50 C 0.3598 0.43512 0.47849 0.0
C51 C 0.34291 0.43003 0.52104 0.0
C52 C 0.37523 0.48802 0.30533 0.0
C53 C 0.31467 0.51473 0.19151 0.0
C54 C 0.35965 0.51456 0.18263 0.0
C55 C 0.35931 0.53696 0.17401 0.0
C56 C 0.33663 0.53699 0.17844 0.0
N57 N 0.33801 0.49269 0.19495 0.0
C58 C 0.31574 0.49268 0.19981 0.0
Co59 Co 0.87814 0.32549 0.66886 0.0
Co60 Co 0.89377 0.34305 0.53577 0.0
O61 O 0.87064 0.32024 0.59121 0.0
C62 C 0.83195 0.32246 0.71317 0.0
O63 O 0.84587 0.34637 0.72623 0.0
C64 C 0.87408 0.28974 0.49179 0.0
O65 O 0.8775 0.28216 0.53941 0.0
O66 O 0.92241 0.33903 0.5665 0.0
O67 O 0.9148 0.33924 0.6557 0.0
H68 H 0.97563 0.41447 0.46711 0.0
H69 H 0.83829 0.27506 0.63176 0.0
O70 O 0.84136 0.31176 0.68448 0.0
H71 H 0.9021 0.26056 0.72188 0.0
H72 H 0.86318 0.30198 0.86751 0.0
H73 H 0.91685 0.36754 0.7354 0.0
H74 H 0.90789 0.30339 0.71639 0.0
H75 H 0.85463 0.29497 0.76905 0.0
O76 O 0.88198 0.31319 0.48379 0.0
H77 H 0.94598 0.38636 0.53675 0.0
H78 H 0.89063 0.34674 0.41493 0.0
H79 H 0.92618 0.37528 0.83352 0.0
H80 H 0.83154 0.23185 0.63713 0.0
H81 H 0.89922 0.34237 0.90035 0.0
H82 H 0.86364 0.2244 0.68229 0.0
O83 O 0.8833 0.35996 0.66239 0.0
H84 H 0.80447 0.31393 0.47737 0.0
H85 H 0.88961 0.38751 0.50005 0.0
H86 H 0.85517 0.39373 0.46593 0.0
H87 H 0.81224 0.35675 0.45409 0.0
H88 H 0.83936 0.30861 0.51208 0.0
H89 H 0.91976 0.3743 0.34395 0.0
H90 H 0.96258 0.40852 0.3699 0.0
O91 O 0.90447 0.37376 0.584 0.0
C92 C 0.92951 0.34176 0.61658 0.0
C93 C 0.95701 0.39966 0.4553 0.0
C94 C 0.92567 0.37708 0.38617 0.0
N95 N 0.91656 0.36499 0.48 0.0
C96 C 0.94011 0.38371 0.49458 0.0
C97 C 0.90929 0.36147 0.42655 0.0
C98 C 0.94968 0.3963 0.40077 0.0
C99 C 0.8522 0.27193 0.652 0.0
N100 N 0.8734 0.29172 0.67391 0.0
C101 C 0.84834 0.24744 0.65468 0.0
C102 C 0.86638 0.24328 0.67994 0.0
C103 C 0.88798 0.26356 0.70209 0.0
C104 C 0.89121 0.2878 0.69863 0.0
C105 C 0.8751 0.31645 0.83881 0.0
C106 C 0.90509 0.35308 0.7642 0.0
C107 C 0.87036 0.31259 0.78298 0.0
N108 N 0.88529 0.33079 0.74643 0.0
C109 C 0.91045 0.35759 0.81972 0.0
C110 C 0.89531 0.33912 0.85719 0.0
C111 C 0.89638 0.3776 0.62904 0.0
C112 C 0.82311 0.33019 0.4822 0.0
C113 C 0.87098 0.37134 0.49536 0.0
C114 C 0.85155 0.37497 0.47584 0.0
C115 C 0.82748 0.35422 0.46919 0.0
N116 N 0.86661 0.3477 0.50775 0.0
C117 C 0.84299 0.32729 0.50169 0.0
Co118 Co 0.58509 0.88032 0.02646 0.0
Co119 Co 0.57259 0.8805 0.8894 0.0
O120 O 0.57957 0.86558 0.95338 0.0
C121 C 0.54585 0.82733 0.05237 0.0
O122 O 0.53079 0.82803 1.01506 0.0
C123 C 0.60233 0.85578 0.84779 0.0
O124 O 0.60602 0.85086 0.89783 0.0
O125 O 0.60354 0.91441 0.90535 0.0
O126 O 0.60248 0.91496 0.99677 0.0
H127 H 0.5632 0.94755 0.79159 0.0
H128 H 0.601 0.8424 1.00722 0.0
O129 O 0.56788 0.84606 0.0595 0.0
H130 H 0.6787 0.9205 0.05844 0.0
H131 H 0.60685 0.88698 0.22601 0.0
H132 H 0.58024 0.92202 0.07568 0.0
H133 H 0.63793 0.91945 0.05472 0.0
H134 H 0.60092 0.86933 0.13336 0.0
O135 O 0.59237 0.86964 0.83919 0.0
H136 H 0.57096 0.92753 0.87074 0.0
H137 H 0.56042 0.86594 0.77203 0.0
H138 H 0.58617 0.94038 0.16758 0.0
H139 H 0.64136 0.84251 1.0112 0.0
H140 H 0.59954 0.92283 0.24356 0.0
H141 H 0.6806 0.88181 0.03674 0.0
O142 O 0.55254 0.88005 0.02235 0.0
H143 H 0.52006 0.78542 0.88072 0.0
H144 H 0.52024 0.86535 0.85453 0.0
H145 H 0.48116 0.82518 0.83846 0.0
H146 H 0.48089 0.78476 0.85109 0.0
H147 H 0.55848 0.82584 0.89731 0.0
H148 H 0.55288 0.88546 0.69174 0.0
H149 H 0.55411 0.9265 0.70125 0.0
O150 O 0.55134 0.8904 0.93499 0.0
C151 C 0.61044 0.92591 0.95135 0.0
C152 C 0.56258 0.92965 0.78694 0.0
C153 C 0.55685 0.89483 0.73088 0.0
N154 N 0.56612 0.89558 0.82619 0.0
C155 C 0.56691 0.9182 0.83166 0.0
C156 C 0.56128 0.88394 0.77649 0.0
C157 C 0.55751 0.91784 0.73625 0.0
C158 C 0.61798 0.85954 0.01858 0.0
N159 N 0.61711 0.88093 0.03022 0.0
C160 C 0.64079 0.8595 0.02067 0.0
C161 C 0.6628 0.88156 0.03495 0.0
C162 C 0.66175 0.90328 0.04705 0.0
C163 C 0.63861 0.90261 0.04453 0.0
C164 C 0.601 0.89478 0.19325 0.0
C165 C 0.58614 0.91431 0.10846 0.0
C166 C 0.59751 0.88479 0.14074 0.0
N167 N 0.59021 0.8946 0.09911 0.0
C168 C 0.58943 0.92477 0.16045 0.0
C169 C 0.59691 0.9149 0.20307 0.0
C170 C 0.54322 0.88698 0.98406 0.0
C171 C 0.52 0.80291 0.87439 0.0
C172 C 0.52043 0.84794 0.86002 0.0
C173 C 0.49816 0.8252 0.85085 0.0
C174 C 0.49802 0.80254 0.85795 0.0
N175 N 0.54212 0.84827 0.87529 0.0
C176 C 0.54192 0.82603 0.88318 0.0
Co177 Co 0.71123 0.56595 0.33584 0.0
Co178 Co 0.69471 0.5596 0.19975 0.0
O179 O 0.71724 0.56185 0.25936 0.0
C180 C 0.7139 0.52405 0.38889 0.0
O181 O 0.69069 0.51595 0.40522 0.0
C182 C 0.7486 0.59242 0.15915 0.0
O183 O 0.75615 0.60018 0.20903 0.0
O184 O 0.69565 0.59155 0.22525 0.0
O185 O 0.69773 0.58856 0.31636 0.0
H186 H 0.62052 0.56176 0.11718 0.0
H187 H 0.76222 0.57507 0.30714 0.0
O188 O 0.72455 0.54306 0.35713 0.0
H189 H 0.77574 0.65588 0.38103 0.0
H190 H 0.73296 0.57934 0.53578 0.0
H191 H 0.66889 0.56494 0.39644 0.0
H192 H 0.73292 0.61903 0.37519 0.0
H193 H 0.7407 0.57495 0.439 0.0
O194 O 0.72498 0.57873 0.14908 0.0
H195 H 0.64872 0.56407 0.19164 0.0
H196 H 0.69354 0.5506 0.07986 0.0
H197 H 0.66043 0.56932 0.49276 0.0
H198 H 0.80543 0.6113 0.31345 0.0
H199 H 0.69259 0.57656 0.5632 0.0
H200 H 0.8124 0.65212 0.35031 0.0
O201 O 0.67676 0.53654 0.33032 0.0
H202 H 0.73046 0.50317 0.15652 0.0
H203 H 0.65297 0.5089 0.16647 0.0
H204 H 0.65018 0.46889 0.13849 0.0
H205 H 0.68913 0.46587 0.13306 0.0
H206 H 0.73238 0.54269 0.18498 0.0
H207 H 0.66599 0.54837 1.0041 0.0
H208 H 0.6291 0.55387 0.02254 0.0
O209 O 0.66382 0.53909 0.24625 0.0
C210 C 0.69398 0.59824 0.27398 0.0
C211 C 0.63654 0.55934 0.10861 0.0
C212 C 0.66208 0.55187 0.04514 0.0
N213 N 0.6728 0.55756 0.14022 0.0
C214 C 0.65257 0.56063 0.15065 0.0
C215 C 0.6777 0.55328 0.08821 0.0
C216 C 0.64137 0.55493 0.05552 0.0
C217 C 0.76511 0.59266 0.32391 0.0
N218 N 0.74503 0.5949 0.34066 0.0
C219 C 0.78962 0.61317 0.32707 0.0
C220 C 0.79351 0.63608 0.34764 0.0
C221 C 0.77295 0.63821 0.36478 0.0
C222 C 0.74871 0.61731 0.361 0.0
C223 C 0.71882 0.57624 0.50546 0.0
C224 C 0.68302 0.56818 0.42682 0.0
C225 C 0.7231 0.57376 0.45059 0.0
N226 N 0.70529 0.56978 0.41204 0.0
C227 C 0.67811 0.57061 0.48131 0.0
C228 C 0.69616 0.57467 0.52082 0.0
C229 C 0.65963 0.52962 0.29413 0.0
C230 C 0.71337 0.50429 0.15841 0.0
C231 C 0.67002 0.50776 0.16434 0.0
C232 C 0.66832 0.48504 0.14838 0.0
C233 C 0.69017 0.48336 0.14534 0.0
N234 N 0.69287 0.52832 0.17664 0.0
C235 C 0.71435 0.52671 0.17424 0.0
Co236 Co 0.16589 0.7146 0.68 0.0
Co237 Co 0.15294 0.69567 0.5448 0.0
O238 O 0.17467 0.71849 0.60262 0.0
C239 C 0.20811 0.71219 0.73174 0.0
O240 O 0.19101 0.69008 0.75027 0.0
C241 C 0.17421 0.74919 0.50101 0.0
O242 O 0.17563 0.75776 0.55059 0.0
O243 O 0.12258 0.69735 0.5726 0.0
O244 O 0.13038 0.70465 0.66244 0.0
H245 H 0.07511 0.62063 0.46997 0.0
H246 H 0.21041 0.76235 0.64443 0.0
O247 O 0.2016 0.72435 0.69948 0.0
H248 H 0.15185 0.78728 0.72253 0.0
H249 H 0.17939 0.73997 0.87803 0.0
H250 H 0.12303 0.6763 0.7447 0.0
H251 H 0.14082 0.74262 0.72079 0.0
H252 H 0.19028 0.74482 0.78051 0.0
O253 O 0.1634 0.72537 0.49279 0.0
H254 H 0.10259 0.64948 0.54179 0.0
H255 H 0.15809 0.69323 0.42419 0.0
H256 H 0.11138 0.67078 0.84181 0.0
H257 H 0.2225 0.80731 0.64647 0.0
H258 H 0.13967 0.70275 0.90924 0.0
H259 H 0.19304 0.82001 0.6854 0.0
O260 O 0.15667 0.67849 0.67751 0.0
H261 H 0.24392 0.72959 0.49399 0.0
H262 H 0.16054 0.65307 0.51098 0.0
H263 H 0.1968 0.64928 0.48006 0.0
H264 H 0.23886 0.68775 0.47107 0.0
H265 H 0.20729 0.7325 0.52547 0.0
H266 H 0.13116 0.66498 0.35105 0.0
H267 H 0.08935 0.62832 0.37373 0.0
O268 O 0.14323 0.66542 0.59235 0.0
C269 C 0.1158 0.69895 0.6213 0.0
C270 C 0.09324 0.6366 0.45952 0.0
C271 C 0.12468 0.66151 0.39279 0.0
N272 N 0.13178 0.67324 0.48725 0.0
C273 C 0.10886 0.65304 0.50004 0.0
C274 C 0.13978 0.67756 0.43439 0.0
C275 C 0.10124 0.64092 0.40555 0.0
C276 C 0.1976 0.76775 0.66199 0.0
N277 N 0.17483 0.74983 0.68211 0.0
C278 C 0.2045 0.79323 0.66278 0.0
C279 C 0.18794 0.80034 0.68452 0.0
C280 C 0.16481 0.78198 0.70523 0.0
C281 C 0.15854 0.75668 0.7037 0.0
C282 C 0.16689 0.72593 0.84904 0.0
C283 C 0.13541 0.69034 0.77376 0.0
C284 C 0.17295 0.72857 0.79376 0.0
N285 N 0.15726 0.7109 0.75687 0.0
C286 C 0.12872 0.68709 0.82871 0.0
C287 C 0.14461 0.70504 0.86652 0.0
C288 C 0.147 0.66124 0.64146 0.0
C289 C 0.22566 0.7127 0.49742 0.0
C290 C 0.17876 0.66991 0.50733 0.0
C291 C 0.19923 0.66764 0.48969 0.0
C292 C 0.22282 0.68922 0.48465 0.0
N293 N 0.18162 0.69303 0.51933 0.0
C294 C 0.20477 0.71424 0.51496 0.0
Co295 Co 0.46261 0.1468 1.00817 0.0
Co296 Co 0.47363 0.14248 0.8719 0.0
O297 O 0.46777 0.15961 0.93333 0.0
C298 C 0.50389 0.1994 0.02459 0.0
O299 O 0.51622 0.19706 0.98347 0.0
C300 C 0.44147 0.16411 0.82729 0.0
O301 O 0.4345 0.16583 0.87678 0.0
O302 O 0.44215 0.10959 0.89065 0.0
O303 O 0.44326 0.1114 0.98218 0.0
H304 H 0.47953 0.0716 0.78303 0.0
H305 H 0.44931 0.18623 0.98413 0.0
O306 O 0.48207 0.18173 0.03752 0.0
H307 H 0.37006 0.11215 0.04383 0.0
H308 H 0.44463 0.14696 0.20813 0.0
H309 H 0.46541 0.10492 0.06239 0.0
H310 H 0.4095 0.11054 0.04023 0.0
H311 H 0.45012 0.16231 0.11355 0.0
O312 O 0.45445 0.15316 0.81947 0.0
H313 H 0.47274 0.09387 0.85904 0.0
H314 H 0.48651 0.15464 0.75424 0.0
H315 H 0.45987 0.08883 0.15635 0.0
H316 H 0.41036 0.18882 0.98806 0.0
H317 H 0.44941 0.1099 0.23 0.0
H318 H 0.37033 0.15154 0.01781 0.0
O319 O 0.49423 0.14543 1.00502 0.0
H320 H 0.52646 0.23652 0.8463 0.0
H321 H 0.5263 0.15585 0.8441 0.0
H322 H 0.56571 0.19532 0.82494 0.0
H323 H 0.56595 0.23605 0.82563 0.0
H324 H 0.48762 0.19673 0.86612 0.0
H325 H 0.49318 0.13291 0.67701 0.0
H326 H 0.48982 0.09113 0.69119 0.0
O327 O 0.49444 0.13266 0.91954 0.0
C328 C 0.43497 0.09938 0.93775 0.0
C329 C 0.48106 0.0898 0.77634 0.0
C330 C 0.48868 0.12419 0.71682 0.0
N331 N 0.47921 0.12552 0.81117 0.0
C332 C 0.47726 0.10251 0.81925 0.0
C333 C 0.48475 0.13635 0.76068 0.0
C334 C 0.48681 0.10076 0.72481 0.0
C335 C 0.432 0.17001 0.99754 0.0
N336 N 0.43166 0.14823 1.01156 0.0
C337 C 0.40999 0.17155 0.99949 0.0
C338 C 0.38753 0.15062 1.01611 0.0
C339 C 0.38736 0.1285 0.03063 0.0
C340 C 0.40973 0.12765 0.02816 0.0
C341 C 0.44912 0.13758 0.17637 0.0
C342 C 0.46068 0.11409 0.09414 0.0
C343 C 0.45228 0.1462 0.12274 0.0
N344 N 0.45786 0.13438 0.08237 0.0
C345 C 0.45765 0.10493 0.1473 0.0
C346 C 0.4518 0.11678 0.18861 0.0
C347 C 0.50316 0.13748 0.96819 0.0
C348 C 0.52655 0.21887 0.8454 0.0
C349 C 0.52618 0.17345 0.84452 0.0
C350 C 0.54859 0.19576 0.83357 0.0
C351 C 0.54871 0.2186 0.83394 0.0
N352 N 0.50442 0.17378 0.85521 0.0
C353 C 0.5045 0.19618 0.85616 0.0
Co354 Co 0.57091 0.69892 0.36221 0.0
Co355 Co 0.56565 0.68543 0.50086 0.0
O356 O 0.5668 0.706 0.43819 0.0
C357 C 0.52662 0.69623 0.30733 0.0
O358 O 0.52095 0.67357 0.29071 0.0
C359 C 0.59613 0.74055 0.53734 0.0
O360 O 0.59739 0.74798 0.48686 0.0
O361 O 0.59661 0.68453 0.47421 0.0
O362 O 0.59621 0.68917 0.38326 0.0
H363 H 0.56751 0.61249 0.59037 0.0
H364 H 0.57513 0.74858 0.38527 0.0
O365 O 0.54524 0.70846 0.33963 0.0
H366 H 0.6578 0.76833 0.31102 0.0
H367 H 0.58116 0.7165 0.16046 0.0
H368 H 0.57423 0.6578 0.30592 0.0
H369 H 0.62385 0.7242 0.32111 0.0
H370 H 0.57634 0.72537 0.25624 0.0
O371 O 0.58695 0.71701 0.54771 0.0
H372 H 0.56829 0.63863 0.51312 0.0
H373 H 0.56073 0.68854 0.62156 0.0
H374 H 0.57911 0.64825 0.21066 0.0
H375 H 0.60835 0.79299 0.37458 0.0
H376 H 0.58258 0.6777 0.13715 0.0
H377 H 0.65011 0.80311 0.33757 0.0
O378 O 0.54374 0.66331 0.3703 0.0
H379 H 0.51033 0.72343 0.53696 0.0
H380 H 0.5166 0.64626 0.54676 0.0
H381 H 0.47772 0.64505 0.57727 0.0
H382 H 0.47443 0.68389 0.57291 0.0
H383 H 0.5486 0.72373 0.50606 0.0
H384 H 0.56012 0.66311 0.69995 0.0
H385 H 0.56343 0.62471 0.68462 0.0
O386 O 0.54315 0.65355 0.45876 0.0
C387 C 0.60496 0.68467 0.42617 0.0
C388 C 0.56606 0.62918 0.59758 0.0
C389 C 0.56196 0.65762 0.65908 0.0
N390 N 0.56463 0.66512 0.56269 0.0
C391 C 0.56647 0.64404 0.55397 0.0
C392 C 0.56247 0.67203 0.61449 0.0
C393 C 0.56379 0.63606 0.65045 0.0
C394 C 0.59316 0.7528 0.36862 0.0
N395 N 0.59758 0.73376 0.35431 0.0
C396 C 0.61194 0.778 0.36291 0.0
C397 C 0.63538 0.78367 0.34223 0.0
C398 C 0.63973 0.76416 0.32746 0.0
C399 C 0.62049 0.73919 0.33376 0.0
C400 C 0.57969 0.70353 0.19213 0.0
C401 C 0.57578 0.67074 0.27418 0.0
C402 C 0.57696 0.70845 0.24645 0.0
N403 N 0.575 0.69211 0.28669 0.0
C404 C 0.57852 0.66522 0.2203 0.0
C405 C 0.58047 0.68175 0.17908 0.0
C406 C 0.53539 0.64769 0.40962 0.0
C407 C 0.51162 0.70644 0.5396 0.0
C408 C 0.51542 0.66328 0.54472 0.0
C409 C 0.4933 0.66246 0.5621 0.0
C410 C 0.49147 0.68425 0.55964 0.0
N411 N 0.53532 0.68521 0.52582 0.0
C412 C 0.53344 0.70654 0.52254 0.0
Co413 Co 0.89316 0.58216 0.68965 0.0
Co414 Co 0.89503 0.56822 0.82404 0.0
O415 O 0.87892 0.5756 0.76302 0.0
C416 C 0.8404 0.54326 0.66065 0.0
O417 O 0.84175 0.52678 0.69271 0.0
C418 C 0.87217 0.59874 0.87079 0.0
O419 O 0.87236 0.60778 0.8223 0.0
O420 O 0.92778 0.6006 0.81003 0.0
O421 O 0.92815 0.59881 0.71868 0.0
H422 H 0.96504 0.56122 0.91471 0.0
H423 H 0.85584 0.59838 0.71365 0.0
O424 O 0.85865 0.5658 0.65766 0.0
H425 H 0.9341 0.67625 0.66522 0.0
H426 H 0.89829 0.60654 0.49225 0.0
H427 H 0.93414 0.5775 0.63632 0.0
H428 H 0.93259 0.63523 0.66466 0.0
H429 H 0.88133 0.59934 0.58554 0.0
O430 O 0.88262 0.58527 0.87803 0.0
H431 H 0.94391 0.5698 0.83884 0.0
H432 H 0.88075 0.55173 0.93942 0.0
H433 H 0.95181 0.58469 0.54369 0.0
H434 H 0.8564 0.63898 0.71373 0.0
H435 H 0.93386 0.5993 0.47087 0.0
H436 H 0.89579 0.67832 0.68968 0.0
O437 O 0.89233 0.54938 0.68998 0.0
H438 H 0.80077 0.51316 0.83875 0.0
H439 H 0.88227 0.51509 0.84493 0.0
H440 H 0.84292 0.4747 0.85739 0.0
H441 H 0.80176 0.47356 0.85462 0.0
H442 H 0.84049 0.55305 0.8258 0.0
H443 H 0.90131 0.54322 1.01651 0.0
H444 H 0.94372 0.54784 1.00435 0.0
O445 O 0.90648 0.54939 0.77427 0.0
C446 C 0.93918 0.60735 0.76406 0.0
C447 C 0.94655 0.55912 0.92051 0.0
C448 C 0.91081 0.54907 0.97766 0.0
N449 N 0.91111 0.56126 0.8846 0.0
C450 C 0.93448 0.56392 0.87766 0.0
C451 C 0.89931 0.55403 0.9339 0.0
C452 C 0.93459 0.55164 0.9708 0.0
C453 C 0.873 0.61538 0.7027 0.0
N454 N 0.89419 0.61442 0.68958 0.0
C455 C 0.87323 0.63833 0.70301 0.0
C456 C 0.89534 0.6604 0.6896 0.0
C457 C 0.91685 0.65926 0.67596 0.0
C458 C 0.91592 0.63597 0.67608 0.0
C459 C 0.9063 0.60021 0.52365 0.0
C460 C 0.9263 0.58399 0.60496 0.0
C461 C 0.89673 0.59604 0.57654 0.0
N462 N 0.90682 0.58815 0.61647 0.0
C463 C 0.93635 0.58797 0.55253 0.0
C464 C 0.92626 0.59615 0.51168 0.0
C465 C 0.90102 0.54059 0.7257 0.0
C466 C 0.81859 0.51344 0.84049 0.0
C467 C 0.86448 0.51482 0.84375 0.0
C468 C 0.84223 0.49185 0.85084 0.0
C469 C 0.81916 0.49122 0.84928 0.0
N470 N 0.86383 0.53662 0.8357 0.0
C471 C 0.84122 0.53606 0.83356 0.0
Co472 Co 0.33245 0.8755 0.02718 0.0
Co473 Co 0.34639 0.88447 0.16591 0.0
O474 O 0.32551 0.86475 0.10358 0.0
C475 C 0.33652 0.83469 0.97345 0.0
O476 O 0.35923 0.85213 0.95861 0.0
C477 C 0.29153 0.86286 0.20155 0.0
O478 O 0.28398 0.8588 0.15068 0.0
O479 O 0.34803 0.91652 0.13759 0.0
O480 O 0.34159 0.91039 0.04718 0.0
H481 H 0.42023 0.95909 0.25346 0.0
H482 H 0.28344 0.83 0.05207 0.0
O483 O 0.32355 0.84038 1.00509 0.0
H484 H 0.26172 0.89097 0.97351 0.0
H485 H 0.31465 0.86716 0.82526 0.0
H486 H 0.37316 0.91983 0.97039 0.0
H487 H 0.30616 0.90197 0.98378 0.0
H488 H 0.30603 0.85386 0.92124 0.0
O489 O 0.31518 0.8752 0.21238 0.0
H490 H 0.3936 0.93349 0.17687 0.0
H491 H 0.34379 0.87715 0.28683 0.0
H492 H 0.38243 0.9339 0.87492 0.0
H493 H 0.23873 0.818 0.04138 0.0
H494 H 0.35308 0.90746 0.80157 0.0
H495 H 0.22763 0.84865 1.00215 0.0
O496 O 0.36836 0.88452 0.03578 0.0
H497 H 0.30583 0.79155 0.20691 0.0
H498 H 0.38477 0.87337 0.21322 0.0
H499 H 0.38467 0.8352 0.24554 0.0
H500 H 0.34494 0.7939 0.24288 0.0
H501 H 0.30685 0.83002 0.17417 0.0
H502 H 0.36969 0.90224 0.3646 0.0
H503 H 0.40829 0.94349 0.34817 0.0
O504 O 0.37793 0.89269 0.12455 0.0
C505 C 0.34704 0.92419 0.08938 0.0
C506 C 0.40344 0.94116 0.26116 0.0
C507 C 0.37505 0.90928 0.32353 0.0
N508 N 0.36707 0.90393 0.22727 0.0
C509 C 0.38829 0.92658 0.21793 0.0
C510 C 0.36034 0.89523 0.27931 0.0
C511 C 0.39672 0.9324 0.31428 0.0
C512 C 0.27877 0.84336 0.03443 0.0
N513 N 0.29743 0.86673 0.01887 0.0
C514 C 0.25341 0.83649 0.02873 0.0
C515 C 0.2472 0.85372 1.00682 0.0
C516 C 0.26632 0.87749 0.99087 0.0
C517 C 0.29147 0.8837 0.99721 0.0
C518 C 0.32757 0.87886 0.85685 0.0
C519 C 0.36025 0.90826 0.93873 0.0
C520 C 0.32279 0.87143 0.91129 0.0
N521 N 0.33907 0.88607 0.95146 0.0
C522 C 0.36562 0.91631 0.88473 0.0
C523 C 0.34914 0.90147 0.84359 0.0
C524 C 0.38383 0.89107 0.07545 0.0
C525 C 0.32323 0.80946 0.20861 0.0
C526 C 0.36742 0.8555 0.21166 0.0
C527 C 0.36747 0.83393 0.23017 0.0
C528 C 0.34518 0.81078 0.22869 0.0
N529 N 0.34577 0.85415 0.19247 0.0
C530 C 0.3239 0.83142 0.1904 0.0
Co531 Co 0.4643 0.31633 0.34826 0.0
Co532 Co 0.47193 0.33388 0.48444 0.0
O533 O 0.46964 0.31128 0.42486 0.0
C534 C 0.50731 0.31667 0.29347 0.0
O535 O 0.51369 0.33949 0.277 0.0
C536 C 0.4406 0.28 0.52747 0.0
O537 O 0.43362 0.27156 0.47775 0.0
O538 O 0.43973 0.33278 0.45954 0.0
O539 O 0.44015 0.32774 0.36867 0.0
H540 H 0.47063 0.4086 0.56617 0.0
H541 H 0.45884 0.26692 0.37893 0.0
O542 O 0.48871 0.305 0.32589 0.0
H543 H 0.37576 0.24732 0.30631 0.0
H544 H 0.44987 0.29327 0.14906 0.0
H545 H 0.46148 0.35669 0.28737 0.0
H546 H 0.41083 0.29124 0.30995 0.0
H547 H 0.45611 0.28675 0.24564 0.0
O548 O 0.45321 0.30384 0.53606 0.0
H549 H 0.4681 0.38026 0.49203 0.0
H550 H 0.48133 0.33533 0.60433 0.0
H551 H 0.4552 0.36391 0.19124 0.0
H552 H 0.42447 0.22266 0.37483 0.0
H553 H 0.44935 0.33208 0.12132 0.0
H554 H 0.38252 0.21264 0.33865 0.0
O555 O 0.49231 0.35177 0.35193 0.0
H556 H 0.52921 0.29891 0.52667 0.0
H557 H 0.52262 0.37593 0.51668 0.0
H558 H 0.5629 0.37915 0.54412 0.0
H559 H 0.56636 0.34043 0.5496 0.0
H560 H 0.48943 0.29656 0.49871 0.0
H561 H 0.48382 0.36304 0.67977 0.0
H562 H 0.47853 0.40004 0.66094 0.0
O563 O 0.49195 0.36451 0.43735 0.0
C564 C 0.43146 0.33257 0.41119 0.0
C565 C 0.47288 0.39249 0.57495 0.0
C566 C 0.48025 0.3669 0.6387 0.0
N567 N 0.47424 0.35597 0.54375 0.0
C568 C 0.4714 0.37634 0.53309 0.0
C569 C 0.47864 0.35116 0.5958 0.0
C570 C 0.47731 0.38768 0.6281 0.0
C571 C 0.44073 0.2627 0.36254 0.0
N572 N 0.43682 0.28168 0.34502 0.0
C573 C 0.4213 0.2376 0.36059 0.0
C574 C 0.39775 0.232 0.34039 0.0
C575 C 0.39393 0.25145 0.32237 0.0
C576 C 0.4138 0.27632 0.32496 0.0
C577 C 0.45235 0.30727 0.17915 0.0
C578 C 0.45886 0.3427 0.25721 0.0
C579 C 0.45589 0.30368 0.23391 0.0
N580 N 0.45908 0.32129 0.27218 0.0
C581 C 0.45535 0.34691 0.20283 0.0
C582 C 0.45208 0.32904 0.16362 0.0
C583 C 0.49998 0.36886 0.38835 0.0
C584 C 0.52789 0.3159 0.52481 0.0
C585 C 0.52393 0.35897 0.51888 0.0
C586 C 0.54681 0.36092 0.53451 0.0
C587 C 0.54874 0.3392 0.53758 0.0
N588 N 0.50345 0.33601 0.50697 0.0
C589 C 0.50531 0.31467 0.5093 0.0
Co590 Co 0.16567 0.46683 0.68595 0.0
Co591 Co 0.14978 0.46679 0.81978 0.0
O592 O 0.17279 0.46707 0.76363 0.0
C593 C 0.2131 0.50855 0.64293 0.0
O594 O 0.19992 0.51921 0.62846 0.0
C595 C 0.17134 0.43442 0.86207 0.0
O596 O 0.17389 0.42865 0.81197 0.0
O597 O 0.12068 0.43532 0.7865 0.0
O598 O 0.12866 0.44557 0.69827 0.0
H599 H 0.06868 0.45865 0.88806 0.0
H600 H 0.20382 0.45256 0.71679 0.0
O601 O 0.20276 0.48834 0.67118 0.0
H602 H 0.13617 0.37782 0.62388 0.0
H603 H 0.17953 0.46045 0.48557 0.0
H604 H 0.12918 0.47503 0.62205 0.0
H605 H 0.13304 0.4162 0.63529 0.0
H606 H 0.18779 0.45954 0.58359 0.0
O607 O 0.15973 0.44665 0.87091 0.0
H608 H 0.09827 0.45995 0.81844 0.0
H609 H 0.15229 0.47197 0.94105 0.0
H610 H 0.12024 0.47604 0.52444 0.0
H611 H 0.20795 0.41473 0.7052 0.0
H612 H 0.14552 0.46872 0.4554 0.0
H613 H 0.17389 0.37695 0.6587 0.0
O614 O 0.16285 0.49735 0.69635 0.0
H615 H 0.23933 0.5236 0.88162 0.0
H616 H 0.15548 0.51551 0.85945 0.0
H617 H 0.19049 0.55488 0.89667 0.0
H618 H 0.23277 0.55908 0.90831 0.0
H619 H 0.20394 0.48473 0.84385 0.0
H620 H 0.12319 0.47056 1.01199 0.0
H621 H 0.08109 0.46398 0.98564 0.0
O622 O 0.14049 0.48848 0.77334 0.0
C623 C 0.11363 0.43269 0.7364 0.0
C624 C 0.08699 0.46157 0.90004 0.0
C625 C 0.11756 0.4682 0.9696 0.0
N626 N 0.12701 0.46606 0.87558 0.0
C627 C 0.10384 0.46235 0.86079 0.0
C628 C 0.13392 0.46886 0.92924 0.0
C629 C 0.09395 0.46453 0.95479 0.0
C630 C 0.18905 0.43631 0.69596 0.0
N631 N 0.16821 0.43662 0.67687 0.0
C632 C 0.19143 0.41489 0.68978 0.0
C633 C 0.1723 0.39368 0.66378 0.0
C634 C 0.1511 0.39414 0.64433 0.0
C635 C 0.14936 0.41589 0.65127 0.0
C636 C 0.16832 0.46358 0.51525 0.0
C637 C 0.14018 0.4717 0.5923 0.0
C638 C 0.17288 0.46304 0.57084 0.0
N639 N 0.15884 0.46703 0.60862 0.0
C640 C 0.13506 0.47234 0.53706 0.0
C641 C 0.14926 0.46824 0.49835 0.0
C642 C 0.14959 0.50154 0.72999 0.0
C643 C 0.22096 0.52195 0.87706 0.0
C644 C 0.17381 0.51716 0.86421 0.0
C645 C 0.19357 0.53952 0.88542 0.0
C646 C 0.21728 0.54186 0.89194 0.0
N647 N 0.17747 0.49758 0.85016 0.0
C648 C 0.20076 0.49988 0.85594 0.0
Co649 Co 0.718 0.15525 0.03326 0.0
Co650 Co 0.69839 0.14461 0.16546 0.0
O651 O 0.72331 0.16472 0.10995 0.0
C652 C 0.72951 0.20782 1.0071 0.0
O653 O 0.70768 0.20333 0.02649 0.0
C654 C 0.75009 0.16223 0.21707 0.0
O655 O 0.75856 0.15789 0.1717 0.0
O656 O 0.69933 0.11321 0.14197 0.0
O657 O 0.6994 0.11883 0.05166 0.0
H658 H 0.62053 0.06888 0.23682 0.0
H659 H 0.7701 0.19087 0.07046 0.0
O660 O 0.7367 0.19161 1.01192 0.0
H661 H 0.77334 0.11758 0.99643 0.0
H662 H 0.74362 0.1629 0.83638 0.0
H663 H 0.67441 0.11812 0.96743 0.0
H664 H 0.73351 0.11853 0.99585 0.0
H665 H 0.75021 0.1737 0.93399 0.0
O666 O 0.72667 0.15528 0.22144 0.0
H667 H 0.65171 0.09461 0.16704 0.0
H668 H 0.693 0.15195 0.28397 0.0
H669 H 0.66707 0.1065 0.8703 0.0
H670 H 0.81044 0.19087 0.07104 0.0
H671 H 0.70184 0.12897 0.80397 0.0
H672 H 0.8122 0.15398 0.03403 0.0
O673 O 0.68548 0.15508 0.03423 0.0
H674 H 0.73453 0.23683 0.20777 0.0
H675 H 0.65641 0.15476 0.18934 0.0
H676 H 0.65375 0.19253 0.21293 0.0
H677 H 0.69301 0.23394 0.22255 0.0
H678 H 0.73634 0.19868 0.18361 0.0
H679 H 0.66238 0.12673 0.35507 0.0
H680 H 0.62576 0.08492 0.33163 0.0
O681 O 0.66937 0.13523 0.11317 0.0
C682 C 0.6952 0.10469 0.0929 0.0
C683 C 0.6364 0.08708 0.24753 0.0
C684 C 0.65991 0.11953 0.31391 0.0
N685 N 0.67416 0.12478 0.22132 0.0
C686 C 0.65411 0.10175 0.20816 0.0
C687 C 0.67726 0.13368 0.27349 0.0
C688 C 0.63935 0.09608 0.30072 0.0
C689 C 0.77078 0.17486 0.05376 0.0
N690 N 0.74948 0.15475 0.03308 0.0
C691 C 0.79365 0.17492 0.05442 0.0
C692 C 0.79461 0.1542 0.03374 0.0
C693 C 0.77281 0.13375 1.01271 0.0
C694 C 0.75028 0.13435 1.01272 0.0
C695 C 0.72834 0.15291 0.86489 0.0
C696 C 0.68969 0.12783 0.93896 0.0
C697 C 0.73195 0.15897 0.92024 0.0
N698 N 0.71278 0.14636 0.95656 0.0
C699 C 0.6854 0.12124 0.88394 0.0
C700 C 0.7049 0.13387 0.84674 0.0
C701 C 0.66705 0.14355 0.06692 0.0
C702 C 0.71729 0.21887 0.20396 0.0
C703 C 0.67359 0.17269 0.19336 0.0
C704 C 0.67196 0.19402 0.2068 0.0
C705 C 0.69399 0.21724 0.21218 0.0
N706 N 0.69653 0.17438 0.18574 0.0
C707 C 0.71819 0.19715 0.1905 0.0
H708 H 0.31742 0.37092 0.29867 0.0
H709 H 0.39082 0.43177 0.25464 0.0
H710 H 0.33681 0.34761 0.33722 0.0
H711 H 0.41034 0.40878 0.29393 0.0
H712 H 0.43668 0.37846 0.4357 0.0
H713 H 0.41404 0.39762 0.3934 0.0
H714 H 0.3638 0.32699 0.31435 0.0
H715 H 0.38674 0.30795 0.35633 0.0
C716 C 0.33762 0.37879 0.29503 0.0
C717 C 0.35251 0.40283 0.27188 0.0
C718 C 0.34878 0.36561 0.31784 0.0
C719 C 0.37518 0.37648 0.31951 0.0
C720 C 0.38997 0.39998 0.29394 0.0
C721 C 0.37877 0.41292 0.2702 0.0
C722 C 0.42025 0.36673 0.41107 0.0
C723 C 0.41324 0.34149 0.40044 0.0
C724 C 0.40757 0.37787 0.38578 0.0
C725 C 0.38733 0.36397 0.34968 0.0
C726 C 0.37931 0.33828 0.34176 0.0
C727 C 0.39231 0.32729 0.36624 0.0
H728 H 0.97099 0.35307 0.55106 0.0
H729 H 0.94938 0.35034 0.71927 0.0
H730 H 1.01491 0.3707 0.57986 0.0
H731 H 0.99268 0.36936 0.74737 0.0
H732 H 0.07316 0.39605 0.79621 0.0
H733 H 0.02938 0.37003 0.76594 0.0
H734 H 0.04932 0.40658 0.60873 0.0
H735 H 0.09247 0.43077 0.63741 0.0
C736 C 0.97549 0.35612 0.59405 0.0
C737 C 0.95635 0.35031 0.63239 0.0
C738 C 1.00085 0.3666 0.61084 0.0
C739 C 1.00793 0.37201 0.6664 0.0
C740 C 0.98852 0.36536 0.7045 0.0
C741 C 0.96333 0.35456 0.68793 0.0
C742 C 0.06816 0.39823 0.75504 0.0
C743 C 0.08666 0.41566 0.71965 0.0
C744 C 0.04289 0.38342 0.73752 0.0
C745 C 0.03526 0.38596 0.6844 0.0
C746 C 0.05399 0.40328 0.64928 0.0
C747 C 0.07908 0.41759 0.66632 0.0
H748 H 0.59198 0.95749 0.94948 0.0
H749 H 0.66078 0.95569 0.97285 0.0
H750 H 0.61105 0.99901 0.99033 0.0
H751 H 0.68104 0.99843 1.01092 0.0
H752 H 0.70429 0.0661 0.12559 0.0
H753 H 0.6847 0.02333 0.08642 0.0
H754 H 0.63716 0.04063 0.98571 0.0
H755 H 0.65498 0.08153 0.02765 0.0
C756 C 0.6118 0.96673 0.96033 0.0
C757 C 0.62519 0.95374 0.95541 0.0
C758 C 0.62284 0.99064 0.98461 0.0
C759 C 0.64791 1.00266 1.00434 0.0
C760 C 0.66167 0.98996 0.99724 0.0
C761 C 0.65033 0.9657 0.97382 0.0
C762 C 0.68903 0.06024 0.09649 0.0
C763 C 0.68113 0.0772 0.08001 0.0
C764 C 0.67811 0.03589 0.07294 0.0
C765 C 0.65924 0.02812 0.03205 0.0
C766 C 0.6511 0.04515 0.01738 0.0
C767 C 0.66157 0.06896 0.04134 0.0
H768 H 0.64521 0.58663 0.26812 0.0
H769 H 0.71925 0.64669 0.31193 0.0
H770 H 0.62629 0.60927 0.31127 0.0
H771 H 0.70037 0.66977 0.35452 0.0
H772 H 0.6494 0.70935 0.37108 0.0
H773 H 0.67276 0.6905 0.33059 0.0
H774 H 0.62372 0.62043 0.41222 0.0
H775 H 0.60069 0.63948 0.45338 0.0
C776 C 0.65751 0.60522 0.28479 0.0
C777 C 0.68378 0.61531 0.28466 0.0
C778 C 0.64665 0.61796 0.31067 0.0
C779 C 0.66178 0.64124 0.33691 0.0
C780 C 0.68817 0.65193 0.33457 0.0
C781 C 0.69901 0.6389 0.30955 0.0
C782 C 0.64423 0.69022 0.38199 0.0
C783 C 0.62348 0.67609 0.41639 0.0
C784 C 0.65749 0.67935 0.35842 0.0
C785 C 0.64989 0.65384 0.36745 0.0
C786 C 0.6299 0.64006 0.40393 0.0
C787 C 0.61698 0.65111 0.42841 0.0
H788 H 0.97245 0.5915 0.74755 0.0
H789 H 0.96716 0.65887 0.76233 0.0
H790 H 1.01449 0.61603 0.708 0.0
H791 H 1.00958 0.68375 0.7232 0.0
H792 H 0.09791 0.7183 0.69809 0.0
H793 H 0.05592 0.69774 0.73834 0.0
H794 H 0.03069 0.63857 0.61809 0.0
H795 H 0.07276 0.65938 0.57736 0.0
C796 C 0.98081 0.6118 0.74459 0.0
C797 C 0.9669 0.6234 0.76003 0.0
C798 C 1.00466 0.62578 0.72069 0.0
C799 C 1.01532 0.65183 0.7115 0.0
C800 C 1.00199 0.66374 0.72976 0.0
C801 C 0.97789 0.64961 0.75311 0.0
C802 C 0.08327 0.70128 0.67919 0.0
C803 C 0.08891 0.69053 0.63439 0.0
C804 C 0.05915 0.68942 0.70251 0.0
C805 C 0.04001 0.6662 0.68231 0.0
C806 C 0.04514 0.65621 0.63541 0.0
C807 C 0.06921 0.66834 0.61144 0.0
H808 H 0.32364 0.94343 0.02743 0.0
H809 H 0.39133 0.96558 0.1206 0.0
H810 H 0.34319 0.98513 0.9851 0.0
H811 H 0.41106 1.00735 0.07805 0.0
H812 H 0.44916 0.06406 0.93975 0.0
H813 H 0.42616 0.02242 0.98229 0.0
H814 H 0.36132 0.03197 1.00205 0.0
H815 H 0.38464 0.07384 0.95994 0.0
C816 C 0.34243 0.95751 0.04022 0.0
C817 C 0.35576 0.95123 0.0781 0.0
C818 C 0.35372 0.98139 1.01561 0.0
C819 C 0.37888 0.99952 0.02731 0.0
C820 C 0.39178 0.99371 0.06738 0.0
C821 C 0.3803 0.96992 0.0927 0.0
C822 C 0.42962 0.05678 0.95098 0.0
C823 C 0.41838 0.07182 0.94446 0.0
C824 C 0.41662 0.03316 0.97661 0.0
C825 C 0.39196 0.02391 0.99639 0.0
C826 C 0.38022 0.03841 0.98721 0.0
C827 C 0.39341 0.06223 0.96227 0.0
H828 H 0.17164 0.44428 0.97203 0.0
H829 H 0.20431 0.4162 0.85521 0.0
H830 H 0.19813 0.44168 0.04357 0.0
H831 H 0.23066 0.41349 0.9267 0.0
H832 H 0.29525 0.44138 0.05523 0.0
H833 H 0.26698 0.44042 0.98349 0.0
H834 H 0.206 0.41337 0.0991 0.0
H835 H 0.23424 0.41449 0.17076 0.0
C836 C 0.1842 0.43723 0.96157 0.0
C837 C 0.18559 0.43039 0.90743 0.0
C838 C 0.19945 0.43568 1.00283 0.0
C839 C 0.21681 0.42746 0.99135 0.0
C840 C 0.21787 0.42024 0.93736 0.0
C841 C 0.20249 0.42157 0.89624 0.0
C842 C 0.27576 0.43497 0.06537 0.0
C843 C 0.26723 0.428 0.11924 0.0
C844 C 0.25943 0.43435 0.02399 0.0
C845 C 0.23402 0.42694 0.03509 0.0
C846 C 0.22541 0.41953 0.08876 0.0
C847 C 0.24167 0.41995 0.12998 0.0
H848 H 0.86242 0.24008 0.48041 0.0
H849 H 0.84804 0.29593 0.40757 0.0
H850 H 0.83322 0.2085 0.41492 0.0
H851 H 0.81831 0.2642 0.34389 0.0
H852 H 0.74315 0.1906 0.29446 0.0
H853 H 0.77395 0.22103 0.35863 0.0
H854 H 0.82936 0.20224 0.30319 0.0
H855 H 0.79877 0.17232 0.23711 0.0
C856 C 0.8532 0.24572 0.45034 0.0
C857 C 0.85783 0.27073 0.4494 0.0
C858 C 0.83644 0.22758 0.41278 0.0
C859 C 0.82326 0.23373 0.37424 0.0
C860 C 0.82799 0.25874 0.37314 0.0
C861 C 0.84522 0.277 0.40959 0.0
C862 C 0.7618 0.1927 0.29604 0.0
C863 C 0.76831 0.17879 0.26036 0.0
C864 C 0.77955 0.21033 0.33274 0.0
C865 C 0.80421 0.21419 0.3361 0.0
C866 C 0.81054 0.19971 0.30184 0.0
C867 C 0.79297 0.18254 0.26395 0.0
H868 H 0.61042 0.86743 0.73816 0.0
H869 H 0.59876 0.80956 0.85349 0.0
H870 H 0.61228 0.84172 0.66453 0.0
H871 H 0.59829 0.78284 0.78049 0.0
H872 H 0.60915 0.73953 0.64493 0.0
H873 H 0.61395 0.76859 0.7179 0.0
H874 H 0.59419 0.81049 0.60519 0.0
H875 H 0.59175 0.78277 0.5324 0.0
C876 C 0.60817 0.84913 0.74777 0.0
C877 C 0.60476 0.84083 0.80206 0.0
C878 C 0.60887 0.83399 0.70519 0.0
C879 C 0.60527 0.80956 0.71508 0.0
C880 C 0.60182 0.80147 0.76985 0.0
C881 C 0.60191 0.8169 0.81237 0.0
C882 C 0.60626 0.75524 0.63582 0.0
C883 C 0.60035 0.75884 0.58244 0.0
C884 C 0.60866 0.77194 0.67808 0.0
C885 C 0.60435 0.7924 0.66896 0.0
C886 C 0.59839 0.79575 0.61509 0.0
C887 C 0.59678 0.77954 0.57273 0.0
H888 H 0.7994 0.61011 0.172 0.0
H889 H 0.74122 0.58269 0.04875 0.0
H890 H 0.82985 0.61295 0.10416 0.0
H891 H 0.7718 0.5857 0.98078 0.0
H892 H 0.83901 0.61659 0.86235 0.0
H893 H 0.8101 0.61645 0.93081 0.0
H894 H 0.83925 0.58478 0.04786 0.0
H895 H 0.86818 0.58475 0.97909 0.0
C896 C 0.79308 0.60494 0.13032 0.0
C897 C 0.76769 0.59627 0.11616 0.0
C898 C 0.8106 0.60636 0.09137 0.0
C899 C 0.80345 0.59951 0.03668 0.0
C900 C 0.77818 0.59137 0.02224 0.0
C901 C 0.76055 0.5896 0.06138 0.0
C902 C 0.83953 0.60979 0.90279 0.0
C903 C 0.85618 0.60076 0.91484 0.0
C904 C 0.82269 0.60952 0.94208 0.0
C905 C 0.82209 0.6005 0.99514 0.0
C906 C 0.83919 0.59205 1.00769 0.0
C907 C 0.85583 0.592 0.9681 0.0
H908 H 0.20603 0.8006 0.5069 0.0
H909 H 0.17632 0.73877 0.39244 0.0
H910 H 0.23296 0.82919 0.43581 0.0
H911 H 0.20344 0.76728 0.32154 0.0
H912 H 0.24097 0.82821 0.19189 0.0
H913 H 0.21162 0.80214 0.26264 0.0
H914 H 0.27022 0.83891 0.38354 0.0
H915 H 0.29953 0.86524 0.31278 0.0
C916 C 0.20499 0.79306 0.46646 0.0
C917 C 0.18877 0.76719 0.45581 0.0
C918 C 0.2207 0.80951 0.42561 0.0
C919 C 0.22067 0.80074 0.3725 0.0
C920 C 0.20396 0.77498 0.36152 0.0
C921 C 0.18836 0.7585 0.40246 0.0
C922 C 0.24761 0.83105 0.23362 0.0
C923 C 0.27283 0.84902 0.24616 0.0
C924 C 0.23073 0.81582 0.27436 0.0
C925 C 0.23838 0.81808 0.32925 0.0
C926 C 0.26339 0.83661 0.34205 0.0
C927 C 0.28034 0.85176 0.30121 0.0
H928 H 0.42317 0.19697 0.83376 0.0
H929 H 0.45262 0.16525 0.71784 0.0
H930 H 0.42124 0.22385 0.76273 0.0
H931 H 0.45071 0.19225 0.64665 0.0
H932 H 0.42382 0.22916 0.51955 0.0
H933 H 0.42231 0.20039 0.59028 0.0
H934 H 0.44945 0.26074 0.7081 0.0
H935 H 0.45093 0.28956 0.63732 0.0
C936 C 0.42901 0.19547 0.79301 0.0
C937 C 0.438 0.1787 0.78196 0.0
C938 C 0.42811 0.21116 0.75217 0.0
C939 C 0.43593 0.21051 0.69858 0.0
C940 C 0.4443 0.19326 0.68713 0.0
C941 C 0.44546 0.17773 0.72817 0.0
C942 C 0.42922 0.23633 0.56063 0.0
C943 C 0.43742 0.26186 0.57233 0.0
C944 C 0.42858 0.21978 0.60128 0.0
C945 C 0.43585 0.22806 0.6553 0.0
C946 C 0.44347 0.25345 0.66729 0.0
C947 C 0.44438 0.27009 0.62648 0.0
H948 H 0.23749 0.5461 0.56776 0.0
H949 H 0.24163 0.48571 0.64972 0.0
H950 H 0.26972 0.55015 0.50377 0.0
H951 H 0.27304 0.48921 0.58528 0.0
H952 H 0.33159 0.4985 0.47356 0.0
H953 H 0.3136 0.51137 0.54674 0.0
H954 H 0.2687 0.52438 0.42866 0.0
H955 H 0.28797 0.5127 0.35528 0.0
C956 C 0.24566 0.53407 0.57295 0.0
C957 C 0.2367 0.51531 0.61341 0.0
C958 C 0.26398 0.53627 0.53592 0.0
C959 C 0.27373 0.51979 0.53871 0.0
C960 C 0.26621 0.50244 0.58198 0.0
C961 C 0.24801 0.50031 0.61901 0.0
C962 C 0.31848 0.50494 0.46337 0.0
C963 C 0.31099 0.50461 0.40923 0.0
C964 C 0.308 0.5121 0.5052 0.0
C965 C 0.28928 0.51839 0.49383 0.0
C966 C 0.2832 0.51983 0.43897 0.0
C967 C 0.29412 0.5131 0.39686 0.0
H968 H 0.80987 0.33747 0.79037 0.0
H969 H 0.80333 0.27105 0.71223 0.0
H970 H 0.78199 0.31109 0.8631 0.0
H971 H 0.77574 0.24502 0.78505 0.0
H972 H 0.77559 0.22267 0.96358 0.0
H973 H 0.79493 0.25062 0.88666 0.0
H974 H 0.73533 0.26893 0.88577 0.0
H975 H 0.71527 0.24025 0.96293 0.0
C976 C 0.80187 0.31722 0.78766 0.0
C977 C 0.80932 0.30642 0.74617 0.0
C978 C 0.78592 0.30219 0.82933 0.0
C979 C 0.77732 0.27624 0.82999 0.0
C980 C 0.78254 0.26512 0.78563 0.0
C981 C 0.79826 0.28005 0.74384 0.0
C982 C 0.76663 0.2328 0.94765 0.0
C983 C 0.74365 0.22892 0.96893 0.0
C984 C 0.77764 0.24865 0.90333 0.0
C985 C 0.76617 0.26128 0.87967 0.0
C986 C 0.74426 0.25905 0.90315 0.0
C987 C 0.73295 0.24283 0.94742 0.0
H988 H 0.5715 0.82379 0.13889 0.0
H989 H 0.50078 0.78204 0.05206 0.0
H990 H 0.55813 0.78999 0.20365 0.0
H991 H 0.48733 0.74743 0.11822 0.0
H992 H 0.50496 0.68582 0.20609 0.0
H993 H 0.50303 0.7163 0.14502 0.0
H994 H 0.52561 0.76987 0.27715 0.0
H995 H 0.52809 0.7397 0.33795 0.0
C996 C 0.55297 0.80743 0.13362 0.0
C997 C 0.53717 0.80575 0.09021 0.0
C998 C 0.5452 0.78809 0.17132 0.0
C999 C 0.52146 0.76632 0.16673 0.0
C1000 C 0.50563 0.76419 0.12293 0.0
C1001 C 0.51336 0.78391 0.08512 0.0
C1002 C 0.50856 0.70374 0.22267 0.0
C1003 C 0.51726 0.71064 0.27649 0.0
C1004 C 0.5074 0.72117 0.18761 0.0
C1005 C 0.51476 0.7456 0.20611 0.0
C1006 C 0.52032 0.75129 0.26164 0.0
C1007 C 0.52168 0.734 0.29648 0.0
H1008 H 0.70165 0.49453 0.48014 0.0
H1009 H 0.76279 0.53739 0.36816 0.0
H1010 H 0.73154 0.49388 0.54528 0.0
H1011 H 0.79242 0.53646 0.4332 0.0
H1012 H 0.83247 0.57383 0.59363 0.0
H1013 H 0.80116 0.56195 0.52259 0.0
H1014 H 0.76839 0.48364 0.56782 0.0
H1015 H 0.8005 0.4955 0.63975 0.0
C1016 C 0.72128 0.503 0.46851 0.0
C1017 C 0.72998 0.51663 0.4196 0.0
C1018 C 0.73835 0.50254 0.50586 0.0
C1019 C 0.76425 0.51562 0.4946 0.0
C1020 C 0.77252 0.52661 0.44308 0.0
C1021 C 0.75553 0.5271 0.40585 0.0
C1022 C 0.81872 0.55401 0.58876 0.0
C1023 C 0.8192 0.53557 0.62208 0.0
C1024 C 0.80088 0.54722 0.54763 0.0
C1025 C 0.78284 0.52184 0.53887 0.0
C1026 C 0.7824 0.50332 0.57347 0.0
C1027 C 0.80062 0.51013 0.61468 0.0
H1028 H 0.24768 0.7592 0.70935 0.0
H1029 H 0.22437 0.69571 0.81777 0.0
H1030 H 0.28372 0.78466 0.76835 0.0
H1031 H 0.26033 0.72134 0.87677 0.0
H1032 H 0.29185 0.79245 0.99714 0.0
H1033 H 0.26541 0.75857 0.93421 0.0
H1034 H 0.32423 0.79037 0.81327 0.0
H1035 H 0.35088 0.82417 0.87629 0.0
C1036 C 0.25062 0.75045 0.74486 0.0
C1037 C 0.23292 0.72557 0.75931 0.0
C1038 C 0.27133 0.76501 0.77855 0.0
C1039 C 0.27459 0.75499 0.8274 0.0
C1040 C 0.25806 0.72954 0.83958 0.0
C1041 C 0.23751 0.7149 0.80563 0.0
C1042 C 0.29946 0.79177 0.95779 0.0
C1043 C 0.32332 0.81111 0.94152 0.0
C1044 C 0.28436 0.77233 0.92181 0.0
C1045 C 0.29274 0.77203 0.86873 0.0
C1046 C 0.31731 0.7903 0.85385 0.0
C1047 C 0.33257 0.80955 0.89013 0.0
H1048 H 0.51632 0.24822 1.00779 0.0
H1049 H 0.5175 0.19726 0.1274 0.0
H1050 H 0.52551 0.27963 0.07911 0.0
H1051 H 0.52771 0.22878 0.19856 0.0
H1052 H 0.49248 0.2667 0.30349 0.0
H1053 H 0.5003 0.24125 0.23948 0.0
H1054 H 0.55167 0.30832 0.15033 0.0
H1055 H 0.54337 0.33389 0.21404 0.0
C1056 C 0.51967 0.24428 0.04903 0.0
C1057 C 0.51628 0.22057 0.06255 0.0
C1058 C 0.52496 0.2622 0.08994 0.0
C1059 C 0.52698 0.25655 0.14477 0.0
C1060 C 0.52579 0.23354 0.15701 0.0
C1061 C 0.5202 0.2156 0.11633 0.0
C1062 C 0.50596 0.27615 0.27115 0.0
C1063 C 0.51694 0.30228 0.26337 0.0
C1064 C 0.51057 0.26154 0.23442 0.0
C1065 C 0.5264 0.27273 0.18925 0.0
C1066 C 0.53903 0.2991 0.18412 0.0
C1067 C 0.53438 0.31375 0.22087 0.0
H1068 H 0.41042 0.52511 0.23969 0.0
H1069 H 0.39802 0.49867 0.40576 0.0
H1070 H 0.44964 0.56189 0.26626 0.0
H1071 H 0.43837 0.53453 0.43205 0.0
H1072 H 0.4961 0.61618 0.47539 0.0
H1073 H 0.45889 0.57668 0.45065 0.0
H1074 H 0.49077 0.58048 0.29147 0.0
H1075 H 0.52702 0.62092 0.31544 0.0
C1076 C 0.41624 0.5269 0.28181 0.0
C1077 C 0.40073 0.50902 0.32058 0.0
C1078 C 0.43909 0.54803 0.29719 0.0
C1079 C 0.44754 0.55164 0.35169 0.0
C1080 C 0.43245 0.53305 0.39001 0.0
C1081 C 0.40929 0.51222 0.37481 0.0
C1082 C 0.49526 0.60842 0.43537 0.0
C1083 C 0.51449 0.62182 0.39737 0.0
C1084 C 0.47385 0.58555 0.42102 0.0
C1085 C 0.47133 0.5751 0.36857 0.0
C1086 C 0.49136 0.58802 0.33163 0.0
C1087 C 0.51242 0.61119 0.34557 0.0
H1088 H 0.91856 0.5155 0.78916 0.0
H1089 H 0.8914 0.51644 0.62701 0.0
H1090 H 0.92135 0.47826 0.76535 0.0
H1091 H 0.89382 0.47902 0.60366 0.0
H1092 H 0.88813 0.3938 0.72651 0.0
H1093 H 0.89224 0.43431 0.74843 0.0
H1094 H 0.92125 0.46139 0.58737 0.0
H1095 H 0.91673 0.42036 0.56483 0.0
C1096 C 0.91326 0.50787 0.74839 0.0
C1097 C 0.90451 0.51895 0.71027 0.0
C1098 C 0.91477 0.48641 0.73477 0.0
C1099 C 0.90765 0.47544 0.68263 0.0
C1100 C 0.89972 0.48703 0.64399 0.0
C1101 C 0.89816 0.50845 0.6576 0.0
C1102 C 0.89547 0.40832 0.69557 0.0
C1103 C 0.90164 0.40349 0.64341 0.0
C1104 C 0.89806 0.43176 0.70845 0.0
C1105 C 0.90696 0.4512 0.66967 0.0
C1106 C 0.91397 0.44674 0.61802 0.0
C1107 C 0.91147 0.42321 0.60514 0.0
H1108 H 0.53014 0.89704 0.08357 0.0
H1109 H 0.50768 0.88638 0.91458 0.0
H1110 H 0.49443 0.90229 0.10608 0.0
H1111 H 0.47069 0.88929 0.93731 0.0
H1112 H 0.41154 0.90882 0.9821 0.0
H1113 H 0.45168 0.91155 0.96079 0.0
H1114 H 0.45247 0.88201 0.12052 0.0
H1115 H 0.41361 0.88132 0.14255 0.0
C1116 C 0.5174 0.89554 0.05119 0.0
C1117 C 0.52174 0.89101 0.99726 0.0
C1118 C 0.49662 0.8983 0.06418 0.0
C1119 C 0.47906 0.8959 0.0239 0.0
C1120 C 0.48373 0.89172 0.96974 0.0
C1121 C 0.50493 0.8897 0.95657 0.0
C1122 C 0.42061 0.90336 1.01288 0.0
C1123 C 0.40939 0.89497 0.06416 0.0
C1124 C 0.44357 0.9046 1.0005 0.0
C1125 C 0.45562 0.89676 0.03851 0.0
C1126 C 0.44442 0.88878 0.09018 0.0
C1127 C 0.42186 0.88822 0.10298 0.0
H1128 H 0.64322 0.50606 0.39248 0.0
H1129 H 0.61738 0.50602 0.22853 0.0
H1130 H 0.60317 0.46935 0.41396 0.0
H1131 H 0.57651 0.4697 0.25097 0.0
H1132 H 0.52183 0.38587 0.2884 0.0
H1133 H 0.55832 0.42612 0.26625 0.0
H1134 H 0.55999 0.45185 0.43093 0.0
H1135 H 0.52412 0.41089 0.45392 0.0
C1136 C 0.62892 0.4984 0.36098 0.0
C1137 C 0.63389 0.50884 0.30831 0.0
C1138 C 0.60566 0.47738 0.37363 0.0
C1139 C 0.58642 0.46626 0.33425 0.0
C1140 C 0.59097 0.47736 0.28216 0.0
C1141 C 0.61441 0.49835 0.26932 0.0
C1142 C 0.52993 0.40002 0.32009 0.0
C1143 C 0.52027 0.39474 0.37342 0.0
C1144 C 0.5508 0.42338 0.30709 0.0
C1145 C 0.56248 0.44236 0.34682 0.0
C1146 C 0.55197 0.43756 0.39946 0.0
C1147 C 0.53121 0.41405 0.41263 0.0
H1148 H 0.13035 0.61966 0.57525 0.0
H1149 H 0.15101 0.64381 0.74209 0.0
H1150 H 0.12673 0.57919 0.59743 0.0
H1151 H 0.14818 0.60366 0.76372 0.0
H1152 H 0.16074 0.52898 0.63617 0.0
H1153 H 0.15618 0.56527 0.6167 0.0
H1154 H 0.12222 0.55836 0.77436 0.0
H1155 H 0.12733 0.52196 0.79464 0.0
C1156 C 0.13405 0.61638 0.61672 0.0
C1157 C 0.14159 0.63539 0.65648 0.0
C1158 C 0.13209 0.59315 0.62941 0.0
C1159 C 0.1376 0.58823 0.6822 0.0
C1160 C 0.14373 0.60668 0.72268 0.0
C1161 C 0.14563 0.6299 0.71003 0.0
C1162 C 0.15225 0.53504 0.66691 0.0
C1163 C 0.14475 0.52261 0.71742 0.0
C1164 C 0.14936 0.55582 0.65538 0.0
C1165 C 0.1388 0.56486 0.69385 0.0
C1166 C 0.1307 0.55211 0.74397 0.0
C1167 C 0.13354 0.53116 0.75553 0.0
H1168 H 0.65385 0.15747 0.97152 0.0
H1169 H 0.62295 0.12082 0.12533 0.0
H1170 H 0.61333 0.15344 0.94728 0.0
H1171 H 0.58239 0.11655 0.10064 0.0
H1172 H 0.52619 0.14467 0.06758 0.0
H1173 H 0.56457 0.14396 0.08977 0.0
H1174 H 0.5694 0.12349 0.9238 0.0
H1175 H 0.53093 0.12439 0.90118 0.0
C1176 C 0.6384 0.14837 1.00006 0.0
C1177 C 0.64186 0.13969 0.05068 0.0
C1178 C 0.61506 0.14591 0.98593 0.0
C1179 C 0.59455 0.13477 0.02205 0.0
C1180 C 0.59785 0.12557 0.07213 0.0
C1181 C 0.62115 0.12794 0.0862 0.0
C1182 C 0.53524 0.13981 0.03571 0.0
C1183 C 0.52543 0.13479 0.98235 0.0
C1184 C 0.55727 0.13927 0.04862 0.0
C1185 C 0.57021 0.13376 1.00859 0.0
C1186 C 0.56012 0.12816 0.95549 0.0
C1187 C 0.53796 0.12856 0.94258 0.0
loop_
_geom_bond_atom_site_label_1
_geom_bond_atom_site_label_2
_geom_bond_distance
_geom_bond_site_symmetry_2
_ccdc_geom_bond_type
Co0 O2 2.143 . S
Co0 O8 2.074 . S
Co0 O11 2.093 . S
Co0 O24 2.097 . S
Co0 N41 2.151 . S
Co0 N49 2.214 . S
Co1 O2 2.160 . S
Co1 O7 2.058 . S
Co1 O17 2.057 . S
Co1 O32 2.037 . S
Co1 N36 2.145 . S
Co1 N57 2.257 . S
O2 Co0 2.143 . S
O2 Co1 2.160 . S
C3 O4 1.278 . S
C3 O11 1.224 . S
O4 C3 1.278 . S
C5 O6 1.245 . S
C5 O17 1.232 . S
O6 C5 1.245 . S
O7 Co1 2.058 . S
O7 C33 1.269 . S
O8 Co0 2.074 . S
O8 C33 1.257 . S
H9 C34 0.930 . S
H10 C40 0.930 . S
O11 Co0 2.093 . S
O11 C3 1.224 . S
H12 C44 0.929 . S
H13 C46 0.930 . S
H14 C47 0.930 . S
H15 C45 0.929 . S
H16 C48 0.928 . S
O17 Co1 2.057 . S
O17 C5 1.232 . S
H18 C37 0.929 . S
H19 C38 0.929 . S
H20 C50 0.931 . S
H21 C42 0.929 . S
H22 C51 0.930 . S
H23 C43 0.931 . S
O24 Co0 2.097 . S
O24 C52 1.214 . S
H25 C53 0.929 . S
H26 C54 0.929 . S
H27 C55 0.930 . S
H28 C56 0.929 . S
H29 C58 0.930 . S
H30 C35 0.930 . S
H31 C39 0.930 . S
O32 Co1 2.037 . S
O32 C52 1.234 . S
C33 O7 1.269 . S
C33 O8 1.257 . S
C34 H9 0.930 . S
C34 C37 1.388 . S
C34 C39 1.418 . S
C35 H30 0.930 . S
C35 C38 1.404 . S
C35 C39 1.353 . S
N36 Co1 2.145 . S
N36 C37 1.397 . S
N36 C38 1.334 . S
C37 H18 0.929 . S
C37 C34 1.388 . S
C37 N36 1.397 . S
C38 H19 0.929 . S
C38 C35 1.404 . S
C38 N36 1.334 . S
C39 H31 0.930 . S
C39 C34 1.418 . S
C39 C35 1.353 . S
C40 H10 0.930 . S
C40 N41 1.330 . S
C40 C42 1.446 . S
N41 Co0 2.151 . S
N41 C40 1.330 . S
N41 C45 1.418 . S
C42 H21 0.929 . S
C42 C40 1.446 . S
C42 C43 1.332 . S
C43 H23 0.931 . S
C43 C42 1.332 . S
C43 C44 1.267 . S
C44 H12 0.929 . S
C44 C43 1.267 . S
C44 C45 1.251 . S
C45 H15 0.929 . S
C45 N41 1.418 . S
C45 C44 1.251 . S
C46 H13 0.930 . S
C46 C48 1.406 . S
C46 C51 1.261 . S
C47 H14 0.930 . S
C47 N49 1.325 . S
C47 C50 1.357 . S
C48 H16 0.928 . S
C48 C46 1.406 . S
C48 N49 1.261 . S
N49 Co0 2.214 . S
N49 C47 1.325 . S
N49 C48 1.261 . S
C50 H20 0.931 . S
C50 C47 1.357 . S
C50 C51 1.312 . S
C51 H22 0.930 . S
C51 C46 1.261 . S
C51 C50 1.312 . S
C52 O24 1.214 . S
C52 O32 1.234 . S
C53 H25 0.929 . S
C53 C56 1.391 . S
C53 C58 1.391 . S
C54 H26 0.929 . S
C54 C55 1.390 . S
C54 N57 1.391 . S
C55 H27 0.930 . S
C55 C54 1.390 . S
C55 C56 1.392 . S
C56 H28 0.929 . S
C56 C53 1.391 . S
C56 C55 1.392 . S
N57 Co1 2.257 . S
N57 C54 1.391 . S
N57 C58 1.388 . S
C58 H29 0.930 . S
C58 C53 1.391 . S
C58 N57 1.388 . S
Co59 O61 2.143 . S
Co59 O67 2.074 . S
Co59 O70 2.093 . S
Co59 O83 2.097 . S
Co59 N100 2.151 . S
Co59 N108 2.214 . S
Co60 O61 2.160 . S
Co60 O66 2.058 . S
Co60 O76 2.057 . S
Co60 O91 2.037 . S
Co60 N95 2.145 . S
Co60 N116 2.257 . S
O61 Co59 2.143 . S
O61 Co60 2.160 . S
C62 O63 1.278 . S
C62 O70 1.224 . S
O63 C62 1.278 . S
C64 O65 1.245 . S
C64 O76 1.232 . S
O65 C64 1.245 . S
O66 Co60 2.058 . S
O66 C92 1.269 . S
O67 Co59 2.074 . S
O67 C92 1.257 . S
H68 C93 0.930 . S
H69 C99 0.930 . S
O70 Co59 2.093 . S
O70 C62 1.224 . S
H71 C103 0.929 . S
H72 C105 0.930 . S
H73 C106 0.930 . S
H74 C104 0.929 . S
H75 C107 0.928 . S
O76 Co60 2.057 . S
O76 C64 1.232 . S
H77 C96 0.929 . S
H78 C97 0.929 . S
H79 C109 0.931 . S
H80 C101 0.929 . S
H81 C110 0.930 . S
H82 C102 0.931 . S
O83 Co59 2.097 . S
O83 C111 1.214 . S
H84 C112 0.929 . S
H85 C113 0.929 . S
H86 C114 0.930 . S
H87 C115 0.929 . S
H88 C117 0.930 . S
H89 C94 0.930 . S
H90 C98 0.930 . S
O91 Co60 2.037 . S
O91 C111 1.234 . S
C92 O66 1.269 . S
C92 O67 1.257 . S
C93 H68 0.930 . S
C93 C96 1.388 . S
C93 C98 1.418 . S
C94 H89 0.930 . S
C94 C97 1.404 . S
C94 C98 1.353 . S
N95 Co60 2.145 . S
N95 C96 1.397 . S
N95 C97 1.334 . S
C96 H77 0.929 . S
C96 C93 1.388 . S
C96 N95 1.397 . S
C97 H78 0.929 . S
C97 C94 1.404 . S
C97 N95 1.334 . S
C98 H90 0.930 . S
C98 C93 1.418 . S
C98 C94 1.353 . S
C99 H69 0.930 . S
C99 N100 1.330 . S
C99 C101 1.446 . S
N100 Co59 2.151 . S
N100 C99 1.330 . S
N100 C104 1.418 . S
C101 H80 0.929 . S
C101 C99 1.446 . S
C101 C102 1.332 . S
C102 H82 0.931 . S
C102 C101 1.332 . S
C102 C103 1.267 . S
C103 H71 0.929 . S
C103 C102 1.267 . S
C103 C104 1.251 . S
C104 H74 0.929 . S
C104 N100 1.418 . S
C104 C103 1.251 . S
C105 H72 0.930 . S
C105 C107 1.406 . S
C105 C110 1.261 . S
C106 H73 0.930 . S
C106 N108 1.325 . S
C106 C109 1.357 . S
C107 H75 0.928 . S
C107 C105 1.406 . S
C107 N108 1.261 . S
N108 Co59 2.214 . S
N108 C106 1.325 . S
N108 C107 1.261 . S
C109 H79 0.931 . S
C109 C106 1.357 . S
C109 C110 1.312 . S
C110 H81 0.930 . S
C110 C105 1.261 . S
C110 C109 1.312 . S
C111 O83 1.214 . S
C111 O91 1.234 . S
C112 H84 0.929 . S
C112 C115 1.391 . S
C112 C117 1.391 . S
C113 H85 0.929 . S
C113 C114 1.390 . S
C113 N116 1.391 . S
C114 H86 0.930 . S
C114 C113 1.390 . S
C114 C115 1.392 . S
C115 H87 0.929 . S
C115 C112 1.391 . S
C115 C114 1.392 . S
N116 Co60 2.257 . S
N116 C113 1.391 . S
N116 C117 1.388 . S
C117 H88 0.930 . S
C117 C112 1.391 . S
C117 N116 1.388 . S
Co118 O120 2.143 1_554 S
Co118 O126 2.074 1_554 S
Co118 O129 2.093 . S
Co118 O142 2.097 . S
Co118 N159 2.151 . S
Co118 N167 2.214 . S
Co119 O120 2.160 . S
Co119 O125 2.058 . S
Co119 O135 2.057 . S
Co119 O150 2.037 . S
Co119 N154 2.145 . S
Co119 N175 2.257 . S
O120 Co118 2.143 1_556 S
O120 Co119 2.160 . S
C121 O122 1.278 1_554 S
C121 O129 1.224 . S
O122 C121 1.278 1_556 S
C123 O124 1.245 . S
C123 O135 1.232 . S
O124 C123 1.245 . S
O125 Co119 2.058 . S
O125 C151 1.269 . S
O126 Co118 2.074 1_556 S
O126 C151 1.257 . S
H127 C152 0.930 . S
H128 C158 0.930 . S
O129 Co118 2.093 . S
O129 C121 1.224 . S
H130 C162 0.929 . S
H131 C164 0.930 . S
H132 C165 0.930 . S
H133 C163 0.929 . S
H134 C166 0.928 . S
O135 Co119 2.057 . S
O135 C123 1.232 . S
H136 C155 0.929 . S
H137 C156 0.929 . S
H138 C168 0.931 . S
H139 C160 0.929 . S
H140 C169 0.930 . S
H141 C161 0.931 . S
O142 Co118 2.097 . S
O142 C170 1.214 1_554 S
H143 C171 0.929 . S
H144 C172 0.929 . S
H145 C173 0.930 . S
H146 C174 0.929 . S
H147 C176 0.930 . S
H148 C153 0.930 . S
H149 C157 0.930 . S
O150 Co119 2.037 . S
O150 C170 1.234 . S
C151 O125 1.269 . S
C151 O126 1.257 . S
C152 H127 0.930 . S
C152 C155 1.388 . S
C152 C157 1.418 . S
C153 H148 0.930 . S
C153 C156 1.404 . S
C153 C157 1.353 . S
N154 Co119 2.145 . S
N154 C155 1.397 . S
N154 C156 1.334 . S
C155 H136 0.929 . S
C155 C152 1.388 . S
C155 N154 1.397 . S
C156 H137 0.929 . S
C156 C153 1.404 . S
C156 N154 1.334 . S
C157 H149 0.930 . S
C157 C152 1.418 . S
C157 C153 1.353 . S
C158 H128 0.930 . S
C158 N159 1.330 . S
C158 C160 1.446 . S
N159 Co118 2.151 . S
N159 C158 1.330 . S
N159 C163 1.418 . S
C160 H139 0.929 . S
C160 C158 1.446 . S
C160 C161 1.332 . S
C161 H141 0.931 . S
C161 C160 1.332 . S
C161 C162 1.267 . S
C162 H130 0.929 . S
C162 C161 1.267 . S
C162 C163 1.251 . S
C163 H133 0.929 . S
C163 N159 1.418 . S
C163 C162 1.251 . S
C164 H131 0.930 . S
C164 C166 1.406 . S
C164 C169 1.261 . S
C165 H132 0.930 . S
C165 N167 1.325 . S
C165 C168 1.357 . S
C166 H134 0.928 . S
C166 C164 1.406 . S
C166 N167 1.261 . S
N167 Co118 2.214 . S
N167 C165 1.325 . S
N167 C166 1.261 . S
C168 H138 0.931 . S
C168 C165 1.357 . S
C168 C169 1.312 . S
C169 H140 0.930 . S
C169 C164 1.261 . S
C169 C168 1.312 . S
C170 O142 1.214 1_556 S
C170 O150 1.234 . S
C171 H143 0.929 . S
C171 C174 1.391 . S
C171 C176 1.391 . S
C172 H144 0.929 . S
C172 C173 1.390 . S
C172 N175 1.391 . S
C173 H145 0.930 . S
C173 C172 1.390 . S
C173 C174 1.392 . S
C174 H146 0.929 . S
C174 C171 1.391 . S
C174 C173 1.392 . S
N175 Co119 2.257 . S
N175 C172 1.391 . S
N175 C176 1.388 . S
C176 H147 0.930 . S
C176 C171 1.391 . S
C176 N175 1.388 . S
Co177 O179 2.143 . S
Co177 O185 2.074 . S
Co177 O188 2.093 . S
Co177 O201 2.097 . S
Co177 N218 2.151 . S
Co177 N226 2.214 . S
Co178 O179 2.160 . S
Co178 O184 2.058 . S
Co178 O194 2.057 . S
Co178 O209 2.037 . S
Co178 N213 2.145 . S
Co178 N234 2.257 . S
O179 Co177 2.143 . S
O179 Co178 2.160 . S
C180 O181 1.278 . S
C180 O188 1.224 . S
O181 C180 1.278 . S
C182 O183 1.245 . S
C182 O194 1.232 . S
O183 C182 1.245 . S
O184 Co178 2.058 . S
O184 C210 1.269 . S
O185 Co177 2.074 . S
O185 C210 1.257 . S
H186 C211 0.930 . S
H187 C217 0.930 . S
O188 Co177 2.093 . S
O188 C180 1.224 . S
H189 C221 0.929 . S
H190 C223 0.930 . S
H191 C224 0.930 . S
H192 C222 0.929 . S
H193 C225 0.928 . S
O194 Co178 2.057 . S
O194 C182 1.232 . S
H195 C214 0.929 . S
H196 C215 0.929 . S
H197 C227 0.931 . S
H198 C219 0.929 . S
H199 C228 0.930 . S
H200 C220 0.931 . S
O201 Co177 2.097 . S
O201 C229 1.214 . S
H202 C230 0.929 . S
H203 C231 0.929 . S
H204 C232 0.930 . S
H205 C233 0.929 . S
H206 C235 0.930 . S
H207 C212 0.930 . S
H208 C216 0.930 . S
O209 Co178 2.037 . S
O209 C229 1.234 . S
C210 O184 1.269 . S
C210 O185 1.257 . S
C211 H186 0.930 . S
C211 C214 1.388 . S
C211 C216 1.418 . S
C212 H207 0.930 . S
C212 C215 1.404 . S
C212 C216 1.353 . S
N213 Co178 2.145 . S
N213 C214 1.397 . S
N213 C215 1.334 . S
C214 H195 0.929 . S
C214 C211 1.388 . S
C214 N213 1.397 . S
C215 H196 0.929 . S
C215 C212 1.404 . S
C215 N213 1.334 . S
C216 H208 0.930 . S
C216 C211 1.418 . S
C216 C212 1.353 . S
C217 H187 0.930 . S
C217 N218 1.330 . S
C217 C219 1.446 . S
N218 Co177 2.151 . S
N218 C217 1.330 . S
N218 C222 1.418 . S
C219 H198 0.929 . S
C219 C217 1.446 . S
C219 C220 1.332 . S
C220 H200 0.931 . S
C220 C219 1.332 . S
C220 C221 1.267 . S
C221 H189 0.929 . S
C221 C220 1.267 . S
C221 C222 1.251 . S
C222 H192 0.929 . S
C222 N218 1.418 . S
C222 C221 1.251 . S
C223 H190 0.930 . S
C223 C225 1.406 . S
C223 C228 1.261 . S
C224 H191 0.930 . S
C224 N226 1.325 . S
C224 C227 1.357 . S
C225 H193 0.928 . S
C225 C223 1.406 . S
C225 N226 1.261 . S
N226 Co177 2.214 . S
N226 C224 1.325 . S
N226 C225 1.261 . S
C227 H197 0.931 . S
C227 C224 1.357 . S
C227 C228 1.312 . S
C228 H199 0.930 . S
C228 C223 1.261 . S
C228 C227 1.312 . S
C229 O201 1.214 . S
C229 O209 1.234 . S
C230 H202 0.929 . S
C230 C233 1.391 . S
C230 C235 1.391 . S
C231 H203 0.929 . S
C231 C232 1.390 . S
C231 N234 1.391 . S
C232 H204 0.930 . S
C232 C231 1.390 . S
C232 C233 1.392 . S
C233 H205 0.929 . S
C233 C230 1.391 . S
C233 C232 1.392 . S
N234 Co178 2.257 . S
N234 C231 1.391 . S
N234 C235 1.388 . S
C235 H206 0.930 . S
C235 C230 1.391 . S
C235 N234 1.388 . S
Co236 O238 2.143 . S
Co236 O244 2.074 . S
Co236 O247 2.093 . S
Co236 O260 2.097 . S
Co236 N277 2.151 . S
Co236 N285 2.214 . S
Co237 O238 2.160 . S
Co237 O243 2.058 . S
Co237 O253 2.057 . S
Co237 O268 2.037 . S
Co237 N272 2.145 . S
Co237 N293 2.257 . S
O238 Co236 2.143 . S
O238 Co237 2.160 . S
C239 O240 1.278 . S
C239 O247 1.224 . S
O240 C239 1.278 . S
C241 O242 1.245 . S
C241 O253 1.232 . S
O242 C241 1.245 . S
O243 Co237 2.058 . S
O243 C269 1.269 . S
O244 Co236 2.074 . S
O244 C269 1.257 . S
H245 C270 0.930 . S
H246 C276 0.930 . S
O247 Co236 2.093 . S
O247 C239 1.224 . S
H248 C280 0.929 . S
H249 C282 0.930 . S
H250 C283 0.930 . S
H251 C281 0.929 . S
H252 C284 0.928 . S
O253 Co237 2.057 . S
O253 C241 1.232 . S
H254 C273 0.929 . S
H255 C274 0.929 . S
H256 C286 0.931 . S
H257 C278 0.929 . S
H258 C287 0.930 . S
H259 C279 0.931 . S
O260 Co236 2.097 . S
O260 C288 1.214 . S
H261 C289 0.929 . S
H262 C290 0.929 . S
H263 C291 0.930 . S
H264 C292 0.929 . S
H265 C294 0.930 . S
H266 C271 0.930 . S
H267 C275 0.930 . S
O268 Co237 2.037 . S
O268 C288 1.234 . S
C269 O243 1.269 . S
C269 O244 1.257 . S
C270 H245 0.930 . S
C270 C273 1.388 . S
C270 C275 1.418 . S
C271 H266 0.930 . S
C271 C274 1.404 . S
C271 C275 1.353 . S
N272 Co237 2.145 . S
N272 C273 1.397 . S
N272 C274 1.334 . S
C273 H254 0.929 . S
C273 C270 1.388 . S
C273 N272 1.397 . S
C274 H255 0.929 . S
C274 C271 1.404 . S
C274 N272 1.334 . S
C275 H267 0.930 . S
C275 C270 1.418 . S
C275 C271 1.353 . S
C276 H246 0.930 . S
C276 N277 1.330 . S
C276 C278 1.446 . S
N277 Co236 2.151 . S
N277 C276 1.330 . S
N277 C281 1.418 . S
C278 H257 0.929 . S
C278 C276 1.446 . S
C278 C279 1.332 . S
C279 H259 0.931 . S
C279 C278 1.332 . S
C279 C280 1.267 . S
C280 H248 0.929 . S
C280 C279 1.267 . S
C280 C281 1.251 . S
C281 H251 0.929 . S
C281 N277 1.418 . S
C281 C280 1.251 . S
C282 H249 0.930 . S
C282 C284 1.406 . S
C282 C287 1.261 . S
C283 H250 0.930 . S
C283 N285 1.325 . S
C283 C286 1.357 . S
C284 H252 0.928 . S
C284 C282 1.406 . S
C284 N285 1.261 . S
N285 Co236 2.214 . S
N285 C283 1.325 . S
N285 C284 1.261 . S
C286 H256 0.931 . S
C286 C283 1.357 . S
C286 C287 1.312 . S
C287 H258 0.930 . S
C287 C282 1.261 . S
C287 C286 1.312 . S
C288 O260 1.214 . S
C288 O268 1.234 . S
C289 H261 0.929 . S
C289 C292 1.391 . S
C289 C294 1.391 . S
C290 H262 0.929 . S
C290 C291 1.390 . S
C290 N293 1.391 . S
C291 H263 0.930 . S
C291 C290 1.390 . S
C291 C292 1.392 . S
C292 H264 0.929 . S
C292 C289 1.391 . S
C292 C291 1.392 . S
N293 Co237 2.257 . S
N293 C290 1.391 . S
N293 C294 1.388 . S
C294 H265 0.930 . S
C294 C289 1.391 . S
C294 N293 1.388 . S
Co295 O297 2.143 1_554 S
Co295 O303 2.074 1_554 S
Co295 O306 2.093 . S
Co295 O319 2.097 . S
Co295 N336 2.151 . S
Co295 N344 2.214 . S
Co296 O297 2.160 . S
Co296 O302 2.058 . S
Co296 O312 2.057 . S
Co296 O327 2.037 . S
Co296 N331 2.145 . S
Co296 N352 2.257 . S
O297 Co295 2.143 1_556 S
O297 Co296 2.160 . S
C298 O299 1.278 1_554 S
C298 O306 1.224 . S
O299 C298 1.278 1_556 S
C300 O301 1.245 . S
C300 O312 1.232 . S
O301 C300 1.245 . S
O302 Co296 2.058 . S
O302 C328 1.269 . S
O303 Co295 2.074 1_556 S
O303 C328 1.257 . S
H304 C329 0.930 . S
H305 C335 0.930 . S
O306 Co295 2.093 . S
O306 C298 1.224 . S
H307 C339 0.929 . S
H308 C341 0.930 . S
H309 C342 0.930 . S
H310 C340 0.929 . S
H311 C343 0.928 . S
O312 Co296 2.057 . S
O312 C300 1.232 . S
H313 C332 0.929 . S
H314 C333 0.929 . S
H315 C345 0.931 . S
H316 C337 0.929 . S
H317 C346 0.930 . S
H318 C338 0.931 . S
O319 Co295 2.097 . S
O319 C347 1.214 1_554 S
H320 C348 0.929 . S
H321 C349 0.929 . S
H322 C350 0.930 . S
H323 C351 0.929 . S
H324 C353 0.930 . S
H325 C330 0.930 . S
H326 C334 0.930 . S
O327 Co296 2.037 . S
O327 C347 1.234 . S
C328 O302 1.269 . S
C328 O303 1.257 . S
C329 H304 0.930 . S
C329 C332 1.388 . S
C329 C334 1.418 . S
C330 H325 0.930 . S
C330 C333 1.404 . S
C330 C334 1.353 . S
N331 Co296 2.145 . S
N331 C332 1.397 . S
N331 C333 1.334 . S
C332 H313 0.929 . S
C332 C329 1.388 . S
C332 N331 1.397 . S
C333 H314 0.929 . S
C333 C330 1.404 . S
C333 N331 1.334 . S
C334 H326 0.930 . S
C334 C329 1.418 . S
C334 C330 1.353 . S
C335 H305 0.930 . S
C335 N336 1.330 . S
C335 C337 1.446 . S
N336 Co295 2.151 . S
N336 C335 1.330 . S
N336 C340 1.418 . S
C337 H316 0.929 . S
C337 C335 1.446 . S
C337 C338 1.332 . S
C338 H318 0.931 . S
C338 C337 1.332 . S
C338 C339 1.267 . S
C339 H307 0.929 . S
C339 C338 1.267 . S
C339 C340 1.251 . S
C340 H310 0.929 . S
C340 N336 1.418 . S
C340 C339 1.251 . S
C341 H308 0.930 . S
C341 C343 1.406 . S
C341 C346 1.261 . S
C342 H309 0.930 . S
C342 N344 1.325 . S
C342 C345 1.357 . S
C343 H311 0.928 . S
C343 C341 1.406 . S
C343 N344 1.261 . S
N344 Co295 2.214 . S
N344 C342 1.325 . S
N344 C343 1.261 . S
C345 H315 0.931 . S
C345 C342 1.357 . S
C345 C346 1.312 . S
C346 H317 0.930 . S
C346 C341 1.261 . S
C346 C345 1.312 . S
C347 O319 1.214 1_556 S
C347 O327 1.234 . S
C348 H320 0.929 . S
C348 C351 1.391 . S
C348 C353 1.391 . S
C349 H321 0.929 . S
C349 C350 1.390 . S
C349 N352 1.391 . S
C350 H322 0.930 . S
C350 C349 1.390 . S
C350 C351 1.392 . S
C351 H323 0.929 . S
C351 C348 1.391 . S
C351 C350 1.392 . S
N352 Co296 2.257 . S
N352 C349 1.391 . S
N352 C353 1.388 . S
C353 H324 0.930 . S
C353 C348 1.391 . S
C353 N352 1.388 . S
Co354 O356 2.143 . S
Co354 O362 2.074 . S
Co354 O365 2.093 . S
Co354 O378 2.097 . S
Co354 N395 2.151 . S
Co354 N403 2.214 . S
Co355 O356 2.160 . S
Co355 O361 2.058 . S
Co355 O371 2.057 . S
Co355 O386 2.037 . S
Co355 N390 2.145 . S
Co355 N411 2.257 . S
O356 Co354 2.143 . S
O356 Co355 2.160 . S
C357 O358 1.278 . S
C357 O365 1.224 . S
O358 C357 1.278 . S
C359 O360 1.245 . S
C359 O371 1.232 . S
O360 C359 1.245 . S
O361 Co355 2.058 . S
O361 C387 1.269 . S
O362 Co354 2.074 . S
O362 C387 1.257 . S
H363 C388 0.930 . S
H364 C394 0.930 . S
O365 Co354 2.093 . S
O365 C357 1.224 . S
H366 C398 0.929 . S
H367 C400 0.930 . S
H368 C401 0.930 . S
H369 C399 0.929 . S
H370 C402 0.928 . S
O371 Co355 2.057 . S
O371 C359 1.232 . S
H372 C391 0.929 . S
H373 C392 0.929 . S
H374 C404 0.931 . S
H375 C396 0.929 . S
H376 C405 0.930 . S
H377 C397 0.931 . S
O378 Co354 2.097 . S
O378 C406 1.214 . S
H379 C407 0.929 . S
H380 C408 0.929 . S
H381 C409 0.930 . S
H382 C410 0.929 . S
H383 C412 0.930 . S
H384 C389 0.930 . S
H385 C393 0.930 . S
O386 Co355 2.037 . S
O386 C406 1.234 . S
C387 O361 1.269 . S
C387 O362 1.257 . S
C388 H363 0.930 . S
C388 C391 1.388 . S
C388 C393 1.418 . S
C389 H384 0.930 . S
C389 C392 1.404 . S
C389 C393 1.353 . S
N390 Co355 2.145 . S
N390 C391 1.397 . S
N390 C392 1.334 . S
C391 H372 0.929 . S
C391 C388 1.388 . S
C391 N390 1.397 . S
C392 H373 0.929 . S
C392 C389 1.404 . S
C392 N390 1.334 . S
C393 H385 0.930 . S
C393 C388 1.418 . S
C393 C389 1.353 . S
C394 H364 0.930 . S
C394 N395 1.330 . S
C394 C396 1.446 . S
N395 Co354 2.151 . S
N395 C394 1.330 . S
N395 C399 1.418 . S
C396 H375 0.929 . S
C396 C394 1.446 . S
C396 C397 1.332 . S
C397 H377 0.931 . S
C397 C396 1.332 . S
C397 C398 1.267 . S
C398 H366 0.929 . S
C398 C397 1.267 . S
C398 C399 1.251 . S
C399 H369 0.929 . S
C399 N395 1.418 . S
C399 C398 1.251 . S
C400 H367 0.930 . S
C400 C402 1.406 . S
C400 C405 1.261 . S
C401 H368 0.930 . S
C401 N403 1.325 . S
C401 C404 1.357 . S
C402 H370 0.928 . S
C402 C400 1.406 . S
C402 N403 1.261 . S
N403 Co354 2.214 . S
N403 C401 1.325 . S
N403 C402 1.261 . S
C404 H374 0.931 . S
C404 C401 1.357 . S
C404 C405 1.312 . S
C405 H376 0.930 . S
C405 C400 1.261 . S
C405 C404 1.312 . S
C406 O378 1.214 . S
C406 O386 1.234 . S
C407 H379 0.929 . S
C407 C410 1.391 . S
C407 C412 1.391 . S
C408 H380 0.929 . S
C408 C409 1.390 . S
C408 N411 1.391 . S
C409 H381 0.930 . S
C409 C408 1.390 . S
C409 C410 1.392 . S
C410 H382 0.929 . S
C410 C407 1.391 . S
C410 C409 1.392 . S
N411 Co355 2.257 . S
N411 C408 1.391 . S
N411 C412 1.388 . S
C412 H383 0.930 . S
C412 C407 1.391 . S
C412 N411 1.388 . S
Co413 O415 2.143 . S
Co413 O421 2.074 . S
Co413 O424 2.093 . S
Co413 O437 2.097 . S
Co413 N454 2.151 . S
Co413 N462 2.214 . S
Co414 O415 2.160 . S
Co414 O420 2.058 . S
Co414 O430 2.057 . S
Co414 O445 2.037 . S
Co414 N449 2.145 . S
Co414 N470 2.257 . S
O415 Co413 2.143 . S
O415 Co414 2.160 . S
C416 O417 1.278 . S
C416 O424 1.224 . S
O417 C416 1.278 . S
C418 O419 1.245 . S
C418 O430 1.232 . S
O419 C418 1.245 . S
O420 Co414 2.058 . S
O420 C446 1.269 . S
O421 Co413 2.074 . S
O421 C446 1.257 . S
H422 C447 0.930 . S
H423 C453 0.930 . S
O424 Co413 2.093 . S
O424 C416 1.224 . S
H425 C457 0.929 . S
H426 C459 0.930 . S
H427 C460 0.930 . S
H428 C458 0.929 . S
H429 C461 0.928 . S
O430 Co414 2.057 . S
O430 C418 1.232 . S
H431 C450 0.929 . S
H432 C451 0.929 . S
H433 C463 0.931 . S
H434 C455 0.929 . S
H435 C464 0.930 . S
H436 C456 0.931 . S
O437 Co413 2.097 . S
O437 C465 1.214 . S
H438 C466 0.929 . S
H439 C467 0.929 . S
H440 C468 0.930 . S
H441 C469 0.929 . S
H442 C471 0.930 . S
H443 C448 0.930 . S
H444 C452 0.930 . S
O445 Co414 2.037 . S
O445 C465 1.234 . S
C446 O420 1.269 . S
C446 O421 1.257 . S
C447 H422 0.930 . S
C447 C450 1.388 . S
C447 C452 1.418 . S
C448 H443 0.930 . S
C448 C451 1.404 . S
C448 C452 1.353 . S
N449 Co414 2.145 . S
N449 C450 1.397 . S
N449 C451 1.334 . S
C450 H431 0.929 . S
C450 C447 1.388 . S
C450 N449 1.397 . S
C451 H432 0.929 . S
C451 C448 1.404 . S
C451 N449 1.334 . S
C452 H444 0.930 . S
C452 C447 1.418 . S
C452 C448 1.353 . S
C453 H423 0.930 . S
C453 N454 1.330 . S
C453 C455 1.446 . S
N454 Co413 2.151 . S
N454 C453 1.330 . S
N454 C458 1.418 . S
C455 H434 0.929 . S
C455 C453 1.446 . S
C455 C456 1.332 . S
C456 H436 0.931 . S
C456 C455 1.332 . S
C456 C457 1.267 . S
C457 H425 0.929 . S
C457 C456 1.267 . S
C457 C458 1.251 . S
C458 H428 0.929 . S
C458 N454 1.418 . S
C458 C457 1.251 . S
C459 H426 0.930 . S
C459 C461 1.406 . S
C459 C464 1.261 . S
C460 H427 0.930 . S
C460 N462 1.325 . S
C460 C463 1.357 . S
C461 H429 0.928 . S
C461 C459 1.406 . S
C461 N462 1.261 . S
N462 Co413 2.214 . S
N462 C460 1.325 . S
N462 C461 1.261 . S
C463 H433 0.931 . S
C463 C460 1.357 . S
C463 C464 1.312 . S
C464 H435 0.930 . S
C464 C459 1.261 . S
C464 C463 1.312 . S
C465 O437 1.214 . S
C465 O445 1.234 . S
C466 H438 0.929 . S
C466 C469 1.391 . S
C466 C471 1.391 . S
C467 H439 0.929 . S
C467 C468 1.390 . S
C467 N470 1.391 . S
C468 H440 0.930 . S
C468 C467 1.390 . S
C468 C469 1.392 . S
C469 H441 0.929 . S
C469 C466 1.391 . S
C469 C468 1.392 . S
N470 Co414 2.257 . S
N470 C467 1.391 . S
N470 C471 1.388 . S
C471 H442 0.930 . S
C471 C466 1.391 . S
C471 N470 1.388 . S
Co472 O474 2.143 1_556 S
Co472 O480 2.074 1_556 S
Co472 O483 2.093 . S
Co472 O496 2.097 . S
Co472 N513 2.151 . S
Co472 N521 2.214 . S
Co473 O474 2.160 . S
Co473 O479 2.058 . S
Co473 O489 2.057 . S
Co473 O504 2.037 . S
Co473 N508 2.145 . S
Co473 N529 2.257 . S
O474 Co472 2.143 1_554 S
O474 Co473 2.160 . S
C475 O476 1.278 1_556 S
C475 O483 1.224 . S
O476 C475 1.278 1_554 S
C477 O478 1.245 . S
C477 O489 1.232 . S
O478 C477 1.245 . S
O479 Co473 2.058 . S
O479 C505 1.269 . S
O480 Co472 2.074 1_554 S
O480 C505 1.257 . S
H481 C506 0.930 . S
H482 C512 0.930 . S
O483 Co472 2.093 . S
O483 C475 1.224 . S
H484 C516 0.929 . S
H485 C518 0.930 . S
H486 C519 0.930 . S
H487 C517 0.929 . S
H488 C520 0.928 . S
O489 Co473 2.057 . S
O489 C477 1.232 . S
H490 C509 0.929 . S
H491 C510 0.929 . S
H492 C522 0.931 . S
H493 C514 0.929 . S
H494 C523 0.930 . S
H495 C515 0.931 . S
O496 Co472 2.097 . S
O496 C524 1.214 1_556 S
H497 C525 0.929 . S
H498 C526 0.929 . S
H499 C527 0.930 . S
H500 C528 0.929 . S
H501 C530 0.930 . S
H502 C507 0.930 . S
H503 C511 0.930 . S
O504 Co473 2.037 . S
O504 C524 1.234 . S
C505 O479 1.269 . S
C505 O480 1.257 . S
C506 H481 0.930 . S
C506 C509 1.388 . S
C506 C511 1.418 . S
C507 H502 0.930 . S
C507 C510 1.404 . S
C507 C511 1.353 . S
N508 Co473 2.145 . S
N508 C509 1.397 . S
N508 C510 1.334 . S
C509 H490 0.929 . S
C509 C506 1.388 . S
C509 N508 1.397 . S
C510 H491 0.929 . S
C510 C507 1.404 . S
C510 N508 1.334 . S
C511 H503 0.930 . S
C511 C506 1.418 . S
C511 C507 1.353 . S
C512 H482 0.930 . S
C512 N513 1.330 . S
C512 C514 1.446 . S
N513 Co472 2.151 . S
N513 C512 1.330 . S
N513 C517 1.418 . S
C514 H493 0.929 . S
C514 C512 1.446 . S
C514 C515 1.332 . S
C515 H495 0.931 . S
C515 C514 1.332 . S
C515 C516 1.267 . S
C516 H484 0.929 . S
C516 C515 1.267 . S
C516 C517 1.251 . S
C517 H487 0.929 . S
C517 N513 1.418 . S
C517 C516 1.251 . S
C518 H485 0.930 . S
C518 C520 1.406 . S
C518 C523 1.261 . S
C519 H486 0.930 . S
C519 N521 1.325 . S
C519 C522 1.357 . S
C520 H488 0.928 . S
C520 C518 1.406 . S
C520 N521 1.261 . S
N521 Co472 2.214 . S
N521 C519 1.325 . S
N521 C520 1.261 . S
C522 H492 0.931 . S
C522 C519 1.357 . S
C522 C523 1.312 . S
C523 H494 0.930 . S
C523 C518 1.261 . S
C523 C522 1.312 . S
C524 O496 1.214 1_554 S
C524 O504 1.234 . S
C525 H497 0.929 . S
C525 C528 1.391 . S
C525 C530 1.391 . S
C526 H498 0.929 . S
C526 C527 1.390 . S
C526 N529 1.391 . S
C527 H499 0.930 . S
C527 C526 1.390 . S
C527 C528 1.392 . S
C528 H500 0.929 . S
C528 C525 1.391 . S
C528 C527 1.392 . S
N529 Co473 2.257 . S
N529 C526 1.391 . S
N529 C530 1.388 . S
C530 H501 0.930 . S
C530 C525 1.391 . S
C530 N529 1.388 . S
Co531 O533 2.143 . S
Co531 O539 2.074 . S
Co531 O542 2.093 . S
Co531 O555 2.097 . S
Co531 N572 2.151 . S
Co531 N580 2.214 . S
Co532 O533 2.160 . S
Co532 O538 2.058 . S
Co532 O548 2.057 . S
Co532 O563 2.037 . S
Co532 N567 2.145 . S
Co532 N588 2.257 . S
O533 Co531 2.143 . S
O533 Co532 2.160 . S
C534 O535 1.278 . S
C534 O542 1.224 . S
O535 C534 1.278 . S
C536 O537 1.245 . S
C536 O548 1.232 . S
O537 C536 1.245 . S
O538 Co532 2.058 . S
O538 C564 1.269 . S
O539 Co531 2.074 . S
O539 C564 1.257 . S
H540 C565 0.930 . S
H541 C571 0.930 . S
O542 Co531 2.093 . S
O542 C534 1.224 . S
H543 C575 0.929 . S
H544 C577 0.930 . S
H545 C578 0.930 . S
H546 C576 0.929 . S
H547 C579 0.928 . S
O548 Co532 2.057 . S
O548 C536 1.232 . S
H549 C568 0.929 . S
H550 C569 0.929 . S
H551 C581 0.931 . S
H552 C573 0.929 . S
H553 C582 0.930 . S
H554 C574 0.931 . S
O555 Co531 2.097 . S
O555 C583 1.214 . S
H556 C584 0.929 . S
H557 C585 0.929 . S
H558 C586 0.930 . S
H559 C587 0.929 . S
H560 C589 0.930 . S
H561 C566 0.930 . S
H562 C570 0.930 . S
O563 Co532 2.037 . S
O563 C583 1.234 . S
C564 O538 1.269 . S
C564 O539 1.257 . S
C565 H540 0.930 . S
C565 C568 1.388 . S
C565 C570 1.418 . S
C566 H561 0.930 . S
C566 C569 1.404 . S
C566 C570 1.353 . S
N567 Co532 2.145 . S
N567 C568 1.397 . S
N567 C569 1.334 . S
C568 H549 0.929 . S
C568 C565 1.388 . S
C568 N567 1.397 . S
C569 H550 0.929 . S
C569 C566 1.404 . S
C569 N567 1.334 . S
C570 H562 0.930 . S
C570 C565 1.418 . S
C570 C566 1.353 . S
C571 H541 0.930 . S
C571 N572 1.330 . S
C571 C573 1.446 . S
N572 Co531 2.151 . S
N572 C571 1.330 . S
N572 C576 1.418 . S
C573 H552 0.929 . S
C573 C571 1.446 . S
C573 C574 1.332 . S
C574 H554 0.931 . S
C574 C573 1.332 . S
C574 C575 1.267 . S
C575 H543 0.929 . S
C575 C574 1.267 . S
C575 C576 1.251 . S
C576 H546 0.929 . S
C576 N572 1.418 . S
C576 C575 1.251 . S
C577 H544 0.930 . S
C577 C579 1.406 . S
C577 C582 1.261 . S
C578 H545 0.930 . S
C578 N580 1.325 . S
C578 C581 1.357 . S
C579 H547 0.928 . S
C579 C577 1.406 . S
C579 N580 1.261 . S
N580 Co531 2.214 . S
N580 C578 1.325 . S
N580 C579 1.261 . S
C581 H551 0.931 . S
C581 C578 1.357 . S
C581 C582 1.312 . S
C582 H553 0.930 . S
C582 C577 1.261 . S
C582 C581 1.312 . S
C583 O555 1.214 . S
C583 O563 1.234 . S
C584 H556 0.929 . S
C584 C587 1.391 . S
C584 C589 1.391 . S
C585 H557 0.929 . S
C585 C586 1.390 . S
C585 N588 1.391 . S
C586 H558 0.930 . S
C586 C585 1.390 . S
C586 C587 1.392 . S
C587 H559 0.929 . S
C587 C584 1.391 . S
C587 C586 1.392 . S
N588 Co532 2.257 . S
N588 C585 1.391 . S
N588 C589 1.388 . S
C589 H560 0.930 . S
C589 C584 1.391 . S
C589 N588 1.388 . S
Co590 O592 2.143 . S
Co590 O598 2.074 . S
Co590 O601 2.093 . S
Co590 O614 2.097 . S
Co590 N631 2.151 . S
Co590 N639 2.214 . S
Co591 O592 2.160 . S
Co591 O597 2.058 . S
Co591 O607 2.057 . S
Co591 O622 2.037 . S
Co591 N626 2.145 . S
Co591 N647 2.257 . S
O592 Co590 2.143 . S
O592 Co591 2.160 . S
C593 O594 1.278 . S
C593 O601 1.224 . S
O594 C593 1.278 . S
C595 O596 1.245 . S
C595 O607 1.232 . S
O596 C595 1.245 . S
O597 Co591 2.058 . S
O597 C623 1.269 . S
O598 Co590 2.074 . S
O598 C623 1.257 . S
H599 C624 0.930 . S
H600 C630 0.930 . S
O601 Co590 2.093 . S
O601 C593 1.224 . S
H602 C634 0.929 . S
H603 C636 0.930 . S
H604 C637 0.930 . S
H605 C635 0.929 . S
H606 C638 0.928 . S
O607 Co591 2.057 . S
O607 C595 1.232 . S
H608 C627 0.929 . S
H609 C628 0.929 . S
H610 C640 0.931 . S
H611 C632 0.929 . S
H612 C641 0.930 . S
H613 C633 0.931 . S
O614 Co590 2.097 . S
O614 C642 1.214 . S
H615 C643 0.929 . S
H616 C644 0.929 . S
H617 C645 0.930 . S
H618 C646 0.929 . S
H619 C648 0.930 . S
H620 C625 0.930 . S
H621 C629 0.930 . S
O622 Co591 2.037 . S
O622 C642 1.234 . S
C623 O597 1.269 . S
C623 O598 1.257 . S
C624 H599 0.930 . S
C624 C627 1.388 . S
C624 C629 1.418 . S
C625 H620 0.930 . S
C625 C628 1.404 . S
C625 C629 1.353 . S
N626 Co591 2.145 . S
N626 C627 1.397 . S
N626 C628 1.334 . S
C627 H608 0.929 . S
C627 C624 1.388 . S
C627 N626 1.397 . S
C628 H609 0.929 . S
C628 C625 1.404 . S
C628 N626 1.334 . S
C629 H621 0.930 . S
C629 C624 1.418 . S
C629 C625 1.353 . S
C630 H600 0.930 . S
C630 N631 1.330 . S
C630 C632 1.446 . S
N631 Co590 2.151 . S
N631 C630 1.330 . S
N631 C635 1.418 . S
C632 H611 0.929 . S
C632 C630 1.446 . S
C632 C633 1.332 . S
C633 H613 0.931 . S
C633 C632 1.332 . S
C633 C634 1.267 . S
C634 H602 0.929 . S
C634 C633 1.267 . S
C634 C635 1.251 . S
C635 H605 0.929 . S
C635 N631 1.418 . S
C635 C634 1.251 . S
C636 H603 0.930 . S
C636 C638 1.406 . S
C636 C641 1.261 . S
C637 H604 0.930 . S
C637 N639 1.325 . S
C637 C640 1.357 . S
C638 H606 0.928 . S
C638 C636 1.406 . S
C638 N639 1.261 . S
N639 Co590 2.214 . S
N639 C637 1.325 . S
N639 C638 1.261 . S
C640 H610 0.931 . S
C640 C637 1.357 . S
C640 C641 1.312 . S
C641 H612 0.930 . S
C641 C636 1.261 . S
C641 C640 1.312 . S
C642 O614 1.214 . S
C642 O622 1.234 . S
C643 H615 0.929 . S
C643 C646 1.391 . S
C643 C648 1.391 . S
C644 H616 0.929 . S
C644 C645 1.390 . S
C644 N647 1.391 . S
C645 H617 0.930 . S
C645 C644 1.390 . S
C645 C646 1.392 . S
C646 H618 0.929 . S
C646 C643 1.391 . S
C646 C645 1.392 . S
N647 Co591 2.257 . S
N647 C644 1.391 . S
N647 C648 1.388 . S
C648 H619 0.930 . S
C648 C643 1.391 . S
C648 N647 1.388 . S
Co649 O651 2.143 1_556 S
Co649 O657 2.074 1_556 S
Co649 O660 2.093 . S
Co649 O673 2.097 . S
Co649 N690 2.151 . S
Co649 N698 2.214 . S
Co650 O651 2.160 . S
Co650 O656 2.058 . S
Co650 O666 2.057 . S
Co650 O681 2.037 . S
Co650 N685 2.145 . S
Co650 N706 2.257 . S
O651 Co649 2.143 1_554 S
O651 Co650 2.160 . S
C652 O653 1.278 1_556 S
C652 O660 1.224 . S
O653 C652 1.278 1_554 S
C654 O655 1.245 . S
C654 O666 1.232 . S
O655 C654 1.245 . S
O656 Co650 2.058 . S
O656 C682 1.269 . S
O657 Co649 2.074 1_554 S
O657 C682 1.257 . S
H658 C683 0.930 . S
H659 C689 0.930 . S
O660 Co649 2.093 . S
O660 C652 1.224 . S
H661 C693 0.929 . S
H662 C695 0.930 . S
H663 C696 0.930 . S
H664 C694 0.929 . S
H665 C697 0.928 . S
O666 Co650 2.057 . S
O666 C654 1.232 . S
H667 C686 0.929 . S
H668 C687 0.929 . S
H669 C699 0.931 . S
H670 C691 0.929 . S
H671 C700 0.930 . S
H672 C692 0.931 . S
O673 Co649 2.097 . S
O673 C701 1.214 1_556 S
H674 C702 0.929 . S
H675 C703 0.929 . S
H676 C704 0.930 . S
H677 C705 0.929 . S
H678 C707 0.930 . S
H679 C684 0.930 . S
H680 C688 0.930 . S
O681 Co650 2.037 . S
O681 C701 1.234 . S
C682 O656 1.269 . S
C682 O657 1.257 . S
C683 H658 0.930 . S
C683 C686 1.388 . S
C683 C688 1.418 . S
C684 H679 0.930 . S
C684 C687 1.404 . S
C684 C688 1.353 . S
N685 Co650 2.145 . S
N685 C686 1.397 . S
N685 C687 1.334 . S
C686 H667 0.929 . S
C686 C683 1.388 . S
C686 N685 1.397 . S
C687 H668 0.929 . S
C687 C684 1.404 . S
C687 N685 1.334 . S
C688 H680 0.930 . S
C688 C683 1.418 . S
C688 C684 1.353 . S
C689 H659 0.930 . S
C689 N690 1.330 . S
C689 C691 1.446 . S
N690 Co649 2.151 . S
N690 C689 1.330 . S
N690 C694 1.418 . S
C691 H670 0.929 . S
C691 C689 1.446 . S
C691 C692 1.332 . S
C692 H672 0.931 . S
C692 C691 1.332 . S
C692 C693 1.267 . S
C693 H661 0.929 . S
C693 C692 1.267 . S
C693 C694 1.251 . S
C694 H664 0.929 . S
C694 N690 1.418 . S
C694 C693 1.251 . S
C695 H662 0.930 . S
C695 C697 1.406 . S
C695 C700 1.261 . S
C696 H663 0.930 . S
C696 N698 1.325 . S
C696 C699 1.357 . S
C697 H665 0.928 . S
C697 C695 1.406 . S
C697 N698 1.261 . S
N698 Co649 2.214 . S
N698 C696 1.325 . S
N698 C697 1.261 . S
C699 H669 0.931 . S
C699 C696 1.357 . S
C699 C700 1.312 . S
C700 H671 0.930 . S
C700 C695 1.261 . S
C700 C699 1.312 . S
C701 O673 1.214 1_554 S
C701 O681 1.234 . S
C702 H674 0.929 . S
C702 C705 1.391 . S
C702 C707 1.391 . S
C703 H675 0.929 . S
C703 C704 1.390 . S
C703 N706 1.391 . S
C704 H676 0.930 . S
C704 C703 1.390 . S
C704 C705 1.392 . S
C705 H677 0.929 . S
C705 C702 1.391 . S
C705 C704 1.392 . S
N706 Co650 2.257 . S
N706 C703 1.391 . S
N706 C707 1.388 . S
C707 H678 0.930 . S
C707 C702 1.391 . S
C707 N706 1.388 . S
H708 C716 0.950 . S
H709 C721 0.950 . S
H710 C718 0.950 . S
H711 C720 0.950 . S
H712 C722 0.950 . S
H713 C724 0.950 . S
H714 C726 0.950 . S
H715 C727 0.950 . S
C716 H708 0.950 . S
C716 C717 1.386 . S
C716 C718 1.391 . S
C717 C716 1.386 . S
C717 C721 1.393 . S
C718 H710 0.950 . S
C718 C716 1.391 . S
C718 C719 1.400 . S
C719 C718 1.400 . S
C719 C720 1.398 . S
C719 C725 1.491 . S
C720 H711 0.950 . S
C720 C719 1.398 . S
C720 C721 1.391 . S
C721 H709 0.950 . S
C721 C717 1.393 . S
C721 C720 1.391 . S
C722 H712 0.950 . S
C722 C723 1.386 . S
C722 C724 1.391 . S
C723 C722 1.386 . S
C723 C727 1.393 . S
C724 H713 0.950 . S
C724 C722 1.391 . S
C724 C725 1.400 . S
C725 C719 1.491 . S
C725 C724 1.400 . S
C725 C726 1.398 . S
C726 H714 0.950 . S
C726 C725 1.398 . S
C726 C727 1.391 . S
C727 H715 0.950 . S
C727 C723 1.393 . S
C727 C726 1.391 . S
H728 C736 0.950 . S
H729 C741 0.950 . S
H730 C738 0.950 . S
H731 C740 0.950 . S
H732 C742 0.950 . S
H733 C744 0.950 . S
H734 C746 0.950 . S
H735 C747 0.950 . S
C736 H728 0.950 . S
C736 C737 1.386 . S
C736 C738 1.391 . S
C737 C736 1.386 . S
C737 C741 1.393 . S
C738 H730 0.950 . S
C738 C736 1.391 . S
C738 C739 1.400 . S
C739 C738 1.400 . S
C739 C740 1.398 . S
C739 C745 1.491 1_655 S
C740 H731 0.950 . S
C740 C739 1.398 . S
C740 C741 1.391 . S
C741 H729 0.950 . S
C741 C737 1.393 . S
C741 C740 1.391 . S
C742 H732 0.950 . S
C742 C743 1.386 . S
C742 C744 1.391 . S
C743 C742 1.386 . S
C743 C747 1.393 . S
C744 H733 0.950 . S
C744 C742 1.391 . S
C744 C745 1.400 . S
C745 C739 1.491 1_455 S
C745 C744 1.400 . S
C745 C746 1.398 . S
C746 H734 0.950 . S
C746 C745 1.398 . S
C746 C747 1.391 . S
C747 H735 0.950 . S
C747 C743 1.393 . S
C747 C746 1.391 . S
H748 C756 0.950 . S
H749 C761 0.950 1_554 S
H750 C758 0.950 . S
H751 C760 0.950 . S
H752 C762 0.950 . S
H753 C764 0.950 . S
H754 C766 0.950 . S
H755 C767 0.950 1_556 S
C756 H748 0.950 . S
C756 C757 1.386 . S
C756 C758 1.391 . S
C757 C756 1.386 . S
C757 C761 1.393 . S
C758 H750 0.950 . S
C758 C756 1.391 . S
C758 C759 1.400 . S
C759 C758 1.400 . S
C759 C760 1.398 1_556 S
C759 C765 1.491 1_566 S
C760 H751 0.950 . S
C760 C759 1.398 1_554 S
C760 C761 1.391 1_554 S
C761 H749 0.950 1_556 S
C761 C757 1.393 . S
C761 C760 1.391 1_556 S
C762 H752 0.950 . S
C762 C763 1.386 . S
C762 C764 1.391 . S
C763 C762 1.386 . S
C763 C767 1.393 . S
C764 H753 0.950 . S
C764 C762 1.391 . S
C764 C765 1.400 . S
C765 C759 1.491 1_544 S
C765 C764 1.400 . S
C765 C766 1.398 1_554 S
C766 H754 0.950 . S
C766 C765 1.398 1_556 S
C766 C767 1.391 1_556 S
C767 H755 0.950 1_554 S
C767 C763 1.393 . S
C767 C766 1.391 1_554 S
H768 C776 0.950 . S
H769 C781 0.950 . S
H770 C778 0.950 . S
H771 C780 0.950 . S
H772 C782 0.950 . S
H773 C784 0.950 . S
H774 C786 0.950 . S
H775 C787 0.950 . S
C776 H768 0.950 . S
C776 C777 1.386 . S
C776 C778 1.391 . S
C777 C776 1.386 . S
C777 C781 1.393 . S
C778 H770 0.950 . S
C778 C776 1.391 . S
C778 C779 1.400 . S
C779 C778 1.400 . S
C779 C780 1.398 . S
C779 C785 1.491 . S
C780 H771 0.950 . S
C780 C779 1.398 . S
C780 C781 1.391 . S
C781 H769 0.950 . S
C781 C777 1.393 . S
C781 C780 1.391 . S
C782 H772 0.950 . S
C782 C783 1.386 . S
C782 C784 1.391 . S
C783 C782 1.386 . S
C783 C787 1.393 . S
C784 H773 0.950 . S
C784 C782 1.391 . S
C784 C785 1.400 . S
C785 C779 1.491 . S
C785 C784 1.400 . S
C785 C786 1.398 . S
C786 H774 0.950 . S
C786 C785 1.398 . S
C786 C787 1.391 . S
C787 H775 0.950 . S
C787 C783 1.393 . S
C787 C786 1.391 . S
H788 C796 0.950 . S
H789 C801 0.950 . S
H790 C798 0.950 . S
H791 C800 0.950 . S
H792 C802 0.950 . S
H793 C804 0.950 . S
H794 C806 0.950 . S
H795 C807 0.950 . S
C796 H788 0.950 . S
C796 C797 1.386 . S
C796 C798 1.391 . S
C797 C796 1.386 . S
C797 C801 1.393 . S
C798 H790 0.950 . S
C798 C796 1.391 . S
C798 C799 1.400 . S
C799 C798 1.400 . S
C799 C800 1.398 . S
C799 C805 1.491 1_655 S
C800 H791 0.950 . S
C800 C799 1.398 . S
C800 C801 1.391 . S
C801 H789 0.950 . S
C801 C797 1.393 . S
C801 C800 1.391 . S
C802 H792 0.950 . S
C802 C803 1.386 . S
C802 C804 1.391 . S
C803 C802 1.386 . S
C803 C807 1.393 . S
C804 H793 0.950 . S
C804 C802 1.391 . S
C804 C805 1.400 . S
C805 C799 1.491 1_455 S
C805 C804 1.400 . S
C805 C806 1.398 . S
C806 H794 0.950 . S
C806 C805 1.398 . S
C806 C807 1.391 . S
C807 H795 0.950 . S
C807 C803 1.393 . S
C807 C806 1.391 . S
H808 C816 0.950 . S
H809 C821 0.950 . S
H810 C818 0.950 . S
H811 C820 0.950 . S
H812 C822 0.950 . S
H813 C824 0.950 . S
H814 C826 0.950 . S
H815 C827 0.950 . S
C816 H808 0.950 . S
C816 C817 1.386 . S
C816 C818 1.391 . S
C817 C816 1.386 . S
C817 C821 1.393 . S
C818 H810 0.950 . S
C818 C816 1.391 . S
C818 C819 1.400 . S
C819 C818 1.400 . S
C819 C820 1.398 1_554 S
C819 C825 1.491 1_564 S
C820 H811 0.950 . S
C820 C819 1.398 1_556 S
C820 C821 1.391 1_556 S
C821 H809 0.950 . S
C821 C817 1.393 . S
C821 C820 1.391 1_554 S
C822 H812 0.950 . S
C822 C823 1.386 . S
C822 C824 1.391 . S
C823 C822 1.386 . S
C823 C827 1.393 . S
C824 H813 0.950 . S
C824 C822 1.391 . S
C824 C825 1.400 . S
C825 C819 1.491 1_546 S
C825 C824 1.400 . S
C825 C826 1.398 1_556 S
C826 H814 0.950 . S
C826 C825 1.398 1_554 S
C826 C827 1.391 1_554 S
C827 H815 0.950 . S
C827 C823 1.393 . S
C827 C826 1.391 1_556 S
H828 C836 0.950 . S
H829 C841 0.950 . S
H830 C838 0.950 1_554 S
H831 C840 0.950 . S
H832 C842 0.950 . S
H833 C844 0.950 1_556 S
H834 C846 0.950 . S
H835 C847 0.950 . S
C836 H828 0.950 . S
C836 C837 1.386 . S
C836 C838 1.391 . S
C837 C836 1.386 . S
C837 C841 1.393 . S
C838 H830 0.950 1_556 S
C838 C836 1.391 . S
C838 C839 1.400 . S
C839 C838 1.400 . S
C839 C840 1.398 . S
C839 C845 1.491 1_556 S
C840 H831 0.950 . S
C840 C839 1.398 . S
C840 C841 1.391 . S
C841 H829 0.950 . S
C841 C837 1.393 . S
C841 C840 1.391 . S
C842 H832 0.950 . S
C842 C843 1.386 . S
C842 C844 1.391 . S
C843 C842 1.386 . S
C843 C847 1.393 . S
C844 H833 0.950 1_554 S
C844 C842 1.391 . S
C844 C845 1.400 . S
C845 C839 1.491 1_554 S
C845 C844 1.400 . S
C845 C846 1.398 . S
C846 H834 0.950 . S
C846 C845 1.398 . S
C846 C847 1.391 . S
C847 H835 0.950 . S
C847 C843 1.393 . S
C847 C846 1.391 . S
H848 C856 0.950 . S
H849 C861 0.950 . S
H850 C858 0.950 . S
H851 C860 0.950 . S
H852 C862 0.950 . S
H853 C864 0.950 . S
H854 C866 0.950 . S
H855 C867 0.950 . S
C856 H848 0.950 . S
C856 C857 1.386 . S
C856 C858 1.391 . S
C857 C856 1.386 . S
C857 C861 1.393 . S
C858 H850 0.950 . S
C858 C856 1.391 . S
C858 C859 1.400 . S
C859 C858 1.400 . S
C859 C860 1.398 . S
C859 C865 1.491 . S
C860 H851 0.950 . S
C860 C859 1.398 . S
C860 C861 1.391 . S
C861 H849 0.950 . S
C861 C857 1.393 . S
C861 C860 1.391 . S
C862 H852 0.950 . S
C862 C863 1.386 . S
C862 C864 1.391 . S
C863 C862 1.386 . S
C863 C867 1.393 . S
C864 H853 0.950 . S
C864 C862 1.391 . S
C864 C865 1.400 . S
C865 C859 1.491 . S
C865 C864 1.400 . S
C865 C866 1.398 . S
C866 H854 0.950 . S
C866 C865 1.398 . S
C866 C867 1.391 . S
C867 H855 0.950 . S
C867 C863 1.393 . S
C867 C866 1.391 . S
H868 C876 0.950 . S
H869 C881 0.950 . S
H870 C878 0.950 . S
H871 C880 0.950 . S
H872 C882 0.950 . S
H873 C884 0.950 . S
H874 C886 0.950 . S
H875 C887 0.950 . S
C876 H868 0.950 . S
C876 C877 1.386 . S
C876 C878 1.391 . S
C877 C876 1.386 . S
C877 C881 1.393 . S
C878 H870 0.950 . S
C878 C876 1.391 . S
C878 C879 1.400 . S
C879 C878 1.400 . S
C879 C880 1.398 . S
C879 C885 1.491 . S
C880 H871 0.950 . S
C880 C879 1.398 . S
C880 C881 1.391 . S
C881 H869 0.950 . S
C881 C877 1.393 . S
C881 C880 1.391 . S
C882 H872 0.950 . S
C882 C883 1.386 . S
C882 C884 1.391 . S
C883 C882 1.386 . S
C883 C887 1.393 . S
C884 H873 0.950 . S
C884 C882 1.391 . S
C884 C885 1.400 . S
C885 C879 1.491 . S
C885 C884 1.400 . S
C885 C886 1.398 . S
C886 H874 0.950 . S
C886 C885 1.398 . S
C886 C887 1.391 . S
C887 H875 0.950 . S
C887 C883 1.393 . S
C887 C886 1.391 . S
H888 C896 0.950 . S
H889 C901 0.950 . S
H890 C898 0.950 . S
H891 C900 0.950 1_556 S
H892 C902 0.950 . S
H893 C904 0.950 . S
H894 C906 0.950 1_554 S
H895 C907 0.950 . S
C896 H888 0.950 . S
C896 C897 1.386 . S
C896 C898 1.391 . S
C897 C896 1.386 . S
C897 C901 1.393 . S
C898 H890 0.950 . S
C898 C896 1.391 . S
C898 C899 1.400 . S
C899 C898 1.400 . S
C899 C900 1.398 . S
C899 C905 1.491 1_554 S
C900 H891 0.950 1_554 S
C900 C899 1.398 . S
C900 C901 1.391 . S
C901 H889 0.950 . S
C901 C897 1.393 . S
C901 C900 1.391 . S
C902 H892 0.950 . S
C902 C903 1.386 . S
C902 C904 1.391 . S
C903 C902 1.386 . S
C903 C907 1.393 . S
C904 H893 0.950 . S
C904 C902 1.391 . S
C904 C905 1.400 . S
C905 C899 1.491 1_556 S
C905 C904 1.400 . S
C905 C906 1.398 . S
C906 H894 0.950 1_556 S
C906 C905 1.398 . S
C906 C907 1.391 . S
C907 H895 0.950 . S
C907 C903 1.393 . S
C907 C906 1.391 . S
H908 C916 0.950 . S
H909 C921 0.950 . S
H910 C918 0.950 . S
H911 C920 0.950 . S
H912 C922 0.950 . S
H913 C924 0.950 . S
H914 C926 0.950 . S
H915 C927 0.950 . S
C916 H908 0.950 . S
C916 C917 1.386 . S
C916 C918 1.391 . S
C917 C916 1.386 . S
C917 C921 1.393 . S
C918 H910 0.950 . S
C918 C916 1.391 . S
C918 C919 1.400 . S
C919 C918 1.400 . S
C919 C920 1.398 . S
C919 C925 1.491 . S
C920 H911 0.950 . S
C920 C919 1.398 . S
C920 C921 1.391 . S
C921 H909 0.950 . S
C921 C917 1.393 . S
C921 C920 1.391 . S
C922 H912 0.950 . S
C922 C923 1.386 . S
C922 C924 1.391 . S
C923 C922 1.386 . S
C923 C927 1.393 . S
C924 H913 0.950 . S
C924 C922 1.391 . S
C924 C925 1.400 . S
C925 C919 1.491 . S
C925 C924 1.400 . S
C925 C926 1.398 . S
C926 H914 0.950 . S
C926 C925 1.398 . S
C926 C927 1.391 . S
C927 H915 0.950 . S
C927 C923 1.393 . S
C927 C926 1.391 . S
H928 C936 0.950 . S
H929 C941 0.950 . S
H930 C938 0.950 . S
H931 C940 0.950 . S
H932 C942 0.950 . S
H933 C944 0.950 . S
H934 C946 0.950 . S
H935 C947 0.950 . S
C936 H928 0.950 . S
C936 C937 1.386 . S
C936 C938 1.391 . S
C937 C936 1.386 . S
C937 C941 1.393 . S
C938 H930 0.950 . S
C938 C936 1.391 . S
C938 C939 1.400 . S
C939 C938 1.400 . S
C939 C940 1.398 . S
C939 C945 1.491 . S
C940 H931 0.950 . S
C940 C939 1.398 . S
C940 C941 1.391 . S
C941 H929 0.950 . S
C941 C937 1.393 . S
C941 C940 1.391 . S
C942 H932 0.950 . S
C942 C943 1.386 . S
C942 C944 1.391 . S
C943 C942 1.386 . S
C943 C947 1.393 . S
C944 H933 0.950 . S
C944 C942 1.391 . S
C944 C945 1.400 . S
C945 C939 1.491 . S
C945 C944 1.400 . S
C945 C946 1.398 . S
C946 H934 0.950 . S
C946 C945 1.398 . S
C946 C947 1.391 . S
C947 H935 0.950 . S
C947 C943 1.393 . S
C947 C946 1.391 . S
H948 C956 0.950 . S
H949 C961 0.950 . S
H950 C958 0.950 . S
H951 C960 0.950 . S
H952 C962 0.950 . S
H953 C964 0.950 . S
H954 C966 0.950 . S
H955 C967 0.950 . S
C956 H948 0.950 . S
C956 C957 1.386 . S
C956 C958 1.391 . S
C957 C956 1.386 . S
C957 C961 1.393 . S
C958 H950 0.950 . S
C958 C956 1.391 . S
C958 C959 1.400 . S
C959 C958 1.400 . S
C959 C960 1.398 . S
C959 C965 1.491 . S
C960 H951 0.950 . S
C960 C959 1.398 . S
C960 C961 1.391 . S
C961 H949 0.950 . S
C961 C957 1.393 . S
C961 C960 1.391 . S
C962 H952 0.950 . S
C962 C963 1.386 . S
C962 C964 1.391 . S
C963 C962 1.386 . S
C963 C967 1.393 . S
C964 H953 0.950 . S
C964 C962 1.391 . S
C964 C965 1.400 . S
C965 C959 1.491 . S
C965 C964 1.400 . S
C965 C966 1.398 . S
C966 H954 0.950 . S
C966 C965 1.398 . S
C966 C967 1.391 . S
C967 H955 0.950 . S
C967 C963 1.393 . S
C967 C966 1.391 . S
H968 C976 0.950 . S
H969 C981 0.950 . S
H970 C978 0.950 . S
H971 C980 0.950 . S
H972 C982 0.950 . S
H973 C984 0.950 . S
H974 C986 0.950 . S
H975 C987 0.950 . S
C976 H968 0.950 . S
C976 C977 1.386 . S
C976 C978 1.391 . S
C977 C976 1.386 . S
C977 C981 1.393 . S
C978 H970 0.950 . S
C978 C976 1.391 . S
C978 C979 1.400 . S
C979 C978 1.400 . S
C979 C980 1.398 . S
C979 C985 1.491 . S
C980 H971 0.950 . S
C980 C979 1.398 . S
C980 C981 1.391 . S
C981 H969 0.950 . S
C981 C977 1.393 . S
C981 C980 1.391 . S
C982 H972 0.950 . S
C982 C983 1.386 . S
C982 C984 1.391 . S
C983 C982 1.386 . S
C983 C987 1.393 . S
C984 H973 0.950 . S
C984 C982 1.391 . S
C984 C985 1.400 . S
C985 C979 1.491 . S
C985 C984 1.400 . S
C985 C986 1.398 . S
C986 H974 0.950 . S
C986 C985 1.398 . S
C986 C987 1.391 . S
C987 H975 0.950 . S
C987 C983 1.393 . S
C987 C986 1.391 . S
H988 C996 0.950 . S
H989 C1001 0.950 . S
H990 C998 0.950 . S
H991 C1000 0.950 . S
H992 C1002 0.950 . S
H993 C1004 0.950 . S
H994 C1006 0.950 . S
H995 C1007 0.950 . S
C996 H988 0.950 . S
C996 C997 1.386 . S
C996 C998 1.391 . S
C997 C996 1.386 . S
C997 C1001 1.393 . S
C998 H990 0.950 . S
C998 C996 1.391 . S
C998 C999 1.400 . S
C999 C998 1.400 . S
C999 C1000 1.398 . S
C999 C1005 1.491 . S
C1000 H991 0.950 . S
C1000 C999 1.398 . S
C1000 C1001 1.391 . S
C1001 H989 0.950 . S
C1001 C997 1.393 . S
C1001 C1000 1.391 . S
C1002 H992 0.950 . S
C1002 C1003 1.386 . S
C1002 C1004 1.391 . S
C1003 C1002 1.386 . S
C1003 C1007 1.393 . S
C1004 H993 0.950 . S
C1004 C1002 1.391 . S
C1004 C1005 1.400 . S
C1005 C999 1.491 . S
C1005 C1004 1.400 . S
C1005 C1006 1.398 . S
C1006 H994 0.950 . S
C1006 C1005 1.398 . S
C1006 C1007 1.391 . S
C1007 H995 0.950 . S
C1007 C1003 1.393 . S
C1007 C1006 1.391 . S
H1008 C1016 0.950 . S
H1009 C1021 0.950 . S
H1010 C1018 0.950 . S
H1011 C1020 0.950 . S
H1012 C1022 0.950 . S
H1013 C1024 0.950 . S
H1014 C1026 0.950 . S
H1015 C1027 0.950 . S
C1016 H1008 0.950 . S
C1016 C1017 1.386 . S
C1016 C1018 1.391 . S
C1017 C1016 1.386 . S
C1017 C1021 1.393 . S
C1018 H1010 0.950 . S
C1018 C1016 1.391 . S
C1018 C1019 1.400 . S
C1019 C1018 1.400 . S
C1019 C1020 1.398 . S
C1019 C1025 1.491 . S
C1020 H1011 0.950 . S
C1020 C1019 1.398 . S
C1020 C1021 1.391 . S
C1021 H1009 0.950 . S
C1021 C1017 1.393 . S
C1021 C1020 1.391 . S
C1022 H1012 0.950 . S
C1022 C1023 1.386 . S
C1022 C1024 1.391 . S
C1023 C1022 1.386 . S
C1023 C1027 1.393 . S
C1024 H1013 0.950 . S
C1024 C1022 1.391 . S
C1024 C1025 1.400 . S
C1025 C1019 1.491 . S
C1025 C1024 1.400 . S
C1025 C1026 1.398 . S
C1026 H1014 0.950 . S
C1026 C1025 1.398 . S
C1026 C1027 1.391 . S
C1027 H1015 0.950 . S
C1027 C1023 1.393 . S
C1027 C1026 1.391 . S
H1028 C1036 0.950 . S
H1029 C1041 0.950 . S
H1030 C1038 0.950 . S
H1031 C1040 0.950 . S
H1032 C1042 0.950 . S
H1033 C1044 0.950 . S
H1034 C1046 0.950 . S
H1035 C1047 0.950 . S
C1036 H1028 0.950 . S
C1036 C1037 1.386 . S
C1036 C1038 1.391 . S
C1037 C1036 1.386 . S
C1037 C1041 1.393 . S
C1038 H1030 0.950 . S
C1038 C1036 1.391 . S
C1038 C1039 1.400 . S
C1039 C1038 1.400 . S
C1039 C1040 1.398 . S
C1039 C1045 1.491 . S
C1040 H1031 0.950 . S
C1040 C1039 1.398 . S
C1040 C1041 1.391 . S
C1041 H1029 0.950 . S
C1041 C1037 1.393 . S
C1041 C1040 1.391 . S
C1042 H1032 0.950 . S
C1042 C1043 1.386 . S
C1042 C1044 1.391 . S
C1043 C1042 1.386 . S
C1043 C1047 1.393 . S
C1044 H1033 0.950 . S
C1044 C1042 1.391 . S
C1044 C1045 1.400 . S
C1045 C1039 1.491 . S
C1045 C1044 1.400 . S
C1045 C1046 1.398 . S
C1046 H1034 0.950 . S
C1046 C1045 1.398 . S
C1046 C1047 1.391 . S
C1047 H1035 0.950 . S
C1047 C1043 1.393 . S
C1047 C1046 1.391 . S
H1048 C1056 0.950 . S
H1049 C1061 0.950 . S
H1050 C1058 0.950 . S
H1051 C1060 0.950 . S
H1052 C1062 0.950 . S
H1053 C1064 0.950 . S
H1054 C1066 0.950 . S
H1055 C1067 0.950 . S
C1056 H1048 0.950 . S
C1056 C1057 1.386 . S
C1056 C1058 1.391 . S
C1057 C1056 1.386 . S
C1057 C1061 1.393 . S
C1058 H1050 0.950 . S
C1058 C1056 1.391 . S
C1058 C1059 1.400 . S
C1059 C1058 1.400 . S
C1059 C1060 1.398 . S
C1059 C1065 1.491 . S
C1060 H1051 0.950 . S
C1060 C1059 1.398 . S
C1060 C1061 1.391 . S
C1061 H1049 0.950 . S
C1061 C1057 1.393 . S
C1061 C1060 1.391 . S
C1062 H1052 0.950 . S
C1062 C1063 1.386 . S
C1062 C1064 1.391 . S
C1063 C1062 1.386 . S
C1063 C1067 1.393 . S
C1064 H1053 0.950 . S
C1064 C1062 1.391 . S
C1064 C1065 1.400 . S
C1065 C1059 1.491 . S
C1065 C1064 1.400 . S
C1065 C1066 1.398 . S
C1066 H1054 0.950 . S
C1066 C1065 1.398 . S
C1066 C1067 1.391 . S
C1067 H1055 0.950 . S
C1067 C1063 1.393 . S
C1067 C1066 1.391 . S
H1068 C1076 0.950 . S
H1069 C1081 0.950 . S
H1070 C1078 0.950 . S
H1071 C1080 0.950 . S
H1072 C1082 0.950 . S
H1073 C1084 0.950 . S
H1074 C1086 0.950 . S
H1075 C1087 0.950 . S
C1076 H1068 0.950 . S
C1076 C1077 1.386 . S
C1076 C1078 1.391 . S
C1077 C1076 1.386 . S
C1077 C1081 1.393 . S
C1078 H1070 0.950 . S
C1078 C1076 1.391 . S
C1078 C1079 1.400 . S
C1079 C1078 1.400 . S
C1079 C1080 1.398 . S
C1079 C1085 1.491 . S
C1080 H1071 0.950 . S
C1080 C1079 1.398 . S
C1080 C1081 1.391 . S
C1081 H1069 0.950 . S
C1081 C1077 1.393 . S
C1081 C1080 1.391 . S
C1082 H1072 0.950 . S
C1082 C1083 1.386 . S
C1082 C1084 1.391 . S
C1083 C1082 1.386 . S
C1083 C1087 1.393 . S
C1084 H1073 0.950 . S
C1084 C1082 1.391 . S
C1084 C1085 1.400 . S
C1085 C1079 1.491 . S
C1085 C1084 1.400 . S
C1085 C1086 1.398 . S
C1086 H1074 0.950 . S
C1086 C1085 1.398 . S
C1086 C1087 1.391 . S
C1087 H1075 0.950 . S
C1087 C1083 1.393 . S
C1087 C1086 1.391 . S
H1088 C1096 0.950 . S
H1089 C1101 0.950 . S
H1090 C1098 0.950 . S
H1091 C1100 0.950 . S
H1092 C1102 0.950 . S
H1093 C1104 0.950 . S
H1094 C1106 0.950 . S
H1095 C1107 0.950 . S
C1096 H1088 0.950 . S
C1096 C1097 1.386 . S
C1096 C1098 1.391 . S
C1097 C1096 1.386 . S
C1097 C1101 1.393 . S
C1098 H1090 0.950 . S
C1098 C1096 1.391 . S
C1098 C1099 1.400 . S
C1099 C1098 1.400 . S
C1099 C1100 1.398 . S
C1099 C1105 1.491 . S
C1100 H1091 0.950 . S
C1100 C1099 1.398 . S
C1100 C1101 1.391 . S
C1101 H1089 0.950 . S
C1101 C1097 1.393 . S
C1101 C1100 1.391 . S
C1102 H1092 0.950 . S
C1102 C1103 1.386 . S
C1102 C1104 1.391 . S
C1103 C1102 1.386 . S
C1103 C1107 1.393 . S
C1104 H1093 0.950 . S
C1104 C1102 1.391 . S
C1104 C1105 1.400 . S
C1105 C1099 1.491 . S
C1105 C1104 1.400 . S
C1105 C1106 1.398 . S
C1106 H1094 0.950 . S
C1106 C1105 1.398 . S
C1106 C1107 1.391 . S
C1107 H1095 0.950 . S
C1107 C1103 1.393 . S
C1107 C1106 1.391 . S
H1108 C1116 0.950 . S
H1109 C1121 0.950 . S
H1110 C1118 0.950 . S
H1111 C1120 0.950 . S
H1112 C1122 0.950 . S
H1113 C1124 0.950 . S
H1114 C1126 0.950 . S
H1115 C1127 0.950 . S
C1116 H1108 0.950 . S
C1116 C1117 1.386 1_554 S
C1116 C1118 1.391 . S
C1117 C1116 1.386 1_556 S
C1117 C1121 1.393 . S
C1118 H1110 0.950 . S
C1118 C1116 1.391 . S
C1118 C1119 1.400 1_554 S
C1119 C1118 1.400 1_556 S
C1119 C1120 1.398 . S
C1119 C1125 1.491 1_556 S
C1120 H1111 0.950 . S
C1120 C1119 1.398 . S
C1120 C1121 1.391 . S
C1121 H1109 0.950 . S
C1121 C1117 1.393 . S
C1121 C1120 1.391 . S
C1122 H1112 0.950 . S
C1122 C1123 1.386 1_556 S
C1122 C1124 1.391 . S
C1123 C1122 1.386 1_554 S
C1123 C1127 1.393 . S
C1124 H1113 0.950 . S
C1124 C1122 1.391 . S
C1124 C1125 1.400 1_556 S
C1125 C1119 1.491 1_554 S
C1125 C1124 1.400 1_554 S
C1125 C1126 1.398 . S
C1126 H1114 0.950 . S
C1126 C1125 1.398 . S
C1126 C1127 1.391 . S
C1127 H1115 0.950 . S
C1127 C1123 1.393 . S
C1127 C1126 1.391 . S
H1128 C1136 0.950 . S
H1129 C1141 0.950 . S
H1130 C1138 0.950 . S
H1131 C1140 0.950 . S
H1132 C1142 0.950 . S
H1133 C1144 0.950 . S
H1134 C1146 0.950 . S
H1135 C1147 0.950 . S
C1136 H1128 0.950 . S
C1136 C1137 1.386 . S
C1136 C1138 1.391 . S
C1137 C1136 1.386 . S
C1137 C1141 1.393 . S
C1138 H1130 0.950 . S
C1138 C1136 1.391 . S
C1138 C1139 1.400 . S
C1139 C1138 1.400 . S
C1139 C1140 1.398 . S
C1139 C1145 1.491 . S
C1140 H1131 0.950 . S
C1140 C1139 1.398 . S
C1140 C1141 1.391 . S
C1141 H1129 0.950 . S
C1141 C1137 1.393 . S
C1141 C1140 1.391 . S
C1142 H1132 0.950 . S
C1142 C1143 1.386 . S
C1142 C1144 1.391 . S
C1143 C1142 1.386 . S
C1143 C1147 1.393 . S
C1144 H1133 0.950 . S
C1144 C1142 1.391 . S
C1144 C1145 1.400 . S
C1145 C1139 1.491 . S
C1145 C1144 1.400 . S
C1145 C1146 1.398 . S
C1146 H1134 0.950 . S
C1146 C1145 1.398 . S
C1146 C1147 1.391 . S
C1147 H1135 0.950 . S
C1147 C1143 1.393 . S
C1147 C1146 1.391 . S
H1148 C1156 0.950 . S
H1149 C1161 0.950 . S
H1150 C1158 0.950 . S
H1151 C1160 0.950 . S
H1152 C1162 0.950 . S
H1153 C1164 0.950 . S
H1154 C1166 0.950 . S
H1155 C1167 0.950 . S
C1156 H1148 0.950 . S
C1156 C1157 1.386 . S
C1156 C1158 1.391 . S
C1157 C1156 1.386 . S
C1157 C1161 1.393 . S
C1158 H1150 0.950 . S
C1158 C1156 1.391 . S
C1158 C1159 1.400 . S
C1159 C1158 1.400 . S
C1159 C1160 1.398 . S
C1159 C1165 1.491 . S
C1160 H1151 0.950 . S
C1160 C1159 1.398 . S
C1160 C1161 1.391 . S
C1161 H1149 0.950 . S
C1161 C1157 1.393 . S
C1161 C1160 1.391 . S
C1162 H1152 0.950 . S
C1162 C1163 1.386 . S
C1162 C1164 1.391 . S
C1163 C1162 1.386 . S
C1163 C1167 1.393 . S
C1164 H1153 0.950 . S
C1164 C1162 1.391 . S
C1164 C1165 1.400 . S
C1165 C1159 1.491 . S
C1165 C1164 1.400 . S
C1165 C1166 1.398 . S
C1166 H1154 0.950 . S
C1166 C1165 1.398 . S
C1166 C1167 1.391 . S
C1167 H1155 0.950 . S
C1167 C1163 1.393 . S
C1167 C1166 1.391 . S
H1168 C1176 0.950 . S
H1169 C1181 0.950 . S
H1170 C1178 0.950 . S
H1171 C1180 0.950 . S
H1172 C1182 0.950 . S
H1173 C1184 0.950 . S
H1174 C1186 0.950 . S
H1175 C1187 0.950 . S
C1176 H1168 0.950 . S
C1176 C1177 1.386 1_556 S
C1176 C1178 1.391 . S
C1177 C1176 1.386 1_554 S
C1177 C1181 1.393 . S
C1178 H1170 0.950 . S
C1178 C1176 1.391 . S
C1178 C1179 1.400 1_556 S
C1179 C1178 1.400 1_554 S
C1179 C1180 1.398 . S
C1179 C1185 1.491 1_554 S
C1180 H1171 0.950 . S
C1180 C1179 1.398 . S
C1180 C1181 1.391 . S
C1181 H1169 0.950 . S
C1181 C1177 1.393 . S
C1181 C1180 1.391 . S
C1182 H1172 0.950 . S
C1182 C1183 1.386 1_554 S
C1182 C1184 1.391 . S
C1183 C1182 1.386 1_556 S
C1183 C1187 1.393 . S
C1184 H1173 0.950 . S
C1184 C1182 1.391 . S
C1184 C1185 1.400 1_554 S
C1185 C1179 1.491 1_556 S
C1185 C1184 1.400 1_556 S
C1185 C1186 1.398 . S
C1186 H1174 0.950 . S
C1186 C1185 1.398 . S
C1186 C1187 1.391 . S
C1187 H1175 0.950 . S
C1187 C1183 1.393 . S
C1187 C1186 1.391 . S
C717 C33 1.568 . S
C723 C564 1.565 . S
C737 C92 1.553 . S
C743 C623 1.556 . S
C757 C151 1.549 . S
C763 C682 1.552 . S
C777 C210 1.550 . S
C783 C387 1.548 . S
C797 C446 1.551 . S
C803 C269 1.548 . S
C817 C505 1.565 . S
C823 C328 1.568 . S
C837 C595 2.061 . S
C843 C5 2.056 . S
C857 C64 2.059 . S
C863 C654 2.057 . S
C877 C123 2.060 . S
C883 C359 2.056 . S
C897 C182 2.060 . S
C903 C418 2.065 . S
C917 C241 2.057 . S
C923 C477 2.065 . S
C937 C300 2.056 . S
C943 C536 2.063 . S
C957 C593 0.826 . S
C963 C3 0.832 . S
C977 C62 0.834 . S
C983 C652 0.828 . S
C997 C121 0.814 . S
C1003 C357 0.820 . S
C1017 C180 0.829 . S
C1023 C416 0.834 . S
C1037 C239 0.838 . S
C1043 C475 0.835 . S
C1057 C298 0.838 . S
C1063 C534 0.835 . S
C1077 C52 1.765 . S
C1083 C406 1.769 . S
C1097 C465 1.757 . S
C1103 C111 1.761 . S
C1117 C170 1.769 . S
C1123 C524 1.763 . S
C1137 C229 1.765 . S
C1143 C583 1.758 . S
C1157 C288 1.758 . S
C1163 C642 1.758 . S
C1177 C701 1.762 . S
C1183 C347 1.757 . S
