# Generated by pormake.
# Topology wlq, (5)-cn, num edge types: 1
# Building blocks:
#     Node 0, Type 0, BuildingBlock: XOMCOT_clean_sbu_0, # of connection points: 5
#     Node 1, Type 0, BuildingBlock: XOMCOT_clean_sbu_0, # of connection points: 5
#     Node 2, Type 0, BuildingBlock: XOMCOT_clean_sbu_0, # of connection points: 5
#     Node 3, Type 0, BuildingBlock: XOMCOT_clean_sbu_0, # of connection points: 5
#     Node 4, Type 0, BuildingBlock: XOMCOT_clean_sbu_0, # of connection points: 5
#     Node 5, Type 0, BuildingBlock: XOMCOT_clean_sbu_0, # of connection points: 5
#     Node 6, Type 0, BuildingBlock: XOMCOT_clean_sbu_0, # of connection points: 5
#     Node 7, Type 0, BuildingBlock: XOMCOT_clean_sbu_0, # of connection points: 5
#     Node 8, Type 0, BuildingBlock: XOMCOT_clean_sbu_0, # of connection points: 5
#     Node 9, Type 0, BuildingBlock: XOMCOT_clean_sbu_0, # of connection points: 5
#     Node 10, Type 0, BuildingBlock: XOMCOT_clean_sbu_0, # of connection points: 5
#     Node 11, Type 0, BuildingBlock: XOMCOT_clean_sbu_0, # of connection points: 5
#     Node 12, Type 0, BuildingBlock: XOMCOT_clean_sbu_0, # of connection points: 5
#     Node 13, Type 0, BuildingBlock: XOMCOT_clean_sbu_0, # of connection points: 5
#     Node 14, Type 0, BuildingBlock: XOMCOT_clean_sbu_0, # of connection points: 5
#     Node 15, Type 0, BuildingBlock: XOMCOT_clean_sbu_0, # of connection points: 5
#     Node 16, Type 0, BuildingBlock: XOMCOT_clean_sbu_0, # of connection points: 5
#     Node 17, Type 0, BuildingBlock: XOMCOT_clean_sbu_0, # of connection points: 5
#     Node 18, Type 0, BuildingBlock: XOMCOT_clean_sbu_0, # of connection points: 5
#     Node 19, Type 0, BuildingBlock: XOMCOT_clean_sbu_0, # of connection points: 5
#     Node 20, Type 0, BuildingBlock: XOMCOT_clean_sbu_0, # of connection points: 5
#     Node 21, Type 0, BuildingBlock: XOMCOT_clean_sbu_0, # of connection points: 5
#     Node 22, Type 0, BuildingBlock: XOMCOT_clean_sbu_0, # of connection points: 5
#     Node 23, Type 0, BuildingBlock: XOMCOT_clean_sbu_0, # of connection points: 5
#     Node 24, Type 0, BuildingBlock: XOMCOT_clean_sbu_0, # of connection points: 5
#     Node 25, Type 0, BuildingBlock: XOMCOT_clean_sbu_0, # of connection points: 5
#     Node 26, Type 0, BuildingBlock: XOMCOT_clean_sbu_0, # of connection points: 5
#     Node 27, Type 0, BuildingBlock: XOMCOT_clean_sbu_0, # of connection points: 5
#     Node 28, Type 0, BuildingBlock: XOMCOT_clean_sbu_0, # of connection points: 5
#     Node 29, Type 0, BuildingBlock: XOMCOT_clean_sbu_0, # of connection points: 5
#     Node 30, Type 0, BuildingBlock: XOMCOT_clean_sbu_0, # of connection points: 5
#     Node 31, Type 0, BuildingBlock: XOMCOT_clean_sbu_0, # of connection points: 5
#     Node 32, Type 0, BuildingBlock: XOMCOT_clean_sbu_0, # of connection points: 5
#     Node 33, Type 0, BuildingBlock: XOMCOT_clean_sbu_0, # of connection points: 5
#     Node 34, Type 0, BuildingBlock: XOMCOT_clean_sbu_0, # of connection points: 5
#     Node 35, Type 0, BuildingBlock: XOMCOT_clean_sbu_0, # of connection points: 5
#     Edge 36, Type (0, 0), BuildingBlock: UVAHIK_clean_linker_0, # of connection points: 2
#     Edge 37, Type (0, 0), BuildingBlock: UVAHIK_clean_linker_0, # of connection points: 2
#     Edge 38, Type (0, 0), BuildingBlock: UVAHIK_clean_linker_0, # of connection points: 2
#     Edge 39, Type (0, 0), BuildingBlock: UVAHIK_clean_linker_0, # of connection points: 2
#     Edge 40, Type (0, 0), BuildingBlock: UVAHIK_clean_linker_0, # of connection points: 2
#     Edge 41, Type (0, 0), BuildingBlock: UVAHIK_clean_linker_0, # of connection points: 2
#     Edge 42, Type (0, 0), BuildingBlock: UVAHIK_clean_linker_0, # of connection points: 2
#     Edge 43, Type (0, 0), BuildingBlock: UVAHIK_clean_linker_0, # of connection points: 2
#     Edge 44, Type (0, 0), BuildingBlock: UVAHIK_clean_linker_0, # of connection points: 2
#     Edge 45, Type (0, 0), BuildingBlock: UVAHIK_clean_linker_0, # of connection points: 2
#     Edge 46, Type (0, 0), BuildingBlock: UVAHIK_clean_linker_0, # of connection points: 2
#     Edge 47, Type (0, 0), BuildingBlock: UVAHIK_clean_linker_0, # of connection points: 2
#     Edge 48, Type (0, 0), BuildingBlock: UVAHIK_clean_linker_0, # of connection points: 2
#     Edge 49, Type (0, 0), BuildingBlock: UVAHIK_clean_linker_0, # of connection points: 2
#     Edge 50, Type (0, 0), BuildingBlock: UVAHIK_clean_linker_0, # of connection points: 2
#     Edge 51, Type (0, 0), BuildingBlock: UVAHIK_clean_linker_0, # of connection points: 2
#     Edge 52, Type (0, 0), BuildingBlock: UVAHIK_clean_linker_0, # of connection points: 2
#     Edge 53, Type (0, 0), BuildingBlock: UVAHIK_clean_linker_0, # of connection points: 2
#     Edge 54, Type (0, 0), BuildingBlock: UVAHIK_clean_linker_0, # of connection points: 2
#     Edge 55, Type (0, 0), BuildingBlock: UVAHIK_clean_linker_0, # of connection points: 2
#     Edge 56, Type (0, 0), BuildingBlock: UVAHIK_clean_linker_0, # of connection points: 2
#     Edge 57, Type (0, 0), BuildingBlock: UVAHIK_clean_linker_0, # of connection points: 2
#     Edge 58, Type (0, 0), BuildingBlock: UVAHIK_clean_linker_0, # of connection points: 2
#     Edge 59, Type (0, 0), BuildingBlock: UVAHIK_clean_linker_0, # of connection points: 2
#     Edge 60, Type (0, 0), BuildingBlock: UVAHIK_clean_linker_0, # of connection points: 2
#     Edge 61, Type (0, 0), BuildingBlock: UVAHIK_clean_linker_0, # of connection points: 2
#     Edge 62, Type (0, 0), BuildingBlock: UVAHIK_clean_linker_0, # of connection points: 2
#     Edge 63, Type (0, 0), BuildingBlock: UVAHIK_clean_linker_0, # of connection points: 2
#     Edge 64, Type (0, 0), BuildingBlock: UVAHIK_clean_linker_0, # of connection points: 2
#     Edge 65, Type (0, 0), BuildingBlock: UVAHIK_clean_linker_0, # of connection points: 2
#     Edge 66, Type (0, 0), BuildingBlock: UVAHIK_clean_linker_0, # of connection points: 2
#     Edge 67, Type (0, 0), BuildingBlock: UVAHIK_clean_linker_0, # of connection points: 2
#     Edge 68, Type (0, 0), BuildingBlock: UVAHIK_clean_linker_0, # of connection points: 2
#     Edge 69, Type (0, 0), BuildingBlock: UVAHIK_clean_linker_0, # of connection points: 2
#     Edge 70, Type (0, 0), BuildingBlock: UVAHIK_clean_linker_0, # of connection points: 2
#     Edge 71, Type (0, 0), BuildingBlock: UVAHIK_clean_linker_0, # of connection points: 2
#     Edge 72, Type (0, 0), BuildingBlock: UVAHIK_clean_linker_0, # of connection points: 2
#     Edge 73, Type (0, 0), BuildingBlock: UVAHIK_clean_linker_0, # of connection points: 2
#     Edge 74, Type (0, 0), BuildingBlock: UVAHIK_clean_linker_0, # of connection points: 2
#     Edge 75, Type (0, 0), BuildingBlock: UVAHIK_clean_linker_0, # of connection points: 2
#     Edge 76, Type (0, 0), BuildingBlock: UVAHIK_clean_linker_0, # of connection points: 2
#     Edge 77, Type (0, 0), BuildingBlock: UVAHIK_clean_linker_0, # of connection points: 2
#     Edge 78, Type (0, 0), BuildingBlock: UVAHIK_clean_linker_0, # of connection points: 2
#     Edge 79, Type (0, 0), BuildingBlock: UVAHIK_clean_linker_0, # of connection points: 2
#     Edge 80, Type (0, 0), BuildingBlock: UVAHIK_clean_linker_0, # of connection points: 2
#     Edge 81, Type (0, 0), BuildingBlock: UVAHIK_clean_linker_0, # of connection points: 2
#     Edge 82, Type (0, 0), BuildingBlock: UVAHIK_clean_linker_0, # of connection points: 2
#     Edge 83, Type (0, 0), BuildingBlock: UVAHIK_clean_linker_0, # of connection points: 2
#     Edge 84, Type (0, 0), BuildingBlock: UVAHIK_clean_linker_0, # of connection points: 2
#     Edge 85, Type (0, 0), BuildingBlock: UVAHIK_clean_linker_0, # of connection points: 2
#     Edge 86, Type (0, 0), BuildingBlock: UVAHIK_clean_linker_0, # of connection points: 2
#     Edge 87, Type (0, 0), BuildingBlock: UVAHIK_clean_linker_0, # of connection points: 2
#     Edge 88, Type (0, 0), BuildingBlock: UVAHIK_clean_linker_0, # of connection points: 2
#     Edge 89, Type (0, 0), BuildingBlock: UVAHIK_clean_linker_0, # of connection points: 2
#     Edge 90, Type (0, 0), BuildingBlock: UVAHIK_clean_linker_0, # of connection points: 2
#     Edge 91, Type (0, 0), BuildingBlock: UVAHIK_clean_linker_0, # of connection points: 2
#     Edge 92, Type (0, 0), BuildingBlock: UVAHIK_clean_linker_0, # of connection points: 2
#     Edge 93, Type (0, 0), BuildingBlock: UVAHIK_clean_linker_0, # of connection points: 2
#     Edge 94, Type (0, 0), BuildingBlock: UVAHIK_clean_linker_0, # of connection points: 2
#     Edge 95, Type (0, 0), BuildingBlock: UVAHIK_clean_linker_0, # of connection points: 2
#     Edge 96, Type (0, 0), BuildingBlock: UVAHIK_clean_linker_0, # of connection points: 2
#     Edge 97, Type (0, 0), BuildingBlock: UVAHIK_clean_linker_0, # of connection points: 2
#     Edge 98, Type (0, 0), BuildingBlock: UVAHIK_clean_linker_0, # of connection points: 2
#     Edge 99, Type (0, 0), BuildingBlock: UVAHIK_clean_linker_0, # of connection points: 2
#     Edge 100, Type (0, 0), BuildingBlock: UVAHIK_clean_linker_0, # of connection points: 2
#     Edge 101, Type (0, 0), BuildingBlock: UVAHIK_clean_linker_0, # of connection points: 2
#     Edge 102, Type (0, 0), BuildingBlock: UVAHIK_clean_linker_0, # of connection points: 2
#     Edge 103, Type (0, 0), BuildingBlock: UVAHIK_clean_linker_0, # of connection points: 2
#     Edge 104, Type (0, 0), BuildingBlock: UVAHIK_clean_linker_0, # of connection points: 2
#     Edge 105, Type (0, 0), BuildingBlock: UVAHIK_clean_linker_0, # of connection points: 2
#     Edge 106, Type (0, 0), BuildingBlock: UVAHIK_clean_linker_0, # of connection points: 2
#     Edge 107, Type (0, 0), BuildingBlock: UVAHIK_clean_linker_0, # of connection points: 2
#     Edge 108, Type (0, 0), BuildingBlock: UVAHIK_clean_linker_0, # of connection points: 2
#     Edge 109, Type (0, 0), BuildingBlock: UVAHIK_clean_linker_0, # of connection points: 2
#     Edge 110, Type (0, 0), BuildingBlock: UVAHIK_clean_linker_0, # of connection points: 2
#     Edge 111, Type (0, 0), BuildingBlock: UVAHIK_clean_linker_0, # of connection points: 2
#     Edge 112, Type (0, 0), BuildingBlock: UVAHIK_clean_linker_0, # of connection points: 2
#     Edge 113, Type (0, 0), BuildingBlock: UVAHIK_clean_linker_0, # of connection points: 2
#     Edge 114, Type (0, 0), BuildingBlock: UVAHIK_clean_linker_0, # of connection points: 2
#     Edge 115, Type (0, 0), BuildingBlock: UVAHIK_clean_linker_0, # of connection points: 2
#     Edge 116, Type (0, 0), BuildingBlock: UVAHIK_clean_linker_0, # of connection points: 2
#     Edge 117, Type (0, 0), BuildingBlock: UVAHIK_clean_linker_0, # of connection points: 2
#     Edge 118, Type (0, 0), BuildingBlock: UVAHIK_clean_linker_0, # of connection points: 2
#     Edge 119, Type (0, 0), BuildingBlock: UVAHIK_clean_linker_0, # of connection points: 2
#     Edge 120, Type (0, 0), BuildingBlock: UVAHIK_clean_linker_0, # of connection points: 2
#     Edge 121, Type (0, 0), BuildingBlock: UVAHIK_clean_linker_0, # of connection points: 2
#     Edge 122, Type (0, 0), BuildingBlock: UVAHIK_clean_linker_0, # of connection points: 2
#     Edge 123, Type (0, 0), BuildingBlock: UVAHIK_clean_linker_0, # of connection points: 2
#     Edge 124, Type (0, 0), BuildingBlock: UVAHIK_clean_linker_0, # of connection points: 2
#     Edge 125, Type (0, 0), BuildingBlock: UVAHIK_clean_linker_0, # of connection points: 2
# Relax obj value: 0.124
# Max RMSD: 0.175
# Mean RMSD: 0.175
data_MOF--net-wlq--node1-XOMCOT_clean_sbu_0--edge1-UVAHIK_clean_linker_0
_symmetry_space_group_name_H-M    P1
_symmetry_Int_Tables_number       1
_symmetry_cell_setting            triclinic
loop_
_symmetry_equiv_pos_as_xyz
'x, y, z'
_cell_length_a     96.281272
_cell_length_b     96.306918
_cell_length_c     44.176667
_cell_angle_alpha  89.97465
_cell_angle_beta   90.032289
_cell_angle_gamma 120.05583
loop_
_atom_site_label
_atom_site_type_symbol
_atom_site_fract_x
_atom_site_fract_y
_atom_site_fract_z
_atom_type_partial_charge
Co0 Co 0.22281 0.21533 0.02443 0.0
C1 C 0.22511 0.22004 0.09265 0.0
C2 C 0.23439 0.2418 0.06704 0.0
C3 C 0.23591 0.2456 0.09724 0.0
N4 N 0.22778 0.2258 0.06393 0.0
N5 N 0.23011 0.23194 0.11343 0.0
H6 H 0.21974 0.20757 0.09859 0.0
H7 H 0.23782 0.25017 0.04841 0.0
C8 C 0.25828 0.23467 0.02689 0.0
O9 O 0.25699 0.22892 0.05438 0.0
N10 N 0.21776 0.2055 0.98478 0.0
C11 C 0.20939 0.18966 0.97864 0.0
C12 C 0.20871 0.18761 0.94774 0.0
C13 C 0.22172 0.21291 0.95761 0.0
N14 N 0.2164 0.20221 0.93465 0.0
C15 C 0.21805 0.18712 0.05639 0.0
C16 C 0.24103 0.18397 0.02455 0.0
C17 C 0.23088 0.17172 0.04424 0.0
C18 C 0.21949 0.17349 0.06084 0.0
C19 C 0.23935 0.19741 0.02108 0.0
N20 N 0.22809 0.19907 0.03711 0.0
H21 H 0.20806 0.18743 0.06673 0.0
H22 H 0.24622 0.20575 1.00338 0.0
H23 H 0.20417 0.18025 0.99544 0.0
H24 H 0.22843 0.2258 0.95472 0.0
O25 O 0.20023 0.20423 0.03425 0.0
O26 O 0.2135 0.22822 0.01269 0.0
O27 O 0.24565 0.2304 0.01102 0.0
C28 C 0.19997 0.21656 0.02285 0.0
H29 H 0.24062 0.25753 0.1065 0.0
H30 H 0.20276 0.17629 0.93575 0.0
H31 H 0.24964 0.18275 0.01068 0.0
H32 H 0.21104 0.16394 0.07542 0.0
Co33 Co 0.78132 0.00429 0.03078 0.0
C34 C 0.77587 0.00393 0.09682 0.0
C35 C 0.75648 0.00294 0.07104 0.0
C36 C 0.75299 0.00253 0.10132 0.0
N37 N 0.77083 0.00388 0.06826 0.0
N38 N 0.76514 0.00307 0.11767 0.0
H39 H 0.78703 0.0043 0.10203 0.0
H40 H 0.74898 0.00243 0.05237 0.0
C41 C 0.7769 0.0271 0.99139 0.0
O42 O 0.79196 0.03338 0.983 0.0
N43 N 0.79151 0.00415 0.99265 0.0
C44 C 0.80517 0.00371 0.98869 0.0
C45 C 0.80723 0.00209 0.95841 0.0
C46 C 0.78506 0.00193 0.96457 0.0
N47 N 0.79465 0.00112 0.94309 0.0
C48 C 0.81406 0.02517 0.04901 0.0
C49 C 0.81256 0.05304 0.05152 0.0
C50 C 0.82764 0.05412 0.05261 0.0
C51 C 0.82815 0.03982 0.05309 0.0
C52 C 0.79875 0.03805 0.0477 0.0
N53 N 0.79986 0.02459 0.04328 0.0
H54 H 0.81466 0.01432 0.05011 0.0
H55 H 0.78724 0.03743 0.04714 0.0
H56 H 0.81282 0.0036 0.00636 0.0
H57 H 0.77354 0.00088 0.96004 0.0
O58 O 0.78741 0.98965 0.04773 0.0
O59 O 0.76486 0.98241 0.02255 0.0
O60 O 0.77085 0.01558 0.01049 0.0
C61 C 0.77409 0.97817 0.0365 0.0
H62 H 0.74229 0.00197 0.11038 0.0
H63 H 0.81699 0.00108 0.94866 0.0
H64 H 0.81144 0.06367 0.05222 0.0
H65 H 0.83938 0.03994 0.05599 0.0
Co66 Co 0.99346 0.7753 0.02532 0.0
C67 C 0.99531 0.77289 0.09327 0.0
C68 C 0.00735 0.76286 0.06848 0.0
C69 C 0.00906 0.76104 0.09884 0.0
N70 N 0.99858 0.77013 0.06483 0.0
N71 N 0.00148 0.76732 0.11441 0.0
H72 H 0.98844 0.77856 0.09877 0.0
H73 H 0.01212 0.75906 0.05015 0.0
C74 C 0.97562 0.73972 0.02841 0.0
O75 O 0.97161 0.74127 0.05611 0.0
N76 N 0.98893 0.78055 0.98581 0.0
C77 C 0.98396 0.79107 0.97981 0.0
C78 C 0.98275 0.79202 0.94898 0.0
C79 C 0.99085 0.77534 0.95868 0.0
N80 N 0.98708 0.78214 0.93568 0.0
C81 C 0.97176 0.78271 0.05655 0.0
C82 C 0.94411 0.75938 0.02887 0.0
C83 C 0.94319 0.77058 0.04766 0.0
C84 C 0.95724 0.7823 0.06179 0.0
C85 C 0.95887 0.76035 0.02393 0.0
N86 N 0.97248 0.77162 0.03833 0.0
H87 H 0.9826 0.79254 0.06588 0.0
H88 H 0.95941 0.7527 0.00673 0.0
H89 H 0.98167 0.79782 0.99667 0.0
H90 H 0.99502 0.76686 0.95591 0.0
O91 O 0.0062 0.79792 0.03419 0.0
O92 O 0.0155 0.78324 0.01332 0.0
O93 O 0.98429 0.75221 0.01244 0.0
C94 C 0.01827 0.7972 0.02277 0.0
H95 H 0.01555 0.75566 0.10868 0.0
H96 H 0.97946 0.79983 0.93728 0.0
H97 H 0.93369 0.75059 0.01644 0.0
H98 H 0.95712 0.79141 0.07597 0.0
Co99 Co 0.21334 0.22252 0.52595 0.0
C100 C 0.21853 0.22612 0.45956 0.0
C101 C 0.23999 0.24145 0.4846 0.0
C102 C 0.24345 0.24382 0.45418 0.0
N103 N 0.22439 0.23044 0.48792 0.0
N104 N 0.22996 0.2342 0.43839 0.0
H105 H 0.20615 0.21739 0.45461 0.0
H106 H 0.24832 0.24725 0.50305 0.0
C107 C 0.22145 0.25139 0.56323 0.0
O108 O 0.20646 0.24398 0.5724 0.0
N109 N 0.20273 0.21449 0.56493 0.0
C110 C 0.18698 0.20639 0.57231 0.0
C111 C 0.18553 0.20426 0.6032 0.0
C112 C 0.21054 0.21664 0.59153 0.0
N113 N 0.20033 0.21072 0.61516 0.0
C114 C 0.18183 0.21386 0.50432 0.0
C115 C 0.18684 0.24466 0.50065 0.0
C116 C 0.17115 0.23169 0.49817 0.0
C117 C 0.16885 0.21612 0.49838 0.0
C118 C 0.19946 0.2418 0.50635 0.0
N119 N 0.19654 0.22656 0.51133 0.0
H120 H 0.17978 0.20177 0.50529 0.0
H121 H 0.21149 0.25193 0.50757 0.0
H122 H 0.17701 0.20223 0.55701 0.0
H123 H 0.22348 0.22302 0.59366 0.0
O124 O 0.20479 0.20073 0.51193 0.0
O125 O 0.22781 0.21488 0.53654 0.0
O126 O 0.22615 0.24479 0.54378 0.0
C127 C 0.21745 0.2014 0.52395 0.0
H128 H 0.2551 0.25183 0.44449 0.0
H129 H 0.17444 0.19839 0.61593 0.0
H130 H 0.18928 0.2569 0.49892 0.0
H131 H 0.15701 0.20572 0.49575 0.0
Co132 Co 0.77533 0.99303 0.53109 0.0
C133 C 0.77184 0.9949 0.46341 0.0
C134 C 0.75945 0.00412 0.48942 0.0
C135 C 0.75713 0.00578 0.45924 0.0
N136 N 0.76841 0.99701 0.4922 0.0
N137 N 0.76492 -1e-05 0.4429 0.0
H138 H 0.77919 0.98984 0.45722 0.0
H139 H 0.75494 0.00791 0.50821 0.0
C140 C 0.73983 0.97369 0.53228 0.0
O141 O 0.74093 0.96926 0.50466 0.0
N142 N 0.78242 0.98968 0.5699 0.0
C143 C 0.79394 0.98585 0.57411 0.0
C144 C 0.79654 0.98564 0.60463 0.0
C145 C 0.77814 0.9918 0.59788 0.0
N146 N 0.78668 0.98944 0.61959 0.0
C147 C 0.78238 0.97127 0.49872 0.0
C148 C 0.76071 0.94396 0.52966 0.0
C149 C 0.77105 0.9429 0.50881 0.0
C150 C 0.78201 0.95678 0.4932 0.0
C151 C 0.76169 0.95869 0.5349 0.0
N152 N 0.77198 0.97208 0.51872 0.0
H153 H 0.79174 0.98202 0.48827 0.0
H154 H 0.75483 0.95941 0.55349 0.0
H155 H 0.80021 0.98362 0.55618 0.0
H156 H 0.7694 0.9955 0.60218 0.0
O157 O 0.79744 0.00626 0.51902 0.0
O158 O 0.78293 0.01515 0.542 0.0
O159 O 0.75259 0.98326 0.54686 0.0
C160 C 0.79666 0.01828 0.53052 0.0
H161 H 0.75051 0.01116 0.45003 0.0
H162 H 0.80509 0.98292 0.615 0.0
H163 H 0.75263 0.93371 0.54331 0.0
H164 H 0.79058 0.95656 0.47763 0.0
Co165 Co 0.00678 0.78142 0.52728 0.0
C166 C 0.00453 0.77682 0.45938 0.0
C167 C 0.99356 0.75487 0.48469 0.0
C168 C 0.99156 0.75115 0.45443 0.0
N169 N 0.00186 0.77094 0.48795 0.0
N170 N 0.99846 0.76494 0.4385 0.0
H171 H 0.01078 0.78936 0.45362 0.0
H172 H 0.98922 0.74639 0.50322 0.0
C173 C 0.02513 0.76421 0.52491 0.0
O174 O 0.02929 0.76988 0.4973 0.0
N175 N 0.01108 0.79132 0.56664 0.0
C176 C 0.01578 0.80678 0.57242 0.0
C177 C 0.01687 0.80901 0.60323 0.0
C178 C 0.00921 0.78428 0.59388 0.0
N179 N 0.01273 0.79488 0.61674 0.0
C180 C 0.02827 0.81053 0.49567 0.0
C181 C 0.05594 0.81549 0.52422 0.0
C182 C 0.05674 0.82745 0.5051 0.0
C183 C 0.04269 0.82479 0.49051 0.0
C184 C 0.04128 0.80154 0.52906 0.0
N185 N 0.02767 0.79889 0.51426 0.0
H186 H 0.0174 0.80931 0.4861 0.0
H187 H 0.0408 0.79348 0.54651 0.0
H188 H 0.01796 0.81572 0.55541 0.0
H189 H 0.00523 0.77168 0.59681 0.0
O190 O 0.99379 0.79094 0.51791 0.0
O191 O 0.98476 0.76707 0.53918 0.0
O192 O 0.01622 0.7678 0.54063 0.0
C193 C 0.9818 0.77808 0.5294 0.0
H194 H 0.98521 0.7392 0.44492 0.0
H195 H 0.01992 0.8201 0.61476 0.0
H196 H 0.06634 0.81735 0.53703 0.0
H197 H 0.04272 0.8339 0.47609 0.0
Co198 Co 0.77852 0.78446 0.02978 0.0
C199 C 0.77402 0.77907 0.9635 0.0
C200 C 0.75607 0.75913 0.98892 0.0
C201 C 0.75343 0.75553 0.95859 0.0
N202 N 0.76893 0.77388 0.99198 0.0
N203 N 0.76476 0.76802 0.9425 0.0
H204 H 0.78451 0.79051 0.9584 0.0
H205 H 0.7492 0.75139 0.00745 0.0
C206 C 0.75093 0.77786 0.07013 0.0
O207 O 0.75906 0.7929 0.07896 0.0
N208 N 0.78839 0.79476 0.06816 0.0
C209 C 0.80151 0.8093 0.07261 0.0
C210 C 0.80533 0.8112 0.10286 0.0
C211 C 0.7849 0.78779 0.09589 0.0
N212 N 0.79485 0.79771 0.11755 0.0
C213 C 0.78836 0.81675 0.0115 0.0
C214 C 0.75816 0.8134 0.01077 0.0
C215 C 0.77162 0.82886 0.00927 0.0
C216 C 0.78684 0.83031 0.00789 0.0
C217 C 0.76029 0.80014 0.01421 0.0
N218 N 0.77531 0.80218 0.01777 0.0
H219 H 0.80013 0.81808 0.00984 0.0
H220 H 0.7498 0.78833 0.01509 0.0
H221 H 0.80845 0.81783 0.05531 0.0
H222 H 0.77545 0.77559 0.10004 0.0
O223 O 0.79963 0.79206 0.01312 0.0
O224 O 0.78534 0.76902 0.0375 0.0
O225 O 0.75674 0.77262 0.05006 0.0
C226 C 0.79869 0.77907 0.02406 0.0
H227 H 0.74383 0.7445 0.94924 0.0
H228 H 0.81515 0.82174 0.1132 0.0
H229 H 0.74611 0.81158 0.01071 0.0
H230 H 0.79754 0.8419 1.00474 0.0
Co231 Co 0.21498 0.99271 0.02831 0.0
C232 C 0.22115 0.99496 0.96248 0.0
C233 C 0.24055 0.99574 0.9879 0.0
C234 C 0.24431 0.99703 0.95759 0.0
N235 N 0.22603 0.99439 0.99087 0.0
N236 N 0.23214 0.99661 0.94154 0.0
H237 H 0.20992 0.99449 0.95748 0.0
H238 H 0.24795 0.99589 0.00645 0.0
C239 C 0.21889 0.96866 0.06451 0.0
O240 O 0.20362 0.9619 0.07169 0.0
N241 N 0.20427 0.99161 0.06651 0.0
C242 C 0.19088 0.99253 0.07088 0.0
C243 C 0.18866 0.99343 0.10135 0.0
C244 C 0.21043 0.99288 0.09463 0.0
N245 N 0.2009 0.99354 0.11637 0.0
C246 C 0.18238 0.9719 0.0092 0.0
C247 C 0.18512 0.94513 0.99869 0.0
C248 C 0.16977 0.94347 0.99832 0.0
C249 C 0.16865 0.95733 1.00253 0.0
C250 C 0.19851 0.95995 0.00589 0.0
N251 N 0.19679 0.97276 0.01361 0.0
H252 H 0.18133 0.98247 0.01087 0.0
H253 H 0.21021 0.961 1.00588 0.0
H254 H 0.18371 0.99371 0.0535 0.0
H255 H 0.22181 0.99359 0.09901 0.0
O256 O 0.20898 0.00773 0.01298 0.0
O257 O 0.23116 0.01429 0.03903 0.0
O258 O 0.22528 0.98093 0.04714 0.0
C259 C 0.2221 0.01886 0.0255 0.0
H260 H 0.25519 0.99811 0.94826 0.0
H261 H 0.17915 0.99473 0.1115 0.0
H262 H 0.18681 0.93506 0.99384 0.0
H263 H 0.15725 0.95698 1.00167 0.0
Co264 Co 0.00467 0.22095 0.02817 0.0
C265 C 0.00357 0.22498 0.96038 0.0
C266 C 0.99599 0.23879 0.98637 0.0
C267 C 0.99473 0.24144 0.95621 0.0
N268 N 0.00186 0.22874 0.98919 0.0
N269 N 0.99949 0.23277 0.93986 0.0
H270 H 0.00754 0.21674 0.95416 0.0
H271 H 0.99272 0.24378 1.00515 0.0
C272 C 0.02573 0.25623 0.03072 0.0
O273 O 0.03077 0.25495 1.00378 0.0
N274 N 0.00688 0.21308 0.06706 0.0
C275 C 0.00922 0.20057 0.07136 0.0
C276 C 0.01017 0.19852 0.1019 0.0
C277 C 0.0063 0.21844 0.09501 0.0
N278 N 0.00839 0.20976 0.11683 0.0
C279 C 0.02589 0.21293 0.99626 0.0
C280 C 0.05271 0.23209 0.03093 0.0
C281 C 0.05354 0.22206 0.00914 0.0
C282 C 0.04001 0.21243 0.99151 0.0
C283 C 0.03846 0.2323 0.03482 0.0
N284 N 0.02533 0.22318 0.01699 0.0
H285 H 0.01515 0.20426 0.98473 0.0
H286 H 0.03776 0.23905 0.05363 0.0
H287 H 0.01013 0.1934 0.05347 0.0
H288 H 0.00454 0.22852 0.09922 0.0
O289 O 0.9907 0.19914 0.01517 0.0
O290 O 0.98265 0.2144 0.03791 0.0
O291 O 0.01528 0.24362 0.04459 0.0
C292 C 0.97895 0.20057 0.02618 0.0
H293 H 0.99025 0.24888 0.94702 0.0
H294 H 0.01175 0.18922 0.11227 0.0
H295 H 0.06279 0.23917 0.04579 0.0
H296 H 0.04009 0.20399 0.97542 0.0
Co297 Co 0.78642 0.77928 0.53008 0.0
C298 C 0.78109 0.77474 0.59642 0.0
C299 C 0.76075 0.75738 0.57091 0.0
C300 C 0.75731 0.75446 0.60126 0.0
N301 N 0.77567 0.77 0.56791 0.0
N302 N 0.77008 0.76536 0.61733 0.0
H303 H 0.79286 0.78473 0.60168 0.0
H304 H 0.75285 0.75085 0.55233 0.0
C305 C 0.78123 0.75094 0.49371 0.0
O306 O 0.79651 0.75914 0.48643 0.0
N307 N 0.79686 0.78886 0.49149 0.0
C308 C 0.81009 0.80334 0.48717 0.0
C309 C 0.81253 0.80642 0.45673 0.0
C310 C 0.79093 0.78387 0.46322 0.0
N311 N 0.80055 0.79412 0.44155 0.0
C312 C 0.81914 0.78997 0.54661 0.0
C313 C 0.81533 0.76005 0.55778 0.0
C314 C 0.83092 0.7734 0.55723 0.0
C315 C 0.83261 0.78858 0.5526 0.0
C316 C 0.80218 0.76203 0.55136 0.0
N317 N 0.80436 0.77671 0.54338 0.0
H318 H 0.8207 0.80177 0.54461 0.0
H319 H 0.79027 0.75165 0.55211 0.0
H320 H 0.81703 0.81181 0.5046 0.0
H321 H 0.77968 0.77308 0.45857 0.0
O322 O 0.79354 0.80041 0.54591 0.0
O323 O 0.77073 0.78565 0.52105 0.0
O324 O 0.77518 0.75717 0.51104 0.0
C325 C 0.78053 0.79916 0.53436 0.0
H326 H 0.7461 0.74521 0.61076 0.0
H327 H 0.82201 0.81729 0.44664 0.0
H328 H 0.81327 0.74817 0.56282 0.0
H329 H 0.84425 0.79938 0.55265 0.0
Co330 Co 0.2221 0.00619 0.52821 0.0
C331 C 0.22571 0.00578 0.59619 0.0
C332 C 0.23943 0.99762 0.57153 0.0
C333 C 0.24189 0.99668 0.60191 0.0
N334 N 0.2296 0.0037 0.56775 0.0
N335 N 0.23326 0.00181 0.61739 0.0
H336 H 0.21751 0.00992 0.6017 0.0
H337 H 0.24441 0.994 0.55328 0.0
C338 C 0.25742 0.0263 0.52569 0.0
O339 O 0.25615 0.03187 0.55208 0.0
N340 N 0.21442 0.00798 0.48884 0.0
C341 C 0.20243 0.01107 0.48398 0.0
C342 C 0.19953 0.01036 0.45345 0.0
C343 C 0.21869 0.00539 0.46122 0.0
N344 N 0.20968 0.00672 0.43914 0.0
C345 C 0.21553 0.02903 0.55805 0.0
C346 C 0.23479 0.05445 0.52046 0.0
C347 C 0.22528 0.05639 0.54198 0.0
C348 C 0.21571 0.04359 0.56126 0.0
C349 C 0.23445 0.03987 0.51835 0.0
N350 N 0.22522 0.02741 0.53748 0.0
H351 H 0.20668 0.01879 0.5705 0.0
H352 H 0.24082 0.03833 0.49977 0.0
H353 H 0.19609 0.01348 0.50153 0.0
H354 H 0.2278 0.00213 0.45749 0.0
O355 O 0.20015 0.99318 0.54129 0.0
O356 O 0.21475 0.98382 0.52026 0.0
O357 O 0.24476 0.0158 0.51197 0.0
C358 C 0.20101 0.98092 0.53135 0.0
H359 H 0.24916 0.9922 0.61187 0.0
H360 H 0.19061 0.01238 0.4426 0.0
H361 H 0.24194 0.06394 0.50453 0.0
H362 H 0.20767 0.04449 0.57726 0.0
Co363 Co 0.99344 0.216 0.5277 0.0
C364 C 0.99415 0.22155 0.59375 0.0
C365 C 0.99471 0.24077 0.56809 0.0
C366 C 0.99529 0.2443 0.59839 0.0
N367 N 0.99394 0.2265 0.56523 0.0
N368 N 0.99501 0.23226 0.61464 0.0
H369 H 0.99397 0.21048 0.59893 0.0
H370 H 0.99497 0.24817 0.54945 0.0
C371 C 0.97038 0.21989 0.48808 0.0
O372 O 0.96447 0.20492 0.47945 0.0
N373 N 0.99348 0.20583 0.48955 0.0
C374 C 0.99333 0.19188 0.4852 0.0
C375 C 0.99551 0.19023 0.45494 0.0
C376 C 0.99639 0.21272 0.46181 0.0
N377 N 0.99737 0.20331 0.44024 0.0
C378 C 0.97336 0.1834 0.54754 0.0
C379 C 0.94502 0.18404 0.54967 0.0
C380 C 0.94441 0.16921 0.552 0.0
C381 C 0.95895 0.16917 0.55254 0.0
C382 C 0.95977 0.19801 0.54492 0.0
N383 N 0.97346 0.19727 0.54084 0.0
H384 H 0.98442 0.18317 0.54863 0.0
H385 H 0.96001 0.20932 0.54363 0.0
H386 H 0.99251 0.18367 0.50256 0.0
H387 H 0.99819 0.22458 0.45763 0.0
O388 O 0.00867 0.21047 0.54399 0.0
O389 O 0.01502 0.23276 0.51868 0.0
O390 O 0.98164 0.22601 0.50774 0.0
C391 C 0.01976 0.22386 0.53223 0.0
H392 H 0.99577 0.25494 0.60758 0.0
H393 H 0.99583 0.18021 0.44462 0.0
H394 H 0.9342 0.18484 0.55022 0.0
H395 H 0.95919 0.15817 0.55626 0.0
Co396 Co 0.88723 0.54605 0.36034 0.0
C397 C 0.88973 0.55231 0.42657 0.0
C398 C 0.90678 0.57281 0.4011 0.0
C399 C 0.90875 0.57673 0.43134 0.0
N400 N 0.89492 0.55752 0.39813 0.0
N401 N 0.898 0.56387 0.44748 0.0
H402 H 0.88001 0.54038 0.4317 0.0
H403 H 0.91356 0.58059 0.38255 0.0
C404 C 0.91639 0.55269 0.32531 0.0
O405 O 0.9088 0.53751 0.3173 0.0
N406 N 0.87951 0.53499 0.32156 0.0
C407 C 0.87133 0.51914 0.31494 0.0
C408 C 0.86984 0.51724 0.28403 0.0
C409 C 0.88235 0.54242 0.29433 0.0
N410 N 0.87676 0.53185 0.2712 0.0
C411 C 0.87704 0.51472 0.38423 0.0
C412 C 0.90714 0.5185 0.39276 0.0
C413 C 0.89366 0.50309 0.39569 0.0
C414 C 0.87842 0.50151 0.39259 0.0
C415 C 0.90515 0.53137 0.38398 0.0
N416 N 0.89027 0.52899 0.37708 0.0
H417 H 0.86518 0.51313 0.3816 0.0
H418 H 0.91564 0.54314 0.38232 0.0
H419 H 0.86679 0.50937 0.33075 0.0
H420 H 0.88906 0.55531 0.29146 0.0
O421 O 0.8654 0.53831 0.37306 0.0
O422 O 0.88031 0.56087 0.34764 0.0
O423 O 0.90979 0.558 0.34347 0.0
C424 C 0.86658 0.55096 0.36003 0.0
H425 H 0.91764 0.58817 0.44062 0.0
H426 H 0.86419 0.50597 0.27184 0.0
H427 H 0.91914 0.5206 0.3967 0.0
H428 H 0.86755 0.49003 0.39504 0.0
Co429 Co 0.45101 0.33982 0.36122 0.0
C430 C 0.44592 0.33967 0.42752 0.0
C431 C 0.4259 0.33745 0.40202 0.0
C432 C 0.42259 0.33723 0.43237 0.0
N433 N 0.44055 0.33909 0.39901 0.0
N434 N 0.43517 0.33863 0.44843 0.0
H435 H 0.45749 0.34095 0.43277 0.0
H436 H 0.41807 0.33631 0.38344 0.0
C437 C 0.44699 0.36372 0.32473 0.0
O438 O 0.46225 0.37043 0.31746 0.0
N439 N 0.4611 0.33988 0.32265 0.0
C440 C 0.47348 0.33723 0.31849 0.0
C441 C 0.47588 0.33644 0.28808 0.0
C442 C 0.45554 0.33959 0.29429 0.0
N443 N 0.46467 0.33805 0.27276 0.0
C444 C 0.48425 0.36131 0.3758 0.0
C445 C 0.48129 0.3878 0.38822 0.0
C446 C 0.49675 0.38978 0.38628 0.0
C447 C 0.49801 0.37608 0.38102 0.0
C448 C 0.46784 0.37278 0.38244 0.0
N449 N 0.46954 0.36006 0.37395 0.0
H450 H 0.48552 0.35093 0.37317 0.0
H451 H 0.45606 0.37151 0.38394 0.0
H452 H 0.47975 0.3348 0.33604 0.0
H453 H 0.44484 0.34017 0.28944 0.0
O454 O 0.45713 0.32511 0.37763 0.0
O455 O 0.43454 0.31802 0.35263 0.0
O456 O 0.44058 0.35136 0.34189 0.0
C457 C 0.44377 0.3137 0.36634 0.0
H458 H 0.41158 0.33579 0.44187 0.0
H459 H 0.48474 0.33406 0.27809 0.0
H460 H 0.47956 0.39778 0.39377 0.0
H461 H 0.50954 0.3767 0.37996 0.0
Co462 Co 0.66004 0.11018 0.35735 0.0
C463 C 0.66059 0.10613 0.42507 0.0
C464 C 0.66878 0.09264 0.3997 0.0
C465 C 0.66975 0.08995 0.42994 0.0
N466 N 0.66264 0.10245 0.39646 0.0
N467 N 0.66461 0.09844 0.44583 0.0
H468 H 0.65647 0.11429 0.43099 0.0
H469 H 0.67242 0.08783 0.38118 0.0
C470 C 0.64027 0.07485 0.35382 0.0
O471 O 0.6346 0.07581 0.38032 0.0
N472 N 0.65811 0.11804 0.31836 0.0
C473 C 0.65536 0.13027 0.31377 0.0
C474 C 0.65486 0.13245 0.28317 0.0
C475 C 0.65934 0.11295 0.29059 0.0
N476 N 0.65731 0.12154 0.26854 0.0
C477 C 0.6368 0.11601 0.38784 0.0
C478 C 0.61156 0.09676 0.34988 0.0
C479 C 0.60934 0.10585 0.3719 0.0
C480 C 0.62206 0.11544 0.39135 0.0
C481 C 0.62631 0.09748 0.34746 0.0
N482 N 0.63868 0.10667 0.36681 0.0
H483 H 0.64695 0.12484 0.40053 0.0
H484 H 0.62803 0.09141 0.32857 0.0
H485 H 0.65388 0.13716 0.3315 0.0
H486 H 0.66155 0.10313 0.28668 0.0
O487 O 0.67283 0.13204 0.37109 0.0
O488 O 0.68246 0.11787 0.3493 0.0
O489 O 0.6507 0.08768 0.34046 0.0
C490 C 0.6852 0.13143 0.36094 0.0
H491 H 0.67426 0.08263 0.43955 0.0
H492 H 0.65315 0.14162 0.27259 0.0
H493 H 0.60213 0.08961 0.33383 0.0
H494 H 0.62094 0.12317 0.40777 0.0
Co495 Co 0.88011 0.55374 0.8608 0.0
C496 C 0.8849 0.55762 0.79424 0.0
C497 C 0.90551 0.57511 0.81896 0.0
C498 C 0.90863 0.57786 0.78848 0.0
N499 N 0.89062 0.56251 0.82255 0.0
N500 N 0.89569 0.56687 0.77292 0.0
H501 H 0.87305 0.54766 0.7894 0.0
H502 H 0.91358 0.5818 0.83724 0.0
C503 C 0.88674 0.58172 0.89956 0.0
O504 O 0.87174 0.57347 0.90857 0.0
N505 N 0.86996 0.54483 0.89983 0.0
C506 C 0.85432 0.53501 0.90672 0.0
C507 C 0.85279 0.53277 0.93756 0.0
C508 C 0.87774 0.54778 0.92669 0.0
N509 N 0.86749 0.54083 0.95003 0.0
C510 C 0.84806 0.54361 0.84049 0.0
C511 C 0.85108 0.57367 0.83915 0.0
C512 C 0.83571 0.56011 0.83711 0.0
C513 C 0.83445 0.54497 0.83592 0.0
C514 C 0.86438 0.5717 0.84351 0.0
N515 N 0.86244 0.55675 0.84756 0.0
H516 H 0.84679 0.53183 0.84007 0.0
H517 H 0.87612 0.58227 0.84469 0.0
H518 H 0.84447 0.52967 0.89105 0.0
H519 H 0.89057 0.55548 0.92924 0.0
O520 O 0.87243 0.53229 0.84589 0.0
O521 O 0.89556 0.54705 0.8697 0.0
O522 O 0.89203 0.57589 0.8796 0.0
C523 C 0.88548 0.53346 0.85702 0.0
H524 H 0.91971 0.58709 0.77854 0.0
H525 H 0.8417 0.52575 0.94993 0.0
H526 H 0.85278 0.58567 0.83892 0.0
H527 H 0.82295 0.53419 0.83257 0.0
Co528 Co 0.44422 0.32845 0.86073 0.0
C529 C 0.43979 0.32973 0.79456 0.0
C530 C 0.42219 0.3322 0.82018 0.0
C531 C 0.41956 0.33327 0.78988 0.0
N532 N 0.43482 0.32994 0.82308 0.0
N533 N 0.43067 0.33181 0.77367 0.0
H534 H 0.45008 0.32846 0.78935 0.0
H535 H 0.41546 0.33319 0.8388 0.0
C536 C 0.41637 0.30686 0.90009 0.0
O537 O 0.42446 0.29991 0.90888 0.0
N538 N 0.45387 0.3275 0.899 0.0
C539 C 0.46677 0.32573 0.90341 0.0
C540 C 0.47044 0.32731 0.93372 0.0
C541 C 0.45034 0.3308 0.92684 0.0
N542 N 0.46008 0.33044 0.94851 0.0
C543 C 0.45422 0.30638 0.84064 0.0
C544 C 0.42402 0.27955 0.83807 0.0
C545 C 0.43747 0.27763 0.83523 0.0
C546 C 0.45271 0.29142 0.83513 0.0
C547 C 0.42613 0.2948 0.84335 0.0
N548 N 0.44114 0.30773 0.84755 0.0
H549 H 0.46601 0.31687 0.8398 0.0
H550 H 0.41564 0.29607 0.84465 0.0
H551 H 0.47365 0.32409 0.88609 0.0
H552 H 0.44101 0.3337 0.93105 0.0
O553 O 0.46539 0.34236 0.84454 0.0
O554 O 0.45087 0.35055 0.86965 0.0
O555 O 0.42233 0.31816 0.8805 0.0
C556 C 0.46425 0.35419 0.85601 0.0
H557 H 0.41011 0.33495 0.78061 0.0
H558 H 0.48007 0.32625 0.94403 0.0
H559 H 0.41198 0.26934 0.83659 0.0
H560 H 0.46346 0.29065 0.83198 0.0
Co561 Co 0.67214 0.11567 0.85819 0.0
C562 C 0.66983 0.11019 0.79085 0.0
C563 C 0.66697 0.09002 0.81634 0.0
C564 C 0.66507 0.086 0.78624 0.0
N565 N 0.67051 0.10539 0.81935 0.0
N566 N 0.66683 0.09868 0.7701 0.0
H567 H 0.67044 0.12137 0.78536 0.0
H568 H 0.6655 0.08208 0.8349 0.0
C569 C 0.69446 0.10312 0.86373 0.0
O570 O 0.70024 0.11018 0.83757 0.0
N571 N 0.67301 0.12531 0.89688 0.0
C572 C 0.67473 0.13993 0.90117 0.0
C573 C 0.67373 0.14214 0.93164 0.0
C574 C 0.67098 0.11876 0.92465 0.0
N575 N 0.67135 0.12883 0.94635 0.0
C576 C 0.69447 0.14471 0.82593 0.0
C577 C 0.71945 0.15349 0.86632 0.0
C578 C 0.72137 0.16382 0.84247 0.0
C579 C 0.70879 0.15928 0.82185 0.0
C580 C 0.70515 0.13901 0.86925 0.0
N581 N 0.69292 0.13447 0.84881 0.0
H582 H 0.68437 0.1423 0.81195 0.0
H583 H 0.70363 0.13183 0.88906 0.0
H584 H 0.67642 0.14832 0.88331 0.0
H585 H 0.66882 0.10676 0.92879 0.0
O586 O 0.6582 0.1232 0.84354 0.0
O587 O 0.65002 0.09974 0.866 0.0
O588 O 0.68293 0.10406 0.87608 0.0
C589 C 0.64636 0.10982 0.85383 0.0
H590 H 0.66246 0.07452 0.77715 0.0
H591 H 0.67472 0.15274 0.94218 0.0
H592 H 0.72879 0.15683 0.88316 0.0
H593 H 0.70966 0.16733 0.80387 0.0
Co594 Co 0.44368 0.11779 0.36034 0.0
C595 C 0.43934 0.1122 0.29413 0.0
C596 C 0.42145 0.09222 0.31957 0.0
C597 C 0.41887 0.08858 0.28924 0.0
N598 N 0.43423 0.10702 0.32261 0.0
N599 N 0.43016 0.1011 0.27314 0.0
H600 H 0.44977 0.12369 0.28904 0.0
H601 H 0.41457 0.08451 0.33812 0.0
C602 C 0.41587 0.11184 0.39956 0.0
O603 O 0.42413 0.12685 0.40854 0.0
N604 N 0.45343 0.1283 0.39867 0.0
C605 C 0.46668 0.14276 0.40291 0.0
C606 C 0.47045 0.14482 0.43318 0.0
C607 C 0.44977 0.12155 0.42659 0.0
N608 N 0.45979 0.13151 0.44812 0.0
C609 C 0.45435 0.15004 0.34066 0.0
C610 C 0.42453 0.14759 0.33961 0.0
C611 C 0.43827 0.16285 0.33793 0.0
C612 C 0.45329 0.16383 0.33663 0.0
C613 C 0.42621 0.13408 0.34343 0.0
N614 N 0.44105 0.1357 0.34722 0.0
H615 H 0.46598 0.15101 0.33925 0.0
H616 H 0.41552 0.12243 0.34446 0.0
H617 H 0.47376 0.15111 0.38547 0.0
H618 H 0.44019 0.10943 0.43095 0.0
O619 O 0.46479 0.12473 0.34419 0.0
O620 O 0.44995 0.10208 0.36945 0.0
O621 O 0.42175 0.10644 0.37998 0.0
C622 C 0.4634 0.11169 0.35586 0.0
H623 H 0.40932 0.07752 0.27988 0.0
H624 H 0.48038 0.15533 0.44335 0.0
H625 H 0.41262 0.14612 0.33948 0.0
H626 H 0.46418 0.17524 0.33333 0.0
Co627 Co 0.88397 0.32675 0.36267 0.0
C628 C 0.88787 0.32852 0.29467 0.0
C629 C 0.90992 0.34258 0.31882 0.0
C630 C 0.91309 0.34498 0.28834 0.0
N631 N 0.8941 0.33233 0.32296 0.0
N632 N 0.89923 0.33611 0.27326 0.0
H633 H 0.8754 0.32068 0.28941 0.0
H634 H 0.91859 0.34808 0.33687 0.0
C635 C 0.90179 0.30909 0.35764 0.0
O636 O 0.89641 0.30564 0.32973 0.0
N637 N 0.87427 0.32179 0.40228 0.0
C638 C 0.85884 0.31711 0.40827 0.0
C639 C 0.85671 0.31607 0.43905 0.0
C640 C 0.88139 0.32366 0.42946 0.0
N641 N 0.87087 0.32018 0.4525 0.0
C642 C 0.85461 0.3055 0.33158 0.0
C643 C 0.85033 0.27753 0.35763 0.0
C644 C 0.83806 0.27687 0.33964 0.0
C645 C 0.84038 0.29108 0.32628 0.0
C646 C 0.86426 0.29219 0.36264 0.0
N647 N 0.86654 0.30596 0.34909 0.0
H648 H 0.85569 0.31645 0.32273 0.0
H649 H 0.87258 0.29249 0.3793 0.0
H650 H 0.84987 0.31511 0.39142 0.0
H651 H 0.89403 0.32776 0.43217 0.0
O652 O 0.87417 0.33969 0.35504 0.0
O653 O 0.89819 0.34861 0.37558 0.0
O654 O 0.89787 0.31741 0.37438 0.0
C655 C 0.88704 0.35158 0.36674 0.0
H656 H 0.92469 0.35257 0.27803 0.0
H657 H 0.84566 0.31318 0.45053 0.0
H658 H 0.84875 0.26698 0.36948 0.0
H659 H 0.83105 0.29115 0.31266 0.0
Co660 Co 0.67303 0.55791 0.36093 0.0
C661 C 0.67019 0.56035 0.29314 0.0
C662 C 0.66279 0.57436 0.31893 0.0
C663 C 0.66014 0.57578 0.28885 0.0
N664 N 0.66936 0.56492 0.3218 0.0
N665 N 0.66475 0.56695 0.27258 0.0
H666 H 0.67386 0.55184 0.28719 0.0
H667 H 0.65985 0.57965 0.33765 0.0
C668 C 0.69281 0.59334 0.36259 0.0
O669 O 0.69764 0.59216 0.33539 0.0
N670 N 0.67601 0.55073 0.39999 0.0
C671 C 0.67925 0.53882 0.4044 0.0
C672 C 0.68052 0.53705 0.43493 0.0
C673 C 0.67522 0.55602 0.42789 0.0
N674 N 0.67804 0.54788 0.44977 0.0
C675 C 0.6954 0.5516 0.32856 0.0
C676 C 0.72163 0.57129 0.3641 0.0
C677 C 0.72317 0.56168 0.34225 0.0
C678 C 0.70995 0.55191 0.32395 0.0
C679 C 0.70703 0.57081 0.36762 0.0
N680 N 0.69413 0.56132 0.34957 0.0
H681 H 0.68492 0.54261 0.31689 0.0
H682 H 0.70587 0.57727 0.38647 0.0
H683 H 0.68055 0.53185 0.38658 0.0
H684 H 0.67277 0.56566 0.43202 0.0
O685 O 0.65999 0.5358 0.3488 0.0
O686 O 0.65078 0.55028 0.3709 0.0
O687 O 0.68272 0.58064 0.37674 0.0
C688 C 0.64785 0.53654 0.35985 0.0
H689 H 0.65512 0.58274 0.27971 0.0
H690 H 0.68278 0.5282 0.44538 0.0
H691 H 0.73146 0.57861 0.37929 0.0
H692 H 0.71053 0.54379 0.30773 0.0
Co693 Co 0.45214 0.1139 0.86069 0.0
C694 C 0.44667 0.10909 0.92695 0.0
C695 C 0.42651 0.09164 0.9012 0.0
C696 C 0.42303 0.08856 0.93151 0.0
N697 N 0.44133 0.10442 0.89837 0.0
N698 N 0.43569 0.09951 0.94774 0.0
H699 H 0.45836 0.11916 0.93235 0.0
H700 H 0.41869 0.08508 0.88252 0.0
C701 C 0.4472 0.08576 0.82359 0.0
O702 O 0.46247 0.09397 0.81621 0.0
N703 N 0.46266 0.1236 0.82229 0.0
C704 C 0.47637 0.13766 0.81809 0.0
C705 C 0.47882 0.14081 0.78764 0.0
C706 C 0.45656 0.11889 0.79405 0.0
N707 N 0.46643 0.12894 0.77241 0.0
C708 C 0.48477 0.12515 0.87892 0.0
C709 C 0.48216 0.09536 0.88402 0.0
C710 C 0.49751 0.10905 0.88375 0.0
C711 C 0.49859 0.12413 0.88309 0.0
C712 C 0.46863 0.09701 0.88012 0.0
N713 N 0.47028 0.1117 0.87423 0.0
H714 H 0.48583 0.13681 0.87902 0.0
H715 H 0.45691 0.08637 0.88032 0.0
H716 H 0.48377 0.14574 0.83563 0.0
H717 H 0.44507 0.10837 0.78944 0.0
O718 O 0.45872 0.13497 0.87653 0.0
O719 O 0.43618 0.11979 0.85124 0.0
O720 O 0.44121 0.09189 0.84131 0.0
C721 C 0.44561 0.13335 0.86469 0.0
H722 H 0.41188 0.07914 0.94088 0.0
H723 H 0.48871 0.15141 0.77762 0.0
H724 H 0.4806 0.08344 0.88566 0.0
H725 H 0.51007 0.13507 0.88502 0.0
Co726 Co 0.89061 0.33985 0.86101 0.0
C727 C 0.89331 0.33764 0.92869 0.0
C728 C 0.90143 0.32404 0.90345 0.0
C729 C 0.90225 0.32129 0.93376 0.0
N730 N 0.89578 0.33426 0.90013 0.0
N731 N 0.89717 0.32986 0.94953 0.0
H732 H 0.88841 0.34517 0.93455 0.0
H733 H 0.90449 0.31872 0.88495 0.0
C734 C 0.92615 0.35653 0.86334 0.0
O735 O 0.92493 0.36044 0.8913 0.0
N736 N 0.88526 0.34478 0.82195 0.0
C737 C 0.87463 0.3497 0.81665 0.0
C738 C 0.87259 0.34997 0.78591 0.0
C739 C 0.88958 0.3421 0.79448 0.0
N740 N 0.88194 0.34515 0.77204 0.0
C741 C 0.88403 0.36187 0.89304 0.0
C742 C 0.90757 0.38934 0.86525 0.0
C743 C 0.89637 0.39041 0.88379 0.0
C744 C 0.88461 0.37648 0.89814 0.0
C745 C 0.90643 0.37449 0.86045 0.0
N746 N 0.89498 0.36095 0.87473 0.0
H747 H 0.87411 0.35113 0.90243 0.0
H748 H 0.91403 0.37384 0.84329 0.0
H749 H 0.86838 0.35237 0.83396 0.0
H750 H 0.89746 0.33726 0.79107 0.0
O751 O 0.86806 0.32752 0.87077 0.0
O752 O 0.88196 0.31782 0.8482 0.0
O753 O 0.9135 0.34843 0.8474 0.0
C754 C 0.86826 0.31533 0.85863 0.0
H755 H 0.90623 0.31356 0.94349 0.0
H756 H 0.86458 0.35315 0.77461 0.0
H757 H 0.91642 0.39967 0.85271 0.0
H758 H 0.87553 0.37673 0.91219 0.0
Co759 Co 0.6611 0.55165 0.86041 0.0
C760 C 0.66068 0.55649 0.9265 0.0
C761 C 0.66267 0.57643 0.9011 0.0
C762 C 0.66324 0.57986 0.93146 0.0
N763 N 0.66104 0.5618 0.89804 0.0
N764 N 0.66206 0.56736 0.94748 0.0
H765 H 0.65993 0.54514 0.93164 0.0
H766 H 0.66369 0.58422 0.88254 0.0
C767 C 0.63905 0.55636 0.81955 0.0
O768 O 0.63298 0.54135 0.81095 0.0
N769 N 0.66177 0.54188 0.82215 0.0
C770 C 0.66196 0.52811 0.81764 0.0
C771 C 0.66449 0.52674 0.78743 0.0
C772 C 0.6649 0.54897 0.79458 0.0
N773 N 0.66625 0.53982 0.77294 0.0
C774 C 0.64001 0.51881 0.87763 0.0
C775 C 0.61212 0.5203 0.87903 0.0
C776 C 0.61103 0.50523 0.88033 0.0
C777 C 0.62532 0.50471 0.88127 0.0
C778 C 0.62713 0.53412 0.8756 0.0
N779 N 0.64065 0.53302 0.87184 0.0
H780 H 0.65086 0.5182 0.87912 0.0
H781 H 0.62775 0.54562 0.87491 0.0
H782 H 0.66117 0.51986 0.83491 0.0
H783 H 0.66659 0.56081 0.79056 0.0
O784 O 0.67553 0.5454 0.8778 0.0
O785 O 0.68305 0.56818 0.85324 0.0
O786 O 0.65008 0.56228 0.83968 0.0
C787 C 0.68713 0.55882 0.86713 0.0
H788 H 0.66447 0.59078 0.94095 0.0
H789 H 0.66511 0.51689 0.77699 0.0
H790 H 0.60147 0.52141 0.87934 0.0
H791 H 0.62516 0.49347 0.88427 0.0
Co792 Co 0.55187 0.87924 0.69017 0.0
C793 C 0.55432 0.88554 0.75634 0.0
C794 C 0.57162 0.90591 0.73088 0.0
C795 C 0.57366 0.90981 0.76112 0.0
N796 N 0.55956 0.89071 0.72792 0.0
N797 N 0.56276 0.89704 0.77725 0.0
H798 H 0.54448 0.87368 0.76146 0.0
H799 H 0.57852 0.91361 0.71233 0.0
C800 C 0.58103 0.88458 0.65681 0.0
O801 O 0.57295 0.8694 0.64889 0.0
N802 N 0.54421 0.86823 0.65134 0.0
C803 C 0.53563 0.85242 0.64458 0.0
C804 C 0.53434 0.85061 0.61364 0.0
C805 C 0.54751 0.87574 0.62416 0.0
N806 N 0.5418 0.86526 0.60092 0.0
C807 C 0.54047 0.84765 0.71411 0.0
C808 C 0.5701 0.85076 0.72529 0.0
C809 C 0.55638 0.83548 0.72761 0.0
C810 C 0.54135 0.83423 0.72313 0.0
C811 C 0.56862 0.86381 0.71573 0.0
N812 N 0.55402 0.86177 0.70756 0.0
H813 H 0.52879 0.84637 0.71063 0.0
H814 H 0.57929 0.87548 0.71456 0.0
H815 H 0.53067 0.8426 0.6603 0.0
H816 H 0.55459 0.88863 0.62141 0.0
O817 O 0.53009 0.87229 0.7022 0.0
O818 O 0.54584 0.89463 0.67678 0.0
O819 O 0.57458 0.89043 0.6741 0.0
C820 C 0.53191 0.88516 0.68896 0.0
H821 H 0.58273 0.92117 0.77041 0.0
H822 H 0.5284 0.83937 0.60136 0.0
H823 H 0.58192 0.85263 0.73036 0.0
H824 H 0.5303 0.82288 0.7251 0.0
Co825 Co 0.11869 0.6727 0.69436 0.0
C826 C 0.11272 0.67023 0.76048 0.0
C827 C 0.09313 0.66907 0.73512 0.0
C828 C 0.08942 0.66784 0.76541 0.0
N829 N 0.10773 0.67064 0.73208 0.0
N830 N 0.1017 0.6685 0.7815 0.0
H831 H 0.12408 0.671 0.76545 0.0
H832 H 0.08565 0.66881 0.71661 0.0
C833 C 0.11346 0.69539 0.65627 0.0
O834 O 0.12838 0.70183 0.647 0.0
N835 N 0.12927 0.67436 0.6558 0.0
C836 C 0.14503 0.68103 0.64902 0.0
C837 C 0.1467 0.68063 0.61815 0.0
C838 C 0.12161 0.66948 0.62889 0.0
N839 N 0.13199 0.67338 0.60566 0.0
C840 C 0.15048 0.69256 0.71788 0.0
C841 C 0.1499 0.72093 0.71905 0.0
C842 C 0.16463 0.72146 0.72295 0.0
C843 C 0.16457 0.70689 0.72414 0.0
C844 C 0.13604 0.70626 0.71317 0.0
N845 N 0.13686 0.69259 0.70947 0.0
H846 H 0.15088 0.68156 0.7177 0.0
H847 H 0.12482 0.7061 0.71073 0.0
H848 H 0.15488 0.68615 0.66473 0.0
H849 H 0.10875 0.664 0.62621 0.0
O850 O 0.12493 0.65762 0.70845 0.0
O851 O 0.10254 0.65112 0.6834 0.0
O852 O 0.10795 0.68421 0.6761 0.0
C853 C 0.11175 0.64651 0.69612 0.0
H854 H 0.07852 0.66674 0.77467 0.0
H855 H 0.15787 0.68547 0.60574 0.0
H856 H 0.14916 0.73178 0.71908 0.0
H857 H 0.17547 0.70658 0.72871 0.0
Co858 Co 0.32871 0.44449 0.69245 0.0
C859 C 0.33082 0.44126 0.75999 0.0
C860 C 0.33615 0.42569 0.73424 0.0
C861 C 0.33803 0.42357 0.76435 0.0
N862 N 0.33116 0.43644 0.73136 0.0
N863 N 0.33473 0.43339 0.78067 0.0
H864 H 0.32866 0.45087 0.76572 0.0
H865 H 0.33851 0.41991 0.71557 0.0
C866 C 0.30795 0.4093 0.68825 0.0
O867 O 0.30227 0.41036 0.71466 0.0
N868 N 0.32697 0.45267 0.65364 0.0
C869 C 0.32457 0.46515 0.64931 0.0
C870 C 0.32409 0.46746 0.61875 0.0
C871 C 0.32802 0.44758 0.62575 0.0
N872 N 0.3262 0.45639 0.60389 0.0
C873 C 0.30593 0.45057 0.72427 0.0
C874 C 0.28065 0.43262 0.68543 0.0
C875 C 0.27867 0.44148 0.70829 0.0
C876 C 0.2914 0.45039 0.72819 0.0
C877 C 0.29519 0.43293 0.68262 0.0
N878 N 0.30759 0.44152 0.7023 0.0
H879 H 0.31611 0.45893 0.73743 0.0
H880 H 0.29674 0.42701 0.66328 0.0
H881 H 0.32331 0.4721 0.6672 0.0
H882 H 0.32992 0.43758 0.62163 0.0
O883 O 0.34197 0.46623 0.70644 0.0
O884 O 0.35099 0.45165 0.68414 0.0
O885 O 0.31877 0.42202 0.67521 0.0
C886 C 0.35411 0.46528 0.69607 0.0
H887 H 0.34164 0.41539 0.77331 0.0
H888 H 0.3226 0.4768 0.60836 0.0
H889 H 0.2712 0.42596 0.66909 0.0
H890 H 0.29046 0.45792 0.74533 0.0
Co891 Co 0.54669 0.88826 0.19055 0.0
C892 C 0.55145 0.89111 0.12388 0.0
C893 C 0.57252 0.90803 0.14827 0.0
C894 C 0.57566 0.91044 0.11775 0.0
N895 N 0.55734 0.89601 0.15208 0.0
N896 N 0.56242 0.89984 0.10241 0.0
H897 H 0.53933 0.88162 0.11922 0.0
H898 H 0.58075 0.91461 0.16643 0.0
C899 C 0.55365 0.91737 0.22599 0.0
O900 O 0.53866 0.9096 0.23515 0.0
N901 N 0.53646 0.8805 0.22999 0.0
C902 C 0.52076 0.87188 0.23754 0.0
C903 C 0.51941 0.87023 0.26848 0.0
C904 C 0.54439 0.88343 0.25668 0.0
N905 N 0.53425 0.8775 0.28042 0.0
C906 C 0.51479 0.87771 0.16917 0.0
C907 C 0.51818 0.90767 0.16125 0.0
C908 C 0.50277 0.89412 0.15912 0.0
C909 C 0.50136 0.87895 0.16191 0.0
C910 C 0.53126 0.90583 0.16894 0.0
N911 N 0.52914 0.89102 0.17559 0.0
H912 H 0.51336 0.8659 0.17139 0.0
H913 H 0.54303 0.91637 0.16988 0.0
H914 H 0.51071 0.86704 0.22234 0.0
H915 H 0.55733 0.89035 0.25875 0.0
O916 O 0.53893 0.86644 0.17783 0.0
O917 O 0.56204 0.88171 0.20135 0.0
O918 O 0.55875 0.91085 0.20717 0.0
C919 C 0.55198 0.86786 0.18953 0.0
H920 H 0.5869 0.91925 0.10762 0.0
H921 H 0.50835 0.8641 0.28129 0.0
H922 H 0.52012 0.91962 0.15744 0.0
H923 H 0.48988 0.86802 0.15996 0.0
Co924 Co 0.10901 0.65786 0.19582 0.0
C925 C 0.10678 0.6596 0.12752 0.0
C926 C 0.09495 0.66988 0.1522 0.0
C927 C 0.09304 0.67146 0.12183 0.0
N928 N 0.10327 0.66215 0.15598 0.0
N929 N 0.10047 0.665 0.10633 0.0
H930 H 0.11368 0.65397 0.12199 0.0
H931 H 0.09053 0.67408 0.17047 0.0
C932 C 0.07343 0.64003 0.19482 0.0
O933 O 0.07465 0.63499 0.16785 0.0
N934 N 0.11477 0.65426 0.23575 0.0
C935 C 0.12397 0.64776 0.24238 0.0
C936 C 0.12485 0.64686 0.27335 0.0
C937 C 0.11049 0.6576 0.26265 0.0
N938 N 0.11643 0.65309 0.28596 0.0
C939 C 0.11473 0.6347 0.16526 0.0
C940 C 0.09295 0.60865 0.19897 0.0
C941 C 0.10307 0.60674 0.17892 0.0
C942 C 0.11387 0.61986 0.16144 0.0
C943 C 0.09401 0.62355 0.20174 0.0
N944 N 0.10463 0.6364 0.1847 0.0
H945 H 0.12436 0.64505 0.15431 0.0
H946 H 0.08716 0.62496 0.21954 0.0
H947 H 0.1296 0.64388 0.22586 0.0
H948 H 0.10309 0.66307 0.26512 0.0
O949 O 0.13149 0.67 0.18547 0.0
O950 O 0.11749 0.68021 0.2058 0.0
O951 O 0.08613 0.64935 0.20979 0.0
C952 C 0.13121 0.6825 0.19592 0.0
H953 H 0.08691 0.67719 0.1119 0.0
H954 H 0.13144 0.64229 0.2857 0.0
H955 H 0.08481 0.59887 0.21352 0.0
H956 H 0.12232 0.61894 0.14661 0.0
Co957 Co 0.34055 0.45074 0.19326 0.0
C958 C 0.33953 0.44563 0.12572 0.0
C959 C 0.33375 0.42459 0.1516 0.0
C960 C 0.33271 0.42077 0.12141 0.0
N961 N 0.33843 0.44029 0.15445 0.0
N962 N 0.33634 0.43401 0.1052 0.0
H963 H 0.34236 0.45757 0.11954 0.0
H964 H 0.33113 0.41641 0.17033 0.0
C965 C 0.36287 0.43806 0.19676 0.0
O966 O 0.36803 0.44468 0.17005 0.0
N967 N 0.34201 0.46057 0.23199 0.0
C968 C 0.3439 0.47526 0.23636 0.0
C969 C 0.34301 0.47749 0.26685 0.0
C970 C 0.33997 0.45401 0.25976 0.0
N971 N 0.3405 0.46413 0.28152 0.0
C972 C 0.36138 0.48019 0.16114 0.0
C973 C 0.38801 0.48882 0.19703 0.0
C974 C 0.38884 0.49929 0.17437 0.0
C975 C 0.37539 0.49491 0.15614 0.0
C976 C 0.37392 0.47423 0.20101 0.0
N977 N 0.36092 0.46971 0.18252 0.0
H978 H 0.35065 0.47781 0.14924 0.0
H979 H 0.37322 0.46701 0.22026 0.0
H980 H 0.34553 0.48364 0.21852 0.0
H981 H 0.3376 0.44193 0.26383 0.0
O982 O 0.32596 0.45773 0.17976 0.0
O983 O 0.31874 0.43457 0.20259 0.0
O984 O 0.35185 0.43946 0.21019 0.0
C985 C 0.31454 0.44432 0.19082 0.0
H986 H 0.32918 0.40907 0.11209 0.0
H987 H 0.34407 0.48812 0.27742 0.0
H988 H 0.39801 0.49217 0.21232 0.0
H989 H 0.37543 0.50315 0.13938 0.0
Co990 Co 0.11177 0.45205 0.69563 0.0
C991 C 0.10838 0.44617 0.62925 0.0
C992 C 0.09214 0.4253 0.65484 0.0
C993 C 0.09015 0.42141 0.62456 0.0
N994 N 0.10353 0.44079 0.65776 0.0
N995 N 0.10039 0.4345 0.6084 0.0
H996 H 0.11781 0.45824 0.62401 0.0
H997 H 0.08585 0.4173 0.67347 0.0
C998 C 0.08304 0.44472 0.73283 0.0
O999 O 0.09054 0.45986 0.74111 0.0
N1000 N 0.12021 0.46294 0.73429 0.0
C1001 C 0.13117 0.47843 0.73989 0.0
C1002 C 0.1337 0.48055 0.77062 0.0
C1003 C 0.11681 0.45578 0.76183 0.0
N1004 N 0.12459 0.46632 0.78445 0.0
C1005 C 0.12072 0.48362 0.67392 0.0
C1006 C 0.09001 0.4788 0.66947 0.0
C1007 C 0.10305 0.49444 0.66696 0.0
C1008 C 0.11858 0.49664 0.66764 0.0
C1009 C 0.09275 0.46612 0.67548 0.0
N1010 N 0.10794 0.46895 0.68078 0.0
H1011 H 0.13275 0.48551 0.67426 0.0
H1012 H 0.08257 0.45412 0.67666 0.0
H1013 H 0.13741 0.48766 0.72328 0.0
H1014 H 0.10849 0.44312 0.76523 0.0
O1015 O 0.13341 0.46025 0.68118 0.0
O1016 O 0.11924 0.43748 0.70648 0.0
O1017 O 0.08955 0.43964 0.71394 0.0
C1018 C 0.13269 0.44763 0.6935 0.0
H1019 H 0.08172 0.4098 0.61521 0.0
H1020 H 0.1419 0.49168 0.78184 0.0
H1021 H 0.07779 0.47642 0.66741 0.0
H1022 H 0.12905 0.50842 0.66481 0.0
Co1023 Co 0.55148 0.66126 0.69697 0.0
C1024 C 0.5542 0.66407 0.62869 0.0
C1025 C 0.57626 0.67912 0.65213 0.0
C1026 C 0.57894 0.68198 0.62165 0.0
N1027 N 0.56073 0.66798 0.65675 0.0
N1028 N 0.56509 0.67251 0.60699 0.0
H1029 H 0.54185 0.65549 0.62381 0.0
H1030 H 0.58508 0.68486 0.66985 0.0
C1031 C 0.5712 0.64573 0.68779 0.0
O1032 O 0.56564 0.6425 0.65998 0.0
N1033 N 0.54289 0.65523 0.73734 0.0
C1034 C 0.52734 0.64677 0.74563 0.0
C1035 C 0.52655 0.64574 0.77673 0.0
C1036 C 0.55133 0.65951 0.76336 0.0
N1037 N 0.54163 0.65383 0.78773 0.0
C1038 C 0.52212 0.63942 0.66689 0.0
C1039 C 0.51982 0.61161 0.68966 0.0
C1040 C 0.50679 0.61062 0.67375 0.0
C1041 C 0.50816 0.62474 0.66182 0.0
C1042 C 0.53349 0.62653 0.69446 0.0
N1043 N 0.53469 0.64026 0.68282 0.0
H1044 H 0.52247 0.65024 0.65927 0.0
H1045 H 0.54244 0.627 0.70976 0.0
H1046 H 0.51725 0.64196 0.73027 0.0
H1047 H 0.56428 0.66683 0.76444 0.0
O1048 O 0.54024 0.67307 0.69247 0.0
O1049 O 0.5649 0.68313 0.71066 0.0
O1050 O 0.56671 0.65314 0.70571 0.0
C1051 C 0.55299 0.68529 0.70372 0.0
H1052 H 0.59025 0.69026 0.61101 0.0
H1053 H 0.51573 0.64007 0.79028 0.0
H1054 H 0.51903 0.60109 0.70026 0.0
H1055 H 0.49828 0.62453 0.64968 0.0
Co1056 Co 0.3391 0.89234 0.69487 0.0
C1057 C 0.33741 0.89572 0.62719 0.0
C1058 C 0.32461 0.90467 0.65263 0.0
C1059 C 0.32251 0.90633 0.62236 0.0
N1060 N 0.33404 0.89812 0.65582 0.0
N1061 N 0.33057 0.90071 0.6063 0.0
H1062 H 0.3447 0.89056 0.62142 0.0
H1063 H 0.31945 0.90788 0.6712 0.0
C1064 C 0.35614 0.92792 0.69395 0.0
O1065 O 0.35995 0.92697 0.66578 0.0
N1066 N 0.34346 0.88634 0.73384 0.0
C1067 C 0.34795 0.87535 0.73867 0.0
C1068 C 0.34887 0.87359 0.76932 0.0
C1069 C 0.34161 0.89108 0.76152 0.0
N1070 N 0.3449 0.88348 0.78379 0.0
C1071 C 0.36162 0.88629 0.66273 0.0
C1072 C 0.38838 0.90865 0.6941 0.0
C1073 C 0.38989 0.89821 0.67425 0.0
C1074 C 0.3764 0.88712 0.65792 0.0
C1075 C 0.37353 0.90761 0.69789 0.0
N1076 N 0.36032 0.8967 0.682 0.0
H1077 H 0.35105 0.87658 0.65242 0.0
H1078 H 0.37252 0.91473 0.71562 0.0
H1079 H 0.35002 0.86878 0.7211 0.0
H1080 H 0.33776 0.89975 0.76513 0.0
O1081 O 0.32663 0.86992 0.68413 0.0
O1082 O 0.31698 0.88385 0.70676 0.0
O1083 O 0.34791 0.91513 0.70947 0.0
C1084 C 0.31439 0.87018 0.69598 0.0
H1085 H 0.31527 0.91099 0.613 0.0
H1086 H 0.35167 0.86518 0.77997 0.0
H1087 H 0.39846 0.91706 0.70776 0.0
H1088 H 0.37702 0.87845 0.6432 0.0
Co1089 Co 0.11887 0.44293 0.19526 0.0
C1090 C 0.11313 0.43967 0.26162 0.0
C1091 C 0.0924 0.42285 0.23634 0.0
C1092 C 0.0886 0.42092 0.26666 0.0
N1093 N 0.10775 0.43457 0.2332 0.0
N1094 N 0.10161 0.43152 0.28262 0.0
H1095 H 0.12508 0.44939 0.26667 0.0
H1096 H 0.08444 0.4163 0.21783 0.0
C1097 C 0.11244 0.41428 0.15856 0.0
O1098 O 0.12758 0.42217 0.15022 0.0
N1099 N 0.12967 0.45151 0.15657 0.0
C1100 C 0.14496 0.46309 0.15118 0.0
C1101 C 0.14713 0.46568 0.1205 0.0
C1102 C 0.12262 0.4478 0.12891 0.0
N1103 N 0.13312 0.456 0.10645 0.0
C1104 C 0.15076 0.45292 0.21684 0.0
C1105 C 0.14695 0.42261 0.22116 0.0
C1106 C 0.16244 0.43596 0.22315 0.0
C1107 C 0.16414 0.45129 0.22265 0.0
C1108 C 0.13392 0.42485 0.21565 0.0
N1109 N 0.13624 0.43985 0.21025 0.0
H1110 H 0.15225 0.46479 0.21661 0.0
H1111 H 0.12205 0.41444 0.21478 0.0
H1112 H 0.15398 0.46976 0.16793 0.0
H1113 H 0.11011 0.43903 0.12532 0.0
O1114 O 0.12638 0.46451 0.20945 0.0
O1115 O 0.10373 0.44962 0.18417 0.0
O1116 O 0.10705 0.4206 0.17722 0.0
C1117 C 0.11353 0.46324 0.19703 0.0
H1118 H 0.07711 0.41228 0.27618 0.0
H1119 H 0.15813 0.47435 0.10945 0.0
H1120 H 0.14497 0.41054 0.22316 0.0
H1121 H 0.17579 0.46197 0.2252 0.0
Co1122 Co 0.55814 0.67504 0.19436 0.0
C1123 C 0.55925 0.67234 0.26229 0.0
C1124 C 0.56624 0.65752 0.23813 0.0
C1125 C 0.5665 0.65473 0.26859 0.0
N1126 N 0.56164 0.66852 0.23404 0.0
N1127 N 0.56213 0.66407 0.28369 0.0
H1128 H 0.55527 0.6807 0.26755 0.0
H1129 H 0.56912 0.65181 0.22007 0.0
C1130 C 0.59358 0.6904 0.2004 0.0
O1131 O 0.59193 0.69396 0.22838 0.0
N1132 N 0.55461 0.68092 0.15457 0.0
C1133 C 0.54711 0.68913 0.14737 0.0
C1134 C 0.54724 0.69068 0.11637 0.0
C1135 C 0.55889 0.67728 0.12801 0.0
N1136 N 0.55458 0.68317 0.10436 0.0
C1137 C 0.55149 0.69713 0.22559 0.0
C1138 C 0.5764 0.72474 0.20079 0.0
C1139 C 0.56462 0.72581 0.21751 0.0
C1140 C 0.55225 0.71181 0.23057 0.0
C1141 C 0.57514 0.70981 0.19618 0.0
N1142 N 0.56287 0.69617 0.20873 0.0
H1143 H 0.54114 0.68639 0.23389 0.0
H1144 H 0.58328 0.70922 0.18023 0.0
H1145 H 0.54179 0.69357 0.16343 0.0
H1146 H 0.56501 0.67047 0.12604 0.0
O1147 O 0.53528 0.66337 0.20132 0.0
O1148 O 0.54912 0.65309 0.18065 0.0
O1149 O 0.58126 0.68297 0.18338 0.0
C1150 C 0.53532 0.65104 0.18949 0.0
H1151 H 0.56978 0.64656 0.27887 0.0
H1152 H 0.54197 0.69647 0.10356 0.0
H1153 H 0.58583 0.73516 0.18936 0.0
H1154 H 0.54279 0.71208 0.24338 0.0
Co1155 Co 0.3255 0.88228 0.19323 0.0
C1156 C 0.32832 0.88735 0.26104 0.0
C1157 C 0.33882 0.90911 0.23518 0.0
C1158 C 0.34154 0.91305 0.2653 0.0
N1159 N 0.33048 0.89301 0.23234 0.0
N1160 N 0.33496 0.89938 0.28155 0.0
H1161 H 0.32251 0.87486 0.26715 0.0
H1162 H 0.3428 0.91746 0.21643 0.0
C1163 C 0.30647 0.89874 0.19572 0.0
O1164 O 0.30259 0.89317 0.22344 0.0
N1165 N 0.32121 0.87215 0.15406 0.0
C1166 C 0.31711 0.8568 0.14871 0.0
C1167 C 0.31719 0.85464 0.11799 0.0
C1168 C 0.32374 0.87917 0.12662 0.0
N1169 N 0.32141 0.8687 0.10416 0.0
C1170 C 0.30472 0.85326 0.22577 0.0
C1171 C 0.27662 0.84739 0.19773 0.0
C1172 C 0.27624 0.83577 0.2173 0.0
C1173 C 0.29051 0.83889 0.2316 0.0
C1174 C 0.29108 0.86147 0.19227 0.0
N1175 N 0.30489 0.86457 0.20684 0.0
H1176 H 0.31576 0.85481 0.23513 0.0
H1177 H 0.29125 0.86927 0.1746 0.0
H1178 H 0.3148 0.84795 0.166 0.0
H1179 H 0.328 0.89181 0.12327 0.0
O1180 O 0.33897 0.87329 0.20255 0.0
O1181 O 0.34735 0.89693 0.18077 0.0
O1182 O 0.3155 0.89537 0.17984 0.0
C1183 C 0.35069 0.88619 0.19061 0.0
H1184 H 0.34784 0.92508 0.27455 0.0
H1185 H 0.31468 0.84365 0.10668 0.0
H1186 H 0.26604 0.84517 0.18514 0.0
H1187 H 0.29082 0.83006 0.24635 0.0
C1188 C 0.39544 0.29268 0.93971 0.0
C1189 C 0.40015 0.30129 0.9124 0.0
C1190 C 0.38013 0.28734 0.95149 0.0
C1191 C 0.33919 0.27547 0.93 0.0
H1192 H 0.3341 0.28191 0.01499 0.0
C1193 C 0.27642 0.25125 0.9844 0.0
C1194 C 0.27442 0.24452 0.01343 0.0
C1195 C 0.29174 0.25992 0.9715 0.0
C1196 C 0.33527 0.27985 0.99127 0.0
H1197 H 0.39251 0.311 0.87587 0.0
H1198 H 0.36554 0.30134 0.89626 0.0
H1199 H 0.36093 0.29347 0.99349 0.0
H1200 H 0.28694 0.24168 0.05167 0.0
H1201 H 0.31335 0.25628 0.02905 0.0
H1202 H 0.31358 0.26129 0.92794 0.0
C1203 C 0.37379 0.29885 0.90858 0.0
C1204 C 0.35066 0.28654 0.97897 0.0
C1205 C 0.38922 0.30443 0.89702 0.0
C1206 C 0.28803 0.24678 0.02935 0.0
C1207 C 0.30326 0.2553 0.01641 0.0
C1208 C 0.32377 0.26858 0.94239 0.0
C1209 C 0.36913 0.29031 0.93598 0.0
C1210 C 0.35277 0.28423 0.94834 0.0
C1211 C 0.30534 0.26195 0.98729 0.0
C1212 C 0.32162 0.27046 0.97333 0.0
H1213 H 0.40362 0.29014 0.95214 0.0
H1214 H 0.37679 0.28066 0.97252 0.0
H1215 H 0.34051 0.27342 0.90633 0.0
H1216 H 0.26617 0.24975 0.97157 0.0
H1217 H 0.2929 0.26504 0.94918 0.0
C1218 C 0.71518 0.09485 0.86577 0.0
C1219 C 0.70156 0.09432 0.87852 0.0
C1220 C 0.72194 0.08646 0.87892 0.0
C1221 C 0.72424 0.06758 0.95005 0.0
H1222 H 0.74134 0.04783 0.89657 0.0
C1223 C 0.75227 0.02977 0.99247 0.0
C1224 C 0.76706 0.03368 0.97918 0.0
C1225 C 0.74312 0.03618 0.98096 0.0
C1226 C 0.73668 0.05334 0.91178 0.0
H1227 H 0.68443 0.08465 0.91537 0.0
H1228 H 0.69617 0.06971 0.93826 0.0
H1229 H 0.72712 0.06052 0.87528 0.0
H1230 H 0.78379 0.04726 0.94331 0.0
H1231 H 0.76777 0.05829 0.92315 0.0
H1232 H 0.73386 0.06028 0.98657 0.0
C1233 C 0.70169 0.07679 0.91816 0.0
C1234 C 0.72856 0.06065 0.89961 0.0
C1235 C 0.69492 0.08529 0.905 0.0
C1236 C 0.77246 0.04402 0.95409 0.0
C1237 C 0.76324 0.05027 0.94241 0.0
C1238 C 0.73229 0.06013 0.96227 0.0
C1239 C 0.71523 0.0772 0.9051 0.0
C1240 C 0.72254 0.06817 0.91852 0.0
C1241 C 0.74849 0.04643 0.95572 0.0
C1242 C 0.73886 0.05322 0.94318 0.0
H1243 H 0.72072 0.10181 0.84554 0.0
H1244 H 0.73259 0.08738 0.86864 0.0
H1245 H 0.71986 0.07335 0.96525 0.0
H1246 H 0.7478 0.02187 0.01189 0.0
H1247 H 0.73175 0.03295 0.99156 0.0
C1248 C 0.91138 0.60907 0.89703 0.0
C1249 C 0.89715 0.59802 0.91178 0.0
C1250 C 0.92074 0.62467 0.90833 0.0
C1251 C 0.91777 0.65371 0.95956 0.0
H1252 H 0.96429 0.67602 0.95777 0.0
C1253 C 0.95601 0.71029 0.02986 0.0
C1254 C 0.96827 0.72358 0.01455 0.0
C1255 C 0.94816 0.69523 0.01614 0.0
C1256 C 0.9513 0.66995 0.95816 0.0
H1257 H 0.88188 0.59444 0.95052 0.0
H1258 H 0.89831 0.6213 0.97062 0.0
H1259 H 0.94896 0.64907 0.93608 0.0
H1260 H 0.98227 0.73134 0.97317 0.0
H1261 H 0.9686 0.70479 0.94933 0.0
H1262 H 0.92012 0.67438 0.98233 0.0
C1263 C 0.90206 0.61821 0.9498 0.0
C1264 C 0.94251 0.65455 0.94568 0.0
C1265 C 0.89266 0.60274 0.93837 0.0
C1266 C 0.97284 0.72134 0.98553 0.0
C1267 C 0.96508 0.70616 0.97192 0.0
C1268 C 0.92654 0.66896 0.9723 0.0
C1269 C 0.91609 0.62948 0.93473 0.0
C1270 C 0.92562 0.64616 0.94657 0.0
C1271 C 0.95247 0.69304 0.98693 0.0
C1272 C 0.94337 0.67716 0.97204 0.0
H1273 H 0.91512 0.60577 0.87644 0.0
H1274 H 0.9314 0.63306 0.89599 0.0
H1275 H 0.9048 0.64784 0.95993 0.0
H1276 H 0.9522 0.71156 0.05224 0.0
H1277 H 0.93861 0.68526 0.02836 0.0
C1278 C 0.22889 0.27309 0.60129 0.0
C1279 C 0.23264 0.26765 0.57474 0.0
C1280 C 0.23925 0.28844 0.61238 0.0
C1281 C 0.26963 0.32864 0.58989 0.0
H1282 H 0.27917 0.33424 0.67579 0.0
C1283 C 0.30736 0.39147 0.64594 0.0
C1284 C 0.30138 0.39338 0.67372 0.0
C1285 C 0.30093 0.37625 0.6327 0.0
C1286 C 0.27655 0.33291 0.65178 0.0
H1287 H 0.25018 0.27405 0.53884 0.0
H1288 H 0.26826 0.30117 0.55811 0.0
H1289 H 0.26423 0.3073 0.65473 0.0
H1290 H 0.28384 0.38084 0.70913 0.0
H1291 H 0.27256 0.35462 0.68597 0.0
H1292 H 0.28141 0.35428 0.58715 0.0
C1293 C 0.2573 0.29343 0.57033 0.0
C1294 C 0.26804 0.31748 0.63973 0.0
C1295 C 0.247 0.27792 0.55943 0.0
C1296 C 0.28884 0.37982 0.68784 0.0
C1297 C 0.28243 0.36471 0.67465 0.0
C1298 C 0.27805 0.34415 0.60202 0.0
C1299 C 0.25353 0.29878 0.597 0.0
C1300 C 0.26418 0.31518 0.60882 0.0
C1301 C 0.28842 0.36268 0.64702 0.0
C1302 C 0.28125 0.34643 0.63326 0.0
H1303 H 0.21794 0.26545 0.61366 0.0
H1304 H 0.23596 0.29233 0.6328 0.0
H1305 H 0.26674 0.32718 0.56598 0.0
H1306 H 0.31701 0.4017 0.6345 0.0
H1307 H 0.30586 0.37508 0.61146 0.0
C1308 C 0.60807 0.90958 0.66003 0.0
C1309 C 0.5978 0.89466 0.64649 0.0
C1310 C 0.62402 0.91884 0.6504 0.0
C1311 C 0.65538 0.91539 0.60732 0.0
H1312 H 0.67561 0.96166 0.60034 0.0
C1313 C 0.71096 0.95247 0.53409 0.0
C1314 C 0.724 0.96595 0.54743 0.0
C1315 C 0.69615 0.94449 0.54868 0.0
C1316 C 0.67014 0.94876 0.60253 0.0
H1317 H 0.59605 0.87797 0.61173 0.0
H1318 H 0.62353 0.89421 0.59441 0.0
H1319 H 0.64842 0.94625 0.62095 0.0
H1320 H 0.7316 0.98183 0.5863 0.0
H1321 H 0.70538 0.96793 0.61164 0.0
H1322 H 0.67685 0.91787 0.58783 0.0
C1323 C 0.61954 0.89861 0.61309 0.0
C1324 C 0.6546 0.93993 0.61438 0.0
C1325 C 0.6037 0.88932 0.62289 0.0
C1326 C 0.72178 0.97147 0.57548 0.0
C1327 C 0.70681 0.96357 0.58993 0.0
C1328 C 0.67078 0.92419 0.59517 0.0
C1329 C 0.62997 0.91343 0.62687 0.0
C1330 C 0.64692 0.92308 0.61642 0.0
C1331 C 0.69394 0.94987 0.57679 0.0
C1332 C 0.67821 0.94091 0.59221 0.0
H1333 H 0.60387 0.914 0.67836 0.0
H1334 H 0.63173 0.93011 0.66171 0.0
H1335 H 0.65006 0.90251 0.60932 0.0
H1336 H 0.71222 0.94787 0.51253 0.0
H1337 H 0.68636 0.93406 0.53791 0.0
C1338 C 0.10735 0.71016 0.61685 0.0
C1339 C 0.10309 0.7013 0.6439 0.0
C1340 C 0.09748 0.71551 0.60463 0.0
C1341 C 0.06743 0.72643 0.62423 0.0
H1342 H 0.05733 0.72035 0.53857 0.0
C1343 C 0.02741 0.74821 0.5676 0.0
C1344 C 0.03221 0.75516 0.53875 0.0
C1345 C 0.03464 0.7402 0.5809 0.0
C1346 C 0.06017 0.72232 0.56246 0.0
H1347 H 0.08525 0.69125 0.67956 0.0
H1348 H 0.06812 0.7009 0.65835 0.0
H1349 H 0.07293 0.70942 0.56109 0.0
H1350 H 0.04834 0.75914 0.50125 0.0
H1351 H 0.06115 0.74565 0.5246 0.0
H1352 H 0.0552 0.73983 0.62549 0.0
C1353 C 0.07906 0.70359 0.64661 0.0
C1354 C 0.06905 0.71599 0.57535 0.0
C1355 C 0.08883 0.69802 0.65864 0.0
C1356 C 0.04426 0.75383 0.52342 0.0
C1357 C 0.05156 0.74597 0.53677 0.0
C1358 C 0.05869 0.73295 0.61125 0.0
C1359 C 0.08325 0.7123 0.61937 0.0
C1360 C 0.07294 0.71815 0.60627 0.0
C1361 C 0.04689 0.73907 0.56571 0.0
C1362 C 0.05514 0.73116 0.58009 0.0
H1363 H 0.11822 0.71282 0.60488 0.0
H1364 H 0.10108 0.72234 0.58376 0.0
H1365 H 0.07037 0.72836 0.6481 0.0
H1366 H 0.01811 0.74898 0.57996 0.0
H1367 H 0.03058 0.73486 0.60303 0.0
C1368 C 0.72386 0.75293 0.06833 0.0
C1369 C 0.73493 0.76711 0.08324 0.0
C1370 C 0.70861 0.74302 0.08064 0.0
C1371 C 0.6862 0.73249 0.15207 0.0
H1372 H 0.64868 0.72 0.10198 0.0
C1373 C 0.62337 0.70825 0.20361 0.0
C1374 C 0.60986 0.6969 0.18743 0.0
C1375 C 0.63864 0.71526 0.19071 0.0
C1376 C 0.65899 0.72308 0.1162 0.0
H1377 H 0.73886 0.78183 0.12301 0.0
H1378 H 0.71235 0.76442 0.14465 0.0
H1379 H 0.67539 0.73492 0.07965 0.0
H1380 H 0.60186 0.68363 0.14531 0.0
H1381 H 0.6286 0.69552 0.1231 0.0
H1382 H 0.66995 0.7206 0.18859 0.0
C1383 C 0.71543 0.76102 0.12341 0.0
C1384 C 0.67429 0.73169 0.10338 0.0
C1385 C 0.73056 0.77104 0.1109 0.0
C1386 C 0.61202 0.69241 0.15832 0.0
C1387 C 0.62735 0.69932 0.1455 0.0
C1388 C 0.67091 0.72372 0.16482 0.0
C1389 C 0.70427 0.74697 0.10834 0.0
C1390 C 0.68804 0.73672 0.12131 0.0
C1391 C 0.64085 0.71099 0.16139 0.0
C1392 C 0.65709 0.71914 0.14721 0.0
H1393 H 0.72689 0.74962 0.04695 0.0
H1394 H 0.70024 0.73222 0.06863 0.0
H1395 H 0.6966 0.73603 0.16632 0.0
H1396 H 0.62213 0.71206 0.22601 0.0
H1397 H 0.64866 0.7244 0.20348 0.0
C1398 C 0.28635 0.90788 0.19693 0.0
C1399 C 0.29901 0.90746 0.18202 0.0
C1400 C 0.27879 0.91552 0.18375 0.0
C1401 C 0.27272 0.9301 0.10988 0.0
H1402 H 0.2562 0.95126 0.16104 0.0
C1403 C 0.24362 0.96622 0.06396 0.0
C1404 C 0.22878 0.96226 0.07709 0.0
C1405 C 0.25299 0.96023 0.07612 0.0
C1406 C 0.26071 0.94534 0.14651 0.0
H1407 H 0.31388 0.91499 0.14176 0.0
H1408 H 0.301 0.9288 0.11908 0.0
H1409 H 0.27168 0.9402 0.18355 0.0
H1410 H 0.21219 0.94901 0.11334 0.0
H1411 H 0.22868 0.93877 0.13482 0.0
H1412 H 0.26187 0.93557 0.07279 0.0
C1413 C 0.29664 0.92288 0.14069 0.0
C1414 C 0.26952 0.93893 0.15938 0.0
C1415 C 0.30411 0.91506 0.15377 0.0
C1416 C 0.22353 0.95224 0.10265 0.0
C1417 C 0.23301 0.94646 0.11507 0.0
C1418 C 0.26407 0.93672 0.09696 0.0
C1419 C 0.28382 0.92314 0.15545 0.0
C1420 C 0.27542 0.93097 0.14133 0.0
C1421 C 0.24781 0.95039 0.10193 0.0
C1422 C 0.25778 0.94418 0.11524 0.0
H1423 H 0.28202 0.90203 0.21861 0.0
H1424 H 0.26875 0.91514 0.19555 0.0
H1425 H 0.27686 0.92389 0.09529 0.0
H1426 H 0.24795 0.97388 0.04418 0.0
H1427 H 0.26439 0.96348 0.06564 0.0
C1428 C 0.02703 0.27441 0.07293 0.0
C1429 C 0.03286 0.27221 0.04524 0.0
C1430 C 0.03393 0.28967 0.0862 0.0
C1431 C 0.05992 0.33295 0.0674 0.0
H1432 H 0.06772 0.33818 0.1539 0.0
C1433 C 0.10638 0.39268 0.12087 0.0
C1434 C 0.10182 0.39794 0.14666 0.0
C1435 C 0.09646 0.37732 0.10929 0.0
C1436 C 0.06543 0.33687 0.12976 0.0
H1437 H 0.05067 0.28426 0.01005 0.0
H1438 H 0.06284 0.31053 0.03333 0.0
H1439 H 0.05308 0.3112 0.13223 0.0
H1440 H 0.08332 0.39117 0.18077 0.0
H1441 H 0.06603 0.36407 0.16068 0.0
H1442 H 0.07276 0.35859 0.06483 0.0
C1443 C 0.05269 0.30067 0.04453 0.0
C1444 C 0.05702 0.32143 0.11733 0.0
C1445 C 0.04577 0.28552 0.03125 0.0
C1446 C 0.08713 0.38745 0.16079 0.0
C1447 C 0.07728 0.37195 0.14941 0.0
C1448 C 0.06844 0.34832 0.07976 0.0
C1449 C 0.04683 0.303 0.07207 0.0
C1450 C 0.05443 0.31929 0.08589 0.0
C1451 C 0.08183 0.36678 0.12344 0.0
C1452 C 0.07153 0.35045 0.11097 0.0
H1453 H 0.01709 0.26439 0.08427 0.0
H1454 H 0.02904 0.29104 0.10731 0.0
H1455 H 0.05779 0.33178 0.04322 0.0
H1456 H 0.11759 0.40047 0.10941 0.0
H1457 H 0.10034 0.37359 0.08943 0.0
C1458 C 0.69469 0.61142 0.40552 0.0
C1459 C 0.70047 0.60917 0.37778 0.0
C1460 C 0.70251 0.62637 0.42005 0.0
C1461 C 0.74201 0.66237 0.42617 0.0
H1462 H 0.71971 0.68436 0.45272 0.0
C1463 C 0.77675 0.72898 0.45799 0.0
C1464 C 0.77116 0.73446 0.48193 0.0
C1465 C 0.76751 0.71338 0.44699 0.0
C1466 C 0.7261 0.67829 0.44591 0.0
H1467 H 0.71892 0.62091 0.3435 0.0
H1468 H 0.73258 0.64674 0.369 0.0
H1469 H 0.70447 0.65741 0.43108 0.0
H1470 H 0.75143 0.72784 0.51311 0.0
H1471 H 0.73541 0.70038 0.4944 0.0
H1472 H 0.76358 0.68293 0.44118 0.0
C1473 C 0.72202 0.63699 0.37949 0.0
C1474 C 0.71736 0.66287 0.43346 0.0
C1475 C 0.71412 0.62219 0.36482 0.0
C1476 C 0.75604 0.72398 0.49454 0.0
C1477 C 0.74683 0.70826 0.48372 0.0
C1478 C 0.75071 0.67764 0.4389 0.0
C1479 C 0.71639 0.63922 0.40732 0.0
C1480 C 0.72529 0.65491 0.42294 0.0
C1481 C 0.7525 0.70273 0.45989 0.0
C1482 C 0.74294 0.68596 0.44837 0.0
H1483 H 0.68419 0.60162 0.41605 0.0
H1484 H 0.69796 0.62779 0.44154 0.0
H1485 H 0.74839 0.65638 0.41871 0.0
H1486 H 0.78826 0.7368 0.44753 0.0
H1487 H 0.77212 0.70972 0.42813 0.0
C1488 C 0.28689 0.04554 0.52606 0.0
C1489 C 0.27346 0.03303 0.51156 0.0
C1490 C 0.30208 0.05226 0.51304 0.0
C1491 C 0.3229 0.0572 0.44027 0.0
H1492 H 0.35988 0.07159 0.49291 0.0
C1493 C 0.38874 0.08701 0.39669 0.0
C1494 C 0.39953 0.10133 0.41157 0.0
C1495 C 0.37323 0.07724 0.40802 0.0
C1496 C 0.34966 0.06767 0.47794 0.0
H1497 H 0.26549 0.01768 0.47193 0.0
H1498 H 0.29223 0.02929 0.44929 0.0
H1499 H 0.33297 0.0566 0.51413 0.0
H1500 H 0.40259 0.11653 0.45015 0.0
H1501 H 0.37563 0.0994 0.47006 0.0
H1502 H 0.33978 0.06833 0.40407 0.0
C1503 C 0.29091 0.03403 0.47064 0.0
C1504 C 0.33423 0.05912 0.49008 0.0
C1505 C 0.2756 0.02732 0.48367 0.0
C1506 C 0.39455 0.1056 0.43811 0.0
C1507 C 0.37915 0.09574 0.44963 0.0
C1508 C 0.33839 0.06565 0.42806 0.0
C1509 C 0.30434 0.04658 0.48523 0.0
C1510 C 0.32065 0.05411 0.47155 0.0
C1511 C 0.36832 0.08149 0.43468 0.0
C1512 C 0.35191 0.07126 0.44692 0.0
H1513 H 0.2857 0.05034 0.54745 0.0
H1514 H 0.31204 0.06214 0.52463 0.0
H1515 H 0.31274 0.05365 0.42537 0.0
H1516 H 0.39222 0.08342 0.37613 0.0
H1517 H 0.36513 0.06628 0.39613 0.0
C1518 C 0.91125 0.28922 0.35489 0.0
C1519 C 0.91038 0.30138 0.37088 0.0
C1520 C 0.91825 0.28103 0.36806 0.0
C1521 C 0.94639 0.28339 0.42622 0.0
H1522 H 0.92201 0.23692 0.42279 0.0
C1523 C 0.96661 0.24382 0.48952 0.0
C1524 C 0.96382 0.22961 0.47528 0.0
C1525 C 0.96026 0.25289 0.4774 0.0
C1526 C 0.92912 0.24988 0.42359 0.0
H1527 H 0.91663 0.3148 0.41295 0.0
H1528 H 0.92913 0.30057 0.43581 0.0
H1529 H 0.9111 0.25246 0.40003 0.0
H1530 H 0.95256 0.21396 0.43681 0.0
H1531 H 0.94193 0.22996 0.41519 0.0
H1532 H 0.96461 0.28088 0.44912 0.0
C1533 C 0.9243 0.29739 0.4131 0.0
C1534 C 0.92281 0.25877 0.41064 0.0
C1535 C 0.9171 0.30548 0.40005 0.0
C1536 C 0.95474 0.22475 0.44852 0.0
C1537 C 0.94857 0.23391 0.43621 0.0
C1538 C 0.95281 0.2745 0.43888 0.0
C1539 C 0.9247 0.28491 0.39739 0.0
C1540 C 0.9314 0.27561 0.41171 0.0
C1541 C 0.95115 0.24805 0.45058 0.0
C1542 C 0.94428 0.25761 0.43762 0.0
H1543 H 0.90621 0.28575 0.33238 0.0
H1544 H 0.91858 0.27159 0.35532 0.0
H1545 H 0.95331 0.29637 0.42716 0.0
H1546 H 0.9735 0.24783 0.51027 0.0
H1547 H 0.96231 0.26357 0.48935 0.0
C1548 C 0.94304 0.57819 0.32749 0.0
C1549 C 0.93261 0.56355 0.31318 0.0
C1550 C 0.95839 0.58831 0.31572 0.0
C1551 C 0.98138 0.59834 0.24529 0.0
H1552 H 0.01903 0.61272 0.29595 0.0
C1553 C 0.04378 0.62146 0.19396 0.0
C1554 C 0.05738 0.63358 0.20877 0.0
C1555 C 0.02866 0.61471 0.20736 0.0
C1556 C 0.00867 0.6091 0.28157 0.0
H1557 H 0.92996 0.54816 0.27516 0.0
H1558 H 0.95658 0.56594 0.25444 0.0
H1559 H 0.9923 0.59774 0.31845 0.0
H1560 H 0.06569 0.64835 0.24912 0.0
H1561 H 0.03913 0.63681 0.2723 0.0
H1562 H 0.99754 0.60968 0.20844 0.0
C1563 C 0.95294 0.56954 0.2748 0.0
C1564 C 0.99337 0.60048 0.29448 0.0
C1565 C 0.93775 0.55932 0.28679 0.0
C1566 C 0.05545 0.639 0.23715 0.0
C1567 C 0.04024 0.63231 0.25051 0.0
C1568 C 0.99663 0.60712 0.23246 0.0
C1569 C 0.96342 0.58411 0.28914 0.0
C1570 C 0.9796 0.5947 0.2763 0.0
C1571 C 0.02665 0.62001 0.23583 0.0
C1572 C 0.01049 0.61226 0.25026 0.0
H1573 H 0.9394 0.58174 0.3479 0.0
H1574 H 0.96625 0.59951 0.32715 0.0
H1575 H 0.97095 0.59424 0.23086 0.0
H1576 H 0.04481 0.6169 0.17217 0.0
H1577 H 0.01859 0.60504 0.19561 0.0
C1578 C 0.36395 0.42058 0.23799 0.0
C1579 C 0.37031 0.42953 0.21134 0.0
C1580 C 0.37102 0.41235 0.25108 0.0
C1581 C 0.3987 0.3971 0.23249 0.0
H1582 H 0.40337 0.3963 0.31956 0.0
C1583 C 0.44288 0.38116 0.28821 0.0
C1584 C 0.4372 0.37035 0.31259 0.0
C1585 C 0.43363 0.38735 0.27642 0.0
C1586 C 0.40199 0.39629 0.29522 0.0
H1587 H 0.38929 0.43717 0.17795 0.0
H1588 H 0.40175 0.42328 0.20099 0.0
H1589 H 0.38916 0.40909 0.29805 0.0
H1590 H 0.41745 0.35769 0.344 0.0
H1591 H 0.40136 0.36874 0.32355 0.0
H1592 H 0.41194 0.38473 0.22965 0.0
C1593 C 0.39106 0.42217 0.21144 0.0
C1594 C 0.39381 0.40357 0.28288 0.0
C1595 C 0.38396 0.43026 0.19831 0.0
C1596 C 0.42212 0.36596 0.32513 0.0
C1597 C 0.41295 0.37233 0.31355 0.0
C1598 C 0.40699 0.38999 0.24479 0.0
C1599 C 0.38463 0.41299 0.23783 0.0
C1600 C 0.39228 0.40428 0.25131 0.0
C1601 C 0.41859 0.38302 0.28896 0.0
C1602 C 0.4089 0.38969 0.27623 0.0
H1603 H 0.35342 0.41977 0.24856 0.0
H1604 H 0.36568 0.4053 0.27128 0.0
H1605 H 0.39741 0.39704 0.20813 0.0
H1606 H 0.45442 0.38477 0.27802 0.0
H1607 H 0.43835 0.3957 0.25766 0.0
C1608 C 0.56053 0.9391 0.26376 0.0
C1609 C 0.56452 0.93375 0.23738 0.0
C1610 C 0.57077 0.95445 0.27505 0.0
C1611 C 0.60137 0.99478 0.25378 0.0
H1612 H 0.61095 0.99962 0.33968 0.0
C1613 C 0.63953 0.05718 0.31105 0.0
C1614 C 0.63374 0.05897 0.33915 0.0
C1615 C 0.63299 0.04202 0.2975 0.0
C1616 C 0.60831 0.99852 0.31568 0.0
H1617 H 0.5823 0.94033 0.20189 0.0
H1618 H 0.60014 0.96744 0.22148 0.0
H1619 H 0.59573 0.97287 0.31791 0.0
H1620 H 0.61649 0.04625 0.37488 0.0
H1621 H 0.60498 0.02016 0.35118 0.0
H1622 H 0.61338 0.02045 0.25175 0.0
C1623 C 0.5891 0.95963 0.23342 0.0
C1624 C 0.59964 0.98318 0.30323 0.0
C1625 C 0.57894 0.94413 0.22234 0.0
C1626 C 0.62134 0.04533 0.35334 0.0
C1627 C 0.61479 0.03029 0.33981 0.0
C1628 C 0.60992 0.01018 0.26632 0.0
C1629 C 0.58514 0.96487 0.26003 0.0
C1630 C 0.5958 0.98115 0.27231 0.0
C1631 C 0.62054 0.02838 0.31179 0.0
C1632 C 0.61316 0.01221 0.29758 0.0
H1633 H 0.54954 0.93138 0.27593 0.0
H1634 H 0.56735 0.95825 0.29543 0.0
H1635 H 0.5985 0.99352 0.22986 0.0
H1636 H 0.64909 0.06747 0.29955 0.0
H1637 H 0.63776 0.04096 0.27598 0.0
C1638 C 0.36914 0.9577 0.69034 0.0
C1639 C 0.36305 0.94387 0.70839 0.0
C1640 C 0.37696 0.97292 0.7035 0.0
C1641 C 0.38453 0.99477 0.77663 0.0
H1642 H 0.42211 0.02693 0.73384 0.0
C1643 C 0.44406 0.06155 0.7965 0.0
C1644 C 0.43704 0.06931 0.81171 0.0
C1645 C 0.43454 0.04612 0.78486 0.0
C1646 C 0.41175 0.01808 0.7463 0.0
H1647 H 0.36 0.93511 0.7545 0.0
H1648 H 0.37407 0.96173 0.77754 0.0
H1649 H 0.40633 0.00032 0.71236 0.0
H1650 H 0.4145 0.0669 0.82679 0.0
H1651 H 0.39783 0.04009 0.80578 0.0
H1652 H 0.3904 0.01246 0.81118 0.0
C1653 C 0.37254 0.96083 0.7532 0.0
C1654 C 0.40251 0.00284 0.7337 0.0
C1655 C 0.36452 0.94556 0.74001 0.0
C1656 C 0.42028 0.06123 0.81523 0.0
C1657 C 0.41073 0.04582 0.80334 0.0
C1658 C 0.39387 0.01003 0.78938 0.0
C1659 C 0.37911 0.97471 0.73504 0.0
C1660 C 0.38876 0.99098 0.74863 0.0
C1661 C 0.41773 0.03809 0.78785 0.0
C1662 C 0.40763 0.02187 0.77438 0.0
H1663 H 0.36801 0.95679 0.66592 0.0
H1664 H 0.38148 0.9833 0.68883 0.0
H1665 H 0.37394 0.986 0.78865 0.0
H1666 H 0.45695 0.06736 0.79366 0.0
H1667 H 0.4404 0.04044 0.77366 0.0
C1668 C 0.95588 0.3746 0.86502 0.0
C1669 C 0.94222 0.36309 0.84945 0.0
C1670 C 0.97102 0.38146 0.85164 0.0
C1671 C 0.99097 0.38859 0.77695 0.0
H1672 H 0.02863 0.40172 0.82704 0.0
C1673 C 0.05638 0.41928 0.73038 0.0
C1674 C 0.06695 0.43368 0.74526 0.0
C1675 C 0.04106 0.40908 0.74219 0.0
C1676 C 0.01821 0.39809 0.81279 0.0
H1677 H 0.93377 0.34949 0.80776 0.0
H1678 H 0.96033 0.36116 0.78463 0.0
H1679 H 0.00201 0.3862 0.84933 0.0
H1680 H 0.06993 0.44852 0.78439 0.0
H1681 H 0.04338 0.43058 0.80522 0.0
H1682 H 0.00738 0.40047 0.74037 0.0
C1683 C 0.95929 0.36515 0.80699 0.0
C1684 C 0.00295 0.38928 0.82555 0.0
C1685 C 0.94407 0.35837 0.82032 0.0
C1686 C 0.06203 0.43755 0.77233 0.0
C1687 C 0.04687 0.42724 0.78437 0.0
C1688 C 0.00628 0.39723 0.76409 0.0
C1689 C 0.97295 0.37687 0.82243 0.0
C1690 C 0.98912 0.38475 0.808 0.0
C1691 C 0.03622 0.41295 0.76938 0.0
C1692 C 0.02003 0.40236 0.78207 0.0
H1693 H 0.95489 0.37861 0.88741 0.0
H1694 H 0.98116 0.39068 0.86402 0.0
H1695 H 0.98065 0.38548 0.76277 0.0
H1696 H 0.05986 0.41602 0.70943 0.0
H1697 H 0.03306 0.3981 0.73026 0.0
C1698 C 0.58174 0.62677 0.68306 0.0
C1699 C 0.58047 0.63848 0.69985 0.0
C1700 C 0.58908 0.61874 0.69555 0.0
C1701 C 0.61698 0.62068 0.75417 0.0
H1702 H 0.59271 0.57425 0.74943 0.0
C1703 C 0.63574 0.58058 0.81979 0.0
C1704 C 0.63306 0.56635 0.80579 0.0
C1705 C 0.62983 0.58984 0.80679 0.0
C1706 C 0.59981 0.5872 0.75057 0.0
H1707 H 0.58649 0.65139 0.74249 0.0
H1708 H 0.59955 0.63746 0.76413 0.0
H1709 H 0.58212 0.58992 0.72609 0.0
H1710 H 0.62253 0.55091 0.76677 0.0
H1711 H 0.61267 0.56724 0.74365 0.0
H1712 H 0.63483 0.61803 0.77816 0.0
C1713 C 0.59478 0.63449 0.74135 0.0
C1714 C 0.59369 0.59617 0.73726 0.0
C1715 C 0.58726 0.64241 0.72899 0.0
C1716 C 0.62459 0.5617 0.77832 0.0
C1717 C 0.61887 0.57105 0.76514 0.0
C1718 C 0.62323 0.61171 0.7672 0.0
C1719 C 0.59548 0.62236 0.72496 0.0
C1720 C 0.6022 0.61299 0.7389 0.0
C1721 C 0.62127 0.58517 0.77931 0.0
C1722 C 0.61471 0.59483 0.76556 0.0
H1723 H 0.57666 0.62345 0.66055 0.0
H1724 H 0.58962 0.60956 0.6823 0.0
H1725 H 0.62384 0.63365 0.75559 0.0
H1726 H 0.64218 0.58443 0.84105 0.0
H1727 H 0.63173 0.60051 0.81859 0.0
C1728 C 0.21656 0.2189 0.3917 0.0
C1729 C 0.22834 0.23304 0.40579 0.0
C1730 C 0.21541 0.21777 0.36002 0.0
C1731 C 0.22724 0.24308 0.29082 0.0
H1732 H 0.2213 0.20489 0.24977 0.0
C1733 C 0.24016 0.24372 0.164 0.0
C1734 C 0.22936 0.23067 0.14609 0.0
C1735 C 0.23901 0.24305 0.19553 0.0
C1736 C 0.22276 0.21556 0.2609 0.0
H1737 H 0.24788 0.25719 0.39739 0.0
H1738 H 0.24607 0.25516 0.34262 0.0
H1739 H 0.22083 0.20553 0.30514 0.0
H1740 H 0.20904 0.20645 0.14767 0.0
H1741 H 0.20708 0.20523 0.20298 0.0
H1742 H 0.22937 0.2532 0.24681 0.0
C1743 C 0.23762 0.24495 0.35591 0.0
C1744 C 0.22248 0.21593 0.29264 0.0
C1745 C 0.23879 0.24605 0.38743 0.0
C1746 C 0.21762 0.21669 0.16071 0.0
C1747 C 0.21649 0.216 0.19242 0.0
C1748 C 0.22755 0.24271 0.25923 0.0
C1749 C 0.22594 0.23081 0.34173 0.0
C1750 C 0.22499 0.22981 0.308 0.0
C1751 C 0.22703 0.22928 0.21018 0.0
C1752 C 0.22559 0.22907 0.24383 0.0
H1753 H 0.20839 0.20861 0.4051 0.0
H1754 H 0.2062 0.20674 0.34987 0.0
H1755 H 0.22884 0.25383 0.30182 0.0
H1756 H 0.2496 0.25453 0.15367 0.0
H1757 H 0.2476 0.25335 0.20847 0.0
C1758 C 0.77946 0.00159 0.39545 0.0
C1759 C 0.76566 0.99959 0.41029 0.0
C1760 C 0.78035 0.0021 0.36373 0.0
C1761 C 0.76107 0.00893 0.29652 0.0
H1762 H 0.78228 0.99024 0.25161 0.0
C1763 C 0.75238 0.99778 0.1684 0.0
C1764 C 0.76612 0.00257 0.15039 0.0
C1765 C 0.75328 0.99772 0.19994 0.0
C1766 C 0.77645 0.99564 0.26389 0.0
H1767 H 0.74171 0.99574 0.40349 0.0
H1768 H 0.74304 0.99621 0.34855 0.0
H1769 H 0.78186 0.98923 0.30698 0.0
H1770 H 0.79165 0.01083 0.15225 0.0
H1771 H 0.79307 0.01036 0.20742 0.0
H1772 H 0.75533 0.01499 0.25348 0.0
C1773 C 0.75344 0.99798 0.36118 0.0
C1774 C 0.77623 0.9951 0.29564 0.0
C1775 C 0.75263 0.99764 0.39275 0.0
C1776 C 0.78076 0.00695 0.16508 0.0
C1777 C 0.78161 0.00671 0.19678 0.0
C1778 C 0.76116 0.00932 0.26491 0.0
C1779 C 0.7674 0.00048 0.34616 0.0
C1780 C 0.76836 0.00158 0.31238 0.0
C1781 C 0.7679 0.00227 0.21454 0.0
C1782 C 0.76869 0.00254 0.2482 0.0
H1783 H 0.78974 0.00325 0.40837 0.0
H1784 H 0.79135 0.00418 0.35305 0.0
H1785 H 0.75528 0.01446 0.30851 0.0
H1786 H 0.74079 0.99394 0.1583 0.0
H1787 H 0.74244 0.99395 0.21297 0.0
C1788 C 0.99904 0.78012 0.16127 0.0
C1789 C 0.00012 0.76767 0.14689 0.0
C1790 C 0.99818 0.78057 0.1929 0.0
C1791 C 0.98763 0.75462 0.26047 0.0
H1792 H 0.01489 0.79405 0.3041 0.0
C1793 C 0.99865 0.75425 0.38784 0.0
C1794 C 0.99899 0.7664 0.40595 0.0
C1795 C 0.9984 0.75513 0.35634 0.0
C1796 C 0.00703 0.783 0.29226 0.0
H1797 H 0.00074 0.74575 0.15441 0.0
H1798 H 0.99933 0.74655 0.20931 0.0
H1799 H 0.01467 0.79417 0.24873 0.0
H1800 H 0.99957 0.78919 0.40501 0.0
H1801 H 0.99909 0.79075 0.34977 0.0
H1802 H 0.98001 0.74339 0.30373 0.0
C1803 C 0.99912 0.75597 0.19625 0.0
C1804 C 0.00691 0.78307 0.26054 0.0
C1805 C 0.0001 0.75559 0.16477 0.0
C1806 C 0.99944 0.77969 0.39172 0.0
C1807 C 0.99915 0.78057 0.36006 0.0
C1808 C 0.98771 0.75456 0.29206 0.0
C1809 C 0.99819 0.76847 0.21072 0.0
C1810 C 0.99741 0.76881 0.24431 0.0
C1811 C 0.99844 0.76819 0.34201 0.0
C1812 C 0.99762 0.76867 0.30838 0.0
H1813 H 0.99915 0.78966 0.14813 0.0
H1814 H 0.99738 0.79031 0.20339 0.0
H1815 H 0.97993 0.74351 0.24864 0.0
H1816 H 0.99866 0.74403 0.39802 0.0
H1817 H 0.99828 0.74559 0.34318 0.0
C1818 C 0.78055 0.78152 0.66435 0.0
C1819 C 0.77128 0.76661 0.64995 0.0
C1820 C 0.78073 0.7827 0.69605 0.0
C1821 C 0.75667 0.76039 0.76341 0.0
H1822 H 0.79506 0.78876 0.80882 0.0
C1823 C 0.75969 0.75481 0.89233 0.0
C1824 C 0.76664 0.7689 0.90987 0.0
C1825 C 0.76091 0.75551 0.8608 0.0
C1826 C 0.78421 0.7809 0.79642 0.0
H1827 H 0.75568 0.74116 0.65774 0.0
H1828 H 0.75615 0.74313 0.71259 0.0
H1829 H 0.79618 0.7881 0.75348 0.0
H1830 H 0.78068 0.79488 0.90745 0.0
H1831 H 0.78295 0.79606 0.85221 0.0
H1832 H 0.74474 0.75302 0.80617 0.0
C1833 C 0.7629 0.75403 0.69955 0.0
C1834 C 0.78483 0.78053 0.76468 0.0
C1835 C 0.76265 0.75288 0.66801 0.0
C1836 C 0.77524 0.78376 0.89484 0.0
C1837 C 0.77654 0.78445 0.86313 0.0
C1838 C 0.75607 0.7607 0.79499 0.0
C1839 C 0.7717 0.76898 0.71407 0.0
C1840 C 0.7711 0.77009 0.74777 0.0
C1841 C 0.7692 0.77031 0.84572 0.0
C1842 C 0.76986 0.7708 0.81196 0.0
H1843 H 0.78725 0.79235 0.6511 0.0
H1844 H 0.78757 0.79443 0.70637 0.0
H1845 H 0.74574 0.75251 0.75124 0.0
H1846 H 0.75334 0.74312 0.90288 0.0
H1847 H 0.75541 0.74437 0.84817 0.0
C1848 C 0.24538 0.00443 0.89133 0.0
C1849 C 0.23135 0.99801 0.90901 0.0
C1850 C 0.2447 0.00564 0.85991 0.0
C1851 C 0.21679 0.9897 0.79451 0.0
H1852 H 0.25196 0.02557 0.75304 0.0
C1853 C 0.21802 0.99953 0.66415 0.0
C1854 C 0.23234 0.00263 0.64987 0.0
C1855 C 0.21708 0.99969 0.69582 0.0
C1856 C 0.24207 0.01546 0.7643 0.0
H1857 H 0.20552 0.98783 0.90691 0.0
H1858 H 0.20442 0.9904 0.85223 0.0
H1859 H 0.25166 0.02461 0.80815 0.0
H1860 H 0.257 0.0088 0.65749 0.0
H1861 H 0.25544 0.00923 0.71256 0.0
H1862 H 0.20721 0.98065 0.75037 0.0
C1863 C 0.21595 0.99427 0.86274 0.0
C1864 C 0.24191 0.01485 0.79591 0.0
C1865 C 0.21661 0.99296 0.89425 0.0
C1866 C 0.24577 0.00622 0.66786 0.0
C1867 C 0.24491 0.0066 0.69938 0.0
C1868 C 0.21687 0.99039 0.76282 0.0
C1869 C 0.23 0.00062 0.84513 0.0
C1870 C 0.22944 0.00181 0.81148 0.0
C1871 C 0.23054 0.00323 0.71375 0.0
C1872 C 0.22966 0.00314 0.74737 0.0
H1873 H 0.257 0.00866 0.90164 0.0
H1874 H 0.25576 0.01035 0.84719 0.0
H1875 H 0.20706 0.97938 0.80561 0.0
H1876 H 0.20745 0.99662 0.65088 0.0
H1877 H 0.20587 0.99712 0.70628 0.0
C1878 C 0.0012 0.24524 0.66517 0.0
C1879 C 0.99574 0.23135 0.64731 0.0
C1880 C 0.00145 0.24442 0.69672 0.0
C1881 C 0.00242 0.22051 0.7607 0.0
H1882 H 0.98608 0.24384 0.80573 0.0
C1883 C 0.99668 0.2178 0.89234 0.0
C1884 C -0.00021 0.23198 0.90724 0.0
C1885 C 0.99609 0.21693 0.86061 0.0
C1886 C 0.99091 0.23743 0.79361 0.0
H1887 H 0.98651 0.20566 0.6493 0.0
H1888 H 0.98725 0.20434 0.70448 0.0
H1889 H 0.9853 0.24375 0.75072 0.0
H1890 H 0.00552 0.25656 0.90048 0.0
H1891 H 0.00484 0.25521 0.84553 0.0
H1892 H 0.00833 0.21445 0.80368 0.0
C1893 C 0.9913 0.21586 0.69378 0.0
C1894 C 0.99039 0.23733 0.762 0.0
C1895 C 0.99091 0.21664 0.66208 0.0
C1896 C 0.00276 0.24537 0.88972 0.0
C1897 C 0.0023 0.24455 0.85815 0.0
C1898 C 0.00307 0.22071 0.79244 0.0
C1899 C 0.9964 0.22973 0.71144 0.0
C1900 C 0.99629 0.22903 0.74513 0.0
C1901 C 0.99871 0.23026 0.84309 0.0
C1902 C 0.99749 0.22935 0.80933 0.0
H1903 H 0.00541 0.25686 0.6549 0.0
H1904 H 0.00575 0.25538 0.70963 0.0
H1905 H 0.00714 0.21407 0.74832 0.0
H1906 H 0.99423 0.20725 0.90522 0.0
H1907 H 0.99316 0.20568 0.84989 0.0
C1908 C 0.88853 0.5481 0.49536 0.0
C1909 C 0.89608 0.56295 0.48012 0.0
C1910 C 0.88742 0.54744 0.5271 0.0
C1911 C 0.90747 0.5719 0.59452 0.0
H1912 H 0.86841 0.54304 0.63764 0.0
C1913 C 0.90218 0.57931 0.72215 0.0
C1914 C 0.89409 0.56555 0.74035 0.0
C1915 C 0.90155 0.57814 0.6906 0.0
C1916 C 0.87949 0.55103 0.626 0.0
H1917 H 0.90765 0.58872 0.48684 0.0
H1918 H 0.90598 0.58754 0.54161 0.0
H1919 H 0.86892 0.54228 0.58225 0.0
H1920 H 0.87872 0.53974 0.7395 0.0
H1921 H 0.8778 0.53758 0.6842 0.0
H1922 H 0.91818 0.58056 0.63784 0.0
C1923 C 0.90114 0.5764 0.52908 0.0
C1924 C 0.87976 0.5506 0.59423 0.0
C1925 C 0.90213 0.57706 0.49752 0.0
C1926 C 0.885 0.55057 0.72612 0.0
C1927 C 0.88447 0.54936 0.69439 0.0
C1928 C 0.90724 0.57225 0.62614 0.0
C1929 C 0.89395 0.56161 0.54434 0.0
C1930 C 0.8937 0.56122 0.57811 0.0
C1931 C 0.89295 0.56313 0.67619 0.0
C1932 C 0.89319 0.56202 0.64239 0.0
H1933 H 0.8838 0.53697 0.48289 0.0
H1934 H 0.88185 0.53585 0.53818 0.0
H1935 H 0.91851 0.58001 0.58287 0.0
H1936 H 0.909 0.59107 0.73235 0.0
H1937 H 0.90785 0.58908 0.6775 0.0
C1938 C 0.42823 0.34428 0.49904 0.0
C1939 C 0.4364 0.33864 0.48105 0.0
C1940 C 0.42852 0.34348 0.53059 0.0
C1941 C 0.45002 0.33825 0.59569 0.0
H1942 H 0.41038 0.32712 0.63755 0.0
C1943 C 0.4406 0.32599 0.72596 0.0
C1944 C 0.43244 0.33268 0.74103 0.0
C1945 C 0.44178 0.32648 0.69425 0.0
C1946 C 0.4216 0.33037 0.62627 0.0
H1947 H 0.45159 0.328 0.48233 0.0
H1948 H 0.452 0.32644 0.53761 0.0
H1949 H 0.41124 0.32841 0.58259 0.0
H1950 H 0.41978 0.3458 0.73413 0.0
H1951 H 0.42166 0.34645 0.67937 0.0
H1952 H 0.46027 0.34008 0.63974 0.0
C1953 C 0.44549 0.33166 0.52723 0.0
C1954 C 0.42211 0.33116 0.59467 0.0
C1955 C 0.44526 0.33254 0.49551 0.0
C1956 C 0.42579 0.34014 0.72353 0.0
C1957 C 0.4269 0.34055 0.69198 0.0
C1958 C 0.44947 0.33739 0.62744 0.0
C1959 C 0.43692 0.33691 0.54518 0.0
C1960 C 0.43638 0.33535 0.5789 0.0
C1961 C 0.43476 0.3336 0.67687 0.0
C1962 C 0.4353 0.33367 0.64311 0.0
H1963 H 0.42159 0.34937 0.4887 0.0
H1964 H 0.42214 0.34806 0.54358 0.0
H1965 H 0.46124 0.34162 0.58439 0.0
H1966 H 0.44578 0.32005 0.73855 0.0
H1967 H 0.44785 0.32094 0.6833 0.0
C1968 C 0.67215 0.11442 0.72259 0.0
C1969 C 0.66558 0.09953 0.73758 0.0
C1970 C 0.67166 0.11515 0.69095 0.0
C1971 C 0.67029 0.09247 0.62385 0.0
H1972 H 0.65542 0.11764 0.58068 0.0
C1973 C 0.65994 0.08547 0.49574 0.0
C1974 C 0.66386 0.09913 0.47831 0.0
C1975 C 0.65987 0.08614 0.52728 0.0
C1976 C 0.65984 0.11073 0.59234 0.0
H1977 H 0.65265 0.07371 0.73054 0.0
H1978 H 0.65227 0.07508 0.67575 0.0
H1979 H 0.65606 0.11803 0.63607 0.0
H1980 H 0.67063 0.1242 0.48015 0.0
H1981 H 0.67097 0.12558 0.53547 0.0
H1982 H 0.67448 0.08542 0.58061 0.0
C1983 C 0.6579 0.08617 0.68854 0.0
C1984 C 0.66014 0.11093 0.62406 0.0
C1985 C 0.6582 0.08542 0.72006 0.0
C1986 C 0.66745 0.11346 0.49308 0.0
C1987 C 0.6676 0.11421 0.52477 0.0
C1988 C 0.67019 0.09243 0.59227 0.0
C1989 C 0.66478 0.10102 0.67364 0.0
C1990 C 0.66515 0.1016 0.64008 0.0
C1991 C 0.66398 0.10059 0.5423 0.0
C1992 C 0.66472 0.10134 0.57603 0.0
H1993 H 0.67806 0.12555 0.73514 0.0
H1994 H 0.67712 0.12676 0.67998 0.0
H1995 H 0.67449 0.0854 0.63564 0.0
H1996 H 0.65683 0.07419 0.4849 0.0
H1997 H 0.65656 0.07527 0.53987 0.0
C1998 C 0.44596 0.11548 0.99504 0.0
C1999 C 0.43684 0.10061 0.98039 0.0
C2000 C 0.44611 0.11649 0.02677 0.0
C2001 C 0.42219 0.09366 0.09392 0.0
H2002 H 0.46042 0.12227 0.1395 0.0
C2003 C 0.42518 0.08793 0.22291 0.0
C2004 C 0.43205 0.10202 0.2405 0.0
C2005 C 0.42641 0.08867 0.19137 0.0
C2006 C 0.4496 0.11434 0.12706 0.0
H2007 H 0.42147 0.07509 0.98777 0.0
H2008 H 0.42189 0.07678 0.04265 0.0
H2009 H 0.46156 0.12183 0.08416 0.0
H2010 H 0.44592 0.128 0.23815 0.0
H2011 H 0.44821 0.12925 0.18294 0.0
H2012 H 0.41027 0.08602 0.13665 0.0
C2013 C 0.42854 0.08776 0.0298 0.0
C2014 C 0.45024 0.11409 0.09532 0.0
C2015 C 0.42832 0.08677 0.99823 0.0
C2016 C 0.44055 0.11689 0.22551 0.0
C2017 C 0.44186 0.11762 0.19381 0.0
C2018 C 0.42158 0.09386 0.12552 0.0
C2019 C 0.4372 0.10265 0.04458 0.0
C2020 C 0.43657 0.10358 0.07833 0.0
C2021 C 0.43462 0.1035 0.17634 0.0
C2022 C 0.4353 0.10404 0.14256 0.0
H2023 H 0.45257 0.12638 0.98198 0.0
H2024 H 0.45284 0.12818 0.03729 0.0
H2025 H 0.4113 0.08572 0.0817 0.0
H2026 H 0.41889 0.07623 0.23343 0.0
H2027 H 0.42099 0.07755 0.17871 0.0
C2028 C 0.89034 0.31601 0.99883 0.0
C2029 C 0.89567 0.33012 0.9819 0.0
C2030 C 0.88924 0.31625 0.03035 0.0
C2031 C 0.89003 0.34187 0.095 0.0
H2032 H 0.89923 0.31322 0.14141 0.0
C2033 C 0.90574 0.34896 0.22297 0.0
C2034 C 0.89713 0.33519 0.24092 0.0
C2035 C 0.90419 0.34804 0.19147 0.0
C2036 C 0.89649 0.32118 0.1287 0.0
H2037 H 0.90407 0.35552 0.98447 0.0
H2038 H 0.90292 0.35622 0.03962 0.0
H2039 H 0.89964 0.31246 0.08636 0.0
H2040 H 0.88016 0.30969 0.24016 0.0
H2041 H 0.87778 0.30796 0.18474 0.0
H2042 H 0.88773 0.35107 0.13781 0.0
C2043 C 0.89903 0.3448 0.02868 0.0
C2044 C 0.89663 0.32071 0.09708 0.0
C2045 C 0.89979 0.34447 0.99706 0.0
C2046 C 0.88684 0.32047 0.22679 0.0
C2047 C 0.88556 0.31948 0.19519 0.0
C2048 C 0.89023 0.34254 0.12666 0.0
C2049 C 0.89379 0.33069 0.04585 0.0
C2050 C 0.89339 0.33105 0.07969 0.0
C2051 C 0.89425 0.33326 0.17726 0.0
C2052 C 0.89345 0.33219 0.14378 0.0
H2053 H 0.88685 0.30474 0.98759 0.0
H2054 H 0.88474 0.30504 0.04248 0.0
H2055 H 0.88715 0.3498 0.08262 0.0
H2056 H 0.91365 0.36045 0.23338 0.0
H2057 H 0.91109 0.35881 0.17814 0.0
C2058 C 0.65558 0.55135 0.99487 0.0
C2059 C 0.66277 0.5663 0.98006 0.0
C2060 C 0.65585 0.55048 0.02656 0.0
C2061 C 0.66045 0.57475 0.09476 0.0
H2062 H 0.66712 0.54321 0.13679 0.0
C2063 C 0.65209 0.56651 0.22356 0.0
C2064 C 0.66367 0.56485 0.24008 0.0
C2065 C 0.6516 0.56555 0.19199 0.0
C2066 C 0.66533 0.55215 0.12539 0.0
H2067 H 0.67656 0.59203 0.98718 0.0
H2068 H 0.67699 0.59053 0.04201 0.0
H2069 H 0.66749 0.54397 0.08139 0.0
H2070 H 0.68357 0.56045 0.23618 0.0
H2071 H 0.68277 0.55883 0.18087 0.0
H2072 H 0.65857 0.58316 0.13848 0.0
C2073 C 0.67081 0.57945 0.02926 0.0
C2074 C 0.66537 0.55248 0.09363 0.0
C2075 C 0.67054 0.58031 0.99772 0.0
C2076 C 0.67444 0.56169 0.22419 0.0
C2077 C 0.67397 0.56075 0.19247 0.0
C2078 C 0.66036 0.5744 0.12638 0.0
C2079 C 0.66331 0.56455 0.04416 0.0
C2080 C 0.66301 0.56385 0.07792 0.0
C2081 C 0.6627 0.56293 0.17595 0.0
C2082 C 0.66279 0.5631 0.14216 0.0
H2083 H 0.6494 0.54032 0.98204 0.0
H2084 H 0.64984 0.5388 0.03729 0.0
H2085 H 0.65838 0.58354 0.08349 0.0
H2086 H 0.64336 0.56857 0.23502 0.0
H2087 H 0.64251 0.56691 0.18011 0.0
C2088 C 0.55316 0.88119 0.82499 0.0
C2089 C 0.56095 0.89609 0.80988 0.0
C2090 C 0.55219 0.88048 0.85672 0.0
C2091 C 0.5731 0.90439 0.92393 0.0
H2092 H 0.5339 0.87667 0.96774 0.0
C2093 C 0.56906 0.91221 0.05166 0.0
C2094 C 0.56063 0.89853 0.0699 0.0
C2095 C 0.5682 0.91102 0.02013 0.0
C2096 C 0.54501 0.88433 0.9559 0.0
H2097 H 0.57306 0.92187 0.81684 0.0
H2098 H 0.57166 0.92057 0.87163 0.0
H2099 H 0.53402 0.87593 0.91231 0.0
H2100 H 0.5444 0.87285 0.06926 0.0
H2101 H 0.54308 0.87065 0.01395 0.0
H2102 H 0.58424 0.91267 0.96704 0.0
C2103 C 0.56651 0.90945 0.85897 0.0
C2104 C 0.54505 0.88391 0.92412 0.0
C2105 C 0.56735 0.91018 0.82741 0.0
C2106 C 0.55096 0.88362 0.05579 0.0
C2107 C 0.55021 0.88238 0.02409 0.0
C2108 C 0.5731 0.90471 0.95554 0.0
C2109 C 0.5591 0.89462 0.87407 0.0
C2110 C 0.55905 0.89415 0.90779 0.0
C2111 C 0.55902 0.89606 1.00581 0.0
C2112 C 0.559 0.8949 0.97203 0.0
H2113 H 0.54815 0.87008 0.81242 0.0
H2114 H 0.54644 0.86886 0.86772 0.0
H2115 H 0.58417 0.91219 0.91205 0.0
H2116 H 0.57632 0.92392 0.0618 0.0
H2117 H 0.57477 0.9219 0.00697 0.0
C2118 C 0.11515 0.66611 0.0594 0.0
C2119 C 0.10129 0.66422 0.07382 0.0
C2120 C 0.11621 0.66653 0.02769 0.0
C2121 C 0.09726 0.67344 0.96002 0.0
H2122 H 0.11881 0.65499 0.91545 0.0
C2123 C 0.08878 0.66217 0.83211 0.0
C2124 C 0.10263 0.66758 0.81415 0.0
C2125 C 0.08965 0.66192 0.86363 0.0
C2126 C 0.11288 0.66031 0.92766 0.0
H2127 H 0.07739 0.66035 0.06642 0.0
H2128 H 0.07896 0.66058 0.01152 0.0
H2129 H 0.11817 0.65388 0.97086 0.0
H2130 H 0.12832 0.6766 0.81605 0.0
H2131 H 0.12967 0.67578 0.87121 0.0
H2132 H 0.09161 0.67947 0.91689 0.0
C2133 C 0.0893 0.66239 0.02441 0.0
C2134 C 0.11254 0.65972 0.95942 0.0
C2135 C 0.08834 0.66217 0.05594 0.0
C2136 C 0.11734 0.67228 0.82884 0.0
C2137 C 0.11816 0.67183 0.86053 0.0
C2138 C 0.09745 0.67386 0.92843 0.0
C2139 C 0.10335 0.6649 0.00976 0.0
C2140 C 0.10452 0.66609 0.97602 0.0
C2141 C 0.10434 0.66688 0.87823 0.0
C2142 C 0.10509 0.66714 0.91186 0.0
H2143 H 0.12535 0.66781 0.07265 0.0
H2144 H 0.12726 0.66859 0.01729 0.0
H2145 H 0.09139 0.67891 0.97189 0.0
H2146 H 0.07714 0.65805 0.822 0.0
H2147 H 0.07874 0.65776 0.87665 0.0
C2148 C 0.34363 0.42927 0.83088 0.0
C2149 C 0.33544 0.4351 0.81329 0.0
C2150 C 0.34354 0.42998 0.86242 0.0
C2151 C 0.33871 0.45067 0.92714 0.0
H2152 H 0.32738 0.41122 0.96991 0.0
C2153 C 0.33173 0.44506 0.05808 0.0
C2154 C 0.33657 0.43522 0.07268 0.0
C2155 C 0.33133 0.4456 0.02641 0.0
C2156 C 0.33082 0.42243 0.95844 0.0
H2157 H 0.32105 0.44668 0.81572 0.0
H2158 H 0.32132 0.44827 0.87094 0.0
H2159 H 0.3275 0.41149 0.91487 0.0
H2160 H 0.34548 0.41882 0.0657 0.0
H2161 H 0.34529 0.42007 0.01074 0.0
H2162 H 0.3425 0.46175 0.97072 0.0
C2163 C 0.32771 0.44306 0.85997 0.0
C2164 C 0.33079 0.42253 0.92686 0.0
C2165 C 0.3276 0.44217 0.8283 0.0
C2166 C 0.3414 0.42627 0.05504 0.0
C2167 C 0.34121 0.42695 0.0235 0.0
C2168 C 0.33895 0.45063 0.95886 0.0
C2169 C 0.33546 0.43672 0.87731 0.0
C2170 C 0.33486 0.43666 0.91087 0.0
C2171 C 0.33595 0.43644 0.00868 0.0
C2172 C 0.33516 0.43652 0.97494 0.0
H2173 H 0.35015 0.42411 0.82044 0.0
H2174 H 0.34985 0.42525 0.87523 0.0
H2175 H 0.34197 0.46175 0.91533 0.0
H2176 H 0.32782 0.45199 0.07115 0.0
H2177 H 0.32704 0.45291 0.01588 0.0
C2178 C 0.09835 0.42155 0.5589 0.0
C2179 C 0.10235 0.43543 0.57582 0.0
C2180 C 0.09935 0.42208 0.52731 0.0
C2181 C 0.11681 0.44934 0.46119 0.0
H2182 H 0.08214 0.41371 0.41831 0.0
C2183 C 0.11731 0.43974 0.33058 0.0
C2184 C 0.1026 0.43366 0.31517 0.0
C2185 C 0.11797 0.44096 0.36231 0.0
C2186 C 0.09187 0.42384 0.42982 0.0
H2187 H 0.11095 0.46091 0.57246 0.0
H2188 H 0.11266 0.46187 0.51711 0.0
H2189 H 0.08207 0.41411 0.47327 0.0
H2190 H 0.07719 0.42494 0.32124 0.0
H2191 H 0.07832 0.42707 0.37605 0.0
H2192 H 0.12644 0.45916 0.41742 0.0
C2193 C 0.10884 0.45055 0.52845 0.0
C2194 C 0.09194 0.42397 0.46147 0.0
C2195 C 0.10785 0.45001 0.56021 0.0
C2196 C 0.08867 0.42929 0.33225 0.0
C2197 C 0.08933 0.43052 0.36382 0.0
C2198 C 0.11677 0.44919 0.42938 0.0
C2199 C 0.10436 0.43652 0.51155 0.0
C2200 C 0.10441 0.43668 0.47767 0.0
C2201 C 0.10392 0.43614 0.37939 0.0
C2202 C 0.10425 0.43644 0.41326 0.0
H2203 H 0.09445 0.41018 0.57006 0.0
H2204 H 0.09619 0.41111 0.5152 0.0
H2205 H 0.12667 0.45927 0.47286 0.0
H2206 H 0.12826 0.44314 0.31822 0.0
H2207 H 0.12941 0.44523 0.3735 0.0
C2208 C 0.55324 0.65697 0.56019 0.0
C2209 C 0.5627 0.67174 0.57476 0.0
C2210 C 0.55205 0.6562 0.52856 0.0
C2211 C 0.57314 0.68013 0.45996 0.0
H2212 H 0.53489 0.64807 0.41868 0.0
C2213 C 0.56512 0.67961 0.33013 0.0
C2214 C 0.56077 0.66493 0.31601 0.0
C2215 C 0.56448 0.68054 0.36166 0.0
C2216 C 0.54565 0.65706 0.42998 0.0
H2217 H 0.57759 0.69732 0.56806 0.0
H2218 H 0.57501 0.69618 0.51318 0.0
H2219 H 0.53509 0.64968 0.47387 0.0
H2220 H 0.55182 0.63962 0.32358 0.0
H2221 H 0.55045 0.64118 0.37872 0.0
H2222 H 0.58352 0.68768 0.4159 0.0
C2223 C 0.56902 0.68506 0.52579 0.0
C2224 C 0.54582 0.65794 0.46162 0.0
C2225 C 0.57044 0.68577 0.55728 0.0
C2226 C 0.55538 0.65111 0.33394 0.0
C2227 C 0.55447 0.65198 0.36541 0.0
C2228 C 0.57286 0.67941 0.42837 0.0
C2229 C 0.56008 0.67023 0.51088 0.0
C2230 C 0.55962 0.66945 0.47709 0.0
C2231 C 0.5592 0.66674 0.3796 0.0
C2232 C 0.55916 0.66781 0.41308 0.0
H2233 H 0.54727 0.64598 0.57321 0.0
H2234 H 0.54522 0.64453 0.51802 0.0
H2235 H 0.58413 0.68891 0.4709 0.0
H2236 H 0.5694 0.69045 0.31684 0.0
H2237 H 0.56813 0.69205 0.37205 0.0
C2238 C 0.34827 0.90991 0.33074 0.0
C2239 C 0.33526 0.89815 0.31405 0.0
C2240 C 0.34823 0.90941 0.36232 0.0
C2241 C 0.32822 0.88317 0.42882 0.0
H2242 H 0.34501 0.92399 0.47011 0.0
C2243 C 0.33508 0.88917 0.55954 0.0
C2244 C 0.33143 0.90005 0.57368 0.0
C2245 C 0.33575 0.88851 0.52794 0.0
C2246 C 0.34014 0.91246 0.45901 0.0
H2247 H 0.31214 0.87644 0.31741 0.0
H2248 H 0.31189 0.87566 0.37276 0.0
H2249 H 0.34544 0.9233 0.41522 0.0
H2250 H 0.32581 0.9189 0.56524 0.0
H2251 H 0.3265 0.91743 0.51052 0.0
H2252 H 0.32243 0.87232 0.47279 0.0
C2253 C 0.32227 0.88516 0.36139 0.0
C2254 C 0.3406 0.91208 0.42744 0.0
C2255 C 0.32238 0.8856 0.32967 0.0
C2256 C 0.32847 0.91024 0.55533 0.0
C2257 C 0.32909 0.90954 0.52381 0.0
C2258 C 0.3277 0.88355 0.46049 0.0
C2259 C 0.33511 0.8972 0.37813 0.0
C2260 C 0.33466 0.89744 0.41188 0.0
C2261 C 0.33278 0.89871 0.50965 0.0
C2262 C 0.3336 0.89821 0.47599 0.0
H2263 H 0.35852 0.91954 0.31933 0.0
H2264 H 0.35852 0.91865 0.37435 0.0
H2265 H 0.32368 0.87169 0.41765 0.0
H2266 H 0.33725 0.881 0.5728 0.0
H2267 H 0.33879 0.88013 0.51785 0.0
C2268 C 0.22788 0.14788 0.01675 0.0
C2269 C 0.23082 0.15636 0.044 0.0
C2270 C 0.22814 0.13355 0.01567 0.0
C2271 C 0.22698 0.10139 0.06439 0.0
H2272 H 0.24114 0.09082 0.99013 0.0
C2273 C 0.23508 0.04584 0.05008 0.0
C2274 C 0.22573 0.03565 0.02649 0.0
C2275 C 0.23712 0.06122 0.05282 0.0
C2276 C 0.23719 0.09366 0.01099 0.0
H2277 H 0.23626 0.15665 0.09155 0.0
H2278 H 0.23741 0.13181 0.08965 0.0
H2279 H 0.24228 0.11658 0.99462 0.0
H2280 H 0.21163 0.03364 0.98676 0.0
H2281 H 0.2157 0.06078 0.99094 0.0
H2282 H 0.22232 0.07847 0.08081 0.0
C2283 C 0.23449 0.13598 0.06916 0.0
C2284 C 0.23769 0.10835 0.01356 0.0
C2285 C 0.23392 0.15023 0.07032 0.0
C2286 C 0.21891 0.04127 1.00512 0.0
C2287 C 0.22126 0.05677 0.00747 0.0
C2288 C 0.22679 0.08681 0.062 0.0
C2289 C 0.23167 0.12747 0.04174 0.0
C2290 C 0.23227 0.1123 0.04005 0.0
C2291 C 0.23015 0.06677 0.03162 0.0
C2292 C 0.23162 0.08272 0.03509 0.0
H2293 H 0.22524 0.15231 0.99625 0.0
H2294 H 0.22541 0.12718 0.99435 0.0
H2295 H 0.22251 0.10385 0.085 0.0
H2296 H 0.24035 0.04173 0.06701 0.0
H2297 H 0.24406 0.06876 0.07157 0.0
C2298 C 0.95024 0.18763 0.04295 0.0
C2299 C 0.96238 0.18679 0.02682 0.0
C2300 C 0.93486 0.17416 0.04519 0.0
C2301 C 0.90787 0.13492 0.00952 0.0
H2302 H 0.88757 0.12315 0.08844 0.0
C2303 C 0.85565 0.07165 0.03357 0.0
C2304 C 0.84275 0.06991 0.05133 0.0
C2305 C 0.86959 0.08653 0.03068 0.0
C2306 C 0.89295 0.12638 0.06617 0.0
H2307 H 0.96785 0.17132 0.99989 0.0
H2308 H 0.94111 0.14791 1.00374 0.0
H2309 H 0.91293 0.14827 0.08238 0.0
H2310 H 0.8346 0.08254 0.08043 0.0
H2311 H 0.85898 0.10868 0.075 0.0
H2312 H 0.88804 0.11303 0.9933 0.0
C2313 C 0.94339 0.15896 0.01451 0.0
C2314 C 0.90749 0.14078 0.06269 0.0
C2315 C 0.95875 0.17236 0.01243 0.0
C2316 C 0.84425 0.08347 0.0664 0.0
C2317 C 0.85827 0.09842 0.06349 0.0
C2318 C 0.89336 0.12058 0.01298 0.0
C2319 C 0.9313 0.15964 0.03115 0.0
C2320 C 0.91523 0.14507 0.03442 0.0
C2321 C 0.87104 0.10013 0.04534 0.0
C2322 C 0.88586 0.11598 0.04144 0.0
H2323 H 0.95268 0.19859 0.05431 0.0
H2324 H 0.92576 0.1751 0.05793 0.0
H2325 H 0.91337 0.13802 0.98733 0.0
H2326 H 0.85486 0.06156 0.02124 0.0
H2327 H 0.87928 0.08735 0.01691 0.0
C2328 C 0.82793 0.78951 0.01593 0.0
C2329 C 0.81276 0.77678 0.02414 0.0
C2330 C 0.84161 0.78814 0.01924 0.0
C2331 C 0.8561 0.75965 0.02556 0.0
H2332 H 0.89225 0.79457 0.06695 0.0
C2333 C 0.91326 0.7568 0.05348 0.0
C2334 C 0.92803 0.771 0.04964 0.0
C2335 C 0.89886 0.75705 0.0525 0.0
C2336 C 0.88237 0.7848 0.05502 0.0
H2337 H 0.79996 0.75239 0.04119 0.0
H2338 H 0.82394 0.74989 0.04642 0.0
H2339 H 0.8678 0.79572 0.05912 0.0
H2340 H 0.93931 0.7966 0.04178 0.0
H2341 H 0.91431 0.79705 0.03946 0.0
H2342 H 0.87076 0.74891 0.02059 0.0
C2343 C 0.82518 0.76096 0.03761 0.0
C2344 C 0.86834 0.78545 0.05062 0.0
C2345 C 0.81148 0.7624 0.03465 0.0
C2346 C 0.92813 0.7855 0.04536 0.0
C2347 C 0.91376 0.78574 0.04405 0.0
C2348 C 0.87022 0.75907 0.02963 0.0
C2349 C 0.84041 0.77394 0.03051 0.0
C2350 C 0.85511 0.77294 0.03567 0.0
C2351 C 0.89891 0.77149 0.0473 0.0
C2352 C 0.88359 0.7717 0.04424 0.0
H2353 H 0.82932 0.80076 0.00781 0.0
H2354 H 0.85318 0.79825 0.01322 0.0
H2355 H 0.8461 0.74989 0.0138 0.0
H2356 H 0.91284 0.74546 0.05701 0.0
H2357 H 0.8877 0.74589 0.05567 0.0
C2358 C 0.14372 0.22493 0.47971 0.0
C2359 C 0.15717 0.23427 0.49807 0.0
C2360 C 0.12987 0.22611 0.48251 0.0
C2361 C 0.10463 0.23661 0.48467 0.0
H2362 H 0.08952 0.23448 0.5669 0.0
C2363 C 0.04771 0.24 0.51214 0.0
C2364 C 0.03671 0.22787 0.53145 0.0
C2365 C 0.06324 0.24253 0.50864 0.0
C2366 C 0.09361 0.23511 0.54383 0.0
H2367 H 0.16675 0.25241 0.53326 0.0
H2368 H 0.14262 0.25449 0.538 0.0
H2369 H 0.11519 0.23577 0.55807 0.0
H2370 H 0.03352 0.20927 0.56308 0.0
H2371 H 0.06071 0.21384 0.55727 0.0
H2372 H 0.08289 0.23565 0.47044 0.0
C2373 C 0.14278 0.24624 0.52152 0.0
C2374 C 0.10835 0.23599 0.53877 0.0
C2375 C 0.15666 0.24517 0.51855 0.0
C2376 C 0.04174 0.21873 0.54807 0.0
C2377 C 0.05732 0.22137 0.54481 0.0
C2378 C 0.08995 0.2359 0.48974 0.0
C2379 C 0.12915 0.23652 0.50393 0.0
C2380 C 0.11394 0.23658 0.50913 0.0
C2381 C 0.06814 0.2331 0.52463 0.0
C2382 C 0.0842 0.23495 0.51937 0.0
H2383 H 0.1438 0.2165 0.4636 0.0
H2384 H 0.11952 0.21841 0.46874 0.0
H2385 H 0.10868 0.23714 0.4616 0.0
H2386 H 0.04417 0.24721 0.49895 0.0
H2387 H 0.07139 0.25175 0.49317 0.0
C2388 C 0.76356 0.81159 0.52312 0.0
C2389 C 0.77798 0.81306 0.53382 0.0
C2390 C 0.76184 0.82515 0.5205 0.0
C2391 C 0.78074 0.86801 0.54463 0.0
H2392 H 0.75801 0.87166 0.47532 0.0
C2393 C 0.78614 0.92802 0.50975 0.0
C2394 C 0.77153 0.9278 0.50638 0.0
C2395 C 0.78641 0.91367 0.51177 0.0
C2396 C 0.76433 0.87074 0.49484 0.0
H2397 H 0.80186 0.82985 0.55026 0.0
H2398 H 0.79907 0.85338 0.54494 0.0
H2399 H 0.7591 0.84707 0.48285 0.0
H2400 H 0.74584 0.91249 0.50107 0.0
H2401 H 0.74635 0.88733 0.50394 0.0
H2402 H 0.78635 0.89188 0.556 0.0
C2403 C 0.78888 0.8418 0.53931 0.0
C2404 C 0.76487 0.85663 0.49932 0.0
C2405 C 0.79053 0.82828 0.54224 0.0
C2406 C 0.75726 0.91297 0.5037 0.0
C2407 C 0.75755 0.89861 0.50525 0.0
C2408 C 0.78039 0.88216 0.53988 0.0
C2409 C 0.77456 0.84047 0.52825 0.0
C2410 C 0.77319 0.85512 0.52419 0.0
C2411 C 0.77209 0.89884 0.51004 0.0
C2412 C 0.77228 0.88371 0.51486 0.0
H2413 H 0.75368 0.8 0.51648 0.0
H2414 H 0.75054 0.8236 0.51236 0.0
H2415 H 0.78692 0.8672 0.56443 0.0
H2416 H 0.7973 0.93927 0.5122 0.0
H2417 H 0.79779 0.91417 0.51521 0.0
C2418 C 0.1715 0.96258 0.53722 0.0
C2419 C 0.1867 0.9647 0.53053 0.0
C2420 C 0.15774 0.94753 0.53425 0.0
C2421 C 0.14273 0.9081 0.49661 0.0
H2422 H 0.10702 0.8951 0.55182 0.0
C2423 C 0.08671 0.84411 0.50047 0.0
C2424 C 0.07175 0.84322 0.50339 0.0
C2425 C 0.10094 0.8589 0.50226 0.0
C2426 C 0.11684 0.89864 0.53606 0.0
H2427 H 0.19946 0.95262 0.51623 0.0
H2428 H 0.17548 0.92618 0.5119 0.0
H2429 H 0.13163 0.92056 0.5597 0.0
H2430 H 0.05995 0.85714 0.51001 0.0
H2431 H 0.08478 0.88296 0.51309 0.0
H2432 H 0.1279 0.88591 0.47339 0.0
C2433 C 0.17413 0.93624 0.51875 0.0
C2434 C 0.13096 0.91325 0.54053 0.0
C2435 C 0.1879 0.95136 0.52147 0.0
C2436 C 0.07129 0.85746 0.50733 0.0
C2437 C 0.0855 0.87221 0.50945 0.0
C2438 C 0.12864 0.89339 0.49234 0.0
C2439 C 0.15884 0.93416 0.5248 0.0
C2440 C 0.14406 0.91825 0.52072 0.0
C2441 C 0.10047 0.87306 0.50739 0.0
C2442 C 0.11551 0.88858 0.51187 0.0
H2443 H 0.17016 0.97265 0.54402 0.0
H2444 H 0.1462 0.9465 0.53863 0.0
H2445 H 0.15245 0.91164 0.48061 0.0
H2446 H 0.08742 0.83332 0.49734 0.0
H2447 H 0.11231 0.85919 0.50071 0.0
C2448 C 0.78066 0.85634 0.02947 0.0
C2449 C 0.76999 0.84339 0.01122 0.0
C2450 C 0.77888 0.86975 0.03296 0.0
C2451 C 0.76154 0.8922 0.99784 0.0
H2452 H 0.76846 0.91142 0.07759 0.0
C2453 C 0.75766 0.94944 0.02024 0.0
C2454 C 0.77044 0.96133 0.03721 0.0
C2455 C 0.75536 0.93391 0.01844 0.0
C2456 C 0.76655 0.90624 0.05515 0.0
H2457 H 0.74917 0.83453 0.98196 0.0
H2458 H 0.74602 0.85808 0.98819 0.0
H2459 H 0.7688 0.88647 0.07103 0.0
H2460 H 0.79051 0.96616 0.06635 0.0
H2461 H 0.78652 0.93919 0.06321 0.0
H2462 H 0.75963 0.91219 0.98188 0.0
C2463 C 0.7558 0.85779 0.9997 0.0
C2464 C 0.76676 0.89195 0.05138 0.0
C2465 C 0.75754 0.84427 0.9963 0.0
C2466 C 0.78053 0.95726 0.05314 0.0
C2467 C 0.77819 0.94176 0.05145 0.0
C2468 C 0.76134 0.90653 1.00161 0.0
C2469 C 0.76638 0.87061 0.01833 0.0
C2470 C 0.7646 0.88495 0.02259 0.0
C2471 C 0.76573 0.92996 0.03373 0.0
C2472 C 0.76418 0.91388 0.03022 0.0
H2473 H 0.79024 0.85598 0.04167 0.0
H2474 H 0.78739 0.87952 0.04709 0.0
H2475 H 0.75994 0.88716 0.97534 0.0
H2476 H 0.74971 0.95223 0.00767 0.0
H2477 H 0.74556 0.92504 1.00486 0.0
C2478 C 0.0481 0.81063 0.01695 0.0
C2479 C 0.03415 0.81173 0.01944 0.0
C2480 C 0.0631 0.82449 0.0135 0.0
C2481 C 0.08334 0.86921 0.02074 0.0
H2482 H 0.11692 0.86794 0.97447 0.0
C2483 C 0.14102 0.92589 0.98163 0.0
C2484 C 0.15499 0.92742 0.99511 0.0
C2485 C 0.12659 0.9113 0.9825 0.0
C2486 C 0.1076 0.86839 0.98742 0.0
H2487 H 0.0248 0.82802 0.01946 0.0
H2488 H 0.05067 0.85203 0.01187 0.0
H2489 H 0.0909 0.8435 0.98033 0.0
H2490 H 0.16467 0.9143 0.01875 0.0
H2491 H 0.13957 0.88868 0.01879 0.0
H2492 H 0.09998 0.8943 0.02663 0.0
C2493 C 0.05031 0.84066 0.01388 0.0
C2494 C 0.09273 0.85439 0.99107 0.0
C2495 C 0.03541 0.82686 0.01803 0.0
C2496 C 0.1543 0.91364 0.00777 0.0
C2497 C 0.13991 0.89896 0.00802 0.0
C2498 C 0.09805 0.88323 0.01647 0.0
C2499 C 0.06443 0.83973 0.01177 0.0
C2500 C 0.08037 0.85459 0.00785 0.0
C2501 C 0.12588 0.89781 0.99612 0.0
C2502 C 0.11028 0.88292 0.99985 0.0
H2503 H 0.04745 0.79908 0.0181 0.0
H2504 H 0.07364 0.82322 0.01255 0.0
H2505 H 0.07439 0.86987 0.03449 0.0
H2506 H 0.1411 0.93603 0.97087 0.0
H2507 H 0.11589 0.91059 0.9729 0.0
C2508 C 0.1714 0.20633 0.03769 0.0
C2509 C 0.18496 0.21715 0.02097 0.0
C2510 C 0.15715 0.2068 0.03572 0.0
C2511 C 0.13456 0.21886 0.98622 0.0
H2512 H 0.1126 0.21869 0.05986 0.0
C2513 C 0.0799 0.22878 0.9862 0.0
C2514 C 0.06787 0.22032 0.0077 0.0
C2515 C 0.0941 0.22813 0.98682 0.0
C2516 C 0.11841 0.21848 0.03902 0.0
H2517 H 0.19421 0.2368 0.98884 0.0
H2518 H 0.16918 0.23744 0.98507 0.0
H2519 H 0.1375 0.21799 0.06301 0.0
H2520 H 0.0608 0.20434 0.04617 0.0
H2521 H 0.08529 0.20269 0.04682 0.0
H2522 H 0.11534 0.21903 0.96214 0.0
C2523 C 0.16963 0.22867 0.99977 0.0
C2524 C 0.13272 0.21815 0.04088 0.0
C2525 C 0.18396 0.22836 1.00209 0.0
C2526 C 0.06999 0.21093 0.02938 0.0
C2527 C 0.08408 0.21015 0.02988 0.0
C2528 C 0.12012 0.21901 0.98432 0.0
C2529 C 0.1561 0.21792 0.01664 0.0
C2530 C 0.14094 0.21834 0.01452 0.0
C2531 C 0.09645 0.21894 0.00893 0.0
C2532 C 0.11184 0.21879 0.01072 0.0
H2533 H 0.17182 0.19756 0.05243 0.0
H2534 H 0.14686 0.1983 0.04881 0.0
H2535 H 0.14059 0.21886 0.96552 0.0
H2536 H 0.07847 0.2362 0.96946 0.0
H2537 H 0.10341 0.23519 0.97055 0.0
C2538 C 0.95202 0.76135 0.53598 0.0
C2539 C 0.9658 0.77647 0.53248 0.0
C2540 C 0.93693 0.75998 0.53935 0.0
C2541 C 0.91598 0.78365 0.53004 0.0
H2542 H 0.88344 0.74995 0.58008 0.0
C2543 C 0.85962 0.78381 0.57311 0.0
C2544 C 0.84539 0.77159 0.55996 0.0
C2545 C 0.87384 0.7833 0.57151 0.0
C2546 C 0.89246 0.75937 0.56603 0.0
H2547 H 0.97473 0.80204 0.5305 0.0
H2548 H 0.94872 0.79982 0.53785 0.0
H2549 H 0.90944 0.75157 0.57339 0.0
H2550 H 0.83494 0.74873 0.53638 0.0
H2551 H 0.85973 0.74759 0.53498 0.0
H2552 H 0.89912 0.79178 0.52394 0.0
C2553 C 0.94928 0.78889 0.53674 0.0
C2554 C 0.90731 0.76027 0.56193 0.0
C2555 C 0.96427 0.7902 0.53272 0.0
C2556 C 0.84556 0.75829 0.54704 0.0
C2557 C 0.85975 0.75764 0.54603 0.0
C2558 C 0.90131 0.78294 0.53471 0.0
C2559 C 0.93534 0.77376 0.53993 0.0
C2560 C 0.91932 0.77246 0.54392 0.0
C2561 C 0.87407 0.77036 0.55748 0.0
C2562 C 0.88947 0.77084 0.55275 0.0
H2563 H 0.95288 0.75055 0.53575 0.0
H2564 H 0.92652 0.7481 0.54118 0.0
H2565 H 0.92465 0.79294 0.51534 0.0
H2566 H 0.85993 0.79401 0.58404 0.0
H2567 H 0.88477 0.79316 0.58076 0.0
C2568 C 0.21099 0.17439 0.50486 0.0
C2569 C 0.21945 0.1872 0.52502 0.0
C2570 C 0.21231 0.16061 0.50687 0.0
C2571 C 0.21942 0.13626 0.55998 0.0
H2572 H 0.23055 0.11983 0.48963 0.0
C2573 C 0.22846 0.08115 0.56707 0.0
C2574 C 0.22413 0.0711 0.54169 0.0
C2575 C 0.22824 0.09557 0.56568 0.0
C2576 C 0.22715 0.12404 0.50943 0.0
H2577 H 0.23584 0.19567 0.56316 0.0
H2578 H 0.23781 0.17135 0.56711 0.0
H2579 H 0.22941 0.14445 0.48551 0.0
H2580 H 0.21551 0.06766 0.49553 0.0
H2581 H 0.21432 0.09228 0.4934 0.0
H2582 H 0.2165 0.11561 0.58373 0.0
C2583 C 0.23033 0.17209 0.5496 0.0
C2584 C 0.22662 0.13823 0.50704 0.0
C2585 C 0.22928 0.18601 0.54719 0.0
C2586 C 0.2191 0.07537 0.51526 0.0
C2587 C 0.21857 0.08957 0.51402 0.0
C2588 C 0.21965 0.12188 0.56227 0.0
C2589 C 0.22184 0.15928 0.52948 0.0
C2590 C 0.22273 0.14444 0.53226 0.0
C2591 C 0.22339 0.10003 0.53902 0.0
C2592 C 0.22345 0.11553 0.53697 0.0
H2593 H 0.20333 0.17501 0.48759 0.0
H2594 H 0.2056 0.15084 0.49119 0.0
H2595 H 0.21627 0.14078 0.5797 0.0
H2596 H 0.23244 0.07807 0.58763 0.0
H2597 H 0.23221 0.10336 0.58529 0.0
C2598 C 0.92716 0.14068 0.53537 0.0
C2599 C 0.9288 0.15387 0.55202 0.0
C2600 C 0.91237 0.12655 0.53341 0.0
C2601 C 0.87255 0.10362 0.56954 0.0
H2602 H 0.86063 0.0821 0.49173 0.0
C2603 C 0.81056 0.04702 0.5474 0.0
C2604 C 0.81093 0.03454 0.53161 0.0
C2605 C 0.82437 0.06215 0.5496 0.0
C2606 C 0.86383 0.0879 0.51366 0.0
H2607 H 0.91612 0.1623 0.5803 0.0
H2608 H 0.89015 0.13763 0.57644 0.0
H2609 H 0.88581 0.10733 0.49679 0.0
H2610 H 0.82598 0.02818 0.50544 0.0
H2611 H 0.84999 0.05449 0.50926 0.0
H2612 H 0.85053 0.08407 0.58637 0.0
C2613 C 0.90041 0.13825 0.56508 0.0
C2614 C 0.87827 0.10235 0.51659 0.0
C2615 C 0.91527 0.15244 0.56707 0.0
C2616 C 0.82529 0.03755 0.5177 0.0
C2617 C 0.83904 0.05267 0.51976 0.0
C2618 C 0.85805 0.08914 0.56658 0.0
C2619 C 0.89876 0.12521 0.54791 0.0
C2620 C 0.88294 0.11028 0.54466 0.0
C2621 C 0.83879 0.06512 0.53588 0.0
C2622 C 0.85364 0.08102 0.53869 0.0
H2623 H 0.93723 0.14139 0.52312 0.0
H2624 H 0.9116 0.11666 0.5204 0.0
H2625 H 0.87584 0.10934 0.59153 0.0
H2626 H 0.79967 0.04505 0.55839 0.0
H2627 H 0.82376 0.07154 0.56194 0.0
C2628 C 0.90799 0.48771 0.3855 0.0
C2629 C 0.89535 0.48861 0.39966 0.0
C2630 C 0.90829 0.47333 0.3853 0.0
C2631 C 0.88199 0.43181 0.37811 0.0
H2632 H 0.9145 0.42389 0.41211 0.0
C2633 C 0.87482 0.36887 0.37324 0.0
C2634 C 0.88859 0.36748 0.37097 0.0
C2635 C 0.87614 0.3838 0.37829 0.0
C2636 C 0.90545 0.42594 0.40197 0.0
H2637 H 0.8738 0.47522 0.42684 0.0
H2638 H 0.87398 0.44999 0.42495 0.0
H2639 H 0.91658 0.45005 0.41913 0.0
H2640 H 0.91456 0.38054 0.37168 0.0
H2641 H 0.91699 0.40678 0.37875 0.0
H2642 H 0.87121 0.40826 0.35948 0.0
C2643 C 0.88362 0.46051 0.41415 0.0
C2644 C 0.90661 0.44088 0.40629 0.0
C2645 C 0.88349 0.47494 0.41494 0.0
C2646 C 0.90374 0.3813 0.37349 0.0
C2647 C 0.9051 0.39633 0.37783 0.0
C2648 C 0.88101 0.41703 0.37316 0.0
C2649 C 0.89584 0.45953 0.39882 0.0
C2650 C 0.8948 0.44384 0.39461 0.0
C2651 C 0.8913 0.3978 0.38044 0.0
C2652 C 0.89264 0.41379 0.38524 0.0
H2653 H 0.91724 0.49783 0.37315 0.0
H2654 H 0.91778 0.47277 0.37321 0.0
H2655 H 0.87288 0.43397 0.36853 0.0
H2656 H 0.86297 0.35835 0.3718 0.0
H2657 H 0.86521 0.38426 0.38093 0.0
C2658 C 0.51149 0.41959 0.37635 0.0
C2659 C 0.51144 0.40598 0.38824 0.0
C2660 C 0.52571 0.43442 0.37497 0.0
C2661 C 0.5673 0.45092 0.3616 0.0
H2662 H 0.57543 0.49001 0.402 0.0
C2663 C 0.63021 0.50683 0.36066 0.0
C2664 C 0.63177 0.52211 0.36164 0.0
C2665 C 0.61519 0.49308 0.36403 0.0
C2666 C 0.5733 0.47932 0.39003 0.0
H2667 H 0.52636 0.39781 0.40994 0.0
H2668 H 0.55121 0.42348 0.40596 0.0
H2669 H 0.54955 0.46546 0.40859 0.0
H2670 H 0.61887 0.53504 0.36628 0.0
H2671 H 0.59246 0.51101 0.37054 0.0
H2672 H 0.59052 0.46458 0.34185 0.0
C2673 C 0.54015 0.42254 0.39782 0.0
C2674 C 0.55851 0.46525 0.39408 0.0
C2675 C 0.52591 0.40781 0.39981 0.0
C2676 C 0.61799 0.52338 0.36554 0.0
C2677 C 0.60287 0.50958 0.36825 0.0
C2678 C 0.58191 0.46501 0.35697 0.0
C2679 C 0.54019 0.43587 0.38497 0.0
C2680 C 0.55553 0.45092 0.38022 0.0
C2681 C 0.60126 0.4942 0.36777 0.0
C2682 C 0.58525 0.47939 0.37148 0.0
H2683 H 0.5007 0.4187 0.36684 0.0
H2684 H 0.52552 0.44458 0.36485 0.0
H2685 H 0.56512 0.44001 0.35035 0.0
H2686 H 0.64067 0.50549 0.35813 0.0
H2687 H 0.61463 0.48157 0.36431 0.0
C2688 C 0.58429 0.10169 0.39744 0.0
C2689 C 0.59435 0.10652 0.37202 0.0
C2690 C 0.56953 0.10126 0.39625 0.0
C2691 C 0.54032 0.10113 0.34031 0.0
H2692 H 0.52295 0.11128 0.41054 0.0
C2693 C 0.48973 0.1168 0.33545 0.0
C2694 C 0.47704 0.10877 0.35603 0.0
C2695 C 0.50331 0.11514 0.33726 0.0
C2696 C 0.52762 0.10828 0.39085 0.0
H2697 H 0.59746 0.11536 0.32607 0.0
H2698 H 0.57222 0.11538 0.32431 0.0
H2699 H 0.5485 0.11182 0.41463 0.0
H2700 H 0.46852 0.09264 0.39453 0.0
H2701 H 0.49251 0.09003 0.39809 0.0
H2702 H 0.5197 0.09829 0.31632 0.0
C2703 C 0.57521 0.11125 0.34478 0.0
C2704 C 0.54223 0.10852 0.39317 0.0
C2705 C 0.58975 0.11141 0.34582 0.0
C2706 C 0.47808 0.09886 0.37822 0.0
C2707 C 0.49181 0.09746 0.38042 0.0
C2708 C 0.52588 0.10117 0.33789 0.0
C2709 C 0.56472 0.10589 0.36976 0.0
C2710 C 0.54886 0.10508 0.36784 0.0
C2711 C 0.50458 0.10567 0.36007 0.0
C2712 C 0.51945 0.10482 0.36308 0.0
H2713 H 0.58761 0.09781 0.41783 0.0
H2714 H 0.56175 0.09692 0.41585 0.0
H2715 H 0.54476 0.09797 0.32049 0.0
H2716 H 0.48924 0.12453 0.31816 0.0
H2717 H 0.51304 0.12165 0.32141 0.0
C2718 C 0.71592 0.57523 0.85143 0.0
C2719 C 0.70393 0.56237 0.86805 0.0
C2720 C 0.73138 0.57737 0.84942 0.0
C2721 C 0.75872 0.56533 0.88466 0.0
H2722 H 0.77739 0.5722 0.80441 0.0
C2723 C 0.8081 0.55078 0.85689 0.0
C2724 C 0.82107 0.56156 0.83882 0.0
C2725 C 0.79472 0.55258 0.86066 0.0
C2726 C 0.77246 0.57052 0.82703 0.0
H2727 H 0.69885 0.542 0.8965 0.0
H2728 H 0.72572 0.54569 0.89301 0.0
H2729 H 0.7526 0.57288 0.81192 0.0
H2730 H 0.82997 0.58256 0.81005 0.0
H2731 H 0.80648 0.58576 0.8168 0.0
H2732 H 0.77836 0.56264 0.89969 0.0
C2733 C 0.72328 0.55422 0.88166 0.0
C2734 C 0.75828 0.57093 0.83135 0.0
C2735 C 0.70784 0.55205 0.88356 0.0
C2736 C 0.82022 0.5741 0.82424 0.0
C2737 C 0.80673 0.57587 0.82795 0.0
C2738 C 0.77287 0.5649 0.88034 0.0
C2739 C 0.73515 0.56673 0.86415 0.0
C2740 C 0.75108 0.56803 0.86013 0.0
C2741 C 0.79393 0.56523 0.84652 0.0
C2742 C 0.77972 0.56715 0.85137 0.0
H2743 H 0.71326 0.58337 0.8392 0.0
H2744 H 0.74032 0.58722 0.83603 0.0
H2745 H 0.75365 0.56334 0.9072 0.0
H2746 H 0.80845 0.54114 0.86886 0.0
H2747 H 0.78495 0.54402 0.87473 0.0
C2748 C 0.42496 0.24923 0.85362 0.0
C2749 C 0.43574 0.2614 0.83408 0.0
C2750 C 0.42461 0.23456 0.85534 0.0
C2751 C 0.45068 0.21738 0.84176 0.0
H2752 H 0.41167 0.17675 0.85501 0.0
C2753 C 0.42969 0.1459 0.84689 0.0
C2754 C 0.44247 0.14689 0.86398 0.0
C2755 C 0.42784 0.15934 0.84349 0.0
C2756 C 0.42266 0.18798 0.85113 0.0
H2757 H 0.45393 0.26733 0.79971 0.0
H2758 H 0.45323 0.24169 0.8025 0.0
H2759 H 0.41007 0.20093 0.84588 0.0
H2760 H 0.46293 0.16252 0.89195 0.0
H2761 H 0.45955 0.18582 0.88648 0.0
H2762 H 0.46327 0.20448 0.8465 0.0
C2763 C 0.4453 0.24363 0.81702 0.0
C2764 C 0.42175 0.20187 0.84616 0.0
C2765 C 0.44568 0.25831 0.81537 0.0
C2766 C 0.453 0.16139 0.8785 0.0
C2767 C 0.45114 0.17479 0.87515 0.0
C2768 C 0.45158 0.20354 0.84672 0.0
C2769 C 0.43501 0.23171 0.83751 0.0
C2770 C 0.43577 0.21675 0.84151 0.0
C2771 C 0.43874 0.17403 0.85712 0.0
C2772 C 0.43761 0.18868 0.85167 0.0
H2773 H 0.41728 0.2513 0.86864 0.0
H2774 H 0.41666 0.22574 0.8716 0.0
H2775 H 0.46173 0.22866 0.83867 0.0
H2776 H 0.4214 0.1349 0.83533 0.0
H2777 H 0.41822 0.15836 0.82928 0.0
C2778 C 0.73955 0.19035 0.86577 0.0
C2779 C 0.73589 0.17984 0.84126 0.0
C2780 C 0.75382 0.20506 0.86619 0.0
C2781 C 0.78795 0.23392 0.81799 0.0
H2782 H 0.80848 0.24886 0.89617 0.0
C2783 C 0.8525 0.28806 0.83533 0.0
C2784 C 0.85352 0.29954 0.85623 0.0
C2785 C 0.83829 0.27332 0.83244 0.0
C2786 C 0.80284 0.24485 0.87422 0.0
H2787 H 0.74394 0.17638 0.79772 0.0
H2788 H 0.76931 0.20193 0.79875 0.0
H2789 H 0.78349 0.22339 0.89264 0.0
H2790 H 0.84063 0.30457 0.89071 0.0
H2791 H 0.81597 0.27863 0.88622 0.0
H2792 H 0.80779 0.25534 0.79968 0.0
C2793 C 0.76102 0.19904 0.8174 0.0
C2794 C 0.78844 0.2303 0.87215 0.0
C2795 C 0.74655 0.18439 0.81678 0.0
C2796 C 0.84017 0.29595 0.87441 0.0
C2797 C 0.8261 0.28111 0.87192 0.0
C2798 C 0.80254 0.24838 0.82003 0.0
C2799 C 0.76494 0.20948 0.84235 0.0
C2800 C 0.78065 0.22473 0.84408 0.0
C2801 C 0.82499 0.2697 0.85081 0.0
C2802 C 0.80999 0.25405 0.84823 0.0
H2803 H 0.73138 0.18711 0.88476 0.0
H2804 H 0.75612 0.21292 0.88536 0.0
H2805 H 0.78226 0.23015 0.79605 0.0
H2806 H 0.86259 0.29057 0.82092 0.0
H2807 H 0.83774 0.26467 0.81611 0.0
C2808 C 0.44811 0.19054 0.35782 0.0
C2809 C 0.43714 0.17767 0.33976 0.0
C2810 C 0.44675 0.2042 0.36135 0.0
C2811 C 0.42994 0.22729 0.32679 0.0
H2812 H 0.43773 0.24669 0.4065 0.0
C2813 C 0.42708 0.28501 0.35005 0.0
C2814 C 0.44004 0.29683 0.36677 0.0
C2815 C 0.42461 0.26942 0.34807 0.0
C2816 C 0.43559 0.24146 0.38408 0.0
H2817 H 0.41623 0.16922 0.31085 0.0
H2818 H 0.4138 0.19318 0.31719 0.0
H2819 H 0.43751 0.22147 0.39972 0.0
H2820 H 0.46028 0.30149 0.39525 0.0
H2821 H 0.456 0.27441 0.3918 0.0
H2822 H 0.42833 0.24749 0.31108 0.0
C2823 C 0.4235 0.19264 0.3285 0.0
C2824 C 0.43548 0.22702 0.38018 0.0
C2825 C 0.42483 0.17889 0.32504 0.0
C2826 C 0.45016 0.29264 0.38224 0.0
C2827 C 0.44766 0.27708 0.38038 0.0
C2828 C 0.43006 0.24177 0.3307 0.0
C2829 C 0.43437 0.20538 0.34697 0.0
C2830 C 0.43299 0.21994 0.35139 0.0
C2831 C 0.435 0.26534 0.36293 0.0
C2832 C 0.4332 0.24918 0.35929 0.0
H2833 H 0.45759 0.18994 0.36988 0.0
H2834 H 0.45547 0.21388 0.37535 0.0
H2835 H 0.4281 0.2222 0.30429 0.0
H2836 H 0.41909 0.28789 0.33784 0.0
H2837 H 0.41466 0.2606 0.33471 0.0
C2838 C 0.71478 0.14491 0.35107 0.0
C2839 C 0.70137 0.14584 0.36067 0.0
C2840 C 0.72986 0.15878 0.34894 0.0
C2841 C 0.75263 0.20149 0.37348 0.0
H2842 H 0.77999 0.20603 0.30534 0.0
C2843 C 0.80805 0.26199 0.34285 0.0
C2844 C 0.82235 0.26178 0.3378 0.0
C2845 C 0.79339 0.24767 0.34463 0.0
C2846 C 0.77251 0.20488 0.32458 0.0
H2847 H 0.69324 0.162 0.37577 0.0
H2848 H 0.71934 0.18614 0.37147 0.0
H2849 H 0.75436 0.18125 0.31158 0.0
H2850 H 0.83244 0.24645 0.32947 0.0
H2851 H 0.80673 0.22136 0.3323 0.0
H2852 H 0.77067 0.22525 0.38609 0.0
C2853 C 0.71838 0.17472 0.36617 0.0
C2854 C 0.75786 0.19065 0.32828 0.0
C2855 C 0.70337 0.16086 0.36851 0.0
C2856 C 0.8216 0.24696 0.3335 0.0
C2857 C 0.8069 0.23262 0.33497 0.0
C2858 C 0.76719 0.21575 0.36961 0.0
C2859 C 0.73182 0.17389 0.35616 0.0
C2860 C 0.74769 0.1888 0.35273 0.0
C2861 C 0.79269 0.23282 0.34114 0.0
C2862 C 0.77725 0.21762 0.34507 0.0
H2863 H 0.71362 0.13348 0.34494 0.0
H2864 H 0.73998 0.15764 0.34164 0.0
H2865 H 0.7453 0.2004 0.39292 0.0
H2866 H 0.80826 0.27321 0.3466 0.0
H2867 H 0.78259 0.24819 0.34909 0.0
C2868 C 0.74709 0.56396 0.31493 0.0
C2869 C 0.73785 0.56044 0.34139 0.0
C2870 C 0.76125 0.56319 0.31495 0.0
C2871 C 0.78048 0.5435 0.35168 0.0
H2872 H 0.82121 0.58098 0.33141 0.0
C2873 C 0.83973 0.54536 0.37806 0.0
C2874 C 0.85262 0.55335 0.35795 0.0
C2875 C 0.82599 0.54665 0.37498 0.0
C2876 C 0.80994 0.5703 0.33664 0.0
H2877 H 0.73575 0.55298 0.38822 0.0
H2878 H 0.76019 0.55118 0.388 0.0
H2879 H 0.7964 0.58188 0.32618 0.0
H2880 H 0.86137 0.56904 0.31892 0.0
H2881 H 0.83714 0.57086 0.31272 0.0
H2882 H 0.79368 0.53167 0.36142 0.0
C2883 C 0.75666 0.55474 0.36745 0.0
C2884 C 0.79575 0.57086 0.33371 0.0
C2885 C 0.74275 0.55583 0.36761 0.0
C2886 C 0.85163 0.56286 0.33491 0.0
C2887 C 0.83774 0.56393 0.33145 0.0
C2888 C 0.79458 0.54282 0.3541 0.0
C2889 C 0.76608 0.5585 0.34121 0.0
C2890 C 0.78095 0.55755 0.34167 0.0
C2891 C 0.82465 0.5557 0.35128 0.0
C2892 C 0.80956 0.5563 0.34717 0.0
H2893 H 0.7435 0.56755 0.2945 0.0
H2894 H 0.76833 0.56609 0.29444 0.0
H2895 H 0.76916 0.53302 0.35765 0.0
H2896 H 0.84024 0.53805 0.3962 0.0
H2897 H 0.81641 0.54051 0.39126 0.0
C2898 C 0.51353 0.09569 0.89761 0.0
C2899 C 0.51226 0.10774 0.88199 0.0
C2900 C 0.52716 0.09413 0.89416 0.0
C2901 C 0.56112 0.10503 0.84159 0.0
H2902 H 0.58136 0.0975 0.91061 0.0
C2903 C 0.62613 0.11757 0.8389 0.0
C2904 C 0.62975 0.10691 0.85389 0.0
C2905 C 0.61084 0.11576 0.84111 0.0
C2906 C 0.57571 0.09936 0.89104 0.0
H2907 H 0.52434 0.1275 0.85029 0.0
H2908 H 0.54809 0.12507 0.84505 0.0
H2909 H 0.5565 0.09811 0.91763 0.0
H2910 H 0.62009 0.08577 0.88243 0.0
H2911 H 0.59331 0.0826 0.88628 0.0
H2912 H 0.58047 0.10663 0.81512 0.0
C2913 C 0.53853 0.11668 0.85967 0.0
C2914 C 0.56146 0.09972 0.89506 0.0
C2915 C 0.52497 0.11824 0.8631 0.0
C2916 C 0.61765 0.09416 0.87057 0.0
C2917 C 0.60235 0.09241 0.87296 0.0
C2918 C 0.57535 0.10473 0.8376 0.0
C2919 C 0.53975 0.10453 0.87489 0.0
C2920 C 0.55416 0.10285 0.87046 0.0
C2921 C 0.59883 0.1033 0.85849 0.0
C2922 C 0.58296 0.10216 0.86234 0.0
H2923 H 0.50402 0.08747 0.91249 0.0
H2924 H 0.5277 0.0846 0.90614 0.0
H2925 H 0.55561 0.1071 0.82202 0.0
H2926 H 0.63521 0.12754 0.82592 0.0
H2927 H 0.60858 0.12446 0.82996 0.0
C2928 C 0.90996 0.42041 0.88837 0.0
C2929 C 0.89582 0.40552 0.8849 0.0
C2930 C 0.90958 0.43471 0.88616 0.0
C2931 C 0.88672 0.451 0.85001 0.0
H2932 H 0.90716 0.48576 0.90793 0.0
C2933 C 0.87557 0.50434 0.84888 0.0
C2934 C 0.88805 0.51956 0.8574 0.0
C2935 C 0.87737 0.49088 0.85151 0.0
C2936 C 0.90162 0.4763 0.89123 0.0
H2937 H 0.87021 0.39393 0.87669 0.0
H2938 H 0.86956 0.41888 0.87276 0.0
H2939 H 0.90864 0.46139 0.91514 0.0
H2940 H 0.91238 0.53273 0.87458 0.0
H2941 H 0.91576 0.50929 0.8783 0.0
H2942 H 0.87993 0.46585 0.8257 0.0
C2943 C 0.88092 0.41948 0.87725 0.0
C2944 C 0.90241 0.46231 0.8955 0.0
C2945 C 0.88126 0.40521 0.87984 0.0
C2946 C 0.90253 0.52113 0.86791 0.0
C2947 C 0.90441 0.50766 0.87028 0.0
C2948 C 0.88609 0.46503 0.84553 0.0
C2949 C 0.89509 0.43437 0.87996 0.0
C2950 C 0.89478 0.44945 0.87514 0.0
C2951 C 0.89177 0.49232 0.86243 0.0
C2952 C 0.89335 0.47779 0.86628 0.0
H2953 H 0.92134 0.42099 0.89232 0.0
H2954 H 0.92068 0.44604 0.88825 0.0
H2955 H 0.88099 0.44138 0.83365 0.0
H2956 H 0.8642 0.50271 0.84093 0.0
H2957 H 0.86726 0.47927 0.84575 0.0
C2958 C 0.58168 0.48866 0.89394 0.0
C2959 C 0.59524 0.49014 0.87893 0.0
C2960 C 0.56673 0.47465 0.89102 0.0
C2961 C 0.54449 0.43956 0.84062 0.0
H2962 H 0.51698 0.42008 0.91026 0.0
C2963 C 0.49221 0.3743 0.84046 0.0
C2964 C 0.47799 0.37078 0.85562 0.0
C2965 C 0.50569 0.38963 0.84211 0.0
C2966 C 0.52441 0.4255 0.8905 0.0
H2967 H 0.60363 0.47805 0.84891 0.0
H2968 H 0.57781 0.45362 0.84448 0.0
H2969 H 0.54216 0.44537 0.91617 0.0
H2970 H 0.46663 0.38066 0.88385 0.0
H2971 H 0.4902 0.40751 0.8866 0.0
H2972 H 0.5269 0.4196 0.81505 0.0
C2973 C 0.57863 0.46332 0.85823 0.0
C2974 C 0.53885 0.43999 0.89389 0.0
C2975 C 0.59351 0.47725 0.86117 0.0
C2976 C 0.47742 0.38301 0.8719 0.0
C2977 C 0.49094 0.39836 0.87367 0.0
C2978 C 0.53009 0.42509 0.83724 0.0
C2979 C 0.56502 0.46188 0.87289 0.0
C2980 C 0.54917 0.44705 0.86908 0.0
C2981 C 0.50529 0.40179 0.85904 0.0
C2982 C 0.51999 0.41777 0.86222 0.0
H2983 H 0.5826 0.4983 0.90796 0.0
H2984 H 0.55646 0.47394 0.90251 0.0
H2985 H 0.552 0.44486 0.8209 0.0
H2986 H 0.49305 0.36512 0.8278 0.0
H2987 H 0.5166 0.39182 0.83087 0.0
C2988 C 0.54534 0.80724 0.74722 0.0
C2989 C 0.55767 0.82083 0.73254 0.0
C2990 C 0.54539 0.79276 0.74763 0.0
C2991 C 0.56954 0.77372 0.74232 0.0
H2992 H 0.53336 0.73924 0.70023 0.0
C2993 C 0.5686 0.71507 0.71015 0.0
C2994 C 0.55376 0.70078 0.7089 0.0
C2995 C 0.56927 0.72976 0.7148 0.0
C2996 C 0.5434 0.74854 0.71266 0.0
H2997 H 0.5802 0.8298 0.70818 0.0
H2998 H 0.58056 0.80471 0.71035 0.0
H2999 H 0.53436 0.76473 0.70782 0.0
H3000 H 0.52803 0.69049 0.71244 0.0
H3001 H 0.52914 0.71588 0.72216 0.0
H3002 H 0.57842 0.75752 0.74817 0.0
C3003 C 0.57078 0.80535 0.7211 0.0
C3004 C 0.54398 0.7632 0.71681 0.0
C3005 C 0.57058 0.81976 0.72008 0.0
C3006 C 0.53962 0.70138 0.71292 0.0
C3007 C 0.5403 0.716 0.71828 0.0
C3008 C 0.5688 0.75892 0.73881 0.0
C3009 C 0.55796 0.79163 0.7341 0.0
C3010 C 0.5571 0.77593 0.73145 0.0
C3011 C 0.55512 0.73045 0.71901 0.0
C3012 C 0.55577 0.74614 0.72367 0.0
H3013 H 0.53542 0.80764 0.75784 0.0
H3014 H 0.53546 0.78233 0.75809 0.0
H3015 H 0.57976 0.7834 0.75376 0.0
H3016 H 0.57968 0.71492 0.70694 0.0
H3017 H 0.58091 0.74057 0.71455 0.0
C3018 C 0.28578 0.85571 0.71345 0.0
C3019 C 0.29847 0.85551 0.69812 0.0
C3020 C 0.27093 0.84165 0.71648 0.0
C3021 C 0.24606 0.80138 0.68321 0.0
H3022 H 0.22437 0.79069 0.76088 0.0
C3023 C 0.19338 0.73839 0.70744 0.0
C3024 C 0.18004 0.73701 0.72315 0.0
C3025 C 0.20754 0.75313 0.70525 0.0
C3026 C 0.23017 0.79359 0.73895 0.0
H3027 H 0.30551 0.84047 0.67375 0.0
H3028 H 0.27964 0.81598 0.67904 0.0
H3029 H 0.24949 0.81606 0.75472 0.0
H3030 H 0.17137 0.7501 0.74959 0.0
H3031 H 0.19611 0.77599 0.7453 0.0
H3032 H 0.22685 0.77898 0.66737 0.0
C3033 C 0.2811 0.827 0.68851 0.0
C3034 C 0.24456 0.80812 0.73542 0.0
C3035 C 0.29596 0.84103 0.6856 0.0
C3036 C 0.18136 0.75075 0.73711 0.0
C3037 C 0.19559 0.76556 0.73488 0.0
C3038 C 0.2317 0.7869 0.68671 0.0
C3039 C 0.26843 0.82713 0.7041 0.0
C3040 C 0.25275 0.81209 0.70759 0.0
C3041 C 0.20876 0.76695 0.71854 0.0
C3042 C 0.22367 0.78273 0.71472 0.0
H3043 H 0.28736 0.86669 0.72337 0.0
H3044 H 0.26135 0.84217 0.72834 0.0
H3045 H 0.25191 0.80421 0.66132 0.0
H3046 H 0.19277 0.72816 0.69597 0.0
H3047 H 0.21754 0.7537 0.69292 0.0
C3048 C 0.25371 0.43741 0.73409 0.0
C3049 C 0.26395 0.44263 0.70892 0.0
C3050 C 0.23915 0.43739 0.73324 0.0
C3051 C 0.21069 0.43906 0.67789 0.0
H3052 H 0.19291 0.4478 0.74926 0.0
C3053 C 0.15969 0.45413 0.67439 0.0
C3054 C 0.14685 0.44553 0.6944 0.0
C3055 C 0.1735 0.45285 0.67633 0.0
C3056 C 0.1977 0.44521 0.72924 0.0
H3057 H 0.26761 0.45263 0.66383 0.0
H3058 H 0.24272 0.45337 0.66271 0.0
H3059 H 0.21835 0.44805 0.75294 0.0
H3060 H 0.13832 0.4289 0.73214 0.0
H3061 H 0.16267 0.42695 0.7359 0.0
H3062 H 0.19028 0.43684 0.65405 0.0
C3063 C 0.24541 0.44863 0.68268 0.0
C3064 C 0.21225 0.44529 0.73132 0.0
C3065 C 0.25976 0.44837 0.68337 0.0
C3066 C 0.14801 0.43557 0.71629 0.0
C3067 C 0.16195 0.43454 0.7186 0.0
C3068 C 0.19632 0.43926 0.67574 0.0
C3069 C 0.23473 0.44284 0.70733 0.0
C3070 C 0.219 0.44233 0.7056 0.0
C3071 C 0.17482 0.44319 0.69867 0.0
C3072 C 0.18973 0.4424 0.70134 0.0
H3073 H 0.25673 0.43288 0.75398 0.0
H3074 H 0.23121 0.43271 0.75255 0.0
H3075 H 0.21522 0.43629 0.65775 0.0
H3076 H 0.15912 0.4619 0.65733 0.0
H3077 H 0.1833 0.45971 0.66081 0.0
C3078 C 0.48741 0.90833 0.17066 0.0
C3079 C 0.48818 0.8957 0.15612 0.0
C3080 C 0.47303 0.90861 0.17155 0.0
C3081 C 0.43211 0.88318 0.18196 0.0
H3082 H 0.42238 0.91325 0.14243 0.0
C3083 C 0.36861 0.87453 0.18686 0.0
C3084 C 0.36678 0.88809 0.1869 0.0
C3085 C 0.38365 0.87609 0.18207 0.0
C3086 C 0.42496 0.90491 0.1541 0.0
H3087 H 0.47452 0.87413 0.12914 0.0
H3088 H 0.4493 0.87431 0.13218 0.0
H3089 H 0.44861 0.91549 0.1348 0.0
H3090 H 0.37922 0.91395 0.18246 0.0
H3091 H 0.4057 0.91684 0.17566 0.0
H3092 H 0.40902 0.87296 0.2025 0.0
C3093 C 0.45993 0.88396 0.1427 0.0
C3094 C 0.43992 0.90615 0.14944 0.0
C3095 C 0.47436 0.88382 0.14126 0.0
C3096 C 0.38032 0.90329 0.18243 0.0
C3097 C 0.39547 0.9049 0.17826 0.0
C3098 C 0.41732 0.88213 0.18715 0.0
C3099 C 0.45912 0.89619 0.1583 0.0
C3100 C 0.4435 0.89518 0.16312 0.0
C3101 C 0.39735 0.8913 0.17786 0.0
C3102 C 0.41342 0.89286 0.17304 0.0
H3103 H 0.49766 0.91758 0.18273 0.0
H3104 H 0.47258 0.9181 0.18388 0.0
H3105 H 0.43477 0.87473 0.19302 0.0
H3106 H 0.35832 0.86263 0.18981 0.0
H3107 H 0.38443 0.86527 0.18116 0.0
C3108 C 0.10735 0.5867 0.20652 0.0
C3109 C 0.10371 0.59174 0.17939 0.0
C3110 C 0.10774 0.57243 0.20771 0.0
C3111 C 0.10931 0.54163 0.15893 0.0
H3112 H 0.09693 0.51735 0.23388 0.0
C3113 C 0.10117 0.47793 0.17291 0.0
C3114 C 0.11077 0.47697 0.19585 0.0
C3115 C 0.0995 0.49149 0.17039 0.0
C3116 C 0.10043 0.52404 0.21285 0.0
H3117 H 0.09766 0.58603 0.13217 0.0
H3118 H 0.09761 0.56059 0.13431 0.0
H3119 H 0.09515 0.54163 0.22976 0.0
H3120 H 0.1258 0.48915 0.23458 0.0
H3121 H 0.12238 0.51265 0.2308 0.0
H3122 H 0.11404 0.52352 0.14194 0.0
C3123 C 0.10061 0.56784 0.15459 0.0
C3124 C 0.09955 0.53804 0.21048 0.0
C3125 C 0.10054 0.58234 0.15331 0.0
C3126 C 0.11833 0.4896 0.21669 0.0
C3127 C 0.11635 0.50299 0.21459 0.0
C3128 C 0.10986 0.52742 0.16114 0.0
C3129 C 0.10417 0.56265 0.18189 0.0
C3130 C 0.10424 0.5472 0.18366 0.0
C3131 C 0.10709 0.50413 0.1912 0.0
C3132 C 0.10564 0.51865 0.18826 0.0
H3133 H 0.11005 0.59392 0.22683 0.0
H3134 H 0.11101 0.56919 0.22891 0.0
H3135 H 0.11325 0.54841 0.13807 0.0
H3136 H 0.09531 0.4684 0.1564 0.0
H3137 H 0.09225 0.49211 0.15225 0.0
C3138 C 0.40598 0.5266 0.19533 0.0
C3139 C 0.4031 0.51542 0.17244 0.0
C3140 C 0.42013 0.54142 0.19546 0.0
C3141 C 0.4553 0.56915 0.14822 0.0
H3142 H 0.47416 0.58612 0.22682 0.0
C3143 C 0.51956 0.62363 0.16665 0.0
C3144 C 0.52037 0.63546 0.18637 0.0
C3145 C 0.50529 0.60895 0.16365 0.0
C3146 C 0.46898 0.58155 0.20474 0.0
H3147 H 0.4124 0.51073 0.13159 0.0
H3148 H 0.43752 0.53655 0.1321 0.0
H3149 H 0.44922 0.56058 0.22367 0.0
H3150 H 0.50699 0.64123 0.21849 0.0
H3151 H 0.48221 0.61545 0.21376 0.0
H3152 H 0.47551 0.5901 0.12947 0.0
C3153 C 0.42873 0.53411 0.14961 0.0
C3154 C 0.45462 0.56696 0.20287 0.0
C3155 C 0.41441 0.51932 0.1493 0.0
C3156 C 0.50671 0.63233 0.2031 0.0
C3157 C 0.49256 0.61758 0.2005 0.0
C3158 C 0.46983 0.58368 0.1501 0.0
C3159 C 0.43187 0.54527 0.17299 0.0
C3160 C 0.44746 0.56064 0.17462 0.0
C3161 C 0.4917 0.60576 0.18073 0.0
C3162 C 0.47669 0.59008 0.17841 0.0
H3163 H 0.39733 0.52377 0.21334 0.0
H3164 H 0.42189 0.54982 0.21338 0.0
H3165 H 0.45009 0.56477 0.1261 0.0
H3166 H 0.52991 0.62576 0.15338 0.0
H3167 H 0.50494 0.59998 0.14837 0.0
C3168 C 0.11715 0.62466 0.71142 0.0
C3169 C 0.10807 0.62968 0.69462 0.0
C3170 C 0.11451 0.60908 0.70828 0.0
C3171 C 0.09986 0.57604 0.65402 0.0
H3172 H 0.09924 0.55115 0.72357 0.0
C3173 C 0.08963 0.50927 0.6859 0.0
C3174 C 0.10059 0.50847 0.66596 0.0
C3175 C 0.08867 0.52324 0.68803 0.0
C3176 C 0.09923 0.55789 0.70393 0.0
H3177 H 0.08894 0.62227 0.66165 0.0
H3178 H 0.0844 0.59505 0.65601 0.0
H3179 H 0.10091 0.57706 0.73119 0.0
H3180 H 0.11854 0.52141 0.63152 0.0
H3181 H 0.11684 0.54584 0.63521 0.0
H3182 H 0.09843 0.55695 0.62675 0.0
C3183 C 0.09357 0.60319 0.67159 0.0
C3184 C 0.10033 0.57277 0.7083 0.0
C3185 C 0.09609 0.61873 0.67499 0.0
C3186 C 0.11007 0.52171 0.64725 0.0
C3187 C 0.10901 0.53565 0.6492 0.0
C3188 C 0.09892 0.56121 0.64963 0.0
C3189 C 0.10284 0.59825 0.68802 0.0
C3190 C 0.10077 0.58206 0.6834 0.0
C3191 C 0.09856 0.53668 0.67012 0.0
C3192 C 0.09869 0.55202 0.67455 0.0
H3193 H 0.12648 0.63284 0.72669 0.0
H3194 H 0.12193 0.60566 0.72104 0.0
H3195 H 0.10031 0.58301 0.6344 0.0
H3196 H 0.08227 0.49935 0.70084 0.0
H3197 H 0.08039 0.52364 0.70413 0.0
C3198 C 0.38354 0.47828 0.68481 0.0
C3199 C 0.37048 0.47939 0.696 0.0
C3200 C 0.39879 0.49194 0.68294 0.0
C3201 C 0.4228 0.53389 0.71104 0.0
H3202 H 0.44867 0.53989 0.63966 0.0
C3203 C 0.47699 0.59508 0.6804 0.0
C3204 C 0.49127 0.5953 0.67288 0.0
C3205 C 0.46256 0.58057 0.68273 0.0
C3206 C 0.44163 0.5383 0.65983 0.0
H3207 H 0.36317 0.49564 0.71431 0.0
H3208 H 0.38957 0.51942 0.71057 0.0
H3209 H 0.42302 0.51508 0.64578 0.0
H3210 H 0.50156 0.58053 0.66095 0.0
H3211 H 0.4762 0.55506 0.6647 0.0
H3212 H 0.44123 0.55726 0.72469 0.0
C3213 C 0.3882 0.50801 0.70374 0.0
C3214 C 0.42696 0.52407 0.66343 0.0
C3215 C 0.37301 0.49436 0.70574 0.0
C3216 C 0.49073 0.5807 0.66686 0.0
C3217 C 0.47623 0.56616 0.66887 0.0
C3218 C 0.43735 0.54814 0.7073 0.0
C3219 C 0.40128 0.50701 0.69212 0.0
C3220 C 0.41729 0.52174 0.68898 0.0
C3221 C 0.46206 0.56595 0.67736 0.0
C3222 C 0.44685 0.55056 0.68154 0.0
H3223 H 0.38196 0.46689 0.67717 0.0
H3224 H 0.40863 0.49068 0.6743 0.0
H3225 H 0.41586 0.53239 0.73131 0.0
H3226 H 0.47704 0.60611 0.68556 0.0
H3227 H 0.45179 0.58078 0.68899 0.0
C3228 C 0.51778 0.89771 0.66313 0.0
C3229 C 0.51854 0.88844 0.68695 0.0
C3230 C 0.50454 0.89994 0.66029 0.0
C3231 C 0.47344 0.90171 0.70284 0.0
H3232 H 0.44699 0.88652 0.63073 0.0
C3233 C 0.41086 0.89497 0.70082 0.0
C3234 C 0.40494 0.89763 0.67376 0.0
C3235 C 0.42516 0.89462 0.7011 0.0
C3236 C 0.45437 0.89114 0.6508 0.0
H3237 H 0.50636 0.87457 0.72684 0.0
H3238 H 0.48352 0.87898 0.72249 0.0
H3239 H 0.47169 0.8853 0.63367 0.0
H3240 H 0.40914 0.90195 0.6257 0.0
H3241 H 0.43464 0.90206 0.62618 0.0
H3242 H 0.45661 0.90801 0.71988 0.0
C3243 C 0.49304 0.8843 0.70583 0.0
C3244 C 0.46848 0.89035 0.65247 0.0
C3245 C 0.50606 0.88176 0.70826 0.0
C3246 C 0.41351 0.89984 0.64682 0.0
C3247 C 0.42805 0.89982 0.64716 0.0
C3248 C 0.45955 0.90281 0.70097 0.0
C3249 C 0.49209 0.89326 0.68167 0.0
C3250 C 0.47795 0.89535 0.67874 0.0
C3251 C 0.43412 0.89726 0.67438 0.0
C3252 C 0.4496 0.89721 0.6752 0.0
H3253 H 0.52721 0.9029 0.64628 0.0
H3254 H 0.50405 0.90692 0.64152 0.0
H3255 H 0.48068 0.90581 0.7232 0.0
H3256 H 0.40429 0.89297 0.7218 0.0
H3257 H 0.42908 0.89212 0.72234 0.0
C3258 C 0.29322 0.45065 0.17624 0.0
C3259 C 0.29781 0.44098 0.19221 0.0
C3260 C 0.27777 0.44836 0.17949 0.0
C3261 C 0.24458 0.43359 0.23335 0.0
H3262 H 0.21995 0.4341 0.1643 0.0
C3263 C 0.17773 0.4233 0.2029 0.0
C3264 C 0.17678 0.43399 0.22331 0.0
C3265 C 0.19187 0.42269 0.20017 0.0
C3266 C 0.22664 0.43381 0.18379 0.0
H3267 H 0.28977 0.42116 0.22376 0.0
H3268 H 0.26279 0.41727 0.22965 0.0
H3269 H 0.24578 0.43561 0.15624 0.0
H3270 H 0.18968 0.45192 0.25781 0.0
H3271 H 0.21441 0.45076 0.25318 0.0
H3272 H 0.22553 0.43205 0.26091 0.0
C3273 C 0.27116 0.42661 0.21463 0.0
C3274 C 0.24146 0.4348 0.17918 0.0
C3275 C 0.28655 0.42877 0.21108 0.0
C3276 C 0.19009 0.44363 0.24177 0.0
C3277 C 0.20419 0.44289 0.23926 0.0
C3278 C 0.22983 0.43279 0.23798 0.0
C3279 C 0.26666 0.43648 0.19907 0.0
C3280 C 0.25062 0.43476 0.2039 0.0
C3281 C 0.20532 0.43264 0.21798 0.0
C3282 C 0.22073 0.43293 0.21324 0.0
H3283 H 0.30164 0.46017 0.16156 0.0
H3284 H 0.27467 0.45622 0.16739 0.0
H3285 H 0.25146 0.43367 0.25284 0.0
H3286 H 0.16775 0.41585 0.18812 0.0
H3287 H 0.19235 0.41457 0.18378 0.0
C3288 C 0.57815 0.75584 0.22248 0.0
C3289 C 0.56414 0.74097 0.21787 0.0
C3290 C 0.57779 0.77015 0.22004 0.0
C3291 C 0.55542 0.78664 0.18225 0.0
H3292 H 0.57416 0.8206 0.24209 0.0
C3293 C 0.54255 0.83879 0.182 0.0
C3294 C 0.55474 0.8541 0.19083 0.0
C3295 C 0.54467 0.82553 0.18472 0.0
C3296 C 0.5691 0.81136 0.22488 0.0
H3297 H 0.53876 0.72945 0.20719 0.0
H3298 H 0.53814 0.75436 0.203 0.0
H3299 H 0.5761 0.79643 0.24881 0.0
H3300 H 0.57886 0.86761 0.20895 0.0
H3301 H 0.58277 0.84449 0.21298 0.0
H3302 H 0.54859 0.80148 0.15802 0.0
C3303 C 0.54939 0.75496 0.20852 0.0
C3304 C 0.57017 0.7975 0.22884 0.0
C3305 C 0.54972 0.74069 0.21129 0.0
C3306 C 0.56923 0.85593 0.20201 0.0
C3307 C 0.57142 0.84266 0.20453 0.0
C3308 C 0.5545 0.80053 0.17812 0.0
C3309 C 0.56345 0.76983 0.21249 0.0
C3310 C 0.56312 0.78491 0.20778 0.0
C3311 C 0.55911 0.82727 0.1961 0.0
C3312 C 0.5611 0.81297 0.19961 0.0
H3313 H 0.58942 0.75639 0.22762 0.0
H3314 H 0.5888 0.78146 0.22313 0.0
H3315 H 0.55015 0.77725 0.16535 0.0
H3316 H 0.53119 0.83695 0.17352 0.0
H3317 H 0.53481 0.81385 0.17853 0.0
C3318 C 0.2621 0.80573 0.217 0.0
C3319 C 0.26141 0.8199 0.21996 0.0
C3320 C 0.24802 0.79081 0.216 0.0
C3321 C 0.20495 0.76956 0.23453 0.0
H3322 H 0.20166 0.74107 0.16941 0.0
C3323 C 0.14521 0.71202 0.20635 0.0
C3324 C 0.14596 0.69836 0.19782 0.0
C3325 C 0.15924 0.7269 0.20929 0.0
C3326 C 0.20243 0.74875 0.188 0.0
H3327 H 0.24546 0.82951 0.22542 0.0
H3328 H 0.22082 0.80339 0.22391 0.0
H3329 H 0.22633 0.76665 0.17585 0.0
H3330 H 0.162 0.68956 0.18574 0.0
H3331 H 0.18646 0.71535 0.19153 0.0
H3332 H 0.18115 0.7516 0.247 0.0
C3333 C 0.23226 0.80385 0.2223 0.0
C3334 C 0.21658 0.76343 0.19165 0.0
C3335 C 0.24635 0.81879 0.223 0.0
C3336 C 0.16101 0.69989 0.19213 0.0
C3337 C 0.17505 0.71472 0.19532 0.0
C3338 C 0.19083 0.75479 0.23107 0.0
C3339 C 0.23295 0.78973 0.2182 0.0
C3340 C 0.21799 0.774 0.21492 0.0
C3341 C 0.17437 0.72843 0.20401 0.0
C3342 C 0.18937 0.74419 0.20771 0.0
H3343 H 0.27351 0.8062 0.21427 0.0
H3344 H 0.24891 0.78012 0.21313 0.0
H3345 H 0.20575 0.77741 0.25283 0.0
H3346 H 0.13377 0.71122 0.21078 0.0
H3347 H 0.15821 0.73722 0.21551 0.0
C3348 C 0.19601 0.21573 0.66806 0.0
C3349 C 0.2043 0.21177 0.64677 0.0
C3350 C 0.19948 0.21634 0.69892 0.0
C3351 C 0.2113 0.19792 0.75548 0.0
H3352 H 0.22386 0.23571 0.80471 0.0
C3353 C 0.22214 0.19652 0.88333 0.0
C3354 C 0.21797 0.20539 0.90267 0.0
C3355 C 0.2225 0.19864 0.85198 0.0
C3356 C 0.22011 0.22494 0.79151 0.0
H3357 H 0.22271 0.2054 0.64082 0.0
H3358 H 0.2284 0.20583 0.69526 0.0
H3359 H 0.22033 0.23683 0.7502 0.0
H3360 H 0.211 0.22347 0.90476 0.0
H3361 H 0.21071 0.22666 0.84998 0.0
H3362 H 0.20999 0.1856 0.79641 0.0
C3363 C 0.21942 0.20873 0.68786 0.0
C3364 C 0.21826 0.22568 0.76021 0.0
C3365 C 0.21622 0.20853 0.65687 0.0
C3366 C 0.21441 0.21663 0.8902 0.0
C3367 C 0.21434 0.21848 0.85875 0.0
C3368 C 0.21277 0.19704 0.78682 0.0
C3369 C 0.21106 0.21264 0.70911 0.0
C3370 C 0.21383 0.21217 0.74197 0.0
C3371 C 0.21821 0.20936 0.83908 0.0
C3372 C 0.21718 0.21053 0.80541 0.0
H3373 H 0.18686 0.21839 0.66073 0.0
H3374 H 0.19283 0.2193 0.71492 0.0
H3375 H 0.20767 0.18729 0.74188 0.0
H3376 H 0.2251 0.1879 0.89257 0.0
H3377 H 0.22604 0.19174 0.83794 0.0
C3378 C 0.77693 0.99383 0.89776 0.0
C3379 C 0.79225 0.99963 0.91063 0.0
C3380 C 0.77479 0.99225 0.86627 0.0
C3381 C 0.79377 0.98755 0.79767 0.0
H3382 H 0.76931 0.00297 0.75362 0.0
C3383 C 0.79995 0.99586 0.66948 0.0
C3384 C 0.78611 0.99114 0.65195 0.0
C3385 C 0.79939 0.99654 0.70095 0.0
C3386 C 0.77599 0.99841 0.76563 0.0
H3387 H 0.8174 0.00896 0.8999 0.0
H3388 H 0.81362 0.00593 0.8456 0.0
H3389 H 0.77048 0.00449 0.80905 0.0
H3390 H 0.7609 0.9839 0.65376 0.0
H3391 H 0.75985 0.98499 0.70917 0.0
H3392 H 0.79935 0.98146 0.75467 0.0
C3393 C 0.80321 0.00235 0.85984 0.0
C3394 C 0.77667 0.99929 0.79735 0.0
C3395 C 0.80536 0.00403 0.89113 0.0
C3396 C 0.77176 0.98762 0.66667 0.0
C3397 C 0.77118 0.98825 0.69838 0.0
C3398 C 0.79305 0.98661 0.76615 0.0
C3399 C 0.7879 0.99631 0.84701 0.0
C3400 C 0.78586 0.99417 0.81364 0.0
C3401 C 0.78495 0.99245 0.7159 0.0
C3402 C 0.78446 0.99234 0.74964 0.0
H3403 H 0.76652 0.99024 0.91193 0.0
H3404 H 0.76284 0.9875 0.85703 0.0
H3405 H 0.80066 0.98317 0.80959 0.0
H3406 H 0.81128 0.99906 0.65885 0.0
H3407 H 0.81034 0.00029 0.71361 0.0
C3408 C 0.00057 0.77652 0.66046 0.0
C3409 C 0.0114 0.79181 0.64888 0.0
C3410 C 0.9983 0.77404 0.69174 0.0
C3411 C 0.00135 0.79639 0.76072 0.0
H3412 H 0.99721 0.75932 0.80354 0.0
C3413 C 0.9791 0.78344 0.88312 0.0
C3414 C 0.98837 0.78028 0.90358 0.0
C3415 C 0.98137 0.78325 0.85198 0.0
C3416 C 0.99839 0.76974 0.79184 0.0
H3417 H 0.02911 0.81618 0.66122 0.0
H3418 H 0.02504 0.81191 0.71552 0.0
H3419 H 0.00315 0.76232 0.74912 0.0
H3420 H 0.00683 0.77374 0.90715 0.0
H3421 H 0.01073 0.7733 0.85254 0.0
H3422 H 0.99669 0.8039 0.80314 0.0
C3423 C 0.01809 0.80191 0.70044 0.0
C3424 C 0.00167 0.7714 0.76073 0.0
C3425 C 0.02039 0.80436 0.6693 0.0
C3426 C 0.99944 0.77615 0.89205 0.0
C3427 C 0.00168 0.77591 0.86077 0.0
C3428 C 0.99795 0.79467 0.79161 0.0
C3429 C 0.00678 0.78682 0.71199 0.0
C3430 C 0.00327 0.7848 0.74492 0.0
C3431 C 0.99293 0.77983 0.84047 0.0
C3432 C 0.99642 0.78134 0.80753 0.0
H3433 H 0.99338 0.76661 0.64541 0.0
H3434 H 0.98945 0.7623 0.70001 0.0
H3435 H 0.00232 0.80674 0.74911 0.0
H3436 H 0.97019 0.78626 0.89116 0.0
H3437 H 0.97421 0.78599 0.83686 0.0
C3438 C 0.81217 0.80067 0.39016 0.0
C3439 C 0.79866 0.79265 0.40902 0.0
C3440 C 0.81055 0.79998 0.35873 0.0
C3441 C 0.78383 0.77725 0.29528 0.0
H3442 H 0.80981 0.8172 0.25224 0.0
C3443 C 0.77976 0.7851 0.16473 0.0
C3444 C 0.79438 0.7949 0.14974 0.0
C3445 C 0.77926 0.7837 0.19639 0.0
C3446 C 0.80259 0.80589 0.26382 0.0
H3447 H 0.7728 0.7772 0.40927 0.0
H3448 H 0.76997 0.77595 0.35406 0.0
H3449 H 0.8106 0.81686 0.30718 0.0
H3450 H 0.82002 0.81006 0.15612 0.0
H3451 H 0.81921 0.80756 0.21093 0.0
H3452 H 0.77589 0.76631 0.25158 0.0
C3453 C 0.78185 0.78277 0.36384 0.0
C3454 C 0.80303 0.8057 0.29538 0.0
C3455 C 0.78347 0.78348 0.39548 0.0
C3456 C 0.80852 0.80272 0.16697 0.0
C3457 C 0.80804 0.8013 0.19845 0.0
C3458 C 0.78339 0.77744 0.26352 0.0
C3459 C 0.79537 0.79123 0.34512 0.0
C3460 C 0.79388 0.79135 0.31154 0.0
C3461 C 0.79339 0.79206 0.21366 0.0
C3462 C 0.79299 0.79173 0.24741 0.0
H3463 H 0.8241 0.80748 0.39965 0.0
H3464 H 0.82128 0.8063 0.34503 0.0
H3465 H 0.77667 0.76598 0.30704 0.0
H3466 H 0.76864 0.77902 0.1521 0.0
H3467 H 0.76777 0.77653 0.20739 0.0
C3468 C 0.19608 0.9986 0.38973 0.0
C3469 C 0.21015 0.00439 0.407 0.0
C3470 C 0.19651 0.99751 0.35833 0.0
C3471 C 0.22021 0.99648 0.2936 0.0
H3472 H 0.19419 0.01011 0.24968 0.0
C3473 C 0.21866 0.00067 0.16152 0.0
C3474 C 0.20328 0.99461 0.14878 0.0
C3475 C 0.22081 0.00214 0.193 0.0
C3476 C 0.20144 0.00616 0.26159 0.0
H3477 H 0.23567 0.01301 0.40493 0.0
H3478 H 0.23648 0.01118 0.34957 0.0
H3479 H 0.19568 0.0121 0.30455 0.0
H3480 H 0.17805 0.98459 0.1595 0.0
H3481 H 0.18182 0.98735 0.21391 0.0
H3482 H 0.22589 0.99052 0.25023 0.0
C3483 C 0.22508 0.00743 0.36053 0.0
C3484 C 0.20228 0.00727 0.29307 0.0
C3485 C 0.22463 0.00847 0.39218 0.0
C3486 C 0.19011 0.98971 0.16833 0.0
C3487 C 0.19226 0.99125 0.19961 0.0
C3488 C 0.2194 0.9954 0.26191 0.0
C3489 C 0.21105 0.00225 0.34323 0.0
C3490 C 0.21138 0.00213 0.30955 0.0
C3491 C 0.20764 0.99767 0.21233 0.0
C3492 C 0.20972 -8e-05 0.24565 0.0
H3493 H 0.18467 0.99495 0.40051 0.0
H3494 H 0.18539 0.99302 0.34582 0.0
H3495 H 0.2273 0.99239 0.30564 0.0
H3496 H 0.22909 0.00463 0.14723 0.0
H3497 H 0.23281 0.00718 0.20216 0.0
C3498 C 0.01645 0.20599 0.16788 0.0
C3499 C 0.00846 0.21162 0.1493 0.0
C3500 C 0.01557 0.20651 0.19934 0.0
C3501 C 0.00663 0.22524 0.26336 0.0
H3502 H 0.99813 0.1863 0.30496 0.0
C3503 C 0.99362 0.21492 0.39297 0.0
C3504 C -0.00019 0.20636 0.40817 0.0
C3505 C 0.99488 0.21666 0.3614 0.0
C3506 C 0.00073 0.19736 0.29382 0.0
H3507 H 0.99374 0.22282 0.1495 0.0
H3508 H 0.9923 0.22384 0.20478 0.0
H3509 H 2e-05 0.18753 0.25011 0.0
H3510 H 0.01299 0.19376 0.40243 0.0
H3511 H 0.01544 0.19698 0.34776 0.0
H3512 H 0.00749 0.2351 0.30734 0.0
C3513 C 0.99925 0.219 0.19475 0.0
C3514 C 0.00176 0.19804 0.26231 0.0
C3515 C 8e-05 0.21843 0.16309 0.0
C3516 C 0.0078 0.20012 0.39132 0.0
C3517 C 0.00915 0.20194 0.35993 0.0
C3518 C 0.00567 0.22459 0.29507 0.0
C3519 C 0.00672 0.21274 0.21318 0.0
C3520 C 0.00493 0.21204 0.24669 0.0
C3521 C 0.00243 0.20993 0.34444 0.0
C3522 C 0.00291 0.21069 0.3107 0.0
H3523 H 0.02338 0.20108 0.15814 0.0
H3524 H 0.02179 0.20194 0.21288 0.0
H3525 H 0.00913 0.23621 0.25195 0.0
H3526 H 0.98729 0.21976 0.40535 0.0
H3527 H 0.98947 0.2228 0.35023 0.0
C3528 C 0.88369 0.5406 0.99325 0.0
C3529 C 0.87111 0.54247 0.98187 0.0
C3530 C 0.88633 0.54101 0.02455 0.0
C3531 C 0.88124 0.55617 0.09646 0.0
H3532 H 0.87585 0.51711 0.13256 0.0
C3533 C 0.87422 0.54561 0.22619 0.0
C3534 C 0.87874 0.53522 0.23929 0.0
C3535 C 0.87485 0.54771 0.1947 0.0
C3536 C 0.87781 0.5283 0.12307 0.0
H3537 H 0.85192 0.54696 0.99383 0.0
H3538 H 0.85688 0.54826 0.04848 0.0
H3539 H 0.87505 0.51919 0.07781 0.0
H3540 H 0.88832 0.51958 0.23043 0.0
H3541 H 0.89048 0.52393 0.17591 0.0
H3542 H 0.88448 0.56558 0.14135 0.0
C3543 C 0.86451 0.5462 0.0333 0.0
C3544 C 0.87723 0.52941 0.09157 0.0
C3545 C 0.86162 0.54537 1.00216 0.0
C3546 C 0.88456 0.52749 0.22065 0.0
C3547 C 0.88562 0.5299 0.18934 0.0
C3548 C 0.88221 0.55524 0.12798 0.0
C3549 C 0.87671 0.54377 0.04482 0.0
C3550 C 0.87873 0.54325 0.07801 0.0
C3551 C 0.88042 0.53975 0.17569 0.0
C3552 C 0.88029 0.5412 0.14188 0.0
H3553 H 0.8911 0.53829 0.97798 0.0
H3554 H 0.89581 0.53909 0.03295 0.0
H3555 H 0.88247 0.567 0.08645 0.0
H3556 H 0.8696 0.5516 0.24024 0.0
H3557 H 0.87049 0.5552 0.18535 0.0
C3558 C 0.47644 0.34257 0.22156 0.0
C3559 C 0.46298 0.33788 0.24021 0.0
C3560 C 0.47496 0.34186 0.19011 0.0
C3561 C 0.44914 0.33981 0.1263 0.0
H3562 H 0.47359 0.32404 0.08335 0.0
C3563 C 0.445 0.32821 0.99559 0.0
C3564 C 0.45956 0.33258 0.98078 0.0
C3565 C 0.44441 0.329 0.02726 0.0
C3566 C 0.4668 0.32863 0.09492 0.0
H3567 H 0.43739 0.32912 0.24008 0.0
H3568 H 0.43479 0.32784 0.18482 0.0
H3569 H 0.4742 0.32491 0.13831 0.0
H3570 H 0.48505 0.34212 0.98758 0.0
H3571 H 0.48406 0.34352 0.04239 0.0
H3572 H 0.44179 0.34352 0.08254 0.0
C3573 C 0.44653 0.33215 0.19477 0.0
C3574 C 0.46715 0.32912 0.12649 0.0
C3575 C 0.44801 0.33287 0.22644 0.0
C3576 C 0.47358 0.33831 0.99824 0.0
C3577 C 0.473 0.33909 0.02973 0.0
C3578 C 0.44878 0.33929 0.09453 0.0
C3579 C 0.45997 0.33641 0.17625 0.0
C3580 C 0.45856 0.33498 0.14263 0.0
C3581 C 0.45838 0.33415 0.04473 0.0
C3582 C 0.45785 0.33395 0.07847 0.0
H3583 H 0.48822 0.34691 0.23128 0.0
H3584 H 0.48565 0.34564 0.17659 0.0
H3585 H 0.44244 0.34444 0.13801 0.0
H3586 H 0.43396 0.32364 0.98281 0.0
H3587 H 0.43295 0.32505 0.0381 0.0
C3588 C 0.67475 0.11684 0.99338 0.0
C3589 C 0.66923 0.12605 0.97847 0.0
C3590 C 0.67358 0.11513 0.02494 0.0
C3591 C 0.66919 0.13522 0.09273 0.0
H3592 H 0.65776 0.09535 0.13401 0.0
C3593 C 0.65037 0.1257 0.21682 0.0
C3594 C 0.65793 0.11991 0.23617 0.0
C3595 C 0.65192 0.12537 0.18552 0.0
C3596 C 0.66111 0.10658 0.12273 0.0
H3597 H 0.6573 0.13985 0.98459 0.0
H3598 H 0.65498 0.13669 0.03922 0.0
H3599 H 0.66004 0.09673 0.07867 0.0
H3600 H 0.67253 0.10856 0.23745 0.0
H3601 H 0.67501 0.10776 0.18239 0.0
H3602 H 0.66995 0.14499 0.13652 0.0
C3603 C 0.66072 0.13122 0.02687 0.0
C3604 C 0.66245 0.10739 0.0911 0.0
C3605 C 0.662 0.13301 0.99553 0.0
C3606 C 0.66651 0.11308 0.22327 0.0
C3607 C 0.66796 0.11264 0.19176 0.0
C3608 C 0.66774 0.13437 0.12414 0.0
C3609 C 0.66677 0.12254 0.04208 0.0
C3610 C 0.66624 0.12167 0.07572 0.0
C3611 C 0.66095 0.1191 0.17266 0.0
C3612 C 0.66344 0.11999 0.13945 0.0
H3613 H 0.68044 0.1114 0.98075 0.0
H3614 H 0.67843 0.10843 0.03594 0.0
H3615 H 0.67259 0.14654 0.08175 0.0
H3616 H 0.6433 0.13062 0.22582 0.0
H3617 H 0.6461 0.13011 0.1713 0.0
C3618 C 0.47795 0.13525 0.72085 0.0
C3619 C 0.46446 0.12758 0.73986 0.0
C3620 C 0.47626 0.13454 0.68942 0.0
C3621 C 0.44902 0.11206 0.62634 0.0
H3622 H 0.47576 0.15157 0.58256 0.0
C3623 C 0.44476 0.1194 0.49562 0.0
C3624 C 0.45937 0.12887 0.48038 0.0
C3625 C 0.44436 0.11818 0.52732 0.0
C3626 C 0.46832 0.14037 0.59434 0.0
H3627 H 0.43852 0.11276 0.7403 0.0
H3628 H 0.43556 0.11147 0.68514 0.0
H3629 H 0.47676 0.15146 0.63751 0.0
H3630 H 0.48509 0.14361 0.48639 0.0
H3631 H 0.48445 0.14141 0.54122 0.0
H3632 H 0.44067 0.10099 0.58285 0.0
C3633 C 0.44748 0.11803 0.6948 0.0
C3634 C 0.46888 0.14032 0.62592 0.0
C3635 C 0.44919 0.11877 0.72644 0.0
C3636 C 0.4736 0.13653 0.49742 0.0
C3637 C 0.47322 0.13528 0.52892 0.0
C3638 C 0.44847 0.11211 0.59457 0.0
C3639 C 0.46101 0.12611 0.67594 0.0
C3640 C 0.45945 0.12613 0.64235 0.0
C3641 C 0.45858 0.12639 0.54439 0.0
C3642 C 0.45833 0.12623 0.57818 0.0
H3643 H 0.48993 0.14177 0.73021 0.0
H3644 H 0.48697 0.14058 0.67562 0.0
H3645 H 0.44165 0.10091 0.6383 0.0
H3646 H 0.43358 0.11344 0.48314 0.0
H3647 H 0.43288 0.11126 0.53849 0.0
C3648 C 0.86831 0.33668 0.72278 0.0
C3649 C 0.88234 0.34243 0.74012 0.0
C3650 C 0.8686 0.33446 0.69167 0.0
C3651 C 0.89266 0.33087 0.62949 0.0
H3652 H 0.86446 0.33959 0.58044 0.0
C3653 C 0.88964 0.33144 0.49618 0.0
C3654 C 0.874 0.32173 0.4847 0.0
C3655 C 0.89225 0.33403 0.52742 0.0
C3656 C 0.87239 0.33712 0.59389 0.0
H3657 H 0.90764 0.35013 0.73869 0.0
H3658 H 0.90835 0.34672 0.68381 0.0
H3659 H 0.86628 0.34467 0.6346 0.0
H3660 H 0.84909 0.30623 0.49767 0.0
H3661 H 0.85363 0.31128 0.55159 0.0
H3662 H 0.89894 0.32365 0.58802 0.0
C3663 C 0.89703 0.34364 0.69439 0.0
C3664 C 0.87336 0.3399 0.62498 0.0
C3665 C 0.89666 0.34565 0.72576 0.0
C3666 C 0.86121 0.31416 0.50536 0.0
C3667 C 0.8638 0.31695 0.53636 0.0
C3668 C 0.89187 0.32832 0.59813 0.0
C3669 C 0.883 0.33818 0.67689 0.0
C3670 C 0.88319 0.33644 0.64337 0.0
C3671 C 0.87926 0.32712 0.54762 0.0
C3672 C 0.88144 0.3311 0.58025 0.0
H3673 H 0.85703 0.33374 0.73338 0.0
H3674 H 0.85744 0.32973 0.67924 0.0
H3675 H 0.90029 0.32799 0.6429 0.0
H3676 H 0.89979 0.3375 0.48111 0.0
H3677 H 0.9043 0.34194 0.53568 0.0
C3678 C 0.68678 0.54489 0.50073 0.0
C3679 C 0.67811 0.54977 0.48223 0.0
C3680 C 0.68585 0.5453 0.53219 0.0
C3681 C 0.67548 0.56261 0.59649 0.0
H3682 H 0.6686 0.52402 0.63736 0.0
C3683 C 0.66229 0.55136 0.72581 0.0
C3684 C 0.6688 0.54307 0.74095 0.0
C3685 C 0.66365 0.55327 0.69429 0.0
C3686 C 0.67075 0.535 0.62645 0.0
H3687 H 0.66218 0.5596 0.48256 0.0
H3688 H 0.66069 0.56046 0.53788 0.0
H3689 H 0.67066 0.52564 0.58254 0.0
H3690 H 0.68263 0.53115 0.7352 0.0
H3691 H 0.68532 0.53474 0.6806 0.0
H3692 H 0.67576 0.57203 0.64064 0.0
C3693 C 0.66817 0.55627 0.52777 0.0
C3694 C 0.67188 0.53589 0.59495 0.0
C3695 C 0.66904 0.55579 0.4961 0.0
C3696 C 0.67721 0.53729 0.72411 0.0
C3697 C 0.67869 0.53932 0.69276 0.0
C3698 C 0.67446 0.56176 0.62819 0.0
C3699 C 0.6763 0.55068 0.54611 0.0
C3700 C 0.67444 0.54975 0.57959 0.0
C3701 C 0.67165 0.54703 0.6773 0.0
C3702 C 0.67227 0.54799 0.64358 0.0
H3703 H 0.69424 0.54062 0.49093 0.0
H3704 H 0.69256 0.54127 0.54569 0.0
H3705 H 0.67751 0.57347 0.58527 0.0
H3706 H 0.65563 0.55582 0.7382 0.0
H3707 H 0.65798 0.55918 0.68317 0.0
C3708 C 0.52961 0.88315 0.33262 0.0
C3709 C 0.53813 0.87906 0.31213 0.0
C3710 C 0.53249 0.88363 0.36372 0.0
C3711 C 0.54254 0.86413 0.42116 0.0
H3712 H 0.55298 0.90082 0.47221 0.0
C3713 C 0.54875 0.8602 0.55011 0.0
C3714 C 0.54397 0.86872 0.56905 0.0
C3715 C 0.55011 0.86287 0.51888 0.0
C3716 C 0.54981 0.89035 0.45847 0.0
H3717 H 0.55642 0.87244 0.3078 0.0
H3718 H 0.56109 0.87265 0.36268 0.0
H3719 H 0.55147 0.90305 0.41739 0.0
H3720 H 0.53696 0.88677 0.57055 0.0
H3721 H 0.53836 0.8909 0.51579 0.0
H3722 H 0.53977 0.85099 0.46171 0.0
C3723 C 0.5524 0.87576 0.35448 0.0
C3724 C 0.54912 0.89172 0.427 0.0
C3725 C 0.54979 0.8757 0.32324 0.0
C3726 C 0.54077 0.88015 0.55629 0.0
C3727 C 0.54169 0.88255 0.52489 0.0
C3728 C 0.54284 0.86261 0.45261 0.0
C3729 C 0.54369 0.87965 0.37498 0.0
C3730 C 0.54547 0.87861 0.4081 0.0
C3731 C 0.54625 0.87382 0.5056 0.0
C3732 C 0.54645 0.87568 0.47186 0.0
H3733 H 0.52062 0.88586 0.32449 0.0
H3734 H 0.52557 0.88657 0.37908 0.0
H3735 H 0.53945 0.85377 0.40706 0.0
H3736 H 0.55151 0.85149 0.5596 0.0
H3737 H 0.55415 0.85625 0.50522 0.0
C3738 C 0.11692 0.65693 0.56176 0.0
C3739 C 0.12834 0.67175 0.57391 0.0
C3740 C 0.11412 0.65521 0.5305 0.0
C3741 C 0.13279 0.676 0.45739 0.0
H3742 H 0.09193 0.64372 0.42421 0.0
C3743 C 0.11711 0.66955 0.32932 0.0
C3744 C 0.1148 0.65496 0.31779 0.0
C3745 C 0.11725 0.67189 0.36062 0.0
C3746 C 0.10336 0.65283 0.43329 0.0
H3747 H 0.14515 0.69657 0.56372 0.0
H3748 H 0.13967 0.694 0.50956 0.0
H3749 H 0.09498 0.6477 0.47896 0.0
H3750 H 0.11005 0.63116 0.32948 0.0
H3751 H 0.10968 0.63504 0.38432 0.0
H3752 H 0.14088 0.68136 0.4114 0.0
C3753 C 0.13339 0.6834 0.52354 0.0
C3754 C 0.10521 0.65503 0.46467 0.0
C3755 C 0.13647 0.68497 0.55461 0.0
C3756 C 0.11191 0.64251 0.33795 0.0
C3757 C 0.11163 0.64471 0.36917 0.0
C3758 C 0.13079 0.67405 0.42606 0.0
C3759 C 0.1224 0.66842 0.51084 0.0
C3760 C 0.12004 0.66653 0.47727 0.0
C3761 C 0.11462 0.65952 0.38076 0.0
C3762 C 0.11614 0.66234 0.41379 0.0
H3763 H 0.11058 0.64659 0.57638 0.0
H3764 H 0.10577 0.6434 0.52182 0.0
H3765 H 0.14452 0.68469 0.4659 0.0
H3766 H 0.11948 0.67933 0.31414 0.0
H3767 H 0.11962 0.68343 0.36915 0.0
C3768 C 0.34351 0.45189 0.32859 0.0
C3769 C 0.33822 0.46128 0.31361 0.0
C3770 C 0.34218 0.4501 0.36013 0.0
C3771 C 0.33777 0.47019 0.42792 0.0
H3772 H 0.32599 0.43019 0.46902 0.0
C3773 C 0.31932 0.46088 0.55233 0.0
C3774 C 0.32669 0.4548 0.57146 0.0
C3775 C 0.32075 0.46055 0.52098 0.0
C3776 C 0.32943 0.44147 0.4578 0.0
H3777 H 0.3265 0.47529 0.3196 0.0
H3778 H 0.3239 0.47198 0.37418 0.0
H3779 H 0.32834 0.43164 0.4137 0.0
H3780 H 0.34084 0.44297 0.57233 0.0
H3781 H 0.34314 0.4422 0.51722 0.0
H3782 H 0.33859 0.47996 0.47175 0.0
C3783 C 0.32959 0.46644 0.36191 0.0
C3784 C 0.3308 0.44231 0.42617 0.0
C3785 C 0.33105 0.46832 0.33058 0.0
C3786 C 0.33497 0.44772 0.55831 0.0
C3787 C 0.33631 0.44728 0.52677 0.0
C3788 C 0.33628 0.46931 0.45934 0.0
C3789 C 0.33543 0.45759 0.3772 0.0
C3790 C 0.33475 0.45665 0.41084 0.0
C3791 C 0.32948 0.45401 0.50786 0.0
C3792 C 0.33188 0.4549 0.4746 0.0
H3793 H 0.34914 0.44638 0.31603 0.0
H3794 H 0.34685 0.44325 0.37119 0.0
H3795 H 0.34128 0.48155 0.417 0.0
H3796 H 0.31248 0.46601 0.56151 0.0
H3797 H 0.31506 0.4655 0.50694 0.0
C3798 C 0.12575 0.47556 0.83712 0.0
C3799 C 0.12327 0.46333 0.81669 0.0
C3800 C 0.12483 0.47292 0.86836 0.0
C3801 C 0.12897 0.44777 0.9262 0.0
H3802 H 0.10978 0.46577 0.97886 0.0
C3803 C 0.14282 0.45779 0.054 0.0
C3804 C 0.13029 0.45468 0.07417 0.0
C3805 C 0.14039 0.45702 0.02271 0.0
C3806 C 0.11504 0.46051 0.96449 0.0
H3807 H 0.11773 0.43864 0.81324 0.0
H3808 H 0.11615 0.43399 0.86797 0.0
H3809 H 0.10801 0.46765 0.92399 0.0
H3810 H 0.10528 0.44815 0.07711 0.0
H3811 H 0.101 0.44682 0.02225 0.0
H3812 H 0.13615 0.44079 0.9667 0.0
C3813 C 0.11886 0.44567 0.85969 0.0
C3814 C 0.11416 0.46173 0.93303 0.0
C3815 C 0.11964 0.44828 0.82833 0.0
C3816 C 0.11516 0.45054 0.06221 0.0
C3817 C 0.11275 0.44991 0.03079 0.0
C3818 C 0.12994 0.44666 0.95766 0.0
C3819 C 0.12149 0.45799 0.88009 0.0
C3820 C 0.12131 0.45557 0.91349 0.0
C3821 C 0.12537 0.4532 0.01065 0.0
C3822 C 0.12318 0.45321 0.97722 0.0
H3823 H 0.12834 0.48721 0.82897 0.0
H3824 H 0.12709 0.48272 0.88337 0.0
H3825 H 0.1347 0.44298 0.91186 0.0
H3826 H 0.15455 0.4608 0.06241 0.0
H3827 H 0.15042 0.45979 0.00792 0.0
C3828 C 0.55775 0.67244 0.82846 0.0
C3829 C 0.54612 0.65699 0.81904 0.0
C3830 C 0.56098 0.67589 0.85926 0.0
C3831 C 0.55973 0.65922 0.93334 0.0
H3832 H 0.55015 0.69107 0.96472 0.0
C3833 C 0.55309 0.66613 0.06151 0.0
C3834 C 0.55648 0.68112 0.07275 0.0
C3835 C 0.55367 0.66381 0.0304 0.0
C3836 C 0.55329 0.68242 0.95646 0.0
H3837 H 0.52926 0.6329 0.83396 0.0
H3838 H 0.53528 0.63881 0.88799 0.0
H3839 H 0.5486 0.68604 0.91055 0.0
H3840 H 0.56393 0.70564 0.0609 0.0
H3841 H 0.56589 0.70199 0.00677 0.0
H3842 H 0.56485 0.6558 0.97891 0.0
C3843 C 0.54172 0.64825 0.87154 0.0
C3844 C 0.55227 0.67949 0.92536 0.0
C3845 C 0.53823 0.6449 0.8408 0.0
C3846 C 0.56107 0.69392 0.05257 0.0
C3847 C 0.56205 0.69174 0.02156 0.0
C3848 C 0.56112 0.6624 0.96443 0.0
C3849 C 0.5529 0.66384 0.88102 0.0
C3850 C 0.55527 0.66773 0.91362 0.0
C3851 C 0.55802 0.67656 0.00989 0.0
C3852 C 0.55767 0.67388 0.97653 0.0
H3853 H 0.56386 0.68197 0.81206 0.0
H3854 H 0.56963 0.688 0.86614 0.0
H3855 H 0.56217 0.65013 0.92467 0.0
H3856 H 0.54936 0.65606 0.07672 0.0
H3857 H 0.55018 0.65187 0.02247 0.0
C3858 C 0.35098 0.87899 0.83609 0.0
C3859 C 0.34349 0.88463 0.81617 0.0
C3860 C 0.3485 0.87862 0.86723 0.0
C3861 C 0.33744 0.89541 0.93003 0.0
H3862 H 0.323 0.85388 0.96711 0.0
C3863 C 0.32037 0.88256 0.05774 0.0
C3864 C 0.32424 0.87196 0.07228 0.0
C3865 C 0.3224 0.88497 0.02637 0.0
C3866 C 0.32725 0.86564 0.95731 0.0
H3867 H 0.32809 0.8951 0.81406 0.0
H3868 H 0.32414 0.89481 0.86881 0.0
H3869 H 0.32765 0.85706 0.91284 0.0
H3870 H 0.33412 0.85634 0.06588 0.0
H3871 H 0.33815 0.86084 0.01174 0.0
H3872 H 0.33757 0.90413 0.97473 0.0
C3873 C 0.33179 0.89052 0.8599 0.0
C3874 C 0.32981 0.86741 0.92615 0.0
C3875 C 0.3341 0.8907 0.82854 0.0
C3876 C 0.33068 0.86427 0.05514 0.0
C3877 C 0.33292 0.86682 0.02404 0.0
C3878 C 0.33509 0.8937 0.96145 0.0
C3879 C 0.33868 0.88411 0.87941 0.0
C3880 C 0.33512 0.88233 0.91225 0.0
C3881 C 0.32853 0.87696 0.00907 0.0
C3882 C 0.33019 0.87882 0.97553 0.0
H3883 H 0.35867 0.87466 0.82771 0.0
H3884 H 0.35418 0.87388 0.88187 0.0
H3885 H 0.34156 0.90705 0.91978 0.0
H3886 H 0.31535 0.8886 0.0705 0.0
H3887 H 0.31881 0.89278 0.01564 0.0
loop_
_geom_bond_atom_site_label_1
_geom_bond_atom_site_label_2
_geom_bond_distance
_geom_bond_site_symmetry_2
_ccdc_geom_bond_type
Co0 N4 2.148 . S
Co0 N10 2.128 1_554 S
Co0 N20 2.194 . S
Co0 O25 2.351 . S
Co0 O26 2.155 . S
Co0 O27 2.096 1_554 S
C1 N4 1.301 . S
C1 N5 1.328 . S
C1 H6 0.930 . S
C2 C3 1.333 . S
C2 N4 1.317 . S
C2 H7 0.930 . S
C3 C2 1.333 . S
C3 N5 1.350 . S
C3 H29 0.931 . S
N4 Co0 2.148 . S
N4 C1 1.301 . S
N4 C2 1.317 . S
N5 C1 1.328 . S
N5 C3 1.350 . S
H6 C1 0.930 . S
H7 C2 0.930 . S
C8 O9 1.224 . S
C8 O27 1.247 . S
O9 C8 1.224 . S
N10 Co0 2.128 1_556 S
N10 C11 1.355 . S
N10 C13 1.311 . S
C11 N10 1.355 . S
C11 C12 1.363 . S
C11 H23 0.929 . S
C12 C11 1.363 . S
C12 N14 1.375 . S
C12 H30 0.931 . S
C13 N10 1.311 . S
C13 N14 1.347 . S
C13 H24 0.929 . S
N14 C12 1.375 . S
N14 C13 1.347 . S
C15 C18 1.365 . S
C15 N20 1.328 . S
C15 H21 0.929 . S
C16 C17 1.362 . S
C16 C19 1.378 . S
C16 H31 0.929 . S
C17 C16 1.362 . S
C17 C18 1.366 . S
C18 C15 1.365 . S
C18 C17 1.366 . S
C18 H32 0.930 . S
C19 C16 1.378 . S
C19 N20 1.315 . S
C19 H22 0.930 . S
N20 Co0 2.194 . S
N20 C15 1.328 . S
N20 C19 1.315 . S
H21 C15 0.929 . S
H22 C19 0.930 . S
H23 C11 0.929 . S
H24 C13 0.929 . S
O25 Co0 2.351 . S
O25 C28 1.244 . S
O26 Co0 2.155 . S
O26 C28 1.240 . S
O27 Co0 2.096 1_556 S
O27 C8 1.247 . S
C28 O25 1.244 . S
C28 O26 1.240 . S
H29 C3 0.931 . S
H30 C12 0.931 . S
H31 C16 0.929 . S
H32 C18 0.930 . S
Co33 N37 2.148 . S
Co33 N43 2.128 1_554 S
Co33 N53 2.194 . S
Co33 O58 2.351 1_545 S
Co33 O59 2.155 1_545 S
Co33 O60 2.096 1_554 S
C34 N37 1.301 . S
C34 N38 1.328 . S
C34 H39 0.930 . S
C35 C36 1.333 . S
C35 N37 1.317 . S
C35 H40 0.930 . S
C36 C35 1.333 . S
C36 N38 1.350 . S
C36 H62 0.931 . S
N37 Co33 2.148 . S
N37 C34 1.301 . S
N37 C35 1.317 . S
N38 C34 1.328 . S
N38 C36 1.350 . S
H39 C34 0.930 . S
H40 C35 0.930 . S
C41 O42 1.224 . S
C41 O60 1.247 . S
O42 C41 1.224 . S
N43 Co33 2.128 1_556 S
N43 C44 1.355 . S
N43 C46 1.311 . S
C44 N43 1.355 . S
C44 C45 1.363 . S
C44 H56 0.929 . S
C45 C44 1.363 . S
C45 N47 1.375 . S
C45 H63 0.931 . S
C46 N43 1.311 . S
C46 N47 1.347 . S
C46 H57 0.929 . S
N47 C45 1.375 . S
N47 C46 1.347 . S
C48 C51 1.365 . S
C48 N53 1.328 . S
C48 H54 0.929 . S
C49 C50 1.362 . S
C49 C52 1.378 . S
C49 H64 0.929 . S
C50 C49 1.362 . S
C50 C51 1.366 . S
C51 C48 1.365 . S
C51 C50 1.366 . S
C51 H65 0.930 . S
C52 C49 1.378 . S
C52 N53 1.315 . S
C52 H55 0.930 . S
N53 Co33 2.194 . S
N53 C48 1.328 . S
N53 C52 1.315 . S
H54 C48 0.929 . S
H55 C52 0.930 . S
H56 C44 0.929 . S
H57 C46 0.929 . S
O58 Co33 2.351 1_565 S
O58 C61 1.244 . S
O59 Co33 2.155 1_565 S
O59 C61 1.240 . S
O60 Co33 2.096 1_556 S
O60 C41 1.247 . S
C61 O58 1.244 . S
C61 O59 1.240 . S
H62 C36 0.931 . S
H63 C45 0.931 . S
H64 C49 0.929 . S
H65 C51 0.930 . S
Co66 N70 2.148 . S
Co66 N76 2.128 1_554 S
Co66 N86 2.194 . S
Co66 O91 2.351 1_655 S
Co66 O92 2.155 1_655 S
Co66 O93 2.096 1_554 S
C67 N70 1.301 . S
C67 N71 1.328 . S
C67 H72 0.930 . S
C68 C69 1.333 . S
C68 N70 1.317 . S
C68 H73 0.930 . S
C69 C68 1.333 . S
C69 N71 1.350 . S
C69 H95 0.931 . S
N70 Co66 2.148 . S
N70 C67 1.301 . S
N70 C68 1.317 . S
N71 C67 1.328 . S
N71 C69 1.350 . S
H72 C67 0.930 . S
H73 C68 0.930 . S
C74 O75 1.224 . S
C74 O93 1.247 . S
O75 C74 1.224 . S
N76 Co66 2.128 1_556 S
N76 C77 1.355 . S
N76 C79 1.311 . S
C77 N76 1.355 . S
C77 C78 1.363 . S
C77 H89 0.929 . S
C78 C77 1.363 . S
C78 N80 1.375 . S
C78 H96 0.931 . S
C79 N76 1.311 . S
C79 N80 1.347 . S
C79 H90 0.929 . S
N80 C78 1.375 . S
N80 C79 1.347 . S
C81 C84 1.365 . S
C81 N86 1.328 . S
C81 H87 0.929 . S
C82 C83 1.362 . S
C82 C85 1.378 . S
C82 H97 0.929 . S
C83 C82 1.362 . S
C83 C84 1.366 . S
C84 C81 1.365 . S
C84 C83 1.366 . S
C84 H98 0.930 . S
C85 C82 1.378 . S
C85 N86 1.315 . S
C85 H88 0.930 . S
N86 Co66 2.194 . S
N86 C81 1.328 . S
N86 C85 1.315 . S
H87 C81 0.929 . S
H88 C85 0.930 . S
H89 C77 0.929 . S
H90 C79 0.929 . S
O91 Co66 2.351 1_455 S
O91 C94 1.244 . S
O92 Co66 2.155 1_455 S
O92 C94 1.240 . S
O93 Co66 2.096 1_556 S
O93 C74 1.247 . S
C94 O91 1.244 . S
C94 O92 1.240 . S
H95 C69 0.931 . S
H96 C78 0.931 . S
H97 C82 0.929 . S
H98 C84 0.930 . S
Co99 N103 2.148 . S
Co99 N109 2.128 . S
Co99 N119 2.194 . S
Co99 O124 2.351 . S
Co99 O125 2.155 . S
Co99 O126 2.096 . S
C100 N103 1.301 . S
C100 N104 1.328 . S
C100 H105 0.930 . S
C101 C102 1.333 . S
C101 N103 1.317 . S
C101 H106 0.930 . S
C102 C101 1.333 . S
C102 N104 1.350 . S
C102 H128 0.931 . S
N103 Co99 2.148 . S
N103 C100 1.301 . S
N103 C101 1.317 . S
N104 C100 1.328 . S
N104 C102 1.350 . S
H105 C100 0.930 . S
H106 C101 0.930 . S
C107 O108 1.224 . S
C107 O126 1.247 . S
O108 C107 1.224 . S
N109 Co99 2.128 . S
N109 C110 1.355 . S
N109 C112 1.311 . S
C110 N109 1.355 . S
C110 C111 1.363 . S
C110 H122 0.929 . S
C111 C110 1.363 . S
C111 N113 1.375 . S
C111 H129 0.931 . S
C112 N109 1.311 . S
C112 N113 1.347 . S
C112 H123 0.929 . S
N113 C111 1.375 . S
N113 C112 1.347 . S
C114 C117 1.365 . S
C114 N119 1.328 . S
C114 H120 0.929 . S
C115 C116 1.362 . S
C115 C118 1.378 . S
C115 H130 0.929 . S
C116 C115 1.362 . S
C116 C117 1.366 . S
C117 C114 1.365 . S
C117 C116 1.366 . S
C117 H131 0.930 . S
C118 C115 1.378 . S
C118 N119 1.315 . S
C118 H121 0.930 . S
N119 Co99 2.194 . S
N119 C114 1.328 . S
N119 C118 1.315 . S
H120 C114 0.929 . S
H121 C118 0.930 . S
H122 C110 0.929 . S
H123 C112 0.929 . S
O124 Co99 2.351 . S
O124 C127 1.244 . S
O125 Co99 2.155 . S
O125 C127 1.240 . S
O126 Co99 2.096 . S
O126 C107 1.247 . S
C127 O124 1.244 . S
C127 O125 1.240 . S
H128 C102 0.931 . S
H129 C111 0.931 . S
H130 C115 0.929 . S
H131 C117 0.930 . S
Co132 N136 2.148 . S
Co132 N142 2.128 . S
Co132 N152 2.194 . S
Co132 O157 2.351 1_565 S
Co132 O158 2.155 1_565 S
Co132 O159 2.096 . S
C133 N136 1.301 . S
C133 N137 1.328 . S
C133 H138 0.930 . S
C134 C135 1.333 . S
C134 N136 1.317 . S
C134 H139 0.930 . S
C135 C134 1.333 . S
C135 N137 1.350 . S
C135 H161 0.931 . S
N136 Co132 2.148 . S
N136 C133 1.301 . S
N136 C134 1.317 . S
N137 C133 1.328 . S
N137 C135 1.350 . S
H138 C133 0.930 . S
H139 C134 0.930 . S
C140 O141 1.224 . S
C140 O159 1.247 . S
O141 C140 1.224 . S
N142 Co132 2.128 . S
N142 C143 1.355 . S
N142 C145 1.311 . S
C143 N142 1.355 . S
C143 C144 1.363 . S
C143 H155 0.929 . S
C144 C143 1.363 . S
C144 N146 1.375 . S
C144 H162 0.931 . S
C145 N142 1.311 . S
C145 N146 1.347 . S
C145 H156 0.929 . S
N146 C144 1.375 . S
N146 C145 1.347 . S
C147 C150 1.365 . S
C147 N152 1.328 . S
C147 H153 0.929 . S
C148 C149 1.362 . S
C148 C151 1.378 . S
C148 H163 0.929 . S
C149 C148 1.362 . S
C149 C150 1.366 . S
C150 C147 1.365 . S
C150 C149 1.366 . S
C150 H164 0.930 . S
C151 C148 1.378 . S
C151 N152 1.315 . S
C151 H154 0.930 . S
N152 Co132 2.194 . S
N152 C147 1.328 . S
N152 C151 1.315 . S
H153 C147 0.929 . S
H154 C151 0.930 . S
H155 C143 0.929 . S
H156 C145 0.929 . S
O157 Co132 2.351 1_545 S
O157 C160 1.244 . S
O158 Co132 2.155 1_545 S
O158 C160 1.240 . S
O159 Co132 2.096 . S
O159 C140 1.247 . S
C160 O157 1.244 . S
C160 O158 1.240 . S
H161 C135 0.931 . S
H162 C144 0.931 . S
H163 C148 0.929 . S
H164 C150 0.930 . S
Co165 N169 2.148 . S
Co165 N175 2.128 . S
Co165 N185 2.194 . S
Co165 O190 2.351 1_455 S
Co165 O191 2.155 1_455 S
Co165 O192 2.096 . S
C166 N169 1.301 . S
C166 N170 1.328 . S
C166 H171 0.930 . S
C167 C168 1.333 . S
C167 N169 1.317 . S
C167 H172 0.930 . S
C168 C167 1.333 . S
C168 N170 1.350 . S
C168 H194 0.931 . S
N169 Co165 2.148 . S
N169 C166 1.301 . S
N169 C167 1.317 . S
N170 C166 1.328 . S
N170 C168 1.350 . S
H171 C166 0.930 . S
H172 C167 0.930 . S
C173 O174 1.224 . S
C173 O192 1.247 . S
O174 C173 1.224 . S
N175 Co165 2.128 . S
N175 C176 1.355 . S
N175 C178 1.311 . S
C176 N175 1.355 . S
C176 C177 1.363 . S
C176 H188 0.929 . S
C177 C176 1.363 . S
C177 N179 1.375 . S
C177 H195 0.931 . S
C178 N175 1.311 . S
C178 N179 1.347 . S
C178 H189 0.929 . S
N179 C177 1.375 . S
N179 C178 1.347 . S
C180 C183 1.365 . S
C180 N185 1.328 . S
C180 H186 0.929 . S
C181 C182 1.362 . S
C181 C184 1.378 . S
C181 H196 0.929 . S
C182 C181 1.362 . S
C182 C183 1.366 . S
C183 C180 1.365 . S
C183 C182 1.366 . S
C183 H197 0.930 . S
C184 C181 1.378 . S
C184 N185 1.315 . S
C184 H187 0.930 . S
N185 Co165 2.194 . S
N185 C180 1.328 . S
N185 C184 1.315 . S
H186 C180 0.929 . S
H187 C184 0.930 . S
H188 C176 0.929 . S
H189 C178 0.929 . S
O190 Co165 2.351 1_655 S
O190 C193 1.244 . S
O191 Co165 2.155 1_655 S
O191 C193 1.240 . S
O192 Co165 2.096 . S
O192 C173 1.247 . S
C193 O190 1.244 . S
C193 O191 1.240 . S
H194 C168 0.931 . S
H195 C177 0.931 . S
H196 C181 0.929 . S
H197 C183 0.930 . S
Co198 N202 2.148 1_554 S
Co198 N208 2.128 . S
Co198 N218 2.194 . S
Co198 O223 2.351 . S
Co198 O224 2.155 . S
Co198 O225 2.096 . S
C199 N202 1.301 . S
C199 N203 1.328 . S
C199 H204 0.930 . S
C200 C201 1.333 . S
C200 N202 1.317 . S
C200 H205 0.930 . S
C201 C200 1.333 . S
C201 N203 1.350 . S
C201 H227 0.931 . S
N202 Co198 2.148 1_556 S
N202 C199 1.301 . S
N202 C200 1.317 . S
N203 C199 1.328 . S
N203 C201 1.350 . S
H204 C199 0.930 . S
H205 C200 0.930 . S
C206 O207 1.224 . S
C206 O225 1.247 . S
O207 C206 1.224 . S
N208 Co198 2.128 . S
N208 C209 1.355 . S
N208 C211 1.311 . S
C209 N208 1.355 . S
C209 C210 1.363 . S
C209 H221 0.929 . S
C210 C209 1.363 . S
C210 N212 1.375 . S
C210 H228 0.931 . S
C211 N208 1.311 . S
C211 N212 1.347 . S
C211 H222 0.929 . S
N212 C210 1.375 . S
N212 C211 1.347 . S
C213 C216 1.365 . S
C213 N218 1.328 . S
C213 H219 0.929 . S
C214 C215 1.362 . S
C214 C217 1.378 . S
C214 H229 0.929 . S
C215 C214 1.362 . S
C215 C216 1.366 . S
C216 C213 1.365 . S
C216 C215 1.366 . S
C216 H230 0.930 . S
C217 C214 1.378 . S
C217 N218 1.315 . S
C217 H220 0.930 . S
N218 Co198 2.194 . S
N218 C213 1.328 . S
N218 C217 1.315 . S
H219 C213 0.929 . S
H220 C217 0.930 . S
H221 C209 0.929 . S
H222 C211 0.929 . S
O223 Co198 2.351 . S
O223 C226 1.244 . S
O224 Co198 2.155 . S
O224 C226 1.240 . S
O225 Co198 2.096 . S
O225 C206 1.247 . S
C226 O223 1.244 . S
C226 O224 1.240 . S
H227 C201 0.931 . S
H228 C210 0.931 . S
H229 C214 0.929 . S
H230 C216 0.930 . S
Co231 N235 2.148 1_554 S
Co231 N241 2.128 . S
Co231 N251 2.194 . S
Co231 O256 2.351 1_565 S
Co231 O257 2.155 1_565 S
Co231 O258 2.096 . S
C232 N235 1.301 . S
C232 N236 1.328 . S
C232 H237 0.930 . S
C233 C234 1.333 . S
C233 N235 1.317 . S
C233 H238 0.930 . S
C234 C233 1.333 . S
C234 N236 1.350 . S
C234 H260 0.931 . S
N235 Co231 2.148 1_556 S
N235 C232 1.301 . S
N235 C233 1.317 . S
N236 C232 1.328 . S
N236 C234 1.350 . S
H237 C232 0.930 . S
H238 C233 0.930 . S
C239 O240 1.224 . S
C239 O258 1.247 . S
O240 C239 1.224 . S
N241 Co231 2.128 . S
N241 C242 1.355 . S
N241 C244 1.311 . S
C242 N241 1.355 . S
C242 C243 1.363 . S
C242 H254 0.929 . S
C243 C242 1.363 . S
C243 N245 1.375 . S
C243 H261 0.931 . S
C244 N241 1.311 . S
C244 N245 1.347 . S
C244 H255 0.929 . S
N245 C243 1.375 . S
N245 C244 1.347 . S
C246 C249 1.365 . S
C246 N251 1.328 . S
C246 H252 0.929 . S
C247 C248 1.362 . S
C247 C250 1.378 . S
C247 H262 0.929 . S
C248 C247 1.362 . S
C248 C249 1.366 . S
C249 C246 1.365 . S
C249 C248 1.366 . S
C249 H263 0.930 . S
C250 C247 1.378 . S
C250 N251 1.315 . S
C250 H253 0.930 . S
N251 Co231 2.194 . S
N251 C246 1.328 . S
N251 C250 1.315 . S
H252 C246 0.929 . S
H253 C250 0.930 . S
H254 C242 0.929 . S
H255 C244 0.929 . S
O256 Co231 2.351 1_545 S
O256 C259 1.244 . S
O257 Co231 2.155 1_545 S
O257 C259 1.240 . S
O258 Co231 2.096 . S
O258 C239 1.247 . S
C259 O256 1.244 . S
C259 O257 1.240 . S
H260 C234 0.931 . S
H261 C243 0.931 . S
H262 C247 0.929 . S
H263 C249 0.930 . S
Co264 N268 2.148 1_554 S
Co264 N274 2.128 . S
Co264 N284 2.194 . S
Co264 O289 2.351 1_455 S
Co264 O290 2.155 1_455 S
Co264 O291 2.096 . S
C265 N268 1.301 . S
C265 N269 1.328 . S
C265 H270 0.930 . S
C266 C267 1.333 . S
C266 N268 1.317 . S
C266 H271 0.930 . S
C267 C266 1.333 . S
C267 N269 1.350 . S
C267 H293 0.931 . S
N268 Co264 2.148 1_556 S
N268 C265 1.301 . S
N268 C266 1.317 . S
N269 C265 1.328 . S
N269 C267 1.350 . S
H270 C265 0.930 . S
H271 C266 0.930 . S
C272 O273 1.224 . S
C272 O291 1.247 . S
O273 C272 1.224 . S
N274 Co264 2.128 . S
N274 C275 1.355 . S
N274 C277 1.311 . S
C275 N274 1.355 . S
C275 C276 1.363 . S
C275 H287 0.929 . S
C276 C275 1.363 . S
C276 N278 1.375 . S
C276 H294 0.931 . S
C277 N274 1.311 . S
C277 N278 1.347 . S
C277 H288 0.929 . S
N278 C276 1.375 . S
N278 C277 1.347 . S
C279 C282 1.365 . S
C279 N284 1.328 . S
C279 H285 0.929 . S
C280 C281 1.362 . S
C280 C283 1.378 . S
C280 H295 0.929 . S
C281 C280 1.362 . S
C281 C282 1.366 . S
C282 C279 1.365 . S
C282 C281 1.366 . S
C282 H296 0.930 . S
C283 C280 1.378 . S
C283 N284 1.315 . S
C283 H286 0.930 . S
N284 Co264 2.194 . S
N284 C279 1.328 . S
N284 C283 1.315 . S
H285 C279 0.929 . S
H286 C283 0.930 . S
H287 C275 0.929 . S
H288 C277 0.929 . S
O289 Co264 2.351 1_655 S
O289 C292 1.244 . S
O290 Co264 2.155 1_655 S
O290 C292 1.240 . S
O291 Co264 2.096 . S
O291 C272 1.247 . S
C292 O289 1.244 . S
C292 O290 1.240 . S
H293 C267 0.931 . S
H294 C276 0.931 . S
H295 C280 0.929 . S
H296 C282 0.930 . S
Co297 N301 2.148 . S
Co297 N307 2.128 . S
Co297 N317 2.194 . S
Co297 O322 2.351 . S
Co297 O323 2.155 . S
Co297 O324 2.096 . S
C298 N301 1.301 . S
C298 N302 1.328 . S
C298 H303 0.930 . S
C299 C300 1.333 . S
C299 N301 1.317 . S
C299 H304 0.930 . S
C300 C299 1.333 . S
C300 N302 1.350 . S
C300 H326 0.931 . S
N301 Co297 2.148 . S
N301 C298 1.301 . S
N301 C299 1.317 . S
N302 C298 1.328 . S
N302 C300 1.350 . S
H303 C298 0.930 . S
H304 C299 0.930 . S
C305 O306 1.224 . S
C305 O324 1.247 . S
O306 C305 1.224 . S
N307 Co297 2.128 . S
N307 C308 1.355 . S
N307 C310 1.311 . S
C308 N307 1.355 . S
C308 C309 1.363 . S
C308 H320 0.929 . S
C309 C308 1.363 . S
C309 N311 1.375 . S
C309 H327 0.931 . S
C310 N307 1.311 . S
C310 N311 1.347 . S
C310 H321 0.929 . S
N311 C309 1.375 . S
N311 C310 1.347 . S
C312 C315 1.365 . S
C312 N317 1.328 . S
C312 H318 0.929 . S
C313 C314 1.362 . S
C313 C316 1.378 . S
C313 H328 0.929 . S
C314 C313 1.362 . S
C314 C315 1.366 . S
C315 C312 1.365 . S
C315 C314 1.366 . S
C315 H329 0.930 . S
C316 C313 1.378 . S
C316 N317 1.315 . S
C316 H319 0.930 . S
N317 Co297 2.194 . S
N317 C312 1.328 . S
N317 C316 1.315 . S
H318 C312 0.929 . S
H319 C316 0.930 . S
H320 C308 0.929 . S
H321 C310 0.929 . S
O322 Co297 2.351 . S
O322 C325 1.244 . S
O323 Co297 2.155 . S
O323 C325 1.240 . S
O324 Co297 2.096 . S
O324 C305 1.247 . S
C325 O322 1.244 . S
C325 O323 1.240 . S
H326 C300 0.931 . S
H327 C309 0.931 . S
H328 C313 0.929 . S
H329 C315 0.930 . S
Co330 N334 2.148 . S
Co330 N340 2.128 . S
Co330 N350 2.194 . S
Co330 O355 2.351 1_545 S
Co330 O356 2.155 1_545 S
Co330 O357 2.096 . S
C331 N334 1.301 . S
C331 N335 1.328 . S
C331 H336 0.930 . S
C332 C333 1.333 . S
C332 N334 1.317 . S
C332 H337 0.930 . S
C333 C332 1.333 . S
C333 N335 1.350 . S
C333 H359 0.931 . S
N334 Co330 2.148 . S
N334 C331 1.301 . S
N334 C332 1.317 . S
N335 C331 1.328 . S
N335 C333 1.350 . S
H336 C331 0.930 . S
H337 C332 0.930 . S
C338 O339 1.224 . S
C338 O357 1.247 . S
O339 C338 1.224 . S
N340 Co330 2.128 . S
N340 C341 1.355 . S
N340 C343 1.311 . S
C341 N340 1.355 . S
C341 C342 1.363 . S
C341 H353 0.929 . S
C342 C341 1.363 . S
C342 N344 1.375 . S
C342 H360 0.931 . S
C343 N340 1.311 . S
C343 N344 1.347 . S
C343 H354 0.929 . S
N344 C342 1.375 . S
N344 C343 1.347 . S
C345 C348 1.365 . S
C345 N350 1.328 . S
C345 H351 0.929 . S
C346 C347 1.362 . S
C346 C349 1.378 . S
C346 H361 0.929 . S
C347 C346 1.362 . S
C347 C348 1.366 . S
C348 C345 1.365 . S
C348 C347 1.366 . S
C348 H362 0.930 . S
C349 C346 1.378 . S
C349 N350 1.315 . S
C349 H352 0.930 . S
N350 Co330 2.194 . S
N350 C345 1.328 . S
N350 C349 1.315 . S
H351 C345 0.929 . S
H352 C349 0.930 . S
H353 C341 0.929 . S
H354 C343 0.929 . S
O355 Co330 2.351 1_565 S
O355 C358 1.244 . S
O356 Co330 2.155 1_565 S
O356 C358 1.240 . S
O357 Co330 2.096 . S
O357 C338 1.247 . S
C358 O355 1.244 . S
C358 O356 1.240 . S
H359 C333 0.931 . S
H360 C342 0.931 . S
H361 C346 0.929 . S
H362 C348 0.930 . S
Co363 N367 2.148 . S
Co363 N373 2.128 . S
Co363 N383 2.194 . S
Co363 O388 2.351 1_655 S
Co363 O389 2.155 1_655 S
Co363 O390 2.096 . S
C364 N367 1.301 . S
C364 N368 1.328 . S
C364 H369 0.930 . S
C365 C366 1.333 . S
C365 N367 1.317 . S
C365 H370 0.930 . S
C366 C365 1.333 . S
C366 N368 1.350 . S
C366 H392 0.931 . S
N367 Co363 2.148 . S
N367 C364 1.301 . S
N367 C365 1.317 . S
N368 C364 1.328 . S
N368 C366 1.350 . S
H369 C364 0.930 . S
H370 C365 0.930 . S
C371 O372 1.224 . S
C371 O390 1.247 . S
O372 C371 1.224 . S
N373 Co363 2.128 . S
N373 C374 1.355 . S
N373 C376 1.311 . S
C374 N373 1.355 . S
C374 C375 1.363 . S
C374 H386 0.929 . S
C375 C374 1.363 . S
C375 N377 1.375 . S
C375 H393 0.931 . S
C376 N373 1.311 . S
C376 N377 1.347 . S
C376 H387 0.929 . S
N377 C375 1.375 . S
N377 C376 1.347 . S
C378 C381 1.365 . S
C378 N383 1.328 . S
C378 H384 0.929 . S
C379 C380 1.362 . S
C379 C382 1.378 . S
C379 H394 0.929 . S
C380 C379 1.362 . S
C380 C381 1.366 . S
C381 C378 1.365 . S
C381 C380 1.366 . S
C381 H395 0.930 . S
C382 C379 1.378 . S
C382 N383 1.315 . S
C382 H385 0.930 . S
N383 Co363 2.194 . S
N383 C378 1.328 . S
N383 C382 1.315 . S
H384 C378 0.929 . S
H385 C382 0.930 . S
H386 C374 0.929 . S
H387 C376 0.929 . S
O388 Co363 2.351 1_455 S
O388 C391 1.244 . S
O389 Co363 2.155 1_455 S
O389 C391 1.240 . S
O390 Co363 2.096 . S
O390 C371 1.247 . S
C391 O388 1.244 . S
C391 O389 1.240 . S
H392 C366 0.931 . S
H393 C375 0.931 . S
H394 C379 0.929 . S
H395 C381 0.930 . S
Co396 N400 2.148 . S
Co396 N406 2.128 . S
Co396 N416 2.194 . S
Co396 O421 2.351 . S
Co396 O422 2.155 . S
Co396 O423 2.096 . S
C397 N400 1.301 . S
C397 N401 1.328 . S
C397 H402 0.930 . S
C398 C399 1.333 . S
C398 N400 1.317 . S
C398 H403 0.930 . S
C399 C398 1.333 . S
C399 N401 1.350 . S
C399 H425 0.931 . S
N400 Co396 2.148 . S
N400 C397 1.301 . S
N400 C398 1.317 . S
N401 C397 1.328 . S
N401 C399 1.350 . S
H402 C397 0.930 . S
H403 C398 0.930 . S
C404 O405 1.224 . S
C404 O423 1.247 . S
O405 C404 1.224 . S
N406 Co396 2.128 . S
N406 C407 1.355 . S
N406 C409 1.311 . S
C407 N406 1.355 . S
C407 C408 1.363 . S
C407 H419 0.929 . S
C408 C407 1.363 . S
C408 N410 1.375 . S
C408 H426 0.931 . S
C409 N406 1.311 . S
C409 N410 1.347 . S
C409 H420 0.929 . S
N410 C408 1.375 . S
N410 C409 1.347 . S
C411 C414 1.365 . S
C411 N416 1.328 . S
C411 H417 0.929 . S
C412 C413 1.362 . S
C412 C415 1.378 . S
C412 H427 0.929 . S
C413 C412 1.362 . S
C413 C414 1.366 . S
C414 C411 1.365 . S
C414 C413 1.366 . S
C414 H428 0.930 . S
C415 C412 1.378 . S
C415 N416 1.315 . S
C415 H418 0.930 . S
N416 Co396 2.194 . S
N416 C411 1.328 . S
N416 C415 1.315 . S
H417 C411 0.929 . S
H418 C415 0.930 . S
H419 C407 0.929 . S
H420 C409 0.929 . S
O421 Co396 2.351 . S
O421 C424 1.244 . S
O422 Co396 2.155 . S
O422 C424 1.240 . S
O423 Co396 2.096 . S
O423 C404 1.247 . S
C424 O421 1.244 . S
C424 O422 1.240 . S
H425 C399 0.931 . S
H426 C408 0.931 . S
H427 C412 0.929 . S
H428 C414 0.930 . S
Co429 N433 2.148 . S
Co429 N439 2.128 . S
Co429 N449 2.194 . S
Co429 O454 2.351 . S
Co429 O455 2.155 . S
Co429 O456 2.096 . S
C430 N433 1.301 . S
C430 N434 1.328 . S
C430 H435 0.930 . S
C431 C432 1.333 . S
C431 N433 1.317 . S
C431 H436 0.930 . S
C432 C431 1.333 . S
C432 N434 1.350 . S
C432 H458 0.931 . S
N433 Co429 2.148 . S
N433 C430 1.301 . S
N433 C431 1.317 . S
N434 C430 1.328 . S
N434 C432 1.350 . S
H435 C430 0.930 . S
H436 C431 0.930 . S
C437 O438 1.224 . S
C437 O456 1.247 . S
O438 C437 1.224 . S
N439 Co429 2.128 . S
N439 C440 1.355 . S
N439 C442 1.311 . S
C440 N439 1.355 . S
C440 C441 1.363 . S
C440 H452 0.929 . S
C441 C440 1.363 . S
C441 N443 1.375 . S
C441 H459 0.931 . S
C442 N439 1.311 . S
C442 N443 1.347 . S
C442 H453 0.929 . S
N443 C441 1.375 . S
N443 C442 1.347 . S
C444 C447 1.365 . S
C444 N449 1.328 . S
C444 H450 0.929 . S
C445 C446 1.362 . S
C445 C448 1.378 . S
C445 H460 0.929 . S
C446 C445 1.362 . S
C446 C447 1.366 . S
C447 C444 1.365 . S
C447 C446 1.366 . S
C447 H461 0.930 . S
C448 C445 1.378 . S
C448 N449 1.315 . S
C448 H451 0.930 . S
N449 Co429 2.194 . S
N449 C444 1.328 . S
N449 C448 1.315 . S
H450 C444 0.929 . S
H451 C448 0.930 . S
H452 C440 0.929 . S
H453 C442 0.929 . S
O454 Co429 2.351 . S
O454 C457 1.244 . S
O455 Co429 2.155 . S
O455 C457 1.240 . S
O456 Co429 2.096 . S
O456 C437 1.247 . S
C457 O454 1.244 . S
C457 O455 1.240 . S
H458 C432 0.931 . S
H459 C441 0.931 . S
H460 C445 0.929 . S
H461 C447 0.930 . S
Co462 N466 2.148 . S
Co462 N472 2.128 . S
Co462 N482 2.194 . S
Co462 O487 2.351 . S
Co462 O488 2.155 . S
Co462 O489 2.096 . S
C463 N466 1.301 . S
C463 N467 1.328 . S
C463 H468 0.930 . S
C464 C465 1.333 . S
C464 N466 1.317 . S
C464 H469 0.930 . S
C465 C464 1.333 . S
C465 N467 1.350 . S
C465 H491 0.931 . S
N466 Co462 2.148 . S
N466 C463 1.301 . S
N466 C464 1.317 . S
N467 C463 1.328 . S
N467 C465 1.350 . S
H468 C463 0.930 . S
H469 C464 0.930 . S
C470 O471 1.224 . S
C470 O489 1.247 . S
O471 C470 1.224 . S
N472 Co462 2.128 . S
N472 C473 1.355 . S
N472 C475 1.311 . S
C473 N472 1.355 . S
C473 C474 1.363 . S
C473 H485 0.929 . S
C474 C473 1.363 . S
C474 N476 1.375 . S
C474 H492 0.931 . S
C475 N472 1.311 . S
C475 N476 1.347 . S
C475 H486 0.929 . S
N476 C474 1.375 . S
N476 C475 1.347 . S
C477 C480 1.365 . S
C477 N482 1.328 . S
C477 H483 0.929 . S
C478 C479 1.362 . S
C478 C481 1.378 . S
C478 H493 0.929 . S
C479 C478 1.362 . S
C479 C480 1.366 . S
C480 C477 1.365 . S
C480 C479 1.366 . S
C480 H494 0.930 . S
C481 C478 1.378 . S
C481 N482 1.315 . S
C481 H484 0.930 . S
N482 Co462 2.194 . S
N482 C477 1.328 . S
N482 C481 1.315 . S
H483 C477 0.929 . S
H484 C481 0.930 . S
H485 C473 0.929 . S
H486 C475 0.929 . S
O487 Co462 2.351 . S
O487 C490 1.244 . S
O488 Co462 2.155 . S
O488 C490 1.240 . S
O489 Co462 2.096 . S
O489 C470 1.247 . S
C490 O487 1.244 . S
C490 O488 1.240 . S
H491 C465 0.931 . S
H492 C474 0.931 . S
H493 C478 0.929 . S
H494 C480 0.930 . S
Co495 N499 2.148 . S
Co495 N505 2.128 . S
Co495 N515 2.194 . S
Co495 O520 2.351 . S
Co495 O521 2.155 . S
Co495 O522 2.096 . S
C496 N499 1.301 . S
C496 N500 1.328 . S
C496 H501 0.930 . S
C497 C498 1.333 . S
C497 N499 1.317 . S
C497 H502 0.930 . S
C498 C497 1.333 . S
C498 N500 1.350 . S
C498 H524 0.931 . S
N499 Co495 2.148 . S
N499 C496 1.301 . S
N499 C497 1.317 . S
N500 C496 1.328 . S
N500 C498 1.350 . S
H501 C496 0.930 . S
H502 C497 0.930 . S
C503 O504 1.224 . S
C503 O522 1.247 . S
O504 C503 1.224 . S
N505 Co495 2.128 . S
N505 C506 1.355 . S
N505 C508 1.311 . S
C506 N505 1.355 . S
C506 C507 1.363 . S
C506 H518 0.929 . S
C507 C506 1.363 . S
C507 N509 1.375 . S
C507 H525 0.931 . S
C508 N505 1.311 . S
C508 N509 1.347 . S
C508 H519 0.929 . S
N509 C507 1.375 . S
N509 C508 1.347 . S
C510 C513 1.365 . S
C510 N515 1.328 . S
C510 H516 0.929 . S
C511 C512 1.362 . S
C511 C514 1.378 . S
C511 H526 0.929 . S
C512 C511 1.362 . S
C512 C513 1.366 . S
C513 C510 1.365 . S
C513 C512 1.366 . S
C513 H527 0.930 . S
C514 C511 1.378 . S
C514 N515 1.315 . S
C514 H517 0.930 . S
N515 Co495 2.194 . S
N515 C510 1.328 . S
N515 C514 1.315 . S
H516 C510 0.929 . S
H517 C514 0.930 . S
H518 C506 0.929 . S
H519 C508 0.929 . S
O520 Co495 2.351 . S
O520 C523 1.244 . S
O521 Co495 2.155 . S
O521 C523 1.240 . S
O522 Co495 2.096 . S
O522 C503 1.247 . S
C523 O520 1.244 . S
C523 O521 1.240 . S
H524 C498 0.931 . S
H525 C507 0.931 . S
H526 C511 0.929 . S
H527 C513 0.930 . S
Co528 N532 2.148 . S
Co528 N538 2.128 . S
Co528 N548 2.194 . S
Co528 O553 2.351 . S
Co528 O554 2.155 . S
Co528 O555 2.096 . S
C529 N532 1.301 . S
C529 N533 1.328 . S
C529 H534 0.930 . S
C530 C531 1.333 . S
C530 N532 1.317 . S
C530 H535 0.930 . S
C531 C530 1.333 . S
C531 N533 1.350 . S
C531 H557 0.931 . S
N532 Co528 2.148 . S
N532 C529 1.301 . S
N532 C530 1.317 . S
N533 C529 1.328 . S
N533 C531 1.350 . S
H534 C529 0.930 . S
H535 C530 0.930 . S
C536 O537 1.224 . S
C536 O555 1.247 . S
O537 C536 1.224 . S
N538 Co528 2.128 . S
N538 C539 1.355 . S
N538 C541 1.311 . S
C539 N538 1.355 . S
C539 C540 1.363 . S
C539 H551 0.929 . S
C540 C539 1.363 . S
C540 N542 1.375 . S
C540 H558 0.931 . S
C541 N538 1.311 . S
C541 N542 1.347 . S
C541 H552 0.929 . S
N542 C540 1.375 . S
N542 C541 1.347 . S
C543 C546 1.365 . S
C543 N548 1.328 . S
C543 H549 0.929 . S
C544 C545 1.362 . S
C544 C547 1.378 . S
C544 H559 0.929 . S
C545 C544 1.362 . S
C545 C546 1.366 . S
C546 C543 1.365 . S
C546 C545 1.366 . S
C546 H560 0.930 . S
C547 C544 1.378 . S
C547 N548 1.315 . S
C547 H550 0.930 . S
N548 Co528 2.194 . S
N548 C543 1.328 . S
N548 C547 1.315 . S
H549 C543 0.929 . S
H550 C547 0.930 . S
H551 C539 0.929 . S
H552 C541 0.929 . S
O553 Co528 2.351 . S
O553 C556 1.244 . S
O554 Co528 2.155 . S
O554 C556 1.240 . S
O555 Co528 2.096 . S
O555 C536 1.247 . S
C556 O553 1.244 . S
C556 O554 1.240 . S
H557 C531 0.931 . S
H558 C540 0.931 . S
H559 C544 0.929 . S
H560 C546 0.930 . S
Co561 N565 2.148 . S
Co561 N571 2.128 . S
Co561 N581 2.194 . S
Co561 O586 2.351 . S
Co561 O587 2.155 . S
Co561 O588 2.096 . S
C562 N565 1.301 . S
C562 N566 1.328 . S
C562 H567 0.930 . S
C563 C564 1.333 . S
C563 N565 1.317 . S
C563 H568 0.930 . S
C564 C563 1.333 . S
C564 N566 1.350 . S
C564 H590 0.931 . S
N565 Co561 2.148 . S
N565 C562 1.301 . S
N565 C563 1.317 . S
N566 C562 1.328 . S
N566 C564 1.350 . S
H567 C562 0.930 . S
H568 C563 0.930 . S
C569 O570 1.224 . S
C569 O588 1.247 . S
O570 C569 1.224 . S
N571 Co561 2.128 . S
N571 C572 1.355 . S
N571 C574 1.311 . S
C572 N571 1.355 . S
C572 C573 1.363 . S
C572 H584 0.929 . S
C573 C572 1.363 . S
C573 N575 1.375 . S
C573 H591 0.931 . S
C574 N571 1.311 . S
C574 N575 1.347 . S
C574 H585 0.929 . S
N575 C573 1.375 . S
N575 C574 1.347 . S
C576 C579 1.365 . S
C576 N581 1.328 . S
C576 H582 0.929 . S
C577 C578 1.362 . S
C577 C580 1.378 . S
C577 H592 0.929 . S
C578 C577 1.362 . S
C578 C579 1.366 . S
C579 C576 1.365 . S
C579 C578 1.366 . S
C579 H593 0.930 . S
C580 C577 1.378 . S
C580 N581 1.315 . S
C580 H583 0.930 . S
N581 Co561 2.194 . S
N581 C576 1.328 . S
N581 C580 1.315 . S
H582 C576 0.929 . S
H583 C580 0.930 . S
H584 C572 0.929 . S
H585 C574 0.929 . S
O586 Co561 2.351 . S
O586 C589 1.244 . S
O587 Co561 2.155 . S
O587 C589 1.240 . S
O588 Co561 2.096 . S
O588 C569 1.247 . S
C589 O586 1.244 . S
C589 O587 1.240 . S
H590 C564 0.931 . S
H591 C573 0.931 . S
H592 C577 0.929 . S
H593 C579 0.930 . S
Co594 N598 2.148 . S
Co594 N604 2.128 . S
Co594 N614 2.194 . S
Co594 O619 2.351 . S
Co594 O620 2.155 . S
Co594 O621 2.096 . S
C595 N598 1.301 . S
C595 N599 1.328 . S
C595 H600 0.930 . S
C596 C597 1.333 . S
C596 N598 1.317 . S
C596 H601 0.930 . S
C597 C596 1.333 . S
C597 N599 1.350 . S
C597 H623 0.931 . S
N598 Co594 2.148 . S
N598 C595 1.301 . S
N598 C596 1.317 . S
N599 C595 1.328 . S
N599 C597 1.350 . S
H600 C595 0.930 . S
H601 C596 0.930 . S
C602 O603 1.224 . S
C602 O621 1.247 . S
O603 C602 1.224 . S
N604 Co594 2.128 . S
N604 C605 1.355 . S
N604 C607 1.311 . S
C605 N604 1.355 . S
C605 C606 1.363 . S
C605 H617 0.929 . S
C606 C605 1.363 . S
C606 N608 1.375 . S
C606 H624 0.931 . S
C607 N604 1.311 . S
C607 N608 1.347 . S
C607 H618 0.929 . S
N608 C606 1.375 . S
N608 C607 1.347 . S
C609 C612 1.365 . S
C609 N614 1.328 . S
C609 H615 0.929 . S
C610 C611 1.362 . S
C610 C613 1.378 . S
C610 H625 0.929 . S
C611 C610 1.362 . S
C611 C612 1.366 . S
C612 C609 1.365 . S
C612 C611 1.366 . S
C612 H626 0.930 . S
C613 C610 1.378 . S
C613 N614 1.315 . S
C613 H616 0.930 . S
N614 Co594 2.194 . S
N614 C609 1.328 . S
N614 C613 1.315 . S
H615 C609 0.929 . S
H616 C613 0.930 . S
H617 C605 0.929 . S
H618 C607 0.929 . S
O619 Co594 2.351 . S
O619 C622 1.244 . S
O620 Co594 2.155 . S
O620 C622 1.240 . S
O621 Co594 2.096 . S
O621 C602 1.247 . S
C622 O619 1.244 . S
C622 O620 1.240 . S
H623 C597 0.931 . S
H624 C606 0.931 . S
H625 C610 0.929 . S
H626 C612 0.930 . S
Co627 N631 2.148 . S
Co627 N637 2.128 . S
Co627 N647 2.194 . S
Co627 O652 2.351 . S
Co627 O653 2.155 . S
Co627 O654 2.096 . S
C628 N631 1.301 . S
C628 N632 1.328 . S
C628 H633 0.930 . S
C629 C630 1.333 . S
C629 N631 1.317 . S
C629 H634 0.930 . S
C630 C629 1.333 . S
C630 N632 1.350 . S
C630 H656 0.931 . S
N631 Co627 2.148 . S
N631 C628 1.301 . S
N631 C629 1.317 . S
N632 C628 1.328 . S
N632 C630 1.350 . S
H633 C628 0.930 . S
H634 C629 0.930 . S
C635 O636 1.224 . S
C635 O654 1.247 . S
O636 C635 1.224 . S
N637 Co627 2.128 . S
N637 C638 1.355 . S
N637 C640 1.311 . S
C638 N637 1.355 . S
C638 C639 1.363 . S
C638 H650 0.929 . S
C639 C638 1.363 . S
C639 N641 1.375 . S
C639 H657 0.931 . S
C640 N637 1.311 . S
C640 N641 1.347 . S
C640 H651 0.929 . S
N641 C639 1.375 . S
N641 C640 1.347 . S
C642 C645 1.365 . S
C642 N647 1.328 . S
C642 H648 0.929 . S
C643 C644 1.362 . S
C643 C646 1.378 . S
C643 H658 0.929 . S
C644 C643 1.362 . S
C644 C645 1.366 . S
C645 C642 1.365 . S
C645 C644 1.366 . S
C645 H659 0.930 . S
C646 C643 1.378 . S
C646 N647 1.315 . S
C646 H649 0.930 . S
N647 Co627 2.194 . S
N647 C642 1.328 . S
N647 C646 1.315 . S
H648 C642 0.929 . S
H649 C646 0.930 . S
H650 C638 0.929 . S
H651 C640 0.929 . S
O652 Co627 2.351 . S
O652 C655 1.244 . S
O653 Co627 2.155 . S
O653 C655 1.240 . S
O654 Co627 2.096 . S
O654 C635 1.247 . S
C655 O652 1.244 . S
C655 O653 1.240 . S
H656 C630 0.931 . S
H657 C639 0.931 . S
H658 C643 0.929 . S
H659 C645 0.930 . S
Co660 N664 2.148 . S
Co660 N670 2.128 . S
Co660 N680 2.194 . S
Co660 O685 2.351 . S
Co660 O686 2.155 . S
Co660 O687 2.096 . S
C661 N664 1.301 . S
C661 N665 1.328 . S
C661 H666 0.930 . S
C662 C663 1.333 . S
C662 N664 1.317 . S
C662 H667 0.930 . S
C663 C662 1.333 . S
C663 N665 1.350 . S
C663 H689 0.931 . S
N664 Co660 2.148 . S
N664 C661 1.301 . S
N664 C662 1.317 . S
N665 C661 1.328 . S
N665 C663 1.350 . S
H666 C661 0.930 . S
H667 C662 0.930 . S
C668 O669 1.224 . S
C668 O687 1.247 . S
O669 C668 1.224 . S
N670 Co660 2.128 . S
N670 C671 1.355 . S
N670 C673 1.311 . S
C671 N670 1.355 . S
C671 C672 1.363 . S
C671 H683 0.929 . S
C672 C671 1.363 . S
C672 N674 1.375 . S
C672 H690 0.931 . S
C673 N670 1.311 . S
C673 N674 1.347 . S
C673 H684 0.929 . S
N674 C672 1.375 . S
N674 C673 1.347 . S
C675 C678 1.365 . S
C675 N680 1.328 . S
C675 H681 0.929 . S
C676 C677 1.362 . S
C676 C679 1.378 . S
C676 H691 0.929 . S
C677 C676 1.362 . S
C677 C678 1.366 . S
C678 C675 1.365 . S
C678 C677 1.366 . S
C678 H692 0.930 . S
C679 C676 1.378 . S
C679 N680 1.315 . S
C679 H682 0.930 . S
N680 Co660 2.194 . S
N680 C675 1.328 . S
N680 C679 1.315 . S
H681 C675 0.929 . S
H682 C679 0.930 . S
H683 C671 0.929 . S
H684 C673 0.929 . S
O685 Co660 2.351 . S
O685 C688 1.244 . S
O686 Co660 2.155 . S
O686 C688 1.240 . S
O687 Co660 2.096 . S
O687 C668 1.247 . S
C688 O685 1.244 . S
C688 O686 1.240 . S
H689 C663 0.931 . S
H690 C672 0.931 . S
H691 C676 0.929 . S
H692 C678 0.930 . S
Co693 N697 2.148 . S
Co693 N703 2.128 . S
Co693 N713 2.194 . S
Co693 O718 2.351 . S
Co693 O719 2.155 . S
Co693 O720 2.096 . S
C694 N697 1.301 . S
C694 N698 1.328 . S
C694 H699 0.930 . S
C695 C696 1.333 . S
C695 N697 1.317 . S
C695 H700 0.930 . S
C696 C695 1.333 . S
C696 N698 1.350 . S
C696 H722 0.931 . S
N697 Co693 2.148 . S
N697 C694 1.301 . S
N697 C695 1.317 . S
N698 C694 1.328 . S
N698 C696 1.350 . S
H699 C694 0.930 . S
H700 C695 0.930 . S
C701 O702 1.224 . S
C701 O720 1.247 . S
O702 C701 1.224 . S
N703 Co693 2.128 . S
N703 C704 1.355 . S
N703 C706 1.311 . S
C704 N703 1.355 . S
C704 C705 1.363 . S
C704 H716 0.929 . S
C705 C704 1.363 . S
C705 N707 1.375 . S
C705 H723 0.931 . S
C706 N703 1.311 . S
C706 N707 1.347 . S
C706 H717 0.929 . S
N707 C705 1.375 . S
N707 C706 1.347 . S
C708 C711 1.365 . S
C708 N713 1.328 . S
C708 H714 0.929 . S
C709 C710 1.362 . S
C709 C712 1.378 . S
C709 H724 0.929 . S
C710 C709 1.362 . S
C710 C711 1.366 . S
C711 C708 1.365 . S
C711 C710 1.366 . S
C711 H725 0.930 . S
C712 C709 1.378 . S
C712 N713 1.315 . S
C712 H715 0.930 . S
N713 Co693 2.194 . S
N713 C708 1.328 . S
N713 C712 1.315 . S
H714 C708 0.929 . S
H715 C712 0.930 . S
H716 C704 0.929 . S
H717 C706 0.929 . S
O718 Co693 2.351 . S
O718 C721 1.244 . S
O719 Co693 2.155 . S
O719 C721 1.240 . S
O720 Co693 2.096 . S
O720 C701 1.247 . S
C721 O718 1.244 . S
C721 O719 1.240 . S
H722 C696 0.931 . S
H723 C705 0.931 . S
H724 C709 0.929 . S
H725 C711 0.930 . S
Co726 N730 2.148 . S
Co726 N736 2.128 . S
Co726 N746 2.194 . S
Co726 O751 2.351 . S
Co726 O752 2.155 . S
Co726 O753 2.096 . S
C727 N730 1.301 . S
C727 N731 1.328 . S
C727 H732 0.930 . S
C728 C729 1.333 . S
C728 N730 1.317 . S
C728 H733 0.930 . S
C729 C728 1.333 . S
C729 N731 1.350 . S
C729 H755 0.931 . S
N730 Co726 2.148 . S
N730 C727 1.301 . S
N730 C728 1.317 . S
N731 C727 1.328 . S
N731 C729 1.350 . S
H732 C727 0.930 . S
H733 C728 0.930 . S
C734 O735 1.224 . S
C734 O753 1.247 . S
O735 C734 1.224 . S
N736 Co726 2.128 . S
N736 C737 1.355 . S
N736 C739 1.311 . S
C737 N736 1.355 . S
C737 C738 1.363 . S
C737 H749 0.929 . S
C738 C737 1.363 . S
C738 N740 1.375 . S
C738 H756 0.931 . S
C739 N736 1.311 . S
C739 N740 1.347 . S
C739 H750 0.929 . S
N740 C738 1.375 . S
N740 C739 1.347 . S
C741 C744 1.365 . S
C741 N746 1.328 . S
C741 H747 0.929 . S
C742 C743 1.362 . S
C742 C745 1.378 . S
C742 H757 0.929 . S
C743 C742 1.362 . S
C743 C744 1.366 . S
C744 C741 1.365 . S
C744 C743 1.366 . S
C744 H758 0.930 . S
C745 C742 1.378 . S
C745 N746 1.315 . S
C745 H748 0.930 . S
N746 Co726 2.194 . S
N746 C741 1.328 . S
N746 C745 1.315 . S
H747 C741 0.929 . S
H748 C745 0.930 . S
H749 C737 0.929 . S
H750 C739 0.929 . S
O751 Co726 2.351 . S
O751 C754 1.244 . S
O752 Co726 2.155 . S
O752 C754 1.240 . S
O753 Co726 2.096 . S
O753 C734 1.247 . S
C754 O751 1.244 . S
C754 O752 1.240 . S
H755 C729 0.931 . S
H756 C738 0.931 . S
H757 C742 0.929 . S
H758 C744 0.930 . S
Co759 N763 2.148 . S
Co759 N769 2.128 . S
Co759 N779 2.194 . S
Co759 O784 2.351 . S
Co759 O785 2.155 . S
Co759 O786 2.096 . S
C760 N763 1.301 . S
C760 N764 1.328 . S
C760 H765 0.930 . S
C761 C762 1.333 . S
C761 N763 1.317 . S
C761 H766 0.930 . S
C762 C761 1.333 . S
C762 N764 1.350 . S
C762 H788 0.931 . S
N763 Co759 2.148 . S
N763 C760 1.301 . S
N763 C761 1.317 . S
N764 C760 1.328 . S
N764 C762 1.350 . S
H765 C760 0.930 . S
H766 C761 0.930 . S
C767 O768 1.224 . S
C767 O786 1.247 . S
O768 C767 1.224 . S
N769 Co759 2.128 . S
N769 C770 1.355 . S
N769 C772 1.311 . S
C770 N769 1.355 . S
C770 C771 1.363 . S
C770 H782 0.929 . S
C771 C770 1.363 . S
C771 N773 1.375 . S
C771 H789 0.931 . S
C772 N769 1.311 . S
C772 N773 1.347 . S
C772 H783 0.929 . S
N773 C771 1.375 . S
N773 C772 1.347 . S
C774 C777 1.365 . S
C774 N779 1.328 . S
C774 H780 0.929 . S
C775 C776 1.362 . S
C775 C778 1.378 . S
C775 H790 0.929 . S
C776 C775 1.362 . S
C776 C777 1.366 . S
C777 C774 1.365 . S
C777 C776 1.366 . S
C777 H791 0.930 . S
C778 C775 1.378 . S
C778 N779 1.315 . S
C778 H781 0.930 . S
N779 Co759 2.194 . S
N779 C774 1.328 . S
N779 C778 1.315 . S
H780 C774 0.929 . S
H781 C778 0.930 . S
H782 C770 0.929 . S
H783 C772 0.929 . S
O784 Co759 2.351 . S
O784 C787 1.244 . S
O785 Co759 2.155 . S
O785 C787 1.240 . S
O786 Co759 2.096 . S
O786 C767 1.247 . S
C787 O784 1.244 . S
C787 O785 1.240 . S
H788 C762 0.931 . S
H789 C771 0.931 . S
H790 C775 0.929 . S
H791 C777 0.930 . S
Co792 N796 2.148 . S
Co792 N802 2.128 . S
Co792 N812 2.194 . S
Co792 O817 2.351 . S
Co792 O818 2.155 . S
Co792 O819 2.096 . S
C793 N796 1.301 . S
C793 N797 1.328 . S
C793 H798 0.930 . S
C794 C795 1.333 . S
C794 N796 1.317 . S
C794 H799 0.930 . S
C795 C794 1.333 . S
C795 N797 1.350 . S
C795 H821 0.931 . S
N796 Co792 2.148 . S
N796 C793 1.301 . S
N796 C794 1.317 . S
N797 C793 1.328 . S
N797 C795 1.350 . S
H798 C793 0.930 . S
H799 C794 0.930 . S
C800 O801 1.224 . S
C800 O819 1.247 . S
O801 C800 1.224 . S
N802 Co792 2.128 . S
N802 C803 1.355 . S
N802 C805 1.311 . S
C803 N802 1.355 . S
C803 C804 1.363 . S
C803 H815 0.929 . S
C804 C803 1.363 . S
C804 N806 1.375 . S
C804 H822 0.931 . S
C805 N802 1.311 . S
C805 N806 1.347 . S
C805 H816 0.929 . S
N806 C804 1.375 . S
N806 C805 1.347 . S
C807 C810 1.365 . S
C807 N812 1.328 . S
C807 H813 0.929 . S
C808 C809 1.362 . S
C808 C811 1.378 . S
C808 H823 0.929 . S
C809 C808 1.362 . S
C809 C810 1.366 . S
C810 C807 1.365 . S
C810 C809 1.366 . S
C810 H824 0.930 . S
C811 C808 1.378 . S
C811 N812 1.315 . S
C811 H814 0.930 . S
N812 Co792 2.194 . S
N812 C807 1.328 . S
N812 C811 1.315 . S
H813 C807 0.929 . S
H814 C811 0.930 . S
H815 C803 0.929 . S
H816 C805 0.929 . S
O817 Co792 2.351 . S
O817 C820 1.244 . S
O818 Co792 2.155 . S
O818 C820 1.240 . S
O819 Co792 2.096 . S
O819 C800 1.247 . S
C820 O817 1.244 . S
C820 O818 1.240 . S
H821 C795 0.931 . S
H822 C804 0.931 . S
H823 C808 0.929 . S
H824 C810 0.930 . S
Co825 N829 2.148 . S
Co825 N835 2.128 . S
Co825 N845 2.194 . S
Co825 O850 2.351 . S
Co825 O851 2.155 . S
Co825 O852 2.096 . S
C826 N829 1.301 . S
C826 N830 1.328 . S
C826 H831 0.930 . S
C827 C828 1.333 . S
C827 N829 1.317 . S
C827 H832 0.930 . S
C828 C827 1.333 . S
C828 N830 1.350 . S
C828 H854 0.931 . S
N829 Co825 2.148 . S
N829 C826 1.301 . S
N829 C827 1.317 . S
N830 C826 1.328 . S
N830 C828 1.350 . S
H831 C826 0.930 . S
H832 C827 0.930 . S
C833 O834 1.224 . S
C833 O852 1.247 . S
O834 C833 1.224 . S
N835 Co825 2.128 . S
N835 C836 1.355 . S
N835 C838 1.311 . S
C836 N835 1.355 . S
C836 C837 1.363 . S
C836 H848 0.929 . S
C837 C836 1.363 . S
C837 N839 1.375 . S
C837 H855 0.931 . S
C838 N835 1.311 . S
C838 N839 1.347 . S
C838 H849 0.929 . S
N839 C837 1.375 . S
N839 C838 1.347 . S
C840 C843 1.365 . S
C840 N845 1.328 . S
C840 H846 0.929 . S
C841 C842 1.362 . S
C841 C844 1.378 . S
C841 H856 0.929 . S
C842 C841 1.362 . S
C842 C843 1.366 . S
C843 C840 1.365 . S
C843 C842 1.366 . S
C843 H857 0.930 . S
C844 C841 1.378 . S
C844 N845 1.315 . S
C844 H847 0.930 . S
N845 Co825 2.194 . S
N845 C840 1.328 . S
N845 C844 1.315 . S
H846 C840 0.929 . S
H847 C844 0.930 . S
H848 C836 0.929 . S
H849 C838 0.929 . S
O850 Co825 2.351 . S
O850 C853 1.244 . S
O851 Co825 2.155 . S
O851 C853 1.240 . S
O852 Co825 2.096 . S
O852 C833 1.247 . S
C853 O850 1.244 . S
C853 O851 1.240 . S
H854 C828 0.931 . S
H855 C837 0.931 . S
H856 C841 0.929 . S
H857 C843 0.930 . S
Co858 N862 2.148 . S
Co858 N868 2.128 . S
Co858 N878 2.194 . S
Co858 O883 2.351 . S
Co858 O884 2.155 . S
Co858 O885 2.096 . S
C859 N862 1.301 . S
C859 N863 1.328 . S
C859 H864 0.930 . S
C860 C861 1.333 . S
C860 N862 1.317 . S
C860 H865 0.930 . S
C861 C860 1.333 . S
C861 N863 1.350 . S
C861 H887 0.931 . S
N862 Co858 2.148 . S
N862 C859 1.301 . S
N862 C860 1.317 . S
N863 C859 1.328 . S
N863 C861 1.350 . S
H864 C859 0.930 . S
H865 C860 0.930 . S
C866 O867 1.224 . S
C866 O885 1.247 . S
O867 C866 1.224 . S
N868 Co858 2.128 . S
N868 C869 1.355 . S
N868 C871 1.311 . S
C869 N868 1.355 . S
C869 C870 1.363 . S
C869 H881 0.929 . S
C870 C869 1.363 . S
C870 N872 1.375 . S
C870 H888 0.931 . S
C871 N868 1.311 . S
C871 N872 1.347 . S
C871 H882 0.929 . S
N872 C870 1.375 . S
N872 C871 1.347 . S
C873 C876 1.365 . S
C873 N878 1.328 . S
C873 H879 0.929 . S
C874 C875 1.362 . S
C874 C877 1.378 . S
C874 H889 0.929 . S
C875 C874 1.362 . S
C875 C876 1.366 . S
C876 C873 1.365 . S
C876 C875 1.366 . S
C876 H890 0.930 . S
C877 C874 1.378 . S
C877 N878 1.315 . S
C877 H880 0.930 . S
N878 Co858 2.194 . S
N878 C873 1.328 . S
N878 C877 1.315 . S
H879 C873 0.929 . S
H880 C877 0.930 . S
H881 C869 0.929 . S
H882 C871 0.929 . S
O883 Co858 2.351 . S
O883 C886 1.244 . S
O884 Co858 2.155 . S
O884 C886 1.240 . S
O885 Co858 2.096 . S
O885 C866 1.247 . S
C886 O883 1.244 . S
C886 O884 1.240 . S
H887 C861 0.931 . S
H888 C870 0.931 . S
H889 C874 0.929 . S
H890 C876 0.930 . S
Co891 N895 2.148 . S
Co891 N901 2.128 . S
Co891 N911 2.194 . S
Co891 O916 2.351 . S
Co891 O917 2.155 . S
Co891 O918 2.096 . S
C892 N895 1.301 . S
C892 N896 1.328 . S
C892 H897 0.930 . S
C893 C894 1.333 . S
C893 N895 1.317 . S
C893 H898 0.930 . S
C894 C893 1.333 . S
C894 N896 1.350 . S
C894 H920 0.931 . S
N895 Co891 2.148 . S
N895 C892 1.301 . S
N895 C893 1.317 . S
N896 C892 1.328 . S
N896 C894 1.350 . S
H897 C892 0.930 . S
H898 C893 0.930 . S
C899 O900 1.224 . S
C899 O918 1.247 . S
O900 C899 1.224 . S
N901 Co891 2.128 . S
N901 C902 1.355 . S
N901 C904 1.311 . S
C902 N901 1.355 . S
C902 C903 1.363 . S
C902 H914 0.929 . S
C903 C902 1.363 . S
C903 N905 1.375 . S
C903 H921 0.931 . S
C904 N901 1.311 . S
C904 N905 1.347 . S
C904 H915 0.929 . S
N905 C903 1.375 . S
N905 C904 1.347 . S
C906 C909 1.365 . S
C906 N911 1.328 . S
C906 H912 0.929 . S
C907 C908 1.362 . S
C907 C910 1.378 . S
C907 H922 0.929 . S
C908 C907 1.362 . S
C908 C909 1.366 . S
C909 C906 1.365 . S
C909 C908 1.366 . S
C909 H923 0.930 . S
C910 C907 1.378 . S
C910 N911 1.315 . S
C910 H913 0.930 . S
N911 Co891 2.194 . S
N911 C906 1.328 . S
N911 C910 1.315 . S
H912 C906 0.929 . S
H913 C910 0.930 . S
H914 C902 0.929 . S
H915 C904 0.929 . S
O916 Co891 2.351 . S
O916 C919 1.244 . S
O917 Co891 2.155 . S
O917 C919 1.240 . S
O918 Co891 2.096 . S
O918 C899 1.247 . S
C919 O916 1.244 . S
C919 O917 1.240 . S
H920 C894 0.931 . S
H921 C903 0.931 . S
H922 C907 0.929 . S
H923 C909 0.930 . S
Co924 N928 2.148 . S
Co924 N934 2.128 . S
Co924 N944 2.194 . S
Co924 O949 2.351 . S
Co924 O950 2.155 . S
Co924 O951 2.096 . S
C925 N928 1.301 . S
C925 N929 1.328 . S
C925 H930 0.930 . S
C926 C927 1.333 . S
C926 N928 1.317 . S
C926 H931 0.930 . S
C927 C926 1.333 . S
C927 N929 1.350 . S
C927 H953 0.931 . S
N928 Co924 2.148 . S
N928 C925 1.301 . S
N928 C926 1.317 . S
N929 C925 1.328 . S
N929 C927 1.350 . S
H930 C925 0.930 . S
H931 C926 0.930 . S
C932 O933 1.224 . S
C932 O951 1.247 . S
O933 C932 1.224 . S
N934 Co924 2.128 . S
N934 C935 1.355 . S
N934 C937 1.311 . S
C935 N934 1.355 . S
C935 C936 1.363 . S
C935 H947 0.929 . S
C936 C935 1.363 . S
C936 N938 1.375 . S
C936 H954 0.931 . S
C937 N934 1.311 . S
C937 N938 1.347 . S
C937 H948 0.929 . S
N938 C936 1.375 . S
N938 C937 1.347 . S
C939 C942 1.365 . S
C939 N944 1.328 . S
C939 H945 0.929 . S
C940 C941 1.362 . S
C940 C943 1.378 . S
C940 H955 0.929 . S
C941 C940 1.362 . S
C941 C942 1.366 . S
C942 C939 1.365 . S
C942 C941 1.366 . S
C942 H956 0.930 . S
C943 C940 1.378 . S
C943 N944 1.315 . S
C943 H946 0.930 . S
N944 Co924 2.194 . S
N944 C939 1.328 . S
N944 C943 1.315 . S
H945 C939 0.929 . S
H946 C943 0.930 . S
H947 C935 0.929 . S
H948 C937 0.929 . S
O949 Co924 2.351 . S
O949 C952 1.244 . S
O950 Co924 2.155 . S
O950 C952 1.240 . S
O951 Co924 2.096 . S
O951 C932 1.247 . S
C952 O949 1.244 . S
C952 O950 1.240 . S
H953 C927 0.931 . S
H954 C936 0.931 . S
H955 C940 0.929 . S
H956 C942 0.930 . S
Co957 N961 2.148 . S
Co957 N967 2.128 . S
Co957 N977 2.194 . S
Co957 O982 2.351 . S
Co957 O983 2.155 . S
Co957 O984 2.096 . S
C958 N961 1.301 . S
C958 N962 1.328 . S
C958 H963 0.930 . S
C959 C960 1.333 . S
C959 N961 1.317 . S
C959 H964 0.930 . S
C960 C959 1.333 . S
C960 N962 1.350 . S
C960 H986 0.931 . S
N961 Co957 2.148 . S
N961 C958 1.301 . S
N961 C959 1.317 . S
N962 C958 1.328 . S
N962 C960 1.350 . S
H963 C958 0.930 . S
H964 C959 0.930 . S
C965 O966 1.224 . S
C965 O984 1.247 . S
O966 C965 1.224 . S
N967 Co957 2.128 . S
N967 C968 1.355 . S
N967 C970 1.311 . S
C968 N967 1.355 . S
C968 C969 1.363 . S
C968 H980 0.929 . S
C969 C968 1.363 . S
C969 N971 1.375 . S
C969 H987 0.931 . S
C970 N967 1.311 . S
C970 N971 1.347 . S
C970 H981 0.929 . S
N971 C969 1.375 . S
N971 C970 1.347 . S
C972 C975 1.365 . S
C972 N977 1.328 . S
C972 H978 0.929 . S
C973 C974 1.362 . S
C973 C976 1.378 . S
C973 H988 0.929 . S
C974 C973 1.362 . S
C974 C975 1.366 . S
C975 C972 1.365 . S
C975 C974 1.366 . S
C975 H989 0.930 . S
C976 C973 1.378 . S
C976 N977 1.315 . S
C976 H979 0.930 . S
N977 Co957 2.194 . S
N977 C972 1.328 . S
N977 C976 1.315 . S
H978 C972 0.929 . S
H979 C976 0.930 . S
H980 C968 0.929 . S
H981 C970 0.929 . S
O982 Co957 2.351 . S
O982 C985 1.244 . S
O983 Co957 2.155 . S
O983 C985 1.240 . S
O984 Co957 2.096 . S
O984 C965 1.247 . S
C985 O982 1.244 . S
C985 O983 1.240 . S
H986 C960 0.931 . S
H987 C969 0.931 . S
H988 C973 0.929 . S
H989 C975 0.930 . S
Co990 N994 2.148 . S
Co990 N1000 2.128 . S
Co990 N1010 2.194 . S
Co990 O1015 2.351 . S
Co990 O1016 2.155 . S
Co990 O1017 2.096 . S
C991 N994 1.301 . S
C991 N995 1.328 . S
C991 H996 0.930 . S
C992 C993 1.333 . S
C992 N994 1.317 . S
C992 H997 0.930 . S
C993 C992 1.333 . S
C993 N995 1.350 . S
C993 H1019 0.931 . S
N994 Co990 2.148 . S
N994 C991 1.301 . S
N994 C992 1.317 . S
N995 C991 1.328 . S
N995 C993 1.350 . S
H996 C991 0.930 . S
H997 C992 0.930 . S
C998 O999 1.224 . S
C998 O1017 1.247 . S
O999 C998 1.224 . S
N1000 Co990 2.128 . S
N1000 C1001 1.355 . S
N1000 C1003 1.311 . S
C1001 N1000 1.355 . S
C1001 C1002 1.363 . S
C1001 H1013 0.929 . S
C1002 C1001 1.363 . S
C1002 N1004 1.375 . S
C1002 H1020 0.931 . S
C1003 N1000 1.311 . S
C1003 N1004 1.347 . S
C1003 H1014 0.929 . S
N1004 C1002 1.375 . S
N1004 C1003 1.347 . S
C1005 C1008 1.365 . S
C1005 N1010 1.328 . S
C1005 H1011 0.929 . S
C1006 C1007 1.362 . S
C1006 C1009 1.378 . S
C1006 H1021 0.929 . S
C1007 C1006 1.362 . S
C1007 C1008 1.366 . S
C1008 C1005 1.365 . S
C1008 C1007 1.366 . S
C1008 H1022 0.930 . S
C1009 C1006 1.378 . S
C1009 N1010 1.315 . S
C1009 H1012 0.930 . S
N1010 Co990 2.194 . S
N1010 C1005 1.328 . S
N1010 C1009 1.315 . S
H1011 C1005 0.929 . S
H1012 C1009 0.930 . S
H1013 C1001 0.929 . S
H1014 C1003 0.929 . S
O1015 Co990 2.351 . S
O1015 C1018 1.244 . S
O1016 Co990 2.155 . S
O1016 C1018 1.240 . S
O1017 Co990 2.096 . S
O1017 C998 1.247 . S
C1018 O1015 1.244 . S
C1018 O1016 1.240 . S
H1019 C993 0.931 . S
H1020 C1002 0.931 . S
H1021 C1006 0.929 . S
H1022 C1008 0.930 . S
Co1023 N1027 2.148 . S
Co1023 N1033 2.128 . S
Co1023 N1043 2.194 . S
Co1023 O1048 2.351 . S
Co1023 O1049 2.155 . S
Co1023 O1050 2.096 . S
C1024 N1027 1.301 . S
C1024 N1028 1.328 . S
C1024 H1029 0.930 . S
C1025 C1026 1.333 . S
C1025 N1027 1.317 . S
C1025 H1030 0.930 . S
C1026 C1025 1.333 . S
C1026 N1028 1.350 . S
C1026 H1052 0.931 . S
N1027 Co1023 2.148 . S
N1027 C1024 1.301 . S
N1027 C1025 1.317 . S
N1028 C1024 1.328 . S
N1028 C1026 1.350 . S
H1029 C1024 0.930 . S
H1030 C1025 0.930 . S
C1031 O1032 1.224 . S
C1031 O1050 1.247 . S
O1032 C1031 1.224 . S
N1033 Co1023 2.128 . S
N1033 C1034 1.355 . S
N1033 C1036 1.311 . S
C1034 N1033 1.355 . S
C1034 C1035 1.363 . S
C1034 H1046 0.929 . S
C1035 C1034 1.363 . S
C1035 N1037 1.375 . S
C1035 H1053 0.931 . S
C1036 N1033 1.311 . S
C1036 N1037 1.347 . S
C1036 H1047 0.929 . S
N1037 C1035 1.375 . S
N1037 C1036 1.347 . S
C1038 C1041 1.365 . S
C1038 N1043 1.328 . S
C1038 H1044 0.929 . S
C1039 C1040 1.362 . S
C1039 C1042 1.378 . S
C1039 H1054 0.929 . S
C1040 C1039 1.362 . S
C1040 C1041 1.366 . S
C1041 C1038 1.365 . S
C1041 C1040 1.366 . S
C1041 H1055 0.930 . S
C1042 C1039 1.378 . S
C1042 N1043 1.315 . S
C1042 H1045 0.930 . S
N1043 Co1023 2.194 . S
N1043 C1038 1.328 . S
N1043 C1042 1.315 . S
H1044 C1038 0.929 . S
H1045 C1042 0.930 . S
H1046 C1034 0.929 . S
H1047 C1036 0.929 . S
O1048 Co1023 2.351 . S
O1048 C1051 1.244 . S
O1049 Co1023 2.155 . S
O1049 C1051 1.240 . S
O1050 Co1023 2.096 . S
O1050 C1031 1.247 . S
C1051 O1048 1.244 . S
C1051 O1049 1.240 . S
H1052 C1026 0.931 . S
H1053 C1035 0.931 . S
H1054 C1039 0.929 . S
H1055 C1041 0.930 . S
Co1056 N1060 2.148 . S
Co1056 N1066 2.128 . S
Co1056 N1076 2.194 . S
Co1056 O1081 2.351 . S
Co1056 O1082 2.155 . S
Co1056 O1083 2.096 . S
C1057 N1060 1.301 . S
C1057 N1061 1.328 . S
C1057 H1062 0.930 . S
C1058 C1059 1.333 . S
C1058 N1060 1.317 . S
C1058 H1063 0.930 . S
C1059 C1058 1.333 . S
C1059 N1061 1.350 . S
C1059 H1085 0.931 . S
N1060 Co1056 2.148 . S
N1060 C1057 1.301 . S
N1060 C1058 1.317 . S
N1061 C1057 1.328 . S
N1061 C1059 1.350 . S
H1062 C1057 0.930 . S
H1063 C1058 0.930 . S
C1064 O1065 1.224 . S
C1064 O1083 1.247 . S
O1065 C1064 1.224 . S
N1066 Co1056 2.128 . S
N1066 C1067 1.355 . S
N1066 C1069 1.311 . S
C1067 N1066 1.355 . S
C1067 C1068 1.363 . S
C1067 H1079 0.929 . S
C1068 C1067 1.363 . S
C1068 N1070 1.375 . S
C1068 H1086 0.931 . S
C1069 N1066 1.311 . S
C1069 N1070 1.347 . S
C1069 H1080 0.929 . S
N1070 C1068 1.375 . S
N1070 C1069 1.347 . S
C1071 C1074 1.365 . S
C1071 N1076 1.328 . S
C1071 H1077 0.929 . S
C1072 C1073 1.362 . S
C1072 C1075 1.378 . S
C1072 H1087 0.929 . S
C1073 C1072 1.362 . S
C1073 C1074 1.366 . S
C1074 C1071 1.365 . S
C1074 C1073 1.366 . S
C1074 H1088 0.930 . S
C1075 C1072 1.378 . S
C1075 N1076 1.315 . S
C1075 H1078 0.930 . S
N1076 Co1056 2.194 . S
N1076 C1071 1.328 . S
N1076 C1075 1.315 . S
H1077 C1071 0.929 . S
H1078 C1075 0.930 . S
H1079 C1067 0.929 . S
H1080 C1069 0.929 . S
O1081 Co1056 2.351 . S
O1081 C1084 1.244 . S
O1082 Co1056 2.155 . S
O1082 C1084 1.240 . S
O1083 Co1056 2.096 . S
O1083 C1064 1.247 . S
C1084 O1081 1.244 . S
C1084 O1082 1.240 . S
H1085 C1059 0.931 . S
H1086 C1068 0.931 . S
H1087 C1072 0.929 . S
H1088 C1074 0.930 . S
Co1089 N1093 2.148 . S
Co1089 N1099 2.128 . S
Co1089 N1109 2.194 . S
Co1089 O1114 2.351 . S
Co1089 O1115 2.155 . S
Co1089 O1116 2.096 . S
C1090 N1093 1.301 . S
C1090 N1094 1.328 . S
C1090 H1095 0.930 . S
C1091 C1092 1.333 . S
C1091 N1093 1.317 . S
C1091 H1096 0.930 . S
C1092 C1091 1.333 . S
C1092 N1094 1.350 . S
C1092 H1118 0.931 . S
N1093 Co1089 2.148 . S
N1093 C1090 1.301 . S
N1093 C1091 1.317 . S
N1094 C1090 1.328 . S
N1094 C1092 1.350 . S
H1095 C1090 0.930 . S
H1096 C1091 0.930 . S
C1097 O1098 1.224 . S
C1097 O1116 1.247 . S
O1098 C1097 1.224 . S
N1099 Co1089 2.128 . S
N1099 C1100 1.355 . S
N1099 C1102 1.311 . S
C1100 N1099 1.355 . S
C1100 C1101 1.363 . S
C1100 H1112 0.929 . S
C1101 C1100 1.363 . S
C1101 N1103 1.375 . S
C1101 H1119 0.931 . S
C1102 N1099 1.311 . S
C1102 N1103 1.347 . S
C1102 H1113 0.929 . S
N1103 C1101 1.375 . S
N1103 C1102 1.347 . S
C1104 C1107 1.365 . S
C1104 N1109 1.328 . S
C1104 H1110 0.929 . S
C1105 C1106 1.362 . S
C1105 C1108 1.378 . S
C1105 H1120 0.929 . S
C1106 C1105 1.362 . S
C1106 C1107 1.366 . S
C1107 C1104 1.365 . S
C1107 C1106 1.366 . S
C1107 H1121 0.930 . S
C1108 C1105 1.378 . S
C1108 N1109 1.315 . S
C1108 H1111 0.930 . S
N1109 Co1089 2.194 . S
N1109 C1104 1.328 . S
N1109 C1108 1.315 . S
H1110 C1104 0.929 . S
H1111 C1108 0.930 . S
H1112 C1100 0.929 . S
H1113 C1102 0.929 . S
O1114 Co1089 2.351 . S
O1114 C1117 1.244 . S
O1115 Co1089 2.155 . S
O1115 C1117 1.240 . S
O1116 Co1089 2.096 . S
O1116 C1097 1.247 . S
C1117 O1114 1.244 . S
C1117 O1115 1.240 . S
H1118 C1092 0.931 . S
H1119 C1101 0.931 . S
H1120 C1105 0.929 . S
H1121 C1107 0.930 . S
Co1122 N1126 2.148 . S
Co1122 N1132 2.128 . S
Co1122 N1142 2.194 . S
Co1122 O1147 2.351 . S
Co1122 O1148 2.155 . S
Co1122 O1149 2.096 . S
C1123 N1126 1.301 . S
C1123 N1127 1.328 . S
C1123 H1128 0.930 . S
C1124 C1125 1.333 . S
C1124 N1126 1.317 . S
C1124 H1129 0.930 . S
C1125 C1124 1.333 . S
C1125 N1127 1.350 . S
C1125 H1151 0.931 . S
N1126 Co1122 2.148 . S
N1126 C1123 1.301 . S
N1126 C1124 1.317 . S
N1127 C1123 1.328 . S
N1127 C1125 1.350 . S
H1128 C1123 0.930 . S
H1129 C1124 0.930 . S
C1130 O1131 1.224 . S
C1130 O1149 1.247 . S
O1131 C1130 1.224 . S
N1132 Co1122 2.128 . S
N1132 C1133 1.355 . S
N1132 C1135 1.311 . S
C1133 N1132 1.355 . S
C1133 C1134 1.363 . S
C1133 H1145 0.929 . S
C1134 C1133 1.363 . S
C1134 N1136 1.375 . S
C1134 H1152 0.931 . S
C1135 N1132 1.311 . S
C1135 N1136 1.347 . S
C1135 H1146 0.929 . S
N1136 C1134 1.375 . S
N1136 C1135 1.347 . S
C1137 C1140 1.365 . S
C1137 N1142 1.328 . S
C1137 H1143 0.929 . S
C1138 C1139 1.362 . S
C1138 C1141 1.378 . S
C1138 H1153 0.929 . S
C1139 C1138 1.362 . S
C1139 C1140 1.366 . S
C1140 C1137 1.365 . S
C1140 C1139 1.366 . S
C1140 H1154 0.930 . S
C1141 C1138 1.378 . S
C1141 N1142 1.315 . S
C1141 H1144 0.930 . S
N1142 Co1122 2.194 . S
N1142 C1137 1.328 . S
N1142 C1141 1.315 . S
H1143 C1137 0.929 . S
H1144 C1141 0.930 . S
H1145 C1133 0.929 . S
H1146 C1135 0.929 . S
O1147 Co1122 2.351 . S
O1147 C1150 1.244 . S
O1148 Co1122 2.155 . S
O1148 C1150 1.240 . S
O1149 Co1122 2.096 . S
O1149 C1130 1.247 . S
C1150 O1147 1.244 . S
C1150 O1148 1.240 . S
H1151 C1125 0.931 . S
H1152 C1134 0.931 . S
H1153 C1138 0.929 . S
H1154 C1140 0.930 . S
Co1155 N1159 2.148 . S
Co1155 N1165 2.128 . S
Co1155 N1175 2.194 . S
Co1155 O1180 2.351 . S
Co1155 O1181 2.155 . S
Co1155 O1182 2.096 . S
C1156 N1159 1.301 . S
C1156 N1160 1.328 . S
C1156 H1161 0.930 . S
C1157 C1158 1.333 . S
C1157 N1159 1.317 . S
C1157 H1162 0.930 . S
C1158 C1157 1.333 . S
C1158 N1160 1.350 . S
C1158 H1184 0.931 . S
N1159 Co1155 2.148 . S
N1159 C1156 1.301 . S
N1159 C1157 1.317 . S
N1160 C1156 1.328 . S
N1160 C1158 1.350 . S
H1161 C1156 0.930 . S
H1162 C1157 0.930 . S
C1163 O1164 1.224 . S
C1163 O1182 1.247 . S
O1164 C1163 1.224 . S
N1165 Co1155 2.128 . S
N1165 C1166 1.355 . S
N1165 C1168 1.311 . S
C1166 N1165 1.355 . S
C1166 C1167 1.363 . S
C1166 H1178 0.929 . S
C1167 C1166 1.363 . S
C1167 N1169 1.375 . S
C1167 H1185 0.931 . S
C1168 N1165 1.311 . S
C1168 N1169 1.347 . S
C1168 H1179 0.929 . S
N1169 C1167 1.375 . S
N1169 C1168 1.347 . S
C1170 C1173 1.365 . S
C1170 N1175 1.328 . S
C1170 H1176 0.929 . S
C1171 C1172 1.362 . S
C1171 C1174 1.378 . S
C1171 H1186 0.929 . S
C1172 C1171 1.362 . S
C1172 C1173 1.366 . S
C1173 C1170 1.365 . S
C1173 C1172 1.366 . S
C1173 H1187 0.930 . S
C1174 C1171 1.378 . S
C1174 N1175 1.315 . S
C1174 H1177 0.930 . S
N1175 Co1155 2.194 . S
N1175 C1170 1.328 . S
N1175 C1174 1.315 . S
H1176 C1170 0.929 . S
H1177 C1174 0.930 . S
H1178 C1166 0.929 . S
H1179 C1168 0.929 . S
O1180 Co1155 2.351 . S
O1180 C1183 1.244 . S
O1181 Co1155 2.155 . S
O1181 C1183 1.240 . S
O1182 Co1155 2.096 . S
O1182 C1163 1.247 . S
C1183 O1180 1.244 . S
C1183 O1181 1.240 . S
H1184 C1158 0.931 . S
H1185 C1167 0.931 . S
H1186 C1171 0.929 . S
H1187 C1173 0.930 . S
C1188 C1189 1.349 . S
C1188 C1190 1.327 . S
C1188 H1213 0.950 . S
C1189 C1188 1.349 . S
C1189 C1205 1.349 . S
C1190 C1188 1.327 . S
C1190 C1209 1.429 . S
C1190 H1214 0.950 . S
C1191 C1208 1.574 . S
C1191 C1210 1.368 . S
C1191 H1215 0.949 . S
H1192 C1196 0.949 . S
C1193 C1194 1.349 . S
C1193 C1195 1.327 . S
C1193 H1216 0.950 . S
C1194 C1193 1.349 . S
C1194 C1206 1.355 . S
C1195 C1193 1.327 . S
C1195 C1211 1.429 . S
C1195 H1217 0.950 . S
C1196 H1192 0.949 . S
C1196 C1204 1.574 . S
C1196 C1212 1.368 . S
H1197 C1205 0.950 . S
H1198 C1203 0.950 . S
H1199 C1204 0.949 . S
H1200 C1206 0.936 1_554 S
H1201 C1207 0.950 . S
H1202 C1208 0.949 . S
C1203 H1198 0.950 . S
C1203 C1205 1.327 . S
C1203 C1209 1.429 . S
C1204 C1196 1.574 . S
C1204 H1199 0.949 . S
C1204 C1210 1.368 . S
C1205 C1189 1.349 . S
C1205 H1197 0.950 . S
C1205 C1203 1.327 . S
C1206 C1194 1.355 . S
C1206 H1200 0.936 1_556 S
C1206 C1207 1.334 . S
C1207 H1201 0.950 . S
C1207 C1206 1.334 . S
C1207 C1211 1.429 . S
C1208 C1191 1.574 . S
C1208 H1202 0.949 . S
C1208 C1212 1.368 . S
C1209 C1190 1.429 . S
C1209 C1203 1.429 . S
C1209 C1210 1.523 . S
C1210 C1191 1.368 . S
C1210 C1204 1.368 . S
C1210 C1209 1.523 . S
C1211 C1195 1.429 . S
C1211 C1207 1.429 . S
C1211 C1212 1.523 . S
C1212 C1196 1.368 . S
C1212 C1208 1.368 . S
C1212 C1211 1.523 . S
H1213 C1188 0.950 . S
H1214 C1190 0.950 . S
H1215 C1191 0.949 . S
H1216 C1193 0.950 . S
H1217 C1195 0.950 . S
C1218 C1219 1.349 . S
C1218 C1220 1.327 . S
C1218 H1243 0.950 . S
C1219 C1218 1.349 . S
C1219 C1235 1.349 . S
C1220 C1218 1.327 . S
C1220 C1239 1.429 . S
C1220 H1244 0.950 . S
C1221 C1238 1.574 . S
C1221 C1240 1.368 . S
C1221 H1245 0.949 . S
H1222 C1226 0.949 . S
C1223 C1224 1.349 . S
C1223 C1225 1.327 . S
C1223 H1246 0.950 1_556 S
C1224 C1223 1.349 . S
C1224 C1236 1.349 . S
C1225 C1223 1.327 . S
C1225 C1241 1.429 . S
C1225 H1247 0.950 . S
C1226 H1222 0.949 . S
C1226 C1234 1.574 . S
C1226 C1242 1.368 . S
H1227 C1235 0.950 . S
H1228 C1233 0.950 . S
H1229 C1234 0.949 . S
H1230 C1236 0.950 . S
H1231 C1237 0.950 . S
H1232 C1238 0.949 . S
C1233 H1228 0.950 . S
C1233 C1235 1.327 . S
C1233 C1239 1.429 . S
C1234 C1226 1.574 . S
C1234 H1229 0.949 . S
C1234 C1240 1.368 . S
C1235 C1219 1.349 . S
C1235 H1227 0.950 . S
C1235 C1233 1.327 . S
C1236 C1224 1.349 . S
C1236 H1230 0.950 . S
C1236 C1237 1.327 . S
C1237 H1231 0.950 . S
C1237 C1236 1.327 . S
C1237 C1241 1.429 . S
C1238 C1221 1.574 . S
C1238 H1232 0.949 . S
C1238 C1242 1.368 . S
C1239 C1220 1.429 . S
C1239 C1233 1.429 . S
C1239 C1240 1.523 . S
C1240 C1221 1.368 . S
C1240 C1234 1.368 . S
C1240 C1239 1.523 . S
C1241 C1225 1.429 . S
C1241 C1237 1.429 . S
C1241 C1242 1.523 . S
C1242 C1226 1.368 . S
C1242 C1238 1.368 . S
C1242 C1241 1.523 . S
H1243 C1218 0.950 . S
H1244 C1220 0.950 . S
H1245 C1221 0.949 . S
H1246 C1223 0.950 1_554 S
H1247 C1225 0.950 . S
C1248 C1249 1.349 . S
C1248 C1250 1.327 . S
C1248 H1273 0.950 . S
C1249 C1248 1.349 . S
C1249 C1265 1.349 . S
C1250 C1248 1.327 . S
C1250 C1269 1.429 . S
C1250 H1274 0.950 . S
C1251 C1268 1.574 . S
C1251 C1270 1.368 . S
C1251 H1275 0.949 . S
H1252 C1256 0.949 . S
C1253 C1254 1.349 1_554 S
C1253 C1255 1.327 1_554 S
C1253 H1276 0.950 . S
C1254 C1253 1.349 1_556 S
C1254 C1266 1.349 . S
C1255 C1253 1.327 1_556 S
C1255 C1271 1.429 . S
C1255 H1277 0.950 1_556 S
C1256 H1252 0.949 . S
C1256 C1264 1.574 . S
C1256 C1272 1.368 . S
H1257 C1265 0.950 . S
H1258 C1263 0.950 . S
H1259 C1264 0.949 . S
H1260 C1266 0.950 . S
H1261 C1267 0.950 . S
H1262 C1268 0.949 . S
C1263 H1258 0.950 . S
C1263 C1265 1.327 . S
C1263 C1269 1.429 . S
C1264 C1256 1.574 . S
C1264 H1259 0.949 . S
C1264 C1270 1.368 . S
C1265 C1249 1.349 . S
C1265 H1257 0.950 . S
C1265 C1263 1.327 . S
C1266 C1254 1.349 . S
C1266 H1260 0.950 . S
C1266 C1267 1.327 . S
C1267 H1261 0.950 . S
C1267 C1266 1.327 . S
C1267 C1271 1.429 . S
C1268 C1251 1.574 . S
C1268 H1262 0.949 . S
C1268 C1272 1.368 . S
C1269 C1250 1.429 . S
C1269 C1263 1.429 . S
C1269 C1270 1.523 . S
C1270 C1251 1.368 . S
C1270 C1264 1.368 . S
C1270 C1269 1.523 . S
C1271 C1255 1.429 . S
C1271 C1267 1.429 . S
C1271 C1272 1.523 . S
C1272 C1256 1.368 . S
C1272 C1268 1.368 . S
C1272 C1271 1.523 . S
H1273 C1248 0.950 . S
H1274 C1250 0.950 . S
H1275 C1251 0.949 . S
H1276 C1253 0.950 . S
H1277 C1255 0.950 1_554 S
C1278 C1279 1.349 . S
C1278 C1280 1.327 . S
C1278 H1303 0.950 . S
C1279 C1278 1.349 . S
C1279 C1295 1.349 . S
C1280 C1278 1.327 . S
C1280 C1299 1.429 . S
C1280 H1304 0.950 . S
C1281 C1298 1.574 . S
C1281 C1300 1.368 . S
C1281 H1305 0.949 . S
H1282 C1286 0.949 . S
C1283 C1284 1.349 . S
C1283 C1285 1.327 . S
C1283 H1306 0.950 . S
C1284 C1283 1.349 . S
C1284 C1296 1.349 . S
C1285 C1283 1.327 . S
C1285 C1301 1.429 . S
C1285 H1307 0.950 . S
C1286 H1282 0.949 . S
C1286 C1294 1.574 . S
C1286 C1302 1.368 . S
H1287 C1295 0.950 . S
H1288 C1293 0.950 . S
H1289 C1294 0.949 . S
H1290 C1296 0.950 . S
H1291 C1297 0.950 . S
H1292 C1298 0.949 . S
C1293 H1288 0.950 . S
C1293 C1295 1.327 . S
C1293 C1299 1.429 . S
C1294 C1286 1.574 . S
C1294 H1289 0.949 . S
C1294 C1300 1.368 . S
C1295 C1279 1.349 . S
C1295 H1287 0.950 . S
C1295 C1293 1.327 . S
C1296 C1284 1.349 . S
C1296 H1290 0.950 . S
C1296 C1297 1.327 . S
C1297 H1291 0.950 . S
C1297 C1296 1.327 . S
C1297 C1301 1.429 . S
C1298 C1281 1.574 . S
C1298 H1292 0.949 . S
C1298 C1302 1.368 . S
C1299 C1280 1.429 . S
C1299 C1293 1.429 . S
C1299 C1300 1.523 . S
C1300 C1281 1.368 . S
C1300 C1294 1.368 . S
C1300 C1299 1.523 . S
C1301 C1285 1.429 . S
C1301 C1297 1.429 . S
C1301 C1302 1.523 . S
C1302 C1286 1.368 . S
C1302 C1298 1.368 . S
C1302 C1301 1.523 . S
H1303 C1278 0.950 . S
H1304 C1280 0.950 . S
H1305 C1281 0.949 . S
H1306 C1283 0.950 . S
H1307 C1285 0.950 . S
C1308 C1309 1.349 . S
C1308 C1310 1.327 . S
C1308 H1333 0.950 . S
C1309 C1308 1.349 . S
C1309 C1325 1.349 . S
C1310 C1308 1.327 . S
C1310 C1329 1.429 . S
C1310 H1334 0.950 . S
C1311 C1328 1.574 . S
C1311 C1330 1.368 . S
C1311 H1335 0.949 . S
H1312 C1316 0.949 . S
C1313 C1314 1.349 . S
C1313 C1315 1.327 . S
C1313 H1336 0.950 . S
C1314 C1313 1.349 . S
C1314 C1326 1.349 . S
C1315 C1313 1.327 . S
C1315 C1331 1.429 . S
C1315 H1337 0.950 . S
C1316 H1312 0.949 . S
C1316 C1324 1.574 . S
C1316 C1332 1.368 . S
H1317 C1325 0.950 . S
H1318 C1323 0.950 . S
H1319 C1324 0.949 . S
H1320 C1326 0.950 . S
H1321 C1327 0.950 . S
H1322 C1328 0.949 . S
C1323 H1318 0.950 . S
C1323 C1325 1.327 . S
C1323 C1329 1.429 . S
C1324 C1316 1.574 . S
C1324 H1319 0.949 . S
C1324 C1330 1.368 . S
C1325 C1309 1.349 . S
C1325 H1317 0.950 . S
C1325 C1323 1.327 . S
C1326 C1314 1.349 . S
C1326 H1320 0.950 . S
C1326 C1327 1.327 . S
C1327 H1321 0.950 . S
C1327 C1326 1.327 . S
C1327 C1331 1.429 . S
C1328 C1311 1.574 . S
C1328 H1322 0.949 . S
C1328 C1332 1.368 . S
C1329 C1310 1.429 . S
C1329 C1323 1.429 . S
C1329 C1330 1.523 . S
C1330 C1311 1.368 . S
C1330 C1324 1.368 . S
C1330 C1329 1.523 . S
C1331 C1315 1.429 . S
C1331 C1327 1.429 . S
C1331 C1332 1.523 . S
C1332 C1316 1.368 . S
C1332 C1328 1.368 . S
C1332 C1331 1.523 . S
H1333 C1308 0.950 . S
H1334 C1310 0.950 . S
H1335 C1311 0.949 . S
H1336 C1313 0.950 . S
H1337 C1315 0.950 . S
C1338 C1339 1.349 . S
C1338 C1340 1.327 . S
C1338 H1363 0.950 . S
C1339 C1338 1.349 . S
C1339 C1355 1.349 . S
C1340 C1338 1.327 . S
C1340 C1359 1.429 . S
C1340 H1364 0.950 . S
C1341 C1358 1.574 . S
C1341 C1360 1.368 . S
C1341 H1365 0.949 . S
H1342 C1346 0.949 . S
C1343 C1344 1.349 . S
C1343 C1345 1.327 . S
C1343 H1366 0.950 . S
C1344 C1343 1.349 . S
C1344 C1356 1.349 . S
C1345 C1343 1.327 . S
C1345 C1361 1.429 . S
C1345 H1367 0.950 . S
C1346 H1342 0.949 . S
C1346 C1354 1.574 . S
C1346 C1362 1.368 . S
H1347 C1355 0.950 . S
H1348 C1353 0.950 . S
H1349 C1354 0.949 . S
H1350 C1356 0.950 . S
H1351 C1357 0.950 . S
H1352 C1358 0.949 . S
C1353 H1348 0.950 . S
C1353 C1355 1.327 . S
C1353 C1359 1.429 . S
C1354 C1346 1.574 . S
C1354 H1349 0.949 . S
C1354 C1360 1.368 . S
C1355 C1339 1.349 . S
C1355 H1347 0.950 . S
C1355 C1353 1.327 . S
C1356 C1344 1.349 . S
C1356 H1350 0.950 . S
C1356 C1357 1.327 . S
C1357 H1351 0.950 . S
C1357 C1356 1.327 . S
C1357 C1361 1.429 . S
C1358 C1341 1.574 . S
C1358 H1352 0.949 . S
C1358 C1362 1.368 . S
C1359 C1340 1.429 . S
C1359 C1353 1.429 . S
C1359 C1360 1.523 . S
C1360 C1341 1.368 . S
C1360 C1354 1.368 . S
C1360 C1359 1.523 . S
C1361 C1345 1.429 . S
C1361 C1357 1.429 . S
C1361 C1362 1.523 . S
C1362 C1346 1.368 . S
C1362 C1358 1.368 . S
C1362 C1361 1.523 . S
H1363 C1338 0.950 . S
H1364 C1340 0.950 . S
H1365 C1341 0.949 . S
H1366 C1343 0.950 . S
H1367 C1345 0.950 . S
C1368 C1369 1.349 . S
C1368 C1370 1.327 . S
C1368 H1393 0.950 . S
C1369 C1368 1.349 . S
C1369 C1385 1.349 . S
C1370 C1368 1.327 . S
C1370 C1389 1.429 . S
C1370 H1394 0.950 . S
C1371 C1388 1.574 . S
C1371 C1390 1.368 . S
C1371 H1395 0.949 . S
H1372 C1376 0.949 . S
C1373 C1374 1.349 . S
C1373 C1375 1.327 . S
C1373 H1396 0.950 . S
C1374 C1373 1.349 . S
C1374 C1386 1.349 . S
C1375 C1373 1.327 . S
C1375 C1391 1.429 . S
C1375 H1397 0.950 . S
C1376 H1372 0.949 . S
C1376 C1384 1.574 . S
C1376 C1392 1.368 . S
H1377 C1385 0.950 . S
H1378 C1383 0.950 . S
H1379 C1384 0.949 . S
H1380 C1386 0.950 . S
H1381 C1387 0.950 . S
H1382 C1388 0.949 . S
C1383 H1378 0.950 . S
C1383 C1385 1.327 . S
C1383 C1389 1.429 . S
C1384 C1376 1.574 . S
C1384 H1379 0.949 . S
C1384 C1390 1.368 . S
C1385 C1369 1.349 . S
C1385 H1377 0.950 . S
C1385 C1383 1.327 . S
C1386 C1374 1.349 . S
C1386 H1380 0.950 . S
C1386 C1387 1.327 . S
C1387 H1381 0.950 . S
C1387 C1386 1.327 . S
C1387 C1391 1.429 . S
C1388 C1371 1.574 . S
C1388 H1382 0.949 . S
C1388 C1392 1.368 . S
C1389 C1370 1.429 . S
C1389 C1383 1.429 . S
C1389 C1390 1.523 . S
C1390 C1371 1.368 . S
C1390 C1384 1.368 . S
C1390 C1389 1.523 . S
C1391 C1375 1.429 . S
C1391 C1387 1.429 . S
C1391 C1392 1.523 . S
C1392 C1376 1.368 . S
C1392 C1388 1.368 . S
C1392 C1391 1.523 . S
H1393 C1368 0.950 . S
H1394 C1370 0.950 . S
H1395 C1371 0.949 . S
H1396 C1373 0.950 . S
H1397 C1375 0.950 . S
C1398 C1399 1.349 . S
C1398 C1400 1.327 . S
C1398 H1423 0.950 . S
C1399 C1398 1.349 . S
C1399 C1415 1.349 . S
C1400 C1398 1.327 . S
C1400 C1419 1.429 . S
C1400 H1424 0.950 . S
C1401 C1418 1.574 . S
C1401 C1420 1.368 . S
C1401 H1425 0.949 . S
H1402 C1406 0.949 . S
C1403 C1404 1.349 . S
C1403 C1405 1.327 . S
C1403 H1426 0.950 . S
C1404 C1403 1.349 . S
C1404 C1416 1.349 . S
C1405 C1403 1.327 . S
C1405 C1421 1.429 . S
C1405 H1427 0.950 . S
C1406 H1402 0.949 . S
C1406 C1414 1.574 . S
C1406 C1422 1.368 . S
H1407 C1415 0.950 . S
H1408 C1413 0.950 . S
H1409 C1414 0.949 . S
H1410 C1416 0.950 . S
H1411 C1417 0.950 . S
H1412 C1418 0.949 . S
C1413 H1408 0.950 . S
C1413 C1415 1.327 . S
C1413 C1419 1.429 . S
C1414 C1406 1.574 . S
C1414 H1409 0.949 . S
C1414 C1420 1.368 . S
C1415 C1399 1.349 . S
C1415 H1407 0.950 . S
C1415 C1413 1.327 . S
C1416 C1404 1.349 . S
C1416 H1410 0.950 . S
C1416 C1417 1.327 . S
C1417 H1411 0.950 . S
C1417 C1416 1.327 . S
C1417 C1421 1.429 . S
C1418 C1401 1.574 . S
C1418 H1412 0.949 . S
C1418 C1422 1.368 . S
C1419 C1400 1.429 . S
C1419 C1413 1.429 . S
C1419 C1420 1.523 . S
C1420 C1401 1.368 . S
C1420 C1414 1.368 . S
C1420 C1419 1.523 . S
C1421 C1405 1.429 . S
C1421 C1417 1.429 . S
C1421 C1422 1.523 . S
C1422 C1406 1.368 . S
C1422 C1418 1.368 . S
C1422 C1421 1.523 . S
H1423 C1398 0.950 . S
H1424 C1400 0.950 . S
H1425 C1401 0.949 . S
H1426 C1403 0.950 . S
H1427 C1405 0.950 . S
C1428 C1429 1.349 . S
C1428 C1430 1.327 . S
C1428 H1453 0.950 . S
C1429 C1428 1.349 . S
C1429 C1445 1.349 . S
C1430 C1428 1.327 . S
C1430 C1449 1.429 . S
C1430 H1454 0.950 . S
C1431 C1448 1.574 . S
C1431 C1450 1.368 . S
C1431 H1455 0.949 . S
H1432 C1436 0.949 . S
C1433 C1434 1.349 . S
C1433 C1435 1.327 . S
C1433 H1456 0.950 . S
C1434 C1433 1.349 . S
C1434 C1446 1.349 . S
C1435 C1433 1.327 . S
C1435 C1451 1.429 . S
C1435 H1457 0.950 . S
C1436 H1432 0.949 . S
C1436 C1444 1.574 . S
C1436 C1452 1.368 . S
H1437 C1445 0.950 . S
H1438 C1443 0.950 . S
H1439 C1444 0.949 . S
H1440 C1446 0.950 . S
H1441 C1447 0.950 . S
H1442 C1448 0.949 . S
C1443 H1438 0.950 . S
C1443 C1445 1.327 . S
C1443 C1449 1.429 . S
C1444 C1436 1.574 . S
C1444 H1439 0.949 . S
C1444 C1450 1.368 . S
C1445 C1429 1.349 . S
C1445 H1437 0.950 . S
C1445 C1443 1.327 . S
C1446 C1434 1.349 . S
C1446 H1440 0.950 . S
C1446 C1447 1.327 . S
C1447 H1441 0.950 . S
C1447 C1446 1.327 . S
C1447 C1451 1.429 . S
C1448 C1431 1.574 . S
C1448 H1442 0.949 . S
C1448 C1452 1.368 . S
C1449 C1430 1.429 . S
C1449 C1443 1.429 . S
C1449 C1450 1.523 . S
C1450 C1431 1.368 . S
C1450 C1444 1.368 . S
C1450 C1449 1.523 . S
C1451 C1435 1.429 . S
C1451 C1447 1.429 . S
C1451 C1452 1.523 . S
C1452 C1436 1.368 . S
C1452 C1448 1.368 . S
C1452 C1451 1.523 . S
H1453 C1428 0.950 . S
H1454 C1430 0.950 . S
H1455 C1431 0.949 . S
H1456 C1433 0.950 . S
H1457 C1435 0.950 . S
C1458 C1459 1.349 . S
C1458 C1460 1.327 . S
C1458 H1483 0.950 . S
C1459 C1458 1.349 . S
C1459 C1475 1.349 . S
C1460 C1458 1.327 . S
C1460 C1479 1.429 . S
C1460 H1484 0.950 . S
C1461 C1478 1.574 . S
C1461 C1480 1.368 . S
C1461 H1485 0.949 . S
H1462 C1466 0.949 . S
C1463 C1464 1.349 . S
C1463 C1465 1.327 . S
C1463 H1486 0.950 . S
C1464 C1463 1.349 . S
C1464 C1476 1.349 . S
C1465 C1463 1.327 . S
C1465 C1481 1.429 . S
C1465 H1487 0.950 . S
C1466 H1462 0.949 . S
C1466 C1474 1.574 . S
C1466 C1482 1.368 . S
H1467 C1475 0.950 . S
H1468 C1473 0.950 . S
H1469 C1474 0.949 . S
H1470 C1476 0.950 . S
H1471 C1477 0.950 . S
H1472 C1478 0.949 . S
C1473 H1468 0.950 . S
C1473 C1475 1.327 . S
C1473 C1479 1.429 . S
C1474 C1466 1.574 . S
C1474 H1469 0.949 . S
C1474 C1480 1.368 . S
C1475 C1459 1.349 . S
C1475 H1467 0.950 . S
C1475 C1473 1.327 . S
C1476 C1464 1.349 . S
C1476 H1470 0.950 . S
C1476 C1477 1.327 . S
C1477 H1471 0.950 . S
C1477 C1476 1.327 . S
C1477 C1481 1.429 . S
C1478 C1461 1.574 . S
C1478 H1472 0.949 . S
C1478 C1482 1.368 . S
C1479 C1460 1.429 . S
C1479 C1473 1.429 . S
C1479 C1480 1.523 . S
C1480 C1461 1.368 . S
C1480 C1474 1.368 . S
C1480 C1479 1.523 . S
C1481 C1465 1.429 . S
C1481 C1477 1.429 . S
C1481 C1482 1.523 . S
C1482 C1466 1.368 . S
C1482 C1478 1.368 . S
C1482 C1481 1.523 . S
H1483 C1458 0.950 . S
H1484 C1460 0.950 . S
H1485 C1461 0.949 . S
H1486 C1463 0.950 . S
H1487 C1465 0.950 . S
C1488 C1489 1.349 . S
C1488 C1490 1.327 . S
C1488 H1513 0.950 . S
C1489 C1488 1.349 . S
C1489 C1505 1.349 . S
C1490 C1488 1.327 . S
C1490 C1509 1.429 . S
C1490 H1514 0.950 . S
C1491 C1508 1.574 . S
C1491 C1510 1.368 . S
C1491 H1515 0.949 . S
H1492 C1496 0.949 . S
C1493 C1494 1.349 . S
C1493 C1495 1.327 . S
C1493 H1516 0.950 . S
C1494 C1493 1.349 . S
C1494 C1506 1.349 . S
C1495 C1493 1.327 . S
C1495 C1511 1.429 . S
C1495 H1517 0.950 . S
C1496 H1492 0.949 . S
C1496 C1504 1.574 . S
C1496 C1512 1.368 . S
H1497 C1505 0.950 . S
H1498 C1503 0.950 . S
H1499 C1504 0.949 . S
H1500 C1506 0.950 . S
H1501 C1507 0.950 . S
H1502 C1508 0.949 . S
C1503 H1498 0.950 . S
C1503 C1505 1.327 . S
C1503 C1509 1.429 . S
C1504 C1496 1.574 . S
C1504 H1499 0.949 . S
C1504 C1510 1.368 . S
C1505 C1489 1.349 . S
C1505 H1497 0.950 . S
C1505 C1503 1.327 . S
C1506 C1494 1.349 . S
C1506 H1500 0.950 . S
C1506 C1507 1.327 . S
C1507 H1501 0.950 . S
C1507 C1506 1.327 . S
C1507 C1511 1.429 . S
C1508 C1491 1.574 . S
C1508 H1502 0.949 . S
C1508 C1512 1.368 . S
C1509 C1490 1.429 . S
C1509 C1503 1.429 . S
C1509 C1510 1.523 . S
C1510 C1491 1.368 . S
C1510 C1504 1.368 . S
C1510 C1509 1.523 . S
C1511 C1495 1.429 . S
C1511 C1507 1.429 . S
C1511 C1512 1.523 . S
C1512 C1496 1.368 . S
C1512 C1508 1.368 . S
C1512 C1511 1.523 . S
H1513 C1488 0.950 . S
H1514 C1490 0.950 . S
H1515 C1491 0.949 . S
H1516 C1493 0.950 . S
H1517 C1495 0.950 . S
C1518 C1519 1.349 . S
C1518 C1520 1.327 . S
C1518 H1543 0.950 . S
C1519 C1518 1.349 . S
C1519 C1535 1.349 . S
C1520 C1518 1.327 . S
C1520 C1539 1.429 . S
C1520 H1544 0.950 . S
C1521 C1538 1.574 . S
C1521 C1540 1.368 . S
C1521 H1545 0.949 . S
H1522 C1526 0.949 . S
C1523 C1524 1.349 . S
C1523 C1525 1.327 . S
C1523 H1546 0.950 . S
C1524 C1523 1.349 . S
C1524 C1536 1.349 . S
C1525 C1523 1.327 . S
C1525 C1541 1.429 . S
C1525 H1547 0.950 . S
C1526 H1522 0.949 . S
C1526 C1534 1.574 . S
C1526 C1542 1.368 . S
H1527 C1535 0.950 . S
H1528 C1533 0.950 . S
H1529 C1534 0.949 . S
H1530 C1536 0.950 . S
H1531 C1537 0.950 . S
H1532 C1538 0.949 . S
C1533 H1528 0.950 . S
C1533 C1535 1.327 . S
C1533 C1539 1.429 . S
C1534 C1526 1.574 . S
C1534 H1529 0.949 . S
C1534 C1540 1.368 . S
C1535 C1519 1.349 . S
C1535 H1527 0.950 . S
C1535 C1533 1.327 . S
C1536 C1524 1.349 . S
C1536 H1530 0.950 . S
C1536 C1537 1.327 . S
C1537 H1531 0.950 . S
C1537 C1536 1.327 . S
C1537 C1541 1.429 . S
C1538 C1521 1.574 . S
C1538 H1532 0.949 . S
C1538 C1542 1.368 . S
C1539 C1520 1.429 . S
C1539 C1533 1.429 . S
C1539 C1540 1.523 . S
C1540 C1521 1.368 . S
C1540 C1534 1.368 . S
C1540 C1539 1.523 . S
C1541 C1525 1.429 . S
C1541 C1537 1.429 . S
C1541 C1542 1.523 . S
C1542 C1526 1.368 . S
C1542 C1538 1.368 . S
C1542 C1541 1.523 . S
H1543 C1518 0.950 . S
H1544 C1520 0.950 . S
H1545 C1521 0.949 . S
H1546 C1523 0.950 . S
H1547 C1525 0.950 . S
C1548 C1549 1.349 . S
C1548 C1550 1.327 . S
C1548 H1573 0.950 . S
C1549 C1548 1.349 . S
C1549 C1565 1.349 . S
C1550 C1548 1.327 . S
C1550 C1569 1.429 . S
C1550 H1574 0.950 . S
C1551 C1568 1.574 1_655 S
C1551 C1570 1.368 . S
C1551 H1575 0.949 . S
H1552 C1556 0.949 . S
C1553 C1554 1.349 . S
C1553 C1555 1.327 . S
C1553 H1576 0.950 . S
C1554 C1553 1.349 . S
C1554 C1566 1.349 . S
C1555 C1553 1.327 . S
C1555 C1571 1.429 . S
C1555 H1577 0.950 . S
C1556 H1552 0.949 . S
C1556 C1564 1.574 1_455 S
C1556 C1572 1.368 . S
H1557 C1565 0.950 . S
H1558 C1563 0.950 . S
H1559 C1564 0.949 . S
H1560 C1566 0.950 . S
H1561 C1567 0.950 . S
H1562 C1568 0.949 . S
C1563 H1558 0.950 . S
C1563 C1565 1.327 . S
C1563 C1569 1.429 . S
C1564 C1556 1.574 1_655 S
C1564 H1559 0.949 . S
C1564 C1570 1.368 . S
C1565 C1549 1.349 . S
C1565 H1557 0.950 . S
C1565 C1563 1.327 . S
C1566 C1554 1.349 . S
C1566 H1560 0.950 . S
C1566 C1567 1.327 . S
C1567 H1561 0.950 . S
C1567 C1566 1.327 . S
C1567 C1571 1.429 . S
C1568 C1551 1.574 1_455 S
C1568 H1562 0.949 . S
C1568 C1572 1.368 . S
C1569 C1550 1.429 . S
C1569 C1563 1.429 . S
C1569 C1570 1.523 . S
C1570 C1551 1.368 . S
C1570 C1564 1.368 . S
C1570 C1569 1.523 . S
C1571 C1555 1.429 . S
C1571 C1567 1.429 . S
C1571 C1572 1.523 . S
C1572 C1556 1.368 . S
C1572 C1568 1.368 . S
C1572 C1571 1.523 . S
H1573 C1548 0.950 . S
H1574 C1550 0.950 . S
H1575 C1551 0.949 . S
H1576 C1553 0.950 . S
H1577 C1555 0.950 . S
C1578 C1579 1.349 . S
C1578 C1580 1.327 . S
C1578 H1603 0.950 . S
C1579 C1578 1.349 . S
C1579 C1595 1.349 . S
C1580 C1578 1.327 . S
C1580 C1599 1.429 . S
C1580 H1604 0.950 . S
C1581 C1598 1.574 . S
C1581 C1600 1.368 . S
C1581 H1605 0.949 . S
H1582 C1586 0.949 . S
C1583 C1584 1.349 . S
C1583 C1585 1.327 . S
C1583 H1606 0.950 . S
C1584 C1583 1.349 . S
C1584 C1596 1.349 . S
C1585 C1583 1.327 . S
C1585 C1601 1.429 . S
C1585 H1607 0.950 . S
C1586 H1582 0.949 . S
C1586 C1594 1.574 . S
C1586 C1602 1.368 . S
H1587 C1595 0.950 . S
H1588 C1593 0.950 . S
H1589 C1594 0.949 . S
H1590 C1596 0.950 . S
H1591 C1597 0.950 . S
H1592 C1598 0.949 . S
C1593 H1588 0.950 . S
C1593 C1595 1.327 . S
C1593 C1599 1.429 . S
C1594 C1586 1.574 . S
C1594 H1589 0.949 . S
C1594 C1600 1.368 . S
C1595 C1579 1.349 . S
C1595 H1587 0.950 . S
C1595 C1593 1.327 . S
C1596 C1584 1.349 . S
C1596 H1590 0.950 . S
C1596 C1597 1.327 . S
C1597 H1591 0.950 . S
C1597 C1596 1.327 . S
C1597 C1601 1.429 . S
C1598 C1581 1.574 . S
C1598 H1592 0.949 . S
C1598 C1602 1.368 . S
C1599 C1580 1.429 . S
C1599 C1593 1.429 . S
C1599 C1600 1.523 . S
C1600 C1581 1.368 . S
C1600 C1594 1.368 . S
C1600 C1599 1.523 . S
C1601 C1585 1.429 . S
C1601 C1597 1.429 . S
C1601 C1602 1.523 . S
C1602 C1586 1.368 . S
C1602 C1598 1.368 . S
C1602 C1601 1.523 . S
H1603 C1578 0.950 . S
H1604 C1580 0.950 . S
H1605 C1581 0.949 . S
H1606 C1583 0.950 . S
H1607 C1585 0.950 . S
C1608 C1609 1.349 . S
C1608 C1610 1.327 . S
C1608 H1633 0.950 . S
C1609 C1608 1.349 . S
C1609 C1625 1.349 . S
C1610 C1608 1.327 . S
C1610 C1629 1.429 . S
C1610 H1634 0.950 . S
C1611 C1628 1.574 1_565 S
C1611 C1630 1.368 . S
C1611 H1635 0.949 . S
H1612 C1616 0.949 . S
C1613 C1614 1.349 . S
C1613 C1615 1.327 . S
C1613 H1636 0.950 . S
C1614 C1613 1.349 . S
C1614 C1626 1.349 . S
C1615 C1613 1.327 . S
C1615 C1631 1.429 . S
C1615 H1637 0.950 . S
C1616 H1612 0.949 . S
C1616 C1624 1.574 1_545 S
C1616 C1632 1.368 . S
H1617 C1625 0.950 . S
H1618 C1623 0.950 . S
H1619 C1624 0.949 . S
H1620 C1626 0.950 . S
H1621 C1627 0.950 . S
H1622 C1628 0.949 . S
C1623 H1618 0.950 . S
C1623 C1625 1.327 . S
C1623 C1629 1.429 . S
C1624 C1616 1.574 1_565 S
C1624 H1619 0.949 . S
C1624 C1630 1.368 . S
C1625 C1609 1.349 . S
C1625 H1617 0.950 . S
C1625 C1623 1.327 . S
C1626 C1614 1.349 . S
C1626 H1620 0.950 . S
C1626 C1627 1.327 . S
C1627 H1621 0.950 . S
C1627 C1626 1.327 . S
C1627 C1631 1.429 . S
C1628 C1611 1.574 1_545 S
C1628 H1622 0.949 . S
C1628 C1632 1.368 . S
C1629 C1610 1.429 . S
C1629 C1623 1.429 . S
C1629 C1630 1.523 . S
C1630 C1611 1.368 . S
C1630 C1624 1.368 . S
C1630 C1629 1.523 . S
C1631 C1615 1.429 . S
C1631 C1627 1.429 . S
C1631 C1632 1.523 . S
C1632 C1616 1.368 . S
C1632 C1628 1.368 . S
C1632 C1631 1.523 . S
H1633 C1608 0.950 . S
H1634 C1610 0.950 . S
H1635 C1611 0.949 . S
H1636 C1613 0.950 . S
H1637 C1615 0.950 . S
C1638 C1639 1.349 . S
C1638 C1640 1.327 . S
C1638 H1663 0.950 . S
C1639 C1638 1.349 . S
C1639 C1655 1.349 . S
C1640 C1638 1.327 . S
C1640 C1659 1.429 . S
C1640 H1664 0.950 . S
C1641 C1658 1.574 1_565 S
C1641 C1660 1.368 . S
C1641 H1665 0.949 . S
H1642 C1646 0.949 . S
C1643 C1644 1.349 . S
C1643 C1645 1.327 . S
C1643 H1666 0.950 . S
C1644 C1643 1.349 . S
C1644 C1656 1.349 . S
C1645 C1643 1.327 . S
C1645 C1661 1.429 . S
C1645 H1667 0.950 . S
C1646 H1642 0.949 . S
C1646 C1654 1.574 1_545 S
C1646 C1662 1.368 . S
H1647 C1655 0.950 . S
H1648 C1653 0.950 . S
H1649 C1654 0.949 . S
H1650 C1656 0.950 . S
H1651 C1657 0.950 . S
H1652 C1658 0.949 . S
C1653 H1648 0.950 . S
C1653 C1655 1.327 . S
C1653 C1659 1.429 . S
C1654 C1646 1.574 1_565 S
C1654 H1649 0.949 . S
C1654 C1660 1.368 . S
C1655 C1639 1.349 . S
C1655 H1647 0.950 . S
C1655 C1653 1.327 . S
C1656 C1644 1.349 . S
C1656 H1650 0.950 . S
C1656 C1657 1.327 . S
C1657 H1651 0.950 . S
C1657 C1656 1.327 . S
C1657 C1661 1.429 . S
C1658 C1641 1.574 1_545 S
C1658 H1652 0.949 . S
C1658 C1662 1.368 . S
C1659 C1640 1.429 . S
C1659 C1653 1.429 . S
C1659 C1660 1.523 . S
C1660 C1641 1.368 . S
C1660 C1654 1.368 . S
C1660 C1659 1.523 . S
C1661 C1645 1.429 . S
C1661 C1657 1.429 . S
C1661 C1662 1.523 . S
C1662 C1646 1.368 . S
C1662 C1658 1.368 . S
C1662 C1661 1.523 . S
H1663 C1638 0.950 . S
H1664 C1640 0.950 . S
H1665 C1641 0.949 . S
H1666 C1643 0.950 . S
H1667 C1645 0.950 . S
C1668 C1669 1.349 . S
C1668 C1670 1.327 . S
C1668 H1693 0.950 . S
C1669 C1668 1.349 . S
C1669 C1685 1.349 . S
C1670 C1668 1.327 . S
C1670 C1689 1.429 . S
C1670 H1694 0.950 . S
C1671 C1688 1.574 1_655 S
C1671 C1690 1.368 . S
C1671 H1695 0.949 . S
H1672 C1676 0.949 . S
C1673 C1674 1.349 . S
C1673 C1675 1.327 . S
C1673 H1696 0.950 . S
C1674 C1673 1.349 . S
C1674 C1686 1.349 . S
C1675 C1673 1.327 . S
C1675 C1691 1.429 . S
C1675 H1697 0.950 . S
C1676 H1672 0.949 . S
C1676 C1684 1.574 1_455 S
C1676 C1692 1.368 . S
H1677 C1685 0.950 . S
H1678 C1683 0.950 . S
H1679 C1684 0.949 . S
H1680 C1686 0.950 . S
H1681 C1687 0.950 . S
H1682 C1688 0.949 . S
C1683 H1678 0.950 . S
C1683 C1685 1.327 . S
C1683 C1689 1.429 . S
C1684 C1676 1.574 1_655 S
C1684 H1679 0.949 . S
C1684 C1690 1.368 . S
C1685 C1669 1.349 . S
C1685 H1677 0.950 . S
C1685 C1683 1.327 . S
C1686 C1674 1.349 . S
C1686 H1680 0.950 . S
C1686 C1687 1.327 . S
C1687 H1681 0.950 . S
C1687 C1686 1.327 . S
C1687 C1691 1.429 . S
C1688 C1671 1.574 1_455 S
C1688 H1682 0.949 . S
C1688 C1692 1.368 . S
C1689 C1670 1.429 . S
C1689 C1683 1.429 . S
C1689 C1690 1.523 . S
C1690 C1671 1.368 . S
C1690 C1684 1.368 . S
C1690 C1689 1.523 . S
C1691 C1675 1.429 . S
C1691 C1687 1.429 . S
C1691 C1692 1.523 . S
C1692 C1676 1.368 . S
C1692 C1688 1.368 . S
C1692 C1691 1.523 . S
H1693 C1668 0.950 . S
H1694 C1670 0.950 . S
H1695 C1671 0.949 . S
H1696 C1673 0.950 . S
H1697 C1675 0.950 . S
C1698 C1699 1.349 . S
C1698 C1700 1.327 . S
C1698 H1723 0.950 . S
C1699 C1698 1.349 . S
C1699 C1715 1.349 . S
C1700 C1698 1.327 . S
C1700 C1719 1.429 . S
C1700 H1724 0.950 . S
C1701 C1718 1.574 . S
C1701 C1720 1.368 . S
C1701 H1725 0.949 . S
H1702 C1706 0.949 . S
C1703 C1704 1.349 . S
C1703 C1705 1.327 . S
C1703 H1726 0.950 . S
C1704 C1703 1.349 . S
C1704 C1716 1.349 . S
C1705 C1703 1.327 . S
C1705 C1721 1.429 . S
C1705 H1727 0.950 . S
C1706 H1702 0.949 . S
C1706 C1714 1.574 . S
C1706 C1722 1.368 . S
H1707 C1715 0.950 . S
H1708 C1713 0.950 . S
H1709 C1714 0.949 . S
H1710 C1716 0.950 . S
H1711 C1717 0.950 . S
H1712 C1718 0.949 . S
C1713 H1708 0.950 . S
C1713 C1715 1.327 . S
C1713 C1719 1.429 . S
C1714 C1706 1.574 . S
C1714 H1709 0.949 . S
C1714 C1720 1.368 . S
C1715 C1699 1.349 . S
C1715 H1707 0.950 . S
C1715 C1713 1.327 . S
C1716 C1704 1.349 . S
C1716 H1710 0.950 . S
C1716 C1717 1.327 . S
C1717 H1711 0.950 . S
C1717 C1716 1.327 . S
C1717 C1721 1.429 . S
C1718 C1701 1.574 . S
C1718 H1712 0.949 . S
C1718 C1722 1.368 . S
C1719 C1700 1.429 . S
C1719 C1713 1.429 . S
C1719 C1720 1.523 . S
C1720 C1701 1.368 . S
C1720 C1714 1.368 . S
C1720 C1719 1.523 . S
C1721 C1705 1.429 . S
C1721 C1717 1.429 . S
C1721 C1722 1.523 . S
C1722 C1706 1.368 . S
C1722 C1718 1.368 . S
C1722 C1721 1.523 . S
H1723 C1698 0.950 . S
H1724 C1700 0.950 . S
H1725 C1701 0.949 . S
H1726 C1703 0.950 . S
H1727 C1705 0.950 . S
C1728 C1729 1.349 . S
C1728 C1730 1.327 . S
C1728 H1753 0.950 . S
C1729 C1728 1.349 . S
C1729 C1745 1.349 . S
C1730 C1728 1.327 . S
C1730 C1749 1.429 . S
C1730 H1754 0.950 . S
C1731 C1748 1.574 . S
C1731 C1750 1.368 . S
C1731 H1755 0.949 . S
H1732 C1736 0.949 . S
C1733 C1734 1.349 . S
C1733 C1735 1.327 . S
C1733 H1756 0.950 . S
C1734 C1733 1.349 . S
C1734 C1746 1.349 . S
C1735 C1733 1.327 . S
C1735 C1751 1.429 . S
C1735 H1757 0.950 . S
C1736 H1732 0.949 . S
C1736 C1744 1.574 . S
C1736 C1752 1.368 . S
H1737 C1745 0.950 . S
H1738 C1743 0.950 . S
H1739 C1744 0.949 . S
H1740 C1746 0.950 . S
H1741 C1747 0.950 . S
H1742 C1748 0.949 . S
C1743 H1738 0.950 . S
C1743 C1745 1.327 . S
C1743 C1749 1.429 . S
C1744 C1736 1.574 . S
C1744 H1739 0.949 . S
C1744 C1750 1.368 . S
C1745 C1729 1.349 . S
C1745 H1737 0.950 . S
C1745 C1743 1.327 . S
C1746 C1734 1.349 . S
C1746 H1740 0.950 . S
C1746 C1747 1.327 . S
C1747 H1741 0.950 . S
C1747 C1746 1.327 . S
C1747 C1751 1.429 . S
C1748 C1731 1.574 . S
C1748 H1742 0.949 . S
C1748 C1752 1.368 . S
C1749 C1730 1.429 . S
C1749 C1743 1.429 . S
C1749 C1750 1.523 . S
C1750 C1731 1.368 . S
C1750 C1744 1.368 . S
C1750 C1749 1.523 . S
C1751 C1735 1.429 . S
C1751 C1747 1.429 . S
C1751 C1752 1.523 . S
C1752 C1736 1.368 . S
C1752 C1748 1.368 . S
C1752 C1751 1.523 . S
H1753 C1728 0.950 . S
H1754 C1730 0.950 . S
H1755 C1731 0.949 . S
H1756 C1733 0.950 . S
H1757 C1735 0.950 . S
C1758 C1759 1.349 1_545 S
C1758 C1760 1.327 . S
C1758 H1783 0.950 . S
C1759 C1758 1.349 1_565 S
C1759 C1775 1.349 . S
C1760 C1758 1.327 . S
C1760 C1779 1.429 1_545 S
C1760 H1784 0.950 . S
C1761 C1778 1.574 . S
C1761 C1780 1.368 . S
C1761 H1785 0.949 . S
H1762 C1766 0.949 . S
C1763 C1764 1.349 1_565 S
C1763 C1765 1.327 . S
C1763 H1786 0.950 . S
C1764 C1763 1.349 1_545 S
C1764 C1776 1.349 . S
C1765 C1763 1.327 . S
C1765 C1781 1.429 1_565 S
C1765 H1787 0.950 . S
C1766 H1762 0.949 . S
C1766 C1774 1.574 . S
C1766 C1782 1.368 . S
H1767 C1775 0.950 . S
H1768 C1773 0.950 . S
H1769 C1774 0.949 . S
H1770 C1776 0.950 . S
H1771 C1777 0.950 . S
H1772 C1778 0.949 . S
C1773 H1768 0.950 . S
C1773 C1775 1.327 . S
C1773 C1779 1.429 . S
C1774 C1766 1.574 . S
C1774 H1769 0.949 . S
C1774 C1780 1.368 1_545 S
C1775 C1759 1.349 . S
C1775 H1767 0.950 . S
C1775 C1773 1.327 . S
C1776 C1764 1.349 . S
C1776 H1770 0.950 . S
C1776 C1777 1.327 . S
C1777 H1771 0.950 . S
C1777 C1776 1.327 . S
C1777 C1781 1.429 . S
C1778 C1761 1.574 . S
C1778 H1772 0.949 . S
C1778 C1782 1.368 1_565 S
C1779 C1760 1.429 1_565 S
C1779 C1773 1.429 . S
C1779 C1780 1.523 . S
C1780 C1761 1.368 . S
C1780 C1774 1.368 1_565 S
C1780 C1779 1.523 . S
C1781 C1765 1.429 1_545 S
C1781 C1777 1.429 . S
C1781 C1782 1.523 . S
C1782 C1766 1.368 . S
C1782 C1778 1.368 1_545 S
C1782 C1781 1.523 . S
H1783 C1758 0.950 . S
H1784 C1760 0.950 . S
H1785 C1761 0.949 . S
H1786 C1763 0.950 . S
H1787 C1765 0.950 . S
C1788 C1789 1.349 . S
C1788 C1790 1.327 . S
C1788 H1813 0.950 . S
C1789 C1788 1.349 . S
C1789 C1805 1.349 . S
C1790 C1788 1.327 . S
C1790 C1809 1.429 . S
C1790 H1814 0.950 . S
C1791 C1808 1.584 . S
C1791 C1810 1.325 1_455 S
C1791 H1815 0.984 . S
H1792 C1796 0.935 . S
C1793 C1794 1.349 . S
C1793 C1795 1.327 . S
C1793 H1816 0.950 . S
C1794 C1793 1.349 . S
C1794 C1806 1.349 . S
C1795 C1793 1.327 . S
C1795 C1811 1.429 . S
C1795 H1817 0.950 . S
C1796 H1792 0.935 . S
C1796 C1804 1.577 . S
C1796 C1812 1.354 1_655 S
H1797 C1805 0.950 . S
H1798 C1803 0.950 . S
H1799 C1804 0.949 . S
H1800 C1806 0.950 . S
H1801 C1807 0.950 . S
H1802 C1808 0.949 . S
C1803 H1798 0.950 . S
C1803 C1805 1.327 . S
C1803 C1809 1.429 . S
C1804 C1796 1.577 . S
C1804 H1799 0.949 . S
C1804 C1810 1.368 . S
C1805 C1789 1.349 . S
C1805 H1797 0.950 . S
C1805 C1803 1.327 . S
C1806 C1794 1.349 . S
C1806 H1800 0.950 . S
C1806 C1807 1.327 . S
C1807 H1801 0.950 . S
C1807 C1806 1.327 . S
C1807 C1811 1.429 . S
C1808 C1791 1.584 . S
C1808 H1802 0.949 . S
C1808 C1812 1.368 . S
C1809 C1790 1.429 . S
C1809 C1803 1.429 . S
C1809 C1810 1.523 . S
C1810 C1791 1.325 1_655 S
C1810 C1804 1.368 . S
C1810 C1809 1.523 . S
C1811 C1795 1.429 . S
C1811 C1807 1.429 . S
C1811 C1812 1.523 . S
C1812 C1796 1.354 1_455 S
C1812 C1808 1.368 . S
C1812 C1811 1.523 . S
H1813 C1788 0.950 . S
H1814 C1790 0.950 . S
H1815 C1791 0.984 . S
H1816 C1793 0.950 . S
H1817 C1795 0.950 . S
C1818 C1819 1.349 . S
C1818 C1820 1.327 . S
C1818 H1843 0.950 . S
C1819 C1818 1.349 . S
C1819 C1835 1.349 . S
C1820 C1818 1.327 . S
C1820 C1839 1.429 . S
C1820 H1844 0.950 . S
C1821 C1838 1.574 . S
C1821 C1840 1.368 . S
C1821 H1845 0.949 . S
H1822 C1826 0.949 . S
C1823 C1824 1.349 . S
C1823 C1825 1.327 . S
C1823 H1846 0.950 . S
C1824 C1823 1.349 . S
C1824 C1836 1.349 . S
C1825 C1823 1.327 . S
C1825 C1841 1.429 . S
C1825 H1847 0.950 . S
C1826 H1822 0.949 . S
C1826 C1834 1.574 . S
C1826 C1842 1.368 . S
H1827 C1835 0.950 . S
H1828 C1833 0.950 . S
H1829 C1834 0.949 . S
H1830 C1836 0.950 . S
H1831 C1837 0.950 . S
H1832 C1838 0.949 . S
C1833 H1828 0.950 . S
C1833 C1835 1.327 . S
C1833 C1839 1.429 . S
C1834 C1826 1.574 . S
C1834 H1829 0.949 . S
C1834 C1840 1.368 . S
C1835 C1819 1.349 . S
C1835 H1827 0.950 . S
C1835 C1833 1.327 . S
C1836 C1824 1.349 . S
C1836 H1830 0.950 . S
C1836 C1837 1.327 . S
C1837 H1831 0.950 . S
C1837 C1836 1.327 . S
C1837 C1841 1.429 . S
C1838 C1821 1.574 . S
C1838 H1832 0.949 . S
C1838 C1842 1.368 . S
C1839 C1820 1.429 . S
C1839 C1833 1.429 . S
C1839 C1840 1.523 . S
C1840 C1821 1.368 . S
C1840 C1834 1.368 . S
C1840 C1839 1.523 . S
C1841 C1825 1.429 . S
C1841 C1837 1.429 . S
C1841 C1842 1.523 . S
C1842 C1826 1.368 . S
C1842 C1838 1.368 . S
C1842 C1841 1.523 . S
H1843 C1818 0.950 . S
H1844 C1820 0.950 . S
H1845 C1821 0.949 . S
H1846 C1823 0.950 . S
H1847 C1825 0.950 . S
C1848 C1849 1.349 1_545 S
C1848 C1850 1.327 . S
C1848 H1873 0.950 . S
C1849 C1848 1.349 1_565 S
C1849 C1865 1.349 . S
C1850 C1848 1.327 . S
C1850 C1869 1.429 1_545 S
C1850 H1874 0.950 . S
C1851 C1868 1.574 . S
C1851 C1870 1.368 . S
C1851 H1875 0.949 . S
H1852 C1856 0.949 . S
C1853 C1854 1.349 1_565 S
C1853 C1855 1.327 . S
C1853 H1876 0.950 . S
C1854 C1853 1.349 1_545 S
C1854 C1866 1.349 . S
C1855 C1853 1.327 . S
C1855 C1871 1.429 1_565 S
C1855 H1877 0.950 . S
C1856 H1852 0.949 . S
C1856 C1864 1.574 . S
C1856 C1872 1.368 . S
H1857 C1865 0.950 . S
H1858 C1863 0.950 . S
H1859 C1864 0.949 . S
H1860 C1866 0.950 . S
H1861 C1867 0.950 . S
H1862 C1868 0.949 . S
C1863 H1858 0.950 . S
C1863 C1865 1.327 . S
C1863 C1869 1.429 . S
C1864 C1856 1.574 . S
C1864 H1859 0.949 . S
C1864 C1870 1.368 1_545 S
C1865 C1849 1.349 . S
C1865 H1857 0.950 . S
C1865 C1863 1.327 . S
C1866 C1854 1.349 . S
C1866 H1860 0.950 . S
C1866 C1867 1.327 . S
C1867 H1861 0.950 . S
C1867 C1866 1.327 . S
C1867 C1871 1.429 . S
C1868 C1851 1.574 . S
C1868 H1862 0.949 . S
C1868 C1872 1.368 1_565 S
C1869 C1850 1.429 1_565 S
C1869 C1863 1.429 . S
C1869 C1870 1.523 . S
C1870 C1851 1.368 . S
C1870 C1864 1.368 1_565 S
C1870 C1869 1.523 . S
C1871 C1855 1.429 1_545 S
C1871 C1867 1.429 . S
C1871 C1872 1.523 . S
C1872 C1856 1.368 . S
C1872 C1868 1.368 1_545 S
C1872 C1871 1.523 . S
H1873 C1848 0.950 . S
H1874 C1850 0.950 . S
H1875 C1851 0.949 . S
H1876 C1853 0.950 . S
H1877 C1855 0.950 . S
C1878 C1879 1.349 . S
C1878 C1880 1.327 1_655 S
C1878 H1903 0.950 1_655 S
C1879 C1878 1.349 . S
C1879 C1895 1.349 . S
C1880 C1878 1.327 1_455 S
C1880 C1899 1.429 1_455 S
C1880 H1904 0.950 . S
C1881 C1898 1.574 . S
C1881 C1900 1.368 . S
C1881 H1905 0.949 . S
H1882 C1886 0.949 . S
C1883 C1884 1.349 . S
C1883 C1885 1.322 1_455 S
C1883 H1906 0.950 1_455 S
C1884 C1883 1.349 . S
C1884 C1896 1.349 . S
C1885 C1883 1.322 1_655 S
C1885 C1901 1.434 1_655 S
C1885 H1907 0.953 . S
C1886 H1882 0.949 . S
C1886 C1894 1.574 . S
C1886 C1902 1.368 . S
H1887 C1895 0.950 . S
H1888 C1893 0.950 . S
H1889 C1894 0.949 . S
H1890 C1896 0.950 . S
H1891 C1897 0.950 . S
H1892 C1898 0.949 . S
C1893 H1888 0.950 . S
C1893 C1895 1.327 . S
C1893 C1899 1.429 . S
C1894 C1886 1.574 . S
C1894 H1889 0.949 . S
C1894 C1900 1.368 1_455 S
C1895 C1879 1.349 . S
C1895 H1887 0.950 . S
C1895 C1893 1.327 . S
C1896 C1884 1.349 . S
C1896 H1890 0.950 . S
C1896 C1897 1.327 . S
C1897 H1891 0.950 . S
C1897 C1896 1.327 . S
C1897 C1901 1.429 . S
C1898 C1881 1.574 . S
C1898 H1892 0.949 . S
C1898 C1902 1.368 1_655 S
C1899 C1880 1.429 1_655 S
C1899 C1893 1.429 . S
C1899 C1900 1.523 . S
C1900 C1881 1.368 . S
C1900 C1894 1.368 1_655 S
C1900 C1899 1.523 . S
C1901 C1885 1.434 1_455 S
C1901 C1897 1.429 . S
C1901 C1902 1.523 . S
C1902 C1886 1.368 . S
C1902 C1898 1.368 1_455 S
C1902 C1901 1.523 . S
H1903 C1878 0.950 1_455 S
H1904 C1880 0.950 . S
H1905 C1881 0.949 . S
H1906 C1883 0.950 1_655 S
H1907 C1885 0.953 . S
C1908 C1909 1.349 . S
C1908 C1910 1.327 . S
C1908 H1933 0.950 . S
C1909 C1908 1.349 . S
C1909 C1925 1.349 . S
C1910 C1908 1.327 . S
C1910 C1929 1.429 . S
C1910 H1934 0.950 . S
C1911 C1928 1.574 . S
C1911 C1930 1.368 . S
C1911 H1935 0.949 . S
H1912 C1916 0.949 . S
C1913 C1914 1.349 . S
C1913 C1915 1.327 . S
C1913 H1936 0.950 . S
C1914 C1913 1.349 . S
C1914 C1926 1.349 . S
C1915 C1913 1.327 . S
C1915 C1931 1.429 . S
C1915 H1937 0.950 . S
C1916 H1912 0.949 . S
C1916 C1924 1.574 . S
C1916 C1932 1.368 . S
H1917 C1925 0.950 . S
H1918 C1923 0.950 . S
H1919 C1924 0.949 . S
H1920 C1926 0.950 . S
H1921 C1927 0.950 . S
H1922 C1928 0.949 . S
C1923 H1918 0.950 . S
C1923 C1925 1.327 . S
C1923 C1929 1.429 . S
C1924 C1916 1.574 . S
C1924 H1919 0.949 . S
C1924 C1930 1.368 . S
C1925 C1909 1.349 . S
C1925 H1917 0.950 . S
C1925 C1923 1.327 . S
C1926 C1914 1.349 . S
C1926 H1920 0.950 . S
C1926 C1927 1.327 . S
C1927 H1921 0.950 . S
C1927 C1926 1.327 . S
C1927 C1931 1.429 . S
C1928 C1911 1.574 . S
C1928 H1922 0.949 . S
C1928 C1932 1.368 . S
C1929 C1910 1.429 . S
C1929 C1923 1.429 . S
C1929 C1930 1.523 . S
C1930 C1911 1.368 . S
C1930 C1924 1.368 . S
C1930 C1929 1.523 . S
C1931 C1915 1.429 . S
C1931 C1927 1.429 . S
C1931 C1932 1.523 . S
C1932 C1916 1.368 . S
C1932 C1928 1.368 . S
C1932 C1931 1.523 . S
H1933 C1908 0.950 . S
H1934 C1910 0.950 . S
H1935 C1911 0.949 . S
H1936 C1913 0.950 . S
H1937 C1915 0.950 . S
C1938 C1939 1.349 . S
C1938 C1940 1.327 . S
C1938 H1963 0.950 . S
C1939 C1938 1.349 . S
C1939 C1955 1.349 . S
C1940 C1938 1.327 . S
C1940 C1959 1.429 . S
C1940 H1964 0.950 . S
C1941 C1958 1.574 . S
C1941 C1960 1.368 . S
C1941 H1965 0.949 . S
H1942 C1946 0.949 . S
C1943 C1944 1.349 . S
C1943 C1945 1.327 . S
C1943 H1966 0.950 . S
C1944 C1943 1.349 . S
C1944 C1956 1.349 . S
C1945 C1943 1.327 . S
C1945 C1961 1.429 . S
C1945 H1967 0.950 . S
C1946 H1942 0.949 . S
C1946 C1954 1.574 . S
C1946 C1962 1.368 . S
H1947 C1955 0.950 . S
H1948 C1953 0.950 . S
H1949 C1954 0.949 . S
H1950 C1956 0.950 . S
H1951 C1957 0.950 . S
H1952 C1958 0.949 . S
C1953 H1948 0.950 . S
C1953 C1955 1.327 . S
C1953 C1959 1.429 . S
C1954 C1946 1.574 . S
C1954 H1949 0.949 . S
C1954 C1960 1.368 . S
C1955 C1939 1.349 . S
C1955 H1947 0.950 . S
C1955 C1953 1.327 . S
C1956 C1944 1.349 . S
C1956 H1950 0.950 . S
C1956 C1957 1.327 . S
C1957 H1951 0.950 . S
C1957 C1956 1.327 . S
C1957 C1961 1.429 . S
C1958 C1941 1.574 . S
C1958 H1952 0.949 . S
C1958 C1962 1.368 . S
C1959 C1940 1.429 . S
C1959 C1953 1.429 . S
C1959 C1960 1.523 . S
C1960 C1941 1.368 . S
C1960 C1954 1.368 . S
C1960 C1959 1.523 . S
C1961 C1945 1.429 . S
C1961 C1957 1.429 . S
C1961 C1962 1.523 . S
C1962 C1946 1.368 . S
C1962 C1958 1.368 . S
C1962 C1961 1.523 . S
H1963 C1938 0.950 . S
H1964 C1940 0.950 . S
H1965 C1941 0.949 . S
H1966 C1943 0.950 . S
H1967 C1945 0.950 . S
C1968 C1969 1.349 . S
C1968 C1970 1.327 . S
C1968 H1993 0.950 . S
C1969 C1968 1.349 . S
C1969 C1985 1.349 . S
C1970 C1968 1.327 . S
C1970 C1989 1.429 . S
C1970 H1994 0.950 . S
C1971 C1988 1.574 . S
C1971 C1990 1.368 . S
C1971 H1995 0.949 . S
H1972 C1976 0.949 . S
C1973 C1974 1.349 . S
C1973 C1975 1.327 . S
C1973 H1996 0.950 . S
C1974 C1973 1.349 . S
C1974 C1986 1.349 . S
C1975 C1973 1.327 . S
C1975 C1991 1.429 . S
C1975 H1997 0.950 . S
C1976 H1972 0.949 . S
C1976 C1984 1.574 . S
C1976 C1992 1.368 . S
H1977 C1985 0.950 . S
H1978 C1983 0.950 . S
H1979 C1984 0.949 . S
H1980 C1986 0.950 . S
H1981 C1987 0.950 . S
H1982 C1988 0.949 . S
C1983 H1978 0.950 . S
C1983 C1985 1.327 . S
C1983 C1989 1.429 . S
C1984 C1976 1.574 . S
C1984 H1979 0.949 . S
C1984 C1990 1.368 . S
C1985 C1969 1.349 . S
C1985 H1977 0.950 . S
C1985 C1983 1.327 . S
C1986 C1974 1.349 . S
C1986 H1980 0.950 . S
C1986 C1987 1.327 . S
C1987 H1981 0.950 . S
C1987 C1986 1.327 . S
C1987 C1991 1.429 . S
C1988 C1971 1.574 . S
C1988 H1982 0.949 . S
C1988 C1992 1.368 . S
C1989 C1970 1.429 . S
C1989 C1983 1.429 . S
C1989 C1990 1.523 . S
C1990 C1971 1.368 . S
C1990 C1984 1.368 . S
C1990 C1989 1.523 . S
C1991 C1975 1.429 . S
C1991 C1987 1.429 . S
C1991 C1992 1.523 . S
C1992 C1976 1.368 . S
C1992 C1988 1.368 . S
C1992 C1991 1.523 . S
H1993 C1968 0.950 . S
H1994 C1970 0.950 . S
H1995 C1971 0.949 . S
H1996 C1973 0.950 . S
H1997 C1975 0.950 . S
C1998 C1999 1.349 . S
C1998 C2000 1.327 1_556 S
C1998 H2023 0.950 . S
C1999 C1998 1.349 . S
C1999 C2015 1.349 . S
C2000 C1998 1.327 1_554 S
C2000 C2019 1.429 . S
C2000 H2024 0.950 . S
C2001 C2018 1.574 . S
C2001 C2020 1.368 . S
C2001 H2025 0.949 . S
H2002 C2006 0.949 . S
C2003 C2004 1.349 . S
C2003 C2005 1.327 . S
C2003 H2026 0.950 . S
C2004 C2003 1.349 . S
C2004 C2016 1.349 . S
C2005 C2003 1.327 . S
C2005 C2021 1.429 . S
C2005 H2027 0.950 . S
C2006 H2002 0.949 . S
C2006 C2014 1.574 . S
C2006 C2022 1.368 . S
H2007 C2015 0.950 . S
H2008 C2013 0.950 . S
H2009 C2014 0.949 . S
H2010 C2016 0.950 . S
H2011 C2017 0.950 . S
H2012 C2018 0.949 . S
C2013 H2008 0.950 . S
C2013 C2015 1.327 1_554 S
C2013 C2019 1.429 . S
C2014 C2006 1.574 . S
C2014 H2009 0.949 . S
C2014 C2020 1.368 . S
C2015 C1999 1.349 . S
C2015 H2007 0.950 . S
C2015 C2013 1.327 1_556 S
C2016 C2004 1.349 . S
C2016 H2010 0.950 . S
C2016 C2017 1.327 . S
C2017 H2011 0.950 . S
C2017 C2016 1.327 . S
C2017 C2021 1.429 . S
C2018 C2001 1.574 . S
C2018 H2012 0.949 . S
C2018 C2022 1.368 . S
C2019 C2000 1.429 . S
C2019 C2013 1.429 . S
C2019 C2020 1.523 . S
C2020 C2001 1.368 . S
C2020 C2014 1.368 . S
C2020 C2019 1.523 . S
C2021 C2005 1.429 . S
C2021 C2017 1.429 . S
C2021 C2022 1.523 . S
C2022 C2006 1.368 . S
C2022 C2018 1.368 . S
C2022 C2021 1.523 . S
H2023 C1998 0.950 . S
H2024 C2000 0.950 . S
H2025 C2001 0.949 . S
H2026 C2003 0.950 . S
H2027 C2005 0.950 . S
C2028 C2029 1.349 . S
C2028 C2030 1.327 1_556 S
C2028 H2053 0.950 . S
C2029 C2028 1.349 . S
C2029 C2045 1.349 . S
C2030 C2028 1.327 1_554 S
C2030 C2049 1.429 . S
C2030 H2054 0.950 . S
C2031 C2048 1.574 . S
C2031 C2050 1.368 . S
C2031 H2055 0.949 . S
H2032 C2036 0.949 . S
C2033 C2034 1.349 . S
C2033 C2035 1.327 . S
C2033 H2056 0.950 . S
C2034 C2033 1.349 . S
C2034 C2046 1.349 . S
C2035 C2033 1.327 . S
C2035 C2051 1.429 . S
C2035 H2057 0.950 . S
C2036 H2032 0.949 . S
C2036 C2044 1.574 . S
C2036 C2052 1.368 . S
H2037 C2045 0.950 . S
H2038 C2043 0.950 . S
H2039 C2044 0.949 . S
H2040 C2046 0.950 . S
H2041 C2047 0.950 . S
H2042 C2048 0.949 . S
C2043 H2038 0.950 . S
C2043 C2045 1.327 1_554 S
C2043 C2049 1.429 . S
C2044 C2036 1.574 . S
C2044 H2039 0.949 . S
C2044 C2050 1.368 . S
C2045 C2029 1.349 . S
C2045 H2037 0.950 . S
C2045 C2043 1.327 1_556 S
C2046 C2034 1.349 . S
C2046 H2040 0.950 . S
C2046 C2047 1.327 . S
C2047 H2041 0.950 . S
C2047 C2046 1.327 . S
C2047 C2051 1.429 . S
C2048 C2031 1.574 . S
C2048 H2042 0.949 . S
C2048 C2052 1.368 . S
C2049 C2030 1.429 . S
C2049 C2043 1.429 . S
C2049 C2050 1.523 . S
C2050 C2031 1.368 . S
C2050 C2044 1.368 . S
C2050 C2049 1.523 . S
C2051 C2035 1.429 . S
C2051 C2047 1.429 . S
C2051 C2052 1.523 . S
C2052 C2036 1.368 . S
C2052 C2048 1.368 . S
C2052 C2051 1.523 . S
H2053 C2028 0.950 . S
H2054 C2030 0.950 . S
H2055 C2031 0.949 . S
H2056 C2033 0.950 . S
H2057 C2035 0.950 . S
C2058 C2059 1.349 . S
C2058 C2060 1.327 1_556 S
C2058 H2083 0.950 . S
C2059 C2058 1.349 . S
C2059 C2075 1.349 . S
C2060 C2058 1.327 1_554 S
C2060 C2079 1.429 . S
C2060 H2084 0.950 . S
C2061 C2078 1.574 . S
C2061 C2080 1.368 . S
C2061 H2085 0.949 . S
H2062 C2066 0.949 . S
C2063 C2064 1.349 . S
C2063 C2065 1.327 . S
C2063 H2086 0.950 . S
C2064 C2063 1.349 . S
C2064 C2076 1.349 . S
C2065 C2063 1.327 . S
C2065 C2081 1.429 . S
C2065 H2087 0.950 . S
C2066 H2062 0.949 . S
C2066 C2074 1.574 . S
C2066 C2082 1.368 . S
H2067 C2075 0.950 . S
H2068 C2073 0.950 . S
H2069 C2074 0.949 . S
H2070 C2076 0.950 . S
H2071 C2077 0.950 . S
H2072 C2078 0.949 . S
C2073 H2068 0.950 . S
C2073 C2075 1.327 1_554 S
C2073 C2079 1.429 . S
C2074 C2066 1.574 . S
C2074 H2069 0.949 . S
C2074 C2080 1.368 . S
C2075 C2059 1.349 . S
C2075 H2067 0.950 . S
C2075 C2073 1.327 1_556 S
C2076 C2064 1.349 . S
C2076 H2070 0.950 . S
C2076 C2077 1.327 . S
C2077 H2071 0.950 . S
C2077 C2076 1.327 . S
C2077 C2081 1.429 . S
C2078 C2061 1.574 . S
C2078 H2072 0.949 . S
C2078 C2082 1.368 . S
C2079 C2060 1.429 . S
C2079 C2073 1.429 . S
C2079 C2080 1.523 . S
C2080 C2061 1.368 . S
C2080 C2074 1.368 . S
C2080 C2079 1.523 . S
C2081 C2065 1.429 . S
C2081 C2077 1.429 . S
C2081 C2082 1.523 . S
C2082 C2066 1.368 . S
C2082 C2078 1.368 . S
C2082 C2081 1.523 . S
H2083 C2058 0.950 . S
H2084 C2060 0.950 . S
H2085 C2061 0.949 . S
H2086 C2063 0.950 . S
H2087 C2065 0.950 . S
C2088 C2089 1.349 . S
C2088 C2090 1.327 . S
C2088 H2113 0.950 . S
C2089 C2088 1.349 . S
C2089 C2105 1.349 . S
C2090 C2088 1.327 . S
C2090 C2109 1.429 . S
C2090 H2114 0.950 . S
C2091 C2108 1.574 . S
C2091 C2110 1.368 . S
C2091 H2115 0.949 . S
H2092 C2096 0.949 . S
C2093 C2094 1.349 . S
C2093 C2095 1.327 . S
C2093 H2116 0.950 . S
C2094 C2093 1.349 . S
C2094 C2106 1.349 . S
C2095 C2093 1.327 . S
C2095 C2111 1.446 . S
C2095 H2117 0.950 . S
C2096 H2092 0.949 . S
C2096 C2104 1.574 . S
C2096 C2112 1.368 . S
H2097 C2105 0.950 . S
H2098 C2103 0.950 . S
H2099 C2104 0.949 . S
H2100 C2106 0.950 . S
H2101 C2107 0.950 . S
H2102 C2108 0.949 . S
C2103 H2098 0.950 . S
C2103 C2105 1.327 . S
C2103 C2109 1.429 . S
C2104 C2096 1.574 . S
C2104 H2099 0.949 . S
C2104 C2110 1.368 . S
C2105 C2089 1.349 . S
C2105 H2097 0.950 . S
C2105 C2103 1.327 . S
C2106 C2094 1.349 . S
C2106 H2100 0.950 . S
C2106 C2107 1.327 . S
C2107 H2101 0.950 . S
C2107 C2106 1.327 . S
C2107 C2111 1.454 . S
C2108 C2091 1.574 . S
C2108 H2102 0.949 . S
C2108 C2112 1.368 . S
C2109 C2090 1.429 . S
C2109 C2103 1.429 . S
C2109 C2110 1.523 . S
C2110 C2091 1.368 . S
C2110 C2104 1.368 . S
C2110 C2109 1.523 . S
C2111 C2095 1.446 . S
C2111 C2107 1.454 . S
C2111 C2112 1.483 1_554 S
C2112 C2096 1.368 . S
C2112 C2108 1.368 . S
C2112 C2111 1.483 1_556 S
H2113 C2088 0.950 . S
H2114 C2090 0.950 . S
H2115 C2091 0.949 . S
H2116 C2093 0.950 . S
H2117 C2095 0.950 . S
C2118 C2119 1.349 . S
C2118 C2120 1.327 . S
C2118 H2143 0.950 . S
C2119 C2118 1.349 . S
C2119 C2135 1.349 . S
C2120 C2118 1.327 . S
C2120 C2139 1.429 . S
C2120 H2144 0.950 . S
C2121 C2138 1.574 . S
C2121 C2140 1.368 . S
C2121 H2145 0.949 . S
H2122 C2126 0.949 . S
C2123 C2124 1.349 . S
C2123 C2125 1.327 . S
C2123 H2146 0.950 . S
C2124 C2123 1.349 . S
C2124 C2136 1.349 . S
C2125 C2123 1.327 . S
C2125 C2141 1.429 . S
C2125 H2147 0.950 . S
C2126 H2122 0.949 . S
C2126 C2134 1.574 . S
C2126 C2142 1.368 . S
H2127 C2135 0.950 . S
H2128 C2133 0.950 . S
H2129 C2134 0.949 . S
H2130 C2136 0.950 . S
H2131 C2137 0.950 . S
H2132 C2138 0.949 . S
C2133 H2128 0.950 . S
C2133 C2135 1.327 . S
C2133 C2139 1.429 . S
C2134 C2126 1.574 . S
C2134 H2129 0.949 . S
C2134 C2140 1.368 . S
C2135 C2119 1.349 . S
C2135 H2127 0.950 . S
C2135 C2133 1.327 . S
C2136 C2124 1.349 . S
C2136 H2130 0.950 . S
C2136 C2137 1.327 . S
C2137 H2131 0.950 . S
C2137 C2136 1.327 . S
C2137 C2141 1.429 . S
C2138 C2121 1.574 . S
C2138 H2132 0.949 . S
C2138 C2142 1.368 . S
C2139 C2120 1.429 . S
C2139 C2133 1.429 . S
C2139 C2140 1.523 1_554 S
C2140 C2121 1.368 . S
C2140 C2134 1.368 . S
C2140 C2139 1.523 1_556 S
C2141 C2125 1.429 . S
C2141 C2137 1.429 . S
C2141 C2142 1.523 . S
C2142 C2126 1.368 . S
C2142 C2138 1.368 . S
C2142 C2141 1.523 . S
H2143 C2118 0.950 . S
H2144 C2120 0.950 . S
H2145 C2121 0.949 . S
H2146 C2123 0.950 . S
H2147 C2125 0.950 . S
C2148 C2149 1.349 . S
C2148 C2150 1.327 . S
C2148 H2173 0.950 . S
C2149 C2148 1.349 . S
C2149 C2165 1.349 . S
C2150 C2148 1.327 . S
C2150 C2169 1.429 . S
C2150 H2174 0.950 . S
C2151 C2168 1.574 . S
C2151 C2170 1.368 . S
C2151 H2175 0.949 . S
H2152 C2156 0.949 . S
C2153 C2154 1.349 . S
C2153 C2155 1.327 . S
C2153 H2176 0.950 . S
C2154 C2153 1.349 . S
C2154 C2166 1.349 . S
C2155 C2153 1.327 . S
C2155 C2171 1.451 . S
C2155 H2177 0.950 . S
C2156 H2152 0.949 . S
C2156 C2164 1.574 . S
C2156 C2172 1.368 . S
H2157 C2165 0.950 . S
H2158 C2163 0.950 . S
H2159 C2164 0.949 . S
H2160 C2166 0.950 . S
H2161 C2167 0.950 . S
H2162 C2168 0.949 . S
C2163 H2158 0.950 . S
C2163 C2165 1.327 . S
C2163 C2169 1.429 . S
C2164 C2156 1.574 . S
C2164 H2159 0.949 . S
C2164 C2170 1.368 . S
C2165 C2149 1.349 . S
C2165 H2157 0.950 . S
C2165 C2163 1.327 . S
C2166 C2154 1.349 . S
C2166 H2160 0.950 . S
C2166 C2167 1.327 . S
C2167 H2161 0.950 . S
C2167 C2166 1.327 . S
C2167 C2171 1.450 . S
C2168 C2151 1.574 . S
C2168 H2162 0.949 . S
C2168 C2172 1.368 . S
C2169 C2150 1.429 . S
C2169 C2163 1.429 . S
C2169 C2170 1.523 . S
C2170 C2151 1.368 . S
C2170 C2164 1.368 . S
C2170 C2169 1.523 . S
C2171 C2155 1.451 . S
C2171 C2167 1.450 . S
C2171 C2172 1.483 1_554 S
C2172 C2156 1.368 . S
C2172 C2168 1.368 . S
C2172 C2171 1.483 1_556 S
H2173 C2148 0.950 . S
H2174 C2150 0.950 . S
H2175 C2151 0.949 . S
H2176 C2153 0.950 . S
H2177 C2155 0.950 . S
C2178 C2179 1.349 . S
C2178 C2180 1.327 . S
C2178 H2203 0.950 . S
C2179 C2178 1.349 . S
C2179 C2195 1.349 . S
C2180 C2178 1.327 . S
C2180 C2199 1.429 . S
C2180 H2204 0.950 . S
C2181 C2198 1.574 . S
C2181 C2200 1.368 . S
C2181 H2205 0.949 . S
H2182 C2186 0.949 . S
C2183 C2184 1.349 . S
C2183 C2185 1.327 . S
C2183 H2206 0.950 . S
C2184 C2183 1.349 . S
C2184 C2196 1.349 . S
C2185 C2183 1.327 . S
C2185 C2201 1.429 . S
C2185 H2207 0.950 . S
C2186 H2182 0.949 . S
C2186 C2194 1.574 . S
C2186 C2202 1.368 . S
H2187 C2195 0.950 . S
H2188 C2193 0.950 . S
H2189 C2194 0.949 . S
H2190 C2196 0.950 . S
H2191 C2197 0.950 . S
H2192 C2198 0.949 . S
C2193 H2188 0.950 . S
C2193 C2195 1.327 . S
C2193 C2199 1.429 . S
C2194 C2186 1.574 . S
C2194 H2189 0.949 . S
C2194 C2200 1.368 . S
C2195 C2179 1.349 . S
C2195 H2187 0.950 . S
C2195 C2193 1.327 . S
C2196 C2184 1.349 . S
C2196 H2190 0.950 . S
C2196 C2197 1.327 . S
C2197 H2191 0.950 . S
C2197 C2196 1.327 . S
C2197 C2201 1.429 . S
C2198 C2181 1.574 . S
C2198 H2192 0.949 . S
C2198 C2202 1.368 . S
C2199 C2180 1.429 . S
C2199 C2193 1.429 . S
C2199 C2200 1.523 . S
C2200 C2181 1.368 . S
C2200 C2194 1.368 . S
C2200 C2199 1.523 . S
C2201 C2185 1.429 . S
C2201 C2197 1.429 . S
C2201 C2202 1.523 . S
C2202 C2186 1.368 . S
C2202 C2198 1.368 . S
C2202 C2201 1.523 . S
H2203 C2178 0.950 . S
H2204 C2180 0.950 . S
H2205 C2181 0.949 . S
H2206 C2183 0.950 . S
H2207 C2185 0.950 . S
C2208 C2209 1.349 . S
C2208 C2210 1.327 . S
C2208 H2233 0.950 . S
C2209 C2208 1.349 . S
C2209 C2225 1.349 . S
C2210 C2208 1.327 . S
C2210 C2229 1.429 . S
C2210 H2234 0.950 . S
C2211 C2228 1.574 . S
C2211 C2230 1.368 . S
C2211 H2235 0.949 . S
H2212 C2216 0.949 . S
C2213 C2214 1.349 . S
C2213 C2215 1.327 . S
C2213 H2236 0.950 . S
C2214 C2213 1.349 . S
C2214 C2226 1.349 . S
C2215 C2213 1.327 . S
C2215 C2231 1.429 . S
C2215 H2237 0.950 . S
C2216 H2212 0.949 . S
C2216 C2224 1.574 . S
C2216 C2232 1.368 . S
H2217 C2225 0.950 . S
H2218 C2223 0.950 . S
H2219 C2224 0.949 . S
H2220 C2226 0.950 . S
H2221 C2227 0.950 . S
H2222 C2228 0.949 . S
C2223 H2218 0.950 . S
C2223 C2225 1.327 . S
C2223 C2229 1.429 . S
C2224 C2216 1.574 . S
C2224 H2219 0.949 . S
C2224 C2230 1.368 . S
C2225 C2209 1.349 . S
C2225 H2217 0.950 . S
C2225 C2223 1.327 . S
C2226 C2214 1.349 . S
C2226 H2220 0.950 . S
C2226 C2227 1.327 . S
C2227 H2221 0.950 . S
C2227 C2226 1.327 . S
C2227 C2231 1.429 . S
C2228 C2211 1.574 . S
C2228 H2222 0.949 . S
C2228 C2232 1.368 . S
C2229 C2210 1.429 . S
C2229 C2223 1.429 . S
C2229 C2230 1.523 . S
C2230 C2211 1.368 . S
C2230 C2224 1.368 . S
C2230 C2229 1.523 . S
C2231 C2215 1.429 . S
C2231 C2227 1.429 . S
C2231 C2232 1.523 . S
C2232 C2216 1.368 . S
C2232 C2228 1.368 . S
C2232 C2231 1.523 . S
H2233 C2208 0.950 . S
H2234 C2210 0.950 . S
H2235 C2211 0.949 . S
H2236 C2213 0.950 . S
H2237 C2215 0.950 . S
C2238 C2239 1.349 . S
C2238 C2240 1.327 . S
C2238 H2263 0.950 . S
C2239 C2238 1.349 . S
C2239 C2255 1.349 . S
C2240 C2238 1.327 . S
C2240 C2259 1.429 . S
C2240 H2264 0.950 . S
C2241 C2258 1.574 . S
C2241 C2260 1.368 . S
C2241 H2265 0.949 . S
H2242 C2246 0.949 . S
C2243 C2244 1.349 . S
C2243 C2245 1.327 . S
C2243 H2266 0.950 . S
C2244 C2243 1.349 . S
C2244 C2256 1.349 . S
C2245 C2243 1.327 . S
C2245 C2261 1.429 . S
C2245 H2267 0.950 . S
C2246 H2242 0.949 . S
C2246 C2254 1.574 . S
C2246 C2262 1.368 . S
H2247 C2255 0.950 . S
H2248 C2253 0.950 . S
H2249 C2254 0.949 . S
H2250 C2256 0.950 . S
H2251 C2257 0.950 . S
H2252 C2258 0.949 . S
C2253 H2248 0.950 . S
C2253 C2255 1.327 . S
C2253 C2259 1.429 . S
C2254 C2246 1.574 . S
C2254 H2249 0.949 . S
C2254 C2260 1.368 . S
C2255 C2239 1.349 . S
C2255 H2247 0.950 . S
C2255 C2253 1.327 . S
C2256 C2244 1.349 . S
C2256 H2250 0.950 . S
C2256 C2257 1.327 . S
C2257 H2251 0.950 . S
C2257 C2256 1.327 . S
C2257 C2261 1.429 . S
C2258 C2241 1.574 . S
C2258 H2252 0.949 . S
C2258 C2262 1.368 . S
C2259 C2240 1.429 . S
C2259 C2253 1.429 . S
C2259 C2260 1.523 . S
C2260 C2241 1.368 . S
C2260 C2254 1.368 . S
C2260 C2259 1.523 . S
C2261 C2245 1.429 . S
C2261 C2257 1.429 . S
C2261 C2262 1.523 . S
C2262 C2246 1.368 . S
C2262 C2258 1.368 . S
C2262 C2261 1.523 . S
H2263 C2238 0.950 . S
H2264 C2240 0.950 . S
H2265 C2241 0.949 . S
H2266 C2243 0.950 . S
H2267 C2245 0.950 . S
C2268 C2269 1.349 1_556 S
C2268 C2270 1.327 . S
C2268 H2293 0.950 . S
C2269 C2268 1.349 1_554 S
C2269 C2285 1.349 . S
C2270 C2268 1.327 . S
C2270 C2289 1.429 1_556 S
C2270 H2294 0.950 . S
C2271 C2288 1.574 . S
C2271 C2290 1.368 . S
C2271 H2295 0.949 . S
H2272 C2276 0.949 . S
C2273 C2274 1.349 . S
C2273 C2275 1.327 . S
C2273 H2296 0.950 . S
C2274 C2273 1.349 . S
C2274 C2286 1.349 1_554 S
C2275 C2273 1.327 . S
C2275 C2291 1.429 . S
C2275 H2297 0.950 . S
C2276 H2272 0.949 . S
C2276 C2284 1.574 . S
C2276 C2292 1.368 1_556 S
H2277 C2285 0.950 . S
H2278 C2283 0.950 . S
H2279 C2284 0.949 . S
H2280 C2286 0.950 . S
H2281 C2287 0.950 . S
H2282 C2288 0.949 . S
C2283 H2278 0.950 . S
C2283 C2285 1.327 . S
C2283 C2289 1.429 . S
C2284 C2276 1.574 . S
C2284 H2279 0.949 . S
C2284 C2290 1.368 1_556 S
C2285 C2269 1.349 . S
C2285 H2277 0.950 . S
C2285 C2283 1.327 . S
C2286 C2274 1.349 1_556 S
C2286 H2280 0.950 . S
C2286 C2287 1.327 . S
C2287 H2281 0.950 . S
C2287 C2286 1.327 . S
C2287 C2291 1.429 1_556 S
C2288 C2271 1.574 . S
C2288 H2282 0.949 . S
C2288 C2292 1.368 . S
C2289 C2270 1.429 1_554 S
C2289 C2283 1.429 . S
C2289 C2290 1.523 . S
C2290 C2271 1.368 . S
C2290 C2284 1.368 1_554 S
C2290 C2289 1.523 . S
C2291 C2275 1.429 . S
C2291 C2287 1.429 1_554 S
C2291 C2292 1.523 . S
C2292 C2276 1.368 1_554 S
C2292 C2288 1.368 . S
C2292 C2291 1.523 . S
H2293 C2268 0.950 . S
H2294 C2270 0.950 . S
H2295 C2271 0.949 . S
H2296 C2273 0.950 . S
H2297 C2275 0.950 . S
C2298 C2299 1.349 . S
C2298 C2300 1.327 . S
C2298 H2323 0.950 . S
C2299 C2298 1.349 . S
C2299 C2315 1.349 1_554 S
C2300 C2298 1.327 . S
C2300 C2319 1.429 . S
C2300 H2324 0.950 . S
C2301 C2318 1.574 . S
C2301 C2320 1.368 1_556 S
C2301 H2325 0.949 . S
H2302 C2306 0.949 . S
C2303 C2304 1.349 1_556 S
C2303 C2305 1.327 . S
C2303 H2326 0.950 . S
C2304 C2303 1.349 1_554 S
C2304 C2316 1.349 . S
C2305 C2303 1.327 . S
C2305 C2321 1.429 1_556 S
C2305 H2327 0.950 . S
C2306 H2302 0.949 . S
C2306 C2314 1.574 . S
C2306 C2322 1.368 . S
H2307 C2315 0.950 . S
H2308 C2313 0.950 . S
H2309 C2314 0.949 . S
H2310 C2316 0.950 . S
H2311 C2317 0.950 . S
H2312 C2318 0.949 . S
C2313 H2308 0.950 . S
C2313 C2315 1.327 . S
C2313 C2319 1.429 1_556 S
C2314 C2306 1.574 . S
C2314 H2309 0.949 . S
C2314 C2320 1.368 . S
C2315 C2299 1.349 1_556 S
C2315 H2307 0.950 . S
C2315 C2313 1.327 . S
C2316 C2304 1.349 . S
C2316 H2310 0.950 . S
C2316 C2317 1.327 . S
C2317 H2311 0.950 . S
C2317 C2316 1.327 . S
C2317 C2321 1.429 . S
C2318 C2301 1.574 . S
C2318 H2312 0.949 . S
C2318 C2322 1.368 1_556 S
C2319 C2300 1.429 . S
C2319 C2313 1.429 1_554 S
C2319 C2320 1.523 . S
C2320 C2301 1.368 1_554 S
C2320 C2314 1.368 . S
C2320 C2319 1.523 . S
C2321 C2305 1.429 1_554 S
C2321 C2317 1.429 . S
C2321 C2322 1.523 . S
C2322 C2306 1.368 . S
C2322 C2318 1.368 1_554 S
C2322 C2321 1.523 . S
H2323 C2298 0.950 . S
H2324 C2300 0.950 . S
H2325 C2301 0.949 . S
H2326 C2303 0.950 . S
H2327 C2305 0.950 . S
C2328 C2329 1.349 . S
C2328 C2330 1.327 . S
C2328 H2353 0.950 . S
C2329 C2328 1.349 . S
C2329 C2345 1.349 . S
C2330 C2328 1.327 . S
C2330 C2349 1.429 . S
C2330 H2354 0.950 . S
C2331 C2348 1.574 . S
C2331 C2350 1.368 . S
C2331 H2355 0.949 . S
H2332 C2336 0.949 . S
C2333 C2334 1.349 . S
C2333 C2335 1.327 . S
C2333 H2356 0.950 . S
C2334 C2333 1.349 . S
C2334 C2346 1.349 . S
C2335 C2333 1.327 . S
C2335 C2351 1.429 . S
C2335 H2357 0.950 . S
C2336 H2332 0.949 . S
C2336 C2344 1.574 . S
C2336 C2352 1.368 . S
H2337 C2345 0.950 . S
H2338 C2343 0.950 . S
H2339 C2344 0.949 . S
H2340 C2346 0.950 . S
H2341 C2347 0.950 . S
H2342 C2348 0.949 . S
C2343 H2338 0.950 . S
C2343 C2345 1.327 . S
C2343 C2349 1.429 . S
C2344 C2336 1.574 . S
C2344 H2339 0.949 . S
C2344 C2350 1.368 . S
C2345 C2329 1.349 . S
C2345 H2337 0.950 . S
C2345 C2343 1.327 . S
C2346 C2334 1.349 . S
C2346 H2340 0.950 . S
C2346 C2347 1.327 . S
C2347 H2341 0.950 . S
C2347 C2346 1.327 . S
C2347 C2351 1.429 . S
C2348 C2331 1.574 . S
C2348 H2342 0.949 . S
C2348 C2352 1.368 . S
C2349 C2330 1.429 . S
C2349 C2343 1.429 . S
C2349 C2350 1.523 . S
C2350 C2331 1.368 . S
C2350 C2344 1.368 . S
C2350 C2349 1.523 . S
C2351 C2335 1.429 . S
C2351 C2347 1.429 . S
C2351 C2352 1.523 . S
C2352 C2336 1.368 . S
C2352 C2348 1.368 . S
C2352 C2351 1.523 . S
H2353 C2328 0.950 . S
H2354 C2330 0.950 . S
H2355 C2331 0.949 . S
H2356 C2333 0.950 . S
H2357 C2335 0.950 . S
C2358 C2359 1.349 . S
C2358 C2360 1.327 . S
C2358 H2383 0.950 . S
C2359 C2358 1.349 . S
C2359 C2375 1.349 . S
C2360 C2358 1.327 . S
C2360 C2379 1.429 . S
C2360 H2384 0.950 . S
C2361 C2378 1.574 . S
C2361 C2380 1.368 . S
C2361 H2385 0.949 . S
H2362 C2366 0.949 . S
C2363 C2364 1.349 . S
C2363 C2365 1.327 . S
C2363 H2386 0.950 . S
C2364 C2363 1.349 . S
C2364 C2376 1.349 . S
C2365 C2363 1.327 . S
C2365 C2381 1.429 . S
C2365 H2387 0.950 . S
C2366 H2362 0.949 . S
C2366 C2374 1.574 . S
C2366 C2382 1.368 . S
H2367 C2375 0.950 . S
H2368 C2373 0.950 . S
H2369 C2374 0.949 . S
H2370 C2376 0.950 . S
H2371 C2377 0.950 . S
H2372 C2378 0.949 . S
C2373 H2368 0.950 . S
C2373 C2375 1.327 . S
C2373 C2379 1.429 . S
C2374 C2366 1.574 . S
C2374 H2369 0.949 . S
C2374 C2380 1.368 . S
C2375 C2359 1.349 . S
C2375 H2367 0.950 . S
C2375 C2373 1.327 . S
C2376 C2364 1.349 . S
C2376 H2370 0.950 . S
C2376 C2377 1.327 . S
C2377 H2371 0.950 . S
C2377 C2376 1.327 . S
C2377 C2381 1.429 . S
C2378 C2361 1.574 . S
C2378 H2372 0.949 . S
C2378 C2382 1.368 . S
C2379 C2360 1.429 . S
C2379 C2373 1.429 . S
C2379 C2380 1.523 . S
C2380 C2361 1.368 . S
C2380 C2374 1.368 . S
C2380 C2379 1.523 . S
C2381 C2365 1.429 . S
C2381 C2377 1.429 . S
C2381 C2382 1.523 . S
C2382 C2366 1.368 . S
C2382 C2378 1.368 . S
C2382 C2381 1.523 . S
H2383 C2358 0.950 . S
H2384 C2360 0.950 . S
H2385 C2361 0.949 . S
H2386 C2363 0.950 . S
H2387 C2365 0.950 . S
C2388 C2389 1.349 . S
C2388 C2390 1.327 . S
C2388 H2413 0.950 . S
C2389 C2388 1.349 . S
C2389 C2405 1.349 . S
C2390 C2388 1.327 . S
C2390 C2409 1.429 . S
C2390 H2414 0.950 . S
C2391 C2408 1.574 . S
C2391 C2410 1.368 . S
C2391 H2415 0.949 . S
H2392 C2396 0.949 . S
C2393 C2394 1.349 . S
C2393 C2395 1.327 . S
C2393 H2416 0.950 . S
C2394 C2393 1.349 . S
C2394 C2406 1.349 . S
C2395 C2393 1.327 . S
C2395 C2411 1.429 . S
C2395 H2417 0.950 . S
C2396 H2392 0.949 . S
C2396 C2404 1.574 . S
C2396 C2412 1.368 . S
H2397 C2405 0.950 . S
H2398 C2403 0.950 . S
H2399 C2404 0.949 . S
H2400 C2406 0.950 . S
H2401 C2407 0.950 . S
H2402 C2408 0.949 . S
C2403 H2398 0.950 . S
C2403 C2405 1.327 . S
C2403 C2409 1.429 . S
C2404 C2396 1.574 . S
C2404 H2399 0.949 . S
C2404 C2410 1.368 . S
C2405 C2389 1.349 . S
C2405 H2397 0.950 . S
C2405 C2403 1.327 . S
C2406 C2394 1.349 . S
C2406 H2400 0.950 . S
C2406 C2407 1.327 . S
C2407 H2401 0.950 . S
C2407 C2406 1.327 . S
C2407 C2411 1.429 . S
C2408 C2391 1.574 . S
C2408 H2402 0.949 . S
C2408 C2412 1.368 . S
C2409 C2390 1.429 . S
C2409 C2403 1.429 . S
C2409 C2410 1.523 . S
C2410 C2391 1.368 . S
C2410 C2404 1.368 . S
C2410 C2409 1.523 . S
C2411 C2395 1.429 . S
C2411 C2407 1.429 . S
C2411 C2412 1.523 . S
C2412 C2396 1.368 . S
C2412 C2408 1.368 . S
C2412 C2411 1.523 . S
H2413 C2388 0.950 . S
H2414 C2390 0.950 . S
H2415 C2391 0.949 . S
H2416 C2393 0.950 . S
H2417 C2395 0.950 . S
C2418 C2419 1.349 . S
C2418 C2420 1.327 . S
C2418 H2443 0.950 . S
C2419 C2418 1.349 . S
C2419 C2435 1.349 . S
C2420 C2418 1.327 . S
C2420 C2439 1.429 . S
C2420 H2444 0.950 . S
C2421 C2438 1.574 . S
C2421 C2440 1.368 . S
C2421 H2445 0.949 . S
H2422 C2426 0.949 . S
C2423 C2424 1.349 . S
C2423 C2425 1.327 . S
C2423 H2446 0.950 . S
C2424 C2423 1.349 . S
C2424 C2436 1.349 . S
C2425 C2423 1.327 . S
C2425 C2441 1.429 . S
C2425 H2447 0.950 . S
C2426 H2422 0.949 . S
C2426 C2434 1.574 . S
C2426 C2442 1.368 . S
H2427 C2435 0.950 . S
H2428 C2433 0.950 . S
H2429 C2434 0.949 . S
H2430 C2436 0.950 . S
H2431 C2437 0.950 . S
H2432 C2438 0.949 . S
C2433 H2428 0.950 . S
C2433 C2435 1.327 . S
C2433 C2439 1.429 . S
C2434 C2426 1.574 . S
C2434 H2429 0.949 . S
C2434 C2440 1.368 . S
C2435 C2419 1.349 . S
C2435 H2427 0.950 . S
C2435 C2433 1.327 . S
C2436 C2424 1.349 . S
C2436 H2430 0.950 . S
C2436 C2437 1.327 . S
C2437 H2431 0.950 . S
C2437 C2436 1.327 . S
C2437 C2441 1.429 . S
C2438 C2421 1.574 . S
C2438 H2432 0.949 . S
C2438 C2442 1.368 . S
C2439 C2420 1.429 . S
C2439 C2433 1.429 . S
C2439 C2440 1.523 . S
C2440 C2421 1.368 . S
C2440 C2434 1.368 . S
C2440 C2439 1.523 . S
C2441 C2425 1.429 . S
C2441 C2437 1.429 . S
C2441 C2442 1.523 . S
C2442 C2426 1.368 . S
C2442 C2438 1.368 . S
C2442 C2441 1.523 . S
H2443 C2418 0.950 . S
H2444 C2420 0.950 . S
H2445 C2421 0.949 . S
H2446 C2423 0.950 . S
H2447 C2425 0.950 . S
C2448 C2449 1.349 . S
C2448 C2450 1.327 . S
C2448 H2473 0.950 . S
C2449 C2448 1.349 . S
C2449 C2465 1.349 . S
C2450 C2448 1.327 . S
C2450 C2469 1.429 . S
C2450 H2474 0.950 . S
C2451 C2468 1.574 . S
C2451 C2470 1.362 1_556 S
C2451 H2475 0.955 . S
H2452 C2456 0.949 . S
C2453 C2454 1.349 . S
C2453 C2455 1.328 . S
C2453 H2476 0.950 1_554 S
C2454 C2453 1.349 . S
C2454 C2466 1.349 . S
C2455 C2453 1.328 . S
C2455 C2471 1.452 . S
C2455 H2477 0.925 1_554 S
C2456 H2452 0.949 . S
C2456 C2464 1.574 . S
C2456 C2472 1.368 . S
H2457 C2465 0.950 1_556 S
H2458 C2463 0.926 1_556 S
H2459 C2464 0.949 . S
H2460 C2466 0.950 . S
H2461 C2467 0.950 . S
H2462 C2468 0.955 . S
C2463 H2458 0.926 1_554 S
C2463 C2465 1.328 . S
C2463 C2469 1.452 . S
C2464 C2456 1.574 . S
C2464 H2459 0.949 . S
C2464 C2470 1.368 . S
C2465 C2449 1.349 . S
C2465 H2457 0.950 1_554 S
C2465 C2463 1.328 . S
C2466 C2454 1.349 . S
C2466 H2460 0.950 . S
C2466 C2467 1.327 . S
C2467 H2461 0.950 . S
C2467 C2466 1.327 . S
C2467 C2471 1.429 . S
C2468 C2451 1.574 . S
C2468 H2462 0.955 . S
C2468 C2472 1.362 1_556 S
C2469 C2450 1.429 . S
C2469 C2463 1.452 . S
C2469 C2470 1.523 . S
C2470 C2451 1.362 1_554 S
C2470 C2464 1.368 . S
C2470 C2469 1.523 . S
C2471 C2455 1.452 . S
C2471 C2467 1.429 . S
C2471 C2472 1.523 . S
C2472 C2456 1.368 . S
C2472 C2468 1.362 1_554 S
C2472 C2471 1.523 . S
H2473 C2448 0.950 . S
H2474 C2450 0.950 . S
H2475 C2451 0.955 . S
H2476 C2453 0.950 1_556 S
H2477 C2455 0.925 1_556 S
C2478 C2479 1.349 . S
C2478 C2480 1.327 . S
C2478 H2503 0.950 . S
C2479 C2478 1.349 . S
C2479 C2495 1.349 . S
C2480 C2478 1.327 . S
C2480 C2499 1.429 . S
C2480 H2504 0.950 . S
C2481 C2498 1.574 . S
C2481 C2500 1.363 1_556 S
C2481 H2505 0.954 . S
H2482 C2486 0.949 . S
C2483 C2484 1.349 . S
C2483 C2485 1.328 . S
C2483 H2506 0.950 1_554 S
C2484 C2483 1.349 . S
C2484 C2496 1.349 . S
C2485 C2483 1.328 . S
C2485 C2501 1.452 . S
C2485 H2507 0.925 1_554 S
C2486 H2482 0.949 . S
C2486 C2494 1.574 . S
C2486 C2502 1.368 . S
H2487 C2495 0.950 1_556 S
H2488 C2493 0.924 1_556 S
H2489 C2494 0.949 . S
H2490 C2496 0.950 . S
H2491 C2497 0.950 . S
H2492 C2498 0.954 . S
C2493 H2488 0.924 1_554 S
C2493 C2495 1.328 . S
C2493 C2499 1.453 . S
C2494 C2486 1.574 . S
C2494 H2489 0.949 . S
C2494 C2500 1.368 . S
C2495 C2479 1.349 . S
C2495 H2487 0.950 1_554 S
C2495 C2493 1.328 . S
C2496 C2484 1.349 . S
C2496 H2490 0.950 . S
C2496 C2497 1.327 . S
C2497 H2491 0.950 . S
C2497 C2496 1.327 . S
C2497 C2501 1.429 . S
C2498 C2481 1.574 . S
C2498 H2492 0.954 . S
C2498 C2502 1.363 1_556 S
C2499 C2480 1.429 . S
C2499 C2493 1.453 . S
C2499 C2500 1.523 . S
C2500 C2481 1.363 1_554 S
C2500 C2494 1.368 . S
C2500 C2499 1.523 . S
C2501 C2485 1.452 . S
C2501 C2497 1.429 . S
C2501 C2502 1.523 . S
C2502 C2486 1.368 . S
C2502 C2498 1.363 1_554 S
C2502 C2501 1.523 . S
H2503 C2478 0.950 . S
H2504 C2480 0.950 . S
H2505 C2481 0.954 . S
H2506 C2483 0.950 1_556 S
H2507 C2485 0.925 1_556 S
C2508 C2509 1.349 . S
C2508 C2510 1.327 . S
C2508 H2533 0.950 . S
C2509 C2508 1.349 . S
C2509 C2525 1.378 . S
C2510 C2508 1.327 . S
C2510 C2529 1.429 . S
C2510 H2534 0.950 . S
C2511 C2528 1.574 . S
C2511 C2530 1.346 1_556 S
C2511 H2535 0.970 . S
H2512 C2516 0.949 . S
C2513 C2514 1.376 . S
C2513 C2515 1.327 . S
C2513 H2536 0.923 1_554 S
C2514 C2513 1.376 . S
C2514 C2526 1.349 . S
C2515 C2513 1.327 . S
C2515 C2531 1.437 . S
C2515 H2537 0.940 1_554 S
C2516 H2512 0.949 . S
C2516 C2524 1.574 . S
C2516 C2532 1.368 . S
H2517 C2525 0.922 1_556 S
H2518 C2523 0.939 1_556 S
H2519 C2524 0.949 . S
H2520 C2526 0.950 . S
H2521 C2527 0.950 . S
H2522 C2528 0.970 . S
C2523 H2518 0.939 1_554 S
C2523 C2525 1.327 . S
C2523 C2529 1.439 . S
C2524 C2516 1.574 . S
C2524 H2519 0.949 . S
C2524 C2530 1.368 . S
C2525 C2509 1.378 . S
C2525 H2517 0.922 1_554 S
C2525 C2523 1.327 . S
C2526 C2514 1.349 . S
C2526 H2520 0.950 . S
C2526 C2527 1.327 . S
C2527 H2521 0.950 . S
C2527 C2526 1.327 . S
C2527 C2531 1.429 . S
C2528 C2511 1.574 . S
C2528 H2522 0.970 . S
C2528 C2532 1.346 1_556 S
C2529 C2510 1.429 . S
C2529 C2523 1.439 . S
C2529 C2530 1.523 . S
C2530 C2511 1.346 1_554 S
C2530 C2524 1.368 . S
C2530 C2529 1.523 . S
C2531 C2515 1.437 . S
C2531 C2527 1.429 . S
C2531 C2532 1.523 . S
C2532 C2516 1.368 . S
C2532 C2528 1.346 1_554 S
C2532 C2531 1.523 . S
H2533 C2508 0.950 . S
H2534 C2510 0.950 . S
H2535 C2511 0.970 . S
H2536 C2513 0.923 1_556 S
H2537 C2515 0.940 1_556 S
C2538 C2539 1.349 . S
C2538 C2540 1.327 . S
C2538 H2563 0.950 . S
C2539 C2538 1.349 . S
C2539 C2555 1.349 . S
C2540 C2538 1.327 . S
C2540 C2559 1.429 . S
C2540 H2564 0.950 . S
C2541 C2558 1.574 . S
C2541 C2560 1.368 . S
C2541 H2565 0.949 . S
H2542 C2546 0.949 . S
C2543 C2544 1.349 . S
C2543 C2545 1.327 . S
C2543 H2566 0.950 . S
C2544 C2543 1.349 . S
C2544 C2556 1.349 . S
C2545 C2543 1.327 . S
C2545 C2561 1.429 . S
C2545 H2567 0.950 . S
C2546 H2542 0.949 . S
C2546 C2554 1.574 . S
C2546 C2562 1.368 . S
H2547 C2555 0.950 . S
H2548 C2553 0.950 . S
H2549 C2554 0.949 . S
H2550 C2556 0.950 . S
H2551 C2557 0.950 . S
H2552 C2558 0.949 . S
C2553 H2548 0.950 . S
C2553 C2555 1.327 . S
C2553 C2559 1.429 . S
C2554 C2546 1.574 . S
C2554 H2549 0.949 . S
C2554 C2560 1.368 . S
C2555 C2539 1.349 . S
C2555 H2547 0.950 . S
C2555 C2553 1.327 . S
C2556 C2544 1.349 . S
C2556 H2550 0.950 . S
C2556 C2557 1.327 . S
C2557 H2551 0.950 . S
C2557 C2556 1.327 . S
C2557 C2561 1.429 . S
C2558 C2541 1.574 . S
C2558 H2552 0.949 . S
C2558 C2562 1.368 . S
C2559 C2540 1.429 . S
C2559 C2553 1.429 . S
C2559 C2560 1.523 . S
C2560 C2541 1.368 . S
C2560 C2554 1.368 . S
C2560 C2559 1.523 . S
C2561 C2545 1.429 . S
C2561 C2557 1.429 . S
C2561 C2562 1.523 . S
C2562 C2546 1.368 . S
C2562 C2558 1.368 . S
C2562 C2561 1.523 . S
H2563 C2538 0.950 . S
H2564 C2540 0.950 . S
H2565 C2541 0.949 . S
H2566 C2543 0.950 . S
H2567 C2545 0.950 . S
C2568 C2569 1.349 . S
C2568 C2570 1.327 . S
C2568 H2593 0.950 . S
C2569 C2568 1.349 . S
C2569 C2585 1.349 . S
C2570 C2568 1.327 . S
C2570 C2589 1.429 . S
C2570 H2594 0.950 . S
C2571 C2588 1.574 . S
C2571 C2590 1.368 . S
C2571 H2595 0.949 . S
H2572 C2576 0.949 . S
C2573 C2574 1.349 . S
C2573 C2575 1.327 . S
C2573 H2596 0.950 . S
C2574 C2573 1.349 . S
C2574 C2586 1.349 . S
C2575 C2573 1.327 . S
C2575 C2591 1.429 . S
C2575 H2597 0.950 . S
C2576 H2572 0.949 . S
C2576 C2584 1.574 . S
C2576 C2592 1.368 . S
H2577 C2585 0.950 . S
H2578 C2583 0.950 . S
H2579 C2584 0.949 . S
H2580 C2586 0.950 . S
H2581 C2587 0.950 . S
H2582 C2588 0.949 . S
C2583 H2578 0.950 . S
C2583 C2585 1.327 . S
C2583 C2589 1.429 . S
C2584 C2576 1.574 . S
C2584 H2579 0.949 . S
C2584 C2590 1.368 . S
C2585 C2569 1.349 . S
C2585 H2577 0.950 . S
C2585 C2583 1.327 . S
C2586 C2574 1.349 . S
C2586 H2580 0.950 . S
C2586 C2587 1.327 . S
C2587 H2581 0.950 . S
C2587 C2586 1.327 . S
C2587 C2591 1.429 . S
C2588 C2571 1.574 . S
C2588 H2582 0.949 . S
C2588 C2592 1.368 . S
C2589 C2570 1.429 . S
C2589 C2583 1.429 . S
C2589 C2590 1.523 . S
C2590 C2571 1.368 . S
C2590 C2584 1.368 . S
C2590 C2589 1.523 . S
C2591 C2575 1.429 . S
C2591 C2587 1.429 . S
C2591 C2592 1.523 . S
C2592 C2576 1.368 . S
C2592 C2588 1.368 . S
C2592 C2591 1.523 . S
H2593 C2568 0.950 . S
H2594 C2570 0.950 . S
H2595 C2571 0.949 . S
H2596 C2573 0.950 . S
H2597 C2575 0.950 . S
C2598 C2599 1.349 . S
C2598 C2600 1.327 . S
C2598 H2623 0.950 . S
C2599 C2598 1.349 . S
C2599 C2615 1.349 . S
C2600 C2598 1.327 . S
C2600 C2619 1.429 . S
C2600 H2624 0.950 . S
C2601 C2618 1.574 . S
C2601 C2620 1.368 . S
C2601 H2625 0.949 . S
H2602 C2606 0.949 . S
C2603 C2604 1.349 . S
C2603 C2605 1.327 . S
C2603 H2626 0.950 . S
C2604 C2603 1.349 . S
C2604 C2616 1.349 . S
C2605 C2603 1.327 . S
C2605 C2621 1.429 . S
C2605 H2627 0.950 . S
C2606 H2602 0.949 . S
C2606 C2614 1.574 . S
C2606 C2622 1.368 . S
H2607 C2615 0.950 . S
H2608 C2613 0.950 . S
H2609 C2614 0.949 . S
H2610 C2616 0.950 . S
H2611 C2617 0.950 . S
H2612 C2618 0.949 . S
C2613 H2608 0.950 . S
C2613 C2615 1.327 . S
C2613 C2619 1.429 . S
C2614 C2606 1.574 . S
C2614 H2609 0.949 . S
C2614 C2620 1.368 . S
C2615 C2599 1.349 . S
C2615 H2607 0.950 . S
C2615 C2613 1.327 . S
C2616 C2604 1.349 . S
C2616 H2610 0.950 . S
C2616 C2617 1.327 . S
C2617 H2611 0.950 . S
C2617 C2616 1.327 . S
C2617 C2621 1.429 . S
C2618 C2601 1.574 . S
C2618 H2612 0.949 . S
C2618 C2622 1.368 . S
C2619 C2600 1.429 . S
C2619 C2613 1.429 . S
C2619 C2620 1.523 . S
C2620 C2601 1.368 . S
C2620 C2614 1.368 . S
C2620 C2619 1.523 . S
C2621 C2605 1.429 . S
C2621 C2617 1.429 . S
C2621 C2622 1.523 . S
C2622 C2606 1.368 . S
C2622 C2618 1.368 . S
C2622 C2621 1.523 . S
H2623 C2598 0.950 . S
H2624 C2600 0.950 . S
H2625 C2601 0.949 . S
H2626 C2603 0.950 . S
H2627 C2605 0.950 . S
C2628 C2629 1.349 . S
C2628 C2630 1.327 . S
C2628 H2653 0.950 . S
C2629 C2628 1.349 . S
C2629 C2645 1.349 . S
C2630 C2628 1.327 . S
C2630 C2649 1.429 . S
C2630 H2654 0.950 . S
C2631 C2648 1.574 . S
C2631 C2650 1.368 . S
C2631 H2655 0.949 . S
H2632 C2636 0.949 . S
C2633 C2634 1.349 . S
C2633 C2635 1.327 . S
C2633 H2656 0.950 . S
C2634 C2633 1.349 . S
C2634 C2646 1.349 . S
C2635 C2633 1.327 . S
C2635 C2651 1.429 . S
C2635 H2657 0.950 . S
C2636 H2632 0.949 . S
C2636 C2644 1.574 . S
C2636 C2652 1.368 . S
H2637 C2645 0.950 . S
H2638 C2643 0.950 . S
H2639 C2644 0.949 . S
H2640 C2646 0.950 . S
H2641 C2647 0.950 . S
H2642 C2648 0.949 . S
C2643 H2638 0.950 . S
C2643 C2645 1.327 . S
C2643 C2649 1.429 . S
C2644 C2636 1.574 . S
C2644 H2639 0.949 . S
C2644 C2650 1.368 . S
C2645 C2629 1.349 . S
C2645 H2637 0.950 . S
C2645 C2643 1.327 . S
C2646 C2634 1.349 . S
C2646 H2640 0.950 . S
C2646 C2647 1.327 . S
C2647 H2641 0.950 . S
C2647 C2646 1.327 . S
C2647 C2651 1.429 . S
C2648 C2631 1.574 . S
C2648 H2642 0.949 . S
C2648 C2652 1.368 . S
C2649 C2630 1.429 . S
C2649 C2643 1.429 . S
C2649 C2650 1.523 . S
C2650 C2631 1.368 . S
C2650 C2644 1.368 . S
C2650 C2649 1.523 . S
C2651 C2635 1.429 . S
C2651 C2647 1.429 . S
C2651 C2652 1.523 . S
C2652 C2636 1.368 . S
C2652 C2648 1.368 . S
C2652 C2651 1.523 . S
H2653 C2628 0.950 . S
H2654 C2630 0.950 . S
H2655 C2631 0.949 . S
H2656 C2633 0.950 . S
H2657 C2635 0.950 . S
C2658 C2659 1.349 . S
C2658 C2660 1.327 . S
C2658 H2683 0.950 . S
C2659 C2658 1.349 . S
C2659 C2675 1.349 . S
C2660 C2658 1.327 . S
C2660 C2679 1.429 . S
C2660 H2684 0.950 . S
C2661 C2678 1.574 . S
C2661 C2680 1.368 . S
C2661 H2685 0.949 . S
H2662 C2666 0.949 . S
C2663 C2664 1.349 . S
C2663 C2665 1.327 . S
C2663 H2686 0.950 . S
C2664 C2663 1.349 . S
C2664 C2676 1.349 . S
C2665 C2663 1.327 . S
C2665 C2681 1.429 . S
C2665 H2687 0.950 . S
C2666 H2662 0.949 . S
C2666 C2674 1.574 . S
C2666 C2682 1.368 . S
H2667 C2675 0.950 . S
H2668 C2673 0.950 . S
H2669 C2674 0.949 . S
H2670 C2676 0.950 . S
H2671 C2677 0.950 . S
H2672 C2678 0.949 . S
C2673 H2668 0.950 . S
C2673 C2675 1.327 . S
C2673 C2679 1.429 . S
C2674 C2666 1.574 . S
C2674 H2669 0.949 . S
C2674 C2680 1.368 . S
C2675 C2659 1.349 . S
C2675 H2667 0.950 . S
C2675 C2673 1.327 . S
C2676 C2664 1.349 . S
C2676 H2670 0.950 . S
C2676 C2677 1.327 . S
C2677 H2671 0.950 . S
C2677 C2676 1.327 . S
C2677 C2681 1.429 . S
C2678 C2661 1.574 . S
C2678 H2672 0.949 . S
C2678 C2682 1.368 . S
C2679 C2660 1.429 . S
C2679 C2673 1.429 . S
C2679 C2680 1.523 . S
C2680 C2661 1.368 . S
C2680 C2674 1.368 . S
C2680 C2679 1.523 . S
C2681 C2665 1.429 . S
C2681 C2677 1.429 . S
C2681 C2682 1.523 . S
C2682 C2666 1.368 . S
C2682 C2678 1.368 . S
C2682 C2681 1.523 . S
H2683 C2658 0.950 . S
H2684 C2660 0.950 . S
H2685 C2661 0.949 . S
H2686 C2663 0.950 . S
H2687 C2665 0.950 . S
C2688 C2689 1.349 . S
C2688 C2690 1.327 . S
C2688 H2713 0.950 . S
C2689 C2688 1.349 . S
C2689 C2705 1.349 . S
C2690 C2688 1.327 . S
C2690 C2709 1.429 . S
C2690 H2714 0.950 . S
C2691 C2708 1.574 . S
C2691 C2710 1.368 . S
C2691 H2715 0.949 . S
H2692 C2696 0.949 . S
C2693 C2694 1.349 . S
C2693 C2695 1.327 . S
C2693 H2716 0.950 . S
C2694 C2693 1.349 . S
C2694 C2706 1.349 . S
C2695 C2693 1.327 . S
C2695 C2711 1.429 . S
C2695 H2717 0.950 . S
C2696 H2692 0.949 . S
C2696 C2704 1.574 . S
C2696 C2712 1.368 . S
H2697 C2705 0.950 . S
H2698 C2703 0.950 . S
H2699 C2704 0.949 . S
H2700 C2706 0.950 . S
H2701 C2707 0.950 . S
H2702 C2708 0.949 . S
C2703 H2698 0.950 . S
C2703 C2705 1.327 . S
C2703 C2709 1.429 . S
C2704 C2696 1.574 . S
C2704 H2699 0.949 . S
C2704 C2710 1.368 . S
C2705 C2689 1.349 . S
C2705 H2697 0.950 . S
C2705 C2703 1.327 . S
C2706 C2694 1.349 . S
C2706 H2700 0.950 . S
C2706 C2707 1.327 . S
C2707 H2701 0.950 . S
C2707 C2706 1.327 . S
C2707 C2711 1.429 . S
C2708 C2691 1.574 . S
C2708 H2702 0.949 . S
C2708 C2712 1.368 . S
C2709 C2690 1.429 . S
C2709 C2703 1.429 . S
C2709 C2710 1.523 . S
C2710 C2691 1.368 . S
C2710 C2704 1.368 . S
C2710 C2709 1.523 . S
C2711 C2695 1.429 . S
C2711 C2707 1.429 . S
C2711 C2712 1.523 . S
C2712 C2696 1.368 . S
C2712 C2708 1.368 . S
C2712 C2711 1.523 . S
H2713 C2688 0.950 . S
H2714 C2690 0.950 . S
H2715 C2691 0.949 . S
H2716 C2693 0.950 . S
H2717 C2695 0.950 . S
C2718 C2719 1.349 . S
C2718 C2720 1.327 . S
C2718 H2743 0.950 . S
C2719 C2718 1.349 . S
C2719 C2735 1.349 . S
C2720 C2718 1.327 . S
C2720 C2739 1.429 . S
C2720 H2744 0.950 . S
C2721 C2738 1.574 . S
C2721 C2740 1.368 . S
C2721 H2745 0.949 . S
H2722 C2726 0.949 . S
C2723 C2724 1.349 . S
C2723 C2725 1.327 . S
C2723 H2746 0.950 . S
C2724 C2723 1.349 . S
C2724 C2736 1.349 . S
C2725 C2723 1.327 . S
C2725 C2741 1.429 . S
C2725 H2747 0.950 . S
C2726 H2722 0.949 . S
C2726 C2734 1.574 . S
C2726 C2742 1.368 . S
H2727 C2735 0.950 . S
H2728 C2733 0.950 . S
H2729 C2734 0.949 . S
H2730 C2736 0.950 . S
H2731 C2737 0.950 . S
H2732 C2738 0.949 . S
C2733 H2728 0.950 . S
C2733 C2735 1.327 . S
C2733 C2739 1.429 . S
C2734 C2726 1.574 . S
C2734 H2729 0.949 . S
C2734 C2740 1.368 . S
C2735 C2719 1.349 . S
C2735 H2727 0.950 . S
C2735 C2733 1.327 . S
C2736 C2724 1.349 . S
C2736 H2730 0.950 . S
C2736 C2737 1.327 . S
C2737 H2731 0.950 . S
C2737 C2736 1.327 . S
C2737 C2741 1.429 . S
C2738 C2721 1.574 . S
C2738 H2732 0.949 . S
C2738 C2742 1.368 . S
C2739 C2720 1.429 . S
C2739 C2733 1.429 . S
C2739 C2740 1.523 . S
C2740 C2721 1.368 . S
C2740 C2734 1.368 . S
C2740 C2739 1.523 . S
C2741 C2725 1.429 . S
C2741 C2737 1.429 . S
C2741 C2742 1.523 . S
C2742 C2726 1.368 . S
C2742 C2738 1.368 . S
C2742 C2741 1.523 . S
H2743 C2718 0.950 . S
H2744 C2720 0.950 . S
H2745 C2721 0.949 . S
H2746 C2723 0.950 . S
H2747 C2725 0.950 . S
C2748 C2749 1.349 . S
C2748 C2750 1.327 . S
C2748 H2773 0.950 . S
C2749 C2748 1.349 . S
C2749 C2765 1.349 . S
C2750 C2748 1.327 . S
C2750 C2769 1.429 . S
C2750 H2774 0.950 . S
C2751 C2768 1.574 . S
C2751 C2770 1.368 . S
C2751 H2775 0.949 . S
H2752 C2756 0.949 . S
C2753 C2754 1.349 . S
C2753 C2755 1.327 . S
C2753 H2776 0.950 . S
C2754 C2753 1.349 . S
C2754 C2766 1.349 . S
C2755 C2753 1.327 . S
C2755 C2771 1.429 . S
C2755 H2777 0.950 . S
C2756 H2752 0.949 . S
C2756 C2764 1.574 . S
C2756 C2772 1.368 . S
H2757 C2765 0.950 . S
H2758 C2763 0.950 . S
H2759 C2764 0.949 . S
H2760 C2766 0.950 . S
H2761 C2767 0.950 . S
H2762 C2768 0.949 . S
C2763 H2758 0.950 . S
C2763 C2765 1.327 . S
C2763 C2769 1.429 . S
C2764 C2756 1.574 . S
C2764 H2759 0.949 . S
C2764 C2770 1.368 . S
C2765 C2749 1.349 . S
C2765 H2757 0.950 . S
C2765 C2763 1.327 . S
C2766 C2754 1.349 . S
C2766 H2760 0.950 . S
C2766 C2767 1.327 . S
C2767 H2761 0.950 . S
C2767 C2766 1.327 . S
C2767 C2771 1.429 . S
C2768 C2751 1.574 . S
C2768 H2762 0.949 . S
C2768 C2772 1.368 . S
C2769 C2750 1.429 . S
C2769 C2763 1.429 . S
C2769 C2770 1.523 . S
C2770 C2751 1.368 . S
C2770 C2764 1.368 . S
C2770 C2769 1.523 . S
C2771 C2755 1.429 . S
C2771 C2767 1.429 . S
C2771 C2772 1.523 . S
C2772 C2756 1.368 . S
C2772 C2768 1.368 . S
C2772 C2771 1.523 . S
H2773 C2748 0.950 . S
H2774 C2750 0.950 . S
H2775 C2751 0.949 . S
H2776 C2753 0.950 . S
H2777 C2755 0.950 . S
C2778 C2779 1.349 . S
C2778 C2780 1.327 . S
C2778 H2803 0.950 . S
C2779 C2778 1.349 . S
C2779 C2795 1.349 . S
C2780 C2778 1.327 . S
C2780 C2799 1.429 . S
C2780 H2804 0.950 . S
C2781 C2798 1.574 . S
C2781 C2800 1.368 . S
C2781 H2805 0.949 . S
H2782 C2786 0.949 . S
C2783 C2784 1.349 . S
C2783 C2785 1.327 . S
C2783 H2806 0.950 . S
C2784 C2783 1.349 . S
C2784 C2796 1.349 . S
C2785 C2783 1.327 . S
C2785 C2801 1.429 . S
C2785 H2807 0.950 . S
C2786 H2782 0.949 . S
C2786 C2794 1.574 . S
C2786 C2802 1.368 . S
H2787 C2795 0.950 . S
H2788 C2793 0.950 . S
H2789 C2794 0.949 . S
H2790 C2796 0.950 . S
H2791 C2797 0.950 . S
H2792 C2798 0.949 . S
C2793 H2788 0.950 . S
C2793 C2795 1.327 . S
C2793 C2799 1.429 . S
C2794 C2786 1.574 . S
C2794 H2789 0.949 . S
C2794 C2800 1.368 . S
C2795 C2779 1.349 . S
C2795 H2787 0.950 . S
C2795 C2793 1.327 . S
C2796 C2784 1.349 . S
C2796 H2790 0.950 . S
C2796 C2797 1.327 . S
C2797 H2791 0.950 . S
C2797 C2796 1.327 . S
C2797 C2801 1.429 . S
C2798 C2781 1.574 . S
C2798 H2792 0.949 . S
C2798 C2802 1.368 . S
C2799 C2780 1.429 . S
C2799 C2793 1.429 . S
C2799 C2800 1.523 . S
C2800 C2781 1.368 . S
C2800 C2794 1.368 . S
C2800 C2799 1.523 . S
C2801 C2785 1.429 . S
C2801 C2797 1.429 . S
C2801 C2802 1.523 . S
C2802 C2786 1.368 . S
C2802 C2798 1.368 . S
C2802 C2801 1.523 . S
H2803 C2778 0.950 . S
H2804 C2780 0.950 . S
H2805 C2781 0.949 . S
H2806 C2783 0.950 . S
H2807 C2785 0.950 . S
C2808 C2809 1.349 . S
C2808 C2810 1.327 . S
C2808 H2833 0.950 . S
C2809 C2808 1.349 . S
C2809 C2825 1.349 . S
C2810 C2808 1.327 . S
C2810 C2829 1.429 . S
C2810 H2834 0.950 . S
C2811 C2828 1.574 . S
C2811 C2830 1.368 . S
C2811 H2835 0.949 . S
H2812 C2816 0.949 . S
C2813 C2814 1.349 . S
C2813 C2815 1.327 . S
C2813 H2836 0.950 . S
C2814 C2813 1.349 . S
C2814 C2826 1.349 . S
C2815 C2813 1.327 . S
C2815 C2831 1.429 . S
C2815 H2837 0.950 . S
C2816 H2812 0.949 . S
C2816 C2824 1.574 . S
C2816 C2832 1.368 . S
H2817 C2825 0.950 . S
H2818 C2823 0.950 . S
H2819 C2824 0.949 . S
H2820 C2826 0.950 . S
H2821 C2827 0.950 . S
H2822 C2828 0.949 . S
C2823 H2818 0.950 . S
C2823 C2825 1.327 . S
C2823 C2829 1.429 . S
C2824 C2816 1.574 . S
C2824 H2819 0.949 . S
C2824 C2830 1.368 . S
C2825 C2809 1.349 . S
C2825 H2817 0.950 . S
C2825 C2823 1.327 . S
C2826 C2814 1.349 . S
C2826 H2820 0.950 . S
C2826 C2827 1.327 . S
C2827 H2821 0.950 . S
C2827 C2826 1.327 . S
C2827 C2831 1.429 . S
C2828 C2811 1.574 . S
C2828 H2822 0.949 . S
C2828 C2832 1.368 . S
C2829 C2810 1.429 . S
C2829 C2823 1.429 . S
C2829 C2830 1.523 . S
C2830 C2811 1.368 . S
C2830 C2824 1.368 . S
C2830 C2829 1.523 . S
C2831 C2815 1.429 . S
C2831 C2827 1.429 . S
C2831 C2832 1.523 . S
C2832 C2816 1.368 . S
C2832 C2828 1.368 . S
C2832 C2831 1.523 . S
H2833 C2808 0.950 . S
H2834 C2810 0.950 . S
H2835 C2811 0.949 . S
H2836 C2813 0.950 . S
H2837 C2815 0.950 . S
C2838 C2839 1.349 . S
C2838 C2840 1.327 . S
C2838 H2863 0.950 . S
C2839 C2838 1.349 . S
C2839 C2855 1.349 . S
C2840 C2838 1.327 . S
C2840 C2859 1.429 . S
C2840 H2864 0.950 . S
C2841 C2858 1.574 . S
C2841 C2860 1.368 . S
C2841 H2865 0.949 . S
H2842 C2846 0.949 . S
C2843 C2844 1.349 . S
C2843 C2845 1.327 . S
C2843 H2866 0.950 . S
C2844 C2843 1.349 . S
C2844 C2856 1.349 . S
C2845 C2843 1.327 . S
C2845 C2861 1.429 . S
C2845 H2867 0.950 . S
C2846 H2842 0.949 . S
C2846 C2854 1.574 . S
C2846 C2862 1.368 . S
H2847 C2855 0.950 . S
H2848 C2853 0.950 . S
H2849 C2854 0.949 . S
H2850 C2856 0.950 . S
H2851 C2857 0.950 . S
H2852 C2858 0.949 . S
C2853 H2848 0.950 . S
C2853 C2855 1.327 . S
C2853 C2859 1.429 . S
C2854 C2846 1.574 . S
C2854 H2849 0.949 . S
C2854 C2860 1.368 . S
C2855 C2839 1.349 . S
C2855 H2847 0.950 . S
C2855 C2853 1.327 . S
C2856 C2844 1.349 . S
C2856 H2850 0.950 . S
C2856 C2857 1.327 . S
C2857 H2851 0.950 . S
C2857 C2856 1.327 . S
C2857 C2861 1.429 . S
C2858 C2841 1.574 . S
C2858 H2852 0.949 . S
C2858 C2862 1.368 . S
C2859 C2840 1.429 . S
C2859 C2853 1.429 . S
C2859 C2860 1.523 . S
C2860 C2841 1.368 . S
C2860 C2854 1.368 . S
C2860 C2859 1.523 . S
C2861 C2845 1.429 . S
C2861 C2857 1.429 . S
C2861 C2862 1.523 . S
C2862 C2846 1.368 . S
C2862 C2858 1.368 . S
C2862 C2861 1.523 . S
H2863 C2838 0.950 . S
H2864 C2840 0.950 . S
H2865 C2841 0.949 . S
H2866 C2843 0.950 . S
H2867 C2845 0.950 . S
C2868 C2869 1.349 . S
C2868 C2870 1.327 . S
C2868 H2893 0.950 . S
C2869 C2868 1.349 . S
C2869 C2885 1.349 . S
C2870 C2868 1.327 . S
C2870 C2889 1.429 . S
C2870 H2894 0.950 . S
C2871 C2888 1.574 . S
C2871 C2890 1.368 . S
C2871 H2895 0.949 . S
H2872 C2876 0.949 . S
C2873 C2874 1.349 . S
C2873 C2875 1.327 . S
C2873 H2896 0.950 . S
C2874 C2873 1.349 . S
C2874 C2886 1.349 . S
C2875 C2873 1.327 . S
C2875 C2891 1.429 . S
C2875 H2897 0.950 . S
C2876 H2872 0.949 . S
C2876 C2884 1.574 . S
C2876 C2892 1.368 . S
H2877 C2885 0.950 . S
H2878 C2883 0.950 . S
H2879 C2884 0.949 . S
H2880 C2886 0.950 . S
H2881 C2887 0.950 . S
H2882 C2888 0.949 . S
C2883 H2878 0.950 . S
C2883 C2885 1.327 . S
C2883 C2889 1.429 . S
C2884 C2876 1.574 . S
C2884 H2879 0.949 . S
C2884 C2890 1.368 . S
C2885 C2869 1.349 . S
C2885 H2877 0.950 . S
C2885 C2883 1.327 . S
C2886 C2874 1.349 . S
C2886 H2880 0.950 . S
C2886 C2887 1.327 . S
C2887 H2881 0.950 . S
C2887 C2886 1.327 . S
C2887 C2891 1.429 . S
C2888 C2871 1.574 . S
C2888 H2882 0.949 . S
C2888 C2892 1.368 . S
C2889 C2870 1.429 . S
C2889 C2883 1.429 . S
C2889 C2890 1.523 . S
C2890 C2871 1.368 . S
C2890 C2884 1.368 . S
C2890 C2889 1.523 . S
C2891 C2875 1.429 . S
C2891 C2887 1.429 . S
C2891 C2892 1.523 . S
C2892 C2876 1.368 . S
C2892 C2888 1.368 . S
C2892 C2891 1.523 . S
H2893 C2868 0.950 . S
H2894 C2870 0.950 . S
H2895 C2871 0.949 . S
H2896 C2873 0.950 . S
H2897 C2875 0.950 . S
C2898 C2899 1.349 . S
C2898 C2900 1.327 . S
C2898 H2923 0.950 . S
C2899 C2898 1.349 . S
C2899 C2915 1.349 . S
C2900 C2898 1.327 . S
C2900 C2919 1.429 . S
C2900 H2924 0.950 . S
C2901 C2918 1.574 . S
C2901 C2920 1.368 . S
C2901 H2925 0.949 . S
H2902 C2906 0.949 . S
C2903 C2904 1.349 . S
C2903 C2905 1.327 . S
C2903 H2926 0.950 . S
C2904 C2903 1.349 . S
C2904 C2916 1.349 . S
C2905 C2903 1.327 . S
C2905 C2921 1.429 . S
C2905 H2927 0.950 . S
C2906 H2902 0.949 . S
C2906 C2914 1.574 . S
C2906 C2922 1.368 . S
H2907 C2915 0.950 . S
H2908 C2913 0.950 . S
H2909 C2914 0.949 . S
H2910 C2916 0.950 . S
H2911 C2917 0.950 . S
H2912 C2918 0.949 . S
C2913 H2908 0.950 . S
C2913 C2915 1.327 . S
C2913 C2919 1.429 . S
C2914 C2906 1.574 . S
C2914 H2909 0.949 . S
C2914 C2920 1.368 . S
C2915 C2899 1.349 . S
C2915 H2907 0.950 . S
C2915 C2913 1.327 . S
C2916 C2904 1.349 . S
C2916 H2910 0.950 . S
C2916 C2917 1.327 . S
C2917 H2911 0.950 . S
C2917 C2916 1.327 . S
C2917 C2921 1.429 . S
C2918 C2901 1.574 . S
C2918 H2912 0.949 . S
C2918 C2922 1.368 . S
C2919 C2900 1.429 . S
C2919 C2913 1.429 . S
C2919 C2920 1.523 . S
C2920 C2901 1.368 . S
C2920 C2914 1.368 . S
C2920 C2919 1.523 . S
C2921 C2905 1.429 . S
C2921 C2917 1.429 . S
C2921 C2922 1.523 . S
C2922 C2906 1.368 . S
C2922 C2918 1.368 . S
C2922 C2921 1.523 . S
H2923 C2898 0.950 . S
H2924 C2900 0.950 . S
H2925 C2901 0.949 . S
H2926 C2903 0.950 . S
H2927 C2905 0.950 . S
C2928 C2929 1.349 . S
C2928 C2930 1.327 . S
C2928 H2953 0.950 . S
C2929 C2928 1.349 . S
C2929 C2945 1.349 . S
C2930 C2928 1.327 . S
C2930 C2949 1.429 . S
C2930 H2954 0.950 . S
C2931 C2948 1.574 . S
C2931 C2950 1.368 . S
C2931 H2955 0.949 . S
H2932 C2936 0.949 . S
C2933 C2934 1.349 . S
C2933 C2935 1.327 . S
C2933 H2956 0.950 . S
C2934 C2933 1.349 . S
C2934 C2946 1.349 . S
C2935 C2933 1.327 . S
C2935 C2951 1.429 . S
C2935 H2957 0.950 . S
C2936 H2932 0.949 . S
C2936 C2944 1.574 . S
C2936 C2952 1.368 . S
H2937 C2945 0.950 . S
H2938 C2943 0.950 . S
H2939 C2944 0.949 . S
H2940 C2946 0.950 . S
H2941 C2947 0.950 . S
H2942 C2948 0.949 . S
C2943 H2938 0.950 . S
C2943 C2945 1.327 . S
C2943 C2949 1.429 . S
C2944 C2936 1.574 . S
C2944 H2939 0.949 . S
C2944 C2950 1.368 . S
C2945 C2929 1.349 . S
C2945 H2937 0.950 . S
C2945 C2943 1.327 . S
C2946 C2934 1.349 . S
C2946 H2940 0.950 . S
C2946 C2947 1.327 . S
C2947 H2941 0.950 . S
C2947 C2946 1.327 . S
C2947 C2951 1.429 . S
C2948 C2931 1.574 . S
C2948 H2942 0.949 . S
C2948 C2952 1.368 . S
C2949 C2930 1.429 . S
C2949 C2943 1.429 . S
C2949 C2950 1.523 . S
C2950 C2931 1.368 . S
C2950 C2944 1.368 . S
C2950 C2949 1.523 . S
C2951 C2935 1.429 . S
C2951 C2947 1.429 . S
C2951 C2952 1.523 . S
C2952 C2936 1.368 . S
C2952 C2948 1.368 . S
C2952 C2951 1.523 . S
H2953 C2928 0.950 . S
H2954 C2930 0.950 . S
H2955 C2931 0.949 . S
H2956 C2933 0.950 . S
H2957 C2935 0.950 . S
C2958 C2959 1.349 . S
C2958 C2960 1.327 . S
C2958 H2983 0.950 . S
C2959 C2958 1.349 . S
C2959 C2975 1.349 . S
C2960 C2958 1.327 . S
C2960 C2979 1.429 . S
C2960 H2984 0.950 . S
C2961 C2978 1.574 . S
C2961 C2980 1.368 . S
C2961 H2985 0.949 . S
H2962 C2966 0.949 . S
C2963 C2964 1.349 . S
C2963 C2965 1.327 . S
C2963 H2986 0.950 . S
C2964 C2963 1.349 . S
C2964 C2976 1.349 . S
C2965 C2963 1.327 . S
C2965 C2981 1.429 . S
C2965 H2987 0.950 . S
C2966 H2962 0.949 . S
C2966 C2974 1.574 . S
C2966 C2982 1.368 . S
H2967 C2975 0.950 . S
H2968 C2973 0.950 . S
H2969 C2974 0.949 . S
H2970 C2976 0.950 . S
H2971 C2977 0.950 . S
H2972 C2978 0.949 . S
C2973 H2968 0.950 . S
C2973 C2975 1.327 . S
C2973 C2979 1.429 . S
C2974 C2966 1.574 . S
C2974 H2969 0.949 . S
C2974 C2980 1.368 . S
C2975 C2959 1.349 . S
C2975 H2967 0.950 . S
C2975 C2973 1.327 . S
C2976 C2964 1.349 . S
C2976 H2970 0.950 . S
C2976 C2977 1.327 . S
C2977 H2971 0.950 . S
C2977 C2976 1.327 . S
C2977 C2981 1.429 . S
C2978 C2961 1.574 . S
C2978 H2972 0.949 . S
C2978 C2982 1.368 . S
C2979 C2960 1.429 . S
C2979 C2973 1.429 . S
C2979 C2980 1.523 . S
C2980 C2961 1.368 . S
C2980 C2974 1.368 . S
C2980 C2979 1.523 . S
C2981 C2965 1.429 . S
C2981 C2977 1.429 . S
C2981 C2982 1.523 . S
C2982 C2966 1.368 . S
C2982 C2978 1.368 . S
C2982 C2981 1.523 . S
H2983 C2958 0.950 . S
H2984 C2960 0.950 . S
H2985 C2961 0.949 . S
H2986 C2963 0.950 . S
H2987 C2965 0.950 . S
C2988 C2989 1.349 . S
C2988 C2990 1.327 . S
C2988 H3013 0.950 . S
C2989 C2988 1.349 . S
C2989 C3005 1.349 . S
C2990 C2988 1.327 . S
C2990 C3009 1.429 . S
C2990 H3014 0.950 . S
C2991 C3008 1.574 . S
C2991 C3010 1.368 . S
C2991 H3015 0.949 . S
H2992 C2996 0.949 . S
C2993 C2994 1.349 . S
C2993 C2995 1.327 . S
C2993 H3016 0.950 . S
C2994 C2993 1.349 . S
C2994 C3006 1.349 . S
C2995 C2993 1.327 . S
C2995 C3011 1.429 . S
C2995 H3017 0.950 . S
C2996 H2992 0.949 . S
C2996 C3004 1.574 . S
C2996 C3012 1.368 . S
H2997 C3005 0.950 . S
H2998 C3003 0.950 . S
H2999 C3004 0.949 . S
H3000 C3006 0.950 . S
H3001 C3007 0.950 . S
H3002 C3008 0.949 . S
C3003 H2998 0.950 . S
C3003 C3005 1.327 . S
C3003 C3009 1.429 . S
C3004 C2996 1.574 . S
C3004 H2999 0.949 . S
C3004 C3010 1.368 . S
C3005 C2989 1.349 . S
C3005 H2997 0.950 . S
C3005 C3003 1.327 . S
C3006 C2994 1.349 . S
C3006 H3000 0.950 . S
C3006 C3007 1.327 . S
C3007 H3001 0.950 . S
C3007 C3006 1.327 . S
C3007 C3011 1.429 . S
C3008 C2991 1.574 . S
C3008 H3002 0.949 . S
C3008 C3012 1.368 . S
C3009 C2990 1.429 . S
C3009 C3003 1.429 . S
C3009 C3010 1.523 . S
C3010 C2991 1.368 . S
C3010 C3004 1.368 . S
C3010 C3009 1.523 . S
C3011 C2995 1.429 . S
C3011 C3007 1.429 . S
C3011 C3012 1.523 . S
C3012 C2996 1.368 . S
C3012 C3008 1.368 . S
C3012 C3011 1.523 . S
H3013 C2988 0.950 . S
H3014 C2990 0.950 . S
H3015 C2991 0.949 . S
H3016 C2993 0.950 . S
H3017 C2995 0.950 . S
C3018 C3019 1.349 . S
C3018 C3020 1.327 . S
C3018 H3043 0.950 . S
C3019 C3018 1.349 . S
C3019 C3035 1.349 . S
C3020 C3018 1.327 . S
C3020 C3039 1.429 . S
C3020 H3044 0.950 . S
C3021 C3038 1.574 . S
C3021 C3040 1.368 . S
C3021 H3045 0.949 . S
H3022 C3026 0.949 . S
C3023 C3024 1.349 . S
C3023 C3025 1.327 . S
C3023 H3046 0.950 . S
C3024 C3023 1.349 . S
C3024 C3036 1.349 . S
C3025 C3023 1.327 . S
C3025 C3041 1.429 . S
C3025 H3047 0.950 . S
C3026 H3022 0.949 . S
C3026 C3034 1.574 . S
C3026 C3042 1.368 . S
H3027 C3035 0.950 . S
H3028 C3033 0.950 . S
H3029 C3034 0.949 . S
H3030 C3036 0.950 . S
H3031 C3037 0.950 . S
H3032 C3038 0.949 . S
C3033 H3028 0.950 . S
C3033 C3035 1.327 . S
C3033 C3039 1.429 . S
C3034 C3026 1.574 . S
C3034 H3029 0.949 . S
C3034 C3040 1.368 . S
C3035 C3019 1.349 . S
C3035 H3027 0.950 . S
C3035 C3033 1.327 . S
C3036 C3024 1.349 . S
C3036 H3030 0.950 . S
C3036 C3037 1.327 . S
C3037 H3031 0.950 . S
C3037 C3036 1.327 . S
C3037 C3041 1.429 . S
C3038 C3021 1.574 . S
C3038 H3032 0.949 . S
C3038 C3042 1.368 . S
C3039 C3020 1.429 . S
C3039 C3033 1.429 . S
C3039 C3040 1.523 . S
C3040 C3021 1.368 . S
C3040 C3034 1.368 . S
C3040 C3039 1.523 . S
C3041 C3025 1.429 . S
C3041 C3037 1.429 . S
C3041 C3042 1.523 . S
C3042 C3026 1.368 . S
C3042 C3038 1.368 . S
C3042 C3041 1.523 . S
H3043 C3018 0.950 . S
H3044 C3020 0.950 . S
H3045 C3021 0.949 . S
H3046 C3023 0.950 . S
H3047 C3025 0.950 . S
C3048 C3049 1.349 . S
C3048 C3050 1.327 . S
C3048 H3073 0.950 . S
C3049 C3048 1.349 . S
C3049 C3065 1.349 . S
C3050 C3048 1.327 . S
C3050 C3069 1.429 . S
C3050 H3074 0.950 . S
C3051 C3068 1.574 . S
C3051 C3070 1.368 . S
C3051 H3075 0.949 . S
H3052 C3056 0.949 . S
C3053 C3054 1.349 . S
C3053 C3055 1.327 . S
C3053 H3076 0.950 . S
C3054 C3053 1.349 . S
C3054 C3066 1.349 . S
C3055 C3053 1.327 . S
C3055 C3071 1.429 . S
C3055 H3077 0.950 . S
C3056 H3052 0.949 . S
C3056 C3064 1.574 . S
C3056 C3072 1.368 . S
H3057 C3065 0.950 . S
H3058 C3063 0.950 . S
H3059 C3064 0.949 . S
H3060 C3066 0.950 . S
H3061 C3067 0.950 . S
H3062 C3068 0.949 . S
C3063 H3058 0.950 . S
C3063 C3065 1.327 . S
C3063 C3069 1.429 . S
C3064 C3056 1.574 . S
C3064 H3059 0.949 . S
C3064 C3070 1.368 . S
C3065 C3049 1.349 . S
C3065 H3057 0.950 . S
C3065 C3063 1.327 . S
C3066 C3054 1.349 . S
C3066 H3060 0.950 . S
C3066 C3067 1.327 . S
C3067 H3061 0.950 . S
C3067 C3066 1.327 . S
C3067 C3071 1.429 . S
C3068 C3051 1.574 . S
C3068 H3062 0.949 . S
C3068 C3072 1.368 . S
C3069 C3050 1.429 . S
C3069 C3063 1.429 . S
C3069 C3070 1.523 . S
C3070 C3051 1.368 . S
C3070 C3064 1.368 . S
C3070 C3069 1.523 . S
C3071 C3055 1.429 . S
C3071 C3067 1.429 . S
C3071 C3072 1.523 . S
C3072 C3056 1.368 . S
C3072 C3068 1.368 . S
C3072 C3071 1.523 . S
H3073 C3048 0.950 . S
H3074 C3050 0.950 . S
H3075 C3051 0.949 . S
H3076 C3053 0.950 . S
H3077 C3055 0.950 . S
C3078 C3079 1.349 . S
C3078 C3080 1.327 . S
C3078 H3103 0.950 . S
C3079 C3078 1.349 . S
C3079 C3095 1.349 . S
C3080 C3078 1.327 . S
C3080 C3099 1.429 . S
C3080 H3104 0.950 . S
C3081 C3098 1.574 . S
C3081 C3100 1.368 . S
C3081 H3105 0.949 . S
H3082 C3086 0.949 . S
C3083 C3084 1.349 . S
C3083 C3085 1.327 . S
C3083 H3106 0.950 . S
C3084 C3083 1.349 . S
C3084 C3096 1.349 . S
C3085 C3083 1.327 . S
C3085 C3101 1.429 . S
C3085 H3107 0.950 . S
C3086 H3082 0.949 . S
C3086 C3094 1.574 . S
C3086 C3102 1.368 . S
H3087 C3095 0.950 . S
H3088 C3093 0.950 . S
H3089 C3094 0.949 . S
H3090 C3096 0.950 . S
H3091 C3097 0.950 . S
H3092 C3098 0.949 . S
C3093 H3088 0.950 . S
C3093 C3095 1.327 . S
C3093 C3099 1.429 . S
C3094 C3086 1.574 . S
C3094 H3089 0.949 . S
C3094 C3100 1.368 . S
C3095 C3079 1.349 . S
C3095 H3087 0.950 . S
C3095 C3093 1.327 . S
C3096 C3084 1.349 . S
C3096 H3090 0.950 . S
C3096 C3097 1.327 . S
C3097 H3091 0.950 . S
C3097 C3096 1.327 . S
C3097 C3101 1.429 . S
C3098 C3081 1.574 . S
C3098 H3092 0.949 . S
C3098 C3102 1.368 . S
C3099 C3080 1.429 . S
C3099 C3093 1.429 . S
C3099 C3100 1.523 . S
C3100 C3081 1.368 . S
C3100 C3094 1.368 . S
C3100 C3099 1.523 . S
C3101 C3085 1.429 . S
C3101 C3097 1.429 . S
C3101 C3102 1.523 . S
C3102 C3086 1.368 . S
C3102 C3098 1.368 . S
C3102 C3101 1.523 . S
H3103 C3078 0.950 . S
H3104 C3080 0.950 . S
H3105 C3081 0.949 . S
H3106 C3083 0.950 . S
H3107 C3085 0.950 . S
C3108 C3109 1.349 . S
C3108 C3110 1.327 . S
C3108 H3133 0.950 . S
C3109 C3108 1.349 . S
C3109 C3125 1.349 . S
C3110 C3108 1.327 . S
C3110 C3129 1.429 . S
C3110 H3134 0.950 . S
C3111 C3128 1.574 . S
C3111 C3130 1.368 . S
C3111 H3135 0.949 . S
H3112 C3116 0.949 . S
C3113 C3114 1.349 . S
C3113 C3115 1.327 . S
C3113 H3136 0.950 . S
C3114 C3113 1.349 . S
C3114 C3126 1.349 . S
C3115 C3113 1.327 . S
C3115 C3131 1.429 . S
C3115 H3137 0.950 . S
C3116 H3112 0.949 . S
C3116 C3124 1.574 . S
C3116 C3132 1.368 . S
H3117 C3125 0.950 . S
H3118 C3123 0.950 . S
H3119 C3124 0.949 . S
H3120 C3126 0.950 . S
H3121 C3127 0.950 . S
H3122 C3128 0.949 . S
C3123 H3118 0.950 . S
C3123 C3125 1.327 . S
C3123 C3129 1.429 . S
C3124 C3116 1.574 . S
C3124 H3119 0.949 . S
C3124 C3130 1.368 . S
C3125 C3109 1.349 . S
C3125 H3117 0.950 . S
C3125 C3123 1.327 . S
C3126 C3114 1.349 . S
C3126 H3120 0.950 . S
C3126 C3127 1.327 . S
C3127 H3121 0.950 . S
C3127 C3126 1.327 . S
C3127 C3131 1.429 . S
C3128 C3111 1.574 . S
C3128 H3122 0.949 . S
C3128 C3132 1.368 . S
C3129 C3110 1.429 . S
C3129 C3123 1.429 . S
C3129 C3130 1.523 . S
C3130 C3111 1.368 . S
C3130 C3124 1.368 . S
C3130 C3129 1.523 . S
C3131 C3115 1.429 . S
C3131 C3127 1.429 . S
C3131 C3132 1.523 . S
C3132 C3116 1.368 . S
C3132 C3128 1.368 . S
C3132 C3131 1.523 . S
H3133 C3108 0.950 . S
H3134 C3110 0.950 . S
H3135 C3111 0.949 . S
H3136 C3113 0.950 . S
H3137 C3115 0.950 . S
C3138 C3139 1.349 . S
C3138 C3140 1.327 . S
C3138 H3163 0.950 . S
C3139 C3138 1.349 . S
C3139 C3155 1.349 . S
C3140 C3138 1.327 . S
C3140 C3159 1.429 . S
C3140 H3164 0.950 . S
C3141 C3158 1.574 . S
C3141 C3160 1.368 . S
C3141 H3165 0.949 . S
H3142 C3146 0.949 . S
C3143 C3144 1.349 . S
C3143 C3145 1.327 . S
C3143 H3166 0.950 . S
C3144 C3143 1.349 . S
C3144 C3156 1.349 . S
C3145 C3143 1.327 . S
C3145 C3161 1.429 . S
C3145 H3167 0.950 . S
C3146 H3142 0.949 . S
C3146 C3154 1.574 . S
C3146 C3162 1.368 . S
H3147 C3155 0.950 . S
H3148 C3153 0.950 . S
H3149 C3154 0.949 . S
H3150 C3156 0.950 . S
H3151 C3157 0.950 . S
H3152 C3158 0.949 . S
C3153 H3148 0.950 . S
C3153 C3155 1.327 . S
C3153 C3159 1.429 . S
C3154 C3146 1.574 . S
C3154 H3149 0.949 . S
C3154 C3160 1.368 . S
C3155 C3139 1.349 . S
C3155 H3147 0.950 . S
C3155 C3153 1.327 . S
C3156 C3144 1.349 . S
C3156 H3150 0.950 . S
C3156 C3157 1.327 . S
C3157 H3151 0.950 . S
C3157 C3156 1.327 . S
C3157 C3161 1.429 . S
C3158 C3141 1.574 . S
C3158 H3152 0.949 . S
C3158 C3162 1.368 . S
C3159 C3140 1.429 . S
C3159 C3153 1.429 . S
C3159 C3160 1.523 . S
C3160 C3141 1.368 . S
C3160 C3154 1.368 . S
C3160 C3159 1.523 . S
C3161 C3145 1.429 . S
C3161 C3157 1.429 . S
C3161 C3162 1.523 . S
C3162 C3146 1.368 . S
C3162 C3158 1.368 . S
C3162 C3161 1.523 . S
H3163 C3138 0.950 . S
H3164 C3140 0.950 . S
H3165 C3141 0.949 . S
H3166 C3143 0.950 . S
H3167 C3145 0.950 . S
C3168 C3169 1.349 . S
C3168 C3170 1.327 . S
C3168 H3193 0.950 . S
C3169 C3168 1.349 . S
C3169 C3185 1.349 . S
C3170 C3168 1.327 . S
C3170 C3189 1.429 . S
C3170 H3194 0.950 . S
C3171 C3188 1.574 . S
C3171 C3190 1.368 . S
C3171 H3195 0.949 . S
H3172 C3176 0.949 . S
C3173 C3174 1.349 . S
C3173 C3175 1.327 . S
C3173 H3196 0.950 . S
C3174 C3173 1.349 . S
C3174 C3186 1.349 . S
C3175 C3173 1.327 . S
C3175 C3191 1.429 . S
C3175 H3197 0.950 . S
C3176 H3172 0.949 . S
C3176 C3184 1.574 . S
C3176 C3192 1.368 . S
H3177 C3185 0.950 . S
H3178 C3183 0.950 . S
H3179 C3184 0.949 . S
H3180 C3186 0.950 . S
H3181 C3187 0.950 . S
H3182 C3188 0.949 . S
C3183 H3178 0.950 . S
C3183 C3185 1.327 . S
C3183 C3189 1.429 . S
C3184 C3176 1.574 . S
C3184 H3179 0.949 . S
C3184 C3190 1.368 . S
C3185 C3169 1.349 . S
C3185 H3177 0.950 . S
C3185 C3183 1.327 . S
C3186 C3174 1.349 . S
C3186 H3180 0.950 . S
C3186 C3187 1.327 . S
C3187 H3181 0.950 . S
C3187 C3186 1.327 . S
C3187 C3191 1.429 . S
C3188 C3171 1.574 . S
C3188 H3182 0.949 . S
C3188 C3192 1.368 . S
C3189 C3170 1.429 . S
C3189 C3183 1.429 . S
C3189 C3190 1.523 . S
C3190 C3171 1.368 . S
C3190 C3184 1.368 . S
C3190 C3189 1.523 . S
C3191 C3175 1.429 . S
C3191 C3187 1.429 . S
C3191 C3192 1.523 . S
C3192 C3176 1.368 . S
C3192 C3188 1.368 . S
C3192 C3191 1.523 . S
H3193 C3168 0.950 . S
H3194 C3170 0.950 . S
H3195 C3171 0.949 . S
H3196 C3173 0.950 . S
H3197 C3175 0.950 . S
C3198 C3199 1.349 . S
C3198 C3200 1.327 . S
C3198 H3223 0.950 . S
C3199 C3198 1.349 . S
C3199 C3215 1.349 . S
C3200 C3198 1.327 . S
C3200 C3219 1.429 . S
C3200 H3224 0.950 . S
C3201 C3218 1.574 . S
C3201 C3220 1.368 . S
C3201 H3225 0.949 . S
H3202 C3206 0.949 . S
C3203 C3204 1.349 . S
C3203 C3205 1.327 . S
C3203 H3226 0.950 . S
C3204 C3203 1.349 . S
C3204 C3216 1.349 . S
C3205 C3203 1.327 . S
C3205 C3221 1.429 . S
C3205 H3227 0.950 . S
C3206 H3202 0.949 . S
C3206 C3214 1.574 . S
C3206 C3222 1.368 . S
H3207 C3215 0.950 . S
H3208 C3213 0.950 . S
H3209 C3214 0.949 . S
H3210 C3216 0.950 . S
H3211 C3217 0.950 . S
H3212 C3218 0.949 . S
C3213 H3208 0.950 . S
C3213 C3215 1.327 . S
C3213 C3219 1.429 . S
C3214 C3206 1.574 . S
C3214 H3209 0.949 . S
C3214 C3220 1.368 . S
C3215 C3199 1.349 . S
C3215 H3207 0.950 . S
C3215 C3213 1.327 . S
C3216 C3204 1.349 . S
C3216 H3210 0.950 . S
C3216 C3217 1.327 . S
C3217 H3211 0.950 . S
C3217 C3216 1.327 . S
C3217 C3221 1.429 . S
C3218 C3201 1.574 . S
C3218 H3212 0.949 . S
C3218 C3222 1.368 . S
C3219 C3200 1.429 . S
C3219 C3213 1.429 . S
C3219 C3220 1.523 . S
C3220 C3201 1.368 . S
C3220 C3214 1.368 . S
C3220 C3219 1.523 . S
C3221 C3205 1.429 . S
C3221 C3217 1.429 . S
C3221 C3222 1.523 . S
C3222 C3206 1.368 . S
C3222 C3218 1.368 . S
C3222 C3221 1.523 . S
H3223 C3198 0.950 . S
H3224 C3200 0.950 . S
H3225 C3201 0.949 . S
H3226 C3203 0.950 . S
H3227 C3205 0.950 . S
C3228 C3229 1.349 . S
C3228 C3230 1.327 . S
C3228 H3253 0.950 . S
C3229 C3228 1.349 . S
C3229 C3245 1.349 . S
C3230 C3228 1.327 . S
C3230 C3249 1.429 . S
C3230 H3254 0.950 . S
C3231 C3248 1.574 . S
C3231 C3250 1.368 . S
C3231 H3255 0.949 . S
H3232 C3236 0.949 . S
C3233 C3234 1.349 . S
C3233 C3235 1.327 . S
C3233 H3256 0.950 . S
C3234 C3233 1.349 . S
C3234 C3246 1.349 . S
C3235 C3233 1.327 . S
C3235 C3251 1.429 . S
C3235 H3257 0.950 . S
C3236 H3232 0.949 . S
C3236 C3244 1.574 . S
C3236 C3252 1.368 . S
H3237 C3245 0.950 . S
H3238 C3243 0.950 . S
H3239 C3244 0.949 . S
H3240 C3246 0.950 . S
H3241 C3247 0.950 . S
H3242 C3248 0.949 . S
C3243 H3238 0.950 . S
C3243 C3245 1.327 . S
C3243 C3249 1.429 . S
C3244 C3236 1.574 . S
C3244 H3239 0.949 . S
C3244 C3250 1.368 . S
C3245 C3229 1.349 . S
C3245 H3237 0.950 . S
C3245 C3243 1.327 . S
C3246 C3234 1.349 . S
C3246 H3240 0.950 . S
C3246 C3247 1.327 . S
C3247 H3241 0.950 . S
C3247 C3246 1.327 . S
C3247 C3251 1.429 . S
C3248 C3231 1.574 . S
C3248 H3242 0.949 . S
C3248 C3252 1.368 . S
C3249 C3230 1.429 . S
C3249 C3243 1.429 . S
C3249 C3250 1.523 . S
C3250 C3231 1.368 . S
C3250 C3244 1.368 . S
C3250 C3249 1.523 . S
C3251 C3235 1.429 . S
C3251 C3247 1.429 . S
C3251 C3252 1.523 . S
C3252 C3236 1.368 . S
C3252 C3248 1.368 . S
C3252 C3251 1.523 . S
H3253 C3228 0.950 . S
H3254 C3230 0.950 . S
H3255 C3231 0.949 . S
H3256 C3233 0.950 . S
H3257 C3235 0.950 . S
C3258 C3259 1.349 . S
C3258 C3260 1.327 . S
C3258 H3283 0.950 . S
C3259 C3258 1.349 . S
C3259 C3275 1.349 . S
C3260 C3258 1.327 . S
C3260 C3279 1.429 . S
C3260 H3284 0.950 . S
C3261 C3278 1.574 . S
C3261 C3280 1.368 . S
C3261 H3285 0.949 . S
H3262 C3266 0.949 . S
C3263 C3264 1.349 . S
C3263 C3265 1.327 . S
C3263 H3286 0.950 . S
C3264 C3263 1.349 . S
C3264 C3276 1.349 . S
C3265 C3263 1.327 . S
C3265 C3281 1.429 . S
C3265 H3287 0.950 . S
C3266 H3262 0.949 . S
C3266 C3274 1.574 . S
C3266 C3282 1.368 . S
H3267 C3275 0.950 . S
H3268 C3273 0.950 . S
H3269 C3274 0.949 . S
H3270 C3276 0.950 . S
H3271 C3277 0.950 . S
H3272 C3278 0.949 . S
C3273 H3268 0.950 . S
C3273 C3275 1.327 . S
C3273 C3279 1.429 . S
C3274 C3266 1.574 . S
C3274 H3269 0.949 . S
C3274 C3280 1.368 . S
C3275 C3259 1.349 . S
C3275 H3267 0.950 . S
C3275 C3273 1.327 . S
C3276 C3264 1.349 . S
C3276 H3270 0.950 . S
C3276 C3277 1.327 . S
C3277 H3271 0.950 . S
C3277 C3276 1.327 . S
C3277 C3281 1.429 . S
C3278 C3261 1.574 . S
C3278 H3272 0.949 . S
C3278 C3282 1.368 . S
C3279 C3260 1.429 . S
C3279 C3273 1.429 . S
C3279 C3280 1.523 . S
C3280 C3261 1.368 . S
C3280 C3274 1.368 . S
C3280 C3279 1.523 . S
C3281 C3265 1.429 . S
C3281 C3277 1.429 . S
C3281 C3282 1.523 . S
C3282 C3266 1.368 . S
C3282 C3278 1.368 . S
C3282 C3281 1.523 . S
H3283 C3258 0.950 . S
H3284 C3260 0.950 . S
H3285 C3261 0.949 . S
H3286 C3263 0.950 . S
H3287 C3265 0.950 . S
C3288 C3289 1.349 . S
C3288 C3290 1.327 . S
C3288 H3313 0.950 . S
C3289 C3288 1.349 . S
C3289 C3305 1.349 . S
C3290 C3288 1.327 . S
C3290 C3309 1.429 . S
C3290 H3314 0.950 . S
C3291 C3308 1.574 . S
C3291 C3310 1.368 . S
C3291 H3315 0.949 . S
H3292 C3296 0.949 . S
C3293 C3294 1.349 . S
C3293 C3295 1.327 . S
C3293 H3316 0.950 . S
C3294 C3293 1.349 . S
C3294 C3306 1.349 . S
C3295 C3293 1.327 . S
C3295 C3311 1.429 . S
C3295 H3317 0.950 . S
C3296 H3292 0.949 . S
C3296 C3304 1.574 . S
C3296 C3312 1.368 . S
H3297 C3305 0.950 . S
H3298 C3303 0.950 . S
H3299 C3304 0.949 . S
H3300 C3306 0.950 . S
H3301 C3307 0.950 . S
H3302 C3308 0.949 . S
C3303 H3298 0.950 . S
C3303 C3305 1.327 . S
C3303 C3309 1.429 . S
C3304 C3296 1.574 . S
C3304 H3299 0.949 . S
C3304 C3310 1.368 . S
C3305 C3289 1.349 . S
C3305 H3297 0.950 . S
C3305 C3303 1.327 . S
C3306 C3294 1.349 . S
C3306 H3300 0.950 . S
C3306 C3307 1.327 . S
C3307 H3301 0.950 . S
C3307 C3306 1.327 . S
C3307 C3311 1.429 . S
C3308 C3291 1.574 . S
C3308 H3302 0.949 . S
C3308 C3312 1.368 . S
C3309 C3290 1.429 . S
C3309 C3303 1.429 . S
C3309 C3310 1.523 . S
C3310 C3291 1.368 . S
C3310 C3304 1.368 . S
C3310 C3309 1.523 . S
C3311 C3295 1.429 . S
C3311 C3307 1.429 . S
C3311 C3312 1.523 . S
C3312 C3296 1.368 . S
C3312 C3308 1.368 . S
C3312 C3311 1.523 . S
H3313 C3288 0.950 . S
H3314 C3290 0.950 . S
H3315 C3291 0.949 . S
H3316 C3293 0.950 . S
H3317 C3295 0.950 . S
C3318 C3319 1.349 . S
C3318 C3320 1.327 . S
C3318 H3343 0.950 . S
C3319 C3318 1.349 . S
C3319 C3335 1.349 . S
C3320 C3318 1.327 . S
C3320 C3339 1.429 . S
C3320 H3344 0.950 . S
C3321 C3338 1.574 . S
C3321 C3340 1.368 . S
C3321 H3345 0.949 . S
H3322 C3326 0.949 . S
C3323 C3324 1.349 . S
C3323 C3325 1.327 . S
C3323 H3346 0.950 . S
C3324 C3323 1.349 . S
C3324 C3336 1.349 . S
C3325 C3323 1.327 . S
C3325 C3341 1.429 . S
C3325 H3347 0.950 . S
C3326 H3322 0.949 . S
C3326 C3334 1.574 . S
C3326 C3342 1.368 . S
H3327 C3335 0.950 . S
H3328 C3333 0.950 . S
H3329 C3334 0.949 . S
H3330 C3336 0.950 . S
H3331 C3337 0.950 . S
H3332 C3338 0.949 . S
C3333 H3328 0.950 . S
C3333 C3335 1.327 . S
C3333 C3339 1.429 . S
C3334 C3326 1.574 . S
C3334 H3329 0.949 . S
C3334 C3340 1.368 . S
C3335 C3319 1.349 . S
C3335 H3327 0.950 . S
C3335 C3333 1.327 . S
C3336 C3324 1.349 . S
C3336 H3330 0.950 . S
C3336 C3337 1.327 . S
C3337 H3331 0.950 . S
C3337 C3336 1.327 . S
C3337 C3341 1.429 . S
C3338 C3321 1.574 . S
C3338 H3332 0.949 . S
C3338 C3342 1.368 . S
C3339 C3320 1.429 . S
C3339 C3333 1.429 . S
C3339 C3340 1.523 . S
C3340 C3321 1.368 . S
C3340 C3334 1.368 . S
C3340 C3339 1.523 . S
C3341 C3325 1.429 . S
C3341 C3337 1.429 . S
C3341 C3342 1.523 . S
C3342 C3326 1.368 . S
C3342 C3338 1.368 . S
C3342 C3341 1.523 . S
H3343 C3318 0.950 . S
H3344 C3320 0.950 . S
H3345 C3321 0.949 . S
H3346 C3323 0.950 . S
H3347 C3325 0.950 . S
C3348 C3349 1.349 . S
C3348 C3350 1.327 . S
C3348 H3373 0.950 . S
C3349 C3348 1.349 . S
C3349 C3365 1.349 . S
C3350 C3348 1.327 . S
C3350 C3369 1.429 . S
C3350 H3374 0.950 . S
C3351 C3368 1.574 . S
C3351 C3370 1.368 . S
C3351 H3375 0.949 . S
H3352 C3356 0.949 . S
C3353 C3354 1.349 . S
C3353 C3355 1.327 . S
C3353 H3376 0.950 . S
C3354 C3353 1.349 . S
C3354 C3366 1.349 . S
C3355 C3353 1.327 . S
C3355 C3371 1.429 . S
C3355 H3377 0.950 . S
C3356 H3352 0.949 . S
C3356 C3364 1.574 . S
C3356 C3372 1.368 . S
H3357 C3365 0.950 . S
H3358 C3363 0.950 . S
H3359 C3364 0.949 . S
H3360 C3366 0.950 . S
H3361 C3367 0.950 . S
H3362 C3368 0.949 . S
C3363 H3358 0.950 . S
C3363 C3365 1.327 . S
C3363 C3369 1.429 . S
C3364 C3356 1.574 . S
C3364 H3359 0.949 . S
C3364 C3370 1.368 . S
C3365 C3349 1.349 . S
C3365 H3357 0.950 . S
C3365 C3363 1.327 . S
C3366 C3354 1.349 . S
C3366 H3360 0.950 . S
C3366 C3367 1.327 . S
C3367 H3361 0.950 . S
C3367 C3366 1.327 . S
C3367 C3371 1.429 . S
C3368 C3351 1.574 . S
C3368 H3362 0.949 . S
C3368 C3372 1.368 . S
C3369 C3350 1.429 . S
C3369 C3363 1.429 . S
C3369 C3370 1.523 . S
C3370 C3351 1.368 . S
C3370 C3364 1.368 . S
C3370 C3369 1.523 . S
C3371 C3355 1.429 . S
C3371 C3367 1.429 . S
C3371 C3372 1.523 . S
C3372 C3356 1.368 . S
C3372 C3368 1.368 . S
C3372 C3371 1.523 . S
H3373 C3348 0.950 . S
H3374 C3350 0.950 . S
H3375 C3351 0.949 . S
H3376 C3353 0.950 . S
H3377 C3355 0.950 . S
C3378 C3379 1.349 . S
C3378 C3380 1.327 1_545 S
C3378 H3403 0.950 1_545 S
C3379 C3378 1.349 . S
C3379 C3395 1.349 . S
C3380 C3378 1.327 1_565 S
C3380 C3399 1.429 1_565 S
C3380 H3404 0.950 . S
C3381 C3398 1.574 . S
C3381 C3400 1.368 . S
C3381 H3405 0.949 . S
H3382 C3386 0.949 . S
C3383 C3384 1.349 . S
C3383 C3385 1.327 1_565 S
C3383 H3406 0.950 1_565 S
C3384 C3383 1.349 . S
C3384 C3396 1.349 . S
C3385 C3383 1.327 1_545 S
C3385 C3401 1.429 1_545 S
C3385 H3407 0.950 . S
C3386 H3382 0.949 . S
C3386 C3394 1.574 . S
C3386 C3402 1.368 . S
H3387 C3395 0.950 . S
H3388 C3393 0.950 . S
H3389 C3394 0.949 . S
H3390 C3396 0.950 . S
H3391 C3397 0.950 . S
H3392 C3398 0.949 . S
C3393 H3388 0.950 . S
C3393 C3395 1.327 . S
C3393 C3399 1.429 . S
C3394 C3386 1.574 . S
C3394 H3389 0.949 . S
C3394 C3400 1.368 1_565 S
C3395 C3379 1.349 . S
C3395 H3387 0.950 . S
C3395 C3393 1.327 . S
C3396 C3384 1.349 . S
C3396 H3390 0.950 . S
C3396 C3397 1.327 . S
C3397 H3391 0.950 . S
C3397 C3396 1.327 . S
C3397 C3401 1.429 . S
C3398 C3381 1.574 . S
C3398 H3392 0.949 . S
C3398 C3402 1.368 1_545 S
C3399 C3380 1.429 1_545 S
C3399 C3393 1.429 . S
C3399 C3400 1.523 . S
C3400 C3381 1.368 . S
C3400 C3394 1.368 1_545 S
C3400 C3399 1.523 . S
C3401 C3385 1.429 1_565 S
C3401 C3397 1.429 . S
C3401 C3402 1.523 . S
C3402 C3386 1.368 . S
C3402 C3398 1.368 1_565 S
C3402 C3401 1.523 . S
H3403 C3378 0.950 1_565 S
H3404 C3380 0.950 . S
H3405 C3381 0.949 . S
H3406 C3383 0.950 1_545 S
H3407 C3385 0.950 . S
C3408 C3409 1.349 . S
C3408 C3410 1.327 . S
C3408 H3433 0.950 . S
C3409 C3408 1.349 . S
C3409 C3425 1.349 . S
C3410 C3408 1.327 . S
C3410 C3429 1.429 . S
C3410 H3434 0.950 . S
C3411 C3428 1.574 1_455 S
C3411 C3430 1.368 . S
C3411 H3435 0.949 . S
H3412 C3416 0.949 . S
C3413 C3414 1.349 . S
C3413 C3415 1.327 . S
C3413 H3436 0.950 . S
C3414 C3413 1.349 . S
C3414 C3426 1.349 . S
C3415 C3413 1.327 . S
C3415 C3431 1.429 . S
C3415 H3437 0.950 . S
C3416 H3412 0.949 . S
C3416 C3424 1.574 1_655 S
C3416 C3432 1.368 . S
H3417 C3425 0.950 . S
H3418 C3423 0.950 . S
H3419 C3424 0.949 . S
H3420 C3426 0.950 . S
H3421 C3427 0.950 . S
H3422 C3428 0.949 . S
C3423 H3418 0.950 . S
C3423 C3425 1.327 . S
C3423 C3429 1.429 . S
C3424 C3416 1.574 1_455 S
C3424 H3419 0.949 . S
C3424 C3430 1.368 . S
C3425 C3409 1.349 . S
C3425 H3417 0.950 . S
C3425 C3423 1.327 . S
C3426 C3414 1.349 . S
C3426 H3420 0.950 . S
C3426 C3427 1.327 . S
C3427 H3421 0.950 . S
C3427 C3426 1.327 . S
C3427 C3431 1.429 . S
C3428 C3411 1.574 1_655 S
C3428 H3422 0.949 . S
C3428 C3432 1.368 . S
C3429 C3410 1.429 . S
C3429 C3423 1.429 . S
C3429 C3430 1.523 . S
C3430 C3411 1.368 . S
C3430 C3424 1.368 . S
C3430 C3429 1.523 . S
C3431 C3415 1.429 . S
C3431 C3427 1.429 . S
C3431 C3432 1.523 . S
C3432 C3416 1.368 . S
C3432 C3428 1.368 . S
C3432 C3431 1.523 . S
H3433 C3408 0.950 . S
H3434 C3410 0.950 . S
H3435 C3411 0.949 . S
H3436 C3413 0.950 . S
H3437 C3415 0.950 . S
C3438 C3439 1.349 . S
C3438 C3440 1.327 . S
C3438 H3463 0.950 . S
C3439 C3438 1.349 . S
C3439 C3455 1.349 . S
C3440 C3438 1.327 . S
C3440 C3459 1.429 . S
C3440 H3464 0.950 . S
C3441 C3458 1.574 . S
C3441 C3460 1.368 . S
C3441 H3465 0.949 . S
H3442 C3446 0.949 . S
C3443 C3444 1.349 . S
C3443 C3445 1.327 . S
C3443 H3466 0.950 . S
C3444 C3443 1.349 . S
C3444 C3456 1.349 . S
C3445 C3443 1.327 . S
C3445 C3461 1.429 . S
C3445 H3467 0.950 . S
C3446 H3442 0.949 . S
C3446 C3454 1.574 . S
C3446 C3462 1.368 . S
H3447 C3455 0.950 . S
H3448 C3453 0.950 . S
H3449 C3454 0.949 . S
H3450 C3456 0.950 . S
H3451 C3457 0.950 . S
H3452 C3458 0.949 . S
C3453 H3448 0.950 . S
C3453 C3455 1.327 . S
C3453 C3459 1.429 . S
C3454 C3446 1.574 . S
C3454 H3449 0.949 . S
C3454 C3460 1.368 . S
C3455 C3439 1.349 . S
C3455 H3447 0.950 . S
C3455 C3453 1.327 . S
C3456 C3444 1.349 . S
C3456 H3450 0.950 . S
C3456 C3457 1.327 . S
C3457 H3451 0.950 . S
C3457 C3456 1.327 . S
C3457 C3461 1.429 . S
C3458 C3441 1.574 . S
C3458 H3452 0.949 . S
C3458 C3462 1.368 . S
C3459 C3440 1.429 . S
C3459 C3453 1.429 . S
C3459 C3460 1.523 . S
C3460 C3441 1.368 . S
C3460 C3454 1.368 . S
C3460 C3459 1.523 . S
C3461 C3445 1.429 . S
C3461 C3457 1.429 . S
C3461 C3462 1.523 . S
C3462 C3446 1.368 . S
C3462 C3458 1.368 . S
C3462 C3461 1.523 . S
H3463 C3438 0.950 . S
H3464 C3440 0.950 . S
H3465 C3441 0.949 . S
H3466 C3443 0.950 . S
H3467 C3445 0.950 . S
C3468 C3469 1.349 . S
C3468 C3470 1.330 . S
C3468 H3493 0.950 1_545 S
C3469 C3468 1.349 . S
C3469 C3485 1.349 . S
C3470 C3468 1.330 . S
C3470 C3489 1.430 . S
C3470 H3494 0.946 1_545 S
C3471 C3488 1.574 . S
C3471 C3490 1.368 . S
C3471 H3495 0.949 . S
H3472 C3476 0.949 . S
C3473 C3474 1.349 . S
C3473 C3475 1.331 . S
C3473 H3496 0.950 1_565 S
C3474 C3473 1.349 . S
C3474 C3486 1.349 . S
C3475 C3473 1.331 . S
C3475 C3491 1.430 . S
C3475 H3497 0.945 1_565 S
C3476 H3472 0.949 . S
C3476 C3484 1.574 . S
C3476 C3492 1.368 . S
H3477 C3485 0.950 . S
H3478 C3483 0.950 . S
H3479 C3484 0.949 . S
H3480 C3486 0.950 . S
H3481 C3487 0.950 . S
H3482 C3488 0.949 . S
C3483 H3478 0.950 . S
C3483 C3485 1.327 . S
C3483 C3489 1.429 . S
C3484 C3476 1.574 . S
C3484 H3479 0.949 . S
C3484 C3490 1.368 1_565 S
C3485 C3469 1.349 . S
C3485 H3477 0.950 . S
C3485 C3483 1.327 . S
C3486 C3474 1.349 . S
C3486 H3480 0.950 . S
C3486 C3487 1.327 . S
C3487 H3481 0.950 . S
C3487 C3486 1.327 . S
C3487 C3491 1.429 . S
C3488 C3471 1.574 . S
C3488 H3482 0.949 . S
C3488 C3492 1.368 1_545 S
C3489 C3470 1.430 . S
C3489 C3483 1.429 . S
C3489 C3490 1.523 . S
C3490 C3471 1.368 . S
C3490 C3484 1.368 1_545 S
C3490 C3489 1.523 . S
C3491 C3475 1.430 . S
C3491 C3487 1.429 . S
C3491 C3492 1.523 . S
C3492 C3476 1.368 . S
C3492 C3488 1.368 1_565 S
C3492 C3491 1.523 . S
H3493 C3468 0.950 1_565 S
H3494 C3470 0.946 1_565 S
H3495 C3471 0.949 . S
H3496 C3473 0.950 1_545 S
H3497 C3475 0.945 1_545 S
C3498 C3499 1.349 . S
C3498 C3500 1.327 . S
C3498 H3523 0.950 . S
C3499 C3498 1.349 . S
C3499 C3515 1.349 . S
C3500 C3498 1.327 . S
C3500 C3519 1.429 . S
C3500 H3524 0.950 . S
C3501 C3518 1.574 1_455 S
C3501 C3520 1.368 . S
C3501 H3525 0.949 . S
H3502 C3506 0.930 . S
C3503 C3504 1.349 . S
C3503 C3505 1.327 . S
C3503 H3526 0.950 . S
C3504 C3503 1.349 . S
C3504 C3516 1.349 . S
C3505 C3503 1.327 . S
C3505 C3521 1.429 . S
C3505 H3527 0.950 . S
C3506 H3502 0.930 . S
C3506 C3514 1.564 1_655 S
C3506 C3522 1.402 . S
H3507 C3515 0.950 . S
H3508 C3513 0.950 . S
H3509 C3514 0.949 . S
H3510 C3516 0.950 . S
H3511 C3517 0.950 . S
H3512 C3518 0.949 . S
C3513 H3508 0.950 . S
C3513 C3515 1.327 . S
C3513 C3519 1.429 . S
C3514 C3506 1.564 1_455 S
C3514 H3509 0.949 . S
C3514 C3520 1.368 . S
C3515 C3499 1.349 . S
C3515 H3507 0.950 . S
C3515 C3513 1.327 . S
C3516 C3504 1.349 . S
C3516 H3510 0.950 . S
C3516 C3517 1.327 . S
C3517 H3511 0.950 . S
C3517 C3516 1.327 . S
C3517 C3521 1.429 . S
C3518 C3501 1.574 1_655 S
C3518 H3512 0.949 . S
C3518 C3522 1.368 . S
C3519 C3500 1.429 . S
C3519 C3513 1.429 . S
C3519 C3520 1.523 . S
C3520 C3501 1.368 . S
C3520 C3514 1.368 . S
C3520 C3519 1.523 . S
C3521 C3505 1.429 . S
C3521 C3517 1.429 . S
C3521 C3522 1.523 . S
C3522 C3506 1.402 . S
C3522 C3518 1.368 . S
C3522 C3521 1.523 . S
H3523 C3498 0.950 . S
H3524 C3500 0.950 . S
H3525 C3501 0.949 . S
H3526 C3503 0.950 . S
H3527 C3505 0.950 . S
C3528 C3529 1.349 . S
C3528 C3530 1.327 1_556 S
C3528 H3553 0.950 . S
C3529 C3528 1.349 . S
C3529 C3545 1.349 1_556 S
C3530 C3528 1.327 1_554 S
C3530 C3549 1.429 . S
C3530 H3554 0.950 . S
C3531 C3548 1.574 . S
C3531 C3550 1.368 . S
C3531 H3555 0.949 . S
H3532 C3536 0.949 . S
C3533 C3534 1.349 . S
C3533 C3535 1.327 . S
C3533 H3556 0.950 . S
C3534 C3533 1.349 . S
C3534 C3546 1.349 . S
C3535 C3533 1.327 . S
C3535 C3551 1.429 . S
C3535 H3557 0.950 . S
C3536 H3532 0.949 . S
C3536 C3544 1.574 . S
C3536 C3552 1.368 . S
H3537 C3545 0.950 1_556 S
H3538 C3543 0.950 . S
H3539 C3544 0.949 . S
H3540 C3546 0.950 . S
H3541 C3547 0.950 . S
H3542 C3548 0.949 . S
C3543 H3538 0.950 . S
C3543 C3545 1.327 . S
C3543 C3549 1.429 . S
C3544 C3536 1.574 . S
C3544 H3539 0.949 . S
C3544 C3550 1.368 . S
C3545 C3529 1.349 1_554 S
C3545 H3537 0.950 1_554 S
C3545 C3543 1.327 . S
C3546 C3534 1.349 . S
C3546 H3540 0.950 . S
C3546 C3547 1.327 . S
C3547 H3541 0.950 . S
C3547 C3546 1.327 . S
C3547 C3551 1.429 . S
C3548 C3531 1.574 . S
C3548 H3542 0.949 . S
C3548 C3552 1.368 . S
C3549 C3530 1.429 . S
C3549 C3543 1.429 . S
C3549 C3550 1.523 . S
C3550 C3531 1.368 . S
C3550 C3544 1.368 . S
C3550 C3549 1.523 . S
C3551 C3535 1.429 . S
C3551 C3547 1.429 . S
C3551 C3552 1.523 . S
C3552 C3536 1.368 . S
C3552 C3548 1.368 . S
C3552 C3551 1.523 . S
H3553 C3528 0.950 . S
H3554 C3530 0.950 . S
H3555 C3531 0.949 . S
H3556 C3533 0.950 . S
H3557 C3535 0.950 . S
C3558 C3559 1.349 . S
C3558 C3560 1.327 . S
C3558 H3583 0.950 . S
C3559 C3558 1.349 . S
C3559 C3575 1.349 . S
C3560 C3558 1.327 . S
C3560 C3579 1.429 . S
C3560 H3584 0.950 . S
C3561 C3578 1.574 . S
C3561 C3580 1.368 . S
C3561 H3585 0.949 . S
H3562 C3566 0.949 . S
C3563 C3564 1.349 1_554 S
C3563 C3565 1.327 . S
C3563 H3586 0.950 1_554 S
C3564 C3563 1.349 1_556 S
C3564 C3576 1.349 . S
C3565 C3563 1.327 . S
C3565 C3581 1.429 . S
C3565 H3587 0.950 . S
C3566 H3562 0.949 . S
C3566 C3574 1.574 . S
C3566 C3582 1.368 . S
H3567 C3575 0.950 . S
H3568 C3573 0.950 . S
H3569 C3574 0.949 . S
H3570 C3576 0.950 . S
H3571 C3577 0.950 . S
H3572 C3578 0.949 . S
C3573 H3568 0.950 . S
C3573 C3575 1.327 . S
C3573 C3579 1.429 . S
C3574 C3566 1.574 . S
C3574 H3569 0.949 . S
C3574 C3580 1.368 . S
C3575 C3559 1.349 . S
C3575 H3567 0.950 . S
C3575 C3573 1.327 . S
C3576 C3564 1.349 . S
C3576 H3570 0.950 . S
C3576 C3577 1.327 1_556 S
C3577 H3571 0.950 . S
C3577 C3576 1.327 1_554 S
C3577 C3581 1.429 . S
C3578 C3561 1.574 . S
C3578 H3572 0.949 . S
C3578 C3582 1.368 . S
C3579 C3560 1.429 . S
C3579 C3573 1.429 . S
C3579 C3580 1.523 . S
C3580 C3561 1.368 . S
C3580 C3574 1.368 . S
C3580 C3579 1.523 . S
C3581 C3565 1.429 . S
C3581 C3577 1.429 . S
C3581 C3582 1.523 . S
C3582 C3566 1.368 . S
C3582 C3578 1.368 . S
C3582 C3581 1.523 . S
H3583 C3558 0.950 . S
H3584 C3560 0.950 . S
H3585 C3561 0.949 . S
H3586 C3563 0.950 1_556 S
H3587 C3565 0.950 . S
C3588 C3589 1.349 . S
C3588 C3590 1.327 1_556 S
C3588 H3613 0.950 . S
C3589 C3588 1.349 . S
C3589 C3605 1.349 . S
C3590 C3588 1.327 1_554 S
C3590 C3609 1.429 . S
C3590 H3614 0.950 . S
C3591 C3608 1.574 . S
C3591 C3610 1.368 . S
C3591 H3615 0.949 . S
H3592 C3596 0.949 . S
C3593 C3594 1.349 . S
C3593 C3595 1.327 . S
C3593 H3616 0.950 . S
C3594 C3593 1.349 . S
C3594 C3606 1.349 . S
C3595 C3593 1.327 . S
C3595 C3611 1.429 . S
C3595 H3617 0.950 . S
C3596 H3592 0.949 . S
C3596 C3604 1.574 . S
C3596 C3612 1.368 . S
H3597 C3605 0.950 . S
H3598 C3603 0.950 . S
H3599 C3604 0.949 . S
H3600 C3606 0.950 . S
H3601 C3607 0.950 . S
H3602 C3608 0.949 . S
C3603 H3598 0.950 . S
C3603 C3605 1.327 1_554 S
C3603 C3609 1.429 . S
C3604 C3596 1.574 . S
C3604 H3599 0.949 . S
C3604 C3610 1.368 . S
C3605 C3589 1.349 . S
C3605 H3597 0.950 . S
C3605 C3603 1.327 1_556 S
C3606 C3594 1.349 . S
C3606 H3600 0.950 . S
C3606 C3607 1.327 . S
C3607 H3601 0.950 . S
C3607 C3606 1.327 . S
C3607 C3611 1.429 . S
C3608 C3591 1.574 . S
C3608 H3602 0.949 . S
C3608 C3612 1.368 . S
C3609 C3590 1.429 . S
C3609 C3603 1.429 . S
C3609 C3610 1.523 . S
C3610 C3591 1.368 . S
C3610 C3604 1.368 . S
C3610 C3609 1.523 . S
C3611 C3595 1.429 . S
C3611 C3607 1.429 . S
C3611 C3612 1.523 . S
C3612 C3596 1.368 . S
C3612 C3608 1.368 . S
C3612 C3611 1.523 . S
H3613 C3588 0.950 . S
H3614 C3590 0.950 . S
H3615 C3591 0.949 . S
H3616 C3593 0.950 . S
H3617 C3595 0.950 . S
C3618 C3619 1.349 . S
C3618 C3620 1.327 . S
C3618 H3643 0.950 . S
C3619 C3618 1.349 . S
C3619 C3635 1.349 . S
C3620 C3618 1.327 . S
C3620 C3639 1.429 . S
C3620 H3644 0.950 . S
C3621 C3638 1.574 . S
C3621 C3640 1.368 . S
C3621 H3645 0.949 . S
H3622 C3626 0.949 . S
C3623 C3624 1.349 . S
C3623 C3625 1.327 . S
C3623 H3646 0.950 . S
C3624 C3623 1.349 . S
C3624 C3636 1.349 . S
C3625 C3623 1.327 . S
C3625 C3641 1.429 . S
C3625 H3647 0.950 . S
C3626 H3622 0.949 . S
C3626 C3634 1.574 . S
C3626 C3642 1.368 . S
H3627 C3635 0.950 . S
H3628 C3633 0.950 . S
H3629 C3634 0.949 . S
H3630 C3636 0.950 . S
H3631 C3637 0.950 . S
H3632 C3638 0.949 . S
C3633 H3628 0.950 . S
C3633 C3635 1.327 . S
C3633 C3639 1.429 . S
C3634 C3626 1.574 . S
C3634 H3629 0.949 . S
C3634 C3640 1.368 . S
C3635 C3619 1.349 . S
C3635 H3627 0.950 . S
C3635 C3633 1.327 . S
C3636 C3624 1.349 . S
C3636 H3630 0.950 . S
C3636 C3637 1.327 . S
C3637 H3631 0.950 . S
C3637 C3636 1.327 . S
C3637 C3641 1.429 . S
C3638 C3621 1.574 . S
C3638 H3632 0.949 . S
C3638 C3642 1.368 . S
C3639 C3620 1.429 . S
C3639 C3633 1.429 . S
C3639 C3640 1.523 . S
C3640 C3621 1.368 . S
C3640 C3634 1.368 . S
C3640 C3639 1.523 . S
C3641 C3625 1.429 . S
C3641 C3637 1.429 . S
C3641 C3642 1.523 . S
C3642 C3626 1.368 . S
C3642 C3638 1.368 . S
C3642 C3641 1.523 . S
H3643 C3618 0.950 . S
H3644 C3620 0.950 . S
H3645 C3621 0.949 . S
H3646 C3623 0.950 . S
H3647 C3625 0.950 . S
C3648 C3649 1.349 . S
C3648 C3650 1.327 . S
C3648 H3673 0.950 . S
C3649 C3648 1.349 . S
C3649 C3665 1.349 . S
C3650 C3648 1.327 . S
C3650 C3669 1.429 . S
C3650 H3674 0.950 . S
C3651 C3668 1.574 . S
C3651 C3670 1.368 . S
C3651 H3675 0.949 . S
H3652 C3656 0.949 . S
C3653 C3654 1.349 . S
C3653 C3655 1.327 . S
C3653 H3676 0.950 . S
C3654 C3653 1.349 . S
C3654 C3666 1.349 . S
C3655 C3653 1.327 . S
C3655 C3671 1.429 . S
C3655 H3677 0.950 . S
C3656 H3652 0.949 . S
C3656 C3664 1.574 . S
C3656 C3672 1.368 . S
H3657 C3665 0.950 . S
H3658 C3663 0.950 . S
H3659 C3664 0.949 . S
H3660 C3666 0.950 . S
H3661 C3667 0.950 . S
H3662 C3668 0.949 . S
C3663 H3658 0.950 . S
C3663 C3665 1.327 . S
C3663 C3669 1.429 . S
C3664 C3656 1.574 . S
C3664 H3659 0.949 . S
C3664 C3670 1.368 . S
C3665 C3649 1.349 . S
C3665 H3657 0.950 . S
C3665 C3663 1.327 . S
C3666 C3654 1.349 . S
C3666 H3660 0.950 . S
C3666 C3667 1.327 . S
C3667 H3661 0.950 . S
C3667 C3666 1.327 . S
C3667 C3671 1.429 . S
C3668 C3651 1.574 . S
C3668 H3662 0.949 . S
C3668 C3672 1.368 . S
C3669 C3650 1.429 . S
C3669 C3663 1.429 . S
C3669 C3670 1.523 . S
C3670 C3651 1.368 . S
C3670 C3664 1.368 . S
C3670 C3669 1.523 . S
C3671 C3655 1.429 . S
C3671 C3667 1.429 . S
C3671 C3672 1.523 . S
C3672 C3656 1.368 . S
C3672 C3668 1.368 . S
C3672 C3671 1.523 . S
H3673 C3648 0.950 . S
H3674 C3650 0.950 . S
H3675 C3651 0.949 . S
H3676 C3653 0.950 . S
H3677 C3655 0.950 . S
C3678 C3679 1.349 . S
C3678 C3680 1.327 . S
C3678 H3703 0.950 . S
C3679 C3678 1.349 . S
C3679 C3695 1.349 . S
C3680 C3678 1.327 . S
C3680 C3699 1.429 . S
C3680 H3704 0.950 . S
C3681 C3698 1.574 . S
C3681 C3700 1.368 . S
C3681 H3705 0.949 . S
H3682 C3686 0.949 . S
C3683 C3684 1.349 . S
C3683 C3685 1.327 . S
C3683 H3706 0.950 . S
C3684 C3683 1.349 . S
C3684 C3696 1.349 . S
C3685 C3683 1.327 . S
C3685 C3701 1.429 . S
C3685 H3707 0.950 . S
C3686 H3682 0.949 . S
C3686 C3694 1.574 . S
C3686 C3702 1.368 . S
H3687 C3695 0.950 . S
H3688 C3693 0.950 . S
H3689 C3694 0.949 . S
H3690 C3696 0.950 . S
H3691 C3697 0.950 . S
H3692 C3698 0.949 . S
C3693 H3688 0.950 . S
C3693 C3695 1.327 . S
C3693 C3699 1.429 . S
C3694 C3686 1.574 . S
C3694 H3689 0.949 . S
C3694 C3700 1.368 . S
C3695 C3679 1.349 . S
C3695 H3687 0.950 . S
C3695 C3693 1.327 . S
C3696 C3684 1.349 . S
C3696 H3690 0.950 . S
C3696 C3697 1.327 . S
C3697 H3691 0.950 . S
C3697 C3696 1.327 . S
C3697 C3701 1.429 . S
C3698 C3681 1.574 . S
C3698 H3692 0.949 . S
C3698 C3702 1.368 . S
C3699 C3680 1.429 . S
C3699 C3693 1.429 . S
C3699 C3700 1.523 . S
C3700 C3681 1.368 . S
C3700 C3694 1.368 . S
C3700 C3699 1.523 . S
C3701 C3685 1.429 . S
C3701 C3697 1.429 . S
C3701 C3702 1.523 . S
C3702 C3686 1.368 . S
C3702 C3698 1.368 . S
C3702 C3701 1.523 . S
H3703 C3678 0.950 . S
H3704 C3680 0.950 . S
H3705 C3681 0.949 . S
H3706 C3683 0.950 . S
H3707 C3685 0.950 . S
C3708 C3709 1.349 . S
C3708 C3710 1.327 . S
C3708 H3733 0.950 . S
C3709 C3708 1.349 . S
C3709 C3725 1.349 . S
C3710 C3708 1.327 . S
C3710 C3729 1.429 . S
C3710 H3734 0.950 . S
C3711 C3728 1.574 . S
C3711 C3730 1.368 . S
C3711 H3735 0.949 . S
H3712 C3716 0.949 . S
C3713 C3714 1.349 . S
C3713 C3715 1.327 . S
C3713 H3736 0.950 . S
C3714 C3713 1.349 . S
C3714 C3726 1.349 . S
C3715 C3713 1.327 . S
C3715 C3731 1.429 . S
C3715 H3737 0.950 . S
C3716 H3712 0.949 . S
C3716 C3724 1.574 . S
C3716 C3732 1.368 . S
H3717 C3725 0.950 . S
H3718 C3723 0.950 . S
H3719 C3724 0.949 . S
H3720 C3726 0.950 . S
H3721 C3727 0.950 . S
H3722 C3728 0.949 . S
C3723 H3718 0.950 . S
C3723 C3725 1.327 . S
C3723 C3729 1.429 . S
C3724 C3716 1.574 . S
C3724 H3719 0.949 . S
C3724 C3730 1.368 . S
C3725 C3709 1.349 . S
C3725 H3717 0.950 . S
C3725 C3723 1.327 . S
C3726 C3714 1.349 . S
C3726 H3720 0.950 . S
C3726 C3727 1.327 . S
C3727 H3721 0.950 . S
C3727 C3726 1.327 . S
C3727 C3731 1.429 . S
C3728 C3711 1.574 . S
C3728 H3722 0.949 . S
C3728 C3732 1.368 . S
C3729 C3710 1.429 . S
C3729 C3723 1.429 . S
C3729 C3730 1.523 . S
C3730 C3711 1.368 . S
C3730 C3724 1.368 . S
C3730 C3729 1.523 . S
C3731 C3715 1.429 . S
C3731 C3727 1.429 . S
C3731 C3732 1.523 . S
C3732 C3716 1.368 . S
C3732 C3728 1.368 . S
C3732 C3731 1.523 . S
H3733 C3708 0.950 . S
H3734 C3710 0.950 . S
H3735 C3711 0.949 . S
H3736 C3713 0.950 . S
H3737 C3715 0.950 . S
C3738 C3739 1.349 . S
C3738 C3740 1.327 . S
C3738 H3763 0.950 . S
C3739 C3738 1.349 . S
C3739 C3755 1.349 . S
C3740 C3738 1.327 . S
C3740 C3759 1.429 . S
C3740 H3764 0.950 . S
C3741 C3758 1.574 . S
C3741 C3760 1.368 . S
C3741 H3765 0.949 . S
H3742 C3746 0.949 . S
C3743 C3744 1.349 . S
C3743 C3745 1.327 . S
C3743 H3766 0.950 . S
C3744 C3743 1.349 . S
C3744 C3756 1.349 . S
C3745 C3743 1.327 . S
C3745 C3761 1.429 . S
C3745 H3767 0.950 . S
C3746 H3742 0.949 . S
C3746 C3754 1.574 . S
C3746 C3762 1.368 . S
H3747 C3755 0.950 . S
H3748 C3753 0.950 . S
H3749 C3754 0.949 . S
H3750 C3756 0.950 . S
H3751 C3757 0.950 . S
H3752 C3758 0.949 . S
C3753 H3748 0.950 . S
C3753 C3755 1.327 . S
C3753 C3759 1.429 . S
C3754 C3746 1.574 . S
C3754 H3749 0.949 . S
C3754 C3760 1.368 . S
C3755 C3739 1.349 . S
C3755 H3747 0.950 . S
C3755 C3753 1.327 . S
C3756 C3744 1.349 . S
C3756 H3750 0.950 . S
C3756 C3757 1.327 . S
C3757 H3751 0.950 . S
C3757 C3756 1.327 . S
C3757 C3761 1.429 . S
C3758 C3741 1.574 . S
C3758 H3752 0.949 . S
C3758 C3762 1.368 . S
C3759 C3740 1.429 . S
C3759 C3753 1.429 . S
C3759 C3760 1.523 . S
C3760 C3741 1.368 . S
C3760 C3754 1.368 . S
C3760 C3759 1.523 . S
C3761 C3745 1.429 . S
C3761 C3757 1.429 . S
C3761 C3762 1.523 . S
C3762 C3746 1.368 . S
C3762 C3758 1.368 . S
C3762 C3761 1.523 . S
H3763 C3738 0.950 . S
H3764 C3740 0.950 . S
H3765 C3741 0.949 . S
H3766 C3743 0.950 . S
H3767 C3745 0.950 . S
C3768 C3769 1.349 . S
C3768 C3770 1.327 . S
C3768 H3793 0.950 . S
C3769 C3768 1.349 . S
C3769 C3785 1.349 . S
C3770 C3768 1.327 . S
C3770 C3789 1.429 . S
C3770 H3794 0.950 . S
C3771 C3788 1.574 . S
C3771 C3790 1.368 . S
C3771 H3795 0.949 . S
H3772 C3776 0.949 . S
C3773 C3774 1.349 . S
C3773 C3775 1.327 . S
C3773 H3796 0.950 . S
C3774 C3773 1.349 . S
C3774 C3786 1.349 . S
C3775 C3773 1.327 . S
C3775 C3791 1.429 . S
C3775 H3797 0.950 . S
C3776 H3772 0.949 . S
C3776 C3784 1.574 . S
C3776 C3792 1.368 . S
H3777 C3785 0.950 . S
H3778 C3783 0.950 . S
H3779 C3784 0.949 . S
H3780 C3786 0.950 . S
H3781 C3787 0.950 . S
H3782 C3788 0.949 . S
C3783 H3778 0.950 . S
C3783 C3785 1.327 . S
C3783 C3789 1.429 . S
C3784 C3776 1.574 . S
C3784 H3779 0.949 . S
C3784 C3790 1.368 . S
C3785 C3769 1.349 . S
C3785 H3777 0.950 . S
C3785 C3783 1.327 . S
C3786 C3774 1.349 . S
C3786 H3780 0.950 . S
C3786 C3787 1.327 . S
C3787 H3781 0.950 . S
C3787 C3786 1.327 . S
C3787 C3791 1.429 . S
C3788 C3771 1.574 . S
C3788 H3782 0.949 . S
C3788 C3792 1.368 . S
C3789 C3770 1.429 . S
C3789 C3783 1.429 . S
C3789 C3790 1.523 . S
C3790 C3771 1.368 . S
C3790 C3784 1.368 . S
C3790 C3789 1.523 . S
C3791 C3775 1.429 . S
C3791 C3787 1.429 . S
C3791 C3792 1.523 . S
C3792 C3776 1.368 . S
C3792 C3788 1.368 . S
C3792 C3791 1.523 . S
H3793 C3768 0.950 . S
H3794 C3770 0.950 . S
H3795 C3771 0.949 . S
H3796 C3773 0.950 . S
H3797 C3775 0.950 . S
C3798 C3799 1.349 . S
C3798 C3800 1.327 . S
C3798 H3823 0.950 . S
C3799 C3798 1.349 . S
C3799 C3815 1.349 . S
C3800 C3798 1.327 . S
C3800 C3819 1.429 . S
C3800 H3824 0.950 . S
C3801 C3818 1.574 . S
C3801 C3820 1.368 . S
C3801 H3825 0.949 . S
H3802 C3806 0.949 . S
C3803 C3804 1.349 . S
C3803 C3805 1.327 . S
C3803 H3826 0.950 . S
C3804 C3803 1.349 . S
C3804 C3816 1.349 . S
C3805 C3803 1.327 . S
C3805 C3821 1.429 1_554 S
C3805 H3827 0.950 1_554 S
C3806 H3802 0.949 . S
C3806 C3814 1.574 . S
C3806 C3822 1.368 . S
H3807 C3815 0.950 . S
H3808 C3813 0.950 . S
H3809 C3814 0.949 . S
H3810 C3816 0.950 . S
H3811 C3817 0.950 . S
H3812 C3818 0.949 . S
C3813 H3808 0.950 . S
C3813 C3815 1.327 . S
C3813 C3819 1.429 . S
C3814 C3806 1.574 . S
C3814 H3809 0.949 . S
C3814 C3820 1.368 . S
C3815 C3799 1.349 . S
C3815 H3807 0.950 . S
C3815 C3813 1.327 . S
C3816 C3804 1.349 . S
C3816 H3810 0.950 . S
C3816 C3817 1.327 . S
C3817 H3811 0.950 . S
C3817 C3816 1.327 . S
C3817 C3821 1.430 1_554 S
C3818 C3801 1.574 . S
C3818 H3812 0.949 . S
C3818 C3822 1.368 . S
C3819 C3800 1.429 . S
C3819 C3813 1.429 . S
C3819 C3820 1.523 . S
C3820 C3801 1.368 . S
C3820 C3814 1.368 . S
C3820 C3819 1.523 . S
C3821 C3805 1.429 1_556 S
C3821 C3817 1.430 1_556 S
C3821 C3822 1.521 . S
C3822 C3806 1.368 . S
C3822 C3818 1.368 . S
C3822 C3821 1.521 . S
H3823 C3798 0.950 . S
H3824 C3800 0.950 . S
H3825 C3801 0.949 . S
H3826 C3803 0.950 . S
H3827 C3805 0.950 1_556 S
C3828 C3829 1.349 . S
C3828 C3830 1.327 . S
C3828 H3853 0.950 . S
C3829 C3828 1.349 . S
C3829 C3845 1.349 . S
C3830 C3828 1.327 . S
C3830 C3849 1.429 . S
C3830 H3854 0.950 . S
C3831 C3848 1.574 . S
C3831 C3850 1.368 . S
C3831 H3855 0.949 . S
H3832 C3836 0.949 . S
C3833 C3834 1.349 . S
C3833 C3835 1.327 . S
C3833 H3856 0.950 . S
C3834 C3833 1.349 . S
C3834 C3846 1.349 . S
C3835 C3833 1.327 . S
C3835 C3851 1.430 1_554 S
C3835 H3857 0.950 . S
C3836 H3832 0.949 . S
C3836 C3844 1.574 . S
C3836 C3852 1.368 . S
H3837 C3845 0.950 . S
H3838 C3843 0.950 . S
H3839 C3844 0.949 . S
H3840 C3846 0.950 . S
H3841 C3847 0.950 1_556 S
H3842 C3848 0.949 . S
C3843 H3838 0.950 . S
C3843 C3845 1.327 . S
C3843 C3849 1.429 . S
C3844 C3836 1.574 . S
C3844 H3839 0.949 . S
C3844 C3850 1.368 . S
C3845 C3829 1.349 . S
C3845 H3837 0.950 . S
C3845 C3843 1.327 . S
C3846 C3834 1.349 . S
C3846 H3840 0.950 . S
C3846 C3847 1.327 . S
C3847 H3841 0.950 1_554 S
C3847 C3846 1.327 . S
C3847 C3851 1.429 1_554 S
C3848 C3831 1.574 . S
C3848 H3842 0.949 . S
C3848 C3852 1.368 . S
C3849 C3830 1.429 . S
C3849 C3843 1.429 . S
C3849 C3850 1.523 . S
C3850 C3831 1.368 . S
C3850 C3844 1.368 . S
C3850 C3849 1.523 . S
C3851 C3835 1.430 1_556 S
C3851 C3847 1.429 1_556 S
C3851 C3852 1.521 . S
C3852 C3836 1.368 . S
C3852 C3848 1.368 . S
C3852 C3851 1.521 . S
H3853 C3828 0.950 . S
H3854 C3830 0.950 . S
H3855 C3831 0.949 . S
H3856 C3833 0.950 . S
H3857 C3835 0.950 . S
C3858 C3859 1.349 . S
C3858 C3860 1.327 . S
C3858 H3883 0.950 . S
C3859 C3858 1.349 . S
C3859 C3875 1.349 . S
C3860 C3858 1.327 . S
C3860 C3879 1.429 . S
C3860 H3884 0.950 . S
C3861 C3878 1.574 . S
C3861 C3880 1.368 . S
C3861 H3885 0.949 . S
H3862 C3866 0.949 . S
C3863 C3864 1.349 . S
C3863 C3865 1.327 . S
C3863 H3886 0.950 . S
C3864 C3863 1.349 . S
C3864 C3876 1.349 . S
C3865 C3863 1.327 . S
C3865 C3881 1.430 1_554 S
C3865 H3887 0.950 . S
C3866 H3862 0.949 . S
C3866 C3874 1.574 . S
C3866 C3882 1.368 . S
H3867 C3875 0.950 . S
H3868 C3873 0.950 . S
H3869 C3874 0.949 . S
H3870 C3876 0.950 . S
H3871 C3877 0.950 . S
H3872 C3878 0.949 . S
C3873 H3868 0.950 . S
C3873 C3875 1.327 . S
C3873 C3879 1.429 . S
C3874 C3866 1.574 . S
C3874 H3869 0.949 . S
C3874 C3880 1.368 . S
C3875 C3859 1.349 . S
C3875 H3867 0.950 . S
C3875 C3873 1.327 . S
C3876 C3864 1.349 . S
C3876 H3870 0.950 . S
C3876 C3877 1.327 . S
C3877 H3871 0.950 . S
C3877 C3876 1.327 . S
C3877 C3881 1.430 1_554 S
C3878 C3861 1.574 . S
C3878 H3872 0.949 . S
C3878 C3882 1.368 . S
C3879 C3860 1.429 . S
C3879 C3873 1.429 . S
C3879 C3880 1.523 . S
C3880 C3861 1.368 . S
C3880 C3874 1.368 . S
C3880 C3879 1.523 . S
C3881 C3865 1.430 1_556 S
C3881 C3877 1.430 1_556 S
C3881 C3882 1.521 . S
C3882 C3866 1.368 . S
C3882 C3878 1.368 . S
C3882 C3881 1.521 . S
H3883 C3858 0.950 . S
H3884 C3860 0.950 . S
H3885 C3861 0.949 . S
H3886 C3863 0.950 . S
H3887 C3865 0.950 . S
C1189 C536 1.005 . S
C1194 C8 1.005 . S
C1219 C569 1.006 . S
C1224 C41 1.006 . S
C1249 C503 1.004 . S
C1254 C74 1.004 . S
C1279 C107 1.004 . S
C1284 C866 1.004 . S
C1309 C800 1.005 . S
C1314 C140 1.005 . S
C1339 C833 1.006 . S
C1344 C173 1.006 . S
C1369 C206 1.005 . S
C1374 C1130 1.005 . S
C1399 C1163 1.006 . S
C1404 C239 1.006 . S
C1429 C272 1.004 . S
C1434 C1097 1.004 . S
C1459 C668 1.004 . S
C1464 C305 1.004 . S
C1489 C338 1.005 . S
C1494 C602 1.005 . S
C1519 C635 1.006 . S
C1524 C371 1.006 . S
C1549 C404 1.005 . S
C1554 C932 1.005 . S
C1579 C965 1.006 . S
C1584 C437 1.006 . S
C1609 C899 1.004 . S
C1614 C470 1.004 . S
C1639 C1064 1.004 . S
C1644 C701 1.004 . S
C1669 C734 1.005 . S
C1674 C998 1.005 . S
C1699 C1031 1.006 . S
C1704 C767 1.006 . S
C1729 N104 1.851 . S
C1734 N5 1.851 . S
C1759 N137 1.851 . S
C1764 N38 1.851 . S
C1789 N71 1.851 . S
C1794 N170 1.851 . S
C1819 N302 1.851 . S
C1824 N203 1.851 . S
C1849 N236 1.851 . S
C1854 N335 1.851 . S
C1879 N368 1.851 . S
C1884 N269 1.851 . S
C1909 N401 1.851 . S
C1914 N500 1.851 . S
C1939 N434 1.851 . S
C1944 N533 1.851 . S
C1969 N566 1.851 . S
C1974 N467 1.851 . S
C1999 N698 1.851 . S
C2004 N599 1.851 . S
C2029 N731 1.851 . S
C2034 N632 1.851 . S
C2059 N764 1.851 . S
C2064 N665 1.851 . S
C2089 N797 1.851 . S
C2094 N896 1.851 . S
C2119 N929 1.851 . S
C2124 N830 1.851 . S
C2149 N863 1.851 . S
C2154 N962 1.851 . S
C2179 N995 1.851 . S
C2184 N1094 1.851 . S
C2209 N1028 1.851 . S
C2214 N1127 1.851 . S
C2239 N1160 1.851 . S
C2244 N1061 1.851 . S
C2269 C17 1.390 . S
C2274 C259 1.385 . S
C2299 C292 1.384 . S
C2304 C50 1.390 . S
C2329 C226 1.385 . S
C2334 C83 1.391 . S
C2359 C116 1.391 . S
C2364 C391 1.385 . S
C2389 C325 1.385 . S
C2394 C149 1.390 . S
C2419 C358 1.384 . S
C2424 C182 1.390 . S
C2449 C215 1.390 . S
C2454 C61 1.385 . S
C2479 C94 1.384 . S
C2484 C248 1.390 . S
C2509 C28 1.385 . S
C2514 C281 1.391 . S
C2539 C193 1.385 . S
C2544 C314 1.391 . S
C2569 C127 1.385 . S
C2574 C347 1.390 . S
C2599 C380 1.390 . S
C2604 C160 1.384 . S
C2629 C413 1.390 . S
C2634 C655 1.385 . S
C2659 C446 1.390 . S
C2664 C688 1.385 . S
C2689 C479 1.391 . S
C2694 C622 1.385 . S
C2719 C787 1.385 . S
C2724 C512 1.391 . S
C2749 C545 1.390 . S
C2754 C721 1.385 . S
C2779 C578 1.390 . S
C2784 C754 1.384 . S
C2809 C611 1.390 . S
C2814 C457 1.385 . S
C2839 C490 1.384 . S
C2844 C644 1.390 . S
C2869 C677 1.391 . S
C2874 C424 1.385 . S
C2899 C710 1.391 . S
C2904 C589 1.385 . S
C2929 C743 1.390 . S
C2934 C523 1.385 . S
C2959 C776 1.390 . S
C2964 C556 1.384 . S
C2989 C809 1.390 . S
C2994 C1051 1.385 . S
C3019 C1084 1.384 . S
C3024 C842 1.390 . S
C3049 C875 1.391 . S
C3054 C1018 1.385 . S
C3079 C908 1.390 . S
C3084 C1183 1.385 . S
C3109 C941 1.391 . S
C3114 C1117 1.385 . S
C3139 C974 1.390 . S
C3144 C1150 1.384 . S
C3169 C853 1.385 . S
C3174 C1007 1.390 . S
C3199 C886 1.384 . S
C3204 C1040 1.390 . S
C3229 C820 1.385 . S
C3234 C1073 1.391 . S
C3259 C985 1.385 . S
C3264 C1106 1.391 . S
C3289 C1139 1.391 . S
C3294 C919 1.385 . S
C3319 C1172 1.390 . S
C3324 C952 1.384 . S
C3349 N113 1.029 . S
C3354 N14 1.028 . S
C3379 N47 1.028 . S
C3384 N146 1.028 . S
C3409 N179 1.028 . S
C3414 N80 1.028 . S
C3439 N311 1.029 . S
C3444 N212 1.029 . S
C3469 N344 1.028 . S
C3474 N245 1.028 . S
C3499 N278 1.029 . S
C3504 N377 1.029 . S
C3529 N509 1.029 . S
C3534 N410 1.029 . S
C3559 N443 1.028 . S
C3564 N542 1.028 . S
C3589 N575 1.028 . S
C3594 N476 1.028 . S
C3619 N707 1.029 . S
C3624 N608 1.029 . S
C3649 N740 1.028 . S
C3654 N641 1.028 . S
C3679 N674 1.028 . S
C3684 N773 1.028 . S
C3709 N905 1.029 . S
C3714 N806 1.029 . S
C3739 N839 1.028 . S
C3744 N938 1.028 . S
C3769 N971 1.028 . S
C3774 N872 1.028 . S
C3799 N1004 1.029 . S
C3804 N1103 1.029 . S
C3829 N1037 1.028 . S
C3834 N1136 1.028 . S
C3859 N1070 1.028 . S
C3864 N1169 1.028 . S
