# Generated by pormake.
# Topology ums, (4)-cn, num edge types: 1
# Building blocks:
#     Node 0, Type 0, BuildingBlock: TATPOV_clean_sbu_0, # of connection points: 4
#     Node 1, Type 0, BuildingBlock: TATPOV_clean_sbu_0, # of connection points: 4
#     Node 2, Type 0, BuildingBlock: TATPOV_clean_sbu_0, # of connection points: 4
#     Node 3, Type 0, BuildingBlock: TATPOV_clean_sbu_0, # of connection points: 4
#     Node 4, Type 0, BuildingBlock: TATPOV_clean_sbu_0, # of connection points: 4
#     Node 5, Type 0, BuildingBlock: TATPOV_clean_sbu_0, # of connection points: 4
#     Node 6, Type 0, BuildingBlock: TATPOV_clean_sbu_0, # of connection points: 4
#     Node 7, Type 0, BuildingBlock: TATPOV_clean_sbu_0, # of connection points: 4
#     Node 8, Type 0, BuildingBlock: TATPOV_clean_sbu_0, # of connection points: 4
#     Node 9, Type 0, BuildingBlock: TATPOV_clean_sbu_0, # of connection points: 4
#     Node 10, Type 0, BuildingBlock: TATPOV_clean_sbu_0, # of connection points: 4
#     Node 11, Type 0, BuildingBlock: TATPOV_clean_sbu_0, # of connection points: 4
#     Node 12, Type 0, BuildingBlock: TATPOV_clean_sbu_0, # of connection points: 4
#     Node 13, Type 0, BuildingBlock: TATPOV_clean_sbu_0, # of connection points: 4
#     Node 14, Type 0, BuildingBlock: TATPOV_clean_sbu_0, # of connection points: 4
#     Node 15, Type 0, BuildingBlock: TATPOV_clean_sbu_0, # of connection points: 4
#     Node 16, Type 0, BuildingBlock: TATPOV_clean_sbu_0, # of connection points: 4
#     Node 17, Type 0, BuildingBlock: TATPOV_clean_sbu_0, # of connection points: 4
#     Node 18, Type 0, BuildingBlock: TATPOV_clean_sbu_0, # of connection points: 4
#     Node 19, Type 0, BuildingBlock: TATPOV_clean_sbu_0, # of connection points: 4
#     Node 20, Type 0, BuildingBlock: TATPOV_clean_sbu_0, # of connection points: 4
#     Node 21, Type 0, BuildingBlock: TATPOV_clean_sbu_0, # of connection points: 4
#     Node 22, Type 0, BuildingBlock: TATPOV_clean_sbu_0, # of connection points: 4
#     Node 23, Type 0, BuildingBlock: TATPOV_clean_sbu_0, # of connection points: 4
#     Node 24, Type 0, BuildingBlock: TATPOV_clean_sbu_0, # of connection points: 4
#     Node 25, Type 0, BuildingBlock: TATPOV_clean_sbu_0, # of connection points: 4
#     Node 26, Type 0, BuildingBlock: TATPOV_clean_sbu_0, # of connection points: 4
#     Node 27, Type 0, BuildingBlock: TATPOV_clean_sbu_0, # of connection points: 4
#     Node 28, Type 0, BuildingBlock: TATPOV_clean_sbu_0, # of connection points: 4
#     Node 29, Type 0, BuildingBlock: TATPOV_clean_sbu_0, # of connection points: 4
#     Node 30, Type 0, BuildingBlock: TATPOV_clean_sbu_0, # of connection points: 4
#     Node 31, Type 0, BuildingBlock: TATPOV_clean_sbu_0, # of connection points: 4
#     Node 32, Type 0, BuildingBlock: TATPOV_clean_sbu_0, # of connection points: 4
#     Node 33, Type 0, BuildingBlock: TATPOV_clean_sbu_0, # of connection points: 4
#     Node 34, Type 0, BuildingBlock: TATPOV_clean_sbu_0, # of connection points: 4
#     Node 35, Type 0, BuildingBlock: TATPOV_clean_sbu_0, # of connection points: 4
#     Edge 36, Type (0, 0), None
#     Edge 37, Type (0, 0), None
#     Edge 38, Type (0, 0), None
#     Edge 39, Type (0, 0), None
#     Edge 40, Type (0, 0), None
#     Edge 41, Type (0, 0), None
#     Edge 42, Type (0, 0), None
#     Edge 43, Type (0, 0), None
#     Edge 44, Type (0, 0), None
#     Edge 45, Type (0, 0), None
#     Edge 46, Type (0, 0), None
#     Edge 47, Type (0, 0), None
#     Edge 48, Type (0, 0), None
#     Edge 49, Type (0, 0), None
#     Edge 50, Type (0, 0), None
#     Edge 51, Type (0, 0), None
#     Edge 52, Type (0, 0), None
#     Edge 53, Type (0, 0), None
#     Edge 54, Type (0, 0), None
#     Edge 55, Type (0, 0), None
#     Edge 56, Type (0, 0), None
#     Edge 57, Type (0, 0), None
#     Edge 58, Type (0, 0), None
#     Edge 59, Type (0, 0), None
#     Edge 60, Type (0, 0), None
#     Edge 61, Type (0, 0), None
#     Edge 62, Type (0, 0), None
#     Edge 63, Type (0, 0), None
#     Edge 64, Type (0, 0), None
#     Edge 65, Type (0, 0), None
#     Edge 66, Type (0, 0), None
#     Edge 67, Type (0, 0), None
#     Edge 68, Type (0, 0), None
#     Edge 69, Type (0, 0), None
#     Edge 70, Type (0, 0), None
#     Edge 71, Type (0, 0), None
#     Edge 72, Type (0, 0), None
#     Edge 73, Type (0, 0), None
#     Edge 74, Type (0, 0), None
#     Edge 75, Type (0, 0), None
#     Edge 76, Type (0, 0), None
#     Edge 77, Type (0, 0), None
#     Edge 78, Type (0, 0), None
#     Edge 79, Type (0, 0), None
#     Edge 80, Type (0, 0), None
#     Edge 81, Type (0, 0), None
#     Edge 82, Type (0, 0), None
#     Edge 83, Type (0, 0), None
#     Edge 84, Type (0, 0), None
#     Edge 85, Type (0, 0), None
#     Edge 86, Type (0, 0), None
#     Edge 87, Type (0, 0), None
#     Edge 88, Type (0, 0), None
#     Edge 89, Type (0, 0), None
#     Edge 90, Type (0, 0), None
#     Edge 91, Type (0, 0), None
#     Edge 92, Type (0, 0), None
#     Edge 93, Type (0, 0), None
#     Edge 94, Type (0, 0), None
#     Edge 95, Type (0, 0), None
#     Edge 96, Type (0, 0), None
#     Edge 97, Type (0, 0), None
#     Edge 98, Type (0, 0), None
#     Edge 99, Type (0, 0), None
#     Edge 100, Type (0, 0), None
#     Edge 101, Type (0, 0), None
#     Edge 102, Type (0, 0), None
#     Edge 103, Type (0, 0), None
#     Edge 104, Type (0, 0), None
#     Edge 105, Type (0, 0), None
#     Edge 106, Type (0, 0), None
#     Edge 107, Type (0, 0), None
# Relax obj value: 0.114
# Max RMSD: 0.112
# Mean RMSD: 0.112
data_MOF--net-ums--node1-TATPOV_clean_sbu_0--edge1-none
_symmetry_space_group_name_H-M    P1
_symmetry_Int_Tables_number       1
_symmetry_cell_setting            triclinic
loop_
_symmetry_equiv_pos_as_xyz
'x, y, z'
_cell_length_a     46.178591
_cell_length_b     46.121788
_cell_length_c     10.783272
_cell_angle_alpha  89.964288
_cell_angle_beta   90.382226
_cell_angle_gamma 119.92388
loop_
_atom_site_label
_atom_site_type_symbol
_atom_site_fract_x
_atom_site_fract_y
_atom_site_fract_z
_atom_type_partial_charge
Zn0 Zn 0.1186 0.26035 0.07532 0.0
Zn1 Zn 0.17318 0.25933 0.1466 0.0
O2 O 0.1943 0.31007 0.14062 0.0
O3 O 0.15154 0.3098 0.0462 0.0
O4 O 0.20658 0.24931 0.22992 0.0
O5 O 0.0928 0.24596 0.22908 0.0
O6 O 0.13359 0.23547 0.26876 0.0
C7 C 0.18136 0.32551 0.08674 0.0
C8 C 0.13867 0.22861 0.90768 0.0
O9 O 0.16656 0.24438 0.96415 0.0
O10 O 0.11245 0.22286 0.96343 0.0
C11 C 0.22135 0.23541 0.17982 0.0
O12 O 0.21772 0.22899 0.06034 0.0
C13 C 0.10544 0.23267 0.29623 0.0
Zn14 Zn 0.74762 0.86087 0.08751 0.0
Zn15 Zn 0.75009 0.91675 0.15256 0.0
O16 O 0.69904 0.88754 0.14468 0.0
O17 O 0.69834 0.84364 0.05936 0.0
O18 O 0.76131 0.96059 0.23689 0.0
O19 O 0.76315 0.84926 0.23872 0.0
O20 O 0.77383 0.90066 0.27595 0.0
C21 C 0.68311 0.85855 0.09547 0.0
C22 C 0.77918 0.91113 0.91248 0.0
O23 O 0.76529 0.92494 0.97025 0.0
O24 O 0.78289 0.88882 0.96557 0.0
C25 C 0.7726 0.98905 0.18633 0.0
O26 O 0.77545 0.9916 0.06521 0.0
C27 C 0.77673 0.87536 0.30466 0.0
Zn28 Zn 0.15196 0.90624 0.03745 0.0
Zn29 Zn 0.08663 0.83908 0.12505 0.0
O30 O 0.11583 0.81964 0.0799 0.0
O31 O 0.16113 0.86649 0.01841 0.0
O32 O 0.04798 0.80722 0.23144 0.0
O33 O 0.16193 0.92643 0.21067 0.0
O34 O 0.11452 0.87931 0.23585 0.0
C35 C 0.1455 0.835 0.0375 0.0
C36 C 0.08839 0.87506 0.91885 0.0
O37 O 0.06914 0.84655 0.96374 0.0
O38 O 0.1055 0.8981 -0.00475 0.0
C39 C 0.01926 0.78708 0.18731 0.0
O40 O 0.01467 0.78458 0.06662 0.0
C41 C 0.13719 0.90748 0.27783 0.0
Zn42 Zn 0.25329 0.10631 0.40428 0.0
Zn43 Zn 0.25426 0.1689 0.31144 0.0
O44 O 0.30392 0.189 0.33647 0.0
O45 O 0.30249 0.14442 0.42274 0.0
O46 O 0.24446 0.20036 0.21273 0.0
O47 O 0.24117 0.0836 0.23868 0.0
O48 O 0.23675 0.12814 0.19716 0.0
C49 C 0.31846 0.17489 0.38888 0.0
C50 C 0.22197 0.13536 0.53534 0.0
O51 O 0.23653 0.1639 0.4853 0.0
O52 O 0.21393 0.11037 0.46663 0.0
C53 C 0.23668 0.22078 0.25933 0.0
O54 O 0.23692 0.22411 0.38033 0.0
C55 C 0.23209 0.09935 0.16691 0.0
Zn56 Zn 0.89076 0.14662 0.35791 0.0
Zn57 Zn 0.83769 0.09171 0.29522 0.0
O58 O 0.81671 0.12187 0.29789 0.0
O59 O 0.86022 0.16577 0.38197 0.0
O60 O 0.80422 0.04783 0.21323 0.0
O61 O 0.91819 0.15737 0.20929 0.0
O62 O 0.87719 0.1061 0.1729 0.0
C63 C 0.83016 0.15121 0.34435 0.0
C64 C 0.87228 0.0976 0.5383 0.0
O65 O 0.84466 0.08377 0.47898 0.0
O66 O 0.89824 0.12002 0.48658 0.0
C67 C 0.78807 0.01936 0.26437 0.0
O68 O 0.79003 0.01684 0.38507 0.0
C69 C 0.90551 0.13105 0.1446 0.0
Zn70 Zn 0.8578 0.75602 0.41704 0.0
Zn71 Zn 0.92164 0.75464 0.32678 0.0
O72 O 0.89206 0.70544 0.3612 0.0
O73 O 0.84773 0.70694 0.43415 0.0
O74 O 0.96145 0.76241 0.22518 0.0
O75 O 0.84804 0.76736 0.24715 0.0
O76 O 0.89633 0.76985 0.21304 0.0
C77 C 0.86288 0.69101 0.40779 0.0
C78 C 0.91998 0.78789 0.54151 0.0
O79 O 0.93693 0.77607 0.49493 0.0
O80 O 0.90311 0.79485 0.46764 0.0
C81 C 0.9904 0.77252 0.27033 0.0
O82 O 0.99497 0.77584 0.39093 0.0
C83 C 0.87285 0.77502 0.17772 0.0
Zn84 Zn 0.8938 0.7488 0.88893 0.0
Zn85 Zn 0.83726 0.74895 0.80973 0.0
O86 O 0.81651 0.69855 0.81853 0.0
O87 O 0.85915 0.69942 0.9171 0.0
O88 O 0.80397 0.75871 0.72465 0.0
O89 O 0.91833 0.76202 0.73155 0.0
O90 O 0.87705 0.7716 0.68858 0.0
C91 C 0.82943 0.6835 0.87532 0.0
C92 C 0.87136 0.78073 0.04555 0.0
O93 O 0.8434 0.764 -0.00922 0.0
O94 O 0.89756 0.78794 -0.01327 0.0
C95 C 0.78911 0.77262 0.77404 0.0
O96 O 0.79264 0.7792 0.89339 0.0
C97 C 0.90528 0.77446 0.66202 0.0
Zn98 Zn 0.25683 0.14712 0.89278 0.0
Zn99 Zn 0.25683 0.08839 0.8065 0.0
O100 O 0.30703 0.11756 0.82228 0.0
O101 O 0.30604 0.15953 0.91878 0.0
O102 O 0.24613 0.04589 0.71469 0.0
O103 O 0.24444 0.1587 0.73153 0.0
O104 O 0.23635 0.1084 0.68793 0.0
C105 C 0.32192 0.14547 0.87945 0.0
C106 C 0.22447 0.08981 0.03686 0.0
O107 O 0.24102 0.07812 -0.01502 0.0
O108 O 0.21674 0.10791 0.97349 0.0
C109 C 0.23679 0.01757 0.76351 0.0
O110 O 0.2358 0.01477 0.8848 0.0
C111 C 0.23301 0.13353 0.66056 0.0
Zn112 Zn 0.85805 0.09869 0.91373 0.0
Zn113 Zn 0.92406 0.16719 0.8299 0.0
O114 O 0.89514 0.18644 0.88203 0.0
O115 O 0.84944 0.13887 0.93601 0.0
O116 O 0.96208 0.19919 0.72161 0.0
O117 O 0.84798 0.07929 0.73808 0.0
O118 O 0.89471 0.12724 0.72075 0.0
C119 C 0.86522 0.1706 0.92211 0.0
C120 C 0.92195 0.13031 0.03072 0.0
O121 O 0.9425 0.1585 -0.01346 0.0
O122 O 0.90487 0.1075 0.95343 0.0
C123 C 0.9908 0.21951 0.76528 0.0
O124 O 0.99557 0.22199 0.88588 0.0
C125 C 0.87262 0.09961 0.67324 0.0
Zn126 Zn 0.76096 0.90711 0.53889 0.0
Zn127 Zn 0.75935 0.83957 0.62809 0.0
O128 O 0.71064 0.8196 0.58231 0.0
O129 O 0.71207 0.86672 0.52224 0.0
O130 O 0.76762 0.80893 0.73777 0.0
O131 O 0.77184 0.9283 0.71158 0.0
O132 O 0.77072 0.88041 0.73234 0.0
C133 C 0.69624 0.83516 0.5407 0.0
C134 C 0.79273 0.8753 0.42152 0.0
O135 O 0.78372 0.84683 0.46684 0.0
O136 O 0.799 0.89852 0.49736 0.0
C137 C 0.77407 0.78729 0.69358 0.0
O138 O 0.77302 0.78284 0.57299 0.0
C139 C 0.77667 0.90836 0.77776 0.0
Zn140 Zn 0.11719 0.86022 0.58198 0.0
Zn141 Zn 0.17192 0.91557 0.6526 0.0
O142 O 0.19243 0.8854 0.64889 0.0
O143 O 0.14943 0.8428 0.55607 0.0
O144 O 0.2055 0.95893 0.73579 0.0
O145 O 0.09114 0.84935 0.73468 0.0
O146 O 0.13237 0.90034 0.77438 0.0
C147 C 0.17917 0.85672 0.5973 0.0
C148 C 0.1379 0.91178 0.4119 0.0
O149 O 0.16565 0.92389 0.46944 0.0
O150 O 0.11151 0.89114 0.46634 0.0
C151 C 0.2212 0.98746 0.68494 0.0
O152 O 0.21846 0.99013 0.56475 0.0
C153 C 0.10406 0.87525 0.80179 0.0
Zn154 Zn 0.1527 0.24906 0.53346 0.0
Zn155 Zn 0.0875 0.25084 0.62114 0.0
O156 O 0.11685 0.29961 0.57828 0.0
O157 O 0.16199 0.298 0.51507 0.0
O158 O 0.0485 0.2438 0.72607 0.0
O159 O 0.1624 0.23848 0.70616 0.0
O160 O 0.11484 0.2379 0.73318 0.0
C161 C 0.14646 0.31391 0.5353 0.0
C162 C 0.0896 0.21718 0.41318 0.0
O163 O 0.07059 0.22672 0.45815 0.0
O164 O 0.10649 0.21082 0.48928 0.0
C165 C 0.01955 0.23413 0.68178 0.0
O166 O 0.01479 0.2311 0.56123 0.0
C167 C 0.13766 0.2324 0.77382 0.0
Zn168 Zn 0.78055 0.58923 0.40546 0.0
Zn169 Zn 0.83728 0.58937 0.4855 0.0
O170 O 0.85765 0.63972 0.47733 0.0
O171 O 0.81491 0.63869 0.37877 0.0
O172 O 0.87048 0.57952 0.57153 0.0
O173 O 0.75585 0.57579 0.56247 0.0
O174 O 0.7974 0.56669 0.60609 0.0
C175 C 0.84455 0.65471 0.42127 0.0
C176 C 0.80361 0.55783 0.24852 0.0
O177 O 0.83148 0.57458 0.30394 0.0
O178 O 0.7773 0.55042 0.30693 0.0
C179 C 0.88762 0.56827 0.52086 0.0
O180 O 0.88655 0.56456 0.3999 0.0
C181 C 0.76908 0.56362 0.63244 0.0
Zn182 Zn 0.42006 0.19239 0.39045 0.0
Zn183 Zn 0.41945 0.25049 0.47487 0.0
O184 O 0.36945 0.22077 0.46039 0.0
O185 O 0.37076 0.1791 0.36299 0.0
O186 O 0.42881 0.29294 0.56304 0.0
O187 O 0.43244 0.18116 0.55188 0.0
O188 O 0.44068 0.23152 0.59563 0.0
C189 C 0.35472 0.19288 0.4032 0.0
C190 C 0.45183 0.24913 0.24421 0.0
O191 O 0.43501 0.26046 0.29632 0.0
O192 O 0.45986 0.23122 0.30729 0.0
C193 C 0.44212 0.3219 0.51529 0.0
O194 O 0.44834 0.32554 0.39594 0.0
C195 C 0.44388 0.2063 0.62295 0.0
Zn196 Zn 0.81895 0.24101 0.36736 0.0
Zn197 Zn 0.75275 0.17257 0.45084 0.0
O198 O 0.78143 0.15301 0.39879 0.0
O199 O 0.82724 0.20055 0.34547 0.0
O200 O 0.71477 0.14099 0.56001 0.0
O201 O 0.82908 0.26052 0.5429 0.0
O202 O 0.78237 0.21257 0.5591 0.0
C203 C 0.81138 0.16881 0.35902 0.0
C204 C 0.75507 0.20969 0.2504 0.0
O205 O 0.73444 0.1815 0.29437 0.0
O206 O 0.77217 0.2324 0.32798 0.0
C207 C 0.68559 0.1217 0.51786 0.0
O208 O 0.68019 0.11977 0.39765 0.0
C209 C 0.80439 0.24011 0.6073 0.0
Zn210 Zn 0.92305 0.444 0.72717 0.0
Zn211 Zn 0.92346 0.50301 0.64044 0.0
O212 O 0.97355 0.52357 0.65585 0.0
O213 O 0.97231 0.48049 0.75268 0.0
O214 O 0.91315 0.53524 0.54951 0.0
O215 O 0.91054 0.42018 0.56585 0.0
O216 O 0.90281 0.46261 0.52163 0.0
C217 C 0.98831 0.51037 0.71294 0.0
C218 C 0.89134 0.46949 0.87157 0.0
O219 O 0.90791 0.49762 0.81911 0.0
O220 O 0.88324 0.44358 0.80829 0.0
C221 C 0.90305 0.5535 0.59918 0.0
O222 O 0.90107 0.55424 0.72044 0.0
C223 C 0.89935 0.43409 0.49447 0.0
Zn224 Zn 0.58071 0.48341 0.75128 0.0
Zn225 Zn 0.50956 0.41645 0.67147 0.0
O226 O 0.49037 0.44466 0.73379 0.0
O227 O 0.53928 0.49041 0.77898 0.0
O228 O 0.47876 0.37935 0.55564 0.0
O229 O 0.5984 0.49362 0.57056 0.0
O230 O 0.54923 0.44896 0.57307 0.0
C231 C 0.50731 0.47489 0.7722 0.0
C232 C 0.54777 0.41978 0.86867 0.0
O233 O 0.52047 0.3975 0.82205 0.0
O234 O 0.57111 0.43636 0.79332 0.0
C235 C 0.45682 0.3512 0.59757 0.0
O236 O 0.45233 0.34719 0.71788 0.0
C237 C 0.57456 0.46972 0.51199 0.0
Zn238 Zn 0.52508 0.10005 0.74872 0.0
Zn239 Zn 0.59192 0.09515 0.67588 0.0
O240 O 0.56377 0.04828 0.7421 0.0
O241 O 0.51799 0.05171 0.78153 0.0
O242 O 0.62848 0.10002 0.56218 0.0
O243 O 0.51492 0.10652 0.56589 0.0
O244 O 0.55947 0.10174 0.57261 0.0
C245 C 0.53352 0.03518 0.77849 0.0
C246 C 0.58874 0.13112 0.86806 0.0
O247 O 0.61128 0.12649 0.8226 0.0
O248 O 0.57198 0.1377 0.79165 0.0
C249 C 0.65732 0.108 0.60346 0.0
O250 O 0.66274 0.11042 0.7237 0.0
C251 C 0.53861 0.10596 0.50929 0.0
Zn252 Zn 0.55457 0.0718 0.17347 0.0
Zn253 Zn 0.50341 0.07752 0.12769 0.0
O254 O 0.48214 0.02565 0.13166 0.0
O255 O 0.52707 0.02199 0.17182 0.0
O256 O 0.46852 0.08693 0.05146 0.0
O257 O 0.58415 0.09603 0.03435 0.0
O258 O 0.54208 0.10491 0.00313 0.0
C259 C 0.4959 0.00803 0.15328 0.0
C260 C 0.53794 0.10085 0.3754 0.0
O261 O 0.51254 0.09477 0.30906 0.0
O262 O 0.56045 0.09572 0.33291 0.0
C263 C 0.45652 0.10354 0.10173 0.0
O264 O 0.46375 0.11294 0.21807 0.0
C265 C 0.57103 0.11003 0.97417 0.0
Zn266 Zn 0.92053 0.48173 0.23834 0.0
Zn267 Zn 0.92114 0.41994 0.14588 0.0
O268 O 0.97095 0.44923 0.17136 0.0
O269 O 0.96961 0.49239 0.2577 0.0
O270 O 0.91074 0.3784 0.04742 0.0
O271 O 0.90857 0.49252 0.0728 0.0
O272 O 0.90375 0.44338 0.03158 0.0
C273 C 0.98555 0.4778 0.22424 0.0
C274 C 0.88857 0.42137 0.36897 0.0
O275 O 0.90322 0.40738 0.31963 0.0
O276 O 0.8808 0.43851 0.30003 0.0
C277 C 0.90307 0.3502 0.09399 0.0
O278 O 0.90388 0.34724 0.2149 0.0
C279 C 0.89923 0.46762 0.00134 0.0
Zn280 Zn 0.52472 0.45425 0.17729 0.0
Zn281 Zn 0.58106 0.50526 0.13229 0.0
O282 O 0.55091 0.52699 0.13792 0.0
O283 O 0.50288 0.48223 0.18268 0.0
O284 O 0.62518 0.53984 0.05628 0.0
O285 O 0.5179 0.42472 0.03549 0.0
O286 O 0.569 0.46634 0.00636 0.0
C287 C 0.51986 0.51336 0.16325 0.0
C288 C 0.57061 0.47025 0.37772 0.0
O289 O 0.58934 0.49611 0.31353 0.0
O290 O 0.54339 0.4473 0.33318 0.0
C291 C 0.6539 0.55182 0.10628 0.0
O292 O 0.65646 0.54483 0.22249 0.0
C293 C 0.54488 0.43755 -0.02408 0.0
Zn294 Zn 0.42306 0.23286 0.8772 0.0
Zn295 Zn 0.42291 0.17003 0.97039 0.0
O296 O 0.373 0.1494 0.94487 0.0
O297 O 0.37408 0.19405 0.86061 0.0
O298 O 0.43399 0.13923 0.06905 0.0
O299 O 0.4352 0.2555 0.0427 0.0
O300 O 0.43974 0.21098 0.08355 0.0
C301 C 0.35826 0.16348 0.89344 0.0
C302 C 0.45505 0.20433 0.74783 0.0
O303 O 0.44086 0.17562 0.79669 0.0
O304 O 0.46274 0.22903 0.81759 0.0
C305 C 0.44037 0.11766 0.02344 0.0
O306 O 0.43784 0.11247 0.90314 0.0
C307 C 0.44436 0.23974 0.11411 0.0
Zn308 Zn 0.78621 0.19317 0.92338 0.0
Zn309 Zn 0.83918 0.24779 -0.01478 0.0
O310 O 0.85993 0.21751 -0.01703 0.0
O311 O 0.81637 0.17362 0.89933 0.0
O312 O 0.87323 0.29151 0.06553 0.0
O313 O 0.75881 0.18262 0.07192 0.0
O314 O 0.79987 0.23387 0.10825 0.0
C315 C 0.84643 0.18815 0.93688 0.0
C316 C 0.80462 0.24192 0.74223 0.0
O317 O 0.83221 0.25574 0.80167 0.0
O318 O 0.77863 0.21941 0.79355 0.0
C319 C 0.88731 0.32015 0.015 0.0
O320 O 0.88262 0.3228 0.89625 0.0
C321 C 0.77152 0.20895 0.13656 0.0
Zn322 Zn 0.81671 0.58236 0.87753 0.0
Zn323 Zn 0.75239 0.58318 0.96944 0.0
O324 O 0.78177 0.63269 0.93584 0.0
O325 O 0.82611 0.63125 0.86214 0.0
O326 O 0.71176 0.57333 0.07212 0.0
O327 O 0.82696 0.57099 0.04677 0.0
O328 O 0.77878 0.5687 0.08051 0.0
C329 C 0.81097 0.64716 0.88896 0.0
C330 C 0.75453 0.55039 0.75336 0.0
O331 O 0.73766 0.56231 0.80006 0.0
O332 O 0.77146 0.54342 0.82688 0.0
C333 C 0.68382 0.56754 0.02761 0.0
O334 O 0.68072 0.57016 0.90759 0.0
C335 C 0.8022 0.56348 0.11623 0.0
Zn336 Zn 0.45507 0.93513 0.77654 0.0
Zn337 Zn 0.50632 0.92944 0.82219 0.0
O338 O 0.52754 0.98126 0.81826 0.0
O339 O 0.48257 0.98496 0.77946 0.0
O340 O 0.54134 0.92018 0.89771 0.0
O341 O 0.42547 0.9106 0.91532 0.0
O342 O 0.46772 0.90202 0.94705 0.0
C343 C 0.51376 0.9989 0.79745 0.0
C344 C 0.47194 0.90626 0.57434 0.0
O345 O 0.49723 0.91217 0.64101 0.0
O346 O 0.44948 0.9115 0.61652 0.0
C347 C 0.55279 0.90301 0.84801 0.0
O348 O 0.54488 0.89292 0.73262 0.0
C349 C 0.4387 0.89676 0.97581 0.0
Zn350 Zn 0.0897 0.52497 0.71366 0.0
Zn351 Zn 0.08888 0.58658 0.806 0.0
O352 O 0.03914 0.55716 0.78056 0.0
O353 O 0.04056 0.51409 0.69396 0.0
O354 O 0.0989 0.62797 0.90434 0.0
O355 O 0.10168 0.51425 0.87928 0.0
O356 O 0.10645 0.56336 0.9206 0.0
C357 C 0.02459 0.52861 0.72759 0.0
C358 C 0.12147 0.58531 0.5827 0.0
O359 O 0.10677 0.59922 0.63225 0.0
O360 O 0.12932 0.56823 0.65161 0.0
C361 C 0.10695 0.65623 0.8575 0.0
O362 O 0.10678 0.65929 0.73646 0.0
C363 C 0.11099 0.53913 0.95081 0.0
Zn364 Zn 0.48559 0.5535 0.7759 0.0
Zn365 Zn 0.42929 0.50243 0.82071 0.0
O366 O 0.45964 0.48092 0.81558 0.0
O367 O 0.50766 0.52574 0.77122 0.0
O368 O 0.38514 0.46771 0.89614 0.0
O369 O 0.49231 0.58306 0.91729 0.0
O370 O 0.44126 0.54135 0.94671 0.0
C371 C 0.49072 0.49462 0.7908 0.0
C372 C 0.43971 0.53736 0.57525 0.0
O373 O 0.42099 0.5115 0.63943 0.0
O374 O 0.46692 0.56031 0.61984 0.0
C375 C 0.35642 0.45575 0.84606 0.0
O376 O 0.35387 0.46285 0.73 0.0
C377 C 0.46535 0.57018 -0.02299 0.0
Zn378 Zn 0.58268 0.76888 0.08232 0.0
Zn379 Zn 0.58339 0.83581 -0.00863 0.0
O380 O 0.63243 0.85636 0.03593 0.0
O381 O 0.631 0.80959 0.10045 0.0
O382 O 0.57376 0.86612 0.88363 0.0
O383 O 0.57243 0.74811 0.91004 0.0
O384 O 0.572 0.79522 0.88427 0.0
C385 C 0.64679 0.84106 0.08063 0.0
C386 C 0.55053 0.79967 0.1996 0.0
O387 O 0.55967 0.8282 0.15448 0.0
O388 O 0.5442 0.7765 0.12355 0.0
C389 C 0.56875 0.88884 0.92688 0.0
O390 O 0.5722 0.89509 0.04652 0.0
C391 C 0.5667 0.76715 0.84209 0.0
Zn392 Zn 0.22595 0.81361 0.03912 0.0
Zn393 Zn 0.17121 0.75826 0.96883 0.0
O394 O 0.15076 0.7885 0.97236 0.0
O395 O 0.19378 0.8311 0.06506 0.0
O396 O 0.13745 0.71485 0.88639 0.0
O397 O 0.25194 0.82441 0.88643 0.0
O398 O 0.21073 0.7734 0.84685 0.0
C399 C 0.16404 0.81719 0.02384 0.0
C400 C 0.2053 0.76215 0.20941 0.0
O401 O 0.17755 0.75005 0.15192 0.0
O402 O 0.23168 0.78274 0.15479 0.0
C403 C 0.12252 0.68621 0.93677 0.0
O404 O 0.12617 0.68341 0.05626 0.0
C405 C 0.23904 0.7985 0.81941 0.0
Zn406 Zn 0.193 0.42647 0.07678 0.0
Zn407 Zn 0.25875 0.42533 -0.01289 0.0
O408 O 0.22964 0.3762 0.02896 0.0
O409 O 0.1845 0.37776 0.09344 0.0
O410 O 0.29862 0.43458 0.88088 0.0
O411 O 0.18278 0.43709 0.90471 0.0
O412 O 0.23025 0.43754 0.8787 0.0
C413 C 0.20003 0.36186 0.07252 0.0
C414 C 0.25606 0.45845 0.19674 0.0
O415 O 0.27501 0.44881 0.15168 0.0
O416 O 0.23918 0.46482 0.12069 0.0
C417 C 0.32651 0.44002 0.92477 0.0
O418 O 0.32965 0.4372 0.04463 0.0
C419 C 0.20751 0.44305 0.83724 0.0
Zn420 Zn 0.22728 0.41557 0.5352 0.0
Zn421 Zn 0.17251 0.41627 0.46344 0.0
O422 O 0.15185 0.36561 0.46848 0.0
O423 O 0.19473 0.36603 0.56276 0.0
O424 O 0.13896 0.42618 0.38027 0.0
O425 O 0.25321 0.43024 0.38192 0.0
O426 O 0.21213 0.44023 0.34138 0.0
C427 C 0.165 0.35023 0.52142 0.0
C428 C 0.20666 0.44678 0.7033 0.0
O429 O 0.17885 0.43097 0.64628 0.0
O430 O 0.23301 0.45266 0.64829 0.0
C431 C 0.12277 0.43842 0.4315 0.0
O432 O 0.125 0.44318 0.55204 0.0
C433 C 0.24039 0.44324 0.31423 0.0
Zn434 Zn 0.59466 0.81416 0.53706 0.0
Zn435 Zn 0.59371 0.75887 0.46964 0.0
O436 O 0.64439 0.78881 0.47476 0.0
O437 O 0.64422 0.83158 0.56632 0.0
O438 O 0.58395 0.71522 0.38936 0.0
O439 O 0.5796 0.82536 0.38361 0.0
O440 O 0.56928 0.7741 0.34527 0.0
C441 C 0.65991 0.81749 0.52632 0.0
C442 C 0.56355 0.76313 0.70787 0.0
O443 O 0.57913 0.75084 0.65209 0.0
O444 O 0.55807 0.78397 0.65232 0.0
C445 C 0.5684 0.6864 0.43823 0.0
O446 O 0.56001 0.68347 0.55557 0.0
C447 C 0.5663 0.79939 0.31689 0.0
Zn448 Zn 0.19123 0.76766 0.58372 0.0
Zn449 Zn 0.25655 0.8348 0.49654 0.0
O450 O 0.2274 0.85429 0.54142 0.0
O451 O 0.18208 0.80743 0.60271 0.0
O452 O 0.29518 0.86661 0.39028 0.0
O453 O 0.18129 0.74751 0.41054 0.0
O454 O 0.22873 0.79462 0.38537 0.0
C455 C 0.19771 0.83892 0.58369 0.0
C456 C 0.25474 0.79869 0.70244 0.0
O457 O 0.27397 0.82722 0.65774 0.0
O458 O 0.23761 0.77565 0.62608 0.0
C459 C 0.32438 0.88547 0.43313 0.0
O460 O 0.32965 0.88694 0.55336 0.0
C461 C 0.20604 0.76645 0.34345 0.0
Zn462 Zn 0.08703 0.56265 0.22453 0.0
Zn463 Zn 0.08681 0.50365 0.31147 0.0
O464 O 0.03666 0.48289 0.29583 0.0
O465 O 0.0378 0.52597 0.19929 0.0
O466 O 0.09748 0.47169 0.40284 0.0
O467 O 0.0995 0.58651 0.38581 0.0
O468 O 0.10727 0.5441 0.42999 0.0
C469 C 0.02185 0.49606 0.23878 0.0
C470 C 0.11893 0.53727 0.08055 0.0
O471 O 0.10241 0.5091 0.13285 0.0
O472 O 0.12693 0.56315 0.14383 0.0
C473 C 0.10712 0.45303 0.35341 0.0
O474 O 0.10837 0.45163 0.23208 0.0
C475 C 0.11072 0.57262 0.45716 0.0
Zn476 Zn 0.42974 0.52432 0.20181 0.0
Zn477 Zn 0.50079 0.59149 0.28254 0.0
O478 O 0.5202 0.56333 0.22098 0.0
O479 O 0.47134 0.51761 0.17458 0.0
O480 O 0.53114 0.62894 0.39866 0.0
O481 O 0.41196 0.51399 0.38239 0.0
O482 O 0.46105 0.55876 0.37999 0.0
C483 C 0.50331 0.53313 0.18197 0.0
C484 C 0.46251 0.58791 0.08451 0.0
O485 O 0.48986 0.61013 0.13106 0.0
O486 O 0.43916 0.5713 0.15974 0.0
C487 C 0.55385 0.65679 0.35722 0.0
O488 O 0.5595 0.66032 0.23743 0.0
C489 C 0.43576 0.53792 0.44102 0.0
Zn490 Zn 0.48479 0.90692 0.20138 0.0
Zn491 Zn 0.4179 0.91173 0.27467 0.0
O492 O 0.44591 0.95862 0.20859 0.0
O493 O 0.49171 0.95524 0.16895 0.0
O494 O 0.38144 0.90675 0.38908 0.0
O495 O 0.49504 0.90046 0.38426 0.0
O496 O 0.45051 0.90522 0.37681 0.0
C497 C 0.47615 0.97174 0.17212 0.0
C498 C 0.42106 0.87574 0.0822 0.0
O499 O 0.39857 0.88044 0.12774 0.0
O500 O 0.4379 0.8692 0.15841 0.0
C501 C 0.35272 0.89917 0.34784 0.0
O502 O 0.34741 0.89718 0.22757 0.0
C503 C 0.47133 0.90106 0.44054 0.0
loop_
_geom_bond_atom_site_label_1
_geom_bond_atom_site_label_2
_geom_bond_distance
_geom_bond_site_symmetry_2
_ccdc_geom_bond_type
Zn0 O3 2.031 . S
Zn0 O5 2.049 . S
Zn0 O10 2.067 . S
Zn1 O2 1.962 . S
Zn1 O4 1.986 . S
Zn1 O6 1.996 . S
Zn1 O9 1.943 . S
O2 Zn1 1.962 . S
O2 C7 1.254 . S
O3 Zn0 2.031 . S
O3 C7 1.269 . S
O4 Zn1 1.986 . S
O4 C11 1.262 . S
O5 Zn0 2.049 . S
O5 C13 1.260 . S
O6 Zn1 1.996 . S
O6 C13 1.257 . S
C7 O2 1.254 . S
C7 O3 1.269 . S
C8 O9 1.249 . S
C8 O10 1.270 . S
O9 Zn1 1.943 . S
O9 C8 1.249 . S
O10 Zn0 2.067 . S
O10 C8 1.270 . S
C11 O4 1.262 . S
C11 O12 1.232 . S
O12 C11 1.232 . S
C13 O5 1.260 . S
C13 O6 1.257 . S
Zn14 O17 2.031 . S
Zn14 O19 2.049 . S
Zn14 O24 2.067 . S
Zn15 O16 1.962 . S
Zn15 O18 1.986 . S
Zn15 O20 1.996 . S
Zn15 O23 1.943 . S
O16 Zn15 1.962 . S
O16 C21 1.254 . S
O17 Zn14 2.031 . S
O17 C21 1.269 . S
O18 Zn15 1.986 . S
O18 C25 1.262 . S
O19 Zn14 2.049 . S
O19 C27 1.260 . S
O20 Zn15 1.996 . S
O20 C27 1.257 . S
C21 O16 1.254 . S
C21 O17 1.269 . S
C22 O23 1.249 . S
C22 O24 1.270 . S
O23 Zn15 1.943 . S
O23 C22 1.249 . S
O24 Zn14 2.067 . S
O24 C22 1.270 . S
C25 O18 1.262 . S
C25 O26 1.232 . S
O26 C25 1.232 . S
C27 O19 1.260 . S
C27 O20 1.257 . S
Zn28 O31 2.031 . S
Zn28 O33 2.049 . S
Zn28 O38 2.067 . S
Zn29 O30 1.962 . S
Zn29 O32 1.986 . S
Zn29 O34 1.996 . S
Zn29 O37 1.943 . S
O30 Zn29 1.962 . S
O30 C35 1.254 . S
O31 Zn28 2.031 . S
O31 C35 1.269 . S
O32 Zn29 1.986 . S
O32 C39 1.262 . S
O33 Zn28 2.049 . S
O33 C41 1.260 . S
O34 Zn29 1.996 . S
O34 C41 1.257 . S
C35 O30 1.254 . S
C35 O31 1.269 . S
C36 O37 1.249 . S
C36 O38 1.270 . S
O37 Zn29 1.943 . S
O37 C36 1.249 . S
O38 Zn28 2.067 . S
O38 C36 1.270 . S
C39 O32 1.262 . S
C39 O40 1.232 . S
O40 C39 1.232 . S
C41 O33 1.260 . S
C41 O34 1.257 . S
Zn42 O45 2.031 . S
Zn42 O47 2.049 . S
Zn42 O52 2.067 . S
Zn43 O44 1.962 . S
Zn43 O46 1.986 . S
Zn43 O48 1.996 . S
Zn43 O51 1.943 . S
O44 Zn43 1.962 . S
O44 C49 1.254 . S
O45 Zn42 2.031 . S
O45 C49 1.269 . S
O46 Zn43 1.986 . S
O46 C53 1.262 . S
O47 Zn42 2.049 . S
O47 C55 1.260 . S
O48 Zn43 1.996 . S
O48 C55 1.257 . S
C49 O44 1.254 . S
C49 O45 1.269 . S
C50 O51 1.249 . S
C50 O52 1.270 . S
O51 Zn43 1.943 . S
O51 C50 1.249 . S
O52 Zn42 2.067 . S
O52 C50 1.270 . S
C53 O46 1.262 . S
C53 O54 1.232 . S
O54 C53 1.232 . S
C55 O47 1.260 . S
C55 O48 1.257 . S
Zn56 O59 2.031 . S
Zn56 O61 2.049 . S
Zn56 O66 2.067 . S
Zn57 O58 1.962 . S
Zn57 O60 1.986 . S
Zn57 O62 1.996 . S
Zn57 O65 1.943 . S
O58 Zn57 1.962 . S
O58 C63 1.254 . S
O59 Zn56 2.031 . S
O59 C63 1.269 . S
O60 Zn57 1.986 . S
O60 C67 1.262 . S
O61 Zn56 2.049 . S
O61 C69 1.260 . S
O62 Zn57 1.996 . S
O62 C69 1.257 . S
C63 O58 1.254 . S
C63 O59 1.269 . S
C64 O65 1.249 . S
C64 O66 1.270 . S
O65 Zn57 1.943 . S
O65 C64 1.249 . S
O66 Zn56 2.067 . S
O66 C64 1.270 . S
C67 O60 1.262 . S
C67 O68 1.232 . S
O68 C67 1.232 . S
C69 O61 1.260 . S
C69 O62 1.257 . S
Zn70 O73 2.031 . S
Zn70 O75 2.049 . S
Zn70 O80 2.067 . S
Zn71 O72 1.962 . S
Zn71 O74 1.986 . S
Zn71 O76 1.996 . S
Zn71 O79 1.943 . S
O72 Zn71 1.962 . S
O72 C77 1.254 . S
O73 Zn70 2.031 . S
O73 C77 1.269 . S
O74 Zn71 1.986 . S
O74 C81 1.262 . S
O75 Zn70 2.049 . S
O75 C83 1.260 . S
O76 Zn71 1.996 . S
O76 C83 1.257 . S
C77 O72 1.254 . S
C77 O73 1.269 . S
C78 O79 1.249 . S
C78 O80 1.270 . S
O79 Zn71 1.943 . S
O79 C78 1.249 . S
O80 Zn70 2.067 . S
O80 C78 1.270 . S
C81 O74 1.262 . S
C81 O82 1.232 . S
O82 C81 1.232 . S
C83 O75 1.260 . S
C83 O76 1.257 . S
Zn84 O87 2.031 . S
Zn84 O89 2.049 . S
Zn84 O94 2.067 . S
Zn85 O86 1.962 . S
Zn85 O88 1.986 . S
Zn85 O90 1.996 . S
Zn85 O93 1.943 . S
O86 Zn85 1.962 . S
O86 C91 1.254 . S
O87 Zn84 2.031 . S
O87 C91 1.269 . S
O88 Zn85 1.986 . S
O88 C95 1.262 . S
O89 Zn84 2.049 . S
O89 C97 1.260 . S
O90 Zn85 1.996 . S
O90 C97 1.257 . S
C91 O86 1.254 . S
C91 O87 1.269 . S
C92 O93 1.249 . S
C92 O94 1.270 . S
O93 Zn85 1.943 . S
O93 C92 1.249 . S
O94 Zn84 2.067 . S
O94 C92 1.270 . S
C95 O88 1.262 . S
C95 O96 1.232 . S
O96 C95 1.232 . S
C97 O89 1.260 . S
C97 O90 1.257 . S
Zn98 O101 2.031 . S
Zn98 O103 2.049 . S
Zn98 O108 2.067 . S
Zn99 O100 1.962 . S
Zn99 O102 1.986 . S
Zn99 O104 1.996 . S
Zn99 O107 1.943 . S
O100 Zn99 1.962 . S
O100 C105 1.254 . S
O101 Zn98 2.031 . S
O101 C105 1.269 . S
O102 Zn99 1.986 . S
O102 C109 1.262 . S
O103 Zn98 2.049 . S
O103 C111 1.260 . S
O104 Zn99 1.996 . S
O104 C111 1.257 . S
C105 O100 1.254 . S
C105 O101 1.269 . S
C106 O107 1.249 . S
C106 O108 1.270 . S
O107 Zn99 1.943 . S
O107 C106 1.249 . S
O108 Zn98 2.067 . S
O108 C106 1.270 . S
C109 O102 1.262 . S
C109 O110 1.232 . S
O110 C109 1.232 . S
C111 O103 1.260 . S
C111 O104 1.257 . S
Zn112 O115 2.031 . S
Zn112 O117 2.049 . S
Zn112 O122 2.067 . S
Zn113 O114 1.962 . S
Zn113 O116 1.986 . S
Zn113 O118 1.996 . S
Zn113 O121 1.943 . S
O114 Zn113 1.962 . S
O114 C119 1.254 . S
O115 Zn112 2.031 . S
O115 C119 1.269 . S
O116 Zn113 1.986 . S
O116 C123 1.262 . S
O117 Zn112 2.049 . S
O117 C125 1.260 . S
O118 Zn113 1.996 . S
O118 C125 1.257 . S
C119 O114 1.254 . S
C119 O115 1.269 . S
C120 O121 1.249 . S
C120 O122 1.270 . S
O121 Zn113 1.943 . S
O121 C120 1.249 . S
O122 Zn112 2.067 . S
O122 C120 1.270 . S
C123 O116 1.262 . S
C123 O124 1.232 . S
O124 C123 1.232 . S
C125 O117 1.260 . S
C125 O118 1.257 . S
Zn126 O129 2.031 . S
Zn126 O131 2.049 . S
Zn126 O136 2.067 . S
Zn127 O128 1.962 . S
Zn127 O130 1.986 . S
Zn127 O132 1.996 . S
Zn127 O135 1.943 . S
O128 Zn127 1.962 . S
O128 C133 1.254 . S
O129 Zn126 2.031 . S
O129 C133 1.269 . S
O130 Zn127 1.986 . S
O130 C137 1.262 . S
O131 Zn126 2.049 . S
O131 C139 1.260 . S
O132 Zn127 1.996 . S
O132 C139 1.257 . S
C133 O128 1.254 . S
C133 O129 1.269 . S
C134 O135 1.249 . S
C134 O136 1.270 . S
O135 Zn127 1.943 . S
O135 C134 1.249 . S
O136 Zn126 2.067 . S
O136 C134 1.270 . S
C137 O130 1.262 . S
C137 O138 1.232 . S
O138 C137 1.232 . S
C139 O131 1.260 . S
C139 O132 1.257 . S
Zn140 O143 2.031 . S
Zn140 O145 2.049 . S
Zn140 O150 2.067 . S
Zn141 O142 1.962 . S
Zn141 O144 1.986 . S
Zn141 O146 1.996 . S
Zn141 O149 1.943 . S
O142 Zn141 1.962 . S
O142 C147 1.254 . S
O143 Zn140 2.031 . S
O143 C147 1.269 . S
O144 Zn141 1.986 . S
O144 C151 1.262 . S
O145 Zn140 2.049 . S
O145 C153 1.260 . S
O146 Zn141 1.996 . S
O146 C153 1.257 . S
C147 O142 1.254 . S
C147 O143 1.269 . S
C148 O149 1.249 . S
C148 O150 1.270 . S
O149 Zn141 1.943 . S
O149 C148 1.249 . S
O150 Zn140 2.067 . S
O150 C148 1.270 . S
C151 O144 1.262 . S
C151 O152 1.232 . S
O152 C151 1.232 . S
C153 O145 1.260 . S
C153 O146 1.257 . S
Zn154 O157 2.031 . S
Zn154 O159 2.049 . S
Zn154 O164 2.067 . S
Zn155 O156 1.962 . S
Zn155 O158 1.986 . S
Zn155 O160 1.996 . S
Zn155 O163 1.943 . S
O156 Zn155 1.962 . S
O156 C161 1.254 . S
O157 Zn154 2.031 . S
O157 C161 1.269 . S
O158 Zn155 1.986 . S
O158 C165 1.262 . S
O159 Zn154 2.049 . S
O159 C167 1.260 . S
O160 Zn155 1.996 . S
O160 C167 1.257 . S
C161 O156 1.254 . S
C161 O157 1.269 . S
C162 O163 1.249 . S
C162 O164 1.270 . S
O163 Zn155 1.943 . S
O163 C162 1.249 . S
O164 Zn154 2.067 . S
O164 C162 1.270 . S
C165 O158 1.262 . S
C165 O166 1.232 . S
O166 C165 1.232 . S
C167 O159 1.260 . S
C167 O160 1.257 . S
Zn168 O171 2.031 . S
Zn168 O173 2.049 . S
Zn168 O178 2.067 . S
Zn169 O170 1.962 . S
Zn169 O172 1.986 . S
Zn169 O174 1.996 . S
Zn169 O177 1.943 . S
O170 Zn169 1.962 . S
O170 C175 1.254 . S
O171 Zn168 2.031 . S
O171 C175 1.269 . S
O172 Zn169 1.986 . S
O172 C179 1.262 . S
O173 Zn168 2.049 . S
O173 C181 1.260 . S
O174 Zn169 1.996 . S
O174 C181 1.257 . S
C175 O170 1.254 . S
C175 O171 1.269 . S
C176 O177 1.249 . S
C176 O178 1.270 . S
O177 Zn169 1.943 . S
O177 C176 1.249 . S
O178 Zn168 2.067 . S
O178 C176 1.270 . S
C179 O172 1.262 . S
C179 O180 1.232 . S
O180 C179 1.232 . S
C181 O173 1.260 . S
C181 O174 1.257 . S
Zn182 O185 2.031 . S
Zn182 O187 2.049 . S
Zn182 O192 2.067 . S
Zn183 O184 1.962 . S
Zn183 O186 1.986 . S
Zn183 O188 1.996 . S
Zn183 O191 1.943 . S
O184 Zn183 1.962 . S
O184 C189 1.254 . S
O185 Zn182 2.031 . S
O185 C189 1.269 . S
O186 Zn183 1.986 . S
O186 C193 1.262 . S
O187 Zn182 2.049 . S
O187 C195 1.260 . S
O188 Zn183 1.996 . S
O188 C195 1.257 . S
C189 O184 1.254 . S
C189 O185 1.269 . S
C190 O191 1.249 . S
C190 O192 1.270 . S
O191 Zn183 1.943 . S
O191 C190 1.249 . S
O192 Zn182 2.067 . S
O192 C190 1.270 . S
C193 O186 1.262 . S
C193 O194 1.232 . S
O194 C193 1.232 . S
C195 O187 1.260 . S
C195 O188 1.257 . S
Zn196 O199 2.031 . S
Zn196 O201 2.049 . S
Zn196 O206 2.067 . S
Zn197 O198 1.962 . S
Zn197 O200 1.986 . S
Zn197 O202 1.996 . S
Zn197 O205 1.943 . S
O198 Zn197 1.962 . S
O198 C203 1.254 . S
O199 Zn196 2.031 . S
O199 C203 1.269 . S
O200 Zn197 1.986 . S
O200 C207 1.262 . S
O201 Zn196 2.049 . S
O201 C209 1.260 . S
O202 Zn197 1.996 . S
O202 C209 1.257 . S
C203 O198 1.254 . S
C203 O199 1.269 . S
C204 O205 1.249 . S
C204 O206 1.270 . S
O205 Zn197 1.943 . S
O205 C204 1.249 . S
O206 Zn196 2.067 . S
O206 C204 1.270 . S
C207 O200 1.262 . S
C207 O208 1.232 . S
O208 C207 1.232 . S
C209 O201 1.260 . S
C209 O202 1.257 . S
Zn210 O213 2.031 . S
Zn210 O215 2.049 . S
Zn210 O220 2.067 . S
Zn211 O212 1.962 . S
Zn211 O214 1.986 . S
Zn211 O216 1.996 . S
Zn211 O219 1.943 . S
O212 Zn211 1.962 . S
O212 C217 1.254 . S
O213 Zn210 2.031 . S
O213 C217 1.269 . S
O214 Zn211 1.986 . S
O214 C221 1.262 . S
O215 Zn210 2.049 . S
O215 C223 1.260 . S
O216 Zn211 1.996 . S
O216 C223 1.257 . S
C217 O212 1.254 . S
C217 O213 1.269 . S
C218 O219 1.249 . S
C218 O220 1.270 . S
O219 Zn211 1.943 . S
O219 C218 1.249 . S
O220 Zn210 2.067 . S
O220 C218 1.270 . S
C221 O214 1.262 . S
C221 O222 1.232 . S
O222 C221 1.232 . S
C223 O215 1.260 . S
C223 O216 1.257 . S
Zn224 O227 2.031 . S
Zn224 O229 2.049 . S
Zn224 O234 2.067 . S
Zn225 O226 1.962 . S
Zn225 O228 1.986 . S
Zn225 O230 1.996 . S
Zn225 O233 1.943 . S
O226 Zn225 1.962 . S
O226 C231 1.254 . S
O227 Zn224 2.031 . S
O227 C231 1.269 . S
O228 Zn225 1.986 . S
O228 C235 1.262 . S
O229 Zn224 2.049 . S
O229 C237 1.260 . S
O230 Zn225 1.996 . S
O230 C237 1.257 . S
C231 O226 1.254 . S
C231 O227 1.269 . S
C232 O233 1.249 . S
C232 O234 1.270 . S
O233 Zn225 1.943 . S
O233 C232 1.249 . S
O234 Zn224 2.067 . S
O234 C232 1.270 . S
C235 O228 1.262 . S
C235 O236 1.232 . S
O236 C235 1.232 . S
C237 O229 1.260 . S
C237 O230 1.257 . S
Zn238 O241 2.031 . S
Zn238 O243 2.049 . S
Zn238 O248 2.067 . S
Zn239 O240 1.962 . S
Zn239 O242 1.986 . S
Zn239 O244 1.996 . S
Zn239 O247 1.943 . S
O240 Zn239 1.962 . S
O240 C245 1.254 . S
O241 Zn238 2.031 . S
O241 C245 1.269 . S
O242 Zn239 1.986 . S
O242 C249 1.262 . S
O243 Zn238 2.049 . S
O243 C251 1.260 . S
O244 Zn239 1.996 . S
O244 C251 1.257 . S
C245 O240 1.254 . S
C245 O241 1.269 . S
C246 O247 1.249 . S
C246 O248 1.270 . S
O247 Zn239 1.943 . S
O247 C246 1.249 . S
O248 Zn238 2.067 . S
O248 C246 1.270 . S
C249 O242 1.262 . S
C249 O250 1.232 . S
O250 C249 1.232 . S
C251 O243 1.260 . S
C251 O244 1.257 . S
Zn252 O255 2.031 . S
Zn252 O257 2.049 1_554 S
Zn252 O262 2.067 . S
Zn253 O254 1.962 . S
Zn253 O256 1.986 . S
Zn253 O258 1.996 1_554 S
Zn253 O261 1.943 . S
O254 Zn253 1.962 . S
O254 C259 1.254 . S
O255 Zn252 2.031 . S
O255 C259 1.269 . S
O256 Zn253 1.986 . S
O256 C263 1.262 . S
O257 Zn252 2.049 1_556 S
O257 C265 1.260 . S
O258 Zn253 1.996 1_556 S
O258 C265 1.257 . S
C259 O254 1.254 . S
C259 O255 1.269 . S
C260 O261 1.249 . S
C260 O262 1.270 . S
O261 Zn253 1.943 . S
O261 C260 1.249 . S
O262 Zn252 2.067 . S
O262 C260 1.270 . S
C263 O256 1.262 . S
C263 O264 1.232 . S
O264 C263 1.232 . S
C265 O257 1.260 . S
C265 O258 1.257 . S
Zn266 O269 2.031 . S
Zn266 O271 2.049 1_554 S
Zn266 O276 2.067 . S
Zn267 O268 1.962 . S
Zn267 O270 1.986 . S
Zn267 O272 1.996 1_554 S
Zn267 O275 1.943 . S
O268 Zn267 1.962 . S
O268 C273 1.254 . S
O269 Zn266 2.031 . S
O269 C273 1.269 . S
O270 Zn267 1.986 . S
O270 C277 1.262 . S
O271 Zn266 2.049 1_556 S
O271 C279 1.260 . S
O272 Zn267 1.996 1_556 S
O272 C279 1.257 . S
C273 O268 1.254 . S
C273 O269 1.269 . S
C274 O275 1.249 . S
C274 O276 1.270 . S
O275 Zn267 1.943 . S
O275 C274 1.249 . S
O276 Zn266 2.067 . S
O276 C274 1.270 . S
C277 O270 1.262 . S
C277 O278 1.232 . S
O278 C277 1.232 . S
C279 O271 1.260 . S
C279 O272 1.257 . S
Zn280 O283 2.031 . S
Zn280 O285 2.049 1_554 S
Zn280 O290 2.067 . S
Zn281 O282 1.962 . S
Zn281 O284 1.986 . S
Zn281 O286 1.996 1_554 S
Zn281 O289 1.943 . S
O282 Zn281 1.962 . S
O282 C287 1.254 . S
O283 Zn280 2.031 . S
O283 C287 1.269 . S
O284 Zn281 1.986 . S
O284 C291 1.262 . S
O285 Zn280 2.049 1_556 S
O285 C293 1.260 . S
O286 Zn281 1.996 1_556 S
O286 C293 1.257 . S
C287 O282 1.254 . S
C287 O283 1.269 . S
C288 O289 1.249 . S
C288 O290 1.270 . S
O289 Zn281 1.943 . S
O289 C288 1.249 . S
O290 Zn280 2.067 . S
O290 C288 1.270 . S
C291 O284 1.262 . S
C291 O292 1.232 . S
O292 C291 1.232 . S
C293 O285 1.260 . S
C293 O286 1.257 . S
Zn294 O297 2.031 1_554 S
Zn294 O299 2.049 . S
Zn294 O304 2.067 1_554 S
Zn295 O296 1.962 . S
Zn295 O298 1.986 . S
Zn295 O300 1.996 . S
Zn295 O303 1.943 1_554 S
O296 Zn295 1.962 . S
O296 C301 1.254 1_554 S
O297 Zn294 2.031 1_556 S
O297 C301 1.269 . S
O298 Zn295 1.986 . S
O298 C305 1.262 . S
O299 Zn294 2.049 . S
O299 C307 1.260 . S
O300 Zn295 1.996 . S
O300 C307 1.257 . S
C301 O296 1.254 1_556 S
C301 O297 1.269 . S
C302 O303 1.249 . S
C302 O304 1.270 . S
O303 Zn295 1.943 1_556 S
O303 C302 1.249 . S
O304 Zn294 2.067 1_556 S
O304 C302 1.270 . S
C305 O298 1.262 . S
C305 O306 1.232 1_554 S
O306 C305 1.232 1_556 S
C307 O299 1.260 . S
C307 O300 1.257 . S
Zn308 O311 2.031 1_554 S
Zn308 O313 2.049 . S
Zn308 O318 2.067 1_554 S
Zn309 O310 1.962 . S
Zn309 O312 1.986 . S
Zn309 O314 1.996 . S
Zn309 O317 1.943 1_554 S
O310 Zn309 1.962 . S
O310 C315 1.254 1_554 S
O311 Zn308 2.031 1_556 S
O311 C315 1.269 . S
O312 Zn309 1.986 . S
O312 C319 1.262 . S
O313 Zn308 2.049 . S
O313 C321 1.260 . S
O314 Zn309 1.996 . S
O314 C321 1.257 . S
C315 O310 1.254 1_556 S
C315 O311 1.269 . S
C316 O317 1.249 . S
C316 O318 1.270 . S
O317 Zn309 1.943 1_556 S
O317 C316 1.249 . S
O318 Zn308 2.067 1_556 S
O318 C316 1.270 . S
C319 O312 1.262 . S
C319 O320 1.232 1_554 S
O320 C319 1.232 1_556 S
C321 O313 1.260 . S
C321 O314 1.257 . S
Zn322 O325 2.031 1_554 S
Zn322 O327 2.049 . S
Zn322 O332 2.067 1_554 S
Zn323 O324 1.962 . S
Zn323 O326 1.986 . S
Zn323 O328 1.996 . S
Zn323 O331 1.943 1_554 S
O324 Zn323 1.962 . S
O324 C329 1.254 1_554 S
O325 Zn322 2.031 1_556 S
O325 C329 1.269 . S
O326 Zn323 1.986 . S
O326 C333 1.262 . S
O327 Zn322 2.049 . S
O327 C335 1.260 . S
O328 Zn323 1.996 . S
O328 C335 1.257 . S
C329 O324 1.254 1_556 S
C329 O325 1.269 . S
C330 O331 1.249 . S
C330 O332 1.270 . S
O331 Zn323 1.943 1_556 S
O331 C330 1.249 . S
O332 Zn322 2.067 1_556 S
O332 C330 1.270 . S
C333 O326 1.262 . S
C333 O334 1.232 1_554 S
O334 C333 1.232 1_556 S
C335 O327 1.260 . S
C335 O328 1.257 . S
Zn336 O339 2.031 . S
Zn336 O341 2.049 1_556 S
Zn336 O346 2.067 . S
Zn337 O338 1.962 . S
Zn337 O340 1.986 . S
Zn337 O342 1.996 1_556 S
Zn337 O345 1.943 . S
O338 Zn337 1.962 . S
O338 C343 1.254 . S
O339 Zn336 2.031 . S
O339 C343 1.269 . S
O340 Zn337 1.986 . S
O340 C347 1.262 . S
O341 Zn336 2.049 1_554 S
O341 C349 1.260 . S
O342 Zn337 1.996 1_554 S
O342 C349 1.257 . S
C343 O338 1.254 . S
C343 O339 1.269 . S
C344 O345 1.249 . S
C344 O346 1.270 . S
O345 Zn337 1.943 . S
O345 C344 1.249 . S
O346 Zn336 2.067 . S
O346 C344 1.270 . S
C347 O340 1.262 . S
C347 O348 1.232 . S
O348 C347 1.232 . S
C349 O341 1.260 . S
C349 O342 1.257 . S
Zn350 O353 2.031 . S
Zn350 O355 2.049 1_556 S
Zn350 O360 2.067 . S
Zn351 O352 1.962 . S
Zn351 O354 1.986 . S
Zn351 O356 1.996 1_556 S
Zn351 O359 1.943 . S
O352 Zn351 1.962 . S
O352 C357 1.254 . S
O353 Zn350 2.031 . S
O353 C357 1.269 . S
O354 Zn351 1.986 . S
O354 C361 1.262 . S
O355 Zn350 2.049 1_554 S
O355 C363 1.260 . S
O356 Zn351 1.996 1_554 S
O356 C363 1.257 . S
C357 O352 1.254 . S
C357 O353 1.269 . S
C358 O359 1.249 . S
C358 O360 1.270 . S
O359 Zn351 1.943 . S
O359 C358 1.249 . S
O360 Zn350 2.067 . S
O360 C358 1.270 . S
C361 O354 1.262 . S
C361 O362 1.232 . S
O362 C361 1.232 . S
C363 O355 1.260 . S
C363 O356 1.257 . S
Zn364 O367 2.031 . S
Zn364 O369 2.049 1_556 S
Zn364 O374 2.067 . S
Zn365 O366 1.962 . S
Zn365 O368 1.986 . S
Zn365 O370 1.996 1_556 S
Zn365 O373 1.943 . S
O366 Zn365 1.962 . S
O366 C371 1.254 . S
O367 Zn364 2.031 . S
O367 C371 1.269 . S
O368 Zn365 1.986 . S
O368 C375 1.262 . S
O369 Zn364 2.049 1_554 S
O369 C377 1.260 . S
O370 Zn365 1.996 1_554 S
O370 C377 1.257 . S
C371 O366 1.254 . S
C371 O367 1.269 . S
C372 O373 1.249 . S
C372 O374 1.270 . S
O373 Zn365 1.943 . S
O373 C372 1.249 . S
O374 Zn364 2.067 . S
O374 C372 1.270 . S
C375 O368 1.262 . S
C375 O376 1.232 . S
O376 C375 1.232 . S
C377 O369 1.260 . S
C377 O370 1.257 . S
Zn378 O381 2.031 1_556 S
Zn378 O383 2.049 . S
Zn378 O388 2.067 1_556 S
Zn379 O380 1.962 . S
Zn379 O382 1.986 . S
Zn379 O384 1.996 . S
Zn379 O387 1.943 1_556 S
O380 Zn379 1.962 . S
O380 C385 1.254 1_556 S
O381 Zn378 2.031 1_554 S
O381 C385 1.269 . S
O382 Zn379 1.986 . S
O382 C389 1.262 . S
O383 Zn378 2.049 . S
O383 C391 1.260 . S
O384 Zn379 1.996 . S
O384 C391 1.257 . S
C385 O380 1.254 1_554 S
C385 O381 1.269 . S
C386 O387 1.249 . S
C386 O388 1.270 . S
O387 Zn379 1.943 1_554 S
O387 C386 1.249 . S
O388 Zn378 2.067 1_554 S
O388 C386 1.270 . S
C389 O382 1.262 . S
C389 O390 1.232 1_556 S
O390 C389 1.232 1_554 S
C391 O383 1.260 . S
C391 O384 1.257 . S
Zn392 O395 2.031 1_556 S
Zn392 O397 2.049 . S
Zn392 O402 2.067 1_556 S
Zn393 O394 1.962 . S
Zn393 O396 1.986 . S
Zn393 O398 1.996 . S
Zn393 O401 1.943 1_556 S
O394 Zn393 1.962 . S
O394 C399 1.254 1_556 S
O395 Zn392 2.031 1_554 S
O395 C399 1.269 . S
O396 Zn393 1.986 . S
O396 C403 1.262 . S
O397 Zn392 2.049 . S
O397 C405 1.260 . S
O398 Zn393 1.996 . S
O398 C405 1.257 . S
C399 O394 1.254 1_554 S
C399 O395 1.269 . S
C400 O401 1.249 . S
C400 O402 1.270 . S
O401 Zn393 1.943 1_554 S
O401 C400 1.249 . S
O402 Zn392 2.067 1_554 S
O402 C400 1.270 . S
C403 O396 1.262 . S
C403 O404 1.232 1_556 S
O404 C403 1.232 1_554 S
C405 O397 1.260 . S
C405 O398 1.257 . S
Zn406 O409 2.031 1_556 S
Zn406 O411 2.049 . S
Zn406 O416 2.067 1_556 S
Zn407 O408 1.962 . S
Zn407 O410 1.986 . S
Zn407 O412 1.996 . S
Zn407 O415 1.943 1_556 S
O408 Zn407 1.962 . S
O408 C413 1.254 1_556 S
O409 Zn406 2.031 1_554 S
O409 C413 1.269 . S
O410 Zn407 1.986 . S
O410 C417 1.262 . S
O411 Zn406 2.049 . S
O411 C419 1.260 . S
O412 Zn407 1.996 . S
O412 C419 1.257 . S
C413 O408 1.254 1_554 S
C413 O409 1.269 . S
C414 O415 1.249 . S
C414 O416 1.270 . S
O415 Zn407 1.943 1_554 S
O415 C414 1.249 . S
O416 Zn406 2.067 1_554 S
O416 C414 1.270 . S
C417 O410 1.262 . S
C417 O418 1.232 1_556 S
O418 C417 1.232 1_554 S
C419 O411 1.260 . S
C419 O412 1.257 . S
Zn420 O423 2.031 . S
Zn420 O425 2.049 . S
Zn420 O430 2.067 . S
Zn421 O422 1.962 . S
Zn421 O424 1.986 . S
Zn421 O426 1.996 . S
Zn421 O429 1.943 . S
O422 Zn421 1.962 . S
O422 C427 1.254 . S
O423 Zn420 2.031 . S
O423 C427 1.269 . S
O424 Zn421 1.986 . S
O424 C431 1.262 . S
O425 Zn420 2.049 . S
O425 C433 1.260 . S
O426 Zn421 1.996 . S
O426 C433 1.257 . S
C427 O422 1.254 . S
C427 O423 1.269 . S
C428 O429 1.249 . S
C428 O430 1.270 . S
O429 Zn421 1.943 . S
O429 C428 1.249 . S
O430 Zn420 2.067 . S
O430 C428 1.270 . S
C431 O424 1.262 . S
C431 O432 1.232 . S
O432 C431 1.232 . S
C433 O425 1.260 . S
C433 O426 1.257 . S
Zn434 O437 2.031 . S
Zn434 O439 2.049 . S
Zn434 O444 2.067 . S
Zn435 O436 1.962 . S
Zn435 O438 1.986 . S
Zn435 O440 1.996 . S
Zn435 O443 1.943 . S
O436 Zn435 1.962 . S
O436 C441 1.254 . S
O437 Zn434 2.031 . S
O437 C441 1.269 . S
O438 Zn435 1.986 . S
O438 C445 1.262 . S
O439 Zn434 2.049 . S
O439 C447 1.260 . S
O440 Zn435 1.996 . S
O440 C447 1.257 . S
C441 O436 1.254 . S
C441 O437 1.269 . S
C442 O443 1.249 . S
C442 O444 1.270 . S
O443 Zn435 1.943 . S
O443 C442 1.249 . S
O444 Zn434 2.067 . S
O444 C442 1.270 . S
C445 O438 1.262 . S
C445 O446 1.232 . S
O446 C445 1.232 . S
C447 O439 1.260 . S
C447 O440 1.257 . S
Zn448 O451 2.031 . S
Zn448 O453 2.049 . S
Zn448 O458 2.067 . S
Zn449 O450 1.962 . S
Zn449 O452 1.986 . S
Zn449 O454 1.996 . S
Zn449 O457 1.943 . S
O450 Zn449 1.962 . S
O450 C455 1.254 . S
O451 Zn448 2.031 . S
O451 C455 1.269 . S
O452 Zn449 1.986 . S
O452 C459 1.262 . S
O453 Zn448 2.049 . S
O453 C461 1.260 . S
O454 Zn449 1.996 . S
O454 C461 1.257 . S
C455 O450 1.254 . S
C455 O451 1.269 . S
C456 O457 1.249 . S
C456 O458 1.270 . S
O457 Zn449 1.943 . S
O457 C456 1.249 . S
O458 Zn448 2.067 . S
O458 C456 1.270 . S
C459 O452 1.262 . S
C459 O460 1.232 . S
O460 C459 1.232 . S
C461 O453 1.260 . S
C461 O454 1.257 . S
Zn462 O465 2.031 . S
Zn462 O467 2.049 . S
Zn462 O472 2.067 . S
Zn463 O464 1.962 . S
Zn463 O466 1.986 . S
Zn463 O468 1.996 . S
Zn463 O471 1.943 . S
O464 Zn463 1.962 . S
O464 C469 1.254 . S
O465 Zn462 2.031 . S
O465 C469 1.269 . S
O466 Zn463 1.986 . S
O466 C473 1.262 . S
O467 Zn462 2.049 . S
O467 C475 1.260 . S
O468 Zn463 1.996 . S
O468 C475 1.257 . S
C469 O464 1.254 . S
C469 O465 1.269 . S
C470 O471 1.249 . S
C470 O472 1.270 . S
O471 Zn463 1.943 . S
O471 C470 1.249 . S
O472 Zn462 2.067 . S
O472 C470 1.270 . S
C473 O466 1.262 . S
C473 O474 1.232 . S
O474 C473 1.232 . S
C475 O467 1.260 . S
C475 O468 1.257 . S
Zn476 O479 2.031 . S
Zn476 O481 2.049 . S
Zn476 O486 2.067 . S
Zn477 O478 1.962 . S
Zn477 O480 1.986 . S
Zn477 O482 1.996 . S
Zn477 O485 1.943 . S
O478 Zn477 1.962 . S
O478 C483 1.254 . S
O479 Zn476 2.031 . S
O479 C483 1.269 . S
O480 Zn477 1.986 . S
O480 C487 1.262 . S
O481 Zn476 2.049 . S
O481 C489 1.260 . S
O482 Zn477 1.996 . S
O482 C489 1.257 . S
C483 O478 1.254 . S
C483 O479 1.269 . S
C484 O485 1.249 . S
C484 O486 1.270 . S
O485 Zn477 1.943 . S
O485 C484 1.249 . S
O486 Zn476 2.067 . S
O486 C484 1.270 . S
C487 O480 1.262 . S
C487 O488 1.232 . S
O488 C487 1.232 . S
C489 O481 1.260 . S
C489 O482 1.257 . S
Zn490 O493 2.031 . S
Zn490 O495 2.049 . S
Zn490 O500 2.067 . S
Zn491 O492 1.962 . S
Zn491 O494 1.986 . S
Zn491 O496 1.996 . S
Zn491 O499 1.943 . S
O492 Zn491 1.962 . S
O492 C497 1.254 . S
O493 Zn490 2.031 . S
O493 C497 1.269 . S
O494 Zn491 1.986 . S
O494 C501 1.262 . S
O495 Zn490 2.049 . S
O495 C503 1.260 . S
O496 Zn491 1.996 . S
O496 C503 1.257 . S
C497 O492 1.254 . S
C497 O493 1.269 . S
C498 O499 1.249 . S
C498 O500 1.270 . S
O499 Zn491 1.943 . S
O499 C498 1.249 . S
O500 Zn490 2.067 . S
O500 C498 1.270 . S
C501 O494 1.262 . S
C501 O502 1.232 . S
O502 C501 1.232 . S
C503 O495 1.260 . S
C503 O496 1.257 . S
C53 C11 1.352 . S
C67 C25 1.352 1_545 S
C81 C39 1.352 1_655 S
C95 C137 1.352 . S
C109 C151 1.352 1_545 S
C165 C123 1.352 1_455 S
C179 C221 1.352 . S
C193 C235 1.352 . S
C207 C249 1.352 . S
C263 C305 1.352 . S
C319 C277 1.352 . S
C291 C333 1.352 . S
C347 C389 1.352 . S
C361 C403 1.352 . S
C417 C375 1.352 . S
C473 C431 1.352 . S
C487 C445 1.352 . S
C501 C459 1.352 . S
C167 C8 1.327 1_556 S
C22 C139 1.327 1_554 S
C36 C153 1.327 1_554 S
C111 C50 1.328 . S
C64 C125 1.327 . S
C97 C78 1.327 . S
C92 C83 1.327 1_556 S
C106 C55 1.327 1_556 S
C69 C120 1.327 1_554 S
C27 C134 1.327 . S
C41 C148 1.327 . S
C162 C13 1.327 . S
C176 C335 1.327 . S
C307 C190 1.327 . S
C321 C204 1.327 . S
C218 C279 1.328 . S
C293 C232 1.327 . S
C246 C265 1.327 . S
C260 C251 1.327 . S
C274 C223 1.328 . S
C237 C288 1.327 . S
C195 C302 1.327 . S
C209 C316 1.327 . S
C330 C181 1.328 . S
C503 C344 1.327 . S
C358 C475 1.328 . S
C372 C489 1.327 . S
C386 C447 1.327 . S
C461 C400 1.327 . S
C414 C433 1.328 . S
C419 C428 1.327 . S
C391 C442 1.327 . S
C405 C456 1.327 . S
C363 C470 1.327 . S
C377 C484 1.327 . S
C349 C498 1.327 . S
C413 C7 1.443 . S
C21 C385 1.443 . S
C399 C35 1.443 . S
C49 C189 1.443 . S
C203 C63 1.443 . S
C77 C175 1.443 . S
C91 C329 1.443 . S
C301 C105 1.443 . S
C119 C315 1.443 . S
C133 C441 1.443 . S
C147 C455 1.443 . S
C427 C161 1.443 . S
C357 C217 1.443 1_455 S
C371 C231 1.443 . S
C343 C245 1.443 1_565 S
C259 C497 1.443 1_545 S
C469 C273 1.443 1_455 S
C287 C483 1.443 . S
