# Generated by pormake.
# Topology vbk, (5)-cn, num edge types: 1
# Building blocks:
#     Node 0, Type 0, BuildingBlock: XOMCOT_clean_sbu_1, # of connection points: 5
#     Node 1, Type 0, BuildingBlock: XOMCOT_clean_sbu_1, # of connection points: 5
#     Node 2, Type 0, BuildingBlock: XOMCOT_clean_sbu_1, # of connection points: 5
#     Node 3, Type 0, BuildingBlock: XOMCOT_clean_sbu_1, # of connection points: 5
#     Node 4, Type 0, BuildingBlock: XOMCOT_clean_sbu_1, # of connection points: 5
#     Node 5, Type 0, BuildingBlock: XOMCOT_clean_sbu_1, # of connection points: 5
#     Node 6, Type 0, BuildingBlock: XOMCOT_clean_sbu_1, # of connection points: 5
#     Node 7, Type 0, BuildingBlock: XOMCOT_clean_sbu_1, # of connection points: 5
#     Node 8, Type 0, BuildingBlock: XOMCOT_clean_sbu_1, # of connection points: 5
#     Node 9, Type 0, BuildingBlock: XOMCOT_clean_sbu_1, # of connection points: 5
#     Node 10, Type 0, BuildingBlock: XOMCOT_clean_sbu_1, # of connection points: 5
#     Node 11, Type 0, BuildingBlock: XOMCOT_clean_sbu_1, # of connection points: 5
#     Node 12, Type 0, BuildingBlock: XOMCOT_clean_sbu_1, # of connection points: 5
#     Node 13, Type 0, BuildingBlock: XOMCOT_clean_sbu_1, # of connection points: 5
#     Node 14, Type 0, BuildingBlock: XOMCOT_clean_sbu_1, # of connection points: 5
#     Node 15, Type 0, BuildingBlock: XOMCOT_clean_sbu_1, # of connection points: 5
#     Edge 16, Type (0, 0), BuildingBlock: ZUJKAS_clean_linker_0, # of connection points: 2
#     Edge 17, Type (0, 0), BuildingBlock: ZUJKAS_clean_linker_0, # of connection points: 2
#     Edge 18, Type (0, 0), BuildingBlock: ZUJKAS_clean_linker_0, # of connection points: 2
#     Edge 19, Type (0, 0), BuildingBlock: ZUJKAS_clean_linker_0, # of connection points: 2
#     Edge 20, Type (0, 0), BuildingBlock: ZUJKAS_clean_linker_0, # of connection points: 2
#     Edge 21, Type (0, 0), BuildingBlock: ZUJKAS_clean_linker_0, # of connection points: 2
#     Edge 22, Type (0, 0), BuildingBlock: ZUJKAS_clean_linker_0, # of connection points: 2
#     Edge 23, Type (0, 0), BuildingBlock: ZUJKAS_clean_linker_0, # of connection points: 2
#     Edge 24, Type (0, 0), BuildingBlock: ZUJKAS_clean_linker_0, # of connection points: 2
#     Edge 25, Type (0, 0), BuildingBlock: ZUJKAS_clean_linker_0, # of connection points: 2
#     Edge 26, Type (0, 0), BuildingBlock: ZUJKAS_clean_linker_0, # of connection points: 2
#     Edge 27, Type (0, 0), BuildingBlock: ZUJKAS_clean_linker_0, # of connection points: 2
#     Edge 28, Type (0, 0), BuildingBlock: ZUJKAS_clean_linker_0, # of connection points: 2
#     Edge 29, Type (0, 0), BuildingBlock: ZUJKAS_clean_linker_0, # of connection points: 2
#     Edge 30, Type (0, 0), BuildingBlock: ZUJKAS_clean_linker_0, # of connection points: 2
#     Edge 31, Type (0, 0), BuildingBlock: ZUJKAS_clean_linker_0, # of connection points: 2
#     Edge 32, Type (0, 0), BuildingBlock: ZUJKAS_clean_linker_0, # of connection points: 2
#     Edge 33, Type (0, 0), BuildingBlock: ZUJKAS_clean_linker_0, # of connection points: 2
#     Edge 34, Type (0, 0), BuildingBlock: ZUJKAS_clean_linker_0, # of connection points: 2
#     Edge 35, Type (0, 0), BuildingBlock: ZUJKAS_clean_linker_0, # of connection points: 2
#     Edge 36, Type (0, 0), BuildingBlock: ZUJKAS_clean_linker_0, # of connection points: 2
#     Edge 37, Type (0, 0), BuildingBlock: ZUJKAS_clean_linker_0, # of connection points: 2
#     Edge 38, Type (0, 0), BuildingBlock: ZUJKAS_clean_linker_0, # of connection points: 2
#     Edge 39, Type (0, 0), BuildingBlock: ZUJKAS_clean_linker_0, # of connection points: 2
#     Edge 40, Type (0, 0), BuildingBlock: ZUJKAS_clean_linker_0, # of connection points: 2
#     Edge 41, Type (0, 0), BuildingBlock: ZUJKAS_clean_linker_0, # of connection points: 2
#     Edge 42, Type (0, 0), BuildingBlock: ZUJKAS_clean_linker_0, # of connection points: 2
#     Edge 43, Type (0, 0), BuildingBlock: ZUJKAS_clean_linker_0, # of connection points: 2
#     Edge 44, Type (0, 0), BuildingBlock: ZUJKAS_clean_linker_0, # of connection points: 2
#     Edge 45, Type (0, 0), BuildingBlock: ZUJKAS_clean_linker_0, # of connection points: 2
#     Edge 46, Type (0, 0), BuildingBlock: ZUJKAS_clean_linker_0, # of connection points: 2
#     Edge 47, Type (0, 0), BuildingBlock: ZUJKAS_clean_linker_0, # of connection points: 2
#     Edge 48, Type (0, 0), BuildingBlock: ZUJKAS_clean_linker_0, # of connection points: 2
#     Edge 49, Type (0, 0), BuildingBlock: ZUJKAS_clean_linker_0, # of connection points: 2
#     Edge 50, Type (0, 0), BuildingBlock: ZUJKAS_clean_linker_0, # of connection points: 2
#     Edge 51, Type (0, 0), BuildingBlock: ZUJKAS_clean_linker_0, # of connection points: 2
#     Edge 52, Type (0, 0), BuildingBlock: ZUJKAS_clean_linker_0, # of connection points: 2
#     Edge 53, Type (0, 0), BuildingBlock: ZUJKAS_clean_linker_0, # of connection points: 2
#     Edge 54, Type (0, 0), BuildingBlock: ZUJKAS_clean_linker_0, # of connection points: 2
#     Edge 55, Type (0, 0), BuildingBlock: ZUJKAS_clean_linker_0, # of connection points: 2
# Relax obj value: 0.085
# Max RMSD: 0.147
# Mean RMSD: 0.147
data_MOF--net-vbk--node1-XOMCOT_clean_sbu_1--edge1-ZUJKAS_clean_linker_0
_symmetry_space_group_name_H-M    P1
_symmetry_Int_Tables_number       1
_symmetry_cell_setting            triclinic
loop_
_symmetry_equiv_pos_as_xyz
'x, y, z'
_cell_length_a     84.085969
_cell_length_b     59.491302
_cell_length_c     34.08688
_cell_angle_alpha  90.089898
_cell_angle_beta   90.043274
_cell_angle_gamma 90.098007
loop_
_atom_site_label
_atom_site_type_symbol
_atom_site_fract_x
_atom_site_fract_y
_atom_site_fract_z
_atom_type_partial_charge
C0 C 0.12366 0.19367 0.1178 0.0
C1 C 0.10738 0.19482 0.11694 0.0
N2 N 0.10153 0.17377 0.11435 0.0
N3 N 0.12822 0.17199 0.11557 0.0
C4 C 0.11444 0.16016 0.11396 0.0
H5 H 0.13175 0.2078 0.11922 0.0
Co6 Co 0.14974 0.16333 0.11451 0.0
C7 C 0.14478 0.12564 0.05536 0.0
O8 O 0.15089 0.1376 0.02678 0.0
N9 N 0.17159 0.15483 0.11522 0.0
C10 C 0.19542 0.14013 0.10275 0.0
C11 C 0.18002 0.14215 0.08977 0.0
C12 C 0.18235 0.16044 0.14331 0.0
N13 N 0.19695 0.15165 0.13658 0.0
O14 O 0.14736 0.15109 0.16626 0.0
H15 H 0.17554 0.13467 0.06329 0.0
H16 H 0.17959 0.17109 0.16804 0.0
O17 O 0.14397 0.13377 0.09025 0.0
C18 C 0.14812 0.16805 0.18915 0.0
O19 O 0.15062 0.18802 0.17396 0.0
N20 N 0.15221 0.17859 0.06585 0.0
C21 C 0.15316 0.21184 0.00776 0.0
C22 C 0.14079 0.19602 0.00863 0.0
C23 C 0.14039 0.17981 0.03826 0.0
C24 C 0.16446 0.1937 0.06483 0.0
C25 C 0.16526 0.21022 0.03587 0.0
H26 H 0.13015 0.16883 0.03997 0.0
H27 H 0.17318 0.1941 0.08807 0.0
H28 H 0.11389 0.14204 0.11152 0.0
H29 H 0.10038 0.21005 0.11822 0.0
H30 H 0.20467 0.13051 0.08849 0.0
H31 H 0.13102 0.19693 0.988 0.0
H32 H 0.175 0.22215 0.0364 0.0
C33 C 0.4157 0.83097 0.62284 0.0
C34 C 0.43195 0.83067 0.62653 0.0
N35 N 0.43744 0.85181 0.62226 0.0
N36 N 0.41082 0.85219 0.61626 0.0
C37 C 0.42436 0.8646 0.61593 0.0
H38 H 0.40786 0.81659 0.62487 0.0
Co39 Co 0.38922 0.8594 0.61164 0.0
C40 C 0.39099 0.89748 0.55457 0.0
O41 O 0.38281 0.88581 0.52889 0.0
N42 N 0.36676 0.86647 0.6081 0.0
C43 C 0.3416 0.86992 0.58741 0.0
C44 C 0.35707 0.86607 0.57629 0.0
C45 C 0.35656 0.87085 0.63815 0.0
N46 N 0.34124 0.87276 0.6265 0.0
O47 O 0.39013 0.87196 0.66323 0.0
H48 H 0.36065 0.86185 0.54682 0.0
H49 H 0.3601 0.87234 0.66842 0.0
O50 O 0.39447 0.88892 0.58796 0.0
C51 C 0.38723 0.85509 0.68519 0.0
O52 O 0.38347 0.83585 0.66856 0.0
N53 N 0.38878 0.84371 0.56372 0.0
C54 C 0.39109 0.81033 0.50617 0.0
C55 C 0.40112 0.82925 0.50532 0.0
C56 C 0.39997 0.84557 0.53483 0.0
C57 C 0.37912 0.8253 0.56513 0.0
C58 C 0.37981 0.80874 0.53629 0.0
H59 H 0.4086 0.85907 0.53564 0.0
H60 H 0.37119 0.82299 0.58976 0.0
H61 H 0.42462 0.88264 0.61194 0.0
H62 H 0.43919 0.81593 0.63157 0.0
H63 H 0.3313 0.86936 0.56834 0.0
H64 H 0.41032 0.83085 0.48328 0.0
H65 H 0.37181 0.7945 0.53824 0.0
C66 C 0.12501 0.82949 0.87142 0.0
C67 C 0.10877 0.82994 0.86805 0.0
N68 N 0.10387 0.8514 0.87163 0.0
N69 N 0.13049 0.85054 0.87706 0.0
C70 C 0.1173 0.86362 0.87726 0.0
H71 H 0.13243 0.81468 0.86991 0.0
Co72 Co 0.15231 0.85637 0.88148 0.0
C73 C 0.15324 0.89598 0.93503 0.0
O74 O 0.16284 0.8848 0.95815 0.0
N75 N 0.17503 0.86173 0.88488 0.0
C76 C 0.20043 0.86189 0.90441 0.0
C77 C 0.18495 0.85861 0.91573 0.0
C78 C 0.18513 0.86711 0.85513 0.0
N79 N 0.20063 0.86702 0.86601 0.0
O80 O 0.15204 0.86784 0.829 0.0
H81 H 0.18143 0.8535 0.94483 0.0
H82 H 0.18135 0.87026 0.82548 0.0
O83 O 0.14799 0.88668 0.90361 0.0
C84 C 0.15396 0.85042 0.80763 0.0
O85 O 0.15657 0.83101 0.82475 0.0
N86 N 0.15196 0.84189 0.93031 0.0
C87 C 0.14846 0.81097 0.99129 0.0
C88 C 0.14002 0.83133 0.99163 0.0
C89 C 0.14174 0.84647 0.96045 0.0
C90 C 0.1598 0.82187 0.92903 0.0
C91 C 0.15849 0.80642 0.95946 0.0
H92 H 0.13434 0.86129 0.95963 0.0
H93 H 0.16679 0.81759 0.90347 0.0
H94 H 0.11754 0.8817 0.88076 0.0
H95 H 0.10111 0.81549 0.86381 0.0
H96 H 0.21075 0.86017 0.92314 0.0
H97 H 0.1319 0.83532 0.01529 0.0
H98 H 0.16476 0.79058 0.95714 0.0
C99 C 0.41223 0.1965 0.38159 0.0
C100 C 0.42854 0.19721 0.38152 0.0
N101 N 0.43406 0.17621 0.38719 0.0
N102 N 0.40735 0.17519 0.38745 0.0
C103 C 0.42095 0.16307 0.39035 0.0
H104 H 0.40435 0.21073 0.37843 0.0
Co105 Co 0.38575 0.16801 0.39201 0.0
C106 C 0.38757 0.12892 0.44739 0.0
O107 O 0.37939 0.14001 0.47376 0.0
N108 N 0.36328 0.16118 0.39558 0.0
C109 C 0.33825 0.15786 0.41697 0.0
C110 C 0.35384 0.16099 0.42774 0.0
C111 C 0.35282 0.15799 0.36559 0.0
N112 N 0.33753 0.15616 0.37766 0.0
O113 O 0.38652 0.15588 0.34015 0.0
H114 H 0.35766 0.16434 0.45738 0.0
H115 H 0.35612 0.15794 0.3351 0.0
O116 O 0.39096 0.1382 0.41451 0.0
C117 C 0.38388 0.17261 0.31775 0.0
O118 O 0.38007 0.192 0.33369 0.0
N119 N 0.38556 0.18303 0.44061 0.0
C120 C 0.38875 0.21545 0.49949 0.0
C121 C 0.39851 0.19632 0.49912 0.0
C122 C 0.39686 0.18042 0.4691 0.0
C123 C 0.37614 0.20167 0.44041 0.0
C124 C 0.37729 0.2178 0.46993 0.0
H125 H 0.40524 0.16669 0.46754 0.0
H126 H 0.36816 0.20459 0.41604 0.0
H127 H 0.42125 0.14518 0.396 0.0
H128 H 0.43579 0.2121 0.37772 0.0
H129 H 0.3282 0.15752 0.43676 0.0
H130 H 0.40766 0.19402 0.52112 0.0
H131 H 0.36988 0.23264 0.46831 0.0
C132 C 0.91565 0.82971 0.88753 0.0
C133 C 0.93192 0.82949 0.88464 0.0
N134 N 0.93718 0.85089 0.88451 0.0
N135 N 0.91054 0.85114 0.88932 0.0
C136 C 0.92396 0.86376 0.88751 0.0
H137 H 0.90794 0.81513 0.88789 0.0
Co138 Co 0.88886 0.85864 0.89005 0.0
C139 C 0.89037 0.89741 0.9469 0.0
O140 O 0.88224 0.88627 0.97329 0.0
N141 N 0.86658 0.866 0.88958 0.0
C142 C 0.84134 0.87208 0.907 0.0
C143 C 0.8565 0.86817 0.92029 0.0
C144 C 0.85695 0.86856 0.85782 0.0
N145 N 0.84157 0.87229 0.86757 0.0
O146 O 0.89126 0.871 0.83866 0.0
H147 H 0.85956 0.86568 0.95067 0.0
H148 H 0.86102 0.86746 0.8279 0.0
O149 O 0.89374 0.88825 0.91389 0.0
C150 C 0.89066 0.85391 0.8161 0.0
O151 O 0.88743 0.83416 0.83134 0.0
N152 N 0.88692 0.8434 0.93819 0.0
C153 C 0.88692 0.81092 0.9974 0.0
C154 C 0.89756 0.82914 0.9987 0.0
C155 C 0.89756 0.84501 0.96842 0.0
C156 C 0.87671 0.82559 0.93627 0.0
C157 C 0.87631 0.80945 0.96578 0.0
H158 H 0.90658 0.85799 0.9683 0.0
H159 H 0.86931 0.82328 0.91061 0.0
H160 H 0.924 0.88195 0.88719 0.0
H161 H 0.93932 0.81465 0.88286 0.0
H162 H 0.83082 0.87352 0.92513 0.0
H163 H 0.90611 0.83082 0.02231 0.0
H164 H 0.8683 0.79527 0.96269 0.0
C165 C 0.62332 0.19702 0.38563 0.0
C166 C 0.60702 0.19783 0.38612 0.0
N167 N 0.60138 0.17667 0.38899 0.0
N168 N 0.6281 0.17547 0.3883 0.0
C169 C 0.61444 0.16335 0.38989 0.0
H170 H 0.63126 0.21131 0.38404 0.0
Co171 Co 0.64971 0.16745 0.38978 0.0
C172 C 0.64585 0.12908 0.44774 0.0
O173 O 0.65187 0.14084 0.47673 0.0
N174 N 0.67175 0.15954 0.38996 0.0
C175 C 0.69633 0.14995 0.40811 0.0
C176 C 0.68092 0.15299 0.42046 0.0
C177 C 0.68208 0.16044 0.35938 0.0
N178 N 0.69709 0.15464 0.36957 0.0
O179 O 0.64754 0.15508 0.33802 0.0
H180 H 0.67702 0.15143 0.45036 0.0
H181 H 0.67887 0.16597 0.33034 0.0
O182 O 0.64444 0.1378 0.41349 0.0
C183 C 0.64825 0.17212 0.31539 0.0
O184 O 0.65119 0.19195 0.33078 0.0
N185 N 0.65171 0.18282 0.43832 0.0
C186 C 0.65175 0.21623 0.49629 0.0
C187 C 0.6401 0.19932 0.49613 0.0
C188 C 0.64012 0.18301 0.46652 0.0
C189 C 0.66316 0.19911 0.43836 0.0
C190 C 0.66356 0.21567 0.46733 0.0
H191 H 0.63035 0.1712 0.46514 0.0
H192 H 0.67155 0.20019 0.41444 0.0
H193 H 0.61408 0.14524 0.39262 0.0
H194 H 0.59987 0.2129 0.38433 0.0
H195 H 0.70622 0.1448 0.42631 0.0
H196 H 0.63052 0.1994 0.51734 0.0
H197 H 0.67277 0.22841 0.46621 0.0
C198 C 0.91218 0.19473 0.12579 0.0
C199 C 0.92848 0.19552 0.12589 0.0
N200 N 0.93406 0.17474 0.11834 0.0
N201 N 0.90736 0.17359 0.11804 0.0
C202 C 0.92097 0.16164 0.11401 0.0
H203 H 0.90425 0.20877 0.13056 0.0
Co204 Co 0.88578 0.16639 0.11398 0.0
C205 C 0.88643 0.12833 0.05691 0.0
O206 O 0.87727 0.13969 0.03298 0.0
N207 N 0.86325 0.15952 0.111 0.0
C208 C 0.83787 0.15785 0.09139 0.0
C209 C 0.85329 0.16164 0.07995 0.0
C210 C 0.85325 0.1541 0.14095 0.0
N211 N 0.83778 0.15328 0.12998 0.0
O212 O 0.8871 0.15343 0.16492 0.0
H213 H 0.85668 0.16689 0.05084 0.0
H214 H 0.85707 0.15118 0.17069 0.0
O215 O 0.89082 0.13706 0.08955 0.0
C216 C 0.88404 0.16956 0.18836 0.0
O217 O 0.87914 0.18878 0.17379 0.0
N218 N 0.88525 0.1822 0.06636 0.0
C219 C 0.88808 0.21523 0.00867 0.0
C220 C 0.89742 0.19571 0.00714 0.0
C221 C 0.89598 0.1795 0.03663 0.0
C222 C 0.87635 0.2013 0.06861 0.0
C223 C 0.87731 0.21776 0.03971 0.0
H224 H 0.90409 0.16542 0.0367 0.0
H225 H 0.8689 0.20419 0.09397 0.0
H226 H 0.92131 0.14389 0.10705 0.0
H227 H 0.93569 0.2103 0.13125 0.0
H228 H 0.82746 0.15965 0.07299 0.0
H229 H 0.90606 0.19328 0.98399 0.0
H230 H 0.87027 0.23289 0.0428 0.0
C231 C 0.62675 0.83115 0.62559 0.0
C232 C 0.61051 0.83087 0.62932 0.0
N233 N 0.60501 0.85188 0.62355 0.0
N234 N 0.63163 0.85219 0.61743 0.0
C235 C 0.6181 0.86455 0.61625 0.0
H236 H 0.63458 0.81685 0.62859 0.0
Co237 Co 0.65324 0.85898 0.61192 0.0
C238 C 0.65237 0.89737 0.55573 0.0
O239 O 0.66117 0.88578 0.5313 0.0
N240 N 0.67584 0.86541 0.60748 0.0
C241 C 0.70098 0.86673 0.58604 0.0
C242 C 0.68539 0.86326 0.57569 0.0
C243 C 0.68628 0.87049 0.6368 0.0
N244 N 0.70162 0.87104 0.62472 0.0
O245 O 0.65279 0.87142 0.66354 0.0
H246 H 0.6816 0.85831 0.54668 0.0
H247 H 0.68292 0.8728 0.66703 0.0
O248 O 0.64817 0.88867 0.58852 0.0
C249 C 0.65606 0.85475 0.68561 0.0
O250 O 0.66038 0.8357 0.66924 0.0
N251 N 0.65301 0.84348 0.5639 0.0
C252 C 0.64961 0.81087 0.50543 0.0
C253 C 0.64029 0.83045 0.5049 0.0
C254 C 0.64201 0.84644 0.53481 0.0
C255 C 0.6618 0.82426 0.5653 0.0
C256 C 0.66055 0.80802 0.53603 0.0
H257 H 0.63398 0.8606 0.53566 0.0
H258 H 0.66945 0.82114 0.59022 0.0
H259 H 0.61786 0.88246 0.61083 0.0
H260 H 0.60328 0.81621 0.63531 0.0
H261 H 0.71109 0.86553 0.56653 0.0
H262 H 0.63149 0.83311 0.48217 0.0
H263 H 0.66755 0.79282 0.53847 0.0
C264 C 0.6276 0.69749 0.12285 0.0
C265 C 0.61135 0.69925 0.12391 0.0
N266 N 0.60501 0.67875 0.11736 0.0
N267 N 0.63164 0.676 0.1156 0.0
C268 C 0.61762 0.66485 0.11272 0.0
H269 H 0.63603 0.71106 0.12686 0.0
Co270 Co 0.65284 0.66707 0.11139 0.0
C271 C 0.64981 0.62812 0.05646 0.0
O272 O 0.65865 0.63851 0.0305 0.0
N273 N 0.67496 0.65824 0.10817 0.0
C274 C 0.69996 0.65292 0.08769 0.0
C275 C 0.68469 0.65805 0.07649 0.0
C276 C 0.68489 0.65285 0.13824 0.0
N277 N 0.70013 0.64982 0.12672 0.0
O278 O 0.65129 0.65542 0.16332 0.0
H279 H 0.6813 0.66256 0.047 0.0
H280 H 0.68122 0.6514 0.16841 0.0
O281 O 0.64648 0.63766 0.08914 0.0
C282 C 0.65517 0.67184 0.18545 0.0
O283 O 0.66081 0.69023 0.16923 0.0
N284 N 0.65379 0.68188 0.06274 0.0
C285 C 0.65192 0.71456 0.00412 0.0
C286 C 0.64156 0.69602 0.004 0.0
C287 C 0.64253 0.68 0.03394 0.0
C288 C 0.66378 0.69995 0.06343 0.0
C289 C 0.66328 0.71619 0.03407 0.0
H290 H 0.63369 0.66681 0.03518 0.0
H291 H 0.67172 0.70236 0.08808 0.0
H292 H 0.61667 0.64705 0.10658 0.0
H293 H 0.60472 0.71451 0.12949 0.0
H294 H 0.71028 0.65272 0.06874 0.0
H295 H 0.63245 0.69428 0.98172 0.0
H296 H 0.67115 0.73058 0.03613 0.0
C297 C 0.91304 0.32777 0.61991 0.0
C298 C 0.92928 0.32624 0.61922 0.0
N299 N 0.93534 0.34687 0.61268 0.0
N300 N 0.90869 0.34924 0.61374 0.0
C301 C 0.92257 0.36067 0.60979 0.0
H302 H 0.90482 0.31398 0.62411 0.0
Co303 Co 0.88713 0.35653 0.61095 0.0
C304 C 0.88624 0.39681 0.55951 0.0
O305 O 0.87597 0.38631 0.53708 0.0
N306 N 0.86448 0.36303 0.6093 0.0
C307 C 0.83885 0.36278 0.59147 0.0
C308 C 0.85422 0.36013 0.57897 0.0
C309 C 0.85465 0.36777 0.63996 0.0
N310 N 0.83906 0.36728 0.63008 0.0
O311 O 0.88854 0.3678 0.66324 0.0
H312 H 0.8574 0.35522 0.54951 0.0
H313 H 0.85863 0.37033 0.66971 0.0
O314 O 0.89214 0.38672 0.58934 0.0
C315 C 0.88541 0.35103 0.68515 0.0
O316 O 0.88064 0.33218 0.66874 0.0
N317 N 0.88648 0.3424 0.56186 0.0
C318 C 0.88946 0.31119 0.50122 0.0
C319 C 0.89808 0.33142 0.50039 0.0
C320 C 0.89653 0.34679 0.53132 0.0
C321 C 0.87831 0.32261 0.56332 0.0
C322 C 0.87932 0.30705 0.53295 0.0
H323 H 0.90411 0.36147 0.53188 0.0
H324 H 0.87141 0.31852 0.58911 0.0
H325 H 0.92331 0.37851 0.60393 0.0
H326 H 0.93614 0.31104 0.62343 0.0
H327 H 0.8283 0.36073 0.57359 0.0
H328 H 0.90628 0.33499 0.47673 0.0
H329 H 0.87287 0.29132 0.53539 0.0
C330 C 0.62761 0.32844 0.88363 0.0
C331 C 0.61138 0.32615 0.88077 0.0
N332 N 0.60476 0.34676 0.88257 0.0
N333 N 0.63129 0.35038 0.88741 0.0
C334 C 0.61713 0.36118 0.88656 0.0
H335 H 0.63625 0.315 0.8828 0.0
Co336 Co 0.65208 0.36158 0.88941 0.0
C337 C 0.64773 0.39772 0.94931 0.0
O338 O 0.65831 0.38783 0.97178 0.0
N339 N 0.67339 0.37295 0.88897 0.0
C340 C 0.69427 0.39614 0.88608 0.0
C341 C 0.67869 0.39392 0.89736 0.0
C342 C 0.68604 0.36317 0.87096 0.0
N343 N 0.69891 0.37683 0.8692 0.0
O344 O 0.64896 0.37441 0.83875 0.0
H345 H 0.67158 0.40775 0.90754 0.0
H346 H 0.6856 0.34666 0.8577 0.0
O347 O 0.64438 0.3893 0.91562 0.0
C348 C 0.65262 0.35867 0.81506 0.0
O349 O 0.65746 0.33937 0.82937 0.0
N350 N 0.65518 0.34613 0.93752 0.0
C351 C 0.65622 0.31321 0.99617 0.0
C352 C 0.64418 0.3295 0.99592 0.0
C353 C 0.64374 0.34559 0.96608 0.0
C354 C 0.66714 0.33066 0.93797 0.0
C355 C 0.66801 0.31431 0.96721 0.0
H356 H 0.63365 0.3568 0.96466 0.0
H357 H 0.67548 0.32975 0.91413 0.0
H358 H 0.61594 0.37927 0.8878 0.0
H359 H 0.60495 0.31046 0.87785 0.0
H360 H 0.70122 0.41146 0.88731 0.0
H361 H 0.63461 0.32901 0.01714 0.0
H362 H 0.67752 0.30207 0.96617 0.0
C363 C 0.91334 0.6934 0.38554 0.0
C364 C 0.92961 0.69442 0.38729 0.0
N365 N 0.93523 0.67347 0.39274 0.0
N366 N 0.90856 0.67194 0.39004 0.0
C367 C 0.9222 0.66003 0.394 0.0
H368 H 0.90541 0.70753 0.38186 0.0
Co369 Co 0.88692 0.66454 0.39146 0.0
C370 C 0.88618 0.62547 0.44634 0.0
O371 O 0.87601 0.63625 0.46853 0.0
N372 N 0.86439 0.65769 0.39187 0.0
C373 C 0.83873 0.65617 0.40891 0.0
C374 C 0.85393 0.65993 0.42186 0.0
C375 C 0.85486 0.65247 0.36083 0.0
N376 N 0.83922 0.65173 0.37027 0.0
O377 O 0.88893 0.65197 0.34008 0.0
H378 H 0.85684 0.66511 0.45136 0.0
H379 H 0.85913 0.65023 0.33129 0.0
O380 O 0.89178 0.63501 0.41562 0.0
C381 C 0.88711 0.66875 0.31729 0.0
O382 O 0.88329 0.6883 0.33252 0.0
N383 N 0.88551 0.67996 0.43929 0.0
C384 C 0.88743 0.71344 0.49659 0.0
C385 C 0.89612 0.69339 0.50046 0.0
C386 C 0.8952 0.67695 0.47104 0.0
C387 C 0.87701 0.69931 0.43528 0.0
C388 C 0.87753 0.716 0.46385 0.0
H389 H 0.90301 0.66257 0.47252 0.0
H390 H 0.87025 0.70221 0.40875 0.0
H391 H 0.92259 0.64206 0.39877 0.0
H392 H 0.93679 0.70947 0.38468 0.0
H393 H 0.8281 0.65728 0.42665 0.0
H394 H 0.90423 0.69099 0.52478 0.0
H395 H 0.87057 0.73111 0.45964 0.0
C396 C 0.41395 0.32818 0.88546 0.0
C397 C 0.43016 0.32667 0.88205 0.0
N398 N 0.43632 0.34759 0.88293 0.0
N399 N 0.40976 0.34995 0.88876 0.0
C400 C 0.42366 0.36147 0.88707 0.0
H401 H 0.40565 0.31427 0.88554 0.0
Co402 Co 0.38842 0.35896 0.89133 0.0
C403 C 0.39365 0.39678 0.94995 0.0
O404 O 0.38734 0.38507 0.9786 0.0
N405 N 0.36655 0.36757 0.89171 0.0
C406 C 0.3427 0.38231 0.9041 0.0
C407 C 0.35825 0.38096 0.91634 0.0
C408 C 0.35554 0.3609 0.86492 0.0
N409 N 0.34096 0.3697 0.87157 0.0
O410 O 0.39062 0.37146 0.84 0.0
H411 H 0.36288 0.38932 0.94184 0.0
H412 H 0.35814 0.34986 0.84065 0.0
O413 O 0.39459 0.3883 0.91536 0.0
C414 C 0.38888 0.35511 0.81618 0.0
O415 O 0.38572 0.33504 0.83022 0.0
N416 N 0.38635 0.34382 0.94007 0.0
C417 C 0.38658 0.31059 0.99811 0.0
C418 C 0.3988 0.32659 0.99604 0.0
C419 C 0.39856 0.34288 0.96663 0.0
C420 C 0.37415 0.32868 0.94243 0.0
C421 C 0.37392 0.31218 0.97152 0.0
H422 H 0.40863 0.3541 0.96404 0.0
H423 H 0.36509 0.32816 0.92001 0.0
H424 H 0.42445 0.37962 0.88798 0.0
H425 H 0.43691 0.31125 0.8795 0.0
H426 H 0.33336 0.39169 0.91852 0.0
H427 H 0.40879 0.32603 0.01609 0.0
H428 H 0.36442 0.29985 0.97148 0.0
C429 C 0.12603 0.69348 0.39135 0.0
C430 C 0.10982 0.6955 0.39512 0.0
N431 N 0.10333 0.67475 0.39467 0.0
N432 N 0.12985 0.67155 0.38891 0.0
C433 C 0.11578 0.66052 0.39064 0.0
H434 H 0.13452 0.70714 0.3899 0.0
Co435 Co 0.1504 0.66063 0.38099 0.0
C436 C 0.15229 0.62185 0.43453 0.0
O437 O 0.16557 0.63067 0.44795 0.0
N438 N 0.17131 0.64934 0.3705 0.0
C439 C 0.18923 0.62495 0.34768 0.0
C440 C 0.17428 0.62739 0.36297 0.0
C441 C 0.18471 0.65994 0.35778 0.0
N442 N 0.1958 0.64543 0.34403 0.0
O443 O 0.14389 0.64959 0.33097 0.0
H444 H 0.16568 0.61395 0.36508 0.0
H445 H 0.1858 0.67792 0.35464 0.0
O446 O 0.14463 0.63196 0.40721 0.0
C447 C 0.14736 0.6657 0.30795 0.0
O448 O 0.15422 0.68374 0.32251 0.0
N449 N 0.15662 0.67443 0.4287 0.0
C450 C 0.16014 0.70566 0.4898 0.0
C451 C 0.15026 0.68678 0.49414 0.0
C452 C 0.14841 0.67163 0.46304 0.0
C453 C 0.16637 0.69258 0.42429 0.0
C454 C 0.16852 0.70813 0.45453 0.0
H455 H 0.13947 0.65868 0.46564 0.0
H456 H 0.17127 0.69646 0.39598 0.0
H457 H 0.1147 0.64243 0.38879 0.0
H458 H 0.1033 0.71114 0.39692 0.0
H459 H 0.1945 0.60933 0.33788 0.0
H460 H 0.1434 0.68427 0.52066 0.0
H461 H 0.17574 0.72289 0.44907 0.0
C462 C 0.41513 0.69856 0.10905 0.0
C463 C 0.43141 0.69953 0.10868 0.0
N464 N 0.43711 0.67841 0.10669 0.0
N465 N 0.41042 0.67692 0.10707 0.0
C466 C 0.4241 0.66492 0.10612 0.0
H467 H 0.40715 0.71277 0.11044 0.0
Co468 Co 0.38881 0.66895 0.10687 0.0
C469 C 0.39154 0.63092 0.04751 0.0
O470 O 0.38477 0.64278 0.01977 0.0
N471 N 0.36671 0.66138 0.10812 0.0
C472 C 0.34174 0.65291 0.09156 0.0
C473 C 0.35705 0.65531 0.0782 0.0
C474 C 0.35672 0.66284 0.13935 0.0
N475 N 0.34149 0.65767 0.13013 0.0
O476 O 0.3916 0.65598 0.15776 0.0
H477 H 0.36047 0.65408 0.04793 0.0
H478 H 0.36042 0.66797 0.16832 0.0
O479 O 0.39372 0.63949 0.0817 0.0
C480 C 0.39131 0.6727 0.18119 0.0
O481 O 0.38816 0.69274 0.16708 0.0
N482 N 0.38634 0.68474 0.05915 0.0
C483 C 0.38691 0.71938 0.00388 0.0
C484 C 0.39773 0.70155 0.00146 0.0
C485 C 0.39748 0.68463 0.02987 0.0
C486 C 0.37549 0.70174 0.06119 0.0
C487 C 0.37546 0.71908 0.0337 0.0
H488 H 0.40689 0.67227 0.02983 0.0
H489 H 0.3675 0.70284 0.08594 0.0
H490 H 0.42451 0.64676 0.10454 0.0
H491 H 0.43852 0.71469 0.11035 0.0
H492 H 0.33145 0.64902 0.07368 0.0
H493 H 0.40701 0.70147 0.97943 0.0
H494 H 0.36697 0.73264 0.03675 0.0
C495 C 0.12652 0.32412 0.61261 0.0
C496 C 0.11026 0.32208 0.61095 0.0
N497 N 0.10384 0.34284 0.60998 0.0
N498 N 0.13047 0.34606 0.61244 0.0
C499 C 0.11641 0.35711 0.61119 0.0
H500 H 0.13499 0.31048 0.61415 0.0
Co501 Co 0.15136 0.35674 0.61602 0.0
C502 C 0.15082 0.39376 0.55786 0.0
O503 O 0.16298 0.38417 0.54036 0.0
N504 N 0.17263 0.3676 0.62223 0.0
C505 C 0.19222 0.39151 0.63725 0.0
C506 C 0.17731 0.38938 0.62144 0.0
C507 C 0.18495 0.35701 0.64033 0.0
N508 N 0.19701 0.37119 0.64956 0.0
O509 O 0.14658 0.36908 0.66629 0.0
H510 H 0.16993 0.40353 0.61399 0.0
H511 H 0.18445 0.33977 0.65026 0.0
O512 O 0.14503 0.38492 0.58905 0.0
C513 C 0.14903 0.35276 0.68968 0.0
O514 O 0.15375 0.3334 0.67525 0.0
N515 N 0.15608 0.3418 0.56813 0.0
C516 C 0.15813 0.30939 0.50845 0.0
C517 C 0.14716 0.32711 0.50599 0.0
C518 C 0.14613 0.34285 0.53637 0.0
C519 C 0.16709 0.32504 0.57038 0.0
C520 C 0.16844 0.30888 0.5408 0.0
H521 H 0.13661 0.35502 0.53548 0.0
H522 H 0.174 0.32286 0.59665 0.0
H523 H 0.11543 0.37524 0.61114 0.0
H524 H 0.10369 0.30643 0.61138 0.0
H525 H 0.19858 0.40714 0.64175 0.0
H526 H 0.13895 0.3283 0.48161 0.0
H527 H 0.17677 0.2952 0.54475 0.0
H528 H 0.19883 0.16252 0.21432 0.0
H529 H 0.22279 0.1643 0.25487 0.0
H530 H 0.25132 0.14583 0.15493 0.0
H531 H 0.22764 0.14487 0.11393 0.0
H532 H 0.24393 0.1308 0.27228 0.0
H533 H 0.27548 0.19973 0.19559 0.0
H534 H 0.25473 0.19362 0.18716 0.0
H535 H 0.26988 0.17715 0.16346 0.0
C536 C 0.21019 0.15918 0.20069 0.0
C537 C 0.21115 0.15352 0.16061 0.0
C538 C 0.22392 0.16007 0.22407 0.0
C539 C 0.23894 0.1555 0.20792 0.0
C540 C 0.23995 0.14989 0.168 0.0
H541 H 0.33519 0.14261 0.30124 0.0
H542 H 0.31128 0.14206 0.26035 0.0
C543 C 0.22627 0.14905 0.14461 0.0
C544 C 0.25348 0.15571 0.23303 0.0
H545 H 0.29063 0.17874 0.24183 0.0
C546 C 0.25409 0.14141 0.26577 0.0
C547 C 0.26681 0.16948 0.22451 0.0
C548 C 0.26668 0.18602 0.191 0.0
C549 C 0.2677 0.1402 0.2897 0.0
C550 C 0.28104 0.15387 0.28103 0.0
C551 C 0.28045 0.16817 0.24834 0.0
C552 C 0.29556 0.15395 0.30606 0.0
C553 C 0.26783 0.12395 0.32364 0.0
C554 C 0.29476 0.16104 0.34526 0.0
C555 C 0.30843 0.16156 0.3687 0.0
C556 C 0.32332 0.15503 0.35352 0.0
C557 C 0.32406 0.14796 0.31407 0.0
C558 C 0.31035 0.14753 0.29059 0.0
H559 H 0.2585 0.11082 0.32047 0.0
H560 H 0.27958 0.11561 0.32635 0.0
H561 H 0.26551 0.13329 0.35125 0.0
H562 H 0.28355 0.16654 0.35764 0.0
H563 H 0.30729 0.16757 0.3985 0.0
H564 H 0.23062 0.85189 0.88053 0.0
H565 H 0.2539 0.85538 0.83877 0.0
H566 H 0.22592 0.88999 0.75187 0.0
H567 H 0.20253 0.88737 0.7943 0.0
H568 H 0.25842 0.83824 0.76542 0.0
H569 H 0.2644 0.93119 0.76182 0.0
H570 H 0.2518 0.9169 0.79667 0.0
H571 H 0.24526 0.92077 0.74692 0.0
C572 C 0.22935 0.86067 0.85298 0.0
C573 C 0.21455 0.86952 0.84122 0.0
C574 C 0.24274 0.86247 0.82887 0.0
C575 C 0.24179 0.87321 0.79233 0.0
C576 C 0.22707 0.88202 0.78026 0.0
H577 H 0.31253 0.89018 0.6063 0.0
H578 H 0.28824 0.89059 0.64598 0.0
C579 C 0.21362 0.88027 0.80446 0.0
C580 C 0.25611 0.87427 0.76658 0.0
H581 H 0.28178 0.91042 0.72082 0.0
C582 C 0.26352 0.85405 0.75576 0.0
C583 C 0.26279 0.89488 0.75378 0.0
C584 C 0.25577 0.9172 0.76561 0.0
C585 C 0.27733 0.85382 0.73252 0.0
C586 C 0.28412 0.87441 0.72015 0.0
C587 C 0.2766 0.89465 0.73042 0.0
C588 C 0.29908 0.87517 0.69678 0.0
C589 C 0.28442 0.8315 0.72094 0.0
C590 C 0.31336 0.86684 0.71239 0.0
C591 C 0.32726 0.86655 0.68977 0.0
C592 C 0.32721 0.87461 0.65094 0.0
C593 C 0.31297 0.88355 0.63582 0.0
C594 C 0.29908 0.88391 0.65855 0.0
H595 H 0.27574 0.81753 0.7242 0.0
H596 H 0.28866 0.83184 0.69009 0.0
H597 H 0.29476 0.82786 0.74015 0.0
H598 H 0.31372 0.86032 0.74203 0.0
H599 H 0.3379 0.85937 0.70239 0.0
H600 H 0.70444 0.89096 0.69661 0.0
H601 H 0.72838 0.89332 0.73743 0.0
H602 H 0.755 0.85806 0.64868 0.0
H603 H 0.73128 0.85545 0.60802 0.0
H604 H 0.74682 0.85872 0.76763 0.0
H605 H 0.78337 0.91221 0.66978 0.0
H606 H 0.76218 0.90888 0.6634 0.0
H607 H 0.77561 0.8876 0.64595 0.0
C608 C 0.71536 0.88371 0.68569 0.0
C609 C 0.71583 0.87318 0.64866 0.0
C610 C 0.72908 0.88516 0.70906 0.0
C611 C 0.74361 0.87625 0.69587 0.0
C612 C 0.74408 0.86563 0.65911 0.0
H613 H 0.83835 0.85623 0.79294 0.0
H614 H 0.81457 0.85789 0.75151 0.0
C615 C 0.73042 0.86417 0.63578 0.0
C616 C 0.75812 0.87716 0.72105 0.0
H617 H 0.79694 0.89452 0.7228 0.0
C618 C 0.75773 0.86673 0.75797 0.0
C619 C 0.77241 0.88751 0.70842 0.0
C620 C 0.77343 0.89987 0.66989 0.0
C621 C 0.77131 0.86587 0.78211 0.0
C622 C 0.78563 0.87607 0.76935 0.0
C623 C 0.786 0.88663 0.73254 0.0
C624 C 0.80033 0.87598 0.79388 0.0
C625 C 0.7703 0.85346 0.82061 0.0
C626 C 0.80043 0.88612 0.83109 0.0
C627 C 0.81402 0.88527 0.85478 0.0
C628 C 0.82792 0.87436 0.84182 0.0
C629 C 0.82796 0.86487 0.80393 0.0
C630 C 0.81432 0.86571 0.78022 0.0
H631 H 0.76 0.84173 0.82134 0.0
H632 H 0.78133 0.84375 0.82624 0.0
H633 H 0.76879 0.86578 0.84478 0.0
H634 H 0.78995 0.89467 0.8419 0.0
H635 H 0.81362 0.89322 0.88333 0.0
H636 H 0.69843 0.1477 0.29069 0.0
H637 H 0.72234 0.14591 0.24974 0.0
H638 H 0.75149 0.15899 0.35137 0.0
H639 H 0.72775 0.16069 0.39233 0.0
H640 H 0.74531 0.17713 0.23473 0.0
H641 H 0.77276 0.10359 0.30755 0.0
H642 H 0.75237 0.11167 0.31599 0.0
H643 H 0.7683 0.12598 0.34107 0.0
C644 C 0.70992 0.15027 0.30431 0.0
C645 C 0.71112 0.15411 0.34497 0.0
C646 C 0.7236 0.14915 0.28087 0.0
C647 C 0.73879 0.15179 0.29754 0.0
C648 C 0.73999 0.15617 0.33793 0.0
H649 H 0.8355 0.16154 0.20859 0.0
H650 H 0.81143 0.16035 0.24878 0.0
C651 C 0.72635 0.15719 0.36137 0.0
C652 C 0.75337 0.15058 0.27267 0.0
H653 H 0.78926 0.12405 0.26329 0.0
C654 C 0.75485 0.16539 0.24081 0.0
C655 C 0.76588 0.13528 0.28053 0.0
C656 C 0.76472 0.11808 0.3129 0.0
C657 C 0.7686 0.16568 0.21727 0.0
C658 C 0.78116 0.15057 0.22545 0.0
C659 C 0.77967 0.13569 0.25714 0.0
C660 C 0.79593 0.15003 0.20139 0.0
C661 C 0.76974 0.18255 0.18438 0.0
C662 C 0.79534 0.144 0.1616 0.0
C663 C 0.80911 0.14445 0.13856 0.0
C664 C 0.82385 0.15094 0.15474 0.0
C665 C 0.82447 0.15627 0.19502 0.0
C666 C 0.81067 0.15573 0.21808 0.0
H667 H 0.76083 0.1962 0.1875 0.0
H668 H 0.78179 0.19016 0.18323 0.0
H669 H 0.76753 0.17389 0.15602 0.0
H670 H 0.78417 0.13907 0.14826 0.0
H671 H 0.80817 0.1398 0.10795 0.0
H672 H 0.72815 0.63042 0.1062 0.0
H673 H 0.75221 0.62739 0.1463 0.0
H674 H 0.72795 0.65941 0.24267 0.0
H675 H 0.70392 0.66253 0.20287 0.0
H676 H 0.76993 0.66125 0.1791 0.0
H677 H 0.74737 0.60517 0.29608 0.0
H678 H 0.73689 0.60925 0.25041 0.0
H679 H 0.73524 0.62963 0.28925 0.0
C680 C 0.7279 0.63674 0.13598 0.0
C681 C 0.71401 0.64664 0.15125 0.0
C682 C 0.74167 0.63494 0.15892 0.0
C683 C 0.74187 0.64287 0.19774 0.0
C684 C 0.72801 0.65263 0.21317 0.0
H685 H 0.80908 0.66677 0.38225 0.0
H686 H 0.78634 0.66298 0.33866 0.0
C687 C 0.71423 0.6544 0.19029 0.0
C688 C 0.75676 0.64195 0.22148 0.0
H689 H 0.7719 0.6241 0.30915 0.0
C690 C 0.77042 0.6529 0.20733 0.0
C691 C 0.75744 0.63101 0.2583 0.0
C692 C 0.7435 0.61791 0.27427 0.0
C693 C 0.7845 0.65398 0.22963 0.0
C694 C 0.78503 0.64354 0.26689 0.0
C695 C 0.77149 0.63215 0.28063 0.0
C696 C 0.79916 0.64534 0.29314 0.0
C697 C 0.79848 0.66705 0.21382 0.0
C698 C 0.81402 0.63649 0.28232 0.0
C699 C 0.82717 0.63849 0.3075 0.0
C700 C 0.8257 0.64928 0.34415 0.0
C701 C 0.81073 0.65798 0.35477 0.0
C702 C 0.79765 0.65596 0.32968 0.0
H703 H 0.79506 0.67798 0.1888 0.0
H704 H 0.80387 0.6777 0.2371 0.0
H705 H 0.80769 0.65513 0.20338 0.0
H706 H 0.81542 0.62786 0.25455 0.0
H707 H 0.83841 0.63137 0.29844 0.0
H708 H 0.83666 0.38898 0.70025 0.0
H709 H 0.81362 0.38928 0.74452 0.0
H710 H 0.78754 0.34776 0.66304 0.0
H711 H 0.81043 0.34696 0.61933 0.0
H712 H 0.78201 0.40436 0.72793 0.0
H713 H 0.78281 0.314 0.76777 0.0
H714 H 0.79967 0.32802 0.74588 0.0
H715 H 0.78319 0.31924 0.7159 0.0
C716 C 0.82607 0.37978 0.69192 0.0
C717 C 0.82545 0.36801 0.65608 0.0
C718 C 0.81289 0.38003 0.71718 0.0
C719 C 0.79893 0.36826 0.70736 0.0
C720 C 0.79826 0.35665 0.67157 0.0
H721 H 0.70406 0.35099 0.80441 0.0
H722 H 0.72875 0.34849 0.76636 0.0
C723 C 0.81134 0.35648 0.6463 0.0
C724 C 0.78484 0.3686 0.73375 0.0
H725 H 0.75969 0.33461 0.78572 0.0
C726 C 0.77721 0.38916 0.74089 0.0
C727 C 0.77852 0.34871 0.75041 0.0
C728 C 0.78653 0.32625 0.74496 0.0
C729 C 0.76321 0.3903 0.76337 0.0
C730 C 0.75684 0.3704 0.77992 0.0
C731 C 0.76454 0.34985 0.77301 0.0
C732 C 0.74218 0.37064 0.80444 0.0
C733 C 0.75511 0.41276 0.76817 0.0
C734 C 0.74165 0.38329 0.83919 0.0
C735 C 0.7276 0.3847 0.86096 0.0
C736 C 0.71376 0.37332 0.84873 0.0
C737 C 0.71451 0.35982 0.81485 0.0
C738 C 0.7286 0.35849 0.79294 0.0
H739 H 0.75899 0.42496 0.74545 0.0
H740 H 0.74198 0.41095 0.76655 0.0
H741 H 0.75819 0.41989 0.79731 0.0
H742 H 0.75208 0.39233 0.84927 0.0
H743 H 0.7275 0.3949 0.88728 0.0
H744 H 0.21546 0.33371 0.6496 0.0
H745 H 0.24 0.3277 0.68796 0.0
H746 H 0.23429 0.39289 0.74145 0.0
H747 H 0.21 0.39883 0.70384 0.0
H748 H 0.26826 0.357 0.68778 0.0
H749 H 0.24119 0.34965 0.83536 0.0
H750 H 0.22997 0.34541 0.7907 0.0
H751 H 0.23422 0.37339 0.80782 0.0
C752 C 0.21941 0.34658 0.6699 0.0
C753 C 0.21087 0.36679 0.67344 0.0
C754 C 0.23342 0.3432 0.69163 0.0
C755 C 0.23891 0.35979 0.71781 0.0
C756 C 0.23022 0.37976 0.72179 0.0
H757 H 0.31551 0.39771 0.86785 0.0
H758 H 0.29121 0.39259 0.82982 0.0
C759 C 0.2164 0.38322 0.69994 0.0
C760 C 0.254 0.35701 0.74013 0.0
H761 H 0.26901 0.35797 0.8333 0.0
C762 C 0.26847 0.35679 0.71959 0.0
C763 C 0.25423 0.35683 0.78163 0.0
C764 C 0.23907 0.35612 0.80524 0.0
C765 C 0.28316 0.35761 0.73946 0.0
C766 C 0.28337 0.35825 0.78101 0.0
C767 C 0.26888 0.35759 0.80148 0.0
C768 C 0.29838 0.361 0.80387 0.0
C769 C 0.29829 0.35892 0.7158 0.0
C770 C 0.31055 0.34486 0.80228 0.0
C771 C 0.32453 0.3477 0.82426 0.0
C772 C 0.32661 0.36669 0.84854 0.0
C773 C 0.31432 0.38273 0.85006 0.0
C774 C 0.3004 0.37988 0.82811 0.0
H775 H 0.29594 0.36313 0.68458 0.0
H776 H 0.30649 0.37173 0.72824 0.0
H777 H 0.30438 0.34241 0.71671 0.0
H778 H 0.30916 0.32992 0.78442 0.0
H779 H 0.33357 0.33482 0.8227 0.0
H780 H 0.20837 0.623 0.28239 0.0
H781 H 0.23381 0.62996 0.25029 0.0
H782 H 0.24222 0.68647 0.32688 0.0
H783 H 0.21654 0.67942 0.35963 0.0
H784 H 0.24441 0.67227 0.21276 0.0
H785 H 0.28279 0.64431 0.33674 0.0
H786 H 0.2622 0.63587 0.33277 0.0
H787 H 0.2671 0.66411 0.34668 0.0
C788 C 0.21564 0.63683 0.2927 0.0
C789 C 0.21051 0.6505 0.32396 0.0
C790 C 0.23016 0.64087 0.27412 0.0
C791 C 0.24001 0.65855 0.28646 0.0
C792 C 0.23487 0.67256 0.31719 0.0
H793 H 0.33697 0.68298 0.19607 0.0
H794 H 0.31265 0.68544 0.23556 0.0
C795 C 0.22018 0.66864 0.33567 0.0
C796 C 0.25557 0.66201 0.26663 0.0
H797 H 0.29554 0.65342 0.27747 0.0
C798 C 0.25561 0.6684 0.22703 0.0
C799 C 0.27018 0.65707 0.28532 0.0
C800 C 0.27072 0.64984 0.32768 0.0
C801 C 0.26981 0.66949 0.20535 0.0
C802 C 0.28436 0.66343 0.22344 0.0
C803 C 0.2844 0.65792 0.26352 0.0
C804 C 0.29941 0.66148 0.20057 0.0
C805 C 0.26905 0.67706 0.16317 0.0
C806 C 0.30026 0.64671 0.16848 0.0
C807 C 0.31411 0.64524 0.14596 0.0
C808 C 0.32756 0.65836 0.1551 0.0
C809 C 0.3269 0.67257 0.18817 0.0
C810 C 0.31296 0.67408 0.21071 0.0
H811 H 0.25844 0.68772 0.1577 0.0
H812 H 0.27986 0.68668 0.15486 0.0
H813 H 0.26815 0.6621 0.14382 0.0
H814 H 0.29016 0.63629 0.16075 0.0
H815 H 0.31428 0.63372 0.12137 0.0
H816 H 0.94788 0.13481 0.13715 0.0
H817 H 0.97647 0.12585 0.13441 0.0
H818 H 0.98612 0.19196 0.08852 0.0
H819 H 0.95783 0.20082 0.09076 0.0
H820 H 1.00195 0.15481 0.04836 0.0
H821 H 1.01052 0.15415 0.21056 0.0
H822 H 0.99482 0.13723 0.1899 0.0
H823 H 0.99345 0.16728 0.18808 0.0
C824 C 0.95612 0.14729 0.12614 0.0
C825 C 0.95061 0.16861 0.11458 0.0
C826 C 0.97243 0.14224 0.12487 0.0
C827 C 0.98344 0.15836 0.1117 0.0
C828 C 0.97787 0.17932 0.09901 0.0
H829 H 0.07818 0.19839 0.08111 0.0
H830 H 0.04985 0.19 0.07957 0.0
C831 C 0.96168 0.18441 0.10055 0.0
C832 C 1.00085 0.15398 0.11141 0.0
H833 H 0.03343 0.15236 0.17142 0.0
C834 C 1.00882 0.15387 0.07525 0.0
C835 C 1.00981 0.15261 0.1465 0.0
C836 C 1.00182 0.1529 0.1861 0.0
C837 C 0.02551 0.1534 0.07326 0.0
C838 C 0.03451 0.15356 0.10838 0.0
C839 C 0.02654 0.15232 0.14452 0.0
C840 C 0.05198 0.15772 0.10822 0.0
C841 C 0.03336 0.15328 0.03348 0.0
C842 C 0.0627 0.14254 0.12548 0.0
C843 C 0.07906 0.14741 0.12664 0.0
C844 C 0.08491 0.16774 0.11119 0.0
C845 C 0.0741 0.18273 0.09372 0.0
C846 C 0.05787 0.17782 0.09238 0.0
H847 H 0.02549 0.14556 0.01096 0.0
H848 H 0.0358 0.17085 0.02438 0.0
H849 H 0.04479 0.14397 0.0341 0.0
H850 H 0.05841 0.127 0.13821 0.0
H851 H 0.08706 0.13563 0.14057 0.0
H852 H 0.58179 0.83363 0.66812 0.0
H853 H 0.55346 0.84209 0.66626 0.0
H854 H 0.56208 0.89434 0.58135 0.0
H855 H 0.59067 0.88548 0.5824 0.0
H856 H 0.53667 0.88167 0.68208 0.0
H857 H 0.52862 0.85445 0.52689 0.0
H858 H 0.54634 0.84791 0.55449 0.0
H859 H 0.54331 0.87583 0.5361 0.0
C860 C 0.57771 0.84687 0.64888 0.0
C861 C 0.5885 0.85864 0.62494 0.0
C862 C 0.56148 0.85181 0.64807 0.0
C863 C 0.55556 0.8686 0.62322 0.0
C864 C 0.56633 0.88103 0.60027 0.0
H865 H 0.45207 0.88526 0.58144 0.0
H866 H 0.4807 0.89416 0.58152 0.0
C867 C 0.58268 0.87612 0.60117 0.0
C868 C 0.53805 0.87231 0.62114 0.0
H869 H 0.50564 0.86394 0.56212 0.0
C870 C 0.52991 0.87811 0.65568 0.0
C871 C 0.52918 0.86778 0.58665 0.0
C872 C 0.53722 0.861 0.5489 0.0
C873 C 0.5132 0.87865 0.65707 0.0
C874 C 0.50433 0.87291 0.6232 0.0
C875 C 0.51244 0.86832 0.58808 0.0
C876 C 0.48682 0.86904 0.6248 0.0
C877 C 0.50519 0.88494 0.6951 0.0
C878 C 0.48075 0.85202 0.64901 0.0
C879 C 0.46453 0.84692 0.64889 0.0
C880 C 0.45392 0.85865 0.62446 0.0
C881 C 0.45992 0.87608 0.6008 0.0
C882 C 0.47627 0.88108 0.6007 0.0
H883 H 0.51301 0.8957 0.71355 0.0
H884 H 0.49384 0.89395 0.68975 0.0
H885 H 0.50253 0.86942 0.7119 0.0
H886 H 0.48864 0.84222 0.66736 0.0
H887 H 0.4603 0.83356 0.66772 0.0
H888 H 0.96028 0.82999 0.84346 0.0
H889 H 0.98852 0.83948 0.84166 0.0
H890 H 0.97981 0.89728 0.91494 0.0
H891 H 0.95132 0.88763 0.9172 0.0
H892 H 1.00419 0.8807 0.81699 0.0
H893 H 1.01453 0.86 0.9744 0.0
H894 H 0.99702 0.85047 0.9485 0.0
H895 H 0.99884 0.87942 0.96258 0.0
C896 C 0.96434 0.84472 0.85927 0.0
C897 C 0.95358 0.8579 0.88089 0.0
C898 C 0.98049 0.85021 0.858 0.0
C899 C 0.98633 0.86892 0.87854 0.0
C900 C 0.97559 0.8826 0.89924 0.0
H901 H 0.09023 0.88587 0.91198 0.0
H902 H 0.06175 0.89558 0.91318 0.0
C903 C 0.95931 0.87719 0.90027 0.0
C904 C 1.00376 0.8733 0.87877 0.0
H905 H 0.03698 0.86723 0.93566 0.0
C906 C 1.01135 0.87814 0.84309 0.0
C907 C 1.0131 0.87012 0.91287 0.0
C908 C 1.00557 0.86461 0.95184 0.0
C909 C 0.02802 0.87895 0.84024 0.0
C910 C 0.0374 0.87428 0.87376 0.0
C911 C 0.0298 0.87076 0.90995 0.0
C912 C 0.05484 0.87019 0.87089 0.0
C913 C 0.03543 0.88432 0.80107 0.0
C914 C 0.06043 0.85279 0.84676 0.0
C915 C 0.07656 0.84728 0.8461 0.0
C916 C 0.08755 0.85891 0.86974 0.0
C917 C 0.08207 0.87676 0.89321 0.0
C918 C 0.06581 0.88222 0.89405 0.0
H919 H 0.02743 0.89499 0.78304 0.0
H920 H 0.04701 0.89309 0.80463 0.0
H921 H 0.03747 0.86845 0.7847 0.0
H922 H 0.05223 0.84295 0.82922 0.0
H923 H 0.0804 0.8336 0.82743 0.0
H924 H 0.58747 0.13775 0.36401 0.0
H925 H 0.55891 0.12857 0.36556 0.0
H926 H 0.54932 0.19225 0.4212 0.0
H927 H 0.57758 0.20119 0.42057 0.0
H928 H 0.53309 0.15577 0.45562 0.0
H929 H 0.52516 0.15764 0.29331 0.0
H930 H 0.54018 0.13925 0.31273 0.0
H931 H 0.54261 0.16913 0.31687 0.0
C932 C 0.57926 0.14965 0.37689 0.0
C933 C 0.58481 0.17034 0.39169 0.0
C934 C 0.56294 0.14449 0.37744 0.0
C935 C 0.55193 0.15989 0.39296 0.0
C936 C 0.55755 0.18016 0.40884 0.0
H937 H 0.45758 0.20124 0.41883 0.0
H938 H 0.48585 0.19239 0.42125 0.0
C939 C 0.57374 0.18534 0.40816 0.0
C940 C 0.53449 0.15552 0.39255 0.0
H941 H 0.50212 0.15449 0.33172 0.0
C942 C 0.52634 0.1551 0.4285 0.0
C943 C 0.52566 0.15452 0.35718 0.0
C944 C 0.53375 0.15527 0.31773 0.0
C945 C 0.50965 0.15476 0.43004 0.0
C946 C 0.50081 0.15518 0.39473 0.0
C947 C 0.50892 0.1542 0.35876 0.0
C948 C 0.48339 0.15955 0.39461 0.0
C949 C 0.50158 0.15461 0.46956 0.0
C950 C 0.47252 0.1441 0.37844 0.0
C951 C 0.4562 0.14917 0.37701 0.0
C952 C 0.45058 0.16996 0.391 0.0
C953 C 0.46153 0.18521 0.40741 0.0
C954 C 0.4777 0.18007 0.40917 0.0
H955 H 0.50941 0.14729 0.49249 0.0
H956 H 0.4988 0.17215 0.47828 0.0
H957 H 0.49028 0.14493 0.46858 0.0
H958 H 0.47668 0.12822 0.36676 0.0
H959 H 0.44807 0.13719 0.36395 0.0
H960 H 0.45092 0.64049 0.13584 0.0
H961 H 0.47968 0.63274 0.14003 0.0
H962 H 0.48953 0.69493 0.08009 0.0
H963 H 0.46112 0.70255 0.07526 0.0
H964 H 0.50628 0.63685 0.06903 0.0
H965 H 0.51131 0.69384 0.19792 0.0
H966 H 0.49314 0.67907 0.18587 0.0
H967 H 0.49895 0.70333 0.15811 0.0
C968 C 0.45923 0.65226 0.12296 0.0
C969 C 0.45374 0.6723 0.10573 0.0
C970 C 0.47562 0.64785 0.12545 0.0
C971 C 0.48668 0.66339 0.11064 0.0
C972 C 0.48118 0.68283 0.09195 0.0
H973 H 0.58117 0.70678 0.09641 0.0
H974 H 0.55274 0.69907 0.09718 0.0
C975 C 0.46493 0.68722 0.08947 0.0
C976 C 0.50404 0.66051 0.11647 0.0
H977 H 0.53529 0.68435 0.16521 0.0
C978 C 0.51267 0.64679 0.0906 0.0
C979 C 0.51228 0.67357 0.14456 0.0
C980 C 0.5035 0.68822 0.17348 0.0
C981 C 0.52944 0.64682 0.09073 0.0
C982 C 0.53767 0.66083 0.11753 0.0
C983 C 0.52897 0.67365 0.14463 0.0
C984 C 0.55515 0.66445 0.11538 0.0
C985 C 0.53824 0.63292 0.0608 0.0
C986 C 0.56605 0.64745 0.12508 0.0
C987 C 0.58247 0.65188 0.12492 0.0
C988 C 0.58823 0.67343 0.1153 0.0
C989 C 0.57721 0.69016 0.10479 0.0
C990 C 0.56091 0.68574 0.10497 0.0
H991 H 0.53009 0.625 0.03914 0.0
H992 H 0.54699 0.64352 0.04487 0.0
H993 H 0.54493 0.61942 0.07597 0.0
H994 H 0.56185 0.63096 0.13365 0.0
H995 H 0.5906 0.63868 0.13343 0.0
H996 H 0.08003 0.31667 0.58169 0.0
H997 H 0.05157 0.32413 0.58406 0.0
H998 H 0.06061 0.38867 0.63721 0.0
H999 H 0.08931 0.38116 0.63564 0.0
H1000 H 0.03443 0.33392 0.65693 0.0
H1001 H 0.02845 0.4012 0.5443 0.0
H1002 H 0.04515 0.38212 0.54475 0.0
H1003 H 0.0438 0.40393 0.58092 0.0
C1004 C 0.07606 0.33245 0.59404 0.0
C1005 C 0.08705 0.34819 0.60886 0.0
C1006 C 0.05974 0.33675 0.59511 0.0
C1007 C 0.05396 0.35697 0.61065 0.0
C1008 C 0.06483 0.37305 0.62464 0.0
H1009 H 0.95061 0.38513 0.63576 0.0
H1010 H 0.97966 0.3912 0.63716 0.0
C1011 C 0.08124 0.36872 0.62368 0.0
C1012 C 0.03649 0.36027 0.61404 0.0
H1013 H 1.00482 0.3876 0.573 0.0
C1014 C 0.02798 0.34587 0.63895 0.0
C1015 C 0.0281 0.37599 0.59083 0.0
C1016 C 0.03674 0.3917 0.56348 0.0
C1017 C 1.0113 0.34618 0.64024 0.0
C1018 C 1.00285 0.36101 0.61544 0.0
C1019 C 1.01133 0.37622 0.59189 0.0
C1020 C 0.98532 0.35905 0.61095 0.0
C1021 C 1.00282 0.3302 0.66749 0.0
C1022 C 0.97892 0.33941 0.59452 0.0
C1023 C 0.96252 0.33596 0.59369 0.0
C1024 C 0.95205 0.35211 0.60918 0.0
C1025 C 0.95839 0.37241 0.62363 0.0
C1026 C 0.97494 0.37585 0.62455 0.0
H1027 H 1.01069 0.32451 0.6917 0.0
H1028 H 0.99207 0.33816 0.68033 0.0
H1029 H 0.99897 0.31514 0.65071 0.0
H1030 H 0.98669 0.3264 0.58322 0.0
H1031 H 0.95802 0.32039 0.58153 0.0
H1032 H 0.45895 0.32449 0.84369 0.0
H1033 H 0.48749 0.33165 0.84339 0.0
H1034 H 0.4804 0.39109 0.91373 0.0
H1035 H 0.45162 0.3836 0.91503 0.0
H1036 H 0.50519 0.36845 0.81741 0.0
H1037 H 0.5129 0.35496 0.97793 0.0
H1038 H 0.49495 0.34698 0.95237 0.0
H1039 H 0.49875 0.37601 0.96346 0.0
C1040 C 0.46342 0.33904 0.85932 0.0
C1041 C 0.453 0.35327 0.87993 0.0
C1042 C 0.47976 0.34321 0.85885 0.0
C1043 C 0.48615 0.36169 0.87906 0.0
C1044 C 0.47577 0.37649 0.89851 0.0
H1045 H 0.58931 0.38214 0.91573 0.0
H1046 H 0.56059 0.38967 0.91379 0.0
C1047 C 0.45932 0.37233 0.89891 0.0
C1048 C 0.50372 0.36476 0.88013 0.0
H1049 H 0.53601 0.36106 0.94083 0.0
C1050 C 0.51192 0.36711 0.84447 0.0
C1051 C 0.51253 0.36309 0.91544 0.0
C1052 C 0.50441 0.35997 0.95453 0.0
C1053 C 0.52862 0.36714 0.84302 0.0
C1054 C 0.53741 0.36439 0.87809 0.0
C1055 C 0.52926 0.36312 0.91397 0.0
C1056 C 0.55492 0.36076 0.87779 0.0
C1057 C 0.53672 0.36981 0.80382 0.0
C1058 C 0.56127 0.34198 0.85841 0.0
C1059 C 0.57759 0.33766 0.85952 0.0
C1060 C 0.588 0.35196 0.88016 0.0
C1061 C 0.58165 0.37093 0.89925 0.0
C1062 C 0.56524 0.37519 0.89833 0.0
H1063 H 0.52894 0.3786 0.78243 0.0
H1064 H 0.54804 0.37932 0.80672 0.0
H1065 H 0.53946 0.35293 0.7917 0.0
H1066 H 0.55354 0.33039 0.84295 0.0
H1067 H 0.58206 0.32305 0.84415 0.0
H1068 H 0.95008 0.63561 0.36708 0.0
H1069 H 0.97886 0.62781 0.36995 0.0
H1070 H 0.98636 0.69049 0.43095 0.0
H1071 H 0.95791 0.69815 0.42845 0.0
H1072 H 1.00335 0.65605 0.33756 0.0
H1073 H 1.01142 0.64507 0.49745 0.0
H1074 H 0.99225 0.64263 0.47382 0.0
H1075 H 1.00032 0.66987 0.48546 0.0
C1076 C 0.95789 0.64746 0.38168 0.0
C1077 C 0.95176 0.66754 0.39738 0.0
C1078 C 0.9743 0.64307 0.38314 0.0
C1079 C 0.98475 0.65847 0.40105 0.0
C1080 C 0.97854 0.67819 0.41754 0.0
H1081 H 0.08019 0.69937 0.4294 0.0
H1082 H 0.0517 0.69167 0.42993 0.0
C1083 C 0.96227 0.68266 0.41576 0.0
C1084 C 1.00228 0.65505 0.40059 0.0
H1085 H 0.0348 0.65513 0.46074 0.0
C1086 C 1.01026 0.65534 0.36442 0.0
C1087 C 1.01127 0.65415 0.43566 0.0
C1088 C 1.00337 0.65269 0.47529 0.0
C1089 C 0.02698 0.65625 0.36248 0.0
C1090 C 0.03594 0.65651 0.39769 0.0
C1091 C 0.02795 0.65506 0.43376 0.0
C1092 C 0.05345 0.66035 0.39794 0.0
C1093 C 0.03487 0.65826 0.3229 0.0
C1094 C 0.06403 0.64512 0.38029 0.0
C1095 C 0.08043 0.64958 0.37972 0.0
C1096 C 0.08656 0.66936 0.39681 0.0
C1097 C 0.07592 0.68422 0.41529 0.0
C1098 C 0.0596 0.67974 0.4159 0.0
H1099 H 0.02618 0.66199 0.29922 0.0
H1100 H 0.04404 0.67172 0.3233 0.0
H1101 H 0.04086 0.64219 0.31565 0.0
H1102 H 0.0596 0.62985 0.3668 0.0
H1103 H 0.08823 0.6378 0.36514 0.0
H1104 H 0.14715 0.08848 0.1032 0.0
H1105 H 0.14494 0.04889 0.0826 0.0
H1106 H 0.13059 0.07011 0.96699 0.0
H1107 H 0.13322 0.10935 0.98695 0.0
H1108 H 0.12133 0.02137 0.05035 0.0
H1109 H 0.17016 0.03396 0.94326 0.0
H1110 H 0.16531 0.05457 0.98019 0.0
H1111 H 0.15372 0.05266 0.9359 0.0
C1112 C 0.14324 0.08462 0.07366 0.0
C1113 C 0.14055 0.10198 0.04654 0.0
C1114 C 0.14205 0.06202 0.06183 0.0
C1115 C 0.13805 0.05651 0.02285 0.0
C1116 C 0.13417 0.07389 0.99681 0.0
H1117 H 0.13907 0.92919 0.89049 0.0
H1118 H 0.13331 0.96808 0.91092 0.0
C1119 C 0.13557 0.09634 0.00837 0.0
C1120 C 0.13873 0.03283 0.00859 0.0
H1121 H 0.15685 0.99892 0.94091 0.0
C1122 C 0.1291 0.01647 0.02645 0.0
C1123 C 0.14888 0.02636 0.97734 0.0
C1124 C 0.16022 0.04274 0.95828 0.0
C1125 C 0.12927 0.99393 0.01372 0.0
C1126 C 0.13943 0.98753 0.98255 0.0
C1127 C 0.14891 1.0039 0.96444 0.0
C1128 C 0.14153 0.96364 0.9706 0.0
C1129 C 0.11853 0.97715 0.03364 0.0
C1130 C 0.14808 0.9483 0.99722 0.0
C1131 C 0.15148 0.92633 0.9856 0.0
C1132 C 0.14843 0.91904 0.94698 0.0
C1133 C 0.14152 0.93424 0.92044 0.0
C1134 C 0.13824 0.95644 0.93208 0.0
H1135 H 0.10846 0.98554 0.04881 0.0
H1136 H 0.11369 0.96483 0.01221 0.0
H1137 H 0.12546 0.96777 0.05595 0.0
H1138 H 0.15101 0.95353 0.02682 0.0
H1139 H 0.15675 0.91511 0.00695 0.0
H1140 H 0.3955 0.93384 0.60348 0.0
H1141 H 0.39862 0.97336 0.58353 0.0
H1142 H 0.40019 0.95288 0.46218 0.0
H1143 H 0.39655 0.91379 0.48172 0.0
H1144 H 0.42051 0.99799 0.5406 0.0
H1145 H 0.36279 0.99522 0.46195 0.0
H1146 H 0.36917 0.97303 0.49428 0.0
H1147 H 0.37659 0.97447 0.44482 0.0
C1148 C 0.39673 0.93781 0.57263 0.0
C1149 C 0.39552 0.92079 0.54413 0.0
C1150 C 0.39847 0.96037 0.56123 0.0
C1151 C 0.39917 0.96617 0.52124 0.0
C1152 C 0.39915 0.94895 0.49309 0.0
H1153 H 0.39649 0.09522 0.39637 0.0
H1154 H 0.40153 0.05557 0.41272 0.0
C1155 C 0.39717 0.92657 0.50435 0.0
C1156 C 0.39912 0.99013 0.50861 0.0
H1157 H 0.37834 0.02803 0.45338 0.0
C1158 C 0.41129 1.00455 0.52157 0.0
C1159 C 0.38705 0.99877 0.48378 0.0
C1160 C 0.37307 0.98465 0.4707 0.0
C1161 C 0.41177 0.02728 0.5101 0.0
C1162 C 0.39974 0.03581 0.48521 0.0
C1163 C 0.38768 0.02137 0.47198 0.0
C1164 C 0.39856 0.06008 0.47531 0.0
C1165 C 0.42518 0.04198 0.52456 0.0
C1166 C 0.39528 0.07571 0.505 0.0
C1167 C 0.39226 0.09815 0.49574 0.0
C1168 C 0.39247 0.10556 0.45654 0.0
C1169 C 0.3963 0.09006 0.42683 0.0
C1170 C 0.39916 0.06743 0.43613 0.0
H1171 H 0.43552 0.03187 0.53444 0.0
H1172 H 0.42915 0.05377 0.50129 0.0
H1173 H 0.42096 0.0521 0.54986 0.0
H1174 H 0.39448 0.07038 0.53531 0.0
H1175 H 0.38941 0.10963 0.51941 0.0
H1176 H 0.89687 0.93176 0.89532 0.0
H1177 H 0.90066 0.97174 0.91161 0.0
H1178 H 0.89765 0.95601 0.03478 0.0
H1179 H 0.89375 0.91639 0.0189 0.0
H1180 H 0.87662 0.99598 0.95862 0.0
H1181 H 0.9368 0.99943 0.0257 0.0
H1182 H 0.93077 0.97739 0.99225 0.0
H1183 H 0.92416 0.97697 0.04231 0.0
C1184 C 0.89736 0.9368 0.92584 0.0
C1185 C 0.89492 0.92095 0.9558 0.0
C1186 C 0.89949 0.95961 0.93511 0.0
C1187 C 0.89958 0.96679 0.97444 0.0
C1188 C 0.89786 0.95082 0.00431 0.0
H1189 H 0.89481 0.09272 0.10411 0.0
H1190 H 0.89914 0.05357 0.08328 0.0
C1191 C 0.89551 0.92818 0.99511 0.0
C1192 C 0.89967 0.99107 0.98452 0.0
H1193 H 0.92031 0.0315 0.03472 0.0
C1194 C 0.88626 1.00386 0.97479 0.0
C1195 C 0.91212 1.00113 0.00633 0.0
C1196 C 0.92686 0.98812 0.0171 0.0
C1197 C 0.88475 0.02629 0.98705 0.0
C1198 C 0.89725 0.03651 0.00861 0.0
C1199 C 0.91075 0.02373 0.01814 0.0
C1200 C 0.89642 0.06045 0.02127 0.0
C1201 C 0.86945 0.03852 0.97801 0.0
C1202 C 0.89412 0.07743 0.99336 0.0
C1203 C 0.89143 0.09957 0.00517 0.0
C1204 C 0.89135 0.10538 0.04518 0.0
C1205 C 0.89476 0.08871 0.0731 0.0
C1206 C 0.89722 0.06636 0.06122 0.0
H1207 H 0.85952 0.02663 0.97214 0.0
H1208 H 0.86595 0.04974 0.00258 0.0
H1209 H 0.87112 0.04894 0.95135 0.0
H1210 H 0.89396 0.07345 0.96234 0.0
H1211 H 0.88912 0.11211 0.98287 0.0
H1212 H 0.64432 0.09391 0.39515 0.0
H1213 H 0.6415 0.05373 0.4109 0.0
H1214 H 0.63595 0.07029 0.53328 0.0
H1215 H 0.63877 0.11011 0.51794 0.0
H1216 H 0.66291 0.03138 0.46417 0.0
H1217 H 0.60029 0.02361 0.51364 0.0
H1218 H 0.60717 0.0466 0.48344 0.0
H1219 H 0.61112 0.04658 0.53525 0.0
C1220 C 0.64214 0.08898 0.42524 0.0
C1221 C 0.64183 0.10518 0.45529 0.0
C1222 C 0.64058 0.06604 0.43423 0.0
C1223 C 0.63836 0.05902 0.47325 0.0
C1224 C 0.63738 0.07528 0.50294 0.0
H1225 H 0.64252 0.93249 0.60291 0.0
H1226 H 0.63819 0.97176 0.58272 0.0
C1227 C 0.63912 0.09807 0.49409 0.0
C1228 C 0.63874 0.03479 0.48385 0.0
H1229 H 0.61752 0.99302 0.52881 0.0
C1230 C 0.65292 0.02291 0.47786 0.0
C1231 C 0.62579 0.02389 0.50239 0.0
C1232 C 0.61017 0.03573 0.50884 0.0
C1233 C 0.65465 1.0006 0.49057 0.0
C1234 C 0.64168 0.98958 0.5089 0.0
C1235 C 0.62745 1.00144 0.51482 0.0
C1236 C 0.64269 0.96559 0.5211 0.0
C1237 C 0.67056 0.98927 0.48528 0.0
C1238 C 0.64603 0.94899 0.49309 0.0
C1239 C 0.64862 0.92679 0.50453 0.0
C1240 C 0.64769 0.9205 0.54425 0.0
C1241 C 0.64337 0.93683 0.57214 0.0
C1242 C 0.64092 0.95925 0.56062 0.0
H1243 H 0.68031 1.00172 0.48163 0.0
H1244 H 0.67343 0.97834 0.5107 0.0
H1245 H 0.67021 0.97865 0.4585 0.0
H1246 H 0.64701 0.95331 0.46233 0.0
H1247 H 0.65164 0.91458 0.48214 0.0
H1248 H 0.64462 0.59285 0.10695 0.0
H1249 H 0.63997 0.55333 0.08867 0.0
H1250 H 0.63738 0.57238 0.96681 0.0
H1251 H 0.64263 0.61143 0.98468 0.0
H1252 H 0.61714 0.52907 0.04873 0.0
H1253 H 0.67365 0.52839 0.96512 0.0
H1254 H 0.6682 0.5513 0.99703 0.0
H1255 H 0.66012 0.54952 0.94817 0.0
C1256 C 0.64283 0.58857 0.07636 0.0
C1257 C 0.64425 0.60511 0.04717 0.0
C1258 C 0.6402 0.56602 0.06592 0.0
C1259 C 0.6388 0.55978 0.02622 0.0
C1260 C 0.63895 0.57663 0.99747 0.0
H1261 H 0.63642 0.4313 0.9016 0.0
H1262 H 0.63166 0.47066 0.92005 0.0
C1263 C 0.64186 0.59898 0.00777 0.0
C1264 C 0.63813 0.53568 0.01441 0.0
H1265 H 0.65709 0.4964 0.95808 0.0
C1266 C 0.62589 0.52192 0.02897 0.0
C1267 C 0.64961 0.52625 0.98878 0.0
C1268 C 0.66372 0.53956 0.97418 0.0
C1269 C 0.62471 0.49912 0.01812 0.0
C1270 C 0.63607 0.48989 0.99212 0.0
C1271 C 0.64824 0.50363 0.97751 0.0
C1272 C 0.63639 0.46563 0.98182 0.0
C1273 C 0.61132 0.48505 0.03431 0.0
C1274 C 0.6404 0.44975 0.01048 0.0
C1275 C 0.64327 0.4274 0.99999 0.0
C1276 C 0.64213 0.42044 0.96062 0.0
C1277 C 0.6373 0.43611 0.93219 0.0
C1278 C 0.63461 0.45859 0.94267 0.0
H1279 H 0.60162 0.49561 0.04649 0.0
H1280 H 0.60632 0.47389 0.01122 0.0
H1281 H 0.61596 0.47425 0.05822 0.0
H1282 H 0.64208 0.45485 0.04072 0.0
H1283 H 0.64694 0.41573 0.0226 0.0
H1284 H 0.87063 0.4244 0.5095 0.0
H1285 H 0.87718 0.46256 0.4907 0.0
H1286 H 0.91841 0.46117 0.56601 0.0
H1287 H 0.91156 0.42257 0.58616 0.0
H1288 H 0.90321 0.50002 0.57354 0.0
H1289 H 0.9099 0.48443 0.41539 0.0
H1290 H 0.89097 0.47398 0.43106 0.0
H1291 H 0.90896 0.46178 0.4505 0.0
C1292 C 0.8812 0.43201 0.52199 0.0
C1293 C 0.89066 0.42026 0.54912 0.0
C1294 C 0.88502 0.45389 0.51083 0.0
C1295 C 0.89859 0.46461 0.52581 0.0
C1296 C 0.90799 0.45315 0.55353 0.0
H1297 H 0.91065 0.59905 0.41765 0.0
H1298 H 0.91759 0.56063 0.43825 0.0
C1299 C 0.90406 0.43113 0.56512 0.0
C1300 C 0.90212 0.48821 0.51382 0.0
H1301 H 0.90184 0.52252 0.43347 0.0
C1302 C 0.90326 0.50488 0.54288 0.0
C1303 C 0.90272 0.49472 0.47384 0.0
C1304 C 0.90327 0.4777 0.44101 0.0
C1305 C 0.9036 0.52784 0.53309 0.0
C1306 C 0.90223 0.53437 0.49323 0.0
C1307 C 0.90249 0.51768 0.46409 0.0
C1308 C 0.89883 0.55806 0.48155 0.0
C1309 C 0.90513 0.54483 0.56578 0.0
C1310 C 0.88583 0.56927 0.4983 0.0
C1311 C 0.88196 0.59108 0.48687 0.0
C1312 C 0.89078 0.60225 0.45772 0.0
C1313 C 0.90365 0.59095 0.44025 0.0
C1314 C 0.90764 0.56902 0.45208 0.0
H1315 H 0.91228 0.53795 0.59042 0.0
H1316 H 0.91079 0.56064 0.55552 0.0
H1317 H 0.89314 0.54878 0.57744 0.0
H1318 H 0.87842 0.56099 0.51988 0.0
H1319 H 0.87182 0.59905 0.50063 0.0
H1320 H 0.39729 0.41691 0.02108 0.0
H1321 H 0.40037 0.45683 0.03535 0.0
H1322 H 0.40234 0.47115 0.91151 0.0
H1323 H 0.39905 0.43093 0.8968 0.0
H1324 H 0.42349 0.48932 0.01594 0.0
H1325 H 0.36449 0.50889 0.95076 0.0
H1326 H 0.37072 0.48051 0.96124 0.0
H1327 H 0.37822 0.49482 0.91872 0.0
C1328 C 0.39851 0.42846 0.99673 0.0
C1329 C 0.39771 0.42071 0.95772 0.0
C1330 C 0.40033 0.45132 0.00503 0.0
C1331 C 0.40132 0.46705 0.97457 0.0
C1332 C 0.40133 0.45933 0.93551 0.0
H1333 H 0.3953 0.61229 0.97538 0.0
H1334 H 0.39939 0.57294 0.9587 0.0
C1335 C 0.39956 0.43633 0.92713 0.0
C1336 C 0.40143 0.49148 0.98411 0.0
H1337 H 0.3792 0.53926 0.9761 0.0
C1338 C 0.41386 0.5003 0.00709 0.0
C1339 C 0.38876 0.50574 0.97293 0.0
C1340 C 0.3747 0.49707 0.94984 0.0
C1341 C 0.41408 0.52304 0.01867 0.0
C1342 C 0.40136 0.53726 0.00763 0.0
C1343 C 0.38897 0.52841 0.98456 0.0
C1344 C 0.40064 0.56148 0.0188 0.0
C1345 C 0.42805 0.53172 0.04201 0.0
C1346 C 0.40025 0.56838 0.05833 0.0
C1347 C 0.398 0.59113 0.0681 0.0
C1348 C 0.39588 0.60727 0.03846 0.0
C1349 C 0.39675 0.60032 0.99903 0.0
C1350 C 0.3991 0.57777 0.98936 0.0
H1351 H 0.43858 0.52059 0.03905 0.0
H1352 H 0.43141 0.54894 0.03257 0.0
H1353 H 0.42476 0.53239 0.07351 0.0
H1354 H 0.4011 0.5561 0.08164 0.0
H1355 H 0.39729 0.5959 0.09872 0.0
H1356 H 0.1622 0.6012 0.50113 0.0
H1357 H 0.15735 0.56253 0.52143 0.0
H1358 H 0.12675 0.55247 0.42141 0.0
H1359 H 0.13142 0.5916 0.40089 0.0
H1360 H 0.11619 0.53113 0.49627 0.0
H1361 H 0.17859 0.51178 0.45553 0.0
H1362 H 0.1765 0.53517 0.48849 0.0
H1363 H 0.16861 0.537 0.43957 0.0
C1364 C 0.15427 0.59091 0.48358 0.0
C1365 C 0.14738 0.59939 0.44904 0.0
C1366 C 0.15151 0.56879 0.4953 0.0
C1367 C 0.14191 0.55452 0.47261 0.0
C1368 C 0.13424 0.56321 0.43928 0.0
H1369 H 0.15399 0.41041 0.48434 0.0
H1370 H 0.14917 0.44873 0.46213 0.0
C1371 C 0.13693 0.58554 0.42758 0.0
C1372 C 0.14113 0.5302 0.48222 0.0
H1373 H 0.16468 0.48383 0.49107 0.0
C1374 C 0.12673 0.52067 0.49489 0.0
C1375 C 0.15486 0.51656 0.47998 0.0
C1376 C 0.1705 0.52554 0.46483 0.0
C1377 C 0.12583 0.49793 0.5063 0.0
C1378 C 0.13974 0.48453 0.50544 0.0
C1379 C 0.15401 0.49406 0.49198 0.0
C1380 C 0.14 0.46051 0.51777 0.0
C1381 C 0.10999 0.48841 0.51871 0.0
C1382 C 0.13603 0.45407 0.55626 0.0
C1383 C 0.13863 0.43193 0.56898 0.0
C1384 C 0.1455 0.41603 0.54359 0.0
C1385 C 0.1488 0.42231 0.50471 0.0
C1386 C 0.14604 0.44424 0.49194 0.0
H1387 H 0.09994 0.49864 0.50738 0.0
H1388 H 0.10853 0.47083 0.50827 0.0
H1389 H 0.10929 0.4884 0.55121 0.0
H1390 H 0.13167 0.46638 0.57703 0.0
H1391 H 0.13608 0.42762 0.59919 0.0
H1392 H 0.12282 0.34078 0.72959 0.0
H1393 H 0.12331 0.32545 0.79596 0.0
H1394 H 0.17138 0.34949 0.81072 0.0
H1395 H 0.17091 0.36449 0.74385 0.0
H1396 H 0.16934 0.30447 0.81423 0.0
H1397 H 0.12346 0.3404 0.91193 0.0
H1398 H 0.11557 0.33325 0.86462 0.0
H1399 H 0.1305 0.35485 0.86868 0.0
C1400 C 0.13308 0.34407 0.748 0.0
C1401 C 0.14671 0.35417 0.73212 0.0
C1402 C 0.1334 0.3352 0.78594 0.0
C1403 C 0.14738 0.33633 0.80847 0.0
C1404 C 0.16044 0.34855 0.794 0.0
H1405 H 0.15942 0.25618 0.02257 0.0
H1406 H 0.1587 0.28763 0.97632 0.0
C1407 C 0.16011 0.35737 0.75599 0.0
C1408 C 0.14947 0.32083 0.84218 0.0
H1409 H 0.1321 0.30254 0.92693 0.0
C1410 C 0.16137 0.30436 0.83925 0.0
C1411 C 0.13907 0.32058 0.87478 0.0
C1412 C 0.12653 0.33837 0.88043 0.0
C1413 C 0.16273 0.28714 0.86705 0.0
C1414 C 0.15178 0.28616 0.8984 0.0
C1415 C 0.14034 0.30317 0.90249 0.0
C1416 C 0.15188 0.26722 0.92654 0.0
C1417 C 0.17574 0.26989 0.86235 0.0
C1418 C 0.14815 0.24537 0.91385 0.0
C1419 C 0.1486 0.22735 0.94012 0.0
C1420 C 0.15284 0.23086 0.97955 0.0
C1421 C 0.15641 0.25285 0.99221 0.0
C1422 C 0.15586 0.27087 0.96596 0.0
H1423 H 0.18534 0.27595 0.84263 0.0
H1424 H 0.18102 0.26551 0.8912 0.0
H1425 H 0.17063 0.25435 0.84939 0.0
H1426 H 0.14489 0.24227 0.88356 0.0
H1427 H 0.1458 0.21064 0.92948 0.0
H1428 H 0.38929 0.76498 0.51955 0.0
H1429 H 0.39047 0.73458 0.47149 0.0
H1430 H 0.39858 0.78288 0.37941 0.0
H1431 H 0.39675 0.81355 0.42714 0.0
H1432 H 0.37504 0.75285 0.36162 0.0
H1433 H 0.42849 0.70752 0.41494 0.0
H1434 H 0.41339 0.7118 0.45141 0.0
H1435 H 0.42357 0.73562 0.43086 0.0
C1436 C 0.39125 0.7692 0.48904 0.0
C1437 C 0.39278 0.79177 0.47715 0.0
C1438 C 0.39216 0.75173 0.46169 0.0
C1439 C 0.39483 0.75642 0.42195 0.0
C1440 C 0.39661 0.77888 0.41002 0.0
H1441 H 0.41824 0.68494 0.21737 0.0
H1442 H 0.41916 0.70037 0.28376 0.0
C1443 C 0.39565 0.79639 0.43734 0.0
C1444 C 0.39477 0.7381 0.39236 0.0
H1445 H 0.41394 0.69023 0.36343 0.0
C1446 C 0.38349 0.73909 0.36211 0.0
C1447 C 0.40584 0.72021 0.39309 0.0
C1448 C 0.41861 0.71874 0.42409 0.0
C1449 C 0.38315 0.72299 0.33207 0.0
C1450 C 0.39416 0.70497 0.33282 0.0
C1451 C 0.40532 0.70377 0.3634 0.0
C1452 C 0.39548 0.68922 0.29921 0.0
C1453 C 0.37148 0.72606 0.29879 0.0
C1454 C 0.3824 0.67618 0.28713 0.0
C1455 C 0.3819 0.66727 0.2491 0.0
C1456 C 0.39459 0.67104 0.22323 0.0
C1457 C 0.40846 0.68146 0.23718 0.0
C1458 C 0.40893 0.69045 0.27501 0.0
H1459 H 0.36604 0.74307 0.29892 0.0
H1460 H 0.37738 0.72344 0.27002 0.0
H1461 H 0.36175 0.71354 0.30157 0.0
H1462 H 0.37199 0.67474 0.30566 0.0
H1463 H 0.37096 0.65969 0.23865 0.0
H1464 H 0.17142 0.78549 0.02613 0.0
H1465 H 0.16793 0.75539 0.07398 0.0
H1466 H 0.11741 0.7677 0.0759 0.0
H1467 H 0.12075 0.7975 0.02694 0.0
H1468 H 0.15547 0.75895 0.14871 0.0
H1469 H 0.11991 0.69929 0.05844 0.0
H1470 H 0.13073 0.72256 0.03731 0.0
H1471 H 0.11217 0.72737 0.06192 0.0
C1472 C 0.15954 0.7817 0.03647 0.0
C1473 C 0.14635 0.79383 0.02257 0.0
C1474 C 0.15757 0.76452 0.06387 0.0
C1475 C 0.14238 0.75901 0.07792 0.0
C1476 C 0.12919 0.77134 0.06478 0.0
H1477 H 0.11877 0.67717 0.27829 0.0
H1478 H 0.11558 0.69667 0.21546 0.0
C1479 C 0.13116 0.7886 0.03728 0.0
C1480 C 0.14064 0.74104 0.10772 0.0
H1481 H 0.12454 0.68908 0.12477 0.0
C1482 C 0.14871 0.74369 0.14343 0.0
C1483 C 0.13176 0.72117 0.10077 0.0
C1484 C 0.12323 0.71723 0.06244 0.0
C1485 C 0.14821 0.72703 0.17236 0.0
C1486 C 0.13957 0.707 0.16523 0.0
C1487 C 0.13124 0.70441 0.12988 0.0
C1488 C 0.13927 0.68893 0.19498 0.0
C1489 C 0.15694 0.73095 0.21052 0.0
C1490 C 0.15322 0.67683 0.2028 0.0
C1491 C 0.15502 0.66566 0.23854 0.0
C1492 C 0.14282 0.66627 0.26654 0.0
C1493 C 0.12815 0.67597 0.25662 0.0
C1494 C 0.12638 0.68728 0.22091 0.0
H1495 H 0.16066 0.74877 0.21409 0.0
H1496 H 0.14937 0.72618 0.23587 0.0
H1497 H 0.16776 0.72031 0.21125 0.0
H1498 H 0.16331 0.67802 0.18315 0.0
H1499 H 0.16656 0.6588 0.24606 0.0
H1500 H 0.41671 0.35864 0.77703 0.0
H1501 H 0.42089 0.344 0.71053 0.0
H1502 H 0.37012 0.33798 0.69536 0.0
H1503 H 0.36604 0.35267 0.76135 0.0
H1504 H 0.41118 0.30103 0.70085 0.0
H1505 H 0.38373 0.35245 0.58456 0.0
H1506 H 0.389 0.36393 0.63195 0.0
H1507 H 0.37052 0.34903 0.62538 0.0
C1508 C 0.40648 0.35561 0.75839 0.0
C1509 C 0.39106 0.35712 0.77376 0.0
C1510 C 0.40886 0.347 0.72059 0.0
C1511 C 0.39582 0.33993 0.69783 0.0
C1512 C 0.38036 0.34375 0.71184 0.0
H1513 H 0.36602 0.23897 0.5394 0.0
H1514 H 0.36991 0.27046 0.58464 0.0
C1515 C 0.37801 0.35223 0.74958 0.0
C1516 C 0.39814 0.32419 0.66451 0.0
H1517 H 0.38484 0.31217 0.57218 0.0
C1518 C 0.40579 0.30369 0.67231 0.0
C1519 C 0.39097 0.32756 0.62748 0.0
C1520 C 0.38323 0.34955 0.61673 0.0
C1521 C 0.40556 0.28596 0.64513 0.0
C1522 C 0.39771 0.28897 0.60882 0.0
C1523 C 0.39076 0.30985 0.60017 0.0
C1524 C 0.3956 0.27014 0.5807 0.0
C1525 C 0.41284 0.26373 0.65655 0.0
C1526 C 0.40875 0.25951 0.56348 0.0
C1527 C 0.40656 0.24139 0.53783 0.0
C1528 C 0.39116 0.23374 0.52862 0.0
C1529 C 0.37802 0.24453 0.54578 0.0
C1530 C 0.38023 0.26255 0.57155 0.0
H1531 H 0.4154 0.2628 0.68849 0.0
H1532 H 0.40484 0.24957 0.64855 0.0
H1533 H 0.42422 0.26147 0.64058 0.0
H1534 H 0.4207 0.26535 0.56961 0.0
H1535 H 0.4169 0.23373 0.52444 0.0
H1536 H 0.91409 0.67656 0.27733 0.0
H1537 H 0.91466 0.69366 0.21206 0.0
H1538 H 0.86484 0.67857 0.19743 0.0
H1539 H 0.86424 0.66174 0.26285 0.0
H1540 H 0.90298 0.68535 0.12861 0.0
H1541 H 0.86955 0.7486 0.21633 0.0
H1542 H 0.88028 0.72573 0.23876 0.0
H1543 H 0.86142 0.72063 0.2156 0.0
C1544 C 0.90354 0.6756 0.25909 0.0
C1545 C 0.88918 0.66762 0.27473 0.0
C1546 C 0.90383 0.68555 0.22196 0.0
C1547 C 0.88973 0.68767 0.2003 0.0
C1548 C 0.87583 0.67713 0.21383 0.0
H1549 H 0.86183 0.78869 0.03067 0.0
H1550 H 0.86267 0.75729 0.07669 0.0
C1551 C 0.87553 0.66728 0.25102 0.0
C1552 C 0.88879 0.7047 0.16878 0.0
H1553 H 0.87462 0.75739 0.15052 0.0
C1554 C 0.89672 0.70105 0.13316 0.0
C1555 C 0.88076 0.72528 0.17515 0.0
C1556 C 0.87261 0.7305 0.21358 0.0
C1557 C 0.8966 0.71741 0.10337 0.0
C1558 C 0.88862 0.73804 0.10991 0.0
C1559 C 0.88068 0.74156 0.14553 0.0
C1560 C 0.88835 0.7564 0.08051 0.0
C1561 C 0.90479 0.71235 0.06503 0.0
C1562 C 0.9025 0.7666 0.06784 0.0
C1563 C 0.90207 0.78452 0.04133 0.0
C1564 C 0.88744 0.7927 0.02722 0.0
C1565 C 0.87329 0.78264 0.04051 0.0
C1566 C 0.87375 0.76471 0.06689 0.0
H1567 H 0.90642 0.69398 0.06066 0.0
H1568 H 0.89795 0.71917 0.03986 0.0
H1569 H 0.91673 0.72032 0.06507 0.0
H1570 H 0.91389 0.76084 0.07872 0.0
H1571 H 0.9132 0.79171 0.0314 0.0
H1572 H 0.65675 0.26096 0.48207 0.0
H1573 H 0.6563 0.29202 0.52916 0.0
H1574 H 0.644 0.24576 0.62156 0.0
H1575 H 0.64483 0.21445 0.57484 0.0
H1576 H 0.63153 0.30758 0.57974 0.0
H1577 H 0.68448 0.27781 0.66175 0.0
H1578 H 0.6793 0.26721 0.61376 0.0
H1579 H 0.66908 0.25705 0.65655 0.0
C1580 C 0.65412 0.25733 0.5125 0.0
C1581 C 0.65106 0.23515 0.52483 0.0
C1582 C 0.65371 0.27515 0.53926 0.0
C1583 C 0.65031 0.27114 0.57888 0.0
C1584 C 0.64686 0.24914 0.59116 0.0
H1585 H 0.62544 0.34969 0.77644 0.0
H1586 H 0.62456 0.33331 0.71073 0.0
C1587 C 0.64724 0.2313 0.5644 0.0
C1588 C 0.65078 0.28986 0.60762 0.0
H1589 H 0.66948 0.30707 0.69116 0.0
C1590 C 0.63991 0.30764 0.60396 0.0
C1591 C 0.66193 0.29012 0.63865 0.0
C1592 C 0.67447 0.27215 0.64283 0.0
C1593 C 0.63948 0.32524 0.63158 0.0
C1594 C 0.6501 0.32486 0.66378 0.0
C1595 C 0.66133 0.30746 0.66647 0.0
C1596 C 0.64912 0.34099 0.69702 0.0
C1597 C 0.62764 0.34398 0.62608 0.0
C1598 C 0.66297 0.35177 0.71059 0.0
C1599 C 0.66346 0.36104 0.74828 0.0
C1600 C 0.65007 0.3599 0.77267 0.0
C1601 C 0.63574 0.35141 0.75758 0.0
C1602 C 0.63527 0.34193 0.72002 0.0
H1603 H 0.62448 0.34608 0.59464 0.0
H1604 H 0.61657 0.33983 0.64226 0.0
H1605 H 0.63232 0.36018 0.63749 0.0
H1606 H 0.67381 0.35116 0.69347 0.0
H1607 H 0.67475 0.3669 0.7598 0.0
H1608 H 0.91595 0.23258 0.98011 0.0
H1609 H 0.91925 0.26418 0.93477 0.0
H1610 H 0.86829 0.27098 0.92683 0.0
H1611 H 0.86492 0.23961 0.97222 0.0
H1612 H 0.9094 0.26803 0.86015 0.0
H1613 H 0.88136 0.33523 0.94785 0.0
H1614 H 0.887 0.30853 0.96877 0.0
H1615 H 0.86842 0.3114 0.94289 0.0
C1616 C 0.90545 0.24076 0.96852 0.0
C1617 C 0.89016 0.23364 0.97977 0.0
C1618 C 0.90736 0.25894 0.94294 0.0
C1619 C 0.89403 0.27035 0.92825 0.0
C1620 C 0.87876 0.26297 0.93886 0.0
H1621 H 0.86272 0.3412 0.73776 0.0
H1622 H 0.86748 0.32737 0.80413 0.0
C1623 C 0.87684 0.24491 0.96454 0.0
C1624 C 0.89592 0.28889 0.89955 0.0
H1625 H 0.88259 0.34161 0.87759 0.0
C1626 C 0.9039 0.28434 0.86432 0.0
C1627 C 0.88884 0.31023 0.90518 0.0
C1628 C 0.88108 0.31672 0.94343 0.0
C1629 C 0.90392 0.29987 0.83338 0.0
C1630 C 0.89591 0.32062 0.83808 0.0
C1631 C 0.88875 0.32572 0.87414 0.0
C1632 C 0.89262 0.33516 0.80383 0.0
C1633 C 0.91152 0.29327 0.79493 0.0
C1634 C 0.90498 0.34557 0.78282 0.0
C1635 C 0.9022 0.35376 0.7449 0.0
C1636 C 0.88707 0.35151 0.72792 0.0
C1637 C 0.87443 0.34328 0.75057 0.0
C1638 C 0.87716 0.33532 0.7884 0.0
H1639 H 0.9156 0.27551 0.79482 0.0
H1640 H 0.90301 0.29562 0.77036 0.0
H1641 H 0.92198 0.30421 0.78937 0.0
H1642 H 0.91697 0.34571 0.79444 0.0
H1643 H 0.91215 0.35968 0.72758 0.0
H1644 H 0.62163 0.794 0.47605 0.0
H1645 H 0.61822 0.76233 0.43062 0.0
H1646 H 0.66915 0.75504 0.42318 0.0
H1647 H 0.67264 0.78655 0.46834 0.0
H1648 H 0.62868 0.75755 0.3553 0.0
H1649 H 0.65526 0.69114 0.4473 0.0
H1650 H 0.64944 0.71813 0.46689 0.0
H1651 H 0.6683 0.71486 0.44254 0.0
C1652 C 0.63209 0.78575 0.46446 0.0
C1653 C 0.64741 0.79271 0.47593 0.0
C1654 C 0.63012 0.76753 0.43884 0.0
C1655 C 0.64342 0.75592 0.42442 0.0
C1656 C 0.6587 0.76324 0.43501 0.0
H1657 H 0.6769 0.68182 0.24053 0.0
H1658 H 0.671 0.6967 0.30566 0.0
C1659 C 0.66068 0.78136 0.46061 0.0
C1660 C 0.64152 0.73701 0.39636 0.0
H1661 H 0.65468 0.68381 0.3773 0.0
C1662 C 0.63398 0.74121 0.36041 0.0
C1663 C 0.64834 0.71564 0.40328 0.0
C1664 C 0.65564 0.70959 0.44229 0.0
C1665 C 0.63423 0.72528 0.32999 0.0
C1666 C 0.64204 0.70448 0.33599 0.0
C1667 C 0.64868 0.69973 0.37281 0.0
C1668 C 0.6458 0.68952 0.30251 0.0
C1669 C 0.62719 0.7315 0.29072 0.0
C1670 C 0.63375 0.67909 0.28035 0.0
C1671 C 0.63719 0.67027 0.24315 0.0
C1672 C 0.65266 0.67192 0.22799 0.0
C1673 C 0.66492 0.68019 0.25191 0.0
C1674 C 0.66154 0.68878 0.28903 0.0
H1675 H 0.62324 0.7493 0.28973 0.0
H1676 H 0.636 0.72875 0.26696 0.0
H1677 H 0.61673 0.72063 0.28463 0.0
H1678 H 0.62155 0.67935 0.29047 0.0
H1679 H 0.62751 0.66434 0.22481 0.0
H1680 H 0.67559 0.73712 0.96579 0.0
H1681 H 0.67297 0.76902 0.92123 0.0
H1682 H 0.62193 0.76604 0.93258 0.0
H1683 H 0.62446 0.73404 0.97729 0.0
H1684 H 0.63151 0.76986 0.85668 0.0
H1685 H 0.66231 0.83399 0.94642 0.0
H1686 H 0.67418 0.80924 0.9399 0.0
H1687 H 0.65569 0.80748 0.96639 0.0
C1688 C 0.66381 0.74334 0.95903 0.0
C1689 C 0.65024 0.73306 0.97515 0.0
C1690 C 0.66233 0.76169 0.93378 0.0
C1691 C 0.64727 0.77031 0.9244 0.0
C1692 C 0.63367 0.75982 0.93979 0.0
H1693 H 0.62951 0.86313 0.72875 0.0
H1694 H 0.62491 0.84813 0.79498 0.0
C1695 C 0.63514 0.7414 0.96501 0.0
C1696 C 0.6458 0.78935 0.89657 0.0
H1697 H 0.66023 0.84188 0.87703 0.0
C1698 C 0.63746 0.78582 0.86145 0.0
C1699 C 0.65349 0.81022 0.90302 0.0
C1700 C 0.66178 0.81557 0.94118 0.0
C1701 C 0.63759 0.80191 0.83139 0.0
C1702 C 0.64607 0.82227 0.83694 0.0
C1703 C 0.65368 0.82632 0.87292 0.0
C1704 C 0.64929 0.83754 0.80354 0.0
C1705 C 0.62958 0.7963 0.79291 0.0
C1706 C 0.66472 0.83821 0.78802 0.0
C1707 C 0.66734 0.8469 0.75062 0.0
C1708 C 0.65462 0.8553 0.72844 0.0
C1709 C 0.63954 0.85712 0.74572 0.0
C1710 C 0.63687 0.84827 0.78324 0.0
H1711 H 0.62546 0.77856 0.79169 0.0
H1712 H 0.61909 0.80734 0.78886 0.0
H1713 H 0.63784 0.79925 0.76802 0.0
H1714 H 0.67446 0.83008 0.80319 0.0
H1715 H 0.67903 0.8451 0.73757 0.0
H1716 H 0.91252 0.16508 0.22446 0.0
H1717 H 0.91853 0.18032 0.28979 0.0
H1718 H 0.86838 0.18968 0.31071 0.0
H1719 H 0.86247 0.17468 0.24573 0.0
H1720 H 0.90968 0.22455 0.29891 0.0
H1721 H 0.88438 0.17468 0.42029 0.0
H1722 H 0.88884 0.16259 0.37286 0.0
H1723 H 0.87052 0.17759 0.38061 0.0
C1724 C 0.90279 0.16907 0.24411 0.0
C1725 C 0.88704 0.16849 0.23059 0.0
C1726 C 0.90623 0.17797 0.28122 0.0
C1727 C 0.8939 0.18606 0.30522 0.0
C1728 C 0.87807 0.18313 0.29318 0.0
H1729 H 0.86661 0.28685 0.4635 0.0
H1730 H 0.87037 0.25542 0.41817 0.0
C1731 C 0.87467 0.17451 0.25604 0.0
C1732 C 0.89734 0.20193 0.33771 0.0
H1733 H 0.88599 0.21506 0.431 0.0
C1734 C 0.90491 0.22227 0.3282 0.0
C1735 C 0.89099 0.19898 0.3757 0.0
C1736 C 0.88337 0.17716 0.38808 0.0
C1737 C 0.9052 0.24038 0.35462 0.0
C1738 C 0.89804 0.23786 0.39188 0.0
C1739 C 0.89136 0.21703 0.40228 0.0
C1740 C 0.89609 0.25712 0.41908 0.0
C1741 C 0.9122 0.26249 0.34138 0.0
C1742 C 0.9093 0.26866 0.43437 0.0
C1743 C 0.90716 0.28683 0.45994 0.0
C1744 C 0.89177 0.29353 0.47104 0.0
C1745 C 0.87859 0.28201 0.45552 0.0
C1746 C 0.88073 0.26401 0.42977 0.0
H1747 H 0.9142 0.26292 0.30917 0.0
H1748 H 0.90429 0.27669 0.34946 0.0
H1749 H 0.92383 0.26513 0.35607 0.0
H1750 H 0.92125 0.26339 0.42705 0.0
H1751 H 0.91753 0.29514 0.47207 0.0
H1752 H 0.66994 0.15806 0.26159 0.0
H1753 H 0.67171 0.17371 0.19518 0.0
H1754 H 0.6249 0.20223 0.20829 0.0
H1755 H 0.6231 0.18647 0.27424 0.0
H1756 H 0.63269 0.19116 0.12906 0.0
H1757 H 0.67921 0.24216 0.20446 0.0
H1758 H 0.6826 0.21236 0.20261 0.0
H1759 H 0.66626 0.22327 0.2307 0.0
C1760 C 0.65968 0.1665 0.2493 0.0
C1761 C 0.64633 0.17097 0.27272 0.0
C1762 C 0.66078 0.17571 0.21159 0.0
C1763 C 0.64859 0.18961 0.19726 0.0
C1764 C 0.63446 0.19162 0.21879 0.0
H1765 H 0.64896 0.31455 0.07456 0.0
H1766 H 0.64747 0.28296 0.12039 0.0
C1767 C 0.63337 0.18244 0.25636 0.0
C1768 C 0.65147 0.20531 0.16421 0.0
H1769 H 0.67202 0.25309 0.14102 0.0
C1770 C 0.64146 0.2045 0.13127 0.0
C1771 C 0.66268 0.22302 0.16771 0.0
C1772 C 0.67324 0.22549 0.20333 0.0
C1773 C 0.6422 0.22112 0.10201 0.0
C1774 C 0.65333 0.23888 0.10575 0.0
C1775 C 0.66354 0.23941 0.13824 0.0
C1776 C 0.65404 0.25779 0.07748 0.0
C1777 C 0.63062 0.22012 0.06822 0.0
C1778 C 0.6584 0.25414 0.0383 0.0
C1779 C 0.65923 0.27215 0.01205 0.0
C1780 C 0.6558 0.2942 0.02453 0.0
C1781 C 0.65155 0.29779 0.06393 0.0
C1782 C 0.65075 0.27977 0.09016 0.0
H1783 H 0.62077 0.20807 0.07377 0.0
H1784 H 0.62547 0.23697 0.06243 0.0
H1785 H 0.63698 0.21463 0.04137 0.0
H1786 H 0.66122 0.23738 0.02804 0.0
H1787 H 0.66233 0.26873 0.9818 0.0
H1788 H 0.88938 0.71118 0.57688 0.0
H1789 H 0.89119 0.74258 0.62329 0.0
H1790 H 0.89115 0.78955 0.52706 0.0
H1791 H 0.88992 0.75833 0.48055 0.0
H1792 H 0.91301 0.80086 0.58426 0.0
H1793 H 0.85385 0.78382 0.6493 0.0
H1794 H 0.86682 0.75991 0.65092 0.0
H1795 H 0.86041 0.77079 0.6043 0.0
C1796 C 0.88991 0.72817 0.56562 0.0
C1797 C 0.88924 0.73224 0.52505 0.0
C1798 C 0.89079 0.7461 0.59214 0.0
C1799 C 0.89094 0.76841 0.5786 0.0
C1800 C 0.89086 0.77249 0.53814 0.0
H1801 H 0.87082 0.86788 0.75814 0.0
H1802 H 0.87157 0.85322 0.69092 0.0
C1803 C 0.89001 0.75461 0.51164 0.0
C1804 C 0.89098 0.78748 0.60666 0.0
H1805 H 0.87066 0.80917 0.68438 0.0
C1806 C 0.90367 0.80287 0.60592 0.0
C1807 C 0.87857 0.79048 0.63411 0.0
C1808 C 0.86406 0.77552 0.63453 0.0
C1809 C 0.90471 0.82044 0.63343 0.0
C1810 C 0.89288 0.82242 0.66272 0.0
C1811 C 0.87978 0.80772 0.66202 0.0
C1812 C 0.89463 0.83748 0.69726 0.0
C1813 C 0.91855 0.83653 0.63105 0.0
C1814 C 0.90775 0.83473 0.72229 0.0
C1815 C 0.90739 0.84338 0.76035 0.0
C1816 C 0.89393 0.85483 0.77399 0.0
C1817 C 0.8815 0.8596 0.74788 0.0
C1818 C 0.88186 0.85099 0.70964 0.0
H1819 H 0.92266 0.83848 0.60026 0.0
H1820 H 0.91543 0.85335 0.6429 0.0
H1821 H 0.92864 0.82972 0.64831 0.0
H1822 H 0.91756 0.82396 0.71399 0.0
H1823 H 0.9169 0.83901 0.78043 0.0
H1824 H 0.36287 0.29223 0.04297 0.0
H1825 H 0.36478 0.26011 0.08762 0.0
H1826 H 0.41446 0.25284 0.05901 0.0
H1827 H 0.41267 0.28496 0.01454 0.0
H1828 H 0.37417 0.21505 0.07396 0.0
H1829 H 0.41483 0.25853 0.17842 0.0
H1830 H 0.40413 0.2734 0.14066 0.0
H1831 H 0.42152 0.25734 0.12844 0.0
C1832 C 0.37419 0.28376 0.04617 0.0
C1833 C 0.38767 0.29134 0.02568 0.0
C1834 C 0.37526 0.2654 0.07159 0.0
C1835 C 0.3898 0.25427 0.07695 0.0
C1836 C 0.40319 0.26146 0.05589 0.0
H1837 H 0.40955 0.16403 0.27182 0.0
H1838 H 0.41251 0.17732 0.204 0.0
C1839 C 0.40216 0.27989 0.03064 0.0
C1840 C 0.39099 0.23559 0.10554 0.0
H1841 H 0.40725 0.22174 0.19391 0.0
C1842 C 0.38152 0.21637 0.10002 0.0
C1843 C 0.40073 0.23725 0.13929 0.0
C1844 C 0.4108 0.25778 0.1474 0.0
C1845 C 0.38113 0.19909 0.12806 0.0
C1846 C 0.39028 0.20127 0.16269 0.0
C1847 C 0.40035 0.21996 0.16718 0.0
C1848 C 0.38777 0.18667 0.1974 0.0
C1849 C 0.37069 0.17889 0.1207 0.0
C1850 C 0.37276 0.18643 0.21538 0.0
C1851 C 0.37111 0.17884 0.25383 0.0
C1852 C 0.38439 0.17126 0.27486 0.0
C1853 C 0.39908 0.1693 0.25574 0.0
C1854 C 0.40079 0.17708 0.21719 0.0
H1855 H 0.36949 0.17549 0.08877 0.0
H1856 H 0.37545 0.16364 0.13529 0.0
H1857 H 0.35861 0.18227 0.13241 0.0
H1858 H 0.36263 0.19418 0.20124 0.0
H1859 H 0.35974 0.1809 0.26838 0.0
H1860 H 0.179 0.8567 0.75897 0.0
H1861 H 0.18108 0.83991 0.69366 0.0
H1862 H 0.131 0.82417 0.69631 0.0
H1863 H 0.12892 0.8413 0.76126 0.0
H1864 H 0.17523 0.79523 0.69105 0.0
H1865 H 0.13729 0.83713 0.58067 0.0
H1866 H 0.14367 0.851 0.62521 0.0
H1867 H 0.12696 0.83205 0.62582 0.0
C1868 C 0.16825 0.85101 0.74448 0.0
C1869 C 0.15371 0.85073 0.76465 0.0
C1870 C 0.16948 0.84115 0.70733 0.0
C1871 C 0.15619 0.83078 0.68995 0.0
C1872 C 0.14134 0.83246 0.70857 0.0
H1873 H 0.13521 0.72216 0.5328 0.0
H1874 H 0.13545 0.75323 0.57972 0.0
C1875 C 0.14012 0.84238 0.74567 0.0
C1876 C 0.15839 0.81447 0.65734 0.0
H1877 H 0.14369 0.79825 0.56824 0.0
C1878 C 0.16857 0.79614 0.66383 0.0
C1879 C 0.14954 0.81547 0.62211 0.0
C1880 C 0.13886 0.83509 0.61284 0.0
C1881 C 0.16965 0.77834 0.63691 0.0
C1882 C 0.16052 0.77907 0.60207 0.0
C1883 C 0.15065 0.79768 0.59502 0.0
C1884 C 0.16058 0.76022 0.57346 0.0
C1885 C 0.17998 0.75842 0.64695 0.0
C1886 C 0.17464 0.75377 0.55437 0.0
C1887 C 0.17461 0.73573 0.52797 0.0
C1888 C 0.16047 0.72388 0.51986 0.0
C1889 C 0.14639 0.73051 0.53895 0.0
C1890 C 0.14645 0.74849 0.56542 0.0
H1891 H 0.1831 0.75803 0.67862 0.0
H1892 H 0.17396 0.7424 0.6392 0.0
H1893 H 0.19122 0.75945 0.62999 0.0
H1894 H 0.18563 0.76278 0.55969 0.0
H1895 H 0.18567 0.73109 0.51388 0.0
H1896 H 0.3634 0.84117 0.73103 0.0
H1897 H 0.36568 0.8297 0.79901 0.0
H1898 H 0.41286 0.85829 0.80444 0.0
H1899 H 0.4106 0.86948 0.73518 0.0
H1900 H 0.41379 0.81582 0.82221 0.0
H1901 H 0.36493 0.85124 0.90876 0.0
H1902 H 0.35664 0.84022 0.86437 0.0
H1903 H 0.37072 0.86315 0.86219 0.0
C1904 C 0.37395 0.846 0.7473 0.0
C1905 C 0.38678 0.8563 0.72816 0.0
C1906 C 0.37524 0.83952 0.78636 0.0
C1907 C 0.3894 0.84326 0.80722 0.0
C1908 C 0.40177 0.85537 0.78906 0.0
H1909 H 0.3868 0.76372 0.02451 0.0
H1910 H 0.38991 0.79639 0.9816 0.0
C1911 C 0.40044 0.86196 0.74967 0.0
C1912 C 0.39211 0.83055 0.84412 0.0
H1913 H 0.37218 0.81193 0.92497 0.0
C1914 C 0.40493 0.81546 0.84531 0.0
C1915 C 0.38079 0.8302 0.87483 0.0
C1916 C 0.36762 0.8473 0.87759 0.0
C1917 C 0.40591 0.79876 0.87423 0.0
C1918 C 0.39348 0.79665 0.90196 0.0
C1919 C 0.38149 0.81305 0.90303 0.0
C1920 C 0.39214 0.77685 0.92829 0.0
C1921 C 0.42008 0.78323 0.87405 0.0
C1922 C 0.39211 0.75497 0.91259 0.0
C1923 C 0.39045 0.73628 0.93707 0.0
C1924 C 0.38841 0.73913 0.97763 0.0
C1925 C 0.38817 0.76103 0.99326 0.0
C1926 C 0.39004 0.7797 0.96882 0.0
H1927 H 0.43076 0.79182 0.86205 0.0
H1928 H 0.42289 0.77704 0.90398 0.0
H1929 H 0.41751 0.76858 0.85488 0.0
H1930 H 0.39317 0.75232 0.88127 0.0
H1931 H 0.39051 0.71962 0.92422 0.0
H1932 H 0.12362 0.18089 0.23427 0.0
H1933 H 0.12669 0.1966 0.30014 0.0
H1934 H 0.17458 0.171 0.30529 0.0
H1935 H 0.17143 0.15514 0.2392 0.0
H1936 H 0.13822 0.18408 0.37941 0.0
H1937 H 0.17837 0.24102 0.29545 0.0
H1938 H 0.16505 0.22159 0.27142 0.0
H1939 H 0.18288 0.21149 0.29433 0.0
C1940 C 0.13443 0.1774 0.25049 0.0
C1941 C 0.14723 0.16663 0.232 0.0
C1942 C 0.13624 0.18659 0.28797 0.0
C1943 C 0.15096 0.18535 0.30723 0.0
C1944 C 0.16316 0.17228 0.29074 0.0
H1945 H 0.18345 0.2856 0.47864 0.0
H1946 H 0.18268 0.25327 0.43422 0.0
C1947 C 0.1613 0.16297 0.25322 0.0
C1948 C 0.15424 0.20103 0.34015 0.0
H1949 H 0.17266 0.25097 0.36023 0.0
C1950 C 0.14592 0.19854 0.37553 0.0
C1951 C 0.16424 0.21997 0.33487 0.0
C1952 C 0.1731 0.2239 0.29696 0.0
C1953 C 0.14718 0.21466 0.40562 0.0
C1954 C 0.15665 0.23409 0.39966 0.0
C1955 C 0.16539 0.23614 0.36478 0.0
C1956 C 0.15706 0.25309 0.42809 0.0
C1957 C 0.13832 0.2107 0.44345 0.0
C1958 C 0.14296 0.26406 0.43892 0.0
C1959 C 0.14334 0.28241 0.46457 0.0
C1960 C 0.15787 0.2905 0.47959 0.0
C1961 C 0.17202 0.27971 0.4681 0.0
C1962 C 0.17161 0.26124 0.44259 0.0
H1963 H 0.13629 0.19248 0.44857 0.0
H1964 H 0.14486 0.21778 0.46895 0.0
H1965 H 0.12651 0.21894 0.44175 0.0
H1966 H 0.13162 0.25854 0.42729 0.0
H1967 H 0.13217 0.29001 0.4731 0.0
loop_
_geom_bond_atom_site_label_1
_geom_bond_atom_site_label_2
_geom_bond_distance
_geom_bond_site_symmetry_2
_ccdc_geom_bond_type
C0 C1 1.351 . S
C0 N3 1.368 . S
C0 H5 0.931 . S
C1 C0 1.351 . S
C1 N2 1.373 . S
C1 H29 0.930 . S
N2 C1 1.373 . S
N2 C4 1.340 . S
N3 C0 1.368 . S
N3 C4 1.321 . S
N3 Co6 2.135 . S
C4 N2 1.340 . S
C4 N3 1.321 . S
C4 H28 0.930 . S
H5 C0 0.931 . S
Co6 N3 2.135 . S
Co6 N9 2.121 . S
Co6 O14 2.055 . S
Co6 O17 2.039 . S
Co6 N20 2.140 . S
C7 O8 1.227 . S
C7 O17 1.265 . S
O8 C7 1.227 . S
N9 Co6 2.121 . S
N9 C11 1.375 . S
N9 C12 1.313 . S
C10 C11 1.338 . S
C10 N13 1.377 . S
C10 H30 0.930 . S
C11 N9 1.375 . S
C11 C10 1.338 . S
C11 H15 0.931 . S
C12 N9 1.313 . S
C12 N13 1.344 . S
C12 H16 0.930 . S
N13 C10 1.377 . S
N13 C12 1.344 . S
O14 Co6 2.055 . S
O14 C18 1.253 . S
H15 C11 0.931 . S
H16 C12 0.930 . S
O17 Co6 2.039 . S
O17 C7 1.265 . S
C18 O14 1.253 . S
C18 O19 1.227 . S
O19 C18 1.227 . S
N20 Co6 2.140 . S
N20 C23 1.346 . S
N20 C24 1.345 . S
C21 C22 1.387 . S
C21 C25 1.391 1_556 S
C22 C21 1.387 . S
C22 C23 1.369 1_556 S
C22 H31 0.929 . S
C23 N20 1.346 . S
C23 C22 1.369 1_554 S
C23 H26 0.928 . S
C24 N20 1.345 . S
C24 C25 1.371 . S
C24 H27 0.931 . S
C25 C21 1.391 1_554 S
C25 C24 1.371 . S
C25 H32 0.930 . S
H26 C23 0.928 . S
H27 C24 0.931 . S
H28 C4 0.930 . S
H29 C1 0.930 . S
H30 C10 0.930 . S
H31 C22 0.929 . S
H32 C25 0.930 . S
C33 C34 1.351 . S
C33 N36 1.368 . S
C33 H38 0.931 . S
C34 C33 1.351 . S
C34 N35 1.373 . S
C34 H62 0.930 . S
N35 C34 1.373 . S
N35 C37 1.340 . S
N36 C33 1.368 . S
N36 C37 1.321 . S
N36 Co39 2.135 . S
C37 N35 1.340 . S
C37 N36 1.321 . S
C37 H61 0.930 . S
H38 C33 0.931 . S
Co39 N36 2.135 . S
Co39 N42 2.121 . S
Co39 O47 2.055 . S
Co39 O50 2.039 . S
Co39 N53 2.140 . S
C40 O41 1.227 . S
C40 O50 1.265 . S
O41 C40 1.227 . S
N42 Co39 2.121 . S
N42 C44 1.375 . S
N42 C45 1.313 . S
C43 C44 1.338 . S
C43 N46 1.377 . S
C43 H63 0.930 . S
C44 N42 1.375 . S
C44 C43 1.338 . S
C44 H48 0.931 . S
C45 N42 1.313 . S
C45 N46 1.344 . S
C45 H49 0.930 . S
N46 C43 1.377 . S
N46 C45 1.344 . S
O47 Co39 2.055 . S
O47 C51 1.253 . S
H48 C44 0.931 . S
H49 C45 0.930 . S
O50 Co39 2.039 . S
O50 C40 1.265 . S
C51 O47 1.253 . S
C51 O52 1.227 . S
O52 C51 1.227 . S
N53 Co39 2.140 . S
N53 C56 1.346 . S
N53 C57 1.345 . S
C54 C55 1.387 . S
C54 C58 1.391 . S
C55 C54 1.387 . S
C55 C56 1.369 . S
C55 H64 0.929 . S
C56 N53 1.346 . S
C56 C55 1.369 . S
C56 H59 0.928 . S
C57 N53 1.345 . S
C57 C58 1.371 . S
C57 H60 0.931 . S
C58 C54 1.391 . S
C58 C57 1.371 . S
C58 H65 0.930 . S
H59 C56 0.928 . S
H60 C57 0.931 . S
H61 C37 0.930 . S
H62 C34 0.930 . S
H63 C43 0.930 . S
H64 C55 0.929 . S
H65 C58 0.930 . S
C66 C67 1.351 . S
C66 N69 1.368 . S
C66 H71 0.931 . S
C67 C66 1.351 . S
C67 N68 1.373 . S
C67 H95 0.930 . S
N68 C67 1.373 . S
N68 C70 1.340 . S
N69 C66 1.368 . S
N69 C70 1.321 . S
N69 Co72 2.135 . S
C70 N68 1.340 . S
C70 N69 1.321 . S
C70 H94 0.930 . S
H71 C66 0.931 . S
Co72 N69 2.135 . S
Co72 N75 2.121 . S
Co72 O80 2.055 . S
Co72 O83 2.039 . S
Co72 N86 2.140 . S
C73 O74 1.227 . S
C73 O83 1.265 . S
O74 C73 1.227 . S
N75 Co72 2.121 . S
N75 C77 1.375 . S
N75 C78 1.313 . S
C76 C77 1.338 . S
C76 N79 1.377 . S
C76 H96 0.930 . S
C77 N75 1.375 . S
C77 C76 1.338 . S
C77 H81 0.931 . S
C78 N75 1.313 . S
C78 N79 1.344 . S
C78 H82 0.930 . S
N79 C76 1.377 . S
N79 C78 1.344 . S
O80 Co72 2.055 . S
O80 C84 1.253 . S
H81 C77 0.931 . S
H82 C78 0.930 . S
O83 Co72 2.039 . S
O83 C73 1.265 . S
C84 O80 1.253 . S
C84 O85 1.227 . S
O85 C84 1.227 . S
N86 Co72 2.140 . S
N86 C89 1.346 . S
N86 C90 1.345 . S
C87 C88 1.387 . S
C87 C91 1.391 1_554 S
C88 C87 1.387 . S
C88 C89 1.369 1_554 S
C88 H97 0.929 . S
C89 N86 1.346 . S
C89 C88 1.369 1_556 S
C89 H92 0.928 . S
C90 N86 1.345 . S
C90 C91 1.371 . S
C90 H93 0.931 . S
C91 C87 1.391 1_556 S
C91 C90 1.371 . S
C91 H98 0.930 . S
H92 C89 0.928 . S
H93 C90 0.931 . S
H94 C70 0.930 . S
H95 C67 0.930 . S
H96 C76 0.930 . S
H97 C88 0.929 . S
H98 C91 0.930 . S
C99 C100 1.351 . S
C99 N102 1.368 . S
C99 H104 0.931 . S
C100 C99 1.351 . S
C100 N101 1.373 . S
C100 H128 0.930 . S
N101 C100 1.373 . S
N101 C103 1.340 . S
N102 C99 1.368 . S
N102 C103 1.321 . S
N102 Co105 2.135 . S
C103 N101 1.340 . S
C103 N102 1.321 . S
C103 H127 0.930 . S
H104 C99 0.931 . S
Co105 N102 2.135 . S
Co105 N108 2.121 . S
Co105 O113 2.055 . S
Co105 O116 2.039 . S
Co105 N119 2.140 . S
C106 O107 1.227 . S
C106 O116 1.265 . S
O107 C106 1.227 . S
N108 Co105 2.121 . S
N108 C110 1.375 . S
N108 C111 1.313 . S
C109 C110 1.338 . S
C109 N112 1.377 . S
C109 H129 0.930 . S
C110 N108 1.375 . S
C110 C109 1.338 . S
C110 H114 0.931 . S
C111 N108 1.313 . S
C111 N112 1.344 . S
C111 H115 0.930 . S
N112 C109 1.377 . S
N112 C111 1.344 . S
O113 Co105 2.055 . S
O113 C117 1.253 . S
H114 C110 0.931 . S
H115 C111 0.930 . S
O116 Co105 2.039 . S
O116 C106 1.265 . S
C117 O113 1.253 . S
C117 O118 1.227 . S
O118 C117 1.227 . S
N119 Co105 2.140 . S
N119 C122 1.346 . S
N119 C123 1.345 . S
C120 C121 1.387 . S
C120 C124 1.391 . S
C121 C120 1.387 . S
C121 C122 1.369 . S
C121 H130 0.929 . S
C122 N119 1.346 . S
C122 C121 1.369 . S
C122 H125 0.928 . S
C123 N119 1.345 . S
C123 C124 1.371 . S
C123 H126 0.931 . S
C124 C120 1.391 . S
C124 C123 1.371 . S
C124 H131 0.930 . S
H125 C122 0.928 . S
H126 C123 0.931 . S
H127 C103 0.930 . S
H128 C100 0.930 . S
H129 C109 0.930 . S
H130 C121 0.929 . S
H131 C124 0.930 . S
C132 C133 1.351 . S
C132 N135 1.368 . S
C132 H137 0.931 . S
C133 C132 1.351 . S
C133 N134 1.373 . S
C133 H161 0.930 . S
N134 C133 1.373 . S
N134 C136 1.340 . S
N135 C132 1.368 . S
N135 C136 1.321 . S
N135 Co138 2.135 . S
C136 N134 1.340 . S
C136 N135 1.321 . S
C136 H160 0.930 . S
H137 C132 0.931 . S
Co138 N135 2.135 . S
Co138 N141 2.121 . S
Co138 O146 2.055 . S
Co138 O149 2.039 . S
Co138 N152 2.140 . S
C139 O140 1.227 . S
C139 O149 1.265 . S
O140 C139 1.227 . S
N141 Co138 2.121 . S
N141 C143 1.375 . S
N141 C144 1.313 . S
C142 C143 1.338 . S
C142 N145 1.377 . S
C142 H162 0.930 . S
C143 N141 1.375 . S
C143 C142 1.338 . S
C143 H147 0.931 . S
C144 N141 1.313 . S
C144 N145 1.344 . S
C144 H148 0.930 . S
N145 C142 1.377 . S
N145 C144 1.344 . S
O146 Co138 2.055 . S
O146 C150 1.253 . S
H147 C143 0.931 . S
H148 C144 0.930 . S
O149 Co138 2.039 . S
O149 C139 1.265 . S
C150 O146 1.253 . S
C150 O151 1.227 . S
O151 C150 1.227 . S
N152 Co138 2.140 . S
N152 C155 1.346 . S
N152 C156 1.345 . S
C153 C154 1.387 . S
C153 C157 1.391 1_554 S
C154 C153 1.387 . S
C154 C155 1.369 1_554 S
C154 H163 0.929 . S
C155 N152 1.346 . S
C155 C154 1.369 1_556 S
C155 H158 0.928 . S
C156 N152 1.345 . S
C156 C157 1.371 . S
C156 H159 0.931 . S
C157 C153 1.391 1_556 S
C157 C156 1.371 . S
C157 H164 0.930 . S
H158 C155 0.928 . S
H159 C156 0.931 . S
H160 C136 0.930 . S
H161 C133 0.930 . S
H162 C142 0.930 . S
H163 C154 0.929 . S
H164 C157 0.930 . S
C165 C166 1.351 . S
C165 N168 1.368 . S
C165 H170 0.931 . S
C166 C165 1.351 . S
C166 N167 1.373 . S
C166 H194 0.930 . S
N167 C166 1.373 . S
N167 C169 1.340 . S
N168 C165 1.368 . S
N168 C169 1.321 . S
N168 Co171 2.135 . S
C169 N167 1.340 . S
C169 N168 1.321 . S
C169 H193 0.930 . S
H170 C165 0.931 . S
Co171 N168 2.135 . S
Co171 N174 2.121 . S
Co171 O179 2.055 . S
Co171 O182 2.039 . S
Co171 N185 2.140 . S
C172 O173 1.227 . S
C172 O182 1.265 . S
O173 C172 1.227 . S
N174 Co171 2.121 . S
N174 C176 1.375 . S
N174 C177 1.313 . S
C175 C176 1.338 . S
C175 N178 1.377 . S
C175 H195 0.930 . S
C176 N174 1.375 . S
C176 C175 1.338 . S
C176 H180 0.931 . S
C177 N174 1.313 . S
C177 N178 1.344 . S
C177 H181 0.930 . S
N178 C175 1.377 . S
N178 C177 1.344 . S
O179 Co171 2.055 . S
O179 C183 1.253 . S
H180 C176 0.931 . S
H181 C177 0.930 . S
O182 Co171 2.039 . S
O182 C172 1.265 . S
C183 O179 1.253 . S
C183 O184 1.227 . S
O184 C183 1.227 . S
N185 Co171 2.140 . S
N185 C188 1.346 . S
N185 C189 1.345 . S
C186 C187 1.387 . S
C186 C190 1.391 . S
C187 C186 1.387 . S
C187 C188 1.369 . S
C187 H196 0.929 . S
C188 N185 1.346 . S
C188 C187 1.369 . S
C188 H191 0.928 . S
C189 N185 1.345 . S
C189 C190 1.371 . S
C189 H192 0.931 . S
C190 C186 1.391 . S
C190 C189 1.371 . S
C190 H197 0.930 . S
H191 C188 0.928 . S
H192 C189 0.931 . S
H193 C169 0.930 . S
H194 C166 0.930 . S
H195 C175 0.930 . S
H196 C187 0.929 . S
H197 C190 0.930 . S
C198 C199 1.351 . S
C198 N201 1.368 . S
C198 H203 0.931 . S
C199 C198 1.351 . S
C199 N200 1.373 . S
C199 H227 0.930 . S
N200 C199 1.373 . S
N200 C202 1.340 . S
N201 C198 1.368 . S
N201 C202 1.321 . S
N201 Co204 2.135 . S
C202 N200 1.340 . S
C202 N201 1.321 . S
C202 H226 0.930 . S
H203 C198 0.931 . S
Co204 N201 2.135 . S
Co204 N207 2.121 . S
Co204 O212 2.055 . S
Co204 O215 2.039 . S
Co204 N218 2.140 . S
C205 O206 1.227 . S
C205 O215 1.265 . S
O206 C205 1.227 . S
N207 Co204 2.121 . S
N207 C209 1.375 . S
N207 C210 1.313 . S
C208 C209 1.338 . S
C208 N211 1.377 . S
C208 H228 0.930 . S
C209 N207 1.375 . S
C209 C208 1.338 . S
C209 H213 0.931 . S
C210 N207 1.313 . S
C210 N211 1.344 . S
C210 H214 0.930 . S
N211 C208 1.377 . S
N211 C210 1.344 . S
O212 Co204 2.055 . S
O212 C216 1.253 . S
H213 C209 0.931 . S
H214 C210 0.930 . S
O215 Co204 2.039 . S
O215 C205 1.265 . S
C216 O212 1.253 . S
C216 O217 1.227 . S
O217 C216 1.227 . S
N218 Co204 2.140 . S
N218 C221 1.346 . S
N218 C222 1.345 . S
C219 C220 1.387 . S
C219 C223 1.391 1_556 S
C220 C219 1.387 . S
C220 C221 1.369 1_556 S
C220 H229 0.929 . S
C221 N218 1.346 . S
C221 C220 1.369 1_554 S
C221 H224 0.928 . S
C222 N218 1.345 . S
C222 C223 1.371 . S
C222 H225 0.931 . S
C223 C219 1.391 1_554 S
C223 C222 1.371 . S
C223 H230 0.930 . S
H224 C221 0.928 . S
H225 C222 0.931 . S
H226 C202 0.930 . S
H227 C199 0.930 . S
H228 C208 0.930 . S
H229 C220 0.929 . S
H230 C223 0.930 . S
C231 C232 1.351 . S
C231 N234 1.368 . S
C231 H236 0.931 . S
C232 C231 1.351 . S
C232 N233 1.373 . S
C232 H260 0.930 . S
N233 C232 1.373 . S
N233 C235 1.340 . S
N234 C231 1.368 . S
N234 C235 1.321 . S
N234 Co237 2.135 . S
C235 N233 1.340 . S
C235 N234 1.321 . S
C235 H259 0.930 . S
H236 C231 0.931 . S
Co237 N234 2.135 . S
Co237 N240 2.121 . S
Co237 O245 2.055 . S
Co237 O248 2.039 . S
Co237 N251 2.140 . S
C238 O239 1.227 . S
C238 O248 1.265 . S
O239 C238 1.227 . S
N240 Co237 2.121 . S
N240 C242 1.375 . S
N240 C243 1.313 . S
C241 C242 1.338 . S
C241 N244 1.377 . S
C241 H261 0.930 . S
C242 N240 1.375 . S
C242 C241 1.338 . S
C242 H246 0.931 . S
C243 N240 1.313 . S
C243 N244 1.344 . S
C243 H247 0.930 . S
N244 C241 1.377 . S
N244 C243 1.344 . S
O245 Co237 2.055 . S
O245 C249 1.253 . S
H246 C242 0.931 . S
H247 C243 0.930 . S
O248 Co237 2.039 . S
O248 C238 1.265 . S
C249 O245 1.253 . S
C249 O250 1.227 . S
O250 C249 1.227 . S
N251 Co237 2.140 . S
N251 C254 1.346 . S
N251 C255 1.345 . S
C252 C253 1.387 . S
C252 C256 1.391 . S
C253 C252 1.387 . S
C253 C254 1.369 . S
C253 H262 0.929 . S
C254 N251 1.346 . S
C254 C253 1.369 . S
C254 H257 0.928 . S
C255 N251 1.345 . S
C255 C256 1.371 . S
C255 H258 0.931 . S
C256 C252 1.391 . S
C256 C255 1.371 . S
C256 H263 0.930 . S
H257 C254 0.928 . S
H258 C255 0.931 . S
H259 C235 0.930 . S
H260 C232 0.930 . S
H261 C241 0.930 . S
H262 C253 0.929 . S
H263 C256 0.930 . S
C264 C265 1.351 . S
C264 N267 1.368 . S
C264 H269 0.931 . S
C265 C264 1.351 . S
C265 N266 1.373 . S
C265 H293 0.930 . S
N266 C265 1.373 . S
N266 C268 1.340 . S
N267 C264 1.368 . S
N267 C268 1.321 . S
N267 Co270 2.135 . S
C268 N266 1.340 . S
C268 N267 1.321 . S
C268 H292 0.930 . S
H269 C264 0.931 . S
Co270 N267 2.135 . S
Co270 N273 2.121 . S
Co270 O278 2.055 . S
Co270 O281 2.039 . S
Co270 N284 2.140 . S
C271 O272 1.227 . S
C271 O281 1.265 . S
O272 C271 1.227 . S
N273 Co270 2.121 . S
N273 C275 1.375 . S
N273 C276 1.313 . S
C274 C275 1.338 . S
C274 N277 1.377 . S
C274 H294 0.930 . S
C275 N273 1.375 . S
C275 C274 1.338 . S
C275 H279 0.931 . S
C276 N273 1.313 . S
C276 N277 1.344 . S
C276 H280 0.930 . S
N277 C274 1.377 . S
N277 C276 1.344 . S
O278 Co270 2.055 . S
O278 C282 1.253 . S
H279 C275 0.931 . S
H280 C276 0.930 . S
O281 Co270 2.039 . S
O281 C271 1.265 . S
C282 O278 1.253 . S
C282 O283 1.227 . S
O283 C282 1.227 . S
N284 Co270 2.140 . S
N284 C287 1.346 . S
N284 C288 1.345 . S
C285 C286 1.387 . S
C285 C289 1.391 1_556 S
C286 C285 1.387 . S
C286 C287 1.369 1_556 S
C286 H295 0.929 . S
C287 N284 1.346 . S
C287 C286 1.369 1_554 S
C287 H290 0.928 . S
C288 N284 1.345 . S
C288 C289 1.371 . S
C288 H291 0.931 . S
C289 C285 1.391 1_554 S
C289 C288 1.371 . S
C289 H296 0.930 . S
H290 C287 0.928 . S
H291 C288 0.931 . S
H292 C268 0.930 . S
H293 C265 0.930 . S
H294 C274 0.930 . S
H295 C286 0.929 . S
H296 C289 0.930 . S
C297 C298 1.351 . S
C297 N300 1.368 . S
C297 H302 0.931 . S
C298 C297 1.351 . S
C298 N299 1.373 . S
C298 H326 0.930 . S
N299 C298 1.373 . S
N299 C301 1.340 . S
N300 C297 1.368 . S
N300 C301 1.321 . S
N300 Co303 2.135 . S
C301 N299 1.340 . S
C301 N300 1.321 . S
C301 H325 0.930 . S
H302 C297 0.931 . S
Co303 N300 2.135 . S
Co303 N306 2.121 . S
Co303 O311 2.055 . S
Co303 O314 2.039 . S
Co303 N317 2.140 . S
C304 O305 1.227 . S
C304 O314 1.265 . S
O305 C304 1.227 . S
N306 Co303 2.121 . S
N306 C308 1.375 . S
N306 C309 1.313 . S
C307 C308 1.338 . S
C307 N310 1.377 . S
C307 H327 0.930 . S
C308 N306 1.375 . S
C308 C307 1.338 . S
C308 H312 0.931 . S
C309 N306 1.313 . S
C309 N310 1.344 . S
C309 H313 0.930 . S
N310 C307 1.377 . S
N310 C309 1.344 . S
O311 Co303 2.055 . S
O311 C315 1.253 . S
H312 C308 0.931 . S
H313 C309 0.930 . S
O314 Co303 2.039 . S
O314 C304 1.265 . S
C315 O311 1.253 . S
C315 O316 1.227 . S
O316 C315 1.227 . S
N317 Co303 2.140 . S
N317 C320 1.346 . S
N317 C321 1.345 . S
C318 C319 1.387 . S
C318 C322 1.391 . S
C319 C318 1.387 . S
C319 C320 1.369 . S
C319 H328 0.929 . S
C320 N317 1.346 . S
C320 C319 1.369 . S
C320 H323 0.928 . S
C321 N317 1.345 . S
C321 C322 1.371 . S
C321 H324 0.931 . S
C322 C318 1.391 . S
C322 C321 1.371 . S
C322 H329 0.930 . S
H323 C320 0.928 . S
H324 C321 0.931 . S
H325 C301 0.930 . S
H326 C298 0.930 . S
H327 C307 0.930 . S
H328 C319 0.929 . S
H329 C322 0.930 . S
C330 C331 1.351 . S
C330 N333 1.368 . S
C330 H335 0.931 . S
C331 C330 1.351 . S
C331 N332 1.373 . S
C331 H359 0.930 . S
N332 C331 1.373 . S
N332 C334 1.340 . S
N333 C330 1.368 . S
N333 C334 1.321 . S
N333 Co336 2.135 . S
C334 N332 1.340 . S
C334 N333 1.321 . S
C334 H358 0.930 . S
H335 C330 0.931 . S
Co336 N333 2.135 . S
Co336 N339 2.121 . S
Co336 O344 2.055 . S
Co336 O347 2.039 . S
Co336 N350 2.140 . S
C337 O338 1.227 . S
C337 O347 1.265 . S
O338 C337 1.227 . S
N339 Co336 2.121 . S
N339 C341 1.375 . S
N339 C342 1.313 . S
C340 C341 1.338 . S
C340 N343 1.377 . S
C340 H360 0.930 . S
C341 N339 1.375 . S
C341 C340 1.338 . S
C341 H345 0.931 . S
C342 N339 1.313 . S
C342 N343 1.344 . S
C342 H346 0.930 . S
N343 C340 1.377 . S
N343 C342 1.344 . S
O344 Co336 2.055 . S
O344 C348 1.253 . S
H345 C341 0.931 . S
H346 C342 0.930 . S
O347 Co336 2.039 . S
O347 C337 1.265 . S
C348 O344 1.253 . S
C348 O349 1.227 . S
O349 C348 1.227 . S
N350 Co336 2.140 . S
N350 C353 1.346 . S
N350 C354 1.345 . S
C351 C352 1.387 . S
C351 C355 1.391 1_554 S
C352 C351 1.387 . S
C352 C353 1.369 1_554 S
C352 H361 0.929 . S
C353 N350 1.346 . S
C353 C352 1.369 1_556 S
C353 H356 0.928 . S
C354 N350 1.345 . S
C354 C355 1.371 . S
C354 H357 0.931 . S
C355 C351 1.391 1_556 S
C355 C354 1.371 . S
C355 H362 0.930 . S
H356 C353 0.928 . S
H357 C354 0.931 . S
H358 C334 0.930 . S
H359 C331 0.930 . S
H360 C340 0.930 . S
H361 C352 0.929 . S
H362 C355 0.930 . S
C363 C364 1.351 . S
C363 N366 1.368 . S
C363 H368 0.931 . S
C364 C363 1.351 . S
C364 N365 1.373 . S
C364 H392 0.930 . S
N365 C364 1.373 . S
N365 C367 1.340 . S
N366 C363 1.368 . S
N366 C367 1.321 . S
N366 Co369 2.135 . S
C367 N365 1.340 . S
C367 N366 1.321 . S
C367 H391 0.930 . S
H368 C363 0.931 . S
Co369 N366 2.135 . S
Co369 N372 2.121 . S
Co369 O377 2.055 . S
Co369 O380 2.039 . S
Co369 N383 2.140 . S
C370 O371 1.227 . S
C370 O380 1.265 . S
O371 C370 1.227 . S
N372 Co369 2.121 . S
N372 C374 1.375 . S
N372 C375 1.313 . S
C373 C374 1.338 . S
C373 N376 1.377 . S
C373 H393 0.930 . S
C374 N372 1.375 . S
C374 C373 1.338 . S
C374 H378 0.931 . S
C375 N372 1.313 . S
C375 N376 1.344 . S
C375 H379 0.930 . S
N376 C373 1.377 . S
N376 C375 1.344 . S
O377 Co369 2.055 . S
O377 C381 1.253 . S
H378 C374 0.931 . S
H379 C375 0.930 . S
O380 Co369 2.039 . S
O380 C370 1.265 . S
C381 O377 1.253 . S
C381 O382 1.227 . S
O382 C381 1.227 . S
N383 Co369 2.140 . S
N383 C386 1.346 . S
N383 C387 1.345 . S
C384 C385 1.387 . S
C384 C388 1.391 . S
C385 C384 1.387 . S
C385 C386 1.369 . S
C385 H394 0.929 . S
C386 N383 1.346 . S
C386 C385 1.369 . S
C386 H389 0.928 . S
C387 N383 1.345 . S
C387 C388 1.371 . S
C387 H390 0.931 . S
C388 C384 1.391 . S
C388 C387 1.371 . S
C388 H395 0.930 . S
H389 C386 0.928 . S
H390 C387 0.931 . S
H391 C367 0.930 . S
H392 C364 0.930 . S
H393 C373 0.930 . S
H394 C385 0.929 . S
H395 C388 0.930 . S
C396 C397 1.351 . S
C396 N399 1.368 . S
C396 H401 0.931 . S
C397 C396 1.351 . S
C397 N398 1.373 . S
C397 H425 0.930 . S
N398 C397 1.373 . S
N398 C400 1.340 . S
N399 C396 1.368 . S
N399 C400 1.321 . S
N399 Co402 2.135 . S
C400 N398 1.340 . S
C400 N399 1.321 . S
C400 H424 0.930 . S
H401 C396 0.931 . S
Co402 N399 2.135 . S
Co402 N405 2.121 . S
Co402 O410 2.055 . S
Co402 O413 2.039 . S
Co402 N416 2.140 . S
C403 O404 1.227 . S
C403 O413 1.265 . S
O404 C403 1.227 . S
N405 Co402 2.121 . S
N405 C407 1.375 . S
N405 C408 1.313 . S
C406 C407 1.338 . S
C406 N409 1.377 . S
C406 H426 0.930 . S
C407 N405 1.375 . S
C407 C406 1.338 . S
C407 H411 0.931 . S
C408 N405 1.313 . S
C408 N409 1.344 . S
C408 H412 0.930 . S
N409 C406 1.377 . S
N409 C408 1.344 . S
O410 Co402 2.055 . S
O410 C414 1.253 . S
H411 C407 0.931 . S
H412 C408 0.930 . S
O413 Co402 2.039 . S
O413 C403 1.265 . S
C414 O410 1.253 . S
C414 O415 1.227 . S
O415 C414 1.227 . S
N416 Co402 2.140 . S
N416 C419 1.346 . S
N416 C420 1.345 . S
C417 C418 1.387 . S
C417 C421 1.391 1_554 S
C418 C417 1.387 . S
C418 C419 1.369 1_554 S
C418 H427 0.929 . S
C419 N416 1.346 . S
C419 C418 1.369 1_556 S
C419 H422 0.928 . S
C420 N416 1.345 . S
C420 C421 1.371 . S
C420 H423 0.931 . S
C421 C417 1.391 1_556 S
C421 C420 1.371 . S
C421 H428 0.930 . S
H422 C419 0.928 . S
H423 C420 0.931 . S
H424 C400 0.930 . S
H425 C397 0.930 . S
H426 C406 0.930 . S
H427 C418 0.929 . S
H428 C421 0.930 . S
C429 C430 1.351 . S
C429 N432 1.368 . S
C429 H434 0.931 . S
C430 C429 1.351 . S
C430 N431 1.373 . S
C430 H458 0.930 . S
N431 C430 1.373 . S
N431 C433 1.340 . S
N432 C429 1.368 . S
N432 C433 1.321 . S
N432 Co435 2.135 . S
C433 N431 1.340 . S
C433 N432 1.321 . S
C433 H457 0.930 . S
H434 C429 0.931 . S
Co435 N432 2.135 . S
Co435 N438 2.121 . S
Co435 O443 2.055 . S
Co435 O446 2.039 . S
Co435 N449 2.140 . S
C436 O437 1.227 . S
C436 O446 1.265 . S
O437 C436 1.227 . S
N438 Co435 2.121 . S
N438 C440 1.375 . S
N438 C441 1.313 . S
C439 C440 1.338 . S
C439 N442 1.377 . S
C439 H459 0.930 . S
C440 N438 1.375 . S
C440 C439 1.338 . S
C440 H444 0.931 . S
C441 N438 1.313 . S
C441 N442 1.344 . S
C441 H445 0.930 . S
N442 C439 1.377 . S
N442 C441 1.344 . S
O443 Co435 2.055 . S
O443 C447 1.253 . S
H444 C440 0.931 . S
H445 C441 0.930 . S
O446 Co435 2.039 . S
O446 C436 1.265 . S
C447 O443 1.253 . S
C447 O448 1.227 . S
O448 C447 1.227 . S
N449 Co435 2.140 . S
N449 C452 1.346 . S
N449 C453 1.345 . S
C450 C451 1.387 . S
C450 C454 1.391 . S
C451 C450 1.387 . S
C451 C452 1.369 . S
C451 H460 0.929 . S
C452 N449 1.346 . S
C452 C451 1.369 . S
C452 H455 0.928 . S
C453 N449 1.345 . S
C453 C454 1.371 . S
C453 H456 0.931 . S
C454 C450 1.391 . S
C454 C453 1.371 . S
C454 H461 0.930 . S
H455 C452 0.928 . S
H456 C453 0.931 . S
H457 C433 0.930 . S
H458 C430 0.930 . S
H459 C439 0.930 . S
H460 C451 0.929 . S
H461 C454 0.930 . S
C462 C463 1.351 . S
C462 N465 1.368 . S
C462 H467 0.931 . S
C463 C462 1.351 . S
C463 N464 1.373 . S
C463 H491 0.930 . S
N464 C463 1.373 . S
N464 C466 1.340 . S
N465 C462 1.368 . S
N465 C466 1.321 . S
N465 Co468 2.135 . S
C466 N464 1.340 . S
C466 N465 1.321 . S
C466 H490 0.930 . S
H467 C462 0.931 . S
Co468 N465 2.135 . S
Co468 N471 2.121 . S
Co468 O476 2.055 . S
Co468 O479 2.039 . S
Co468 N482 2.140 . S
C469 O470 1.227 . S
C469 O479 1.265 . S
O470 C469 1.227 . S
N471 Co468 2.121 . S
N471 C473 1.375 . S
N471 C474 1.313 . S
C472 C473 1.338 . S
C472 N475 1.377 . S
C472 H492 0.930 . S
C473 N471 1.375 . S
C473 C472 1.338 . S
C473 H477 0.931 . S
C474 N471 1.313 . S
C474 N475 1.344 . S
C474 H478 0.930 . S
N475 C472 1.377 . S
N475 C474 1.344 . S
O476 Co468 2.055 . S
O476 C480 1.253 . S
H477 C473 0.931 . S
H478 C474 0.930 . S
O479 Co468 2.039 . S
O479 C469 1.265 . S
C480 O476 1.253 . S
C480 O481 1.227 . S
O481 C480 1.227 . S
N482 Co468 2.140 . S
N482 C485 1.346 . S
N482 C486 1.345 . S
C483 C484 1.387 . S
C483 C487 1.391 1_556 S
C484 C483 1.387 . S
C484 C485 1.369 1_556 S
C484 H493 0.929 . S
C485 N482 1.346 . S
C485 C484 1.369 1_554 S
C485 H488 0.928 . S
C486 N482 1.345 . S
C486 C487 1.371 . S
C486 H489 0.931 . S
C487 C483 1.391 1_554 S
C487 C486 1.371 . S
C487 H494 0.930 . S
H488 C485 0.928 . S
H489 C486 0.931 . S
H490 C466 0.930 . S
H491 C463 0.930 . S
H492 C472 0.930 . S
H493 C484 0.929 . S
H494 C487 0.930 . S
C495 C496 1.351 . S
C495 N498 1.368 . S
C495 H500 0.931 . S
C496 C495 1.351 . S
C496 N497 1.373 . S
C496 H524 0.930 . S
N497 C496 1.373 . S
N497 C499 1.340 . S
N498 C495 1.368 . S
N498 C499 1.321 . S
N498 Co501 2.135 . S
C499 N497 1.340 . S
C499 N498 1.321 . S
C499 H523 0.930 . S
H500 C495 0.931 . S
Co501 N498 2.135 . S
Co501 N504 2.121 . S
Co501 O509 2.055 . S
Co501 O512 2.039 . S
Co501 N515 2.140 . S
C502 O503 1.227 . S
C502 O512 1.265 . S
O503 C502 1.227 . S
N504 Co501 2.121 . S
N504 C506 1.375 . S
N504 C507 1.313 . S
C505 C506 1.338 . S
C505 N508 1.377 . S
C505 H525 0.930 . S
C506 N504 1.375 . S
C506 C505 1.338 . S
C506 H510 0.931 . S
C507 N504 1.313 . S
C507 N508 1.344 . S
C507 H511 0.930 . S
N508 C505 1.377 . S
N508 C507 1.344 . S
O509 Co501 2.055 . S
O509 C513 1.253 . S
H510 C506 0.931 . S
H511 C507 0.930 . S
O512 Co501 2.039 . S
O512 C502 1.265 . S
C513 O509 1.253 . S
C513 O514 1.227 . S
O514 C513 1.227 . S
N515 Co501 2.140 . S
N515 C518 1.346 . S
N515 C519 1.345 . S
C516 C517 1.387 . S
C516 C520 1.391 . S
C517 C516 1.387 . S
C517 C518 1.369 . S
C517 H526 0.929 . S
C518 N515 1.346 . S
C518 C517 1.369 . S
C518 H521 0.928 . S
C519 N515 1.345 . S
C519 C520 1.371 . S
C519 H522 0.931 . S
C520 C516 1.391 . S
C520 C519 1.371 . S
C520 H527 0.930 . S
H521 C518 0.928 . S
H522 C519 0.931 . S
H523 C499 0.930 . S
H524 C496 0.930 . S
H525 C505 0.930 . S
H526 C517 0.929 . S
H527 C520 0.930 . S
H528 C536 0.929 . S
H529 C538 0.930 . S
H530 C540 0.930 . S
H531 C543 0.929 . S
H532 C546 0.930 . S
H533 C548 0.960 . S
H534 C548 0.960 . S
H535 C548 0.960 . S
C536 H528 0.929 . S
C536 C537 1.377 . S
C536 C538 1.384 . S
C537 C536 1.377 . S
C537 C543 1.390 . S
C538 H529 0.930 . S
C538 C536 1.384 . S
C538 C539 1.372 . S
C539 C538 1.372 . S
C539 C540 1.400 . S
C539 C544 1.490 . S
C540 H530 0.930 . S
C540 C539 1.400 . S
C540 C543 1.386 . S
H541 C557 0.930 . S
H542 C558 0.931 . S
C543 H531 0.929 . S
C543 C537 1.390 . S
C543 C540 1.386 . S
C544 C539 1.490 . S
C544 C546 1.395 . S
C544 C547 1.403 . S
H545 C551 0.930 . S
C546 H532 0.930 . S
C546 C544 1.395 . S
C546 C549 1.403 . S
C547 C544 1.403 . S
C547 C548 1.524 . S
C547 C551 1.400 . S
C548 H533 0.960 . S
C548 H534 0.960 . S
C548 H535 0.960 . S
C548 C547 1.524 . S
C549 C546 1.403 . S
C549 C550 1.392 . S
C549 C553 1.495 . S
C550 C549 1.392 . S
C550 C551 1.385 . S
C550 C552 1.478 . S
C551 H545 0.930 . S
C551 C547 1.400 . S
C551 C550 1.385 . S
C552 C550 1.478 . S
C552 C554 1.381 . S
C552 C558 1.383 . S
C553 C549 1.495 . S
C553 H559 0.959 . S
C553 H560 0.961 . S
C553 H561 0.960 . S
C554 C552 1.381 . S
C554 C555 1.394 . S
C554 H562 0.930 . S
C555 C554 1.394 . S
C555 C556 1.383 . S
C555 H563 0.929 . S
C556 C555 1.383 . S
C556 C557 1.377 . S
C557 H541 0.930 . S
C557 C556 1.377 . S
C557 C558 1.379 . S
C558 H542 0.931 . S
C558 C552 1.383 . S
C558 C557 1.379 . S
H559 C553 0.959 . S
H560 C553 0.961 . S
H561 C553 0.960 . S
H562 C554 0.930 . S
H563 C555 0.929 . S
H564 C572 0.929 . S
H565 C574 0.930 . S
H566 C576 0.930 . S
H567 C579 0.929 . S
H568 C582 0.930 . S
H569 C584 0.960 . S
H570 C584 0.960 . S
H571 C584 0.960 . S
C572 H564 0.929 . S
C572 C573 1.377 . S
C572 C574 1.384 . S
C573 C572 1.377 . S
C573 C579 1.390 . S
C574 H565 0.930 . S
C574 C572 1.384 . S
C574 C575 1.372 . S
C575 C574 1.372 . S
C575 C576 1.400 . S
C575 C580 1.490 . S
C576 H566 0.930 . S
C576 C575 1.400 . S
C576 C579 1.386 . S
H577 C593 0.930 . S
H578 C594 0.931 . S
C579 H567 0.929 . S
C579 C573 1.390 . S
C579 C576 1.386 . S
C580 C575 1.490 . S
C580 C582 1.395 . S
C580 C583 1.403 . S
H581 C587 0.930 . S
C582 H568 0.930 . S
C582 C580 1.395 . S
C582 C585 1.403 . S
C583 C580 1.403 . S
C583 C584 1.524 . S
C583 C587 1.400 . S
C584 H569 0.960 . S
C584 H570 0.960 . S
C584 H571 0.960 . S
C584 C583 1.524 . S
C585 C582 1.403 . S
C585 C586 1.392 . S
C585 C589 1.495 . S
C586 C585 1.392 . S
C586 C587 1.385 . S
C586 C588 1.478 . S
C587 H581 0.930 . S
C587 C583 1.400 . S
C587 C586 1.385 . S
C588 C586 1.478 . S
C588 C590 1.381 . S
C588 C594 1.383 . S
C589 C585 1.495 . S
C589 H595 0.959 . S
C589 H596 0.961 . S
C589 H597 0.960 . S
C590 C588 1.381 . S
C590 C591 1.394 . S
C590 H598 0.930 . S
C591 C590 1.394 . S
C591 C592 1.383 . S
C591 H599 0.929 . S
C592 C591 1.383 . S
C592 C593 1.377 . S
C593 H577 0.930 . S
C593 C592 1.377 . S
C593 C594 1.379 . S
C594 H578 0.931 . S
C594 C588 1.383 . S
C594 C593 1.379 . S
H595 C589 0.959 . S
H596 C589 0.961 . S
H597 C589 0.960 . S
H598 C590 0.930 . S
H599 C591 0.929 . S
H600 C608 0.929 . S
H601 C610 0.930 . S
H602 C612 0.930 . S
H603 C615 0.929 . S
H604 C618 0.930 . S
H605 C620 0.960 . S
H606 C620 0.960 . S
H607 C620 0.960 . S
C608 H600 0.929 . S
C608 C609 1.377 . S
C608 C610 1.384 . S
C609 C608 1.377 . S
C609 C615 1.390 . S
C610 H601 0.930 . S
C610 C608 1.384 . S
C610 C611 1.372 . S
C611 C610 1.372 . S
C611 C612 1.400 . S
C611 C616 1.490 . S
C612 H602 0.930 . S
C612 C611 1.400 . S
C612 C615 1.386 . S
H613 C629 0.930 . S
H614 C630 0.931 . S
C615 H603 0.929 . S
C615 C609 1.390 . S
C615 C612 1.386 . S
C616 C611 1.490 . S
C616 C618 1.395 . S
C616 C619 1.403 . S
H617 C623 0.930 . S
C618 H604 0.930 . S
C618 C616 1.395 . S
C618 C621 1.403 . S
C619 C616 1.403 . S
C619 C620 1.524 . S
C619 C623 1.400 . S
C620 H605 0.960 . S
C620 H606 0.960 . S
C620 H607 0.960 . S
C620 C619 1.524 . S
C621 C618 1.403 . S
C621 C622 1.392 . S
C621 C625 1.495 . S
C622 C621 1.392 . S
C622 C623 1.385 . S
C622 C624 1.478 . S
C623 H617 0.930 . S
C623 C619 1.400 . S
C623 C622 1.385 . S
C624 C622 1.478 . S
C624 C626 1.381 . S
C624 C630 1.383 . S
C625 C621 1.495 . S
C625 H631 0.959 . S
C625 H632 0.961 . S
C625 H633 0.960 . S
C626 C624 1.381 . S
C626 C627 1.394 . S
C626 H634 0.930 . S
C627 C626 1.394 . S
C627 C628 1.383 . S
C627 H635 0.929 . S
C628 C627 1.383 . S
C628 C629 1.377 . S
C629 H613 0.930 . S
C629 C628 1.377 . S
C629 C630 1.379 . S
C630 H614 0.931 . S
C630 C624 1.383 . S
C630 C629 1.379 . S
H631 C625 0.959 . S
H632 C625 0.961 . S
H633 C625 0.960 . S
H634 C626 0.930 . S
H635 C627 0.929 . S
H636 C644 0.929 . S
H637 C646 0.930 . S
H638 C648 0.930 . S
H639 C651 0.929 . S
H640 C654 0.930 . S
H641 C656 0.960 . S
H642 C656 0.960 . S
H643 C656 0.960 . S
C644 H636 0.929 . S
C644 C645 1.377 . S
C644 C646 1.384 . S
C645 C644 1.377 . S
C645 C651 1.390 . S
C646 H637 0.930 . S
C646 C644 1.384 . S
C646 C647 1.372 . S
C647 C646 1.372 . S
C647 C648 1.400 . S
C647 C652 1.490 . S
C648 H638 0.930 . S
C648 C647 1.400 . S
C648 C651 1.386 . S
H649 C665 0.930 . S
H650 C666 0.931 . S
C651 H639 0.929 . S
C651 C645 1.390 . S
C651 C648 1.386 . S
C652 C647 1.490 . S
C652 C654 1.395 . S
C652 C655 1.403 . S
H653 C659 0.930 . S
C654 H640 0.930 . S
C654 C652 1.395 . S
C654 C657 1.403 . S
C655 C652 1.403 . S
C655 C656 1.524 . S
C655 C659 1.400 . S
C656 H641 0.960 . S
C656 H642 0.960 . S
C656 H643 0.960 . S
C656 C655 1.524 . S
C657 C654 1.403 . S
C657 C658 1.392 . S
C657 C661 1.495 . S
C658 C657 1.392 . S
C658 C659 1.385 . S
C658 C660 1.478 . S
C659 H653 0.930 . S
C659 C655 1.400 . S
C659 C658 1.385 . S
C660 C658 1.478 . S
C660 C662 1.381 . S
C660 C666 1.383 . S
C661 C657 1.495 . S
C661 H667 0.959 . S
C661 H668 0.961 . S
C661 H669 0.960 . S
C662 C660 1.381 . S
C662 C663 1.394 . S
C662 H670 0.930 . S
C663 C662 1.394 . S
C663 C664 1.383 . S
C663 H671 0.929 . S
C664 C663 1.383 . S
C664 C665 1.377 . S
C665 H649 0.930 . S
C665 C664 1.377 . S
C665 C666 1.379 . S
C666 H650 0.931 . S
C666 C660 1.383 . S
C666 C665 1.379 . S
H667 C661 0.959 . S
H668 C661 0.961 . S
H669 C661 0.960 . S
H670 C662 0.930 . S
H671 C663 0.929 . S
H672 C680 0.929 . S
H673 C682 0.930 . S
H674 C684 0.930 . S
H675 C687 0.929 . S
H676 C690 0.930 . S
H677 C692 0.960 . S
H678 C692 0.960 . S
H679 C692 0.960 . S
C680 H672 0.929 . S
C680 C681 1.377 . S
C680 C682 1.384 . S
C681 C680 1.377 . S
C681 C687 1.390 . S
C682 H673 0.930 . S
C682 C680 1.384 . S
C682 C683 1.372 . S
C683 C682 1.372 . S
C683 C684 1.400 . S
C683 C688 1.490 . S
C684 H674 0.930 . S
C684 C683 1.400 . S
C684 C687 1.386 . S
H685 C701 0.930 . S
H686 C702 0.931 . S
C687 H675 0.929 . S
C687 C681 1.390 . S
C687 C684 1.386 . S
C688 C683 1.490 . S
C688 C690 1.395 . S
C688 C691 1.403 . S
H689 C695 0.930 . S
C690 H676 0.930 . S
C690 C688 1.395 . S
C690 C693 1.403 . S
C691 C688 1.403 . S
C691 C692 1.524 . S
C691 C695 1.400 . S
C692 H677 0.960 . S
C692 H678 0.960 . S
C692 H679 0.960 . S
C692 C691 1.524 . S
C693 C690 1.403 . S
C693 C694 1.392 . S
C693 C697 1.495 . S
C694 C693 1.392 . S
C694 C695 1.385 . S
C694 C696 1.478 . S
C695 H689 0.930 . S
C695 C691 1.400 . S
C695 C694 1.385 . S
C696 C694 1.478 . S
C696 C698 1.381 . S
C696 C702 1.383 . S
C697 C693 1.495 . S
C697 H703 0.959 . S
C697 H704 0.961 . S
C697 H705 0.960 . S
C698 C696 1.381 . S
C698 C699 1.394 . S
C698 H706 0.930 . S
C699 C698 1.394 . S
C699 C700 1.383 . S
C699 H707 0.929 . S
C700 C699 1.383 . S
C700 C701 1.377 . S
C701 H685 0.930 . S
C701 C700 1.377 . S
C701 C702 1.379 . S
C702 H686 0.931 . S
C702 C696 1.383 . S
C702 C701 1.379 . S
H703 C697 0.959 . S
H704 C697 0.961 . S
H705 C697 0.960 . S
H706 C698 0.930 . S
H707 C699 0.929 . S
H708 C716 0.929 . S
H709 C718 0.930 . S
H710 C720 0.930 . S
H711 C723 0.929 . S
H712 C726 0.930 . S
H713 C728 0.960 . S
H714 C728 0.960 . S
H715 C728 0.960 . S
C716 H708 0.929 . S
C716 C717 1.377 . S
C716 C718 1.384 . S
C717 C716 1.377 . S
C717 C723 1.390 . S
C718 H709 0.930 . S
C718 C716 1.384 . S
C718 C719 1.372 . S
C719 C718 1.372 . S
C719 C720 1.400 . S
C719 C724 1.490 . S
C720 H710 0.930 . S
C720 C719 1.400 . S
C720 C723 1.386 . S
H721 C737 0.930 . S
H722 C738 0.931 . S
C723 H711 0.929 . S
C723 C717 1.390 . S
C723 C720 1.386 . S
C724 C719 1.490 . S
C724 C726 1.395 . S
C724 C727 1.403 . S
H725 C731 0.930 . S
C726 H712 0.930 . S
C726 C724 1.395 . S
C726 C729 1.403 . S
C727 C724 1.403 . S
C727 C728 1.524 . S
C727 C731 1.400 . S
C728 H713 0.960 . S
C728 H714 0.960 . S
C728 H715 0.960 . S
C728 C727 1.524 . S
C729 C726 1.403 . S
C729 C730 1.392 . S
C729 C733 1.495 . S
C730 C729 1.392 . S
C730 C731 1.385 . S
C730 C732 1.478 . S
C731 H725 0.930 . S
C731 C727 1.400 . S
C731 C730 1.385 . S
C732 C730 1.478 . S
C732 C734 1.381 . S
C732 C738 1.383 . S
C733 C729 1.495 . S
C733 H739 0.959 . S
C733 H740 0.961 . S
C733 H741 0.960 . S
C734 C732 1.381 . S
C734 C735 1.394 . S
C734 H742 0.930 . S
C735 C734 1.394 . S
C735 C736 1.383 . S
C735 H743 0.929 . S
C736 C735 1.383 . S
C736 C737 1.377 . S
C737 H721 0.930 . S
C737 C736 1.377 . S
C737 C738 1.379 . S
C738 H722 0.931 . S
C738 C732 1.383 . S
C738 C737 1.379 . S
H739 C733 0.959 . S
H740 C733 0.961 . S
H741 C733 0.960 . S
H742 C734 0.930 . S
H743 C735 0.929 . S
H744 C752 0.929 . S
H745 C754 0.930 . S
H746 C756 0.930 . S
H747 C759 0.929 . S
H748 C762 0.930 . S
H749 C764 0.960 . S
H750 C764 0.960 . S
H751 C764 0.960 . S
C752 H744 0.929 . S
C752 C753 1.377 . S
C752 C754 1.384 . S
C753 C752 1.377 . S
C753 C759 1.390 . S
C754 H745 0.930 . S
C754 C752 1.384 . S
C754 C755 1.372 . S
C755 C754 1.372 . S
C755 C756 1.400 . S
C755 C760 1.490 . S
C756 H746 0.930 . S
C756 C755 1.400 . S
C756 C759 1.386 . S
H757 C773 0.930 . S
H758 C774 0.931 . S
C759 H747 0.929 . S
C759 C753 1.390 . S
C759 C756 1.386 . S
C760 C755 1.490 . S
C760 C762 1.395 . S
C760 C763 1.403 . S
H761 C767 0.930 . S
C762 H748 0.930 . S
C762 C760 1.395 . S
C762 C765 1.403 . S
C763 C760 1.403 . S
C763 C764 1.524 . S
C763 C767 1.400 . S
C764 H749 0.960 . S
C764 H750 0.960 . S
C764 H751 0.960 . S
C764 C763 1.524 . S
C765 C762 1.403 . S
C765 C766 1.392 . S
C765 C769 1.495 . S
C766 C765 1.392 . S
C766 C767 1.385 . S
C766 C768 1.478 . S
C767 H761 0.930 . S
C767 C763 1.400 . S
C767 C766 1.385 . S
C768 C766 1.478 . S
C768 C770 1.381 . S
C768 C774 1.383 . S
C769 C765 1.495 . S
C769 H775 0.959 . S
C769 H776 0.961 . S
C769 H777 0.960 . S
C770 C768 1.381 . S
C770 C771 1.394 . S
C770 H778 0.930 . S
C771 C770 1.394 . S
C771 C772 1.383 . S
C771 H779 0.929 . S
C772 C771 1.383 . S
C772 C773 1.377 . S
C773 H757 0.930 . S
C773 C772 1.377 . S
C773 C774 1.379 . S
C774 H758 0.931 . S
C774 C768 1.383 . S
C774 C773 1.379 . S
H775 C769 0.959 . S
H776 C769 0.961 . S
H777 C769 0.960 . S
H778 C770 0.930 . S
H779 C771 0.929 . S
H780 C788 0.929 . S
H781 C790 0.930 . S
H782 C792 0.930 . S
H783 C795 0.929 . S
H784 C798 0.930 . S
H785 C800 0.960 . S
H786 C800 0.960 . S
H787 C800 0.960 . S
C788 H780 0.929 . S
C788 C789 1.377 . S
C788 C790 1.384 . S
C789 C788 1.377 . S
C789 C795 1.390 . S
C790 H781 0.930 . S
C790 C788 1.384 . S
C790 C791 1.372 . S
C791 C790 1.372 . S
C791 C792 1.400 . S
C791 C796 1.490 . S
C792 H782 0.930 . S
C792 C791 1.400 . S
C792 C795 1.386 . S
H793 C809 0.930 . S
H794 C810 0.931 . S
C795 H783 0.929 . S
C795 C789 1.390 . S
C795 C792 1.386 . S
C796 C791 1.490 . S
C796 C798 1.395 . S
C796 C799 1.403 . S
H797 C803 0.930 . S
C798 H784 0.930 . S
C798 C796 1.395 . S
C798 C801 1.403 . S
C799 C796 1.403 . S
C799 C800 1.524 . S
C799 C803 1.400 . S
C800 H785 0.960 . S
C800 H786 0.960 . S
C800 H787 0.960 . S
C800 C799 1.524 . S
C801 C798 1.403 . S
C801 C802 1.392 . S
C801 C805 1.495 . S
C802 C801 1.392 . S
C802 C803 1.385 . S
C802 C804 1.478 . S
C803 H797 0.930 . S
C803 C799 1.400 . S
C803 C802 1.385 . S
C804 C802 1.478 . S
C804 C806 1.381 . S
C804 C810 1.383 . S
C805 C801 1.495 . S
C805 H811 0.959 . S
C805 H812 0.961 . S
C805 H813 0.960 . S
C806 C804 1.381 . S
C806 C807 1.394 . S
C806 H814 0.930 . S
C807 C806 1.394 . S
C807 C808 1.383 . S
C807 H815 0.929 . S
C808 C807 1.383 . S
C808 C809 1.377 . S
C809 H793 0.930 . S
C809 C808 1.377 . S
C809 C810 1.379 . S
C810 H794 0.931 . S
C810 C804 1.383 . S
C810 C809 1.379 . S
H811 C805 0.959 . S
H812 C805 0.961 . S
H813 C805 0.960 . S
H814 C806 0.930 . S
H815 C807 0.929 . S
H816 C824 0.929 . S
H817 C826 0.930 . S
H818 C828 0.930 . S
H819 C831 0.929 . S
H820 C834 0.930 . S
H821 C836 0.960 . S
H822 C836 0.960 . S
H823 C836 0.960 . S
C824 H816 0.929 . S
C824 C825 1.377 . S
C824 C826 1.384 . S
C825 C824 1.377 . S
C825 C831 1.390 . S
C826 H817 0.930 . S
C826 C824 1.384 . S
C826 C827 1.372 . S
C827 C826 1.372 . S
C827 C828 1.400 . S
C827 C832 1.490 . S
C828 H818 0.930 . S
C828 C827 1.400 . S
C828 C831 1.386 . S
H829 C845 0.930 . S
H830 C846 0.931 . S
C831 H819 0.929 . S
C831 C825 1.390 . S
C831 C828 1.386 . S
C832 C827 1.490 . S
C832 C834 1.395 . S
C832 C835 1.403 . S
H833 C839 0.930 . S
C834 H820 0.930 . S
C834 C832 1.395 . S
C834 C837 1.403 1_655 S
C835 C832 1.403 . S
C835 C836 1.524 . S
C835 C839 1.400 1_655 S
C836 H821 0.960 . S
C836 H822 0.960 . S
C836 H823 0.960 . S
C836 C835 1.524 . S
C837 C834 1.403 1_455 S
C837 C838 1.392 . S
C837 C841 1.495 . S
C838 C837 1.392 . S
C838 C839 1.385 . S
C838 C840 1.478 . S
C839 H833 0.930 . S
C839 C835 1.400 1_455 S
C839 C838 1.385 . S
C840 C838 1.478 . S
C840 C842 1.381 . S
C840 C846 1.383 . S
C841 C837 1.495 . S
C841 H847 0.959 1_554 S
C841 H848 0.961 1_554 S
C841 H849 0.960 . S
C842 C840 1.381 . S
C842 C843 1.394 . S
C842 H850 0.930 . S
C843 C842 1.394 . S
C843 C844 1.383 . S
C843 H851 0.929 . S
C844 C843 1.383 . S
C844 C845 1.377 . S
C845 H829 0.930 . S
C845 C844 1.377 . S
C845 C846 1.379 . S
C846 H830 0.931 . S
C846 C840 1.383 . S
C846 C845 1.379 . S
H847 C841 0.959 1_556 S
H848 C841 0.961 1_556 S
H849 C841 0.960 . S
H850 C842 0.930 . S
H851 C843 0.929 . S
H852 C860 0.929 . S
H853 C862 0.930 . S
H854 C864 0.930 . S
H855 C867 0.929 . S
H856 C870 0.930 . S
H857 C872 0.960 . S
H858 C872 0.960 . S
H859 C872 0.960 . S
C860 H852 0.929 . S
C860 C861 1.377 . S
C860 C862 1.384 . S
C861 C860 1.377 . S
C861 C867 1.390 . S
C862 H853 0.930 . S
C862 C860 1.384 . S
C862 C863 1.372 . S
C863 C862 1.372 . S
C863 C864 1.400 . S
C863 C868 1.490 . S
C864 H854 0.930 . S
C864 C863 1.400 . S
C864 C867 1.386 . S
H865 C881 0.930 . S
H866 C882 0.931 . S
C867 H855 0.929 . S
C867 C861 1.390 . S
C867 C864 1.386 . S
C868 C863 1.490 . S
C868 C870 1.395 . S
C868 C871 1.403 . S
H869 C875 0.930 . S
C870 H856 0.930 . S
C870 C868 1.395 . S
C870 C873 1.403 . S
C871 C868 1.403 . S
C871 C872 1.524 . S
C871 C875 1.400 . S
C872 H857 0.960 . S
C872 H858 0.960 . S
C872 H859 0.960 . S
C872 C871 1.524 . S
C873 C870 1.403 . S
C873 C874 1.392 . S
C873 C877 1.495 . S
C874 C873 1.392 . S
C874 C875 1.385 . S
C874 C876 1.478 . S
C875 H869 0.930 . S
C875 C871 1.400 . S
C875 C874 1.385 . S
C876 C874 1.478 . S
C876 C878 1.381 . S
C876 C882 1.383 . S
C877 C873 1.495 . S
C877 H883 0.959 . S
C877 H884 0.961 . S
C877 H885 0.960 . S
C878 C876 1.381 . S
C878 C879 1.394 . S
C878 H886 0.930 . S
C879 C878 1.394 . S
C879 C880 1.383 . S
C879 H887 0.929 . S
C880 C879 1.383 . S
C880 C881 1.377 . S
C881 H865 0.930 . S
C881 C880 1.377 . S
C881 C882 1.379 . S
C882 H866 0.931 . S
C882 C876 1.383 . S
C882 C881 1.379 . S
H883 C877 0.959 . S
H884 C877 0.961 . S
H885 C877 0.960 . S
H886 C878 0.930 . S
H887 C879 0.929 . S
H888 C896 0.929 . S
H889 C898 0.930 . S
H890 C900 0.930 . S
H891 C903 0.929 . S
H892 C906 0.930 . S
H893 C908 0.960 1_554 S
H894 C908 0.960 . S
H895 C908 0.960 . S
C896 H888 0.929 . S
C896 C897 1.377 . S
C896 C898 1.384 . S
C897 C896 1.377 . S
C897 C903 1.390 . S
C898 H889 0.930 . S
C898 C896 1.384 . S
C898 C899 1.372 . S
C899 C898 1.372 . S
C899 C900 1.400 . S
C899 C904 1.490 . S
C900 H890 0.930 . S
C900 C899 1.400 . S
C900 C903 1.386 . S
H901 C917 0.930 . S
H902 C918 0.931 . S
C903 H891 0.929 . S
C903 C897 1.390 . S
C903 C900 1.386 . S
C904 C899 1.490 . S
C904 C906 1.395 . S
C904 C907 1.403 . S
H905 C911 0.930 . S
C906 H892 0.930 . S
C906 C904 1.395 . S
C906 C909 1.403 1_655 S
C907 C904 1.403 . S
C907 C908 1.524 . S
C907 C911 1.400 1_655 S
C908 H893 0.960 1_556 S
C908 H894 0.960 . S
C908 H895 0.960 . S
C908 C907 1.524 . S
C909 C906 1.403 1_455 S
C909 C910 1.392 . S
C909 C913 1.495 . S
C910 C909 1.392 . S
C910 C911 1.385 . S
C910 C912 1.478 . S
C911 H905 0.930 . S
C911 C907 1.400 1_455 S
C911 C910 1.385 . S
C912 C910 1.478 . S
C912 C914 1.381 . S
C912 C918 1.383 . S
C913 C909 1.495 . S
C913 H919 0.959 . S
C913 H920 0.961 . S
C913 H921 0.960 . S
C914 C912 1.381 . S
C914 C915 1.394 . S
C914 H922 0.930 . S
C915 C914 1.394 . S
C915 C916 1.383 . S
C915 H923 0.929 . S
C916 C915 1.383 . S
C916 C917 1.377 . S
C917 H901 0.930 . S
C917 C916 1.377 . S
C917 C918 1.379 . S
C918 H902 0.931 . S
C918 C912 1.383 . S
C918 C917 1.379 . S
H919 C913 0.959 . S
H920 C913 0.961 . S
H921 C913 0.960 . S
H922 C914 0.930 . S
H923 C915 0.929 . S
H924 C932 0.929 . S
H925 C934 0.930 . S
H926 C936 0.930 . S
H927 C939 0.929 . S
H928 C942 0.930 . S
H929 C944 0.960 . S
H930 C944 0.960 . S
H931 C944 0.960 . S
C932 H924 0.929 . S
C932 C933 1.377 . S
C932 C934 1.384 . S
C933 C932 1.377 . S
C933 C939 1.390 . S
C934 H925 0.930 . S
C934 C932 1.384 . S
C934 C935 1.372 . S
C935 C934 1.372 . S
C935 C936 1.400 . S
C935 C940 1.490 . S
C936 H926 0.930 . S
C936 C935 1.400 . S
C936 C939 1.386 . S
H937 C953 0.930 . S
H938 C954 0.931 . S
C939 H927 0.929 . S
C939 C933 1.390 . S
C939 C936 1.386 . S
C940 C935 1.490 . S
C940 C942 1.395 . S
C940 C943 1.403 . S
H941 C947 0.930 . S
C942 H928 0.930 . S
C942 C940 1.395 . S
C942 C945 1.403 . S
C943 C940 1.403 . S
C943 C944 1.524 . S
C943 C947 1.400 . S
C944 H929 0.960 . S
C944 H930 0.960 . S
C944 H931 0.960 . S
C944 C943 1.524 . S
C945 C942 1.403 . S
C945 C946 1.392 . S
C945 C949 1.495 . S
C946 C945 1.392 . S
C946 C947 1.385 . S
C946 C948 1.478 . S
C947 H941 0.930 . S
C947 C943 1.400 . S
C947 C946 1.385 . S
C948 C946 1.478 . S
C948 C950 1.381 . S
C948 C954 1.383 . S
C949 C945 1.495 . S
C949 H955 0.959 . S
C949 H956 0.961 . S
C949 H957 0.960 . S
C950 C948 1.381 . S
C950 C951 1.394 . S
C950 H958 0.930 . S
C951 C950 1.394 . S
C951 C952 1.383 . S
C951 H959 0.929 . S
C952 C951 1.383 . S
C952 C953 1.377 . S
C953 H937 0.930 . S
C953 C952 1.377 . S
C953 C954 1.379 . S
C954 H938 0.931 . S
C954 C948 1.383 . S
C954 C953 1.379 . S
H955 C949 0.959 . S
H956 C949 0.961 . S
H957 C949 0.960 . S
H958 C950 0.930 . S
H959 C951 0.929 . S
H960 C968 0.929 . S
H961 C970 0.930 . S
H962 C972 0.930 . S
H963 C975 0.929 . S
H964 C978 0.930 . S
H965 C980 0.960 . S
H966 C980 0.960 . S
H967 C980 0.960 . S
C968 H960 0.929 . S
C968 C969 1.377 . S
C968 C970 1.384 . S
C969 C968 1.377 . S
C969 C975 1.390 . S
C970 H961 0.930 . S
C970 C968 1.384 . S
C970 C971 1.372 . S
C971 C970 1.372 . S
C971 C972 1.400 . S
C971 C976 1.490 . S
C972 H962 0.930 . S
C972 C971 1.400 . S
C972 C975 1.386 . S
H973 C989 0.930 . S
H974 C990 0.931 . S
C975 H963 0.929 . S
C975 C969 1.390 . S
C975 C972 1.386 . S
C976 C971 1.490 . S
C976 C978 1.395 . S
C976 C979 1.403 . S
H977 C983 0.930 . S
C978 H964 0.930 . S
C978 C976 1.395 . S
C978 C981 1.403 . S
C979 C976 1.403 . S
C979 C980 1.524 . S
C979 C983 1.400 . S
C980 H965 0.960 . S
C980 H966 0.960 . S
C980 H967 0.960 . S
C980 C979 1.524 . S
C981 C978 1.403 . S
C981 C982 1.392 . S
C981 C985 1.495 . S
C982 C981 1.392 . S
C982 C983 1.385 . S
C982 C984 1.478 . S
C983 H977 0.930 . S
C983 C979 1.400 . S
C983 C982 1.385 . S
C984 C982 1.478 . S
C984 C986 1.381 . S
C984 C990 1.383 . S
C985 C981 1.495 . S
C985 H991 0.959 . S
C985 H992 0.961 . S
C985 H993 0.960 . S
C986 C984 1.381 . S
C986 C987 1.394 . S
C986 H994 0.930 . S
C987 C986 1.394 . S
C987 C988 1.383 . S
C987 H995 0.929 . S
C988 C987 1.383 . S
C988 C989 1.377 . S
C989 H973 0.930 . S
C989 C988 1.377 . S
C989 C990 1.379 . S
C990 H974 0.931 . S
C990 C984 1.383 . S
C990 C989 1.379 . S
H991 C985 0.959 . S
H992 C985 0.961 . S
H993 C985 0.960 . S
H994 C986 0.930 . S
H995 C987 0.929 . S
H996 C1004 0.929 . S
H997 C1006 0.930 . S
H998 C1008 0.930 . S
H999 C1011 0.929 . S
H1000 C1014 0.930 . S
H1001 C1016 0.960 . S
H1002 C1016 0.960 . S
H1003 C1016 0.960 . S
C1004 H996 0.929 . S
C1004 C1005 1.377 . S
C1004 C1006 1.384 . S
C1005 C1004 1.377 . S
C1005 C1011 1.390 . S
C1006 H997 0.930 . S
C1006 C1004 1.384 . S
C1006 C1007 1.372 . S
C1007 C1006 1.372 . S
C1007 C1008 1.400 . S
C1007 C1012 1.490 . S
C1008 H998 0.930 . S
C1008 C1007 1.400 . S
C1008 C1011 1.386 . S
H1009 C1025 0.930 . S
H1010 C1026 0.931 . S
C1011 H999 0.929 . S
C1011 C1005 1.390 . S
C1011 C1008 1.386 . S
C1012 C1007 1.490 . S
C1012 C1014 1.395 . S
C1012 C1015 1.403 . S
H1013 C1019 0.930 . S
C1014 H1000 0.930 . S
C1014 C1012 1.395 . S
C1014 C1017 1.403 1_455 S
C1015 C1012 1.403 . S
C1015 C1016 1.524 . S
C1015 C1019 1.400 1_455 S
C1016 H1001 0.960 . S
C1016 H1002 0.960 . S
C1016 H1003 0.960 . S
C1016 C1015 1.524 . S
C1017 C1014 1.403 1_655 S
C1017 C1018 1.392 . S
C1017 C1021 1.495 . S
C1018 C1017 1.392 . S
C1018 C1019 1.385 . S
C1018 C1020 1.478 . S
C1019 H1013 0.930 . S
C1019 C1015 1.400 1_655 S
C1019 C1018 1.385 . S
C1020 C1018 1.478 . S
C1020 C1022 1.381 . S
C1020 C1026 1.383 . S
C1021 C1017 1.495 . S
C1021 H1027 0.959 . S
C1021 H1028 0.961 . S
C1021 H1029 0.960 . S
C1022 C1020 1.381 . S
C1022 C1023 1.394 . S
C1022 H1030 0.930 . S
C1023 C1022 1.394 . S
C1023 C1024 1.383 . S
C1023 H1031 0.929 . S
C1024 C1023 1.383 . S
C1024 C1025 1.377 . S
C1025 H1009 0.930 . S
C1025 C1024 1.377 . S
C1025 C1026 1.379 . S
C1026 H1010 0.931 . S
C1026 C1020 1.383 . S
C1026 C1025 1.379 . S
H1027 C1021 0.959 . S
H1028 C1021 0.961 . S
H1029 C1021 0.960 . S
H1030 C1022 0.930 . S
H1031 C1023 0.929 . S
H1032 C1040 0.929 . S
H1033 C1042 0.930 . S
H1034 C1044 0.930 . S
H1035 C1047 0.929 . S
H1036 C1050 0.930 . S
H1037 C1052 0.960 1_554 S
H1038 C1052 0.960 . S
H1039 C1052 0.960 . S
C1040 H1032 0.929 . S
C1040 C1041 1.377 . S
C1040 C1042 1.384 . S
C1041 C1040 1.377 . S
C1041 C1047 1.390 . S
C1042 H1033 0.930 . S
C1042 C1040 1.384 . S
C1042 C1043 1.372 . S
C1043 C1042 1.372 . S
C1043 C1044 1.400 . S
C1043 C1048 1.490 . S
C1044 H1034 0.930 . S
C1044 C1043 1.400 . S
C1044 C1047 1.386 . S
H1045 C1061 0.930 . S
H1046 C1062 0.931 . S
C1047 H1035 0.929 . S
C1047 C1041 1.390 . S
C1047 C1044 1.386 . S
C1048 C1043 1.490 . S
C1048 C1050 1.395 . S
C1048 C1051 1.403 . S
H1049 C1055 0.930 . S
C1050 H1036 0.930 . S
C1050 C1048 1.395 . S
C1050 C1053 1.403 . S
C1051 C1048 1.403 . S
C1051 C1052 1.524 . S
C1051 C1055 1.400 . S
C1052 H1037 0.960 1_556 S
C1052 H1038 0.960 . S
C1052 H1039 0.960 . S
C1052 C1051 1.524 . S
C1053 C1050 1.403 . S
C1053 C1054 1.392 . S
C1053 C1057 1.495 . S
C1054 C1053 1.392 . S
C1054 C1055 1.385 . S
C1054 C1056 1.478 . S
C1055 H1049 0.930 . S
C1055 C1051 1.400 . S
C1055 C1054 1.385 . S
C1056 C1054 1.478 . S
C1056 C1058 1.381 . S
C1056 C1062 1.383 . S
C1057 C1053 1.495 . S
C1057 H1063 0.959 . S
C1057 H1064 0.961 . S
C1057 H1065 0.960 . S
C1058 C1056 1.381 . S
C1058 C1059 1.394 . S
C1058 H1066 0.930 . S
C1059 C1058 1.394 . S
C1059 C1060 1.383 . S
C1059 H1067 0.929 . S
C1060 C1059 1.383 . S
C1060 C1061 1.377 . S
C1061 H1045 0.930 . S
C1061 C1060 1.377 . S
C1061 C1062 1.379 . S
C1062 H1046 0.931 . S
C1062 C1056 1.383 . S
C1062 C1061 1.379 . S
H1063 C1057 0.959 . S
H1064 C1057 0.961 . S
H1065 C1057 0.960 . S
H1066 C1058 0.930 . S
H1067 C1059 0.929 . S
H1068 C1076 0.929 . S
H1069 C1078 0.930 . S
H1070 C1080 0.930 . S
H1071 C1083 0.929 . S
H1072 C1086 0.930 . S
H1073 C1088 0.960 . S
H1074 C1088 0.960 . S
H1075 C1088 0.960 . S
C1076 H1068 0.929 . S
C1076 C1077 1.377 . S
C1076 C1078 1.384 . S
C1077 C1076 1.377 . S
C1077 C1083 1.390 . S
C1078 H1069 0.930 . S
C1078 C1076 1.384 . S
C1078 C1079 1.372 . S
C1079 C1078 1.372 . S
C1079 C1080 1.400 . S
C1079 C1084 1.490 . S
C1080 H1070 0.930 . S
C1080 C1079 1.400 . S
C1080 C1083 1.386 . S
H1081 C1097 0.930 . S
H1082 C1098 0.931 . S
C1083 H1071 0.929 . S
C1083 C1077 1.390 . S
C1083 C1080 1.386 . S
C1084 C1079 1.490 . S
C1084 C1086 1.395 . S
C1084 C1087 1.403 . S
H1085 C1091 0.930 . S
C1086 H1072 0.930 . S
C1086 C1084 1.395 . S
C1086 C1089 1.403 1_655 S
C1087 C1084 1.403 . S
C1087 C1088 1.524 . S
C1087 C1091 1.400 1_655 S
C1088 H1073 0.960 . S
C1088 H1074 0.960 . S
C1088 H1075 0.960 . S
C1088 C1087 1.524 . S
C1089 C1086 1.403 1_455 S
C1089 C1090 1.392 . S
C1089 C1093 1.495 . S
C1090 C1089 1.392 . S
C1090 C1091 1.385 . S
C1090 C1092 1.478 . S
C1091 H1085 0.930 . S
C1091 C1087 1.400 1_455 S
C1091 C1090 1.385 . S
C1092 C1090 1.478 . S
C1092 C1094 1.381 . S
C1092 C1098 1.383 . S
C1093 C1089 1.495 . S
C1093 H1099 0.959 . S
C1093 H1100 0.961 . S
C1093 H1101 0.960 . S
C1094 C1092 1.381 . S
C1094 C1095 1.394 . S
C1094 H1102 0.930 . S
C1095 C1094 1.394 . S
C1095 C1096 1.383 . S
C1095 H1103 0.929 . S
C1096 C1095 1.383 . S
C1096 C1097 1.377 . S
C1097 H1081 0.930 . S
C1097 C1096 1.377 . S
C1097 C1098 1.379 . S
C1098 H1082 0.931 . S
C1098 C1092 1.383 . S
C1098 C1097 1.379 . S
H1099 C1093 0.959 . S
H1100 C1093 0.961 . S
H1101 C1093 0.960 . S
H1102 C1094 0.930 . S
H1103 C1095 0.929 . S
H1104 C1112 0.929 . S
H1105 C1114 0.930 . S
H1106 C1116 0.930 1_556 S
H1107 C1119 0.929 . S
H1108 C1122 0.930 . S
H1109 C1124 0.960 . S
H1110 C1124 0.960 . S
H1111 C1124 0.960 . S
C1112 H1104 0.929 . S
C1112 C1113 1.377 . S
C1112 C1114 1.384 . S
C1113 C1112 1.377 . S
C1113 C1119 1.390 . S
C1114 H1105 0.930 . S
C1114 C1112 1.384 . S
C1114 C1115 1.372 . S
C1115 C1114 1.372 . S
C1115 C1116 1.400 . S
C1115 C1120 1.490 . S
C1116 H1106 0.930 1_554 S
C1116 C1115 1.400 . S
C1116 C1119 1.386 . S
H1117 C1133 0.930 . S
H1118 C1134 0.931 . S
C1119 H1107 0.929 . S
C1119 C1113 1.390 . S
C1119 C1116 1.386 . S
C1120 C1115 1.490 . S
C1120 C1122 1.395 . S
C1120 C1123 1.403 1_554 S
H1121 C1127 0.930 . S
C1122 H1108 0.930 . S
C1122 C1120 1.395 . S
C1122 C1125 1.403 1_545 S
C1123 C1120 1.403 1_556 S
C1123 C1124 1.524 . S
C1123 C1127 1.400 1_545 S
C1124 H1109 0.960 . S
C1124 H1110 0.960 . S
C1124 H1111 0.960 . S
C1124 C1123 1.524 . S
C1125 C1122 1.403 1_565 S
C1125 C1126 1.392 1_554 S
C1125 C1129 1.495 . S
C1126 C1125 1.392 1_556 S
C1126 C1127 1.385 . S
C1126 C1128 1.478 . S
C1127 H1121 0.930 . S
C1127 C1123 1.400 1_565 S
C1127 C1126 1.385 . S
C1128 C1126 1.478 . S
C1128 C1130 1.381 . S
C1128 C1134 1.383 . S
C1129 C1125 1.495 . S
C1129 H1135 0.959 . S
C1129 H1136 0.961 . S
C1129 H1137 0.960 . S
C1130 C1128 1.381 . S
C1130 C1131 1.394 . S
C1130 H1138 0.930 1_556 S
C1131 C1130 1.394 . S
C1131 C1132 1.383 . S
C1131 H1139 0.929 . S
C1132 C1131 1.383 . S
C1132 C1133 1.377 . S
C1133 H1117 0.930 . S
C1133 C1132 1.377 . S
C1133 C1134 1.379 . S
C1134 H1118 0.931 . S
C1134 C1128 1.383 . S
C1134 C1133 1.379 . S
H1135 C1129 0.959 . S
H1136 C1129 0.961 . S
H1137 C1129 0.960 . S
H1138 C1130 0.930 1_554 S
H1139 C1131 0.929 . S
H1140 C1148 0.929 . S
H1141 C1150 0.930 . S
H1142 C1152 0.930 . S
H1143 C1155 0.929 . S
H1144 C1158 0.930 . S
H1145 C1160 0.960 . S
H1146 C1160 0.960 . S
H1147 C1160 0.960 . S
C1148 H1140 0.929 . S
C1148 C1149 1.377 . S
C1148 C1150 1.384 . S
C1149 C1148 1.377 . S
C1149 C1155 1.390 . S
C1150 H1141 0.930 . S
C1150 C1148 1.384 . S
C1150 C1151 1.372 . S
C1151 C1150 1.372 . S
C1151 C1152 1.400 . S
C1151 C1156 1.490 . S
C1152 H1142 0.930 . S
C1152 C1151 1.400 . S
C1152 C1155 1.386 . S
H1153 C1169 0.930 . S
H1154 C1170 0.931 . S
C1155 H1143 0.929 . S
C1155 C1149 1.390 . S
C1155 C1152 1.386 . S
C1156 C1151 1.490 . S
C1156 C1158 1.395 . S
C1156 C1159 1.403 . S
H1157 C1163 0.930 . S
C1158 H1144 0.930 . S
C1158 C1156 1.395 . S
C1158 C1161 1.403 1_565 S
C1159 C1156 1.403 . S
C1159 C1160 1.524 . S
C1159 C1163 1.400 1_565 S
C1160 H1145 0.960 . S
C1160 H1146 0.960 . S
C1160 H1147 0.960 . S
C1160 C1159 1.524 . S
C1161 C1158 1.403 1_545 S
C1161 C1162 1.392 . S
C1161 C1165 1.495 . S
C1162 C1161 1.392 . S
C1162 C1163 1.385 . S
C1162 C1164 1.478 . S
C1163 H1157 0.930 . S
C1163 C1159 1.400 1_545 S
C1163 C1162 1.385 . S
C1164 C1162 1.478 . S
C1164 C1166 1.381 . S
C1164 C1170 1.383 . S
C1165 C1161 1.495 . S
C1165 H1171 0.959 . S
C1165 H1172 0.961 . S
C1165 H1173 0.960 . S
C1166 C1164 1.381 . S
C1166 C1167 1.394 . S
C1166 H1174 0.930 . S
C1167 C1166 1.394 . S
C1167 C1168 1.383 . S
C1167 H1175 0.929 . S
C1168 C1167 1.383 . S
C1168 C1169 1.377 . S
C1169 H1153 0.930 . S
C1169 C1168 1.377 . S
C1169 C1170 1.379 . S
C1170 H1154 0.931 . S
C1170 C1164 1.383 . S
C1170 C1169 1.379 . S
H1171 C1165 0.959 . S
H1172 C1165 0.961 . S
H1173 C1165 0.960 . S
H1174 C1166 0.930 . S
H1175 C1167 0.929 . S
H1176 C1184 0.929 . S
H1177 C1186 0.930 . S
H1178 C1188 0.930 1_554 S
H1179 C1191 0.929 . S
H1180 C1194 0.930 . S
H1181 C1196 0.960 . S
H1182 C1196 0.960 . S
H1183 C1196 0.960 . S
C1184 H1176 0.929 . S
C1184 C1185 1.377 . S
C1184 C1186 1.384 . S
C1185 C1184 1.377 . S
C1185 C1191 1.390 . S
C1186 H1177 0.930 . S
C1186 C1184 1.384 . S
C1186 C1187 1.372 . S
C1187 C1186 1.372 . S
C1187 C1188 1.400 . S
C1187 C1192 1.490 . S
C1188 H1178 0.930 1_556 S
C1188 C1187 1.400 . S
C1188 C1191 1.386 . S
H1189 C1205 0.930 . S
H1190 C1206 0.931 . S
C1191 H1179 0.929 . S
C1191 C1185 1.390 . S
C1191 C1188 1.386 . S
C1192 C1187 1.490 . S
C1192 C1194 1.395 . S
C1192 C1195 1.403 1_556 S
H1193 C1199 0.930 . S
C1194 H1180 0.930 . S
C1194 C1192 1.395 . S
C1194 C1197 1.403 1_565 S
C1195 C1192 1.403 1_554 S
C1195 C1196 1.524 . S
C1195 C1199 1.400 1_565 S
C1196 H1181 0.960 . S
C1196 H1182 0.960 . S
C1196 H1183 0.960 . S
C1196 C1195 1.524 . S
C1197 C1194 1.403 1_545 S
C1197 C1198 1.392 1_556 S
C1197 C1201 1.495 . S
C1198 C1197 1.392 1_554 S
C1198 C1199 1.385 . S
C1198 C1200 1.478 . S
C1199 H1193 0.930 . S
C1199 C1195 1.400 1_545 S
C1199 C1198 1.385 . S
C1200 C1198 1.478 . S
C1200 C1202 1.381 . S
C1200 C1206 1.383 . S
C1201 C1197 1.495 . S
C1201 H1207 0.959 . S
C1201 H1208 0.961 . S
C1201 H1209 0.960 . S
C1202 C1200 1.381 . S
C1202 C1203 1.394 . S
C1202 H1210 0.930 1_554 S
C1203 C1202 1.394 . S
C1203 C1204 1.383 . S
C1203 H1211 0.929 . S
C1204 C1203 1.383 . S
C1204 C1205 1.377 . S
C1205 H1189 0.930 . S
C1205 C1204 1.377 . S
C1205 C1206 1.379 . S
C1206 H1190 0.931 . S
C1206 C1200 1.383 . S
C1206 C1205 1.379 . S
H1207 C1201 0.959 . S
H1208 C1201 0.961 . S
H1209 C1201 0.960 . S
H1210 C1202 0.930 1_556 S
H1211 C1203 0.929 . S
H1212 C1220 0.929 . S
H1213 C1222 0.930 . S
H1214 C1224 0.930 . S
H1215 C1227 0.929 . S
H1216 C1230 0.930 . S
H1217 C1232 0.960 1_565 S
H1218 C1232 0.960 . S
H1219 C1232 0.960 . S
C1220 H1212 0.929 . S
C1220 C1221 1.377 . S
C1220 C1222 1.384 . S
C1221 C1220 1.377 . S
C1221 C1227 1.390 . S
C1222 H1213 0.930 . S
C1222 C1220 1.384 . S
C1222 C1223 1.372 . S
C1223 C1222 1.372 . S
C1223 C1224 1.400 . S
C1223 C1228 1.490 . S
C1224 H1214 0.930 . S
C1224 C1223 1.400 . S
C1224 C1227 1.386 . S
H1225 C1241 0.930 . S
H1226 C1242 0.931 . S
C1227 H1215 0.929 . S
C1227 C1221 1.390 . S
C1227 C1224 1.386 . S
C1228 C1223 1.490 . S
C1228 C1230 1.395 . S
C1228 C1231 1.403 . S
H1229 C1235 0.930 . S
C1230 H1216 0.930 . S
C1230 C1228 1.395 . S
C1230 C1233 1.403 1_545 S
C1231 C1228 1.403 . S
C1231 C1232 1.524 . S
C1231 C1235 1.400 1_545 S
C1232 H1217 0.960 1_545 S
C1232 H1218 0.960 . S
C1232 H1219 0.960 . S
C1232 C1231 1.524 . S
C1233 C1230 1.403 1_565 S
C1233 C1234 1.392 . S
C1233 C1237 1.495 . S
C1234 C1233 1.392 . S
C1234 C1235 1.385 . S
C1234 C1236 1.478 . S
C1235 H1229 0.930 . S
C1235 C1231 1.400 1_565 S
C1235 C1234 1.385 . S
C1236 C1234 1.478 . S
C1236 C1238 1.381 . S
C1236 C1242 1.383 . S
C1237 C1233 1.495 . S
C1237 H1243 0.959 1_565 S
C1237 H1244 0.961 . S
C1237 H1245 0.960 . S
C1238 C1236 1.381 . S
C1238 C1239 1.394 . S
C1238 H1246 0.930 . S
C1239 C1238 1.394 . S
C1239 C1240 1.383 . S
C1239 H1247 0.929 . S
C1240 C1239 1.383 . S
C1240 C1241 1.377 . S
C1241 H1225 0.930 . S
C1241 C1240 1.377 . S
C1241 C1242 1.379 . S
C1242 H1226 0.931 . S
C1242 C1236 1.383 . S
C1242 C1241 1.379 . S
H1243 C1237 0.959 1_545 S
H1244 C1237 0.961 . S
H1245 C1237 0.960 . S
H1246 C1238 0.930 . S
H1247 C1239 0.929 . S
H1248 C1256 0.929 . S
H1249 C1258 0.930 . S
H1250 C1260 0.930 1_556 S
H1251 C1263 0.929 . S
H1252 C1266 0.930 . S
H1253 C1268 0.960 . S
H1254 C1268 0.960 . S
H1255 C1268 0.960 . S
C1256 H1248 0.929 . S
C1256 C1257 1.377 . S
C1256 C1258 1.384 . S
C1257 C1256 1.377 . S
C1257 C1263 1.390 . S
C1258 H1249 0.930 . S
C1258 C1256 1.384 . S
C1258 C1259 1.372 . S
C1259 C1258 1.372 . S
C1259 C1260 1.400 . S
C1259 C1264 1.490 . S
C1260 H1250 0.930 1_554 S
C1260 C1259 1.400 . S
C1260 C1263 1.386 . S
H1261 C1277 0.930 . S
H1262 C1278 0.931 . S
C1263 H1251 0.929 . S
C1263 C1257 1.390 . S
C1263 C1260 1.386 . S
C1264 C1259 1.490 . S
C1264 C1266 1.395 . S
C1264 C1267 1.403 1_554 S
H1265 C1271 0.930 . S
C1266 H1252 0.930 . S
C1266 C1264 1.395 . S
C1266 C1269 1.403 . S
C1267 C1264 1.403 1_556 S
C1267 C1268 1.524 . S
C1267 C1271 1.400 . S
C1268 H1253 0.960 . S
C1268 H1254 0.960 . S
C1268 H1255 0.960 . S
C1268 C1267 1.524 . S
C1269 C1266 1.403 . S
C1269 C1270 1.392 1_554 S
C1269 C1273 1.495 . S
C1270 C1269 1.392 1_556 S
C1270 C1271 1.385 . S
C1270 C1272 1.478 . S
C1271 H1265 0.930 . S
C1271 C1267 1.400 . S
C1271 C1270 1.385 . S
C1272 C1270 1.478 . S
C1272 C1274 1.381 . S
C1272 C1278 1.383 . S
C1273 C1269 1.495 . S
C1273 H1279 0.959 . S
C1273 H1280 0.961 . S
C1273 H1281 0.960 . S
C1274 C1272 1.381 . S
C1274 C1275 1.394 . S
C1274 H1282 0.930 1_556 S
C1275 C1274 1.394 . S
C1275 C1276 1.383 . S
C1275 H1283 0.929 . S
C1276 C1275 1.383 . S
C1276 C1277 1.377 . S
C1277 H1261 0.930 . S
C1277 C1276 1.377 . S
C1277 C1278 1.379 . S
C1278 H1262 0.931 . S
C1278 C1272 1.383 . S
C1278 C1277 1.379 . S
H1279 C1273 0.959 . S
H1280 C1273 0.961 . S
H1281 C1273 0.960 . S
H1282 C1274 0.930 1_554 S
H1283 C1275 0.929 . S
H1284 C1292 0.929 . S
H1285 C1294 0.930 . S
H1286 C1296 0.930 . S
H1287 C1299 0.929 . S
H1288 C1302 0.930 . S
H1289 C1304 0.960 . S
H1290 C1304 0.960 . S
H1291 C1304 0.960 . S
C1292 H1284 0.929 . S
C1292 C1293 1.377 . S
C1292 C1294 1.384 . S
C1293 C1292 1.377 . S
C1293 C1299 1.390 . S
C1294 H1285 0.930 . S
C1294 C1292 1.384 . S
C1294 C1295 1.372 . S
C1295 C1294 1.372 . S
C1295 C1296 1.400 . S
C1295 C1300 1.490 . S
C1296 H1286 0.930 . S
C1296 C1295 1.400 . S
C1296 C1299 1.386 . S
H1297 C1313 0.930 . S
H1298 C1314 0.931 . S
C1299 H1287 0.929 . S
C1299 C1293 1.390 . S
C1299 C1296 1.386 . S
C1300 C1295 1.490 . S
C1300 C1302 1.395 . S
C1300 C1303 1.403 . S
H1301 C1307 0.930 . S
C1302 H1288 0.930 . S
C1302 C1300 1.395 . S
C1302 C1305 1.403 . S
C1303 C1300 1.403 . S
C1303 C1304 1.524 . S
C1303 C1307 1.400 . S
C1304 H1289 0.960 . S
C1304 H1290 0.960 . S
C1304 H1291 0.960 . S
C1304 C1303 1.524 . S
C1305 C1302 1.403 . S
C1305 C1306 1.392 . S
C1305 C1309 1.495 . S
C1306 C1305 1.392 . S
C1306 C1307 1.385 . S
C1306 C1308 1.478 . S
C1307 H1301 0.930 . S
C1307 C1303 1.400 . S
C1307 C1306 1.385 . S
C1308 C1306 1.478 . S
C1308 C1310 1.381 . S
C1308 C1314 1.383 . S
C1309 C1305 1.495 . S
C1309 H1315 0.959 . S
C1309 H1316 0.961 . S
C1309 H1317 0.960 . S
C1310 C1308 1.381 . S
C1310 C1311 1.394 . S
C1310 H1318 0.930 . S
C1311 C1310 1.394 . S
C1311 C1312 1.383 . S
C1311 H1319 0.929 . S
C1312 C1311 1.383 . S
C1312 C1313 1.377 . S
C1313 H1297 0.930 . S
C1313 C1312 1.377 . S
C1313 C1314 1.379 . S
C1314 H1298 0.931 . S
C1314 C1308 1.383 . S
C1314 C1313 1.379 . S
H1315 C1309 0.959 . S
H1316 C1309 0.961 . S
H1317 C1309 0.960 . S
H1318 C1310 0.930 . S
H1319 C1311 0.929 . S
H1320 C1328 0.929 . S
H1321 C1330 0.919 1_554 S
H1322 C1332 0.930 . S
H1323 C1335 0.929 . S
H1324 C1338 0.930 . S
H1325 C1340 0.960 . S
H1326 C1340 0.960 . S
H1327 C1340 0.960 . S
C1328 H1320 0.929 . S
C1328 C1329 1.377 . S
C1328 C1330 1.384 . S
C1329 C1328 1.377 . S
C1329 C1335 1.390 . S
C1330 H1321 0.919 1_556 S
C1330 C1328 1.384 . S
C1330 C1331 1.372 . S
C1331 C1330 1.372 . S
C1331 C1332 1.400 . S
C1331 C1336 1.490 . S
C1332 H1322 0.930 . S
C1332 C1331 1.400 . S
C1332 C1335 1.386 . S
H1333 C1349 0.930 . S
H1334 C1350 0.931 . S
C1335 H1323 0.929 . S
C1335 C1329 1.390 . S
C1335 C1332 1.386 . S
C1336 C1331 1.490 . S
C1336 C1338 1.395 1_556 S
C1336 C1339 1.403 . S
H1337 C1343 0.930 . S
C1338 H1324 0.930 . S
C1338 C1336 1.395 1_554 S
C1338 C1341 1.403 . S
C1339 C1336 1.403 . S
C1339 C1340 1.524 . S
C1339 C1343 1.400 . S
C1340 H1325 0.960 . S
C1340 H1326 0.960 . S
C1340 H1327 0.960 . S
C1340 C1339 1.524 . S
C1341 C1338 1.403 . S
C1341 C1342 1.392 . S
C1341 C1345 1.495 . S
C1342 C1341 1.392 . S
C1342 C1343 1.385 1_554 S
C1342 C1344 1.478 . S
C1343 H1337 0.930 . S
C1343 C1339 1.400 . S
C1343 C1342 1.385 1_556 S
C1344 C1342 1.478 . S
C1344 C1346 1.381 . S
C1344 C1350 1.383 . S
C1345 C1341 1.495 . S
C1345 H1351 0.959 . S
C1345 H1352 0.961 . S
C1345 H1353 0.960 . S
C1346 C1344 1.381 . S
C1346 C1347 1.394 . S
C1346 H1354 0.930 . S
C1347 C1346 1.394 . S
C1347 C1348 1.383 . S
C1347 H1355 0.929 . S
C1348 C1347 1.383 . S
C1348 C1349 1.377 . S
C1349 H1333 0.930 . S
C1349 C1348 1.377 . S
C1349 C1350 1.379 . S
C1350 H1334 0.931 . S
C1350 C1344 1.383 . S
C1350 C1349 1.379 . S
H1351 C1345 0.959 . S
H1352 C1345 0.961 . S
H1353 C1345 0.960 . S
H1354 C1346 0.930 . S
H1355 C1347 0.929 . S
H1356 C1364 0.929 . S
H1357 C1366 0.930 . S
H1358 C1368 0.930 . S
H1359 C1371 0.929 . S
H1360 C1374 0.930 . S
H1361 C1376 0.960 . S
H1362 C1376 0.960 . S
H1363 C1376 0.960 . S
C1364 H1356 0.929 . S
C1364 C1365 1.377 . S
C1364 C1366 1.384 . S
C1365 C1364 1.377 . S
C1365 C1371 1.390 . S
C1366 H1357 0.930 . S
C1366 C1364 1.384 . S
C1366 C1367 1.372 . S
C1367 C1366 1.372 . S
C1367 C1368 1.400 . S
C1367 C1372 1.490 . S
C1368 H1358 0.930 . S
C1368 C1367 1.400 . S
C1368 C1371 1.386 . S
H1369 C1385 0.930 . S
H1370 C1386 0.931 . S
C1371 H1359 0.929 . S
C1371 C1365 1.390 . S
C1371 C1368 1.386 . S
C1372 C1367 1.490 . S
C1372 C1374 1.395 . S
C1372 C1375 1.403 . S
H1373 C1379 0.930 . S
C1374 H1360 0.930 . S
C1374 C1372 1.395 . S
C1374 C1377 1.403 . S
C1375 C1372 1.403 . S
C1375 C1376 1.524 . S
C1375 C1379 1.400 . S
C1376 H1361 0.960 . S
C1376 H1362 0.960 . S
C1376 H1363 0.960 . S
C1376 C1375 1.524 . S
C1377 C1374 1.403 . S
C1377 C1378 1.392 . S
C1377 C1381 1.495 . S
C1378 C1377 1.392 . S
C1378 C1379 1.385 . S
C1378 C1380 1.478 . S
C1379 H1373 0.930 . S
C1379 C1375 1.400 . S
C1379 C1378 1.385 . S
C1380 C1378 1.478 . S
C1380 C1382 1.381 . S
C1380 C1386 1.383 . S
C1381 C1377 1.495 . S
C1381 H1387 0.959 . S
C1381 H1388 0.961 . S
C1381 H1389 0.960 . S
C1382 C1380 1.381 . S
C1382 C1383 1.394 . S
C1382 H1390 0.930 . S
C1383 C1382 1.394 . S
C1383 C1384 1.383 . S
C1383 H1391 0.929 . S
C1384 C1383 1.383 . S
C1384 C1385 1.377 . S
C1385 H1369 0.930 . S
C1385 C1384 1.377 . S
C1385 C1386 1.379 . S
C1386 H1370 0.931 . S
C1386 C1380 1.383 . S
C1386 C1385 1.379 . S
H1387 C1381 0.959 . S
H1388 C1381 0.961 . S
H1389 C1381 0.960 . S
H1390 C1382 0.930 . S
H1391 C1383 0.929 . S
H1392 C1400 0.929 . S
H1393 C1402 0.930 . S
H1394 C1404 0.930 . S
H1395 C1407 0.929 . S
H1396 C1410 0.930 . S
H1397 C1412 0.960 . S
H1398 C1412 0.960 . S
H1399 C1412 0.960 . S
C1400 H1392 0.929 . S
C1400 C1401 1.377 . S
C1400 C1402 1.384 . S
C1401 C1400 1.377 . S
C1401 C1407 1.390 . S
C1402 H1393 0.930 . S
C1402 C1400 1.384 . S
C1402 C1403 1.372 . S
C1403 C1402 1.372 . S
C1403 C1404 1.400 . S
C1403 C1408 1.490 . S
C1404 H1394 0.930 . S
C1404 C1403 1.400 . S
C1404 C1407 1.386 . S
H1405 C1421 0.930 . S
H1406 C1422 0.931 . S
C1407 H1395 0.929 . S
C1407 C1401 1.390 . S
C1407 C1404 1.386 . S
C1408 C1403 1.490 . S
C1408 C1410 1.395 . S
C1408 C1411 1.403 . S
H1409 C1415 0.930 . S
C1410 H1396 0.930 . S
C1410 C1408 1.395 . S
C1410 C1413 1.403 . S
C1411 C1408 1.403 . S
C1411 C1412 1.524 . S
C1411 C1415 1.400 . S
C1412 H1397 0.960 . S
C1412 H1398 0.960 . S
C1412 H1399 0.960 . S
C1412 C1411 1.524 . S
C1413 C1410 1.403 . S
C1413 C1414 1.392 . S
C1413 C1417 1.495 . S
C1414 C1413 1.392 . S
C1414 C1415 1.385 . S
C1414 C1416 1.478 . S
C1415 H1409 0.930 . S
C1415 C1411 1.400 . S
C1415 C1414 1.385 . S
C1416 C1414 1.478 . S
C1416 C1418 1.381 . S
C1416 C1422 1.383 . S
C1417 C1413 1.495 . S
C1417 H1423 0.959 . S
C1417 H1424 0.961 . S
C1417 H1425 0.960 . S
C1418 C1416 1.381 . S
C1418 C1419 1.394 . S
C1418 H1426 0.930 . S
C1419 C1418 1.394 . S
C1419 C1420 1.383 . S
C1419 H1427 0.929 . S
C1420 C1419 1.383 . S
C1420 C1421 1.377 . S
C1421 H1405 0.930 . S
C1421 C1420 1.377 . S
C1421 C1422 1.379 . S
C1422 H1406 0.931 . S
C1422 C1416 1.383 . S
C1422 C1421 1.379 . S
H1423 C1417 0.959 . S
H1424 C1417 0.961 . S
H1425 C1417 0.960 . S
H1426 C1418 0.930 . S
H1427 C1419 0.929 . S
H1428 C1436 0.929 . S
H1429 C1438 0.930 . S
H1430 C1440 0.930 . S
H1431 C1443 0.929 . S
H1432 C1446 0.930 . S
H1433 C1448 0.960 . S
H1434 C1448 0.960 . S
H1435 C1448 0.960 . S
C1436 H1428 0.929 . S
C1436 C1437 1.377 . S
C1436 C1438 1.384 . S
C1437 C1436 1.377 . S
C1437 C1443 1.390 . S
C1438 H1429 0.930 . S
C1438 C1436 1.384 . S
C1438 C1439 1.372 . S
C1439 C1438 1.372 . S
C1439 C1440 1.400 . S
C1439 C1444 1.490 . S
C1440 H1430 0.930 . S
C1440 C1439 1.400 . S
C1440 C1443 1.386 . S
H1441 C1457 0.930 . S
H1442 C1458 0.931 . S
C1443 H1431 0.929 . S
C1443 C1437 1.390 . S
C1443 C1440 1.386 . S
C1444 C1439 1.490 . S
C1444 C1446 1.395 . S
C1444 C1447 1.403 . S
H1445 C1451 0.930 . S
C1446 H1432 0.930 . S
C1446 C1444 1.395 . S
C1446 C1449 1.403 . S
C1447 C1444 1.403 . S
C1447 C1448 1.524 . S
C1447 C1451 1.400 . S
C1448 H1433 0.960 . S
C1448 H1434 0.960 . S
C1448 H1435 0.960 . S
C1448 C1447 1.524 . S
C1449 C1446 1.403 . S
C1449 C1450 1.392 . S
C1449 C1453 1.495 . S
C1450 C1449 1.392 . S
C1450 C1451 1.385 . S
C1450 C1452 1.478 . S
C1451 H1445 0.930 . S
C1451 C1447 1.400 . S
C1451 C1450 1.385 . S
C1452 C1450 1.478 . S
C1452 C1454 1.381 . S
C1452 C1458 1.383 . S
C1453 C1449 1.495 . S
C1453 H1459 0.959 . S
C1453 H1460 0.961 . S
C1453 H1461 0.960 . S
C1454 C1452 1.381 . S
C1454 C1455 1.394 . S
C1454 H1462 0.930 . S
C1455 C1454 1.394 . S
C1455 C1456 1.383 . S
C1455 H1463 0.929 . S
C1456 C1455 1.383 . S
C1456 C1457 1.377 . S
C1457 H1441 0.930 . S
C1457 C1456 1.377 . S
C1457 C1458 1.379 . S
C1458 H1442 0.931 . S
C1458 C1452 1.383 . S
C1458 C1457 1.379 . S
H1459 C1453 0.959 . S
H1460 C1453 0.961 . S
H1461 C1453 0.960 . S
H1462 C1454 0.930 . S
H1463 C1455 0.929 . S
H1464 C1472 0.929 . S
H1465 C1474 0.930 . S
H1466 C1476 0.930 . S
H1467 C1479 0.929 . S
H1468 C1482 0.930 . S
H1469 C1484 0.960 . S
H1470 C1484 0.960 . S
H1471 C1484 0.960 . S
C1472 H1464 0.929 . S
C1472 C1473 1.377 . S
C1472 C1474 1.384 . S
C1473 C1472 1.377 . S
C1473 C1479 1.390 . S
C1474 H1465 0.930 . S
C1474 C1472 1.384 . S
C1474 C1475 1.372 . S
C1475 C1474 1.372 . S
C1475 C1476 1.400 . S
C1475 C1480 1.490 . S
C1476 H1466 0.930 . S
C1476 C1475 1.400 . S
C1476 C1479 1.386 . S
H1477 C1493 0.930 . S
H1478 C1494 0.931 . S
C1479 H1467 0.929 . S
C1479 C1473 1.390 . S
C1479 C1476 1.386 . S
C1480 C1475 1.490 . S
C1480 C1482 1.395 . S
C1480 C1483 1.403 . S
H1481 C1487 0.930 . S
C1482 H1468 0.930 . S
C1482 C1480 1.395 . S
C1482 C1485 1.403 . S
C1483 C1480 1.403 . S
C1483 C1484 1.524 . S
C1483 C1487 1.400 . S
C1484 H1469 0.960 . S
C1484 H1470 0.960 . S
C1484 H1471 0.960 . S
C1484 C1483 1.524 . S
C1485 C1482 1.403 . S
C1485 C1486 1.392 . S
C1485 C1489 1.495 . S
C1486 C1485 1.392 . S
C1486 C1487 1.385 . S
C1486 C1488 1.478 . S
C1487 H1481 0.930 . S
C1487 C1483 1.400 . S
C1487 C1486 1.385 . S
C1488 C1486 1.478 . S
C1488 C1490 1.381 . S
C1488 C1494 1.383 . S
C1489 C1485 1.495 . S
C1489 H1495 0.959 . S
C1489 H1496 0.961 . S
C1489 H1497 0.960 . S
C1490 C1488 1.381 . S
C1490 C1491 1.394 . S
C1490 H1498 0.930 . S
C1491 C1490 1.394 . S
C1491 C1492 1.383 . S
C1491 H1499 0.929 . S
C1492 C1491 1.383 . S
C1492 C1493 1.377 . S
C1493 H1477 0.930 . S
C1493 C1492 1.377 . S
C1493 C1494 1.379 . S
C1494 H1478 0.931 . S
C1494 C1488 1.383 . S
C1494 C1493 1.379 . S
H1495 C1489 0.959 . S
H1496 C1489 0.961 . S
H1497 C1489 0.960 . S
H1498 C1490 0.930 . S
H1499 C1491 0.929 . S
H1500 C1508 0.929 . S
H1501 C1510 0.930 . S
H1502 C1512 0.930 . S
H1503 C1515 0.929 . S
H1504 C1518 0.930 . S
H1505 C1520 0.960 . S
H1506 C1520 0.960 . S
H1507 C1520 0.960 . S
C1508 H1500 0.929 . S
C1508 C1509 1.377 . S
C1508 C1510 1.384 . S
C1509 C1508 1.377 . S
C1509 C1515 1.390 . S
C1510 H1501 0.930 . S
C1510 C1508 1.384 . S
C1510 C1511 1.372 . S
C1511 C1510 1.372 . S
C1511 C1512 1.400 . S
C1511 C1516 1.490 . S
C1512 H1502 0.930 . S
C1512 C1511 1.400 . S
C1512 C1515 1.386 . S
H1513 C1529 0.930 . S
H1514 C1530 0.931 . S
C1515 H1503 0.929 . S
C1515 C1509 1.390 . S
C1515 C1512 1.386 . S
C1516 C1511 1.490 . S
C1516 C1518 1.395 . S
C1516 C1519 1.403 . S
H1517 C1523 0.930 . S
C1518 H1504 0.930 . S
C1518 C1516 1.395 . S
C1518 C1521 1.403 . S
C1519 C1516 1.403 . S
C1519 C1520 1.524 . S
C1519 C1523 1.400 . S
C1520 H1505 0.960 . S
C1520 H1506 0.960 . S
C1520 H1507 0.960 . S
C1520 C1519 1.524 . S
C1521 C1518 1.403 . S
C1521 C1522 1.392 . S
C1521 C1525 1.495 . S
C1522 C1521 1.392 . S
C1522 C1523 1.385 . S
C1522 C1524 1.478 . S
C1523 H1517 0.930 . S
C1523 C1519 1.400 . S
C1523 C1522 1.385 . S
C1524 C1522 1.478 . S
C1524 C1526 1.381 . S
C1524 C1530 1.383 . S
C1525 C1521 1.495 . S
C1525 H1531 0.959 . S
C1525 H1532 0.961 . S
C1525 H1533 0.960 . S
C1526 C1524 1.381 . S
C1526 C1527 1.394 . S
C1526 H1534 0.930 . S
C1527 C1526 1.394 . S
C1527 C1528 1.383 . S
C1527 H1535 0.929 . S
C1528 C1527 1.383 . S
C1528 C1529 1.377 . S
C1529 H1513 0.930 . S
C1529 C1528 1.377 . S
C1529 C1530 1.379 . S
C1530 H1514 0.931 . S
C1530 C1524 1.383 . S
C1530 C1529 1.379 . S
H1531 C1525 0.959 . S
H1532 C1525 0.961 . S
H1533 C1525 0.960 . S
H1534 C1526 0.930 . S
H1535 C1527 0.929 . S
H1536 C1544 0.929 . S
H1537 C1546 0.930 . S
H1538 C1548 0.930 . S
H1539 C1551 0.929 . S
H1540 C1554 0.930 . S
H1541 C1556 0.960 . S
H1542 C1556 0.960 . S
H1543 C1556 0.960 . S
C1544 H1536 0.929 . S
C1544 C1545 1.377 . S
C1544 C1546 1.384 . S
C1545 C1544 1.377 . S
C1545 C1551 1.390 . S
C1546 H1537 0.930 . S
C1546 C1544 1.384 . S
C1546 C1547 1.372 . S
C1547 C1546 1.372 . S
C1547 C1548 1.400 . S
C1547 C1552 1.490 . S
C1548 H1538 0.930 . S
C1548 C1547 1.400 . S
C1548 C1551 1.386 . S
H1549 C1565 0.930 . S
H1550 C1566 0.931 . S
C1551 H1539 0.929 . S
C1551 C1545 1.390 . S
C1551 C1548 1.386 . S
C1552 C1547 1.490 . S
C1552 C1554 1.395 . S
C1552 C1555 1.403 . S
H1553 C1559 0.930 . S
C1554 H1540 0.930 . S
C1554 C1552 1.395 . S
C1554 C1557 1.403 . S
C1555 C1552 1.403 . S
C1555 C1556 1.524 . S
C1555 C1559 1.400 . S
C1556 H1541 0.960 . S
C1556 H1542 0.960 . S
C1556 H1543 0.960 . S
C1556 C1555 1.524 . S
C1557 C1554 1.403 . S
C1557 C1558 1.392 . S
C1557 C1561 1.495 . S
C1558 C1557 1.392 . S
C1558 C1559 1.385 . S
C1558 C1560 1.478 . S
C1559 H1553 0.930 . S
C1559 C1555 1.400 . S
C1559 C1558 1.385 . S
C1560 C1558 1.478 . S
C1560 C1562 1.381 . S
C1560 C1566 1.383 . S
C1561 C1557 1.495 . S
C1561 H1567 0.959 . S
C1561 H1568 0.961 . S
C1561 H1569 0.960 . S
C1562 C1560 1.381 . S
C1562 C1563 1.394 . S
C1562 H1570 0.930 . S
C1563 C1562 1.394 . S
C1563 C1564 1.383 . S
C1563 H1571 0.929 . S
C1564 C1563 1.383 . S
C1564 C1565 1.377 . S
C1565 H1549 0.930 . S
C1565 C1564 1.377 . S
C1565 C1566 1.379 . S
C1566 H1550 0.931 . S
C1566 C1560 1.383 . S
C1566 C1565 1.379 . S
H1567 C1561 0.959 . S
H1568 C1561 0.961 . S
H1569 C1561 0.960 . S
H1570 C1562 0.930 . S
H1571 C1563 0.929 . S
H1572 C1580 0.929 . S
H1573 C1582 0.930 . S
H1574 C1584 0.930 . S
H1575 C1587 0.929 . S
H1576 C1590 0.930 . S
H1577 C1592 0.960 . S
H1578 C1592 0.960 . S
H1579 C1592 0.960 . S
C1580 H1572 0.929 . S
C1580 C1581 1.377 . S
C1580 C1582 1.384 . S
C1581 C1580 1.377 . S
C1581 C1587 1.390 . S
C1582 H1573 0.930 . S
C1582 C1580 1.384 . S
C1582 C1583 1.372 . S
C1583 C1582 1.372 . S
C1583 C1584 1.400 . S
C1583 C1588 1.490 . S
C1584 H1574 0.930 . S
C1584 C1583 1.400 . S
C1584 C1587 1.386 . S
H1585 C1601 0.930 . S
H1586 C1602 0.931 . S
C1587 H1575 0.929 . S
C1587 C1581 1.390 . S
C1587 C1584 1.386 . S
C1588 C1583 1.490 . S
C1588 C1590 1.395 . S
C1588 C1591 1.403 . S
H1589 C1595 0.930 . S
C1590 H1576 0.930 . S
C1590 C1588 1.395 . S
C1590 C1593 1.403 . S
C1591 C1588 1.403 . S
C1591 C1592 1.524 . S
C1591 C1595 1.400 . S
C1592 H1577 0.960 . S
C1592 H1578 0.960 . S
C1592 H1579 0.960 . S
C1592 C1591 1.524 . S
C1593 C1590 1.403 . S
C1593 C1594 1.392 . S
C1593 C1597 1.495 . S
C1594 C1593 1.392 . S
C1594 C1595 1.385 . S
C1594 C1596 1.478 . S
C1595 H1589 0.930 . S
C1595 C1591 1.400 . S
C1595 C1594 1.385 . S
C1596 C1594 1.478 . S
C1596 C1598 1.381 . S
C1596 C1602 1.383 . S
C1597 C1593 1.495 . S
C1597 H1603 0.959 . S
C1597 H1604 0.961 . S
C1597 H1605 0.960 . S
C1598 C1596 1.381 . S
C1598 C1599 1.394 . S
C1598 H1606 0.930 . S
C1599 C1598 1.394 . S
C1599 C1600 1.383 . S
C1599 H1607 0.929 . S
C1600 C1599 1.383 . S
C1600 C1601 1.377 . S
C1601 H1585 0.930 . S
C1601 C1600 1.377 . S
C1601 C1602 1.379 . S
C1602 H1586 0.931 . S
C1602 C1596 1.383 . S
C1602 C1601 1.379 . S
H1603 C1597 0.959 . S
H1604 C1597 0.961 . S
H1605 C1597 0.960 . S
H1606 C1598 0.930 . S
H1607 C1599 0.929 . S
H1608 C1616 0.929 . S
H1609 C1618 0.930 . S
H1610 C1620 0.930 . S
H1611 C1623 0.929 . S
H1612 C1626 0.930 . S
H1613 C1628 0.960 . S
H1614 C1628 0.960 . S
H1615 C1628 0.960 . S
C1616 H1608 0.929 . S
C1616 C1617 1.377 . S
C1616 C1618 1.384 . S
C1617 C1616 1.377 . S
C1617 C1623 1.390 . S
C1618 H1609 0.930 . S
C1618 C1616 1.384 . S
C1618 C1619 1.372 . S
C1619 C1618 1.372 . S
C1619 C1620 1.400 . S
C1619 C1624 1.490 . S
C1620 H1610 0.930 . S
C1620 C1619 1.400 . S
C1620 C1623 1.386 . S
H1621 C1637 0.930 . S
H1622 C1638 0.931 . S
C1623 H1611 0.929 . S
C1623 C1617 1.390 . S
C1623 C1620 1.386 . S
C1624 C1619 1.490 . S
C1624 C1626 1.395 . S
C1624 C1627 1.403 . S
H1625 C1631 0.930 . S
C1626 H1612 0.930 . S
C1626 C1624 1.395 . S
C1626 C1629 1.403 . S
C1627 C1624 1.403 . S
C1627 C1628 1.524 . S
C1627 C1631 1.400 . S
C1628 H1613 0.960 . S
C1628 H1614 0.960 . S
C1628 H1615 0.960 . S
C1628 C1627 1.524 . S
C1629 C1626 1.403 . S
C1629 C1630 1.392 . S
C1629 C1633 1.495 . S
C1630 C1629 1.392 . S
C1630 C1631 1.385 . S
C1630 C1632 1.478 . S
C1631 H1625 0.930 . S
C1631 C1627 1.400 . S
C1631 C1630 1.385 . S
C1632 C1630 1.478 . S
C1632 C1634 1.381 . S
C1632 C1638 1.383 . S
C1633 C1629 1.495 . S
C1633 H1639 0.959 . S
C1633 H1640 0.961 . S
C1633 H1641 0.960 . S
C1634 C1632 1.381 . S
C1634 C1635 1.394 . S
C1634 H1642 0.930 . S
C1635 C1634 1.394 . S
C1635 C1636 1.383 . S
C1635 H1643 0.929 . S
C1636 C1635 1.383 . S
C1636 C1637 1.377 . S
C1637 H1621 0.930 . S
C1637 C1636 1.377 . S
C1637 C1638 1.379 . S
C1638 H1622 0.931 . S
C1638 C1632 1.383 . S
C1638 C1637 1.379 . S
H1639 C1633 0.959 . S
H1640 C1633 0.961 . S
H1641 C1633 0.960 . S
H1642 C1634 0.930 . S
H1643 C1635 0.929 . S
H1644 C1652 0.929 . S
H1645 C1654 0.930 . S
H1646 C1656 0.930 . S
H1647 C1659 0.929 . S
H1648 C1662 0.930 . S
H1649 C1664 0.960 . S
H1650 C1664 0.960 . S
H1651 C1664 0.960 . S
C1652 H1644 0.929 . S
C1652 C1653 1.377 . S
C1652 C1654 1.384 . S
C1653 C1652 1.377 . S
C1653 C1659 1.390 . S
C1654 H1645 0.930 . S
C1654 C1652 1.384 . S
C1654 C1655 1.372 . S
C1655 C1654 1.372 . S
C1655 C1656 1.400 . S
C1655 C1660 1.490 . S
C1656 H1646 0.930 . S
C1656 C1655 1.400 . S
C1656 C1659 1.386 . S
H1657 C1673 0.930 . S
H1658 C1674 0.931 . S
C1659 H1647 0.929 . S
C1659 C1653 1.390 . S
C1659 C1656 1.386 . S
C1660 C1655 1.490 . S
C1660 C1662 1.395 . S
C1660 C1663 1.403 . S
H1661 C1667 0.930 . S
C1662 H1648 0.930 . S
C1662 C1660 1.395 . S
C1662 C1665 1.403 . S
C1663 C1660 1.403 . S
C1663 C1664 1.524 . S
C1663 C1667 1.400 . S
C1664 H1649 0.960 . S
C1664 H1650 0.960 . S
C1664 H1651 0.960 . S
C1664 C1663 1.524 . S
C1665 C1662 1.403 . S
C1665 C1666 1.392 . S
C1665 C1669 1.495 . S
C1666 C1665 1.392 . S
C1666 C1667 1.385 . S
C1666 C1668 1.478 . S
C1667 H1661 0.930 . S
C1667 C1663 1.400 . S
C1667 C1666 1.385 . S
C1668 C1666 1.478 . S
C1668 C1670 1.381 . S
C1668 C1674 1.383 . S
C1669 C1665 1.495 . S
C1669 H1675 0.959 . S
C1669 H1676 0.961 . S
C1669 H1677 0.960 . S
C1670 C1668 1.381 . S
C1670 C1671 1.394 . S
C1670 H1678 0.930 . S
C1671 C1670 1.394 . S
C1671 C1672 1.383 . S
C1671 H1679 0.929 . S
C1672 C1671 1.383 . S
C1672 C1673 1.377 . S
C1673 H1657 0.930 . S
C1673 C1672 1.377 . S
C1673 C1674 1.379 . S
C1674 H1658 0.931 . S
C1674 C1668 1.383 . S
C1674 C1673 1.379 . S
H1675 C1669 0.959 . S
H1676 C1669 0.961 . S
H1677 C1669 0.960 . S
H1678 C1670 0.930 . S
H1679 C1671 0.929 . S
H1680 C1688 0.929 . S
H1681 C1690 0.930 . S
H1682 C1692 0.930 . S
H1683 C1695 0.929 . S
H1684 C1698 0.930 . S
H1685 C1700 0.960 . S
H1686 C1700 0.960 . S
H1687 C1700 0.960 . S
C1688 H1680 0.929 . S
C1688 C1689 1.377 . S
C1688 C1690 1.384 . S
C1689 C1688 1.377 . S
C1689 C1695 1.390 . S
C1690 H1681 0.930 . S
C1690 C1688 1.384 . S
C1690 C1691 1.372 . S
C1691 C1690 1.372 . S
C1691 C1692 1.400 . S
C1691 C1696 1.490 . S
C1692 H1682 0.930 . S
C1692 C1691 1.400 . S
C1692 C1695 1.386 . S
H1693 C1709 0.930 . S
H1694 C1710 0.931 . S
C1695 H1683 0.929 . S
C1695 C1689 1.390 . S
C1695 C1692 1.386 . S
C1696 C1691 1.490 . S
C1696 C1698 1.395 . S
C1696 C1699 1.403 . S
H1697 C1703 0.930 . S
C1698 H1684 0.930 . S
C1698 C1696 1.395 . S
C1698 C1701 1.403 . S
C1699 C1696 1.403 . S
C1699 C1700 1.524 . S
C1699 C1703 1.400 . S
C1700 H1685 0.960 . S
C1700 H1686 0.960 . S
C1700 H1687 0.960 . S
C1700 C1699 1.524 . S
C1701 C1698 1.403 . S
C1701 C1702 1.392 . S
C1701 C1705 1.495 . S
C1702 C1701 1.392 . S
C1702 C1703 1.385 . S
C1702 C1704 1.478 . S
C1703 H1697 0.930 . S
C1703 C1699 1.400 . S
C1703 C1702 1.385 . S
C1704 C1702 1.478 . S
C1704 C1706 1.381 . S
C1704 C1710 1.383 . S
C1705 C1701 1.495 . S
C1705 H1711 0.959 . S
C1705 H1712 0.961 . S
C1705 H1713 0.960 . S
C1706 C1704 1.381 . S
C1706 C1707 1.394 . S
C1706 H1714 0.930 . S
C1707 C1706 1.394 . S
C1707 C1708 1.383 . S
C1707 H1715 0.929 . S
C1708 C1707 1.383 . S
C1708 C1709 1.377 . S
C1709 H1693 0.930 . S
C1709 C1708 1.377 . S
C1709 C1710 1.379 . S
C1710 H1694 0.931 . S
C1710 C1704 1.383 . S
C1710 C1709 1.379 . S
H1711 C1705 0.959 . S
H1712 C1705 0.961 . S
H1713 C1705 0.960 . S
H1714 C1706 0.930 . S
H1715 C1707 0.929 . S
H1716 C1724 0.929 . S
H1717 C1726 0.930 . S
H1718 C1728 0.930 . S
H1719 C1731 0.929 . S
H1720 C1734 0.930 . S
H1721 C1736 0.960 . S
H1722 C1736 0.960 . S
H1723 C1736 0.960 . S
C1724 H1716 0.929 . S
C1724 C1725 1.377 . S
C1724 C1726 1.384 . S
C1725 C1724 1.377 . S
C1725 C1731 1.390 . S
C1726 H1717 0.930 . S
C1726 C1724 1.384 . S
C1726 C1727 1.372 . S
C1727 C1726 1.372 . S
C1727 C1728 1.400 . S
C1727 C1732 1.490 . S
C1728 H1718 0.930 . S
C1728 C1727 1.400 . S
C1728 C1731 1.386 . S
H1729 C1745 0.930 . S
H1730 C1746 0.931 . S
C1731 H1719 0.929 . S
C1731 C1725 1.390 . S
C1731 C1728 1.386 . S
C1732 C1727 1.490 . S
C1732 C1734 1.395 . S
C1732 C1735 1.403 . S
H1733 C1739 0.930 . S
C1734 H1720 0.930 . S
C1734 C1732 1.395 . S
C1734 C1737 1.403 . S
C1735 C1732 1.403 . S
C1735 C1736 1.524 . S
C1735 C1739 1.400 . S
C1736 H1721 0.960 . S
C1736 H1722 0.960 . S
C1736 H1723 0.960 . S
C1736 C1735 1.524 . S
C1737 C1734 1.403 . S
C1737 C1738 1.392 . S
C1737 C1741 1.495 . S
C1738 C1737 1.392 . S
C1738 C1739 1.385 . S
C1738 C1740 1.478 . S
C1739 H1733 0.930 . S
C1739 C1735 1.400 . S
C1739 C1738 1.385 . S
C1740 C1738 1.478 . S
C1740 C1742 1.381 . S
C1740 C1746 1.383 . S
C1741 C1737 1.495 . S
C1741 H1747 0.959 . S
C1741 H1748 0.961 . S
C1741 H1749 0.960 . S
C1742 C1740 1.381 . S
C1742 C1743 1.394 . S
C1742 H1750 0.930 . S
C1743 C1742 1.394 . S
C1743 C1744 1.383 . S
C1743 H1751 0.929 . S
C1744 C1743 1.383 . S
C1744 C1745 1.377 . S
C1745 H1729 0.930 . S
C1745 C1744 1.377 . S
C1745 C1746 1.379 . S
C1746 H1730 0.931 . S
C1746 C1740 1.383 . S
C1746 C1745 1.379 . S
H1747 C1741 0.959 . S
H1748 C1741 0.961 . S
H1749 C1741 0.960 . S
H1750 C1742 0.930 . S
H1751 C1743 0.929 . S
H1752 C1760 0.929 . S
H1753 C1762 0.930 . S
H1754 C1764 0.930 . S
H1755 C1767 0.929 . S
H1756 C1770 0.930 . S
H1757 C1772 0.960 . S
H1758 C1772 0.960 . S
H1759 C1772 0.960 . S
C1760 H1752 0.929 . S
C1760 C1761 1.377 . S
C1760 C1762 1.384 . S
C1761 C1760 1.377 . S
C1761 C1767 1.390 . S
C1762 H1753 0.930 . S
C1762 C1760 1.384 . S
C1762 C1763 1.372 . S
C1763 C1762 1.372 . S
C1763 C1764 1.400 . S
C1763 C1768 1.490 . S
C1764 H1754 0.930 . S
C1764 C1763 1.400 . S
C1764 C1767 1.386 . S
H1765 C1781 0.930 . S
H1766 C1782 0.931 . S
C1767 H1755 0.929 . S
C1767 C1761 1.390 . S
C1767 C1764 1.386 . S
C1768 C1763 1.490 . S
C1768 C1770 1.395 . S
C1768 C1771 1.403 . S
H1769 C1775 0.930 . S
C1770 H1756 0.930 . S
C1770 C1768 1.395 . S
C1770 C1773 1.403 . S
C1771 C1768 1.403 . S
C1771 C1772 1.524 . S
C1771 C1775 1.400 . S
C1772 H1757 0.960 . S
C1772 H1758 0.960 . S
C1772 H1759 0.960 . S
C1772 C1771 1.524 . S
C1773 C1770 1.403 . S
C1773 C1774 1.392 . S
C1773 C1777 1.495 . S
C1774 C1773 1.392 . S
C1774 C1775 1.385 . S
C1774 C1776 1.478 . S
C1775 H1769 0.930 . S
C1775 C1771 1.400 . S
C1775 C1774 1.385 . S
C1776 C1774 1.478 . S
C1776 C1778 1.381 . S
C1776 C1782 1.383 . S
C1777 C1773 1.495 . S
C1777 H1783 0.959 . S
C1777 H1784 0.961 . S
C1777 H1785 0.960 . S
C1778 C1776 1.381 . S
C1778 C1779 1.394 . S
C1778 H1786 0.930 . S
C1779 C1778 1.394 . S
C1779 C1780 1.383 . S
C1779 H1787 0.929 . S
C1780 C1779 1.383 . S
C1780 C1781 1.377 . S
C1781 H1765 0.930 . S
C1781 C1780 1.377 . S
C1781 C1782 1.379 . S
C1782 H1766 0.931 . S
C1782 C1776 1.383 . S
C1782 C1781 1.379 . S
H1783 C1777 0.959 . S
H1784 C1777 0.961 . S
H1785 C1777 0.960 . S
H1786 C1778 0.930 . S
H1787 C1779 0.929 . S
H1788 C1796 0.929 . S
H1789 C1798 0.930 . S
H1790 C1800 0.930 . S
H1791 C1803 0.929 . S
H1792 C1806 0.930 . S
H1793 C1808 0.960 . S
H1794 C1808 0.960 . S
H1795 C1808 0.960 . S
C1796 H1788 0.929 . S
C1796 C1797 1.377 . S
C1796 C1798 1.384 . S
C1797 C1796 1.377 . S
C1797 C1803 1.390 . S
C1798 H1789 0.930 . S
C1798 C1796 1.384 . S
C1798 C1799 1.372 . S
C1799 C1798 1.372 . S
C1799 C1800 1.400 . S
C1799 C1804 1.490 . S
C1800 H1790 0.930 . S
C1800 C1799 1.400 . S
C1800 C1803 1.386 . S
H1801 C1817 0.930 . S
H1802 C1818 0.931 . S
C1803 H1791 0.929 . S
C1803 C1797 1.390 . S
C1803 C1800 1.386 . S
C1804 C1799 1.490 . S
C1804 C1806 1.395 . S
C1804 C1807 1.403 . S
H1805 C1811 0.930 . S
C1806 H1792 0.930 . S
C1806 C1804 1.395 . S
C1806 C1809 1.403 . S
C1807 C1804 1.403 . S
C1807 C1808 1.524 . S
C1807 C1811 1.400 . S
C1808 H1793 0.960 . S
C1808 H1794 0.960 . S
C1808 H1795 0.960 . S
C1808 C1807 1.524 . S
C1809 C1806 1.403 . S
C1809 C1810 1.392 . S
C1809 C1813 1.495 . S
C1810 C1809 1.392 . S
C1810 C1811 1.385 . S
C1810 C1812 1.478 . S
C1811 H1805 0.930 . S
C1811 C1807 1.400 . S
C1811 C1810 1.385 . S
C1812 C1810 1.478 . S
C1812 C1814 1.381 . S
C1812 C1818 1.383 . S
C1813 C1809 1.495 . S
C1813 H1819 0.959 . S
C1813 H1820 0.961 . S
C1813 H1821 0.960 . S
C1814 C1812 1.381 . S
C1814 C1815 1.394 . S
C1814 H1822 0.930 . S
C1815 C1814 1.394 . S
C1815 C1816 1.383 . S
C1815 H1823 0.929 . S
C1816 C1815 1.383 . S
C1816 C1817 1.377 . S
C1817 H1801 0.930 . S
C1817 C1816 1.377 . S
C1817 C1818 1.379 . S
C1818 H1802 0.931 . S
C1818 C1812 1.383 . S
C1818 C1817 1.379 . S
H1819 C1813 0.959 . S
H1820 C1813 0.961 . S
H1821 C1813 0.960 . S
H1822 C1814 0.930 . S
H1823 C1815 0.929 . S
H1824 C1832 0.929 . S
H1825 C1834 0.930 . S
H1826 C1836 0.930 . S
H1827 C1839 0.929 . S
H1828 C1842 0.930 . S
H1829 C1844 0.960 . S
H1830 C1844 0.960 . S
H1831 C1844 0.960 . S
C1832 H1824 0.929 . S
C1832 C1833 1.377 . S
C1832 C1834 1.384 . S
C1833 C1832 1.377 . S
C1833 C1839 1.390 . S
C1834 H1825 0.930 . S
C1834 C1832 1.384 . S
C1834 C1835 1.372 . S
C1835 C1834 1.372 . S
C1835 C1836 1.400 . S
C1835 C1840 1.490 . S
C1836 H1826 0.930 . S
C1836 C1835 1.400 . S
C1836 C1839 1.386 . S
H1837 C1853 0.930 . S
H1838 C1854 0.931 . S
C1839 H1827 0.929 . S
C1839 C1833 1.390 . S
C1839 C1836 1.386 . S
C1840 C1835 1.490 . S
C1840 C1842 1.395 . S
C1840 C1843 1.403 . S
H1841 C1847 0.930 . S
C1842 H1828 0.930 . S
C1842 C1840 1.395 . S
C1842 C1845 1.403 . S
C1843 C1840 1.403 . S
C1843 C1844 1.524 . S
C1843 C1847 1.400 . S
C1844 H1829 0.960 . S
C1844 H1830 0.960 . S
C1844 H1831 0.960 . S
C1844 C1843 1.524 . S
C1845 C1842 1.403 . S
C1845 C1846 1.392 . S
C1845 C1849 1.495 . S
C1846 C1845 1.392 . S
C1846 C1847 1.385 . S
C1846 C1848 1.478 . S
C1847 H1841 0.930 . S
C1847 C1843 1.400 . S
C1847 C1846 1.385 . S
C1848 C1846 1.478 . S
C1848 C1850 1.381 . S
C1848 C1854 1.383 . S
C1849 C1845 1.495 . S
C1849 H1855 0.959 . S
C1849 H1856 0.961 . S
C1849 H1857 0.960 . S
C1850 C1848 1.381 . S
C1850 C1851 1.394 . S
C1850 H1858 0.930 . S
C1851 C1850 1.394 . S
C1851 C1852 1.383 . S
C1851 H1859 0.929 . S
C1852 C1851 1.383 . S
C1852 C1853 1.377 . S
C1853 H1837 0.930 . S
C1853 C1852 1.377 . S
C1853 C1854 1.379 . S
C1854 H1838 0.931 . S
C1854 C1848 1.383 . S
C1854 C1853 1.379 . S
H1855 C1849 0.959 . S
H1856 C1849 0.961 . S
H1857 C1849 0.960 . S
H1858 C1850 0.930 . S
H1859 C1851 0.929 . S
H1860 C1868 0.929 . S
H1861 C1870 0.930 . S
H1862 C1872 0.930 . S
H1863 C1875 0.929 . S
H1864 C1878 0.930 . S
H1865 C1880 0.960 . S
H1866 C1880 0.960 . S
H1867 C1880 0.960 . S
C1868 H1860 0.929 . S
C1868 C1869 1.377 . S
C1868 C1870 1.384 . S
C1869 C1868 1.377 . S
C1869 C1875 1.390 . S
C1870 H1861 0.930 . S
C1870 C1868 1.384 . S
C1870 C1871 1.372 . S
C1871 C1870 1.372 . S
C1871 C1872 1.400 . S
C1871 C1876 1.490 . S
C1872 H1862 0.930 . S
C1872 C1871 1.400 . S
C1872 C1875 1.386 . S
H1873 C1889 0.930 . S
H1874 C1890 0.931 . S
C1875 H1863 0.929 . S
C1875 C1869 1.390 . S
C1875 C1872 1.386 . S
C1876 C1871 1.490 . S
C1876 C1878 1.395 . S
C1876 C1879 1.403 . S
H1877 C1883 0.930 . S
C1878 H1864 0.930 . S
C1878 C1876 1.395 . S
C1878 C1881 1.403 . S
C1879 C1876 1.403 . S
C1879 C1880 1.524 . S
C1879 C1883 1.400 . S
C1880 H1865 0.960 . S
C1880 H1866 0.960 . S
C1880 H1867 0.960 . S
C1880 C1879 1.524 . S
C1881 C1878 1.403 . S
C1881 C1882 1.392 . S
C1881 C1885 1.495 . S
C1882 C1881 1.392 . S
C1882 C1883 1.385 . S
C1882 C1884 1.478 . S
C1883 H1877 0.930 . S
C1883 C1879 1.400 . S
C1883 C1882 1.385 . S
C1884 C1882 1.478 . S
C1884 C1886 1.381 . S
C1884 C1890 1.383 . S
C1885 C1881 1.495 . S
C1885 H1891 0.959 . S
C1885 H1892 0.961 . S
C1885 H1893 0.960 . S
C1886 C1884 1.381 . S
C1886 C1887 1.394 . S
C1886 H1894 0.930 . S
C1887 C1886 1.394 . S
C1887 C1888 1.383 . S
C1887 H1895 0.929 . S
C1888 C1887 1.383 . S
C1888 C1889 1.377 . S
C1889 H1873 0.930 . S
C1889 C1888 1.377 . S
C1889 C1890 1.379 . S
C1890 H1874 0.931 . S
C1890 C1884 1.383 . S
C1890 C1889 1.379 . S
H1891 C1885 0.959 . S
H1892 C1885 0.961 . S
H1893 C1885 0.960 . S
H1894 C1886 0.930 . S
H1895 C1887 0.929 . S
H1896 C1904 0.929 . S
H1897 C1906 0.930 . S
H1898 C1908 0.930 . S
H1899 C1911 0.929 . S
H1900 C1914 0.930 . S
H1901 C1916 0.960 . S
H1902 C1916 0.960 . S
H1903 C1916 0.960 . S
C1904 H1896 0.929 . S
C1904 C1905 1.377 . S
C1904 C1906 1.384 . S
C1905 C1904 1.377 . S
C1905 C1911 1.390 . S
C1906 H1897 0.930 . S
C1906 C1904 1.384 . S
C1906 C1907 1.372 . S
C1907 C1906 1.372 . S
C1907 C1908 1.400 . S
C1907 C1912 1.490 . S
C1908 H1898 0.930 . S
C1908 C1907 1.400 . S
C1908 C1911 1.386 . S
H1909 C1925 0.930 . S
H1910 C1926 0.931 . S
C1911 H1899 0.929 . S
C1911 C1905 1.390 . S
C1911 C1908 1.386 . S
C1912 C1907 1.490 . S
C1912 C1914 1.395 . S
C1912 C1915 1.403 . S
H1913 C1919 0.930 . S
C1914 H1900 0.930 . S
C1914 C1912 1.395 . S
C1914 C1917 1.403 . S
C1915 C1912 1.403 . S
C1915 C1916 1.524 . S
C1915 C1919 1.400 . S
C1916 H1901 0.960 . S
C1916 H1902 0.960 . S
C1916 H1903 0.960 . S
C1916 C1915 1.524 . S
C1917 C1914 1.403 . S
C1917 C1918 1.392 . S
C1917 C1921 1.495 . S
C1918 C1917 1.392 . S
C1918 C1919 1.385 . S
C1918 C1920 1.478 . S
C1919 H1913 0.930 . S
C1919 C1915 1.400 . S
C1919 C1918 1.385 . S
C1920 C1918 1.478 . S
C1920 C1922 1.381 . S
C1920 C1926 1.383 . S
C1921 C1917 1.495 . S
C1921 H1927 0.959 . S
C1921 H1928 0.961 . S
C1921 H1929 0.960 . S
C1922 C1920 1.381 . S
C1922 C1923 1.394 . S
C1922 H1930 0.930 . S
C1923 C1922 1.394 . S
C1923 C1924 1.383 . S
C1923 H1931 0.929 . S
C1924 C1923 1.383 . S
C1924 C1925 1.377 . S
C1925 H1909 0.930 . S
C1925 C1924 1.377 . S
C1925 C1926 1.379 . S
C1926 H1910 0.931 . S
C1926 C1920 1.383 . S
C1926 C1925 1.379 . S
H1927 C1921 0.959 . S
H1928 C1921 0.961 . S
H1929 C1921 0.960 . S
H1930 C1922 0.930 . S
H1931 C1923 0.929 . S
H1932 C1940 0.929 . S
H1933 C1942 0.930 . S
H1934 C1944 0.930 . S
H1935 C1947 0.929 . S
H1936 C1950 0.930 . S
H1937 C1952 0.960 . S
H1938 C1952 0.960 . S
H1939 C1952 0.960 . S
C1940 H1932 0.929 . S
C1940 C1941 1.377 . S
C1940 C1942 1.384 . S
C1941 C1940 1.377 . S
C1941 C1947 1.390 . S
C1942 H1933 0.930 . S
C1942 C1940 1.384 . S
C1942 C1943 1.372 . S
C1943 C1942 1.372 . S
C1943 C1944 1.400 . S
C1943 C1948 1.490 . S
C1944 H1934 0.930 . S
C1944 C1943 1.400 . S
C1944 C1947 1.386 . S
H1945 C1961 0.930 . S
H1946 C1962 0.931 . S
C1947 H1935 0.929 . S
C1947 C1941 1.390 . S
C1947 C1944 1.386 . S
C1948 C1943 1.490 . S
C1948 C1950 1.395 . S
C1948 C1951 1.403 . S
H1949 C1955 0.930 . S
C1950 H1936 0.930 . S
C1950 C1948 1.395 . S
C1950 C1953 1.403 . S
C1951 C1948 1.403 . S
C1951 C1952 1.524 . S
C1951 C1955 1.400 . S
C1952 H1937 0.960 . S
C1952 H1938 0.960 . S
C1952 H1939 0.960 . S
C1952 C1951 1.524 . S
C1953 C1950 1.403 . S
C1953 C1954 1.392 . S
C1953 C1957 1.495 . S
C1954 C1953 1.392 . S
C1954 C1955 1.385 . S
C1954 C1956 1.478 . S
C1955 H1949 0.930 . S
C1955 C1951 1.400 . S
C1955 C1954 1.385 . S
C1956 C1954 1.478 . S
C1956 C1958 1.381 . S
C1956 C1962 1.383 . S
C1957 C1953 1.495 . S
C1957 H1963 0.959 . S
C1957 H1964 0.961 . S
C1957 H1965 0.960 . S
C1958 C1956 1.381 . S
C1958 C1959 1.394 . S
C1958 H1966 0.930 . S
C1959 C1958 1.394 . S
C1959 C1960 1.383 . S
C1959 H1967 0.929 . S
C1960 C1959 1.383 . S
C1960 C1961 1.377 . S
C1961 H1945 0.930 . S
C1961 C1960 1.377 . S
C1961 C1962 1.379 . S
C1962 H1946 0.931 . S
C1962 C1956 1.383 . S
C1962 C1961 1.379 . S
H1963 C1957 0.959 . S
H1964 C1957 0.961 . S
H1965 C1957 0.960 . S
H1966 C1958 0.930 . S
H1967 C1959 0.929 . S
C537 N13 1.762 . S
C556 N112 1.748 . S
C573 N79 1.762 . S
C592 N46 1.767 . S
C609 N244 1.757 . S
C628 N145 1.767 . S
C645 N178 1.757 . S
C664 N211 1.765 . S
C681 N277 1.757 . S
C700 N376 1.755 . S
C717 N310 1.761 . S
C736 N343 1.742 . S
C753 N508 1.762 . S
C772 N409 1.754 . S
C789 N442 1.758 . S
C808 N475 1.756 . S
C825 N200 1.601 . S
C844 N2 1.623 . S
C861 N233 1.601 . S
C880 N35 1.576 . S
C897 N134 1.599 . S
C916 N68 1.584 . S
C933 N167 1.600 . S
C952 N101 1.624 . S
C969 N464 1.599 . S
C988 N266 1.625 . S
C1005 N497 1.604 . S
C1024 N299 1.571 . S
C1041 N398 1.600 . S
C1060 N332 1.579 . S
C1077 N365 1.607 . S
C1096 N431 1.579 . S
C1113 C7 1.533 . S
C1132 C73 1.511 . S
C1149 C40 1.534 . S
C1168 C106 1.514 . S
C1185 C139 1.533 . S
C1204 C205 1.522 . S
C1221 C172 1.536 . S
C1240 C238 1.544 . S
C1257 C271 1.533 . S
C1276 C337 1.511 . S
C1293 C304 1.531 . S
C1312 C370 1.511 . S
C1329 C403 1.534 . S
C1348 C469 1.544 . S
C1365 C436 1.531 . S
C1384 C502 1.532 . S
C1401 C513 1.001 . S
C1420 C21 1.008 . S
C1437 C54 1.002 . S
C1456 C480 0.982 . S
C1473 C87 1.003 . S
C1492 C447 0.979 . S
C1509 C414 1.003 . S
C1528 C120 1.001 . S
C1545 C381 0.998 . S
C1564 C153 0.995 . S
C1581 C186 1.005 . S
C1600 C348 1.016 . S
C1617 C219 1.001 . S
C1636 C315 0.992 . S
C1653 C252 1.000 . S
C1672 C282 0.981 . S
C1689 C285 1.005 . S
C1708 C249 0.987 . S
C1725 C216 1.003 . S
C1744 C318 0.994 . S
C1761 C183 0.997 . S
C1780 C351 0.992 . S
C1797 C384 1.004 . S
C1816 C150 1.011 . S
C1833 C417 1.005 . S
C1852 C117 1.015 . S
C1869 C84 0.999 . S
C1888 C450 1.003 . S
C1905 C51 0.996 . S
C1924 C483 0.995 . S
C1941 C18 0.999 . S
C1960 C516 0.998 . S
