# Generated by pormake.
# Topology whz, (6)-cn, num edge types: 1
# Building blocks:
#     Node 0, Type 0, BuildingBlock: CUWYAW_clean_sbu_0, # of connection points: 6
#     Node 1, Type 0, BuildingBlock: CUWYAW_clean_sbu_0, # of connection points: 6
#     Node 2, Type 0, BuildingBlock: CUWYAW_clean_sbu_0, # of connection points: 6
#     Node 3, Type 0, BuildingBlock: CUWYAW_clean_sbu_0, # of connection points: 6
#     Node 4, Type 0, BuildingBlock: CUWYAW_clean_sbu_0, # of connection points: 6
#     Node 5, Type 0, BuildingBlock: CUWYAW_clean_sbu_0, # of connection points: 6
#     Node 6, Type 0, BuildingBlock: CUWYAW_clean_sbu_0, # of connection points: 6
#     Node 7, Type 0, BuildingBlock: CUWYAW_clean_sbu_0, # of connection points: 6
#     Node 8, Type 0, BuildingBlock: CUWYAW_clean_sbu_0, # of connection points: 6
#     Node 9, Type 0, BuildingBlock: CUWYAW_clean_sbu_0, # of connection points: 6
#     Node 10, Type 0, BuildingBlock: CUWYAW_clean_sbu_0, # of connection points: 6
#     Node 11, Type 0, BuildingBlock: CUWYAW_clean_sbu_0, # of connection points: 6
#     Node 12, Type 0, BuildingBlock: CUWYAW_clean_sbu_0, # of connection points: 6
#     Node 13, Type 0, BuildingBlock: CUWYAW_clean_sbu_0, # of connection points: 6
#     Node 14, Type 0, BuildingBlock: CUWYAW_clean_sbu_0, # of connection points: 6
#     Node 15, Type 0, BuildingBlock: CUWYAW_clean_sbu_0, # of connection points: 6
#     Edge 16, Type (0, 0), BuildingBlock: ZUJKAS_clean_linker_0, # of connection points: 2
#     Edge 17, Type (0, 0), BuildingBlock: ZUJKAS_clean_linker_0, # of connection points: 2
#     Edge 18, Type (0, 0), BuildingBlock: ZUJKAS_clean_linker_0, # of connection points: 2
#     Edge 19, Type (0, 0), BuildingBlock: ZUJKAS_clean_linker_0, # of connection points: 2
#     Edge 20, Type (0, 0), BuildingBlock: ZUJKAS_clean_linker_0, # of connection points: 2
#     Edge 21, Type (0, 0), BuildingBlock: ZUJKAS_clean_linker_0, # of connection points: 2
#     Edge 22, Type (0, 0), BuildingBlock: ZUJKAS_clean_linker_0, # of connection points: 2
#     Edge 23, Type (0, 0), BuildingBlock: ZUJKAS_clean_linker_0, # of connection points: 2
#     Edge 24, Type (0, 0), BuildingBlock: ZUJKAS_clean_linker_0, # of connection points: 2
#     Edge 25, Type (0, 0), BuildingBlock: ZUJKAS_clean_linker_0, # of connection points: 2
#     Edge 26, Type (0, 0), BuildingBlock: ZUJKAS_clean_linker_0, # of connection points: 2
#     Edge 27, Type (0, 0), BuildingBlock: ZUJKAS_clean_linker_0, # of connection points: 2
#     Edge 28, Type (0, 0), BuildingBlock: ZUJKAS_clean_linker_0, # of connection points: 2
#     Edge 29, Type (0, 0), BuildingBlock: ZUJKAS_clean_linker_0, # of connection points: 2
#     Edge 30, Type (0, 0), BuildingBlock: ZUJKAS_clean_linker_0, # of connection points: 2
#     Edge 31, Type (0, 0), BuildingBlock: ZUJKAS_clean_linker_0, # of connection points: 2
#     Edge 32, Type (0, 0), BuildingBlock: ZUJKAS_clean_linker_0, # of connection points: 2
#     Edge 33, Type (0, 0), BuildingBlock: ZUJKAS_clean_linker_0, # of connection points: 2
#     Edge 34, Type (0, 0), BuildingBlock: ZUJKAS_clean_linker_0, # of connection points: 2
#     Edge 35, Type (0, 0), BuildingBlock: ZUJKAS_clean_linker_0, # of connection points: 2
#     Edge 36, Type (0, 0), BuildingBlock: ZUJKAS_clean_linker_0, # of connection points: 2
#     Edge 37, Type (0, 0), BuildingBlock: ZUJKAS_clean_linker_0, # of connection points: 2
#     Edge 38, Type (0, 0), BuildingBlock: ZUJKAS_clean_linker_0, # of connection points: 2
#     Edge 39, Type (0, 0), BuildingBlock: ZUJKAS_clean_linker_0, # of connection points: 2
#     Edge 40, Type (0, 0), BuildingBlock: ZUJKAS_clean_linker_0, # of connection points: 2
#     Edge 41, Type (0, 0), BuildingBlock: ZUJKAS_clean_linker_0, # of connection points: 2
#     Edge 42, Type (0, 0), BuildingBlock: ZUJKAS_clean_linker_0, # of connection points: 2
#     Edge 43, Type (0, 0), BuildingBlock: ZUJKAS_clean_linker_0, # of connection points: 2
#     Edge 44, Type (0, 0), BuildingBlock: ZUJKAS_clean_linker_0, # of connection points: 2
#     Edge 45, Type (0, 0), BuildingBlock: ZUJKAS_clean_linker_0, # of connection points: 2
#     Edge 46, Type (0, 0), BuildingBlock: ZUJKAS_clean_linker_0, # of connection points: 2
#     Edge 47, Type (0, 0), BuildingBlock: ZUJKAS_clean_linker_0, # of connection points: 2
#     Edge 48, Type (0, 0), BuildingBlock: ZUJKAS_clean_linker_0, # of connection points: 2
#     Edge 49, Type (0, 0), BuildingBlock: ZUJKAS_clean_linker_0, # of connection points: 2
#     Edge 50, Type (0, 0), BuildingBlock: ZUJKAS_clean_linker_0, # of connection points: 2
#     Edge 51, Type (0, 0), BuildingBlock: ZUJKAS_clean_linker_0, # of connection points: 2
#     Edge 52, Type (0, 0), BuildingBlock: ZUJKAS_clean_linker_0, # of connection points: 2
#     Edge 53, Type (0, 0), BuildingBlock: ZUJKAS_clean_linker_0, # of connection points: 2
#     Edge 54, Type (0, 0), BuildingBlock: ZUJKAS_clean_linker_0, # of connection points: 2
#     Edge 55, Type (0, 0), BuildingBlock: ZUJKAS_clean_linker_0, # of connection points: 2
#     Edge 56, Type (0, 0), BuildingBlock: ZUJKAS_clean_linker_0, # of connection points: 2
#     Edge 57, Type (0, 0), BuildingBlock: ZUJKAS_clean_linker_0, # of connection points: 2
#     Edge 58, Type (0, 0), BuildingBlock: ZUJKAS_clean_linker_0, # of connection points: 2
#     Edge 59, Type (0, 0), BuildingBlock: ZUJKAS_clean_linker_0, # of connection points: 2
#     Edge 60, Type (0, 0), BuildingBlock: ZUJKAS_clean_linker_0, # of connection points: 2
#     Edge 61, Type (0, 0), BuildingBlock: ZUJKAS_clean_linker_0, # of connection points: 2
#     Edge 62, Type (0, 0), BuildingBlock: ZUJKAS_clean_linker_0, # of connection points: 2
#     Edge 63, Type (0, 0), BuildingBlock: ZUJKAS_clean_linker_0, # of connection points: 2
# Relax obj value: 0.634
# Max RMSD: 0.301
# Mean RMSD: 0.300
data_MOF--net-whz--node1-CUWYAW_clean_sbu_0--edge1-ZUJKAS_clean_linker_0
_symmetry_space_group_name_H-M    P1
_symmetry_Int_Tables_number       1
_symmetry_cell_setting            triclinic
loop_
_symmetry_equiv_pos_as_xyz
'x, y, z'
_cell_length_a     44.852067
_cell_length_b     44.764501
_cell_length_c     87.928173
_cell_angle_alpha  90.107582
_cell_angle_beta   89.975988
_cell_angle_gamma 90.068943
loop_
_atom_site_label
_atom_site_type_symbol
_atom_site_fract_x
_atom_site_fract_y
_atom_site_fract_z
_atom_type_partial_charge
C0 C 0.3178 0.14314 0.11581 0.0
Eu1 Eu 0.31964 0.16235 0.14394 0.0
C2 C 0.30002 0.1365 0.10198 0.0
C3 C 0.30646 0.11043 0.09375 0.0
C4 C 0.29356 0.10521 0.07949 0.0
C5 C 0.27349 0.12583 0.07305 0.0
C6 C 0.26619 0.15151 0.08165 0.0
C7 C 0.27942 0.15687 0.09589 0.0
C8 C 0.33309 0.12786 0.16895 0.0
C9 C 0.25424 0.15691 0.16037 0.0
C10 C 0.3228 0.19289 0.20368 0.0
Eu11 Eu 0.31055 0.18907 0.17532 0.0
C12 C 0.33919 0.21517 0.21246 0.0
C13 C 0.3296 0.24485 0.21311 0.0
C14 C 0.34378 0.26486 0.22278 0.0
C15 C 0.36766 0.25536 0.23209 0.0
C16 C 0.38019 0.22709 0.2293 0.0
C17 C 0.36559 0.20687 0.21983 0.0
C18 C 0.29415 0.23258 0.15644 0.0
C19 C 0.37355 0.20177 0.15692 0.0
O20 O 0.32191 0.17111 0.11962 0.0
O21 O 0.3154 0.12548 0.12758 0.0
O22 O 0.35092 0.12979 0.15731 0.0
O23 O 0.3113 0.14419 0.16651 0.0
O24 O 0.26933 0.15758 0.14735 0.0
O25 O 0.26647 0.1655 0.17335 0.0
O26 O 0.3395 0.17819 0.19402 0.0
O27 O 0.29657 0.20066 0.19821 0.0
O28 O 0.2938 0.23471 0.17114 0.0
O29 O 0.30339 0.20711 0.1519 0.0
O30 O 0.35853 0.202 0.16984 0.0
O31 O 0.36232 0.18939 0.14456 0.0
H32 H 0.32251 0.09452 0.09812 0.0
H33 H 0.30036 0.08543 0.07332 0.0
H34 H 0.25041 0.16771 0.07738 0.0
H35 H 0.27402 0.17724 0.10197 0.0
H36 H 0.31016 0.25225 0.20685 0.0
H37 H 0.33356 0.28659 0.22409 0.0
H38 H 0.39929 0.21941 0.23573 0.0
H39 H 0.37415 0.18431 0.21882 0.0
C40 C 0.64491 0.57042 0.36532 0.0
Eu41 Eu 0.62758 0.57096 0.39378 0.0
C42 C 0.65492 0.55337 0.35175 0.0
C43 C 0.67282 0.56809 0.34106 0.0
C44 C 0.67891 0.55511 0.3269 0.0
C45 C 0.66732 0.52688 0.32302 0.0
C46 C 0.65042 0.51143 0.33404 0.0
C47 C 0.64411 0.52462 0.34824 0.0
C48 C 0.65851 0.5857 0.41977 0.0
C49 C 0.63786 0.50537 0.40962 0.0
C50 C 0.5768 0.5608 0.4497 0.0
Eu51 Eu 0.59775 0.55725 0.42261 0.0
C52 C 0.56315 0.58556 0.4581 0.0
C53 C 0.53292 0.58407 0.46183 0.0
C54 C 0.52124 0.60353 0.47261 0.0
C55 C 0.54022 0.62361 0.48041 0.0
C56 C 0.56848 0.62937 0.47411 0.0
C57 C 0.58021 0.60994 0.46324 0.0
C58 C 0.56821 0.53416 0.39892 0.0
C59 C 0.58931 0.6244 0.40716 0.0
O60 O 0.61728 0.56696 0.36972 0.0
O61 O 0.66328 0.57482 0.37668 0.0
O62 O 0.65754 0.60319 0.40794 0.0
O63 O 0.64425 0.56253 0.41689 0.0
O64 O 0.63859 0.52149 0.39699 0.0
O65 O 0.62548 0.51573 0.42216 0.0
O66 O 0.60527 0.56336 0.4467 0.0
O67 O 0.56123 0.54989 0.43839 0.0
O68 O 0.57382 0.52003 0.41144 0.0
O69 O 0.5795 0.56034 0.39922 0.0
O70 O 0.58561 0.60665 0.41905 0.0
O71 O 0.60426 0.61535 0.39513 0.0
H72 H 0.68123 0.59032 0.34344 0.0
H73 H 0.69241 0.5675 0.31887 0.0
H74 H 0.64102 0.48972 0.33145 0.0
H75 H 0.63002 0.51281 0.35624 0.0
H76 H 0.51895 0.56624 0.45746 0.0
H77 H 0.49871 0.59914 0.4764 0.0
H78 H 0.58312 0.64586 0.47918 0.0
H79 H 0.60329 0.61265 0.45987 0.0
C80 C 0.2218 0.89645 0.61538 0.0
Eu81 Eu 0.22173 0.87949 0.64393 0.0
C82 C 0.23941 0.90622 0.60194 0.0
C83 C 0.22726 0.92798 0.59232 0.0
C84 C 0.24045 0.93449 0.57825 0.0
C85 C 0.26618 0.91925 0.57329 0.0
C86 C 0.27906 0.89822 0.58328 0.0
C87 C 0.26583 0.89176 0.59742 0.0
C88 C 0.20457 0.91286 0.6688 0.0
C89 C 0.28635 0.89275 0.6597 0.0
C90 C 0.23202 0.83294 0.70021 0.0
Eu91 Eu 0.23488 0.85372 0.67303 0.0
C92 C 0.20871 0.81539 0.70779 0.0
C93 C 0.2134 0.78501 0.7105 0.0
C94 C 0.19428 0.76948 0.7201 0.0
C95 C 0.17106 0.78465 0.72776 0.0
C96 C 0.16289 0.81307 0.72239 0.0
C97 C 0.18204 0.82866 0.71275 0.0
C98 C 0.25814 0.82073 0.6503 0.0
C99 C 0.16897 0.84099 0.65748 0.0
O100 O 0.22482 0.86881 0.61986 0.0
O101 O 0.2176 0.91496 0.62671 0.0
O102 O 0.18701 0.90747 0.65735 0.0
O103 O 0.22882 0.90006 0.66663 0.0
O104 O 0.27139 0.88988 0.64679 0.0
O105 O 0.27475 0.88357 0.67263 0.0
O106 O 0.22549 0.86068 0.69697 0.0
O107 O 0.24649 0.8193 0.68933 0.0
O108 O 0.27254 0.82956 0.66225 0.0
O109 O 0.23208 0.83196 0.65031 0.0
O110 O 0.18542 0.84143 0.66997 0.0
O111 O 0.17922 0.8528 0.64483 0.0
H112 H 0.20683 0.93932 0.59546 0.0
H113 H 0.23011 0.95131 0.57118 0.0
H114 H 0.29869 0.88577 0.57995 0.0
H115 H 0.27568 0.87471 0.60455 0.0
H116 H 0.23312 0.77382 0.70622 0.0
H117 H 0.20082 0.74702 0.72313 0.0
H118 H 0.1441 0.82485 0.72727 0.0
H119 H 0.17693 0.85167 0.71013 0.0
C120 C 0.89577 0.47314 0.86584 0.0
Eu121 Eu 0.91487 0.47297 0.89405 0.0
C122 C 0.88831 0.49106 0.85211 0.0
C123 C 0.86404 0.48219 0.84312 0.0
C124 C 0.8587 0.49536 0.82893 0.0
C125 C 0.8773 0.51826 0.82327 0.0
C126 C 0.90105 0.52794 0.83267 0.0
C127 C 0.9066 0.51439 0.84683 0.0
C128 C 0.88307 0.45756 0.91977 0.0
C129 C 0.90417 0.5381 0.90989 0.0
C130 C 0.96138 0.48214 0.95078 0.0
Eu131 Eu 0.94326 0.48584 0.92317 0.0
C132 C 0.97357 0.45751 0.95977 0.0
C133 C 1.00379 0.45778 0.96361 0.0
C134 C 1.01417 0.43915 0.97504 0.0
C135 C 0.99404 0.42094 0.9832 0.0
C136 C 0.96541 0.41632 0.97714 0.0
C137 C 0.95497 0.43499 0.96565 0.0
C138 C 0.97323 0.51173 0.90051 0.0
C139 C 0.95303 0.41931 0.90731 0.0
O140 O 0.92382 0.47106 0.86973 0.0
O141 O 0.87791 0.47394 0.8776 0.0
O142 O 0.8854 0.43983 0.90808 0.0
O143 O 0.89704 0.48084 0.91699 0.0
O144 O 0.90592 0.52303 0.89693 0.0
O145 O 0.91431 0.52652 0.92265 0.0
O146 O 0.93326 0.47993 0.94701 0.0
O147 O 0.97832 0.49247 0.93986 0.0
O148 O 0.96723 0.52422 0.91345 0.0
O149 O 0.96267 0.48519 0.89981 0.0
O150 O 0.95651 0.43683 0.91931 0.0
O151 O 0.93813 0.42842 0.8953 0.0
H152 H 0.84976 0.46407 0.84683 0.0
H153 H 0.84052 0.48656 0.8222 0.0
H154 H 0.91563 0.54588 0.82911 0.0
H155 H 0.92558 0.52175 0.85348 0.0
H156 H 1.01883 0.47423 0.95881 0.0
H157 H 0.03676 0.44285 0.97895 0.0
H158 H 0.9497 0.40172 0.98283 0.0
H159 H 0.93172 0.43343 0.9624 0.0
C160 C 0.72065 0.84213 0.85186 0.0
Eu161 Eu 0.73235 0.85409 0.87984 0.0
C162 C 0.70022 0.82152 0.84418 0.0
C163 C 0.70706 0.79118 0.84277 0.0
C164 C 0.69072 0.77339 0.83283 0.0
C165 C 0.66789 0.78604 0.82381 0.0
C166 C 0.65747 0.81466 0.82771 0.0
C167 C 0.67407 0.8326 0.8375 0.0
C168 C 0.75983 0.81994 0.89995 0.0
C169 C 0.66896 0.83977 0.89753 0.0
C170 C 0.72428 0.89821 0.93777 0.0
Eu171 Eu 0.72284 0.87963 0.90945 0.0
C172 C 0.742 0.90561 0.95157 0.0
C173 C 0.73499 0.93167 0.9597 0.0
C174 C 0.74791 0.93751 0.97391 0.0
C175 C 0.76815 0.91728 0.98053 0.0
C176 C 0.77595 0.89158 0.97207 0.0
C177 C 0.76305 0.88582 0.95778 0.0
C178 C 0.70858 0.91516 0.88468 0.0
C179 C 0.7871 0.8894 0.89329 0.0
O180 O 0.70757 0.86354 0.85944 0.0
O181 O 0.74371 0.83069 0.85895 0.0
O182 O 0.76943 0.82582 0.88636 0.0
O183 O 0.73412 0.83161 0.90262 0.0
O184 O 0.68678 0.83443 0.8859 0.0
O185 O 0.67756 0.85754 0.90862 0.0
O186 O 0.72183 0.87019 0.93375 0.0
O187 O 0.72518 0.91625 0.92611 0.0
O188 O 0.69058 0.9117 0.89615 0.0
O189 O 0.73097 0.89986 0.88718 0.0
O190 O 0.77314 0.88557 0.90642 0.0
O191 O 0.77357 0.88274 0.88039 0.0
H192 H 0.7264 0.78168 0.84833 0.0
H193 H 0.69909 0.75109 0.83079 0.0
H194 H 0.63902 0.82464 0.82163 0.0
H195 H 0.66763 0.85576 0.83895 0.0
H196 H 0.71873 0.94724 0.95523 0.0
H197 H 0.7417 0.95788 0.97974 0.0
H198 H 0.79117 0.87522 0.9767 0.0
H199 H 0.76884 0.86542 0.95183 0.0
C200 C 0.45908 0.48132 0.60302 0.0
Eu201 Eu 0.44116 0.48594 0.63069 0.0
C202 C 0.47414 0.45725 0.5947 0.0
C203 C 0.50492 0.45879 0.59231 0.0
C204 C 0.5183 0.44007 0.58172 0.0
C205 C 0.5007 0.42056 0.57281 0.0
C206 C 0.47133 0.41479 0.57761 0.0
C207 C 0.45786 0.43356 0.58825 0.0
C208 C 0.47302 0.51134 0.65292 0.0
C209 C 0.45209 0.42019 0.64687 0.0
C210 C 0.3953 0.47453 0.68832 0.0
Eu211 Eu 0.41423 0.47406 0.66008 0.0
C212 C 0.38836 0.49279 0.70203 0.0
C213 C 0.36124 0.48812 0.70961 0.0
C214 C 0.35584 0.50101 0.72389 0.0
C215 C 0.37739 0.51925 0.73103 0.0
C216 C 0.40411 0.52497 0.72302 0.0
C217 C 0.4096 0.51178 0.70878 0.0
C218 C 0.38093 0.45879 0.63477 0.0
C219 C 0.40406 0.53902 0.64437 0.0
O220 O 0.43155 0.47612 0.6071 0.0
O221 O 0.47472 0.49498 0.61351 0.0
O222 O 0.46667 0.52385 0.64007 0.0
O223 O 0.46194 0.48509 0.65377 0.0
O224 O 0.45303 0.43659 0.63438 0.0
O225 O 0.4394 0.4306 0.65928 0.0
O226 O 0.42323 0.47176 0.68435 0.0
O227 O 0.37739 0.47562 0.6766 0.0
O228 O 0.38405 0.44094 0.64633 0.0
O229 O 0.39514 0.48198 0.63744 0.0
O230 O 0.40719 0.52441 0.65737 0.0
O231 O 0.41222 0.52662 0.63141 0.0
H232 H 0.51827 0.47612 0.59761 0.0
H233 H 0.54139 0.4446 0.57901 0.0
H234 H 0.45753 0.39883 0.57158 0.0
H235 H 0.43423 0.43093 0.59044 0.0
H236 H 0.34458 0.47337 0.70476 0.0
H237 H 0.33515 0.49549 0.72956 0.0
H238 H 0.42109 0.53939 0.72778 0.0
H239 H 0.43081 0.51587 0.70326 0.0
C240 C 0.80676 0.21801 0.35491 0.0
Eu241 Eu 0.80521 0.19501 0.38166 0.0
C242 C 0.83095 0.23035 0.34573 0.0
C243 C 0.82835 0.25954 0.34039 0.0
C244 C 0.84756 0.26976 0.32917 0.0
C245 C 0.86907 0.25042 0.32276 0.0
C246 C 0.87495 0.2232 0.33013 0.0
C247 C 0.85572 0.213 0.34147 0.0
C248 C 0.78216 0.22432 0.40557 0.0
C249 C 0.87209 0.20364 0.39687 0.0
C250 C 0.81879 0.14702 0.43876 0.0
Eu251 Eu 0.81898 0.16519 0.41042 0.0
C252 C 0.80069 0.13811 0.45219 0.0
C253 C 0.81155 0.11552 0.46171 0.0
C254 C 0.79812 0.10964 0.47579 0.0
C255 C 0.77315 0.12609 0.48079 0.0
C256 C 0.76156 0.14805 0.47089 0.0
C257 C 0.77523 0.15408 0.45682 0.0
C258 C 0.83424 0.13458 0.38429 0.0
C259 C 0.75352 0.15487 0.39468 0.0
O260 O 0.80735 0.18918 0.35725 0.0
O261 O 0.7994 0.2335 0.36695 0.0
O262 O 0.76791 0.21836 0.39314 0.0
O263 O 0.80824 0.21318 0.40511 0.0
O264 O 0.85539 0.20437 0.38445 0.0
O265 O 0.86196 0.19113 0.40939 0.0
O266 O 0.81776 0.175 0.43461 0.0
O267 O 0.82126 0.12873 0.42719 0.0
O268 O 0.85164 0.13581 0.39615 0.0
O269 O 0.81092 0.14843 0.38723 0.0
O270 O 0.76927 0.15522 0.40744 0.0
O271 O 0.76421 0.16645 0.38203 0.0
H272 H 0.80998 0.27361 0.34398 0.0
H273 H 0.84246 0.29123 0.32418 0.0
H274 H 0.89186 0.20816 0.32579 0.0
H275 H 0.85895 0.19074 0.34599 0.0
H276 H 0.83135 0.10315 0.45853 0.0
H277 H 0.80823 0.09292 0.483 0.0
H278 H 0.74208 0.16088 0.47405 0.0
H279 H 0.76634 0.17176 0.44976 0.0
C280 C 0.07875 0.56029 0.10441 0.0
Eu281 Eu 0.0994 0.55789 0.13164 0.0
C282 C 0.06751 0.58511 0.09525 0.0
C283 C 0.03836 0.58382 0.08976 0.0
C284 C 0.02952 0.60305 0.07824 0.0
C285 C 0.05026 0.62303 0.07168 0.0
C286 C 0.07731 0.62816 0.07933 0.0
C287 C 0.08612 0.60897 0.09095 0.0
C288 C 0.06822 0.53463 0.15489 0.0
C289 C 0.09056 0.62499 0.14688 0.0
C290 C 0.14807 0.57155 0.18845 0.0
Eu291 Eu 0.12815 0.57125 0.16041 0.0
C292 C 0.15494 0.55339 0.20216 0.0
C293 C 0.18168 0.55871 0.20997 0.0
C294 C 0.18708 0.54565 0.22418 0.0
C295 C 0.16594 0.52653 0.23101 0.0
C296 C 0.1396 0.52024 0.22278 0.0
C297 C 0.13409 0.53362 0.2086 0.0
C298 C 0.15967 0.58629 0.13455 0.0
C299 C 0.13792 0.50577 0.14493 0.0
O300 O 0.10726 0.56066 0.10743 0.0
O301 O 0.06227 0.55228 0.11597 0.0
O302 O 0.07572 0.52033 0.14265 0.0
O303 O 0.08002 0.56057 0.15491 0.0
O304 O 0.08842 0.60767 0.13472 0.0
O305 O 0.10426 0.61546 0.15919 0.0
O306 O 0.12007 0.57497 0.18474 0.0
O307 O 0.16552 0.56952 0.17657 0.0
O308 O 0.15769 0.60407 0.14623 0.0
O309 O 0.14579 0.56304 0.13748 0.0
O310 O 0.13524 0.52067 0.1579 0.0
O311 O 0.1287 0.51754 0.13206 0.0
H312 H 0.02329 0.56626 0.09338 0.0
H313 H 1.00804 0.59878 0.07306 0.0
H314 H 0.09339 0.64397 0.07487 0.0
H315 H 0.10839 0.61129 0.09559 0.0
H316 H 0.19803 0.57405 0.20534 0.0
H317 H 0.20743 0.55169 0.23002 0.0
H318 H 0.12294 0.50517 0.2273 0.0
H319 H 0.11319 0.52901 0.20288 0.0
C320 C 0.81836 0.6426 0.6161 0.0
Eu321 Eu 0.82027 0.66201 0.64421 0.0
C322 C 0.80016 0.63716 0.60223 0.0
C323 C 0.8 0.60851 0.59572 0.0
C324 C 0.78715 0.60343 0.58142 0.0
C325 C 0.77374 0.62687 0.57319 0.0
C326 C 0.77287 0.65539 0.58009 0.0
C327 C 0.78608 0.66051 0.59435 0.0
C328 C 0.83527 0.6267 0.66867 0.0
C329 C 0.75535 0.65519 0.66057 0.0
C330 C 0.82306 0.68914 0.70415 0.0
Eu331 Eu 0.81129 0.68679 0.67569 0.0
C332 C 0.84077 0.71009 0.71311 0.0
C333 C 0.83329 0.74037 0.71387 0.0
C334 C 0.84869 0.75913 0.72372 0.0
C335 C 0.87143 0.74765 0.7332 0.0
C336 C 0.88222 0.71875 0.73017 0.0
C337 C 0.86648 0.69984 0.72048 0.0
C338 C 0.79396 0.73118 0.65747 0.0
C339 C 0.87382 0.7016 0.65731 0.0
O340 O 0.82447 0.67022 0.61989 0.0
O341 O 0.81448 0.62529 0.6279 0.0
O342 O 0.85334 0.63102 0.65732 0.0
O343 O 0.81264 0.64201 0.6665 0.0
O344 O 0.76976 0.65791 0.64745 0.0
O345 O 0.76808 0.66205 0.67366 0.0
O346 O 0.83891 0.67357 0.69449 0.0
O347 O 0.79752 0.69871 0.69859 0.0
O348 O 0.79345 0.73234 0.67219 0.0
O349 O 0.80344 0.70614 0.65251 0.0
O350 O 0.85908 0.70079 0.67031 0.0
O351 O 0.86239 0.68984 0.64484 0.0
H352 H 0.81096 0.59014 0.60145 0.0
H353 H 0.78892 0.58123 0.57663 0.0
H354 H 0.76222 0.67402 0.57448 0.0
H355 H 0.78583 0.68293 0.599 0.0
H356 H 0.81449 0.74923 0.7076 0.0
H357 H 0.83993 0.78146 0.72517 0.0
H358 H 0.90058 0.70959 0.73664 0.0
H359 H 0.87352 0.67679 0.71934 0.0
C360 C 0.14603 0.06939 0.86572 0.0
Eu361 Eu 0.12865 0.0696 0.89421 0.0
C362 C 0.15412 0.05148 0.85206 0.0
C363 C 0.17924 0.05989 0.84357 0.0
C364 C 0.18524 0.04675 0.82941 0.0
C365 C 0.1661 0.02489 0.82321 0.0
C366 C 0.14146 1.01566 0.83206 0.0
C367 C 0.13556 0.02876 0.84629 0.0
C368 C 0.16406 0.08496 0.91875 0.0
C369 C 0.14069 1.00463 0.90957 0.0
C370 C 0.08998 0.06376 0.95171 0.0
Eu371 Eu 0.1048 0.05758 0.92366 0.0
C372 C 0.06951 0.08457 0.95928 0.0
C373 C 0.03921 0.07757 0.96056 0.0
C374 C 0.02097 0.09443 0.97 0.0
C375 C 0.03298 0.11811 0.97873 0.0
C376 C 0.06183 0.12828 0.97513 0.0
C377 C 0.0802 0.11123 0.96572 0.0
C378 C 0.06886 0.03396 0.90247 0.0
C379 C 0.09049 0.12306 0.90753 0.0
O380 O 0.11815 0.06951 0.87004 0.0
O381 O 0.16456 0.07057 0.87717 0.0
O382 O 0.15835 0.1034 0.90772 0.0
O383 O 0.15043 0.06137 0.91623 0.0
O384 O 0.13588 1.01907 0.89666 0.0
O385 O 0.13442 1.01752 0.92265 0.0
O386 O 0.11415 0.07569 0.946 0.0
O387 O 0.07795 0.04347 0.94287 0.0
O388 O 0.07776 1.02043 0.91466 0.0
O389 O 0.08104 0.0597 0.90139 0.0
O390 O 0.08809 0.10553 0.91958 0.0
O391 O 0.10509 0.11392 0.89542 0.0
H392 H 0.19384 0.07742 0.84769 0.0
H393 H 0.20482 0.0541 0.82327 0.0
H394 H 0.12596 0.99914 0.82776 0.0
H395 H 0.1159 1.02182 0.85253 0.0
H396 H 0.02995 0.05785 0.95517 0.0
H397 H 0.99861 0.08609 0.97181 0.0
H398 H 0.07144 0.14729 0.98098 0.0
H399 H 0.10323 0.11795 0.96431 0.0
C400 C 0.7218 0.39895 0.11565 0.0
Eu401 Eu 0.72154 0.37967 0.14381 0.0
C402 C 0.74038 0.4059 0.10207 0.0
C403 C 0.73531 0.43262 0.09418 0.0
C404 C 0.7487 0.43789 0.08001 0.0
C405 C 0.76781 0.41659 0.07331 0.0
C406 C 0.77389 0.39032 0.08163 0.0
C407 C 0.76026 0.38497 0.09576 0.0
C408 C 0.70667 0.41152 0.16957 0.0
C409 C 0.78691 0.38912 0.15938 0.0
C410 C 0.73148 0.33186 0.2003 0.0
Eu411 Eu 0.73451 0.3511 0.17284 0.0
C412 C 0.70807 0.31666 0.20897 0.0
C413 C 0.71153 0.28646 0.21251 0.0
C414 C 0.69353 0.27345 0.22349 0.0
C415 C 0.67252 0.29089 0.23152 0.0
C416 C 0.66539 0.31934 0.22584 0.0
C417 C 0.68342 0.33239 0.21476 0.0
C418 C 0.75763 0.32003 0.14956 0.0
C419 C 0.66815 0.34115 0.15714 0.0
O420 O 0.71894 0.37091 0.11951 0.0
O421 O 0.72284 0.4168 0.12744 0.0
O422 O 0.68879 0.40914 0.15796 0.0
O423 O 0.7299 0.39752 0.16673 0.0
O424 O 0.77186 0.38693 0.14645 0.0
O425 O 0.77508 0.37996 0.17227 0.0
O426 O 0.72639 0.35973 0.19669 0.0
O427 O 0.74395 0.31643 0.18936 0.0
O428 O 0.77143 0.32591 0.16215 0.0
O429 O 0.73171 0.33168 0.14959 0.0
O430 O 0.68517 0.33907 0.16939 0.0
O431 O 0.67786 0.35497 0.14489 0.0
H432 H 0.7199 0.44902 0.09869 0.0
H433 H 0.74295 0.45822 0.07407 0.0
H434 H 0.78896 0.37357 0.07718 0.0
H435 H 0.76471 0.3641 0.10154 0.0
H436 H 0.72977 0.27357 0.20778 0.0
H437 H 0.69944 0.25114 0.22714 0.0
H438 H 0.64874 0.33302 0.23143 0.0
H439 H 0.67946 0.35549 0.21172 0.0
C440 C 0.39619 0.9729 0.36563 0.0
Eu441 Eu 0.41297 0.97297 0.39417 0.0
C442 C 0.38659 0.99017 0.35205 0.0
C443 C 0.36477 0.97781 0.34253 0.0
C444 C 0.35839 0.99053 0.32835 0.0
C445 C 0.37397 1.01591 0.32312 0.0
C446 C 0.39509 0.02903 0.33303 0.0
C447 C 0.4013 1.01634 0.34732 0.0
C448 C 0.38289 0.95681 0.42 0.0
C449 C 0.40142 0.03847 0.40998 0.0
C450 C 0.46751 0.98781 0.44924 0.0
Eu451 Eu 0.44352 0.988 0.42266 0.0
C452 C 0.4847 0.96569 0.45778 0.0
C453 C 0.5133 0.97327 0.46269 0.0
C454 C 0.52772 0.95547 0.4733 0.0
C455 C 0.51325 0.9302 0.47949 0.0
C456 C 0.48684 0.92011 0.47262 0.0
C457 C 0.47246 0.93794 0.46192 0.0
C458 C 0.47208 1.00995 0.39826 0.0
C459 C 0.4526 0.9205 0.40768 0.0
O460 O 0.4238 0.97595 0.37014 0.0
O461 O 0.37759 0.96886 0.37692 0.0
O462 O 0.38357 0.94021 0.40783 0.0
O463 O 0.39666 0.98065 0.41766 0.0
O464 O 0.40029 1.02198 0.39746 0.0
O465 O 0.41481 0.0289 0.42238 0.0
O466 O 0.43925 0.98192 0.447 0.0
O467 O 0.4808 0.99919 0.43736 0.0
O468 O 0.4657 0.02513 0.41036 0.0
O469 O 0.46101 0.98381 0.39919 0.0
O470 O 0.45711 0.93891 0.41927 0.0
O471 O 0.43644 0.92862 0.3959 0.0
H472 H 0.35325 0.95755 0.34584 0.0
H473 H 0.34139 0.98003 0.32145 0.0
H474 H 0.40784 0.04838 0.32956 0.0
H475 H 0.41839 0.02638 0.35438 0.0
H476 H 0.52353 0.99415 0.45926 0.0
H477 H 0.54831 0.96402 0.47804 0.0
H478 H 0.47544 0.9005 0.4769 0.0
H479 H 0.45087 0.93098 0.45784 0.0
C480 C 0.22122 0.35258 0.35091 0.0
Eu481 Eu 0.23142 0.3566 0.37949 0.0
C482 C 0.2044 0.33032 0.34224 0.0
C483 C 0.21506 0.30115 0.34056 0.0
C484 C 0.20005 0.28112 0.33123 0.0
C485 C 0.17413 0.28998 0.32329 0.0
C486 C 0.16128 0.31774 0.32688 0.0
C487 C 0.17663 0.33799 0.33603 0.0
C488 C 0.24645 0.31226 0.3981 0.0
C489 C 0.16753 0.34303 0.39696 0.0
C490 C 0.22183 0.40153 0.43864 0.0
Eu491 Eu 0.2208 0.3825 0.41044 0.0
C492 C 0.24033 0.4068 0.45245 0.0
C493 C 0.24334 0.43593 0.45821 0.0
C494 C 0.25629 0.44109 0.47249 0.0
C495 C 0.2668 0.4172 0.48145 0.0
C496 C 0.26492 0.38811 0.4753 0.0
C497 C 0.25172 0.38296 0.46107 0.0
C498 C 0.20691 0.41691 0.38556 0.0
C499 C 0.28703 0.38854 0.39491 0.0
O500 O 0.20477 0.3687 0.36008 0.0
O501 O 0.2467 0.34406 0.35694 0.0
O502 O 0.24749 0.31077 0.38342 0.0
O503 O 0.23725 0.33752 0.40298 0.0
O504 O 0.18321 0.34289 0.38423 0.0
O505 O 0.17817 0.35553 0.40941 0.0
O506 O 0.21618 0.37392 0.43468 0.0
O507 O 0.22527 0.41915 0.42692 0.0
O508 O 0.18849 0.41329 0.39685 0.0
O509 O 0.22954 0.40176 0.38812 0.0
O510 O 0.27098 0.38888 0.40759 0.0
O511 O 0.27599 0.37887 0.38188 0.0
H512 H 0.2358 0.29416 0.34577 0.0
H513 H 0.21081 0.25989 0.32911 0.0
H514 H 0.14094 0.32498 0.32139 0.0
H515 H 0.16739 0.36011 0.33773 0.0
H516 H 0.2345 0.45474 0.45192 0.0
H517 H 0.25685 0.46379 0.47672 0.0
H518 H 0.27334 0.36908 0.48152 0.0
H519 H 0.24976 0.36017 0.45704 0.0
C520 C 0.95761 0.98325 0.10371 0.0
Eu521 Eu 0.93913 0.98657 0.13134 0.0
C522 C 0.97729 0.96212 0.09586 0.0
C523 C 1.00664 0.97047 0.09266 0.0
C524 C 0.02364 0.95351 0.08269 0.0
C525 C 1.01114 0.92833 0.07533 0.0
C526 C 0.98383 0.91717 0.08079 0.0
C527 C 0.96671 0.93427 0.09077 0.0
C528 C 0.97236 1.0106 0.15372 0.0
C529 C 0.95156 0.92039 0.14685 0.0
C530 C 0.89307 0.97359 0.18803 0.0
Eu531 Eu 0.91277 0.97354 0.15991 0.0
C532 C 0.88756 0.99224 0.20183 0.0
C533 C 0.85849 0.99478 0.20766 0.0
C534 C 0.85326 1.00809 0.22189 0.0
C535 C 0.877 1.01926 0.23074 0.0
C536 C 0.90599 1.01779 0.22455 0.0
C537 C 0.91121 1.00442 0.21035 0.0
C538 C 0.87975 0.95674 0.13484 0.0
C539 C 0.90106 0.03839 0.14479 0.0
O540 O 0.93173 0.97287 0.10805 0.0
O541 O 0.97015 1.00071 0.11381 0.0
O542 O 0.96427 0.02429 0.14144 0.0
O543 O 0.96075 0.98456 0.15419 0.0
O544 O 0.95547 0.93845 0.13514 0.0
O545 O 0.93567 0.92889 0.15865 0.0
O546 O 0.92072 0.96832 0.18418 0.0
O547 O 0.8757 0.97682 0.17621 0.0
O548 O 0.88503 0.93895 0.14616 0.0
O549 O 0.89248 0.98096 0.13727 0.0
O550 O 0.90549 0.02395 0.1577 0.0
O551 O 0.9086 0.02592 0.13181 0.0
H552 H 1.01573 0.99132 0.09691 0.0
H553 H 0.04493 0.96278 0.07935 0.0
H554 H 0.97405 0.89718 0.07594 0.0
H555 H 0.94448 0.92661 0.09359 0.0
H556 H 0.83982 0.98538 0.20146 0.0
H557 H 0.83065 1.00844 0.22619 0.0
H558 H 0.92487 0.02669 0.23076 0.0
H559 H 0.93395 1.0029 0.20627 0.0
C560 C 0.30914 0.70652 0.85388 0.0
Eu561 Eu 0.31191 0.69052 0.88179 0.0
C562 C 0.32906 0.7265 0.84541 0.0
C563 C 0.32182 0.75667 0.84367 0.0
C564 C 0.33881 0.77464 0.83414 0.0
C565 C 0.36253 0.76229 0.82561 0.0
C566 C 0.3728 0.73371 0.82957 0.0
C567 C 0.35583 0.7157 0.83913 0.0
C568 C 0.30397 0.73061 0.9048 0.0
C569 C 0.37535 0.69862 0.89748 0.0
C570 C 0.32017 0.64138 0.9387 0.0
Eu571 Eu 0.32038 0.6626 0.91097 0.0
C572 C 0.30167 0.6369 0.95256 0.0
C573 C 0.29771 0.60791 0.9583 0.0
C574 C 0.28441 0.60324 0.97253 0.0
C575 C 0.27451 0.6275 0.98145 0.0
C576 C 0.2773 0.65648 0.97531 0.0
C577 C 0.29082 0.66114 0.96112 0.0
C578 C 0.33629 0.62954 0.88559 0.0
C579 C 0.25488 0.65735 0.89586 0.0
O580 O 0.32114 0.68129 0.85817 0.0
O581 O 0.29231 0.71882 0.86437 0.0
O582 O 0.32088 0.73461 0.89306 0.0
O583 O 0.29475 0.70391 0.90469 0.0
O584 O 0.36246 0.69266 0.88435 0.0
O585 O 0.36077 0.69347 0.91023 0.0
O586 O 0.32811 0.66868 0.93522 0.0
O587 O 0.31445 0.62507 0.92669 0.0
O588 O 0.354 0.63304 0.89715 0.0
O589 O 0.31332 0.64399 0.88813 0.0
O590 O 0.27047 0.65525 0.90857 0.0
O591 O 0.26647 0.66919 0.88346 0.0
H592 H 0.302 0.76597 0.84889 0.0
H593 H 0.33055 0.79694 0.83202 0.0
H594 H 0.3918 0.72394 0.82382 0.0
H595 H 0.36284 0.6928 0.84085 0.0
H596 H 0.30602 0.58881 0.95202 0.0
H597 H 0.28309 0.5806 0.97676 0.0
H598 H 0.26935 0.67579 0.98153 0.0
H599 H 0.29342 0.68382 0.95706 0.0
C600 C 0.58168 0.0589 0.60375 0.0
Eu601 Eu 0.60095 0.05675 0.63122 0.0
C602 C 0.56742 0.08266 0.59495 0.0
C603 C 0.53737 0.07974 0.59108 0.0
C604 C 0.52488 0.09869 0.58038 0.0
C605 C 0.54265 0.12029 0.57295 0.0
C606 C 0.57114 0.12647 0.57888 0.0
C607 C 0.58364 0.10749 0.58969 0.0
C608 C 0.56873 0.03531 0.65455 0.0
C609 C 0.58947 0.12372 0.64636 0.0
C610 C 0.64402 0.07164 0.68886 0.0
Eu611 Eu 0.62816 0.07145 0.66021 0.0
C612 C 0.65488 0.05443 0.70219 0.0
C613 C 0.67638 0.06744 0.71168 0.0
C614 C 0.68331 0.0548 0.72581 0.0
C615 C 0.66857 0.02889 0.73101 0.0
C616 C 0.6479 1.01511 0.7211 0.0
C617 C 0.64121 0.02766 0.70687 0.0
C618 C 0.66036 0.08617 0.63461 0.0
C619 C 0.63998 1.00526 0.64505 0.0
O620 O 0.60979 0.06284 0.60722 0.0
O621 O 0.56586 0.04775 0.61488 0.0
O622 O 0.57586 1.02027 0.6425 0.0
O623 O 0.58051 0.06117 0.65409 0.0
O624 O 0.58924 0.10667 0.63401 0.0
O625 O 0.60185 0.11405 0.65897 0.0
O626 O 0.61707 0.06592 0.68403 0.0
O627 O 0.66242 0.07853 0.67783 0.0
O628 O 0.6569 0.10459 0.64598 0.0
O629 O 0.64711 0.06246 0.63758 0.0
O630 O 0.64055 0.0221 0.65746 0.0
O631 O 0.62788 1.01483 0.63233 0.0
H632 H 0.52411 0.06138 0.59543 0.0
H633 H 0.50256 0.09336 0.57658 0.0
H634 H 0.58508 0.14355 0.57382 0.0
H635 H 0.60659 0.11107 0.59307 0.0
H636 H 0.68709 0.08817 0.70842 0.0
H637 H 0.69997 0.06581 0.73272 0.0
H638 H 0.63578 0.99534 0.72455 0.0
H639 H 0.62439 1.01709 0.69984 0.0
H640 H 0.36288 0.31515 0.24055 0.0
H641 H 0.32371 0.32268 0.25918 0.0
H642 H 0.34281 0.23646 0.27863 0.0
H643 H 0.38037 0.22816 0.25956 0.0
H644 H 0.29283 0.23667 0.25984 0.0
H645 H 0.288 0.33013 0.30125 0.0
H646 H 0.30102 0.34122 0.2828 0.0
H647 H 0.32279 0.31567 0.29396 0.0
C648 C 0.36002 0.29851 0.24937 0.0
C649 C 0.37131 0.26947 0.24732 0.0
C650 C 0.33748 0.30291 0.26007 0.0
C651 C 0.32928 0.27925 0.26965 0.0
C652 C 0.34811 0.25447 0.27086 0.0
H653 H 0.17724 0.23011 0.31492 0.0
H654 H 0.21273 0.22231 0.29453 0.0
C655 C 0.36995 0.24994 0.25987 0.0
C656 C 0.29781 0.27591 0.27402 0.0
H657 H 0.24145 0.30899 0.29347 0.0
C658 C 0.28159 0.25232 0.26733 0.0
C659 C 0.28321 0.29676 0.28338 0.0
C660 C 0.29971 0.32222 0.29086 0.0
C661 C 0.25099 0.24897 0.26988 0.0
C662 C 0.23641 0.26971 0.27931 0.0
C663 C 0.25262 0.29342 0.28591 0.0
C664 C 0.20533 0.26564 0.28425 0.0
C665 C 0.23454 0.22338 0.26248 0.0
C666 C 0.18619 0.29031 0.28378 0.0
C667 C 0.16652 0.29503 0.29579 0.0
C668 C 0.16754 0.27565 0.3084 0.0
C669 C 0.17833 0.24656 0.30591 0.0
C670 C 0.19876 0.242 0.29417 0.0
H671 H 0.24584 0.21599 0.25188 0.0
H672 H 0.2341 0.20416 0.27043 0.0
H673 H 0.21117 0.22955 0.25976 0.0
H674 H 0.19019 0.30832 0.27581 0.0
H675 H 0.15636 0.3169 0.29659 0.0
H676 H 0.5561 0.41316 0.559 0.0
H677 H 0.5677 0.45231 0.54069 0.0
H678 H 0.47442 0.4602 0.52979 0.0
H679 H 0.46265 0.42214 0.54813 0.0
H680 H 0.52062 0.48326 0.50696 0.0
H681 H 0.52791 0.52564 0.56659 0.0
H682 H 0.54923 0.49303 0.5616 0.0
H683 H 0.50921 0.49121 0.56186 0.0
C684 C 0.53821 0.42185 0.55202 0.0
C685 C 0.50828 0.41759 0.55638 0.0
C686 C 0.54493 0.44442 0.54163 0.0
C687 C 0.5216 0.4602 0.53476 0.0
C688 C 0.49259 0.44888 0.53551 0.0
H689 H 0.4877 0.63027 0.49706 0.0
H690 H 0.48087 0.59072 0.51576 0.0
C691 C 0.486 0.4267 0.54605 0.0
C692 C 0.52543 0.49179 0.53086 0.0
H693 H 0.53052 0.56105 0.54712 0.0
C694 C 0.52305 0.5003 0.51567 0.0
C695 C 0.52782 0.51379 0.54244 0.0
C696 C 0.52856 0.50566 0.55908 0.0
C697 C 0.52351 0.53048 0.51165 0.0
C698 C 0.52586 0.55246 0.52323 0.0
C699 C 0.52838 0.54398 0.53841 0.0
C700 C 0.52811 0.58419 0.51932 0.0
C701 C 0.52192 0.53868 0.49505 0.0
C702 C 0.5565 0.59628 0.5171 0.0
C703 C 0.56033 0.61866 0.50631 0.0
C704 C 0.53588 0.62701 0.49713 0.0
C705 C 0.50712 0.62207 0.50306 0.0
C706 C 0.50311 0.59928 0.51369 0.0
H707 H 0.52254 0.51877 0.48749 0.0
H708 H 0.50093 0.55099 0.49281 0.0
H709 H 0.5409 0.55348 0.49206 0.0
H710 H 0.576 0.58546 0.52184 0.0
H711 H 0.58302 0.62388 0.50307 0.0
H712 H 0.16006 0.82271 0.75206 0.0
H713 H 0.19658 0.81828 0.77197 0.0
H714 H 0.20695 0.72474 0.76174 0.0
H715 H 0.16922 0.72881 0.74192 0.0
H716 H 0.22548 0.76908 0.79592 0.0
H717 H 0.27371 0.78612 0.73802 0.0
H718 H 0.23618 0.79745 0.74252 0.0
H719 H 0.24505 0.75845 0.74072 0.0
C720 C 0.16836 0.80055 0.75453 0.0
C721 C 0.16533 0.77688 0.744 0.0
C722 C 0.18957 0.79825 0.76601 0.0
C723 C 0.20565 0.7717 0.76749 0.0
C724 C 0.19536 0.74575 0.76027 0.0
H725 H 0.37312 0.72951 0.79949 0.0
H726 H 0.33652 0.73756 0.77993 0.0
C727 C 0.17361 0.74817 0.74898 0.0
C728 C 0.2368 0.77368 0.77234 0.0
H729 H 0.30701 0.78565 0.75847 0.0
C730 C 0.24335 0.77269 0.78781 0.0
C731 C 0.25979 0.77865 0.76156 0.0
C732 C 0.25353 0.78036 0.74474 0.0
C733 C 0.2727 0.77612 0.79284 0.0
C734 C 0.29567 0.78138 0.78207 0.0
C735 C 0.28912 0.78227 0.7666 0.0
C736 C 0.3269 0.78286 0.78688 0.0
C737 C 0.27905 0.77322 0.80961 0.0
C738 C 0.33692 0.80734 0.79541 0.0
C739 C 0.35864 0.80288 0.80654 0.0
C740 C 0.36747 0.77345 0.80987 0.0
C741 C 0.36461 0.75197 0.79818 0.0
C742 C 0.34333 0.75637 0.7869 0.0
H743 H 0.25898 0.7667 0.81623 0.0
H744 H 0.29657 0.75612 0.81144 0.0
H745 H 0.28729 0.79489 0.81408 0.0
H746 H 0.32502 0.82837 0.79509 0.0
H747 H 0.36264 0.82067 0.81466 0.0
H748 H 0.0451 0.40746 0.99951 0.0
H749 H 0.0593 0.44479 1.01835 0.0
H750 H 0.96687 0.46947 1.02348 0.0
H751 H 0.95279 0.43219 1.00535 0.0
H752 H 0.04764 0.49675 1.00472 0.0
H753 H 0.99843 0.50048 0.06212 0.0
H754 H 1.00029 0.4662 0.05131 0.0
H755 H 0.97001 0.49209 0.04848 0.0
C756 C 0.02762 0.41917 1.00558 0.0
C757 C 0.99831 0.41912 0.9999 0.0
C758 C 0.03583 0.44086 1.01622 0.0
C759 C 1.01429 0.46085 1.02175 0.0
C760 C 0.98405 0.45464 1.01926 0.0
H761 H 1.00192 0.63703 0.05331 0.0
H762 H 0.99235 0.59922 0.03399 0.0
C763 C 0.97599 0.43288 1.00875 0.0
C764 C 0.02287 0.49172 1.02567 0.0
H765 H 1.00721 0.54858 0.05005 0.0
C766 C 0.03925 0.50798 1.0148 0.0
C767 C 1.01127 0.50651 0.03854 0.0
C768 C 0.99426 0.49023 0.0508 0.0
C769 C 0.04383 0.53877 1.01632 0.0
C770 C 0.03166 0.55362 0.02902 0.0
C771 C 1.0157 0.5373 0.04001 0.0
C772 C 0.0384 0.58511 0.0325 0.0
C773 C 0.06133 0.55511 1.00427 0.0
C774 C 0.06786 0.59278 0.03608 0.0
C775 C 0.07323 0.61493 0.04686 0.0
C776 C 0.04897 0.6271 0.05494 0.0
C777 C 1.02081 0.62625 0.04793 0.0
C778 C 1.01523 0.60427 0.03701 0.0
H779 H 0.05923 0.54389 0.99304 0.0
H780 H 0.05396 0.57867 1.00313 0.0
H781 H 0.08529 0.55501 1.00743 0.0
H782 H 0.08627 0.57874 0.03255 0.0
H783 H 0.09573 0.61686 0.05117 0.0
H784 H 0.66988 0.72804 0.81219 0.0
H785 H 0.71 0.72207 0.79378 0.0
H786 H 0.69735 0.81285 0.77896 0.0
H787 H 0.65858 0.81934 0.79765 0.0
H788 H 0.73438 0.73694 0.76406 0.0
H789 H 0.76891 0.81493 0.81028 0.0
H790 H 0.73452 0.79417 0.81088 0.0
H791 H 0.73759 0.82673 0.79907 0.0
C792 C 0.67443 0.74626 0.80443 0.0
C793 C 0.66453 0.77533 0.80784 0.0
C794 C 0.69757 0.74281 0.79396 0.0
C795 C 0.70787 0.76786 0.78598 0.0
C796 C 0.69052 0.79376 0.78569 0.0
H797 H 0.86941 0.80705 0.74282 0.0
H798 H 0.82959 0.81539 0.76117 0.0
C799 C 0.66795 0.79721 0.79642 0.0
C800 C 0.73948 0.76956 0.78179 0.0
H801 H 0.80543 0.80189 0.79233 0.0
C802 C 0.74995 0.75112 0.77017 0.0
C803 C 0.75962 0.78785 0.79011 0.0
C804 C 0.74975 0.8069 0.80337 0.0
C805 C 0.78017 0.75094 0.76632 0.0
C806 C 0.80027 0.76933 0.77459 0.0
C807 C 0.78983 0.78776 0.78621 0.0
C808 C 0.8319 0.77072 0.77046 0.0
C809 C 0.79016 0.73152 0.75322 0.0
C810 C 0.84922 0.74487 0.77153 0.0
C811 C 0.87164 0.74006 0.76087 0.0
C812 C 0.87488 0.76044 0.74874 0.0
C813 C 0.86502 0.78989 0.75121 0.0
C814 C 0.84207 0.79469 0.76165 0.0
H815 H 0.77106 0.72279 0.74649 0.0
H816 H 0.80494 0.74432 0.74552 0.0
H817 H 0.80289 0.71217 0.75765 0.0
H818 H 0.84239 0.72663 0.77884 0.0
H819 H 0.88092 0.71778 0.76032 0.0
H820 H 0.66325 0.2369 0.24621 0.0
H821 H 0.70065 0.22567 0.26542 0.0
H822 H 0.71201 0.31996 0.27384 0.0
H823 H 0.67501 0.33104 0.25504 0.0
H824 H 0.75135 0.24844 0.2524 0.0
H825 H 0.74487 0.28599 0.31218 0.0
H826 H 0.71194 0.27965 0.3008 0.0
H827 H 0.73196 0.31448 0.29952 0.0
C828 C 0.67202 0.25512 0.253 0.0
C829 C 0.66886 0.28478 0.24801 0.0
C830 C 0.69372 0.24864 0.26388 0.0
C831 C 0.71014 0.27205 0.27045 0.0
C832 C 0.70006 0.30146 0.26872 0.0
H833 H 0.88145 0.30121 0.30577 0.0
H834 H 0.84485 0.30921 0.28578 0.0
C835 C 0.67849 0.30775 0.25784 0.0
C836 C 0.74166 0.26737 0.2745 0.0
H837 H 0.79411 0.285 0.30092 0.0
C838 C 0.76066 0.25596 0.26313 0.0
C839 C 0.75381 0.27804 0.28824 0.0
C840 C 0.73447 0.28997 0.30091 0.0
C841 C 0.79161 0.25521 0.26514 0.0
C842 C 0.80373 0.26616 0.27881 0.0
C843 C 0.78475 0.27741 0.29021 0.0
C844 C 0.83535 0.26218 0.28275 0.0
C845 C 0.81108 0.24289 0.25264 0.0
C846 C 0.84529 0.23317 0.28582 0.0
C847 C 0.86624 0.22874 0.29727 0.0
C848 C 0.8752 0.25331 0.30622 0.0
C849 C 0.87291 0.28191 0.29972 0.0
C850 C 0.85169 0.28658 0.28836 0.0
H851 H 0.80008 0.24474 0.24136 0.0
H852 H 0.83289 0.25463 0.25219 0.0
H853 H 0.81534 0.21887 0.25485 0.0
H854 H 0.83345 0.21394 0.28137 0.0
H855 H 0.86938 0.20603 0.30118 0.0
H856 H 0.97585 0.91184 0.05086 0.0
H857 H 0.97908 0.94527 0.02952 0.0
H858 H 0.06991 0.96627 0.04167 0.0
H859 H 0.06757 0.93044 0.06219 0.0
H860 H 0.98161 0.9975 0.04351 0.0
H861 H 0.06943 0.99571 0.99955 0.0
H862 H 0.05882 0.96246 1.00982 0.0
H863 H 0.08523 0.98845 1.01787 0.0
C864 C 0.9974 0.92163 0.04843 0.0
C865 C 1.02039 0.92195 0.05938 0.0
C866 C 0.99901 0.94117 0.03616 0.0
C867 C 0.02398 0.95976 0.03464 0.0
C868 C 0.04998 0.9528 0.04279 0.0
H869 H 0.06337 0.13185 1.00535 0.0
H870 H 0.05569 0.09571 1.0252 0.0
C871 C 0.04855 0.93219 0.05464 0.0
C872 C 1.01983 0.99043 0.0289 0.0
H873 H 0.05241 0.04466 1.00762 0.0
C874 C 0.99683 1.00767 0.03544 0.0
C875 C 0.04 1.00387 1.01871 0.0
C876 C 0.06455 0.98649 1.01101 0.0
C877 C 0.99383 0.03813 0.03225 0.0
C878 C 1.01438 0.05163 1.02232 0.0
C879 C 0.03708 0.03435 1.01559 0.0
C880 C 1.01171 0.08298 1.01747 0.0
C881 C 0.96904 0.05561 0.03969 0.0
C882 C 0.98747 0.09147 1.00838 0.0
C883 C 0.99152 0.11339 0.9973 0.0
C884 C 1.02069 0.12342 0.99427 0.0
C885 C 0.04136 0.12215 1.00634 0.0
C886 C 0.03717 0.10111 1.01778 0.0
H887 H 0.96184 0.04511 0.05052 0.0
H888 H 0.97587 0.07903 0.04201 0.0
H889 H 0.94952 0.05602 0.03194 0.0
H890 H 0.96717 0.07836 1.00819 0.0
H891 H 0.97403 0.11648 0.98895 0.0
H892 H 0.56719 0.92327 0.49442 0.0
H893 H 0.57308 0.95887 0.51511 0.0
H894 H 0.47813 0.95736 0.52267 0.0
H895 H 0.47231 0.92215 0.50221 0.0
H896 H 0.53874 1.00604 0.50091 0.0
H897 H 0.51068 0.99427 0.56218 0.0
H898 H 0.52537 0.96376 0.55095 0.0
H899 H 0.48685 0.97412 0.5493 0.0
C900 C 0.54788 0.92855 0.50132 0.0
C901 C 0.51907 0.92301 0.49568 0.0
C902 C 0.55127 0.94923 0.51309 0.0
C903 C 0.52582 0.9619 0.51977 0.0
C904 C 0.49804 0.9484 0.51739 0.0
H905 H 0.4883 0.13037 0.55862 0.0
H906 H 0.47825 0.09378 0.53875 0.0
C907 C 0.49483 0.92791 0.50557 0.0
C908 C 0.52619 0.99378 0.5238 0.0
H909 H 0.50886 0.04329 0.55175 0.0
C910 C 0.53254 1.01423 0.51209 0.0
C911 C 0.51695 1.00422 0.53814 0.0
C912 C 0.50975 0.98299 0.55092 0.0
C913 C 0.5304 0.04504 0.51448 0.0
C914 C 0.52178 0.05553 0.52891 0.0
C915 C 0.51486 0.03507 0.54054 0.0
C916 C 0.52476 0.08715 0.53319 0.0
C917 C 0.53753 0.06617 0.50164 0.0
C918 C 0.55363 0.0986 0.53491 0.0
C919 C 0.55929 0.11923 0.54641 0.0
C920 C 0.53624 0.12652 0.55666 0.0
C921 C 0.5067 0.12293 0.55158 0.0
C922 C 0.50086 0.10179 0.54027 0.0
H923 H 0.53452 0.05526 0.49039 0.0
H924 H 0.52329 0.08643 0.50217 0.0
H925 H 0.56116 0.07333 0.50258 0.0
H926 H 0.5724 0.08807 0.5293 0.0
H927 H 0.58243 0.12346 0.54917 0.0
H928 H 0.18168 0.04349 0.93907 0.0
H929 H 0.19885 0.05035 0.96509 0.0
H930 H 0.19474 0.1459 0.9594 0.0
H931 H 0.17652 0.13903 0.93315 0.0
H932 H 0.24738 0.07555 0.97677 0.0
H933 H 0.14813 0.13553 0.99844 0.0
H934 H 0.14855 0.11641 0.98037 0.0
H935 H 0.16463 0.1531 0.98213 0.0
C936 C 0.18456 0.06609 0.94326 0.0
C937 C 0.17786 0.09078 0.93392 0.0
C938 C 0.19438 0.06993 0.95823 0.0
C939 C 0.19779 0.09862 0.96443 0.0
C940 C 0.19175 0.12347 0.95505 0.0
H941 H 0.25805 0.1681 0.05154 0.0
H942 H 0.23948 0.16015 1.02582 0.0
C943 C 0.18178 0.1196 0.93995 0.0
C944 C 0.2081 0.10214 0.98057 0.0
H945 H 0.18995 0.13351 1.01489 0.0
C946 C 0.23478 0.08823 0.9851 0.0
C947 C 0.1915 0.11814 0.99161 0.0
C948 C 0.16145 0.1314 0.98798 0.0
C949 C 0.2458 0.0908 1.00006 0.0
C950 C 0.22957 0.10752 1.01099 0.0
C951 C 0.20265 0.12099 1.00654 0.0
C952 C 0.24031 0.11191 1.02698 0.0
C953 C 0.27515 0.07616 1.00386 0.0
C954 C 0.24637 0.08749 0.03652 0.0
C955 C 0.25668 0.09194 0.05142 0.0
C956 C 0.2612 0.12099 0.05728 0.0
C957 C 0.25456 0.14537 0.04773 0.0
C958 C 0.24411 0.14087 0.03286 0.0
H959 H 0.28856 0.0716 0.99349 0.0
H960 H 0.28856 0.0903 1.01168 0.0
H961 H 0.27079 0.05447 1.00954 0.0
H962 H 0.24287 0.06488 0.0325 0.0
H963 H 0.26074 0.07245 0.05838 0.0
H964 H 0.67999 0.46892 0.31433 0.0
H965 H 0.68817 0.44967 0.28855 0.0
H966 H 0.6711 0.53737 0.27029 0.0
H967 H 0.66421 0.5568 0.29591 0.0
H968 H 0.65708 0.44231 0.26514 0.0
H969 H 0.74409 0.5221 0.24753 0.0
H970 H 0.73093 0.52035 0.26686 0.0
H971 H 0.7111 0.542 0.25282 0.0
C972 C 0.67817 0.48413 0.30481 0.0
C973 C 0.67186 0.51456 0.3073 0.0
C974 C 0.68289 0.4731 0.29002 0.0
C975 C 0.68117 0.4921 0.27728 0.0
C976 C 0.67393 0.52229 0.27978 0.0
H977 H 0.65354 0.42946 0.18317 0.0
H978 H 0.64712 0.44865 0.20931 0.0
C979 C 0.66974 0.53341 0.29454 0.0
C980 C 0.68579 0.48026 0.26142 0.0
H981 H 0.72002 0.49508 0.22739 0.0
C982 C 0.67098 0.45389 0.25696 0.0
C983 C 0.70454 0.49464 0.25064 0.0
C984 C 0.72381 0.52111 0.25478 0.0
C985 C 0.67371 0.44215 0.24212 0.0
C986 C 0.69067 0.45774 0.23111 0.0
C987 C 0.7062 0.48356 0.23564 0.0
C988 C 0.69403 0.44675 0.21508 0.0
C989 C 0.65927 0.41255 0.23848 0.0
C990 C 0.72247 0.44009 0.20941 0.0
C991 C 0.72611 0.42953 0.19455 0.0
C992 C 0.70146 0.42535 0.1848 0.0
C993 C 0.67295 0.43256 0.19031 0.0
C994 C 0.66929 0.44318 0.20532 0.0
H995 H 0.65271 0.40027 0.24894 0.0
H996 H 0.63895 0.41636 0.23158 0.0
H997 H 0.67468 0.39826 0.23177 0.0
H998 H 0.74195 0.44264 0.21659 0.0
H999 H 0.74847 0.42422 0.19074 0.0
H1000 H 0.23569 0.93209 0.54684 0.0
H1001 H 0.25558 0.93967 0.52133 0.0
H1002 H 0.34468 0.9257 0.53815 0.0
H1003 H 0.32507 0.91845 0.56382 0.0
H1004 H 0.29478 0.97997 0.50918 0.0
H1005 H 0.34216 0.86611 0.50388 0.0
H1006 H 0.31761 0.87646 0.51926 0.0
H1007 H 0.35633 0.88703 0.51973 0.0
C1008 C 0.2596 0.93095 0.54526 0.0
C1009 C 0.27864 0.9245 0.5576 0.0
C1010 C 0.27095 0.93514 0.53054 0.0
C1011 C 0.30165 0.93271 0.52763 0.0
C1012 C 0.32083 0.92692 0.53993 0.0
H1013 H 0.40824 0.93 0.44421 0.0
H1014 H 0.38937 0.92767 0.47034 0.0
C1015 C 0.30951 0.92274 0.55468 0.0
C1016 C 0.31337 0.93603 0.51172 0.0
H1017 H 0.3521 0.89943 0.48388 0.0
C1018 C 0.30737 0.96238 0.50362 0.0
C1019 C 0.32992 0.91322 0.50441 0.0
C1020 C 0.3367 0.884 0.5122 0.0
C1021 C 0.318 0.96689 0.48867 0.0
C1022 C 0.33418 0.94379 0.48118 0.0
C1023 C 0.33992 0.91737 0.48936 0.0
C1024 C 0.34588 0.94625 0.46509 0.0
C1025 C 0.31252 0.99694 0.48145 0.0
C1026 C 0.32815 0.95717 0.45306 0.0
C1027 C 0.3397 0.95964 0.43821 0.0
C1028 C 0.36869 0.94981 0.43484 0.0
C1029 C 0.38589 0.93768 0.44659 0.0
C1030 C 0.3749 0.93628 0.46152 0.0
H1031 H 0.30977 1.01469 0.49019 0.0
H1032 H 0.33107 1.00349 0.47379 0.0
H1033 H 0.29151 0.99602 0.47481 0.0
H1034 H 0.30534 0.96389 0.45505 0.0
H1035 H 0.32608 0.96957 0.4294 0.0
H1036 H 0.88913 0.61429 0.68312 0.0
H1037 H 0.89578 0.59679 0.70955 0.0
H1038 H 0.80043 0.59215 0.71507 0.0
H1039 H 0.79375 0.60916 0.68897 0.0
H1040 H 0.87237 0.62373 0.73755 0.0
H1041 H 0.82758 0.50912 0.72909 0.0
H1042 H 0.83905 0.53234 0.71336 0.0
H1043 H 0.80402 0.53897 0.7227 0.0
C1044 C 0.8697 0.60876 0.68986 0.0
C1045 C 0.84096 0.61247 0.68377 0.0
C1046 C 0.87345 0.59912 0.70503 0.0
C1047 C 0.8486 0.59262 0.71431 0.0
C1048 C 0.82 0.59631 0.70816 0.0
H1049 H 0.8246 0.52295 0.80675 0.0
H1050 H 0.81751 0.54133 0.78098 0.0
C1051 C 0.81625 0.60603 0.69316 0.0
C1052 C 0.85226 0.58235 0.73044 0.0
H1053 H 0.8383 0.5236 0.75434 0.0
C1054 C 0.86519 0.60172 0.74118 0.0
C1055 C 0.84203 0.554 0.73539 0.0
C1056 C 0.82756 0.53226 0.72454 0.0
C1057 C 0.86819 0.59354 0.75661 0.0
C1058 C 0.85911 0.56468 0.76145 0.0
C1059 C 0.84566 0.54556 0.75074 0.0
C1060 C 0.86361 0.55373 0.77744 0.0
C1061 C 0.88011 0.61639 0.76768 0.0
C1062 C 0.89202 0.55389 0.78419 0.0
C1063 C 0.89639 0.54279 0.79896 0.0
C1064 C 0.87244 0.53113 0.80755 0.0
C1065 C 0.84394 0.5311 0.80068 0.0
C1066 C 0.83969 0.54194 0.78585 0.0
H1067 H 0.87625 0.63951 0.76355 0.0
H1068 H 0.86957 0.61404 0.77905 0.0
H1069 H 0.90451 0.61328 0.76894 0.0
H1070 H 0.91112 0.56202 0.7779 0.0
H1071 H 0.91886 0.5427 0.80342 0.0
H1072 H 0.83261 0.98368 0.12136 0.0
H1073 H 0.81372 0.97653 0.09552 0.0
H1074 H 0.88316 0.91174 0.08726 0.0
H1075 H 0.89926 0.91624 0.11374 0.0
H1076 H 0.82921 0.98684 0.07006 0.0
H1077 H 0.82331 0.86362 0.06873 0.0
H1078 H 0.83126 0.88345 0.08605 0.0
H1079 H 0.86063 0.87543 0.07252 0.0
C1080 C 0.84286 0.96687 0.11418 0.0
C1081 C 0.86634 0.94935 0.11983 0.0
C1082 C 0.83241 0.96312 0.09924 0.0
C1083 C 0.84603 0.94262 0.08921 0.0
C1084 C 0.87065 0.92623 0.09474 0.0
H1085 H 0.8234 0.90222 0.99228 0.0
H1086 H 0.84196 0.90963 1.01813 0.0
C1087 C 0.88008 0.9289 0.10995 0.0
C1088 C 0.83498 0.9393 0.07301 0.0
H1089 H 0.81973 0.88813 0.04495 0.0
C1090 C 0.82689 0.96509 0.06475 0.0
C1091 C 0.83166 0.9111 0.06568 0.0
C1092 C 0.83688 0.88189 0.07378 0.0
C1093 C 0.81608 0.96351 0.04968 0.0
C1094 C 0.81364 0.9354 0.04236 0.0
C1095 C 0.82188 0.90973 0.05046 0.0
C1096 C 0.80234 0.93187 1.0264 0.0
C1097 C 0.80773 0.9921 0.04169 0.0
C1098 C 0.77361 0.94144 1.02232 0.0
C1099 C 0.76271 0.93691 1.00753 0.0
C1100 C 0.78019 0.9226 0.99632 0.0
C1101 C 0.80898 0.91299 1.00049 0.0
C1102 C 0.81979 0.91743 1.01532 0.0
H1103 H 0.81847 1.01187 0.04704 0.0
H1104 H 0.81404 0.99136 0.02948 0.0
H1105 H 0.78322 0.99521 0.04242 0.0
H1106 H 0.75925 0.95186 0.03069 0.0
H1107 H 0.74018 0.94402 1.00504 0.0
H1108 H 0.29514 0.61749 0.86407 0.0
H1109 H 0.30205 0.59849 0.83841 0.0
H1110 H 0.39693 0.59361 0.84603 0.0
H1111 H 0.38983 0.61197 0.87222 0.0
H1112 H 0.3275 0.61884 0.81479 0.0
H1113 H 0.38498 0.51315 0.8285 0.0
H1114 H 0.3685 0.5364 0.84298 0.0
H1115 H 0.40504 0.54491 0.83558 0.0
C1116 C 0.31754 0.6119 0.86043 0.0
C1117 C 0.34195 0.61582 0.87036 0.0
C1118 C 0.32147 0.60117 0.84562 0.0
C1119 C 0.34996 0.59393 0.84015 0.0
C1120 C 0.37454 0.59806 0.85 0.0
H1121 H 0.41923 0.53108 0.75337 0.0
H1122 H 0.41129 0.55023 0.77895 0.0
C1123 C 0.37056 0.60866 0.865 0.0
C1124 C 0.35357 0.58282 0.82408 0.0
H1125 H 0.38451 0.52719 0.80247 0.0
C1126 C 0.33992 0.59871 0.81215 0.0
C1127 C 0.36935 0.55631 0.82044 0.0
C1128 C 0.38251 0.53654 0.83257 0.0
C1129 C 0.34234 0.58949 0.79684 0.0
C1130 C 0.35885 0.56342 0.7932 0.0
C1131 C 0.37217 0.54735 0.80513 0.0
C1132 C 0.36325 0.55263 0.77716 0.0
C1133 C 0.32769 0.60831 0.78474 0.0
C1134 C 0.33897 0.5473 0.7674 0.0
C1135 C 0.34351 0.53719 0.75244 0.0
C1136 C 0.37245 0.53125 0.74688 0.0
C1137 C 0.39664 0.53604 0.75686 0.0
C1138 C 0.3921 0.54669 0.77169 0.0
H1139 H 0.32363 0.63149 0.78877 0.0
H1140 H 0.34147 0.60928 0.77427 0.0
H1141 H 0.30573 0.59841 0.78181 0.0
H1142 H 0.31637 0.5507 0.77134 0.0
H1143 H 0.32415 0.53418 0.74527 0.0
H1144 H 0.74663 0.16706 0.50014 0.0
H1145 H 0.72755 0.15913 0.52579 0.0
H1146 H 0.75102 0.06597 0.52296 0.0
H1147 H 0.76984 0.07349 0.49725 0.0
H1148 H 0.68416 0.12599 0.53743 0.0
H1149 H 0.79051 0.0859 0.56214 0.0
H1150 H 0.78851 0.10153 0.54329 0.0
H1151 H 0.77759 0.06336 0.54661 0.0
C1152 C 0.74754 0.14473 0.50481 0.0
C1153 C 0.76018 0.12103 0.49641 0.0
C1154 C 0.73674 0.14028 0.51963 0.0
C1155 C 0.73842 0.1121 0.52661 0.0
C1156 C 0.75027 0.0882 0.51815 0.0
H1157 H 0.67939 0.04425 0.61472 0.0
H1158 H 0.6974 0.05065 0.58871 0.0
C1159 C 0.76107 0.0926 0.50332 0.0
C1160 C 0.72741 0.10785 0.54261 0.0
H1161 H 0.7478 0.08323 0.578 0.0
C1162 C 0.69824 0.11688 0.5463 0.0
C1163 C 0.74549 0.09558 0.55429 0.0
C1164 C 0.77734 0.08628 0.55144 0.0
C1165 C 0.68672 0.11392 0.56116 0.0
C1166 C 0.70495 0.10217 0.57284 0.0
C1167 C 0.7339 0.09263 0.56913 0.0
C1168 C 0.69416 0.09882 0.58889 0.0
C1169 C 0.65476 0.1225 0.56418 0.0
C1170 C 0.68667 0.12381 0.5979 0.0
C1171 C 0.67665 0.12024 0.61301 0.0
C1172 C 0.67379 0.09158 0.61933 0.0
C1173 C 0.68154 0.06672 0.61027 0.0
C1174 C 0.69178 0.07029 0.59534 0.0
H1175 H 0.642 0.12575 0.55348 0.0
H1176 H 0.6435 0.10503 0.57105 0.0
H1177 H 0.65416 0.14369 0.57073 0.0
H1178 H 0.6886 0.14611 0.59326 0.0
H1179 H 0.67046 0.13976 0.61957 0.0
H1180 H 0.24859 0.43008 0.36439 0.0
H1181 H 0.24188 0.44873 0.33863 0.0
H1182 H 0.14672 0.45112 0.34564 0.0
H1183 H 0.15361 0.43346 0.37188 0.0
H1184 H 0.21806 0.42817 0.31478 0.0
H1185 H 0.15589 0.53137 0.3282 0.0
H1186 H 0.17267 0.50879 0.3428 0.0
H1187 H 0.13671 0.49896 0.33506 0.0
C1188 C 0.22619 0.43522 0.36059 0.0
C1189 C 0.20163 0.43089 0.37038 0.0
C1190 C 0.22237 0.44567 0.34572 0.0
C1191 C 0.19382 0.45213 0.34006 0.0
C1192 C 0.16913 0.44745 0.34976 0.0
H1193 H 0.124 0.51224 0.25297 0.0
H1194 H 0.13208 0.49294 0.27847 0.0
C1195 C 0.173 0.43726 0.36481 0.0
C1196 C 0.19022 0.46305 0.32396 0.0
H1197 H 0.15721 0.51706 0.30219 0.0
C1198 C 0.20482 0.44772 0.31209 0.0
C1199 C 0.17333 0.48879 0.32023 0.0
C1200 C 0.15905 0.5081 0.33227 0.0
C1201 C 0.20232 0.45675 0.29677 0.0
C1202 C 0.18469 0.482 0.29304 0.0
C1203 C 0.1704 0.49749 0.3049 0.0
C1204 C 0.18023 0.49261 0.27699 0.0
C1205 C 0.2181 0.43859 0.28474 0.0
C1206 C 0.2045 0.49911 0.26741 0.0
C1207 C 0.19994 0.50932 0.2525 0.0
C1208 C 0.17092 0.51422 0.24679 0.0
C1209 C 0.1467 0.50815 0.25656 0.0
C1210 C 0.1513 0.4974 0.27135 0.0
H1211 H 0.22307 0.41561 0.28876 0.0
H1212 H 0.20466 0.43701 0.27417 0.0
H1213 H 0.23968 0.44945 0.28197 0.0
H1214 H 0.22712 0.49662 0.27149 0.0
H1215 H 0.21935 0.51326 0.24548 0.0
H1216 H 0.77045 0.66683 0.54926 0.0
H1217 H 0.7506 0.65882 0.52387 0.0
H1218 H 0.73315 0.56657 0.53471 0.0
H1219 H 0.75009 0.57502 0.56062 0.0
H1220 H 0.76801 0.62619 0.50143 0.0
H1221 H 0.65538 0.58459 0.51661 0.0
H1222 H 0.68026 0.60012 0.53065 0.0
H1223 H 0.68483 0.56216 0.5242 0.0
C1224 C 0.76157 0.64499 0.54653 0.0
C1225 C 0.76167 0.6218 0.55738 0.0
C1226 C 0.75054 0.64032 0.5318 0.0
C1227 C 0.73959 0.61223 0.52729 0.0
C1228 C 0.74041 0.58878 0.5379 0.0
H1229 H 0.66605 0.54474 0.44204 0.0
H1230 H 0.68626 0.55132 0.46747 0.0
C1231 C 0.75081 0.59358 0.55276 0.0
C1232 C 0.72824 0.60762 0.51138 0.0
H1233 H 0.66863 0.58265 0.49059 0.0
C1234 C 0.74616 0.61684 0.49911 0.0
C1235 C 0.69988 0.59499 0.50816 0.0
C1236 C 0.67887 0.58514 0.5206 0.0
C1237 C 0.73677 0.61374 0.48389 0.0
C1238 C 0.70818 0.60179 0.48068 0.0
C1239 C 0.69042 0.59212 0.49293 0.0
C1240 C 0.69652 0.59824 0.46475 0.0
C1241 C 0.75811 0.62253 0.47141 0.0
C1242 C 0.69524 0.62241 0.45447 0.0
C1243 C 0.68367 0.61865 0.43966 0.0
C1244 C 0.67279 0.59071 0.43491 0.0
C1245 C 0.67419 0.56667 0.44524 0.0
C1246 C 0.68573 0.57038 0.4599 0.0
H1247 H 0.7816 0.62222 0.47542 0.0
H1248 H 0.75613 0.60738 0.46145 0.0
H1249 H 0.75298 0.64562 0.46768 0.0
H1250 H 0.70268 0.64437 0.45796 0.0
H1251 H 0.68266 0.63765 0.43208 0.0
H1252 H 0.15417 0.9682 0.81205 0.0
H1253 H 0.16134 0.94931 0.78622 0.0
H1254 H 0.19703 0.03452 0.77254 0.0
H1255 H 0.18944 0.05386 0.79816 0.0
H1256 H 0.13705 0.96855 0.75967 0.0
H1257 H 0.25983 0.97946 0.7556 0.0
H1258 H 0.24016 0.98304 0.77342 0.0
H1259 H 0.24109 1.01366 0.76022 0.0
C1260 C 0.16347 0.98309 0.8036 0.0
C1261 C 0.17133 1.01267 0.80744 0.0
C1262 C 0.16777 0.9721 0.78878 0.0
C1263 C 0.18034 0.99018 0.77738 0.0
C1264 C 0.18814 1.0197 0.78114 0.0
H1265 H 0.22791 0.96276 0.68169 0.0
H1266 H 0.2209 0.98133 0.70763 0.0
C1267 C 0.18375 0.03076 0.79592 0.0
C1268 C 0.18373 0.97864 0.76144 0.0
H1269 H 0.23426 0.96681 0.73291 0.0
C1270 C 0.15833 0.96809 0.75381 0.0
C1271 C 0.2114 0.9783 0.75366 0.0
C1272 C 0.23973 0.98898 0.76117 0.0
C1273 C 0.15947 0.95811 0.73859 0.0
C1274 C 0.18727 0.9571 0.73077 0.0
C1275 C 0.21281 0.96742 0.73858 0.0
C1276 C 0.19038 0.94621 0.71452 0.0
C1277 C 0.13032 0.95015 0.73103 0.0
C1278 C 0.17579 0.92017 0.70927 0.0
C1279 C 0.17827 0.91077 0.69403 0.0
C1280 C 0.19676 0.92613 0.68381 0.0
C1281 C 0.21251 0.9512 0.68913 0.0
C1282 C 0.2089 0.96147 0.70414 0.0
H1283 H 0.11134 0.96213 0.7364 0.0
H1284 H 0.1305 0.9557 0.71874 0.0
H1285 H 0.12608 0.92589 0.73245 0.0
H1286 H 0.1629 0.90654 0.71699 0.0
H1287 H 0.16703 0.89052 0.69046 0.0
H1288 H 0.78315 0.46965 0.059 0.0
H1289 H 0.80072 0.47692 0.03298 0.0
H1290 H 0.80069 0.38163 1.02593 0.0
H1291 H 0.78104 0.37417 0.05142 0.0
H1292 H 0.84998 0.46076 1.01846 0.0
H1293 H 0.75534 0.40619 0.98925 0.0
H1294 H 0.75448 0.41503 1.00926 0.0
H1295 H 0.77288 0.38169 1.00262 0.0
C1296 C 0.78627 0.45014 0.05189 0.0
C1297 C 0.78026 0.42124 0.05754 0.0
C1298 C 0.79667 0.45439 0.03696 0.0
C1299 C 0.8015 0.4299 0.02722 0.0
C1300 C 0.79638 0.40105 0.03295 0.0
H1301 H 0.86545 0.40438 0.93355 0.0
H1302 H 0.84655 0.3982 0.95972 0.0
C1303 C 0.78562 0.39678 0.04777 0.0
C1304 C 0.81241 0.43439 1.01123 0.0
H1305 H 0.79824 0.41592 0.9741 0.0
C1306 C 0.83855 0.45106 1.00876 0.0
C1307 C 0.79758 0.42194 0.99845 0.0
C1308 C 0.76836 0.40549 0.99999 0.0
C1309 C 0.85076 0.45471 0.99408 0.0
C1310 C 0.83616 0.4418 0.9813 0.0
C1311 C 0.80979 0.42551 0.98378 0.0
C1312 C 0.84734 0.44539 0.96526 0.0
C1313 C 0.87974 0.47166 0.9926 0.0
C1314 C 0.85324 0.47389 0.95935 0.0
C1315 C 0.86403 0.47733 0.94452 0.0
C1316 C 0.86886 0.45247 0.93494 0.0
C1317 C 0.86193 0.42395 0.94057 0.0
C1318 C 0.85126 0.42047 0.95557 0.0
H1319 H 0.89277 0.47103 1.00334 0.0
H1320 H 0.89381 0.46253 0.9833 0.0
H1321 H 0.87482 0.49544 0.9901 0.0
H1322 H 0.84944 0.49366 0.96618 0.0
H1323 H 0.86886 0.49974 0.94057 0.0
H1324 H 0.38056 0.0933 0.17971 0.0
H1325 H 0.38623 0.07246 0.20549 0.0
H1326 H 0.30361 0.11423 0.21886 0.0
H1327 H 0.29611 0.13114 0.19316 0.0
H1328 H 0.39479 0.09207 0.23131 0.0
H1329 H 0.28375 0.03995 0.23733 0.0
H1330 H 0.29594 0.05516 0.21946 0.0
H1331 H 0.27979 0.07903 0.23389 0.0
C1332 C 0.36331 0.09724 0.18809 0.0
C1333 C 0.33787 0.11382 0.18422 0.0
C1334 C 0.3666 0.08555 0.20292 0.0
C1335 C 0.34485 0.09072 0.2143 0.0
C1336 C 0.32002 0.10812 0.2104 0.0
H1337 H 0.37875 0.07415 0.31248 0.0
H1338 H 0.37225 0.09227 0.28649 0.0
C1339 C 0.31604 0.11837 0.19555 0.0
C1340 C 0.34852 0.07913 0.23031 0.0
H1341 H 0.31123 0.0471 0.26027 0.0
C1342 C 0.37647 0.08196 0.23748 0.0
C1343 C 0.32481 0.06571 0.2387 0.0
C1344 C 0.29454 0.05954 0.23186 0.0
C1345 C 0.38128 0.07215 0.25252 0.0
C1346 C 0.35735 0.05995 0.26098 0.0
C1347 C 0.3295 0.05685 0.25389 0.0
C1348 C 0.36109 0.04912 0.27696 0.0
C1349 C 0.41222 0.07422 0.25914 0.0
C1350 C 0.3565 1.01888 0.28044 0.0
C1351 C 0.36067 1.00826 0.29528 0.0
C1352 C 0.369 0.02768 0.30724 0.0
C1353 C 0.37297 0.05819 0.30371 0.0
C1354 C 0.36913 0.06871 0.28878 0.0
H1355 H 0.42935 0.07797 0.25022 0.0
H1356 H 0.41318 0.09318 0.26727 0.0
H1357 H 0.41786 0.05349 0.26543 0.0
H1358 H 0.35026 1.00326 0.27157 0.0
H1359 H 0.35794 0.98456 0.29722 0.0
H1360 H 0.37367 0.49943 0.61236 0.0
H1361 H 0.3542 0.49254 0.58684 0.0
H1362 H 0.33482 0.40037 0.59694 0.0
H1363 H 0.3553 0.40701 0.62281 0.0
H1364 H 0.37378 0.4546 0.56416 0.0
H1365 H 0.25588 0.43152 0.57899 0.0
H1366 H 0.28217 0.44689 0.59244 0.0
H1367 H 0.28227 0.40755 0.5883 0.0
C1368 C 0.36525 0.47756 0.60928 0.0
C1369 C 0.3663 0.45364 0.61972 0.0
C1370 C 0.35409 0.47372 0.59458 0.0
C1371 C 0.34283 0.44602 0.58988 0.0
C1372 C 0.3431 0.42211 0.60033 0.0
H1373 H 0.26315 0.38004 0.50642 0.0
H1374 H 0.28277 0.38797 0.53187 0.0
C1375 C 0.3548 0.42586 0.61512 0.0
C1376 C 0.33152 0.44241 0.57396 0.0
H1377 H 0.26936 0.42532 0.55317 0.0
C1378 C 0.35095 0.44814 0.56174 0.0
C1379 C 0.30162 0.43454 0.57074 0.0
C1380 C 0.27912 0.43004 0.58328 0.0
C1381 C 0.34168 0.4451 0.54649 0.0
C1382 C 0.31182 0.43665 0.54326 0.0
C1383 C 0.29229 0.4315 0.55551 0.0
C1384 C 0.30049 0.43206 0.52736 0.0
C1385 C 0.36437 0.45016 0.53408 0.0
C1386 C 0.3035 0.4542 0.51613 0.0
C1387 C 0.2931 0.44931 0.50127 0.0
C1388 C 0.27861 0.42241 0.49727 0.0
C1389 C 0.2749 0.40068 0.50872 0.0
C1390 C 0.2858 0.40537 0.52346 0.0
H1391 H 0.38752 0.44766 0.53837 0.0
H1392 H 0.36108 0.43435 0.52448 0.0
H1393 H 0.36206 0.47328 0.5297 0.0
H1394 H 0.31378 0.47544 0.51883 0.0
H1395 H 0.29668 0.46667 0.49291 0.0
H1396 H 0.91338 1.01463 0.25589 0.0
H1397 H 0.90503 0.03369 0.2815 0.0
H1398 H 0.82052 0.07016 0.26747 0.0
H1399 H 0.8287 0.05121 0.24173 0.0
H1400 H 0.89908 0.08846 0.29219 0.0
H1401 H 0.794 0.02802 0.30485 0.0
H1402 H 0.81605 1.01984 0.2882 0.0
H1403 H 0.79174 0.05181 0.28852 0.0
C1404 C 0.89306 0.02689 0.25812 0.0
C1405 C 0.87179 0.03128 0.24653 0.0
C1406 C 0.8882 0.03765 0.2729 0.0
C1407 C 0.86186 0.05296 0.27666 0.0
C1408 C 0.84066 0.05769 0.26512 0.0
H1409 H 0.79515 0.13139 0.36087 0.0
H1410 H 0.80287 0.11313 0.33519 0.0
C1411 C 0.84546 0.04685 0.2503 0.0
C1412 C 0.85738 0.06468 0.29252 0.0
H1413 H 0.81028 0.0632 0.32315 0.0
C1414 C 0.87969 0.0828 0.29897 0.0
C1415 C 0.83192 0.05776 0.30142 0.0
C1416 C 0.80718 0.03809 0.29546 0.0
C1417 C 0.87722 0.0944 0.31384 0.0
C1418 C 0.85218 0.08686 0.32294 0.0
C1419 C 0.8297 0.06891 0.3164 0.0
C1420 C 0.84816 0.09819 0.33896 0.0
C1421 C 0.9011 0.11557 0.31934 0.0
C1422 C 0.8708 0.09587 0.35008 0.0
C1423 C 0.86675 0.10745 0.36488 0.0
C1424 C 0.83964 0.12085 0.36901 0.0
C1425 C 0.81665 0.12186 0.35808 0.0
C1426 C 0.82093 0.11108 0.3433 0.0
H1427 H 0.91288 0.12639 0.30969 0.0
H1428 H 0.89167 0.13335 0.32673 0.0
H1429 H 0.91792 0.10286 0.32593 0.0
H1430 H 0.89167 0.08501 0.34736 0.0
H1431 H 0.88475 0.10592 0.37304 0.0
H1432 H 0.18464 0.63796 0.12228 0.0
H1433 H 0.20438 0.64428 0.09623 0.0
H1434 H 0.1855 0.55177 0.08656 0.0
H1435 H 0.16651 0.54527 0.11221 0.0
H1436 H 0.25142 0.61259 0.0809 0.0
H1437 H 0.14371 0.59292 0.0513 0.0
H1438 H 0.14547 0.60229 0.07129 0.0
H1439 H 0.15424 0.56515 0.06492 0.0
C1440 C 0.18483 0.61904 0.11459 0.0
C1441 C 0.17359 0.59128 0.11933 0.0
C1442 C 0.19599 0.62265 0.09969 0.0
C1443 C 0.19571 0.59868 0.08925 0.0
C1444 C 0.18523 0.57085 0.09416 0.0
H1445 H 0.24225 0.57951 0.99272 0.0
H1446 H 0.22505 0.57123 1.01872 0.0
C1447 C 0.17448 0.56719 0.10896 0.0
C1448 C 0.20701 0.60228 0.07334 0.0
H1449 H 0.18634 0.59749 0.03593 0.0
C1450 C 0.23713 0.60955 0.07107 0.0
C1451 C 0.18864 0.59737 0.06045 0.0
C1452 C 0.15615 0.58919 0.06204 0.0
C1453 C 0.24937 0.61202 0.05636 0.0
C1454 C 0.23073 0.60842 0.04344 0.0
C1455 C 0.20069 0.6006 0.04573 0.0
C1456 C 0.24176 0.61322 0.02753 0.0
C1457 C 0.28246 0.61742 0.0549 0.0
C1458 C 0.25662 0.63974 1.02356 0.0
C1459 C 0.26722 0.64425 1.00875 0.0
C1460 C 0.26256 0.62272 0.99726 0.0
C1461 C 0.24692 0.59646 1.00118 0.0
C1462 C 0.23674 0.59177 1.0161 0.0
H1463 H 0.29468 0.60901 0.06501 0.0
H1464 H 0.29173 0.60641 0.04461 0.0
H1465 H 0.28667 0.64179 0.05411 0.0
H1466 H 0.26005 0.65716 0.03193 0.0
H1467 H 0.27947 0.66458 1.00644 0.0
H1468 H 0.66528 0.97054 0.74161 0.0
H1469 H 0.67154 0.9527 0.76768 0.0
H1470 H 0.69136 0.04217 0.78262 0.0
H1471 H 0.68352 0.0607 0.75692 0.0
H1472 H 0.7327 0.99257 0.79275 0.0
H1473 H 0.6125 0.97409 0.80482 0.0
H1474 H 0.62658 0.96126 0.78675 0.0
H1475 H 0.62551 1.00051 0.7908 0.0
C1476 C 0.67054 0.98667 0.75039 0.0
C1477 C 0.67378 1.01727 0.74688 0.0
C1478 C 0.67432 0.97629 0.76533 0.0
C1479 C 0.68175 0.99612 0.77713 0.0
C1480 C 0.68564 0.02644 0.7737 0.0
H1481 H 0.66274 0.95273 0.87452 0.0
H1482 H 0.65779 0.97476 0.84895 0.0
C1483 C 0.68141 0.03694 0.75885 0.0
C1484 C 0.68541 0.98537 0.79307 0.0
H1485 H 0.64648 0.95854 0.82352 0.0
C1486 C 0.71391 0.98519 0.79957 0.0
C1487 C 0.66082 0.97642 0.80201 0.0
C1488 C 0.6295 0.97816 0.79587 0.0
C1489 C 0.71861 0.97618 0.81473 0.0
C1490 C 0.69406 0.96578 0.82364 0.0
C1491 C 0.66546 0.9663 0.817 0.0
C1492 C 0.69742 0.95373 0.83959 0.0
C1493 C 0.74988 0.9791 0.82092 0.0
C1494 C 0.721 0.93448 0.84317 0.0
C1495 C 0.72494 0.92397 0.85794 0.0
C1496 C 0.70379 0.92952 0.86949 0.0
C1497 C 0.67936 0.94779 0.86594 0.0
C1498 C 0.67648 0.96016 0.85122 0.0
H1499 H 0.76218 0.9975 0.81521 0.0
H1500 H 0.75 0.98355 0.83333 0.0
H1501 H 0.7624 0.95823 0.81853 0.0
H1502 H 0.73652 0.92711 0.83454 0.0
H1503 H 0.7442 0.91009 0.86003 0.0
H1504 H 0.4067 0.22 0.1321 0.0
H1505 H 0.45625 0.24363 0.13201 0.0
H1506 H 0.45907 0.23878 0.18091 0.0
H1507 H 0.4096 0.21563 0.18112 0.0
H1508 H 0.47509 0.29924 0.14858 0.0
H1509 H 0.53884 0.19878 0.1662 0.0
H1510 H 0.50198 0.19636 0.15799 0.0
H1511 H 0.50654 0.20792 0.17741 0.0
C1512 C 0.4179 0.22383 0.14284 0.0
C1513 C 0.40401 0.21571 0.15661 0.0
C1514 C 0.44626 0.23746 0.14277 0.0
C1515 C 0.46172 0.24279 0.15645 0.0
C1516 C 0.4479 0.23468 0.17019 0.0
H1517 H 0.64074 0.30835 0.17972 0.0
H1518 H 0.59101 0.28576 0.1795 0.0
C1519 C 0.41944 0.22149 0.17028 0.0
C1520 C 0.49205 0.25713 0.15643 0.0
H1521 H 0.56559 0.24404 0.16454 0.0
C1522 C 0.49492 0.28714 0.152 0.0
C1523 C 0.51797 0.24161 0.16109 0.0
C1524 C 0.51644 0.20932 0.16586 0.0
C1525 C 0.52268 0.30212 0.15238 0.0
C1526 C 0.5489 0.28643 0.15672 0.0
C1527 C 0.54588 0.25633 0.16114 0.0
C1528 C 0.57949 0.30068 0.15683 0.0
C1529 C 0.52318 0.33502 0.14869 0.0
C1530 C 0.59042 0.3164 0.14412 0.0
C1531 C 0.61884 0.32972 0.1443 0.0
C1532 C 0.6376 0.32732 0.1571 0.0
C1533 C 0.62697 0.31104 0.1697 0.0
C1534 C 0.59841 0.29792 0.16955 0.0
H1535 H 0.50119 0.34555 0.15093 0.0
H1536 H 0.54033 0.34706 0.15544 0.0
H1537 H 0.52818 0.33795 0.13643 0.0
H1538 H 0.57712 0.31815 0.1339 0.0
H1539 H 0.62618 0.34175 0.1343 0.0
H1540 H 0.53816 0.6433 0.42139 0.0
H1541 H 0.515 0.69271 0.42057 0.0
H1542 H 0.58892 0.72536 0.39387 0.0
H1543 H 0.61028 0.67523 0.39339 0.0
H1544 H 0.52319 0.74224 0.43027 0.0
H1545 H 0.53094 0.76242 0.36846 0.0
H1546 H 0.54056 0.72683 0.37653 0.0
H1547 H 0.56733 0.75709 0.37625 0.0
C1548 C 0.54924 0.66097 0.41516 0.0
C1549 C 0.57591 0.65507 0.40728 0.0
C1550 C 0.536 0.68948 0.41472 0.0
C1551 C 0.54937 0.71334 0.40672 0.0
C1552 C 0.57685 0.70757 0.39944 0.0
H1553 H 0.51039 0.9058 0.41442 0.0
H1554 H 0.5337 0.856 0.41401 0.0
C1555 C 0.58947 0.67878 0.39938 0.0
C1556 C 0.53502 0.7441 0.40648 0.0
H1557 H 0.51931 0.80473 0.38384 0.0
C1558 C 0.52226 0.75551 0.41999 0.0
C1559 C 0.53316 0.76218 0.39316 0.0
C1560 C 0.54344 0.75133 0.37778 0.0
C1561 C 0.50838 0.78384 0.42057 0.0
C1562 C 0.50766 0.80206 0.40746 0.0
C1563 C 0.52019 0.79096 0.39397 0.0
C1564 C 0.4935 0.83246 0.40757 0.0
C1565 C 0.49414 0.79421 0.43517 0.0
C1566 C 0.46316 0.83605 0.40397 0.0
C1567 C 0.44993 0.86458 0.40394 0.0
C1568 C 0.46657 0.89017 0.40781 0.0
C1569 C 0.49687 0.88652 0.41156 0.0
C1570 C 0.51024 0.85806 0.41128 0.0
H1571 H 0.49729 0.778 0.44458 0.0
H1572 H 0.50367 0.8161 0.43862 0.0
H1573 H 0.46987 0.79747 0.43332 0.0
H1574 H 0.44968 0.81672 0.40116 0.0
H1575 H 0.42653 0.8666 0.40109 0.0
H1576 H 0.90717 0.72186 0.68144 0.0
H1577 H 0.95648 0.74522 0.68113 0.0
H1578 H 0.95939 0.73689 0.63232 0.0
H1579 H 0.90983 0.71366 0.63251 0.0
H1580 H 1.01081 0.72394 0.67116 0.0
H1581 H 0.98064 0.82438 0.63777 0.0
H1582 H 0.9529 0.79986 0.64587 0.0
H1583 H 0.97192 0.78957 0.62863 0.0
C1584 C 0.91813 0.72508 0.67058 0.0
C1585 C 0.90417 0.71588 0.65698 0.0
C1586 C 0.94651 0.73846 0.67044 0.0
C1587 C 0.96178 0.74341 0.65669 0.0
C1588 C 0.94803 0.73403 0.64309 0.0
H1589 H 0.13139 0.83022 0.63334 0.0
H1590 H 0.0826 0.80594 0.63345 0.0
C1591 C 0.91965 0.72048 0.64322 0.0
C1592 C 0.99219 0.75781 0.65672 0.0
H1593 H 0.03171 0.81782 0.64332 0.0
C1594 C 1.01535 0.74451 0.66508 0.0
C1595 C 0.99847 0.7846 0.64875 0.0
C1596 C 0.97465 0.80064 0.63985 0.0
C1597 C 0.04447 0.75668 0.66543 0.0
C1598 C 0.05073 0.78384 0.65767 0.0
C1599 C 0.02741 0.79713 0.64932 0.0
C1600 C 0.08113 0.79864 0.65779 0.0
C1601 C 0.06834 0.7394 0.67369 0.0
C1602 C 0.09708 0.80342 0.67141 0.0
C1603 C 0.1255 0.81688 0.67133 0.0
C1604 C 0.13857 0.8268 0.65766 0.0
C1605 C 0.12228 0.82283 0.64411 0.0
C1606 C 0.09412 0.80892 0.64417 0.0
H1607 H 0.06281 0.71523 0.67426 0.0
H1608 H 0.09038 0.74184 0.66808 0.0
H1609 H 0.07002 0.74775 0.68555 0.0
H1610 H 0.08752 0.79702 0.68222 0.0
H1611 H 0.13709 0.81975 0.68204 0.0
H1612 H 1.01206 0.40426 0.9082 0.0
H1613 H 0.03432 0.35437 0.9073 0.0
H1614 H 0.9462 0.31536 0.90784 0.0
H1615 H 0.92434 0.36534 0.90689 0.0
H1616 H 0.04085 0.31163 0.92274 0.0
H1617 H 0.97243 0.26256 0.87688 0.0
H1618 H 0.96989 0.30155 0.8816 0.0
H1619 H 0.94893 0.274 0.89221 0.0
C1620 C 0.99753 0.38493 0.90783 0.0
C1621 C 0.96645 0.38876 0.90735 0.0
C1622 C 1.01026 0.35616 0.90741 0.0
C1623 C 0.99232 0.33016 0.90698 0.0
C1624 C 0.96107 0.33433 0.90725 0.0
H1625 H 0.04443 0.14363 0.92547 0.0
H1626 H 1.02089 0.19322 0.92525 0.0
C1627 C 0.94839 0.36312 0.90699 0.0
C1628 C 1.00641 0.29918 0.90677 0.0
H1629 H 1.00061 0.22829 0.89174 0.0
C1630 C 0.03198 0.29377 0.91575 0.0
C1631 C 0.99557 0.27503 0.89768 0.0
C1632 C 0.97043 0.2787 0.88645 0.0
C1633 C 0.04639 0.26567 0.91598 0.0
C1634 C 0.03472 0.24157 0.90746 0.0
C1635 C 1.00935 0.24661 0.89849 0.0
C1636 C 0.04901 0.21118 0.9075 0.0
C1637 C 0.07433 0.26179 0.92529 0.0
C1638 C 0.07263 0.20446 0.89756 0.0
C1639 C 0.08593 0.17596 0.89752 0.0
C1640 C 0.07624 0.15345 0.90759 0.0
C1641 C 0.05267 0.16033 0.91762 0.0
C1642 C 0.0391 0.18873 0.91749 0.0
H1643 H 0.08011 0.28222 0.93185 0.0
H1644 H 0.07155 0.24284 0.93329 0.0
H1645 H 0.09322 0.25627 0.91762 0.0
H1646 H 0.08081 0.22131 0.88977 0.0
H1647 H 0.10409 0.17166 0.8897 0.0
H1648 H 0.65078 0.78831 0.88321 0.0
H1649 H 0.6013 0.76488 0.8835 0.0
H1650 H 0.56879 0.83508 0.91268 0.0
H1651 H 0.61846 0.85833 0.91269 0.0
H1652 H 0.56616 0.74492 0.90981 0.0
H1653 H 0.50813 0.83255 0.87648 0.0
H1654 H 0.54824 0.82879 0.87658 0.0
H1655 H 0.52949 0.84539 0.89253 0.0
C1656 C 0.63314 0.79881 0.88972 0.0
C1657 C 0.63878 0.82527 0.89795 0.0
C1658 C 0.60477 0.78532 0.88988 0.0
C1659 C 0.58099 0.79825 0.89798 0.0
C1660 C 0.58654 0.8247 0.90621 0.0
H1661 H 0.39027 0.75468 0.90718 0.0
H1662 H 0.43975 0.7784 0.90738 0.0
C1663 C 0.61508 0.83791 0.90629 0.0
C1664 C 0.55062 0.78384 0.89797 0.0
H1665 H 0.47826 0.79381 0.88648 0.0
C1666 C 0.54697 0.75559 0.90467 0.0
C1667 C 0.52534 0.79769 0.89139 0.0
C1668 C 0.52783 0.82769 0.88372 0.0
C1669 C 0.5189 0.74119 0.90524 0.0
C1670 C 0.49359 0.75475 0.8984 0.0
C1671 C 0.49734 0.78309 0.89171 0.0
C1672 C 0.46316 0.74012 0.89816 0.0
C1673 C 0.51661 0.71199 0.9137 0.0
C1674 C 0.45911 0.7108 0.89259 0.0
C1675 C 0.4307 0.69733 0.89239 0.0
C1676 C 0.40554 0.7127 0.89781 0.0
C1677 C 0.40935 0.74208 0.90319 0.0
C1678 C 0.43769 0.7557 0.90322 0.0
H1679 H 0.53448 0.70991 0.92238 0.0
H1680 H 0.49472 0.70967 0.91947 0.0
H1681 H 0.51927 0.69326 0.90553 0.0
H1682 H 0.47791 0.69834 0.8882 0.0
H1683 H 0.42841 0.67477 0.88806 0.0
H1684 H 0.47208 0.38694 0.62251 0.0
H1685 H 0.49375 0.33686 0.6226 0.0
H1686 H 0.48745 0.33478 0.67154 0.0
H1687 H 0.46392 0.38387 0.67137 0.0
H1688 H 0.54039 0.31324 0.6314 0.0
H1689 H 0.45456 0.25591 0.66569 0.0
H1690 H 0.44962 0.29371 0.65924 0.0
H1691 H 0.47092 0.28596 0.67621 0.0
C1692 C 0.47488 0.37565 0.63329 0.0
C1693 C 0.46572 0.38952 0.64691 0.0
C1694 C 0.48748 0.34685 0.63336 0.0
C1695 C 0.49171 0.33099 0.64705 0.0
C1696 C 0.48341 0.34537 0.6607 0.0
H1697 H 0.58 0.16201 0.6704 0.0
H1698 H 0.55678 0.21146 0.67023 0.0
C1699 C 0.47019 0.37388 0.66061 0.0
C1700 C 0.50565 0.30013 0.64697 0.0
H1701 H 0.49993 0.22937 0.66182 0.0
C1702 C 0.53117 0.29495 0.63796 0.0
C1703 C 0.49411 0.27568 0.65549 0.0
C1704 C 0.46564 0.27801 0.66456 0.0
C1705 C 0.54542 0.2668 0.6374 0.0
C1706 C 0.53413 0.24265 0.64609 0.0
C1707 C 0.50881 0.24773 0.65517 0.0
C1708 C 0.54833 0.21211 0.64602 0.0
C1709 C 0.57292 0.26338 0.62768 0.0
C1710 C 0.55115 0.19535 0.63251 0.0
C1711 C 0.56445 0.16683 0.63257 0.0
C1712 C 0.57533 0.15419 0.64614 0.0
C1713 C 0.57219 0.17091 0.65967 0.0
C1714 C 0.55877 0.19931 0.65961 0.0
H1715 H 0.58319 0.28533 0.62496 0.0
H1716 H 0.58983 0.24922 0.63341 0.0
H1717 H 0.5667 0.25245 0.6168 0.0
H1718 H 0.54279 0.20419 0.62189 0.0
H1719 H 0.56619 0.15469 0.62194 0.0
H1720 H 0.13054 0.33135 0.42142 0.0
H1721 H 0.0816 0.30701 0.42132 0.0
H1722 H 0.0854 0.30026 0.37243 0.0
H1723 H 0.13488 0.32279 0.37257 0.0
H1724 H 0.03029 0.31859 0.41202 0.0
H1725 H 0.06113 0.21826 0.37907 0.0
H1726 H 0.08874 0.24457 0.38554 0.0
H1727 H 0.06822 0.25126 0.36821 0.0
C1728 C 0.12112 0.32437 0.41064 0.0
C1729 C 0.13711 0.32882 0.39703 0.0
C1730 C 0.09291 0.31043 0.41058 0.0
C1731 C 0.07959 0.30067 0.3969 0.0
C1732 C 0.09522 0.3061 0.38326 0.0
H1733 H 0.90406 0.22609 0.37257 0.0
H1734 H 0.95352 0.24962 0.3728 0.0
C1735 C 0.12362 0.31947 0.38334 0.0
C1736 C 0.0492 0.28577 0.39689 0.0
H1737 H 1.00903 0.22719 0.38199 0.0
C1738 C 0.02592 0.29843 0.40554 0.0
C1739 C 0.04282 0.25926 0.38851 0.0
C1740 C 0.06666 0.2424 0.37996 0.0
C1741 C 0.99692 0.28597 0.4058 0.0
C1742 C 0.9905 0.25995 0.39716 0.0
C1743 C 1.01363 0.24726 0.38852 0.0
C1744 C 0.96015 0.24539 0.39707 0.0
C1745 C 0.97319 0.30123 0.41516 0.0
C1746 C 0.94721 0.23453 0.41056 0.0
C1747 C 0.91893 0.22086 0.41045 0.0
C1748 C 0.90264 0.21755 0.39683 0.0
C1749 C 0.91574 0.2282 0.38329 0.0
C1750 C 0.94415 0.24171 0.38341 0.0
H1751 H 0.9792 0.32476 0.41779 0.0
H1752 H 0.95138 0.30094 0.40919 0.0
H1753 H 0.97057 0.28919 0.4261 0.0
H1754 H 0.9591 0.23639 0.42123 0.0
H1755 H 0.90977 0.21301 0.42112 0.0
H1756 H 0.04367 0.64503 0.12956 0.0
H1757 H 1.02017 0.69461 0.12979 0.0
H1758 H 0.08236 0.724 0.16399 0.0
H1759 H 0.10571 0.67431 0.16401 0.0
H1760 H 1.00685 0.73298 0.16593 0.0
H1761 H 0.0721 0.78037 0.11787 0.0
H1762 H 0.06237 0.74117 0.11797 0.0
H1763 H 0.0889 0.75523 0.13142 0.0
C1764 C 0.0525 0.66206 0.13709 0.0
C1765 C 0.07672 0.65554 0.14675 0.0
C1766 C 0.03894 0.69043 0.13724 0.0
C1767 C 0.04943 0.71321 0.1469 0.0
C1768 C 0.0737 0.70686 0.15648 0.0
H1769 H 1.00978 0.9054 0.14131 0.0
H1770 H 0.03285 0.8559 0.14238 0.0
C1771 C 0.08706 0.67837 0.15648 0.0
C1772 C 0.03504 0.74353 0.14698 0.0
H1773 H 0.03491 0.81064 0.12846 0.0
C1774 C 1.01296 0.75009 0.15778 0.0
C1775 C 0.04333 0.76605 0.13656 0.0
C1776 C 0.068 0.76067 0.12525 0.0
C1777 C 0.99909 0.77846 0.15853 0.0
C1778 C 1.0064 0.80096 0.14763 0.0
C1779 C 0.02874 0.79405 0.13684 0.0
C1780 C 0.99194 0.83174 0.14731 0.0
C1781 C 0.97774 0.78395 0.1715 0.0
C1782 C 0.96099 0.83575 0.14955 0.0
C1783 C 0.94812 0.86444 0.14975 0.0
C1784 C 0.96536 0.88999 0.14675 0.0
C1785 C 0.99588 0.88616 0.14371 0.0
C1786 C 1.00905 0.85761 0.14425 0.0
H1787 H 0.98298 0.76949 0.1814 0.0
H1788 H 0.97834 0.80754 0.17536 0.0
H1789 H 0.95479 0.7782 0.16779 0.0
H1790 H 0.94645 0.81673 0.15102 0.0
H1791 H 0.92442 0.86658 0.15185 0.0
H1792 H 0.31698 0.28049 0.14166 0.0
H1793 H 0.28942 0.327 0.1369 0.0
H1794 H 0.20732 0.28299 0.14907 0.0
H1795 H 0.23476 0.23658 0.15371 0.0
H1796 H 0.20928 0.32864 0.12141 0.0
H1797 H 0.25065 0.36718 0.1779 0.0
H1798 H 0.27585 0.34764 0.16538 0.0
H1799 H 0.24497 0.3281 0.17365 0.0
C1800 C 0.29288 0.28037 0.14244 0.0
C1801 C 0.27782 0.25477 0.14749 0.0
C1802 C 0.27723 0.30701 0.13999 0.0
C1803 C 0.24642 0.30835 0.14273 0.0
C1804 C 0.23105 0.28228 0.14677 0.0
H1805 H 0.14125 0.46389 0.16747 0.0
H1806 H 0.16633 0.41533 0.16632 0.0
C1807 C 0.24667 0.2557 0.14918 0.0
C1808 C 0.23067 0.33738 0.1428 0.0
H1809 H 0.22016 0.40003 0.16429 0.0
C1810 C 0.21163 0.34439 0.13072 0.0
C1811 C 0.23334 0.35739 0.15518 0.0
C1812 C 0.25217 0.34988 0.16885 0.0
C1813 C 0.19521 0.37111 0.13061 0.0
C1814 C 0.1986 0.39177 0.14277 0.0
C1815 C 0.21759 0.38445 0.15492 0.0
C1816 C 0.18261 0.42093 0.14327 0.0
C1817 C 0.17377 0.37625 0.11765 0.0
C1818 C 0.18357 0.44052 0.13082 0.0
C1819 C 0.16844 0.46774 0.13131 0.0
C1820 C 0.15304 0.47655 0.1445 0.0
C1821 C 0.15286 0.45754 0.15716 0.0
C1822 C 0.16726 0.42985 0.15649 0.0
H1823 H 0.16633 0.3548 0.11253 0.0
H1824 H 0.15377 0.38882 0.12142 0.0
H1825 H 0.18521 0.38915 0.1086 0.0
H1826 H 0.19627 0.43498 0.12074 0.0
H1827 H 0.16946 0.48226 0.12148 0.0
H1828 H 0.30551 0.43499 0.4125 0.0
H1829 H 0.35222 0.46275 0.41058 0.0
H1830 H 0.38262 0.40185 0.37574 0.0
H1831 H 0.33484 0.37552 0.37682 0.0
H1832 H 0.40562 0.45142 0.416 0.0
H1833 H 0.40175 0.47547 0.35435 0.0
H1834 H 0.3707 0.45875 0.36417 0.0
H1835 H 0.40156 0.43609 0.35778 0.0
C1836 C 0.32221 0.4275 0.40446 0.0
C1837 C 0.31661 0.40307 0.39483 0.0
C1838 C 0.34892 0.44346 0.40332 0.0
C1839 C 0.37087 0.435 0.39273 0.0
C1840 C 0.36572 0.40972 0.38356 0.0
H1841 H 0.55526 0.48553 0.3822 0.0
H1842 H 0.50566 0.46293 0.3799 0.0
C1843 C 0.33858 0.39434 0.38435 0.0
C1844 C 0.39931 0.45221 0.39168 0.0
H1845 H 0.44808 0.4849 0.36679 0.0
C1846 C 0.4146 0.45901 0.40522 0.0
C1847 C 0.41127 0.46229 0.37764 0.0
C1848 C 0.39526 0.45803 0.3627 0.0
C1849 C 0.44151 0.47506 0.40509 0.0
C1850 C 0.45365 0.48442 0.39104 0.0
C1851 C 0.4386 0.47766 0.37752 0.0
C1852 C 0.4826 0.50026 0.39017 0.0
C1853 C 0.45706 0.48144 0.41997 0.0
C1854 C 0.48574 0.52935 0.39595 0.0
C1855 C 0.51397 0.54262 0.39684 0.0
C1856 C 0.53937 0.52687 0.39202 0.0
C1857 C 0.53588 0.49852 0.38542 0.0
C1858 C 0.50766 0.48542 0.38435 0.0
H1859 H 0.44747 0.46831 0.42951 0.0
H1860 H 0.48122 0.47637 0.41907 0.0
H1861 H 0.45473 0.50552 0.42275 0.0
H1862 H 0.4666 0.54114 0.40047 0.0
H1863 H 0.51625 0.56394 0.40259 0.0
H1864 H 0.2522 0.77315 0.6683 0.0
H1865 H 0.27608 0.72494 0.66504 0.0
H1866 H 0.30094 0.74914 0.61921 0.0
H1867 H 0.2792 0.79904 0.62313 0.0
H1868 H 0.27066 0.67936 0.64913 0.0
H1869 H 0.38056 0.72797 0.63381 0.0
H1870 H 0.34962 0.7509 0.63962 0.0
H1871 H 0.35189 0.73692 0.62041 0.0
C1872 C 0.26224 0.76793 0.6574 0.0
C1873 C 0.26381 0.78963 0.64592 0.0
C1874 C 0.27605 0.74037 0.65556 0.0
C1875 C 0.29117 0.73352 0.64202 0.0
C1876 C 0.29046 0.75426 0.62998 0.0
H1877 H 0.39402 0.57455 0.6197 0.0
H1878 H 0.36632 0.62142 0.61887 0.0
C1879 C 0.27739 0.78245 0.63204 0.0
C1880 C 0.30814 0.70502 0.64102 0.0
H1881 H 0.37702 0.67546 0.63389 0.0
C1882 C 0.29393 0.67863 0.64579 0.0
C1883 C 0.33866 0.70391 0.63677 0.0
C1884 C 0.35617 0.73147 0.63252 0.0
C1885 C 0.30925 0.6514 0.64655 0.0
C1886 C 0.33959 0.65038 0.64227 0.0
C1887 C 0.35371 0.67643 0.63715 0.0
C1888 C 0.35708 0.62243 0.64301 0.0
C1889 C 0.29274 0.62397 0.65191 0.0
C1890 C 0.36162 0.60785 0.65693 0.0
C1891 C 0.37745 0.581 0.65747 0.0
C1892 C 0.38918 0.56844 0.64409 0.0
C1893 C 0.38526 0.58358 0.63022 0.0
C1894 C 0.36942 0.61037 0.62971 0.0
H1895 H 0.2682 0.62678 0.65103 0.0
H1896 H 0.29939 0.60396 0.64525 0.0
H1897 H 0.29823 0.61988 0.66404 0.0
H1898 H 0.3528 0.61716 0.66738 0.0
H1899 H 0.38011 0.56992 0.66833 0.0
H1900 H 0.98461 0.56786 0.89243 0.0
H1901 H 0.03368 0.59031 0.8898 0.0
H1902 H 0.07393 0.50284 0.89094 0.0
H1903 H 0.02431 0.48029 0.89436 0.0
H1904 H 0.10157 0.53884 0.90993 0.0
H1905 H 0.09015 0.59961 0.85579 0.0
H1906 H 0.06072 0.60986 0.86853 0.0
H1907 H 0.06343 0.57188 0.86174 0.0
C1908 C 1.0038 0.5533 0.89136 0.0
C1909 C 1.00059 0.52229 0.89305 0.0
C1910 C 0.03194 0.56619 0.88994 0.0
C1911 C 0.05762 0.54833 0.88983 0.0
C1912 C 0.05442 0.51708 0.8908 0.0
H1913 H 0.22826 0.63339 0.87089 0.0
H1914 H 0.18172 0.60529 0.86975 0.0
C1915 C 0.02606 0.50411 0.8924 0.0
C1916 C 0.08756 0.56274 0.88993 0.0
H1917 H 0.12816 0.61767 0.87279 0.0
C1918 C 0.10764 0.55571 0.90165 0.0
C1919 C 0.09569 0.58463 0.8791 0.0
C1920 C 0.07644 0.59167 0.86551 0.0
C1921 C 0.13529 0.57036 0.903 0.0
C1922 C 0.14257 0.59363 0.8927 0.0
C1923 C 0.12265 0.60018 0.88084 0.0
C1924 C 0.17098 0.61094 0.89363 0.0
C1925 C 0.1565 0.56013 0.91525 0.0
C1926 C 0.18046 0.62412 0.90734 0.0
C1927 C 0.2076 0.63954 0.9081 0.0
C1928 C 0.22516 0.64318 0.89501 0.0
C1929 C 0.21506 0.63121 0.88116 0.0
C1930 C 0.18844 0.61503 0.88051 0.0
H1931 H 0.15218 0.53654 0.91849 0.0
H1932 H 0.18008 0.56208 0.91154 0.0
H1933 H 0.15323 0.57404 0.92557 0.0
H1934 H 0.16695 0.62248 0.91751 0.0
H1935 H 0.21479 0.64872 0.9189 0.0
H1936 H 0.81627 0.80323 0.89706 0.0
H1937 H 0.83683 0.75435 0.9011 0.0
H1938 H 0.7564 0.7276 0.92452 0.0
H1939 H 0.73393 0.77653 0.9186 0.0
H1940 H 0.85334 0.72413 0.92202 0.0
H1941 H 0.75937 0.65981 0.89679 0.0
H1942 H 0.76037 0.70002 0.89639 0.0
H1943 H 0.74941 0.68061 0.91345 0.0
C1944 C 0.80286 0.7871 0.90321 0.0
C1945 C 0.7733 0.79364 0.90735 0.0
C1946 C 0.81477 0.75895 0.90556 0.0
C1947 C 0.79809 0.73663 0.91281 0.0
C1948 C 0.76941 0.74391 0.91834 0.0
H1949 H 0.89441 0.5731 0.93482 0.0
H1950 H 0.86744 0.62028 0.93609 0.0
C1951 C 0.75681 0.77214 0.91536 0.0
C1952 C 0.81144 0.70617 0.91406 0.0
H1953 H 0.8007 0.63233 0.9054 0.0
C1954 C 0.84162 0.70417 0.91836 0.0
C1955 C 0.79651 0.67984 0.90917 0.0
C1956 C 0.76474 0.68012 0.90355 0.0
C1957 C 0.85745 0.6773 0.91735 0.0
C1958 C 0.84236 0.65108 0.91283 0.0
C1959 C 0.81209 0.65258 0.90893 0.0
C1960 C 0.85791 0.62199 0.912 0.0
C1961 C 0.89057 0.67745 0.92044 0.0
C1962 C 0.86108 0.60709 0.89804 0.0
C1963 C 0.87652 0.57999 0.89724 0.0
C1964 C 0.88889 0.56734 0.91043 0.0
C1965 C 0.88543 0.58231 0.92441 0.0
C1966 C 0.87001 0.60931 0.92518 0.0
H1967 H 0.89998 0.70041 0.92024 0.0
H1968 H 0.89484 0.6678 0.93185 0.0
H1969 H 0.90259 0.66366 0.9119 0.0
H1970 H 0.85186 0.61658 0.88774 0.0
H1971 H 0.87862 0.56892 0.88633 0.0
H1972 H 0.71105 0.65613 0.63909 0.0
H1973 H 0.66295 0.62996 0.64013 0.0
H1974 H 0.6879 0.59102 0.68317 0.0
H1975 H 0.7345 0.61885 0.68271 0.0
H1976 H 0.64732 0.57569 0.6398 0.0
H1977 H 0.6095 0.61926 0.69544 0.0
H1978 H 0.64227 0.63361 0.68614 0.0
H1979 H 0.64414 0.59987 0.69733 0.0
C1980 C 0.70588 0.6424 0.64887 0.0
C1981 C 0.72611 0.64008 0.66097 0.0
C1982 C 0.67851 0.62731 0.64945 0.0
C1983 C 0.67124 0.60911 0.66197 0.0
C1984 C 0.69215 0.60593 0.67373 0.0
H1985 H 0.52385 0.47918 0.65821 0.0
H1986 H 0.57387 0.50113 0.66129 0.0
C1987 C 0.71895 0.62173 0.6734 0.0
C1988 C 0.64222 0.5929 0.66257 0.0
H1989 H 0.58233 0.57802 0.68544 0.0
C1990 C 0.63314 0.5763 0.64979 0.0
C1991 C 0.62337 0.59384 0.67554 0.0
C1992 C 0.6302 0.61288 0.6893 0.0
C1993 C 0.60594 0.56071 0.64963 0.0
C1994 C 0.58777 0.56087 0.66278 0.0
C1995 C 0.59672 0.57739 0.67553 0.0
C1996 C 0.55794 0.54664 0.663 0.0
C1997 C 0.5962 0.54519 0.63522 0.0
C1998 C 0.53257 0.56478 0.66383 0.0
C1999 C 0.50424 0.5523 0.66239 0.0
C2000 C 0.5007 0.52141 0.66021 0.0
C2001 C 0.52596 0.50291 0.6604 0.0
C2002 C 0.55449 0.5155 0.6618 0.0
H2003 H 0.61104 0.55046 0.62546 0.0
H2004 H 0.59637 0.52066 0.63698 0.0
H2005 H 0.57307 0.55183 0.63225 0.0
H2006 H 0.53475 0.58884 0.66474 0.0
H2007 H 0.48514 0.56708 0.66181 0.0
H2008 H 0.7363 0.2381 0.42405 0.0
H2009 H 0.71388 0.28788 0.42642 0.0
H2010 H 0.78761 0.32576 0.40155 0.0
H2011 H 0.81035 0.2761 0.39946 0.0
H2012 H 0.74133 0.34854 0.43688 0.0
H2013 H 0.70609 0.33949 0.37631 0.0
H2014 H 0.71571 0.30712 0.38752 0.0
H2015 H 0.74447 0.33158 0.38073 0.0
C2016 C 0.74847 0.25734 0.41988 0.0
C2017 C 0.77553 0.25359 0.41212 0.0
C2018 C 0.73546 0.2856 0.42099 0.0
C2019 C 0.74907 0.31027 0.41405 0.0
C2020 C 0.77691 0.3069 0.40701 0.0
H2021 H 0.68108 0.48511 0.39041 0.0
H2022 H 0.70882 0.43835 0.39215 0.0
C2023 C 0.79015 0.27871 0.4061 0.0
C2024 C 0.73313 0.33904 0.4133 0.0
H2025 H 0.69358 0.38362 0.38927 0.0
C2026 C 0.73091 0.35638 0.4265 0.0
C2027 C 0.71972 0.34898 0.39969 0.0
C2028 C 0.72135 0.33085 0.38522 0.0
C2029 C 0.71603 0.38393 0.42642 0.0
C2030 C 0.70201 0.39374 0.41286 0.0
C2031 C 0.70425 0.37617 0.39965 0.0
C2032 C 0.68514 0.42221 0.412 0.0
C2033 C 0.71636 0.40247 0.44076 0.0
C2034 C 0.66224 0.42859 0.42241 0.0
C2035 C 0.64679 0.45561 0.42162 0.0
C2036 C 0.65327 0.47631 0.41008 0.0
C2037 C 0.67548 0.46951 0.39937 0.0
C2038 C 0.69138 0.4428 0.40038 0.0
H2039 H 0.73581 0.39686 0.44804 0.0
H2040 H 0.71712 0.42673 0.43819 0.0
H2041 H 0.69591 0.3977 0.44744 0.0
H2042 H 0.6562 0.41266 0.43113 0.0
H2043 H 0.62961 0.46018 0.42997 0.0
H2044 H 0.81652 0.41621 0.13591 0.0
H2045 H 0.86406 0.44305 0.13716 0.0
H2046 H 0.87059 0.42336 0.18504 0.0
H2047 H 0.82356 0.39613 0.18388 0.0
H2048 H 0.87714 0.49252 0.15508 0.0
H2049 H 0.95196 0.398 0.16944 0.0
H2050 H 0.91429 0.39246 0.16278 0.0
H2051 H 0.92116 0.40281 0.18224 0.0
C2052 C 0.8283 0.41721 0.14665 0.0
C2053 C 0.81639 0.40382 0.15975 0.0
C2054 C 0.85538 0.43263 0.14736 0.0
C2055 C 0.87104 0.43474 0.16114 0.0
C2056 C 0.85921 0.42139 0.17423 0.0
H2057 H 0.04687 0.50953 0.18111 0.0
H2058 H 0.99658 0.48842 0.18438 0.0
C2059 C 0.83222 0.40596 0.17353 0.0
C2060 C 0.89909 0.45206 0.16198 0.0
H2061 H 0.97321 0.44634 0.16998 0.0
C2062 C 0.8982 0.4825 0.15834 0.0
C2063 C 0.92635 0.43895 0.16646 0.0
C2064 C 0.92866 0.4062 0.17033 0.0
C2065 C 0.92383 0.50038 0.15915 0.0
C2066 C 0.95145 0.48718 0.1632 0.0
C2067 C 0.95216 0.45667 0.16699 0.0
C2068 C 0.98013 0.50389 0.16257 0.0
C2069 C 0.92057 0.53332 0.1559 0.0
C2070 C 0.98747 0.52028 0.14951 0.0
C2071 C 1.01528 0.53375 0.14815 0.0
C2072 C 0.03713 0.52976 0.15939 0.0
C2073 C 0.03001 0.51376 0.17257 0.0
C2074 C 1.0015 0.50126 0.17425 0.0
H2075 H 0.89807 0.54144 0.1592 0.0
H2076 H 0.93747 0.54686 0.16204 0.0
H2077 H 0.92298 0.53714 0.14349 0.0
H2078 H 0.97234 0.52145 0.13995 0.0
H2079 H 1.02061 0.54515 0.13763 0.0
H2080 H 0.73483 0.73526 0.65333 0.0
H2081 H 0.70748 0.78154 0.64833 0.0
H2082 H 0.7906 0.82707 0.63976 0.0
H2083 H 0.81784 0.78061 0.64462 0.0
H2084 H 0.71418 0.8309 0.666 0.0
H2085 H 0.73881 0.85973 0.60596 0.0
H2086 H 0.74526 0.82289 0.61361 0.0
H2087 H 0.77147 0.85254 0.61716 0.0
C2088 C 0.74705 0.75476 0.6495 0.0
C2089 C 0.77832 0.75418 0.64872 0.0
C2090 C 0.73148 0.7813 0.64691 0.0
C2091 C 0.74693 0.80776 0.64351 0.0
C2092 C 0.77811 0.80683 0.64197 0.0
H2093 H 0.69354 0.99189 0.65765 0.0
H2094 H 0.71979 0.94376 0.65679 0.0
C2095 C 0.79369 0.78022 0.64459 0.0
C2096 C 0.73076 0.83671 0.64316 0.0
H2097 H 0.7169 0.89808 0.6212 0.0
C2098 C 0.71466 0.84547 0.65616 0.0
C2099 C 0.73138 0.85577 0.63034 0.0
C2100 C 0.74743 0.84719 0.61592 0.0
C2101 C 0.69955 0.87289 0.65671 0.0
C2102 C 0.70057 0.89199 0.64398 0.0
C2103 C 0.71634 0.88328 0.63095 0.0
C2104 C 0.68516 0.92112 0.64409 0.0
C2105 C 0.68235 0.88138 0.67081 0.0
C2106 C 0.65724 0.92418 0.6371 0.0
C2107 C 0.64241 0.95163 0.63746 0.0
C2108 C 0.65514 0.97617 0.64503 0.0
C2109 C 0.68309 0.97306 0.65202 0.0
C2110 C 0.69812 0.94574 0.65145 0.0
H2111 H 0.68297 0.86363 0.67961 0.0
H2112 H 0.69174 0.90222 0.67573 0.0
H2113 H 0.65874 0.88594 0.66779 0.0
H2114 H 0.6469 0.90529 0.63146 0.0
H2115 H 0.62086 0.95361 0.63199 0.0
H2116 H 0.8186 0.90714 0.86826 0.0
H2117 H 0.86641 0.93338 0.86765 0.0
H2118 H 0.86958 0.93243 0.91666 0.0
H2119 H 0.82199 0.90581 0.91741 0.0
H2120 H 0.88166 0.98841 0.88012 0.0
H2121 H 0.95027 0.89774 0.90494 0.0
H2122 H 0.91295 0.8915 0.89792 0.0
H2123 H 0.91871 0.90781 0.91641 0.0
C2124 C 0.82962 0.91217 0.87893 0.0
C2125 C 0.81665 0.90407 0.8929 0.0
C2126 C 0.85686 0.92732 0.87854 0.0
C2127 C 0.87174 0.93444 0.89209 0.0
C2128 C 0.85876 0.92658 0.90606 0.0
H2129 H 0.02264 0.03196 0.92169 0.0
H2130 H 0.97438 1.00855 0.9173 0.0
C2131 C 0.83151 0.91145 0.90647 0.0
C2132 C 0.90063 0.95048 0.89163 0.0
H2133 H 0.97315 0.94577 0.90311 0.0
C2134 C 0.90177 0.97896 0.88496 0.0
C2135 C 0.92682 0.93802 0.89792 0.0
C2136 C 0.9273 0.90697 0.90457 0.0
C2137 C 0.92826 0.99575 0.88492 0.0
C2138 C 0.95414 0.98359 0.89155 0.0
C2139 C 0.95318 0.9549 0.89794 0.0
C2140 C 0.98178 1.00124 0.8933 0.0
C2141 C 0.92834 0.02679 0.87833 0.0
C2142 C 1.00159 1.00563 0.88109 0.0
C2143 C 0.02957 1.01893 0.88359 0.0
C2144 C 0.03764 0.02809 0.89829 0.0
C2145 C 1.01684 0.02534 0.9102 0.0
C2146 C 0.98933 1.01182 0.90776 0.0
H2147 H 0.90581 0.03389 0.87455 0.0
H2148 H 0.9367 0.04299 0.88691 0.0
H2149 H 0.94372 0.02756 0.86844 0.0
H2150 H 0.99601 0.99745 0.86984 0.0
H2151 H 0.04544 1.02035 0.87433 0.0
H2152 H 0.88875 0.07315 0.12015 0.0
H2153 H 0.8625 0.12082 0.11968 0.0
H2154 H 0.85233 0.11753 0.16843 0.0
H2155 H 0.8791 0.06991 0.16907 0.0
H2156 H 0.80518 0.13328 0.12907 0.0
H2157 H 0.88761 0.20033 0.16171 0.0
H2158 H 0.8962 0.1639 0.15405 0.0
H2159 H 0.87482 0.16728 0.17125 0.0
C2160 C 0.88121 0.08264 0.13082 0.0
C2161 C 0.88621 0.06783 0.14468 0.0
C2162 C 0.86611 0.10986 0.1305 0.0
C2163 C 0.85581 0.12287 0.14402 0.0
C2164 C 0.86064 0.10814 0.15789 0.0
H2165 H 0.73074 0.26807 0.15654 0.0
H2166 H 0.75385 0.21866 0.15428 0.0
C2167 C 0.87584 0.08089 0.15823 0.0
C2168 C 0.83949 0.15157 0.14349 0.0
H2169 H 0.84167 0.22392 0.15578 0.0
C2170 C 0.81314 0.15311 0.1349 0.0
C2171 C 0.85012 0.17743 0.151 0.0
C2172 C 0.87887 0.17736 0.15992 0.0
C2173 C 0.79695 0.17981 0.13376 0.0
C2174 C 0.80737 0.20549 0.14142 0.0
C2175 C 0.83379 0.20407 0.14993 0.0
C2176 C 0.7911 0.23415 0.14078 0.0
C2177 C 0.76907 0.18066 0.1242 0.0
C2178 C 0.8041 0.25897 0.13366 0.0
C2179 C 0.79081 0.2871 0.13485 0.0
C2180 C 0.76425 0.2907 0.14306 0.0
C2181 C 0.75041 0.26553 0.14949 0.0
C2182 C 0.76382 0.23744 0.14841 0.0
H2183 H 0.76619 0.16 0.11734 0.0
H2184 H 0.74936 0.18319 0.13172 0.0
H2185 H 0.76966 0.2002 0.11644 0.0
H2186 H 0.82528 0.25683 0.12783 0.0
H2187 H 0.80244 0.3064 0.13035 0.0
H2188 H 0.48775 0.05048 0.3769 0.0
H2189 H 0.53755 0.07229 0.37391 0.0
H2190 H 0.57213 1.00899 0.40641 0.0
H2191 H 0.5231 0.98586 0.40831 0.0
H2192 H 0.56587 0.10086 0.39384 0.0
H2193 H 0.63939 1.0064 0.3786 0.0
H2194 H 0.59936 1.00303 0.37812 0.0
H2195 H 0.61945 0.99869 0.39577 0.0
C2196 C 0.5065 0.0401 0.38257 0.0
C2197 C 0.502 1.01568 0.39224 0.0
C2198 C 0.53484 0.0529 0.38113 0.0
C2199 C 0.55899 0.04203 0.38971 0.0
C2200 C 0.55447 1.01708 0.39913 0.0
H2201 H 0.73121 0.11496 0.41521 0.0
H2202 H 0.68374 0.08798 0.41386 0.0
C2203 C 0.52639 1.00372 0.40016 0.0
C2204 C 0.58782 0.05862 0.39001 0.0
H2205 H 0.66353 0.05009 0.38854 0.0
C2206 C 0.58714 0.0897 0.39243 0.0
C2207 C 0.6158 0.04421 0.38839 0.0
C2208 C 0.61851 1.0113 0.38493 0.0
C2209 C 0.61346 0.10659 0.3934 0.0
C2210 C 0.64122 0.09204 0.392 0.0
C2211 C 0.64209 0.06108 0.38967 0.0
C2212 C 0.66968 0.10867 0.39284 0.0
C2213 C 0.61143 0.13981 0.39616 0.0
C2214 C 0.67746 0.12902 0.3814 0.0
C2215 C 0.70458 0.14433 0.3821 0.0
C2216 C 0.72428 0.13966 0.3943 0.0
C2217 C 0.71634 0.11932 0.40577 0.0
C2218 C 0.68934 0.10378 0.40498 0.0
H2219 H 0.58894 0.14656 0.40019 0.0
H2220 H 0.62825 0.1471 0.40466 0.0
H2221 H 0.61608 0.15177 0.38537 0.0
H2222 H 0.66269 0.1328 0.37186 0.0
H2223 H 0.71013 0.15978 0.37305 0.0
H2224 H 0.22327 0.25739 0.3991 0.0
H2225 H 0.25123 0.21168 0.40408 0.0
H2226 H 0.32589 0.26415 0.41971 0.0
H2227 H 0.29757 0.31016 0.41481 0.0
H2228 H 0.305 0.20233 0.38797 0.0
H2229 H 0.32216 0.1942 0.45047 0.0
H2230 H 0.2936 0.21756 0.44223 0.0
H2231 H 0.33193 0.22908 0.44164 0.0
C2232 C 0.24497 0.25909 0.40445 0.0
C2233 C 0.25787 0.28719 0.4071 0.0
C2234 C 0.26113 0.233 0.40705 0.0
C2235 C 0.29058 0.23447 0.41233 0.0
C2236 C 0.30297 0.26248 0.41593 0.0
H2237 H 0.41889 0.08928 0.42459 0.0
H2238 H 0.39352 0.13774 0.42471 0.0
C2239 C 0.28666 0.28874 0.41334 0.0
C2240 C 0.30902 0.20696 0.41226 0.0
H2241 H 0.34509 0.15744 0.43522 0.0
C2242 C 0.31383 0.19249 0.3983 0.0
C2243 C 0.32101 0.19454 0.42567 0.0
C2244 C 0.31684 0.20946 0.4409 0.0
C2245 C 0.33012 0.16581 0.39737 0.0
C2246 C 0.34088 0.15245 0.4109 0.0
C2247 C 0.33664 0.16737 0.42484 0.0
C2248 C 0.35631 0.12298 0.41086 0.0
C2249 C 0.33615 0.15284 0.3818 0.0
C2250 C 0.34374 0.09829 0.4033 0.0
C2251 C 0.35879 0.07102 0.40273 0.0
C2252 C 0.38603 0.06748 0.41033 0.0
C2253 C 0.39799 0.0916 0.41854 0.0
C2254 C 0.38343 0.11923 0.41865 0.0
H2255 H 0.3363 0.17052 0.37295 0.0
H2256 H 0.35784 0.14095 0.38138 0.0
H2257 H 0.3181 0.1369 0.37881 0.0
H2258 H 0.32222 0.10001 0.39782 0.0
H2259 H 0.34879 0.05248 0.39665 0.0
H2260 H 0.99145 0.03879 0.17957 0.0
H2261 H 0.0407 0.06256 0.18288 0.0
H2262 H 0.07018 0.02382 0.14057 0.0
H2263 H 0.02164 0.99957 0.13746 0.0
H2264 H 0.1084 0.03143 0.17728 0.0
H2265 H 0.06908 0.12424 0.14027 0.0
H2266 H 0.04362 0.10202 0.15149 0.0
H2267 H 0.06036 0.08643 0.13475 0.0
C2268 C 1.00898 0.03428 0.17141 0.0
C2269 C 1.00316 1.01673 0.15851 0.0
C2270 C 0.03687 0.04812 0.17318 0.0
C2271 C 0.05889 0.04496 0.16192 0.0
C2272 C 0.05353 0.02631 0.14941 0.0
H2273 H 0.22143 0.13568 0.13636 0.0
H2274 H 0.17425 0.10832 0.13737 0.0
C2275 C 0.02596 1.01222 0.14776 0.0
C2276 C 0.08668 0.06273 0.16248 0.0
H2277 H 0.11963 0.12483 0.14747 0.0
C2278 C 0.11088 0.05201 0.17091 0.0
C2279 C 0.08981 0.08926 0.15394 0.0
C2280 C 0.06438 0.10142 0.14461 0.0
C2281 C 0.13845 0.06698 0.17084 0.0
C2282 C 0.14157 0.09374 0.16239 0.0
C2283 C 0.11721 0.10444 0.154 0.0
C2284 C 0.17 0.11077 0.16187 0.0
C2285 C 0.16422 0.05342 0.17941 0.0
C2286 C 0.18296 0.12186 0.17526 0.0
C2287 C 0.20992 0.13754 0.17472 0.0
C2288 C 0.22436 0.1427 0.16074 0.0
C2289 C 0.21092 0.1322 0.14731 0.0
C2290 C 0.18397 0.11648 0.14787 0.0
H2291 H 0.16066 0.02923 0.18156 0.0
H2292 H 0.18545 0.05624 0.17307 0.0
H2293 H 0.16648 0.06475 0.19058 0.0
H2294 H 0.17226 0.11836 0.18615 0.0
H2295 H 0.21962 0.14519 0.18531 0.0
H2296 H 0.15851 0.9723 0.9342 0.0
H2297 H 0.18491 0.92476 0.93439 0.0
H2298 H 0.18096 0.92143 0.88539 0.0
H2299 H 0.15549 0.96973 0.88506 0.0
H2300 H 0.17077 0.87067 0.9255 0.0
H2301 H 0.26782 0.90844 0.89159 0.0
H2302 H 0.24013 0.93409 0.89868 0.0
H2303 H 0.23337 0.91299 0.88155 0.0
C2304 C 0.16328 0.96153 0.92343 0.0
C2305 C 0.15509 0.97493 0.90958 0.0
C2306 C 0.17837 0.93429 0.92358 0.0
C2307 C 0.18553 0.91978 0.9099 0.0
C2308 C 0.1765 0.93262 0.89607 0.0
H2309 H 0.26143 0.75041 0.88594 0.0
H2310 H 0.23146 0.79576 0.88843 0.0
C2311 C 0.16168 0.9601 0.8959 0.0
C2312 C 0.20229 0.89118 0.91021 0.0
H2313 H 0.26386 0.85602 0.89596 0.0
C2314 C 0.19127 0.86759 0.91915 0.0
C2315 C 0.2292 0.88719 0.90201 0.0
C2316 C 0.24349 0.91213 0.89305 0.0
C2317 C 0.20605 0.83998 0.91981 0.0
C2318 C 0.23237 0.83587 0.91129 0.0
C2319 C 0.24357 0.85938 0.90246 0.0
C2320 C 0.24807 0.80688 0.91081 0.0
C2321 C 0.19326 0.81508 0.9293 0.0
C2322 C 0.26695 0.79796 0.92272 0.0
C2323 C 0.28438 0.77208 0.92126 0.0
C2324 C 0.28282 0.75494 0.90793 0.0
C2325 C 0.2629 0.76329 0.89636 0.0
C2326 C 0.24583 0.78914 0.89774 0.0
H2327 H 0.17156 0.82123 0.93453 0.0
H2328 H 0.19013 0.79481 0.92218 0.0
H2329 H 0.20918 0.80932 0.9385 0.0
H2330 H 0.269 0.81158 0.93286 0.0
H2331 H 0.29976 0.76609 0.93024 0.0
H2332 H 0.31131 0.92701 0.63739 0.0
H2333 H 0.35912 0.95347 0.63831 0.0
H2334 H 0.375 0.91913 0.68337 0.0
H2335 H 0.3274 0.89257 0.68256 0.0
H2336 H 0.37679 0.99697 0.66055 0.0
H2337 H 0.45177 0.8983 0.65964 0.0
H2338 H 0.4129 0.89605 0.65442 0.0
H2339 H 0.42347 0.89775 0.67411 0.0
C2340 C 0.32515 0.92482 0.64742 0.0
C2341 C 0.31571 0.9076 0.65986 0.0
C2342 C 0.35234 0.94003 0.64795 0.0
C2343 C 0.37065 0.93791 0.66083 0.0
C2344 C 0.36135 0.92065 0.67324 0.0
H2345 H 0.5506 1.0015 0.67846 0.0
H2346 H 0.50044 0.98039 0.68166 0.0
C2347 C 0.3341 0.90562 0.67277 0.0
C2348 C 0.39909 0.95452 0.66148 0.0
H2349 H 0.47437 0.94537 0.66361 0.0
C2350 C 0.39819 0.98579 0.66123 0.0
C2351 C 0.42682 0.93975 0.6625 0.0
C2352 C 0.42897 0.9061 0.66256 0.0
C2353 C 0.42436 1.00288 0.66221 0.0
C2354 C 0.45231 0.98818 0.66295 0.0
C2355 C 0.45306 0.95677 0.66319 0.0
C2356 C 0.48112 1.00469 0.66277 0.0
C2357 C 0.42145 0.03644 0.66278 0.0
C2358 C 0.48683 0.02605 0.65145 0.0
C2359 C 0.51492 0.03917 0.65021 0.0
C2360 C 0.53822 0.03035 0.65985 0.0
C2361 C 0.5326 1.00949 0.67134 0.0
C2362 C 0.50412 0.99706 0.67294 0.0
H2363 H 0.39985 0.04321 0.66792 0.0
H2364 H 0.43975 0.04689 0.66942 0.0
H2365 H 0.42192 0.04538 0.65102 0.0
H2366 H 0.47016 0.03137 0.64299 0.0
H2367 H 0.51919 0.05419 0.64079 0.0
loop_
_geom_bond_atom_site_label_1
_geom_bond_atom_site_label_2
_geom_bond_distance
_geom_bond_site_symmetry_2
_ccdc_geom_bond_type
C0 Eu1 2.835 . S
C0 C2 1.500 . S
C0 O20 1.257 . S
C0 O21 1.260 . S
Eu1 C0 2.835 . S
Eu1 O20 2.473 . S
Eu1 O21 2.480 . S
Eu1 O22 2.430 . S
Eu1 O23 2.670 . S
Eu1 O24 2.394 . S
Eu1 O29 2.355 . S
Eu1 O31 2.374 . S
C2 C0 1.500 . S
C2 C3 1.377 . S
C2 C7 1.377 . S
C3 C2 1.377 . S
C3 C4 1.395 . S
C3 H32 0.931 . S
C4 C3 1.395 . S
C4 C5 1.383 . S
C4 H33 0.931 . S
C5 C4 1.383 . S
C5 C6 1.394 . S
C6 C5 1.394 . S
C6 C7 1.378 . S
C6 H34 0.931 . S
C7 C2 1.377 . S
C7 C6 1.378 . S
C7 H35 0.931 . S
C8 O22 1.259 . S
C8 O23 1.270 . S
C9 O24 1.251 . S
C9 O25 1.251 . S
C10 Eu11 2.835 . S
C10 C12 1.500 . S
C10 O26 1.257 . S
C10 O27 1.260 . S
Eu11 C10 2.835 . S
Eu11 O23 2.355 . S
Eu11 O25 2.374 . S
Eu11 O26 2.473 . S
Eu11 O27 2.480 . S
Eu11 O28 2.430 . S
Eu11 O29 2.670 . S
Eu11 O30 2.394 . S
C12 C10 1.500 . S
C12 C13 1.377 . S
C12 C17 1.377 . S
C13 C12 1.377 . S
C13 C14 1.395 . S
C13 H36 0.931 . S
C14 C13 1.395 . S
C14 C15 1.383 . S
C14 H37 0.931 . S
C15 C14 1.383 . S
C15 C16 1.394 . S
C16 C15 1.394 . S
C16 C17 1.378 . S
C16 H38 0.931 . S
C17 C12 1.377 . S
C17 C16 1.378 . S
C17 H39 0.931 . S
C18 O28 1.259 . S
C18 O29 1.270 . S
C19 O30 1.251 . S
C19 O31 1.251 . S
O20 C0 1.257 . S
O20 Eu1 2.473 . S
O21 C0 1.260 . S
O21 Eu1 2.480 . S
O22 Eu1 2.430 . S
O22 C8 1.259 . S
O23 Eu1 2.670 . S
O23 C8 1.270 . S
O23 Eu11 2.355 . S
O24 Eu1 2.394 . S
O24 C9 1.251 . S
O25 C9 1.251 . S
O25 Eu11 2.374 . S
O26 C10 1.257 . S
O26 Eu11 2.473 . S
O27 C10 1.260 . S
O27 Eu11 2.480 . S
O28 Eu11 2.430 . S
O28 C18 1.259 . S
O29 Eu1 2.355 . S
O29 Eu11 2.670 . S
O29 C18 1.270 . S
O30 Eu11 2.394 . S
O30 C19 1.251 . S
O31 Eu1 2.374 . S
O31 C19 1.251 . S
H32 C3 0.931 . S
H33 C4 0.931 . S
H34 C6 0.931 . S
H35 C7 0.931 . S
H36 C13 0.931 . S
H37 C14 0.931 . S
H38 C16 0.931 . S
H39 C17 0.931 . S
C40 Eu41 2.835 . S
C40 C42 1.500 . S
C40 O60 1.257 . S
C40 O61 1.260 . S
Eu41 C40 2.835 . S
Eu41 O60 2.473 . S
Eu41 O61 2.480 . S
Eu41 O62 2.430 . S
Eu41 O63 2.670 . S
Eu41 O64 2.394 . S
Eu41 O69 2.355 . S
Eu41 O71 2.374 . S
C42 C40 1.500 . S
C42 C43 1.377 . S
C42 C47 1.377 . S
C43 C42 1.377 . S
C43 C44 1.395 . S
C43 H72 0.931 . S
C44 C43 1.395 . S
C44 C45 1.383 . S
C44 H73 0.931 . S
C45 C44 1.383 . S
C45 C46 1.394 . S
C46 C45 1.394 . S
C46 C47 1.378 . S
C46 H74 0.931 . S
C47 C42 1.377 . S
C47 C46 1.378 . S
C47 H75 0.931 . S
C48 O62 1.259 . S
C48 O63 1.270 . S
C49 O64 1.251 . S
C49 O65 1.251 . S
C50 Eu51 2.835 . S
C50 C52 1.500 . S
C50 O66 1.257 . S
C50 O67 1.260 . S
Eu51 C50 2.835 . S
Eu51 O63 2.355 . S
Eu51 O65 2.374 . S
Eu51 O66 2.473 . S
Eu51 O67 2.480 . S
Eu51 O68 2.430 . S
Eu51 O69 2.670 . S
Eu51 O70 2.394 . S
C52 C50 1.500 . S
C52 C53 1.377 . S
C52 C57 1.377 . S
C53 C52 1.377 . S
C53 C54 1.395 . S
C53 H76 0.931 . S
C54 C53 1.395 . S
C54 C55 1.383 . S
C54 H77 0.931 . S
C55 C54 1.383 . S
C55 C56 1.394 . S
C56 C55 1.394 . S
C56 C57 1.378 . S
C56 H78 0.931 . S
C57 C52 1.377 . S
C57 C56 1.378 . S
C57 H79 0.931 . S
C58 O68 1.259 . S
C58 O69 1.270 . S
C59 O70 1.251 . S
C59 O71 1.251 . S
O60 C40 1.257 . S
O60 Eu41 2.473 . S
O61 C40 1.260 . S
O61 Eu41 2.480 . S
O62 Eu41 2.430 . S
O62 C48 1.259 . S
O63 Eu41 2.670 . S
O63 C48 1.270 . S
O63 Eu51 2.355 . S
O64 Eu41 2.394 . S
O64 C49 1.251 . S
O65 C49 1.251 . S
O65 Eu51 2.374 . S
O66 C50 1.257 . S
O66 Eu51 2.473 . S
O67 C50 1.260 . S
O67 Eu51 2.480 . S
O68 Eu51 2.430 . S
O68 C58 1.259 . S
O69 Eu41 2.355 . S
O69 Eu51 2.670 . S
O69 C58 1.270 . S
O70 Eu51 2.394 . S
O70 C59 1.251 . S
O71 Eu41 2.374 . S
O71 C59 1.251 . S
H72 C43 0.931 . S
H73 C44 0.931 . S
H74 C46 0.931 . S
H75 C47 0.931 . S
H76 C53 0.931 . S
H77 C54 0.931 . S
H78 C56 0.931 . S
H79 C57 0.931 . S
C80 Eu81 2.835 . S
C80 C82 1.500 . S
C80 O100 1.257 . S
C80 O101 1.260 . S
Eu81 C80 2.835 . S
Eu81 O100 2.473 . S
Eu81 O101 2.480 . S
Eu81 O102 2.430 . S
Eu81 O103 2.670 . S
Eu81 O104 2.394 . S
Eu81 O109 2.355 . S
Eu81 O111 2.374 . S
C82 C80 1.500 . S
C82 C83 1.377 . S
C82 C87 1.377 . S
C83 C82 1.377 . S
C83 C84 1.395 . S
C83 H112 0.931 . S
C84 C83 1.395 . S
C84 C85 1.383 . S
C84 H113 0.931 . S
C85 C84 1.383 . S
C85 C86 1.394 . S
C86 C85 1.394 . S
C86 C87 1.378 . S
C86 H114 0.931 . S
C87 C82 1.377 . S
C87 C86 1.378 . S
C87 H115 0.931 . S
C88 O102 1.259 . S
C88 O103 1.270 . S
C89 O104 1.251 . S
C89 O105 1.251 . S
C90 Eu91 2.835 . S
C90 C92 1.500 . S
C90 O106 1.257 . S
C90 O107 1.260 . S
Eu91 C90 2.835 . S
Eu91 O103 2.355 . S
Eu91 O105 2.374 . S
Eu91 O106 2.473 . S
Eu91 O107 2.480 . S
Eu91 O108 2.430 . S
Eu91 O109 2.670 . S
Eu91 O110 2.394 . S
C92 C90 1.500 . S
C92 C93 1.377 . S
C92 C97 1.377 . S
C93 C92 1.377 . S
C93 C94 1.395 . S
C93 H116 0.931 . S
C94 C93 1.395 . S
C94 C95 1.383 . S
C94 H117 0.931 . S
C95 C94 1.383 . S
C95 C96 1.394 . S
C96 C95 1.394 . S
C96 C97 1.378 . S
C96 H118 0.931 . S
C97 C92 1.377 . S
C97 C96 1.378 . S
C97 H119 0.931 . S
C98 O108 1.259 . S
C98 O109 1.270 . S
C99 O110 1.251 . S
C99 O111 1.251 . S
O100 C80 1.257 . S
O100 Eu81 2.473 . S
O101 C80 1.260 . S
O101 Eu81 2.480 . S
O102 Eu81 2.430 . S
O102 C88 1.259 . S
O103 Eu81 2.670 . S
O103 C88 1.270 . S
O103 Eu91 2.355 . S
O104 Eu81 2.394 . S
O104 C89 1.251 . S
O105 C89 1.251 . S
O105 Eu91 2.374 . S
O106 C90 1.257 . S
O106 Eu91 2.473 . S
O107 C90 1.260 . S
O107 Eu91 2.480 . S
O108 Eu91 2.430 . S
O108 C98 1.259 . S
O109 Eu81 2.355 . S
O109 Eu91 2.670 . S
O109 C98 1.270 . S
O110 Eu91 2.394 . S
O110 C99 1.251 . S
O111 Eu81 2.374 . S
O111 C99 1.251 . S
H112 C83 0.931 . S
H113 C84 0.931 . S
H114 C86 0.931 . S
H115 C87 0.931 . S
H116 C93 0.931 . S
H117 C94 0.931 . S
H118 C96 0.931 . S
H119 C97 0.931 . S
C120 Eu121 2.835 . S
C120 C122 1.500 . S
C120 O140 1.257 . S
C120 O141 1.260 . S
Eu121 C120 2.835 . S
Eu121 O140 2.473 . S
Eu121 O141 2.480 . S
Eu121 O142 2.430 . S
Eu121 O143 2.670 . S
Eu121 O144 2.394 . S
Eu121 O149 2.355 . S
Eu121 O151 2.374 . S
C122 C120 1.500 . S
C122 C123 1.377 . S
C122 C127 1.377 . S
C123 C122 1.377 . S
C123 C124 1.395 . S
C123 H152 0.931 . S
C124 C123 1.395 . S
C124 C125 1.383 . S
C124 H153 0.931 . S
C125 C124 1.383 . S
C125 C126 1.394 . S
C126 C125 1.394 . S
C126 C127 1.378 . S
C126 H154 0.931 . S
C127 C122 1.377 . S
C127 C126 1.378 . S
C127 H155 0.931 . S
C128 O142 1.259 . S
C128 O143 1.270 . S
C129 O144 1.251 . S
C129 O145 1.251 . S
C130 Eu131 2.835 . S
C130 C132 1.500 . S
C130 O146 1.257 . S
C130 O147 1.260 . S
Eu131 C130 2.835 . S
Eu131 O143 2.355 . S
Eu131 O145 2.374 . S
Eu131 O146 2.473 . S
Eu131 O147 2.480 . S
Eu131 O148 2.430 . S
Eu131 O149 2.670 . S
Eu131 O150 2.394 . S
C132 C130 1.500 . S
C132 C133 1.377 . S
C132 C137 1.377 . S
C133 C132 1.377 . S
C133 C134 1.395 . S
C133 H156 0.931 . S
C134 C133 1.395 . S
C134 C135 1.383 . S
C134 H157 0.931 1_655 S
C135 C134 1.383 . S
C135 C136 1.394 . S
C136 C135 1.394 . S
C136 C137 1.378 . S
C136 H158 0.931 . S
C137 C132 1.377 . S
C137 C136 1.378 . S
C137 H159 0.931 . S
C138 O148 1.259 . S
C138 O149 1.270 . S
C139 O150 1.251 . S
C139 O151 1.251 . S
O140 C120 1.257 . S
O140 Eu121 2.473 . S
O141 C120 1.260 . S
O141 Eu121 2.480 . S
O142 Eu121 2.430 . S
O142 C128 1.259 . S
O143 Eu121 2.670 . S
O143 C128 1.270 . S
O143 Eu131 2.355 . S
O144 Eu121 2.394 . S
O144 C129 1.251 . S
O145 C129 1.251 . S
O145 Eu131 2.374 . S
O146 C130 1.257 . S
O146 Eu131 2.473 . S
O147 C130 1.260 . S
O147 Eu131 2.480 . S
O148 Eu131 2.430 . S
O148 C138 1.259 . S
O149 Eu121 2.355 . S
O149 Eu131 2.670 . S
O149 C138 1.270 . S
O150 Eu131 2.394 . S
O150 C139 1.251 . S
O151 Eu121 2.374 . S
O151 C139 1.251 . S
H152 C123 0.931 . S
H153 C124 0.931 . S
H154 C126 0.931 . S
H155 C127 0.931 . S
H156 C133 0.931 . S
H157 C134 0.931 1_455 S
H158 C136 0.931 . S
H159 C137 0.931 . S
C160 Eu161 2.835 . S
C160 C162 1.500 . S
C160 O180 1.257 . S
C160 O181 1.260 . S
Eu161 C160 2.835 . S
Eu161 O180 2.473 . S
Eu161 O181 2.480 . S
Eu161 O182 2.430 . S
Eu161 O183 2.670 . S
Eu161 O184 2.394 . S
Eu161 O189 2.355 . S
Eu161 O191 2.374 . S
C162 C160 1.500 . S
C162 C163 1.377 . S
C162 C167 1.377 . S
C163 C162 1.377 . S
C163 C164 1.395 . S
C163 H192 0.931 . S
C164 C163 1.395 . S
C164 C165 1.383 . S
C164 H193 0.931 . S
C165 C164 1.383 . S
C165 C166 1.394 . S
C166 C165 1.394 . S
C166 C167 1.378 . S
C166 H194 0.931 . S
C167 C162 1.377 . S
C167 C166 1.378 . S
C167 H195 0.931 . S
C168 O182 1.259 . S
C168 O183 1.270 . S
C169 O184 1.251 . S
C169 O185 1.251 . S
C170 Eu171 2.835 . S
C170 C172 1.500 . S
C170 O186 1.257 . S
C170 O187 1.260 . S
Eu171 C170 2.835 . S
Eu171 O183 2.355 . S
Eu171 O185 2.374 . S
Eu171 O186 2.473 . S
Eu171 O187 2.480 . S
Eu171 O188 2.430 . S
Eu171 O189 2.670 . S
Eu171 O190 2.394 . S
C172 C170 1.500 . S
C172 C173 1.377 . S
C172 C177 1.377 . S
C173 C172 1.377 . S
C173 C174 1.395 . S
C173 H196 0.931 . S
C174 C173 1.395 . S
C174 C175 1.383 . S
C174 H197 0.931 . S
C175 C174 1.383 . S
C175 C176 1.394 . S
C176 C175 1.394 . S
C176 C177 1.378 . S
C176 H198 0.931 . S
C177 C172 1.377 . S
C177 C176 1.378 . S
C177 H199 0.931 . S
C178 O188 1.259 . S
C178 O189 1.270 . S
C179 O190 1.251 . S
C179 O191 1.251 . S
O180 C160 1.257 . S
O180 Eu161 2.473 . S
O181 C160 1.260 . S
O181 Eu161 2.480 . S
O182 Eu161 2.430 . S
O182 C168 1.259 . S
O183 Eu161 2.670 . S
O183 C168 1.270 . S
O183 Eu171 2.355 . S
O184 Eu161 2.394 . S
O184 C169 1.251 . S
O185 C169 1.251 . S
O185 Eu171 2.374 . S
O186 C170 1.257 . S
O186 Eu171 2.473 . S
O187 C170 1.260 . S
O187 Eu171 2.480 . S
O188 Eu171 2.430 . S
O188 C178 1.259 . S
O189 Eu161 2.355 . S
O189 Eu171 2.670 . S
O189 C178 1.270 . S
O190 Eu171 2.394 . S
O190 C179 1.251 . S
O191 Eu161 2.374 . S
O191 C179 1.251 . S
H192 C163 0.931 . S
H193 C164 0.931 . S
H194 C166 0.931 . S
H195 C167 0.931 . S
H196 C173 0.931 . S
H197 C174 0.931 . S
H198 C176 0.931 . S
H199 C177 0.931 . S
C200 Eu201 2.835 . S
C200 C202 1.500 . S
C200 O220 1.257 . S
C200 O221 1.260 . S
Eu201 C200 2.835 . S
Eu201 O220 2.473 . S
Eu201 O221 2.480 . S
Eu201 O222 2.430 . S
Eu201 O223 2.670 . S
Eu201 O224 2.394 . S
Eu201 O229 2.355 . S
Eu201 O231 2.374 . S
C202 C200 1.500 . S
C202 C203 1.377 . S
C202 C207 1.377 . S
C203 C202 1.377 . S
C203 C204 1.395 . S
C203 H232 0.931 . S
C204 C203 1.395 . S
C204 C205 1.383 . S
C204 H233 0.931 . S
C205 C204 1.383 . S
C205 C206 1.394 . S
C206 C205 1.394 . S
C206 C207 1.378 . S
C206 H234 0.931 . S
C207 C202 1.377 . S
C207 C206 1.378 . S
C207 H235 0.931 . S
C208 O222 1.259 . S
C208 O223 1.270 . S
C209 O224 1.251 . S
C209 O225 1.251 . S
C210 Eu211 2.835 . S
C210 C212 1.500 . S
C210 O226 1.257 . S
C210 O227 1.260 . S
Eu211 C210 2.835 . S
Eu211 O223 2.355 . S
Eu211 O225 2.374 . S
Eu211 O226 2.473 . S
Eu211 O227 2.480 . S
Eu211 O228 2.430 . S
Eu211 O229 2.670 . S
Eu211 O230 2.394 . S
C212 C210 1.500 . S
C212 C213 1.377 . S
C212 C217 1.377 . S
C213 C212 1.377 . S
C213 C214 1.395 . S
C213 H236 0.931 . S
C214 C213 1.395 . S
C214 C215 1.383 . S
C214 H237 0.931 . S
C215 C214 1.383 . S
C215 C216 1.394 . S
C216 C215 1.394 . S
C216 C217 1.378 . S
C216 H238 0.931 . S
C217 C212 1.377 . S
C217 C216 1.378 . S
C217 H239 0.931 . S
C218 O228 1.259 . S
C218 O229 1.270 . S
C219 O230 1.251 . S
C219 O231 1.251 . S
O220 C200 1.257 . S
O220 Eu201 2.473 . S
O221 C200 1.260 . S
O221 Eu201 2.480 . S
O222 Eu201 2.430 . S
O222 C208 1.259 . S
O223 Eu201 2.670 . S
O223 C208 1.270 . S
O223 Eu211 2.355 . S
O224 Eu201 2.394 . S
O224 C209 1.251 . S
O225 C209 1.251 . S
O225 Eu211 2.374 . S
O226 C210 1.257 . S
O226 Eu211 2.473 . S
O227 C210 1.260 . S
O227 Eu211 2.480 . S
O228 Eu211 2.430 . S
O228 C218 1.259 . S
O229 Eu201 2.355 . S
O229 Eu211 2.670 . S
O229 C218 1.270 . S
O230 Eu211 2.394 . S
O230 C219 1.251 . S
O231 Eu201 2.374 . S
O231 C219 1.251 . S
H232 C203 0.931 . S
H233 C204 0.931 . S
H234 C206 0.931 . S
H235 C207 0.931 . S
H236 C213 0.931 . S
H237 C214 0.931 . S
H238 C216 0.931 . S
H239 C217 0.931 . S
C240 Eu241 2.835 . S
C240 C242 1.500 . S
C240 O260 1.257 . S
C240 O261 1.260 . S
Eu241 C240 2.835 . S
Eu241 O260 2.473 . S
Eu241 O261 2.480 . S
Eu241 O262 2.430 . S
Eu241 O263 2.670 . S
Eu241 O264 2.394 . S
Eu241 O269 2.355 . S
Eu241 O271 2.374 . S
C242 C240 1.500 . S
C242 C243 1.377 . S
C242 C247 1.377 . S
C243 C242 1.377 . S
C243 C244 1.395 . S
C243 H272 0.931 . S
C244 C243 1.395 . S
C244 C245 1.383 . S
C244 H273 0.931 . S
C245 C244 1.383 . S
C245 C246 1.394 . S
C246 C245 1.394 . S
C246 C247 1.378 . S
C246 H274 0.931 . S
C247 C242 1.377 . S
C247 C246 1.378 . S
C247 H275 0.931 . S
C248 O262 1.259 . S
C248 O263 1.270 . S
C249 O264 1.251 . S
C249 O265 1.251 . S
C250 Eu251 2.835 . S
C250 C252 1.500 . S
C250 O266 1.257 . S
C250 O267 1.260 . S
Eu251 C250 2.835 . S
Eu251 O263 2.355 . S
Eu251 O265 2.374 . S
Eu251 O266 2.473 . S
Eu251 O267 2.480 . S
Eu251 O268 2.430 . S
Eu251 O269 2.670 . S
Eu251 O270 2.394 . S
C252 C250 1.500 . S
C252 C253 1.377 . S
C252 C257 1.377 . S
C253 C252 1.377 . S
C253 C254 1.395 . S
C253 H276 0.931 . S
C254 C253 1.395 . S
C254 C255 1.383 . S
C254 H277 0.931 . S
C255 C254 1.383 . S
C255 C256 1.394 . S
C256 C255 1.394 . S
C256 C257 1.378 . S
C256 H278 0.931 . S
C257 C252 1.377 . S
C257 C256 1.378 . S
C257 H279 0.931 . S
C258 O268 1.259 . S
C258 O269 1.270 . S
C259 O270 1.251 . S
C259 O271 1.251 . S
O260 C240 1.257 . S
O260 Eu241 2.473 . S
O261 C240 1.260 . S
O261 Eu241 2.480 . S
O262 Eu241 2.430 . S
O262 C248 1.259 . S
O263 Eu241 2.670 . S
O263 C248 1.270 . S
O263 Eu251 2.355 . S
O264 Eu241 2.394 . S
O264 C249 1.251 . S
O265 C249 1.251 . S
O265 Eu251 2.374 . S
O266 C250 1.257 . S
O266 Eu251 2.473 . S
O267 C250 1.260 . S
O267 Eu251 2.480 . S
O268 Eu251 2.430 . S
O268 C258 1.259 . S
O269 Eu241 2.355 . S
O269 Eu251 2.670 . S
O269 C258 1.270 . S
O270 Eu251 2.394 . S
O270 C259 1.251 . S
O271 Eu241 2.374 . S
O271 C259 1.251 . S
H272 C243 0.931 . S
H273 C244 0.931 . S
H274 C246 0.931 . S
H275 C247 0.931 . S
H276 C253 0.931 . S
H277 C254 0.931 . S
H278 C256 0.931 . S
H279 C257 0.931 . S
C280 Eu281 2.835 . S
C280 C282 1.500 . S
C280 O300 1.257 . S
C280 O301 1.260 . S
Eu281 C280 2.835 . S
Eu281 O300 2.473 . S
Eu281 O301 2.480 . S
Eu281 O302 2.430 . S
Eu281 O303 2.670 . S
Eu281 O304 2.394 . S
Eu281 O309 2.355 . S
Eu281 O311 2.374 . S
C282 C280 1.500 . S
C282 C283 1.377 . S
C282 C287 1.377 . S
C283 C282 1.377 . S
C283 C284 1.395 . S
C283 H312 0.931 . S
C284 C283 1.395 . S
C284 C285 1.383 . S
C284 H313 0.931 1_455 S
C285 C284 1.383 . S
C285 C286 1.394 . S
C286 C285 1.394 . S
C286 C287 1.378 . S
C286 H314 0.931 . S
C287 C282 1.377 . S
C287 C286 1.378 . S
C287 H315 0.931 . S
C288 O302 1.259 . S
C288 O303 1.270 . S
C289 O304 1.251 . S
C289 O305 1.251 . S
C290 Eu291 2.835 . S
C290 C292 1.500 . S
C290 O306 1.257 . S
C290 O307 1.260 . S
Eu291 C290 2.835 . S
Eu291 O303 2.355 . S
Eu291 O305 2.374 . S
Eu291 O306 2.473 . S
Eu291 O307 2.480 . S
Eu291 O308 2.430 . S
Eu291 O309 2.670 . S
Eu291 O310 2.394 . S
C292 C290 1.500 . S
C292 C293 1.377 . S
C292 C297 1.377 . S
C293 C292 1.377 . S
C293 C294 1.395 . S
C293 H316 0.931 . S
C294 C293 1.395 . S
C294 C295 1.383 . S
C294 H317 0.931 . S
C295 C294 1.383 . S
C295 C296 1.394 . S
C296 C295 1.394 . S
C296 C297 1.378 . S
C296 H318 0.931 . S
C297 C292 1.377 . S
C297 C296 1.378 . S
C297 H319 0.931 . S
C298 O308 1.259 . S
C298 O309 1.270 . S
C299 O310 1.251 . S
C299 O311 1.251 . S
O300 C280 1.257 . S
O300 Eu281 2.473 . S
O301 C280 1.260 . S
O301 Eu281 2.480 . S
O302 Eu281 2.430 . S
O302 C288 1.259 . S
O303 Eu281 2.670 . S
O303 C288 1.270 . S
O303 Eu291 2.355 . S
O304 Eu281 2.394 . S
O304 C289 1.251 . S
O305 C289 1.251 . S
O305 Eu291 2.374 . S
O306 C290 1.257 . S
O306 Eu291 2.473 . S
O307 C290 1.260 . S
O307 Eu291 2.480 . S
O308 Eu291 2.430 . S
O308 C298 1.259 . S
O309 Eu281 2.355 . S
O309 Eu291 2.670 . S
O309 C298 1.270 . S
O310 Eu291 2.394 . S
O310 C299 1.251 . S
O311 Eu281 2.374 . S
O311 C299 1.251 . S
H312 C283 0.931 . S
H313 C284 0.931 1_655 S
H314 C286 0.931 . S
H315 C287 0.931 . S
H316 C293 0.931 . S
H317 C294 0.931 . S
H318 C296 0.931 . S
H319 C297 0.931 . S
C320 Eu321 2.835 . S
C320 C322 1.500 . S
C320 O340 1.257 . S
C320 O341 1.260 . S
Eu321 C320 2.835 . S
Eu321 O340 2.473 . S
Eu321 O341 2.480 . S
Eu321 O342 2.430 . S
Eu321 O343 2.670 . S
Eu321 O344 2.394 . S
Eu321 O349 2.355 . S
Eu321 O351 2.374 . S
C322 C320 1.500 . S
C322 C323 1.377 . S
C322 C327 1.377 . S
C323 C322 1.377 . S
C323 C324 1.395 . S
C323 H352 0.931 . S
C324 C323 1.395 . S
C324 C325 1.383 . S
C324 H353 0.931 . S
C325 C324 1.383 . S
C325 C326 1.394 . S
C326 C325 1.394 . S
C326 C327 1.378 . S
C326 H354 0.931 . S
C327 C322 1.377 . S
C327 C326 1.378 . S
C327 H355 0.931 . S
C328 O342 1.259 . S
C328 O343 1.270 . S
C329 O344 1.251 . S
C329 O345 1.251 . S
C330 Eu331 2.835 . S
C330 C332 1.500 . S
C330 O346 1.257 . S
C330 O347 1.260 . S
Eu331 C330 2.835 . S
Eu331 O343 2.355 . S
Eu331 O345 2.374 . S
Eu331 O346 2.473 . S
Eu331 O347 2.480 . S
Eu331 O348 2.430 . S
Eu331 O349 2.670 . S
Eu331 O350 2.394 . S
C332 C330 1.500 . S
C332 C333 1.377 . S
C332 C337 1.377 . S
C333 C332 1.377 . S
C333 C334 1.395 . S
C333 H356 0.931 . S
C334 C333 1.395 . S
C334 C335 1.383 . S
C334 H357 0.931 . S
C335 C334 1.383 . S
C335 C336 1.394 . S
C336 C335 1.394 . S
C336 C337 1.378 . S
C336 H358 0.931 . S
C337 C332 1.377 . S
C337 C336 1.378 . S
C337 H359 0.931 . S
C338 O348 1.259 . S
C338 O349 1.270 . S
C339 O350 1.251 . S
C339 O351 1.251 . S
O340 C320 1.257 . S
O340 Eu321 2.473 . S
O341 C320 1.260 . S
O341 Eu321 2.480 . S
O342 Eu321 2.430 . S
O342 C328 1.259 . S
O343 Eu321 2.670 . S
O343 C328 1.270 . S
O343 Eu331 2.355 . S
O344 Eu321 2.394 . S
O344 C329 1.251 . S
O345 C329 1.251 . S
O345 Eu331 2.374 . S
O346 C330 1.257 . S
O346 Eu331 2.473 . S
O347 C330 1.260 . S
O347 Eu331 2.480 . S
O348 Eu331 2.430 . S
O348 C338 1.259 . S
O349 Eu321 2.355 . S
O349 Eu331 2.670 . S
O349 C338 1.270 . S
O350 Eu331 2.394 . S
O350 C339 1.251 . S
O351 Eu321 2.374 . S
O351 C339 1.251 . S
H352 C323 0.931 . S
H353 C324 0.931 . S
H354 C326 0.931 . S
H355 C327 0.931 . S
H356 C333 0.931 . S
H357 C334 0.931 . S
H358 C336 0.931 . S
H359 C337 0.931 . S
C360 Eu361 2.835 . S
C360 C362 1.500 . S
C360 O380 1.257 . S
C360 O381 1.260 . S
Eu361 C360 2.835 . S
Eu361 O380 2.473 . S
Eu361 O381 2.480 . S
Eu361 O382 2.430 . S
Eu361 O383 2.670 . S
Eu361 O384 2.394 . S
Eu361 O389 2.355 . S
Eu361 O391 2.374 . S
C362 C360 1.500 . S
C362 C363 1.377 . S
C362 C367 1.377 1_545 S
C363 C362 1.377 . S
C363 C364 1.395 . S
C363 H392 0.931 . S
C364 C363 1.395 . S
C364 C365 1.383 1_545 S
C364 H393 0.931 . S
C365 C364 1.383 1_565 S
C365 C366 1.394 . S
C366 C365 1.394 . S
C366 C367 1.378 . S
C366 H394 0.931 . S
C367 C362 1.377 1_565 S
C367 C366 1.378 . S
C367 H395 0.931 . S
C368 O382 1.259 . S
C368 O383 1.270 . S
C369 O384 1.251 1_565 S
C369 O385 1.251 . S
C370 Eu371 2.835 . S
C370 C372 1.500 . S
C370 O386 1.257 . S
C370 O387 1.260 . S
Eu371 C370 2.835 . S
Eu371 O383 2.355 . S
Eu371 O385 2.374 1_545 S
Eu371 O386 2.473 . S
Eu371 O387 2.480 . S
Eu371 O388 2.426 1_545 S
Eu371 O389 2.670 . S
Eu371 O390 2.394 . S
C372 C370 1.500 . S
C372 C373 1.377 . S
C372 C377 1.377 . S
C373 C372 1.377 . S
C373 C374 1.395 . S
C373 H396 0.931 . S
C374 C373 1.395 . S
C374 C375 1.383 . S
C374 H397 0.931 1_455 S
C375 C374 1.383 . S
C375 C376 1.394 . S
C376 C375 1.394 . S
C376 C377 1.378 . S
C376 H398 0.931 . S
C377 C372 1.377 . S
C377 C376 1.378 . S
C377 H399 0.931 . S
C378 O388 1.255 1_545 S
C378 O389 1.270 . S
C379 O390 1.251 . S
C379 O391 1.251 . S
O380 C360 1.257 . S
O380 Eu361 2.473 . S
O381 C360 1.260 . S
O381 Eu361 2.480 . S
O382 Eu361 2.430 . S
O382 C368 1.259 . S
O383 Eu361 2.670 . S
O383 C368 1.270 . S
O383 Eu371 2.355 . S
O384 Eu361 2.394 . S
O384 C369 1.251 1_545 S
O385 C369 1.251 . S
O385 Eu371 2.374 1_565 S
O386 C370 1.257 . S
O386 Eu371 2.473 . S
O387 C370 1.260 . S
O387 Eu371 2.480 . S
O388 Eu371 2.426 1_565 S
O388 C378 1.255 1_565 S
O389 Eu361 2.355 . S
O389 Eu371 2.670 . S
O389 C378 1.270 . S
O390 Eu371 2.394 . S
O390 C379 1.251 . S
O391 Eu361 2.374 . S
O391 C379 1.251 . S
H392 C363 0.931 . S
H393 C364 0.931 . S
H394 C366 0.931 . S
H395 C367 0.931 . S
H396 C373 0.931 . S
H397 C374 0.931 1_655 S
H398 C376 0.931 . S
H399 C377 0.931 . S
C400 Eu401 2.835 . S
C400 C402 1.500 . S
C400 O420 1.257 . S
C400 O421 1.260 . S
Eu401 C400 2.835 . S
Eu401 O420 2.473 . S
Eu401 O421 2.480 . S
Eu401 O422 2.430 . S
Eu401 O423 2.670 . S
Eu401 O424 2.394 . S
Eu401 O429 2.355 . S
Eu401 O431 2.374 . S
C402 C400 1.500 . S
C402 C403 1.377 . S
C402 C407 1.377 . S
C403 C402 1.377 . S
C403 C404 1.395 . S
C403 H432 0.931 . S
C404 C403 1.395 . S
C404 C405 1.383 . S
C404 H433 0.931 . S
C405 C404 1.383 . S
C405 C406 1.394 . S
C406 C405 1.394 . S
C406 C407 1.378 . S
C406 H434 0.931 . S
C407 C402 1.377 . S
C407 C406 1.378 . S
C407 H435 0.931 . S
C408 O422 1.259 . S
C408 O423 1.270 . S
C409 O424 1.251 . S
C409 O425 1.251 . S
C410 Eu411 2.835 . S
C410 C412 1.500 . S
C410 O426 1.257 . S
C410 O427 1.260 . S
Eu411 C410 2.835 . S
Eu411 O423 2.355 . S
Eu411 O425 2.374 . S
Eu411 O426 2.473 . S
Eu411 O427 2.480 . S
Eu411 O428 2.430 . S
Eu411 O429 2.670 . S
Eu411 O430 2.394 . S
C412 C410 1.500 . S
C412 C413 1.377 . S
C412 C417 1.377 . S
C413 C412 1.377 . S
C413 C414 1.395 . S
C413 H436 0.931 . S
C414 C413 1.395 . S
C414 C415 1.383 . S
C414 H437 0.931 . S
C415 C414 1.383 . S
C415 C416 1.394 . S
C416 C415 1.394 . S
C416 C417 1.378 . S
C416 H438 0.931 . S
C417 C412 1.377 . S
C417 C416 1.378 . S
C417 H439 0.931 . S
C418 O428 1.259 . S
C418 O429 1.270 . S
C419 O430 1.251 . S
C419 O431 1.251 . S
O420 C400 1.257 . S
O420 Eu401 2.473 . S
O421 C400 1.260 . S
O421 Eu401 2.480 . S
O422 Eu401 2.430 . S
O422 C408 1.259 . S
O423 Eu401 2.670 . S
O423 C408 1.270 . S
O423 Eu411 2.355 . S
O424 Eu401 2.394 . S
O424 C409 1.251 . S
O425 C409 1.251 . S
O425 Eu411 2.374 . S
O426 C410 1.257 . S
O426 Eu411 2.473 . S
O427 C410 1.260 . S
O427 Eu411 2.480 . S
O428 Eu411 2.430 . S
O428 C418 1.259 . S
O429 Eu401 2.355 . S
O429 Eu411 2.670 . S
O429 C418 1.270 . S
O430 Eu411 2.394 . S
O430 C419 1.251 . S
O431 Eu401 2.374 . S
O431 C419 1.251 . S
H432 C403 0.931 . S
H433 C404 0.931 . S
H434 C406 0.931 . S
H435 C407 0.931 . S
H436 C413 0.931 . S
H437 C414 0.931 . S
H438 C416 0.931 . S
H439 C417 0.931 . S
C440 Eu441 2.835 . S
C440 C442 1.500 . S
C440 O460 1.257 . S
C440 O461 1.260 . S
Eu441 C440 2.835 . S
Eu441 O460 2.473 . S
Eu441 O461 2.480 . S
Eu441 O462 2.430 . S
Eu441 O463 2.670 . S
Eu441 O464 2.394 . S
Eu441 O469 2.355 . S
Eu441 O471 2.374 . S
C442 C440 1.500 . S
C442 C443 1.377 . S
C442 C447 1.377 1_565 S
C443 C442 1.377 . S
C443 C444 1.395 . S
C443 H472 0.931 . S
C444 C443 1.395 . S
C444 C445 1.383 1_565 S
C444 H473 0.931 . S
C445 C444 1.383 1_545 S
C445 C446 1.394 . S
C446 C445 1.394 . S
C446 C447 1.378 . S
C446 H474 0.931 . S
C447 C442 1.377 1_545 S
C447 C446 1.378 . S
C447 H475 0.931 . S
C448 O462 1.259 . S
C448 O463 1.270 . S
C449 O464 1.251 1_545 S
C449 O465 1.251 . S
C450 Eu451 2.835 . S
C450 C452 1.500 . S
C450 O466 1.257 . S
C450 O467 1.260 . S
Eu451 C450 2.835 . S
Eu451 O463 2.355 . S
Eu451 O465 2.374 1_565 S
Eu451 O466 2.473 . S
Eu451 O467 2.480 . S
Eu451 O468 2.426 1_565 S
Eu451 O469 2.670 . S
Eu451 O470 2.394 . S
C452 C450 1.500 . S
C452 C453 1.377 . S
C452 C457 1.377 . S
C453 C452 1.377 . S
C453 C454 1.395 . S
C453 H476 0.931 . S
C454 C453 1.395 . S
C454 C455 1.383 . S
C454 H477 0.931 . S
C455 C454 1.383 . S
C455 C456 1.394 . S
C456 C455 1.394 . S
C456 C457 1.378 . S
C456 H478 0.931 . S
C457 C452 1.377 . S
C457 C456 1.378 . S
C457 H479 0.931 . S
C458 O468 1.255 1_565 S
C458 O469 1.270 . S
C459 O470 1.251 . S
C459 O471 1.251 . S
O460 C440 1.257 . S
O460 Eu441 2.473 . S
O461 C440 1.260 . S
O461 Eu441 2.480 . S
O462 Eu441 2.430 . S
O462 C448 1.259 . S
O463 Eu441 2.670 . S
O463 C448 1.270 . S
O463 Eu451 2.355 . S
O464 Eu441 2.394 . S
O464 C449 1.251 1_565 S
O465 C449 1.251 . S
O465 Eu451 2.374 1_545 S
O466 C450 1.257 . S
O466 Eu451 2.473 . S
O467 C450 1.260 . S
O467 Eu451 2.480 . S
O468 Eu451 2.426 1_545 S
O468 C458 1.255 1_545 S
O469 Eu441 2.355 . S
O469 Eu451 2.670 . S
O469 C458 1.270 . S
O470 Eu451 2.394 . S
O470 C459 1.251 . S
O471 Eu441 2.374 . S
O471 C459 1.251 . S
H472 C443 0.931 . S
H473 C444 0.931 . S
H474 C446 0.931 . S
H475 C447 0.931 . S
H476 C453 0.931 . S
H477 C454 0.931 . S
H478 C456 0.931 . S
H479 C457 0.931 . S
C480 Eu481 2.835 . S
C480 C482 1.500 . S
C480 O500 1.257 . S
C480 O501 1.260 . S
Eu481 C480 2.835 . S
Eu481 O500 2.473 . S
Eu481 O501 2.480 . S
Eu481 O502 2.430 . S
Eu481 O503 2.670 . S
Eu481 O504 2.394 . S
Eu481 O509 2.355 . S
Eu481 O511 2.374 . S
C482 C480 1.500 . S
C482 C483 1.377 . S
C482 C487 1.377 . S
C483 C482 1.377 . S
C483 C484 1.395 . S
C483 H512 0.931 . S
C484 C483 1.395 . S
C484 C485 1.383 . S
C484 H513 0.931 . S
C485 C484 1.383 . S
C485 C486 1.394 . S
C486 C485 1.394 . S
C486 C487 1.378 . S
C486 H514 0.931 . S
C487 C482 1.377 . S
C487 C486 1.378 . S
C487 H515 0.931 . S
C488 O502 1.259 . S
C488 O503 1.270 . S
C489 O504 1.251 . S
C489 O505 1.251 . S
C490 Eu491 2.835 . S
C490 C492 1.500 . S
C490 O506 1.257 . S
C490 O507 1.260 . S
Eu491 C490 2.835 . S
Eu491 O503 2.355 . S
Eu491 O505 2.374 . S
Eu491 O506 2.473 . S
Eu491 O507 2.480 . S
Eu491 O508 2.430 . S
Eu491 O509 2.670 . S
Eu491 O510 2.394 . S
C492 C490 1.500 . S
C492 C493 1.377 . S
C492 C497 1.377 . S
C493 C492 1.377 . S
C493 C494 1.395 . S
C493 H516 0.931 . S
C494 C493 1.395 . S
C494 C495 1.383 . S
C494 H517 0.931 . S
C495 C494 1.383 . S
C495 C496 1.394 . S
C496 C495 1.394 . S
C496 C497 1.378 . S
C496 H518 0.931 . S
C497 C492 1.377 . S
C497 C496 1.378 . S
C497 H519 0.931 . S
C498 O508 1.259 . S
C498 O509 1.270 . S
C499 O510 1.251 . S
C499 O511 1.251 . S
O500 C480 1.257 . S
O500 Eu481 2.473 . S
O501 C480 1.260 . S
O501 Eu481 2.480 . S
O502 Eu481 2.430 . S
O502 C488 1.259 . S
O503 Eu481 2.670 . S
O503 C488 1.270 . S
O503 Eu491 2.355 . S
O504 Eu481 2.394 . S
O504 C489 1.251 . S
O505 C489 1.251 . S
O505 Eu491 2.374 . S
O506 C490 1.257 . S
O506 Eu491 2.473 . S
O507 C490 1.260 . S
O507 Eu491 2.480 . S
O508 Eu491 2.430 . S
O508 C498 1.259 . S
O509 Eu481 2.355 . S
O509 Eu491 2.670 . S
O509 C498 1.270 . S
O510 Eu491 2.394 . S
O510 C499 1.251 . S
O511 Eu481 2.374 . S
O511 C499 1.251 . S
H512 C483 0.931 . S
H513 C484 0.931 . S
H514 C486 0.931 . S
H515 C487 0.931 . S
H516 C493 0.931 . S
H517 C494 0.931 . S
H518 C496 0.931 . S
H519 C497 0.931 . S
C520 Eu521 2.835 . S
C520 C522 1.500 . S
C520 O540 1.257 . S
C520 O541 1.260 . S
Eu521 C520 2.835 . S
Eu521 O540 2.473 . S
Eu521 O541 2.480 . S
Eu521 O542 2.426 1_565 S
Eu521 O543 2.670 . S
Eu521 O544 2.394 . S
Eu521 O549 2.355 . S
Eu521 O551 2.374 1_565 S
C522 C520 1.500 . S
C522 C523 1.377 . S
C522 C527 1.377 . S
C523 C522 1.377 . S
C523 C524 1.395 . S
C523 H552 0.931 . S
C524 C523 1.395 . S
C524 C525 1.383 . S
C524 H553 0.931 1_655 S
C525 C524 1.383 . S
C525 C526 1.394 . S
C526 C525 1.394 . S
C526 C527 1.378 . S
C526 H554 0.931 . S
C527 C522 1.377 . S
C527 C526 1.378 . S
C527 H555 0.931 . S
C528 O542 1.255 1_565 S
C528 O543 1.270 . S
C529 O544 1.251 . S
C529 O545 1.251 . S
C530 Eu531 2.835 . S
C530 C532 1.500 . S
C530 O546 1.257 . S
C530 O547 1.260 . S
Eu531 C530 2.835 . S
Eu531 O543 2.355 . S
Eu531 O545 2.374 . S
Eu531 O546 2.473 . S
Eu531 O547 2.480 . S
Eu531 O548 2.430 . S
Eu531 O549 2.670 . S
Eu531 O550 2.394 . S
C532 C530 1.500 . S
C532 C533 1.377 . S
C532 C537 1.377 1_565 S
C533 C532 1.377 . S
C533 C534 1.395 . S
C533 H556 0.931 . S
C534 C533 1.395 . S
C534 C535 1.383 1_565 S
C534 H557 0.931 . S
C535 C534 1.383 1_545 S
C535 C536 1.394 . S
C536 C535 1.394 . S
C536 C537 1.378 . S
C536 H558 0.931 . S
C537 C532 1.377 1_545 S
C537 C536 1.378 . S
C537 H559 0.931 . S
C538 O548 1.259 . S
C538 O549 1.270 . S
C539 O550 1.251 1_545 S
C539 O551 1.251 . S
O540 C520 1.257 . S
O540 Eu521 2.473 . S
O541 C520 1.260 . S
O541 Eu521 2.480 . S
O542 Eu521 2.426 1_545 S
O542 C528 1.255 1_545 S
O543 Eu521 2.670 . S
O543 C528 1.270 . S
O543 Eu531 2.355 . S
O544 Eu521 2.394 . S
O544 C529 1.251 . S
O545 C529 1.251 . S
O545 Eu531 2.374 . S
O546 C530 1.257 . S
O546 Eu531 2.473 . S
O547 C530 1.260 . S
O547 Eu531 2.480 . S
O548 Eu531 2.430 . S
O548 C538 1.259 . S
O549 Eu521 2.355 . S
O549 Eu531 2.670 . S
O549 C538 1.270 . S
O550 Eu531 2.394 . S
O550 C539 1.251 1_565 S
O551 Eu521 2.374 1_545 S
O551 C539 1.251 . S
H552 C523 0.931 . S
H553 C524 0.931 1_455 S
H554 C526 0.931 . S
H555 C527 0.931 . S
H556 C533 0.931 . S
H557 C534 0.931 . S
H558 C536 0.931 . S
H559 C537 0.931 . S
C560 Eu561 2.835 . S
C560 C562 1.500 . S
C560 O580 1.257 . S
C560 O581 1.260 . S
Eu561 C560 2.835 . S
Eu561 O580 2.473 . S
Eu561 O581 2.480 . S
Eu561 O582 2.430 . S
Eu561 O583 2.670 . S
Eu561 O584 2.394 . S
Eu561 O589 2.355 . S
Eu561 O591 2.374 . S
C562 C560 1.500 . S
C562 C563 1.377 . S
C562 C567 1.377 . S
C563 C562 1.377 . S
C563 C564 1.395 . S
C563 H592 0.931 . S
C564 C563 1.395 . S
C564 C565 1.383 . S
C564 H593 0.931 . S
C565 C564 1.383 . S
C565 C566 1.394 . S
C566 C565 1.394 . S
C566 C567 1.378 . S
C566 H594 0.931 . S
C567 C562 1.377 . S
C567 C566 1.378 . S
C567 H595 0.931 . S
C568 O582 1.259 . S
C568 O583 1.270 . S
C569 O584 1.251 . S
C569 O585 1.251 . S
C570 Eu571 2.835 . S
C570 C572 1.500 . S
C570 O586 1.257 . S
C570 O587 1.260 . S
Eu571 C570 2.835 . S
Eu571 O583 2.355 . S
Eu571 O585 2.374 . S
Eu571 O586 2.473 . S
Eu571 O587 2.480 . S
Eu571 O588 2.430 . S
Eu571 O589 2.670 . S
Eu571 O590 2.394 . S
C572 C570 1.500 . S
C572 C573 1.377 . S
C572 C577 1.377 . S
C573 C572 1.377 . S
C573 C574 1.395 . S
C573 H596 0.931 . S
C574 C573 1.395 . S
C574 C575 1.383 . S
C574 H597 0.931 . S
C575 C574 1.383 . S
C575 C576 1.394 . S
C576 C575 1.394 . S
C576 C577 1.378 . S
C576 H598 0.931 . S
C577 C572 1.377 . S
C577 C576 1.378 . S
C577 H599 0.931 . S
C578 O588 1.259 . S
C578 O589 1.270 . S
C579 O590 1.251 . S
C579 O591 1.251 . S
O580 C560 1.257 . S
O580 Eu561 2.473 . S
O581 C560 1.260 . S
O581 Eu561 2.480 . S
O582 Eu561 2.430 . S
O582 C568 1.259 . S
O583 Eu561 2.670 . S
O583 C568 1.270 . S
O583 Eu571 2.355 . S
O584 Eu561 2.394 . S
O584 C569 1.251 . S
O585 C569 1.251 . S
O585 Eu571 2.374 . S
O586 C570 1.257 . S
O586 Eu571 2.473 . S
O587 C570 1.260 . S
O587 Eu571 2.480 . S
O588 Eu571 2.430 . S
O588 C578 1.259 . S
O589 Eu561 2.355 . S
O589 Eu571 2.670 . S
O589 C578 1.270 . S
O590 Eu571 2.394 . S
O590 C579 1.251 . S
O591 Eu561 2.374 . S
O591 C579 1.251 . S
H592 C563 0.931 . S
H593 C564 0.931 . S
H594 C566 0.931 . S
H595 C567 0.931 . S
H596 C573 0.931 . S
H597 C574 0.931 . S
H598 C576 0.931 . S
H599 C577 0.931 . S
C600 Eu601 2.835 . S
C600 C602 1.500 . S
C600 O620 1.257 . S
C600 O621 1.260 . S
Eu601 C600 2.835 . S
Eu601 O620 2.473 . S
Eu601 O621 2.480 . S
Eu601 O622 2.426 1_545 S
Eu601 O623 2.670 . S
Eu601 O624 2.394 . S
Eu601 O629 2.355 . S
Eu601 O631 2.374 1_545 S
C602 C600 1.500 . S
C602 C603 1.377 . S
C602 C607 1.377 . S
C603 C602 1.377 . S
C603 C604 1.395 . S
C603 H632 0.931 . S
C604 C603 1.395 . S
C604 C605 1.383 . S
C604 H633 0.931 . S
C605 C604 1.383 . S
C605 C606 1.394 . S
C606 C605 1.394 . S
C606 C607 1.378 . S
C606 H634 0.931 . S
C607 C602 1.377 . S
C607 C606 1.378 . S
C607 H635 0.931 . S
C608 O622 1.255 1_545 S
C608 O623 1.270 . S
C609 O624 1.251 . S
C609 O625 1.251 . S
C610 Eu611 2.835 . S
C610 C612 1.500 . S
C610 O626 1.257 . S
C610 O627 1.260 . S
Eu611 C610 2.835 . S
Eu611 O623 2.355 . S
Eu611 O625 2.374 . S
Eu611 O626 2.473 . S
Eu611 O627 2.480 . S
Eu611 O628 2.430 . S
Eu611 O629 2.670 . S
Eu611 O630 2.394 . S
C612 C610 1.500 . S
C612 C613 1.377 . S
C612 C617 1.377 1_545 S
C613 C612 1.377 . S
C613 C614 1.395 . S
C613 H636 0.931 . S
C614 C613 1.395 . S
C614 C615 1.383 1_545 S
C614 H637 0.931 . S
C615 C614 1.383 1_565 S
C615 C616 1.394 . S
C616 C615 1.394 . S
C616 C617 1.378 . S
C616 H638 0.931 . S
C617 C612 1.377 1_565 S
C617 C616 1.378 . S
C617 H639 0.931 . S
C618 O628 1.259 . S
C618 O629 1.270 . S
C619 O630 1.251 1_565 S
C619 O631 1.251 . S
O620 C600 1.257 . S
O620 Eu601 2.473 . S
O621 C600 1.260 . S
O621 Eu601 2.480 . S
O622 Eu601 2.426 1_565 S
O622 C608 1.255 1_565 S
O623 Eu601 2.670 . S
O623 C608 1.270 . S
O623 Eu611 2.355 . S
O624 Eu601 2.394 . S
O624 C609 1.251 . S
O625 C609 1.251 . S
O625 Eu611 2.374 . S
O626 C610 1.257 . S
O626 Eu611 2.473 . S
O627 C610 1.260 . S
O627 Eu611 2.480 . S
O628 Eu611 2.430 . S
O628 C618 1.259 . S
O629 Eu601 2.355 . S
O629 Eu611 2.670 . S
O629 C618 1.270 . S
O630 Eu611 2.394 . S
O630 C619 1.251 1_545 S
O631 Eu601 2.374 1_565 S
O631 C619 1.251 . S
H632 C603 0.931 . S
H633 C604 0.931 . S
H634 C606 0.931 . S
H635 C607 0.931 . S
H636 C613 0.931 . S
H637 C614 0.931 . S
H638 C616 0.931 . S
H639 C617 0.931 . S
H640 C648 0.929 . S
H641 C650 0.930 . S
H642 C652 0.930 . S
H643 C655 0.929 . S
H644 C658 0.930 . S
H645 C660 0.960 . S
H646 C660 0.960 . S
H647 C660 0.960 . S
C648 H640 0.929 . S
C648 C649 1.377 . S
C648 C650 1.384 . S
C649 C648 1.377 . S
C649 C655 1.390 . S
C650 H641 0.930 . S
C650 C648 1.384 . S
C650 C651 1.372 . S
C651 C650 1.372 . S
C651 C652 1.400 . S
C651 C656 1.490 . S
C652 H642 0.930 . S
C652 C651 1.400 . S
C652 C655 1.386 . S
H653 C669 0.930 . S
H654 C670 0.931 . S
C655 H643 0.929 . S
C655 C649 1.390 . S
C655 C652 1.386 . S
C656 C651 1.490 . S
C656 C658 1.395 . S
C656 C659 1.403 . S
H657 C663 0.930 . S
C658 H644 0.930 . S
C658 C656 1.395 . S
C658 C661 1.403 . S
C659 C656 1.403 . S
C659 C660 1.524 . S
C659 C663 1.400 . S
C660 H645 0.960 . S
C660 H646 0.960 . S
C660 H647 0.960 . S
C660 C659 1.524 . S
C661 C658 1.403 . S
C661 C662 1.392 . S
C661 C665 1.495 . S
C662 C661 1.392 . S
C662 C663 1.385 . S
C662 C664 1.478 . S
C663 H657 0.930 . S
C663 C659 1.400 . S
C663 C662 1.385 . S
C664 C662 1.478 . S
C664 C666 1.381 . S
C664 C670 1.383 . S
C665 C661 1.495 . S
C665 H671 0.959 . S
C665 H672 0.961 . S
C665 H673 0.960 . S
C666 C664 1.381 . S
C666 C667 1.394 . S
C666 H674 0.930 . S
C667 C666 1.394 . S
C667 C668 1.383 . S
C667 H675 0.929 . S
C668 C667 1.383 . S
C668 C669 1.377 . S
C669 H653 0.930 . S
C669 C668 1.377 . S
C669 C670 1.379 . S
C670 H654 0.931 . S
C670 C664 1.383 . S
C670 C669 1.379 . S
H671 C665 0.959 . S
H672 C665 0.961 . S
H673 C665 0.960 . S
H674 C666 0.930 . S
H675 C667 0.929 . S
H676 C684 0.929 . S
H677 C686 0.930 . S
H678 C688 0.930 . S
H679 C691 0.929 . S
H680 C694 0.930 . S
H681 C696 0.960 . S
H682 C696 0.960 . S
H683 C696 0.960 . S
C684 H676 0.929 . S
C684 C685 1.377 . S
C684 C686 1.384 . S
C685 C684 1.377 . S
C685 C691 1.390 . S
C686 H677 0.930 . S
C686 C684 1.384 . S
C686 C687 1.372 . S
C687 C686 1.372 . S
C687 C688 1.400 . S
C687 C692 1.490 . S
C688 H678 0.930 . S
C688 C687 1.400 . S
C688 C691 1.386 . S
H689 C705 0.930 . S
H690 C706 0.931 . S
C691 H679 0.929 . S
C691 C685 1.390 . S
C691 C688 1.386 . S
C692 C687 1.490 . S
C692 C694 1.395 . S
C692 C695 1.403 . S
H693 C699 0.930 . S
C694 H680 0.930 . S
C694 C692 1.395 . S
C694 C697 1.403 . S
C695 C692 1.403 . S
C695 C696 1.524 . S
C695 C699 1.400 . S
C696 H681 0.960 . S
C696 H682 0.960 . S
C696 H683 0.960 . S
C696 C695 1.524 . S
C697 C694 1.403 . S
C697 C698 1.392 . S
C697 C701 1.495 . S
C698 C697 1.392 . S
C698 C699 1.385 . S
C698 C700 1.478 . S
C699 H693 0.930 . S
C699 C695 1.400 . S
C699 C698 1.385 . S
C700 C698 1.478 . S
C700 C702 1.381 . S
C700 C706 1.383 . S
C701 C697 1.495 . S
C701 H707 0.959 . S
C701 H708 0.961 . S
C701 H709 0.960 . S
C702 C700 1.381 . S
C702 C703 1.394 . S
C702 H710 0.930 . S
C703 C702 1.394 . S
C703 C704 1.383 . S
C703 H711 0.929 . S
C704 C703 1.383 . S
C704 C705 1.377 . S
C705 H689 0.930 . S
C705 C704 1.377 . S
C705 C706 1.379 . S
C706 H690 0.931 . S
C706 C700 1.383 . S
C706 C705 1.379 . S
H707 C701 0.959 . S
H708 C701 0.961 . S
H709 C701 0.960 . S
H710 C702 0.930 . S
H711 C703 0.929 . S
H712 C720 0.929 . S
H713 C722 0.930 . S
H714 C724 0.930 . S
H715 C727 0.929 . S
H716 C730 0.930 . S
H717 C732 0.960 . S
H718 C732 0.960 . S
H719 C732 0.960 . S
C720 H712 0.929 . S
C720 C721 1.377 . S
C720 C722 1.384 . S
C721 C720 1.377 . S
C721 C727 1.390 . S
C722 H713 0.930 . S
C722 C720 1.384 . S
C722 C723 1.372 . S
C723 C722 1.372 . S
C723 C724 1.400 . S
C723 C728 1.490 . S
C724 H714 0.930 . S
C724 C723 1.400 . S
C724 C727 1.386 . S
H725 C741 0.930 . S
H726 C742 0.931 . S
C727 H715 0.929 . S
C727 C721 1.390 . S
C727 C724 1.386 . S
C728 C723 1.490 . S
C728 C730 1.395 . S
C728 C731 1.403 . S
H729 C735 0.930 . S
C730 H716 0.930 . S
C730 C728 1.395 . S
C730 C733 1.403 . S
C731 C728 1.403 . S
C731 C732 1.524 . S
C731 C735 1.400 . S
C732 H717 0.960 . S
C732 H718 0.960 . S
C732 H719 0.960 . S
C732 C731 1.524 . S
C733 C730 1.403 . S
C733 C734 1.392 . S
C733 C737 1.495 . S
C734 C733 1.392 . S
C734 C735 1.385 . S
C734 C736 1.478 . S
C735 H729 0.930 . S
C735 C731 1.400 . S
C735 C734 1.385 . S
C736 C734 1.478 . S
C736 C738 1.381 . S
C736 C742 1.383 . S
C737 C733 1.495 . S
C737 H743 0.959 . S
C737 H744 0.961 . S
C737 H745 0.960 . S
C738 C736 1.381 . S
C738 C739 1.394 . S
C738 H746 0.930 . S
C739 C738 1.394 . S
C739 C740 1.383 . S
C739 H747 0.929 . S
C740 C739 1.383 . S
C740 C741 1.377 . S
C741 H725 0.930 . S
C741 C740 1.377 . S
C741 C742 1.379 . S
C742 H726 0.931 . S
C742 C736 1.383 . S
C742 C741 1.379 . S
H743 C737 0.959 . S
H744 C737 0.961 . S
H745 C737 0.960 . S
H746 C738 0.930 . S
H747 C739 0.929 . S
H748 C756 0.929 1_455 S
H749 C758 0.930 . S
H750 C760 0.930 . S
H751 C763 0.929 . S
H752 C766 0.930 . S
H753 C768 0.960 . S
H754 C768 0.960 . S
H755 C768 0.960 1_556 S
C756 H748 0.929 1_655 S
C756 C757 1.377 . S
C756 C758 1.384 1_655 S
C757 C756 1.377 . S
C757 C763 1.390 . S
C758 H749 0.930 . S
C758 C756 1.384 1_455 S
C758 C759 1.372 1_455 S
C759 C758 1.372 1_655 S
C759 C760 1.400 . S
C759 C764 1.490 . S
C760 H750 0.930 . S
C760 C759 1.400 . S
C760 C763 1.386 . S
H761 C777 0.930 1_655 S
H762 C778 0.931 1_655 S
C763 H751 0.929 . S
C763 C757 1.390 . S
C763 C760 1.386 . S
C764 C759 1.490 . S
C764 C766 1.395 1_655 S
C764 C767 1.403 1_556 S
H765 C771 0.930 . S
C766 H752 0.930 . S
C766 C764 1.395 1_455 S
C766 C769 1.403 . S
C767 C764 1.403 1_554 S
C767 C768 1.524 . S
C767 C771 1.400 . S
C768 H753 0.960 . S
C768 H754 0.960 . S
C768 H755 0.960 1_554 S
C768 C767 1.524 . S
C769 C766 1.403 . S
C769 C770 1.392 1_556 S
C769 C773 1.495 . S
C770 C769 1.392 1_554 S
C770 C771 1.385 1_455 S
C770 C772 1.478 . S
C771 H765 0.930 . S
C771 C767 1.400 . S
C771 C770 1.385 1_655 S
C772 C770 1.478 . S
C772 C774 1.381 . S
C772 C778 1.383 . S
C773 C769 1.495 . S
C773 H779 0.959 . S
C773 H780 0.961 . S
C773 H781 0.960 1_556 S
C774 C772 1.381 . S
C774 C775 1.394 . S
C774 H782 0.930 . S
C775 C774 1.394 . S
C775 C776 1.383 . S
C775 H783 0.929 . S
C776 C775 1.383 . S
C776 C777 1.377 . S
C777 H761 0.930 1_455 S
C777 C776 1.377 . S
C777 C778 1.379 . S
C778 H762 0.931 1_455 S
C778 C772 1.383 . S
C778 C777 1.379 . S
H779 C773 0.959 . S
H780 C773 0.961 . S
H781 C773 0.960 1_554 S
H782 C774 0.930 . S
H783 C775 0.929 . S
H784 C792 0.929 . S
H785 C794 0.930 . S
H786 C796 0.930 . S
H787 C799 0.929 . S
H788 C802 0.930 . S
H789 C804 0.960 . S
H790 C804 0.960 . S
H791 C804 0.960 . S
C792 H784 0.929 . S
C792 C793 1.377 . S
C792 C794 1.384 . S
C793 C792 1.377 . S
C793 C799 1.390 . S
C794 H785 0.930 . S
C794 C792 1.384 . S
C794 C795 1.372 . S
C795 C794 1.372 . S
C795 C796 1.400 . S
C795 C800 1.490 . S
C796 H786 0.930 . S
C796 C795 1.400 . S
C796 C799 1.386 . S
H797 C813 0.930 . S
H798 C814 0.931 . S
C799 H787 0.929 . S
C799 C793 1.390 . S
C799 C796 1.386 . S
C800 C795 1.490 . S
C800 C802 1.395 . S
C800 C803 1.403 . S
H801 C807 0.930 . S
C802 H788 0.930 . S
C802 C800 1.395 . S
C802 C805 1.403 . S
C803 C800 1.403 . S
C803 C804 1.524 . S
C803 C807 1.400 . S
C804 H789 0.960 . S
C804 H790 0.960 . S
C804 H791 0.960 . S
C804 C803 1.524 . S
C805 C802 1.403 . S
C805 C806 1.392 . S
C805 C809 1.495 . S
C806 C805 1.392 . S
C806 C807 1.385 . S
C806 C808 1.478 . S
C807 H801 0.930 . S
C807 C803 1.400 . S
C807 C806 1.385 . S
C808 C806 1.478 . S
C808 C810 1.381 . S
C808 C814 1.383 . S
C809 C805 1.495 . S
C809 H815 0.959 . S
C809 H816 0.961 . S
C809 H817 0.960 . S
C810 C808 1.381 . S
C810 C811 1.394 . S
C810 H818 0.930 . S
C811 C810 1.394 . S
C811 C812 1.383 . S
C811 H819 0.929 . S
C812 C811 1.383 . S
C812 C813 1.377 . S
C813 H797 0.930 . S
C813 C812 1.377 . S
C813 C814 1.379 . S
C814 H798 0.931 . S
C814 C808 1.383 . S
C814 C813 1.379 . S
H815 C809 0.959 . S
H816 C809 0.961 . S
H817 C809 0.960 . S
H818 C810 0.930 . S
H819 C811 0.929 . S
H820 C828 0.929 . S
H821 C830 0.930 . S
H822 C832 0.930 . S
H823 C835 0.929 . S
H824 C838 0.930 . S
H825 C840 0.960 . S
H826 C840 0.960 . S
H827 C840 0.960 . S
C828 H820 0.929 . S
C828 C829 1.377 . S
C828 C830 1.384 . S
C829 C828 1.377 . S
C829 C835 1.390 . S
C830 H821 0.930 . S
C830 C828 1.384 . S
C830 C831 1.372 . S
C831 C830 1.372 . S
C831 C832 1.400 . S
C831 C836 1.490 . S
C832 H822 0.930 . S
C832 C831 1.400 . S
C832 C835 1.386 . S
H833 C849 0.930 . S
H834 C850 0.931 . S
C835 H823 0.929 . S
C835 C829 1.390 . S
C835 C832 1.386 . S
C836 C831 1.490 . S
C836 C838 1.395 . S
C836 C839 1.403 . S
H837 C843 0.930 . S
C838 H824 0.930 . S
C838 C836 1.395 . S
C838 C841 1.403 . S
C839 C836 1.403 . S
C839 C840 1.524 . S
C839 C843 1.400 . S
C840 H825 0.960 . S
C840 H826 0.960 . S
C840 H827 0.960 . S
C840 C839 1.524 . S
C841 C838 1.403 . S
C841 C842 1.392 . S
C841 C845 1.495 . S
C842 C841 1.392 . S
C842 C843 1.385 . S
C842 C844 1.478 . S
C843 H837 0.930 . S
C843 C839 1.400 . S
C843 C842 1.385 . S
C844 C842 1.478 . S
C844 C846 1.381 . S
C844 C850 1.383 . S
C845 C841 1.495 . S
C845 H851 0.959 . S
C845 H852 0.961 . S
C845 H853 0.960 . S
C846 C844 1.381 . S
C846 C847 1.394 . S
C846 H854 0.930 . S
C847 C846 1.394 . S
C847 C848 1.383 . S
C847 H855 0.929 . S
C848 C847 1.383 . S
C848 C849 1.377 . S
C849 H833 0.930 . S
C849 C848 1.377 . S
C849 C850 1.379 . S
C850 H834 0.931 . S
C850 C844 1.383 . S
C850 C849 1.379 . S
H851 C845 0.959 . S
H852 C845 0.961 . S
H853 C845 0.960 . S
H854 C846 0.930 . S
H855 C847 0.929 . S
H856 C864 0.929 . S
H857 C866 0.930 . S
H858 C868 0.930 1_455 S
H859 C871 0.929 . S
H860 C874 0.930 . S
H861 C876 0.960 . S
H862 C876 0.960 . S
H863 C876 0.960 . S
C864 H856 0.929 . S
C864 C865 1.377 . S
C864 C866 1.384 . S
C865 C864 1.377 . S
C865 C871 1.390 . S
C866 H857 0.930 . S
C866 C864 1.384 . S
C866 C867 1.372 . S
C867 C866 1.372 . S
C867 C868 1.400 . S
C867 C872 1.490 . S
C868 H858 0.930 1_655 S
C868 C867 1.400 . S
C868 C871 1.386 . S
H869 C885 0.930 . S
H870 C886 0.931 . S
C871 H859 0.929 . S
C871 C865 1.390 . S
C871 C868 1.386 . S
C872 C867 1.490 . S
C872 C874 1.395 . S
C872 C875 1.403 1_655 S
H873 C879 0.930 . S
C874 H860 0.930 . S
C874 C872 1.395 . S
C874 C877 1.403 1_564 S
C875 C872 1.403 1_455 S
C875 C876 1.524 . S
C875 C879 1.400 1_564 S
C876 H861 0.960 . S
C876 H862 0.960 . S
C876 H863 0.960 . S
C876 C875 1.524 . S
C877 C874 1.403 1_546 S
C877 C878 1.373 1_655 S
C877 C881 1.495 . S
C878 C877 1.373 1_455 S
C878 C879 1.402 . S
C878 C880 1.482 . S
C879 H873 0.930 . S
C879 C875 1.400 1_546 S
C879 C878 1.402 . S
C880 C878 1.482 . S
C880 C882 1.385 . S
C880 C886 1.383 . S
C881 C877 1.495 . S
C881 H887 0.959 . S
C881 H888 0.961 . S
C881 H889 0.960 . S
C882 C880 1.385 . S
C882 C883 1.400 . S
C882 H890 0.921 1_455 S
C883 C882 1.400 . S
C883 C884 1.383 . S
C883 H891 0.929 . S
C884 C883 1.383 . S
C884 C885 1.377 . S
C885 H869 0.930 . S
C885 C884 1.377 . S
C885 C886 1.379 . S
C886 H870 0.931 . S
C886 C880 1.383 . S
C886 C885 1.379 . S
H887 C881 0.959 . S
H888 C881 0.961 . S
H889 C881 0.960 . S
H890 C882 0.921 1_655 S
H891 C883 0.929 . S
H892 C900 0.929 . S
H893 C902 0.930 . S
H894 C904 0.930 . S
H895 C907 0.929 . S
H896 C910 0.930 . S
H897 C912 0.960 . S
H898 C912 0.960 . S
H899 C912 0.960 . S
C900 H892 0.929 . S
C900 C901 1.377 . S
C900 C902 1.384 . S
C901 C900 1.377 . S
C901 C907 1.390 . S
C902 H893 0.930 . S
C902 C900 1.384 . S
C902 C903 1.372 . S
C903 C902 1.372 . S
C903 C904 1.400 . S
C903 C908 1.490 . S
C904 H894 0.930 . S
C904 C903 1.400 . S
C904 C907 1.386 . S
H905 C921 0.930 . S
H906 C922 0.931 . S
C907 H895 0.929 . S
C907 C901 1.390 . S
C907 C904 1.386 . S
C908 C903 1.490 . S
C908 C910 1.395 1_565 S
C908 C911 1.403 . S
H909 C915 0.930 . S
C910 H896 0.930 . S
C910 C908 1.395 1_545 S
C910 C913 1.403 . S
C911 C908 1.403 . S
C911 C912 1.524 . S
C911 C915 1.397 . S
C912 H897 0.960 . S
C912 H898 0.960 . S
C912 H899 0.960 . S
C912 C911 1.524 . S
C913 C910 1.403 . S
C913 C914 1.392 . S
C913 C917 1.495 . S
C914 C913 1.392 . S
C914 C915 1.388 1_545 S
C914 C916 1.478 . S
C915 H909 0.930 . S
C915 C911 1.397 . S
C915 C914 1.388 1_565 S
C916 C914 1.478 . S
C916 C918 1.381 . S
C916 C922 1.383 . S
C917 C913 1.495 . S
C917 H923 0.959 . S
C917 H924 0.961 . S
C917 H925 0.960 . S
C918 C916 1.381 . S
C918 C919 1.394 . S
C918 H926 0.930 . S
C919 C918 1.394 . S
C919 C920 1.383 . S
C919 H927 0.929 . S
C920 C919 1.383 . S
C920 C921 1.377 . S
C921 H905 0.930 . S
C921 C920 1.377 . S
C921 C922 1.379 . S
C922 H906 0.931 . S
C922 C916 1.383 . S
C922 C921 1.379 . S
H923 C917 0.959 . S
H924 C917 0.961 . S
H925 C917 0.960 . S
H926 C918 0.930 . S
H927 C919 0.929 . S
H928 C936 0.929 . S
H929 C938 0.930 . S
H930 C940 0.930 . S
H931 C943 0.929 . S
H932 C946 0.930 . S
H933 C948 0.960 . S
H934 C948 0.960 . S
H935 C948 0.960 . S
C936 H928 0.929 . S
C936 C937 1.377 . S
C936 C938 1.384 . S
C937 C936 1.377 . S
C937 C943 1.390 . S
C938 H929 0.930 . S
C938 C936 1.384 . S
C938 C939 1.372 . S
C939 C938 1.372 . S
C939 C940 1.400 . S
C939 C944 1.490 . S
C940 H930 0.930 . S
C940 C939 1.400 . S
C940 C943 1.386 . S
H941 C957 0.930 . S
H942 C958 0.931 . S
C943 H931 0.929 . S
C943 C937 1.390 . S
C943 C940 1.386 . S
C944 C939 1.490 . S
C944 C946 1.395 . S
C944 C947 1.403 . S
H945 C951 0.930 . S
C946 H932 0.930 . S
C946 C944 1.395 . S
C946 C949 1.403 . S
C947 C944 1.403 . S
C947 C948 1.524 . S
C947 C951 1.400 . S
C948 H933 0.960 . S
C948 H934 0.960 . S
C948 H935 0.960 . S
C948 C947 1.524 . S
C949 C946 1.403 . S
C949 C950 1.392 . S
C949 C953 1.495 . S
C950 C949 1.392 . S
C950 C951 1.385 . S
C950 C952 1.478 1_556 S
C951 H945 0.930 . S
C951 C947 1.400 . S
C951 C950 1.385 . S
C952 C950 1.478 1_554 S
C952 C954 1.381 . S
C952 C958 1.383 . S
C953 C949 1.495 . S
C953 H959 0.959 . S
C953 H960 0.961 . S
C953 H961 0.960 . S
C954 C952 1.381 . S
C954 C955 1.394 . S
C954 H962 0.926 . S
C955 C954 1.394 . S
C955 C956 1.383 . S
C955 H963 0.929 . S
C956 C955 1.383 . S
C956 C957 1.377 . S
C957 H941 0.930 . S
C957 C956 1.377 . S
C957 C958 1.379 . S
C958 H942 0.931 . S
C958 C952 1.383 . S
C958 C957 1.379 . S
H959 C953 0.959 . S
H960 C953 0.961 . S
H961 C953 0.960 . S
H962 C954 0.926 . S
H963 C955 0.929 . S
H964 C972 0.929 . S
H965 C974 0.930 . S
H966 C976 0.930 . S
H967 C979 0.929 . S
H968 C982 0.930 . S
H969 C984 0.960 . S
H970 C984 0.960 . S
H971 C984 0.960 . S
C972 H964 0.929 . S
C972 C973 1.377 . S
C972 C974 1.384 . S
C973 C972 1.377 . S
C973 C979 1.390 . S
C974 H965 0.930 . S
C974 C972 1.384 . S
C974 C975 1.372 . S
C975 C974 1.372 . S
C975 C976 1.400 . S
C975 C980 1.490 . S
C976 H966 0.930 . S
C976 C975 1.400 . S
C976 C979 1.386 . S
H977 C993 0.930 . S
H978 C994 0.931 . S
C979 H967 0.929 . S
C979 C973 1.390 . S
C979 C976 1.386 . S
C980 C975 1.490 . S
C980 C982 1.395 . S
C980 C983 1.403 . S
H981 C987 0.930 . S
C982 H968 0.930 . S
C982 C980 1.395 . S
C982 C985 1.403 . S
C983 C980 1.403 . S
C983 C984 1.524 . S
C983 C987 1.400 . S
C984 H969 0.960 . S
C984 H970 0.960 . S
C984 H971 0.960 . S
C984 C983 1.524 . S
C985 C982 1.403 . S
C985 C986 1.392 . S
C985 C989 1.495 . S
C986 C985 1.392 . S
C986 C987 1.385 . S
C986 C988 1.478 . S
C987 H981 0.930 . S
C987 C983 1.400 . S
C987 C986 1.385 . S
C988 C986 1.478 . S
C988 C990 1.381 . S
C988 C994 1.383 . S
C989 C985 1.495 . S
C989 H995 0.959 . S
C989 H996 0.961 . S
C989 H997 0.960 . S
C990 C988 1.381 . S
C990 C991 1.394 . S
C990 H998 0.930 . S
C991 C990 1.394 . S
C991 C992 1.383 . S
C991 H999 0.929 . S
C992 C991 1.383 . S
C992 C993 1.377 . S
C993 H977 0.930 . S
C993 C992 1.377 . S
C993 C994 1.379 . S
C994 H978 0.931 . S
C994 C988 1.383 . S
C994 C993 1.379 . S
H995 C989 0.959 . S
H996 C989 0.961 . S
H997 C989 0.960 . S
H998 C990 0.930 . S
H999 C991 0.929 . S
H1000 C1008 0.929 . S
H1001 C1010 0.930 . S
H1002 C1012 0.930 . S
H1003 C1015 0.929 . S
H1004 C1018 0.930 . S
H1005 C1020 0.960 . S
H1006 C1020 0.960 . S
H1007 C1020 0.960 . S
C1008 H1000 0.929 . S
C1008 C1009 1.377 . S
C1008 C1010 1.384 . S
C1009 C1008 1.377 . S
C1009 C1015 1.390 . S
C1010 H1001 0.930 . S
C1010 C1008 1.384 . S
C1010 C1011 1.372 . S
C1011 C1010 1.372 . S
C1011 C1012 1.400 . S
C1011 C1016 1.490 . S
C1012 H1002 0.930 . S
C1012 C1011 1.400 . S
C1012 C1015 1.386 . S
H1013 C1029 0.930 . S
H1014 C1030 0.931 . S
C1015 H1003 0.929 . S
C1015 C1009 1.390 . S
C1015 C1012 1.386 . S
C1016 C1011 1.490 . S
C1016 C1018 1.395 . S
C1016 C1019 1.403 . S
H1017 C1023 0.930 . S
C1018 H1004 0.930 . S
C1018 C1016 1.395 . S
C1018 C1021 1.403 . S
C1019 C1016 1.403 . S
C1019 C1020 1.524 . S
C1019 C1023 1.400 . S
C1020 H1005 0.960 . S
C1020 H1006 0.960 . S
C1020 H1007 0.960 . S
C1020 C1019 1.524 . S
C1021 C1018 1.403 . S
C1021 C1022 1.392 . S
C1021 C1025 1.495 1_565 S
C1022 C1021 1.392 . S
C1022 C1023 1.385 . S
C1022 C1024 1.478 . S
C1023 H1017 0.930 . S
C1023 C1019 1.400 . S
C1023 C1022 1.385 . S
C1024 C1022 1.478 . S
C1024 C1026 1.381 . S
C1024 C1030 1.383 . S
C1025 C1021 1.495 1_545 S
C1025 H1031 0.959 . S
C1025 H1032 0.961 . S
C1025 H1033 0.960 1_545 S
C1026 C1024 1.381 . S
C1026 C1027 1.394 . S
C1026 H1034 0.930 . S
C1027 C1026 1.394 . S
C1027 C1028 1.383 . S
C1027 H1035 0.929 . S
C1028 C1027 1.383 . S
C1028 C1029 1.377 . S
C1029 H1013 0.930 . S
C1029 C1028 1.377 . S
C1029 C1030 1.379 . S
C1030 H1014 0.931 . S
C1030 C1024 1.383 . S
C1030 C1029 1.379 . S
H1031 C1025 0.959 . S
H1032 C1025 0.961 . S
H1033 C1025 0.960 1_565 S
H1034 C1026 0.930 . S
H1035 C1027 0.929 . S
H1036 C1044 0.929 . S
H1037 C1046 0.930 . S
H1038 C1048 0.930 . S
H1039 C1051 0.929 . S
H1040 C1054 0.930 . S
H1041 C1056 0.960 . S
H1042 C1056 0.960 . S
H1043 C1056 0.960 . S
C1044 H1036 0.929 . S
C1044 C1045 1.377 . S
C1044 C1046 1.384 . S
C1045 C1044 1.377 . S
C1045 C1051 1.390 . S
C1046 H1037 0.930 . S
C1046 C1044 1.384 . S
C1046 C1047 1.372 . S
C1047 C1046 1.372 . S
C1047 C1048 1.400 . S
C1047 C1052 1.490 . S
C1048 H1038 0.930 . S
C1048 C1047 1.400 . S
C1048 C1051 1.386 . S
H1049 C1065 0.930 . S
H1050 C1066 0.931 . S
C1051 H1039 0.929 . S
C1051 C1045 1.390 . S
C1051 C1048 1.386 . S
C1052 C1047 1.490 . S
C1052 C1054 1.395 . S
C1052 C1055 1.403 . S
H1053 C1059 0.930 . S
C1054 H1040 0.930 . S
C1054 C1052 1.395 . S
C1054 C1057 1.403 . S
C1055 C1052 1.403 . S
C1055 C1056 1.524 . S
C1055 C1059 1.400 . S
C1056 H1041 0.960 . S
C1056 H1042 0.960 . S
C1056 H1043 0.960 . S
C1056 C1055 1.524 . S
C1057 C1054 1.403 . S
C1057 C1058 1.392 . S
C1057 C1061 1.495 . S
C1058 C1057 1.392 . S
C1058 C1059 1.385 . S
C1058 C1060 1.478 . S
C1059 H1053 0.930 . S
C1059 C1055 1.400 . S
C1059 C1058 1.385 . S
C1060 C1058 1.478 . S
C1060 C1062 1.381 . S
C1060 C1066 1.383 . S
C1061 C1057 1.495 . S
C1061 H1067 0.959 . S
C1061 H1068 0.961 . S
C1061 H1069 0.960 . S
C1062 C1060 1.381 . S
C1062 C1063 1.394 . S
C1062 H1070 0.930 . S
C1063 C1062 1.394 . S
C1063 C1064 1.383 . S
C1063 H1071 0.929 . S
C1064 C1063 1.383 . S
C1064 C1065 1.377 . S
C1065 H1049 0.930 . S
C1065 C1064 1.377 . S
C1065 C1066 1.379 . S
C1066 H1050 0.931 . S
C1066 C1060 1.383 . S
C1066 C1065 1.379 . S
H1067 C1061 0.959 . S
H1068 C1061 0.961 . S
H1069 C1061 0.960 . S
H1070 C1062 0.930 . S
H1071 C1063 0.929 . S
H1072 C1080 0.929 . S
H1073 C1082 0.930 . S
H1074 C1084 0.930 . S
H1075 C1087 0.929 . S
H1076 C1090 0.930 . S
H1077 C1092 0.960 . S
H1078 C1092 0.960 . S
H1079 C1092 0.960 . S
C1080 H1072 0.929 . S
C1080 C1081 1.377 . S
C1080 C1082 1.384 . S
C1081 C1080 1.377 . S
C1081 C1087 1.390 . S
C1082 H1073 0.930 . S
C1082 C1080 1.384 . S
C1082 C1083 1.372 . S
C1083 C1082 1.372 . S
C1083 C1084 1.400 . S
C1083 C1088 1.490 . S
C1084 H1074 0.930 . S
C1084 C1083 1.400 . S
C1084 C1087 1.386 . S
H1085 C1101 0.930 . S
H1086 C1102 0.931 . S
C1087 H1075 0.929 . S
C1087 C1081 1.390 . S
C1087 C1084 1.386 . S
C1088 C1083 1.490 . S
C1088 C1090 1.395 . S
C1088 C1091 1.403 . S
H1089 C1095 0.930 . S
C1090 H1076 0.930 . S
C1090 C1088 1.395 . S
C1090 C1093 1.403 . S
C1091 C1088 1.403 . S
C1091 C1092 1.524 . S
C1091 C1095 1.400 . S
C1092 H1077 0.960 . S
C1092 H1078 0.960 . S
C1092 H1079 0.960 . S
C1092 C1091 1.524 . S
C1093 C1090 1.403 . S
C1093 C1094 1.392 . S
C1093 C1097 1.495 1_565 S
C1094 C1093 1.392 . S
C1094 C1095 1.385 . S
C1094 C1096 1.478 1_554 S
C1095 H1089 0.930 . S
C1095 C1091 1.400 . S
C1095 C1094 1.385 . S
C1096 C1094 1.478 1_556 S
C1096 C1098 1.381 . S
C1096 C1102 1.383 . S
C1097 C1093 1.495 1_545 S
C1097 H1103 0.959 . S
C1097 H1104 0.961 . S
C1097 H1105 0.960 . S
C1098 C1096 1.381 . S
C1098 C1099 1.394 . S
C1098 H1106 0.930 . S
C1099 C1098 1.394 . S
C1099 C1100 1.383 . S
C1099 H1107 0.929 . S
C1100 C1099 1.383 . S
C1100 C1101 1.377 . S
C1101 H1085 0.930 . S
C1101 C1100 1.377 . S
C1101 C1102 1.379 . S
C1102 H1086 0.931 . S
C1102 C1096 1.383 . S
C1102 C1101 1.379 . S
H1103 C1097 0.959 . S
H1104 C1097 0.961 . S
H1105 C1097 0.960 . S
H1106 C1098 0.930 . S
H1107 C1099 0.929 . S
H1108 C1116 0.929 . S
H1109 C1118 0.930 . S
H1110 C1120 0.930 . S
H1111 C1123 0.929 . S
H1112 C1126 0.930 . S
H1113 C1128 0.960 . S
H1114 C1128 0.960 . S
H1115 C1128 0.960 . S
C1116 H1108 0.929 . S
C1116 C1117 1.377 . S
C1116 C1118 1.384 . S
C1117 C1116 1.377 . S
C1117 C1123 1.390 . S
C1118 H1109 0.930 . S
C1118 C1116 1.384 . S
C1118 C1119 1.372 . S
C1119 C1118 1.372 . S
C1119 C1120 1.400 . S
C1119 C1124 1.490 . S
C1120 H1110 0.930 . S
C1120 C1119 1.400 . S
C1120 C1123 1.386 . S
H1121 C1137 0.930 . S
H1122 C1138 0.931 . S
C1123 H1111 0.929 . S
C1123 C1117 1.390 . S
C1123 C1120 1.386 . S
C1124 C1119 1.490 . S
C1124 C1126 1.395 . S
C1124 C1127 1.403 . S
H1125 C1131 0.930 . S
C1126 H1112 0.930 . S
C1126 C1124 1.395 . S
C1126 C1129 1.403 . S
C1127 C1124 1.403 . S
C1127 C1128 1.524 . S
C1127 C1131 1.400 . S
C1128 H1113 0.960 . S
C1128 H1114 0.960 . S
C1128 H1115 0.960 . S
C1128 C1127 1.524 . S
C1129 C1126 1.403 . S
C1129 C1130 1.392 . S
C1129 C1133 1.495 . S
C1130 C1129 1.392 . S
C1130 C1131 1.385 . S
C1130 C1132 1.478 . S
C1131 H1125 0.930 . S
C1131 C1127 1.400 . S
C1131 C1130 1.385 . S
C1132 C1130 1.478 . S
C1132 C1134 1.381 . S
C1132 C1138 1.383 . S
C1133 C1129 1.495 . S
C1133 H1139 0.959 . S
C1133 H1140 0.961 . S
C1133 H1141 0.960 . S
C1134 C1132 1.381 . S
C1134 C1135 1.394 . S
C1134 H1142 0.930 . S
C1135 C1134 1.394 . S
C1135 C1136 1.383 . S
C1135 H1143 0.929 . S
C1136 C1135 1.383 . S
C1136 C1137 1.377 . S
C1137 H1121 0.930 . S
C1137 C1136 1.377 . S
C1137 C1138 1.379 . S
C1138 H1122 0.931 . S
C1138 C1132 1.383 . S
C1138 C1137 1.379 . S
H1139 C1133 0.959 . S
H1140 C1133 0.961 . S
H1141 C1133 0.960 . S
H1142 C1134 0.930 . S
H1143 C1135 0.929 . S
H1144 C1152 0.929 . S
H1145 C1154 0.930 . S
H1146 C1156 0.930 . S
H1147 C1159 0.929 . S
H1148 C1162 0.930 . S
H1149 C1164 0.960 . S
H1150 C1164 0.960 . S
H1151 C1164 0.960 . S
C1152 H1144 0.929 . S
C1152 C1153 1.377 . S
C1152 C1154 1.384 . S
C1153 C1152 1.377 . S
C1153 C1159 1.390 . S
C1154 H1145 0.930 . S
C1154 C1152 1.384 . S
C1154 C1155 1.372 . S
C1155 C1154 1.372 . S
C1155 C1156 1.400 . S
C1155 C1160 1.490 . S
C1156 H1146 0.930 . S
C1156 C1155 1.400 . S
C1156 C1159 1.386 . S
H1157 C1173 0.930 . S
H1158 C1174 0.931 . S
C1159 H1147 0.929 . S
C1159 C1153 1.390 . S
C1159 C1156 1.386 . S
C1160 C1155 1.490 . S
C1160 C1162 1.395 . S
C1160 C1163 1.403 . S
H1161 C1167 0.930 . S
C1162 H1148 0.930 . S
C1162 C1160 1.395 . S
C1162 C1165 1.403 . S
C1163 C1160 1.403 . S
C1163 C1164 1.524 . S
C1163 C1167 1.400 . S
C1164 H1149 0.960 . S
C1164 H1150 0.960 . S
C1164 H1151 0.960 . S
C1164 C1163 1.524 . S
C1165 C1162 1.403 . S
C1165 C1166 1.392 . S
C1165 C1169 1.495 . S
C1166 C1165 1.392 . S
C1166 C1167 1.385 . S
C1166 C1168 1.478 . S
C1167 H1161 0.930 . S
C1167 C1163 1.400 . S
C1167 C1166 1.385 . S
C1168 C1166 1.478 . S
C1168 C1170 1.381 . S
C1168 C1174 1.383 . S
C1169 C1165 1.495 . S
C1169 H1175 0.959 . S
C1169 H1176 0.961 . S
C1169 H1177 0.960 . S
C1170 C1168 1.381 . S
C1170 C1171 1.394 . S
C1170 H1178 0.930 . S
C1171 C1170 1.394 . S
C1171 C1172 1.383 . S
C1171 H1179 0.929 . S
C1172 C1171 1.383 . S
C1172 C1173 1.377 . S
C1173 H1157 0.930 . S
C1173 C1172 1.377 . S
C1173 C1174 1.379 . S
C1174 H1158 0.931 . S
C1174 C1168 1.383 . S
C1174 C1173 1.379 . S
H1175 C1169 0.959 . S
H1176 C1169 0.961 . S
H1177 C1169 0.960 . S
H1178 C1170 0.930 . S
H1179 C1171 0.929 . S
H1180 C1188 0.929 . S
H1181 C1190 0.930 . S
H1182 C1192 0.930 . S
H1183 C1195 0.929 . S
H1184 C1198 0.930 . S
H1185 C1200 0.960 . S
H1186 C1200 0.960 . S
H1187 C1200 0.960 . S
C1188 H1180 0.929 . S
C1188 C1189 1.377 . S
C1188 C1190 1.384 . S
C1189 C1188 1.377 . S
C1189 C1195 1.390 . S
C1190 H1181 0.930 . S
C1190 C1188 1.384 . S
C1190 C1191 1.372 . S
C1191 C1190 1.372 . S
C1191 C1192 1.400 . S
C1191 C1196 1.490 . S
C1192 H1182 0.930 . S
C1192 C1191 1.400 . S
C1192 C1195 1.386 . S
H1193 C1209 0.930 . S
H1194 C1210 0.931 . S
C1195 H1183 0.929 . S
C1195 C1189 1.390 . S
C1195 C1192 1.386 . S
C1196 C1191 1.490 . S
C1196 C1198 1.395 . S
C1196 C1199 1.403 . S
H1197 C1203 0.930 . S
C1198 H1184 0.930 . S
C1198 C1196 1.395 . S
C1198 C1201 1.403 . S
C1199 C1196 1.403 . S
C1199 C1200 1.524 . S
C1199 C1203 1.400 . S
C1200 H1185 0.960 . S
C1200 H1186 0.960 . S
C1200 H1187 0.960 . S
C1200 C1199 1.524 . S
C1201 C1198 1.403 . S
C1201 C1202 1.392 . S
C1201 C1205 1.495 . S
C1202 C1201 1.392 . S
C1202 C1203 1.385 . S
C1202 C1204 1.478 . S
C1203 H1197 0.930 . S
C1203 C1199 1.400 . S
C1203 C1202 1.385 . S
C1204 C1202 1.478 . S
C1204 C1206 1.381 . S
C1204 C1210 1.383 . S
C1205 C1201 1.495 . S
C1205 H1211 0.959 . S
C1205 H1212 0.961 . S
C1205 H1213 0.960 . S
C1206 C1204 1.381 . S
C1206 C1207 1.394 . S
C1206 H1214 0.930 . S
C1207 C1206 1.394 . S
C1207 C1208 1.383 . S
C1207 H1215 0.929 . S
C1208 C1207 1.383 . S
C1208 C1209 1.377 . S
C1209 H1193 0.930 . S
C1209 C1208 1.377 . S
C1209 C1210 1.379 . S
C1210 H1194 0.931 . S
C1210 C1204 1.383 . S
C1210 C1209 1.379 . S
H1211 C1205 0.959 . S
H1212 C1205 0.961 . S
H1213 C1205 0.960 . S
H1214 C1206 0.930 . S
H1215 C1207 0.929 . S
H1216 C1224 0.929 . S
H1217 C1226 0.930 . S
H1218 C1228 0.930 . S
H1219 C1231 0.929 . S
H1220 C1234 0.930 . S
H1221 C1236 0.960 . S
H1222 C1236 0.960 . S
H1223 C1236 0.960 . S
C1224 H1216 0.929 . S
C1224 C1225 1.377 . S
C1224 C1226 1.384 . S
C1225 C1224 1.377 . S
C1225 C1231 1.390 . S
C1226 H1217 0.930 . S
C1226 C1224 1.384 . S
C1226 C1227 1.372 . S
C1227 C1226 1.372 . S
C1227 C1228 1.400 . S
C1227 C1232 1.490 . S
C1228 H1218 0.930 . S
C1228 C1227 1.400 . S
C1228 C1231 1.386 . S
H1229 C1245 0.930 . S
H1230 C1246 0.931 . S
C1231 H1219 0.929 . S
C1231 C1225 1.390 . S
C1231 C1228 1.386 . S
C1232 C1227 1.490 . S
C1232 C1234 1.395 . S
C1232 C1235 1.403 . S
H1233 C1239 0.930 . S
C1234 H1220 0.930 . S
C1234 C1232 1.395 . S
C1234 C1237 1.403 . S
C1235 C1232 1.403 . S
C1235 C1236 1.524 . S
C1235 C1239 1.400 . S
C1236 H1221 0.960 . S
C1236 H1222 0.960 . S
C1236 H1223 0.960 . S
C1236 C1235 1.524 . S
C1237 C1234 1.403 . S
C1237 C1238 1.392 . S
C1237 C1241 1.495 . S
C1238 C1237 1.392 . S
C1238 C1239 1.385 . S
C1238 C1240 1.478 . S
C1239 H1233 0.930 . S
C1239 C1235 1.400 . S
C1239 C1238 1.385 . S
C1240 C1238 1.478 . S
C1240 C1242 1.381 . S
C1240 C1246 1.383 . S
C1241 C1237 1.495 . S
C1241 H1247 0.959 . S
C1241 H1248 0.961 . S
C1241 H1249 0.960 . S
C1242 C1240 1.381 . S
C1242 C1243 1.394 . S
C1242 H1250 0.930 . S
C1243 C1242 1.394 . S
C1243 C1244 1.383 . S
C1243 H1251 0.929 . S
C1244 C1243 1.383 . S
C1244 C1245 1.377 . S
C1245 H1229 0.930 . S
C1245 C1244 1.377 . S
C1245 C1246 1.379 . S
C1246 H1230 0.931 . S
C1246 C1240 1.383 . S
C1246 C1245 1.379 . S
H1247 C1241 0.959 . S
H1248 C1241 0.961 . S
H1249 C1241 0.960 . S
H1250 C1242 0.930 . S
H1251 C1243 0.929 . S
H1252 C1260 0.929 . S
H1253 C1262 0.930 . S
H1254 C1264 0.930 1_545 S
H1255 C1267 0.929 . S
H1256 C1270 0.930 . S
H1257 C1272 0.960 . S
H1258 C1272 0.960 . S
H1259 C1272 0.996 . S
C1260 H1252 0.929 . S
C1260 C1261 1.377 . S
C1260 C1262 1.384 . S
C1261 C1260 1.377 . S
C1261 C1267 1.390 1_565 S
C1262 H1253 0.930 . S
C1262 C1260 1.384 . S
C1262 C1263 1.372 . S
C1263 C1262 1.372 . S
C1263 C1264 1.400 . S
C1263 C1268 1.490 . S
C1264 H1254 0.930 1_565 S
C1264 C1263 1.400 . S
C1264 C1267 1.386 1_565 S
H1265 C1281 0.930 . S
H1266 C1282 0.931 . S
C1267 H1255 0.929 . S
C1267 C1261 1.390 1_545 S
C1267 C1264 1.386 1_545 S
C1268 C1263 1.490 . S
C1268 C1270 1.395 . S
C1268 C1271 1.403 . S
H1269 C1275 0.930 . S
C1270 H1256 0.930 . S
C1270 C1268 1.395 . S
C1270 C1273 1.403 . S
C1271 C1268 1.403 . S
C1271 C1272 1.524 . S
C1271 C1275 1.400 . S
C1272 H1257 0.960 . S
C1272 H1258 0.960 . S
C1272 H1259 0.996 . S
C1272 C1271 1.524 . S
C1273 C1270 1.403 . S
C1273 C1274 1.392 . S
C1273 C1277 1.495 . S
C1274 C1273 1.392 . S
C1274 C1275 1.385 . S
C1274 C1276 1.478 . S
C1275 H1269 0.930 . S
C1275 C1271 1.400 . S
C1275 C1274 1.385 . S
C1276 C1274 1.478 . S
C1276 C1278 1.381 . S
C1276 C1282 1.383 . S
C1277 C1273 1.495 . S
C1277 H1283 0.959 . S
C1277 H1284 0.961 . S
C1277 H1285 0.960 . S
C1278 C1276 1.381 . S
C1278 C1279 1.394 . S
C1278 H1286 0.930 . S
C1279 C1278 1.394 . S
C1279 C1280 1.383 . S
C1279 H1287 0.929 . S
C1280 C1279 1.383 . S
C1280 C1281 1.377 . S
C1281 H1265 0.930 . S
C1281 C1280 1.377 . S
C1281 C1282 1.379 . S
C1282 H1266 0.931 . S
C1282 C1276 1.383 . S
C1282 C1281 1.379 . S
H1283 C1277 0.959 . S
H1284 C1277 0.961 . S
H1285 C1277 0.960 . S
H1286 C1278 0.930 . S
H1287 C1279 0.929 . S
H1288 C1296 0.929 . S
H1289 C1298 0.930 . S
H1290 C1300 0.930 . S
H1291 C1303 0.929 . S
H1292 C1306 0.930 . S
H1293 C1308 0.960 . S
H1294 C1308 0.960 . S
H1295 C1308 0.960 . S
C1296 H1288 0.929 . S
C1296 C1297 1.377 . S
C1296 C1298 1.384 . S
C1297 C1296 1.377 . S
C1297 C1303 1.390 . S
C1298 H1289 0.930 . S
C1298 C1296 1.384 . S
C1298 C1299 1.372 . S
C1299 C1298 1.372 . S
C1299 C1300 1.400 . S
C1299 C1304 1.490 1_554 S
C1300 H1290 0.930 . S
C1300 C1299 1.400 . S
C1300 C1303 1.386 . S
H1301 C1317 0.930 . S
H1302 C1318 0.931 . S
C1303 H1291 0.929 . S
C1303 C1297 1.390 . S
C1303 C1300 1.386 . S
C1304 C1299 1.490 1_556 S
C1304 C1306 1.395 . S
C1304 C1307 1.403 . S
H1305 C1311 0.930 . S
C1306 H1292 0.930 . S
C1306 C1304 1.395 . S
C1306 C1309 1.403 . S
C1307 C1304 1.403 . S
C1307 C1308 1.524 . S
C1307 C1311 1.400 . S
C1308 H1293 0.960 . S
C1308 H1294 0.960 . S
C1308 H1295 0.960 . S
C1308 C1307 1.524 . S
C1309 C1306 1.403 . S
C1309 C1310 1.392 . S
C1309 C1313 1.495 . S
C1310 C1309 1.392 . S
C1310 C1311 1.385 . S
C1310 C1312 1.478 . S
C1311 H1305 0.930 . S
C1311 C1307 1.400 . S
C1311 C1310 1.385 . S
C1312 C1310 1.478 . S
C1312 C1314 1.381 . S
C1312 C1318 1.383 . S
C1313 C1309 1.495 . S
C1313 H1319 0.959 . S
C1313 H1320 0.961 . S
C1313 H1321 0.960 . S
C1314 C1312 1.381 . S
C1314 C1315 1.394 . S
C1314 H1322 0.930 . S
C1315 C1314 1.394 . S
C1315 C1316 1.383 . S
C1315 H1323 0.929 . S
C1316 C1315 1.383 . S
C1316 C1317 1.377 . S
C1317 H1301 0.930 . S
C1317 C1316 1.377 . S
C1317 C1318 1.379 . S
C1318 H1302 0.931 . S
C1318 C1312 1.383 . S
C1318 C1317 1.379 . S
H1319 C1313 0.959 . S
H1320 C1313 0.961 . S
H1321 C1313 0.960 . S
H1322 C1314 0.930 . S
H1323 C1315 0.929 . S
H1324 C1332 0.929 . S
H1325 C1334 0.930 . S
H1326 C1336 0.930 . S
H1327 C1339 0.929 . S
H1328 C1342 0.930 . S
H1329 C1344 0.960 . S
H1330 C1344 0.960 . S
H1331 C1344 0.960 . S
C1332 H1324 0.929 . S
C1332 C1333 1.377 . S
C1332 C1334 1.384 . S
C1333 C1332 1.377 . S
C1333 C1339 1.390 . S
C1334 H1325 0.930 . S
C1334 C1332 1.384 . S
C1334 C1335 1.372 . S
C1335 C1334 1.372 . S
C1335 C1336 1.400 . S
C1335 C1340 1.490 . S
C1336 H1326 0.930 . S
C1336 C1335 1.400 . S
C1336 C1339 1.386 . S
H1337 C1353 0.930 . S
H1338 C1354 0.931 . S
C1339 H1327 0.929 . S
C1339 C1333 1.390 . S
C1339 C1336 1.386 . S
C1340 C1335 1.490 . S
C1340 C1342 1.395 . S
C1340 C1343 1.403 . S
H1341 C1347 0.930 . S
C1342 H1328 0.930 . S
C1342 C1340 1.395 . S
C1342 C1345 1.403 . S
C1343 C1340 1.403 . S
C1343 C1344 1.524 . S
C1343 C1347 1.400 . S
C1344 H1329 0.960 . S
C1344 H1330 0.960 . S
C1344 H1331 0.960 . S
C1344 C1343 1.524 . S
C1345 C1342 1.403 . S
C1345 C1346 1.392 . S
C1345 C1349 1.495 . S
C1346 C1345 1.392 . S
C1346 C1347 1.385 . S
C1346 C1348 1.478 . S
C1347 H1341 0.930 . S
C1347 C1343 1.400 . S
C1347 C1346 1.385 . S
C1348 C1346 1.478 . S
C1348 C1350 1.381 . S
C1348 C1354 1.383 . S
C1349 C1345 1.495 . S
C1349 H1355 0.959 . S
C1349 H1356 0.961 . S
C1349 H1357 0.960 . S
C1350 C1348 1.381 . S
C1350 C1351 1.394 1_545 S
C1350 H1358 0.930 1_545 S
C1351 C1350 1.394 1_565 S
C1351 C1352 1.383 1_565 S
C1351 H1359 0.929 . S
C1352 C1351 1.383 1_545 S
C1352 C1353 1.377 . S
C1353 H1337 0.930 . S
C1353 C1352 1.377 . S
C1353 C1354 1.379 . S
C1354 H1338 0.931 . S
C1354 C1348 1.383 . S
C1354 C1353 1.379 . S
H1355 C1349 0.959 . S
H1356 C1349 0.961 . S
H1357 C1349 0.960 . S
H1358 C1350 0.930 1_565 S
H1359 C1351 0.929 . S
H1360 C1368 0.929 . S
H1361 C1370 0.930 . S
H1362 C1372 0.930 . S
H1363 C1375 0.929 . S
H1364 C1378 0.930 . S
H1365 C1380 0.960 . S
H1366 C1380 0.960 . S
H1367 C1380 0.960 . S
C1368 H1360 0.929 . S
C1368 C1369 1.377 . S
C1368 C1370 1.384 . S
C1369 C1368 1.377 . S
C1369 C1375 1.390 . S
C1370 H1361 0.930 . S
C1370 C1368 1.384 . S
C1370 C1371 1.372 . S
C1371 C1370 1.372 . S
C1371 C1372 1.400 . S
C1371 C1376 1.490 . S
C1372 H1362 0.930 . S
C1372 C1371 1.400 . S
C1372 C1375 1.386 . S
H1373 C1389 0.930 . S
H1374 C1390 0.931 . S
C1375 H1363 0.929 . S
C1375 C1369 1.390 . S
C1375 C1372 1.386 . S
C1376 C1371 1.490 . S
C1376 C1378 1.395 . S
C1376 C1379 1.403 . S
H1377 C1383 0.930 . S
C1378 H1364 0.930 . S
C1378 C1376 1.395 . S
C1378 C1381 1.403 . S
C1379 C1376 1.403 . S
C1379 C1380 1.524 . S
C1379 C1383 1.400 . S
C1380 H1365 0.960 . S
C1380 H1366 0.960 . S
C1380 H1367 0.960 . S
C1380 C1379 1.524 . S
C1381 C1378 1.403 . S
C1381 C1382 1.392 . S
C1381 C1385 1.495 . S
C1382 C1381 1.392 . S
C1382 C1383 1.385 . S
C1382 C1384 1.478 . S
C1383 H1377 0.930 . S
C1383 C1379 1.400 . S
C1383 C1382 1.385 . S
C1384 C1382 1.478 . S
C1384 C1386 1.381 . S
C1384 C1390 1.383 . S
C1385 C1381 1.495 . S
C1385 H1391 0.959 . S
C1385 H1392 0.961 . S
C1385 H1393 0.960 . S
C1386 C1384 1.381 . S
C1386 C1387 1.394 . S
C1386 H1394 0.930 . S
C1387 C1386 1.394 . S
C1387 C1388 1.383 . S
C1387 H1395 0.929 . S
C1388 C1387 1.383 . S
C1388 C1389 1.377 . S
C1389 H1373 0.930 . S
C1389 C1388 1.377 . S
C1389 C1390 1.379 . S
C1390 H1374 0.931 . S
C1390 C1384 1.383 . S
C1390 C1389 1.379 . S
H1391 C1385 0.959 . S
H1392 C1385 0.961 . S
H1393 C1385 0.960 . S
H1394 C1386 0.930 . S
H1395 C1387 0.929 . S
H1396 C1404 0.929 1_565 S
H1397 C1406 0.930 . S
H1398 C1408 0.930 . S
H1399 C1411 0.929 . S
H1400 C1414 0.930 . S
H1401 C1416 0.960 . S
H1402 C1416 0.931 1_565 S
H1403 C1416 0.960 . S
C1404 H1396 0.929 1_545 S
C1404 C1405 1.377 . S
C1404 C1406 1.384 . S
C1405 C1404 1.377 . S
C1405 C1411 1.390 . S
C1406 H1397 0.930 . S
C1406 C1404 1.384 . S
C1406 C1407 1.372 . S
C1407 C1406 1.372 . S
C1407 C1408 1.400 . S
C1407 C1412 1.490 . S
C1408 H1398 0.930 . S
C1408 C1407 1.400 . S
C1408 C1411 1.386 . S
H1409 C1425 0.930 . S
H1410 C1426 0.931 . S
C1411 H1399 0.929 . S
C1411 C1405 1.390 . S
C1411 C1408 1.386 . S
C1412 C1407 1.490 . S
C1412 C1414 1.395 . S
C1412 C1415 1.403 . S
H1413 C1419 0.930 . S
C1414 H1400 0.930 . S
C1414 C1412 1.395 . S
C1414 C1417 1.403 . S
C1415 C1412 1.403 . S
C1415 C1416 1.524 . S
C1415 C1419 1.400 . S
C1416 H1401 0.960 . S
C1416 H1402 0.931 1_545 S
C1416 H1403 0.960 . S
C1416 C1415 1.524 . S
C1417 C1414 1.403 . S
C1417 C1418 1.392 . S
C1417 C1421 1.495 . S
C1418 C1417 1.392 . S
C1418 C1419 1.385 . S
C1418 C1420 1.478 . S
C1419 H1413 0.930 . S
C1419 C1415 1.400 . S
C1419 C1418 1.385 . S
C1420 C1418 1.478 . S
C1420 C1422 1.381 . S
C1420 C1426 1.383 . S
C1421 C1417 1.495 . S
C1421 H1427 0.959 . S
C1421 H1428 0.961 . S
C1421 H1429 0.960 . S
C1422 C1420 1.381 . S
C1422 C1423 1.394 . S
C1422 H1430 0.930 . S
C1423 C1422 1.394 . S
C1423 C1424 1.383 . S
C1423 H1431 0.929 . S
C1424 C1423 1.383 . S
C1424 C1425 1.377 . S
C1425 H1409 0.930 . S
C1425 C1424 1.377 . S
C1425 C1426 1.379 . S
C1426 H1410 0.931 . S
C1426 C1420 1.383 . S
C1426 C1425 1.379 . S
H1427 C1421 0.959 . S
H1428 C1421 0.961 . S
H1429 C1421 0.960 . S
H1430 C1422 0.930 . S
H1431 C1423 0.929 . S
H1432 C1440 0.929 . S
H1433 C1442 0.930 . S
H1434 C1444 0.930 . S
H1435 C1447 0.929 . S
H1436 C1450 0.930 . S
H1437 C1452 0.960 . S
H1438 C1452 0.960 . S
H1439 C1452 0.960 . S
C1440 H1432 0.929 . S
C1440 C1441 1.377 . S
C1440 C1442 1.384 . S
C1441 C1440 1.377 . S
C1441 C1447 1.390 . S
C1442 H1433 0.930 . S
C1442 C1440 1.384 . S
C1442 C1443 1.372 . S
C1443 C1442 1.372 . S
C1443 C1444 1.400 . S
C1443 C1448 1.490 . S
C1444 H1434 0.930 . S
C1444 C1443 1.400 . S
C1444 C1447 1.386 . S
H1445 C1461 0.930 . S
H1446 C1462 0.931 . S
C1447 H1435 0.929 . S
C1447 C1441 1.390 . S
C1447 C1444 1.386 . S
C1448 C1443 1.490 . S
C1448 C1450 1.395 . S
C1448 C1451 1.403 . S
H1449 C1455 0.930 . S
C1450 H1436 0.930 . S
C1450 C1448 1.395 . S
C1450 C1453 1.403 . S
C1451 C1448 1.403 . S
C1451 C1452 1.524 . S
C1451 C1455 1.400 . S
C1452 H1437 0.960 . S
C1452 H1438 0.960 . S
C1452 H1439 0.960 . S
C1452 C1451 1.524 . S
C1453 C1450 1.403 . S
C1453 C1454 1.392 . S
C1453 C1457 1.495 . S
C1454 C1453 1.392 . S
C1454 C1455 1.385 . S
C1454 C1456 1.478 1_554 S
C1455 H1449 0.930 . S
C1455 C1451 1.400 . S
C1455 C1454 1.385 . S
C1456 C1454 1.478 1_556 S
C1456 C1458 1.381 . S
C1456 C1462 1.383 . S
C1457 C1453 1.495 . S
C1457 H1463 0.959 . S
C1457 H1464 0.961 . S
C1457 H1465 0.960 . S
C1458 C1456 1.381 . S
C1458 C1459 1.394 . S
C1458 H1466 0.930 . S
C1459 C1458 1.394 . S
C1459 C1460 1.383 . S
C1459 H1467 0.929 . S
C1460 C1459 1.383 . S
C1460 C1461 1.377 . S
C1461 H1445 0.930 . S
C1461 C1460 1.377 . S
C1461 C1462 1.379 . S
C1462 H1446 0.931 . S
C1462 C1456 1.383 . S
C1462 C1461 1.379 . S
H1463 C1457 0.959 . S
H1464 C1457 0.961 . S
H1465 C1457 0.960 . S
H1466 C1458 0.930 . S
H1467 C1459 0.929 . S
H1468 C1476 0.929 . S
H1469 C1478 0.930 . S
H1470 C1480 0.930 1_545 S
H1471 C1483 0.929 . S
H1472 C1486 0.930 . S
H1473 C1488 0.960 . S
H1474 C1488 0.960 . S
H1475 C1488 0.960 . S
C1476 H1468 0.929 . S
C1476 C1477 1.377 . S
C1476 C1478 1.384 . S
C1477 C1476 1.377 . S
C1477 C1483 1.390 1_565 S
C1478 H1469 0.930 . S
C1478 C1476 1.384 . S
C1478 C1479 1.372 . S
C1479 C1478 1.372 . S
C1479 C1480 1.400 . S
C1479 C1484 1.490 . S
C1480 H1470 0.930 1_565 S
C1480 C1479 1.400 . S
C1480 C1483 1.386 1_565 S
H1481 C1497 0.930 . S
H1482 C1498 0.931 . S
C1483 H1471 0.929 . S
C1483 C1477 1.390 1_545 S
C1483 C1480 1.386 1_545 S
C1484 C1479 1.490 . S
C1484 C1486 1.395 . S
C1484 C1487 1.403 . S
H1485 C1491 0.930 . S
C1486 H1472 0.930 . S
C1486 C1484 1.395 . S
C1486 C1489 1.403 . S
C1487 C1484 1.403 . S
C1487 C1488 1.524 . S
C1487 C1491 1.400 . S
C1488 H1473 0.960 . S
C1488 H1474 0.960 . S
C1488 H1475 0.960 . S
C1488 C1487 1.524 . S
C1489 C1486 1.403 . S
C1489 C1490 1.392 . S
C1489 C1493 1.495 . S
C1490 C1489 1.392 . S
C1490 C1491 1.385 . S
C1490 C1492 1.478 . S
C1491 H1485 0.930 . S
C1491 C1487 1.400 . S
C1491 C1490 1.385 . S
C1492 C1490 1.478 . S
C1492 C1494 1.381 . S
C1492 C1498 1.383 . S
C1493 C1489 1.495 . S
C1493 H1499 0.959 . S
C1493 H1500 0.961 . S
C1493 H1501 0.960 . S
C1494 C1492 1.381 . S
C1494 C1495 1.394 . S
C1494 H1502 0.930 . S
C1495 C1494 1.394 . S
C1495 C1496 1.383 . S
C1495 H1503 0.929 . S
C1496 C1495 1.383 . S
C1496 C1497 1.377 . S
C1497 H1481 0.930 . S
C1497 C1496 1.377 . S
C1497 C1498 1.379 . S
C1498 H1482 0.931 . S
C1498 C1492 1.383 . S
C1498 C1497 1.379 . S
H1499 C1493 0.959 . S
H1500 C1493 0.961 . S
H1501 C1493 0.960 . S
H1502 C1494 0.930 . S
H1503 C1495 0.929 . S
H1504 C1512 0.929 . S
H1505 C1514 0.930 . S
H1506 C1516 0.930 . S
H1507 C1519 0.929 . S
H1508 C1522 0.930 . S
H1509 C1524 0.960 . S
H1510 C1524 0.960 . S
H1511 C1524 0.960 . S
C1512 H1504 0.929 . S
C1512 C1513 1.377 . S
C1512 C1514 1.384 . S
C1513 C1512 1.377 . S
C1513 C1519 1.390 . S
C1514 H1505 0.930 . S
C1514 C1512 1.384 . S
C1514 C1515 1.372 . S
C1515 C1514 1.372 . S
C1515 C1516 1.400 . S
C1515 C1520 1.490 . S
C1516 H1506 0.930 . S
C1516 C1515 1.400 . S
C1516 C1519 1.386 . S
H1517 C1533 0.930 . S
H1518 C1534 0.931 . S
C1519 H1507 0.929 . S
C1519 C1513 1.390 . S
C1519 C1516 1.386 . S
C1520 C1515 1.490 . S
C1520 C1522 1.395 . S
C1520 C1523 1.403 . S
H1521 C1527 0.930 . S
C1522 H1508 0.930 . S
C1522 C1520 1.395 . S
C1522 C1525 1.403 . S
C1523 C1520 1.403 . S
C1523 C1524 1.524 . S
C1523 C1527 1.400 . S
C1524 H1509 0.960 . S
C1524 H1510 0.960 . S
C1524 H1511 0.960 . S
C1524 C1523 1.524 . S
C1525 C1522 1.403 . S
C1525 C1526 1.392 . S
C1525 C1529 1.495 . S
C1526 C1525 1.392 . S
C1526 C1527 1.385 . S
C1526 C1528 1.478 . S
C1527 H1521 0.930 . S
C1527 C1523 1.400 . S
C1527 C1526 1.385 . S
C1528 C1526 1.478 . S
C1528 C1530 1.381 . S
C1528 C1534 1.383 . S
C1529 C1525 1.495 . S
C1529 H1535 0.959 . S
C1529 H1536 0.961 . S
C1529 H1537 0.960 . S
C1530 C1528 1.381 . S
C1530 C1531 1.394 . S
C1530 H1538 0.930 . S
C1531 C1530 1.394 . S
C1531 C1532 1.383 . S
C1531 H1539 0.929 . S
C1532 C1531 1.383 . S
C1532 C1533 1.377 . S
C1533 H1517 0.930 . S
C1533 C1532 1.377 . S
C1533 C1534 1.379 . S
C1534 H1518 0.931 . S
C1534 C1528 1.383 . S
C1534 C1533 1.379 . S
H1535 C1529 0.959 . S
H1536 C1529 0.961 . S
H1537 C1529 0.960 . S
H1538 C1530 0.930 . S
H1539 C1531 0.929 . S
H1540 C1548 0.929 . S
H1541 C1550 0.930 . S
H1542 C1552 0.930 . S
H1543 C1555 0.929 . S
H1544 C1558 0.930 . S
H1545 C1560 0.960 . S
H1546 C1560 0.960 . S
H1547 C1560 0.960 . S
C1548 H1540 0.929 . S
C1548 C1549 1.377 . S
C1548 C1550 1.384 . S
C1549 C1548 1.377 . S
C1549 C1555 1.390 . S
C1550 H1541 0.930 . S
C1550 C1548 1.384 . S
C1550 C1551 1.372 . S
C1551 C1550 1.372 . S
C1551 C1552 1.400 . S
C1551 C1556 1.490 . S
C1552 H1542 0.930 . S
C1552 C1551 1.400 . S
C1552 C1555 1.386 . S
H1553 C1569 0.930 . S
H1554 C1570 0.931 . S
C1555 H1543 0.929 . S
C1555 C1549 1.390 . S
C1555 C1552 1.386 . S
C1556 C1551 1.490 . S
C1556 C1558 1.395 . S
C1556 C1559 1.403 . S
H1557 C1563 0.930 . S
C1558 H1544 0.930 . S
C1558 C1556 1.395 . S
C1558 C1561 1.403 . S
C1559 C1556 1.403 . S
C1559 C1560 1.524 . S
C1559 C1563 1.400 . S
C1560 H1545 0.960 . S
C1560 H1546 0.960 . S
C1560 H1547 0.960 . S
C1560 C1559 1.524 . S
C1561 C1558 1.403 . S
C1561 C1562 1.392 . S
C1561 C1565 1.495 . S
C1562 C1561 1.392 . S
C1562 C1563 1.385 . S
C1562 C1564 1.478 . S
C1563 H1557 0.930 . S
C1563 C1559 1.400 . S
C1563 C1562 1.385 . S
C1564 C1562 1.478 . S
C1564 C1566 1.381 . S
C1564 C1570 1.383 . S
C1565 C1561 1.495 . S
C1565 H1571 0.959 . S
C1565 H1572 0.961 . S
C1565 H1573 0.960 . S
C1566 C1564 1.381 . S
C1566 C1567 1.394 . S
C1566 H1574 0.930 . S
C1567 C1566 1.394 . S
C1567 C1568 1.383 . S
C1567 H1575 0.929 . S
C1568 C1567 1.383 . S
C1568 C1569 1.377 . S
C1569 H1553 0.930 . S
C1569 C1568 1.377 . S
C1569 C1570 1.379 . S
C1570 H1554 0.931 . S
C1570 C1564 1.383 . S
C1570 C1569 1.379 . S
H1571 C1565 0.959 . S
H1572 C1565 0.961 . S
H1573 C1565 0.960 . S
H1574 C1566 0.930 . S
H1575 C1567 0.929 . S
H1576 C1584 0.929 . S
H1577 C1586 0.930 . S
H1578 C1588 0.930 . S
H1579 C1591 0.929 . S
H1580 C1594 0.930 . S
H1581 C1596 0.960 . S
H1582 C1596 0.960 . S
H1583 C1596 0.960 . S
C1584 H1576 0.929 . S
C1584 C1585 1.377 . S
C1584 C1586 1.384 . S
C1585 C1584 1.377 . S
C1585 C1591 1.390 . S
C1586 H1577 0.930 . S
C1586 C1584 1.384 . S
C1586 C1587 1.372 . S
C1587 C1586 1.372 . S
C1587 C1588 1.400 . S
C1587 C1592 1.490 . S
C1588 H1578 0.930 . S
C1588 C1587 1.400 . S
C1588 C1591 1.386 . S
H1589 C1605 0.930 . S
H1590 C1606 0.931 . S
C1591 H1579 0.929 . S
C1591 C1585 1.390 . S
C1591 C1588 1.386 . S
C1592 C1587 1.490 . S
C1592 C1594 1.395 . S
C1592 C1595 1.403 . S
H1593 C1599 0.930 . S
C1594 H1580 0.930 . S
C1594 C1592 1.395 . S
C1594 C1597 1.403 1_655 S
C1595 C1592 1.403 . S
C1595 C1596 1.524 . S
C1595 C1599 1.400 1_655 S
C1596 H1581 0.960 . S
C1596 H1582 0.960 . S
C1596 H1583 0.960 . S
C1596 C1595 1.524 . S
C1597 C1594 1.403 1_455 S
C1597 C1598 1.392 . S
C1597 C1601 1.495 . S
C1598 C1597 1.392 . S
C1598 C1599 1.385 . S
C1598 C1600 1.478 . S
C1599 H1593 0.930 . S
C1599 C1595 1.400 1_455 S
C1599 C1598 1.385 . S
C1600 C1598 1.478 . S
C1600 C1602 1.381 . S
C1600 C1606 1.383 . S
C1601 C1597 1.495 . S
C1601 H1607 0.959 . S
C1601 H1608 0.961 . S
C1601 H1609 0.960 . S
C1602 C1600 1.381 . S
C1602 C1603 1.394 . S
C1602 H1610 0.930 . S
C1603 C1602 1.394 . S
C1603 C1604 1.383 . S
C1603 H1611 0.929 . S
C1604 C1603 1.383 . S
C1604 C1605 1.377 . S
C1605 H1589 0.930 . S
C1605 C1604 1.377 . S
C1605 C1606 1.379 . S
C1606 H1590 0.931 . S
C1606 C1600 1.383 . S
C1606 C1605 1.379 . S
H1607 C1601 0.959 . S
H1608 C1601 0.961 . S
H1609 C1601 0.960 . S
H1610 C1602 0.930 . S
H1611 C1603 0.929 . S
H1612 C1620 0.929 . S
H1613 C1622 0.930 1_455 S
H1614 C1624 0.930 . S
H1615 C1627 0.929 . S
H1616 C1630 0.930 . S
H1617 C1632 0.960 . S
H1618 C1632 0.960 . S
H1619 C1632 0.960 . S
C1620 H1612 0.929 . S
C1620 C1621 1.377 . S
C1620 C1622 1.384 . S
C1621 C1620 1.377 . S
C1621 C1627 1.390 . S
C1622 H1613 0.930 1_655 S
C1622 C1620 1.384 . S
C1622 C1623 1.372 . S
C1623 C1622 1.372 . S
C1623 C1624 1.400 . S
C1623 C1628 1.490 . S
C1624 H1614 0.930 . S
C1624 C1623 1.400 . S
C1624 C1627 1.386 . S
H1625 C1641 0.930 . S
H1626 C1642 0.931 1_655 S
C1627 H1615 0.929 . S
C1627 C1621 1.390 . S
C1627 C1624 1.386 . S
C1628 C1623 1.490 . S
C1628 C1630 1.395 1_655 S
C1628 C1631 1.403 . S
H1629 C1635 0.930 . S
C1630 H1616 0.930 . S
C1630 C1628 1.395 1_455 S
C1630 C1633 1.403 . S
C1631 C1628 1.403 . S
C1631 C1632 1.524 . S
C1631 C1635 1.400 . S
C1632 H1617 0.960 . S
C1632 H1618 0.960 . S
C1632 H1619 0.960 . S
C1632 C1631 1.524 . S
C1633 C1630 1.403 . S
C1633 C1634 1.392 . S
C1633 C1637 1.495 . S
C1634 C1633 1.392 . S
C1634 C1635 1.385 1_455 S
C1634 C1636 1.478 . S
C1635 H1629 0.930 . S
C1635 C1631 1.400 . S
C1635 C1634 1.385 1_655 S
C1636 C1634 1.478 . S
C1636 C1638 1.381 . S
C1636 C1642 1.383 . S
C1637 C1633 1.495 . S
C1637 H1643 0.959 . S
C1637 H1644 0.961 . S
C1637 H1645 0.960 . S
C1638 C1636 1.381 . S
C1638 C1639 1.394 . S
C1638 H1646 0.930 . S
C1639 C1638 1.394 . S
C1639 C1640 1.383 . S
C1639 H1647 0.929 . S
C1640 C1639 1.383 . S
C1640 C1641 1.377 . S
C1641 H1625 0.930 . S
C1641 C1640 1.377 . S
C1641 C1642 1.379 . S
C1642 H1626 0.931 1_455 S
C1642 C1636 1.383 . S
C1642 C1641 1.379 . S
H1643 C1637 0.959 . S
H1644 C1637 0.961 . S
H1645 C1637 0.960 . S
H1646 C1638 0.930 . S
H1647 C1639 0.929 . S
H1648 C1656 0.929 . S
H1649 C1658 0.930 . S
H1650 C1660 0.930 . S
H1651 C1663 0.929 . S
H1652 C1666 0.930 . S
H1653 C1668 0.960 . S
H1654 C1668 0.960 . S
H1655 C1668 0.960 . S
C1656 H1648 0.929 . S
C1656 C1657 1.377 . S
C1656 C1658 1.384 . S
C1657 C1656 1.377 . S
C1657 C1663 1.390 . S
C1658 H1649 0.930 . S
C1658 C1656 1.384 . S
C1658 C1659 1.372 . S
C1659 C1658 1.372 . S
C1659 C1660 1.400 . S
C1659 C1664 1.490 . S
C1660 H1650 0.930 . S
C1660 C1659 1.400 . S
C1660 C1663 1.386 . S
H1661 C1677 0.930 . S
H1662 C1678 0.931 . S
C1663 H1651 0.929 . S
C1663 C1657 1.390 . S
C1663 C1660 1.386 . S
C1664 C1659 1.490 . S
C1664 C1666 1.395 . S
C1664 C1667 1.403 . S
H1665 C1671 0.930 . S
C1666 H1652 0.930 . S
C1666 C1664 1.395 . S
C1666 C1669 1.403 . S
C1667 C1664 1.403 . S
C1667 C1668 1.524 . S
C1667 C1671 1.400 . S
C1668 H1653 0.960 . S
C1668 H1654 0.960 . S
C1668 H1655 0.960 . S
C1668 C1667 1.524 . S
C1669 C1666 1.403 . S
C1669 C1670 1.392 . S
C1669 C1673 1.495 . S
C1670 C1669 1.392 . S
C1670 C1671 1.385 . S
C1670 C1672 1.478 . S
C1671 H1665 0.930 . S
C1671 C1667 1.400 . S
C1671 C1670 1.385 . S
C1672 C1670 1.478 . S
C1672 C1674 1.381 . S
C1672 C1678 1.383 . S
C1673 C1669 1.495 . S
C1673 H1679 0.959 . S
C1673 H1680 0.961 . S
C1673 H1681 0.960 . S
C1674 C1672 1.381 . S
C1674 C1675 1.394 . S
C1674 H1682 0.930 . S
C1675 C1674 1.394 . S
C1675 C1676 1.383 . S
C1675 H1683 0.929 . S
C1676 C1675 1.383 . S
C1676 C1677 1.377 . S
C1677 H1661 0.930 . S
C1677 C1676 1.377 . S
C1677 C1678 1.379 . S
C1678 H1662 0.931 . S
C1678 C1672 1.383 . S
C1678 C1677 1.379 . S
H1679 C1673 0.959 . S
H1680 C1673 0.961 . S
H1681 C1673 0.960 . S
H1682 C1674 0.930 . S
H1683 C1675 0.929 . S
H1684 C1692 0.929 . S
H1685 C1694 0.930 . S
H1686 C1696 0.930 . S
H1687 C1699 0.929 . S
H1688 C1702 0.930 . S
H1689 C1704 0.960 . S
H1690 C1704 0.960 . S
H1691 C1704 0.960 . S
C1692 H1684 0.929 . S
C1692 C1693 1.377 . S
C1692 C1694 1.384 . S
C1693 C1692 1.377 . S
C1693 C1699 1.390 . S
C1694 H1685 0.930 . S
C1694 C1692 1.384 . S
C1694 C1695 1.372 . S
C1695 C1694 1.372 . S
C1695 C1696 1.400 . S
C1695 C1700 1.490 . S
C1696 H1686 0.930 . S
C1696 C1695 1.400 . S
C1696 C1699 1.386 . S
H1697 C1713 0.930 . S
H1698 C1714 0.931 . S
C1699 H1687 0.929 . S
C1699 C1693 1.390 . S
C1699 C1696 1.386 . S
C1700 C1695 1.490 . S
C1700 C1702 1.395 . S
C1700 C1703 1.403 . S
H1701 C1707 0.930 . S
C1702 H1688 0.930 . S
C1702 C1700 1.395 . S
C1702 C1705 1.403 . S
C1703 C1700 1.403 . S
C1703 C1704 1.524 . S
C1703 C1707 1.400 . S
C1704 H1689 0.960 . S
C1704 H1690 0.960 . S
C1704 H1691 0.960 . S
C1704 C1703 1.524 . S
C1705 C1702 1.403 . S
C1705 C1706 1.392 . S
C1705 C1709 1.495 . S
C1706 C1705 1.392 . S
C1706 C1707 1.385 . S
C1706 C1708 1.478 . S
C1707 H1701 0.930 . S
C1707 C1703 1.400 . S
C1707 C1706 1.385 . S
C1708 C1706 1.478 . S
C1708 C1710 1.381 . S
C1708 C1714 1.383 . S
C1709 C1705 1.495 . S
C1709 H1715 0.959 . S
C1709 H1716 0.961 . S
C1709 H1717 0.960 . S
C1710 C1708 1.381 . S
C1710 C1711 1.394 . S
C1710 H1718 0.930 . S
C1711 C1710 1.394 . S
C1711 C1712 1.383 . S
C1711 H1719 0.929 . S
C1712 C1711 1.383 . S
C1712 C1713 1.377 . S
C1713 H1697 0.930 . S
C1713 C1712 1.377 . S
C1713 C1714 1.379 . S
C1714 H1698 0.931 . S
C1714 C1708 1.383 . S
C1714 C1713 1.379 . S
H1715 C1709 0.959 . S
H1716 C1709 0.961 . S
H1717 C1709 0.960 . S
H1718 C1710 0.930 . S
H1719 C1711 0.929 . S
H1720 C1728 0.929 . S
H1721 C1730 0.930 . S
H1722 C1732 0.930 . S
H1723 C1735 0.929 . S
H1724 C1738 0.930 . S
H1725 C1740 0.960 . S
H1726 C1740 0.960 . S
H1727 C1740 0.960 . S
C1728 H1720 0.929 . S
C1728 C1729 1.377 . S
C1728 C1730 1.384 . S
C1729 C1728 1.377 . S
C1729 C1735 1.390 . S
C1730 H1721 0.930 . S
C1730 C1728 1.384 . S
C1730 C1731 1.372 . S
C1731 C1730 1.372 . S
C1731 C1732 1.400 . S
C1731 C1736 1.490 . S
C1732 H1722 0.930 . S
C1732 C1731 1.400 . S
C1732 C1735 1.386 . S
H1733 C1749 0.930 . S
H1734 C1750 0.931 . S
C1735 H1723 0.929 . S
C1735 C1729 1.390 . S
C1735 C1732 1.386 . S
C1736 C1731 1.490 . S
C1736 C1738 1.395 . S
C1736 C1739 1.403 . S
H1737 C1743 0.930 . S
C1738 H1724 0.930 . S
C1738 C1736 1.395 . S
C1738 C1741 1.403 1_455 S
C1739 C1736 1.403 . S
C1739 C1740 1.524 . S
C1739 C1743 1.400 1_455 S
C1740 H1725 0.960 . S
C1740 H1726 0.960 . S
C1740 H1727 0.960 . S
C1740 C1739 1.524 . S
C1741 C1738 1.403 1_655 S
C1741 C1742 1.392 . S
C1741 C1745 1.495 . S
C1742 C1741 1.392 . S
C1742 C1743 1.385 . S
C1742 C1744 1.478 . S
C1743 H1737 0.930 . S
C1743 C1739 1.400 1_655 S
C1743 C1742 1.385 . S
C1744 C1742 1.478 . S
C1744 C1746 1.381 . S
C1744 C1750 1.383 . S
C1745 C1741 1.495 . S
C1745 H1751 0.959 . S
C1745 H1752 0.961 . S
C1745 H1753 0.960 . S
C1746 C1744 1.381 . S
C1746 C1747 1.394 . S
C1746 H1754 0.930 . S
C1747 C1746 1.394 . S
C1747 C1748 1.383 . S
C1747 H1755 0.929 . S
C1748 C1747 1.383 . S
C1748 C1749 1.377 . S
C1749 H1733 0.930 . S
C1749 C1748 1.377 . S
C1749 C1750 1.379 . S
C1750 H1734 0.931 . S
C1750 C1744 1.383 . S
C1750 C1749 1.379 . S
H1751 C1745 0.959 . S
H1752 C1745 0.961 . S
H1753 C1745 0.960 . S
H1754 C1746 0.930 . S
H1755 C1747 0.929 . S
H1756 C1764 0.929 . S
H1757 C1766 0.930 1_655 S
H1758 C1768 0.930 . S
H1759 C1771 0.929 . S
H1760 C1774 0.930 . S
H1761 C1776 0.960 . S
H1762 C1776 0.960 . S
H1763 C1776 0.960 . S
C1764 H1756 0.929 . S
C1764 C1765 1.377 . S
C1764 C1766 1.384 . S
C1765 C1764 1.377 . S
C1765 C1771 1.390 . S
C1766 H1757 0.930 1_455 S
C1766 C1764 1.384 . S
C1766 C1767 1.372 . S
C1767 C1766 1.372 . S
C1767 C1768 1.400 . S
C1767 C1772 1.490 . S
C1768 H1758 0.930 . S
C1768 C1767 1.400 . S
C1768 C1771 1.386 . S
H1769 C1785 0.930 . S
H1770 C1786 0.931 1_455 S
C1771 H1759 0.929 . S
C1771 C1765 1.390 . S
C1771 C1768 1.386 . S
C1772 C1767 1.490 . S
C1772 C1774 1.395 1_455 S
C1772 C1775 1.403 . S
H1773 C1779 0.930 . S
C1774 H1760 0.930 . S
C1774 C1772 1.395 1_655 S
C1774 C1777 1.403 . S
C1775 C1772 1.403 . S
C1775 C1776 1.524 . S
C1775 C1779 1.400 . S
C1776 H1761 0.960 . S
C1776 H1762 0.960 . S
C1776 H1763 0.960 . S
C1776 C1775 1.524 . S
C1777 C1774 1.403 . S
C1777 C1778 1.392 . S
C1777 C1781 1.495 . S
C1778 C1777 1.392 . S
C1778 C1779 1.385 1_655 S
C1778 C1780 1.478 . S
C1779 H1773 0.930 . S
C1779 C1775 1.400 . S
C1779 C1778 1.385 1_455 S
C1780 C1778 1.478 . S
C1780 C1782 1.381 . S
C1780 C1786 1.383 . S
C1781 C1777 1.495 . S
C1781 H1787 0.959 . S
C1781 H1788 0.961 . S
C1781 H1789 0.960 . S
C1782 C1780 1.381 . S
C1782 C1783 1.394 . S
C1782 H1790 0.930 . S
C1783 C1782 1.394 . S
C1783 C1784 1.383 . S
C1783 H1791 0.929 . S
C1784 C1783 1.383 . S
C1784 C1785 1.377 . S
C1785 H1769 0.930 . S
C1785 C1784 1.377 . S
C1785 C1786 1.379 . S
C1786 H1770 0.931 1_655 S
C1786 C1780 1.383 . S
C1786 C1785 1.379 . S
H1787 C1781 0.959 . S
H1788 C1781 0.961 . S
H1789 C1781 0.960 . S
H1790 C1782 0.930 . S
H1791 C1783 0.929 . S
H1792 C1800 0.929 . S
H1793 C1802 0.930 . S
H1794 C1804 0.930 . S
H1795 C1807 0.929 . S
H1796 C1810 0.930 . S
H1797 C1812 0.960 . S
H1798 C1812 0.960 . S
H1799 C1812 0.960 . S
C1800 H1792 0.929 . S
C1800 C1801 1.377 . S
C1800 C1802 1.384 . S
C1801 C1800 1.377 . S
C1801 C1807 1.390 . S
C1802 H1793 0.930 . S
C1802 C1800 1.384 . S
C1802 C1803 1.372 . S
C1803 C1802 1.372 . S
C1803 C1804 1.400 . S
C1803 C1808 1.490 . S
C1804 H1794 0.930 . S
C1804 C1803 1.400 . S
C1804 C1807 1.386 . S
H1805 C1821 0.930 . S
H1806 C1822 0.931 . S
C1807 H1795 0.929 . S
C1807 C1801 1.390 . S
C1807 C1804 1.386 . S
C1808 C1803 1.490 . S
C1808 C1810 1.395 . S
C1808 C1811 1.403 . S
H1809 C1815 0.930 . S
C1810 H1796 0.930 . S
C1810 C1808 1.395 . S
C1810 C1813 1.403 . S
C1811 C1808 1.403 . S
C1811 C1812 1.524 . S
C1811 C1815 1.400 . S
C1812 H1797 0.960 . S
C1812 H1798 0.960 . S
C1812 H1799 0.960 . S
C1812 C1811 1.524 . S
C1813 C1810 1.403 . S
C1813 C1814 1.392 . S
C1813 C1817 1.495 . S
C1814 C1813 1.392 . S
C1814 C1815 1.385 . S
C1814 C1816 1.478 . S
C1815 H1809 0.930 . S
C1815 C1811 1.400 . S
C1815 C1814 1.385 . S
C1816 C1814 1.478 . S
C1816 C1818 1.381 . S
C1816 C1822 1.383 . S
C1817 C1813 1.495 . S
C1817 H1823 0.959 . S
C1817 H1824 0.961 . S
C1817 H1825 0.960 . S
C1818 C1816 1.381 . S
C1818 C1819 1.394 . S
C1818 H1826 0.930 . S
C1819 C1818 1.394 . S
C1819 C1820 1.383 . S
C1819 H1827 0.929 . S
C1820 C1819 1.383 . S
C1820 C1821 1.377 . S
C1821 H1805 0.930 . S
C1821 C1820 1.377 . S
C1821 C1822 1.379 . S
C1822 H1806 0.931 . S
C1822 C1816 1.383 . S
C1822 C1821 1.379 . S
H1823 C1817 0.959 . S
H1824 C1817 0.961 . S
H1825 C1817 0.960 . S
H1826 C1818 0.930 . S
H1827 C1819 0.929 . S
H1828 C1836 0.929 . S
H1829 C1838 0.930 . S
H1830 C1840 0.930 . S
H1831 C1843 0.929 . S
H1832 C1846 0.930 . S
H1833 C1848 0.960 . S
H1834 C1848 0.960 . S
H1835 C1848 0.960 . S
C1836 H1828 0.929 . S
C1836 C1837 1.377 . S
C1836 C1838 1.384 . S
C1837 C1836 1.377 . S
C1837 C1843 1.390 . S
C1838 H1829 0.930 . S
C1838 C1836 1.384 . S
C1838 C1839 1.372 . S
C1839 C1838 1.372 . S
C1839 C1840 1.400 . S
C1839 C1844 1.490 . S
C1840 H1830 0.930 . S
C1840 C1839 1.400 . S
C1840 C1843 1.386 . S
H1841 C1857 0.930 . S
H1842 C1858 0.931 . S
C1843 H1831 0.929 . S
C1843 C1837 1.390 . S
C1843 C1840 1.386 . S
C1844 C1839 1.490 . S
C1844 C1846 1.395 . S
C1844 C1847 1.403 . S
H1845 C1851 0.930 . S
C1846 H1832 0.930 . S
C1846 C1844 1.395 . S
C1846 C1849 1.403 . S
C1847 C1844 1.403 . S
C1847 C1848 1.524 . S
C1847 C1851 1.400 . S
C1848 H1833 0.960 . S
C1848 H1834 0.960 . S
C1848 H1835 0.960 . S
C1848 C1847 1.524 . S
C1849 C1846 1.403 . S
C1849 C1850 1.392 . S
C1849 C1853 1.495 . S
C1850 C1849 1.392 . S
C1850 C1851 1.385 . S
C1850 C1852 1.478 . S
C1851 H1845 0.930 . S
C1851 C1847 1.400 . S
C1851 C1850 1.385 . S
C1852 C1850 1.478 . S
C1852 C1854 1.381 . S
C1852 C1858 1.383 . S
C1853 C1849 1.495 . S
C1853 H1859 0.959 . S
C1853 H1860 0.961 . S
C1853 H1861 0.960 . S
C1854 C1852 1.381 . S
C1854 C1855 1.394 . S
C1854 H1862 0.930 . S
C1855 C1854 1.394 . S
C1855 C1856 1.383 . S
C1855 H1863 0.929 . S
C1856 C1855 1.383 . S
C1856 C1857 1.377 . S
C1857 H1841 0.930 . S
C1857 C1856 1.377 . S
C1857 C1858 1.379 . S
C1858 H1842 0.931 . S
C1858 C1852 1.383 . S
C1858 C1857 1.379 . S
H1859 C1853 0.959 . S
H1860 C1853 0.961 . S
H1861 C1853 0.960 . S
H1862 C1854 0.930 . S
H1863 C1855 0.929 . S
H1864 C1872 0.929 . S
H1865 C1874 0.930 . S
H1866 C1876 0.930 . S
H1867 C1879 0.929 . S
H1868 C1882 0.930 . S
H1869 C1884 0.960 . S
H1870 C1884 0.960 . S
H1871 C1884 0.960 . S
C1872 H1864 0.929 . S
C1872 C1873 1.377 . S
C1872 C1874 1.384 . S
C1873 C1872 1.377 . S
C1873 C1879 1.390 . S
C1874 H1865 0.930 . S
C1874 C1872 1.384 . S
C1874 C1875 1.372 . S
C1875 C1874 1.372 . S
C1875 C1876 1.400 . S
C1875 C1880 1.490 . S
C1876 H1866 0.930 . S
C1876 C1875 1.400 . S
C1876 C1879 1.386 . S
H1877 C1893 0.930 . S
H1878 C1894 0.931 . S
C1879 H1867 0.929 . S
C1879 C1873 1.390 . S
C1879 C1876 1.386 . S
C1880 C1875 1.490 . S
C1880 C1882 1.395 . S
C1880 C1883 1.403 . S
H1881 C1887 0.930 . S
C1882 H1868 0.930 . S
C1882 C1880 1.395 . S
C1882 C1885 1.403 . S
C1883 C1880 1.403 . S
C1883 C1884 1.524 . S
C1883 C1887 1.400 . S
C1884 H1869 0.960 . S
C1884 H1870 0.960 . S
C1884 H1871 0.960 . S
C1884 C1883 1.524 . S
C1885 C1882 1.403 . S
C1885 C1886 1.392 . S
C1885 C1889 1.495 . S
C1886 C1885 1.392 . S
C1886 C1887 1.385 . S
C1886 C1888 1.478 . S
C1887 H1881 0.930 . S
C1887 C1883 1.400 . S
C1887 C1886 1.385 . S
C1888 C1886 1.478 . S
C1888 C1890 1.381 . S
C1888 C1894 1.383 . S
C1889 C1885 1.495 . S
C1889 H1895 0.959 . S
C1889 H1896 0.961 . S
C1889 H1897 0.960 . S
C1890 C1888 1.381 . S
C1890 C1891 1.394 . S
C1890 H1898 0.930 . S
C1891 C1890 1.394 . S
C1891 C1892 1.383 . S
C1891 H1899 0.929 . S
C1892 C1891 1.383 . S
C1892 C1893 1.377 . S
C1893 H1877 0.930 . S
C1893 C1892 1.377 . S
C1893 C1894 1.379 . S
C1894 H1878 0.931 . S
C1894 C1888 1.383 . S
C1894 C1893 1.379 . S
H1895 C1889 0.959 . S
H1896 C1889 0.961 . S
H1897 C1889 0.960 . S
H1898 C1890 0.930 . S
H1899 C1891 0.929 . S
H1900 C1908 0.929 . S
H1901 C1910 0.930 . S
H1902 C1912 0.930 . S
H1903 C1915 0.929 . S
H1904 C1918 0.930 . S
H1905 C1920 0.960 . S
H1906 C1920 0.960 . S
H1907 C1920 0.960 . S
C1908 H1900 0.929 . S
C1908 C1909 1.377 . S
C1908 C1910 1.383 1_655 S
C1909 C1908 1.377 . S
C1909 C1915 1.390 . S
C1910 H1901 0.930 . S
C1910 C1908 1.383 1_455 S
C1910 C1911 1.373 . S
C1911 C1910 1.373 . S
C1911 C1912 1.400 . S
C1911 C1916 1.490 . S
C1912 H1902 0.930 . S
C1912 C1911 1.400 . S
C1912 C1915 1.386 1_455 S
H1913 C1929 0.930 . S
H1914 C1930 0.931 . S
C1915 H1903 0.929 . S
C1915 C1909 1.390 . S
C1915 C1912 1.386 1_655 S
C1916 C1911 1.490 . S
C1916 C1918 1.395 . S
C1916 C1919 1.403 . S
H1917 C1923 0.930 . S
C1918 H1904 0.930 . S
C1918 C1916 1.395 . S
C1918 C1921 1.403 . S
C1919 C1916 1.403 . S
C1919 C1920 1.524 . S
C1919 C1923 1.400 . S
C1920 H1905 0.960 . S
C1920 H1906 0.960 . S
C1920 H1907 0.960 . S
C1920 C1919 1.524 . S
C1921 C1918 1.403 . S
C1921 C1922 1.392 . S
C1921 C1925 1.495 . S
C1922 C1921 1.392 . S
C1922 C1923 1.385 . S
C1922 C1924 1.478 . S
C1923 H1917 0.930 . S
C1923 C1919 1.400 . S
C1923 C1922 1.385 . S
C1924 C1922 1.478 . S
C1924 C1926 1.381 . S
C1924 C1930 1.383 . S
C1925 C1921 1.495 . S
C1925 H1931 0.959 . S
C1925 H1932 0.961 . S
C1925 H1933 0.960 . S
C1926 C1924 1.381 . S
C1926 C1927 1.394 . S
C1926 H1934 0.930 . S
C1927 C1926 1.394 . S
C1927 C1928 1.383 . S
C1927 H1935 0.929 . S
C1928 C1927 1.383 . S
C1928 C1929 1.377 . S
C1929 H1913 0.930 . S
C1929 C1928 1.377 . S
C1929 C1930 1.379 . S
C1930 H1914 0.931 . S
C1930 C1924 1.383 . S
C1930 C1929 1.379 . S
H1931 C1925 0.959 . S
H1932 C1925 0.961 . S
H1933 C1925 0.960 . S
H1934 C1926 0.930 . S
H1935 C1927 0.929 . S
H1936 C1944 0.929 . S
H1937 C1946 0.930 . S
H1938 C1948 0.930 . S
H1939 C1951 0.929 . S
H1940 C1954 0.930 . S
H1941 C1956 0.960 . S
H1942 C1956 0.960 . S
H1943 C1956 0.960 . S
C1944 H1936 0.929 . S
C1944 C1945 1.377 . S
C1944 C1946 1.384 . S
C1945 C1944 1.377 . S
C1945 C1951 1.390 . S
C1946 H1937 0.930 . S
C1946 C1944 1.384 . S
C1946 C1947 1.372 . S
C1947 C1946 1.372 . S
C1947 C1948 1.400 . S
C1947 C1952 1.490 . S
C1948 H1938 0.930 . S
C1948 C1947 1.400 . S
C1948 C1951 1.386 . S
H1949 C1965 0.930 . S
H1950 C1966 0.931 . S
C1951 H1939 0.929 . S
C1951 C1945 1.390 . S
C1951 C1948 1.386 . S
C1952 C1947 1.490 . S
C1952 C1954 1.395 . S
C1952 C1955 1.403 . S
H1953 C1959 0.930 . S
C1954 H1940 0.930 . S
C1954 C1952 1.395 . S
C1954 C1957 1.403 . S
C1955 C1952 1.403 . S
C1955 C1956 1.524 . S
C1955 C1959 1.400 . S
C1956 H1941 0.960 . S
C1956 H1942 0.960 . S
C1956 H1943 0.960 . S
C1956 C1955 1.524 . S
C1957 C1954 1.403 . S
C1957 C1958 1.392 . S
C1957 C1961 1.495 . S
C1958 C1957 1.392 . S
C1958 C1959 1.385 . S
C1958 C1960 1.478 . S
C1959 H1953 0.930 . S
C1959 C1955 1.400 . S
C1959 C1958 1.385 . S
C1960 C1958 1.478 . S
C1960 C1962 1.381 . S
C1960 C1966 1.383 . S
C1961 C1957 1.495 . S
C1961 H1967 0.959 . S
C1961 H1968 0.961 . S
C1961 H1969 0.960 . S
C1962 C1960 1.381 . S
C1962 C1963 1.394 . S
C1962 H1970 0.930 . S
C1963 C1962 1.394 . S
C1963 C1964 1.383 . S
C1963 H1971 0.929 . S
C1964 C1963 1.383 . S
C1964 C1965 1.377 . S
C1965 H1949 0.930 . S
C1965 C1964 1.377 . S
C1965 C1966 1.379 . S
C1966 H1950 0.931 . S
C1966 C1960 1.383 . S
C1966 C1965 1.379 . S
H1967 C1961 0.959 . S
H1968 C1961 0.961 . S
H1969 C1961 0.960 . S
H1970 C1962 0.930 . S
H1971 C1963 0.929 . S
H1972 C1980 0.929 . S
H1973 C1982 0.930 . S
H1974 C1984 0.930 . S
H1975 C1987 0.929 . S
H1976 C1990 0.930 . S
H1977 C1992 0.960 . S
H1978 C1992 0.960 . S
H1979 C1992 0.960 . S
C1980 H1972 0.929 . S
C1980 C1981 1.377 . S
C1980 C1982 1.384 . S
C1981 C1980 1.377 . S
C1981 C1987 1.390 . S
C1982 H1973 0.930 . S
C1982 C1980 1.384 . S
C1982 C1983 1.372 . S
C1983 C1982 1.372 . S
C1983 C1984 1.400 . S
C1983 C1988 1.490 . S
C1984 H1974 0.930 . S
C1984 C1983 1.400 . S
C1984 C1987 1.386 . S
H1985 C2001 0.930 . S
H1986 C2002 0.931 . S
C1987 H1975 0.929 . S
C1987 C1981 1.390 . S
C1987 C1984 1.386 . S
C1988 C1983 1.490 . S
C1988 C1990 1.395 . S
C1988 C1991 1.403 . S
H1989 C1995 0.930 . S
C1990 H1976 0.930 . S
C1990 C1988 1.395 . S
C1990 C1993 1.403 . S
C1991 C1988 1.403 . S
C1991 C1992 1.524 . S
C1991 C1995 1.400 . S
C1992 H1977 0.960 . S
C1992 H1978 0.960 . S
C1992 H1979 0.960 . S
C1992 C1991 1.524 . S
C1993 C1990 1.403 . S
C1993 C1994 1.392 . S
C1993 C1997 1.495 . S
C1994 C1993 1.392 . S
C1994 C1995 1.385 . S
C1994 C1996 1.478 . S
C1995 H1989 0.930 . S
C1995 C1991 1.400 . S
C1995 C1994 1.385 . S
C1996 C1994 1.478 . S
C1996 C1998 1.381 . S
C1996 C2002 1.383 . S
C1997 C1993 1.495 . S
C1997 H2003 0.959 . S
C1997 H2004 0.961 . S
C1997 H2005 0.960 . S
C1998 C1996 1.381 . S
C1998 C1999 1.394 . S
C1998 H2006 0.930 . S
C1999 C1998 1.394 . S
C1999 C2000 1.383 . S
C1999 H2007 0.929 . S
C2000 C1999 1.383 . S
C2000 C2001 1.377 . S
C2001 H1985 0.930 . S
C2001 C2000 1.377 . S
C2001 C2002 1.379 . S
C2002 H1986 0.931 . S
C2002 C1996 1.383 . S
C2002 C2001 1.379 . S
H2003 C1997 0.959 . S
H2004 C1997 0.961 . S
H2005 C1997 0.960 . S
H2006 C1998 0.930 . S
H2007 C1999 0.929 . S
H2008 C2016 0.929 . S
H2009 C2018 0.930 . S
H2010 C2020 0.930 . S
H2011 C2023 0.929 . S
H2012 C2026 0.930 . S
H2013 C2028 0.960 . S
H2014 C2028 0.960 . S
H2015 C2028 0.960 . S
C2016 H2008 0.929 . S
C2016 C2017 1.377 . S
C2016 C2018 1.384 . S
C2017 C2016 1.377 . S
C2017 C2023 1.390 . S
C2018 H2009 0.930 . S
C2018 C2016 1.384 . S
C2018 C2019 1.372 . S
C2019 C2018 1.372 . S
C2019 C2020 1.400 . S
C2019 C2024 1.490 . S
C2020 H2010 0.930 . S
C2020 C2019 1.400 . S
C2020 C2023 1.386 . S
H2021 C2037 0.930 . S
H2022 C2038 0.931 . S
C2023 H2011 0.929 . S
C2023 C2017 1.390 . S
C2023 C2020 1.386 . S
C2024 C2019 1.490 . S
C2024 C2026 1.395 . S
C2024 C2027 1.403 . S
H2025 C2031 0.930 . S
C2026 H2012 0.930 . S
C2026 C2024 1.395 . S
C2026 C2029 1.403 . S
C2027 C2024 1.403 . S
C2027 C2028 1.524 . S
C2027 C2031 1.400 . S
C2028 H2013 0.960 . S
C2028 H2014 0.960 . S
C2028 H2015 0.960 . S
C2028 C2027 1.524 . S
C2029 C2026 1.403 . S
C2029 C2030 1.392 . S
C2029 C2033 1.495 . S
C2030 C2029 1.392 . S
C2030 C2031 1.385 . S
C2030 C2032 1.478 . S
C2031 H2025 0.930 . S
C2031 C2027 1.400 . S
C2031 C2030 1.385 . S
C2032 C2030 1.478 . S
C2032 C2034 1.381 . S
C2032 C2038 1.383 . S
C2033 C2029 1.495 . S
C2033 H2039 0.959 . S
C2033 H2040 0.961 . S
C2033 H2041 0.960 . S
C2034 C2032 1.381 . S
C2034 C2035 1.394 . S
C2034 H2042 0.930 . S
C2035 C2034 1.394 . S
C2035 C2036 1.383 . S
C2035 H2043 0.929 . S
C2036 C2035 1.383 . S
C2036 C2037 1.377 . S
C2037 H2021 0.930 . S
C2037 C2036 1.377 . S
C2037 C2038 1.379 . S
C2038 H2022 0.931 . S
C2038 C2032 1.383 . S
C2038 C2037 1.379 . S
H2039 C2033 0.959 . S
H2040 C2033 0.961 . S
H2041 C2033 0.960 . S
H2042 C2034 0.930 . S
H2043 C2035 0.929 . S
H2044 C2052 0.929 . S
H2045 C2054 0.930 . S
H2046 C2056 0.930 . S
H2047 C2059 0.929 . S
H2048 C2062 0.930 . S
H2049 C2064 0.960 . S
H2050 C2064 0.960 . S
H2051 C2064 0.960 . S
C2052 H2044 0.929 . S
C2052 C2053 1.377 . S
C2052 C2054 1.384 . S
C2053 C2052 1.377 . S
C2053 C2059 1.390 . S
C2054 H2045 0.930 . S
C2054 C2052 1.384 . S
C2054 C2055 1.372 . S
C2055 C2054 1.372 . S
C2055 C2056 1.400 . S
C2055 C2060 1.490 . S
C2056 H2046 0.930 . S
C2056 C2055 1.400 . S
C2056 C2059 1.386 . S
H2057 C2073 0.930 . S
H2058 C2074 0.931 . S
C2059 H2047 0.929 . S
C2059 C2053 1.390 . S
C2059 C2056 1.386 . S
C2060 C2055 1.490 . S
C2060 C2062 1.395 . S
C2060 C2063 1.403 . S
H2061 C2067 0.930 . S
C2062 H2048 0.930 . S
C2062 C2060 1.395 . S
C2062 C2065 1.403 . S
C2063 C2060 1.403 . S
C2063 C2064 1.524 . S
C2063 C2067 1.400 . S
C2064 H2049 0.960 . S
C2064 H2050 0.960 . S
C2064 H2051 0.960 . S
C2064 C2063 1.524 . S
C2065 C2062 1.403 . S
C2065 C2066 1.392 . S
C2065 C2069 1.495 . S
C2066 C2065 1.392 . S
C2066 C2067 1.385 . S
C2066 C2068 1.478 . S
C2067 H2061 0.930 . S
C2067 C2063 1.400 . S
C2067 C2066 1.385 . S
C2068 C2066 1.478 . S
C2068 C2070 1.381 . S
C2068 C2074 1.383 . S
C2069 C2065 1.495 . S
C2069 H2075 0.959 . S
C2069 H2076 0.961 . S
C2069 H2077 0.960 . S
C2070 C2068 1.381 . S
C2070 C2071 1.394 1_655 S
C2070 H2078 0.930 . S
C2071 C2070 1.394 1_455 S
C2071 C2072 1.383 . S
C2071 H2079 0.929 . S
C2072 C2071 1.383 . S
C2072 C2073 1.377 . S
C2073 H2057 0.930 . S
C2073 C2072 1.377 . S
C2073 C2074 1.379 1_455 S
C2074 H2058 0.931 . S
C2074 C2068 1.383 . S
C2074 C2073 1.379 1_655 S
H2075 C2069 0.959 . S
H2076 C2069 0.961 . S
H2077 C2069 0.960 . S
H2078 C2070 0.930 . S
H2079 C2071 0.929 . S
H2080 C2088 0.929 . S
H2081 C2090 0.930 . S
H2082 C2092 0.930 . S
H2083 C2095 0.929 . S
H2084 C2098 0.930 . S
H2085 C2100 0.960 . S
H2086 C2100 0.960 . S
H2087 C2100 0.960 . S
C2088 H2080 0.929 . S
C2088 C2089 1.377 . S
C2088 C2090 1.384 . S
C2089 C2088 1.377 . S
C2089 C2095 1.390 . S
C2090 H2081 0.930 . S
C2090 C2088 1.384 . S
C2090 C2091 1.372 . S
C2091 C2090 1.372 . S
C2091 C2092 1.400 . S
C2091 C2096 1.490 . S
C2092 H2082 0.930 . S
C2092 C2091 1.400 . S
C2092 C2095 1.386 . S
H2093 C2109 0.930 . S
H2094 C2110 0.931 . S
C2095 H2083 0.929 . S
C2095 C2089 1.390 . S
C2095 C2092 1.386 . S
C2096 C2091 1.490 . S
C2096 C2098 1.395 . S
C2096 C2099 1.403 . S
H2097 C2103 0.930 . S
C2098 H2084 0.930 . S
C2098 C2096 1.395 . S
C2098 C2101 1.403 . S
C2099 C2096 1.403 . S
C2099 C2100 1.524 . S
C2099 C2103 1.400 . S
C2100 H2085 0.960 . S
C2100 H2086 0.960 . S
C2100 H2087 0.960 . S
C2100 C2099 1.524 . S
C2101 C2098 1.403 . S
C2101 C2102 1.392 . S
C2101 C2105 1.495 . S
C2102 C2101 1.392 . S
C2102 C2103 1.385 . S
C2102 C2104 1.478 . S
C2103 H2097 0.930 . S
C2103 C2099 1.400 . S
C2103 C2102 1.385 . S
C2104 C2102 1.478 . S
C2104 C2106 1.381 . S
C2104 C2110 1.383 . S
C2105 C2101 1.495 . S
C2105 H2111 0.959 . S
C2105 H2112 0.961 . S
C2105 H2113 0.960 . S
C2106 C2104 1.381 . S
C2106 C2107 1.394 . S
C2106 H2114 0.930 . S
C2107 C2106 1.394 . S
C2107 C2108 1.383 . S
C2107 H2115 0.929 . S
C2108 C2107 1.383 . S
C2108 C2109 1.377 . S
C2109 H2093 0.930 . S
C2109 C2108 1.377 . S
C2109 C2110 1.379 . S
C2110 H2094 0.931 . S
C2110 C2104 1.383 . S
C2110 C2109 1.379 . S
H2111 C2105 0.959 . S
H2112 C2105 0.961 . S
H2113 C2105 0.960 . S
H2114 C2106 0.930 . S
H2115 C2107 0.929 . S
H2116 C2124 0.929 . S
H2117 C2126 0.930 . S
H2118 C2128 0.930 . S
H2119 C2131 0.929 . S
H2120 C2134 0.930 . S
H2121 C2136 0.960 . S
H2122 C2136 0.960 . S
H2123 C2136 0.960 . S
C2124 H2116 0.929 . S
C2124 C2125 1.377 . S
C2124 C2126 1.384 . S
C2125 C2124 1.377 . S
C2125 C2131 1.390 . S
C2126 H2117 0.930 . S
C2126 C2124 1.384 . S
C2126 C2127 1.372 . S
C2127 C2126 1.372 . S
C2127 C2128 1.400 . S
C2127 C2132 1.490 . S
C2128 H2118 0.930 . S
C2128 C2127 1.400 . S
C2128 C2131 1.386 . S
H2129 C2145 0.930 . S
H2130 C2146 0.931 . S
C2131 H2119 0.929 . S
C2131 C2125 1.390 . S
C2131 C2128 1.386 . S
C2132 C2127 1.490 . S
C2132 C2134 1.395 . S
C2132 C2135 1.403 . S
H2133 C2139 0.930 . S
C2134 H2120 0.930 . S
C2134 C2132 1.395 . S
C2134 C2137 1.403 . S
C2135 C2132 1.403 . S
C2135 C2136 1.524 . S
C2135 C2139 1.400 . S
C2136 H2121 0.960 . S
C2136 H2122 0.960 . S
C2136 H2123 0.960 . S
C2136 C2135 1.524 . S
C2137 C2134 1.403 . S
C2137 C2138 1.392 . S
C2137 C2141 1.495 1_565 S
C2138 C2137 1.392 . S
C2138 C2139 1.385 . S
C2138 C2140 1.478 . S
C2139 H2133 0.930 . S
C2139 C2135 1.400 . S
C2139 C2138 1.385 . S
C2140 C2138 1.478 . S
C2140 C2142 1.381 . S
C2140 C2146 1.383 . S
C2141 C2137 1.495 1_545 S
C2141 H2147 0.959 . S
C2141 H2148 0.961 . S
C2141 H2149 0.960 . S
C2142 C2140 1.381 . S
C2142 C2143 1.394 1_655 S
C2142 H2150 0.930 . S
C2143 C2142 1.394 1_455 S
C2143 C2144 1.384 . S
C2143 H2151 0.929 1_565 S
C2144 C2143 1.384 . S
C2144 C2145 1.382 . S
C2145 H2129 0.930 . S
C2145 C2144 1.382 . S
C2145 C2146 1.379 1_455 S
C2146 H2130 0.931 . S
C2146 C2140 1.383 . S
C2146 C2145 1.379 1_655 S
H2147 C2141 0.959 . S
H2148 C2141 0.961 . S
H2149 C2141 0.960 . S
H2150 C2142 0.930 . S
H2151 C2143 0.929 1_545 S
H2152 C2160 0.929 . S
H2153 C2162 0.930 . S
H2154 C2164 0.930 . S
H2155 C2167 0.929 . S
H2156 C2170 0.930 . S
H2157 C2172 0.960 . S
H2158 C2172 0.960 . S
H2159 C2172 0.960 . S
C2160 H2152 0.929 . S
C2160 C2161 1.377 . S
C2160 C2162 1.384 . S
C2161 C2160 1.377 . S
C2161 C2167 1.390 . S
C2162 H2153 0.930 . S
C2162 C2160 1.384 . S
C2162 C2163 1.372 . S
C2163 C2162 1.372 . S
C2163 C2164 1.400 . S
C2163 C2168 1.490 . S
C2164 H2154 0.930 . S
C2164 C2163 1.400 . S
C2164 C2167 1.386 . S
H2165 C2181 0.930 . S
H2166 C2182 0.931 . S
C2167 H2155 0.929 . S
C2167 C2161 1.390 . S
C2167 C2164 1.386 . S
C2168 C2163 1.490 . S
C2168 C2170 1.395 . S
C2168 C2171 1.403 . S
H2169 C2175 0.930 . S
C2170 H2156 0.930 . S
C2170 C2168 1.395 . S
C2170 C2173 1.403 . S
C2171 C2168 1.403 . S
C2171 C2172 1.524 . S
C2171 C2175 1.400 . S
C2172 H2157 0.960 . S
C2172 H2158 0.960 . S
C2172 H2159 0.960 . S
C2172 C2171 1.524 . S
C2173 C2170 1.403 . S
C2173 C2174 1.392 . S
C2173 C2177 1.495 . S
C2174 C2173 1.392 . S
C2174 C2175 1.385 . S
C2174 C2176 1.478 . S
C2175 H2169 0.930 . S
C2175 C2171 1.400 . S
C2175 C2174 1.385 . S
C2176 C2174 1.478 . S
C2176 C2178 1.381 . S
C2176 C2182 1.383 . S
C2177 C2173 1.495 . S
C2177 H2183 0.959 . S
C2177 H2184 0.961 . S
C2177 H2185 0.960 . S
C2178 C2176 1.381 . S
C2178 C2179 1.394 . S
C2178 H2186 0.930 . S
C2179 C2178 1.394 . S
C2179 C2180 1.383 . S
C2179 H2187 0.929 . S
C2180 C2179 1.383 . S
C2180 C2181 1.377 . S
C2181 H2165 0.930 . S
C2181 C2180 1.377 . S
C2181 C2182 1.379 . S
C2182 H2166 0.931 . S
C2182 C2176 1.383 . S
C2182 C2181 1.379 . S
H2183 C2177 0.959 . S
H2184 C2177 0.961 . S
H2185 C2177 0.960 . S
H2186 C2178 0.930 . S
H2187 C2179 0.929 . S
H2188 C2196 0.929 . S
H2189 C2198 0.930 . S
H2190 C2200 0.930 1_565 S
H2191 C2203 0.929 . S
H2192 C2206 0.930 . S
H2193 C2208 0.960 . S
H2194 C2208 0.960 . S
H2195 C2208 0.960 . S
C2196 H2188 0.929 . S
C2196 C2197 1.377 . S
C2196 C2198 1.384 . S
C2197 C2196 1.377 . S
C2197 C2203 1.390 1_545 S
C2198 H2189 0.930 . S
C2198 C2196 1.384 . S
C2198 C2199 1.372 . S
C2199 C2198 1.372 . S
C2199 C2200 1.400 . S
C2199 C2204 1.490 . S
C2200 H2190 0.930 1_545 S
C2200 C2199 1.400 . S
C2200 C2203 1.386 1_545 S
H2201 C2217 0.930 . S
H2202 C2218 0.931 . S
C2203 H2191 0.929 . S
C2203 C2197 1.390 1_565 S
C2203 C2200 1.386 1_565 S
C2204 C2199 1.490 . S
C2204 C2206 1.395 . S
C2204 C2207 1.403 . S
H2205 C2211 0.930 . S
C2206 H2192 0.930 . S
C2206 C2204 1.395 . S
C2206 C2209 1.403 . S
C2207 C2204 1.403 . S
C2207 C2208 1.524 1_545 S
C2207 C2211 1.400 . S
C2208 H2193 0.960 . S
C2208 H2194 0.960 . S
C2208 H2195 0.960 . S
C2208 C2207 1.524 1_565 S
C2209 C2206 1.403 . S
C2209 C2210 1.392 . S
C2209 C2213 1.495 . S
C2210 C2209 1.392 . S
C2210 C2211 1.385 . S
C2210 C2212 1.478 . S
C2211 H2205 0.930 . S
C2211 C2207 1.400 . S
C2211 C2210 1.385 . S
C2212 C2210 1.478 . S
C2212 C2214 1.381 . S
C2212 C2218 1.383 . S
C2213 C2209 1.495 . S
C2213 H2219 0.959 . S
C2213 H2220 0.961 . S
C2213 H2221 0.960 . S
C2214 C2212 1.381 . S
C2214 C2215 1.394 . S
C2214 H2222 0.930 . S
C2215 C2214 1.394 . S
C2215 C2216 1.383 . S
C2215 H2223 0.929 . S
C2216 C2215 1.383 . S
C2216 C2217 1.377 . S
C2217 H2201 0.930 . S
C2217 C2216 1.377 . S
C2217 C2218 1.379 . S
C2218 H2202 0.931 . S
C2218 C2212 1.383 . S
C2218 C2217 1.379 . S
H2219 C2213 0.959 . S
H2220 C2213 0.961 . S
H2221 C2213 0.960 . S
H2222 C2214 0.930 . S
H2223 C2215 0.929 . S
H2224 C2232 0.929 . S
H2225 C2234 0.930 . S
H2226 C2236 0.930 . S
H2227 C2239 0.929 . S
H2228 C2242 0.930 . S
H2229 C2244 0.960 . S
H2230 C2244 0.960 . S
H2231 C2244 0.960 . S
C2232 H2224 0.929 . S
C2232 C2233 1.377 . S
C2232 C2234 1.384 . S
C2233 C2232 1.377 . S
C2233 C2239 1.390 . S
C2234 H2225 0.930 . S
C2234 C2232 1.384 . S
C2234 C2235 1.372 . S
C2235 C2234 1.372 . S
C2235 C2236 1.400 . S
C2235 C2240 1.490 . S
C2236 H2226 0.930 . S
C2236 C2235 1.400 . S
C2236 C2239 1.386 . S
H2237 C2253 0.930 . S
H2238 C2254 0.931 . S
C2239 H2227 0.929 . S
C2239 C2233 1.390 . S
C2239 C2236 1.386 . S
C2240 C2235 1.490 . S
C2240 C2242 1.395 . S
C2240 C2243 1.403 . S
H2241 C2247 0.930 . S
C2242 H2228 0.930 . S
C2242 C2240 1.395 . S
C2242 C2245 1.403 . S
C2243 C2240 1.403 . S
C2243 C2244 1.524 . S
C2243 C2247 1.400 . S
C2244 H2229 0.960 . S
C2244 H2230 0.960 . S
C2244 H2231 0.960 . S
C2244 C2243 1.524 . S
C2245 C2242 1.403 . S
C2245 C2246 1.392 . S
C2245 C2249 1.495 . S
C2246 C2245 1.392 . S
C2246 C2247 1.385 . S
C2246 C2248 1.478 . S
C2247 H2241 0.930 . S
C2247 C2243 1.400 . S
C2247 C2246 1.385 . S
C2248 C2246 1.478 . S
C2248 C2250 1.381 . S
C2248 C2254 1.383 . S
C2249 C2245 1.495 . S
C2249 H2255 0.959 . S
C2249 H2256 0.961 . S
C2249 H2257 0.960 . S
C2250 C2248 1.381 . S
C2250 C2251 1.394 . S
C2250 H2258 0.930 . S
C2251 C2250 1.394 . S
C2251 C2252 1.383 . S
C2251 H2259 0.929 . S
C2252 C2251 1.383 . S
C2252 C2253 1.377 . S
C2253 H2237 0.930 . S
C2253 C2252 1.377 . S
C2253 C2254 1.379 . S
C2254 H2238 0.931 . S
C2254 C2248 1.383 . S
C2254 C2253 1.379 . S
H2255 C2249 0.959 . S
H2256 C2249 0.961 . S
H2257 C2249 0.960 . S
H2258 C2250 0.930 . S
H2259 C2251 0.929 . S
H2260 C2268 0.929 . S
H2261 C2270 0.930 . S
H2262 C2272 0.930 . S
H2263 C2275 0.929 . S
H2264 C2278 0.930 . S
H2265 C2280 0.960 . S
H2266 C2280 0.960 . S
H2267 C2280 0.960 . S
C2268 H2260 0.929 . S
C2268 C2269 1.377 . S
C2268 C2270 1.384 1_655 S
C2269 C2268 1.377 . S
C2269 C2275 1.390 . S
C2270 H2261 0.930 . S
C2270 C2268 1.384 1_455 S
C2270 C2271 1.372 . S
C2271 C2270 1.372 . S
C2271 C2272 1.400 . S
C2271 C2276 1.490 . S
C2272 H2262 0.930 . S
C2272 C2271 1.400 . S
C2272 C2275 1.386 1_455 S
H2273 C2289 0.930 . S
H2274 C2290 0.931 . S
C2275 H2263 0.929 . S
C2275 C2269 1.390 . S
C2275 C2272 1.386 1_655 S
C2276 C2271 1.490 . S
C2276 C2278 1.395 . S
C2276 C2279 1.403 . S
H2277 C2283 0.930 . S
C2278 H2264 0.930 . S
C2278 C2276 1.395 . S
C2278 C2281 1.403 . S
C2279 C2276 1.403 . S
C2279 C2280 1.524 . S
C2279 C2283 1.400 . S
C2280 H2265 0.960 . S
C2280 H2266 0.960 . S
C2280 H2267 0.960 . S
C2280 C2279 1.524 . S
C2281 C2278 1.403 . S
C2281 C2282 1.392 . S
C2281 C2285 1.495 . S
C2282 C2281 1.392 . S
C2282 C2283 1.385 . S
C2282 C2284 1.478 . S
C2283 H2277 0.930 . S
C2283 C2279 1.400 . S
C2283 C2282 1.385 . S
C2284 C2282 1.478 . S
C2284 C2286 1.381 . S
C2284 C2290 1.383 . S
C2285 C2281 1.495 . S
C2285 H2291 0.959 1_545 S
C2285 H2292 0.961 . S
C2285 H2293 0.960 . S
C2286 C2284 1.381 . S
C2286 C2287 1.394 . S
C2286 H2294 0.930 . S
C2287 C2286 1.394 . S
C2287 C2288 1.383 . S
C2287 H2295 0.929 . S
C2288 C2287 1.383 . S
C2288 C2289 1.377 . S
C2289 H2273 0.930 . S
C2289 C2288 1.377 . S
C2289 C2290 1.379 . S
C2290 H2274 0.931 . S
C2290 C2284 1.383 . S
C2290 C2289 1.379 . S
H2291 C2285 0.959 1_565 S
H2292 C2285 0.961 . S
H2293 C2285 0.960 . S
H2294 C2286 0.930 . S
H2295 C2287 0.929 . S
H2296 C2304 0.929 . S
H2297 C2306 0.930 . S
H2298 C2308 0.930 . S
H2299 C2311 0.929 . S
H2300 C2314 0.930 . S
H2301 C2316 0.960 . S
H2302 C2316 0.960 . S
H2303 C2316 0.960 . S
C2304 H2296 0.929 . S
C2304 C2305 1.377 . S
C2304 C2306 1.384 . S
C2305 C2304 1.377 . S
C2305 C2311 1.390 . S
C2306 H2297 0.930 . S
C2306 C2304 1.384 . S
C2306 C2307 1.372 . S
C2307 C2306 1.372 . S
C2307 C2308 1.400 . S
C2307 C2312 1.490 . S
C2308 H2298 0.930 . S
C2308 C2307 1.400 . S
C2308 C2311 1.386 . S
H2309 C2325 0.930 . S
H2310 C2326 0.931 . S
C2311 H2299 0.929 . S
C2311 C2305 1.390 . S
C2311 C2308 1.386 . S
C2312 C2307 1.490 . S
C2312 C2314 1.395 . S
C2312 C2315 1.403 . S
H2313 C2319 0.930 . S
C2314 H2300 0.930 . S
C2314 C2312 1.395 . S
C2314 C2317 1.403 . S
C2315 C2312 1.403 . S
C2315 C2316 1.524 . S
C2315 C2319 1.400 . S
C2316 H2301 0.960 . S
C2316 H2302 0.960 . S
C2316 H2303 0.960 . S
C2316 C2315 1.524 . S
C2317 C2314 1.403 . S
C2317 C2318 1.392 . S
C2317 C2321 1.495 . S
C2318 C2317 1.392 . S
C2318 C2319 1.385 . S
C2318 C2320 1.478 . S
C2319 H2313 0.930 . S
C2319 C2315 1.400 . S
C2319 C2318 1.385 . S
C2320 C2318 1.478 . S
C2320 C2322 1.381 . S
C2320 C2326 1.383 . S
C2321 C2317 1.495 . S
C2321 H2327 0.959 . S
C2321 H2328 0.961 . S
C2321 H2329 0.960 . S
C2322 C2320 1.381 . S
C2322 C2323 1.394 . S
C2322 H2330 0.930 . S
C2323 C2322 1.394 . S
C2323 C2324 1.383 . S
C2323 H2331 0.929 . S
C2324 C2323 1.383 . S
C2324 C2325 1.377 . S
C2325 H2309 0.930 . S
C2325 C2324 1.377 . S
C2325 C2326 1.379 . S
C2326 H2310 0.931 . S
C2326 C2320 1.383 . S
C2326 C2325 1.379 . S
H2327 C2321 0.959 . S
H2328 C2321 0.961 . S
H2329 C2321 0.960 . S
H2330 C2322 0.930 . S
H2331 C2323 0.929 . S
H2332 C2340 0.929 . S
H2333 C2342 0.930 . S
H2334 C2344 0.930 . S
H2335 C2347 0.929 . S
H2336 C2350 0.930 . S
H2337 C2352 0.960 . S
H2338 C2352 0.960 . S
H2339 C2352 0.960 . S
C2340 H2332 0.929 . S
C2340 C2341 1.377 . S
C2340 C2342 1.384 . S
C2341 C2340 1.377 . S
C2341 C2347 1.390 . S
C2342 H2333 0.930 . S
C2342 C2340 1.384 . S
C2342 C2343 1.372 . S
C2343 C2342 1.372 . S
C2343 C2344 1.400 . S
C2343 C2348 1.490 . S
C2344 H2334 0.930 . S
C2344 C2343 1.400 . S
C2344 C2347 1.386 . S
H2345 C2361 0.930 . S
H2346 C2362 0.931 . S
C2347 H2335 0.929 . S
C2347 C2341 1.390 . S
C2347 C2344 1.386 . S
C2348 C2343 1.490 . S
C2348 C2350 1.395 . S
C2348 C2351 1.403 . S
H2349 C2355 0.930 . S
C2350 H2336 0.930 . S
C2350 C2348 1.395 . S
C2350 C2353 1.403 . S
C2351 C2348 1.403 . S
C2351 C2352 1.524 . S
C2351 C2355 1.400 . S
C2352 H2337 0.960 . S
C2352 H2338 0.960 . S
C2352 H2339 0.960 . S
C2352 C2351 1.524 . S
C2353 C2350 1.403 . S
C2353 C2354 1.392 . S
C2353 C2357 1.495 1_565 S
C2354 C2353 1.392 . S
C2354 C2355 1.385 . S
C2354 C2356 1.478 . S
C2355 H2349 0.930 . S
C2355 C2351 1.400 . S
C2355 C2354 1.385 . S
C2356 C2354 1.478 . S
C2356 C2358 1.381 . S
C2356 C2362 1.383 . S
C2357 C2353 1.495 1_545 S
C2357 H2363 0.959 . S
C2357 H2364 0.961 . S
C2357 H2365 0.960 . S
C2358 C2356 1.381 . S
C2358 C2359 1.394 1_565 S
C2358 H2366 0.930 . S
C2359 C2358 1.394 1_545 S
C2359 C2360 1.382 1_545 S
C2359 H2367 0.929 . S
C2360 C2359 1.382 1_565 S
C2360 C2361 1.383 . S
C2361 H2345 0.930 . S
C2361 C2360 1.383 . S
C2361 C2362 1.379 . S
C2362 H2346 0.931 . S
C2362 C2356 1.383 . S
C2362 C2361 1.379 . S
H2363 C2357 0.959 . S
H2364 C2357 0.961 . S
H2365 C2357 0.960 . S
H2366 C2358 0.930 . S
H2367 C2359 0.929 . S
C649 C15 1.283 . S
C668 C485 1.334 . S
C685 C205 1.286 . S
C704 C55 1.253 . S
C721 C95 1.277 . S
C740 C565 1.244 . S
C757 C135 1.294 . S
C776 C285 1.297 . S
C793 C165 1.276 . S
C812 C335 1.246 . S
C829 C415 1.295 . S
C848 C245 1.324 . S
C865 C525 1.295 . S
C884 C375 1.319 . S
C901 C455 1.293 . S
C920 C605 1.338 . S
C937 C368 1.972 . S
C956 C5 1.953 . S
C973 C45 1.955 . S
C992 C408 1.960 . S
C1009 C85 1.948 . S
C1028 C448 1.974 . S
C1045 C328 1.976 . S
C1064 C125 1.944 . S
C1081 C538 1.976 . S
C1100 C175 1.963 . S
C1117 C578 1.976 . S
C1136 C215 1.954 . S
C1153 C255 1.948 . S
C1172 C618 1.957 . S
C1189 C498 1.976 . S
C1208 C295 1.956 . S
C1225 C325 1.948 . S
C1244 C48 1.982 . S
C1261 C365 1.954 . S
C1280 C88 1.966 . S
C1297 C405 1.953 . S
C1316 C128 1.958 . S
C1333 C8 1.976 . S
C1352 C445 1.930 . S
C1369 C218 1.974 . S
C1388 C495 1.944 . S
C1405 C535 1.951 . S
C1424 C258 1.965 . S
C1441 C298 1.973 . S
C1460 C575 1.948 . S
C1477 C615 1.949 . S
C1496 C178 1.967 . S
C1513 C19 3.248 . S
C1532 C419 3.247 . S
C1549 C59 3.248 . S
C1568 C459 3.254 . S
C1585 C339 3.250 . S
C1604 C99 3.246 . S
C1621 C139 3.248 . S
C1640 C379 3.253 . S
C1657 C169 3.251 . S
C1676 C569 3.239 . S
C1693 C209 3.251 . S
C1712 C609 3.251 . S
C1729 C489 3.248 . S
C1748 C249 3.239 . S
C1765 C289 3.251 . S
C1784 C529 3.239 . S
C1801 C18 1.710 . S
C1820 C299 1.907 . S
C1837 C499 1.922 . S
C1856 C58 1.665 . S
C1873 C98 1.702 . S
C1892 C219 1.926 . S
C1909 C138 1.706 . S
C1928 C579 1.934 . S
C1945 C168 1.702 . S
C1964 C129 1.920 . S
C1981 C329 1.923 . S
C2000 C208 1.670 . S
C2017 C248 1.706 . S
C2036 C49 1.905 . S
C2053 C409 1.926 . S
C2072 C288 1.698 . S
C2089 C338 1.712 . S
C2108 C619 1.937 . S
C2125 C179 1.922 . S
C2144 C378 1.715 1_565 S
C2161 C539 1.923 . S
C2180 C418 1.729 . S
C2197 C458 1.716 1_545 S
C2216 C259 1.925 . S
C2233 C488 1.714 . S
C2252 C449 1.937 . S
C2269 C528 1.712 1_545 S
C2288 C9 1.913 . S
C2305 C369 1.923 . S
C2324 C568 1.718 . S
C2341 C89 1.927 . S
C2360 C608 1.709 1_565 S
