# Generated by pormake.
# Topology atn, (4)-cn, num edge types: 1
# Building blocks:
#     Node 0, Type 0, BuildingBlock: KUFVIS_clean_sbu_0, # of connection points: 4
#     Node 1, Type 0, BuildingBlock: KUFVIS_clean_sbu_0, # of connection points: 4
#     Node 2, Type 0, BuildingBlock: KUFVIS_clean_sbu_0, # of connection points: 4
#     Node 3, Type 0, BuildingBlock: KUFVIS_clean_sbu_0, # of connection points: 4
#     Node 4, Type 0, BuildingBlock: KUFVIS_clean_sbu_0, # of connection points: 4
#     Node 5, Type 0, BuildingBlock: KUFVIS_clean_sbu_0, # of connection points: 4
#     Node 6, Type 0, BuildingBlock: KUFVIS_clean_sbu_0, # of connection points: 4
#     Node 7, Type 0, BuildingBlock: KUFVIS_clean_sbu_0, # of connection points: 4
#     Node 8, Type 0, BuildingBlock: KUFVIS_clean_sbu_0, # of connection points: 4
#     Node 9, Type 0, BuildingBlock: KUFVIS_clean_sbu_0, # of connection points: 4
#     Node 10, Type 0, BuildingBlock: KUFVIS_clean_sbu_0, # of connection points: 4
#     Node 11, Type 0, BuildingBlock: KUFVIS_clean_sbu_0, # of connection points: 4
#     Node 12, Type 0, BuildingBlock: KUFVIS_clean_sbu_0, # of connection points: 4
#     Node 13, Type 0, BuildingBlock: KUFVIS_clean_sbu_0, # of connection points: 4
#     Node 14, Type 0, BuildingBlock: KUFVIS_clean_sbu_0, # of connection points: 4
#     Node 15, Type 0, BuildingBlock: KUFVIS_clean_sbu_0, # of connection points: 4
#     Edge 16, Type (0, 0), BuildingBlock: MIFKUJ_clean_linker_0, # of connection points: 2
#     Edge 17, Type (0, 0), BuildingBlock: MIFKUJ_clean_linker_0, # of connection points: 2
#     Edge 18, Type (0, 0), BuildingBlock: MIFKUJ_clean_linker_0, # of connection points: 2
#     Edge 19, Type (0, 0), BuildingBlock: MIFKUJ_clean_linker_0, # of connection points: 2
#     Edge 20, Type (0, 0), BuildingBlock: MIFKUJ_clean_linker_0, # of connection points: 2
#     Edge 21, Type (0, 0), BuildingBlock: MIFKUJ_clean_linker_0, # of connection points: 2
#     Edge 22, Type (0, 0), BuildingBlock: MIFKUJ_clean_linker_0, # of connection points: 2
#     Edge 23, Type (0, 0), BuildingBlock: MIFKUJ_clean_linker_0, # of connection points: 2
#     Edge 24, Type (0, 0), BuildingBlock: MIFKUJ_clean_linker_0, # of connection points: 2
#     Edge 25, Type (0, 0), BuildingBlock: MIFKUJ_clean_linker_0, # of connection points: 2
#     Edge 26, Type (0, 0), BuildingBlock: MIFKUJ_clean_linker_0, # of connection points: 2
#     Edge 27, Type (0, 0), BuildingBlock: MIFKUJ_clean_linker_0, # of connection points: 2
#     Edge 28, Type (0, 0), BuildingBlock: MIFKUJ_clean_linker_0, # of connection points: 2
#     Edge 29, Type (0, 0), BuildingBlock: MIFKUJ_clean_linker_0, # of connection points: 2
#     Edge 30, Type (0, 0), BuildingBlock: MIFKUJ_clean_linker_0, # of connection points: 2
#     Edge 31, Type (0, 0), BuildingBlock: MIFKUJ_clean_linker_0, # of connection points: 2
#     Edge 32, Type (0, 0), BuildingBlock: MIFKUJ_clean_linker_0, # of connection points: 2
#     Edge 33, Type (0, 0), BuildingBlock: MIFKUJ_clean_linker_0, # of connection points: 2
#     Edge 34, Type (0, 0), BuildingBlock: MIFKUJ_clean_linker_0, # of connection points: 2
#     Edge 35, Type (0, 0), BuildingBlock: MIFKUJ_clean_linker_0, # of connection points: 2
#     Edge 36, Type (0, 0), BuildingBlock: MIFKUJ_clean_linker_0, # of connection points: 2
#     Edge 37, Type (0, 0), BuildingBlock: MIFKUJ_clean_linker_0, # of connection points: 2
#     Edge 38, Type (0, 0), BuildingBlock: MIFKUJ_clean_linker_0, # of connection points: 2
#     Edge 39, Type (0, 0), BuildingBlock: MIFKUJ_clean_linker_0, # of connection points: 2
#     Edge 40, Type (0, 0), BuildingBlock: MIFKUJ_clean_linker_0, # of connection points: 2
#     Edge 41, Type (0, 0), BuildingBlock: MIFKUJ_clean_linker_0, # of connection points: 2
#     Edge 42, Type (0, 0), BuildingBlock: MIFKUJ_clean_linker_0, # of connection points: 2
#     Edge 43, Type (0, 0), BuildingBlock: MIFKUJ_clean_linker_0, # of connection points: 2
#     Edge 44, Type (0, 0), BuildingBlock: MIFKUJ_clean_linker_0, # of connection points: 2
#     Edge 45, Type (0, 0), BuildingBlock: MIFKUJ_clean_linker_0, # of connection points: 2
#     Edge 46, Type (0, 0), BuildingBlock: MIFKUJ_clean_linker_0, # of connection points: 2
#     Edge 47, Type (0, 0), BuildingBlock: MIFKUJ_clean_linker_0, # of connection points: 2
# Relax obj value: 0.055
# Max RMSD: 0.082
# Mean RMSD: 0.082
data_MOF--net-atn--node1-KUFVIS_clean_sbu_0--edge1-MIFKUJ_clean_linker_0
_symmetry_space_group_name_H-M    P1
_symmetry_Int_Tables_number       1
_symmetry_cell_setting            triclinic
loop_
_symmetry_equiv_pos_as_xyz
'x, y, z'
_cell_length_a     78.84715
_cell_length_b     78.833581
_cell_length_c     34.466145
_cell_angle_alpha  89.99392
_cell_angle_beta   90.007187
_cell_angle_gamma 90.008729
loop_
_atom_site_label
_atom_site_type_symbol
_atom_site_fract_x
_atom_site_fract_y
_atom_site_fract_z
_atom_type_partial_charge
Mn0 Mn 0.20516 0.37139 0.01507 0.0
Mn1 Mn 0.16328 0.37974 0.022 0.0
C2 C 0.19233 0.373 0.07525 0.0
C3 C 0.22725 0.35195 0.00878 0.0
C4 C 0.18965 0.40671 0.0043 0.0
O5 O 0.19648 0.3664 0.96052 0.0
O6 O 0.16849 0.37102 0.96917 0.0
C7 C 0.15026 0.34461 0.01604 0.0
N8 N 0.15145 0.35948 0.03596 0.0
C9 C 0.13383 0.34871 0.08739 0.0
C10 C 0.13234 0.33331 0.06731 0.0
C11 C 0.14063 0.33125 0.03152 0.0
C12 C 0.14359 0.36158 0.07049 0.0
H13 H 0.15665 0.34296 0.98858 0.0
C14 C 0.18119 0.3666 0.94825 0.0
O15 O 0.22915 0.36769 0.99851 0.0
O16 O 0.21247 0.34746 0.02162 0.0
N17 N 0.15645 0.38814 0.07172 0.0
C18 C 0.15969 0.40355 0.08808 0.0
C19 C 0.1525 0.40757 0.1242 0.0
C20 C 0.14197 0.39578 0.14299 0.0
C21 C 0.13873 0.38005 0.12548 0.0
C22 C 0.14612 0.37681 0.08928 0.0
H23 H 0.16772 0.41271 0.07373 0.0
O24 O 0.2086 0.37512 0.072 0.0
O25 O 0.18416 0.37004 0.04326 0.0
O26 O 0.20262 0.39705 0.00621 0.0
O27 O 0.17447 0.40137 0.00875 0.0
C28 C 0.1286 0.36739 0.1427 0.0
C29 C 0.12621 0.3517 0.12375 0.0
H30 H 0.12497 0.32295 0.07921 0.0
H31 H 0.1396 0.31937 0.01593 0.0
H32 H 0.15508 0.41973 0.13753 0.0
H33 H 0.1365 0.39892 0.1709 0.0
H34 H 0.12273 0.36951 0.17069 0.0
H35 H 0.11859 0.34199 0.13753 0.0
Mn36 Mn 0.63012 0.20146 0.01329 0.0
Mn37 Mn 0.62301 0.15947 0.00343 0.0
C38 C 0.63156 0.18364 0.06672 0.0
C39 C 0.64846 0.2247 0.01134 0.0
C40 C 0.59478 0.18556 0.00422 0.0
O41 O 0.63295 0.19778 0.95514 0.0
O42 O 0.62883 0.16948 0.95237 0.0
C43 C 0.65767 0.14863 0.98178 0.0
N44 N 0.64407 0.1476 0.00604 0.0
C45 C 0.657 0.125 0.04223 0.0
C46 C 0.67113 0.12573 0.01757 0.0
C47 C 0.67152 0.13771 0.98741 0.0
C48 C 0.64376 0.13645 0.03576 0.0
H49 H 0.65791 0.15764 0.95817 0.0
C50 C 0.63228 0.18378 0.93667 0.0
O51 O 0.63221 0.22652 0.00699 0.0
O52 O 0.65403 0.2094 0.01682 0.0
N53 N 0.61743 0.14807 0.05069 0.0
C54 C 0.60286 0.14896 0.07186 0.0
C55 C 0.60068 0.13815 0.10385 0.0
C56 C 0.61331 0.12625 0.11311 0.0
C57 C 0.62802 0.12532 0.09036 0.0
C58 C 0.62963 0.13664 0.05931 0.0
H59 H 0.59299 0.15789 0.06448 0.0
O60 O 0.62896 0.19978 0.07119 0.0
O61 O 0.63336 0.17846 0.03124 0.0
O62 O 0.60422 0.19856 0.00909 0.0
O63 O 0.60062 0.17052 0.00124 0.0
C64 C 0.64096 0.11335 0.0967 0.0
C65 C 0.65542 0.11316 0.07256 0.0
H66 H 0.68173 0.11717 0.02153 0.0
H67 H 0.68238 0.13838 0.96827 0.0
H68 H 0.58924 0.13887 0.12109 0.0
H69 H 0.61151 0.1178 0.13756 0.0
H70 H 0.6398 0.1041 0.11976 0.0
H71 H 0.66516 0.10371 0.07712 0.0
Mn72 Mn 0.79533 0.63116 0.0112 0.0
Mn73 Mn 0.83712 0.6219 0.01457 0.0
C74 C 0.80942 0.63116 0.07004 0.0
C75 C 0.77369 0.65115 0.00307 0.0
C76 C 0.8097 0.59526 0.00396 0.0
O77 O 0.80293 0.63379 0.95483 0.0
O78 O 0.8311 0.62972 0.96155 0.0
C79 C 0.85094 0.65648 0.00357 0.0
N80 N 0.84977 0.64206 0.02515 0.0
C81 C 0.86867 0.65332 0.07354 0.0
C82 C 0.87016 0.66826 0.05172 0.0
C83 C 0.86122 0.66986 0.01663 0.0
C84 C 0.85824 0.64042 0.05905 0.0
H85 H 0.84404 0.65777 0.97665 0.0
C86 C 0.818 0.6334 0.94122 0.0
O87 O 0.77106 0.6351 0.99694 0.0
O88 O 0.78891 0.65555 0.01315 0.0
N89 N 0.84471 0.61429 0.06438 0.0
C90 C 0.84146 0.59928 0.08255 0.0
C91 C 0.8493 0.59574 0.11824 0.0
C92 C 0.86046 0.60761 0.13474 0.0
C93 C 0.86373 0.6229 0.11534 0.0
C94 C 0.85568 0.62565 0.07966 0.0
H95 H 0.83297 0.59006 0.06994 0.0
O96 O 0.79303 0.62972 0.06895 0.0
O97 O 0.81698 0.63274 0.03675 0.0
O98 O 0.79697 0.60516 0.00756 0.0
O99 O 0.82509 0.60034 0.00451 0.0
C100 C 0.87452 0.63559 0.13016 0.0
C101 C 0.87692 0.65082 0.10937 0.0
H102 H 0.87804 0.67863 0.06175 0.0
H103 H 0.86225 0.68138 0.99971 0.0
H104 H 0.84674 0.5839 0.13299 0.0
H105 H 0.86643 0.60485 0.16234 0.0
H106 H 0.88089 0.63385 0.15772 0.0
H107 H 0.88507 0.66058 0.12132 0.0
Mn108 Mn 0.37144 0.79548 0.00505 0.0
Mn109 Mn 0.37939 0.83742 0.01256 0.0
C110 C 0.37147 0.80842 0.06526 0.0
C111 C 0.3521 0.77344 0.99571 0.0
C112 C 0.40685 0.8111 0.99822 0.0
O113 O 0.36806 0.80405 0.94971 0.0
O114 O 0.37145 0.83217 0.95917 0.0
C115 C 0.34434 0.85032 0.00387 0.0
N116 N 0.35893 0.84924 0.02487 0.0
C117 C 0.34749 0.86713 0.07501 0.0
C118 C 0.33238 0.86853 0.05381 0.0
C119 C 0.33078 0.86004 0.01815 0.0
C120 C 0.36055 0.85724 0.05936 0.0
H121 H 0.34306 0.84379 0.97648 0.0
C122 C 0.36791 0.81938 0.93766 0.0
O123 O 0.36817 0.77139 0.98871 0.0
O124 O 0.34731 0.78831 0.0074 0.0
N125 N 0.38705 0.84433 0.06286 0.0
C126 C 0.40224 0.84121 0.08033 0.0
C127 C 0.40582 0.84866 0.11642 0.0
C128 C 0.39382 0.85934 0.13401 0.0
C129 C 0.37831 0.86245 0.11539 0.0
C130 C 0.37551 0.85477 0.07931 0.0
H131 H 0.41159 0.83312 0.06685 0.0
O132 O 0.3735 0.79214 0.06246 0.0
O133 O 0.36935 0.81654 0.03286 0.0
O134 O 0.39732 0.79802 0.00012 0.0
O135 O 0.40123 0.82626 0.00105 0.0
C136 C 0.36548 0.87277 0.1313 0.0
C137 C 0.35004 0.87502 0.11125 0.0
H138 H 0.32188 0.87599 0.06474 0.0
H139 H 0.31912 0.86099 0.00171 0.0
H140 H 0.41782 0.84619 0.13061 0.0
H141 H 0.39665 0.86506 0.16184 0.0
H142 H 0.36729 0.87892 0.1591 0.0
H143 H 0.34019 0.88278 0.12405 0.0
Mn144 Mn 0.20153 0.62448 0.99144 0.0
Mn145 Mn 0.15964 0.6156 0.99214 0.0
C146 C 0.18645 0.62454 0.93382 0.0
C147 C 0.22367 0.64405 0.99663 0.0
C148 C 0.18684 0.58852 0.99803 0.0
O149 O 0.19527 0.62766 0.04816 0.0
O150 O 0.16732 0.6219 0.04514 0.0
C151 C 0.14683 0.65 0.01055 0.0
N152 N 0.14688 0.63609 0.9871 0.0
C153 C 0.1254 0.6482 0.94597 0.0
C154 C 0.12505 0.66262 0.9698 0.0
C155 C 0.13586 0.66354 0.00214 0.0
C156 C 0.1366 0.6351 0.95582 0.0
H157 H 0.15511 0.65076 0.03546 0.0
C158 C 0.18069 0.62623 0.06379 0.0
O159 O 0.22612 0.628 0.0031 0.0
O160 O 0.20838 0.64868 0.9878 0.0
N161 N 0.15018 0.60949 0.94302 0.0
C162 C 0.15287 0.5952 0.92165 0.0
C163 C 0.14315 0.59238 0.88814 0.0
C164 C 0.13075 0.60423 0.8771 0.0
C165 C 0.1284 0.61896 0.89919 0.0
C166 C 0.13825 0.62095 0.93265 0.0
H167 H 0.16224 0.58597 0.93031 0.0
O168 O 0.20278 0.62249 0.93396 0.0
O169 O 0.17933 0.62655 0.96765 0.0
O170 O 0.19959 0.59851 0.99665 0.0
O171 O 0.17152 0.59371 0.99672 0.0
C172 C 0.11675 0.63178 0.88919 0.0
C173 C 0.11532 0.64644 0.91245 0.0
H174 H 0.11664 0.67311 0.96334 0.0
H175 H 0.13574 0.67467 0.02051 0.0
H176 H 0.1451 0.58103 0.87108 0.0
H177 H 0.12306 0.60192 0.85165 0.0
H178 H 0.109 0.63061 0.86338 0.0
H179 H 0.10652 0.65634 0.90413 0.0
Mn180 Mn 0.37784 0.20331 0.98441 0.0
Mn181 Mn 0.38413 0.1611 0.97887 0.0
C182 C 0.37886 0.19001 0.9246 0.0
C183 C 0.35904 0.22596 0.99043 0.0
C184 C 0.41245 0.18624 0.99517 0.0
O185 O 0.37265 0.1953 0.03928 0.0
O186 O 0.37601 0.1671 0.03181 0.0
C187 C 0.34821 0.15061 0.98592 0.0
N188 N 0.36302 0.15067 0.96558 0.0
C189 C 0.3504 0.13468 0.91354 0.0
C190 C 0.33505 0.13435 0.93405 0.0
C191 C 0.33395 0.14237 0.97037 0.0
C192 C 0.36418 0.14309 0.93049 0.0
H193 H 0.34725 0.15686 0.0137 0.0
C194 C 0.37224 0.18014 0.05227 0.0
O195 O 0.37487 0.22756 0.00031 0.0
O196 O 0.35419 0.21127 0.97783 0.0
N197 N 0.39182 0.15343 0.92917 0.0
C198 C 0.40756 0.15491 0.91313 0.0
C199 C 0.41086 0.14737 0.87699 0.0
C200 C 0.39799 0.13833 0.85781 0.0
C201 C 0.38197 0.13678 0.87514 0.0
C202 C 0.37951 0.14435 0.91147 0.0
H203 H 0.41752 0.1618 0.92774 0.0
O204 O 0.38156 0.20621 0.92722 0.0
O205 O 0.37564 0.18229 0.95699 0.0
O206 O 0.40334 0.19963 0.99322 0.0
O207 O 0.40646 0.17125 0.99114 0.0
C208 C 0.36832 0.12814 0.85766 0.0
C209 C 0.35252 0.12715 0.87678 0.0
H210 H 0.32401 0.12806 0.92211 0.0
H211 H 0.32212 0.14224 0.98629 0.0
H212 H 0.42327 0.14859 0.86387 0.0
H213 H 0.40052 0.13269 0.82975 0.0
H214 H 0.36978 0.12232 0.82939 0.0
H215 H 0.34208 0.12061 0.86288 0.0
Mn216 Mn 0.79455 0.37784 0.98846 0.0
Mn217 Mn 0.83644 0.38534 0.98052 0.0
C218 C 0.80725 0.37821 0.92782 0.0
C219 C 0.77284 0.35808 0.99801 0.0
C220 C 0.8104 0.41281 0.99785 0.0
O221 O 0.80343 0.37442 0.04373 0.0
O222 O 0.83157 0.37577 0.03255 0.0
C223 C 0.84858 0.34981 0.98264 0.0
N224 N 0.84765 0.36505 0.96417 0.0
C225 C 0.8639 0.35448 0.91023 0.0
C226 C 0.86516 0.33872 0.92886 0.0
C227 C 0.85742 0.33637 0.96517 0.0
C228 C 0.85489 0.3674 0.92902 0.0
H229 H 0.84252 0.34789 0.01039 0.0
C230 C 0.81885 0.37275 0.05463 0.0
O231 O 0.77053 0.37408 0.00542 0.0
O232 O 0.78774 0.35365 0.98585 0.0
N233 N 0.84289 0.39435 0.93106 0.0
C234 C 0.84016 0.41019 0.91649 0.0
C235 C 0.84707 0.41461 0.88032 0.0
C236 C 0.85681 0.40276 0.85961 0.0
C237 C 0.85963 0.3866 0.87536 0.0
C238 C 0.85258 0.38299 0.91174 0.0
H239 H 0.83277 0.41941 0.93232 0.0
O240 O 0.79095 0.37996 0.93093 0.0
O241 O 0.81535 0.37609 0.96014 0.0
O242 O 0.79719 0.40362 0.9934 0.0
O243 O 0.82557 0.40705 0.99627 0.0
C244 C 0.86895 0.37387 0.85616 0.0
C245 C 0.87103 0.35781 0.87352 0.0
H246 H 0.87193 0.32831 0.91542 0.0
H247 H 0.85823 0.3242 0.97961 0.0
H248 H 0.84487 0.42712 0.86839 0.0
H249 H 0.86198 0.40616 0.83155 0.0
H250 H 0.87441 0.37624 0.82783 0.0
H251 H 0.87806 0.34806 0.85829 0.0
Mn252 Mn 0.62489 0.80258 0.99504 0.0
Mn253 Mn 0.6155 0.84429 0.99964 0.0
C254 C 0.62487 0.81889 0.93898 0.0
C255 C 0.64469 0.78055 0.99887 0.0
C256 C 0.58871 0.81669 0.00243 0.0
O257 O 0.62772 0.80782 0.0526 0.0
O258 O 0.62179 0.83576 0.05188 0.0
C259 C 0.64972 0.85712 0.0195 0.0
N260 N 0.63591 0.85723 0.99576 0.0
C261 C 0.64805 0.87922 0.95612 0.0
C262 C 0.66236 0.87942 0.98027 0.0
C263 C 0.66323 0.86827 0.01201 0.0
C264 C 0.63502 0.8678 0.96497 0.0
H265 H 0.65043 0.8486 0.04398 0.0
C266 C 0.62613 0.82214 0.06948 0.0
O267 O 0.62861 0.77784 0.00433 0.0
O268 O 0.64922 0.79603 0.99156 0.0
N269 N 0.60936 0.85445 0.95133 0.0
C270 C 0.59504 0.85208 0.92987 0.0
C271 C 0.59226 0.86217 0.89695 0.0
C272 C 0.60415 0.87465 0.88673 0.0
C273 C 0.61887 0.87674 0.90898 0.0
C274 C 0.62088 0.86642 0.94165 0.0
H275 H 0.58577 0.84264 0.93795 0.0
O276 O 0.62319 0.80253 0.9372 0.0
O277 O 0.6267 0.82523 0.97358 0.0
O278 O 0.59887 0.80411 0.99971 0.0
O279 O 0.59372 0.8321 0.00301 0.0
C280 C 0.6316 0.88866 0.90008 0.0
C281 C 0.64625 0.88981 0.92345 0.0
H282 H 0.67279 0.88801 0.97459 0.0
H283 H 0.67426 0.8683 0.0307 0.0
H284 H 0.58091 0.86047 0.87976 0.0
H285 H 0.60177 0.88266 0.86198 0.0
H286 H 0.63032 0.89695 0.87525 0.0
H287 H 0.65606 0.89886 0.91599 0.0
Mn288 Mn 0.70721 0.87061 0.51628 0.0
Mn289 Mn 0.66566 0.87952 0.52798 0.0
C290 C 0.69535 0.8704 0.57767 0.0
C291 C 0.7286 0.85087 0.5039 0.0
C292 C 0.69239 0.90644 0.51209 0.0
O293 O 0.69757 0.86784 0.46178 0.0
O294 O 0.66972 0.87171 0.47389 0.0
C295 C 0.65158 0.84489 0.51968 0.0
N296 N 0.65345 0.85935 0.54086 0.0
C297 C 0.63591 0.84829 0.59213 0.0
C298 C 0.63372 0.83331 0.57076 0.0
C299 C 0.64164 0.83159 0.53444 0.0
C300 C 0.64599 0.86109 0.57597 0.0
H301 H 0.65766 0.84352 0.49177 0.0
C302 C 0.68205 0.86801 0.45115 0.0
O303 O 0.73086 0.86694 0.49736 0.0
O304 O 0.71388 0.84631 0.51703 0.0
N305 N 0.6599 0.88709 0.5791 0.0
C306 C 0.66392 0.90202 0.5968 0.0
C307 C 0.65712 0.90569 0.63349 0.0
C308 C 0.64619 0.89404 0.6515 0.0
C309 C 0.64226 0.87874 0.6328 0.0
C310 C 0.64928 0.87586 0.59606 0.0
H311 H 0.67223 0.91109 0.58305 0.0
O312 O 0.71161 0.87212 0.57344 0.0
O313 O 0.68661 0.86879 0.54596 0.0
O314 O 0.70524 0.89657 0.51244 0.0
O315 O 0.67717 0.90115 0.51607 0.0
C316 C 0.63178 0.86618 0.64927 0.0
C317 C 0.62869 0.85093 0.62906 0.0
H318 H 0.62609 0.82301 0.58207 0.0
H319 H 0.64006 0.82004 0.51786 0.0
H320 H 0.66026 0.91751 0.6478 0.0
H321 H 0.64091 0.89698 0.67972 0.0
H322 H 0.62619 0.86804 0.67767 0.0
H323 H 0.62083 0.84126 0.64228 0.0
Mn324 Mn 0.13064 0.70646 0.50931 0.0
Mn325 Mn 0.12199 0.66456 0.51595 0.0
C326 C 0.13202 0.69289 0.56874 0.0
C327 C 0.15 0.72845 0.49878 0.0
C328 C 0.09467 0.6915 0.50899 0.0
O329 O 0.13251 0.69862 0.45321 0.0
O330 O 0.12721 0.67077 0.46138 0.0
C331 C 0.15592 0.65109 0.49561 0.0
N332 N 0.14263 0.65203 0.52078 0.0
C333 C 0.1555 0.63156 0.56339 0.0
C334 C 0.1693 0.63033 0.53788 0.0
C335 C 0.16954 0.6402 0.50395 0.0
C336 C 0.14234 0.6427 0.55367 0.0
H337 H 0.15611 0.65855 0.46934 0.0
C338 C 0.13096 0.68356 0.44011 0.0
O339 O 0.13382 0.73071 0.49391 0.0
O340 O 0.15488 0.7134 0.50905 0.0
N341 N 0.11694 0.65656 0.56709 0.0
C342 C 0.10317 0.65993 0.58969 0.0
C343 C 0.10132 0.65153 0.62538 0.0
C344 C 0.11346 0.63953 0.63711 0.0
C345 C 0.12741 0.63612 0.61313 0.0
C346 C 0.12867 0.64501 0.57807 0.0
H347 H 0.09373 0.66903 0.58066 0.0
O348 O 0.13 0.70921 0.56688 0.0
O349 O 0.13329 0.68496 0.53579 0.0
O350 O 0.10458 0.70431 0.50742 0.0
O351 O 0.09999 0.67625 0.51194 0.0
C352 C 0.1402 0.62436 0.62277 0.0
C353 C 0.15431 0.62221 0.59812 0.0
H354 H 0.1798 0.62192 0.54415 0.0
H355 H 0.18017 0.63936 0.48422 0.0
H356 H 0.09052 0.65424 0.64373 0.0
H357 H 0.11199 0.63309 0.66466 0.0
H358 H 0.1394 0.61704 0.6493 0.0
H359 H 0.16421 0.61337 0.60625 0.0
Mn360 Mn 0.29547 0.13048 0.50426 0.0
Mn361 Mn 0.33759 0.12295 0.50864 0.0
C362 C 0.30931 0.1304 0.56349 0.0
C363 C 0.27327 0.1499 0.4967 0.0
C364 C 0.31143 0.09504 0.49776 0.0
O365 O 0.30303 0.13392 0.44822 0.0
O366 O 0.33114 0.12972 0.45512 0.0
C367 C 0.34917 0.1582 0.49528 0.0
N368 N 0.34883 0.14405 0.51796 0.0
C369 C 0.36625 0.15746 0.56643 0.0
C370 C 0.36682 0.17216 0.54354 0.0
C371 C 0.35823 0.17253 0.50782 0.0
C372 C 0.35697 0.1436 0.55246 0.0
H373 H 0.34254 0.15857 0.46788 0.0
C374 C 0.31807 0.13336 0.43466 0.0
O375 O 0.27108 0.13383 0.48977 0.0
O376 O 0.2883 0.15458 0.50741 0.0
N377 N 0.34583 0.1164 0.5587 0.0
C378 C 0.34446 0.10106 0.57671 0.0
C379 C 0.35269 0.09844 0.61236 0.0
C380 C 0.36238 0.11152 0.62891 0.0
C381 C 0.36391 0.12706 0.60943 0.0
C382 C 0.35559 0.12887 0.57376 0.0
H383 H 0.33711 0.09092 0.56402 0.0
O384 O 0.29301 0.12835 0.56192 0.0
O385 O 0.3169 0.13268 0.53048 0.0
O386 O 0.2983 0.10459 0.49896 0.0
O387 O 0.32661 0.1007 0.50036 0.0
C388 C 0.37338 0.14082 0.62399 0.0
C389 C 0.37446 0.15605 0.60261 0.0
H390 H 0.37379 0.18323 0.55311 0.0
H391 H 0.35859 0.18383 0.49001 0.0
H392 H 0.35153 0.08637 0.62709 0.0
H393 H 0.36858 0.1095 0.65657 0.0
H394 H 0.3798 0.13987 0.65168 0.0
H395 H 0.38168 0.16658 0.61425 0.0
Mn396 Mn 0.87215 0.29929 0.50726 0.0
Mn397 Mn 0.87921 0.34127 0.51729 0.0
C398 C 0.87182 0.31163 0.56827 0.0
C399 C 0.85317 0.27705 0.49652 0.0
C400 C 0.90726 0.31562 0.50197 0.0
O401 O 0.86893 0.30835 0.45215 0.0
O402 O 0.87136 0.33636 0.46379 0.0
C403 C 0.8437 0.35296 0.5093 0.0
N404 N 0.85831 0.35216 0.53032 0.0
C405 C 0.84592 0.36837 0.58224 0.0
C406 C 0.83078 0.36946 0.56105 0.0
C407 C 0.82965 0.36168 0.52447 0.0
C408 C 0.85946 0.35943 0.56573 0.0
H409 H 0.84274 0.34694 0.48124 0.0
C410 C 0.86819 0.32384 0.44125 0.0
O411 O 0.86928 0.2753 0.48968 0.0
O412 O 0.84812 0.29177 0.50869 0.0
N413 N 0.88662 0.34791 0.56798 0.0
C414 C 0.90214 0.34572 0.58468 0.0
C415 C 0.90541 0.35288 0.62124 0.0
C416 C 0.89277 0.36236 0.64008 0.0
C417 C 0.877 0.36469 0.62205 0.0
C418 C 0.87453 0.35739 0.58543 0.0
H419 H 0.91196 0.33856 0.57024 0.0
O420 O 0.87397 0.2954 0.56467 0.0
O421 O 0.86972 0.31996 0.53621 0.0
O422 O 0.89789 0.30241 0.5032 0.0
O423 O 0.90146 0.33073 0.50519 0.0
C424 C 0.86361 0.3739 0.63905 0.0
C425 C 0.84806 0.37568 0.61922 0.0
H426 H 0.81992 0.37617 0.57265 0.0
H427 H 0.81798 0.3624 0.50801 0.0
H428 H 0.91764 0.35109 0.63489 0.0
H429 H 0.89529 0.36774 0.66841 0.0
H430 H 0.86508 0.37955 0.6675 0.0
H431 H 0.83781 0.38267 0.63272 0.0
Mn432 Mn 0.7066 0.12381 0.49254 0.0
Mn433 Mn 0.66507 0.11393 0.49146 0.0
C434 C 0.69198 0.12271 0.43404 0.0
C435 C 0.72791 0.14427 0.49814 0.0
C436 C 0.693 0.08802 0.5051 0.0
O437 O 0.69927 0.12739 0.54886 0.0
O438 O 0.67104 0.12385 0.5425 0.0
C439 C 0.6497 0.14807 0.49718 0.0
N440 N 0.65176 0.13323 0.47753 0.0
C441 C 0.63096 0.14133 0.42999 0.0
C442 C 0.6285 0.15666 0.44988 0.0
C443 C 0.63805 0.16011 0.48338 0.0
C444 C 0.643 0.12998 0.44467 0.0
H445 H 0.65677 0.15063 0.52338 0.0
C446 C 0.68417 0.12795 0.56231 0.0
O447 O 0.73086 0.12838 0.50556 0.0
O448 O 0.71256 0.14824 0.48811 0.0
N449 N 0.65766 0.10437 0.44333 0.0
C450 C 0.66101 0.0887 0.42844 0.0
C451 C 0.65274 0.08341 0.39445 0.0
C452 C 0.64083 0.09412 0.37659 0.0
C453 C 0.63726 0.10999 0.39301 0.0
C454 C 0.64607 0.11468 0.42663 0.0
H455 H 0.66993 0.08028 0.44233 0.0
O456 O 0.70839 0.12148 0.43474 0.0
O457 O 0.68477 0.12464 0.46752 0.0
O458 O 0.70553 0.09792 0.49897 0.0
O459 O 0.67761 0.09308 0.5051 0.0
C460 C 0.62502 0.12117 0.37786 0.0
C461 C 0.62173 0.13672 0.39662 0.0
H462 H 0.61928 0.16583 0.43985 0.0
H463 H 0.63623 0.17192 0.49885 0.0
H464 H 0.65544 0.07106 0.3822 0.0
H465 H 0.63438 0.08994 0.35054 0.0
H466 H 0.61788 0.11783 0.35211 0.0
H467 H 0.61193 0.14494 0.38526 0.0
Mn468 Mn 0.87725 0.6999 0.488 0.0
Mn469 Mn 0.88729 0.65836 0.49333 0.0
C470 C 0.87849 0.68371 0.4319 0.0
C471 C 0.85722 0.72168 0.49033 0.0
C472 C 0.91342 0.68648 0.49938 0.0
O473 O 0.87354 0.69448 0.54526 0.0
O474 O 0.87956 0.66655 0.54486 0.0
C475 C 0.85308 0.64442 0.50909 0.0
N476 N 0.86731 0.64494 0.48668 0.0
C477 C 0.85646 0.62318 0.44453 0.0
C478 C 0.84172 0.62236 0.4672 0.0
C479 C 0.84001 0.63305 0.49957 0.0
C480 C 0.86907 0.63473 0.45547 0.0
H481 H 0.85172 0.65259 0.53404 0.0
C482 C 0.87478 0.68012 0.56212 0.0
O483 O 0.87315 0.72452 0.49727 0.0
O484 O 0.85292 0.70617 0.48243 0.0
N485 N 0.89473 0.64867 0.44548 0.0
C486 C 0.90935 0.65166 0.42556 0.0
C487 C 0.91288 0.6422 0.39205 0.0
C488 C 0.90141 0.6297 0.37965 0.0
C489 C 0.88642 0.6269 0.40048 0.0
C490 C 0.88364 0.63664 0.43378 0.0
H491 H 0.91826 0.66118 0.43518 0.0
O492 O 0.87992 0.70009 0.43038 0.0
O493 O 0.87619 0.67727 0.46629 0.0
O494 O 0.90313 0.69882 0.49486 0.0
O495 O 0.90873 0.67098 0.49981 0.0
C496 C 0.87407 0.61492 0.38938 0.0
C497 C 0.85906 0.61312 0.41127 0.0
H498 H 0.83159 0.61364 0.45991 0.0
H499 H 0.82865 0.63253 0.51713 0.0
H500 H 0.92445 0.64444 0.37596 0.0
H501 H 0.90429 0.62227 0.35423 0.0
H502 H 0.87592 0.6071 0.36395 0.0
H503 H 0.84957 0.60402 0.40216 0.0
Mn504 Mn 0.30128 0.8771 0.48319 0.0
Mn505 Mn 0.34307 0.88624 0.48671 0.0
C506 C 0.31725 0.8772 0.42665 0.0
C507 C 0.27916 0.85742 0.48733 0.0
C508 C 0.31561 0.91315 0.49101 0.0
O509 O 0.30688 0.87401 0.5405 0.0
O510 O 0.3349 0.87957 0.53902 0.0
C511 C 0.35599 0.85186 0.5048 0.0
N512 N 0.35594 0.86583 0.48154 0.0
C513 C 0.37736 0.85381 0.44017 0.0
C514 C 0.37774 0.83934 0.46381 0.0
C515 C 0.36696 0.83834 0.4962 0.0
C516 C 0.36618 0.86689 0.45022 0.0
H517 H 0.34773 0.85104 0.52972 0.0
C518 C 0.32133 0.87525 0.55692 0.0
O519 O 0.27659 0.87349 0.49327 0.0
O520 O 0.29457 0.85282 0.47941 0.0
N521 N 0.35282 0.89268 0.43817 0.0
C522 C 0.35016 0.90706 0.41709 0.0
C523 C 0.35973 0.90989 0.38339 0.0
C524 C 0.37197 0.89797 0.37198 0.0
C525 C 0.37441 0.88323 0.39393 0.0
C526 C 0.36462 0.88117 0.42742 0.0
H527 H 0.34083 0.91631 0.42594 0.0
O528 O 0.30089 0.87899 0.42536 0.0
O529 O 0.32377 0.87525 0.46104 0.0
O530 O 0.30297 0.90308 0.48825 0.0
O531 O 0.33098 0.90805 0.49131 0.0
C532 C 0.38608 0.87044 0.38378 0.0
C533 C 0.38748 0.85569 0.40675 0.0
H534 H 0.38615 0.82887 0.45721 0.0
H535 H 0.36712 0.82719 0.51448 0.0
H536 H 0.35775 0.92126 0.3664 0.0
H537 H 0.37948 0.90032 0.34644 0.0
H538 H 0.39393 0.87173 0.35819 0.0
H539 H 0.39631 0.84583 0.39832 0.0
Mn540 Mn 0.12486 0.30166 0.49167 0.0
Mn541 Mn 0.1157 0.34334 0.49995 0.0
C542 C 0.1249 0.31883 0.43705 0.0
C543 C 0.14443 0.2794 0.49403 0.0
C544 C 0.08887 0.31578 0.50119 0.0
O545 O 0.12758 0.30602 0.54975 0.0
O546 O 0.12254 0.33414 0.55115 0.0
C547 C 0.15004 0.35614 0.51893 0.0
N548 N 0.13605 0.35637 0.49571 0.0
C549 C 0.14793 0.37852 0.45612 0.0
C550 C 0.16243 0.37856 0.47967 0.0
C551 C 0.16351 0.36729 0.51113 0.0
C552 C 0.13492 0.36712 0.4653 0.0
H553 H 0.15091 0.34751 0.54319 0.0
C554 C 0.12654 0.32015 0.56766 0.0
O555 O 0.12832 0.27678 0.49911 0.0
O556 O 0.14915 0.29494 0.48795 0.0
N557 N 0.10908 0.35398 0.45251 0.0
C558 C 0.09462 0.35169 0.43148 0.0
C559 C 0.09172 0.3618 0.39863 0.0
C560 C 0.10362 0.3742 0.38804 0.0
C561 C 0.11842 0.37628 0.40999 0.0
C562 C 0.12058 0.36593 0.44258 0.0
H563 H 0.08538 0.34225 0.43972 0.0
O564 O 0.12329 0.3025 0.43386 0.0
O565 O 0.12673 0.32462 0.47217 0.0
O566 O 0.09889 0.30328 0.49588 0.0
O567 O 0.0939 0.33113 0.50402 0.0
C568 C 0.13118 0.38813 0.4007 0.0
C569 C 0.14596 0.38918 0.42362 0.0
H570 H 0.17286 0.38712 0.47371 0.0
H571 H 0.1747 0.36719 0.52928 0.0
H572 H 0.08029 0.36011 0.38167 0.0
H573 H 0.10123 0.3821 0.36312 0.0
H574 H 0.12981 0.3964 0.37587 0.0
H575 H 0.15578 0.39818 0.41587 0.0
H576 H 0.21712 0.57106 0.00365 0.0
H577 H 0.22113 0.54022 0.00622 0.0
H578 H 0.16698 0.53306 0.99923 0.0
H579 H 0.16284 0.56356 0.99729 0.0
H580 H 0.17994 0.5129 0.05282 0.0
H581 H 0.19357 0.52777 0.91997 0.0
H582 H 0.20947 0.54282 0.86885 0.0
H583 H 0.25592 0.52057 0.90935 0.0
H584 H 0.2403 0.50555 0.96105 0.0
H585 H 0.16535 0.43063 0.9904 0.0
H586 H 0.16861 0.46131 0.98967 0.0
H587 H 0.22252 0.45597 0.00666 0.0
H588 H 0.21944 0.42499 0.00707 0.0
H589 H 0.214 0.48213 0.95432 0.0
H590 H 0.19909 0.46436 0.08246 0.0
H591 H 0.18231 0.44841 0.13058 0.0
H592 H 0.13762 0.47604 0.09784 0.0
H593 H 0.15405 0.4919 0.04892 0.0
C594 C 0.20607 0.56292 0.00277 0.0
C595 C 0.18966 0.56988 0.00029 0.0
C596 C 0.20839 0.54528 0.0041 0.0
C597 C 0.19435 0.53429 0.00268 0.0
C598 C 0.17801 0.54124 0.00053 0.0
C599 C 0.17568 0.55877 0.99933 0.0
C600 C 0.19638 0.51552 0.00326 0.0
C601 C 0.18734 0.5062 0.03117 0.0
C602 C 0.20643 0.50672 0.97573 0.0
C603 C 0.2158 0.51571 0.94464 0.0
C604 C 0.20719 0.5262 0.91816 0.0
C605 C 0.21615 0.5347 0.88905 0.0
C606 C 0.23371 0.5327 0.88594 0.0
C607 C 0.24233 0.52214 0.91186 0.0
C608 C 0.23343 0.51362 0.94105 0.0
C609 C 0.17797 0.43588 0.9936 0.0
C610 C 0.19211 0.42527 0.99925 0.0
C611 C 0.17979 0.45347 0.99322 0.0
C612 C 0.19576 0.46093 0.99885 0.0
C613 C 0.21007 0.45046 0.00247 0.0
C614 C 0.20827 0.43276 0.00274 0.0
C615 C 0.19712 0.47963 0.00307 0.0
C616 C 0.20682 0.48888 0.97629 0.0
C617 C 0.18763 0.48841 0.03157 0.0
C618 C 0.17781 0.47926 0.06184 0.0
C619 C 0.18567 0.46698 0.08538 0.0
C620 C 0.17622 0.45795 0.11279 0.0
C621 C 0.15891 0.4612 0.11723 0.0
C622 C 0.15103 0.47353 0.09436 0.0
C623 C 0.16041 0.48256 0.0668 0.0
H624 H 0.15161 0.45418 0.13844 0.0
H625 H 0.24062 0.53929 0.86338 0.0
H626 H 0.43123 0.21562 0.00051 0.0
H627 H 0.46219 0.21824 0.00231 0.0
H628 H 0.46685 0.16375 0.00288 0.0
H629 H 0.43611 0.16095 0.00074 0.0
H630 H 0.48743 0.20675 0.05287 0.0
H631 H 0.49858 0.15245 0.94272 0.0
H632 H 0.48344 0.13876 0.88847 0.0
H633 H 0.4561 0.18488 0.86662 0.0
H634 H 0.47129 0.19893 0.92025 0.0
H635 H 0.57079 0.1607 0.99788 0.0
H636 H 0.54014 0.16372 0.99666 0.0
H637 H 0.54517 0.21807 0.00531 0.0
H638 H 0.57612 0.21517 0.00717 0.0
H639 H 0.51951 0.17873 0.94688 0.0
H640 H 0.51011 0.23344 0.05541 0.0
H641 H 0.52445 0.2463 0.11187 0.0
H642 H 0.54783 0.19851 0.13855 0.0
H643 H 0.53346 0.18533 0.0826 0.0
C644 C 0.43882 0.20418 0.00137 0.0
C645 C 0.4311 0.18806 0.0001 0.0
C646 C 0.45652 0.20572 0.00249 0.0
C647 C 0.46682 0.1912 0.00211 0.0
C648 C 0.45915 0.17514 0.00254 0.0
C649 C 0.44152 0.17357 0.00142 0.0
C650 C 0.48557 0.19265 0.99955 0.0
C651 C 0.49446 0.2009 0.02936 0.0
C652 C 0.49473 0.18484 0.96909 0.0
C653 C 0.486 0.1767 0.93575 0.0
C654 C 0.48944 0.15971 0.92615 0.0
C655 C 0.48083 0.15188 0.89553 0.0
C656 C 0.46878 0.16093 0.87419 0.0
C657 C 0.4654 0.17787 0.88324 0.0
C658 C 0.47401 0.18577 0.91375 0.0
C659 C 0.56549 0.17335 0.99948 0.0
C660 C 0.57604 0.1877 0.00267 0.0
C661 C 0.54788 0.17504 0.99868 0.0
C662 C 0.54029 0.19109 0.00111 0.0
C663 C 0.55072 0.20551 0.00388 0.0
C664 C 0.56843 0.20384 0.00479 0.0
C665 C 0.52147 0.19247 0.00074 0.0
C666 C 0.51252 0.18478 0.9702 0.0
C667 C 0.51229 0.20075 0.0306 0.0
C668 C 0.52088 0.20848 0.06453 0.0
C669 C 0.51829 0.22568 0.07339 0.0
C670 C 0.52642 0.23302 0.1053 0.0
C671 C 0.5371 0.22325 0.12869 0.0
C672 C 0.53962 0.20609 0.12031 0.0
C673 C 0.5315 0.19868 0.08848 0.0
H674 H 0.54339 0.22896 0.15336 0.0
H675 H 0.46207 0.15482 0.85061 0.0
H676 H 0.82694 0.43368 0.04829 0.0
H677 H 0.82423 0.4645 0.05419 0.0
H678 H 0.7876 0.46451 0.96092 0.0
H679 H 0.78931 0.43361 0.95751 0.0
H680 H 0.83205 0.4883 0.01384 0.0
H681 H 0.76257 0.49824 0.959 0.0
H682 H 0.73479 0.48398 0.96355 0.0
H683 H 0.75059 0.45894 0.06813 0.0
H684 H 0.77837 0.47321 0.0645 0.0
H685 H 0.82653 0.57276 0.95839 0.0
H686 H 0.8242 0.54186 0.95881 0.0
H687 H 0.7851 0.54502 0.04621 0.0
H688 H 0.78668 0.57608 0.04379 0.0
H689 H 0.77788 0.51999 0.00431 0.0
H690 H 0.82835 0.53625 0.06774 0.0
H691 H 0.85558 0.55109 0.07692 0.0
H692 H 0.87692 0.52387 0.9807 0.0
H693 H 0.84971 0.50908 0.97048 0.0
C694 C 0.81808 0.44031 0.02964 0.0
C695 C 0.80818 0.4313 0.00282 0.0
C696 C 0.81659 0.45795 0.0328 0.0
C697 C 0.80552 0.46705 0.00838 0.0
C698 C 0.79579 0.45794 0.98116 0.0
C699 C 0.79685 0.44025 0.97897 0.0
C700 C 0.80483 0.48603 0.01002 0.0
C701 C 0.82015 0.49514 0.01197 0.0
C702 C 0.78936 0.49523 0.00869 0.0
C703 C 0.77262 0.48668 0.01124 0.0
C704 C 0.76009 0.48974 0.98305 0.0
C705 C 0.74435 0.48165 0.98545 0.0
C706 C 0.74095 0.47052 0.01604 0.0
C707 C 0.75326 0.46751 0.04437 0.0
C708 C 0.76902 0.47559 0.04213 0.0
C709 C 0.81725 0.56684 0.97721 0.0
C710 C 0.80682 0.57677 0.00115 0.0
C711 C 0.81602 0.54916 0.97773 0.0
C712 C 0.80484 0.54097 0.00344 0.0
C713 C 0.7939 0.55095 0.02624 0.0
C714 C 0.79479 0.5687 0.02486 0.0
C715 C 0.80508 0.52209 0.00743 0.0
C716 C 0.78972 0.51306 0.00647 0.0
C717 C 0.82045 0.51295 0.01188 0.0
C718 C 0.83694 0.52165 0.01815 0.0
C719 C 0.83882 0.53349 0.0484 0.0
C720 C 0.85425 0.5419 0.05379 0.0
C721 C 0.86796 0.53844 0.02938 0.0
C722 C 0.86628 0.52654 0.99957 0.0
C723 C 0.85086 0.51814 0.99397 0.0
H724 H 0.8799 0.54496 0.03359 0.0
H725 H 0.72876 0.46426 0.01783 0.0
H726 H 0.57167 0.7861 0.00574 0.0
H727 H 0.54089 0.78159 0.00686 0.0
H728 H 0.53294 0.83569 0.00251 0.0
H729 H 0.56338 0.84032 0.00214 0.0
H730 H 0.51244 0.82213 0.0539 0.0
H731 H 0.52869 0.80945 0.92149 0.0
H732 H 0.54442 0.79411 0.87055 0.0
H733 H 0.52263 0.74704 0.90863 0.0
H734 H 0.50694 0.76209 0.96014 0.0
H735 H 0.43068 0.83572 0.98653 0.0
H736 H 0.46138 0.83286 0.98799 0.0
H737 H 0.45652 0.77887 0.00443 0.0
H738 H 0.4255 0.78154 0.00271 0.0
H739 H 0.48315 0.788 0.95316 0.0
H740 H 0.46393 0.80209 0.08074 0.0
H741 H 0.44727 0.81845 0.12831 0.0
H742 H 0.47447 0.8637 0.09774 0.0
H743 H 0.49106 0.84769 0.04938 0.0
C744 C 0.56336 0.79704 0.00514 0.0
C745 C 0.57009 0.81358 0.00387 0.0
C746 C 0.54575 0.79443 0.00563 0.0
C747 C 0.53455 0.80831 0.00449 0.0
C748 C 0.54127 0.82478 0.00357 0.0
C749 C 0.55877 0.82739 0.00327 0.0
C750 C 0.51579 0.80597 0.00408 0.0
C751 C 0.50607 0.81471 0.03175 0.0
C752 C 0.50741 0.7959 0.9759 0.0
C753 C 0.51681 0.78686 0.94494 0.0
C754 C 0.52737 0.79581 0.91919 0.0
C755 C 0.53625 0.78717 0.89018 0.0
C756 C 0.53457 0.7696 0.88644 0.0
C757 C 0.52395 0.76064 0.91162 0.0
C758 C 0.51506 0.76922 0.94071 0.0
C759 C 0.43604 0.82316 0.99011 0.0
C760 C 0.42553 0.80888 0.99493 0.0
C761 C 0.45365 0.82157 0.99099 0.0
C762 C 0.46124 0.8057 0.99701 0.0
C763 C 0.4509 0.79125 0.99994 0.0
C764 C 0.43318 0.79282 0.999 0.0
C765 C 0.47992 0.80459 0.00219 0.0
C766 C 0.48957 0.79518 0.97563 0.0
C767 C 0.48828 0.81412 0.03128 0.0
C768 C 0.47869 0.82369 0.06125 0.0
C769 C 0.46631 0.81555 0.08402 0.0
C770 C 0.45687 0.82476 0.11111 0.0
C771 C 0.4598 0.84211 0.11601 0.0
C772 C 0.47221 0.85026 0.09391 0.0
C773 C 0.48165 0.84112 0.06666 0.0
H774 H 0.45246 0.84922 0.13697 0.0
H775 H 0.54146 0.76294 0.86396 0.0
H776 H 0.72253 0.07006 0.49301 0.0
H777 H 0.72638 0.03922 0.49641 0.0
H778 H 0.67423 0.0334 0.53167 0.0
H779 H 0.67031 0.06398 0.52875 0.0
H780 H 0.69436 0.01276 0.57281 0.0
H781 H 0.68617 0.02732 0.43826 0.0
H782 H 0.69267 0.04224 0.37716 0.0
H783 H 0.7422 0.01961 0.37515 0.0
H784 H 0.73607 0.00476 0.43663 0.0
H785 H 0.66858 0.93141 0.51933 0.0
H786 H 0.6729 0.96195 0.51958 0.0
H787 H 0.72632 0.95479 0.49882 0.0
H788 H 0.72219 0.9239 0.4987 0.0
H789 H 0.71047 0.98156 0.45327 0.0
H790 H 0.71606 0.96391 0.58562 0.0
H791 H 0.70747 0.94825 0.64434 0.0
H792 H 0.66089 0.97641 0.64872 0.0
H793 H 0.66908 0.99204 0.58961 0.0
C794 C 0.71194 0.06223 0.50195 0.0
C795 C 0.69608 0.06955 0.5104 0.0
C796 C 0.71414 0.04459 0.50368 0.0
C797 C 0.70054 0.03396 0.51392 0.0
C798 C 0.68491 0.04131 0.5237 0.0
C799 C 0.68269 0.05885 0.52185 0.0
C800 C 0.70217 0.01516 0.51316 0.0
C801 C 0.69787 0.00596 0.54665 0.0
C802 C 0.70706 0.00624 0.47926 0.0
C803 C 0.71075 0.01511 0.44229 0.0
C804 C 0.6985 0.02565 0.42497 0.0
C805 C 0.70211 0.03407 0.39024 0.0
C806 C 0.71786 0.03192 0.37235 0.0
C807 C 0.73002 0.0213 0.3891 0.0
C808 C 0.72649 0.01288 0.42388 0.0
C809 C 0.68128 0.93621 0.51451 0.0
C810 C 0.69507 0.92508 0.50922 0.0
C811 C 0.68371 0.95373 0.51478 0.0
C812 C 0.69994 0.96063 0.50967 0.0
C813 C 0.71369 0.94969 0.50295 0.0
C814 C 0.7113 0.93205 0.50299 0.0
C815 C 0.70236 0.97926 0.51266 0.0
C816 C 0.70735 0.98839 0.47964 0.0
C817 C 0.69794 0.98815 0.54687 0.0
C818 C 0.69315 0.97908 0.58301 0.0
C819 C 0.70394 0.9667 0.59897 0.0
C820 C 0.69915 0.95783 0.63233 0.0
C821 C 0.68363 0.96131 0.6502 0.0
C822 C 0.67291 0.97372 0.63483 0.0
C823 C 0.67763 0.98261 0.60142 0.0
H824 H 0.67992 0.9544 0.67599 0.0
H825 H 0.72063 0.03844 0.34544 0.0
H826 H 0.93036 0.71638 0.48488 0.0
H827 H 0.961 0.72148 0.48857 0.0
H828 H 0.96877 0.6699 0.52621 0.0
H829 H 0.93835 0.66467 0.52264 0.0
H830 H 0.98751 0.69246 0.56887 0.0
H831 H 0.97566 0.68063 0.43395 0.0
H832 H 0.96152 0.68531 0.37104 0.0
H833 H 0.98196 0.73575 0.36592 0.0
H834 H 0.99603 0.73145 0.42916 0.0
H835 H 0.07011 0.6681 0.52452 0.0
H836 H 0.03955 0.67198 0.52498 0.0
H837 H 0.04578 0.72447 0.49292 0.0
H838 H 0.07675 0.72074 0.49244 0.0
H839 H 0.02004 0.7071 0.45022 0.0
H840 H 0.03528 0.71694 0.58198 0.0
H841 H 0.04991 0.71121 0.64382 0.0
H842 H 0.02331 0.66391 0.65456 0.0
H843 H 0.00871 0.66923 0.59244 0.0
C844 C 0.93857 0.70616 0.49422 0.0
C845 C 0.93185 0.69009 0.50334 0.0
C846 C 0.95609 0.70909 0.49616 0.0
C847 C 0.96718 0.69604 0.50747 0.0
C848 C 0.96046 0.68016 0.51747 0.0
C849 C 0.94303 0.67718 0.51524 0.0
C850 C 0.98586 0.69861 0.50813 0.0
C851 C 0.99462 0.69564 0.54292 0.0
C852 C 0.99512 0.70321 0.47451 0.0
C853 C 0.9867 0.7058 0.43651 0.0
C854 C 0.977 0.69278 0.41959 0.0
C855 C 0.96903 0.69535 0.38384 0.0
C856 C 0.97079 0.71084 0.36456 0.0
C857 C 0.98058 0.72377 0.38094 0.0
C858 C 0.98855 0.72128 0.41673 0.0
C859 C 0.06511 0.68052 0.51747 0.0
C860 C 0.07599 0.69413 0.50852 0.0
C861 C 0.04757 0.68271 0.51791 0.0
C862 C 0.04039 0.69854 0.5094 0.0
C863 C 0.05109 0.71215 0.49973 0.0
C864 C 0.06877 0.71001 0.49959 0.0
C865 C 0.02167 0.70055 0.51075 0.0
C866 C 0.0129 0.70432 0.47638 0.0
C867 C 0.01238 0.69663 0.54474 0.0
C868 C 0.02097 0.69345 0.58239 0.0
C869 C 0.03263 0.70526 0.59739 0.0
C870 C 0.04091 0.70209 0.63251 0.0
C871 C 0.03756 0.68719 0.65308 0.0
C872 C 0.02589 0.67545 0.63859 0.0
C873 C 0.01759 0.67855 0.60344 0.0
H874 H 0.04399 0.68475 0.68026 0.0
H875 H 0.96462 0.7128 0.33687 0.0
H876 H 0.33614 0.07101 0.48925 0.0
H877 H 0.33289 0.0404 0.48536 0.0
H878 H 0.2786 0.04562 0.49448 0.0
H879 H 0.28171 0.07654 0.49876 0.0
H880 H 0.29082 0.02012 0.54139 0.0
H881 H 0.29545 0.03563 0.40859 0.0
H882 H 0.30742 0.05013 0.35142 0.0
H883 H 0.35441 0.02343 0.36665 0.0
H884 H 0.34282 0.00896 0.42429 0.0
H885 H 0.28516 0.93036 0.49571 0.0
H886 H 0.28079 0.96119 0.49471 0.0
H887 H 0.33484 0.96886 0.48755 0.0
H888 H 0.33935 0.93837 0.48848 0.0
H889 H 0.31777 0.98785 0.43429 0.0
H890 H 0.3139 0.97516 0.5716 0.0
H891 H 0.30195 0.96088 0.6291 0.0
H892 H 0.25303 0.98227 0.60444 0.0
H893 H 0.26466 0.99649 0.54644 0.0
C894 C 0.32345 0.06577 0.49027 0.0
C895 C 0.30917 0.07636 0.49413 0.0
C896 C 0.32162 0.04819 0.48791 0.0
C897 C 0.30549 0.04069 0.48915 0.0
C898 C 0.29117 0.05114 0.49331 0.0
C899 C 0.29298 0.06882 0.49557 0.0
C900 C 0.30387 0.02192 0.48663 0.0
C901 C 0.29638 0.01306 0.51757 0.0
C902 C 0.31127 0.01268 0.45575 0.0
C903 C 0.31829 0.02129 0.42094 0.0
C904 C 0.30838 0.03294 0.39992 0.0
C905 C 0.31509 0.04114 0.3674 0.0
C906 C 0.33167 0.03772 0.35545 0.0
C907 C 0.34157 0.02607 0.37595 0.0
C908 C 0.33493 0.01784 0.40852 0.0
C909 C 0.29612 0.93861 0.49412 0.0
C910 C 0.31261 0.93179 0.49221 0.0
C911 C 0.29359 0.95623 0.49361 0.0
C912 C 0.3075 0.96734 0.49107 0.0
C913 C 0.32391 0.96056 0.48936 0.0
C914 C 0.32646 0.94305 0.49009 0.0
C915 C 0.30521 0.98606 0.4896 0.0
C916 C 0.31194 0.99491 0.4578 0.0
C917 C 0.29708 0.99524 0.5196 0.0
C918 C 0.2901 0.9867 0.55442 0.0
C919 C 0.30056 0.97669 0.57824 0.0
C920 C 0.29386 0.96863 0.61096 0.0
C921 C 0.27673 0.97062 0.62034 0.0
C922 C 0.26629 0.98071 0.59708 0.0
C923 C 0.27293 0.98877 0.56429 0.0
H924 H 0.27156 0.96438 0.64569 0.0
H925 H 0.33684 0.04409 0.33026 0.0
H926 H 0.06496 0.3345 0.53896 0.0
H927 H 0.03416 0.33067 0.53798 0.0
H928 H 0.03991 0.28676 0.46462 0.0
H929 H 0.07087 0.29026 0.46621 0.0
H930 H 0.01541 0.31334 0.43867 0.0
H931 H 0.02914 0.27774 0.54718 0.0
H932 H 0.04271 0.27089 0.60969 0.0
H933 H 0.01499 0.31105 0.66497 0.0
H934 H 0.00143 0.31831 0.60262 0.0
H935 H 0.92581 0.28662 0.5134 0.0
H936 H 0.95667 0.28341 0.51115 0.0
H937 H 0.96186 0.33618 0.48055 0.0
H938 H 0.93105 0.33959 0.48305 0.0
H939 H 0.98101 0.30084 0.55584 0.0
H940 H 0.99555 0.33873 0.41625 0.0
H941 H 0.98201 0.34546 0.35358 0.0
H942 H 0.95316 0.29933 0.35955 0.0
H943 H 0.9667 0.29221 0.42195 0.0
C944 C 0.0597 0.32393 0.5229 0.0
C945 C 0.07035 0.31266 0.50272 0.0
C946 C 0.04211 0.32175 0.52241 0.0
C947 C 0.0348 0.30845 0.50122 0.0
C948 C 0.04535 0.29711 0.48116 0.0
C949 C 0.06301 0.29906 0.48229 0.0
C950 C 0.01608 0.30682 0.49929 0.0
C951 C 0.00787 0.31051 0.46419 0.0
C952 C 0.00631 0.30302 0.53257 0.0
C953 C 0.01438 0.29866 0.57014 0.0
C954 C 0.02605 0.28521 0.57259 0.0
C955 C 0.03372 0.28123 0.60801 0.0
C956 C 0.02974 0.29055 0.64126 0.0
C957 C 0.01806 0.30385 0.63918 0.0
C958 C 0.01037 0.30789 0.60381 0.0
C959 C 0.93348 0.29753 0.50586 0.0
C960 C 0.92591 0.31337 0.49834 0.0
C961 C 0.95113 0.29568 0.50479 0.0
C962 C 0.96154 0.30953 0.49554 0.0
C963 C 0.95404 0.32529 0.48746 0.0
C964 C 0.93642 0.32721 0.48899 0.0
C965 C 0.98029 0.30769 0.49536 0.0
C966 C 0.98852 0.30348 0.53017 0.0
C967 C 0.99008 0.311 0.46178 0.0
C968 C 0.98205 0.31502 0.42395 0.0
C969 C 0.98638 0.32999 0.4041 0.0
C970 C 0.97869 0.33388 0.36864 0.0
C971 C 0.9667 0.32286 0.35265 0.0
C972 C 0.96241 0.30789 0.37203 0.0
C973 C 0.97007 0.30393 0.40748 0.0
H974 H 0.96075 0.3259 0.32522 0.0
H975 H 0.03569 0.28745 0.66867 0.0
H976 H 0.23095 0.32373 0.05298 0.0
H977 H 0.25455 0.30376 0.05341 0.0
H978 H 0.27872 0.33198 0.9613 0.0
H979 H 0.25552 0.35264 0.96268 0.0
H980 H 0.26529 0.2826 0.00725 0.0
H981 H 0.32097 0.32674 0.96065 0.0
H982 H 0.3299 0.35653 0.96869 0.0
H983 H 0.30039 0.36028 0.07304 0.0
H984 H 0.29147 0.33047 0.06591 0.0
H985 H 0.33112 0.23055 0.94602 0.0
H986 H 0.3101 0.25312 0.95048 0.0
H987 H 0.3379 0.27556 0.04543 0.0
H988 H 0.35962 0.25338 0.03938 0.0
H989 H 0.32584 0.29963 0.00449 0.0
H990 H 0.3012 0.25031 0.05947 0.0
H991 H 0.29253 0.22031 0.06352 0.0
H992 H 0.26013 0.22682 0.96449 0.0
H993 H 0.26878 0.25682 0.95952 0.0
C994 C 0.24134 0.32571 0.03292 0.0
C995 C 0.24144 0.33973 0.00782 0.0
C996 C 0.25484 0.31426 0.03313 0.0
C997 C 0.26861 0.31637 0.00769 0.0
C998 C 0.26854 0.33025 0.98199 0.0
C999 C 0.25521 0.34199 0.98252 0.0
C1000 C 0.28268 0.30372 0.00744 0.0
C1001 C 0.27851 0.28639 0.00677 0.0
C1002 C 0.30002 0.3085 0.00782 0.0
C1003 C 0.30542 0.32642 0.01249 0.0
C1004 C 0.31644 0.33391 0.98538 0.0
C1005 C 0.32149 0.3508 0.98977 0.0
C1006 C 0.31567 0.36031 0.02128 0.0
C1007 C 0.30484 0.35293 0.04856 0.0
C1008 C 0.29976 0.33604 0.04433 0.0
C1009 C 0.3328 0.24035 0.96774 0.0
C1010 C 0.34688 0.24015 0.99265 0.0
C1011 C 0.32071 0.25321 0.97042 0.0
C1012 C 0.32211 0.26582 0.99902 0.0
C1013 C 0.33647 0.26593 0.02326 0.0
C1014 C 0.34884 0.25325 0.01989 0.0
C1015 C 0.30837 0.27862 0.00384 0.0
C1016 C 0.3126 0.29591 0.00522 0.0
C1017 C 0.29108 0.27382 0.00599 0.0
C1018 C 0.28575 0.25579 0.00895 0.0
C1019 C 0.29231 0.24532 0.03841 0.0
C1020 C 0.28739 0.22832 0.04089 0.0
C1021 C 0.27582 0.22166 0.01423 0.0
C1022 C 0.26911 0.232 0.9851 0.0
C1023 C 0.274 0.24901 0.98247 0.0
H1024 H 0.27203 0.20849 0.01619 0.0
H1025 H 0.31959 0.37339 0.02461 0.0
H1026 H 0.73894 0.36349 0.01181 0.0
H1027 H 0.7163 0.34217 0.01368 0.0
H1028 H 0.75322 0.30263 0.99475 0.0
H1029 H 0.77571 0.3238 0.99195 0.0
H1030 H 0.72705 0.29769 0.94934 0.0
H1031 H 0.7347 0.31026 0.0851 0.0
H1032 H 0.7361 0.32868 0.14284 0.0
H1033 H 0.68454 0.34421 0.12425 0.0
H1034 H 0.6829 0.32603 0.06607 0.0
H1035 H 0.68302 0.22399 0.00821 0.0
H1036 H 0.70248 0.24809 0.00519 0.0
H1037 H 0.66011 0.28264 0.0084 0.0
H1038 H 0.64047 0.25852 0.01118 0.0
H1039 H 0.68678 0.29168 0.05907 0.0
H1040 H 0.67882 0.27713 0.92555 0.0
H1041 H 0.67762 0.25792 0.86913 0.0
H1042 H 0.7302 0.24551 0.88463 0.0
H1043 H 0.73166 0.26445 0.94152 0.0
C1044 C 0.74222 0.35024 0.00832 0.0
C1045 C 0.75912 0.34534 0.00174 0.0
C1046 C 0.72927 0.33805 0.00947 0.0
C1047 C 0.73304 0.32074 0.00455 0.0
C1048 C 0.74995 0.31588 0.99843 0.0
C1049 C 0.76283 0.32802 0.99701 0.0
C1050 C 0.71947 0.3076 0.005 0.0
C1051 C 0.71837 0.29631 0.97354 0.0
C1052 C 0.70779 0.30603 0.03602 0.0
C1053 C 0.70875 0.31694 0.071 0.0
C1054 C 0.72371 0.31771 0.09315 0.0
C1055 C 0.72454 0.32809 0.12599 0.0
C1056 C 0.71044 0.33765 0.13714 0.0
C1057 C 0.69546 0.33682 0.11553 0.0
C1058 C 0.69457 0.32647 0.08264 0.0
C1059 C 0.67782 0.2367 0.00828 0.0
C1060 C 0.6602 0.23935 0.00983 0.0
C1061 C 0.68896 0.25046 0.00645 0.0
C1062 C 0.68273 0.26714 0.00629 0.0
C1063 C 0.66516 0.26986 0.00843 0.0
C1064 C 0.65398 0.25607 0.00988 0.0
C1065 C 0.69466 0.28166 0.00384 0.0
C1066 C 0.69541 0.2932 0.0348 0.0
C1067 C 0.70609 0.28342 0.97247 0.0
C1068 C 0.70531 0.27211 0.93803 0.0
C1069 C 0.6901 0.27021 0.91713 0.0
C1070 C 0.68937 0.25938 0.88502 0.0
C1071 C 0.70381 0.25047 0.87336 0.0
C1072 C 0.71902 0.25241 0.89372 0.0
C1073 C 0.71981 0.2632 0.92587 0.0
H1074 H 0.70323 0.2421 0.84851 0.0
H1075 H 0.7111 0.34568 0.16257 0.0
H1076 H 0.77639 0.6855 0.00998 0.0
H1077 H 0.75364 0.70647 0.00912 0.0
H1078 H 0.71695 0.66672 0.99017 0.0
H1079 H 0.73979 0.64562 0.99021 0.0
H1080 H 0.70958 0.69354 0.94637 0.0
H1081 H 0.72211 0.68461 0.08003 0.0
H1082 H 0.73986 0.68231 0.1387 0.0
H1083 H 0.755 0.73434 0.12621 0.0
H1084 H 0.73754 0.73689 0.06709 0.0
H1085 H 0.63885 0.74628 0.99889 0.0
H1086 H 0.66001 0.72347 0.99926 0.0
H1087 H 0.70014 0.7606 0.00273 0.0
H1088 H 0.67913 0.78343 0.00196 0.0
H1089 H 0.7044 0.73394 0.05615 0.0
H1090 H 0.69203 0.74191 0.92025 0.0
H1091 H 0.67339 0.74371 0.86296 0.0
H1092 H 0.65675 0.69252 0.88208 0.0
H1093 H 0.67513 0.6905 0.93986 0.0
C1094 C 0.7635 0.6812 0.00544 0.0
C1095 C 0.75989 0.66387 0.00038 0.0
C1096 C 0.75047 0.69321 0.00517 0.0
C1097 C 0.73352 0.68817 0.00032 0.0
C1098 C 0.72992 0.67092 0.99416 0.0
C1099 C 0.74298 0.65887 0.99423 0.0
C1100 C 0.71962 0.70093 0.00201 0.0
C1101 C 0.70829 0.70219 0.97068 0.0
C1102 C 0.71802 0.71239 0.03349 0.0
C1103 C 0.72862 0.7109 0.06892 0.0
C1104 C 0.72934 0.69553 0.08959 0.0
C1105 C 0.73933 0.69418 0.12296 0.0
C1106 C 0.74857 0.70817 0.13613 0.0
C1107 C 0.74785 0.72352 0.11595 0.0
C1108 C 0.73789 0.72493 0.08252 0.0
C1109 C 0.65218 0.74958 0.99984 0.0
C1110 C 0.65732 0.76666 0.00031 0.0
C1111 C 0.66424 0.73654 0.9999 0.0
C1112 C 0.68164 0.74035 0.0008 0.0
C1113 C 0.68678 0.75738 0.00201 0.0
C1114 C 0.67475 0.77041 0.00146 0.0
C1115 C 0.69456 0.72664 0.00037 0.0
C1116 C 0.70567 0.72521 0.03198 0.0
C1117 C 0.69584 0.71494 0.96937 0.0
C1118 C 0.68481 0.71613 0.93463 0.0
C1119 C 0.68428 0.73109 0.91245 0.0
C1120 C 0.67378 0.73214 0.87985 0.0
C1121 C 0.66385 0.71826 0.86896 0.0
C1122 C 0.66443 0.70328 0.8906 0.0
C1123 C 0.67489 0.70217 0.92326 0.0
H1124 H 0.65574 0.71909 0.8437 0.0
H1125 H 0.75622 0.70712 0.16206 0.0
H1126 H 0.22135 0.67838 0.98949 0.0
H1127 H 0.24438 0.69901 0.98797 0.0
H1128 H 0.28082 0.65879 0.00395 0.0
H1129 H 0.25768 0.63801 0.0063 0.0
H1130 H 0.28907 0.68581 0.04712 0.0
H1131 H 0.27456 0.67644 0.91449 0.0
H1132 H 0.25564 0.67399 0.85779 0.0
H1133 H 0.24099 0.72614 0.87074 0.0
H1134 H 0.25964 0.72884 0.92788 0.0
H1135 H 0.35867 0.73938 0.99122 0.0
H1136 H 0.33793 0.71616 0.98997 0.0
H1137 H 0.2971 0.75254 0.99087 0.0
H1138 H 0.31768 0.77575 0.99268 0.0
H1139 H 0.29285 0.72585 0.93631 0.0
H1140 H 0.30624 0.73426 0.07162 0.0
H1141 H 0.32537 0.73649 0.12798 0.0
H1142 H 0.34275 0.68558 0.10843 0.0
H1143 H 0.32388 0.68314 0.05155 0.0
C1144 C 0.23425 0.6739 0.99284 0.0
C1145 C 0.2377 0.65654 0.99777 0.0
C1146 C 0.24743 0.68571 0.99176 0.0
C1147 C 0.26437 0.68043 0.99508 0.0
C1148 C 0.26785 0.66315 0.00111 0.0
C1149 C 0.25462 0.65129 0.0024 0.0
C1150 C 0.27836 0.69301 0.992 0.0
C1151 C 0.29007 0.69436 0.02255 0.0
C1152 C 0.27957 0.70434 0.96018 0.0
C1153 C 0.2684 0.7028 0.92568 0.0
C1154 C 0.26721 0.68736 0.90542 0.0
C1155 C 0.25655 0.68593 0.87317 0.0
C1156 C 0.24709 0.69989 0.86072 0.0
C1157 C 0.24831 0.71533 0.88044 0.0
C1158 C 0.25894 0.71682 0.91273 0.0
C1159 C 0.34527 0.74242 0.99084 0.0
C1160 C 0.33979 0.75937 0.99215 0.0
C1161 C 0.33346 0.72915 0.99029 0.0
C1162 C 0.316 0.73266 0.99055 0.0
C1163 C 0.31052 0.74958 0.99066 0.0
C1164 C 0.32229 0.76281 0.9918 0.0
C1165 C 0.30335 0.71874 0.99159 0.0
C1166 C 0.29192 0.71717 0.96064 0.0
C1167 C 0.30247 0.70715 0.02288 0.0
C1168 C 0.31381 0.70859 0.05705 0.0
C1169 C 0.31426 0.7236 0.0791 0.0
C1170 C 0.32503 0.72489 0.11119 0.0
C1171 C 0.33531 0.7112 0.1217 0.0
C1172 C 0.33481 0.69618 0.1002 0.0
C1173 C 0.32407 0.69484 0.06805 0.0
H1174 H 0.34364 0.71222 0.14656 0.0
H1175 H 0.23884 0.69876 0.83575 0.0
H1176 H 0.86297 0.75587 0.49336 0.0
H1177 H 0.84191 0.77864 0.49248 0.0
H1178 H 0.80173 0.7415 0.48839 0.0
H1179 H 0.82275 0.71872 0.48793 0.0
H1180 H 0.79484 0.76579 0.44001 0.0
H1181 H 0.81257 0.76384 0.57321 0.0
H1182 H 0.83297 0.76425 0.62744 0.0
H1183 H 0.84913 0.81424 0.5945 0.0
H1184 H 0.82897 0.81403 0.53974 0.0
H1185 H 0.72584 0.81641 0.50476 0.0
H1186 H 0.74858 0.79552 0.49863 0.0
H1187 H 0.78507 0.8358 0.48451 0.0
H1188 H 0.76231 0.85686 0.4904 0.0
H1189 H 0.79472 0.8113 0.53941 0.0
H1190 H 0.77481 0.81328 0.40803 0.0
H1191 H 0.75333 0.81237 0.35608 0.0
H1192 H 0.74005 0.76149 0.38854 0.0
H1193 H 0.76128 0.76218 0.44109 0.0
C1194 C 0.84964 0.75256 0.49238 0.0
C1195 C 0.84451 0.7355 0.49084 0.0
C1196 C 0.8376 0.76559 0.49202 0.0
C1197 C 0.82018 0.76182 0.49087 0.0
C1198 C 0.81507 0.74476 0.48924 0.0
C1199 C 0.8271 0.73174 0.48913 0.0
C1200 C 0.80726 0.77558 0.49104 0.0
C1201 C 0.79473 0.77562 0.46204 0.0
C1202 C 0.80728 0.78868 0.5192 0.0
C1203 C 0.81939 0.78884 0.55213 0.0
C1204 C 0.82057 0.77487 0.57735 0.0
C1205 C 0.83207 0.77507 0.60821 0.0
C1206 C 0.84238 0.78924 0.61434 0.0
C1207 C 0.84117 0.80326 0.58968 0.0
C1208 C 0.82969 0.80311 0.55874 0.0
C1209 C 0.73868 0.82084 0.50007 0.0
C1210 C 0.74229 0.83829 0.49804 0.0
C1211 C 0.75165 0.80888 0.49646 0.0
C1212 C 0.76849 0.81411 0.49092 0.0
C1213 C 0.77215 0.83151 0.48872 0.0
C1214 C 0.75913 0.84351 0.49193 0.0
C1215 C 0.78229 0.80135 0.48869 0.0
C1216 C 0.79494 0.80151 0.51729 0.0
C1217 C 0.78227 0.78832 0.46046 0.0
C1218 C 0.76955 0.78784 0.42873 0.0
C1219 C 0.76722 0.80194 0.4043 0.0
C1220 C 0.7551 0.80146 0.3747 0.0
C1221 C 0.7453 0.78689 0.36907 0.0
C1222 C 0.74764 0.77277 0.39296 0.0
C1223 C 0.75972 0.77319 0.42263 0.0
H1224 H 0.73593 0.78655 0.34614 0.0
H1225 H 0.85128 0.78937 0.63826 0.0
H1226 H 0.24502 0.8635 0.49265 0.0
H1227 H 0.22204 0.84262 0.49256 0.0
H1228 H 0.25876 0.80214 0.48582 0.0
H1229 H 0.2817 0.82294 0.48476 0.0
H1230 H 0.23417 0.79602 0.43749 0.0
H1231 H 0.23709 0.81245 0.57149 0.0
H1232 H 0.23708 0.83237 0.62666 0.0
H1233 H 0.18689 0.84885 0.5963 0.0
H1234 H 0.18669 0.82917 0.54061 0.0
H1235 H 0.18448 0.7261 0.49856 0.0
H1236 H 0.20512 0.74912 0.49408 0.0
H1237 H 0.16445 0.78547 0.48494 0.0
H1238 H 0.14362 0.7624 0.48934 0.0
H1239 H 0.18941 0.79486 0.5386 0.0
H1240 H 0.18648 0.77626 0.4063 0.0
H1241 H 0.187 0.75527 0.35328 0.0
H1242 H 0.23811 0.74173 0.38311 0.0
H1243 H 0.23781 0.76247 0.4367 0.0
C1244 C 0.24819 0.85015 0.49131 0.0
C1245 C 0.26519 0.84488 0.48877 0.0
C1246 C 0.23503 0.83821 0.4914 0.0
C1247 C 0.23863 0.82076 0.48957 0.0
C1248 C 0.25562 0.81551 0.48716 0.0
C1249 C 0.26875 0.82743 0.4867 0.0
C1250 C 0.22478 0.80791 0.48953 0.0
C1251 C 0.2245 0.79568 0.45987 0.0
C1252 C 0.21187 0.80766 0.51814 0.0
C1253 C 0.21195 0.81948 0.55163 0.0
C1254 C 0.2261 0.82042 0.57639 0.0
C1255 C 0.22613 0.83165 0.60779 0.0
C1256 C 0.21202 0.8419 0.61491 0.0
C1257 C 0.19783 0.84092 0.59071 0.0
C1258 C 0.19775 0.82972 0.55924 0.0
C1259 C 0.17989 0.73897 0.49536 0.0
C1260 C 0.16241 0.74242 0.49421 0.0
C1261 C 0.19172 0.75212 0.49271 0.0
C1262 C 0.18633 0.769 0.48893 0.0
C1263 C 0.16887 0.77252 0.48779 0.0
C1264 C 0.157 0.75933 0.49013 0.0
C1265 C 0.199 0.78291 0.48691 0.0
C1266 C 0.19903 0.79532 0.51612 0.0
C1267 C 0.2118 0.78322 0.45815 0.0
C1268 C 0.21207 0.77083 0.42573 0.0
C1269 C 0.19779 0.76872 0.40175 0.0
C1270 C 0.19805 0.75688 0.37155 0.0
C1271 C 0.21257 0.74715 0.36488 0.0
C1272 C 0.22687 0.74927 0.38833 0.0
C1273 C 0.22667 0.76108 0.41859 0.0
H1274 H 0.21275 0.73799 0.3415 0.0
H1275 H 0.21206 0.85059 0.63924 0.0
H1276 H 0.23929 0.14391 0.48543 0.0
H1277 H 0.2163 0.16486 0.48468 0.0
H1278 H 0.25281 0.20506 0.5003 0.0
H1279 H 0.27567 0.18425 0.50201 0.0
H1280 H 0.2274 0.20982 0.54731 0.0
H1281 H 0.23291 0.19705 0.41164 0.0
H1282 H 0.23384 0.1787 0.35374 0.0
H1283 H 0.18295 0.16199 0.37636 0.0
H1284 H 0.1818 0.18008 0.43473 0.0
H1285 H 0.17896 0.28176 0.49389 0.0
H1286 H 0.19959 0.25861 0.49441 0.0
H1287 H 0.15888 0.22209 0.49558 0.0
H1288 H 0.13809 0.24523 0.49524 0.0
H1289 H 0.18475 0.21426 0.44196 0.0
H1290 H 0.17933 0.22887 0.57653 0.0
H1291 H 0.17886 0.2483 0.63258 0.0
H1292 H 0.23047 0.26256 0.60986 0.0
H1293 H 0.23117 0.2434 0.55328 0.0
C1294 C 0.2424 0.15723 0.48844 0.0
C1295 C 0.2593 0.16241 0.49381 0.0
C1296 C 0.22925 0.1692 0.4879 0.0
C1297 C 0.2328 0.18659 0.49221 0.0
C1298 C 0.24971 0.19174 0.49708 0.0
C1299 C 0.26279 0.17981 0.49792 0.0
C1300 C 0.21898 0.19948 0.49269 0.0
C1301 C 0.2182 0.21087 0.52402 0.0
C1302 C 0.20668 0.20066 0.46284 0.0
C1303 C 0.20734 0.18977 0.4278 0.0
C1304 C 0.22197 0.18935 0.40445 0.0
C1305 C 0.22252 0.17902 0.37152 0.0
C1306 C 0.20848 0.16915 0.36145 0.0
C1307 C 0.19383 0.16962 0.38424 0.0
C1308 C 0.19322 0.17992 0.41724 0.0
C1309 C 0.17437 0.26881 0.49431 0.0
C1310 C 0.15688 0.26533 0.49467 0.0
C1311 C 0.18619 0.25559 0.49468 0.0
C1312 C 0.18077 0.23863 0.49528 0.0
C1313 C 0.16332 0.23509 0.49514 0.0
C1314 C 0.15147 0.24833 0.49513 0.0
C1315 C 0.1934 0.22465 0.49622 0.0
C1316 C 0.19392 0.21309 0.46528 0.0
C1317 C 0.20558 0.22339 0.52622 0.0
C1318 C 0.20525 0.2348 0.56046 0.0
C1319 C 0.19054 0.23624 0.5833 0.0
C1320 C 0.19024 0.24719 0.6152 0.0
C1321 C 0.20461 0.25669 0.62472 0.0
C1322 C 0.21934 0.25521 0.60242 0.0
C1323 C 0.2197 0.2443 0.57046 0.0
H1324 H 0.20435 0.26516 0.64942 0.0
H1325 H 0.20894 0.16116 0.33593 0.0
H1326 H 0.81875 0.27882 0.49261 0.0
H1327 H 0.79854 0.25538 0.49223 0.0
H1328 H 0.83991 0.21955 0.49367 0.0
H1329 H 0.86026 0.24308 0.49251 0.0
H1330 H 0.81588 0.20807 0.44849 0.0
H1331 H 0.81716 0.23007 0.57755 0.0
H1332 H 0.81581 0.25201 0.62843 0.0
H1333 H 0.76453 0.26364 0.59596 0.0
H1334 H 0.76565 0.24192 0.5445 0.0
H1335 H 0.76206 0.13945 0.50834 0.0
H1336 H 0.78438 0.16112 0.50823 0.0
H1337 H 0.74665 0.20004 0.49141 0.0
H1338 H 0.72434 0.17853 0.49147 0.0
H1339 H 0.77013 0.20858 0.54734 0.0
H1340 H 0.76995 0.18666 0.41627 0.0
H1341 H 0.77184 0.16413 0.3668 0.0
H1342 H 0.82191 0.1514 0.40624 0.0
H1343 H 0.82022 0.17371 0.45631 0.0
C1344 C 0.82355 0.26595 0.49252 0.0
C1345 C 0.84109 0.26278 0.4929 0.0
C1346 C 0.81198 0.25254 0.49256 0.0
C1347 C 0.81767 0.23566 0.49397 0.0
C1348 C 0.8352 0.23245 0.49286 0.0
C1349 C 0.84682 0.2459 0.4922 0.0
C1350 C 0.80529 0.22147 0.49732 0.0
C1351 C 0.80605 0.20807 0.47051 0.0
C1352 C 0.79232 0.22147 0.52581 0.0
C1353 C 0.79154 0.23446 0.55696 0.0
C1354 C 0.80563 0.23738 0.5811 0.0
C1355 C 0.8049 0.24977 0.61006 0.0
C1356 C 0.79011 0.25924 0.61537 0.0
C1357 C 0.77599 0.25631 0.59179 0.0
C1358 C 0.77666 0.24394 0.56275 0.0
C1359 C 0.75852 0.15263 0.5048 0.0
C1360 C 0.74144 0.15727 0.49982 0.0
C1361 C 0.77129 0.16498 0.50457 0.0
C1362 C 0.76718 0.18218 0.49948 0.0
C1363 C 0.75011 0.18685 0.49534 0.0
C1364 C 0.73737 0.17453 0.49529 0.0
C1365 C 0.7806 0.19539 0.49822 0.0
C1366 C 0.78004 0.20857 0.52552 0.0
C1367 C 0.79384 0.19507 0.4705 0.0
C1368 C 0.79489 0.18172 0.44029 0.0
C1369 C 0.78131 0.17896 0.4146 0.0
C1370 C 0.78235 0.16625 0.38641 0.0
C1371 C 0.79696 0.15631 0.38345 0.0
C1372 C 0.81058 0.15909 0.4086 0.0
C1373 C 0.8096 0.17177 0.43687 0.0
H1374 H 0.79775 0.14647 0.36161 0.0
H1375 H 0.78957 0.26883 0.6378 0.0
H1376 H 0.15137 0.34021 0.42596 0.0
H1377 H 0.16014 0.35367 0.36515 0.0
H1378 H 0.11727 0.33125 0.3069 0.0
H1379 H 0.10793 0.3186 0.36836 0.0
H1380 H 0.16451 0.32792 0.29768 0.0
H1381 H 0.1082 0.3541 0.26692 0.0
H1382 H 0.08351 0.37293 0.27541 0.0
H1383 H 0.11665 0.41429 0.30417 0.0
H1384 H 0.14151 0.39555 0.29649 0.0
H1385 H 0.17608 0.34439 0.09632 0.0
H1386 H 0.1639 0.33754 0.15978 0.0
H1387 H 0.18052 0.386 0.20388 0.0
H1388 H 0.19285 0.39283 0.14008 0.0
H1389 H 0.14619 0.37791 0.22115 0.0
H1390 H 0.20151 0.35235 0.23032 0.0
H1391 H 0.22496 0.3341 0.20802 0.0
H1392 H 0.19225 0.29058 0.2122 0.0
H1393 H 0.16852 0.30862 0.23399 0.0
C1394 C 0.14334 0.33894 0.40063 0.0
C1395 C 0.12861 0.32897 0.4021 0.0
C1396 C 0.1484 0.34654 0.36587 0.0
C1397 C 0.13905 0.34394 0.33172 0.0
C1398 C 0.12425 0.33407 0.33316 0.0
C1399 C 0.11905 0.32667 0.36813 0.0
C1400 C 0.14672 0.3486 0.29399 0.0
C1401 C 0.16038 0.33876 0.28072 0.0
C1402 C 0.14148 0.36282 0.27208 0.0
C1403 C 0.12664 0.37328 0.28253 0.0
C1404 C 0.11017 0.36704 0.27637 0.0
C1405 C 0.09616 0.37777 0.28043 0.0
C1406 C 0.0985 0.39481 0.29025 0.0
C1407 C 0.11485 0.4011 0.29655 0.0
C1408 C 0.12889 0.39041 0.29255 0.0
C1409 C 0.17703 0.35359 0.11959 0.0
C1410 C 0.18492 0.3693 0.11338 0.0
C1411 C 0.17022 0.34962 0.1558 0.0
C1412 C 0.17134 0.36125 0.18647 0.0
C1413 C 0.17949 0.37689 0.18047 0.0
C1414 C 0.18651 0.38077 0.14424 0.0
C1415 C 0.16375 0.35711 0.22457 0.0
C1416 C 0.15027 0.36706 0.23806 0.0
C1417 C 0.16889 0.34275 0.24615 0.0
C1418 C 0.18321 0.33186 0.23351 0.0
C1419 C 0.19928 0.33891 0.22623 0.0
C1420 C 0.21263 0.3286 0.21372 0.0
C1421 C 0.21009 0.3112 0.20862 0.0
C1422 C 0.1942 0.30407 0.21614 0.0
C1423 C 0.1808 0.31432 0.22861 0.0
H1424 H 0.22043 0.30324 0.19891 0.0
H1425 H 0.08765 0.40312 0.29318 0.0
H1426 H 0.685 0.1548 0.41376 0.0
H1427 H 0.67594 0.1651 0.3508 0.0
H1428 H 0.66952 0.11331 0.31188 0.0
H1429 H 0.68213 0.1034 0.37235 0.0
H1430 H 0.6812 0.12662 0.25855 0.0
H1431 H 0.62809 0.15439 0.32418 0.0
H1432 H 0.61506 0.17424 0.37137 0.0
H1433 H 0.65405 0.21079 0.34823 0.0
H1434 H 0.66679 0.19151 0.29984 0.0
H1435 H 0.61313 0.17587 0.13091 0.0
H1436 H 0.62335 0.16231 0.19022 0.0
H1437 H 0.67326 0.15814 0.13932 0.0
H1438 H 0.66231 0.16949 0.07862 0.0
H1439 H 0.64274 0.17515 0.23597 0.0
H1440 H 0.69671 0.14369 0.17544 0.0
H1441 H 0.70959 0.12216 0.13256 0.0
H1442 H 0.66701 0.08924 0.15153 0.0
H1443 H 0.6535 0.11102 0.19273 0.0
C1444 C 0.68145 0.14569 0.39164 0.0
C1445 C 0.68366 0.12829 0.39814 0.0
C1446 C 0.67583 0.1516 0.35563 0.0
C1447 C 0.67125 0.14018 0.32603 0.0
C1448 C 0.67297 0.12263 0.33354 0.0
C1449 C 0.67982 0.11683 0.36852 0.0
C1450 C 0.66624 0.14612 0.28623 0.0
C1451 C 0.67238 0.137 0.25408 0.0
C1452 C 0.65562 0.1603 0.27896 0.0
C1453 C 0.6487 0.17129 0.30977 0.0
C1454 C 0.63402 0.16652 0.3299 0.0
C1455 C 0.62662 0.17771 0.3565 0.0
C1456 C 0.63396 0.19355 0.36348 0.0
C1457 C 0.6485 0.19843 0.3432 0.0
C1458 C 0.65571 0.18746 0.31595 0.0
C1459 C 0.62608 0.17132 0.13209 0.0
C1460 C 0.63686 0.17335 0.1002 0.0
C1461 C 0.63203 0.16368 0.16605 0.0
C1462 C 0.64919 0.15889 0.16978 0.0
C1463 C 0.65988 0.16079 0.13738 0.0
C1464 C 0.65366 0.16762 0.10268 0.0
C1465 C 0.65603 0.15433 0.20896 0.0
C1466 C 0.65085 0.16422 0.24079 0.0
C1467 C 0.66735 0.14072 0.21598 0.0
C1468 C 0.67376 0.12925 0.18555 0.0
C1469 C 0.68984 0.1321 0.16921 0.0
C1470 C 0.69728 0.11984 0.14538 0.0
C1471 C 0.68906 0.10439 0.13904 0.0
C1472 C 0.67329 0.10128 0.15614 0.0
C1473 C 0.66557 0.11372 0.17904 0.0
H1474 H 0.69493 0.0948 0.12104 0.0
H1475 H 0.62824 0.20213 0.38421 0.0
H1476 H 0.85271 0.66182 0.41764 0.0
H1477 H 0.84464 0.6494 0.35522 0.0
H1478 H 0.88699 0.6744 0.30061 0.0
H1479 H 0.89574 0.68592 0.3637 0.0
H1480 H 0.84046 0.67704 0.28903 0.0
H1481 H 0.89656 0.65174 0.26065 0.0
H1482 H 0.9216 0.63335 0.26868 0.0
H1483 H 0.88917 0.59067 0.2909 0.0
H1484 H 0.86395 0.60895 0.28363 0.0
H1485 H 0.82713 0.65946 0.08746 0.0
H1486 H 0.84055 0.66674 0.1495 0.0
H1487 H 0.82337 0.6193 0.19803 0.0
H1488 H 0.80975 0.61211 0.13589 0.0
H1489 H 0.85859 0.62719 0.21182 0.0
H1490 H 0.80318 0.65308 0.22254 0.0
H1491 H 0.77983 0.67156 0.20061 0.0
H1492 H 0.81309 0.71467 0.20319 0.0
H1493 H 0.83672 0.6964 0.22455 0.0
C1494 C 0.86083 0.66386 0.39274 0.0
C1495 C 0.87526 0.6742 0.39575 0.0
C1496 C 0.85615 0.65688 0.35703 0.0
C1497 C 0.86553 0.66051 0.32344 0.0
C1498 C 0.88 0.6708 0.32636 0.0
C1499 C 0.88487 0.67754 0.36229 0.0
C1500 C 0.85818 0.65631 0.28507 0.0
C1501 C 0.84458 0.66626 0.27187 0.0
C1502 C 0.86344 0.64219 0.26286 0.0
C1503 C 0.87841 0.63183 0.27293 0.0
C1504 C 0.89479 0.63858 0.26856 0.0
C1505 C 0.90901 0.62811 0.27236 0.0
C1506 C 0.90698 0.61084 0.28021 0.0
C1507 C 0.89073 0.60405 0.28478 0.0
C1508 C 0.87648 0.61447 0.281 0.0
C1509 C 0.82636 0.65057 0.11138 0.0
C1510 C 0.81789 0.63505 0.10693 0.0
C1511 C 0.83389 0.65478 0.14676 0.0
C1512 C 0.83294 0.64354 0.17826 0.0
C1513 C 0.82429 0.62809 0.17394 0.0
C1514 C 0.81654 0.62399 0.13864 0.0
C1515 C 0.84102 0.64797 0.21568 0.0
C1516 C 0.85457 0.63802 0.22886 0.0
C1517 C 0.83601 0.66235 0.23731 0.0
C1518 C 0.82176 0.67334 0.22481 0.0
C1519 C 0.80555 0.66648 0.21813 0.0
C1520 C 0.79226 0.67692 0.20585 0.0
C1521 C 0.79499 0.69427 0.20044 0.0
C1522 C 0.811 0.70123 0.20737 0.0
C1523 C 0.82434 0.69084 0.21958 0.0
H1524 H 0.7847 0.70234 0.19097 0.0
H1525 H 0.918 0.60274 0.28296 0.0
H1526 H 0.33853 0.85082 0.41398 0.0
H1527 H 0.35125 0.84207 0.35239 0.0
H1528 H 0.32698 0.88413 0.29499 0.0
H1529 H 0.31525 0.89362 0.35728 0.0
H1530 H 0.32529 0.83656 0.28651 0.0
H1531 H 0.3486 0.89354 0.25376 0.0
H1532 H 0.36626 0.91921 0.25934 0.0
H1533 H 0.40987 0.88844 0.28412 0.0
H1534 H 0.39227 0.8626 0.27973 0.0
H1535 H 0.3426 0.82468 0.08451 0.0
H1536 H 0.33509 0.83702 0.14752 0.0
H1537 H 0.38328 0.82095 0.19406 0.0
H1538 H 0.39069 0.80832 0.13092 0.0
H1539 H 0.3743 0.85599 0.20824 0.0
H1540 H 0.35115 0.79991 0.22115 0.0
H1541 H 0.33395 0.77537 0.20066 0.0
H1542 H 0.289 0.8061 0.2033 0.0
H1543 H 0.30598 0.8309 0.22323 0.0
C1544 C 0.33671 0.85872 0.38862 0.0
C1545 C 0.32659 0.87332 0.39064 0.0
C1546 C 0.34387 0.85365 0.35339 0.0
C1547 C 0.34061 0.8628 0.31928 0.0
C1548 C 0.33039 0.87736 0.32115 0.0
C1549 C 0.3235 0.88263 0.35663 0.0
C1550 C 0.34519 0.85518 0.28144 0.0
C1551 C 0.33587 0.84098 0.26909 0.0
C1552 C 0.35911 0.86076 0.25895 0.0
C1553 C 0.36897 0.87621 0.26803 0.0
C1554 C 0.36178 0.89229 0.26197 0.0
C1555 C 0.37184 0.90686 0.26428 0.0
C1556 C 0.38919 0.90547 0.27205 0.0
C1557 C 0.39644 0.88951 0.27811 0.0
C1558 C 0.3864 0.87492 0.27602 0.0
C1559 C 0.35157 0.82387 0.10825 0.0
C1560 C 0.36737 0.81602 0.10296 0.0
C1561 C 0.34724 0.83077 0.14417 0.0
C1562 C 0.35864 0.82986 0.17534 0.0
C1563 C 0.37436 0.82178 0.17024 0.0
C1564 C 0.37858 0.81462 0.13438 0.0
C1565 C 0.35421 0.83771 0.21295 0.0
C1566 C 0.36363 0.85172 0.22548 0.0
C1567 C 0.34012 0.83224 0.23496 0.0
C1568 C 0.32987 0.8173 0.22334 0.0
C1569 C 0.33762 0.80147 0.21705 0.0
C1570 C 0.3279 0.78751 0.20559 0.0
C1571 C 0.3104 0.78918 0.20059 0.0
C1572 C 0.30257 0.80482 0.20715 0.0
C1573 C 0.31223 0.81883 0.21856 0.0
H1574 H 0.3029 0.77835 0.19171 0.0
H1575 H 0.39698 0.91675 0.27354 0.0
H1576 H 0.11587 0.6966 0.63793 0.0
H1577 H 0.12414 0.68425 0.70065 0.0
H1578 H 0.16697 0.65997 0.64596 0.0
H1579 H 0.15888 0.67255 0.58363 0.0
H1580 H 0.14881 0.63837 0.69362 0.0
H1581 H 0.17341 0.69397 0.69897 0.0
H1582 H 0.17318 0.72521 0.69574 0.0
H1583 H 0.13767 0.72709 0.79008 0.0
H1584 H 0.1375 0.69582 0.7935 0.0
H1585 H 0.19256 0.61109 0.86266 0.0
H1586 H 0.18263 0.62176 0.80031 0.0
H1587 H 0.15107 0.65832 0.85971 0.0
H1588 H 0.16349 0.64957 0.92115 0.0
H1589 H 0.16308 0.67371 0.80766 0.0
H1590 H 0.13645 0.61766 0.79886 0.0
H1591 H 0.1353 0.58623 0.79815 0.0
H1592 H 0.17307 0.58501 0.70865 0.0
H1593 H 0.17436 0.61627 0.70871 0.0
C1594 C 0.12699 0.68855 0.63948 0.0
C1595 C 0.13643 0.68496 0.60598 0.0
C1596 C 0.13173 0.68158 0.67518 0.0
C1597 C 0.14615 0.67118 0.67787 0.0
C1598 C 0.15573 0.66785 0.64443 0.0
C1599 C 0.15104 0.67489 0.60887 0.0
C1600 C 0.15128 0.66369 0.71549 0.0
C1601 C 0.15199 0.64602 0.71861 0.0
C1602 C 0.15517 0.67375 0.74815 0.0
C1603 C 0.15531 0.69255 0.74621 0.0
C1604 C 0.16544 0.70104 0.7188 0.0
C1605 C 0.1654 0.71875 0.71698 0.0
C1606 C 0.15538 0.72813 0.74261 0.0
C1607 C 0.14541 0.71981 0.7702 0.0
C1608 C 0.14538 0.70209 0.77211 0.0
C1609 C 0.18328 0.62123 0.86222 0.0
C1610 C 0.17798 0.62886 0.89694 0.0
C1611 C 0.17736 0.62719 0.82646 0.0
C1612 C 0.16551 0.64054 0.8247 0.0
C1613 C 0.16005 0.64793 0.85973 0.0
C1614 C 0.16671 0.64257 0.8952 0.0
C1615 C 0.16008 0.648 0.78674 0.0
C1616 C 0.15954 0.66581 0.7832 0.0
C1617 C 0.15616 0.638 0.75365 0.0
C1618 C 0.15569 0.61923 0.75438 0.0
C1619 C 0.14464 0.61062 0.77948 0.0
C1620 C 0.14392 0.59288 0.77907 0.0
C1621 C 0.15421 0.58366 0.75371 0.0
C1622 C 0.16516 0.59215 0.72844 0.0
C1623 C 0.16585 0.60986 0.72857 0.0
H1624 H 0.15363 0.56995 0.75347 0.0
H1625 H 0.15537 0.74185 0.74116 0.0
H1626 H 0.31488 0.1103 0.62664 0.0
H1627 H 0.32916 0.11835 0.68693 0.0
H1628 H 0.33284 0.17003 0.64536 0.0
H1629 H 0.32092 0.1612 0.5834 0.0
H1630 H 0.35794 0.16666 0.67995 0.0
H1631 H 0.30182 0.15119 0.72057 0.0
H1632 H 0.27662 0.133 0.72895 0.0
H1633 H 0.30654 0.09655 0.79131 0.0
H1634 H 0.33196 0.11444 0.78291 0.0
H1635 H 0.34716 0.18127 0.90552 0.0
H1636 H 0.33679 0.1709 0.84347 0.0
H1637 H 0.38817 0.17066 0.79928 0.0
H1638 H 0.398 0.18345 0.86005 0.0
H1639 H 0.33776 0.14596 0.80739 0.0
H1640 H 0.39034 0.16894 0.70217 0.0
H1641 H 0.41043 0.1927 0.69436 0.0
H1642 H 0.37794 0.2248 0.76222 0.0
H1643 H 0.35757 0.20129 0.77005 0.0
C1644 C 0.31902 0.12329 0.63054 0.0
C1645 C 0.3173 0.13506 0.6004 0.0
C1646 C 0.32688 0.12803 0.66531 0.0
C1647 C 0.33191 0.14497 0.67165 0.0
C1648 C 0.32945 0.15682 0.64158 0.0
C1649 C 0.3225 0.15185 0.60616 0.0
C1650 C 0.33985 0.1505 0.70904 0.0
C1651 C 0.35331 0.16222 0.70777 0.0
C1652 C 0.33404 0.14489 0.74582 0.0
C1653 C 0.31882 0.13404 0.75063 0.0
C1654 C 0.30304 0.13923 0.7358 0.0
C1655 C 0.28872 0.12899 0.7406 0.0
C1656 C 0.28999 0.1136 0.76052 0.0
C1657 C 0.30558 0.10845 0.77579 0.0
C1658 C 0.31995 0.11863 0.77102 0.0
C1659 C 0.35615 0.17916 0.88221 0.0
C1660 C 0.37336 0.18286 0.8874 0.0
C1661 C 0.35027 0.17308 0.84674 0.0
C1662 C 0.36157 0.16998 0.81591 0.0
C1663 C 0.37895 0.17345 0.82162 0.0
C1664 C 0.38468 0.18046 0.8566 0.0
C1665 C 0.35493 0.1631 0.77838 0.0
C1666 C 0.34211 0.15069 0.77959 0.0
C1667 C 0.36042 0.16908 0.74165 0.0
C1668 C 0.37258 0.18328 0.73719 0.0
C1669 C 0.3875 0.18107 0.71541 0.0
C1670 C 0.39892 0.1945 0.71097 0.0
C1671 C 0.3955 0.21023 0.72795 0.0
C1672 C 0.38061 0.21259 0.74925 0.0
C1673 C 0.36913 0.19922 0.75373 0.0
H1674 H 0.40437 0.2206 0.72449 0.0
H1675 H 0.27889 0.10569 0.76422 0.0
H1676 H 0.81349 0.39717 0.86292 0.0
H1677 H 0.82683 0.38739 0.80279 0.0
H1678 H 0.82748 0.33618 0.8481 0.0
H1679 H 0.81663 0.3466 0.90969 0.0
H1680 H 0.85252 0.33746 0.81266 0.0
H1681 H 0.7971 0.35579 0.7726 0.0
H1682 H 0.77309 0.37549 0.76373 0.0
H1683 H 0.80492 0.40907 0.69795 0.0
H1684 H 0.82917 0.38965 0.70684 0.0
H1685 H 0.8404 0.32154 0.58713 0.0
H1686 H 0.83039 0.33233 0.64916 0.0
H1687 H 0.88164 0.33001 0.6939 0.0
H1688 H 0.89093 0.31675 0.63333 0.0
H1689 H 0.83252 0.35729 0.68438 0.0
H1690 H 0.88442 0.33246 0.78971 0.0
H1691 H 0.90285 0.30746 0.79865 0.0
H1692 H 0.86778 0.27683 0.73399 0.0
H1693 H 0.84905 0.3016 0.72507 0.0
C1694 C 0.81679 0.38391 0.85985 0.0
C1695 C 0.81453 0.37267 0.89085 0.0
C1696 C 0.8241 0.37819 0.82522 0.0
C1697 C 0.828 0.36087 0.82002 0.0
C1698 C 0.82499 0.34963 0.85099 0.0
C1699 C 0.81862 0.35552 0.88618 0.0
C1700 C 0.83527 0.35428 0.78287 0.0
C1701 C 0.84795 0.34174 0.78466 0.0
C1702 C 0.82947 0.35962 0.74589 0.0
C1703 C 0.81497 0.37138 0.74079 0.0
C1704 C 0.79899 0.36743 0.75648 0.0
C1705 C 0.78535 0.37854 0.75143 0.0
C1706 C 0.7875 0.39355 0.73041 0.0
C1707 C 0.80329 0.39746 0.71431 0.0
C1708 C 0.81698 0.38641 0.71934 0.0
C1709 C 0.8494 0.32312 0.61062 0.0
C1710 C 0.86643 0.31865 0.60564 0.0
C1711 C 0.84374 0.32945 0.64607 0.0
C1712 C 0.85514 0.33204 0.67698 0.0
C1713 C 0.87231 0.32763 0.67155 0.0
C1714 C 0.87776 0.32036 0.63665 0.0
C1715 C 0.84892 0.33964 0.71415 0.0
C1716 C 0.83683 0.35275 0.71235 0.0
C1717 C 0.85429 0.33388 0.75114 0.0
C1718 C 0.86546 0.31893 0.75631 0.0
C1719 C 0.88064 0.32038 0.77747 0.0
C1720 C 0.89113 0.30625 0.78253 0.0
C1721 C 0.88652 0.29059 0.76676 0.0
C1722 C 0.87137 0.28899 0.74604 0.0
C1723 C 0.86082 0.30307 0.74095 0.0
H1724 H 0.89467 0.27967 0.77069 0.0
H1725 H 0.77692 0.40212 0.72651 0.0
H1726 H 0.65105 0.84059 0.92729 0.0
H1727 H 0.66039 0.85291 0.86568 0.0
H1728 H 0.61876 0.82847 0.80705 0.0
H1729 H 0.60878 0.81694 0.86926 0.0
H1730 H 0.66293 0.82301 0.79627 0.0
H1731 H 0.61112 0.85469 0.77173 0.0
H1732 H 0.58793 0.87549 0.77794 0.0
H1733 H 0.62415 0.91494 0.80079 0.0
H1734 H 0.64754 0.89429 0.79482 0.0
H1735 H 0.67795 0.84214 0.59675 0.0
H1736 H 0.66574 0.83482 0.65989 0.0
H1737 H 0.68561 0.88127 0.70812 0.0
H1738 H 0.69778 0.88864 0.64456 0.0
H1739 H 0.65202 0.87646 0.72495 0.0
H1740 H 0.70322 0.84341 0.73135 0.0
H1741 H 0.72405 0.8225 0.70765 0.0
H1742 H 0.68573 0.7838 0.70796 0.0
H1743 H 0.66461 0.80453 0.73115 0.0
C1744 C 0.64336 0.83864 0.90164 0.0
C1745 C 0.62881 0.82842 0.90323 0.0
C1746 C 0.64877 0.84557 0.86642 0.0
C1747 C 0.64001 0.84197 0.83198 0.0
C1748 C 0.62536 0.83188 0.83348 0.0
C1749 C 0.61977 0.82519 0.8689 0.0
C1750 C 0.64811 0.84595 0.79436 0.0
C1751 C 0.66037 0.8346 0.78029 0.0
C1752 C 0.64495 0.86113 0.77391 0.0
C1753 C 0.63102 0.87286 0.78404 0.0
C1754 C 0.6141 0.86768 0.77928 0.0
C1755 C 0.60094 0.87951 0.78205 0.0
C1756 C 0.60456 0.89654 0.78968 0.0
C1757 C 0.62135 0.90175 0.79488 0.0
C1758 C 0.63455 0.88999 0.7919 0.0
C1759 C 0.67964 0.85077 0.62091 0.0
C1760 C 0.68829 0.86616 0.61587 0.0
C1761 C 0.67286 0.8465 0.657 0.0
C1762 C 0.67484 0.85746 0.68876 0.0
C1763 C 0.68394 0.87265 0.68395 0.0
C1764 C 0.69085 0.87686 0.64782 0.0
C1765 C 0.66661 0.85347 0.72632 0.0
C1766 C 0.65454 0.86486 0.74074 0.0
C1767 C 0.66956 0.83807 0.74629 0.0
C1768 C 0.6823 0.82556 0.73273 0.0
C1769 C 0.69921 0.83047 0.72611 0.0
C1770 C 0.71107 0.81865 0.71281 0.0
C1771 C 0.70621 0.80184 0.70623 0.0
C1772 C 0.68948 0.79682 0.71305 0.0
C1773 C 0.67756 0.8086 0.72633 0.0
H1774 H 0.71541 0.79271 0.69592 0.0
H1775 H 0.59436 0.90568 0.79176 0.0
H1776 H 0.88536 0.65668 0.61464 0.0
H1777 H 0.87346 0.6509 0.67852 0.0
H1778 H 0.83931 0.69328 0.66579 0.0
H1779 H 0.8516 0.69949 0.60185 0.0
H1780 H 0.8499 0.69053 0.73999 0.0
H1781 H 0.8255 0.65352 0.64688 0.0
H1782 H 0.82551 0.63339 0.59218 0.0
H1783 H 0.85345 0.59745 0.66056 0.0
H1784 H 0.85386 0.61749 0.71552 0.0
H1785 H 0.79942 0.65504 0.89552 0.0
H1786 H 0.80642 0.6647 0.82957 0.0
H1787 H 0.85009 0.63179 0.8286 0.0
H1788 H 0.84341 0.62236 0.89434 0.0
H1789 H 0.83009 0.63129 0.75857 0.0
H1790 H 0.85634 0.67078 0.8492 0.0
H1791 H 0.85549 0.6914 0.90296 0.0
H1792 H 0.82171 0.72309 0.83735 0.0
H1793 H 0.82214 0.70248 0.78343 0.0
C1794 C 0.87548 0.66494 0.62561 0.0
C1795 C 0.86929 0.67843 0.60302 0.0
C1796 C 0.86863 0.66157 0.66209 0.0
C1797 C 0.85515 0.67136 0.6765 0.0
C1798 C 0.8496 0.68548 0.6551 0.0
C1799 C 0.85665 0.68902 0.61863 0.0
C1800 C 0.84645 0.66614 0.71287 0.0
C1801 C 0.84528 0.67767 0.74379 0.0
C1802 C 0.84035 0.64936 0.7179 0.0
C1803 C 0.83979 0.63706 0.68527 0.0
C1804 C 0.83172 0.64135 0.65021 0.0
C1805 C 0.83165 0.62996 0.61914 0.0
C1806 C 0.83951 0.61416 0.62285 0.0
C1807 C 0.84738 0.6097 0.65772 0.0
C1808 C 0.84751 0.62106 0.68887 0.0
C1809 C 0.81037 0.64972 0.88098 0.0
C1810 C 0.8209 0.63799 0.90011 0.0
C1811 C 0.81439 0.65529 0.84346 0.0
C1812 C 0.82882 0.649 0.82438 0.0
C1813 C 0.83891 0.63679 0.84284 0.0
C1814 C 0.83509 0.63146 0.88044 0.0
C1815 C 0.834 0.65553 0.78583 0.0
C1816 C 0.83447 0.64422 0.75447 0.0
C1817 C 0.83919 0.67254 0.7803 0.0
C1818 C 0.8391 0.685 0.8125 0.0
C1819 C 0.84861 0.68207 0.84638 0.0
C1820 C 0.84823 0.69377 0.87685 0.0
C1821 C 0.83851 0.70852 0.87362 0.0
C1822 C 0.8292 0.71164 0.83985 0.0
C1823 C 0.82951 0.69995 0.80933 0.0
H1824 H 0.83823 0.71757 0.89723 0.0
H1825 H 0.83947 0.60537 0.59873 0.0
H1826 H 0.30239 0.85218 0.59772 0.0
H1827 H 0.30855 0.84078 0.66234 0.0
H1828 H 0.35047 0.87567 0.67352 0.0
H1829 H 0.34477 0.88657 0.60863 0.0
H1830 H 0.36069 0.84591 0.69228 0.0
H1831 H 0.31165 0.87938 0.72562 0.0
H1832 H 0.28188 0.88874 0.72055 0.0
H1833 H 0.26487 0.83837 0.74762 0.0
H1834 H 0.29455 0.82866 0.7524 0.0
H1835 H 0.37655 0.84676 0.89385 0.0
H1836 H 0.36697 0.85375 0.82842 0.0
H1837 H 0.33782 0.80751 0.82434 0.0
H1838 H 0.34761 0.80021 0.89001 0.0
H1839 H 0.31999 0.83911 0.8009 0.0
H1840 H 0.37009 0.80689 0.77297 0.0
H1841 H 0.40015 0.79887 0.78007 0.0
H1842 H 0.41538 0.84879 0.74445 0.0
H1843 H 0.38539 0.8572 0.7377 0.0
C1844 C 0.31271 0.85762 0.61432 0.0
C1845 C 0.32312 0.87024 0.59809 0.0
C1846 C 0.31623 0.85109 0.65128 0.0
C1847 C 0.33 0.85736 0.67295 0.0
C1848 C 0.33989 0.8705 0.65732 0.0
C1849 C 0.33656 0.87679 0.62027 0.0
C1850 C 0.33484 0.84971 0.71087 0.0
C1851 C 0.35177 0.84461 0.71607 0.0
C1852 C 0.32315 0.84743 0.74167 0.0
C1853 C 0.30531 0.85326 0.73893 0.0
C1854 C 0.30156 0.87027 0.73019 0.0
C1855 C 0.2847 0.87565 0.72743 0.0
C1856 C 0.27149 0.86414 0.73364 0.0
C1857 C 0.27511 0.84726 0.74275 0.0
C1858 C 0.29195 0.84182 0.74552 0.0
C1859 C 0.36819 0.838 0.87902 0.0
C1860 C 0.36288 0.8229 0.89706 0.0
C1861 C 0.36273 0.84202 0.84163 0.0
C1862 C 0.3517 0.83115 0.82164 0.0
C1863 C 0.34633 0.81605 0.83941 0.0
C1864 C 0.35204 0.81186 0.87672 0.0
C1865 C 0.34583 0.83584 0.78225 0.0
C1866 C 0.32877 0.84031 0.77682 0.0
C1867 C 0.35742 0.83775 0.75131 0.0
C1868 C 0.37548 0.83271 0.75513 0.0
C1869 C 0.37984 0.81621 0.76697 0.0
C1870 C 0.39687 0.81158 0.77087 0.0
C1871 C 0.40967 0.82332 0.7628 0.0
C1872 C 0.40546 0.83971 0.75072 0.0
C1873 C 0.38844 0.84441 0.7468 0.0
H1874 H 0.42285 0.81972 0.76583 0.0
H1875 H 0.25845 0.86833 0.73147 0.0
H1876 H 0.11497 0.34262 0.62107 0.0
H1877 H 0.12602 0.34763 0.68606 0.0
H1878 H 0.1604 0.30545 0.67304 0.0
H1879 H 0.14901 0.30007 0.60777 0.0
H1880 H 0.14855 0.30794 0.74786 0.0
H1881 H 0.17504 0.34434 0.65666 0.0
H1882 H 0.1763 0.36429 0.60174 0.0
H1883 H 0.14757 0.40079 0.66674 0.0
H1884 H 0.14595 0.38094 0.72199 0.0
H1885 H 0.19931 0.34426 0.90343 0.0
H1886 H 0.19195 0.33389 0.83828 0.0
H1887 H 0.14788 0.36625 0.83727 0.0
H1888 H 0.15489 0.37637 0.90235 0.0
H1889 H 0.16903 0.36691 0.76729 0.0
H1890 H 0.14127 0.32798 0.85679 0.0
H1891 H 0.14122 0.30739 0.91065 0.0
H1892 H 0.17505 0.27504 0.84693 0.0
H1893 H 0.17552 0.29561 0.79293 0.0
C1894 C 0.12469 0.33421 0.63222 0.0
C1895 C 0.13127 0.32107 0.60915 0.0
C1896 C 0.13104 0.33712 0.66935 0.0
C1897 C 0.14435 0.3272 0.684 0.0
C1898 C 0.15021 0.31334 0.66215 0.0
C1899 C 0.14368 0.31026 0.62494 0.0
C1900 C 0.15274 0.33223 0.72085 0.0
C1901 C 0.15331 0.32073 0.7519 0.0
C1902 C 0.15903 0.34892 0.72614 0.0
C1903 C 0.16028 0.3611 0.69338 0.0
C1904 C 0.16892 0.35659 0.65919 0.0
C1905 C 0.16969 0.36788 0.62798 0.0
C1906 C 0.16197 0.38378 0.63067 0.0
C1907 C 0.15353 0.38846 0.66468 0.0
C1908 C 0.15271 0.3772 0.696 0.0
C1909 C 0.18813 0.34925 0.88914 0.0
C1910 C 0.17765 0.3611 0.908 0.0
C1911 C 0.18392 0.34326 0.85208 0.0
C1912 C 0.16935 0.34928 0.83315 0.0
C1913 C 0.15917 0.36147 0.85146 0.0
C1914 C 0.16317 0.36718 0.88867 0.0
C1915 C 0.16436 0.34279 0.79448 0.0
C1916 C 0.16449 0.35405 0.76303 0.0
C1917 C 0.15902 0.32584 0.78876 0.0
C1918 C 0.15861 0.31343 0.82106 0.0
C1919 C 0.14883 0.31656 0.85443 0.0
C1920 C 0.1487 0.30488 0.88495 0.0
C1921 C 0.15817 0.28994 0.88227 0.0
C1922 C 0.16775 0.28663 0.849 0.0
C1923 C 0.16795 0.2983 0.81843 0.0
H1924 H 0.15805 0.28091 0.90592 0.0
H1925 H 0.16255 0.39249 0.60642 0.0
H1926 H 0.66131 0.19613 0.90507 0.0
H1927 H 0.673 0.18872 0.8414 0.0
H1928 H 0.62643 0.16267 0.81288 0.0
H1929 H 0.61528 0.16918 0.87733 0.0
H1930 H 0.65134 0.1428 0.80041 0.0
H1931 H 0.6412 0.20222 0.76875 0.0
H1932 H 0.64445 0.23294 0.78022 0.0
H1933 H 0.69854 0.2282 0.77078 0.0
H1934 H 0.69562 0.19742 0.75957 0.0
H1935 H 0.65437 0.12813 0.60231 0.0
H1936 H 0.64875 0.13974 0.6662 0.0
H1937 H 0.70127 0.15418 0.67758 0.0
H1938 H 0.70711 0.14265 0.61267 0.0
H1939 H 0.67849 0.17973 0.70184 0.0
H1940 H 0.68839 0.12108 0.72687 0.0
H1941 H 0.68547 0.09026 0.71668 0.0
H1942 H 0.6321 0.09352 0.74025 0.0
H1943 H 0.63465 0.12441 0.75004 0.0
C1944 C 0.65344 0.18928 0.88461 0.0
C1945 C 0.63739 0.1833 0.89571 0.0
C1946 C 0.66012 0.18502 0.84824 0.0
C1947 C 0.65061 0.17513 0.82214 0.0
C1948 C 0.63409 0.17019 0.83253 0.0
C1949 C 0.62764 0.17403 0.86915 0.0
C1950 C 0.65819 0.16849 0.78565 0.0
C1951 C 0.65706 0.15096 0.77871 0.0
C1952 C 0.6665 0.17893 0.75811 0.0
C1953 C 0.66819 0.19751 0.76365 0.0
C1954 C 0.65379 0.20773 0.76923 0.0
C1955 C 0.65557 0.22515 0.77568 0.0
C1956 C 0.67169 0.23251 0.77634 0.0
C1957 C 0.68606 0.22248 0.77029 0.0
C1958 C 0.68435 0.20506 0.76381 0.0
C1959 C 0.66483 0.13368 0.61823 0.0
C1960 C 0.68125 0.13433 0.60228 0.0
C1961 C 0.66156 0.14032 0.65489 0.0
C1962 C 0.67461 0.14768 0.67677 0.0
C1963 C 0.69103 0.14851 0.6611 0.0
C1964 C 0.69436 0.14181 0.62418 0.0
C1965 C 0.67079 0.15426 0.7161 0.0
C1966 C 0.6728 0.17165 0.72373 0.0
C1967 C 0.66327 0.14372 0.74447 0.0
C1968 C 0.66171 0.12509 0.73898 0.0
C1969 C 0.67601 0.11525 0.72964 0.0
C1970 C 0.67443 0.09776 0.72397 0.0
C1971 C 0.65861 0.08994 0.72776 0.0
C1972 C 0.64435 0.09959 0.73733 0.0
C1973 C 0.64586 0.11709 0.743 0.0
H1974 H 0.65741 0.0764 0.72334 0.0
H1975 H 0.67305 0.24599 0.7815 0.0
H1976 H 0.86201 0.35516 0.41076 0.0
H1977 H 0.85219 0.36227 0.34607 0.0
H1978 H 0.85211 0.30925 0.31503 0.0
H1979 H 0.86168 0.30188 0.38063 0.0
H1980 H 0.86619 0.35873 0.27887 0.0
H1981 H 0.82087 0.30269 0.24612 0.0
H1982 H 0.80238 0.28273 0.28154 0.0
H1983 H 0.79691 0.31876 0.37411 0.0
H1984 H 0.81515 0.33902 0.33902 0.0
H1985 H 0.84839 0.35903 0.08082 0.0
H1986 H 0.85521 0.34948 0.14601 0.0
H1987 H 0.8049 0.36293 0.1844 0.0
H1988 H 0.79771 0.37209 0.11831 0.0
H1989 H 0.81482 0.33395 0.21795 0.0
H1990 H 0.83877 0.38925 0.20168 0.0
H1991 H 0.85553 0.41155 0.16926 0.0
H1992 H 0.90056 0.38136 0.18107 0.0
H1993 H 0.88402 0.35878 0.2131 0.0
C1994 C 0.85997 0.34492 0.39034 0.0
C1995 C 0.86271 0.3279 0.40106 0.0
C1996 C 0.85434 0.34905 0.35321 0.0
C1997 C 0.8513 0.33632 0.32567 0.0
C1998 C 0.85414 0.31929 0.33597 0.0
C1999 C 0.85971 0.3151 0.37341 0.0
C2000 C 0.84551 0.34113 0.28611 0.0
C2001 C 0.85497 0.35325 0.26558 0.0
C2002 C 0.83069 0.33428 0.26897 0.0
C2003 C 0.81953 0.32228 0.29011 0.0
C2004 C 0.81567 0.30637 0.27397 0.0
C2005 C 0.80524 0.295 0.294 0.0
C2006 C 0.79853 0.29945 0.33012 0.0
C2007 C 0.80217 0.3153 0.34621 0.0
C2008 C 0.81257 0.32672 0.32628 0.0
C2009 C 0.8387 0.35998 0.10299 0.0
C2010 C 0.82255 0.36657 0.09439 0.0
C2011 C 0.84265 0.3545 0.14036 0.0
C2012 C 0.8307 0.3558 0.17033 0.0
C2013 C 0.81436 0.36187 0.16174 0.0
C2014 C 0.81029 0.36717 0.12402 0.0
C2015 C 0.83562 0.35139 0.21073 0.0
C2016 C 0.82604 0.33936 0.23132 0.0
C2017 C 0.8501 0.35865 0.22848 0.0
C2018 C 0.86012 0.37227 0.2095 0.0
C2019 C 0.85222 0.38733 0.19714 0.0
C2020 C 0.86169 0.40002 0.17886 0.0
C2021 C 0.87909 0.39786 0.17304 0.0
C2022 C 0.88707 0.38301 0.18558 0.0
C2023 C 0.87767 0.37027 0.20383 0.0
H2024 H 0.88639 0.40769 0.15887 0.0
H2025 H 0.79047 0.29062 0.34559 0.0
H2026 H 0.64978 0.80397 0.11027 0.0
H2027 H 0.66036 0.8101 0.17563 0.0
H2028 H 0.62318 0.84996 0.18747 0.0
H2029 H 0.61312 0.84434 0.12182 0.0
H2030 H 0.65197 0.8617 0.2077 0.0
H2031 H 0.62151 0.81063 0.23835 0.0
H2032 H 0.61367 0.78046 0.23231 0.0
H2033 H 0.66478 0.76584 0.25929 0.0
H2034 H 0.67299 0.79595 0.26501 0.0
H2035 H 0.65347 0.87597 0.41053 0.0
H2036 H 0.64556 0.86662 0.34544 0.0
H2037 H 0.69259 0.83908 0.33567 0.0
H2038 H 0.70079 0.84859 0.40089 0.0
H2039 H 0.66167 0.82036 0.31391 0.0
H2040 H 0.69088 0.87259 0.28696 0.0
H2041 H 0.69716 0.903 0.29544 0.0
H2042 H 0.64603 0.91555 0.26365 0.0
H2043 H 0.63936 0.88518 0.25554 0.0
C2044 C 0.64367 0.81381 0.12719 0.0
C2045 C 0.63066 0.82371 0.11095 0.0
C2046 C 0.64972 0.81731 0.16457 0.0
C2047 C 0.64258 0.83051 0.18665 0.0
C2048 C 0.62903 0.83983 0.17099 0.0
C2049 C 0.62322 0.83655 0.13351 0.0
C2050 C 0.64979 0.83548 0.22494 0.0
C2051 C 0.65387 0.85263 0.23098 0.0
C2052 C 0.6528 0.82364 0.25513 0.0
C2053 C 0.64791 0.80554 0.25167 0.0
C2054 C 0.63111 0.80098 0.24267 0.0
C2055 C 0.62659 0.78389 0.23937 0.0
C2056 C 0.63873 0.77124 0.24529 0.0
C2057 C 0.6554 0.77565 0.25464 0.0
C2058 C 0.65999 0.79273 0.25794 0.0
C2059 C 0.6622 0.868 0.39452 0.0
C2060 C 0.67779 0.86307 0.41084 0.0
C2061 C 0.65765 0.86268 0.35733 0.0
C2062 C 0.6685 0.85218 0.33583 0.0
C2063 C 0.68406 0.84717 0.35191 0.0
C2064 C 0.68876 0.85272 0.389 0.0
C2065 C 0.6634 0.84653 0.29654 0.0
C2066 C 0.6598 0.82931 0.29036 0.0
C2067 C 0.66058 0.85831 0.26634 0.0
C2068 C 0.66459 0.87659 0.27096 0.0
C2069 C 0.68093 0.88182 0.28209 0.0
C2070 C 0.68457 0.89906 0.28677 0.0
C2071 C 0.67199 0.9112 0.28017 0.0
C2072 C 0.65576 0.90613 0.26878 0.0
C2073 C 0.65205 0.88891 0.2641 0.0
H2074 H 0.67484 0.92454 0.28381 0.0
H2075 H 0.63521 0.75802 0.24273 0.0
H2076 H 0.12093 0.65648 0.39686 0.0
H2077 H 0.13098 0.64834 0.33269 0.0
H2078 H 0.16074 0.69417 0.32612 0.0
H2079 H 0.15039 0.70265 0.3904 0.0
H2080 H 0.14708 0.68612 0.25585 0.0
H2081 H 0.17977 0.65797 0.35217 0.0
H2082 H 0.18445 0.64138 0.41179 0.0
H2083 H 0.15834 0.59893 0.36155 0.0
H2084 H 0.15332 0.61536 0.30168 0.0
H2085 H 0.19841 0.65013 0.10445 0.0
H2086 H 0.19187 0.66098 0.16951 0.0
H2087 H 0.15165 0.62425 0.18062 0.0
H2088 H 0.1578 0.61363 0.11538 0.0
H2089 H 0.17398 0.62921 0.24959 0.0
H2090 H 0.13951 0.65949 0.15518 0.0
H2091 H 0.13574 0.67656 0.0959 0.0
H2092 H 0.16728 0.71575 0.14372 0.0
H2093 H 0.17145 0.69874 0.20312 0.0
C2094 C 0.12943 0.66497 0.38161 0.0
C2095 C 0.13501 0.68012 0.39893 0.0
C2096 C 0.13521 0.66027 0.34496 0.0
C2097 C 0.14695 0.67044 0.32507 0.0
C2098 C 0.15178 0.68608 0.34113 0.0
C2099 C 0.14584 0.69091 0.37781 0.0
C2100 C 0.15474 0.66414 0.28862 0.0
C2101 C 0.15322 0.67382 0.25464 0.0
C2102 C 0.16275 0.64805 0.28698 0.0
C2103 C 0.16606 0.63794 0.32254 0.0
C2104 C 0.17495 0.64512 0.35389 0.0
C2105 C 0.17766 0.63575 0.38775 0.0
C2106 C 0.17164 0.61913 0.39054 0.0
C2107 C 0.16297 0.61181 0.35936 0.0
C2108 C 0.16022 0.62114 0.32542 0.0
C2109 C 0.18839 0.64416 0.12109 0.0
C2110 C 0.17858 0.63106 0.10489 0.0
C2111 C 0.18464 0.65042 0.15809 0.0
C2112 C 0.17124 0.64344 0.17963 0.0
C2113 C 0.16204 0.62976 0.16437 0.0
C2114 C 0.16554 0.62375 0.12713 0.0
C2115 C 0.16599 0.65105 0.21693 0.0
C2116 C 0.16802 0.6416 0.25103 0.0
C2117 C 0.15867 0.66742 0.21874 0.0
C2118 C 0.15596 0.67776 0.18335 0.0
C2119 C 0.14577 0.67167 0.1529 0.0
C2120 C 0.14354 0.68135 0.1193 0.0
C2121 C 0.15132 0.69721 0.11597 0.0
C2122 C 0.16129 0.70345 0.14631 0.0
C2123 C 0.16359 0.6938 0.17996 0.0
H2124 H 0.14958 0.70468 0.08992 0.0
H2125 H 0.17372 0.61191 0.41683 0.0
H2126 H 0.34233 0.12064 0.38704 0.0
H2127 H 0.34971 0.13014 0.3219 0.0
H2128 H 0.30864 0.16631 0.32476 0.0
H2129 H 0.3007 0.15621 0.38971 0.0
H2130 H 0.31156 0.15425 0.25415 0.0
H2131 H 0.35002 0.17817 0.34444 0.0
H2132 H 0.37009 0.17847 0.3993 0.0
H2133 H 0.40426 0.14649 0.33562 0.0
H2134 H 0.38425 0.14572 0.28064 0.0
H2135 H 0.35171 0.20028 0.09703 0.0
H2136 H 0.34112 0.19424 0.1626 0.0
H2137 H 0.36964 0.14759 0.16442 0.0
H2138 H 0.38 0.15332 0.09886 0.0
H2139 H 0.37215 0.16896 0.23408 0.0
H2140 H 0.33065 0.14421 0.14556 0.0
H2141 H 0.31025 0.14604 0.09147 0.0
H2142 H 0.28161 0.18349 0.15382 0.0
H2143 H 0.30201 0.18207 0.20806 0.0
C2144 C 0.33473 0.13047 0.37361 0.0
C2145 C 0.32105 0.13781 0.39356 0.0
C2146 C 0.33902 0.13598 0.33645 0.0
C2147 C 0.33007 0.14932 0.31883 0.0
C2148 C 0.31584 0.1561 0.33788 0.0
C2149 C 0.3113 0.15033 0.37493 0.0
C2150 C 0.3361 0.15647 0.2813 0.0
C2151 C 0.32475 0.15772 0.25002 0.0
C2152 C 0.35331 0.16113 0.27575 0.0
C2153 C 0.36557 0.1618 0.30848 0.0
C2154 C 0.36178 0.17113 0.3422 0.0
C2155 C 0.37314 0.17138 0.37333 0.0
C2156 C 0.38843 0.16249 0.37096 0.0
C2157 C 0.39241 0.15337 0.33741 0.0
C2158 C 0.38106 0.15303 0.30624 0.0
C2159 C 0.35583 0.18881 0.11156 0.0
C2160 C 0.36667 0.17725 0.09276 0.0
C2161 C 0.34972 0.18536 0.14889 0.0
C2162 C 0.35458 0.17045 0.16819 0.0
C2163 C 0.36577 0.15916 0.14996 0.0
C2164 C 0.37162 0.16243 0.11247 0.0
C2165 C 0.34773 0.16625 0.20703 0.0
C2166 C 0.35894 0.16563 0.23853 0.0
C2167 C 0.33036 0.16256 0.21293 0.0
C2168 C 0.31795 0.16317 0.18065 0.0
C2169 C 0.32007 0.15293 0.1476 0.0
C2170 C 0.3085 0.15388 0.11694 0.0
C2171 C 0.29467 0.16491 0.11916 0.0
C2172 C 0.29234 0.17497 0.15212 0.0
C2173 C 0.3039 0.17409 0.18283 0.0
H2174 H 0.28573 0.16564 0.09539 0.0
H2175 H 0.39721 0.16269 0.3951 0.0
loop_
_geom_bond_atom_site_label_1
_geom_bond_atom_site_label_2
_geom_bond_distance
_geom_bond_site_symmetry_2
_ccdc_geom_bond_type
Mn0 O5 2.095 1_554 S
Mn0 O15 2.161 1_554 S
Mn0 O16 2.297 . S
Mn0 O24 2.385 . S
Mn0 O25 2.209 . S
Mn0 O26 2.094 . S
Mn1 O6 2.121 1_554 S
Mn1 N8 2.257 . S
Mn1 N17 2.282 . S
Mn1 O25 2.215 . S
Mn1 O27 2.117 . S
C2 O24 1.234 . S
C2 O25 1.283 . S
C3 O15 1.280 1_554 S
C3 O16 1.236 . S
C4 O26 1.240 . S
C4 O27 1.264 . S
O5 Mn0 2.095 1_556 S
O5 C14 1.250 . S
O6 Mn1 2.121 1_556 S
O6 C14 1.258 . S
C7 N8 1.326 1_556 S
C7 C11 1.460 1_556 S
C7 H13 0.929 . S
N8 Mn1 2.257 . S
N8 C7 1.326 1_554 S
N8 C12 1.362 . S
C9 C10 1.258 . S
C9 C12 1.431 . S
C9 C29 1.449 . S
C10 C9 1.258 . S
C10 C11 1.477 . S
C10 H30 0.931 . S
C11 C7 1.460 1_554 S
C11 C10 1.477 . S
C11 H31 0.930 1_554 S
C12 N8 1.362 . S
C12 C9 1.431 . S
C12 C22 1.476 . S
H13 C7 0.929 . S
C14 O5 1.250 . S
C14 O6 1.258 . S
O15 Mn0 2.161 1_556 S
O15 C3 1.280 1_556 S
O16 Mn0 2.297 . S
O16 C3 1.236 . S
N17 Mn1 2.282 . S
N17 C18 1.328 . S
N17 C22 1.318 . S
C18 N17 1.328 . S
C18 C19 1.457 . S
C18 H23 0.929 . S
C19 C18 1.457 . S
C19 C20 1.291 . S
C19 H32 0.931 . S
C20 C19 1.291 . S
C20 C21 1.373 . S
C20 H33 0.929 . S
C21 C20 1.373 . S
C21 C22 1.396 . S
C21 C28 1.403 . S
C22 C12 1.476 . S
C22 N17 1.318 . S
C22 C21 1.396 . S
H23 C18 0.929 . S
O24 Mn0 2.385 . S
O24 C2 1.234 . S
O25 Mn0 2.209 . S
O25 Mn1 2.215 . S
O25 C2 1.283 . S
O26 Mn0 2.094 . S
O26 C4 1.240 . S
O27 Mn1 2.117 . S
O27 C4 1.264 . S
C28 C21 1.403 . S
C28 C29 1.399 . S
C28 H34 0.929 . S
C29 C9 1.449 . S
C29 C28 1.399 . S
C29 H35 0.930 . S
H30 C10 0.931 . S
H31 C11 0.930 1_556 S
H32 C19 0.931 . S
H33 C20 0.929 . S
H34 C28 0.929 . S
H35 C29 0.930 . S
Mn36 O41 2.095 1_554 S
Mn36 O51 2.161 1_554 S
Mn36 O52 2.297 . S
Mn36 O60 2.385 . S
Mn36 O61 2.209 . S
Mn36 O62 2.094 . S
Mn37 O42 2.121 1_554 S
Mn37 N44 2.257 . S
Mn37 N53 2.282 . S
Mn37 O61 2.215 . S
Mn37 O63 2.117 . S
C38 O60 1.234 . S
C38 O61 1.283 . S
C39 O51 1.280 1_554 S
C39 O52 1.236 . S
C40 O62 1.240 . S
C40 O63 1.264 . S
O41 Mn36 2.095 1_556 S
O41 C50 1.250 . S
O42 Mn37 2.121 1_556 S
O42 C50 1.258 . S
C43 N44 1.326 1_556 S
C43 C47 1.460 1_556 S
C43 H49 0.929 . S
N44 Mn37 2.257 . S
N44 C43 1.326 1_554 S
N44 C48 1.362 . S
C45 C46 1.258 . S
C45 C48 1.431 . S
C45 C65 1.449 . S
C46 C45 1.258 . S
C46 C47 1.477 . S
C46 H66 0.931 . S
C47 C43 1.460 1_554 S
C47 C46 1.477 . S
C47 H67 0.930 1_554 S
C48 N44 1.362 . S
C48 C45 1.431 . S
C48 C58 1.476 . S
H49 C43 0.929 . S
C50 O41 1.250 . S
C50 O42 1.258 . S
O51 Mn36 2.161 1_556 S
O51 C39 1.280 1_556 S
O52 Mn36 2.297 . S
O52 C39 1.236 . S
N53 Mn37 2.282 . S
N53 C54 1.328 . S
N53 C58 1.318 . S
C54 N53 1.328 . S
C54 C55 1.457 . S
C54 H59 0.929 . S
C55 C54 1.457 . S
C55 C56 1.291 . S
C55 H68 0.931 . S
C56 C55 1.291 . S
C56 C57 1.373 . S
C56 H69 0.929 . S
C57 C56 1.373 . S
C57 C58 1.396 . S
C57 C64 1.403 . S
C58 C48 1.476 . S
C58 N53 1.318 . S
C58 C57 1.396 . S
H59 C54 0.929 . S
O60 Mn36 2.385 . S
O60 C38 1.234 . S
O61 Mn36 2.209 . S
O61 Mn37 2.215 . S
O61 C38 1.283 . S
O62 Mn36 2.094 . S
O62 C40 1.240 . S
O63 Mn37 2.117 . S
O63 C40 1.264 . S
C64 C57 1.403 . S
C64 C65 1.399 . S
C64 H70 0.929 . S
C65 C45 1.449 . S
C65 C64 1.399 . S
C65 H71 0.930 . S
H66 C46 0.931 . S
H67 C47 0.930 1_556 S
H68 C55 0.931 . S
H69 C56 0.929 . S
H70 C64 0.929 . S
H71 C65 0.930 . S
Mn72 O77 2.095 1_554 S
Mn72 O87 2.161 1_554 S
Mn72 O88 2.297 . S
Mn72 O96 2.385 . S
Mn72 O97 2.209 . S
Mn72 O98 2.094 . S
Mn73 O78 2.121 1_554 S
Mn73 N80 2.257 . S
Mn73 N89 2.282 . S
Mn73 O97 2.215 . S
Mn73 O99 2.117 . S
C74 O96 1.234 . S
C74 O97 1.283 . S
C75 O87 1.280 1_554 S
C75 O88 1.236 . S
C76 O98 1.240 . S
C76 O99 1.264 . S
O77 Mn72 2.095 1_556 S
O77 C86 1.250 . S
O78 Mn73 2.121 1_556 S
O78 C86 1.258 . S
C79 N80 1.326 1_556 S
C79 C83 1.460 1_556 S
C79 H85 0.929 . S
N80 Mn73 2.257 . S
N80 C79 1.326 1_554 S
N80 C84 1.362 . S
C81 C82 1.258 . S
C81 C84 1.431 . S
C81 C101 1.449 . S
C82 C81 1.258 . S
C82 C83 1.477 . S
C82 H102 0.931 . S
C83 C79 1.460 1_554 S
C83 C82 1.477 . S
C83 H103 0.930 1_554 S
C84 N80 1.362 . S
C84 C81 1.431 . S
C84 C94 1.476 . S
H85 C79 0.929 . S
C86 O77 1.250 . S
C86 O78 1.258 . S
O87 Mn72 2.161 1_556 S
O87 C75 1.280 1_556 S
O88 Mn72 2.297 . S
O88 C75 1.236 . S
N89 Mn73 2.282 . S
N89 C90 1.328 . S
N89 C94 1.318 . S
C90 N89 1.328 . S
C90 C91 1.457 . S
C90 H95 0.929 . S
C91 C90 1.457 . S
C91 C92 1.291 . S
C91 H104 0.931 . S
C92 C91 1.291 . S
C92 C93 1.373 . S
C92 H105 0.929 . S
C93 C92 1.373 . S
C93 C94 1.396 . S
C93 C100 1.403 . S
C94 C84 1.476 . S
C94 N89 1.318 . S
C94 C93 1.396 . S
H95 C90 0.929 . S
O96 Mn72 2.385 . S
O96 C74 1.234 . S
O97 Mn72 2.209 . S
O97 Mn73 2.215 . S
O97 C74 1.283 . S
O98 Mn72 2.094 . S
O98 C76 1.240 . S
O99 Mn73 2.117 . S
O99 C76 1.264 . S
C100 C93 1.403 . S
C100 C101 1.399 . S
C100 H106 0.929 . S
C101 C81 1.449 . S
C101 C100 1.399 . S
C101 H107 0.930 . S
H102 C82 0.931 . S
H103 C83 0.930 1_556 S
H104 C91 0.931 . S
H105 C92 0.929 . S
H106 C100 0.929 . S
H107 C101 0.930 . S
Mn108 O113 2.095 1_554 S
Mn108 O123 2.161 1_554 S
Mn108 O124 2.297 . S
Mn108 O132 2.385 . S
Mn108 O133 2.209 . S
Mn108 O134 2.094 . S
Mn109 O114 2.121 1_554 S
Mn109 N116 2.257 . S
Mn109 N125 2.282 . S
Mn109 O133 2.215 . S
Mn109 O135 2.117 . S
C110 O132 1.234 . S
C110 O133 1.283 . S
C111 O123 1.280 1_554 S
C111 O124 1.236 . S
C112 O134 1.240 . S
C112 O135 1.264 . S
O113 Mn108 2.095 1_556 S
O113 C122 1.250 . S
O114 Mn109 2.121 1_556 S
O114 C122 1.258 . S
C115 N116 1.326 1_556 S
C115 C119 1.460 1_556 S
C115 H121 0.929 . S
N116 Mn109 2.257 . S
N116 C115 1.326 1_554 S
N116 C120 1.362 . S
C117 C118 1.258 . S
C117 C120 1.431 . S
C117 C137 1.449 . S
C118 C117 1.258 . S
C118 C119 1.477 . S
C118 H138 0.931 . S
C119 C115 1.460 1_554 S
C119 C118 1.477 . S
C119 H139 0.930 1_554 S
C120 N116 1.362 . S
C120 C117 1.431 . S
C120 C130 1.476 . S
H121 C115 0.929 . S
C122 O113 1.250 . S
C122 O114 1.258 . S
O123 Mn108 2.161 1_556 S
O123 C111 1.280 1_556 S
O124 Mn108 2.297 . S
O124 C111 1.236 . S
N125 Mn109 2.282 . S
N125 C126 1.328 . S
N125 C130 1.318 . S
C126 N125 1.328 . S
C126 C127 1.457 . S
C126 H131 0.929 . S
C127 C126 1.457 . S
C127 C128 1.291 . S
C127 H140 0.931 . S
C128 C127 1.291 . S
C128 C129 1.373 . S
C128 H141 0.929 . S
C129 C128 1.373 . S
C129 C130 1.396 . S
C129 C136 1.403 . S
C130 C120 1.476 . S
C130 N125 1.318 . S
C130 C129 1.396 . S
H131 C126 0.929 . S
O132 Mn108 2.385 . S
O132 C110 1.234 . S
O133 Mn108 2.209 . S
O133 Mn109 2.215 . S
O133 C110 1.283 . S
O134 Mn108 2.094 . S
O134 C112 1.240 . S
O135 Mn109 2.117 . S
O135 C112 1.264 . S
C136 C129 1.403 . S
C136 C137 1.399 . S
C136 H142 0.929 . S
C137 C117 1.449 . S
C137 C136 1.399 . S
C137 H143 0.930 . S
H138 C118 0.931 . S
H139 C119 0.930 1_556 S
H140 C127 0.931 . S
H141 C128 0.929 . S
H142 C136 0.929 . S
H143 C137 0.930 . S
Mn144 O149 2.074 1_556 S
Mn144 O159 2.160 1_556 S
Mn144 O160 2.297 . S
Mn144 O168 2.408 . S
Mn144 O169 2.219 . S
Mn144 O170 2.094 . S
Mn145 O150 2.121 1_556 S
Mn145 N152 2.257 . S
Mn145 N161 2.282 . S
Mn145 O169 2.215 . S
Mn145 O171 2.117 . S
C146 O168 1.234 . S
C146 O169 1.283 . S
C147 O159 1.281 . S
C147 O160 1.235 1_554 S
C148 O170 1.240 . S
C148 O171 1.264 . S
O149 Mn144 2.074 1_554 S
O149 C158 1.250 . S
O150 Mn145 2.121 1_554 S
O150 C158 1.258 . S
C151 N152 1.326 1_554 S
C151 C155 1.460 1_554 S
C151 H157 0.929 . S
N152 Mn145 2.257 . S
N152 C151 1.326 1_556 S
N152 C156 1.362 . S
C153 C154 1.258 . S
C153 C156 1.431 . S
C153 C173 1.449 . S
C154 C153 1.258 . S
C154 C155 1.477 . S
C154 H174 0.931 . S
C155 C151 1.460 1_556 S
C155 C154 1.477 . S
C155 H175 0.930 1_556 S
C156 N152 1.362 . S
C156 C153 1.431 . S
C156 C166 1.476 . S
H157 C151 0.929 . S
C158 O149 1.250 . S
C158 O150 1.258 . S
O159 Mn144 2.160 1_554 S
O159 C147 1.281 . S
O160 Mn144 2.297 . S
O160 C147 1.235 1_556 S
N161 Mn145 2.282 . S
N161 C162 1.328 . S
N161 C166 1.318 . S
C162 N161 1.328 . S
C162 C163 1.457 . S
C162 H167 0.929 . S
C163 C162 1.457 . S
C163 C164 1.291 . S
C163 H176 0.931 . S
C164 C163 1.291 . S
C164 C165 1.373 . S
C164 H177 0.929 . S
C165 C164 1.373 . S
C165 C166 1.396 . S
C165 C172 1.403 . S
C166 C156 1.476 . S
C166 N161 1.318 . S
C166 C165 1.396 . S
H167 C162 0.929 . S
O168 Mn144 2.408 . S
O168 C146 1.234 . S
O169 Mn144 2.219 . S
O169 Mn145 2.215 . S
O169 C146 1.283 . S
O170 Mn144 2.094 . S
O170 C148 1.240 . S
O171 Mn145 2.117 . S
O171 C148 1.264 . S
C172 C165 1.403 . S
C172 C173 1.399 . S
C172 H178 0.929 . S
C173 C153 1.449 . S
C173 C172 1.399 . S
C173 H179 0.930 . S
H174 C154 0.931 . S
H175 C155 0.930 1_554 S
H176 C163 0.931 . S
H177 C164 0.929 . S
H178 C172 0.929 . S
H179 C173 0.930 . S
Mn180 O185 2.074 1_556 S
Mn180 O195 2.160 1_556 S
Mn180 O196 2.297 . S
Mn180 O204 2.408 . S
Mn180 O205 2.219 . S
Mn180 O206 2.094 . S
Mn181 O186 2.121 1_556 S
Mn181 N188 2.257 . S
Mn181 N197 2.282 . S
Mn181 O205 2.215 . S
Mn181 O207 2.117 . S
C182 O204 1.234 . S
C182 O205 1.283 . S
C183 O195 1.281 . S
C183 O196 1.235 1_554 S
C184 O206 1.240 . S
C184 O207 1.264 . S
O185 Mn180 2.074 1_554 S
O185 C194 1.250 . S
O186 Mn181 2.121 1_554 S
O186 C194 1.258 . S
C187 N188 1.326 1_554 S
C187 C191 1.460 1_554 S
C187 H193 0.929 . S
N188 Mn181 2.257 . S
N188 C187 1.326 1_556 S
N188 C192 1.362 . S
C189 C190 1.258 . S
C189 C192 1.431 . S
C189 C209 1.449 . S
C190 C189 1.258 . S
C190 C191 1.477 . S
C190 H210 0.931 . S
C191 C187 1.460 1_556 S
C191 C190 1.477 . S
C191 H211 0.930 1_556 S
C192 N188 1.362 . S
C192 C189 1.431 . S
C192 C202 1.476 . S
H193 C187 0.929 . S
C194 O185 1.250 . S
C194 O186 1.258 . S
O195 Mn180 2.160 1_554 S
O195 C183 1.281 . S
O196 Mn180 2.297 . S
O196 C183 1.235 1_556 S
N197 Mn181 2.282 . S
N197 C198 1.328 . S
N197 C202 1.318 . S
C198 N197 1.328 . S
C198 C199 1.457 . S
C198 H203 0.929 . S
C199 C198 1.457 . S
C199 C200 1.291 . S
C199 H212 0.931 . S
C200 C199 1.291 . S
C200 C201 1.373 . S
C200 H213 0.929 . S
C201 C200 1.373 . S
C201 C202 1.396 . S
C201 C208 1.403 . S
C202 C192 1.476 . S
C202 N197 1.318 . S
C202 C201 1.396 . S
H203 C198 0.929 . S
O204 Mn180 2.408 . S
O204 C182 1.234 . S
O205 Mn180 2.219 . S
O205 Mn181 2.215 . S
O205 C182 1.283 . S
O206 Mn180 2.094 . S
O206 C184 1.240 . S
O207 Mn181 2.117 . S
O207 C184 1.264 . S
C208 C201 1.403 . S
C208 C209 1.399 . S
C208 H214 0.929 . S
C209 C189 1.449 . S
C209 C208 1.399 . S
C209 H215 0.930 . S
H210 C190 0.931 . S
H211 C191 0.930 1_554 S
H212 C199 0.931 . S
H213 C200 0.929 . S
H214 C208 0.929 . S
H215 C209 0.930 . S
Mn216 O221 2.074 1_556 S
Mn216 O231 2.160 1_556 S
Mn216 O232 2.297 . S
Mn216 O240 2.408 . S
Mn216 O241 2.219 . S
Mn216 O242 2.094 . S
Mn217 O222 2.121 1_556 S
Mn217 N224 2.257 . S
Mn217 N233 2.282 . S
Mn217 O241 2.215 . S
Mn217 O243 2.117 . S
C218 O240 1.234 . S
C218 O241 1.283 . S
C219 O231 1.281 . S
C219 O232 1.235 1_554 S
C220 O242 1.240 . S
C220 O243 1.264 . S
O221 Mn216 2.074 1_554 S
O221 C230 1.250 . S
O222 Mn217 2.121 1_554 S
O222 C230 1.258 . S
C223 N224 1.326 1_554 S
C223 C227 1.460 1_554 S
C223 H229 0.929 . S
N224 Mn217 2.257 . S
N224 C223 1.326 1_556 S
N224 C228 1.362 . S
C225 C226 1.258 . S
C225 C228 1.431 . S
C225 C245 1.449 . S
C226 C225 1.258 . S
C226 C227 1.477 . S
C226 H246 0.931 . S
C227 C223 1.460 1_556 S
C227 C226 1.477 . S
C227 H247 0.930 1_556 S
C228 N224 1.362 . S
C228 C225 1.431 . S
C228 C238 1.476 . S
H229 C223 0.929 . S
C230 O221 1.250 . S
C230 O222 1.258 . S
O231 Mn216 2.160 1_554 S
O231 C219 1.281 . S
O232 Mn216 2.297 . S
O232 C219 1.235 1_556 S
N233 Mn217 2.282 . S
N233 C234 1.328 . S
N233 C238 1.318 . S
C234 N233 1.328 . S
C234 C235 1.457 . S
C234 H239 0.929 . S
C235 C234 1.457 . S
C235 C236 1.291 . S
C235 H248 0.931 . S
C236 C235 1.291 . S
C236 C237 1.373 . S
C236 H249 0.929 . S
C237 C236 1.373 . S
C237 C238 1.396 . S
C237 C244 1.403 . S
C238 C228 1.476 . S
C238 N233 1.318 . S
C238 C237 1.396 . S
H239 C234 0.929 . S
O240 Mn216 2.408 . S
O240 C218 1.234 . S
O241 Mn216 2.219 . S
O241 Mn217 2.215 . S
O241 C218 1.283 . S
O242 Mn216 2.094 . S
O242 C220 1.240 . S
O243 Mn217 2.117 . S
O243 C220 1.264 . S
C244 C237 1.403 . S
C244 C245 1.399 . S
C244 H250 0.929 . S
C245 C225 1.449 . S
C245 C244 1.399 . S
C245 H251 0.930 . S
H246 C226 0.931 . S
H247 C227 0.930 1_554 S
H248 C235 0.931 . S
H249 C236 0.929 . S
H250 C244 0.929 . S
H251 C245 0.930 . S
Mn252 O257 2.074 1_556 S
Mn252 O267 2.160 1_556 S
Mn252 O268 2.297 . S
Mn252 O276 2.408 . S
Mn252 O277 2.219 . S
Mn252 O278 2.094 . S
Mn253 O258 2.121 1_556 S
Mn253 N260 2.257 . S
Mn253 N269 2.282 . S
Mn253 O277 2.215 . S
Mn253 O279 2.117 . S
C254 O276 1.234 . S
C254 O277 1.283 . S
C255 O267 1.281 . S
C255 O268 1.235 1_554 S
C256 O278 1.240 . S
C256 O279 1.264 . S
O257 Mn252 2.074 1_554 S
O257 C266 1.250 . S
O258 Mn253 2.121 1_554 S
O258 C266 1.258 . S
C259 N260 1.326 1_554 S
C259 C263 1.460 1_554 S
C259 H265 0.929 . S
N260 Mn253 2.257 . S
N260 C259 1.326 1_556 S
N260 C264 1.362 . S
C261 C262 1.258 . S
C261 C264 1.431 . S
C261 C281 1.449 . S
C262 C261 1.258 . S
C262 C263 1.477 . S
C262 H282 0.931 . S
C263 C259 1.460 1_556 S
C263 C262 1.477 . S
C263 H283 0.930 1_556 S
C264 N260 1.362 . S
C264 C261 1.431 . S
C264 C274 1.476 . S
H265 C259 0.929 . S
C266 O257 1.250 . S
C266 O258 1.258 . S
O267 Mn252 2.160 1_554 S
O267 C255 1.281 . S
O268 Mn252 2.297 . S
O268 C255 1.235 1_556 S
N269 Mn253 2.282 . S
N269 C270 1.328 . S
N269 C274 1.318 . S
C270 N269 1.328 . S
C270 C271 1.457 . S
C270 H275 0.929 . S
C271 C270 1.457 . S
C271 C272 1.291 . S
C271 H284 0.931 . S
C272 C271 1.291 . S
C272 C273 1.373 . S
C272 H285 0.929 . S
C273 C272 1.373 . S
C273 C274 1.396 . S
C273 C280 1.403 . S
C274 C264 1.476 . S
C274 N269 1.318 . S
C274 C273 1.396 . S
H275 C270 0.929 . S
O276 Mn252 2.408 . S
O276 C254 1.234 . S
O277 Mn252 2.219 . S
O277 Mn253 2.215 . S
O277 C254 1.283 . S
O278 Mn252 2.094 . S
O278 C256 1.240 . S
O279 Mn253 2.117 . S
O279 C256 1.264 . S
C280 C273 1.403 . S
C280 C281 1.399 . S
C280 H286 0.929 . S
C281 C261 1.449 . S
C281 C280 1.399 . S
C281 H287 0.930 . S
H282 C262 0.931 . S
H283 C263 0.930 1_554 S
H284 C271 0.931 . S
H285 C272 0.929 . S
H286 C280 0.929 . S
H287 C281 0.930 . S
Mn288 O293 2.095 . S
Mn288 O303 2.162 . S
Mn288 O304 2.297 . S
Mn288 O312 2.385 . S
Mn288 O313 2.209 . S
Mn288 O314 2.094 . S
Mn289 O294 2.121 . S
Mn289 N296 2.257 . S
Mn289 N305 2.282 . S
Mn289 O313 2.215 . S
Mn289 O315 2.117 . S
C290 O312 1.234 . S
C290 O313 1.283 . S
C291 O303 1.281 . S
C291 O304 1.236 . S
C292 O314 1.240 . S
C292 O315 1.264 . S
O293 Mn288 2.095 . S
O293 C302 1.250 . S
O294 Mn289 2.121 . S
O294 C302 1.258 . S
C295 N296 1.326 . S
C295 C299 1.460 . S
C295 H301 0.929 . S
N296 Mn289 2.257 . S
N296 C295 1.326 . S
N296 C300 1.362 . S
C297 C298 1.258 . S
C297 C300 1.431 . S
C297 C317 1.449 . S
C298 C297 1.258 . S
C298 C299 1.477 . S
C298 H318 0.931 . S
C299 C295 1.460 . S
C299 C298 1.477 . S
C299 H319 0.930 . S
C300 N296 1.362 . S
C300 C297 1.431 . S
C300 C310 1.476 . S
H301 C295 0.929 . S
C302 O293 1.250 . S
C302 O294 1.258 . S
O303 Mn288 2.162 . S
O303 C291 1.281 . S
O304 Mn288 2.297 . S
O304 C291 1.236 . S
N305 Mn289 2.282 . S
N305 C306 1.328 . S
N305 C310 1.318 . S
C306 N305 1.328 . S
C306 C307 1.457 . S
C306 H311 0.929 . S
C307 C306 1.457 . S
C307 C308 1.291 . S
C307 H320 0.931 . S
C308 C307 1.291 . S
C308 C309 1.373 . S
C308 H321 0.929 . S
C309 C308 1.373 . S
C309 C310 1.396 . S
C309 C316 1.403 . S
C310 C300 1.476 . S
C310 N305 1.318 . S
C310 C309 1.396 . S
H311 C306 0.929 . S
O312 Mn288 2.385 . S
O312 C290 1.234 . S
O313 Mn288 2.209 . S
O313 Mn289 2.215 . S
O313 C290 1.283 . S
O314 Mn288 2.094 . S
O314 C292 1.240 . S
O315 Mn289 2.117 . S
O315 C292 1.264 . S
C316 C309 1.403 . S
C316 C317 1.399 . S
C316 H322 0.929 . S
C317 C297 1.449 . S
C317 C316 1.399 . S
C317 H323 0.930 . S
H318 C298 0.931 . S
H319 C299 0.930 . S
H320 C307 0.931 . S
H321 C308 0.929 . S
H322 C316 0.929 . S
H323 C317 0.930 . S
Mn324 O329 2.095 . S
Mn324 O339 2.162 . S
Mn324 O340 2.297 . S
Mn324 O348 2.385 . S
Mn324 O349 2.209 . S
Mn324 O350 2.094 . S
Mn325 O330 2.121 . S
Mn325 N332 2.257 . S
Mn325 N341 2.282 . S
Mn325 O349 2.215 . S
Mn325 O351 2.117 . S
C326 O348 1.234 . S
C326 O349 1.283 . S
C327 O339 1.281 . S
C327 O340 1.236 . S
C328 O350 1.240 . S
C328 O351 1.264 . S
O329 Mn324 2.095 . S
O329 C338 1.250 . S
O330 Mn325 2.121 . S
O330 C338 1.258 . S
C331 N332 1.326 . S
C331 C335 1.460 . S
C331 H337 0.929 . S
N332 Mn325 2.257 . S
N332 C331 1.326 . S
N332 C336 1.362 . S
C333 C334 1.258 . S
C333 C336 1.431 . S
C333 C353 1.449 . S
C334 C333 1.258 . S
C334 C335 1.477 . S
C334 H354 0.931 . S
C335 C331 1.460 . S
C335 C334 1.477 . S
C335 H355 0.930 . S
C336 N332 1.362 . S
C336 C333 1.431 . S
C336 C346 1.476 . S
H337 C331 0.929 . S
C338 O329 1.250 . S
C338 O330 1.258 . S
O339 Mn324 2.162 . S
O339 C327 1.281 . S
O340 Mn324 2.297 . S
O340 C327 1.236 . S
N341 Mn325 2.282 . S
N341 C342 1.328 . S
N341 C346 1.318 . S
C342 N341 1.328 . S
C342 C343 1.457 . S
C342 H347 0.929 . S
C343 C342 1.457 . S
C343 C344 1.291 . S
C343 H356 0.931 . S
C344 C343 1.291 . S
C344 C345 1.373 . S
C344 H357 0.929 . S
C345 C344 1.373 . S
C345 C346 1.396 . S
C345 C352 1.403 . S
C346 C336 1.476 . S
C346 N341 1.318 . S
C346 C345 1.396 . S
H347 C342 0.929 . S
O348 Mn324 2.385 . S
O348 C326 1.234 . S
O349 Mn324 2.209 . S
O349 Mn325 2.215 . S
O349 C326 1.283 . S
O350 Mn324 2.094 . S
O350 C328 1.240 . S
O351 Mn325 2.117 . S
O351 C328 1.264 . S
C352 C345 1.403 . S
C352 C353 1.399 . S
C352 H358 0.929 . S
C353 C333 1.449 . S
C353 C352 1.399 . S
C353 H359 0.930 . S
H354 C334 0.931 . S
H355 C335 0.930 . S
H356 C343 0.931 . S
H357 C344 0.929 . S
H358 C352 0.929 . S
H359 C353 0.930 . S
Mn360 O365 2.095 . S
Mn360 O375 2.162 . S
Mn360 O376 2.297 . S
Mn360 O384 2.385 . S
Mn360 O385 2.209 . S
Mn360 O386 2.094 . S
Mn361 O366 2.121 . S
Mn361 N368 2.257 . S
Mn361 N377 2.282 . S
Mn361 O385 2.215 . S
Mn361 O387 2.117 . S
C362 O384 1.234 . S
C362 O385 1.283 . S
C363 O375 1.281 . S
C363 O376 1.236 . S
C364 O386 1.240 . S
C364 O387 1.264 . S
O365 Mn360 2.095 . S
O365 C374 1.250 . S
O366 Mn361 2.121 . S
O366 C374 1.258 . S
C367 N368 1.326 . S
C367 C371 1.460 . S
C367 H373 0.929 . S
N368 Mn361 2.257 . S
N368 C367 1.326 . S
N368 C372 1.362 . S
C369 C370 1.258 . S
C369 C372 1.431 . S
C369 C389 1.449 . S
C370 C369 1.258 . S
C370 C371 1.477 . S
C370 H390 0.931 . S
C371 C367 1.460 . S
C371 C370 1.477 . S
C371 H391 0.930 . S
C372 N368 1.362 . S
C372 C369 1.431 . S
C372 C382 1.476 . S
H373 C367 0.929 . S
C374 O365 1.250 . S
C374 O366 1.258 . S
O375 Mn360 2.162 . S
O375 C363 1.281 . S
O376 Mn360 2.297 . S
O376 C363 1.236 . S
N377 Mn361 2.282 . S
N377 C378 1.328 . S
N377 C382 1.318 . S
C378 N377 1.328 . S
C378 C379 1.457 . S
C378 H383 0.929 . S
C379 C378 1.457 . S
C379 C380 1.291 . S
C379 H392 0.931 . S
C380 C379 1.291 . S
C380 C381 1.373 . S
C380 H393 0.929 . S
C381 C380 1.373 . S
C381 C382 1.396 . S
C381 C388 1.403 . S
C382 C372 1.476 . S
C382 N377 1.318 . S
C382 C381 1.396 . S
H383 C378 0.929 . S
O384 Mn360 2.385 . S
O384 C362 1.234 . S
O385 Mn360 2.209 . S
O385 Mn361 2.215 . S
O385 C362 1.283 . S
O386 Mn360 2.094 . S
O386 C364 1.240 . S
O387 Mn361 2.117 . S
O387 C364 1.264 . S
C388 C381 1.403 . S
C388 C389 1.399 . S
C388 H394 0.929 . S
C389 C369 1.449 . S
C389 C388 1.399 . S
C389 H395 0.930 . S
H390 C370 0.931 . S
H391 C371 0.930 . S
H392 C379 0.931 . S
H393 C380 0.929 . S
H394 C388 0.929 . S
H395 C389 0.930 . S
Mn396 O401 2.095 . S
Mn396 O411 2.162 . S
Mn396 O412 2.297 . S
Mn396 O420 2.385 . S
Mn396 O421 2.209 . S
Mn396 O422 2.094 . S
Mn397 O402 2.121 . S
Mn397 N404 2.257 . S
Mn397 N413 2.282 . S
Mn397 O421 2.215 . S
Mn397 O423 2.117 . S
C398 O420 1.234 . S
C398 O421 1.283 . S
C399 O411 1.281 . S
C399 O412 1.236 . S
C400 O422 1.240 . S
C400 O423 1.264 . S
O401 Mn396 2.095 . S
O401 C410 1.250 . S
O402 Mn397 2.121 . S
O402 C410 1.258 . S
C403 N404 1.326 . S
C403 C407 1.460 . S
C403 H409 0.929 . S
N404 Mn397 2.257 . S
N404 C403 1.326 . S
N404 C408 1.362 . S
C405 C406 1.258 . S
C405 C408 1.431 . S
C405 C425 1.449 . S
C406 C405 1.258 . S
C406 C407 1.477 . S
C406 H426 0.931 . S
C407 C403 1.460 . S
C407 C406 1.477 . S
C407 H427 0.930 . S
C408 N404 1.362 . S
C408 C405 1.431 . S
C408 C418 1.476 . S
H409 C403 0.929 . S
C410 O401 1.250 . S
C410 O402 1.258 . S
O411 Mn396 2.162 . S
O411 C399 1.281 . S
O412 Mn396 2.297 . S
O412 C399 1.236 . S
N413 Mn397 2.282 . S
N413 C414 1.328 . S
N413 C418 1.318 . S
C414 N413 1.328 . S
C414 C415 1.457 . S
C414 H419 0.929 . S
C415 C414 1.457 . S
C415 C416 1.291 . S
C415 H428 0.931 . S
C416 C415 1.291 . S
C416 C417 1.373 . S
C416 H429 0.929 . S
C417 C416 1.373 . S
C417 C418 1.396 . S
C417 C424 1.403 . S
C418 C408 1.476 . S
C418 N413 1.318 . S
C418 C417 1.396 . S
H419 C414 0.929 . S
O420 Mn396 2.385 . S
O420 C398 1.234 . S
O421 Mn396 2.209 . S
O421 Mn397 2.215 . S
O421 C398 1.283 . S
O422 Mn396 2.094 . S
O422 C400 1.240 . S
O423 Mn397 2.117 . S
O423 C400 1.264 . S
C424 C417 1.403 . S
C424 C425 1.399 . S
C424 H430 0.929 . S
C425 C405 1.449 . S
C425 C424 1.399 . S
C425 H431 0.930 . S
H426 C406 0.931 . S
H427 C407 0.930 . S
H428 C415 0.931 . S
H429 C416 0.929 . S
H430 C424 0.929 . S
H431 C425 0.930 . S
Mn432 O437 2.095 . S
Mn432 O447 2.162 . S
Mn432 O448 2.297 . S
Mn432 O456 2.385 . S
Mn432 O457 2.209 . S
Mn432 O458 2.094 . S
Mn433 O438 2.121 . S
Mn433 N440 2.257 . S
Mn433 N449 2.282 . S
Mn433 O457 2.215 . S
Mn433 O459 2.117 . S
C434 O456 1.234 . S
C434 O457 1.283 . S
C435 O447 1.281 . S
C435 O448 1.236 . S
C436 O458 1.240 . S
C436 O459 1.264 . S
O437 Mn432 2.095 . S
O437 C446 1.250 . S
O438 Mn433 2.121 . S
O438 C446 1.258 . S
C439 N440 1.326 . S
C439 C443 1.460 . S
C439 H445 0.929 . S
N440 Mn433 2.257 . S
N440 C439 1.326 . S
N440 C444 1.362 . S
C441 C442 1.258 . S
C441 C444 1.431 . S
C441 C461 1.449 . S
C442 C441 1.258 . S
C442 C443 1.477 . S
C442 H462 0.931 . S
C443 C439 1.460 . S
C443 C442 1.477 . S
C443 H463 0.930 . S
C444 N440 1.362 . S
C444 C441 1.431 . S
C444 C454 1.476 . S
H445 C439 0.929 . S
C446 O437 1.250 . S
C446 O438 1.258 . S
O447 Mn432 2.162 . S
O447 C435 1.281 . S
O448 Mn432 2.297 . S
O448 C435 1.236 . S
N449 Mn433 2.282 . S
N449 C450 1.328 . S
N449 C454 1.318 . S
C450 N449 1.328 . S
C450 C451 1.457 . S
C450 H455 0.929 . S
C451 C450 1.457 . S
C451 C452 1.291 . S
C451 H464 0.931 . S
C452 C451 1.291 . S
C452 C453 1.373 . S
C452 H465 0.929 . S
C453 C452 1.373 . S
C453 C454 1.396 . S
C453 C460 1.403 . S
C454 C444 1.476 . S
C454 N449 1.318 . S
C454 C453 1.396 . S
H455 C450 0.929 . S
O456 Mn432 2.385 . S
O456 C434 1.234 . S
O457 Mn432 2.209 . S
O457 Mn433 2.215 . S
O457 C434 1.283 . S
O458 Mn432 2.094 . S
O458 C436 1.240 . S
O459 Mn433 2.117 . S
O459 C436 1.264 . S
C460 C453 1.403 . S
C460 C461 1.399 . S
C460 H466 0.929 . S
C461 C441 1.449 . S
C461 C460 1.399 . S
C461 H467 0.930 . S
H462 C442 0.931 . S
H463 C443 0.930 . S
H464 C451 0.931 . S
H465 C452 0.929 . S
H466 C460 0.929 . S
H467 C461 0.930 . S
Mn468 O473 2.095 . S
Mn468 O483 2.162 . S
Mn468 O484 2.297 . S
Mn468 O492 2.385 . S
Mn468 O493 2.209 . S
Mn468 O494 2.094 . S
Mn469 O474 2.121 . S
Mn469 N476 2.257 . S
Mn469 N485 2.282 . S
Mn469 O493 2.215 . S
Mn469 O495 2.117 . S
C470 O492 1.234 . S
C470 O493 1.283 . S
C471 O483 1.281 . S
C471 O484 1.236 . S
C472 O494 1.240 . S
C472 O495 1.264 . S
O473 Mn468 2.095 . S
O473 C482 1.250 . S
O474 Mn469 2.121 . S
O474 C482 1.258 . S
C475 N476 1.326 . S
C475 C479 1.460 . S
C475 H481 0.929 . S
N476 Mn469 2.257 . S
N476 C475 1.326 . S
N476 C480 1.362 . S
C477 C478 1.258 . S
C477 C480 1.431 . S
C477 C497 1.449 . S
C478 C477 1.258 . S
C478 C479 1.477 . S
C478 H498 0.931 . S
C479 C475 1.460 . S
C479 C478 1.477 . S
C479 H499 0.930 . S
C480 N476 1.362 . S
C480 C477 1.431 . S
C480 C490 1.476 . S
H481 C475 0.929 . S
C482 O473 1.250 . S
C482 O474 1.258 . S
O483 Mn468 2.162 . S
O483 C471 1.281 . S
O484 Mn468 2.297 . S
O484 C471 1.236 . S
N485 Mn469 2.282 . S
N485 C486 1.328 . S
N485 C490 1.318 . S
C486 N485 1.328 . S
C486 C487 1.457 . S
C486 H491 0.929 . S
C487 C486 1.457 . S
C487 C488 1.291 . S
C487 H500 0.931 . S
C488 C487 1.291 . S
C488 C489 1.373 . S
C488 H501 0.929 . S
C489 C488 1.373 . S
C489 C490 1.396 . S
C489 C496 1.403 . S
C490 C480 1.476 . S
C490 N485 1.318 . S
C490 C489 1.396 . S
H491 C486 0.929 . S
O492 Mn468 2.385 . S
O492 C470 1.234 . S
O493 Mn468 2.209 . S
O493 Mn469 2.215 . S
O493 C470 1.283 . S
O494 Mn468 2.094 . S
O494 C472 1.240 . S
O495 Mn469 2.117 . S
O495 C472 1.264 . S
C496 C489 1.403 . S
C496 C497 1.399 . S
C496 H502 0.929 . S
C497 C477 1.449 . S
C497 C496 1.399 . S
C497 H503 0.930 . S
H498 C478 0.931 . S
H499 C479 0.930 . S
H500 C487 0.931 . S
H501 C488 0.929 . S
H502 C496 0.929 . S
H503 C497 0.930 . S
Mn504 O509 2.095 . S
Mn504 O519 2.162 . S
Mn504 O520 2.297 . S
Mn504 O528 2.385 . S
Mn504 O529 2.209 . S
Mn504 O530 2.094 . S
Mn505 O510 2.121 . S
Mn505 N512 2.257 . S
Mn505 N521 2.282 . S
Mn505 O529 2.215 . S
Mn505 O531 2.117 . S
C506 O528 1.234 . S
C506 O529 1.283 . S
C507 O519 1.281 . S
C507 O520 1.236 . S
C508 O530 1.240 . S
C508 O531 1.264 . S
O509 Mn504 2.095 . S
O509 C518 1.250 . S
O510 Mn505 2.121 . S
O510 C518 1.258 . S
C511 N512 1.326 . S
C511 C515 1.460 . S
C511 H517 0.929 . S
N512 Mn505 2.257 . S
N512 C511 1.326 . S
N512 C516 1.362 . S
C513 C514 1.258 . S
C513 C516 1.431 . S
C513 C533 1.449 . S
C514 C513 1.258 . S
C514 C515 1.477 . S
C514 H534 0.931 . S
C515 C511 1.460 . S
C515 C514 1.477 . S
C515 H535 0.930 . S
C516 N512 1.362 . S
C516 C513 1.431 . S
C516 C526 1.476 . S
H517 C511 0.929 . S
C518 O509 1.250 . S
C518 O510 1.258 . S
O519 Mn504 2.162 . S
O519 C507 1.281 . S
O520 Mn504 2.297 . S
O520 C507 1.236 . S
N521 Mn505 2.282 . S
N521 C522 1.328 . S
N521 C526 1.318 . S
C522 N521 1.328 . S
C522 C523 1.457 . S
C522 H527 0.929 . S
C523 C522 1.457 . S
C523 C524 1.291 . S
C523 H536 0.931 . S
C524 C523 1.291 . S
C524 C525 1.373 . S
C524 H537 0.929 . S
C525 C524 1.373 . S
C525 C526 1.396 . S
C525 C532 1.403 . S
C526 C516 1.476 . S
C526 N521 1.318 . S
C526 C525 1.396 . S
H527 C522 0.929 . S
O528 Mn504 2.385 . S
O528 C506 1.234 . S
O529 Mn504 2.209 . S
O529 Mn505 2.215 . S
O529 C506 1.283 . S
O530 Mn504 2.094 . S
O530 C508 1.240 . S
O531 Mn505 2.117 . S
O531 C508 1.264 . S
C532 C525 1.403 . S
C532 C533 1.399 . S
C532 H538 0.929 . S
C533 C513 1.449 . S
C533 C532 1.399 . S
C533 H539 0.930 . S
H534 C514 0.931 . S
H535 C515 0.930 . S
H536 C523 0.931 . S
H537 C524 0.929 . S
H538 C532 0.929 . S
H539 C533 0.930 . S
Mn540 O545 2.095 . S
Mn540 O555 2.162 . S
Mn540 O556 2.297 . S
Mn540 O564 2.385 . S
Mn540 O565 2.209 . S
Mn540 O566 2.094 . S
Mn541 O546 2.121 . S
Mn541 N548 2.257 . S
Mn541 N557 2.282 . S
Mn541 O565 2.215 . S
Mn541 O567 2.117 . S
C542 O564 1.234 . S
C542 O565 1.283 . S
C543 O555 1.281 . S
C543 O556 1.236 . S
C544 O566 1.240 . S
C544 O567 1.264 . S
O545 Mn540 2.095 . S
O545 C554 1.250 . S
O546 Mn541 2.121 . S
O546 C554 1.258 . S
C547 N548 1.326 . S
C547 C551 1.460 . S
C547 H553 0.929 . S
N548 Mn541 2.257 . S
N548 C547 1.326 . S
N548 C552 1.362 . S
C549 C550 1.258 . S
C549 C552 1.431 . S
C549 C569 1.449 . S
C550 C549 1.258 . S
C550 C551 1.477 . S
C550 H570 0.931 . S
C551 C547 1.460 . S
C551 C550 1.477 . S
C551 H571 0.930 . S
C552 N548 1.362 . S
C552 C549 1.431 . S
C552 C562 1.476 . S
H553 C547 0.929 . S
C554 O545 1.250 . S
C554 O546 1.258 . S
O555 Mn540 2.162 . S
O555 C543 1.281 . S
O556 Mn540 2.297 . S
O556 C543 1.236 . S
N557 Mn541 2.282 . S
N557 C558 1.328 . S
N557 C562 1.318 . S
C558 N557 1.328 . S
C558 C559 1.457 . S
C558 H563 0.929 . S
C559 C558 1.457 . S
C559 C560 1.291 . S
C559 H572 0.931 . S
C560 C559 1.291 . S
C560 C561 1.373 . S
C560 H573 0.929 . S
C561 C560 1.373 . S
C561 C562 1.396 . S
C561 C568 1.403 . S
C562 C552 1.476 . S
C562 N557 1.318 . S
C562 C561 1.396 . S
H563 C558 0.929 . S
O564 Mn540 2.385 . S
O564 C542 1.234 . S
O565 Mn540 2.209 . S
O565 Mn541 2.215 . S
O565 C542 1.283 . S
O566 Mn540 2.094 . S
O566 C544 1.240 . S
O567 Mn541 2.117 . S
O567 C544 1.264 . S
C568 C561 1.403 . S
C568 C569 1.399 . S
C568 H574 0.929 . S
C569 C549 1.449 . S
C569 C568 1.399 . S
C569 H575 0.930 . S
H570 C550 0.931 . S
H571 C551 0.930 . S
H572 C559 0.931 . S
H573 C560 0.929 . S
H574 C568 0.929 . S
H575 C569 0.930 . S
H576 C594 0.951 . S
H577 C596 0.951 . S
H578 C598 0.950 . S
H579 C599 0.950 . S
H580 C601 0.950 . S
H581 C604 0.950 . S
H582 C605 0.950 . S
H583 C607 0.950 . S
H584 C608 0.950 . S
H585 C609 0.951 . S
H586 C611 0.951 . S
H587 C613 0.950 . S
H588 C614 0.950 . S
H589 C616 0.950 . S
H590 C619 0.950 . S
H591 C620 0.950 . S
H592 C622 0.950 . S
H593 C623 0.950 . S
C594 H576 0.951 . S
C594 C595 1.388 . S
C594 C596 1.388 . S
C595 C594 1.388 . S
C595 C599 1.362 1_554 S
C596 H577 0.951 . S
C596 C594 1.388 . S
C596 C597 1.363 1_554 S
C597 C596 1.363 1_556 S
C597 C598 1.416 . S
C597 C600 1.499 . S
C598 H578 0.950 . S
C598 C597 1.416 . S
C598 C599 1.374 . S
C599 H579 0.950 . S
C599 C595 1.362 1_556 S
C599 C598 1.374 . S
C600 C597 1.499 . S
C600 C601 1.373 . S
C600 C602 1.389 1_556 S
C601 H580 0.950 . S
C601 C600 1.373 . S
C601 C617 1.377 . S
C602 C600 1.389 1_554 S
C602 C603 1.524 . S
C602 C616 1.377 . S
C603 C602 1.524 . S
C603 C604 1.397 1_554 S
C603 C608 1.363 . S
C604 H581 0.950 . S
C604 C603 1.397 1_556 S
C604 C605 1.334 . S
C605 H582 0.950 . S
C605 C604 1.334 . S
C605 C606 1.287 . S
C606 C605 1.287 . S
C606 C607 1.524 1_556 S
C606 H625 0.913 . S
C607 H583 0.950 . S
C607 C606 1.524 1_554 S
C607 C608 1.415 . S
C608 H584 0.950 . S
C608 C603 1.363 . S
C608 C607 1.415 . S
C609 H585 0.951 . S
C609 C610 1.366 1_556 S
C609 C611 1.388 . S
C610 C609 1.366 1_554 S
C610 C614 1.385 . S
C611 H586 0.951 . S
C611 C609 1.388 . S
C611 C612 1.366 1_556 S
C612 C611 1.366 1_554 S
C612 C613 1.414 . S
C612 C615 1.499 . S
C613 H587 0.950 . S
C613 C612 1.414 . S
C613 C614 1.374 . S
C614 H588 0.950 . S
C614 C610 1.385 . S
C614 C613 1.374 . S
C615 C612 1.499 . S
C615 C616 1.373 . S
C615 C617 1.389 1_554 S
C616 H589 0.950 . S
C616 C602 1.377 . S
C616 C615 1.373 . S
C617 C601 1.377 . S
C617 C615 1.389 1_556 S
C617 C618 1.524 . S
C618 C617 1.524 . S
C618 C619 1.397 1_556 S
C618 C623 1.363 . S
C619 H590 0.950 . S
C619 C618 1.397 1_554 S
C619 C620 1.334 . S
C620 H591 0.950 . S
C620 C619 1.334 . S
C620 C621 1.287 . S
C621 C620 1.287 . S
C621 C622 1.524 1_554 S
C621 H624 0.999 . S
C622 H592 0.950 . S
C622 C621 1.524 1_556 S
C622 C623 1.415 . S
C623 H593 0.950 . S
C623 C618 1.363 . S
C623 C622 1.415 . S
H624 C621 0.999 . S
H625 C606 0.913 . S
H626 C644 0.951 . S
H627 C646 0.951 . S
H628 C648 0.950 . S
H629 C649 0.950 . S
H630 C651 0.950 . S
H631 C654 0.950 . S
H632 C655 0.950 . S
H633 C657 0.950 . S
H634 C658 0.950 . S
H635 C659 0.951 . S
H636 C661 0.951 . S
H637 C663 0.950 . S
H638 C664 0.950 . S
H639 C666 0.950 . S
H640 C669 0.950 . S
H641 C670 0.950 . S
H642 C672 0.950 . S
H643 C673 0.950 . S
C644 H626 0.951 . S
C644 C645 1.366 1_556 S
C644 C646 1.388 . S
C645 C644 1.366 1_554 S
C645 C649 1.385 . S
C646 H627 0.951 . S
C646 C644 1.388 . S
C646 C647 1.363 1_556 S
C647 C646 1.363 1_554 S
C647 C648 1.416 . S
C647 C650 1.499 . S
C648 H628 0.950 . S
C648 C647 1.416 . S
C648 C649 1.374 . S
C649 H629 0.950 . S
C649 C645 1.385 . S
C649 C648 1.374 . S
C650 C647 1.499 . S
C650 C651 1.373 . S
C650 C652 1.389 1_554 S
C651 H630 0.950 . S
C651 C650 1.373 . S
C651 C667 1.377 . S
C652 C650 1.389 1_556 S
C652 C653 1.524 . S
C652 C666 1.377 . S
C653 C652 1.524 . S
C653 C654 1.397 . S
C653 C658 1.363 . S
C654 H631 0.950 . S
C654 C653 1.397 . S
C654 C655 1.334 . S
C655 H632 0.950 . S
C655 C654 1.334 . S
C655 C656 1.287 . S
C656 C655 1.287 . S
C656 C657 1.524 . S
C656 H675 0.913 . S
C657 H633 0.950 . S
C657 C656 1.524 . S
C657 C658 1.415 . S
C658 H634 0.950 . S
C658 C653 1.363 . S
C658 C657 1.415 . S
C659 H635 0.951 . S
C659 C660 1.366 . S
C659 C661 1.388 . S
C660 C659 1.366 . S
C660 C664 1.385 1_554 S
C661 H636 0.951 . S
C661 C659 1.388 . S
C661 C662 1.366 . S
C662 C661 1.366 . S
C662 C663 1.414 1_554 S
C662 C665 1.499 . S
C663 H637 0.950 . S
C663 C662 1.414 1_556 S
C663 C664 1.374 . S
C664 H638 0.950 . S
C664 C660 1.385 1_556 S
C664 C663 1.374 . S
C665 C662 1.499 . S
C665 C666 1.352 1_554 S
C665 C667 1.410 . S
C666 H639 0.950 . S
C666 C652 1.377 . S
C666 C665 1.352 1_556 S
C667 C651 1.377 . S
C667 C665 1.410 . S
C667 C668 1.524 . S
C668 C667 1.524 . S
C668 C669 1.397 . S
C668 C673 1.363 . S
C669 H640 0.950 . S
C669 C668 1.397 . S
C669 C670 1.334 . S
C670 H641 0.950 . S
C670 C669 1.334 . S
C670 C671 1.287 . S
C671 C670 1.287 . S
C671 C672 1.524 . S
C671 H674 0.999 . S
C672 H642 0.950 . S
C672 C671 1.524 . S
C672 C673 1.415 . S
C673 H643 0.950 . S
C673 C668 1.363 . S
C673 C672 1.415 . S
H674 C671 0.999 . S
H675 C656 0.913 . S
H676 C694 0.951 . S
H677 C696 0.951 . S
H678 C698 0.950 . S
H679 C699 0.950 . S
H680 C701 0.950 . S
H681 C704 0.950 . S
H682 C705 0.950 . S
H683 C707 0.950 . S
H684 C708 0.950 . S
H685 C709 0.951 . S
H686 C711 0.951 . S
H687 C713 0.950 . S
H688 C714 0.950 . S
H689 C716 0.950 . S
H690 C719 0.950 . S
H691 C720 0.950 . S
H692 C722 0.950 . S
H693 C723 0.950 . S
C694 H676 0.951 . S
C694 C695 1.389 . S
C694 C696 1.388 . S
C695 C694 1.389 . S
C695 C699 1.361 1_554 S
C696 H677 0.951 . S
C696 C694 1.388 . S
C696 C697 1.368 1_554 S
C697 C696 1.368 1_556 S
C697 C698 1.411 . S
C697 C700 1.499 . S
C698 H678 0.950 . S
C698 C697 1.411 . S
C698 C699 1.374 . S
C699 H679 0.950 . S
C699 C695 1.361 1_556 S
C699 C698 1.374 . S
C700 C697 1.499 . S
C700 C701 1.373 . S
C700 C702 1.389 1_556 S
C701 H680 0.950 . S
C701 C700 1.373 . S
C701 C717 1.377 . S
C702 C700 1.389 1_554 S
C702 C703 1.524 . S
C702 C716 1.377 . S
C703 C702 1.524 . S
C703 C704 1.397 1_554 S
C703 C708 1.363 . S
C704 H681 0.950 . S
C704 C703 1.397 1_556 S
C704 C705 1.334 . S
C705 H682 0.950 . S
C705 C704 1.334 . S
C705 C706 1.287 1_556 S
C706 C705 1.287 1_554 S
C706 C707 1.524 . S
C706 H725 0.913 . S
C707 H683 0.950 . S
C707 C706 1.524 . S
C707 C708 1.415 . S
C708 H684 0.950 . S
C708 C703 1.363 . S
C708 C707 1.415 . S
C709 H685 0.951 . S
C709 C710 1.366 1_556 S
C709 C711 1.388 . S
C710 C709 1.366 1_554 S
C710 C714 1.385 . S
C711 H686 0.951 . S
C711 C709 1.388 . S
C711 C712 1.366 1_556 S
C712 C711 1.366 1_554 S
C712 C713 1.414 . S
C712 C715 1.499 . S
C713 H687 0.950 . S
C713 C712 1.414 . S
C713 C714 1.374 . S
C714 H688 0.950 . S
C714 C710 1.385 . S
C714 C713 1.374 . S
C715 C712 1.499 . S
C715 C716 1.373 . S
C715 C717 1.389 1_554 S
C716 H689 0.950 . S
C716 C702 1.377 . S
C716 C715 1.373 . S
C717 C701 1.377 . S
C717 C715 1.389 1_556 S
C717 C718 1.524 . S
C718 C717 1.524 . S
C718 C719 1.397 1_556 S
C718 C723 1.363 . S
C719 H690 0.950 . S
C719 C718 1.397 1_554 S
C719 C720 1.334 . S
C720 H691 0.950 . S
C720 C719 1.334 . S
C720 C721 1.287 1_554 S
C721 C720 1.287 1_556 S
C721 C722 1.524 . S
C721 H724 0.999 . S
C722 H692 0.950 . S
C722 C721 1.524 . S
C722 C723 1.415 . S
C723 H693 0.950 . S
C723 C718 1.363 . S
C723 C722 1.415 . S
H724 C721 0.999 . S
H725 C706 0.913 . S
H726 C744 0.951 . S
H727 C746 0.951 . S
H728 C748 0.950 . S
H729 C749 0.950 . S
H730 C751 0.950 . S
H731 C754 0.950 . S
H732 C755 0.950 . S
H733 C757 0.950 . S
H734 C758 0.950 . S
H735 C759 0.951 . S
H736 C761 0.951 . S
H737 C763 0.950 . S
H738 C764 0.950 . S
H739 C766 0.950 . S
H740 C769 0.950 . S
H741 C770 0.950 . S
H742 C772 0.950 . S
H743 C773 0.950 . S
C744 H726 0.951 . S
C744 C745 1.387 . S
C744 C746 1.388 . S
C745 C744 1.387 . S
C745 C749 1.363 1_554 S
C746 H727 0.951 . S
C746 C744 1.388 . S
C746 C747 1.361 1_554 S
C747 C746 1.361 1_556 S
C747 C748 1.418 . S
C747 C750 1.499 . S
C748 H728 0.950 . S
C748 C747 1.418 . S
C748 C749 1.374 . S
C749 H729 0.950 . S
C749 C745 1.363 1_556 S
C749 C748 1.374 . S
C750 C747 1.499 . S
C750 C751 1.373 . S
C750 C752 1.389 1_556 S
C751 H730 0.950 . S
C751 C750 1.373 . S
C751 C767 1.378 . S
C752 C750 1.389 1_554 S
C752 C753 1.524 . S
C752 C766 1.377 . S
C753 C752 1.524 . S
C753 C754 1.397 1_554 S
C753 C758 1.363 . S
C754 H731 0.950 . S
C754 C753 1.397 1_556 S
C754 C755 1.334 . S
C755 H732 0.950 . S
C755 C754 1.334 . S
C755 C756 1.287 . S
C756 C755 1.287 . S
C756 C757 1.524 1_556 S
C756 H775 0.913 . S
C757 H733 0.950 . S
C757 C756 1.524 1_554 S
C757 C758 1.415 . S
C758 H734 0.950 . S
C758 C753 1.363 . S
C758 C757 1.415 . S
C759 H735 0.951 . S
C759 C760 1.366 1_556 S
C759 C761 1.388 . S
C760 C759 1.366 1_554 S
C760 C764 1.385 . S
C761 H736 0.951 . S
C761 C759 1.388 . S
C761 C762 1.366 1_556 S
C762 C761 1.366 1_554 S
C762 C763 1.414 . S
C762 C765 1.499 . S
C763 H737 0.950 . S
C763 C762 1.414 . S
C763 C764 1.374 . S
C764 H738 0.950 . S
C764 C760 1.385 . S
C764 C763 1.374 . S
C765 C762 1.499 . S
C765 C766 1.373 . S
C765 C767 1.387 1_554 S
C766 H739 0.950 . S
C766 C752 1.377 . S
C766 C765 1.373 . S
C767 C751 1.378 . S
C767 C765 1.387 1_556 S
C767 C768 1.524 . S
C768 C767 1.524 . S
C768 C769 1.398 1_556 S
C768 C773 1.362 . S
C769 H740 0.950 . S
C769 C768 1.398 1_554 S
C769 C770 1.334 . S
C770 H741 0.950 . S
C770 C769 1.334 . S
C770 C771 1.287 . S
C771 C770 1.287 . S
C771 C772 1.524 1_554 S
C771 H774 0.999 . S
C772 H742 0.950 . S
C772 C771 1.524 1_556 S
C772 C773 1.415 . S
C773 H743 0.950 . S
C773 C768 1.362 . S
C773 C772 1.415 . S
H774 C771 0.999 . S
H775 C756 0.913 . S
H776 C794 0.951 . S
H777 C796 0.951 . S
H778 C798 0.950 . S
H779 C799 0.950 . S
H780 C801 0.950 . S
H781 C804 0.950 . S
H782 C805 0.950 . S
H783 C807 0.950 . S
H784 C808 0.950 . S
H785 C809 0.951 . S
H786 C811 0.951 . S
H787 C813 0.950 . S
H788 C814 0.950 . S
H789 C816 0.950 . S
H790 C819 0.950 . S
H791 C820 0.950 . S
H792 C822 0.950 . S
H793 C823 0.950 . S
C794 H776 0.951 . S
C794 C795 1.366 . S
C794 C796 1.388 . S
C795 C794 1.366 . S
C795 C799 1.385 . S
C796 H777 0.951 . S
C796 C794 1.388 . S
C796 C797 1.366 . S
C797 C796 1.366 . S
C797 C798 1.414 . S
C797 C800 1.499 . S
C798 H778 0.950 . S
C798 C797 1.414 . S
C798 C799 1.374 . S
C799 H779 0.950 . S
C799 C795 1.385 . S
C799 C798 1.374 . S
C800 C797 1.499 . S
C800 C801 1.373 . S
C800 C802 1.389 . S
C801 H780 0.950 . S
C801 C800 1.373 . S
C801 C817 1.377 1_545 S
C802 C800 1.389 . S
C802 C803 1.524 . S
C802 C816 1.377 1_545 S
C803 C802 1.524 . S
C803 C804 1.397 . S
C803 C808 1.363 . S
C804 H781 0.950 . S
C804 C803 1.397 . S
C804 C805 1.334 . S
C805 H782 0.950 . S
C805 C804 1.334 . S
C805 C806 1.287 . S
C806 C805 1.287 . S
C806 C807 1.524 . S
C806 H825 0.913 . S
C807 H783 0.950 . S
C807 C806 1.524 . S
C807 C808 1.415 . S
C808 H784 0.950 . S
C808 C803 1.363 . S
C808 C807 1.415 . S
C809 H785 0.951 . S
C809 C810 1.366 . S
C809 C811 1.388 . S
C810 C809 1.366 . S
C810 C814 1.385 . S
C811 H786 0.951 . S
C811 C809 1.388 . S
C811 C812 1.366 . S
C812 C811 1.366 . S
C812 C813 1.414 . S
C812 C815 1.499 . S
C813 H787 0.950 . S
C813 C812 1.414 . S
C813 C814 1.374 . S
C814 H788 0.950 . S
C814 C810 1.385 . S
C814 C813 1.374 . S
C815 C812 1.499 . S
C815 C816 1.373 . S
C815 C817 1.389 . S
C816 H789 0.950 . S
C816 C802 1.377 1_565 S
C816 C815 1.373 . S
C817 C801 1.377 1_565 S
C817 C815 1.389 . S
C817 C818 1.524 . S
C818 C817 1.524 . S
C818 C819 1.397 . S
C818 C823 1.363 . S
C819 H790 0.950 . S
C819 C818 1.397 . S
C819 C820 1.334 . S
C820 H791 0.950 . S
C820 C819 1.334 . S
C820 C821 1.287 . S
C821 C820 1.287 . S
C821 C822 1.524 . S
C821 H824 0.999 . S
C822 H792 0.950 . S
C822 C821 1.524 . S
C822 C823 1.415 . S
C823 H793 0.950 . S
C823 C818 1.363 . S
C823 C822 1.415 . S
H824 C821 0.999 . S
H825 C806 0.913 . S
H826 C844 0.951 . S
H827 C846 0.951 . S
H828 C848 0.950 . S
H829 C849 0.950 . S
H830 C851 0.950 . S
H831 C854 0.950 . S
H832 C855 0.950 . S
H833 C857 0.950 . S
H834 C858 0.950 . S
H835 C859 0.951 . S
H836 C861 0.951 . S
H837 C863 0.950 . S
H838 C864 0.950 . S
H839 C866 0.950 . S
H840 C869 0.950 . S
H841 C870 0.950 . S
H842 C872 0.950 . S
H843 C873 0.950 . S
C844 H826 0.951 . S
C844 C845 1.366 . S
C844 C846 1.388 . S
C845 C844 1.366 . S
C845 C849 1.385 . S
C846 H827 0.951 . S
C846 C844 1.388 . S
C846 C847 1.366 . S
C847 C846 1.366 . S
C847 C848 1.414 . S
C847 C850 1.499 . S
C848 H828 0.950 . S
C848 C847 1.414 . S
C848 C849 1.374 . S
C849 H829 0.950 . S
C849 C845 1.385 . S
C849 C848 1.374 . S
C850 C847 1.499 . S
C850 C851 1.373 . S
C850 C852 1.389 . S
C851 H830 0.950 . S
C851 C850 1.373 . S
C851 C867 1.377 1_655 S
C852 C850 1.389 . S
C852 C853 1.524 . S
C852 C866 1.377 1_655 S
C853 C852 1.524 . S
C853 C854 1.397 . S
C853 C858 1.363 . S
C854 H831 0.950 . S
C854 C853 1.397 . S
C854 C855 1.334 . S
C855 H832 0.950 . S
C855 C854 1.334 . S
C855 C856 1.287 . S
C856 C855 1.287 . S
C856 C857 1.524 . S
C856 H875 0.913 . S
C857 H833 0.950 . S
C857 C856 1.524 . S
C857 C858 1.415 . S
C858 H834 0.950 . S
C858 C853 1.363 . S
C858 C857 1.415 . S
C859 H835 0.951 . S
C859 C860 1.366 . S
C859 C861 1.388 . S
C860 C859 1.366 . S
C860 C864 1.385 . S
C861 H836 0.951 . S
C861 C859 1.388 . S
C861 C862 1.366 . S
C862 C861 1.366 . S
C862 C863 1.414 . S
C862 C865 1.499 . S
C863 H837 0.950 . S
C863 C862 1.414 . S
C863 C864 1.374 . S
C864 H838 0.950 . S
C864 C860 1.385 . S
C864 C863 1.374 . S
C865 C862 1.499 . S
C865 C866 1.373 . S
C865 C867 1.389 . S
C866 H839 0.950 . S
C866 C852 1.377 1_455 S
C866 C865 1.373 . S
C867 C851 1.377 1_455 S
C867 C865 1.389 . S
C867 C868 1.524 . S
C868 C867 1.524 . S
C868 C869 1.397 . S
C868 C873 1.363 . S
C869 H840 0.950 . S
C869 C868 1.397 . S
C869 C870 1.334 . S
C870 H841 0.950 . S
C870 C869 1.334 . S
C870 C871 1.287 . S
C871 C870 1.287 . S
C871 C872 1.524 . S
C871 H874 0.999 . S
C872 H842 0.950 . S
C872 C871 1.524 . S
C872 C873 1.415 . S
C873 H843 0.950 . S
C873 C868 1.363 . S
C873 C872 1.415 . S
H874 C871 0.999 . S
H875 C856 0.913 . S
H876 C894 0.951 . S
H877 C896 0.951 . S
H878 C898 0.950 . S
H879 C899 0.950 . S
H880 C901 0.950 . S
H881 C904 0.950 . S
H882 C905 0.950 . S
H883 C907 0.950 . S
H884 C908 0.950 . S
H885 C909 0.951 . S
H886 C911 0.951 . S
H887 C913 0.950 . S
H888 C914 0.950 . S
H889 C916 0.950 . S
H890 C919 0.950 . S
H891 C920 0.950 . S
H892 C922 0.950 . S
H893 C923 0.950 . S
C894 H876 0.951 . S
C894 C895 1.366 . S
C894 C896 1.388 . S
C895 C894 1.366 . S
C895 C899 1.385 . S
C896 H877 0.951 . S
C896 C894 1.388 . S
C896 C897 1.366 . S
C897 C896 1.366 . S
C897 C898 1.414 . S
C897 C900 1.499 . S
C898 H878 0.950 . S
C898 C897 1.414 . S
C898 C899 1.374 . S
C899 H879 0.950 . S
C899 C895 1.385 . S
C899 C898 1.374 . S
C900 C897 1.499 . S
C900 C901 1.373 . S
C900 C902 1.389 . S
C901 H880 0.950 . S
C901 C900 1.373 . S
C901 C917 1.377 1_545 S
C902 C900 1.389 . S
C902 C903 1.524 . S
C902 C916 1.377 1_545 S
C903 C902 1.524 . S
C903 C904 1.397 . S
C903 C908 1.363 . S
C904 H881 0.950 . S
C904 C903 1.397 . S
C904 C905 1.334 . S
C905 H882 0.950 . S
C905 C904 1.334 . S
C905 C906 1.287 . S
C906 C905 1.287 . S
C906 C907 1.524 . S
C906 H925 0.913 . S
C907 H883 0.950 . S
C907 C906 1.524 . S
C907 C908 1.415 . S
C908 H884 0.950 . S
C908 C903 1.363 . S
C908 C907 1.415 . S
C909 H885 0.951 . S
C909 C910 1.366 . S
C909 C911 1.388 . S
C910 C909 1.366 . S
C910 C914 1.385 . S
C911 H886 0.951 . S
C911 C909 1.388 . S
C911 C912 1.366 . S
C912 C911 1.366 . S
C912 C913 1.414 . S
C912 C915 1.499 . S
C913 H887 0.950 . S
C913 C912 1.414 . S
C913 C914 1.374 . S
C914 H888 0.950 . S
C914 C910 1.385 . S
C914 C913 1.374 . S
C915 C912 1.499 . S
C915 C916 1.373 . S
C915 C917 1.389 . S
C916 H889 0.950 . S
C916 C902 1.377 1_565 S
C916 C915 1.373 . S
C917 C901 1.377 1_565 S
C917 C915 1.389 . S
C917 C918 1.524 . S
C918 C917 1.524 . S
C918 C919 1.397 . S
C918 C923 1.363 . S
C919 H890 0.950 . S
C919 C918 1.397 . S
C919 C920 1.334 . S
C920 H891 0.950 . S
C920 C919 1.334 . S
C920 C921 1.287 . S
C921 C920 1.287 . S
C921 C922 1.524 . S
C921 H924 0.999 . S
C922 H892 0.950 . S
C922 C921 1.524 . S
C922 C923 1.415 . S
C923 H893 0.950 . S
C923 C918 1.363 . S
C923 C922 1.415 . S
H924 C921 0.999 . S
H925 C906 0.913 . S
H926 C944 0.951 . S
H927 C946 0.951 . S
H928 C948 0.950 . S
H929 C949 0.950 . S
H930 C951 0.950 . S
H931 C954 0.950 . S
H932 C955 0.950 . S
H933 C957 0.950 . S
H934 C958 0.950 . S
H935 C959 0.951 . S
H936 C961 0.951 . S
H937 C963 0.950 . S
H938 C964 0.950 . S
H939 C966 0.950 . S
H940 C969 0.950 . S
H941 C970 0.950 . S
H942 C972 0.950 . S
H943 C973 0.950 . S
C944 H926 0.951 . S
C944 C945 1.366 . S
C944 C946 1.388 . S
C945 C944 1.366 . S
C945 C949 1.385 . S
C946 H927 0.951 . S
C946 C944 1.388 . S
C946 C947 1.366 . S
C947 C946 1.366 . S
C947 C948 1.414 . S
C947 C950 1.499 . S
C948 H928 0.950 . S
C948 C947 1.414 . S
C948 C949 1.374 . S
C949 H929 0.950 . S
C949 C945 1.385 . S
C949 C948 1.374 . S
C950 C947 1.499 . S
C950 C951 1.373 . S
C950 C952 1.389 . S
C951 H930 0.950 . S
C951 C950 1.373 . S
C951 C967 1.377 1_455 S
C952 C950 1.389 . S
C952 C953 1.524 . S
C952 C966 1.377 1_455 S
C953 C952 1.524 . S
C953 C954 1.397 . S
C953 C958 1.363 . S
C954 H931 0.950 . S
C954 C953 1.397 . S
C954 C955 1.334 . S
C955 H932 0.950 . S
C955 C954 1.334 . S
C955 C956 1.287 . S
C956 C955 1.287 . S
C956 C957 1.524 . S
C956 H975 0.913 . S
C957 H933 0.950 . S
C957 C956 1.524 . S
C957 C958 1.415 . S
C958 H934 0.950 . S
C958 C953 1.363 . S
C958 C957 1.415 . S
C959 H935 0.951 . S
C959 C960 1.366 . S
C959 C961 1.388 . S
C960 C959 1.366 . S
C960 C964 1.385 . S
C961 H936 0.951 . S
C961 C959 1.388 . S
C961 C962 1.366 . S
C962 C961 1.366 . S
C962 C963 1.414 . S
C962 C965 1.499 . S
C963 H937 0.950 . S
C963 C962 1.414 . S
C963 C964 1.374 . S
C964 H938 0.950 . S
C964 C960 1.385 . S
C964 C963 1.374 . S
C965 C962 1.499 . S
C965 C966 1.373 . S
C965 C967 1.389 . S
C966 H939 0.950 . S
C966 C952 1.377 1_655 S
C966 C965 1.373 . S
C967 C951 1.377 1_655 S
C967 C965 1.389 . S
C967 C968 1.524 . S
C968 C967 1.524 . S
C968 C969 1.397 . S
C968 C973 1.363 . S
C969 H940 0.950 . S
C969 C968 1.397 . S
C969 C970 1.334 . S
C970 H941 0.950 . S
C970 C969 1.334 . S
C970 C971 1.287 . S
C971 C970 1.287 . S
C971 C972 1.524 . S
C971 H974 0.999 . S
C972 H942 0.950 . S
C972 C971 1.524 . S
C972 C973 1.415 . S
C973 H943 0.950 . S
C973 C968 1.363 . S
C973 C972 1.415 . S
H974 C971 0.999 . S
H975 C956 0.913 . S
H976 C994 0.951 . S
H977 C996 0.951 . S
H978 C998 0.950 . S
H979 C999 0.950 . S
H980 C1001 0.950 . S
H981 C1004 0.950 . S
H982 C1005 0.950 . S
H983 C1007 0.950 . S
H984 C1008 0.950 . S
H985 C1009 0.951 . S
H986 C1011 0.951 . S
H987 C1013 0.950 . S
H988 C1014 0.950 . S
H989 C1016 0.950 . S
H990 C1019 0.931 1_554 S
H991 C1020 0.950 . S
H992 C1022 0.950 . S
H993 C1023 0.950 . S
C994 H976 0.951 . S
C994 C995 1.366 . S
C994 C996 1.388 . S
C995 C994 1.366 . S
C995 C999 1.385 1_554 S
C996 H977 0.951 . S
C996 C994 1.388 . S
C996 C997 1.366 . S
C997 C996 1.366 . S
C997 C998 1.414 1_554 S
C997 C1000 1.499 . S
C998 H978 0.950 . S
C998 C997 1.414 1_556 S
C998 C999 1.374 . S
C999 H979 0.950 . S
C999 C995 1.385 1_556 S
C999 C998 1.374 . S
C1000 C997 1.499 . S
C1000 C1001 1.367 1_554 S
C1000 C1002 1.395 . S
C1001 H980 0.950 . S
C1001 C1000 1.367 1_556 S
C1001 C1017 1.377 . S
C1002 C1000 1.395 . S
C1002 C1003 1.524 . S
C1002 C1016 1.377 . S
C1003 C1002 1.524 . S
C1003 C1004 1.397 . S
C1003 C1008 1.363 . S
C1004 H981 0.950 . S
C1004 C1003 1.397 . S
C1004 C1005 1.334 . S
C1005 H982 0.950 . S
C1005 C1004 1.334 . S
C1005 C1006 1.287 . S
C1006 C1005 1.287 . S
C1006 C1007 1.524 . S
C1006 H1025 0.913 . S
C1007 H983 0.950 . S
C1007 C1006 1.524 . S
C1007 C1008 1.415 . S
C1008 H984 0.950 . S
C1008 C1003 1.363 . S
C1008 C1007 1.415 . S
C1009 H985 0.951 . S
C1009 C1010 1.366 . S
C1009 C1011 1.388 . S
C1010 C1009 1.366 . S
C1010 C1014 1.385 1_556 S
C1011 H986 0.951 . S
C1011 C1009 1.388 . S
C1011 C1012 1.366 . S
C1012 C1011 1.366 . S
C1012 C1013 1.413 1_556 S
C1012 C1015 1.499 1_556 S
C1013 H987 0.950 . S
C1013 C1012 1.413 1_554 S
C1013 C1014 1.374 . S
C1014 H988 0.950 . S
C1014 C1010 1.385 1_554 S
C1014 C1013 1.374 . S
C1015 C1012 1.499 1_554 S
C1015 C1016 1.373 . S
C1015 C1017 1.389 1_554 S
C1016 H989 0.950 . S
C1016 C1002 1.377 . S
C1016 C1015 1.373 . S
C1017 C1001 1.377 . S
C1017 C1015 1.389 1_556 S
C1017 C1018 1.524 . S
C1018 C1017 1.524 . S
C1018 C1019 1.397 . S
C1018 C1023 1.363 . S
C1019 H990 0.931 1_556 S
C1019 C1018 1.397 . S
C1019 C1020 1.334 . S
C1020 H991 0.950 . S
C1020 C1019 1.334 . S
C1020 C1021 1.287 . S
C1021 C1020 1.287 . S
C1021 C1022 1.524 . S
C1021 H1024 0.999 . S
C1022 H992 0.950 . S
C1022 C1021 1.524 . S
C1022 C1023 1.415 . S
C1023 H993 0.950 . S
C1023 C1018 1.363 . S
C1023 C1022 1.415 . S
H1024 C1021 0.999 . S
H1025 C1006 0.913 . S
H1026 C1044 0.951 . S
H1027 C1046 0.951 . S
H1028 C1048 0.950 . S
H1029 C1049 0.950 . S
H1030 C1051 0.950 . S
H1031 C1054 0.950 . S
H1032 C1055 0.950 . S
H1033 C1057 0.950 . S
H1034 C1058 0.950 . S
H1035 C1059 0.951 . S
H1036 C1061 0.951 . S
H1037 C1063 0.950 . S
H1038 C1064 0.950 . S
H1039 C1066 0.950 . S
H1040 C1069 0.950 . S
H1041 C1070 0.950 . S
H1042 C1072 0.950 . S
H1043 C1073 0.950 . S
C1044 H1026 0.951 . S
C1044 C1045 1.366 . S
C1044 C1046 1.388 . S
C1045 C1044 1.366 . S
C1045 C1049 1.385 1_556 S
C1046 H1027 0.951 . S
C1046 C1044 1.388 . S
C1046 C1047 1.366 1_556 S
C1047 C1046 1.366 1_554 S
C1047 C1048 1.414 . S
C1047 C1050 1.499 . S
C1048 H1028 0.950 . S
C1048 C1047 1.414 . S
C1048 C1049 1.374 . S
C1049 H1029 0.950 . S
C1049 C1045 1.385 1_554 S
C1049 C1048 1.374 . S
C1050 C1047 1.499 . S
C1050 C1051 1.373 . S
C1050 C1052 1.389 . S
C1051 H1030 0.950 . S
C1051 C1050 1.373 . S
C1051 C1067 1.377 . S
C1052 C1050 1.389 . S
C1052 C1053 1.524 . S
C1052 C1066 1.377 1_554 S
C1053 C1052 1.524 . S
C1053 C1054 1.397 . S
C1053 C1058 1.363 1_554 S
C1054 H1031 0.950 . S
C1054 C1053 1.397 . S
C1054 C1055 1.334 . S
C1055 H1032 0.950 . S
C1055 C1054 1.334 . S
C1055 C1056 1.287 . S
C1056 C1055 1.287 . S
C1056 C1057 1.524 1_554 S
C1056 H1075 0.913 . S
C1057 H1033 0.950 . S
C1057 C1056 1.524 1_556 S
C1057 C1058 1.415 . S
C1058 H1034 0.950 . S
C1058 C1053 1.363 1_556 S
C1058 C1057 1.415 . S
C1059 H1035 0.951 . S
C1059 C1060 1.366 . S
C1059 C1061 1.388 . S
C1060 C1059 1.366 . S
C1060 C1064 1.385 1_554 S
C1061 H1036 0.951 . S
C1061 C1059 1.388 . S
C1061 C1062 1.385 . S
C1062 C1061 1.385 . S
C1062 C1063 1.396 1_554 S
C1062 C1065 1.498 1_554 S
C1063 H1037 0.950 . S
C1063 C1062 1.396 1_556 S
C1063 C1064 1.374 . S
C1064 H1038 0.950 . S
C1064 C1060 1.385 1_556 S
C1064 C1063 1.374 . S
C1065 C1062 1.498 1_556 S
C1065 C1066 1.374 . S
C1065 C1067 1.388 1_556 S
C1066 H1039 0.950 . S
C1066 C1052 1.377 1_556 S
C1066 C1065 1.374 . S
C1067 C1051 1.377 . S
C1067 C1065 1.388 1_554 S
C1067 C1068 1.525 . S
C1068 C1067 1.525 . S
C1068 C1069 1.393 1_554 S
C1068 C1073 1.366 . S
C1069 H1040 0.950 . S
C1069 C1068 1.393 1_556 S
C1069 C1070 1.334 . S
C1070 H1041 0.950 . S
C1070 C1069 1.334 . S
C1070 C1071 1.287 . S
C1071 C1070 1.287 . S
C1071 C1072 1.524 1_556 S
C1071 H1074 0.999 . S
C1072 H1042 0.950 . S
C1072 C1071 1.524 1_554 S
C1072 C1073 1.415 . S
C1073 H1043 0.950 . S
C1073 C1068 1.366 . S
C1073 C1072 1.415 . S
H1074 C1071 0.999 . S
H1075 C1056 0.913 . S
H1076 C1094 0.951 . S
H1077 C1096 0.951 . S
H1078 C1098 0.950 . S
H1079 C1099 0.950 . S
H1080 C1101 0.950 . S
H1081 C1104 0.950 . S
H1082 C1105 0.950 . S
H1083 C1107 0.950 . S
H1084 C1108 0.950 . S
H1085 C1109 0.951 . S
H1086 C1111 0.951 . S
H1087 C1113 0.950 . S
H1088 C1114 0.950 . S
H1089 C1116 0.950 . S
H1090 C1119 0.950 . S
H1091 C1120 0.950 . S
H1092 C1122 0.950 . S
H1093 C1123 0.950 . S
C1094 H1076 0.951 . S
C1094 C1095 1.366 . S
C1094 C1096 1.388 . S
C1095 C1094 1.366 . S
C1095 C1099 1.385 1_554 S
C1096 H1077 0.951 . S
C1096 C1094 1.388 . S
C1096 C1097 1.366 . S
C1097 C1096 1.366 . S
C1097 C1098 1.414 1_554 S
C1097 C1100 1.499 . S
C1098 H1078 0.950 . S
C1098 C1097 1.414 1_556 S
C1098 C1099 1.374 . S
C1099 H1079 0.950 . S
C1099 C1095 1.385 1_556 S
C1099 C1098 1.374 . S
C1100 C1097 1.499 . S
C1100 C1101 1.373 1_554 S
C1100 C1102 1.389 . S
C1101 H1080 0.950 . S
C1101 C1100 1.373 1_556 S
C1101 C1117 1.377 . S
C1102 C1100 1.389 . S
C1102 C1103 1.524 . S
C1102 C1116 1.377 . S
C1103 C1102 1.524 . S
C1103 C1104 1.397 . S
C1103 C1108 1.363 . S
C1104 H1081 0.950 . S
C1104 C1103 1.397 . S
C1104 C1105 1.334 . S
C1105 H1082 0.950 . S
C1105 C1104 1.334 . S
C1105 C1106 1.287 . S
C1106 C1105 1.287 . S
C1106 C1107 1.524 . S
C1106 H1125 0.913 . S
C1107 H1083 0.950 . S
C1107 C1106 1.524 . S
C1107 C1108 1.415 . S
C1108 H1084 0.950 . S
C1108 C1103 1.363 . S
C1108 C1107 1.415 . S
C1109 H1085 0.951 . S
C1109 C1110 1.366 . S
C1109 C1111 1.388 . S
C1110 C1109 1.366 . S
C1110 C1114 1.385 1_556 S
C1111 H1086 0.951 . S
C1111 C1109 1.388 . S
C1111 C1112 1.366 . S
C1112 C1111 1.366 . S
C1112 C1113 1.414 1_556 S
C1112 C1115 1.499 . S
C1113 H1087 0.950 . S
C1113 C1112 1.414 1_554 S
C1113 C1114 1.374 . S
C1114 H1088 0.950 . S
C1114 C1110 1.385 1_554 S
C1114 C1113 1.374 . S
C1115 C1112 1.499 . S
C1115 C1116 1.357 1_556 S
C1115 C1117 1.404 . S
C1116 H1089 0.950 . S
C1116 C1102 1.377 . S
C1116 C1115 1.357 1_554 S
C1117 C1101 1.377 . S
C1117 C1115 1.404 . S
C1117 C1118 1.524 . S
C1118 C1117 1.524 . S
C1118 C1119 1.397 . S
C1118 C1123 1.363 . S
C1119 H1090 0.950 . S
C1119 C1118 1.397 . S
C1119 C1120 1.334 . S
C1120 H1091 0.950 . S
C1120 C1119 1.334 . S
C1120 C1121 1.287 . S
C1121 C1120 1.287 . S
C1121 C1122 1.524 . S
C1121 H1124 0.999 . S
C1122 H1092 0.950 . S
C1122 C1121 1.524 . S
C1122 C1123 1.415 . S
C1123 H1093 0.950 . S
C1123 C1118 1.363 . S
C1123 C1122 1.415 . S
H1124 C1121 0.999 . S
H1125 C1106 0.913 . S
H1126 C1144 0.951 . S
H1127 C1146 0.951 . S
H1128 C1148 0.950 . S
H1129 C1149 0.950 . S
H1130 C1151 0.950 . S
H1131 C1154 0.950 . S
H1132 C1155 0.950 . S
H1133 C1157 0.950 . S
H1134 C1158 0.950 . S
H1135 C1159 0.951 . S
H1136 C1161 0.951 . S
H1137 C1163 0.950 . S
H1138 C1164 0.950 . S
H1139 C1166 0.950 . S
H1140 C1169 0.950 . S
H1141 C1170 0.950 . S
H1142 C1172 0.950 . S
H1143 C1173 0.950 . S
C1144 H1126 0.951 . S
C1144 C1145 1.366 . S
C1144 C1146 1.388 . S
C1145 C1144 1.366 . S
C1145 C1149 1.385 1_556 S
C1146 H1127 0.951 . S
C1146 C1144 1.388 . S
C1146 C1147 1.366 . S
C1147 C1146 1.366 . S
C1147 C1148 1.414 1_556 S
C1147 C1150 1.499 1_556 S
C1148 H1128 0.950 . S
C1148 C1147 1.414 1_554 S
C1148 C1149 1.374 . S
C1149 H1129 0.950 . S
C1149 C1145 1.385 1_554 S
C1149 C1148 1.374 . S
C1150 C1147 1.499 1_554 S
C1150 C1151 1.374 . S
C1150 C1152 1.389 1_554 S
C1151 H1130 0.950 . S
C1151 C1150 1.374 . S
C1151 C1167 1.377 . S
C1152 C1150 1.389 1_556 S
C1152 C1153 1.524 . S
C1152 C1166 1.377 . S
C1153 C1152 1.524 . S
C1153 C1154 1.397 . S
C1153 C1158 1.363 . S
C1154 H1131 0.950 . S
C1154 C1153 1.397 . S
C1154 C1155 1.334 . S
C1155 H1132 0.950 . S
C1155 C1154 1.334 . S
C1155 C1156 1.287 . S
C1156 C1155 1.287 . S
C1156 C1157 1.524 . S
C1156 H1175 0.913 . S
C1157 H1133 0.950 . S
C1157 C1156 1.524 . S
C1157 C1158 1.415 . S
C1158 H1134 0.950 . S
C1158 C1153 1.363 . S
C1158 C1157 1.415 . S
C1159 H1135 0.951 . S
C1159 C1160 1.366 . S
C1159 C1161 1.388 . S
C1160 C1159 1.366 . S
C1160 C1164 1.385 1_554 S
C1161 H1136 0.951 . S
C1161 C1159 1.388 . S
C1161 C1162 1.366 . S
C1162 C1161 1.366 . S
C1162 C1163 1.414 1_554 S
C1162 C1165 1.499 . S
C1163 H1137 0.950 . S
C1163 C1162 1.414 1_556 S
C1163 C1164 1.374 . S
C1164 H1138 0.950 . S
C1164 C1160 1.385 1_556 S
C1164 C1163 1.374 . S
C1165 C1162 1.499 . S
C1165 C1166 1.373 1_554 S
C1165 C1167 1.389 . S
C1166 H1139 0.950 . S
C1166 C1152 1.377 . S
C1166 C1165 1.373 1_556 S
C1167 C1151 1.377 . S
C1167 C1165 1.389 . S
C1167 C1168 1.524 . S
C1168 C1167 1.524 . S
C1168 C1169 1.397 . S
C1168 C1173 1.363 . S
C1169 H1140 0.950 . S
C1169 C1168 1.397 . S
C1169 C1170 1.334 . S
C1170 H1141 0.950 . S
C1170 C1169 1.334 . S
C1170 C1171 1.287 . S
C1171 C1170 1.287 . S
C1171 C1172 1.524 . S
C1171 H1174 0.999 . S
C1172 H1142 0.950 . S
C1172 C1171 1.524 . S
C1172 C1173 1.415 . S
C1173 H1143 0.950 . S
C1173 C1168 1.363 . S
C1173 C1172 1.415 . S
H1174 C1171 0.999 . S
H1175 C1156 0.913 . S
H1176 C1194 0.951 . S
H1177 C1196 0.951 . S
H1178 C1198 0.950 . S
H1179 C1199 0.950 . S
H1180 C1201 0.950 . S
H1181 C1204 0.950 . S
H1182 C1205 0.950 . S
H1183 C1207 0.950 . S
H1184 C1208 0.950 . S
H1185 C1209 0.951 . S
H1186 C1211 0.951 . S
H1187 C1213 0.950 . S
H1188 C1214 0.950 . S
H1189 C1216 0.950 . S
H1190 C1219 0.950 . S
H1191 C1220 0.950 . S
H1192 C1222 0.950 . S
H1193 C1223 0.950 . S
C1194 H1176 0.951 . S
C1194 C1195 1.366 . S
C1194 C1196 1.388 . S
C1195 C1194 1.366 . S
C1195 C1199 1.385 . S
C1196 H1177 0.951 . S
C1196 C1194 1.388 . S
C1196 C1197 1.366 . S
C1197 C1196 1.366 . S
C1197 C1198 1.414 . S
C1197 C1200 1.499 . S
C1198 H1178 0.950 . S
C1198 C1197 1.414 . S
C1198 C1199 1.374 . S
C1199 H1179 0.950 . S
C1199 C1195 1.385 . S
C1199 C1198 1.374 . S
C1200 C1197 1.499 . S
C1200 C1201 1.373 . S
C1200 C1202 1.389 . S
C1201 H1180 0.950 . S
C1201 C1200 1.373 . S
C1201 C1217 1.377 . S
C1202 C1200 1.389 . S
C1202 C1203 1.524 . S
C1202 C1216 1.377 . S
C1203 C1202 1.524 . S
C1203 C1204 1.397 . S
C1203 C1208 1.363 . S
C1204 H1181 0.950 . S
C1204 C1203 1.397 . S
C1204 C1205 1.334 . S
C1205 H1182 0.950 . S
C1205 C1204 1.334 . S
C1205 C1206 1.287 . S
C1206 C1205 1.287 . S
C1206 C1207 1.524 . S
C1206 H1225 0.913 . S
C1207 H1183 0.950 . S
C1207 C1206 1.524 . S
C1207 C1208 1.415 . S
C1208 H1184 0.950 . S
C1208 C1203 1.363 . S
C1208 C1207 1.415 . S
C1209 H1185 0.951 . S
C1209 C1210 1.366 . S
C1209 C1211 1.388 . S
C1210 C1209 1.366 . S
C1210 C1214 1.385 . S
C1211 H1186 0.951 . S
C1211 C1209 1.388 . S
C1211 C1212 1.366 . S
C1212 C1211 1.366 . S
C1212 C1213 1.414 . S
C1212 C1215 1.499 . S
C1213 H1187 0.950 . S
C1213 C1212 1.414 . S
C1213 C1214 1.374 . S
C1214 H1188 0.950 . S
C1214 C1210 1.385 . S
C1214 C1213 1.374 . S
C1215 C1212 1.499 . S
C1215 C1216 1.373 . S
C1215 C1217 1.389 . S
C1216 H1189 0.950 . S
C1216 C1202 1.377 . S
C1216 C1215 1.373 . S
C1217 C1201 1.377 . S
C1217 C1215 1.389 . S
C1217 C1218 1.524 . S
C1218 C1217 1.524 . S
C1218 C1219 1.397 . S
C1218 C1223 1.363 . S
C1219 H1190 0.950 . S
C1219 C1218 1.397 . S
C1219 C1220 1.334 . S
C1220 H1191 0.950 . S
C1220 C1219 1.334 . S
C1220 C1221 1.287 . S
C1221 C1220 1.287 . S
C1221 C1222 1.524 . S
C1221 H1224 0.999 . S
C1222 H1192 0.950 . S
C1222 C1221 1.524 . S
C1222 C1223 1.415 . S
C1223 H1193 0.950 . S
C1223 C1218 1.363 . S
C1223 C1222 1.415 . S
H1224 C1221 0.999 . S
H1225 C1206 0.913 . S
H1226 C1244 0.951 . S
H1227 C1246 0.951 . S
H1228 C1248 0.950 . S
H1229 C1249 0.950 . S
H1230 C1251 0.950 . S
H1231 C1254 0.950 . S
H1232 C1255 0.950 . S
H1233 C1257 0.950 . S
H1234 C1258 0.950 . S
H1235 C1259 0.951 . S
H1236 C1261 0.951 . S
H1237 C1263 0.950 . S
H1238 C1264 0.950 . S
H1239 C1266 0.950 . S
H1240 C1269 0.950 . S
H1241 C1270 0.950 . S
H1242 C1272 0.950 . S
H1243 C1273 0.950 . S
C1244 H1226 0.951 . S
C1244 C1245 1.366 . S
C1244 C1246 1.388 . S
C1245 C1244 1.366 . S
C1245 C1249 1.385 . S
C1246 H1227 0.951 . S
C1246 C1244 1.388 . S
C1246 C1247 1.366 . S
C1247 C1246 1.366 . S
C1247 C1248 1.414 . S
C1247 C1250 1.499 . S
C1248 H1228 0.950 . S
C1248 C1247 1.414 . S
C1248 C1249 1.374 . S
C1249 H1229 0.950 . S
C1249 C1245 1.385 . S
C1249 C1248 1.374 . S
C1250 C1247 1.499 . S
C1250 C1251 1.373 . S
C1250 C1252 1.389 . S
C1251 H1230 0.950 . S
C1251 C1250 1.373 . S
C1251 C1267 1.377 . S
C1252 C1250 1.389 . S
C1252 C1253 1.524 . S
C1252 C1266 1.377 . S
C1253 C1252 1.524 . S
C1253 C1254 1.397 . S
C1253 C1258 1.363 . S
C1254 H1231 0.950 . S
C1254 C1253 1.397 . S
C1254 C1255 1.334 . S
C1255 H1232 0.950 . S
C1255 C1254 1.334 . S
C1255 C1256 1.287 . S
C1256 C1255 1.287 . S
C1256 C1257 1.524 . S
C1256 H1275 0.913 . S
C1257 H1233 0.950 . S
C1257 C1256 1.524 . S
C1257 C1258 1.415 . S
C1258 H1234 0.950 . S
C1258 C1253 1.363 . S
C1258 C1257 1.415 . S
C1259 H1235 0.951 . S
C1259 C1260 1.366 . S
C1259 C1261 1.388 . S
C1260 C1259 1.366 . S
C1260 C1264 1.385 . S
C1261 H1236 0.951 . S
C1261 C1259 1.388 . S
C1261 C1262 1.366 . S
C1262 C1261 1.366 . S
C1262 C1263 1.414 . S
C1262 C1265 1.499 . S
C1263 H1237 0.950 . S
C1263 C1262 1.414 . S
C1263 C1264 1.374 . S
C1264 H1238 0.950 . S
C1264 C1260 1.385 . S
C1264 C1263 1.374 . S
C1265 C1262 1.499 . S
C1265 C1266 1.373 . S
C1265 C1267 1.389 . S
C1266 H1239 0.950 . S
C1266 C1252 1.377 . S
C1266 C1265 1.373 . S
C1267 C1251 1.377 . S
C1267 C1265 1.389 . S
C1267 C1268 1.524 . S
C1268 C1267 1.524 . S
C1268 C1269 1.397 . S
C1268 C1273 1.363 . S
C1269 H1240 0.950 . S
C1269 C1268 1.397 . S
C1269 C1270 1.334 . S
C1270 H1241 0.950 . S
C1270 C1269 1.334 . S
C1270 C1271 1.287 . S
C1271 C1270 1.287 . S
C1271 C1272 1.524 . S
C1271 H1274 0.999 . S
C1272 H1242 0.950 . S
C1272 C1271 1.524 . S
C1272 C1273 1.415 . S
C1273 H1243 0.950 . S
C1273 C1268 1.363 . S
C1273 C1272 1.415 . S
H1274 C1271 0.999 . S
H1275 C1256 0.913 . S
H1276 C1294 0.951 . S
H1277 C1296 0.951 . S
H1278 C1298 0.950 . S
H1279 C1299 0.950 . S
H1280 C1301 0.950 . S
H1281 C1304 0.950 . S
H1282 C1305 0.950 . S
H1283 C1307 0.950 . S
H1284 C1308 0.950 . S
H1285 C1309 0.951 . S
H1286 C1311 0.951 . S
H1287 C1313 0.950 . S
H1288 C1314 0.950 . S
H1289 C1316 0.950 . S
H1290 C1319 0.950 . S
H1291 C1320 0.950 . S
H1292 C1322 0.950 . S
H1293 C1323 0.950 . S
C1294 H1276 0.951 . S
C1294 C1295 1.366 . S
C1294 C1296 1.388 . S
C1295 C1294 1.366 . S
C1295 C1299 1.385 . S
C1296 H1277 0.951 . S
C1296 C1294 1.388 . S
C1296 C1297 1.366 . S
C1297 C1296 1.366 . S
C1297 C1298 1.414 . S
C1297 C1300 1.499 . S
C1298 H1278 0.950 . S
C1298 C1297 1.414 . S
C1298 C1299 1.374 . S
C1299 H1279 0.950 . S
C1299 C1295 1.385 . S
C1299 C1298 1.374 . S
C1300 C1297 1.499 . S
C1300 C1301 1.373 . S
C1300 C1302 1.389 . S
C1301 H1280 0.950 . S
C1301 C1300 1.373 . S
C1301 C1317 1.377 . S
C1302 C1300 1.389 . S
C1302 C1303 1.524 . S
C1302 C1316 1.377 . S
C1303 C1302 1.524 . S
C1303 C1304 1.397 . S
C1303 C1308 1.363 . S
C1304 H1281 0.950 . S
C1304 C1303 1.397 . S
C1304 C1305 1.334 . S
C1305 H1282 0.950 . S
C1305 C1304 1.334 . S
C1305 C1306 1.287 . S
C1306 C1305 1.287 . S
C1306 C1307 1.524 . S
C1306 H1325 0.913 . S
C1307 H1283 0.950 . S
C1307 C1306 1.524 . S
C1307 C1308 1.415 . S
C1308 H1284 0.950 . S
C1308 C1303 1.363 . S
C1308 C1307 1.415 . S
C1309 H1285 0.951 . S
C1309 C1310 1.366 . S
C1309 C1311 1.388 . S
C1310 C1309 1.366 . S
C1310 C1314 1.385 . S
C1311 H1286 0.951 . S
C1311 C1309 1.388 . S
C1311 C1312 1.366 . S
C1312 C1311 1.366 . S
C1312 C1313 1.414 . S
C1312 C1315 1.499 . S
C1313 H1287 0.950 . S
C1313 C1312 1.414 . S
C1313 C1314 1.374 . S
C1314 H1288 0.950 . S
C1314 C1310 1.385 . S
C1314 C1313 1.374 . S
C1315 C1312 1.499 . S
C1315 C1316 1.373 . S
C1315 C1317 1.389 . S
C1316 H1289 0.950 . S
C1316 C1302 1.377 . S
C1316 C1315 1.373 . S
C1317 C1301 1.377 . S
C1317 C1315 1.389 . S
C1317 C1318 1.524 . S
C1318 C1317 1.524 . S
C1318 C1319 1.397 . S
C1318 C1323 1.363 . S
C1319 H1290 0.950 . S
C1319 C1318 1.397 . S
C1319 C1320 1.334 . S
C1320 H1291 0.950 . S
C1320 C1319 1.334 . S
C1320 C1321 1.287 . S
C1321 C1320 1.287 . S
C1321 C1322 1.524 . S
C1321 H1324 0.999 . S
C1322 H1292 0.950 . S
C1322 C1321 1.524 . S
C1322 C1323 1.415 . S
C1323 H1293 0.950 . S
C1323 C1318 1.363 . S
C1323 C1322 1.415 . S
H1324 C1321 0.999 . S
H1325 C1306 0.913 . S
H1326 C1344 0.951 . S
H1327 C1346 0.951 . S
H1328 C1348 0.950 . S
H1329 C1349 0.950 . S
H1330 C1351 0.950 . S
H1331 C1354 0.950 . S
H1332 C1355 0.950 . S
H1333 C1357 0.950 . S
H1334 C1358 0.950 . S
H1335 C1359 0.951 . S
H1336 C1361 0.951 . S
H1337 C1363 0.950 . S
H1338 C1364 0.950 . S
H1339 C1366 0.950 . S
H1340 C1369 0.950 . S
H1341 C1370 0.950 . S
H1342 C1372 0.950 . S
H1343 C1373 0.950 . S
C1344 H1326 0.951 . S
C1344 C1345 1.366 . S
C1344 C1346 1.388 . S
C1345 C1344 1.366 . S
C1345 C1349 1.385 . S
C1346 H1327 0.951 . S
C1346 C1344 1.388 . S
C1346 C1347 1.366 . S
C1347 C1346 1.366 . S
C1347 C1348 1.414 . S
C1347 C1350 1.499 . S
C1348 H1328 0.950 . S
C1348 C1347 1.414 . S
C1348 C1349 1.374 . S
C1349 H1329 0.950 . S
C1349 C1345 1.385 . S
C1349 C1348 1.374 . S
C1350 C1347 1.499 . S
C1350 C1351 1.373 . S
C1350 C1352 1.389 . S
C1351 H1330 0.950 . S
C1351 C1350 1.373 . S
C1351 C1367 1.377 . S
C1352 C1350 1.389 . S
C1352 C1353 1.524 . S
C1352 C1366 1.377 . S
C1353 C1352 1.524 . S
C1353 C1354 1.397 . S
C1353 C1358 1.363 . S
C1354 H1331 0.950 . S
C1354 C1353 1.397 . S
C1354 C1355 1.334 . S
C1355 H1332 0.950 . S
C1355 C1354 1.334 . S
C1355 C1356 1.287 . S
C1356 C1355 1.287 . S
C1356 C1357 1.524 . S
C1356 H1375 0.913 . S
C1357 H1333 0.950 . S
C1357 C1356 1.524 . S
C1357 C1358 1.415 . S
C1358 H1334 0.950 . S
C1358 C1353 1.363 . S
C1358 C1357 1.415 . S
C1359 H1335 0.951 . S
C1359 C1360 1.366 . S
C1359 C1361 1.388 . S
C1360 C1359 1.366 . S
C1360 C1364 1.385 . S
C1361 H1336 0.951 . S
C1361 C1359 1.388 . S
C1361 C1362 1.366 . S
C1362 C1361 1.366 . S
C1362 C1363 1.414 . S
C1362 C1365 1.499 . S
C1363 H1337 0.950 . S
C1363 C1362 1.414 . S
C1363 C1364 1.374 . S
C1364 H1338 0.950 . S
C1364 C1360 1.385 . S
C1364 C1363 1.374 . S
C1365 C1362 1.499 . S
C1365 C1366 1.373 . S
C1365 C1367 1.389 . S
C1366 H1339 0.950 . S
C1366 C1352 1.377 . S
C1366 C1365 1.373 . S
C1367 C1351 1.377 . S
C1367 C1365 1.389 . S
C1367 C1368 1.524 . S
C1368 C1367 1.524 . S
C1368 C1369 1.397 . S
C1368 C1373 1.363 . S
C1369 H1340 0.950 . S
C1369 C1368 1.397 . S
C1369 C1370 1.334 . S
C1370 H1341 0.950 . S
C1370 C1369 1.334 . S
C1370 C1371 1.287 . S
C1371 C1370 1.287 . S
C1371 C1372 1.524 . S
C1371 H1374 0.999 . S
C1372 H1342 0.950 . S
C1372 C1371 1.524 . S
C1372 C1373 1.415 . S
C1373 H1343 0.950 . S
C1373 C1368 1.363 . S
C1373 C1372 1.415 . S
H1374 C1371 0.999 . S
H1375 C1356 0.913 . S
H1376 C1394 0.951 . S
H1377 C1396 0.951 . S
H1378 C1398 0.950 . S
H1379 C1399 0.950 . S
H1380 C1401 0.950 . S
H1381 C1404 0.950 . S
H1382 C1405 0.950 . S
H1383 C1407 0.950 . S
H1384 C1408 0.950 . S
H1385 C1409 0.951 . S
H1386 C1411 0.951 . S
H1387 C1413 0.950 . S
H1388 C1414 0.950 . S
H1389 C1416 0.950 . S
H1390 C1419 0.950 . S
H1391 C1420 0.950 . S
H1392 C1422 0.950 . S
H1393 C1423 0.950 . S
C1394 H1376 0.951 . S
C1394 C1395 1.366 . S
C1394 C1396 1.388 . S
C1395 C1394 1.366 . S
C1395 C1399 1.385 . S
C1396 H1377 0.951 . S
C1396 C1394 1.388 . S
C1396 C1397 1.366 . S
C1397 C1396 1.366 . S
C1397 C1398 1.414 . S
C1397 C1400 1.499 . S
C1398 H1378 0.950 . S
C1398 C1397 1.414 . S
C1398 C1399 1.374 . S
C1399 H1379 0.950 . S
C1399 C1395 1.385 . S
C1399 C1398 1.374 . S
C1400 C1397 1.499 . S
C1400 C1401 1.373 . S
C1400 C1402 1.389 . S
C1401 H1380 0.950 . S
C1401 C1400 1.373 . S
C1401 C1417 1.377 . S
C1402 C1400 1.389 . S
C1402 C1403 1.524 . S
C1402 C1416 1.377 . S
C1403 C1402 1.524 . S
C1403 C1404 1.397 . S
C1403 C1408 1.363 . S
C1404 H1381 0.950 . S
C1404 C1403 1.397 . S
C1404 C1405 1.334 . S
C1405 H1382 0.950 . S
C1405 C1404 1.334 . S
C1405 C1406 1.287 . S
C1406 C1405 1.287 . S
C1406 C1407 1.524 . S
C1406 H1425 0.913 . S
C1407 H1383 0.950 . S
C1407 C1406 1.524 . S
C1407 C1408 1.415 . S
C1408 H1384 0.950 . S
C1408 C1403 1.363 . S
C1408 C1407 1.415 . S
C1409 H1385 0.951 . S
C1409 C1410 1.366 . S
C1409 C1411 1.388 . S
C1410 C1409 1.366 . S
C1410 C1414 1.385 . S
C1411 H1386 0.951 . S
C1411 C1409 1.388 . S
C1411 C1412 1.366 . S
C1412 C1411 1.366 . S
C1412 C1413 1.414 . S
C1412 C1415 1.499 . S
C1413 H1387 0.950 . S
C1413 C1412 1.414 . S
C1413 C1414 1.374 . S
C1414 H1388 0.950 . S
C1414 C1410 1.385 . S
C1414 C1413 1.374 . S
C1415 C1412 1.499 . S
C1415 C1416 1.373 . S
C1415 C1417 1.389 . S
C1416 H1389 0.950 . S
C1416 C1402 1.377 . S
C1416 C1415 1.373 . S
C1417 C1401 1.377 . S
C1417 C1415 1.389 . S
C1417 C1418 1.524 . S
C1418 C1417 1.524 . S
C1418 C1419 1.397 . S
C1418 C1423 1.363 . S
C1419 H1390 0.950 . S
C1419 C1418 1.397 . S
C1419 C1420 1.334 . S
C1420 H1391 0.950 . S
C1420 C1419 1.334 . S
C1420 C1421 1.287 . S
C1421 C1420 1.287 . S
C1421 C1422 1.524 . S
C1421 H1424 0.999 . S
C1422 H1392 0.950 . S
C1422 C1421 1.524 . S
C1422 C1423 1.415 . S
C1423 H1393 0.950 . S
C1423 C1418 1.363 . S
C1423 C1422 1.415 . S
H1424 C1421 0.999 . S
H1425 C1406 0.913 . S
H1426 C1444 0.951 . S
H1427 C1446 0.951 . S
H1428 C1448 0.950 . S
H1429 C1449 0.950 . S
H1430 C1451 0.950 . S
H1431 C1454 0.950 . S
H1432 C1455 0.950 . S
H1433 C1457 0.950 . S
H1434 C1458 0.950 . S
H1435 C1459 0.951 . S
H1436 C1461 0.951 . S
H1437 C1463 0.950 . S
H1438 C1464 0.950 . S
H1439 C1466 0.950 . S
H1440 C1469 0.950 . S
H1441 C1470 0.950 . S
H1442 C1472 0.950 . S
H1443 C1473 0.950 . S
C1444 H1426 0.951 . S
C1444 C1445 1.366 . S
C1444 C1446 1.388 . S
C1445 C1444 1.366 . S
C1445 C1449 1.385 . S
C1446 H1427 0.951 . S
C1446 C1444 1.388 . S
C1446 C1447 1.366 . S
C1447 C1446 1.366 . S
C1447 C1448 1.414 . S
C1447 C1450 1.499 . S
C1448 H1428 0.950 . S
C1448 C1447 1.414 . S
C1448 C1449 1.374 . S
C1449 H1429 0.950 . S
C1449 C1445 1.385 . S
C1449 C1448 1.374 . S
C1450 C1447 1.499 . S
C1450 C1451 1.373 . S
C1450 C1452 1.389 . S
C1451 H1430 0.950 . S
C1451 C1450 1.373 . S
C1451 C1467 1.377 . S
C1452 C1450 1.389 . S
C1452 C1453 1.524 . S
C1452 C1466 1.377 . S
C1453 C1452 1.524 . S
C1453 C1454 1.397 . S
C1453 C1458 1.363 . S
C1454 H1431 0.950 . S
C1454 C1453 1.397 . S
C1454 C1455 1.334 . S
C1455 H1432 0.950 . S
C1455 C1454 1.334 . S
C1455 C1456 1.287 . S
C1456 C1455 1.287 . S
C1456 C1457 1.524 . S
C1456 H1475 0.913 . S
C1457 H1433 0.950 . S
C1457 C1456 1.524 . S
C1457 C1458 1.415 . S
C1458 H1434 0.950 . S
C1458 C1453 1.363 . S
C1458 C1457 1.415 . S
C1459 H1435 0.951 . S
C1459 C1460 1.366 . S
C1459 C1461 1.388 . S
C1460 C1459 1.366 . S
C1460 C1464 1.385 . S
C1461 H1436 0.951 . S
C1461 C1459 1.388 . S
C1461 C1462 1.366 . S
C1462 C1461 1.366 . S
C1462 C1463 1.414 . S
C1462 C1465 1.499 . S
C1463 H1437 0.950 . S
C1463 C1462 1.414 . S
C1463 C1464 1.374 . S
C1464 H1438 0.950 . S
C1464 C1460 1.385 . S
C1464 C1463 1.374 . S
C1465 C1462 1.499 . S
C1465 C1466 1.373 . S
C1465 C1467 1.389 . S
C1466 H1439 0.950 . S
C1466 C1452 1.377 . S
C1466 C1465 1.373 . S
C1467 C1451 1.377 . S
C1467 C1465 1.389 . S
C1467 C1468 1.524 . S
C1468 C1467 1.524 . S
C1468 C1469 1.397 . S
C1468 C1473 1.363 . S
C1469 H1440 0.950 . S
C1469 C1468 1.397 . S
C1469 C1470 1.334 . S
C1470 H1441 0.950 . S
C1470 C1469 1.334 . S
C1470 C1471 1.287 . S
C1471 C1470 1.287 . S
C1471 C1472 1.524 . S
C1471 H1474 0.999 . S
C1472 H1442 0.950 . S
C1472 C1471 1.524 . S
C1472 C1473 1.415 . S
C1473 H1443 0.950 . S
C1473 C1468 1.363 . S
C1473 C1472 1.415 . S
H1474 C1471 0.999 . S
H1475 C1456 0.913 . S
H1476 C1494 0.951 . S
H1477 C1496 0.951 . S
H1478 C1498 0.950 . S
H1479 C1499 0.950 . S
H1480 C1501 0.950 . S
H1481 C1504 0.950 . S
H1482 C1505 0.950 . S
H1483 C1507 0.950 . S
H1484 C1508 0.950 . S
H1485 C1509 0.951 . S
H1486 C1511 0.951 . S
H1487 C1513 0.950 . S
H1488 C1514 0.950 . S
H1489 C1516 0.950 . S
H1490 C1519 0.950 . S
H1491 C1520 0.950 . S
H1492 C1522 0.950 . S
H1493 C1523 0.950 . S
C1494 H1476 0.951 . S
C1494 C1495 1.366 . S
C1494 C1496 1.388 . S
C1495 C1494 1.366 . S
C1495 C1499 1.385 . S
C1496 H1477 0.951 . S
C1496 C1494 1.388 . S
C1496 C1497 1.366 . S
C1497 C1496 1.366 . S
C1497 C1498 1.414 . S
C1497 C1500 1.499 . S
C1498 H1478 0.950 . S
C1498 C1497 1.414 . S
C1498 C1499 1.374 . S
C1499 H1479 0.950 . S
C1499 C1495 1.385 . S
C1499 C1498 1.374 . S
C1500 C1497 1.499 . S
C1500 C1501 1.373 . S
C1500 C1502 1.389 . S
C1501 H1480 0.950 . S
C1501 C1500 1.373 . S
C1501 C1517 1.377 . S
C1502 C1500 1.389 . S
C1502 C1503 1.524 . S
C1502 C1516 1.377 . S
C1503 C1502 1.524 . S
C1503 C1504 1.397 . S
C1503 C1508 1.363 . S
C1504 H1481 0.950 . S
C1504 C1503 1.397 . S
C1504 C1505 1.334 . S
C1505 H1482 0.950 . S
C1505 C1504 1.334 . S
C1505 C1506 1.287 . S
C1506 C1505 1.287 . S
C1506 C1507 1.524 . S
C1506 H1525 0.913 . S
C1507 H1483 0.950 . S
C1507 C1506 1.524 . S
C1507 C1508 1.415 . S
C1508 H1484 0.950 . S
C1508 C1503 1.363 . S
C1508 C1507 1.415 . S
C1509 H1485 0.951 . S
C1509 C1510 1.366 . S
C1509 C1511 1.388 . S
C1510 C1509 1.366 . S
C1510 C1514 1.385 . S
C1511 H1486 0.951 . S
C1511 C1509 1.388 . S
C1511 C1512 1.366 . S
C1512 C1511 1.366 . S
C1512 C1513 1.414 . S
C1512 C1515 1.499 . S
C1513 H1487 0.950 . S
C1513 C1512 1.414 . S
C1513 C1514 1.374 . S
C1514 H1488 0.950 . S
C1514 C1510 1.385 . S
C1514 C1513 1.374 . S
C1515 C1512 1.499 . S
C1515 C1516 1.373 . S
C1515 C1517 1.389 . S
C1516 H1489 0.950 . S
C1516 C1502 1.377 . S
C1516 C1515 1.373 . S
C1517 C1501 1.377 . S
C1517 C1515 1.389 . S
C1517 C1518 1.524 . S
C1518 C1517 1.524 . S
C1518 C1519 1.397 . S
C1518 C1523 1.363 . S
C1519 H1490 0.950 . S
C1519 C1518 1.397 . S
C1519 C1520 1.334 . S
C1520 H1491 0.950 . S
C1520 C1519 1.334 . S
C1520 C1521 1.287 . S
C1521 C1520 1.287 . S
C1521 C1522 1.524 . S
C1521 H1524 0.999 . S
C1522 H1492 0.950 . S
C1522 C1521 1.524 . S
C1522 C1523 1.415 . S
C1523 H1493 0.950 . S
C1523 C1518 1.363 . S
C1523 C1522 1.415 . S
H1524 C1521 0.999 . S
H1525 C1506 0.913 . S
H1526 C1544 0.951 . S
H1527 C1546 0.951 . S
H1528 C1548 0.950 . S
H1529 C1549 0.950 . S
H1530 C1551 0.950 . S
H1531 C1554 0.950 . S
H1532 C1555 0.950 . S
H1533 C1557 0.950 . S
H1534 C1558 0.950 . S
H1535 C1559 0.951 . S
H1536 C1561 0.951 . S
H1537 C1563 0.950 . S
H1538 C1564 0.950 . S
H1539 C1566 0.950 . S
H1540 C1569 0.950 . S
H1541 C1570 0.950 . S
H1542 C1572 0.950 . S
H1543 C1573 0.950 . S
C1544 H1526 0.951 . S
C1544 C1545 1.366 . S
C1544 C1546 1.388 . S
C1545 C1544 1.366 . S
C1545 C1549 1.385 . S
C1546 H1527 0.951 . S
C1546 C1544 1.388 . S
C1546 C1547 1.366 . S
C1547 C1546 1.366 . S
C1547 C1548 1.414 . S
C1547 C1550 1.499 . S
C1548 H1528 0.950 . S
C1548 C1547 1.414 . S
C1548 C1549 1.374 . S
C1549 H1529 0.950 . S
C1549 C1545 1.385 . S
C1549 C1548 1.374 . S
C1550 C1547 1.499 . S
C1550 C1551 1.373 . S
C1550 C1552 1.389 . S
C1551 H1530 0.950 . S
C1551 C1550 1.373 . S
C1551 C1567 1.377 . S
C1552 C1550 1.389 . S
C1552 C1553 1.524 . S
C1552 C1566 1.377 . S
C1553 C1552 1.524 . S
C1553 C1554 1.397 . S
C1553 C1558 1.363 . S
C1554 H1531 0.950 . S
C1554 C1553 1.397 . S
C1554 C1555 1.334 . S
C1555 H1532 0.950 . S
C1555 C1554 1.334 . S
C1555 C1556 1.287 . S
C1556 C1555 1.287 . S
C1556 C1557 1.524 . S
C1556 H1575 0.913 . S
C1557 H1533 0.950 . S
C1557 C1556 1.524 . S
C1557 C1558 1.415 . S
C1558 H1534 0.950 . S
C1558 C1553 1.363 . S
C1558 C1557 1.415 . S
C1559 H1535 0.951 . S
C1559 C1560 1.366 . S
C1559 C1561 1.388 . S
C1560 C1559 1.366 . S
C1560 C1564 1.385 . S
C1561 H1536 0.951 . S
C1561 C1559 1.388 . S
C1561 C1562 1.366 . S
C1562 C1561 1.366 . S
C1562 C1563 1.414 . S
C1562 C1565 1.499 . S
C1563 H1537 0.950 . S
C1563 C1562 1.414 . S
C1563 C1564 1.374 . S
C1564 H1538 0.950 . S
C1564 C1560 1.385 . S
C1564 C1563 1.374 . S
C1565 C1562 1.499 . S
C1565 C1566 1.373 . S
C1565 C1567 1.389 . S
C1566 H1539 0.950 . S
C1566 C1552 1.377 . S
C1566 C1565 1.373 . S
C1567 C1551 1.377 . S
C1567 C1565 1.389 . S
C1567 C1568 1.524 . S
C1568 C1567 1.524 . S
C1568 C1569 1.397 . S
C1568 C1573 1.363 . S
C1569 H1540 0.950 . S
C1569 C1568 1.397 . S
C1569 C1570 1.334 . S
C1570 H1541 0.950 . S
C1570 C1569 1.334 . S
C1570 C1571 1.287 . S
C1571 C1570 1.287 . S
C1571 C1572 1.524 . S
C1571 H1574 0.999 . S
C1572 H1542 0.950 . S
C1572 C1571 1.524 . S
C1572 C1573 1.415 . S
C1573 H1543 0.950 . S
C1573 C1568 1.363 . S
C1573 C1572 1.415 . S
H1574 C1571 0.999 . S
H1575 C1556 0.913 . S
H1576 C1594 0.951 . S
H1577 C1596 0.951 . S
H1578 C1598 0.950 . S
H1579 C1599 0.950 . S
H1580 C1601 0.950 . S
H1581 C1604 0.950 . S
H1582 C1605 0.950 . S
H1583 C1607 0.950 . S
H1584 C1608 0.950 . S
H1585 C1609 0.951 . S
H1586 C1611 0.951 . S
H1587 C1613 0.950 . S
H1588 C1614 0.950 . S
H1589 C1616 0.950 . S
H1590 C1619 0.950 . S
H1591 C1620 0.950 . S
H1592 C1622 0.950 . S
H1593 C1623 0.950 . S
C1594 H1576 0.951 . S
C1594 C1595 1.366 . S
C1594 C1596 1.388 . S
C1595 C1594 1.366 . S
C1595 C1599 1.385 . S
C1596 H1577 0.951 . S
C1596 C1594 1.388 . S
C1596 C1597 1.366 . S
C1597 C1596 1.366 . S
C1597 C1598 1.414 . S
C1597 C1600 1.499 . S
C1598 H1578 0.950 . S
C1598 C1597 1.414 . S
C1598 C1599 1.374 . S
C1599 H1579 0.950 . S
C1599 C1595 1.385 . S
C1599 C1598 1.374 . S
C1600 C1597 1.499 . S
C1600 C1601 1.373 . S
C1600 C1602 1.389 . S
C1601 H1580 0.950 . S
C1601 C1600 1.373 . S
C1601 C1617 1.377 . S
C1602 C1600 1.389 . S
C1602 C1603 1.524 . S
C1602 C1616 1.377 . S
C1603 C1602 1.524 . S
C1603 C1604 1.397 . S
C1603 C1608 1.363 . S
C1604 H1581 0.950 . S
C1604 C1603 1.397 . S
C1604 C1605 1.334 . S
C1605 H1582 0.950 . S
C1605 C1604 1.334 . S
C1605 C1606 1.287 . S
C1606 C1605 1.287 . S
C1606 C1607 1.524 . S
C1606 H1625 0.913 . S
C1607 H1583 0.950 . S
C1607 C1606 1.524 . S
C1607 C1608 1.415 . S
C1608 H1584 0.950 . S
C1608 C1603 1.363 . S
C1608 C1607 1.415 . S
C1609 H1585 0.951 . S
C1609 C1610 1.366 . S
C1609 C1611 1.388 . S
C1610 C1609 1.366 . S
C1610 C1614 1.385 . S
C1611 H1586 0.951 . S
C1611 C1609 1.388 . S
C1611 C1612 1.366 . S
C1612 C1611 1.366 . S
C1612 C1613 1.414 . S
C1612 C1615 1.499 . S
C1613 H1587 0.950 . S
C1613 C1612 1.414 . S
C1613 C1614 1.374 . S
C1614 H1588 0.950 . S
C1614 C1610 1.385 . S
C1614 C1613 1.374 . S
C1615 C1612 1.499 . S
C1615 C1616 1.373 . S
C1615 C1617 1.389 . S
C1616 H1589 0.950 . S
C1616 C1602 1.377 . S
C1616 C1615 1.373 . S
C1617 C1601 1.377 . S
C1617 C1615 1.389 . S
C1617 C1618 1.524 . S
C1618 C1617 1.524 . S
C1618 C1619 1.397 . S
C1618 C1623 1.363 . S
C1619 H1590 0.950 . S
C1619 C1618 1.397 . S
C1619 C1620 1.334 . S
C1620 H1591 0.950 . S
C1620 C1619 1.334 . S
C1620 C1621 1.287 . S
C1621 C1620 1.287 . S
C1621 C1622 1.524 . S
C1621 H1624 0.999 . S
C1622 H1592 0.950 . S
C1622 C1621 1.524 . S
C1622 C1623 1.415 . S
C1623 H1593 0.950 . S
C1623 C1618 1.363 . S
C1623 C1622 1.415 . S
H1624 C1621 0.999 . S
H1625 C1606 0.913 . S
H1626 C1644 0.951 . S
H1627 C1646 0.951 . S
H1628 C1648 0.950 . S
H1629 C1649 0.950 . S
H1630 C1651 0.950 . S
H1631 C1654 0.950 . S
H1632 C1655 0.950 . S
H1633 C1657 0.950 . S
H1634 C1658 0.950 . S
H1635 C1659 0.951 . S
H1636 C1661 0.951 . S
H1637 C1663 0.950 . S
H1638 C1664 0.950 . S
H1639 C1666 0.950 . S
H1640 C1669 0.950 . S
H1641 C1670 0.950 . S
H1642 C1672 0.950 . S
H1643 C1673 0.950 . S
C1644 H1626 0.951 . S
C1644 C1645 1.366 . S
C1644 C1646 1.388 . S
C1645 C1644 1.366 . S
C1645 C1649 1.385 . S
C1646 H1627 0.951 . S
C1646 C1644 1.388 . S
C1646 C1647 1.366 . S
C1647 C1646 1.366 . S
C1647 C1648 1.414 . S
C1647 C1650 1.499 . S
C1648 H1628 0.950 . S
C1648 C1647 1.414 . S
C1648 C1649 1.374 . S
C1649 H1629 0.950 . S
C1649 C1645 1.385 . S
C1649 C1648 1.374 . S
C1650 C1647 1.499 . S
C1650 C1651 1.373 . S
C1650 C1652 1.389 . S
C1651 H1630 0.950 . S
C1651 C1650 1.373 . S
C1651 C1667 1.377 . S
C1652 C1650 1.389 . S
C1652 C1653 1.524 . S
C1652 C1666 1.377 . S
C1653 C1652 1.524 . S
C1653 C1654 1.397 . S
C1653 C1658 1.363 . S
C1654 H1631 0.950 . S
C1654 C1653 1.397 . S
C1654 C1655 1.334 . S
C1655 H1632 0.950 . S
C1655 C1654 1.334 . S
C1655 C1656 1.287 . S
C1656 C1655 1.287 . S
C1656 C1657 1.524 . S
C1656 H1675 0.913 . S
C1657 H1633 0.950 . S
C1657 C1656 1.524 . S
C1657 C1658 1.415 . S
C1658 H1634 0.950 . S
C1658 C1653 1.363 . S
C1658 C1657 1.415 . S
C1659 H1635 0.951 . S
C1659 C1660 1.366 . S
C1659 C1661 1.388 . S
C1660 C1659 1.366 . S
C1660 C1664 1.385 . S
C1661 H1636 0.951 . S
C1661 C1659 1.388 . S
C1661 C1662 1.366 . S
C1662 C1661 1.366 . S
C1662 C1663 1.414 . S
C1662 C1665 1.499 . S
C1663 H1637 0.950 . S
C1663 C1662 1.414 . S
C1663 C1664 1.374 . S
C1664 H1638 0.950 . S
C1664 C1660 1.385 . S
C1664 C1663 1.374 . S
C1665 C1662 1.499 . S
C1665 C1666 1.373 . S
C1665 C1667 1.389 . S
C1666 H1639 0.950 . S
C1666 C1652 1.377 . S
C1666 C1665 1.373 . S
C1667 C1651 1.377 . S
C1667 C1665 1.389 . S
C1667 C1668 1.524 . S
C1668 C1667 1.524 . S
C1668 C1669 1.397 . S
C1668 C1673 1.363 . S
C1669 H1640 0.950 . S
C1669 C1668 1.397 . S
C1669 C1670 1.334 . S
C1670 H1641 0.950 . S
C1670 C1669 1.334 . S
C1670 C1671 1.287 . S
C1671 C1670 1.287 . S
C1671 C1672 1.524 . S
C1671 H1674 0.999 . S
C1672 H1642 0.950 . S
C1672 C1671 1.524 . S
C1672 C1673 1.415 . S
C1673 H1643 0.950 . S
C1673 C1668 1.363 . S
C1673 C1672 1.415 . S
H1674 C1671 0.999 . S
H1675 C1656 0.913 . S
H1676 C1694 0.951 . S
H1677 C1696 0.951 . S
H1678 C1698 0.950 . S
H1679 C1699 0.950 . S
H1680 C1701 0.950 . S
H1681 C1704 0.950 . S
H1682 C1705 0.950 . S
H1683 C1707 0.950 . S
H1684 C1708 0.950 . S
H1685 C1709 0.951 . S
H1686 C1711 0.951 . S
H1687 C1713 0.950 . S
H1688 C1714 0.950 . S
H1689 C1716 0.950 . S
H1690 C1719 0.950 . S
H1691 C1720 0.950 . S
H1692 C1722 0.950 . S
H1693 C1723 0.950 . S
C1694 H1676 0.951 . S
C1694 C1695 1.366 . S
C1694 C1696 1.388 . S
C1695 C1694 1.366 . S
C1695 C1699 1.385 . S
C1696 H1677 0.951 . S
C1696 C1694 1.388 . S
C1696 C1697 1.366 . S
C1697 C1696 1.366 . S
C1697 C1698 1.414 . S
C1697 C1700 1.499 . S
C1698 H1678 0.950 . S
C1698 C1697 1.414 . S
C1698 C1699 1.374 . S
C1699 H1679 0.950 . S
C1699 C1695 1.385 . S
C1699 C1698 1.374 . S
C1700 C1697 1.499 . S
C1700 C1701 1.373 . S
C1700 C1702 1.389 . S
C1701 H1680 0.950 . S
C1701 C1700 1.373 . S
C1701 C1717 1.377 . S
C1702 C1700 1.389 . S
C1702 C1703 1.524 . S
C1702 C1716 1.377 . S
C1703 C1702 1.524 . S
C1703 C1704 1.397 . S
C1703 C1708 1.363 . S
C1704 H1681 0.950 . S
C1704 C1703 1.397 . S
C1704 C1705 1.334 . S
C1705 H1682 0.950 . S
C1705 C1704 1.334 . S
C1705 C1706 1.287 . S
C1706 C1705 1.287 . S
C1706 C1707 1.524 . S
C1706 H1725 0.913 . S
C1707 H1683 0.950 . S
C1707 C1706 1.524 . S
C1707 C1708 1.415 . S
C1708 H1684 0.950 . S
C1708 C1703 1.363 . S
C1708 C1707 1.415 . S
C1709 H1685 0.951 . S
C1709 C1710 1.366 . S
C1709 C1711 1.388 . S
C1710 C1709 1.366 . S
C1710 C1714 1.385 . S
C1711 H1686 0.951 . S
C1711 C1709 1.388 . S
C1711 C1712 1.366 . S
C1712 C1711 1.366 . S
C1712 C1713 1.414 . S
C1712 C1715 1.499 . S
C1713 H1687 0.950 . S
C1713 C1712 1.414 . S
C1713 C1714 1.374 . S
C1714 H1688 0.950 . S
C1714 C1710 1.385 . S
C1714 C1713 1.374 . S
C1715 C1712 1.499 . S
C1715 C1716 1.373 . S
C1715 C1717 1.389 . S
C1716 H1689 0.950 . S
C1716 C1702 1.377 . S
C1716 C1715 1.373 . S
C1717 C1701 1.377 . S
C1717 C1715 1.389 . S
C1717 C1718 1.524 . S
C1718 C1717 1.524 . S
C1718 C1719 1.397 . S
C1718 C1723 1.363 . S
C1719 H1690 0.950 . S
C1719 C1718 1.397 . S
C1719 C1720 1.334 . S
C1720 H1691 0.950 . S
C1720 C1719 1.334 . S
C1720 C1721 1.287 . S
C1721 C1720 1.287 . S
C1721 C1722 1.524 . S
C1721 H1724 0.999 . S
C1722 H1692 0.950 . S
C1722 C1721 1.524 . S
C1722 C1723 1.415 . S
C1723 H1693 0.950 . S
C1723 C1718 1.363 . S
C1723 C1722 1.415 . S
H1724 C1721 0.999 . S
H1725 C1706 0.913 . S
H1726 C1744 0.951 . S
H1727 C1746 0.951 . S
H1728 C1748 0.950 . S
H1729 C1749 0.950 . S
H1730 C1751 0.950 . S
H1731 C1754 0.950 . S
H1732 C1755 0.950 . S
H1733 C1757 0.950 . S
H1734 C1758 0.950 . S
H1735 C1759 0.951 . S
H1736 C1761 0.951 . S
H1737 C1763 0.950 . S
H1738 C1764 0.950 . S
H1739 C1766 0.950 . S
H1740 C1769 0.950 . S
H1741 C1770 0.950 . S
H1742 C1772 0.950 . S
H1743 C1773 0.950 . S
C1744 H1726 0.951 . S
C1744 C1745 1.366 . S
C1744 C1746 1.388 . S
C1745 C1744 1.366 . S
C1745 C1749 1.385 . S
C1746 H1727 0.951 . S
C1746 C1744 1.388 . S
C1746 C1747 1.366 . S
C1747 C1746 1.366 . S
C1747 C1748 1.414 . S
C1747 C1750 1.499 . S
C1748 H1728 0.950 . S
C1748 C1747 1.414 . S
C1748 C1749 1.374 . S
C1749 H1729 0.950 . S
C1749 C1745 1.385 . S
C1749 C1748 1.374 . S
C1750 C1747 1.499 . S
C1750 C1751 1.373 . S
C1750 C1752 1.389 . S
C1751 H1730 0.950 . S
C1751 C1750 1.373 . S
C1751 C1767 1.377 . S
C1752 C1750 1.389 . S
C1752 C1753 1.524 . S
C1752 C1766 1.377 . S
C1753 C1752 1.524 . S
C1753 C1754 1.397 . S
C1753 C1758 1.363 . S
C1754 H1731 0.950 . S
C1754 C1753 1.397 . S
C1754 C1755 1.334 . S
C1755 H1732 0.950 . S
C1755 C1754 1.334 . S
C1755 C1756 1.287 . S
C1756 C1755 1.287 . S
C1756 C1757 1.524 . S
C1756 H1775 0.913 . S
C1757 H1733 0.950 . S
C1757 C1756 1.524 . S
C1757 C1758 1.415 . S
C1758 H1734 0.950 . S
C1758 C1753 1.363 . S
C1758 C1757 1.415 . S
C1759 H1735 0.951 . S
C1759 C1760 1.366 . S
C1759 C1761 1.388 . S
C1760 C1759 1.366 . S
C1760 C1764 1.385 . S
C1761 H1736 0.951 . S
C1761 C1759 1.388 . S
C1761 C1762 1.366 . S
C1762 C1761 1.366 . S
C1762 C1763 1.414 . S
C1762 C1765 1.499 . S
C1763 H1737 0.950 . S
C1763 C1762 1.414 . S
C1763 C1764 1.374 . S
C1764 H1738 0.950 . S
C1764 C1760 1.385 . S
C1764 C1763 1.374 . S
C1765 C1762 1.499 . S
C1765 C1766 1.373 . S
C1765 C1767 1.389 . S
C1766 H1739 0.950 . S
C1766 C1752 1.377 . S
C1766 C1765 1.373 . S
C1767 C1751 1.377 . S
C1767 C1765 1.389 . S
C1767 C1768 1.524 . S
C1768 C1767 1.524 . S
C1768 C1769 1.397 . S
C1768 C1773 1.363 . S
C1769 H1740 0.950 . S
C1769 C1768 1.397 . S
C1769 C1770 1.334 . S
C1770 H1741 0.950 . S
C1770 C1769 1.334 . S
C1770 C1771 1.287 . S
C1771 C1770 1.287 . S
C1771 C1772 1.524 . S
C1771 H1774 0.999 . S
C1772 H1742 0.950 . S
C1772 C1771 1.524 . S
C1772 C1773 1.415 . S
C1773 H1743 0.950 . S
C1773 C1768 1.363 . S
C1773 C1772 1.415 . S
H1774 C1771 0.999 . S
H1775 C1756 0.913 . S
H1776 C1794 0.951 . S
H1777 C1796 0.951 . S
H1778 C1798 0.950 . S
H1779 C1799 0.950 . S
H1780 C1801 0.950 . S
H1781 C1804 0.950 . S
H1782 C1805 0.950 . S
H1783 C1807 0.950 . S
H1784 C1808 0.950 . S
H1785 C1809 0.951 . S
H1786 C1811 0.951 . S
H1787 C1813 0.950 . S
H1788 C1814 0.950 . S
H1789 C1816 0.950 . S
H1790 C1819 0.950 . S
H1791 C1820 0.950 . S
H1792 C1822 0.950 . S
H1793 C1823 0.950 . S
C1794 H1776 0.951 . S
C1794 C1795 1.366 . S
C1794 C1796 1.388 . S
C1795 C1794 1.366 . S
C1795 C1799 1.385 . S
C1796 H1777 0.951 . S
C1796 C1794 1.388 . S
C1796 C1797 1.366 . S
C1797 C1796 1.366 . S
C1797 C1798 1.414 . S
C1797 C1800 1.499 . S
C1798 H1778 0.950 . S
C1798 C1797 1.414 . S
C1798 C1799 1.374 . S
C1799 H1779 0.950 . S
C1799 C1795 1.385 . S
C1799 C1798 1.374 . S
C1800 C1797 1.499 . S
C1800 C1801 1.373 . S
C1800 C1802 1.389 . S
C1801 H1780 0.950 . S
C1801 C1800 1.373 . S
C1801 C1817 1.377 . S
C1802 C1800 1.389 . S
C1802 C1803 1.524 . S
C1802 C1816 1.377 . S
C1803 C1802 1.524 . S
C1803 C1804 1.397 . S
C1803 C1808 1.363 . S
C1804 H1781 0.950 . S
C1804 C1803 1.397 . S
C1804 C1805 1.334 . S
C1805 H1782 0.950 . S
C1805 C1804 1.334 . S
C1805 C1806 1.287 . S
C1806 C1805 1.287 . S
C1806 C1807 1.524 . S
C1806 H1825 0.913 . S
C1807 H1783 0.950 . S
C1807 C1806 1.524 . S
C1807 C1808 1.415 . S
C1808 H1784 0.950 . S
C1808 C1803 1.363 . S
C1808 C1807 1.415 . S
C1809 H1785 0.951 . S
C1809 C1810 1.366 . S
C1809 C1811 1.388 . S
C1810 C1809 1.366 . S
C1810 C1814 1.385 . S
C1811 H1786 0.951 . S
C1811 C1809 1.388 . S
C1811 C1812 1.366 . S
C1812 C1811 1.366 . S
C1812 C1813 1.414 . S
C1812 C1815 1.499 . S
C1813 H1787 0.950 . S
C1813 C1812 1.414 . S
C1813 C1814 1.374 . S
C1814 H1788 0.950 . S
C1814 C1810 1.385 . S
C1814 C1813 1.374 . S
C1815 C1812 1.499 . S
C1815 C1816 1.373 . S
C1815 C1817 1.389 . S
C1816 H1789 0.950 . S
C1816 C1802 1.377 . S
C1816 C1815 1.373 . S
C1817 C1801 1.377 . S
C1817 C1815 1.389 . S
C1817 C1818 1.524 . S
C1818 C1817 1.524 . S
C1818 C1819 1.397 . S
C1818 C1823 1.363 . S
C1819 H1790 0.950 . S
C1819 C1818 1.397 . S
C1819 C1820 1.334 . S
C1820 H1791 0.950 . S
C1820 C1819 1.334 . S
C1820 C1821 1.287 . S
C1821 C1820 1.287 . S
C1821 C1822 1.524 . S
C1821 H1824 0.999 . S
C1822 H1792 0.950 . S
C1822 C1821 1.524 . S
C1822 C1823 1.415 . S
C1823 H1793 0.950 . S
C1823 C1818 1.363 . S
C1823 C1822 1.415 . S
H1824 C1821 0.999 . S
H1825 C1806 0.913 . S
H1826 C1844 0.951 . S
H1827 C1846 0.951 . S
H1828 C1848 0.950 . S
H1829 C1849 0.950 . S
H1830 C1851 0.950 . S
H1831 C1854 0.950 . S
H1832 C1855 0.950 . S
H1833 C1857 0.950 . S
H1834 C1858 0.950 . S
H1835 C1859 0.951 . S
H1836 C1861 0.951 . S
H1837 C1863 0.950 . S
H1838 C1864 0.950 . S
H1839 C1866 0.950 . S
H1840 C1869 0.950 . S
H1841 C1870 0.950 . S
H1842 C1872 0.950 . S
H1843 C1873 0.950 . S
C1844 H1826 0.951 . S
C1844 C1845 1.366 . S
C1844 C1846 1.388 . S
C1845 C1844 1.366 . S
C1845 C1849 1.385 . S
C1846 H1827 0.951 . S
C1846 C1844 1.388 . S
C1846 C1847 1.366 . S
C1847 C1846 1.366 . S
C1847 C1848 1.414 . S
C1847 C1850 1.499 . S
C1848 H1828 0.950 . S
C1848 C1847 1.414 . S
C1848 C1849 1.374 . S
C1849 H1829 0.950 . S
C1849 C1845 1.385 . S
C1849 C1848 1.374 . S
C1850 C1847 1.499 . S
C1850 C1851 1.373 . S
C1850 C1852 1.389 . S
C1851 H1830 0.950 . S
C1851 C1850 1.373 . S
C1851 C1867 1.377 . S
C1852 C1850 1.389 . S
C1852 C1853 1.524 . S
C1852 C1866 1.377 . S
C1853 C1852 1.524 . S
C1853 C1854 1.397 . S
C1853 C1858 1.363 . S
C1854 H1831 0.950 . S
C1854 C1853 1.397 . S
C1854 C1855 1.334 . S
C1855 H1832 0.950 . S
C1855 C1854 1.334 . S
C1855 C1856 1.287 . S
C1856 C1855 1.287 . S
C1856 C1857 1.524 . S
C1856 H1875 0.913 . S
C1857 H1833 0.950 . S
C1857 C1856 1.524 . S
C1857 C1858 1.415 . S
C1858 H1834 0.950 . S
C1858 C1853 1.363 . S
C1858 C1857 1.415 . S
C1859 H1835 0.951 . S
C1859 C1860 1.366 . S
C1859 C1861 1.388 . S
C1860 C1859 1.366 . S
C1860 C1864 1.385 . S
C1861 H1836 0.951 . S
C1861 C1859 1.388 . S
C1861 C1862 1.366 . S
C1862 C1861 1.366 . S
C1862 C1863 1.414 . S
C1862 C1865 1.499 . S
C1863 H1837 0.950 . S
C1863 C1862 1.414 . S
C1863 C1864 1.374 . S
C1864 H1838 0.950 . S
C1864 C1860 1.385 . S
C1864 C1863 1.374 . S
C1865 C1862 1.499 . S
C1865 C1866 1.373 . S
C1865 C1867 1.389 . S
C1866 H1839 0.950 . S
C1866 C1852 1.377 . S
C1866 C1865 1.373 . S
C1867 C1851 1.377 . S
C1867 C1865 1.389 . S
C1867 C1868 1.524 . S
C1868 C1867 1.524 . S
C1868 C1869 1.397 . S
C1868 C1873 1.363 . S
C1869 H1840 0.950 . S
C1869 C1868 1.397 . S
C1869 C1870 1.334 . S
C1870 H1841 0.950 . S
C1870 C1869 1.334 . S
C1870 C1871 1.287 . S
C1871 C1870 1.287 . S
C1871 C1872 1.524 . S
C1871 H1874 0.999 . S
C1872 H1842 0.950 . S
C1872 C1871 1.524 . S
C1872 C1873 1.415 . S
C1873 H1843 0.950 . S
C1873 C1868 1.363 . S
C1873 C1872 1.415 . S
H1874 C1871 0.999 . S
H1875 C1856 0.913 . S
H1876 C1894 0.951 . S
H1877 C1896 0.951 . S
H1878 C1898 0.950 . S
H1879 C1899 0.950 . S
H1880 C1901 0.950 . S
H1881 C1904 0.950 . S
H1882 C1905 0.950 . S
H1883 C1907 0.950 . S
H1884 C1908 0.950 . S
H1885 C1909 0.951 . S
H1886 C1911 0.951 . S
H1887 C1913 0.950 . S
H1888 C1914 0.950 . S
H1889 C1916 0.950 . S
H1890 C1919 0.950 . S
H1891 C1920 0.950 . S
H1892 C1922 0.950 . S
H1893 C1923 0.950 . S
C1894 H1876 0.951 . S
C1894 C1895 1.366 . S
C1894 C1896 1.388 . S
C1895 C1894 1.366 . S
C1895 C1899 1.385 . S
C1896 H1877 0.951 . S
C1896 C1894 1.388 . S
C1896 C1897 1.366 . S
C1897 C1896 1.366 . S
C1897 C1898 1.414 . S
C1897 C1900 1.499 . S
C1898 H1878 0.950 . S
C1898 C1897 1.414 . S
C1898 C1899 1.374 . S
C1899 H1879 0.950 . S
C1899 C1895 1.385 . S
C1899 C1898 1.374 . S
C1900 C1897 1.499 . S
C1900 C1901 1.373 . S
C1900 C1902 1.389 . S
C1901 H1880 0.950 . S
C1901 C1900 1.373 . S
C1901 C1917 1.377 . S
C1902 C1900 1.389 . S
C1902 C1903 1.524 . S
C1902 C1916 1.377 . S
C1903 C1902 1.524 . S
C1903 C1904 1.397 . S
C1903 C1908 1.363 . S
C1904 H1881 0.950 . S
C1904 C1903 1.397 . S
C1904 C1905 1.334 . S
C1905 H1882 0.950 . S
C1905 C1904 1.334 . S
C1905 C1906 1.287 . S
C1906 C1905 1.287 . S
C1906 C1907 1.524 . S
C1906 H1925 0.913 . S
C1907 H1883 0.950 . S
C1907 C1906 1.524 . S
C1907 C1908 1.415 . S
C1908 H1884 0.950 . S
C1908 C1903 1.363 . S
C1908 C1907 1.415 . S
C1909 H1885 0.951 . S
C1909 C1910 1.366 . S
C1909 C1911 1.388 . S
C1910 C1909 1.366 . S
C1910 C1914 1.385 . S
C1911 H1886 0.951 . S
C1911 C1909 1.388 . S
C1911 C1912 1.366 . S
C1912 C1911 1.366 . S
C1912 C1913 1.414 . S
C1912 C1915 1.499 . S
C1913 H1887 0.950 . S
C1913 C1912 1.414 . S
C1913 C1914 1.374 . S
C1914 H1888 0.950 . S
C1914 C1910 1.385 . S
C1914 C1913 1.374 . S
C1915 C1912 1.499 . S
C1915 C1916 1.373 . S
C1915 C1917 1.389 . S
C1916 H1889 0.950 . S
C1916 C1902 1.377 . S
C1916 C1915 1.373 . S
C1917 C1901 1.377 . S
C1917 C1915 1.389 . S
C1917 C1918 1.524 . S
C1918 C1917 1.524 . S
C1918 C1919 1.397 . S
C1918 C1923 1.363 . S
C1919 H1890 0.950 . S
C1919 C1918 1.397 . S
C1919 C1920 1.334 . S
C1920 H1891 0.950 . S
C1920 C1919 1.334 . S
C1920 C1921 1.287 . S
C1921 C1920 1.287 . S
C1921 C1922 1.524 . S
C1921 H1924 0.999 . S
C1922 H1892 0.950 . S
C1922 C1921 1.524 . S
C1922 C1923 1.415 . S
C1923 H1893 0.950 . S
C1923 C1918 1.363 . S
C1923 C1922 1.415 . S
H1924 C1921 0.999 . S
H1925 C1906 0.913 . S
H1926 C1944 0.951 . S
H1927 C1946 0.951 . S
H1928 C1948 0.950 . S
H1929 C1949 0.950 . S
H1930 C1951 0.950 . S
H1931 C1954 0.950 . S
H1932 C1955 0.950 . S
H1933 C1957 0.950 . S
H1934 C1958 0.950 . S
H1935 C1959 0.951 . S
H1936 C1961 0.951 . S
H1937 C1963 0.950 . S
H1938 C1964 0.950 . S
H1939 C1966 0.950 . S
H1940 C1969 0.950 . S
H1941 C1970 0.950 . S
H1942 C1972 0.950 . S
H1943 C1973 0.950 . S
C1944 H1926 0.951 . S
C1944 C1945 1.366 . S
C1944 C1946 1.388 . S
C1945 C1944 1.366 . S
C1945 C1949 1.385 . S
C1946 H1927 0.951 . S
C1946 C1944 1.388 . S
C1946 C1947 1.366 . S
C1947 C1946 1.366 . S
C1947 C1948 1.414 . S
C1947 C1950 1.499 . S
C1948 H1928 0.950 . S
C1948 C1947 1.414 . S
C1948 C1949 1.374 . S
C1949 H1929 0.950 . S
C1949 C1945 1.385 . S
C1949 C1948 1.374 . S
C1950 C1947 1.499 . S
C1950 C1951 1.373 . S
C1950 C1952 1.389 . S
C1951 H1930 0.950 . S
C1951 C1950 1.373 . S
C1951 C1967 1.377 . S
C1952 C1950 1.389 . S
C1952 C1953 1.524 . S
C1952 C1966 1.377 . S
C1953 C1952 1.524 . S
C1953 C1954 1.397 . S
C1953 C1958 1.363 . S
C1954 H1931 0.950 . S
C1954 C1953 1.397 . S
C1954 C1955 1.334 . S
C1955 H1932 0.950 . S
C1955 C1954 1.334 . S
C1955 C1956 1.287 . S
C1956 C1955 1.287 . S
C1956 C1957 1.524 . S
C1956 H1975 0.913 . S
C1957 H1933 0.950 . S
C1957 C1956 1.524 . S
C1957 C1958 1.415 . S
C1958 H1934 0.950 . S
C1958 C1953 1.363 . S
C1958 C1957 1.415 . S
C1959 H1935 0.951 . S
C1959 C1960 1.366 . S
C1959 C1961 1.388 . S
C1960 C1959 1.366 . S
C1960 C1964 1.385 . S
C1961 H1936 0.951 . S
C1961 C1959 1.388 . S
C1961 C1962 1.366 . S
C1962 C1961 1.366 . S
C1962 C1963 1.414 . S
C1962 C1965 1.499 . S
C1963 H1937 0.950 . S
C1963 C1962 1.414 . S
C1963 C1964 1.374 . S
C1964 H1938 0.950 . S
C1964 C1960 1.385 . S
C1964 C1963 1.374 . S
C1965 C1962 1.499 . S
C1965 C1966 1.373 . S
C1965 C1967 1.389 . S
C1966 H1939 0.950 . S
C1966 C1952 1.377 . S
C1966 C1965 1.373 . S
C1967 C1951 1.377 . S
C1967 C1965 1.389 . S
C1967 C1968 1.524 . S
C1968 C1967 1.524 . S
C1968 C1969 1.397 . S
C1968 C1973 1.363 . S
C1969 H1940 0.950 . S
C1969 C1968 1.397 . S
C1969 C1970 1.334 . S
C1970 H1941 0.950 . S
C1970 C1969 1.334 . S
C1970 C1971 1.287 . S
C1971 C1970 1.287 . S
C1971 C1972 1.524 . S
C1971 H1974 0.999 . S
C1972 H1942 0.950 . S
C1972 C1971 1.524 . S
C1972 C1973 1.415 . S
C1973 H1943 0.950 . S
C1973 C1968 1.363 . S
C1973 C1972 1.415 . S
H1974 C1971 0.999 . S
H1975 C1956 0.913 . S
H1976 C1994 0.951 . S
H1977 C1996 0.951 . S
H1978 C1998 0.950 . S
H1979 C1999 0.950 . S
H1980 C2001 0.950 . S
H1981 C2004 0.950 . S
H1982 C2005 0.950 . S
H1983 C2007 0.950 . S
H1984 C2008 0.950 . S
H1985 C2009 0.951 . S
H1986 C2011 0.951 . S
H1987 C2013 0.950 . S
H1988 C2014 0.950 . S
H1989 C2016 0.950 . S
H1990 C2019 0.950 . S
H1991 C2020 0.950 . S
H1992 C2022 0.950 . S
H1993 C2023 0.950 . S
C1994 H1976 0.951 . S
C1994 C1995 1.366 . S
C1994 C1996 1.388 . S
C1995 C1994 1.366 . S
C1995 C1999 1.385 . S
C1996 H1977 0.951 . S
C1996 C1994 1.388 . S
C1996 C1997 1.366 . S
C1997 C1996 1.366 . S
C1997 C1998 1.414 . S
C1997 C2000 1.499 . S
C1998 H1978 0.950 . S
C1998 C1997 1.414 . S
C1998 C1999 1.374 . S
C1999 H1979 0.950 . S
C1999 C1995 1.385 . S
C1999 C1998 1.374 . S
C2000 C1997 1.499 . S
C2000 C2001 1.373 . S
C2000 C2002 1.389 . S
C2001 H1980 0.950 . S
C2001 C2000 1.373 . S
C2001 C2017 1.377 . S
C2002 C2000 1.389 . S
C2002 C2003 1.524 . S
C2002 C2016 1.377 . S
C2003 C2002 1.524 . S
C2003 C2004 1.397 . S
C2003 C2008 1.363 . S
C2004 H1981 0.950 . S
C2004 C2003 1.397 . S
C2004 C2005 1.334 . S
C2005 H1982 0.950 . S
C2005 C2004 1.334 . S
C2005 C2006 1.287 . S
C2006 C2005 1.287 . S
C2006 C2007 1.524 . S
C2006 H2025 0.913 . S
C2007 H1983 0.950 . S
C2007 C2006 1.524 . S
C2007 C2008 1.415 . S
C2008 H1984 0.950 . S
C2008 C2003 1.363 . S
C2008 C2007 1.415 . S
C2009 H1985 0.951 . S
C2009 C2010 1.366 . S
C2009 C2011 1.388 . S
C2010 C2009 1.366 . S
C2010 C2014 1.385 . S
C2011 H1986 0.951 . S
C2011 C2009 1.388 . S
C2011 C2012 1.366 . S
C2012 C2011 1.366 . S
C2012 C2013 1.414 . S
C2012 C2015 1.499 . S
C2013 H1987 0.950 . S
C2013 C2012 1.414 . S
C2013 C2014 1.374 . S
C2014 H1988 0.950 . S
C2014 C2010 1.385 . S
C2014 C2013 1.374 . S
C2015 C2012 1.499 . S
C2015 C2016 1.373 . S
C2015 C2017 1.389 . S
C2016 H1989 0.950 . S
C2016 C2002 1.377 . S
C2016 C2015 1.373 . S
C2017 C2001 1.377 . S
C2017 C2015 1.389 . S
C2017 C2018 1.524 . S
C2018 C2017 1.524 . S
C2018 C2019 1.397 . S
C2018 C2023 1.363 . S
C2019 H1990 0.950 . S
C2019 C2018 1.397 . S
C2019 C2020 1.334 . S
C2020 H1991 0.950 . S
C2020 C2019 1.334 . S
C2020 C2021 1.287 . S
C2021 C2020 1.287 . S
C2021 C2022 1.524 . S
C2021 H2024 0.999 . S
C2022 H1992 0.950 . S
C2022 C2021 1.524 . S
C2022 C2023 1.415 . S
C2023 H1993 0.950 . S
C2023 C2018 1.363 . S
C2023 C2022 1.415 . S
H2024 C2021 0.999 . S
H2025 C2006 0.913 . S
H2026 C2044 0.951 . S
H2027 C2046 0.951 . S
H2028 C2048 0.950 . S
H2029 C2049 0.950 . S
H2030 C2051 0.950 . S
H2031 C2054 0.950 . S
H2032 C2055 0.950 . S
H2033 C2057 0.950 . S
H2034 C2058 0.950 . S
H2035 C2059 0.951 . S
H2036 C2061 0.951 . S
H2037 C2063 0.950 . S
H2038 C2064 0.950 . S
H2039 C2066 0.950 . S
H2040 C2069 0.950 . S
H2041 C2070 0.950 . S
H2042 C2072 0.950 . S
H2043 C2073 0.950 . S
C2044 H2026 0.951 . S
C2044 C2045 1.366 . S
C2044 C2046 1.388 . S
C2045 C2044 1.366 . S
C2045 C2049 1.385 . S
C2046 H2027 0.951 . S
C2046 C2044 1.388 . S
C2046 C2047 1.366 . S
C2047 C2046 1.366 . S
C2047 C2048 1.414 . S
C2047 C2050 1.499 . S
C2048 H2028 0.950 . S
C2048 C2047 1.414 . S
C2048 C2049 1.374 . S
C2049 H2029 0.950 . S
C2049 C2045 1.385 . S
C2049 C2048 1.374 . S
C2050 C2047 1.499 . S
C2050 C2051 1.373 . S
C2050 C2052 1.389 . S
C2051 H2030 0.950 . S
C2051 C2050 1.373 . S
C2051 C2067 1.377 . S
C2052 C2050 1.389 . S
C2052 C2053 1.524 . S
C2052 C2066 1.377 . S
C2053 C2052 1.524 . S
C2053 C2054 1.397 . S
C2053 C2058 1.363 . S
C2054 H2031 0.950 . S
C2054 C2053 1.397 . S
C2054 C2055 1.334 . S
C2055 H2032 0.950 . S
C2055 C2054 1.334 . S
C2055 C2056 1.287 . S
C2056 C2055 1.287 . S
C2056 C2057 1.524 . S
C2056 H2075 0.913 . S
C2057 H2033 0.950 . S
C2057 C2056 1.524 . S
C2057 C2058 1.415 . S
C2058 H2034 0.950 . S
C2058 C2053 1.363 . S
C2058 C2057 1.415 . S
C2059 H2035 0.951 . S
C2059 C2060 1.366 . S
C2059 C2061 1.388 . S
C2060 C2059 1.366 . S
C2060 C2064 1.385 . S
C2061 H2036 0.951 . S
C2061 C2059 1.388 . S
C2061 C2062 1.366 . S
C2062 C2061 1.366 . S
C2062 C2063 1.414 . S
C2062 C2065 1.499 . S
C2063 H2037 0.950 . S
C2063 C2062 1.414 . S
C2063 C2064 1.374 . S
C2064 H2038 0.950 . S
C2064 C2060 1.385 . S
C2064 C2063 1.374 . S
C2065 C2062 1.499 . S
C2065 C2066 1.373 . S
C2065 C2067 1.389 . S
C2066 H2039 0.950 . S
C2066 C2052 1.377 . S
C2066 C2065 1.373 . S
C2067 C2051 1.377 . S
C2067 C2065 1.389 . S
C2067 C2068 1.524 . S
C2068 C2067 1.524 . S
C2068 C2069 1.397 . S
C2068 C2073 1.363 . S
C2069 H2040 0.950 . S
C2069 C2068 1.397 . S
C2069 C2070 1.334 . S
C2070 H2041 0.950 . S
C2070 C2069 1.334 . S
C2070 C2071 1.287 . S
C2071 C2070 1.287 . S
C2071 C2072 1.524 . S
C2071 H2074 0.999 . S
C2072 H2042 0.950 . S
C2072 C2071 1.524 . S
C2072 C2073 1.415 . S
C2073 H2043 0.950 . S
C2073 C2068 1.363 . S
C2073 C2072 1.415 . S
H2074 C2071 0.999 . S
H2075 C2056 0.913 . S
H2076 C2094 0.951 . S
H2077 C2096 0.951 . S
H2078 C2098 0.950 . S
H2079 C2099 0.950 . S
H2080 C2101 0.950 . S
H2081 C2104 0.950 . S
H2082 C2105 0.950 . S
H2083 C2107 0.950 . S
H2084 C2108 0.950 . S
H2085 C2109 0.951 . S
H2086 C2111 0.951 . S
H2087 C2113 0.950 . S
H2088 C2114 0.950 . S
H2089 C2116 0.950 . S
H2090 C2119 0.950 . S
H2091 C2120 0.950 . S
H2092 C2122 0.950 . S
H2093 C2123 0.950 . S
C2094 H2076 0.951 . S
C2094 C2095 1.366 . S
C2094 C2096 1.388 . S
C2095 C2094 1.366 . S
C2095 C2099 1.385 . S
C2096 H2077 0.951 . S
C2096 C2094 1.388 . S
C2096 C2097 1.366 . S
C2097 C2096 1.366 . S
C2097 C2098 1.414 . S
C2097 C2100 1.499 . S
C2098 H2078 0.950 . S
C2098 C2097 1.414 . S
C2098 C2099 1.374 . S
C2099 H2079 0.950 . S
C2099 C2095 1.385 . S
C2099 C2098 1.374 . S
C2100 C2097 1.499 . S
C2100 C2101 1.373 . S
C2100 C2102 1.389 . S
C2101 H2080 0.950 . S
C2101 C2100 1.373 . S
C2101 C2117 1.377 . S
C2102 C2100 1.389 . S
C2102 C2103 1.524 . S
C2102 C2116 1.377 . S
C2103 C2102 1.524 . S
C2103 C2104 1.397 . S
C2103 C2108 1.363 . S
C2104 H2081 0.950 . S
C2104 C2103 1.397 . S
C2104 C2105 1.334 . S
C2105 H2082 0.950 . S
C2105 C2104 1.334 . S
C2105 C2106 1.287 . S
C2106 C2105 1.287 . S
C2106 C2107 1.524 . S
C2106 H2125 0.913 . S
C2107 H2083 0.950 . S
C2107 C2106 1.524 . S
C2107 C2108 1.415 . S
C2108 H2084 0.950 . S
C2108 C2103 1.363 . S
C2108 C2107 1.415 . S
C2109 H2085 0.951 . S
C2109 C2110 1.366 . S
C2109 C2111 1.388 . S
C2110 C2109 1.366 . S
C2110 C2114 1.385 . S
C2111 H2086 0.951 . S
C2111 C2109 1.388 . S
C2111 C2112 1.366 . S
C2112 C2111 1.366 . S
C2112 C2113 1.414 . S
C2112 C2115 1.499 . S
C2113 H2087 0.950 . S
C2113 C2112 1.414 . S
C2113 C2114 1.374 . S
C2114 H2088 0.950 . S
C2114 C2110 1.385 . S
C2114 C2113 1.374 . S
C2115 C2112 1.499 . S
C2115 C2116 1.373 . S
C2115 C2117 1.389 . S
C2116 H2089 0.950 . S
C2116 C2102 1.377 . S
C2116 C2115 1.373 . S
C2117 C2101 1.377 . S
C2117 C2115 1.389 . S
C2117 C2118 1.524 . S
C2118 C2117 1.524 . S
C2118 C2119 1.397 . S
C2118 C2123 1.363 . S
C2119 H2090 0.950 . S
C2119 C2118 1.397 . S
C2119 C2120 1.334 . S
C2120 H2091 0.950 . S
C2120 C2119 1.334 . S
C2120 C2121 1.287 . S
C2121 C2120 1.287 . S
C2121 C2122 1.524 . S
C2121 H2124 0.999 . S
C2122 H2092 0.950 . S
C2122 C2121 1.524 . S
C2122 C2123 1.415 . S
C2123 H2093 0.950 . S
C2123 C2118 1.363 . S
C2123 C2122 1.415 . S
H2124 C2121 0.999 . S
H2125 C2106 0.913 . S
H2126 C2144 0.951 . S
H2127 C2146 0.951 . S
H2128 C2148 0.950 . S
H2129 C2149 0.950 . S
H2130 C2151 0.950 . S
H2131 C2154 0.950 . S
H2132 C2155 0.950 . S
H2133 C2157 0.950 . S
H2134 C2158 0.950 . S
H2135 C2159 0.951 . S
H2136 C2161 0.951 . S
H2137 C2163 0.950 . S
H2138 C2164 0.950 . S
H2139 C2166 0.950 . S
H2140 C2169 0.950 . S
H2141 C2170 0.950 . S
H2142 C2172 0.950 . S
H2143 C2173 0.950 . S
C2144 H2126 0.951 . S
C2144 C2145 1.366 . S
C2144 C2146 1.388 . S
C2145 C2144 1.366 . S
C2145 C2149 1.385 . S
C2146 H2127 0.951 . S
C2146 C2144 1.388 . S
C2146 C2147 1.366 . S
C2147 C2146 1.366 . S
C2147 C2148 1.414 . S
C2147 C2150 1.499 . S
C2148 H2128 0.950 . S
C2148 C2147 1.414 . S
C2148 C2149 1.374 . S
C2149 H2129 0.950 . S
C2149 C2145 1.385 . S
C2149 C2148 1.374 . S
C2150 C2147 1.499 . S
C2150 C2151 1.373 . S
C2150 C2152 1.389 . S
C2151 H2130 0.950 . S
C2151 C2150 1.373 . S
C2151 C2167 1.377 . S
C2152 C2150 1.389 . S
C2152 C2153 1.524 . S
C2152 C2166 1.377 . S
C2153 C2152 1.524 . S
C2153 C2154 1.397 . S
C2153 C2158 1.363 . S
C2154 H2131 0.950 . S
C2154 C2153 1.397 . S
C2154 C2155 1.334 . S
C2155 H2132 0.950 . S
C2155 C2154 1.334 . S
C2155 C2156 1.287 . S
C2156 C2155 1.287 . S
C2156 C2157 1.524 . S
C2156 H2175 0.913 . S
C2157 H2133 0.950 . S
C2157 C2156 1.524 . S
C2157 C2158 1.415 . S
C2158 H2134 0.950 . S
C2158 C2153 1.363 . S
C2158 C2157 1.415 . S
C2159 H2135 0.951 . S
C2159 C2160 1.366 . S
C2159 C2161 1.388 . S
C2160 C2159 1.366 . S
C2160 C2164 1.385 . S
C2161 H2136 0.951 . S
C2161 C2159 1.388 . S
C2161 C2162 1.366 . S
C2162 C2161 1.366 . S
C2162 C2163 1.414 . S
C2162 C2165 1.499 . S
C2163 H2137 0.950 . S
C2163 C2162 1.414 . S
C2163 C2164 1.374 . S
C2164 H2138 0.950 . S
C2164 C2160 1.385 . S
C2164 C2163 1.374 . S
C2165 C2162 1.499 . S
C2165 C2166 1.373 . S
C2165 C2167 1.389 . S
C2166 H2139 0.950 . S
C2166 C2152 1.377 . S
C2166 C2165 1.373 . S
C2167 C2151 1.377 . S
C2167 C2165 1.389 . S
C2167 C2168 1.524 . S
C2168 C2167 1.524 . S
C2168 C2169 1.397 . S
C2168 C2173 1.363 . S
C2169 H2140 0.950 . S
C2169 C2168 1.397 . S
C2169 C2170 1.334 . S
C2170 H2141 0.950 . S
C2170 C2169 1.334 . S
C2170 C2171 1.287 . S
C2171 C2170 1.287 . S
C2171 C2172 1.524 . S
C2171 H2174 0.999 . S
C2172 H2142 0.950 . S
C2172 C2171 1.524 . S
C2172 C2173 1.415 . S
C2173 H2143 0.950 . S
C2173 C2168 1.363 . S
C2173 C2172 1.415 . S
H2174 C2171 0.999 . S
H2175 C2156 0.913 . S
C595 C148 1.292 1_554 S
C610 C4 1.294 . S
C645 C184 1.293 1_554 S
C660 C40 1.293 . S
C695 C220 1.292 1_554 S
C710 C76 1.294 . S
C745 C256 1.292 1_554 S
C760 C112 1.294 . S
C795 C436 1.294 . S
C810 C292 1.293 . S
C845 C472 1.294 . S
C860 C328 1.293 . S
C895 C364 1.293 . S
C910 C508 1.293 . S
C945 C544 1.293 . S
C960 C400 1.294 . S
C995 C3 1.435 . S
C1010 C183 1.436 1_556 S
C1045 C219 1.435 1_556 S
C1060 C39 1.436 . S
C1095 C75 1.435 . S
C1110 C255 1.435 1_556 S
C1145 C147 1.435 1_556 S
C1160 C111 1.435 . S
C1195 C471 1.436 . S
C1210 C291 1.436 . S
C1245 C507 1.436 . S
C1260 C327 1.436 . S
C1295 C363 1.436 . S
C1310 C543 1.436 . S
C1345 C399 1.436 . S
C1360 C435 1.435 . S
C1395 C542 1.413 . S
C1410 C2 1.413 . S
C1445 C434 1.413 . S
C1460 C38 1.413 . S
C1495 C470 1.413 . S
C1510 C74 1.414 . S
C1545 C506 1.413 . S
C1560 C110 1.413 . S
C1595 C326 1.413 . S
C1610 C146 1.413 . S
C1645 C362 1.413 . S
C1660 C182 1.413 . S
C1695 C218 1.413 . S
C1710 C398 1.413 . S
C1745 C254 1.413 . S
C1760 C290 1.413 . S
C1795 C482 1.267 . S
C1810 C86 1.266 . S
C1845 C518 1.267 . S
C1860 C122 1.267 . S
C1895 C554 1.267 . S
C1910 C14 1.267 . S
C1945 C50 1.266 . S
C1960 C446 1.267 . S
C1995 C410 1.266 . S
C2010 C230 1.267 . S
C2045 C266 1.267 . S
C2060 C302 1.267 . S
C2095 C338 1.267 . S
C2110 C158 1.267 . S
C2145 C374 1.267 . S
C2160 C194 1.266 . S
