# Generated by pormake.
# Topology vbb, (4)-cn, num edge types: 1
# Building blocks:
#     Node 0, Type 0, BuildingBlock: GALJAG_clean_sbu_0, # of connection points: 4
#     Node 1, Type 0, BuildingBlock: GALJAG_clean_sbu_0, # of connection points: 4
#     Node 2, Type 0, BuildingBlock: GALJAG_clean_sbu_0, # of connection points: 4
#     Node 3, Type 0, BuildingBlock: GALJAG_clean_sbu_0, # of connection points: 4
#     Node 4, Type 0, BuildingBlock: GALJAG_clean_sbu_0, # of connection points: 4
#     Node 5, Type 0, BuildingBlock: GALJAG_clean_sbu_0, # of connection points: 4
#     Node 6, Type 0, BuildingBlock: GALJAG_clean_sbu_0, # of connection points: 4
#     Node 7, Type 0, BuildingBlock: GALJAG_clean_sbu_0, # of connection points: 4
#     Node 8, Type 0, BuildingBlock: GALJAG_clean_sbu_0, # of connection points: 4
#     Node 9, Type 0, BuildingBlock: GALJAG_clean_sbu_0, # of connection points: 4
#     Node 10, Type 0, BuildingBlock: GALJAG_clean_sbu_0, # of connection points: 4
#     Node 11, Type 0, BuildingBlock: GALJAG_clean_sbu_0, # of connection points: 4
#     Node 12, Type 0, BuildingBlock: GALJAG_clean_sbu_0, # of connection points: 4
#     Node 13, Type 0, BuildingBlock: GALJAG_clean_sbu_0, # of connection points: 4
#     Node 14, Type 0, BuildingBlock: GALJAG_clean_sbu_0, # of connection points: 4
#     Node 15, Type 0, BuildingBlock: GALJAG_clean_sbu_0, # of connection points: 4
#     Node 16, Type 0, BuildingBlock: GALJAG_clean_sbu_0, # of connection points: 4
#     Node 17, Type 0, BuildingBlock: GALJAG_clean_sbu_0, # of connection points: 4
#     Node 18, Type 0, BuildingBlock: GALJAG_clean_sbu_0, # of connection points: 4
#     Node 19, Type 0, BuildingBlock: GALJAG_clean_sbu_0, # of connection points: 4
#     Node 20, Type 0, BuildingBlock: GALJAG_clean_sbu_0, # of connection points: 4
#     Node 21, Type 0, BuildingBlock: GALJAG_clean_sbu_0, # of connection points: 4
#     Node 22, Type 0, BuildingBlock: GALJAG_clean_sbu_0, # of connection points: 4
#     Node 23, Type 0, BuildingBlock: GALJAG_clean_sbu_0, # of connection points: 4
#     Node 24, Type 0, BuildingBlock: GALJAG_clean_sbu_0, # of connection points: 4
#     Node 25, Type 0, BuildingBlock: GALJAG_clean_sbu_0, # of connection points: 4
#     Node 26, Type 0, BuildingBlock: GALJAG_clean_sbu_0, # of connection points: 4
#     Node 27, Type 0, BuildingBlock: GALJAG_clean_sbu_0, # of connection points: 4
#     Node 28, Type 0, BuildingBlock: GALJAG_clean_sbu_0, # of connection points: 4
#     Node 29, Type 0, BuildingBlock: GALJAG_clean_sbu_0, # of connection points: 4
#     Node 30, Type 0, BuildingBlock: GALJAG_clean_sbu_0, # of connection points: 4
#     Node 31, Type 0, BuildingBlock: GALJAG_clean_sbu_0, # of connection points: 4
#     Edge 32, Type (0, 0), None
#     Edge 33, Type (0, 0), None
#     Edge 34, Type (0, 0), None
#     Edge 35, Type (0, 0), None
#     Edge 36, Type (0, 0), None
#     Edge 37, Type (0, 0), None
#     Edge 38, Type (0, 0), None
#     Edge 39, Type (0, 0), None
#     Edge 40, Type (0, 0), None
#     Edge 41, Type (0, 0), None
#     Edge 42, Type (0, 0), None
#     Edge 43, Type (0, 0), None
#     Edge 44, Type (0, 0), None
#     Edge 45, Type (0, 0), None
#     Edge 46, Type (0, 0), None
#     Edge 47, Type (0, 0), None
#     Edge 48, Type (0, 0), None
#     Edge 49, Type (0, 0), None
#     Edge 50, Type (0, 0), None
#     Edge 51, Type (0, 0), None
#     Edge 52, Type (0, 0), None
#     Edge 53, Type (0, 0), None
#     Edge 54, Type (0, 0), None
#     Edge 55, Type (0, 0), None
#     Edge 56, Type (0, 0), None
#     Edge 57, Type (0, 0), None
#     Edge 58, Type (0, 0), None
#     Edge 59, Type (0, 0), None
#     Edge 60, Type (0, 0), None
#     Edge 61, Type (0, 0), None
#     Edge 62, Type (0, 0), None
#     Edge 63, Type (0, 0), None
#     Edge 64, Type (0, 0), None
#     Edge 65, Type (0, 0), None
#     Edge 66, Type (0, 0), None
#     Edge 67, Type (0, 0), None
#     Edge 68, Type (0, 0), None
#     Edge 69, Type (0, 0), None
#     Edge 70, Type (0, 0), None
#     Edge 71, Type (0, 0), None
#     Edge 72, Type (0, 0), None
#     Edge 73, Type (0, 0), None
#     Edge 74, Type (0, 0), None
#     Edge 75, Type (0, 0), None
#     Edge 76, Type (0, 0), None
#     Edge 77, Type (0, 0), None
#     Edge 78, Type (0, 0), None
#     Edge 79, Type (0, 0), None
#     Edge 80, Type (0, 0), None
#     Edge 81, Type (0, 0), None
#     Edge 82, Type (0, 0), None
#     Edge 83, Type (0, 0), None
#     Edge 84, Type (0, 0), None
#     Edge 85, Type (0, 0), None
#     Edge 86, Type (0, 0), None
#     Edge 87, Type (0, 0), None
#     Edge 88, Type (0, 0), None
#     Edge 89, Type (0, 0), None
#     Edge 90, Type (0, 0), None
#     Edge 91, Type (0, 0), None
#     Edge 92, Type (0, 0), None
#     Edge 93, Type (0, 0), None
#     Edge 94, Type (0, 0), None
#     Edge 95, Type (0, 0), None
# Relax obj value: 0.084
# Max RMSD: 0.409
# Mean RMSD: 0.266
data_MOF--net-vbb--node1-GALJAG_clean_sbu_0--edge1-none
_symmetry_space_group_name_H-M    P1
_symmetry_Int_Tables_number       1
_symmetry_cell_setting            triclinic
loop_
_symmetry_equiv_pos_as_xyz
'x, y, z'
_cell_length_a     22.600285
_cell_length_b     14.058559
_cell_length_c     49.368778
_cell_angle_alpha  89.086274
_cell_angle_beta   99.181126
_cell_angle_gamma 89.836874
loop_
_atom_site_label
_atom_site_type_symbol
_atom_site_fract_x
_atom_site_fract_y
_atom_site_fract_z
_atom_type_partial_charge
In0 In 0.45078 0.10327 0.04467 0.0
O1 O 0.41198 0.96936 0.05823 0.0
O2 O 0.3506 0.07656 0.03768 0.0
C3 C 0.5541 0.19245 0.04881 0.0
C4 C 0.46788 0.02411 -0.00193 0.0
C5 C 0.4366 0.18233 0.09084 0.0
O6 O 0.54944 0.10751 0.05762 0.0
O7 O 0.50583 0.2333 0.03743 0.0
O8 O 0.41892 0.22496 0.06791 0.0
O9 O 0.46088 0.1008 0.09004 0.0
C10 C 0.35814 0.99511 0.04957 0.0
O11 O 0.43593 0.09928 -0.00178 0.0
O12 O 0.49043 0.98952 0.02139 0.0
In13 In 0.72423 0.29926 0.05161 0.0
O14 O 0.75273 0.2102 0.01862 0.0
O15 O 0.6953 0.33195 0.00702 0.0
C16 C 0.75457 0.23296 0.10221 0.0
C17 C 0.80907 0.42904 0.0515 0.0
C18 C 0.61327 0.23535 0.0499 0.0
O19 O 0.76438 0.18691 0.08148 0.0
O20 O 0.73163 0.31529 0.09748 0.0
O21 O 0.62323 0.32469 0.05007 0.0
O22 O 0.65854 0.18196 0.05076 0.0
C23 C 0.72367 0.26173 -0.00034 0.0
O24 O 0.75449 0.45431 0.05033 0.0
O25 O 0.81969 0.3407 0.05383 0.0
In26 In 0.46619 0.29081 0.16757 0.0
O27 O 0.44141 0.20603 0.20308 0.0
O28 O 0.49841 0.32867 0.21126 0.0
C29 C 0.43678 0.22761 0.11715 0.0
C30 C 0.38049 0.41993 0.16676 0.0
C31 C 0.57674 0.22637 0.1688 0.0
O32 O 0.42738 0.17947 0.13802 0.0
O33 O 0.45841 0.31016 0.12167 0.0
O34 O 0.56621 0.31573 0.16779 0.0
O35 O 0.53209 0.17274 0.16915 0.0
C36 C 0.47141 0.25983 0.22061 0.0
O37 O 0.43474 0.44505 0.16711 0.0
O38 O 0.37028 0.33148 0.16568 0.0
In39 In 0.74088 0.09834 0.17413 0.0
O40 O 0.75902 0.09758 0.22046 0.0
O41 O 0.7037 0.98686 0.19958 0.0
C42 C 0.75476 0.1845 0.1284 0.0
C43 C 0.83172 0.98658 0.16872 0.0
C44 C 0.63617 0.18428 0.16979 0.0
O45 O 0.77248 0.22378 0.15142 0.0
O46 O 0.73086 0.10279 0.12895 0.0
O47 O 0.64187 0.09973 0.16157 0.0
O48 O 0.68395 0.22608 0.18051 0.0
C49 C 0.7275 0.02294 0.22212 0.0
O50 O 0.77747 0.96287 0.16076 0.0
O51 O 0.8404 0.06737 0.18004 0.0
In52 In 0.49549 0.90029 0.92589 0.0
O53 O 0.51034 0.90429 0.97234 0.0
O54 O 0.45583 0.01404 0.94917 0.0
C55 C 0.50967 0.82123 0.87972 0.0
C56 C 0.58813 0.00845 0.92099 0.0
C57 C 0.39217 0.81112 0.92175 0.0
O58 O 0.52735 0.7786 0.90265 0.0
O59 O 0.48539 0.90277 0.88052 0.0
O60 O 0.39683 0.89606 0.91294 0.0
O61 O 0.44044 0.77026 0.93313 0.0
C62 C 0.47839 0.97945 0.97249 0.0
O63 O 0.53429 0.03421 0.91233 0.0
O64 O 0.59567 0.927 0.93288 0.0
In65 In 0.22204 0.7043 0.91895 0.0
O66 O 0.19178 0.54925 0.92023 0.0
O67 O 0.12658 0.66286 0.91673 0.0
C68 C 0.33299 0.76821 0.92065 0.0
C69 C 0.2226 0.74183 0.9709 0.0
C70 C 0.1917 0.7706 0.86835 0.0
O71 O 0.32304 0.67887 0.92049 0.0
O72 O 0.28773 0.82161 0.9198 0.0
O73 O 0.18189 0.81666 0.88908 0.0
O74 O 0.21463 0.68827 0.87308 0.0
C75 C 0.1372 0.57452 0.91906 0.0
O76 O 0.19354 0.79336 0.95194 0.0
O77 O 0.25097 0.67162 0.96354 0.0
In78 In 0.48008 0.71275 0.80299 0.0
O79 O 0.50486 0.79753 0.76748 0.0
O80 O 0.44786 0.6749 0.7593 0.0
C81 C 0.50949 0.77596 0.85341 0.0
C82 C 0.56578 0.58363 0.8038 0.0
C83 C 0.36953 0.77719 0.80175 0.0
O84 O 0.51889 0.82409 0.83254 0.0
O85 O 0.48785 0.69341 0.84889 0.0
O86 O 0.38006 0.68784 0.80277 0.0
O87 O 0.41418 0.83083 0.80141 0.0
C88 C 0.47486 0.74373 0.74995 0.0
O89 O 0.51153 0.55852 0.80345 0.0
O90 O 0.57599 0.67209 0.80488 0.0
In91 In 0.20539 0.90522 0.79643 0.0
O92 O 0.1688 0.04069 0.8098 0.0
O93 O 0.10587 0.93619 0.79052 0.0
C94 C 0.3101 0.81928 0.80077 0.0
C95 C 0.21877 0.98063 0.74844 0.0
C96 C 0.19151 0.81906 0.84215 0.0
O97 O 0.3044 0.90384 0.80899 0.0
O98 O 0.26232 0.77748 0.79005 0.0
O99 O 0.17379 0.77978 0.81914 0.0
O100 O 0.21541 0.90077 0.84161 0.0
C101 C 0.11455 0.01698 0.80184 0.0
O102 O 0.18725 0.90598 0.7501 0.0
O103 O 0.24257 0.0167 0.77098 0.0
In104 In 0.45077 0.6033 0.54466 0.0
O105 O 0.43593 0.59929 0.49821 0.0
O106 O 0.49043 0.48954 0.52139 0.0
C107 C 0.43659 0.68236 0.59083 0.0
C108 C 0.35813 0.49514 0.54956 0.0
C109 C 0.55409 0.69248 0.5488 0.0
O110 O 0.41891 0.72499 0.5679 0.0
O111 O 0.46087 0.60083 0.59004 0.0
O112 O 0.54943 0.60754 0.55761 0.0
O113 O 0.50582 0.73333 0.53743 0.0
C114 C 0.46787 0.52412 0.49807 0.0
O115 O 0.41197 0.46939 0.55823 0.0
O116 O 0.35059 0.57659 0.53767 0.0
In117 In 0.72422 0.79929 0.55161 0.0
O118 O 0.75273 0.71022 0.51863 0.0
O119 O 0.6953 0.83195 0.50702 0.0
C120 C 0.75456 0.733 0.60221 0.0
C121 C 0.80905 0.92908 0.5515 0.0
C122 C 0.61326 0.73539 0.5499 0.0
O123 O 0.76437 0.68694 0.58148 0.0
O124 O 0.73162 0.81533 0.59748 0.0
O125 O 0.62322 0.82473 0.55006 0.0
O126 O 0.65853 0.68199 0.55075 0.0
C127 C 0.72367 0.76174 0.49966 0.0
O128 O 0.75448 0.95434 0.55032 0.0
O129 O 0.81968 0.84074 0.55382 0.0
In130 In 0.46617 0.79085 0.66756 0.0
O131 O 0.4414 0.70607 0.70308 0.0
O132 O 0.49839 0.8287 0.71126 0.0
C133 C 0.43676 0.72764 0.61714 0.0
C134 C 0.38047 0.91997 0.66676 0.0
C135 C 0.57672 0.72641 0.6688 0.0
O136 O 0.42736 0.67951 0.63802 0.0
O137 O 0.4584 0.81019 0.62166 0.0
O138 O 0.5662 0.81576 0.66778 0.0
O139 O 0.53208 0.67277 0.66915 0.0
C140 C 0.47139 0.75987 0.72061 0.0
O141 O 0.43472 0.94508 0.6671 0.0
O142 O 0.37026 0.83151 0.66567 0.0
In143 In 0.74087 0.59838 0.67412 0.0
O144 O 0.759 0.59762 0.72046 0.0
O145 O 0.70369 0.4869 0.69957 0.0
C146 C 0.75475 0.68454 0.6284 0.0
C147 C 0.8317 0.48662 0.66872 0.0
C148 C 0.63616 0.68432 0.66979 0.0
O149 O 0.77246 0.72382 0.65142 0.0
O150 O 0.73085 0.60283 0.62894 0.0
O151 O 0.64186 0.59976 0.66157 0.0
O152 O 0.68393 0.72612 0.68051 0.0
C153 C 0.72749 0.52297 0.72211 0.0
O154 O 0.77745 0.46291 0.66075 0.0
O155 O 0.84038 0.56741 0.68003 0.0
In156 In 0.4955 0.40026 0.4259 0.0
O157 O 0.51034 0.40428 0.47235 0.0
O158 O 0.45584 0.51402 0.44917 0.0
C159 C 0.50968 0.3212 0.37973 0.0
C160 C 0.58814 0.50842 0.421 0.0
C161 C 0.39218 0.31109 0.42176 0.0
O162 O 0.52736 0.27857 0.40266 0.0
O163 O 0.4854 0.40273 0.38052 0.0
O164 O 0.39684 0.39602 0.41295 0.0
O165 O 0.44045 0.27023 0.43313 0.0
C166 C 0.47839 0.47944 0.47249 0.0
O167 O 0.5343 0.53417 0.41233 0.0
O168 O 0.59568 0.42697 0.43289 0.0
In169 In 0.22205 0.20427 0.41895 0.0
O170 O 0.19354 0.29335 0.45193 0.0
O171 O 0.25097 0.17161 0.46354 0.0
C172 C 0.19171 0.27056 0.36835 0.0
C173 C 0.13722 0.07449 0.41906 0.0
C174 C 0.33301 0.26818 0.42066 0.0
O175 O 0.1819 0.31662 0.38908 0.0
O176 O 0.21465 0.18824 0.37308 0.0
O177 O 0.32305 0.17884 0.4205 0.0
O178 O 0.28774 0.32157 0.41981 0.0
C179 C 0.2226 0.24183 0.4709 0.0
O180 O 0.19179 0.04922 0.42024 0.0
O181 O 0.12659 0.16283 0.41674 0.0
In182 In 0.4801 0.21272 0.303 0.0
O183 O 0.51155 0.05848 0.30346 0.0
O184 O 0.57601 0.17205 0.30489 0.0
C185 C 0.36955 0.27716 0.30176 0.0
C186 C 0.47488 0.2437 0.24995 0.0
C187 C 0.50951 0.27592 0.35342 0.0
O188 O 0.38007 0.1878 0.30278 0.0
O189 O 0.41419 0.33079 0.30141 0.0
O190 O 0.51891 0.32405 0.33254 0.0
O191 O 0.48787 0.19337 0.3489 0.0
C192 C 0.5658 0.0836 0.3038 0.0
O193 O 0.50487 0.29749 0.26748 0.0
O194 O 0.44788 0.17486 0.2593 0.0
In195 In 0.2054 0.40518 0.29643 0.0
O196 O 0.18726 0.40595 0.2501 0.0
O197 O 0.24258 0.51666 0.27099 0.0
C198 C 0.19152 0.31902 0.34216 0.0
C199 C 0.11457 0.51695 0.30184 0.0
C200 C 0.31011 0.31925 0.30077 0.0
O201 O 0.17381 0.27975 0.31914 0.0
O202 O 0.21542 0.40074 0.34162 0.0
O203 O 0.30441 0.4038 0.30899 0.0
O204 O 0.26234 0.27745 0.29005 0.0
C205 C 0.21878 0.48059 0.24845 0.0
O206 O 0.16882 0.54066 0.30981 0.0
O207 O 0.10589 0.43616 0.29053 0.0
In208 In 0.95075 0.10327 0.54466 0.0
O209 O 0.91203 0.9693 0.55824 0.0
O210 O 0.85059 0.07643 0.53769 0.0
C211 C 0.05402 0.19258 0.54879 0.0
C212 C 0.96787 0.02411 0.49807 0.0
C213 C 0.93656 0.18231 0.59083 0.0
O214 O 0.04941 0.10764 0.5576 0.0
O215 O 0.00573 0.23337 0.53741 0.0
O216 O 0.91885 0.22492 0.56791 0.0
O217 O 0.96088 0.10081 0.59004 0.0
C218 C 0.85818 0.99499 0.54958 0.0
O219 O 0.93588 0.09923 0.49821 0.0
O220 O -0.00954 0.98956 0.52139 0.0
In221 In 0.22411 0.29954 0.55156 0.0
O222 O 0.2526 0.21051 0.51857 0.0
O223 O 0.19516 0.33226 0.50697 0.0
C224 C 0.25449 0.23321 0.60215 0.0
C225 C 0.30898 0.42927 0.55146 0.0
C226 C 0.11318 0.23555 0.54987 0.0
O227 O 0.26429 0.18717 0.58141 0.0
O228 O 0.23154 0.31553 0.59743 0.0
O229 O 0.1231 0.3249 0.55003 0.0
O230 O 0.15846 0.18219 0.55071 0.0
C231 C 0.22353 0.26205 0.49961 0.0
O232 O 0.25441 0.45458 0.55029 0.0
O233 O 0.31958 0.34092 0.55377 0.0
In234 In 0.96616 0.2908 0.66756 0.0
O235 O 0.93469 0.44501 0.66711 0.0
O236 O 0.87024 0.33141 0.66569 0.0
C237 C 0.07672 0.22643 0.66878 0.0
C238 C 0.9714 0.25985 0.72061 0.0
C239 C 0.93672 0.22758 0.61715 0.0
O240 O 0.06617 0.31578 0.66776 0.0
O241 O 0.03209 0.17277 0.66914 0.0
O242 O 0.92736 0.17944 0.63802 0.0
O243 O 0.95833 0.31015 0.62166 0.0
C244 C 0.88045 0.41987 0.66678 0.0
O245 O 0.94141 0.20602 0.70308 0.0
O246 O -0.00161 0.32868 0.71125 0.0
In247 In 0.24089 0.09852 0.67407 0.0
O248 O 0.25903 0.09776 0.72041 0.0
O249 O 0.20372 0.98704 0.69952 0.0
C250 C 0.25472 0.18472 0.62835 0.0
C251 C 0.33173 0.98674 0.66868 0.0
C252 C 0.13616 0.18439 0.66975 0.0
O253 O 0.27244 0.22399 0.65136 0.0
O254 O 0.23085 0.10299 0.62889 0.0
O255 O 0.14188 0.09985 0.66153 0.0
O256 O 0.18393 0.22621 0.68047 0.0
C257 C 0.22752 0.02311 0.72206 0.0
O258 O 0.27748 0.96304 0.66071 0.0
O259 O 0.34041 0.06754 0.67998 0.0
In260 In -0.00448 0.90029 0.42589 0.0
O261 O 0.03424 0.03426 0.41232 0.0
O262 O 0.09568 0.92713 0.43287 0.0
C263 C 0.89225 0.81098 0.42177 0.0
C264 C -0.0216 0.97945 0.47249 0.0
C265 C 0.00971 0.82126 0.37973 0.0
O266 O 0.89686 0.89593 0.41296 0.0
O267 O 0.94054 0.77019 0.43315 0.0
O268 O 0.02742 0.77865 0.40265 0.0
O269 O -0.01461 0.90275 0.38052 0.0
C270 C 0.08809 0.00858 0.42098 0.0
O271 O 0.01039 0.90433 0.47235 0.0
O272 O 0.95581 0.01401 0.44917 0.0
In273 In 0.72216 0.70402 0.419 0.0
O274 O 0.69367 0.79305 0.45199 0.0
O275 O 0.7511 0.6713 0.46359 0.0
C276 C 0.69178 0.77036 0.36841 0.0
C277 C 0.63729 0.57429 0.4191 0.0
C278 C 0.83309 0.76802 0.42069 0.0
O279 O 0.68198 0.81639 0.38915 0.0
O280 O 0.71473 0.68803 0.37313 0.0
O281 O 0.82317 0.67866 0.42053 0.0
O282 O 0.78781 0.82137 0.41985 0.0
C283 C 0.72274 0.74152 0.47095 0.0
O284 O 0.69186 0.54899 0.42027 0.0
O285 O 0.62669 0.66264 0.41679 0.0
In286 In -0.01989 0.71277 0.303 0.0
O287 O 0.01158 0.55855 0.30345 0.0
O288 O 0.07603 0.67215 0.30487 0.0
C289 C 0.86955 0.77713 0.30178 0.0
C290 C -0.02513 0.74372 0.24995 0.0
C291 C 0.00955 0.77598 0.35341 0.0
O292 O 0.8801 0.68778 0.3028 0.0
O293 O 0.91418 0.83079 0.30142 0.0
O294 O 0.01891 0.82413 0.33254 0.0
O295 O -0.01206 0.69341 0.3489 0.0
C296 C 0.06582 0.5837 0.30378 0.0
O297 O 0.00486 0.79755 0.26748 0.0
O298 O 0.94788 0.67488 0.25931 0.0
In299 In 0.70538 0.90505 0.29649 0.0
O300 O 0.68724 0.9058 0.25015 0.0
O301 O 0.74255 0.01653 0.27104 0.0
C302 C 0.69155 0.81884 0.34221 0.0
C303 C 0.61454 0.01683 0.30188 0.0
C304 C 0.81011 0.81918 0.30081 0.0
O305 O 0.67383 0.77957 0.3192 0.0
O306 O 0.71542 0.90058 0.34167 0.0
O307 O 0.80439 0.90372 0.30903 0.0
O308 O 0.76234 0.77735 0.29009 0.0
C309 C 0.71875 0.98045 0.2485 0.0
O310 O 0.66879 0.04052 0.30985 0.0
O311 O 0.60586 0.93602 0.29058 0.0
In312 In 0.95076 0.60324 0.04467 0.0
O313 O 0.93588 0.59923 -0.00178 0.0
O314 O -0.00954 0.48954 0.02139 0.0
C315 C 0.93657 0.68228 0.09084 0.0
C316 C 0.85819 0.49495 0.04959 0.0
C317 C 0.05404 0.69255 0.04879 0.0
O318 O 0.91886 0.72489 0.06791 0.0
O319 O 0.96089 0.60078 0.09004 0.0
O320 O 0.04942 0.6076 0.0576 0.0
O321 O 0.00574 0.73334 0.03742 0.0
C322 C 0.96787 0.5241 -0.00193 0.0
O323 O 0.91204 0.46927 0.05824 0.0
O324 O 0.8506 0.5764 0.0377 0.0
In325 In 0.22412 0.7995 0.05156 0.0
O326 O 0.2526 0.71049 0.01857 0.0
O327 O 0.19517 0.83225 0.00698 0.0
C328 C 0.2545 0.73317 0.10215 0.0
C329 C 0.30899 0.92923 0.05147 0.0
C330 C 0.11319 0.73551 0.04987 0.0
O331 O 0.2643 0.68713 0.08142 0.0
O332 O 0.23156 0.81549 0.09743 0.0
O333 O 0.12311 0.82487 0.05004 0.0
O334 O 0.15847 0.68216 0.05071 0.0
C335 C 0.22354 0.76204 -0.00039 0.0
O336 O 0.25442 0.95454 0.05029 0.0
O337 O 0.31959 0.84089 0.05377 0.0
In338 In 0.96618 0.79076 0.16757 0.0
O339 O 0.9347 0.94498 0.16712 0.0
O340 O 0.87026 0.83138 0.16569 0.0
C341 C 0.07674 0.7264 0.16878 0.0
C342 C 0.97141 0.75981 0.22061 0.0
C343 C 0.93674 0.72755 0.11715 0.0
O344 O 0.06619 0.81575 0.16776 0.0
O345 O 0.03211 0.67274 0.16914 0.0
O346 O 0.92738 0.67941 0.13803 0.0
O347 O 0.95835 0.81012 0.12166 0.0
C348 C 0.88046 0.91983 0.16679 0.0
O349 O 0.94143 0.70599 0.20309 0.0
O350 O -0.00159 0.82865 0.21126 0.0
In351 In 0.2409 0.59848 0.17407 0.0
O352 O 0.25905 0.59772 0.22041 0.0
O353 O 0.20373 0.487 0.19952 0.0
C354 C 0.25474 0.68468 0.12835 0.0
C355 C 0.33175 0.4867 0.16868 0.0
C356 C 0.13618 0.68435 0.16976 0.0
O357 O 0.27246 0.72395 0.15137 0.0
O358 O 0.23087 0.60294 0.12889 0.0
O359 O 0.14189 0.59981 0.16153 0.0
O360 O 0.18395 0.72618 0.18047 0.0
C361 C 0.22753 0.52307 0.22206 0.0
O362 O 0.2775 0.463 0.16071 0.0
O363 O 0.34042 0.5675 0.17999 0.0
In364 In -0.00449 0.40032 0.92589 0.0
O365 O 0.01039 0.40434 0.97234 0.0
O366 O 0.95581 0.51402 0.94917 0.0
C367 C 0.0097 0.32129 0.87972 0.0
C368 C 0.08808 0.50861 0.92097 0.0
C369 C 0.89223 0.31102 0.92177 0.0
O370 O 0.02741 0.27867 0.90265 0.0
O371 O -0.01462 0.40278 0.88052 0.0
O372 O 0.89685 0.39596 0.91296 0.0
O373 O 0.94052 0.27022 0.93314 0.0
C374 C -0.0216 0.47946 0.97249 0.0
O375 O 0.03422 0.53429 0.91231 0.0
O376 O 0.09567 0.42716 0.93286 0.0
In377 In 0.72215 0.20406 0.919 0.0
O378 O 0.69367 0.29307 0.95199 0.0
O379 O 0.7511 0.17132 0.96358 0.0
C380 C 0.69176 0.2704 0.86841 0.0
C381 C 0.63728 0.07433 0.91909 0.0
C382 C 0.83308 0.26805 0.92069 0.0
O383 O 0.68197 0.31643 0.88914 0.0
O384 O 0.71471 0.18807 0.87313 0.0
O385 O 0.82316 0.1787 0.92052 0.0
O386 O 0.7878 0.32141 0.91985 0.0
C387 C 0.72273 0.24153 0.97095 0.0
O388 O 0.69185 0.04902 0.92027 0.0
O389 O 0.62668 0.16268 0.91679 0.0
In390 In -0.01991 0.2128 0.80299 0.0
O391 O 0.01157 0.05859 0.80344 0.0
O392 O 0.07601 0.17219 0.80487 0.0
C393 C 0.86953 0.27716 0.80178 0.0
C394 C -0.02515 0.24375 0.74995 0.0
C395 C 0.00953 0.27601 0.85341 0.0
O396 O 0.88008 0.18781 0.8028 0.0
O397 O 0.91416 0.33083 0.80142 0.0
O398 O 0.01889 0.32416 0.83253 0.0
O399 O -0.01208 0.19344 0.8489 0.0
C400 C 0.06581 0.08373 0.80377 0.0
O401 O 0.00484 0.29758 0.76747 0.0
O402 O 0.94786 0.17492 0.7593 0.0
In403 In 0.70537 0.40508 0.79649 0.0
O404 O 0.68722 0.40584 0.75015 0.0
O405 O 0.74253 0.51657 0.77104 0.0
C406 C 0.69153 0.31889 0.84221 0.0
C407 C 0.61452 0.51686 0.80188 0.0
C408 C 0.81009 0.31921 0.8008 0.0
O409 O 0.67381 0.27961 0.81919 0.0
O410 O 0.7154 0.40062 0.84167 0.0
O411 O 0.80438 0.40375 0.80903 0.0
O412 O 0.76232 0.27739 0.79009 0.0
C413 C 0.71874 0.48049 0.7485 0.0
O414 O 0.66877 0.54056 0.80985 0.0
O415 O 0.60585 0.43606 0.79057 0.0
loop_
_geom_bond_atom_site_label_1
_geom_bond_atom_site_label_2
_geom_bond_distance
_geom_bond_site_symmetry_2
_ccdc_geom_bond_type
In0 O1 2.294 1_545 S
In0 O2 2.326 . S
In0 O6 2.266 . S
In0 O7 2.326 . S
In0 O8 2.266 . S
In0 O9 2.326 . S
In0 O11 2.294 . S
In0 O12 2.326 . S
O1 In0 2.294 1_565 S
O1 C10 1.240 . S
O2 In0 2.326 . S
O2 C10 1.252 1_545 S
C3 O6 1.252 . S
C3 O7 1.260 . S
C4 O11 1.240 1_556 S
C4 O12 1.252 1_556 S
C5 O8 1.252 . S
C5 O9 1.260 . S
O6 In0 2.266 . S
O6 C3 1.252 . S
O7 In0 2.326 . S
O7 C3 1.260 . S
O8 In0 2.266 . S
O8 C5 1.252 . S
O9 In0 2.326 . S
O9 C5 1.260 . S
C10 O1 1.240 . S
C10 O2 1.252 1_565 S
O11 In0 2.294 . S
O11 C4 1.240 1_554 S
O12 In0 2.326 . S
O12 C4 1.252 1_554 S
In13 O14 2.294 . S
In13 O15 2.326 . S
In13 O19 2.266 . S
In13 O20 2.326 . S
In13 O21 2.266 . S
In13 O22 2.326 . S
In13 O24 2.294 . S
In13 O25 2.326 . S
O14 In13 2.294 . S
O14 C23 1.240 . S
O15 In13 2.326 . S
O15 C23 1.252 . S
C16 O19 1.252 . S
C16 O20 1.260 . S
C17 O24 1.240 . S
C17 O25 1.252 . S
C18 O21 1.252 . S
C18 O22 1.260 . S
O19 In13 2.266 . S
O19 C16 1.252 . S
O20 In13 2.326 . S
O20 C16 1.260 . S
O21 In13 2.266 . S
O21 C18 1.252 . S
O22 In13 2.326 . S
O22 C18 1.260 . S
C23 O14 1.240 . S
C23 O15 1.252 . S
O24 In13 2.294 . S
O24 C17 1.240 . S
O25 In13 2.326 . S
O25 C17 1.252 . S
In26 O27 2.294 . S
In26 O28 2.326 . S
In26 O32 2.266 . S
In26 O33 2.326 . S
In26 O34 2.266 . S
In26 O35 2.326 . S
In26 O37 2.294 . S
In26 O38 2.326 . S
O27 In26 2.294 . S
O27 C36 1.240 . S
O28 In26 2.326 . S
O28 C36 1.252 . S
C29 O32 1.252 . S
C29 O33 1.260 . S
C30 O37 1.240 . S
C30 O38 1.252 . S
C31 O34 1.252 . S
C31 O35 1.260 . S
O32 In26 2.266 . S
O32 C29 1.252 . S
O33 In26 2.326 . S
O33 C29 1.260 . S
O34 In26 2.266 . S
O34 C31 1.252 . S
O35 In26 2.326 . S
O35 C31 1.260 . S
C36 O27 1.240 . S
C36 O28 1.252 . S
O37 In26 2.294 . S
O37 C30 1.240 . S
O38 In26 2.326 . S
O38 C30 1.252 . S
In39 O40 2.294 . S
In39 O41 2.326 . S
In39 O45 2.266 . S
In39 O46 2.326 . S
In39 O47 2.266 . S
In39 O48 2.326 . S
In39 O50 2.294 1_545 S
In39 O51 2.326 . S
O40 In39 2.294 . S
O40 C49 1.240 . S
O41 In39 2.326 . S
O41 C49 1.252 . S
C42 O45 1.252 . S
C42 O46 1.260 . S
C43 O50 1.240 . S
C43 O51 1.252 1_565 S
C44 O47 1.252 . S
C44 O48 1.260 . S
O45 In39 2.266 . S
O45 C42 1.252 . S
O46 In39 2.326 . S
O46 C42 1.260 . S
O47 In39 2.266 . S
O47 C44 1.252 . S
O48 In39 2.326 . S
O48 C44 1.260 . S
C49 O40 1.240 . S
C49 O41 1.252 . S
O50 In39 2.294 1_565 S
O50 C43 1.240 . S
O51 In39 2.326 . S
O51 C43 1.252 1_545 S
In52 O53 2.294 . S
In52 O54 2.326 . S
In52 O58 2.266 . S
In52 O59 2.326 . S
In52 O60 2.266 . S
In52 O61 2.326 . S
In52 O63 2.294 1_565 S
In52 O64 2.326 . S
O53 In52 2.294 . S
O53 C62 1.240 1_556 S
O54 In52 2.326 . S
O54 C62 1.252 1_556 S
C55 O58 1.252 . S
C55 O59 1.260 . S
C56 O63 1.240 . S
C56 O64 1.252 1_545 S
C57 O60 1.252 . S
C57 O61 1.260 . S
O58 In52 2.266 . S
O58 C55 1.252 . S
O59 In52 2.326 . S
O59 C55 1.260 . S
O60 In52 2.266 . S
O60 C57 1.252 . S
O61 In52 2.326 . S
O61 C57 1.260 . S
C62 O53 1.240 1_554 S
C62 O54 1.252 1_554 S
O63 In52 2.294 1_545 S
O63 C56 1.240 . S
O64 In52 2.326 . S
O64 C56 1.252 1_565 S
In65 O66 2.294 . S
In65 O67 2.326 . S
In65 O71 2.266 . S
In65 O72 2.326 . S
In65 O73 2.266 . S
In65 O74 2.326 . S
In65 O76 2.294 . S
In65 O77 2.326 . S
O66 In65 2.294 . S
O66 C75 1.240 . S
O67 In65 2.326 . S
O67 C75 1.252 . S
C68 O71 1.252 . S
C68 O72 1.260 . S
C69 O76 1.240 . S
C69 O77 1.252 . S
C70 O73 1.252 . S
C70 O74 1.260 . S
O71 In65 2.266 . S
O71 C68 1.252 . S
O72 In65 2.326 . S
O72 C68 1.260 . S
O73 In65 2.266 . S
O73 C70 1.252 . S
O74 In65 2.326 . S
O74 C70 1.260 . S
C75 O66 1.240 . S
C75 O67 1.252 . S
O76 In65 2.294 . S
O76 C69 1.240 . S
O77 In65 2.326 . S
O77 C69 1.252 . S
In78 O79 2.294 . S
In78 O80 2.326 . S
In78 O84 2.266 . S
In78 O85 2.326 . S
In78 O86 2.266 . S
In78 O87 2.326 . S
In78 O89 2.294 . S
In78 O90 2.326 . S
O79 In78 2.294 . S
O79 C88 1.240 . S
O80 In78 2.326 . S
O80 C88 1.252 . S
C81 O84 1.252 . S
C81 O85 1.260 . S
C82 O89 1.240 . S
C82 O90 1.252 . S
C83 O86 1.252 . S
C83 O87 1.260 . S
O84 In78 2.266 . S
O84 C81 1.252 . S
O85 In78 2.326 . S
O85 C81 1.260 . S
O86 In78 2.266 . S
O86 C83 1.252 . S
O87 In78 2.326 . S
O87 C83 1.260 . S
C88 O79 1.240 . S
C88 O80 1.252 . S
O89 In78 2.294 . S
O89 C82 1.240 . S
O90 In78 2.326 . S
O90 C82 1.252 . S
In91 O92 2.294 1_565 S
In91 O93 2.326 . S
In91 O97 2.266 . S
In91 O98 2.326 . S
In91 O99 2.266 . S
In91 O100 2.326 . S
In91 O102 2.294 . S
In91 O103 2.326 . S
O92 In91 2.294 1_545 S
O92 C101 1.240 . S
O93 In91 2.326 . S
O93 C101 1.252 1_565 S
C94 O97 1.252 . S
C94 O98 1.260 . S
C95 O102 1.240 . S
C95 O103 1.252 . S
C96 O99 1.252 . S
C96 O100 1.260 . S
O97 In91 2.266 . S
O97 C94 1.252 . S
O98 In91 2.326 . S
O98 C94 1.260 . S
O99 In91 2.266 . S
O99 C96 1.252 . S
O100 In91 2.326 . S
O100 C96 1.260 . S
C101 O92 1.240 . S
C101 O93 1.252 1_545 S
O102 In91 2.294 . S
O102 C95 1.240 . S
O103 In91 2.326 . S
O103 C95 1.252 . S
In104 O105 2.294 . S
In104 O106 2.326 . S
In104 O110 2.266 . S
In104 O111 2.326 . S
In104 O112 2.266 . S
In104 O113 2.326 . S
In104 O115 2.294 . S
In104 O116 2.326 . S
O105 In104 2.294 . S
O105 C114 1.240 . S
O106 In104 2.326 . S
O106 C114 1.252 . S
C107 O110 1.252 . S
C107 O111 1.260 . S
C108 O115 1.240 . S
C108 O116 1.252 . S
C109 O112 1.252 . S
C109 O113 1.260 . S
O110 In104 2.266 . S
O110 C107 1.252 . S
O111 In104 2.326 . S
O111 C107 1.260 . S
O112 In104 2.266 . S
O112 C109 1.252 . S
O113 In104 2.326 . S
O113 C109 1.260 . S
C114 O105 1.240 . S
C114 O106 1.252 . S
O115 In104 2.294 . S
O115 C108 1.240 . S
O116 In104 2.326 . S
O116 C108 1.252 . S
In117 O118 2.294 . S
In117 O119 2.326 . S
In117 O123 2.266 . S
In117 O124 2.326 . S
In117 O125 2.266 . S
In117 O126 2.326 . S
In117 O128 2.294 . S
In117 O129 2.326 . S
O118 In117 2.294 . S
O118 C127 1.240 . S
O119 In117 2.326 . S
O119 C127 1.252 . S
C120 O123 1.252 . S
C120 O124 1.260 . S
C121 O128 1.240 . S
C121 O129 1.252 . S
C122 O125 1.252 . S
C122 O126 1.260 . S
O123 In117 2.266 . S
O123 C120 1.252 . S
O124 In117 2.326 . S
O124 C120 1.260 . S
O125 In117 2.266 . S
O125 C122 1.252 . S
O126 In117 2.326 . S
O126 C122 1.260 . S
C127 O118 1.240 . S
C127 O119 1.252 . S
O128 In117 2.294 . S
O128 C121 1.240 . S
O129 In117 2.326 . S
O129 C121 1.252 . S
In130 O131 2.294 . S
In130 O132 2.326 . S
In130 O136 2.266 . S
In130 O137 2.326 . S
In130 O138 2.266 . S
In130 O139 2.326 . S
In130 O141 2.294 . S
In130 O142 2.326 . S
O131 In130 2.294 . S
O131 C140 1.240 . S
O132 In130 2.326 . S
O132 C140 1.252 . S
C133 O136 1.252 . S
C133 O137 1.260 . S
C134 O141 1.240 . S
C134 O142 1.252 . S
C135 O138 1.252 . S
C135 O139 1.260 . S
O136 In130 2.266 . S
O136 C133 1.252 . S
O137 In130 2.326 . S
O137 C133 1.260 . S
O138 In130 2.266 . S
O138 C135 1.252 . S
O139 In130 2.326 . S
O139 C135 1.260 . S
C140 O131 1.240 . S
C140 O132 1.252 . S
O141 In130 2.294 . S
O141 C134 1.240 . S
O142 In130 2.326 . S
O142 C134 1.252 . S
In143 O144 2.294 . S
In143 O145 2.326 . S
In143 O149 2.266 . S
In143 O150 2.326 . S
In143 O151 2.266 . S
In143 O152 2.326 . S
In143 O154 2.294 . S
In143 O155 2.326 . S
O144 In143 2.294 . S
O144 C153 1.240 . S
O145 In143 2.326 . S
O145 C153 1.252 . S
C146 O149 1.252 . S
C146 O150 1.260 . S
C147 O154 1.240 . S
C147 O155 1.252 . S
C148 O151 1.252 . S
C148 O152 1.260 . S
O149 In143 2.266 . S
O149 C146 1.252 . S
O150 In143 2.326 . S
O150 C146 1.260 . S
O151 In143 2.266 . S
O151 C148 1.252 . S
O152 In143 2.326 . S
O152 C148 1.260 . S
C153 O144 1.240 . S
C153 O145 1.252 . S
O154 In143 2.294 . S
O154 C147 1.240 . S
O155 In143 2.326 . S
O155 C147 1.252 . S
In156 O157 2.294 . S
In156 O158 2.326 . S
In156 O162 2.266 . S
In156 O163 2.326 . S
In156 O164 2.266 . S
In156 O165 2.326 . S
In156 O167 2.294 . S
In156 O168 2.326 . S
O157 In156 2.294 . S
O157 C166 1.240 . S
O158 In156 2.326 . S
O158 C166 1.252 . S
C159 O162 1.252 . S
C159 O163 1.260 . S
C160 O167 1.240 . S
C160 O168 1.252 . S
C161 O164 1.252 . S
C161 O165 1.260 . S
O162 In156 2.266 . S
O162 C159 1.252 . S
O163 In156 2.326 . S
O163 C159 1.260 . S
O164 In156 2.266 . S
O164 C161 1.252 . S
O165 In156 2.326 . S
O165 C161 1.260 . S
C166 O157 1.240 . S
C166 O158 1.252 . S
O167 In156 2.294 . S
O167 C160 1.240 . S
O168 In156 2.326 . S
O168 C160 1.252 . S
In169 O170 2.294 . S
In169 O171 2.326 . S
In169 O175 2.266 . S
In169 O176 2.326 . S
In169 O177 2.266 . S
In169 O178 2.326 . S
In169 O180 2.294 . S
In169 O181 2.326 . S
O170 In169 2.294 . S
O170 C179 1.240 . S
O171 In169 2.326 . S
O171 C179 1.252 . S
C172 O175 1.252 . S
C172 O176 1.260 . S
C173 O180 1.240 . S
C173 O181 1.252 . S
C174 O177 1.252 . S
C174 O178 1.260 . S
O175 In169 2.266 . S
O175 C172 1.252 . S
O176 In169 2.326 . S
O176 C172 1.260 . S
O177 In169 2.266 . S
O177 C174 1.252 . S
O178 In169 2.326 . S
O178 C174 1.260 . S
C179 O170 1.240 . S
C179 O171 1.252 . S
O180 In169 2.294 . S
O180 C173 1.240 . S
O181 In169 2.326 . S
O181 C173 1.252 . S
In182 O183 2.294 . S
In182 O184 2.326 . S
In182 O188 2.266 . S
In182 O189 2.326 . S
In182 O190 2.266 . S
In182 O191 2.326 . S
In182 O193 2.294 . S
In182 O194 2.326 . S
O183 In182 2.294 . S
O183 C192 1.240 . S
O184 In182 2.326 . S
O184 C192 1.252 . S
C185 O188 1.252 . S
C185 O189 1.260 . S
C186 O193 1.240 . S
C186 O194 1.252 . S
C187 O190 1.252 . S
C187 O191 1.260 . S
O188 In182 2.266 . S
O188 C185 1.252 . S
O189 In182 2.326 . S
O189 C185 1.260 . S
O190 In182 2.266 . S
O190 C187 1.252 . S
O191 In182 2.326 . S
O191 C187 1.260 . S
C192 O183 1.240 . S
C192 O184 1.252 . S
O193 In182 2.294 . S
O193 C186 1.240 . S
O194 In182 2.326 . S
O194 C186 1.252 . S
In195 O196 2.294 . S
In195 O197 2.326 . S
In195 O201 2.266 . S
In195 O202 2.326 . S
In195 O203 2.266 . S
In195 O204 2.326 . S
In195 O206 2.294 . S
In195 O207 2.326 . S
O196 In195 2.294 . S
O196 C205 1.240 . S
O197 In195 2.326 . S
O197 C205 1.252 . S
C198 O201 1.252 . S
C198 O202 1.260 . S
C199 O206 1.240 . S
C199 O207 1.252 . S
C200 O203 1.252 . S
C200 O204 1.260 . S
O201 In195 2.266 . S
O201 C198 1.252 . S
O202 In195 2.326 . S
O202 C198 1.260 . S
O203 In195 2.266 . S
O203 C200 1.252 . S
O204 In195 2.326 . S
O204 C200 1.260 . S
C205 O196 1.240 . S
C205 O197 1.252 . S
O206 In195 2.294 . S
O206 C199 1.240 . S
O207 In195 2.326 . S
O207 C199 1.252 . S
In208 O209 2.294 1_545 S
In208 O210 2.326 . S
In208 O214 2.266 1_655 S
In208 O215 2.326 1_655 S
In208 O216 2.266 . S
In208 O217 2.326 . S
In208 O219 2.294 . S
In208 O220 2.326 . S
O209 In208 2.294 1_565 S
O209 C218 1.240 . S
O210 In208 2.326 . S
O210 C218 1.252 1_545 S
C211 O214 1.252 . S
C211 O215 1.260 . S
C212 O219 1.240 . S
C212 O220 1.252 . S
C213 O216 1.252 . S
C213 O217 1.260 . S
O214 In208 2.266 1_455 S
O214 C211 1.252 . S
O215 In208 2.326 1_455 S
O215 C211 1.260 . S
O216 In208 2.266 . S
O216 C213 1.252 . S
O217 In208 2.326 . S
O217 C213 1.260 . S
C218 O209 1.240 . S
C218 O210 1.252 1_565 S
O219 In208 2.294 . S
O219 C212 1.240 . S
O220 In208 2.326 . S
O220 C212 1.252 . S
In221 O222 2.294 . S
In221 O223 2.326 . S
In221 O227 2.266 . S
In221 O228 2.326 . S
In221 O229 2.266 . S
In221 O230 2.326 . S
In221 O232 2.294 . S
In221 O233 2.326 . S
O222 In221 2.294 . S
O222 C231 1.240 . S
O223 In221 2.326 . S
O223 C231 1.252 . S
C224 O227 1.252 . S
C224 O228 1.260 . S
C225 O232 1.240 . S
C225 O233 1.252 . S
C226 O229 1.252 . S
C226 O230 1.260 . S
O227 In221 2.266 . S
O227 C224 1.252 . S
O228 In221 2.326 . S
O228 C224 1.260 . S
O229 In221 2.266 . S
O229 C226 1.252 . S
O230 In221 2.326 . S
O230 C226 1.260 . S
C231 O222 1.240 . S
C231 O223 1.252 . S
O232 In221 2.294 . S
O232 C225 1.240 . S
O233 In221 2.326 . S
O233 C225 1.252 . S
In234 O235 2.294 . S
In234 O236 2.329 . S
In234 O240 2.264 1_655 S
In234 O241 2.324 1_655 S
In234 O242 2.267 . S
In234 O243 2.323 1_655 S
In234 O245 2.295 . S
In234 O246 2.326 1_655 S
O235 In234 2.294 . S
O235 C244 1.240 . S
O236 In234 2.329 . S
O236 C244 1.252 . S
C237 O240 1.252 . S
C237 O241 1.260 . S
C238 O245 1.240 . S
C238 O246 1.252 1_655 S
C239 O242 1.252 . S
C239 O243 1.256 1_655 S
O240 In234 2.264 1_455 S
O240 C237 1.252 . S
O241 In234 2.324 1_455 S
O241 C237 1.260 . S
O242 In234 2.267 . S
O242 C239 1.252 . S
O243 In234 2.323 1_455 S
O243 C239 1.256 1_455 S
C244 O235 1.240 . S
C244 O236 1.252 . S
O245 In234 2.295 . S
O245 C238 1.240 . S
O246 In234 2.326 1_455 S
O246 C238 1.252 1_455 S
In247 O248 2.294 . S
In247 O249 2.326 . S
In247 O253 2.266 . S
In247 O254 2.326 . S
In247 O255 2.266 . S
In247 O256 2.326 . S
In247 O258 2.294 1_545 S
In247 O259 2.326 . S
O248 In247 2.294 . S
O248 C257 1.240 . S
O249 In247 2.326 . S
O249 C257 1.252 . S
C250 O253 1.252 . S
C250 O254 1.260 . S
C251 O258 1.240 . S
C251 O259 1.252 1_565 S
C252 O255 1.252 . S
C252 O256 1.260 . S
O253 In247 2.266 . S
O253 C250 1.252 . S
O254 In247 2.326 . S
O254 C250 1.260 . S
O255 In247 2.266 . S
O255 C252 1.252 . S
O256 In247 2.326 . S
O256 C252 1.260 . S
C257 O248 1.240 . S
C257 O249 1.252 . S
O258 In247 2.294 1_565 S
O258 C251 1.240 . S
O259 In247 2.326 . S
O259 C251 1.252 1_545 S
In260 O261 2.294 1_565 S
In260 O262 2.326 . S
In260 O266 2.266 1_455 S
In260 O267 2.326 1_455 S
In260 O268 2.266 . S
In260 O269 2.326 . S
In260 O271 2.294 . S
In260 O272 2.326 . S
O261 In260 2.294 1_545 S
O261 C270 1.240 . S
O262 In260 2.326 . S
O262 C270 1.252 1_565 S
C263 O266 1.252 . S
C263 O267 1.260 . S
C264 O271 1.240 . S
C264 O272 1.252 . S
C265 O268 1.252 . S
C265 O269 1.260 . S
O266 In260 2.266 1_655 S
O266 C263 1.252 . S
O267 In260 2.326 1_655 S
O267 C263 1.260 . S
O268 In260 2.266 . S
O268 C265 1.252 . S
O269 In260 2.326 . S
O269 C265 1.260 . S
C270 O261 1.240 . S
C270 O262 1.252 1_545 S
O271 In260 2.294 . S
O271 C264 1.240 . S
O272 In260 2.326 . S
O272 C264 1.252 . S
In273 O274 2.294 . S
In273 O275 2.326 . S
In273 O279 2.266 . S
In273 O280 2.326 . S
In273 O281 2.266 . S
In273 O282 2.326 . S
In273 O284 2.294 . S
In273 O285 2.326 . S
O274 In273 2.294 . S
O274 C283 1.240 . S
O275 In273 2.326 . S
O275 C283 1.252 . S
C276 O279 1.252 . S
C276 O280 1.260 . S
C277 O284 1.240 . S
C277 O285 1.252 . S
C278 O281 1.252 . S
C278 O282 1.260 . S
O279 In273 2.266 . S
O279 C276 1.252 . S
O280 In273 2.326 . S
O280 C276 1.260 . S
O281 In273 2.266 . S
O281 C278 1.252 . S
O282 In273 2.326 . S
O282 C278 1.260 . S
C283 O274 1.240 . S
C283 O275 1.252 . S
O284 In273 2.294 . S
O284 C277 1.240 . S
O285 In273 2.326 . S
O285 C277 1.252 . S
In286 O287 2.294 . S
In286 O288 2.329 . S
In286 O292 2.264 1_455 S
In286 O293 2.324 1_455 S
In286 O294 2.267 . S
In286 O295 2.323 1_455 S
In286 O297 2.295 . S
In286 O298 2.326 1_455 S
O287 In286 2.294 . S
O287 C296 1.240 . S
O288 In286 2.329 . S
O288 C296 1.252 . S
C289 O292 1.252 . S
C289 O293 1.260 . S
C290 O297 1.240 . S
C290 O298 1.252 1_455 S
C291 O294 1.252 . S
C291 O295 1.256 1_455 S
O292 In286 2.264 1_655 S
O292 C289 1.252 . S
O293 In286 2.324 1_655 S
O293 C289 1.260 . S
O294 In286 2.267 . S
O294 C291 1.252 . S
O295 In286 2.323 1_655 S
O295 C291 1.256 1_655 S
C296 O287 1.240 . S
C296 O288 1.252 . S
O297 In286 2.295 . S
O297 C290 1.240 . S
O298 In286 2.326 1_655 S
O298 C290 1.252 1_655 S
In299 O300 2.294 . S
In299 O301 2.326 . S
In299 O305 2.266 . S
In299 O306 2.326 . S
In299 O307 2.266 . S
In299 O308 2.326 . S
In299 O310 2.294 1_565 S
In299 O311 2.326 . S
O300 In299 2.294 . S
O300 C309 1.240 . S
O301 In299 2.326 . S
O301 C309 1.252 . S
C302 O305 1.252 . S
C302 O306 1.260 . S
C303 O310 1.240 . S
C303 O311 1.252 1_545 S
C304 O307 1.252 . S
C304 O308 1.260 . S
O305 In299 2.266 . S
O305 C302 1.252 . S
O306 In299 2.326 . S
O306 C302 1.260 . S
O307 In299 2.266 . S
O307 C304 1.252 . S
O308 In299 2.326 . S
O308 C304 1.260 . S
C309 O300 1.240 . S
C309 O301 1.252 . S
O310 In299 2.294 1_545 S
O310 C303 1.240 . S
O311 In299 2.326 . S
O311 C303 1.252 1_565 S
In312 O313 2.294 . S
In312 O314 2.326 . S
In312 O318 2.266 . S
In312 O319 2.326 . S
In312 O320 2.266 1_655 S
In312 O321 2.326 1_655 S
In312 O323 2.294 . S
In312 O324 2.326 . S
O313 In312 2.294 . S
O313 C322 1.240 1_554 S
O314 In312 2.326 . S
O314 C322 1.252 1_554 S
C315 O318 1.252 . S
C315 O319 1.260 . S
C316 O323 1.240 . S
C316 O324 1.252 . S
C317 O320 1.252 . S
C317 O321 1.260 . S
O318 In312 2.266 . S
O318 C315 1.252 . S
O319 In312 2.326 . S
O319 C315 1.260 . S
O320 In312 2.266 1_455 S
O320 C317 1.252 . S
O321 In312 2.326 1_455 S
O321 C317 1.260 . S
C322 O313 1.240 1_556 S
C322 O314 1.252 1_556 S
O323 In312 2.294 . S
O323 C316 1.240 . S
O324 In312 2.326 . S
O324 C316 1.252 . S
In325 O326 2.294 . S
In325 O327 2.326 . S
In325 O331 2.266 . S
In325 O332 2.326 . S
In325 O333 2.266 . S
In325 O334 2.326 . S
In325 O336 2.294 . S
In325 O337 2.326 . S
O326 In325 2.294 . S
O326 C335 1.240 . S
O327 In325 2.326 . S
O327 C335 1.252 . S
C328 O331 1.252 . S
C328 O332 1.260 . S
C329 O336 1.240 . S
C329 O337 1.252 . S
C330 O333 1.252 . S
C330 O334 1.260 . S
O331 In325 2.266 . S
O331 C328 1.252 . S
O332 In325 2.326 . S
O332 C328 1.260 . S
O333 In325 2.266 . S
O333 C330 1.252 . S
O334 In325 2.326 . S
O334 C330 1.260 . S
C335 O326 1.240 . S
C335 O327 1.252 . S
O336 In325 2.294 . S
O336 C329 1.240 . S
O337 In325 2.326 . S
O337 C329 1.252 . S
In338 O339 2.294 . S
In338 O340 2.329 . S
In338 O344 2.264 1_655 S
In338 O345 2.324 1_655 S
In338 O346 2.267 . S
In338 O347 2.323 1_655 S
In338 O349 2.295 . S
In338 O350 2.326 1_655 S
O339 In338 2.294 . S
O339 C348 1.240 . S
O340 In338 2.329 . S
O340 C348 1.252 . S
C341 O344 1.252 . S
C341 O345 1.260 . S
C342 O349 1.240 . S
C342 O350 1.252 1_655 S
C343 O346 1.252 . S
C343 O347 1.256 1_655 S
O344 In338 2.264 1_455 S
O344 C341 1.252 . S
O345 In338 2.324 1_455 S
O345 C341 1.260 . S
O346 In338 2.267 . S
O346 C343 1.252 . S
O347 In338 2.323 1_455 S
O347 C343 1.256 1_455 S
C348 O339 1.240 . S
C348 O340 1.252 . S
O349 In338 2.295 . S
O349 C342 1.240 . S
O350 In338 2.326 1_455 S
O350 C342 1.252 1_455 S
In351 O352 2.294 . S
In351 O353 2.326 . S
In351 O357 2.266 . S
In351 O358 2.326 . S
In351 O359 2.266 . S
In351 O360 2.326 . S
In351 O362 2.294 . S
In351 O363 2.326 . S
O352 In351 2.294 . S
O352 C361 1.240 . S
O353 In351 2.326 . S
O353 C361 1.252 . S
C354 O357 1.252 . S
C354 O358 1.260 . S
C355 O362 1.240 . S
C355 O363 1.252 . S
C356 O359 1.252 . S
C356 O360 1.260 . S
O357 In351 2.266 . S
O357 C354 1.252 . S
O358 In351 2.326 . S
O358 C354 1.260 . S
O359 In351 2.266 . S
O359 C356 1.252 . S
O360 In351 2.326 . S
O360 C356 1.260 . S
C361 O352 1.240 . S
C361 O353 1.252 . S
O362 In351 2.294 . S
O362 C355 1.240 . S
O363 In351 2.326 . S
O363 C355 1.252 . S
In364 O365 2.294 . S
In364 O366 2.326 . S
In364 O370 2.266 . S
In364 O371 2.326 . S
In364 O372 2.266 1_455 S
In364 O373 2.326 1_455 S
In364 O375 2.294 . S
In364 O376 2.326 . S
O365 In364 2.294 . S
O365 C374 1.240 1_556 S
O366 In364 2.326 . S
O366 C374 1.252 1_556 S
C367 O370 1.252 . S
C367 O371 1.260 . S
C368 O375 1.240 . S
C368 O376 1.252 . S
C369 O372 1.252 . S
C369 O373 1.260 . S
O370 In364 2.266 . S
O370 C367 1.252 . S
O371 In364 2.326 . S
O371 C367 1.260 . S
O372 In364 2.266 1_655 S
O372 C369 1.252 . S
O373 In364 2.326 1_655 S
O373 C369 1.260 . S
C374 O365 1.240 1_554 S
C374 O366 1.252 1_554 S
O375 In364 2.294 . S
O375 C368 1.240 . S
O376 In364 2.326 . S
O376 C368 1.252 . S
In377 O378 2.294 . S
In377 O379 2.326 . S
In377 O383 2.266 . S
In377 O384 2.326 . S
In377 O385 2.266 . S
In377 O386 2.326 . S
In377 O388 2.294 . S
In377 O389 2.326 . S
O378 In377 2.294 . S
O378 C387 1.240 . S
O379 In377 2.326 . S
O379 C387 1.252 . S
C380 O383 1.252 . S
C380 O384 1.260 . S
C381 O388 1.240 . S
C381 O389 1.252 . S
C382 O385 1.252 . S
C382 O386 1.260 . S
O383 In377 2.266 . S
O383 C380 1.252 . S
O384 In377 2.326 . S
O384 C380 1.260 . S
O385 In377 2.266 . S
O385 C382 1.252 . S
O386 In377 2.326 . S
O386 C382 1.260 . S
C387 O378 1.240 . S
C387 O379 1.252 . S
O388 In377 2.294 . S
O388 C381 1.240 . S
O389 In377 2.326 . S
O389 C381 1.252 . S
In390 O391 2.294 . S
In390 O392 2.329 . S
In390 O396 2.264 1_455 S
In390 O397 2.324 1_455 S
In390 O398 2.267 . S
In390 O399 2.323 1_455 S
In390 O401 2.295 . S
In390 O402 2.326 1_455 S
O391 In390 2.294 . S
O391 C400 1.240 . S
O392 In390 2.329 . S
O392 C400 1.252 . S
C393 O396 1.252 . S
C393 O397 1.260 . S
C394 O401 1.240 . S
C394 O402 1.252 1_455 S
C395 O398 1.252 . S
C395 O399 1.256 1_455 S
O396 In390 2.264 1_655 S
O396 C393 1.252 . S
O397 In390 2.324 1_655 S
O397 C393 1.260 . S
O398 In390 2.267 . S
O398 C395 1.252 . S
O399 In390 2.323 1_655 S
O399 C395 1.256 1_655 S
C400 O391 1.240 . S
C400 O392 1.252 . S
O401 In390 2.295 . S
O401 C394 1.240 . S
O402 In390 2.326 1_655 S
O402 C394 1.252 1_655 S
In403 O404 2.294 . S
In403 O405 2.326 . S
In403 O409 2.266 . S
In403 O410 2.326 . S
In403 O411 2.266 . S
In403 O412 2.326 . S
In403 O414 2.294 . S
In403 O415 2.326 . S
O404 In403 2.294 . S
O404 C413 1.240 . S
O405 In403 2.326 . S
O405 C413 1.252 . S
C406 O409 1.252 . S
C406 O410 1.260 . S
C407 O414 1.240 . S
C407 O415 1.252 . S
C408 O411 1.252 . S
C408 O412 1.260 . S
O409 In403 2.266 . S
O409 C406 1.252 . S
O410 In403 2.326 . S
O410 C406 1.260 . S
O411 In403 2.266 . S
O411 C408 1.252 . S
O412 In403 2.326 . S
O412 C408 1.260 . S
C413 O404 1.240 . S
C413 O405 1.252 . S
O414 In403 2.294 . S
O414 C407 1.240 . S
O415 In403 2.326 . S
O415 C407 1.252 . S
C5 C29 2.325 . S
C42 C16 2.197 . S
C81 C55 2.325 . S
C96 C70 2.197 . S
C107 C133 2.325 . S
C146 C120 2.196 . S
C159 C187 2.325 . S
C198 C172 2.197 . S
C213 C239 2.330 . S
C224 C250 2.150 . S
C291 C265 2.330 . S
C276 C302 2.150 . S
C343 C315 2.330 . S
C354 C328 2.150 . S
C395 C367 2.330 . S
C380 C406 2.150 . S
C329 C10 1.934 . S
C17 C316 1.888 . S
C30 C355 1.858 . S
C43 C348 1.726 . S
C381 C56 1.934 . S
C75 C368 1.888 . S
C82 C407 1.858 . S
C400 C101 1.726 . S
C108 C225 1.935 . S
C121 C218 1.888 . S
C134 C251 1.858 . S
C147 C244 1.726 . S
C160 C277 1.935 . S
C270 C173 1.888 . S
C303 C192 1.858 . S
C199 C296 1.726 . S
C4 C62 3.796 1_546 S
C23 C387 1.444 1_554 S
C36 C186 1.520 . S
C49 C309 3.575 1_545 S
C69 C335 1.444 1_556 S
C140 C88 1.520 . S
C257 C95 3.575 1_545 S
C166 C114 3.797 . S
C127 C283 1.444 . S
C413 C153 3.574 . S
C179 C231 1.444 . S
C205 C361 3.574 . S
C264 C212 3.834 1_465 S
C238 C394 1.634 1_655 S
C342 C290 1.634 1_655 S
C374 C322 3.834 1_454 S
C3 C18 1.566 . S
C31 C44 1.503 . S
C57 C68 1.566 . S
C83 C94 1.503 . S
C122 C109 1.566 . S
C135 C148 1.504 . S
C161 C174 1.566 . S
C185 C200 1.504 . S
C211 C226 1.615 . S
C252 C237 1.502 . S
C263 C278 1.615 . S
C289 C304 1.502 . S
C330 C317 1.615 . S
C341 C356 1.502 . S
C382 C369 1.615 . S
C393 C408 1.502 . S
