# Generated by pormake.
# Topology whw, (6)-cn, num edge types: 1
# Building blocks:
#     Node 0, Type 0, BuildingBlock: JUFBIX_clean_sbu_0, # of connection points: 6
#     Node 1, Type 0, BuildingBlock: JUFBIX_clean_sbu_0, # of connection points: 6
#     Node 2, Type 0, BuildingBlock: JUFBIX_clean_sbu_0, # of connection points: 6
#     Node 3, Type 0, BuildingBlock: JUFBIX_clean_sbu_0, # of connection points: 6
#     Node 4, Type 0, BuildingBlock: JUFBIX_clean_sbu_0, # of connection points: 6
#     Node 5, Type 0, BuildingBlock: JUFBIX_clean_sbu_0, # of connection points: 6
#     Node 6, Type 0, BuildingBlock: JUFBIX_clean_sbu_0, # of connection points: 6
#     Node 7, Type 0, BuildingBlock: JUFBIX_clean_sbu_0, # of connection points: 6
#     Node 8, Type 0, BuildingBlock: JUFBIX_clean_sbu_0, # of connection points: 6
#     Node 9, Type 0, BuildingBlock: JUFBIX_clean_sbu_0, # of connection points: 6
#     Node 10, Type 0, BuildingBlock: JUFBIX_clean_sbu_0, # of connection points: 6
#     Node 11, Type 0, BuildingBlock: JUFBIX_clean_sbu_0, # of connection points: 6
#     Node 12, Type 0, BuildingBlock: JUFBIX_clean_sbu_0, # of connection points: 6
#     Node 13, Type 0, BuildingBlock: JUFBIX_clean_sbu_0, # of connection points: 6
#     Node 14, Type 0, BuildingBlock: JUFBIX_clean_sbu_0, # of connection points: 6
#     Node 15, Type 0, BuildingBlock: JUFBIX_clean_sbu_0, # of connection points: 6
#     Edge 16, Type (0, 0), BuildingBlock: CIFDUS_clean_linker_0, # of connection points: 2
#     Edge 17, Type (0, 0), BuildingBlock: CIFDUS_clean_linker_0, # of connection points: 2
#     Edge 18, Type (0, 0), BuildingBlock: CIFDUS_clean_linker_0, # of connection points: 2
#     Edge 19, Type (0, 0), BuildingBlock: CIFDUS_clean_linker_0, # of connection points: 2
#     Edge 20, Type (0, 0), BuildingBlock: CIFDUS_clean_linker_0, # of connection points: 2
#     Edge 21, Type (0, 0), BuildingBlock: CIFDUS_clean_linker_0, # of connection points: 2
#     Edge 22, Type (0, 0), BuildingBlock: CIFDUS_clean_linker_0, # of connection points: 2
#     Edge 23, Type (0, 0), BuildingBlock: CIFDUS_clean_linker_0, # of connection points: 2
#     Edge 24, Type (0, 0), BuildingBlock: CIFDUS_clean_linker_0, # of connection points: 2
#     Edge 25, Type (0, 0), BuildingBlock: CIFDUS_clean_linker_0, # of connection points: 2
#     Edge 26, Type (0, 0), BuildingBlock: CIFDUS_clean_linker_0, # of connection points: 2
#     Edge 27, Type (0, 0), BuildingBlock: CIFDUS_clean_linker_0, # of connection points: 2
#     Edge 28, Type (0, 0), BuildingBlock: CIFDUS_clean_linker_0, # of connection points: 2
#     Edge 29, Type (0, 0), BuildingBlock: CIFDUS_clean_linker_0, # of connection points: 2
#     Edge 30, Type (0, 0), BuildingBlock: CIFDUS_clean_linker_0, # of connection points: 2
#     Edge 31, Type (0, 0), BuildingBlock: CIFDUS_clean_linker_0, # of connection points: 2
#     Edge 32, Type (0, 0), BuildingBlock: CIFDUS_clean_linker_0, # of connection points: 2
#     Edge 33, Type (0, 0), BuildingBlock: CIFDUS_clean_linker_0, # of connection points: 2
#     Edge 34, Type (0, 0), BuildingBlock: CIFDUS_clean_linker_0, # of connection points: 2
#     Edge 35, Type (0, 0), BuildingBlock: CIFDUS_clean_linker_0, # of connection points: 2
#     Edge 36, Type (0, 0), BuildingBlock: CIFDUS_clean_linker_0, # of connection points: 2
#     Edge 37, Type (0, 0), BuildingBlock: CIFDUS_clean_linker_0, # of connection points: 2
#     Edge 38, Type (0, 0), BuildingBlock: CIFDUS_clean_linker_0, # of connection points: 2
#     Edge 39, Type (0, 0), BuildingBlock: CIFDUS_clean_linker_0, # of connection points: 2
#     Edge 40, Type (0, 0), BuildingBlock: CIFDUS_clean_linker_0, # of connection points: 2
#     Edge 41, Type (0, 0), BuildingBlock: CIFDUS_clean_linker_0, # of connection points: 2
#     Edge 42, Type (0, 0), BuildingBlock: CIFDUS_clean_linker_0, # of connection points: 2
#     Edge 43, Type (0, 0), BuildingBlock: CIFDUS_clean_linker_0, # of connection points: 2
#     Edge 44, Type (0, 0), BuildingBlock: CIFDUS_clean_linker_0, # of connection points: 2
#     Edge 45, Type (0, 0), BuildingBlock: CIFDUS_clean_linker_0, # of connection points: 2
#     Edge 46, Type (0, 0), BuildingBlock: CIFDUS_clean_linker_0, # of connection points: 2
#     Edge 47, Type (0, 0), BuildingBlock: CIFDUS_clean_linker_0, # of connection points: 2
#     Edge 48, Type (0, 0), BuildingBlock: CIFDUS_clean_linker_0, # of connection points: 2
#     Edge 49, Type (0, 0), BuildingBlock: CIFDUS_clean_linker_0, # of connection points: 2
#     Edge 50, Type (0, 0), BuildingBlock: CIFDUS_clean_linker_0, # of connection points: 2
#     Edge 51, Type (0, 0), BuildingBlock: CIFDUS_clean_linker_0, # of connection points: 2
#     Edge 52, Type (0, 0), BuildingBlock: CIFDUS_clean_linker_0, # of connection points: 2
#     Edge 53, Type (0, 0), BuildingBlock: CIFDUS_clean_linker_0, # of connection points: 2
#     Edge 54, Type (0, 0), BuildingBlock: CIFDUS_clean_linker_0, # of connection points: 2
#     Edge 55, Type (0, 0), BuildingBlock: CIFDUS_clean_linker_0, # of connection points: 2
#     Edge 56, Type (0, 0), BuildingBlock: CIFDUS_clean_linker_0, # of connection points: 2
#     Edge 57, Type (0, 0), BuildingBlock: CIFDUS_clean_linker_0, # of connection points: 2
#     Edge 58, Type (0, 0), BuildingBlock: CIFDUS_clean_linker_0, # of connection points: 2
#     Edge 59, Type (0, 0), BuildingBlock: CIFDUS_clean_linker_0, # of connection points: 2
#     Edge 60, Type (0, 0), BuildingBlock: CIFDUS_clean_linker_0, # of connection points: 2
#     Edge 61, Type (0, 0), BuildingBlock: CIFDUS_clean_linker_0, # of connection points: 2
#     Edge 62, Type (0, 0), BuildingBlock: CIFDUS_clean_linker_0, # of connection points: 2
#     Edge 63, Type (0, 0), BuildingBlock: CIFDUS_clean_linker_0, # of connection points: 2
# Relax obj value: 0.898
# Max RMSD: 0.263
# Mean RMSD: 0.256
data_MOF--net-whw--node1-JUFBIX_clean_sbu_0--edge1-CIFDUS_clean_linker_0
_symmetry_space_group_name_H-M    P1
_symmetry_Int_Tables_number       1
_symmetry_cell_setting            triclinic
loop_
_symmetry_equiv_pos_as_xyz
'x, y, z'
_cell_length_a     44.434385
_cell_length_b     44.335452
_cell_length_c     23.208162
_cell_angle_alpha  83.534933
_cell_angle_beta   89.581583
_cell_angle_gamma 86.777332
loop_
_atom_site_label
_atom_site_type_symbol
_atom_site_fract_x
_atom_site_fract_y
_atom_site_fract_z
_atom_type_partial_charge
Co0 Co 0.01706 0.12555 0.13689 0.0
C1 C -0.00824 0.07693 0.09163 0.0
Co2 Co 0.9733 0.1362 0.09679 0.0
C3 C 0.06528 0.1241 0.21789 0.0
C4 C 0.07368 0.091 0.15861 0.0
N5 N 0.05359 0.11328 0.1716 0.0
N6 N 0.0917 0.1095 0.23442 0.0
C7 C 0.09712 0.08841 0.1978 0.0
H8 H 0.05427 0.14191 0.24011 0.0
H9 H 0.07128 0.07728 0.12339 0.0
C10 C -0.00103 0.1826 0.14715 0.0
N11 N 0.93583 0.14739 0.06536 0.0
C12 C 0.92217 0.13696 1.02049 0.0
C13 C 0.91446 0.165 0.08889 0.0
N14 N 0.89298 0.1473 1.01505 0.0
C15 C 0.88829 0.16518 0.058 0.0
C16 C 0.96732 0.1216 0.21585 0.0
O17 O 0.02238 0.16502 0.15004 0.0
O18 O 0.9755 0.17488 0.12293 0.0
O19 O 0.95315 0.12344 0.16819 0.0
O20 O -0.00385 0.12038 0.21363 0.0
O21 O 0.97155 0.09663 0.07171 0.0
H22 H 0.91742 0.17642 0.12706 0.0
H23 H 0.93346 0.12165 0.99318 0.0
O24 O 0.01195 0.08488 0.12413 0.0
O25 O 0.03722 0.13336 0.06127 0.0
O26 O -0.00667 0.15063 1.02526 0.0
C27 C 0.02183 0.14692 1.0187 0.0
H28 H 0.11661 0.07255 0.19916 0.0
H29 H 0.86766 0.17809 0.06629 0.0
Co30 Co 0.13485 0.73543 0.46071 0.0
C31 C 0.17271 0.74184 0.36583 0.0
Co32 Co 0.1264 0.70292 0.39387 0.0
C33 C 0.1178 0.77398 0.55555 0.0
C34 C 0.16506 0.77236 0.53701 0.0
N35 N 0.139 0.76217 0.51979 0.0
N36 N 0.1298 0.79072 0.59465 0.0
C37 C 0.15958 0.78963 0.58228 0.0
H38 H 0.09413 0.76956 0.55418 0.0
H39 H 0.18689 0.76711 0.51852 0.0
C40 C 0.09107 0.69438 0.48959 0.0
N41 N 0.11989 0.67701 0.33333 0.0
C42 C 0.09939 0.6796 0.28895 0.0
C43 C 0.13803 0.65282 0.32264 0.0
N44 N 0.10427 0.65819 0.2513 0.0
C45 C 0.12862 0.64137 0.2733 0.0
C46 C 0.16496 0.67881 0.48293 0.0
O47 O 0.10365 0.71747 0.50387 0.0
O48 O 0.09597 0.68553 0.43981 0.0
O49 O 0.1538 0.6739 0.43447 0.0
O50 O 0.16155 0.70524 0.49979 0.0
O51 O 0.15766 0.72053 0.35042 0.0
H52 H 0.15752 0.64422 0.34824 0.0
H53 H 0.08171 0.69747 0.28328 0.0
O54 O 0.16711 0.75213 0.41441 0.0
O55 O 0.10805 0.76471 0.42034 0.0
O56 O 0.09905 0.73288 0.35698 0.0
C57 C 0.09497 0.75892 0.37467 0.0
H58 H 0.17654 0.80044 0.60473 0.0
H59 H 0.13914 0.62194 0.25519 0.0
Co60 Co 0.47458 0.885 0.71464 0.0
C61 C 0.51308 0.916 0.6351 0.0
Co62 Co 0.50862 0.85653 0.67568 0.0
C63 C 0.43943 0.91151 0.80107 0.0
C64 C 0.42779 0.93275 0.71628 0.0
N65 N 0.44726 0.91193 0.74491 0.0
N66 N 0.41554 0.9307 0.80879 0.0
C67 C 0.40783 0.94393 0.75552 0.0
H68 H 0.44908 0.89515 0.83507 0.0
H69 H 0.42679 0.93783 0.66962 0.0
C70 C 0.46982 0.82687 0.75593 0.0
N71 N 0.53564 0.82954 0.64763 0.0
C72 C 0.54153 0.82989 0.59123 0.0
C73 C 0.55365 0.80654 0.67396 0.0
N74 N 0.56234 0.8082 0.58041 0.0
C75 C 0.57064 0.79349 0.63219 0.0
C76 C 0.52877 0.87205 0.78045 0.0
O77 O 0.4555 0.85225 0.75624 0.0
O78 O 0.4927 0.82453 0.72324 0.0
O79 O 0.53645 0.86074 0.73458 0.0
O80 O 0.50243 0.88538 0.78205 0.0
O81 O 0.52439 0.88984 0.6271 0.0
H82 H 0.55468 0.80007 0.72029 0.0
H83 H 0.53145 0.84671 0.5585 0.0
O84 O 0.49295 0.91825 0.67367 0.0
O85 O 0.44767 0.88278 0.6465 0.0
O86 O 0.48119 0.85087 0.61482 0.0
C87 C 0.45588 0.86541 0.60795 0.0
H88 H 0.38793 0.95876 0.7454 0.0
H89 H 0.58782 0.77516 0.63914 0.0
Co90 Co 0.39007 0.21829 0.86925 0.0
C91 C 0.43917 0.23638 0.92255 0.0
Co92 Co 0.38177 0.25995 0.91083 0.0
C93 C 0.38402 0.17816 0.78483 0.0
C94 C 0.40873 0.15567 0.85744 0.0
N95 N 0.39637 0.18296 0.83543 0.0
N96 N 0.38736 0.14886 0.77453 0.0
C97 C 0.40329 0.13461 0.81993 0.0
H98 H 0.37239 0.19604 0.75651 0.0
H99 H 0.41994 0.15112 0.89891 0.0
C100 C 0.33089 0.24044 0.8609 0.0
N101 N 0.37329 0.29582 0.9429 0.0
C102 C 0.38688 0.30722 0.98672 0.0
C103 C 0.35171 0.31732 0.92391 0.0
N104 N 0.37437 0.3347 0.99587 0.0
C105 C 0.35212 0.3411 0.95687 0.0
C106 C 0.39827 0.27079 0.7926 0.0
O107 O 0.34905 0.2195 0.84689 0.0
O108 O 0.34036 0.25959 0.89188 0.0
O109 O 0.38951 0.28397 0.83633 0.0
O110 O 0.39979 0.24187 0.79757 0.0
O111 O 0.42256 0.25975 0.93083 0.0
H112 H 0.33688 0.31614 0.88759 0.0
H113 H 0.40557 0.29569 1.01142 0.0
O114 O 0.42983 0.21709 0.89141 0.0
O115 O 0.3827 0.19445 0.94176 0.0
O116 O 0.37629 0.23541 0.98596 0.0
C117 C 0.38083 0.20647 0.98898 0.0
H118 H 0.41003 0.11065 0.82642 0.0
H119 H 0.33784 0.36183 0.95165 0.0
Co120 Co 0.02692 0.86288 0.9595 0.0
C121 C 0.01227 0.80978 0.92353 0.0
Co122 Co 0.98316 0.86594 0.91568 0.0
C123 C 0.06468 0.86871 0.05394 0.0
C124 C 0.08908 0.84601 0.99011 0.0
N125 N 0.06264 0.86103 0.99972 0.0
N126 N 0.09037 0.85747 0.08035 0.0
C127 C 0.10617 0.84366 0.03996 0.0
H128 H 0.04602 0.87896 0.0765 0.0
H129 H 0.09412 0.83458 0.95209 0.0
C130 C -0.00138 0.92055 0.95074 0.0
N131 N 0.94694 0.86892 0.87714 0.0
C132 C 0.94135 0.85919 0.82569 0.0
C133 C 0.92086 0.88303 0.89224 0.0
N134 N 0.91292 0.86697 0.80744 0.0
C135 C 0.89982 0.88182 0.84944 0.0
C136 C 0.97729 0.85004 0.0347 0.0
O137 O 0.02241 0.90485 0.96691 0.0
O138 O 0.9782 0.90815 0.92535 0.0
O139 O 0.96221 0.85525 0.98796 0.0
O140 O 0.00546 0.85367 0.03228 0.0
O141 O 0.98834 0.82494 0.9061 0.0
H142 H 0.91759 0.8941 0.93122 0.0
H143 H 0.958 0.84669 0.80208 0.0
O144 O 0.03158 0.8217 0.95231 0.0
O145 O 0.04816 0.86963 0.88627 0.0
O146 O 0.00455 0.8741 0.84216 0.0
C147 C 0.03327 0.87098 0.83914 0.0
H148 H 0.12662 0.82942 0.04829 0.0
H149 H 0.87703 0.89183 0.84857 0.0
Co150 Co 0.36287 0.79742 0.14943 0.0
C151 C 0.41246 0.79092 0.08568 0.0
Co152 Co 0.35575 0.76799 0.07639 0.0
C153 C 0.38714 0.81496 0.26088 0.0
C154 C 0.34876 0.84297 0.22971 0.0
N155 N 0.367 0.81951 0.21601 0.0
N156 N 0.38213 0.83456 0.30195 0.0
C157 C 0.35786 0.85217 0.28156 0.0
H158 H 0.4049 0.79714 0.26363 0.0
H159 H 0.32975 0.85272 0.20379 0.0
C160 C 0.305 0.7754 0.14114 0.0
N161 N 0.35626 0.7442 1.01125 0.0
C162 C 0.38088 0.72799 0.99265 0.0
C163 C 0.33526 0.74176 0.97065 0.0
N164 N 0.37639 0.71599 0.94211 0.0
C165 C 0.34739 0.72454 0.92869 0.0
C166 C 0.37311 0.73517 0.17751 0.0
O167 O 0.32246 0.79147 0.16674 0.0
O168 O 0.31449 0.76224 0.09734 0.0
O169 O 0.36686 0.73257 0.1252 0.0
O170 O 0.37338 0.76114 0.19574 0.0
O171 O 0.3958 0.77482 0.05931 0.0
H172 H 0.31285 0.75267 0.9703 0.0
H173 H 0.40211 0.72535 1.01559 0.0
O174 O 0.4029 0.8029 0.1299 0.0
O175 O 0.35191 0.83299 0.09979 0.0
O176 O 0.34435 0.8045 0.02911 0.0
C177 C 0.34467 0.83065 0.04737 0.0
H178 H 0.34727 0.87072 0.30217 0.0
H179 H 0.33596 0.71983 0.88993 0.0
Co180 Co 0.47682 0.10922 0.37103 0.0
C181 C 0.49705 0.1635 0.32733 0.0
Co182 Co 0.52224 0.10543 0.33358 0.0
C183 C 0.43309 0.09745 0.45798 0.0
C184 C 0.41288 0.12408 0.38441 0.0
N185 N 0.43933 0.11083 0.40475 0.0
N186 N 0.40393 0.10194 0.4726 0.0
C187 C 0.39105 0.11881 0.4263 0.0
H188 H 0.4502 0.08597 0.48678 0.0
H189 H 0.40983 0.13729 0.3426 0.0
C190 C 0.50226 0.05023 0.3806 0.0
N191 N 0.56058 0.10259 0.30011 0.0
C192 C 0.57389 0.12357 0.26317 0.0
C193 C 0.58156 0.07921 0.30873 0.0
N194 N 0.60202 0.11416 0.24854 0.0
C195 C 0.60692 0.08613 0.2765 0.0
C196 C 0.52352 0.11417 0.45229 0.0
O197 O 0.47946 0.06687 0.39241 0.0
O198 O 0.52317 0.06205 0.34992 0.0
O199 O 0.54083 0.10816 0.41027 0.0
O200 O 0.49519 0.11529 0.44369 0.0
O201 O 0.52105 0.14781 0.31888 0.0
H202 H 0.57889 0.05843 0.33703 0.0
H203 H 0.56312 0.14527 0.2465 0.0
O204 O 0.47446 0.1508 0.35078 0.0
O205 O 0.45835 0.10533 0.29899 0.0
O206 O 0.50256 0.10516 0.25672 0.0
C207 C 0.4737 0.10772 0.25253 0.0
H208 H 0.36787 0.12774 0.42367 0.0
H209 H 0.62747 0.07198 0.27442 0.0
Co210 Co 0.1321 0.23433 0.6252 0.0
C211 C 0.18177 0.25774 0.67015 0.0
Co212 Co 0.12091 0.27513 0.6678 0.0
C213 C 0.13336 0.19896 0.53156 0.0
C214 C 0.1608 0.1767 0.60065 0.0
N215 N 0.14198 0.20131 0.58615 0.0
N216 N 0.14641 0.17437 0.51055 0.0
C217 C 0.16346 0.1599 0.55403 0.0
H218 H 0.11791 0.21531 0.5073 0.0
H219 H 0.17254 0.17188 0.6416 0.0
C220 C 0.07264 0.25002 0.62544 0.0
N221 N 0.11186 0.30856 0.70521 0.0
C222 C 0.12397 0.31317 0.75598 0.0
C223 C 0.09109 0.33168 0.69301 0.0
N224 N 0.1109 0.33754 0.77786 0.0
C225 C 0.09034 0.34953 0.73793 0.0
C226 C 0.12706 0.28976 0.55019 0.0
O227 O 0.09195 0.23063 0.60978 0.0
O228 O 0.08055 0.27186 0.65168 0.0
O229 O 0.12386 0.30121 0.59759 0.0
O230 O 0.13432 0.26137 0.55236 0.0
O231 O 0.16251 0.27763 0.68511 0.0
H232 H 0.07629 0.3343 0.65578 0.0
H233 H 0.1409 0.29767 0.77804 0.0
O234 O 0.17318 0.23739 0.64086 0.0
O235 O 0.12728 0.20787 0.69849 0.0
O236 O 0.1152 0.24913 0.73907 0.0
C237 C 0.11768 0.22025 0.74286 0.0
H238 H 0.17753 0.13934 0.55161 0.0
H239 H 0.07409 0.36815 0.74307 0.0
Co240 Co 0.84783 0.25784 0.70235 0.0
C241 C 0.90221 0.23302 0.67609 0.0
Co242 Co 0.84721 0.2318 0.62287 0.0
C243 C 0.8718 0.28604 0.80355 0.0
C244 C 0.82404 0.28336 0.80662 0.0
N245 N 0.84808 0.27754 0.77294 0.0
N246 N 0.86352 0.29676 0.85466 0.0
C247 C 0.83328 0.29506 0.85596 0.0
H248 H 0.89489 0.28398 0.78888 0.0
H249 H 0.80114 0.27851 0.79709 0.0
C250 C 0.79125 0.25604 0.65277 0.0
N251 N 0.851 0.21115 0.55334 0.0
C252 C 0.87581 0.20754 0.51877 0.0
C253 C 0.8307 0.19404 0.53158 0.0
N254 N 0.87197 0.18865 0.47699 0.0
C255 C 0.84326 0.18047 0.48537 0.0
C256 C 0.83818 0.19563 0.72364 0.0
O257 O 0.80686 0.26694 0.69054 0.0
O258 O 0.80404 0.23906 0.61734 0.0
O259 O 0.8421 0.19459 0.66946 0.0
O260 O 0.83914 0.2208 0.7452 0.0
O261 O 0.88873 0.22542 0.63249 0.0
H262 H 0.80834 0.19087 0.54915 0.0
H263 H 0.8967 0.21801 0.52531 0.0
O264 O 0.88812 0.24779 0.71222 0.0
O265 O 0.85638 0.29435 0.6562 0.0
O266 O 0.85231 0.26971 0.57895 0.0
C267 C 0.85602 0.29428 0.60124 0.0
H268 H 0.8187 0.30076 0.89112 0.0
H269 H 0.83182 0.16541 0.46045 0.0
Co270 Co 0.6394 0.74155 0.11871 0.0
C271 C 0.68621 0.76719 0.17312 0.0
Co272 Co 0.62702 0.78341 0.15638 0.0
C273 C 0.6499 0.70381 0.02967 0.0
C274 C 0.66913 0.68255 0.10924 0.0
N275 N 0.65314 0.70769 0.08574 0.0
N276 N 0.66338 0.67755 1.01675 0.0
C277 C 0.6752 0.66366 0.06669 0.0
H278 H 0.63719 0.71966 0.99887 0.0
H279 H 0.67598 0.67831 0.15419 0.0
C280 C 0.58132 0.75795 0.10214 0.0
N281 N 0.61417 0.8178 0.18734 0.0
C282 C 0.61833 0.82233 0.24261 0.0
C283 C 0.59509 0.84085 0.16532 0.0
N284 N 0.60124 0.84617 0.25768 0.0
C285 C 0.58699 0.85837 0.20873 0.0
C286 C 0.63762 0.79555 0.03948 0.0
O287 O 0.60029 0.73651 0.09396 0.0
O288 O 0.58852 0.77906 0.13097 0.0
O289 O 0.63339 0.80809 0.08546 0.0
O290 O 0.64491 0.76711 0.04472 0.0
O291 O 0.6664 0.78779 0.18224 0.0
H292 H 0.58533 0.843 0.1225 0.0
H293 H 0.63043 0.80586 0.27328 0.0
O294 O 0.67925 0.74617 0.14368 0.0
O295 O 0.63159 0.7167 0.19147 0.0
O296 O 0.61827 0.75844 0.22894 0.0
C297 C 0.62134 0.72951 0.23467 0.0
H298 H 0.68731 0.64164 0.07187 0.0
H299 H 0.5693 0.87629 0.20619 0.0
Co300 Co 0.61298 0.24098 0.93569 0.0
C301 C 0.64605 0.24808 0.83483 0.0
Co302 Co 0.61126 0.20094 0.88335 0.0
C303 C 0.60073 0.27578 0.03819 0.0
C304 C 0.61234 0.30375 0.96116 0.0
N305 N 0.61088 0.27427 0.98273 0.0
N306 N 0.59544 0.30487 0.05119 0.0
C307 C 0.60299 0.32232 1.00253 0.0
H308 H 0.59553 0.25598 0.06742 0.0
H309 H 0.61805 0.31146 0.91677 0.0
C310 C 0.58075 0.19225 0.98539 0.0
N311 N 0.60972 0.16945 0.8327 0.0
C312 C 0.59789 0.17146 0.77801 0.0
C313 C 0.6209 0.14041 0.8423 0.0
N314 N 0.60129 0.14503 0.75347 0.0
C315 C 0.61597 0.12558 0.79408 0.0
C316 C 0.65538 0.19434 0.96833 0.0
O317 O 0.58834 0.21922 0.98919 0.0
O318 O 0.58681 0.18 0.9392 0.0
O319 O 0.64535 0.18219 0.92526 0.0
O320 O 0.64634 0.2215 0.97601 0.0
O321 O 0.63622 0.22216 0.82952 0.0
H322 H 0.63213 0.13058 0.88174 0.0
H323 H 0.58774 0.1922 0.75567 0.0
O324 O 0.63901 0.26128 0.87964 0.0
O325 O 0.57919 0.25966 0.89429 0.0
O326 O 0.57731 0.22048 0.84525 0.0
C327 C 0.56726 0.24683 0.85467 0.0
H328 H 0.60125 0.34693 0.99665 0.0
H329 H 0.62254 0.10209 0.78949 0.0
Co330 Co 0.89206 0.69765 0.37888 0.0
C331 C 0.93832 0.71803 0.43669 0.0
Co332 Co 0.88062 0.7395 0.41842 0.0
C333 C 0.89042 0.65527 0.29659 0.0
C334 C 0.91569 0.63638 0.37121 0.0
N335 N 0.9011 0.66216 0.34713 0.0
N336 N 0.89714 0.62602 0.28815 0.0
C337 C 0.91333 0.6141 0.33502 0.0
H338 H 0.87807 0.67178 0.26657 0.0
H339 H 0.92682 0.63374 0.41281 0.0
C340 C 0.8327 0.71829 0.36269 0.0
N341 N 0.87075 0.77457 0.45197 0.0
C342 C 0.88426 0.78333 0.49853 0.0
C343 C 0.84974 0.79713 0.43583 0.0
N344 N 0.87279 0.81034 0.5118 0.0
C345 C 0.8508 0.81919 0.47314 0.0
C346 C 0.90026 0.75065 0.3029 0.0
O347 O 0.85187 0.6971 0.35362 0.0
O348 O 0.84025 0.73879 0.3928 0.0
O349 O 0.89081 0.76366 0.34642 0.0
O350 O 0.90192 0.72168 0.30711 0.0
O351 O 0.91991 0.74008 0.44335 0.0
H352 H 0.8349 0.79774 0.39893 0.0
H353 H 0.90225 0.77019 0.52263 0.0
O354 O 0.9315 0.69802 0.40479 0.0
O355 O 0.8838 0.67397 0.44974 0.0
O356 O 0.87276 0.71475 0.49203 0.0
C357 C 0.87898 0.68608 0.49608 0.0
H358 H 0.92287 0.59103 0.34286 0.0
H359 H 0.83719 0.84031 0.4712 0.0
Co360 Co 0.52939 0.63256 0.64426 0.0
C361 C 0.50737 0.58569 0.58867 0.0
Co362 Co 0.48893 0.64546 0.59397 0.0
C363 C 0.57319 0.62683 0.7368 0.0
C364 C 0.58386 0.59703 0.6723 0.0
N365 N 0.56335 0.61873 0.68641 0.0
N366 N 0.59866 0.61074 0.7547 0.0
C367 C 0.60559 0.59194 0.71461 0.0
H368 H 0.56203 0.64423 0.75986 0.0
H369 H 0.58323 0.58575 0.63339 0.0
C370 C 0.50973 0.6901 0.65415 0.0
N371 N 0.4557 0.65697 0.54997 0.0
C372 C 0.45357 0.65056 0.49511 0.0
C373 C 0.42993 0.67298 0.56029 0.0
N374 N 0.42794 0.66235 0.46972 0.0
C375 C 0.41271 0.67645 0.51048 0.0
C376 C 0.47446 0.62983 0.70891 0.0
O377 O 0.53271 0.67194 0.6636 0.0
O378 O 0.4889 0.68358 0.62122 0.0
O379 O 0.4635 0.63324 0.658 0.0
O380 O 0.50319 0.62618 0.71403 0.0
O381 O 0.48876 0.60649 0.56735 0.0
H382 H 0.42457 0.68233 0.60046 0.0
H383 H 0.47116 0.63824 0.4734 0.0
O384 O 0.52588 0.59192 0.6261 0.0
O385 O 0.55495 0.64198 0.57508 0.0
O386 O 0.51391 0.65986 0.52958 0.0
C387 C 0.54237 0.65578 0.5295 0.0
H388 H 0.62532 0.57643 0.71521 0.0
H389 H 0.39166 0.68986 0.50369 0.0
Co390 Co 0.96317 0.37597 0.23616 0.0
C391 C -0.00601 0.41428 0.15407 0.0
Co392 Co 0.0003 0.35392 0.19144 0.0
C393 C 0.90708 0.38639 0.29357 0.0
C394 C 0.93509 0.42395 0.29441 0.0
N395 N 0.93281 0.39752 0.27155 0.0
N396 N 0.89396 0.40379 0.33179 0.0
C397 C 0.91134 0.42775 0.33184 0.0
H398 H 0.90028 0.36383 0.28795 0.0
H399 H 0.95444 0.43778 0.28928 0.0
C400 C 0.96912 0.31682 0.27435 0.0
N401 N 0.03162 0.33269 0.16004 0.0
C402 C 0.04371 0.3389 0.10724 0.0
C403 C 0.0501 0.31044 0.18739 0.0
N404 N 0.06934 0.32196 0.10074 0.0
C405 C 0.07332 0.30366 0.15075 0.0
C406 C 0.01872 0.37099 0.29657 0.0
O407 O 0.95175 0.33986 0.27875 0.0
O408 O 0.99055 0.31846 0.23778 0.0
O409 O 0.0273 0.36166 0.24937 0.0
O410 O 0.99119 0.38073 0.30048 0.0
O411 O 0.00957 0.3904 0.14499 0.0
H412 H 0.04749 0.3006 0.23184 0.0
H413 H 0.03393 0.35575 0.0743 0.0
O414 O 0.97416 0.41267 0.19372 0.0
O415 O 0.93597 0.36896 0.17163 0.0
O416 O 0.97366 0.34475 0.13196 0.0
C417 C 0.94597 0.35382 0.13071 0.0
H418 H 0.90893 0.44492 0.36149 0.0
H419 H 0.09199 0.28719 0.16061 0.0
Co420 Co 0.50778 0.37358 0.4301 0.0
C421 C 0.47541 0.33071 0.38415 0.0
Co422 Co 0.46499 0.39042 0.38878 0.0
C423 C 0.54286 0.35072 0.52865 0.0
C424 C 0.562 0.33636 0.4508 0.0
N425 N 0.54119 0.35609 0.47049 0.0
N426 N 0.56182 0.32682 0.54603 0.0
C427 C 0.57462 0.3182 0.49725 0.0
H428 H 0.52719 0.36097 0.55765 0.0
H429 H 0.56472 0.33239 0.40593 0.0
C430 C 0.49695 0.43476 0.43392 0.0
N431 N 0.43175 0.4066 0.34705 0.0
C432 C 0.42629 0.39905 0.29397 0.0
C433 C 0.40937 0.42729 0.35686 0.0
N434 N 0.40191 0.4143 0.26923 0.0
C435 C 0.39064 0.43191 0.30879 0.0
C436 C 0.45541 0.37111 0.50368 0.0
O437 O 0.51555 0.4128 0.45156 0.0
O438 O 0.47443 0.42968 0.40378 0.0
O439 O 0.44117 0.38524 0.4603 0.0
O440 O 0.48348 0.36534 0.49816 0.0
O441 O 0.45531 0.35182 0.37396 0.0
H442 H 0.40697 0.43838 0.39598 0.0
H443 H 0.43985 0.38204 0.27394 0.0
O444 O 0.49974 0.33553 0.40876 0.0
O445 O 0.53162 0.37958 0.36151 0.0
O446 O 0.48933 0.39336 0.31633 0.0
C447 C 0.51739 0.38548 0.31401 0.0
H448 H 0.58918 0.29797 0.49487 0.0
H449 H 0.37069 0.4471 0.30314 0.0
Co450 Co 0.98602 0.61278 0.87646 0.0
C451 C 0.01468 0.65777 0.81186 0.0
Co452 Co 0.02785 0.59718 0.83571 0.0
C453 C 0.93923 0.61454 0.95959 0.0
C454 C 0.92735 0.64333 0.88214 0.0
N455 N 0.95003 0.62525 0.90764 0.0
N456 N 0.91044 0.62454 0.96758 0.0
C457 C 0.90293 0.64299 0.91901 0.0
H458 H 0.95264 0.59988 0.99113 0.0
H459 H 0.92833 0.65553 0.8392 0.0
C460 C -6e-05 0.55103 0.90121 0.0
N461 N 0.06377 0.5843 0.80249 0.0
C462 C 0.07208 0.59015 0.74653 0.0
C463 C 0.08845 0.57034 0.82948 0.0
N464 N 0.10095 0.58075 0.73767 0.0
C465 C 0.11154 0.56851 0.78972 0.0
C466 C 0.03568 0.61463 0.94991 0.0
O467 O 0.98133 0.57264 0.911 0.0
O468 O 0.02127 0.55631 0.86544 0.0
O469 O 0.04912 0.60275 0.90817 0.0
O470 O 0.0075 0.62129 0.94483 0.0
O471 O 0.035 0.63713 0.80682 0.0
H472 H 0.09 0.5631 0.87549 0.0
H473 H 0.05787 0.6028 0.71346 0.0
O474 O 0.99132 0.65202 0.84191 0.0
O475 O 0.96435 0.60583 0.80998 0.0
O476 O 0.00535 0.59381 0.76356 0.0
C477 C 0.97698 0.60073 0.76277 0.0
H478 H 0.88145 0.65536 0.91054 0.0
H479 H 0.13447 0.55974 0.79853 0.0
H480 H 0.07563 0.1308 0.96266 0.0
H481 H 0.0018 0.19868 0.95411 0.0
H482 H 0.0254 0.22739 0.87201 0.0
H483 H 0.06709 0.23437 0.80258 0.0
H484 H 0.13834 0.1646 0.8003 0.0
H485 H 0.11608 0.1359 0.88578 0.0
C486 C 0.06465 0.15178 0.94262 0.0
C487 C 0.03675 0.16239 0.96538 0.0
C488 C 0.0781 0.16812 0.89331 0.0
C489 C 0.02299 0.18962 0.93798 0.0
C490 C 0.03661 0.20628 0.8909 0.0
C491 C 0.07788 0.21289 0.82074 0.0
C492 C 0.10477 0.20204 0.7952 0.0
C493 C 0.0642 0.19592 0.8683 0.0
C494 C 0.11787 0.17376 0.81901 0.0
C495 C 0.10504 0.1573 0.86803 0.0
H496 H 0.12693 0.80469 0.33081 0.0
H497 H 0.04021 0.7667 0.32145 0.0
H498 H 0.02904 0.79964 0.23113 0.0
H499 H 0.0481 0.83141 0.14749 0.0
H500 H 0.13825 0.86224 0.14867 0.0
H501 H 0.14452 0.8397 0.24989 0.0
C502 C 0.10513 0.80464 0.31 0.0
C503 C 0.08403 0.78403 0.3327 0.0
C504 C 0.10007 0.82169 0.25615 0.0
C505 C 0.05634 0.78296 0.30483 0.0
C506 C 0.05022 0.80145 0.25305 0.0
C507 C 0.06875 0.83399 0.17064 0.0
C508 C 0.09267 0.84865 0.14151 0.0
C509 C 0.0725 0.81978 0.22715 0.0
C510 C 0.11967 0.85112 0.17088 0.0
C511 C 0.12316 0.83825 0.22839 0.0
H512 H 0.36519 0.86605 0.39409 0.0
H513 H 0.43761 0.80828 0.33411 0.0
H514 H 0.46585 0.81235 0.42237 0.0
H515 H 0.47091 0.83267 0.51673 0.0
H516 H 0.39926 0.89119 0.57647 0.0
H517 H 0.37032 0.88655 0.48853 0.0
C518 C 0.38719 0.85437 0.39958 0.0
C519 C 0.39884 0.83676 0.35583 0.0
C520 C 0.40371 0.85696 0.45106 0.0
C521 C 0.42748 0.82175 0.36592 0.0
C522 C 0.44388 0.82419 0.4168 0.0
C523 C 0.44889 0.84442 0.51093 0.0
C524 C 0.43746 0.86229 0.55428 0.0
C525 C 0.43231 0.84174 0.45972 0.0
C526 C 0.40886 0.87727 0.54474 0.0
C527 C 0.39223 0.87461 0.4941 0.0
H528 H 0.40778 0.09635 0.73504 0.0
H529 H 0.34364 0.17291 0.69856 0.0
H530 H 0.33767 0.16044 0.6003 0.0
H531 H 0.3598 0.13528 0.52036 0.0
H532 H 0.4224 0.05766 0.55701 0.0
H533 H 0.41874 0.06235 0.66048 0.0
C534 C 0.39184 0.10986 0.7064 0.0
C535 C 0.37769 0.13663 0.72323 0.0
C536 C 0.38834 0.10251 0.6498 0.0
C537 C 0.35635 0.15323 0.68577 0.0
C538 C 0.35261 0.14595 0.62958 0.0
C539 C 0.37174 0.11863 0.55091 0.0
C540 C 0.39261 0.09723 0.53092 0.0
C541 C 0.36996 0.12179 0.61016 0.0
C542 C 0.40724 0.0753 0.57137 0.0
C543 C 0.40521 0.07797 0.63052 0.0
H544 H 0.93797 0.79792 0.2899 0.0
H545 H 0.88484 0.74316 0.19236 0.0
H546 H 0.90148 0.7709 0.10142 0.0
H547 H 0.93292 0.80946 0.04877 0.0
H548 H 0.99117 0.85961 0.14569 0.0
H549 H 0.97103 0.83527 0.23689 0.0
C550 C 0.92983 0.79232 0.24868 0.0
C551 C 0.90977 0.76873 0.24806 0.0
C552 C 0.94058 0.80761 0.19617 0.0
C553 C 0.90007 0.76128 0.19418 0.0
C554 C 0.90963 0.77717 0.14209 0.0
C555 C 0.94085 0.81542 0.08987 0.0
C556 C 0.96315 0.83691 0.09012 0.0
C557 C 0.93006 0.80026 0.14238 0.0
C558 C 0.97381 0.84353 0.14399 0.0
C559 C 0.96231 0.8295 0.19628 0.0
H560 H 0.80393 0.18344 0.81818 0.0
H561 H 0.8778 0.14716 0.72131 0.0
H562 H 0.89977 0.12075 0.81036 0.0
H563 H 0.90564 0.1233 0.91421 0.0
H564 H 0.83246 0.16164 1.0114 0.0
H565 H 0.80242 0.17161 0.92384 0.0
C566 C 0.82391 0.16828 0.81648 0.0
C567 C 0.83988 0.1679 0.76426 0.0
C568 C 0.83722 0.15473 0.86808 0.0
C569 C 0.86537 0.14795 0.76151 0.0
C570 C 0.87826 0.13337 0.81262 0.0
C571 C 0.88289 0.13304 0.9171 0.0
C572 C 0.87232 0.14376 0.96886 0.0
C573 C 0.86572 0.13902 0.8663 0.0
C574 C 0.84211 0.15499 0.97155 0.0
C575 C 0.82466 0.16044 0.92147 0.0
H576 H 0.54883 0.16307 0.69595 0.0
H577 H 0.63289 0.1114 0.68075 0.0
H578 H 0.61753 0.0979 0.58619 0.0
H579 H 0.57933 0.09968 0.50702 0.0
H580 H 0.4937 0.14819 0.52723 0.0
H581 H 0.5103 0.16365 0.61872 0.0
C582 C 0.56387 0.14906 0.67174 0.0
C583 C 0.59216 0.13847 0.6959 0.0
C584 C 0.55443 0.14051 0.6176 0.0
C585 C 0.61102 0.11988 0.66377 0.0
C586 C 0.6022 0.11212 0.60939 0.0
C587 C 0.56431 0.11364 0.53137 0.0
C588 C 0.53513 0.12261 0.50927 0.0
C589 C 0.57381 0.12207 0.58573 0.0
C590 C 0.51615 0.1406 0.54247 0.0
C591 C 0.52568 0.14964 0.59518 0.0
H592 H 0.53148 0.81322 0.48317 0.0
H593 H 0.62134 0.80055 0.55296 0.0
H594 H 0.6423 0.81565 0.45637 0.0
H595 H 0.63395 0.83682 0.35447 0.0
H596 H 0.54307 0.85355 0.28961 0.0
H597 H 0.52312 0.83586 0.38436 0.0
C598 C 0.55569 0.8134 0.47675 0.0
C599 C 0.57495 0.80625 0.52434 0.0
C600 C 0.56707 0.82477 0.42343 0.0
C601 C 0.60625 0.8058 0.51634 0.0
C602 C 0.61807 0.81521 0.46176 0.0
C603 C 0.60981 0.83725 0.36184 0.0
C604 C 0.59004 0.84639 0.31541 0.0
C605 C 0.59855 0.82589 0.4157 0.0
C606 C 0.55876 0.84707 0.32487 0.0
C607 C 0.54734 0.83617 0.37852 0.0
H608 H 0.59495 0.74978 0.33228 0.0
H609 H 0.62413 0.66727 0.261 0.0
H610 H 0.60454 0.637 0.34639 0.0
H611 H 0.5764 0.63354 0.4406 0.0
H612 H 0.54617 0.71639 0.50909 0.0
H613 H 0.56886 0.74648 0.42695 0.0
C614 C 0.59733 0.72517 0.33544 0.0
C615 C 0.61119 0.71107 0.28947 0.0
C616 C 0.58566 0.70772 0.38484 0.0
C617 C 0.61373 0.67902 0.29512 0.0
C618 C 0.60241 0.66157 0.34421 0.0
C619 C 0.57527 0.65814 0.43792 0.0
C620 C 0.55986 0.67262 0.48172 0.0
C621 C 0.58801 0.67557 0.3893 0.0
C622 C 0.55809 0.7046 0.47658 0.0
C623 C 0.57099 0.72189 0.42929 0.0
H624 H 0.54648 0.22856 0.75592 0.0
H625 H 0.54972 0.30752 0.84819 0.0
H626 H 0.5462 0.34053 0.75661 0.0
H627 H 0.55443 0.34583 0.65079 0.0
H628 H 0.55877 0.26582 0.5606 0.0
H629 H 0.54953 0.23404 0.65095 0.0
C630 C 0.54588 0.25302 0.75618 0.0
C631 C 0.55 0.2655 0.80834 0.0
C632 C 0.54714 0.27151 0.70354 0.0
C633 C 0.54738 0.29726 0.80835 0.0
C634 C 0.54605 0.31613 0.75593 0.0
C635 C 0.55337 0.32143 0.65127 0.0
C636 C 0.55835 0.30802 0.5998 0.0
C637 C 0.54823 0.30332 0.70339 0.0
C638 C 0.55632 0.27647 0.60022 0.0
C639 C 0.55041 0.25839 0.65157 0.0
H640 H 0.96206 0.32279 0.03766 0.0
H641 H 0.88496 0.36733 0.11277 0.0
H642 H 0.85309 0.35421 0.03445 0.0
H643 H 0.84678 0.32981 0.94437 0.0
H644 H 0.92415 0.28484 0.87044 0.0
H645 H 0.95582 0.29872 0.94758 0.0
C646 C 0.93828 0.32976 0.03715 0.0
C647 C 0.92618 0.3462 0.08195 0.0
C648 C 0.91993 0.32207 0.99161 0.0
C649 C 0.89518 0.35479 0.07955 0.0
C650 C 0.87685 0.34722 0.03449 0.0
C651 C 0.87051 0.32279 0.94487 0.0
C652 C 0.88262 0.30603 0.90037 0.0
C653 C 0.8889 0.33078 0.99022 0.0
C654 C 0.91377 0.29786 0.90271 0.0
C655 C 0.93205 0.30571 0.94743 0.0
H656 H 0.85696 0.64616 0.20359 0.0
H657 H 0.92423 0.57404 0.25439 0.0
H658 H 0.92636 0.56088 0.15566 0.0
H659 H 0.91962 0.57861 0.05324 0.0
H660 H 0.86218 0.65883 1.00191 0.0
H661 H 0.84511 0.65962 0.10152 0.0
C662 C 0.87222 0.62761 0.19336 0.0
C663 C 0.89184 0.61248 0.23586 0.0
C664 C 0.87529 0.62185 0.13568 0.0
C665 C 0.90957 0.58689 0.22248 0.0
C666 C 0.91096 0.57941 0.16573 0.0
C667 C 0.90336 0.59632 0.06364 0.0
C668 C 0.89363 0.61969 1.02068 0.0
C669 C 0.89571 0.59826 0.12155 0.0
C670 C 0.87081 0.64104 0.03422 0.0
C671 C 0.86118 0.64166 0.09141 0.0
H672 H 0.47675 0.32431 0.58037 0.0
H673 H 0.39915 0.3867 0.54887 0.0
H674 H 0.37485 0.36253 0.63664 0.0
H675 H 0.37549 0.3223 0.72266 0.0
H676 H 0.45206 0.25787 0.745 0.0
H677 H 0.47682 0.2842 0.6614 0.0
C678 C 0.45457 0.33295 0.59264 0.0
C679 C 0.44005 0.35772 0.55791 0.0
C680 C 0.44042 0.31832 0.64193 0.0
C681 C 0.41104 0.3679 0.57457 0.0
C682 C 0.39711 0.35398 0.62489 0.0
C683 C 0.39757 0.31412 0.70905 0.0
C684 C 0.41186 0.28799 0.74037 0.0
C685 C 0.41151 0.32899 0.65898 0.0
C686 C 0.4404 0.27763 0.72172 0.0
C687 C 0.45467 0.29277 0.67385 0.0
H688 H 0.37389 0.66558 0.41843 0.0
H689 H 0.46945 0.66593 0.38396 0.0
H690 H 0.46 0.68069 0.28181 0.0
H691 H 0.42502 0.70504 0.20797 0.0
H692 H 0.32974 0.70891 0.24277 0.0
H693 H 0.33827 0.68032 0.33826 0.0
C694 C 0.39248 0.66835 0.38814 0.0
C695 C 0.42214 0.6653 0.40873 0.0
C696 C 0.38691 0.67767 0.32944 0.0
C697 C 0.4463 0.66818 0.36926 0.0
C698 C 0.44098 0.67682 0.31072 0.0
C699 C 0.40621 0.69818 0.23561 0.0
C700 C 0.37699 0.70865 0.21957 0.0
C701 C 0.41145 0.68316 0.29101 0.0
C702 C 0.35244 0.7005 0.25506 0.0
C703 C 0.35735 0.68463 0.30973 0.0
H704 H 0.12469 0.62909 0.15928 0.0
H705 H 0.04623 0.67728 0.22169 0.0
H706 H 0.01824 0.66826 0.13524 0.0
H707 H 0.01542 0.64567 0.04166 0.0
H708 H 0.09444 0.59801 0.98001 0.0
H709 H 0.12227 0.6075 0.06601 0.0
C710 C 0.10141 0.63753 0.15465 0.0
C711 C 0.08782 0.65381 0.19838 0.0
C712 C 0.08528 0.63219 0.1044 0.0
C713 C 0.05765 0.6649 0.18955 0.0
C714 C 0.04148 0.65956 0.13988 0.0
C715 C 0.03873 0.63728 0.04691 0.0
C716 C 0.05254 0.62087 1.00357 0.0
C717 C 0.05494 0.64308 0.09696 0.0
C718 C 0.08293 0.61057 1.01187 0.0
C719 C 0.09897 0.61603 0.06139 0.0
H720 H 0.12708 0.29676 0.86884 0.0
H721 H 0.09571 0.39029 0.82242 0.0
H722 H 0.08489 0.39539 0.9245 0.0
H723 H 0.07642 0.37037 1.02244 0.0
H724 H 0.10343 0.27544 0.06425 0.0
H725 H 0.12545 0.27414 0.96804 0.0
C726 C 0.11885 0.31867 0.88058 0.0
C727 C 0.11158 0.34298 0.83768 0.0
C728 C 0.11179 0.32103 0.93848 0.0
C729 C 0.1008 0.37106 0.85455 0.0
C730 C 0.09464 0.37395 0.91277 0.0
C731 C 0.08729 0.34947 1.01051 0.0
C732 C 0.0875 0.32277 0.04946 0.0
C733 C 0.09861 0.34858 0.95445 0.0
C734 C 0.10278 0.29617 0.03471 0.0
C735 C 0.11515 0.29538 0.97963 0.0
H736 H 0.0083 0.27496 0.32794 0.0
H737 H 0.91472 0.29035 0.28432 0.0
H738 H 0.91585 0.24324 0.23875 0.0
H739 H 0.94751 0.21033 0.18209 0.0
H740 H 0.0441 0.20364 0.20732 0.0
H741 H 0.03887 0.23672 0.28411 0.0
C742 C 0.98788 0.2669 0.31093 0.0
C743 C 0.96248 0.28697 0.30301 0.0
C744 C 0.99032 0.24324 0.27618 0.0
C745 C 0.93525 0.27587 0.28672 0.0
C746 C 0.93621 0.24963 0.25859 0.0
C747 C 0.96746 0.2163 0.20393 0.0
C748 C -0.00376 0.20559 0.18756 0.0
C749 C 0.96436 0.23546 0.24742 0.0
C750 C 0.02177 0.21255 0.21785 0.0
C751 C 0.01878 0.23085 0.26259 0.0
H752 H 0.97103 0.66539 0.45933 0.0
H753 H 0.96147 0.75736 0.50449 0.0
H754 H 0.00785 0.74921 0.56077 0.0
H755 H 0.0571 0.72292 0.56497 0.0
H756 H 0.07016 0.63698 0.49634 0.0
H757 H 0.01579 0.63343 0.48918 0.0
C758 C 0.97898 0.68356 0.4819 0.0
C759 C 0.96435 0.71253 0.47473 0.0
C760 C 0.00596 0.67905 0.51216 0.0
C761 C 0.97358 0.73534 0.50696 0.0
C762 C -0.00027 0.73054 0.5399 0.0
C763 C 0.04785 0.7028 0.55096 0.0
C764 C 0.06674 0.68177 0.52542 0.0
C765 C 0.01728 0.70344 0.5384 0.0
C766 C 0.05538 0.65445 0.51242 0.0
C767 C 0.0244 0.6528 0.50705 0.0
H768 H 0.45581 0.71895 0.67014 0.0
H769 H 0.54782 0.70995 0.73173 0.0
H770 H 0.5352 0.74529 0.80281 0.0
H771 H 0.50135 0.78637 0.83013 0.0
H772 H 0.41433 0.80292 0.75097 0.0
H773 H 0.41939 0.75413 0.71128 0.0
C774 C 0.47322 0.72481 0.69878 0.0
C775 C 0.50306 0.71304 0.6939 0.0
C776 C 0.46594 0.74526 0.73875 0.0
C777 C 0.52498 0.71977 0.73316 0.0
C778 C 0.51765 0.73941 0.77456 0.0
C779 C 0.48292 0.77826 0.80667 0.0
C780 C 0.45923 0.79901 0.78712 0.0
C781 C 0.48855 0.75322 0.77594 0.0
C782 C 0.43399 0.78793 0.76242 0.0
C783 C 0.43741 0.76063 0.73775 0.0
H784 H 0.55343 0.21744 0.07605 0.0
H785 H 0.5574 0.13463 0.99716 0.0
H786 H 0.50361 0.14096 0.97601 0.0
H787 H 0.4658 0.1804 0.94044 0.0
H788 H 0.46697 0.27012 0.99632 0.0
H789 H 0.50968 0.25308 0.06017 0.0
C790 C 0.54202 0.2003 0.05596 0.0
C791 C 0.55922 0.17875 0.02804 0.0
C792 C 0.51294 0.20744 0.03459 0.0
C793 C 0.54456 0.15371 1.01226 0.0
C794 C 0.51404 0.15787 0.99831 0.0
C795 C 0.47518 0.19633 0.96667 0.0
C796 C 0.46457 0.22696 0.96129 0.0
C797 C 0.4996 0.18657 1.00209 0.0
C798 C 0.47595 0.24682 0.99776 0.0
C799 C 0.49983 0.23693 0.0351 0.0
H800 H 0.98602 0.78873 0.8337 0.0
H801 H 0.05854 0.769 0.95768 0.0
H802 H 0.07333 0.72267 0.91449 0.0
H803 H 0.05966 0.68425 0.85405 0.0
H804 H 0.98208 0.70053 0.74253 0.0
H805 H 0.97664 0.75327 0.76432 0.0
C806 C 0.00496 0.77422 0.85152 0.0
C807 C 0.02047 0.78138 0.90007 0.0
C808 C 0.01306 0.74778 0.827 0.0
C809 C 0.04572 0.76319 0.92135 0.0
C810 C 0.05443 0.73706 0.89623 0.0
C811 C 0.0426 0.69998 0.83239 0.0
C812 C 0.0211 0.68919 0.79751 0.0
C813 C 0.03763 0.72871 0.85035 0.0
C814 C -0.00121 0.70899 0.76953 0.0
C815 C -0.00471 0.73871 0.78312 0.0
H816 H 0.54806 0.80914 0.07603 0.0
H817 H 0.54922 0.71239 0.06667 0.0
H818 H 0.49527 0.71665 0.04359 0.0
H819 H 0.44736 0.74562 0.05172 0.0
H820 H 0.44625 0.84003 0.08117 0.0
H821 H 0.50113 0.83936 0.07069 0.0
C822 C 0.53651 0.78898 0.06859 0.0
C823 C 0.55167 0.76028 0.07586 0.0
C824 C 0.50571 0.79136 0.05965 0.0
C825 C 0.53734 0.73453 0.06294 0.0
C826 C 0.50668 0.73699 0.05003 0.0
C827 C 0.45919 0.76618 0.05419 0.0
C828 C 0.44358 0.79266 0.06831 0.0
C829 C 0.49045 0.76493 0.05225 0.0
C830 C 0.45849 0.81935 0.07156 0.0
C831 C 0.48959 0.81893 0.06549 0.0
H832 H 0.44804 0.20168 0.32903 0.0
H833 H 0.54413 0.19891 0.29788 0.0
H834 H 0.54457 0.25335 0.3046 0.0
H835 H 0.51963 0.29808 0.33937 0.0
H836 H 0.42426 0.30062 0.37579 0.0
H837 H 0.42141 0.24925 0.34732 0.0
C838 C 0.46898 0.21312 0.32281 0.0
C839 C 0.4962 0.19645 0.31556 0.0
C840 C 0.46926 0.24389 0.32903 0.0
C841 C 0.52303 0.21141 0.30507 0.0
C842 C 0.52335 0.24238 0.30924 0.0
C843 C 0.49823 0.28735 0.34065 0.0
C844 C 0.47241 0.30197 0.36157 0.0
C845 C 0.49695 0.25823 0.32477 0.0
C846 C 0.44445 0.28894 0.361 0.0
C847 C 0.44286 0.25984 0.34467 0.0
H848 H 0.03622 0.25151 0.71458 0.0
H849 H 0.04135 0.23129 0.53729 0.0
H850 H 0.98833 0.21816 0.54105 0.0
H851 H 0.94038 0.21762 0.59275 0.0
H852 H 0.93623 0.23815 0.77051 0.0
H853 H 0.99031 0.24438 0.76995 0.0
C854 C 0.02552 0.2444 0.67679 0.0
C855 C 0.04147 0.24331 0.62515 0.0
C856 C -0.00407 0.23632 0.67999 0.0
C857 C 0.02852 0.23294 0.57681 0.0
C858 C -0.00139 0.22521 0.57922 0.0
C859 C 0.95143 0.22283 0.63168 0.0
C860 C 0.93462 0.22846 0.68089 0.0
C861 C 0.98205 0.22742 0.63036 0.0
C862 C 0.94897 0.2345 0.73167 0.0
C863 C 0.97968 0.23826 0.73131 0.0
H864 H 0.95978 0.05377 1.00738 0.0
H865 H 0.02969 0.03018 0.13569 0.0
H866 H 0.03863 0.98075 0.10134 0.0
H867 H 0.02787 0.94454 0.0343 0.0
H868 H 0.95709 0.96564 0.90755 0.0
H869 H 0.94747 0.01579 0.94145 0.0
C870 C 0.9767 0.03765 0.02818 0.0
C871 C -0.00593 0.04581 0.07396 0.0
C872 C 0.98192 0.00898 1.00801 0.0
C873 C 0.01601 0.02466 0.1003 0.0
C874 C 0.02127 -0.00366 0.08056 0.0
C875 C 0.0105 0.96018 1.01356 0.0
C876 C -0.00646 0.95158 0.96789 0.0
C877 C 0.00467 0.98843 0.03409 0.0
C878 C 0.97067 0.97188 0.94246 0.0
C879 C 0.96508 0.00047 0.96202 0.0
H880 H 0.18989 0.72245 0.26326 0.0
H881 H 0.20818 0.78924 0.37856 0.0
H882 H 0.24822 0.80811 0.31363 0.0
H883 H 0.27989 0.80316 0.22885 0.0
H884 H 0.26401 0.73435 0.11645 0.0
H885 H 0.22013 0.71927 0.17516 0.0
C886 C 0.20252 0.74124 0.27427 0.0
C887 C 0.1963 0.75421 0.32618 0.0
C888 C 0.22563 0.75168 0.23716 0.0
C889 C 0.21272 0.77867 0.33931 0.0
C890 C 0.23552 0.7895 0.30211 0.0
C891 C 0.26672 0.78502 0.21655 0.0
C892 C 0.27542 0.76966 0.16852 0.0
C893 C 0.24242 0.77583 0.25153 0.0
C894 C 0.25782 0.74653 0.15309 0.0
C895 C 0.23293 0.73775 0.18696 0.0
H896 H 0.50128 0.04435 0.49513 0.0
H897 H 0.51907 0.99293 0.35072 0.0
H898 H 0.52832 0.94625 0.4183 0.0
H899 H 0.52697 0.91996 0.51932 0.0
H900 H 0.51024 0.97373 0.66137 0.0
H901 H 0.50581 0.0199 0.59389 0.0
C902 C 0.5071 0.02285 0.47845 0.0
C903 C 0.5086 0.02163 0.41836 0.0
C904 C 0.51299 -0.00326 0.51722 0.0
C905 C 0.51721 -0.00593 0.39699 0.0
C906 C 0.52261 0.96754 0.43561 0.0
C907 C 0.52331 0.94191 0.53542 0.0
C908 C 0.51886 0.94346 0.59528 0.0
C909 C 0.52014 0.96854 0.49596 0.0
C910 C 0.51371 0.97198 0.61557 0.0
C911 C 0.51091 -0.00164 0.577 0.0
H912 H 0.31141 0.21723 0.7658 0.0
H913 H 0.28335 0.27609 0.89456 0.0
H914 H 0.23555 0.28889 0.84366 0.0
H915 H 0.20176 0.28315 0.76279 0.0
H916 H 0.2302 0.22443 0.63399 0.0
H917 H 0.27826 0.21244 0.68397 0.0
C918 C 0.29468 0.23254 0.78319 0.0
C919 C 0.30072 0.24539 0.83427 0.0
C920 C 0.26762 0.24034 0.75304 0.0
C921 C 0.27907 0.26567 0.85559 0.0
C922 C 0.25186 0.27319 0.82628 0.0
C923 C 0.2187 0.26818 0.74506 0.0
C924 C 0.2125 0.25484 0.69458 0.0
C925 C 0.246 0.26083 0.77473 0.0
C926 C 0.2345 0.23511 0.67264 0.0
C927 C 0.26187 0.22804 0.70144 0.0
H928 H 0.66339 0.22506 0.73563 0.0
H929 H 0.67773 0.29933 0.83602 0.0
H930 H 0.72096 0.31332 0.77504 0.0
H931 H 0.75968 0.29819 0.70716 0.0
H932 H 0.74872 0.22012 0.61531 0.0
H933 H 0.69837 0.21462 0.65727 0.0
C934 C 0.67562 0.24465 0.7437 0.0
C935 C 0.66785 0.26067 0.79137 0.0
C936 C 0.70104 0.25182 0.7099 0.0
C937 C 0.68352 0.28636 0.80027 0.0
C938 C 0.70827 0.29431 0.76546 0.0
C939 C 0.74597 0.2804 0.69509 0.0
C940 C 0.75817 0.2591 0.65932 0.0
C941 C 0.71802 0.27628 0.72215 0.0
C942 C 0.73993 0.23667 0.64299 0.0
C943 C 0.71132 0.23329 0.66766 0.0
H944 H 0.79528 0.76891 0.3439 0.0
H945 H 0.80692 0.67584 0.30584 0.0
H946 H 0.76404 0.68377 0.23973 0.0
H947 H 0.72396 0.71715 0.1918 0.0
H948 H 0.71168 0.81012 0.23006 0.0
H949 H 0.75481 0.8024 0.29601 0.0
C950 C 0.78813 0.75022 0.32189 0.0
C951 C 0.8041 0.72175 0.33016 0.0
C952 C 0.76389 0.75511 0.28297 0.0
C953 C 0.79485 0.6979 0.30057 0.0
C954 C 0.77052 0.70248 0.26237 0.0
C955 C 0.73098 0.73592 0.21377 0.0
C956 C 0.71485 0.76428 0.20557 0.0
C957 C 0.75516 0.73109 0.2527 0.0
C958 C 0.72393 0.78816 0.23523 0.0
C959 C 0.74838 0.78368 0.27333 0.0
H960 H 0.47966 0.5695 0.49409 0.0
H961 H 0.53944 0.53411 0.63434 0.0
H962 H 0.54347 0.4847 0.59658 0.0
H963 H 0.52888 0.4511 0.52467 0.0
H964 H 0.46908 0.48732 0.38486 0.0
H965 H 0.46666 0.53687 0.42098 0.0
C966 C 0.49345 0.55095 0.51664 0.0
C967 C 0.50895 0.55542 0.56728 0.0
C968 C 0.49595 0.52277 0.49438 0.0
C969 C 0.52709 0.53123 0.59545 0.0
C970 C 0.5295 0.50299 0.57377 0.0
C971 C 0.51573 0.46998 0.50166 0.0
C972 C 0.49921 0.46548 0.45214 0.0
C973 C 0.51401 0.49847 0.52324 0.0
C974 C 0.48199 0.49011 0.42315 0.0
C975 C 0.48046 0.51847 0.44388 0.0
H976 H 0.97378 0.54121 1.0061 0.0
H977 H 0.02783 0.49609 0.88276 0.0
H978 H 0.03253 0.44992 0.95178 0.0
H979 H 0.02131 0.42268 0.04791 0.0
H980 H 0.9689 0.46978 0.17116 0.0
H981 H 0.96418 0.51516 0.10172 0.0
C982 C 0.98623 0.52115 0.99381 0.0
C983 C 1e-05 0.52189 0.93902 0.0
C984 C 0.98965 0.49526 0.03418 0.0
C985 C 0.01669 0.49593 0.92446 0.0
C986 C 0.01958 0.46965 0.96406 0.0
C987 C 0.00928 0.44303 0.05983 0.0
C988 C -0.00451 0.4428 0.11471 0.0
C989 C 0.00637 0.46915 1.01932 0.0
C990 C 0.97974 0.4693 0.12928 0.0
C991 C 0.97684 0.49524 0.08947 0.0
H992 H 0.10649 0.16376 0.25815 0.0
H993 H 0.11582 0.06838 0.31841 0.0
H994 H 0.1376 0.07988 0.41 0.0
H995 H 0.1473 0.11802 0.47698 0.0
H996 H 0.13783 0.2134 0.41386 0.0
H997 H 0.12284 0.20114 0.31906 0.0
C998 C 0.11384 0.14559 0.29116 0.0
C999 C 0.10939 0.11544 0.28263 0.0
C1000 C 0.12588 0.15245 0.34318 0.0
C1001 C 0.1192 0.09178 0.32468 0.0
C1002 C 0.13138 0.0984 0.37694 0.0
C1003 C 0.14259 0.13598 0.44202 0.0
C1004 C 0.14279 0.16653 0.45276 0.0
C1005 C 0.13389 0.12875 0.38738 0.0
C1006 C 0.13684 0.18971 0.40709 0.0
C1007 C 0.12844 0.18276 0.3528 0.0
H1008 H 0.07211 0.81676 0.60243 0.0
H1009 H 0.15507 0.7969 0.69809 0.0
H1010 H 0.13393 0.82194 0.77836 0.0
H1011 H 0.09174 0.84876 0.82427 0.0
H1012 H 0.00801 0.86861 0.73145 0.0
H1013 H 0.02942 0.845 0.64874 0.0
C1014 C 0.08553 0.8178 0.64087 0.0
C1015 C 0.11554 0.80486 0.64306 0.0
C1016 C 0.0731 0.83271 0.68797 0.0
C1017 C 0.13228 0.80684 0.69383 0.0
C1018 C 0.1201 0.8212 0.74032 0.0
C1019 C 0.07824 0.8486 0.78558 0.0
C1020 C 0.04822 0.86124 0.78464 0.0
C1021 C 0.09061 0.83438 0.73805 0.0
C1022 C 0.03125 0.85977 0.73391 0.0
C1023 C 0.04347 0.8459 0.68641 0.0
H1024 H 0.37514 0.88116 0.05064 0.0
H1025 H 0.3125 0.83973 0.94686 0.0
H1026 H 0.32396 0.87555 0.86271 0.0
H1027 H 0.36117 0.90871 0.81448 0.0
H1028 H 0.42951 0.94319 0.91529 0.0
H1029 H 0.40637 0.92083 1.00512 0.0
C1030 C 0.36309 0.88083 1.01022 0.0
C1031 C 0.34328 0.85775 1.00449 0.0
C1032 C 0.37137 0.90004 0.96126 0.0
C1033 C 0.32801 0.85725 0.95189 0.0
C1034 C 0.33475 0.87756 0.90375 0.0
C1035 C 0.36994 0.91245 0.85643 0.0
C1036 C 0.39671 0.92755 0.85902 0.0
C1037 C 0.35777 0.89767 0.90712 0.0
C1038 C 0.40869 0.93179 0.91302 0.0
C1039 C 0.39566 0.91872 0.96405 0.0
H1040 H 0.42602 0.14939 0.24078 0.0
H1041 H 0.48653 0.09758 0.13859 0.0
H1042 H 0.46097 0.12122 0.04969 0.0
H1043 H 0.42243 0.15804 1.00065 0.0
H1044 H 0.36648 0.21438 0.10264 0.0
H1045 H 0.38889 0.18742 0.19171 0.0
C1046 C 0.43342 0.14281 0.19916 0.0
C1047 C 0.45787 0.12085 0.19705 0.0
C1048 C 0.41932 0.1575 0.148 0.0
C1049 C 0.46767 0.11383 0.14214 0.0
C1050 C 0.45302 0.12751 0.09117 0.0
C1051 C 0.41471 0.16421 0.0423 0.0
C1052 C 0.392 0.18801 0.04432 0.0
C1053 C 0.42887 0.14948 0.09347 0.0
C1054 C 0.3833 0.19602 0.09919 0.0
C1055 C 0.39634 0.18064 0.15027 0.0
H1056 H 0.83995 0.83094 0.59758 0.0
H1057 H 0.92965 0.82391 0.52743 0.0
H1058 H 0.95002 0.84403 0.61209 0.0
H1059 H 0.94266 0.85936 0.70865 0.0
H1060 H 0.85371 0.86204 0.78433 0.0
H1061 H 0.83235 0.84857 0.69449 0.0
C1062 C 0.86379 0.83454 0.60077 0.0
C1063 C 0.88344 0.82627 0.55701 0.0
C1064 C 0.87536 0.84501 0.65051 0.0
C1065 C 0.91438 0.83032 0.56113 0.0
C1066 C 0.92594 0.84164 0.60938 0.0
C1067 C 0.91864 0.85678 0.70584 0.0
C1068 C 0.8999 0.86117 0.7535 0.0
C1069 C 0.90673 0.84825 0.65495 0.0
C1070 C 0.86864 0.85878 0.74825 0.0
C1071 C 0.85644 0.85094 0.69701 0.0
H1072 H 0.86679 0.14335 0.40601 0.0
H1073 H 0.92767 0.21016 0.44829 0.0
H1074 H 0.96365 0.1934 0.37683 0.0
H1075 H 0.97777 0.16071 0.29824 0.0
H1076 H 0.91498 0.09668 0.25288 0.0
H1077 H 0.88064 0.11105 0.32926 0.0
C1078 C 0.88778 0.15454 0.40011 0.0
C1079 C 0.89382 0.17836 0.43398 0.0
C1080 C 0.90864 0.14485 0.35806 0.0
C1081 C 0.92179 0.19181 0.4243 0.0
C1082 C 0.94265 0.18216 0.38291 0.0
C1083 C 0.95693 0.14931 0.30607 0.0
C1084 C 0.94961 0.12678 0.27024 0.0
C1085 C 0.93642 0.15867 0.34929 0.0
C1086 C 0.92177 0.11341 0.2801 0.0
C1087 C 0.90187 0.12191 0.32367 0.0
H1088 H 0.66176 0.20964 0.07715 0.0
H1089 H 0.67028 0.13278 0.97827 0.0
H1090 H 0.65887 0.09878 0.06493 0.0
H1091 H 0.63285 0.0933 0.16006 0.0
H1092 H 0.6155 0.17219 0.25019 0.0
H1093 H 0.64282 0.20322 0.17559 0.0
C1094 C 0.66215 0.18532 0.0747 0.0
C1095 C 0.66557 0.174 1.02054 0.0
C1096 C 0.65249 0.16644 0.12293 0.0
C1097 C 0.66707 0.1423 1.01902 0.0
C1098 C 0.65991 0.12287 0.06841 0.0
C1099 C 0.63586 0.1171 0.16376 0.0
C1100 C 0.62207 0.13073 0.20978 0.0
C1101 C 0.65031 0.13503 0.11919 0.0
C1102 C 0.62571 0.16156 0.21448 0.0
C1103 C 0.64139 0.17917 0.17205 0.0
H1104 H 0.57953 0.83404 0.79102 0.0
H1105 H 0.52375 0.89291 0.88875 0.0
H1106 H 0.55495 0.87699 0.975 0.0
H1107 H 0.5961 0.84397 1.02406 0.0
H1108 H 0.6482 0.78141 0.92819 0.0
H1109 H 0.62076 0.80158 0.83963 0.0
C1110 C 0.57426 0.84387 0.83084 0.0
C1111 C 0.54918 0.86512 0.83258 0.0
C1112 C 0.59182 0.8339 0.88073 0.0
C1113 C 0.54283 0.8769 0.88539 0.0
C1114 C 0.56071 0.86766 0.9349 0.0
C1115 C 0.60201 0.83508 0.98371 0.0
C1116 C 0.62488 0.81137 0.98325 0.0
C1117 C 0.58508 0.84591 0.93329 0.0
C1118 C 0.63131 0.79986 0.93021 0.0
C1119 C 0.61535 0.81128 0.87952 0.0
H1120 H 0.62667 0.66043 0.76751 0.0
H1121 H 0.60991 0.57112 0.84924 0.0
H1122 H 0.6343 0.5822 0.93878 0.0
H1123 H 0.65333 0.62058 0.99673 0.0
H1124 H 0.66932 0.71006 0.91333 0.0
H1125 H 0.65314 0.69569 0.82044 0.0
C1126 C 0.629 0.64341 0.80487 0.0
C1127 C 0.61644 0.61537 0.80328 0.0
C1128 C 0.64285 0.65004 0.85533 0.0
C1129 C 0.61949 0.59294 0.85072 0.0
C1130 C 0.63331 0.59931 0.90151 0.0
C1131 C 0.65419 0.63644 0.95771 0.0
C1132 C 0.66188 0.66639 0.96148 0.0
C1133 C 0.64417 0.62819 0.90486 0.0
C1134 C 0.66293 0.68701 0.91103 0.0
C1135 C 0.65359 0.67888 0.85819 0.0
H1136 H 0.55759 0.3376 0.30172 0.0
H1137 H 0.50681 0.41056 0.20117 0.0
H1138 H 0.52658 0.39235 0.11138 0.0
H1139 H 0.55798 0.355 0.06091 0.0
H1140 H 0.60451 0.27927 0.16201 0.0
H1141 H 0.58637 0.29875 0.25157 0.0
C1142 C 0.55119 0.34989 0.26025 0.0
C1143 C 0.53134 0.37618 0.25876 0.0
C1144 C 0.56164 0.3384 0.20859 0.0
C1145 C 0.52248 0.39083 0.20411 0.0
C1146 C 0.53369 0.38023 0.15261 0.0
C1147 C 0.56429 0.34278 0.10251 0.0
C1148 C 0.58305 0.31567 0.10423 0.0
C1149 C 0.55325 0.35396 0.15418 0.0
C1150 C 0.59023 0.29998 0.15892 0.0
C1151 C 0.57995 0.3113 0.2103 0.0
H1152 H 0.90255 0.40625 0.44564 0.0
H1153 H 0.84479 0.37223 0.32238 0.0
H1154 H 0.82455 0.33669 0.3993 0.0
H1155 H 0.83073 0.30929 0.49647 0.0
H1156 H 0.88956 0.34208 0.61963 0.0
H1157 H 0.90197 0.38449 0.54789 0.0
C1158 C 0.88462 0.39198 0.43614 0.0
C1159 C 0.87529 0.39154 0.37844 0.0
C1160 C 0.87401 0.37091 0.48017 0.0
C1161 C 0.85227 0.37272 0.36656 0.0
C1162 C 0.84102 0.35224 0.41033 0.0
C1163 C 0.84594 0.32602 0.50778 0.0
C1164 C 0.85984 0.32236 0.56243 0.0
C1165 C 0.85296 0.35006 0.46646 0.0
C1166 C 0.87889 0.34441 0.57742 0.0
C1167 C 0.88599 0.36857 0.53644 0.0
H1168 H 0.92328 0.63385 0.74944 0.0
H1169 H -0.00818 0.58968 0.65054 0.0
H1170 H 0.96547 0.60992 0.56055 0.0
H1171 H 0.92475 0.64256 0.51009 0.0
H1172 H 0.86032 0.69216 0.60845 0.0
H1173 H 0.88324 0.66728 0.6989 0.0
C1174 C 0.93241 0.62815 0.70843 0.0
C1175 C 0.95953 0.60962 0.70746 0.0
C1176 C 0.91779 0.641 0.65675 0.0
C1177 C 0.97096 0.60331 0.6532 0.0
C1178 C 0.95591 0.61508 0.60163 0.0
C1179 C 0.91521 0.64755 0.55118 0.0
C1180 C 0.89013 0.6688 0.55201 0.0
C1181 C 0.92949 0.63421 0.60287 0.0
C1182 C 0.87907 0.67564 0.60613 0.0
C1183 C 0.89235 0.66148 0.65788 0.0
H1184 H 0.4354 0.40386 0.17747 0.0
H1185 H 0.34351 0.41457 0.23541 0.0
H1186 H 0.32601 0.39365 0.1487 0.0
H1187 H 0.33815 0.3646 0.06543 0.0
H1188 H 0.43097 0.34744 1.01839 0.0
H1189 H 0.44731 0.37771 0.09309 0.0
C1190 C 0.4115 0.40181 0.17083 0.0
C1191 C 0.39077 0.40996 0.2131 0.0
C1192 C 0.40206 0.38788 0.12374 0.0
C1193 C 0.35982 0.4083 0.20334 0.0
C1194 C 0.34993 0.39596 0.15432 0.0
C1195 C 0.36185 0.36795 0.07141 0.0
C1196 C 0.3835 0.35382 0.03739 0.0
C1197 C 0.37099 0.38443 0.11572 0.0
C1198 C 0.41418 0.35789 0.04504 0.0
C1199 C 0.42341 0.37527 0.08728 0.0
H1200 H 0.366 0.67572 0.8641 0.0
H1201 H 0.43754 0.71996 0.93971 0.0
H1202 H 0.47449 0.69498 0.87959 0.0
H1203 H 0.48687 0.66207 0.80104 0.0
H1204 H 0.41492 0.61915 0.72409 0.0
H1205 H 0.37853 0.64137 0.789 0.0
C1206 C 0.38965 0.67991 0.86776 0.0
C1207 C 0.39853 0.69993 0.90733 0.0
C1208 C 0.41113 0.66523 0.83275 0.0
C1209 C 0.42962 0.70458 0.91085 0.0
C1210 C 0.45096 0.69026 0.87604 0.0
C1211 C 0.46339 0.65675 0.79969 0.0
C1212 C 0.45406 0.63804 0.75805 0.0
C1213 C 0.44209 0.67051 0.83658 0.0
C1214 C 0.42313 0.63274 0.756 0.0
C1215 C 0.40212 0.6458 0.79293 0.0
H1216 H 0.13945 0.62506 0.48787 0.0
H1217 H 0.19883 0.67558 0.58196 0.0
H1218 H 0.18776 0.64373 0.67187 0.0
H1219 H 0.15189 0.61037 0.72598 0.0
H1220 H 0.08635 0.56741 0.63216 0.0
H1221 H 0.1086 0.5875 0.53989 0.0
C1222 C 0.15104 0.62831 0.5275 0.0
C1223 C 0.16981 0.65282 0.52829 0.0
C1224 C 0.14245 0.61184 0.57953 0.0
C1225 C 0.18435 0.65684 0.58023 0.0
C1226 C 0.17759 0.63896 0.63181 0.0
C1227 C 0.14328 0.60474 0.68517 0.0
C1228 C 0.11768 0.58751 0.68521 0.0
C1229 C 0.15523 0.61777 0.63247 0.0
C1230 C 0.10606 0.58068 0.63253 0.0
C1231 C 0.11876 0.59219 0.58003 0.0
H1232 H 0.07125 0.3359 0.30344 0.0
H1233 H 0.01237 0.38877 0.40715 0.0
H1234 H 0.04328 0.37109 0.49302 0.0
H1235 H 0.08441 0.33705 0.54017 0.0
H1236 H 0.13935 0.28017 0.43717 0.0
H1237 H 0.1127 0.30312 0.34955 0.0
C1238 C 0.06527 0.34411 0.3445 0.0
C1239 C 0.03938 0.3641 0.34814 0.0
C1240 C 0.08249 0.33289 0.39407 0.0
C1241 C 0.03211 0.37377 0.40244 0.0
C1242 C 0.04978 0.36347 0.45172 0.0
C1243 C 0.09114 0.33015 0.49839 0.0
C1244 C 0.11451 0.30716 0.49551 0.0
C1245 C 0.07472 0.34258 0.4483 0.0
C1246 C 0.12199 0.298 0.44092 0.0
C1247 C 0.10654 0.31103 0.39077 0.0
loop_
_geom_bond_atom_site_label_1
_geom_bond_atom_site_label_2
_geom_bond_distance
_geom_bond_site_symmetry_2
_ccdc_geom_bond_type
Co0 N5 2.057 . S
Co0 O17 2.021 . S
Co0 O20 2.062 1_455 S
Co0 O24 2.117 . S
Co0 O25 2.020 . S
C1 O21 1.259 1_455 S
C1 O24 1.258 . S
Co2 N11 2.057 1_554 S
Co2 O18 2.117 . S
Co2 O19 2.020 . S
Co2 O21 2.021 . S
Co2 O26 2.064 1_655 S
C3 N5 1.316 . S
C3 N6 1.347 . S
C3 H8 0.931 . S
C4 N5 1.375 . S
C4 C7 1.350 . S
C4 H9 0.930 . S
N5 Co0 2.057 . S
N5 C3 1.316 . S
N5 C4 1.375 . S
N6 C3 1.347 . S
N6 C7 1.373 . S
C7 C4 1.350 . S
C7 N6 1.373 . S
C7 H28 0.931 . S
H8 C3 0.931 . S
H9 C4 0.930 . S
C10 O17 1.259 . S
C10 O18 1.258 1_455 S
N11 Co2 2.057 1_556 S
N11 C12 1.316 . S
N11 C13 1.375 . S
C12 N11 1.316 . S
C12 N14 1.347 . S
C12 H23 0.931 . S
C13 N11 1.375 . S
C13 C15 1.350 . S
C13 H22 0.930 1_556 S
N14 C12 1.347 . S
N14 C15 1.373 . S
C15 C13 1.350 . S
C15 N14 1.373 . S
C15 H29 0.931 . S
C16 O19 1.256 . S
C16 O20 1.255 . S
O17 Co0 2.021 . S
O17 C10 1.259 . S
O18 Co2 2.117 . S
O18 C10 1.258 1_655 S
O19 Co2 2.020 . S
O19 C16 1.256 . S
O20 Co0 2.062 1_655 S
O20 C16 1.255 . S
O21 C1 1.259 1_655 S
O21 Co2 2.021 . S
H22 C13 0.930 1_554 S
H23 C12 0.931 . S
O24 Co0 2.117 . S
O24 C1 1.258 . S
O25 Co0 2.020 . S
O25 C27 1.256 . S
O26 Co2 2.064 1_455 S
O26 C27 1.256 . S
C27 O25 1.256 . S
C27 O26 1.256 . S
H28 C7 0.931 . S
H29 C15 0.931 . S
Co30 N35 2.057 . S
Co30 O47 2.021 . S
Co30 O50 2.062 . S
Co30 O54 2.117 . S
Co30 O55 2.020 . S
C31 O51 1.259 . S
C31 O54 1.258 . S
Co32 N41 2.057 . S
Co32 O48 2.117 . S
Co32 O49 2.020 . S
Co32 O51 2.021 . S
Co32 O56 2.062 . S
C33 N35 1.316 . S
C33 N36 1.347 . S
C33 H38 0.931 . S
C34 N35 1.375 . S
C34 C37 1.350 . S
C34 H39 0.930 . S
N35 Co30 2.057 . S
N35 C33 1.316 . S
N35 C34 1.375 . S
N36 C33 1.347 . S
N36 C37 1.373 . S
C37 C34 1.350 . S
C37 N36 1.373 . S
C37 H58 0.931 . S
H38 C33 0.931 . S
H39 C34 0.930 . S
C40 O47 1.259 . S
C40 O48 1.258 . S
N41 Co32 2.057 . S
N41 C42 1.316 . S
N41 C43 1.375 . S
C42 N41 1.316 . S
C42 N44 1.347 . S
C42 H53 0.931 . S
C43 N41 1.375 . S
C43 C45 1.350 . S
C43 H52 0.930 . S
N44 C42 1.347 . S
N44 C45 1.373 . S
C45 C43 1.350 . S
C45 N44 1.373 . S
C45 H59 0.931 . S
C46 O49 1.256 . S
C46 O50 1.255 . S
O47 Co30 2.021 . S
O47 C40 1.259 . S
O48 Co32 2.117 . S
O48 C40 1.258 . S
O49 Co32 2.020 . S
O49 C46 1.256 . S
O50 Co30 2.062 . S
O50 C46 1.255 . S
O51 C31 1.259 . S
O51 Co32 2.021 . S
H52 C43 0.930 . S
H53 C42 0.931 . S
O54 Co30 2.117 . S
O54 C31 1.258 . S
O55 Co30 2.020 . S
O55 C57 1.256 . S
O56 Co32 2.062 . S
O56 C57 1.255 . S
C57 O55 1.256 . S
C57 O56 1.255 . S
H58 C37 0.931 . S
H59 C45 0.931 . S
Co60 N65 2.057 . S
Co60 O77 2.021 . S
Co60 O80 2.062 . S
Co60 O84 2.117 . S
Co60 O85 2.020 . S
C61 O81 1.259 . S
C61 O84 1.258 . S
Co62 N71 2.057 . S
Co62 O78 2.117 . S
Co62 O79 2.020 . S
Co62 O81 2.021 . S
Co62 O86 2.062 . S
C63 N65 1.316 . S
C63 N66 1.347 . S
C63 H68 0.931 . S
C64 N65 1.375 . S
C64 C67 1.350 . S
C64 H69 0.930 . S
N65 Co60 2.057 . S
N65 C63 1.316 . S
N65 C64 1.375 . S
N66 C63 1.347 . S
N66 C67 1.373 . S
C67 C64 1.350 . S
C67 N66 1.373 . S
C67 H88 0.931 . S
H68 C63 0.931 . S
H69 C64 0.930 . S
C70 O77 1.259 . S
C70 O78 1.258 . S
N71 Co62 2.057 . S
N71 C72 1.316 . S
N71 C73 1.375 . S
C72 N71 1.316 . S
C72 N74 1.347 . S
C72 H83 0.931 . S
C73 N71 1.375 . S
C73 C75 1.350 . S
C73 H82 0.930 . S
N74 C72 1.347 . S
N74 C75 1.373 . S
C75 C73 1.350 . S
C75 N74 1.373 . S
C75 H89 0.931 . S
C76 O79 1.256 . S
C76 O80 1.255 . S
O77 Co60 2.021 . S
O77 C70 1.259 . S
O78 Co62 2.117 . S
O78 C70 1.258 . S
O79 Co62 2.020 . S
O79 C76 1.256 . S
O80 Co60 2.062 . S
O80 C76 1.255 . S
O81 C61 1.259 . S
O81 Co62 2.021 . S
H82 C73 0.930 . S
H83 C72 0.931 . S
O84 Co60 2.117 . S
O84 C61 1.258 . S
O85 Co60 2.020 . S
O85 C87 1.256 . S
O86 Co62 2.062 . S
O86 C87 1.255 . S
C87 O85 1.256 . S
C87 O86 1.255 . S
H88 C67 0.931 . S
H89 C75 0.931 . S
Co90 N95 2.057 . S
Co90 O107 2.021 . S
Co90 O110 2.062 . S
Co90 O114 2.117 . S
Co90 O115 2.020 . S
C91 O111 1.259 . S
C91 O114 1.258 . S
Co92 N101 2.057 . S
Co92 O108 2.117 . S
Co92 O109 2.020 . S
Co92 O111 2.021 . S
Co92 O116 2.062 . S
C93 N95 1.316 . S
C93 N96 1.347 . S
C93 H98 0.931 . S
C94 N95 1.375 . S
C94 C97 1.350 . S
C94 H99 0.930 . S
N95 Co90 2.057 . S
N95 C93 1.316 . S
N95 C94 1.375 . S
N96 C93 1.347 . S
N96 C97 1.373 . S
C97 C94 1.350 . S
C97 N96 1.373 . S
C97 H118 0.931 . S
H98 C93 0.931 . S
H99 C94 0.930 . S
C100 O107 1.259 . S
C100 O108 1.258 . S
N101 Co92 2.057 . S
N101 C102 1.316 . S
N101 C103 1.375 . S
C102 N101 1.316 . S
C102 N104 1.347 1_556 S
C102 H113 0.931 . S
C103 N101 1.375 . S
C103 C105 1.350 1_556 S
C103 H112 0.930 . S
N104 C102 1.347 1_554 S
N104 C105 1.373 . S
C105 C103 1.350 1_554 S
C105 N104 1.373 . S
C105 H119 0.931 . S
C106 O109 1.256 . S
C106 O110 1.255 . S
O107 Co90 2.021 . S
O107 C100 1.259 . S
O108 Co92 2.117 . S
O108 C100 1.258 . S
O109 Co92 2.020 . S
O109 C106 1.256 . S
O110 Co90 2.062 . S
O110 C106 1.255 . S
O111 C91 1.259 . S
O111 Co92 2.021 . S
H112 C103 0.930 . S
H113 C102 0.931 . S
O114 Co90 2.117 . S
O114 C91 1.258 . S
O115 Co90 2.020 . S
O115 C117 1.256 . S
O116 Co92 2.062 . S
O116 C117 1.255 . S
C117 O115 1.256 . S
C117 O116 1.255 . S
H118 C97 0.931 . S
H119 C105 0.931 . S
Co120 N125 2.057 1_556 S
Co120 O137 2.021 . S
Co120 O140 2.064 1_455 S
Co120 O144 2.117 . S
Co120 O145 2.020 . S
C121 O141 1.259 1_455 S
C121 O144 1.258 . S
Co122 N131 2.057 . S
Co122 O138 2.117 . S
Co122 O139 2.020 . S
Co122 O141 2.021 . S
Co122 O146 2.062 1_655 S
C123 N125 1.316 . S
C123 N126 1.347 . S
C123 H128 0.931 . S
C124 N125 1.375 . S
C124 C127 1.350 . S
C124 H129 0.930 1_554 S
N125 Co120 2.057 1_554 S
N125 C123 1.316 . S
N125 C124 1.375 . S
N126 C123 1.347 . S
N126 C127 1.373 . S
C127 C124 1.350 . S
C127 N126 1.373 . S
C127 H148 0.931 . S
H128 C123 0.931 . S
H129 C124 0.930 1_556 S
C130 O137 1.259 . S
C130 O138 1.258 1_455 S
N131 Co122 2.057 . S
N131 C132 1.316 . S
N131 C133 1.375 . S
C132 N131 1.316 . S
C132 N134 1.347 . S
C132 H143 0.931 . S
C133 N131 1.375 . S
C133 C135 1.350 . S
C133 H142 0.930 . S
N134 C132 1.347 . S
N134 C135 1.373 . S
C135 C133 1.350 . S
C135 N134 1.373 . S
C135 H149 0.931 . S
C136 O139 1.256 . S
C136 O140 1.256 . S
O137 Co120 2.021 . S
O137 C130 1.259 . S
O138 Co122 2.117 . S
O138 C130 1.258 1_655 S
O139 Co122 2.020 . S
O139 C136 1.256 . S
O140 Co120 2.064 1_655 S
O140 C136 1.256 . S
O141 C121 1.259 1_655 S
O141 Co122 2.021 . S
H142 C133 0.930 . S
H143 C132 0.931 . S
O144 Co120 2.117 . S
O144 C121 1.258 . S
O145 Co120 2.020 . S
O145 C147 1.256 . S
O146 Co122 2.062 1_455 S
O146 C147 1.255 . S
C147 O145 1.256 . S
C147 O146 1.255 . S
H148 C127 0.931 . S
H149 C135 0.931 . S
Co150 N155 2.057 . S
Co150 O167 2.021 . S
Co150 O170 2.062 . S
Co150 O174 2.117 . S
Co150 O175 2.020 . S
C151 O171 1.259 . S
C151 O174 1.258 . S
Co152 N161 2.057 . S
Co152 O168 2.117 . S
Co152 O169 2.020 . S
Co152 O171 2.021 . S
Co152 O176 2.062 . S
C153 N155 1.316 . S
C153 N156 1.347 . S
C153 H158 0.931 . S
C154 N155 1.375 . S
C154 C157 1.350 . S
C154 H159 0.930 . S
N155 Co150 2.057 . S
N155 C153 1.316 . S
N155 C154 1.375 . S
N156 C153 1.347 . S
N156 C157 1.373 . S
C157 C154 1.350 . S
C157 N156 1.373 . S
C157 H178 0.931 . S
H158 C153 0.931 . S
H159 C154 0.930 . S
C160 O167 1.259 . S
C160 O168 1.258 . S
N161 Co152 2.057 . S
N161 C162 1.316 . S
N161 C163 1.375 . S
C162 N161 1.316 . S
C162 N164 1.347 1_554 S
C162 H173 0.931 . S
C163 N161 1.375 . S
C163 C165 1.350 1_554 S
C163 H172 0.930 . S
N164 C162 1.347 1_556 S
N164 C165 1.373 . S
C165 C163 1.350 1_556 S
C165 N164 1.373 . S
C165 H179 0.931 . S
C166 O169 1.256 . S
C166 O170 1.255 . S
O167 Co150 2.021 . S
O167 C160 1.259 . S
O168 Co152 2.117 . S
O168 C160 1.258 . S
O169 Co152 2.020 . S
O169 C166 1.256 . S
O170 Co150 2.062 . S
O170 C166 1.255 . S
O171 C151 1.259 . S
O171 Co152 2.021 . S
H172 C163 0.930 . S
H173 C162 0.931 . S
O174 Co150 2.117 . S
O174 C151 1.258 . S
O175 Co150 2.020 . S
O175 C177 1.256 . S
O176 Co152 2.062 . S
O176 C177 1.255 . S
C177 O175 1.256 . S
C177 O176 1.255 . S
H178 C157 0.931 . S
H179 C165 0.931 . S
Co180 N185 2.057 . S
Co180 O197 2.021 . S
Co180 O200 2.062 . S
Co180 O204 2.117 . S
Co180 O205 2.020 . S
C181 O201 1.259 . S
C181 O204 1.258 . S
Co182 N191 2.057 . S
Co182 O198 2.117 . S
Co182 O199 2.020 . S
Co182 O201 2.021 . S
Co182 O206 2.062 . S
C183 N185 1.316 . S
C183 N186 1.347 . S
C183 H188 0.931 . S
C184 N185 1.375 . S
C184 C187 1.350 . S
C184 H189 0.930 . S
N185 Co180 2.057 . S
N185 C183 1.316 . S
N185 C184 1.375 . S
N186 C183 1.347 . S
N186 C187 1.373 . S
C187 C184 1.350 . S
C187 N186 1.373 . S
C187 H208 0.931 . S
H188 C183 0.931 . S
H189 C184 0.930 . S
C190 O197 1.259 . S
C190 O198 1.258 . S
N191 Co182 2.057 . S
N191 C192 1.316 . S
N191 C193 1.375 . S
C192 N191 1.316 . S
C192 N194 1.347 . S
C192 H203 0.931 . S
C193 N191 1.375 . S
C193 C195 1.350 . S
C193 H202 0.930 . S
N194 C192 1.347 . S
N194 C195 1.373 . S
C195 C193 1.350 . S
C195 N194 1.373 . S
C195 H209 0.931 . S
C196 O199 1.256 . S
C196 O200 1.255 . S
O197 Co180 2.021 . S
O197 C190 1.259 . S
O198 Co182 2.117 . S
O198 C190 1.258 . S
O199 Co182 2.020 . S
O199 C196 1.256 . S
O200 Co180 2.062 . S
O200 C196 1.255 . S
O201 C181 1.259 . S
O201 Co182 2.021 . S
H202 C193 0.930 . S
H203 C192 0.931 . S
O204 Co180 2.117 . S
O204 C181 1.258 . S
O205 Co180 2.020 . S
O205 C207 1.256 . S
O206 Co182 2.062 . S
O206 C207 1.255 . S
C207 O205 1.256 . S
C207 O206 1.255 . S
H208 C187 0.931 . S
H209 C195 0.931 . S
Co210 N215 2.057 . S
Co210 O227 2.021 . S
Co210 O230 2.062 . S
Co210 O234 2.117 . S
Co210 O235 2.020 . S
C211 O231 1.259 . S
C211 O234 1.258 . S
Co212 N221 2.057 . S
Co212 O228 2.117 . S
Co212 O229 2.020 . S
Co212 O231 2.021 . S
Co212 O236 2.062 . S
C213 N215 1.316 . S
C213 N216 1.347 . S
C213 H218 0.931 . S
C214 N215 1.375 . S
C214 C217 1.350 . S
C214 H219 0.930 . S
N215 Co210 2.057 . S
N215 C213 1.316 . S
N215 C214 1.375 . S
N216 C213 1.347 . S
N216 C217 1.373 . S
C217 C214 1.350 . S
C217 N216 1.373 . S
C217 H238 0.931 . S
H218 C213 0.931 . S
H219 C214 0.930 . S
C220 O227 1.259 . S
C220 O228 1.258 . S
N221 Co212 2.057 . S
N221 C222 1.316 . S
N221 C223 1.375 . S
C222 N221 1.316 . S
C222 N224 1.347 . S
C222 H233 0.931 . S
C223 N221 1.375 . S
C223 C225 1.350 . S
C223 H232 0.930 . S
N224 C222 1.347 . S
N224 C225 1.373 . S
C225 C223 1.350 . S
C225 N224 1.373 . S
C225 H239 0.931 . S
C226 O229 1.256 . S
C226 O230 1.255 . S
O227 Co210 2.021 . S
O227 C220 1.259 . S
O228 Co212 2.117 . S
O228 C220 1.258 . S
O229 Co212 2.020 . S
O229 C226 1.256 . S
O230 Co210 2.062 . S
O230 C226 1.255 . S
O231 C211 1.259 . S
O231 Co212 2.021 . S
H232 C223 0.930 . S
H233 C222 0.931 . S
O234 Co210 2.117 . S
O234 C211 1.258 . S
O235 Co210 2.020 . S
O235 C237 1.256 . S
O236 Co212 2.062 . S
O236 C237 1.255 . S
C237 O235 1.256 . S
C237 O236 1.255 . S
H238 C217 0.931 . S
H239 C225 0.931 . S
Co240 N245 2.057 . S
Co240 O257 2.021 . S
Co240 O260 2.062 . S
Co240 O264 2.117 . S
Co240 O265 2.020 . S
C241 O261 1.259 . S
C241 O264 1.258 . S
Co242 N251 2.057 . S
Co242 O258 2.117 . S
Co242 O259 2.020 . S
Co242 O261 2.021 . S
Co242 O266 2.062 . S
C243 N245 1.316 . S
C243 N246 1.347 . S
C243 H248 0.931 . S
C244 N245 1.375 . S
C244 C247 1.350 . S
C244 H249 0.930 . S
N245 Co240 2.057 . S
N245 C243 1.316 . S
N245 C244 1.375 . S
N246 C243 1.347 . S
N246 C247 1.373 . S
C247 C244 1.350 . S
C247 N246 1.373 . S
C247 H268 0.931 . S
H248 C243 0.931 . S
H249 C244 0.930 . S
C250 O257 1.259 . S
C250 O258 1.258 . S
N251 Co242 2.057 . S
N251 C252 1.316 . S
N251 C253 1.375 . S
C252 N251 1.316 . S
C252 N254 1.347 . S
C252 H263 0.931 . S
C253 N251 1.375 . S
C253 C255 1.350 . S
C253 H262 0.930 . S
N254 C252 1.347 . S
N254 C255 1.373 . S
C255 C253 1.350 . S
C255 N254 1.373 . S
C255 H269 0.931 . S
C256 O259 1.256 . S
C256 O260 1.255 . S
O257 Co240 2.021 . S
O257 C250 1.259 . S
O258 Co242 2.117 . S
O258 C250 1.258 . S
O259 Co242 2.020 . S
O259 C256 1.256 . S
O260 Co240 2.062 . S
O260 C256 1.255 . S
O261 C241 1.259 . S
O261 Co242 2.021 . S
H262 C253 0.930 . S
H263 C252 0.931 . S
O264 Co240 2.117 . S
O264 C241 1.258 . S
O265 Co240 2.020 . S
O265 C267 1.256 . S
O266 Co242 2.062 . S
O266 C267 1.255 . S
C267 O265 1.256 . S
C267 O266 1.255 . S
H268 C247 0.931 . S
H269 C255 0.931 . S
Co270 N275 2.057 . S
Co270 O287 2.021 . S
Co270 O290 2.062 . S
Co270 O294 2.117 . S
Co270 O295 2.020 . S
C271 O291 1.259 . S
C271 O294 1.258 . S
Co272 N281 2.057 . S
Co272 O288 2.117 . S
Co272 O289 2.020 . S
Co272 O291 2.021 . S
Co272 O296 2.062 . S
C273 N275 1.316 . S
C273 N276 1.347 1_554 S
C273 H278 0.931 . S
C274 N275 1.375 . S
C274 C277 1.350 1_554 S
C274 H279 0.930 . S
N275 Co270 2.057 . S
N275 C273 1.316 . S
N275 C274 1.375 . S
N276 C273 1.347 1_556 S
N276 C277 1.373 . S
C277 C274 1.350 1_556 S
C277 N276 1.373 . S
C277 H298 0.931 . S
H278 C273 0.931 . S
H279 C274 0.930 . S
C280 O287 1.259 . S
C280 O288 1.258 . S
N281 Co272 2.057 . S
N281 C282 1.316 . S
N281 C283 1.375 . S
C282 N281 1.316 . S
C282 N284 1.347 . S
C282 H293 0.931 . S
C283 N281 1.375 . S
C283 C285 1.350 . S
C283 H292 0.930 . S
N284 C282 1.347 . S
N284 C285 1.373 . S
C285 C283 1.350 . S
C285 N284 1.373 . S
C285 H299 0.931 . S
C286 O289 1.256 . S
C286 O290 1.255 . S
O287 Co270 2.021 . S
O287 C280 1.259 . S
O288 Co272 2.117 . S
O288 C280 1.258 . S
O289 Co272 2.020 . S
O289 C286 1.256 . S
O290 Co270 2.062 . S
O290 C286 1.255 . S
O291 C271 1.259 . S
O291 Co272 2.021 . S
H292 C283 0.930 . S
H293 C282 0.931 . S
O294 Co270 2.117 . S
O294 C271 1.258 . S
O295 Co270 2.020 . S
O295 C297 1.256 . S
O296 Co272 2.062 . S
O296 C297 1.255 . S
C297 O295 1.256 . S
C297 O296 1.255 . S
H298 C277 0.931 . S
H299 C285 0.931 . S
Co300 N305 2.057 . S
Co300 O317 2.021 . S
Co300 O320 2.062 . S
Co300 O324 2.117 . S
Co300 O325 2.020 . S
C301 O321 1.259 . S
C301 O324 1.258 . S
Co302 N311 2.057 . S
Co302 O318 2.117 . S
Co302 O319 2.020 . S
Co302 O321 2.021 . S
Co302 O326 2.062 . S
C303 N305 1.316 . S
C303 N306 1.347 1_556 S
C303 H308 0.931 . S
C304 N305 1.375 . S
C304 C307 1.350 1_556 S
C304 H309 0.930 . S
N305 Co300 2.057 . S
N305 C303 1.316 . S
N305 C304 1.375 . S
N306 C303 1.347 1_554 S
N306 C307 1.373 . S
C307 C304 1.350 1_554 S
C307 N306 1.373 . S
C307 H328 0.931 . S
H308 C303 0.931 . S
H309 C304 0.930 . S
C310 O317 1.259 . S
C310 O318 1.258 . S
N311 Co302 2.057 . S
N311 C312 1.316 . S
N311 C313 1.375 . S
C312 N311 1.316 . S
C312 N314 1.347 . S
C312 H323 0.931 . S
C313 N311 1.375 . S
C313 C315 1.350 . S
C313 H322 0.930 . S
N314 C312 1.347 . S
N314 C315 1.373 . S
C315 C313 1.350 . S
C315 N314 1.373 . S
C315 H329 0.931 . S
C316 O319 1.256 . S
C316 O320 1.255 . S
O317 Co300 2.021 . S
O317 C310 1.259 . S
O318 Co302 2.117 . S
O318 C310 1.258 . S
O319 Co302 2.020 . S
O319 C316 1.256 . S
O320 Co300 2.062 . S
O320 C316 1.255 . S
O321 C301 1.259 . S
O321 Co302 2.021 . S
H322 C313 0.930 . S
H323 C312 0.931 . S
O324 Co300 2.117 . S
O324 C301 1.258 . S
O325 Co300 2.020 . S
O325 C327 1.256 . S
O326 Co302 2.062 . S
O326 C327 1.255 . S
C327 O325 1.256 . S
C327 O326 1.255 . S
H328 C307 0.931 . S
H329 C315 0.931 . S
Co330 N335 2.057 . S
Co330 O347 2.021 . S
Co330 O350 2.062 . S
Co330 O354 2.117 . S
Co330 O355 2.020 . S
C331 O351 1.259 . S
C331 O354 1.258 . S
Co332 N341 2.057 . S
Co332 O348 2.117 . S
Co332 O349 2.020 . S
Co332 O351 2.021 . S
Co332 O356 2.062 . S
C333 N335 1.316 . S
C333 N336 1.347 . S
C333 H338 0.931 . S
C334 N335 1.375 . S
C334 C337 1.350 . S
C334 H339 0.930 . S
N335 Co330 2.057 . S
N335 C333 1.316 . S
N335 C334 1.375 . S
N336 C333 1.347 . S
N336 C337 1.373 . S
C337 C334 1.350 . S
C337 N336 1.373 . S
C337 H358 0.931 . S
H338 C333 0.931 . S
H339 C334 0.930 . S
C340 O347 1.259 . S
C340 O348 1.258 . S
N341 Co332 2.057 . S
N341 C342 1.316 . S
N341 C343 1.375 . S
C342 N341 1.316 . S
C342 N344 1.347 . S
C342 H353 0.931 . S
C343 N341 1.375 . S
C343 C345 1.350 . S
C343 H352 0.930 . S
N344 C342 1.347 . S
N344 C345 1.373 . S
C345 C343 1.350 . S
C345 N344 1.373 . S
C345 H359 0.931 . S
C346 O349 1.256 . S
C346 O350 1.255 . S
O347 Co330 2.021 . S
O347 C340 1.259 . S
O348 Co332 2.117 . S
O348 C340 1.258 . S
O349 Co332 2.020 . S
O349 C346 1.256 . S
O350 Co330 2.062 . S
O350 C346 1.255 . S
O351 C331 1.259 . S
O351 Co332 2.021 . S
H352 C343 0.930 . S
H353 C342 0.931 . S
O354 Co330 2.117 . S
O354 C331 1.258 . S
O355 Co330 2.020 . S
O355 C357 1.256 . S
O356 Co332 2.062 . S
O356 C357 1.255 . S
C357 O355 1.256 . S
C357 O356 1.255 . S
H358 C337 0.931 . S
H359 C345 0.931 . S
Co360 N365 2.057 . S
Co360 O377 2.021 . S
Co360 O380 2.062 . S
Co360 O384 2.117 . S
Co360 O385 2.020 . S
C361 O381 1.259 . S
C361 O384 1.258 . S
Co362 N371 2.057 . S
Co362 O378 2.117 . S
Co362 O379 2.020 . S
Co362 O381 2.021 . S
Co362 O386 2.062 . S
C363 N365 1.316 . S
C363 N366 1.347 . S
C363 H368 0.931 . S
C364 N365 1.375 . S
C364 C367 1.350 . S
C364 H369 0.930 . S
N365 Co360 2.057 . S
N365 C363 1.316 . S
N365 C364 1.375 . S
N366 C363 1.347 . S
N366 C367 1.373 . S
C367 C364 1.350 . S
C367 N366 1.373 . S
C367 H388 0.931 . S
H368 C363 0.931 . S
H369 C364 0.930 . S
C370 O377 1.259 . S
C370 O378 1.258 . S
N371 Co362 2.057 . S
N371 C372 1.316 . S
N371 C373 1.375 . S
C372 N371 1.316 . S
C372 N374 1.347 . S
C372 H383 0.931 . S
C373 N371 1.375 . S
C373 C375 1.350 . S
C373 H382 0.930 . S
N374 C372 1.347 . S
N374 C375 1.373 . S
C375 C373 1.350 . S
C375 N374 1.373 . S
C375 H389 0.931 . S
C376 O379 1.256 . S
C376 O380 1.255 . S
O377 Co360 2.021 . S
O377 C370 1.259 . S
O378 Co362 2.117 . S
O378 C370 1.258 . S
O379 Co362 2.020 . S
O379 C376 1.256 . S
O380 Co360 2.062 . S
O380 C376 1.255 . S
O381 C361 1.259 . S
O381 Co362 2.021 . S
H382 C373 0.930 . S
H383 C372 0.931 . S
O384 Co360 2.117 . S
O384 C361 1.258 . S
O385 Co360 2.020 . S
O385 C387 1.256 . S
O386 Co362 2.062 . S
O386 C387 1.255 . S
C387 O385 1.256 . S
C387 O386 1.255 . S
H388 C367 0.931 . S
H389 C375 0.931 . S
Co390 N395 2.057 . S
Co390 O407 2.021 . S
Co390 O410 2.062 1_655 S
Co390 O414 2.117 . S
Co390 O415 2.020 . S
C391 O411 1.259 . S
C391 O414 1.258 1_455 S
Co392 N401 2.057 . S
Co392 O408 2.117 . S
Co392 O409 2.020 . S
Co392 O411 2.021 . S
Co392 O416 2.062 1_455 S
C393 N395 1.316 . S
C393 N396 1.347 . S
C393 H398 0.931 . S
C394 N395 1.375 . S
C394 C397 1.350 . S
C394 H399 0.930 . S
N395 Co390 2.057 . S
N395 C393 1.316 . S
N395 C394 1.375 . S
N396 C393 1.347 . S
N396 C397 1.373 . S
C397 C394 1.350 . S
C397 N396 1.373 . S
C397 H418 0.931 . S
H398 C393 0.931 . S
H399 C394 0.930 . S
C400 O407 1.261 1_455 S
C400 O408 1.257 . S
N401 Co392 2.057 . S
N401 C402 1.316 . S
N401 C403 1.375 . S
C402 N401 1.316 . S
C402 N404 1.347 1_554 S
C402 H413 0.931 . S
C403 N401 1.375 . S
C403 C405 1.350 1_554 S
C403 H412 0.930 . S
N404 C402 1.347 1_556 S
N404 C405 1.373 . S
C405 C403 1.350 1_556 S
C405 N404 1.373 . S
C405 H419 0.931 . S
C406 O409 1.256 . S
C406 O410 1.255 . S
O407 Co390 2.021 . S
O407 C400 1.261 1_655 S
O408 Co392 2.117 . S
O408 C400 1.257 . S
O409 Co392 2.020 . S
O409 C406 1.256 . S
O410 Co390 2.062 1_455 S
O410 C406 1.255 . S
O411 C391 1.259 . S
O411 Co392 2.021 . S
H412 C403 0.930 . S
H413 C402 0.931 . S
O414 Co390 2.117 . S
O414 C391 1.258 1_655 S
O415 Co390 2.020 . S
O415 C417 1.256 . S
O416 Co392 2.062 1_655 S
O416 C417 1.255 . S
C417 O415 1.256 . S
C417 O416 1.255 . S
H418 C397 0.931 . S
H419 C405 0.931 . S
Co420 N425 2.057 . S
Co420 O437 2.021 . S
Co420 O440 2.062 . S
Co420 O444 2.117 . S
Co420 O445 2.020 . S
C421 O441 1.259 . S
C421 O444 1.258 . S
Co422 N431 2.057 . S
Co422 O438 2.117 . S
Co422 O439 2.020 . S
Co422 O441 2.021 . S
Co422 O446 2.062 . S
C423 N425 1.316 . S
C423 N426 1.347 . S
C423 H428 0.931 . S
C424 N425 1.375 . S
C424 C427 1.350 . S
C424 H429 0.930 . S
N425 Co420 2.057 . S
N425 C423 1.316 . S
N425 C424 1.375 . S
N426 C423 1.347 . S
N426 C427 1.373 . S
C427 C424 1.350 . S
C427 N426 1.373 . S
C427 H448 0.931 . S
H428 C423 0.931 . S
H429 C424 0.930 . S
C430 O437 1.259 . S
C430 O438 1.258 . S
N431 Co422 2.057 . S
N431 C432 1.316 . S
N431 C433 1.375 . S
C432 N431 1.316 . S
C432 N434 1.347 . S
C432 H443 0.931 . S
C433 N431 1.375 . S
C433 C435 1.350 . S
C433 H442 0.930 . S
N434 C432 1.347 . S
N434 C435 1.373 . S
C435 C433 1.350 . S
C435 N434 1.373 . S
C435 H449 0.931 . S
C436 O439 1.256 . S
C436 O440 1.255 . S
O437 Co420 2.021 . S
O437 C430 1.259 . S
O438 Co422 2.117 . S
O438 C430 1.258 . S
O439 Co422 2.020 . S
O439 C436 1.256 . S
O440 Co420 2.062 . S
O440 C436 1.255 . S
O441 C421 1.259 . S
O441 Co422 2.021 . S
H442 C433 0.930 . S
H443 C432 0.931 . S
O444 Co420 2.117 . S
O444 C421 1.258 . S
O445 Co420 2.020 . S
O445 C447 1.256 . S
O446 Co422 2.062 . S
O446 C447 1.255 . S
C447 O445 1.256 . S
C447 O446 1.255 . S
H448 C427 0.931 . S
H449 C435 0.931 . S
Co450 N455 2.057 . S
Co450 O467 2.021 . S
Co450 O470 2.062 1_655 S
Co450 O474 2.117 . S
Co450 O475 2.020 . S
C451 O471 1.259 . S
C451 O474 1.258 1_455 S
Co452 N461 2.057 . S
Co452 O468 2.117 . S
Co452 O469 2.020 . S
Co452 O471 2.021 . S
Co452 O476 2.062 1_455 S
C453 N455 1.316 . S
C453 N456 1.347 1_556 S
C453 H458 0.931 . S
C454 N455 1.375 . S
C454 C457 1.350 1_556 S
C454 H459 0.930 . S
N455 Co450 2.057 . S
N455 C453 1.316 . S
N455 C454 1.375 . S
N456 C453 1.347 1_554 S
N456 C457 1.373 . S
C457 C454 1.350 1_554 S
C457 N456 1.373 . S
C457 H478 0.931 . S
H458 C453 0.931 . S
H459 C454 0.930 . S
C460 O467 1.259 1_455 S
C460 O468 1.258 . S
N461 Co452 2.057 . S
N461 C462 1.316 . S
N461 C463 1.375 . S
C462 N461 1.316 . S
C462 N464 1.347 . S
C462 H473 0.931 . S
C463 N461 1.375 . S
C463 C465 1.350 . S
C463 H472 0.930 . S
N464 C462 1.347 . S
N464 C465 1.373 . S
C465 C463 1.350 . S
C465 N464 1.373 . S
C465 H479 0.931 . S
C466 O469 1.256 . S
C466 O470 1.255 . S
O467 Co450 2.021 . S
O467 C460 1.259 1_655 S
O468 Co452 2.117 . S
O468 C460 1.258 . S
O469 Co452 2.020 . S
O469 C466 1.256 . S
O470 Co450 2.062 1_455 S
O470 C466 1.255 . S
O471 C451 1.259 . S
O471 Co452 2.021 . S
H472 C463 0.930 . S
H473 C462 0.931 . S
O474 Co450 2.117 . S
O474 C451 1.258 1_655 S
O475 Co450 2.020 . S
O475 C477 1.256 . S
O476 Co452 2.062 1_655 S
O476 C477 1.255 . S
C477 O475 1.256 . S
C477 O476 1.255 . S
H478 C457 0.931 . S
H479 C465 0.931 . S
H480 C486 0.930 . S
H481 C489 0.930 1_554 S
H482 C490 0.930 . S
H483 C491 0.930 . S
H484 C494 0.930 . S
H485 C495 0.930 . S
C486 H480 0.930 . S
C486 C487 1.355 . S
C486 C488 1.415 . S
C487 C486 1.355 . S
C487 C489 1.419 . S
C488 C486 1.415 . S
C488 C493 1.425 . S
C488 C495 1.409 . S
C489 H481 0.930 1_556 S
C489 C487 1.419 . S
C489 C490 1.362 . S
C490 H482 0.930 . S
C490 C489 1.362 . S
C490 C493 1.409 . S
C491 H483 0.930 . S
C491 C492 1.355 . S
C491 C493 1.415 . S
C492 C491 1.355 . S
C492 C494 1.419 . S
C493 C488 1.425 . S
C493 C490 1.409 . S
C493 C491 1.415 . S
C494 H484 0.930 . S
C494 C492 1.419 . S
C494 C495 1.362 . S
C495 H485 0.930 . S
C495 C488 1.409 . S
C495 C494 1.362 . S
H496 C502 0.930 . S
H497 C505 0.930 . S
H498 C506 0.930 . S
H499 C507 0.930 . S
H500 C510 0.930 . S
H501 C511 0.930 . S
C502 H496 0.930 . S
C502 C503 1.355 . S
C502 C504 1.415 . S
C503 C502 1.355 . S
C503 C505 1.419 . S
C504 C502 1.415 . S
C504 C509 1.425 . S
C504 C511 1.409 . S
C505 H497 0.930 . S
C505 C503 1.419 . S
C505 C506 1.362 . S
C506 H498 0.930 . S
C506 C505 1.362 . S
C506 C509 1.409 . S
C507 H499 0.930 . S
C507 C508 1.355 . S
C507 C509 1.415 . S
C508 C507 1.355 . S
C508 C510 1.419 . S
C509 C504 1.425 . S
C509 C506 1.409 . S
C509 C507 1.415 . S
C510 H500 0.930 . S
C510 C508 1.419 . S
C510 C511 1.362 . S
C511 H501 0.930 . S
C511 C504 1.409 . S
C511 C510 1.362 . S
H512 C518 0.930 . S
H513 C521 0.930 . S
H514 C522 0.930 . S
H515 C523 0.930 . S
H516 C526 0.930 . S
H517 C527 0.930 . S
C518 H512 0.930 . S
C518 C519 1.355 . S
C518 C520 1.415 . S
C519 C518 1.355 . S
C519 C521 1.419 . S
C520 C518 1.415 . S
C520 C525 1.425 . S
C520 C527 1.409 . S
C521 H513 0.930 . S
C521 C519 1.419 . S
C521 C522 1.362 . S
C522 H514 0.930 . S
C522 C521 1.362 . S
C522 C525 1.409 . S
C523 H515 0.930 . S
C523 C524 1.355 . S
C523 C525 1.415 . S
C524 C523 1.355 . S
C524 C526 1.419 . S
C525 C520 1.425 . S
C525 C522 1.409 . S
C525 C523 1.415 . S
C526 H516 0.930 . S
C526 C524 1.419 . S
C526 C527 1.362 . S
C527 H517 0.930 . S
C527 C520 1.409 . S
C527 C526 1.362 . S
H528 C534 0.930 . S
H529 C537 0.930 . S
H530 C538 0.930 . S
H531 C539 0.930 . S
H532 C542 0.930 . S
H533 C543 0.930 . S
C534 H528 0.930 . S
C534 C535 1.355 . S
C534 C536 1.415 . S
C535 C534 1.355 . S
C535 C537 1.419 . S
C536 C534 1.415 . S
C536 C541 1.425 . S
C536 C543 1.409 . S
C537 H529 0.930 . S
C537 C535 1.419 . S
C537 C538 1.362 . S
C538 H530 0.930 . S
C538 C537 1.362 . S
C538 C541 1.409 . S
C539 H531 0.930 . S
C539 C540 1.355 . S
C539 C541 1.415 . S
C540 C539 1.355 . S
C540 C542 1.419 . S
C541 C536 1.425 . S
C541 C538 1.409 . S
C541 C539 1.415 . S
C542 H532 0.930 . S
C542 C540 1.419 . S
C542 C543 1.362 . S
C543 H533 0.930 . S
C543 C536 1.409 . S
C543 C542 1.362 . S
H544 C550 0.930 . S
H545 C553 0.930 . S
H546 C554 0.930 . S
H547 C555 0.930 . S
H548 C558 0.930 . S
H549 C559 0.930 . S
C550 H544 0.930 . S
C550 C551 1.355 . S
C550 C552 1.415 . S
C551 C550 1.355 . S
C551 C553 1.419 . S
C552 C550 1.415 . S
C552 C557 1.425 . S
C552 C559 1.409 . S
C553 H545 0.930 . S
C553 C551 1.419 . S
C553 C554 1.362 . S
C554 H546 0.930 . S
C554 C553 1.362 . S
C554 C557 1.409 . S
C555 H547 0.930 . S
C555 C556 1.355 . S
C555 C557 1.415 . S
C556 C555 1.355 . S
C556 C558 1.419 . S
C557 C552 1.425 . S
C557 C554 1.409 . S
C557 C555 1.415 . S
C558 H548 0.930 . S
C558 C556 1.419 . S
C558 C559 1.362 . S
C559 H549 0.930 . S
C559 C552 1.409 . S
C559 C558 1.362 . S
H560 C566 0.930 . S
H561 C569 0.930 . S
H562 C570 0.930 . S
H563 C571 0.930 . S
H564 C574 0.930 . S
H565 C575 0.930 . S
C566 H560 0.930 . S
C566 C567 1.355 . S
C566 C568 1.415 . S
C567 C566 1.355 . S
C567 C569 1.419 . S
C568 C566 1.415 . S
C568 C573 1.425 . S
C568 C575 1.409 . S
C569 H561 0.930 . S
C569 C567 1.419 . S
C569 C570 1.362 . S
C570 H562 0.930 . S
C570 C569 1.362 . S
C570 C573 1.409 . S
C571 H563 0.930 . S
C571 C572 1.355 . S
C571 C573 1.415 . S
C572 C571 1.355 . S
C572 C574 1.419 . S
C573 C568 1.425 . S
C573 C570 1.409 . S
C573 C571 1.415 . S
C574 H564 0.930 . S
C574 C572 1.419 . S
C574 C575 1.362 . S
C575 H565 0.930 . S
C575 C568 1.409 . S
C575 C574 1.362 . S
H576 C582 0.930 . S
H577 C585 0.930 . S
H578 C586 0.930 . S
H579 C587 0.930 . S
H580 C590 0.930 . S
H581 C591 0.930 . S
C582 H576 0.930 . S
C582 C583 1.355 . S
C582 C584 1.415 . S
C583 C582 1.355 . S
C583 C585 1.419 . S
C584 C582 1.415 . S
C584 C589 1.425 . S
C584 C591 1.409 . S
C585 H577 0.930 . S
C585 C583 1.419 . S
C585 C586 1.362 . S
C586 H578 0.930 . S
C586 C585 1.362 . S
C586 C589 1.409 . S
C587 H579 0.930 . S
C587 C588 1.355 . S
C587 C589 1.415 . S
C588 C587 1.355 . S
C588 C590 1.419 . S
C589 C584 1.425 . S
C589 C586 1.409 . S
C589 C587 1.415 . S
C590 H580 0.930 . S
C590 C588 1.419 . S
C590 C591 1.362 . S
C591 H581 0.930 . S
C591 C584 1.409 . S
C591 C590 1.362 . S
H592 C598 0.930 . S
H593 C601 0.930 . S
H594 C602 0.930 . S
H595 C603 0.930 . S
H596 C606 0.930 . S
H597 C607 0.930 . S
C598 H592 0.930 . S
C598 C599 1.355 . S
C598 C600 1.415 . S
C599 C598 1.355 . S
C599 C601 1.419 . S
C600 C598 1.415 . S
C600 C605 1.425 . S
C600 C607 1.409 . S
C601 H593 0.930 . S
C601 C599 1.419 . S
C601 C602 1.362 . S
C602 H594 0.930 . S
C602 C601 1.362 . S
C602 C605 1.409 . S
C603 H595 0.930 . S
C603 C604 1.355 . S
C603 C605 1.415 . S
C604 C603 1.355 . S
C604 C606 1.419 . S
C605 C600 1.425 . S
C605 C602 1.409 . S
C605 C603 1.415 . S
C606 H596 0.930 . S
C606 C604 1.419 . S
C606 C607 1.362 . S
C607 H597 0.930 . S
C607 C600 1.409 . S
C607 C606 1.362 . S
H608 C614 0.930 . S
H609 C617 0.930 . S
H610 C618 0.930 . S
H611 C619 0.930 . S
H612 C622 0.930 . S
H613 C623 0.930 . S
C614 H608 0.930 . S
C614 C615 1.355 . S
C614 C616 1.415 . S
C615 C614 1.355 . S
C615 C617 1.419 . S
C616 C614 1.415 . S
C616 C621 1.425 . S
C616 C623 1.409 . S
C617 H609 0.930 . S
C617 C615 1.419 . S
C617 C618 1.362 . S
C618 H610 0.930 . S
C618 C617 1.362 . S
C618 C621 1.409 . S
C619 H611 0.930 . S
C619 C620 1.355 . S
C619 C621 1.415 . S
C620 C619 1.355 . S
C620 C622 1.419 . S
C621 C616 1.425 . S
C621 C618 1.409 . S
C621 C619 1.415 . S
C622 H612 0.930 . S
C622 C620 1.419 . S
C622 C623 1.362 . S
C623 H613 0.930 . S
C623 C616 1.409 . S
C623 C622 1.362 . S
H624 C630 0.930 . S
H625 C633 0.930 . S
H626 C634 0.930 . S
H627 C635 0.930 . S
H628 C638 0.930 . S
H629 C639 0.930 . S
C630 H624 0.930 . S
C630 C631 1.355 . S
C630 C632 1.415 . S
C631 C630 1.355 . S
C631 C633 1.419 . S
C632 C630 1.415 . S
C632 C637 1.425 . S
C632 C639 1.409 . S
C633 H625 0.930 . S
C633 C631 1.419 . S
C633 C634 1.362 . S
C634 H626 0.930 . S
C634 C633 1.362 . S
C634 C637 1.409 . S
C635 H627 0.930 . S
C635 C636 1.355 . S
C635 C637 1.415 . S
C636 C635 1.355 . S
C636 C638 1.419 . S
C637 C632 1.425 . S
C637 C634 1.409 . S
C637 C635 1.415 . S
C638 H628 0.930 . S
C638 C636 1.419 . S
C638 C639 1.362 . S
C639 H629 0.930 . S
C639 C632 1.409 . S
C639 C638 1.362 . S
H640 C646 0.930 . S
H641 C649 0.930 . S
H642 C650 0.927 1_554 S
H643 C651 0.930 . S
H644 C654 0.930 . S
H645 C655 0.930 . S
C646 H640 0.930 . S
C646 C647 1.355 1_556 S
C646 C648 1.415 . S
C647 C646 1.355 1_554 S
C647 C649 1.419 . S
C648 C646 1.415 . S
C648 C653 1.425 . S
C648 C655 1.409 . S
C649 H641 0.930 . S
C649 C647 1.419 . S
C649 C650 1.362 1_554 S
C650 H642 0.927 1_556 S
C650 C649 1.362 1_556 S
C650 C653 1.409 . S
C651 H643 0.930 . S
C651 C652 1.355 . S
C651 C653 1.415 . S
C652 C651 1.355 . S
C652 C654 1.419 . S
C653 C648 1.425 . S
C653 C650 1.409 . S
C653 C651 1.415 . S
C654 H644 0.930 . S
C654 C652 1.419 . S
C654 C655 1.362 . S
C655 H645 0.930 . S
C655 C648 1.409 . S
C655 C654 1.362 . S
H656 C662 0.930 . S
H657 C665 0.930 . S
H658 C666 0.930 . S
H659 C667 0.930 . S
H660 C670 0.930 . S
H661 C671 0.930 . S
C662 H656 0.930 . S
C662 C663 1.355 . S
C662 C664 1.415 . S
C663 C662 1.355 . S
C663 C665 1.419 . S
C664 C662 1.415 . S
C664 C669 1.425 . S
C664 C671 1.409 . S
C665 H657 0.930 . S
C665 C663 1.419 . S
C665 C666 1.362 . S
C666 H658 0.930 . S
C666 C665 1.362 . S
C666 C669 1.409 . S
C667 H659 0.930 . S
C667 C668 1.355 . S
C667 C669 1.415 . S
C668 C667 1.355 . S
C668 C670 1.419 . S
C669 C664 1.425 . S
C669 C666 1.409 . S
C669 C667 1.415 . S
C670 H660 0.930 . S
C670 C668 1.419 . S
C670 C671 1.362 . S
C671 H661 0.930 . S
C671 C664 1.409 . S
C671 C670 1.362 . S
H672 C678 0.930 . S
H673 C681 0.930 . S
H674 C682 0.930 . S
H675 C683 0.930 . S
H676 C686 0.930 . S
H677 C687 0.930 . S
C678 H672 0.930 . S
C678 C679 1.355 . S
C678 C680 1.415 . S
C679 C678 1.355 . S
C679 C681 1.419 . S
C680 C678 1.415 . S
C680 C685 1.425 . S
C680 C687 1.409 . S
C681 H673 0.930 . S
C681 C679 1.419 . S
C681 C682 1.362 . S
C682 H674 0.930 . S
C682 C681 1.362 . S
C682 C685 1.409 . S
C683 H675 0.930 . S
C683 C684 1.355 . S
C683 C685 1.415 . S
C684 C683 1.355 . S
C684 C686 1.419 . S
C685 C680 1.425 . S
C685 C682 1.409 . S
C685 C683 1.415 . S
C686 H676 0.930 . S
C686 C684 1.419 . S
C686 C687 1.362 . S
C687 H677 0.930 . S
C687 C680 1.409 . S
C687 C686 1.362 . S
H688 C694 0.930 . S
H689 C697 0.930 . S
H690 C698 0.930 . S
H691 C699 0.930 . S
H692 C702 0.930 . S
H693 C703 0.930 . S
C694 H688 0.930 . S
C694 C695 1.355 . S
C694 C696 1.415 . S
C695 C694 1.355 . S
C695 C697 1.419 . S
C696 C694 1.415 . S
C696 C701 1.425 . S
C696 C703 1.409 . S
C697 H689 0.930 . S
C697 C695 1.419 . S
C697 C698 1.362 . S
C698 H690 0.930 . S
C698 C697 1.362 . S
C698 C701 1.409 . S
C699 H691 0.930 . S
C699 C700 1.355 . S
C699 C701 1.415 . S
C700 C699 1.355 . S
C700 C702 1.419 . S
C701 C696 1.425 . S
C701 C698 1.409 . S
C701 C699 1.415 . S
C702 H692 0.930 . S
C702 C700 1.419 . S
C702 C703 1.362 . S
C703 H693 0.930 . S
C703 C696 1.409 . S
C703 C702 1.362 . S
H704 C710 0.930 . S
H705 C713 0.930 . S
H706 C714 0.930 . S
H707 C715 0.930 . S
H708 C718 0.930 . S
H709 C719 0.930 . S
C710 H704 0.930 . S
C710 C711 1.355 . S
C710 C712 1.415 . S
C711 C710 1.355 . S
C711 C713 1.419 . S
C712 C710 1.415 . S
C712 C717 1.425 . S
C712 C719 1.409 . S
C713 H705 0.930 . S
C713 C711 1.419 . S
C713 C714 1.362 . S
C714 H706 0.930 . S
C714 C713 1.362 . S
C714 C717 1.409 . S
C715 H707 0.930 . S
C715 C716 1.355 1_554 S
C715 C717 1.415 . S
C716 C715 1.355 1_556 S
C716 C718 1.419 . S
C717 C712 1.425 . S
C717 C714 1.409 . S
C717 C715 1.415 . S
C718 H708 0.930 . S
C718 C716 1.419 . S
C718 C719 1.362 1_556 S
C719 H709 0.930 . S
C719 C712 1.409 . S
C719 C718 1.362 1_554 S
H720 C726 0.930 . S
H721 C729 0.930 . S
H722 C730 0.930 . S
H723 C731 0.930 . S
H724 C734 0.930 . S
H725 C735 0.930 . S
C726 H720 0.930 . S
C726 C727 1.355 . S
C726 C728 1.415 . S
C727 C726 1.355 . S
C727 C729 1.419 . S
C728 C726 1.415 . S
C728 C733 1.425 . S
C728 C735 1.409 . S
C729 H721 0.930 . S
C729 C727 1.419 . S
C729 C730 1.362 . S
C730 H722 0.930 . S
C730 C729 1.362 . S
C730 C733 1.409 . S
C731 H723 0.930 . S
C731 C732 1.355 . S
C731 C733 1.415 . S
C732 C731 1.355 . S
C732 C734 1.419 . S
C733 C728 1.425 . S
C733 C730 1.409 . S
C733 C731 1.415 . S
C734 H724 0.930 . S
C734 C732 1.419 . S
C734 C735 1.362 . S
C735 H725 0.930 . S
C735 C728 1.409 . S
C735 C734 1.362 . S
H736 C742 0.930 . S
H737 C745 0.930 . S
H738 C746 0.930 . S
H739 C747 0.930 . S
H740 C750 0.930 . S
H741 C751 0.930 . S
C742 H736 0.930 . S
C742 C743 1.345 1_455 S
C742 C744 1.415 . S
C743 C742 1.345 1_655 S
C743 C745 1.432 . S
C744 C742 1.415 . S
C744 C749 1.425 1_455 S
C744 C751 1.409 . S
C745 H737 0.930 . S
C745 C743 1.432 . S
C745 C746 1.362 . S
C746 H738 0.930 . S
C746 C745 1.362 . S
C746 C749 1.409 . S
C747 H739 0.930 . S
C747 C748 1.355 1_655 S
C747 C749 1.415 . S
C748 C747 1.355 1_455 S
C748 C750 1.419 . S
C749 C744 1.425 1_655 S
C749 C746 1.409 . S
C749 C747 1.415 . S
C750 H740 0.930 . S
C750 C748 1.419 . S
C750 C751 1.362 . S
C751 H741 0.930 . S
C751 C744 1.409 . S
C751 C750 1.362 . S
H752 C758 0.930 . S
H753 C761 0.930 . S
H754 C762 0.930 . S
H755 C763 0.930 . S
H756 C766 0.930 . S
H757 C767 0.930 . S
C758 H752 0.930 . S
C758 C759 1.355 . S
C758 C760 1.415 . S
C759 C758 1.355 . S
C759 C761 1.419 . S
C760 C758 1.415 . S
C760 C765 1.425 1_655 S
C760 C767 1.409 1_655 S
C761 H753 0.930 . S
C761 C759 1.419 . S
C761 C762 1.362 . S
C762 H754 0.930 . S
C762 C761 1.362 . S
C762 C765 1.409 1_655 S
C763 H755 0.930 . S
C763 C764 1.355 . S
C763 C765 1.415 . S
C764 C763 1.355 . S
C764 C766 1.419 . S
C765 C760 1.425 1_455 S
C765 C762 1.409 1_455 S
C765 C763 1.415 . S
C766 H756 0.930 . S
C766 C764 1.419 . S
C766 C767 1.362 . S
C767 H757 0.930 . S
C767 C760 1.409 1_455 S
C767 C766 1.362 . S
H768 C774 0.930 . S
H769 C777 0.930 . S
H770 C778 0.930 . S
H771 C779 0.930 . S
H772 C782 0.930 . S
H773 C783 0.930 . S
C774 H768 0.930 . S
C774 C775 1.355 . S
C774 C776 1.415 . S
C775 C774 1.355 . S
C775 C777 1.419 . S
C776 C774 1.415 . S
C776 C781 1.425 . S
C776 C783 1.409 . S
C777 H769 0.930 . S
C777 C775 1.419 . S
C777 C778 1.362 . S
C778 H770 0.930 . S
C778 C777 1.362 . S
C778 C781 1.409 . S
C779 H771 0.930 . S
C779 C780 1.355 . S
C779 C781 1.415 . S
C780 C779 1.355 . S
C780 C782 1.419 . S
C781 C776 1.425 . S
C781 C778 1.409 . S
C781 C779 1.415 . S
C782 H772 0.930 . S
C782 C780 1.419 . S
C782 C783 1.362 . S
C783 H773 0.930 . S
C783 C776 1.409 . S
C783 C782 1.362 . S
H784 C790 0.930 . S
H785 C793 0.930 . S
H786 C794 0.930 . S
H787 C795 0.930 . S
H788 C798 0.930 . S
H789 C799 0.930 . S
C790 H784 0.930 . S
C790 C791 1.355 . S
C790 C792 1.415 . S
C791 C790 1.355 . S
C791 C793 1.419 . S
C792 C790 1.415 . S
C792 C797 1.425 . S
C792 C799 1.409 . S
C793 H785 0.930 . S
C793 C791 1.419 . S
C793 C794 1.362 . S
C794 H786 0.930 . S
C794 C793 1.362 . S
C794 C797 1.409 . S
C795 H787 0.930 . S
C795 C796 1.355 . S
C795 C797 1.415 . S
C796 C795 1.355 . S
C796 C798 1.419 . S
C797 C792 1.425 . S
C797 C794 1.409 . S
C797 C795 1.415 . S
C798 H788 0.930 . S
C798 C796 1.419 . S
C798 C799 1.362 . S
C799 H789 0.930 . S
C799 C792 1.409 . S
C799 C798 1.362 . S
H800 C806 0.930 . S
H801 C809 0.930 . S
H802 C810 0.930 . S
H803 C811 0.930 . S
H804 C814 0.930 . S
H805 C815 0.930 . S
C806 H800 0.930 . S
C806 C807 1.355 1_655 S
C806 C808 1.415 . S
C807 C806 1.355 1_455 S
C807 C809 1.419 . S
C808 C806 1.415 . S
C808 C813 1.425 1_655 S
C808 C815 1.409 . S
C809 H801 0.930 . S
C809 C807 1.419 . S
C809 C810 1.362 . S
C810 H802 0.930 . S
C810 C809 1.362 . S
C810 C813 1.409 . S
C811 H803 0.930 . S
C811 C812 1.355 . S
C811 C813 1.415 . S
C812 C811 1.355 . S
C812 C814 1.419 1_455 S
C813 C808 1.425 1_455 S
C813 C810 1.409 . S
C813 C811 1.415 . S
C814 H804 0.930 . S
C814 C812 1.419 1_655 S
C814 C815 1.362 . S
C815 H805 0.930 . S
C815 C808 1.409 . S
C815 C814 1.362 . S
H816 C822 0.930 . S
H817 C825 0.930 . S
H818 C826 0.930 . S
H819 C827 0.930 . S
H820 C830 0.930 . S
H821 C831 0.930 . S
C822 H816 0.930 . S
C822 C823 1.355 . S
C822 C824 1.415 . S
C823 C822 1.355 . S
C823 C825 1.419 . S
C824 C822 1.415 . S
C824 C829 1.425 . S
C824 C831 1.409 . S
C825 H817 0.930 . S
C825 C823 1.419 . S
C825 C826 1.362 . S
C826 H818 0.930 . S
C826 C825 1.362 . S
C826 C829 1.409 . S
C827 H819 0.930 . S
C827 C828 1.355 . S
C827 C829 1.415 . S
C828 C827 1.355 . S
C828 C830 1.419 . S
C829 C824 1.425 . S
C829 C826 1.409 . S
C829 C827 1.415 . S
C830 H820 0.930 . S
C830 C828 1.419 . S
C830 C831 1.362 . S
C831 H821 0.930 . S
C831 C824 1.409 . S
C831 C830 1.362 . S
H832 C838 0.930 . S
H833 C841 0.930 . S
H834 C842 0.930 . S
H835 C843 0.930 . S
H836 C846 0.930 . S
H837 C847 0.930 . S
C838 H832 0.930 . S
C838 C839 1.355 . S
C838 C840 1.415 . S
C839 C838 1.355 . S
C839 C841 1.419 . S
C840 C838 1.415 . S
C840 C845 1.425 . S
C840 C847 1.409 . S
C841 H833 0.930 . S
C841 C839 1.419 . S
C841 C842 1.362 . S
C842 H834 0.930 . S
C842 C841 1.362 . S
C842 C845 1.409 . S
C843 H835 0.930 . S
C843 C844 1.355 . S
C843 C845 1.415 . S
C844 C843 1.355 . S
C844 C846 1.419 . S
C845 C840 1.425 . S
C845 C842 1.409 . S
C845 C843 1.415 . S
C846 H836 0.930 . S
C846 C844 1.419 . S
C846 C847 1.362 . S
C847 H837 0.930 . S
C847 C840 1.409 . S
C847 C846 1.362 . S
H848 C854 0.930 . S
H849 C857 0.930 . S
H850 C858 0.930 . S
H851 C859 0.930 . S
H852 C862 0.930 . S
H853 C863 0.930 . S
C854 H848 0.930 . S
C854 C855 1.355 . S
C854 C856 1.415 . S
C855 C854 1.355 . S
C855 C857 1.419 . S
C856 C854 1.415 . S
C856 C861 1.434 . S
C856 C863 1.409 1_455 S
C857 H849 0.930 . S
C857 C855 1.419 . S
C857 C858 1.362 . S
C858 H850 0.930 . S
C858 C857 1.362 . S
C858 C861 1.426 . S
C859 H851 0.930 . S
C859 C860 1.355 . S
C859 C861 1.389 1_655 S
C860 C859 1.355 . S
C860 C862 1.419 . S
C861 C856 1.434 . S
C861 C858 1.426 . S
C861 C859 1.389 1_455 S
C862 H852 0.930 . S
C862 C860 1.419 . S
C862 C863 1.362 . S
C863 H853 0.930 . S
C863 C856 1.409 1_655 S
C863 C862 1.362 . S
H864 C870 0.937 . S
H865 C873 0.930 . S
H866 C874 0.930 . S
H867 C875 0.937 . S
H868 C878 0.930 . S
H869 C879 0.930 . S
C870 H864 0.937 . S
C870 C871 1.355 1_655 S
C870 C872 1.415 1_545 S
C871 C870 1.355 1_455 S
C871 C873 1.419 . S
C872 C870 1.415 1_565 S
C872 C877 1.425 1_664 S
C872 C879 1.409 . S
C873 H865 0.930 . S
C873 C871 1.419 . S
C873 C874 1.362 1_554 S
C874 H866 0.930 . S
C874 C873 1.362 1_556 S
C874 C877 1.409 . S
C875 H867 0.937 . S
C875 C876 1.355 . S
C875 C877 1.415 1_565 S
C876 C875 1.355 . S
C876 C878 1.419 1_455 S
C877 C872 1.425 1_446 S
C877 C874 1.409 . S
C877 C875 1.415 1_545 S
C878 H868 0.930 . S
C878 C876 1.419 1_655 S
C878 C879 1.362 1_556 S
C879 H869 0.930 . S
C879 C872 1.409 . S
C879 C878 1.362 1_554 S
H880 C886 0.930 . S
H881 C889 0.930 . S
H882 C890 0.930 . S
H883 C891 0.930 . S
H884 C894 0.930 . S
H885 C895 0.930 . S
C886 H880 0.930 . S
C886 C887 1.355 . S
C886 C888 1.415 . S
C887 C886 1.355 . S
C887 C889 1.419 . S
C888 C886 1.415 . S
C888 C893 1.425 . S
C888 C895 1.409 . S
C889 H881 0.930 . S
C889 C887 1.419 . S
C889 C890 1.362 . S
C890 H882 0.930 . S
C890 C889 1.362 . S
C890 C893 1.409 . S
C891 H883 0.930 . S
C891 C892 1.355 . S
C891 C893 1.415 . S
C892 C891 1.355 . S
C892 C894 1.419 . S
C893 C888 1.425 . S
C893 C890 1.409 . S
C893 C891 1.415 . S
C894 H884 0.930 . S
C894 C892 1.419 . S
C894 C895 1.362 . S
C895 H885 0.930 . S
C895 C888 1.409 . S
C895 C894 1.362 . S
H896 C902 0.930 . S
H897 C905 0.943 . S
H898 C906 0.930 . S
H899 C907 0.930 . S
H900 C910 0.943 . S
H901 C911 0.930 . S
C902 H896 0.930 . S
C902 C903 1.355 . S
C902 C904 1.415 . S
C903 C902 1.355 . S
C903 C905 1.385 1_545 S
C904 C902 1.415 . S
C904 C909 1.425 1_545 S
C904 C911 1.409 . S
C905 H897 0.943 . S
C905 C903 1.385 1_565 S
C905 C906 1.385 . S
C906 H898 0.930 . S
C906 C905 1.385 . S
C906 C909 1.409 . S
C907 H899 0.930 . S
C907 C908 1.355 . S
C907 C909 1.415 . S
C908 C907 1.355 . S
C908 C910 1.385 1_565 S
C909 C904 1.425 1_565 S
C909 C906 1.409 . S
C909 C907 1.415 . S
C910 H900 0.943 . S
C910 C908 1.385 1_545 S
C910 C911 1.385 . S
C911 H901 0.930 . S
C911 C904 1.409 . S
C911 C910 1.385 . S
H912 C918 0.930 . S
H913 C921 0.930 . S
H914 C922 0.930 . S
H915 C923 0.930 . S
H916 C926 0.930 . S
H917 C927 0.930 . S
C918 H912 0.930 . S
C918 C919 1.355 . S
C918 C920 1.415 . S
C919 C918 1.355 . S
C919 C921 1.419 . S
C920 C918 1.415 . S
C920 C925 1.425 . S
C920 C927 1.409 . S
C921 H913 0.930 . S
C921 C919 1.419 . S
C921 C922 1.362 . S
C922 H914 0.930 . S
C922 C921 1.362 . S
C922 C925 1.409 . S
C923 H915 0.930 . S
C923 C924 1.355 . S
C923 C925 1.415 . S
C924 C923 1.355 . S
C924 C926 1.419 . S
C925 C920 1.425 . S
C925 C922 1.409 . S
C925 C923 1.415 . S
C926 H916 0.930 . S
C926 C924 1.419 . S
C926 C927 1.362 . S
C927 H917 0.930 . S
C927 C920 1.409 . S
C927 C926 1.362 . S
H928 C934 0.930 . S
H929 C937 0.930 . S
H930 C938 0.930 . S
H931 C939 0.930 . S
H932 C942 0.930 . S
H933 C943 0.930 . S
C934 H928 0.930 . S
C934 C935 1.355 . S
C934 C936 1.415 . S
C935 C934 1.355 . S
C935 C937 1.419 . S
C936 C934 1.415 . S
C936 C941 1.425 . S
C936 C943 1.409 . S
C937 H929 0.930 . S
C937 C935 1.419 . S
C937 C938 1.362 . S
C938 H930 0.930 . S
C938 C937 1.362 . S
C938 C941 1.409 . S
C939 H931 0.930 . S
C939 C940 1.355 . S
C939 C941 1.415 . S
C940 C939 1.355 . S
C940 C942 1.419 . S
C941 C936 1.425 . S
C941 C938 1.409 . S
C941 C939 1.415 . S
C942 H932 0.930 . S
C942 C940 1.419 . S
C942 C943 1.362 . S
C943 H933 0.930 . S
C943 C936 1.409 . S
C943 C942 1.362 . S
H944 C950 0.930 . S
H945 C953 0.930 . S
H946 C954 0.930 . S
H947 C955 0.930 . S
H948 C958 0.930 . S
H949 C959 0.930 . S
C950 H944 0.930 . S
C950 C951 1.355 . S
C950 C952 1.415 . S
C951 C950 1.355 . S
C951 C953 1.419 . S
C952 C950 1.415 . S
C952 C957 1.425 . S
C952 C959 1.409 . S
C953 H945 0.930 . S
C953 C951 1.419 . S
C953 C954 1.362 . S
C954 H946 0.930 . S
C954 C953 1.362 . S
C954 C957 1.409 . S
C955 H947 0.930 . S
C955 C956 1.355 . S
C955 C957 1.415 . S
C956 C955 1.355 . S
C956 C958 1.419 . S
C957 C952 1.425 . S
C957 C954 1.409 . S
C957 C955 1.415 . S
C958 H948 0.930 . S
C958 C956 1.419 . S
C958 C959 1.362 . S
C959 H949 0.930 . S
C959 C952 1.409 . S
C959 C958 1.362 . S
H960 C966 0.930 . S
H961 C969 0.930 . S
H962 C970 0.930 . S
H963 C971 0.930 . S
H964 C974 0.930 . S
H965 C975 0.930 . S
C966 H960 0.930 . S
C966 C967 1.355 . S
C966 C968 1.415 . S
C967 C966 1.355 . S
C967 C969 1.419 . S
C968 C966 1.415 . S
C968 C973 1.425 . S
C968 C975 1.409 . S
C969 H961 0.930 . S
C969 C967 1.419 . S
C969 C970 1.362 . S
C970 H962 0.930 . S
C970 C969 1.362 . S
C970 C973 1.409 . S
C971 H963 0.930 . S
C971 C972 1.355 . S
C971 C973 1.415 . S
C972 C971 1.355 . S
C972 C974 1.419 . S
C973 C968 1.425 . S
C973 C970 1.409 . S
C973 C971 1.415 . S
C974 H964 0.930 . S
C974 C972 1.419 . S
C974 C975 1.362 . S
C975 H965 0.930 . S
C975 C968 1.409 . S
C975 C974 1.362 . S
H976 C982 0.930 . S
H977 C985 0.930 . S
H978 C986 0.930 . S
H979 C987 0.930 . S
H980 C990 0.930 . S
H981 C991 0.930 . S
C982 H976 0.930 . S
C982 C983 1.355 1_655 S
C982 C984 1.415 . S
C983 C982 1.355 1_455 S
C983 C985 1.419 . S
C984 C982 1.415 . S
C984 C989 1.425 1_656 S
C984 C991 1.409 1_556 S
C985 H977 0.930 . S
C985 C983 1.419 . S
C985 C986 1.362 . S
C986 H978 0.930 . S
C986 C985 1.362 . S
C986 C989 1.409 1_556 S
C987 H979 0.930 . S
C987 C988 1.353 . S
C987 C989 1.415 . S
C988 C987 1.353 . S
C988 C990 1.421 1_455 S
C989 C984 1.425 1_454 S
C989 C986 1.409 1_554 S
C989 C987 1.415 . S
C990 H980 0.930 . S
C990 C988 1.421 1_655 S
C990 C991 1.362 . S
C991 H981 0.930 . S
C991 C984 1.409 1_554 S
C991 C990 1.362 . S
H992 C998 0.930 . S
H993 C1001 0.930 . S
H994 C1002 0.930 . S
H995 C1003 0.930 . S
H996 C1006 0.930 . S
H997 C1007 0.930 . S
C998 H992 0.930 . S
C998 C999 1.355 . S
C998 C1000 1.415 . S
C999 C998 1.355 . S
C999 C1001 1.419 . S
C1000 C998 1.415 . S
C1000 C1005 1.425 . S
C1000 C1007 1.409 . S
C1001 H993 0.930 . S
C1001 C999 1.419 . S
C1001 C1002 1.362 . S
C1002 H994 0.930 . S
C1002 C1001 1.362 . S
C1002 C1005 1.409 . S
C1003 H995 0.930 . S
C1003 C1004 1.355 . S
C1003 C1005 1.415 . S
C1004 C1003 1.355 . S
C1004 C1006 1.419 . S
C1005 C1000 1.425 . S
C1005 C1002 1.409 . S
C1005 C1003 1.415 . S
C1006 H996 0.930 . S
C1006 C1004 1.419 . S
C1006 C1007 1.362 . S
C1007 H997 0.930 . S
C1007 C1000 1.409 . S
C1007 C1006 1.362 . S
H1008 C1014 0.930 . S
H1009 C1017 0.930 . S
H1010 C1018 0.930 . S
H1011 C1019 0.930 . S
H1012 C1022 0.930 . S
H1013 C1023 0.930 . S
C1014 H1008 0.930 . S
C1014 C1015 1.355 . S
C1014 C1016 1.415 . S
C1015 C1014 1.355 . S
C1015 C1017 1.419 . S
C1016 C1014 1.415 . S
C1016 C1021 1.425 . S
C1016 C1023 1.409 . S
C1017 H1009 0.930 . S
C1017 C1015 1.419 . S
C1017 C1018 1.362 . S
C1018 H1010 0.930 . S
C1018 C1017 1.362 . S
C1018 C1021 1.409 . S
C1019 H1011 0.930 . S
C1019 C1020 1.355 . S
C1019 C1021 1.415 . S
C1020 C1019 1.355 . S
C1020 C1022 1.419 . S
C1021 C1016 1.425 . S
C1021 C1018 1.409 . S
C1021 C1019 1.415 . S
C1022 H1012 0.930 . S
C1022 C1020 1.419 . S
C1022 C1023 1.362 . S
C1023 H1013 0.930 . S
C1023 C1016 1.409 . S
C1023 C1022 1.362 . S
H1024 C1030 0.930 . S
H1025 C1033 0.930 . S
H1026 C1034 0.930 . S
H1027 C1035 0.930 . S
H1028 C1038 0.930 . S
H1029 C1039 0.930 . S
C1030 H1024 0.930 . S
C1030 C1031 1.355 . S
C1030 C1032 1.415 1_554 S
C1031 C1030 1.355 . S
C1031 C1033 1.419 1_554 S
C1032 C1030 1.415 1_556 S
C1032 C1037 1.425 . S
C1032 C1039 1.409 . S
C1033 H1025 0.930 . S
C1033 C1031 1.419 1_556 S
C1033 C1034 1.362 . S
C1034 H1026 0.930 . S
C1034 C1033 1.362 . S
C1034 C1037 1.409 . S
C1035 H1027 0.930 . S
C1035 C1036 1.355 . S
C1035 C1037 1.415 . S
C1036 C1035 1.355 . S
C1036 C1038 1.419 . S
C1037 C1032 1.425 . S
C1037 C1034 1.409 . S
C1037 C1035 1.415 . S
C1038 H1028 0.930 . S
C1038 C1036 1.419 . S
C1038 C1039 1.362 . S
C1039 H1029 0.930 . S
C1039 C1032 1.409 . S
C1039 C1038 1.362 . S
H1040 C1046 0.930 . S
H1041 C1049 0.930 . S
H1042 C1050 0.930 . S
H1043 C1051 0.930 . S
H1044 C1054 0.930 1_556 S
H1045 C1055 0.930 . S
C1046 H1040 0.930 . S
C1046 C1047 1.355 . S
C1046 C1048 1.415 . S
C1047 C1046 1.355 . S
C1047 C1049 1.419 . S
C1048 C1046 1.415 . S
C1048 C1053 1.425 . S
C1048 C1055 1.409 . S
C1049 H1041 0.930 . S
C1049 C1047 1.419 . S
C1049 C1050 1.362 . S
C1050 H1042 0.930 . S
C1050 C1049 1.362 . S
C1050 C1053 1.409 . S
C1051 H1043 0.930 . S
C1051 C1052 1.355 . S
C1051 C1053 1.415 . S
C1052 C1051 1.355 . S
C1052 C1054 1.419 . S
C1053 C1048 1.425 . S
C1053 C1050 1.409 . S
C1053 C1051 1.415 . S
C1054 H1044 0.930 1_554 S
C1054 C1052 1.419 . S
C1054 C1055 1.362 . S
C1055 H1045 0.930 . S
C1055 C1048 1.409 . S
C1055 C1054 1.362 . S
H1056 C1062 0.930 . S
H1057 C1065 0.930 . S
H1058 C1066 0.930 . S
H1059 C1067 0.930 . S
H1060 C1070 0.930 . S
H1061 C1071 0.930 . S
C1062 H1056 0.930 . S
C1062 C1063 1.355 . S
C1062 C1064 1.415 . S
C1063 C1062 1.355 . S
C1063 C1065 1.419 . S
C1064 C1062 1.415 . S
C1064 C1069 1.425 . S
C1064 C1071 1.409 . S
C1065 H1057 0.930 . S
C1065 C1063 1.419 . S
C1065 C1066 1.362 . S
C1066 H1058 0.930 . S
C1066 C1065 1.362 . S
C1066 C1069 1.409 . S
C1067 H1059 0.930 . S
C1067 C1068 1.355 . S
C1067 C1069 1.415 . S
C1068 C1067 1.355 . S
C1068 C1070 1.419 . S
C1069 C1064 1.425 . S
C1069 C1066 1.409 . S
C1069 C1067 1.415 . S
C1070 H1060 0.930 . S
C1070 C1068 1.419 . S
C1070 C1071 1.362 . S
C1071 H1061 0.930 . S
C1071 C1064 1.409 . S
C1071 C1070 1.362 . S
H1072 C1078 0.930 . S
H1073 C1081 0.930 . S
H1074 C1082 0.930 . S
H1075 C1083 0.930 . S
H1076 C1086 0.930 . S
H1077 C1087 0.930 . S
C1078 H1072 0.930 . S
C1078 C1079 1.355 . S
C1078 C1080 1.415 . S
C1079 C1078 1.355 . S
C1079 C1081 1.419 . S
C1080 C1078 1.415 . S
C1080 C1085 1.425 . S
C1080 C1087 1.409 . S
C1081 H1073 0.930 . S
C1081 C1079 1.419 . S
C1081 C1082 1.362 . S
C1082 H1074 0.930 . S
C1082 C1081 1.362 . S
C1082 C1085 1.409 . S
C1083 H1075 0.930 . S
C1083 C1084 1.355 . S
C1083 C1085 1.415 . S
C1084 C1083 1.355 . S
C1084 C1086 1.419 . S
C1085 C1080 1.425 . S
C1085 C1082 1.409 . S
C1085 C1083 1.415 . S
C1086 H1076 0.930 . S
C1086 C1084 1.419 . S
C1086 C1087 1.362 . S
C1087 H1077 0.930 . S
C1087 C1080 1.409 . S
C1087 C1086 1.362 . S
H1088 C1094 0.930 . S
H1089 C1097 0.930 . S
H1090 C1098 0.930 1_556 S
H1091 C1099 0.930 . S
H1092 C1102 0.930 . S
H1093 C1103 0.930 . S
C1094 H1088 0.930 . S
C1094 C1095 1.355 1_554 S
C1094 C1096 1.415 . S
C1095 C1094 1.355 1_556 S
C1095 C1097 1.419 . S
C1096 C1094 1.415 . S
C1096 C1101 1.425 . S
C1096 C1103 1.409 . S
C1097 H1089 0.930 . S
C1097 C1095 1.419 . S
C1097 C1098 1.362 1_556 S
C1098 H1090 0.930 1_554 S
C1098 C1097 1.362 1_554 S
C1098 C1101 1.409 . S
C1099 H1091 0.930 . S
C1099 C1100 1.355 . S
C1099 C1101 1.415 . S
C1100 C1099 1.355 . S
C1100 C1102 1.419 . S
C1101 C1096 1.425 . S
C1101 C1098 1.409 . S
C1101 C1099 1.415 . S
C1102 H1092 0.930 . S
C1102 C1100 1.419 . S
C1102 C1103 1.362 . S
C1103 H1093 0.930 . S
C1103 C1096 1.409 . S
C1103 C1102 1.362 . S
H1104 C1110 0.930 . S
H1105 C1113 0.930 . S
H1106 C1114 0.930 . S
H1107 C1115 0.930 . S
H1108 C1118 0.930 . S
H1109 C1119 0.930 . S
C1110 H1104 0.930 . S
C1110 C1111 1.355 . S
C1110 C1112 1.415 . S
C1111 C1110 1.355 . S
C1111 C1113 1.419 . S
C1112 C1110 1.415 . S
C1112 C1117 1.425 . S
C1112 C1119 1.409 . S
C1113 H1105 0.930 . S
C1113 C1111 1.419 . S
C1113 C1114 1.362 . S
C1114 H1106 0.930 . S
C1114 C1113 1.362 . S
C1114 C1117 1.409 . S
C1115 H1107 0.930 . S
C1115 C1116 1.355 . S
C1115 C1117 1.415 . S
C1116 C1115 1.355 . S
C1116 C1118 1.419 . S
C1117 C1112 1.425 . S
C1117 C1114 1.409 . S
C1117 C1115 1.415 . S
C1118 H1108 0.930 . S
C1118 C1116 1.419 . S
C1118 C1119 1.362 . S
C1119 H1109 0.930 . S
C1119 C1112 1.409 . S
C1119 C1118 1.362 . S
H1120 C1126 0.930 . S
H1121 C1129 0.930 . S
H1122 C1130 0.930 . S
H1123 C1131 0.930 . S
H1124 C1134 0.930 . S
H1125 C1135 0.930 . S
C1126 H1120 0.930 . S
C1126 C1127 1.355 . S
C1126 C1128 1.415 . S
C1127 C1126 1.355 . S
C1127 C1129 1.419 . S
C1128 C1126 1.415 . S
C1128 C1133 1.425 . S
C1128 C1135 1.409 . S
C1129 H1121 0.930 . S
C1129 C1127 1.419 . S
C1129 C1130 1.362 . S
C1130 H1122 0.930 . S
C1130 C1129 1.362 . S
C1130 C1133 1.409 . S
C1131 H1123 0.930 . S
C1131 C1132 1.355 . S
C1131 C1133 1.415 . S
C1132 C1131 1.355 . S
C1132 C1134 1.419 . S
C1133 C1128 1.425 . S
C1133 C1130 1.409 . S
C1133 C1131 1.415 . S
C1134 H1124 0.930 . S
C1134 C1132 1.419 . S
C1134 C1135 1.362 . S
C1135 H1125 0.930 . S
C1135 C1128 1.409 . S
C1135 C1134 1.362 . S
H1136 C1142 0.930 . S
H1137 C1145 0.930 . S
H1138 C1146 0.930 . S
H1139 C1147 0.930 . S
H1140 C1150 0.930 . S
H1141 C1151 0.930 . S
C1142 H1136 0.930 . S
C1142 C1143 1.355 . S
C1142 C1144 1.415 . S
C1143 C1142 1.355 . S
C1143 C1145 1.419 . S
C1144 C1142 1.415 . S
C1144 C1149 1.425 . S
C1144 C1151 1.409 . S
C1145 H1137 0.930 . S
C1145 C1143 1.419 . S
C1145 C1146 1.362 . S
C1146 H1138 0.930 . S
C1146 C1145 1.362 . S
C1146 C1149 1.409 . S
C1147 H1139 0.930 . S
C1147 C1148 1.355 . S
C1147 C1149 1.415 . S
C1148 C1147 1.355 . S
C1148 C1150 1.419 . S
C1149 C1144 1.425 . S
C1149 C1146 1.409 . S
C1149 C1147 1.415 . S
C1150 H1140 0.930 . S
C1150 C1148 1.419 . S
C1150 C1151 1.362 . S
C1151 H1141 0.930 . S
C1151 C1144 1.409 . S
C1151 C1150 1.362 . S
H1152 C1158 0.930 . S
H1153 C1161 0.930 . S
H1154 C1162 0.930 . S
H1155 C1163 0.930 . S
H1156 C1166 0.930 . S
H1157 C1167 0.930 . S
C1158 H1152 0.930 . S
C1158 C1159 1.355 . S
C1158 C1160 1.415 . S
C1159 C1158 1.355 . S
C1159 C1161 1.419 . S
C1160 C1158 1.415 . S
C1160 C1165 1.425 . S
C1160 C1167 1.409 . S
C1161 H1153 0.930 . S
C1161 C1159 1.419 . S
C1161 C1162 1.362 . S
C1162 H1154 0.930 . S
C1162 C1161 1.362 . S
C1162 C1165 1.409 . S
C1163 H1155 0.930 . S
C1163 C1164 1.355 . S
C1163 C1165 1.415 . S
C1164 C1163 1.355 . S
C1164 C1166 1.419 . S
C1165 C1160 1.425 . S
C1165 C1162 1.409 . S
C1165 C1163 1.415 . S
C1166 H1156 0.930 . S
C1166 C1164 1.419 . S
C1166 C1167 1.362 . S
C1167 H1157 0.930 . S
C1167 C1160 1.409 . S
C1167 C1166 1.362 . S
H1168 C1174 0.930 . S
H1169 C1177 0.930 . S
H1170 C1178 0.930 . S
H1171 C1179 0.930 . S
H1172 C1182 0.930 . S
H1173 C1183 0.930 . S
C1174 H1168 0.930 . S
C1174 C1175 1.355 . S
C1174 C1176 1.415 . S
C1175 C1174 1.355 . S
C1175 C1177 1.419 . S
C1176 C1174 1.415 . S
C1176 C1181 1.425 . S
C1176 C1183 1.409 . S
C1177 H1169 0.930 . S
C1177 C1175 1.419 . S
C1177 C1178 1.362 . S
C1178 H1170 0.930 . S
C1178 C1177 1.362 . S
C1178 C1181 1.409 . S
C1179 H1171 0.930 . S
C1179 C1180 1.355 . S
C1179 C1181 1.415 . S
C1180 C1179 1.355 . S
C1180 C1182 1.419 . S
C1181 C1176 1.425 . S
C1181 C1178 1.409 . S
C1181 C1179 1.415 . S
C1182 H1172 0.930 . S
C1182 C1180 1.419 . S
C1182 C1183 1.362 . S
C1183 H1173 0.930 . S
C1183 C1176 1.409 . S
C1183 C1182 1.362 . S
H1184 C1190 0.930 . S
H1185 C1193 0.930 . S
H1186 C1194 0.930 . S
H1187 C1195 0.930 . S
H1188 C1198 0.930 1_556 S
H1189 C1199 0.930 . S
C1190 H1184 0.930 . S
C1190 C1191 1.355 . S
C1190 C1192 1.415 . S
C1191 C1190 1.355 . S
C1191 C1193 1.419 . S
C1192 C1190 1.415 . S
C1192 C1197 1.425 . S
C1192 C1199 1.409 . S
C1193 H1185 0.930 . S
C1193 C1191 1.419 . S
C1193 C1194 1.362 . S
C1194 H1186 0.930 . S
C1194 C1193 1.362 . S
C1194 C1197 1.409 . S
C1195 H1187 0.930 . S
C1195 C1196 1.355 . S
C1195 C1197 1.415 . S
C1196 C1195 1.355 . S
C1196 C1198 1.419 . S
C1197 C1192 1.425 . S
C1197 C1194 1.409 . S
C1197 C1195 1.415 . S
C1198 H1188 0.930 1_554 S
C1198 C1196 1.419 . S
C1198 C1199 1.362 . S
C1199 H1189 0.930 . S
C1199 C1192 1.409 . S
C1199 C1198 1.362 . S
H1200 C1206 0.930 . S
H1201 C1209 0.930 . S
H1202 C1210 0.930 . S
H1203 C1211 0.930 . S
H1204 C1214 0.930 . S
H1205 C1215 0.930 . S
C1206 H1200 0.930 . S
C1206 C1207 1.355 . S
C1206 C1208 1.415 . S
C1207 C1206 1.355 . S
C1207 C1209 1.419 . S
C1208 C1206 1.415 . S
C1208 C1213 1.425 . S
C1208 C1215 1.409 . S
C1209 H1201 0.930 . S
C1209 C1207 1.419 . S
C1209 C1210 1.362 . S
C1210 H1202 0.930 . S
C1210 C1209 1.362 . S
C1210 C1213 1.409 . S
C1211 H1203 0.930 . S
C1211 C1212 1.355 . S
C1211 C1213 1.415 . S
C1212 C1211 1.355 . S
C1212 C1214 1.419 . S
C1213 C1208 1.425 . S
C1213 C1210 1.409 . S
C1213 C1211 1.415 . S
C1214 H1204 0.930 . S
C1214 C1212 1.419 . S
C1214 C1215 1.362 . S
C1215 H1205 0.930 . S
C1215 C1208 1.409 . S
C1215 C1214 1.362 . S
H1216 C1222 0.930 . S
H1217 C1225 0.930 . S
H1218 C1226 0.930 . S
H1219 C1227 0.930 . S
H1220 C1230 0.930 . S
H1221 C1231 0.930 . S
C1222 H1216 0.930 . S
C1222 C1223 1.355 . S
C1222 C1224 1.415 . S
C1223 C1222 1.355 . S
C1223 C1225 1.419 . S
C1224 C1222 1.415 . S
C1224 C1229 1.425 . S
C1224 C1231 1.409 . S
C1225 H1217 0.930 . S
C1225 C1223 1.419 . S
C1225 C1226 1.362 . S
C1226 H1218 0.930 . S
C1226 C1225 1.362 . S
C1226 C1229 1.409 . S
C1227 H1219 0.930 . S
C1227 C1228 1.355 . S
C1227 C1229 1.415 . S
C1228 C1227 1.355 . S
C1228 C1230 1.419 . S
C1229 C1224 1.425 . S
C1229 C1226 1.409 . S
C1229 C1227 1.415 . S
C1230 H1220 0.930 . S
C1230 C1228 1.419 . S
C1230 C1231 1.362 . S
C1231 H1221 0.930 . S
C1231 C1224 1.409 . S
C1231 C1230 1.362 . S
H1232 C1238 0.930 . S
H1233 C1241 0.930 . S
H1234 C1242 0.930 . S
H1235 C1243 0.930 . S
H1236 C1246 0.930 . S
H1237 C1247 0.930 . S
C1238 H1232 0.930 . S
C1238 C1239 1.355 . S
C1238 C1240 1.415 . S
C1239 C1238 1.355 . S
C1239 C1241 1.419 . S
C1240 C1238 1.415 . S
C1240 C1245 1.425 . S
C1240 C1247 1.409 . S
C1241 H1233 0.930 . S
C1241 C1239 1.419 . S
C1241 C1242 1.362 . S
C1242 H1234 0.930 . S
C1242 C1241 1.362 . S
C1242 C1245 1.409 . S
C1243 H1235 0.930 . S
C1243 C1244 1.355 . S
C1243 C1245 1.415 . S
C1244 C1243 1.355 . S
C1244 C1246 1.419 . S
C1245 C1240 1.425 . S
C1245 C1242 1.409 . S
C1245 C1243 1.415 . S
C1246 H1236 0.930 . S
C1246 C1244 1.419 . S
C1246 C1247 1.362 . S
C1247 H1237 0.930 . S
C1247 C1240 1.409 . S
C1247 C1246 1.362 . S
C487 C27 1.970 1_556 S
C492 C237 1.911 . S
C503 C57 0.666 . S
C508 N126 0.571 . S
C519 N156 1.471 . S
C524 C87 1.647 . S
C535 N96 0.458 . S
C540 N186 0.667 . S
C551 C346 1.937 . S
C556 C136 1.964 1_554 S
C567 C256 0.625 . S
C572 N14 0.655 . S
C583 N314 1.486 . S
C588 C196 1.631 . S
C599 N74 0.594 . S
C604 N284 0.596 . S
C615 C297 1.952 . S
C620 C387 1.951 . S
C631 C327 0.632 . S
C636 N426 0.805 . S
C647 C417 1.642 . S
C652 N246 1.470 . S
C663 N336 0.607 . S
C668 N456 0.492 . S
C679 C436 1.944 . S
C684 C106 1.957 . S
C695 N374 0.638 . S
C700 C166 0.686 . S
C711 N44 1.475 . S
C716 C466 1.648 . S
C727 N224 0.402 . S
C732 N404 0.649 . S
C743 C400 0.894 1_655 S
C748 C10 0.908 . S
C759 C331 0.812 . S
C764 C40 0.810 . S
C775 C370 0.899 . S
C780 C70 0.874 . S
C791 C310 0.831 . S
C796 C91 0.793 . S
C807 C121 0.966 . S
C812 C451 0.972 . S
C823 C280 0.794 . S
C828 C151 0.828 . S
C839 C181 0.894 . S
C844 C421 0.908 . S
C855 C220 0.812 . S
C860 C241 0.810 . S
C871 C1 0.930 . S
C876 C130 0.930 . S
C887 C31 1.177 . S
C892 C160 1.177 . S
C903 C190 1.399 . S
C908 C61 1.399 . S
C919 C100 1.184 . S
C924 C211 1.184 . S
C935 C301 1.091 . S
C940 C250 1.091 . S
C951 C340 1.042 . S
C956 C271 1.042 . S
C967 C361 1.033 . S
C972 C430 1.033 . S
C983 C460 1.345 . S
C988 C391 1.345 . S
C999 N6 0.919 . S
C1004 N216 0.908 . S
C1015 N36 2.107 . S
C1020 C147 2.048 . S
C1031 C177 1.141 . S
C1036 N66 1.118 . S
C1047 C207 2.298 . S
C1052 C117 2.239 1_554 S
C1063 N344 0.878 . S
C1068 N134 0.897 . S
C1079 N254 2.087 . S
C1084 C16 2.073 . S
C1095 C316 1.108 . S
C1100 N194 1.086 . S
C1111 C76 2.306 . S
C1116 C286 2.255 1_556 S
C1127 N366 0.908 . S
C1132 N276 0.887 . S
C1143 C447 2.088 . S
C1148 N306 2.089 . S
C1159 N396 1.133 . S
C1164 C267 1.073 . S
C1175 C477 2.270 . S
C1180 C357 2.283 . S
C1191 N434 0.877 . S
C1196 N104 0.872 . S
C1207 N164 2.085 . S
C1212 C376 2.084 . S
C1223 C46 1.097 . S
C1228 N464 1.146 . S
C1239 C406 2.310 . S
C1244 C226 2.247 . S
