# Generated by pormake.
# Topology uop, (4)-cn, num edge types: 1
# Building blocks:
#     Node 0, Type 0, BuildingBlock: NAWXER_clean_sbu_0, # of connection points: 4
#     Node 1, Type 0, BuildingBlock: NAWXER_clean_sbu_0, # of connection points: 4
#     Node 2, Type 0, BuildingBlock: NAWXER_clean_sbu_0, # of connection points: 4
#     Node 3, Type 0, BuildingBlock: NAWXER_clean_sbu_0, # of connection points: 4
#     Node 4, Type 0, BuildingBlock: NAWXER_clean_sbu_0, # of connection points: 4
#     Node 5, Type 0, BuildingBlock: NAWXER_clean_sbu_0, # of connection points: 4
#     Node 6, Type 0, BuildingBlock: NAWXER_clean_sbu_0, # of connection points: 4
#     Node 7, Type 0, BuildingBlock: NAWXER_clean_sbu_0, # of connection points: 4
#     Node 8, Type 0, BuildingBlock: NAWXER_clean_sbu_0, # of connection points: 4
#     Node 9, Type 0, BuildingBlock: NAWXER_clean_sbu_0, # of connection points: 4
#     Node 10, Type 0, BuildingBlock: NAWXER_clean_sbu_0, # of connection points: 4
#     Node 11, Type 0, BuildingBlock: NAWXER_clean_sbu_0, # of connection points: 4
#     Edge 12, Type (0, 0), BuildingBlock: MIFKUJ_clean_linker_0, # of connection points: 2
#     Edge 13, Type (0, 0), BuildingBlock: MIFKUJ_clean_linker_0, # of connection points: 2
#     Edge 14, Type (0, 0), BuildingBlock: MIFKUJ_clean_linker_0, # of connection points: 2
#     Edge 15, Type (0, 0), BuildingBlock: MIFKUJ_clean_linker_0, # of connection points: 2
#     Edge 16, Type (0, 0), BuildingBlock: MIFKUJ_clean_linker_0, # of connection points: 2
#     Edge 17, Type (0, 0), BuildingBlock: MIFKUJ_clean_linker_0, # of connection points: 2
#     Edge 18, Type (0, 0), BuildingBlock: MIFKUJ_clean_linker_0, # of connection points: 2
#     Edge 19, Type (0, 0), BuildingBlock: MIFKUJ_clean_linker_0, # of connection points: 2
#     Edge 20, Type (0, 0), BuildingBlock: MIFKUJ_clean_linker_0, # of connection points: 2
#     Edge 21, Type (0, 0), BuildingBlock: MIFKUJ_clean_linker_0, # of connection points: 2
#     Edge 22, Type (0, 0), BuildingBlock: MIFKUJ_clean_linker_0, # of connection points: 2
#     Edge 23, Type (0, 0), BuildingBlock: MIFKUJ_clean_linker_0, # of connection points: 2
#     Edge 24, Type (0, 0), BuildingBlock: MIFKUJ_clean_linker_0, # of connection points: 2
#     Edge 25, Type (0, 0), BuildingBlock: MIFKUJ_clean_linker_0, # of connection points: 2
#     Edge 26, Type (0, 0), BuildingBlock: MIFKUJ_clean_linker_0, # of connection points: 2
#     Edge 27, Type (0, 0), BuildingBlock: MIFKUJ_clean_linker_0, # of connection points: 2
#     Edge 28, Type (0, 0), BuildingBlock: MIFKUJ_clean_linker_0, # of connection points: 2
#     Edge 29, Type (0, 0), BuildingBlock: MIFKUJ_clean_linker_0, # of connection points: 2
#     Edge 30, Type (0, 0), BuildingBlock: MIFKUJ_clean_linker_0, # of connection points: 2
#     Edge 31, Type (0, 0), BuildingBlock: MIFKUJ_clean_linker_0, # of connection points: 2
#     Edge 32, Type (0, 0), BuildingBlock: MIFKUJ_clean_linker_0, # of connection points: 2
#     Edge 33, Type (0, 0), BuildingBlock: MIFKUJ_clean_linker_0, # of connection points: 2
#     Edge 34, Type (0, 0), BuildingBlock: MIFKUJ_clean_linker_0, # of connection points: 2
#     Edge 35, Type (0, 0), BuildingBlock: MIFKUJ_clean_linker_0, # of connection points: 2
# Relax obj value: 0.102
# Max RMSD: 0.272
# Mean RMSD: 0.272
data_MOF--net-uop--node1-NAWXER_clean_sbu_0--edge1-MIFKUJ_clean_linker_0
_symmetry_space_group_name_H-M    P1
_symmetry_Int_Tables_number       1
_symmetry_cell_setting            triclinic
loop_
_symmetry_equiv_pos_as_xyz
'x, y, z'
_cell_length_a     43.738214
_cell_length_b     43.720233
_cell_length_c     60.439043
_cell_angle_alpha  90.015894
_cell_angle_beta   89.97666
_cell_angle_gamma 120.01056
loop_
_atom_site_label
_atom_site_type_symbol
_atom_site_fract_x
_atom_site_fract_y
_atom_site_fract_z
_atom_type_partial_charge
C0 C 0.24775 0.37845 0.25276 0.0
C1 C 0.25398 0.47757 0.21318 0.0
O2 O 0.25225 0.37608 0.23195 0.0
Zn3 Zn 0.25562 0.40623 0.20252 0.0
O4 O 0.24441 0.40389 0.25993 0.0
Zn5 Zn 0.25001 0.42708 0.23236 0.0
O6 O 0.20113 0.39257 0.21574 0.0
O7 O 0.21481 0.3741 0.18543 0.0
O8 O 0.24996 0.47063 0.2337 0.0
O9 O 0.25647 0.45608 0.19981 0.0
O10 O 0.30096 0.41807 0.19074 0.0
O11 O 0.30399 0.44302 0.22305 0.0
C12 C 0.19151 0.37407 0.19796 0.0
C13 C 0.31938 0.43761 0.20663 0.0
C14 C 0.81475 0.18016 0.52931 0.0
C15 C 0.88167 0.30824 0.53739 0.0
O16 O 0.80451 0.19039 0.54624 0.0
Zn17 Zn 0.8199 0.24001 0.56248 0.0
O18 O 0.84015 0.20287 0.51769 0.0
Zn19 Zn 0.84839 0.2443 0.53385 0.0
O20 O 0.87261 0.24107 0.56433 0.0
O21 O 0.83541 0.23462 0.59094 0.0
O22 O 0.88426 0.28912 0.52252 0.0
O23 O 0.85892 0.29357 0.55298 0.0
O24 O 0.77754 0.24189 0.56239 0.0
O25 O 0.79994 0.24638 0.52901 0.0
C26 C 0.86443 0.23733 0.58494 0.0
C27 C 0.77575 0.24528 0.54167 0.0
C28 C 0.62478 0.86886 0.92002 0.0
C29 C 0.53013 0.77901 0.87593 0.0
O30 O 0.62939 0.87721 0.89942 0.0
Zn31 Zn 0.60195 0.85319 0.86869 0.0
O32 O 0.5985 0.83968 0.92591 0.0
Zn33 Zn 0.57849 0.82412 0.89734 0.0
O34 O 0.61544 0.81205 0.88151 0.0
O35 O 0.63537 0.84607 0.852 0.0
O36 O 0.53518 0.78038 0.89665 0.0
O37 O 0.5527 0.80408 0.86358 0.0
O38 O 0.59141 0.88824 0.8578 0.0
O39 O 0.5625 0.86205 0.88832 0.0
C40 C 0.63515 0.82239 0.86424 0.0
C41 C 0.56969 0.88483 0.87288 0.0
C42 C 0.76738 0.63402 0.24805 0.0
C43 C 0.75774 0.53424 0.20719 0.0
O44 O 0.76333 0.63696 0.22726 0.0
Zn45 Zn 0.75924 0.60745 0.19754 0.0
O46 O 0.77016 0.60813 0.25499 0.0
Zn47 Zn 0.76374 0.58508 0.22714 0.0
O48 O 0.81304 0.61798 0.21036 0.0
O49 O 0.80064 0.63943 0.18088 0.0
O50 O 0.76098 0.54013 0.22785 0.0
O51 O 0.75686 0.55696 0.19412 0.0
O52 O 0.71411 0.59745 0.18605 0.0
O53 O 0.71052 0.57203 0.21824 0.0
C54 C 0.82326 0.63729 0.19292 0.0
C55 C 0.69553 0.57859 0.20212 0.0
C56 C 0.13228 0.75416 0.58817 0.0
C57 C 0.22303 0.74928 0.54515 0.0
O58 O 0.12483 0.7514 0.56745 0.0
Zn59 Zn 0.15023 0.74951 0.53702 0.0
O60 O 0.16112 0.75666 0.59438 0.0
Zn61 Zn 0.17768 0.75284 0.56592 0.0
O62 O 0.1926 0.80314 0.55066 0.0
O63 O 0.1588 0.79126 0.52125 0.0
O64 O 0.22062 0.75179 0.56591 0.0
O65 O 0.19895 0.74821 0.53245 0.0
O66 O 0.11519 0.70523 0.52478 0.0
O67 O 0.13906 0.69953 0.55552 0.0
C68 C 0.18309 0.8138 0.5336 0.0
C69 C 0.11705 0.68549 0.53949 0.0
C70 C 0.36418 0.1343 0.91739 0.0
C71 C 0.46708 0.22181 0.87765 0.0
O72 O 0.36223 0.12675 0.89673 0.0
Zn73 Zn 0.39406 0.15011 0.86756 0.0
O74 O 0.3906 0.16235 0.92456 0.0
Zn75 Zn 0.41504 0.17791 0.89701 0.0
O76 O 0.38266 0.19341 0.87874 0.0
O77 O 0.3641 0.15979 0.84903 0.0
O78 O 0.45945 0.22047 0.898 0.0
O79 O 0.4455 0.19743 0.86451 0.0
O80 O 0.40246 0.11306 0.8582 0.0
O81 O 0.42897 0.13768 0.88966 0.0
C82 C 0.36481 0.18426 0.86071 0.0
C83 C 0.42179 0.11467 0.87434 0.0
C84 C 0.52687 0.74836 0.45529 0.0
C85 C 0.62202 0.75463 0.41102 0.0
O86 O 0.55001 0.74683 0.46764 0.0
Zn87 Zn 0.60004 0.74821 0.46231 0.0
O88 O 0.53149 0.75145 0.43451 0.0
Zn89 Zn 0.57533 0.75241 0.43387 0.0
O90 O 0.56041 0.69886 0.44354 0.0
O91 O 0.59102 0.70334 0.4736 0.0
O92 O 0.59553 0.75715 0.40518 0.0
O93 O 0.62688 0.75124 0.4316 0.0
O94 O 0.63364 0.78971 0.47828 0.0
O95 O 0.61047 0.80211 0.44973 0.0
C96 C 0.56875 0.68421 0.45899 0.0
C97 C 0.63112 0.81243 0.46655 0.0
C98 C 0.86343 0.62638 0.7501 0.0
C99 C 0.77228 0.52759 0.79112 0.0
O100 O 0.87031 0.62944 0.77091 0.0
Zn101 Zn 0.84472 0.59994 0.80067 0.0
O102 O 0.83467 0.6006 0.74316 0.0
Zn103 Zn 0.81743 0.57844 0.77117 0.0
O104 O 0.80403 0.61411 0.78741 0.0
O105 O 0.83559 0.63147 0.81799 0.0
O106 O 0.77377 0.53467 0.77067 0.0
O107 O 0.79682 0.54935 0.80408 0.0
O108 O 0.88014 0.59033 0.81164 0.0
O109 O 0.85601 0.56291 0.78029 0.0
C110 C 0.81294 0.63233 0.80531 0.0
C111 C 0.87822 0.5699 0.79608 0.0
C112 C 0.25647 0.78135 0.12227 0.0
C113 C 0.24927 0.86919 0.07732 0.0
O114 O 0.25831 0.80648 0.13426 0.0
Zn115 Zn 0.25594 0.85428 0.12869 0.0
O116 O 0.25255 0.78177 0.10149 0.0
Zn117 Zn 0.25184 0.82499 0.10028 0.0
O118 O 0.30527 0.86412 0.10992 0.0
O119 O 0.30062 0.89016 0.14 0.0
O120 O 0.24696 0.84024 0.07149 0.0
O121 O 0.25269 0.87755 0.09789 0.0
O122 O 0.21417 0.84588 0.14461 0.0
O123 O 0.20228 0.81053 0.11598 0.0
C124 C 0.31985 0.88713 0.1254 0.0
C125 C 0.19169 0.82064 0.13277 0.0
C126 C 0.46935 0.24453 0.45527 0.0
C127 C 0.37037 0.23366 0.41314 0.0
O128 O 0.44706 0.24688 0.46802 0.0
Zn129 Zn 0.39624 0.24413 0.46375 0.0
O130 O 0.46303 0.23949 0.43471 0.0
Zn131 Zn 0.41902 0.23825 0.43491 0.0
O132 O 0.43413 0.29242 0.44334 0.0
O133 O 0.40468 0.28935 0.47376 0.0
O134 O 0.39689 0.23164 0.40669 0.0
O135 O 0.36686 0.23806 0.43378 0.0
O136 O 0.36456 0.20401 0.4813 0.0
O137 O 0.38485 0.18947 0.45218 0.0
C138 C 0.42602 0.30764 0.45855 0.0
C139 C 0.36575 0.1804 0.46973 0.0
C140 C 0.13051 0.37633 0.74755 0.0
C141 C 0.22326 0.47506 0.78775 0.0
O142 O 0.12457 0.37318 0.76846 0.0
Zn143 Zn 0.15111 0.4025 0.79793 0.0
O144 O 0.15859 0.40253 0.74022 0.0
Zn145 Zn 0.17691 0.42502 0.76808 0.0
O146 O 0.19239 0.3904 0.78359 0.0
O147 O 0.16085 0.37039 0.81406 0.0
O148 O 0.22 0.46915 0.76709 0.0
O149 O 0.1997 0.45268 0.801 0.0
O150 O 0.11624 0.41208 0.81014 0.0
O151 O 0.13853 0.43977 0.7786 0.0
C152 C 0.18408 0.37125 0.80108 0.0
C153 C 0.11718 0.43256 0.79492 0.0
C154 C 0.76156 0.22883 0.12254 0.0
C155 C 0.76747 0.13582 0.08267 0.0
O156 O 0.75939 0.20491 0.13584 0.0
Zn157 Zn 0.75997 0.15583 0.13294 0.0
O158 O 0.76517 0.22582 0.10196 0.0
Zn159 Zn 0.76562 0.18241 0.1031 0.0
O160 O 0.71169 0.14402 0.11225 0.0
O161 O 0.71455 0.1218 0.14443 0.0
O162 O 0.7711 0.16468 0.07542 0.0
O163 O 0.76318 0.12922 0.1035 0.0
O164 O 0.8006 0.16419 0.14995 0.0
O165 O 0.81454 0.19668 0.11977 0.0
C166 C 0.6962 0.1228 0.12846 0.0
C167 C 0.824 0.18754 0.13751 0.0
H168 H 0.23102 0.71498 0.10582 0.0
H169 H 0.2323 0.66522 0.12345 0.0
H170 H 0.28771 0.73104 0.17933 0.0
H171 H 0.28575 0.78085 0.16207 0.0
H172 H 0.31559 0.68574 0.15841 0.0
H173 H 0.21317 0.68286 0.19079 0.0
H174 H 0.157 0.68321 0.18928 0.0
H175 H 0.11067 0.58833 0.15035 0.0
H176 H 0.1668 0.58777 0.15132 0.0
H177 H 0.23783 0.52195 0.23548 0.0
H178 H 0.24034 0.57568 0.22161 0.0
H179 H 0.27631 0.56064 0.15826 0.0
H180 H 0.27373 0.50668 0.17193 0.0
H181 H 0.20436 0.58352 0.18592 0.0
H182 H 0.3373 0.6446 0.13923 0.0
H183 H 0.39411 0.64551 0.14111 0.0
H184 H 0.38041 0.62556 0.21098 0.0
H185 H 0.3238 0.62505 0.20959 0.0
C186 C 0.24359 0.71891 0.12182 0.0
C187 C 0.25823 0.75173 0.13262 0.0
C188 C 0.24424 0.69049 0.13185 0.0
C189 C 0.26008 0.69464 0.15262 0.0
C190 C 0.27543 0.72752 0.16325 0.0
C191 C 0.27414 0.75579 0.15344 0.0
C192 C 0.25981 0.66424 0.16336 0.0
C193 C 0.29136 0.66337 0.16449 0.0
C194 C 0.22816 0.6354 0.17139 0.0
C195 C 0.1943 0.63549 0.17093 0.0
C196 C 0.19111 0.66227 0.18172 0.0
C197 C 0.15926 0.66247 0.181 0.0
C198 C 0.13031 0.63587 0.16967 0.0
C199 C 0.13313 0.60895 0.15909 0.0
C200 C 0.16495 0.60867 0.15974 0.0
C201 C 0.24634 0.53008 0.2186 0.0
C202 C 0.25562 0.51009 0.2048 0.0
C203 C 0.24764 0.5607 0.2107 0.0
C204 C 0.25869 0.57215 0.18899 0.0
C205 C 0.26799 0.55232 0.17514 0.0
C206 C 0.26638 0.52148 0.18296 0.0
C207 C 0.26014 0.60468 0.18076 0.0
C208 C 0.2287 0.60589 0.17997 0.0
C209 C 0.29197 0.63391 0.17316 0.0
C210 C 0.32614 0.63447 0.17425 0.0
C211 C 0.34647 0.64053 0.15501 0.0
C212 C 0.37863 0.64096 0.15599 0.0
C213 C 0.39081 0.63553 0.17614 0.0
C214 C 0.37088 0.62966 0.19537 0.0
C215 C 0.33873 0.62924 0.19449 0.0
H216 H 0.41576 0.63601 0.17688 0.0
H217 H 0.10568 0.63606 0.16913 0.0
H218 H 0.72638 0.25341 0.5643 0.0
H219 H 0.67578 0.25559 0.54937 0.0
H220 H 0.70582 0.24405 0.48324 0.0
H221 H 0.75725 0.24266 0.49807 0.0
H222 H 0.68533 0.29243 0.48437 0.0
H223 H 0.63885 0.17383 0.5107 0.0
H224 H 0.62851 0.1276 0.53791 0.0
H225 H 0.57668 0.16544 0.58111 0.0
H226 H 0.58714 0.21223 0.55428 0.0
H227 H 0.52113 0.24041 0.43257 0.0
H228 H 0.57423 0.24315 0.44745 0.0
H229 H 0.54501 0.25746 0.5132 0.0
H230 H 0.49134 0.25426 0.49846 0.0
H231 H 0.56528 0.20836 0.51235 0.0
H232 H 0.61096 0.32646 0.48523 0.0
H233 H 0.62099 0.37202 0.45758 0.0
H234 H 0.6739 0.33426 0.41526 0.0
H235 H 0.66374 0.28813 0.44253 0.0
C236 C 0.72232 0.25137 0.54656 0.0
C237 C 0.7457 0.24758 0.53237 0.0
C238 C 0.69328 0.25251 0.53807 0.0
C239 C 0.68666 0.24935 0.51523 0.0
C240 C 0.71038 0.24639 0.50093 0.0
C241 C 0.73969 0.24552 0.50942 0.0
C242 C 0.65481 0.24885 0.50639 0.0
C243 C 0.65903 0.27375 0.49026 0.0
C244 C 0.62057 0.22498 0.51446 0.0
C245 C 0.61407 0.19674 0.53057 0.0
C246 C 0.62547 0.17245 0.52608 0.0
C247 C 0.61955 0.14613 0.54142 0.0
C248 C 0.60203 0.14364 0.56125 0.0
C249 C 0.59029 0.16743 0.56575 0.0
C250 C 0.59618 0.19383 0.55048 0.0
C251 C 0.52599 0.24429 0.4502 0.0
C252 C 0.50199 0.24716 0.46434 0.0
C253 C 0.55649 0.24602 0.45865 0.0
C254 C 0.56378 0.25093 0.48138 0.0
C255 C 0.5399 0.25376 0.49558 0.0
C256 C 0.5093 0.252 0.48713 0.0
C257 C 0.59581 0.25198 0.49036 0.0
C258 C 0.5916 0.22712 0.5065 0.0
C259 C 0.63 0.27578 0.48222 0.0
C260 C 0.6363 0.30363 0.46585 0.0
C261 C 0.62449 0.32769 0.46995 0.0
C262 C 0.63025 0.35366 0.45436 0.0
C263 C 0.648 0.35598 0.43466 0.0
C264 C 0.66012 0.3324 0.43052 0.0
C265 C 0.6544 0.30637 0.44605 0.0
H266 H 0.65242 0.3761 0.42261 0.0
H267 H 0.59747 0.12324 0.57311 0.0
H268 H 0.47353 0.72682 0.89786 0.0
H269 H 0.42162 0.67618 0.88206 0.0
H270 H 0.46314 0.7111 0.81637 0.0
H271 H 0.51498 0.76253 0.83207 0.0
H272 H 0.39443 0.68944 0.81761 0.0
H273 H 0.46723 0.64266 0.84155 0.0
H274 H 0.50345 0.63118 0.86782 0.0
H275 H 0.41387 0.57591 0.91073 0.0
H276 H 0.37722 0.58748 0.88484 0.0
H277 H 0.27852 0.52664 0.76434 0.0
H278 H 0.3304 0.57898 0.77885 0.0
H279 H 0.29019 0.54893 0.84525 0.0
H280 H 0.23837 0.49617 0.83092 0.0
H281 H 0.35902 0.56815 0.8428 0.0
H282 H 0.28645 0.61567 0.81847 0.0
H283 H 0.25067 0.62694 0.79172 0.0
H284 H 0.34053 0.68041 0.74881 0.0
H285 H 0.37674 0.66903 0.77519 0.0
C286 C 0.47169 0.72379 0.88004 0.0
C287 C 0.4985 0.7486 0.86622 0.0
C288 C 0.44203 0.69471 0.87104 0.0
C289 C 0.43878 0.68952 0.84806 0.0
C290 C 0.46519 0.71454 0.83417 0.0
C291 C 0.49481 0.74386 0.84316 0.0
C292 C 0.40773 0.65798 0.8386 0.0
C293 C 0.38697 0.66288 0.82287 0.0
C294 C 0.39762 0.62337 0.84579 0.0
C295 C 0.41956 0.61621 0.86134 0.0
C296 C 0.45532 0.62827 0.85666 0.0
C297 C 0.47591 0.62172 0.87147 0.0
C298 C 0.46099 0.6029 0.89096 0.0
C299 C 0.42541 0.59051 0.89564 0.0
C300 C 0.4047 0.59703 0.88089 0.0
C301 C 0.2806 0.53119 0.78204 0.0
C302 C 0.25426 0.50724 0.79648 0.0
C303 C 0.31023 0.56121 0.79028 0.0
C304 C 0.31397 0.56803 0.8131 0.0
C305 C 0.28778 0.54417 0.82757 0.0
C306 C 0.25814 0.51409 0.81935 0.0
C307 C 0.3456 0.59962 0.82194 0.0
C308 C 0.36651 0.59471 0.83753 0.0
C309 C 0.35591 0.63417 0.81453 0.0
C310 C 0.33421 0.6412 0.79871 0.0
C311 C 0.29851 0.6296 0.80326 0.0
C312 C 0.27817 0.63605 0.78817 0.0
C313 C 0.29329 0.6543 0.76855 0.0
C314 C 0.32883 0.66623 0.76401 0.0
C315 C 0.34929 0.65982 0.77903 0.0
H316 H 0.2775 0.65926 0.75689 0.0
H317 H 0.47698 0.59785 0.9024 0.0
H318 H 0.75702 0.4802 0.23036 0.0
H319 H 0.75624 0.42784 0.21552 0.0
H320 H 0.75291 0.46218 0.14911 0.0
H321 H 0.75404 0.51486 0.16378 0.0
H322 H 0.7086 0.3737 0.18981 0.0
H323 H 0.8023 0.44003 0.11584 0.0
H324 H 0.85122 0.49869 0.10507 0.0
H325 H 0.87833 0.52513 0.17342 0.0
H326 H 0.82993 0.46648 0.18457 0.0
H327 H 0.76116 0.28171 0.09866 0.0
H328 H 0.75833 0.3326 0.11274 0.0
H329 H 0.75649 0.2974 0.17966 0.0
H330 H 0.75865 0.24604 0.16572 0.0
H331 H 0.80248 0.38629 0.13819 0.0
H332 H 0.7072 0.31993 0.21197 0.0
H333 H 0.6576 0.2615 0.22242 0.0
H334 H 0.63275 0.235 0.15386 0.0
H335 H 0.68187 0.29342 0.14301 0.0
C336 C 0.75604 0.47662 0.21258 0.0
C337 C 0.75581 0.50183 0.19824 0.0
C338 C 0.75548 0.44661 0.20415 0.0
C339 C 0.75489 0.44134 0.18123 0.0
C340 C 0.75386 0.46602 0.16686 0.0
C341 C 0.75439 0.49605 0.17527 0.0
C342 C 0.75593 0.41027 0.1724 0.0
C343 C 0.72933 0.37641 0.17873 0.0
C344 C 0.78256 0.41389 0.15755 0.0
C345 C 0.81223 0.44899 0.15103 0.0
C346 C 0.8188 0.45832 0.12856 0.0
C347 C 0.84643 0.49157 0.12239 0.0
C348 C 0.86779 0.51567 0.13855 0.0
C349 C 0.86168 0.5065 0.16092 0.0
C350 C 0.83413 0.47326 0.16717 0.0
C351 C 0.76005 0.28471 0.11638 0.0
C352 C 0.75997 0.25972 0.13107 0.0
C353 C 0.75853 0.31388 0.12439 0.0
C354 C 0.75682 0.31861 0.14723 0.0
C355 C 0.75716 0.29394 0.16195 0.0
C356 C 0.75853 0.26466 0.15396 0.0
C357 C 0.75514 0.34961 0.15562 0.0
C358 C 0.78166 0.3835 0.14923 0.0
C359 C 0.72837 0.346 0.17036 0.0
C360 C 0.69846 0.31093 0.1767 0.0
C361 C 0.69107 0.30168 0.19914 0.0
C362 C 0.66305 0.26855 0.20513 0.0
C363 C 0.64211 0.24451 0.18881 0.0
C364 C 0.64907 0.25359 0.16648 0.0
C365 C 0.67703 0.28669 0.1604 0.0
H366 H 0.62045 0.21887 0.19349 0.0
H367 H 0.88911 0.54143 0.13374 0.0
H368 H 0.47281 0.74935 0.43345 0.0
H369 H 0.42127 0.7487 0.44932 0.0
H370 H 0.45753 0.74427 0.51497 0.0
H371 H 0.50922 0.74444 0.49917 0.0
H372 H 0.38721 0.69885 0.51033 0.0
H373 H 0.46759 0.82089 0.4954 0.0
H374 H 0.50841 0.8723 0.47287 0.0
H375 H 0.42436 0.85164 0.4278 0.0
H376 H 0.38312 0.79976 0.44989 0.0
H377 H 0.27579 0.74682 0.56775 0.0
H378 H 0.3267 0.74538 0.55251 0.0
H379 H 0.29065 0.74709 0.48635 0.0
H380 H 0.23957 0.7488 0.50147 0.0
H381 H 0.36122 0.79411 0.49176 0.0
H382 H 0.28087 0.67165 0.50715 0.0
H383 H 0.24048 0.62076 0.5302 0.0
H384 H 0.32514 0.6431 0.57516 0.0
H385 H 0.36595 0.69445 0.55253 0.0
C386 C 0.4699 0.74819 0.45127 0.0
C387 C 0.49525 0.74713 0.46506 0.0
C388 C 0.44044 0.74796 0.46031 0.0
C389 C 0.43584 0.74695 0.48332 0.0
C390 C 0.46069 0.74517 0.49715 0.0
C391 C 0.49022 0.74535 0.48811 0.0
C392 C 0.40505 0.74781 0.49282 0.0
C393 C 0.38178 0.71993 0.50654 0.0
C394 C 0.39764 0.77496 0.48748 0.0
C395 C 0.42234 0.80623 0.47419 0.0
C396 C 0.45787 0.82713 0.48058 0.0
C397 C 0.48107 0.85639 0.46791 0.0
C398 C 0.46901 0.86518 0.44889 0.0
C399 C 0.43368 0.84477 0.44253 0.0
C400 C 0.41037 0.81545 0.45513 0.0
C401 C 0.27857 0.74681 0.54995 0.0
C402 C 0.25356 0.74786 0.53581 0.0
C403 C 0.30764 0.74584 0.54128 0.0
C404 C 0.31224 0.74578 0.51832 0.0
C405 C 0.28749 0.74705 0.50413 0.0
C406 C 0.25829 0.74791 0.5128 0.0
C407 C 0.34328 0.74506 0.50916 0.0
C408 C 0.36665 0.77302 0.49554 0.0
C409 C 0.35084 0.71807 0.51467 0.0
C410 C 0.32638 0.68711 0.52825 0.0
C411 C 0.29081 0.66589 0.52205 0.0
C412 C 0.26785 0.63692 0.53502 0.0
C413 C 0.28021 0.62875 0.55416 0.0
C414 C 0.31559 0.64948 0.56034 0.0
C415 C 0.33865 0.6785 0.54744 0.0
H416 H 0.2624 0.60632 0.56418 0.0
H417 H 0.48701 0.88785 0.4391 0.0
H418 H 0.50074 0.22617 0.83857 0.0
H419 H 0.55492 0.27706 0.82438 0.0
H420 H 0.56144 0.33631 0.88298 0.0
H421 H 0.50786 0.28559 0.89745 0.0
H422 H 0.56763 0.37177 0.84171 0.0
H423 H 0.61528 0.3088 0.88066 0.0
H424 H 0.62077 0.25674 0.88962 0.0
H425 H 0.65127 0.25281 0.8226 0.0
H426 H 0.64544 0.30457 0.81316 0.0
H427 H 0.76731 0.49692 0.83139 0.0
H428 H 0.71694 0.44307 0.84618 0.0
H429 H 0.65937 0.43022 0.78574 0.0
H430 H 0.70963 0.48371 0.77071 0.0
H431 H 0.67977 0.37171 0.8291 0.0
H432 H 0.57359 0.40631 0.80351 0.0
H433 H 0.56865 0.45907 0.79567 0.0
H434 H 0.6566 0.52101 0.83859 0.0
H435 H 0.66138 0.46857 0.84714 0.0
C436 C 0.51382 0.25001 0.84845 0.0
C437 C 0.5001 0.25191 0.86912 0.0
C438 C 0.54475 0.27894 0.84036 0.0
C439 C 0.56205 0.31029 0.85269 0.0
C440 C 0.54838 0.31228 0.87327 0.0
C441 C 0.51787 0.28325 0.88152 0.0
C442 C 0.594 0.34145 0.84395 0.0
C443 C 0.59211 0.37174 0.83888 0.0
C444 C 0.62593 0.34136 0.84049 0.0
C445 C 0.62954 0.31031 0.84615 0.0
C446 C 0.62282 0.29663 0.86778 0.0
C447 C 0.62607 0.26722 0.87296 0.0
C448 C 0.63626 0.25141 0.85667 0.0
C449 C 0.64332 0.26505 0.83519 0.0
C450 C 0.64007 0.29444 0.82992 0.0
C451 C 0.74398 0.48254 0.82121 0.0
C452 C 0.74236 0.49465 0.79993 0.0
C453 C 0.71537 0.4517 0.82962 0.0
C454 C 0.68452 0.43284 0.81704 0.0
C455 C 0.68298 0.44453 0.79569 0.0
C456 C 0.71171 0.47509 0.78716 0.0
C457 C 0.65324 0.40188 0.82663 0.0
C458 C 0.65521 0.37164 0.83182 0.0
C459 C 0.62137 0.40202 0.83031 0.0
C460 C 0.61812 0.43359 0.82572 0.0
C461 C 0.59172 0.43118 0.81136 0.0
C462 C 0.58891 0.46103 0.80682 0.0
C463 C 0.61231 0.49343 0.81659 0.0
C464 C 0.63845 0.49598 0.83101 0.0
C465 C 0.64124 0.46619 0.8357 0.0
H466 H 0.61013 0.51652 0.81301 0.0
H467 H 0.63877 0.22865 0.86072 0.0
H468 H 0.65245 0.55767 0.23825 0.0
H469 H 0.58903 0.5357 0.23939 0.0
H470 H 0.58789 0.5459 0.1684 0.0
H471 H 0.65176 0.56942 0.16732 0.0
H472 H 0.54746 0.56667 0.18541 0.0
H473 H 0.55822 0.46386 0.19568 0.0
H474 H 0.57996 0.42715 0.21281 0.0
H475 H 0.53489 0.43139 0.27507 0.0
H476 H 0.51326 0.46853 0.25837 0.0
H477 H 0.36193 0.44755 0.17103 0.0
H478 H 0.42622 0.47347 0.17083 0.0
H479 H 0.42887 0.48895 0.2414 0.0
H480 H 0.36464 0.46365 0.24173 0.0
H481 H 0.46766 0.45528 0.22501 0.0
H482 H 0.45521 0.55734 0.2126 0.0
H483 H 0.4316 0.59096 0.19354 0.0
H484 H 0.4785 0.58443 0.13258 0.0
H485 H 0.50188 0.55019 0.15122 0.0
C486 C 0.63866 0.55511 0.22287 0.0
C487 C 0.65702 0.56493 0.20266 0.0
C488 C 0.60233 0.5424 0.22353 0.0
C489 C 0.58339 0.53839 0.20393 0.0
C490 C 0.60182 0.54865 0.18375 0.0
C491 C 0.63831 0.56197 0.18313 0.0
C492 C 0.54444 0.52353 0.20446 0.0
C493 C 0.53005 0.54208 0.19384 0.0
C494 C 0.52155 0.49169 0.21574 0.0
C495 C 0.53442 0.46925 0.22582 0.0
C496 C 0.55315 0.45717 0.21306 0.0
C497 C 0.56543 0.43625 0.22269 0.0
C498 C 0.55889 0.42702 0.24503 0.0
C499 C 0.53998 0.4386 0.25778 0.0
C500 C 0.52768 0.45956 0.24823 0.0
C501 C 0.3762 0.45654 0.18651 0.0
C502 C 0.35825 0.45362 0.2064 0.0
C503 C 0.4129 0.47141 0.18634 0.0
C504 C 0.4322 0.48317 0.20609 0.0
C505 C 0.41437 0.48002 0.226 0.0
C506 C 0.37774 0.46571 0.22613 0.0
C507 C 0.47101 0.4984 0.20596 0.0
C508 C 0.48525 0.47989 0.21663 0.0
C509 C 0.49364 0.52991 0.19444 0.0
C510 C 0.47998 0.55088 0.18326 0.0
C511 C 0.46023 0.5628 0.19509 0.0
C512 C 0.44694 0.58203 0.18436 0.0
C513 C 0.45347 0.58976 0.16184 0.0
C514 C 0.47342 0.57838 0.15002 0.0
C515 C 0.48671 0.55908 0.16066 0.0
H516 H 0.44314 0.60463 0.15355 0.0
H517 H 0.56841 0.41082 0.25245 0.0
H518 H 0.05842 0.64861 0.51372 0.0
H519 H 0.01756 0.58497 0.51341 0.0
H520 H 0.08149 0.57079 0.56217 0.0
H521 H 0.12175 0.63462 0.56315 0.0
H522 H 0.02183 0.53078 0.50251 0.0
H523 H 0.03124 0.50119 0.59529 0.0
H524 H 0.04189 0.53097 0.63148 0.0
H525 H 0.00538 0.59861 0.60576 0.0
H526 H 0.99402 0.56889 0.56954 0.0
H527 H 0.94451 0.34622 0.51568 0.0
H528 H 0.98396 0.41016 0.51601 0.0
H529 H 0.91075 0.42208 0.55803 0.0
H530 H 0.87205 0.35797 0.5586 0.0
H531 H 0.97231 0.4639 0.57211 0.0
H532 H 0.92041 0.44156 0.50025 0.0
H533 H 0.9026 0.41325 0.4636 0.0
H534 H 0.01128 0.4522 0.44669 0.0
H535 H 0.02972 0.48038 0.48337 0.0
C536 C 0.06381 0.63195 0.52437 0.0
C537 C 0.09323 0.64672 0.53856 0.0
C538 C 0.04044 0.59551 0.52415 0.0
C539 C 0.04608 0.57299 0.53799 0.0
C540 C 0.07604 0.58761 0.55171 0.0
C541 C 0.09917 0.62412 0.55217 0.0
C542 C 0.02059 0.53429 0.53802 0.0
C543 C 0.01102 0.51619 0.51774 0.0
C544 C 0.00572 0.51522 0.55783 0.0
C545 C 0.01216 0.53305 0.57963 0.0
C546 C 0.02537 0.52233 0.59739 0.0
C547 C 0.03154 0.53921 0.6179 0.0
C548 C 0.02443 0.56674 0.62089 0.0
C549 C 0.011 0.57737 0.6034 0.0
C550 C 0.00473 0.56054 0.58287 0.0
C551 C 0.93678 0.36249 0.52493 0.0
C552 C 0.90509 0.34707 0.53703 0.0
C553 C 0.9593 0.39911 0.52503 0.0
C554 C 0.95017 0.42119 0.53674 0.0
C555 C 0.9185 0.40574 0.54887 0.0
C556 C 0.8963 0.36907 0.54912 0.0
C557 C 0.97378 0.46029 0.5366 0.0
C558 C 0.98309 0.47847 0.55687 0.0
C559 C 0.98739 0.47965 0.51673 0.0
C560 C 0.97641 0.4628 0.49463 0.0
C561 C 0.94049 0.44388 0.48877 0.0
C562 C 0.93029 0.42789 0.46799 0.0
C563 C 0.95579 0.43085 0.45285 0.0
C564 C 0.99155 0.44989 0.45844 0.0
C565 C 0.0019 0.46591 0.47922 0.0
H566 H 0.94783 0.41846 0.43676 0.0
H567 H 0.02926 0.57979 0.63678 0.0
H568 H 0.39475 0.05026 0.85456 0.0
H569 H 0.41727 0.00928 0.8563 0.0
H570 H 0.50306 0.08263 0.89787 0.0
H571 H 0.4794 0.1228 0.89713 0.0
H572 H 0.47237 0.01302 0.84151 0.0
H573 H 0.53721 0.0474 0.92716 0.0
H574 H 0.52752 0.0628 0.96482 0.0
H575 H 0.41551 0.00574 0.95417 0.0
H576 H 0.42461 0.99077 0.91621 0.0
H577 H 0.58824 0.9441 0.84819 0.0
H578 H 0.56216 0.98215 0.84933 0.0
H579 H 0.48754 0.9143 0.89858 0.0
H580 H 0.51427 0.87684 0.89805 0.0
H581 H 0.51077 0.97914 0.90987 0.0
H582 H 0.4644 0.91359 0.84288 0.0
H583 H 0.46682 0.88994 0.80628 0.0
H584 H 0.52833 0.9954 0.78092 0.0
H585 H 0.52665 0.01969 0.81747 0.0
C586 C 0.41829 0.05753 0.8642 0.0
C587 C 0.43539 0.0898 0.87564 0.0
C588 C 0.43118 0.03406 0.86519 0.0
C589 C 0.46178 0.04253 0.87738 0.0
C590 C 0.47891 0.07486 0.88883 0.0
C591 C 0.46556 0.09803 0.88823 0.0
C592 C 0.47664 0.01838 0.87702 0.0
C593 C 0.48062 0.00558 0.85651 0.0
C594 C 0.48727 0.00821 0.8965 0.0
C595 C 0.48161 0.01836 0.91884 0.0
C596 C 0.51054 0.03842 0.93282 0.0
C597 C 0.50515 0.04718 0.95415 0.0
C598 C 0.47091 0.03557 0.96178 0.0
C599 C 0.442 0.01523 0.94806 0.0
C600 C 0.44726 0.00679 0.9266 0.0
C601 C 0.5662 0.93721 0.8592 0.0
C602 C 0.55326 0.90736 0.87298 0.0
C603 C 0.55121 0.95894 0.85979 0.0
C604 C 0.52256 0.95091 0.87385 0.0
C605 C 0.50965 0.92112 0.88762 0.0
C606 C 0.52488 0.89963 0.88724 0.0
C607 C 0.50622 0.97369 0.87441 0.0
C608 C 0.50231 0.98648 0.8949 0.0
C609 C 0.49466 0.98295 0.85498 0.0
C610 C 0.49568 0.96845 0.83297 0.0
C611 C 0.47866 0.93173 0.82954 0.0
C612 C 0.47986 0.91821 0.8088 0.0
C613 C 0.49779 0.94115 0.7913 0.0
C614 C 0.51449 0.97766 0.7945 0.0
C615 C 0.51339 0.99132 0.81522 0.0
H616 H 0.49869 0.93063 0.77526 0.0
H617 H 0.46676 0.04214 0.97836 0.0
H618 H 0.59606 0.64638 0.47801 0.0
H619 H 0.57132 0.58214 0.47728 0.0
H620 H 0.48141 0.57008 0.44066 0.0
H621 H 0.50645 0.63438 0.44069 0.0
H622 H 0.4737 0.52389 0.48464 0.0
H623 H 0.52387 0.55928 0.41012 0.0
H624 H 0.57306 0.59608 0.38486 0.0
H625 H 0.63733 0.55992 0.41619 0.0
H626 H 0.58866 0.52334 0.44189 0.0
H627 H 0.38943 0.34254 0.45939 0.0
H628 H 0.41309 0.40639 0.45835 0.0
H629 H 0.51914 0.42305 0.45685 0.0
H630 H 0.49506 0.35894 0.45599 0.0
H631 H 0.51977 0.46876 0.43257 0.0
H632 H 0.47524 0.43352 0.50593 0.0
H633 H 0.43164 0.39931 0.5349 0.0
H634 H 0.36378 0.43699 0.51138 0.0
H635 H 0.4068 0.4711 0.4821 0.0
C636 C 0.57096 0.63004 0.46987 0.0
C637 C 0.55319 0.64538 0.45938 0.0
C638 C 0.55695 0.59343 0.46943 0.0
C639 C 0.52465 0.57156 0.45888 0.0
C640 C 0.50642 0.58665 0.44885 0.0
C641 C 0.52079 0.62332 0.44884 0.0
C642 C 0.51008 0.5329 0.45818 0.0
C643 C 0.48331 0.5116 0.4731 0.0
C644 C 0.52376 0.51734 0.44371 0.0
C645 C 0.55279 0.53893 0.42808 0.0
C646 C 0.54861 0.55946 0.41176 0.0
C647 C 0.57637 0.58021 0.39734 0.0
C648 C 0.60834 0.58043 0.39897 0.0
C649 C 0.61257 0.55978 0.41497 0.0
C650 C 0.58491 0.53902 0.42946 0.0
C651 C 0.41778 0.35998 0.45881 0.0
C652 C 0.44054 0.34611 0.45801 0.0
C653 C 0.43136 0.3965 0.4584 0.0
C654 C 0.46807 0.41991 0.45821 0.0
C655 C 0.49076 0.40579 0.45709 0.0
C656 C 0.47708 0.3692 0.4567 0.0
C657 C 0.48275 0.45896 0.45903 0.0
C658 C 0.50981 0.48061 0.44418 0.0
C659 C 0.46996 0.47496 0.47406 0.0
C660 C 0.4441 0.4546 0.49171 0.0
C661 C 0.45092 0.43434 0.50686 0.0
C662 C 0.42632 0.41499 0.52334 0.0
C663 C 0.39492 0.4159 0.52494 0.0
C664 C 0.38809 0.43627 0.5101 0.0
C665 C 0.41259 0.45565 0.49358 0.0
H666 H 0.37591 0.4009 0.53771 0.0
H667 H 0.6298 0.59652 0.38779 0.0
H668 H 0.87087 0.51323 0.77247 0.0
H669 H 0.91009 0.48839 0.77251 0.0
H670 H 0.97976 0.56951 0.81806 0.0
H671 H 0.93985 0.59335 0.81886 0.0
H672 H 0.97304 0.50949 0.7602 0.0
H673 H 0.02165 0.54169 0.85137 0.0
H674 H 0.99923 0.54717 0.88776 0.0
H675 H 0.89271 0.4788 0.86604 0.0
H676 H 0.91449 0.47255 0.82964 0.0
H677 H 0.12235 0.48875 0.77184 0.0
H678 H 0.08116 0.51119 0.7721 0.0
H679 H 0.01492 0.43 0.8187 0.0
H680 H 0.05683 0.40854 0.81924 0.0
H681 H 0.01654 0.48608 0.83036 0.0
H682 H 0.99523 0.42636 0.7614 0.0
H683 H 0.0093 0.41108 0.72497 0.0
H684 H 0.0469 0.5171 0.70232 0.0
H685 H 0.03347 0.53314 0.73872 0.0
C686 C 0.89446 0.52562 0.78259 0.0
C687 C 0.90204 0.55497 0.79588 0.0
C688 C 0.91696 0.51149 0.78253 0.0
C689 C 0.94769 0.52667 0.79557 0.0
C690 C 0.95578 0.55666 0.80833 0.0
C691 C 0.93298 0.57037 0.80872 0.0
C692 C 0.97129 0.51121 0.79579 0.0
C693 C 0.9825 0.50434 0.77556 0.0
C694 C 0.98306 0.5036 0.81578 0.0
C695 C 0.96972 0.50697 0.83771 0.0
C696 C 0.99345 0.52773 0.85439 0.0
C697 C 0.98085 0.53099 0.87501 0.0
C698 C 0.94457 0.51344 0.87918 0.0
C699 C 0.9208 0.49249 0.86276 0.0
C700 C 0.93326 0.48912 0.84212 0.0
C701 C 0.09905 0.47578 0.7822 0.0
C702 C 0.09282 0.44685 0.7955 0.0
C703 C 0.07536 0.48847 0.78222 0.0
C704 C 0.04448 0.47194 0.79512 0.0
C705 C 0.03849 0.44328 0.8086 0.0
C706 C 0.06248 0.43099 0.80889 0.0
C707 C 0.0186 0.48465 0.79477 0.0
C708 C 0.00704 0.49115 0.81499 0.0
C709 C 0.00538 0.49051 0.77477 0.0
C710 C 0.01368 0.48104 0.75287 0.0
C711 C 0.00677 0.4465 0.74871 0.0
C712 C 0.01458 0.43768 0.72806 0.0
C713 C 0.02908 0.46313 0.71136 0.0
C714 C 0.03573 0.49743 0.71528 0.0
C715 C 0.02799 0.50639 0.73591 0.0
H716 H 0.03509 0.45626 0.69538 0.0
H717 H 0.93487 0.51601 0.89515 0.0
H718 H 0.3587 0.94386 0.15245 0.0
H719 H 0.42273 0.98319 0.15247 0.0
H720 H 0.43308 0.92253 0.09973 0.0
H721 H 0.36907 0.88301 0.09958 0.0
H722 H 0.48304 0.93926 0.1323 0.0
H723 H 0.43774 0.99836 0.08763 0.0
H724 H 0.39957 0.02348 0.07931 0.0
H725 H 0.44488 0.09572 0.13368 0.0
H726 H 0.48297 0.07065 0.14253 0.0
H727 H 0.65016 0.11328 0.09498 0.0
H728 H 0.5865 0.07233 0.09399 0.0
H729 H 0.59065 0.0374 0.16009 0.0
H730 H 0.6544 0.0779 0.16112 0.0
H731 H 0.53339 0.06756 0.11873 0.0
H732 H 0.52897 0.94879 0.16424 0.0
H733 H 0.56706 0.92283 0.17023 0.0
H734 H 0.62178 0.96881 0.10948 0.0
H735 H 0.58355 0.99443 0.10295 0.0
C736 C 0.37458 0.93877 0.1409 0.0
C737 C 0.35873 0.91035 0.12595 0.0
C738 C 0.41116 0.96134 0.1409 0.0
C739 C 0.43261 0.95592 0.12599 0.0
C740 C 0.41699 0.92717 0.11137 0.0
C741 C 0.38038 0.9047 0.11126 0.0
C742 C 0.47129 0.9806 0.12539 0.0
C743 C 0.49409 0.96733 0.12938 0.0
C744 C 0.48566 0.01711 0.12123 0.0
C745 C 0.46296 0.0324 0.11586 0.0
C746 C 0.43937 0.01941 0.09792 0.0
C747 C 0.41778 0.03367 0.09309 0.0
C748 C 0.41974 0.06112 0.10599 0.0
C749 C 0.44336 0.07443 0.12372 0.0
C750 C 0.46497 0.06022 0.12864 0.0
C751 C 0.63755 0.09699 0.10936 0.0
C752 C 0.65741 0.09887 0.12814 0.0
C753 C 0.60113 0.07362 0.10876 0.0
C754 C 0.58384 0.05159 0.12688 0.0
C755 C 0.6035 0.05378 0.14578 0.0
C756 C 0.63994 0.07707 0.14638 0.0
C757 C 0.54525 0.02636 0.12599 0.0
C758 C 0.52242 0.03953 0.12173 0.0
C759 C 0.5309 0.98967 0.12962 0.0
C760 C 0.55364 0.97385 0.13322 0.0
C761 C 0.54901 0.95321 0.15211 0.0
C762 C 0.57062 0.93855 0.1556 0.0
C763 C 0.59688 0.94424 0.14027 0.0
C764 C 0.60148 0.96448 0.12137 0.0
C765 C 0.57987 0.9791 0.11777 0.0
H766 H 0.61362 0.93292 0.14303 0.0
H767 H 0.403 0.07213 0.10223 0.0
H768 H 0.27401 0.33416 0.2459 0.0
H769 H 0.28295 0.29868 0.27357 0.0
H770 H 0.23238 0.3299 0.32285 0.0
H771 H 0.2245 0.36637 0.29543 0.0
H772 H 0.29197 0.34043 0.33788 0.0
H773 H 0.19427 0.24298 0.30246 0.0
H774 H 0.15945 0.20533 0.27125 0.0
H775 H 0.24248 0.18347 0.25585 0.0
H776 H 0.27803 0.2214 0.28678 0.0
H777 H 0.31325 0.24168 0.42113 0.0
H778 H 0.27971 0.25432 0.39396 0.0
H779 H 0.3388 0.2417 0.34112 0.0
H780 H 0.37221 0.22861 0.36812 0.0
H781 H 0.26829 0.21752 0.32972 0.0
H782 H 0.3679 0.32081 0.36219 0.0
H783 H 0.40264 0.3579 0.39365 0.0
H784 H 0.31443 0.36833 0.41448 0.0
H785 H 0.27895 0.33077 0.38335 0.0
C786 C 0.26425 0.33296 0.26253 0.0
C787 C 0.24879 0.35323 0.26855 0.0
C788 C 0.2692 0.3125 0.27833 0.0
C789 C 0.25812 0.3114 0.30029 0.0
C790 C 0.24123 0.3304 0.30603 0.0
C791 C 0.23673 0.35122 0.29034 0.0
C792 C 0.26728 0.29341 0.31771 0.0
C793 C 0.286 0.31327 0.33628 0.0
C794 C 0.26031 0.25825 0.31543 0.0
C795 C 0.23893 0.23527 0.29686 0.0
C796 C 0.20522 0.23036 0.29232 0.0
C797 C 0.18533 0.20892 0.2747 0.0
C798 C 0.19877 0.19207 0.26155 0.0
C799 C 0.23211 0.19655 0.26604 0.0
C800 C 0.25212 0.21798 0.28364 0.0
C801 C 0.31859 0.24079 0.40372 0.0
C802 C 0.34583 0.23477 0.39679 0.0
C803 C 0.29937 0.248 0.38822 0.0
C804 C 0.30725 0.24951 0.3656 0.0
C805 C 0.33242 0.24072 0.35853 0.0
C806 C 0.35162 0.23345 0.374 0.0
C807 C 0.29275 0.2646 0.34965 0.0
C808 C 0.27344 0.2444 0.33138 0.0
C809 C 0.29908 0.29947 0.35215 0.0
C810 C 0.32066 0.32267 0.37059 0.0
C811 C 0.35585 0.33084 0.37356 0.0
C812 C 0.37567 0.35194 0.39133 0.0
C813 C 0.36071 0.36538 0.40608 0.0
C814 C 0.32595 0.35784 0.40306 0.0
C815 C 0.30597 0.33665 0.38536 0.0
H816 H 0.37609 0.38171 0.41982 0.0
H817 H 0.18334 0.1755 0.24791 0.0
H818 H 0.85236 0.22181 0.62892 0.0
H819 H 0.89627 0.2342 0.65765 0.0
H820 H 0.97815 0.27136 0.60808 0.0
H821 H 0.93422 0.25829 0.57915 0.0
H822 H 0.99107 0.23743 0.64102 0.0
H823 H 0.96142 0.32888 0.6347 0.0
H824 H 0.92221 0.35426 0.63361 0.0
H825 H 0.88695 0.31727 0.69968 0.0
H826 H 0.92559 0.29119 0.70103 0.0
H827 H 0.13742 0.36964 0.70311 0.0
H828 H 0.09042 0.33387 0.67682 0.0
H829 H 0.01544 0.29142 0.73042 0.0
H830 H 0.06224 0.32688 0.75685 0.0
H831 H 0.99715 0.32327 0.69707 0.0
H832 H 0.03439 0.23772 0.7038 0.0
H833 H 0.07711 0.21654 0.70382 0.0
H834 H 0.10239 0.24744 0.63583 0.0
H835 H 0.06019 0.2693 0.63549 0.0
C836 C 0.87961 0.23204 0.62408 0.0
C837 C 0.88992 0.23957 0.6018 0.0
C838 C 0.90467 0.23914 0.64052 0.0
C839 C 0.94054 0.25438 0.63502 0.0
C840 C 0.95061 0.25971 0.61268 0.0
C841 C 0.92548 0.25232 0.59617 0.0
C842 C 0.96776 0.26776 0.65262 0.0
C843 C 0.99257 0.25634 0.65322 0.0
C844 C 0.96944 0.29218 0.66865 0.0
C845 C 0.94605 0.30769 0.66785 0.0
C846 C 0.94505 0.32587 0.64892 0.0
C847 C 0.92298 0.34043 0.64827 0.0
C848 C 0.90201 0.33727 0.66654 0.0
C849 C 0.90314 0.31962 0.68552 0.0
C850 C 0.92512 0.30494 0.68623 0.0
C851 C 0.11106 0.3522 0.70935 0.0
C852 C 0.10347 0.35129 0.73203 0.0
C853 C 0.0843 0.33165 0.69432 0.0
C854 C 0.04954 0.31 0.70173 0.0
C855 C 0.04217 0.30792 0.72443 0.0
C856 C 0.06895 0.32818 0.7395 0.0
C857 C 0.02038 0.29284 0.68559 0.0
C858 C 0.99533 0.30388 0.68513 0.0
C859 C 0.01895 0.2686 0.66956 0.0
C860 C 0.04432 0.25543 0.66969 0.0
C861 C 0.04928 0.2403 0.68891 0.0
C862 C 0.07336 0.2281 0.68896 0.0
C863 C 0.09251 0.23072 0.66985 0.0
C864 C 0.08756 0.24546 0.65063 0.0
C865 C 0.06353 0.25772 0.65049 0.0
H866 H 0.11113 0.22126 0.66993 0.0
H867 H 0.88496 0.3486 0.66601 0.0
H868 H 0.67856 0.93683 0.91401 0.0
H869 H 0.71167 0.98044 0.94271 0.0
H870 H 0.65694 0.90161 0.99305 0.0
H871 H 0.62348 0.85802 0.96455 0.0
H872 H 0.65278 0.9597 0.00041 0.0
H873 H 0.74459 0.93405 0.98323 0.0
H874 H 0.7857 0.92644 0.95903 0.0
H875 H 0.83386 0.03503 0.93902 0.0
H876 H 0.7927 0.04318 0.96287 0.0
H877 H 0.74289 0.06605 0.09115 0.0
H878 H 0.7278 0.01917 0.06402 0.0
H879 H 0.76933 0.09649 0.01168 0.0
H880 H 0.7843 0.14365 0.03868 0.0
H881 H 0.78255 0.03818 0.00633 0.0
H882 H 0.68891 0.0628 0.0202 0.0
H883 H 0.64782 0.07193 0.04342 0.0
H884 H 0.60218 0.96588 0.068 0.0
H885 H 0.64376 0.95645 0.04538 0.0
C886 C 0.674 0.92862 0.93117 0.0
C887 C 0.64818 0.89404 0.93701 0.0
C888 C 0.69306 0.95354 0.94756 0.0
C889 C 0.6868 0.94422 0.97001 0.0
C890 C 0.66211 0.90935 0.97582 0.0
C891 C 0.64303 0.88447 0.95949 0.0
C892 C 0.70346 0.97146 0.98747 0.0
C893 C 0.68118 0.97634 0.00197 0.0
C894 C 0.74048 0.99392 0.98902 0.0
C895 C 0.76534 0.98913 0.9747 0.0
C896 C 0.76375 0.95624 0.97353 0.0
C897 C 0.78711 0.95184 0.9599 0.0
C898 C 0.81232 0.98021 0.94745 0.0
C899 C 0.81429 0.01307 0.94866 0.0
C900 C 0.79098 0.0176 0.96225 0.0
C901 C 0.74959 0.07321 0.07395 0.0
C902 C 0.76435 0.10849 0.06699 0.0
C903 C 0.74095 0.04639 0.05849 0.0
C904 C 0.74718 0.05446 0.03589 0.0
C905 C 0.76438 0.08984 0.02908 0.0
C906 C 0.77269 0.11668 0.0445 0.0
C907 C 0.7318 0.02591 0.01926 0.0
C908 C 0.7542 0.02107 0.00488 0.0
C909 C 0.69483 0.00353 0.01764 0.0
C910 C 0.6698 0.00909 0.03133 0.0
C911 C 0.67045 0.04158 0.03078 0.0
C912 C 0.64706 0.04681 0.04382 0.0
C913 C 0.62253 0.01958 0.05726 0.0
C914 C 0.62134 0.98703 0.05769 0.0
C915 C 0.64485 0.98174 0.04477 0.0
H916 H 0.60433 0.02368 0.06722 0.0
H917 H 0.83038 0.97675 0.93691 0.0
H918 H 0.67157 0.73466 0.41657 0.0
H919 H 0.70502 0.72508 0.38776 0.0
H920 H 0.65933 0.7615 0.33838 0.0
H921 H 0.62503 0.77021 0.36704 0.0
H922 H 0.65304 0.70158 0.32614 0.0
H923 H 0.74825 0.81017 0.35309 0.0
H924 H 0.78813 0.85249 0.38097 0.0
H925 H 0.82441 0.78093 0.3988 0.0
H926 H 0.78437 0.73793 0.37123 0.0
H927 H 0.75041 0.68507 0.23939 0.0
H928 H 0.73521 0.71699 0.26634 0.0
H929 H 0.76202 0.66911 0.31964 0.0
H930 H 0.77739 0.63709 0.29283 0.0
H931 H 0.7808 0.74039 0.32791 0.0
H932 H 0.68059 0.62999 0.30355 0.0
H933 H 0.6412 0.58813 0.27526 0.0
H934 H 0.61478 0.66497 0.25231 0.0
H935 H 0.65448 0.70752 0.28025 0.0
C936 C 0.66907 0.74118 0.39962 0.0
C937 C 0.64553 0.75303 0.39406 0.0
C938 C 0.68836 0.73585 0.38316 0.0
C939 C 0.68491 0.74283 0.3609 0.0
C940 C 0.66238 0.75589 0.35544 0.0
C941 C 0.64283 0.7609 0.37185 0.0
C942 C 0.70237 0.73362 0.34316 0.0
C943 C 0.68113 0.71075 0.32631 0.0
C944 C 0.73888 0.74488 0.34362 0.0
C945 C 0.76308 0.7707 0.3602 0.0
C946 C 0.76453 0.80333 0.36307 0.0
C947 C 0.78721 0.82747 0.3788 0.0
C948 C 0.80874 0.81938 0.39168 0.0
C949 C 0.8077 0.78715 0.38882 0.0
C950 C 0.78505 0.76291 0.37312 0.0
C951 C 0.75387 0.68192 0.25682 0.0
C952 C 0.76461 0.65815 0.26399 0.0
C953 C 0.74514 0.70016 0.27218 0.0
C954 C 0.74705 0.69495 0.29492 0.0
C955 C 0.76034 0.67339 0.30213 0.0
C956 C 0.76894 0.655 0.28678 0.0
C957 C 0.73141 0.70856 0.3111 0.0
C958 C 0.75287 0.73189 0.32766 0.0
C959 C 0.69509 0.69785 0.3104 0.0
C960 C 0.67081 0.67208 0.29382 0.0
C961 C 0.66659 0.63806 0.29236 0.0
C962 C 0.64419 0.61419 0.2764 0.0
C963 C 0.62559 0.62393 0.26195 0.0
C964 C 0.62926 0.6575 0.26349 0.0
C965 C 0.6517 0.68149 0.27938 0.0
H966 H 0.60826 0.60544 0.24962 0.0
H967 H 0.82628 0.8381 0.40385 0.0
H968 H 0.06262 0.73326 0.58187 0.0
H969 H 0.01843 0.72175 0.6103 0.0
H970 H 0.09917 0.75795 0.66058 0.0
H971 H 0.14331 0.76865 0.63231 0.0
H972 H 0.04602 0.69662 0.67161 0.0
H973 H 0.05769 0.80544 0.64612 0.0
H974 H 0.05959 0.8481 0.6187 0.0
H975 H 0.95251 0.77534 0.59997 0.0
H976 H 0.95011 0.73201 0.62707 0.0
H977 H 0.9316 0.67712 0.75872 0.0
H978 H 0.97857 0.70943 0.73174 0.0
H979 H 0.90367 0.66207 0.6785 0.0
H980 H 0.85643 0.62964 0.70533 0.0
H981 H 0.95566 0.73361 0.67057 0.0
H982 H 0.94669 0.62339 0.6934 0.0
H983 H 0.94428 0.58071 0.72102 0.0
H984 H 0.0472 0.6572 0.74467 0.0
H985 H 0.04995 0.70057 0.71742 0.0
C986 C 0.07107 0.73935 0.59893 0.0
C987 C 0.10642 0.75168 0.60486 0.0
C988 C 0.04579 0.73289 0.61518 0.0
C989 C 0.05551 0.73918 0.63759 0.0
C990 C 0.09106 0.75283 0.64341 0.0
C991 C 0.11626 0.75898 0.62722 0.0
C992 C 0.02826 0.72868 0.65509 0.0
C993 C 0.02677 0.70537 0.6716 0.0
C994 C 0.00253 0.73931 0.65479 0.0
C995 C 0.00383 0.76536 0.63852 0.0
C996 C 0.03463 0.79842 0.63604 0.0
C997 C 0.03578 0.82274 0.62058 0.0
C998 C 0.00622 0.81441 0.60757 0.0
C999 C 0.9754 0.78175 0.61005 0.0
C1000 C 0.97412 0.75732 0.62548 0.0
C1001 C 0.92492 0.67412 0.7413 0.0
C1002 C 0.89038 0.65043 0.73414 0.0
C1003 C 0.95181 0.69259 0.72592 0.0
C1004 C 0.94459 0.68771 0.70317 0.0
C1005 C 0.90972 0.66611 0.696 0.0
C1006 C 0.88282 0.64748 0.71136 0.0
C1007 C 0.97378 0.70188 0.68693 0.0
C1008 C 0.97539 0.72549 0.67065 0.0
C1009 C 0.99972 0.6916 0.68738 0.0
C1010 C 0.99835 0.66536 0.70354 0.0
C1011 C 0.96869 0.6312 0.7046 0.0
C1012 C 0.96727 0.60687 0.72018 0.0
C1013 C 0.99552 0.61627 0.73464 0.0
C1014 C 0.0253 0.64998 0.73349 0.0
C1015 C 0.02681 0.67444 0.71798 0.0
H1016 H 0.99435 0.5974 0.7467 0.0
H1017 H 0.00716 0.83327 0.5956 0.0
H1018 H 0.27011 0.93886 0.08274 0.0
H1019 H 0.27693 0.98122 0.05421 0.0
H1020 H 0.23677 0.89822 0.00524 0.0
H1021 H 0.23106 0.85586 0.03365 0.0
H1022 H 0.29325 0.95195 0.99025 0.0
H1023 H 0.18835 0.93792 0.02349 0.0
H1024 H 0.14903 0.93485 0.05371 0.0
H1025 H 0.22169 0.04281 0.07078 0.0
H1026 H 0.26171 0.0464 0.04085 0.0
H1027 H 0.30737 0.06962 0.90789 0.0
H1028 H 0.27278 0.02234 0.93421 0.0
H1029 H 0.32751 0.09283 0.98845 0.0
H1030 H 0.36206 0.1404 0.96232 0.0
H1031 H 0.2553 0.04114 0.99791 0.0
H1032 H 0.36253 0.05079 0.96654 0.0
H1033 H 0.39837 0.05495 0.93394 0.0
H1034 H 0.31746 0.95256 0.91228 0.0
H1035 H 0.28052 0.94838 0.94432 0.0
C1036 C 0.26227 0.9295 0.06595 0.0
C1037 C 0.2501 0.89403 0.06043 0.0
C1038 C 0.266 0.95374 0.04965 0.0
C1039 C 0.25693 0.94286 0.02758 0.0
C1040 C 0.24391 0.90723 0.02215 0.0
C1041 C 0.24061 0.88305 0.0384 0.0
C1042 C 0.26353 0.96919 0.01001 0.0
C1043 C 0.28422 0.97089 0.99175 0.0
C1044 C 0.25221 0.99431 0.01201 0.0
C1045 C 0.22816 0.99234 0.03 0.0
C1046 C 0.19608 0.96094 0.03378 0.0
C1047 C 0.17364 0.95912 0.05085 0.0
C1048 C 0.18289 0.9886 0.06418 0.0
C1049 C 0.21457 0.01999 0.06044 0.0
C1050 C 0.23711 0.02195 0.04341 0.0
C1051 C 0.31139 0.0754 0.92543 0.0
C1052 C 0.33805 0.10851 0.93303 0.0
C1053 C 0.29149 0.04837 0.94043 0.0
C1054 C 0.29811 0.05403 0.9632 0.0
C1055 C 0.32213 0.08799 0.97091 0.0
C1056 C 0.34204 0.11506 0.95593 0.0
C1057 C 0.28501 0.02376 0.97854 0.0
C1058 C 0.26352 0.02158 0.99636 0.0
C1059 C 0.29532 0.99799 0.97609 0.0
C1060 C 0.31856 0.99947 0.95768 0.0
C1061 C 0.35228 0.02925 0.95476 0.0
C1062 C 0.3727 0.03171 0.93631 0.0
C1063 C 0.36011 0.00412 0.92099 0.0
C1064 C 0.32713 0.97396 0.92413 0.0
C1065 C 0.30637 0.97158 0.94239 0.0
H1066 H 0.37597 0.00607 0.90673 0.0
H1067 H 0.16548 0.98713 0.07739 0.0
H1068 H 0.85349 0.17411 0.17352 0.0
H1069 H 0.91582 0.20433 0.18414 0.0
H1070 H 0.94244 0.26957 0.12581 0.0
H1071 H 0.88026 0.23982 0.11516 0.0
H1072 H 0.97485 0.21161 0.16424 0.0
H1073 H 0.00794 0.35254 0.1392 0.0
H1074 H 0.97789 0.3873 0.13535 0.0
H1075 H 0.90127 0.32203 0.18397 0.0
H1076 H 0.93115 0.28724 0.18833 0.0
H1077 H 0.16117 0.32946 0.16268 0.0
H1078 H 0.09846 0.29609 0.153 0.0
H1079 H 0.0734 0.33827 0.21028 0.0
H1080 H 0.13591 0.37186 0.21999 0.0
H1081 H 0.03933 0.34173 0.17422 0.0
H1082 H 0.05733 0.2545 0.21049 0.0
H1083 H 0.08602 0.21907 0.21712 0.0
H1084 H 0.0582 0.17581 0.1516 0.0
H1085 H 0.02975 0.21138 0.14446 0.0
C1086 C 0.87261 0.19482 0.16291 0.0
C1087 C 0.86184 0.2047 0.14356 0.0
C1088 C 0.90823 0.21196 0.16896 0.0
C1089 C 0.9337 0.23942 0.15588 0.0
C1090 C 0.92316 0.24877 0.1363 0.0
C1091 C 0.88758 0.23165 0.13022 0.0
C1092 C 0.97118 0.2589 0.16298 0.0
C1093 C 0.98899 0.24006 0.16638 0.0
C1094 C 0.98945 0.29595 0.16612 0.0
C1095 C 0.9716 0.31708 0.16391 0.0
C1096 C 0.98477 0.34572 0.14913 0.0
C1097 C 0.96775 0.3654 0.14685 0.0
C1098 C 0.93762 0.3568 0.15935 0.0
C1099 C 0.92453 0.32858 0.17423 0.0
C1100 C 0.94148 0.30885 0.1766 0.0
C1101 C 0.14232 0.33158 0.17324 0.0
C1102 C 0.15357 0.35331 0.19213 0.0
C1103 C 0.10648 0.3124 0.16773 0.0
C1104 C 0.08125 0.31453 0.181 0.0
C1105 C 0.09243 0.33627 0.19979 0.0
C1106 C 0.12819 0.35536 0.20536 0.0
C1107 C 0.0432 0.29452 0.17519 0.0
C1108 C 0.02527 0.31329 0.172 0.0
C1109 C 0.02471 0.25735 0.17261 0.0
C1110 C 0.04172 0.23587 0.17687 0.0
C1111 C 0.05758 0.23765 0.19743 0.0
C1112 C 0.07375 0.2175 0.20129 0.0
C1113 C 0.07402 0.19527 0.18477 0.0
C1114 C 0.05802 0.19308 0.16437 0.0
C1115 C 0.04184 0.2132 0.16041 0.0
H1116 H 0.08655 0.17969 0.1878 0.0
H1117 H 0.92446 0.37205 0.15754 0.0
H1118 H 0.83863 0.14661 0.50206 0.0
H1119 H 0.80812 0.08419 0.49171 0.0
H1120 H 0.71868 0.06608 0.53159 0.0
H1121 H 0.74973 0.1281 0.54274 0.0
H1122 H 0.72846 0.01397 0.53713 0.0
H1123 H 0.7205 0.07361 0.47305 0.0
H1124 H 0.74248 0.11748 0.44288 0.0
H1125 H 0.80428 0.07387 0.41755 0.0
H1126 H 0.78301 0.03001 0.44775 0.0
H1127 H 0.62254 0.86575 0.4499 0.0
H1128 H 0.65352 0.92787 0.46078 0.0
H1129 H 0.71642 0.90751 0.507 0.0
H1130 H 0.6847 0.84507 0.49671 0.0
H1131 H 0.71779 0.97878 0.45823 0.0
H1132 H 0.73757 0.9612 0.55142 0.0
H1133 H 0.70783 0.91755 0.58119 0.0
H1134 H 0.60859 0.8773 0.54755 0.0
H1135 H 0.63763 0.92099 0.51774 0.0
C1136 C 0.81248 0.12929 0.50865 0.0
C1137 C 0.79654 0.14231 0.52317 0.0
C1138 C 0.79496 0.09361 0.50263 0.0
C1139 C 0.76077 0.0704 0.51054 0.0
C1140 C 0.74501 0.08335 0.52524 0.0
C1141 C 0.76277 0.11887 0.53158 0.0
C1142 C 0.74136 0.03266 0.50354 0.0
C1143 C 0.7262 0.00634 0.51987 0.0
C1144 C 0.73764 0.02249 0.481 0.0
C1145 C 0.75042 0.04875 0.46278 0.0
C1146 C 0.73896 0.07354 0.46113 0.0
C1147 C 0.75127 0.09837 0.44402 0.0
C1148 C 0.77483 0.09852 0.42834 0.0
C1149 C 0.78607 0.07375 0.42972 0.0
C1150 C 0.77387 0.04888 0.44682 0.0
C1151 C 0.64299 0.87448 0.46238 0.0
C1152 C 0.651 0.85039 0.47253 0.0
C1153 C 0.66076 0.91006 0.46855 0.0
C1154 C 0.68705 0.92241 0.48492 0.0
C1155 C 0.69574 0.89856 0.49467 0.0
C1156 C 0.67769 0.86286 0.48869 0.0
C1157 C 0.70516 0.96016 0.49182 0.0
C1158 C 0.72015 0.98645 0.47549 0.0
C1159 C 0.70764 0.97033 0.5143 0.0
C1160 C 0.68988 0.94412 0.53224 0.0
C1161 C 0.70939 0.9431 0.55042 0.0
C1162 C 0.69265 0.91834 0.56729 0.0
C1163 C 0.65637 0.89458 0.56622 0.0
C1164 C 0.63671 0.89562 0.54831 0.0
C1165 C 0.65331 0.92034 0.53141 0.0
H1166 H 0.64347 0.87542 0.5793 0.0
H1167 H 0.78433 0.11776 0.41511 0.0
H1168 H 0.80778 0.65572 0.84628 0.0
H1169 H 0.7792 0.68989 0.85609 0.0
H1170 H 0.75348 0.6924 0.78752 0.0
H1171 H 0.78119 0.65743 0.77761 0.0
H1172 H 0.78614 0.76118 0.81323 0.0
H1173 H 0.69012 0.64004 0.81405 0.0
H1174 H 0.66009 0.57748 0.8251 0.0
H1175 H 0.66807 0.60742 0.89347 0.0
H1176 H 0.6986 0.67033 0.88277 0.0
H1177 H 0.66372 0.82217 0.82403 0.0
H1178 H 0.69631 0.79223 0.81411 0.0
H1179 H 0.68888 0.75688 0.88162 0.0
H1180 H 0.6549 0.78542 0.89134 0.0
H1181 H 0.67463 0.70516 0.85633 0.0
H1182 H 0.76819 0.82522 0.85718 0.0
H1183 H 0.79927 0.88855 0.84767 0.0
H1184 H 0.79939 0.86305 0.77907 0.0
H1185 H 0.76788 0.79951 0.78813 0.0
C1186 C 0.79613 0.66364 0.83328 0.0
C1187 C 0.79664 0.65384 0.81118 0.0
C1188 C 0.77981 0.68308 0.83891 0.0
C1189 C 0.7643 0.69359 0.8225 0.0
C1190 C 0.7654 0.68454 0.80038 0.0
C1191 C 0.78107 0.66446 0.79478 0.0
C1192 C 0.74622 0.71337 0.82857 0.0
C1193 C 0.76154 0.74897 0.82244 0.0
C1194 C 0.71479 0.69758 0.84114 0.0
C1195 C 0.69701 0.65986 0.84762 0.0
C1196 C 0.68585 0.6333 0.83145 0.0
C1197 C 0.66863 0.59776 0.83766 0.0
C1198 C 0.66223 0.58843 0.86 0.0
C1199 C 0.67308 0.61467 0.87617 0.0
C1200 C 0.69032 0.65028 0.87005 0.0
C1201 C 0.66927 0.80822 0.83678 0.0
C1202 C 0.65673 0.80613 0.85847 0.0
C1203 C 0.68811 0.79126 0.83113 0.0
C1204 C 0.69557 0.77262 0.84716 0.0
C1205 C 0.68346 0.77101 0.86891 0.0
C1206 C 0.66409 0.7874 0.87447 0.0
C1207 C 0.71448 0.75341 0.84112 0.0
C1208 C 0.69932 0.71773 0.84723 0.0
C1209 C 0.7464 0.76939 0.82884 0.0
C1210 C 0.76536 0.80758 0.82332 0.0
C1211 C 0.7746 0.8331 0.84004 0.0
C1212 C 0.79234 0.86904 0.83474 0.0
C1213 C 0.80122 0.87981 0.81277 0.0
C1214 C 0.79246 0.85466 0.79607 0.0
C1215 C 0.77469 0.81869 0.80129 0.0
H1216 H 0.81495 0.90765 0.80869 0.0
H1217 H 0.64874 0.5609 0.86479 0.0
H1218 H 0.85769 0.69458 0.16567 0.0
H1219 H 0.92025 0.72577 0.15566 0.0
H1220 H 0.93633 0.65304 0.19548 0.0
H1221 H 0.87424 0.62291 0.20635 0.0
H1222 H 0.98878 0.71388 0.20154 0.0
H1223 H 0.9305 0.64846 0.13685 0.0
H1224 H 0.88735 0.6272 0.1063 0.0
H1225 H 0.93178 0.73312 0.08166 0.0
H1226 H 0.97494 0.75508 0.11223 0.0
H1227 H 0.13891 0.7593 0.11522 0.0
H1228 H 0.07662 0.72764 0.12554 0.0
H1229 H 0.09572 0.80896 0.17309 0.0
H1230 H 0.15839 0.84027 0.16331 0.0
H1231 H 0.02579 0.74104 0.12305 0.0
H1232 H 0.04182 0.77432 0.2171 0.0
H1233 H 0.08473 0.786 0.24699 0.0
H1234 H 0.12437 0.72773 0.21176 0.0
H1235 H 0.08142 0.71532 0.18183 0.0
C1236 C 0.87461 0.6853 0.17229 0.0
C1237 C 0.86106 0.65627 0.18676 0.0
C1238 C 0.91036 0.70303 0.16647 0.0
C1239 C 0.93305 0.69147 0.1745 0.0
C1240 C 0.91949 0.66257 0.18907 0.0
C1241 C 0.88394 0.64529 0.19524 0.0
C1242 C 0.9709 0.7095 0.16784 0.0
C1243 C 0.9968 0.71981 0.18436 0.0
C1244 C 0.98157 0.71653 0.14539 0.0
C1245 C 0.95573 0.70345 0.12695 0.0
C1246 C 0.93091 0.66725 0.125 0.0
C1247 C 0.90647 0.65507 0.10767 0.0
C1248 C 0.90676 0.67881 0.09208 0.0
C1249 C 0.93156 0.71477 0.09376 0.0
C1250 C 0.95604 0.7271 0.11108 0.0
C1251 C 0.12989 0.7705 0.12787 0.0
C1252 C 0.15367 0.80225 0.13852 0.0
C1253 C 0.0942 0.75239 0.13371 0.0
C1254 C 0.08145 0.76565 0.15027 0.0
C1255 C 0.10501 0.7978 0.16058 0.0
C1256 C 0.14082 0.81577 0.1549 0.0
C1257 C 0.04358 0.74574 0.15677 0.0
C1258 C 0.01771 0.73515 0.14022 0.0
C1259 C 0.0329 0.73711 0.1791 0.0
C1260 C 0.05866 0.74425 0.19712 0.0
C1261 C 0.05963 0.76392 0.21577 0.0
C1262 C 0.08397 0.77068 0.23272 0.0
C1263 C 0.10734 0.75773 0.23124 0.0
C1264 C 0.10635 0.73788 0.21285 0.0
C1265 C 0.08205 0.73102 0.19587 0.0
H1266 H 0.12617 0.763 0.24437 0.0
H1267 H 0.88782 0.66933 0.07868 0.0
H1268 H 0.23706 0.86876 0.55593 0.0
H1269 H 0.26703 0.93151 0.54642 0.0
H1270 H 0.20003 0.90797 0.48917 0.0
H1271 H 0.16962 0.84525 0.4987 0.0
H1272 H 0.30509 0.96607 0.51101 0.0
H1273 H 0.18532 0.97643 0.47977 0.0
H1274 H 0.12132 0.94875 0.48673 0.0
H1275 H 0.13585 0.92174 0.55268 0.0
H1276 H 0.19997 0.94967 0.54622 0.0
H1277 H 0.36372 0.1235 0.44932 0.0
H1278 H 0.33197 0.06183 0.46127 0.0
H1279 H 0.29126 0.0905 0.51772 0.0
H1280 H 0.32258 0.15218 0.50576 0.0
H1281 H 0.24054 0.03113 0.49898 0.0
H1282 H 0.35927 0.07504 0.52369 0.0
H1283 H 0.424 0.10436 0.51983 0.0
H1284 H 0.41288 0.02555 0.473 0.0
H1285 H 0.34803 0.99602 0.47635 0.0
C1286 C 0.22855 0.87692 0.54137 0.0
C1287 C 0.20084 0.85195 0.52811 0.0
C1288 C 0.24582 0.91281 0.53591 0.0
C1289 C 0.23563 0.9245 0.51718 0.0
C1290 C 0.20804 0.89964 0.50389 0.0
C1291 C 0.19074 0.86375 0.50932 0.0
C1292 C 0.25421 0.96263 0.51136 0.0
C1293 C 0.29096 0.98027 0.50837 0.0
C1294 C 0.23589 0.98137 0.50827 0.0
C1295 C 0.1974 0.96484 0.51241 0.0
C1296 C 0.17487 0.9647 0.49578 0.0
C1297 C 0.13857 0.94894 0.49964 0.0
C1298 C 0.12452 0.93339 0.52011 0.0
C1299 C 0.14675 0.93367 0.5368 0.0
C1300 C 0.18307 0.94942 0.53304 0.0
C1301 C 0.34795 0.11671 0.46426 0.0
C1302 C 0.34582 0.14284 0.47663 0.0
C1303 C 0.32991 0.08144 0.4711 0.0
C1304 C 0.30955 0.0716 0.49053 0.0
C1305 C 0.30684 0.09749 0.50269 0.0
C1306 C 0.32487 0.13278 0.49586 0.0
C1307 C 0.29131 0.03435 0.49826 0.0
C1308 C 0.25464 0.01689 0.50158 0.0
C1309 C 0.30979 0.01595 0.50207 0.0
C1310 C 0.34879 0.03351 0.50012 0.0
C1311 C 0.37062 0.0641 0.51245 0.0
C1312 C 0.40733 0.08074 0.51037 0.0
C1313 C 0.42254 0.06687 0.49614 0.0
C1314 C 0.40106 0.03628 0.484 0.0
C1315 C 0.36433 0.01957 0.48599 0.0
H1316 H 0.45096 0.07979 0.49455 0.0
H1317 H 0.09641 0.92119 0.52305 0.0
H1318 H 0.23568 0.36849 0.77714 0.0
H1319 H 0.26528 0.33504 0.78554 0.0
H1320 H 0.20283 0.29458 0.84486 0.0
H1321 H 0.17276 0.32764 0.83646 0.0
H1322 H 0.30574 0.33911 0.81976 0.0
H1323 H 0.18722 0.21089 0.85422 0.0
H1324 H 0.12266 0.17536 0.8493 0.0
H1325 H 0.13259 0.21522 0.78319 0.0
H1326 H 0.19722 0.2506 0.7876 0.0
H1327 H 0.3642 0.23999 0.88074 0.0
H1328 H 0.33289 0.27032 0.86892 0.0
H1329 H 0.29044 0.20022 0.81292 0.0
H1330 H 0.32151 0.16946 0.82471 0.0
H1331 H 0.24029 0.20978 0.83314 0.0
H1332 H 0.35754 0.2823 0.80544 0.0
H1333 H 0.42251 0.31692 0.80761 0.0
H1334 H 0.41588 0.38701 0.85464 0.0
H1335 H 0.35083 0.35249 0.85299 0.0
C1336 C 0.22811 0.35238 0.79194 0.0
C1337 C 0.20177 0.35068 0.8061 0.0
C1338 C 0.24515 0.33336 0.79675 0.0
C1339 C 0.23609 0.3121 0.81573 0.0
C1340 C 0.2099 0.31043 0.82995 0.0
C1341 C 0.19283 0.32946 0.82517 0.0
C1342 C 0.25447 0.29215 0.82081 0.0
C1343 C 0.29141 0.31083 0.82268 0.0
C1344 C 0.23585 0.25516 0.82426 0.0
C1345 C 0.19703 0.23366 0.82134 0.0
C1346 C 0.17563 0.21196 0.8386 0.0
C1347 C 0.13902 0.19187 0.83591 0.0
C1348 C 0.12352 0.19312 0.81597 0.0
C1349 C 0.14461 0.21438 0.79865 0.0
C1350 C 0.18123 0.2345 0.80125 0.0
C1351 C 0.34819 0.23094 0.86591 0.0
C1352 C 0.34547 0.20236 0.85362 0.0
C1353 C 0.3304 0.24841 0.85915 0.0
C1354 C 0.30962 0.23774 0.83993 0.0
C1355 C 0.30638 0.20889 0.82779 0.0
C1356 C 0.32426 0.19143 0.83452 0.0
C1357 C 0.29144 0.25687 0.83248 0.0
C1358 C 0.25457 0.23805 0.83021 0.0
C1359 C 0.31017 0.29365 0.82829 0.0
C1360 C 0.3493 0.31461 0.82923 0.0
C1361 C 0.36993 0.30494 0.81637 0.0
C1362 C 0.40677 0.32457 0.81749 0.0
C1363 C 0.42331 0.3541 0.8313 0.0
C1364 C 0.40303 0.36411 0.84397 0.0
C1365 C 0.36617 0.34454 0.84293 0.0
H1366 H 0.45184 0.36926 0.83214 0.0
H1367 H 0.09518 0.17756 0.81392 0.0
loop_
_geom_bond_atom_site_label_1
_geom_bond_atom_site_label_2
_geom_bond_distance
_geom_bond_site_symmetry_2
_ccdc_geom_bond_type
C0 O2 1.247 . S
C0 O4 1.258 . S
C1 O8 1.247 . S
C1 O9 1.258 . S
O2 C0 1.247 . S
O2 Zn3 2.028 . S
Zn3 O2 2.028 . S
Zn3 O7 2.035 . S
Zn3 O9 2.035 . S
Zn3 O10 2.028 . S
O4 C0 1.258 . S
O4 Zn5 2.035 . S
Zn5 O4 2.035 . S
Zn5 O6 2.028 . S
Zn5 O8 2.028 . S
Zn5 O11 2.035 . S
O6 Zn5 2.028 . S
O6 C12 1.247 . S
O7 Zn3 2.035 . S
O7 C12 1.258 . S
O8 C1 1.247 . S
O8 Zn5 2.028 . S
O9 C1 1.258 . S
O9 Zn3 2.035 . S
O10 Zn3 2.028 . S
O10 C13 1.247 . S
O11 Zn5 2.035 . S
O11 C13 1.258 . S
C12 O6 1.247 . S
C12 O7 1.258 . S
C13 O10 1.247 . S
C13 O11 1.258 . S
C14 O16 1.247 . S
C14 O18 1.258 . S
C15 O22 1.247 . S
C15 O23 1.258 . S
O16 C14 1.247 . S
O16 Zn17 2.028 . S
Zn17 O16 2.028 . S
Zn17 O21 2.035 . S
Zn17 O23 2.035 . S
Zn17 O24 2.028 . S
O18 C14 1.258 . S
O18 Zn19 2.035 . S
Zn19 O18 2.035 . S
Zn19 O20 2.028 . S
Zn19 O22 2.028 . S
Zn19 O25 2.035 . S
O20 Zn19 2.028 . S
O20 C26 1.247 . S
O21 Zn17 2.035 . S
O21 C26 1.258 . S
O22 C15 1.247 . S
O22 Zn19 2.028 . S
O23 C15 1.258 . S
O23 Zn17 2.035 . S
O24 Zn17 2.028 . S
O24 C27 1.247 . S
O25 Zn19 2.035 . S
O25 C27 1.258 . S
C26 O20 1.247 . S
C26 O21 1.258 . S
C27 O24 1.247 . S
C27 O25 1.258 . S
C28 O30 1.247 . S
C28 O32 1.258 . S
C29 O36 1.247 . S
C29 O37 1.258 . S
O30 C28 1.247 . S
O30 Zn31 2.028 . S
Zn31 O30 2.028 . S
Zn31 O35 2.035 . S
Zn31 O37 2.035 . S
Zn31 O38 2.028 . S
O32 C28 1.258 . S
O32 Zn33 2.035 . S
Zn33 O32 2.035 . S
Zn33 O34 2.028 . S
Zn33 O36 2.028 . S
Zn33 O39 2.035 . S
O34 Zn33 2.028 . S
O34 C40 1.247 . S
O35 Zn31 2.035 . S
O35 C40 1.258 . S
O36 C29 1.247 . S
O36 Zn33 2.028 . S
O37 C29 1.258 . S
O37 Zn31 2.035 . S
O38 Zn31 2.028 . S
O38 C41 1.247 . S
O39 Zn33 2.035 . S
O39 C41 1.258 . S
C40 O34 1.247 . S
C40 O35 1.258 . S
C41 O38 1.247 . S
C41 O39 1.258 . S
C42 O44 1.247 . S
C42 O46 1.258 . S
C43 O50 1.247 . S
C43 O51 1.258 . S
O44 C42 1.247 . S
O44 Zn45 2.028 . S
Zn45 O44 2.028 . S
Zn45 O49 2.035 . S
Zn45 O51 2.035 . S
Zn45 O52 2.028 . S
O46 C42 1.258 . S
O46 Zn47 2.035 . S
Zn47 O46 2.035 . S
Zn47 O48 2.028 . S
Zn47 O50 2.028 . S
Zn47 O53 2.035 . S
O48 Zn47 2.028 . S
O48 C54 1.247 . S
O49 Zn45 2.035 . S
O49 C54 1.258 . S
O50 C43 1.247 . S
O50 Zn47 2.028 . S
O51 C43 1.258 . S
O51 Zn45 2.035 . S
O52 Zn45 2.028 . S
O52 C55 1.247 . S
O53 Zn47 2.035 . S
O53 C55 1.258 . S
C54 O48 1.247 . S
C54 O49 1.258 . S
C55 O52 1.247 . S
C55 O53 1.258 . S
C56 O58 1.247 . S
C56 O60 1.258 . S
C57 O64 1.247 . S
C57 O65 1.258 . S
O58 C56 1.247 . S
O58 Zn59 2.028 . S
Zn59 O58 2.028 . S
Zn59 O63 2.035 . S
Zn59 O65 2.035 . S
Zn59 O66 2.028 . S
O60 C56 1.258 . S
O60 Zn61 2.035 . S
Zn61 O60 2.035 . S
Zn61 O62 2.028 . S
Zn61 O64 2.028 . S
Zn61 O67 2.035 . S
O62 Zn61 2.028 . S
O62 C68 1.247 . S
O63 Zn59 2.035 . S
O63 C68 1.258 . S
O64 C57 1.247 . S
O64 Zn61 2.028 . S
O65 C57 1.258 . S
O65 Zn59 2.035 . S
O66 Zn59 2.028 . S
O66 C69 1.247 . S
O67 Zn61 2.035 . S
O67 C69 1.258 . S
C68 O62 1.247 . S
C68 O63 1.258 . S
C69 O66 1.247 . S
C69 O67 1.258 . S
C70 O72 1.247 . S
C70 O74 1.258 . S
C71 O78 1.247 . S
C71 O79 1.258 . S
O72 C70 1.247 . S
O72 Zn73 2.028 . S
Zn73 O72 2.028 . S
Zn73 O77 2.035 . S
Zn73 O79 2.035 . S
Zn73 O80 2.028 . S
O74 C70 1.258 . S
O74 Zn75 2.035 . S
Zn75 O74 2.035 . S
Zn75 O76 2.028 . S
Zn75 O78 2.028 . S
Zn75 O81 2.035 . S
O76 Zn75 2.028 . S
O76 C82 1.247 . S
O77 Zn73 2.035 . S
O77 C82 1.258 . S
O78 C71 1.247 . S
O78 Zn75 2.028 . S
O79 C71 1.258 . S
O79 Zn73 2.035 . S
O80 Zn73 2.028 . S
O80 C83 1.247 . S
O81 Zn75 2.035 . S
O81 C83 1.258 . S
C82 O76 1.247 . S
C82 O77 1.258 . S
C83 O80 1.247 . S
C83 O81 1.258 . S
C84 O86 1.247 . S
C84 O88 1.258 . S
C85 O92 1.247 . S
C85 O93 1.258 . S
O86 C84 1.247 . S
O86 Zn87 2.028 . S
Zn87 O86 2.028 . S
Zn87 O91 2.035 . S
Zn87 O93 2.035 . S
Zn87 O94 2.028 . S
O88 C84 1.258 . S
O88 Zn89 2.035 . S
Zn89 O88 2.035 . S
Zn89 O90 2.028 . S
Zn89 O92 2.028 . S
Zn89 O95 2.035 . S
O90 Zn89 2.028 . S
O90 C96 1.247 . S
O91 Zn87 2.035 . S
O91 C96 1.258 . S
O92 C85 1.247 . S
O92 Zn89 2.028 . S
O93 C85 1.258 . S
O93 Zn87 2.035 . S
O94 Zn87 2.028 . S
O94 C97 1.247 . S
O95 Zn89 2.035 . S
O95 C97 1.258 . S
C96 O90 1.247 . S
C96 O91 1.258 . S
C97 O94 1.247 . S
C97 O95 1.258 . S
C98 O100 1.247 . S
C98 O102 1.258 . S
C99 O106 1.247 . S
C99 O107 1.258 . S
O100 C98 1.247 . S
O100 Zn101 2.028 . S
Zn101 O100 2.028 . S
Zn101 O105 2.035 . S
Zn101 O107 2.035 . S
Zn101 O108 2.028 . S
O102 C98 1.258 . S
O102 Zn103 2.035 . S
Zn103 O102 2.035 . S
Zn103 O104 2.028 . S
Zn103 O106 2.028 . S
Zn103 O109 2.035 . S
O104 Zn103 2.028 . S
O104 C110 1.247 . S
O105 Zn101 2.035 . S
O105 C110 1.258 . S
O106 C99 1.247 . S
O106 Zn103 2.028 . S
O107 C99 1.258 . S
O107 Zn101 2.035 . S
O108 Zn101 2.028 . S
O108 C111 1.247 . S
O109 Zn103 2.035 . S
O109 C111 1.258 . S
C110 O104 1.247 . S
C110 O105 1.258 . S
C111 O108 1.247 . S
C111 O109 1.258 . S
C112 O114 1.247 . S
C112 O116 1.258 . S
C113 O120 1.247 . S
C113 O121 1.258 . S
O114 C112 1.247 . S
O114 Zn115 2.028 . S
Zn115 O114 2.028 . S
Zn115 O119 2.035 . S
Zn115 O121 2.035 . S
Zn115 O122 2.028 . S
O116 C112 1.258 . S
O116 Zn117 2.035 . S
Zn117 O116 2.035 . S
Zn117 O118 2.028 . S
Zn117 O120 2.028 . S
Zn117 O123 2.035 . S
O118 Zn117 2.028 . S
O118 C124 1.247 . S
O119 Zn115 2.035 . S
O119 C124 1.258 . S
O120 C113 1.247 . S
O120 Zn117 2.028 . S
O121 C113 1.258 . S
O121 Zn115 2.035 . S
O122 Zn115 2.028 . S
O122 C125 1.247 . S
O123 Zn117 2.035 . S
O123 C125 1.258 . S
C124 O118 1.247 . S
C124 O119 1.258 . S
C125 O122 1.247 . S
C125 O123 1.258 . S
C126 O128 1.247 . S
C126 O130 1.258 . S
C127 O134 1.247 . S
C127 O135 1.258 . S
O128 C126 1.247 . S
O128 Zn129 2.028 . S
Zn129 O128 2.028 . S
Zn129 O133 2.035 . S
Zn129 O135 2.035 . S
Zn129 O136 2.028 . S
O130 C126 1.258 . S
O130 Zn131 2.035 . S
Zn131 O130 2.035 . S
Zn131 O132 2.028 . S
Zn131 O134 2.028 . S
Zn131 O137 2.035 . S
O132 Zn131 2.028 . S
O132 C138 1.247 . S
O133 Zn129 2.035 . S
O133 C138 1.258 . S
O134 C127 1.247 . S
O134 Zn131 2.028 . S
O135 C127 1.258 . S
O135 Zn129 2.035 . S
O136 Zn129 2.028 . S
O136 C139 1.247 . S
O137 Zn131 2.035 . S
O137 C139 1.258 . S
C138 O132 1.247 . S
C138 O133 1.258 . S
C139 O136 1.247 . S
C139 O137 1.258 . S
C140 O142 1.247 . S
C140 O144 1.258 . S
C141 O148 1.247 . S
C141 O149 1.258 . S
O142 C140 1.247 . S
O142 Zn143 2.028 . S
Zn143 O142 2.028 . S
Zn143 O147 2.035 . S
Zn143 O149 2.035 . S
Zn143 O150 2.028 . S
O144 C140 1.258 . S
O144 Zn145 2.035 . S
Zn145 O144 2.035 . S
Zn145 O146 2.028 . S
Zn145 O148 2.028 . S
Zn145 O151 2.035 . S
O146 Zn145 2.028 . S
O146 C152 1.247 . S
O147 Zn143 2.035 . S
O147 C152 1.258 . S
O148 C141 1.247 . S
O148 Zn145 2.028 . S
O149 C141 1.258 . S
O149 Zn143 2.035 . S
O150 Zn143 2.028 . S
O150 C153 1.247 . S
O151 Zn145 2.035 . S
O151 C153 1.258 . S
C152 O146 1.247 . S
C152 O147 1.258 . S
C153 O150 1.247 . S
C153 O151 1.258 . S
C154 O156 1.247 . S
C154 O158 1.258 . S
C155 O162 1.247 . S
C155 O163 1.258 . S
O156 C154 1.247 . S
O156 Zn157 2.028 . S
Zn157 O156 2.028 . S
Zn157 O161 2.035 . S
Zn157 O163 2.035 . S
Zn157 O164 2.028 . S
O158 C154 1.258 . S
O158 Zn159 2.035 . S
Zn159 O158 2.035 . S
Zn159 O160 2.028 . S
Zn159 O162 2.028 . S
Zn159 O165 2.035 . S
O160 Zn159 2.028 . S
O160 C166 1.247 . S
O161 Zn157 2.035 . S
O161 C166 1.258 . S
O162 C155 1.247 . S
O162 Zn159 2.028 . S
O163 C155 1.258 . S
O163 Zn157 2.035 . S
O164 Zn157 2.028 . S
O164 C167 1.247 . S
O165 Zn159 2.035 . S
O165 C167 1.258 . S
C166 O160 1.247 . S
C166 O161 1.258 . S
C167 O164 1.247 . S
C167 O165 1.258 . S
H168 C186 0.951 . S
H169 C188 0.951 . S
H170 C190 0.950 . S
H171 C191 0.950 . S
H172 C193 0.950 . S
H173 C196 0.950 . S
H174 C197 0.950 . S
H175 C199 0.950 . S
H176 C200 0.950 . S
H177 C201 0.951 . S
H178 C203 0.951 . S
H179 C205 0.950 . S
H180 C206 0.950 . S
H181 C208 0.950 . S
H182 C211 0.950 . S
H183 C212 0.950 . S
H184 C214 0.950 . S
H185 C215 0.950 . S
C186 H168 0.951 . S
C186 C187 1.366 . S
C186 C188 1.388 . S
C187 C186 1.366 . S
C187 C191 1.385 . S
C188 H169 0.951 . S
C188 C186 1.388 . S
C188 C189 1.366 . S
C189 C188 1.366 . S
C189 C190 1.414 . S
C189 C192 1.499 . S
C190 H170 0.950 . S
C190 C189 1.414 . S
C190 C191 1.374 . S
C191 H171 0.950 . S
C191 C187 1.385 . S
C191 C190 1.374 . S
C192 C189 1.499 . S
C192 C193 1.373 . S
C192 C194 1.389 . S
C193 H172 0.950 . S
C193 C192 1.373 . S
C193 C209 1.377 . S
C194 C192 1.389 . S
C194 C195 1.524 . S
C194 C208 1.377 . S
C195 C194 1.524 . S
C195 C196 1.397 . S
C195 C200 1.363 . S
C196 H173 0.950 . S
C196 C195 1.397 . S
C196 C197 1.334 . S
C197 H174 0.950 . S
C197 C196 1.334 . S
C197 C198 1.287 . S
C198 C197 1.287 . S
C198 C199 1.524 . S
C198 H217 0.913 . S
C199 H175 0.950 . S
C199 C198 1.524 . S
C199 C200 1.415 . S
C200 H176 0.950 . S
C200 C195 1.363 . S
C200 C199 1.415 . S
C201 H177 0.951 . S
C201 C202 1.366 . S
C201 C203 1.388 . S
C202 C201 1.366 . S
C202 C206 1.385 . S
C203 H178 0.951 . S
C203 C201 1.388 . S
C203 C204 1.366 . S
C204 C203 1.366 . S
C204 C205 1.414 . S
C204 C207 1.499 . S
C205 H179 0.950 . S
C205 C204 1.414 . S
C205 C206 1.374 . S
C206 H180 0.950 . S
C206 C202 1.385 . S
C206 C205 1.374 . S
C207 C204 1.499 . S
C207 C208 1.373 . S
C207 C209 1.389 . S
C208 H181 0.950 . S
C208 C194 1.377 . S
C208 C207 1.373 . S
C209 C193 1.377 . S
C209 C207 1.389 . S
C209 C210 1.524 . S
C210 C209 1.524 . S
C210 C211 1.397 . S
C210 C215 1.363 . S
C211 H182 0.950 . S
C211 C210 1.397 . S
C211 C212 1.334 . S
C212 H183 0.950 . S
C212 C211 1.334 . S
C212 C213 1.287 . S
C213 C212 1.287 . S
C213 C214 1.524 . S
C213 H216 0.999 . S
C214 H184 0.950 . S
C214 C213 1.524 . S
C214 C215 1.415 . S
C215 H185 0.950 . S
C215 C210 1.363 . S
C215 C214 1.415 . S
H216 C213 0.999 . S
H217 C198 0.913 . S
H218 C236 0.951 . S
H219 C238 0.951 . S
H220 C240 0.950 . S
H221 C241 0.950 . S
H222 C243 0.950 . S
H223 C246 0.950 . S
H224 C247 0.950 . S
H225 C249 0.950 . S
H226 C250 0.950 . S
H227 C251 0.951 . S
H228 C253 0.951 . S
H229 C255 0.950 . S
H230 C256 0.950 . S
H231 C258 0.950 . S
H232 C261 0.950 . S
H233 C262 0.950 . S
H234 C264 0.950 . S
H235 C265 0.950 . S
C236 H218 0.951 . S
C236 C237 1.366 . S
C236 C238 1.388 . S
C237 C236 1.366 . S
C237 C241 1.385 . S
C238 H219 0.951 . S
C238 C236 1.388 . S
C238 C239 1.366 . S
C239 C238 1.366 . S
C239 C240 1.414 . S
C239 C242 1.499 . S
C240 H220 0.950 . S
C240 C239 1.414 . S
C240 C241 1.374 . S
C241 H221 0.950 . S
C241 C237 1.385 . S
C241 C240 1.374 . S
C242 C239 1.499 . S
C242 C243 1.373 . S
C242 C244 1.389 . S
C243 H222 0.950 . S
C243 C242 1.373 . S
C243 C259 1.377 . S
C244 C242 1.389 . S
C244 C245 1.524 . S
C244 C258 1.377 . S
C245 C244 1.524 . S
C245 C246 1.397 . S
C245 C250 1.363 . S
C246 H223 0.950 . S
C246 C245 1.397 . S
C246 C247 1.334 . S
C247 H224 0.950 . S
C247 C246 1.334 . S
C247 C248 1.287 . S
C248 C247 1.287 . S
C248 C249 1.524 . S
C248 H267 0.913 . S
C249 H225 0.950 . S
C249 C248 1.524 . S
C249 C250 1.415 . S
C250 H226 0.950 . S
C250 C245 1.363 . S
C250 C249 1.415 . S
C251 H227 0.951 . S
C251 C252 1.366 . S
C251 C253 1.388 . S
C252 C251 1.366 . S
C252 C256 1.385 . S
C253 H228 0.951 . S
C253 C251 1.388 . S
C253 C254 1.366 . S
C254 C253 1.366 . S
C254 C255 1.414 . S
C254 C257 1.499 . S
C255 H229 0.950 . S
C255 C254 1.414 . S
C255 C256 1.374 . S
C256 H230 0.950 . S
C256 C252 1.385 . S
C256 C255 1.374 . S
C257 C254 1.499 . S
C257 C258 1.373 . S
C257 C259 1.389 . S
C258 H231 0.950 . S
C258 C244 1.377 . S
C258 C257 1.373 . S
C259 C243 1.377 . S
C259 C257 1.389 . S
C259 C260 1.524 . S
C260 C259 1.524 . S
C260 C261 1.397 . S
C260 C265 1.363 . S
C261 H232 0.950 . S
C261 C260 1.397 . S
C261 C262 1.334 . S
C262 H233 0.950 . S
C262 C261 1.334 . S
C262 C263 1.287 . S
C263 C262 1.287 . S
C263 C264 1.524 . S
C263 H266 0.999 . S
C264 H234 0.950 . S
C264 C263 1.524 . S
C264 C265 1.415 . S
C265 H235 0.950 . S
C265 C260 1.363 . S
C265 C264 1.415 . S
H266 C263 0.999 . S
H267 C248 0.913 . S
H268 C286 0.951 . S
H269 C288 0.951 . S
H270 C290 0.950 . S
H271 C291 0.950 . S
H272 C293 0.950 . S
H273 C296 0.950 . S
H274 C297 0.950 . S
H275 C299 0.950 . S
H276 C300 0.950 . S
H277 C301 0.951 . S
H278 C303 0.951 . S
H279 C305 0.950 . S
H280 C306 0.950 . S
H281 C308 0.950 . S
H282 C311 0.950 . S
H283 C312 0.950 . S
H284 C314 0.950 . S
H285 C315 0.950 . S
C286 H268 0.951 . S
C286 C287 1.366 . S
C286 C288 1.388 . S
C287 C286 1.366 . S
C287 C291 1.385 . S
C288 H269 0.951 . S
C288 C286 1.388 . S
C288 C289 1.366 . S
C289 C288 1.366 . S
C289 C290 1.414 . S
C289 C292 1.499 . S
C290 H270 0.950 . S
C290 C289 1.414 . S
C290 C291 1.374 . S
C291 H271 0.950 . S
C291 C287 1.385 . S
C291 C290 1.374 . S
C292 C289 1.499 . S
C292 C293 1.373 . S
C292 C294 1.389 . S
C293 H272 0.950 . S
C293 C292 1.373 . S
C293 C309 1.377 . S
C294 C292 1.389 . S
C294 C295 1.524 . S
C294 C308 1.377 . S
C295 C294 1.524 . S
C295 C296 1.397 . S
C295 C300 1.363 . S
C296 H273 0.950 . S
C296 C295 1.397 . S
C296 C297 1.334 . S
C297 H274 0.950 . S
C297 C296 1.334 . S
C297 C298 1.287 . S
C298 C297 1.287 . S
C298 C299 1.524 . S
C298 H317 0.913 . S
C299 H275 0.950 . S
C299 C298 1.524 . S
C299 C300 1.415 . S
C300 H276 0.950 . S
C300 C295 1.363 . S
C300 C299 1.415 . S
C301 H277 0.951 . S
C301 C302 1.366 . S
C301 C303 1.388 . S
C302 C301 1.366 . S
C302 C306 1.385 . S
C303 H278 0.951 . S
C303 C301 1.388 . S
C303 C304 1.366 . S
C304 C303 1.366 . S
C304 C305 1.414 . S
C304 C307 1.499 . S
C305 H279 0.950 . S
C305 C304 1.414 . S
C305 C306 1.374 . S
C306 H280 0.950 . S
C306 C302 1.385 . S
C306 C305 1.374 . S
C307 C304 1.499 . S
C307 C308 1.373 . S
C307 C309 1.389 . S
C308 H281 0.950 . S
C308 C294 1.377 . S
C308 C307 1.373 . S
C309 C293 1.377 . S
C309 C307 1.389 . S
C309 C310 1.524 . S
C310 C309 1.524 . S
C310 C311 1.397 . S
C310 C315 1.363 . S
C311 H282 0.950 . S
C311 C310 1.397 . S
C311 C312 1.334 . S
C312 H283 0.950 . S
C312 C311 1.334 . S
C312 C313 1.287 . S
C313 C312 1.287 . S
C313 C314 1.524 . S
C313 H316 0.999 . S
C314 H284 0.950 . S
C314 C313 1.524 . S
C314 C315 1.415 . S
C315 H285 0.950 . S
C315 C310 1.363 . S
C315 C314 1.415 . S
H316 C313 0.999 . S
H317 C298 0.913 . S
H318 C336 0.951 . S
H319 C338 0.951 . S
H320 C340 0.950 . S
H321 C341 0.950 . S
H322 C343 0.950 . S
H323 C346 0.950 . S
H324 C347 0.950 . S
H325 C349 0.950 . S
H326 C350 0.950 . S
H327 C351 0.951 . S
H328 C353 0.951 . S
H329 C355 0.950 . S
H330 C356 0.950 . S
H331 C358 0.950 . S
H332 C361 0.950 . S
H333 C362 0.950 . S
H334 C364 0.950 . S
H335 C365 0.950 . S
C336 H318 0.951 . S
C336 C337 1.366 . S
C336 C338 1.388 . S
C337 C336 1.366 . S
C337 C341 1.385 . S
C338 H319 0.951 . S
C338 C336 1.388 . S
C338 C339 1.366 . S
C339 C338 1.366 . S
C339 C340 1.414 . S
C339 C342 1.499 . S
C340 H320 0.950 . S
C340 C339 1.414 . S
C340 C341 1.374 . S
C341 H321 0.950 . S
C341 C337 1.385 . S
C341 C340 1.374 . S
C342 C339 1.499 . S
C342 C343 1.373 . S
C342 C344 1.389 . S
C343 H322 0.950 . S
C343 C342 1.373 . S
C343 C359 1.377 . S
C344 C342 1.389 . S
C344 C345 1.524 . S
C344 C358 1.377 . S
C345 C344 1.524 . S
C345 C346 1.397 . S
C345 C350 1.363 . S
C346 H323 0.950 . S
C346 C345 1.397 . S
C346 C347 1.334 . S
C347 H324 0.950 . S
C347 C346 1.334 . S
C347 C348 1.287 . S
C348 C347 1.287 . S
C348 C349 1.524 . S
C348 H367 0.913 . S
C349 H325 0.950 . S
C349 C348 1.524 . S
C349 C350 1.415 . S
C350 H326 0.950 . S
C350 C345 1.363 . S
C350 C349 1.415 . S
C351 H327 0.951 . S
C351 C352 1.366 . S
C351 C353 1.388 . S
C352 C351 1.366 . S
C352 C356 1.385 . S
C353 H328 0.951 . S
C353 C351 1.388 . S
C353 C354 1.366 . S
C354 C353 1.366 . S
C354 C355 1.414 . S
C354 C357 1.499 . S
C355 H329 0.950 . S
C355 C354 1.414 . S
C355 C356 1.374 . S
C356 H330 0.950 . S
C356 C352 1.385 . S
C356 C355 1.374 . S
C357 C354 1.499 . S
C357 C358 1.373 . S
C357 C359 1.389 . S
C358 H331 0.950 . S
C358 C344 1.377 . S
C358 C357 1.373 . S
C359 C343 1.377 . S
C359 C357 1.389 . S
C359 C360 1.524 . S
C360 C359 1.524 . S
C360 C361 1.397 . S
C360 C365 1.363 . S
C361 H332 0.950 . S
C361 C360 1.397 . S
C361 C362 1.334 . S
C362 H333 0.950 . S
C362 C361 1.334 . S
C362 C363 1.287 . S
C363 C362 1.287 . S
C363 C364 1.524 . S
C363 H366 0.999 . S
C364 H334 0.950 . S
C364 C363 1.524 . S
C364 C365 1.415 . S
C365 H335 0.950 . S
C365 C360 1.363 . S
C365 C364 1.415 . S
H366 C363 0.999 . S
H367 C348 0.913 . S
H368 C386 0.951 . S
H369 C388 0.951 . S
H370 C390 0.950 . S
H371 C391 0.950 . S
H372 C393 0.950 . S
H373 C396 0.950 . S
H374 C397 0.950 . S
H375 C399 0.950 . S
H376 C400 0.950 . S
H377 C401 0.951 . S
H378 C403 0.951 . S
H379 C405 0.950 . S
H380 C406 0.950 . S
H381 C408 0.950 . S
H382 C411 0.950 . S
H383 C412 0.950 . S
H384 C414 0.950 . S
H385 C415 0.950 . S
C386 H368 0.951 . S
C386 C387 1.366 . S
C386 C388 1.388 . S
C387 C386 1.366 . S
C387 C391 1.385 . S
C388 H369 0.951 . S
C388 C386 1.388 . S
C388 C389 1.366 . S
C389 C388 1.366 . S
C389 C390 1.414 . S
C389 C392 1.499 . S
C390 H370 0.950 . S
C390 C389 1.414 . S
C390 C391 1.374 . S
C391 H371 0.950 . S
C391 C387 1.385 . S
C391 C390 1.374 . S
C392 C389 1.499 . S
C392 C393 1.373 . S
C392 C394 1.389 . S
C393 H372 0.950 . S
C393 C392 1.373 . S
C393 C409 1.377 . S
C394 C392 1.389 . S
C394 C395 1.524 . S
C394 C408 1.377 . S
C395 C394 1.524 . S
C395 C396 1.397 . S
C395 C400 1.363 . S
C396 H373 0.950 . S
C396 C395 1.397 . S
C396 C397 1.334 . S
C397 H374 0.950 . S
C397 C396 1.334 . S
C397 C398 1.287 . S
C398 C397 1.287 . S
C398 C399 1.524 . S
C398 H417 0.913 . S
C399 H375 0.950 . S
C399 C398 1.524 . S
C399 C400 1.415 . S
C400 H376 0.950 . S
C400 C395 1.363 . S
C400 C399 1.415 . S
C401 H377 0.951 . S
C401 C402 1.366 . S
C401 C403 1.388 . S
C402 C401 1.366 . S
C402 C406 1.385 . S
C403 H378 0.951 . S
C403 C401 1.388 . S
C403 C404 1.366 . S
C404 C403 1.366 . S
C404 C405 1.414 . S
C404 C407 1.499 . S
C405 H379 0.950 . S
C405 C404 1.414 . S
C405 C406 1.374 . S
C406 H380 0.950 . S
C406 C402 1.385 . S
C406 C405 1.374 . S
C407 C404 1.499 . S
C407 C408 1.373 . S
C407 C409 1.389 . S
C408 H381 0.950 . S
C408 C394 1.377 . S
C408 C407 1.373 . S
C409 C393 1.377 . S
C409 C407 1.389 . S
C409 C410 1.524 . S
C410 C409 1.524 . S
C410 C411 1.397 . S
C410 C415 1.363 . S
C411 H382 0.950 . S
C411 C410 1.397 . S
C411 C412 1.334 . S
C412 H383 0.950 . S
C412 C411 1.334 . S
C412 C413 1.287 . S
C413 C412 1.287 . S
C413 C414 1.524 . S
C413 H416 0.999 . S
C414 H384 0.950 . S
C414 C413 1.524 . S
C414 C415 1.415 . S
C415 H385 0.950 . S
C415 C410 1.363 . S
C415 C414 1.415 . S
H416 C413 0.999 . S
H417 C398 0.913 . S
H418 C436 0.951 . S
H419 C438 0.951 . S
H420 C440 0.950 . S
H421 C441 0.950 . S
H422 C443 0.950 . S
H423 C446 0.950 . S
H424 C447 0.950 . S
H425 C449 0.950 . S
H426 C450 0.950 . S
H427 C451 0.951 . S
H428 C453 0.951 . S
H429 C455 0.950 . S
H430 C456 0.950 . S
H431 C458 0.950 . S
H432 C461 0.950 . S
H433 C462 0.950 . S
H434 C464 0.950 . S
H435 C465 0.950 . S
C436 H418 0.951 . S
C436 C437 1.366 . S
C436 C438 1.388 . S
C437 C436 1.366 . S
C437 C441 1.385 . S
C438 H419 0.951 . S
C438 C436 1.388 . S
C438 C439 1.366 . S
C439 C438 1.366 . S
C439 C440 1.414 . S
C439 C442 1.499 . S
C440 H420 0.950 . S
C440 C439 1.414 . S
C440 C441 1.374 . S
C441 H421 0.950 . S
C441 C437 1.385 . S
C441 C440 1.374 . S
C442 C439 1.499 . S
C442 C443 1.373 . S
C442 C444 1.389 . S
C443 H422 0.950 . S
C443 C442 1.373 . S
C443 C459 1.377 . S
C444 C442 1.389 . S
C444 C445 1.524 . S
C444 C458 1.377 . S
C445 C444 1.524 . S
C445 C446 1.397 . S
C445 C450 1.363 . S
C446 H423 0.950 . S
C446 C445 1.397 . S
C446 C447 1.334 . S
C447 H424 0.950 . S
C447 C446 1.334 . S
C447 C448 1.287 . S
C448 C447 1.287 . S
C448 C449 1.524 . S
C448 H467 0.913 . S
C449 H425 0.950 . S
C449 C448 1.524 . S
C449 C450 1.415 . S
C450 H426 0.950 . S
C450 C445 1.363 . S
C450 C449 1.415 . S
C451 H427 0.951 . S
C451 C452 1.366 . S
C451 C453 1.388 . S
C452 C451 1.366 . S
C452 C456 1.385 . S
C453 H428 0.951 . S
C453 C451 1.388 . S
C453 C454 1.366 . S
C454 C453 1.366 . S
C454 C455 1.414 . S
C454 C457 1.499 . S
C455 H429 0.950 . S
C455 C454 1.414 . S
C455 C456 1.374 . S
C456 H430 0.950 . S
C456 C452 1.385 . S
C456 C455 1.374 . S
C457 C454 1.499 . S
C457 C458 1.373 . S
C457 C459 1.389 . S
C458 H431 0.950 . S
C458 C444 1.377 . S
C458 C457 1.373 . S
C459 C443 1.377 . S
C459 C457 1.389 . S
C459 C460 1.524 . S
C460 C459 1.524 . S
C460 C461 1.397 . S
C460 C465 1.363 . S
C461 H432 0.950 . S
C461 C460 1.397 . S
C461 C462 1.334 . S
C462 H433 0.950 . S
C462 C461 1.334 . S
C462 C463 1.287 . S
C463 C462 1.287 . S
C463 C464 1.524 . S
C463 H466 0.999 . S
C464 H434 0.950 . S
C464 C463 1.524 . S
C464 C465 1.415 . S
C465 H435 0.950 . S
C465 C460 1.363 . S
C465 C464 1.415 . S
H466 C463 0.999 . S
H467 C448 0.913 . S
H468 C486 0.951 . S
H469 C488 0.951 . S
H470 C490 0.950 . S
H471 C491 0.950 . S
H472 C493 0.950 . S
H473 C496 0.950 . S
H474 C497 0.950 . S
H475 C499 0.950 . S
H476 C500 0.950 . S
H477 C501 0.951 . S
H478 C503 0.951 . S
H479 C505 0.950 . S
H480 C506 0.950 . S
H481 C508 0.950 . S
H482 C511 0.950 . S
H483 C512 0.950 . S
H484 C514 0.950 . S
H485 C515 0.950 . S
C486 H468 0.951 . S
C486 C487 1.366 . S
C486 C488 1.388 . S
C487 C486 1.366 . S
C487 C491 1.385 . S
C488 H469 0.951 . S
C488 C486 1.388 . S
C488 C489 1.366 . S
C489 C488 1.366 . S
C489 C490 1.414 . S
C489 C492 1.499 . S
C490 H470 0.950 . S
C490 C489 1.414 . S
C490 C491 1.374 . S
C491 H471 0.950 . S
C491 C487 1.385 . S
C491 C490 1.374 . S
C492 C489 1.499 . S
C492 C493 1.373 . S
C492 C494 1.389 . S
C493 H472 0.950 . S
C493 C492 1.373 . S
C493 C509 1.377 . S
C494 C492 1.389 . S
C494 C495 1.524 . S
C494 C508 1.377 . S
C495 C494 1.524 . S
C495 C496 1.397 . S
C495 C500 1.363 . S
C496 H473 0.950 . S
C496 C495 1.397 . S
C496 C497 1.334 . S
C497 H474 0.950 . S
C497 C496 1.334 . S
C497 C498 1.287 . S
C498 C497 1.287 . S
C498 C499 1.524 . S
C498 H517 0.913 . S
C499 H475 0.950 . S
C499 C498 1.524 . S
C499 C500 1.415 . S
C500 H476 0.950 . S
C500 C495 1.363 . S
C500 C499 1.415 . S
C501 H477 0.951 . S
C501 C502 1.366 . S
C501 C503 1.388 . S
C502 C501 1.366 . S
C502 C506 1.385 . S
C503 H478 0.951 . S
C503 C501 1.388 . S
C503 C504 1.366 . S
C504 C503 1.366 . S
C504 C505 1.414 . S
C504 C507 1.499 . S
C505 H479 0.950 . S
C505 C504 1.414 . S
C505 C506 1.374 . S
C506 H480 0.950 . S
C506 C502 1.385 . S
C506 C505 1.374 . S
C507 C504 1.499 . S
C507 C508 1.373 . S
C507 C509 1.389 . S
C508 H481 0.950 . S
C508 C494 1.377 . S
C508 C507 1.373 . S
C509 C493 1.377 . S
C509 C507 1.389 . S
C509 C510 1.524 . S
C510 C509 1.524 . S
C510 C511 1.397 . S
C510 C515 1.363 . S
C511 H482 0.950 . S
C511 C510 1.397 . S
C511 C512 1.334 . S
C512 H483 0.950 . S
C512 C511 1.334 . S
C512 C513 1.287 . S
C513 C512 1.287 . S
C513 C514 1.524 . S
C513 H516 0.999 . S
C514 H484 0.950 . S
C514 C513 1.524 . S
C514 C515 1.415 . S
C515 H485 0.950 . S
C515 C510 1.363 . S
C515 C514 1.415 . S
H516 C513 0.999 . S
H517 C498 0.913 . S
H518 C536 0.951 . S
H519 C538 0.951 . S
H520 C540 0.950 . S
H521 C541 0.950 . S
H522 C543 0.950 . S
H523 C546 0.950 . S
H524 C547 0.950 . S
H525 C549 0.950 . S
H526 C550 0.950 . S
H527 C551 0.951 . S
H528 C553 0.951 . S
H529 C555 0.950 . S
H530 C556 0.950 . S
H531 C558 0.950 . S
H532 C561 0.950 . S
H533 C562 0.950 . S
H534 C564 0.950 . S
H535 C565 0.950 . S
C536 H518 0.951 . S
C536 C537 1.366 . S
C536 C538 1.388 . S
C537 C536 1.366 . S
C537 C541 1.385 . S
C538 H519 0.951 . S
C538 C536 1.388 . S
C538 C539 1.366 . S
C539 C538 1.366 . S
C539 C540 1.414 . S
C539 C542 1.499 . S
C540 H520 0.950 . S
C540 C539 1.414 . S
C540 C541 1.374 . S
C541 H521 0.950 . S
C541 C537 1.385 . S
C541 C540 1.374 . S
C542 C539 1.499 . S
C542 C543 1.373 . S
C542 C544 1.389 1_455 S
C543 H522 0.950 . S
C543 C542 1.373 . S
C543 C559 1.377 . S
C544 C542 1.389 1_655 S
C544 C545 1.524 . S
C544 C558 1.377 . S
C545 C544 1.524 . S
C545 C546 1.397 1_655 S
C545 C550 1.363 . S
C546 H523 0.950 . S
C546 C545 1.397 1_455 S
C546 C547 1.334 . S
C547 H524 0.950 . S
C547 C546 1.334 . S
C547 C548 1.287 1_455 S
C548 C547 1.287 1_655 S
C548 C549 1.524 . S
C548 H567 0.913 . S
C549 H525 0.950 . S
C549 C548 1.524 . S
C549 C550 1.415 . S
C550 H526 0.950 . S
C550 C545 1.363 . S
C550 C549 1.415 . S
C551 H527 0.951 . S
C551 C552 1.366 . S
C551 C553 1.388 . S
C552 C551 1.366 . S
C552 C556 1.385 . S
C553 H528 0.951 . S
C553 C551 1.388 . S
C553 C554 1.366 . S
C554 C553 1.366 . S
C554 C555 1.414 . S
C554 C557 1.499 . S
C555 H529 0.950 . S
C555 C554 1.414 . S
C555 C556 1.374 . S
C556 H530 0.950 . S
C556 C552 1.385 . S
C556 C555 1.374 . S
C557 C554 1.499 . S
C557 C558 1.373 . S
C557 C559 1.389 1_655 S
C558 H531 0.950 . S
C558 C544 1.377 . S
C558 C557 1.373 . S
C559 C543 1.377 . S
C559 C557 1.389 1_455 S
C559 C560 1.524 . S
C560 C559 1.524 . S
C560 C561 1.397 1_455 S
C560 C565 1.363 . S
C561 H532 0.950 . S
C561 C560 1.397 1_655 S
C561 C562 1.334 . S
C562 H533 0.950 . S
C562 C561 1.334 . S
C562 C563 1.287 1_655 S
C563 C562 1.287 1_455 S
C563 C564 1.524 . S
C563 H566 0.999 . S
C564 H534 0.950 . S
C564 C563 1.524 . S
C564 C565 1.415 . S
C565 H535 0.950 . S
C565 C560 1.363 . S
C565 C564 1.415 . S
H566 C563 0.999 . S
H567 C548 0.913 . S
H568 C586 0.951 . S
H569 C588 0.951 . S
H570 C590 0.950 . S
H571 C591 0.950 . S
H572 C593 0.950 . S
H573 C596 0.950 . S
H574 C597 0.950 . S
H575 C599 0.950 . S
H576 C600 0.950 . S
H577 C601 0.951 . S
H578 C603 0.951 . S
H579 C605 0.950 . S
H580 C606 0.950 . S
H581 C608 0.950 . S
H582 C611 0.950 . S
H583 C612 0.950 . S
H584 C614 0.950 . S
H585 C615 0.950 . S
C586 H568 0.951 . S
C586 C587 1.366 . S
C586 C588 1.388 . S
C587 C586 1.366 . S
C587 C591 1.385 . S
C588 H569 0.951 . S
C588 C586 1.388 . S
C588 C589 1.366 . S
C589 C588 1.366 . S
C589 C590 1.414 . S
C589 C592 1.499 . S
C590 H570 0.950 . S
C590 C589 1.414 . S
C590 C591 1.374 . S
C591 H571 0.950 . S
C591 C587 1.385 . S
C591 C590 1.374 . S
C592 C589 1.499 . S
C592 C593 1.373 . S
C592 C594 1.389 . S
C593 H572 0.950 . S
C593 C592 1.373 . S
C593 C609 1.377 1_545 S
C594 C592 1.389 . S
C594 C595 1.524 . S
C594 C608 1.377 1_545 S
C595 C594 1.524 . S
C595 C596 1.397 . S
C595 C600 1.363 1_545 S
C596 H573 0.950 . S
C596 C595 1.397 . S
C596 C597 1.334 . S
C597 H574 0.950 . S
C597 C596 1.334 . S
C597 C598 1.287 . S
C598 C597 1.287 . S
C598 C599 1.524 1_545 S
C598 H617 0.913 . S
C599 H575 0.950 . S
C599 C598 1.524 1_565 S
C599 C600 1.415 . S
C600 H576 0.950 . S
C600 C595 1.363 1_565 S
C600 C599 1.415 . S
C601 H577 0.951 . S
C601 C602 1.366 . S
C601 C603 1.388 . S
C602 C601 1.366 . S
C602 C606 1.385 . S
C603 H578 0.951 . S
C603 C601 1.388 . S
C603 C604 1.366 . S
C604 C603 1.366 . S
C604 C605 1.414 . S
C604 C607 1.499 . S
C605 H579 0.950 . S
C605 C604 1.414 . S
C605 C606 1.374 . S
C606 H580 0.950 . S
C606 C602 1.385 . S
C606 C605 1.374 . S
C607 C604 1.499 . S
C607 C608 1.373 . S
C607 C609 1.389 . S
C608 H581 0.950 . S
C608 C594 1.377 1_565 S
C608 C607 1.373 . S
C609 C593 1.377 1_565 S
C609 C607 1.389 . S
C609 C610 1.524 . S
C610 C609 1.524 . S
C610 C611 1.397 . S
C610 C615 1.363 1_565 S
C611 H582 0.950 . S
C611 C610 1.397 . S
C611 C612 1.334 . S
C612 H583 0.950 . S
C612 C611 1.334 . S
C612 C613 1.287 . S
C613 C612 1.287 . S
C613 C614 1.524 1_565 S
C613 H616 0.999 . S
C614 H584 0.950 . S
C614 C613 1.524 1_545 S
C614 C615 1.415 . S
C615 H585 0.950 . S
C615 C610 1.363 1_545 S
C615 C614 1.415 . S
H616 C613 0.999 . S
H617 C598 0.913 . S
H618 C636 0.951 . S
H619 C638 0.951 . S
H620 C640 0.950 . S
H621 C641 0.950 . S
H622 C643 0.950 . S
H623 C646 0.950 . S
H624 C647 0.950 . S
H625 C649 0.950 . S
H626 C650 0.950 . S
H627 C651 0.951 . S
H628 C653 0.951 . S
H629 C655 0.950 . S
H630 C656 0.950 . S
H631 C658 0.950 . S
H632 C661 0.950 . S
H633 C662 0.950 . S
H634 C664 0.950 . S
H635 C665 0.950 . S
C636 H618 0.951 . S
C636 C637 1.366 . S
C636 C638 1.388 . S
C637 C636 1.366 . S
C637 C641 1.385 . S
C638 H619 0.951 . S
C638 C636 1.388 . S
C638 C639 1.366 . S
C639 C638 1.366 . S
C639 C640 1.414 . S
C639 C642 1.499 . S
C640 H620 0.950 . S
C640 C639 1.414 . S
C640 C641 1.374 . S
C641 H621 0.950 . S
C641 C637 1.385 . S
C641 C640 1.374 . S
C642 C639 1.499 . S
C642 C643 1.373 . S
C642 C644 1.389 . S
C643 H622 0.950 . S
C643 C642 1.373 . S
C643 C659 1.377 . S
C644 C642 1.389 . S
C644 C645 1.524 . S
C644 C658 1.377 . S
C645 C644 1.524 . S
C645 C646 1.397 . S
C645 C650 1.363 . S
C646 H623 0.950 . S
C646 C645 1.397 . S
C646 C647 1.334 . S
C647 H624 0.950 . S
C647 C646 1.334 . S
C647 C648 1.287 . S
C648 C647 1.287 . S
C648 C649 1.524 . S
C648 H667 0.913 . S
C649 H625 0.950 . S
C649 C648 1.524 . S
C649 C650 1.415 . S
C650 H626 0.950 . S
C650 C645 1.363 . S
C650 C649 1.415 . S
C651 H627 0.951 . S
C651 C652 1.366 . S
C651 C653 1.388 . S
C652 C651 1.366 . S
C652 C656 1.385 . S
C653 H628 0.951 . S
C653 C651 1.388 . S
C653 C654 1.366 . S
C654 C653 1.366 . S
C654 C655 1.414 . S
C654 C657 1.499 . S
C655 H629 0.950 . S
C655 C654 1.414 . S
C655 C656 1.374 . S
C656 H630 0.950 . S
C656 C652 1.385 . S
C656 C655 1.374 . S
C657 C654 1.499 . S
C657 C658 1.373 . S
C657 C659 1.389 . S
C658 H631 0.950 . S
C658 C644 1.377 . S
C658 C657 1.373 . S
C659 C643 1.377 . S
C659 C657 1.389 . S
C659 C660 1.524 . S
C660 C659 1.524 . S
C660 C661 1.397 . S
C660 C665 1.363 . S
C661 H632 0.950 . S
C661 C660 1.397 . S
C661 C662 1.334 . S
C662 H633 0.950 . S
C662 C661 1.334 . S
C662 C663 1.287 . S
C663 C662 1.287 . S
C663 C664 1.524 . S
C663 H666 0.999 . S
C664 H634 0.950 . S
C664 C663 1.524 . S
C664 C665 1.415 . S
C665 H635 0.950 . S
C665 C660 1.363 . S
C665 C664 1.415 . S
H666 C663 0.999 . S
H667 C648 0.913 . S
H668 C686 0.951 . S
H669 C688 0.951 . S
H670 C690 0.950 . S
H671 C691 0.950 . S
H672 C693 0.950 . S
H673 C696 0.950 . S
H674 C697 0.950 . S
H675 C699 0.950 . S
H676 C700 0.950 . S
H677 C701 0.951 . S
H678 C703 0.951 . S
H679 C705 0.950 . S
H680 C706 0.950 . S
H681 C708 0.950 . S
H682 C711 0.950 . S
H683 C712 0.950 . S
H684 C714 0.950 . S
H685 C715 0.950 . S
C686 H668 0.951 . S
C686 C687 1.366 . S
C686 C688 1.388 . S
C687 C686 1.366 . S
C687 C691 1.385 . S
C688 H669 0.951 . S
C688 C686 1.388 . S
C688 C689 1.366 . S
C689 C688 1.366 . S
C689 C690 1.414 . S
C689 C692 1.499 . S
C690 H670 0.950 . S
C690 C689 1.414 . S
C690 C691 1.374 . S
C691 H671 0.950 . S
C691 C687 1.385 . S
C691 C690 1.374 . S
C692 C689 1.499 . S
C692 C693 1.373 1_655 S
C692 C694 1.389 . S
C693 H672 0.950 . S
C693 C692 1.373 1_455 S
C693 C709 1.377 . S
C694 C692 1.389 . S
C694 C695 1.524 . S
C694 C708 1.377 . S
C695 C694 1.524 . S
C695 C696 1.397 . S
C695 C700 1.363 . S
C696 H673 0.950 . S
C696 C695 1.397 . S
C696 C697 1.334 . S
C697 H674 0.950 . S
C697 C696 1.334 . S
C697 C698 1.287 . S
C698 C697 1.287 . S
C698 C699 1.524 . S
C698 H717 0.913 . S
C699 H675 0.950 . S
C699 C698 1.524 . S
C699 C700 1.415 . S
C700 H676 0.950 . S
C700 C695 1.363 . S
C700 C699 1.415 . S
C701 H677 0.951 . S
C701 C702 1.366 . S
C701 C703 1.388 . S
C702 C701 1.366 . S
C702 C706 1.385 . S
C703 H678 0.951 . S
C703 C701 1.388 . S
C703 C704 1.366 . S
C704 C703 1.366 . S
C704 C705 1.414 . S
C704 C707 1.499 . S
C705 H679 0.950 . S
C705 C704 1.414 . S
C705 C706 1.374 . S
C706 H680 0.950 . S
C706 C702 1.385 . S
C706 C705 1.374 . S
C707 C704 1.499 . S
C707 C708 1.373 1_455 S
C707 C709 1.389 . S
C708 H681 0.950 . S
C708 C694 1.377 . S
C708 C707 1.373 1_655 S
C709 C693 1.377 . S
C709 C707 1.389 . S
C709 C710 1.524 . S
C710 C709 1.524 . S
C710 C711 1.397 . S
C710 C715 1.363 . S
C711 H682 0.950 . S
C711 C710 1.397 . S
C711 C712 1.334 . S
C712 H683 0.950 . S
C712 C711 1.334 . S
C712 C713 1.287 . S
C713 C712 1.287 . S
C713 C714 1.524 . S
C713 H716 0.999 . S
C714 H684 0.950 . S
C714 C713 1.524 . S
C714 C715 1.415 . S
C715 H685 0.950 . S
C715 C710 1.363 . S
C715 C714 1.415 . S
H716 C713 0.999 . S
H717 C698 0.913 . S
H718 C736 0.951 . S
H719 C738 0.951 . S
H720 C740 0.950 . S
H721 C741 0.950 . S
H722 C743 0.950 . S
H723 C746 0.950 . S
H724 C747 0.950 . S
H725 C749 0.950 . S
H726 C750 0.950 . S
H727 C751 0.951 . S
H728 C753 0.951 . S
H729 C755 0.950 . S
H730 C756 0.950 . S
H731 C758 0.950 . S
H732 C761 0.950 . S
H733 C762 0.950 . S
H734 C764 0.950 . S
H735 C765 0.950 . S
C736 H718 0.951 . S
C736 C737 1.366 . S
C736 C738 1.388 . S
C737 C736 1.366 . S
C737 C741 1.385 . S
C738 H719 0.951 . S
C738 C736 1.388 . S
C738 C739 1.366 . S
C739 C738 1.366 . S
C739 C740 1.414 . S
C739 C742 1.499 . S
C740 H720 0.950 . S
C740 C739 1.414 . S
C740 C741 1.374 . S
C741 H721 0.950 . S
C741 C737 1.385 . S
C741 C740 1.374 . S
C742 C739 1.499 . S
C742 C743 1.373 . S
C742 C744 1.389 1_565 S
C743 H722 0.950 . S
C743 C742 1.373 . S
C743 C759 1.377 . S
C744 C742 1.389 1_545 S
C744 C745 1.524 . S
C744 C758 1.377 . S
C745 C744 1.524 . S
C745 C746 1.397 . S
C745 C750 1.363 . S
C746 H723 0.950 . S
C746 C745 1.397 . S
C746 C747 1.334 . S
C747 H724 0.950 . S
C747 C746 1.334 . S
C747 C748 1.287 . S
C748 C747 1.287 . S
C748 C749 1.524 . S
C748 H767 0.913 . S
C749 H725 0.950 . S
C749 C748 1.524 . S
C749 C750 1.415 . S
C750 H726 0.950 . S
C750 C745 1.363 . S
C750 C749 1.415 . S
C751 H727 0.951 . S
C751 C752 1.366 . S
C751 C753 1.388 . S
C752 C751 1.366 . S
C752 C756 1.385 . S
C753 H728 0.951 . S
C753 C751 1.388 . S
C753 C754 1.366 . S
C754 C753 1.366 . S
C754 C755 1.414 . S
C754 C757 1.499 . S
C755 H729 0.950 . S
C755 C754 1.414 . S
C755 C756 1.374 . S
C756 H730 0.950 . S
C756 C752 1.385 . S
C756 C755 1.374 . S
C757 C754 1.499 . S
C757 C758 1.373 . S
C757 C759 1.389 1_545 S
C758 H731 0.950 . S
C758 C744 1.377 . S
C758 C757 1.373 . S
C759 C743 1.377 . S
C759 C757 1.389 1_565 S
C759 C760 1.524 . S
C760 C759 1.524 . S
C760 C761 1.397 . S
C760 C765 1.363 . S
C761 H732 0.950 . S
C761 C760 1.397 . S
C761 C762 1.334 . S
C762 H733 0.950 . S
C762 C761 1.334 . S
C762 C763 1.287 . S
C763 C762 1.287 . S
C763 C764 1.524 . S
C763 H766 0.999 . S
C764 H734 0.950 . S
C764 C763 1.524 . S
C764 C765 1.415 . S
C765 H735 0.950 . S
C765 C760 1.363 . S
C765 C764 1.415 . S
H766 C763 0.999 . S
H767 C748 0.913 . S
H768 C786 0.951 . S
H769 C788 0.951 . S
H770 C790 0.950 . S
H771 C791 0.950 . S
H772 C793 0.950 . S
H773 C796 0.950 . S
H774 C797 0.950 . S
H775 C799 0.950 . S
H776 C800 0.950 . S
H777 C801 0.951 . S
H778 C803 0.951 . S
H779 C805 0.950 . S
H780 C806 0.950 . S
H781 C808 0.950 . S
H782 C811 0.950 . S
H783 C812 0.950 . S
H784 C814 0.950 . S
H785 C815 0.950 . S
C786 H768 0.951 . S
C786 C787 1.366 . S
C786 C788 1.388 . S
C787 C786 1.366 . S
C787 C791 1.385 . S
C788 H769 0.951 . S
C788 C786 1.388 . S
C788 C789 1.366 . S
C789 C788 1.366 . S
C789 C790 1.414 . S
C789 C792 1.499 . S
C790 H770 0.950 . S
C790 C789 1.414 . S
C790 C791 1.374 . S
C791 H771 0.950 . S
C791 C787 1.385 . S
C791 C790 1.374 . S
C792 C789 1.499 . S
C792 C793 1.373 . S
C792 C794 1.389 . S
C793 H772 0.950 . S
C793 C792 1.373 . S
C793 C809 1.377 . S
C794 C792 1.389 . S
C794 C795 1.524 . S
C794 C808 1.377 . S
C795 C794 1.524 . S
C795 C796 1.397 . S
C795 C800 1.363 . S
C796 H773 0.950 . S
C796 C795 1.397 . S
C796 C797 1.334 . S
C797 H774 0.950 . S
C797 C796 1.334 . S
C797 C798 1.287 . S
C798 C797 1.287 . S
C798 C799 1.524 . S
C798 H817 0.913 . S
C799 H775 0.950 . S
C799 C798 1.524 . S
C799 C800 1.415 . S
C800 H776 0.950 . S
C800 C795 1.363 . S
C800 C799 1.415 . S
C801 H777 0.951 . S
C801 C802 1.366 . S
C801 C803 1.388 . S
C802 C801 1.366 . S
C802 C806 1.385 . S
C803 H778 0.951 . S
C803 C801 1.388 . S
C803 C804 1.366 . S
C804 C803 1.366 . S
C804 C805 1.414 . S
C804 C807 1.499 . S
C805 H779 0.950 . S
C805 C804 1.414 . S
C805 C806 1.374 . S
C806 H780 0.950 . S
C806 C802 1.385 . S
C806 C805 1.374 . S
C807 C804 1.499 . S
C807 C808 1.373 . S
C807 C809 1.389 . S
C808 H781 0.950 . S
C808 C794 1.377 . S
C808 C807 1.373 . S
C809 C793 1.377 . S
C809 C807 1.389 . S
C809 C810 1.524 . S
C810 C809 1.524 . S
C810 C811 1.397 . S
C810 C815 1.363 . S
C811 H782 0.950 . S
C811 C810 1.397 . S
C811 C812 1.334 . S
C812 H783 0.950 . S
C812 C811 1.334 . S
C812 C813 1.287 . S
C813 C812 1.287 . S
C813 C814 1.524 . S
C813 H816 0.999 . S
C814 H784 0.950 . S
C814 C813 1.524 . S
C814 C815 1.415 . S
C815 H785 0.950 . S
C815 C810 1.363 . S
C815 C814 1.415 . S
H816 C813 0.999 . S
H817 C798 0.913 . S
H818 C836 0.951 . S
H819 C838 0.951 . S
H820 C840 0.950 1_455 S
H821 C841 0.950 . S
H822 C843 0.950 . S
H823 C846 0.950 . S
H824 C847 0.950 . S
H825 C849 0.950 . S
H826 C850 0.950 . S
H827 C851 0.951 . S
H828 C853 0.951 . S
H829 C855 0.950 1_655 S
H830 C856 0.950 . S
H831 C858 0.950 . S
H832 C861 0.950 . S
H833 C862 0.950 . S
H834 C864 0.950 . S
H835 C865 0.950 . S
C836 H818 0.951 . S
C836 C837 1.366 . S
C836 C838 1.388 . S
C837 C836 1.366 . S
C837 C841 1.385 . S
C838 H819 0.951 . S
C838 C836 1.388 . S
C838 C839 1.366 . S
C839 C838 1.366 . S
C839 C840 1.414 . S
C839 C842 1.499 . S
C840 H820 0.950 1_655 S
C840 C839 1.414 . S
C840 C841 1.374 . S
C841 H821 0.950 . S
C841 C837 1.385 . S
C841 C840 1.374 . S
C842 C839 1.499 . S
C842 C843 1.373 1_655 S
C842 C844 1.389 . S
C843 H822 0.950 . S
C843 C842 1.373 1_455 S
C843 C859 1.377 . S
C844 C842 1.389 . S
C844 C845 1.524 . S
C844 C858 1.377 . S
C845 C844 1.524 . S
C845 C846 1.397 . S
C845 C850 1.363 . S
C846 H823 0.950 . S
C846 C845 1.397 . S
C846 C847 1.334 . S
C847 H824 0.950 . S
C847 C846 1.334 . S
C847 C848 1.287 . S
C848 C847 1.287 . S
C848 C849 1.524 . S
C848 H867 0.913 . S
C849 H825 0.950 . S
C849 C848 1.524 . S
C849 C850 1.415 . S
C850 H826 0.950 . S
C850 C845 1.363 . S
C850 C849 1.415 . S
C851 H827 0.951 . S
C851 C852 1.366 . S
C851 C853 1.388 . S
C852 C851 1.366 . S
C852 C856 1.385 . S
C853 H828 0.951 . S
C853 C851 1.388 . S
C853 C854 1.366 . S
C854 C853 1.366 . S
C854 C855 1.414 . S
C854 C857 1.499 . S
C855 H829 0.950 1_455 S
C855 C854 1.414 . S
C855 C856 1.374 . S
C856 H830 0.950 . S
C856 C852 1.385 . S
C856 C855 1.374 . S
C857 C854 1.499 . S
C857 C858 1.373 1_455 S
C857 C859 1.389 . S
C858 H831 0.950 . S
C858 C844 1.377 . S
C858 C857 1.373 1_655 S
C859 C843 1.377 . S
C859 C857 1.389 . S
C859 C860 1.524 . S
C860 C859 1.524 . S
C860 C861 1.397 . S
C860 C865 1.363 . S
C861 H832 0.950 . S
C861 C860 1.397 . S
C861 C862 1.334 . S
C862 H833 0.950 . S
C862 C861 1.334 . S
C862 C863 1.287 . S
C863 C862 1.287 . S
C863 C864 1.524 . S
C863 H866 0.999 . S
C864 H834 0.950 . S
C864 C863 1.524 . S
C864 C865 1.415 . S
C865 H835 0.950 . S
C865 C860 1.363 . S
C865 C864 1.415 . S
H866 C863 0.999 . S
H867 C848 0.913 . S
H868 C886 0.951 . S
H869 C888 0.951 . S
H870 C890 0.950 . S
H871 C891 0.950 . S
H872 C893 0.950 . S
H873 C896 0.950 . S
H874 C897 0.950 . S
H875 C899 0.950 1_545 S
H876 C900 0.974 . S
H877 C901 0.951 . S
H878 C903 0.951 . S
H879 C905 0.950 . S
H880 C906 0.950 . S
H881 C908 0.950 . S
H882 C911 0.950 . S
H883 C912 0.950 . S
H884 C914 0.950 1_565 S
H885 C915 0.975 . S
C886 H868 0.951 . S
C886 C887 1.366 . S
C886 C888 1.388 . S
C887 C886 1.366 . S
C887 C891 1.385 . S
C888 H869 0.951 . S
C888 C886 1.388 . S
C888 C889 1.366 . S
C889 C888 1.366 . S
C889 C890 1.414 . S
C889 C892 1.499 . S
C890 H870 0.950 . S
C890 C889 1.414 . S
C890 C891 1.374 . S
C891 H871 0.950 . S
C891 C887 1.385 . S
C891 C890 1.374 . S
C892 C889 1.499 . S
C892 C893 1.373 . S
C892 C894 1.389 . S
C893 H872 0.950 . S
C893 C892 1.373 . S
C893 C909 1.377 1_566 S
C894 C892 1.389 . S
C894 C895 1.524 . S
C894 C908 1.377 1_566 S
C895 C894 1.524 . S
C895 C896 1.397 . S
C895 C900 1.359 1_565 S
C896 H873 0.950 . S
C896 C895 1.397 . S
C896 C897 1.334 . S
C897 H874 0.950 . S
C897 C896 1.334 . S
C897 C898 1.287 . S
C898 C897 1.287 . S
C898 C899 1.524 . S
C898 H917 0.913 . S
C899 H875 0.950 1_565 S
C899 C898 1.524 . S
C899 C900 1.396 1_565 S
C900 H876 0.974 . S
C900 C895 1.359 1_545 S
C900 C899 1.396 1_545 S
C901 H877 0.951 . S
C901 C902 1.366 . S
C901 C903 1.388 . S
C902 C901 1.366 . S
C902 C906 1.385 . S
C903 H878 0.951 . S
C903 C901 1.388 . S
C903 C904 1.366 . S
C904 C903 1.366 . S
C904 C905 1.414 . S
C904 C907 1.499 . S
C905 H879 0.950 . S
C905 C904 1.414 . S
C905 C906 1.374 . S
C906 H880 0.950 . S
C906 C902 1.385 . S
C906 C905 1.374 . S
C907 C904 1.499 . S
C907 C908 1.373 . S
C907 C909 1.389 . S
C908 H881 0.950 . S
C908 C894 1.377 1_544 S
C908 C907 1.373 . S
C909 C893 1.377 1_544 S
C909 C907 1.389 . S
C909 C910 1.524 . S
C910 C909 1.524 . S
C910 C911 1.397 . S
C910 C915 1.358 1_545 S
C911 H882 0.950 . S
C911 C910 1.397 . S
C911 C912 1.334 . S
C912 H883 0.950 . S
C912 C911 1.334 . S
C912 C913 1.287 . S
C913 C912 1.287 . S
C913 C914 1.524 . S
C913 H916 0.999 . S
C914 H884 0.950 1_545 S
C914 C913 1.524 . S
C914 C915 1.396 1_545 S
C915 H885 0.975 . S
C915 C910 1.358 1_565 S
C915 C914 1.396 1_565 S
H916 C913 0.999 . S
H917 C898 0.913 . S
H918 C936 0.951 . S
H919 C938 0.951 . S
H920 C940 0.950 . S
H921 C941 0.950 . S
H922 C943 0.950 . S
H923 C946 0.950 . S
H924 C947 0.950 . S
H925 C949 0.950 . S
H926 C950 0.950 . S
H927 C951 0.951 . S
H928 C953 0.951 . S
H929 C955 0.950 . S
H930 C956 0.950 . S
H931 C958 0.950 . S
H932 C961 0.950 . S
H933 C962 0.950 . S
H934 C964 0.950 . S
H935 C965 0.950 . S
C936 H918 0.951 . S
C936 C937 1.366 . S
C936 C938 1.388 . S
C937 C936 1.366 . S
C937 C941 1.385 . S
C938 H919 0.951 . S
C938 C936 1.388 . S
C938 C939 1.366 . S
C939 C938 1.366 . S
C939 C940 1.414 . S
C939 C942 1.499 . S
C940 H920 0.950 . S
C940 C939 1.414 . S
C940 C941 1.374 . S
C941 H921 0.950 . S
C941 C937 1.385 . S
C941 C940 1.374 . S
C942 C939 1.499 . S
C942 C943 1.373 . S
C942 C944 1.389 . S
C943 H922 0.950 . S
C943 C942 1.373 . S
C943 C959 1.377 . S
C944 C942 1.389 . S
C944 C945 1.524 . S
C944 C958 1.377 . S
C945 C944 1.524 . S
C945 C946 1.397 . S
C945 C950 1.363 . S
C946 H923 0.950 . S
C946 C945 1.397 . S
C946 C947 1.334 . S
C947 H924 0.950 . S
C947 C946 1.334 . S
C947 C948 1.287 . S
C948 C947 1.287 . S
C948 C949 1.524 . S
C948 H967 0.913 . S
C949 H925 0.950 . S
C949 C948 1.524 . S
C949 C950 1.415 . S
C950 H926 0.950 . S
C950 C945 1.363 . S
C950 C949 1.415 . S
C951 H927 0.951 . S
C951 C952 1.366 . S
C951 C953 1.388 . S
C952 C951 1.366 . S
C952 C956 1.385 . S
C953 H928 0.951 . S
C953 C951 1.388 . S
C953 C954 1.366 . S
C954 C953 1.366 . S
C954 C955 1.414 . S
C954 C957 1.499 . S
C955 H929 0.950 . S
C955 C954 1.414 . S
C955 C956 1.374 . S
C956 H930 0.950 . S
C956 C952 1.385 . S
C956 C955 1.374 . S
C957 C954 1.499 . S
C957 C958 1.373 . S
C957 C959 1.389 . S
C958 H931 0.950 . S
C958 C944 1.377 . S
C958 C957 1.373 . S
C959 C943 1.377 . S
C959 C957 1.389 . S
C959 C960 1.524 . S
C960 C959 1.524 . S
C960 C961 1.397 . S
C960 C965 1.363 . S
C961 H932 0.950 . S
C961 C960 1.397 . S
C961 C962 1.334 . S
C962 H933 0.950 . S
C962 C961 1.334 . S
C962 C963 1.287 . S
C963 C962 1.287 . S
C963 C964 1.524 . S
C963 H966 0.999 . S
C964 H934 0.950 . S
C964 C963 1.524 . S
C964 C965 1.415 . S
C965 H935 0.950 . S
C965 C960 1.363 . S
C965 C964 1.415 . S
H966 C963 0.999 . S
H967 C948 0.913 . S
H968 C986 0.951 . S
H969 C988 0.951 1_655 S
H970 C990 0.950 . S
H971 C991 0.950 . S
H972 C993 0.950 . S
H973 C996 0.950 . S
H974 C997 0.951 . S
H975 C999 0.950 . S
H976 C1000 0.950 . S
H977 C1001 0.951 . S
H978 C1003 0.951 1_455 S
H979 C1005 0.950 . S
H980 C1006 0.950 . S
H981 C1008 0.950 . S
H982 C1011 0.950 . S
H983 C1012 0.951 . S
H984 C1014 0.950 . S
H985 C1015 0.950 . S
C986 H968 0.951 . S
C986 C987 1.366 . S
C986 C988 1.388 . S
C987 C986 1.366 . S
C987 C991 1.385 . S
C988 H969 0.951 1_455 S
C988 C986 1.388 . S
C988 C989 1.366 . S
C989 C988 1.366 . S
C989 C990 1.414 . S
C989 C992 1.499 . S
C990 H970 0.950 . S
C990 C989 1.414 . S
C990 C991 1.374 . S
C991 H971 0.950 . S
C991 C987 1.385 . S
C991 C990 1.374 . S
C992 C989 1.499 . S
C992 C993 1.373 . S
C992 C994 1.389 1_455 S
C993 H972 0.950 . S
C993 C992 1.373 . S
C993 C1009 1.377 . S
C994 C992 1.389 1_655 S
C994 C995 1.524 . S
C994 C1008 1.377 . S
C995 C994 1.524 . S
C995 C996 1.397 1_655 S
C995 C1000 1.363 . S
C996 H973 0.950 . S
C996 C995 1.397 1_455 S
C996 C997 1.334 . S
C997 H974 0.951 . S
C997 C996 1.334 . S
C997 C998 1.286 1_455 S
C998 C997 1.286 1_655 S
C998 C999 1.524 . S
C998 H1017 0.913 . S
C999 H975 0.950 . S
C999 C998 1.524 . S
C999 C1000 1.415 . S
C1000 H976 0.950 . S
C1000 C995 1.363 . S
C1000 C999 1.415 . S
C1001 H977 0.951 . S
C1001 C1002 1.366 . S
C1001 C1003 1.388 . S
C1002 C1001 1.366 . S
C1002 C1006 1.385 . S
C1003 H978 0.951 1_655 S
C1003 C1001 1.388 . S
C1003 C1004 1.366 . S
C1004 C1003 1.366 . S
C1004 C1005 1.414 . S
C1004 C1007 1.499 . S
C1005 H979 0.950 . S
C1005 C1004 1.414 . S
C1005 C1006 1.374 . S
C1006 H980 0.950 . S
C1006 C1002 1.385 . S
C1006 C1005 1.374 . S
C1007 C1004 1.499 . S
C1007 C1008 1.373 . S
C1007 C1009 1.389 1_655 S
C1008 H981 0.950 . S
C1008 C994 1.377 . S
C1008 C1007 1.373 . S
C1009 C993 1.377 . S
C1009 C1007 1.389 1_455 S
C1009 C1010 1.524 . S
C1010 C1009 1.524 . S
C1010 C1011 1.397 1_455 S
C1010 C1015 1.363 . S
C1011 H982 0.950 . S
C1011 C1010 1.397 1_655 S
C1011 C1012 1.335 . S
C1012 H983 0.951 . S
C1012 C1011 1.335 . S
C1012 C1013 1.286 1_655 S
C1013 C1012 1.286 1_455 S
C1013 C1014 1.524 . S
C1013 H1016 0.999 . S
C1014 H984 0.950 . S
C1014 C1013 1.524 . S
C1014 C1015 1.415 . S
C1015 H985 0.950 . S
C1015 C1010 1.363 . S
C1015 C1014 1.415 . S
H1016 C1013 0.999 . S
H1017 C998 0.913 . S
H1018 C1036 0.951 . S
H1019 C1038 0.951 1_545 S
H1020 C1040 0.950 . S
H1021 C1041 0.950 . S
H1022 C1043 0.950 . S
H1023 C1046 0.950 . S
H1024 C1047 0.958 . S
H1025 C1049 0.950 . S
H1026 C1050 0.950 . S
H1027 C1051 0.951 . S
H1028 C1053 0.951 1_565 S
H1029 C1055 0.950 . S
H1030 C1056 0.950 . S
H1031 C1058 0.950 . S
H1032 C1061 0.950 . S
H1033 C1062 0.958 . S
H1034 C1064 0.950 . S
H1035 C1065 0.950 . S
C1036 H1018 0.951 . S
C1036 C1037 1.366 . S
C1036 C1038 1.388 . S
C1037 C1036 1.366 . S
C1037 C1041 1.385 . S
C1038 H1019 0.951 1_565 S
C1038 C1036 1.388 . S
C1038 C1039 1.366 . S
C1039 C1038 1.366 . S
C1039 C1040 1.414 . S
C1039 C1042 1.499 . S
C1040 H1020 0.950 . S
C1040 C1039 1.414 . S
C1040 C1041 1.374 . S
C1041 H1021 0.950 . S
C1041 C1037 1.385 . S
C1041 C1040 1.374 . S
C1042 C1039 1.499 . S
C1042 C1043 1.373 . S
C1042 C1044 1.389 1_565 S
C1043 H1022 0.950 . S
C1043 C1042 1.373 . S
C1043 C1059 1.377 1_554 S
C1044 C1042 1.389 1_545 S
C1044 C1045 1.524 . S
C1044 C1058 1.377 1_554 S
C1045 C1044 1.524 . S
C1045 C1046 1.397 1_545 S
C1045 C1050 1.363 . S
C1046 H1023 0.950 . S
C1046 C1045 1.397 1_565 S
C1046 C1047 1.346 . S
C1047 H1024 0.958 . S
C1047 C1046 1.346 . S
C1047 C1048 1.268 1_565 S
C1048 C1047 1.268 1_545 S
C1048 C1049 1.524 . S
C1048 H1067 0.913 . S
C1049 H1025 0.950 . S
C1049 C1048 1.524 . S
C1049 C1050 1.415 . S
C1050 H1026 0.950 . S
C1050 C1045 1.363 . S
C1050 C1049 1.415 . S
C1051 H1027 0.951 . S
C1051 C1052 1.366 . S
C1051 C1053 1.388 . S
C1052 C1051 1.366 . S
C1052 C1056 1.385 . S
C1053 H1028 0.951 1_545 S
C1053 C1051 1.388 . S
C1053 C1054 1.366 . S
C1054 C1053 1.366 . S
C1054 C1055 1.414 . S
C1054 C1057 1.499 . S
C1055 H1029 0.950 . S
C1055 C1054 1.414 . S
C1055 C1056 1.374 . S
C1056 H1030 0.950 . S
C1056 C1052 1.385 . S
C1056 C1055 1.374 . S
C1057 C1054 1.499 . S
C1057 C1058 1.373 . S
C1057 C1059 1.389 1_545 S
C1058 H1031 0.950 . S
C1058 C1044 1.377 1_556 S
C1058 C1057 1.373 . S
C1059 C1043 1.377 1_556 S
C1059 C1057 1.389 1_565 S
C1059 C1060 1.524 . S
C1060 C1059 1.524 . S
C1060 C1061 1.397 1_565 S
C1060 C1065 1.363 . S
C1061 H1032 0.950 . S
C1061 C1060 1.397 1_545 S
C1061 C1062 1.346 . S
C1062 H1033 0.958 . S
C1062 C1061 1.346 . S
C1062 C1063 1.267 1_545 S
C1063 C1062 1.267 1_565 S
C1063 C1064 1.524 . S
C1063 H1066 0.999 . S
C1064 H1034 0.950 . S
C1064 C1063 1.524 . S
C1064 C1065 1.415 . S
C1065 H1035 0.950 . S
C1065 C1060 1.363 . S
C1065 C1064 1.415 . S
H1066 C1063 0.999 . S
H1067 C1048 0.913 . S
H1068 C1086 0.951 . S
H1069 C1088 0.951 . S
H1070 C1090 0.950 . S
H1071 C1091 0.950 . S
H1072 C1093 0.950 . S
H1073 C1096 0.950 . S
H1074 C1097 0.950 . S
H1075 C1099 0.950 . S
H1076 C1100 0.950 . S
H1077 C1101 0.951 . S
H1078 C1103 0.951 . S
H1079 C1105 0.950 . S
H1080 C1106 0.950 . S
H1081 C1108 0.950 . S
H1082 C1111 0.950 . S
H1083 C1112 0.950 . S
H1084 C1114 0.950 . S
H1085 C1115 0.950 . S
C1086 H1068 0.951 . S
C1086 C1087 1.366 . S
C1086 C1088 1.388 . S
C1087 C1086 1.366 . S
C1087 C1091 1.385 . S
C1088 H1069 0.951 . S
C1088 C1086 1.388 . S
C1088 C1089 1.366 . S
C1089 C1088 1.366 . S
C1089 C1090 1.414 . S
C1089 C1092 1.499 . S
C1090 H1070 0.950 . S
C1090 C1089 1.414 . S
C1090 C1091 1.374 . S
C1091 H1071 0.950 . S
C1091 C1087 1.385 . S
C1091 C1090 1.374 . S
C1092 C1089 1.499 . S
C1092 C1093 1.373 . S
C1092 C1094 1.389 . S
C1093 H1072 0.950 . S
C1093 C1092 1.373 . S
C1093 C1109 1.377 1_655 S
C1094 C1092 1.389 . S
C1094 C1095 1.524 . S
C1094 C1108 1.377 1_655 S
C1095 C1094 1.524 . S
C1095 C1096 1.397 . S
C1095 C1100 1.363 . S
C1096 H1073 0.950 . S
C1096 C1095 1.397 . S
C1096 C1097 1.334 . S
C1097 H1074 0.950 . S
C1097 C1096 1.334 . S
C1097 C1098 1.287 . S
C1098 C1097 1.287 . S
C1098 C1099 1.524 . S
C1098 H1117 0.913 . S
C1099 H1075 0.950 . S
C1099 C1098 1.524 . S
C1099 C1100 1.415 . S
C1100 H1076 0.950 . S
C1100 C1095 1.363 . S
C1100 C1099 1.415 . S
C1101 H1077 0.951 . S
C1101 C1102 1.366 . S
C1101 C1103 1.388 . S
C1102 C1101 1.366 . S
C1102 C1106 1.385 . S
C1103 H1078 0.951 . S
C1103 C1101 1.388 . S
C1103 C1104 1.366 . S
C1104 C1103 1.366 . S
C1104 C1105 1.414 . S
C1104 C1107 1.499 . S
C1105 H1079 0.950 . S
C1105 C1104 1.414 . S
C1105 C1106 1.374 . S
C1106 H1080 0.950 . S
C1106 C1102 1.385 . S
C1106 C1105 1.374 . S
C1107 C1104 1.499 . S
C1107 C1108 1.373 . S
C1107 C1109 1.389 . S
C1108 H1081 0.950 . S
C1108 C1094 1.377 1_455 S
C1108 C1107 1.373 . S
C1109 C1093 1.377 1_455 S
C1109 C1107 1.389 . S
C1109 C1110 1.524 . S
C1110 C1109 1.524 . S
C1110 C1111 1.397 . S
C1110 C1115 1.363 . S
C1111 H1082 0.950 . S
C1111 C1110 1.397 . S
C1111 C1112 1.334 . S
C1112 H1083 0.950 . S
C1112 C1111 1.334 . S
C1112 C1113 1.287 . S
C1113 C1112 1.287 . S
C1113 C1114 1.524 . S
C1113 H1116 0.999 . S
C1114 H1084 0.950 . S
C1114 C1113 1.524 . S
C1114 C1115 1.415 . S
C1115 H1085 0.950 . S
C1115 C1110 1.363 . S
C1115 C1114 1.415 . S
H1116 C1113 0.999 . S
H1117 C1098 0.913 . S
H1118 C1136 0.951 . S
H1119 C1138 0.951 . S
H1120 C1140 0.950 . S
H1121 C1141 0.950 . S
H1122 C1143 0.950 . S
H1123 C1146 0.950 . S
H1124 C1147 0.950 . S
H1125 C1149 0.950 . S
H1126 C1150 0.950 . S
H1127 C1151 0.951 . S
H1128 C1153 0.951 . S
H1129 C1155 0.950 . S
H1130 C1156 0.950 . S
H1131 C1158 0.950 . S
H1132 C1161 0.950 . S
H1133 C1162 0.950 . S
H1134 C1164 0.950 . S
H1135 C1165 0.950 . S
C1136 H1118 0.951 . S
C1136 C1137 1.366 . S
C1136 C1138 1.388 . S
C1137 C1136 1.366 . S
C1137 C1141 1.385 . S
C1138 H1119 0.951 . S
C1138 C1136 1.388 . S
C1138 C1139 1.366 . S
C1139 C1138 1.366 . S
C1139 C1140 1.414 . S
C1139 C1142 1.499 . S
C1140 H1120 0.950 . S
C1140 C1139 1.414 . S
C1140 C1141 1.374 . S
C1141 H1121 0.950 . S
C1141 C1137 1.385 . S
C1141 C1140 1.374 . S
C1142 C1139 1.499 . S
C1142 C1143 1.373 . S
C1142 C1144 1.389 . S
C1143 H1122 0.950 . S
C1143 C1142 1.373 . S
C1143 C1159 1.377 1_545 S
C1144 C1142 1.389 . S
C1144 C1145 1.524 . S
C1144 C1158 1.377 1_545 S
C1145 C1144 1.524 . S
C1145 C1146 1.397 . S
C1145 C1150 1.363 . S
C1146 H1123 0.950 . S
C1146 C1145 1.397 . S
C1146 C1147 1.334 . S
C1147 H1124 0.950 . S
C1147 C1146 1.334 . S
C1147 C1148 1.287 . S
C1148 C1147 1.287 . S
C1148 C1149 1.524 . S
C1148 H1167 0.913 . S
C1149 H1125 0.950 . S
C1149 C1148 1.524 . S
C1149 C1150 1.415 . S
C1150 H1126 0.950 . S
C1150 C1145 1.363 . S
C1150 C1149 1.415 . S
C1151 H1127 0.951 . S
C1151 C1152 1.366 . S
C1151 C1153 1.388 . S
C1152 C1151 1.366 . S
C1152 C1156 1.385 . S
C1153 H1128 0.951 . S
C1153 C1151 1.388 . S
C1153 C1154 1.366 . S
C1154 C1153 1.366 . S
C1154 C1155 1.414 . S
C1154 C1157 1.499 . S
C1155 H1129 0.950 . S
C1155 C1154 1.414 . S
C1155 C1156 1.374 . S
C1156 H1130 0.950 . S
C1156 C1152 1.385 . S
C1156 C1155 1.374 . S
C1157 C1154 1.499 . S
C1157 C1158 1.373 . S
C1157 C1159 1.389 . S
C1158 H1131 0.950 . S
C1158 C1144 1.377 1_565 S
C1158 C1157 1.373 . S
C1159 C1143 1.377 1_565 S
C1159 C1157 1.389 . S
C1159 C1160 1.524 . S
C1160 C1159 1.524 . S
C1160 C1161 1.397 . S
C1160 C1165 1.363 . S
C1161 H1132 0.950 . S
C1161 C1160 1.397 . S
C1161 C1162 1.334 . S
C1162 H1133 0.950 . S
C1162 C1161 1.334 . S
C1162 C1163 1.287 . S
C1163 C1162 1.287 . S
C1163 C1164 1.524 . S
C1163 H1166 0.999 . S
C1164 H1134 0.950 . S
C1164 C1163 1.524 . S
C1164 C1165 1.415 . S
C1165 H1135 0.950 . S
C1165 C1160 1.363 . S
C1165 C1164 1.415 . S
H1166 C1163 0.999 . S
H1167 C1148 0.913 . S
H1168 C1186 0.951 . S
H1169 C1188 0.951 . S
H1170 C1190 0.950 . S
H1171 C1191 0.950 . S
H1172 C1193 0.950 . S
H1173 C1196 0.950 . S
H1174 C1197 0.950 . S
H1175 C1199 0.950 . S
H1176 C1200 0.950 . S
H1177 C1201 0.951 . S
H1178 C1203 0.951 . S
H1179 C1205 0.950 . S
H1180 C1206 0.950 . S
H1181 C1208 0.950 . S
H1182 C1211 0.950 . S
H1183 C1212 0.950 . S
H1184 C1214 0.950 . S
H1185 C1215 0.950 . S
C1186 H1168 0.951 . S
C1186 C1187 1.366 . S
C1186 C1188 1.388 . S
C1187 C1186 1.366 . S
C1187 C1191 1.385 . S
C1188 H1169 0.951 . S
C1188 C1186 1.388 . S
C1188 C1189 1.366 . S
C1189 C1188 1.366 . S
C1189 C1190 1.414 . S
C1189 C1192 1.499 . S
C1190 H1170 0.950 . S
C1190 C1189 1.414 . S
C1190 C1191 1.374 . S
C1191 H1171 0.950 . S
C1191 C1187 1.385 . S
C1191 C1190 1.374 . S
C1192 C1189 1.499 . S
C1192 C1193 1.373 . S
C1192 C1194 1.389 . S
C1193 H1172 0.950 . S
C1193 C1192 1.373 . S
C1193 C1209 1.377 . S
C1194 C1192 1.389 . S
C1194 C1195 1.524 . S
C1194 C1208 1.377 . S
C1195 C1194 1.524 . S
C1195 C1196 1.397 . S
C1195 C1200 1.363 . S
C1196 H1173 0.950 . S
C1196 C1195 1.397 . S
C1196 C1197 1.334 . S
C1197 H1174 0.950 . S
C1197 C1196 1.334 . S
C1197 C1198 1.287 . S
C1198 C1197 1.287 . S
C1198 C1199 1.524 . S
C1198 H1217 0.913 . S
C1199 H1175 0.950 . S
C1199 C1198 1.524 . S
C1199 C1200 1.415 . S
C1200 H1176 0.950 . S
C1200 C1195 1.363 . S
C1200 C1199 1.415 . S
C1201 H1177 0.951 . S
C1201 C1202 1.366 . S
C1201 C1203 1.388 . S
C1202 C1201 1.366 . S
C1202 C1206 1.385 . S
C1203 H1178 0.951 . S
C1203 C1201 1.388 . S
C1203 C1204 1.366 . S
C1204 C1203 1.366 . S
C1204 C1205 1.414 . S
C1204 C1207 1.499 . S
C1205 H1179 0.950 . S
C1205 C1204 1.414 . S
C1205 C1206 1.374 . S
C1206 H1180 0.950 . S
C1206 C1202 1.385 . S
C1206 C1205 1.374 . S
C1207 C1204 1.499 . S
C1207 C1208 1.373 . S
C1207 C1209 1.389 . S
C1208 H1181 0.950 . S
C1208 C1194 1.377 . S
C1208 C1207 1.373 . S
C1209 C1193 1.377 . S
C1209 C1207 1.389 . S
C1209 C1210 1.524 . S
C1210 C1209 1.524 . S
C1210 C1211 1.397 . S
C1210 C1215 1.363 . S
C1211 H1182 0.950 . S
C1211 C1210 1.397 . S
C1211 C1212 1.334 . S
C1212 H1183 0.950 . S
C1212 C1211 1.334 . S
C1212 C1213 1.287 . S
C1213 C1212 1.287 . S
C1213 C1214 1.524 . S
C1213 H1216 0.999 . S
C1214 H1184 0.950 . S
C1214 C1213 1.524 . S
C1214 C1215 1.415 . S
C1215 H1185 0.950 . S
C1215 C1210 1.363 . S
C1215 C1214 1.415 . S
H1216 C1213 0.999 . S
H1217 C1198 0.913 . S
H1218 C1236 0.951 . S
H1219 C1238 0.951 . S
H1220 C1240 0.950 . S
H1221 C1241 0.950 . S
H1222 C1243 0.950 . S
H1223 C1246 0.950 . S
H1224 C1247 0.950 . S
H1225 C1249 0.950 . S
H1226 C1250 0.950 . S
H1227 C1251 0.951 . S
H1228 C1253 0.951 . S
H1229 C1255 0.950 . S
H1230 C1256 0.950 . S
H1231 C1258 0.950 . S
H1232 C1261 0.950 . S
H1233 C1262 0.950 . S
H1234 C1264 0.950 . S
H1235 C1265 0.950 . S
C1236 H1218 0.951 . S
C1236 C1237 1.366 . S
C1236 C1238 1.388 . S
C1237 C1236 1.366 . S
C1237 C1241 1.385 . S
C1238 H1219 0.951 . S
C1238 C1236 1.388 . S
C1238 C1239 1.366 . S
C1239 C1238 1.366 . S
C1239 C1240 1.414 . S
C1239 C1242 1.499 . S
C1240 H1220 0.950 . S
C1240 C1239 1.414 . S
C1240 C1241 1.374 . S
C1241 H1221 0.950 . S
C1241 C1237 1.385 . S
C1241 C1240 1.374 . S
C1242 C1239 1.499 . S
C1242 C1243 1.373 . S
C1242 C1244 1.389 . S
C1243 H1222 0.950 . S
C1243 C1242 1.373 . S
C1243 C1259 1.377 1_655 S
C1244 C1242 1.389 . S
C1244 C1245 1.524 . S
C1244 C1258 1.377 1_655 S
C1245 C1244 1.524 . S
C1245 C1246 1.397 . S
C1245 C1250 1.363 . S
C1246 H1223 0.950 . S
C1246 C1245 1.397 . S
C1246 C1247 1.334 . S
C1247 H1224 0.950 . S
C1247 C1246 1.334 . S
C1247 C1248 1.287 . S
C1248 C1247 1.287 . S
C1248 C1249 1.524 . S
C1248 H1267 0.913 . S
C1249 H1225 0.950 . S
C1249 C1248 1.524 . S
C1249 C1250 1.415 . S
C1250 H1226 0.950 . S
C1250 C1245 1.363 . S
C1250 C1249 1.415 . S
C1251 H1227 0.951 . S
C1251 C1252 1.366 . S
C1251 C1253 1.388 . S
C1252 C1251 1.366 . S
C1252 C1256 1.385 . S
C1253 H1228 0.951 . S
C1253 C1251 1.388 . S
C1253 C1254 1.366 . S
C1254 C1253 1.366 . S
C1254 C1255 1.414 . S
C1254 C1257 1.499 . S
C1255 H1229 0.950 . S
C1255 C1254 1.414 . S
C1255 C1256 1.374 . S
C1256 H1230 0.950 . S
C1256 C1252 1.385 . S
C1256 C1255 1.374 . S
C1257 C1254 1.499 . S
C1257 C1258 1.373 . S
C1257 C1259 1.389 . S
C1258 H1231 0.950 . S
C1258 C1244 1.377 1_455 S
C1258 C1257 1.373 . S
C1259 C1243 1.377 1_455 S
C1259 C1257 1.389 . S
C1259 C1260 1.524 . S
C1260 C1259 1.524 . S
C1260 C1261 1.397 . S
C1260 C1265 1.363 . S
C1261 H1232 0.950 . S
C1261 C1260 1.397 . S
C1261 C1262 1.334 . S
C1262 H1233 0.950 . S
C1262 C1261 1.334 . S
C1262 C1263 1.287 . S
C1263 C1262 1.287 . S
C1263 C1264 1.524 . S
C1263 H1266 0.999 . S
C1264 H1234 0.950 . S
C1264 C1263 1.524 . S
C1264 C1265 1.415 . S
C1265 H1235 0.950 . S
C1265 C1260 1.363 . S
C1265 C1264 1.415 . S
H1266 C1263 0.999 . S
H1267 C1248 0.913 . S
H1268 C1286 0.951 . S
H1269 C1288 0.951 . S
H1270 C1290 0.950 . S
H1271 C1291 0.950 . S
H1272 C1293 0.950 . S
H1273 C1296 0.950 . S
H1274 C1297 0.950 . S
H1275 C1299 0.950 . S
H1276 C1300 0.950 1_545 S
H1277 C1301 0.951 . S
H1278 C1303 0.951 . S
H1279 C1305 0.950 . S
H1280 C1306 0.950 . S
H1281 C1308 0.950 . S
H1282 C1311 0.950 . S
H1283 C1312 0.950 . S
H1284 C1314 0.950 . S
H1285 C1315 0.950 1_565 S
C1286 H1268 0.951 . S
C1286 C1287 1.366 . S
C1286 C1288 1.388 . S
C1287 C1286 1.366 . S
C1287 C1291 1.385 . S
C1288 H1269 0.951 . S
C1288 C1286 1.388 . S
C1288 C1289 1.366 . S
C1289 C1288 1.366 . S
C1289 C1290 1.414 . S
C1289 C1292 1.499 . S
C1290 H1270 0.950 . S
C1290 C1289 1.414 . S
C1290 C1291 1.374 . S
C1291 H1271 0.950 . S
C1291 C1287 1.385 . S
C1291 C1290 1.374 . S
C1292 C1289 1.499 . S
C1292 C1293 1.373 . S
C1292 C1294 1.389 . S
C1293 H1272 0.950 . S
C1293 C1292 1.373 . S
C1293 C1309 1.377 1_565 S
C1294 C1292 1.389 . S
C1294 C1295 1.524 . S
C1294 C1308 1.377 1_565 S
C1295 C1294 1.524 . S
C1295 C1296 1.397 . S
C1295 C1300 1.363 . S
C1296 H1273 0.950 . S
C1296 C1295 1.397 . S
C1296 C1297 1.334 . S
C1297 H1274 0.950 . S
C1297 C1296 1.334 . S
C1297 C1298 1.287 . S
C1298 C1297 1.287 . S
C1298 C1299 1.524 . S
C1298 H1317 0.913 . S
C1299 H1275 0.950 . S
C1299 C1298 1.524 . S
C1299 C1300 1.415 . S
C1300 H1276 0.950 1_565 S
C1300 C1295 1.363 . S
C1300 C1299 1.415 . S
C1301 H1277 0.951 . S
C1301 C1302 1.366 . S
C1301 C1303 1.388 . S
C1302 C1301 1.366 . S
C1302 C1306 1.385 . S
C1303 H1278 0.951 . S
C1303 C1301 1.388 . S
C1303 C1304 1.366 . S
C1304 C1303 1.366 . S
C1304 C1305 1.414 . S
C1304 C1307 1.499 . S
C1305 H1279 0.950 . S
C1305 C1304 1.414 . S
C1305 C1306 1.374 . S
C1306 H1280 0.950 . S
C1306 C1302 1.385 . S
C1306 C1305 1.374 . S
C1307 C1304 1.499 . S
C1307 C1308 1.373 . S
C1307 C1309 1.389 . S
C1308 H1281 0.950 . S
C1308 C1294 1.377 1_545 S
C1308 C1307 1.373 . S
C1309 C1293 1.377 1_545 S
C1309 C1307 1.389 . S
C1309 C1310 1.524 . S
C1310 C1309 1.524 . S
C1310 C1311 1.397 . S
C1310 C1315 1.363 . S
C1311 H1282 0.950 . S
C1311 C1310 1.397 . S
C1311 C1312 1.334 . S
C1312 H1283 0.950 . S
C1312 C1311 1.334 . S
C1312 C1313 1.287 . S
C1313 C1312 1.287 . S
C1313 C1314 1.524 . S
C1313 H1316 0.999 . S
C1314 H1284 0.950 . S
C1314 C1313 1.524 . S
C1314 C1315 1.415 . S
C1315 H1285 0.950 1_545 S
C1315 C1310 1.363 . S
C1315 C1314 1.415 . S
H1316 C1313 0.999 . S
H1317 C1298 0.913 . S
H1318 C1336 0.951 . S
H1319 C1338 0.951 . S
H1320 C1340 0.950 . S
H1321 C1341 0.950 . S
H1322 C1343 0.950 . S
H1323 C1346 0.950 . S
H1324 C1347 0.950 . S
H1325 C1349 0.950 . S
H1326 C1350 0.950 . S
H1327 C1351 0.951 . S
H1328 C1353 0.951 . S
H1329 C1355 0.950 . S
H1330 C1356 0.950 . S
H1331 C1358 0.950 . S
H1332 C1361 0.950 . S
H1333 C1362 0.950 . S
H1334 C1364 0.950 . S
H1335 C1365 0.950 . S
C1336 H1318 0.951 . S
C1336 C1337 1.366 . S
C1336 C1338 1.388 . S
C1337 C1336 1.366 . S
C1337 C1341 1.385 . S
C1338 H1319 0.951 . S
C1338 C1336 1.388 . S
C1338 C1339 1.366 . S
C1339 C1338 1.366 . S
C1339 C1340 1.414 . S
C1339 C1342 1.499 . S
C1340 H1320 0.950 . S
C1340 C1339 1.414 . S
C1340 C1341 1.374 . S
C1341 H1321 0.950 . S
C1341 C1337 1.385 . S
C1341 C1340 1.374 . S
C1342 C1339 1.499 . S
C1342 C1343 1.373 . S
C1342 C1344 1.389 . S
C1343 H1322 0.950 . S
C1343 C1342 1.373 . S
C1343 C1359 1.377 . S
C1344 C1342 1.389 . S
C1344 C1345 1.524 . S
C1344 C1358 1.377 . S
C1345 C1344 1.524 . S
C1345 C1346 1.397 . S
C1345 C1350 1.363 . S
C1346 H1323 0.950 . S
C1346 C1345 1.397 . S
C1346 C1347 1.334 . S
C1347 H1324 0.950 . S
C1347 C1346 1.334 . S
C1347 C1348 1.287 . S
C1348 C1347 1.287 . S
C1348 C1349 1.524 . S
C1348 H1367 0.913 . S
C1349 H1325 0.950 . S
C1349 C1348 1.524 . S
C1349 C1350 1.415 . S
C1350 H1326 0.950 . S
C1350 C1345 1.363 . S
C1350 C1349 1.415 . S
C1351 H1327 0.951 . S
C1351 C1352 1.366 . S
C1351 C1353 1.388 . S
C1352 C1351 1.366 . S
C1352 C1356 1.385 . S
C1353 H1328 0.951 . S
C1353 C1351 1.388 . S
C1353 C1354 1.366 . S
C1354 C1353 1.366 . S
C1354 C1355 1.414 . S
C1354 C1357 1.499 . S
C1355 H1329 0.950 . S
C1355 C1354 1.414 . S
C1355 C1356 1.374 . S
C1356 H1330 0.950 . S
C1356 C1352 1.385 . S
C1356 C1355 1.374 . S
C1357 C1354 1.499 . S
C1357 C1358 1.373 . S
C1357 C1359 1.389 . S
C1358 H1331 0.950 . S
C1358 C1344 1.377 . S
C1358 C1357 1.373 . S
C1359 C1343 1.377 . S
C1359 C1357 1.389 . S
C1359 C1360 1.524 . S
C1360 C1359 1.524 . S
C1360 C1361 1.397 . S
C1360 C1365 1.363 . S
C1361 H1332 0.950 . S
C1361 C1360 1.397 . S
C1361 C1362 1.334 . S
C1362 H1333 0.950 . S
C1362 C1361 1.334 . S
C1362 C1363 1.287 . S
C1363 C1362 1.287 . S
C1363 C1364 1.524 . S
C1363 H1366 0.999 . S
C1364 H1334 0.950 . S
C1364 C1363 1.524 . S
C1364 C1365 1.415 . S
C1365 H1335 0.950 . S
C1365 C1360 1.363 . S
C1365 C1364 1.415 . S
H1366 C1363 0.999 . S
H1367 C1348 0.913 . S
C187 C112 2.263 . S
C202 C1 2.260 . S
C237 C27 2.261 . S
C252 C126 2.264 . S
C287 C29 2.261 . S
C302 C141 2.261 . S
C337 C43 2.260 . S
C352 C154 2.264 . S
C387 C84 2.264 . S
C402 C57 2.260 . S
C437 C71 2.261 . S
C452 C99 2.261 . S
C487 C55 1.445 . S
C502 C13 1.445 . S
C537 C69 1.445 . S
C552 C15 1.445 . S
C587 C83 1.445 . S
C602 C41 1.445 . S
C637 C96 1.446 . S
C652 C138 1.446 . S
C687 C111 1.445 . S
C702 C153 1.445 . S
C737 C124 1.446 . S
C752 C166 1.446 . S
C787 C0 1.850 . S
C802 C127 1.847 . S
C837 C26 1.851 . S
C852 C140 1.851 . S
C887 C28 1.851 . S
C902 C155 1.848 . S
C937 C85 1.848 . S
C952 C42 1.851 . S
C987 C56 1.850 . S
C1002 C98 1.851 . S
C1037 C113 1.847 . S
C1052 C70 1.851 . S
C1087 C167 1.381 . S
C1102 C12 1.382 . S
C1137 C14 1.382 . S
C1152 C97 1.381 . S
C1187 C110 1.382 . S
C1202 C40 1.382 . S
C1237 C54 1.382 . S
C1252 C125 1.381 . S
C1287 C68 1.382 . S
C1302 C139 1.381 . S
C1337 C152 1.382 . S
C1352 C82 1.382 . S
