# Generated by pormake.
# Topology ukd, (4)-cn, num edge types: 1
# Building blocks:
#     Node 0, Type 0, BuildingBlock: CEKHIL_clean_sbu_0, # of connection points: 4
#     Node 1, Type 0, BuildingBlock: CEKHIL_clean_sbu_0, # of connection points: 4
#     Node 2, Type 0, BuildingBlock: CEKHIL_clean_sbu_0, # of connection points: 4
#     Node 3, Type 0, BuildingBlock: CEKHIL_clean_sbu_0, # of connection points: 4
#     Node 4, Type 0, BuildingBlock: CEKHIL_clean_sbu_0, # of connection points: 4
#     Node 5, Type 0, BuildingBlock: CEKHIL_clean_sbu_0, # of connection points: 4
#     Node 6, Type 0, BuildingBlock: CEKHIL_clean_sbu_0, # of connection points: 4
#     Node 7, Type 0, BuildingBlock: CEKHIL_clean_sbu_0, # of connection points: 4
#     Node 8, Type 0, BuildingBlock: CEKHIL_clean_sbu_0, # of connection points: 4
#     Node 9, Type 0, BuildingBlock: CEKHIL_clean_sbu_0, # of connection points: 4
#     Node 10, Type 0, BuildingBlock: CEKHIL_clean_sbu_0, # of connection points: 4
#     Node 11, Type 0, BuildingBlock: CEKHIL_clean_sbu_0, # of connection points: 4
#     Node 12, Type 0, BuildingBlock: CEKHIL_clean_sbu_0, # of connection points: 4
#     Node 13, Type 0, BuildingBlock: CEKHIL_clean_sbu_0, # of connection points: 4
#     Node 14, Type 0, BuildingBlock: CEKHIL_clean_sbu_0, # of connection points: 4
#     Node 15, Type 0, BuildingBlock: CEKHIL_clean_sbu_0, # of connection points: 4
#     Node 16, Type 0, BuildingBlock: CEKHIL_clean_sbu_0, # of connection points: 4
#     Node 17, Type 0, BuildingBlock: CEKHIL_clean_sbu_0, # of connection points: 4
#     Node 18, Type 0, BuildingBlock: CEKHIL_clean_sbu_0, # of connection points: 4
#     Node 19, Type 0, BuildingBlock: CEKHIL_clean_sbu_0, # of connection points: 4
#     Node 20, Type 0, BuildingBlock: CEKHIL_clean_sbu_0, # of connection points: 4
#     Node 21, Type 0, BuildingBlock: CEKHIL_clean_sbu_0, # of connection points: 4
#     Node 22, Type 0, BuildingBlock: CEKHIL_clean_sbu_0, # of connection points: 4
#     Node 23, Type 0, BuildingBlock: CEKHIL_clean_sbu_0, # of connection points: 4
#     Node 24, Type 0, BuildingBlock: CEKHIL_clean_sbu_0, # of connection points: 4
#     Node 25, Type 0, BuildingBlock: CEKHIL_clean_sbu_0, # of connection points: 4
#     Node 26, Type 0, BuildingBlock: CEKHIL_clean_sbu_0, # of connection points: 4
#     Node 27, Type 0, BuildingBlock: CEKHIL_clean_sbu_0, # of connection points: 4
#     Node 28, Type 0, BuildingBlock: CEKHIL_clean_sbu_0, # of connection points: 4
#     Node 29, Type 0, BuildingBlock: CEKHIL_clean_sbu_0, # of connection points: 4
#     Node 30, Type 0, BuildingBlock: CEKHIL_clean_sbu_0, # of connection points: 4
#     Node 31, Type 0, BuildingBlock: CEKHIL_clean_sbu_0, # of connection points: 4
#     Edge 32, Type (0, 0), BuildingBlock: MIFKUJ_clean_linker_0, # of connection points: 2
#     Edge 33, Type (0, 0), BuildingBlock: MIFKUJ_clean_linker_0, # of connection points: 2
#     Edge 34, Type (0, 0), BuildingBlock: MIFKUJ_clean_linker_0, # of connection points: 2
#     Edge 35, Type (0, 0), BuildingBlock: MIFKUJ_clean_linker_0, # of connection points: 2
#     Edge 36, Type (0, 0), BuildingBlock: MIFKUJ_clean_linker_0, # of connection points: 2
#     Edge 37, Type (0, 0), BuildingBlock: MIFKUJ_clean_linker_0, # of connection points: 2
#     Edge 38, Type (0, 0), BuildingBlock: MIFKUJ_clean_linker_0, # of connection points: 2
#     Edge 39, Type (0, 0), BuildingBlock: MIFKUJ_clean_linker_0, # of connection points: 2
#     Edge 40, Type (0, 0), BuildingBlock: MIFKUJ_clean_linker_0, # of connection points: 2
#     Edge 41, Type (0, 0), BuildingBlock: MIFKUJ_clean_linker_0, # of connection points: 2
#     Edge 42, Type (0, 0), BuildingBlock: MIFKUJ_clean_linker_0, # of connection points: 2
#     Edge 43, Type (0, 0), BuildingBlock: MIFKUJ_clean_linker_0, # of connection points: 2
#     Edge 44, Type (0, 0), BuildingBlock: MIFKUJ_clean_linker_0, # of connection points: 2
#     Edge 45, Type (0, 0), BuildingBlock: MIFKUJ_clean_linker_0, # of connection points: 2
#     Edge 46, Type (0, 0), BuildingBlock: MIFKUJ_clean_linker_0, # of connection points: 2
#     Edge 47, Type (0, 0), BuildingBlock: MIFKUJ_clean_linker_0, # of connection points: 2
#     Edge 48, Type (0, 0), BuildingBlock: MIFKUJ_clean_linker_0, # of connection points: 2
#     Edge 49, Type (0, 0), BuildingBlock: MIFKUJ_clean_linker_0, # of connection points: 2
#     Edge 50, Type (0, 0), BuildingBlock: MIFKUJ_clean_linker_0, # of connection points: 2
#     Edge 51, Type (0, 0), BuildingBlock: MIFKUJ_clean_linker_0, # of connection points: 2
#     Edge 52, Type (0, 0), BuildingBlock: MIFKUJ_clean_linker_0, # of connection points: 2
#     Edge 53, Type (0, 0), BuildingBlock: MIFKUJ_clean_linker_0, # of connection points: 2
#     Edge 54, Type (0, 0), BuildingBlock: MIFKUJ_clean_linker_0, # of connection points: 2
#     Edge 55, Type (0, 0), BuildingBlock: MIFKUJ_clean_linker_0, # of connection points: 2
#     Edge 56, Type (0, 0), BuildingBlock: MIFKUJ_clean_linker_0, # of connection points: 2
#     Edge 57, Type (0, 0), BuildingBlock: MIFKUJ_clean_linker_0, # of connection points: 2
#     Edge 58, Type (0, 0), BuildingBlock: MIFKUJ_clean_linker_0, # of connection points: 2
#     Edge 59, Type (0, 0), BuildingBlock: MIFKUJ_clean_linker_0, # of connection points: 2
#     Edge 60, Type (0, 0), BuildingBlock: MIFKUJ_clean_linker_0, # of connection points: 2
#     Edge 61, Type (0, 0), BuildingBlock: MIFKUJ_clean_linker_0, # of connection points: 2
#     Edge 62, Type (0, 0), BuildingBlock: MIFKUJ_clean_linker_0, # of connection points: 2
#     Edge 63, Type (0, 0), BuildingBlock: MIFKUJ_clean_linker_0, # of connection points: 2
#     Edge 64, Type (0, 0), BuildingBlock: MIFKUJ_clean_linker_0, # of connection points: 2
#     Edge 65, Type (0, 0), BuildingBlock: MIFKUJ_clean_linker_0, # of connection points: 2
#     Edge 66, Type (0, 0), BuildingBlock: MIFKUJ_clean_linker_0, # of connection points: 2
#     Edge 67, Type (0, 0), BuildingBlock: MIFKUJ_clean_linker_0, # of connection points: 2
#     Edge 68, Type (0, 0), BuildingBlock: MIFKUJ_clean_linker_0, # of connection points: 2
#     Edge 69, Type (0, 0), BuildingBlock: MIFKUJ_clean_linker_0, # of connection points: 2
#     Edge 70, Type (0, 0), BuildingBlock: MIFKUJ_clean_linker_0, # of connection points: 2
#     Edge 71, Type (0, 0), BuildingBlock: MIFKUJ_clean_linker_0, # of connection points: 2
#     Edge 72, Type (0, 0), BuildingBlock: MIFKUJ_clean_linker_0, # of connection points: 2
#     Edge 73, Type (0, 0), BuildingBlock: MIFKUJ_clean_linker_0, # of connection points: 2
#     Edge 74, Type (0, 0), BuildingBlock: MIFKUJ_clean_linker_0, # of connection points: 2
#     Edge 75, Type (0, 0), BuildingBlock: MIFKUJ_clean_linker_0, # of connection points: 2
#     Edge 76, Type (0, 0), BuildingBlock: MIFKUJ_clean_linker_0, # of connection points: 2
#     Edge 77, Type (0, 0), BuildingBlock: MIFKUJ_clean_linker_0, # of connection points: 2
#     Edge 78, Type (0, 0), BuildingBlock: MIFKUJ_clean_linker_0, # of connection points: 2
#     Edge 79, Type (0, 0), BuildingBlock: MIFKUJ_clean_linker_0, # of connection points: 2
#     Edge 80, Type (0, 0), BuildingBlock: MIFKUJ_clean_linker_0, # of connection points: 2
#     Edge 81, Type (0, 0), BuildingBlock: MIFKUJ_clean_linker_0, # of connection points: 2
#     Edge 82, Type (0, 0), BuildingBlock: MIFKUJ_clean_linker_0, # of connection points: 2
#     Edge 83, Type (0, 0), BuildingBlock: MIFKUJ_clean_linker_0, # of connection points: 2
#     Edge 84, Type (0, 0), BuildingBlock: MIFKUJ_clean_linker_0, # of connection points: 2
#     Edge 85, Type (0, 0), BuildingBlock: MIFKUJ_clean_linker_0, # of connection points: 2
#     Edge 86, Type (0, 0), BuildingBlock: MIFKUJ_clean_linker_0, # of connection points: 2
#     Edge 87, Type (0, 0), BuildingBlock: MIFKUJ_clean_linker_0, # of connection points: 2
#     Edge 88, Type (0, 0), BuildingBlock: MIFKUJ_clean_linker_0, # of connection points: 2
#     Edge 89, Type (0, 0), BuildingBlock: MIFKUJ_clean_linker_0, # of connection points: 2
#     Edge 90, Type (0, 0), BuildingBlock: MIFKUJ_clean_linker_0, # of connection points: 2
#     Edge 91, Type (0, 0), BuildingBlock: MIFKUJ_clean_linker_0, # of connection points: 2
#     Edge 92, Type (0, 0), BuildingBlock: MIFKUJ_clean_linker_0, # of connection points: 2
#     Edge 93, Type (0, 0), BuildingBlock: MIFKUJ_clean_linker_0, # of connection points: 2
#     Edge 94, Type (0, 0), BuildingBlock: MIFKUJ_clean_linker_0, # of connection points: 2
#     Edge 95, Type (0, 0), BuildingBlock: MIFKUJ_clean_linker_0, # of connection points: 2
# Relax obj value: 0.048
# Max RMSD: 0.073
# Mean RMSD: 0.073
data_MOF--net-ukd--node1-CEKHIL_clean_sbu_0--edge1-MIFKUJ_clean_linker_0
_symmetry_space_group_name_H-M    P1
_symmetry_Int_Tables_number       1
_symmetry_cell_setting            triclinic
loop_
_symmetry_equiv_pos_as_xyz
'x, y, z'
_cell_length_a     58.522599
_cell_length_b     58.51634
_cell_length_c     91.571017
_cell_angle_alpha  89.996685
_cell_angle_beta   89.996966
_cell_angle_gamma 90.003064
loop_
_atom_site_label
_atom_site_type_symbol
_atom_site_fract_x
_atom_site_fract_y
_atom_site_fract_z
_atom_type_partial_charge
Co0 Co 0.20741 0.16965 0.33676 0.0
O1 O 0.22321 0.14106 0.33422 0.0
O2 O 0.22378 0.16168 0.35447 0.0
C3 C 0.21842 0.1856 0.31543 0.0
O4 O 0.19407 0.20036 0.34311 0.0
Co5 Co 0.16841 0.18306 0.31544 0.0
O6 O 0.17014 0.21296 0.32563 0.0
C7 C 0.16005 0.14787 0.33774 0.0
C8 C 0.23062 0.14356 0.34748 0.0
C9 C 0.18094 0.21582 0.33759 0.0
O10 O 0.17924 0.15289 0.34385 0.0
O11 O 0.15366 0.15636 0.32552 0.0
O12 O 0.23191 0.18593 0.3267 0.0
O13 O 0.2 0.17367 0.31698 0.0
Co14 Co 0.08259 0.96006 0.5849 0.0
O15 O 0.11232 0.97388 0.58266 0.0
O16 O 0.0914 0.97533 0.60277 0.0
C17 C 0.06783 0.97281 0.56365 0.0
O18 O 0.05092 0.94905 0.59125 0.0
Co19 Co 0.06432 0.92329 0.56355 0.0
O20 O 0.03439 0.93022 0.57268 0.0
C21 C 0.09732 0.91003 0.58654 0.0
C22 C 0.10998 0.98122 0.59596 0.0
C23 C 0.03338 0.93963 0.58521 0.0
O24 O 0.0972 0.93053 0.59166 0.0
O25 O 0.08614 0.90399 0.57515 0.0
O26 O 0.06831 0.98593 0.57509 0.0
O27 O 0.07802 0.95333 0.56502 0.0
Co28 Co 0.29203 0.83181 0.83497 0.0
O29 O 0.27767 0.86125 0.8331 0.0
O30 O 0.27689 0.84 0.85308 0.0
C31 C 0.27914 0.81719 0.8137 0.0
O32 O 0.30415 0.80026 0.84068 0.0
Co33 Co 0.32909 0.81672 0.81267 0.0
O34 O 0.32473 0.78635 0.82193 0.0
C35 C 0.34098 0.85005 0.8356 0.0
C36 C 0.27063 0.85863 0.84643 0.0
C37 C 0.31514 0.78392 0.83434 0.0
O38 O 0.32139 0.84675 0.84168 0.0
O39 O 0.34656 0.84117 0.82332 0.0
O40 O 0.26619 0.81723 0.82522 0.0
O41 O 0.29828 0.82801 0.81503 0.0
Co42 Co 0.41959 0.04426 0.08672 0.0
O43 O 0.39056 0.029 0.08499 0.0
O44 O 0.41196 0.0291 0.10492 0.0
C45 C 0.43453 0.03145 0.06549 0.0
O46 O 0.45078 0.05739 0.09238 0.0
Co47 Co 0.43354 0.08132 0.06405 0.0
O48 O 0.46295 0.0814 0.07477 0.0
C49 C 0.39982 0.09259 0.08691 0.0
C50 C 0.39346 0.02227 0.09836 0.0
C51 C 0.46588 0.07086 0.08681 0.0
O52 O 0.40366 0.07328 0.09322 0.0
O53 O 0.40854 0.098 0.07456 0.0
O54 O 0.435 0.01874 0.07711 0.0
O55 O 0.42314 0.05026 0.0667 0.0
Co56 Co 0.20982 0.82986 0.16372 0.0
O57 O 0.22458 0.859 0.16654 0.0
O58 O 0.22492 0.83935 0.14589 0.0
C59 C 0.22275 0.81351 0.18449 0.0
O60 O 0.19744 0.79905 0.15678 0.0
Co61 Co 0.17316 0.81194 0.18539 0.0
O62 O 0.178 0.78245 0.17512 0.0
C63 C 0.16096 0.84794 0.16406 0.0
C64 C 0.23151 0.85732 0.15312 0.0
C65 C 0.18709 0.78176 0.16248 0.0
O66 O 0.18052 0.84568 0.15775 0.0
O67 O 0.15558 0.83735 0.17581 0.0
O68 O 0.23558 0.81419 0.17293 0.0
O69 O 0.20361 0.82438 0.18352 0.0
Co70 Co 0.42002 0.95943 0.41541 0.0
O71 O 0.39049 0.97346 0.41775 0.0
O72 O 0.41116 0.97492 0.39755 0.0
C73 C 0.43494 0.97201 0.43667 0.0
O74 O 0.45155 0.94798 0.40921 0.0
Co75 Co 0.4365 0.92212 0.43703 0.0
O76 O 0.46659 0.92731 0.42754 0.0
C77 C 0.40255 0.91023 0.41447 0.0
C78 C 0.39269 0.9809 0.40448 0.0
C79 C 0.46837 0.93728 0.41521 0.0
O80 O 0.40529 0.93003 0.40855 0.0
O81 O 0.41193 0.90451 0.42657 0.0
O82 O 0.43459 0.98516 0.42525 0.0
O83 O 0.42436 0.95275 0.43529 0.0
Co84 Co 0.29449 0.16978 0.6646 0.0
O85 O 0.27836 0.14147 0.66739 0.0
O86 O 0.27916 0.16087 0.64667 0.0
C87 C 0.28226 0.18675 0.68533 0.0
O88 O 0.30852 0.20003 0.65792 0.0
Co89 Co 0.33213 0.18441 0.68654 0.0
O90 O 0.32958 0.21428 0.67634 0.0
C91 C 0.34219 0.14857 0.66486 0.0
C92 C 0.27179 0.14319 0.65391 0.0
C93 C 0.32028 0.21624 0.66381 0.0
O94 O 0.32293 0.15258 0.65855 0.0
O95 O 0.34816 0.15804 0.67688 0.0
O96 O 0.26953 0.18676 0.67371 0.0
O97 O 0.30071 0.1747 0.68447 0.0
Co98 Co 0.08137 0.0419 0.91568 0.0
O99 O 0.10983 0.02596 0.91844 0.0
O100 O 0.08999 0.02614 0.89788 0.0
C101 C 0.06474 0.03022 0.93663 0.0
O102 O 0.05093 0.05546 0.90899 0.0
Co103 Co 0.06662 0.08011 0.93719 0.0
O104 O 0.03679 0.07741 0.92701 0.0
C105 C 0.102 0.08991 0.91513 0.0
C106 C 0.1078 0.01898 0.90505 0.0
C107 C 0.03476 0.06752 0.91466 0.0
O108 O 0.0983 0.07029 0.90919 0.0
O109 O 0.09246 0.09623 0.92706 0.0
O110 O 0.06474 0.01711 0.92518 0.0
O111 O 0.07665 0.04873 0.93548 0.0
Co112 Co 0.79393 0.83541 0.66488 0.0
O113 O 0.77716 0.86335 0.66767 0.0
O114 O 0.77814 0.84371 0.64702 0.0
C115 C 0.78265 0.8183 0.68578 0.0
O116 O 0.80832 0.80533 0.65825 0.0
Co117 Co 0.83268 0.8225 0.68652 0.0
O118 O 0.83388 0.7937 0.67511 0.0
C119 C 0.84092 0.85829 0.66463 0.0
C120 C 0.77042 0.86126 0.65424 0.0
C121 C 0.82279 0.79071 0.66329 0.0
O122 O 0.82185 0.85318 0.65841 0.0
O123 O 0.84726 0.84958 0.6768 0.0
O124 O 0.76957 0.81806 0.67432 0.0
O125 O 0.80078 0.83079 0.6847 0.0
Co126 Co 0.91956 0.04003 0.4153 0.0
O127 O 0.89009 0.02585 0.41751 0.0
O128 O 0.91102 0.02446 0.39741 0.0
C129 C 0.93433 0.02767 0.43665 0.0
O130 O 0.95115 0.05158 0.40929 0.0
Co131 Co 0.93545 0.07759 0.43693 0.0
O132 O 0.96573 0.07234 0.42773 0.0
C133 C 0.9018 0.08916 0.41411 0.0
C134 C 0.89249 0.0184 0.40425 0.0
C135 C 0.96783 0.06229 0.41545 0.0
O136 O 0.90469 0.06931 0.40831 0.0
O137 O 0.91109 0.09506 0.42621 0.0
O138 O 0.93414 0.01443 0.42526 0.0
O139 O 0.92362 0.04684 0.43518 0.0
Co140 Co 0.70989 0.17117 0.16529 0.0
O141 O 0.72492 0.14228 0.16832 0.0
O142 O 0.72464 0.16127 0.14742 0.0
C143 C 0.72292 0.18782 0.18591 0.0
O144 O 0.69736 0.20188 0.15824 0.0
Co145 Co 0.67327 0.1892 0.18693 0.0
O146 O 0.67853 0.21868 0.17676 0.0
C147 C 0.66068 0.15366 0.16538 0.0
C148 C 0.73158 0.14361 0.15483 0.0
C149 C 0.68737 0.21931 0.16404 0.0
O150 O 0.68061 0.15519 0.15947 0.0
O151 O 0.65506 0.16466 0.17693 0.0
O152 O 0.73568 0.18703 0.17431 0.0
O153 O 0.70378 0.17691 0.18505 0.0
Co154 Co 0.58084 0.95778 0.91705 0.0
O155 O 0.60899 0.97425 0.91978 0.0
O156 O 0.59025 0.97192 0.89884 0.0
C157 C 0.56343 0.97129 0.93729 0.0
O158 O 0.55069 0.94348 0.91031 0.0
Co159 Co 0.56474 0.92166 0.93964 0.0
O160 O 0.53516 0.9246 0.92925 0.0
C161 C 0.60044 0.90932 0.9182 0.0
C162 C 0.60752 0.98006 0.90614 0.0
C163 C 0.5339 0.93279 0.91638 0.0
O164 O 0.59819 0.92892 0.91195 0.0
O165 O 0.58968 0.90377 0.92986 0.0
O166 O 0.56374 0.98333 0.92537 0.0
O167 O 0.57529 0.95268 0.93696 0.0
Co168 Co 0.79122 0.16762 0.83579 0.0
O169 O 0.77593 0.13872 0.83358 0.0
O170 O 0.77588 0.15932 0.85383 0.0
C171 C 0.77885 0.18314 0.81464 0.0
O172 O 0.80427 0.19865 0.84178 0.0
Co173 Co 0.82882 0.18188 0.81361 0.0
O174 O 0.82584 0.21209 0.82333 0.0
C175 C 0.83935 0.14747 0.83608 0.0
C176 C 0.76902 0.14109 0.84695 0.0
C177 C 0.81607 0.21465 0.83568 0.0
O178 O 0.82011 0.15165 0.84237 0.0
O179 O 0.84508 0.15613 0.82377 0.0
O180 O 0.76587 0.18325 0.82615 0.0
O181 O 0.79761 0.17168 0.81589 0.0
Co182 Co 0.58312 0.04548 0.58403 0.0
O183 O 0.6123 0.0309 0.58118 0.0
O184 O 0.59295 0.03087 0.60194 0.0
C185 C 0.5669 0.03213 0.56336 0.0
O186 O 0.55207 0.05732 0.59096 0.0
Co187 Co 0.56443 0.08174 0.5625 0.0
O188 O 0.53492 0.0757 0.57243 0.0
C189 C 0.59913 0.09524 0.58437 0.0
C190 C 0.61083 0.02419 0.59465 0.0
C191 C 0.53439 0.06677 0.58512 0.0
O192 O 0.59862 0.07501 0.58993 0.0
O193 O 0.58766 0.10091 0.57302 0.0
O194 O 0.56774 0.01948 0.57501 0.0
O195 O 0.57749 0.05146 0.56417 0.0
Co196 Co 0.70767 0.83147 0.33429 0.0
O197 O 0.72276 0.86055 0.33238 0.0
O198 O 0.72337 0.83914 0.35229 0.0
C199 C 0.71986 0.81676 0.31286 0.0
O200 O 0.69501 0.80016 0.34002 0.0
Co201 Co 0.66987 0.81725 0.3124 0.0
O202 O 0.67433 0.78655 0.32123 0.0
C203 C 0.65931 0.85107 0.33532 0.0
C204 C 0.73001 0.85765 0.34563 0.0
C205 C 0.68402 0.78391 0.33359 0.0
O206 O 0.67885 0.84715 0.3413 0.0
O207 O 0.6533 0.84231 0.32308 0.0
O208 O 0.73292 0.81632 0.32432 0.0
O209 O 0.70098 0.82801 0.31433 0.0
Co210 Co 0.92006 0.9592 0.08615 0.0
O211 O 0.89114 0.97422 0.08321 0.0
O212 O 0.91034 0.97409 0.10401 0.0
C213 C 0.93665 0.9722 0.06549 0.0
O214 O 0.95079 0.94664 0.09312 0.0
Co215 Co 0.93771 0.92246 0.06456 0.0
O216 O 0.96735 0.92786 0.07451 0.0
C217 C 0.90236 0.91002 0.08624 0.0
C218 C 0.89256 0.98094 0.09668 0.0
C219 C 0.96816 0.93672 0.08721 0.0
O220 O 0.90401 0.93 0.09206 0.0
O221 O 0.91329 0.90424 0.07469 0.0
O222 O 0.93598 0.9849 0.07712 0.0
O223 O 0.92563 0.95311 0.06632 0.0
Co224 Co 0.70946 0.67192 0.83451 0.0
O225 O 0.72518 0.64346 0.83127 0.0
O226 O 0.72433 0.66191 0.85234 0.0
C227 C 0.72233 0.68958 0.81415 0.0
O228 O 0.69614 0.70221 0.84176 0.0
Co229 Co 0.67251 0.68868 0.81259 0.0
O230 O 0.67348 0.71711 0.8243 0.0
C231 C 0.66058 0.65314 0.83419 0.0
C232 C 0.73171 0.64458 0.84479 0.0
C233 C 0.68344 0.71836 0.83665 0.0
O234 O 0.68048 0.65502 0.84011 0.0
O235 O 0.65478 0.66392 0.8226 0.0
O236 O 0.73493 0.6887 0.82581 0.0
O237 O 0.70357 0.67798 0.81472 0.0
Co238 Co 0.57823 0.45826 0.08612 0.0
O239 O 0.6065 0.4745 0.08333 0.0
O240 O 0.58755 0.47279 0.10422 0.0
C241 C 0.56094 0.47131 0.0657 0.0
O242 O 0.54798 0.44432 0.09285 0.0
Co243 Co 0.56312 0.42137 0.06374 0.0
O244 O 0.53449 0.42089 0.07532 0.0
C245 C 0.59914 0.41031 0.08506 0.0
C246 C 0.60497 0.48058 0.09692 0.0
C247 C 0.53247 0.43101 0.08758 0.0
O248 O 0.59545 0.42946 0.09162 0.0
O249 O 0.58942 0.40486 0.07303 0.0
O250 O 0.56127 0.48364 0.07749 0.0
O251 O 0.57285 0.45274 0.06621 0.0
Co252 Co 0.79253 0.33042 0.33632 0.0
O253 O 0.778 0.35969 0.33398 0.0
O254 O 0.77709 0.33908 0.35423 0.0
C255 C 0.78005 0.31536 0.31508 0.0
O256 O 0.80461 0.29906 0.34255 0.0
Co257 Co 0.82983 0.31419 0.31455 0.0
O258 O 0.82422 0.28401 0.32375 0.0
C259 C 0.84149 0.34855 0.33702 0.0
C260 C 0.77076 0.35745 0.3473 0.0
C261 C 0.81484 0.28219 0.33626 0.0
O262 O 0.82169 0.34585 0.34296 0.0
O263 O 0.84731 0.33872 0.32508 0.0
O264 O 0.76693 0.31546 0.32653 0.0
O265 O 0.79919 0.32613 0.31648 0.0
Co266 Co 0.92172 0.54585 0.58478 0.0
O267 O 0.89276 0.53052 0.5827 0.0
O268 O 0.91361 0.53063 0.60285 0.0
C269 C 0.93709 0.53323 0.56363 0.0
O270 O 0.95276 0.55886 0.59084 0.0
Co271 Co 0.93686 0.58294 0.56249 0.0
O272 O 0.96686 0.57987 0.57236 0.0
C273 C 0.90266 0.59448 0.58508 0.0
C274 C 0.89534 0.52368 0.59608 0.0
C275 C 0.96901 0.57041 0.58483 0.0
O276 O 0.9057 0.57485 0.59119 0.0
O277 O 0.91215 0.60011 0.573 0.0
O278 O 0.93731 0.52039 0.5752 0.0
O279 O 0.92578 0.55208 0.56484 0.0
Co280 Co 0.71451 0.33205 0.66552 0.0
O281 O 0.73031 0.36058 0.66816 0.0
O282 O 0.73014 0.34069 0.64763 0.0
C283 C 0.72642 0.31559 0.68649 0.0
O284 O 0.70084 0.30148 0.65906 0.0
Co285 Co 0.67642 0.31814 0.68743 0.0
O286 O 0.67768 0.28856 0.67688 0.0
C287 C 0.66662 0.35306 0.66514 0.0
C288 C 0.73717 0.35862 0.65475 0.0
C289 C 0.68782 0.28598 0.66467 0.0
O290 O 0.68605 0.3489 0.65907 0.0
O291 O 0.66046 0.34402 0.67725 0.0
O292 O 0.73946 0.31557 0.67501 0.0
O293 O 0.70792 0.3275 0.68535 0.0
Co294 Co 0.92008 0.45884 0.91266 0.0
O295 O 0.89114 0.47394 0.91517 0.0
O296 O 0.91131 0.47435 0.89475 0.0
C297 C 0.9357 0.4711 0.93382 0.0
O298 O 0.95113 0.44613 0.9064 0.0
Co299 Co 0.93512 0.42112 0.93453 0.0
O300 O 0.96538 0.42567 0.92511 0.0
C301 C 0.90057 0.41045 0.91214 0.0
C302 C 0.89323 0.48108 0.90184 0.0
C303 C 0.96758 0.4352 0.91266 0.0
O304 O 0.90427 0.42991 0.906 0.0
O305 O 0.90958 0.40456 0.92432 0.0
O306 O 0.93564 0.4842 0.92237 0.0
O307 O 0.92445 0.45221 0.9325 0.0
Co308 Co 0.78982 0.66988 0.16395 0.0
O309 O 0.77504 0.64089 0.16713 0.0
O310 O 0.77442 0.66001 0.1463 0.0
C311 C 0.77744 0.68655 0.18473 0.0
O312 O 0.80209 0.70058 0.15677 0.0
Co313 Co 0.82719 0.68778 0.18503 0.0
O314 O 0.82049 0.71751 0.17542 0.0
C315 C 0.83893 0.65216 0.16337 0.0
C316 C 0.76792 0.64221 0.15374 0.0
C317 C 0.81152 0.71813 0.16275 0.0
O318 O 0.81889 0.65402 0.15768 0.0
O319 O 0.84499 0.66294 0.17492 0.0
O320 O 0.76435 0.68572 0.17329 0.0
O321 O 0.79653 0.67559 0.18367 0.0
Co322 Co 0.5822 0.54284 0.41506 0.0
O323 O 0.61105 0.52731 0.41701 0.0
O324 O 0.58917 0.52633 0.39726 0.0
C325 C 0.56717 0.53183 0.43665 0.0
O326 O 0.55118 0.55612 0.40929 0.0
Co327 Co 0.56995 0.58198 0.43662 0.0
O328 O 0.54019 0.58175 0.42626 0.0
C329 C 0.60336 0.59057 0.41323 0.0
C330 C 0.60773 0.51977 0.40386 0.0
C331 C 0.53658 0.57036 0.41462 0.0
O332 O 0.59844 0.57104 0.40753 0.0
O333 O 0.59543 0.59715 0.42557 0.0
O334 O 0.56658 0.51829 0.42543 0.0
O335 O 0.579 0.5503 0.43493 0.0
Co336 Co 0.28885 0.33237 0.16643 0.0
O337 O 0.27321 0.36097 0.16941 0.0
O338 O 0.27461 0.34233 0.14841 0.0
C339 C 0.27534 0.31508 0.18674 0.0
O340 O 0.30216 0.30202 0.15936 0.0
Co341 Co 0.32493 0.31451 0.18848 0.0
O342 O 0.31993 0.28503 0.17823 0.0
C343 C 0.33791 0.35034 0.1672 0.0
C344 C 0.26712 0.35977 0.15581 0.0
C345 C 0.3118 0.28455 0.16532 0.0
O346 O 0.31807 0.3489 0.16114 0.0
O347 O 0.34336 0.33911 0.1787 0.0
O348 O 0.26302 0.31587 0.17495 0.0
O349 O 0.29429 0.32637 0.18626 0.0
Co350 Co 0.42125 0.54327 0.91433 0.0
O351 O 0.39275 0.52737 0.91687 0.0
O352 O 0.41335 0.5268 0.89663 0.0
C353 C 0.43702 0.53234 0.93572 0.0
O354 O 0.452 0.55667 0.90807 0.0
Co355 Co 0.43426 0.5824 0.93565 0.0
O356 O 0.4642 0.58089 0.92552 0.0
C357 C 0.39993 0.59095 0.91282 0.0
C358 C 0.3953 0.51983 0.90365 0.0
C359 C 0.46727 0.57001 0.91361 0.0
O360 O 0.40455 0.57138 0.90709 0.0
O361 O 0.40838 0.59761 0.925 0.0
O362 O 0.43749 0.51885 0.92446 0.0
O363 O 0.42507 0.55074 0.93413 0.0
Co364 Co 0.21247 0.6713 0.66416 0.0
O365 O 0.22712 0.64199 0.66591 0.0
O366 O 0.22803 0.66361 0.64609 0.0
C367 C 0.22485 0.68569 0.68561 0.0
O368 O 0.20005 0.70282 0.65866 0.0
Co369 Co 0.1748 0.68513 0.68638 0.0
O370 O 0.17792 0.71559 0.67702 0.0
C371 C 0.16406 0.65187 0.66326 0.0
C372 C 0.23435 0.64491 0.65265 0.0
C373 C 0.18806 0.7186 0.66484 0.0
O374 O 0.18341 0.65613 0.65713 0.0
O375 O 0.15832 0.66003 0.67571 0.0
O376 O 0.23798 0.686 0.67418 0.0
O377 O 0.2059 0.67462 0.68409 0.0
Co378 Co 0.08174 0.4605 0.41432 0.0
O379 O 0.1112 0.47463 0.41709 0.0
O380 O 0.0916 0.47517 0.39644 0.0
C381 C 0.06579 0.47394 0.43508 0.0
O382 O 0.05055 0.44889 0.40744 0.0
Co383 Co 0.06259 0.42448 0.43597 0.0
O384 O 0.03308 0.43194 0.42644 0.0
C385 C 0.097 0.41057 0.41395 0.0
C386 C 0.1097 0.48146 0.40364 0.0
C387 C 0.03268 0.44032 0.4136 0.0
O388 O 0.09683 0.4308 0.40837 0.0
O389 O 0.08544 0.40506 0.4253 0.0
O390 O 0.06678 0.48668 0.42348 0.0
O391 O 0.07613 0.45448 0.43415 0.0
Co392 Co 0.29342 0.67021 0.3347 0.0
O393 O 0.27898 0.64086 0.33238 0.0
O394 O 0.27835 0.66133 0.35269 0.0
C395 C 0.28055 0.68555 0.3136 0.0
O396 O 0.3055 0.70153 0.34098 0.0
Co397 Co 0.33024 0.68677 0.31266 0.0
O398 O 0.32542 0.71669 0.32236 0.0
C399 C 0.34266 0.65277 0.33518 0.0
C400 C 0.27206 0.64294 0.34578 0.0
C401 C 0.31609 0.71836 0.33489 0.0
O402 O 0.32278 0.65489 0.34109 0.0
O403 O 0.34828 0.66281 0.32328 0.0
O404 O 0.26761 0.68525 0.32512 0.0
O405 O 0.29969 0.67475 0.31481 0.0
Co406 Co 0.07896 0.54215 0.08404 0.0
O407 O 0.1078 0.52679 0.08158 0.0
O408 O 0.088 0.52752 0.10215 0.0
C409 C 0.06286 0.52895 0.06325 0.0
O410 O 0.04813 0.55523 0.09047 0.0
Co411 Co 0.06273 0.57872 0.06178 0.0
O412 O 0.03279 0.57448 0.07161 0.0
C413 C 0.09784 0.59084 0.08366 0.0
C414 C 0.10594 0.52039 0.09509 0.0
C415 C 0.0313 0.56569 0.08431 0.0
O416 O 0.09511 0.57131 0.08992 0.0
O417 O 0.08779 0.59631 0.07173 0.0
O418 O 0.06309 0.5164 0.07496 0.0
O419 O 0.07408 0.54791 0.06413 0.0
Co420 Co 0.2107 0.33 0.83586 0.0
O421 O 0.22734 0.358 0.83302 0.0
O422 O 0.22614 0.33871 0.85379 0.0
C423 C 0.22266 0.31298 0.81508 0.0
O424 O 0.19648 0.29985 0.84255 0.0
Co425 Co 0.17282 0.31558 0.81408 0.0
O426 O 0.17628 0.28543 0.8238 0.0
C427 C 0.16278 0.351 0.83608 0.0
C428 C 0.23399 0.35608 0.84646 0.0
C429 C 0.18534 0.28345 0.83641 0.0
O430 O 0.18244 0.34747 0.84201 0.0
O431 O 0.15645 0.34129 0.82422 0.0
O432 O 0.23542 0.31277 0.82669 0.0
O433 O 0.20431 0.32518 0.81599 0.0
Co434 Co 0.42527 0.46031 0.58733 0.0
O435 O 0.39567 0.47435 0.58521 0.0
O436 O 0.41658 0.4753 0.60536 0.0
C437 C 0.44026 0.47361 0.56624 0.0
O438 O 0.45677 0.4486 0.59341 0.0
Co439 Co 0.44192 0.42379 0.56513 0.0
O440 O 0.47199 0.42904 0.57462 0.0
C441 C 0.4076 0.41125 0.58739 0.0
C442 C 0.39806 0.48144 0.59855 0.0
C443 C 0.47366 0.43835 0.58716 0.0
O444 O 0.41048 0.43069 0.59375 0.0
O445 O 0.41707 0.40606 0.57521 0.0
O446 O 0.43977 0.48642 0.57781 0.0
O447 O 0.42974 0.45427 0.56739 0.0
H448 H 0.0891 0.36482 0.41487 0.0
H449 H 0.10987 0.33454 0.40247 0.0
H450 H 0.15643 0.38429 0.3844 0.0
H451 H 0.13476 0.41501 0.39628 0.0
H452 H 0.14784 0.35584 0.36458 0.0
H453 H 0.17196 0.34591 0.41323 0.0
H454 H 0.1687 0.34227 0.43997 0.0
H455 H 0.12953 0.28074 0.43486 0.0
H456 H 0.13227 0.28417 0.40808 0.0
H457 H 0.20521 0.23286 0.36097 0.0
H458 H 0.1985 0.26874 0.3741 0.0
H459 H 0.14143 0.28341 0.34578 0.0
H460 H 0.14844 0.24828 0.3324 0.0
H461 H 0.16555 0.28299 0.38987 0.0
H462 H 0.13236 0.33849 0.34093 0.0
H463 H 0.14116 0.344 0.31483 0.0
H464 H 0.20887 0.31783 0.32162 0.0
H465 H 0.20062 0.31247 0.3478 0.0
C466 C 0.10387 0.36936 0.40835 0.0
C467 C 0.11039 0.39233 0.40666 0.0
C468 C 0.11588 0.35195 0.40132 0.0
C469 C 0.13517 0.35694 0.39276 0.0
C470 C 0.14171 0.37992 0.391 0.0
C471 C 0.12935 0.39747 0.39781 0.0
C472 C 0.14766 0.33812 0.3852 0.0
C473 C 0.15187 0.33999 0.37015 0.0
C474 C 0.15383 0.31765 0.3925 0.0
C475 C 0.15224 0.31537 0.40863 0.0
C476 C 0.16254 0.33167 0.4178 0.0
C477 C 0.1608 0.32964 0.43297 0.0
C478 C 0.14889 0.3113 0.43911 0.0
C479 C 0.13875 0.29493 0.43009 0.0
C480 C 0.14043 0.29689 0.41491 0.0
C481 C 0.19136 0.24384 0.35747 0.0
C482 C 0.17745 0.23767 0.34557 0.0
C483 C 0.18752 0.26436 0.365 0.0
C484 C 0.16968 0.27907 0.36081 0.0
C485 C 0.15572 0.27278 0.34901 0.0
C486 C 0.15967 0.2525 0.3414 0.0
C487 C 0.16465 0.30037 0.36915 0.0
C488 C 0.16187 0.29896 0.38434 0.0
C489 C 0.16066 0.32155 0.36207 0.0
C490 C 0.16579 0.32493 0.34633 0.0
C491 C 0.14917 0.33403 0.33688 0.0
C492 C 0.15406 0.3371 0.32206 0.0
C493 C 0.17554 0.33122 0.31656 0.0
C494 C 0.19221 0.32231 0.32588 0.0
C495 C 0.18743 0.31922 0.34071 0.0
H496 H 0.17928 0.3336 0.30509 0.0
H497 H 0.14755 0.30977 0.45086 0.0
H498 H 0.99137 0.92704 0.57484 0.0
H499 H 0.95663 0.91995 0.58883 0.0
H500 H 0.99102 0.941 0.62826 0.0
H501 H 0.026 0.94807 0.61432 0.0
H502 H 0.97091 0.89964 0.63117 0.0
H503 H 0.94857 0.97337 0.61354 0.0
H504 H 0.94136 0.00325 0.59513 0.0
H505 H 0.89166 0.96033 0.57424 0.0
H506 H 0.89881 0.93002 0.59239 0.0
H507 H 0.87628 0.88262 0.67637 0.0
H508 H 0.90648 0.90291 0.66333 0.0
H509 H 0.87366 0.88755 0.62231 0.0
H510 H 0.84289 0.86788 0.63535 0.0
H511 H 0.89285 0.92857 0.62091 0.0
H512 H 0.91744 0.85393 0.63592 0.0
H513 H 0.92444 0.82258 0.65336 0.0
H514 H 0.97021 0.86547 0.6777 0.0
H515 H 0.96323 0.89718 0.6605 0.0
C516 C 0.99152 0.93047 0.58645 0.0
C517 C 0.01159 0.93796 0.59346 0.0
C518 C 0.97154 0.92654 0.59444 0.0
C519 C 0.97116 0.93001 0.6096 0.0
C520 C 0.99092 0.93822 0.61656 0.0
C521 C 0.01089 0.94231 0.60856 0.0
C522 C 0.95089 0.92306 0.61832 0.0
C523 C 0.95392 0.90635 0.62913 0.0
C524 C 0.92859 0.93118 0.61529 0.0
C525 C 0.92435 0.94934 0.60429 0.0
C526 C 0.93624 0.97021 0.60495 0.0
C527 C 0.93212 0.98725 0.59458 0.0
C528 C 0.91603 0.98371 0.58355 0.0
C529 C 0.90407 0.96308 0.58282 0.0
C530 C 0.90814 0.94596 0.59316 0.0
C531 C 0.87528 0.88385 0.66458 0.0
C532 C 0.85732 0.87336 0.65689 0.0
C533 C 0.89262 0.8954 0.65713 0.0
C534 C 0.8927 0.89625 0.6418 0.0
C535 C 0.87407 0.88701 0.63413 0.0
C536 C 0.85648 0.87574 0.64161 0.0
C537 C 0.91295 0.90524 0.63379 0.0
C538 C 0.9099 0.92213 0.62306 0.0
C539 C 0.93529 0.89708 0.63671 0.0
C540 C 0.93963 0.87799 0.64702 0.0
C541 C 0.92888 0.85671 0.64505 0.0
C542 C 0.93285 0.83888 0.65488 0.0
C543 C 0.94771 0.84205 0.66665 0.0
C544 C 0.95867 0.86305 0.66859 0.0
C545 C 0.95473 0.88096 0.6588 0.0
H546 H 0.95077 0.82822 0.67425 0.0
H547 H 0.91285 0.99693 0.57554 0.0
H548 H 0.37561 0.62722 0.92346 0.0
H549 H 0.35611 0.65703 0.90945 0.0
H550 H 0.37334 0.62241 0.86938 0.0
H551 H 0.39255 0.59225 0.88332 0.0
H552 H 0.38689 0.66966 0.87106 0.0
H553 H 0.32072 0.62266 0.87805 0.0
H554 H 0.29288 0.60022 0.89229 0.0
H555 H 0.2744 0.66019 0.91659 0.0
H556 H 0.30239 0.68294 0.90264 0.0
H557 H 0.33125 0.74388 0.82295 0.0
H558 H 0.34086 0.70889 0.83598 0.0
H559 H 0.3164 0.73847 0.87618 0.0
H560 H 0.30641 0.77369 0.86314 0.0
H561 H 0.30544 0.69282 0.87421 0.0
H562 H 0.37217 0.73922 0.86933 0.0
H563 H 0.40064 0.76272 0.85637 0.0
H564 H 0.41905 0.70516 0.82977 0.0
H565 H 0.39044 0.68137 0.84247 0.0
C566 C 0.37494 0.62574 0.91167 0.0
C567 C 0.3857 0.60739 0.9045 0.0
C568 C 0.36372 0.64275 0.9037 0.0
C569 C 0.36329 0.64191 0.88839 0.0
C570 C 0.37346 0.62333 0.8812 0.0
C571 C 0.38434 0.60607 0.88918 0.0
C572 C 0.35385 0.66135 0.87992 0.0
C573 C 0.36899 0.67447 0.87152 0.0
C574 C 0.33069 0.66808 0.88099 0.0
C575 C 0.31383 0.65446 0.8894 0.0
C576 C 0.31089 0.63103 0.88653 0.0
C577 C 0.29504 0.61826 0.89453 0.0
C578 C 0.28192 0.62876 0.90536 0.0
C579 C 0.28459 0.65207 0.9082 0.0
C580 C 0.30043 0.66492 0.90024 0.0
C581 C 0.32767 0.74296 0.83454 0.0
C582 C 0.31834 0.76179 0.84203 0.0
C583 C 0.33321 0.72289 0.84198 0.0
C584 C 0.32975 0.7212 0.85711 0.0
C585 C 0.31929 0.73944 0.86451 0.0
C586 C 0.31363 0.75958 0.85704 0.0
C587 C 0.33846 0.70101 0.86524 0.0
C588 C 0.32328 0.68788 0.87365 0.0
C589 C 0.36171 0.69439 0.86438 0.0
C590 C 0.379 0.70858 0.85674 0.0
C591 C 0.38216 0.73162 0.86064 0.0
C592 C 0.39835 0.74499 0.85336 0.0
C593 C 0.4116 0.73546 0.84222 0.0
C594 C 0.40874 0.71252 0.83838 0.0
C595 C 0.39256 0.69908 0.84563 0.0
H596 H 0.42413 0.74584 0.83659 0.0
H597 H 0.26965 0.61885 0.91154 0.0
H598 H 0.49215 0.04128 0.10297 0.0
H599 H 0.52795 0.05005 0.1158 0.0
H600 H 0.522 0.12068 0.10259 0.0
H601 H 0.48742 0.11157 0.08903 0.0
H602 H 0.56286 0.11093 0.10033 0.0
H603 H 0.50793 0.09755 0.13893 0.0
H604 H 0.47958 0.07517 0.15284 0.0
H605 H 0.52985 0.0233 0.16108 0.0
H606 H 0.55843 0.04527 0.14708 0.0
H607 H 0.61577 0.14933 0.17316 0.0
H608 H 0.58536 0.13027 0.1598 0.0
H609 H 0.63409 0.10689 0.12776 0.0
H610 H 0.66475 0.12655 0.14091 0.0
H611 H 0.57455 0.08896 0.15208 0.0
H612 H 0.60854 0.10774 0.09402 0.0
H613 H 0.63368 0.13534 0.08146 0.0
H614 H 0.61958 0.18551 0.11446 0.0
H615 H 0.59402 0.1584 0.12704 0.0
C616 C 0.49862 0.05863 0.10283 0.0
C617 C 0.48708 0.07574 0.09501 0.0
C618 C 0.51901 0.06369 0.11022 0.0
C619 C 0.5277 0.08615 0.11037 0.0
C620 C 0.51594 0.10319 0.1026 0.0
C621 C 0.49606 0.098 0.09488 0.0
C622 C 0.54887 0.09232 0.1186 0.0
C623 C 0.56538 0.10597 0.11163 0.0
C624 C 0.55236 0.08608 0.1334 0.0
C625 C 0.53522 0.07291 0.14183 0.0
C626 C 0.51288 0.0813 0.14363 0.0
C627 C 0.49678 0.0687 0.15154 0.0
C628 C 0.50289 0.04779 0.1578 0.0
C629 C 0.52513 0.03947 0.1562 0.0
C630 C 0.54129 0.05199 0.14829 0.0
C631 C 0.62018 0.13999 0.16335 0.0
C632 C 0.64277 0.13976 0.15805 0.0
C633 C 0.6027 0.12897 0.15574 0.0
C634 C 0.60731 0.11736 0.14266 0.0
C635 C 0.63002 0.11606 0.1377 0.0
C636 C 0.64756 0.12727 0.14527 0.0
C637 C 0.58805 0.108 0.13389 0.0
C638 C 0.57206 0.09363 0.14073 0.0
C639 C 0.58454 0.11434 0.11914 0.0
C640 C 0.59964 0.1309 0.11156 0.0
C641 C 0.61076 0.12468 0.09856 0.0
C642 C 0.62505 0.14026 0.09143 0.0
C643 C 0.62826 0.16215 0.09718 0.0
C644 C 0.6171 0.16855 0.11003 0.0
C645 C 0.60272 0.15308 0.11717 0.0
H646 H 0.63937 0.17416 0.09167 0.0
H647 H 0.49041 0.03807 0.16392 0.0
H648 H 0.17973 0.73835 0.17237 0.0
H649 H 0.16996 0.70452 0.15793 0.0
H650 H 0.17644 0.74386 0.11834 0.0
H651 H 0.18665 0.77774 0.1327 0.0
H652 H 0.13363 0.72021 0.12216 0.0
H653 H 0.21429 0.70568 0.12373 0.0
H654 H 0.25175 0.70046 0.13557 0.0
H655 H 0.2255 0.64337 0.15979 0.0
H656 H 0.18775 0.64846 0.14826 0.0
H657 H 0.1117 0.63199 0.07257 0.0
H658 H 0.13146 0.66275 0.08529 0.0
H659 H 0.13576 0.62113 0.12406 0.0
H660 H 0.11626 0.58993 0.11131 0.0
H661 H 0.17443 0.64591 0.12043 0.0
H662 H 0.0943 0.6607 0.121 0.0
H663 H 0.05566 0.66549 0.11072 0.0
H664 H 0.07922 0.72167 0.08459 0.0
H665 H 0.11812 0.717 0.09456 0.0
C666 C 0.17942 0.73972 0.16058 0.0
C667 C 0.18388 0.76075 0.15367 0.0
C668 C 0.17392 0.72036 0.15235 0.0
C669 C 0.17249 0.72171 0.13708 0.0
C670 C 0.17751 0.74249 0.13012 0.0
C671 C 0.18343 0.76178 0.13833 0.0
C672 C 0.16393 0.70195 0.12854 0.0
C673 C 0.14275 0.70409 0.12153 0.0
C674 C 0.17544 0.68069 0.12826 0.0
C675 C 0.19811 0.67761 0.13524 0.0
C676 C 0.21643 0.69215 0.13169 0.0
C677 C 0.23774 0.68919 0.13833 0.0
C678 C 0.24099 0.67164 0.14846 0.0
C679 C 0.22295 0.65698 0.15196 0.0
C680 C 0.2016 0.65989 0.14536 0.0
C681 C 0.11701 0.6292 0.08376 0.0
C682 C 0.11209 0.60851 0.09095 0.0
C683 C 0.12829 0.64688 0.09103 0.0
C684 C 0.1347 0.64444 0.10572 0.0
C685 C 0.13088 0.62344 0.11274 0.0
C686 C 0.11967 0.60563 0.10543 0.0
C687 C 0.14419 0.66425 0.11389 0.0
C688 C 0.16541 0.66208 0.12093 0.0
C689 C 0.13254 0.68546 0.11444 0.0
C690 C 0.10918 0.68834 0.10841 0.0
C691 C 0.09129 0.67395 0.11297 0.0
C692 C 0.06933 0.67666 0.10721 0.0
C693 C 0.065 0.69383 0.09698 0.0
C694 C 0.08261 0.70836 0.0925 0.0
C695 C 0.10462 0.70569 0.0982 0.0
H696 H 0.04799 0.69591 0.09254 0.0
H697 H 0.25751 0.66936 0.15358 0.0
H698 H 0.47755 0.94884 0.3867 0.0
H699 H 0.51227 0.94043 0.3728 0.0
H700 H 0.54336 0.91177 0.41137 0.0
H701 H 0.50898 0.92036 0.42539 0.0
H702 H 0.5744 0.93572 0.39466 0.0
H703 H 0.51559 0.87878 0.38761 0.0
H704 H 0.47644 0.86747 0.38093 0.0
H705 H 0.48716 0.89197 0.33725 0.0
H706 H 0.52613 0.90433 0.34386 0.0
H707 H 0.65676 0.85942 0.36472 0.0
H708 H 0.62639 0.87934 0.37788 0.0
H709 H 0.59347 0.89541 0.33696 0.0
H710 H 0.62321 0.87459 0.32384 0.0
H711 H 0.56319 0.88077 0.35405 0.0
H712 H 0.62217 0.93652 0.36003 0.0
H713 H 0.65959 0.95264 0.36688 0.0
H714 H 0.64864 0.93273 0.41147 0.0
H715 H 0.61131 0.91616 0.40486 0.0
C716 C 0.49189 0.94108 0.3923 0.0
C717 C 0.49027 0.93493 0.40712 0.0
C718 C 0.51173 0.93626 0.38432 0.0
C719 C 0.53027 0.92511 0.39099 0.0
C720 C 0.52925 0.92028 0.40598 0.0
C721 C 0.50946 0.92507 0.41395 0.0
C722 C 0.54985 0.9166 0.38218 0.0
C723 C 0.57206 0.92359 0.38582 0.0
C724 C 0.54668 0.90118 0.37045 0.0
C725 C 0.52368 0.89272 0.36628 0.0
C726 C 0.50956 0.88188 0.3766 0.0
C727 C 0.48738 0.87531 0.37283 0.0
C728 C 0.47931 0.87898 0.35866 0.0
C729 C 0.49343 0.88918 0.34823 0.0
C730 C 0.51554 0.89605 0.352 0.0
C731 C 0.64321 0.86747 0.35852 0.0
C732 C 0.64237 0.86533 0.34323 0.0
C733 C 0.62586 0.879 0.36606 0.0
C734 C 0.60761 0.88916 0.35846 0.0
C735 C 0.60723 0.88767 0.34314 0.0
C736 C 0.62431 0.87579 0.33563 0.0
C737 C 0.58809 0.89988 0.36643 0.0
C738 C 0.56576 0.89313 0.36273 0.0
C739 C 0.5912 0.91568 0.37801 0.0
C740 C 0.614 0.92495 0.38192 0.0
C741 C 0.62785 0.93534 0.37127 0.0
C742 C 0.64903 0.94461 0.37512 0.0
C743 C 0.65647 0.94373 0.38961 0.0
C744 C 0.64284 0.93341 0.40025 0.0
C745 C 0.62167 0.92409 0.39646 0.0
H746 H 0.67271 0.95115 0.39262 0.0
H747 H 0.4621 0.87394 0.35576 0.0
H748 H 0.3359 0.25701 0.6744 0.0
H749 H 0.34583 0.29129 0.66064 0.0
H750 H 0.32434 0.2586 0.62074 0.0
H751 H 0.31428 0.22404 0.63446 0.0
H752 H 0.36755 0.27793 0.61891 0.0
H753 H 0.29274 0.30087 0.63465 0.0
H754 H 0.26207 0.30751 0.65262 0.0
H755 H 0.30457 0.35554 0.67539 0.0
H756 H 0.33564 0.34895 0.65768 0.0
H757 H 0.3868 0.37428 0.57495 0.0
H758 H 0.36737 0.34282 0.58726 0.0
H759 H 0.37854 0.37559 0.62886 0.0
H760 H 0.39727 0.40764 0.61652 0.0
H761 H 0.33843 0.35596 0.62907 0.0
H762 H 0.41379 0.33164 0.61586 0.0
H763 H 0.44639 0.32476 0.59936 0.0
H764 H 0.40538 0.27908 0.57367 0.0
H765 H 0.37244 0.28593 0.58992 0.0
C766 C 0.33305 0.25711 0.66271 0.0
C767 C 0.32436 0.23768 0.65553 0.0
C768 C 0.33864 0.27682 0.65487 0.0
C769 C 0.33572 0.27757 0.63967 0.0
C770 C 0.32667 0.25839 0.63248 0.0
C771 C 0.32086 0.23869 0.64034 0.0
C772 C 0.34346 0.29787 0.63127 0.0
C773 C 0.36086 0.29494 0.62091 0.0
C774 C 0.33531 0.32016 0.63428 0.0
C775 C 0.31659 0.32427 0.6449 0.0
C776 C 0.29562 0.31272 0.64355 0.0
C777 C 0.27814 0.3165 0.65368 0.0
C778 C 0.28138 0.3319 0.66515 0.0
C779 C 0.30209 0.3436 0.6665 0.0
C780 C 0.31963 0.33987 0.65641 0.0
C781 C 0.38494 0.37492 0.58672 0.0
C782 C 0.39381 0.39337 0.59477 0.0
C783 C 0.3739 0.35684 0.59376 0.0
C784 C 0.37197 0.35649 0.60905 0.0
C785 C 0.3799 0.37538 0.61707 0.0
C786 C 0.39064 0.39369 0.60999 0.0
C787 C 0.36256 0.33605 0.61667 0.0
C788 C 0.34496 0.33894 0.62694 0.0
C789 C 0.37079 0.31371 0.61377 0.0
C790 C 0.39059 0.30949 0.60402 0.0
C791 C 0.41168 0.32026 0.60663 0.0
C792 C 0.43023 0.31634 0.59734 0.0
C793 C 0.42794 0.30154 0.58545 0.0
C794 C 0.40712 0.29057 0.58287 0.0
C795 C 0.38851 0.29445 0.59212 0.0
H796 H 0.44231 0.29854 0.57827 0.0
H797 H 0.26783 0.3348 0.67298 0.0
H798 H 0.99589 0.08906 0.92393 0.0
H799 H 0.9614 0.09712 0.90998 0.0
H800 H 0.98982 0.06224 0.87269 0.0
H801 H 0.02473 0.05426 0.88655 0.0
H802 H 0.9723 0.10373 0.86548 0.0
H803 H 0.94639 0.03825 0.89237 0.0
H804 H 0.93989 0.01522 0.91454 0.0
H805 H 0.8973 0.06817 0.93222 0.0
H806 H 0.9038 0.09167 0.91025 0.0
H807 H 0.87232 0.12019 0.82423 0.0
H808 H 0.90347 0.10077 0.83698 0.0
H809 H 0.87739 0.12524 0.87821 0.0
H810 H 0.84548 0.14356 0.86554 0.0
H811 H 0.89389 0.08529 0.88237 0.0
H812 H 0.92267 0.15252 0.85818 0.0
H813 H 0.92993 0.17797 0.83721 0.0
H814 H 0.96782 0.12473 0.81588 0.0
H815 H 0.96055 0.09887 0.83666 0.0
C816 C 0.99484 0.08291 0.91279 0.0
C817 C 0.0132 0.07102 0.90637 0.0
C818 C 0.97498 0.08743 0.90486 0.0
C819 C 0.97289 0.08008 0.89034 0.0
C820 C 0.99103 0.068 0.8839 0.0
C821 C 0.01096 0.0634 0.89186 0.0
C822 C 0.95227 0.0862 0.88169 0.0
C823 C 0.95516 0.0993 0.869 0.0
C824 C 0.92988 0.08103 0.88655 0.0
C825 C 0.92571 0.06679 0.89969 0.0
C826 C 0.93575 0.04505 0.90102 0.0
C827 C 0.93205 0.0319 0.91355 0.0
C828 C 0.91822 0.04024 0.92479 0.0
C829 C 0.90801 0.06173 0.92351 0.0
C830 C 0.91167 0.07496 0.91101 0.0
C831 C 0.87307 0.12112 0.83604 0.0
C832 C 0.85658 0.13353 0.84388 0.0
C833 C 0.89098 0.11016 0.84332 0.0
C834 C 0.89324 0.11206 0.85855 0.0
C835 C 0.87615 0.12357 0.86646 0.0
C836 C 0.8579 0.13406 0.8592 0.0
C837 C 0.91388 0.10307 0.86619 0.0
C838 C 0.91102 0.08949 0.87872 0.0
C839 C 0.93635 0.10813 0.86135 0.0
C840 C 0.94086 0.1237 0.8489 0.0
C841 C 0.93243 0.14621 0.84898 0.0
C842 C 0.93656 0.1607 0.83713 0.0
C843 C 0.94927 0.15295 0.8252 0.0
C844 C 0.95795 0.1307 0.82511 0.0
C845 C 0.95384 0.11612 0.83692 0.0
H846 H 0.95245 0.1642 0.81604 0.0
H847 H 0.9154 0.03004 0.93449 0.0
H848 H 0.89343 0.63797 0.57591 0.0
H849 H 0.87496 0.66849 0.58947 0.0
H850 H 0.86151 0.62204 0.62503 0.0
H851 H 0.88062 0.59128 0.61162 0.0
H852 H 0.83479 0.6776 0.60023 0.0
H853 H 0.86772 0.65088 0.65714 0.0
H854 H 0.89943 0.62894 0.66808 0.0
H855 H 0.94146 0.64342 0.63077 0.0
H856 H 0.91012 0.66566 0.61971 0.0
H857 H 0.7923 0.76183 0.65009 0.0
H858 H 0.80089 0.72576 0.63756 0.0
H859 H 0.87301 0.7374 0.64439 0.0
H860 H 0.86425 0.77231 0.6578 0.0
H861 H 0.86668 0.69639 0.64893 0.0
H862 H 0.84151 0.74603 0.6098 0.0
H863 H 0.8145 0.77137 0.59692 0.0
H864 H 0.76501 0.71724 0.59532 0.0
H865 H 0.79166 0.69166 0.60834 0.0
C866 C 0.8864 0.63405 0.58656 0.0
C867 C 0.88884 0.61214 0.59272 0.0
C868 C 0.87569 0.65159 0.59428 0.0
C869 C 0.86708 0.64771 0.60836 0.0
C870 C 0.86835 0.62556 0.61427 0.0
C871 C 0.87923 0.60796 0.60656 0.0
C872 C 0.85831 0.66731 0.61707 0.0
C873 C 0.84163 0.68165 0.61093 0.0
C874 C 0.86747 0.67286 0.63093 0.0
C875 C 0.88647 0.65965 0.63754 0.0
C876 C 0.88375 0.6494 0.6513 0.0
C877 C 0.90165 0.63692 0.65752 0.0
C878 C 0.92241 0.6347 0.6501 0.0
C879 C 0.92535 0.64505 0.63647 0.0
C880 C 0.90751 0.65758 0.63022 0.0
C881 C 0.80994 0.7566 0.64883 0.0
C882 C 0.82763 0.76977 0.65486 0.0
C883 C 0.81489 0.73604 0.64162 0.0
C884 C 0.83768 0.72881 0.63981 0.0
C885 C 0.85529 0.74232 0.64569 0.0
C886 C 0.8503 0.76238 0.65328 0.0
C887 C 0.84353 0.70722 0.63194 0.0
C888 C 0.85957 0.69233 0.6383 0.0
C889 C 0.83444 0.7017 0.61802 0.0
C890 C 0.81846 0.71703 0.61018 0.0
C891 C 0.82481 0.73959 0.60678 0.0
C892 C 0.80958 0.75398 0.59944 0.0
C893 C 0.78803 0.74594 0.59534 0.0
C894 C 0.78169 0.72346 0.59853 0.0
C895 C 0.79685 0.70901 0.60587 0.0
H896 H 0.77626 0.75711 0.58967 0.0
H897 H 0.93624 0.62502 0.65492 0.0
H898 H 0.15515 0.14243 0.36723 0.0
H899 H 0.12492 0.12172 0.38001 0.0
H900 H 0.09831 0.09807 0.3387 0.0
H901 H 0.12776 0.11985 0.3259 0.0
H902 H 0.06517 0.11217 0.35328 0.0
H903 H 0.12665 0.06228 0.36549 0.0
H904 H 0.16451 0.05087 0.37474 0.0
H905 H 0.14723 0.07639 0.41729 0.0
H906 H 0.10938 0.08833 0.40824 0.0
H907 H 0.9791 0.04687 0.38798 0.0
H908 H 0.01447 0.05412 0.37449 0.0
H909 H 0.04204 0.08995 0.41168 0.0
H910 H 0.00713 0.08239 0.42533 0.0
H911 H 0.07491 0.06525 0.39796 0.0
H912 H 0.0143 0.1179 0.38395 0.0
H913 H 0.97561 0.1259 0.37464 0.0
H914 H 0.99192 0.09205 0.33435 0.0
H915 H 0.03056 0.08332 0.3436 0.0
C916 C 0.14306 0.13251 0.3609 0.0
C917 C 0.14378 0.13282 0.34556 0.0
C918 C 0.12581 0.12053 0.36822 0.0
C919 C 0.10933 0.10803 0.36038 0.0
C920 C 0.11068 0.10762 0.34505 0.0
C921 C 0.12757 0.12002 0.33773 0.0
C922 C 0.08966 0.09699 0.36801 0.0
C923 C 0.06747 0.10151 0.36287 0.0
C924 C 0.09237 0.08334 0.38069 0.0
C925 C 0.11521 0.07635 0.38615 0.0
C926 C 0.13098 0.06564 0.37679 0.0
C927 C 0.15244 0.05905 0.38201 0.0
C928 C 0.15828 0.06291 0.3966 0.0
C929 C 0.14268 0.07341 0.40599 0.0
C930 C 0.12122 0.08008 0.40083 0.0
C931 C 0.99279 0.05603 0.39337 0.0
C932 C 0.99004 0.06439 0.40767 0.0
C933 C 0.01301 0.06018 0.38563 0.0
C934 C 0.03076 0.07297 0.39198 0.0
C935 C 0.02857 0.08015 0.40652 0.0
C936 C 0.00846 0.07593 0.41428 0.0
C937 C 0.05076 0.08061 0.38322 0.0
C938 C 0.07287 0.0756 0.38821 0.0
C939 C 0.04807 0.09358 0.37029 0.0
C940 C 0.02521 0.09975 0.36452 0.0
C941 C 0.0096 0.1121 0.37312 0.0
C942 C 0.98767 0.11673 0.36787 0.0
C943 C 0.98128 0.10944 0.35392 0.0
C944 C 0.99687 0.09763 0.34516 0.0
C945 C 0.01878 0.09281 0.35042 0.0
H946 H 0.96426 0.11293 0.34987 0.0
H947 H 0.17485 0.0577 0.40064 0.0
H948 H 0.6164 0.41048 0.113 0.0
H949 H 0.63651 0.37944 0.12543 0.0
H950 H 0.63543 0.33966 0.08577 0.0
H951 H 0.61503 0.37033 0.07336 0.0
H952 H 0.62064 0.31486 0.10762 0.0
H953 H 0.68544 0.36294 0.09959 0.0
H954 H 0.70784 0.3986 0.10027 0.0
H955 H 0.70454 0.39894 0.14711 0.0
H956 H 0.68182 0.36343 0.14671 0.0
H957 H 0.68888 0.22409 0.13428 0.0
H958 H 0.67898 0.2581 0.12001 0.0
H959 H 0.66894 0.29628 0.15976 0.0
H960 H 0.6786 0.26238 0.17412 0.0
H961 H 0.69134 0.32163 0.13721 0.0
H962 H 0.62408 0.27552 0.14485 0.0
H963 H 0.60156 0.23991 0.14423 0.0
H964 H 0.61004 0.23609 0.09772 0.0
H965 H 0.63287 0.27159 0.09809 0.0
C966 C 0.62075 0.39528 0.10685 0.0
C967 C 0.61392 0.3929 0.09218 0.0
C968 C 0.63232 0.37754 0.11397 0.0
C969 C 0.63756 0.35717 0.10654 0.0
C970 C 0.6315 0.35513 0.09177 0.0
C971 C 0.61985 0.37276 0.08467 0.0
C972 C 0.64784 0.33737 0.11436 0.0
C973 C 0.63634 0.31631 0.11385 0.0
C974 C 0.66804 0.33929 0.12281 0.0
C975 C 0.68173 0.36063 0.12311 0.0
C976 C 0.68932 0.37071 0.11003 0.0
C977 C 0.70211 0.39088 0.11037 0.0
C978 C 0.70756 0.40106 0.12372 0.0
C979 C 0.70028 0.39105 0.13677 0.0
C980 C 0.68747 0.37089 0.1365 0.0
C981 C 0.68494 0.23982 0.13999 0.0
C982 C 0.68431 0.24046 0.15533 0.0
C983 C 0.67924 0.25921 0.13182 0.0
C984 C 0.67305 0.27964 0.13884 0.0
C985 C 0.67365 0.28069 0.15413 0.0
C986 C 0.67906 0.26125 0.16231 0.0
C987 C 0.66417 0.29931 0.13033 0.0
C988 C 0.67581 0.32027 0.1308 0.0
C989 C 0.64412 0.29736 0.12179 0.0
C990 C 0.63037 0.27606 0.12152 0.0
C991 C 0.6213 0.26698 0.1345 0.0
C992 C 0.60845 0.24685 0.1342 0.0
C993 C 0.6044 0.23573 0.12094 0.0
C994 C 0.6132 0.24473 0.10797 0.0
C995 C 0.62608 0.26486 0.10822 0.0
H996 H 0.59438 0.22019 0.12073 0.0
H997 H 0.71746 0.41668 0.12396 0.0
H998 H 0.52629 0.93884 0.88696 0.0
H999 H 0.492 0.92852 0.87312 0.0
H1000 H 0.459 0.90696 0.91293 0.0
H1001 H 0.49314 0.91686 0.92677 0.0
H1002 H 0.45418 0.87538 0.89274 0.0
H1003 H 0.44343 0.95645 0.89494 0.0
H1004 H 0.45386 0.99699 0.89185 0.0
H1005 H 0.46134 0.98687 0.84566 0.0
H1006 H 0.45126 0.94617 0.84849 0.0
H1007 H 0.34251 0.86 0.86481 0.0
H1008 H 0.37392 0.87786 0.87829 0.0
H1009 H 0.41075 0.88802 0.83804 0.0
H1010 H 0.37958 0.86995 0.82447 0.0
H1011 H 0.41303 0.92609 0.85817 0.0
H1012 H 0.42534 0.84481 0.85635 0.0
H1013 H 0.41422 0.80447 0.85939 0.0
H1014 H 0.40333 0.81552 0.90522 0.0
H1015 H 0.41409 0.85608 0.9024 0.0
C1016 C 0.51164 0.93214 0.89279 0.0
C1017 C 0.51258 0.92855 0.90798 0.0
C1018 C 0.492 0.9263 0.88486 0.0
C1019 C 0.47284 0.917 0.89198 0.0
C1020 C 0.47357 0.91398 0.90717 0.0
C1021 C 0.49316 0.91969 0.91508 0.0
C1022 C 0.45244 0.90931 0.88361 0.0
C1023 C 0.44502 0.88663 0.88536 0.0
C1024 C 0.44072 0.92375 0.87369 0.0
C1025 C 0.44682 0.9482 0.87195 0.0
C1026 C 0.44749 0.96282 0.88414 0.0
C1027 C 0.4533 0.98584 0.88243 0.0
C1028 C 0.45832 0.99449 0.86857 0.0
C1029 C 0.45748 0.98014 0.85639 0.0
C1030 C 0.4517 0.9571 0.85803 0.0
C1031 C 0.35711 0.86635 0.85878 0.0
C1032 C 0.3586 0.86337 0.84357 0.0
C1033 C 0.37507 0.8765 0.86651 0.0
C1034 C 0.3947 0.8841 0.85916 0.0
C1035 C 0.39574 0.88227 0.84391 0.0
C1036 C 0.37794 0.87183 0.83619 0.0
C1037 C 0.41483 0.89237 0.86747 0.0
C1038 C 0.42221 0.915 0.86564 0.0
C1039 C 0.42652 0.87795 0.87736 0.0
C1040 C 0.42027 0.85353 0.87914 0.0
C1041 C 0.42039 0.83869 0.86706 0.0
C1042 C 0.41418 0.81577 0.86874 0.0
C1043 C 0.40799 0.80744 0.88248 0.0
C1044 C 0.40808 0.82201 0.89458 0.0
C1045 C 0.41425 0.84496 0.89295 0.0
H1046 H 0.40319 0.78969 0.88376 0.0
H1047 H 0.46281 0.01232 0.86727 0.0
H1048 H 0.89789 0.40345 0.88276 0.0
H1049 H 0.87901 0.37196 0.8701 0.0
H1050 H 0.85228 0.3475 0.91119 0.0
H1051 H 0.87251 0.37814 0.92395 0.0
H1052 H 0.86781 0.31366 0.89762 0.0
H1053 H 0.8188 0.3754 0.88197 0.0
H1054 H 0.81054 0.41309 0.87106 0.0
H1055 H 0.84052 0.39139 0.83057 0.0
H1056 H 0.84925 0.35374 0.84127 0.0
H1057 H 0.80255 0.22632 0.86351 0.0
H1058 H 0.81145 0.26152 0.87681 0.0
H1059 H 0.8469 0.28768 0.83904 0.0
H1060 H 0.83773 0.25297 0.82561 0.0
H1061 H 0.82325 0.32094 0.8518 0.0
H1062 H 0.8757 0.26217 0.86751 0.0
H1063 H 0.88617 0.22462 0.87777 0.0
H1064 H 0.85109 0.24107 0.9176 0.0
H1065 H 0.84015 0.27861 0.90749 0.0
C1066 C 0.88768 0.39155 0.88905 0.0
C1067 C 0.88662 0.39326 0.90433 0.0
C1068 C 0.87674 0.37357 0.88179 0.0
C1069 C 0.86378 0.35741 0.8896 0.0
C1070 C 0.86213 0.35964 0.90486 0.0
C1071 C 0.87362 0.37722 0.91216 0.0
C1072 C 0.85335 0.3373 0.88208 0.0
C1073 C 0.85762 0.3154 0.88779 0.0
C1074 C 0.84058 0.33929 0.86898 0.0
C1075 C 0.83481 0.36179 0.86246 0.0
C1076 C 0.8237 0.3787 0.87076 0.0
C1077 C 0.81894 0.40006 0.86461 0.0
C1078 C 0.82507 0.40463 0.85014 0.0
C1079 C 0.83582 0.38783 0.84177 0.0
C1080 C 0.84064 0.36647 0.84787 0.0
C1081 C 0.81204 0.23965 0.85797 0.0
C1082 C 0.81965 0.23662 0.84352 0.0
C1083 C 0.81719 0.25975 0.86562 0.0
C1084 C 0.83017 0.27712 0.85901 0.0
C1085 C 0.83693 0.27452 0.84441 0.0
C1086 C 0.83176 0.25453 0.83676 0.0
C1087 C 0.83775 0.29755 0.8674 0.0
C1088 C 0.83305 0.3194 0.86181 0.0
C1089 C 0.85022 0.29557 0.88058 0.0
C1090 C 0.85689 0.27307 0.88669 0.0
C1091 C 0.87008 0.2577 0.87842 0.0
C1092 C 0.87612 0.23644 0.88421 0.0
C1093 C 0.86924 0.23044 0.89831 0.0
C1094 C 0.85637 0.24572 0.90667 0.0
C1095 C 0.85025 0.26699 0.90091 0.0
H1096 H 0.87393 0.21397 0.90278 0.0
H1097 H 0.82151 0.42116 0.8454 0.0
H1098 H 0.37753 0.12481 0.67713 0.0
H1099 H 0.40806 0.10428 0.66453 0.0
H1100 H 0.37637 0.11926 0.62307 0.0
H1101 H 0.34523 0.13895 0.63568 0.0
H1102 H 0.39482 0.07861 0.62184 0.0
H1103 H 0.42104 0.15263 0.63785 0.0
H1104 H 0.42854 0.18306 0.65587 0.0
H1105 H 0.47252 0.13791 0.67988 0.0
H1106 H 0.46505 0.10712 0.66209 0.0
H1107 H 0.4922 0.07999 0.57536 0.0
H1108 H 0.45797 0.0872 0.58982 0.0
H1109 H 0.49335 0.06542 0.62872 0.0
H1110 H 0.5279 0.05837 0.61434 0.0
H1111 H 0.47324 0.10609 0.63254 0.0
H1112 H 0.4501 0.03336 0.614 0.0
H1113 H 0.44243 0.00394 0.59536 0.0
H1114 H 0.39294 0.04779 0.57505 0.0
H1115 H 0.40057 0.07764 0.59343 0.0
C1116 C 0.3769 0.12346 0.66534 0.0
C1117 C 0.35909 0.13375 0.65739 0.0
C1118 C 0.39443 0.11179 0.65813 0.0
C1119 C 0.3949 0.11073 0.6428 0.0
C1120 C 0.37649 0.11993 0.63489 0.0
C1121 C 0.3587 0.13123 0.64212 0.0
C1122 C 0.41517 0.10135 0.63499 0.0
C1123 C 0.41195 0.08475 0.62409 0.0
C1124 C 0.43764 0.10897 0.6381 0.0
C1125 C 0.4423 0.12752 0.64873 0.0
C1126 C 0.4322 0.14916 0.64702 0.0
C1127 C 0.43646 0.16647 0.65719 0.0
C1128 C 0.45095 0.1624 0.66904 0.0
C1129 C 0.46127 0.14102 0.67071 0.0
C1130 C 0.45704 0.12365 0.66059 0.0
C1131 C 0.49271 0.0765 0.58698 0.0
C1132 C 0.51294 0.0688 0.5937 0.0
C1133 C 0.47301 0.08046 0.59521 0.0
C1134 C 0.47301 0.07674 0.61036 0.0
C1135 C 0.49294 0.06839 0.61705 0.0
C1136 C 0.51267 0.06432 0.6088 0.0
C1137 C 0.45291 0.08346 0.61932 0.0
C1138 C 0.45616 0.0997 0.63039 0.0
C1139 C 0.43051 0.07566 0.61623 0.0
C1140 C 0.42602 0.05781 0.60507 0.0
C1141 C 0.43772 0.03682 0.60549 0.0
C1142 C 0.43334 0.02004 0.59499 0.0
C1143 C 0.41717 0.02398 0.58405 0.0
C1144 C 0.40541 0.04474 0.58356 0.0
C1145 C 0.40975 0.06159 0.59402 0.0
H1146 H 0.41378 0.01096 0.57595 0.0
H1147 H 0.45422 0.17582 0.6769 0.0
H1148 H 0.69024 0.77397 0.36262 0.0
H1149 H 0.68159 0.73807 0.37512 0.0
H1150 H 0.66314 0.70727 0.33396 0.0
H1151 H 0.67115 0.74322 0.32148 0.0
H1152 H 0.63153 0.69864 0.35287 0.0
H1153 H 0.71249 0.69192 0.35306 0.0
H1154 H 0.75243 0.70371 0.35712 0.0
H1155 H 0.73967 0.70952 0.40314 0.0
H1156 H 0.69954 0.69808 0.39934 0.0
H1157 H 0.61433 0.58902 0.3841 0.0
H1158 H 0.63324 0.61875 0.36967 0.0
H1159 H 0.64291 0.65911 0.40856 0.0
H1160 H 0.62403 0.6296 0.42307 0.0
H1161 H 0.68088 0.66025 0.38946 0.0
H1162 H 0.59855 0.66994 0.38798 0.0
H1163 H 0.55916 0.65678 0.38336 0.0
H1164 H 0.576 0.64383 0.33847 0.0
H1165 H 0.6156 0.65661 0.34289 0.0
C1166 C 0.68464 0.75947 0.3562 0.0
C1167 C 0.68123 0.76156 0.34106 0.0
C1168 C 0.67977 0.73888 0.36336 0.0
C1169 C 0.67179 0.71984 0.3555 0.0
C1170 C 0.66915 0.7217 0.3403 0.0
C1171 C 0.67377 0.7423 0.33317 0.0
C1172 C 0.66467 0.69855 0.36319 0.0
C1173 C 0.64256 0.69005 0.36065 0.0
C1174 C 0.67882 0.68741 0.37354 0.0
C1175 C 0.70294 0.69434 0.37589 0.0
C1176 C 0.71814 0.6959 0.36403 0.0
C1177 C 0.74083 0.70248 0.36629 0.0
C1178 C 0.74857 0.70741 0.38038 0.0
C1179 C 0.73365 0.70572 0.39224 0.0
C1180 C 0.71093 0.69916 0.39004 0.0
C1181 C 0.62081 0.60403 0.38964 0.0
C1182 C 0.61742 0.60701 0.40474 0.0
C1183 C 0.63157 0.62103 0.38136 0.0
C1184 C 0.63926 0.64123 0.38803 0.0
C1185 C 0.63708 0.64367 0.4032 0.0
C1186 C 0.62616 0.62681 0.41146 0.0
C1187 C 0.64786 0.66063 0.37913 0.0
C1188 C 0.67011 0.66879 0.38151 0.0
C1189 C 0.63396 0.67135 0.36851 0.0
C1190 C 0.61008 0.66399 0.3658 0.0
C1191 C 0.59389 0.66413 0.37715 0.0
C1192 C 0.57152 0.65676 0.37456 0.0
C1193 C 0.5651 0.6494 0.36064 0.0
C1194 C 0.58101 0.64949 0.34926 0.0
C1195 C 0.60341 0.6568 0.35179 0.0
H1196 H 0.54778 0.64369 0.35866 0.0
H1197 H 0.76615 0.7125 0.3821 0.0
H1198 H 0.16094 0.86656 0.13647 0.0
H1199 H 0.12958 0.88671 0.12436 0.0
H1200 H 0.08937 0.8823 0.16375 0.0
H1201 H 0.12032 0.86184 0.1758 0.0
H1202 H 0.06511 0.86856 0.14151 0.0
H1203 H 0.11205 0.93354 0.1514 0.0
H1204 H 0.14733 0.95658 0.15141 0.0
H1205 H 0.14788 0.9565 0.10452 0.0
H1206 H 0.11276 0.93317 0.10423 0.0
H1207 H 0.97334 0.93741 0.11696 0.0
H1208 H 0.0077 0.92747 0.13089 0.0
H1209 H 0.04543 0.91938 0.09079 0.0
H1210 H 0.01118 0.92902 0.07678 0.0
H1211 H 0.07074 0.94136 0.11395 0.0
H1212 H 0.02532 0.87403 0.10455 0.0
H1213 H 0.98982 0.85133 0.10472 0.0
H1214 H 0.98659 0.85656 0.15145 0.0
H1215 H 0.02192 0.87962 0.15153 0.0
C1216 C 0.14555 0.87015 0.14262 0.0
C1217 C 0.14315 0.8624 0.15709 0.0
C1218 C 0.12764 0.88176 0.13569 0.0
C1219 C 0.10709 0.88611 0.14315 0.0
C1220 C 0.10499 0.87907 0.15774 0.0
C1221 C 0.12277 0.86737 0.16462 0.0
C1222 C 0.08719 0.89655 0.13554 0.0
C1223 C 0.06632 0.8847 0.13572 0.0
C1224 C 0.08878 0.91735 0.12768 0.0
C1225 C 0.10989 0.93141 0.1278 0.0
C1226 C 0.11979 0.93827 0.14109 0.0
C1227 C 0.13974 0.95141 0.14115 0.0
C1228 C 0.14987 0.95794 0.12798 0.0
C1229 C 0.14003 0.9514 0.11472 0.0
C1230 C 0.12009 0.93823 0.1146 0.0
C1231 C 0.98904 0.93391 0.11111 0.0
C1232 C 0.98947 0.93377 0.09576 0.0
C1233 C 0.00864 0.9282 0.11909 0.0
C1234 C 0.02904 0.92254 0.11185 0.0
C1235 C 0.02987 0.9237 0.09657 0.0
C1236 C 0.01023 0.92908 0.08859 0.0
C1237 C 0.04886 0.91341 0.12009 0.0
C1238 C 0.06964 0.92538 0.11991 0.0
C1239 C 0.04723 0.89276 0.12804 0.0
C1240 C 0.02609 0.87877 0.12803 0.0
C1241 C 0.01693 0.87051 0.11485 0.0
C1242 C 0.99686 0.85755 0.1149 0.0
C1243 C 0.98591 0.85257 0.12808 0.0
C1244 C 0.99506 0.86048 0.14124 0.0
C1245 C 0.01511 0.87349 0.14125 0.0
H1246 H 0.97038 0.84253 0.1281 0.0
H1247 H 0.16531 0.96812 0.12804 0.0
H1248 H 0.71184 0.73926 0.85653 0.0
H1249 H 0.70405 0.77417 0.87058 0.0
H1250 H 0.63669 0.77775 0.85145 0.0
H1251 H 0.6449 0.74396 0.83693 0.0
H1252 H 0.65175 0.81757 0.85203 0.0
H1253 H 0.64955 0.75703 0.88805 0.0
H1254 H 0.66518 0.72465 0.90213 0.0
H1255 H 0.71941 0.76734 0.91807 0.0
H1256 H 0.70422 0.79991 0.90395 0.0
H1257 H 0.60071 0.8635 0.92375 0.0
H1258 H 0.62072 0.83367 0.91046 0.0
H1259 H 0.65347 0.88463 0.88357 0.0
H1260 H 0.63257 0.91475 0.89649 0.0
H1261 H 0.66144 0.82029 0.90579 0.0
H1262 H 0.66126 0.86399 0.8494 0.0
H1263 H 0.6397 0.89338 0.83582 0.0
H1264 H 0.57994 0.87905 0.86145 0.0
H1265 H 0.60107 0.84942 0.87505 0.0
C1266 C 0.69541 0.74758 0.85537 0.0
C1267 C 0.679 0.73893 0.84562 0.0
C1268 C 0.69091 0.76749 0.86343 0.0
C1269 C 0.66966 0.77863 0.86221 0.0
C1270 C 0.6533 0.76975 0.85254 0.0
C1271 C 0.65798 0.75031 0.84426 0.0
C1272 C 0.66399 0.79939 0.87097 0.0
C1273 C 0.65403 0.81815 0.86378 0.0
C1274 C 0.66681 0.80033 0.88633 0.0
C1275 C 0.67592 0.7808 0.89482 0.0
C1276 C 0.6649 0.75945 0.89448 0.0
C1277 C 0.67366 0.74108 0.90248 0.0
C1278 C 0.69332 0.74391 0.91095 0.0
C1279 C 0.70421 0.76515 0.91148 0.0
C1280 C 0.69553 0.78357 0.90349 0.0
C1281 C 0.61231 0.86849 0.9151 0.0
C1282 C 0.6148 0.89158 0.9111 0.0
C1283 C 0.62386 0.85133 0.90753 0.0
C1284 C 0.6384 0.85676 0.89584 0.0
C1285 C 0.64196 0.87991 0.89233 0.0
C1286 C 0.63006 0.89714 0.89977 0.0
C1287 C 0.64847 0.83801 0.88689 0.0
C1288 C 0.65946 0.81978 0.89401 0.0
C1289 C 0.64575 0.8371 0.87153 0.0
C1290 C 0.63284 0.85474 0.86335 0.0
C1291 C 0.64351 0.86711 0.85211 0.0
C1292 C 0.63137 0.8838 0.84441 0.0
C1293 C 0.6085 0.88815 0.84781 0.0
C1294 C 0.59768 0.87574 0.85887 0.0
C1295 C 0.60973 0.85901 0.86658 0.0
H1296 H 0.59914 0.90109 0.84185 0.0
H1297 H 0.70008 0.72967 0.91713 0.0
H1298 H 0.50792 0.46056 0.10477 0.0
H1299 H 0.47244 0.45234 0.11809 0.0
H1300 H 0.47575 0.3821 0.10372 0.0
H1301 H 0.51005 0.39071 0.08972 0.0
H1302 H 0.43511 0.39351 0.10202 0.0
H1303 H 0.49156 0.40322 0.14019 0.0
H1304 H 0.52106 0.42405 0.1541 0.0
H1305 H 0.47279 0.47717 0.16387 0.0
H1306 H 0.44308 0.45676 0.14987 0.0
H1307 H 0.38302 0.35347 0.17475 0.0
H1308 H 0.4136 0.37238 0.16147 0.0
H1309 H 0.36479 0.39831 0.1303 0.0
H1310 H 0.33395 0.37874 0.14333 0.0
H1311 H 0.42562 0.41341 0.1543 0.0
H1312 H 0.38902 0.39888 0.0965 0.0
H1313 H 0.36266 0.37276 0.08367 0.0
H1314 H 0.3768 0.32011 0.11507 0.0
H1315 H 0.40344 0.34581 0.12795 0.0
C1316 C 0.50098 0.4434 0.10452 0.0
C1317 C 0.51169 0.42626 0.09623 0.0
C1318 C 0.48077 0.43866 0.11217 0.0
C1319 C 0.4714 0.41648 0.11211 0.0
C1320 C 0.48236 0.39939 0.10391 0.0
C1321 C 0.50208 0.40428 0.09595 0.0
C1322 C 0.45026 0.4107 0.12048 0.0
C1323 C 0.43307 0.39801 0.11344 0.0
C1324 C 0.44739 0.41638 0.13542 0.0
C1325 C 0.4652 0.4286 0.14386 0.0
C1326 C 0.4873 0.41942 0.14523 0.0
C1327 C 0.50404 0.43113 0.15314 0.0
C1328 C 0.49882 0.45196 0.15983 0.0
C1329 C 0.47682 0.46107 0.15866 0.0
C1330 C 0.46003 0.44943 0.15075 0.0
C1331 C 0.37863 0.36335 0.16515 0.0
C1332 C 0.35596 0.36429 0.16004 0.0
C1333 C 0.39622 0.37428 0.15758 0.0
C1334 C 0.39163 0.38653 0.14474 0.0
C1335 C 0.36885 0.3886 0.14002 0.0
C1336 C 0.35121 0.37745 0.14753 0.0
C1337 C 0.41095 0.39572 0.13592 0.0
C1338 C 0.42763 0.40919 0.14284 0.0
C1339 C 0.41382 0.39 0.12101 0.0
C1340 C 0.39796 0.37437 0.11329 0.0
C1341 C 0.38651 0.38172 0.10064 0.0
C1342 C 0.37154 0.36699 0.09336 0.0
C1343 C 0.36798 0.34483 0.09859 0.0
C1344 C 0.37948 0.33731 0.11107 0.0
C1345 C 0.39451 0.35196 0.11837 0.0
H1346 H 0.35637 0.33346 0.09294 0.0
H1347 H 0.5118 0.461 0.16595 0.0
H1348 H 0.88983 0.08945 0.38514 0.0
H1349 H 0.87065 0.1201 0.37166 0.0
H1350 H 0.86393 0.15897 0.41142 0.0
H1351 H 0.8832 0.12857 0.42496 0.0
H1352 H 0.8245 0.16045 0.39412 0.0
H1353 H 0.90553 0.17191 0.38926 0.0
H1354 H 0.94556 0.16352 0.38278 0.0
H1355 H 0.92587 0.1517 0.33825 0.0
H1356 H 0.88564 0.1597 0.34451 0.0
H1357 H 0.81068 0.27384 0.36568 0.0
H1358 H 0.82029 0.2385 0.37863 0.0
H1359 H 0.83432 0.20535 0.3375 0.0
H1360 H 0.82532 0.24063 0.32457 0.0
H1361 H 0.86848 0.19941 0.35509 0.0
H1362 H 0.78758 0.19078 0.35949 0.0
H1363 H 0.74818 0.2021 0.3657 0.0
H1364 H 0.76727 0.20957 0.41072 0.0
H1365 H 0.80688 0.1986 0.40475 0.0
C1366 C 0.88403 0.10439 0.39106 0.0
C1367 C 0.88821 0.10659 0.40613 0.0
C1368 C 0.87315 0.12193 0.38332 0.0
C1369 C 0.86603 0.1419 0.39052 0.0
C1370 C 0.86929 0.14372 0.40565 0.0
C1371 C 0.88041 0.12634 0.41336 0.0
C1372 C 0.85621 0.16137 0.38221 0.0
C1373 C 0.83413 0.1691 0.38563 0.0
C1374 C 0.86861 0.17235 0.37097 0.0
C1375 C 0.89254 0.16616 0.36739 0.0
C1376 C 0.90967 0.16716 0.37814 0.0
C1377 C 0.93241 0.16257 0.37449 0.0
C1378 C 0.93824 0.15714 0.36011 0.0
C1379 C 0.92131 0.15594 0.34938 0.0
C1380 C 0.89855 0.16049 0.35297 0.0
C1381 C 0.81543 0.2589 0.35939 0.0
C1382 C 0.81746 0.26015 0.3441 0.0
C1383 C 0.82084 0.23865 0.3668 0.0
C1384 C 0.82802 0.21918 0.35905 0.0
C1385 C 0.82897 0.22014 0.34375 0.0
C1386 C 0.8238 0.24036 0.33636 0.0
C1387 C 0.8366 0.19853 0.36684 0.0
C1388 C 0.8586 0.19062 0.3634 0.0
C1389 C 0.82406 0.18742 0.37801 0.0
C1390 C 0.80026 0.19407 0.38164 0.0
C1391 C 0.78343 0.19503 0.37069 0.0
C1392 C 0.76105 0.20135 0.37417 0.0
C1393 C 0.75524 0.20661 0.38858 0.0
C1394 C 0.7718 0.20552 0.39955 0.0
C1395 C 0.79421 0.19923 0.39613 0.0
H1396 H 0.7379 0.21149 0.39126 0.0
H1397 H 0.95589 0.15407 0.35724 0.0
H1398 H 0.12941 0.62593 0.67448 0.0
H1399 H 0.09828 0.60739 0.66104 0.0
H1400 H 0.12774 0.62987 0.62037 0.0
H1401 H 0.1593 0.64792 0.63368 0.0
H1402 H 0.07878 0.64257 0.62706 0.0
H1403 H 0.13073 0.57888 0.62425 0.0
H1404 H 0.15678 0.54972 0.63426 0.0
H1405 H 0.10208 0.52191 0.65997 0.0
H1406 H 0.07577 0.55116 0.65028 0.0
H1407 H 0.00715 0.59279 0.57524 0.0
H1408 H 0.04133 0.60244 0.58903 0.0
H1409 H 0.01478 0.5668 0.62658 0.0
H1410 H 0.98021 0.55688 0.61279 0.0
H1411 H 0.06189 0.55974 0.62252 0.0
H1412 H 0.00998 0.62204 0.62621 0.0
H1413 H 0.98298 0.65131 0.61743 0.0
H1414 H 0.03626 0.68227 0.59196 0.0
H1415 H 0.06351 0.65295 0.60042 0.0
C1416 C 0.12946 0.62659 0.66266 0.0
C1417 C 0.14678 0.63842 0.65514 0.0
C1418 C 0.11171 0.61595 0.65501 0.0
C1419 C 0.11076 0.6173 0.63974 0.0
C1420 C 0.12827 0.62861 0.63217 0.0
C1421 C 0.1463 0.63882 0.63978 0.0
C1422 C 0.09054 0.60853 0.63179 0.0
C1423 C 0.07525 0.62446 0.62586 0.0
C1424 C 0.08555 0.58494 0.63079 0.0
C1425 C 0.10135 0.5674 0.63668 0.0
C1426 C 0.12432 0.56672 0.63217 0.0
C1427 C 0.13912 0.55014 0.63776 0.0
C1428 C 0.13111 0.53402 0.64779 0.0
C1429 C 0.10827 0.53443 0.65223 0.0
C1430 C 0.0934 0.551 0.64668 0.0
C1431 C 0.00851 0.58678 0.5864 0.0
C1432 C 0.9907 0.57424 0.59294 0.0
C1433 C 0.02813 0.59236 0.59427 0.0
C1434 C 0.03046 0.58564 0.60889 0.0
C1435 C 0.01328 0.57222 0.61531 0.0
C1436 C 0.99351 0.56662 0.60742 0.0
C1437 C 0.05032 0.59381 0.61754 0.0
C1438 C 0.06543 0.57784 0.62369 0.0
C1439 C 0.05504 0.61744 0.61896 0.0
C1440 C 0.03873 0.63515 0.61384 0.0
C1441 C 0.01589 0.63496 0.61863 0.0
C1442 C 1.00055 0.65159 0.61373 0.0
C1443 C 0.00789 0.6686 0.60411 0.0
C1444 C 0.03059 0.66906 0.5994 0.0
C1445 C 0.046 0.65245 0.60425 0.0
H1446 H 0.99599 0.68147 0.60033 0.0
H1447 H 0.1426 0.52118 0.65209 0.0
H1448 H 0.63613 0.09031 0.60263 0.0
H1449 H 0.65712 0.12062 0.61535 0.0
H1450 H 0.61242 0.17111 0.59622 0.0
H1451 H 0.59237 0.14119 0.58298 0.0
H1452 H 0.65172 0.18814 0.59651 0.0
H1453 H 0.60685 0.14869 0.63289 0.0
H1454 H 0.59398 0.11535 0.64719 0.0
H1455 H 0.66235 0.105 0.6629 0.0
H1456 H 0.67566 0.13815 0.64854 0.0
H1457 H 0.6534 0.25549 0.66932 0.0
H1458 H 0.64387 0.22171 0.65521 0.0
H1459 H 0.70243 0.23323 0.6275 0.0
H1460 H 0.71155 0.26798 0.64131 0.0
H1461 H 0.66153 0.18323 0.65019 0.0
H1462 H 0.69183 0.21283 0.59336 0.0
H1463 H 0.69828 0.24854 0.57961 0.0
H1464 H 0.64804 0.2828 0.60585 0.0
H1465 H 0.64111 0.24723 0.61963 0.0
C1466 C 0.63094 0.10791 0.60108 0.0
C1467 C 0.61256 0.11332 0.5918 0.0
C1468 C 0.64287 0.12524 0.60841 0.0
C1469 C 0.63621 0.14825 0.60696 0.0
C1470 C 0.61807 0.15359 0.59751 0.0
C1471 C 0.60652 0.1364 0.58996 0.0
C1472 C 0.64739 0.16686 0.61553 0.0
C1473 C 0.65397 0.18696 0.60825 0.0
C1474 C 0.65025 0.16559 0.63088 0.0
C1475 C 0.64229 0.14569 0.63951 0.0
C1476 C 0.61916 0.1392 0.63932 0.0
C1477 C 0.61178 0.12036 0.64744 0.0
C1478 C 0.62735 0.10802 0.65591 0.0
C1479 C 0.65032 0.11454 0.6563 0.0
C1480 C 0.65778 0.13335 0.64818 0.0
C1481 C 0.66438 0.2509 0.66026 0.0
C1482 C 0.68318 0.26462 0.6564 0.0
C1483 C 0.65893 0.23142 0.6522 0.0
C1484 C 0.67224 0.2249 0.64015 0.0
C1485 C 0.69156 0.23809 0.63656 0.0
C1486 C 0.69683 0.25792 0.6445 0.0
C1487 C 0.66514 0.20477 0.63123 0.0
C1488 C 0.65954 0.1843 0.63843 0.0
C1489 C 0.66228 0.20605 0.61589 0.0
C1490 C 0.6662 0.22747 0.60764 0.0
C1491 C 0.68215 0.22799 0.59617 0.0
C1492 C 0.68588 0.24819 0.58837 0.0
C1493 C 0.67365 0.26795 0.5919 0.0
C1494 C 0.65758 0.26751 0.60318 0.0
C1495 C 0.65376 0.24735 0.61099 0.0
H1496 H 0.67657 0.28358 0.58586 0.0
H1497 H 0.62161 0.09344 0.66219 0.0
H1498 H 0.12413 0.3708 0.82495 0.0
H1499 H 0.09388 0.39046 0.83839 0.0
H1500 H 0.13228 0.38315 0.8783 0.0
H1501 H 0.16279 0.36361 0.86492 0.0
H1502 H 0.08752 0.3669 0.88019 0.0
H1503 H 0.12619 0.43456 0.86451 0.0
H1504 H 0.14422 0.46068 0.84681 0.0
H1505 H 0.08058 0.46709 0.82383 0.0
H1506 H 0.06224 0.44073 0.84129 0.0
H1507 H 0.00897 0.42458 0.92456 0.0
H1508 H 0.04441 0.4155 0.91182 0.0
H1509 H 0.01174 0.42912 0.87049 0.0
H1510 H 0.97624 0.43891 0.88326 0.0
H1511 H 0.05506 0.44356 0.86986 0.0
H1512 H 0.01711 0.3742 0.8837 0.0
H1513 H 0.99841 0.34724 0.9006 0.0
H1514 H 0.06 0.3428 0.92593 0.0
H1515 H 0.07898 0.36999 0.90927 0.0
C1516 C 0.12634 0.37367 0.83655 0.0
C1517 C 0.14588 0.36552 0.84386 0.0
C1518 C 0.10905 0.385 0.84421 0.0
C1519 C 0.11083 0.38829 0.85934 0.0
C1520 C 0.13059 0.38081 0.86661 0.0
C1521 C 0.14805 0.36972 0.85893 0.0
C1522 C 0.09127 0.39783 0.8677 0.0
C1523 C 0.08069 0.38384 0.87813 0.0
C1524 C 0.08192 0.41963 0.86466 0.0
C1525 C 0.09289 0.43549 0.85414 0.0
C1526 C 0.11608 0.44137 0.85561 0.0
C1527 C 0.12635 0.45626 0.84563 0.0
C1528 C 0.11357 0.46549 0.83418 0.0
C1529 C 0.09047 0.4599 0.8327 0.0
C1530 C 0.08012 0.445 0.84264 0.0
C1531 C 0.00934 0.42586 0.91276 0.0
C1532 C 0.98965 0.43218 0.90491 0.0
C1533 C 0.02963 0.42061 0.90548 0.0
C1534 C 0.03063 0.42108 0.89016 0.0
C1535 C 0.01137 0.4285 0.88231 0.0
C1536 C 0.99107 0.43407 0.88962 0.0
C1537 C 0.05132 0.41262 0.88238 0.0
C1538 C 0.06202 0.42671 0.87201 0.0
C1539 C 0.0607 0.39077 0.88534 0.0
C1540 C 0.04938 0.3743 0.89532 0.0
C1541 C 0.02661 0.36759 0.89293 0.0
C1542 C 0.01597 0.35226 0.90246 0.0
C1543 C 0.02799 0.34336 0.91435 0.0
C1544 C 0.0507 0.34974 0.91672 0.0
C1545 C 0.06141 0.36509 0.90723 0.0
H1546 H 0.01972 0.33149 0.92172 0.0
H1547 H 0.12154 0.47702 0.82647 0.0
H1548 H 0.8975 0.86502 0.07869 0.0
H1549 H 0.87638 0.83539 0.09153 0.0
H1550 H 0.85351 0.88488 0.12322 0.0
H1551 H 0.87511 0.91477 0.11056 0.0
H1552 H 0.8687 0.84739 0.1364 0.0
H1553 H 0.81655 0.86217 0.0973 0.0
H1554 H 0.805 0.86766 0.07165 0.0
H1555 H 0.82625 0.79925 0.06149 0.0
H1556 H 0.83822 0.79344 0.08705 0.0
H1557 H 0.80487 0.76176 0.1721 0.0
H1558 H 0.81327 0.7971 0.15883 0.0
H1559 H 0.83436 0.75745 0.12139 0.0
H1560 H 0.82429 0.72226 0.13432 0.0
H1561 H 0.81567 0.79352 0.11188 0.0
H1562 H 0.87305 0.78075 0.14948 0.0
H1563 H 0.88589 0.77479 0.17487 0.0
H1564 H 0.85613 0.83894 0.1874 0.0
H1565 H 0.84295 0.84516 0.16211 0.0
C1566 C 0.88782 0.86977 0.0883 0.0
C1567 C 0.88805 0.89239 0.09356 0.0
C1568 C 0.87561 0.85275 0.09561 0.0
C1569 C 0.86306 0.85791 0.10824 0.0
C1570 C 0.863 0.88049 0.11346 0.0
C1571 C 0.87533 0.89758 0.10618 0.0
C1572 C 0.8511 0.83941 0.11638 0.0
C1573 C 0.85675 0.83588 0.1311 0.0
C1574 C 0.83586 0.82407 0.10943 0.0
C1575 C 0.8284 0.82742 0.09409 0.0
C1576 C 0.81888 0.84833 0.08959 0.0
C1577 C 0.81224 0.8515 0.07506 0.0
C1578 C 0.81492 0.83383 0.06494 0.0
C1579 C 0.82419 0.81293 0.06934 0.0
C1580 C 0.83086 0.80967 0.08385 0.0
C1581 C 0.81095 0.76071 0.16095 0.0
C1582 C 0.81409 0.73937 0.15423 0.0
C1583 C 0.81595 0.78088 0.1534 0.0
C1584 C 0.82521 0.78005 0.13922 0.0
C1585 C 0.82737 0.75867 0.13231 0.0
C1586 C 0.82164 0.73854 0.1397 0.0
C1587 C 0.8337 0.80113 0.13181 0.0
C1588 C 0.8274 0.80517 0.11723 0.0
C1589 C 0.84854 0.81685 0.13884 0.0
C1590 C 0.85686 0.81331 0.15396 0.0
C1591 C 0.8692 0.79354 0.15767 0.0
C1592 C 0.87653 0.79012 0.17204 0.0
C1593 C 0.87178 0.80645 0.18275 0.0
C1594 C 0.85978 0.82629 0.1791 0.0
C1595 C 0.8524 0.82979 0.16475 0.0
H1596 H 0.87743 0.80375 0.19387 0.0
H1597 H 0.8098 0.83632 0.0537 0.0
H1598 H 0.51145 0.54095 0.39758 0.0
H1599 H 0.47566 0.54935 0.38466 0.0
H1600 H 0.47862 0.61906 0.40005 0.0
H1601 H 0.51331 0.61034 0.41356 0.0
H1602 H 0.43784 0.60719 0.40151 0.0
H1603 H 0.495 0.60008 0.36362 0.0
H1604 H 0.52502 0.58038 0.3495 0.0
H1605 H 0.47763 0.52718 0.33823 0.0
H1606 H 0.44739 0.54648 0.35242 0.0
H1607 H 0.38813 0.65032 0.32864 0.0
H1608 H 0.41816 0.63116 0.34225 0.0
H1609 H 0.36813 0.60462 0.37242 0.0
H1610 H 0.33782 0.62452 0.35906 0.0
H1611 H 0.42962 0.59009 0.34874 0.0
H1612 H 0.39151 0.60166 0.40643 0.0
H1613 H 0.36497 0.62722 0.41957 0.0
H1614 H 0.38021 0.68147 0.38952 0.0
H1615 H 0.40702 0.65633 0.37633 0.0
C1616 C 0.50433 0.55801 0.3982 0.0
C1617 C 0.51513 0.57497 0.40659 0.0
C1618 C 0.48394 0.56285 0.39077 0.0
C1619 C 0.47444 0.58496 0.3912 0.0
C1620 C 0.48535 0.60182 0.3996 0.0
C1621 C 0.50529 0.59684 0.40729 0.0
C1622 C 0.4534 0.591 0.38284 0.0
C1623 C 0.43604 0.60328 0.38999 0.0
C1624 C 0.45092 0.58614 0.36776 0.0
C1625 C 0.46904 0.57457 0.35921 0.0
C1626 C 0.49104 0.58411 0.3582 0.0
C1627 C 0.50808 0.57303 0.35018 0.0
C1628 C 0.50325 0.5525 0.34301 0.0
C1629 C 0.48136 0.54306 0.34381 0.0
C1630 C 0.46426 0.55406 0.35183 0.0
C1631 C 0.38337 0.6403 0.33811 0.0
C1632 C 0.36049 0.63919 0.34282 0.0
C1633 C 0.40064 0.62922 0.34586 0.0
C1634 C 0.39553 0.61662 0.35848 0.0
C1635 C 0.37259 0.61458 0.36287 0.0
C1636 C 0.35525 0.62591 0.35519 0.0
C1637 C 0.41451 0.60684 0.36734 0.0
C1638 C 0.43133 0.59369 0.36031 0.0
C1639 C 0.417 0.61173 0.3824 0.0
C1640 C 0.401 0.62701 0.39029 0.0
C1641 C 0.3892 0.61905 0.40265 0.0
C1642 C 0.37412 0.63347 0.4101 0.0
C1643 C 0.37083 0.65592 0.40534 0.0
C1644 C 0.38269 0.66404 0.39316 0.0
C1645 C 0.39781 0.64971 0.38568 0.0
H1646 H 0.35915 0.66704 0.41112 0.0
H1647 H 0.51647 0.54395 0.33681 0.0
H1648 H 0.38912 0.13547 0.07726 0.0
H1649 H 0.37029 0.166 0.09065 0.0
H1650 H 0.36031 0.12099 0.12736 0.0
H1651 H 0.3793 0.08999 0.11399 0.0
H1652 H 0.32222 0.14977 0.12171 0.0
H1653 H 0.40241 0.15591 0.12939 0.0
H1654 H 0.4431 0.15731 0.12251 0.0
H1655 H 0.43101 0.21804 0.09735 0.0
H1656 H 0.39011 0.21679 0.10388 0.0
H1657 H 0.3149 0.24077 0.17532 0.0
H1658 H 0.32504 0.20652 0.16136 0.0
H1659 H 0.328 0.24663 0.12192 0.0
H1660 H 0.31728 0.28092 0.13576 0.0
H1661 H 0.369 0.21944 0.12969 0.0
H1662 H 0.28781 0.21263 0.12299 0.0
H1663 H 0.24764 0.21054 0.13099 0.0
H1664 H 0.2626 0.15042 0.15611 0.0
H1665 H 0.30297 0.15235 0.14845 0.0
C1666 C 0.38277 0.13183 0.08812 0.0
C1667 C 0.38602 0.11023 0.09458 0.0
C1668 C 0.372 0.1494 0.09577 0.0
C1669 C 0.36419 0.14586 0.11006 0.0
C1670 C 0.36629 0.12407 0.11634 0.0
C1671 C 0.37721 0.1064 0.10869 0.0
C1672 C 0.35516 0.16544 0.11859 0.0
C1673 C 0.33251 0.16489 0.12364 0.0
C1674 C 0.36855 0.18525 0.12096 0.0
C1675 C 0.39313 0.18611 0.117 0.0
C1676 C 0.40837 0.16945 0.12227 0.0
C1677 C 0.43148 0.17023 0.11846 0.0
C1678 C 0.43962 0.18772 0.10946 0.0
C1679 C 0.42467 0.20448 0.1043 0.0
C1680 C 0.40152 0.20375 0.10806 0.0
C1681 C 0.31736 0.24222 0.16364 0.0
C1682 C 0.31535 0.26353 0.15662 0.0
C1683 C 0.32308 0.22265 0.15569 0.0
C1684 C 0.32726 0.22409 0.14064 0.0
C1685 C 0.32477 0.24521 0.13354 0.0
C1686 C 0.31856 0.26473 0.14143 0.0
C1687 C 0.33596 0.20393 0.13259 0.0
C1688 C 0.35867 0.20434 0.12773 0.0
C1689 C 0.32271 0.18395 0.1306 0.0
C1690 C 0.29848 0.1828 0.13529 0.0
C1691 C 0.2826 0.19911 0.13036 0.0
C1692 C 0.25978 0.19792 0.1348 0.0
C1693 C 0.25259 0.1804 0.14409 0.0
C1694 C 0.2682 0.164 0.14894 0.0
C1695 C 0.29106 0.16513 0.14454 0.0
H1696 H 0.2349 0.1795 0.1475 0.0
H1697 H 0.45753 0.18831 0.10653 0.0
H1698 H 0.49653 0.60585 0.91674 0.0
H1699 H 0.53128 0.61376 0.90314 0.0
H1700 H 0.52302 0.55068 0.87928 0.0
H1701 H 0.48735 0.54316 0.8925 0.0
H1702 H 0.57045 0.59626 0.90056 0.0
H1703 H 0.54598 0.55583 0.84536 0.0
H1704 H 0.51154 0.54623 0.83104 0.0
H1705 H 0.47434 0.59987 0.85246 0.0
H1706 H 0.50861 0.60993 0.86677 0.0
H1707 H 0.66604 0.61853 0.85434 0.0
H1708 H 0.63585 0.59765 0.86729 0.0
H1709 H 0.58476 0.63687 0.8443 0.0
H1710 H 0.61453 0.65671 0.83092 0.0
H1711 H 0.56955 0.59703 0.84643 0.0
H1712 H 0.60463 0.6489 0.88097 0.0
H1713 H 0.63648 0.66502 0.89531 0.0
H1714 H 0.64795 0.59965 0.91533 0.0
H1715 H 0.6163 0.5831 0.90098 0.0
C1716 C 0.50207 0.59357 0.90863 0.0
C1717 C 0.48902 0.57393 0.90564 0.0
C1718 C 0.52209 0.59809 0.90088 0.0
C1719 C 0.52981 0.58298 0.89004 0.0
C1720 C 0.51724 0.56289 0.88736 0.0
C1721 C 0.49687 0.55856 0.89495 0.0
C1722 C 0.55051 0.58899 0.88132 0.0
C1723 C 0.57027 0.59626 0.88872 0.0
C1724 C 0.5504 0.58921 0.86585 0.0
C1725 C 0.52975 0.5834 0.85726 0.0
C1726 C 0.53044 0.56557 0.84699 0.0
C1727 C 0.51097 0.56006 0.83888 0.0
C1728 C 0.49074 0.57237 0.84088 0.0
C1729 C 0.48998 0.59028 0.85096 0.0
C1730 C 0.50942 0.59588 0.85908 0.0
C1731 C 0.64835 0.62248 0.85197 0.0
C1732 C 0.64274 0.63931 0.8416 0.0
C1733 C 0.63108 0.61062 0.85943 0.0
C1734 C 0.6079 0.61585 0.85697 0.0
C1735 C 0.6024 0.63232 0.84639 0.0
C1736 C 0.61954 0.64376 0.83874 0.0
C1737 C 0.58918 0.60513 0.86567 0.0
C1738 C 0.56987 0.59672 0.85827 0.0
C1739 C 0.58933 0.60479 0.88114 0.0
C1740 C 0.60831 0.61471 0.88978 0.0
C1741 C 0.61405 0.63794 0.88836 0.0
C1742 C 0.63205 0.64715 0.8965 0.0
C1743 C 0.64428 0.63334 0.90619 0.0
C1744 C 0.63849 0.61031 0.9078 0.0
C1745 C 0.62053 0.60101 0.89967 0.0
H1746 H 0.6582 0.64051 0.91248 0.0
H1747 H 0.47568 0.56806 0.8346 0.0
H1748 H 0.16183 0.75466 0.6738 0.0
H1749 H 0.15203 0.78894 0.66019 0.0
H1750 H 0.19662 0.76792 0.62515 0.0
H1751 H 0.20596 0.73293 0.63855 0.0
H1752 H 0.17178 0.82492 0.64983 0.0
H1753 H 0.17347 0.78345 0.59268 0.0
H1754 H 0.16969 0.74536 0.58134 0.0
H1755 H 0.12874 0.72269 0.61746 0.0
H1756 H 0.13205 0.7607 0.62891 0.0
H1757 H 0.13909 0.91335 0.59997 0.0
H1758 H 0.16019 0.88277 0.6124 0.0
H1759 H 0.10429 0.83629 0.60418 0.0
H1760 H 0.08419 0.86622 0.59089 0.0
H1761 H 0.13953 0.81409 0.60024 0.0
H1762 H 0.1168 0.86524 0.63937 0.0
H1763 H 0.11511 0.90246 0.65201 0.0
H1764 H 0.18837 0.90409 0.65455 0.0
H1765 H 0.19047 0.86694 0.64184 0.0
C1766 C 0.16972 0.75728 0.66324 0.0
C1767 C 0.18442 0.74073 0.65718 0.0
C1768 C 0.16418 0.77706 0.65548 0.0
C1769 C 0.17325 0.78093 0.64152 0.0
C1770 C 0.189 0.76513 0.63579 0.0
C1771 C 0.1944 0.74514 0.64349 0.0
C1772 C 0.16488 0.80064 0.6327 0.0
C1773 C 0.16484 0.82258 0.63895 0.0
C1774 C 0.15553 0.79766 0.61857 0.0
C1775 C 0.15328 0.77481 0.61172 0.0
C1776 C 0.16364 0.77034 0.59818 0.0
C1777 C 0.16157 0.74877 0.59174 0.0
C1778 C 0.14906 0.73159 0.59871 0.0
C1779 C 0.1385 0.73597 0.6121 0.0
C1780 C 0.14049 0.75752 0.61858 0.0
C1781 C 0.13144 0.89654 0.60083 0.0
C1782 C 0.11006 0.89209 0.59446 0.0
C1783 C 0.14342 0.87908 0.60802 0.0
C1784 C 0.13379 0.85713 0.60947 0.0
C1785 C 0.1123 0.8529 0.60316 0.0
C1786 C 0.10073 0.87007 0.5956 0.0
C1787 C 0.14573 0.83838 0.61751 0.0
C1788 C 0.14664 0.81659 0.61107 0.0
C1789 C 0.15506 0.84136 0.63168 0.0
C1790 C 0.15379 0.86346 0.63954 0.0
C1791 C 0.13254 0.87359 0.64259 0.0
C1792 C 0.13151 0.89466 0.64977 0.0
C1793 C 0.15162 0.90566 0.65404 0.0
C1794 C 0.1728 0.89556 0.65122 0.0
C1795 C 0.17392 0.87449 0.64405 0.0
H1796 H 0.1508 0.92199 0.65957 0.0
H1797 H 0.1475 0.7149 0.59371 0.0
H1798 H 0.98913 0.44254 0.4239 0.0
H1799 H 0.95391 0.43346 0.41077 0.0
H1800 H 0.99284 0.42201 0.3714 0.0
H1801 H 0.02796 0.43237 0.38435 0.0
H1802 H 0.95387 0.43962 0.36427 0.0
H1803 H 0.976 0.37737 0.39601 0.0
H1804 H 0.98602 0.35967 0.41961 0.0
H1805 H 0.92066 0.37878 0.43707 0.0
H1806 H 0.91036 0.39683 0.41362 0.0
H1807 H 0.88498 0.3583 0.32796 0.0
H1808 H 0.91438 0.37955 0.34093 0.0
H1809 H 0.86719 0.39285 0.3761 0.0
H1810 H 0.83755 0.3712 0.36325 0.0
H1811 H 0.90737 0.37758 0.38621 0.0
H1812 H 0.88393 0.43572 0.3527 0.0
H1813 H 0.87445 0.45184 0.32857 0.0
H1814 H 0.94283 0.4388 0.31375 0.0
H1815 H 0.95264 0.4223 0.33773 0.0
C1816 C 0.99009 0.43845 0.41238 0.0
C1817 C 0.01128 0.43793 0.40517 0.0
C1818 C 0.96997 0.43312 0.40489 0.0
C1819 C 0.97073 0.42633 0.39018 0.0
C1820 C 0.99177 0.42703 0.38276 0.0
C1821 C 0.01185 0.43295 0.39017 0.0
C1822 C 0.94996 0.41722 0.38277 0.0
C1823 C 0.94382 0.42594 0.36902 0.0
C1824 C 0.93642 0.39969 0.38907 0.0
C1825 C 0.94251 0.38864 0.40312 0.0
C1826 C 0.96382 0.37789 0.40491 0.0
C1827 C 0.96954 0.36779 0.41826 0.0
C1828 C 0.95401 0.36816 0.42984 0.0
C1829 C 0.93269 0.37855 0.4281 0.0
C1830 C 0.92689 0.3887 0.41478 0.0
C1831 C 0.88067 0.36587 0.33839 0.0
C1832 C 0.85881 0.36293 0.34455 0.0
C1833 C 0.89754 0.37819 0.34577 0.0
C1834 C 0.89296 0.38805 0.35942 0.0
C1835 C 0.87109 0.38545 0.36554 0.0
C1836 C 0.85416 0.37309 0.35816 0.0
C1837 C 0.91148 0.39977 0.36764 0.0
C1838 C 0.91723 0.39148 0.38153 0.0
C1839 C 0.92475 0.4175 0.36139 0.0
C1840 C 0.91897 0.42764 0.347 0.0
C1841 C 0.89691 0.43616 0.34427 0.0
C1842 C 0.89148 0.44538 0.33062 0.0
C1843 C 0.90801 0.44631 0.31963 0.0
C1844 C 0.93003 0.43807 0.32228 0.0
C1845 C 0.93555 0.42881 0.3359 0.0
H1846 H 0.90377 0.45345 0.30907 0.0
H1847 H 0.95848 0.36034 0.44017 0.0
H1848 H 0.30696 0.72743 0.36385 0.0
H1849 H 0.31692 0.76206 0.37752 0.0
H1850 H 0.3423 0.79306 0.33799 0.0
H1851 H 0.33263 0.75873 0.32433 0.0
H1852 H 0.37337 0.79465 0.35924 0.0
H1853 H 0.29381 0.81235 0.35435 0.0
H1854 H 0.25236 0.8056 0.35647 0.0
H1855 H 0.25872 0.79981 0.40304 0.0
H1856 H 0.30029 0.8062 0.40118 0.0
H1857 H 0.39501 0.90709 0.38506 0.0
H1858 H 0.37659 0.87567 0.37183 0.0
H1859 H 0.3615 0.84217 0.41263 0.0
H1860 H 0.38033 0.87324 0.42594 0.0
H1861 H 0.32431 0.84201 0.3914 0.0
H1862 H 0.40347 0.82275 0.39626 0.0
H1863 H 0.44535 0.82593 0.39422 0.0
H1864 H 0.4397 0.83294 0.34769 0.0
H1865 H 0.39771 0.83023 0.34947 0.0
C1866 C 0.31431 0.74176 0.35803 0.0
C1867 C 0.31922 0.74014 0.34301 0.0
C1868 C 0.31994 0.76159 0.36585 0.0
C1869 C 0.33041 0.78016 0.35878 0.0
C1870 C 0.33436 0.77891 0.3437 0.0
C1871 C 0.32881 0.7592 0.3359 0.0
C1872 C 0.33917 0.80009 0.36717 0.0
C1873 C 0.36252 0.80525 0.36606 0.0
C1874 C 0.32519 0.81344 0.37647 0.0
C1875 C 0.30021 0.8095 0.37761 0.0
C1876 C 0.28641 0.80941 0.36504 0.0
C1877 C 0.26288 0.8057 0.36619 0.0
C1878 C 0.25292 0.80221 0.37987 0.0
C1879 C 0.26646 0.80248 0.39244 0.0
C1880 C 0.29001 0.80616 0.39135 0.0
C1881 C 0.3875 0.89319 0.39123 0.0
C1882 C 0.3892 0.89261 0.40655 0.0
C1883 C 0.37707 0.87522 0.38366 0.0
C1884 C 0.3678 0.85657 0.39126 0.0
C1885 C 0.36855 0.85642 0.40657 0.0
C1886 C 0.37938 0.87414 0.41414 0.0
C1887 C 0.35838 0.83669 0.3832 0.0
C1888 C 0.33503 0.83149 0.38446 0.0
C1889 C 0.37233 0.82321 0.37401 0.0
C1890 C 0.39741 0.82656 0.37302 0.0
C1891 C 0.4111 0.82541 0.38562 0.0
C1892 C 0.43488 0.827 0.3845 0.0
C1893 C 0.44516 0.82954 0.37083 0.0
C1894 C 0.43169 0.83091 0.35827 0.0
C1895 C 0.40791 0.82939 0.35933 0.0
H1896 H 0.46357 0.83031 0.36996 0.0
H1897 H 0.2347 0.79935 0.38075 0.0
H1898 H 0.0246 0.56423 0.11396 0.0
H1899 H 0.98988 0.57436 0.12734 0.0
H1900 H 0.95434 0.58474 0.08658 0.0
H1901 H 0.98914 0.57541 0.07319 0.0
H1902 H 0.94638 0.61895 0.10315 0.0
H1903 H 0.94318 0.53827 0.11036 0.0
H1904 H 0.95719 0.50006 0.11733 0.0
H1905 H 0.96682 0.52287 0.16147 0.0
H1906 H 0.95315 0.56133 0.15472 0.0
H1907 H 0.83747 0.63534 0.13542 0.0
H1908 H 0.86811 0.61599 0.12209 0.0
H1909 H 0.91058 0.61787 0.16053 0.0
H1910 H 0.88014 0.63731 0.17396 0.0
H1911 H 0.91329 0.57591 0.14476 0.0
H1912 H 0.91813 0.65743 0.1363 0.0
H1913 H 0.90282 0.69494 0.12888 0.0
H1914 H 0.88859 0.66878 0.08603 0.0
H1915 H 0.90351 0.631 0.09327 0.0
C1916 C 0.00929 0.56835 0.10785 0.0
C1917 C 0.00969 0.56913 0.09251 0.0
C1918 C 0.98938 0.57406 0.11552 0.0
C1919 C 0.96934 0.58021 0.108 0.0
C1920 C 0.96955 0.58019 0.09267 0.0
C1921 C 0.98949 0.57481 0.08501 0.0
C1922 C 0.94864 0.58817 0.11604 0.0
C1923 C 0.93895 0.60925 0.11206 0.0
C1924 C 0.93909 0.57586 0.12789 0.0
C1925 C 0.94734 0.55275 0.132 0.0
C1926 C 0.94846 0.5352 0.12153 0.0
C1927 C 0.9563 0.51348 0.12544 0.0
C1928 C 0.96294 0.50906 0.13983 0.0
C1929 C 0.96169 0.52633 0.15033 0.0
C1930 C 0.95388 0.54809 0.14647 0.0
C1931 C 0.85318 0.63136 0.14113 0.0
C1932 C 0.85638 0.63809 0.15575 0.0
C1933 C 0.8707 0.62034 0.13347 0.0
C1934 C 0.89168 0.61569 0.14029 0.0
C1935 C 0.89452 0.62132 0.15506 0.0
C1936 C 0.87712 0.63254 0.1627 0.0
C1937 C 0.91121 0.60648 0.13178 0.0
C1938 C 0.92069 0.58534 0.13573 0.0
C1939 C 0.92047 0.61857 0.11979 0.0
C1940 C 0.9117 0.64133 0.11538 0.0
C1941 C 0.91156 0.65963 0.12534 0.0
C1942 C 0.90298 0.68095 0.12116 0.0
C1943 C 0.89467 0.68423 0.10701 0.0
C1944 C 0.89499 0.66621 0.09699 0.0
C1945 C 0.90352 0.64484 0.10113 0.0
H1946 H 0.88803 0.70074 0.10379 0.0
H1947 H 0.96901 0.49223 0.14284 0.0
H1948 H 0.18907 0.27546 0.86587 0.0
H1949 H 0.17973 0.24022 0.87897 0.0
H1950 H 0.16484 0.20682 0.83805 0.0
H1951 H 0.17341 0.24209 0.82498 0.0
H1952 H 0.13227 0.19845 0.8559 0.0
H1953 H 0.21348 0.19413 0.85934 0.0
H1954 H 0.25251 0.20741 0.86487 0.0
H1955 H 0.23478 0.21462 0.91014 0.0
H1956 H 0.19552 0.20168 0.90485 0.0
H1957 H 0.11646 0.08866 0.88664 0.0
H1958 H 0.13578 0.11907 0.87306 0.0
H1959 H 0.13949 0.15982 0.91221 0.0
H1960 H 0.12018 0.12961 0.92588 0.0
H1961 H 0.1794 0.16257 0.89466 0.0
H1962 H 0.09713 0.16902 0.88998 0.0
H1963 H 0.05871 0.15449 0.88395 0.0
H1964 H 0.08006 0.14184 0.83982 0.0
H1965 H 0.11873 0.15598 0.84566 0.0
C1966 C 0.18406 0.26053 0.85966 0.0
C1967 C 0.18184 0.26166 0.84439 0.0
C1968 C 0.17882 0.24032 0.86716 0.0
C1969 C 0.1717 0.22072 0.85951 0.0
C1970 C 0.17017 0.22169 0.84423 0.0
C1971 C 0.17511 0.2419 0.83676 0.0
C1972 C 0.1644 0.19969 0.86742 0.0
C1973 C 0.14284 0.19042 0.86417 0.0
C1974 C 0.1779 0.18932 0.87844 0.0
C1975 C 0.20148 0.19714 0.88167 0.0
C1976 C 0.21784 0.19873 0.87046 0.0
C1977 C 0.24002 0.20616 0.87355 0.0
C1978 C 0.2461 0.21191 0.88784 0.0
C1979 C 0.23003 0.21019 0.89907 0.0
C1980 C 0.20782 0.20279 0.89603 0.0
C1981 C 0.12173 0.1039 0.89244 0.0
C1982 C 0.11651 0.10678 0.90733 0.0
C1983 C 0.13273 0.12129 0.88464 0.0
C1984 C 0.13883 0.14179 0.89161 0.0
C1985 C 0.1349 0.14415 0.90663 0.0
C1986 C 0.12374 0.12688 0.91441 0.0
C1987 C 0.14746 0.16152 0.88304 0.0
C1988 C 0.1691 0.17056 0.88624 0.0
C1989 C 0.13418 0.17158 0.87185 0.0
C1990 C 0.11088 0.16332 0.8683 0.0
C1991 C 0.09368 0.16297 0.87902 0.0
C1992 C 0.07185 0.15484 0.87564 0.0
C1993 C 0.06696 0.14719 0.86152 0.0
C1994 C 0.08388 0.14773 0.85076 0.0
C1995 C 0.10575 0.15581 0.8541 0.0
H1996 H 0.05006 0.14089 0.85892 0.0
H1997 H 0.26329 0.21766 0.89022 0.0
H1998 H 0.51588 0.43055 0.57559 0.0
H1999 H 0.55113 0.42165 0.58862 0.0
H2000 H 0.51624 0.43024 0.62976 0.0
H2001 H 0.48099 0.43997 0.61674 0.0
H2002 H 0.55868 0.4457 0.63198 0.0
H2003 H 0.52405 0.37676 0.61413 0.0
H2004 H 0.50742 0.35108 0.59561 0.0
H2005 H 0.57065 0.35155 0.57181 0.0
H2006 H 0.58756 0.37749 0.59011 0.0
H2007 H 0.62695 0.3714 0.67584 0.0
H2008 H 0.59718 0.39142 0.66226 0.0
H2009 H 0.63792 0.38746 0.62311 0.0
H2010 H 0.6679 0.36736 0.63661 0.0
H2011 H 0.59427 0.37137 0.61923 0.0
H2012 H 0.62963 0.43819 0.63918 0.0
H2013 H 0.64543 0.46263 0.65865 0.0
H2014 H 0.57992 0.46455 0.67973 0.0
H2015 H 0.56379 0.43984 0.66049 0.0
C2016 C 0.51575 0.4308 0.58742 0.0
C2017 C 0.49555 0.43568 0.59513 0.0
C2018 C 0.53592 0.42564 0.59486 0.0
C2019 C 0.53624 0.42469 0.61018 0.0
C2020 C 0.51641 0.43073 0.61794 0.0
C2021 C 0.49625 0.43627 0.61048 0.0
C2022 C 0.5568 0.41612 0.61803 0.0
C2023 C 0.56634 0.42936 0.62928 0.0
C2024 C 0.56708 0.39494 0.61438 0.0
C2025 C 0.55699 0.37925 0.6034 0.0
C2026 C 0.53435 0.37151 0.60489 0.0
C2027 C 0.52488 0.35689 0.59444 0.0
C2028 C 0.53795 0.34974 0.58252 0.0
C2029 C 0.56054 0.35713 0.58104 0.0
C2030 C 0.57008 0.37178 0.59145 0.0
C2031 C 0.62978 0.37504 0.66438 0.0
C2032 C 0.64982 0.36762 0.65731 0.0
C2033 C 0.61275 0.38661 0.65665 0.0
C2034 C 0.61535 0.39101 0.64168 0.0
C2035 C 0.63559 0.38426 0.63467 0.0
C2036 C 0.65274 0.37283 0.64242 0.0
C2037 C 0.59617 0.40094 0.63316 0.0
C2038 C 0.58678 0.38784 0.62183 0.0
C2039 C 0.58592 0.42207 0.63688 0.0
C2040 C 0.59555 0.437 0.64844 0.0
C2041 C 0.61863 0.44367 0.64803 0.0
C2042 C 0.62764 0.4576 0.65901 0.0
C2043 C 0.6137 0.46509 0.67043 0.0
C2044 C 0.59071 0.45871 0.67088 0.0
C2045 C 0.58161 0.44477 0.65992 0.0
H2046 H 0.62071 0.47588 0.67893 0.0
H2047 H 0.53059 0.33842 0.57444 0.0
H2048 H 0.23799 0.28736 0.18993 0.0
H2049 H 0.22754 0.26446 0.2113 0.0
H2050 H 0.28743 0.28879 0.23395 0.0
H2051 H 0.29817 0.31133 0.21257 0.0
H2052 H 0.28252 0.24406 0.23778 0.0
H2053 H 0.23361 0.31002 0.24135 0.0
H2054 H 0.20484 0.33764 0.23265 0.0
H2055 H 0.15602 0.28343 0.22758 0.0
H2056 H 0.18462 0.25543 0.23607 0.0
H2057 H 0.25474 0.21369 0.3103 0.0
H2058 H 0.26345 0.23485 0.28798 0.0
H2059 H 0.20262 0.20786 0.26771 0.0
H2060 H 0.19357 0.18694 0.29016 0.0
H2061 H 0.20711 0.25244 0.26196 0.0
H2062 H 0.25564 0.18664 0.25925 0.0
H2063 H 0.2844 0.15908 0.26803 0.0
H2064 H 0.33397 0.21292 0.27146 0.0
H2065 H 0.3054 0.24087 0.26289 0.0
C2066 C 0.24891 0.28782 0.19947 0.0
C2067 C 0.26886 0.30121 0.19959 0.0
C2068 C 0.24288 0.2748 0.2117 0.0
C2069 C 0.25656 0.2751 0.22431 0.0
C2070 C 0.2766 0.28829 0.22436 0.0
C2071 C 0.28268 0.30123 0.21214 0.0
C2072 C 0.25018 0.26161 0.23745 0.0
C2073 C 0.26612 0.24609 0.24316 0.0
C2074 C 0.22856 0.26379 0.24426 0.0
C2075 C 0.21133 0.28061 0.2392 0.0
C2076 C 0.21679 0.30397 0.23827 0.0
C2077 C 0.20051 0.31969 0.2334 0.0
C2078 C 0.17863 0.31228 0.22952 0.0
C2079 C 0.17298 0.28914 0.23056 0.0
C2080 C 0.18921 0.27334 0.23541 0.0
C2081 C 0.24321 0.21225 0.3011 0.0
C2082 C 0.22354 0.19855 0.30195 0.0
C2083 C 0.24827 0.22428 0.28832 0.0
C2084 C 0.23388 0.22268 0.27608 0.0
C2085 C 0.21401 0.20929 0.277 0.0
C2086 C 0.2089 0.19731 0.28981 0.0
C2087 C 0.23955 0.23506 0.26238 0.0
C2088 C 0.22347 0.25035 0.25655 0.0
C2089 C 0.26106 0.23267 0.25545 0.0
C2090 C 0.27831 0.21588 0.26055 0.0
C2091 C 0.27262 0.19263 0.26198 0.0
C2092 C 0.2889 0.17694 0.2669 0.0
C2093 C 0.31098 0.18425 0.27033 0.0
C2094 C 0.31685 0.20728 0.26881 0.0
C2095 C 0.30063 0.22305 0.26391 0.0
H2096 H 0.32356 0.17207 0.27414 0.0
H2097 H 0.16605 0.32448 0.22575 0.0
H2098 H 0.03759 0.0079 0.56027 0.0
H2099 H 0.01498 0.01718 0.53858 0.0
H2100 H 0.04593 0.96095 0.51544 0.0
H2101 H 0.06846 0.95139 0.53717 0.0
H2102 H 0.0434 0.00204 0.49892 0.0
H2103 H 0.99531 0.95289 0.52708 0.0
H2104 H 0.97615 0.93979 0.54954 0.0
H2105 H 0.9387 0.00278 0.55177 0.0
H2106 H 0.95789 0.0164 0.52938 0.0
H2107 H 0.96452 0.99265 0.44035 0.0
H2108 H 0.98705 0.98374 0.46213 0.0
H2109 H 0.9562 0.04049 0.4848 0.0
H2110 H 0.93371 0.04967 0.46296 0.0
H2111 H 0.95869 0.99936 0.5016 0.0
H2112 H 0.00674 0.04771 0.47242 0.0
H2113 H 0.02605 0.05955 0.44972 0.0
H2114 H 0.06391 0.99671 0.44921 0.0
H2115 H 0.04447 0.98427 0.47177 0.0
C2116 C 0.03965 0.99756 0.55055 0.0
C2117 C 0.05474 0.97888 0.55042 0.0
C2118 C 0.0267 0.00286 0.53818 0.0
C2119 C 0.02874 0.98969 0.52544 0.0
C2120 C 0.04416 0.97133 0.52516 0.0
C2121 C 0.05692 0.96585 0.53759 0.0
C2122 C 0.01431 0.99475 0.51255 0.0
C2123 C 0.0249 1.0012 0.49943 0.0
C2124 C 0.99017 0.99399 0.51334 0.0
C2125 C 0.97822 0.98576 0.52664 0.0
C2126 C 0.98311 0.96402 0.53241 0.0
C2127 C 0.97224 0.9565 0.54512 0.0
C2128 C 0.95629 0.97048 0.55212 0.0
C2129 C 0.95109 0.99199 0.54636 0.0
C2130 C 0.96194 0.99961 0.53364 0.0
C2131 C 0.96246 0.00319 0.44998 0.0
C2132 C 0.94741 0.0219 0.44995 0.0
C2133 C 0.97536 0.99809 0.4624 0.0
C2134 C 0.97334 0.01153 0.47503 0.0
C2135 C 0.95796 0.02991 0.47515 0.0
C2136 C 0.94522 0.03518 0.46267 0.0
C2137 C 0.98778 0.00668 0.48796 0.0
C2138 C 0.97719 1.00026 0.50108 0.0
C2139 C 0.01193 0.00735 0.48714 0.0
C2140 C 0.02397 0.01495 0.47371 0.0
C2141 C 0.01905 0.03633 0.46741 0.0
C2142 C 0.03003 0.04316 0.45457 0.0
C2143 C 0.04616 0.02887 0.44801 0.0
C2144 C 0.05139 0.00775 0.4543 0.0
C2145 C 0.0404 1.0008 0.46711 0.0
H2146 H 0.05463 0.03419 0.43806 0.0
H2147 H 0.94795 0.9646 0.56197 0.0
H2148 H 0.19828 0.69179 0.70985 0.0
H2149 H 0.20753 0.71389 0.73176 0.0
H2150 H 0.27356 0.73041 0.7137 0.0
H2151 H 0.26446 0.70831 0.69176 0.0
H2152 H 0.27602 0.71825 0.74283 0.0
H2153 H 0.2323 0.76879 0.71243 0.0
H2154 H 0.19912 0.77972 0.69737 0.0
H2155 H 0.15509 0.77312 0.73465 0.0
H2156 H 0.18797 0.7617 0.74987 0.0
H2157 H 0.30529 0.81049 0.78937 0.0
H2158 H 0.29562 0.78805 0.76768 0.0
H2159 H 0.22975 0.77221 0.78624 0.0
H2160 H 0.23929 0.79468 0.80796 0.0
H2161 H 0.22695 0.78378 0.75703 0.0
H2162 H 0.27046 0.73336 0.78745 0.0
H2163 H 0.3035 0.72232 0.80259 0.0
H2164 H 0.34776 0.7286 0.7654 0.0
H2165 H 0.31501 0.74008 0.75009 0.0
C2166 C 0.21479 0.70007 0.71056 0.0
C2167 C 0.2306 0.69842 0.69906 0.0
C2168 C 0.22003 0.71272 0.72307 0.0
C2169 C 0.24116 0.72394 0.7243 0.0
C2170 C 0.25717 0.72189 0.71297 0.0
C2171 C 0.25189 0.70934 0.70042 0.0
C2172 C 0.24637 0.73825 0.73725 0.0
C2173 C 0.26546 0.73274 0.74584 0.0
C2174 C 0.23231 0.75687 0.74132 0.0
C2175 C 0.21257 0.76416 0.73226 0.0
C2176 C 0.21552 0.7695 0.71739 0.0
C2177 C 0.19677 0.7758 0.70883 0.0
C2178 C 0.17501 0.77706 0.71504 0.0
C2179 C 0.17196 0.7721 0.72985 0.0
C2180 C 0.19065 0.76572 0.73845 0.0
C2181 C 0.28872 0.80229 0.78881 0.0
C2182 C 0.27309 0.80424 0.80039 0.0
C2183 C 0.28324 0.78944 0.77644 0.0
C2184 C 0.26204 0.77831 0.77542 0.0
C2185 C 0.2462 0.78066 0.78682 0.0
C2186 C 0.25172 0.79342 0.79924 0.0
C2187 C 0.25662 0.76381 0.76259 0.0
C2188 C 0.23749 0.76928 0.75402 0.0
C2189 C 0.27063 0.74513 0.75855 0.0
C2190 C 0.2903 0.7378 0.76765 0.0
C2191 C 0.28726 0.73254 0.78252 0.0
C2192 C 0.30593 0.72619 0.79113 0.0
C2193 C 0.32773 0.72482 0.78497 0.0
C2194 C 0.33087 0.72971 0.77016 0.0
C2195 C 0.31225 0.73612 0.76151 0.0
H2196 H 0.34217 0.71992 0.79166 0.0
H2197 H 0.16051 0.78193 0.7084 0.0
H2198 H 0.46167 0.9942 0.06087 0.0
H2199 H 0.48291 0.98443 0.03871 0.0
H2200 H 0.45655 0.04473 0.01747 0.0
H2201 H 0.43561 0.05481 0.03968 0.0
H2202 H 0.46933 0.97492 0.01137 0.0
H2203 H 0.49686 0.06584 0.99424 0.0
H2204 H 0.50491 0.10323 0.00559 0.0
H2205 H 0.52336 0.06989 0.04567 0.0
H2206 H 0.51576 0.03231 0.03449 0.0
H2207 H 0.53549 0.00844 0.94033 0.0
H2208 H 0.51245 0.01889 0.96164 0.0
H2209 H 0.53754 0.95962 0.98462 0.0
H2210 H 0.56027 0.94891 0.96332 0.0
H2211 H 0.52436 0.02942 0.98929 0.0
H2212 H 0.49581 0.93856 0.00659 0.0
H2213 H 0.4881 0.90116 0.99518 0.0
H2214 H 0.47193 0.93433 0.95464 0.0
H2215 H 0.47913 0.97194 0.96588 0.0
C2216 C 0.46042 0.00539 0.05148 0.0
C2217 C 0.44707 0.02533 0.05203 0.0
C2218 C 0.4725 0.99974 0.03881 0.0
C2219 C 0.47151 0.01396 0.02648 0.0
C2220 C 0.45787 0.03369 0.02693 0.0
C2221 C 0.44585 0.03939 0.03961 0.0
C2222 C 0.48487 0.00817 0.01319 0.0
C2223 C 0.48156 0.98673 0.00664 0.0
C2224 C 0.50042 0.0238 0.0068 0.0
C2225 C 0.5055 0.04628 0.01356 0.0
C2226 C 0.50273 0.06649 0.00545 0.0
C2227 C 0.5072 0.08771 0.01186 0.0
C2228 C 0.51456 0.08893 0.02636 0.0
C2229 C 0.51758 0.06892 0.03446 0.0
C2230 C 0.51317 0.04766 0.02809 0.0
C2231 C 0.53604 0.99762 0.94992 0.0
C2232 C 0.54961 0.9778 0.95014 0.0
C2233 C 0.52293 0.00365 0.9621 0.0
C2234 C 0.52307 0.98991 0.97467 0.0
C2235 C 0.53685 0.97027 0.97496 0.0
C2236 C 0.54991 0.96421 0.96279 0.0
C2237 C 0.50892 0.99612 0.98753 0.0
C2238 C 0.51207 0.01764 0.99399 0.0
C2239 C 0.49322 0.98057 0.99383 0.0
C2240 C 0.48823 0.95806 0.98706 0.0
C2241 C 0.49047 0.93788 0.99527 0.0
C2242 C 0.48621 0.91664 0.98883 0.0
C2243 C 0.47959 0.91536 0.97418 0.0
C2244 C 0.47712 0.93533 0.96597 0.0
C2245 C 0.4813 0.95662 0.97237 0.0
H2246 H 0.47635 0.8989 0.96921 0.0
H2247 H 0.51798 0.10538 0.0313 0.0
H2248 H 0.24284 0.71217 0.30898 0.0
H2249 H 0.23303 0.73366 0.28689 0.0
H2250 H 0.29497 0.71015 0.26625 0.0
H2251 H 0.30477 0.68851 0.28821 0.0
H2252 H 0.25529 0.76821 0.27305 0.0
H2253 H 0.28476 0.7025 0.22977 0.0
H2254 H 0.28854 0.66072 0.22699 0.0
H2255 H 0.23533 0.65036 0.25859 0.0
H2256 H 0.23101 0.69204 0.26141 0.0
H2257 H 0.2606 0.78688 0.1887 0.0
H2258 H 0.27089 0.76524 0.21064 0.0
H2259 H 0.20918 0.78827 0.23179 0.0
H2260 H 0.1989 0.81003 0.20998 0.0
H2261 H 0.24916 0.73049 0.22467 0.0
H2262 H 0.21999 0.79636 0.26806 0.0
H2263 H 0.21637 0.83815 0.27081 0.0
H2264 H 0.26922 0.84825 0.23893 0.0
H2265 H 0.27339 0.80655 0.23614 0.0
C2266 C 0.25433 0.71154 0.29972 0.0
C2267 C 0.27452 0.69857 0.3003 0.0
C2268 C 0.24874 0.72388 0.28713 0.0
C2269 C 0.26314 0.72333 0.27487 0.0
C2270 C 0.28343 0.71055 0.27549 0.0
C2271 C 0.28904 0.69826 0.28808 0.0
C2272 C 0.25706 0.73624 0.26146 0.0
C2273 C 0.25363 0.75992 0.26251 0.0
C2274 C 0.25548 0.72551 0.24764 0.0
C2275 C 0.25776 0.7004 0.24592 0.0
C2276 C 0.27382 0.6913 0.23609 0.0
C2277 C 0.27606 0.66764 0.23451 0.0
C2278 C 0.26224 0.6529 0.24265 0.0
C2279 C 0.24609 0.66179 0.25234 0.0
C2280 C 0.24377 0.68543 0.25395 0.0
C2281 C 0.24925 0.78735 0.19804 0.0
C2282 C 0.22899 0.80024 0.19764 0.0
C2283 C 0.25512 0.77493 0.21054 0.0
C2284 C 0.24094 0.77533 0.22291 0.0
C2285 C 0.22056 0.78798 0.22246 0.0
C2286 C 0.21467 0.80035 0.20996 0.0
C2287 C 0.24733 0.76245 0.23627 0.0
C2288 C 0.25083 0.73879 0.23521 0.0
C2289 C 0.249 0.7732 0.25008 0.0
C2290 C 0.24681 0.79832 0.25179 0.0
C2291 C 0.23089 0.8075 0.26168 0.0
C2292 C 0.22874 0.83118 0.26323 0.0
C2293 C 0.2425 0.84585 0.25501 0.0
C2294 C 0.25851 0.83687 0.24525 0.0
C2295 C 0.26074 0.81322 0.24366 0.0
H2296 H 0.2408 0.86417 0.25623 0.0
H2297 H 0.26401 0.63459 0.24142 0.0
H2298 H 0.46538 0.00686 0.44013 0.0
H2299 H 0.48743 0.01642 0.462 0.0
H2300 H 0.45554 0.96079 0.48522 0.0
H2301 H 0.43358 0.95092 0.46328 0.0
H2302 H 0.45799 0.00314 0.5013 0.0
H2303 H 0.50593 0.95223 0.4739 0.0
H2304 H 0.52559 0.9387 0.45172 0.0
H2305 H 0.56452 1.00083 0.45004 0.0
H2306 H 0.54475 0.01496 0.47207 0.0
H2307 H 0.53588 0.99748 0.56096 0.0
H2308 H 0.51328 0.98704 0.53945 0.0
H2309 H 0.54536 0.04108 0.51485 0.0
H2310 H 0.56782 0.05181 0.53637 0.0
H2311 H 0.54269 0.9989 0.49962 0.0
H2312 H 0.49492 0.05043 0.52617 0.0
H2313 H 0.47547 0.0651 0.54812 0.0
H2314 H 0.43638 0.00319 0.55116 0.0
H2315 H 0.45595 0.98794 0.52935 0.0
C2316 C 0.463 0.9967 0.4499 0.0
C2317 C 0.44781 0.9781 0.45 0.0
C2318 C 0.47562 0.00217 0.46237 0.0
C2319 C 0.47315 0.98925 0.47519 0.0
C2320 C 0.45764 0.97097 0.47543 0.0
C2321 C 0.44521 0.9653 0.46289 0.0
C2322 C 0.4873 0.99451 0.48818 0.0
C2323 C 0.47648 0.00189 0.50102 0.0
C2324 C 0.51144 0.99337 0.48766 0.0
C2325 C 0.52368 0.98476 0.47456 0.0
C2326 C 0.51854 0.9631 0.46874 0.0
C2327 C 0.52972 0.95531 0.45619 0.0
C2328 C 0.54625 0.96892 0.44945 0.0
C2329 C 0.55169 0.99032 0.45526 0.0
C2330 C 0.5405 0.99823 0.46778 0.0
C2331 C 0.53816 0.00709 0.55096 0.0
C2332 C 0.55357 0.02549 0.55034 0.0
C2333 C 0.52523 1.00114 0.5387 0.0
C2334 C 0.52763 0.01334 0.52559 0.0
C2335 C 0.54331 0.03143 0.52486 0.0
C2336 C 0.55603 0.03759 0.53717 0.0
C2337 C 0.51339 0.00752 0.51274 0.0
C2338 C 0.52419 1.00005 0.49992 0.0
C2339 C 0.48925 0.0087 0.51326 0.0
C2340 C 0.47709 0.01793 0.52622 0.0
C2341 C 0.48232 0.03985 0.53158 0.0
C2342 C 0.47126 0.04829 0.54399 0.0
C2343 C 0.45475 0.03507 0.55105 0.0
C2344 C 0.44921 0.0134 0.54569 0.0
C2345 C 0.46027 0.00485 0.5333 0.0
H2346 H 0.44623 0.04167 0.56065 0.0
H2347 H 0.55488 0.96286 0.43974 0.0
H2348 H 0.25469 0.27934 0.81234 0.0
H2349 H 0.2645 0.25768 0.79038 0.0
H2350 H 0.21408 0.2955 0.7659 0.0
H2351 H 0.20359 0.31654 0.78799 0.0
H2352 H 0.21209 0.25277 0.75847 0.0
H2353 H 0.27369 0.30671 0.7639 0.0
H2354 H 0.30509 0.3261 0.77692 0.0
H2355 H 0.34006 0.26208 0.78193 0.0
H2356 H 0.30874 0.24225 0.7691 0.0
H2357 H 0.2501 0.2203 0.68793 0.0
H2358 H 0.24016 0.24211 0.7098 0.0
H2359 H 0.29056 0.20458 0.73447 0.0
H2360 H 0.30119 0.18341 0.71247 0.0
H2361 H 0.29252 0.24732 0.74175 0.0
H2362 H 0.23081 0.19338 0.73636 0.0
H2363 H 0.19939 0.17402 0.72335 0.0
H2364 H 0.16459 0.23812 0.71823 0.0
H2365 H 0.19595 0.2579 0.73106 0.0
C2366 C 0.2457 0.28302 0.80227 0.0
C2367 C 0.22847 0.29973 0.80185 0.0
C2368 C 0.25141 0.27071 0.7897 0.0
C2369 C 0.24037 0.27524 0.77637 0.0
C2370 C 0.22291 0.29172 0.77601 0.0
C2371 C 0.21696 0.30378 0.78864 0.0
C2372 C 0.24686 0.26274 0.76282 0.0
C2373 C 0.22965 0.25185 0.75472 0.0
C2374 C 0.26984 0.26104 0.75806 0.0
C2375 C 0.28878 0.27298 0.76565 0.0
C2376 C 0.28802 0.29675 0.76786 0.0
C2377 C 0.30581 0.30782 0.77519 0.0
C2378 C 0.32453 0.29532 0.78028 0.0
C2379 C 0.32554 0.27173 0.778 0.0
C2380 C 0.30779 0.26058 0.77069 0.0
C2381 C 0.25905 0.21672 0.69802 0.0
C2382 C 0.27632 0.20006 0.69852 0.0
C2383 C 0.25327 0.22911 0.71055 0.0
C2384 C 0.26428 0.22471 0.7239 0.0
C2385 C 0.28176 0.20827 0.72434 0.0
C2386 C 0.28779 0.19613 0.71176 0.0
C2387 C 0.25775 0.23733 0.7374 0.0
C2388 C 0.27496 0.24824 0.7455 0.0
C2389 C 0.23477 0.23906 0.74216 0.0
C2390 C 0.21582 0.22714 0.73456 0.0
C2391 C 0.21652 0.20336 0.73239 0.0
C2392 C 0.19872 0.19231 0.72505 0.0
C2393 C 0.18003 0.20484 0.71994 0.0
C2394 C 0.17908 0.22844 0.72218 0.0
C2395 C 0.19685 0.23957 0.7295 0.0
H2396 H 0.16627 0.19626 0.71426 0.0
H2397 H 0.33828 0.30392 0.78596 0.0
H2398 H 0.06487 0.05278 0.96273 0.0
H2399 H 0.04297 0.04341 0.98471 0.0
H2400 H 0.01228 0.98623 0.96237 0.0
H2401 H 0.03415 0.99548 0.94035 0.0
H2402 H 0.98075 0.01165 0.97786 0.0
H2403 H 0.05368 0.97657 0.98615 0.0
H2404 H 0.09569 0.97523 0.98796 0.0
H2405 H 0.09405 0.02523 0.02226 0.0
H2406 H 0.05201 0.02712 0.02051 0.0
H2407 H 0.93701 0.95096 0.03898 0.0
H2408 H 0.95853 0.96193 0.01717 0.0
H2409 H 0.98773 0.0189 0.04051 0.0
H2410 H 0.96616 0.00807 0.06238 0.0
H2411 H 0.01993 0.99451 0.02467 0.0
H2412 H 0.94689 0.02898 0.01676 0.0
H2413 H 0.90489 0.03036 0.01491 0.0
H2414 H 0.90669 0.98161 0.97988 0.0
H2415 H 0.94871 0.97966 0.98168 0.0
C2416 C 0.05345 0.03822 0.9625 0.0
C2417 C 0.0513 0.02479 0.94985 0.0
C2418 C 0.041 0.03286 0.97507 0.0
C2419 C 0.02615 0.01401 0.9752 0.0
C2420 C 0.02367 1.00083 0.9625 0.0
C2421 C 0.03624 0.00608 0.94996 0.0
C2422 C 0.01327 0.00799 0.98862 0.0
C2423 C 0.98931 0.00762 0.98805 0.0
C2424 C 0.02445 0.00327 0.00199 0.0
C2425 C 0.04972 0.00217 0.00308 0.0
C2426 C 0.06229 0.98744 0.99398 0.0
C2427 C 0.0861 0.98654 0.99502 0.0
C2428 C 0.09754 1.00018 0.00519 0.0
C2429 C 0.08517 0.0147 0.01437 0.0
C2430 C 0.06135 0.01568 0.01337 0.0
C2431 C 0.94801 0.96583 0.03947 0.0
C2432 C 0.94984 0.97871 0.05237 0.0
C2433 C 0.96022 0.97212 0.02699 0.0
C2434 C 0.97457 0.99134 0.02719 0.0
C2435 C 0.97671 0.00404 0.04012 0.0
C2436 C 0.96434 0.99787 0.05258 0.0
C2437 C 0.98741 0.99809 0.0139 0.0
C2438 C 0.01137 0.99859 0.01449 0.0
C2439 C 0.97622 0.00292 0.00055 0.0
C2440 C 0.95094 0.00398 0.99947 0.0
C2441 C 0.93832 0.01838 0.00876 0.0
C2442 C 0.91451 0.0193 0.0077 0.0
C2443 C 0.90312 0.00603 0.99731 0.0
C2444 C 0.91553 0.99185 0.98794 0.0
C2445 C 0.93935 0.99084 0.98897 0.0
H2446 H 0.88469 0.00678 0.9965 0.0
H2447 H 0.11598 0.99946 0.00598 0.0
H2448 H 0.74545 0.79123 0.69056 0.0
H2449 H 0.73588 0.76993 0.71269 0.0
H2450 H 0.7976 0.7942 0.73325 0.0
H2451 H 0.80744 0.81537 0.71104 0.0
H2452 H 0.79106 0.74912 0.73833 0.0
H2453 H 0.74636 0.81748 0.74195 0.0
H2454 H 0.71909 0.8468 0.73358 0.0
H2455 H 0.66654 0.79591 0.72992 0.0
H2456 H 0.6936 0.76621 0.73808 0.0
H2457 H 0.76038 0.71604 0.8105 0.0
H2458 H 0.77109 0.73842 0.78898 0.0
H2459 H 0.7096 0.71647 0.76709 0.0
H2460 H 0.69865 0.69434 0.78865 0.0
H2461 H 0.71664 0.76127 0.76311 0.0
H2462 H 0.76151 0.6928 0.75893 0.0
H2463 H 0.78876 0.66339 0.7672 0.0
H2464 H 0.84096 0.71444 0.77187 0.0
H2465 H 0.81391 0.74422 0.76381 0.0
C2466 C 0.75701 0.79202 0.69978 0.0
C2467 C 0.77715 0.80507 0.69909 0.0
C2468 C 0.75147 0.77991 0.71245 0.0
C2469 C 0.76587 0.78072 0.72471 0.0
C2470 C 0.78621 0.7934 0.72394 0.0
C2471 C 0.79177 0.80553 0.71126 0.0
C2472 C 0.75967 0.76831 0.73829 0.0
C2473 C 0.77494 0.75202 0.74388 0.0
C2474 C 0.73842 0.77174 0.74536 0.0
C2475 C 0.72208 0.78958 0.7405 0.0
C2476 C 0.72904 0.81251 0.73925 0.0
C2477 C 0.71361 0.8292 0.73456 0.0
C2478 C 0.69111 0.82321 0.73118 0.0
C2479 C 0.68398 0.80052 0.73252 0.0
C2480 C 0.69935 0.78375 0.73719 0.0
C2481 C 0.74914 0.716 0.8011 0.0
C2482 C 0.72872 0.70336 0.80124 0.0
C2483 C 0.75532 0.72872 0.78879 0.0
C2484 C 0.74129 0.7289 0.77635 0.0
C2485 C 0.72072 0.71656 0.77656 0.0
C2486 C 0.71451 0.70386 0.78887 0.0
C2487 C 0.74798 0.74197 0.7631 0.0
C2488 C 0.7328 0.75841 0.75759 0.0
C2489 C 0.7693 0.73866 0.7561 0.0
C2490 C 0.78561 0.72077 0.76091 0.0
C2491 C 0.77874 0.69778 0.76183 0.0
C2492 C 0.79416 0.68104 0.76646 0.0
C2493 C 0.81656 0.68705 0.7701 0.0
C2494 C 0.8236 0.70981 0.76907 0.0
C2495 C 0.80824 0.72663 0.76446 0.0
H2496 H 0.82847 0.67406 0.77369 0.0
H2497 H 0.67919 0.83617 0.72755 0.0
H2498 H 0.69751 0.19454 0.21048 0.0
H2499 H 0.70775 0.21675 0.2321 0.0
H2500 H 0.77272 0.23359 0.21262 0.0
H2501 H 0.76261 0.21125 0.19091 0.0
H2502 H 0.7768 0.22081 0.24152 0.0
H2503 H 0.7315 0.27246 0.21309 0.0
H2504 H 0.69772 0.28425 0.19887 0.0
H2505 H 0.65523 0.27555 0.23669 0.0
H2506 H 0.6887 0.2633 0.25108 0.0
H2507 H 0.80613 0.30989 0.29064 0.0
H2508 H 0.79647 0.28865 0.26849 0.0
H2509 H 0.73097 0.27103 0.28694 0.0
H2510 H 0.74049 0.29238 0.30914 0.0
H2511 H 0.72756 0.28471 0.25827 0.0
H2512 H 0.77243 0.23233 0.28653 0.0
H2513 H 0.806 0.22026 0.30086 0.0
H2514 H 0.84912 0.2302 0.26345 0.0
H2515 H 0.81583 0.24268 0.24895 0.0
C2516 C 0.71398 0.20297 0.21078 0.0
C2517 C 0.72923 0.20122 0.19897 0.0
C2518 C 0.71978 0.2157 0.22313 0.0
C2519 C 0.74091 0.22698 0.2239 0.0
C2520 C 0.75632 0.22503 0.21222 0.0
C2521 C 0.75048 0.21234 0.19982 0.0
C2522 C 0.7468 0.24087 0.23692 0.0
C2523 C 0.76624 0.235 0.24507 0.0
C2524 C 0.7327 0.25906 0.2417 0.0
C2525 C 0.71259 0.26676 0.23314 0.0
C2526 C 0.71492 0.2729 0.21835 0.0
C2527 C 0.69584 0.27968 0.21026 0.0
C2528 C 0.67434 0.2806 0.21686 0.0
C2529 C 0.67189 0.2748 0.23159 0.0
C2530 C 0.69092 0.26795 0.23972 0.0
C2531 C 0.78966 0.30152 0.28998 0.0
C2532 C 0.77409 0.30272 0.30164 0.0
C2533 C 0.78419 0.28934 0.27734 0.0
C2534 C 0.76308 0.27811 0.27613 0.0
C2535 C 0.74735 0.27958 0.28766 0.0
C2536 C 0.75285 0.2917 0.30035 0.0
C2537 C 0.75754 0.26462 0.26288 0.0
C2538 C 0.73816 0.27056 0.2547 0.0
C2539 C 0.77167 0.24648 0.25807 0.0
C2540 C 0.79167 0.23865 0.2667 0.0
C2541 C 0.7891 0.2321 0.28139 0.0
C2542 C 0.80807 0.22517 0.28954 0.0
C2543 C 0.82969 0.22453 0.28308 0.0
C2544 C 0.83236 0.23074 0.26844 0.0
C2545 C 0.81345 0.23772 0.26025 0.0
H2546 H 0.84436 0.21917 0.28941 0.0
H2547 H 0.65958 0.28584 0.21058 0.0
H2548 H 0.80414 0.18725 0.78972 0.0
H2549 H 0.795 0.20964 0.76793 0.0
H2550 H 0.7318 0.23141 0.78779 0.0
H2551 H 0.74073 0.20885 0.80957 0.0
H2552 H 0.72571 0.21936 0.75938 0.0
H2553 H 0.77699 0.26673 0.78678 0.0
H2554 H 0.81248 0.27536 0.8002 0.0
H2555 H 0.85182 0.26309 0.7614 0.0
H2556 H 0.81658 0.25396 0.7478 0.0
H2557 H 0.70098 0.31129 0.71134 0.0
H2558 H 0.71001 0.28876 0.73309 0.0
H2559 H 0.77315 0.26685 0.71323 0.0
H2560 H 0.76433 0.28953 0.69148 0.0
H2561 H 0.77926 0.279 0.74166 0.0
H2562 H 0.72791 0.2315 0.71431 0.0
H2563 H 0.6924 0.22269 0.70097 0.0
H2564 H 0.65314 0.23527 0.73976 0.0
H2565 H 0.68842 0.24454 0.75328 0.0
C2566 C 0.78828 0.19677 0.78944 0.0
C2567 C 0.77319 0.19637 0.80137 0.0
C2568 C 0.78311 0.20961 0.777 0.0
C2569 C 0.76282 0.22238 0.7763 0.0
C2570 C 0.74755 0.2217 0.78811 0.0
C2571 C 0.75272 0.20887 0.80056 0.0
C2572 C 0.75763 0.23663 0.76329 0.0
C2573 C 0.73727 0.2326 0.75561 0.0
C2574 C 0.77295 0.25359 0.75822 0.0
C2575 C 0.79415 0.25945 0.7663 0.0
C2576 C 0.79322 0.26572 0.78113 0.0
C2577 C 0.81329 0.27071 0.78877 0.0
C2578 C 0.83439 0.26973 0.78166 0.0
C2579 C 0.83546 0.26382 0.76689 0.0
C2580 C 0.81544 0.25874 0.75921 0.0
C2581 C 0.71679 0.30169 0.71161 0.0
C2582 C 0.73191 0.30211 0.69969 0.0
C2583 C 0.7219 0.28877 0.72403 0.0
C2584 C 0.74216 0.27594 0.72473 0.0
C2585 C 0.75743 0.27661 0.71292 0.0
C2586 C 0.75232 0.28951 0.70048 0.0
C2587 C 0.74734 0.26172 0.73774 0.0
C2588 C 0.7677 0.26576 0.74543 0.0
C2589 C 0.73201 0.24478 0.74283 0.0
C2590 C 0.7108 0.23893 0.73477 0.0
C2591 C 0.7117 0.23255 0.71997 0.0
C2592 C 0.69161 0.22746 0.71238 0.0
C2593 C 0.67052 0.22847 0.7195 0.0
C2594 C 0.66949 0.23452 0.73425 0.0
C2595 C 0.68952 0.23968 0.74189 0.0
H2596 H 0.65499 0.22452 0.7136 0.0
H2597 H 0.84991 0.27359 0.7876 0.0
H2598 H 0.69672 0.81645 0.28689 0.0
H2599 H 0.7063 0.79486 0.26476 0.0
H2600 H 0.76573 0.76716 0.28626 0.0
H2601 H 0.75629 0.78861 0.30836 0.0
H2602 H 0.74549 0.79517 0.24708 0.0
H2603 H 0.77071 0.71108 0.27601 0.0
H2604 H 0.76175 0.69037 0.29877 0.0
H2605 H 0.69554 0.7219 0.30015 0.0
H2606 H 0.70394 0.74248 0.27727 0.0
H2607 H 0.79998 0.68804 0.21081 0.0
H2608 H 0.79019 0.71071 0.23241 0.0
H2609 H 0.73186 0.73852 0.20976 0.0
H2610 H 0.7415 0.71587 0.18815 0.0
H2611 H 0.75109 0.71059 0.2494 0.0
H2612 H 0.72662 0.79485 0.22008 0.0
H2613 H 0.7367 0.81583 0.1976 0.0
H2614 H 0.80288 0.78414 0.19734 0.0
H2615 H 0.7933 0.7632 0.21989 0.0
C2616 C 0.71185 0.80579 0.28688 0.0
C2617 C 0.72571 0.80415 0.29937 0.0
C2618 C 0.71734 0.79356 0.27422 0.0
C2619 C 0.73662 0.77929 0.27391 0.0
C2620 C 0.75064 0.7779 0.28631 0.0
C2621 C 0.74524 0.7902 0.29892 0.0
C2622 C 0.74189 0.76544 0.26076 0.0
C2623 C 0.74639 0.77666 0.24752 0.0
C2624 C 0.74359 0.74133 0.26145 0.0
C2625 C 0.73808 0.7285 0.27499 0.0
C2626 C 0.75419 0.71349 0.28112 0.0
C2627 C 0.74922 0.70179 0.29405 0.0
C2628 C 0.72812 0.70488 0.30093 0.0
C2629 C 0.7119 0.71958 0.29484 0.0
C2630 C 0.71677 0.73128 0.28189 0.0
C2631 C 0.78507 0.69899 0.21044 0.0
C2632 C 0.77151 0.7002 0.19779 0.0
C2633 C 0.77946 0.71186 0.2228 0.0
C2634 C 0.76038 0.72638 0.22266 0.0
C2635 C 0.74678 0.72757 0.21005 0.0
C2636 C 0.75227 0.71457 0.19773 0.0
C2637 C 0.7547 0.74031 0.23571 0.0
C2638 C 0.75013 0.7291 0.24894 0.0
C2639 C 0.75304 0.76442 0.23502 0.0
C2640 C 0.75911 0.77726 0.22159 0.0
C2641 C 0.74334 0.79242 0.21525 0.0
C2642 C 0.74897 0.80429 0.20248 0.0
C2643 C 0.77038 0.80123 0.196 0.0
C2644 C 0.78625 0.78639 0.20231 0.0
C2645 C 0.78072 0.7745 0.21508 0.0
H2646 H 0.77469 0.81041 0.18611 0.0
H2647 H 0.72433 0.69587 0.31096 0.0
H2648 H 0.5333 0.50856 0.06232 0.0
H2649 H 0.5121 0.51995 0.04046 0.0
H2650 H 0.53758 0.46069 0.01766 0.0
H2651 H 0.55895 0.44928 0.03945 0.0
H2652 H 0.54072 0.49916 0.00105 0.0
H2653 H 0.48356 0.46185 0.03026 0.0
H2654 H 0.46083 0.45504 0.05251 0.0
H2655 H 0.43459 0.52349 0.05041 0.0
H2656 H 0.45746 0.53083 0.02826 0.0
H2657 H 0.4652 0.49613 0.94083 0.0
H2658 H 0.48615 0.48728 0.9632 0.0
H2659 H 0.45877 0.54782 0.9836 0.0
H2660 H 0.43759 0.55674 0.96121 0.0
H2661 H 0.4567 0.51056 0.00169 0.0
H2662 H 0.51276 0.54761 0.97209 0.0
H2663 H 0.53536 0.55456 0.94981 0.0
H2664 H 0.56373 0.48704 0.95267 0.0
H2665 H 0.54099 0.47954 0.97485 0.0
C2666 C 0.53434 0.49793 0.05266 0.0
C2667 C 0.54776 0.478 0.0526 0.0
C2668 C 0.52217 0.50443 0.04019 0.0
C2669 C 0.52313 0.49109 0.02746 0.0
C2670 C 0.53661 0.47124 0.02736 0.0
C2671 C 0.54874 0.4647 0.03984 0.0
C2672 C 0.51022 0.49787 0.01419 0.0
C2673 C 0.52231 0.50139 0.00114 0.0
C2674 C 0.48629 0.50138 0.01442 0.0
C2675 C 0.47241 0.49696 0.02769 0.0
C2676 C 0.47309 0.47551 0.03461 0.0
C2677 C 0.46016 0.47154 0.04719 0.0
C2678 C 0.44632 0.48884 0.05289 0.0
C2679 C 0.44535 0.51012 0.046 0.0
C2680 C 0.45828 0.51419 0.03342 0.0
C2681 C 0.46365 0.50759 0.95006 0.0
C2682 C 0.44979 0.52716 0.94925 0.0
C2683 C 0.4757 0.50255 0.96283 0.0
C2684 C 0.47419 0.517 0.97502 0.0
C2685 C 0.46019 0.53645 0.97431 0.0
C2686 C 0.44817 0.54156 0.9615 0.0
C2687 C 0.48718 0.51165 0.98852 0.0
C2688 C 0.47511 0.50842 0.00161 0.0
C2689 C 0.51115 0.50844 0.98834 0.0
C2690 C 0.525 0.51294 0.97506 0.0
C2691 C 0.52368 0.53418 0.96791 0.0
C2692 C 0.53653 0.53822 0.9553 0.0
C2693 C 0.55093 0.52123 0.94981 0.0
C2694 C 0.55255 0.50017 0.95693 0.0
C2695 C 0.53969 0.49602 0.96953 0.0
H2696 H 0.56088 0.5244 0.94005 0.0
H2697 H 0.43632 0.48573 0.06264 0.0
H2698 H 0.04025 0.51255 0.43919 0.0
H2699 H 0.01788 0.52298 0.46078 0.0
H2700 H 0.03877 0.46055 0.482 0.0
H2701 H 0.06083 0.44987 0.46038 0.0
H2702 H 0.99413 0.46782 0.4858 0.0
H2703 H 0.06284 0.51222 0.49091 0.0
H2704 H 0.09245 0.53962 0.48313 0.0
H2705 H 0.04165 0.59215 0.47888 0.0
H2706 H 0.01168 0.56496 0.48646 0.0
H2707 H 0.96297 0.49517 0.55861 0.0
H2708 H 0.98431 0.48555 0.53647 0.0
H2709 H 0.96161 0.54819 0.5163 0.0
H2710 H 0.94046 0.55805 0.53848 0.0
H2711 H 0.00642 0.54134 0.51161 0.0
H2712 H 0.93781 0.49726 0.50692 0.0
H2713 H 0.90813 0.46994 0.5147 0.0
H2714 H 0.95856 0.4169 0.51808 0.0
H2715 H 0.98862 0.444 0.51052 0.0
C2716 C 0.04009 0.50107 0.44846 0.0
C2717 C 0.05237 0.48044 0.44812 0.0
C2718 C 0.02737 0.50708 0.46081 0.0
C2719 C 0.02685 0.49266 0.47308 0.0
C2720 C 0.03893 0.47195 0.47268 0.0
C2721 C 0.05159 0.46591 0.46033 0.0
C2722 C 0.01363 0.49903 0.48632 0.0
C2723 C 0.99702 0.48377 0.49155 0.0
C2724 C 0.01698 0.5201 0.49362 0.0
C2725 C 0.03499 0.53649 0.48911 0.0
C2726 C 0.05796 0.52956 0.48821 0.0
C2727 C 0.07481 0.54507 0.48385 0.0
C2728 C 0.06892 0.5676 0.48047 0.0
C2729 C 0.04618 0.57469 0.48148 0.0
C2730 C 0.02926 0.55924 0.48582 0.0
C2731 C 0.9625 0.50688 0.54945 0.0
C2732 C 0.94997 0.52732 0.55026 0.0
C2733 C 0.97463 0.50132 0.53679 0.0
C2734 C 0.97434 0.51603 0.52466 0.0
C2735 C 0.96204 0.53658 0.52551 0.0
C2736 C 0.94991 0.54215 0.53818 0.0
C2737 C 0.98702 0.51007 0.51113 0.0
C2738 C 0.00351 0.52541 0.50585 0.0
C2739 C 0.98355 0.48908 0.50377 0.0
C2740 C 0.9655 0.47272 0.50829 0.0
C2741 C 0.94261 0.47982 0.50944 0.0
C2742 C 0.92571 0.46436 0.51379 0.0
C2743 C 0.93147 0.44171 0.51692 0.0
C2744 C 0.95413 0.43446 0.51567 0.0
C2745 C 0.9711 0.44985 0.51134 0.0
H2746 H 0.91836 0.42977 0.52028 0.0
H2747 H 0.082 0.57957 0.4771 0.0
H2748 H 0.05838 0.55329 0.038 0.0
H2749 H 0.03662 0.54288 0.01622 0.0
H2750 H 0.01594 0.47987 0.0368 0.0
H2751 H 0.0379 0.4901 0.05863 0.0
H2752 H 0.0289 0.47324 0.00842 0.0
H2753 H 0.97927 0.52373 0.03473 0.0
H2754 H 0.96917 0.5592 0.04775 0.0
H2755 H 0.98191 0.59822 0.00888 0.0
H2756 H 0.99246 0.563 0.99568 0.0
H2757 H 0.93979 0.44575 0.95873 0.0
H2758 H 0.96118 0.4554 0.98084 0.0
H2759 H 0.98218 0.5191 0.96129 0.0
H2760 H 0.96061 0.50966 0.93919 0.0
H2761 H 0.96867 0.52501 0.9894 0.0
H2762 H 0.01873 0.4747 0.96317 0.0
H2763 H 0.02898 0.43932 0.9501 0.0
H2764 H 0.01555 0.40002 0.98877 0.0
H2765 H 0.00485 0.43516 0.00201 0.0
C2766 C 0.04921 0.53721 0.0379 0.0
C2767 C 0.04977 0.52255 0.05005 0.0
C2768 C 0.03673 0.53131 0.02545 0.0
C2769 C 0.02446 0.5107 0.02493 0.0
C2770 C 0.02527 0.49587 0.03697 0.0
C2771 C 0.03774 0.50177 0.04945 0.0
C2772 C 0.01068 0.50477 0.01185 0.0
C2773 C 0.01551 0.48439 0.00437 0.0
C2774 C 0.99353 0.51956 0.00641 0.0
C2775 C 0.98685 0.54074 0.01425 0.0
C2776 C 0.98006 0.53989 0.02898 0.0
C2777 C 0.97425 0.55995 0.03639 0.0
C2778 C 0.97495 0.58096 0.02915 0.0
C2779 C 0.9814 0.58193 0.01447 0.0
C2780 C 0.98728 0.56193 0.00702 0.0
C2781 C 0.94896 0.46182 0.95914 0.0
C2782 C 0.94858 0.47692 0.94721 0.0
C2783 C 0.96123 0.46728 0.97176 0.0
C2784 C 0.97346 0.48788 0.97267 0.0
C2785 C 0.97287 0.50311 0.96083 0.0
C2786 C 0.96061 0.49766 0.94819 0.0
C2787 C 0.98693 0.49351 0.98594 0.0
C2788 C 0.98203 0.51383 0.99346 0.0
C2789 C 0.00402 0.47867 0.99141 0.0
C2790 C 0.01078 0.45755 0.98354 0.0
C2791 C 0.0178 0.4585 0.96886 0.0
C2792 C 0.02371 0.43849 0.96142 0.0
C2793 C 0.02286 0.41743 0.96859 0.0
C2794 C 0.01617 0.41635 0.98322 0.0
C2795 C 0.0102 0.43631 0.9907 0.0
H2796 H 0.02743 0.40195 0.96281 0.0
H2797 H 0.97045 0.59647 0.03491 0.0
H2798 H 0.55971 0.55988 0.46013 0.0
H2799 H 0.53782 0.55119 0.48224 0.0
H2800 H 0.52427 0.48335 0.4659 0.0
H2801 H 0.54549 0.49218 0.44365 0.0
H2802 H 0.4869 0.50049 0.47703 0.0
H2803 H 0.56517 0.49462 0.49307 0.0
H2804 H 0.60459 0.50831 0.49685 0.0
H2805 H 0.57961 0.5637 0.52314 0.0
H2806 H 0.54 0.55049 0.51936 0.0
H2807 H 0.44907 0.44746 0.54217 0.0
H2808 H 0.47064 0.45831 0.52038 0.0
H2809 H 0.48171 0.52553 0.53843 0.0
H2810 H 0.46069 0.51453 0.56043 0.0
H2811 H 0.51978 0.51024 0.52656 0.0
H2812 H 0.44155 0.51541 0.51109 0.0
H2813 H 0.40216 0.50158 0.50738 0.0
H2814 H 0.42706 0.44746 0.48001 0.0
H2815 H 0.46663 0.46079 0.48371 0.0
C2816 C 0.55209 0.54311 0.46128 0.0
C2817 C 0.55436 0.52669 0.45018 0.0
C2818 C 0.53966 0.53812 0.47395 0.0
C2819 C 0.52961 0.51649 0.47584 0.0
C2820 C 0.53184 0.50015 0.46471 0.0
C2821 C 0.54404 0.5052 0.45201 0.0
C2822 C 0.51655 0.51083 0.48931 0.0
C2823 C 0.49421 0.50237 0.48785 0.0
C2824 C 0.52581 0.51383 0.50347 0.0
C2825 C 0.54962 0.5217 0.50582 0.0
C2826 C 0.56808 0.50981 0.49957 0.0
C2827 C 0.59046 0.51746 0.50173 0.0
C2828 C 0.5946 0.53689 0.51019 0.0
C2829 C 0.57637 0.54867 0.51656 0.0
C2830 C 0.55396 0.5411 0.51443 0.0
C2831 C 0.45607 0.46456 0.54149 0.0
C2832 C 0.45311 0.48018 0.55298 0.0
C2833 C 0.46832 0.47079 0.52899 0.0
C2834 C 0.47752 0.49288 0.52765 0.0
C2835 C 0.47474 0.50842 0.53919 0.0
C2836 C 0.46267 0.50213 0.55175 0.0
C2837 C 0.49022 0.4997 0.51427 0.0
C2838 C 0.51246 0.50841 0.51574 0.0
C2839 C 0.48088 0.49692 0.50011 0.0
C2840 C 0.45707 0.48899 0.49778 0.0
C2841 C 0.43864 0.50047 0.50436 0.0
C2842 C 0.41628 0.49273 0.50225 0.0
C2843 C 0.41212 0.47362 0.49349 0.0
C2844 C 0.43031 0.46225 0.4868 0.0
C2845 C 0.4527 0.4699 0.48888 0.0
H2846 H 0.3948 0.46766 0.49187 0.0
H2847 H 0.61193 0.5428 0.51185 0.0
H2848 H 0.24283 0.10213 0.33639 0.0
H2849 H 0.26999 0.07466 0.34648 0.0
H2850 H 0.28208 0.11928 0.38315 0.0
H2851 H 0.25475 0.14698 0.3731 0.0
H2852 H 0.32234 0.1018 0.37126 0.0
H2853 H 0.24981 0.07412 0.38777 0.0
H2854 H 0.20983 0.06167 0.38509 0.0
H2855 H 0.2311 0.00662 0.35723 0.0
H2856 H 0.27122 0.01909 0.35945 0.0
H2857 H 0.35175 0.99331 0.41618 0.0
H2858 H 0.32427 0.0209 0.40666 0.0
H2859 H 0.36675 0.03148 0.36877 0.0
H2860 H 0.39456 0.00388 0.37833 0.0
H2861 H 0.29888 0.02218 0.38239 0.0
H2862 H 0.36205 0.08835 0.35884 0.0
H2863 H 0.40158 0.10168 0.36279 0.0
H2864 H 0.39802 0.08082 0.40769 0.0
H2865 H 0.35839 0.06766 0.40406 0.0
C2866 C 0.25119 0.10611 0.34663 0.0
C2867 C 0.24657 0.12672 0.35398 0.0
C2868 C 0.2667 0.09036 0.35239 0.0
C2869 C 0.27799 0.09486 0.36559 0.0
C2870 C 0.27356 0.11548 0.37293 0.0
C2871 C 0.25785 0.13122 0.36723 0.0
C2872 C 0.29434 0.07794 0.3717 0.0
C2873 C 0.31722 0.08439 0.37369 0.0
C2874 C 0.28762 0.05527 0.37499 0.0
C2875 C 0.26351 0.04768 0.37367 0.0
C2876 C 0.24595 0.05948 0.38096 0.0
C2877 C 0.22326 0.0524 0.37954 0.0
C2878 C 0.21791 0.03335 0.37099 0.0
C2879 C 0.23526 0.02137 0.36384 0.0
C2880 C 0.25799 0.02845 0.36517 0.0
C2881 C 0.35524 0.00139 0.40578 0.0
C2882 C 0.3754 0.99644 0.39803 0.0
C2883 C 0.33946 0.01714 0.40033 0.0
C2884 C 0.34352 0.02845 0.38708 0.0
C2885 C 0.36339 0.02318 0.37912 0.0
C2886 C 0.3792 0.00731 0.38455 0.0
C2887 C 0.327 0.0459 0.38177 0.0
C2888 C 0.30405 0.03955 0.3799 0.0
C2889 C 0.33362 0.06871 0.37876 0.0
C2890 C 0.35735 0.0768 0.38112 0.0
C2891 C 0.36969 0.08668 0.36957 0.0
C2892 C 0.39211 0.0942 0.37175 0.0
C2893 C 0.40233 0.09203 0.38547 0.0
C2894 C 0.39012 0.08241 0.39705 0.0
C2895 C 0.36769 0.07489 0.39493 0.0
H2896 H 0.41969 0.09784 0.38713 0.0
H2897 H 0.20034 0.02784 0.36993 0.0
H2898 H 0.15356 0.98927 0.58668 0.0
H2899 H 0.18131 0.01619 0.59692 0.0
H2900 H 0.13289 0.03528 0.63025 0.0
H2901 H 0.10512 0.0081 0.62019 0.0
H2902 H 0.15389 0.07305 0.61601 0.0
H2903 H 0.17416 0.00356 0.64032 0.0
H2904 H 0.18435 0.96274 0.64186 0.0
H2905 H 0.24452 0.97502 0.61619 0.0
H2906 H 0.23448 0.01588 0.6143 0.0
H2907 H 0.25498 0.10493 0.66697 0.0
H2908 H 0.2279 0.07731 0.65711 0.0
H2909 H 0.22606 0.11442 0.61642 0.0
H2910 H 0.25308 0.14249 0.62635 0.0
H2911 H 0.22939 0.04833 0.63494 0.0
H2912 H 0.17188 0.10981 0.60207 0.0
H2913 H 0.15999 0.15027 0.60225 0.0
H2914 H 0.1717 0.15359 0.6485 0.0
H2915 H 0.18336 0.11309 0.64862 0.0
C2916 C 0.14887 0.99908 0.59625 0.0
C2917 C 0.12718 0.99653 0.60266 0.0
C2918 C 0.16474 0.01445 0.60208 0.0
C2919 C 0.15913 0.02773 0.61433 0.0
C2920 C 0.13751 0.02522 0.62077 0.0
C2921 C 0.12174 0.00959 0.61507 0.0
C2922 C 0.17585 0.04433 0.62034 0.0
C2923 C 0.17042 0.06769 0.62012 0.0
C2924 C 0.19727 0.03727 0.62586 0.0
C2925 C 0.20344 0.01274 0.62704 0.0
C2926 C 0.18946 0.99752 0.63489 0.0
C2927 C 0.19522 0.97438 0.63585 0.0
C2928 C 0.21503 0.96628 0.62909 0.0
C2929 C 0.22915 0.98132 0.6214 0.0
C2930 C 0.22344 0.00447 0.62039 0.0
C2931 C 0.2489 0.10724 0.6559 0.0
C2932 C 0.25614 0.12599 0.64746 0.0
C2933 C 0.23344 0.09135 0.65026 0.0
C2934 C 0.22476 0.09383 0.63607 0.0
C2935 C 0.23228 0.11229 0.62748 0.0
C2936 C 0.2478 0.12827 0.63314 0.0
C2937 C 0.2076 0.0772 0.63047 0.0
C2938 C 0.21294 0.05379 0.63074 0.0
C2939 C 0.18593 0.0842 0.62522 0.0
C2940 C 0.17873 0.1085 0.62531 0.0
C2941 C 0.17185 0.11917 0.61228 0.0
C2942 C 0.16516 0.1421 0.61233 0.0
C2943 C 0.16517 0.15451 0.62537 0.0
C2944 C 0.17179 0.14399 0.6384 0.0
C2945 C 0.17847 0.12105 0.63841 0.0
H2946 H 0.16 0.17227 0.62538 0.0
H2947 H 0.21947 0.94837 0.62985 0.0
H2948 H 0.24443 0.85395 0.87111 0.0
H2949 H 0.21688 0.88154 0.88102 0.0
H2950 H 0.23462 0.92931 0.847 0.0
H2951 H 0.26195 0.90188 0.83701 0.0
H2952 H 0.2313 0.94999 0.87399 0.0
H2953 H 0.18752 0.89953 0.84349 0.0
H2954 H 0.17321 0.8622 0.835 0.0
H2955 H 0.14328 0.8498 0.87708 0.0
H2956 H 0.15772 0.88695 0.88589 0.0
H2957 H 0.1074 0.99927 0.87783 0.0
H2958 H 0.13541 0.97241 0.86766 0.0
H2959 H 0.17414 0.97561 0.90768 0.0
H2960 H 0.1465 0.00248 0.91782 0.0
H2961 H 0.14897 0.93001 0.87657 0.0
H2962 H 0.23067 0.97201 0.89973 0.0
H2963 H 0.24457 0.01025 0.90679 0.0
H2964 H 0.19798 0.04132 0.87649 0.0
H2965 H 0.18403 0.00327 0.8691 0.0
C2966 C 0.2426 0.87041 0.86583 0.0
C2967 C 0.25531 0.87572 0.85326 0.0
C2968 C 0.22678 0.8861 0.87146 0.0
C2969 C 0.22358 0.90741 0.86467 0.0
C2970 C 0.2368 0.91298 0.8524 0.0
C2971 C 0.25237 0.89724 0.84669 0.0
C2972 C 0.20617 0.92381 0.87011 0.0
C2973 C 0.21332 0.94559 0.87461 0.0
C2974 C 0.18265 0.91822 0.87067 0.0
C2975 C 0.17392 0.89591 0.8654 0.0
C2976 C 0.17807 0.88875 0.85097 0.0
C2977 C 0.16989 0.86765 0.84609 0.0
C2978 C 0.1574 0.85361 0.85551 0.0
C2979 C 0.153 0.86068 0.86981 0.0
C2980 C 0.16116 0.88176 0.87475 0.0
C2981 C 0.12195 0.99432 0.88442 0.0
C2982 C 0.12478 0.00311 0.8986 0.0
C2983 C 0.13787 0.97889 0.87863 0.0
C2984 C 0.15698 0.97214 0.88686 0.0
C2985 C 0.15972 0.9808 0.90104 0.0
C2986 C 0.14385 0.99615 0.90683 0.0
C2987 C 0.17415 0.95609 0.88067 0.0
C2988 C 0.16697 0.93438 0.87602 0.0
C2989 C 0.19763 0.96183 0.87981 0.0
C2990 C 0.20617 0.98479 0.88397 0.0
C2991 C 0.22347 0.987 0.89453 0.0
C2992 C 0.23134 0.00864 0.8986 0.0
C2993 C 0.22211 0.02821 0.89213 0.0
C2994 C 0.20506 0.02616 0.88153 0.0
C2995 C 0.19714 0.00456 0.87741 0.0
H2996 H 0.22821 0.04494 0.89531 0.0
H2997 H 0.15107 0.83727 0.85171 0.0
H2998 H 0.26027 0.85225 0.1298 0.0
H2999 H 0.28886 0.8795 0.12097 0.0
H3000 H 0.2661 0.9287 0.15295 0.0
H3001 H 0.23842 0.90108 0.16227 0.0
H3002 H 0.28939 0.91777 0.10875 0.0
H3003 H 0.30795 0.96286 0.16439 0.0
H3004 H 0.30894 0.95314 0.19061 0.0
H3005 H 0.32008 0.88254 0.18 0.0
H3006 H 0.31947 0.89188 0.15374 0.0
H3007 H 0.34807 0.0186 0.09258 0.0
H3008 H 0.32109 0.99078 0.10244 0.0
H3009 H 0.37478 0.9616 0.12887 0.0
H3010 H 0.40148 0.99049 0.11966 0.0
H3011 H 0.33899 0.95944 0.14369 0.0
H3012 H 0.3553 0.9371 0.09507 0.0
H3013 H 0.35973 0.94123 0.06842 0.0
H3014 H 0.28824 0.95643 0.06429 0.0
H3015 H 0.28344 0.95268 0.09095 0.0
C3016 C 0.26134 0.86893 0.1349 0.0
C3017 C 0.24723 0.87448 0.14679 0.0
C3018 C 0.2777 0.88452 0.12984 0.0
C3019 C 0.28008 0.90609 0.13646 0.0
C3020 C 0.2652 0.91197 0.14792 0.0
C3021 C 0.24921 0.89623 0.15317 0.0
C3022 C 0.29805 0.9224 0.13142 0.0
C3023 C 0.30022 0.92684 0.11642 0.0
C3024 C 0.31285 0.93379 0.14131 0.0
C3025 C 0.31342 0.92806 0.1571 0.0
C3026 C 0.3107 0.94528 0.16766 0.0
C3027 C 0.31118 0.93984 0.18252 0.0
C3028 C 0.31449 0.91723 0.18696 0.0
C3029 C 0.31742 0.90003 0.17655 0.0
C3030 C 0.31698 0.90539 0.16167 0.0
C3031 C 0.35404 0.00639 0.10062 0.0
C3032 C 0.37688 0.00661 0.10531 0.0
C3033 C 0.33864 0.99032 0.10616 0.0
C3034 C 0.34594 0.97354 0.11611 0.0
C3035 C 0.36865 0.97423 0.12116 0.0
C3036 C 0.38393 0.99074 0.1159 0.0
C3037 C 0.32996 0.95518 0.12105 0.0
C3038 C 0.32818 0.95034 0.13603 0.0
C3039 C 0.3163 0.9426 0.11108 0.0
C3040 C 0.31906 0.9448 0.09503 0.0
C3041 C 0.34056 0.94147 0.08849 0.0
C3042 C 0.34313 0.94372 0.07338 0.0
C3043 C 0.32429 0.94914 0.06467 0.0
C3044 C 0.30282 0.95225 0.07105 0.0
C3045 C 0.30016 0.95005 0.08616 0.0
H3046 H 0.32631 0.95088 0.05298 0.0
H3047 H 0.31484 0.91305 0.19847 0.0
H3048 H 0.75918 0.86704 0.62536 0.0
H3049 H 0.73234 0.895 0.61503 0.0
H3050 H 0.71813 0.92059 0.65824 0.0
H3051 H 0.74503 0.89307 0.66858 0.0
H3052 H 0.67849 0.9123 0.64102 0.0
H3053 H 0.75159 0.95053 0.63774 0.0
H3054 H 0.79193 0.95384 0.63027 0.0
H3055 H 0.77244 0.94749 0.58524 0.0
H3056 H 0.73198 0.94379 0.59247 0.0
H3057 H 0.61712 0.01291 0.62344 0.0
H3058 H 0.6447 0.98568 0.63353 0.0
H3059 H 0.67011 0.97202 0.59015 0.0
H3060 H 0.64337 0.99989 0.58014 0.0
H3061 H 0.70426 0.97343 0.60728 0.0
H3062 H 0.6322 0.93494 0.60931 0.0
H3063 H 0.59162 0.9295 0.61569 0.0
H3064 H 0.60822 0.93353 0.66129 0.0
H3065 H 0.64888 0.9393 0.65518 0.0
C3066 C 0.75034 0.87865 0.63263 0.0
C3067 C 0.75428 0.87791 0.64777 0.0
C3068 C 0.73506 0.89461 0.62673 0.0
C3069 C 0.72331 0.90989 0.63588 0.0
C3070 C 0.727 0.90895 0.65099 0.0
C3071 C 0.74247 0.89326 0.65687 0.0
C3072 C 0.70722 0.92702 0.62978 0.0
C3073 C 0.68411 0.92584 0.63375 0.0
C3074 C 0.7145 0.94425 0.62001 0.0
C3075 C 0.73879 0.94664 0.61565 0.0
C3076 C 0.75592 0.94964 0.62625 0.0
C3077 C 0.77881 0.95163 0.62206 0.0
C3078 C 0.78475 0.95081 0.60729 0.0
C3079 C 0.76781 0.94808 0.59668 0.0
C3080 C 0.7449 0.94606 0.60082 0.0
C3081 C 0.6287 0.00418 0.61608 0.0
C3082 C 0.62804 0.00851 0.601 0.0
C3083 C 0.64436 0.98848 0.62184 0.0
C3084 C 0.65927 0.97638 0.61259 0.0
C3085 C 0.65884 0.98105 0.59755 0.0
C3086 C 0.64349 0.997 0.59183 0.0
C3087 C 0.6753 0.95884 0.61849 0.0
C3088 C 0.69848 0.95991 0.6145 0.0
C3089 C 0.66798 0.94124 0.62806 0.0
C3090 C 0.64355 0.93778 0.63178 0.0
C3091 C 0.62717 0.93484 0.6207 0.0
C3092 C 0.60416 0.93167 0.62426 0.0
C3093 C 0.59733 0.93123 0.63888 0.0
C3094 C 0.61352 0.93391 0.64997 0.0
C3095 C 0.63655 0.93711 0.64646 0.0
H3096 H 0.57951 0.92877 0.64162 0.0
H3097 H 0.80248 0.95235 0.60407 0.0
H3098 H 0.85232 0.0044 0.41629 0.0
H3099 H 0.82495 0.97699 0.40649 0.0
H3100 H 0.86603 0.96969 0.36765 0.0
H3101 H 0.89381 0.99703 0.37753 0.0
H3102 H 0.79854 0.97702 0.38299 0.0
H3103 H 0.86111 0.91401 0.35559 0.0
H3104 H 0.90103 0.901 0.35805 0.0
H3105 H 0.90002 0.91785 0.40369 0.0
H3106 H 0.86002 0.93067 0.40154 0.0
H3107 H 0.74102 0.90008 0.33565 0.0
H3108 H 0.76844 0.92707 0.34599 0.0
H3109 H 0.78276 0.87997 0.38103 0.0
H3110 H 0.75514 0.85277 0.37074 0.0
H3111 H 0.82239 0.89884 0.36853 0.0
H3112 H 0.75086 0.92388 0.38804 0.0
H3113 H 0.71051 0.93556 0.38684 0.0
H3114 H 0.72868 0.9931 0.36013 0.0
H3115 H 0.76917 0.9814 0.36088 0.0
C3116 C 0.85554 0.99707 0.40563 0.0
C3117 C 0.8753 0.00286 0.39771 0.0
C3118 C 0.83982 0.9814 0.40002 0.0
C3119 C 0.84351 0.97107 0.3864 0.0
C3120 C 0.86298 0.97719 0.37829 0.0
C3121 C 0.87877 0.99291 0.3839 0.0
C3122 C 0.82695 0.95384 0.38085 0.0
C3123 C 0.80381 0.95996 0.37979 0.0
C3124 C 0.83369 0.93143 0.37688 0.0
C3125 C 0.85765 0.92352 0.37836 0.0
C3126 C 0.86939 0.91486 0.36616 0.0
C3127 C 0.89203 0.90753 0.3675 0.0
C3128 C 0.90308 0.90867 0.38101 0.0
C3129 C 0.89148 0.91706 0.39322 0.0
C3130 C 0.86883 0.92439 0.39194 0.0
C3131 C 0.74991 0.89546 0.3456 0.0
C3132 C 0.74584 0.87431 0.35242 0.0
C3133 C 0.76558 0.91093 0.35149 0.0
C3134 C 0.77761 0.90556 0.36428 0.0
C3135 C 0.77368 0.88442 0.37112 0.0
C3136 C 0.75779 0.86898 0.3653 0.0
C3137 C 0.79412 0.92218 0.37053 0.0
C3138 C 0.81721 0.91594 0.3717 0.0
C3139 C 0.78731 0.94441 0.37477 0.0
C3140 C 0.76302 0.95163 0.3744 0.0
C3141 C 0.74624 0.93891 0.3818 0.0
C3142 C 0.72333 0.94556 0.38121 0.0
C3143 C 0.717 0.96508 0.3734 0.0
C3144 C 0.7336 0.97798 0.36616 0.0
C3145 C 0.75654 0.97134 0.36666 0.0
H3146 H 0.69927 0.97025 0.37298 0.0
H3147 H 0.92061 0.90301 0.38202 0.0
H3148 H 0.74037 0.13466 0.12595 0.0
H3149 H 0.76719 0.1063 0.116 0.0
H3150 H 0.78563 0.08605 0.1597 0.0
H3151 H 0.75856 0.11379 0.16969 0.0
H3152 H 0.82381 0.09574 0.13926 0.0
H3153 H 0.75393 0.05204 0.1439 0.0
H3154 H 0.71297 0.04479 0.13962 0.0
H3155 H 0.72443 0.04478 0.0933 0.0
H3156 H 0.76544 0.05239 0.09731 0.0
H3157 H 0.88914 0.99623 0.12493 0.0
H3158 H 0.86126 0.02335 0.13481 0.0
H3159 H 0.8295 0.02863 0.09242 0.0
H3160 H 0.8568 1.00111 0.08263 0.0
H3161 H 0.79774 0.02724 0.11201 0.0
H3162 H 0.86616 0.07052 0.10604 0.0
H3163 H 0.90698 0.08 0.10882 0.0
H3164 H 0.89874 0.08368 0.15536 0.0
H3165 H 0.85791 0.0739 0.15287 0.0
C3166 C 0.75009 0.12408 0.13342 0.0
C3167 C 0.7473 0.12637 0.14859 0.0
C3168 C 0.76537 0.10792 0.12773 0.0
C3169 C 0.77837 0.09413 0.13714 0.0
C3170 C 0.77577 0.09656 0.15228 0.0
C3171 C 0.7602 0.11233 0.15795 0.0
C3172 C 0.79471 0.07709 0.13126 0.0
C3173 C 0.81817 0.0806 0.13344 0.0
C3174 C 0.78729 0.05776 0.12332 0.0
C3175 C 0.76269 0.05304 0.1209 0.0
C3176 C 0.74768 0.05071 0.1328 0.0
C3177 C 0.72446 0.04649 0.13043 0.0
C3178 C 0.71609 0.0444 0.1162 0.0
C3179 C 0.73094 0.04645 0.10432 0.0
C3180 C 0.75417 0.0507 0.10664 0.0
C3181 C 0.87613 0.00309 0.11775 0.0
C3182 C 0.87524 0.99656 0.10299 0.0
C3183 C 0.86027 0.01871 0.12338 0.0
C3184 C 0.84343 0.02837 0.11432 0.0
C3185 C 0.84229 0.02148 0.09965 0.0
C3186 C 0.85798 0.00575 0.09406 0.0
C3187 C 0.82707 0.04572 0.12003 0.0
C3188 C 0.80354 0.04233 0.11781 0.0
C3189 C 0.83447 0.06541 0.12771 0.0
C3190 C 0.85903 0.07122 0.12927 0.0
C3191 C 0.87309 0.07315 0.11688 0.0
C3192 C 0.89623 0.07861 0.1184 0.0
C3193 C 0.90546 0.08237 0.13226 0.0
C3194 C 0.89157 0.08073 0.14463 0.0
C3195 C 0.86843 0.07524 0.14317 0.0
H3196 H 0.92337 0.08661 0.13342 0.0
H3197 H 0.69811 0.04113 0.11438 0.0
H3198 H 0.63498 0.00998 0.92049 0.0
H3199 H 0.66199 0.03738 0.91004 0.0
H3200 H 0.64535 0.0137 0.86676 0.0
H3201 H 0.61761 0.98656 0.87715 0.0
H3202 H 0.6963 0.01798 0.8761 0.0
H3203 H 0.62497 0.05899 0.872 0.0
H3204 H 0.5886 0.07451 0.88128 0.0
H3205 H 0.62499 0.11417 0.91315 0.0
H3206 H 0.66159 0.09858 0.9042 0.0
H3207 H 0.75171 0.10274 0.83427 0.0
H3208 H 0.72473 0.07542 0.84454 0.0
H3209 H 0.72373 0.11328 0.88496 0.0
H3210 H 0.75058 0.14113 0.87457 0.0
H3211 H 0.68148 0.10147 0.87735 0.0
H3212 H 0.75227 0.0622 0.88215 0.0
H3213 H 0.78942 0.04654 0.87434 0.0
H3214 H 0.75563 0.00334 0.84319 0.0
H3215 H 0.71827 0.01899 0.85066 0.0
C3216 C 0.63707 0.01055 0.90874 0.0
C3217 C 0.6242 0.9961 0.89962 0.0
C3218 C 0.65245 0.02626 0.9028 0.0
C3219 C 0.6556 0.02756 0.88766 0.0
C3220 C 0.6431 0.01292 0.87849 0.0
C3221 C 0.62727 0.9975 0.88442 0.0
C3222 C 0.67206 0.04424 0.88153 0.0
C3223 C 0.69297 0.03622 0.87612 0.0
C3224 C 0.66796 0.06804 0.88213 0.0
C3225 C 0.646 0.0774 0.88755 0.0
C3226 C 0.6252 0.07081 0.8811 0.0
C3227 C 0.60455 0.07967 0.88627 0.0
C3228 C 0.60448 0.09526 0.89783 0.0
C3229 C 0.62507 0.10206 0.90422 0.0
C3230 C 0.64578 0.09323 0.89909 0.0
C3231 C 0.74589 0.10525 0.84538 0.0
C3232 C 0.75339 0.12409 0.85363 0.0
C3233 C 0.73049 0.08951 0.85127 0.0
C3234 C 0.72238 0.09207 0.8656 0.0
C3235 C 0.72979 0.11091 0.87388 0.0
C3236 C 0.7452 0.12676 0.86797 0.0
C3237 C 0.70583 0.07528 0.87173 0.0
C3238 C 0.6849 0.08325 0.87724 0.0
C3239 C 0.71005 0.05142 0.87141 0.0
C3240 C 0.73248 0.04194 0.86687 0.0
C3241 C 0.75277 0.0495 0.87354 0.0
C3242 C 0.77386 0.0406 0.8692 0.0
C3243 C 0.77489 0.024 0.85825 0.0
C3244 C 0.75481 0.01622 0.85166 0.0
C3245 C 0.73366 0.02509 0.85595 0.0
H3246 H 0.79124 0.01712 0.85491 0.0
H3247 H 0.58847 0.10211 0.90181 0.0
H3248 H 0.74285 0.63707 0.87352 0.0
H3249 H 0.76992 0.60892 0.8832 0.0
H3250 H 0.78446 0.58602 0.83936 0.0
H3251 H 0.75682 0.61331 0.82977 0.0
H3252 H 0.78164 0.55088 0.85563 0.0
H3253 H 0.82153 0.62216 0.8601 0.0
H3254 H 0.82734 0.6621 0.86786 0.0
H3255 H 0.82181 0.64191 0.91281 0.0
H3256 H 0.81567 0.60188 0.9053 0.0
H3257 H 0.88745 0.49333 0.87307 0.0
H3258 H 0.8595 0.5206 0.86313 0.0
H3259 H 0.83327 0.53249 0.90646 0.0
H3260 H 0.86068 0.50514 0.91639 0.0
H3261 H 0.84269 0.57303 0.89042 0.0
H3262 H 0.80311 0.50136 0.88522 0.0
H3263 H 0.79698 0.46177 0.87687 0.0
H3264 H 0.80325 0.48342 0.83225 0.0
H3265 H 0.8098 0.52311 0.84034 0.0
C3266 C 0.75179 0.62596 0.86598 0.0
C3267 C 0.74769 0.62742 0.85089 0.0
C3268 C 0.76739 0.60997 0.8715 0.0
C3269 C 0.77961 0.59551 0.86201 0.0
C3270 C 0.77532 0.5969 0.84695 0.0
C3271 C 0.75949 0.61257 0.84146 0.0
C3272 C 0.79668 0.57875 0.86766 0.0
C3273 C 0.79519 0.55587 0.86306 0.0
C3274 C 0.8142 0.58502 0.87759 0.0
C3275 C 0.81792 0.60907 0.88213 0.0
C3276 C 0.82139 0.62627 0.87163 0.0
C3277 C 0.82477 0.64892 0.87599 0.0
C3278 C 0.82488 0.65455 0.89082 0.0
C3279 C 0.82168 0.63753 0.90132 0.0
C3280 C 0.81827 0.61486 0.89703 0.0
C3281 C 0.87564 0.50169 0.88044 0.0
C3282 C 0.87623 0.49703 0.8955 0.0
C3283 C 0.85969 0.51722 0.87476 0.0
C3284 C 0.84431 0.52855 0.88408 0.0
C3285 C 0.84499 0.52398 0.89909 0.0
C3286 C 0.86062 0.50824 0.90473 0.0
C3287 C 0.82761 0.54538 0.87829 0.0
C3288 C 0.82919 0.56819 0.88291 0.0
C3289 C 0.81037 0.53913 0.86825 0.0
C3290 C 0.8072 0.51516 0.86339 0.0
C3291 C 0.80351 0.49763 0.87363 0.0
C3292 C 0.79988 0.47519 0.86895 0.0
C3293 C 0.79972 0.4701 0.85405 0.0
C3294 C 0.80338 0.4874 0.84379 0.0
C3295 C 0.80705 0.50987 0.84842 0.0
H3296 H 0.79658 0.45279 0.85044 0.0
H3297 H 0.8275 0.67209 0.89417 0.0
H3298 H 0.74919 0.60578 0.1679 0.0
H3299 H 0.72199 0.57793 0.15842 0.0
H3300 H 0.72407 0.61081 0.11627 0.0
H3301 H 0.75098 0.63921 0.12585 0.0
H3302 H 0.68155 0.60144 0.12319 0.0
H3303 H 0.751 0.55888 0.12281 0.0
H3304 H 0.7867 0.54274 0.1327 0.0
H3305 H 0.74843 0.50506 0.16466 0.0
H3306 H 0.7125 0.52124 0.15509 0.0
H3307 H 0.63402 0.50884 0.08244 0.0
H3308 H 0.6614 0.53592 0.09278 0.0
H3309 H 0.64209 0.5152 0.13623 0.0
H3310 H 0.61404 0.48831 0.12593 0.0
H3311 H 0.69281 0.51785 0.12889 0.0
H3312 H 0.62295 0.56146 0.12822 0.0
H3313 H 0.5881 0.57714 0.11689 0.0
H3314 H 0.62884 0.6123 0.08501 0.0
H3315 H 0.66395 0.59652 0.09602 0.0
C3316 C 0.74401 0.60704 0.15658 0.0
C3317 C 0.75233 0.62469 0.14761 0.0
C3318 C 0.72849 0.591 0.15115 0.0
C3319 C 0.72115 0.59203 0.13656 0.0
C3320 C 0.72949 0.60962 0.12755 0.0
C3321 C 0.74494 0.62579 0.13302 0.0
C3322 C 0.70433 0.57511 0.13088 0.0
C3323 C 0.68421 0.58318 0.12428 0.0
C3324 C 0.7075 0.55122 0.13252 0.0
C3325 C 0.72907 0.54146 0.13832 0.0
C3326 C 0.7502 0.5473 0.13203 0.0
C3327 C 0.77048 0.53812 0.13756 0.0
C3328 C 0.76984 0.52293 0.14933 0.0
C3329 C 0.7489 0.51685 0.15556 0.0
C3330 C 0.72857 0.52601 0.15008 0.0
C3331 C 0.63559 0.50997 0.09421 0.0
C3332 C 0.62188 0.49644 0.10339 0.0
C3333 C 0.65121 0.5255 0.10008 0.0
C3334 C 0.6537 0.52757 0.11524 0.0
C3335 C 0.64037 0.51382 0.12449 0.0
C3336 C 0.62435 0.49855 0.1186 0.0
C3337 C 0.67021 0.54428 0.1213 0.0
C3338 C 0.69024 0.53615 0.12789 0.0
C3339 C 0.66713 0.56807 0.11949 0.0
C3340 C 0.64606 0.5776 0.11285 0.0
C3341 C 0.62447 0.57234 0.1187 0.0
C3342 C 0.60467 0.58129 0.11236 0.0
C3343 C 0.60625 0.59565 0.10021 0.0
C3344 C 0.62764 0.60114 0.0944 0.0
C3345 C 0.6475 0.59221 0.1007 0.0
H3346 H 0.59091 0.60257 0.09532 0.0
H3347 H 0.78555 0.51584 0.1536 0.0
H3348 H 0.7582 0.39845 0.33577 0.0
H3349 H 0.73093 0.42596 0.34558 0.0
H3350 H 0.71988 0.38256 0.38301 0.0
H3351 H 0.74768 0.35508 0.37337 0.0
H3352 H 0.68737 0.42293 0.35045 0.0
H3353 H 0.70562 0.41541 0.41251 0.0
H3354 H 0.73796 0.40722 0.42899 0.0
H3355 H 0.78516 0.43023 0.39623 0.0
H3356 H 0.75311 0.43884 0.37965 0.0
H3357 H 0.59842 0.48177 0.38772 0.0
H3358 H 0.62577 0.45349 0.37862 0.0
H3359 H 0.68145 0.49461 0.39505 0.0
H3360 H 0.65394 0.52171 0.40522 0.0
H3361 H 0.69172 0.45485 0.40052 0.0
H3362 H 0.66354 0.48929 0.3561 0.0
H3363 H 0.6341 0.50134 0.33841 0.0
H3364 H 0.61225 0.4317 0.33353 0.0
H3365 H 0.64139 0.41928 0.35131 0.0
C3366 C 0.75013 0.39481 0.34616 0.0
C3367 C 0.75516 0.37459 0.35381 0.0
C3368 C 0.73443 0.41053 0.35172 0.0
C3369 C 0.72334 0.40643 0.36506 0.0
C3370 C 0.72842 0.38629 0.37279 0.0
C3371 C 0.74429 0.37057 0.36726 0.0
C3372 C 0.70624 0.42313 0.37064 0.0
C3373 C 0.68833 0.42993 0.3614 0.0
C3374 C 0.70758 0.43254 0.38485 0.0
C3375 C 0.72696 0.42749 0.39478 0.0
C3376 C 0.7229 0.41876 0.40884 0.0
C3377 C 0.74118 0.41405 0.4182 0.0
C3378 C 0.7636 0.41811 0.41364 0.0
C3379 C 0.76779 0.42699 0.39973 0.0
C3380 C 0.74957 0.43176 0.39034 0.0
C3381 C 0.61653 0.48476 0.38925 0.0
C3382 C 0.62416 0.50392 0.39706 0.0
C3383 C 0.63221 0.46866 0.38398 0.0
C3384 C 0.65588 0.47196 0.38585 0.0
C3385 C 0.66338 0.49145 0.39347 0.0
C3386 C 0.64768 0.50707 0.39919 0.0
C3387 C 0.67288 0.45502 0.38025 0.0
C3388 C 0.6907 0.44796 0.38954 0.0
C3389 C 0.67189 0.44596 0.3659 0.0
C3390 C 0.6545 0.4534 0.35512 0.0
C3391 C 0.65237 0.47657 0.3513 0.0
C3392 C 0.63575 0.48346 0.34126 0.0
C3393 C 0.62128 0.4673 0.33488 0.0
C3394 C 0.62345 0.4442 0.33849 0.0
C3395 C 0.64003 0.43723 0.34853 0.0
H3396 H 0.60841 0.47268 0.32711 0.0
H3397 H 0.77773 0.41445 0.4209 0.0
H3398 H 0.85274 0.51281 0.58627 0.0
H3399 H 0.82591 0.48517 0.59663 0.0
H3400 H 0.87351 0.47053 0.63133 0.0
H3401 H 0.90045 0.49842 0.62108 0.0
H3402 H 0.85498 0.43095 0.61815 0.0
H3403 H 0.82943 0.50141 0.63932 0.0
H3404 H 0.81695 0.54165 0.63906 0.0
H3405 H 0.75957 0.52383 0.61215 0.0
H3406 H 0.77191 0.4835 0.61207 0.0
H3407 H 0.75197 0.39815 0.66721 0.0
H3408 H 0.7787 0.42607 0.65729 0.0
H3409 H 0.78434 0.38652 0.6177 0.0
H3410 H 0.75758 0.35821 0.62768 0.0
H3411 H 0.77705 0.45336 0.63401 0.0
H3412 H 0.83961 0.39247 0.60481 0.0
H3413 H 0.85312 0.35261 0.6065 0.0
H3414 H 0.8382 0.35191 0.65241 0.0
H3415 H 0.82489 0.39184 0.65103 0.0
C3416 C 0.85747 0.50383 0.59616 0.0
C3417 C 0.8787 0.50785 0.60289 0.0
C3418 C 0.8421 0.48804 0.60207 0.0
C3419 C 0.84771 0.47581 0.61475 0.0
C3420 C 0.86889 0.47976 0.62151 0.0
C3421 C 0.88418 0.4958 0.6157 0.0
C3422 C 0.83141 0.45888 0.62089 0.0
C3423 C 0.83793 0.43582 0.62161 0.0
C3424 C 0.80924 0.46527 0.6255 0.0
C3425 C 0.80173 0.48948 0.62557 0.0
C3426 C 0.81426 0.50611 0.63324 0.0
C3427 C 0.80719 0.52892 0.63318 0.0
C3428 C 0.78751 0.53531 0.62557 0.0
C3429 C 0.77483 0.51887 0.61803 0.0
C3430 C 0.78184 0.49602 0.61804 0.0
C3431 C 0.75882 0.39535 0.65636 0.0
C3432 C 0.75269 0.37589 0.64825 0.0
C3433 C 0.77408 0.41141 0.65069 0.0
C3434 C 0.7837 0.40835 0.6368 0.0
C3435 C 0.77735 0.38911 0.62853 0.0
C3436 C 0.76199 0.373 0.63421 0.0
C3437 C 0.80048 0.4253 0.63116 0.0
C3438 C 0.79404 0.44841 0.63049 0.0
C3439 C 0.82281 0.41897 0.62676 0.0
C3440 C 0.83103 0.39505 0.62777 0.0
C3441 C 0.83929 0.38382 0.61527 0.0
C3442 C 0.8469 0.36122 0.61618 0.0
C3443 C 0.84644 0.34971 0.62954 0.0
C3444 C 0.83846 0.36081 0.64205 0.0
C3445 C 0.83085 0.38342 0.64121 0.0
H3446 H 0.85232 0.3322 0.63022 0.0
H3447 H 0.78207 0.55298 0.62553 0.0
H3448 H 0.1096 0.50708 0.12377 0.0
H3449 H 0.13746 0.48036 0.13428 0.0
H3450 H 0.16842 0.4717 0.09192 0.0
H3451 H 0.14088 0.49837 0.08139 0.0
H3452 H 0.16005 0.43037 0.10623 0.0
H3453 H 0.19453 0.50375 0.11648 0.0
H3454 H 0.19512 0.54279 0.12662 0.0
H3455 H 0.18292 0.51604 0.16959 0.0
H3456 H 0.18194 0.47685 0.15966 0.0
H3457 H 0.25931 0.3689 0.12686 0.0
H3458 H 0.23269 0.39691 0.11658 0.0
H3459 H 0.21204 0.41638 0.1601 0.0
H3460 H 0.23942 0.38936 0.17034 0.0
H3461 H 0.21455 0.4525 0.14522 0.0
H3462 H 0.17906 0.38007 0.13629 0.0
H3463 H 0.1761 0.34054 0.12714 0.0
H3464 H 0.18699 0.36418 0.08329 0.0
H3465 H 0.1903 0.40384 0.09221 0.0
C3466 C 0.12242 0.49956 0.11673 0.0
C3467 C 0.12306 0.50489 0.10176 0.0
C3468 C 0.13834 0.48433 0.12274 0.0
C3469 C 0.15506 0.47409 0.11388 0.0
C3470 C 0.15566 0.47937 0.09895 0.0
C3471 C 0.13995 0.49471 0.09297 0.0
C3472 C 0.17185 0.45767 0.12005 0.0
C3473 C 0.17216 0.43523 0.11465 0.0
C3474 C 0.18717 0.46385 0.13132 0.0
C3475 C 0.18794 0.48739 0.1373 0.0
C3476 C 0.19179 0.50621 0.12807 0.0
C3477 C 0.19223 0.52836 0.13378 0.0
C3478 C 0.189 0.5319 0.14873 0.0
C3479 C 0.18539 0.51328 0.158 0.0
C3480 C 0.18491 0.49109 0.15234 0.0
C3481 C 0.24913 0.37924 0.1342 0.0
C3482 C 0.25143 0.37691 0.1494 0.0
C3483 C 0.23378 0.39515 0.12833 0.0
C3484 C 0.21992 0.40856 0.13753 0.0
C3485 C 0.22245 0.40633 0.15272 0.0
C3486 C 0.23812 0.39081 0.15858 0.0
C3487 C 0.20286 0.42497 0.13144 0.0
C3488 C 0.20246 0.44748 0.13684 0.0
C3489 C 0.18715 0.41871 0.12034 0.0
C3490 C 0.18516 0.39489 0.11494 0.0
C3491 C 0.18099 0.37682 0.12471 0.0
C3492 C 0.17922 0.3544 0.11956 0.0
C3493 C 0.18142 0.34985 0.10465 0.0
C3494 C 0.18533 0.36773 0.09485 0.0
C3495 C 0.18714 0.39018 0.09994 0.0
H3496 H 0.18005 0.33248 0.10069 0.0
H3497 H 0.18934 0.54906 0.15313 0.0
H3498 H 0.39442 0.5019 0.8759 0.0
H3499 H 0.36728 0.47384 0.86607 0.0
H3500 H 0.3319 0.47247 0.90737 0.0
H3501 H 0.35879 0.50034 0.91723 0.0
H3502 H 0.33977 0.42926 0.89653 0.0
H3503 H 0.30968 0.50135 0.87905 0.0
H3504 H 0.31207 0.53816 0.86601 0.0
H3505 H 0.32852 0.50301 0.82622 0.0
H3506 H 0.32653 0.466 0.83907 0.0
H3507 H 0.24024 0.3679 0.8752 0.0
H3508 H 0.26743 0.39585 0.885 0.0
H3509 H 0.29331 0.40789 0.8415 0.0
H3510 H 0.26524 0.38124 0.83168 0.0
H3511 H 0.29101 0.44584 0.85354 0.0
H3512 H 0.32207 0.37425 0.86972 0.0
H3513 H 0.32202 0.33674 0.88201 0.0
H3514 H 0.30695 0.36918 0.92295 0.0
H3515 H 0.30664 0.40686 0.91087 0.0
C3516 C 0.3808 0.49568 0.88285 0.0
C3517 C 0.37873 0.50341 0.89732 0.0
C3518 C 0.36529 0.47967 0.87722 0.0
C3519 C 0.3475 0.47111 0.88598 0.0
C3520 C 0.3455 0.47878 0.90043 0.0
C3521 C 0.36086 0.49482 0.90602 0.0
C3522 C 0.33089 0.45415 0.88019 0.0
C3523 C 0.32892 0.43292 0.88721 0.0
C3524 C 0.3172 0.4587 0.8678 0.0
C3525 C 0.31816 0.48094 0.86005 0.0
C3526 C 0.31396 0.50149 0.86754 0.0
C3527 C 0.31522 0.52239 0.86018 0.0
C3528 C 0.3205 0.52293 0.8453 0.0
C3529 C 0.32446 0.50257 0.83774 0.0
C3530 C 0.32325 0.48163 0.84506 0.0
C3531 C 0.25176 0.37657 0.86778 0.0
C3532 C 0.25061 0.37245 0.8527 0.0
C3533 C 0.26745 0.39243 0.87338 0.0
C3534 C 0.28284 0.40384 0.86405 0.0
C3535 C 0.28167 0.3995 0.84898 0.0
C3536 C 0.26562 0.38418 0.84336 0.0
C3537 C 0.29984 0.42064 0.8698 0.0
C3538 C 0.30187 0.44197 0.86281 0.0
C3539 C 0.3139 0.41598 0.88206 0.0
C3540 C 0.31411 0.39335 0.88936 0.0
C3541 C 0.31859 0.37336 0.88132 0.0
C3542 C 0.31865 0.35207 0.88826 0.0
C3543 C 0.31442 0.35057 0.90324 0.0
C3544 C 0.31019 0.37036 0.91134 0.0
C3545 C 0.31009 0.39169 0.90446 0.0
H3546 H 0.31447 0.33407 0.90859 0.0
H3547 H 0.32147 0.53912 0.83963 0.0
H3548 H 0.35251 0.48376 0.59281 0.0
H3549 H 0.32503 0.51164 0.60208 0.0
H3550 H 0.37845 0.54359 0.62742 0.0
H3551 H 0.40556 0.51464 0.61891 0.0
H3552 H 0.34341 0.54584 0.64244 0.0
H3553 H 0.35711 0.56532 0.59285 0.0
H3554 H 0.36028 0.55934 0.56627 0.0
H3555 H 0.28897 0.54243 0.5641 0.0
H3556 H 0.28543 0.54802 0.59071 0.0
H3557 H 0.26225 0.65076 0.62885 0.0
H3558 H 0.29094 0.62392 0.61949 0.0
H3559 H 0.26984 0.57411 0.65153 0.0
H3560 H 0.24193 0.60107 0.66121 0.0
H3561 H 0.29153 0.58438 0.60737 0.0
H3562 H 0.31347 0.54297 0.6637 0.0
H3563 H 0.31526 0.55428 0.68963 0.0
H3564 H 0.324 0.62446 0.67714 0.0
H3565 H 0.3226 0.61354 0.65115 0.0
C3566 C 0.35828 0.49659 0.6005 0.0
C3567 C 0.38114 0.49709 0.60513 0.0
C3568 C 0.34262 0.51271 0.60568 0.0
C3569 C 0.34969 0.53027 0.61515 0.0
C3570 C 0.37246 0.53035 0.62009 0.0
C3571 C 0.38798 0.51379 0.61524 0.0
C3572 C 0.3334 0.54852 0.61985 0.0
C3573 C 0.33212 0.55424 0.63473 0.0
C3574 C 0.31905 0.56018 0.60981 0.0
C3575 C 0.32106 0.55691 0.59379 0.0
C3576 C 0.34214 0.5602 0.58672 0.0
C3577 C 0.344 0.55689 0.57164 0.0
C3578 C 0.32485 0.55046 0.5635 0.0
C3579 C 0.30379 0.54739 0.57042 0.0
C3580 C 0.30184 0.55065 0.58549 0.0
C3581 C 0.26367 0.63402 0.63381 0.0
C3582 C 0.25 0.6281 0.64585 0.0
C3583 C 0.28007 0.61868 0.62847 0.0
C3584 C 0.28296 0.59711 0.635 0.0
C3585 C 0.26847 0.59084 0.64655 0.0
C3586 C 0.25238 0.60624 0.65203 0.0
C3587 C 0.30124 0.58121 0.62995 0.0
C3588 C 0.30289 0.57598 0.61503 0.0
C3589 C 0.31667 0.57076 0.63985 0.0
C3590 C 0.31769 0.57744 0.65548 0.0
C3591 C 0.31586 0.5608 0.66649 0.0
C3592 C 0.31679 0.56715 0.6812 0.0
C3593 C 0.31967 0.59008 0.68503 0.0
C3594 C 0.32169 0.60672 0.67416 0.0
C3595 C 0.3208 0.60046 0.65944 0.0
H3596 H 0.32037 0.59496 0.69642 0.0
H3597 H 0.32633 0.5479 0.55184 0.0
H3598 H 0.10899 0.50267 0.37695 0.0
H3599 H 0.13734 0.52931 0.36699 0.0
H3600 H 0.17818 0.52157 0.40588 0.0
H3601 H 0.15006 0.49493 0.41585 0.0
H3602 H 0.152 0.57054 0.37746 0.0
H3603 H 0.2346 0.52519 0.39627 0.0
H3604 H 0.2484 0.48615 0.40134 0.0
H3605 H 0.199 0.45875 0.37141 0.0
H3606 H 0.18514 0.49764 0.36601 0.0
H3607 H 0.24769 0.64593 0.37131 0.0
H3608 H 0.22073 0.61779 0.38123 0.0
H3609 H 0.23535 0.57258 0.34524 0.0
H3610 H 0.26214 0.60054 0.33526 0.0
H3611 H 0.23363 0.54965 0.37139 0.0
H3612 H 0.18817 0.6036 0.3444 0.0
H3613 H 0.17385 0.64191 0.33792 0.0
H3614 H 0.14794 0.65065 0.38144 0.0
H3615 H 0.16242 0.61249 0.38823 0.0
C3616 C 0.1241 0.50651 0.38333 0.0
C3617 C 0.1273 0.49662 0.39717 0.0
C3618 C 0.14022 0.52183 0.37766 0.0
C3619 C 0.15994 0.52736 0.38566 0.0
C3620 C 0.16323 0.51738 0.39944 0.0
C3621 C 0.1471 0.50217 0.40513 0.0
C3622 C 0.17698 0.54374 0.37969 0.0
C3623 C 0.16985 0.56597 0.37616 0.0
C3624 C 0.20026 0.53776 0.37787 0.0
C3625 C 0.20869 0.51432 0.38085 0.0
C3626 C 0.22675 0.51084 0.39073 0.0
C3627 C 0.23458 0.48874 0.39367 0.0
C3628 C 0.22454 0.46998 0.38674 0.0
C3629 C 0.20671 0.47329 0.37681 0.0
C3630 C 0.19884 0.49535 0.37382 0.0
C3631 C 0.24529 0.62991 0.36559 0.0
C3632 C 0.25698 0.6255 0.35248 0.0
C3633 C 0.22982 0.6139 0.37123 0.0
C3634 C 0.2259 0.59315 0.36391 0.0
C3635 C 0.2381 0.58846 0.35107 0.0
C3636 C 0.25336 0.60451 0.34536 0.0
C3637 C 0.20869 0.57651 0.36935 0.0
C3638 C 0.21581 0.55424 0.37279 0.0
C3639 C 0.18536 0.58238 0.37093 0.0
C3640 C 0.17659 0.60529 0.36686 0.0
C3641 C 0.17959 0.61377 0.35262 0.0
C3642 C 0.17142 0.63544 0.34889 0.0
C3643 C 0.16005 0.64873 0.35927 0.0
C3644 C 0.15679 0.64035 0.37341 0.0
C3645 C 0.16496 0.6187 0.37721 0.0
H3646 H 0.15372 0.6655 0.35636 0.0
H3647 H 0.2306 0.45288 0.38904 0.0
loop_
_geom_bond_atom_site_label_1
_geom_bond_atom_site_label_2
_geom_bond_distance
_geom_bond_site_symmetry_2
_ccdc_geom_bond_type
Co0 O1 2.216 . S
Co0 O2 2.091 . S
Co0 O4 2.004 . S
Co0 O10 2.021 . S
Co0 O12 2.137 . S
Co0 O13 2.244 . S
O1 Co0 2.216 . S
O1 C8 1.247 . S
O2 Co0 2.091 . S
O2 C8 1.261 . S
C3 O12 1.247 . S
C3 O13 1.272 . S
O4 Co0 2.004 . S
O4 C9 1.259 . S
Co5 O6 2.061 . S
Co5 O11 2.052 . S
Co5 O13 2.135 . S
O6 Co5 2.061 . S
O6 C9 1.235 . S
C7 O10 1.238 . S
C7 O11 1.241 . S
C8 O1 1.247 . S
C8 O2 1.261 . S
C9 O4 1.259 . S
C9 O6 1.235 . S
O10 Co0 2.021 . S
O10 C7 1.238 . S
O11 Co5 2.052 . S
O11 C7 1.241 . S
O12 Co0 2.137 . S
O12 C3 1.247 . S
O13 Co0 2.244 . S
O13 C3 1.272 . S
O13 Co5 2.135 . S
Co14 O15 2.216 . S
Co14 O16 2.091 . S
Co14 O18 2.004 . S
Co14 O24 2.021 . S
Co14 O26 2.137 . S
Co14 O27 2.244 . S
O15 Co14 2.216 . S
O15 C22 1.239 1_565 S
O16 Co14 2.091 . S
O16 C22 1.260 1_565 S
C17 O26 1.247 . S
C17 O27 1.272 . S
O18 Co14 2.004 . S
O18 C23 1.259 . S
Co19 O20 2.061 . S
Co19 O25 2.052 . S
Co19 O27 2.135 . S
O20 Co19 2.061 . S
O20 C23 1.235 . S
C21 O24 1.238 . S
C21 O25 1.241 . S
C22 O15 1.239 1_545 S
C22 O16 1.260 1_545 S
C23 O18 1.259 . S
C23 O20 1.235 . S
O24 Co14 2.021 . S
O24 C21 1.238 . S
O25 Co19 2.052 . S
O25 C21 1.241 . S
O26 Co14 2.137 . S
O26 C17 1.247 . S
O27 Co14 2.244 . S
O27 C17 1.272 . S
O27 Co19 2.135 . S
Co28 O29 2.216 . S
Co28 O30 2.091 . S
Co28 O32 2.004 . S
Co28 O38 2.021 . S
Co28 O40 2.137 . S
Co28 O41 2.244 . S
O29 Co28 2.216 . S
O29 C36 1.247 . S
O30 Co28 2.091 . S
O30 C36 1.261 . S
C31 O40 1.247 . S
C31 O41 1.272 . S
O32 Co28 2.004 . S
O32 C37 1.259 . S
Co33 O34 2.061 . S
Co33 O39 2.052 . S
Co33 O41 2.135 . S
O34 Co33 2.061 . S
O34 C37 1.235 . S
C35 O38 1.238 . S
C35 O39 1.241 . S
C36 O29 1.247 . S
C36 O30 1.261 . S
C37 O32 1.259 . S
C37 O34 1.235 . S
O38 Co28 2.021 . S
O38 C35 1.238 . S
O39 Co33 2.052 . S
O39 C35 1.241 . S
O40 Co28 2.137 . S
O40 C31 1.247 . S
O41 Co28 2.244 . S
O41 C31 1.272 . S
O41 Co33 2.135 . S
Co42 O43 2.216 . S
Co42 O44 2.091 . S
Co42 O46 2.004 . S
Co42 O52 2.021 . S
Co42 O54 2.137 . S
Co42 O55 2.244 . S
O43 Co42 2.216 . S
O43 C50 1.239 1_545 S
O44 Co42 2.091 . S
O44 C50 1.260 1_545 S
C45 O54 1.247 . S
C45 O55 1.272 . S
O46 Co42 2.004 . S
O46 C51 1.259 . S
Co47 O48 2.061 . S
Co47 O53 2.052 . S
Co47 O55 2.135 . S
O48 Co47 2.061 . S
O48 C51 1.235 . S
C49 O52 1.238 . S
C49 O53 1.241 . S
C50 O43 1.239 1_565 S
C50 O44 1.260 1_565 S
C51 O46 1.259 . S
C51 O48 1.235 . S
O52 Co42 2.021 . S
O52 C49 1.238 . S
O53 Co47 2.052 . S
O53 C49 1.241 . S
O54 Co42 2.137 . S
O54 C45 1.247 . S
O55 Co42 2.244 . S
O55 C45 1.272 . S
O55 Co47 2.135 . S
Co56 O57 2.216 . S
Co56 O58 2.091 . S
Co56 O60 2.004 . S
Co56 O66 2.021 . S
Co56 O68 2.137 . S
Co56 O69 2.244 . S
O57 Co56 2.216 . S
O57 C64 1.247 . S
O58 Co56 2.091 . S
O58 C64 1.261 . S
C59 O68 1.247 . S
C59 O69 1.272 . S
O60 Co56 2.004 . S
O60 C65 1.259 . S
Co61 O62 2.061 . S
Co61 O67 2.052 . S
Co61 O69 2.135 . S
O62 Co61 2.061 . S
O62 C65 1.235 . S
C63 O66 1.238 . S
C63 O67 1.241 . S
C64 O57 1.247 . S
C64 O58 1.261 . S
C65 O60 1.259 . S
C65 O62 1.235 . S
O66 Co56 2.021 . S
O66 C63 1.238 . S
O67 Co61 2.052 . S
O67 C63 1.241 . S
O68 Co56 2.137 . S
O68 C59 1.247 . S
O69 Co56 2.244 . S
O69 C59 1.272 . S
O69 Co61 2.135 . S
Co70 O71 2.216 . S
Co70 O72 2.091 . S
Co70 O74 2.004 . S
Co70 O80 2.021 . S
Co70 O82 2.137 . S
Co70 O83 2.244 . S
O71 Co70 2.216 . S
O71 C78 1.239 1_565 S
O72 Co70 2.091 . S
O72 C78 1.260 1_565 S
C73 O82 1.247 . S
C73 O83 1.272 . S
O74 Co70 2.004 . S
O74 C79 1.259 . S
Co75 O76 2.061 . S
Co75 O81 2.052 . S
Co75 O83 2.135 . S
O76 Co75 2.061 . S
O76 C79 1.235 . S
C77 O80 1.238 . S
C77 O81 1.241 . S
C78 O71 1.239 1_545 S
C78 O72 1.260 1_545 S
C79 O74 1.259 . S
C79 O76 1.235 . S
O80 Co70 2.021 . S
O80 C77 1.238 . S
O81 Co75 2.052 . S
O81 C77 1.241 . S
O82 Co70 2.137 . S
O82 C73 1.247 . S
O83 Co70 2.244 . S
O83 C73 1.272 . S
O83 Co75 2.135 . S
Co84 O85 2.216 . S
Co84 O86 2.091 . S
Co84 O88 2.004 . S
Co84 O94 2.021 . S
Co84 O96 2.137 . S
Co84 O97 2.244 . S
O85 Co84 2.216 . S
O85 C92 1.247 . S
O86 Co84 2.091 . S
O86 C92 1.261 . S
C87 O96 1.247 . S
C87 O97 1.272 . S
O88 Co84 2.004 . S
O88 C93 1.259 . S
Co89 O90 2.061 . S
Co89 O95 2.052 . S
Co89 O97 2.135 . S
O90 Co89 2.061 . S
O90 C93 1.235 . S
C91 O94 1.238 . S
C91 O95 1.241 . S
C92 O85 1.247 . S
C92 O86 1.261 . S
C93 O88 1.259 . S
C93 O90 1.235 . S
O94 Co84 2.021 . S
O94 C91 1.238 . S
O95 Co89 2.052 . S
O95 C91 1.241 . S
O96 Co84 2.137 . S
O96 C87 1.247 . S
O97 Co84 2.244 . S
O97 C87 1.272 . S
O97 Co89 2.135 . S
Co98 O99 2.216 . S
Co98 O100 2.091 . S
Co98 O102 2.004 . S
Co98 O108 2.021 . S
Co98 O110 2.137 . S
Co98 O111 2.244 . S
O99 Co98 2.216 . S
O99 C106 1.239 1_545 S
O100 Co98 2.091 . S
O100 C106 1.260 1_545 S
C101 O110 1.247 . S
C101 O111 1.272 . S
O102 Co98 2.004 . S
O102 C107 1.259 . S
Co103 O104 2.061 . S
Co103 O109 2.052 . S
Co103 O111 2.135 . S
O104 Co103 2.061 . S
O104 C107 1.235 . S
C105 O108 1.238 . S
C105 O109 1.241 . S
C106 O99 1.239 1_565 S
C106 O100 1.260 1_565 S
C107 O102 1.259 . S
C107 O104 1.235 . S
O108 Co98 2.021 . S
O108 C105 1.238 . S
O109 Co103 2.052 . S
O109 C105 1.241 . S
O110 Co98 2.137 . S
O110 C101 1.247 . S
O111 Co98 2.244 . S
O111 C101 1.272 . S
O111 Co103 2.135 . S
Co112 O113 2.216 . S
Co112 O114 2.091 . S
Co112 O116 2.004 . S
Co112 O122 2.021 . S
Co112 O124 2.137 . S
Co112 O125 2.244 . S
O113 Co112 2.216 . S
O113 C120 1.247 . S
O114 Co112 2.091 . S
O114 C120 1.261 . S
C115 O124 1.247 . S
C115 O125 1.272 . S
O116 Co112 2.004 . S
O116 C121 1.259 . S
Co117 O118 2.061 . S
Co117 O123 2.052 . S
Co117 O125 2.135 . S
O118 Co117 2.061 . S
O118 C121 1.235 . S
C119 O122 1.238 . S
C119 O123 1.241 . S
C120 O113 1.247 . S
C120 O114 1.261 . S
C121 O116 1.259 . S
C121 O118 1.235 . S
O122 Co112 2.021 . S
O122 C119 1.238 . S
O123 Co117 2.052 . S
O123 C119 1.241 . S
O124 Co112 2.137 . S
O124 C115 1.247 . S
O125 Co112 2.244 . S
O125 C115 1.272 . S
O125 Co117 2.135 . S
Co126 O127 2.216 . S
Co126 O128 2.091 . S
Co126 O130 2.004 . S
Co126 O136 2.021 . S
Co126 O138 2.137 . S
Co126 O139 2.244 . S
O127 Co126 2.216 . S
O127 C134 1.239 1_545 S
O128 Co126 2.091 . S
O128 C134 1.260 1_545 S
C129 O138 1.247 . S
C129 O139 1.272 . S
O130 Co126 2.004 . S
O130 C135 1.259 . S
Co131 O132 2.061 . S
Co131 O137 2.052 . S
Co131 O139 2.135 . S
O132 Co131 2.061 . S
O132 C135 1.235 . S
C133 O136 1.238 . S
C133 O137 1.241 . S
C134 O127 1.239 1_565 S
C134 O128 1.260 1_565 S
C135 O130 1.259 . S
C135 O132 1.235 . S
O136 Co126 2.021 . S
O136 C133 1.238 . S
O137 Co131 2.052 . S
O137 C133 1.241 . S
O138 Co126 2.137 . S
O138 C129 1.247 . S
O139 Co126 2.244 . S
O139 C129 1.272 . S
O139 Co131 2.135 . S
Co140 O141 2.216 . S
Co140 O142 2.091 . S
Co140 O144 2.004 . S
Co140 O150 2.021 . S
Co140 O152 2.137 . S
Co140 O153 2.244 . S
O141 Co140 2.216 . S
O141 C148 1.247 . S
O142 Co140 2.091 . S
O142 C148 1.261 . S
C143 O152 1.247 . S
C143 O153 1.272 . S
O144 Co140 2.004 . S
O144 C149 1.259 . S
Co145 O146 2.061 . S
Co145 O151 2.052 . S
Co145 O153 2.135 . S
O146 Co145 2.061 . S
O146 C149 1.235 . S
C147 O150 1.238 . S
C147 O151 1.241 . S
C148 O141 1.247 . S
C148 O142 1.261 . S
C149 O144 1.259 . S
C149 O146 1.235 . S
O150 Co140 2.021 . S
O150 C147 1.238 . S
O151 Co145 2.052 . S
O151 C147 1.241 . S
O152 Co140 2.137 . S
O152 C143 1.247 . S
O153 Co140 2.244 . S
O153 C143 1.272 . S
O153 Co145 2.135 . S
Co154 O155 2.216 . S
Co154 O156 2.091 . S
Co154 O158 2.004 . S
Co154 O164 2.021 . S
Co154 O166 2.137 . S
Co154 O167 2.244 . S
O155 Co154 2.216 . S
O155 C162 1.239 1_565 S
O156 Co154 2.091 . S
O156 C162 1.260 1_565 S
C157 O166 1.247 . S
C157 O167 1.272 . S
O158 Co154 2.004 . S
O158 C163 1.259 . S
Co159 O160 2.061 . S
Co159 O165 2.052 . S
Co159 O167 2.135 . S
O160 Co159 2.061 . S
O160 C163 1.235 . S
C161 O164 1.238 . S
C161 O165 1.241 . S
C162 O155 1.239 1_545 S
C162 O156 1.260 1_545 S
C163 O158 1.259 . S
C163 O160 1.235 . S
O164 Co154 2.021 . S
O164 C161 1.238 . S
O165 Co159 2.052 . S
O165 C161 1.241 . S
O166 Co154 2.137 . S
O166 C157 1.247 . S
O167 Co154 2.244 . S
O167 C157 1.272 . S
O167 Co159 2.135 . S
Co168 O169 2.216 . S
Co168 O170 2.091 . S
Co168 O172 2.004 . S
Co168 O178 2.021 . S
Co168 O180 2.137 . S
Co168 O181 2.244 . S
O169 Co168 2.216 . S
O169 C176 1.247 . S
O170 Co168 2.091 . S
O170 C176 1.261 . S
C171 O180 1.247 . S
C171 O181 1.272 . S
O172 Co168 2.004 . S
O172 C177 1.259 . S
Co173 O174 2.061 . S
Co173 O179 2.052 . S
Co173 O181 2.135 . S
O174 Co173 2.061 . S
O174 C177 1.235 . S
C175 O178 1.238 . S
C175 O179 1.241 . S
C176 O169 1.247 . S
C176 O170 1.261 . S
C177 O172 1.259 . S
C177 O174 1.235 . S
O178 Co168 2.021 . S
O178 C175 1.238 . S
O179 Co173 2.052 . S
O179 C175 1.241 . S
O180 Co168 2.137 . S
O180 C171 1.247 . S
O181 Co168 2.244 . S
O181 C171 1.272 . S
O181 Co173 2.135 . S
Co182 O183 2.216 . S
Co182 O184 2.091 . S
Co182 O186 2.004 . S
Co182 O192 2.021 . S
Co182 O194 2.137 . S
Co182 O195 2.244 . S
O183 Co182 2.216 . S
O183 C190 1.239 1_545 S
O184 Co182 2.091 . S
O184 C190 1.260 1_545 S
C185 O194 1.247 . S
C185 O195 1.272 . S
O186 Co182 2.004 . S
O186 C191 1.259 . S
Co187 O188 2.061 . S
Co187 O193 2.052 . S
Co187 O195 2.135 . S
O188 Co187 2.061 . S
O188 C191 1.235 . S
C189 O192 1.238 . S
C189 O193 1.241 . S
C190 O183 1.239 1_565 S
C190 O184 1.260 1_565 S
C191 O186 1.259 . S
C191 O188 1.235 . S
O192 Co182 2.021 . S
O192 C189 1.238 . S
O193 Co187 2.052 . S
O193 C189 1.241 . S
O194 Co182 2.137 . S
O194 C185 1.247 . S
O195 Co182 2.244 . S
O195 C185 1.272 . S
O195 Co187 2.135 . S
Co196 O197 2.216 . S
Co196 O198 2.091 . S
Co196 O200 2.004 . S
Co196 O206 2.021 . S
Co196 O208 2.137 . S
Co196 O209 2.244 . S
O197 Co196 2.216 . S
O197 C204 1.247 . S
O198 Co196 2.091 . S
O198 C204 1.261 . S
C199 O208 1.247 . S
C199 O209 1.272 . S
O200 Co196 2.004 . S
O200 C205 1.259 . S
Co201 O202 2.061 . S
Co201 O207 2.052 . S
Co201 O209 2.135 . S
O202 Co201 2.061 . S
O202 C205 1.235 . S
C203 O206 1.238 . S
C203 O207 1.241 . S
C204 O197 1.247 . S
C204 O198 1.261 . S
C205 O200 1.259 . S
C205 O202 1.235 . S
O206 Co196 2.021 . S
O206 C203 1.238 . S
O207 Co201 2.052 . S
O207 C203 1.241 . S
O208 Co196 2.137 . S
O208 C199 1.247 . S
O209 Co196 2.244 . S
O209 C199 1.272 . S
O209 Co201 2.135 . S
Co210 O211 2.216 . S
Co210 O212 2.091 . S
Co210 O214 2.004 . S
Co210 O220 2.021 . S
Co210 O222 2.137 . S
Co210 O223 2.244 . S
O211 Co210 2.216 . S
O211 C218 1.239 1_565 S
O212 Co210 2.091 . S
O212 C218 1.260 1_565 S
C213 O222 1.247 . S
C213 O223 1.272 . S
O214 Co210 2.004 . S
O214 C219 1.259 . S
Co215 O216 2.061 . S
Co215 O221 2.052 . S
Co215 O223 2.135 . S
O216 Co215 2.061 . S
O216 C219 1.235 . S
C217 O220 1.238 . S
C217 O221 1.241 . S
C218 O211 1.239 1_545 S
C218 O212 1.260 1_545 S
C219 O214 1.259 . S
C219 O216 1.235 . S
O220 Co210 2.021 . S
O220 C217 1.238 . S
O221 Co215 2.052 . S
O221 C217 1.241 . S
O222 Co210 2.137 . S
O222 C213 1.247 . S
O223 Co210 2.244 . S
O223 C213 1.272 . S
O223 Co215 2.135 . S
Co224 O225 2.216 . S
Co224 O226 2.091 . S
Co224 O228 2.004 . S
Co224 O234 2.021 . S
Co224 O236 2.137 . S
Co224 O237 2.244 . S
O225 Co224 2.216 . S
O225 C232 1.247 . S
O226 Co224 2.091 . S
O226 C232 1.261 . S
C227 O236 1.247 . S
C227 O237 1.272 . S
O228 Co224 2.004 . S
O228 C233 1.259 . S
Co229 O230 2.061 . S
Co229 O235 2.052 . S
Co229 O237 2.135 . S
O230 Co229 2.061 . S
O230 C233 1.235 . S
C231 O234 1.238 . S
C231 O235 1.241 . S
C232 O225 1.247 . S
C232 O226 1.261 . S
C233 O228 1.259 . S
C233 O230 1.235 . S
O234 Co224 2.021 . S
O234 C231 1.238 . S
O235 Co229 2.052 . S
O235 C231 1.241 . S
O236 Co224 2.137 . S
O236 C227 1.247 . S
O237 Co224 2.244 . S
O237 C227 1.272 . S
O237 Co229 2.135 . S
Co238 O239 2.216 . S
Co238 O240 2.091 . S
Co238 O242 2.004 . S
Co238 O248 2.021 . S
Co238 O250 2.137 . S
Co238 O251 2.244 . S
O239 Co238 2.216 . S
O239 C246 1.247 . S
O240 Co238 2.091 . S
O240 C246 1.261 . S
C241 O250 1.247 . S
C241 O251 1.272 . S
O242 Co238 2.004 . S
O242 C247 1.259 . S
Co243 O244 2.061 . S
Co243 O249 2.052 . S
Co243 O251 2.135 . S
O244 Co243 2.061 . S
O244 C247 1.235 . S
C245 O248 1.238 . S
C245 O249 1.241 . S
C246 O239 1.247 . S
C246 O240 1.261 . S
C247 O242 1.259 . S
C247 O244 1.235 . S
O248 Co238 2.021 . S
O248 C245 1.238 . S
O249 Co243 2.052 . S
O249 C245 1.241 . S
O250 Co238 2.137 . S
O250 C241 1.247 . S
O251 Co238 2.244 . S
O251 C241 1.272 . S
O251 Co243 2.135 . S
Co252 O253 2.216 . S
Co252 O254 2.091 . S
Co252 O256 2.004 . S
Co252 O262 2.021 . S
Co252 O264 2.137 . S
Co252 O265 2.244 . S
O253 Co252 2.216 . S
O253 C260 1.247 . S
O254 Co252 2.091 . S
O254 C260 1.261 . S
C255 O264 1.247 . S
C255 O265 1.272 . S
O256 Co252 2.004 . S
O256 C261 1.259 . S
Co257 O258 2.061 . S
Co257 O263 2.052 . S
Co257 O265 2.135 . S
O258 Co257 2.061 . S
O258 C261 1.235 . S
C259 O262 1.238 . S
C259 O263 1.241 . S
C260 O253 1.247 . S
C260 O254 1.261 . S
C261 O256 1.259 . S
C261 O258 1.235 . S
O262 Co252 2.021 . S
O262 C259 1.238 . S
O263 Co257 2.052 . S
O263 C259 1.241 . S
O264 Co252 2.137 . S
O264 C255 1.247 . S
O265 Co252 2.244 . S
O265 C255 1.272 . S
O265 Co257 2.135 . S
Co266 O267 2.216 . S
Co266 O268 2.091 . S
Co266 O270 2.004 . S
Co266 O276 2.021 . S
Co266 O278 2.137 . S
Co266 O279 2.244 . S
O267 Co266 2.216 . S
O267 C274 1.247 . S
O268 Co266 2.091 . S
O268 C274 1.261 . S
C269 O278 1.247 . S
C269 O279 1.272 . S
O270 Co266 2.004 . S
O270 C275 1.259 . S
Co271 O272 2.061 . S
Co271 O277 2.052 . S
Co271 O279 2.135 . S
O272 Co271 2.061 . S
O272 C275 1.235 . S
C273 O276 1.238 . S
C273 O277 1.241 . S
C274 O267 1.247 . S
C274 O268 1.261 . S
C275 O270 1.259 . S
C275 O272 1.235 . S
O276 Co266 2.021 . S
O276 C273 1.238 . S
O277 Co271 2.052 . S
O277 C273 1.241 . S
O278 Co266 2.137 . S
O278 C269 1.247 . S
O279 Co266 2.244 . S
O279 C269 1.272 . S
O279 Co271 2.135 . S
Co280 O281 2.216 . S
Co280 O282 2.091 . S
Co280 O284 2.004 . S
Co280 O290 2.021 . S
Co280 O292 2.137 . S
Co280 O293 2.244 . S
O281 Co280 2.216 . S
O281 C288 1.247 . S
O282 Co280 2.091 . S
O282 C288 1.261 . S
C283 O292 1.247 . S
C283 O293 1.272 . S
O284 Co280 2.004 . S
O284 C289 1.259 . S
Co285 O286 2.061 . S
Co285 O291 2.052 . S
Co285 O293 2.135 . S
O286 Co285 2.061 . S
O286 C289 1.235 . S
C287 O290 1.238 . S
C287 O291 1.241 . S
C288 O281 1.247 . S
C288 O282 1.261 . S
C289 O284 1.259 . S
C289 O286 1.235 . S
O290 Co280 2.021 . S
O290 C287 1.238 . S
O291 Co285 2.052 . S
O291 C287 1.241 . S
O292 Co280 2.137 . S
O292 C283 1.247 . S
O293 Co280 2.244 . S
O293 C283 1.272 . S
O293 Co285 2.135 . S
Co294 O295 2.216 . S
Co294 O296 2.091 . S
Co294 O298 2.004 . S
Co294 O304 2.021 . S
Co294 O306 2.137 . S
Co294 O307 2.244 . S
O295 Co294 2.216 . S
O295 C302 1.247 . S
O296 Co294 2.091 . S
O296 C302 1.261 . S
C297 O306 1.247 . S
C297 O307 1.272 . S
O298 Co294 2.004 . S
O298 C303 1.259 . S
Co299 O300 2.061 . S
Co299 O305 2.052 . S
Co299 O307 2.135 . S
O300 Co299 2.061 . S
O300 C303 1.235 . S
C301 O304 1.238 . S
C301 O305 1.241 . S
C302 O295 1.247 . S
C302 O296 1.261 . S
C303 O298 1.259 . S
C303 O300 1.235 . S
O304 Co294 2.021 . S
O304 C301 1.238 . S
O305 Co299 2.052 . S
O305 C301 1.241 . S
O306 Co294 2.137 . S
O306 C297 1.247 . S
O307 Co294 2.244 . S
O307 C297 1.272 . S
O307 Co299 2.135 . S
Co308 O309 2.216 . S
Co308 O310 2.091 . S
Co308 O312 2.004 . S
Co308 O318 2.021 . S
Co308 O320 2.137 . S
Co308 O321 2.244 . S
O309 Co308 2.216 . S
O309 C316 1.247 . S
O310 Co308 2.091 . S
O310 C316 1.261 . S
C311 O320 1.247 . S
C311 O321 1.272 . S
O312 Co308 2.004 . S
O312 C317 1.259 . S
Co313 O314 2.061 . S
Co313 O319 2.052 . S
Co313 O321 2.135 . S
O314 Co313 2.061 . S
O314 C317 1.235 . S
C315 O318 1.238 . S
C315 O319 1.241 . S
C316 O309 1.247 . S
C316 O310 1.261 . S
C317 O312 1.259 . S
C317 O314 1.235 . S
O318 Co308 2.021 . S
O318 C315 1.238 . S
O319 Co313 2.052 . S
O319 C315 1.241 . S
O320 Co308 2.137 . S
O320 C311 1.247 . S
O321 Co308 2.244 . S
O321 C311 1.272 . S
O321 Co313 2.135 . S
Co322 O323 2.216 . S
Co322 O324 2.091 . S
Co322 O326 2.004 . S
Co322 O332 2.021 . S
Co322 O334 2.137 . S
Co322 O335 2.244 . S
O323 Co322 2.216 . S
O323 C330 1.247 . S
O324 Co322 2.091 . S
O324 C330 1.261 . S
C325 O334 1.247 . S
C325 O335 1.272 . S
O326 Co322 2.004 . S
O326 C331 1.259 . S
Co327 O328 2.061 . S
Co327 O333 2.052 . S
Co327 O335 2.135 . S
O328 Co327 2.061 . S
O328 C331 1.235 . S
C329 O332 1.238 . S
C329 O333 1.241 . S
C330 O323 1.247 . S
C330 O324 1.261 . S
C331 O326 1.259 . S
C331 O328 1.235 . S
O332 Co322 2.021 . S
O332 C329 1.238 . S
O333 Co327 2.052 . S
O333 C329 1.241 . S
O334 Co322 2.137 . S
O334 C325 1.247 . S
O335 Co322 2.244 . S
O335 C325 1.272 . S
O335 Co327 2.135 . S
Co336 O337 2.216 . S
Co336 O338 2.091 . S
Co336 O340 2.004 . S
Co336 O346 2.021 . S
Co336 O348 2.137 . S
Co336 O349 2.244 . S
O337 Co336 2.216 . S
O337 C344 1.247 . S
O338 Co336 2.091 . S
O338 C344 1.261 . S
C339 O348 1.247 . S
C339 O349 1.272 . S
O340 Co336 2.004 . S
O340 C345 1.259 . S
Co341 O342 2.061 . S
Co341 O347 2.052 . S
Co341 O349 2.135 . S
O342 Co341 2.061 . S
O342 C345 1.235 . S
C343 O346 1.238 . S
C343 O347 1.241 . S
C344 O337 1.247 . S
C344 O338 1.261 . S
C345 O340 1.259 . S
C345 O342 1.235 . S
O346 Co336 2.021 . S
O346 C343 1.238 . S
O347 Co341 2.052 . S
O347 C343 1.241 . S
O348 Co336 2.137 . S
O348 C339 1.247 . S
O349 Co336 2.244 . S
O349 C339 1.272 . S
O349 Co341 2.135 . S
Co350 O351 2.216 . S
Co350 O352 2.091 . S
Co350 O354 2.004 . S
Co350 O360 2.021 . S
Co350 O362 2.137 . S
Co350 O363 2.244 . S
O351 Co350 2.216 . S
O351 C358 1.247 . S
O352 Co350 2.091 . S
O352 C358 1.261 . S
C353 O362 1.247 . S
C353 O363 1.272 . S
O354 Co350 2.004 . S
O354 C359 1.259 . S
Co355 O356 2.061 . S
Co355 O361 2.052 . S
Co355 O363 2.135 . S
O356 Co355 2.061 . S
O356 C359 1.235 . S
C357 O360 1.238 . S
C357 O361 1.241 . S
C358 O351 1.247 . S
C358 O352 1.261 . S
C359 O354 1.259 . S
C359 O356 1.235 . S
O360 Co350 2.021 . S
O360 C357 1.238 . S
O361 Co355 2.052 . S
O361 C357 1.241 . S
O362 Co350 2.137 . S
O362 C353 1.247 . S
O363 Co350 2.244 . S
O363 C353 1.272 . S
O363 Co355 2.135 . S
Co364 O365 2.216 . S
Co364 O366 2.091 . S
Co364 O368 2.004 . S
Co364 O374 2.021 . S
Co364 O376 2.137 . S
Co364 O377 2.244 . S
O365 Co364 2.216 . S
O365 C372 1.247 . S
O366 Co364 2.091 . S
O366 C372 1.261 . S
C367 O376 1.247 . S
C367 O377 1.272 . S
O368 Co364 2.004 . S
O368 C373 1.259 . S
Co369 O370 2.061 . S
Co369 O375 2.052 . S
Co369 O377 2.135 . S
O370 Co369 2.061 . S
O370 C373 1.235 . S
C371 O374 1.238 . S
C371 O375 1.241 . S
C372 O365 1.247 . S
C372 O366 1.261 . S
C373 O368 1.259 . S
C373 O370 1.235 . S
O374 Co364 2.021 . S
O374 C371 1.238 . S
O375 Co369 2.052 . S
O375 C371 1.241 . S
O376 Co364 2.137 . S
O376 C367 1.247 . S
O377 Co364 2.244 . S
O377 C367 1.272 . S
O377 Co369 2.135 . S
Co378 O379 2.216 . S
Co378 O380 2.091 . S
Co378 O382 2.004 . S
Co378 O388 2.021 . S
Co378 O390 2.137 . S
Co378 O391 2.244 . S
O379 Co378 2.216 . S
O379 C386 1.247 . S
O380 Co378 2.091 . S
O380 C386 1.261 . S
C381 O390 1.247 . S
C381 O391 1.272 . S
O382 Co378 2.004 . S
O382 C387 1.259 . S
Co383 O384 2.061 . S
Co383 O389 2.052 . S
Co383 O391 2.135 . S
O384 Co383 2.061 . S
O384 C387 1.235 . S
C385 O388 1.238 . S
C385 O389 1.241 . S
C386 O379 1.247 . S
C386 O380 1.261 . S
C387 O382 1.259 . S
C387 O384 1.235 . S
O388 Co378 2.021 . S
O388 C385 1.238 . S
O389 Co383 2.052 . S
O389 C385 1.241 . S
O390 Co378 2.137 . S
O390 C381 1.247 . S
O391 Co378 2.244 . S
O391 C381 1.272 . S
O391 Co383 2.135 . S
Co392 O393 2.216 . S
Co392 O394 2.091 . S
Co392 O396 2.004 . S
Co392 O402 2.021 . S
Co392 O404 2.137 . S
Co392 O405 2.244 . S
O393 Co392 2.216 . S
O393 C400 1.247 . S
O394 Co392 2.091 . S
O394 C400 1.261 . S
C395 O404 1.247 . S
C395 O405 1.272 . S
O396 Co392 2.004 . S
O396 C401 1.259 . S
Co397 O398 2.061 . S
Co397 O403 2.052 . S
Co397 O405 2.135 . S
O398 Co397 2.061 . S
O398 C401 1.235 . S
C399 O402 1.238 . S
C399 O403 1.241 . S
C400 O393 1.247 . S
C400 O394 1.261 . S
C401 O396 1.259 . S
C401 O398 1.235 . S
O402 Co392 2.021 . S
O402 C399 1.238 . S
O403 Co397 2.052 . S
O403 C399 1.241 . S
O404 Co392 2.137 . S
O404 C395 1.247 . S
O405 Co392 2.244 . S
O405 C395 1.272 . S
O405 Co397 2.135 . S
Co406 O407 2.216 . S
Co406 O408 2.091 . S
Co406 O410 2.004 . S
Co406 O416 2.021 . S
Co406 O418 2.137 . S
Co406 O419 2.244 . S
O407 Co406 2.216 . S
O407 C414 1.247 . S
O408 Co406 2.091 . S
O408 C414 1.261 . S
C409 O418 1.247 . S
C409 O419 1.272 . S
O410 Co406 2.004 . S
O410 C415 1.259 . S
Co411 O412 2.061 . S
Co411 O417 2.052 . S
Co411 O419 2.135 . S
O412 Co411 2.061 . S
O412 C415 1.235 . S
C413 O416 1.238 . S
C413 O417 1.241 . S
C414 O407 1.247 . S
C414 O408 1.261 . S
C415 O410 1.259 . S
C415 O412 1.235 . S
O416 Co406 2.021 . S
O416 C413 1.238 . S
O417 Co411 2.052 . S
O417 C413 1.241 . S
O418 Co406 2.137 . S
O418 C409 1.247 . S
O419 Co406 2.244 . S
O419 C409 1.272 . S
O419 Co411 2.135 . S
Co420 O421 2.216 . S
Co420 O422 2.091 . S
Co420 O424 2.004 . S
Co420 O430 2.021 . S
Co420 O432 2.137 . S
Co420 O433 2.244 . S
O421 Co420 2.216 . S
O421 C428 1.247 . S
O422 Co420 2.091 . S
O422 C428 1.261 . S
C423 O432 1.247 . S
C423 O433 1.272 . S
O424 Co420 2.004 . S
O424 C429 1.259 . S
Co425 O426 2.061 . S
Co425 O431 2.052 . S
Co425 O433 2.135 . S
O426 Co425 2.061 . S
O426 C429 1.235 . S
C427 O430 1.238 . S
C427 O431 1.241 . S
C428 O421 1.247 . S
C428 O422 1.261 . S
C429 O424 1.259 . S
C429 O426 1.235 . S
O430 Co420 2.021 . S
O430 C427 1.238 . S
O431 Co425 2.052 . S
O431 C427 1.241 . S
O432 Co420 2.137 . S
O432 C423 1.247 . S
O433 Co420 2.244 . S
O433 C423 1.272 . S
O433 Co425 2.135 . S
Co434 O435 2.216 . S
Co434 O436 2.091 . S
Co434 O438 2.004 . S
Co434 O444 2.021 . S
Co434 O446 2.137 . S
Co434 O447 2.244 . S
O435 Co434 2.216 . S
O435 C442 1.247 . S
O436 Co434 2.091 . S
O436 C442 1.261 . S
C437 O446 1.247 . S
C437 O447 1.272 . S
O438 Co434 2.004 . S
O438 C443 1.259 . S
Co439 O440 2.061 . S
Co439 O445 2.052 . S
Co439 O447 2.135 . S
O440 Co439 2.061 . S
O440 C443 1.235 . S
C441 O444 1.238 . S
C441 O445 1.241 . S
C442 O435 1.247 . S
C442 O436 1.261 . S
C443 O438 1.259 . S
C443 O440 1.235 . S
O444 Co434 2.021 . S
O444 C441 1.238 . S
O445 Co439 2.052 . S
O445 C441 1.241 . S
O446 Co434 2.137 . S
O446 C437 1.247 . S
O447 Co434 2.244 . S
O447 C437 1.272 . S
O447 Co439 2.135 . S
H448 C466 0.951 . S
H449 C468 0.951 . S
H450 C470 0.950 . S
H451 C471 0.950 . S
H452 C473 0.950 . S
H453 C476 0.950 . S
H454 C477 0.950 . S
H455 C479 0.950 . S
H456 C480 0.950 . S
H457 C481 0.951 . S
H458 C483 0.951 . S
H459 C485 0.950 . S
H460 C486 0.950 . S
H461 C488 0.950 . S
H462 C491 0.950 . S
H463 C492 0.950 . S
H464 C494 0.950 . S
H465 C495 0.950 . S
C466 H448 0.951 . S
C466 C467 1.366 . S
C466 C468 1.388 . S
C467 C466 1.366 . S
C467 C471 1.385 . S
C468 H449 0.951 . S
C468 C466 1.388 . S
C468 C469 1.366 . S
C469 C468 1.366 . S
C469 C470 1.414 . S
C469 C472 1.499 . S
C470 H450 0.950 . S
C470 C469 1.414 . S
C470 C471 1.374 . S
C471 H451 0.950 . S
C471 C467 1.385 . S
C471 C470 1.374 . S
C472 C469 1.499 . S
C472 C473 1.373 . S
C472 C474 1.389 . S
C473 H452 0.950 . S
C473 C472 1.373 . S
C473 C489 1.377 . S
C474 C472 1.389 . S
C474 C475 1.524 . S
C474 C488 1.377 . S
C475 C474 1.524 . S
C475 C476 1.397 . S
C475 C480 1.363 . S
C476 H453 0.950 . S
C476 C475 1.397 . S
C476 C477 1.334 . S
C477 H454 0.950 . S
C477 C476 1.334 . S
C477 C478 1.287 . S
C478 C477 1.287 . S
C478 C479 1.524 . S
C478 H497 0.913 . S
C479 H455 0.950 . S
C479 C478 1.524 . S
C479 C480 1.415 . S
C480 H456 0.950 . S
C480 C475 1.363 . S
C480 C479 1.415 . S
C481 H457 0.951 . S
C481 C482 1.366 . S
C481 C483 1.388 . S
C482 C481 1.366 . S
C482 C486 1.385 . S
C483 H458 0.951 . S
C483 C481 1.388 . S
C483 C484 1.366 . S
C484 C483 1.366 . S
C484 C485 1.414 . S
C484 C487 1.499 . S
C485 H459 0.950 . S
C485 C484 1.414 . S
C485 C486 1.374 . S
C486 H460 0.950 . S
C486 C482 1.385 . S
C486 C485 1.374 . S
C487 C484 1.499 . S
C487 C488 1.373 . S
C487 C489 1.389 . S
C488 H461 0.950 . S
C488 C474 1.377 . S
C488 C487 1.373 . S
C489 C473 1.377 . S
C489 C487 1.389 . S
C489 C490 1.524 . S
C490 C489 1.524 . S
C490 C491 1.397 . S
C490 C495 1.363 . S
C491 H462 0.950 . S
C491 C490 1.397 . S
C491 C492 1.334 . S
C492 H463 0.950 . S
C492 C491 1.334 . S
C492 C493 1.287 . S
C493 C492 1.287 . S
C493 C494 1.524 . S
C493 H496 0.999 . S
C494 H464 0.950 . S
C494 C493 1.524 . S
C494 C495 1.415 . S
C495 H465 0.950 . S
C495 C490 1.363 . S
C495 C494 1.415 . S
H496 C493 0.999 . S
H497 C478 0.913 . S
H498 C516 0.951 . S
H499 C518 0.951 . S
H500 C520 0.950 . S
H501 C521 0.950 . S
H502 C523 0.950 . S
H503 C526 0.950 . S
H504 C527 0.950 . S
H505 C529 0.950 . S
H506 C530 0.950 . S
H507 C531 0.951 . S
H508 C533 0.951 . S
H509 C535 0.950 . S
H510 C536 0.950 . S
H511 C538 0.950 . S
H512 C541 0.950 . S
H513 C542 0.950 . S
H514 C544 0.950 . S
H515 C545 0.950 . S
C516 H498 0.951 . S
C516 C517 1.366 . S
C516 C518 1.388 . S
C517 C516 1.366 . S
C517 C521 1.385 . S
C518 H499 0.951 . S
C518 C516 1.388 . S
C518 C519 1.366 . S
C519 C518 1.366 . S
C519 C520 1.414 . S
C519 C522 1.499 . S
C520 H500 0.950 . S
C520 C519 1.414 . S
C520 C521 1.374 . S
C521 H501 0.950 . S
C521 C517 1.385 . S
C521 C520 1.374 . S
C522 C519 1.499 . S
C522 C523 1.373 . S
C522 C524 1.389 . S
C523 H502 0.950 . S
C523 C522 1.373 . S
C523 C539 1.377 . S
C524 C522 1.389 . S
C524 C525 1.524 . S
C524 C538 1.377 . S
C525 C524 1.524 . S
C525 C526 1.397 . S
C525 C530 1.363 . S
C526 H503 0.950 . S
C526 C525 1.397 . S
C526 C527 1.334 . S
C527 H504 0.950 . S
C527 C526 1.334 . S
C527 C528 1.287 . S
C528 C527 1.287 . S
C528 C529 1.524 . S
C528 H547 0.913 . S
C529 H505 0.950 . S
C529 C528 1.524 . S
C529 C530 1.415 . S
C530 H506 0.950 . S
C530 C525 1.363 . S
C530 C529 1.415 . S
C531 H507 0.951 . S
C531 C532 1.366 . S
C531 C533 1.388 . S
C532 C531 1.366 . S
C532 C536 1.385 . S
C533 H508 0.951 . S
C533 C531 1.388 . S
C533 C534 1.366 . S
C534 C533 1.366 . S
C534 C535 1.414 . S
C534 C537 1.499 . S
C535 H509 0.950 . S
C535 C534 1.414 . S
C535 C536 1.374 . S
C536 H510 0.950 . S
C536 C532 1.385 . S
C536 C535 1.374 . S
C537 C534 1.499 . S
C537 C538 1.373 . S
C537 C539 1.389 . S
C538 H511 0.950 . S
C538 C524 1.377 . S
C538 C537 1.373 . S
C539 C523 1.377 . S
C539 C537 1.389 . S
C539 C540 1.524 . S
C540 C539 1.524 . S
C540 C541 1.397 . S
C540 C545 1.363 . S
C541 H512 0.950 . S
C541 C540 1.397 . S
C541 C542 1.334 . S
C542 H513 0.950 . S
C542 C541 1.334 . S
C542 C543 1.287 . S
C543 C542 1.287 . S
C543 C544 1.524 . S
C543 H546 0.999 . S
C544 H514 0.950 . S
C544 C543 1.524 . S
C544 C545 1.415 . S
C545 H515 0.950 . S
C545 C540 1.363 . S
C545 C544 1.415 . S
H546 C543 0.999 . S
H547 C528 0.913 . S
H548 C566 0.951 . S
H549 C568 0.951 . S
H550 C570 0.950 . S
H551 C571 0.950 . S
H552 C573 0.950 . S
H553 C576 0.950 . S
H554 C577 0.950 . S
H555 C579 0.950 . S
H556 C580 0.950 . S
H557 C581 0.951 . S
H558 C583 0.951 . S
H559 C585 0.950 . S
H560 C586 0.950 . S
H561 C588 0.950 . S
H562 C591 0.950 . S
H563 C592 0.950 . S
H564 C594 0.950 . S
H565 C595 0.950 . S
C566 H548 0.951 . S
C566 C567 1.366 . S
C566 C568 1.388 . S
C567 C566 1.366 . S
C567 C571 1.385 . S
C568 H549 0.951 . S
C568 C566 1.388 . S
C568 C569 1.366 . S
C569 C568 1.366 . S
C569 C570 1.414 . S
C569 C572 1.499 . S
C570 H550 0.950 . S
C570 C569 1.414 . S
C570 C571 1.374 . S
C571 H551 0.950 . S
C571 C567 1.385 . S
C571 C570 1.374 . S
C572 C569 1.499 . S
C572 C573 1.373 . S
C572 C574 1.389 . S
C573 H552 0.950 . S
C573 C572 1.373 . S
C573 C589 1.377 . S
C574 C572 1.389 . S
C574 C575 1.524 . S
C574 C588 1.377 . S
C575 C574 1.524 . S
C575 C576 1.397 . S
C575 C580 1.363 . S
C576 H553 0.950 . S
C576 C575 1.397 . S
C576 C577 1.334 . S
C577 H554 0.950 . S
C577 C576 1.334 . S
C577 C578 1.287 . S
C578 C577 1.287 . S
C578 C579 1.524 . S
C578 H597 0.913 . S
C579 H555 0.950 . S
C579 C578 1.524 . S
C579 C580 1.415 . S
C580 H556 0.950 . S
C580 C575 1.363 . S
C580 C579 1.415 . S
C581 H557 0.951 . S
C581 C582 1.366 . S
C581 C583 1.388 . S
C582 C581 1.366 . S
C582 C586 1.385 . S
C583 H558 0.951 . S
C583 C581 1.388 . S
C583 C584 1.366 . S
C584 C583 1.366 . S
C584 C585 1.414 . S
C584 C587 1.499 . S
C585 H559 0.950 . S
C585 C584 1.414 . S
C585 C586 1.374 . S
C586 H560 0.950 . S
C586 C582 1.385 . S
C586 C585 1.374 . S
C587 C584 1.499 . S
C587 C588 1.373 . S
C587 C589 1.389 . S
C588 H561 0.950 . S
C588 C574 1.377 . S
C588 C587 1.373 . S
C589 C573 1.377 . S
C589 C587 1.389 . S
C589 C590 1.524 . S
C590 C589 1.524 . S
C590 C591 1.397 . S
C590 C595 1.363 . S
C591 H562 0.950 . S
C591 C590 1.397 . S
C591 C592 1.334 . S
C592 H563 0.950 . S
C592 C591 1.334 . S
C592 C593 1.287 . S
C593 C592 1.287 . S
C593 C594 1.524 . S
C593 H596 0.999 . S
C594 H564 0.950 . S
C594 C593 1.524 . S
C594 C595 1.415 . S
C595 H565 0.950 . S
C595 C590 1.363 . S
C595 C594 1.415 . S
H596 C593 0.999 . S
H597 C578 0.913 . S
H598 C616 0.951 . S
H599 C618 0.951 . S
H600 C620 0.950 . S
H601 C621 0.950 . S
H602 C623 0.950 . S
H603 C626 0.950 . S
H604 C627 0.950 . S
H605 C629 0.950 . S
H606 C630 0.950 . S
H607 C631 0.951 . S
H608 C633 0.951 . S
H609 C635 0.950 . S
H610 C636 0.950 . S
H611 C638 0.950 . S
H612 C641 0.950 . S
H613 C642 0.950 . S
H614 C644 0.950 . S
H615 C645 0.950 . S
C616 H598 0.951 . S
C616 C617 1.366 . S
C616 C618 1.388 . S
C617 C616 1.366 . S
C617 C621 1.385 . S
C618 H599 0.951 . S
C618 C616 1.388 . S
C618 C619 1.366 . S
C619 C618 1.366 . S
C619 C620 1.414 . S
C619 C622 1.499 . S
C620 H600 0.950 . S
C620 C619 1.414 . S
C620 C621 1.374 . S
C621 H601 0.950 . S
C621 C617 1.385 . S
C621 C620 1.374 . S
C622 C619 1.499 . S
C622 C623 1.373 . S
C622 C624 1.389 . S
C623 H602 0.950 . S
C623 C622 1.373 . S
C623 C639 1.377 . S
C624 C622 1.389 . S
C624 C625 1.524 . S
C624 C638 1.377 . S
C625 C624 1.524 . S
C625 C626 1.397 . S
C625 C630 1.363 . S
C626 H603 0.950 . S
C626 C625 1.397 . S
C626 C627 1.334 . S
C627 H604 0.950 . S
C627 C626 1.334 . S
C627 C628 1.287 . S
C628 C627 1.287 . S
C628 C629 1.524 . S
C628 H647 0.913 . S
C629 H605 0.950 . S
C629 C628 1.524 . S
C629 C630 1.415 . S
C630 H606 0.950 . S
C630 C625 1.363 . S
C630 C629 1.415 . S
C631 H607 0.951 . S
C631 C632 1.366 . S
C631 C633 1.388 . S
C632 C631 1.366 . S
C632 C636 1.385 . S
C633 H608 0.951 . S
C633 C631 1.388 . S
C633 C634 1.366 . S
C634 C633 1.366 . S
C634 C635 1.414 . S
C634 C637 1.499 . S
C635 H609 0.950 . S
C635 C634 1.414 . S
C635 C636 1.374 . S
C636 H610 0.950 . S
C636 C632 1.385 . S
C636 C635 1.374 . S
C637 C634 1.499 . S
C637 C638 1.373 . S
C637 C639 1.389 . S
C638 H611 0.950 . S
C638 C624 1.377 . S
C638 C637 1.373 . S
C639 C623 1.377 . S
C639 C637 1.389 . S
C639 C640 1.524 . S
C640 C639 1.524 . S
C640 C641 1.397 . S
C640 C645 1.363 . S
C641 H612 0.950 . S
C641 C640 1.397 . S
C641 C642 1.334 . S
C642 H613 0.950 . S
C642 C641 1.334 . S
C642 C643 1.287 . S
C643 C642 1.287 . S
C643 C644 1.524 . S
C643 H646 0.999 . S
C644 H614 0.950 . S
C644 C643 1.524 . S
C644 C645 1.415 . S
C645 H615 0.950 . S
C645 C640 1.363 . S
C645 C644 1.415 . S
H646 C643 0.999 . S
H647 C628 0.913 . S
H648 C666 0.951 . S
H649 C668 0.951 . S
H650 C670 0.950 . S
H651 C671 0.950 . S
H652 C673 0.950 . S
H653 C676 0.950 . S
H654 C677 0.950 . S
H655 C679 0.950 . S
H656 C680 0.950 . S
H657 C681 0.951 . S
H658 C683 0.951 . S
H659 C685 0.950 . S
H660 C686 0.950 . S
H661 C688 0.950 . S
H662 C691 0.950 . S
H663 C692 0.950 . S
H664 C694 0.950 . S
H665 C695 0.950 . S
C666 H648 0.951 . S
C666 C667 1.366 . S
C666 C668 1.388 . S
C667 C666 1.366 . S
C667 C671 1.385 . S
C668 H649 0.951 . S
C668 C666 1.388 . S
C668 C669 1.366 . S
C669 C668 1.366 . S
C669 C670 1.414 . S
C669 C672 1.499 . S
C670 H650 0.950 . S
C670 C669 1.414 . S
C670 C671 1.374 . S
C671 H651 0.950 . S
C671 C667 1.385 . S
C671 C670 1.374 . S
C672 C669 1.499 . S
C672 C673 1.373 . S
C672 C674 1.389 . S
C673 H652 0.950 . S
C673 C672 1.373 . S
C673 C689 1.377 . S
C674 C672 1.389 . S
C674 C675 1.524 . S
C674 C688 1.377 . S
C675 C674 1.524 . S
C675 C676 1.397 . S
C675 C680 1.363 . S
C676 H653 0.950 . S
C676 C675 1.397 . S
C676 C677 1.334 . S
C677 H654 0.950 . S
C677 C676 1.334 . S
C677 C678 1.287 . S
C678 C677 1.287 . S
C678 C679 1.524 . S
C678 H697 0.913 . S
C679 H655 0.950 . S
C679 C678 1.524 . S
C679 C680 1.415 . S
C680 H656 0.950 . S
C680 C675 1.363 . S
C680 C679 1.415 . S
C681 H657 0.951 . S
C681 C682 1.366 . S
C681 C683 1.388 . S
C682 C681 1.366 . S
C682 C686 1.385 . S
C683 H658 0.951 . S
C683 C681 1.388 . S
C683 C684 1.366 . S
C684 C683 1.366 . S
C684 C685 1.414 . S
C684 C687 1.499 . S
C685 H659 0.950 . S
C685 C684 1.414 . S
C685 C686 1.374 . S
C686 H660 0.950 . S
C686 C682 1.385 . S
C686 C685 1.374 . S
C687 C684 1.499 . S
C687 C688 1.373 . S
C687 C689 1.389 . S
C688 H661 0.950 . S
C688 C674 1.377 . S
C688 C687 1.373 . S
C689 C673 1.377 . S
C689 C687 1.389 . S
C689 C690 1.524 . S
C690 C689 1.524 . S
C690 C691 1.397 . S
C690 C695 1.363 . S
C691 H662 0.950 . S
C691 C690 1.397 . S
C691 C692 1.334 . S
C692 H663 0.950 . S
C692 C691 1.334 . S
C692 C693 1.287 . S
C693 C692 1.287 . S
C693 C694 1.524 . S
C693 H696 0.999 . S
C694 H664 0.950 . S
C694 C693 1.524 . S
C694 C695 1.415 . S
C695 H665 0.950 . S
C695 C690 1.363 . S
C695 C694 1.415 . S
H696 C693 0.999 . S
H697 C678 0.913 . S
H698 C716 0.951 . S
H699 C718 0.951 . S
H700 C720 0.950 . S
H701 C721 0.950 . S
H702 C723 0.950 . S
H703 C726 0.950 . S
H704 C727 0.950 . S
H705 C729 0.950 . S
H706 C730 0.950 . S
H707 C731 0.951 . S
H708 C733 0.951 . S
H709 C735 0.950 . S
H710 C736 0.950 . S
H711 C738 0.950 . S
H712 C741 0.950 . S
H713 C742 0.950 . S
H714 C744 0.950 . S
H715 C745 0.950 . S
C716 H698 0.951 . S
C716 C717 1.366 . S
C716 C718 1.388 . S
C717 C716 1.366 . S
C717 C721 1.385 . S
C718 H699 0.951 . S
C718 C716 1.388 . S
C718 C719 1.366 . S
C719 C718 1.366 . S
C719 C720 1.414 . S
C719 C722 1.499 . S
C720 H700 0.950 . S
C720 C719 1.414 . S
C720 C721 1.374 . S
C721 H701 0.950 . S
C721 C717 1.385 . S
C721 C720 1.374 . S
C722 C719 1.499 . S
C722 C723 1.373 . S
C722 C724 1.389 . S
C723 H702 0.950 . S
C723 C722 1.373 . S
C723 C739 1.377 . S
C724 C722 1.389 . S
C724 C725 1.524 . S
C724 C738 1.377 . S
C725 C724 1.524 . S
C725 C726 1.397 . S
C725 C730 1.363 . S
C726 H703 0.950 . S
C726 C725 1.397 . S
C726 C727 1.334 . S
C727 H704 0.950 . S
C727 C726 1.334 . S
C727 C728 1.287 . S
C728 C727 1.287 . S
C728 C729 1.524 . S
C728 H747 0.913 . S
C729 H705 0.950 . S
C729 C728 1.524 . S
C729 C730 1.415 . S
C730 H706 0.950 . S
C730 C725 1.363 . S
C730 C729 1.415 . S
C731 H707 0.951 . S
C731 C732 1.366 . S
C731 C733 1.388 . S
C732 C731 1.366 . S
C732 C736 1.385 . S
C733 H708 0.951 . S
C733 C731 1.388 . S
C733 C734 1.366 . S
C734 C733 1.366 . S
C734 C735 1.414 . S
C734 C737 1.499 . S
C735 H709 0.950 . S
C735 C734 1.414 . S
C735 C736 1.374 . S
C736 H710 0.950 . S
C736 C732 1.385 . S
C736 C735 1.374 . S
C737 C734 1.499 . S
C737 C738 1.373 . S
C737 C739 1.389 . S
C738 H711 0.950 . S
C738 C724 1.377 . S
C738 C737 1.373 . S
C739 C723 1.377 . S
C739 C737 1.389 . S
C739 C740 1.524 . S
C740 C739 1.524 . S
C740 C741 1.397 . S
C740 C745 1.363 . S
C741 H712 0.950 . S
C741 C740 1.397 . S
C741 C742 1.334 . S
C742 H713 0.950 . S
C742 C741 1.334 . S
C742 C743 1.287 . S
C743 C742 1.287 . S
C743 C744 1.524 . S
C743 H746 0.999 . S
C744 H714 0.950 . S
C744 C743 1.524 . S
C744 C745 1.415 . S
C745 H715 0.950 . S
C745 C740 1.363 . S
C745 C744 1.415 . S
H746 C743 0.999 . S
H747 C728 0.913 . S
H748 C766 0.951 . S
H749 C768 0.951 . S
H750 C770 0.950 . S
H751 C771 0.950 . S
H752 C773 0.950 . S
H753 C776 0.950 . S
H754 C777 0.950 . S
H755 C779 0.950 . S
H756 C780 0.950 . S
H757 C781 0.951 . S
H758 C783 0.951 . S
H759 C785 0.950 . S
H760 C786 0.950 . S
H761 C788 0.950 . S
H762 C791 0.950 . S
H763 C792 0.950 . S
H764 C794 0.950 . S
H765 C795 0.950 . S
C766 H748 0.951 . S
C766 C767 1.366 . S
C766 C768 1.388 . S
C767 C766 1.366 . S
C767 C771 1.385 . S
C768 H749 0.951 . S
C768 C766 1.388 . S
C768 C769 1.366 . S
C769 C768 1.366 . S
C769 C770 1.414 . S
C769 C772 1.499 . S
C770 H750 0.950 . S
C770 C769 1.414 . S
C770 C771 1.374 . S
C771 H751 0.950 . S
C771 C767 1.385 . S
C771 C770 1.374 . S
C772 C769 1.499 . S
C772 C773 1.373 . S
C772 C774 1.389 . S
C773 H752 0.950 . S
C773 C772 1.373 . S
C773 C789 1.377 . S
C774 C772 1.389 . S
C774 C775 1.524 . S
C774 C788 1.377 . S
C775 C774 1.524 . S
C775 C776 1.397 . S
C775 C780 1.363 . S
C776 H753 0.950 . S
C776 C775 1.397 . S
C776 C777 1.334 . S
C777 H754 0.950 . S
C777 C776 1.334 . S
C777 C778 1.287 . S
C778 C777 1.287 . S
C778 C779 1.524 . S
C778 H797 0.913 . S
C779 H755 0.950 . S
C779 C778 1.524 . S
C779 C780 1.415 . S
C780 H756 0.950 . S
C780 C775 1.363 . S
C780 C779 1.415 . S
C781 H757 0.951 . S
C781 C782 1.366 . S
C781 C783 1.388 . S
C782 C781 1.366 . S
C782 C786 1.385 . S
C783 H758 0.951 . S
C783 C781 1.388 . S
C783 C784 1.366 . S
C784 C783 1.366 . S
C784 C785 1.414 . S
C784 C787 1.499 . S
C785 H759 0.950 . S
C785 C784 1.414 . S
C785 C786 1.374 . S
C786 H760 0.950 . S
C786 C782 1.385 . S
C786 C785 1.374 . S
C787 C784 1.499 . S
C787 C788 1.373 . S
C787 C789 1.389 . S
C788 H761 0.950 . S
C788 C774 1.377 . S
C788 C787 1.373 . S
C789 C773 1.377 . S
C789 C787 1.389 . S
C789 C790 1.524 . S
C790 C789 1.524 . S
C790 C791 1.397 . S
C790 C795 1.363 . S
C791 H762 0.950 . S
C791 C790 1.397 . S
C791 C792 1.334 . S
C792 H763 0.950 . S
C792 C791 1.334 . S
C792 C793 1.287 . S
C793 C792 1.287 . S
C793 C794 1.524 . S
C793 H796 0.999 . S
C794 H764 0.950 . S
C794 C793 1.524 . S
C794 C795 1.415 . S
C795 H765 0.950 . S
C795 C790 1.363 . S
C795 C794 1.415 . S
H796 C793 0.999 . S
H797 C778 0.913 . S
H798 C816 0.951 1_455 S
H799 C818 0.951 . S
H800 C820 0.950 . S
H801 C821 0.950 . S
H802 C823 0.950 . S
H803 C826 0.950 . S
H804 C827 0.950 . S
H805 C829 0.950 . S
H806 C830 0.950 . S
H807 C831 0.951 . S
H808 C833 0.951 . S
H809 C835 0.950 . S
H810 C836 0.950 . S
H811 C838 0.950 . S
H812 C841 0.950 . S
H813 C842 0.950 . S
H814 C844 0.950 . S
H815 C845 0.950 . S
C816 H798 0.951 1_655 S
C816 C817 1.366 . S
C816 C818 1.388 . S
C817 C816 1.366 . S
C817 C821 1.385 . S
C818 H799 0.951 . S
C818 C816 1.388 . S
C818 C819 1.366 . S
C819 C818 1.366 . S
C819 C820 1.414 . S
C819 C822 1.499 . S
C820 H800 0.950 . S
C820 C819 1.414 . S
C820 C821 1.374 . S
C821 H801 0.950 . S
C821 C817 1.385 . S
C821 C820 1.374 . S
C822 C819 1.499 . S
C822 C823 1.373 . S
C822 C824 1.389 . S
C823 H802 0.950 . S
C823 C822 1.373 . S
C823 C839 1.377 . S
C824 C822 1.389 . S
C824 C825 1.524 . S
C824 C838 1.377 . S
C825 C824 1.524 . S
C825 C826 1.397 . S
C825 C830 1.363 . S
C826 H803 0.950 . S
C826 C825 1.397 . S
C826 C827 1.334 . S
C827 H804 0.950 . S
C827 C826 1.334 . S
C827 C828 1.287 . S
C828 C827 1.287 . S
C828 C829 1.524 . S
C828 H847 0.913 . S
C829 H805 0.950 . S
C829 C828 1.524 . S
C829 C830 1.415 . S
C830 H806 0.950 . S
C830 C825 1.363 . S
C830 C829 1.415 . S
C831 H807 0.951 . S
C831 C832 1.366 . S
C831 C833 1.388 . S
C832 C831 1.366 . S
C832 C836 1.385 . S
C833 H808 0.951 . S
C833 C831 1.388 . S
C833 C834 1.366 . S
C834 C833 1.366 . S
C834 C835 1.414 . S
C834 C837 1.499 . S
C835 H809 0.950 . S
C835 C834 1.414 . S
C835 C836 1.374 . S
C836 H810 0.950 . S
C836 C832 1.385 . S
C836 C835 1.374 . S
C837 C834 1.499 . S
C837 C838 1.373 . S
C837 C839 1.389 . S
C838 H811 0.950 . S
C838 C824 1.377 . S
C838 C837 1.373 . S
C839 C823 1.377 . S
C839 C837 1.389 . S
C839 C840 1.524 . S
C840 C839 1.524 . S
C840 C841 1.397 . S
C840 C845 1.363 . S
C841 H812 0.950 . S
C841 C840 1.397 . S
C841 C842 1.334 . S
C842 H813 0.950 . S
C842 C841 1.334 . S
C842 C843 1.287 . S
C843 C842 1.287 . S
C843 C844 1.524 . S
C843 H846 0.999 . S
C844 H814 0.950 . S
C844 C843 1.524 . S
C844 C845 1.415 . S
C845 H815 0.950 . S
C845 C840 1.363 . S
C845 C844 1.415 . S
H846 C843 0.999 . S
H847 C828 0.913 . S
H848 C866 0.951 . S
H849 C868 0.951 . S
H850 C870 0.950 . S
H851 C871 0.950 . S
H852 C873 0.950 . S
H853 C876 0.950 . S
H854 C877 0.950 . S
H855 C879 0.950 . S
H856 C880 0.950 . S
H857 C881 0.951 . S
H858 C883 0.951 . S
H859 C885 0.950 . S
H860 C886 0.950 . S
H861 C888 0.950 . S
H862 C891 0.950 . S
H863 C892 0.950 . S
H864 C894 0.950 . S
H865 C895 0.950 . S
C866 H848 0.951 . S
C866 C867 1.366 . S
C866 C868 1.388 . S
C867 C866 1.366 . S
C867 C871 1.385 . S
C868 H849 0.951 . S
C868 C866 1.388 . S
C868 C869 1.366 . S
C869 C868 1.366 . S
C869 C870 1.414 . S
C869 C872 1.499 . S
C870 H850 0.950 . S
C870 C869 1.414 . S
C870 C871 1.374 . S
C871 H851 0.950 . S
C871 C867 1.385 . S
C871 C870 1.374 . S
C872 C869 1.499 . S
C872 C873 1.373 . S
C872 C874 1.389 . S
C873 H852 0.950 . S
C873 C872 1.373 . S
C873 C889 1.377 . S
C874 C872 1.389 . S
C874 C875 1.524 . S
C874 C888 1.377 . S
C875 C874 1.524 . S
C875 C876 1.397 . S
C875 C880 1.363 . S
C876 H853 0.950 . S
C876 C875 1.397 . S
C876 C877 1.334 . S
C877 H854 0.950 . S
C877 C876 1.334 . S
C877 C878 1.287 . S
C878 C877 1.287 . S
C878 C879 1.524 . S
C878 H897 0.913 . S
C879 H855 0.950 . S
C879 C878 1.524 . S
C879 C880 1.415 . S
C880 H856 0.950 . S
C880 C875 1.363 . S
C880 C879 1.415 . S
C881 H857 0.951 . S
C881 C882 1.366 . S
C881 C883 1.388 . S
C882 C881 1.366 . S
C882 C886 1.385 . S
C883 H858 0.951 . S
C883 C881 1.388 . S
C883 C884 1.366 . S
C884 C883 1.366 . S
C884 C885 1.414 . S
C884 C887 1.499 . S
C885 H859 0.950 . S
C885 C884 1.414 . S
C885 C886 1.374 . S
C886 H860 0.950 . S
C886 C882 1.385 . S
C886 C885 1.374 . S
C887 C884 1.499 . S
C887 C888 1.373 . S
C887 C889 1.389 . S
C888 H861 0.950 . S
C888 C874 1.377 . S
C888 C887 1.373 . S
C889 C873 1.377 . S
C889 C887 1.389 . S
C889 C890 1.524 . S
C890 C889 1.524 . S
C890 C891 1.397 . S
C890 C895 1.363 . S
C891 H862 0.950 . S
C891 C890 1.397 . S
C891 C892 1.334 . S
C892 H863 0.950 . S
C892 C891 1.334 . S
C892 C893 1.287 . S
C893 C892 1.287 . S
C893 C894 1.524 . S
C893 H896 0.999 . S
C894 H864 0.950 . S
C894 C893 1.524 . S
C894 C895 1.415 . S
C895 H865 0.950 . S
C895 C890 1.363 . S
C895 C894 1.415 . S
H896 C893 0.999 . S
H897 C878 0.913 . S
H898 C916 0.951 . S
H899 C918 0.951 . S
H900 C920 0.950 . S
H901 C921 0.950 . S
H902 C923 0.950 . S
H903 C926 0.950 . S
H904 C927 0.950 . S
H905 C929 0.950 . S
H906 C930 0.950 . S
H907 C931 0.951 . S
H908 C933 0.951 . S
H909 C935 0.950 . S
H910 C936 0.950 . S
H911 C938 0.950 . S
H912 C941 0.950 . S
H913 C942 0.950 1_655 S
H914 C944 0.950 . S
H915 C945 0.950 . S
C916 H898 0.951 . S
C916 C917 1.366 . S
C916 C918 1.388 . S
C917 C916 1.366 . S
C917 C921 1.385 . S
C918 H899 0.951 . S
C918 C916 1.388 . S
C918 C919 1.366 . S
C919 C918 1.366 . S
C919 C920 1.414 . S
C919 C922 1.499 . S
C920 H900 0.950 . S
C920 C919 1.414 . S
C920 C921 1.374 . S
C921 H901 0.950 . S
C921 C917 1.385 . S
C921 C920 1.374 . S
C922 C919 1.499 . S
C922 C923 1.373 . S
C922 C924 1.389 . S
C923 H902 0.950 . S
C923 C922 1.373 . S
C923 C939 1.377 . S
C924 C922 1.389 . S
C924 C925 1.524 . S
C924 C938 1.377 . S
C925 C924 1.524 . S
C925 C926 1.397 . S
C925 C930 1.363 . S
C926 H903 0.950 . S
C926 C925 1.397 . S
C926 C927 1.334 . S
C927 H904 0.950 . S
C927 C926 1.334 . S
C927 C928 1.287 . S
C928 C927 1.287 . S
C928 C929 1.524 . S
C928 H947 0.913 . S
C929 H905 0.950 . S
C929 C928 1.524 . S
C929 C930 1.415 . S
C930 H906 0.950 . S
C930 C925 1.363 . S
C930 C929 1.415 . S
C931 H907 0.951 . S
C931 C932 1.366 . S
C931 C933 1.388 . S
C932 C931 1.366 . S
C932 C936 1.385 . S
C933 H908 0.951 . S
C933 C931 1.388 . S
C933 C934 1.366 . S
C934 C933 1.366 . S
C934 C935 1.414 . S
C934 C937 1.499 . S
C935 H909 0.950 . S
C935 C934 1.414 . S
C935 C936 1.374 . S
C936 H910 0.950 . S
C936 C932 1.385 . S
C936 C935 1.374 . S
C937 C934 1.499 . S
C937 C938 1.373 . S
C937 C939 1.389 . S
C938 H911 0.950 . S
C938 C924 1.377 . S
C938 C937 1.373 . S
C939 C923 1.377 . S
C939 C937 1.389 . S
C939 C940 1.524 . S
C940 C939 1.524 . S
C940 C941 1.397 . S
C940 C945 1.363 . S
C941 H912 0.950 . S
C941 C940 1.397 . S
C941 C942 1.334 . S
C942 H913 0.950 1_455 S
C942 C941 1.334 . S
C942 C943 1.287 . S
C943 C942 1.287 . S
C943 C944 1.524 . S
C943 H946 0.999 . S
C944 H914 0.950 . S
C944 C943 1.524 . S
C944 C945 1.415 . S
C945 H915 0.950 . S
C945 C940 1.363 . S
C945 C944 1.415 . S
H946 C943 0.999 . S
H947 C928 0.913 . S
H948 C966 0.951 . S
H949 C968 0.951 . S
H950 C970 0.950 . S
H951 C971 0.950 . S
H952 C973 0.950 . S
H953 C976 0.950 . S
H954 C977 0.950 . S
H955 C979 0.950 . S
H956 C980 0.950 . S
H957 C981 0.951 . S
H958 C983 0.951 . S
H959 C985 0.950 . S
H960 C986 0.950 . S
H961 C988 0.950 . S
H962 C991 0.950 . S
H963 C992 0.950 . S
H964 C994 0.950 . S
H965 C995 0.950 . S
C966 H948 0.951 . S
C966 C967 1.366 . S
C966 C968 1.388 . S
C967 C966 1.366 . S
C967 C971 1.385 . S
C968 H949 0.951 . S
C968 C966 1.388 . S
C968 C969 1.366 . S
C969 C968 1.366 . S
C969 C970 1.414 . S
C969 C972 1.499 . S
C970 H950 0.950 . S
C970 C969 1.414 . S
C970 C971 1.374 . S
C971 H951 0.950 . S
C971 C967 1.385 . S
C971 C970 1.374 . S
C972 C969 1.499 . S
C972 C973 1.373 . S
C972 C974 1.389 . S
C973 H952 0.950 . S
C973 C972 1.373 . S
C973 C989 1.377 . S
C974 C972 1.389 . S
C974 C975 1.524 . S
C974 C988 1.377 . S
C975 C974 1.524 . S
C975 C976 1.397 . S
C975 C980 1.363 . S
C976 H953 0.950 . S
C976 C975 1.397 . S
C976 C977 1.334 . S
C977 H954 0.950 . S
C977 C976 1.334 . S
C977 C978 1.287 . S
C978 C977 1.287 . S
C978 C979 1.524 . S
C978 H997 0.913 . S
C979 H955 0.950 . S
C979 C978 1.524 . S
C979 C980 1.415 . S
C980 H956 0.950 . S
C980 C975 1.363 . S
C980 C979 1.415 . S
C981 H957 0.951 . S
C981 C982 1.366 . S
C981 C983 1.388 . S
C982 C981 1.366 . S
C982 C986 1.385 . S
C983 H958 0.951 . S
C983 C981 1.388 . S
C983 C984 1.366 . S
C984 C983 1.366 . S
C984 C985 1.414 . S
C984 C987 1.499 . S
C985 H959 0.950 . S
C985 C984 1.414 . S
C985 C986 1.374 . S
C986 H960 0.950 . S
C986 C982 1.385 . S
C986 C985 1.374 . S
C987 C984 1.499 . S
C987 C988 1.373 . S
C987 C989 1.389 . S
C988 H961 0.950 . S
C988 C974 1.377 . S
C988 C987 1.373 . S
C989 C973 1.377 . S
C989 C987 1.389 . S
C989 C990 1.524 . S
C990 C989 1.524 . S
C990 C991 1.397 . S
C990 C995 1.363 . S
C991 H962 0.950 . S
C991 C990 1.397 . S
C991 C992 1.334 . S
C992 H963 0.950 . S
C992 C991 1.334 . S
C992 C993 1.287 . S
C993 C992 1.287 . S
C993 C994 1.524 . S
C993 H996 0.999 . S
C994 H964 0.950 . S
C994 C993 1.524 . S
C994 C995 1.415 . S
C995 H965 0.950 . S
C995 C990 1.363 . S
C995 C994 1.415 . S
H996 C993 0.999 . S
H997 C978 0.913 . S
H998 C1016 0.951 . S
H999 C1018 0.951 . S
H1000 C1020 0.950 . S
H1001 C1021 0.950 . S
H1002 C1023 0.950 . S
H1003 C1026 0.950 . S
H1004 C1027 0.950 . S
H1005 C1029 0.950 . S
H1006 C1030 0.950 . S
H1007 C1031 0.951 . S
H1008 C1033 0.951 . S
H1009 C1035 0.950 . S
H1010 C1036 0.950 . S
H1011 C1038 0.950 . S
H1012 C1041 0.950 . S
H1013 C1042 0.950 . S
H1014 C1044 0.950 . S
H1015 C1045 0.950 . S
C1016 H998 0.951 . S
C1016 C1017 1.366 . S
C1016 C1018 1.388 . S
C1017 C1016 1.366 . S
C1017 C1021 1.385 . S
C1018 H999 0.951 . S
C1018 C1016 1.388 . S
C1018 C1019 1.366 . S
C1019 C1018 1.366 . S
C1019 C1020 1.414 . S
C1019 C1022 1.499 . S
C1020 H1000 0.950 . S
C1020 C1019 1.414 . S
C1020 C1021 1.374 . S
C1021 H1001 0.950 . S
C1021 C1017 1.385 . S
C1021 C1020 1.374 . S
C1022 C1019 1.499 . S
C1022 C1023 1.373 . S
C1022 C1024 1.389 . S
C1023 H1002 0.950 . S
C1023 C1022 1.373 . S
C1023 C1039 1.377 . S
C1024 C1022 1.389 . S
C1024 C1025 1.524 . S
C1024 C1038 1.377 . S
C1025 C1024 1.524 . S
C1025 C1026 1.397 . S
C1025 C1030 1.363 . S
C1026 H1003 0.950 . S
C1026 C1025 1.397 . S
C1026 C1027 1.334 . S
C1027 H1004 0.950 . S
C1027 C1026 1.334 . S
C1027 C1028 1.287 . S
C1028 C1027 1.287 . S
C1028 C1029 1.524 . S
C1028 H1047 0.943 . S
C1029 H1005 0.950 . S
C1029 C1028 1.524 . S
C1029 C1030 1.415 . S
C1030 H1006 0.950 . S
C1030 C1025 1.363 . S
C1030 C1029 1.415 . S
C1031 H1007 0.951 . S
C1031 C1032 1.366 . S
C1031 C1033 1.388 . S
C1032 C1031 1.366 . S
C1032 C1036 1.385 . S
C1033 H1008 0.951 . S
C1033 C1031 1.388 . S
C1033 C1034 1.366 . S
C1034 C1033 1.366 . S
C1034 C1035 1.414 . S
C1034 C1037 1.499 . S
C1035 H1009 0.950 . S
C1035 C1034 1.414 . S
C1035 C1036 1.374 . S
C1036 H1010 0.950 . S
C1036 C1032 1.385 . S
C1036 C1035 1.374 . S
C1037 C1034 1.499 . S
C1037 C1038 1.373 . S
C1037 C1039 1.389 . S
C1038 H1011 0.950 . S
C1038 C1024 1.377 . S
C1038 C1037 1.373 . S
C1039 C1023 1.377 . S
C1039 C1037 1.389 . S
C1039 C1040 1.524 . S
C1040 C1039 1.524 . S
C1040 C1041 1.397 . S
C1040 C1045 1.363 . S
C1041 H1012 0.950 . S
C1041 C1040 1.397 . S
C1041 C1042 1.334 . S
C1042 H1013 0.950 . S
C1042 C1041 1.334 . S
C1042 C1043 1.287 . S
C1043 C1042 1.287 . S
C1043 C1044 1.524 . S
C1043 H1046 0.999 . S
C1044 H1014 0.950 . S
C1044 C1043 1.524 . S
C1044 C1045 1.415 . S
C1045 H1015 0.950 . S
C1045 C1040 1.363 . S
C1045 C1044 1.415 . S
H1046 C1043 0.999 . S
H1047 C1028 0.943 . S
H1048 C1066 0.951 . S
H1049 C1068 0.951 . S
H1050 C1070 0.950 . S
H1051 C1071 0.950 . S
H1052 C1073 0.950 . S
H1053 C1076 0.950 . S
H1054 C1077 0.950 . S
H1055 C1079 0.950 . S
H1056 C1080 0.950 . S
H1057 C1081 0.951 . S
H1058 C1083 0.951 . S
H1059 C1085 0.950 . S
H1060 C1086 0.950 . S
H1061 C1088 0.950 . S
H1062 C1091 0.950 . S
H1063 C1092 0.950 . S
H1064 C1094 0.950 . S
H1065 C1095 0.950 . S
C1066 H1048 0.951 . S
C1066 C1067 1.366 . S
C1066 C1068 1.388 . S
C1067 C1066 1.366 . S
C1067 C1071 1.385 . S
C1068 H1049 0.951 . S
C1068 C1066 1.388 . S
C1068 C1069 1.366 . S
C1069 C1068 1.366 . S
C1069 C1070 1.414 . S
C1069 C1072 1.499 . S
C1070 H1050 0.950 . S
C1070 C1069 1.414 . S
C1070 C1071 1.374 . S
C1071 H1051 0.950 . S
C1071 C1067 1.385 . S
C1071 C1070 1.374 . S
C1072 C1069 1.499 . S
C1072 C1073 1.373 . S
C1072 C1074 1.389 . S
C1073 H1052 0.950 . S
C1073 C1072 1.373 . S
C1073 C1089 1.377 . S
C1074 C1072 1.389 . S
C1074 C1075 1.524 . S
C1074 C1088 1.377 . S
C1075 C1074 1.524 . S
C1075 C1076 1.397 . S
C1075 C1080 1.363 . S
C1076 H1053 0.950 . S
C1076 C1075 1.397 . S
C1076 C1077 1.334 . S
C1077 H1054 0.950 . S
C1077 C1076 1.334 . S
C1077 C1078 1.287 . S
C1078 C1077 1.287 . S
C1078 C1079 1.524 . S
C1078 H1097 0.913 . S
C1079 H1055 0.950 . S
C1079 C1078 1.524 . S
C1079 C1080 1.415 . S
C1080 H1056 0.950 . S
C1080 C1075 1.363 . S
C1080 C1079 1.415 . S
C1081 H1057 0.951 . S
C1081 C1082 1.366 . S
C1081 C1083 1.388 . S
C1082 C1081 1.366 . S
C1082 C1086 1.385 . S
C1083 H1058 0.951 . S
C1083 C1081 1.388 . S
C1083 C1084 1.366 . S
C1084 C1083 1.366 . S
C1084 C1085 1.414 . S
C1084 C1087 1.499 . S
C1085 H1059 0.950 . S
C1085 C1084 1.414 . S
C1085 C1086 1.374 . S
C1086 H1060 0.950 . S
C1086 C1082 1.385 . S
C1086 C1085 1.374 . S
C1087 C1084 1.499 . S
C1087 C1088 1.373 . S
C1087 C1089 1.389 . S
C1088 H1061 0.950 . S
C1088 C1074 1.377 . S
C1088 C1087 1.373 . S
C1089 C1073 1.377 . S
C1089 C1087 1.389 . S
C1089 C1090 1.524 . S
C1090 C1089 1.524 . S
C1090 C1091 1.397 . S
C1090 C1095 1.363 . S
C1091 H1062 0.950 . S
C1091 C1090 1.397 . S
C1091 C1092 1.334 . S
C1092 H1063 0.950 . S
C1092 C1091 1.334 . S
C1092 C1093 1.287 . S
C1093 C1092 1.287 . S
C1093 C1094 1.524 . S
C1093 H1096 0.999 . S
C1094 H1064 0.950 . S
C1094 C1093 1.524 . S
C1094 C1095 1.415 . S
C1095 H1065 0.950 . S
C1095 C1090 1.363 . S
C1095 C1094 1.415 . S
H1096 C1093 0.999 . S
H1097 C1078 0.913 . S
H1098 C1116 0.951 . S
H1099 C1118 0.951 . S
H1100 C1120 0.950 . S
H1101 C1121 0.950 . S
H1102 C1123 0.950 . S
H1103 C1126 0.950 . S
H1104 C1127 0.950 . S
H1105 C1129 0.950 . S
H1106 C1130 0.950 . S
H1107 C1131 0.951 . S
H1108 C1133 0.951 . S
H1109 C1135 0.950 . S
H1110 C1136 0.950 . S
H1111 C1138 0.950 . S
H1112 C1141 0.950 . S
H1113 C1142 0.950 . S
H1114 C1144 0.950 . S
H1115 C1145 0.950 . S
C1116 H1098 0.951 . S
C1116 C1117 1.366 . S
C1116 C1118 1.388 . S
C1117 C1116 1.366 . S
C1117 C1121 1.385 . S
C1118 H1099 0.951 . S
C1118 C1116 1.388 . S
C1118 C1119 1.366 . S
C1119 C1118 1.366 . S
C1119 C1120 1.414 . S
C1119 C1122 1.499 . S
C1120 H1100 0.950 . S
C1120 C1119 1.414 . S
C1120 C1121 1.374 . S
C1121 H1101 0.950 . S
C1121 C1117 1.385 . S
C1121 C1120 1.374 . S
C1122 C1119 1.499 . S
C1122 C1123 1.373 . S
C1122 C1124 1.389 . S
C1123 H1102 0.950 . S
C1123 C1122 1.373 . S
C1123 C1139 1.377 . S
C1124 C1122 1.389 . S
C1124 C1125 1.524 . S
C1124 C1138 1.377 . S
C1125 C1124 1.524 . S
C1125 C1126 1.397 . S
C1125 C1130 1.363 . S
C1126 H1103 0.950 . S
C1126 C1125 1.397 . S
C1126 C1127 1.334 . S
C1127 H1104 0.950 . S
C1127 C1126 1.334 . S
C1127 C1128 1.287 . S
C1128 C1127 1.287 . S
C1128 C1129 1.524 . S
C1128 H1147 0.913 . S
C1129 H1105 0.950 . S
C1129 C1128 1.524 . S
C1129 C1130 1.415 . S
C1130 H1106 0.950 . S
C1130 C1125 1.363 . S
C1130 C1129 1.415 . S
C1131 H1107 0.951 . S
C1131 C1132 1.366 . S
C1131 C1133 1.388 . S
C1132 C1131 1.366 . S
C1132 C1136 1.385 . S
C1133 H1108 0.951 . S
C1133 C1131 1.388 . S
C1133 C1134 1.366 . S
C1134 C1133 1.366 . S
C1134 C1135 1.414 . S
C1134 C1137 1.499 . S
C1135 H1109 0.950 . S
C1135 C1134 1.414 . S
C1135 C1136 1.374 . S
C1136 H1110 0.950 . S
C1136 C1132 1.385 . S
C1136 C1135 1.374 . S
C1137 C1134 1.499 . S
C1137 C1138 1.373 . S
C1137 C1139 1.389 . S
C1138 H1111 0.950 . S
C1138 C1124 1.377 . S
C1138 C1137 1.373 . S
C1139 C1123 1.377 . S
C1139 C1137 1.389 . S
C1139 C1140 1.524 . S
C1140 C1139 1.524 . S
C1140 C1141 1.397 . S
C1140 C1145 1.363 . S
C1141 H1112 0.950 . S
C1141 C1140 1.397 . S
C1141 C1142 1.334 . S
C1142 H1113 0.950 . S
C1142 C1141 1.334 . S
C1142 C1143 1.287 . S
C1143 C1142 1.287 . S
C1143 C1144 1.524 . S
C1143 H1146 0.999 . S
C1144 H1114 0.950 . S
C1144 C1143 1.524 . S
C1144 C1145 1.415 . S
C1145 H1115 0.950 . S
C1145 C1140 1.363 . S
C1145 C1144 1.415 . S
H1146 C1143 0.999 . S
H1147 C1128 0.913 . S
H1148 C1166 0.951 . S
H1149 C1168 0.951 . S
H1150 C1170 0.950 . S
H1151 C1171 0.950 . S
H1152 C1173 0.950 . S
H1153 C1176 0.950 . S
H1154 C1177 0.950 . S
H1155 C1179 0.950 . S
H1156 C1180 0.950 . S
H1157 C1181 0.951 . S
H1158 C1183 0.951 . S
H1159 C1185 0.950 . S
H1160 C1186 0.950 . S
H1161 C1188 0.950 . S
H1162 C1191 0.950 . S
H1163 C1192 0.950 . S
H1164 C1194 0.950 . S
H1165 C1195 0.950 . S
C1166 H1148 0.951 . S
C1166 C1167 1.366 . S
C1166 C1168 1.388 . S
C1167 C1166 1.366 . S
C1167 C1171 1.385 . S
C1168 H1149 0.951 . S
C1168 C1166 1.388 . S
C1168 C1169 1.366 . S
C1169 C1168 1.366 . S
C1169 C1170 1.414 . S
C1169 C1172 1.499 . S
C1170 H1150 0.950 . S
C1170 C1169 1.414 . S
C1170 C1171 1.374 . S
C1171 H1151 0.950 . S
C1171 C1167 1.385 . S
C1171 C1170 1.374 . S
C1172 C1169 1.499 . S
C1172 C1173 1.373 . S
C1172 C1174 1.389 . S
C1173 H1152 0.950 . S
C1173 C1172 1.373 . S
C1173 C1189 1.377 . S
C1174 C1172 1.389 . S
C1174 C1175 1.524 . S
C1174 C1188 1.377 . S
C1175 C1174 1.524 . S
C1175 C1176 1.397 . S
C1175 C1180 1.363 . S
C1176 H1153 0.950 . S
C1176 C1175 1.397 . S
C1176 C1177 1.334 . S
C1177 H1154 0.950 . S
C1177 C1176 1.334 . S
C1177 C1178 1.287 . S
C1178 C1177 1.287 . S
C1178 C1179 1.524 . S
C1178 H1197 0.913 . S
C1179 H1155 0.950 . S
C1179 C1178 1.524 . S
C1179 C1180 1.415 . S
C1180 H1156 0.950 . S
C1180 C1175 1.363 . S
C1180 C1179 1.415 . S
C1181 H1157 0.951 . S
C1181 C1182 1.366 . S
C1181 C1183 1.388 . S
C1182 C1181 1.366 . S
C1182 C1186 1.385 . S
C1183 H1158 0.951 . S
C1183 C1181 1.388 . S
C1183 C1184 1.366 . S
C1184 C1183 1.366 . S
C1184 C1185 1.414 . S
C1184 C1187 1.499 . S
C1185 H1159 0.950 . S
C1185 C1184 1.414 . S
C1185 C1186 1.374 . S
C1186 H1160 0.950 . S
C1186 C1182 1.385 . S
C1186 C1185 1.374 . S
C1187 C1184 1.499 . S
C1187 C1188 1.373 . S
C1187 C1189 1.389 . S
C1188 H1161 0.950 . S
C1188 C1174 1.377 . S
C1188 C1187 1.373 . S
C1189 C1173 1.377 . S
C1189 C1187 1.389 . S
C1189 C1190 1.524 . S
C1190 C1189 1.524 . S
C1190 C1191 1.397 . S
C1190 C1195 1.363 . S
C1191 H1162 0.950 . S
C1191 C1190 1.397 . S
C1191 C1192 1.334 . S
C1192 H1163 0.950 . S
C1192 C1191 1.334 . S
C1192 C1193 1.287 . S
C1193 C1192 1.287 . S
C1193 C1194 1.524 . S
C1193 H1196 0.999 . S
C1194 H1164 0.950 . S
C1194 C1193 1.524 . S
C1194 C1195 1.415 . S
C1195 H1165 0.950 . S
C1195 C1190 1.363 . S
C1195 C1194 1.415 . S
H1196 C1193 0.999 . S
H1197 C1178 0.913 . S
H1198 C1216 0.951 . S
H1199 C1218 0.951 . S
H1200 C1220 0.950 . S
H1201 C1221 0.950 . S
H1202 C1223 0.950 . S
H1203 C1226 0.950 . S
H1204 C1227 0.950 . S
H1205 C1229 0.950 . S
H1206 C1230 0.950 . S
H1207 C1231 0.951 1_655 S
H1208 C1233 0.951 . S
H1209 C1235 0.950 . S
H1210 C1236 0.950 . S
H1211 C1238 0.950 . S
H1212 C1241 0.950 . S
H1213 C1242 0.950 . S
H1214 C1244 0.950 . S
H1215 C1245 0.950 . S
C1216 H1198 0.951 . S
C1216 C1217 1.366 . S
C1216 C1218 1.388 . S
C1217 C1216 1.366 . S
C1217 C1221 1.385 . S
C1218 H1199 0.951 . S
C1218 C1216 1.388 . S
C1218 C1219 1.366 . S
C1219 C1218 1.366 . S
C1219 C1220 1.414 . S
C1219 C1222 1.499 . S
C1220 H1200 0.950 . S
C1220 C1219 1.414 . S
C1220 C1221 1.374 . S
C1221 H1201 0.950 . S
C1221 C1217 1.385 . S
C1221 C1220 1.374 . S
C1222 C1219 1.499 . S
C1222 C1223 1.373 . S
C1222 C1224 1.389 . S
C1223 H1202 0.950 . S
C1223 C1222 1.373 . S
C1223 C1239 1.377 . S
C1224 C1222 1.389 . S
C1224 C1225 1.524 . S
C1224 C1238 1.377 . S
C1225 C1224 1.524 . S
C1225 C1226 1.397 . S
C1225 C1230 1.363 . S
C1226 H1203 0.950 . S
C1226 C1225 1.397 . S
C1226 C1227 1.334 . S
C1227 H1204 0.950 . S
C1227 C1226 1.334 . S
C1227 C1228 1.287 . S
C1228 C1227 1.287 . S
C1228 C1229 1.524 . S
C1228 H1247 0.913 . S
C1229 H1205 0.950 . S
C1229 C1228 1.524 . S
C1229 C1230 1.415 . S
C1230 H1206 0.950 . S
C1230 C1225 1.363 . S
C1230 C1229 1.415 . S
C1231 H1207 0.951 1_455 S
C1231 C1232 1.366 . S
C1231 C1233 1.388 . S
C1232 C1231 1.366 . S
C1232 C1236 1.385 . S
C1233 H1208 0.951 . S
C1233 C1231 1.388 . S
C1233 C1234 1.366 . S
C1234 C1233 1.366 . S
C1234 C1235 1.414 . S
C1234 C1237 1.499 . S
C1235 H1209 0.950 . S
C1235 C1234 1.414 . S
C1235 C1236 1.374 . S
C1236 H1210 0.950 . S
C1236 C1232 1.385 . S
C1236 C1235 1.374 . S
C1237 C1234 1.499 . S
C1237 C1238 1.373 . S
C1237 C1239 1.389 . S
C1238 H1211 0.950 . S
C1238 C1224 1.377 . S
C1238 C1237 1.373 . S
C1239 C1223 1.377 . S
C1239 C1237 1.389 . S
C1239 C1240 1.524 . S
C1240 C1239 1.524 . S
C1240 C1241 1.397 . S
C1240 C1245 1.363 . S
C1241 H1212 0.950 . S
C1241 C1240 1.397 . S
C1241 C1242 1.334 . S
C1242 H1213 0.950 . S
C1242 C1241 1.334 . S
C1242 C1243 1.287 . S
C1243 C1242 1.287 . S
C1243 C1244 1.524 . S
C1243 H1246 0.999 . S
C1244 H1214 0.950 . S
C1244 C1243 1.524 . S
C1244 C1245 1.415 . S
C1245 H1215 0.950 . S
C1245 C1240 1.363 . S
C1245 C1244 1.415 . S
H1246 C1243 0.999 . S
H1247 C1228 0.913 . S
H1248 C1266 0.951 . S
H1249 C1268 0.951 . S
H1250 C1270 0.950 . S
H1251 C1271 0.950 . S
H1252 C1273 0.950 . S
H1253 C1276 0.950 . S
H1254 C1277 0.950 . S
H1255 C1279 0.950 . S
H1256 C1280 0.950 . S
H1257 C1281 0.951 . S
H1258 C1283 0.951 . S
H1259 C1285 0.950 . S
H1260 C1286 0.950 . S
H1261 C1288 0.950 . S
H1262 C1291 0.950 . S
H1263 C1292 0.950 . S
H1264 C1294 0.950 . S
H1265 C1295 0.950 . S
C1266 H1248 0.951 . S
C1266 C1267 1.366 . S
C1266 C1268 1.388 . S
C1267 C1266 1.366 . S
C1267 C1271 1.385 . S
C1268 H1249 0.951 . S
C1268 C1266 1.388 . S
C1268 C1269 1.366 . S
C1269 C1268 1.366 . S
C1269 C1270 1.414 . S
C1269 C1272 1.499 . S
C1270 H1250 0.950 . S
C1270 C1269 1.414 . S
C1270 C1271 1.374 . S
C1271 H1251 0.950 . S
C1271 C1267 1.385 . S
C1271 C1270 1.374 . S
C1272 C1269 1.499 . S
C1272 C1273 1.373 . S
C1272 C1274 1.389 . S
C1273 H1252 0.950 . S
C1273 C1272 1.373 . S
C1273 C1289 1.377 . S
C1274 C1272 1.389 . S
C1274 C1275 1.524 . S
C1274 C1288 1.377 . S
C1275 C1274 1.524 . S
C1275 C1276 1.397 . S
C1275 C1280 1.363 . S
C1276 H1253 0.950 . S
C1276 C1275 1.397 . S
C1276 C1277 1.334 . S
C1277 H1254 0.950 . S
C1277 C1276 1.334 . S
C1277 C1278 1.287 . S
C1278 C1277 1.287 . S
C1278 C1279 1.524 . S
C1278 H1297 0.913 . S
C1279 H1255 0.950 . S
C1279 C1278 1.524 . S
C1279 C1280 1.415 . S
C1280 H1256 0.950 . S
C1280 C1275 1.363 . S
C1280 C1279 1.415 . S
C1281 H1257 0.951 . S
C1281 C1282 1.366 . S
C1281 C1283 1.388 . S
C1282 C1281 1.366 . S
C1282 C1286 1.385 . S
C1283 H1258 0.951 . S
C1283 C1281 1.388 . S
C1283 C1284 1.366 . S
C1284 C1283 1.366 . S
C1284 C1285 1.414 . S
C1284 C1287 1.499 . S
C1285 H1259 0.950 . S
C1285 C1284 1.414 . S
C1285 C1286 1.374 . S
C1286 H1260 0.950 . S
C1286 C1282 1.385 . S
C1286 C1285 1.374 . S
C1287 C1284 1.499 . S
C1287 C1288 1.373 . S
C1287 C1289 1.389 . S
C1288 H1261 0.950 . S
C1288 C1274 1.377 . S
C1288 C1287 1.373 . S
C1289 C1273 1.377 . S
C1289 C1287 1.389 . S
C1289 C1290 1.524 . S
C1290 C1289 1.524 . S
C1290 C1291 1.397 . S
C1290 C1295 1.363 . S
C1291 H1262 0.950 . S
C1291 C1290 1.397 . S
C1291 C1292 1.334 . S
C1292 H1263 0.950 . S
C1292 C1291 1.334 . S
C1292 C1293 1.287 . S
C1293 C1292 1.287 . S
C1293 C1294 1.524 . S
C1293 H1296 0.999 . S
C1294 H1264 0.950 . S
C1294 C1293 1.524 . S
C1294 C1295 1.415 . S
C1295 H1265 0.950 . S
C1295 C1290 1.363 . S
C1295 C1294 1.415 . S
H1296 C1293 0.999 . S
H1297 C1278 0.913 . S
H1298 C1316 0.951 . S
H1299 C1318 0.951 . S
H1300 C1320 0.950 . S
H1301 C1321 0.950 . S
H1302 C1323 0.950 . S
H1303 C1326 0.950 . S
H1304 C1327 0.950 . S
H1305 C1329 0.950 . S
H1306 C1330 0.950 . S
H1307 C1331 0.951 . S
H1308 C1333 0.951 . S
H1309 C1335 0.950 . S
H1310 C1336 0.950 . S
H1311 C1338 0.950 . S
H1312 C1341 0.950 . S
H1313 C1342 0.950 . S
H1314 C1344 0.950 . S
H1315 C1345 0.950 . S
C1316 H1298 0.951 . S
C1316 C1317 1.366 . S
C1316 C1318 1.388 . S
C1317 C1316 1.366 . S
C1317 C1321 1.385 . S
C1318 H1299 0.951 . S
C1318 C1316 1.388 . S
C1318 C1319 1.366 . S
C1319 C1318 1.366 . S
C1319 C1320 1.414 . S
C1319 C1322 1.499 . S
C1320 H1300 0.950 . S
C1320 C1319 1.414 . S
C1320 C1321 1.374 . S
C1321 H1301 0.950 . S
C1321 C1317 1.385 . S
C1321 C1320 1.374 . S
C1322 C1319 1.499 . S
C1322 C1323 1.373 . S
C1322 C1324 1.389 . S
C1323 H1302 0.950 . S
C1323 C1322 1.373 . S
C1323 C1339 1.377 . S
C1324 C1322 1.389 . S
C1324 C1325 1.524 . S
C1324 C1338 1.377 . S
C1325 C1324 1.524 . S
C1325 C1326 1.397 . S
C1325 C1330 1.363 . S
C1326 H1303 0.950 . S
C1326 C1325 1.397 . S
C1326 C1327 1.334 . S
C1327 H1304 0.950 . S
C1327 C1326 1.334 . S
C1327 C1328 1.287 . S
C1328 C1327 1.287 . S
C1328 C1329 1.524 . S
C1328 H1347 0.913 . S
C1329 H1305 0.950 . S
C1329 C1328 1.524 . S
C1329 C1330 1.415 . S
C1330 H1306 0.950 . S
C1330 C1325 1.363 . S
C1330 C1329 1.415 . S
C1331 H1307 0.951 . S
C1331 C1332 1.366 . S
C1331 C1333 1.388 . S
C1332 C1331 1.366 . S
C1332 C1336 1.385 . S
C1333 H1308 0.951 . S
C1333 C1331 1.388 . S
C1333 C1334 1.366 . S
C1334 C1333 1.366 . S
C1334 C1335 1.414 . S
C1334 C1337 1.499 . S
C1335 H1309 0.950 . S
C1335 C1334 1.414 . S
C1335 C1336 1.374 . S
C1336 H1310 0.950 . S
C1336 C1332 1.385 . S
C1336 C1335 1.374 . S
C1337 C1334 1.499 . S
C1337 C1338 1.373 . S
C1337 C1339 1.389 . S
C1338 H1311 0.950 . S
C1338 C1324 1.377 . S
C1338 C1337 1.373 . S
C1339 C1323 1.377 . S
C1339 C1337 1.389 . S
C1339 C1340 1.524 . S
C1340 C1339 1.524 . S
C1340 C1341 1.397 . S
C1340 C1345 1.363 . S
C1341 H1312 0.950 . S
C1341 C1340 1.397 . S
C1341 C1342 1.334 . S
C1342 H1313 0.950 . S
C1342 C1341 1.334 . S
C1342 C1343 1.287 . S
C1343 C1342 1.287 . S
C1343 C1344 1.524 . S
C1343 H1346 0.999 . S
C1344 H1314 0.950 . S
C1344 C1343 1.524 . S
C1344 C1345 1.415 . S
C1345 H1315 0.950 . S
C1345 C1340 1.363 . S
C1345 C1344 1.415 . S
H1346 C1343 0.999 . S
H1347 C1328 0.913 . S
H1348 C1366 0.951 . S
H1349 C1368 0.951 . S
H1350 C1370 0.950 . S
H1351 C1371 0.950 . S
H1352 C1373 0.950 . S
H1353 C1376 0.950 . S
H1354 C1377 0.950 . S
H1355 C1379 0.950 . S
H1356 C1380 0.950 . S
H1357 C1381 0.951 . S
H1358 C1383 0.951 . S
H1359 C1385 0.950 . S
H1360 C1386 0.950 . S
H1361 C1388 0.950 . S
H1362 C1391 0.950 . S
H1363 C1392 0.950 . S
H1364 C1394 0.950 . S
H1365 C1395 0.950 . S
C1366 H1348 0.951 . S
C1366 C1367 1.366 . S
C1366 C1368 1.388 . S
C1367 C1366 1.366 . S
C1367 C1371 1.385 . S
C1368 H1349 0.951 . S
C1368 C1366 1.388 . S
C1368 C1369 1.366 . S
C1369 C1368 1.366 . S
C1369 C1370 1.414 . S
C1369 C1372 1.499 . S
C1370 H1350 0.950 . S
C1370 C1369 1.414 . S
C1370 C1371 1.374 . S
C1371 H1351 0.950 . S
C1371 C1367 1.385 . S
C1371 C1370 1.374 . S
C1372 C1369 1.499 . S
C1372 C1373 1.373 . S
C1372 C1374 1.389 . S
C1373 H1352 0.950 . S
C1373 C1372 1.373 . S
C1373 C1389 1.377 . S
C1374 C1372 1.389 . S
C1374 C1375 1.524 . S
C1374 C1388 1.377 . S
C1375 C1374 1.524 . S
C1375 C1376 1.397 . S
C1375 C1380 1.363 . S
C1376 H1353 0.950 . S
C1376 C1375 1.397 . S
C1376 C1377 1.334 . S
C1377 H1354 0.950 . S
C1377 C1376 1.334 . S
C1377 C1378 1.287 . S
C1378 C1377 1.287 . S
C1378 C1379 1.524 . S
C1378 H1397 0.913 . S
C1379 H1355 0.950 . S
C1379 C1378 1.524 . S
C1379 C1380 1.415 . S
C1380 H1356 0.950 . S
C1380 C1375 1.363 . S
C1380 C1379 1.415 . S
C1381 H1357 0.951 . S
C1381 C1382 1.366 . S
C1381 C1383 1.388 . S
C1382 C1381 1.366 . S
C1382 C1386 1.385 . S
C1383 H1358 0.951 . S
C1383 C1381 1.388 . S
C1383 C1384 1.366 . S
C1384 C1383 1.366 . S
C1384 C1385 1.414 . S
C1384 C1387 1.499 . S
C1385 H1359 0.950 . S
C1385 C1384 1.414 . S
C1385 C1386 1.374 . S
C1386 H1360 0.950 . S
C1386 C1382 1.385 . S
C1386 C1385 1.374 . S
C1387 C1384 1.499 . S
C1387 C1388 1.373 . S
C1387 C1389 1.389 . S
C1388 H1361 0.950 . S
C1388 C1374 1.377 . S
C1388 C1387 1.373 . S
C1389 C1373 1.377 . S
C1389 C1387 1.389 . S
C1389 C1390 1.524 . S
C1390 C1389 1.524 . S
C1390 C1391 1.397 . S
C1390 C1395 1.363 . S
C1391 H1362 0.950 . S
C1391 C1390 1.397 . S
C1391 C1392 1.334 . S
C1392 H1363 0.950 . S
C1392 C1391 1.334 . S
C1392 C1393 1.287 . S
C1393 C1392 1.287 . S
C1393 C1394 1.524 . S
C1393 H1396 0.999 . S
C1394 H1364 0.950 . S
C1394 C1393 1.524 . S
C1394 C1395 1.415 . S
C1395 H1365 0.950 . S
C1395 C1390 1.363 . S
C1395 C1394 1.415 . S
H1396 C1393 0.999 . S
H1397 C1378 0.913 . S
H1398 C1416 0.951 . S
H1399 C1418 0.951 . S
H1400 C1420 0.950 . S
H1401 C1421 0.950 . S
H1402 C1423 0.950 . S
H1403 C1426 0.950 . S
H1404 C1427 0.950 . S
H1405 C1429 0.950 . S
H1406 C1430 0.950 . S
H1407 C1431 0.951 . S
H1408 C1433 0.951 . S
H1409 C1435 0.950 . S
H1410 C1436 0.950 . S
H1411 C1438 0.950 . S
H1412 C1441 0.950 . S
H1413 C1442 0.950 1_655 S
H1414 C1444 0.950 . S
H1415 C1445 0.950 . S
C1416 H1398 0.951 . S
C1416 C1417 1.366 . S
C1416 C1418 1.388 . S
C1417 C1416 1.366 . S
C1417 C1421 1.385 . S
C1418 H1399 0.951 . S
C1418 C1416 1.388 . S
C1418 C1419 1.366 . S
C1419 C1418 1.366 . S
C1419 C1420 1.414 . S
C1419 C1422 1.499 . S
C1420 H1400 0.950 . S
C1420 C1419 1.414 . S
C1420 C1421 1.374 . S
C1421 H1401 0.950 . S
C1421 C1417 1.385 . S
C1421 C1420 1.374 . S
C1422 C1419 1.499 . S
C1422 C1423 1.373 . S
C1422 C1424 1.389 . S
C1423 H1402 0.950 . S
C1423 C1422 1.373 . S
C1423 C1439 1.377 . S
C1424 C1422 1.389 . S
C1424 C1425 1.524 . S
C1424 C1438 1.377 . S
C1425 C1424 1.524 . S
C1425 C1426 1.397 . S
C1425 C1430 1.363 . S
C1426 H1403 0.950 . S
C1426 C1425 1.397 . S
C1426 C1427 1.334 . S
C1427 H1404 0.950 . S
C1427 C1426 1.334 . S
C1427 C1428 1.287 . S
C1428 C1427 1.287 . S
C1428 C1429 1.524 . S
C1428 H1447 0.913 . S
C1429 H1405 0.950 . S
C1429 C1428 1.524 . S
C1429 C1430 1.415 . S
C1430 H1406 0.950 . S
C1430 C1425 1.363 . S
C1430 C1429 1.415 . S
C1431 H1407 0.951 . S
C1431 C1432 1.366 . S
C1431 C1433 1.388 . S
C1432 C1431 1.366 . S
C1432 C1436 1.385 . S
C1433 H1408 0.951 . S
C1433 C1431 1.388 . S
C1433 C1434 1.366 . S
C1434 C1433 1.366 . S
C1434 C1435 1.414 . S
C1434 C1437 1.499 . S
C1435 H1409 0.950 . S
C1435 C1434 1.414 . S
C1435 C1436 1.374 . S
C1436 H1410 0.950 . S
C1436 C1432 1.385 . S
C1436 C1435 1.374 . S
C1437 C1434 1.499 . S
C1437 C1438 1.373 . S
C1437 C1439 1.389 . S
C1438 H1411 0.950 . S
C1438 C1424 1.377 . S
C1438 C1437 1.373 . S
C1439 C1423 1.377 . S
C1439 C1437 1.389 . S
C1439 C1440 1.524 . S
C1440 C1439 1.524 . S
C1440 C1441 1.397 . S
C1440 C1445 1.363 . S
C1441 H1412 0.950 . S
C1441 C1440 1.397 . S
C1441 C1442 1.334 . S
C1442 H1413 0.950 1_455 S
C1442 C1441 1.334 . S
C1442 C1443 1.287 . S
C1443 C1442 1.287 . S
C1443 C1444 1.524 . S
C1443 H1446 0.999 1_455 S
C1444 H1414 0.950 . S
C1444 C1443 1.524 . S
C1444 C1445 1.415 . S
C1445 H1415 0.950 . S
C1445 C1440 1.363 . S
C1445 C1444 1.415 . S
H1446 C1443 0.999 1_655 S
H1447 C1428 0.913 . S
H1448 C1466 0.951 . S
H1449 C1468 0.951 . S
H1450 C1470 0.950 . S
H1451 C1471 0.950 . S
H1452 C1473 0.950 . S
H1453 C1476 0.950 . S
H1454 C1477 0.950 . S
H1455 C1479 0.950 . S
H1456 C1480 0.950 . S
H1457 C1481 0.951 . S
H1458 C1483 0.951 . S
H1459 C1485 0.950 . S
H1460 C1486 0.950 . S
H1461 C1488 0.950 . S
H1462 C1491 0.950 . S
H1463 C1492 0.950 . S
H1464 C1494 0.950 . S
H1465 C1495 0.950 . S
C1466 H1448 0.951 . S
C1466 C1467 1.366 . S
C1466 C1468 1.388 . S
C1467 C1466 1.366 . S
C1467 C1471 1.385 . S
C1468 H1449 0.951 . S
C1468 C1466 1.388 . S
C1468 C1469 1.366 . S
C1469 C1468 1.366 . S
C1469 C1470 1.414 . S
C1469 C1472 1.499 . S
C1470 H1450 0.950 . S
C1470 C1469 1.414 . S
C1470 C1471 1.374 . S
C1471 H1451 0.950 . S
C1471 C1467 1.385 . S
C1471 C1470 1.374 . S
C1472 C1469 1.499 . S
C1472 C1473 1.373 . S
C1472 C1474 1.389 . S
C1473 H1452 0.950 . S
C1473 C1472 1.373 . S
C1473 C1489 1.377 . S
C1474 C1472 1.389 . S
C1474 C1475 1.524 . S
C1474 C1488 1.377 . S
C1475 C1474 1.524 . S
C1475 C1476 1.397 . S
C1475 C1480 1.363 . S
C1476 H1453 0.950 . S
C1476 C1475 1.397 . S
C1476 C1477 1.334 . S
C1477 H1454 0.950 . S
C1477 C1476 1.334 . S
C1477 C1478 1.287 . S
C1478 C1477 1.287 . S
C1478 C1479 1.524 . S
C1478 H1497 0.913 . S
C1479 H1455 0.950 . S
C1479 C1478 1.524 . S
C1479 C1480 1.415 . S
C1480 H1456 0.950 . S
C1480 C1475 1.363 . S
C1480 C1479 1.415 . S
C1481 H1457 0.951 . S
C1481 C1482 1.366 . S
C1481 C1483 1.388 . S
C1482 C1481 1.366 . S
C1482 C1486 1.385 . S
C1483 H1458 0.951 . S
C1483 C1481 1.388 . S
C1483 C1484 1.366 . S
C1484 C1483 1.366 . S
C1484 C1485 1.414 . S
C1484 C1487 1.499 . S
C1485 H1459 0.950 . S
C1485 C1484 1.414 . S
C1485 C1486 1.374 . S
C1486 H1460 0.950 . S
C1486 C1482 1.385 . S
C1486 C1485 1.374 . S
C1487 C1484 1.499 . S
C1487 C1488 1.373 . S
C1487 C1489 1.389 . S
C1488 H1461 0.950 . S
C1488 C1474 1.377 . S
C1488 C1487 1.373 . S
C1489 C1473 1.377 . S
C1489 C1487 1.389 . S
C1489 C1490 1.524 . S
C1490 C1489 1.524 . S
C1490 C1491 1.397 . S
C1490 C1495 1.363 . S
C1491 H1462 0.950 . S
C1491 C1490 1.397 . S
C1491 C1492 1.334 . S
C1492 H1463 0.950 . S
C1492 C1491 1.334 . S
C1492 C1493 1.287 . S
C1493 C1492 1.287 . S
C1493 C1494 1.524 . S
C1493 H1496 0.999 . S
C1494 H1464 0.950 . S
C1494 C1493 1.524 . S
C1494 C1495 1.415 . S
C1495 H1465 0.950 . S
C1495 C1490 1.363 . S
C1495 C1494 1.415 . S
H1496 C1493 0.999 . S
H1497 C1478 0.913 . S
H1498 C1516 0.951 . S
H1499 C1518 0.951 . S
H1500 C1520 0.950 . S
H1501 C1521 0.950 . S
H1502 C1523 0.950 . S
H1503 C1526 0.950 . S
H1504 C1527 0.950 . S
H1505 C1529 0.950 . S
H1506 C1530 0.950 . S
H1507 C1531 0.951 . S
H1508 C1533 0.951 . S
H1509 C1535 0.950 . S
H1510 C1536 0.950 . S
H1511 C1538 0.950 . S
H1512 C1541 0.950 . S
H1513 C1542 0.913 1_655 S
H1514 C1544 0.950 . S
H1515 C1545 0.950 . S
C1516 H1498 0.951 . S
C1516 C1517 1.366 . S
C1516 C1518 1.388 . S
C1517 C1516 1.366 . S
C1517 C1521 1.385 . S
C1518 H1499 0.951 . S
C1518 C1516 1.388 . S
C1518 C1519 1.366 . S
C1519 C1518 1.366 . S
C1519 C1520 1.414 . S
C1519 C1522 1.499 . S
C1520 H1500 0.950 . S
C1520 C1519 1.414 . S
C1520 C1521 1.374 . S
C1521 H1501 0.950 . S
C1521 C1517 1.385 . S
C1521 C1520 1.374 . S
C1522 C1519 1.499 . S
C1522 C1523 1.373 . S
C1522 C1524 1.389 . S
C1523 H1502 0.950 . S
C1523 C1522 1.373 . S
C1523 C1539 1.377 . S
C1524 C1522 1.389 . S
C1524 C1525 1.524 . S
C1524 C1538 1.377 . S
C1525 C1524 1.524 . S
C1525 C1526 1.397 . S
C1525 C1530 1.363 . S
C1526 H1503 0.950 . S
C1526 C1525 1.397 . S
C1526 C1527 1.334 . S
C1527 H1504 0.950 . S
C1527 C1526 1.334 . S
C1527 C1528 1.287 . S
C1528 C1527 1.287 . S
C1528 C1529 1.524 . S
C1528 H1547 0.913 . S
C1529 H1505 0.950 . S
C1529 C1528 1.524 . S
C1529 C1530 1.415 . S
C1530 H1506 0.950 . S
C1530 C1525 1.363 . S
C1530 C1529 1.415 . S
C1531 H1507 0.951 . S
C1531 C1532 1.366 . S
C1531 C1533 1.388 . S
C1532 C1531 1.366 . S
C1532 C1536 1.385 . S
C1533 H1508 0.951 . S
C1533 C1531 1.388 . S
C1533 C1534 1.366 . S
C1534 C1533 1.366 . S
C1534 C1535 1.414 . S
C1534 C1537 1.499 . S
C1535 H1509 0.950 . S
C1535 C1534 1.414 . S
C1535 C1536 1.374 . S
C1536 H1510 0.950 . S
C1536 C1532 1.385 . S
C1536 C1535 1.374 . S
C1537 C1534 1.499 . S
C1537 C1538 1.373 . S
C1537 C1539 1.389 . S
C1538 H1511 0.950 . S
C1538 C1524 1.377 . S
C1538 C1537 1.373 . S
C1539 C1523 1.377 . S
C1539 C1537 1.389 . S
C1539 C1540 1.524 . S
C1540 C1539 1.524 . S
C1540 C1541 1.397 . S
C1540 C1545 1.363 . S
C1541 H1512 0.950 . S
C1541 C1540 1.397 . S
C1541 C1542 1.334 . S
C1542 H1513 0.913 1_455 S
C1542 C1541 1.334 . S
C1542 C1543 1.287 . S
C1543 C1542 1.287 . S
C1543 C1544 1.524 . S
C1543 H1546 0.999 . S
C1544 H1514 0.950 . S
C1544 C1543 1.524 . S
C1544 C1545 1.415 . S
C1545 H1515 0.950 . S
C1545 C1540 1.363 . S
C1545 C1544 1.415 . S
H1546 C1543 0.999 . S
H1547 C1528 0.913 . S
H1548 C1566 0.951 . S
H1549 C1568 0.951 . S
H1550 C1570 0.950 . S
H1551 C1571 0.950 . S
H1552 C1573 0.950 . S
H1553 C1576 0.950 . S
H1554 C1577 0.950 . S
H1555 C1579 0.950 . S
H1556 C1580 0.950 . S
H1557 C1581 0.951 . S
H1558 C1583 0.951 . S
H1559 C1585 0.950 . S
H1560 C1586 0.950 . S
H1561 C1588 0.950 . S
H1562 C1591 0.950 . S
H1563 C1592 0.950 . S
H1564 C1594 0.950 . S
H1565 C1595 0.950 . S
C1566 H1548 0.951 . S
C1566 C1567 1.366 . S
C1566 C1568 1.388 . S
C1567 C1566 1.366 . S
C1567 C1571 1.385 . S
C1568 H1549 0.951 . S
C1568 C1566 1.388 . S
C1568 C1569 1.366 . S
C1569 C1568 1.366 . S
C1569 C1570 1.414 . S
C1569 C1572 1.499 . S
C1570 H1550 0.950 . S
C1570 C1569 1.414 . S
C1570 C1571 1.374 . S
C1571 H1551 0.950 . S
C1571 C1567 1.385 . S
C1571 C1570 1.374 . S
C1572 C1569 1.499 . S
C1572 C1573 1.373 . S
C1572 C1574 1.389 . S
C1573 H1552 0.950 . S
C1573 C1572 1.373 . S
C1573 C1589 1.377 . S
C1574 C1572 1.389 . S
C1574 C1575 1.524 . S
C1574 C1588 1.377 . S
C1575 C1574 1.524 . S
C1575 C1576 1.397 . S
C1575 C1580 1.363 . S
C1576 H1553 0.950 . S
C1576 C1575 1.397 . S
C1576 C1577 1.334 . S
C1577 H1554 0.950 . S
C1577 C1576 1.334 . S
C1577 C1578 1.287 . S
C1578 C1577 1.287 . S
C1578 C1579 1.524 . S
C1578 H1597 0.913 . S
C1579 H1555 0.950 . S
C1579 C1578 1.524 . S
C1579 C1580 1.415 . S
C1580 H1556 0.950 . S
C1580 C1575 1.363 . S
C1580 C1579 1.415 . S
C1581 H1557 0.951 . S
C1581 C1582 1.366 . S
C1581 C1583 1.388 . S
C1582 C1581 1.366 . S
C1582 C1586 1.385 . S
C1583 H1558 0.951 . S
C1583 C1581 1.388 . S
C1583 C1584 1.366 . S
C1584 C1583 1.366 . S
C1584 C1585 1.414 . S
C1584 C1587 1.499 . S
C1585 H1559 0.950 . S
C1585 C1584 1.414 . S
C1585 C1586 1.374 . S
C1586 H1560 0.950 . S
C1586 C1582 1.385 . S
C1586 C1585 1.374 . S
C1587 C1584 1.499 . S
C1587 C1588 1.373 . S
C1587 C1589 1.389 . S
C1588 H1561 0.950 . S
C1588 C1574 1.377 . S
C1588 C1587 1.373 . S
C1589 C1573 1.377 . S
C1589 C1587 1.389 . S
C1589 C1590 1.524 . S
C1590 C1589 1.524 . S
C1590 C1591 1.397 . S
C1590 C1595 1.363 . S
C1591 H1562 0.950 . S
C1591 C1590 1.397 . S
C1591 C1592 1.334 . S
C1592 H1563 0.950 . S
C1592 C1591 1.334 . S
C1592 C1593 1.287 . S
C1593 C1592 1.287 . S
C1593 C1594 1.524 . S
C1593 H1596 0.999 . S
C1594 H1564 0.950 . S
C1594 C1593 1.524 . S
C1594 C1595 1.415 . S
C1595 H1565 0.950 . S
C1595 C1590 1.363 . S
C1595 C1594 1.415 . S
H1596 C1593 0.999 . S
H1597 C1578 0.913 . S
H1598 C1616 0.951 . S
H1599 C1618 0.951 . S
H1600 C1620 0.950 . S
H1601 C1621 0.950 . S
H1602 C1623 0.950 . S
H1603 C1626 0.950 . S
H1604 C1627 0.950 . S
H1605 C1629 0.950 . S
H1606 C1630 0.950 . S
H1607 C1631 0.951 . S
H1608 C1633 0.951 . S
H1609 C1635 0.950 . S
H1610 C1636 0.950 . S
H1611 C1638 0.950 . S
H1612 C1641 0.950 . S
H1613 C1642 0.950 . S
H1614 C1644 0.950 . S
H1615 C1645 0.950 . S
C1616 H1598 0.951 . S
C1616 C1617 1.366 . S
C1616 C1618 1.388 . S
C1617 C1616 1.366 . S
C1617 C1621 1.385 . S
C1618 H1599 0.951 . S
C1618 C1616 1.388 . S
C1618 C1619 1.366 . S
C1619 C1618 1.366 . S
C1619 C1620 1.414 . S
C1619 C1622 1.499 . S
C1620 H1600 0.950 . S
C1620 C1619 1.414 . S
C1620 C1621 1.374 . S
C1621 H1601 0.950 . S
C1621 C1617 1.385 . S
C1621 C1620 1.374 . S
C1622 C1619 1.499 . S
C1622 C1623 1.373 . S
C1622 C1624 1.389 . S
C1623 H1602 0.950 . S
C1623 C1622 1.373 . S
C1623 C1639 1.377 . S
C1624 C1622 1.389 . S
C1624 C1625 1.524 . S
C1624 C1638 1.377 . S
C1625 C1624 1.524 . S
C1625 C1626 1.397 . S
C1625 C1630 1.363 . S
C1626 H1603 0.950 . S
C1626 C1625 1.397 . S
C1626 C1627 1.334 . S
C1627 H1604 0.950 . S
C1627 C1626 1.334 . S
C1627 C1628 1.287 . S
C1628 C1627 1.287 . S
C1628 C1629 1.524 . S
C1628 H1647 0.913 . S
C1629 H1605 0.950 . S
C1629 C1628 1.524 . S
C1629 C1630 1.415 . S
C1630 H1606 0.950 . S
C1630 C1625 1.363 . S
C1630 C1629 1.415 . S
C1631 H1607 0.951 . S
C1631 C1632 1.366 . S
C1631 C1633 1.388 . S
C1632 C1631 1.366 . S
C1632 C1636 1.385 . S
C1633 H1608 0.951 . S
C1633 C1631 1.388 . S
C1633 C1634 1.366 . S
C1634 C1633 1.366 . S
C1634 C1635 1.414 . S
C1634 C1637 1.499 . S
C1635 H1609 0.950 . S
C1635 C1634 1.414 . S
C1635 C1636 1.374 . S
C1636 H1610 0.950 . S
C1636 C1632 1.385 . S
C1636 C1635 1.374 . S
C1637 C1634 1.499 . S
C1637 C1638 1.373 . S
C1637 C1639 1.389 . S
C1638 H1611 0.950 . S
C1638 C1624 1.377 . S
C1638 C1637 1.373 . S
C1639 C1623 1.377 . S
C1639 C1637 1.389 . S
C1639 C1640 1.524 . S
C1640 C1639 1.524 . S
C1640 C1641 1.397 . S
C1640 C1645 1.363 . S
C1641 H1612 0.950 . S
C1641 C1640 1.397 . S
C1641 C1642 1.334 . S
C1642 H1613 0.950 . S
C1642 C1641 1.334 . S
C1642 C1643 1.287 . S
C1643 C1642 1.287 . S
C1643 C1644 1.524 . S
C1643 H1646 0.999 . S
C1644 H1614 0.950 . S
C1644 C1643 1.524 . S
C1644 C1645 1.415 . S
C1645 H1615 0.950 . S
C1645 C1640 1.363 . S
C1645 C1644 1.415 . S
H1646 C1643 0.999 . S
H1647 C1628 0.913 . S
H1648 C1666 0.951 . S
H1649 C1668 0.951 . S
H1650 C1670 0.950 . S
H1651 C1671 0.950 . S
H1652 C1673 0.950 . S
H1653 C1676 0.950 . S
H1654 C1677 0.950 . S
H1655 C1679 0.950 . S
H1656 C1680 0.950 . S
H1657 C1681 0.951 . S
H1658 C1683 0.951 . S
H1659 C1685 0.950 . S
H1660 C1686 0.950 . S
H1661 C1688 0.950 . S
H1662 C1691 0.950 . S
H1663 C1692 0.950 . S
H1664 C1694 0.950 . S
H1665 C1695 0.950 . S
C1666 H1648 0.951 . S
C1666 C1667 1.366 . S
C1666 C1668 1.388 . S
C1667 C1666 1.366 . S
C1667 C1671 1.385 . S
C1668 H1649 0.951 . S
C1668 C1666 1.388 . S
C1668 C1669 1.366 . S
C1669 C1668 1.366 . S
C1669 C1670 1.414 . S
C1669 C1672 1.499 . S
C1670 H1650 0.950 . S
C1670 C1669 1.414 . S
C1670 C1671 1.374 . S
C1671 H1651 0.950 . S
C1671 C1667 1.385 . S
C1671 C1670 1.374 . S
C1672 C1669 1.499 . S
C1672 C1673 1.373 . S
C1672 C1674 1.389 . S
C1673 H1652 0.950 . S
C1673 C1672 1.373 . S
C1673 C1689 1.377 . S
C1674 C1672 1.389 . S
C1674 C1675 1.524 . S
C1674 C1688 1.377 . S
C1675 C1674 1.524 . S
C1675 C1676 1.397 . S
C1675 C1680 1.363 . S
C1676 H1653 0.950 . S
C1676 C1675 1.397 . S
C1676 C1677 1.334 . S
C1677 H1654 0.950 . S
C1677 C1676 1.334 . S
C1677 C1678 1.287 . S
C1678 C1677 1.287 . S
C1678 C1679 1.524 . S
C1678 H1697 0.913 . S
C1679 H1655 0.950 . S
C1679 C1678 1.524 . S
C1679 C1680 1.415 . S
C1680 H1656 0.950 . S
C1680 C1675 1.363 . S
C1680 C1679 1.415 . S
C1681 H1657 0.951 . S
C1681 C1682 1.366 . S
C1681 C1683 1.388 . S
C1682 C1681 1.366 . S
C1682 C1686 1.385 . S
C1683 H1658 0.951 . S
C1683 C1681 1.388 . S
C1683 C1684 1.366 . S
C1684 C1683 1.366 . S
C1684 C1685 1.414 . S
C1684 C1687 1.499 . S
C1685 H1659 0.950 . S
C1685 C1684 1.414 . S
C1685 C1686 1.374 . S
C1686 H1660 0.950 . S
C1686 C1682 1.385 . S
C1686 C1685 1.374 . S
C1687 C1684 1.499 . S
C1687 C1688 1.373 . S
C1687 C1689 1.389 . S
C1688 H1661 0.950 . S
C1688 C1674 1.377 . S
C1688 C1687 1.373 . S
C1689 C1673 1.377 . S
C1689 C1687 1.389 . S
C1689 C1690 1.524 . S
C1690 C1689 1.524 . S
C1690 C1691 1.397 . S
C1690 C1695 1.363 . S
C1691 H1662 0.950 . S
C1691 C1690 1.397 . S
C1691 C1692 1.334 . S
C1692 H1663 0.950 . S
C1692 C1691 1.334 . S
C1692 C1693 1.287 . S
C1693 C1692 1.287 . S
C1693 C1694 1.524 . S
C1693 H1696 0.999 . S
C1694 H1664 0.950 . S
C1694 C1693 1.524 . S
C1694 C1695 1.415 . S
C1695 H1665 0.950 . S
C1695 C1690 1.363 . S
C1695 C1694 1.415 . S
H1696 C1693 0.999 . S
H1697 C1678 0.913 . S
H1698 C1716 0.951 . S
H1699 C1718 0.951 . S
H1700 C1720 0.950 . S
H1701 C1721 0.950 . S
H1702 C1723 0.950 . S
H1703 C1726 0.950 . S
H1704 C1727 0.950 . S
H1705 C1729 0.950 . S
H1706 C1730 0.950 . S
H1707 C1731 0.951 . S
H1708 C1733 0.951 . S
H1709 C1735 0.950 . S
H1710 C1736 0.950 . S
H1711 C1738 0.950 . S
H1712 C1741 0.950 . S
H1713 C1742 0.950 . S
H1714 C1744 0.950 . S
H1715 C1745 0.950 . S
C1716 H1698 0.951 . S
C1716 C1717 1.366 . S
C1716 C1718 1.388 . S
C1717 C1716 1.366 . S
C1717 C1721 1.385 . S
C1718 H1699 0.951 . S
C1718 C1716 1.388 . S
C1718 C1719 1.366 . S
C1719 C1718 1.366 . S
C1719 C1720 1.414 . S
C1719 C1722 1.499 . S
C1720 H1700 0.950 . S
C1720 C1719 1.414 . S
C1720 C1721 1.374 . S
C1721 H1701 0.950 . S
C1721 C1717 1.385 . S
C1721 C1720 1.374 . S
C1722 C1719 1.499 . S
C1722 C1723 1.373 . S
C1722 C1724 1.389 . S
C1723 H1702 0.950 . S
C1723 C1722 1.373 . S
C1723 C1739 1.377 . S
C1724 C1722 1.389 . S
C1724 C1725 1.524 . S
C1724 C1738 1.377 . S
C1725 C1724 1.524 . S
C1725 C1726 1.397 . S
C1725 C1730 1.363 . S
C1726 H1703 0.950 . S
C1726 C1725 1.397 . S
C1726 C1727 1.334 . S
C1727 H1704 0.950 . S
C1727 C1726 1.334 . S
C1727 C1728 1.287 . S
C1728 C1727 1.287 . S
C1728 C1729 1.524 . S
C1728 H1747 0.913 . S
C1729 H1705 0.950 . S
C1729 C1728 1.524 . S
C1729 C1730 1.415 . S
C1730 H1706 0.950 . S
C1730 C1725 1.363 . S
C1730 C1729 1.415 . S
C1731 H1707 0.951 . S
C1731 C1732 1.366 . S
C1731 C1733 1.388 . S
C1732 C1731 1.366 . S
C1732 C1736 1.385 . S
C1733 H1708 0.951 . S
C1733 C1731 1.388 . S
C1733 C1734 1.366 . S
C1734 C1733 1.366 . S
C1734 C1735 1.414 . S
C1734 C1737 1.499 . S
C1735 H1709 0.950 . S
C1735 C1734 1.414 . S
C1735 C1736 1.374 . S
C1736 H1710 0.950 . S
C1736 C1732 1.385 . S
C1736 C1735 1.374 . S
C1737 C1734 1.499 . S
C1737 C1738 1.373 . S
C1737 C1739 1.389 . S
C1738 H1711 0.950 . S
C1738 C1724 1.377 . S
C1738 C1737 1.373 . S
C1739 C1723 1.377 . S
C1739 C1737 1.389 . S
C1739 C1740 1.524 . S
C1740 C1739 1.524 . S
C1740 C1741 1.397 . S
C1740 C1745 1.363 . S
C1741 H1712 0.950 . S
C1741 C1740 1.397 . S
C1741 C1742 1.334 . S
C1742 H1713 0.950 . S
C1742 C1741 1.334 . S
C1742 C1743 1.287 . S
C1743 C1742 1.287 . S
C1743 C1744 1.524 . S
C1743 H1746 0.999 . S
C1744 H1714 0.950 . S
C1744 C1743 1.524 . S
C1744 C1745 1.415 . S
C1745 H1715 0.950 . S
C1745 C1740 1.363 . S
C1745 C1744 1.415 . S
H1746 C1743 0.999 . S
H1747 C1728 0.913 . S
H1748 C1766 0.951 . S
H1749 C1768 0.951 . S
H1750 C1770 0.950 . S
H1751 C1771 0.950 . S
H1752 C1773 0.950 . S
H1753 C1776 0.950 . S
H1754 C1777 0.950 . S
H1755 C1779 0.950 . S
H1756 C1780 0.950 . S
H1757 C1781 0.951 . S
H1758 C1783 0.951 . S
H1759 C1785 0.950 . S
H1760 C1786 0.950 . S
H1761 C1788 0.950 . S
H1762 C1791 0.950 . S
H1763 C1792 0.950 . S
H1764 C1794 0.950 . S
H1765 C1795 0.950 . S
C1766 H1748 0.951 . S
C1766 C1767 1.366 . S
C1766 C1768 1.388 . S
C1767 C1766 1.366 . S
C1767 C1771 1.385 . S
C1768 H1749 0.951 . S
C1768 C1766 1.388 . S
C1768 C1769 1.366 . S
C1769 C1768 1.366 . S
C1769 C1770 1.414 . S
C1769 C1772 1.499 . S
C1770 H1750 0.950 . S
C1770 C1769 1.414 . S
C1770 C1771 1.374 . S
C1771 H1751 0.950 . S
C1771 C1767 1.385 . S
C1771 C1770 1.374 . S
C1772 C1769 1.499 . S
C1772 C1773 1.373 . S
C1772 C1774 1.389 . S
C1773 H1752 0.950 . S
C1773 C1772 1.373 . S
C1773 C1789 1.377 . S
C1774 C1772 1.389 . S
C1774 C1775 1.524 . S
C1774 C1788 1.377 . S
C1775 C1774 1.524 . S
C1775 C1776 1.397 . S
C1775 C1780 1.363 . S
C1776 H1753 0.950 . S
C1776 C1775 1.397 . S
C1776 C1777 1.334 . S
C1777 H1754 0.950 . S
C1777 C1776 1.334 . S
C1777 C1778 1.287 . S
C1778 C1777 1.287 . S
C1778 C1779 1.524 . S
C1778 H1797 0.913 . S
C1779 H1755 0.950 . S
C1779 C1778 1.524 . S
C1779 C1780 1.415 . S
C1780 H1756 0.950 . S
C1780 C1775 1.363 . S
C1780 C1779 1.415 . S
C1781 H1757 0.951 . S
C1781 C1782 1.366 . S
C1781 C1783 1.388 . S
C1782 C1781 1.366 . S
C1782 C1786 1.385 . S
C1783 H1758 0.951 . S
C1783 C1781 1.388 . S
C1783 C1784 1.366 . S
C1784 C1783 1.366 . S
C1784 C1785 1.414 . S
C1784 C1787 1.499 . S
C1785 H1759 0.950 . S
C1785 C1784 1.414 . S
C1785 C1786 1.374 . S
C1786 H1760 0.950 . S
C1786 C1782 1.385 . S
C1786 C1785 1.374 . S
C1787 C1784 1.499 . S
C1787 C1788 1.373 . S
C1787 C1789 1.389 . S
C1788 H1761 0.950 . S
C1788 C1774 1.377 . S
C1788 C1787 1.373 . S
C1789 C1773 1.377 . S
C1789 C1787 1.389 . S
C1789 C1790 1.524 . S
C1790 C1789 1.524 . S
C1790 C1791 1.397 . S
C1790 C1795 1.363 . S
C1791 H1762 0.950 . S
C1791 C1790 1.397 . S
C1791 C1792 1.334 . S
C1792 H1763 0.950 . S
C1792 C1791 1.334 . S
C1792 C1793 1.287 . S
C1793 C1792 1.287 . S
C1793 C1794 1.524 . S
C1793 H1796 0.999 . S
C1794 H1764 0.950 . S
C1794 C1793 1.524 . S
C1794 C1795 1.415 . S
C1795 H1765 0.950 . S
C1795 C1790 1.363 . S
C1795 C1794 1.415 . S
H1796 C1793 0.999 . S
H1797 C1778 0.913 . S
H1798 C1816 0.951 . S
H1799 C1818 0.951 . S
H1800 C1820 0.950 . S
H1801 C1821 0.950 1_455 S
H1802 C1823 0.950 . S
H1803 C1826 0.950 . S
H1804 C1827 0.950 . S
H1805 C1829 0.950 . S
H1806 C1830 0.950 . S
H1807 C1831 0.951 . S
H1808 C1833 0.951 . S
H1809 C1835 0.950 . S
H1810 C1836 0.950 . S
H1811 C1838 0.950 . S
H1812 C1841 0.950 . S
H1813 C1842 0.950 . S
H1814 C1844 0.950 . S
H1815 C1845 0.950 . S
C1816 H1798 0.951 . S
C1816 C1817 1.366 . S
C1816 C1818 1.388 . S
C1817 C1816 1.366 . S
C1817 C1821 1.385 . S
C1818 H1799 0.951 . S
C1818 C1816 1.388 . S
C1818 C1819 1.366 . S
C1819 C1818 1.366 . S
C1819 C1820 1.414 . S
C1819 C1822 1.499 . S
C1820 H1800 0.950 . S
C1820 C1819 1.414 . S
C1820 C1821 1.374 . S
C1821 H1801 0.950 1_655 S
C1821 C1817 1.385 . S
C1821 C1820 1.374 . S
C1822 C1819 1.499 . S
C1822 C1823 1.373 . S
C1822 C1824 1.389 . S
C1823 H1802 0.950 . S
C1823 C1822 1.373 . S
C1823 C1839 1.377 . S
C1824 C1822 1.389 . S
C1824 C1825 1.524 . S
C1824 C1838 1.377 . S
C1825 C1824 1.524 . S
C1825 C1826 1.397 . S
C1825 C1830 1.363 . S
C1826 H1803 0.950 . S
C1826 C1825 1.397 . S
C1826 C1827 1.334 . S
C1827 H1804 0.950 . S
C1827 C1826 1.334 . S
C1827 C1828 1.287 . S
C1828 C1827 1.287 . S
C1828 C1829 1.524 . S
C1828 H1847 0.913 . S
C1829 H1805 0.950 . S
C1829 C1828 1.524 . S
C1829 C1830 1.415 . S
C1830 H1806 0.950 . S
C1830 C1825 1.363 . S
C1830 C1829 1.415 . S
C1831 H1807 0.951 . S
C1831 C1832 1.366 . S
C1831 C1833 1.388 . S
C1832 C1831 1.366 . S
C1832 C1836 1.385 . S
C1833 H1808 0.951 . S
C1833 C1831 1.388 . S
C1833 C1834 1.366 . S
C1834 C1833 1.366 . S
C1834 C1835 1.414 . S
C1834 C1837 1.499 . S
C1835 H1809 0.950 . S
C1835 C1834 1.414 . S
C1835 C1836 1.374 . S
C1836 H1810 0.950 . S
C1836 C1832 1.385 . S
C1836 C1835 1.374 . S
C1837 C1834 1.499 . S
C1837 C1838 1.373 . S
C1837 C1839 1.389 . S
C1838 H1811 0.950 . S
C1838 C1824 1.377 . S
C1838 C1837 1.373 . S
C1839 C1823 1.377 . S
C1839 C1837 1.389 . S
C1839 C1840 1.524 . S
C1840 C1839 1.524 . S
C1840 C1841 1.397 . S
C1840 C1845 1.363 . S
C1841 H1812 0.950 . S
C1841 C1840 1.397 . S
C1841 C1842 1.334 . S
C1842 H1813 0.950 . S
C1842 C1841 1.334 . S
C1842 C1843 1.287 . S
C1843 C1842 1.287 . S
C1843 C1844 1.524 . S
C1843 H1846 0.999 . S
C1844 H1814 0.950 . S
C1844 C1843 1.524 . S
C1844 C1845 1.415 . S
C1845 H1815 0.950 . S
C1845 C1840 1.363 . S
C1845 C1844 1.415 . S
H1846 C1843 0.999 . S
H1847 C1828 0.913 . S
H1848 C1866 0.951 . S
H1849 C1868 0.951 . S
H1850 C1870 0.950 . S
H1851 C1871 0.950 . S
H1852 C1873 0.950 . S
H1853 C1876 0.950 . S
H1854 C1877 0.950 . S
H1855 C1879 0.950 . S
H1856 C1880 0.950 . S
H1857 C1881 0.951 . S
H1858 C1883 0.951 . S
H1859 C1885 0.950 . S
H1860 C1886 0.950 . S
H1861 C1888 0.950 . S
H1862 C1891 0.950 . S
H1863 C1892 0.950 . S
H1864 C1894 0.950 . S
H1865 C1895 0.950 . S
C1866 H1848 0.951 . S
C1866 C1867 1.366 . S
C1866 C1868 1.388 . S
C1867 C1866 1.366 . S
C1867 C1871 1.385 . S
C1868 H1849 0.951 . S
C1868 C1866 1.388 . S
C1868 C1869 1.366 . S
C1869 C1868 1.366 . S
C1869 C1870 1.414 . S
C1869 C1872 1.499 . S
C1870 H1850 0.950 . S
C1870 C1869 1.414 . S
C1870 C1871 1.374 . S
C1871 H1851 0.950 . S
C1871 C1867 1.385 . S
C1871 C1870 1.374 . S
C1872 C1869 1.499 . S
C1872 C1873 1.373 . S
C1872 C1874 1.389 . S
C1873 H1852 0.950 . S
C1873 C1872 1.373 . S
C1873 C1889 1.377 . S
C1874 C1872 1.389 . S
C1874 C1875 1.524 . S
C1874 C1888 1.377 . S
C1875 C1874 1.524 . S
C1875 C1876 1.397 . S
C1875 C1880 1.363 . S
C1876 H1853 0.950 . S
C1876 C1875 1.397 . S
C1876 C1877 1.334 . S
C1877 H1854 0.950 . S
C1877 C1876 1.334 . S
C1877 C1878 1.287 . S
C1878 C1877 1.287 . S
C1878 C1879 1.524 . S
C1878 H1897 0.913 . S
C1879 H1855 0.950 . S
C1879 C1878 1.524 . S
C1879 C1880 1.415 . S
C1880 H1856 0.950 . S
C1880 C1875 1.363 . S
C1880 C1879 1.415 . S
C1881 H1857 0.951 . S
C1881 C1882 1.366 . S
C1881 C1883 1.388 . S
C1882 C1881 1.366 . S
C1882 C1886 1.385 . S
C1883 H1858 0.951 . S
C1883 C1881 1.388 . S
C1883 C1884 1.366 . S
C1884 C1883 1.366 . S
C1884 C1885 1.414 . S
C1884 C1887 1.499 . S
C1885 H1859 0.950 . S
C1885 C1884 1.414 . S
C1885 C1886 1.374 . S
C1886 H1860 0.950 . S
C1886 C1882 1.385 . S
C1886 C1885 1.374 . S
C1887 C1884 1.499 . S
C1887 C1888 1.373 . S
C1887 C1889 1.389 . S
C1888 H1861 0.950 . S
C1888 C1874 1.377 . S
C1888 C1887 1.373 . S
C1889 C1873 1.377 . S
C1889 C1887 1.389 . S
C1889 C1890 1.524 . S
C1890 C1889 1.524 . S
C1890 C1891 1.397 . S
C1890 C1895 1.363 . S
C1891 H1862 0.950 . S
C1891 C1890 1.397 . S
C1891 C1892 1.334 . S
C1892 H1863 0.950 . S
C1892 C1891 1.334 . S
C1892 C1893 1.287 . S
C1893 C1892 1.287 . S
C1893 C1894 1.524 . S
C1893 H1896 0.999 . S
C1894 H1864 0.950 . S
C1894 C1893 1.524 . S
C1894 C1895 1.415 . S
C1895 H1865 0.950 . S
C1895 C1890 1.363 . S
C1895 C1894 1.415 . S
H1896 C1893 0.999 . S
H1897 C1878 0.913 . S
H1898 C1916 0.961 . S
H1899 C1918 0.951 . S
H1900 C1920 0.950 . S
H1901 C1921 0.950 . S
H1902 C1923 0.950 . S
H1903 C1926 0.950 . S
H1904 C1927 0.950 . S
H1905 C1929 0.950 . S
H1906 C1930 0.950 . S
H1907 C1931 0.951 . S
H1908 C1933 0.951 . S
H1909 C1935 0.950 . S
H1910 C1936 0.950 . S
H1911 C1938 0.950 . S
H1912 C1941 0.950 . S
H1913 C1942 0.950 . S
H1914 C1944 0.950 . S
H1915 C1945 0.950 . S
C1916 H1898 0.961 . S
C1916 C1917 1.366 . S
C1916 C1918 1.388 . S
C1917 C1916 1.366 . S
C1917 C1921 1.385 . S
C1918 H1899 0.951 . S
C1918 C1916 1.388 . S
C1918 C1919 1.366 . S
C1919 C1918 1.366 . S
C1919 C1920 1.414 . S
C1919 C1922 1.499 . S
C1920 H1900 0.950 . S
C1920 C1919 1.414 . S
C1920 C1921 1.374 . S
C1921 H1901 0.950 . S
C1921 C1917 1.385 . S
C1921 C1920 1.374 . S
C1922 C1919 1.499 . S
C1922 C1923 1.373 . S
C1922 C1924 1.389 . S
C1923 H1902 0.950 . S
C1923 C1922 1.373 . S
C1923 C1939 1.377 . S
C1924 C1922 1.389 . S
C1924 C1925 1.524 . S
C1924 C1938 1.377 . S
C1925 C1924 1.524 . S
C1925 C1926 1.397 . S
C1925 C1930 1.363 . S
C1926 H1903 0.950 . S
C1926 C1925 1.397 . S
C1926 C1927 1.334 . S
C1927 H1904 0.950 . S
C1927 C1926 1.334 . S
C1927 C1928 1.287 . S
C1928 C1927 1.287 . S
C1928 C1929 1.524 . S
C1928 H1947 0.913 . S
C1929 H1905 0.950 . S
C1929 C1928 1.524 . S
C1929 C1930 1.415 . S
C1930 H1906 0.950 . S
C1930 C1925 1.363 . S
C1930 C1929 1.415 . S
C1931 H1907 0.951 . S
C1931 C1932 1.366 . S
C1931 C1933 1.388 . S
C1932 C1931 1.366 . S
C1932 C1936 1.385 . S
C1933 H1908 0.951 . S
C1933 C1931 1.388 . S
C1933 C1934 1.366 . S
C1934 C1933 1.366 . S
C1934 C1935 1.414 . S
C1934 C1937 1.499 . S
C1935 H1909 0.950 . S
C1935 C1934 1.414 . S
C1935 C1936 1.374 . S
C1936 H1910 0.950 . S
C1936 C1932 1.385 . S
C1936 C1935 1.374 . S
C1937 C1934 1.499 . S
C1937 C1938 1.373 . S
C1937 C1939 1.389 . S
C1938 H1911 0.950 . S
C1938 C1924 1.377 . S
C1938 C1937 1.373 . S
C1939 C1923 1.377 . S
C1939 C1937 1.389 . S
C1939 C1940 1.524 . S
C1940 C1939 1.524 . S
C1940 C1941 1.397 . S
C1940 C1945 1.363 . S
C1941 H1912 0.950 . S
C1941 C1940 1.397 . S
C1941 C1942 1.334 . S
C1942 H1913 0.950 . S
C1942 C1941 1.334 . S
C1942 C1943 1.287 . S
C1943 C1942 1.287 . S
C1943 C1944 1.524 . S
C1943 H1946 0.999 . S
C1944 H1914 0.950 . S
C1944 C1943 1.524 . S
C1944 C1945 1.415 . S
C1945 H1915 0.950 . S
C1945 C1940 1.363 . S
C1945 C1944 1.415 . S
H1946 C1943 0.999 . S
H1947 C1928 0.913 . S
H1948 C1966 0.951 . S
H1949 C1968 0.951 . S
H1950 C1970 0.950 . S
H1951 C1971 0.950 . S
H1952 C1973 0.950 . S
H1953 C1976 0.950 . S
H1954 C1977 0.950 . S
H1955 C1979 0.950 . S
H1956 C1980 0.950 . S
H1957 C1981 0.951 . S
H1958 C1983 0.951 . S
H1959 C1985 0.950 . S
H1960 C1986 0.950 . S
H1961 C1988 0.950 . S
H1962 C1991 0.950 . S
H1963 C1992 0.950 . S
H1964 C1994 0.950 . S
H1965 C1995 0.950 . S
C1966 H1948 0.951 . S
C1966 C1967 1.366 . S
C1966 C1968 1.388 . S
C1967 C1966 1.366 . S
C1967 C1971 1.385 . S
C1968 H1949 0.951 . S
C1968 C1966 1.388 . S
C1968 C1969 1.366 . S
C1969 C1968 1.366 . S
C1969 C1970 1.414 . S
C1969 C1972 1.499 . S
C1970 H1950 0.950 . S
C1970 C1969 1.414 . S
C1970 C1971 1.374 . S
C1971 H1951 0.950 . S
C1971 C1967 1.385 . S
C1971 C1970 1.374 . S
C1972 C1969 1.499 . S
C1972 C1973 1.373 . S
C1972 C1974 1.389 . S
C1973 H1952 0.950 . S
C1973 C1972 1.373 . S
C1973 C1989 1.377 . S
C1974 C1972 1.389 . S
C1974 C1975 1.524 . S
C1974 C1988 1.377 . S
C1975 C1974 1.524 . S
C1975 C1976 1.397 . S
C1975 C1980 1.363 . S
C1976 H1953 0.950 . S
C1976 C1975 1.397 . S
C1976 C1977 1.334 . S
C1977 H1954 0.950 . S
C1977 C1976 1.334 . S
C1977 C1978 1.287 . S
C1978 C1977 1.287 . S
C1978 C1979 1.524 . S
C1978 H1997 0.913 . S
C1979 H1955 0.950 . S
C1979 C1978 1.524 . S
C1979 C1980 1.415 . S
C1980 H1956 0.950 . S
C1980 C1975 1.363 . S
C1980 C1979 1.415 . S
C1981 H1957 0.951 . S
C1981 C1982 1.366 . S
C1981 C1983 1.388 . S
C1982 C1981 1.366 . S
C1982 C1986 1.385 . S
C1983 H1958 0.951 . S
C1983 C1981 1.388 . S
C1983 C1984 1.366 . S
C1984 C1983 1.366 . S
C1984 C1985 1.414 . S
C1984 C1987 1.499 . S
C1985 H1959 0.950 . S
C1985 C1984 1.414 . S
C1985 C1986 1.374 . S
C1986 H1960 0.950 . S
C1986 C1982 1.385 . S
C1986 C1985 1.374 . S
C1987 C1984 1.499 . S
C1987 C1988 1.373 . S
C1987 C1989 1.389 . S
C1988 H1961 0.950 . S
C1988 C1974 1.377 . S
C1988 C1987 1.373 . S
C1989 C1973 1.377 . S
C1989 C1987 1.389 . S
C1989 C1990 1.524 . S
C1990 C1989 1.524 . S
C1990 C1991 1.397 . S
C1990 C1995 1.363 . S
C1991 H1962 0.950 . S
C1991 C1990 1.397 . S
C1991 C1992 1.334 . S
C1992 H1963 0.950 . S
C1992 C1991 1.334 . S
C1992 C1993 1.287 . S
C1993 C1992 1.287 . S
C1993 C1994 1.524 . S
C1993 H1996 0.999 . S
C1994 H1964 0.950 . S
C1994 C1993 1.524 . S
C1994 C1995 1.415 . S
C1995 H1965 0.950 . S
C1995 C1990 1.363 . S
C1995 C1994 1.415 . S
H1996 C1993 0.999 . S
H1997 C1978 0.913 . S
H1998 C2016 0.951 . S
H1999 C2018 0.951 . S
H2000 C2020 0.950 . S
H2001 C2021 0.950 . S
H2002 C2023 0.950 . S
H2003 C2026 0.950 . S
H2004 C2027 0.950 . S
H2005 C2029 0.950 . S
H2006 C2030 0.950 . S
H2007 C2031 0.951 . S
H2008 C2033 0.951 . S
H2009 C2035 0.950 . S
H2010 C2036 0.950 . S
H2011 C2038 0.950 . S
H2012 C2041 0.950 . S
H2013 C2042 0.950 . S
H2014 C2044 0.950 . S
H2015 C2045 0.950 . S
C2016 H1998 0.951 . S
C2016 C2017 1.366 . S
C2016 C2018 1.388 . S
C2017 C2016 1.366 . S
C2017 C2021 1.385 . S
C2018 H1999 0.951 . S
C2018 C2016 1.388 . S
C2018 C2019 1.366 . S
C2019 C2018 1.366 . S
C2019 C2020 1.414 . S
C2019 C2022 1.499 . S
C2020 H2000 0.950 . S
C2020 C2019 1.414 . S
C2020 C2021 1.374 . S
C2021 H2001 0.950 . S
C2021 C2017 1.385 . S
C2021 C2020 1.374 . S
C2022 C2019 1.499 . S
C2022 C2023 1.373 . S
C2022 C2024 1.389 . S
C2023 H2002 0.950 . S
C2023 C2022 1.373 . S
C2023 C2039 1.377 . S
C2024 C2022 1.389 . S
C2024 C2025 1.524 . S
C2024 C2038 1.377 . S
C2025 C2024 1.524 . S
C2025 C2026 1.397 . S
C2025 C2030 1.363 . S
C2026 H2003 0.950 . S
C2026 C2025 1.397 . S
C2026 C2027 1.334 . S
C2027 H2004 0.950 . S
C2027 C2026 1.334 . S
C2027 C2028 1.287 . S
C2028 C2027 1.287 . S
C2028 C2029 1.524 . S
C2028 H2047 0.913 . S
C2029 H2005 0.950 . S
C2029 C2028 1.524 . S
C2029 C2030 1.415 . S
C2030 H2006 0.950 . S
C2030 C2025 1.363 . S
C2030 C2029 1.415 . S
C2031 H2007 0.951 . S
C2031 C2032 1.366 . S
C2031 C2033 1.388 . S
C2032 C2031 1.366 . S
C2032 C2036 1.385 . S
C2033 H2008 0.951 . S
C2033 C2031 1.388 . S
C2033 C2034 1.366 . S
C2034 C2033 1.366 . S
C2034 C2035 1.414 . S
C2034 C2037 1.499 . S
C2035 H2009 0.950 . S
C2035 C2034 1.414 . S
C2035 C2036 1.374 . S
C2036 H2010 0.950 . S
C2036 C2032 1.385 . S
C2036 C2035 1.374 . S
C2037 C2034 1.499 . S
C2037 C2038 1.373 . S
C2037 C2039 1.389 . S
C2038 H2011 0.950 . S
C2038 C2024 1.377 . S
C2038 C2037 1.373 . S
C2039 C2023 1.377 . S
C2039 C2037 1.389 . S
C2039 C2040 1.524 . S
C2040 C2039 1.524 . S
C2040 C2041 1.397 . S
C2040 C2045 1.363 . S
C2041 H2012 0.950 . S
C2041 C2040 1.397 . S
C2041 C2042 1.334 . S
C2042 H2013 0.950 . S
C2042 C2041 1.334 . S
C2042 C2043 1.287 . S
C2043 C2042 1.287 . S
C2043 C2044 1.524 . S
C2043 H2046 0.999 . S
C2044 H2014 0.950 . S
C2044 C2043 1.524 . S
C2044 C2045 1.415 . S
C2045 H2015 0.950 . S
C2045 C2040 1.363 . S
C2045 C2044 1.415 . S
H2046 C2043 0.999 . S
H2047 C2028 0.913 . S
H2048 C2066 0.951 . S
H2049 C2068 0.951 . S
H2050 C2070 0.950 . S
H2051 C2071 0.950 . S
H2052 C2073 0.950 . S
H2053 C2076 0.950 . S
H2054 C2077 0.950 . S
H2055 C2079 0.950 . S
H2056 C2080 0.950 . S
H2057 C2081 0.951 . S
H2058 C2083 0.951 . S
H2059 C2085 0.950 . S
H2060 C2086 0.950 . S
H2061 C2088 0.950 . S
H2062 C2091 0.950 . S
H2063 C2092 0.950 . S
H2064 C2094 0.950 . S
H2065 C2095 0.950 . S
C2066 H2048 0.951 . S
C2066 C2067 1.366 . S
C2066 C2068 1.388 . S
C2067 C2066 1.366 . S
C2067 C2071 1.385 . S
C2068 H2049 0.951 . S
C2068 C2066 1.388 . S
C2068 C2069 1.366 . S
C2069 C2068 1.366 . S
C2069 C2070 1.414 . S
C2069 C2072 1.499 . S
C2070 H2050 0.950 . S
C2070 C2069 1.414 . S
C2070 C2071 1.374 . S
C2071 H2051 0.950 . S
C2071 C2067 1.385 . S
C2071 C2070 1.374 . S
C2072 C2069 1.499 . S
C2072 C2073 1.373 . S
C2072 C2074 1.389 . S
C2073 H2052 0.950 . S
C2073 C2072 1.373 . S
C2073 C2089 1.377 . S
C2074 C2072 1.389 . S
C2074 C2075 1.524 . S
C2074 C2088 1.377 . S
C2075 C2074 1.524 . S
C2075 C2076 1.397 . S
C2075 C2080 1.363 . S
C2076 H2053 0.950 . S
C2076 C2075 1.397 . S
C2076 C2077 1.334 . S
C2077 H2054 0.950 . S
C2077 C2076 1.334 . S
C2077 C2078 1.287 . S
C2078 C2077 1.287 . S
C2078 C2079 1.524 . S
C2078 H2097 0.913 . S
C2079 H2055 0.950 . S
C2079 C2078 1.524 . S
C2079 C2080 1.415 . S
C2080 H2056 0.950 . S
C2080 C2075 1.363 . S
C2080 C2079 1.415 . S
C2081 H2057 0.951 . S
C2081 C2082 1.366 . S
C2081 C2083 1.388 . S
C2082 C2081 1.366 . S
C2082 C2086 1.385 . S
C2083 H2058 0.951 . S
C2083 C2081 1.388 . S
C2083 C2084 1.366 . S
C2084 C2083 1.366 . S
C2084 C2085 1.414 . S
C2084 C2087 1.499 . S
C2085 H2059 0.950 . S
C2085 C2084 1.414 . S
C2085 C2086 1.374 . S
C2086 H2060 0.950 . S
C2086 C2082 1.385 . S
C2086 C2085 1.374 . S
C2087 C2084 1.499 . S
C2087 C2088 1.373 . S
C2087 C2089 1.389 . S
C2088 H2061 0.950 . S
C2088 C2074 1.377 . S
C2088 C2087 1.373 . S
C2089 C2073 1.377 . S
C2089 C2087 1.389 . S
C2089 C2090 1.524 . S
C2090 C2089 1.524 . S
C2090 C2091 1.397 . S
C2090 C2095 1.363 . S
C2091 H2062 0.950 . S
C2091 C2090 1.397 . S
C2091 C2092 1.334 . S
C2092 H2063 0.950 . S
C2092 C2091 1.334 . S
C2092 C2093 1.287 . S
C2093 C2092 1.287 . S
C2093 C2094 1.524 . S
C2093 H2096 0.999 . S
C2094 H2064 0.950 . S
C2094 C2093 1.524 . S
C2094 C2095 1.415 . S
C2095 H2065 0.950 . S
C2095 C2090 1.363 . S
C2095 C2094 1.415 . S
H2096 C2093 0.999 . S
H2097 C2078 0.913 . S
H2098 C2116 0.974 . S
H2099 C2118 0.951 1_655 S
H2100 C2120 0.950 . S
H2101 C2121 0.950 . S
H2102 C2123 0.950 . S
H2103 C2126 0.950 . S
H2104 C2127 0.950 . S
H2105 C2129 0.950 . S
H2106 C2130 0.950 . S
H2107 C2131 0.974 . S
H2108 C2133 0.951 1_455 S
H2109 C2135 0.950 . S
H2110 C2136 0.950 . S
H2111 C2138 0.950 . S
H2112 C2141 0.950 . S
H2113 C2142 0.950 . S
H2114 C2144 0.950 . S
H2115 C2145 0.950 . S
C2116 H2098 0.974 . S
C2116 C2117 1.366 . S
C2116 C2118 1.388 . S
C2117 C2116 1.366 . S
C2117 C2121 1.385 . S
C2118 H2099 0.951 1_455 S
C2118 C2116 1.388 . S
C2118 C2119 1.366 . S
C2119 C2118 1.366 . S
C2119 C2120 1.414 . S
C2119 C2122 1.499 . S
C2120 H2100 0.950 . S
C2120 C2119 1.414 . S
C2120 C2121 1.374 . S
C2121 H2101 0.950 . S
C2121 C2117 1.385 . S
C2121 C2120 1.374 . S
C2122 C2119 1.499 . S
C2122 C2123 1.373 1_565 S
C2122 C2124 1.389 1_455 S
C2123 H2102 0.950 . S
C2123 C2122 1.373 1_545 S
C2123 C2139 1.377 . S
C2124 C2122 1.389 1_655 S
C2124 C2125 1.524 . S
C2124 C2138 1.377 . S
C2125 C2124 1.524 . S
C2125 C2126 1.397 1_655 S
C2125 C2130 1.363 . S
C2126 H2103 0.950 . S
C2126 C2125 1.397 1_455 S
C2126 C2127 1.334 . S
C2127 H2104 0.950 . S
C2127 C2126 1.334 . S
C2127 C2128 1.287 1_455 S
C2128 C2127 1.287 1_655 S
C2128 C2129 1.524 . S
C2128 H2147 0.913 . S
C2129 H2105 0.950 . S
C2129 C2128 1.524 . S
C2129 C2130 1.415 . S
C2130 H2106 0.950 . S
C2130 C2125 1.363 . S
C2130 C2129 1.415 . S
C2131 H2107 0.974 . S
C2131 C2132 1.366 . S
C2131 C2133 1.388 . S
C2132 C2131 1.366 . S
C2132 C2136 1.385 . S
C2133 H2108 0.951 1_655 S
C2133 C2131 1.388 . S
C2133 C2134 1.366 . S
C2134 C2133 1.366 . S
C2134 C2135 1.414 . S
C2134 C2137 1.499 . S
C2135 H2109 0.950 . S
C2135 C2134 1.414 . S
C2135 C2136 1.374 . S
C2136 H2110 0.950 . S
C2136 C2132 1.385 . S
C2136 C2135 1.374 . S
C2137 C2134 1.499 . S
C2137 C2138 1.373 1_545 S
C2137 C2139 1.389 1_655 S
C2138 H2111 0.950 . S
C2138 C2124 1.377 . S
C2138 C2137 1.373 1_565 S
C2139 C2123 1.377 . S
C2139 C2137 1.389 1_455 S
C2139 C2140 1.524 . S
C2140 C2139 1.524 . S
C2140 C2141 1.397 1_455 S
C2140 C2145 1.363 . S
C2141 H2112 0.950 . S
C2141 C2140 1.397 1_655 S
C2141 C2142 1.334 . S
C2142 H2113 0.950 . S
C2142 C2141 1.334 . S
C2142 C2143 1.287 1_655 S
C2143 C2142 1.287 1_455 S
C2143 C2144 1.524 . S
C2143 H2146 0.999 . S
C2144 H2114 0.950 . S
C2144 C2143 1.524 . S
C2144 C2145 1.415 . S
C2145 H2115 0.950 . S
C2145 C2140 1.363 . S
C2145 C2144 1.415 . S
H2146 C2143 0.999 . S
H2147 C2128 0.913 . S
H2148 C2166 0.951 . S
H2149 C2168 0.951 . S
H2150 C2170 0.950 . S
H2151 C2171 0.950 . S
H2152 C2173 0.950 . S
H2153 C2176 0.950 . S
H2154 C2177 0.950 . S
H2155 C2179 0.950 . S
H2156 C2180 0.950 . S
H2157 C2181 0.951 . S
H2158 C2183 0.951 . S
H2159 C2185 0.950 . S
H2160 C2186 0.950 . S
H2161 C2188 0.950 . S
H2162 C2191 0.950 . S
H2163 C2192 0.950 . S
H2164 C2194 0.950 . S
H2165 C2195 0.950 . S
C2166 H2148 0.951 . S
C2166 C2167 1.366 . S
C2166 C2168 1.388 . S
C2167 C2166 1.366 . S
C2167 C2171 1.385 . S
C2168 H2149 0.951 . S
C2168 C2166 1.388 . S
C2168 C2169 1.366 . S
C2169 C2168 1.366 . S
C2169 C2170 1.414 . S
C2169 C2172 1.499 . S
C2170 H2150 0.950 . S
C2170 C2169 1.414 . S
C2170 C2171 1.374 . S
C2171 H2151 0.950 . S
C2171 C2167 1.385 . S
C2171 C2170 1.374 . S
C2172 C2169 1.499 . S
C2172 C2173 1.373 . S
C2172 C2174 1.389 . S
C2173 H2152 0.950 . S
C2173 C2172 1.373 . S
C2173 C2189 1.377 . S
C2174 C2172 1.389 . S
C2174 C2175 1.524 . S
C2174 C2188 1.377 . S
C2175 C2174 1.524 . S
C2175 C2176 1.397 . S
C2175 C2180 1.363 . S
C2176 H2153 0.950 . S
C2176 C2175 1.397 . S
C2176 C2177 1.334 . S
C2177 H2154 0.950 . S
C2177 C2176 1.334 . S
C2177 C2178 1.287 . S
C2178 C2177 1.287 . S
C2178 C2179 1.524 . S
C2178 H2197 0.913 . S
C2179 H2155 0.950 . S
C2179 C2178 1.524 . S
C2179 C2180 1.415 . S
C2180 H2156 0.950 . S
C2180 C2175 1.363 . S
C2180 C2179 1.415 . S
C2181 H2157 0.951 . S
C2181 C2182 1.366 . S
C2181 C2183 1.388 . S
C2182 C2181 1.366 . S
C2182 C2186 1.385 . S
C2183 H2158 0.951 . S
C2183 C2181 1.388 . S
C2183 C2184 1.366 . S
C2184 C2183 1.366 . S
C2184 C2185 1.414 . S
C2184 C2187 1.499 . S
C2185 H2159 0.950 . S
C2185 C2184 1.414 . S
C2185 C2186 1.374 . S
C2186 H2160 0.950 . S
C2186 C2182 1.385 . S
C2186 C2185 1.374 . S
C2187 C2184 1.499 . S
C2187 C2188 1.373 . S
C2187 C2189 1.389 . S
C2188 H2161 0.950 . S
C2188 C2174 1.377 . S
C2188 C2187 1.373 . S
C2189 C2173 1.377 . S
C2189 C2187 1.389 . S
C2189 C2190 1.524 . S
C2190 C2189 1.524 . S
C2190 C2191 1.397 . S
C2190 C2195 1.363 . S
C2191 H2162 0.950 . S
C2191 C2190 1.397 . S
C2191 C2192 1.334 . S
C2192 H2163 0.950 . S
C2192 C2191 1.334 . S
C2192 C2193 1.287 . S
C2193 C2192 1.287 . S
C2193 C2194 1.524 . S
C2193 H2196 0.999 . S
C2194 H2164 0.950 . S
C2194 C2193 1.524 . S
C2194 C2195 1.415 . S
C2195 H2165 0.950 . S
C2195 C2190 1.363 . S
C2195 C2194 1.415 . S
H2196 C2193 0.999 . S
H2197 C2178 0.913 . S
H2198 C2216 0.951 . S
H2199 C2218 0.951 . S
H2200 C2220 0.954 . S
H2201 C2221 0.950 1_565 S
H2202 C2223 0.950 . S
H2203 C2226 0.950 . S
H2204 C2227 0.950 . S
H2205 C2229 0.950 . S
H2206 C2230 0.950 . S
H2207 C2231 0.951 . S
H2208 C2233 0.951 . S
H2209 C2235 0.954 . S
H2210 C2236 0.950 1_545 S
H2211 C2238 0.950 . S
H2212 C2241 0.950 . S
H2213 C2242 0.950 . S
H2214 C2244 0.950 . S
H2215 C2245 0.950 . S
C2216 H2198 0.951 . S
C2216 C2217 1.366 . S
C2216 C2218 1.388 . S
C2217 C2216 1.366 . S
C2217 C2221 1.385 . S
C2218 H2199 0.951 . S
C2218 C2216 1.388 . S
C2218 C2219 1.366 . S
C2219 C2218 1.366 . S
C2219 C2220 1.411 1_545 S
C2219 C2222 1.499 . S
C2220 H2200 0.954 . S
C2220 C2219 1.411 1_565 S
C2220 C2221 1.373 1_565 S
C2221 H2201 0.950 1_545 S
C2221 C2217 1.385 . S
C2221 C2220 1.373 1_545 S
C2222 C2219 1.499 . S
C2222 C2223 1.373 1_545 S
C2222 C2224 1.389 . S
C2223 H2202 0.950 . S
C2223 C2222 1.373 1_565 S
C2223 C2239 1.377 1_554 S
C2224 C2222 1.389 . S
C2224 C2225 1.524 . S
C2224 C2238 1.377 1_554 S
C2225 C2224 1.524 . S
C2225 C2226 1.397 . S
C2225 C2230 1.363 . S
C2226 H2203 0.950 . S
C2226 C2225 1.397 . S
C2226 C2227 1.334 . S
C2227 H2204 0.950 . S
C2227 C2226 1.334 . S
C2227 C2228 1.287 . S
C2228 C2227 1.287 . S
C2228 C2229 1.524 . S
C2228 H2247 0.913 . S
C2229 H2205 0.950 . S
C2229 C2228 1.524 . S
C2229 C2230 1.415 . S
C2230 H2206 0.950 . S
C2230 C2225 1.363 . S
C2230 C2229 1.415 . S
C2231 H2207 0.951 . S
C2231 C2232 1.366 . S
C2231 C2233 1.388 . S
C2232 C2231 1.366 . S
C2232 C2236 1.385 . S
C2233 H2208 0.951 . S
C2233 C2231 1.388 . S
C2233 C2234 1.366 . S
C2234 C2233 1.366 . S
C2234 C2235 1.411 1_565 S
C2234 C2237 1.499 . S
C2235 H2209 0.954 . S
C2235 C2234 1.411 1_545 S
C2235 C2236 1.373 1_545 S
C2236 H2210 0.950 1_565 S
C2236 C2232 1.385 . S
C2236 C2235 1.373 1_565 S
C2237 C2234 1.499 . S
C2237 C2238 1.373 1_565 S
C2237 C2239 1.389 . S
C2238 H2211 0.950 . S
C2238 C2224 1.377 1_556 S
C2238 C2237 1.373 1_545 S
C2239 C2223 1.377 1_556 S
C2239 C2237 1.389 . S
C2239 C2240 1.524 . S
C2240 C2239 1.524 . S
C2240 C2241 1.397 . S
C2240 C2245 1.363 . S
C2241 H2212 0.950 . S
C2241 C2240 1.397 . S
C2241 C2242 1.334 . S
C2242 H2213 0.950 . S
C2242 C2241 1.334 . S
C2242 C2243 1.287 . S
C2243 C2242 1.287 . S
C2243 C2244 1.524 . S
C2243 H2246 0.999 . S
C2244 H2214 0.950 . S
C2244 C2243 1.524 . S
C2244 C2245 1.415 . S
C2245 H2215 0.950 . S
C2245 C2240 1.363 . S
C2245 C2244 1.415 . S
H2246 C2243 0.999 . S
H2247 C2228 0.913 . S
H2248 C2266 0.951 . S
H2249 C2268 0.951 . S
H2250 C2270 0.950 . S
H2251 C2271 0.950 . S
H2252 C2273 0.950 . S
H2253 C2276 0.950 . S
H2254 C2277 0.950 . S
H2255 C2279 0.950 . S
H2256 C2280 0.950 . S
H2257 C2281 0.951 . S
H2258 C2283 0.951 . S
H2259 C2285 0.950 . S
H2260 C2286 0.950 . S
H2261 C2288 0.950 . S
H2262 C2291 0.950 . S
H2263 C2292 0.950 . S
H2264 C2294 0.950 . S
H2265 C2295 0.950 . S
C2266 H2248 0.951 . S
C2266 C2267 1.366 . S
C2266 C2268 1.388 . S
C2267 C2266 1.366 . S
C2267 C2271 1.385 . S
C2268 H2249 0.951 . S
C2268 C2266 1.388 . S
C2268 C2269 1.366 . S
C2269 C2268 1.366 . S
C2269 C2270 1.414 . S
C2269 C2272 1.499 . S
C2270 H2250 0.950 . S
C2270 C2269 1.414 . S
C2270 C2271 1.374 . S
C2271 H2251 0.950 . S
C2271 C2267 1.385 . S
C2271 C2270 1.374 . S
C2272 C2269 1.499 . S
C2272 C2273 1.373 . S
C2272 C2274 1.389 . S
C2273 H2252 0.950 . S
C2273 C2272 1.373 . S
C2273 C2289 1.377 . S
C2274 C2272 1.389 . S
C2274 C2275 1.524 . S
C2274 C2288 1.377 . S
C2275 C2274 1.524 . S
C2275 C2276 1.397 . S
C2275 C2280 1.363 . S
C2276 H2253 0.950 . S
C2276 C2275 1.397 . S
C2276 C2277 1.334 . S
C2277 H2254 0.950 . S
C2277 C2276 1.334 . S
C2277 C2278 1.287 . S
C2278 C2277 1.287 . S
C2278 C2279 1.524 . S
C2278 H2297 0.913 . S
C2279 H2255 0.950 . S
C2279 C2278 1.524 . S
C2279 C2280 1.415 . S
C2280 H2256 0.950 . S
C2280 C2275 1.363 . S
C2280 C2279 1.415 . S
C2281 H2257 0.951 . S
C2281 C2282 1.366 . S
C2281 C2283 1.388 . S
C2282 C2281 1.366 . S
C2282 C2286 1.385 . S
C2283 H2258 0.951 . S
C2283 C2281 1.388 . S
C2283 C2284 1.366 . S
C2284 C2283 1.366 . S
C2284 C2285 1.414 . S
C2284 C2287 1.499 . S
C2285 H2259 0.950 . S
C2285 C2284 1.414 . S
C2285 C2286 1.374 . S
C2286 H2260 0.950 . S
C2286 C2282 1.385 . S
C2286 C2285 1.374 . S
C2287 C2284 1.499 . S
C2287 C2288 1.373 . S
C2287 C2289 1.389 . S
C2288 H2261 0.950 . S
C2288 C2274 1.377 . S
C2288 C2287 1.373 . S
C2289 C2273 1.377 . S
C2289 C2287 1.389 . S
C2289 C2290 1.524 . S
C2290 C2289 1.524 . S
C2290 C2291 1.397 . S
C2290 C2295 1.363 . S
C2291 H2262 0.950 . S
C2291 C2290 1.397 . S
C2291 C2292 1.334 . S
C2292 H2263 0.950 . S
C2292 C2291 1.334 . S
C2292 C2293 1.287 . S
C2293 C2292 1.287 . S
C2293 C2294 1.524 . S
C2293 H2296 0.999 . S
C2294 H2264 0.950 . S
C2294 C2293 1.524 . S
C2294 C2295 1.415 . S
C2295 H2265 0.950 . S
C2295 C2290 1.363 . S
C2295 C2294 1.415 . S
H2296 C2293 0.999 . S
H2297 C2278 0.913 . S
H2298 C2316 0.951 . S
H2299 C2318 0.951 . S
H2300 C2320 0.950 1_545 S
H2301 C2321 0.950 . S
H2302 C2323 0.950 . S
H2303 C2326 0.950 . S
H2304 C2327 0.950 . S
H2305 C2329 0.950 . S
H2306 C2330 0.950 . S
H2307 C2331 0.951 . S
H2308 C2333 0.951 . S
H2309 C2335 0.950 1_565 S
H2310 C2336 0.950 . S
H2311 C2338 0.950 . S
H2312 C2341 0.950 . S
H2313 C2342 0.950 . S
H2314 C2344 0.950 . S
H2315 C2345 0.950 . S
C2316 H2298 0.951 . S
C2316 C2317 1.366 . S
C2316 C2318 1.388 . S
C2317 C2316 1.366 . S
C2317 C2321 1.385 . S
C2318 H2299 0.951 . S
C2318 C2316 1.388 . S
C2318 C2319 1.366 . S
C2319 C2318 1.366 . S
C2319 C2320 1.414 . S
C2319 C2322 1.499 . S
C2320 H2300 0.950 1_565 S
C2320 C2319 1.414 . S
C2320 C2321 1.374 . S
C2321 H2301 0.950 . S
C2321 C2317 1.385 . S
C2321 C2320 1.374 . S
C2322 C2319 1.499 . S
C2322 C2323 1.373 1_565 S
C2322 C2324 1.389 . S
C2323 H2302 0.950 . S
C2323 C2322 1.373 1_545 S
C2323 C2339 1.377 . S
C2324 C2322 1.389 . S
C2324 C2325 1.524 . S
C2324 C2338 1.377 . S
C2325 C2324 1.524 . S
C2325 C2326 1.397 . S
C2325 C2330 1.363 . S
C2326 H2303 0.950 . S
C2326 C2325 1.397 . S
C2326 C2327 1.334 . S
C2327 H2304 0.950 . S
C2327 C2326 1.334 . S
C2327 C2328 1.287 . S
C2328 C2327 1.287 . S
C2328 C2329 1.524 . S
C2328 H2347 0.913 . S
C2329 H2305 0.950 . S
C2329 C2328 1.524 . S
C2329 C2330 1.415 . S
C2330 H2306 0.950 . S
C2330 C2325 1.363 . S
C2330 C2329 1.415 . S
C2331 H2307 0.951 . S
C2331 C2332 1.366 . S
C2331 C2333 1.388 . S
C2332 C2331 1.366 . S
C2332 C2336 1.385 . S
C2333 H2308 0.951 . S
C2333 C2331 1.388 . S
C2333 C2334 1.366 . S
C2334 C2333 1.366 . S
C2334 C2335 1.414 . S
C2334 C2337 1.499 . S
C2335 H2309 0.950 1_545 S
C2335 C2334 1.414 . S
C2335 C2336 1.374 . S
C2336 H2310 0.950 . S
C2336 C2332 1.385 . S
C2336 C2335 1.374 . S
C2337 C2334 1.499 . S
C2337 C2338 1.373 1_545 S
C2337 C2339 1.389 . S
C2338 H2311 0.950 . S
C2338 C2324 1.377 . S
C2338 C2337 1.373 1_565 S
C2339 C2323 1.377 . S
C2339 C2337 1.389 . S
C2339 C2340 1.524 . S
C2340 C2339 1.524 . S
C2340 C2341 1.397 . S
C2340 C2345 1.363 . S
C2341 H2312 0.950 . S
C2341 C2340 1.397 . S
C2341 C2342 1.334 . S
C2342 H2313 0.950 . S
C2342 C2341 1.334 . S
C2342 C2343 1.287 . S
C2343 C2342 1.287 . S
C2343 C2344 1.524 . S
C2343 H2346 0.999 . S
C2344 H2314 0.950 . S
C2344 C2343 1.524 . S
C2344 C2345 1.415 . S
C2345 H2315 0.950 . S
C2345 C2340 1.363 . S
C2345 C2344 1.415 . S
H2346 C2343 0.999 . S
H2347 C2328 0.913 . S
H2348 C2366 0.951 . S
H2349 C2368 0.951 . S
H2350 C2370 0.950 . S
H2351 C2371 0.950 . S
H2352 C2373 0.950 . S
H2353 C2376 0.950 . S
H2354 C2377 0.950 . S
H2355 C2379 0.950 . S
H2356 C2380 0.950 . S
H2357 C2381 0.951 . S
H2358 C2383 0.951 . S
H2359 C2385 0.950 . S
H2360 C2386 0.950 . S
H2361 C2388 0.950 . S
H2362 C2391 0.950 . S
H2363 C2392 0.950 . S
H2364 C2394 0.950 . S
H2365 C2395 0.950 . S
C2366 H2348 0.951 . S
C2366 C2367 1.366 . S
C2366 C2368 1.388 . S
C2367 C2366 1.366 . S
C2367 C2371 1.385 . S
C2368 H2349 0.951 . S
C2368 C2366 1.388 . S
C2368 C2369 1.366 . S
C2369 C2368 1.366 . S
C2369 C2370 1.414 . S
C2369 C2372 1.499 . S
C2370 H2350 0.950 . S
C2370 C2369 1.414 . S
C2370 C2371 1.374 . S
C2371 H2351 0.950 . S
C2371 C2367 1.385 . S
C2371 C2370 1.374 . S
C2372 C2369 1.499 . S
C2372 C2373 1.373 . S
C2372 C2374 1.389 . S
C2373 H2352 0.950 . S
C2373 C2372 1.373 . S
C2373 C2389 1.377 . S
C2374 C2372 1.389 . S
C2374 C2375 1.524 . S
C2374 C2388 1.377 . S
C2375 C2374 1.524 . S
C2375 C2376 1.397 . S
C2375 C2380 1.363 . S
C2376 H2353 0.950 . S
C2376 C2375 1.397 . S
C2376 C2377 1.334 . S
C2377 H2354 0.950 . S
C2377 C2376 1.334 . S
C2377 C2378 1.287 . S
C2378 C2377 1.287 . S
C2378 C2379 1.524 . S
C2378 H2397 0.913 . S
C2379 H2355 0.950 . S
C2379 C2378 1.524 . S
C2379 C2380 1.415 . S
C2380 H2356 0.950 . S
C2380 C2375 1.363 . S
C2380 C2379 1.415 . S
C2381 H2357 0.951 . S
C2381 C2382 1.366 . S
C2381 C2383 1.388 . S
C2382 C2381 1.366 . S
C2382 C2386 1.385 . S
C2383 H2358 0.951 . S
C2383 C2381 1.388 . S
C2383 C2384 1.366 . S
C2384 C2383 1.366 . S
C2384 C2385 1.414 . S
C2384 C2387 1.499 . S
C2385 H2359 0.950 . S
C2385 C2384 1.414 . S
C2385 C2386 1.374 . S
C2386 H2360 0.950 . S
C2386 C2382 1.385 . S
C2386 C2385 1.374 . S
C2387 C2384 1.499 . S
C2387 C2388 1.373 . S
C2387 C2389 1.389 . S
C2388 H2361 0.950 . S
C2388 C2374 1.377 . S
C2388 C2387 1.373 . S
C2389 C2373 1.377 . S
C2389 C2387 1.389 . S
C2389 C2390 1.524 . S
C2390 C2389 1.524 . S
C2390 C2391 1.397 . S
C2390 C2395 1.363 . S
C2391 H2362 0.950 . S
C2391 C2390 1.397 . S
C2391 C2392 1.334 . S
C2392 H2363 0.950 . S
C2392 C2391 1.334 . S
C2392 C2393 1.287 . S
C2393 C2392 1.287 . S
C2393 C2394 1.524 . S
C2393 H2396 0.999 . S
C2394 H2364 0.950 . S
C2394 C2393 1.524 . S
C2394 C2395 1.415 . S
C2395 H2365 0.950 . S
C2395 C2390 1.363 . S
C2395 C2394 1.415 . S
H2396 C2393 0.999 . S
H2397 C2378 0.913 . S
H2398 C2416 0.951 . S
H2399 C2418 0.951 . S
H2400 C2420 0.963 1_655 S
H2401 C2421 0.950 . S
H2402 C2423 0.950 . S
H2403 C2426 0.950 . S
H2404 C2427 0.950 . S
H2405 C2429 0.950 1_554 S
H2406 C2430 0.993 . S
H2407 C2431 0.951 . S
H2408 C2433 0.951 . S
H2409 C2435 0.963 1_455 S
H2410 C2436 0.950 . S
H2411 C2438 0.950 . S
H2412 C2441 0.950 . S
H2413 C2442 0.950 . S
H2414 C2444 0.950 1_556 S
H2415 C2445 0.993 . S
C2416 H2398 0.951 . S
C2416 C2417 1.366 . S
C2416 C2418 1.388 . S
C2417 C2416 1.366 . S
C2417 C2421 1.385 . S
C2418 H2399 0.951 . S
C2418 C2416 1.388 . S
C2418 C2419 1.366 . S
C2419 C2418 1.366 . S
C2419 C2420 1.414 . S
C2419 C2422 1.499 . S
C2420 H2400 0.963 1_455 S
C2420 C2419 1.414 . S
C2420 C2421 1.374 . S
C2421 H2401 0.950 . S
C2421 C2417 1.385 . S
C2421 C2420 1.374 . S
C2422 C2419 1.499 . S
C2422 C2423 1.373 1_455 S
C2422 C2424 1.389 1_545 S
C2423 H2402 0.950 . S
C2423 C2422 1.373 1_655 S
C2423 C2439 1.377 1_556 S
C2424 C2422 1.389 1_565 S
C2424 C2425 1.524 . S
C2424 C2438 1.377 1_556 S
C2425 C2424 1.524 . S
C2425 C2426 1.397 . S
C2425 C2430 1.333 1_556 S
C2426 H2403 0.950 . S
C2426 C2425 1.397 . S
C2426 C2427 1.334 . S
C2427 H2404 0.950 . S
C2427 C2426 1.334 . S
C2427 C2428 1.287 . S
C2428 C2427 1.287 . S
C2428 C2429 1.524 . S
C2428 H2447 0.913 . S
C2429 H2405 0.950 1_556 S
C2429 C2428 1.524 . S
C2429 C2430 1.405 1_556 S
C2430 H2406 0.993 . S
C2430 C2425 1.333 1_554 S
C2430 C2429 1.405 1_554 S
C2431 H2407 0.951 . S
C2431 C2432 1.366 . S
C2431 C2433 1.388 . S
C2432 C2431 1.366 . S
C2432 C2436 1.385 . S
C2433 H2408 0.951 . S
C2433 C2431 1.388 . S
C2433 C2434 1.366 . S
C2434 C2433 1.366 . S
C2434 C2435 1.414 . S
C2434 C2437 1.499 . S
C2435 H2409 0.963 1_655 S
C2435 C2434 1.414 . S
C2435 C2436 1.374 . S
C2436 H2410 0.950 . S
C2436 C2432 1.385 . S
C2436 C2435 1.374 . S
C2437 C2434 1.499 . S
C2437 C2438 1.373 1_655 S
C2437 C2439 1.389 1_565 S
C2438 H2411 0.950 . S
C2438 C2424 1.377 1_554 S
C2438 C2437 1.373 1_455 S
C2439 C2423 1.377 1_554 S
C2439 C2437 1.389 1_545 S
C2439 C2440 1.524 . S
C2440 C2439 1.524 . S
C2440 C2441 1.397 . S
C2440 C2445 1.333 1_554 S
C2441 H2412 0.950 . S
C2441 C2440 1.397 . S
C2441 C2442 1.334 . S
C2442 H2413 0.950 . S
C2442 C2441 1.334 . S
C2442 C2443 1.287 . S
C2443 C2442 1.287 . S
C2443 C2444 1.524 . S
C2443 H2446 0.999 . S
C2444 H2414 0.950 1_554 S
C2444 C2443 1.524 . S
C2444 C2445 1.405 1_554 S
C2445 H2415 0.993 . S
C2445 C2440 1.333 1_556 S
C2445 C2444 1.405 1_556 S
H2446 C2443 0.999 . S
H2447 C2428 0.913 . S
H2448 C2466 0.951 . S
H2449 C2468 0.951 . S
H2450 C2470 0.950 . S
H2451 C2471 0.950 . S
H2452 C2473 0.950 . S
H2453 C2476 0.950 . S
H2454 C2477 0.950 . S
H2455 C2479 0.950 . S
H2456 C2480 0.950 . S
H2457 C2481 0.951 . S
H2458 C2483 0.951 . S
H2459 C2485 0.950 . S
H2460 C2486 0.950 . S
H2461 C2488 0.950 . S
H2462 C2491 0.950 . S
H2463 C2492 0.950 . S
H2464 C2494 0.950 . S
H2465 C2495 0.950 . S
C2466 H2448 0.951 . S
C2466 C2467 1.366 . S
C2466 C2468 1.388 . S
C2467 C2466 1.366 . S
C2467 C2471 1.385 . S
C2468 H2449 0.951 . S
C2468 C2466 1.388 . S
C2468 C2469 1.366 . S
C2469 C2468 1.366 . S
C2469 C2470 1.414 . S
C2469 C2472 1.499 . S
C2470 H2450 0.950 . S
C2470 C2469 1.414 . S
C2470 C2471 1.374 . S
C2471 H2451 0.950 . S
C2471 C2467 1.385 . S
C2471 C2470 1.374 . S
C2472 C2469 1.499 . S
C2472 C2473 1.373 . S
C2472 C2474 1.389 . S
C2473 H2452 0.950 . S
C2473 C2472 1.373 . S
C2473 C2489 1.377 . S
C2474 C2472 1.389 . S
C2474 C2475 1.524 . S
C2474 C2488 1.377 . S
C2475 C2474 1.524 . S
C2475 C2476 1.397 . S
C2475 C2480 1.363 . S
C2476 H2453 0.950 . S
C2476 C2475 1.397 . S
C2476 C2477 1.334 . S
C2477 H2454 0.950 . S
C2477 C2476 1.334 . S
C2477 C2478 1.287 . S
C2478 C2477 1.287 . S
C2478 C2479 1.524 . S
C2478 H2497 0.913 . S
C2479 H2455 0.950 . S
C2479 C2478 1.524 . S
C2479 C2480 1.415 . S
C2480 H2456 0.950 . S
C2480 C2475 1.363 . S
C2480 C2479 1.415 . S
C2481 H2457 0.951 . S
C2481 C2482 1.366 . S
C2481 C2483 1.388 . S
C2482 C2481 1.366 . S
C2482 C2486 1.385 . S
C2483 H2458 0.951 . S
C2483 C2481 1.388 . S
C2483 C2484 1.366 . S
C2484 C2483 1.366 . S
C2484 C2485 1.414 . S
C2484 C2487 1.499 . S
C2485 H2459 0.950 . S
C2485 C2484 1.414 . S
C2485 C2486 1.374 . S
C2486 H2460 0.950 . S
C2486 C2482 1.385 . S
C2486 C2485 1.374 . S
C2487 C2484 1.499 . S
C2487 C2488 1.373 . S
C2487 C2489 1.389 . S
C2488 H2461 0.950 . S
C2488 C2474 1.377 . S
C2488 C2487 1.373 . S
C2489 C2473 1.377 . S
C2489 C2487 1.389 . S
C2489 C2490 1.524 . S
C2490 C2489 1.524 . S
C2490 C2491 1.397 . S
C2490 C2495 1.363 . S
C2491 H2462 0.950 . S
C2491 C2490 1.397 . S
C2491 C2492 1.334 . S
C2492 H2463 0.950 . S
C2492 C2491 1.334 . S
C2492 C2493 1.287 . S
C2493 C2492 1.287 . S
C2493 C2494 1.524 . S
C2493 H2496 0.999 . S
C2494 H2464 0.950 . S
C2494 C2493 1.524 . S
C2494 C2495 1.415 . S
C2495 H2465 0.950 . S
C2495 C2490 1.363 . S
C2495 C2494 1.415 . S
H2496 C2493 0.999 . S
H2497 C2478 0.913 . S
H2498 C2516 0.951 . S
H2499 C2518 0.951 . S
H2500 C2520 0.950 . S
H2501 C2521 0.950 . S
H2502 C2523 0.950 . S
H2503 C2526 0.950 . S
H2504 C2527 0.950 . S
H2505 C2529 0.950 . S
H2506 C2530 0.950 . S
H2507 C2531 0.951 . S
H2508 C2533 0.951 . S
H2509 C2535 0.950 . S
H2510 C2536 0.950 . S
H2511 C2538 0.950 . S
H2512 C2541 0.950 . S
H2513 C2542 0.950 . S
H2514 C2544 0.950 . S
H2515 C2545 0.950 . S
C2516 H2498 0.951 . S
C2516 C2517 1.366 . S
C2516 C2518 1.388 . S
C2517 C2516 1.366 . S
C2517 C2521 1.385 . S
C2518 H2499 0.951 . S
C2518 C2516 1.388 . S
C2518 C2519 1.366 . S
C2519 C2518 1.366 . S
C2519 C2520 1.414 . S
C2519 C2522 1.499 . S
C2520 H2500 0.950 . S
C2520 C2519 1.414 . S
C2520 C2521 1.374 . S
C2521 H2501 0.950 . S
C2521 C2517 1.385 . S
C2521 C2520 1.374 . S
C2522 C2519 1.499 . S
C2522 C2523 1.373 . S
C2522 C2524 1.389 . S
C2523 H2502 0.950 . S
C2523 C2522 1.373 . S
C2523 C2539 1.377 . S
C2524 C2522 1.389 . S
C2524 C2525 1.524 . S
C2524 C2538 1.377 . S
C2525 C2524 1.524 . S
C2525 C2526 1.397 . S
C2525 C2530 1.363 . S
C2526 H2503 0.950 . S
C2526 C2525 1.397 . S
C2526 C2527 1.334 . S
C2527 H2504 0.950 . S
C2527 C2526 1.334 . S
C2527 C2528 1.287 . S
C2528 C2527 1.287 . S
C2528 C2529 1.524 . S
C2528 H2547 0.913 . S
C2529 H2505 0.950 . S
C2529 C2528 1.524 . S
C2529 C2530 1.415 . S
C2530 H2506 0.950 . S
C2530 C2525 1.363 . S
C2530 C2529 1.415 . S
C2531 H2507 0.951 . S
C2531 C2532 1.366 . S
C2531 C2533 1.388 . S
C2532 C2531 1.366 . S
C2532 C2536 1.385 . S
C2533 H2508 0.951 . S
C2533 C2531 1.388 . S
C2533 C2534 1.366 . S
C2534 C2533 1.366 . S
C2534 C2535 1.414 . S
C2534 C2537 1.499 . S
C2535 H2509 0.950 . S
C2535 C2534 1.414 . S
C2535 C2536 1.374 . S
C2536 H2510 0.950 . S
C2536 C2532 1.385 . S
C2536 C2535 1.374 . S
C2537 C2534 1.499 . S
C2537 C2538 1.373 . S
C2537 C2539 1.389 . S
C2538 H2511 0.950 . S
C2538 C2524 1.377 . S
C2538 C2537 1.373 . S
C2539 C2523 1.377 . S
C2539 C2537 1.389 . S
C2539 C2540 1.524 . S
C2540 C2539 1.524 . S
C2540 C2541 1.397 . S
C2540 C2545 1.363 . S
C2541 H2512 0.950 . S
C2541 C2540 1.397 . S
C2541 C2542 1.334 . S
C2542 H2513 0.950 . S
C2542 C2541 1.334 . S
C2542 C2543 1.287 . S
C2543 C2542 1.287 . S
C2543 C2544 1.524 . S
C2543 H2546 0.999 . S
C2544 H2514 0.950 . S
C2544 C2543 1.524 . S
C2544 C2545 1.415 . S
C2545 H2515 0.950 . S
C2545 C2540 1.363 . S
C2545 C2544 1.415 . S
H2546 C2543 0.999 . S
H2547 C2528 0.913 . S
H2548 C2566 0.951 . S
H2549 C2568 0.951 . S
H2550 C2570 0.950 . S
H2551 C2571 0.950 . S
H2552 C2573 0.950 . S
H2553 C2576 0.950 . S
H2554 C2577 0.950 . S
H2555 C2579 0.950 . S
H2556 C2580 0.950 . S
H2557 C2581 0.951 . S
H2558 C2583 0.951 . S
H2559 C2585 0.950 . S
H2560 C2586 0.950 . S
H2561 C2588 0.950 . S
H2562 C2591 0.950 . S
H2563 C2592 0.950 . S
H2564 C2594 0.950 . S
H2565 C2595 0.950 . S
C2566 H2548 0.951 . S
C2566 C2567 1.366 . S
C2566 C2568 1.388 . S
C2567 C2566 1.366 . S
C2567 C2571 1.385 . S
C2568 H2549 0.951 . S
C2568 C2566 1.388 . S
C2568 C2569 1.366 . S
C2569 C2568 1.366 . S
C2569 C2570 1.414 . S
C2569 C2572 1.499 . S
C2570 H2550 0.950 . S
C2570 C2569 1.414 . S
C2570 C2571 1.374 . S
C2571 H2551 0.950 . S
C2571 C2567 1.385 . S
C2571 C2570 1.374 . S
C2572 C2569 1.499 . S
C2572 C2573 1.373 . S
C2572 C2574 1.389 . S
C2573 H2552 0.950 . S
C2573 C2572 1.373 . S
C2573 C2589 1.377 . S
C2574 C2572 1.389 . S
C2574 C2575 1.524 . S
C2574 C2588 1.377 . S
C2575 C2574 1.524 . S
C2575 C2576 1.397 . S
C2575 C2580 1.363 . S
C2576 H2553 0.950 . S
C2576 C2575 1.397 . S
C2576 C2577 1.334 . S
C2577 H2554 0.950 . S
C2577 C2576 1.334 . S
C2577 C2578 1.287 . S
C2578 C2577 1.287 . S
C2578 C2579 1.524 . S
C2578 H2597 0.913 . S
C2579 H2555 0.950 . S
C2579 C2578 1.524 . S
C2579 C2580 1.415 . S
C2580 H2556 0.950 . S
C2580 C2575 1.363 . S
C2580 C2579 1.415 . S
C2581 H2557 0.951 . S
C2581 C2582 1.366 . S
C2581 C2583 1.388 . S
C2582 C2581 1.366 . S
C2582 C2586 1.385 . S
C2583 H2558 0.951 . S
C2583 C2581 1.388 . S
C2583 C2584 1.366 . S
C2584 C2583 1.366 . S
C2584 C2585 1.414 . S
C2584 C2587 1.499 . S
C2585 H2559 0.950 . S
C2585 C2584 1.414 . S
C2585 C2586 1.374 . S
C2586 H2560 0.950 . S
C2586 C2582 1.385 . S
C2586 C2585 1.374 . S
C2587 C2584 1.499 . S
C2587 C2588 1.373 . S
C2587 C2589 1.389 . S
C2588 H2561 0.950 . S
C2588 C2574 1.377 . S
C2588 C2587 1.373 . S
C2589 C2573 1.377 . S
C2589 C2587 1.389 . S
C2589 C2590 1.524 . S
C2590 C2589 1.524 . S
C2590 C2591 1.397 . S
C2590 C2595 1.363 . S
C2591 H2562 0.950 . S
C2591 C2590 1.397 . S
C2591 C2592 1.334 . S
C2592 H2563 0.950 . S
C2592 C2591 1.334 . S
C2592 C2593 1.287 . S
C2593 C2592 1.287 . S
C2593 C2594 1.524 . S
C2593 H2596 0.999 . S
C2594 H2564 0.950 . S
C2594 C2593 1.524 . S
C2594 C2595 1.415 . S
C2595 H2565 0.950 . S
C2595 C2590 1.363 . S
C2595 C2594 1.415 . S
H2596 C2593 0.999 . S
H2597 C2578 0.913 . S
H2598 C2616 0.951 . S
H2599 C2618 0.951 . S
H2600 C2620 0.950 . S
H2601 C2621 0.950 . S
H2602 C2623 0.950 . S
H2603 C2626 0.950 . S
H2604 C2627 0.950 . S
H2605 C2629 0.950 . S
H2606 C2630 0.950 . S
H2607 C2631 0.951 . S
H2608 C2633 0.951 . S
H2609 C2635 0.950 . S
H2610 C2636 0.950 . S
H2611 C2638 0.950 . S
H2612 C2641 0.950 . S
H2613 C2642 0.950 . S
H2614 C2644 0.950 . S
H2615 C2645 0.950 . S
C2616 H2598 0.951 . S
C2616 C2617 1.366 . S
C2616 C2618 1.388 . S
C2617 C2616 1.366 . S
C2617 C2621 1.385 . S
C2618 H2599 0.951 . S
C2618 C2616 1.388 . S
C2618 C2619 1.366 . S
C2619 C2618 1.366 . S
C2619 C2620 1.414 . S
C2619 C2622 1.499 . S
C2620 H2600 0.950 . S
C2620 C2619 1.414 . S
C2620 C2621 1.374 . S
C2621 H2601 0.950 . S
C2621 C2617 1.385 . S
C2621 C2620 1.374 . S
C2622 C2619 1.499 . S
C2622 C2623 1.373 . S
C2622 C2624 1.389 . S
C2623 H2602 0.950 . S
C2623 C2622 1.373 . S
C2623 C2639 1.377 . S
C2624 C2622 1.389 . S
C2624 C2625 1.524 . S
C2624 C2638 1.377 . S
C2625 C2624 1.524 . S
C2625 C2626 1.397 . S
C2625 C2630 1.363 . S
C2626 H2603 0.950 . S
C2626 C2625 1.397 . S
C2626 C2627 1.334 . S
C2627 H2604 0.950 . S
C2627 C2626 1.334 . S
C2627 C2628 1.287 . S
C2628 C2627 1.287 . S
C2628 C2629 1.524 . S
C2628 H2647 0.913 . S
C2629 H2605 0.950 . S
C2629 C2628 1.524 . S
C2629 C2630 1.415 . S
C2630 H2606 0.950 . S
C2630 C2625 1.363 . S
C2630 C2629 1.415 . S
C2631 H2607 0.951 . S
C2631 C2632 1.366 . S
C2631 C2633 1.388 . S
C2632 C2631 1.366 . S
C2632 C2636 1.385 . S
C2633 H2608 0.951 . S
C2633 C2631 1.388 . S
C2633 C2634 1.366 . S
C2634 C2633 1.366 . S
C2634 C2635 1.414 . S
C2634 C2637 1.499 . S
C2635 H2609 0.950 . S
C2635 C2634 1.414 . S
C2635 C2636 1.374 . S
C2636 H2610 0.950 . S
C2636 C2632 1.385 . S
C2636 C2635 1.374 . S
C2637 C2634 1.499 . S
C2637 C2638 1.373 . S
C2637 C2639 1.389 . S
C2638 H2611 0.950 . S
C2638 C2624 1.377 . S
C2638 C2637 1.373 . S
C2639 C2623 1.377 . S
C2639 C2637 1.389 . S
C2639 C2640 1.524 . S
C2640 C2639 1.524 . S
C2640 C2641 1.397 . S
C2640 C2645 1.363 . S
C2641 H2612 0.950 . S
C2641 C2640 1.397 . S
C2641 C2642 1.334 . S
C2642 H2613 0.950 . S
C2642 C2641 1.334 . S
C2642 C2643 1.287 . S
C2643 C2642 1.287 . S
C2643 C2644 1.524 . S
C2643 H2646 0.999 . S
C2644 H2614 0.950 . S
C2644 C2643 1.524 . S
C2644 C2645 1.415 . S
C2645 H2615 0.950 . S
C2645 C2640 1.363 . S
C2645 C2644 1.415 . S
H2646 C2643 0.999 . S
H2647 C2628 0.913 . S
H2648 C2666 0.951 . S
H2649 C2668 0.951 . S
H2650 C2670 0.950 . S
H2651 C2671 0.950 . S
H2652 C2673 0.950 . S
H2653 C2676 0.950 . S
H2654 C2677 0.950 . S
H2655 C2679 0.950 . S
H2656 C2680 0.950 . S
H2657 C2681 0.951 . S
H2658 C2683 0.951 . S
H2659 C2685 0.950 . S
H2660 C2686 0.950 . S
H2661 C2688 0.950 . S
H2662 C2691 0.950 . S
H2663 C2692 0.950 . S
H2664 C2694 0.950 . S
H2665 C2695 0.950 . S
C2666 H2648 0.951 . S
C2666 C2667 1.366 . S
C2666 C2668 1.388 . S
C2667 C2666 1.366 . S
C2667 C2671 1.385 . S
C2668 H2649 0.951 . S
C2668 C2666 1.388 . S
C2668 C2669 1.366 . S
C2669 C2668 1.366 . S
C2669 C2670 1.414 . S
C2669 C2672 1.499 . S
C2670 H2650 0.950 . S
C2670 C2669 1.414 . S
C2670 C2671 1.374 . S
C2671 H2651 0.950 . S
C2671 C2667 1.385 . S
C2671 C2670 1.374 . S
C2672 C2669 1.499 . S
C2672 C2673 1.373 . S
C2672 C2674 1.389 . S
C2673 H2652 0.950 . S
C2673 C2672 1.373 . S
C2673 C2689 1.377 1_554 S
C2674 C2672 1.389 . S
C2674 C2675 1.524 . S
C2674 C2688 1.377 1_554 S
C2675 C2674 1.524 . S
C2675 C2676 1.397 . S
C2675 C2680 1.363 . S
C2676 H2653 0.950 . S
C2676 C2675 1.397 . S
C2676 C2677 1.334 . S
C2677 H2654 0.950 . S
C2677 C2676 1.334 . S
C2677 C2678 1.287 . S
C2678 C2677 1.287 . S
C2678 C2679 1.524 . S
C2678 H2697 0.913 . S
C2679 H2655 0.950 . S
C2679 C2678 1.524 . S
C2679 C2680 1.415 . S
C2680 H2656 0.950 . S
C2680 C2675 1.363 . S
C2680 C2679 1.415 . S
C2681 H2657 0.951 . S
C2681 C2682 1.366 . S
C2681 C2683 1.388 . S
C2682 C2681 1.366 . S
C2682 C2686 1.385 . S
C2683 H2658 0.951 . S
C2683 C2681 1.388 . S
C2683 C2684 1.366 . S
C2684 C2683 1.366 . S
C2684 C2685 1.414 . S
C2684 C2687 1.499 . S
C2685 H2659 0.950 . S
C2685 C2684 1.414 . S
C2685 C2686 1.374 . S
C2686 H2660 0.950 . S
C2686 C2682 1.385 . S
C2686 C2685 1.374 . S
C2687 C2684 1.499 . S
C2687 C2688 1.373 . S
C2687 C2689 1.389 . S
C2688 H2661 0.950 . S
C2688 C2674 1.377 1_556 S
C2688 C2687 1.373 . S
C2689 C2673 1.377 1_556 S
C2689 C2687 1.389 . S
C2689 C2690 1.524 . S
C2690 C2689 1.524 . S
C2690 C2691 1.397 . S
C2690 C2695 1.363 . S
C2691 H2662 0.950 . S
C2691 C2690 1.397 . S
C2691 C2692 1.334 . S
C2692 H2663 0.950 . S
C2692 C2691 1.334 . S
C2692 C2693 1.287 . S
C2693 C2692 1.287 . S
C2693 C2694 1.524 . S
C2693 H2696 0.999 . S
C2694 H2664 0.950 . S
C2694 C2693 1.524 . S
C2694 C2695 1.415 . S
C2695 H2665 0.950 . S
C2695 C2690 1.363 . S
C2695 C2694 1.415 . S
H2696 C2693 0.999 . S
H2697 C2678 0.913 . S
H2698 C2716 0.951 . S
H2699 C2718 0.951 . S
H2700 C2720 0.950 . S
H2701 C2721 0.950 . S
H2702 C2723 0.950 . S
H2703 C2726 0.950 . S
H2704 C2727 0.950 . S
H2705 C2729 0.950 . S
H2706 C2730 0.950 . S
H2707 C2731 0.951 . S
H2708 C2733 0.951 . S
H2709 C2735 0.950 . S
H2710 C2736 0.950 . S
H2711 C2738 0.950 . S
H2712 C2741 0.950 . S
H2713 C2742 0.950 . S
H2714 C2744 0.950 . S
H2715 C2745 0.950 . S
C2716 H2698 0.951 . S
C2716 C2717 1.366 . S
C2716 C2718 1.388 . S
C2717 C2716 1.366 . S
C2717 C2721 1.385 . S
C2718 H2699 0.951 . S
C2718 C2716 1.388 . S
C2718 C2719 1.366 . S
C2719 C2718 1.366 . S
C2719 C2720 1.414 . S
C2719 C2722 1.499 . S
C2720 H2700 0.950 . S
C2720 C2719 1.414 . S
C2720 C2721 1.374 . S
C2721 H2701 0.950 . S
C2721 C2717 1.385 . S
C2721 C2720 1.374 . S
C2722 C2719 1.499 . S
C2722 C2723 1.373 1_455 S
C2722 C2724 1.389 . S
C2723 H2702 0.950 . S
C2723 C2722 1.373 1_655 S
C2723 C2739 1.377 . S
C2724 C2722 1.389 . S
C2724 C2725 1.524 . S
C2724 C2738 1.377 . S
C2725 C2724 1.524 . S
C2725 C2726 1.397 . S
C2725 C2730 1.363 . S
C2726 H2703 0.950 . S
C2726 C2725 1.397 . S
C2726 C2727 1.334 . S
C2727 H2704 0.950 . S
C2727 C2726 1.334 . S
C2727 C2728 1.287 . S
C2728 C2727 1.287 . S
C2728 C2729 1.524 . S
C2728 H2747 0.913 . S
C2729 H2705 0.950 . S
C2729 C2728 1.524 . S
C2729 C2730 1.415 . S
C2730 H2706 0.950 . S
C2730 C2725 1.363 . S
C2730 C2729 1.415 . S
C2731 H2707 0.951 . S
C2731 C2732 1.366 . S
C2731 C2733 1.388 . S
C2732 C2731 1.366 . S
C2732 C2736 1.385 . S
C2733 H2708 0.951 . S
C2733 C2731 1.388 . S
C2733 C2734 1.366 . S
C2734 C2733 1.366 . S
C2734 C2735 1.414 . S
C2734 C2737 1.499 . S
C2735 H2709 0.950 . S
C2735 C2734 1.414 . S
C2735 C2736 1.374 . S
C2736 H2710 0.950 . S
C2736 C2732 1.385 . S
C2736 C2735 1.374 . S
C2737 C2734 1.499 . S
C2737 C2738 1.373 1_655 S
C2737 C2739 1.389 . S
C2738 H2711 0.950 . S
C2738 C2724 1.377 . S
C2738 C2737 1.373 1_455 S
C2739 C2723 1.377 . S
C2739 C2737 1.389 . S
C2739 C2740 1.524 . S
C2740 C2739 1.524 . S
C2740 C2741 1.397 . S
C2740 C2745 1.363 . S
C2741 H2712 0.950 . S
C2741 C2740 1.397 . S
C2741 C2742 1.334 . S
C2742 H2713 0.950 . S
C2742 C2741 1.334 . S
C2742 C2743 1.287 . S
C2743 C2742 1.287 . S
C2743 C2744 1.524 . S
C2743 H2746 0.999 . S
C2744 H2714 0.950 . S
C2744 C2743 1.524 . S
C2744 C2745 1.415 . S
C2745 H2715 0.950 . S
C2745 C2740 1.363 . S
C2745 C2744 1.415 . S
H2746 C2743 0.999 . S
H2747 C2728 0.913 . S
H2748 C2766 0.951 . S
H2749 C2768 0.951 . S
H2750 C2770 0.950 1_655 S
H2751 C2771 0.950 . S
H2752 C2773 0.950 . S
H2753 C2776 0.950 1_655 S
H2754 C2777 0.950 1_655 S
H2755 C2779 0.984 . S
H2756 C2780 0.950 . S
H2757 C2781 0.951 . S
H2758 C2783 0.951 . S
H2759 C2785 0.950 1_455 S
H2760 C2786 0.950 . S
H2761 C2788 0.950 . S
H2762 C2791 0.950 1_455 S
H2763 C2792 0.950 1_455 S
H2764 C2794 0.984 . S
H2765 C2795 0.950 . S
C2766 H2748 0.951 . S
C2766 C2767 1.366 . S
C2766 C2768 1.388 . S
C2767 C2766 1.366 . S
C2767 C2771 1.385 . S
C2768 H2749 0.951 . S
C2768 C2766 1.388 . S
C2768 C2769 1.366 . S
C2769 C2768 1.366 . S
C2769 C2770 1.414 . S
C2769 C2772 1.499 . S
C2770 H2750 0.950 1_455 S
C2770 C2769 1.414 . S
C2770 C2771 1.374 . S
C2771 H2751 0.950 . S
C2771 C2767 1.385 . S
C2771 C2770 1.374 . S
C2772 C2769 1.499 . S
C2772 C2773 1.367 1_455 S
C2772 C2774 1.389 . S
C2773 H2752 0.950 . S
C2773 C2772 1.367 1_655 S
C2773 C2789 1.382 1_554 S
C2774 C2772 1.389 . S
C2774 C2775 1.524 . S
C2774 C2788 1.382 1_554 S
C2775 C2774 1.524 . S
C2775 C2776 1.397 . S
C2775 C2780 1.363 1_554 S
C2776 H2753 0.950 1_455 S
C2776 C2775 1.397 . S
C2776 C2777 1.334 . S
C2777 H2754 0.950 1_455 S
C2777 C2776 1.334 . S
C2777 C2778 1.287 . S
C2778 C2777 1.287 . S
C2778 C2779 1.478 1_554 S
C2778 H2797 0.913 . S
C2779 H2755 0.984 . S
C2779 C2778 1.478 1_556 S
C2779 C2780 1.425 . S
C2780 H2756 0.950 . S
C2780 C2775 1.363 1_556 S
C2780 C2779 1.425 . S
C2781 H2757 0.951 . S
C2781 C2782 1.366 . S
C2781 C2783 1.388 . S
C2782 C2781 1.366 . S
C2782 C2786 1.385 . S
C2783 H2758 0.951 . S
C2783 C2781 1.388 . S
C2783 C2784 1.366 . S
C2784 C2783 1.366 . S
C2784 C2785 1.414 . S
C2784 C2787 1.499 . S
C2785 H2759 0.950 1_655 S
C2785 C2784 1.414 . S
C2785 C2786 1.374 . S
C2786 H2760 0.950 . S
C2786 C2782 1.385 . S
C2786 C2785 1.374 . S
C2787 C2784 1.499 . S
C2787 C2788 1.367 1_655 S
C2787 C2789 1.389 . S
C2788 H2761 0.950 . S
C2788 C2774 1.382 1_556 S
C2788 C2787 1.367 1_455 S
C2789 C2773 1.382 1_556 S
C2789 C2787 1.389 . S
C2789 C2790 1.524 . S
C2790 C2789 1.524 . S
C2790 C2791 1.397 . S
C2790 C2795 1.363 1_556 S
C2791 H2762 0.950 1_655 S
C2791 C2790 1.397 . S
C2791 C2792 1.334 . S
C2792 H2763 0.950 1_655 S
C2792 C2791 1.334 . S
C2792 C2793 1.287 . S
C2793 C2792 1.287 . S
C2793 C2794 1.478 1_556 S
C2793 H2796 0.999 . S
C2794 H2764 0.984 . S
C2794 C2793 1.478 1_554 S
C2794 C2795 1.425 . S
C2795 H2765 0.950 . S
C2795 C2790 1.363 1_554 S
C2795 C2794 1.425 . S
H2796 C2793 0.999 . S
H2797 C2778 0.913 . S
H2798 C2816 0.951 . S
H2799 C2818 0.951 . S
H2800 C2820 0.950 . S
H2801 C2821 0.950 . S
H2802 C2823 0.950 . S
H2803 C2826 0.950 . S
H2804 C2827 0.950 . S
H2805 C2829 0.950 . S
H2806 C2830 0.950 . S
H2807 C2831 0.951 . S
H2808 C2833 0.951 . S
H2809 C2835 0.950 . S
H2810 C2836 0.950 . S
H2811 C2838 0.950 . S
H2812 C2841 0.950 . S
H2813 C2842 0.950 . S
H2814 C2844 0.950 . S
H2815 C2845 0.950 . S
C2816 H2798 0.951 . S
C2816 C2817 1.366 . S
C2816 C2818 1.388 . S
C2817 C2816 1.366 . S
C2817 C2821 1.385 . S
C2818 H2799 0.951 . S
C2818 C2816 1.388 . S
C2818 C2819 1.366 . S
C2819 C2818 1.366 . S
C2819 C2820 1.414 . S
C2819 C2822 1.499 . S
C2820 H2800 0.950 . S
C2820 C2819 1.414 . S
C2820 C2821 1.374 . S
C2821 H2801 0.950 . S
C2821 C2817 1.385 . S
C2821 C2820 1.374 . S
C2822 C2819 1.499 . S
C2822 C2823 1.373 . S
C2822 C2824 1.389 . S
C2823 H2802 0.950 . S
C2823 C2822 1.373 . S
C2823 C2839 1.377 . S
C2824 C2822 1.389 . S
C2824 C2825 1.524 . S
C2824 C2838 1.377 . S
C2825 C2824 1.524 . S
C2825 C2826 1.397 . S
C2825 C2830 1.363 . S
C2826 H2803 0.950 . S
C2826 C2825 1.397 . S
C2826 C2827 1.334 . S
C2827 H2804 0.950 . S
C2827 C2826 1.334 . S
C2827 C2828 1.287 . S
C2828 C2827 1.287 . S
C2828 C2829 1.524 . S
C2828 H2847 0.913 . S
C2829 H2805 0.950 . S
C2829 C2828 1.524 . S
C2829 C2830 1.415 . S
C2830 H2806 0.950 . S
C2830 C2825 1.363 . S
C2830 C2829 1.415 . S
C2831 H2807 0.951 . S
C2831 C2832 1.366 . S
C2831 C2833 1.388 . S
C2832 C2831 1.366 . S
C2832 C2836 1.385 . S
C2833 H2808 0.951 . S
C2833 C2831 1.388 . S
C2833 C2834 1.366 . S
C2834 C2833 1.366 . S
C2834 C2835 1.414 . S
C2834 C2837 1.499 . S
C2835 H2809 0.950 . S
C2835 C2834 1.414 . S
C2835 C2836 1.374 . S
C2836 H2810 0.950 . S
C2836 C2832 1.385 . S
C2836 C2835 1.374 . S
C2837 C2834 1.499 . S
C2837 C2838 1.373 . S
C2837 C2839 1.389 . S
C2838 H2811 0.950 . S
C2838 C2824 1.377 . S
C2838 C2837 1.373 . S
C2839 C2823 1.377 . S
C2839 C2837 1.389 . S
C2839 C2840 1.524 . S
C2840 C2839 1.524 . S
C2840 C2841 1.397 . S
C2840 C2845 1.363 . S
C2841 H2812 0.950 . S
C2841 C2840 1.397 . S
C2841 C2842 1.334 . S
C2842 H2813 0.950 . S
C2842 C2841 1.334 . S
C2842 C2843 1.287 . S
C2843 C2842 1.287 . S
C2843 C2844 1.524 . S
C2843 H2846 0.999 . S
C2844 H2814 0.950 . S
C2844 C2843 1.524 . S
C2844 C2845 1.415 . S
C2845 H2815 0.950 . S
C2845 C2840 1.363 . S
C2845 C2844 1.415 . S
H2846 C2843 0.999 . S
H2847 C2828 0.913 . S
H2848 C2866 0.951 . S
H2849 C2868 0.951 . S
H2850 C2870 0.950 . S
H2851 C2871 0.950 . S
H2852 C2873 0.950 . S
H2853 C2876 0.950 . S
H2854 C2877 0.950 . S
H2855 C2879 0.950 . S
H2856 C2880 0.950 . S
H2857 C2881 0.951 . S
H2858 C2883 0.951 . S
H2859 C2885 0.950 . S
H2860 C2886 0.950 1_565 S
H2861 C2888 0.950 . S
H2862 C2891 0.950 . S
H2863 C2892 0.950 . S
H2864 C2894 0.950 . S
H2865 C2895 0.950 . S
C2866 H2848 0.951 . S
C2866 C2867 1.366 . S
C2866 C2868 1.388 . S
C2867 C2866 1.366 . S
C2867 C2871 1.385 . S
C2868 H2849 0.951 . S
C2868 C2866 1.388 . S
C2868 C2869 1.366 . S
C2869 C2868 1.366 . S
C2869 C2870 1.414 . S
C2869 C2872 1.499 . S
C2870 H2850 0.950 . S
C2870 C2869 1.414 . S
C2870 C2871 1.374 . S
C2871 H2851 0.950 . S
C2871 C2867 1.385 . S
C2871 C2870 1.374 . S
C2872 C2869 1.499 . S
C2872 C2873 1.373 . S
C2872 C2874 1.389 . S
C2873 H2852 0.950 . S
C2873 C2872 1.373 . S
C2873 C2889 1.377 . S
C2874 C2872 1.389 . S
C2874 C2875 1.524 . S
C2874 C2888 1.377 . S
C2875 C2874 1.524 . S
C2875 C2876 1.397 . S
C2875 C2880 1.363 . S
C2876 H2853 0.950 . S
C2876 C2875 1.397 . S
C2876 C2877 1.334 . S
C2877 H2854 0.950 . S
C2877 C2876 1.334 . S
C2877 C2878 1.287 . S
C2878 C2877 1.287 . S
C2878 C2879 1.524 . S
C2878 H2897 0.913 . S
C2879 H2855 0.950 . S
C2879 C2878 1.524 . S
C2879 C2880 1.415 . S
C2880 H2856 0.950 . S
C2880 C2875 1.363 . S
C2880 C2879 1.415 . S
C2881 H2857 0.951 . S
C2881 C2882 1.366 . S
C2881 C2883 1.388 . S
C2882 C2881 1.366 . S
C2882 C2886 1.385 . S
C2883 H2858 0.951 . S
C2883 C2881 1.388 . S
C2883 C2884 1.366 . S
C2884 C2883 1.366 . S
C2884 C2885 1.414 . S
C2884 C2887 1.499 . S
C2885 H2859 0.950 . S
C2885 C2884 1.414 . S
C2885 C2886 1.374 . S
C2886 H2860 0.950 1_545 S
C2886 C2882 1.385 . S
C2886 C2885 1.374 . S
C2887 C2884 1.499 . S
C2887 C2888 1.373 . S
C2887 C2889 1.389 . S
C2888 H2861 0.950 . S
C2888 C2874 1.377 . S
C2888 C2887 1.373 . S
C2889 C2873 1.377 . S
C2889 C2887 1.389 . S
C2889 C2890 1.524 . S
C2890 C2889 1.524 . S
C2890 C2891 1.397 . S
C2890 C2895 1.363 . S
C2891 H2862 0.950 . S
C2891 C2890 1.397 . S
C2891 C2892 1.334 . S
C2892 H2863 0.950 . S
C2892 C2891 1.334 . S
C2892 C2893 1.287 . S
C2893 C2892 1.287 . S
C2893 C2894 1.524 . S
C2893 H2896 0.999 . S
C2894 H2864 0.950 . S
C2894 C2893 1.524 . S
C2894 C2895 1.415 . S
C2895 H2865 0.950 . S
C2895 C2890 1.363 . S
C2895 C2894 1.415 . S
H2896 C2893 0.999 . S
H2897 C2878 0.913 . S
H2898 C2916 0.954 . S
H2899 C2918 0.951 . S
H2900 C2920 0.950 . S
H2901 C2921 0.950 . S
H2902 C2923 0.950 . S
H2903 C2926 0.950 . S
H2904 C2927 0.950 . S
H2905 C2929 0.950 1_565 S
H2906 C2930 0.950 . S
H2907 C2931 0.951 . S
H2908 C2933 0.951 . S
H2909 C2935 0.950 . S
H2910 C2936 0.950 . S
H2911 C2938 0.950 . S
H2912 C2941 0.950 . S
H2913 C2942 0.950 . S
H2914 C2944 0.950 . S
H2915 C2945 0.950 . S
C2916 H2898 0.954 . S
C2916 C2917 1.366 . S
C2916 C2918 1.388 . S
C2917 C2916 1.366 . S
C2917 C2921 1.385 . S
C2918 H2899 0.951 . S
C2918 C2916 1.388 . S
C2918 C2919 1.366 . S
C2919 C2918 1.366 . S
C2919 C2920 1.414 . S
C2919 C2922 1.499 . S
C2920 H2900 0.950 . S
C2920 C2919 1.414 . S
C2920 C2921 1.374 . S
C2921 H2901 0.950 . S
C2921 C2917 1.385 . S
C2921 C2920 1.374 . S
C2922 C2919 1.499 . S
C2922 C2923 1.373 . S
C2922 C2924 1.389 . S
C2923 H2902 0.950 . S
C2923 C2922 1.373 . S
C2923 C2939 1.377 . S
C2924 C2922 1.389 . S
C2924 C2925 1.524 . S
C2924 C2938 1.377 . S
C2925 C2924 1.524 . S
C2925 C2926 1.397 . S
C2925 C2930 1.363 . S
C2926 H2903 0.950 . S
C2926 C2925 1.397 . S
C2926 C2927 1.334 . S
C2927 H2904 0.950 . S
C2927 C2926 1.334 . S
C2927 C2928 1.274 1_545 S
C2928 C2927 1.274 1_565 S
C2928 C2929 1.517 1_565 S
C2928 H2947 0.938 . S
C2929 H2905 0.950 1_545 S
C2929 C2928 1.517 1_545 S
C2929 C2930 1.415 . S
C2930 H2906 0.950 . S
C2930 C2925 1.363 . S
C2930 C2929 1.415 . S
C2931 H2907 0.951 . S
C2931 C2932 1.366 . S
C2931 C2933 1.388 . S
C2932 C2931 1.366 . S
C2932 C2936 1.385 . S
C2933 H2908 0.951 . S
C2933 C2931 1.388 . S
C2933 C2934 1.366 . S
C2934 C2933 1.366 . S
C2934 C2935 1.414 . S
C2934 C2937 1.499 . S
C2935 H2909 0.950 . S
C2935 C2934 1.414 . S
C2935 C2936 1.374 . S
C2936 H2910 0.950 . S
C2936 C2932 1.385 . S
C2936 C2935 1.374 . S
C2937 C2934 1.499 . S
C2937 C2938 1.373 . S
C2937 C2939 1.389 . S
C2938 H2911 0.950 . S
C2938 C2924 1.377 . S
C2938 C2937 1.373 . S
C2939 C2923 1.377 . S
C2939 C2937 1.389 . S
C2939 C2940 1.524 . S
C2940 C2939 1.524 . S
C2940 C2941 1.397 . S
C2940 C2945 1.363 . S
C2941 H2912 0.950 . S
C2941 C2940 1.397 . S
C2941 C2942 1.334 . S
C2942 H2913 0.950 . S
C2942 C2941 1.334 . S
C2942 C2943 1.287 . S
C2943 C2942 1.287 . S
C2943 C2944 1.524 . S
C2943 H2946 0.999 . S
C2944 H2914 0.950 . S
C2944 C2943 1.524 . S
C2944 C2945 1.415 . S
C2945 H2915 0.950 . S
C2945 C2940 1.363 . S
C2945 C2944 1.415 . S
H2946 C2943 0.999 . S
H2947 C2928 0.938 . S
H2948 C2966 0.951 . S
H2949 C2968 0.951 . S
H2950 C2970 0.950 . S
H2951 C2971 0.950 . S
H2952 C2973 0.950 . S
H2953 C2976 0.950 . S
H2954 C2977 0.950 . S
H2955 C2979 0.950 . S
H2956 C2980 0.950 . S
H2957 C2981 0.951 1_545 S
H2958 C2983 0.951 . S
H2959 C2985 0.950 . S
H2960 C2986 0.950 . S
H2961 C2988 0.950 . S
H2962 C2991 0.950 . S
H2963 C2992 0.950 . S
H2964 C2994 0.950 . S
H2965 C2995 0.950 . S
C2966 H2948 0.951 . S
C2966 C2967 1.366 . S
C2966 C2968 1.388 . S
C2967 C2966 1.366 . S
C2967 C2971 1.385 . S
C2968 H2949 0.951 . S
C2968 C2966 1.388 . S
C2968 C2969 1.366 . S
C2969 C2968 1.366 . S
C2969 C2970 1.414 . S
C2969 C2972 1.499 . S
C2970 H2950 0.950 . S
C2970 C2969 1.414 . S
C2970 C2971 1.374 . S
C2971 H2951 0.950 . S
C2971 C2967 1.385 . S
C2971 C2970 1.374 . S
C2972 C2969 1.499 . S
C2972 C2973 1.373 . S
C2972 C2974 1.389 . S
C2973 H2952 0.950 . S
C2973 C2972 1.373 . S
C2973 C2989 1.377 . S
C2974 C2972 1.389 . S
C2974 C2975 1.524 . S
C2974 C2988 1.377 . S
C2975 C2974 1.524 . S
C2975 C2976 1.397 . S
C2975 C2980 1.363 . S
C2976 H2953 0.950 . S
C2976 C2975 1.397 . S
C2976 C2977 1.334 . S
C2977 H2954 0.950 . S
C2977 C2976 1.334 . S
C2977 C2978 1.287 . S
C2978 C2977 1.287 . S
C2978 C2979 1.524 . S
C2978 H2997 0.913 . S
C2979 H2955 0.950 . S
C2979 C2978 1.524 . S
C2979 C2980 1.415 . S
C2980 H2956 0.950 . S
C2980 C2975 1.363 . S
C2980 C2979 1.415 . S
C2981 H2957 0.951 1_565 S
C2981 C2982 1.366 . S
C2981 C2983 1.388 . S
C2982 C2981 1.366 . S
C2982 C2986 1.385 . S
C2983 H2958 0.951 . S
C2983 C2981 1.388 . S
C2983 C2984 1.366 . S
C2984 C2983 1.366 . S
C2984 C2985 1.414 . S
C2984 C2987 1.499 . S
C2985 H2959 0.950 . S
C2985 C2984 1.414 . S
C2985 C2986 1.374 . S
C2986 H2960 0.950 . S
C2986 C2982 1.385 . S
C2986 C2985 1.374 . S
C2987 C2984 1.499 . S
C2987 C2988 1.373 . S
C2987 C2989 1.389 . S
C2988 H2961 0.950 . S
C2988 C2974 1.377 . S
C2988 C2987 1.373 . S
C2989 C2973 1.377 . S
C2989 C2987 1.389 . S
C2989 C2990 1.524 . S
C2990 C2989 1.524 . S
C2990 C2991 1.397 . S
C2990 C2995 1.363 . S
C2991 H2962 0.950 . S
C2991 C2990 1.397 . S
C2991 C2992 1.334 . S
C2992 H2963 0.950 . S
C2992 C2991 1.334 . S
C2992 C2993 1.287 . S
C2993 C2992 1.287 . S
C2993 C2994 1.524 . S
C2993 H2996 0.999 . S
C2994 H2964 0.950 . S
C2994 C2993 1.524 . S
C2994 C2995 1.415 . S
C2995 H2965 0.950 . S
C2995 C2990 1.363 . S
C2995 C2994 1.415 . S
H2996 C2993 0.999 . S
H2997 C2978 0.913 . S
H2998 C3016 0.951 . S
H2999 C3018 0.951 . S
H3000 C3020 0.950 . S
H3001 C3021 0.950 . S
H3002 C3023 0.950 . S
H3003 C3026 0.950 . S
H3004 C3027 0.950 . S
H3005 C3029 0.950 . S
H3006 C3030 0.950 . S
H3007 C3031 0.951 1_545 S
H3008 C3033 0.951 . S
H3009 C3035 0.950 . S
H3010 C3036 0.950 . S
H3011 C3038 0.950 . S
H3012 C3041 0.950 . S
H3013 C3042 0.950 . S
H3014 C3044 0.950 . S
H3015 C3045 0.950 . S
C3016 H2998 0.951 . S
C3016 C3017 1.366 . S
C3016 C3018 1.388 . S
C3017 C3016 1.366 . S
C3017 C3021 1.385 . S
C3018 H2999 0.951 . S
C3018 C3016 1.388 . S
C3018 C3019 1.366 . S
C3019 C3018 1.366 . S
C3019 C3020 1.414 . S
C3019 C3022 1.499 . S
C3020 H3000 0.950 . S
C3020 C3019 1.414 . S
C3020 C3021 1.374 . S
C3021 H3001 0.950 . S
C3021 C3017 1.385 . S
C3021 C3020 1.374 . S
C3022 C3019 1.499 . S
C3022 C3023 1.373 . S
C3022 C3024 1.389 . S
C3023 H3002 0.950 . S
C3023 C3022 1.373 . S
C3023 C3039 1.377 . S
C3024 C3022 1.389 . S
C3024 C3025 1.524 . S
C3024 C3038 1.377 . S
C3025 C3024 1.524 . S
C3025 C3026 1.397 . S
C3025 C3030 1.363 . S
C3026 H3003 0.950 . S
C3026 C3025 1.397 . S
C3026 C3027 1.334 . S
C3027 H3004 0.950 . S
C3027 C3026 1.334 . S
C3027 C3028 1.287 . S
C3028 C3027 1.287 . S
C3028 C3029 1.524 . S
C3028 H3047 0.913 . S
C3029 H3005 0.950 . S
C3029 C3028 1.524 . S
C3029 C3030 1.415 . S
C3030 H3006 0.950 . S
C3030 C3025 1.363 . S
C3030 C3029 1.415 . S
C3031 H3007 0.951 1_565 S
C3031 C3032 1.366 . S
C3031 C3033 1.388 . S
C3032 C3031 1.366 . S
C3032 C3036 1.385 . S
C3033 H3008 0.951 . S
C3033 C3031 1.388 . S
C3033 C3034 1.366 . S
C3034 C3033 1.366 . S
C3034 C3035 1.414 . S
C3034 C3037 1.499 . S
C3035 H3009 0.950 . S
C3035 C3034 1.414 . S
C3035 C3036 1.374 . S
C3036 H3010 0.950 . S
C3036 C3032 1.385 . S
C3036 C3035 1.374 . S
C3037 C3034 1.499 . S
C3037 C3038 1.373 . S
C3037 C3039 1.389 . S
C3038 H3011 0.950 . S
C3038 C3024 1.377 . S
C3038 C3037 1.373 . S
C3039 C3023 1.377 . S
C3039 C3037 1.389 . S
C3039 C3040 1.524 . S
C3040 C3039 1.524 . S
C3040 C3041 1.397 . S
C3040 C3045 1.363 . S
C3041 H3012 0.950 . S
C3041 C3040 1.397 . S
C3041 C3042 1.334 . S
C3042 H3013 0.950 . S
C3042 C3041 1.334 . S
C3042 C3043 1.287 . S
C3043 C3042 1.287 . S
C3043 C3044 1.524 . S
C3043 H3046 0.999 . S
C3044 H3014 0.950 . S
C3044 C3043 1.524 . S
C3044 C3045 1.415 . S
C3045 H3015 0.950 . S
C3045 C3040 1.363 . S
C3045 C3044 1.415 . S
H3046 C3043 0.999 . S
H3047 C3028 0.913 . S
H3048 C3066 0.951 . S
H3049 C3068 0.951 . S
H3050 C3070 0.950 . S
H3051 C3071 0.950 . S
H3052 C3073 0.950 . S
H3053 C3076 0.950 . S
H3054 C3077 0.950 . S
H3055 C3079 0.950 . S
H3056 C3080 0.950 . S
H3057 C3081 0.951 . S
H3058 C3083 0.951 . S
H3059 C3085 0.950 . S
H3060 C3086 0.950 . S
H3061 C3088 0.950 . S
H3062 C3091 0.950 . S
H3063 C3092 0.950 . S
H3064 C3094 0.950 . S
H3065 C3095 0.950 . S
C3066 H3048 0.951 . S
C3066 C3067 1.366 . S
C3066 C3068 1.388 . S
C3067 C3066 1.366 . S
C3067 C3071 1.385 . S
C3068 H3049 0.951 . S
C3068 C3066 1.388 . S
C3068 C3069 1.366 . S
C3069 C3068 1.366 . S
C3069 C3070 1.414 . S
C3069 C3072 1.499 . S
C3070 H3050 0.950 . S
C3070 C3069 1.414 . S
C3070 C3071 1.374 . S
C3071 H3051 0.950 . S
C3071 C3067 1.385 . S
C3071 C3070 1.374 . S
C3072 C3069 1.499 . S
C3072 C3073 1.373 . S
C3072 C3074 1.389 . S
C3073 H3052 0.950 . S
C3073 C3072 1.373 . S
C3073 C3089 1.377 . S
C3074 C3072 1.389 . S
C3074 C3075 1.524 . S
C3074 C3088 1.377 . S
C3075 C3074 1.524 . S
C3075 C3076 1.397 . S
C3075 C3080 1.363 . S
C3076 H3053 0.950 . S
C3076 C3075 1.397 . S
C3076 C3077 1.334 . S
C3077 H3054 0.950 . S
C3077 C3076 1.334 . S
C3077 C3078 1.287 . S
C3078 C3077 1.287 . S
C3078 C3079 1.524 . S
C3078 H3097 0.913 . S
C3079 H3055 0.950 . S
C3079 C3078 1.524 . S
C3079 C3080 1.415 . S
C3080 H3056 0.950 . S
C3080 C3075 1.363 . S
C3080 C3079 1.415 . S
C3081 H3057 0.951 . S
C3081 C3082 1.366 . S
C3081 C3083 1.388 . S
C3082 C3081 1.366 . S
C3082 C3086 1.385 . S
C3083 H3058 0.951 . S
C3083 C3081 1.388 . S
C3083 C3084 1.366 . S
C3084 C3083 1.366 . S
C3084 C3085 1.414 . S
C3084 C3087 1.499 . S
C3085 H3059 0.950 . S
C3085 C3084 1.414 . S
C3085 C3086 1.374 . S
C3086 H3060 0.950 . S
C3086 C3082 1.385 . S
C3086 C3085 1.374 . S
C3087 C3084 1.499 . S
C3087 C3088 1.373 . S
C3087 C3089 1.389 . S
C3088 H3061 0.950 . S
C3088 C3074 1.377 . S
C3088 C3087 1.373 . S
C3089 C3073 1.377 . S
C3089 C3087 1.389 . S
C3089 C3090 1.524 . S
C3090 C3089 1.524 . S
C3090 C3091 1.397 . S
C3090 C3095 1.363 . S
C3091 H3062 0.950 . S
C3091 C3090 1.397 . S
C3091 C3092 1.334 . S
C3092 H3063 0.950 . S
C3092 C3091 1.334 . S
C3092 C3093 1.287 . S
C3093 C3092 1.287 . S
C3093 C3094 1.524 . S
C3093 H3096 0.999 . S
C3094 H3064 0.950 . S
C3094 C3093 1.524 . S
C3094 C3095 1.415 . S
C3095 H3065 0.950 . S
C3095 C3090 1.363 . S
C3095 C3094 1.415 . S
H3096 C3093 0.999 . S
H3097 C3078 0.913 . S
H3098 C3116 0.951 . S
H3099 C3118 0.951 . S
H3100 C3120 0.950 . S
H3101 C3121 0.950 1_545 S
H3102 C3123 0.950 . S
H3103 C3126 0.950 . S
H3104 C3127 0.950 . S
H3105 C3129 0.950 . S
H3106 C3130 0.950 . S
H3107 C3131 0.951 . S
H3108 C3133 0.951 . S
H3109 C3135 0.950 . S
H3110 C3136 0.950 . S
H3111 C3138 0.950 . S
H3112 C3141 0.950 . S
H3113 C3142 0.950 . S
H3114 C3144 0.950 . S
H3115 C3145 0.950 . S
C3116 H3098 0.951 . S
C3116 C3117 1.366 . S
C3116 C3118 1.388 . S
C3117 C3116 1.366 . S
C3117 C3121 1.385 . S
C3118 H3099 0.951 . S
C3118 C3116 1.388 . S
C3118 C3119 1.366 . S
C3119 C3118 1.366 . S
C3119 C3120 1.414 . S
C3119 C3122 1.499 . S
C3120 H3100 0.950 . S
C3120 C3119 1.414 . S
C3120 C3121 1.374 . S
C3121 H3101 0.950 1_565 S
C3121 C3117 1.385 . S
C3121 C3120 1.374 . S
C3122 C3119 1.499 . S
C3122 C3123 1.373 . S
C3122 C3124 1.389 . S
C3123 H3102 0.950 . S
C3123 C3122 1.373 . S
C3123 C3139 1.377 . S
C3124 C3122 1.389 . S
C3124 C3125 1.524 . S
C3124 C3138 1.377 . S
C3125 C3124 1.524 . S
C3125 C3126 1.397 . S
C3125 C3130 1.363 . S
C3126 H3103 0.950 . S
C3126 C3125 1.397 . S
C3126 C3127 1.334 . S
C3127 H3104 0.950 . S
C3127 C3126 1.334 . S
C3127 C3128 1.287 . S
C3128 C3127 1.287 . S
C3128 C3129 1.524 . S
C3128 H3147 0.913 . S
C3129 H3105 0.950 . S
C3129 C3128 1.524 . S
C3129 C3130 1.415 . S
C3130 H3106 0.950 . S
C3130 C3125 1.363 . S
C3130 C3129 1.415 . S
C3131 H3107 0.951 . S
C3131 C3132 1.366 . S
C3131 C3133 1.388 . S
C3132 C3131 1.366 . S
C3132 C3136 1.385 . S
C3133 H3108 0.951 . S
C3133 C3131 1.388 . S
C3133 C3134 1.366 . S
C3134 C3133 1.366 . S
C3134 C3135 1.414 . S
C3134 C3137 1.499 . S
C3135 H3109 0.950 . S
C3135 C3134 1.414 . S
C3135 C3136 1.374 . S
C3136 H3110 0.950 . S
C3136 C3132 1.385 . S
C3136 C3135 1.374 . S
C3137 C3134 1.499 . S
C3137 C3138 1.373 . S
C3137 C3139 1.389 . S
C3138 H3111 0.950 . S
C3138 C3124 1.377 . S
C3138 C3137 1.373 . S
C3139 C3123 1.377 . S
C3139 C3137 1.389 . S
C3139 C3140 1.524 . S
C3140 C3139 1.524 . S
C3140 C3141 1.397 . S
C3140 C3145 1.363 . S
C3141 H3112 0.950 . S
C3141 C3140 1.397 . S
C3141 C3142 1.334 . S
C3142 H3113 0.950 . S
C3142 C3141 1.334 . S
C3142 C3143 1.287 . S
C3143 C3142 1.287 . S
C3143 C3144 1.524 . S
C3143 H3146 0.999 . S
C3144 H3114 0.950 . S
C3144 C3143 1.524 . S
C3144 C3145 1.415 . S
C3145 H3115 0.950 . S
C3145 C3140 1.363 . S
C3145 C3144 1.415 . S
H3146 C3143 0.999 . S
H3147 C3128 0.913 . S
H3148 C3166 0.951 . S
H3149 C3168 0.951 . S
H3150 C3170 0.950 . S
H3151 C3171 0.950 . S
H3152 C3173 0.950 . S
H3153 C3176 0.950 . S
H3154 C3177 0.950 . S
H3155 C3179 0.950 . S
H3156 C3180 0.950 . S
H3157 C3181 0.951 . S
H3158 C3183 0.951 . S
H3159 C3185 0.950 . S
H3160 C3186 0.950 . S
H3161 C3188 0.950 . S
H3162 C3191 0.950 . S
H3163 C3192 0.950 . S
H3164 C3194 0.950 . S
H3165 C3195 0.950 . S
C3166 H3148 0.951 . S
C3166 C3167 1.366 . S
C3166 C3168 1.388 . S
C3167 C3166 1.366 . S
C3167 C3171 1.385 . S
C3168 H3149 0.951 . S
C3168 C3166 1.388 . S
C3168 C3169 1.366 . S
C3169 C3168 1.366 . S
C3169 C3170 1.414 . S
C3169 C3172 1.499 . S
C3170 H3150 0.950 . S
C3170 C3169 1.414 . S
C3170 C3171 1.374 . S
C3171 H3151 0.950 . S
C3171 C3167 1.385 . S
C3171 C3170 1.374 . S
C3172 C3169 1.499 . S
C3172 C3173 1.373 . S
C3172 C3174 1.389 . S
C3173 H3152 0.950 . S
C3173 C3172 1.373 . S
C3173 C3189 1.377 . S
C3174 C3172 1.389 . S
C3174 C3175 1.524 . S
C3174 C3188 1.377 . S
C3175 C3174 1.524 . S
C3175 C3176 1.397 . S
C3175 C3180 1.363 . S
C3176 H3153 0.950 . S
C3176 C3175 1.397 . S
C3176 C3177 1.334 . S
C3177 H3154 0.950 . S
C3177 C3176 1.334 . S
C3177 C3178 1.287 . S
C3178 C3177 1.287 . S
C3178 C3179 1.524 . S
C3178 H3197 0.913 . S
C3179 H3155 0.950 . S
C3179 C3178 1.524 . S
C3179 C3180 1.415 . S
C3180 H3156 0.950 . S
C3180 C3175 1.363 . S
C3180 C3179 1.415 . S
C3181 H3157 0.951 . S
C3181 C3182 1.366 . S
C3181 C3183 1.388 . S
C3182 C3181 1.366 . S
C3182 C3186 1.385 . S
C3183 H3158 0.951 . S
C3183 C3181 1.388 . S
C3183 C3184 1.366 . S
C3184 C3183 1.366 . S
C3184 C3185 1.414 . S
C3184 C3187 1.499 . S
C3185 H3159 0.950 . S
C3185 C3184 1.414 . S
C3185 C3186 1.374 . S
C3186 H3160 0.950 . S
C3186 C3182 1.385 . S
C3186 C3185 1.374 . S
C3187 C3184 1.499 . S
C3187 C3188 1.373 . S
C3187 C3189 1.389 . S
C3188 H3161 0.950 . S
C3188 C3174 1.377 . S
C3188 C3187 1.373 . S
C3189 C3173 1.377 . S
C3189 C3187 1.389 . S
C3189 C3190 1.524 . S
C3190 C3189 1.524 . S
C3190 C3191 1.397 . S
C3190 C3195 1.363 . S
C3191 H3162 0.950 . S
C3191 C3190 1.397 . S
C3191 C3192 1.334 . S
C3192 H3163 0.950 . S
C3192 C3191 1.334 . S
C3192 C3193 1.287 . S
C3193 C3192 1.287 . S
C3193 C3194 1.524 . S
C3193 H3196 0.999 . S
C3194 H3164 0.950 . S
C3194 C3193 1.524 . S
C3194 C3195 1.415 . S
C3195 H3165 0.950 . S
C3195 C3190 1.363 . S
C3195 C3194 1.415 . S
H3196 C3193 0.999 . S
H3197 C3178 0.913 . S
H3198 C3216 0.951 . S
H3199 C3218 0.951 . S
H3200 C3220 0.950 . S
H3201 C3221 0.950 1_565 S
H3202 C3223 0.950 . S
H3203 C3226 0.950 . S
H3204 C3227 0.950 . S
H3205 C3229 0.950 . S
H3206 C3230 0.950 . S
H3207 C3231 0.951 . S
H3208 C3233 0.951 . S
H3209 C3235 0.950 . S
H3210 C3236 0.950 . S
H3211 C3238 0.950 . S
H3212 C3241 0.950 . S
H3213 C3242 0.950 . S
H3214 C3244 0.950 . S
H3215 C3245 0.950 . S
C3216 H3198 0.951 . S
C3216 C3217 1.366 . S
C3216 C3218 1.388 . S
C3217 C3216 1.366 . S
C3217 C3221 1.385 . S
C3218 H3199 0.951 . S
C3218 C3216 1.388 . S
C3218 C3219 1.366 . S
C3219 C3218 1.366 . S
C3219 C3220 1.414 . S
C3219 C3222 1.499 . S
C3220 H3200 0.950 . S
C3220 C3219 1.414 . S
C3220 C3221 1.374 . S
C3221 H3201 0.950 1_545 S
C3221 C3217 1.385 . S
C3221 C3220 1.374 . S
C3222 C3219 1.499 . S
C3222 C3223 1.373 . S
C3222 C3224 1.389 . S
C3223 H3202 0.950 . S
C3223 C3222 1.373 . S
C3223 C3239 1.377 . S
C3224 C3222 1.389 . S
C3224 C3225 1.524 . S
C3224 C3238 1.377 . S
C3225 C3224 1.524 . S
C3225 C3226 1.397 . S
C3225 C3230 1.363 . S
C3226 H3203 0.950 . S
C3226 C3225 1.397 . S
C3226 C3227 1.334 . S
C3227 H3204 0.950 . S
C3227 C3226 1.334 . S
C3227 C3228 1.287 . S
C3228 C3227 1.287 . S
C3228 C3229 1.524 . S
C3228 H3247 0.913 . S
C3229 H3205 0.950 . S
C3229 C3228 1.524 . S
C3229 C3230 1.415 . S
C3230 H3206 0.950 . S
C3230 C3225 1.363 . S
C3230 C3229 1.415 . S
C3231 H3207 0.951 . S
C3231 C3232 1.366 . S
C3231 C3233 1.388 . S
C3232 C3231 1.366 . S
C3232 C3236 1.385 . S
C3233 H3208 0.951 . S
C3233 C3231 1.388 . S
C3233 C3234 1.366 . S
C3234 C3233 1.366 . S
C3234 C3235 1.414 . S
C3234 C3237 1.499 . S
C3235 H3209 0.950 . S
C3235 C3234 1.414 . S
C3235 C3236 1.374 . S
C3236 H3210 0.950 . S
C3236 C3232 1.385 . S
C3236 C3235 1.374 . S
C3237 C3234 1.499 . S
C3237 C3238 1.373 . S
C3237 C3239 1.389 . S
C3238 H3211 0.950 . S
C3238 C3224 1.377 . S
C3238 C3237 1.373 . S
C3239 C3223 1.377 . S
C3239 C3237 1.389 . S
C3239 C3240 1.524 . S
C3240 C3239 1.524 . S
C3240 C3241 1.397 . S
C3240 C3245 1.363 . S
C3241 H3212 0.950 . S
C3241 C3240 1.397 . S
C3241 C3242 1.334 . S
C3242 H3213 0.950 . S
C3242 C3241 1.334 . S
C3242 C3243 1.287 . S
C3243 C3242 1.287 . S
C3243 C3244 1.524 . S
C3243 H3246 0.999 . S
C3244 H3214 0.950 . S
C3244 C3243 1.524 . S
C3244 C3245 1.415 . S
C3245 H3215 0.950 . S
C3245 C3240 1.363 . S
C3245 C3244 1.415 . S
H3246 C3243 0.999 . S
H3247 C3228 0.913 . S
H3248 C3266 0.951 . S
H3249 C3268 0.951 . S
H3250 C3270 0.950 . S
H3251 C3271 0.950 . S
H3252 C3273 0.950 . S
H3253 C3276 0.950 . S
H3254 C3277 0.950 . S
H3255 C3279 0.950 . S
H3256 C3280 0.950 . S
H3257 C3281 0.951 . S
H3258 C3283 0.951 . S
H3259 C3285 0.950 . S
H3260 C3286 0.950 . S
H3261 C3288 0.950 . S
H3262 C3291 0.950 . S
H3263 C3292 0.950 . S
H3264 C3294 0.950 . S
H3265 C3295 0.950 . S
C3266 H3248 0.951 . S
C3266 C3267 1.366 . S
C3266 C3268 1.388 . S
C3267 C3266 1.366 . S
C3267 C3271 1.385 . S
C3268 H3249 0.951 . S
C3268 C3266 1.388 . S
C3268 C3269 1.366 . S
C3269 C3268 1.366 . S
C3269 C3270 1.414 . S
C3269 C3272 1.499 . S
C3270 H3250 0.950 . S
C3270 C3269 1.414 . S
C3270 C3271 1.374 . S
C3271 H3251 0.950 . S
C3271 C3267 1.385 . S
C3271 C3270 1.374 . S
C3272 C3269 1.499 . S
C3272 C3273 1.373 . S
C3272 C3274 1.389 . S
C3273 H3252 0.950 . S
C3273 C3272 1.373 . S
C3273 C3289 1.377 . S
C3274 C3272 1.389 . S
C3274 C3275 1.524 . S
C3274 C3288 1.377 . S
C3275 C3274 1.524 . S
C3275 C3276 1.397 . S
C3275 C3280 1.363 . S
C3276 H3253 0.950 . S
C3276 C3275 1.397 . S
C3276 C3277 1.334 . S
C3277 H3254 0.950 . S
C3277 C3276 1.334 . S
C3277 C3278 1.287 . S
C3278 C3277 1.287 . S
C3278 C3279 1.524 . S
C3278 H3297 0.913 . S
C3279 H3255 0.950 . S
C3279 C3278 1.524 . S
C3279 C3280 1.415 . S
C3280 H3256 0.950 . S
C3280 C3275 1.363 . S
C3280 C3279 1.415 . S
C3281 H3257 0.951 . S
C3281 C3282 1.366 . S
C3281 C3283 1.388 . S
C3282 C3281 1.366 . S
C3282 C3286 1.385 . S
C3283 H3258 0.951 . S
C3283 C3281 1.388 . S
C3283 C3284 1.366 . S
C3284 C3283 1.366 . S
C3284 C3285 1.414 . S
C3284 C3287 1.499 . S
C3285 H3259 0.950 . S
C3285 C3284 1.414 . S
C3285 C3286 1.374 . S
C3286 H3260 0.950 . S
C3286 C3282 1.385 . S
C3286 C3285 1.374 . S
C3287 C3284 1.499 . S
C3287 C3288 1.373 . S
C3287 C3289 1.389 . S
C3288 H3261 0.950 . S
C3288 C3274 1.377 . S
C3288 C3287 1.373 . S
C3289 C3273 1.377 . S
C3289 C3287 1.389 . S
C3289 C3290 1.524 . S
C3290 C3289 1.524 . S
C3290 C3291 1.397 . S
C3290 C3295 1.363 . S
C3291 H3262 0.950 . S
C3291 C3290 1.397 . S
C3291 C3292 1.334 . S
C3292 H3263 0.950 . S
C3292 C3291 1.334 . S
C3292 C3293 1.287 . S
C3293 C3292 1.287 . S
C3293 C3294 1.524 . S
C3293 H3296 0.999 . S
C3294 H3264 0.950 . S
C3294 C3293 1.524 . S
C3294 C3295 1.415 . S
C3295 H3265 0.950 . S
C3295 C3290 1.363 . S
C3295 C3294 1.415 . S
H3296 C3293 0.999 . S
H3297 C3278 0.913 . S
H3298 C3316 0.951 . S
H3299 C3318 0.951 . S
H3300 C3320 0.950 . S
H3301 C3321 0.950 . S
H3302 C3323 0.950 . S
H3303 C3326 0.950 . S
H3304 C3327 0.950 . S
H3305 C3329 0.950 . S
H3306 C3330 0.950 . S
H3307 C3331 0.951 . S
H3308 C3333 0.951 . S
H3309 C3335 0.950 . S
H3310 C3336 0.950 . S
H3311 C3338 0.950 . S
H3312 C3341 0.950 . S
H3313 C3342 0.950 . S
H3314 C3344 0.950 . S
H3315 C3345 0.950 . S
C3316 H3298 0.951 . S
C3316 C3317 1.366 . S
C3316 C3318 1.388 . S
C3317 C3316 1.366 . S
C3317 C3321 1.385 . S
C3318 H3299 0.951 . S
C3318 C3316 1.388 . S
C3318 C3319 1.366 . S
C3319 C3318 1.366 . S
C3319 C3320 1.414 . S
C3319 C3322 1.499 . S
C3320 H3300 0.950 . S
C3320 C3319 1.414 . S
C3320 C3321 1.374 . S
C3321 H3301 0.950 . S
C3321 C3317 1.385 . S
C3321 C3320 1.374 . S
C3322 C3319 1.499 . S
C3322 C3323 1.373 . S
C3322 C3324 1.389 . S
C3323 H3302 0.950 . S
C3323 C3322 1.373 . S
C3323 C3339 1.377 . S
C3324 C3322 1.389 . S
C3324 C3325 1.524 . S
C3324 C3338 1.377 . S
C3325 C3324 1.524 . S
C3325 C3326 1.397 . S
C3325 C3330 1.363 . S
C3326 H3303 0.950 . S
C3326 C3325 1.397 . S
C3326 C3327 1.334 . S
C3327 H3304 0.950 . S
C3327 C3326 1.334 . S
C3327 C3328 1.287 . S
C3328 C3327 1.287 . S
C3328 C3329 1.524 . S
C3328 H3347 0.913 . S
C3329 H3305 0.950 . S
C3329 C3328 1.524 . S
C3329 C3330 1.415 . S
C3330 H3306 0.950 . S
C3330 C3325 1.363 . S
C3330 C3329 1.415 . S
C3331 H3307 0.951 . S
C3331 C3332 1.366 . S
C3331 C3333 1.388 . S
C3332 C3331 1.366 . S
C3332 C3336 1.385 . S
C3333 H3308 0.951 . S
C3333 C3331 1.388 . S
C3333 C3334 1.366 . S
C3334 C3333 1.366 . S
C3334 C3335 1.414 . S
C3334 C3337 1.499 . S
C3335 H3309 0.950 . S
C3335 C3334 1.414 . S
C3335 C3336 1.374 . S
C3336 H3310 0.950 . S
C3336 C3332 1.385 . S
C3336 C3335 1.374 . S
C3337 C3334 1.499 . S
C3337 C3338 1.373 . S
C3337 C3339 1.389 . S
C3338 H3311 0.950 . S
C3338 C3324 1.377 . S
C3338 C3337 1.373 . S
C3339 C3323 1.377 . S
C3339 C3337 1.389 . S
C3339 C3340 1.524 . S
C3340 C3339 1.524 . S
C3340 C3341 1.397 . S
C3340 C3345 1.363 . S
C3341 H3312 0.950 . S
C3341 C3340 1.397 . S
C3341 C3342 1.334 . S
C3342 H3313 0.950 . S
C3342 C3341 1.334 . S
C3342 C3343 1.287 . S
C3343 C3342 1.287 . S
C3343 C3344 1.524 . S
C3343 H3346 0.999 . S
C3344 H3314 0.950 . S
C3344 C3343 1.524 . S
C3344 C3345 1.415 . S
C3345 H3315 0.950 . S
C3345 C3340 1.363 . S
C3345 C3344 1.415 . S
H3346 C3343 0.999 . S
H3347 C3328 0.913 . S
H3348 C3366 0.951 . S
H3349 C3368 0.951 . S
H3350 C3370 0.950 . S
H3351 C3371 0.950 . S
H3352 C3373 0.950 . S
H3353 C3376 0.950 . S
H3354 C3377 0.950 . S
H3355 C3379 0.950 . S
H3356 C3380 0.950 . S
H3357 C3381 0.951 . S
H3358 C3383 0.951 . S
H3359 C3385 0.950 . S
H3360 C3386 0.950 . S
H3361 C3388 0.950 . S
H3362 C3391 0.950 . S
H3363 C3392 0.950 . S
H3364 C3394 0.950 . S
H3365 C3395 0.950 . S
C3366 H3348 0.951 . S
C3366 C3367 1.366 . S
C3366 C3368 1.388 . S
C3367 C3366 1.366 . S
C3367 C3371 1.385 . S
C3368 H3349 0.951 . S
C3368 C3366 1.388 . S
C3368 C3369 1.366 . S
C3369 C3368 1.366 . S
C3369 C3370 1.414 . S
C3369 C3372 1.499 . S
C3370 H3350 0.950 . S
C3370 C3369 1.414 . S
C3370 C3371 1.374 . S
C3371 H3351 0.950 . S
C3371 C3367 1.385 . S
C3371 C3370 1.374 . S
C3372 C3369 1.499 . S
C3372 C3373 1.373 . S
C3372 C3374 1.389 . S
C3373 H3352 0.950 . S
C3373 C3372 1.373 . S
C3373 C3389 1.377 . S
C3374 C3372 1.389 . S
C3374 C3375 1.524 . S
C3374 C3388 1.377 . S
C3375 C3374 1.524 . S
C3375 C3376 1.397 . S
C3375 C3380 1.363 . S
C3376 H3353 0.950 . S
C3376 C3375 1.397 . S
C3376 C3377 1.334 . S
C3377 H3354 0.950 . S
C3377 C3376 1.334 . S
C3377 C3378 1.287 . S
C3378 C3377 1.287 . S
C3378 C3379 1.524 . S
C3378 H3397 0.913 . S
C3379 H3355 0.950 . S
C3379 C3378 1.524 . S
C3379 C3380 1.415 . S
C3380 H3356 0.950 . S
C3380 C3375 1.363 . S
C3380 C3379 1.415 . S
C3381 H3357 0.951 . S
C3381 C3382 1.366 . S
C3381 C3383 1.388 . S
C3382 C3381 1.366 . S
C3382 C3386 1.385 . S
C3383 H3358 0.951 . S
C3383 C3381 1.388 . S
C3383 C3384 1.366 . S
C3384 C3383 1.366 . S
C3384 C3385 1.414 . S
C3384 C3387 1.499 . S
C3385 H3359 0.950 . S
C3385 C3384 1.414 . S
C3385 C3386 1.374 . S
C3386 H3360 0.950 . S
C3386 C3382 1.385 . S
C3386 C3385 1.374 . S
C3387 C3384 1.499 . S
C3387 C3388 1.373 . S
C3387 C3389 1.389 . S
C3388 H3361 0.950 . S
C3388 C3374 1.377 . S
C3388 C3387 1.373 . S
C3389 C3373 1.377 . S
C3389 C3387 1.389 . S
C3389 C3390 1.524 . S
C3390 C3389 1.524 . S
C3390 C3391 1.397 . S
C3390 C3395 1.363 . S
C3391 H3362 0.950 . S
C3391 C3390 1.397 . S
C3391 C3392 1.334 . S
C3392 H3363 0.950 . S
C3392 C3391 1.334 . S
C3392 C3393 1.287 . S
C3393 C3392 1.287 . S
C3393 C3394 1.524 . S
C3393 H3396 0.999 . S
C3394 H3364 0.950 . S
C3394 C3393 1.524 . S
C3394 C3395 1.415 . S
C3395 H3365 0.950 . S
C3395 C3390 1.363 . S
C3395 C3394 1.415 . S
H3396 C3393 0.999 . S
H3397 C3378 0.913 . S
H3398 C3416 0.951 . S
H3399 C3418 0.951 . S
H3400 C3420 0.950 . S
H3401 C3421 0.950 . S
H3402 C3423 0.950 . S
H3403 C3426 0.950 . S
H3404 C3427 0.950 . S
H3405 C3429 0.950 . S
H3406 C3430 0.950 . S
H3407 C3431 0.951 . S
H3408 C3433 0.951 . S
H3409 C3435 0.950 . S
H3410 C3436 0.950 . S
H3411 C3438 0.950 . S
H3412 C3441 0.950 . S
H3413 C3442 0.950 . S
H3414 C3444 0.950 . S
H3415 C3445 0.950 . S
C3416 H3398 0.951 . S
C3416 C3417 1.366 . S
C3416 C3418 1.388 . S
C3417 C3416 1.366 . S
C3417 C3421 1.385 . S
C3418 H3399 0.951 . S
C3418 C3416 1.388 . S
C3418 C3419 1.366 . S
C3419 C3418 1.366 . S
C3419 C3420 1.414 . S
C3419 C3422 1.499 . S
C3420 H3400 0.950 . S
C3420 C3419 1.414 . S
C3420 C3421 1.374 . S
C3421 H3401 0.950 . S
C3421 C3417 1.385 . S
C3421 C3420 1.374 . S
C3422 C3419 1.499 . S
C3422 C3423 1.373 . S
C3422 C3424 1.389 . S
C3423 H3402 0.950 . S
C3423 C3422 1.373 . S
C3423 C3439 1.377 . S
C3424 C3422 1.389 . S
C3424 C3425 1.524 . S
C3424 C3438 1.377 . S
C3425 C3424 1.524 . S
C3425 C3426 1.397 . S
C3425 C3430 1.363 . S
C3426 H3403 0.950 . S
C3426 C3425 1.397 . S
C3426 C3427 1.334 . S
C3427 H3404 0.950 . S
C3427 C3426 1.334 . S
C3427 C3428 1.287 . S
C3428 C3427 1.287 . S
C3428 C3429 1.524 . S
C3428 H3447 0.913 . S
C3429 H3405 0.950 . S
C3429 C3428 1.524 . S
C3429 C3430 1.415 . S
C3430 H3406 0.950 . S
C3430 C3425 1.363 . S
C3430 C3429 1.415 . S
C3431 H3407 0.951 . S
C3431 C3432 1.366 . S
C3431 C3433 1.388 . S
C3432 C3431 1.366 . S
C3432 C3436 1.385 . S
C3433 H3408 0.951 . S
C3433 C3431 1.388 . S
C3433 C3434 1.366 . S
C3434 C3433 1.366 . S
C3434 C3435 1.414 . S
C3434 C3437 1.499 . S
C3435 H3409 0.950 . S
C3435 C3434 1.414 . S
C3435 C3436 1.374 . S
C3436 H3410 0.950 . S
C3436 C3432 1.385 . S
C3436 C3435 1.374 . S
C3437 C3434 1.499 . S
C3437 C3438 1.373 . S
C3437 C3439 1.389 . S
C3438 H3411 0.950 . S
C3438 C3424 1.377 . S
C3438 C3437 1.373 . S
C3439 C3423 1.377 . S
C3439 C3437 1.389 . S
C3439 C3440 1.524 . S
C3440 C3439 1.524 . S
C3440 C3441 1.397 . S
C3440 C3445 1.363 . S
C3441 H3412 0.950 . S
C3441 C3440 1.397 . S
C3441 C3442 1.334 . S
C3442 H3413 0.950 . S
C3442 C3441 1.334 . S
C3442 C3443 1.287 . S
C3443 C3442 1.287 . S
C3443 C3444 1.524 . S
C3443 H3446 0.999 . S
C3444 H3414 0.950 . S
C3444 C3443 1.524 . S
C3444 C3445 1.415 . S
C3445 H3415 0.950 . S
C3445 C3440 1.363 . S
C3445 C3444 1.415 . S
H3446 C3443 0.999 . S
H3447 C3428 0.913 . S
H3448 C3466 0.951 . S
H3449 C3468 0.951 . S
H3450 C3470 0.950 . S
H3451 C3471 0.950 . S
H3452 C3473 0.950 . S
H3453 C3476 0.950 . S
H3454 C3477 0.950 . S
H3455 C3479 0.950 . S
H3456 C3480 0.950 . S
H3457 C3481 0.951 . S
H3458 C3483 0.951 . S
H3459 C3485 0.950 . S
H3460 C3486 0.950 . S
H3461 C3488 0.950 . S
H3462 C3491 0.950 . S
H3463 C3492 0.950 . S
H3464 C3494 0.950 . S
H3465 C3495 0.950 . S
C3466 H3448 0.951 . S
C3466 C3467 1.366 . S
C3466 C3468 1.388 . S
C3467 C3466 1.366 . S
C3467 C3471 1.385 . S
C3468 H3449 0.951 . S
C3468 C3466 1.388 . S
C3468 C3469 1.366 . S
C3469 C3468 1.366 . S
C3469 C3470 1.414 . S
C3469 C3472 1.499 . S
C3470 H3450 0.950 . S
C3470 C3469 1.414 . S
C3470 C3471 1.374 . S
C3471 H3451 0.950 . S
C3471 C3467 1.385 . S
C3471 C3470 1.374 . S
C3472 C3469 1.499 . S
C3472 C3473 1.373 . S
C3472 C3474 1.389 . S
C3473 H3452 0.950 . S
C3473 C3472 1.373 . S
C3473 C3489 1.377 . S
C3474 C3472 1.389 . S
C3474 C3475 1.524 . S
C3474 C3488 1.377 . S
C3475 C3474 1.524 . S
C3475 C3476 1.397 . S
C3475 C3480 1.363 . S
C3476 H3453 0.950 . S
C3476 C3475 1.397 . S
C3476 C3477 1.334 . S
C3477 H3454 0.950 . S
C3477 C3476 1.334 . S
C3477 C3478 1.287 . S
C3478 C3477 1.287 . S
C3478 C3479 1.524 . S
C3478 H3497 0.913 . S
C3479 H3455 0.950 . S
C3479 C3478 1.524 . S
C3479 C3480 1.415 . S
C3480 H3456 0.950 . S
C3480 C3475 1.363 . S
C3480 C3479 1.415 . S
C3481 H3457 0.951 . S
C3481 C3482 1.366 . S
C3481 C3483 1.388 . S
C3482 C3481 1.366 . S
C3482 C3486 1.385 . S
C3483 H3458 0.951 . S
C3483 C3481 1.388 . S
C3483 C3484 1.366 . S
C3484 C3483 1.366 . S
C3484 C3485 1.414 . S
C3484 C3487 1.499 . S
C3485 H3459 0.950 . S
C3485 C3484 1.414 . S
C3485 C3486 1.374 . S
C3486 H3460 0.950 . S
C3486 C3482 1.385 . S
C3486 C3485 1.374 . S
C3487 C3484 1.499 . S
C3487 C3488 1.373 . S
C3487 C3489 1.389 . S
C3488 H3461 0.950 . S
C3488 C3474 1.377 . S
C3488 C3487 1.373 . S
C3489 C3473 1.377 . S
C3489 C3487 1.389 . S
C3489 C3490 1.524 . S
C3490 C3489 1.524 . S
C3490 C3491 1.397 . S
C3490 C3495 1.363 . S
C3491 H3462 0.950 . S
C3491 C3490 1.397 . S
C3491 C3492 1.334 . S
C3492 H3463 0.950 . S
C3492 C3491 1.334 . S
C3492 C3493 1.287 . S
C3493 C3492 1.287 . S
C3493 C3494 1.524 . S
C3493 H3496 0.999 . S
C3494 H3464 0.950 . S
C3494 C3493 1.524 . S
C3494 C3495 1.415 . S
C3495 H3465 0.950 . S
C3495 C3490 1.363 . S
C3495 C3494 1.415 . S
H3496 C3493 0.999 . S
H3497 C3478 0.913 . S
H3498 C3516 0.951 . S
H3499 C3518 0.951 . S
H3500 C3520 0.950 . S
H3501 C3521 0.950 . S
H3502 C3523 0.950 . S
H3503 C3526 0.950 . S
H3504 C3527 0.950 . S
H3505 C3529 0.950 . S
H3506 C3530 0.950 . S
H3507 C3531 0.951 . S
H3508 C3533 0.951 . S
H3509 C3535 0.950 . S
H3510 C3536 0.950 . S
H3511 C3538 0.950 . S
H3512 C3541 0.950 . S
H3513 C3542 0.950 . S
H3514 C3544 0.950 . S
H3515 C3545 0.950 . S
C3516 H3498 0.951 . S
C3516 C3517 1.366 . S
C3516 C3518 1.388 . S
C3517 C3516 1.366 . S
C3517 C3521 1.385 . S
C3518 H3499 0.951 . S
C3518 C3516 1.388 . S
C3518 C3519 1.366 . S
C3519 C3518 1.366 . S
C3519 C3520 1.414 . S
C3519 C3522 1.499 . S
C3520 H3500 0.950 . S
C3520 C3519 1.414 . S
C3520 C3521 1.374 . S
C3521 H3501 0.950 . S
C3521 C3517 1.385 . S
C3521 C3520 1.374 . S
C3522 C3519 1.499 . S
C3522 C3523 1.373 . S
C3522 C3524 1.389 . S
C3523 H3502 0.950 . S
C3523 C3522 1.373 . S
C3523 C3539 1.377 . S
C3524 C3522 1.389 . S
C3524 C3525 1.524 . S
C3524 C3538 1.377 . S
C3525 C3524 1.524 . S
C3525 C3526 1.397 . S
C3525 C3530 1.363 . S
C3526 H3503 0.950 . S
C3526 C3525 1.397 . S
C3526 C3527 1.334 . S
C3527 H3504 0.950 . S
C3527 C3526 1.334 . S
C3527 C3528 1.287 . S
C3528 C3527 1.287 . S
C3528 C3529 1.524 . S
C3528 H3547 0.913 . S
C3529 H3505 0.950 . S
C3529 C3528 1.524 . S
C3529 C3530 1.415 . S
C3530 H3506 0.950 . S
C3530 C3525 1.363 . S
C3530 C3529 1.415 . S
C3531 H3507 0.951 . S
C3531 C3532 1.366 . S
C3531 C3533 1.388 . S
C3532 C3531 1.366 . S
C3532 C3536 1.385 . S
C3533 H3508 0.951 . S
C3533 C3531 1.388 . S
C3533 C3534 1.366 . S
C3534 C3533 1.366 . S
C3534 C3535 1.414 . S
C3534 C3537 1.499 . S
C3535 H3509 0.950 . S
C3535 C3534 1.414 . S
C3535 C3536 1.374 . S
C3536 H3510 0.950 . S
C3536 C3532 1.385 . S
C3536 C3535 1.374 . S
C3537 C3534 1.499 . S
C3537 C3538 1.373 . S
C3537 C3539 1.389 . S
C3538 H3511 0.950 . S
C3538 C3524 1.377 . S
C3538 C3537 1.373 . S
C3539 C3523 1.377 . S
C3539 C3537 1.389 . S
C3539 C3540 1.524 . S
C3540 C3539 1.524 . S
C3540 C3541 1.397 . S
C3540 C3545 1.363 . S
C3541 H3512 0.950 . S
C3541 C3540 1.397 . S
C3541 C3542 1.334 . S
C3542 H3513 0.950 . S
C3542 C3541 1.334 . S
C3542 C3543 1.287 . S
C3543 C3542 1.287 . S
C3543 C3544 1.524 . S
C3543 H3546 0.999 . S
C3544 H3514 0.950 . S
C3544 C3543 1.524 . S
C3544 C3545 1.415 . S
C3545 H3515 0.950 . S
C3545 C3540 1.363 . S
C3545 C3544 1.415 . S
H3546 C3543 0.999 . S
H3547 C3528 0.913 . S
H3548 C3566 0.951 . S
H3549 C3568 0.951 . S
H3550 C3570 0.950 . S
H3551 C3571 0.950 . S
H3552 C3573 0.950 . S
H3553 C3576 0.950 . S
H3554 C3577 0.950 . S
H3555 C3579 0.950 . S
H3556 C3580 0.950 . S
H3557 C3581 0.951 . S
H3558 C3583 0.951 . S
H3559 C3585 0.950 . S
H3560 C3586 0.950 . S
H3561 C3588 0.950 . S
H3562 C3591 0.950 . S
H3563 C3592 0.950 . S
H3564 C3594 0.950 . S
H3565 C3595 0.950 . S
C3566 H3548 0.951 . S
C3566 C3567 1.366 . S
C3566 C3568 1.388 . S
C3567 C3566 1.366 . S
C3567 C3571 1.385 . S
C3568 H3549 0.951 . S
C3568 C3566 1.388 . S
C3568 C3569 1.366 . S
C3569 C3568 1.366 . S
C3569 C3570 1.414 . S
C3569 C3572 1.499 . S
C3570 H3550 0.950 . S
C3570 C3569 1.414 . S
C3570 C3571 1.374 . S
C3571 H3551 0.950 . S
C3571 C3567 1.385 . S
C3571 C3570 1.374 . S
C3572 C3569 1.499 . S
C3572 C3573 1.373 . S
C3572 C3574 1.389 . S
C3573 H3552 0.950 . S
C3573 C3572 1.373 . S
C3573 C3589 1.377 . S
C3574 C3572 1.389 . S
C3574 C3575 1.524 . S
C3574 C3588 1.377 . S
C3575 C3574 1.524 . S
C3575 C3576 1.397 . S
C3575 C3580 1.363 . S
C3576 H3553 0.950 . S
C3576 C3575 1.397 . S
C3576 C3577 1.334 . S
C3577 H3554 0.950 . S
C3577 C3576 1.334 . S
C3577 C3578 1.287 . S
C3578 C3577 1.287 . S
C3578 C3579 1.524 . S
C3578 H3597 0.913 . S
C3579 H3555 0.950 . S
C3579 C3578 1.524 . S
C3579 C3580 1.415 . S
C3580 H3556 0.950 . S
C3580 C3575 1.363 . S
C3580 C3579 1.415 . S
C3581 H3557 0.951 . S
C3581 C3582 1.366 . S
C3581 C3583 1.388 . S
C3582 C3581 1.366 . S
C3582 C3586 1.385 . S
C3583 H3558 0.951 . S
C3583 C3581 1.388 . S
C3583 C3584 1.366 . S
C3584 C3583 1.366 . S
C3584 C3585 1.414 . S
C3584 C3587 1.499 . S
C3585 H3559 0.950 . S
C3585 C3584 1.414 . S
C3585 C3586 1.374 . S
C3586 H3560 0.950 . S
C3586 C3582 1.385 . S
C3586 C3585 1.374 . S
C3587 C3584 1.499 . S
C3587 C3588 1.373 . S
C3587 C3589 1.389 . S
C3588 H3561 0.950 . S
C3588 C3574 1.377 . S
C3588 C3587 1.373 . S
C3589 C3573 1.377 . S
C3589 C3587 1.389 . S
C3589 C3590 1.524 . S
C3590 C3589 1.524 . S
C3590 C3591 1.397 . S
C3590 C3595 1.363 . S
C3591 H3562 0.950 . S
C3591 C3590 1.397 . S
C3591 C3592 1.334 . S
C3592 H3563 0.950 . S
C3592 C3591 1.334 . S
C3592 C3593 1.287 . S
C3593 C3592 1.287 . S
C3593 C3594 1.524 . S
C3593 H3596 0.999 . S
C3594 H3564 0.950 . S
C3594 C3593 1.524 . S
C3594 C3595 1.415 . S
C3595 H3565 0.950 . S
C3595 C3590 1.363 . S
C3595 C3594 1.415 . S
H3596 C3593 0.999 . S
H3597 C3578 0.913 . S
H3598 C3616 0.951 . S
H3599 C3618 0.951 . S
H3600 C3620 0.950 . S
H3601 C3621 0.950 . S
H3602 C3623 0.950 . S
H3603 C3626 0.950 . S
H3604 C3627 0.950 . S
H3605 C3629 0.950 . S
H3606 C3630 0.950 . S
H3607 C3631 0.951 . S
H3608 C3633 0.951 . S
H3609 C3635 0.950 . S
H3610 C3636 0.950 . S
H3611 C3638 0.950 . S
H3612 C3641 0.950 . S
H3613 C3642 0.950 . S
H3614 C3644 0.950 . S
H3615 C3645 0.950 . S
C3616 H3598 0.951 . S
C3616 C3617 1.366 . S
C3616 C3618 1.388 . S
C3617 C3616 1.366 . S
C3617 C3621 1.385 . S
C3618 H3599 0.951 . S
C3618 C3616 1.388 . S
C3618 C3619 1.366 . S
C3619 C3618 1.366 . S
C3619 C3620 1.414 . S
C3619 C3622 1.499 . S
C3620 H3600 0.950 . S
C3620 C3619 1.414 . S
C3620 C3621 1.374 . S
C3621 H3601 0.950 . S
C3621 C3617 1.385 . S
C3621 C3620 1.374 . S
C3622 C3619 1.499 . S
C3622 C3623 1.373 . S
C3622 C3624 1.389 . S
C3623 H3602 0.950 . S
C3623 C3622 1.373 . S
C3623 C3639 1.377 . S
C3624 C3622 1.389 . S
C3624 C3625 1.524 . S
C3624 C3638 1.377 . S
C3625 C3624 1.524 . S
C3625 C3626 1.397 . S
C3625 C3630 1.363 . S
C3626 H3603 0.950 . S
C3626 C3625 1.397 . S
C3626 C3627 1.334 . S
C3627 H3604 0.950 . S
C3627 C3626 1.334 . S
C3627 C3628 1.287 . S
C3628 C3627 1.287 . S
C3628 C3629 1.524 . S
C3628 H3647 0.913 . S
C3629 H3605 0.950 . S
C3629 C3628 1.524 . S
C3629 C3630 1.415 . S
C3630 H3606 0.950 . S
C3630 C3625 1.363 . S
C3630 C3629 1.415 . S
C3631 H3607 0.951 . S
C3631 C3632 1.366 . S
C3631 C3633 1.388 . S
C3632 C3631 1.366 . S
C3632 C3636 1.385 . S
C3633 H3608 0.951 . S
C3633 C3631 1.388 . S
C3633 C3634 1.366 . S
C3634 C3633 1.366 . S
C3634 C3635 1.414 . S
C3634 C3637 1.499 . S
C3635 H3609 0.950 . S
C3635 C3634 1.414 . S
C3635 C3636 1.374 . S
C3636 H3610 0.950 . S
C3636 C3632 1.385 . S
C3636 C3635 1.374 . S
C3637 C3634 1.499 . S
C3637 C3638 1.373 . S
C3637 C3639 1.389 . S
C3638 H3611 0.950 . S
C3638 C3624 1.377 . S
C3638 C3637 1.373 . S
C3639 C3623 1.377 . S
C3639 C3637 1.389 . S
C3639 C3640 1.524 . S
C3640 C3639 1.524 . S
C3640 C3641 1.397 . S
C3640 C3645 1.363 . S
C3641 H3612 0.950 . S
C3641 C3640 1.397 . S
C3641 C3642 1.334 . S
C3642 H3613 0.950 . S
C3642 C3641 1.334 . S
C3642 C3643 1.287 . S
C3643 C3642 1.287 . S
C3643 C3644 1.524 . S
C3643 H3646 0.999 . S
C3644 H3614 0.950 . S
C3644 C3643 1.524 . S
C3644 C3645 1.415 . S
C3645 H3615 0.950 . S
C3645 C3640 1.363 . S
C3645 C3644 1.415 . S
H3646 C3643 0.999 . S
H3647 C3628 0.913 . S
C467 C385 1.235 . S
C482 C9 1.232 . S
C517 C23 1.231 1_655 S
C532 C119 1.235 . S
C567 C357 1.234 . S
C582 C37 1.232 . S
C617 C51 1.231 . S
C632 C147 1.235 . S
C667 C65 1.231 . S
C682 C413 1.235 . S
C717 C79 1.232 . S
C732 C203 1.234 . S
C767 C93 1.231 . S
C782 C441 1.235 . S
C817 C107 1.232 1_655 S
C832 C175 1.235 . S
C867 C273 1.235 . S
C882 C121 1.231 . S
C917 C7 1.234 . S
C932 C135 1.231 1_455 S
C967 C245 1.235 . S
C982 C149 1.232 . S
C1017 C163 1.231 . S
C1032 C35 1.235 . S
C1067 C301 1.234 . S
C1082 C177 1.232 . S
C1117 C91 1.235 . S
C1132 C191 1.232 . S
C1167 C205 1.231 . S
C1182 C329 1.235 . S
C1217 C63 1.235 . S
C1232 C219 1.232 1_455 S
C1267 C233 1.231 . S
C1282 C161 1.235 . S
C1317 C247 1.231 . S
C1332 C343 1.235 . S
C1367 C133 1.235 . S
C1382 C261 1.231 . S
C1417 C371 1.234 . S
C1432 C275 1.232 1_455 S
C1467 C189 1.234 . S
C1482 C289 1.231 . S
C1517 C427 1.235 . S
C1532 C303 1.232 1_455 S
C1567 C217 1.235 . S
C1582 C317 1.232 . S
C1617 C331 1.231 . S
C1632 C399 1.235 . S
C1667 C49 1.235 . S
C1682 C345 1.231 . S
C1717 C359 1.231 . S
C1732 C231 1.234 . S
C1767 C373 1.231 . S
C1782 C21 1.234 . S
C1817 C387 1.232 1_655 S
C1832 C259 1.235 . S
C1867 C401 1.231 . S
C1882 C77 1.235 . S
C1917 C415 1.231 1_655 S
C1932 C315 1.235 . S
C1967 C429 1.231 . S
C1982 C105 1.235 . S
C2017 C443 1.232 . S
C2032 C287 1.235 . S
C2067 C339 1.519 . S
C2082 C3 1.519 . S
C2117 C17 1.519 . S
C2132 C129 1.519 . S
C2167 C367 1.520 . S
C2182 C31 1.520 . S
C2217 C45 1.520 . S
C2232 C157 1.520 . S
C2267 C395 1.519 . S
C2282 C59 1.519 . S
C2317 C73 1.520 . S
C2332 C185 1.520 . S
C2367 C423 1.520 . S
C2382 C87 1.520 . S
C2417 C101 1.519 . S
C2432 C213 1.519 . S
C2467 C115 1.519 . S
C2482 C227 1.519 . S
C2517 C143 1.520 . S
C2532 C255 1.520 . S
C2567 C171 1.520 . S
C2582 C283 1.520 . S
C2617 C199 1.520 . S
C2632 C311 1.520 . S
C2667 C241 1.520 . S
C2682 C353 1.520 . S
C2717 C381 1.520 . S
C2732 C269 1.520 . S
C2767 C409 1.520 . S
C2782 C297 1.520 . S
C2817 C325 1.519 . S
C2832 C437 1.519 . S
C2867 C8 1.471 . S
C2882 C78 1.480 . S
C2917 C22 1.480 . S
C2932 C92 1.470 . S
C2967 C36 1.471 . S
C2982 C106 1.480 . S
C3017 C64 1.470 . S
C3032 C50 1.480 . S
C3067 C120 1.471 . S
C3082 C190 1.480 . S
C3117 C134 1.480 . S
C3132 C204 1.470 . S
C3167 C148 1.471 . S
C3182 C218 1.480 . S
C3217 C162 1.480 . S
C3232 C176 1.470 . S
C3267 C232 1.470 . S
C3282 C302 1.471 . S
C3317 C316 1.471 . S
C3332 C246 1.470 . S
C3367 C260 1.471 . S
C3382 C330 1.471 . S
C3417 C274 1.470 . S
C3432 C288 1.470 . S
C3467 C414 1.471 . S
C3482 C344 1.470 . S
C3517 C358 1.471 . S
C3532 C428 1.470 . S
C3567 C442 1.471 . S
C3582 C372 1.471 . S
C3617 C386 1.470 . S
C3632 C400 1.470 . S
