# Generated by pormake.
# Topology can, (4)-cn, num edge types: 1
# Building blocks:
#     Node 0, Type 0, BuildingBlock: UXUYUI_clean_sbu_0, # of connection points: 4
#     Node 1, Type 0, BuildingBlock: UXUYUI_clean_sbu_0, # of connection points: 4
#     Node 2, Type 0, BuildingBlock: UXUYUI_clean_sbu_0, # of connection points: 4
#     Node 3, Type 0, BuildingBlock: UXUYUI_clean_sbu_0, # of connection points: 4
#     Node 4, Type 0, BuildingBlock: UXUYUI_clean_sbu_0, # of connection points: 4
#     Node 5, Type 0, BuildingBlock: UXUYUI_clean_sbu_0, # of connection points: 4
#     Node 6, Type 0, BuildingBlock: UXUYUI_clean_sbu_0, # of connection points: 4
#     Node 7, Type 0, BuildingBlock: UXUYUI_clean_sbu_0, # of connection points: 4
#     Node 8, Type 0, BuildingBlock: UXUYUI_clean_sbu_0, # of connection points: 4
#     Node 9, Type 0, BuildingBlock: UXUYUI_clean_sbu_0, # of connection points: 4
#     Node 10, Type 0, BuildingBlock: UXUYUI_clean_sbu_0, # of connection points: 4
#     Node 11, Type 0, BuildingBlock: UXUYUI_clean_sbu_0, # of connection points: 4
#     Edge 12, Type (0, 0), BuildingBlock: CIFDUS_clean_linker_0, # of connection points: 2
#     Edge 13, Type (0, 0), BuildingBlock: CIFDUS_clean_linker_0, # of connection points: 2
#     Edge 14, Type (0, 0), BuildingBlock: CIFDUS_clean_linker_0, # of connection points: 2
#     Edge 15, Type (0, 0), BuildingBlock: CIFDUS_clean_linker_0, # of connection points: 2
#     Edge 16, Type (0, 0), BuildingBlock: CIFDUS_clean_linker_0, # of connection points: 2
#     Edge 17, Type (0, 0), BuildingBlock: CIFDUS_clean_linker_0, # of connection points: 2
#     Edge 18, Type (0, 0), BuildingBlock: CIFDUS_clean_linker_0, # of connection points: 2
#     Edge 19, Type (0, 0), BuildingBlock: CIFDUS_clean_linker_0, # of connection points: 2
#     Edge 20, Type (0, 0), BuildingBlock: CIFDUS_clean_linker_0, # of connection points: 2
#     Edge 21, Type (0, 0), BuildingBlock: CIFDUS_clean_linker_0, # of connection points: 2
#     Edge 22, Type (0, 0), BuildingBlock: CIFDUS_clean_linker_0, # of connection points: 2
#     Edge 23, Type (0, 0), BuildingBlock: CIFDUS_clean_linker_0, # of connection points: 2
#     Edge 24, Type (0, 0), BuildingBlock: CIFDUS_clean_linker_0, # of connection points: 2
#     Edge 25, Type (0, 0), BuildingBlock: CIFDUS_clean_linker_0, # of connection points: 2
#     Edge 26, Type (0, 0), BuildingBlock: CIFDUS_clean_linker_0, # of connection points: 2
#     Edge 27, Type (0, 0), BuildingBlock: CIFDUS_clean_linker_0, # of connection points: 2
#     Edge 28, Type (0, 0), BuildingBlock: CIFDUS_clean_linker_0, # of connection points: 2
#     Edge 29, Type (0, 0), BuildingBlock: CIFDUS_clean_linker_0, # of connection points: 2
#     Edge 30, Type (0, 0), BuildingBlock: CIFDUS_clean_linker_0, # of connection points: 2
#     Edge 31, Type (0, 0), BuildingBlock: CIFDUS_clean_linker_0, # of connection points: 2
#     Edge 32, Type (0, 0), BuildingBlock: CIFDUS_clean_linker_0, # of connection points: 2
#     Edge 33, Type (0, 0), BuildingBlock: CIFDUS_clean_linker_0, # of connection points: 2
#     Edge 34, Type (0, 0), BuildingBlock: CIFDUS_clean_linker_0, # of connection points: 2
#     Edge 35, Type (0, 0), BuildingBlock: CIFDUS_clean_linker_0, # of connection points: 2
# Relax obj value: 0.136
# Max RMSD: 0.111
# Mean RMSD: 0.111
data_MOF--net-can--node1-UXUYUI_clean_sbu_0--edge1-CIFDUS_clean_linker_0
_symmetry_space_group_name_H-M    P1
_symmetry_Int_Tables_number       1
_symmetry_cell_setting            triclinic
loop_
_symmetry_equiv_pos_as_xyz
'x, y, z'
_cell_length_a     79.100222
_cell_length_b     79.101852
_cell_length_c     34.579352
_cell_angle_alpha  89.943791
_cell_angle_beta   89.998972
_cell_angle_gamma 120.01174
loop_
_atom_site_label
_atom_site_type_symbol
_atom_site_fract_x
_atom_site_fract_y
_atom_site_fract_z
_atom_type_partial_charge
Li0 Li 0.08496 0.43407 0.25495 0.0
Li1 Li 0.06774 0.40226 0.28821 0.0
Li2 Li 0.09887 0.41293 0.24948 0.0
Li3 Li 0.06788 0.40326 0.21622 0.0
C4 C 0.10372 0.44005 0.32152 0.0
N5 N 0.12156 0.47242 0.36898 0.0
C6 C 0.09438 0.4409 0.35516 0.0
C7 C 0.12224 0.45554 0.31229 0.0
C8 C 0.10361 0.45742 0.37872 0.0
C9 C 0.13098 0.47181 0.33657 0.0
C10 C 0.03712 0.40684 0.25754 0.0
C11 C 0.00426 0.3795 0.25543 0.0
N12 N 0.99733 0.39154 0.26537 0.0
C13 C 0.02967 0.41898 0.26747 0.0
C14 C 0.02433 0.38697 0.25127 0.0
C15 C 0.00951 0.41096 0.2714 0.0
C16 C 0.10065 0.47355 0.23096 0.0
N17 N 0.08989 0.46017 0.25849 0.0
C18 C 0.08436 0.48349 0.29153 0.0
C19 C 0.08169 0.46473 0.2883 0.0
C20 C 0.0953 0.49761 0.2634 0.0
C21 C 0.10355 0.49246 0.23285 0.0
H22 H 0.10674 0.46946 0.20721 0.0
H23 H 0.07283 0.45367 0.3093 0.0
C24 C 0.05552 0.37517 0.35077 0.0
N25 N 0.05335 0.38951 0.33387 0.0
C26 C 0.04582 0.36658 0.38539 0.0
C27 C 0.03166 0.38748 0.38415 0.0
C28 C 0.04182 0.39583 0.34999 0.0
C29 C 0.03369 0.37275 0.40244 0.0
H30 H 0.065 0.3706 0.33762 0.0
H31 H 0.0409 0.40773 0.33692 0.0
C32 C 0.10886 0.43293 0.18171 0.0
N33 N 0.13964 0.44477 0.13068 0.0
C34 C 0.10601 0.42356 0.14606 0.0
C35 C 0.1273 0.44846 0.19121 0.0
C36 C 0.12177 0.42973 0.12069 0.0
C37 C 0.14269 0.45418 0.16509 0.0
C38 C 0.06663 0.36807 0.23986 0.0
C39 C 0.07742 0.36267 0.21606 0.0
C40 C 0.04826 0.35381 0.25312 0.0
C41 C 0.06941 0.34316 0.20503 0.0
C42 C 0.04076 0.33445 0.24147 0.0
N43 N 0.05139 0.32958 0.21782 0.0
C44 C 0.13312 0.41683 0.28232 0.0
C45 C 0.12961 0.40808 0.21615 0.0
C46 C 0.1511 0.41753 0.28388 0.0
N47 N 0.12288 0.4124 0.24872 0.0
C48 C 0.14763 0.40877 0.21629 0.0
C49 C 0.15875 0.4137 0.25044 0.0
H50 H 0.12735 0.41989 0.30803 0.0
H51 H 0.12113 0.40429 0.18987 0.0
C52 C 0.04045 0.39943 0.16068 0.0
N53 N 0.05233 0.39229 0.17055 0.0
C54 C 0.02855 0.39246 0.12805 0.0
C55 C 0.04206 0.37162 0.11472 0.0
C56 C 0.05348 0.37877 0.14812 0.0
C57 C 0.02926 0.37836 0.10463 0.0
H58 H 0.04029 0.4107 0.17802 0.0
H59 H 0.06347 0.37376 0.15562 0.0
O60 O 0.09476 0.42416 0.29773 0.0
O61 O 0.05683 0.41446 0.25378 0.0
O62 O 0.09361 0.42702 0.20696 0.0
O63 O 0.07435 0.38707 0.25132 0.0
H64 H 0.08009 0.42901 0.36284 0.0
H65 H 0.12976 0.45501 0.28663 0.0
H66 H 0.0965 0.45833 0.4047 0.0
H67 H 0.14527 0.48395 0.32966 0.0
H68 H 0.9942 0.36414 0.25064 0.0
H69 H 0.03938 0.43442 0.27222 0.0
H70 H 0.02983 0.37748 0.24282 0.0
H71 H 0.00355 0.42016 0.27923 0.0
H72 H 0.07747 0.48676 0.31517 0.0
H73 H 0.11212 0.50294 0.21064 0.0
H74 H 0.04778 0.35528 0.3987 0.0
H75 H 0.02279 0.39294 0.39681 0.0
H76 H 0.09182 0.41161 0.13812 0.0
H77 H 0.12973 0.45596 0.21851 0.0
H78 H 0.1198 0.42256 0.09309 0.0
H79 H 0.15707 0.4661 0.17217 0.0
H80 H 0.09173 0.37346 0.20585 0.0
H81 H 0.03993 0.35758 0.2725 0.0
H82 H 0.07754 0.33882 0.18632 0.0
H83 H 0.02652 0.32329 0.25139 0.0
H84 H 0.15886 0.42094 0.31112 0.0
H85 H 0.15292 0.40585 0.18969 0.0
H86 H 0.01916 0.39831 0.12078 0.0
H87 H 0.04309 0.36084 0.09716 0.0
Li88 Li 0.65285 0.08238 0.75092 0.0
Li89 Li 0.66742 0.06797 0.78949 0.0
Li90 Li 0.68792 0.09941 0.75025 0.0
Li91 Li 0.66724 0.06669 0.71775 0.0
C92 C 0.6631 0.10379 0.8159 0.0
N93 N 0.64718 0.12255 0.85638 0.0
C94 C 0.64605 0.09296 0.8375 0.0
C95 C 0.67218 0.12415 0.81518 0.0
C96 C 0.63818 0.10273 0.85764 0.0
C97 C 0.66388 0.13336 0.83581 0.0
C98 C 0.63821 0.03472 0.7572 0.0
C99 C 0.64443 0.00779 0.75693 0.0
N100 N 0.6252 0.99524 0.76407 0.0
C101 C 0.61851 0.02153 0.76463 0.0
C102 C 0.65128 0.02778 0.75344 0.0
C103 C 0.61222 0.00164 0.76797 0.0
C104 C 0.61324 0.06924 0.74087 0.0
N105 N 0.63039 0.0858 0.74827 0.0
C106 C 0.61424 0.10457 0.74824 0.0
C107 C 0.6312 0.10333 0.75182 0.0
C108 C 0.59629 0.08762 0.74073 0.0
C109 C 0.59598 0.06978 0.73721 0.0
H110 H 0.61298 0.05556 0.73731 0.0
H111 H 0.64503 0.11642 0.75674 0.0
C112 C 0.68123 0.05542 0.85446 0.0
N113 N 0.6655 0.05446 0.83642 0.0
C114 C 0.67882 0.04517 0.88901 0.0
C115 C 0.64412 0.03307 0.88523 0.0
C116 C 0.64723 0.04368 0.85122 0.0
C117 C 0.66002 0.03382 0.90496 0.0
H118 H 0.69565 0.06427 0.84223 0.0
H119 H 0.63499 0.04331 0.83651 0.0
C120 C 0.66083 0.09946 0.6836 0.0
N121 N 0.64055 0.1133 0.64162 0.0
C122 C 0.64547 0.08689 0.6595 0.0
C123 C 0.66595 0.11909 0.68624 0.0
C124 C 0.63536 0.09416 0.63858 0.0
C125 C 0.65552 0.1258 0.66476 0.0
C126 C 0.70536 0.07305 0.74231 0.0
C127 C 0.7188 0.08625 0.71573 0.0
C128 C 0.70812 0.05822 0.7575 0.0
C129 C 0.73464 0.08423 0.70433 0.0
C130 C 0.72414 0.05667 0.74536 0.0
N131 N 0.73695 0.0696 0.71924 0.0
C132 C 0.72375 0.12987 0.7798 0.0
C133 C 0.71716 0.13384 0.71463 0.0
C134 C 0.74169 0.14728 0.77825 0.0
N135 N 0.71196 0.12354 0.74824 0.0
C136 C 0.73485 0.15136 0.71186 0.0
C137 C 0.7475 0.15831 0.74387 0.0
H138 H 0.7193 0.12126 0.80606 0.0
H139 H 0.70764 0.12832 0.68978 0.0
C140 C 0.64617 0.0379 0.66212 0.0
N141 N 0.66466 0.05148 0.67247 0.0
C142 C 0.64274 0.02697 0.62849 0.0
C143 C 0.6774 0.04447 0.61572 0.0
C144 C 0.68018 0.05497 0.64994 0.0
C145 C 0.65843 0.0303 0.60443 0.0
H146 H 0.63395 0.03581 0.67956 0.0
H147 H 0.69466 0.06625 0.65779 0.0
O148 O 0.67103 0.09454 0.79593 0.0
O149 O 0.64459 0.05431 0.75448 0.0
O150 O 0.67063 0.09251 0.70489 0.0
O151 O 0.68996 0.07502 0.75447 0.0
H152 H 0.63888 0.0772 0.83832 0.0
H153 H 0.68543 0.13271 0.79867 0.0
H154 H 0.62491 0.09454 0.87425 0.0
H155 H 0.67068 0.14911 0.83539 0.0
H156 H 0.6544 0.00226 0.75394 0.0
H157 H 0.60817 0.02658 0.76815 0.0
H158 H 0.6665 0.03765 0.74757 0.0
H159 H 0.59702 0.9913 0.77377 0.0
H160 H 0.61525 0.1187 0.75056 0.0
H161 H 0.58249 0.05628 0.7319 0.0
H162 H 0.69155 0.04641 0.90337 0.0
H163 H 0.62932 0.02427 0.89576 0.0
H164 H 0.64124 0.07165 0.6573 0.0
H165 H 0.67759 0.12895 0.70523 0.0
H166 H 0.62336 0.08457 0.61999 0.0
H167 H 0.65923 0.14092 0.66672 0.0
H168 H 0.71685 0.09774 0.70351 0.0
H169 H 0.69802 0.04801 0.77851 0.0
H170 H 0.74506 0.09427 0.68356 0.0
H171 H 0.72641 0.04523 0.75679 0.0
H172 H 0.75103 0.15183 0.80348 0.0
H173 H 0.73851 0.15942 0.68492 0.0
H174 H 0.62788 0.01608 0.62136 0.0
H175 H 0.68991 0.04784 0.59777 0.0
Li176 Li 0.60153 0.6648 0.28476 0.0
Li177 Li 0.56996 0.65002 0.25001 0.0
Li178 Li 0.60032 0.665 0.2151 0.0
Li179 Li 0.59131 0.68524 0.24964 0.0
C180 C 0.59902 0.63249 0.23544 0.0
N181 N 0.61796 0.61437 0.20386 0.0
C182 C 0.58859 0.61538 0.21388 0.0
C183 C 0.61907 0.64032 0.24111 0.0
C184 C 0.59844 0.60646 0.19809 0.0
C185 C 0.62838 0.63095 0.22491 0.0
C186 C 0.57008 0.65927 0.32938 0.0
C187 C 0.55714 0.65966 0.39229 0.0
N188 N 0.55341 0.64113 0.39862 0.0
C189 C 0.56614 0.64023 0.33651 0.0
C190 C 0.56559 0.66909 0.35748 0.0
C191 C 0.5577 0.63131 0.37169 0.0
C192 C 0.62374 0.67691 0.35497 0.0
N193 N 0.6138 0.66184 0.32997 0.0
C194 C 0.61967 0.64061 0.3699 0.0
C195 C 0.61148 0.64388 0.33707 0.0
C196 C 0.63003 0.65584 0.39624 0.0
C197 C 0.63193 0.67417 0.38868 0.0
H198 H 0.62514 0.69097 0.34891 0.0
H199 H 0.60301 0.63196 0.3175 0.0
C200 C 0.53896 0.6164 0.21867 0.0
N201 N 0.54348 0.62922 0.24828 0.0
C202 C 0.52015 0.60041 0.21515 0.0
C203 C 0.51065 0.61157 0.27173 0.0
C204 C 0.52967 0.62739 0.27409 0.0
C205 C 0.50574 0.59768 0.24219 0.0
H206 H 0.55004 0.61863 0.19774 0.0
H207 H 0.53333 0.63818 0.29649 0.0
C208 C 0.63027 0.70333 0.22905 0.0
N209 N 0.65597 0.7362 0.18778 0.0
C210 C 0.62516 0.7068 0.19241 0.0
C211 C 0.64845 0.71657 0.24469 0.0
C212 C 0.63835 0.7235 0.17201 0.0
C213 C 0.66125 0.7331 0.22337 0.0
C214 C 0.56145 0.66936 0.19493 0.0
C215 C 0.5563 0.66838 0.15601 0.0
C216 C 0.55025 0.67186 0.22322 0.0
C217 C 0.54005 0.66998 0.14598 0.0
C218 C 0.53411 0.6734 0.21203 0.0
N219 N 0.52939 0.67244 0.17396 0.0
C220 C 0.59921 0.65151 0.13999 0.0
C221 C 0.63126 0.66889 0.16567 0.0
C222 C 0.60616 0.64747 0.10619 0.0
N223 N 0.61174 0.66195 0.16889 0.0
C224 C 0.63884 0.66511 0.1324 0.0
C225 C 0.62621 0.65416 0.10219 0.0
H226 H 0.58373 0.64597 0.14363 0.0
H227 H 0.64089 0.67701 0.18926 0.0
C228 C 0.59454 0.71978 0.28266 0.0
N229 N 0.59191 0.7098 0.24911 0.0
C230 C 0.59422 0.73733 0.2827 0.0
C231 C 0.5885 0.73394 0.21376 0.0
C232 C 0.58927 0.71671 0.21493 0.0
C233 C 0.59088 0.74441 0.24796 0.0
H234 H 0.59669 0.71401 0.30941 0.0
H235 H 0.58755 0.70876 0.18848 0.0
O236 O 0.5898 0.64179 0.25029 0.0
O237 O 0.57864 0.66849 0.29545 0.0
O238 O 0.61761 0.68715 0.2498 0.0
O239 O 0.5773 0.66771 0.20498 0.0
H240 H 0.57307 0.60902 0.20934 0.0
H241 H 0.62743 0.65369 0.2573 0.0
H242 H 0.59055 0.59325 0.18124 0.0
H243 H 0.64391 0.63693 0.22885 0.0
H244 H 0.55357 0.66708 0.4143 0.0
H245 H 0.56947 0.63238 0.3151 0.0
H246 H 0.56862 0.68386 0.35242 0.0
H247 H 0.55455 0.61659 0.37758 0.0
H248 H 0.61753 0.62616 0.3751 0.0
H249 H 0.63977 0.68625 0.40844 0.0
H250 H 0.51706 0.59008 0.19194 0.0
H251 H 0.49988 0.61028 0.29266 0.0
H252 H 0.61118 0.69671 0.17976 0.0
H253 H 0.65261 0.71409 0.27305 0.0
H254 H 0.63458 0.72636 0.14363 0.0
H255 H 0.67537 0.74348 0.23513 0.0
H256 H 0.5648 0.66642 0.13377 0.0
H257 H 0.55397 0.67266 0.25349 0.0
H258 H 0.53591 0.66927 0.11595 0.0
H259 H 0.52534 0.67536 0.23361 0.0
H260 H 0.59587 0.63874 0.08389 0.0
H261 H 0.65441 0.67065 0.13037 0.0
H262 H 0.59609 0.74502 0.30967 0.0
H263 H 0.58616 0.73908 0.18634 0.0
Li264 Li 0.9179 0.56824 0.74707 0.0
Li265 Li 0.93518 0.59913 0.78211 0.0
Li266 Li 0.9052 0.59146 0.74407 0.0
Li267 Li 0.93659 0.6008 0.7121 0.0
C268 C 0.89064 0.56355 0.80618 0.0
N269 N 0.85585 0.53543 0.83841 0.0
C270 C 0.88931 0.56001 0.84598 0.0
C271 C 0.87424 0.55291 0.78284 0.0
C272 C 0.87161 0.54569 0.86171 0.0
C273 C 0.85679 0.53873 0.79966 0.0
C274 C 0.9623 0.58997 0.76607 0.0
C275 C 0.99567 0.61047 0.78646 0.0
N276 N 0.99435 0.59551 0.8082 0.0
C277 C 0.96131 0.57474 0.78833 0.0
C278 C 0.97964 0.60793 0.76483 0.0
C279 C 0.97766 0.57785 0.80951 0.0
C280 C 0.91847 0.53625 0.71445 0.0
N281 N 0.91233 0.54184 0.74613 0.0
C282 C 0.90162 0.51086 0.77616 0.0
C283 C 0.90402 0.5296 0.77673 0.0
C284 C 0.90814 0.50481 0.74409 0.0
C285 C 0.91652 0.51772 0.71281 0.0
H286 H 0.92523 0.54639 0.69074 0.0
H287 H 0.89975 0.53449 0.80208 0.0
C288 C 0.96162 0.62839 0.83622 0.0
N289 N 0.94932 0.60907 0.82932 0.0
C290 C 0.9729 0.63435 0.87002 0.0
C291 C 0.95838 0.60049 0.88894 0.0
C292 C 0.94729 0.59522 0.85516 0.0
C293 C 0.97159 0.62025 0.89652 0.0
H294 H 0.963 0.63911 0.81516 0.0
H295 H 0.93743 0.57998 0.84887 0.0
C296 C 0.8983 0.568 0.67126 0.0
N297 N 0.87405 0.54751 0.6103 0.0
C298 C 0.90017 0.57719 0.63569 0.0
C299 C 0.88421 0.54829 0.67564 0.0
C300 C 0.88773 0.56662 0.60529 0.0
C301 C 0.87207 0.53821 0.64453 0.0
C302 C 0.93832 0.63466 0.73169 0.0
C303 C 0.92626 0.64092 0.71518 0.0
C304 C 0.95858 0.64687 0.73075 0.0
C305 C 0.93471 0.65927 0.69755 0.0
C306 C 0.96646 0.6651 0.71279 0.0
N307 N 0.95447 0.67086 0.69669 0.0
C308 C 0.87488 0.59691 0.77425 0.0
C309 C 0.87308 0.59138 0.70672 0.0
C310 C 0.8579 0.59825 0.77315 0.0
N311 N 0.88204 0.59344 0.74133 0.0
C312 C 0.85602 0.59244 0.70432 0.0
C313 C 0.84815 0.59594 0.7378 0.0
H314 H 0.88238 0.59865 0.80139 0.0
H315 H 0.87913 0.58891 0.68086 0.0
C316 C 0.96619 0.60841 0.658 0.0
N317 N 0.95202 0.61272 0.6668 0.0
C318 C 0.97696 0.61541 0.62386 0.0
C319 C 0.95865 0.6315 0.60869 0.0
C320 C 0.94811 0.62404 0.64295 0.0
C321 C 0.97315 0.627 0.59854 0.0
H322 H 0.96887 0.5992 0.67716 0.0
H323 H 0.93643 0.62683 0.64989 0.0
O324 O 0.90789 0.57751 0.79039 0.0
O325 O 0.94629 0.58738 0.74601 0.0
O326 O 0.91051 0.57811 0.70126 0.0
O327 O 0.93031 0.61674 0.74898 0.0
H328 H 0.90183 0.56821 0.86452 0.0
H329 H 0.87491 0.55571 0.75217 0.0
H330 H 0.87039 0.54274 0.89245 0.0
H331 H 0.84399 0.5304 0.78191 0.0
H332 H 0.00914 0.62434 0.786 0.0
H333 H 0.94798 0.56075 0.78963 0.0
H334 H 0.98066 0.61982 0.74757 0.0
H335 H 0.97707 0.56625 0.82712 0.0
H336 H 0.89537 0.50146 0.80112 0.0
H337 H 0.92164 0.51358 0.68746 0.0
H338 H 0.98298 0.64973 0.87476 0.0
H339 H 0.95675 0.58917 0.90882 0.0
H340 H 0.91095 0.59239 0.63168 0.0
H341 H 0.8827 0.54076 0.70262 0.0
H342 H 0.88896 0.57361 0.57771 0.0
H343 H 0.86109 0.52297 0.64758 0.0
H344 H 0.91055 0.63168 0.71581 0.0
H345 H 0.9681 0.64225 0.74342 0.0
H346 H 0.92557 0.66428 0.68451 0.0
H347 H 0.98212 0.67465 0.71161 0.0
H348 H 0.85263 0.60128 0.79965 0.0
H349 H 0.84897 0.5903 0.67648 0.0
H350 H 0.98811 0.61171 0.61727 0.0
H351 H 0.95504 0.64014 0.58972 0.0
Li352 Li 0.33927 0.93562 0.28593 0.0
Li353 Li 0.35297 0.91784 0.25152 0.0
Li354 Li 0.33755 0.93477 0.21579 0.0
Li355 Li 0.3169 0.90426 0.25104 0.0
C356 C 0.37562 0.96256 0.26587 0.0
N357 N 0.40407 0.99573 0.30227 0.0
C358 C 0.39056 0.96202 0.28642 0.0
C359 C 0.3753 0.98002 0.2634 0.0
C360 C 0.40478 0.97893 0.30473 0.0
C361 C 0.38976 0.99662 0.28214 0.0
C362 C 0.335 0.8944 0.31737 0.0
C363 C 0.33106 0.86219 0.3219 0.0
N364 N 0.33609 0.86537 0.35991 0.0
C365 C 0.33999 0.8973 0.35655 0.0
C366 C 0.33039 0.87668 0.29994 0.0
C367 C 0.34051 0.88246 0.37753 0.0
C368 C 0.33234 0.95957 0.33847 0.0
N369 N 0.34308 0.9508 0.33157 0.0
C370 C 0.36077 0.96358 0.39048 0.0
C371 C 0.357 0.95251 0.35686 0.0
C372 C 0.34997 0.97288 0.39851 0.0
C373 C 0.33557 0.97075 0.3719 0.0
H374 H 0.32119 0.95782 0.31816 0.0
H375 H 0.36527 0.94532 0.35079 0.0
C376 C 0.38309 0.91525 0.21482 0.0
N377 N 0.37399 0.91249 0.24951 0.0
C378 C 0.39933 0.9128 0.21121 0.0
C379 C 0.39637 0.90439 0.279 0.0
C380 C 0.38037 0.90727 0.28139 0.0
C381 C 0.40628 0.90736 0.24363 0.0
H382 H 0.3779 0.91971 0.19006 0.0
H383 H 0.37333 0.90568 0.30894 0.0
C384 C 0.30656 0.93766 0.23641 0.0
N385 N 0.2878 0.95513 0.20128 0.0
C386 C 0.2879 0.9262 0.22082 0.0
C387 C 0.31557 0.958 0.23458 0.0
C388 C 0.27868 0.93531 0.20308 0.0
C389 C 0.30589 0.96655 0.21656 0.0
C390 C 0.3285 0.8934 0.18172 0.0
C391 C 0.31749 0.89236 0.14926 0.0
C392 C 0.33359 0.87903 0.1876 0.0
C393 C 0.31126 0.87664 0.12384 0.0
C394 C 0.32711 0.86355 0.16149 0.0
N395 N 0.31614 0.86266 0.13045 0.0
C396 C 0.35848 0.96356 0.1599 0.0
C397 C 0.32485 0.94417 0.14517 0.0
C398 C 0.3619 0.97363 0.12495 0.0
N399 N 0.34021 0.94909 0.16927 0.0
C400 C 0.3276 0.95389 0.10991 0.0
C401 C 0.34638 0.96873 0.09917 0.0
H402 H 0.37053 0.96696 0.17915 0.0
H403 H 0.3105 0.93243 0.15289 0.0
C404 C 0.28598 0.86994 0.28524 0.0
N405 N 0.29203 0.88045 0.25189 0.0
C406 C 0.26867 0.85196 0.28618 0.0
C407 C 0.26317 0.85657 0.21927 0.0
C408 C 0.28081 0.87431 0.21943 0.0
C409 C 0.25713 0.845 0.25279 0.0
H410 H 0.29464 0.8754 0.31119 0.0
H411 H 0.28552 0.88319 0.19363 0.0
O412 O 0.36142 0.94607 0.24823 0.0
O413 O 0.33468 0.90889 0.29629 0.0
O414 O 0.31589 0.929 0.25361 0.0
O415 O 0.33485 0.90879 0.20678 0.0
H416 H 0.39107 0.94864 0.28858 0.0
H417 H 0.364 0.98077 0.2472 0.0
H418 H 0.41634 0.97869 0.32096 0.0
H419 H 0.38963 0.01021 0.28063 0.0
H420 H 0.32752 0.84841 0.30875 0.0
H421 H 0.34344 0.91085 0.37063 0.0
H422 H 0.32611 0.87405 0.26994 0.0
H423 H 0.34442 0.88453 0.40784 0.0
H424 H 0.37221 0.96501 0.40973 0.0
H425 H 0.3267 0.97741 0.37709 0.0
H426 H 0.40663 0.91566 0.1835 0.0
H427 H 0.40096 0.89997 0.30473 0.0
H428 H 0.28063 0.91046 0.22234 0.0
H429 H 0.32993 0.96707 0.24676 0.0
H430 H 0.26428 0.92662 0.19073 0.0
H431 H 0.31275 0.98228 0.21472 0.0
H432 H 0.31361 0.90345 0.14395 0.0
H433 H 0.34262 0.87987 0.21182 0.0
H434 H 0.30256 0.87556 0.09882 0.0
H435 H 0.33088 0.85229 0.16581 0.0
H436 H 0.37669 0.98469 0.11768 0.0
H437 H 0.31516 0.94972 0.09117 0.0
H438 H 0.26428 0.84362 0.31282 0.0
H439 H 0.25459 0.85174 0.19301 0.0
Li440 Li 0.43142 0.35141 0.74852 0.0
Li441 Li 0.40043 0.33583 0.78368 0.0
Li442 Li 0.41074 0.3151 0.74807 0.0
Li443 Li 0.3988 0.33445 0.71387 0.0
C444 C 0.43933 0.33231 0.80876 0.0
N445 N 0.47061 0.33072 0.8403 0.0
C446 C 0.44352 0.33589 0.84817 0.0
C447 C 0.45094 0.32777 0.78551 0.0
C448 C 0.45944 0.33507 0.86355 0.0
C449 C 0.4667 0.32706 0.80195 0.0
C450 C 0.40634 0.37063 0.76641 0.0
C451 C 0.38366 0.38095 0.78608 0.0
N452 N 0.39784 0.39517 0.80825 0.0
C453 C 0.42073 0.38543 0.78915 0.0
C454 C 0.38769 0.36843 0.76461 0.0
C455 C 0.41612 0.39766 0.81017 0.0
C456 C 0.46174 0.38371 0.7119 0.0
N457 N 0.4569 0.37373 0.74587 0.0
C458 C 0.48694 0.39771 0.77447 0.0
C459 C 0.46906 0.38032 0.77693 0.0
C460 C 0.49218 0.40853 0.73991 0.0
C461 C 0.4794 0.40121 0.70823 0.0
H462 H 0.45166 0.37822 0.68785 0.0
H463 H 0.46468 0.37244 0.80397 0.0
C464 C 0.36961 0.32992 0.83631 0.0
N465 N 0.38921 0.33877 0.8304 0.0
C466 C 0.36227 0.33311 0.87069 0.0
C467 C 0.3954 0.35429 0.89217 0.0
C468 C 0.40207 0.35068 0.85754 0.0
C469 C 0.37524 0.34555 0.89913 0.0
H470 H 0.35968 0.3205 0.81429 0.0
H471 H 0.41758 0.35757 0.85201 0.0
C472 C 0.43282 0.33015 0.67499 0.0
N473 N 0.45296 0.32444 0.61582 0.0
C474 C 0.42298 0.31991 0.64175 0.0
C475 C 0.45299 0.33775 0.67781 0.0
C476 C 0.43339 0.31709 0.61226 0.0
C477 C 0.46288 0.33464 0.64768 0.0
C478 C 0.36675 0.30114 0.73365 0.0
C479 C 0.36215 0.28305 0.71801 0.0
C480 C 0.3533 0.30765 0.73099 0.0
C481 C 0.3442 0.27183 0.69955 0.0
C482 C 0.33552 0.29602 0.71225 0.0
N483 N 0.33138 0.27851 0.69704 0.0
C484 C 0.41065 0.28314 0.78422 0.0
C485 C 0.41184 0.28221 0.71588 0.0
C486 C 0.41139 0.2659 0.78706 0.0
N487 N 0.41114 0.29106 0.74904 0.0
C488 C 0.41256 0.26492 0.71734 0.0
C489 C 0.41249 0.25659 0.75332 0.0
H490 H 0.40977 0.29029 0.81017 0.0
H491 H 0.41179 0.28848 0.68824 0.0
C492 C 0.38925 0.35441 0.65883 0.0
N493 N 0.38632 0.33641 0.66785 0.0
C494 C 0.38231 0.35754 0.62397 0.0
C495 C 0.36915 0.32347 0.6084 0.0
C496 C 0.37635 0.321 0.6436 0.0
C497 C 0.37231 0.342 0.59793 0.0
H498 H 0.39751 0.36651 0.67822 0.0
H499 H 0.37442 0.30687 0.65099 0.0
O500 O 0.42383 0.33314 0.79329 0.0
O501 O 0.4104 0.35816 0.74648 0.0
O502 O 0.42289 0.33333 0.70392 0.0
O503 O 0.38426 0.31233 0.75175 0.0
H504 H 0.4346 0.33928 0.8667 0.0
H505 H 0.44766 0.32455 0.75522 0.0
H506 H 0.46289 0.33788 0.89397 0.0
H507 H 0.47579 0.32354 0.78424 0.0
H508 H 0.36926 0.37934 0.78516 0.0
H509 H 0.43522 0.38729 0.79091 0.0
H510 H 0.37643 0.35708 0.74702 0.0
H511 H 0.42707 0.4091 0.82811 0.0
H512 H 0.49623 0.403 0.79976 0.0
H513 H 0.48293 0.40901 0.68099 0.0
H514 H 0.34662 0.32618 0.87468 0.0
H515 H 0.40597 0.36372 0.91341 0.0
H516 H 0.40743 0.31394 0.63894 0.0
H517 H 0.461 0.34607 0.70284 0.0
H518 H 0.4259 0.30905 0.58655 0.0
H519 H 0.47847 0.34039 0.64959 0.0
H520 H 0.37236 0.27775 0.72 0.0
H521 H 0.35664 0.32161 0.74291 0.0
H522 H 0.34047 0.25784 0.68719 0.0
H523 H 0.32502 0.30093 0.70974 0.0
H524 H 0.41094 0.25985 0.8154 0.0
H525 H 0.41349 0.25833 0.69058 0.0
H526 H 0.38539 0.37215 0.61691 0.0
H527 H 0.36139 0.31103 0.58941 0.0
Li528 Li 0.60217 0.93553 0.28978 0.0
Li529 Li 0.59424 0.90643 0.25463 0.0
Li530 Li 0.60329 0.93817 0.21899 0.0
Li531 Li 0.57139 0.91852 0.25422 0.0
C532 C 0.63838 0.94294 0.2656 0.0
N533 N 0.67657 0.96551 0.29002 0.0
C534 C 0.6454 0.93663 0.2962 0.0
C535 C 0.6508 0.96068 0.24726 0.0
C536 C 0.66474 0.94828 0.30818 0.0
C537 C 0.67006 0.97188 0.26007 0.0
C538 C 0.57391 0.89274 0.32018 0.0
C539 C 0.55229 0.85826 0.33017 0.0
N540 N 0.56233 0.85911 0.36274 0.0
C541 C 0.58395 0.89331 0.35387 0.0
C542 C 0.55788 0.87511 0.30834 0.0
C543 C 0.57789 0.87614 0.37495 0.0
C544 C 0.59857 0.94439 0.36571 0.0
N545 N 0.61226 0.94972 0.33741 0.0
C546 C 0.63586 0.97564 0.37695 0.0
C547 C 0.63065 0.96509 0.34236 0.0
C548 C 0.62186 0.9706 0.40626 0.0
C549 C 0.60306 0.95467 0.40044 0.0
H550 H 0.58392 0.93247 0.36078 0.0
H551 H 0.64108 0.96979 0.31908 0.0
C552 C 0.58964 0.87081 0.22391 0.0
N553 N 0.59664 0.88346 0.25414 0.0
C554 C 0.59095 0.85381 0.22416 0.0
C555 C 0.60666 0.86319 0.28655 0.0
C556 C 0.60529 0.88009 0.28482 0.0
C557 C 0.59944 0.8497 0.25596 0.0
H558 H 0.58308 0.87393 0.19954 0.0
H559 H 0.61092 0.89041 0.30834 0.0
C560 C 0.59171 0.96183 0.27802 0.0
N561 N 0.59555 0.99127 0.3266 0.0
C562 C 0.57595 0.95922 0.30069 0.0
C563 C 0.60942 0.97945 0.27997 0.0
C564 C 0.57819 0.97428 0.32507 0.0
C565 C 0.61107 0.99415 0.30474 0.0
C566 C 0.56617 0.90237 0.18372 0.0
C567 C 0.56543 0.91288 0.15189 0.0
C568 C 0.55094 0.88333 0.19011 0.0
C569 C 0.5493 0.90422 0.12719 0.0
C570 C 0.53507 0.87519 0.16477 0.0
N571 N 0.53458 0.88572 0.13412 0.0
C572 C 0.6204 0.94803 0.1432 0.0
C573 C 0.61456 0.9714 0.17381 0.0
C574 C 0.62639 0.95928 0.10931 0.0
N575 N 0.6144 0.95416 0.17434 0.0
C576 C 0.62065 0.98317 0.14094 0.0
C577 C 0.62623 0.97699 0.10766 0.0
H578 H 0.61986 0.9341 0.1442 0.0
H579 H 0.60939 0.97579 0.19855 0.0
C580 C 0.53329 0.90341 0.28505 0.0
N581 N 0.54487 0.91266 0.25408 0.0
C582 C 0.5147 0.9013 0.28785 0.0
C583 C 0.52009 0.9178 0.22638 0.0
C584 C 0.53868 0.91986 0.22506 0.0
C585 C 0.50799 0.90871 0.25841 0.0
H586 H 0.53876 0.89837 0.30835 0.0
H587 H 0.54846 0.92789 0.20161 0.0
O588 O 0.61959 0.93165 0.25302 0.0
O589 O 0.57974 0.90936 0.29896 0.0
O590 O 0.59 0.94701 0.2549 0.0
O591 O 0.58176 0.91065 0.2084 0.0
H592 H 0.63598 0.92301 0.31083 0.0
H593 H 0.64563 0.96577 0.22348 0.0
H594 H 0.67034 0.94363 0.33196 0.0
H595 H 0.67982 0.98566 0.24622 0.0
H596 H 0.53995 0.8445 0.32124 0.0
H597 H 0.59648 0.90679 0.36334 0.0
H598 H 0.54986 0.87445 0.28254 0.0
H599 H 0.5856 0.87634 0.40093 0.0
H600 H 0.65041 0.98809 0.38011 0.0
H601 H 0.59186 0.95033 0.42238 0.0
H602 H 0.58553 0.84411 0.19949 0.0
H603 H 0.61306 0.86064 0.31198 0.0
H604 H 0.5622 0.94565 0.29982 0.0
H605 H 0.6219 0.98158 0.26325 0.0
H606 H 0.56614 0.97242 0.34291 0.0
H607 H 0.62473 0.00778 0.30679 0.0
H608 H 0.57705 0.92765 0.14651 0.0
H609 H 0.55138 0.87492 0.21436 0.0
H610 H 0.54848 0.91223 0.10258 0.0
H611 H 0.52314 0.86049 0.16946 0.0
H612 H 0.63035 0.95379 0.08429 0.0
H613 H 0.62061 0.99684 0.14145 0.0
H614 H 0.50581 0.89426 0.31308 0.0
H615 H 0.5156 0.92406 0.20349 0.0
Li616 Li 0.66457 0.60035 0.78526 0.0
Li617 Li 0.68564 0.59176 0.75229 0.0
Li618 Li 0.66421 0.60199 0.71489 0.0
Li619 Li 0.65051 0.56967 0.75007 0.0
C620 C 0.695 0.63549 0.7668 0.0
N621 N 0.71171 0.67193 0.80075 0.0
C622 C 0.70481 0.63889 0.80207 0.0
C623 C 0.69381 0.65065 0.74864 0.0
C624 C 0.71311 0.6574 0.81883 0.0
C625 C 0.70234 0.66897 0.7663 0.0
C626 C 0.67681 0.56912 0.81443 0.0
C627 C 0.68644 0.54462 0.81726 0.0
N628 N 0.69618 0.55257 0.85078 0.0
C629 C 0.68686 0.577 0.84901 0.0
C630 C 0.67654 0.55275 0.79852 0.0
C631 C 0.69658 0.56844 0.8669 0.0
C632 C 0.65658 0.60166 0.86448 0.0
N633 N 0.66057 0.61187 0.83084 0.0
C634 C 0.65558 0.63614 0.86143 0.0
C635 C 0.66007 0.6288 0.82876 0.0
C636 C 0.65142 0.62591 0.89659 0.0
C637 C 0.65209 0.60851 0.89792 0.0
H638 H 0.65625 0.58785 0.86509 0.0
H639 H 0.6626 0.63633 0.80146 0.0
C640 C 0.71611 0.58638 0.72164 0.0
N641 N 0.71056 0.59306 0.75257 0.0
C642 C 0.73374 0.58624 0.72239 0.0
C643 C 0.73969 0.60007 0.78659 0.0
C644 C 0.72216 0.60026 0.78431 0.0
C645 C 0.7456 0.59288 0.75547 0.0
H646 H 0.7068 0.58099 0.69649 0.0
H647 H 0.7177 0.60586 0.80822 0.0
C648 C 0.62781 0.59009 0.77174 0.0
N649 N 0.60116 0.59301 0.81882 0.0
C650 C 0.61744 0.5758 0.79968 0.0
C651 C 0.62459 0.60584 0.76769 0.0
C652 C 0.60404 0.57755 0.82322 0.0
C653 C 0.61106 0.60706 0.79177 0.0
C654 C 0.6624 0.56527 0.67825 0.0
C655 C 0.65182 0.56594 0.64647 0.0
C656 C 0.66602 0.54976 0.68194 0.0
C657 C 0.64474 0.55088 0.61926 0.0
C658 C 0.65869 0.53499 0.65412 0.0
N659 N 0.64827 0.53584 0.62364 0.0
C660 C 0.67599 0.62465 0.64534 0.0
C661 C 0.64299 0.61196 0.66406 0.0
C662 C 0.67304 0.633 0.61214 0.0
N663 N 0.66103 0.61439 0.67042 0.0
C664 C 0.63948 0.62028 0.63166 0.0
C665 C 0.65458 0.6309 0.60511 0.0
H666 H 0.69015 0.62619 0.65096 0.0
H667 H 0.63121 0.60328 0.68384 0.0
C668 C 0.62601 0.53132 0.77942 0.0
N669 N 0.62942 0.54327 0.74857 0.0
C670 C 0.60985 0.51245 0.77977 0.0
C671 C 0.60092 0.51855 0.71665 0.0
C672 C 0.61714 0.53734 0.71771 0.0
C673 C 0.59696 0.50583 0.74813 0.0
H674 H 0.6355 0.5366 0.80434 0.0
H675 H 0.6197 0.54734 0.69421 0.0
O676 O 0.68677 0.6175 0.74986 0.0
O677 O 0.66744 0.57746 0.79611 0.0
O678 O 0.64145 0.58893 0.74932 0.0
O679 O 0.66942 0.57987 0.70522 0.0
H680 H 0.70566 0.62726 0.81671 0.0
H681 H 0.68629 0.64826 0.72129 0.0
H682 H 0.7206 0.6602 0.84627 0.0
H683 H 0.70147 0.68083 0.75266 0.0
H684 H 0.68637 0.53198 0.80516 0.0
H685 H 0.68748 0.58983 0.86154 0.0
H686 H 0.66874 0.54639 0.77198 0.0
H687 H 0.70452 0.57448 0.89351 0.0
H688 H 0.65521 0.64961 0.85911 0.0
H689 H 0.64854 0.59993 0.92419 0.0
H690 H 0.73781 0.58058 0.69779 0.0
H691 H 0.74858 0.60557 0.81238 0.0
H692 H 0.61993 0.56365 0.80357 0.0
H693 H 0.63275 0.61724 0.74674 0.0
H694 H 0.596 0.56666 0.84511 0.0
H695 H 0.60853 0.61924 0.78915 0.0
H696 H 0.64892 0.57783 0.64301 0.0
H697 H 0.67448 0.54917 0.70589 0.0
H698 H 0.63642 0.55115 0.59468 0.0
H699 H 0.66133 0.52287 0.65672 0.0
H700 H 0.68505 0.64109 0.5923 0.0
H701 H 0.62494 0.61798 0.6269 0.0
H702 H 0.60717 0.5034 0.80511 0.0
H703 H 0.59152 0.51411 0.6915 0.0
Li704 Li 0.09521 0.68579 0.24808 0.0
Li705 Li 0.06574 0.6639 0.28143 0.0
Li706 Li 0.08371 0.65075 0.24605 0.0
Li707 Li 0.06573 0.66569 0.21046 0.0
C708 C 0.10544 0.67009 0.31775 0.0
N709 N 0.13309 0.6747 0.37198 0.0
C710 C 0.10452 0.67613 0.3553 0.0
C711 C 0.12034 0.66628 0.30787 0.0
C712 C 0.11866 0.67841 0.38227 0.0
C713 C 0.1342 0.66872 0.33567 0.0
C714 C 0.07152 0.70135 0.27037 0.0
C715 C 0.06302 0.72616 0.28296 0.0
N716 N 0.07401 0.73124 0.31571 0.0
C717 C 0.08273 0.70682 0.30411 0.0
C718 C 0.0616 0.71108 0.25964 0.0
C719 C 0.08381 0.72197 0.32665 0.0
C720 C 0.12003 0.72415 0.22045 0.0
N721 N 0.11834 0.71136 0.24858 0.0
C722 C 0.14927 0.73489 0.27492 0.0
C723 C 0.13248 0.71649 0.2758 0.0
C724 C 0.15178 0.74823 0.24545 0.0
C725 C 0.13676 0.7426 0.21804 0.0
H726 H 0.10845 0.71989 0.19949 0.0
H727 H 0.13085 0.70643 0.2984 0.0
C728 C 0.05286 0.64626 0.35256 0.0
N729 N 0.05065 0.65831 0.3277 0.0
C730 C 0.04223 0.64031 0.38688 0.0
C731 C 0.02708 0.65928 0.36965 0.0
C732 C 0.03808 0.6649 0.33546 0.0
C733 C 0.02901 0.64669 0.39579 0.0
H734 H 0.06282 0.6411 0.34543 0.0
H735 H 0.03636 0.67425 0.31491 0.0
C736 C 0.10869 0.68106 0.18069 0.0
N737 N 0.14202 0.70569 0.13952 0.0
C738 C 0.10753 0.69091 0.14812 0.0
C739 C 0.12674 0.68354 0.19204 0.0
C740 C 0.12456 0.70334 0.12774 0.0
C741 C 0.14344 0.69612 0.17094 0.0
C742 C 0.03665 0.63059 0.25717 0.0
C743 C 0.0317 0.61379 0.27874 0.0
C744 C 0.02272 0.63624 0.25087 0.0
C745 C 0.01285 0.60296 0.2939 0.0
C746 C 0.00403 0.625 0.26649 0.0
N747 N 0.99954 0.60875 0.28754 0.0
C748 C 0.08382 0.61782 0.27555 0.0
C749 C 0.09805 0.62755 0.21333 0.0
C750 C 0.08612 0.60143 0.27459 0.0
N751 N 0.08949 0.63025 0.24495 0.0
C752 C 0.1008 0.61144 0.21127 0.0
C753 C 0.09447 0.59789 0.24189 0.0
H754 H 0.07707 0.6204 0.30031 0.0
H755 H 0.10241 0.6377 0.18941 0.0
C756 C 0.05213 0.67831 0.14581 0.0
N757 N 0.05102 0.66273 0.16483 0.0
C758 C 0.04183 0.67557 0.11124 0.0
C759 C 0.02921 0.64084 0.11715 0.0
C760 C 0.03982 0.64426 0.15132 0.0
C761 C 0.03027 0.65661 0.09627 0.0
H762 H 0.06127 0.69287 0.15713 0.0
H763 H 0.03923 0.63215 0.16704 0.0
O764 O 0.09166 0.66771 0.29101 0.0
O765 O 0.07011 0.68649 0.24787 0.0
O766 O 0.09223 0.66915 0.20146 0.0
O767 O 0.0552 0.64182 0.24328 0.0
H768 H 0.09305 0.67907 0.36355 0.0
H769 H 0.12123 0.66148 0.27909 0.0
H770 H 0.11816 0.68313 0.41139 0.0
H771 H 0.14583 0.66586 0.3284 0.0
H772 H 0.0554 0.73381 0.27504 0.0
H773 H 0.09053 0.6995 0.31279 0.0
H774 H 0.05284 0.70699 0.23358 0.0
H775 H 0.09244 0.72636 0.35284 0.0
H776 H 0.16008 0.73863 0.29742 0.0
H777 H 0.13797 0.75219 0.19453 0.0
H778 H 0.04443 0.63084 0.40632 0.0
H779 H 0.0169 0.66437 0.37515 0.0
H780 H 0.09365 0.68911 0.13891 0.0
H781 H 0.12787 0.67597 0.21705 0.0
H782 H 0.12391 0.71116 0.10263 0.0
H783 H 0.15754 0.6983 0.17958 0.0
H784 H 0.04233 0.60926 0.28399 0.0
H785 H 0.0264 0.64933 0.23457 0.0
H786 H 0.00884 0.58998 0.31083 0.0
H787 H 0.99314 0.62926 0.26204 0.0
H788 H 0.08077 0.59133 0.29867 0.0
H789 H 0.1076 0.60952 0.18577 0.0
H790 H 0.04326 0.68819 0.09603 0.0
H791 H 0.02022 0.62595 0.1073 0.0
Li792 Li 0.41206 0.09592 0.75151 0.0
Li793 Li 0.40417 0.06648 0.78746 0.0
Li794 Li 0.43517 0.08324 0.75224 0.0
Li795 Li 0.40282 0.06422 0.7168 0.0
C796 C 0.43193 0.10573 0.82568 0.0
N797 N 0.44327 0.13138 0.88728 0.0
C798 C 0.41883 0.10266 0.85569 0.0
C799 C 0.45087 0.12176 0.82727 0.0
C800 C 0.42482 0.11581 0.8865 0.0
C801 C 0.4563 0.13459 0.85856 0.0
C802 C 0.36906 0.06471 0.76702 0.0
C803 C 0.33448 0.04188 0.76993 0.0
N804 N 0.3328 0.05236 0.79935 0.0
C805 C 0.36699 0.07533 0.79707 0.0
C806 C 0.3527 0.04791 0.75313 0.0
C807 C 0.34854 0.06881 0.81313 0.0
C808 C 0.40953 0.12609 0.71239 0.0
N809 N 0.40979 0.11904 0.74817 0.0
C810 C 0.40742 0.14512 0.77778 0.0
C811 C 0.40852 0.12809 0.78055 0.0
C812 C 0.40754 0.15298 0.74128 0.0
C813 C 0.40848 0.14313 0.70825 0.0
H814 H 0.41031 0.11855 0.68698 0.0
H815 H 0.40821 0.1221 0.80864 0.0
C816 C 0.40788 0.05631 0.86268 0.0
N817 N 0.39398 0.0527 0.83566 0.0
C818 C 0.40269 0.04746 0.89898 0.0
C819 C 0.36894 0.03067 0.87888 0.0
C820 C 0.37479 0.03992 0.84288 0.0
C821 C 0.38297 0.03455 0.90765 0.0
H822 H 0.42309 0.06613 0.85594 0.0
H823 H 0.364 0.03667 0.82075 0.0
C824 C 0.44085 0.10802 0.69106 0.0
N825 N 0.47237 0.14126 0.66107 0.0
C826 C 0.44662 0.10834 0.65273 0.0
C827 C 0.45118 0.12458 0.71415 0.0
C828 C 0.46258 0.12529 0.6381 0.0
C829 C 0.46704 0.14125 0.69846 0.0
C830 C 0.41384 0.03947 0.7748 0.0
C831 C 0.43007 0.04034 0.79283 0.0
C832 C 0.39537 0.02311 0.78041 0.0
C833 C 0.42752 0.02489 0.81645 0.0
C834 C 0.39341 0.00799 0.80432 0.0
N835 N 0.4094 0.00919 0.82171 0.0
C836 C 0.47138 0.09311 0.78645 0.0
C837 C 0.47047 0.08975 0.71829 0.0
C838 C 0.49042 0.09632 0.78755 0.0
N839 N 0.4618 0.08976 0.7522 0.0
C840 C 0.48957 0.09313 0.71797 0.0
C841 C 0.49973 0.09615 0.753 0.0
H842 H 0.46397 0.09259 0.81308 0.0
H843 H 0.46241 0.08672 0.69152 0.0
C844 C 0.39571 0.05739 0.63644 0.0
N845 N 0.39089 0.0487 0.6718 0.0
C846 C 0.38911 0.04614 0.60276 0.0
C847 C 0.37186 0.01732 0.64252 0.0
C848 C 0.37888 0.02911 0.67537 0.0
C849 C 0.37731 0.02573 0.6055 0.0
H850 H 0.40511 0.07301 0.63437 0.0
H851 H 0.37505 0.02254 0.7037 0.0
O852 O 0.42647 0.09282 0.79555 0.0
O853 O 0.38697 0.07079 0.75093 0.0
O854 O 0.42544 0.09144 0.70612 0.0
O855 O 0.416 0.05467 0.75224 0.0
H856 H 0.40409 0.0904 0.85501 0.0
H857 H 0.46132 0.12426 0.80465 0.0
H858 H 0.41479 0.11365 0.90976 0.0
H859 H 0.47089 0.14707 0.86008 0.0
H860 H 0.32169 0.02886 0.7596 0.0
H861 H 0.37951 0.08838 0.80802 0.0
H862 H 0.35408 0.03958 0.72977 0.0
H863 H 0.34673 0.07682 0.83655 0.0
H864 H 0.40627 0.15193 0.80403 0.0
H865 H 0.40871 0.14869 0.6795 0.0
H866 H 0.41406 0.05055 0.91991 0.0
H867 H 0.35357 0.02077 0.88427 0.0
H868 H 0.43904 0.09559 0.63454 0.0
H869 H 0.44696 0.12459 0.74382 0.0
H870 H 0.46723 0.12572 0.60851 0.0
H871 H 0.47511 0.15417 0.71603 0.0
H872 H 0.44448 0.05279 0.78871 0.0
H873 H 0.38258 0.02236 0.76746 0.0
H874 H 0.43996 0.02541 0.83066 0.0
H875 H 0.37917 0.99537 0.80928 0.0
H876 H 0.49747 0.0982 0.81531 0.0
H877 H 0.49618 0.09312 0.69056 0.0
H878 H 0.39382 0.05332 0.57497 0.0
H879 H 0.36245 0.00172 0.64615 0.0
Li880 Li 0.33753 0.40263 0.28598 0.0
Li881 Li 0.31761 0.41114 0.24717 0.0
Li882 Li 0.34063 0.40354 0.21625 0.0
Li883 Li 0.35248 0.43358 0.25184 0.0
C884 C 0.30066 0.37198 0.26606 0.0
N885 N 0.26717 0.34447 0.30325 0.0
C886 C 0.29551 0.37623 0.30192 0.0
C887 C 0.2888 0.35375 0.24914 0.0
C888 C 0.27852 0.36213 0.32025 0.0
C889 C 0.27192 0.34003 0.26839 0.0
C890 C 0.33011 0.4399 0.30431 0.0
C891 C 0.32469 0.46638 0.28717 0.0
N892 N 0.32437 0.47035 0.32534 0.0
C893 C 0.32973 0.44424 0.34334 0.0
C894 C 0.32757 0.45105 0.27595 0.0
C895 C 0.32681 0.4597 0.3534 0.0
C896 C 0.34843 0.40481 0.36242 0.0
N897 N 0.33963 0.3916 0.33359 0.0
C898 C 0.33538 0.3656 0.3753 0.0
C899 C 0.33319 0.37229 0.33916 0.0
C900 C 0.34421 0.37893 0.40583 0.0
C901 C 0.35084 0.39878 0.39888 0.0
H902 H 0.35365 0.4201 0.35696 0.0
H903 H 0.32631 0.36209 0.31565 0.0
C904 C 0.284 0.40654 0.20798 0.0
N905 N 0.29246 0.40902 0.24333 0.0
C906 C 0.26577 0.40524 0.20442 0.0
C907 C 0.26531 0.40906 0.27367 0.0
C908 C 0.28342 0.41011 0.27592 0.0
C909 C 0.25626 0.40667 0.23756 0.0
H910 H 0.29148 0.40564 0.18255 0.0
H911 H 0.29027 0.41184 0.30378 0.0
C912 C 0.37067 0.40366 0.25918 0.0
N913 N 0.38837 0.38134 0.26758 0.0
C914 C 0.3905 0.41254 0.26834 0.0
C915 C 0.35983 0.38341 0.25428 0.0
C916 C 0.39919 0.40101 0.27245 0.0
C917 C 0.36905 0.37239 0.25866 0.0
C918 C 0.34622 0.43518 0.17209 0.0
C919 C 0.36617 0.44164 0.16926 0.0
C920 C 0.33666 0.43833 0.14135 0.0
C921 C 0.37624 0.45115 0.13564 0.0
C922 C 0.34725 0.44791 0.10821 0.0
N923 N 0.36665 0.45406 0.10605 0.0
C924 C 0.3312 0.38133 0.14629 0.0
C925 C 0.36492 0.39973 0.16112 0.0
C926 C 0.33537 0.3759 0.11053 0.0
N927 N 0.34595 0.39323 0.17051 0.0
C928 C 0.36973 0.39474 0.12582 0.0
C929 C 0.35491 0.38299 0.09959 0.0
H930 H 0.31625 0.37659 0.15421 0.0
H931 H 0.37645 0.40942 0.18042 0.0
C932 C 0.38732 0.46301 0.28162 0.0
N933 N 0.37293 0.45999 0.25636 0.0
C934 C 0.40357 0.48157 0.28595 0.0
C935 C 0.38974 0.49374 0.23868 0.0
C936 C 0.37367 0.47489 0.23537 0.0
C937 C 0.40505 0.49722 0.26405 0.0
H938 H 0.38627 0.45086 0.298 0.0
H939 H 0.36194 0.47212 0.21568 0.0
O940 O 0.31718 0.38552 0.24733 0.0
O941 O 0.33299 0.4248 0.29419 0.0
O942 O 0.362 0.41482 0.25535 0.0
O943 O 0.33594 0.42558 0.20446 0.0
H944 H 0.30451 0.39022 0.31556 0.0
H945 H 0.2926 0.35025 0.22137 0.0
H946 H 0.27436 0.36523 0.348 0.0
H947 H 0.26259 0.32585 0.25561 0.0
H948 H 0.32269 0.47511 0.26554 0.0
H949 H 0.33164 0.43573 0.36565 0.0
H950 H 0.32773 0.4479 0.2456 0.0
H951 H 0.32647 0.46321 0.38351 0.0
H952 H 0.33 0.35016 0.37945 0.0
H953 H 0.35807 0.40962 0.42128 0.0
H954 H 0.25933 0.40349 0.17601 0.0
H955 H 0.25835 0.40991 0.3 0.0
H956 H 0.39909 0.4282 0.27221 0.0
H957 H 0.34448 0.37625 0.24716 0.0
H958 H 0.41453 0.40769 0.27953 0.0
H959 H 0.36084 0.35671 0.25497 0.0
H960 H 0.37382 0.4393 0.19271 0.0
H961 H 0.32121 0.43339 0.14308 0.0
H962 H 0.39167 0.45619 0.13305 0.0
H963 H 0.34003 0.45044 0.08418 0.0
H964 H 0.32351 0.36693 0.09105 0.0
H965 H 0.38496 0.40033 0.11884 0.0
H966 H 0.41512 0.48352 0.30549 0.0
H967 H 0.3902 0.50544 0.22158 0.0
Li968 Li 0.90852 0.31816 0.75453 0.0
Li969 Li 0.93962 0.33779 0.78461 0.0
Li970 Li 0.92457 0.35334 0.74884 0.0
Li971 Li 0.93952 0.33616 0.71379 0.0
C972 C 0.89926 0.32838 0.82007 0.0
N973 N 0.86677 0.30877 0.86687 0.0
C974 C 0.90017 0.31898 0.85361 0.0
C975 C 0.88186 0.32789 0.81047 0.0
C976 C 0.88358 0.30914 0.87689 0.0
C977 C 0.86558 0.31785 0.83444 0.0
C978 C 0.94052 0.30467 0.76519 0.0
C979 C 0.96464 0.29469 0.759 0.0
N980 N 0.95852 0.2849 0.79313 0.0
C981 C 0.9344 0.29444 0.80011 0.0
C982 C 0.95572 0.30477 0.74436 0.0
C983 C 0.94372 0.28457 0.81379 0.0
C984 C 0.87073 0.28979 0.72791 0.0
N985 N 0.88377 0.29437 0.75723 0.0
C986 C 0.8616 0.26517 0.79113 0.0
C987 C 0.87965 0.2823 0.78819 0.0
C988 C 0.84777 0.26016 0.76151 0.0
C989 C 0.85257 0.27263 0.7294 0.0
H990 H 0.87443 0.29942 0.70329 0.0
H991 H 0.89032 0.28597 0.81076 0.0
C992 C 0.95221 0.35081 0.85997 0.0
N993 N 0.9554 0.34165 0.83 0.0
C994 C 0.96333 0.35523 0.89368 0.0
C995 C 0.98113 0.34095 0.86515 0.0
C996 C 0.9698 0.33702 0.83177 0.0
C997 C 0.97798 0.35018 0.89681 0.0
H998 H 0.94121 0.35505 0.8574 0.0
H999 H 0.97284 0.33064 0.8071 0.0
C1000 C 0.90583 0.34198 0.68186 0.0
N1001 N 0.89154 0.35972 0.63344 0.0
C1002 C 0.91612 0.35164 0.64848 0.0
C1003 C 0.8882 0.34122 0.69044 0.0
C1004 C 0.90867 0.36054 0.6244 0.0
C1005 C 0.88124 0.35033 0.66566 0.0
C1006 C 0.96823 0.37276 0.76669 0.0
C1007 C 0.9674 0.38685 0.78968 0.0
C1008 C 0.98528 0.37157 0.76607 0.0
C1009 C 0.98366 0.39953 0.81171 0.0
C1010 C 1.00122 0.3845 0.78855 0.0
N1011 N 1.00008 0.39809 0.81072 0.0
C1012 C 0.91189 0.37999 0.7719 0.0
C1013 C 0.93137 0.38845 0.71535 0.0
C1014 C 0.9112 0.39729 0.76961 0.0
N1015 N 0.92186 0.37593 0.74493 0.0
C1016 C 0.93089 0.40577 0.7117 0.0
C1017 C 0.9209 0.41055 0.73929 0.0
H1018 H 0.90491 0.37006 0.79576 0.0
H1019 H 0.93957 0.38508 0.69483 0.0
C1020 C 0.94226 0.32306 0.63915 0.0
N1021 N 0.95239 0.33646 0.66705 0.0
C1022 C 0.95061 0.32461 0.60272 0.0
C1023 C 0.97991 0.35319 0.62505 0.0
C1024 C 0.97091 0.35126 0.66081 0.0
C1025 C 0.9696 0.33998 0.59521 0.0
H1026 H 0.92744 0.31161 0.64477 0.0
H1027 H 0.97845 0.36201 0.68306 0.0
O1028 O 0.91529 0.33794 0.79668 0.0
O1029 O 0.93151 0.31428 0.75103 0.0
O1030 O 0.91305 0.33344 0.70614 0.0
O1031 O 0.95224 0.35983 0.74587 0.0
H1032 H 0.91341 0.31897 0.86128 0.0
H1033 H 0.88088 0.33506 0.78465 0.0
H1034 H 0.88404 0.30171 0.90279 0.0
H1035 H 0.85199 0.31728 0.82723 0.0
H1036 H 0.97645 0.29467 0.74325 0.0
H1037 H 0.92285 0.29441 0.81681 0.0
H1038 H 0.96059 0.31258 0.71722 0.0
H1039 H 0.93924 0.2767 0.84091 0.0
H1040 H 0.8586 0.2558 0.81609 0.0
H1041 H 0.84229 0.2693 0.70597 0.0
H1042 H 0.9607 0.3629 0.91669 0.0
H1043 H 0.99224 0.33678 0.86605 0.0
H1044 H 0.92985 0.35248 0.64147 0.0
H1045 H 0.88001 0.33375 0.71604 0.0
H1046 H 0.91653 0.36816 0.5986 0.0
H1047 H 0.86766 0.34993 0.67205 0.0
H1048 H 0.95426 0.38785 0.7909 0.0
H1049 H 0.98604 0.36047 0.74913 0.0
H1050 H 0.98319 0.41045 0.82975 0.0
H1051 H 0.01444 0.38363 0.78859 0.0
H1052 H 0.90364 0.40048 0.792 0.0
H1053 H 0.9384 0.41537 0.68758 0.0
H1054 H 0.94219 0.31412 0.58045 0.0
H1055 H 0.99445 0.36544 0.62023 0.0
H1056 H 0.04048 0.37595 0.03145 0.0
H1057 H 0.99023 0.3647 0.09953 0.0
H1058 H 0.96978 0.3542 0.04159 0.0
H1059 H 0.96634 0.34891 0.97161 0.0
H1060 H 0.01705 0.36228 0.9026 0.0
H1061 H 0.037 0.37077 0.96089 0.0
C1062 C 0.025 0.371 0.03354 0.0
C1063 C 0.01684 0.37106 0.06962 0.0
C1064 C 0.01341 0.36532 0.99998 0.0
C1065 C 0.99684 0.36487 0.07198 0.0
C1066 C 0.98515 0.35885 0.0389 0.0
C1067 C 0.9818 0.35386 0.96914 0.0
C1068 C 0.99009 0.35493 0.93254 0.0
C1069 C 0.99332 0.35921 0.0027 0.0
C1070 C 0.01011 0.36099 0.93028 0.0
C1071 C 0.02161 0.36602 0.96364 0.0
H1072 H 0.65343 0.98263 0.45337 0.0
H1073 H 0.60055 0.9851 0.43896 0.0
H1074 H 0.60746 0.00414 0.49831 0.0
H1075 H 0.62836 0.01998 0.55411 0.0
H1076 H 0.68054 0.01635 0.57093 0.0
H1077 H 0.67434 0.99833 0.51033 0.0
C1078 C 0.64352 0.98746 0.46322 0.0
C1079 C 0.62647 0.98241 0.442 0.0
C1080 C 0.64749 0.99826 0.49763 0.0
C1081 C 0.61363 0.9886 0.45512 0.0
C1082 C 0.61762 0.99956 0.48893 0.0
C1083 C 0.63828 0.01504 0.54492 0.0
C1084 C 0.65485 0.01947 0.56733 0.0
C1085 C 0.63443 0.00436 0.51052 0.0
C1086 C 0.66778 0.01336 0.55418 0.0
C1087 C 0.66417 0.00292 0.51962 0.0
H1088 H 0.61637 0.65527 0.02721 0.0
H1089 H 0.65291 0.6419 0.09859 0.0
H1090 H 0.66436 0.63253 0.04129 0.0
H1091 H 0.6633 0.62726 0.97101 0.0
H1092 H 0.62628 0.64008 0.8999 0.0
H1093 H 0.61574 0.65055 0.95693 0.0
C1094 C 0.62678 0.65023 0.03022 0.0
C1095 C 0.63373 0.64925 0.06713 0.0
C1096 C 0.63322 0.64476 0.99719 0.0
C1097 C 0.64747 0.643 0.07049 0.0
C1098 C 0.65394 0.63751 0.03776 0.0
C1099 C 0.65288 0.63228 0.96805 0.0
C1100 C 0.64559 0.63288 0.93126 0.0
C1101 C 0.64681 0.6382 1.001 0.0
C1102 C 0.6323 0.63969 0.92781 0.0
C1103 C 0.62617 0.64557 0.96044 0.0
H1104 H 0.02021 0.66796 0.44589 0.0
H1105 H 0.0112 0.61008 0.42698 0.0
H1106 H 0.99351 0.59909 0.48794 0.0
H1107 H 0.98079 0.60583 0.54699 0.0
H1108 H 0.98903 0.66335 0.56595 0.0
H1109 H 0.00649 0.67445 0.50439 0.0
C1110 C 0.01419 0.65289 0.4549 0.0
C1111 C 0.01724 0.63995 0.43198 0.0
C1112 C 0.00388 0.64658 0.49004 0.0
C1113 C 0.00943 0.62049 0.44433 0.0
C1114 C 0.99921 0.61414 0.47914 0.0
C1115 C 0.98655 0.62084 0.53779 0.0
C1116 C 0.98375 0.63378 0.56115 0.0
C1117 C 0.99649 0.62708 0.50238 0.0
C1118 C 0.99093 0.65308 0.54842 0.0
C1119 C 1.00096 0.65944 0.51328 0.0
H1120 H 0.35626 0.99667 0.92481 0.0
H1121 H 0.39687 0.05161 0.9779 0.0
H1122 H 0.38875 0.0363 0.04165 0.0
H1123 H 0.37059 0.00724 0.08233 0.0
H1124 H 0.3304 0.95211 0.02932 0.0
H1125 H 0.33745 0.9677 0.96584 0.0
C1126 C 0.36316 0.00534 0.95037 0.0
C1127 C 0.37724 0.02524 0.94649 0.0
C1128 C 0.35843 0.99644 0.98705 0.0
C1129 C 0.38621 0.0362 0.97994 0.0
C1130 C 0.3815 0.02748 0.01646 0.0
C1131 C 0.36343 0.99859 0.05689 0.0
C1132 C 0.35 0.9785 0.06075 0.0
C1133 C 0.36777 0.00758 0.02034 0.0
C1134 C 0.34061 0.96764 0.02742 0.0
C1135 C 0.34475 0.97651 0.99099 0.0
H1136 H 0.3561 0.35279 0.42299 0.0
H1137 H 0.33808 0.39058 0.47615 0.0
H1138 H 0.34444 0.38195 0.54012 0.0
H1139 H 0.35619 0.36458 0.58098 0.0
H1140 H 0.37478 0.32721 0.52798 0.0
H1141 H 0.36663 0.33434 0.4642 0.0
C1142 C 0.3533 0.35891 0.44859 0.0
C1143 C 0.34676 0.37243 0.4447 0.0
C1144 C 0.35706 0.35393 0.48541 0.0
C1145 C 0.34341 0.38039 0.47824 0.0
C1146 C 0.34697 0.3754 0.51488 0.0
C1147 C 0.3585 0.35803 0.55548 0.0
C1148 C 0.36614 0.34542 0.55938 0.0
C1149 C 0.35404 0.3624 0.51879 0.0
C1150 C 0.36871 0.33679 0.52599 0.0
C1151 C 0.36419 0.34097 0.48941 0.0
H1152 H 0.97913 0.64907 0.94886 0.0
H1153 H 0.99264 0.60388 0.92202 0.0
H1154 H 0.01241 0.61157 0.9805 0.0
H1155 H 0.02533 0.63056 0.03976 0.0
H1156 H 0.01101 0.675 0.06869 0.0
H1157 H 0.99254 0.66852 0.00853 0.0
C1158 C 0.98656 0.64105 0.95572 0.0
C1159 C 0.9843 0.62583 0.93129 0.0
C1160 C 0.9978 0.64544 0.98971 0.0
C1161 C 0.99391 0.61547 0.94065 0.0
C1162 C 0.00528 0.6199 0.974 0.0
C1163 C 0.01802 0.63873 0.0332 0.0
C1164 C 0.0195 0.65316 0.05902 0.0
C1165 C 0.00715 0.6347 0.99894 0.0
C1166 C 0.01031 0.66392 0.04932 0.0
C1167 C 0.99962 0.66013 0.01499 0.0
H1168 H 0.35795 0.96477 0.47063 0.0
H1169 H 0.35053 0.00764 0.40722 0.0
H1170 H 0.3575 0.02733 0.46571 0.0
H1171 H 0.3665 0.03279 0.53465 0.0
H1172 H 0.37548 0.99052 0.59671 0.0
H1173 H 0.36709 0.97027 0.53903 0.0
C1174 C 0.35802 0.9785 0.46943 0.0
C1175 C 0.35378 0.98469 0.4344 0.0
C1176 C 0.36229 0.98989 0.50304 0.0
C1177 C 0.35353 0.00236 0.43378 0.0
C1178 C 0.35765 0.01371 0.4672 0.0
C1179 C 0.36674 0.01921 0.53554 0.0
C1180 C 0.37156 0.01322 0.57022 0.0
C1181 C 0.36217 0.00769 0.50196 0.0
C1182 C 0.3715 0.9954 0.57079 0.0
C1183 C 0.36685 0.98384 0.53766 0.0
H1184 H 0.38944 0.38025 0.93657 0.0
H1185 H 0.34463 0.31965 0.94435 0.0
H1186 H 0.33375 0.32594 0.00615 0.0
H1187 H 0.33802 0.34847 0.05967 0.0
H1188 H 0.38335 0.40887 0.05148 0.0
H1189 H 0.39317 0.40273 0.98866 0.0
C1190 C 0.37738 0.36836 0.95188 0.0
C1191 C 0.36798 0.34947 0.93589 0.0
C1192 C 0.37137 0.37201 0.98757 0.0
C1193 C 0.35206 0.33437 0.95577 0.0
C1194 C 0.3459 0.33793 0.99127 0.0
C1195 C 0.34993 0.3603 0.04394 0.0
C1196 C 0.36007 0.37905 0.06053 0.0
C1197 C 0.35557 0.35667 0.00765 0.0
C1198 C 0.37553 0.39422 0.03981 0.0
C1199 C 0.3811 0.39075 0.00374 0.0
H1200 H 0.00617 0.34799 0.57502 0.0
H1201 H 0.95216 0.33954 0.52706 0.0
H1202 H 0.9669 0.34796 0.46274 0.0
H1203 H 0.99575 0.3597 0.4208 0.0
H1204 H 0.04971 0.36784 0.46834 0.0
H1205 H 0.03441 0.35745 0.53202 0.0
C1206 C 0.99763 0.34789 0.55039 0.0
C1207 C 0.97814 0.34322 0.55579 0.0
C1208 C 0.00621 0.35275 0.51346 0.0
C1209 C 0.96714 0.34292 0.5236 0.0
C1210 C 0.9756 0.34786 0.48686 0.0
C1211 C 0.0041 0.35909 0.44512 0.0
C1212 C 0.02385 0.36464 0.44 0.0
C1213 C 0.9952 0.35309 0.48156 0.0
C1214 C 0.03445 0.36353 0.47154 0.0
C1215 C 0.02574 0.35771 0.50798 0.0
H1216 H 0.63428 0.02875 0.96217 0.0
H1217 H 0.67866 0.01458 0.93169 0.0
H1218 H 0.67259 0.9962 0.99194 0.0
H1219 H 0.65409 0.98358 0.05292 0.0
H1220 H 0.60809 0.99608 0.0796 0.0
H1221 H 0.6153 0.01545 0.02102 0.0
C1222 C 0.64249 0.02144 0.96827 0.0
C1223 C 0.65683 0.02301 0.94209 0.0
C1224 C 0.63863 0.01056 0.00244 0.0
C1225 C 0.66766 0.01385 0.95135 0.0
C1226 C 0.66409 0.00318 0.98571 0.0
C1227 C 0.64554 0.9904 0.04578 0.0
C1228 C 0.63072 0.98851 0.07114 0.0
C1229 C 0.64951 1.00133 0.0114 0.0
C1230 C 0.61991 0.99763 0.06136 0.0
C1231 C 0.62391 0.00862 0.02761 0.0
H1232 H 0.62575 0.66443 0.47043 0.0
H1233 H 0.65239 0.63867 0.40148 0.0
H1234 H 0.66361 0.62991 0.46005 0.0
H1235 H 0.66404 0.62772 0.53098 0.0
H1236 H 0.63607 0.65209 0.60003 0.0
H1237 H 0.62725 0.66332 0.54153 0.0
C1238 C 0.63428 0.65717 0.46832 0.0
C1239 C 0.63825 0.6522 0.43177 0.0
C1240 C 0.64031 0.65181 0.50216 0.0
C1241 C 0.64906 0.64254 0.42937 0.0
C1242 C 0.65548 0.63754 0.46281 0.0
C1243 C 0.65628 0.63575 0.53318 0.0
C1244 C 0.6507 0.63907 0.56973 0.0
C1245 C 0.65094 0.64183 0.49939 0.0
C1246 C 0.64039 0.64924 0.57217 0.0
C1247 C 0.63537 0.65568 0.53875 0.0
H1248 H 0.1029 0.57943 0.29926 0.0
H1249 H 0.08838 0.57518 0.17792 0.0
H1250 H 0.08861 0.54457 0.17347 0.0
H1251 H 0.09106 0.51799 0.20465 0.0
H1252 H 0.10404 0.52132 0.32648 0.0
H1253 H 0.10583 0.55305 0.33027 0.0
C1254 C 0.09968 0.57178 0.27186 0.0
C1255 C 0.09565 0.57971 0.23901 0.0
C1256 C 0.09938 0.55389 0.26964 0.0
C1257 C 0.09185 0.56968 0.2036 0.0
C1258 C 0.0918 0.55204 0.20106 0.0
C1259 C 0.09453 0.52579 0.23191 0.0
C1260 C 0.09741 0.51732 0.26522 0.0
C1261 C 0.09535 0.54391 0.23395 0.0
C1262 C 0.10159 0.52746 0.30049 0.0
C1263 C 0.10268 0.54562 0.30265 0.0
H1264 H 0.51297 0.07682 0.70837 0.0
H1265 H 0.53092 0.11962 0.79962 0.0
H1266 H 0.56243 0.12104 0.80347 0.0
H1267 H 0.58447 0.10923 0.78242 0.0
H1268 H 0.56683 0.06769 0.68886 0.0
H1269 H 0.53571 0.0669 0.68424 0.0
C1270 C 0.52387 0.08678 0.72863 0.0
C1271 C 0.51945 0.09804 0.75373 0.0
C1272 C 0.54202 0.08769 0.73044 0.0
C1273 C 0.53372 0.11052 0.78033 0.0
C1274 C 0.55182 0.11144 0.78242 0.0
C1275 C 0.57395 0.10023 0.76063 0.0
C1276 C 0.57795 0.08836 0.73637 0.0
C1277 C 0.55607 0.09995 0.75784 0.0
C1278 C 0.56401 0.07665 0.70853 0.0
C1279 C 0.54623 0.07626 0.70567 0.0
H1280 H 0.48344 0.57497 0.30175 0.0
H1281 H 0.4835 0.58098 0.17768 0.0
H1282 H 0.45196 0.55091 0.17368 0.0
H1283 H 0.42516 0.52207 0.20512 0.0
H1284 H 0.42499 0.51628 0.32924 0.0
H1285 H 0.4557 0.54721 0.33351 0.0
C1286 C 0.47641 0.56989 0.27388 0.0
C1287 C 0.4859 0.58018 0.24006 0.0
C1288 C 0.45829 0.55258 0.27177 0.0
C1289 C 0.47668 0.5732 0.20413 0.0
C1290 C 0.4586 0.55605 0.20182 0.0
C1291 C 0.43166 0.52773 0.23316 0.0
C1292 C 0.42282 0.51682 0.26678 0.0
C1293 C 0.44938 0.54549 0.23541 0.0
C1294 C 0.43162 0.52425 0.30285 0.0
C1295 C 0.44915 0.54197 0.30534 0.0
H1296 H 0.9366 0.49693 0.72378 0.0
H1297 H 0.87723 0.46944 0.76499 0.0
H1298 H 0.87576 0.43779 0.76664 0.0
H1299 H 0.89144 0.41799 0.75641 0.0
H1300 H 0.9514 0.4461 0.71788 0.0
H1301 H 0.95234 0.47729 0.71427 0.0
C1302 C 0.92327 0.48397 0.73271 0.0
C1303 C 0.90702 0.4855 0.74406 0.0
C1304 C 0.9226 0.4659 0.73392 0.0
C1305 C 0.88997 0.46864 0.7563 0.0
C1306 C 0.88911 0.45055 0.75715 0.0
C1307 C 0.90478 0.43095 0.74754 0.0
C1308 C 0.92127 0.42956 0.73719 0.0
C1309 C 0.90538 0.44902 0.74619 0.0
C1310 C 0.93833 0.44655 0.72527 0.0
C1311 C 0.93896 0.46448 0.72348 0.0
H1312 H 0.4347 0.91699 0.29808 0.0
H1313 H 0.41811 0.8934 0.1828 0.0
H1314 H 0.448 0.89179 0.17714 0.0
H1315 H 0.47918 0.89744 0.20464 0.0
H1316 H 0.49469 0.91936 0.32104 0.0
H1317 H 0.46459 0.92067 0.32692 0.0
C1318 C 0.43735 0.91113 0.27192 0.0
C1319 C 0.42408 0.90543 0.24087 0.0
C1320 C 0.45438 0.90985 0.2691 0.0
C1321 C 0.42815 0.89827 0.20696 0.0
C1322 C 0.44521 0.8972 0.20376 0.0
C1323 C 0.4759 0.90245 0.23128 0.0
C1324 C 0.48911 0.9083 0.26235 0.0
C1325 C 0.4585 0.90307 0.23454 0.0
C1326 C 0.48464 0.9146 0.29686 0.0
C1327 C 0.4675 0.91546 0.30016 0.0
H1328 H 0.56069 0.49553 0.72103 0.0
H1329 H 0.59304 0.47164 0.77662 0.0
H1330 H 0.56357 0.43958 0.77935 0.0
H1331 H 0.5285 0.41823 0.76586 0.0
H1332 H 0.49662 0.44216 0.70872 0.0
H1333 H 0.52615 0.47414 0.70572 0.0
C1334 C 0.56144 0.48328 0.7332 0.0
C1335 C 0.57914 0.4861 0.7486 0.0
C1336 C 0.5445 0.46482 0.73425 0.0
C1337 C 0.5796 0.47004 0.76502 0.0
C1338 C 0.56276 0.45164 0.7664 0.0
C1339 C 0.52804 0.43048 0.75287 0.0
C1340 C 0.51039 0.4278 0.73748 0.0
C1341 C 0.5451 0.44887 0.75123 0.0
C1342 C 0.51006 0.44375 0.72034 0.0
C1343 C 0.52692 0.46208 0.71882 0.0
H1344 H 0.17018 0.39054 0.21303 0.0
H1345 H 0.19148 0.44021 0.28944 0.0
H1346 H 0.2232 0.44223 0.29239 0.0
H1347 H 0.24506 0.43006 0.2733 0.0
H1348 H 0.22436 0.38115 0.19533 0.0
H1349 H 0.19245 0.37905 0.19212 0.0
C1350 C 0.1818 0.40196 0.22997 0.0
C1351 C 0.17827 0.41508 0.25123 0.0
C1352 C 0.2002 0.40326 0.23111 0.0
C1353 C 0.19354 0.42962 0.27341 0.0
C1354 C 0.21179 0.43091 0.2749 0.0
C1355 C 0.23352 0.41887 0.25576 0.0
C1356 C 0.23705 0.40572 0.23473 0.0
C1357 C 0.21526 0.41777 0.25402 0.0
C1358 C 0.22207 0.39154 0.21158 0.0
C1359 C 0.20379 0.39026 0.20989 0.0
H1360 H 0.82928 0.23277 0.70567 0.0
H1361 H 0.82317 0.2467 0.82351 0.0
H1362 H 0.79166 0.21656 0.82853 0.0
H1363 H 0.76574 0.18639 0.79925 0.0
H1364 H 0.77261 0.17181 0.68217 0.0
H1365 H 0.80366 0.2022 0.67686 0.0
C1366 C 0.82096 0.22925 0.73233 0.0
C1367 C 0.82852 0.24196 0.76414 0.0
C1368 C 0.80294 0.21182 0.73512 0.0
C1369 C 0.81773 0.23708 0.79871 0.0
C1370 C 0.79969 0.21989 0.80156 0.0
C1371 C 0.7741 0.18971 0.77269 0.0
C1372 C 0.76667 0.17677 0.74112 0.0
C1373 C 0.79217 0.20711 0.76998 0.0
C1374 C 0.77768 0.18159 0.70675 0.0
C1375 C 0.79556 0.19893 0.70373 0.0
H1376 H 0.61665 0.78004 0.27745 0.0
H1377 H 0.56202 0.74906 0.21623 0.0
H1378 H 0.55969 0.77873 0.21352 0.0
H1379 H 0.57308 0.81337 0.2289 0.0
H1380 H 0.62891 0.84497 0.28632 0.0
H1381 H 0.63066 0.81515 0.29077 0.0
C1382 C 0.60421 0.77982 0.26375 0.0
C1383 C 0.5895 0.76243 0.24717 0.0
C1384 C 0.60314 0.79702 0.26172 0.0
C1385 C 0.57356 0.76234 0.22902 0.0
C1386 C 0.57221 0.77927 0.22753 0.0
C1387 C 0.58579 0.81388 0.24191 0.0
C1388 C 0.60076 0.83151 0.25743 0.0
C1389 C 0.58695 0.79673 0.24365 0.0
C1390 C 0.61693 0.83162 0.27478 0.0
C1391 C 0.61804 0.81456 0.27712 0.0
H1392 H 0.81842 0.58274 0.79054 0.0
H1393 H 0.8368 0.61198 0.68015 0.0
H1394 H 0.80657 0.61296 0.67526 0.0
H1395 H 0.77487 0.60575 0.70243 0.0
H1396 H 0.75731 0.57817 0.81423 0.0
H1397 H 0.78739 0.57666 0.81878 0.0
C1398 C 0.81599 0.58957 0.76562 0.0
C1399 C 0.82993 0.59713 0.73567 0.0
C1400 C 0.79868 0.59043 0.76325 0.0
C1401 C 0.82624 0.60566 0.70335 0.0
C1402 C 0.80898 0.60637 0.70061 0.0
C1403 C 0.77763 0.59935 0.72767 0.0
C1404 C 0.76391 0.59205 0.7579 0.0
C1405 C 0.79506 0.59874 0.73029 0.0
C1406 C 0.76774 0.584 0.7907 0.0
C1407 C 0.7849 0.58309 0.79326 0.0
H1408 H 0.22067 0.83598 0.22941 0.0
H1409 H 0.25336 0.81055 0.27655 0.0
H1410 H 0.2239 0.77836 0.27731 0.0
H1411 H 0.18902 0.75752 0.26444 0.0
H1412 H 0.15559 0.78323 0.22193 0.0
H1413 H 0.18522 0.81506 0.21857 0.0
C1414 C 0.22129 0.82334 0.23967 0.0
C1415 C 0.23912 0.82558 0.25288 0.0
C1416 C 0.20421 0.80492 0.24064 0.0
C1417 C 0.23975 0.80917 0.26651 0.0
C1418 C 0.22294 0.79077 0.26683 0.0
C1419 C 0.18805 0.77007 0.25497 0.0
C1420 C 0.16993 0.76778 0.24345 0.0
C1421 C 0.20507 0.78849 0.25412 0.0
C1422 C 0.16928 0.78432 0.23038 0.0
C1423 C 0.18623 0.80264 0.22874 0.0
H1424 H 0.39408 0.2241 0.70784 0.0
H1425 H 0.43376 0.24829 0.80425 0.0
H1426 H 0.43569 0.21852 0.80897 0.0
H1427 H 0.42639 0.18575 0.78551 0.0
H1428 H 0.38667 0.16141 0.68922 0.0
H1429 H 0.38493 0.19131 0.68404 0.0
C1430 C 0.4033 0.22294 0.72966 0.0
C1431 C 0.4137 0.23843 0.75573 0.0
C1432 C 0.40444 0.20579 0.73211 0.0
C1433 C 0.42535 0.23652 0.78417 0.0
C1434 C 0.42657 0.21953 0.78676 0.0
C1435 C 0.4172 0.18689 0.76359 0.0
C1436 C 0.40665 0.17129 0.73785 0.0
C1437 C 0.41614 0.20406 0.76095 0.0
C1438 C 0.39513 0.17324 0.70915 0.0
C1439 C 0.39402 0.1903 0.70631 0.0
loop_
_geom_bond_atom_site_label_1
_geom_bond_atom_site_label_2
_geom_bond_distance
_geom_bond_site_symmetry_2
_ccdc_geom_bond_type
Li0 N17 1.990 . S
Li0 O60 1.956 . S
Li0 O61 1.970 . S
Li0 O62 1.961 . S
Li1 N25 1.990 . S
Li1 O60 1.970 . S
Li1 O61 1.956 . S
Li1 O63 1.961 . S
Li2 N47 1.990 . S
Li2 O60 1.961 . S
Li2 O62 1.956 . S
Li2 O63 1.970 . S
Li3 N53 1.990 . S
Li3 O61 1.961 . S
Li3 O62 1.970 . S
Li3 O63 1.956 . S
C4 C6 1.348 . S
C4 C7 1.356 . S
C4 O60 1.325 . S
N5 C8 1.314 . S
N5 C9 1.279 . S
C6 C4 1.348 . S
C6 C8 1.353 . S
C6 H64 0.929 . S
C7 C4 1.356 . S
C7 C9 1.358 . S
C7 H65 0.930 . S
C8 N5 1.314 . S
C8 C6 1.353 . S
C8 H66 0.930 . S
C9 N5 1.279 . S
C9 C7 1.358 . S
C9 H67 0.930 . S
C10 C13 1.348 . S
C10 C14 1.356 . S
C10 O61 1.325 . S
C11 N12 1.279 . S
C11 C14 1.358 . S
C11 H68 0.930 1_455 S
N12 C11 1.279 . S
N12 C15 1.314 . S
C13 C10 1.348 . S
C13 C15 1.353 . S
C13 H69 0.929 . S
C14 C10 1.356 . S
C14 C11 1.358 . S
C14 H70 0.930 . S
C15 N12 1.314 . S
C15 C13 1.353 . S
C15 H71 0.930 . S
C16 N17 1.314 . S
C16 C21 1.353 . S
C16 H22 0.930 . S
N17 Li0 1.990 . S
N17 C16 1.314 . S
N17 C19 1.279 . S
C18 C19 1.358 . S
C18 C20 1.356 . S
C18 H72 0.930 . S
C19 N17 1.279 . S
C19 C18 1.358 . S
C19 H23 0.930 . S
C20 C18 1.356 . S
C20 C21 1.348 . S
C21 C16 1.353 . S
C21 C20 1.348 . S
C21 H73 0.929 . S
H22 C16 0.930 . S
H23 C19 0.930 . S
C24 N25 1.314 . S
C24 C26 1.353 . S
C24 H30 0.930 . S
N25 Li1 1.990 . S
N25 C24 1.314 . S
N25 C28 1.279 . S
C26 C24 1.353 . S
C26 C29 1.348 . S
C26 H74 0.929 . S
C27 C28 1.358 . S
C27 C29 1.356 . S
C27 H75 0.930 . S
C28 N25 1.279 . S
C28 C27 1.358 . S
C28 H31 0.930 . S
C29 C26 1.348 . S
C29 C27 1.356 . S
H30 C24 0.930 . S
H31 C28 0.930 . S
C32 C34 1.348 . S
C32 C35 1.356 . S
C32 O62 1.325 . S
N33 C36 1.314 . S
N33 C37 1.279 . S
C34 C32 1.348 . S
C34 C36 1.353 . S
C34 H76 0.929 . S
C35 C32 1.356 . S
C35 C37 1.358 . S
C35 H77 0.930 . S
C36 N33 1.314 . S
C36 C34 1.353 . S
C36 H78 0.930 . S
C37 N33 1.279 . S
C37 C35 1.358 . S
C37 H79 0.930 . S
C38 C39 1.348 . S
C38 C40 1.356 . S
C38 O63 1.325 . S
C39 C38 1.348 . S
C39 C41 1.353 . S
C39 H80 0.929 . S
C40 C38 1.356 . S
C40 C42 1.358 . S
C40 H81 0.930 . S
C41 C39 1.353 . S
C41 N43 1.314 . S
C41 H82 0.930 . S
C42 C40 1.358 . S
C42 N43 1.279 . S
C42 H83 0.930 . S
N43 C41 1.314 . S
N43 C42 1.279 . S
C44 C46 1.353 . S
C44 N47 1.314 . S
C44 H50 0.930 . S
C45 N47 1.279 . S
C45 C48 1.358 . S
C45 H51 0.930 . S
C46 C44 1.353 . S
C46 C49 1.348 . S
C46 H84 0.929 . S
N47 Li2 1.990 . S
N47 C44 1.314 . S
N47 C45 1.279 . S
C48 C45 1.358 . S
C48 C49 1.356 . S
C48 H85 0.930 . S
C49 C46 1.348 . S
C49 C48 1.356 . S
H50 C44 0.930 . S
H51 C45 0.930 . S
C52 N53 1.314 . S
C52 C54 1.353 . S
C52 H58 0.930 . S
N53 Li3 1.990 . S
N53 C52 1.314 . S
N53 C56 1.279 . S
C54 C52 1.353 . S
C54 C57 1.348 . S
C54 H86 0.929 . S
C55 C56 1.358 . S
C55 C57 1.356 . S
C55 H87 0.930 . S
C56 N53 1.279 . S
C56 C55 1.358 . S
C56 H59 0.930 . S
C57 C54 1.348 . S
C57 C55 1.356 . S
H58 C52 0.930 . S
H59 C56 0.930 . S
O60 Li0 1.956 . S
O60 Li1 1.970 . S
O60 Li2 1.961 . S
O60 C4 1.325 . S
O61 Li0 1.970 . S
O61 Li1 1.956 . S
O61 Li3 1.961 . S
O61 C10 1.325 . S
O62 Li0 1.961 . S
O62 Li2 1.956 . S
O62 Li3 1.970 . S
O62 C32 1.325 . S
O63 Li1 1.961 . S
O63 Li2 1.970 . S
O63 Li3 1.956 . S
O63 C38 1.325 . S
H64 C6 0.929 . S
H65 C7 0.930 . S
H66 C8 0.930 . S
H67 C9 0.930 . S
H68 C11 0.930 1_655 S
H69 C13 0.929 . S
H70 C14 0.930 . S
H71 C15 0.930 . S
H72 C18 0.930 . S
H73 C21 0.929 . S
H74 C26 0.929 . S
H75 C27 0.930 . S
H76 C34 0.929 . S
H77 C35 0.930 . S
H78 C36 0.930 . S
H79 C37 0.930 . S
H80 C39 0.929 . S
H81 C40 0.930 . S
H82 C41 0.930 . S
H83 C42 0.930 . S
H84 C46 0.929 . S
H85 C48 0.930 . S
H86 C54 0.929 . S
H87 C55 0.930 . S
Li88 N105 1.990 . S
Li88 O148 1.956 . S
Li88 O149 1.970 . S
Li88 O150 1.961 . S
Li89 N113 1.990 . S
Li89 O148 1.970 . S
Li89 O149 1.956 . S
Li89 O151 1.961 . S
Li90 N135 1.990 . S
Li90 O148 1.961 . S
Li90 O150 1.956 . S
Li90 O151 1.970 . S
Li91 N141 1.990 . S
Li91 O149 1.961 . S
Li91 O150 1.970 . S
Li91 O151 1.956 . S
C92 C94 1.348 . S
C92 C95 1.356 . S
C92 O148 1.325 . S
N93 C96 1.314 . S
N93 C97 1.279 . S
C94 C92 1.348 . S
C94 C96 1.353 . S
C94 H152 0.929 . S
C95 C92 1.356 . S
C95 C97 1.358 . S
C95 H153 0.930 . S
C96 N93 1.314 . S
C96 C94 1.353 . S
C96 H154 0.930 . S
C97 N93 1.279 . S
C97 C95 1.358 . S
C97 H155 0.930 . S
C98 C101 1.348 . S
C98 C102 1.356 . S
C98 O149 1.325 . S
C99 N100 1.279 . S
C99 C102 1.358 . S
C99 H156 0.930 1_545 S
N100 C99 1.279 . S
N100 C103 1.314 . S
C101 C98 1.348 . S
C101 C103 1.353 . S
C101 H157 0.929 . S
C102 C98 1.356 . S
C102 C99 1.358 . S
C102 H158 0.930 . S
C103 N100 1.314 . S
C103 C101 1.353 . S
C103 H159 0.930 . S
C104 N105 1.314 . S
C104 C109 1.353 . S
C104 H110 0.930 . S
N105 Li88 1.990 . S
N105 C104 1.314 . S
N105 C107 1.279 . S
C106 C107 1.358 . S
C106 C108 1.356 . S
C106 H160 0.930 . S
C107 N105 1.279 . S
C107 C106 1.358 . S
C107 H111 0.930 . S
C108 C106 1.356 . S
C108 C109 1.348 . S
C109 C104 1.353 . S
C109 C108 1.348 . S
C109 H161 0.929 . S
H110 C104 0.930 . S
H111 C107 0.930 . S
C112 N113 1.314 . S
C112 C114 1.353 . S
C112 H118 0.930 . S
N113 Li89 1.990 . S
N113 C112 1.314 . S
N113 C116 1.279 . S
C114 C112 1.353 . S
C114 C117 1.348 . S
C114 H162 0.929 . S
C115 C116 1.358 . S
C115 C117 1.356 . S
C115 H163 0.930 . S
C116 N113 1.279 . S
C116 C115 1.358 . S
C116 H119 0.930 . S
C117 C114 1.348 . S
C117 C115 1.356 . S
H118 C112 0.930 . S
H119 C116 0.930 . S
C120 C122 1.348 . S
C120 C123 1.356 . S
C120 O150 1.325 . S
N121 C124 1.314 . S
N121 C125 1.279 . S
C122 C120 1.348 . S
C122 C124 1.353 . S
C122 H164 0.929 . S
C123 C120 1.356 . S
C123 C125 1.358 . S
C123 H165 0.930 . S
C124 N121 1.314 . S
C124 C122 1.353 . S
C124 H166 0.930 . S
C125 N121 1.279 . S
C125 C123 1.358 . S
C125 H167 0.930 . S
C126 C127 1.348 . S
C126 C128 1.356 . S
C126 O151 1.325 . S
C127 C126 1.348 . S
C127 C129 1.353 . S
C127 H168 0.929 . S
C128 C126 1.356 . S
C128 C130 1.358 . S
C128 H169 0.930 . S
C129 C127 1.353 . S
C129 N131 1.314 . S
C129 H170 0.930 . S
C130 C128 1.358 . S
C130 N131 1.279 . S
C130 H171 0.930 . S
N131 C129 1.314 . S
N131 C130 1.279 . S
C132 C134 1.353 . S
C132 N135 1.314 . S
C132 H138 0.930 . S
C133 N135 1.279 . S
C133 C136 1.358 . S
C133 H139 0.930 . S
C134 C132 1.353 . S
C134 C137 1.348 . S
C134 H172 0.929 . S
N135 Li90 1.990 . S
N135 C132 1.314 . S
N135 C133 1.279 . S
C136 C133 1.358 . S
C136 C137 1.356 . S
C136 H173 0.930 . S
C137 C134 1.348 . S
C137 C136 1.356 . S
H138 C132 0.930 . S
H139 C133 0.930 . S
C140 N141 1.314 . S
C140 C142 1.353 . S
C140 H146 0.930 . S
N141 Li91 1.990 . S
N141 C140 1.314 . S
N141 C144 1.279 . S
C142 C140 1.353 . S
C142 C145 1.348 . S
C142 H174 0.929 . S
C143 C144 1.358 . S
C143 C145 1.356 . S
C143 H175 0.930 . S
C144 N141 1.279 . S
C144 C143 1.358 . S
C144 H147 0.930 . S
C145 C142 1.348 . S
C145 C143 1.356 . S
H146 C140 0.930 . S
H147 C144 0.930 . S
O148 Li88 1.956 . S
O148 Li89 1.970 . S
O148 Li90 1.961 . S
O148 C92 1.325 . S
O149 Li88 1.970 . S
O149 Li89 1.956 . S
O149 Li91 1.961 . S
O149 C98 1.325 . S
O150 Li88 1.961 . S
O150 Li90 1.956 . S
O150 Li91 1.970 . S
O150 C120 1.325 . S
O151 Li89 1.961 . S
O151 Li90 1.970 . S
O151 Li91 1.956 . S
O151 C126 1.325 . S
H152 C94 0.929 . S
H153 C95 0.930 . S
H154 C96 0.930 . S
H155 C97 0.930 . S
H156 C99 0.930 1_565 S
H157 C101 0.929 . S
H158 C102 0.930 . S
H159 C103 0.930 . S
H160 C106 0.930 . S
H161 C109 0.929 . S
H162 C114 0.929 . S
H163 C115 0.930 . S
H164 C122 0.929 . S
H165 C123 0.930 . S
H166 C124 0.930 . S
H167 C125 0.930 . S
H168 C127 0.929 . S
H169 C128 0.930 . S
H170 C129 0.930 . S
H171 C130 0.930 . S
H172 C134 0.929 . S
H173 C136 0.930 . S
H174 C142 0.929 . S
H175 C143 0.930 . S
Li176 N193 1.990 . S
Li176 O236 1.956 . S
Li176 O237 1.970 . S
Li176 O238 1.961 . S
Li177 N201 1.990 . S
Li177 O236 1.970 . S
Li177 O237 1.956 . S
Li177 O239 1.961 . S
Li178 N223 1.990 . S
Li178 O236 1.961 . S
Li178 O238 1.956 . S
Li178 O239 1.970 . S
Li179 N229 1.990 . S
Li179 O237 1.961 . S
Li179 O238 1.970 . S
Li179 O239 1.956 . S
C180 C182 1.348 . S
C180 C183 1.356 . S
C180 O236 1.325 . S
N181 C184 1.314 . S
N181 C185 1.279 . S
C182 C180 1.348 . S
C182 C184 1.353 . S
C182 H240 0.929 . S
C183 C180 1.356 . S
C183 C185 1.358 . S
C183 H241 0.930 . S
C184 N181 1.314 . S
C184 C182 1.353 . S
C184 H242 0.930 . S
C185 N181 1.279 . S
C185 C183 1.358 . S
C185 H243 0.930 . S
C186 C189 1.348 . S
C186 C190 1.356 . S
C186 O237 1.325 . S
C187 N188 1.279 . S
C187 C190 1.358 . S
C187 H244 0.930 . S
N188 C187 1.279 . S
N188 C191 1.314 . S
C189 C186 1.348 . S
C189 C191 1.353 . S
C189 H245 0.929 . S
C190 C186 1.356 . S
C190 C187 1.358 . S
C190 H246 0.930 . S
C191 N188 1.314 . S
C191 C189 1.353 . S
C191 H247 0.930 . S
C192 N193 1.314 . S
C192 C197 1.353 . S
C192 H198 0.930 . S
N193 Li176 1.990 . S
N193 C192 1.314 . S
N193 C195 1.279 . S
C194 C195 1.358 . S
C194 C196 1.356 . S
C194 H248 0.930 . S
C195 N193 1.279 . S
C195 C194 1.358 . S
C195 H199 0.930 . S
C196 C194 1.356 . S
C196 C197 1.348 . S
C197 C192 1.353 . S
C197 C196 1.348 . S
C197 H249 0.929 . S
H198 C192 0.930 . S
H199 C195 0.930 . S
C200 N201 1.314 . S
C200 C202 1.353 . S
C200 H206 0.930 . S
N201 Li177 1.990 . S
N201 C200 1.314 . S
N201 C204 1.279 . S
C202 C200 1.353 . S
C202 C205 1.348 . S
C202 H250 0.929 . S
C203 C204 1.358 . S
C203 C205 1.356 . S
C203 H251 0.930 . S
C204 N201 1.279 . S
C204 C203 1.358 . S
C204 H207 0.930 . S
C205 C202 1.348 . S
C205 C203 1.356 . S
H206 C200 0.930 . S
H207 C204 0.930 . S
C208 C210 1.348 . S
C208 C211 1.356 . S
C208 O238 1.325 . S
N209 C212 1.314 . S
N209 C213 1.279 . S
C210 C208 1.348 . S
C210 C212 1.353 . S
C210 H252 0.929 . S
C211 C208 1.356 . S
C211 C213 1.358 . S
C211 H253 0.930 . S
C212 N209 1.314 . S
C212 C210 1.353 . S
C212 H254 0.930 . S
C213 N209 1.279 . S
C213 C211 1.358 . S
C213 H255 0.930 . S
C214 C215 1.348 . S
C214 C216 1.356 . S
C214 O239 1.325 . S
C215 C214 1.348 . S
C215 C217 1.353 . S
C215 H256 0.929 . S
C216 C214 1.356 . S
C216 C218 1.358 . S
C216 H257 0.930 . S
C217 C215 1.353 . S
C217 N219 1.314 . S
C217 H258 0.930 . S
C218 C216 1.358 . S
C218 N219 1.279 . S
C218 H259 0.930 . S
N219 C217 1.314 . S
N219 C218 1.279 . S
C220 C222 1.353 . S
C220 N223 1.314 . S
C220 H226 0.930 . S
C221 N223 1.279 . S
C221 C224 1.358 . S
C221 H227 0.930 . S
C222 C220 1.353 . S
C222 C225 1.348 . S
C222 H260 0.929 . S
N223 Li178 1.990 . S
N223 C220 1.314 . S
N223 C221 1.279 . S
C224 C221 1.358 . S
C224 C225 1.356 . S
C224 H261 0.930 . S
C225 C222 1.348 . S
C225 C224 1.356 . S
H226 C220 0.930 . S
H227 C221 0.930 . S
C228 N229 1.314 . S
C228 C230 1.353 . S
C228 H234 0.930 . S
N229 Li179 1.990 . S
N229 C228 1.314 . S
N229 C232 1.279 . S
C230 C228 1.353 . S
C230 C233 1.348 . S
C230 H262 0.929 . S
C231 C232 1.358 . S
C231 C233 1.356 . S
C231 H263 0.930 . S
C232 N229 1.279 . S
C232 C231 1.358 . S
C232 H235 0.930 . S
C233 C230 1.348 . S
C233 C231 1.356 . S
H234 C228 0.930 . S
H235 C232 0.930 . S
O236 Li176 1.956 . S
O236 Li177 1.970 . S
O236 Li178 1.961 . S
O236 C180 1.325 . S
O237 Li176 1.970 . S
O237 Li177 1.956 . S
O237 Li179 1.961 . S
O237 C186 1.325 . S
O238 Li176 1.961 . S
O238 Li178 1.956 . S
O238 Li179 1.970 . S
O238 C208 1.325 . S
O239 Li177 1.961 . S
O239 Li178 1.970 . S
O239 Li179 1.956 . S
O239 C214 1.325 . S
H240 C182 0.929 . S
H241 C183 0.930 . S
H242 C184 0.930 . S
H243 C185 0.930 . S
H244 C187 0.930 . S
H245 C189 0.929 . S
H246 C190 0.930 . S
H247 C191 0.930 . S
H248 C194 0.930 . S
H249 C197 0.929 . S
H250 C202 0.929 . S
H251 C203 0.930 . S
H252 C210 0.929 . S
H253 C211 0.930 . S
H254 C212 0.930 . S
H255 C213 0.930 . S
H256 C215 0.929 . S
H257 C216 0.930 . S
H258 C217 0.930 . S
H259 C218 0.930 . S
H260 C222 0.929 . S
H261 C224 0.930 . S
H262 C230 0.929 . S
H263 C231 0.930 . S
Li264 N281 1.990 . S
Li264 O324 1.956 . S
Li264 O325 1.970 . S
Li264 O326 1.961 . S
Li265 N289 1.990 . S
Li265 O324 1.970 . S
Li265 O325 1.956 . S
Li265 O327 1.961 . S
Li266 N311 1.990 . S
Li266 O324 1.961 . S
Li266 O326 1.956 . S
Li266 O327 1.970 . S
Li267 N317 1.990 . S
Li267 O325 1.961 . S
Li267 O326 1.970 . S
Li267 O327 1.956 . S
C268 C270 1.348 . S
C268 C271 1.356 . S
C268 O324 1.325 . S
N269 C272 1.314 . S
N269 C273 1.279 . S
C270 C268 1.348 . S
C270 C272 1.353 . S
C270 H328 0.929 . S
C271 C268 1.356 . S
C271 C273 1.358 . S
C271 H329 0.930 . S
C272 N269 1.314 . S
C272 C270 1.353 . S
C272 H330 0.930 . S
C273 N269 1.279 . S
C273 C271 1.358 . S
C273 H331 0.930 . S
C274 C277 1.348 . S
C274 C278 1.356 . S
C274 O325 1.325 . S
C275 N276 1.279 . S
C275 C278 1.358 . S
C275 H332 0.930 1_655 S
N276 C275 1.279 . S
N276 C279 1.314 . S
C277 C274 1.348 . S
C277 C279 1.353 . S
C277 H333 0.929 . S
C278 C274 1.356 . S
C278 C275 1.358 . S
C278 H334 0.930 . S
C279 N276 1.314 . S
C279 C277 1.353 . S
C279 H335 0.930 . S
C280 N281 1.314 . S
C280 C285 1.353 . S
C280 H286 0.930 . S
N281 Li264 1.990 . S
N281 C280 1.314 . S
N281 C283 1.279 . S
C282 C283 1.358 . S
C282 C284 1.356 . S
C282 H336 0.930 . S
C283 N281 1.279 . S
C283 C282 1.358 . S
C283 H287 0.930 . S
C284 C282 1.356 . S
C284 C285 1.348 . S
C285 C280 1.353 . S
C285 C284 1.348 . S
C285 H337 0.929 . S
H286 C280 0.930 . S
H287 C283 0.930 . S
C288 N289 1.314 . S
C288 C290 1.353 . S
C288 H294 0.930 . S
N289 Li265 1.990 . S
N289 C288 1.314 . S
N289 C292 1.279 . S
C290 C288 1.353 . S
C290 C293 1.348 . S
C290 H338 0.929 . S
C291 C292 1.358 . S
C291 C293 1.356 . S
C291 H339 0.930 . S
C292 N289 1.279 . S
C292 C291 1.358 . S
C292 H295 0.930 . S
C293 C290 1.348 . S
C293 C291 1.356 . S
H294 C288 0.930 . S
H295 C292 0.930 . S
C296 C298 1.348 . S
C296 C299 1.356 . S
C296 O326 1.325 . S
N297 C300 1.314 . S
N297 C301 1.279 . S
C298 C296 1.348 . S
C298 C300 1.353 . S
C298 H340 0.929 . S
C299 C296 1.356 . S
C299 C301 1.358 . S
C299 H341 0.930 . S
C300 N297 1.314 . S
C300 C298 1.353 . S
C300 H342 0.930 . S
C301 N297 1.279 . S
C301 C299 1.358 . S
C301 H343 0.930 . S
C302 C303 1.348 . S
C302 C304 1.356 . S
C302 O327 1.325 . S
C303 C302 1.348 . S
C303 C305 1.353 . S
C303 H344 0.929 . S
C304 C302 1.356 . S
C304 C306 1.358 . S
C304 H345 0.930 . S
C305 C303 1.353 . S
C305 N307 1.314 . S
C305 H346 0.930 . S
C306 C304 1.358 . S
C306 N307 1.279 . S
C306 H347 0.930 . S
N307 C305 1.314 . S
N307 C306 1.279 . S
C308 C310 1.353 . S
C308 N311 1.314 . S
C308 H314 0.930 . S
C309 N311 1.279 . S
C309 C312 1.358 . S
C309 H315 0.930 . S
C310 C308 1.353 . S
C310 C313 1.348 . S
C310 H348 0.929 . S
N311 Li266 1.990 . S
N311 C308 1.314 . S
N311 C309 1.279 . S
C312 C309 1.358 . S
C312 C313 1.356 . S
C312 H349 0.930 . S
C313 C310 1.348 . S
C313 C312 1.356 . S
H314 C308 0.930 . S
H315 C309 0.930 . S
C316 N317 1.314 . S
C316 C318 1.353 . S
C316 H322 0.930 . S
N317 Li267 1.990 . S
N317 C316 1.314 . S
N317 C320 1.279 . S
C318 C316 1.353 . S
C318 C321 1.348 . S
C318 H350 0.929 . S
C319 C320 1.358 . S
C319 C321 1.356 . S
C319 H351 0.930 . S
C320 N317 1.279 . S
C320 C319 1.358 . S
C320 H323 0.930 . S
C321 C318 1.348 . S
C321 C319 1.356 . S
H322 C316 0.930 . S
H323 C320 0.930 . S
O324 Li264 1.956 . S
O324 Li265 1.970 . S
O324 Li266 1.961 . S
O324 C268 1.325 . S
O325 Li264 1.970 . S
O325 Li265 1.956 . S
O325 Li267 1.961 . S
O325 C274 1.325 . S
O326 Li264 1.961 . S
O326 Li266 1.956 . S
O326 Li267 1.970 . S
O326 C296 1.325 . S
O327 Li265 1.961 . S
O327 Li266 1.970 . S
O327 Li267 1.956 . S
O327 C302 1.325 . S
H328 C270 0.929 . S
H329 C271 0.930 . S
H330 C272 0.930 . S
H331 C273 0.930 . S
H332 C275 0.930 1_455 S
H333 C277 0.929 . S
H334 C278 0.930 . S
H335 C279 0.930 . S
H336 C282 0.930 . S
H337 C285 0.929 . S
H338 C290 0.929 . S
H339 C291 0.930 . S
H340 C298 0.929 . S
H341 C299 0.930 . S
H342 C300 0.930 . S
H343 C301 0.930 . S
H344 C303 0.929 . S
H345 C304 0.930 . S
H346 C305 0.930 . S
H347 C306 0.930 . S
H348 C310 0.929 . S
H349 C312 0.930 . S
H350 C318 0.929 . S
H351 C319 0.930 . S
Li352 N369 1.990 . S
Li352 O412 1.956 . S
Li352 O413 1.970 . S
Li352 O414 1.961 . S
Li353 N377 1.990 . S
Li353 O412 1.970 . S
Li353 O413 1.956 . S
Li353 O415 1.961 . S
Li354 N399 1.990 . S
Li354 O412 1.961 . S
Li354 O414 1.956 . S
Li354 O415 1.970 . S
Li355 N405 1.990 . S
Li355 O413 1.961 . S
Li355 O414 1.970 . S
Li355 O415 1.956 . S
C356 C358 1.348 . S
C356 C359 1.356 . S
C356 O412 1.325 . S
N357 C360 1.314 . S
N357 C361 1.279 . S
C358 C356 1.348 . S
C358 C360 1.353 . S
C358 H416 0.929 . S
C359 C356 1.356 . S
C359 C361 1.358 . S
C359 H417 0.930 . S
C360 N357 1.314 . S
C360 C358 1.353 . S
C360 H418 0.930 . S
C361 N357 1.279 . S
C361 C359 1.358 . S
C361 H419 0.930 1_565 S
C362 C365 1.348 . S
C362 C366 1.356 . S
C362 O413 1.325 . S
C363 N364 1.279 . S
C363 C366 1.358 . S
C363 H420 0.930 . S
N364 C363 1.279 . S
N364 C367 1.314 . S
C365 C362 1.348 . S
C365 C367 1.353 . S
C365 H421 0.929 . S
C366 C362 1.356 . S
C366 C363 1.358 . S
C366 H422 0.930 . S
C367 N364 1.314 . S
C367 C365 1.353 . S
C367 H423 0.930 . S
C368 N369 1.314 . S
C368 C373 1.353 . S
C368 H374 0.930 . S
N369 Li352 1.990 . S
N369 C368 1.314 . S
N369 C371 1.279 . S
C370 C371 1.358 . S
C370 C372 1.356 . S
C370 H424 0.930 . S
C371 N369 1.279 . S
C371 C370 1.358 . S
C371 H375 0.930 . S
C372 C370 1.356 . S
C372 C373 1.348 . S
C373 C368 1.353 . S
C373 C372 1.348 . S
C373 H425 0.929 . S
H374 C368 0.930 . S
H375 C371 0.930 . S
C376 N377 1.314 . S
C376 C378 1.353 . S
C376 H382 0.930 . S
N377 Li353 1.990 . S
N377 C376 1.314 . S
N377 C380 1.279 . S
C378 C376 1.353 . S
C378 C381 1.348 . S
C378 H426 0.929 . S
C379 C380 1.358 . S
C379 C381 1.356 . S
C379 H427 0.930 . S
C380 N377 1.279 . S
C380 C379 1.358 . S
C380 H383 0.930 . S
C381 C378 1.348 . S
C381 C379 1.356 . S
H382 C376 0.930 . S
H383 C380 0.930 . S
C384 C386 1.348 . S
C384 C387 1.356 . S
C384 O414 1.325 . S
N385 C388 1.314 . S
N385 C389 1.279 . S
C386 C384 1.348 . S
C386 C388 1.353 . S
C386 H428 0.929 . S
C387 C384 1.356 . S
C387 C389 1.358 . S
C387 H429 0.930 . S
C388 N385 1.314 . S
C388 C386 1.353 . S
C388 H430 0.930 . S
C389 N385 1.279 . S
C389 C387 1.358 . S
C389 H431 0.930 . S
C390 C391 1.348 . S
C390 C392 1.356 . S
C390 O415 1.325 . S
C391 C390 1.348 . S
C391 C393 1.353 . S
C391 H432 0.929 . S
C392 C390 1.356 . S
C392 C394 1.358 . S
C392 H433 0.930 . S
C393 C391 1.353 . S
C393 N395 1.314 . S
C393 H434 0.930 . S
C394 C392 1.358 . S
C394 N395 1.279 . S
C394 H435 0.930 . S
N395 C393 1.314 . S
N395 C394 1.279 . S
C396 C398 1.353 . S
C396 N399 1.314 . S
C396 H402 0.930 . S
C397 N399 1.279 . S
C397 C400 1.358 . S
C397 H403 0.930 . S
C398 C396 1.353 . S
C398 C401 1.348 . S
C398 H436 0.929 . S
N399 Li354 1.990 . S
N399 C396 1.314 . S
N399 C397 1.279 . S
C400 C397 1.358 . S
C400 C401 1.356 . S
C400 H437 0.930 . S
C401 C398 1.348 . S
C401 C400 1.356 . S
H402 C396 0.930 . S
H403 C397 0.930 . S
C404 N405 1.314 . S
C404 C406 1.353 . S
C404 H410 0.930 . S
N405 Li355 1.990 . S
N405 C404 1.314 . S
N405 C408 1.279 . S
C406 C404 1.353 . S
C406 C409 1.348 . S
C406 H438 0.929 . S
C407 C408 1.358 . S
C407 C409 1.356 . S
C407 H439 0.930 . S
C408 N405 1.279 . S
C408 C407 1.358 . S
C408 H411 0.930 . S
C409 C406 1.348 . S
C409 C407 1.356 . S
H410 C404 0.930 . S
H411 C408 0.930 . S
O412 Li352 1.956 . S
O412 Li353 1.970 . S
O412 Li354 1.961 . S
O412 C356 1.325 . S
O413 Li352 1.970 . S
O413 Li353 1.956 . S
O413 Li355 1.961 . S
O413 C362 1.325 . S
O414 Li352 1.961 . S
O414 Li354 1.956 . S
O414 Li355 1.970 . S
O414 C384 1.325 . S
O415 Li353 1.961 . S
O415 Li354 1.970 . S
O415 Li355 1.956 . S
O415 C390 1.325 . S
H416 C358 0.929 . S
H417 C359 0.930 . S
H418 C360 0.930 . S
H419 C361 0.930 1_545 S
H420 C363 0.930 . S
H421 C365 0.929 . S
H422 C366 0.930 . S
H423 C367 0.930 . S
H424 C370 0.930 . S
H425 C373 0.929 . S
H426 C378 0.929 . S
H427 C379 0.930 . S
H428 C386 0.929 . S
H429 C387 0.930 . S
H430 C388 0.930 . S
H431 C389 0.930 . S
H432 C391 0.929 . S
H433 C392 0.930 . S
H434 C393 0.930 . S
H435 C394 0.930 . S
H436 C398 0.929 . S
H437 C400 0.930 . S
H438 C406 0.929 . S
H439 C407 0.930 . S
Li440 N457 1.990 . S
Li440 O500 1.956 . S
Li440 O501 1.970 . S
Li440 O502 1.961 . S
Li441 N465 1.990 . S
Li441 O500 1.970 . S
Li441 O501 1.956 . S
Li441 O503 1.961 . S
Li442 N487 1.990 . S
Li442 O500 1.961 . S
Li442 O502 1.956 . S
Li442 O503 1.970 . S
Li443 N493 1.990 . S
Li443 O501 1.961 . S
Li443 O502 1.970 . S
Li443 O503 1.956 . S
C444 C446 1.348 . S
C444 C447 1.356 . S
C444 O500 1.325 . S
N445 C448 1.314 . S
N445 C449 1.279 . S
C446 C444 1.348 . S
C446 C448 1.353 . S
C446 H504 0.929 . S
C447 C444 1.356 . S
C447 C449 1.358 . S
C447 H505 0.930 . S
C448 N445 1.314 . S
C448 C446 1.353 . S
C448 H506 0.930 . S
C449 N445 1.279 . S
C449 C447 1.358 . S
C449 H507 0.930 . S
C450 C453 1.348 . S
C450 C454 1.356 . S
C450 O501 1.325 . S
C451 N452 1.279 . S
C451 C454 1.358 . S
C451 H508 0.930 . S
N452 C451 1.279 . S
N452 C455 1.314 . S
C453 C450 1.348 . S
C453 C455 1.353 . S
C453 H509 0.929 . S
C454 C450 1.356 . S
C454 C451 1.358 . S
C454 H510 0.930 . S
C455 N452 1.314 . S
C455 C453 1.353 . S
C455 H511 0.930 . S
C456 N457 1.314 . S
C456 C461 1.353 . S
C456 H462 0.930 . S
N457 Li440 1.990 . S
N457 C456 1.314 . S
N457 C459 1.279 . S
C458 C459 1.358 . S
C458 C460 1.356 . S
C458 H512 0.930 . S
C459 N457 1.279 . S
C459 C458 1.358 . S
C459 H463 0.930 . S
C460 C458 1.356 . S
C460 C461 1.348 . S
C461 C456 1.353 . S
C461 C460 1.348 . S
C461 H513 0.929 . S
H462 C456 0.930 . S
H463 C459 0.930 . S
C464 N465 1.314 . S
C464 C466 1.353 . S
C464 H470 0.930 . S
N465 Li441 1.990 . S
N465 C464 1.314 . S
N465 C468 1.279 . S
C466 C464 1.353 . S
C466 C469 1.348 . S
C466 H514 0.929 . S
C467 C468 1.358 . S
C467 C469 1.356 . S
C467 H515 0.930 . S
C468 N465 1.279 . S
C468 C467 1.358 . S
C468 H471 0.930 . S
C469 C466 1.348 . S
C469 C467 1.356 . S
H470 C464 0.930 . S
H471 C468 0.930 . S
C472 C474 1.348 . S
C472 C475 1.356 . S
C472 O502 1.325 . S
N473 C476 1.314 . S
N473 C477 1.279 . S
C474 C472 1.348 . S
C474 C476 1.353 . S
C474 H516 0.929 . S
C475 C472 1.356 . S
C475 C477 1.358 . S
C475 H517 0.930 . S
C476 N473 1.314 . S
C476 C474 1.353 . S
C476 H518 0.930 . S
C477 N473 1.279 . S
C477 C475 1.358 . S
C477 H519 0.930 . S
C478 C479 1.348 . S
C478 C480 1.356 . S
C478 O503 1.325 . S
C479 C478 1.348 . S
C479 C481 1.353 . S
C479 H520 0.929 . S
C480 C478 1.356 . S
C480 C482 1.358 . S
C480 H521 0.930 . S
C481 C479 1.353 . S
C481 N483 1.314 . S
C481 H522 0.930 . S
C482 C480 1.358 . S
C482 N483 1.279 . S
C482 H523 0.930 . S
N483 C481 1.314 . S
N483 C482 1.279 . S
C484 C486 1.353 . S
C484 N487 1.314 . S
C484 H490 0.930 . S
C485 N487 1.279 . S
C485 C488 1.358 . S
C485 H491 0.930 . S
C486 C484 1.353 . S
C486 C489 1.348 . S
C486 H524 0.929 . S
N487 Li442 1.990 . S
N487 C484 1.314 . S
N487 C485 1.279 . S
C488 C485 1.358 . S
C488 C489 1.356 . S
C488 H525 0.930 . S
C489 C486 1.348 . S
C489 C488 1.356 . S
H490 C484 0.930 . S
H491 C485 0.930 . S
C492 N493 1.314 . S
C492 C494 1.353 . S
C492 H498 0.930 . S
N493 Li443 1.990 . S
N493 C492 1.314 . S
N493 C496 1.279 . S
C494 C492 1.353 . S
C494 C497 1.348 . S
C494 H526 0.929 . S
C495 C496 1.358 . S
C495 C497 1.356 . S
C495 H527 0.930 . S
C496 N493 1.279 . S
C496 C495 1.358 . S
C496 H499 0.930 . S
C497 C494 1.348 . S
C497 C495 1.356 . S
H498 C492 0.930 . S
H499 C496 0.930 . S
O500 Li440 1.956 . S
O500 Li441 1.970 . S
O500 Li442 1.961 . S
O500 C444 1.325 . S
O501 Li440 1.970 . S
O501 Li441 1.956 . S
O501 Li443 1.961 . S
O501 C450 1.325 . S
O502 Li440 1.961 . S
O502 Li442 1.956 . S
O502 Li443 1.970 . S
O502 C472 1.325 . S
O503 Li441 1.961 . S
O503 Li442 1.970 . S
O503 Li443 1.956 . S
O503 C478 1.325 . S
H504 C446 0.929 . S
H505 C447 0.930 . S
H506 C448 0.930 . S
H507 C449 0.930 . S
H508 C451 0.930 . S
H509 C453 0.929 . S
H510 C454 0.930 . S
H511 C455 0.930 . S
H512 C458 0.930 . S
H513 C461 0.929 . S
H514 C466 0.929 . S
H515 C467 0.930 . S
H516 C474 0.929 . S
H517 C475 0.930 . S
H518 C476 0.930 . S
H519 C477 0.930 . S
H520 C479 0.929 . S
H521 C480 0.930 . S
H522 C481 0.930 . S
H523 C482 0.930 . S
H524 C486 0.929 . S
H525 C488 0.930 . S
H526 C494 0.929 . S
H527 C495 0.930 . S
Li528 N545 1.990 . S
Li528 O588 1.956 . S
Li528 O589 1.970 . S
Li528 O590 1.961 . S
Li529 N553 1.990 . S
Li529 O588 1.970 . S
Li529 O589 1.956 . S
Li529 O591 1.961 . S
Li530 N575 1.990 . S
Li530 O588 1.961 . S
Li530 O590 1.956 . S
Li530 O591 1.970 . S
Li531 N581 1.990 . S
Li531 O589 1.961 . S
Li531 O590 1.970 . S
Li531 O591 1.956 . S
C532 C534 1.348 . S
C532 C535 1.356 . S
C532 O588 1.325 . S
N533 C536 1.314 . S
N533 C537 1.279 . S
C534 C532 1.348 . S
C534 C536 1.353 . S
C534 H592 0.929 . S
C535 C532 1.356 . S
C535 C537 1.358 . S
C535 H593 0.930 . S
C536 N533 1.314 . S
C536 C534 1.353 . S
C536 H594 0.930 . S
C537 N533 1.279 . S
C537 C535 1.358 . S
C537 H595 0.930 . S
C538 C541 1.348 . S
C538 C542 1.356 . S
C538 O589 1.325 . S
C539 N540 1.279 . S
C539 C542 1.358 . S
C539 H596 0.930 . S
N540 C539 1.279 . S
N540 C543 1.314 . S
C541 C538 1.348 . S
C541 C543 1.353 . S
C541 H597 0.929 . S
C542 C538 1.356 . S
C542 C539 1.358 . S
C542 H598 0.930 . S
C543 N540 1.314 . S
C543 C541 1.353 . S
C543 H599 0.930 . S
C544 N545 1.314 . S
C544 C549 1.353 . S
C544 H550 0.930 . S
N545 Li528 1.990 . S
N545 C544 1.314 . S
N545 C547 1.279 . S
C546 C547 1.358 . S
C546 C548 1.356 . S
C546 H600 0.930 . S
C547 N545 1.279 . S
C547 C546 1.358 . S
C547 H551 0.930 . S
C548 C546 1.356 . S
C548 C549 1.348 . S
C549 C544 1.353 . S
C549 C548 1.348 . S
C549 H601 0.929 . S
H550 C544 0.930 . S
H551 C547 0.930 . S
C552 N553 1.314 . S
C552 C554 1.353 . S
C552 H558 0.930 . S
N553 Li529 1.990 . S
N553 C552 1.314 . S
N553 C556 1.279 . S
C554 C552 1.353 . S
C554 C557 1.348 . S
C554 H602 0.929 . S
C555 C556 1.358 . S
C555 C557 1.356 . S
C555 H603 0.930 . S
C556 N553 1.279 . S
C556 C555 1.358 . S
C556 H559 0.930 . S
C557 C554 1.348 . S
C557 C555 1.356 . S
H558 C552 0.930 . S
H559 C556 0.930 . S
C560 C562 1.348 . S
C560 C563 1.356 . S
C560 O590 1.325 . S
N561 C564 1.314 . S
N561 C565 1.279 . S
C562 C560 1.348 . S
C562 C564 1.353 . S
C562 H604 0.929 . S
C563 C560 1.356 . S
C563 C565 1.358 . S
C563 H605 0.930 . S
C564 N561 1.314 . S
C564 C562 1.353 . S
C564 H606 0.930 . S
C565 N561 1.279 . S
C565 C563 1.358 . S
C565 H607 0.930 1_565 S
C566 C567 1.348 . S
C566 C568 1.356 . S
C566 O591 1.325 . S
C567 C566 1.348 . S
C567 C569 1.353 . S
C567 H608 0.929 . S
C568 C566 1.356 . S
C568 C570 1.358 . S
C568 H609 0.930 . S
C569 C567 1.353 . S
C569 N571 1.314 . S
C569 H610 0.930 . S
C570 C568 1.358 . S
C570 N571 1.279 . S
C570 H611 0.930 . S
N571 C569 1.314 . S
N571 C570 1.279 . S
C572 C574 1.353 . S
C572 N575 1.314 . S
C572 H578 0.930 . S
C573 N575 1.279 . S
C573 C576 1.358 . S
C573 H579 0.930 . S
C574 C572 1.353 . S
C574 C577 1.348 . S
C574 H612 0.929 . S
N575 Li530 1.990 . S
N575 C572 1.314 . S
N575 C573 1.279 . S
C576 C573 1.358 . S
C576 C577 1.356 . S
C576 H613 0.930 . S
C577 C574 1.348 . S
C577 C576 1.356 . S
H578 C572 0.930 . S
H579 C573 0.930 . S
C580 N581 1.314 . S
C580 C582 1.353 . S
C580 H586 0.930 . S
N581 Li531 1.990 . S
N581 C580 1.314 . S
N581 C584 1.279 . S
C582 C580 1.353 . S
C582 C585 1.348 . S
C582 H614 0.929 . S
C583 C584 1.358 . S
C583 C585 1.356 . S
C583 H615 0.930 . S
C584 N581 1.279 . S
C584 C583 1.358 . S
C584 H587 0.930 . S
C585 C582 1.348 . S
C585 C583 1.356 . S
H586 C580 0.930 . S
H587 C584 0.930 . S
O588 Li528 1.956 . S
O588 Li529 1.970 . S
O588 Li530 1.961 . S
O588 C532 1.325 . S
O589 Li528 1.970 . S
O589 Li529 1.956 . S
O589 Li531 1.961 . S
O589 C538 1.325 . S
O590 Li528 1.961 . S
O590 Li530 1.956 . S
O590 Li531 1.970 . S
O590 C560 1.325 . S
O591 Li529 1.961 . S
O591 Li530 1.970 . S
O591 Li531 1.956 . S
O591 C566 1.325 . S
H592 C534 0.929 . S
H593 C535 0.930 . S
H594 C536 0.930 . S
H595 C537 0.930 . S
H596 C539 0.930 . S
H597 C541 0.929 . S
H598 C542 0.930 . S
H599 C543 0.930 . S
H600 C546 0.930 . S
H601 C549 0.929 . S
H602 C554 0.929 . S
H603 C555 0.930 . S
H604 C562 0.929 . S
H605 C563 0.930 . S
H606 C564 0.930 . S
H607 C565 0.930 1_545 S
H608 C567 0.929 . S
H609 C568 0.930 . S
H610 C569 0.930 . S
H611 C570 0.930 . S
H612 C574 0.929 . S
H613 C576 0.930 . S
H614 C582 0.929 . S
H615 C583 0.930 . S
Li616 N633 1.990 . S
Li616 O676 1.956 . S
Li616 O677 1.970 . S
Li616 O678 1.961 . S
Li617 N641 1.990 . S
Li617 O676 1.970 . S
Li617 O677 1.956 . S
Li617 O679 1.961 . S
Li618 N663 1.990 . S
Li618 O676 1.961 . S
Li618 O678 1.956 . S
Li618 O679 1.970 . S
Li619 N669 1.990 . S
Li619 O677 1.961 . S
Li619 O678 1.970 . S
Li619 O679 1.956 . S
C620 C622 1.348 . S
C620 C623 1.356 . S
C620 O676 1.325 . S
N621 C624 1.314 . S
N621 C625 1.279 . S
C622 C620 1.348 . S
C622 C624 1.353 . S
C622 H680 0.929 . S
C623 C620 1.356 . S
C623 C625 1.358 . S
C623 H681 0.930 . S
C624 N621 1.314 . S
C624 C622 1.353 . S
C624 H682 0.930 . S
C625 N621 1.279 . S
C625 C623 1.358 . S
C625 H683 0.930 . S
C626 C629 1.348 . S
C626 C630 1.356 . S
C626 O677 1.325 . S
C627 N628 1.279 . S
C627 C630 1.358 . S
C627 H684 0.930 . S
N628 C627 1.279 . S
N628 C631 1.314 . S
C629 C626 1.348 . S
C629 C631 1.353 . S
C629 H685 0.929 . S
C630 C626 1.356 . S
C630 C627 1.358 . S
C630 H686 0.930 . S
C631 N628 1.314 . S
C631 C629 1.353 . S
C631 H687 0.930 . S
C632 N633 1.314 . S
C632 C637 1.353 . S
C632 H638 0.930 . S
N633 Li616 1.990 . S
N633 C632 1.314 . S
N633 C635 1.279 . S
C634 C635 1.358 . S
C634 C636 1.356 . S
C634 H688 0.930 . S
C635 N633 1.279 . S
C635 C634 1.358 . S
C635 H639 0.930 . S
C636 C634 1.356 . S
C636 C637 1.348 . S
C637 C632 1.353 . S
C637 C636 1.348 . S
C637 H689 0.929 . S
H638 C632 0.930 . S
H639 C635 0.930 . S
C640 N641 1.314 . S
C640 C642 1.353 . S
C640 H646 0.930 . S
N641 Li617 1.990 . S
N641 C640 1.314 . S
N641 C644 1.279 . S
C642 C640 1.353 . S
C642 C645 1.348 . S
C642 H690 0.929 . S
C643 C644 1.358 . S
C643 C645 1.356 . S
C643 H691 0.930 . S
C644 N641 1.279 . S
C644 C643 1.358 . S
C644 H647 0.930 . S
C645 C642 1.348 . S
C645 C643 1.356 . S
H646 C640 0.930 . S
H647 C644 0.930 . S
C648 C650 1.348 . S
C648 C651 1.356 . S
C648 O678 1.325 . S
N649 C652 1.314 . S
N649 C653 1.279 . S
C650 C648 1.348 . S
C650 C652 1.353 . S
C650 H692 0.929 . S
C651 C648 1.356 . S
C651 C653 1.358 . S
C651 H693 0.930 . S
C652 N649 1.314 . S
C652 C650 1.353 . S
C652 H694 0.930 . S
C653 N649 1.279 . S
C653 C651 1.358 . S
C653 H695 0.930 . S
C654 C655 1.348 . S
C654 C656 1.356 . S
C654 O679 1.325 . S
C655 C654 1.348 . S
C655 C657 1.353 . S
C655 H696 0.929 . S
C656 C654 1.356 . S
C656 C658 1.358 . S
C656 H697 0.930 . S
C657 C655 1.353 . S
C657 N659 1.314 . S
C657 H698 0.930 . S
C658 C656 1.358 . S
C658 N659 1.279 . S
C658 H699 0.930 . S
N659 C657 1.314 . S
N659 C658 1.279 . S
C660 C662 1.353 . S
C660 N663 1.314 . S
C660 H666 0.930 . S
C661 N663 1.279 . S
C661 C664 1.358 . S
C661 H667 0.930 . S
C662 C660 1.353 . S
C662 C665 1.348 . S
C662 H700 0.929 . S
N663 Li618 1.990 . S
N663 C660 1.314 . S
N663 C661 1.279 . S
C664 C661 1.358 . S
C664 C665 1.356 . S
C664 H701 0.930 . S
C665 C662 1.348 . S
C665 C664 1.356 . S
H666 C660 0.930 . S
H667 C661 0.930 . S
C668 N669 1.314 . S
C668 C670 1.353 . S
C668 H674 0.930 . S
N669 Li619 1.990 . S
N669 C668 1.314 . S
N669 C672 1.279 . S
C670 C668 1.353 . S
C670 C673 1.348 . S
C670 H702 0.929 . S
C671 C672 1.358 . S
C671 C673 1.356 . S
C671 H703 0.930 . S
C672 N669 1.279 . S
C672 C671 1.358 . S
C672 H675 0.930 . S
C673 C670 1.348 . S
C673 C671 1.356 . S
H674 C668 0.930 . S
H675 C672 0.930 . S
O676 Li616 1.956 . S
O676 Li617 1.970 . S
O676 Li618 1.961 . S
O676 C620 1.325 . S
O677 Li616 1.970 . S
O677 Li617 1.956 . S
O677 Li619 1.961 . S
O677 C626 1.325 . S
O678 Li616 1.961 . S
O678 Li618 1.956 . S
O678 Li619 1.970 . S
O678 C648 1.325 . S
O679 Li617 1.961 . S
O679 Li618 1.970 . S
O679 Li619 1.956 . S
O679 C654 1.325 . S
H680 C622 0.929 . S
H681 C623 0.930 . S
H682 C624 0.930 . S
H683 C625 0.930 . S
H684 C627 0.930 . S
H685 C629 0.929 . S
H686 C630 0.930 . S
H687 C631 0.930 . S
H688 C634 0.930 . S
H689 C637 0.929 . S
H690 C642 0.929 . S
H691 C643 0.930 . S
H692 C650 0.929 . S
H693 C651 0.930 . S
H694 C652 0.930 . S
H695 C653 0.930 . S
H696 C655 0.929 . S
H697 C656 0.930 . S
H698 C657 0.930 . S
H699 C658 0.930 . S
H700 C662 0.929 . S
H701 C664 0.930 . S
H702 C670 0.929 . S
H703 C671 0.930 . S
Li704 N721 1.990 . S
Li704 O764 1.956 . S
Li704 O765 1.970 . S
Li704 O766 1.961 . S
Li705 N729 1.990 . S
Li705 O764 1.970 . S
Li705 O765 1.956 . S
Li705 O767 1.961 . S
Li706 N751 1.990 . S
Li706 O764 1.961 . S
Li706 O766 1.956 . S
Li706 O767 1.970 . S
Li707 N757 1.990 . S
Li707 O765 1.961 . S
Li707 O766 1.970 . S
Li707 O767 1.956 . S
C708 C710 1.348 . S
C708 C711 1.356 . S
C708 O764 1.325 . S
N709 C712 1.314 . S
N709 C713 1.279 . S
C710 C708 1.348 . S
C710 C712 1.353 . S
C710 H768 0.929 . S
C711 C708 1.356 . S
C711 C713 1.358 . S
C711 H769 0.930 . S
C712 N709 1.314 . S
C712 C710 1.353 . S
C712 H770 0.930 . S
C713 N709 1.279 . S
C713 C711 1.358 . S
C713 H771 0.930 . S
C714 C717 1.348 . S
C714 C718 1.356 . S
C714 O765 1.325 . S
C715 N716 1.279 . S
C715 C718 1.358 . S
C715 H772 0.930 . S
N716 C715 1.279 . S
N716 C719 1.314 . S
C717 C714 1.348 . S
C717 C719 1.353 . S
C717 H773 0.929 . S
C718 C714 1.356 . S
C718 C715 1.358 . S
C718 H774 0.930 . S
C719 N716 1.314 . S
C719 C717 1.353 . S
C719 H775 0.930 . S
C720 N721 1.314 . S
C720 C725 1.353 . S
C720 H726 0.930 . S
N721 Li704 1.990 . S
N721 C720 1.314 . S
N721 C723 1.279 . S
C722 C723 1.358 . S
C722 C724 1.356 . S
C722 H776 0.930 . S
C723 N721 1.279 . S
C723 C722 1.358 . S
C723 H727 0.930 . S
C724 C722 1.356 . S
C724 C725 1.348 . S
C725 C720 1.353 . S
C725 C724 1.348 . S
C725 H777 0.929 . S
H726 C720 0.930 . S
H727 C723 0.930 . S
C728 N729 1.314 . S
C728 C730 1.353 . S
C728 H734 0.930 . S
N729 Li705 1.990 . S
N729 C728 1.314 . S
N729 C732 1.279 . S
C730 C728 1.353 . S
C730 C733 1.348 . S
C730 H778 0.929 . S
C731 C732 1.358 . S
C731 C733 1.356 . S
C731 H779 0.930 . S
C732 N729 1.279 . S
C732 C731 1.358 . S
C732 H735 0.930 . S
C733 C730 1.348 . S
C733 C731 1.356 . S
H734 C728 0.930 . S
H735 C732 0.930 . S
C736 C738 1.348 . S
C736 C739 1.356 . S
C736 O766 1.325 . S
N737 C740 1.314 . S
N737 C741 1.279 . S
C738 C736 1.348 . S
C738 C740 1.353 . S
C738 H780 0.929 . S
C739 C736 1.356 . S
C739 C741 1.358 . S
C739 H781 0.930 . S
C740 N737 1.314 . S
C740 C738 1.353 . S
C740 H782 0.930 . S
C741 N737 1.279 . S
C741 C739 1.358 . S
C741 H783 0.930 . S
C742 C743 1.348 . S
C742 C744 1.356 . S
C742 O767 1.325 . S
C743 C742 1.348 . S
C743 C745 1.353 . S
C743 H784 0.929 . S
C744 C742 1.356 . S
C744 C746 1.358 . S
C744 H785 0.930 . S
C745 C743 1.353 . S
C745 N747 1.314 . S
C745 H786 0.930 . S
C746 C744 1.358 . S
C746 N747 1.279 . S
C746 H787 0.930 1_455 S
N747 C745 1.314 . S
N747 C746 1.279 . S
C748 C750 1.353 . S
C748 N751 1.314 . S
C748 H754 0.930 . S
C749 N751 1.279 . S
C749 C752 1.358 . S
C749 H755 0.930 . S
C750 C748 1.353 . S
C750 C753 1.348 . S
C750 H788 0.929 . S
N751 Li706 1.990 . S
N751 C748 1.314 . S
N751 C749 1.279 . S
C752 C749 1.358 . S
C752 C753 1.356 . S
C752 H789 0.930 . S
C753 C750 1.348 . S
C753 C752 1.356 . S
H754 C748 0.930 . S
H755 C749 0.930 . S
C756 N757 1.314 . S
C756 C758 1.353 . S
C756 H762 0.930 . S
N757 Li707 1.990 . S
N757 C756 1.314 . S
N757 C760 1.279 . S
C758 C756 1.353 . S
C758 C761 1.348 . S
C758 H790 0.929 . S
C759 C760 1.358 . S
C759 C761 1.356 . S
C759 H791 0.930 . S
C760 N757 1.279 . S
C760 C759 1.358 . S
C760 H763 0.930 . S
C761 C758 1.348 . S
C761 C759 1.356 . S
H762 C756 0.930 . S
H763 C760 0.930 . S
O764 Li704 1.956 . S
O764 Li705 1.970 . S
O764 Li706 1.961 . S
O764 C708 1.325 . S
O765 Li704 1.970 . S
O765 Li705 1.956 . S
O765 Li707 1.961 . S
O765 C714 1.325 . S
O766 Li704 1.961 . S
O766 Li706 1.956 . S
O766 Li707 1.970 . S
O766 C736 1.325 . S
O767 Li705 1.961 . S
O767 Li706 1.970 . S
O767 Li707 1.956 . S
O767 C742 1.325 . S
H768 C710 0.929 . S
H769 C711 0.930 . S
H770 C712 0.930 . S
H771 C713 0.930 . S
H772 C715 0.930 . S
H773 C717 0.929 . S
H774 C718 0.930 . S
H775 C719 0.930 . S
H776 C722 0.930 . S
H777 C725 0.929 . S
H778 C730 0.929 . S
H779 C731 0.930 . S
H780 C738 0.929 . S
H781 C739 0.930 . S
H782 C740 0.930 . S
H783 C741 0.930 . S
H784 C743 0.929 . S
H785 C744 0.930 . S
H786 C745 0.930 . S
H787 C746 0.930 1_655 S
H788 C750 0.929 . S
H789 C752 0.930 . S
H790 C758 0.929 . S
H791 C759 0.930 . S
Li792 N809 1.990 . S
Li792 O852 1.956 . S
Li792 O853 1.970 . S
Li792 O854 1.961 . S
Li793 N817 1.990 . S
Li793 O852 1.970 . S
Li793 O853 1.956 . S
Li793 O855 1.961 . S
Li794 N839 1.990 . S
Li794 O852 1.961 . S
Li794 O854 1.956 . S
Li794 O855 1.970 . S
Li795 N845 1.990 . S
Li795 O853 1.961 . S
Li795 O854 1.970 . S
Li795 O855 1.956 . S
C796 C798 1.348 . S
C796 C799 1.356 . S
C796 O852 1.325 . S
N797 C800 1.314 . S
N797 C801 1.279 . S
C798 C796 1.348 . S
C798 C800 1.353 . S
C798 H856 0.929 . S
C799 C796 1.356 . S
C799 C801 1.358 . S
C799 H857 0.930 . S
C800 N797 1.314 . S
C800 C798 1.353 . S
C800 H858 0.930 . S
C801 N797 1.279 . S
C801 C799 1.358 . S
C801 H859 0.930 . S
C802 C805 1.348 . S
C802 C806 1.356 . S
C802 O853 1.325 . S
C803 N804 1.279 . S
C803 C806 1.358 . S
C803 H860 0.930 . S
N804 C803 1.279 . S
N804 C807 1.314 . S
C805 C802 1.348 . S
C805 C807 1.353 . S
C805 H861 0.929 . S
C806 C802 1.356 . S
C806 C803 1.358 . S
C806 H862 0.930 . S
C807 N804 1.314 . S
C807 C805 1.353 . S
C807 H863 0.930 . S
C808 N809 1.314 . S
C808 C813 1.353 . S
C808 H814 0.930 . S
N809 Li792 1.990 . S
N809 C808 1.314 . S
N809 C811 1.279 . S
C810 C811 1.358 . S
C810 C812 1.356 . S
C810 H864 0.930 . S
C811 N809 1.279 . S
C811 C810 1.358 . S
C811 H815 0.930 . S
C812 C810 1.356 . S
C812 C813 1.348 . S
C813 C808 1.353 . S
C813 C812 1.348 . S
C813 H865 0.929 . S
H814 C808 0.930 . S
H815 C811 0.930 . S
C816 N817 1.314 . S
C816 C818 1.353 . S
C816 H822 0.930 . S
N817 Li793 1.990 . S
N817 C816 1.314 . S
N817 C820 1.279 . S
C818 C816 1.353 . S
C818 C821 1.348 . S
C818 H866 0.929 . S
C819 C820 1.358 . S
C819 C821 1.356 . S
C819 H867 0.930 . S
C820 N817 1.279 . S
C820 C819 1.358 . S
C820 H823 0.930 . S
C821 C818 1.348 . S
C821 C819 1.356 . S
H822 C816 0.930 . S
H823 C820 0.930 . S
C824 C826 1.348 . S
C824 C827 1.356 . S
C824 O854 1.325 . S
N825 C828 1.314 . S
N825 C829 1.279 . S
C826 C824 1.348 . S
C826 C828 1.353 . S
C826 H868 0.929 . S
C827 C824 1.356 . S
C827 C829 1.358 . S
C827 H869 0.930 . S
C828 N825 1.314 . S
C828 C826 1.353 . S
C828 H870 0.930 . S
C829 N825 1.279 . S
C829 C827 1.358 . S
C829 H871 0.930 . S
C830 C831 1.348 . S
C830 C832 1.356 . S
C830 O855 1.325 . S
C831 C830 1.348 . S
C831 C833 1.353 . S
C831 H872 0.929 . S
C832 C830 1.356 . S
C832 C834 1.358 . S
C832 H873 0.930 . S
C833 C831 1.353 . S
C833 N835 1.314 . S
C833 H874 0.930 . S
C834 C832 1.358 . S
C834 N835 1.279 . S
C834 H875 0.930 1_545 S
N835 C833 1.314 . S
N835 C834 1.279 . S
C836 C838 1.353 . S
C836 N839 1.314 . S
C836 H842 0.930 . S
C837 N839 1.279 . S
C837 C840 1.358 . S
C837 H843 0.930 . S
C838 C836 1.353 . S
C838 C841 1.348 . S
C838 H876 0.929 . S
N839 Li794 1.990 . S
N839 C836 1.314 . S
N839 C837 1.279 . S
C840 C837 1.358 . S
C840 C841 1.356 . S
C840 H877 0.930 . S
C841 C838 1.348 . S
C841 C840 1.356 . S
H842 C836 0.930 . S
H843 C837 0.930 . S
C844 N845 1.314 . S
C844 C846 1.353 . S
C844 H850 0.930 . S
N845 Li795 1.990 . S
N845 C844 1.314 . S
N845 C848 1.279 . S
C846 C844 1.353 . S
C846 C849 1.348 . S
C846 H878 0.929 . S
C847 C848 1.358 . S
C847 C849 1.356 . S
C847 H879 0.930 . S
C848 N845 1.279 . S
C848 C847 1.358 . S
C848 H851 0.930 . S
C849 C846 1.348 . S
C849 C847 1.356 . S
H850 C844 0.930 . S
H851 C848 0.930 . S
O852 Li792 1.956 . S
O852 Li793 1.970 . S
O852 Li794 1.961 . S
O852 C796 1.325 . S
O853 Li792 1.970 . S
O853 Li793 1.956 . S
O853 Li795 1.961 . S
O853 C802 1.325 . S
O854 Li792 1.961 . S
O854 Li794 1.956 . S
O854 Li795 1.970 . S
O854 C824 1.325 . S
O855 Li793 1.961 . S
O855 Li794 1.970 . S
O855 Li795 1.956 . S
O855 C830 1.325 . S
H856 C798 0.929 . S
H857 C799 0.930 . S
H858 C800 0.930 . S
H859 C801 0.930 . S
H860 C803 0.930 . S
H861 C805 0.929 . S
H862 C806 0.930 . S
H863 C807 0.930 . S
H864 C810 0.930 . S
H865 C813 0.929 . S
H866 C818 0.929 . S
H867 C819 0.930 . S
H868 C826 0.929 . S
H869 C827 0.930 . S
H870 C828 0.930 . S
H871 C829 0.930 . S
H872 C831 0.929 . S
H873 C832 0.930 . S
H874 C833 0.930 . S
H875 C834 0.930 1_565 S
H876 C838 0.929 . S
H877 C840 0.930 . S
H878 C846 0.929 . S
H879 C847 0.930 . S
Li880 N897 1.990 . S
Li880 O940 1.956 . S
Li880 O941 1.970 . S
Li880 O942 1.961 . S
Li881 N905 1.990 . S
Li881 O940 1.970 . S
Li881 O941 1.956 . S
Li881 O943 1.961 . S
Li882 N927 1.990 . S
Li882 O940 1.961 . S
Li882 O942 1.956 . S
Li882 O943 1.970 . S
Li883 N933 1.990 . S
Li883 O941 1.961 . S
Li883 O942 1.970 . S
Li883 O943 1.956 . S
C884 C886 1.348 . S
C884 C887 1.356 . S
C884 O940 1.325 . S
N885 C888 1.314 . S
N885 C889 1.279 . S
C886 C884 1.348 . S
C886 C888 1.353 . S
C886 H944 0.929 . S
C887 C884 1.356 . S
C887 C889 1.358 . S
C887 H945 0.930 . S
C888 N885 1.314 . S
C888 C886 1.353 . S
C888 H946 0.930 . S
C889 N885 1.279 . S
C889 C887 1.358 . S
C889 H947 0.930 . S
C890 C893 1.348 . S
C890 C894 1.356 . S
C890 O941 1.325 . S
C891 N892 1.279 . S
C891 C894 1.358 . S
C891 H948 0.930 . S
N892 C891 1.279 . S
N892 C895 1.314 . S
C893 C890 1.348 . S
C893 C895 1.353 . S
C893 H949 0.929 . S
C894 C890 1.356 . S
C894 C891 1.358 . S
C894 H950 0.930 . S
C895 N892 1.314 . S
C895 C893 1.353 . S
C895 H951 0.930 . S
C896 N897 1.314 . S
C896 C901 1.353 . S
C896 H902 0.930 . S
N897 Li880 1.990 . S
N897 C896 1.314 . S
N897 C899 1.279 . S
C898 C899 1.358 . S
C898 C900 1.356 . S
C898 H952 0.930 . S
C899 N897 1.279 . S
C899 C898 1.358 . S
C899 H903 0.930 . S
C900 C898 1.356 . S
C900 C901 1.348 . S
C901 C896 1.353 . S
C901 C900 1.348 . S
C901 H953 0.929 . S
H902 C896 0.930 . S
H903 C899 0.930 . S
C904 N905 1.314 . S
C904 C906 1.353 . S
C904 H910 0.930 . S
N905 Li881 1.990 . S
N905 C904 1.314 . S
N905 C908 1.279 . S
C906 C904 1.353 . S
C906 C909 1.348 . S
C906 H954 0.929 . S
C907 C908 1.358 . S
C907 C909 1.356 . S
C907 H955 0.930 . S
C908 N905 1.279 . S
C908 C907 1.358 . S
C908 H911 0.930 . S
C909 C906 1.348 . S
C909 C907 1.356 . S
H910 C904 0.930 . S
H911 C908 0.930 . S
C912 C914 1.348 . S
C912 C915 1.356 . S
C912 O942 1.325 . S
N913 C916 1.314 . S
N913 C917 1.279 . S
C914 C912 1.348 . S
C914 C916 1.353 . S
C914 H956 0.929 . S
C915 C912 1.356 . S
C915 C917 1.358 . S
C915 H957 0.930 . S
C916 N913 1.314 . S
C916 C914 1.353 . S
C916 H958 0.930 . S
C917 N913 1.279 . S
C917 C915 1.358 . S
C917 H959 0.930 . S
C918 C919 1.348 . S
C918 C920 1.356 . S
C918 O943 1.325 . S
C919 C918 1.348 . S
C919 C921 1.353 . S
C919 H960 0.929 . S
C920 C918 1.356 . S
C920 C922 1.358 . S
C920 H961 0.930 . S
C921 C919 1.353 . S
C921 N923 1.314 . S
C921 H962 0.930 . S
C922 C920 1.358 . S
C922 N923 1.279 . S
C922 H963 0.930 . S
N923 C921 1.314 . S
N923 C922 1.279 . S
C924 C926 1.353 . S
C924 N927 1.314 . S
C924 H930 0.930 . S
C925 N927 1.279 . S
C925 C928 1.358 . S
C925 H931 0.930 . S
C926 C924 1.353 . S
C926 C929 1.348 . S
C926 H964 0.929 . S
N927 Li882 1.990 . S
N927 C924 1.314 . S
N927 C925 1.279 . S
C928 C925 1.358 . S
C928 C929 1.356 . S
C928 H965 0.930 . S
C929 C926 1.348 . S
C929 C928 1.356 . S
H930 C924 0.930 . S
H931 C925 0.930 . S
C932 N933 1.314 . S
C932 C934 1.353 . S
C932 H938 0.930 . S
N933 Li883 1.990 . S
N933 C932 1.314 . S
N933 C936 1.279 . S
C934 C932 1.353 . S
C934 C937 1.348 . S
C934 H966 0.929 . S
C935 C936 1.358 . S
C935 C937 1.356 . S
C935 H967 0.930 . S
C936 N933 1.279 . S
C936 C935 1.358 . S
C936 H939 0.930 . S
C937 C934 1.348 . S
C937 C935 1.356 . S
H938 C932 0.930 . S
H939 C936 0.930 . S
O940 Li880 1.956 . S
O940 Li881 1.970 . S
O940 Li882 1.961 . S
O940 C884 1.325 . S
O941 Li880 1.970 . S
O941 Li881 1.956 . S
O941 Li883 1.961 . S
O941 C890 1.325 . S
O942 Li880 1.961 . S
O942 Li882 1.956 . S
O942 Li883 1.970 . S
O942 C912 1.325 . S
O943 Li881 1.961 . S
O943 Li882 1.970 . S
O943 Li883 1.956 . S
O943 C918 1.325 . S
H944 C886 0.929 . S
H945 C887 0.930 . S
H946 C888 0.930 . S
H947 C889 0.930 . S
H948 C891 0.930 . S
H949 C893 0.929 . S
H950 C894 0.930 . S
H951 C895 0.930 . S
H952 C898 0.930 . S
H953 C901 0.929 . S
H954 C906 0.929 . S
H955 C907 0.930 . S
H956 C914 0.929 . S
H957 C915 0.930 . S
H958 C916 0.930 . S
H959 C917 0.930 . S
H960 C919 0.929 . S
H961 C920 0.930 . S
H962 C921 0.930 . S
H963 C922 0.930 . S
H964 C926 0.929 . S
H965 C928 0.930 . S
H966 C934 0.929 . S
H967 C935 0.930 . S
Li968 N985 1.990 . S
Li968 O1028 1.956 . S
Li968 O1029 1.970 . S
Li968 O1030 1.961 . S
Li969 N993 1.990 . S
Li969 O1028 1.970 . S
Li969 O1029 1.956 . S
Li969 O1031 1.961 . S
Li970 N1015 1.990 . S
Li970 O1028 1.961 . S
Li970 O1030 1.956 . S
Li970 O1031 1.970 . S
Li971 N1021 1.990 . S
Li971 O1029 1.961 . S
Li971 O1030 1.970 . S
Li971 O1031 1.956 . S
C972 C974 1.348 . S
C972 C975 1.356 . S
C972 O1028 1.325 . S
N973 C976 1.314 . S
N973 C977 1.279 . S
C974 C972 1.348 . S
C974 C976 1.353 . S
C974 H1032 0.929 . S
C975 C972 1.356 . S
C975 C977 1.358 . S
C975 H1033 0.930 . S
C976 N973 1.314 . S
C976 C974 1.353 . S
C976 H1034 0.930 . S
C977 N973 1.279 . S
C977 C975 1.358 . S
C977 H1035 0.930 . S
C978 C981 1.348 . S
C978 C982 1.356 . S
C978 O1029 1.325 . S
C979 N980 1.279 . S
C979 C982 1.358 . S
C979 H1036 0.930 . S
N980 C979 1.279 . S
N980 C983 1.314 . S
C981 C978 1.348 . S
C981 C983 1.353 . S
C981 H1037 0.929 . S
C982 C978 1.356 . S
C982 C979 1.358 . S
C982 H1038 0.930 . S
C983 N980 1.314 . S
C983 C981 1.353 . S
C983 H1039 0.930 . S
C984 N985 1.314 . S
C984 C989 1.353 . S
C984 H990 0.930 . S
N985 Li968 1.990 . S
N985 C984 1.314 . S
N985 C987 1.279 . S
C986 C987 1.358 . S
C986 C988 1.356 . S
C986 H1040 0.930 . S
C987 N985 1.279 . S
C987 C986 1.358 . S
C987 H991 0.930 . S
C988 C986 1.356 . S
C988 C989 1.348 . S
C989 C984 1.353 . S
C989 C988 1.348 . S
C989 H1041 0.929 . S
H990 C984 0.930 . S
H991 C987 0.930 . S
C992 N993 1.314 . S
C992 C994 1.353 . S
C992 H998 0.930 . S
N993 Li969 1.990 . S
N993 C992 1.314 . S
N993 C996 1.279 . S
C994 C992 1.353 . S
C994 C997 1.348 . S
C994 H1042 0.929 . S
C995 C996 1.358 . S
C995 C997 1.356 . S
C995 H1043 0.930 . S
C996 N993 1.279 . S
C996 C995 1.358 . S
C996 H999 0.930 . S
C997 C994 1.348 . S
C997 C995 1.356 . S
H998 C992 0.930 . S
H999 C996 0.930 . S
C1000 C1002 1.348 . S
C1000 C1003 1.356 . S
C1000 O1030 1.325 . S
N1001 C1004 1.314 . S
N1001 C1005 1.279 . S
C1002 C1000 1.348 . S
C1002 C1004 1.353 . S
C1002 H1044 0.929 . S
C1003 C1000 1.356 . S
C1003 C1005 1.358 . S
C1003 H1045 0.930 . S
C1004 N1001 1.314 . S
C1004 C1002 1.353 . S
C1004 H1046 0.930 . S
C1005 N1001 1.279 . S
C1005 C1003 1.358 . S
C1005 H1047 0.930 . S
C1006 C1007 1.348 . S
C1006 C1008 1.356 . S
C1006 O1031 1.325 . S
C1007 C1006 1.348 . S
C1007 C1009 1.353 . S
C1007 H1048 0.929 . S
C1008 C1006 1.356 . S
C1008 C1010 1.358 . S
C1008 H1049 0.930 . S
C1009 C1007 1.353 . S
C1009 N1011 1.314 . S
C1009 H1050 0.930 . S
C1010 C1008 1.358 . S
C1010 N1011 1.279 . S
C1010 H1051 0.930 1_655 S
N1011 C1009 1.314 . S
N1011 C1010 1.279 . S
C1012 C1014 1.353 . S
C1012 N1015 1.314 . S
C1012 H1018 0.930 . S
C1013 N1015 1.279 . S
C1013 C1016 1.358 . S
C1013 H1019 0.930 . S
C1014 C1012 1.353 . S
C1014 C1017 1.348 . S
C1014 H1052 0.929 . S
N1015 Li970 1.990 . S
N1015 C1012 1.314 . S
N1015 C1013 1.279 . S
C1016 C1013 1.358 . S
C1016 C1017 1.356 . S
C1016 H1053 0.930 . S
C1017 C1014 1.348 . S
C1017 C1016 1.356 . S
H1018 C1012 0.930 . S
H1019 C1013 0.930 . S
C1020 N1021 1.314 . S
C1020 C1022 1.353 . S
C1020 H1026 0.930 . S
N1021 Li971 1.990 . S
N1021 C1020 1.314 . S
N1021 C1024 1.279 . S
C1022 C1020 1.353 . S
C1022 C1025 1.348 . S
C1022 H1054 0.929 . S
C1023 C1024 1.358 . S
C1023 C1025 1.356 . S
C1023 H1055 0.930 . S
C1024 N1021 1.279 . S
C1024 C1023 1.358 . S
C1024 H1027 0.930 . S
C1025 C1022 1.348 . S
C1025 C1023 1.356 . S
H1026 C1020 0.930 . S
H1027 C1024 0.930 . S
O1028 Li968 1.956 . S
O1028 Li969 1.970 . S
O1028 Li970 1.961 . S
O1028 C972 1.325 . S
O1029 Li968 1.970 . S
O1029 Li969 1.956 . S
O1029 Li971 1.961 . S
O1029 C978 1.325 . S
O1030 Li968 1.961 . S
O1030 Li970 1.956 . S
O1030 Li971 1.970 . S
O1030 C1000 1.325 . S
O1031 Li969 1.961 . S
O1031 Li970 1.970 . S
O1031 Li971 1.956 . S
O1031 C1006 1.325 . S
H1032 C974 0.929 . S
H1033 C975 0.930 . S
H1034 C976 0.930 . S
H1035 C977 0.930 . S
H1036 C979 0.930 . S
H1037 C981 0.929 . S
H1038 C982 0.930 . S
H1039 C983 0.930 . S
H1040 C986 0.930 . S
H1041 C989 0.929 . S
H1042 C994 0.929 . S
H1043 C995 0.930 . S
H1044 C1002 0.929 . S
H1045 C1003 0.930 . S
H1046 C1004 0.930 . S
H1047 C1005 0.930 . S
H1048 C1007 0.929 . S
H1049 C1008 0.930 . S
H1050 C1009 0.930 . S
H1051 C1010 0.930 1_455 S
H1052 C1014 0.929 . S
H1053 C1016 0.930 . S
H1054 C1022 0.929 . S
H1055 C1023 0.930 . S
H1056 C1062 0.930 . S
H1057 C1065 0.930 . S
H1058 C1066 0.930 . S
H1059 C1067 0.930 . S
H1060 C1070 0.930 . S
H1061 C1071 0.930 . S
C1062 H1056 0.930 . S
C1062 C1063 1.355 . S
C1062 C1064 1.415 1_554 S
C1063 C1062 1.355 . S
C1063 C1065 1.419 1_455 S
C1064 C1062 1.415 1_556 S
C1064 C1069 1.425 1_456 S
C1064 C1071 1.409 . S
C1065 H1057 0.930 . S
C1065 C1063 1.419 1_655 S
C1065 C1066 1.362 . S
C1066 H1058 0.930 . S
C1066 C1065 1.362 . S
C1066 C1069 1.409 . S
C1067 H1059 0.930 . S
C1067 C1068 1.355 . S
C1067 C1069 1.415 1_556 S
C1068 C1067 1.355 . S
C1068 C1070 1.419 1_655 S
C1069 C1064 1.425 1_654 S
C1069 C1066 1.409 . S
C1069 C1067 1.415 1_554 S
C1070 H1060 0.930 . S
C1070 C1068 1.419 1_455 S
C1070 C1071 1.362 . S
C1071 H1061 0.930 . S
C1071 C1064 1.409 . S
C1071 C1070 1.362 . S
H1072 C1078 0.930 . S
H1073 C1081 0.930 . S
H1074 C1082 0.930 1_545 S
H1075 C1083 0.930 . S
H1076 C1086 0.930 . S
H1077 C1087 0.930 1_565 S
C1078 H1072 0.930 . S
C1078 C1079 1.355 . S
C1078 C1080 1.415 . S
C1079 C1078 1.355 . S
C1079 C1081 1.419 . S
C1080 C1078 1.415 . S
C1080 C1085 1.425 1_565 S
C1080 C1087 1.409 1_565 S
C1081 H1073 0.930 . S
C1081 C1079 1.419 . S
C1081 C1082 1.362 . S
C1082 H1074 0.930 1_565 S
C1082 C1081 1.362 . S
C1082 C1085 1.409 1_565 S
C1083 H1075 0.930 . S
C1083 C1084 1.355 . S
C1083 C1085 1.415 . S
C1084 C1083 1.355 . S
C1084 C1086 1.419 . S
C1085 C1080 1.425 1_545 S
C1085 C1082 1.409 1_545 S
C1085 C1083 1.415 . S
C1086 H1076 0.930 . S
C1086 C1084 1.419 . S
C1086 C1087 1.362 . S
C1087 H1077 0.930 1_545 S
C1087 C1080 1.409 1_545 S
C1087 C1086 1.362 . S
H1088 C1094 0.930 . S
H1089 C1097 0.930 . S
H1090 C1098 0.930 . S
H1091 C1099 0.930 . S
H1092 C1102 0.930 . S
H1093 C1103 0.930 . S
C1094 H1088 0.930 . S
C1094 C1095 1.355 . S
C1094 C1096 1.415 1_554 S
C1095 C1094 1.355 . S
C1095 C1097 1.419 . S
C1096 C1094 1.415 1_556 S
C1096 C1101 1.425 1_556 S
C1096 C1103 1.409 . S
C1097 H1089 0.930 . S
C1097 C1095 1.419 . S
C1097 C1098 1.362 . S
C1098 H1090 0.930 . S
C1098 C1097 1.362 . S
C1098 C1101 1.409 . S
C1099 H1091 0.930 . S
C1099 C1100 1.355 . S
C1099 C1101 1.415 1_556 S
C1100 C1099 1.355 . S
C1100 C1102 1.419 . S
C1101 C1096 1.425 1_554 S
C1101 C1098 1.409 . S
C1101 C1099 1.415 1_554 S
C1102 H1092 0.930 . S
C1102 C1100 1.419 . S
C1102 C1103 1.362 . S
C1103 H1093 0.930 . S
C1103 C1096 1.409 . S
C1103 C1102 1.362 . S
H1104 C1110 0.930 . S
H1105 C1113 0.930 . S
H1106 C1114 0.930 . S
H1107 C1115 0.930 . S
H1108 C1118 0.930 . S
H1109 C1119 0.930 . S
C1110 H1104 0.930 . S
C1110 C1111 1.355 . S
C1110 C1112 1.415 . S
C1111 C1110 1.355 . S
C1111 C1113 1.419 . S
C1112 C1110 1.415 . S
C1112 C1117 1.425 1_455 S
C1112 C1119 1.409 . S
C1113 H1105 0.930 . S
C1113 C1111 1.419 . S
C1113 C1114 1.362 1_455 S
C1114 H1106 0.930 . S
C1114 C1113 1.362 1_655 S
C1114 C1117 1.409 . S
C1115 H1107 0.930 . S
C1115 C1116 1.355 . S
C1115 C1117 1.415 . S
C1116 C1115 1.355 . S
C1116 C1118 1.419 . S
C1117 C1112 1.425 1_655 S
C1117 C1114 1.409 . S
C1117 C1115 1.415 . S
C1118 H1108 0.930 . S
C1118 C1116 1.419 . S
C1118 C1119 1.362 1_655 S
C1119 H1109 0.930 . S
C1119 C1112 1.409 . S
C1119 C1118 1.362 1_455 S
H1120 C1126 0.930 . S
H1121 C1129 0.930 . S
H1122 C1130 0.919 1_554 S
H1123 C1131 0.930 . S
H1124 C1134 0.930 . S
H1125 C1135 0.919 1_556 S
C1126 H1120 0.930 . S
C1126 C1127 1.355 . S
C1126 C1128 1.399 1_545 S
C1127 C1126 1.355 . S
C1127 C1129 1.419 . S
C1128 C1126 1.399 1_565 S
C1128 C1133 1.453 1_566 S
C1128 C1135 1.413 1_556 S
C1129 H1121 0.930 . S
C1129 C1127 1.419 . S
C1129 C1130 1.362 . S
C1130 H1122 0.919 1_556 S
C1130 C1129 1.362 . S
C1130 C1133 1.413 1_556 S
C1131 H1123 0.930 . S
C1131 C1132 1.355 . S
C1131 C1133 1.399 1_565 S
C1132 C1131 1.355 . S
C1132 C1134 1.419 . S
C1133 C1128 1.453 1_544 S
C1133 C1130 1.413 1_554 S
C1133 C1131 1.399 1_545 S
C1134 H1124 0.930 . S
C1134 C1132 1.419 . S
C1134 C1135 1.362 . S
C1135 H1125 0.919 1_554 S
C1135 C1128 1.413 1_554 S
C1135 C1134 1.362 . S
H1136 C1142 0.930 . S
H1137 C1145 0.930 . S
H1138 C1146 0.930 . S
H1139 C1147 0.930 . S
H1140 C1150 0.930 . S
H1141 C1151 0.930 . S
C1142 H1136 0.930 . S
C1142 C1143 1.355 . S
C1142 C1144 1.415 . S
C1143 C1142 1.355 . S
C1143 C1145 1.419 . S
C1144 C1142 1.415 . S
C1144 C1149 1.425 . S
C1144 C1151 1.409 . S
C1145 H1137 0.930 . S
C1145 C1143 1.419 . S
C1145 C1146 1.362 . S
C1146 H1138 0.930 . S
C1146 C1145 1.362 . S
C1146 C1149 1.409 . S
C1147 H1139 0.930 . S
C1147 C1148 1.355 . S
C1147 C1149 1.415 . S
C1148 C1147 1.355 . S
C1148 C1150 1.419 . S
C1149 C1144 1.425 . S
C1149 C1146 1.409 . S
C1149 C1147 1.415 . S
C1150 H1140 0.930 . S
C1150 C1148 1.419 . S
C1150 C1151 1.362 . S
C1151 H1141 0.930 . S
C1151 C1144 1.409 . S
C1151 C1150 1.362 . S
H1152 C1158 0.930 . S
H1153 C1161 0.942 . S
H1154 C1162 0.930 . S
H1155 C1163 0.930 . S
H1156 C1166 0.942 . S
H1157 C1167 0.930 . S
C1158 H1152 0.930 . S
C1158 C1159 1.355 . S
C1158 C1160 1.397 1_556 S
C1159 C1158 1.355 . S
C1159 C1161 1.419 . S
C1160 C1158 1.397 1_554 S
C1160 C1165 1.424 1_654 S
C1160 C1167 1.428 . S
C1161 H1153 0.942 . S
C1161 C1159 1.419 . S
C1161 C1162 1.362 1_655 S
C1162 H1154 0.930 . S
C1162 C1161 1.362 1_455 S
C1162 C1165 1.428 . S
C1163 H1155 0.930 . S
C1163 C1164 1.355 . S
C1163 C1165 1.397 1_554 S
C1164 C1163 1.355 . S
C1164 C1166 1.419 . S
C1165 C1160 1.424 1_456 S
C1165 C1162 1.428 . S
C1165 C1163 1.397 1_556 S
C1166 H1156 0.942 . S
C1166 C1164 1.419 . S
C1166 C1167 1.362 1_455 S
C1167 H1157 0.930 . S
C1167 C1160 1.428 . S
C1167 C1166 1.362 1_655 S
H1168 C1174 0.930 . S
H1169 C1177 0.930 . S
H1170 C1178 0.930 . S
H1171 C1179 0.930 . S
H1172 C1182 0.930 . S
H1173 C1183 0.930 . S
C1174 H1168 0.930 . S
C1174 C1175 1.355 . S
C1174 C1176 1.415 . S
C1175 C1174 1.355 . S
C1175 C1177 1.419 . S
C1176 C1174 1.415 . S
C1176 C1181 1.425 1_565 S
C1176 C1183 1.409 . S
C1177 H1169 0.930 . S
C1177 C1175 1.419 . S
C1177 C1178 1.362 1_565 S
C1178 H1170 0.930 . S
C1178 C1177 1.362 1_545 S
C1178 C1181 1.409 . S
C1179 H1171 0.930 . S
C1179 C1180 1.355 . S
C1179 C1181 1.415 . S
C1180 C1179 1.355 . S
C1180 C1182 1.419 . S
C1181 C1176 1.425 1_545 S
C1181 C1178 1.409 . S
C1181 C1179 1.415 . S
C1182 H1172 0.930 . S
C1182 C1180 1.419 . S
C1182 C1183 1.362 1_545 S
C1183 H1173 0.930 . S
C1183 C1176 1.409 . S
C1183 C1182 1.362 1_565 S
H1184 C1190 0.930 . S
H1185 C1193 0.930 . S
H1186 C1194 0.922 1_554 S
H1187 C1195 0.930 . S
H1188 C1198 0.930 . S
H1189 C1199 0.922 1_556 S
C1190 H1184 0.930 . S
C1190 C1191 1.355 . S
C1190 C1192 1.415 . S
C1191 C1190 1.355 . S
C1191 C1193 1.419 . S
C1192 C1190 1.415 . S
C1192 C1197 1.425 1_556 S
C1192 C1199 1.405 1_556 S
C1193 H1185 0.930 . S
C1193 C1191 1.419 . S
C1193 C1194 1.374 . S
C1194 H1186 0.922 1_556 S
C1194 C1193 1.374 . S
C1194 C1197 1.405 1_556 S
C1195 H1187 0.930 . S
C1195 C1196 1.355 . S
C1195 C1197 1.415 . S
C1196 C1195 1.355 . S
C1196 C1198 1.419 . S
C1197 C1192 1.425 1_554 S
C1197 C1194 1.405 1_554 S
C1197 C1195 1.415 . S
C1198 H1188 0.930 . S
C1198 C1196 1.419 . S
C1198 C1199 1.374 . S
C1199 H1189 0.922 1_554 S
C1199 C1192 1.405 1_554 S
C1199 C1198 1.374 . S
H1200 C1206 0.930 1_455 S
H1201 C1209 0.930 . S
H1202 C1210 0.930 . S
H1203 C1211 0.930 1_655 S
H1204 C1214 0.930 . S
H1205 C1215 0.930 . S
C1206 H1200 0.930 1_655 S
C1206 C1207 1.355 . S
C1206 C1208 1.415 1_655 S
C1207 C1206 1.355 . S
C1207 C1209 1.419 . S
C1208 C1206 1.415 1_455 S
C1208 C1213 1.425 1_455 S
C1208 C1215 1.409 . S
C1209 H1201 0.930 . S
C1209 C1207 1.419 . S
C1209 C1210 1.362 . S
C1210 H1202 0.930 . S
C1210 C1209 1.362 . S
C1210 C1213 1.409 . S
C1211 H1203 0.930 1_455 S
C1211 C1212 1.355 . S
C1211 C1213 1.415 1_455 S
C1212 C1211 1.355 . S
C1212 C1214 1.419 . S
C1213 C1208 1.425 1_655 S
C1213 C1210 1.409 . S
C1213 C1211 1.415 1_655 S
C1214 H1204 0.930 . S
C1214 C1212 1.419 . S
C1214 C1215 1.362 . S
C1215 H1205 0.930 . S
C1215 C1208 1.409 . S
C1215 C1214 1.362 . S
H1216 C1222 0.930 . S
H1217 C1225 0.930 . S
H1218 C1226 0.930 . S
H1219 C1227 0.930 . S
H1220 C1230 0.930 . S
H1221 C1231 0.930 . S
C1222 H1216 0.930 . S
C1222 C1223 1.355 . S
C1222 C1224 1.415 . S
C1223 C1222 1.355 . S
C1223 C1225 1.419 . S
C1224 C1222 1.415 . S
C1224 C1229 1.425 1_546 S
C1224 C1231 1.409 1_556 S
C1225 H1217 0.930 . S
C1225 C1223 1.419 . S
C1225 C1226 1.362 1_545 S
C1226 H1218 0.930 . S
C1226 C1225 1.362 1_565 S
C1226 C1229 1.409 1_556 S
C1227 H1219 0.930 . S
C1227 C1228 1.355 . S
C1227 C1229 1.415 . S
C1228 C1227 1.355 . S
C1228 C1230 1.419 . S
C1229 C1224 1.425 1_564 S
C1229 C1226 1.409 1_554 S
C1229 C1227 1.415 . S
C1230 H1220 0.930 . S
C1230 C1228 1.419 . S
C1230 C1231 1.362 1_565 S
C1231 H1221 0.930 . S
C1231 C1224 1.409 1_554 S
C1231 C1230 1.362 1_545 S
H1232 C1238 0.930 . S
H1233 C1241 0.930 . S
H1234 C1242 0.930 . S
H1235 C1243 0.930 . S
H1236 C1246 0.930 . S
H1237 C1247 0.930 . S
C1238 H1232 0.930 . S
C1238 C1239 1.355 . S
C1238 C1240 1.415 . S
C1239 C1238 1.355 . S
C1239 C1241 1.419 . S
C1240 C1238 1.415 . S
C1240 C1245 1.425 . S
C1240 C1247 1.409 . S
C1241 H1233 0.930 . S
C1241 C1239 1.419 . S
C1241 C1242 1.362 . S
C1242 H1234 0.930 . S
C1242 C1241 1.362 . S
C1242 C1245 1.409 . S
C1243 H1235 0.930 . S
C1243 C1244 1.355 . S
C1243 C1245 1.415 . S
C1244 C1243 1.355 . S
C1244 C1246 1.419 . S
C1245 C1240 1.425 . S
C1245 C1242 1.409 . S
C1245 C1243 1.415 . S
C1246 H1236 0.930 . S
C1246 C1244 1.419 . S
C1246 C1247 1.362 . S
C1247 H1237 0.930 . S
C1247 C1240 1.409 . S
C1247 C1246 1.362 . S
H1248 C1254 0.930 . S
H1249 C1257 0.930 . S
H1250 C1258 0.930 . S
H1251 C1259 0.930 . S
H1252 C1262 0.930 . S
H1253 C1263 0.930 . S
C1254 H1248 0.930 . S
C1254 C1255 1.355 . S
C1254 C1256 1.415 . S
C1255 C1254 1.355 . S
C1255 C1257 1.419 . S
C1256 C1254 1.415 . S
C1256 C1261 1.425 . S
C1256 C1263 1.409 . S
C1257 H1249 0.930 . S
C1257 C1255 1.419 . S
C1257 C1258 1.362 . S
C1258 H1250 0.930 . S
C1258 C1257 1.362 . S
C1258 C1261 1.409 . S
C1259 H1251 0.930 . S
C1259 C1260 1.355 . S
C1259 C1261 1.415 . S
C1260 C1259 1.355 . S
C1260 C1262 1.419 . S
C1261 C1256 1.425 . S
C1261 C1258 1.409 . S
C1261 C1259 1.415 . S
C1262 H1252 0.930 . S
C1262 C1260 1.419 . S
C1262 C1263 1.362 . S
C1263 H1253 0.930 . S
C1263 C1256 1.409 . S
C1263 C1262 1.362 . S
H1264 C1270 0.930 . S
H1265 C1273 0.930 . S
H1266 C1274 0.930 . S
H1267 C1275 0.930 . S
H1268 C1278 0.930 . S
H1269 C1279 0.930 . S
C1270 H1264 0.930 . S
C1270 C1271 1.355 . S
C1270 C1272 1.415 . S
C1271 C1270 1.355 . S
C1271 C1273 1.419 . S
C1272 C1270 1.415 . S
C1272 C1277 1.425 . S
C1272 C1279 1.409 . S
C1273 H1265 0.930 . S
C1273 C1271 1.419 . S
C1273 C1274 1.362 . S
C1274 H1266 0.930 . S
C1274 C1273 1.362 . S
C1274 C1277 1.409 . S
C1275 H1267 0.930 . S
C1275 C1276 1.355 . S
C1275 C1277 1.415 . S
C1276 C1275 1.355 . S
C1276 C1278 1.419 . S
C1277 C1272 1.425 . S
C1277 C1274 1.409 . S
C1277 C1275 1.415 . S
C1278 H1268 0.930 . S
C1278 C1276 1.419 . S
C1278 C1279 1.362 . S
C1279 H1269 0.930 . S
C1279 C1272 1.409 . S
C1279 C1278 1.362 . S
H1280 C1286 0.930 . S
H1281 C1289 0.930 . S
H1282 C1290 0.930 . S
H1283 C1291 0.930 . S
H1284 C1294 0.930 . S
H1285 C1295 0.930 . S
C1286 H1280 0.930 . S
C1286 C1287 1.355 . S
C1286 C1288 1.415 . S
C1287 C1286 1.355 . S
C1287 C1289 1.419 . S
C1288 C1286 1.415 . S
C1288 C1293 1.425 . S
C1288 C1295 1.409 . S
C1289 H1281 0.930 . S
C1289 C1287 1.419 . S
C1289 C1290 1.362 . S
C1290 H1282 0.930 . S
C1290 C1289 1.362 . S
C1290 C1293 1.409 . S
C1291 H1283 0.930 . S
C1291 C1292 1.355 . S
C1291 C1293 1.415 . S
C1292 C1291 1.355 . S
C1292 C1294 1.419 . S
C1293 C1288 1.425 . S
C1293 C1290 1.409 . S
C1293 C1291 1.415 . S
C1294 H1284 0.930 . S
C1294 C1292 1.419 . S
C1294 C1295 1.362 . S
C1295 H1285 0.930 . S
C1295 C1288 1.409 . S
C1295 C1294 1.362 . S
H1296 C1302 0.930 . S
H1297 C1305 0.930 . S
H1298 C1306 0.930 . S
H1299 C1307 0.930 . S
H1300 C1310 0.930 . S
H1301 C1311 0.930 . S
C1302 H1296 0.930 . S
C1302 C1303 1.355 . S
C1302 C1304 1.415 . S
C1303 C1302 1.355 . S
C1303 C1305 1.419 . S
C1304 C1302 1.415 . S
C1304 C1309 1.425 . S
C1304 C1311 1.409 . S
C1305 H1297 0.930 . S
C1305 C1303 1.419 . S
C1305 C1306 1.362 . S
C1306 H1298 0.930 . S
C1306 C1305 1.362 . S
C1306 C1309 1.409 . S
C1307 H1299 0.930 . S
C1307 C1308 1.355 . S
C1307 C1309 1.415 . S
C1308 C1307 1.355 . S
C1308 C1310 1.419 . S
C1309 C1304 1.425 . S
C1309 C1306 1.409 . S
C1309 C1307 1.415 . S
C1310 H1300 0.930 . S
C1310 C1308 1.419 . S
C1310 C1311 1.362 . S
C1311 H1301 0.930 . S
C1311 C1304 1.409 . S
C1311 C1310 1.362 . S
H1312 C1318 0.930 . S
H1313 C1321 0.930 . S
H1314 C1322 0.930 . S
H1315 C1323 0.930 . S
H1316 C1326 0.930 . S
H1317 C1327 0.930 . S
C1318 H1312 0.930 . S
C1318 C1319 1.355 . S
C1318 C1320 1.415 . S
C1319 C1318 1.355 . S
C1319 C1321 1.419 . S
C1320 C1318 1.415 . S
C1320 C1325 1.425 . S
C1320 C1327 1.409 . S
C1321 H1313 0.930 . S
C1321 C1319 1.419 . S
C1321 C1322 1.362 . S
C1322 H1314 0.930 . S
C1322 C1321 1.362 . S
C1322 C1325 1.409 . S
C1323 H1315 0.930 . S
C1323 C1324 1.355 . S
C1323 C1325 1.415 . S
C1324 C1323 1.355 . S
C1324 C1326 1.419 . S
C1325 C1320 1.425 . S
C1325 C1322 1.409 . S
C1325 C1323 1.415 . S
C1326 H1316 0.930 . S
C1326 C1324 1.419 . S
C1326 C1327 1.362 . S
C1327 H1317 0.930 . S
C1327 C1320 1.409 . S
C1327 C1326 1.362 . S
H1328 C1334 0.930 . S
H1329 C1337 0.930 . S
H1330 C1338 0.930 . S
H1331 C1339 0.930 . S
H1332 C1342 0.930 . S
H1333 C1343 0.930 . S
C1334 H1328 0.930 . S
C1334 C1335 1.355 . S
C1334 C1336 1.415 . S
C1335 C1334 1.355 . S
C1335 C1337 1.419 . S
C1336 C1334 1.415 . S
C1336 C1341 1.425 . S
C1336 C1343 1.409 . S
C1337 H1329 0.930 . S
C1337 C1335 1.419 . S
C1337 C1338 1.362 . S
C1338 H1330 0.930 . S
C1338 C1337 1.362 . S
C1338 C1341 1.409 . S
C1339 H1331 0.930 . S
C1339 C1340 1.355 . S
C1339 C1341 1.415 . S
C1340 C1339 1.355 . S
C1340 C1342 1.419 . S
C1341 C1336 1.425 . S
C1341 C1338 1.409 . S
C1341 C1339 1.415 . S
C1342 H1332 0.930 . S
C1342 C1340 1.419 . S
C1342 C1343 1.362 . S
C1343 H1333 0.930 . S
C1343 C1336 1.409 . S
C1343 C1342 1.362 . S
H1344 C1350 0.930 . S
H1345 C1353 0.930 . S
H1346 C1354 0.930 . S
H1347 C1355 0.930 . S
H1348 C1358 0.930 . S
H1349 C1359 0.930 . S
C1350 H1344 0.930 . S
C1350 C1351 1.355 . S
C1350 C1352 1.415 . S
C1351 C1350 1.355 . S
C1351 C1353 1.419 . S
C1352 C1350 1.415 . S
C1352 C1357 1.425 . S
C1352 C1359 1.409 . S
C1353 H1345 0.930 . S
C1353 C1351 1.419 . S
C1353 C1354 1.362 . S
C1354 H1346 0.930 . S
C1354 C1353 1.362 . S
C1354 C1357 1.409 . S
C1355 H1347 0.930 . S
C1355 C1356 1.355 . S
C1355 C1357 1.415 . S
C1356 C1355 1.355 . S
C1356 C1358 1.419 . S
C1357 C1352 1.425 . S
C1357 C1354 1.409 . S
C1357 C1355 1.415 . S
C1358 H1348 0.930 . S
C1358 C1356 1.419 . S
C1358 C1359 1.362 . S
C1359 H1349 0.930 . S
C1359 C1352 1.409 . S
C1359 C1358 1.362 . S
H1360 C1366 0.930 . S
H1361 C1369 0.930 . S
H1362 C1370 0.930 . S
H1363 C1371 0.930 . S
H1364 C1374 0.930 . S
H1365 C1375 0.930 . S
C1366 H1360 0.930 . S
C1366 C1367 1.355 . S
C1366 C1368 1.415 . S
C1367 C1366 1.355 . S
C1367 C1369 1.419 . S
C1368 C1366 1.415 . S
C1368 C1373 1.425 . S
C1368 C1375 1.409 . S
C1369 H1361 0.930 . S
C1369 C1367 1.419 . S
C1369 C1370 1.362 . S
C1370 H1362 0.930 . S
C1370 C1369 1.362 . S
C1370 C1373 1.409 . S
C1371 H1363 0.930 . S
C1371 C1372 1.355 . S
C1371 C1373 1.415 . S
C1372 C1371 1.355 . S
C1372 C1374 1.419 . S
C1373 C1368 1.425 . S
C1373 C1370 1.409 . S
C1373 C1371 1.415 . S
C1374 H1364 0.930 . S
C1374 C1372 1.419 . S
C1374 C1375 1.362 . S
C1375 H1365 0.930 . S
C1375 C1368 1.409 . S
C1375 C1374 1.362 . S
H1376 C1382 0.930 . S
H1377 C1385 0.930 . S
H1378 C1386 0.930 . S
H1379 C1387 0.930 . S
H1380 C1390 0.930 . S
H1381 C1391 0.930 . S
C1382 H1376 0.930 . S
C1382 C1383 1.355 . S
C1382 C1384 1.415 . S
C1383 C1382 1.355 . S
C1383 C1385 1.419 . S
C1384 C1382 1.415 . S
C1384 C1389 1.425 . S
C1384 C1391 1.409 . S
C1385 H1377 0.930 . S
C1385 C1383 1.419 . S
C1385 C1386 1.362 . S
C1386 H1378 0.930 . S
C1386 C1385 1.362 . S
C1386 C1389 1.409 . S
C1387 H1379 0.930 . S
C1387 C1388 1.355 . S
C1387 C1389 1.415 . S
C1388 C1387 1.355 . S
C1388 C1390 1.419 . S
C1389 C1384 1.425 . S
C1389 C1386 1.409 . S
C1389 C1387 1.415 . S
C1390 H1380 0.930 . S
C1390 C1388 1.419 . S
C1390 C1391 1.362 . S
C1391 H1381 0.930 . S
C1391 C1384 1.409 . S
C1391 C1390 1.362 . S
H1392 C1398 0.930 . S
H1393 C1401 0.930 . S
H1394 C1402 0.930 . S
H1395 C1403 0.930 . S
H1396 C1406 0.930 . S
H1397 C1407 0.930 . S
C1398 H1392 0.930 . S
C1398 C1399 1.355 . S
C1398 C1400 1.415 . S
C1399 C1398 1.355 . S
C1399 C1401 1.419 . S
C1400 C1398 1.415 . S
C1400 C1405 1.425 . S
C1400 C1407 1.409 . S
C1401 H1393 0.930 . S
C1401 C1399 1.419 . S
C1401 C1402 1.362 . S
C1402 H1394 0.930 . S
C1402 C1401 1.362 . S
C1402 C1405 1.409 . S
C1403 H1395 0.930 . S
C1403 C1404 1.355 . S
C1403 C1405 1.415 . S
C1404 C1403 1.355 . S
C1404 C1406 1.419 . S
C1405 C1400 1.425 . S
C1405 C1402 1.409 . S
C1405 C1403 1.415 . S
C1406 H1396 0.930 . S
C1406 C1404 1.419 . S
C1406 C1407 1.362 . S
C1407 H1397 0.930 . S
C1407 C1400 1.409 . S
C1407 C1406 1.362 . S
H1408 C1414 0.930 . S
H1409 C1417 0.930 . S
H1410 C1418 0.930 . S
H1411 C1419 0.930 . S
H1412 C1422 0.930 . S
H1413 C1423 0.930 . S
C1414 H1408 0.930 . S
C1414 C1415 1.355 . S
C1414 C1416 1.415 . S
C1415 C1414 1.355 . S
C1415 C1417 1.419 . S
C1416 C1414 1.415 . S
C1416 C1421 1.425 . S
C1416 C1423 1.409 . S
C1417 H1409 0.930 . S
C1417 C1415 1.419 . S
C1417 C1418 1.362 . S
C1418 H1410 0.930 . S
C1418 C1417 1.362 . S
C1418 C1421 1.409 . S
C1419 H1411 0.930 . S
C1419 C1420 1.355 . S
C1419 C1421 1.415 . S
C1420 C1419 1.355 . S
C1420 C1422 1.419 . S
C1421 C1416 1.425 . S
C1421 C1418 1.409 . S
C1421 C1419 1.415 . S
C1422 H1412 0.930 . S
C1422 C1420 1.419 . S
C1422 C1423 1.362 . S
C1423 H1413 0.930 . S
C1423 C1416 1.409 . S
C1423 C1422 1.362 . S
H1424 C1430 0.930 . S
H1425 C1433 0.930 . S
H1426 C1434 0.930 . S
H1427 C1435 0.930 . S
H1428 C1438 0.930 . S
H1429 C1439 0.930 . S
C1430 H1424 0.930 . S
C1430 C1431 1.355 . S
C1430 C1432 1.415 . S
C1431 C1430 1.355 . S
C1431 C1433 1.419 . S
C1432 C1430 1.415 . S
C1432 C1437 1.425 . S
C1432 C1439 1.409 . S
C1433 H1425 0.930 . S
C1433 C1431 1.419 . S
C1433 C1434 1.362 . S
C1434 H1426 0.930 . S
C1434 C1433 1.362 . S
C1434 C1437 1.409 . S
C1435 H1427 0.930 . S
C1435 C1436 1.355 . S
C1435 C1437 1.415 . S
C1436 C1435 1.355 . S
C1436 C1438 1.419 . S
C1437 C1432 1.425 . S
C1437 C1434 1.409 . S
C1437 C1435 1.415 . S
C1438 H1428 0.930 . S
C1438 C1436 1.419 . S
C1438 C1439 1.362 . S
C1439 H1429 0.930 . S
C1439 C1432 1.409 . S
C1439 C1438 1.362 . S
C1063 C57 1.460 . S
C1068 C997 1.473 . S
C1079 C548 1.451 . S
C1084 C145 1.479 . S
C1095 C225 1.472 . S
C1100 C636 1.461 . S
C1111 C733 1.451 . S
C1116 C321 1.479 . S
C1127 C821 1.453 . S
C1132 C401 1.476 . S
C1143 C900 1.462 . S
C1148 C497 1.466 . S
C1159 C293 1.459 . S
C1164 C761 1.474 . S
C1175 C372 1.482 . S
C1180 C849 1.450 . S
C1191 C469 1.474 . S
C1196 C929 1.458 . S
C1207 C1025 1.455 . S
C1212 C29 1.476 . S
C1223 C117 1.482 . S
C1228 C577 1.450 . S
C1239 C196 1.473 . S
C1244 C665 1.459 . S
C1255 C753 1.463 . S
C1260 C20 1.463 . S
C1271 C841 1.464 . S
C1276 C108 1.467 . S
C1287 C205 1.462 . S
C1292 C937 1.469 . S
C1303 C284 1.474 . S
C1308 C1017 1.453 . S
C1319 C381 1.475 . S
C1324 C585 1.455 . S
C1335 C673 1.469 . S
C1340 C460 1.462 . S
C1351 C49 1.068 . S
C1356 C909 1.071 . S
C1367 C988 1.063 . S
C1372 C137 1.074 . S
C1383 C233 1.062 . S
C1388 C557 1.073 . S
C1399 C313 1.071 . S
C1404 C645 1.063 . S
C1415 C409 1.063 . S
C1420 C724 1.074 . S
C1431 C489 1.070 . S
C1436 C812 1.069 . S
