# Generated by pormake.
# Topology can, (4)-cn, num edge types: 1
# Building blocks:
#     Node 0, Type 0, BuildingBlock: AZAVOO_clean_sbu_0, # of connection points: 4
#     Node 1, Type 0, BuildingBlock: AZAVOO_clean_sbu_0, # of connection points: 4
#     Node 2, Type 0, BuildingBlock: AZAVOO_clean_sbu_0, # of connection points: 4
#     Node 3, Type 0, BuildingBlock: AZAVOO_clean_sbu_0, # of connection points: 4
#     Node 4, Type 0, BuildingBlock: AZAVOO_clean_sbu_0, # of connection points: 4
#     Node 5, Type 0, BuildingBlock: AZAVOO_clean_sbu_0, # of connection points: 4
#     Node 6, Type 0, BuildingBlock: AZAVOO_clean_sbu_0, # of connection points: 4
#     Node 7, Type 0, BuildingBlock: AZAVOO_clean_sbu_0, # of connection points: 4
#     Node 8, Type 0, BuildingBlock: AZAVOO_clean_sbu_0, # of connection points: 4
#     Node 9, Type 0, BuildingBlock: AZAVOO_clean_sbu_0, # of connection points: 4
#     Node 10, Type 0, BuildingBlock: AZAVOO_clean_sbu_0, # of connection points: 4
#     Node 11, Type 0, BuildingBlock: AZAVOO_clean_sbu_0, # of connection points: 4
#     Edge 12, Type (0, 0), BuildingBlock: EZIPEK_clean_linker_0, # of connection points: 2
#     Edge 13, Type (0, 0), BuildingBlock: EZIPEK_clean_linker_0, # of connection points: 2
#     Edge 14, Type (0, 0), BuildingBlock: EZIPEK_clean_linker_0, # of connection points: 2
#     Edge 15, Type (0, 0), BuildingBlock: EZIPEK_clean_linker_0, # of connection points: 2
#     Edge 16, Type (0, 0), BuildingBlock: EZIPEK_clean_linker_0, # of connection points: 2
#     Edge 17, Type (0, 0), BuildingBlock: EZIPEK_clean_linker_0, # of connection points: 2
#     Edge 18, Type (0, 0), BuildingBlock: EZIPEK_clean_linker_0, # of connection points: 2
#     Edge 19, Type (0, 0), BuildingBlock: EZIPEK_clean_linker_0, # of connection points: 2
#     Edge 20, Type (0, 0), BuildingBlock: EZIPEK_clean_linker_0, # of connection points: 2
#     Edge 21, Type (0, 0), BuildingBlock: EZIPEK_clean_linker_0, # of connection points: 2
#     Edge 22, Type (0, 0), BuildingBlock: EZIPEK_clean_linker_0, # of connection points: 2
#     Edge 23, Type (0, 0), BuildingBlock: EZIPEK_clean_linker_0, # of connection points: 2
#     Edge 24, Type (0, 0), BuildingBlock: EZIPEK_clean_linker_0, # of connection points: 2
#     Edge 25, Type (0, 0), BuildingBlock: EZIPEK_clean_linker_0, # of connection points: 2
#     Edge 26, Type (0, 0), BuildingBlock: EZIPEK_clean_linker_0, # of connection points: 2
#     Edge 27, Type (0, 0), BuildingBlock: EZIPEK_clean_linker_0, # of connection points: 2
#     Edge 28, Type (0, 0), BuildingBlock: EZIPEK_clean_linker_0, # of connection points: 2
#     Edge 29, Type (0, 0), BuildingBlock: EZIPEK_clean_linker_0, # of connection points: 2
#     Edge 30, Type (0, 0), BuildingBlock: EZIPEK_clean_linker_0, # of connection points: 2
#     Edge 31, Type (0, 0), BuildingBlock: EZIPEK_clean_linker_0, # of connection points: 2
#     Edge 32, Type (0, 0), BuildingBlock: EZIPEK_clean_linker_0, # of connection points: 2
#     Edge 33, Type (0, 0), BuildingBlock: EZIPEK_clean_linker_0, # of connection points: 2
#     Edge 34, Type (0, 0), BuildingBlock: EZIPEK_clean_linker_0, # of connection points: 2
#     Edge 35, Type (0, 0), BuildingBlock: EZIPEK_clean_linker_0, # of connection points: 2
# Relax obj value: 0.085
# Max RMSD: 0.100
# Mean RMSD: 0.100
data_MOF--net-can--node1-AZAVOO_clean_sbu_0--edge1-EZIPEK_clean_linker_0
_symmetry_space_group_name_H-M    P1
_symmetry_Int_Tables_number       1
_symmetry_cell_setting            triclinic
loop_
_symmetry_equiv_pos_as_xyz
'x, y, z'
_cell_length_a     43.957342
_cell_length_b     44.036932
_cell_length_c     20.025599
_cell_angle_alpha  89.557498
_cell_angle_beta   89.997552
_cell_angle_gamma 119.93461
loop_
_atom_site_label
_atom_site_type_symbol
_atom_site_fract_x
_atom_site_fract_y
_atom_site_fract_z
_atom_type_partial_charge
Mg0 Mg 0.03918 0.37904 0.24703 0.0
O1 O 0.05214 0.43615 0.24008 0.0
O2 O 0.07949 0.46333 0.33373 0.0
Mg3 Mg 0.08539 0.42374 0.39979 0.0
C4 C 0.06652 0.46331 0.27667 0.0
C5 C -0.00484 0.3457 0.12037 0.0
O6 O -0.02436 0.32302 0.16671 0.0
O7 O 0.09629 0.39485 0.22611 0.0
O8 O 0.122 0.41891 0.32352 0.0
O9 O -0.01092 0.36413 0.30148 0.0
O10 O 0.03981 0.3803 0.35106 0.0
C11 C 0.12305 0.4087 0.26443 0.0
C12 C 0.00705 0.37054 0.35595 0.0
O13 O 0.02422 0.37224 0.13649 0.0
Mg14 Mg 0.64094 0.04714 0.73952 0.0
O15 O 0.59476 0.05767 0.73453 0.0
O16 O 0.5951 0.0856 0.82774 0.0
Mg17 Mg 0.63989 0.09093 0.89447 0.0
C18 C 0.58209 0.07236 0.77112 0.0
C19 C 0.63984 0.00821 0.61123 0.0
O20 O 0.65184 -0.0053 0.6556 0.0
O21 O 0.68029 0.10518 0.72006 0.0
O22 O 0.68138 0.12903 0.8194 0.0
O23 O 0.60872 -0.00427 0.79261 0.0
O24 O 0.63887 0.04657 0.84316 0.0
C25 C 0.69267 0.13129 0.75973 0.0
C26 C 0.61822 0.01326 0.84764 0.0
O27 O 0.63374 0.03236 0.62896 0.0
Mg28 Mg 0.57006 0.64687 0.26354 0.0
O29 O 0.51255 0.60281 0.25549 0.0
O30 O 0.48446 0.60354 0.34802 0.0
Mg31 Mg 0.52378 0.64717 0.41531 0.0
C32 C 0.48487 0.59087 0.29125 0.0
C33 C 0.60702 0.64198 0.13633 0.0
O34 O 0.63157 0.65091 0.1817 0.0
O35 O 0.55569 0.68957 0.24404 0.0
O36 O 0.52791 0.68808 0.33859 0.0
O37 O 0.584 0.61082 0.31651 0.0
O38 O 0.56827 0.64521 0.36794 0.0
C39 C 0.54005 0.70121 0.28098 0.0
C40 C 0.57807 0.62215 0.37172 0.0
O41 O 0.5778 0.63922 0.15306 0.0
Mg42 Mg 0.90633 0.58214 0.75495 0.0
O43 O 0.89452 0.52548 0.7478 0.0
O44 O 0.86713 0.49672 0.84116 0.0
Mg45 Mg 0.8612 0.53545 0.90863 0.0
C46 C 0.88022 0.49774 0.78373 0.0
C47 C 0.94661 0.61947 0.62538 0.0
O48 O 0.96094 0.645 0.66883 0.0
O49 O 0.84869 0.56531 0.736 0.0
O50 O 0.82379 0.54023 0.83425 0.0
O51 O 0.95682 0.59798 0.80799 0.0
O52 O 0.906 0.58024 0.85907 0.0
C53 C 0.82215 0.55069 0.77535 0.0
C54 C 0.93902 0.59102 0.86301 0.0
O55 O 0.92166 0.58974 0.64425 0.0
Mg56 Mg 0.30536 0.91415 0.25382 0.0
O57 O 0.35102 0.9032 0.24738 0.0
O58 O 0.35187 0.87581 0.34115 0.0
Mg59 Mg 0.30624 0.86898 0.40771 0.0
C60 C 0.36447 0.88916 0.28394 0.0
C61 C 0.31096 0.95632 0.1264 0.0
O62 O 0.30293 0.97246 0.17206 0.0
O63 O 0.26527 0.8566 0.23461 0.0
O64 O 0.2648 0.83152 0.33297 0.0
O65 O 0.33927 0.96453 0.3064 0.0
O66 O 0.30622 0.91372 0.35792 0.0
C67 C 0.25316 0.82999 0.27388 0.0
C68 C 0.32836 0.94669 0.3615 0.0
O69 O 0.31317 0.92956 0.14315 0.0
Mg70 Mg 0.37424 0.31394 0.75605 0.0
O71 O 0.43151 0.35754 0.74854 0.0
O72 O 0.45877 0.35948 0.84384 0.0
Mg73 Mg 0.41948 0.31396 0.91017 0.0
C74 C 0.4587 0.37131 0.78547 0.0
C75 C 0.33993 0.32258 0.62775 0.0
O76 O 0.31671 0.3185 0.67341 0.0
O77 O 0.39004 0.27259 0.73783 0.0
O78 O 0.41514 0.27235 0.83537 0.0
O79 O 0.35964 0.34973 0.80836 0.0
O80 O 0.37587 0.31553 0.85994 0.0
C81 C 0.4046 0.26047 0.77673 0.0
C82 C 0.3663 0.33867 0.8635 0.0
O83 O 0.36717 0.32133 0.64485 0.0
Mg84 Mg 0.57332 0.91273 0.21439 0.0
O85 O 0.51681 0.90222 0.22441 0.0
O86 O 0.4866 0.87417 0.1335 0.0
Mg87 Mg 0.52444 0.86805 0.06407 0.0
C88 C 0.48857 0.88776 0.19044 0.0
C89 C 0.61222 0.9509 0.34335 0.0
O90 O 0.63802 0.96394 0.29959 0.0
O91 O 0.55661 0.85515 0.23233 0.0
O92 O 0.52752 0.82968 0.13882 0.0
O93 O 0.58968 0.96348 0.16277 0.0
O94 O 0.5704 0.91292 0.1107 0.0
C95 C 0.54001 0.82811 0.19556 0.0
C96 C 0.58169 0.94606 0.10758 0.0
O97 O 0.58182 0.92737 0.32496 0.0
Mg98 Mg 0.63949 0.58033 0.73655 0.0
O99 O 0.59453 0.52309 0.73483 0.0
O100 O 0.59835 0.49883 0.6395 0.0
Mg101 Mg 0.64326 0.54159 0.57692 0.0
C102 C 0.5839 0.49694 0.69584 0.0
C103 C 0.63841 0.61466 0.86905 0.0
O104 O 0.65435 0.64165 0.82819 0.0
O105 O 0.68003 0.56279 0.75383 0.0
O106 O 0.68416 0.54427 0.6518 0.0
O107 O 0.60641 0.59913 0.68643 0.0
O108 O 0.63932 0.58219 0.63304 0.0
C109 C 0.69415 0.55143 0.7124 0.0
C110 C 0.61721 0.59323 0.63048 0.0
O111 O 0.62977 0.58426 0.84772 0.0
Mg112 Mg 0.04196 0.64777 0.22583 0.0
O113 O 0.05384 0.60278 0.2303 0.0
O114 O 0.08432 0.60556 0.1387 0.0
Mg115 Mg 0.08808 0.64998 0.07186 0.0
C116 C 0.07002 0.59148 0.19448 0.0
C117 C 0.00389 0.64689 0.35602 0.0
O118 O -0.00825 0.66093 0.31311 0.0
O119 O 0.09945 0.68859 0.24568 0.0
O120 O 0.12473 0.69162 0.14661 0.0
O121 O -0.00854 0.61343 0.17423 0.0
O122 O 0.04174 0.647 0.12147 0.0
C123 C 0.12599 0.70222 0.20628 0.0
C124 C 0.00879 0.62426 0.11865 0.0
O125 O 0.02678 0.6392 0.33661 0.0
Mg126 Mg 0.37363 0.04912 0.72351 0.0
O127 O 0.43036 0.06059 0.7259 0.0
O128 O 0.45781 0.0905 0.6333 0.0
Mg129 Mg 0.41725 0.09542 0.56883 0.0
C130 C 0.45766 0.07622 0.68907 0.0
C131 C 0.33703 0.01356 0.85683 0.0
O132 O 0.30993 0.00424 0.81745 0.0
O133 O 0.39076 0.10646 0.74425 0.0
O134 O 0.41319 0.13211 0.64518 0.0
O135 O 0.35717 -0.00115 0.67135 0.0
O136 O 0.37385 0.04931 0.61916 0.0
C137 C 0.40402 0.1332 0.70526 0.0
C138 C 0.36374 0.01644 0.61601 0.0
O139 O 0.36777 0.0337 0.83406 0.0
Mg140 Mg 0.30623 0.38065 0.22422 0.0
O141 O 0.34717 0.43822 0.2354 0.0
O142 O 0.34932 0.46814 0.14458 0.0
Mg143 Mg 0.30965 0.42816 0.071 0.0
C144 C 0.35914 0.46723 0.20419 0.0
C145 C 0.31503 0.34702 0.35354 0.0
O146 O 0.31474 0.32566 0.30781 0.0
O147 O 0.26261 0.39393 0.23791 0.0
O148 O 0.26415 0.41995 0.14001 0.0
O149 O 0.34515 0.36898 0.17699 0.0
O150 O 0.31132 0.3841 0.12067 0.0
C151 C 0.25068 0.40813 0.19759 0.0
C152 C 0.33532 0.37553 0.12033 0.0
O153 O 0.31093 0.37259 0.33613 0.0
Mg154 Mg 0.90346 0.31409 0.71899 0.0
O155 O 0.89214 0.35927 0.72551 0.0
O156 O 0.86328 0.35936 0.63358 0.0
Mg157 Mg 0.85979 0.31621 0.56465 0.0
C158 C 0.8768 0.37183 0.69028 0.0
C159 C 0.94533 0.32176 0.84744 0.0
O160 O 0.96508 0.31879 0.80172 0.0
O161 O 0.8457 0.27324 0.73611 0.0
O162 O 0.82186 0.27282 0.63674 0.0
O163 O 0.95471 0.34913 0.66895 0.0
O164 O 0.9049 0.31695 0.61488 0.0
C165 C 0.81973 0.26072 0.6958 0.0
C166 C 0.93796 0.33933 0.61296 0.0
O167 O 0.91661 0.31999 0.83036 0.0
C168 C -0.02466 0.36441 0.01802 0.0
C169 C -0.01699 0.34015 0.05009 0.0
C170 C 0.96166 0.30195 0.95229 0.0
C171 C 0.95703 0.32766 0.91799 0.0
N172 N 0.96484 0.38593 0.91372 0.0
N173 N -0.0107 0.28887 0.04412 0.0
C174 C 0.96527 0.3596 0.94965 0.0
C175 C -0.02227 0.3097 0.01624 0.0
N176 N -0.02364 0.3913 0.05354 0.0
N177 N 0.94956 0.26963 0.92473 0.0
H178 H 0.00162 0.29392 0.0905 0.0
H179 H -0.01032 0.2685 0.0188 0.0
H180 H 0.93728 0.26283 0.8783 0.0
H181 H 0.94871 0.24855 0.95035 0.0
H182 H 0.96725 0.40746 0.03505 0.0
H183 H -0.01647 0.39571 0.1037 0.0
H184 H -0.02559 0.41117 0.9319 0.0
H185 H 0.95767 0.38352 0.86356 0.0
C186 C 0.63464 0.00229 0.42102 0.0
C187 C 0.61811 0.96543 0.41203 0.0
C188 C 0.6105 0.957 0.53333 0.0
C189 C 0.63161 -0.00623 0.54247 0.0
N190 N 0.66923 0.05105 0.49406 0.0
N191 N 0.59588 0.90784 0.46105 0.0
C192 C 0.64517 0.01637 0.48605 0.0
C193 C 0.60749 0.94276 0.46858 0.0
N194 N 0.6389 0.02385 0.36806 0.0
N195 N 0.59204 0.93572 0.58585 0.0
H196 H 0.59422 0.89642 0.41479 0.0
H197 H 0.59128 0.8909 0.50126 0.0
H198 H 0.59218 0.94519 0.63349 0.0
H199 H 0.5736 0.90926 0.58042 0.0
H200 H 0.64764 0.05048 0.37323 0.0
H201 H 0.63003 0.01458 0.32013 0.0
H202 H 0.68263 0.06779 0.45418 0.0
H203 H 0.67847 0.06234 0.54061 0.0
C204 C 0.60697 0.64934 0.01113 0.0
C205 C 0.61296 0.63335 0.06754 0.0
C206 C 0.63725 0.60615 -0.00584 0.0
C207 C 0.62844 0.61967 0.93744 0.0
N208 N 0.59601 0.6461 0.89233 0.0
N209 N 0.625 0.58899 0.11047 0.0
C210 C 0.61068 0.63893 0.946 0.0
C211 C 0.62554 0.60952 0.05843 0.0
N212 N 0.5993 0.67558 0.01928 0.0
N213 N 0.65811 0.59149 0.98742 0.0
H214 H 0.61514 0.58942 0.1576 0.0
H215 H 0.63064 0.5688 0.10485 0.0
H216 H 0.66813 0.58935 0.94163 0.0
H217 H 0.66828 0.58462 0.02807 0.0
H218 H 0.59837 0.69055 0.97962 0.0
H219 H 0.59733 0.68482 0.06593 0.0
H220 H 0.5799 0.65707 0.89686 0.0
H221 H 0.59658 0.63751 0.84421 0.0
C222 C 0.01211 0.64996 0.48105 0.0
C223 C -0.01063 0.63838 0.42512 0.0
C224 C 0.93843 0.61626 0.50034 0.0
C225 C 0.96101 0.62492 0.55628 0.0
N226 N 0.01873 0.64162 0.59856 0.0
N227 N 0.93061 0.60231 0.38277 0.0
C228 C -0.00229 0.63936 0.5463 0.0
C229 C 0.95241 0.61913 0.43508 0.0
N230 N 0.04728 0.67233 0.47245 0.0
N231 N 0.90395 0.60678 0.50896 0.0
H232 H 0.93978 0.60238 0.33471 0.0
H233 H 0.90377 0.58512 0.38864 0.0
H234 H 0.89278 0.60533 0.55564 0.0
H235 H 0.88734 0.60377 0.46932 0.0
H236 H 0.06437 0.68442 0.51211 0.0
H237 H 0.05889 0.6816 0.42577 0.0
H238 H 0.04502 0.64873 0.59263 0.0
H239 H 0.00909 0.63268 0.64659 0.0
C240 C 0.31093 0.96201 0.93605 0.0
C241 C 0.33172 -0.00119 0.92571 0.0
C242 C 0.34385 0.00638 0.04578 0.0
C243 C 0.31894 0.97043 0.05697 0.0
N244 N 0.27397 0.91524 0.01277 0.0
N245 N 0.36308 0.0568 0.97287 0.0
C246 C 0.30118 0.9485 0.00211 0.0
C247 C 0.34696 0.02126 0.98114 0.0
N248 N 0.30168 0.93974 0.88313 0.0
N249 N 0.36558 0.02606 0.09615 0.0
H250 H 0.36506 0.06887 0.92682 0.0
H251 H 0.37136 0.07415 0.01276 0.0
H252 H 0.36518 0.01584 0.14351 0.0
H253 H 0.38652 0.05139 0.08883 0.0
H254 H 0.28952 0.91262 0.8887 0.0
H255 H 0.30958 0.94836 0.8342 0.0
H256 H 0.25779 0.89955 0.97457 0.0
H257 H 0.2653 0.90451 0.06027 0.0
C258 C 0.35229 0.36642 0.45694 0.0
C259 C 0.32107 0.34154 0.42442 0.0
C260 C 0.3046 0.30268 0.52252 0.0
C261 C 0.3342 0.32881 0.5571 0.0
N262 N 0.38324 0.38784 0.56161 0.0
N263 N 0.26463 0.28876 0.42945 0.0
C264 C 0.3573 0.36133 0.5255 0.0
C265 C 0.29642 0.3104 0.45811 0.0
N266 N 0.37781 0.39417 0.42163 0.0
N267 N 0.28504 0.27001 0.55023 0.0
H268 H 0.25758 0.29369 0.38257 0.0
H269 H 0.24405 0.26768 0.45442 0.0
H270 H 0.29042 0.26323 0.59699 0.0
H271 H 0.2655 0.24873 0.52455 0.0
H272 H 0.40272 0.411 0.44045 0.0
H273 H 0.37522 0.39878 0.37136 0.0
H274 H 0.39836 0.41335 0.54349 0.0
H275 H 0.38782 0.38518 0.61184 0.0
C276 C 0.97299 0.57994 0.95148 0.0
C277 C 0.95647 0.59868 0.92883 0.0
C278 C 0.97105 0.63114 0.03385 0.0
C279 C -0.00963 0.61471 0.05382 0.0
N280 N 0.01385 0.57696 0.02876 0.0
N281 N 0.9449 0.64643 0.94271 0.0
C282 C -0.00734 0.59019 0.01164 0.0
C283 C 0.9567 0.62535 0.9686 0.0
N284 N 0.96849 0.55133 0.91711 0.0
N285 N 0.96635 0.65232 0.07724 0.0
H286 H 0.93472 0.64359 0.89468 0.0
H287 H 0.9481 0.66882 0.96633 0.0
H288 H -0.02198 0.65897 0.12419 0.0
H289 H 0.94887 0.66138 0.06868 0.0
H290 H -0.02311 0.53438 0.93433 0.0
H291 H 0.9533 0.54266 0.87413 0.0
H292 H 0.01971 0.56201 -0.00316 0.0
H293 H 0.02761 0.58309 0.07346 0.0
C294 C 0.37211 0.97757 0.45254 0.0
C295 C 0.33775 0.96413 0.427 0.0
C296 C 0.31993 -0.01795 0.52842 0.0
C297 C 0.35513 -0.00161 0.55109 0.0
N298 N 0.41589 0.01635 0.5313 0.0
N299 N 0.28015 0.95803 0.43494 0.0
C300 C 0.38163 -0.00242 0.51205 0.0
C301 C 0.3119 0.96746 0.46349 0.0
N302 N 0.39508 0.96989 0.4215 0.0
N303 N 0.29406 0.98015 0.56924 0.0
H304 H 0.27314 0.94722 0.38742 0.0
H305 H 0.26179 0.96357 0.45582 0.0
H306 H 0.29897 -0.00823 0.61614 0.0
H307 H 0.2674 0.96492 0.55881 0.0
H308 H 0.41941 0.97602 0.44106 0.0
H309 H 0.38827 0.95429 0.37916 0.0
H310 H 0.43684 0.01981 0.50158 0.0
H311 H 0.42351 0.03079 0.57508 0.0
C312 C 0.33275 0.32274 0.97049 0.0
C313 C 0.35934 0.34894 0.92939 0.0
C314 C 0.37052 0.39339 0.01383 0.0
C315 C 0.34579 0.36665 0.05665 0.0
N316 N 0.3072 0.30519 0.08087 0.0
N317 N 0.40724 0.40795 0.91471 0.0
C318 C 0.32825 0.33109 0.03664 0.0
C319 C 0.37924 0.38403 0.95167 0.0
N320 N 0.31041 0.29032 0.94503 0.0
N321 N 0.38536 0.42766 0.03239 0.0
H322 H 0.41439 0.40172 0.86943 0.0
H323 H 0.42498 0.43306 0.93113 0.0
H324 H 0.38085 0.43513 0.07899 0.0
H325 H 0.40052 0.44868 0.0005 0.0
H326 H 0.28805 0.27147 0.96996 0.0
H327 H 0.3121 0.28322 0.8962 0.0
H328 H 0.29727 0.27864 0.07181 0.0
H329 H 0.30176 0.31009 0.12899 0.0
C330 C -0.02495 0.33139 0.52868 0.0
C331 C 0.95698 0.34904 0.54854 0.0
C332 C -0.02492 0.38373 0.445 0.0
C333 C -0.00994 0.36364 0.42236 0.0
N334 N -0.00072 0.31436 0.43738 0.0
N335 N 0.93579 0.3888 0.52322 0.0
C336 C -0.01111 0.33651 0.46292 0.0
C337 C 0.95573 0.37423 0.50588 0.0
N338 N -0.02103 0.30965 0.57261 0.0
N339 N -0.01924 0.41281 0.40987 0.0
H340 H 0.92234 0.38327 0.56847 0.0
H341 H 0.93065 0.40437 0.49105 0.0
H342 H -0.00412 0.42098 0.36647 0.0
H343 H -0.02653 0.43057 0.42685 0.0
H344 H -0.00445 0.29955 0.56386 0.0
H345 H 0.96771 0.30362 0.62016 0.0
H346 H -0.00473 0.29168 0.46174 0.0
H347 H 0.00907 0.31672 0.38902 0.0
C348 C 0.57243 0.97471 0.93284 0.0
C349 C 0.60832 -0.00442 0.91398 0.0
C350 C 0.62636 -0.01714 0.02194 0.0
C351 C 0.59067 0.96435 0.04232 0.0
N352 N 0.53001 0.94595 0.0223 0.0
N353 N 0.6699 0.02065 0.9408 0.0
C354 C 0.56375 0.9611 -0.00091 0.0
C355 C 0.6354 0.00019 0.95886 0.0
N356 N 0.5466 0.96747 0.8873 0.0
N357 N 0.65147 -0.01784 0.06139 0.0
H358 H 0.67816 0.02982 0.8923 0.0
H359 H 0.6906 0.02965 0.97445 0.0
H360 H 0.64614 0.9701 0.1083 0.0
H361 H 0.67724 -0.00876 0.04612 0.0
H362 H 0.52023 0.9493 0.89537 0.0
H363 H 0.55173 0.97772 0.83911 0.0
H364 H 0.50958 0.94612 -0.00365 0.0
H365 H 0.52292 0.93553 0.07036 0.0
C366 C 0.56085 0.59406 0.48588 0.0
C367 C 0.58727 0.61303 0.4372 0.0
C368 C 0.63279 0.62263 0.5186 0.0
C369 C 0.60636 0.60079 0.56519 0.0
N370 N 0.54507 0.56344 0.59249 0.0
N371 N 0.64844 0.64245 0.40432 0.0
C372 C 0.5703 0.58606 0.54888 0.0
C373 C 0.62321 0.62614 0.45255 0.0
N374 N 0.52668 0.5838 0.47187 0.0
N375 N 0.66694 0.64215 0.53889 0.0
H376 H 0.64336 0.64848 0.35669 0.0
H377 H 0.67427 0.64806 0.41011 0.0
H378 H 0.67499 0.64201 0.58781 0.0
H379 H 0.6868 0.66146 0.50944 0.0
H380 H 0.50663 0.57396 0.50733 0.0
H381 H 0.51867 0.58688 0.42475 0.0
H382 H 0.5186 0.54847 0.58053 0.0
H383 H 0.55071 0.55762 0.63977 0.0
C384 C 0.0371 0.52655 0.21303 0.0
C385 C 0.06926 0.55878 0.21532 0.0
C386 C 0.10018 0.52767 0.24869 0.0
C387 C 0.06753 0.49586 0.25283 0.0
N388 N 0.00411 0.46558 0.24626 0.0
N389 N 0.13058 0.5912 0.24365 0.0
C390 C 0.03577 0.49539 0.2366 0.0
C391 C 0.10061 0.55967 0.23535 0.0
N392 N 0.00793 0.52547 0.18627 0.0
N393 N 0.13087 0.52708 0.25455 0.0
H394 H 0.13181 0.61509 0.23401 0.0
H395 H 0.1533 0.59384 0.26529 0.0
H396 H 0.13166 0.50407 0.26269 0.0
H397 H 0.15549 0.54873 0.24507 0.0
H398 H -0.01489 0.50228 0.17472 0.0
H399 H 0.00723 0.54775 0.17075 0.0
H400 H -0.01985 0.465 0.24439 0.0
H401 H 0.00149 0.44168 0.26077 0.0
C402 C 0.52083 0.10703 0.72448 0.0
C403 C 0.48962 0.0754 0.70953 0.0
C404 C 0.5186 0.04165 0.73723 0.0
C405 C 0.55053 0.07342 0.74785 0.0
N406 N 0.58382 0.13649 0.74051 0.0
N407 N 0.45999 0.01296 0.69112 0.0
C408 C 0.55213 0.10619 0.73849 0.0
C409 C 0.48882 0.04279 0.71303 0.0
N410 N 0.5202 0.13772 0.72776 0.0
N411 N 0.51621 0.01028 0.75298 0.0
H412 H 0.43712 0.01222 0.67488 0.0
H413 H 0.45958 -0.01064 0.68414 0.0
H414 H 0.53753 0.00817 0.76924 0.0
H415 H 0.49262 -0.01339 0.7549 0.0
H416 H 0.54095 0.16099 0.7457 0.0
H417 H 0.49776 0.1393 0.71771 0.0
H418 H 0.58737 0.16091 0.72686 0.0
H419 H 0.60727 0.13685 0.75027 0.0
C420 C 0.43048 0.56314 0.22072 0.0
C421 C 0.45229 0.55969 0.26874 0.0
C422 C 0.40687 0.4991 0.29108 0.0
C423 C 0.38723 0.50044 0.23577 0.0
N424 N 0.37238 0.53791 0.17217 0.0
N425 N 0.46427 0.52277 0.34051 0.0
C426 C 0.39685 0.53371 0.20679 0.0
C427 C 0.44133 0.52722 0.30131 0.0
N428 N 0.44222 0.59435 0.18772 0.0
N429 N 0.39166 0.47308 0.33816 0.0
H430 H 0.49027 0.54241 0.34707 0.0
H431 H 0.45867 0.49848 0.35996 0.0
H432 H 0.36469 0.45607 0.34102 0.0
H433 H 0.40453 0.47247 0.38141 0.0
H434 H 0.42956 0.59764 0.14675 0.0
H435 H 0.46619 0.61661 0.19832 0.0
H436 H 0.3766 0.56182 0.15349 0.0
H437 H 0.34607 0.51834 0.17021 0.0
C438 C 0.91104 0.46636 0.74159 0.0
C439 C 0.87921 0.46565 0.75811 0.0
C440 C 0.84591 0.40264 0.73405 0.0
C441 C 0.87742 0.40396 0.71361 0.0
N442 N 0.93923 0.43779 0.68756 0.0
N443 N 0.81586 0.4349 0.75802 0.0
C444 C 0.90979 0.43602 0.71457 0.0
C445 C 0.84647 0.43423 0.75116 0.0
N446 N 0.94264 0.49558 0.75413 0.0
N447 N 0.81564 0.37101 0.73915 0.0
H448 H 0.81516 0.45759 0.76944 0.0
H449 H 0.79129 0.41383 0.7465 0.0
H450 H 0.81426 0.34743 0.72653 0.0
H451 H 0.79266 0.36775 0.76088 0.0
H452 H 0.96655 0.49607 0.75189 0.0
H453 H 0.94509 0.51889 0.77148 0.0
H454 H 0.96245 0.46122 0.6787 0.0
H455 H 0.93984 0.41605 0.66903 0.0
C456 C 0.39575 0.85649 0.25296 0.0
C457 C 0.39628 0.88886 0.25954 0.0
C458 C 0.45705 0.92038 0.21777 0.0
C459 C 0.45728 0.88829 0.21635 0.0
N460 N 0.42931 0.82664 0.2423 0.0
N461 N 0.42891 0.95222 0.25675 0.0
C462 C 0.4273 0.85655 0.23668 0.0
C463 C 0.42731 0.92099 0.24407 0.0
N464 N 0.36473 0.82562 0.25914 0.0
N465 N 0.48482 0.95016 0.19178 0.0
H466 H 0.4076 0.95419 0.27368 0.0
H467 H 0.45209 0.97628 0.25509 0.0
H468 H 0.50765 0.95122 0.1742 0.0
H469 H 0.48434 0.97326 0.18314 0.0
H470 H 0.36189 0.80131 0.24777 0.0
H471 H 0.34095 0.82445 0.26977 0.0
H472 H 0.40966 0.80352 0.26386 0.0
H473 H 0.45198 0.82572 0.23066 0.0
C474 C 0.51873 0.4587 0.69892 0.0
C475 C 0.55221 0.46366 0.71505 0.0
C476 C 0.52437 0.40531 0.76689 0.0
C477 C 0.49097 0.40287 0.76031 0.0
N478 N 0.45794 0.43178 0.73183 0.0
N479 N 0.58753 0.44356 0.77092 0.0
C480 C 0.48849 0.43076 0.72933 0.0
C481 C 0.55525 0.43753 0.75116 0.0
N482 N 0.51568 0.48019 0.65325 0.0
N483 N 0.52662 0.37646 0.78463 0.0
H484 H 0.61069 0.46655 0.75878 0.0
H485 H 0.59101 0.42697 0.80345 0.0
H486 H 0.50464 0.35184 0.79268 0.0
H487 H 0.55009 0.37602 0.78412 0.0
H488 H 0.49161 0.47581 0.6351 0.0
H489 H 0.53732 0.49987 0.62782 0.0
H490 H 0.45612 0.45336 0.71557 0.0
H491 H 0.43545 0.41309 0.75665 0.0
C492 C 0.15509 0.3764 0.23982 0.0
C493 C 0.1554 0.40874 0.24375 0.0
C494 C 0.21907 0.44081 0.22456 0.0
C495 C 0.21817 0.40845 0.21541 0.0
N496 N 0.18454 0.34573 0.20128 0.0
N497 N 0.18611 0.47151 0.23072 0.0
C498 C 0.18596 0.3763 0.21943 0.0
C499 C 0.187 0.44094 0.23356 0.0
N500 N 0.12576 0.34585 0.25839 0.0
N501 N 0.25065 0.47125 0.22682 0.0
H502 H 0.16297 0.47234 0.23683 0.0
H503 H 0.20751 0.49553 0.21683 0.0
H504 H 0.27461 0.47204 0.22065 0.0
H505 H 0.25338 0.49529 0.24014 0.0
H506 H 0.12541 0.32215 0.26422 0.0
H507 H 0.10246 0.34455 0.27366 0.0
H508 H 0.16112 0.32217 0.19569 0.0
H509 H 0.20652 0.34439 0.18596 0.0
C510 C 0.75508 0.2278 0.72115 0.0
C511 C 0.78725 0.22792 0.7141 0.0
C512 C 0.75735 0.16484 0.73818 0.0
C513 C 0.72474 0.16417 0.7401 0.0
N514 N 0.69141 0.19349 0.72476 0.0
N515 N 0.81814 0.19568 0.70268 0.0
C516 C 0.72328 0.19529 0.72922 0.0
C517 C 0.78818 0.19621 0.71906 0.0
N518 N 0.75514 0.25887 0.72201 0.0
N519 N 0.75916 0.13588 0.75718 0.0
H520 H 0.84141 0.21798 0.68827 0.0
H521 H 0.8191 0.17265 0.69763 0.0
H522 H 0.73723 0.11215 0.77097 0.0
H523 H 0.78276 0.13617 0.76466 0.0
H524 H 0.7332 0.26097 0.73372 0.0
H525 H 0.77801 0.28305 0.71614 0.0
H526 H 0.6882 0.21449 0.71039 0.0
H527 H 0.6678 0.16999 0.7301 0.0
C528 C 0.54147 0.75832 0.30612 0.0
C529 C 0.53807 0.7327 0.25896 0.0
C530 C 0.54022 0.77176 0.16939 0.0
C531 C 0.53754 0.79432 0.21688 0.0
N532 N 0.52423 0.80109 0.33127 0.0
N533 N 0.52305 0.71168 0.14564 0.0
C534 C 0.53447 0.78509 0.28555 0.0
C535 C 0.53385 0.73825 0.19052 0.0
N536 N 0.55369 0.759 0.36913 0.0
N537 N 0.55122 0.78271 0.10541 0.0
H538 H 0.51549 0.68601 0.15961 0.0
H539 H 0.51738 0.71439 0.0961 0.0
H540 H 0.56056 0.80834 0.08889 0.0
H541 H 0.55576 0.76753 0.07149 0.0
H542 H 0.55869 0.77896 0.40266 0.0
H543 H 0.56355 0.74298 0.38471 0.0
H544 H 0.51948 0.79314 0.38123 0.0
H545 H 0.51618 0.81892 0.31785 0.0
C546 C 0.78877 0.58249 0.76115 0.0
C547 C 0.78957 0.55074 0.75692 0.0
C548 C 0.72645 0.5186 0.73292 0.0
C549 C 0.72635 0.55079 0.73181 0.0
N550 N 0.75868 0.61411 0.73216 0.0
N551 N 0.76092 0.48931 0.73129 0.0
C552 C 0.75783 0.58296 0.74266 0.0
C553 C 0.75883 0.51893 0.7408 0.0
N554 N 0.81724 0.61205 0.78501 0.0
N555 N 0.69542 0.48773 0.72821 0.0
H556 H 0.7843 0.48889 0.73669 0.0
H557 H 0.74038 0.466 0.71305 0.0
H558 H 0.67135 0.48669 0.72221 0.0
H559 H 0.69306 0.46321 0.7354 0.0
H560 H 0.81665 0.63472 0.79702 0.0
H561 H 0.84073 0.61316 0.79809 0.0
H562 H 0.7818 0.63825 0.73138 0.0
H563 H 0.73673 0.61588 0.71841 0.0
C564 C 0.18844 0.79694 0.25371 0.0
C565 C 0.22095 0.79738 0.2547 0.0
C566 C 0.19035 0.73414 0.23345 0.0
C567 C 0.15834 0.73441 0.22673 0.0
N568 N 0.12783 0.76718 0.21811 0.0
N569 N 0.25405 0.76797 0.23805 0.0
C570 C 0.15759 0.7661 0.23364 0.0
C571 C 0.22225 0.76636 0.24262 0.0
N572 N 0.18673 0.82559 0.27441 0.0
N573 N 0.19002 0.70294 0.23288 0.0
H574 H 0.27777 0.7912 0.2445 0.0
H575 H 0.25717 0.74715 0.22275 0.0
H576 H 0.16708 0.67899 0.22627 0.0
H577 H 0.21175 0.70039 0.24419 0.0
H578 H 0.16318 0.8253 0.28248 0.0
H579 H 0.20866 0.84891 0.28914 0.0
H580 H 0.12706 0.79039 0.21439 0.0
H581 H 0.10454 0.74528 0.20318 0.0
C582 C 0.37255 0.19601 0.75585 0.0
C583 C 0.40481 0.22819 0.75751 0.0
C584 C 0.43698 0.19714 0.73434 0.0
C585 C 0.40453 0.16556 0.72675 0.0
N586 N 0.34132 0.136 0.71811 0.0
N587 N 0.46746 0.26069 0.74134 0.0
C588 C 0.37226 0.16524 0.73434 0.0
C589 C 0.43703 0.22913 0.74497 0.0
N590 N 0.34228 0.19452 0.77732 0.0
N591 N 0.46763 0.19629 0.7332 0.0
H592 H 0.4683 0.2845 0.74908 0.0
H593 H 0.49136 0.2636 0.72572 0.0
H594 H 0.46834 0.17325 0.72558 0.0
H595 H 0.49197 0.21761 0.74501 0.0
H596 H 0.31883 0.1711 0.78479 0.0
H597 H 0.34114 0.2164 0.79344 0.0
H598 H 0.31751 0.13566 0.7149 0.0
H599 H 0.33972 0.11277 0.70209 0.0
loop_
_geom_bond_atom_site_label_1
_geom_bond_atom_site_label_2
_geom_bond_distance
_geom_bond_site_symmetry_2
_ccdc_geom_bond_type
Mg0 O1 2.028 . S
Mg0 O7 1.986 . S
Mg0 O9 2.114 . S
Mg0 O10 2.251 . S
Mg0 O13 2.010 . S
O1 Mg0 2.028 . S
O1 C4 1.250 . S
O2 Mg3 2.028 . S
O2 C4 1.248 . S
Mg3 O2 2.028 . S
Mg3 O8 2.032 . S
Mg3 O10 2.079 . S
C4 O1 1.250 . S
C4 O2 1.248 . S
C5 O6 1.264 . S
C5 O13 1.249 . S
O6 C5 1.264 . S
O7 Mg0 1.986 . S
O7 C11 1.246 . S
O8 Mg3 2.032 . S
O8 C11 1.259 . S
O9 Mg0 2.114 . S
O9 C12 1.252 . S
O10 Mg0 2.251 . S
O10 Mg3 2.079 . S
O10 C12 1.273 . S
C11 O7 1.246 . S
C11 O8 1.259 . S
C12 O9 1.252 . S
C12 O10 1.273 . S
O13 Mg0 2.010 . S
O13 C5 1.249 . S
Mg14 O15 2.028 . S
Mg14 O21 1.986 . S
Mg14 O23 2.114 . S
Mg14 O24 2.251 . S
Mg14 O27 2.010 . S
O15 Mg14 2.028 . S
O15 C18 1.250 . S
O16 Mg17 2.028 . S
O16 C18 1.248 . S
Mg17 O16 2.028 . S
Mg17 O22 2.032 . S
Mg17 O24 2.079 . S
C18 O15 1.250 . S
C18 O16 1.248 . S
C19 O20 1.264 . S
C19 O27 1.249 . S
O20 C19 1.264 . S
O21 Mg14 1.986 . S
O21 C25 1.246 . S
O22 Mg17 2.032 . S
O22 C25 1.259 . S
O23 Mg14 2.114 . S
O23 C26 1.252 . S
O24 Mg14 2.251 . S
O24 Mg17 2.079 . S
O24 C26 1.273 . S
C25 O21 1.246 . S
C25 O22 1.259 . S
C26 O23 1.252 . S
C26 O24 1.273 . S
O27 Mg14 2.010 . S
O27 C19 1.249 . S
Mg28 O29 2.028 . S
Mg28 O35 1.986 . S
Mg28 O37 2.114 . S
Mg28 O38 2.251 . S
Mg28 O41 2.010 . S
O29 Mg28 2.028 . S
O29 C32 1.250 . S
O30 Mg31 2.028 . S
O30 C32 1.248 . S
Mg31 O30 2.028 . S
Mg31 O36 2.032 . S
Mg31 O38 2.079 . S
C32 O29 1.250 . S
C32 O30 1.248 . S
C33 O34 1.264 . S
C33 O41 1.249 . S
O34 C33 1.264 . S
O35 Mg28 1.986 . S
O35 C39 1.246 . S
O36 Mg31 2.032 . S
O36 C39 1.259 . S
O37 Mg28 2.114 . S
O37 C40 1.252 . S
O38 Mg28 2.251 . S
O38 Mg31 2.079 . S
O38 C40 1.273 . S
C39 O35 1.246 . S
C39 O36 1.259 . S
C40 O37 1.252 . S
C40 O38 1.273 . S
O41 Mg28 2.010 . S
O41 C33 1.249 . S
Mg42 O43 2.028 . S
Mg42 O49 1.986 . S
Mg42 O51 2.114 . S
Mg42 O52 2.251 . S
Mg42 O55 2.010 . S
O43 Mg42 2.028 . S
O43 C46 1.250 . S
O44 Mg45 2.028 . S
O44 C46 1.248 . S
Mg45 O44 2.028 . S
Mg45 O50 2.032 . S
Mg45 O52 2.079 . S
C46 O43 1.250 . S
C46 O44 1.248 . S
C47 O48 1.264 . S
C47 O55 1.249 . S
O48 C47 1.264 . S
O49 Mg42 1.986 . S
O49 C53 1.246 . S
O50 Mg45 2.032 . S
O50 C53 1.259 . S
O51 Mg42 2.114 . S
O51 C54 1.252 . S
O52 Mg42 2.251 . S
O52 Mg45 2.079 . S
O52 C54 1.273 . S
C53 O49 1.246 . S
C53 O50 1.259 . S
C54 O51 1.252 . S
C54 O52 1.273 . S
O55 Mg42 2.010 . S
O55 C47 1.249 . S
Mg56 O57 2.028 . S
Mg56 O63 1.986 . S
Mg56 O65 2.114 . S
Mg56 O66 2.251 . S
Mg56 O69 2.010 . S
O57 Mg56 2.028 . S
O57 C60 1.250 . S
O58 Mg59 2.028 . S
O58 C60 1.248 . S
Mg59 O58 2.028 . S
Mg59 O64 2.032 . S
Mg59 O66 2.079 . S
C60 O57 1.250 . S
C60 O58 1.248 . S
C61 O62 1.264 . S
C61 O69 1.249 . S
O62 C61 1.264 . S
O63 Mg56 1.986 . S
O63 C67 1.246 . S
O64 Mg59 2.032 . S
O64 C67 1.259 . S
O65 Mg56 2.114 . S
O65 C68 1.252 . S
O66 Mg56 2.251 . S
O66 Mg59 2.079 . S
O66 C68 1.273 . S
C67 O63 1.246 . S
C67 O64 1.259 . S
C68 O65 1.252 . S
C68 O66 1.273 . S
O69 Mg56 2.010 . S
O69 C61 1.249 . S
Mg70 O71 2.028 . S
Mg70 O77 1.986 . S
Mg70 O79 2.114 . S
Mg70 O80 2.251 . S
Mg70 O83 2.010 . S
O71 Mg70 2.028 . S
O71 C74 1.250 . S
O72 Mg73 2.028 . S
O72 C74 1.248 . S
Mg73 O72 2.028 . S
Mg73 O78 2.032 . S
Mg73 O80 2.079 . S
C74 O71 1.250 . S
C74 O72 1.248 . S
C75 O76 1.264 . S
C75 O83 1.249 . S
O76 C75 1.264 . S
O77 Mg70 1.986 . S
O77 C81 1.246 . S
O78 Mg73 2.032 . S
O78 C81 1.259 . S
O79 Mg70 2.114 . S
O79 C82 1.252 . S
O80 Mg70 2.251 . S
O80 Mg73 2.079 . S
O80 C82 1.273 . S
C81 O77 1.246 . S
C81 O78 1.259 . S
C82 O79 1.252 . S
C82 O80 1.273 . S
O83 Mg70 2.010 . S
O83 C75 1.249 . S
Mg84 O85 2.028 . S
Mg84 O91 1.986 . S
Mg84 O93 2.114 . S
Mg84 O94 2.251 . S
Mg84 O97 2.010 . S
O85 Mg84 2.028 . S
O85 C88 1.250 . S
O86 Mg87 2.028 . S
O86 C88 1.248 . S
Mg87 O86 2.028 . S
Mg87 O92 2.032 . S
Mg87 O94 2.079 . S
C88 O85 1.250 . S
C88 O86 1.248 . S
C89 O90 1.264 . S
C89 O97 1.249 . S
O90 C89 1.264 . S
O91 Mg84 1.986 . S
O91 C95 1.246 . S
O92 Mg87 2.032 . S
O92 C95 1.259 . S
O93 Mg84 2.114 . S
O93 C96 1.252 . S
O94 Mg84 2.251 . S
O94 Mg87 2.079 . S
O94 C96 1.273 . S
C95 O91 1.246 . S
C95 O92 1.259 . S
C96 O93 1.252 . S
C96 O94 1.273 . S
O97 Mg84 2.010 . S
O97 C89 1.249 . S
Mg98 O99 2.028 . S
Mg98 O105 1.986 . S
Mg98 O107 2.114 . S
Mg98 O108 2.251 . S
Mg98 O111 2.010 . S
O99 Mg98 2.028 . S
O99 C102 1.250 . S
O100 Mg101 2.028 . S
O100 C102 1.248 . S
Mg101 O100 2.028 . S
Mg101 O106 2.032 . S
Mg101 O108 2.079 . S
C102 O99 1.250 . S
C102 O100 1.248 . S
C103 O104 1.264 . S
C103 O111 1.249 . S
O104 C103 1.264 . S
O105 Mg98 1.986 . S
O105 C109 1.246 . S
O106 Mg101 2.032 . S
O106 C109 1.259 . S
O107 Mg98 2.114 . S
O107 C110 1.252 . S
O108 Mg98 2.251 . S
O108 Mg101 2.079 . S
O108 C110 1.273 . S
C109 O105 1.246 . S
C109 O106 1.259 . S
C110 O107 1.252 . S
C110 O108 1.273 . S
O111 Mg98 2.010 . S
O111 C103 1.249 . S
Mg112 O113 2.028 . S
Mg112 O119 1.986 . S
Mg112 O121 2.114 . S
Mg112 O122 2.251 . S
Mg112 O125 2.010 . S
O113 Mg112 2.028 . S
O113 C116 1.250 . S
O114 Mg115 2.028 . S
O114 C116 1.248 . S
Mg115 O114 2.028 . S
Mg115 O120 2.032 . S
Mg115 O122 2.079 . S
C116 O113 1.250 . S
C116 O114 1.248 . S
C117 O118 1.264 . S
C117 O125 1.249 . S
O118 C117 1.264 . S
O119 Mg112 1.986 . S
O119 C123 1.246 . S
O120 Mg115 2.032 . S
O120 C123 1.259 . S
O121 Mg112 2.114 . S
O121 C124 1.252 . S
O122 Mg112 2.251 . S
O122 Mg115 2.079 . S
O122 C124 1.273 . S
C123 O119 1.246 . S
C123 O120 1.259 . S
C124 O121 1.252 . S
C124 O122 1.273 . S
O125 Mg112 2.010 . S
O125 C117 1.249 . S
Mg126 O127 2.028 . S
Mg126 O133 1.986 . S
Mg126 O135 2.114 . S
Mg126 O136 2.251 . S
Mg126 O139 2.010 . S
O127 Mg126 2.028 . S
O127 C130 1.250 . S
O128 Mg129 2.028 . S
O128 C130 1.248 . S
Mg129 O128 2.028 . S
Mg129 O134 2.032 . S
Mg129 O136 2.079 . S
C130 O127 1.250 . S
C130 O128 1.248 . S
C131 O132 1.264 . S
C131 O139 1.249 . S
O132 C131 1.264 . S
O133 Mg126 1.986 . S
O133 C137 1.246 . S
O134 Mg129 2.032 . S
O134 C137 1.259 . S
O135 Mg126 2.114 . S
O135 C138 1.252 . S
O136 Mg126 2.251 . S
O136 Mg129 2.079 . S
O136 C138 1.273 . S
C137 O133 1.246 . S
C137 O134 1.259 . S
C138 O135 1.252 . S
C138 O136 1.273 . S
O139 Mg126 2.010 . S
O139 C131 1.249 . S
Mg140 O141 2.028 . S
Mg140 O147 1.986 . S
Mg140 O149 2.114 . S
Mg140 O150 2.251 . S
Mg140 O153 2.010 . S
O141 Mg140 2.028 . S
O141 C144 1.250 . S
O142 Mg143 2.028 . S
O142 C144 1.248 . S
Mg143 O142 2.028 . S
Mg143 O148 2.032 . S
Mg143 O150 2.079 . S
C144 O141 1.250 . S
C144 O142 1.248 . S
C145 O146 1.264 . S
C145 O153 1.249 . S
O146 C145 1.264 . S
O147 Mg140 1.986 . S
O147 C151 1.246 . S
O148 Mg143 2.032 . S
O148 C151 1.259 . S
O149 Mg140 2.114 . S
O149 C152 1.252 . S
O150 Mg140 2.251 . S
O150 Mg143 2.079 . S
O150 C152 1.273 . S
C151 O147 1.246 . S
C151 O148 1.259 . S
C152 O149 1.252 . S
C152 O150 1.273 . S
O153 Mg140 2.010 . S
O153 C145 1.249 . S
Mg154 O155 2.028 . S
Mg154 O161 1.986 . S
Mg154 O163 2.114 . S
Mg154 O164 2.251 . S
Mg154 O167 2.010 . S
O155 Mg154 2.028 . S
O155 C158 1.250 . S
O156 Mg157 2.028 . S
O156 C158 1.248 . S
Mg157 O156 2.028 . S
Mg157 O162 2.032 . S
Mg157 O164 2.079 . S
C158 O155 1.250 . S
C158 O156 1.248 . S
C159 O160 1.264 . S
C159 O167 1.249 . S
O160 C159 1.264 . S
O161 Mg154 1.986 . S
O161 C165 1.246 . S
O162 Mg157 2.032 . S
O162 C165 1.259 . S
O163 Mg154 2.114 . S
O163 C166 1.252 . S
O164 Mg154 2.251 . S
O164 Mg157 2.079 . S
O164 C166 1.273 . S
C165 O161 1.246 . S
C165 O162 1.259 . S
C166 O163 1.252 . S
C166 O164 1.273 . S
O167 Mg154 2.010 . S
O167 C159 1.249 . S
C168 C169 1.363 . S
C168 C174 1.379 1_454 S
C168 N176 1.356 . S
C169 C168 1.363 . S
C169 C175 1.363 . S
C170 C171 1.363 . S
C170 C175 1.379 1_656 S
C170 N177 1.356 . S
C171 C170 1.363 . S
C171 C174 1.363 . S
N172 C174 1.356 . S
N172 H184 0.984 . S
N172 H185 0.985 . S
N173 C175 1.356 . S
N173 H178 0.984 . S
N173 H179 0.985 . S
C174 C168 1.379 1_656 S
C174 C171 1.363 . S
C174 N172 1.356 . S
C175 C169 1.363 . S
C175 C170 1.379 1_454 S
C175 N173 1.356 . S
N176 C168 1.356 . S
N176 H182 0.984 . S
N176 H183 0.984 . S
N177 C170 1.356 . S
N177 H180 0.984 . S
N177 H181 0.985 . S
H178 N173 0.984 . S
H179 N173 0.985 . S
H180 N177 0.984 . S
H181 N177 0.985 . S
H182 N176 0.984 . S
H183 N176 0.984 . S
H184 N172 0.984 . S
H185 N172 0.985 . S
C186 C187 1.363 1_545 S
C186 C192 1.379 . S
C186 N194 1.356 . S
C187 C186 1.363 1_565 S
C187 C193 1.363 . S
C188 C189 1.363 1_565 S
C188 C193 1.379 . S
C188 N195 1.356 . S
C189 C188 1.363 1_545 S
C189 C192 1.363 . S
N190 C192 1.356 . S
N190 H202 0.984 . S
N190 H203 0.985 . S
N191 C193 1.356 . S
N191 H196 0.984 . S
N191 H197 0.985 . S
C192 C186 1.379 . S
C192 C189 1.363 . S
C192 N190 1.356 . S
C193 C187 1.363 . S
C193 C188 1.379 . S
C193 N191 1.356 . S
N194 C186 1.356 . S
N194 H200 0.984 . S
N194 H201 0.984 . S
N195 C188 1.356 . S
N195 H198 0.984 . S
N195 H199 0.985 . S
H196 N191 0.984 . S
H197 N191 0.985 . S
H198 N195 0.984 . S
H199 N195 0.985 . S
H200 N194 0.984 . S
H201 N194 0.984 . S
H202 N190 0.984 . S
H203 N190 0.985 . S
C204 C205 1.363 . S
C204 C210 1.379 1_554 S
C204 N212 1.356 . S
C205 C204 1.363 . S
C205 C211 1.363 . S
C206 C207 1.363 . S
C206 C211 1.379 1_556 S
C206 N213 1.356 . S
C207 C206 1.363 . S
C207 C210 1.363 . S
N208 C210 1.356 . S
N208 H220 0.984 . S
N208 H221 0.985 . S
N209 C211 1.356 . S
N209 H214 0.984 . S
N209 H215 0.985 . S
C210 C204 1.379 1_556 S
C210 C207 1.363 . S
C210 N208 1.356 . S
C211 C205 1.363 . S
C211 C206 1.379 1_554 S
C211 N209 1.356 . S
N212 C204 1.356 . S
N212 H218 0.991 . S
N212 H219 0.984 . S
N213 C206 1.356 . S
N213 H216 0.984 . S
N213 H217 0.991 . S
H214 N209 0.984 . S
H215 N209 0.985 . S
H216 N213 0.984 . S
H217 N213 0.991 . S
H218 N212 0.991 . S
H219 N212 0.984 . S
H220 N208 0.984 . S
H221 N208 0.985 . S
C222 C223 1.363 . S
C222 C228 1.379 . S
C222 N230 1.356 . S
C223 C222 1.363 . S
C223 C229 1.363 1_455 S
C224 C225 1.363 . S
C224 C229 1.379 . S
C224 N231 1.356 . S
C225 C224 1.363 . S
C225 C228 1.363 1_655 S
N226 C228 1.356 . S
N226 H238 0.984 . S
N226 H239 0.985 . S
N227 C229 1.356 . S
N227 H232 0.984 . S
N227 H233 0.985 . S
C228 C222 1.379 . S
C228 C225 1.363 1_455 S
C228 N226 1.356 . S
C229 C223 1.363 1_655 S
C229 C224 1.379 . S
C229 N227 1.356 . S
N230 C222 1.356 . S
N230 H236 0.984 . S
N230 H237 0.984 . S
N231 C224 1.356 . S
N231 H234 0.984 . S
N231 H235 0.985 . S
H232 N227 0.984 . S
H233 N227 0.985 . S
H234 N231 0.984 . S
H235 N231 0.985 . S
H236 N230 0.984 . S
H237 N230 0.984 . S
H238 N226 0.984 . S
H239 N226 0.985 . S
C240 C241 1.363 1_565 S
C240 C246 1.379 1_556 S
C240 N248 1.356 . S
C241 C240 1.363 1_545 S
C241 C247 1.363 . S
C242 C243 1.363 1_545 S
C242 C247 1.379 1_554 S
C242 N249 1.356 . S
C243 C242 1.363 1_565 S
C243 C246 1.363 . S
N244 C246 1.356 . S
N244 H256 0.984 . S
N244 H257 0.985 . S
N245 C247 1.356 . S
N245 H250 0.984 . S
N245 H251 0.985 . S
C246 C240 1.379 1_554 S
C246 C243 1.363 . S
C246 N244 1.356 . S
C247 C241 1.363 . S
C247 C242 1.379 1_556 S
C247 N245 1.356 . S
N248 C240 1.356 . S
N248 H254 0.984 . S
N248 H255 0.984 . S
N249 C242 1.356 . S
N249 H252 0.984 . S
N249 H253 0.985 . S
H250 N245 0.984 . S
H251 N245 0.985 . S
H252 N249 0.984 . S
H253 N249 0.985 . S
H254 N248 0.984 . S
H255 N248 0.984 . S
H256 N244 0.984 . S
H257 N244 0.985 . S
C258 C259 1.363 . S
C258 C264 1.379 . S
C258 N266 1.356 . S
C259 C258 1.363 . S
C259 C265 1.363 . S
C260 C261 1.363 . S
C260 C265 1.379 . S
C260 N267 1.356 . S
C261 C260 1.363 . S
C261 C264 1.363 . S
N262 C264 1.356 . S
N262 H274 0.984 . S
N262 H275 0.985 . S
N263 C265 1.356 . S
N263 H268 0.984 . S
N263 H269 0.985 . S
C264 C258 1.379 . S
C264 C261 1.363 . S
C264 N262 1.356 . S
C265 C259 1.363 . S
C265 C260 1.379 . S
C265 N263 1.356 . S
N266 C258 1.356 . S
N266 H272 0.984 . S
N266 H273 0.984 . S
N267 C260 1.356 . S
N267 H270 0.984 . S
N267 H271 0.985 . S
H268 N263 0.984 . S
H269 N263 0.985 . S
H270 N267 0.984 . S
H271 N267 0.985 . S
H272 N266 0.984 . S
H273 N266 0.984 . S
H274 N262 0.984 . S
H275 N262 0.985 . S
C276 C277 1.363 1_455 S
C276 C282 1.379 1_556 S
C276 N284 1.356 . S
C277 C276 1.363 1_655 S
C277 C283 1.363 . S
C278 C279 1.363 1_655 S
C278 C283 1.379 1_554 S
C278 N285 1.356 . S
C279 C278 1.363 1_455 S
C279 C282 1.363 . S
N280 C282 1.356 . S
N280 H292 0.984 1_554 S
N280 H293 0.985 . S
N281 C283 1.356 . S
N281 H286 0.984 . S
N281 H287 0.985 1_556 S
C282 C276 1.379 1_554 S
C282 C279 1.363 . S
C282 N280 1.356 . S
C283 C277 1.363 . S
C283 C278 1.379 1_556 S
C283 N281 1.356 . S
N284 C276 1.356 . S
N284 H290 0.984 . S
N284 H291 0.984 1_455 S
N285 C278 1.356 . S
N285 H288 0.984 1_655 S
N285 H289 0.985 . S
H286 N281 0.984 . S
H287 N281 0.985 1_554 S
H288 N285 0.984 1_455 S
H289 N285 0.985 . S
H290 N284 0.984 . S
H291 N284 0.984 1_655 S
H292 N280 0.984 1_556 S
H293 N280 0.985 . S
C294 C295 1.363 1_545 S
C294 C300 1.379 . S
C294 N302 1.356 . S
C295 C294 1.363 1_565 S
C295 C301 1.363 . S
C296 C297 1.363 1_565 S
C296 C301 1.379 . S
C296 N303 1.356 . S
C297 C296 1.363 1_545 S
C297 C300 1.363 . S
N298 C300 1.356 . S
N298 H310 0.984 . S
N298 H311 0.985 . S
N299 C301 1.356 . S
N299 H304 0.984 . S
N299 H305 0.985 . S
C300 C294 1.379 . S
C300 C297 1.363 . S
C300 N298 1.356 . S
C301 C295 1.363 . S
C301 C296 1.379 . S
C301 N299 1.356 . S
N302 C294 1.356 . S
N302 H308 0.984 . S
N302 H309 0.984 1_545 S
N303 C296 1.356 . S
N303 H306 0.984 1_565 S
N303 H307 0.985 . S
H304 N299 0.984 . S
H305 N299 0.985 . S
H306 N303 0.984 1_545 S
H307 N303 0.985 . S
H308 N302 0.984 . S
H309 N302 0.984 1_565 S
H310 N298 0.984 . S
H311 N298 0.985 . S
C312 C313 1.363 . S
C312 C318 1.379 1_556 S
C312 N320 1.356 . S
C313 C312 1.363 . S
C313 C319 1.363 . S
C314 C315 1.363 . S
C314 C319 1.379 1_554 S
C314 N321 1.356 . S
C315 C314 1.363 . S
C315 C318 1.363 . S
N316 C318 1.356 . S
N316 H328 0.984 . S
N316 H329 0.985 . S
N317 C319 1.356 . S
N317 H322 0.984 . S
N317 H323 0.985 . S
C318 C312 1.379 1_554 S
C318 C315 1.363 . S
C318 N316 1.356 . S
C319 C313 1.363 . S
C319 C314 1.379 1_556 S
C319 N317 1.356 . S
N320 C312 1.356 . S
N320 H326 0.985 . S
N320 H327 0.984 . S
N321 C314 1.356 . S
N321 H324 0.984 . S
N321 H325 0.985 . S
H322 N317 0.984 . S
H323 N317 0.985 . S
H324 N321 0.984 . S
H325 N321 0.985 . S
H326 N320 0.985 . S
H327 N320 0.984 . S
H328 N316 0.984 . S
H329 N316 0.985 . S
C330 C331 1.363 . S
C330 C336 1.379 1_655 S
C330 N338 1.356 . S
C331 C330 1.363 . S
C331 C337 1.363 . S
C332 C333 1.363 . S
C332 C337 1.379 1_455 S
C332 N339 1.356 . S
C333 C332 1.363 . S
C333 C336 1.363 . S
N334 C336 1.356 . S
N334 H346 0.984 . S
N334 H347 0.985 . S
N335 C337 1.356 . S
N335 H340 0.984 . S
N335 H341 0.985 . S
C336 C330 1.379 1_455 S
C336 C333 1.363 . S
C336 N334 1.356 . S
C337 C331 1.363 . S
C337 C332 1.379 1_655 S
C337 N335 1.356 . S
N338 C330 1.356 . S
N338 H344 0.984 . S
N338 H345 0.984 . S
N339 C332 1.356 . S
N339 H342 0.984 . S
N339 H343 0.985 . S
H340 N335 0.984 . S
H341 N335 0.985 . S
H342 N339 0.984 . S
H343 N339 0.985 . S
H344 N338 0.984 . S
H345 N338 0.984 . S
H346 N334 0.984 . S
H347 N334 0.985 . S
C348 C349 1.363 1_565 S
C348 C354 1.379 1_556 S
C348 N356 1.356 . S
C349 C348 1.363 1_545 S
C349 C355 1.363 . S
C350 C351 1.363 1_545 S
C350 C355 1.379 1_554 S
C350 N357 1.356 . S
C351 C350 1.363 1_565 S
C351 C354 1.363 . S
N352 C354 1.356 . S
N352 H364 0.984 1_554 S
N352 H365 0.985 . S
N353 C355 1.356 . S
N353 H358 0.984 . S
N353 H359 0.985 1_556 S
C354 C348 1.379 1_554 S
C354 C351 1.363 . S
C354 N352 1.356 . S
C355 C349 1.363 . S
C355 C350 1.379 1_556 S
C355 N353 1.356 . S
N356 C348 1.356 . S
N356 H362 0.984 . S
N356 H363 0.984 1_565 S
N357 C350 1.356 . S
N357 H360 0.984 1_545 S
N357 H361 0.985 . S
H358 N353 0.984 . S
H359 N353 0.985 1_554 S
H360 N357 0.984 1_565 S
H361 N357 0.985 . S
H362 N356 0.984 . S
H363 N356 0.984 1_545 S
H364 N352 0.984 1_556 S
H365 N352 0.985 . S
C366 C367 1.363 . S
C366 C372 1.379 . S
C366 N374 1.356 . S
C367 C366 1.363 . S
C367 C373 1.363 . S
C368 C369 1.363 . S
C368 C373 1.379 . S
C368 N375 1.356 . S
C369 C368 1.363 . S
C369 C372 1.363 . S
N370 C372 1.356 . S
N370 H382 0.984 . S
N370 H383 0.985 . S
N371 C373 1.356 . S
N371 H376 0.984 . S
N371 H377 0.985 . S
C372 C366 1.379 . S
C372 C369 1.363 . S
C372 N370 1.356 . S
C373 C367 1.363 . S
C373 C368 1.379 . S
C373 N371 1.356 . S
N374 C366 1.356 . S
N374 H380 0.984 . S
N374 H381 0.984 . S
N375 C368 1.356 . S
N375 H378 0.984 . S
N375 H379 0.985 . S
H376 N371 0.984 . S
H377 N371 0.985 . S
H378 N375 0.984 . S
H379 N375 0.985 . S
H380 N374 0.984 . S
H381 N374 0.984 . S
H382 N370 0.984 . S
H383 N370 0.985 . S
C384 C385 1.363 . S
C384 C390 1.379 . S
C384 N392 1.356 . S
C385 C384 1.363 . S
C385 C391 1.363 . S
C386 C387 1.363 . S
C386 C391 1.379 . S
C386 N393 1.356 . S
C387 C386 1.363 . S
C387 C390 1.363 . S
N388 C390 1.356 . S
N388 H400 0.984 . S
N388 H401 0.985 . S
N389 C391 1.356 . S
N389 H394 0.984 . S
N389 H395 0.985 . S
C390 C384 1.379 . S
C390 C387 1.363 . S
C390 N388 1.356 . S
C391 C385 1.363 . S
C391 C386 1.379 . S
C391 N389 1.356 . S
N392 C384 1.356 . S
N392 H398 0.984 . S
N392 H399 0.984 . S
N393 C386 1.356 . S
N393 H396 0.984 . S
N393 H397 0.985 . S
H394 N389 0.984 . S
H395 N389 0.985 . S
H396 N393 0.984 . S
H397 N393 0.985 . S
H398 N392 0.984 . S
H399 N392 0.984 . S
H400 N388 0.984 . S
H401 N388 0.985 . S
C402 C403 1.363 . S
C402 C408 1.379 . S
C402 N410 1.356 . S
C403 C402 1.363 . S
C403 C409 1.363 . S
C404 C405 1.363 . S
C404 C409 1.379 . S
C404 N411 1.356 . S
C405 C404 1.363 . S
C405 C408 1.363 . S
N406 C408 1.356 . S
N406 H418 0.984 . S
N406 H419 0.985 . S
N407 C409 1.356 . S
N407 H412 0.984 . S
N407 H413 0.985 . S
C408 C402 1.379 . S
C408 C405 1.363 . S
C408 N406 1.356 . S
C409 C403 1.363 . S
C409 C404 1.379 . S
C409 N407 1.356 . S
N410 C402 1.356 . S
N410 H416 0.984 . S
N410 H417 0.984 . S
N411 C404 1.356 . S
N411 H414 0.984 . S
N411 H415 0.985 . S
H412 N407 0.984 . S
H413 N407 0.985 . S
H414 N411 0.984 . S
H415 N411 0.985 . S
H416 N410 0.984 . S
H417 N410 0.984 . S
H418 N406 0.984 . S
H419 N406 0.985 . S
C420 C421 1.363 . S
C420 C426 1.379 . S
C420 N428 1.356 . S
C421 C420 1.363 . S
C421 C427 1.363 . S
C422 C423 1.363 . S
C422 C427 1.379 . S
C422 N429 1.356 . S
C423 C422 1.363 . S
C423 C426 1.363 . S
N424 C426 1.356 . S
N424 H436 0.984 . S
N424 H437 0.985 . S
N425 C427 1.356 . S
N425 H430 0.984 . S
N425 H431 0.985 . S
C426 C420 1.379 . S
C426 C423 1.363 . S
C426 N424 1.356 . S
C427 C421 1.363 . S
C427 C422 1.379 . S
C427 N425 1.356 . S
N428 C420 1.356 . S
N428 H434 0.984 . S
N428 H435 0.984 . S
N429 C422 1.356 . S
N429 H432 0.984 . S
N429 H433 0.985 . S
H430 N425 0.984 . S
H431 N425 0.985 . S
H432 N429 0.984 . S
H433 N429 0.985 . S
H434 N428 0.984 . S
H435 N428 0.984 . S
H436 N424 0.984 . S
H437 N424 0.985 . S
C438 C439 1.363 . S
C438 C444 1.379 . S
C438 N446 1.356 . S
C439 C438 1.363 . S
C439 C445 1.363 . S
C440 C441 1.363 . S
C440 C445 1.379 . S
C440 N447 1.356 . S
C441 C440 1.363 . S
C441 C444 1.363 . S
N442 C444 1.356 . S
N442 H454 0.984 . S
N442 H455 0.985 . S
N443 C445 1.356 . S
N443 H448 0.984 . S
N443 H449 0.985 . S
C444 C438 1.379 . S
C444 C441 1.363 . S
C444 N442 1.356 . S
C445 C439 1.363 . S
C445 C440 1.379 . S
C445 N443 1.356 . S
N446 C438 1.356 . S
N446 H452 0.984 . S
N446 H453 0.984 . S
N447 C440 1.356 . S
N447 H450 0.984 . S
N447 H451 0.985 . S
H448 N443 0.984 . S
H449 N443 0.985 . S
H450 N447 0.984 . S
H451 N447 0.985 . S
H452 N446 0.984 . S
H453 N446 0.984 . S
H454 N442 0.984 . S
H455 N442 0.985 . S
C456 C457 1.363 . S
C456 C462 1.379 . S
C456 N464 1.356 . S
C457 C456 1.363 . S
C457 C463 1.363 . S
C458 C459 1.363 . S
C458 C463 1.379 . S
C458 N465 1.356 . S
C459 C458 1.363 . S
C459 C462 1.363 . S
N460 C462 1.356 . S
N460 H472 0.984 . S
N460 H473 0.985 . S
N461 C463 1.356 . S
N461 H466 0.984 . S
N461 H467 0.985 . S
C462 C456 1.379 . S
C462 C459 1.363 . S
C462 N460 1.356 . S
C463 C457 1.363 . S
C463 C458 1.379 . S
C463 N461 1.356 . S
N464 C456 1.356 . S
N464 H470 0.984 . S
N464 H471 0.984 . S
N465 C458 1.356 . S
N465 H468 0.984 . S
N465 H469 0.985 . S
H466 N461 0.984 . S
H467 N461 0.985 . S
H468 N465 0.984 . S
H469 N465 0.985 . S
H470 N464 0.984 . S
H471 N464 0.984 . S
H472 N460 0.984 . S
H473 N460 0.985 . S
C474 C475 1.363 . S
C474 C480 1.379 . S
C474 N482 1.356 . S
C475 C474 1.363 . S
C475 C481 1.363 . S
C476 C477 1.363 . S
C476 C481 1.379 . S
C476 N483 1.356 . S
C477 C476 1.363 . S
C477 C480 1.363 . S
N478 C480 1.356 . S
N478 H490 0.984 . S
N478 H491 0.985 . S
N479 C481 1.356 . S
N479 H484 0.984 . S
N479 H485 0.985 . S
C480 C474 1.379 . S
C480 C477 1.363 . S
C480 N478 1.356 . S
C481 C475 1.363 . S
C481 C476 1.379 . S
C481 N479 1.356 . S
N482 C474 1.356 . S
N482 H488 0.984 . S
N482 H489 0.984 . S
N483 C476 1.356 . S
N483 H486 0.984 . S
N483 H487 0.985 . S
H484 N479 0.984 . S
H485 N479 0.985 . S
H486 N483 0.984 . S
H487 N483 0.985 . S
H488 N482 0.984 . S
H489 N482 0.984 . S
H490 N478 0.984 . S
H491 N478 0.985 . S
C492 C493 1.363 . S
C492 C498 1.379 . S
C492 N500 1.356 . S
C493 C492 1.363 . S
C493 C499 1.363 . S
C494 C495 1.363 . S
C494 C499 1.379 . S
C494 N501 1.356 . S
C495 C494 1.363 . S
C495 C498 1.363 . S
N496 C498 1.356 . S
N496 H508 0.984 . S
N496 H509 0.985 . S
N497 C499 1.356 . S
N497 H502 0.984 . S
N497 H503 0.985 . S
C498 C492 1.379 . S
C498 C495 1.363 . S
C498 N496 1.356 . S
C499 C493 1.363 . S
C499 C494 1.379 . S
C499 N497 1.356 . S
N500 C492 1.356 . S
N500 H506 0.984 . S
N500 H507 0.984 . S
N501 C494 1.356 . S
N501 H504 0.984 . S
N501 H505 0.985 . S
H502 N497 0.984 . S
H503 N497 0.985 . S
H504 N501 0.984 . S
H505 N501 0.985 . S
H506 N500 0.984 . S
H507 N500 0.984 . S
H508 N496 0.984 . S
H509 N496 0.985 . S
C510 C511 1.363 . S
C510 C516 1.379 . S
C510 N518 1.356 . S
C511 C510 1.363 . S
C511 C517 1.363 . S
C512 C513 1.363 . S
C512 C517 1.379 . S
C512 N519 1.356 . S
C513 C512 1.363 . S
C513 C516 1.363 . S
N514 C516 1.356 . S
N514 H526 0.984 . S
N514 H527 0.985 . S
N515 C517 1.356 . S
N515 H520 0.984 . S
N515 H521 0.985 . S
C516 C510 1.379 . S
C516 C513 1.363 . S
C516 N514 1.356 . S
C517 C511 1.363 . S
C517 C512 1.379 . S
C517 N515 1.356 . S
N518 C510 1.356 . S
N518 H524 0.984 . S
N518 H525 0.984 . S
N519 C512 1.356 . S
N519 H522 0.984 . S
N519 H523 0.985 . S
H520 N515 0.984 . S
H521 N515 0.985 . S
H522 N519 0.984 . S
H523 N519 0.985 . S
H524 N518 0.984 . S
H525 N518 0.984 . S
H526 N514 0.984 . S
H527 N514 0.985 . S
C528 C529 1.363 . S
C528 C534 1.379 . S
C528 N536 1.356 . S
C529 C528 1.363 . S
C529 C535 1.363 . S
C530 C531 1.363 . S
C530 C535 1.379 . S
C530 N537 1.356 . S
C531 C530 1.363 . S
C531 C534 1.363 . S
N532 C534 1.356 . S
N532 H544 0.984 . S
N532 H545 0.985 . S
N533 C535 1.356 . S
N533 H538 0.984 . S
N533 H539 0.985 . S
C534 C528 1.379 . S
C534 C531 1.363 . S
C534 N532 1.356 . S
C535 C529 1.363 . S
C535 C530 1.379 . S
C535 N533 1.356 . S
N536 C528 1.356 . S
N536 H542 0.984 . S
N536 H543 0.984 . S
N537 C530 1.356 . S
N537 H540 0.984 . S
N537 H541 0.985 . S
H538 N533 0.984 . S
H539 N533 0.985 . S
H540 N537 0.984 . S
H541 N537 0.985 . S
H542 N536 0.984 . S
H543 N536 0.984 . S
H544 N532 0.984 . S
H545 N532 0.985 . S
C546 C547 1.363 . S
C546 C552 1.379 . S
C546 N554 1.356 . S
C547 C546 1.363 . S
C547 C553 1.363 . S
C548 C549 1.363 . S
C548 C553 1.379 . S
C548 N555 1.356 . S
C549 C548 1.363 . S
C549 C552 1.363 . S
N550 C552 1.356 . S
N550 H562 0.984 . S
N550 H563 0.985 . S
N551 C553 1.356 . S
N551 H556 0.984 . S
N551 H557 0.985 . S
C552 C546 1.379 . S
C552 C549 1.363 . S
C552 N550 1.356 . S
C553 C547 1.363 . S
C553 C548 1.379 . S
C553 N551 1.356 . S
N554 C546 1.356 . S
N554 H560 0.984 . S
N554 H561 0.984 . S
N555 C548 1.356 . S
N555 H558 0.984 . S
N555 H559 0.985 . S
H556 N551 0.984 . S
H557 N551 0.985 . S
H558 N555 0.984 . S
H559 N555 0.985 . S
H560 N554 0.984 . S
H561 N554 0.984 . S
H562 N550 0.984 . S
H563 N550 0.985 . S
C564 C565 1.363 . S
C564 C570 1.379 . S
C564 N572 1.356 . S
C565 C564 1.363 . S
C565 C571 1.363 . S
C566 C567 1.363 . S
C566 C571 1.379 . S
C566 N573 1.356 . S
C567 C566 1.363 . S
C567 C570 1.363 . S
N568 C570 1.356 . S
N568 H580 0.984 . S
N568 H581 0.985 . S
N569 C571 1.356 . S
N569 H574 0.984 . S
N569 H575 0.985 . S
C570 C564 1.379 . S
C570 C567 1.363 . S
C570 N568 1.356 . S
C571 C565 1.363 . S
C571 C566 1.379 . S
C571 N569 1.356 . S
N572 C564 1.356 . S
N572 H578 0.984 . S
N572 H579 0.984 . S
N573 C566 1.356 . S
N573 H576 0.984 . S
N573 H577 0.985 . S
H574 N569 0.984 . S
H575 N569 0.985 . S
H576 N573 0.984 . S
H577 N573 0.985 . S
H578 N572 0.984 . S
H579 N572 0.984 . S
H580 N568 0.984 . S
H581 N568 0.985 . S
C582 C583 1.363 . S
C582 C588 1.379 . S
C582 N590 1.356 . S
C583 C582 1.363 . S
C583 C589 1.363 . S
C584 C585 1.363 . S
C584 C589 1.379 . S
C584 N591 1.356 . S
C585 C584 1.363 . S
C585 C588 1.363 . S
N586 C588 1.356 . S
N586 H598 0.984 . S
N586 H599 0.985 . S
N587 C589 1.356 . S
N587 H592 0.984 . S
N587 H593 0.985 . S
C588 C582 1.379 . S
C588 C585 1.363 . S
C588 N586 1.356 . S
C589 C583 1.363 . S
C589 C584 1.379 . S
C589 N587 1.356 . S
N590 C582 1.356 . S
N590 H596 0.984 . S
N590 H597 0.984 . S
N591 C584 1.356 . S
N591 H594 0.984 . S
N591 H595 0.985 . S
H592 N587 0.984 . S
H593 N587 0.985 . S
H594 N591 0.984 . S
H595 N591 0.985 . S
H596 N590 0.984 . S
H597 N590 0.984 . S
H598 N586 0.984 . S
H599 N586 0.985 . S
C169 C5 1.209 . S
C171 C159 1.209 . S
C187 C89 1.209 . S
C189 C19 1.209 . S
C205 C33 1.209 . S
C207 C103 1.209 . S
C223 C117 1.209 . S
C225 C47 1.209 . S
C241 C131 1.209 . S
C243 C61 1.209 . S
C259 C145 1.209 . S
C261 C75 1.209 . S
C277 C54 1.608 . S
C279 C124 1.608 . S
C295 C68 1.608 . S
C297 C138 1.608 . S
C313 C82 1.607 . S
C315 C152 1.607 . S
C331 C166 1.607 . S
C333 C12 1.607 . S
C349 C26 1.608 . S
C351 C96 1.608 . S
C367 C40 1.607 . S
C369 C110 1.607 . S
C385 C116 1.396 . S
C387 C4 1.396 . S
C403 C130 1.396 . S
C405 C18 1.396 . S
C421 C32 1.396 . S
C423 C144 1.396 . S
C439 C46 1.396 . S
C441 C158 1.396 . S
C457 C60 1.396 . S
C459 C88 1.396 . S
C475 C102 1.396 . S
C477 C74 1.396 . S
C493 C11 1.335 . S
C495 C151 1.335 . S
C511 C165 1.335 . S
C513 C25 1.335 . S
C529 C39 1.335 . S
C531 C95 1.335 . S
C547 C53 1.335 . S
C549 C109 1.335 . S
C565 C67 1.335 . S
C567 C123 1.335 . S
C583 C81 1.335 . S
C585 C137 1.335 . S
