# Generated by pormake.
# Topology crs, (6)-cn, num edge types: 1
# Building blocks:
#     Node 0, Type 0, BuildingBlock: JUFBIX_clean_sbu_0, # of connection points: 6
#     Node 1, Type 0, BuildingBlock: JUFBIX_clean_sbu_0, # of connection points: 6
#     Node 2, Type 0, BuildingBlock: JUFBIX_clean_sbu_0, # of connection points: 6
#     Node 3, Type 0, BuildingBlock: JUFBIX_clean_sbu_0, # of connection points: 6
#     Node 4, Type 0, BuildingBlock: JUFBIX_clean_sbu_0, # of connection points: 6
#     Node 5, Type 0, BuildingBlock: JUFBIX_clean_sbu_0, # of connection points: 6
#     Node 6, Type 0, BuildingBlock: JUFBIX_clean_sbu_0, # of connection points: 6
#     Node 7, Type 0, BuildingBlock: JUFBIX_clean_sbu_0, # of connection points: 6
#     Node 8, Type 0, BuildingBlock: JUFBIX_clean_sbu_0, # of connection points: 6
#     Node 9, Type 0, BuildingBlock: JUFBIX_clean_sbu_0, # of connection points: 6
#     Node 10, Type 0, BuildingBlock: JUFBIX_clean_sbu_0, # of connection points: 6
#     Node 11, Type 0, BuildingBlock: JUFBIX_clean_sbu_0, # of connection points: 6
#     Node 12, Type 0, BuildingBlock: JUFBIX_clean_sbu_0, # of connection points: 6
#     Node 13, Type 0, BuildingBlock: JUFBIX_clean_sbu_0, # of connection points: 6
#     Node 14, Type 0, BuildingBlock: JUFBIX_clean_sbu_0, # of connection points: 6
#     Node 15, Type 0, BuildingBlock: JUFBIX_clean_sbu_0, # of connection points: 6
#     Edge 16, Type (0, 0), BuildingBlock: EZIPEK_clean_linker_0, # of connection points: 2
#     Edge 17, Type (0, 0), BuildingBlock: EZIPEK_clean_linker_0, # of connection points: 2
#     Edge 18, Type (0, 0), BuildingBlock: EZIPEK_clean_linker_0, # of connection points: 2
#     Edge 19, Type (0, 0), BuildingBlock: EZIPEK_clean_linker_0, # of connection points: 2
#     Edge 20, Type (0, 0), BuildingBlock: EZIPEK_clean_linker_0, # of connection points: 2
#     Edge 21, Type (0, 0), BuildingBlock: EZIPEK_clean_linker_0, # of connection points: 2
#     Edge 22, Type (0, 0), BuildingBlock: EZIPEK_clean_linker_0, # of connection points: 2
#     Edge 23, Type (0, 0), BuildingBlock: EZIPEK_clean_linker_0, # of connection points: 2
#     Edge 24, Type (0, 0), BuildingBlock: EZIPEK_clean_linker_0, # of connection points: 2
#     Edge 25, Type (0, 0), BuildingBlock: EZIPEK_clean_linker_0, # of connection points: 2
#     Edge 26, Type (0, 0), BuildingBlock: EZIPEK_clean_linker_0, # of connection points: 2
#     Edge 27, Type (0, 0), BuildingBlock: EZIPEK_clean_linker_0, # of connection points: 2
#     Edge 28, Type (0, 0), BuildingBlock: EZIPEK_clean_linker_0, # of connection points: 2
#     Edge 29, Type (0, 0), BuildingBlock: EZIPEK_clean_linker_0, # of connection points: 2
#     Edge 30, Type (0, 0), BuildingBlock: EZIPEK_clean_linker_0, # of connection points: 2
#     Edge 31, Type (0, 0), BuildingBlock: EZIPEK_clean_linker_0, # of connection points: 2
#     Edge 32, Type (0, 0), BuildingBlock: EZIPEK_clean_linker_0, # of connection points: 2
#     Edge 33, Type (0, 0), BuildingBlock: EZIPEK_clean_linker_0, # of connection points: 2
#     Edge 34, Type (0, 0), BuildingBlock: EZIPEK_clean_linker_0, # of connection points: 2
#     Edge 35, Type (0, 0), BuildingBlock: EZIPEK_clean_linker_0, # of connection points: 2
#     Edge 36, Type (0, 0), BuildingBlock: EZIPEK_clean_linker_0, # of connection points: 2
#     Edge 37, Type (0, 0), BuildingBlock: EZIPEK_clean_linker_0, # of connection points: 2
#     Edge 38, Type (0, 0), BuildingBlock: EZIPEK_clean_linker_0, # of connection points: 2
#     Edge 39, Type (0, 0), BuildingBlock: EZIPEK_clean_linker_0, # of connection points: 2
#     Edge 40, Type (0, 0), BuildingBlock: EZIPEK_clean_linker_0, # of connection points: 2
#     Edge 41, Type (0, 0), BuildingBlock: EZIPEK_clean_linker_0, # of connection points: 2
#     Edge 42, Type (0, 0), BuildingBlock: EZIPEK_clean_linker_0, # of connection points: 2
#     Edge 43, Type (0, 0), BuildingBlock: EZIPEK_clean_linker_0, # of connection points: 2
#     Edge 44, Type (0, 0), BuildingBlock: EZIPEK_clean_linker_0, # of connection points: 2
#     Edge 45, Type (0, 0), BuildingBlock: EZIPEK_clean_linker_0, # of connection points: 2
#     Edge 46, Type (0, 0), BuildingBlock: EZIPEK_clean_linker_0, # of connection points: 2
#     Edge 47, Type (0, 0), BuildingBlock: EZIPEK_clean_linker_0, # of connection points: 2
#     Edge 48, Type (0, 0), BuildingBlock: EZIPEK_clean_linker_0, # of connection points: 2
#     Edge 49, Type (0, 0), BuildingBlock: EZIPEK_clean_linker_0, # of connection points: 2
#     Edge 50, Type (0, 0), BuildingBlock: EZIPEK_clean_linker_0, # of connection points: 2
#     Edge 51, Type (0, 0), BuildingBlock: EZIPEK_clean_linker_0, # of connection points: 2
#     Edge 52, Type (0, 0), BuildingBlock: EZIPEK_clean_linker_0, # of connection points: 2
#     Edge 53, Type (0, 0), BuildingBlock: EZIPEK_clean_linker_0, # of connection points: 2
#     Edge 54, Type (0, 0), BuildingBlock: EZIPEK_clean_linker_0, # of connection points: 2
#     Edge 55, Type (0, 0), BuildingBlock: EZIPEK_clean_linker_0, # of connection points: 2
#     Edge 56, Type (0, 0), BuildingBlock: EZIPEK_clean_linker_0, # of connection points: 2
#     Edge 57, Type (0, 0), BuildingBlock: EZIPEK_clean_linker_0, # of connection points: 2
#     Edge 58, Type (0, 0), BuildingBlock: EZIPEK_clean_linker_0, # of connection points: 2
#     Edge 59, Type (0, 0), BuildingBlock: EZIPEK_clean_linker_0, # of connection points: 2
#     Edge 60, Type (0, 0), BuildingBlock: EZIPEK_clean_linker_0, # of connection points: 2
#     Edge 61, Type (0, 0), BuildingBlock: EZIPEK_clean_linker_0, # of connection points: 2
#     Edge 62, Type (0, 0), BuildingBlock: EZIPEK_clean_linker_0, # of connection points: 2
#     Edge 63, Type (0, 0), BuildingBlock: EZIPEK_clean_linker_0, # of connection points: 2
# Relax obj value: 0.764
# Max RMSD: 0.365
# Mean RMSD: 0.298
data_MOF--net-crs--node1-JUFBIX_clean_sbu_0--edge1-EZIPEK_clean_linker_0
_symmetry_space_group_name_H-M    P1
_symmetry_Int_Tables_number       1
_symmetry_cell_setting            triclinic
loop_
_symmetry_equiv_pos_as_xyz
'x, y, z'
_cell_length_a     29.865647
_cell_length_b     30.712788
_cell_length_c     39.247072
_cell_angle_alpha  105.91208
_cell_angle_beta   89.864736
_cell_angle_gamma 89.794768
loop_
_atom_site_label
_atom_site_type_symbol
_atom_site_fract_x
_atom_site_fract_y
_atom_site_fract_z
_atom_type_partial_charge
Co0 Co 0.96216 0.00614 0.98494 0.0
C1 C 0.9745 0.04428 0.05659 0.0
Co2 Co 0.01411 0.97228 0.00782 0.0
C3 C 0.91763 0.04248 0.93445 0.0
C4 C 0.87615 0.0442 0.97938 0.0
N5 N 0.91821 0.0352 0.96673 0.0
N6 N 0.8762 0.05289 0.92557 0.0
C7 C 0.85008 0.05466 0.9539 0.0
H8 H 0.94563 0.03501 0.91616 0.0
H9 H 0.86432 0.03946 0.00419 0.0
C10 C 0.0013 0.93549 0.93605 0.0
N11 N 0.05783 0.94166 0.02585 0.0
C12 C 0.07843 0.95562 0.05742 0.0
C13 C 0.07643 0.90073 0.01026 0.0
N14 N 0.10903 0.92541 0.06194 0.0
C15 C 0.1084 0.89095 0.03227 0.0
C16 C 0.93027 0.93377 0.00676 0.0
O17 O 0.96983 0.9642 0.94049 0.0
O18 O 0.02646 0.93489 0.96181 0.0
O19 O 0.9712 0.92942 0.01384 0.0
O20 O 0.91812 0.96762 -0.00367 0.0
O21 O 0.00111 0.0111 0.05388 0.0
H22 H 0.06795 0.87929 0.98437 0.0
H23 H 0.07226 0.98792 0.07654 0.0
O24 O 0.95429 0.04846 0.02931 0.0
O25 O 0.00685 0.04293 0.97259 0.0
O26 O 0.05708 0.01477 0.00114 0.0
C27 C 0.04704 0.04187 0.98292 0.0
H28 H 0.81412 0.05943 0.95487 0.0
H29 H 0.12986 0.86134 0.02685 0.0
Co30 Co 0.0068 0.26751 0.22813 0.0
C31 C 0.91669 0.29202 0.23892 0.0
Co32 Co 0.96891 0.22921 0.2579 0.0
C33 C 0.06443 0.28271 0.17506 0.0
C34 C 0.03195 0.34439 0.2031 0.0
N35 N 0.03594 0.30019 0.20198 0.0
N36 N 0.07793 0.31395 0.15915 0.0
C37 C 0.05766 0.35291 0.17645 0.0
H38 H 0.07386 0.24729 0.16633 0.0
H39 H 0.01083 0.36856 0.22133 0.0
C40 C 0.05993 0.20637 0.24694 0.0
N41 N 0.94081 0.19522 0.28341 0.0
C42 C 0.89747 0.18313 0.28216 0.0
C43 C 0.95884 0.17989 0.30929 0.0
N44 N 0.88705 0.16123 0.30671 0.0
C45 C 0.92603 0.15937 0.32374 0.0
C46 C 0.96928 0.18813 0.18673 0.0
O47 O 0.06134 0.23917 0.23335 0.0
O48 O 0.02277 0.19543 0.25803 0.0
O49 O 0.95124 0.18701 0.21566 0.0
O50 O -0.00475 0.2207 0.18634 0.0
O51 O 0.91592 0.26375 0.25728 0.0
H52 H -0.00699 0.1856 0.31846 0.0
H53 H 0.8742 0.1923 0.26441 0.0
O54 O 0.95222 0.29631 0.22236 0.0
O55 O 0.01802 0.31349 0.27064 0.0
O56 O 0.98541 0.27159 0.30065 0.0
C57 C 0.00517 0.30777 0.30002 0.0
H58 H 0.06036 0.38466 0.16965 0.0
H59 H 0.92991 0.14763 0.34718 0.0
Co60 Co 0.77343 0.21678 0.49388 0.0
C61 C 0.7772 0.20402 0.42076 0.0
Co62 Co 0.72338 0.25613 0.47362 0.0
C63 C 0.80562 0.16166 0.53639 0.0
C64 C 0.85746 0.17244 0.50184 0.0
N65 N 0.81429 0.18258 0.51102 0.0
N66 N 0.8415 0.13914 0.54348 0.0
C67 C 0.87438 0.14557 0.52189 0.0
H68 H 0.77355 0.16289 0.54955 0.0
H69 H 0.87546 0.18399 0.48203 0.0
C70 C 0.71756 0.26884 0.54581 0.0
N71 N 0.68025 0.28919 0.45768 0.0
C72 C 0.68452 0.31428 0.43458 0.0
C73 C 0.63628 0.29179 0.46635 0.0
N74 N 0.64496 0.33144 0.42806 0.0
C75 C 0.61437 0.31758 0.44789 0.0
C76 C 0.69439 0.17042 0.4728 0.0
O77 O 0.74971 0.24061 0.54077 0.0
O78 O 0.70185 0.28093 0.51994 0.0
O79 O 0.68313 0.20768 0.46727 0.0
O80 O 0.73273 0.16786 0.48585 0.0
O81 O 0.74388 0.23073 0.42701 0.0
H82 H 0.62101 0.27538 0.48455 0.0
H83 H 0.71575 0.31965 0.42248 0.0
O84 O 0.79615 0.19364 0.44659 0.0
O85 O 0.81437 0.26545 0.50159 0.0
O86 O 0.76541 0.30429 0.47976 0.0
C87 C 0.80386 0.30106 0.49287 0.0
H88 H 0.90809 0.13226 0.52106 0.0
H89 H 0.57886 0.32492 0.44839 0.0
Co90 Co 0.72135 0.97719 0.75508 0.0
C91 C 0.7008 0.0604 0.7455 0.0
Co92 Co 0.77178 0.00077 0.72295 0.0
C93 C 0.69064 0.94163 0.81156 0.0
C94 C 0.63596 0.95437 0.78042 0.0
N95 N 0.68088 0.9581 0.78388 0.0
N96 N 0.65387 0.92737 0.82512 0.0
C97 C 0.61925 0.93516 0.80572 0.0
H98 H 0.72415 0.93867 0.82097 0.0
H99 H 0.6168 0.96373 0.76014 0.0
C100 C 0.79196 0.91753 0.73402 0.0
N101 N 0.81204 0.01922 0.69375 0.0
C102 C 0.80242 0.03922 0.66798 0.0
C103 C 0.85711 0.0154 0.69329 0.0
N104 N 0.83962 0.04804 0.65163 0.0
C105 C 0.87421 0.03317 0.66732 0.0
C106 C 0.79234 0.02755 0.7929 0.0
O107 O 0.75466 0.92364 0.75011 0.0
O108 O 0.80595 0.94689 0.71912 0.0
O109 O 0.80549 0.03038 0.76288 0.0
O110 O 0.75628 0.00668 0.79548 0.0
O111 O 0.73724 0.05444 0.72792 0.0
H112 H 0.87628 0.00081 0.7108 0.0
H113 H 0.76883 0.04732 0.66134 0.0
O114 O 0.68758 0.0304 0.75986 0.0
O115 O 0.68809 0.94789 0.71429 0.0
O116 O 0.73814 0.97061 0.68262 0.0
C117 C 0.70317 0.94777 0.68398 0.0
H118 H 0.58475 0.92635 0.809 0.0
H119 H 0.90915 0.03542 0.66064 0.0
Co120 Co 0.50854 0.76999 0.22757 0.0
C121 C 0.42018 0.79781 0.23655 0.0
Co122 Co 0.46607 0.72802 0.25157 0.0
C123 C 0.58653 0.80134 0.19752 0.0
C124 C 0.52459 0.81975 0.1778 0.0
N125 N 0.5419 0.8034 0.2036 0.0
N126 N 0.59692 0.81172 0.16719 0.0
C127 C 0.55824 0.8246 0.15537 0.0
H128 H 0.61008 0.78612 0.21182 0.0
H129 H 0.48926 0.82187 0.17251 0.0
C130 C 0.55455 0.70079 0.24398 0.0
N131 N 0.43126 0.69354 0.27305 0.0
C132 C 0.39379 0.70684 0.29219 0.0
C133 C 0.43573 0.6494 0.27125 0.0
N134 N 0.37296 0.67253 0.30132 0.0
C135 C 0.40084 0.6367 0.28928 0.0
C136 C 0.46859 0.69596 0.1797 0.0
O137 O 0.55822 0.7315 0.22817 0.0
O138 O 0.51735 0.69467 0.25751 0.0
O139 O 0.45524 0.68616 0.20737 0.0
O140 O 0.4911 0.73173 0.18327 0.0
O141 O 0.41479 0.76178 0.24578 0.0
H142 H 0.46284 0.62785 0.25798 0.0
H143 H 0.38296 0.74175 0.30014 0.0
O144 O 0.4587 0.80801 0.22776 0.0
O145 O 0.52544 0.80775 0.27168 0.0
O146 O 0.47707 0.77076 0.29564 0.0
C147 C 0.50446 0.80332 0.29875 0.0
H148 H 0.55393 0.83183 0.13007 0.0
H149 H 0.39819 0.60385 0.294 0.0
Co150 Co 0.26709 0.73116 0.49999 0.0
C151 C 0.27171 0.71968 0.42717 0.0
Co152 Co 0.21605 0.77003 0.47985 0.0
C153 C 0.30345 0.67783 0.54302 0.0
C154 C 0.35217 0.68924 0.50636 0.0
N155 N 0.30886 0.69707 0.51627 0.0
N156 N 0.34152 0.65878 0.55031 0.0
C157 C 0.37245 0.66561 0.5274 0.0
H158 H 0.27266 0.67892 0.55777 0.0
H159 H 0.3683 0.70124 0.48595 0.0
C160 C 0.21005 0.77967 0.55204 0.0
N161 N 0.17419 0.8043 0.46381 0.0
C162 C 0.18082 0.82724 0.4395 0.0
C163 C 0.13019 0.80991 0.47207 0.0
N164 N 0.14288 0.84631 0.43201 0.0
C165 C 0.11072 0.83572 0.45233 0.0
C166 C 0.18581 0.68664 0.48071 0.0
O167 O 0.24419 0.75402 0.54655 0.0
O168 O 0.19354 0.79273 0.5267 0.0
O169 O 0.17534 0.72221 0.47213 0.0
O170 O 0.22501 0.68265 0.49224 0.0
O171 O 0.23798 0.746 0.43318 0.0
H172 H 0.11312 0.79527 0.49056 0.0
H173 H 0.21253 0.82924 0.42684 0.0
O174 O 0.28988 0.70882 0.45296 0.0
O175 O 0.30789 0.77936 0.50806 0.0
O176 O 0.25782 0.8183 0.48755 0.0
C177 C 0.29641 0.81518 0.50025 0.0
H178 H 0.40726 0.65547 0.52674 0.0
H179 H 0.07571 0.84488 0.45208 0.0
Co180 Co 0.22676 0.47442 0.74131 0.0
C181 C 0.19958 0.56236 0.74734 0.0
Co182 Co 0.27666 0.51405 0.72146 0.0
C183 C 0.1937 0.41937 0.78374 0.0
C184 C 0.14082 0.43914 0.75431 0.0
N185 N 0.18544 0.44256 0.75982 0.0
N186 N 0.15617 0.40177 0.79339 0.0
C187 C 0.12261 0.41414 0.77519 0.0
H188 H 0.22645 0.41625 0.79458 0.0
H189 H 0.12262 0.4548 0.73695 0.0
C190 C 0.30544 0.42755 0.7201 0.0
N191 N 0.31772 0.54607 0.70276 0.0
C192 C 0.30957 0.56683 0.67727 0.0
C193 C 0.36229 0.55018 0.70844 0.0
N194 N 0.34718 0.58309 0.66653 0.0
C195 C 0.38061 0.57293 0.68596 0.0
C196 C 0.28602 0.52305 0.79227 0.0
O197 O 0.26644 0.42434 0.73208 0.0
O198 O 0.31621 0.46319 0.71155 0.0
O199 O 0.30263 0.53573 0.76679 0.0
O200 O 0.25244 0.49686 0.78676 0.0
O201 O 0.23682 0.56505 0.73229 0.0
H202 H 0.3805 0.53605 0.72671 0.0
H203 H 0.27698 0.56842 0.66568 0.0
O204 O 0.18847 0.52431 0.7513 0.0
O205 O 0.20053 0.45272 0.69569 0.0
O206 O 0.25061 0.49199 0.67616 0.0
C207 C 0.21705 0.46584 0.67039 0.0
H208 H 0.08756 0.40653 0.77753 0.0
H209 H 0.4157 0.57999 0.68313 0.0
Co210 Co 0.96662 0.51883 0.48159 0.0
C211 C 0.97978 0.54378 0.55354 0.0
Co212 Co 0.0173 0.47692 0.49873 0.0
C213 C 0.89845 0.53945 0.43734 0.0
C214 C 0.91248 0.59702 0.48077 0.0
N215 N 0.92404 0.55321 0.46644 0.0
N216 N 0.87189 0.57277 0.43258 0.0
C217 C 0.87989 0.60904 0.46013 0.0
H218 H 0.89864 0.50533 0.42007 0.0
H219 H 0.927 0.61893 0.50452 0.0
C220 C 0.00753 0.45327 0.42663 0.0
N221 N 0.06032 0.44308 0.5136 0.0
C222 C 0.09492 0.45946 0.53508 0.0
C223 C 0.0639 0.39789 0.50659 0.0
N224 N 0.12156 0.42657 0.54119 0.0
C225 C 0.10059 0.38767 0.5241 0.0
C226 C 0.9323 0.44197 0.4956 0.0
O227 O 0.97802 0.48437 0.43412 0.0
O228 O 0.02775 0.44347 0.45189 0.0
O229 O 0.97268 0.43525 0.50291 0.0
O230 O 0.92193 0.47714 0.48623 0.0
O231 O 0.00706 0.51072 0.54612 0.0
H232 H 0.0404 0.37397 0.49087 0.0
H233 H 0.09868 0.49523 0.5475 0.0
O234 O 0.95704 0.55286 0.52906 0.0
O235 O 0.01043 0.56002 0.47675 0.0
O236 O 0.06164 0.51922 0.49393 0.0
C237 C 0.05082 0.55385 0.48398 0.0
H238 H 0.86371 0.64174 0.46469 0.0
H239 H 0.10861 0.35394 0.52546 0.0
Co240 Co 0.25708 0.21535 -0.00463 0.0
C241 C 0.28156 0.20103 0.92526 0.0
Co242 Co 0.213 0.2496 0.96583 0.0
C243 C 0.28825 0.17107 0.04758 0.0
C244 C 0.34093 0.18414 0.01466 0.0
N245 N 0.29619 0.18829 0.02 0.0
N246 N 0.32629 0.15653 0.05938 0.0
C247 C 0.35952 0.16448 0.03882 0.0
H248 H 0.2555 0.16986 0.05916 0.0
H249 H 0.35914 0.19552 -0.0051 0.0
C250 C 0.1885 0.2643 0.03577 0.0
N251 N 0.17491 0.27673 0.94073 0.0
C252 C 0.18608 0.29698 0.91548 0.0
C253 C 0.12981 0.27988 0.94314 0.0
N254 N 0.14983 0.31253 0.90217 0.0
C255 C 0.11425 0.30212 0.91941 0.0
C256 C 0.18563 0.16247 0.96433 0.0
O257 O 0.22339 0.24114 0.0374 0.0
O258 O 0.17771 0.27202 0.00677 0.0
O259 O 0.17802 0.19695 0.95337 0.0
O260 O 0.21887 0.16359 0.98485 0.0
O261 O 0.24858 0.22691 0.92468 0.0
H262 H 0.10956 0.26656 0.96082 0.0
H263 H 0.22008 0.30023 0.9069 0.0
O264 O 0.29019 0.18993 0.95335 0.0
O265 O 0.29484 0.26715 0.00536 0.0
O266 O 0.24851 0.30237 0.97861 0.0
C267 C 0.28467 0.30201 -0.00448 0.0
H268 H 0.39463 0.15731 0.04162 0.0
H269 H 0.07972 0.30972 0.91487 0.0
Co270 Co 0.21688 -0.00722 0.26263 0.0
C271 C 0.192 0.07442 0.25379 0.0
Co272 Co 0.26951 0.02308 0.23712 0.0
C273 C 0.1809 0.94829 0.31155 0.0
C274 C 0.1296 0.96344 0.27843 0.0
N275 N 0.17409 0.96695 0.28467 0.0
N276 N 0.14255 0.93339 0.32228 0.0
C277 C 0.11001 0.94267 0.30168 0.0
H278 H 0.21334 0.94577 0.32316 0.0
H279 H 0.11257 0.97543 0.25842 0.0
C280 C 0.29351 0.94064 0.24516 0.0
N281 N 0.31201 0.04944 0.21507 0.0
C282 C 0.30334 0.069 0.18901 0.0
C283 C 0.35692 0.05201 0.21917 0.0
N284 N 0.34068 0.08318 0.17644 0.0
C285 C 0.3748 0.07276 0.19513 0.0
C286 C 0.27511 0.04892 0.30976 0.0
O287 O 0.25461 0.9421 0.25846 0.0
O288 O 0.30766 0.97331 0.23422 0.0
O289 O 0.29319 0.0529 0.28149 0.0
O290 O 0.24242 0.0219 0.30717 0.0
O291 O 0.23059 0.07279 0.23996 0.0
H292 H 0.37543 0.0388 0.23783 0.0
H293 H 0.27037 0.07207 0.17875 0.0
O294 O 0.17925 0.04297 0.26665 0.0
O295 O 0.19148 0.96464 0.21771 0.0
O296 O 0.24545 -0.00678 0.19266 0.0
C297 C 0.20978 0.9703 0.18997 0.0
H298 H 0.07488 0.93498 0.30342 0.0
H299 H 0.40985 0.07879 0.19109 0.0
Co300 Co 0.5268 0.26985 0.73024 0.0
C301 C 0.43677 0.294 0.7324 0.0
Co302 Co 0.48263 0.22723 0.75243 0.0
C303 C 0.5974 0.29142 0.68884 0.0
C304 C 0.55281 0.34763 0.70664 0.0
N305 N 0.56189 0.30591 0.71011 0.0
N306 N 0.60934 0.32093 0.67077 0.0
C307 C 0.58166 0.35667 0.68196 0.0
H308 H 0.61125 0.25783 0.68346 0.0
H309 H 0.52471 0.36847 0.71886 0.0
C310 C 0.57323 0.20291 0.74906 0.0
N311 N 0.44768 0.19043 0.77157 0.0
C312 C 0.41618 0.20314 0.79695 0.0
C313 C 0.44954 0.14481 0.76419 0.0
N314 N 0.39873 0.16751 0.80591 0.0
C315 C 0.41954 0.13058 0.78558 0.0
C316 C 0.49252 0.19438 0.68137 0.0
O317 O 0.57851 0.23851 0.73911 0.0
O318 O 0.53406 0.19181 0.7562 0.0
O319 O 0.47119 0.18925 0.70777 0.0
O320 O 0.52023 0.22668 0.68509 0.0
O321 O 0.43142 0.26326 0.74813 0.0
H322 H 0.47221 0.12342 0.74522 0.0
H323 H 0.40721 0.23786 0.80967 0.0
O324 O 0.47538 0.30076 0.7215 0.0
O325 O 0.53219 0.31208 0.77504 0.0
O326 O 0.49397 0.26583 0.79779 0.0
C327 C 0.51456 0.30299 0.80178 0.0
H328 H 0.5801 0.38539 0.67102 0.0
H329 H 0.41459 0.09629 0.78716 0.0
Co330 Co 0.0113 0.75802 0.73244 0.0
C331 C 0.91978 0.77904 0.73823 0.0
Co332 Co 0.97044 0.71816 0.75987 0.0
C333 C 0.08024 0.78089 0.68938 0.0
C334 C 0.02862 0.83124 0.70126 0.0
N335 N 0.04215 0.79247 0.70815 0.0
N336 N 0.08979 0.80951 0.66979 0.0
C337 C 0.05749 0.84135 0.67722 0.0
H338 H 0.09867 0.74991 0.68752 0.0
H339 H -0.00156 0.84985 0.71145 0.0
C340 C 0.06151 0.69618 0.7541 0.0
N341 N 0.94016 0.68486 0.78529 0.0
C342 C 0.89665 0.67279 0.78361 0.0
C343 C 0.95645 0.6734 0.8136 0.0
N344 N 0.8847 0.65499 0.81029 0.0
C345 C 0.9227 0.65532 0.82894 0.0
C346 C 0.97809 0.67784 0.68874 0.0
O347 O 0.06448 0.72608 0.73742 0.0
O348 O 0.02411 0.68989 0.76718 0.0
O349 O 0.96167 0.67217 0.71713 0.0
O350 O -0.0005 0.7138 0.6895 0.0
O351 O 0.91669 0.7469 0.75259 0.0
H352 H 0.98989 0.68073 0.82405 0.0
H353 H 0.87438 0.67875 0.76385 0.0
O354 O 0.95755 0.78886 0.72765 0.0
O355 O 0.02325 0.80177 0.77517 0.0
O356 O 0.97951 0.76429 0.8021 0.0
C357 C 0.00398 0.79832 0.8031 0.0
H358 H 0.05382 0.86854 0.66475 0.0
H359 H 0.92508 0.64687 0.85392 0.0
Co360 Co 0.7041 0.48087 0.26076 0.0
C361 C 0.68342 0.56462 0.2508 0.0
Co362 Co 0.7566 0.50876 0.23325 0.0
C363 C 0.66825 0.43498 0.30866 0.0
C364 C 0.61575 0.46483 0.28552 0.0
N365 N 0.66064 0.45888 0.28515 0.0
N366 N 0.63028 0.42617 0.32381 0.0
C367 C 0.5969 0.44482 0.3096 0.0
H368 H 0.70105 0.42483 0.31525 0.0
H369 H 0.59797 0.48324 0.26987 0.0
C370 C 0.77827 0.42495 0.24195 0.0
N371 N 0.79996 0.53072 0.2087 0.0
C372 C 0.7929 0.54814 0.18114 0.0
C373 C 0.84487 0.53058 0.21252 0.0
N374 N 0.83145 0.55883 0.16765 0.0
C375 C 0.86442 0.54777 0.18708 0.0
C376 C 0.76764 0.53191 0.30571 0.0
O377 O 0.74097 0.4288 0.25816 0.0
O378 O 0.79066 0.45577 0.22818 0.0
O379 O 0.78575 0.53556 0.2772 0.0
O380 O 0.73074 0.51118 0.30414 0.0
O381 O 0.72268 0.56187 0.23809 0.0
H382 H 0.86225 0.51791 0.23202 0.0
H383 H 0.76013 0.55219 0.17066 0.0
O384 O 0.66836 0.53299 0.2627 0.0
O385 O 0.67725 0.45076 0.21776 0.0
O386 O 0.72661 0.48156 0.19002 0.0
C387 C 0.69189 0.45753 0.18931 0.0
H388 H 0.56181 0.44437 0.31645 0.0
H389 H 0.89989 0.55126 0.18278 0.0
Co390 Co 0.76911 0.70695 -0.00249 0.0
C391 C 0.77294 0.69507 0.92477 0.0
Co392 Co 0.72078 0.74996 0.97869 0.0
C393 C 0.79936 0.65133 0.04076 0.0
C394 C 0.84955 0.65617 0.00298 0.0
N395 N 0.80735 0.66927 0.01359 0.0
N396 N 0.83479 0.6281 0.0477 0.0
C397 C 0.86661 0.63074 0.02405 0.0
H398 H 0.76863 0.65619 0.05598 0.0
H399 H 0.86721 0.66564 0.98201 0.0
C400 C 0.71613 0.76084 0.05084 0.0
N401 N 0.68218 0.78767 0.96266 0.0
C402 C 0.69252 0.81425 0.94151 0.0
C403 C 0.63724 0.79117 0.96653 0.0
N404 N 0.65592 0.83304 0.93133 0.0
C405 C 0.62094 0.81886 0.94701 0.0
C406 C 0.68426 0.66888 0.97981 0.0
O407 O 0.74754 0.7318 0.04432 0.0
O408 O 0.70033 0.77533 0.02592 0.0
O409 O 0.67585 0.70563 0.97225 0.0
O410 O 0.72343 0.66171 -0.01016 0.0
O411 O 0.74078 0.72337 0.93148 0.0
H412 H 0.61738 0.7733 0.9814 0.0
H413 H 0.72601 0.81875 0.93272 0.0
O414 O 0.79063 0.68306 0.95026 0.0
O415 O 0.81371 0.75187 0.00548 0.0
O416 O 0.76678 0.79436 0.98551 0.0
C417 C 0.80486 0.78865 -0.0019 0.0
H418 H 0.90001 0.61662 0.02296 0.0
H419 H 0.58614 0.82645 0.94337 0.0
Co420 Co 0.47206 0.01654 0.48005 0.0
C421 C 0.48279 0.05211 0.55185 0.0
Co422 Co 0.51451 0.97517 0.50493 0.0
C423 C 0.409 0.04176 0.43336 0.0
C424 C 0.43657 0.09941 0.47111 0.0
N425 N 0.43834 0.05367 0.4603 0.0
N426 N 0.38898 0.07823 0.42729 0.0
C427 C 0.40589 0.1146 0.45097 0.0
H428 H 0.40193 0.00712 0.41876 0.0
H429 H 0.45597 0.12049 0.49252 0.0
C430 C 0.50469 0.93988 0.4328 0.0
N431 N 0.5482 0.93848 0.52543 0.0
C432 C 0.57584 0.95118 0.5535 0.0
C433 C 0.54856 0.89274 0.51656 0.0
N434 N 0.59306 0.91531 0.56238 0.0
C435 C 0.57628 0.87836 0.53928 0.0
C436 C 0.42443 0.95304 0.50083 0.0
O437 O 0.47871 0.97355 0.43573 0.0
O438 O 0.52562 0.93532 0.45971 0.0
O439 O 0.46293 0.94194 0.50928 0.0
O440 O 0.41983 0.98686 0.48849 0.0
O441 O 0.50313 0.01516 0.54981 0.0
H442 H 0.52929 0.87115 0.49539 0.0
H443 H 0.58289 0.98589 0.56754 0.0
O444 O 0.46631 0.05909 0.52421 0.0
O445 O 0.52377 0.04589 0.47165 0.0
O446 O 0.56604 0.00942 0.5005 0.0
C447 C 0.56162 0.03961 0.48414 0.0
H448 H 0.39683 0.14944 0.45324 0.0
H449 H 0.58307 0.84372 0.53932 0.0
Co450 Co 0.45858 0.51122 0.98447 0.0
C451 C 0.46926 0.54488 0.05659 0.0
Co452 Co 0.50458 0.47123 0.00748 0.0
C453 C 0.41051 0.54074 0.93097 0.0
C454 C 0.38739 0.57464 0.98309 0.0
N455 N 0.41913 0.54544 0.9655 0.0
N456 N 0.37437 0.56485 0.9264 0.0
C457 C 0.35969 0.58644 0.95905 0.0
H458 H 0.42772 0.51711 0.90932 0.0
H459 H 0.38226 0.58405 0.01145 0.0
C460 C 0.49637 0.43796 0.93561 0.0
N461 N 0.54253 0.43645 0.02591 0.0
C462 C 0.57146 0.45096 0.05276 0.0
C463 C 0.54526 0.39079 0.01716 0.0
N464 N 0.59166 0.41628 0.06141 0.0
C465 C 0.57538 0.37823 0.03928 0.0
C466 C 0.41628 0.44243 0.00385 0.0
O467 O 0.46611 0.46808 0.93947 0.0
O468 O 0.51842 0.43437 0.9621 0.0
O469 O 0.45599 0.4323 0.01061 0.0
O470 O 0.40955 0.47818 -0.00558 0.0
O471 O 0.49152 0.5088 0.05374 0.0
H472 H 0.5252 0.36815 -0.00296 0.0
H473 H 0.57574 0.48618 0.06716 0.0
O474 O 0.45257 0.55282 0.02927 0.0
O475 O 0.50747 0.54461 0.97469 0.0
O476 O 0.5522 0.5106 0.00382 0.0
C477 C 0.54585 0.54051 0.98739 0.0
H478 H 0.32902 0.606 0.96495 0.0
H479 H 0.58288 0.34415 0.04043 0.0
C480 C 0.97422 0.12631 0.09018 0.0
C481 C 0.96999 0.08038 0.0903 0.0
C482 C 0.96409 0.10414 0.15489 0.0
C483 C 0.96353 0.1504 0.15412 0.0
N484 N 0.95252 0.20322 0.11913 0.0
N485 N 0.94878 0.02676 0.12216 0.0
C486 C 0.96342 0.16074 0.12112 0.0
C487 C 0.96104 0.06961 0.12247 0.0
N488 N -0.00848 0.13734 0.06144 0.0
N489 N 0.9706 0.09244 0.18572 0.0
H490 H 0.9451 0.00107 0.09877 0.0
H491 H 0.9376 0.01825 0.14468 0.0
H492 H 0.97613 0.1154 0.21022 0.0
H493 H 0.97595 0.05909 0.1863 0.0
H494 H -0.00166 0.17056 0.06135 0.0
H495 H 0.00462 0.1131 0.03974 0.0
H496 H 0.94902 0.21113 0.09508 0.0
H497 H 0.94169 0.22878 0.14109 0.0
C498 C 0.81106 0.13962 0.37338 0.0
C499 C 0.79373 0.18469 0.38375 0.0
C500 C 0.81118 0.18987 0.32426 0.0
C501 C 0.84334 0.15546 0.32089 0.0
N502 N 0.86336 0.08718 0.33518 0.0
N503 N 0.77773 0.2535 0.3657 0.0
C504 C 0.83909 0.12634 0.34295 0.0
C505 C 0.79292 0.20995 0.35808 0.0
N506 N 0.79959 0.10955 0.39179 0.0
N507 N 0.7966 0.20172 0.2952 0.0
H508 H 0.7669 0.27206 0.3905 0.0
H509 H 0.78067 0.27293 0.34778 0.0
H510 H 0.8045 0.18204 0.26971 0.0
H511 H 0.77127 0.22559 0.29643 0.0
H512 H 0.80916 0.07562 0.38434 0.0
H513 H 0.77602 0.11756 0.41212 0.0
H514 H 0.86618 0.06647 0.3521 0.0
H515 H 0.88181 0.07664 0.31167 0.0
C516 C 0.8546 0.11653 0.63231 0.0
C517 C 0.84184 0.07046 0.62395 0.0
C518 C 0.82906 0.06972 0.56211 0.0
C519 C 0.8439 0.11512 0.57013 0.0
N520 N 0.87474 0.18108 0.61095 0.0
N521 N 0.82168 0.00115 0.58127 0.0
C522 C 0.85804 0.13827 0.60473 0.0
C523 C 0.83033 0.04644 0.58886 0.0
N524 N 0.86148 0.13974 0.66691 0.0
N525 N 0.81293 0.04952 0.52903 0.0
H526 H 0.82255 0.98359 0.60057 0.0
H527 H 0.81649 0.98036 0.55581 0.0
H528 H 0.81314 0.06557 0.50879 0.0
H529 H 0.79733 0.01809 0.52205 0.0
H530 H 0.86683 0.17448 0.6756 0.0
H531 H 0.85877 0.12455 0.68756 0.0
H532 H 0.88964 0.19868 0.63462 0.0
H533 H 0.87609 0.19817 0.59138 0.0
C534 C 0.8684 0.01048 0.86252 0.0
C535 C 0.8604 0.05019 0.89051 0.0
C536 C 0.81332 0.08061 0.85138 0.0
C537 C 0.82226 0.04109 0.82369 0.0
N538 N 0.87213 0.9784 0.79918 0.0
N539 N 0.83427 0.1272 0.90977 0.0
C540 C 0.85475 0.00953 0.82797 0.0
C541 C 0.83559 0.08672 0.88434 0.0
N542 N 0.88531 0.97225 0.8692 0.0
N543 N 0.78365 0.11193 0.84602 0.0
H544 H 0.85139 0.13251 0.9337 0.0
H545 H 0.81955 0.15633 0.90606 0.0
H546 H 0.7706 0.10996 0.821 0.0
H547 H 0.77153 0.13898 0.86619 0.0
H548 H 0.88865 0.9416 0.84972 0.0
H549 H 0.89067 0.96926 0.89466 0.0
H550 H 0.89859 0.9569 0.80092 0.0
H551 H 0.86329 0.97738 0.77332 0.0
C552 C 0.1387 0.9028 0.11354 0.0
C553 C 0.13922 0.93208 0.09123 0.0
C554 C 0.18301 0.98683 0.13438 0.0
C555 C 0.18674 0.95593 0.15542 0.0
N556 N 0.17656 0.87986 0.16038 0.0
N557 N 0.17358 -0.00564 0.07525 0.0
C558 C 0.16721 0.91233 0.14359 0.0
C559 C 0.16564 0.97142 0.0999 0.0
N560 N 0.1095 0.86743 0.10714 0.0
N561 N 0.19192 0.03179 0.14814 0.0
H562 H 0.16205 0.98285 0.04924 0.0
H563 H 0.19565 0.02158 0.07963 0.0
H564 H 0.19867 0.04611 0.17482 0.0
H565 H 0.18615 0.05576 0.13427 0.0
H566 H 0.10466 0.84778 0.12467 0.0
H567 H 0.08733 0.86026 0.08589 0.0
H568 H 0.1661 0.8464 0.15081 0.0
H569 H 0.19857 0.88516 0.1817 0.0
C570 C 0.05155 0.39434 0.38079 0.0
C571 C 0.01377 0.42388 0.38975 0.0
C572 C 0.97066 0.37448 0.34262 0.0
C573 C 0.00801 0.34536 0.3326 0.0
N574 N 0.08522 0.32798 0.33996 0.0
N575 N 0.94952 0.45252 0.36528 0.0
C576 C 0.0491 0.35567 0.35089 0.0
C577 C 0.97696 0.41739 0.36642 0.0
N578 N 0.08958 0.40336 0.40072 0.0
N579 N 0.92884 0.36106 0.33035 0.0
H580 H 0.95807 0.48604 0.37746 0.0
H581 H 0.92296 0.44896 0.34756 0.0
H582 H 0.9223 0.3288 0.31411 0.0
H583 H 0.90029 0.3805 0.33943 0.0
H584 H 0.11591 0.38056 0.39887 0.0
H585 H 0.09498 0.43432 0.41927 0.0
H586 H 0.11767 0.33557 0.3492 0.0
H587 H 0.08241 0.2971 0.32079 0.0
C588 C 0.69983 0.32422 0.60451 0.0
C589 C 0.69285 0.28159 0.57964 0.0
C590 C 0.62554 0.27074 0.61147 0.0
C591 C 0.63624 0.30973 0.63912 0.0
N592 N 0.68699 0.37045 0.66463 0.0
N593 N 0.65378 0.21012 0.56323 0.0
C594 C 0.67443 0.33571 0.63643 0.0
C595 C 0.65728 0.25342 0.5844 0.0
N596 N 0.7295 0.35415 0.5972 0.0
N597 N 0.58411 0.25164 0.61014 0.0
H598 H 0.67722 0.1958 0.54369 0.0
H599 H 0.63047 0.18706 0.56764 0.0
H600 H 0.55868 0.26577 0.62805 0.0
H601 H 0.57329 0.22532 0.5889 0.0
H602 H 0.733 0.38727 0.613 0.0
H603 H 0.7476 0.34705 0.57359 0.0
H604 H 0.71698 0.38791 0.66539 0.0
H605 H 0.66907 0.37924 0.6884 0.0
C606 C 0.6459 0.9277 0.88774 0.0
C607 C 0.65294 0.90343 0.85187 0.0
C608 C 0.65859 0.83225 0.86838 0.0
C609 C 0.65414 0.85684 0.90449 0.0
N610 N 0.64769 0.92724 0.94965 0.0
N611 N 0.67021 0.83428 0.80754 0.0
C612 C 0.64871 0.90446 0.91449 0.0
C613 C 0.66048 0.85607 0.84205 0.0
N614 N 0.63629 0.9729 0.89586 0.0
N615 N 0.65959 0.786 0.85944 0.0
H616 H 0.67005 0.85071 0.78754 0.0
H617 H 0.68087 0.80075 0.79891 0.0
H618 H 0.658 0.76778 0.87825 0.0
H619 H 0.65884 0.76549 0.8335 0.0
H620 H 0.627 -0.0076 0.92098 0.0
H621 H 0.63532 0.99058 0.87664 0.0
H622 H 0.64761 0.96234 0.95929 0.0
H623 H 0.64951 0.91063 0.96952 0.0
C624 C 0.17385 0.31331 0.09707 0.0
C625 C 0.15883 0.2798 0.0668 0.0
C626 C 0.0867 0.27702 0.09562 0.0
C627 C 0.10424 0.30528 0.12742 0.0
N628 N 0.16569 0.34662 0.16032 0.0
N629 N 0.10261 0.22574 0.0381 0.0
C630 C 0.14815 0.32263 0.12868 0.0
C631 C 0.11554 0.26067 0.06615 0.0
N632 N 0.21158 0.33744 0.09508 0.0
N633 N 0.04213 0.26688 0.09349 0.0
H634 H 0.1227 0.21281 0.01589 0.0
H635 H 0.07348 0.20718 0.03808 0.0
H636 H 0.02009 0.27927 0.11463 0.0
H637 H 0.02631 0.25022 0.06993 0.0
H638 H 0.22223 0.36493 0.11541 0.0
H639 H 0.22938 0.33298 0.0715 0.0
H640 H 0.19916 0.35625 0.16355 0.0
H641 H 0.14753 0.35376 0.18395 0.0
C642 C 0.63826 0.42741 0.38635 0.0
C643 C 0.62762 0.40338 0.35109 0.0
C644 C 0.62626 0.33193 0.36721 0.0
C645 C 0.63673 0.35601 0.40248 0.0
N646 N 0.64752 0.4257 0.44754 0.0
N647 N 0.60663 0.33499 0.30778 0.0
C648 C 0.64104 0.40363 0.41264 0.0
C649 C 0.6198 0.3562 0.34155 0.0
N650 N 0.64699 0.47271 0.3941 0.0
N651 N 0.62419 0.28573 0.35832 0.0
H652 H 0.60299 0.35216 0.2884 0.0
H653 H 0.59694 0.30126 0.29928 0.0
H654 H 0.62814 0.2674 0.37691 0.0
H655 H 0.62064 0.26525 0.33256 0.0
H656 H 0.65943 0.49189 0.41827 0.0
H657 H 0.64325 0.49105 0.37549 0.0
H658 H 0.64757 0.46074 0.45766 0.0
H659 H 0.65045 0.40853 0.46699 0.0
C660 C 0.6685 0.92346 0.58807 0.0
C661 C 0.62222 0.91642 0.59153 0.0
C662 C 0.63342 0.91083 0.65187 0.0
C663 C 0.67819 0.92585 0.6506 0.0
N664 N 0.74258 0.92221 0.61255 0.0
N665 N 0.55914 0.90563 0.62634 0.0
C666 C 0.69719 0.92518 0.61717 0.0
C667 C 0.60431 0.91022 0.62323 0.0
N668 N 0.68459 0.92975 0.55716 0.0
N669 N 0.61985 0.89345 0.6787 0.0
H670 H 0.53706 0.90481 0.60562 0.0
H671 H 0.54334 0.90631 0.65017 0.0
H672 H 0.64222 0.88608 0.6967 0.0
H673 H 0.58833 0.87951 0.67977 0.0
H674 H 0.71694 0.94075 0.55422 0.0
H675 H 0.66448 0.92655 0.53491 0.0
H676 H 0.75844 0.91842 0.58827 0.0
H677 H 0.76413 0.91714 0.63195 0.0
C678 C 0.00892 0.85441 0.90094 0.0
C679 C 0.00619 0.9009 0.9019 0.0
C680 C -3e-05 0.88025 0.83751 0.0
C681 C 0.00817 0.8343 0.83649 0.0
N682 N 0.0328 0.78003 0.86695 0.0
N683 N 0.01033 0.95841 0.87058 0.0
C684 C 0.01667 0.82212 0.86813 0.0
C685 C 0.00527 0.914 0.87 0.0
N686 N 0.00106 0.84049 0.93062 0.0
N687 N 0.9845 0.89164 0.80833 0.0
H688 H 0.01616 0.98393 0.89385 0.0
H689 H 0.01365 0.969 0.84765 0.0
H690 H 0.97747 0.86797 0.78436 0.0
H691 H 0.97403 0.92429 0.80911 0.0
H692 H -0.00148 0.80645 0.93004 0.0
H693 H -0.00819 0.86245 0.95489 0.0
H694 H 0.04296 0.77109 0.88954 0.0
H695 H 0.04078 0.75594 0.84327 0.0
C696 C 0.07264 0.11184 0.96521 0.0
C697 C 0.0826 0.06952 0.97193 0.0
C698 C 0.16273 0.08236 0.96351 0.0
C699 C 0.15207 0.12489 0.95784 0.0
N700 N 0.09584 0.16196 0.93104 0.0
N701 N 0.13581 0.00725 0.96054 0.0
C702 C 0.10676 0.13408 0.95154 0.0
C703 C 0.12738 0.05248 0.96625 0.0
N704 N 0.03173 0.13233 0.97268 0.0
N705 N 0.20636 0.06952 0.9647 0.0
H706 H 0.11053 0.98321 0.95753 0.0
H707 H 0.16731 -0.00726 0.9538 0.0
H708 H 0.23275 0.08635 0.95642 0.0
H709 H 0.21606 0.04219 0.97396 0.0
H710 H 0.02587 0.1652 0.97102 0.0
H711 H 0.0051 0.11953 0.98389 0.0
H712 H 0.06282 0.1674 0.92457 0.0
H713 H 0.11937 0.17286 0.91558 0.0
C714 C 0.63787 0.60436 0.21507 0.0
C715 C 0.65398 0.60238 0.24868 0.0
C716 C 0.61276 0.6717 0.27758 0.0
C717 C 0.59221 0.67008 0.24477 0.0
N718 N 0.58183 0.63358 0.18257 0.0
N719 N 0.65621 0.63238 0.31223 0.0
C720 C 0.60425 0.63643 0.21346 0.0
C721 C 0.64127 0.63559 0.28009 0.0
N722 N 0.65447 0.57553 0.18464 0.0
N723 N 0.60615 0.70867 0.30589 0.0
H724 H 0.67917 0.60784 0.31489 0.0
H725 H 0.64412 0.65244 0.33636 0.0
H726 H 0.58691 0.73638 0.30413 0.0
H727 H 0.62297 0.714 0.32987 0.0
H728 H 0.64821 0.57907 0.15945 0.0
H729 H 0.67705 0.54962 0.18441 0.0
H730 H 0.58469 0.60633 0.16003 0.0
H731 H 0.55785 0.65716 0.18002 0.0
C732 C 0.33605 0.88589 0.53342 0.0
C733 C 0.32958 0.85082 0.50178 0.0
C734 C 0.37677 0.88959 0.46892 0.0
C735 C 0.38681 0.92261 0.5009 0.0
N736 N 0.37934 0.95183 0.56419 0.0
N737 N 0.35538 0.81212 0.44304 0.0
C738 C 0.36727 0.92078 0.53344 0.0
C739 C 0.35308 0.85063 0.47047 0.0
N740 N 0.31267 0.88544 0.56326 0.0
N741 N 0.38982 0.89526 0.43702 0.0
H742 H 0.34097 0.7818 0.44438 0.0
H743 H 0.37579 0.80887 0.4209 0.0
H744 H 0.40698 0.92372 0.43464 0.0
H745 H 0.37968 0.87384 0.41282 0.0
H746 H 0.31193 0.91233 0.58616 0.0
H747 H 0.29267 0.8582 0.5646 0.0
H748 H 0.37009 0.94977 0.58928 0.0
H749 H 0.40036 0.97906 0.56461 0.0
C750 C 0.08874 0.61876 0.75248 0.0
C751 C 0.09896 0.66449 0.75468 0.0
C752 C 0.17889 0.64635 0.7575 0.0
C753 C 0.16713 0.60123 0.75725 0.0
N754 N 0.10902 0.55902 0.77767 0.0
N755 N 0.15379 0.72444 0.76909 0.0
C756 C 0.12156 0.59176 0.7621 0.0
C757 C 0.14417 0.67925 0.75982 0.0
N758 N 0.04863 0.59992 0.73988 0.0
N759 N 0.22273 0.65859 0.75719 0.0
H760 H 0.12923 0.74954 0.77325 0.0
H761 H 0.18566 0.73727 0.77631 0.0
H762 H 0.24892 0.63941 0.76305 0.0
H763 H 0.23291 0.68831 0.75158 0.0
H764 H 0.04197 0.56565 0.73645 0.0
H765 H 0.02495 0.61635 0.72835 0.0
H766 H 0.07548 0.55298 0.78231 0.0
H767 H 0.13146 0.54412 0.79146 0.0
C768 C 0.85517 0.36241 0.5272 0.0
C769 C 0.83797 0.33637 0.49423 0.0
C770 C 0.88003 0.38188 0.46281 0.0
C771 C 0.89831 0.40722 0.49557 0.0
N772 N 0.9069 0.42051 0.55866 0.0
N773 N 0.84405 0.31251 0.43063 0.0
C774 C 0.88698 0.39708 0.52773 0.0
C775 C 0.85288 0.34389 0.46201 0.0
N776 N 0.84045 0.35443 0.55793 0.0
N777 N 0.88904 0.39358 0.43227 0.0
H778 H 0.82736 0.28246 0.42944 0.0
H779 H 0.85765 0.31338 0.40638 0.0
H780 H 0.91155 0.4188 0.43079 0.0
H781 H 0.87197 0.38015 0.40863 0.0
H782 H 0.84708 0.37535 0.5831 0.0
H783 H 0.82 0.32718 0.55834 0.0
H784 H 0.90435 0.41178 0.58238 0.0
H785 H 0.92778 0.4482 0.56047 0.0
C786 C 0.33312 0.87164 0.20943 0.0
C787 C 0.32258 0.90138 0.24305 0.0
C788 C 0.36847 0.8566 0.27248 0.0
C789 C 0.38302 0.82992 0.23868 0.0
N790 N 0.38159 0.81211 0.17494 0.0
N791 N 0.3328 0.92602 0.30639 0.0
C792 C 0.3659 0.83737 0.20709 0.0
C793 C 0.34048 0.89463 0.27461 0.0
N794 N 0.31078 0.87546 0.17998 0.0
N795 N 0.38172 0.84591 0.30255 0.0
H796 H 0.31231 0.95434 0.30913 0.0
H797 H 0.3493 0.92612 0.32975 0.0
H798 H 0.40418 0.81993 0.30245 0.0
H799 H 0.36808 0.86061 0.3275 0.0
H800 H 0.3135 0.85208 0.15523 0.0
H801 H 0.28657 0.90029 0.1808 0.0
H802 H 0.37479 0.81945 0.15111 0.0
H803 H 0.40339 0.78471 0.17217 0.0
C804 C 0.37784 0.40641 0.74386 0.0
C805 C 0.33973 0.39309 0.72182 0.0
C806 C 0.36243 0.31307 0.70966 0.0
C807 C 0.4008 0.32677 0.73104 0.0
N808 N 0.43989 0.38443 0.77484 0.0
N809 N 0.29875 0.33538 0.67972 0.0
C810 C 0.40727 0.37292 0.74959 0.0
C811 C 0.33255 0.34671 0.70391 0.0
N812 N 0.3865 0.4512 0.75923 0.0
N813 N 0.35429 0.26795 0.69543 0.0
H814 H 0.27795 0.35955 0.67379 0.0
H815 H 0.29342 0.30297 0.66331 0.0
H816 H 0.37571 0.24269 0.69896 0.0
H817 H 0.32501 0.25508 0.68225 0.0
H818 H 0.41732 0.46331 0.77005 0.0
H819 H 0.364 0.47717 0.7599 0.0
H820 H 0.44262 0.41609 0.79306 0.0
H821 H 0.46198 0.36104 0.78013 0.0
C822 C 0.17815 0.83144 0.60806 0.0
C823 C 0.18437 0.78713 0.58537 0.0
C824 C 0.12462 0.75942 0.6162 0.0
C825 C 0.12208 0.80217 0.64151 0.0
N826 N 0.154 0.87598 0.66618 0.0
N827 N 0.17121 0.70645 0.57466 0.0
C828 C 0.15114 0.83748 0.63886 0.0
C829 C 0.16064 0.75022 0.59197 0.0
N830 N 0.19731 0.8677 0.60004 0.0
N831 N 0.09084 0.72874 0.61334 0.0
H832 H 0.19628 0.69742 0.5557 0.0
H833 H 0.15737 0.67886 0.58151 0.0
H834 H 0.06086 0.7363 0.6274 0.0
H835 H 0.09008 0.69801 0.59376 0.0
H836 H 0.19021 0.90111 0.61393 0.0
H837 H 0.21754 0.86443 0.57782 0.0
H838 H 0.17746 0.90124 0.66687 0.0
H839 H 0.13612 0.88038 0.68975 0.0
C840 C 0.13649 0.86383 0.34141 0.0
C841 C 0.13804 0.91163 0.35007 0.0
C842 C 0.1404 0.91644 0.41332 0.0
C843 C 0.13767 0.86871 0.40466 0.0
N844 N 0.12692 0.79677 0.36208 0.0
N845 N 0.13582 0.9843 0.39293 0.0
C846 C 0.13367 0.84233 0.36908 0.0
C847 C 0.13818 0.93825 0.38576 0.0
N848 N 0.1397 0.83927 0.30674 0.0
N849 N 0.1467 0.94041 0.44781 0.0
H850 H 0.13453 0.00076 0.37295 0.0
H851 H 0.1323 0.00606 0.41829 0.0
H852 H 0.14762 0.92493 0.46838 0.0
H853 H 0.15329 0.97495 0.45594 0.0
H854 H 0.14334 0.80423 0.29849 0.0
H855 H 0.1415 0.85443 0.28602 0.0
H856 H 0.11985 0.77575 0.33703 0.0
H857 H 0.12531 0.78033 0.38206 0.0
C858 C 0.01914 0.62401 0.63957 0.0
C859 C 0.97766 0.64069 0.65566 0.0
C860 C 0.93778 0.58692 0.60781 0.0
C861 C 0.97902 0.57518 0.58949 0.0
N862 N 0.0584 0.58968 0.58531 0.0
N863 N 0.89694 0.64183 0.65369 0.0
C864 C 0.01961 0.59541 0.60468 0.0
C865 C 0.93669 0.62301 0.63955 0.0
N866 N 0.05827 0.63432 0.65794 0.0
N867 N 0.90003 0.56278 0.59541 0.0
H868 H 0.89485 0.66828 0.67691 0.0
H869 H 0.8663 0.63367 0.64096 0.0
H870 H 0.89989 0.53564 0.57258 0.0
H871 H 0.86996 0.56686 0.60945 0.0
H872 H 0.08874 0.6187 0.64889 0.0
H873 H 0.05962 0.65474 0.6838 0.0
H874 H 0.08731 0.60832 0.59391 0.0
H875 H 0.0608 0.57018 0.55918 0.0
C876 C 0.29349 0.73415 0.36895 0.0
C877 C 0.29074 0.70371 0.39066 0.0
C878 C 0.32292 0.6438 0.34157 0.0
C879 C 0.33383 0.67697 0.32427 0.0
N880 N 0.29998 0.7398 0.30892 0.0
N881 N 0.30124 0.62711 0.39577 0.0
C882 C 0.30968 0.71795 0.33392 0.0
C883 C 0.30474 0.65768 0.3764 0.0
N884 N 0.28494 0.77935 0.38228 0.0
N885 N 0.32326 0.59932 0.32277 0.0
H886 H 0.28507 0.63386 0.42008 0.0
H887 H 0.31653 0.59534 0.38826 0.0
H888 H 0.32741 0.58979 0.2953 0.0
H889 H 0.31217 0.57322 0.33287 0.0
H890 H 0.29062 0.8027 0.36785 0.0
H891 H 0.27817 0.79462 0.40883 0.0
H892 H 0.27906 0.76812 0.31378 0.0
H893 H 0.30843 0.72574 0.2823 0.0
C894 C 0.33808 0.07218 0.11217 0.0
C895 C 0.34237 0.10172 0.14669 0.0
C896 C 0.33881 0.16754 0.1231 0.0
C897 C 0.33126 0.13807 0.08896 0.0
N898 N 0.32032 0.06359 0.05024 0.0
N899 N 0.34321 0.17653 0.18649 0.0
C900 C 0.33011 0.0906 0.08325 0.0
C901 C 0.3421 0.14924 0.15256 0.0
N902 N 0.34208 0.02657 0.10739 0.0
N903 N 0.34325 0.21289 0.12697 0.0
H904 H 0.34649 0.16365 0.20836 0.0
H905 H 0.33862 0.21145 0.19323 0.0
H906 H 0.33962 0.22708 0.10582 0.0
H907 H 0.35292 0.23611 0.15043 0.0
H908 H 0.34266 0.00279 0.08274 0.0
H909 H 0.34791 0.01257 0.12839 0.0
H910 H 0.31493 0.0289 0.04448 0.0
H911 H 0.31502 0.07659 0.02864 0.0
C912 C 0.79253 0.70531 0.86408 0.0
C913 C 0.791 0.67743 0.8879 0.0
C914 C 0.83541 0.61991 0.84509 0.0
C915 C 0.84059 0.65053 0.82436 0.0
N916 N 0.79824 0.70369 0.80242 0.0
N917 N 0.79778 0.60098 0.89377 0.0
C918 C 0.81049 0.6871 0.82983 0.0
C919 C 0.80796 0.63215 0.87599 0.0
N920 N 0.78052 0.74992 0.87423 0.0
N921 N 0.85936 0.5805 0.83604 0.0
H922 H 0.77743 0.60822 0.91612 0.0
H923 H 0.80615 0.56681 0.88461 0.0
H924 H 0.87772 0.57096 0.81243 0.0
H925 H 0.86229 0.55863 0.85203 0.0
H926 H 0.78495 0.77125 0.85789 0.0
H927 H 0.77199 0.76732 0.89992 0.0
H928 H 0.77447 0.72941 0.80513 0.0
H929 H 0.80565 0.68627 0.7763 0.0
C930 C 0.35318 0.64946 0.64316 0.0
C931 C 0.35088 0.60196 0.63701 0.0
C932 C 0.34472 0.59183 0.57312 0.0
C933 C 0.34809 0.63923 0.5792 0.0
N934 N 0.36186 0.71311 0.61813 0.0
N935 N 0.35145 0.5271 0.59711 0.0
C936 C 0.35442 0.66806 0.61377 0.0
C937 C 0.34886 0.57284 0.60215 0.0
N938 N 0.35231 0.67652 0.67718 0.0
N939 N 0.33586 0.56546 0.53972 0.0
H940 H 0.35446 0.51258 0.61812 0.0
H941 H 0.35392 0.50375 0.57232 0.0
H942 H 0.33343 0.57877 0.51802 0.0
H943 H 0.32839 0.53113 0.53375 0.0
H944 H 0.34946 0.71162 0.68384 0.0
H945 H 0.35183 0.6634 0.69905 0.0
H946 H 0.37048 0.73572 0.64218 0.0
H947 H 0.36244 0.72736 0.59687 0.0
C948 C 0.28141 0.05991 0.37595 0.0
C949 C 0.29611 0.07056 0.34477 0.0
C950 C 0.36815 0.09565 0.37195 0.0
C951 C 0.35638 0.07843 0.40064 0.0
N952 N 0.30167 0.04799 0.43271 0.0
N953 N 0.34092 0.123 0.32367 0.0
C954 C 0.31268 0.06202 0.40363 0.0
C955 C 0.33571 0.09613 0.34594 0.0
N956 N 0.2371 0.05161 0.38013 0.0
N957 N 0.41107 0.10899 0.36843 0.0
H958 H 0.31503 0.12832 0.30744 0.0
H959 H 0.3679 0.14483 0.32509 0.0
H960 H 0.43621 0.10781 0.38655 0.0
H961 H 0.42259 0.11728 0.34593 0.0
H962 H 0.22356 0.04524 0.40271 0.0
H963 H 0.21271 0.05706 0.36276 0.0
H964 H 0.27237 0.03078 0.435 0.0
H965 H 0.323 0.05227 0.45438 0.0
C966 C 0.85505 0.8491 0.03466 0.0
C967 C 0.83986 0.8232 0.00108 0.0
C968 C 0.88151 0.87094 0.97184 0.0
C969 C 0.89861 0.89617 0.00526 0.0
N970 N 0.90911 0.90301 0.06753 0.0
N971 N 0.85081 0.79955 0.938 0.0
C972 C 0.88778 0.88324 0.03643 0.0
C973 C 0.85654 0.8313 0.96973 0.0
N974 N 0.83744 0.84185 0.0648 0.0
N975 N 0.88898 0.88437 0.94189 0.0
H976 H 0.83536 0.7686 0.93609 0.0
H977 H 0.8661 0.80128 0.91452 0.0
H978 H 0.90873 0.91176 0.94118 0.0
H979 H 0.87262 0.87016 0.91803 0.0
H980 H 0.84298 0.8632 0.09004 0.0
H981 H 0.81495 0.81582 0.06441 0.0
H982 H 0.90607 0.89179 0.09017 0.0
H983 H 0.93281 0.92837 0.06992 0.0
C984 C 0.67468 0.08761 0.46724 0.0
C985 C 0.66118 0.13304 0.46911 0.0
C986 C 0.58719 0.11719 0.48802 0.0
C987 C 0.59819 0.07096 0.48214 0.0
N988 N 0.65057 0.00998 0.45864 0.0
N989 N 0.59671 0.17901 0.46286 0.0
C990 C 0.64155 0.05535 0.4698 0.0
C991 C 0.61508 0.14441 0.47381 0.0
N992 N 0.71846 0.07453 0.46215 0.0
N993 N 0.55047 0.13555 0.50754 0.0
H994 H 0.61298 0.19377 0.44537 0.0
H995 H 0.56258 0.18667 0.4655 0.0
H996 H 0.53102 0.11737 0.52092 0.0
H997 H 0.54328 0.17014 0.51395 0.0
H998 H 0.73045 0.04442 0.4662 0.0
H999 H 0.74301 0.09369 0.45443 0.0
H1000 H 0.68022 -0.00325 0.44583 0.0
H1001 H 0.62697 0.98526 0.45915 0.0
C1002 C 0.80177 0.3428 0.22922 0.0
C1003 C 0.81098 0.38946 0.24397 0.0
C1004 C 0.88875 0.372 0.25428 0.0
C1005 C 0.87957 0.32494 0.24115 0.0
N1006 N 0.82606 0.26483 0.2203 0.0
N1007 N 0.85924 0.44688 0.27959 0.0
C1008 C 0.8355 0.31006 0.23024 0.0
C1009 C 0.85333 0.40353 0.25899 0.0
N1010 N 0.76185 0.33 0.21259 0.0
N1011 N 0.93136 0.3872 0.26258 0.0
H1012 H 0.83371 0.47075 0.28508 0.0
H1013 H 0.88788 0.45797 0.29446 0.0
H1014 H 0.95788 0.36645 0.26498 0.0
H1015 H 0.94078 0.42077 0.26607 0.0
H1016 H 0.75478 0.29704 0.19793 0.0
H1017 H 0.73662 0.35309 0.21136 0.0
H1018 H 0.7937 0.25204 0.2161 0.0
H1019 H 0.85044 0.23983 0.2181 0.0
C1020 C 0.07859 0.63334 0.50291 0.0
C1021 C 0.08461 0.58796 0.4823 0.0
C1022 C 0.15768 0.60653 0.46185 0.0
C1023 C 0.1509 0.65256 0.48094 0.0
N1024 N 0.1022 0.71115 0.51653 0.0
N1025 N 0.12366 0.53363 0.43573 0.0
C1026 C 0.11036 0.66643 0.50024 0.0
C1027 C 0.12259 0.57505 0.46016 0.0
N1028 N 0.04369 0.64447 0.52646 0.0
N1029 N 0.19735 0.59285 0.44487 0.0
H1030 H 0.09712 0.51097 0.43238 0.0
H1031 H 0.14826 0.52367 0.41629 0.0
H1032 H 0.22233 0.61533 0.44263 0.0
H1033 H 0.20648 0.559 0.43466 0.0
H1034 H 0.03985 0.67584 0.54489 0.0
H1035 H 0.01977 0.62142 0.5298 0.0
H1036 H 0.07073 0.72397 0.5256 0.0
H1037 H 0.12628 0.73626 0.52018 0.0
C1038 C 0.66035 0.11118 0.71559 0.0
C1039 C 0.67212 0.10042 0.74731 0.0
C1040 C 0.62165 0.16022 0.78115 0.0
C1041 C 0.61143 0.17202 0.74953 0.0
N1042 N 0.62909 0.1652 0.68797 0.0
N1043 N 0.67076 0.11991 0.81126 0.0
C1044 C 0.63406 0.1502 0.71741 0.0
C1045 C 0.65472 0.12648 0.78044 0.0
N1046 N 0.6703 0.08176 0.68333 0.0
N1047 N 0.59946 0.18107 0.81185 0.0
H1048 H 0.69469 0.09543 0.81192 0.0
H1049 H 0.66319 0.14102 0.83626 0.0
H1050 H 0.57807 0.20868 0.81418 0.0
H1051 H 0.60072 0.16991 0.83459 0.0
H1052 H 0.65813 0.08552 0.65944 0.0
H1053 H 0.68625 0.05072 0.68028 0.0
H1054 H 0.65008 0.15508 0.66592 0.0
H1055 H 0.60466 0.18827 0.68566 0.0
C1056 C 0.8243 0.54703 0.10365 0.0
C1057 C 0.8359 0.57566 0.13704 0.0
C1058 C 0.8532 0.63686 0.11031 0.0
C1059 C 0.83859 0.60907 0.07716 0.0
N1060 N 0.80811 0.53942 0.04138 0.0
N1061 N 0.85675 0.64864 0.1741 0.0
C1062 C 0.82374 0.56431 0.07348 0.0
C1063 C 0.8496 0.62078 0.14092 0.0
N1064 N 0.81457 0.50326 0.10213 0.0
N1065 N 0.87035 0.67863 0.11222 0.0
H1066 H 0.85354 0.63762 0.19687 0.0
H1067 H 0.86287 0.68318 0.17947 0.0
H1068 H 0.87209 0.69153 0.09028 0.0
H1069 H 0.88535 0.69936 0.13474 0.0
H1070 H 0.80733 0.47804 0.07903 0.0
H1071 H 0.80733 0.47804 0.07903 0.0
H1072 H 0.79283 0.50802 0.03699 0.0
H1073 H 0.80878 0.55146 0.01897 0.0
C1074 C 0.84502 0.59524 0.3798 0.0
C1075 C 0.84092 0.56832 0.40382 0.0
C1076 C 0.79226 0.5164 0.36247 0.0
C1077 C 0.79193 0.54572 0.33996 0.0
N1078 N 0.80974 0.61925 0.33242 0.0
N1079 N 0.79964 0.51196 0.42263 0.0
C1080 C 0.81572 0.5872 0.35021 0.0
C1081 C 0.81046 0.53203 0.39673 0.0
N1082 N 0.87833 0.62652 0.38389 0.0
N1083 N 0.77926 0.47227 0.35035 0.0
H1084 H 0.81185 0.52375 0.44842 0.0
H1085 H 0.7749 0.48728 0.4194 0.0
H1086 H 0.77195 0.45701 0.32389 0.0
H1087 H 0.78226 0.4492 0.36538 0.0
H1088 H 0.88533 0.64375 0.36503 0.0
H1089 H 0.90163 0.6321 0.40431 0.0
H1090 H 0.82362 0.6515 0.34085 0.0
H1091 H 0.7871 0.61538 0.31162 0.0
C1092 C 0.18715 0.48913 0.61856 0.0
C1093 C 0.19616 0.45395 0.63482 0.0
C1094 C 0.17461 0.39797 0.57972 0.0
C1095 C 0.15818 0.4335 0.56665 0.0
N1096 N 0.1794 0.50731 0.56282 0.0
N1097 N 0.19758 0.37372 0.63062 0.0
C1098 C 0.17374 0.47768 0.58274 0.0
C1099 C 0.18972 0.40793 0.61535 0.0
N1100 N 0.18808 0.53355 0.63782 0.0
N1101 N 0.18242 0.35654 0.55669 0.0
H1102 H 0.20989 0.37905 0.65618 0.0
H1103 H 0.18863 0.34024 0.61871 0.0
H1104 H 0.1807 0.35178 0.52935 0.0
H1105 H 0.19767 0.32986 0.56392 0.0
H1106 H 0.17774 0.55981 0.6275 0.0
H1107 H 0.19405 0.54382 0.665 0.0
H1108 H 0.19429 0.53893 0.57255 0.0
H1109 H 0.17451 0.49738 0.53542 0.0
C1110 C 0.65941 0.83227 0.13406 0.0
C1111 C 0.63597 0.79846 0.14507 0.0
C1112 C 0.67238 0.73915 0.09833 0.0
C1113 C 0.69392 0.77327 0.086 0.0
N1114 N 0.716 0.85098 0.09577 0.0
N1115 N 0.62742 0.71924 0.14288 0.0
C1116 C 0.69005 0.81952 0.10517 0.0
C1117 C 0.64534 0.75183 0.12927 0.0
N1118 N 0.65073 0.87671 0.15077 0.0
N1119 N 0.67404 0.6948 0.07869 0.0
H1120 H 0.60243 0.72494 0.16196 0.0
H1121 H 0.63916 0.686 0.13646 0.0
H1122 H 0.69272 0.68314 0.05565 0.0
H1123 H 0.65362 0.66953 0.0832 0.0
H1124 H 0.6623 0.90373 0.14207 0.0
H1125 H 0.63047 0.88647 0.17333 0.0
H1126 H 0.71777 0.88484 0.11016 0.0
H1127 H 0.73846 0.84248 0.07458 0.0
C1128 C 0.61903 0.45247 0.1571 0.0
C1129 C 0.6656 0.44227 0.15645 0.0
C1130 C 0.66299 0.41247 0.09191 0.0
C1131 C 0.61626 0.41999 0.09329 0.0
N1132 N 0.54807 0.43509 0.12707 0.0
N1133 N 0.72998 0.4039 0.12426 0.0
C1134 C 0.59376 0.43584 0.12597 0.0
C1135 C 0.68713 0.41961 0.1241 0.0
N1136 N 0.59939 0.48089 0.18639 0.0
N1137 N 0.68427 0.40012 0.05987 0.0
H1138 H 0.7481 0.40724 0.14752 0.0
H1139 H 0.74596 0.38385 0.10176 0.0
H1140 H 0.66698 0.39417 0.03597 0.0
H1141 H 0.71898 0.39886 0.0571 0.0
H1142 H 0.5667 0.49289 0.18653 0.0
H1143 H 0.61682 0.49689 0.20925 0.0
H1144 H 0.52987 0.44236 0.15067 0.0
H1145 H 0.52869 0.42256 0.10444 0.0
C1146 C 0.37127 0.39418 0.03365 0.0
C1147 C 0.3791 0.41039 0.00355 0.0
C1148 C 0.32839 0.35315 0.96839 0.0
C1149 C 0.31758 0.33908 -0.00106 0.0
N1150 N 0.3257 0.34859 0.06179 0.0
N1151 N 0.35709 0.41115 0.94409 0.0
C1152 C 0.33833 0.36012 0.03192 0.0
C1153 C 0.35466 0.39227 0.97178 0.0
N1154 N 0.39529 0.41148 0.06395 0.0
N1155 N 0.31707 0.32687 0.93538 0.0
H1156 H 0.37933 0.43641 0.94248 0.0
H1157 H 0.33502 0.40264 0.9228 0.0
H1158 H 0.30068 0.29604 0.93093 0.0
H1159 H 0.32895 0.33253 0.91198 0.0
H1160 H 0.39605 0.39709 0.08506 0.0
H1161 H 0.41596 0.43968 0.06762 0.0
H1162 H 0.33517 0.36643 0.08728 0.0
H1163 H 0.30349 0.32253 0.06154 0.0
C1164 C 0.13697 0.18943 0.26616 0.0
C1165 C 0.09893 0.17614 0.24442 0.0
C1166 C 0.12367 0.09765 0.22721 0.0
C1167 C 0.16025 0.10978 0.2509 0.0
N1168 N 0.20258 0.16598 0.29348 0.0
N1169 N 0.06855 0.12402 0.19271 0.0
C1170 C 0.16762 0.15556 0.27023 0.0
C1171 C 0.09579 0.13203 0.22161 0.0
N1172 N 0.14455 0.23437 0.28132 0.0
N1173 N 0.11472 0.05331 0.21057 0.0
H1174 H 0.051 0.15005 0.18635 0.0
H1175 H 0.06818 0.09359 0.17276 0.0
H1176 H 0.13486 0.02656 0.2127 0.0
H1177 H 0.08528 0.04274 0.19658 0.0
H1178 H 0.17241 0.24728 0.2965 0.0
H1179 H 0.12465 0.25936 0.27561 0.0
H1180 H 0.2082 0.19793 0.31053 0.0
H1181 H 0.22522 0.14175 0.29719 0.0
C1182 C 0.15891 0.38219 0.88352 0.0
C1183 C 0.14955 0.33527 0.87476 0.0
C1184 C 0.14471 0.3319 0.81177 0.0
C1185 C 0.15262 0.37902 0.82071 0.0
N1186 N 0.16398 0.4499 0.86212 0.0
N1187 N 0.13058 0.2653 0.83228 0.0
C1188 C 0.15893 0.40437 0.8561 0.0
C1189 C 0.14139 0.31007 0.83929 0.0
N1190 N 0.16819 0.40472 0.9179 0.0
N1191 N 0.14242 0.30815 0.77687 0.0
H1192 H 0.12983 0.24827 0.85191 0.0
H1193 H 0.12043 0.2454 0.80761 0.0
H1194 H 0.14525 0.32373 0.75645 0.0
H1195 H 0.1403 0.27308 0.76788 0.0
H1196 H 0.17905 0.43805 0.92632 0.0
H1197 H 0.16655 0.38911 0.93837 0.0
H1198 H 0.16716 0.47296 0.887 0.0
H1199 H 0.16716 0.47296 0.887 0.0
C1200 C 0.3582 0.20109 0.89929 0.0
C1201 C 0.31247 0.18806 0.89471 0.0
C1202 C 0.3243 0.15945 0.83066 0.0
C1203 C 0.3702 0.17016 0.83579 0.0
N1204 N 0.43314 0.19109 0.87466 0.0
N1205 N 0.25362 0.1475 0.85729 0.0
C1206 C 0.38783 0.18763 0.87011 0.0
C1207 C 0.29592 0.16499 0.86069 0.0
N1208 N 0.37284 0.22891 0.93071 0.0
N1209 N 0.30776 0.14564 0.79703 0.0
H1210 H 0.23227 0.15037 0.87888 0.0
H1211 H 0.2411 0.12685 0.83364 0.0
H1212 H 0.32819 0.14086 0.77469 0.0
H1213 H 0.27374 0.14189 0.7913 0.0
H1214 H 0.40448 0.2436 0.934 0.0
H1215 H 0.35215 0.24125 0.9526 0.0
H1216 H 0.44839 0.19945 0.89944 0.0
H1217 H 0.45565 0.18124 0.85354 0.0
C1218 C 0.34577 0.59009 0.87591 0.0
C1219 C 0.34897 0.55665 0.89432 0.0
C1220 C 0.31514 0.50104 0.84487 0.0
C1221 C 0.30773 0.53526 0.82742 0.0
N1222 N 0.30747 0.61495 0.83018 0.0
N1223 N 0.32378 0.48543 0.90138 0.0
C1224 C 0.32069 0.58069 0.84396 0.0
C1225 C 0.3295 0.51373 0.88037 0.0
N1226 N 0.36735 0.63032 0.88867 0.0
N1227 N 0.31139 0.4562 0.82715 0.0
H1228 H 0.33248 0.4947 0.92812 0.0
H1229 H 0.30549 0.45554 0.89328 0.0
H1230 H 0.30472 0.44472 0.80015 0.0
H1231 H 0.32044 0.43034 0.83834 0.0
H1232 H 0.3701 0.65444 0.8746 0.0
H1233 H 0.38527 0.63796 0.91236 0.0
H1234 H 0.31276 0.64903 0.84291 0.0
H1235 H 0.28723 0.60971 0.80784 0.0
C1236 C 0.65337 0.59009 0.9623 0.0
C1237 C 0.64768 0.63653 0.98027 0.0
C1238 C 0.57351 0.62035 0.00069 0.0
C1239 C 0.58147 0.57324 0.98575 0.0
N1240 N 0.63254 0.51268 0.95751 0.0
N1241 N 0.60508 0.69515 0.02167 0.0
C1242 C 0.62263 0.55788 0.96837 0.0
C1243 C 0.60833 0.65161 0.00062 0.0
N1244 N 0.68662 0.57711 0.93765 0.0
N1245 N 0.53286 0.63553 0.01546 0.0
H1246 H 0.62961 0.71951 0.02314 0.0
H1247 H 0.58002 0.70628 0.04058 0.0
H1248 H 0.50785 0.61439 0.02012 0.0
H1249 H 0.52298 0.66937 0.02171 0.0
H1250 H 0.69009 0.54433 0.92116 0.0
H1251 H 0.70726 0.60055 0.93072 0.0
H1252 H 0.66411 0.50022 0.94833 0.0
H1253 H 0.6106 0.48756 0.9602 0.0
C1254 C 0.86449 0.83759 0.76934 0.0
C1255 C 0.88111 0.80856 0.73719 0.0
C1256 C 0.83604 0.84811 0.70274 0.0
C1257 C 0.82031 0.87811 0.73492 0.0
N1258 N 0.81373 0.89726 0.79893 0.0
N1259 N 0.87767 0.77958 0.67384 0.0
C1260 C 0.83225 0.87113 0.76818 0.0
C1261 C 0.86536 0.81193 0.70399 0.0
N1262 N 0.88213 0.83555 0.80106 0.0
N1263 N 0.82273 0.85426 0.67106 0.0
H1264 H 0.89857 0.7524 0.67422 0.0
H1265 H 0.86499 0.77738 0.64878 0.0
H1266 H 0.79778 0.87722 0.66909 0.0
H1267 H 0.83679 0.83752 0.64671 0.0
H1268 H 0.87634 0.85971 0.82504 0.0
H1269 H 0.90499 0.81102 0.80358 0.0
H1270 H 0.81456 0.8887 0.82282 0.0
H1271 H 0.79655 0.92727 0.80079 0.0
C1272 C 0.52051 0.12333 0.6406 0.0
C1273 C 0.48919 0.15908 0.64793 0.0
C1274 C 0.44768 0.12022 0.59506 0.0
C1275 C 0.48402 0.0892 0.58485 0.0
N1276 N 0.563 0.07592 0.59318 0.0
N1277 N 0.42555 0.19548 0.62967 0.0
C1278 C 0.5229 0.09479 0.60617 0.0
C1279 C 0.45354 0.15898 0.62428 0.0
N1280 N 0.54661 0.11504 0.66652 0.0
N1281 N 0.40728 0.1118 0.57837 0.0
H1282 H 0.42964 0.2244 0.65079 0.0
H1283 H 0.40119 0.19849 0.61147 0.0
H1284 H 0.40046 0.08205 0.55873 0.0
H1285 H 0.37907 0.13194 0.58689 0.0
H1286 H 0.56767 0.0868 0.66195 0.0
H1287 H 0.543 0.13311 0.693 0.0
H1288 H 0.59222 0.08179 0.60827 0.0
H1289 H 0.56834 0.06063 0.56633 0.0
C1290 C 0.47077 0.34277 0.85572 0.0
C1291 C 0.51137 0.33811 0.83609 0.0
C1292 C 0.54043 0.40459 0.88004 0.0
C1293 C 0.50254 0.40378 0.9016 0.0
N1294 N 0.44072 0.36062 0.91461 0.0
N1295 N 0.589 0.35992 0.83405 0.0
C1296 C 0.4705 0.36928 0.89098 0.0
C1297 C 0.54761 0.36776 0.84941 0.0
N1298 N 0.43153 0.3251 0.84034 0.0
N1299 N 0.56888 0.44059 0.88837 0.0
H1300 H 0.59632 0.33173 0.81298 0.0
H1301 H 0.61712 0.37868 0.84474 0.0
H1302 H 0.56347 0.46847 0.91015 0.0
H1303 H 0.595 0.44457 0.87184 0.0
H1304 H 0.40103 0.33055 0.85391 0.0
H1305 H 0.42831 0.31131 0.81314 0.0
H1306 H 0.41886 0.33316 0.90797 0.0
H1307 H 0.44207 0.37732 0.94152 0.0
C1308 C 0.50756 0.88498 0.33431 0.0
C1309 C 0.50826 0.8382 0.33303 0.0
C1310 C 0.50216 0.85845 0.39746 0.0
C1311 C 0.50811 0.90472 0.39876 0.0
N1312 N 0.52787 0.96039 0.36824 0.0
N1313 N 0.51698 0.78112 0.36461 0.0
C1314 C 0.51455 0.9175 0.36713 0.0
C1315 C 0.50905 0.82509 0.36498 0.0
N1316 N 0.4969 0.89891 0.30509 0.0
N1317 N 0.48696 0.84623 0.42637 0.0
H1318 H 0.52344 0.75556 0.34149 0.0
H1319 H 0.52184 0.77114 0.38768 0.0
H1320 H 0.47788 0.86966 0.45 0.0
H1321 H 0.47803 0.81313 0.42538 0.0
H1322 H 0.49209 0.93288 0.30612 0.0
H1323 H 0.48718 0.87696 0.28106 0.0
H1324 H 0.53665 0.96987 0.34556 0.0
H1325 H 0.53491 0.98486 0.39186 0.0
C1326 C 0.42773 0.59287 0.10896 0.0
C1327 C 0.46842 0.58123 0.08992 0.0
C1328 C 0.49958 0.65457 0.12019 0.0
C1329 C 0.46314 0.66278 0.14436 0.0
N1330 N 0.38881 0.64309 0.15901 0.0
N1331 N 0.54658 0.59719 0.08293 0.0
C1332 C 0.42597 0.63277 0.13792 0.0
C1333 C 0.50554 0.61069 0.0975 0.0
N1334 N 0.39092 0.56611 0.09899 0.0
N1335 N 0.52693 0.68874 0.1169 0.0
H1336 H 0.55274 0.56491 0.06646 0.0
H1337 H 0.57538 0.61657 0.09032 0.0
H1338 H 0.51995 0.72278 0.12849 0.0
H1339 H 0.55207 0.68393 0.09773 0.0
H1340 H 0.35895 0.57487 0.10922 0.0
H1341 H 0.39211 0.5355 0.07914 0.0
H1342 H 0.363 0.62039 0.15894 0.0
H1343 H 0.38395 0.67491 0.17684 0.0
loop_
_geom_bond_atom_site_label_1
_geom_bond_atom_site_label_2
_geom_bond_distance
_geom_bond_site_symmetry_2
_ccdc_geom_bond_type
Co0 N5 2.057 . S
Co0 O17 2.021 1_545 S
Co0 O20 2.062 1_545 S
Co0 O24 2.117 1_556 S
Co0 O25 2.020 1_655 S
C1 O21 1.259 1_655 S
C1 O24 1.258 . S
Co2 N11 2.057 . S
Co2 O18 2.117 1_554 S
Co2 O19 2.020 1_455 S
Co2 O21 2.021 1_565 S
Co2 O26 2.062 1_565 S
C3 N5 1.316 . S
C3 N6 1.347 . S
C3 H8 0.931 . S
C4 N5 1.375 . S
C4 C7 1.350 . S
C4 H9 0.930 . S
N5 Co0 2.057 . S
N5 C3 1.316 . S
N5 C4 1.375 . S
N6 C3 1.347 . S
N6 C7 1.373 . S
C7 C4 1.350 . S
C7 N6 1.373 . S
C7 H28 0.931 . S
H8 C3 0.931 . S
H9 C4 0.930 . S
C10 O17 1.259 1_455 S
C10 O18 1.258 . S
N11 Co2 2.057 . S
N11 C12 1.316 . S
N11 C13 1.375 . S
C12 N11 1.316 . S
C12 N14 1.347 . S
C12 H23 0.931 . S
C13 N11 1.375 . S
C13 C15 1.350 . S
C13 H22 0.930 . S
N14 C12 1.347 . S
N14 C15 1.373 . S
C15 C13 1.350 . S
C15 N14 1.373 . S
C15 H29 0.931 . S
C16 O19 1.256 . S
C16 O20 1.255 1_554 S
O17 Co0 2.021 1_565 S
O17 C10 1.259 1_655 S
O18 Co2 2.117 1_556 S
O18 C10 1.258 . S
O19 Co2 2.020 1_655 S
O19 C16 1.256 . S
O20 Co0 2.062 1_565 S
O20 C16 1.255 1_556 S
O21 C1 1.259 1_455 S
O21 Co2 2.021 1_545 S
H22 C13 0.930 . S
H23 C12 0.931 . S
O24 Co0 2.117 1_554 S
O24 C1 1.258 . S
O25 Co0 2.020 1_455 S
O25 C27 1.256 . S
O26 Co2 2.062 1_545 S
O26 C27 1.255 1_554 S
C27 O25 1.256 . S
C27 O26 1.255 1_556 S
H28 C7 0.931 . S
H29 C15 0.931 . S
Co30 N35 2.057 . S
Co30 O47 2.021 . S
Co30 O50 2.062 . S
Co30 O54 2.117 1_455 S
Co30 O55 2.020 . S
C31 O51 1.259 . S
C31 O54 1.258 . S
Co32 N41 2.057 . S
Co32 O48 2.117 1_655 S
Co32 O49 2.020 . S
Co32 O51 2.021 . S
Co32 O56 2.062 . S
C33 N35 1.316 . S
C33 N36 1.347 . S
C33 H38 0.931 . S
C34 N35 1.375 . S
C34 C37 1.350 . S
C34 H39 0.930 . S
N35 Co30 2.057 . S
N35 C33 1.316 . S
N35 C34 1.375 . S
N36 C33 1.347 . S
N36 C37 1.373 . S
C37 C34 1.350 . S
C37 N36 1.373 . S
C37 H58 0.931 . S
H38 C33 0.931 . S
H39 C34 0.930 . S
C40 O47 1.259 . S
C40 O48 1.258 . S
N41 Co32 2.057 . S
N41 C42 1.316 . S
N41 C43 1.375 . S
C42 N41 1.316 . S
C42 N44 1.347 . S
C42 H53 0.931 . S
C43 N41 1.375 . S
C43 C45 1.350 . S
C43 H52 0.930 . S
N44 C42 1.347 . S
N44 C45 1.373 . S
C45 C43 1.350 . S
C45 N44 1.373 . S
C45 H59 0.931 . S
C46 O49 1.256 . S
C46 O50 1.255 1_655 S
O47 Co30 2.021 . S
O47 C40 1.259 . S
O48 Co32 2.117 1_455 S
O48 C40 1.258 . S
O49 Co32 2.020 . S
O49 C46 1.256 . S
O50 Co30 2.062 . S
O50 C46 1.255 1_455 S
O51 C31 1.259 . S
O51 Co32 2.021 . S
H52 C43 0.930 . S
H53 C42 0.931 . S
O54 Co30 2.117 1_655 S
O54 C31 1.258 . S
O55 Co30 2.020 . S
O55 C57 1.256 . S
O56 Co32 2.062 . S
O56 C57 1.255 1_655 S
C57 O55 1.256 . S
C57 O56 1.255 1_455 S
H58 C37 0.931 . S
H59 C45 0.931 . S
Co60 N65 2.057 . S
Co60 O77 2.021 . S
Co60 O80 2.062 . S
Co60 O84 2.117 . S
Co60 O85 2.020 . S
C61 O81 1.259 . S
C61 O84 1.258 . S
Co62 N71 2.057 . S
Co62 O78 2.117 . S
Co62 O79 2.020 . S
Co62 O81 2.021 . S
Co62 O86 2.062 . S
C63 N65 1.316 . S
C63 N66 1.347 . S
C63 H68 0.931 . S
C64 N65 1.375 . S
C64 C67 1.350 . S
C64 H69 0.930 . S
N65 Co60 2.057 . S
N65 C63 1.316 . S
N65 C64 1.375 . S
N66 C63 1.347 . S
N66 C67 1.373 . S
C67 C64 1.350 . S
C67 N66 1.373 . S
C67 H88 0.931 . S
H68 C63 0.931 . S
H69 C64 0.930 . S
C70 O77 1.259 . S
C70 O78 1.258 . S
N71 Co62 2.057 . S
N71 C72 1.316 . S
N71 C73 1.375 . S
C72 N71 1.316 . S
C72 N74 1.347 . S
C72 H83 0.931 . S
C73 N71 1.375 . S
C73 C75 1.350 . S
C73 H82 0.930 . S
N74 C72 1.347 . S
N74 C75 1.373 . S
C75 C73 1.350 . S
C75 N74 1.373 . S
C75 H89 0.931 . S
C76 O79 1.256 . S
C76 O80 1.255 . S
O77 Co60 2.021 . S
O77 C70 1.259 . S
O78 Co62 2.117 . S
O78 C70 1.258 . S
O79 Co62 2.020 . S
O79 C76 1.256 . S
O80 Co60 2.062 . S
O80 C76 1.255 . S
O81 C61 1.259 . S
O81 Co62 2.021 . S
H82 C73 0.930 . S
H83 C72 0.931 . S
O84 Co60 2.117 . S
O84 C61 1.258 . S
O85 Co60 2.020 . S
O85 C87 1.256 . S
O86 Co62 2.062 . S
O86 C87 1.255 . S
C87 O85 1.256 . S
C87 O86 1.255 . S
H88 C67 0.931 . S
H89 C75 0.931 . S
Co90 N95 2.057 . S
Co90 O107 2.021 . S
Co90 O110 2.061 . S
Co90 O114 2.117 1_565 S
Co90 O115 2.020 . S
C91 O111 1.259 . S
C91 O114 1.258 . S
Co92 N101 2.057 . S
Co92 O108 2.117 1_545 S
Co92 O109 2.020 . S
Co92 O111 2.021 . S
Co92 O116 2.063 . S
C93 N95 1.316 . S
C93 N96 1.347 . S
C93 H98 0.931 . S
C94 N95 1.375 . S
C94 C97 1.350 . S
C94 H99 0.930 . S
N95 Co90 2.057 . S
N95 C93 1.316 . S
N95 C94 1.375 . S
N96 C93 1.347 . S
N96 C97 1.373 . S
C97 C94 1.350 . S
C97 N96 1.373 . S
C97 H118 0.931 . S
H98 C93 0.931 . S
H99 C94 0.930 . S
C100 O107 1.259 . S
C100 O108 1.258 . S
N101 Co92 2.057 . S
N101 C102 1.316 . S
N101 C103 1.375 . S
C102 N101 1.316 . S
C102 N104 1.347 . S
C102 H113 0.931 . S
C103 N101 1.375 . S
C103 C105 1.350 . S
C103 H112 0.930 . S
N104 C102 1.347 . S
N104 C105 1.373 . S
C105 C103 1.350 . S
C105 N104 1.373 . S
C105 H119 0.931 . S
C106 O109 1.256 . S
C106 O110 1.257 1_545 S
O107 Co90 2.021 . S
O107 C100 1.259 . S
O108 Co92 2.117 1_565 S
O108 C100 1.258 . S
O109 Co92 2.020 . S
O109 C106 1.256 . S
O110 Co90 2.061 . S
O110 C106 1.257 1_565 S
O111 C91 1.259 . S
O111 Co92 2.021 . S
H112 C103 0.930 . S
H113 C102 0.931 . S
O114 Co90 2.117 1_545 S
O114 C91 1.258 . S
O115 Co90 2.020 . S
O115 C117 1.256 . S
O116 Co92 2.063 . S
O116 C117 1.252 1_545 S
C117 O115 1.256 . S
C117 O116 1.252 1_565 S
H118 C97 0.931 . S
H119 C105 0.931 . S
Co120 N125 2.057 . S
Co120 O137 2.021 . S
Co120 O140 2.062 . S
Co120 O144 2.117 . S
Co120 O145 2.020 . S
C121 O141 1.259 . S
C121 O144 1.258 . S
Co122 N131 2.057 . S
Co122 O138 2.117 . S
Co122 O139 2.020 . S
Co122 O141 2.021 . S
Co122 O146 2.062 . S
C123 N125 1.316 . S
C123 N126 1.347 . S
C123 H128 0.931 . S
C124 N125 1.375 . S
C124 C127 1.350 . S
C124 H129 0.930 . S
N125 Co120 2.057 . S
N125 C123 1.316 . S
N125 C124 1.375 . S
N126 C123 1.347 . S
N126 C127 1.373 . S
C127 C124 1.350 . S
C127 N126 1.373 . S
C127 H148 0.931 . S
H128 C123 0.931 . S
H129 C124 0.930 . S
C130 O137 1.259 . S
C130 O138 1.258 . S
N131 Co122 2.057 . S
N131 C132 1.316 . S
N131 C133 1.375 . S
C132 N131 1.316 . S
C132 N134 1.347 . S
C132 H143 0.931 . S
C133 N131 1.375 . S
C133 C135 1.350 . S
C133 H142 0.930 . S
N134 C132 1.347 . S
N134 C135 1.373 . S
C135 C133 1.350 . S
C135 N134 1.373 . S
C135 H149 0.931 . S
C136 O139 1.256 . S
C136 O140 1.255 . S
O137 Co120 2.021 . S
O137 C130 1.259 . S
O138 Co122 2.117 . S
O138 C130 1.258 . S
O139 Co122 2.020 . S
O139 C136 1.256 . S
O140 Co120 2.062 . S
O140 C136 1.255 . S
O141 C121 1.259 . S
O141 Co122 2.021 . S
H142 C133 0.930 . S
H143 C132 0.931 . S
O144 Co120 2.117 . S
O144 C121 1.258 . S
O145 Co120 2.020 . S
O145 C147 1.256 . S
O146 Co122 2.062 . S
O146 C147 1.255 . S
C147 O145 1.256 . S
C147 O146 1.255 . S
H148 C127 0.931 . S
H149 C135 0.931 . S
Co150 N155 2.057 . S
Co150 O167 2.021 . S
Co150 O170 2.062 . S
Co150 O174 2.117 . S
Co150 O175 2.020 . S
C151 O171 1.259 . S
C151 O174 1.258 . S
Co152 N161 2.057 . S
Co152 O168 2.117 . S
Co152 O169 2.020 . S
Co152 O171 2.021 . S
Co152 O176 2.062 . S
C153 N155 1.316 . S
C153 N156 1.347 . S
C153 H158 0.931 . S
C154 N155 1.375 . S
C154 C157 1.350 . S
C154 H159 0.930 . S
N155 Co150 2.057 . S
N155 C153 1.316 . S
N155 C154 1.375 . S
N156 C153 1.347 . S
N156 C157 1.373 . S
C157 C154 1.350 . S
C157 N156 1.373 . S
C157 H178 0.931 . S
H158 C153 0.931 . S
H159 C154 0.930 . S
C160 O167 1.259 . S
C160 O168 1.258 . S
N161 Co152 2.057 . S
N161 C162 1.316 . S
N161 C163 1.375 . S
C162 N161 1.316 . S
C162 N164 1.347 . S
C162 H173 0.931 . S
C163 N161 1.375 . S
C163 C165 1.350 . S
C163 H172 0.930 . S
N164 C162 1.347 . S
N164 C165 1.373 . S
C165 C163 1.350 . S
C165 N164 1.373 . S
C165 H179 0.931 . S
C166 O169 1.256 . S
C166 O170 1.255 . S
O167 Co150 2.021 . S
O167 C160 1.259 . S
O168 Co152 2.117 . S
O168 C160 1.258 . S
O169 Co152 2.020 . S
O169 C166 1.256 . S
O170 Co150 2.062 . S
O170 C166 1.255 . S
O171 C151 1.259 . S
O171 Co152 2.021 . S
H172 C163 0.930 . S
H173 C162 0.931 . S
O174 Co150 2.117 . S
O174 C151 1.258 . S
O175 Co150 2.020 . S
O175 C177 1.256 . S
O176 Co152 2.062 . S
O176 C177 1.255 . S
C177 O175 1.256 . S
C177 O176 1.255 . S
H178 C157 0.931 . S
H179 C165 0.931 . S
Co180 N185 2.057 . S
Co180 O197 2.021 . S
Co180 O200 2.062 . S
Co180 O204 2.117 . S
Co180 O205 2.020 . S
C181 O201 1.259 . S
C181 O204 1.258 . S
Co182 N191 2.057 . S
Co182 O198 2.117 . S
Co182 O199 2.020 . S
Co182 O201 2.021 . S
Co182 O206 2.062 . S
C183 N185 1.316 . S
C183 N186 1.347 . S
C183 H188 0.931 . S
C184 N185 1.375 . S
C184 C187 1.350 . S
C184 H189 0.930 . S
N185 Co180 2.057 . S
N185 C183 1.316 . S
N185 C184 1.375 . S
N186 C183 1.347 . S
N186 C187 1.373 . S
C187 C184 1.350 . S
C187 N186 1.373 . S
C187 H208 0.931 . S
H188 C183 0.931 . S
H189 C184 0.930 . S
C190 O197 1.259 . S
C190 O198 1.258 . S
N191 Co182 2.057 . S
N191 C192 1.316 . S
N191 C193 1.375 . S
C192 N191 1.316 . S
C192 N194 1.347 . S
C192 H203 0.931 . S
C193 N191 1.375 . S
C193 C195 1.350 . S
C193 H202 0.930 . S
N194 C192 1.347 . S
N194 C195 1.373 . S
C195 C193 1.350 . S
C195 N194 1.373 . S
C195 H209 0.931 . S
C196 O199 1.256 . S
C196 O200 1.255 . S
O197 Co180 2.021 . S
O197 C190 1.259 . S
O198 Co182 2.117 . S
O198 C190 1.258 . S
O199 Co182 2.020 . S
O199 C196 1.256 . S
O200 Co180 2.062 . S
O200 C196 1.255 . S
O201 C181 1.259 . S
O201 Co182 2.021 . S
H202 C193 0.930 . S
H203 C192 0.931 . S
O204 Co180 2.117 . S
O204 C181 1.258 . S
O205 Co180 2.020 . S
O205 C207 1.256 . S
O206 Co182 2.062 . S
O206 C207 1.255 . S
C207 O205 1.256 . S
C207 O206 1.255 . S
H208 C187 0.931 . S
H209 C195 0.931 . S
Co210 N215 2.057 . S
Co210 O227 2.021 . S
Co210 O230 2.062 . S
Co210 O234 2.117 . S
Co210 O235 2.020 1_655 S
C211 O231 1.259 1_655 S
C211 O234 1.258 . S
Co212 N221 2.057 . S
Co212 O228 2.117 . S
Co212 O229 2.020 1_455 S
Co212 O231 2.021 . S
Co212 O236 2.062 . S
C213 N215 1.316 . S
C213 N216 1.347 . S
C213 H218 0.931 . S
C214 N215 1.375 . S
C214 C217 1.350 . S
C214 H219 0.930 . S
N215 Co210 2.057 . S
N215 C213 1.316 . S
N215 C214 1.375 . S
N216 C213 1.347 . S
N216 C217 1.373 . S
C217 C214 1.350 . S
C217 N216 1.373 . S
C217 H238 0.931 . S
H218 C213 0.931 . S
H219 C214 0.930 . S
C220 O227 1.259 1_455 S
C220 O228 1.258 . S
N221 Co212 2.057 . S
N221 C222 1.316 . S
N221 C223 1.375 . S
C222 N221 1.316 . S
C222 N224 1.347 . S
C222 H233 0.931 . S
C223 N221 1.375 . S
C223 C225 1.350 . S
C223 H232 0.930 . S
N224 C222 1.347 . S
N224 C225 1.373 . S
C225 C223 1.350 . S
C225 N224 1.373 . S
C225 H239 0.931 . S
C226 O229 1.256 . S
C226 O230 1.255 . S
O227 Co210 2.021 . S
O227 C220 1.259 1_655 S
O228 Co212 2.117 . S
O228 C220 1.258 . S
O229 Co212 2.020 1_655 S
O229 C226 1.256 . S
O230 Co210 2.062 . S
O230 C226 1.255 . S
O231 C211 1.259 1_455 S
O231 Co212 2.021 . S
H232 C223 0.930 . S
H233 C222 0.931 . S
O234 Co210 2.117 . S
O234 C211 1.258 . S
O235 Co210 2.020 1_455 S
O235 C237 1.256 . S
O236 Co212 2.062 . S
O236 C237 1.255 . S
C237 O235 1.256 . S
C237 O236 1.255 . S
H238 C217 0.931 . S
H239 C225 0.931 . S
Co240 N245 2.057 . S
Co240 O257 2.021 . S
Co240 O260 2.062 . S
Co240 O264 2.117 1_554 S
Co240 O265 2.020 . S
C241 O261 1.259 . S
C241 O264 1.258 . S
Co242 N251 2.057 . S
Co242 O258 2.117 1_556 S
Co242 O259 2.020 . S
Co242 O261 2.021 . S
Co242 O266 2.062 . S
C243 N245 1.316 . S
C243 N246 1.347 . S
C243 H248 0.931 . S
C244 N245 1.375 . S
C244 C247 1.350 . S
C244 H249 0.930 . S
N245 Co240 2.057 . S
N245 C243 1.316 . S
N245 C244 1.375 . S
N246 C243 1.347 . S
N246 C247 1.373 . S
C247 C244 1.350 . S
C247 N246 1.373 . S
C247 H268 0.931 . S
H248 C243 0.931 . S
H249 C244 0.930 . S
C250 O257 1.259 . S
C250 O258 1.258 . S
N251 Co242 2.057 . S
N251 C252 1.316 . S
N251 C253 1.375 . S
C252 N251 1.316 . S
C252 N254 1.347 . S
C252 H263 0.931 . S
C253 N251 1.375 . S
C253 C255 1.350 . S
C253 H262 0.930 . S
N254 C252 1.347 . S
N254 C255 1.373 . S
C255 C253 1.350 . S
C255 N254 1.373 . S
C255 H269 0.931 . S
C256 O259 1.256 . S
C256 O260 1.255 1_556 S
O257 Co240 2.021 . S
O257 C250 1.259 . S
O258 Co242 2.117 1_554 S
O258 C250 1.258 . S
O259 Co242 2.020 . S
O259 C256 1.256 . S
O260 Co240 2.062 . S
O260 C256 1.255 1_554 S
O261 C241 1.259 . S
O261 Co242 2.021 . S
H262 C253 0.930 . S
H263 C252 0.931 . S
O264 Co240 2.117 1_556 S
O264 C241 1.258 . S
O265 Co240 2.020 . S
O265 C267 1.256 . S
O266 Co242 2.062 . S
O266 C267 1.255 1_556 S
C267 O265 1.256 . S
C267 O266 1.255 1_554 S
H268 C247 0.931 . S
H269 C255 0.931 . S
Co270 N275 2.057 . S
Co270 O287 2.021 . S
Co270 O290 2.061 . S
Co270 O294 2.117 1_565 S
Co270 O295 2.020 . S
C271 O291 1.259 . S
C271 O294 1.258 . S
Co272 N281 2.057 . S
Co272 O288 2.117 1_545 S
Co272 O289 2.020 . S
Co272 O291 2.021 . S
Co272 O296 2.063 . S
C273 N275 1.316 . S
C273 N276 1.347 . S
C273 H278 0.931 . S
C274 N275 1.375 . S
C274 C277 1.350 . S
C274 H279 0.930 . S
N275 Co270 2.057 . S
N275 C273 1.316 . S
N275 C274 1.375 . S
N276 C273 1.347 . S
N276 C277 1.373 . S
C277 C274 1.350 . S
C277 N276 1.373 . S
C277 H298 0.931 . S
H278 C273 0.931 . S
H279 C274 0.930 . S
C280 O287 1.259 . S
C280 O288 1.258 . S
N281 Co272 2.057 . S
N281 C282 1.316 . S
N281 C283 1.375 . S
C282 N281 1.316 . S
C282 N284 1.347 . S
C282 H293 0.931 . S
C283 N281 1.375 . S
C283 C285 1.350 . S
C283 H292 0.930 . S
N284 C282 1.347 . S
N284 C285 1.373 . S
C285 C283 1.350 . S
C285 N284 1.373 . S
C285 H299 0.931 . S
C286 O289 1.256 . S
C286 O290 1.257 1_545 S
O287 Co270 2.021 . S
O287 C280 1.259 . S
O288 Co272 2.117 1_565 S
O288 C280 1.258 . S
O289 Co272 2.020 . S
O289 C286 1.256 . S
O290 Co270 2.061 . S
O290 C286 1.257 1_565 S
O291 C271 1.259 . S
O291 Co272 2.021 . S
H292 C283 0.930 . S
H293 C282 0.931 . S
O294 Co270 2.117 1_545 S
O294 C271 1.258 . S
O295 Co270 2.020 . S
O295 C297 1.256 . S
O296 Co272 2.063 . S
O296 C297 1.252 1_545 S
C297 O295 1.256 . S
C297 O296 1.252 1_565 S
H298 C277 0.931 . S
H299 C285 0.931 . S
Co300 N305 2.057 . S
Co300 O317 2.021 . S
Co300 O320 2.062 . S
Co300 O324 2.117 . S
Co300 O325 2.020 . S
C301 O321 1.259 . S
C301 O324 1.258 . S
Co302 N311 2.057 . S
Co302 O318 2.117 . S
Co302 O319 2.020 . S
Co302 O321 2.021 . S
Co302 O326 2.062 . S
C303 N305 1.316 . S
C303 N306 1.347 . S
C303 H308 0.931 . S
C304 N305 1.375 . S
C304 C307 1.350 . S
C304 H309 0.930 . S
N305 Co300 2.057 . S
N305 C303 1.316 . S
N305 C304 1.375 . S
N306 C303 1.347 . S
N306 C307 1.373 . S
C307 C304 1.350 . S
C307 N306 1.373 . S
C307 H328 0.931 . S
H308 C303 0.931 . S
H309 C304 0.930 . S
C310 O317 1.259 . S
C310 O318 1.258 . S
N311 Co302 2.057 . S
N311 C312 1.316 . S
N311 C313 1.375 . S
C312 N311 1.316 . S
C312 N314 1.347 . S
C312 H323 0.931 . S
C313 N311 1.375 . S
C313 C315 1.350 . S
C313 H322 0.930 . S
N314 C312 1.347 . S
N314 C315 1.373 . S
C315 C313 1.350 . S
C315 N314 1.373 . S
C315 H329 0.931 . S
C316 O319 1.256 . S
C316 O320 1.255 . S
O317 Co300 2.021 . S
O317 C310 1.259 . S
O318 Co302 2.117 . S
O318 C310 1.258 . S
O319 Co302 2.020 . S
O319 C316 1.256 . S
O320 Co300 2.062 . S
O320 C316 1.255 . S
O321 C301 1.259 . S
O321 Co302 2.021 . S
H322 C313 0.930 . S
H323 C312 0.931 . S
O324 Co300 2.117 . S
O324 C301 1.258 . S
O325 Co300 2.020 . S
O325 C327 1.256 . S
O326 Co302 2.062 . S
O326 C327 1.255 . S
C327 O325 1.256 . S
C327 O326 1.255 . S
H328 C307 0.931 . S
H329 C315 0.931 . S
Co330 N335 2.057 . S
Co330 O347 2.021 . S
Co330 O350 2.062 . S
Co330 O354 2.117 1_455 S
Co330 O355 2.020 . S
C331 O351 1.259 . S
C331 O354 1.258 . S
Co332 N341 2.057 . S
Co332 O348 2.117 1_655 S
Co332 O349 2.020 . S
Co332 O351 2.021 . S
Co332 O356 2.062 . S
C333 N335 1.316 . S
C333 N336 1.347 . S
C333 H338 0.931 . S
C334 N335 1.375 . S
C334 C337 1.350 . S
C334 H339 0.930 . S
N335 Co330 2.057 . S
N335 C333 1.316 . S
N335 C334 1.375 . S
N336 C333 1.347 . S
N336 C337 1.373 . S
C337 C334 1.350 . S
C337 N336 1.373 . S
C337 H358 0.931 . S
H338 C333 0.931 . S
H339 C334 0.930 . S
C340 O347 1.259 . S
C340 O348 1.258 . S
N341 Co332 2.057 . S
N341 C342 1.316 . S
N341 C343 1.375 . S
C342 N341 1.316 . S
C342 N344 1.347 . S
C342 H353 0.931 . S
C343 N341 1.375 . S
C343 C345 1.350 . S
C343 H352 0.930 . S
N344 C342 1.347 . S
N344 C345 1.373 . S
C345 C343 1.350 . S
C345 N344 1.373 . S
C345 H359 0.931 . S
C346 O349 1.256 . S
C346 O350 1.255 1_655 S
O347 Co330 2.021 . S
O347 C340 1.259 . S
O348 Co332 2.117 1_455 S
O348 C340 1.258 . S
O349 Co332 2.020 . S
O349 C346 1.256 . S
O350 Co330 2.062 . S
O350 C346 1.255 1_455 S
O351 C331 1.259 . S
O351 Co332 2.021 . S
H352 C343 0.930 . S
H353 C342 0.931 . S
O354 Co330 2.117 1_655 S
O354 C331 1.258 . S
O355 Co330 2.020 . S
O355 C357 1.256 . S
O356 Co332 2.062 . S
O356 C357 1.255 1_655 S
C357 O355 1.256 . S
C357 O356 1.255 1_455 S
H358 C337 0.931 . S
H359 C345 0.931 . S
Co360 N365 2.057 . S
Co360 O377 2.021 . S
Co360 O380 2.062 . S
Co360 O384 2.117 . S
Co360 O385 2.020 . S
C361 O381 1.259 . S
C361 O384 1.258 . S
Co362 N371 2.057 . S
Co362 O378 2.117 . S
Co362 O379 2.020 . S
Co362 O381 2.021 . S
Co362 O386 2.062 . S
C363 N365 1.316 . S
C363 N366 1.347 . S
C363 H368 0.931 . S
C364 N365 1.375 . S
C364 C367 1.350 . S
C364 H369 0.930 . S
N365 Co360 2.057 . S
N365 C363 1.316 . S
N365 C364 1.375 . S
N366 C363 1.347 . S
N366 C367 1.373 . S
C367 C364 1.350 . S
C367 N366 1.373 . S
C367 H388 0.931 . S
H368 C363 0.931 . S
H369 C364 0.930 . S
C370 O377 1.259 . S
C370 O378 1.258 . S
N371 Co362 2.057 . S
N371 C372 1.316 . S
N371 C373 1.375 . S
C372 N371 1.316 . S
C372 N374 1.347 . S
C372 H383 0.931 . S
C373 N371 1.375 . S
C373 C375 1.350 . S
C373 H382 0.930 . S
N374 C372 1.347 . S
N374 C375 1.373 . S
C375 C373 1.350 . S
C375 N374 1.373 . S
C375 H389 0.931 . S
C376 O379 1.256 . S
C376 O380 1.255 . S
O377 Co360 2.021 . S
O377 C370 1.259 . S
O378 Co362 2.117 . S
O378 C370 1.258 . S
O379 Co362 2.020 . S
O379 C376 1.256 . S
O380 Co360 2.062 . S
O380 C376 1.255 . S
O381 C361 1.259 . S
O381 Co362 2.021 . S
H382 C373 0.930 . S
H383 C372 0.931 . S
O384 Co360 2.117 . S
O384 C361 1.258 . S
O385 Co360 2.020 . S
O385 C387 1.256 . S
O386 Co362 2.062 . S
O386 C387 1.255 . S
C387 O385 1.256 . S
C387 O386 1.255 . S
H388 C367 0.931 . S
H389 C375 0.931 . S
Co390 N395 2.057 . S
Co390 O407 2.021 . S
Co390 O410 2.062 . S
Co390 O414 2.117 1_554 S
Co390 O415 2.020 . S
C391 O411 1.259 . S
C391 O414 1.258 . S
Co392 N401 2.057 . S
Co392 O408 2.117 1_556 S
Co392 O409 2.020 . S
Co392 O411 2.021 . S
Co392 O416 2.062 . S
C393 N395 1.316 . S
C393 N396 1.347 . S
C393 H398 0.931 . S
C394 N395 1.375 . S
C394 C397 1.350 . S
C394 H399 0.930 . S
N395 Co390 2.057 . S
N395 C393 1.316 . S
N395 C394 1.375 . S
N396 C393 1.347 . S
N396 C397 1.373 . S
C397 C394 1.350 . S
C397 N396 1.373 . S
C397 H418 0.931 . S
H398 C393 0.931 . S
H399 C394 0.930 . S
C400 O407 1.259 . S
C400 O408 1.258 . S
N401 Co392 2.057 . S
N401 C402 1.316 . S
N401 C403 1.375 . S
C402 N401 1.316 . S
C402 N404 1.347 . S
C402 H413 0.931 . S
C403 N401 1.375 . S
C403 C405 1.350 . S
C403 H412 0.930 . S
N404 C402 1.347 . S
N404 C405 1.373 . S
C405 C403 1.350 . S
C405 N404 1.373 . S
C405 H419 0.931 . S
C406 O409 1.256 . S
C406 O410 1.255 1_556 S
O407 Co390 2.021 . S
O407 C400 1.259 . S
O408 Co392 2.117 1_554 S
O408 C400 1.258 . S
O409 Co392 2.020 . S
O409 C406 1.256 . S
O410 Co390 2.062 . S
O410 C406 1.255 1_554 S
O411 C391 1.259 . S
O411 Co392 2.021 . S
H412 C403 0.930 . S
H413 C402 0.931 . S
O414 Co390 2.117 1_556 S
O414 C391 1.258 . S
O415 Co390 2.020 . S
O415 C417 1.256 . S
O416 Co392 2.062 . S
O416 C417 1.255 1_556 S
C417 O415 1.256 . S
C417 O416 1.255 1_554 S
H418 C397 0.931 . S
H419 C405 0.931 . S
Co420 N425 2.057 . S
Co420 O437 2.021 1_545 S
Co420 O440 2.062 1_545 S
Co420 O444 2.117 . S
Co420 O445 2.020 . S
C421 O441 1.259 . S
C421 O444 1.258 . S
Co422 N431 2.057 . S
Co422 O438 2.117 . S
Co422 O439 2.020 . S
Co422 O441 2.021 1_565 S
Co422 O446 2.062 1_565 S
C423 N425 1.316 . S
C423 N426 1.347 . S
C423 H428 0.931 . S
C424 N425 1.375 . S
C424 C427 1.350 . S
C424 H429 0.930 . S
N425 Co420 2.057 . S
N425 C423 1.316 . S
N425 C424 1.375 . S
N426 C423 1.347 . S
N426 C427 1.373 . S
C427 C424 1.350 . S
C427 N426 1.373 . S
C427 H448 0.931 . S
H428 C423 0.931 . S
H429 C424 0.930 . S
C430 O437 1.259 . S
C430 O438 1.258 . S
N431 Co422 2.057 . S
N431 C432 1.316 . S
N431 C433 1.375 . S
C432 N431 1.316 . S
C432 N434 1.347 . S
C432 H443 0.931 . S
C433 N431 1.375 . S
C433 C435 1.350 . S
C433 H442 0.930 . S
N434 C432 1.347 . S
N434 C435 1.373 . S
C435 C433 1.350 . S
C435 N434 1.373 . S
C435 H449 0.931 . S
C436 O439 1.256 . S
C436 O440 1.255 . S
O437 Co420 2.021 1_565 S
O437 C430 1.259 . S
O438 Co422 2.117 . S
O438 C430 1.258 . S
O439 Co422 2.020 . S
O439 C436 1.256 . S
O440 Co420 2.062 1_565 S
O440 C436 1.255 . S
O441 C421 1.259 . S
O441 Co422 2.021 1_545 S
H442 C433 0.930 . S
H443 C432 0.931 . S
O444 Co420 2.117 . S
O444 C421 1.258 . S
O445 Co420 2.020 . S
O445 C447 1.256 . S
O446 Co422 2.062 1_545 S
O446 C447 1.255 . S
C447 O445 1.256 . S
C447 O446 1.255 . S
H448 C427 0.931 . S
H449 C435 0.931 . S
Co450 N455 2.057 . S
Co450 O467 2.021 . S
Co450 O470 2.062 . S
Co450 O474 2.117 1_556 S
Co450 O475 2.020 . S
C451 O471 1.259 . S
C451 O474 1.258 . S
Co452 N461 2.057 . S
Co452 O468 2.117 1_554 S
Co452 O469 2.020 . S
Co452 O471 2.021 . S
Co452 O476 2.062 . S
C453 N455 1.316 . S
C453 N456 1.347 . S
C453 H458 0.931 . S
C454 N455 1.375 . S
C454 C457 1.350 . S
C454 H459 0.930 . S
N455 Co450 2.057 . S
N455 C453 1.316 . S
N455 C454 1.375 . S
N456 C453 1.347 . S
N456 C457 1.373 . S
C457 C454 1.350 . S
C457 N456 1.373 . S
C457 H478 0.931 . S
H458 C453 0.931 . S
H459 C454 0.930 . S
C460 O467 1.259 . S
C460 O468 1.258 . S
N461 Co452 2.057 . S
N461 C462 1.316 . S
N461 C463 1.375 . S
C462 N461 1.316 . S
C462 N464 1.347 . S
C462 H473 0.931 . S
C463 N461 1.375 . S
C463 C465 1.350 . S
C463 H472 0.930 . S
N464 C462 1.347 . S
N464 C465 1.373 . S
C465 C463 1.350 . S
C465 N464 1.373 . S
C465 H479 0.931 . S
C466 O469 1.256 . S
C466 O470 1.255 1_554 S
O467 Co450 2.021 . S
O467 C460 1.259 . S
O468 Co452 2.117 1_556 S
O468 C460 1.258 . S
O469 Co452 2.020 . S
O469 C466 1.256 . S
O470 Co450 2.062 . S
O470 C466 1.255 1_556 S
O471 C451 1.259 . S
O471 Co452 2.021 . S
H472 C463 0.930 . S
H473 C462 0.931 . S
O474 Co450 2.117 1_554 S
O474 C451 1.258 . S
O475 Co450 2.020 . S
O475 C477 1.256 . S
O476 Co452 2.062 . S
O476 C477 1.255 1_554 S
C477 O475 1.256 . S
C477 O476 1.255 1_556 S
H478 C457 0.931 . S
H479 C465 0.931 . S
C480 C481 1.380 . S
C480 C486 1.378 1_655 S
C480 N488 1.344 1_655 S
C481 C480 1.380 . S
C481 C487 1.363 . S
C482 C483 1.363 . S
C482 C487 1.379 . S
C482 N489 1.356 . S
C483 C482 1.363 . S
C483 C486 1.351 1_655 S
N484 C486 1.367 . S
N484 H496 0.984 . S
N484 H497 0.985 . S
N485 C487 1.356 . S
N485 H490 0.984 . S
N485 H491 0.985 . S
C486 C480 1.378 1_455 S
C486 C483 1.351 1_455 S
C486 N484 1.367 . S
C487 C481 1.363 . S
C487 C482 1.379 . S
C487 N485 1.356 . S
N488 C480 1.344 1_455 S
N488 H494 0.984 . S
N488 H495 0.984 . S
N489 C482 1.356 . S
N489 H492 0.984 . S
N489 H493 0.985 . S
H490 N485 0.984 . S
H491 N485 0.985 . S
H492 N489 0.984 . S
H493 N489 0.985 . S
H494 N488 0.984 . S
H495 N488 0.984 . S
H496 N484 0.984 . S
H497 N484 0.985 . S
C498 C499 1.363 . S
C498 C504 1.379 . S
C498 N506 1.356 . S
C499 C498 1.363 . S
C499 C505 1.363 . S
C500 C501 1.363 . S
C500 C505 1.379 . S
C500 N507 1.356 . S
C501 C500 1.363 . S
C501 C504 1.363 . S
N502 C504 1.356 . S
N502 H514 0.984 . S
N502 H515 0.985 . S
N503 C505 1.356 . S
N503 H508 0.984 . S
N503 H509 0.985 . S
C504 C498 1.379 . S
C504 C501 1.363 . S
C504 N502 1.356 . S
C505 C499 1.363 . S
C505 C500 1.379 . S
C505 N503 1.356 . S
N506 C498 1.356 . S
N506 H512 0.984 . S
N506 H513 0.984 . S
N507 C500 1.356 . S
N507 H510 0.984 . S
N507 H511 0.985 . S
H508 N503 0.984 . S
H509 N503 0.985 . S
H510 N507 0.984 . S
H511 N507 0.985 . S
H512 N506 0.984 . S
H513 N506 0.984 . S
H514 N502 0.984 . S
H515 N502 0.985 . S
C516 C517 1.363 . S
C516 C522 1.379 . S
C516 N524 1.356 . S
C517 C516 1.363 . S
C517 C523 1.363 . S
C518 C519 1.363 . S
C518 C523 1.379 . S
C518 N525 1.356 . S
C519 C518 1.363 . S
C519 C522 1.363 . S
N520 C522 1.356 . S
N520 H532 0.984 . S
N520 H533 0.985 . S
N521 C523 1.356 . S
N521 H526 0.984 . S
N521 H527 0.985 . S
C522 C516 1.379 . S
C522 C519 1.363 . S
C522 N520 1.356 . S
C523 C517 1.363 . S
C523 C518 1.379 . S
C523 N521 1.356 . S
N524 C516 1.356 . S
N524 H530 0.984 . S
N524 H531 0.984 . S
N525 C518 1.356 . S
N525 H528 0.984 . S
N525 H529 0.985 . S
H526 N521 0.984 . S
H527 N521 0.985 . S
H528 N525 0.984 . S
H529 N525 0.985 . S
H530 N524 0.984 . S
H531 N524 0.984 . S
H532 N520 0.984 . S
H533 N520 0.985 . S
C534 C535 1.363 . S
C534 C540 1.379 . S
C534 N542 1.356 1_545 S
C535 C534 1.363 . S
C535 C541 1.363 . S
C536 C537 1.363 . S
C536 C541 1.379 . S
C536 N543 1.356 . S
C537 C536 1.363 . S
C537 C540 1.363 . S
N538 C540 1.356 1_565 S
N538 H550 0.984 . S
N538 H551 0.985 . S
N539 C541 1.356 . S
N539 H544 0.984 . S
N539 H545 0.985 . S
C540 C534 1.379 . S
C540 C537 1.363 . S
C540 N538 1.356 1_545 S
C541 C535 1.363 . S
C541 C536 1.379 . S
C541 N539 1.356 . S
N542 C534 1.356 1_565 S
N542 H548 0.984 . S
N542 H549 0.984 . S
N543 C536 1.356 . S
N543 H546 0.984 . S
N543 H547 0.985 . S
H544 N539 0.984 . S
H545 N539 0.985 . S
H546 N543 0.984 . S
H547 N543 0.985 . S
H548 N542 0.984 . S
H549 N542 0.984 . S
H550 N538 0.984 . S
H551 N538 0.985 . S
C552 C553 1.363 . S
C552 C558 1.379 . S
C552 N560 1.356 . S
C553 C552 1.363 . S
C553 C559 1.363 . S
C554 C555 1.363 . S
C554 C559 1.379 . S
C554 N561 1.356 1_565 S
C555 C554 1.363 . S
C555 C558 1.363 . S
N556 C558 1.356 . S
N556 H568 0.984 . S
N556 H569 0.985 . S
N557 C559 1.356 1_545 S
N557 H562 0.984 . S
N557 H563 0.985 . S
C558 C552 1.379 . S
C558 C555 1.363 . S
C558 N556 1.356 . S
C559 C553 1.363 . S
C559 C554 1.379 . S
C559 N557 1.356 1_565 S
N560 C552 1.356 . S
N560 H566 0.984 . S
N560 H567 0.984 . S
N561 C554 1.356 1_545 S
N561 H564 0.984 . S
N561 H565 0.985 . S
H562 N557 0.984 . S
H563 N557 0.985 . S
H564 N561 0.984 . S
H565 N561 0.985 . S
H566 N560 0.984 . S
H567 N560 0.984 . S
H568 N556 0.984 . S
H569 N556 0.985 . S
C570 C571 1.363 . S
C570 C576 1.379 . S
C570 N578 1.356 . S
C571 C570 1.363 . S
C571 C577 1.363 . S
C572 C573 1.363 . S
C572 C577 1.379 . S
C572 N579 1.356 1_455 S
C573 C572 1.363 . S
C573 C576 1.363 . S
N574 C576 1.356 . S
N574 H586 0.984 . S
N574 H587 0.985 . S
N575 C577 1.356 1_655 S
N575 H580 0.984 . S
N575 H581 0.985 . S
C576 C570 1.379 . S
C576 C573 1.363 . S
C576 N574 1.356 . S
C577 C571 1.363 . S
C577 C572 1.379 . S
C577 N575 1.356 1_455 S
N578 C570 1.356 . S
N578 H584 0.984 . S
N578 H585 0.984 . S
N579 C572 1.356 1_655 S
N579 H582 0.984 . S
N579 H583 0.985 . S
H580 N575 0.984 . S
H581 N575 0.985 . S
H582 N579 0.984 . S
H583 N579 0.985 . S
H584 N578 0.984 . S
H585 N578 0.984 . S
H586 N574 0.984 . S
H587 N574 0.985 . S
C588 C589 1.363 . S
C588 C594 1.379 . S
C588 N596 1.356 . S
C589 C588 1.363 . S
C589 C595 1.363 . S
C590 C591 1.363 . S
C590 C595 1.379 . S
C590 N597 1.356 . S
C591 C590 1.363 . S
C591 C594 1.363 . S
N592 C594 1.356 . S
N592 H604 0.984 . S
N592 H605 0.985 . S
N593 C595 1.356 . S
N593 H598 0.984 . S
N593 H599 0.985 . S
C594 C588 1.379 . S
C594 C591 1.363 . S
C594 N592 1.356 . S
C595 C589 1.363 . S
C595 C590 1.379 . S
C595 N593 1.356 . S
N596 C588 1.356 . S
N596 H602 0.984 . S
N596 H603 0.984 . S
N597 C590 1.356 . S
N597 H600 0.984 . S
N597 H601 0.985 . S
H598 N593 0.984 . S
H599 N593 0.985 . S
H600 N597 0.984 . S
H601 N597 0.985 . S
H602 N596 0.984 . S
H603 N596 0.984 . S
H604 N592 0.984 . S
H605 N592 0.985 . S
C606 C607 1.363 . S
C606 C612 1.379 . S
C606 N614 1.356 . S
C607 C606 1.363 . S
C607 C613 1.363 . S
C608 C609 1.363 . S
C608 C613 1.379 . S
C608 N615 1.356 . S
C609 C608 1.363 . S
C609 C612 1.363 . S
N610 C612 1.356 . S
N610 H622 0.984 . S
N610 H623 0.985 . S
N611 C613 1.356 . S
N611 H616 0.984 . S
N611 H617 0.985 . S
C612 C606 1.379 . S
C612 C609 1.363 . S
C612 N610 1.356 . S
C613 C607 1.363 . S
C613 C608 1.379 . S
C613 N611 1.356 . S
N614 C606 1.356 . S
N614 H620 0.984 . S
N614 H621 0.984 . S
N615 C608 1.356 . S
N615 H618 0.984 . S
N615 H619 0.985 . S
H616 N611 0.984 . S
H617 N611 0.985 . S
H618 N615 0.984 . S
H619 N615 0.985 . S
H620 N614 0.984 . S
H621 N614 0.984 . S
H622 N610 0.984 . S
H623 N610 0.985 . S
C624 C625 1.363 . S
C624 C630 1.379 . S
C624 N632 1.356 . S
C625 C624 1.363 . S
C625 C631 1.363 . S
C626 C627 1.363 . S
C626 C631 1.379 . S
C626 N633 1.356 . S
C627 C626 1.363 . S
C627 C630 1.363 . S
N628 C630 1.356 . S
N628 H640 0.984 . S
N628 H641 0.985 . S
N629 C631 1.356 . S
N629 H634 0.984 . S
N629 H635 0.985 . S
C630 C624 1.379 . S
C630 C627 1.363 . S
C630 N628 1.356 . S
C631 C625 1.363 . S
C631 C626 1.379 . S
C631 N629 1.356 . S
N632 C624 1.356 . S
N632 H638 0.984 . S
N632 H639 0.984 . S
N633 C626 1.356 . S
N633 H636 0.984 . S
N633 H637 0.985 . S
H634 N629 0.984 . S
H635 N629 0.985 . S
H636 N633 0.984 . S
H637 N633 0.985 . S
H638 N632 0.984 . S
H639 N632 0.984 . S
H640 N628 0.984 . S
H641 N628 0.985 . S
C642 C643 1.363 . S
C642 C648 1.379 . S
C642 N650 1.356 . S
C643 C642 1.363 . S
C643 C649 1.363 . S
C644 C645 1.363 . S
C644 C649 1.379 . S
C644 N651 1.356 . S
C645 C644 1.363 . S
C645 C648 1.363 . S
N646 C648 1.356 . S
N646 H658 0.984 . S
N646 H659 0.985 . S
N647 C649 1.356 . S
N647 H652 0.984 . S
N647 H653 0.985 . S
C648 C642 1.379 . S
C648 C645 1.363 . S
C648 N646 1.356 . S
C649 C643 1.363 . S
C649 C644 1.379 . S
C649 N647 1.356 . S
N650 C642 1.356 . S
N650 H656 0.984 . S
N650 H657 0.984 . S
N651 C644 1.356 . S
N651 H654 0.984 . S
N651 H655 0.985 . S
H652 N647 0.984 . S
H653 N647 0.985 . S
H654 N651 0.984 . S
H655 N651 0.985 . S
H656 N650 0.984 . S
H657 N650 0.984 . S
H658 N646 0.984 . S
H659 N646 0.985 . S
C660 C661 1.363 . S
C660 C666 1.379 . S
C660 N668 1.356 1_565 S
C661 C660 1.363 . S
C661 C667 1.363 . S
C662 C663 1.363 . S
C662 C667 1.379 . S
C662 N669 1.356 . S
C663 C662 1.363 . S
C663 C666 1.363 . S
N664 C666 1.356 1_545 S
N664 H676 0.984 . S
N664 H677 0.985 . S
N665 C667 1.356 . S
N665 H670 0.984 . S
N665 H671 0.985 . S
C666 C660 1.379 . S
C666 C663 1.363 . S
C666 N664 1.356 1_565 S
C667 C661 1.363 . S
C667 C662 1.379 . S
C667 N665 1.356 . S
N668 C660 1.356 1_545 S
N668 H674 0.984 . S
N668 H675 0.984 1_545 S
N669 C662 1.356 . S
N669 H672 0.984 . S
N669 H673 0.985 . S
H670 N665 0.984 . S
H671 N665 0.985 . S
H672 N669 0.984 . S
H673 N669 0.985 . S
H674 N668 0.984 . S
H675 N668 0.984 1_565 S
H676 N664 0.984 . S
H677 N664 0.985 . S
C678 C679 1.363 . S
C678 C684 1.379 . S
C678 N686 1.356 1_455 S
C679 C678 1.363 . S
C679 C685 1.363 . S
C680 C681 1.363 . S
C680 C685 1.379 . S
C680 N687 1.356 . S
C681 C680 1.363 . S
C681 C684 1.363 . S
N682 C684 1.356 1_655 S
N682 H694 0.984 . S
N682 H695 0.985 . S
N683 C685 1.356 . S
N683 H688 0.984 . S
N683 H689 0.985 . S
C684 C678 1.379 . S
C684 C681 1.363 . S
C684 N682 1.356 1_455 S
C685 C679 1.363 . S
C685 C680 1.379 . S
C685 N683 1.356 . S
N686 C678 1.356 1_655 S
N686 H692 0.984 . S
N686 H693 0.984 . S
N687 C680 1.356 . S
N687 H690 0.984 . S
N687 H691 0.985 . S
H688 N683 0.984 . S
H689 N683 0.985 . S
H690 N687 0.984 . S
H691 N687 0.985 . S
H692 N686 0.984 . S
H693 N686 0.984 . S
H694 N682 0.984 . S
H695 N682 0.985 . S
C696 C697 1.363 1_554 S
C696 C702 1.379 1_554 S
C696 N704 1.356 . S
C697 C696 1.363 1_556 S
C697 C703 1.363 . S
C698 C699 1.363 . S
C698 C703 1.379 . S
C698 N705 1.356 . S
C699 C698 1.363 . S
C699 C702 1.363 . S
N700 C702 1.356 1_554 S
N700 H712 0.984 . S
N700 H713 0.974 1_554 S
N701 C703 1.356 . S
N701 H706 0.984 . S
N701 H707 0.985 . S
C702 C696 1.379 1_556 S
C702 C699 1.363 . S
C702 N700 1.356 1_556 S
C703 C697 1.363 . S
C703 C698 1.379 . S
C703 N701 1.356 . S
N704 C696 1.356 . S
N704 H710 0.984 . S
N704 H711 0.984 . S
N705 C698 1.356 . S
N705 H708 0.984 . S
N705 H709 0.985 . S
H706 N701 0.984 . S
H707 N701 0.985 . S
H708 N705 0.984 . S
H709 N705 0.985 . S
H710 N704 0.984 . S
H711 N704 0.984 . S
H712 N700 0.984 . S
H713 N700 0.974 1_556 S
C714 C715 1.363 . S
C714 C720 1.379 . S
C714 N722 1.356 . S
C715 C714 1.363 . S
C715 C721 1.363 . S
C716 C717 1.363 . S
C716 C721 1.379 . S
C716 N723 1.356 . S
C717 C716 1.363 . S
C717 C720 1.363 . S
N718 C720 1.356 . S
N718 H730 0.984 . S
N718 H731 0.985 . S
N719 C721 1.356 . S
N719 H724 0.984 . S
N719 H725 0.985 . S
C720 C714 1.379 . S
C720 C717 1.363 . S
C720 N718 1.356 . S
C721 C715 1.363 . S
C721 C716 1.379 . S
C721 N719 1.356 . S
N722 C714 1.356 . S
N722 H728 0.984 . S
N722 H729 0.984 . S
N723 C716 1.356 . S
N723 H726 0.984 . S
N723 H727 0.985 . S
H724 N719 0.984 . S
H725 N719 0.985 . S
H726 N723 0.984 . S
H727 N723 0.985 . S
H728 N722 0.984 . S
H729 N722 0.984 . S
H730 N718 0.984 . S
H731 N718 0.985 . S
C732 C733 1.363 . S
C732 C738 1.379 . S
C732 N740 1.356 . S
C733 C732 1.363 . S
C733 C739 1.363 . S
C734 C735 1.363 . S
C734 C739 1.379 . S
C734 N741 1.356 . S
C735 C734 1.363 . S
C735 C738 1.363 . S
N736 C738 1.356 . S
N736 H748 0.984 . S
N736 H749 0.985 . S
N737 C739 1.356 . S
N737 H742 0.984 . S
N737 H743 0.985 . S
C738 C732 1.379 . S
C738 C735 1.363 . S
C738 N736 1.356 . S
C739 C733 1.363 . S
C739 C734 1.379 . S
C739 N737 1.356 . S
N740 C732 1.356 . S
N740 H746 0.984 . S
N740 H747 0.984 . S
N741 C734 1.356 . S
N741 H744 0.984 . S
N741 H745 0.985 . S
H742 N737 0.984 . S
H743 N737 0.985 . S
H744 N741 0.984 . S
H745 N741 0.985 . S
H746 N740 0.984 . S
H747 N740 0.984 . S
H748 N736 0.984 . S
H749 N736 0.985 . S
C750 C751 1.363 . S
C750 C756 1.379 . S
C750 N758 1.356 . S
C751 C750 1.363 . S
C751 C757 1.363 . S
C752 C753 1.363 . S
C752 C757 1.379 . S
C752 N759 1.356 . S
C753 C752 1.363 . S
C753 C756 1.363 . S
N754 C756 1.356 . S
N754 H766 0.984 . S
N754 H767 0.985 . S
N755 C757 1.356 . S
N755 H760 0.984 . S
N755 H761 0.985 . S
C756 C750 1.379 . S
C756 C753 1.363 . S
C756 N754 1.356 . S
C757 C751 1.363 . S
C757 C752 1.379 . S
C757 N755 1.356 . S
N758 C750 1.356 . S
N758 H764 0.984 . S
N758 H765 0.984 . S
N759 C752 1.356 . S
N759 H762 0.984 . S
N759 H763 0.985 . S
H760 N755 0.984 . S
H761 N755 0.985 . S
H762 N759 0.984 . S
H763 N759 0.985 . S
H764 N758 0.984 . S
H765 N758 0.984 . S
H766 N754 0.984 . S
H767 N754 0.985 . S
C768 C769 1.363 . S
C768 C774 1.379 . S
C768 N776 1.356 . S
C769 C768 1.363 . S
C769 C775 1.363 . S
C770 C771 1.363 . S
C770 C775 1.379 . S
C770 N777 1.356 . S
C771 C770 1.363 . S
C771 C774 1.363 . S
N772 C774 1.356 . S
N772 H784 0.984 . S
N772 H785 0.985 . S
N773 C775 1.356 . S
N773 H778 0.984 . S
N773 H779 0.985 . S
C774 C768 1.379 . S
C774 C771 1.363 . S
C774 N772 1.356 . S
C775 C769 1.363 . S
C775 C770 1.379 . S
C775 N773 1.356 . S
N776 C768 1.356 . S
N776 H782 0.984 . S
N776 H783 0.984 . S
N777 C770 1.356 . S
N777 H780 0.984 . S
N777 H781 0.985 . S
H778 N773 0.984 . S
H779 N773 0.985 . S
H780 N777 0.984 . S
H781 N777 0.985 . S
H782 N776 0.984 . S
H783 N776 0.984 . S
H784 N772 0.984 . S
H785 N772 0.985 . S
C786 C787 1.363 . S
C786 C792 1.379 . S
C786 N794 1.356 . S
C787 C786 1.363 . S
C787 C793 1.363 . S
C788 C789 1.363 . S
C788 C793 1.379 . S
C788 N795 1.356 . S
C789 C788 1.363 . S
C789 C792 1.363 . S
N790 C792 1.356 . S
N790 H802 0.984 . S
N790 H803 0.985 . S
N791 C793 1.356 . S
N791 H796 0.984 . S
N791 H797 0.985 . S
C792 C786 1.379 . S
C792 C789 1.363 . S
C792 N790 1.356 . S
C793 C787 1.363 . S
C793 C788 1.379 . S
C793 N791 1.356 . S
N794 C786 1.356 . S
N794 H800 0.984 . S
N794 H801 0.984 . S
N795 C788 1.356 . S
N795 H798 0.984 . S
N795 H799 0.985 . S
H796 N791 0.984 . S
H797 N791 0.985 . S
H798 N795 0.984 . S
H799 N795 0.985 . S
H800 N794 0.984 . S
H801 N794 0.984 . S
H802 N790 0.984 . S
H803 N790 0.985 . S
C804 C805 1.363 . S
C804 C810 1.379 . S
C804 N812 1.356 . S
C805 C804 1.363 . S
C805 C811 1.363 . S
C806 C807 1.363 . S
C806 C811 1.379 . S
C806 N813 1.356 . S
C807 C806 1.363 . S
C807 C810 1.363 . S
N808 C810 1.356 . S
N808 H820 0.984 . S
N808 H821 0.985 . S
N809 C811 1.356 . S
N809 H814 0.984 . S
N809 H815 0.985 . S
C810 C804 1.379 . S
C810 C807 1.363 . S
C810 N808 1.356 . S
C811 C805 1.363 . S
C811 C806 1.379 . S
C811 N809 1.356 . S
N812 C804 1.356 . S
N812 H818 0.984 . S
N812 H819 0.984 . S
N813 C806 1.356 . S
N813 H816 0.984 . S
N813 H817 0.985 . S
H814 N809 0.984 . S
H815 N809 0.985 . S
H816 N813 0.984 . S
H817 N813 0.985 . S
H818 N812 0.984 . S
H819 N812 0.984 . S
H820 N808 0.984 . S
H821 N808 0.985 . S
C822 C823 1.363 . S
C822 C828 1.379 . S
C822 N830 1.356 . S
C823 C822 1.363 . S
C823 C829 1.363 . S
C824 C825 1.363 . S
C824 C829 1.379 . S
C824 N831 1.356 . S
C825 C824 1.363 . S
C825 C828 1.363 . S
N826 C828 1.356 . S
N826 H838 0.984 . S
N826 H839 0.985 . S
N827 C829 1.356 . S
N827 H832 0.984 . S
N827 H833 0.985 . S
C828 C822 1.379 . S
C828 C825 1.363 . S
C828 N826 1.356 . S
C829 C823 1.363 . S
C829 C824 1.379 . S
C829 N827 1.356 . S
N830 C822 1.356 . S
N830 H836 0.984 . S
N830 H837 0.984 . S
N831 C824 1.356 . S
N831 H834 0.984 . S
N831 H835 0.985 . S
H832 N827 0.984 . S
H833 N827 0.985 . S
H834 N831 0.984 . S
H835 N831 0.985 . S
H836 N830 0.984 . S
H837 N830 0.984 . S
H838 N826 0.984 . S
H839 N826 0.985 . S
C840 C841 1.363 . S
C840 C846 1.379 . S
C840 N848 1.356 . S
C841 C840 1.363 . S
C841 C847 1.363 . S
C842 C843 1.363 . S
C842 C847 1.379 . S
C842 N849 1.356 . S
C843 C842 1.363 . S
C843 C846 1.363 . S
N844 C846 1.356 . S
N844 H856 0.984 . S
N844 H857 0.985 . S
N845 C847 1.356 . S
N845 H850 0.984 . S
N845 H851 0.985 . S
C846 C840 1.379 . S
C846 C843 1.363 . S
C846 N844 1.356 . S
C847 C841 1.363 . S
C847 C842 1.379 . S
C847 N845 1.356 . S
N848 C840 1.356 . S
N848 H854 0.984 . S
N848 H855 0.984 . S
N849 C842 1.356 . S
N849 H852 0.984 . S
N849 H853 0.985 . S
H850 N845 0.984 . S
H851 N845 0.985 . S
H852 N849 0.984 . S
H853 N849 0.985 . S
H854 N848 0.984 . S
H855 N848 0.984 . S
H856 N844 0.984 . S
H857 N844 0.985 . S
C858 C859 1.363 1_455 S
C858 C864 1.379 . S
C858 N866 1.356 . S
C859 C858 1.363 1_655 S
C859 C865 1.363 . S
C860 C861 1.363 . S
C860 C865 1.379 . S
C860 N867 1.356 . S
C861 C860 1.363 . S
C861 C864 1.363 1_655 S
N862 C864 1.356 . S
N862 H874 0.984 . S
N862 H875 0.985 . S
N863 C865 1.356 . S
N863 H868 0.984 . S
N863 H869 0.985 . S
C864 C858 1.379 . S
C864 C861 1.363 1_455 S
C864 N862 1.356 . S
C865 C859 1.363 . S
C865 C860 1.379 . S
C865 N863 1.356 . S
N866 C858 1.356 . S
N866 H872 0.984 . S
N866 H873 0.984 . S
N867 C860 1.356 . S
N867 H870 0.984 . S
N867 H871 0.985 . S
H868 N863 0.984 . S
H869 N863 0.985 . S
H870 N867 0.984 . S
H871 N867 0.985 . S
H872 N866 0.984 . S
H873 N866 0.984 . S
H874 N862 0.984 . S
H875 N862 0.985 . S
C876 C877 1.363 . S
C876 C882 1.379 . S
C876 N884 1.356 . S
C877 C876 1.363 . S
C877 C883 1.363 . S
C878 C879 1.363 . S
C878 C883 1.379 . S
C878 N885 1.356 . S
C879 C878 1.363 . S
C879 C882 1.363 . S
N880 C882 1.356 . S
N880 H892 0.984 . S
N880 H893 0.985 . S
N881 C883 1.356 . S
N881 H886 0.984 . S
N881 H887 0.985 . S
C882 C876 1.379 . S
C882 C879 1.363 . S
C882 N880 1.356 . S
C883 C877 1.363 . S
C883 C878 1.379 . S
C883 N881 1.356 . S
N884 C876 1.356 . S
N884 H890 0.984 . S
N884 H891 0.984 . S
N885 C878 1.356 . S
N885 H888 0.984 . S
N885 H889 0.985 . S
H886 N881 0.984 . S
H887 N881 0.985 . S
H888 N885 0.984 . S
H889 N885 0.985 . S
H890 N884 0.984 . S
H891 N884 0.984 . S
H892 N880 0.984 . S
H893 N880 0.985 . S
C894 C895 1.363 . S
C894 C900 1.379 . S
C894 N902 1.356 . S
C895 C894 1.363 . S
C895 C901 1.363 . S
C896 C897 1.363 . S
C896 C901 1.379 . S
C896 N903 1.356 . S
C897 C896 1.363 . S
C897 C900 1.363 . S
N898 C900 1.356 . S
N898 H910 0.984 . S
N898 H911 0.985 . S
N899 C901 1.356 . S
N899 H904 0.984 . S
N899 H905 0.985 . S
C900 C894 1.379 . S
C900 C897 1.363 . S
C900 N898 1.356 . S
C901 C895 1.363 . S
C901 C896 1.379 . S
C901 N899 1.356 . S
N902 C894 1.356 . S
N902 H908 0.984 . S
N902 H909 0.984 . S
N903 C896 1.356 . S
N903 H906 0.984 . S
N903 H907 0.985 . S
H904 N899 0.984 . S
H905 N899 0.985 . S
H906 N903 0.984 . S
H907 N903 0.985 . S
H908 N902 0.984 . S
H909 N902 0.984 . S
H910 N898 0.984 . S
H911 N898 0.985 . S
C912 C913 1.363 . S
C912 C918 1.379 . S
C912 N920 1.356 . S
C913 C912 1.363 . S
C913 C919 1.363 . S
C914 C915 1.363 . S
C914 C919 1.379 . S
C914 N921 1.356 . S
C915 C914 1.363 . S
C915 C918 1.363 . S
N916 C918 1.356 . S
N916 H928 0.984 . S
N916 H929 0.985 . S
N917 C919 1.356 . S
N917 H922 0.984 . S
N917 H923 0.985 . S
C918 C912 1.379 . S
C918 C915 1.363 . S
C918 N916 1.356 . S
C919 C913 1.363 . S
C919 C914 1.379 . S
C919 N917 1.356 . S
N920 C912 1.356 . S
N920 H926 0.984 . S
N920 H927 0.984 . S
N921 C914 1.356 . S
N921 H924 0.984 . S
N921 H925 0.985 . S
H922 N917 0.984 . S
H923 N917 0.985 . S
H924 N921 0.984 . S
H925 N921 0.985 . S
H926 N920 0.984 . S
H927 N920 0.984 . S
H928 N916 0.984 . S
H929 N916 0.985 . S
C930 C931 1.363 . S
C930 C936 1.379 . S
C930 N938 1.356 . S
C931 C930 1.363 . S
C931 C937 1.363 . S
C932 C933 1.363 . S
C932 C937 1.379 . S
C932 N939 1.356 . S
C933 C932 1.363 . S
C933 C936 1.363 . S
N934 C936 1.356 . S
N934 H946 0.984 . S
N934 H947 0.985 . S
N935 C937 1.356 . S
N935 H940 0.984 . S
N935 H941 0.985 . S
C936 C930 1.379 . S
C936 C933 1.363 . S
C936 N934 1.356 . S
C937 C931 1.363 . S
C937 C932 1.379 . S
C937 N935 1.356 . S
N938 C930 1.356 . S
N938 H944 0.984 . S
N938 H945 0.984 . S
N939 C932 1.356 . S
N939 H942 0.984 . S
N939 H943 0.985 . S
H940 N935 0.984 . S
H941 N935 0.985 . S
H942 N939 0.984 . S
H943 N939 0.985 . S
H944 N938 0.984 . S
H945 N938 0.984 . S
H946 N934 0.984 . S
H947 N934 0.985 . S
C948 C949 1.363 . S
C948 C954 1.379 . S
C948 N956 1.356 1_545 S
C949 C948 1.363 . S
C949 C955 1.363 . S
C950 C951 1.363 . S
C950 C955 1.379 . S
C950 N957 1.356 . S
C951 C950 1.363 . S
C951 C954 1.363 . S
N952 C954 1.356 1_565 S
N952 H964 0.984 . S
N952 H965 0.984 1_565 S
N953 C955 1.356 . S
N953 H958 0.984 . S
N953 H959 0.985 . S
C954 C948 1.379 . S
C954 C951 1.363 . S
C954 N952 1.356 1_545 S
C955 C949 1.363 . S
C955 C950 1.379 . S
C955 N953 1.356 . S
N956 C948 1.356 1_565 S
N956 H962 0.984 . S
N956 H963 0.984 . S
N957 C950 1.356 . S
N957 H960 0.984 . S
N957 H961 0.985 . S
H958 N953 0.984 . S
H959 N953 0.985 . S
H960 N957 0.984 . S
H961 N957 0.985 . S
H962 N956 0.984 . S
H963 N956 0.984 . S
H964 N952 0.984 . S
H965 N952 0.984 1_545 S
C966 C967 1.363 . S
C966 C972 1.379 . S
C966 N974 1.356 . S
C967 C966 1.363 . S
C967 C973 1.363 1_554 S
C968 C969 1.363 1_556 S
C968 C973 1.379 . S
C968 N975 1.356 . S
C969 C968 1.363 1_554 S
C969 C972 1.363 . S
N970 C972 1.356 . S
N970 H982 0.984 . S
N970 H983 0.985 . S
N971 C973 1.356 . S
N971 H976 0.984 . S
N971 H977 0.985 . S
C972 C966 1.379 . S
C972 C969 1.363 . S
C972 N970 1.356 . S
C973 C967 1.363 1_556 S
C973 C968 1.379 . S
C973 N971 1.356 . S
N974 C966 1.356 . S
N974 H980 0.984 . S
N974 H981 0.984 . S
N975 C968 1.356 . S
N975 H978 0.984 . S
N975 H979 0.985 . S
H976 N971 0.984 . S
H977 N971 0.985 . S
H978 N975 0.984 . S
H979 N975 0.985 . S
H980 N974 0.984 . S
H981 N974 0.984 . S
H982 N970 0.984 . S
H983 N970 0.985 . S
C984 C985 1.363 . S
C984 C990 1.379 . S
C984 N992 1.356 . S
C985 C984 1.363 . S
C985 C991 1.363 . S
C986 C987 1.363 . S
C986 C991 1.379 . S
C986 N993 1.356 . S
C987 C986 1.363 . S
C987 C990 1.363 . S
N988 C990 1.356 . S
N988 H1000 0.984 . S
N988 H1001 0.985 . S
N989 C991 1.356 . S
N989 H994 0.984 . S
N989 H995 0.985 . S
C990 C984 1.379 . S
C990 C987 1.363 . S
C990 N988 1.356 . S
C991 C985 1.363 . S
C991 C986 1.379 . S
C991 N989 1.356 . S
N992 C984 1.356 . S
N992 H998 0.984 . S
N992 H999 0.984 . S
N993 C986 1.356 . S
N993 H996 0.984 . S
N993 H997 0.985 . S
H994 N989 0.984 . S
H995 N989 0.985 . S
H996 N993 0.984 . S
H997 N993 0.985 . S
H998 N992 0.984 . S
H999 N992 0.984 . S
H1000 N988 0.984 . S
H1001 N988 0.985 . S
C1002 C1003 1.363 . S
C1002 C1008 1.379 . S
C1002 N1010 1.356 . S
C1003 C1002 1.363 . S
C1003 C1009 1.363 . S
C1004 C1005 1.363 . S
C1004 C1009 1.379 . S
C1004 N1011 1.356 . S
C1005 C1004 1.363 . S
C1005 C1008 1.363 . S
N1006 C1008 1.356 . S
N1006 H1018 0.984 . S
N1006 H1019 0.985 . S
N1007 C1009 1.356 . S
N1007 H1012 0.984 . S
N1007 H1013 0.985 . S
C1008 C1002 1.379 . S
C1008 C1005 1.363 . S
C1008 N1006 1.356 . S
C1009 C1003 1.363 . S
C1009 C1004 1.379 . S
C1009 N1007 1.356 . S
N1010 C1002 1.356 . S
N1010 H1016 0.984 . S
N1010 H1017 0.984 . S
N1011 C1004 1.356 . S
N1011 H1014 0.984 . S
N1011 H1015 0.985 . S
H1012 N1007 0.984 . S
H1013 N1007 0.985 . S
H1014 N1011 0.984 . S
H1015 N1011 0.985 . S
H1016 N1010 0.984 . S
H1017 N1010 0.984 . S
H1018 N1006 0.984 . S
H1019 N1006 0.985 . S
C1020 C1021 1.363 . S
C1020 C1026 1.379 . S
C1020 N1028 1.356 . S
C1021 C1020 1.363 . S
C1021 C1027 1.363 . S
C1022 C1023 1.363 . S
C1022 C1027 1.379 . S
C1022 N1029 1.356 . S
C1023 C1022 1.363 . S
C1023 C1026 1.363 . S
N1024 C1026 1.356 . S
N1024 H1036 0.984 . S
N1024 H1037 0.985 . S
N1025 C1027 1.356 . S
N1025 H1030 0.984 . S
N1025 H1031 0.985 . S
C1026 C1020 1.379 . S
C1026 C1023 1.363 . S
C1026 N1024 1.356 . S
C1027 C1021 1.363 . S
C1027 C1022 1.379 . S
C1027 N1025 1.356 . S
N1028 C1020 1.356 . S
N1028 H1034 0.984 . S
N1028 H1035 0.984 . S
N1029 C1022 1.356 . S
N1029 H1032 0.984 . S
N1029 H1033 0.985 . S
H1030 N1025 0.984 . S
H1031 N1025 0.985 . S
H1032 N1029 0.984 . S
H1033 N1029 0.985 . S
H1034 N1028 0.984 . S
H1035 N1028 0.984 . S
H1036 N1024 0.984 . S
H1037 N1024 0.985 . S
C1038 C1039 1.363 . S
C1038 C1044 1.379 . S
C1038 N1046 1.356 . S
C1039 C1038 1.363 . S
C1039 C1045 1.363 . S
C1040 C1041 1.363 . S
C1040 C1045 1.379 . S
C1040 N1047 1.356 . S
C1041 C1040 1.363 . S
C1041 C1044 1.363 . S
N1042 C1044 1.356 . S
N1042 H1054 0.984 . S
N1042 H1055 0.985 . S
N1043 C1045 1.356 . S
N1043 H1048 0.984 . S
N1043 H1049 0.985 . S
C1044 C1038 1.379 . S
C1044 C1041 1.363 . S
C1044 N1042 1.356 . S
C1045 C1039 1.363 . S
C1045 C1040 1.379 . S
C1045 N1043 1.356 . S
N1046 C1038 1.356 . S
N1046 H1052 0.984 . S
N1046 H1053 0.984 . S
N1047 C1040 1.356 . S
N1047 H1050 0.984 . S
N1047 H1051 0.985 . S
H1048 N1043 0.984 . S
H1049 N1043 0.985 . S
H1050 N1047 0.984 . S
H1051 N1047 0.985 . S
H1052 N1046 0.984 . S
H1053 N1046 0.984 . S
H1054 N1042 0.984 . S
H1055 N1042 0.985 . S
C1056 C1057 1.363 . S
C1056 C1062 1.379 . S
C1056 N1064 1.356 . S
C1057 C1056 1.363 . S
C1057 C1063 1.363 . S
C1058 C1059 1.363 . S
C1058 C1063 1.379 . S
C1058 N1065 1.356 . S
C1059 C1058 1.363 . S
C1059 C1062 1.363 . S
N1060 C1062 1.356 . S
N1060 H1072 0.984 . S
N1060 H1073 0.985 . S
N1061 C1063 1.356 . S
N1061 H1066 0.984 . S
N1061 H1067 0.985 . S
C1062 C1056 1.379 . S
C1062 C1059 1.363 . S
C1062 N1060 1.356 . S
C1063 C1057 1.363 . S
C1063 C1058 1.379 . S
C1063 N1061 1.356 . S
N1064 C1056 1.356 . S
N1064 H1070 0.984 . S
N1064 H1071 0.984 . S
N1065 C1058 1.356 . S
N1065 H1068 0.984 . S
N1065 H1069 0.985 . S
H1066 N1061 0.984 . S
H1067 N1061 0.985 . S
H1068 N1065 0.984 . S
H1069 N1065 0.985 . S
H1070 N1064 0.984 . S
H1071 N1064 0.984 . S
H1072 N1060 0.984 . S
H1073 N1060 0.985 . S
C1074 C1075 1.363 . S
C1074 C1080 1.379 . S
C1074 N1082 1.356 . S
C1075 C1074 1.363 . S
C1075 C1081 1.363 . S
C1076 C1077 1.363 . S
C1076 C1081 1.379 . S
C1076 N1083 1.356 . S
C1077 C1076 1.363 . S
C1077 C1080 1.363 . S
N1078 C1080 1.356 . S
N1078 H1090 0.984 . S
N1078 H1091 0.985 . S
N1079 C1081 1.356 . S
N1079 H1084 0.984 . S
N1079 H1085 0.985 . S
C1080 C1074 1.379 . S
C1080 C1077 1.363 . S
C1080 N1078 1.356 . S
C1081 C1075 1.363 . S
C1081 C1076 1.379 . S
C1081 N1079 1.356 . S
N1082 C1074 1.356 . S
N1082 H1088 0.984 . S
N1082 H1089 0.984 . S
N1083 C1076 1.356 . S
N1083 H1086 0.984 . S
N1083 H1087 0.985 . S
H1084 N1079 0.984 . S
H1085 N1079 0.985 . S
H1086 N1083 0.984 . S
H1087 N1083 0.985 . S
H1088 N1082 0.984 . S
H1089 N1082 0.984 . S
H1090 N1078 0.984 . S
H1091 N1078 0.985 . S
C1092 C1093 1.363 . S
C1092 C1098 1.379 . S
C1092 N1100 1.356 . S
C1093 C1092 1.363 . S
C1093 C1099 1.363 . S
C1094 C1095 1.363 . S
C1094 C1099 1.379 . S
C1094 N1101 1.356 . S
C1095 C1094 1.363 . S
C1095 C1098 1.363 . S
N1096 C1098 1.356 . S
N1096 H1108 0.984 . S
N1096 H1109 0.985 . S
N1097 C1099 1.356 . S
N1097 H1102 0.984 . S
N1097 H1103 0.985 . S
C1098 C1092 1.379 . S
C1098 C1095 1.363 . S
C1098 N1096 1.356 . S
C1099 C1093 1.363 . S
C1099 C1094 1.379 . S
C1099 N1097 1.356 . S
N1100 C1092 1.356 . S
N1100 H1106 0.984 . S
N1100 H1107 0.984 . S
N1101 C1094 1.356 . S
N1101 H1104 0.984 . S
N1101 H1105 0.985 . S
H1102 N1097 0.984 . S
H1103 N1097 0.985 . S
H1104 N1101 0.984 . S
H1105 N1101 0.985 . S
H1106 N1100 0.984 . S
H1107 N1100 0.984 . S
H1108 N1096 0.984 . S
H1109 N1096 0.985 . S
C1110 C1111 1.363 . S
C1110 C1116 1.379 . S
C1110 N1118 1.356 . S
C1111 C1110 1.363 . S
C1111 C1117 1.363 . S
C1112 C1113 1.363 . S
C1112 C1117 1.379 . S
C1112 N1119 1.356 . S
C1113 C1112 1.363 . S
C1113 C1116 1.363 . S
N1114 C1116 1.356 . S
N1114 H1126 0.984 . S
N1114 H1127 0.985 . S
N1115 C1117 1.356 . S
N1115 H1120 0.984 . S
N1115 H1121 0.985 . S
C1116 C1110 1.379 . S
C1116 C1113 1.363 . S
C1116 N1114 1.356 . S
C1117 C1111 1.363 . S
C1117 C1112 1.379 . S
C1117 N1115 1.356 . S
N1118 C1110 1.356 . S
N1118 H1124 0.984 . S
N1118 H1125 0.984 . S
N1119 C1112 1.356 . S
N1119 H1122 0.984 . S
N1119 H1123 0.985 . S
H1120 N1115 0.984 . S
H1121 N1115 0.985 . S
H1122 N1119 0.984 . S
H1123 N1119 0.985 . S
H1124 N1118 0.984 . S
H1125 N1118 0.984 . S
H1126 N1114 0.984 . S
H1127 N1114 0.985 . S
C1128 C1129 1.363 . S
C1128 C1134 1.379 . S
C1128 N1136 1.356 . S
C1129 C1128 1.363 . S
C1129 C1135 1.363 . S
C1130 C1131 1.363 . S
C1130 C1135 1.379 . S
C1130 N1137 1.356 . S
C1131 C1130 1.363 . S
C1131 C1134 1.363 . S
N1132 C1134 1.356 . S
N1132 H1144 0.984 . S
N1132 H1145 0.985 . S
N1133 C1135 1.356 . S
N1133 H1138 0.984 . S
N1133 H1139 0.985 . S
C1134 C1128 1.379 . S
C1134 C1131 1.363 . S
C1134 N1132 1.356 . S
C1135 C1129 1.363 . S
C1135 C1130 1.379 . S
C1135 N1133 1.356 . S
N1136 C1128 1.356 . S
N1136 H1142 0.984 . S
N1136 H1143 0.984 . S
N1137 C1130 1.356 . S
N1137 H1140 0.984 . S
N1137 H1141 0.985 . S
H1138 N1133 0.984 . S
H1139 N1133 0.985 . S
H1140 N1137 0.984 . S
H1141 N1137 0.985 . S
H1142 N1136 0.984 . S
H1143 N1136 0.984 . S
H1144 N1132 0.984 . S
H1145 N1132 0.985 . S
C1146 C1147 1.363 . S
C1146 C1152 1.379 . S
C1146 N1154 1.356 . S
C1147 C1146 1.363 . S
C1147 C1153 1.363 1_554 S
C1148 C1149 1.363 1_556 S
C1148 C1153 1.379 . S
C1148 N1155 1.356 . S
C1149 C1148 1.363 1_554 S
C1149 C1152 1.363 . S
N1150 C1152 1.356 . S
N1150 H1162 0.984 . S
N1150 H1163 0.985 . S
N1151 C1153 1.356 . S
N1151 H1156 0.984 . S
N1151 H1157 0.985 . S
C1152 C1146 1.379 . S
C1152 C1149 1.363 . S
C1152 N1150 1.356 . S
C1153 C1147 1.363 1_556 S
C1153 C1148 1.379 . S
C1153 N1151 1.356 . S
N1154 C1146 1.356 . S
N1154 H1160 0.984 . S
N1154 H1161 0.984 . S
N1155 C1148 1.356 . S
N1155 H1158 0.984 . S
N1155 H1159 0.985 . S
H1156 N1151 0.984 . S
H1157 N1151 0.985 . S
H1158 N1155 0.984 . S
H1159 N1155 0.985 . S
H1160 N1154 0.984 . S
H1161 N1154 0.984 . S
H1162 N1150 0.984 . S
H1163 N1150 0.985 . S
C1164 C1165 1.363 . S
C1164 C1170 1.379 . S
C1164 N1172 1.356 . S
C1165 C1164 1.363 . S
C1165 C1171 1.363 . S
C1166 C1167 1.363 . S
C1166 C1171 1.379 . S
C1166 N1173 1.356 . S
C1167 C1166 1.363 . S
C1167 C1170 1.363 . S
N1168 C1170 1.356 . S
N1168 H1180 0.984 . S
N1168 H1181 0.985 . S
N1169 C1171 1.356 . S
N1169 H1174 0.984 . S
N1169 H1175 0.985 . S
C1170 C1164 1.379 . S
C1170 C1167 1.363 . S
C1170 N1168 1.356 . S
C1171 C1165 1.363 . S
C1171 C1166 1.379 . S
C1171 N1169 1.356 . S
N1172 C1164 1.356 . S
N1172 H1178 0.984 . S
N1172 H1179 0.984 . S
N1173 C1166 1.356 . S
N1173 H1176 0.984 . S
N1173 H1177 0.985 . S
H1174 N1169 0.984 . S
H1175 N1169 0.985 . S
H1176 N1173 0.984 . S
H1177 N1173 0.985 . S
H1178 N1172 0.984 . S
H1179 N1172 0.984 . S
H1180 N1168 0.984 . S
H1181 N1168 0.985 . S
C1182 C1183 1.363 . S
C1182 C1188 1.379 . S
C1182 N1190 1.356 . S
C1183 C1182 1.363 . S
C1183 C1189 1.363 . S
C1184 C1185 1.363 . S
C1184 C1189 1.379 . S
C1184 N1191 1.356 . S
C1185 C1184 1.363 . S
C1185 C1188 1.363 . S
N1186 C1188 1.356 . S
N1186 H1198 0.984 . S
N1186 H1199 0.985 . S
N1187 C1189 1.356 . S
N1187 H1192 0.984 . S
N1187 H1193 0.985 . S
C1188 C1182 1.379 . S
C1188 C1185 1.363 . S
C1188 N1186 1.356 . S
C1189 C1183 1.363 . S
C1189 C1184 1.379 . S
C1189 N1187 1.356 . S
N1190 C1182 1.356 . S
N1190 H1196 0.984 . S
N1190 H1197 0.984 . S
N1191 C1184 1.356 . S
N1191 H1194 0.984 . S
N1191 H1195 0.985 . S
H1192 N1187 0.984 . S
H1193 N1187 0.985 . S
H1194 N1191 0.984 . S
H1195 N1191 0.985 . S
H1196 N1190 0.984 . S
H1197 N1190 0.984 . S
H1198 N1186 0.984 . S
H1199 N1186 0.985 . S
C1200 C1201 1.363 . S
C1200 C1206 1.379 . S
C1200 N1208 1.356 . S
C1201 C1200 1.363 . S
C1201 C1207 1.363 . S
C1202 C1203 1.363 . S
C1202 C1207 1.379 . S
C1202 N1209 1.356 . S
C1203 C1202 1.363 . S
C1203 C1206 1.363 . S
N1204 C1206 1.356 . S
N1204 H1216 0.984 . S
N1204 H1217 0.985 . S
N1205 C1207 1.356 . S
N1205 H1210 0.984 . S
N1205 H1211 0.985 . S
C1206 C1200 1.379 . S
C1206 C1203 1.363 . S
C1206 N1204 1.356 . S
C1207 C1201 1.363 . S
C1207 C1202 1.379 . S
C1207 N1205 1.356 . S
N1208 C1200 1.356 . S
N1208 H1214 0.984 . S
N1208 H1215 0.984 . S
N1209 C1202 1.356 . S
N1209 H1212 0.984 . S
N1209 H1213 0.985 . S
H1210 N1205 0.984 . S
H1211 N1205 0.985 . S
H1212 N1209 0.984 . S
H1213 N1209 0.985 . S
H1214 N1208 0.984 . S
H1215 N1208 0.984 . S
H1216 N1204 0.984 . S
H1217 N1204 0.985 . S
C1218 C1219 1.363 . S
C1218 C1224 1.379 . S
C1218 N1226 1.356 . S
C1219 C1218 1.363 . S
C1219 C1225 1.363 . S
C1220 C1221 1.363 . S
C1220 C1225 1.379 . S
C1220 N1227 1.356 . S
C1221 C1220 1.363 . S
C1221 C1224 1.363 . S
N1222 C1224 1.356 . S
N1222 H1234 0.984 . S
N1222 H1235 0.985 . S
N1223 C1225 1.356 . S
N1223 H1228 0.984 . S
N1223 H1229 0.985 . S
C1224 C1218 1.379 . S
C1224 C1221 1.363 . S
C1224 N1222 1.356 . S
C1225 C1219 1.363 . S
C1225 C1220 1.379 . S
C1225 N1223 1.356 . S
N1226 C1218 1.356 . S
N1226 H1232 0.984 . S
N1226 H1233 0.984 . S
N1227 C1220 1.356 . S
N1227 H1230 0.984 . S
N1227 H1231 0.985 . S
H1228 N1223 0.984 . S
H1229 N1223 0.985 . S
H1230 N1227 0.984 . S
H1231 N1227 0.985 . S
H1232 N1226 0.984 . S
H1233 N1226 0.984 . S
H1234 N1222 0.984 . S
H1235 N1222 0.985 . S
C1236 C1237 1.363 . S
C1236 C1242 1.379 . S
C1236 N1244 1.356 . S
C1237 C1236 1.363 . S
C1237 C1243 1.363 . S
C1238 C1239 1.363 1_554 S
C1238 C1243 1.379 1_554 S
C1238 N1245 1.356 . S
C1239 C1238 1.363 1_556 S
C1239 C1242 1.363 . S
N1240 C1242 1.356 . S
N1240 H1252 0.984 . S
N1240 H1253 0.985 . S
N1241 C1243 1.356 1_554 S
N1241 H1246 0.984 . S
N1241 H1247 0.985 . S
C1242 C1236 1.379 . S
C1242 C1239 1.363 . S
C1242 N1240 1.356 . S
C1243 C1237 1.363 . S
C1243 C1238 1.379 1_556 S
C1243 N1241 1.356 1_556 S
N1244 C1236 1.356 . S
N1244 H1250 0.984 . S
N1244 H1251 0.984 . S
N1245 C1238 1.356 . S
N1245 H1248 0.984 . S
N1245 H1249 0.985 . S
H1246 N1241 0.984 . S
H1247 N1241 0.985 . S
H1248 N1245 0.984 . S
H1249 N1245 0.985 . S
H1250 N1244 0.984 . S
H1251 N1244 0.984 . S
H1252 N1240 0.984 . S
H1253 N1240 0.985 . S
C1254 C1255 1.363 . S
C1254 C1260 1.379 . S
C1254 N1262 1.356 . S
C1255 C1254 1.363 . S
C1255 C1261 1.363 . S
C1256 C1257 1.363 . S
C1256 C1261 1.379 . S
C1256 N1263 1.356 . S
C1257 C1256 1.363 . S
C1257 C1260 1.363 . S
N1258 C1260 1.356 . S
N1258 H1270 0.984 . S
N1258 H1271 0.985 . S
N1259 C1261 1.356 . S
N1259 H1264 0.984 . S
N1259 H1265 0.985 . S
C1260 C1254 1.379 . S
C1260 C1257 1.363 . S
C1260 N1258 1.356 . S
C1261 C1255 1.363 . S
C1261 C1256 1.379 . S
C1261 N1259 1.356 . S
N1262 C1254 1.356 . S
N1262 H1268 0.984 . S
N1262 H1269 0.984 . S
N1263 C1256 1.356 . S
N1263 H1266 0.984 . S
N1263 H1267 0.985 . S
H1264 N1259 0.984 . S
H1265 N1259 0.985 . S
H1266 N1263 0.984 . S
H1267 N1263 0.985 . S
H1268 N1262 0.984 . S
H1269 N1262 0.984 . S
H1270 N1258 0.984 . S
H1271 N1258 0.985 . S
C1272 C1273 1.363 . S
C1272 C1278 1.379 . S
C1272 N1280 1.356 . S
C1273 C1272 1.363 . S
C1273 C1279 1.363 . S
C1274 C1275 1.363 . S
C1274 C1279 1.379 . S
C1274 N1281 1.356 . S
C1275 C1274 1.363 . S
C1275 C1278 1.363 . S
N1276 C1278 1.356 . S
N1276 H1288 0.984 . S
N1276 H1289 0.985 . S
N1277 C1279 1.356 . S
N1277 H1282 0.984 . S
N1277 H1283 0.985 . S
C1278 C1272 1.379 . S
C1278 C1275 1.363 . S
C1278 N1276 1.356 . S
C1279 C1273 1.363 . S
C1279 C1274 1.379 . S
C1279 N1277 1.356 . S
N1280 C1272 1.356 . S
N1280 H1286 0.984 . S
N1280 H1287 0.984 . S
N1281 C1274 1.356 . S
N1281 H1284 0.984 . S
N1281 H1285 0.985 . S
H1282 N1277 0.984 . S
H1283 N1277 0.985 . S
H1284 N1281 0.984 . S
H1285 N1281 0.985 . S
H1286 N1280 0.984 . S
H1287 N1280 0.984 . S
H1288 N1276 0.984 . S
H1289 N1276 0.985 . S
C1290 C1291 1.363 . S
C1290 C1296 1.379 . S
C1290 N1298 1.356 . S
C1291 C1290 1.363 . S
C1291 C1297 1.363 . S
C1292 C1293 1.363 . S
C1292 C1297 1.379 . S
C1292 N1299 1.356 . S
C1293 C1292 1.363 . S
C1293 C1296 1.363 . S
N1294 C1296 1.356 . S
N1294 H1306 0.984 . S
N1294 H1307 0.985 . S
N1295 C1297 1.356 . S
N1295 H1300 0.984 . S
N1295 H1301 0.985 . S
C1296 C1290 1.379 . S
C1296 C1293 1.363 . S
C1296 N1294 1.356 . S
C1297 C1291 1.363 . S
C1297 C1292 1.379 . S
C1297 N1295 1.356 . S
N1298 C1290 1.356 . S
N1298 H1304 0.984 . S
N1298 H1305 0.984 . S
N1299 C1292 1.356 . S
N1299 H1302 0.984 . S
N1299 H1303 0.985 . S
H1300 N1295 0.984 . S
H1301 N1295 0.985 . S
H1302 N1299 0.984 . S
H1303 N1299 0.985 . S
H1304 N1298 0.984 . S
H1305 N1298 0.984 . S
H1306 N1294 0.984 . S
H1307 N1294 0.985 . S
C1308 C1309 1.363 . S
C1308 C1314 1.379 . S
C1308 N1316 1.356 . S
C1309 C1308 1.363 . S
C1309 C1315 1.363 . S
C1310 C1311 1.363 . S
C1310 C1315 1.379 . S
C1310 N1317 1.356 . S
C1311 C1310 1.363 . S
C1311 C1314 1.363 . S
N1312 C1314 1.356 . S
N1312 H1324 0.984 . S
N1312 H1325 0.985 . S
N1313 C1315 1.356 . S
N1313 H1318 0.984 . S
N1313 H1319 0.985 . S
C1314 C1308 1.379 . S
C1314 C1311 1.363 . S
C1314 N1312 1.356 . S
C1315 C1309 1.363 . S
C1315 C1310 1.379 . S
C1315 N1313 1.356 . S
N1316 C1308 1.356 . S
N1316 H1322 0.984 . S
N1316 H1323 0.984 . S
N1317 C1310 1.356 . S
N1317 H1320 0.984 . S
N1317 H1321 0.985 . S
H1318 N1313 0.984 . S
H1319 N1313 0.985 . S
H1320 N1317 0.984 . S
H1321 N1317 0.985 . S
H1322 N1316 0.984 . S
H1323 N1316 0.984 . S
H1324 N1312 0.984 . S
H1325 N1312 0.985 . S
C1326 C1327 1.363 . S
C1326 C1332 1.379 . S
C1326 N1334 1.356 . S
C1327 C1326 1.363 . S
C1327 C1333 1.363 . S
C1328 C1329 1.363 . S
C1328 C1333 1.379 . S
C1328 N1335 1.356 . S
C1329 C1328 1.363 . S
C1329 C1332 1.363 . S
N1330 C1332 1.356 . S
N1330 H1342 0.984 . S
N1330 H1343 0.985 . S
N1331 C1333 1.356 . S
N1331 H1336 0.984 . S
N1331 H1337 0.985 . S
C1332 C1326 1.379 . S
C1332 C1329 1.363 . S
C1332 N1330 1.356 . S
C1333 C1327 1.363 . S
C1333 C1328 1.379 . S
C1333 N1331 1.356 . S
N1334 C1326 1.356 . S
N1334 H1340 0.984 . S
N1334 H1341 0.984 . S
N1335 C1328 1.356 . S
N1335 H1338 0.984 . S
N1335 H1339 0.985 . S
H1336 N1331 0.984 . S
H1337 N1331 0.985 . S
H1338 N1335 0.984 . S
H1339 N1335 0.985 . S
H1340 N1334 0.984 . S
H1341 N1334 0.984 . S
H1342 N1330 0.984 . S
H1343 N1330 0.985 . S
C481 C1 1.310 . S
C483 C46 1.340 . S
C499 C61 0.854 . S
C501 N44 0.865 . S
C517 N104 0.576 . S
C519 N66 0.554 . S
C535 N6 0.924 . S
C537 C106 0.924 . S
C553 N14 0.924 . S
C555 C297 0.916 . S
C571 C220 1.310 . S
C573 C57 1.344 . S
C589 C70 0.854 . S
C591 N306 0.863 . S
C607 N96 0.576 . S
C609 N404 0.561 . S
C625 C250 0.854 . S
C627 N36 0.860 . S
C643 N366 0.576 . S
C645 N74 0.556 . S
C661 N434 0.924 . S
C663 C117 0.920 . S
C679 C10 1.310 . S
C681 C357 1.348 . S
C697 C27 1.390 . S
C699 C256 1.351 . S
C715 C361 1.384 . S
C717 C130 1.438 . S
C733 C177 1.354 . S
C735 C436 1.391 . S
C751 C340 1.438 . S
C753 C181 1.382 . S
C769 C87 1.354 . S
C771 C226 1.391 . S
C787 C280 1.384 . S
C789 C121 1.440 . S
C805 C190 1.383 . S
C807 C301 1.438 . S
C823 C160 0.854 . S
C825 N336 0.862 . S
C841 N276 0.576 . S
C843 N164 0.558 . S
C859 C346 1.344 . S
C861 C211 1.310 . S
C877 C151 0.854 . S
C879 N134 0.863 . S
C895 N284 0.576 . S
C897 N246 0.553 . S
C913 C391 0.854 . S
C915 N344 0.868 . S
C931 N194 0.576 . S
C933 N156 0.556 . S
C949 C286 0.920 . S
C951 N426 0.924 . S
C967 C417 1.354 . S
C969 C16 1.393 . S
C985 C76 1.354 . S
C987 C447 1.387 . S
C1003 C370 1.384 . S
C1005 C31 1.440 . S
C1021 C237 1.389 . S
C1023 C166 1.352 . S
C1039 C91 1.384 . S
C1041 C310 1.436 . S
C1057 N374 0.576 . S
C1059 N396 0.554 . S
C1075 N216 0.924 . S
C1077 C376 0.922 . S
C1093 C207 0.920 . S
C1095 N224 0.922 . S
C1111 N126 0.864 . S
C1113 C400 0.852 . S
C1129 C387 0.920 . S
C1131 N464 0.921 . S
C1147 C466 1.389 . S
C1149 C267 1.354 . S
C1165 C40 1.438 . S
C1167 C271 1.380 . S
C1183 N254 0.556 . S
C1185 N186 0.577 . S
C1201 C241 0.854 . S
C1203 N314 0.865 . S
C1219 N456 0.924 . S
C1221 C196 0.923 . S
C1237 C406 1.354 . S
C1239 C477 1.389 . S
C1255 C331 1.438 . S
C1257 C100 1.387 . S
C1273 C316 1.344 . S
C1275 C421 1.309 . S
C1291 C327 1.344 . S
C1293 C460 1.312 . S
C1309 C147 1.344 . S
C1311 C430 1.312 . S
C1327 C451 1.310 . S
C1329 C136 1.342 . S
